# Generated by pormake.
# Topology lcy-e, (6)-cn, num edge types: 1
# Building blocks:
#     Node 0, Type 0, BuildingBlock: UKALOJ_clean_sbu_0, # of connection points: 6
#     Node 1, Type 0, BuildingBlock: UKALOJ_clean_sbu_0, # of connection points: 6
#     Node 2, Type 0, BuildingBlock: UKALOJ_clean_sbu_0, # of connection points: 6
#     Node 3, Type 0, BuildingBlock: UKALOJ_clean_sbu_0, # of connection points: 6
#     Node 4, Type 0, BuildingBlock: UKALOJ_clean_sbu_0, # of connection points: 6
#     Node 5, Type 0, BuildingBlock: UKALOJ_clean_sbu_0, # of connection points: 6
#     Node 6, Type 0, BuildingBlock: UKALOJ_clean_sbu_0, # of connection points: 6
#     Node 7, Type 0, BuildingBlock: UKALOJ_clean_sbu_0, # of connection points: 6
#     Node 8, Type 0, BuildingBlock: UKALOJ_clean_sbu_0, # of connection points: 6
#     Node 9, Type 0, BuildingBlock: UKALOJ_clean_sbu_0, # of connection points: 6
#     Node 10, Type 0, BuildingBlock: UKALOJ_clean_sbu_0, # of connection points: 6
#     Node 11, Type 0, BuildingBlock: UKALOJ_clean_sbu_0, # of connection points: 6
#     Edge 12, Type (0, 0), BuildingBlock: EZIPEK_clean_linker_0, # of connection points: 2
#     Edge 13, Type (0, 0), BuildingBlock: EZIPEK_clean_linker_0, # of connection points: 2
#     Edge 14, Type (0, 0), BuildingBlock: EZIPEK_clean_linker_0, # of connection points: 2
#     Edge 15, Type (0, 0), BuildingBlock: EZIPEK_clean_linker_0, # of connection points: 2
#     Edge 16, Type (0, 0), BuildingBlock: EZIPEK_clean_linker_0, # of connection points: 2
#     Edge 17, Type (0, 0), BuildingBlock: EZIPEK_clean_linker_0, # of connection points: 2
#     Edge 18, Type (0, 0), BuildingBlock: EZIPEK_clean_linker_0, # of connection points: 2
#     Edge 19, Type (0, 0), BuildingBlock: EZIPEK_clean_linker_0, # of connection points: 2
#     Edge 20, Type (0, 0), BuildingBlock: EZIPEK_clean_linker_0, # of connection points: 2
#     Edge 21, Type (0, 0), BuildingBlock: EZIPEK_clean_linker_0, # of connection points: 2
#     Edge 22, Type (0, 0), BuildingBlock: EZIPEK_clean_linker_0, # of connection points: 2
#     Edge 23, Type (0, 0), BuildingBlock: EZIPEK_clean_linker_0, # of connection points: 2
#     Edge 24, Type (0, 0), BuildingBlock: EZIPEK_clean_linker_0, # of connection points: 2
#     Edge 25, Type (0, 0), BuildingBlock: EZIPEK_clean_linker_0, # of connection points: 2
#     Edge 26, Type (0, 0), BuildingBlock: EZIPEK_clean_linker_0, # of connection points: 2
#     Edge 27, Type (0, 0), BuildingBlock: EZIPEK_clean_linker_0, # of connection points: 2
#     Edge 28, Type (0, 0), BuildingBlock: EZIPEK_clean_linker_0, # of connection points: 2
#     Edge 29, Type (0, 0), BuildingBlock: EZIPEK_clean_linker_0, # of connection points: 2
#     Edge 30, Type (0, 0), BuildingBlock: EZIPEK_clean_linker_0, # of connection points: 2
#     Edge 31, Type (0, 0), BuildingBlock: EZIPEK_clean_linker_0, # of connection points: 2
#     Edge 32, Type (0, 0), BuildingBlock: EZIPEK_clean_linker_0, # of connection points: 2
#     Edge 33, Type (0, 0), BuildingBlock: EZIPEK_clean_linker_0, # of connection points: 2
#     Edge 34, Type (0, 0), BuildingBlock: EZIPEK_clean_linker_0, # of connection points: 2
#     Edge 35, Type (0, 0), BuildingBlock: EZIPEK_clean_linker_0, # of connection points: 2
#     Edge 36, Type (0, 0), BuildingBlock: EZIPEK_clean_linker_0, # of connection points: 2
#     Edge 37, Type (0, 0), BuildingBlock: EZIPEK_clean_linker_0, # of connection points: 2
#     Edge 38, Type (0, 0), BuildingBlock: EZIPEK_clean_linker_0, # of connection points: 2
#     Edge 39, Type (0, 0), BuildingBlock: EZIPEK_clean_linker_0, # of connection points: 2
#     Edge 40, Type (0, 0), BuildingBlock: EZIPEK_clean_linker_0, # of connection points: 2
#     Edge 41, Type (0, 0), BuildingBlock: EZIPEK_clean_linker_0, # of connection points: 2
#     Edge 42, Type (0, 0), BuildingBlock: EZIPEK_clean_linker_0, # of connection points: 2
#     Edge 43, Type (0, 0), BuildingBlock: EZIPEK_clean_linker_0, # of connection points: 2
#     Edge 44, Type (0, 0), BuildingBlock: EZIPEK_clean_linker_0, # of connection points: 2
#     Edge 45, Type (0, 0), BuildingBlock: EZIPEK_clean_linker_0, # of connection points: 2
#     Edge 46, Type (0, 0), BuildingBlock: EZIPEK_clean_linker_0, # of connection points: 2
#     Edge 47, Type (0, 0), BuildingBlock: EZIPEK_clean_linker_0, # of connection points: 2
# Relax obj value: 0.276
# Max RMSD: 0.295
# Mean RMSD: 0.295
data_MOF--net-lcy-e--node1-UKALOJ_clean_sbu_0--edge1-EZIPEK_clean_linker_0
_symmetry_space_group_name_H-M    P1
_symmetry_Int_Tables_number       1
_symmetry_cell_setting            triclinic
loop_
_symmetry_equiv_pos_as_xyz
'x, y, z'
_cell_length_a     29.627274
_cell_length_b     29.664408
_cell_length_c     29.620657
_cell_angle_alpha  89.674533
_cell_angle_beta   89.650248
_cell_angle_gamma 89.611432
loop_
_atom_site_label
_atom_site_type_symbol
_atom_site_fract_x
_atom_site_fract_y
_atom_site_fract_z
_atom_type_partial_charge
Zn0 Zn 0.10955 0.25137 0.44872 0.0
O1 O 0.15446 0.29678 0.47236 0.0
C2 C 0.18383 0.19257 0.41327 0.0
Zn3 Zn 0.13412 0.20027 0.49865 0.0
C4 C 0.18207 0.28925 0.50385 0.0
O5 O 0.18408 0.24984 0.52194 0.0
C6 C 0.05768 0.16805 0.44198 0.0
O7 O 0.09115 0.22468 0.54601 0.0
O8 O 0.06163 0.27562 0.50045 0.0
N9 N 0.15487 0.14862 0.54068 0.0
C10 C 0.12878 0.12084 0.56583 0.0
C11 C 0.189 0.08457 0.54973 0.0
N12 N 0.19247 0.12604 0.53121 0.0
N13 N 0.14907 0.0803 0.57127 0.0
C14 C 0.11401 0.321 0.37139 0.0
C15 C 0.05214 0.30902 0.3374 0.0
N16 N 0.08833 0.29549 0.3992 0.0
N17 N 0.04965 0.28866 0.37815 0.0
N18 N 0.09244 0.32923 0.3322 0.0
H19 H 0.16063 0.35649 0.41253 0.0
H20 H 0.17535 0.35699 0.3538 0.0
H21 H 0.18335 0.3063 0.38678 0.0
C22 C 0.16112 0.33595 0.3814 0.0
C23 C 0.08274 0.13261 0.58362 0.0
H24 H 0.08515 0.16311 0.60489 0.0
H25 H 0.06841 0.10513 0.60465 0.0
H26 H 0.05953 0.1399 0.55531 0.0
O27 O 0.08292 0.15522 0.47419 0.0
O28 O 0.06294 0.2067 0.42492 0.0
C29 C 0.06431 0.25732 0.53972 0.0
O30 O 0.1592 0.22572 0.40116 0.0
O31 O 0.17874 0.17566 0.45204 0.0
Zn32 Zn 0.99751 0.87219 0.71189 0.0
O33 O 0.95885 0.92742 0.72552 0.0
C34 C 0.06002 0.93911 0.66402 0.0
Zn35 Zn 0.0486 0.90244 0.7533 0.0
C36 C 0.96454 0.95537 0.75677 0.0
O37 O 0.00087 0.95308 0.77993 0.0
C38 C 0.0765 0.81787 0.70043 0.0
O39 O 0.0287 0.85884 0.80433 0.0
O40 O 0.96603 0.8388 0.77166 0.0
N41 N 0.10248 0.92307 0.79112 0.0
C42 C 0.12967 0.89776 0.81759 0.0
C43 C 0.16641 0.95669 0.79928 0.0
N44 N 0.12527 0.95991 0.78021 0.0
N45 N 0.16992 0.91783 0.82272 0.0
C46 C 0.92882 0.87637 0.63518 0.0
C47 C 0.91789 0.80746 0.61867 0.0
N48 N 0.95017 0.85128 0.6667 0.0
N49 N 0.94338 0.8084 0.65636 0.0
N50 N 0.90874 0.84986 0.60491 0.0
H51 H 0.89697 0.93804 0.65326 0.0
H52 H 0.9222 0.93935 0.59828 0.0
H53 H 0.95727 0.94264 0.64707 0.0
C54 C 0.92676 0.92692 0.63335 0.0
C55 C 0.11777 0.85267 0.83747 0.0
H56 H 0.09012 0.85724 0.86248 0.0
H57 H 0.14659 0.83668 0.85522 0.0
H58 H 0.106 0.8297 0.81085 0.0
O59 O 0.09325 0.85112 0.72165 0.0
O60 O 0.03414 0.81511 0.69766 0.0
C61 C 0.99097 0.83946 0.80691 0.0
O62 O 0.03254 0.90749 0.65532 0.0
O63 O 0.06848 0.94729 0.70479 0.0
Zn64 Zn 0.35998 0.8005 0.99025 0.0
O65 O 0.41275 0.78024 0.0314 0.0
C66 C 0.43253 0.82899 0.92323 0.0
Zn67 Zn 0.3809 0.75094 0.94114 0.0
C68 C 0.43508 0.74422 0.02554 0.0
O69 O 0.42749 0.72159 0.98975 0.0
C70 C 0.30716 0.81476 0.90976 0.0
O71 O 0.33168 0.70963 0.96793 0.0
O72 O 0.31799 0.75254 0.02647 0.0
N73 N 0.39351 0.70411 0.89292 0.0
C74 C 0.3634 0.68377 0.86606 0.0
C75 C 0.42869 0.67246 0.83736 0.0
N76 N 0.43412 0.69688 0.87524 0.0
N77 N 0.38455 0.66427 0.83093 0.0
C78 C 0.37203 0.8845 0.04798 0.0
C79 C 0.30613 0.89748 0.07444 0.0
N80 N 0.34518 0.85122 0.03354 0.0
N81 N 0.30413 0.85934 0.04983 0.0
N82 N 0.34839 0.9138 0.0731 0.0
H83 H 0.44007 0.90069 0.06705 0.0
H84 H 0.42472 0.91712 0.01097 0.0
H85 H 0.43648 0.85892 0.02372 0.0
C86 C 0.42114 0.89007 0.03676 0.0
C87 C 0.31322 0.6824 0.87386 0.0
H88 H 0.30064 0.71194 0.89264 0.0
H89 H 0.30513 0.65184 0.89403 0.0
H90 H 0.29483 0.68023 0.84144 0.0
O91 O 0.33577 0.78635 0.89469 0.0
O92 O 0.30589 0.82151 0.95179 0.0
C93 C 0.31359 0.71496 0.00621 0.0
O94 O 0.40458 0.84562 0.95155 0.0
O95 O 0.43111 0.7876 0.91454 0.0
Zn96 Zn 0.50195 0.12615 0.19576 0.0
O97 O 0.54206 0.07544 0.21933 0.0
C98 C 0.43836 0.05519 0.16434 0.0
Zn99 Zn 0.44776 0.11092 0.24251 0.0
C100 C 0.53612 0.05874 0.258 0.0
O101 O 0.49862 0.0667 0.27871 0.0
C102 C 0.42266 0.18348 0.17865 0.0
O103 O 0.46573 0.16296 0.28149 0.0
O104 O 0.53188 0.16886 0.24932 0.0
N105 N 0.39575 0.0986 0.28617 0.0
C106 C 0.36665 0.12846 0.30479 0.0
C107 C 0.3402 0.06276 0.31708 0.0
N108 N 0.37924 0.05779 0.29379 0.0
N109 N 0.33167 0.10684 0.32384 0.0
C110 C 0.56613 0.10848 0.11624 0.0
C111 C 0.59119 0.17334 0.0981 0.0
N112 N 0.55025 0.13794 0.14727 0.0
N113 N 0.56602 0.17823 0.13604 0.0
N114 N 0.59126 0.12989 0.08507 0.0
H115 H 0.54267 0.04498 0.14584 0.0
H116 H 0.58514 0.03931 0.10327 0.0
H117 H 0.52904 0.05424 0.08731 0.0
C118 C 0.55502 0.0591 0.11365 0.0
C119 C 0.37214 0.17889 0.30566 0.0
H120 H 0.39392 0.18776 0.33458 0.0
H121 H 0.33917 0.19622 0.31037 0.0
H122 H 0.38792 0.19226 0.27466 0.0
O123 O 0.40387 0.15543 0.20529 0.0
O124 O 0.46451 0.17992 0.1707 0.0
C125 C 0.5053 0.17736 0.28273 0.0
O126 O 0.46832 0.08174 0.14892 0.0
O127 O 0.42629 0.05826 0.20506 0.0
Zn128 Zn 0.61268 0.25216 0.54567 0.0
O129 O 0.66165 0.20767 0.52547 0.0
C130 C 0.68637 0.30965 0.58046 0.0
Zn131 Zn 0.63514 0.3028 0.49705 0.0
C132 C 0.68244 0.21112 0.48849 0.0
O133 O 0.67898 0.24816 0.466 0.0
C134 C 0.5597 0.33523 0.55569 0.0
O135 O 0.5855 0.28677 0.45412 0.0
O136 O 0.57023 0.22443 0.49075 0.0
N137 N 0.65585 0.35342 0.45434 0.0
C138 C 0.63032 0.38289 0.43054 0.0
C139 C 0.69496 0.41281 0.43878 0.0
N140 N 0.69611 0.37199 0.45902 0.0
N141 N 0.6539 0.42047 0.42093 0.0
C142 C 0.62316 0.18618 0.62435 0.0
C143 C 0.55641 0.17822 0.65041 0.0
N144 N 0.59486 0.20691 0.59511 0.0
N145 N 0.55338 0.20204 0.61144 0.0
N146 N 0.59997 0.16855 0.6593 0.0
H147 H 0.68157 0.15124 0.59949 0.0
H148 H 0.69025 0.17855 0.65259 0.0
H149 H 0.68926 0.21073 0.60159 0.0
C150 C 0.67373 0.18202 0.61924 0.0
C151 C 0.58164 0.37614 0.41837 0.0
H152 H 0.56735 0.40537 0.39978 0.0
H153 H 0.56107 0.37015 0.44915 0.0
H154 H 0.57888 0.34648 0.39602 0.0
O155 O 0.58944 0.35097 0.52875 0.0
O156 O 0.56116 0.29401 0.56656 0.0
C157 C 0.56668 0.24903 0.45499 0.0
O158 O 0.65652 0.28263 0.59499 0.0
O159 O 0.68641 0.32102 0.53941 0.0
Zn160 Zn 0.95017 0.36788 0.75693 0.0
O161 O 0.97598 0.32054 0.71457 0.0
C162 C 0.92475 0.29131 0.81673 0.0
Zn163 Zn -0.00107 0.35407 0.8088 0.0
C164 C 0.01605 0.3069 0.7187 0.0
O165 O 0.03748 0.31607 0.75507 0.0
C166 C 0.92786 0.41827 0.83854 0.0
O167 O 0.03457 0.41113 0.79297 0.0
O168 O 0.00062 0.41551 0.72803 0.0
N169 N 0.04596 0.34273 0.85789 0.0
C170 C 0.05678 0.36988 0.89252 0.0
C171 C 0.10155 0.31333 0.89496 0.0
N172 N 0.07381 0.30757 0.85939 0.0
N173 N 0.0911 0.35209 0.91619 0.0
C174 C 0.87023 0.35576 0.69325 0.0
C175 C 0.85568 0.42275 0.67078 0.0
N176 N 0.90231 0.38269 0.71019 0.0
N177 N 0.89337 0.4243 0.69612 0.0
N178 N 0.84049 0.38013 0.66909 0.0
H179 H 0.89927 0.29032 0.70957 0.0
H180 H 0.85185 0.28861 0.67229 0.0
H181 H 0.84281 0.30041 0.73071 0.0
C182 C 0.86624 0.30597 0.70187 0.0
C183 C 0.03399 0.414 0.90384 0.0
H184 H 0.02638 0.43374 0.87301 0.0
H185 H 0.05457 0.43544 0.92599 0.0
H186 H 0.00234 0.40704 0.92273 0.0
O187 O 0.95761 0.3922 0.85528 0.0
O188 O 0.92082 0.41653 0.79665 0.0
C189 C 0.03401 0.42602 0.75323 0.0
O190 O 0.90677 0.3186 0.78868 0.0
O191 O 0.96547 0.29644 0.82796 0.0
Zn192 Zn 0.87742 0.76853 0.0624 0.0
O193 O 0.83642 0.76066 0.00462 0.0
C194 C 0.81304 0.69622 0.08031 0.0
Zn195 Zn 0.86742 0.68328 0.97776 0.0
C196 C 0.81061 0.76001 0.97102 0.0
O197 O 0.81473 0.7255 0.94565 0.0
C198 C 0.93414 0.66663 0.04836 0.0
O199 O 0.90911 0.74182 0.98344 0.0
O200 O 0.92945 0.80077 0.01978 0.0
N201 N 0.83582 0.62515 0.96382 0.0
C202 C 0.85872 0.59443 0.9399 0.0
C203 C 0.79613 0.56482 0.9587 0.0
N204 N 0.79672 0.60712 0.97589 0.0
N205 N 0.83516 0.55618 0.93645 0.0
C206 C 0.88352 0.80697 0.15136 0.0
C207 C 0.94548 0.78966 0.183 0.0
N208 N 0.90805 0.78399 0.12109 0.0
N209 N 0.94683 0.7729 0.14043 0.0
N210 N 0.90553 0.81063 0.19047 0.0
H211 H 0.83736 0.86262 0.14495 0.0
H212 H 0.8133 0.8123 0.1685 0.0
H213 H 0.82594 0.81599 0.10865 0.0
C214 C 0.83721 0.82534 0.14263 0.0
C215 C 0.90503 0.60197 0.9207 0.0
H216 H 0.9176 0.63574 0.9296 0.0
H217 H 0.90429 0.59958 0.8834 0.0
H218 H 0.92846 0.57553 0.93344 0.0
O219 O 0.91659 0.6476 0.01429 0.0
O220 O 0.91942 0.70535 0.061 0.0
C221 C 0.93429 0.77591 0.98489 0.0
O222 O 0.82752 0.7321 0.09853 0.0
O223 O 0.82821 0.68415 0.04169 0.0
Zn224 Zn 0.55207 0.60635 0.24474 0.0
O225 O 0.53389 0.65665 0.20044 0.0
C226 C 0.58487 0.68403 0.30268 0.0
Zn227 Zn 0.50279 0.63616 0.28911 0.0
C228 C 0.49659 0.67698 0.19893 0.0
O229 O 0.47091 0.67586 0.23399 0.0
C230 C 0.56532 0.56259 0.3283 0.0
O231 O 0.46012 0.58477 0.27343 0.0
O232 O 0.49912 0.56197 0.21489 0.0
N233 N 0.45822 0.65441 0.3395 0.0
C234 C 0.43688 0.62694 0.36918 0.0
C235 C 0.42767 0.69418 0.39268 0.0
N236 N 0.45255 0.6962 0.35428 0.0
N237 N 0.41788 0.65097 0.4027 0.0
C238 C 0.63087 0.61789 0.17681 0.0
C239 C 0.66121 0.55268 0.17352 0.0
N240 N 0.60377 0.5895 0.2003 0.0
N241 N 0.62272 0.54894 0.19804 0.0
N242 N 0.66686 0.5957 0.1599 0.0
H243 H 0.61014 0.6833 0.20226 0.0
H244 H 0.59887 0.67362 0.14361 0.0
H245 H 0.65513 0.68541 0.16166 0.0
C246 C 0.62353 0.66783 0.17113 0.0
C247 C 0.43399 0.57644 0.36597 0.0
H248 H 0.40516 0.56772 0.34399 0.0
H249 H 0.42796 0.56089 0.39961 0.0
H250 H 0.46489 0.56135 0.35145 0.0
O251 O 0.53957 0.59524 0.3397 0.0
O252 O 0.57119 0.55508 0.28674 0.0
C253 C 0.46286 0.56058 0.2388 0.0
O254 O 0.59982 0.65055 0.28013 0.0
O255 O 0.54267 0.68979 0.30548 0.0
Zn256 Zn 0.20013 0.50165 0.14055 0.0
O257 O 0.22845 0.54713 0.09606 0.0
C258 C 0.17142 0.44527 0.06107 0.0
Zn259 Zn 0.25055 0.45126 0.11674 0.0
C260 C 0.26419 0.54086 0.0734 0.0
O261 O 0.28338 0.50209 0.07408 0.0
C262 C 0.18269 0.41533 0.18547 0.0
O263 O 0.29186 0.47157 0.16879 0.0
O264 O 0.24649 0.52578 0.19139 0.0
N265 N 0.29594 0.40188 0.09986 0.0
C266 C 0.31631 0.37118 0.12672 0.0
C267 C 0.32937 0.35163 0.05869 0.0
N268 N 0.30418 0.38975 0.05756 0.0
N269 N 0.33704 0.33938 0.10181 0.0
C270 C 0.12585 0.57547 0.12871 0.0
C271 C 0.08095 0.55874 0.18255 0.0
N272 N 0.14809 0.54631 0.15612 0.0
N273 N 0.12015 0.53659 0.18984 0.0
N274 N 0.08339 0.58305 0.14407 0.0
H275 H 0.17654 0.61244 0.09269 0.0
H276 H 0.12111 0.61927 0.06985 0.0
H277 H 0.15159 0.56704 0.0614 0.0
C278 C 0.14461 0.59463 0.08558 0.0
C279 C 0.31673 0.37187 0.17734 0.0
H280 H 0.28897 0.39227 0.19162 0.0
H281 H 0.34923 0.38631 0.18843 0.0
H282 H 0.31481 0.33708 0.19117 0.0
O283 O 0.21434 0.40275 0.1591 0.0
O284 O 0.17268 0.45679 0.18645 0.0
C285 C 0.28448 0.5051 0.19406 0.0
O286 O 0.1566 0.47478 0.08856 0.0
O287 O 0.21152 0.43114 0.06408 0.0
Zn288 Zn 0.74738 0.0339 0.87386 0.0
O289 O 0.78726 0.01865 0.8216 0.0
C290 C 0.68663 0.07565 0.80444 0.0
Zn291 Zn 0.69586 0.98935 0.84959 0.0
C292 C 0.78383 0.98399 0.79797 0.0
O293 O 0.74774 0.96045 0.80123 0.0
C294 C 0.66847 0.04482 0.93004 0.0
O295 O 0.71307 0.94068 0.89469 0.0
O296 O 0.7768 0.97326 0.91058 0.0
N297 N 0.64425 0.94925 0.83026 0.0
C298 C 0.61322 0.92944 0.85715 0.0
C299 C 0.59107 0.92187 0.78921 0.0
N300 N 0.63049 0.94457 0.78802 0.0
N301 N 0.57962 0.91265 0.83233 0.0
C302 C 0.81389 0.11209 0.86902 0.0
C303 C 0.84018 0.11676 0.93572 0.0
N304 N 0.79605 0.07788 0.89332 0.0
N305 N 0.81252 0.0807 0.93474 0.0
N306 N 0.84106 0.13687 0.89485 0.0
H307 H 0.7909 0.09519 0.80106 0.0
H308 H 0.83362 0.13724 0.80322 0.0
H309 H 0.77737 0.15111 0.82027 0.0
C310 C 0.80328 0.12392 0.82069 0.0
C311 C 0.61493 0.92531 0.9079 0.0
H312 H 0.62534 0.89044 0.91695 0.0
H313 H 0.58086 0.93113 0.92261 0.0
H314 H 0.63867 0.94822 0.9242 0.0
O315 O 0.65069 0.02163 0.89881 0.0
O316 O 0.71035 0.05191 0.929 0.0
C317 C 0.75145 0.93817 0.91214 0.0
O318 O 0.71474 0.08796 0.83428 0.0
O319 O 0.67564 0.03478 0.80257 0.0
Zn320 Zn 0.74316 0.94261 0.39584 0.0
O321 O 0.70047 0.96862 0.34847 0.0
C322 C 0.81001 0.90976 0.32554 0.0
Zn323 Zn 0.79576 0.99211 0.37668 0.0
C324 C 0.70973 0.00165 0.32313 0.0
O325 O 0.74931 0.01883 0.32451 0.0
C326 C 0.82276 0.93114 0.45292 0.0
O327 O 0.76773 0.03735 0.41981 0.0
O328 O 0.71435 0.99203 0.4439 0.0
N329 N 0.84532 0.03703 0.36136 0.0
C330 C 0.87504 0.05662 0.38924 0.0
C331 C 0.89647 0.07106 0.32185 0.0
N332 N 0.85857 0.04614 0.31945 0.0
N333 N 0.90738 0.07757 0.36537 0.0
C334 C 0.67623 0.86556 0.38217 0.0
C335 C 0.68278 0.82886 0.44387 0.0
N336 N 0.69858 0.89216 0.41117 0.0
N337 N 0.70216 0.8694 0.44963 0.0
N338 N 0.66668 0.82554 0.40161 0.0
H339 H 0.64337 0.90837 0.3342 0.0
H340 H 0.64672 0.8507 0.31692 0.0
H341 H 0.69648 0.88534 0.31515 0.0
C342 C 0.66519 0.87788 0.33429 0.0
C343 C 0.87476 0.05345 0.43983 0.0
H344 H 0.88329 0.08654 0.45469 0.0
H345 H 0.90109 0.02896 0.45064 0.0
H346 H 0.84183 0.04274 0.45333 0.0
O347 O 0.83786 0.96371 0.42937 0.0
O348 O 0.78397 0.91609 0.44509 0.0
C349 C 0.73323 0.03086 0.44406 0.0
O350 O 0.77455 0.89732 0.3466 0.0
O351 O 0.82545 0.94859 0.33255 0.0
Zn352 Zn 0.28962 0.50515 0.6228 0.0
O353 O 0.26942 0.4632 0.57378 0.0
C354 C 0.32111 0.5688 0.54986 0.0
Zn355 Zn 0.23948 0.55694 0.60498 0.0
C356 C 0.23213 0.46753 0.55422 0.0
O357 O 0.20924 0.50425 0.55947 0.0
C358 C 0.29938 0.58556 0.6787 0.0
O359 O 0.19818 0.53566 0.65491 0.0
O360 O 0.23666 0.4739 0.66727 0.0
N361 N 0.19469 0.60839 0.59043 0.0
C362 C 0.17191 0.63487 0.62 0.0
C363 C 0.17865 0.67232 0.55874 0.0
N364 N 0.19847 0.63175 0.55233 0.0
N365 N 0.16218 0.6752 0.60112 0.0
C366 C 0.37042 0.44076 0.60975 0.0
C367 C 0.39351 0.42846 0.67677 0.0
N368 N 0.3401 0.45996 0.63813 0.0
N369 N 0.35453 0.45223 0.67977 0.0
N370 N 0.40419 0.42132 0.63311 0.0
H371 H 0.35489 0.40715 0.54819 0.0
H372 H 0.40204 0.44437 0.54402 0.0
H373 H 0.34547 0.46651 0.54491 0.0
C374 C 0.36787 0.44036 0.559 0.0
C375 C 0.16096 0.62256 0.66815 0.0
H376 H 0.13911 0.59247 0.66879 0.0
H377 H 0.14218 0.64967 0.68584 0.0
H378 H 0.19226 0.61502 0.68709 0.0
O379 O 0.2707 0.6024 0.65155 0.0
O380 O 0.31134 0.54488 0.67457 0.0
C381 C 0.20049 0.49747 0.6731 0.0
O382 O 0.33653 0.53894 0.57682 0.0
O383 O 0.28029 0.58076 0.55342 0.0
C384 C 0.18994 0.34844 0.56235 0.0
C385 C 0.20558 0.32976 0.5213 0.0
C386 C 0.23502 0.40425 0.49838 0.0
C387 C 0.21382 0.42419 0.53657 0.0
N388 N 0.16894 0.41567 0.60366 0.0
N389 N 0.2461 0.33801 0.45139 0.0
C390 C 0.19057 0.39613 0.56806 0.0
C391 C 0.22942 0.35725 0.48986 0.0
N392 N 0.174 0.32047 0.59557 0.0
N393 N 0.26152 0.4303 0.47097 0.0
H394 H 0.24532 0.30325 0.4463 0.0
H395 H 0.25927 0.35606 0.42419 0.0
H396 H 0.26361 0.46511 0.47482 0.0
H397 H 0.2824 0.41765 0.44562 0.0
H398 H 0.16451 0.33094 0.6277 0.0
H399 H 0.17402 0.28553 0.59255 0.0
H400 H 0.15204 0.3985 0.62918 0.0
H401 H 0.16499 0.45029 0.60529 0.0
C402 C 0.85869 0.95321 0.81365 0.0
C403 C 0.82813 0.96816 0.77994 0.0
C404 C 0.89356 0.99504 0.73578 0.0
C405 C 0.92288 0.97996 0.77063 0.0
N406 N 0.92942 0.96904 0.85008 0.0
N407 N 0.81631 0.00364 0.7082 0.0
C408 C 0.90418 0.96679 0.81201 0.0
C409 C 0.84569 0.98952 0.74066 0.0
N410 N 0.84394 0.92608 0.84762 0.0
N411 N 0.91237 0.01425 0.69824 0.0
H412 H 0.78213 0.99555 0.71011 0.0
H413 H 0.82545 0.02166 0.6794 0.0
H414 H 0.94716 0.0195 0.69592 0.0
H415 H 0.89432 0.02506 0.67016 0.0
H416 H 0.86529 0.91214 0.87194 0.0
H417 H 0.8114 0.91354 0.84714 0.0
H418 H 0.91613 0.96272 0.88217 0.0
H419 H 0.9618 0.98274 0.84935 0.0
C420 C 0.26121 0.6497 0.00806 0.0
C421 C 0.29703 0.67325 0.02861 0.0
C422 C 0.32018 0.60372 0.06857 0.0
C423 C 0.28295 0.58106 0.04979 0.0
N424 N 0.2265 0.57739 0.99276 0.0
N425 N 0.35843 0.67458 0.08156 0.0
C426 C 0.25572 0.60284 0.01704 0.0
C427 C 0.326 0.65069 0.05971 0.0
N428 N 0.23209 0.67271 0.98054 0.0
N429 N 0.35076 0.5798 0.09357 0.0
H430 H 0.36216 0.70924 0.07791 0.0
H431 H 0.37967 0.66116 0.10596 0.0
H432 H 0.34696 0.54567 0.10102 0.0
H433 H 0.38202 0.59219 0.10299 0.0
H434 H 0.20308 0.65887 0.96686 0.0
H435 H 0.23518 0.70722 0.97423 0.0
H436 H 0.20677 0.58951 0.96638 0.0
H437 H 0.22621 0.54241 0.99626 0.0
C438 C 0.60346 0.06882 0.30764 0.0
C439 C 0.57803 0.03981 0.27946 0.0
C440 C 0.64609 0.99221 0.26915 0.0
C441 C 0.67097 0.02125 0.29753 0.0
N442 N 0.67706 0.09283 0.33435 0.0
N443 N 0.57701 0.97722 0.22819 0.0
C444 C 0.65081 0.06157 0.31346 0.0
C445 C 0.60006 0.00238 0.25876 0.0
N446 N 0.58192 0.10334 0.32916 0.0
N447 N 0.66688 0.95445 0.25258 0.0
H448 H 0.54268 0.98192 0.22241 0.0
H449 H 0.59177 0.9529 0.20758 0.0
H450 H 0.70145 0.94864 0.25648 0.0
H451 H 0.65018 0.9285 0.23629 0.0
H452 H 0.59736 0.12648 0.35004 0.0
H453 H 0.54709 0.10644 0.32902 0.0
H454 H 0.66595 0.12479 0.34365 0.0
H455 H 0.71164 0.08851 0.33885 0.0
C456 C 0.73941 0.14844 0.4864 0.0
C457 C 0.69888 0.16712 0.46954 0.0
C458 C 0.6732 0.09045 0.44926 0.0
C459 C 0.71419 0.07216 0.46575 0.0
N460 N 0.78021 0.08138 0.51104 0.0
N461 N 0.62751 0.15675 0.43414 0.0
C462 C 0.74529 0.10067 0.48794 0.0
C463 C 0.66595 0.13804 0.45078 0.0
N464 N 0.77301 0.17679 0.49908 0.0
N465 N 0.64204 0.06251 0.43051 0.0
H466 H 0.62665 0.19081 0.42632 0.0
H467 H 0.5979 0.13938 0.42774 0.0
H468 H 0.64482 0.02755 0.43167 0.0
H469 H 0.6128 0.07333 0.41451 0.0
H470 H 0.80499 0.16604 0.50896 0.0
H471 H 0.77005 0.21156 0.49441 0.0
H472 H 0.80262 0.09937 0.53086 0.0
H473 H 0.78384 0.04641 0.51358 0.0
C474 C 0.12026 0.43061 0.74929 0.0
C475 C 0.07665 0.44704 0.73536 0.0
C476 C 0.11432 0.49275 0.67777 0.0
C477 C 0.15802 0.4804 0.69529 0.0
N478 N 0.19929 0.44836 0.75774 0.0
N479 N 0.03515 0.50438 0.69528 0.0
C480 C 0.15998 0.45287 0.73425 0.0
C481 C 0.07465 0.48153 0.70253 0.0
N482 N 0.12484 0.39163 0.77376 0.0
N483 N 0.10957 0.51266 0.63626 0.0
H484 H 0.00583 0.49816 0.71391 0.0
H485 H 0.03314 0.53294 0.67467 0.0
H486 H 0.13595 0.51965 0.61412 0.0
H487 H 0.07821 0.51747 0.62114 0.0
H488 H 0.15618 0.37713 0.78082 0.0
H489 H 0.09846 0.3701 0.78156 0.0
H490 H 0.20093 0.43204 0.78898 0.0
H491 H 0.22878 0.46529 0.74888 0.0
C492 C 0.77966 0.88451 0.973 0.0
C493 C 0.76579 0.89189 0.92791 0.0
C494 C 0.76485 0.80875 0.91635 0.0
C495 C 0.78498 0.80258 0.95888 0.0
N496 N 0.78243 0.83091 0.03458 0.0
N497 N 0.74508 0.85905 0.8555 0.0
C498 C 0.78449 0.83948 0.98937 0.0
C499 C 0.75778 0.85339 0.89948 0.0
N500 N 0.7877 0.92019 0.00068 0.0
N501 N 0.74806 0.77226 0.89422 0.0
H502 H 0.73817 0.89001 0.84072 0.0
H503 H 0.7455 0.8332 0.83188 0.0
H504 H 0.74712 0.74024 0.90879 0.0
H505 H 0.72874 0.77444 0.86505 0.0
H506 H 0.80286 0.91656 0.03217 0.0
H507 H 0.78213 0.9536 0.99108 0.0
H508 H 0.77691 0.85595 0.05854 0.0
H509 H 0.7788 0.79822 0.04722 0.0
C510 C 0.38746 0.57486 0.20533 0.0
C511 C 0.41856 0.54258 0.22309 0.0
C512 C 0.35494 0.49161 0.23848 0.0
C513 C 0.32471 0.52315 0.21816 0.0
N514 N 0.30977 0.59935 0.19418 0.0
N515 N 0.43159 0.47299 0.26264 0.0
C516 C 0.3402 0.56659 0.20616 0.0
C517 C 0.40208 0.50162 0.24152 0.0
N518 N 0.4039 0.61414 0.18827 0.0
N519 N 0.33781 0.45206 0.25477 0.0
H520 H 0.46627 0.47896 0.26328 0.0
H521 H 0.42228 0.44387 0.27991 0.0
H522 H 0.30309 0.44624 0.25597 0.0
H523 H 0.35714 0.42539 0.26709 0.0
H524 H 0.38507 0.64276 0.18069 0.0
H525 H 0.43768 0.61659 0.17976 0.0
H526 H 0.31796 0.63089 0.18129 0.0
H527 H 0.27534 0.59645 0.20044 0.0
C528 C 0.55219 0.2319 0.32746 0.0
C529 C 0.51989 0.19733 0.32658 0.0
C530 C 0.51069 0.20474 0.40929 0.0
C531 C 0.54916 0.23227 0.41084 0.0
N532 N 0.6142 0.26179 0.36874 0.0
N533 N 0.47623 0.14284 0.37143 0.0
C534 C 0.57201 0.24337 0.36923 0.0
C535 C 0.50093 0.1816 0.36873 0.0
N536 N 0.56355 0.25467 0.28888 0.0
N537 N 0.48291 0.20095 0.44606 0.0
H538 H 0.47159 0.1207 0.34487 0.0
H539 H 0.46551 0.12907 0.4021 0.0
H540 H 0.48827 0.21847 0.47595 0.0
H541 H 0.45189 0.18459 0.44487 0.0
H542 H 0.58413 0.28306 0.28901 0.0
H543 H 0.54822 0.24876 0.2579 0.0
H544 H 0.63278 0.26624 0.33905 0.0
H545 H 0.6335 0.26702 0.39731 0.0
C546 C 0.05698 0.31719 0.59854 0.0
C547 C 0.04239 0.27535 0.58123 0.0
C548 C 0.0231 0.24969 0.65807 0.0
C549 C 0.03755 0.29122 0.67578 0.0
N550 N 0.06963 0.36405 0.66409 0.0
N551 N 0.00035 0.20737 0.59213 0.0
C552 C 0.05496 0.32477 0.64608 0.0
C553 C 0.02178 0.24344 0.61048 0.0
N554 N 0.07398 0.34901 0.56965 0.0
N555 N 0.01236 0.21565 0.68725 0.0
H556 H -0.00168 0.20306 0.55724 0.0
H557 H 0.98147 0.18436 0.61087 0.0
H558 H 0.01679 0.21916 0.72195 0.0
H559 H 0.00447 0.18309 0.67717 0.0
H560 H 0.0873 0.37964 0.57954 0.0
H561 H 0.07379 0.34547 0.53473 0.0
H562 H 0.07545 0.39356 0.64598 0.0
H563 H 0.07639 0.366 0.69834 0.0
C564 C 0.98193 0.85109 0.89132 0.0
C565 C 0.97689 0.82236 0.85285 0.0
C566 C 0.96091 0.75952 0.90482 0.0
C567 C 0.95913 0.78969 0.94214 0.0
N568 N 0.99127 0.85698 0.9725 0.0
N569 N 0.96041 0.74862 0.82369 0.0
C570 C 0.97625 0.8336 0.93599 0.0
C571 C 0.96586 0.77643 0.85983 0.0
N572 N 0.99061 0.89585 0.88532 0.0
N573 N 0.96326 0.71425 0.913 0.0
H574 H 0.96661 0.75864 0.79048 0.0
H575 H 0.94681 0.71642 0.82647 0.0
H576 H 0.96668 0.70133 0.9456 0.0
H577 H 0.9688 0.69027 0.888 0.0
H578 H 0.98919 0.91941 0.9112 0.0
H579 H 0.99513 0.91061 0.85382 0.0
H580 H 0.00803 0.88763 0.97025 0.0
H581 H 0.99361 0.84252 0.00453 0.0
C582 C 0.4858 0.66489 0.1145 0.0
C583 C 0.48241 0.69399 0.15322 0.0
C584 C 0.47099 0.75718 0.10108 0.0
C585 C 0.46291 0.72717 0.0647 0.0
N586 N 0.46977 0.65147 0.03587 0.0
N587 N 0.47044 0.76909 0.18186 0.0
C588 C 0.4728 0.68085 0.07102 0.0
C589 C 0.47407 0.74046 0.14608 0.0
N590 N 0.50286 0.6221 0.11828 0.0
N591 N 0.47953 0.80139 0.09188 0.0
H592 H 0.47455 0.7586 0.21525 0.0
H593 H 0.46004 0.80257 0.17834 0.0
H594 H 0.48452 0.81246 0.05876 0.0
H595 H 0.48847 0.82469 0.11641 0.0
H596 H 0.51309 0.6029 0.09066 0.0
H597 H 0.50943 0.60595 0.14854 0.0
H598 H 0.46592 0.61682 0.04038 0.0
H599 H 0.47285 0.66138 0.00227 0.0
C600 C 0.14867 0.32261 0.27025 0.0
C601 C 0.11143 0.34545 0.29025 0.0
C602 C 0.11119 0.39829 0.2271 0.0
C603 C 0.15536 0.38376 0.21437 0.0
N604 N 0.21369 0.32614 0.22084 0.0
N605 N 0.05781 0.40658 0.28856 0.0
C606 C 0.17334 0.34382 0.23463 0.0
C607 C 0.0925 0.38348 0.26864 0.0
N608 N 0.15924 0.2799 0.28431 0.0
N609 N 0.08644 0.42494 0.19862 0.0
H610 H 0.04386 0.39697 0.31953 0.0
H611 H 0.04576 0.43732 0.27618 0.0
H612 H 0.09757 0.43313 0.16611 0.0
H613 H 0.05291 0.43382 0.20498 0.0
H614 H 0.18344 0.25966 0.26857 0.0
H615 H 0.1404 0.26294 0.30884 0.0
H616 H 0.23162 0.3023 0.23962 0.0
H617 H 0.2292 0.33451 0.19049 0.0
C618 C 0.91041 0.86918 0.52387 0.0
C619 C 0.88594 0.86488 0.5649 0.0
C620 C 0.82509 0.91153 0.53452 0.0
C621 C 0.84737 0.91218 0.49189 0.0
N622 N 0.90813 0.88627 0.44375 0.0
N623 N 0.81831 0.87597 0.60818 0.0
C624 C 0.88933 0.88964 0.48586 0.0
C625 C 0.84252 0.88404 0.56964 0.0
N626 N 0.95441 0.8553 0.52198 0.0
N627 N 0.78841 0.93881 0.54195 0.0
H628 H 0.83098 0.85615 0.6345 0.0
H629 H 0.78465 0.88545 0.61241 0.0
H630 H 0.77572 0.96087 0.51751 0.0
H631 H 0.7733 0.943 0.57349 0.0
H632 H 0.97578 0.86219 0.49479 0.0
H633 H 0.9704 0.83951 0.54913 0.0
H634 H 0.93619 0.86614 0.43665 0.0
H635 H 0.89377 0.90099 0.41514 0.0
C636 C 0.34195 0.65031 0.71238 0.0
C637 C 0.31644 0.61039 0.71797 0.0
C638 C 0.34055 0.60403 0.79655 0.0
C639 C 0.36375 0.64515 0.7919 0.0
N640 N 0.37792 0.7131 0.74943 0.0
N641 N 0.2812 0.5566 0.76824 0.0
C642 C 0.36196 0.67005 0.75093 0.0
C643 C 0.31263 0.58945 0.76104 0.0
N644 N 0.34877 0.66823 0.67031 0.0
N645 N 0.34592 0.57872 0.8348 0.0
H646 H 0.25855 0.54673 0.7434 0.0
H647 H 0.27431 0.54279 0.79993 0.0
H648 H 0.3666 0.58881 0.86125 0.0
H649 H 0.33319 0.54626 0.83854 0.0
H650 H 0.37129 0.69433 0.66385 0.0
H651 H 0.33442 0.65493 0.64128 0.0
H652 H 0.37338 0.73454 0.72183 0.0
H653 H 0.39214 0.72872 0.77734 0.0
C654 C 0.58839 0.11489 0.00303 0.0
C655 C 0.61069 0.11034 0.04503 0.0
C656 C 0.66096 0.05331 0.0129 0.0
C657 C 0.6429 0.06217 0.96942 0.0
N658 N 0.59248 0.10533 0.92186 0.0
N659 N 0.67174 0.08051 0.08903 0.0
C660 C 0.60714 0.09382 0.96404 0.0
C661 C 0.64823 0.08119 0.04953 0.0
N662 N 0.5486 0.13825 0.00085 0.0
N663 N 0.68926 0.01726 0.0193 0.0
H664 H 0.66274 0.10071 0.11644 0.0
H665 H 0.70206 0.06305 0.0932 0.0
H666 H 0.69759 0.99485 0.99345 0.0
H667 H 0.7005 0.00681 0.05095 0.0
H668 H 0.52818 0.13883 0.97235 0.0
H669 H 0.53435 0.15426 0.02882 0.0
H670 H 0.57028 0.13201 0.91572 0.0
H671 H 0.60474 0.09016 0.89257 0.0
C672 C 0.62146 0.16706 0.74023 0.0
C673 C 0.61879 0.14536 0.69771 0.0
C674 C 0.67199 0.08804 0.72333 0.0
C675 C 0.66963 0.10541 0.76783 0.0
N676 N 0.63839 0.15954 0.82007 0.0
N677 N 0.63464 0.08104 0.65141 0.0
C678 C 0.64351 0.14464 0.77681 0.0
C679 C 0.64183 0.10436 0.69028 0.0
N680 N 0.60444 0.20962 0.74508 0.0
N681 N 0.70426 0.05681 0.71242 0.0
H682 H 0.61206 0.09232 0.62683 0.0
H683 H 0.64766 0.04884 0.64572 0.0
H684 H 0.72862 0.0463 0.73553 0.0
H685 H 0.71 0.04561 0.67959 0.0
H686 H 0.60942 0.22902 0.7738 0.0
H687 H 0.58825 0.22677 0.7189 0.0
H688 H 0.61565 0.1849 0.82914 0.0
H689 H 0.65496 0.14468 0.84735 0.0
C690 C 0.1225 0.38261 0.03477 0.0
C691 C 0.14292 0.42497 0.0263 0.0
C692 C 0.13768 0.413 0.9453 0.0
C693 C 0.11362 0.37276 0.9534 0.0
N694 N 0.0766 0.32223 0.00514 0.0
N695 N 0.1573 0.48598 0.97502 0.0
C696 C 0.1042 0.35825 -0.00196 0.0
C697 C 0.14681 0.44182 0.98188 0.0
N698 N 0.12145 0.36541 0.07763 0.0
N699 N 0.15076 0.42386 0.90236 0.0
H700 H 0.15959 0.50821 0.00203 0.0
H701 H 0.15778 0.50133 0.94329 0.0
H702 H 0.14427 0.4029 0.87499 0.0
H703 H 0.17132 0.45127 0.89473 0.0
H704 H 0.11165 0.33257 0.08522 0.0
H705 H 0.13251 0.38358 0.10545 0.0
H706 H 0.06461 0.31276 0.0369 0.0
H707 H 0.06332 0.30355 0.97867 0.0
C708 C 0.84558 0.83577 0.29997 0.0
C709 C 0.83355 0.88153 0.29133 0.0
C710 C 0.88293 0.8816 0.22488 0.0
C711 C 0.88927 0.83473 0.22934 0.0
N712 N 0.87177 0.76524 0.26743 0.0
N713 N 0.83151 0.94347 0.23776 0.0
C714 C 0.86934 0.81116 0.266 0.0
C715 C 0.84979 0.9033 0.25161 0.0
N716 N 0.8363 0.81633 0.34085 0.0
N717 N 0.90764 0.90493 0.19366 0.0
H718 H 0.80408 0.95864 0.25407 0.0
H719 H 0.83979 0.95875 0.20707 0.0
H720 H 0.93193 0.88915 0.1734 0.0
H721 H 0.907 0.93999 0.19116 0.0
H722 H 0.84811 0.78442 0.34998 0.0
H723 H 0.82038 0.83345 0.36716 0.0
H724 H 0.85361 0.74582 0.29055 0.0
H725 H 0.8897 0.74664 0.24341 0.0
C726 C 0.32943 0.58912 0.46815 0.0
C727 C 0.34838 0.58814 0.51223 0.0
C728 C 0.41468 0.62852 0.48328 0.0
C729 C 0.39319 0.6336 0.44094 0.0
N730 N 0.32785 0.62529 0.39456 0.0
N731 N 0.40604 0.61344 0.5634 0.0
C732 C 0.34973 0.61597 0.43401 0.0
C733 C 0.39036 0.60947 0.52033 0.0
N734 N 0.29323 0.56267 0.4583 0.0
N735 N 0.45882 0.64059 0.48753 0.0
H736 H 0.38902 0.60062 0.59151 0.0
H737 H 0.43401 0.63275 0.57165 0.0
H738 H 0.47721 0.65492 0.46101 0.0
H739 H 0.478 0.63323 0.51602 0.0
H740 H 0.28092 0.55853 0.42574 0.0
H741 H 0.27832 0.5411 0.4818 0.0
H742 H 0.29419 0.61724 0.38896 0.0
H743 H 0.34233 0.64481 0.36894 0.0
C744 C 0.2152 0.15445 0.344 0.0
C745 C 0.22221 0.17587 0.38602 0.0
C746 C 0.29955 0.14647 0.38874 0.0
C747 C 0.29344 0.12705 0.34591 0.0
N748 N 0.24968 0.11915 0.27842 0.0
N749 N 0.27381 0.20152 0.44308 0.0
C750 C 0.25241 0.13296 0.32219 0.0
C751 C 0.26533 0.17466 0.40677 0.0
N752 N 0.17289 0.15288 0.326 0.0
N753 N 0.33806 0.13722 0.41227 0.0
H754 H 0.24974 0.22348 0.45659 0.0
H755 H 0.30572 0.20537 0.457 0.0
H756 H 0.36372 0.11657 0.39949 0.0
H757 H 0.34294 0.14672 0.44567 0.0
H758 H 0.16484 0.13349 0.29802 0.0
H759 H 0.14504 0.16879 0.34075 0.0
H760 H 0.22242 0.12667 0.25759 0.0
H761 H 0.27636 0.10291 0.26193 0.0
C762 C 0.0908 0.02054 0.56828 0.0
C763 C 0.12997 0.03892 0.58846 0.0
C764 C 0.13169 0.97566 0.64122 0.0
C765 C 0.08674 0.96449 0.62936 0.0
N766 N 0.0254 0.97237 0.57656 0.0
N767 N 0.18693 0.03496 0.6459 0.0
C768 C 0.06693 0.98532 0.59094 0.0
C769 C 0.15066 0.01633 0.625 0.0
N770 N 0.07741 0.036 0.52693 0.0
N771 N 0.15622 0.94694 0.66783 0.0
H772 H 0.20087 0.06557 0.63572 0.0
H773 H 0.20046 0.02206 0.67573 0.0
H774 H 0.14373 0.91572 0.67824 0.0
H775 H 0.19025 0.95171 0.67495 0.0
H776 H 0.05131 0.0218 0.50856 0.0
H777 H 0.09545 0.06041 0.50904 0.0
H778 H 0.00642 0.99065 0.55322 0.0
H779 H 0.00993 0.94312 0.58803 0.0
C780 C 0.22926 0.85967 0.81585 0.0
C781 C 0.2108 0.89717 0.83892 0.0
C782 C 0.26879 0.88914 0.89605 0.0
C783 C 0.27917 0.84484 0.88008 0.0
N784 N 0.26871 0.78858 0.82162 0.0
N785 N 0.21158 0.94744 0.90201 0.0
C786 C 0.25994 0.83042 0.83859 0.0
C787 C 0.23041 0.91214 0.87916 0.0
N788 N 0.21749 0.85239 0.77204 0.0
N789 N 0.29669 0.91019 0.92575 0.0
H790 H 0.18357 0.9652 0.88999 0.0
H791 H 0.22177 0.95669 0.93427 0.0
H792 H 0.32755 0.89654 0.93581 0.0
H793 H 0.29211 0.94359 0.93561 0.0
H794 H 0.23343 0.82852 0.75166 0.0
H795 H 0.1951 0.87358 0.75483 0.0
H796 H 0.25073 0.7749 0.79493 0.0
H797 H 0.29217 0.76632 0.83504 0.0
C798 C 0.39419 0.02871 0.09713 0.0
C799 C 0.41836 0.01887 0.13732 0.0
C800 C 0.3881 0.94231 0.13863 0.0
C801 C 0.36666 0.95107 0.09715 0.0
N802 N 0.35345 -0.00107 0.033 0.0
N803 N 0.44626 0.96375 0.19082 0.0
C804 C 0.37087 0.99332 0.07525 0.0
C805 C 0.41749 0.97487 0.15654 0.0
N806 N 0.39182 0.0719 0.08098 0.0
N807 N 0.38042 0.90242 0.16055 0.0
H808 H 0.4692 0.9865 0.20407 0.0
H809 H 0.45058 0.93109 0.20317 0.0
H810 H 0.35971 0.87748 0.14739 0.0
H811 H 0.39139 0.89553 0.19321 0.0
H812 H 0.37048 0.08188 0.05492 0.0
H813 H 0.40908 0.09862 0.09541 0.0
H814 H 0.35963 0.02707 0.01277 0.0
H815 H 0.33485 0.97386 0.01716 0.0
C816 C 0.75781 0.36988 0.66749 0.0
C817 C 0.80084 0.36393 0.64711 0.0
C818 C 0.76883 0.31328 0.59173 0.0
C819 C 0.72495 0.32365 0.60815 0.0
N820 N 0.67651 0.36502 0.65908 0.0
N821 N 0.84694 0.3361 0.58637 0.0
C822 C 0.71897 0.35266 0.6456 0.0
C823 C 0.80612 0.33756 0.608 0.0
N824 N 0.75448 0.39084 0.70828 0.0
N825 N 0.77485 0.27891 0.56179 0.0
H826 H 0.87492 0.35374 0.59791 0.0
H827 H 0.85191 0.32074 0.55518 0.0
H828 H 0.74812 0.25895 0.55124 0.0
H829 H 0.80647 0.2671 0.55159 0.0
H830 H 0.72475 0.39234 0.72716 0.0
H831 H 0.78248 0.40392 0.72477 0.0
H832 H 0.67013 0.38995 0.68294 0.0
H833 H 0.64744 0.35219 0.64435 0.0
C834 C 0.88675 0.44285 0.91045 0.0
C835 C 0.90236 0.45213 0.86574 0.0
C836 C 0.85742 0.52151 0.86543 0.0
C837 C 0.84921 0.51672 0.912 0.0
N838 N 0.86058 0.47529 0.98103 0.0
N839 N 0.91269 0.50892 0.80722 0.0
C840 C 0.86491 0.4779 0.93522 0.0
C841 C 0.89024 0.49375 0.84474 0.0
N842 N 0.89098 0.40072 0.92881 0.0
N843 N 0.83542 0.55436 0.84165 0.0
H844 H 0.94135 0.49296 0.79416 0.0
H845 H 0.90682 0.54066 0.79305 0.0
H846 H 0.81145 0.57546 0.8568 0.0
H847 H 0.83795 0.5574 0.80663 0.0
H848 H 0.87634 0.39177 0.95964 0.0
H849 H 0.90491 0.37347 0.91159 0.0
H850 H 0.87592 0.45007 0.00032 0.0
H851 H 0.84422 0.50017 -0.00015 0.0
C852 C 0.77791 0.65604 0.1479 0.0
C853 C 0.77569 0.6698 0.10177 0.0
C854 C 0.70596 0.62609 0.09309 0.0
C855 C 0.70634 0.6157 0.13958 0.0
N856 N 0.73798 0.62603 0.21318 0.0
N857 N 0.73082 0.6769 0.03406 0.0
C858 C 0.74116 0.632 0.1675 0.0
C859 C 0.738 0.65696 0.07515 0.0
N860 N 0.81547 0.66465 0.17283 0.0
N861 N 0.67424 0.60676 0.0663 0.0
H862 H 0.75112 0.70254 0.02123 0.0
H863 H 0.7019 0.6719 0.01498 0.0
H864 H 0.64985 0.58488 0.07922 0.0
H865 H 0.6746 0.60921 0.03121 0.0
H866 H 0.82122 0.65066 0.20462 0.0
H867 H 0.84253 0.68333 0.16078 0.0
H868 H 0.75886 0.64206 0.23615 0.0
H869 H 0.71223 0.60742 0.22838 0.0
C870 C 0.60166 0.48567 0.42626 0.0
C871 C 0.63703 0.46263 0.40333 0.0
C872 C 0.63632 0.52076 0.34524 0.0
C873 C 0.59331 0.53591 0.36085 0.0
N874 N 0.53716 0.53579 0.4208 0.0
N875 N 0.68738 0.45724 0.33957 0.0
C876 C 0.57677 0.51988 0.40316 0.0
C877 C 0.65468 0.48025 0.36271 0.0
N878 N 0.5925 0.475 0.47026 0.0
N879 N 0.66003 0.54579 0.31448 0.0
H880 H 0.70098 0.42679 0.35102 0.0
H881 H 0.69805 0.46651 0.30724 0.0
H882 H 0.64897 0.57747 0.30358 0.0
H883 H 0.69288 0.53777 0.3044 0.0
H884 H 0.56971 0.49293 0.49028 0.0
H885 H 0.61119 0.45084 0.48798 0.0
H886 H 0.52049 0.52038 0.44777 0.0
H887 H 0.52042 0.56402 0.40839 0.0
C888 C 0.33651 0.25738 0.11705 0.0
C889 C 0.35911 0.2993 0.1182 0.0
C890 C 0.41743 0.26653 0.16621 0.0
C891 C 0.39813 0.2232 0.16044 0.0
N892 N 0.342 0.17625 0.12561 0.0
N893 N 0.42404 0.34282 0.13742 0.0
C894 C 0.35825 0.21821 0.13465 0.0
C895 C 0.40064 0.30343 0.14073 0.0
N896 N 0.29356 0.25549 0.10076 0.0
N897 N 0.45016 0.27294 0.19787 0.0
H898 H 0.41215 0.37039 0.11882 0.0
H899 H 0.4567 0.34666 0.14956 0.0
H900 H 0.4614 0.24736 0.21942 0.0
H901 H 0.46246 0.30459 0.2063 0.0
H902 H 0.27339 0.22697 0.10347 0.0
H903 H 0.27676 0.28369 0.0878 0.0
H904 H 0.31606 0.17048 0.10282 0.0
H905 H 0.35657 0.14677 0.13827 0.0
C906 C 0.86247 0.25783 0.86406 0.0
C907 C 0.90041 0.25195 0.83517 0.0
C908 C 0.90419 0.1718 0.85503 0.0
C909 C 0.86436 0.17682 0.88084 0.0
N910 N 0.80162 0.22198 0.90588 0.0
N911 N 0.9515 0.20227 0.79564 0.0
C912 C 0.84243 0.21922 0.88439 0.0
C913 C 0.91978 0.20857 0.82871 0.0
N914 N 0.84656 0.30016 0.87323 0.0
N915 N 0.92646 0.13135 0.85535 0.0
H916 H 0.96168 0.22832 0.77423 0.0
H917 H 0.96414 0.17082 0.78633 0.0
H918 H 0.91488 0.10373 0.87397 0.0
H919 H 0.95797 0.12625 0.84041 0.0
H920 H 0.82239 0.30691 0.89799 0.0
H921 H 0.85954 0.3291 0.858 0.0
H922 H 0.78118 0.25067 0.90534 0.0
H923 H 0.78698 0.19437 0.92214 0.0
C924 C 0.01873 0.63667 0.14174 0.0
C925 C 0.04543 0.60314 0.12065 0.0
C926 C 0.00289 0.61433 0.05097 0.0
C927 C 0.97212 0.64394 0.07352 0.0
N928 N 0.94438 0.66957 0.14634 0.0
N929 N 0.05104 0.54899 0.0604 0.0
C930 C 0.97819 0.65141 0.12069 0.0
C931 C 0.03373 0.58836 0.0769 0.0
N932 N 0.0322 0.65493 0.18156 0.0
N933 N 0.00514 0.61252 0.00497 0.0
H934 H 0.07139 0.52758 0.07968 0.0
H935 H 0.04073 0.53533 0.0298 0.0
H936 H 0.98746 0.63439 0.9839 0.0
H937 H 0.02949 0.59345 0.98795 0.0
H938 H 0.01576 0.6824 0.19628 0.0
H939 H 0.06227 0.64551 0.19727 0.0
H940 H 0.9463 0.67232 0.18135 0.0
H941 H 0.91242 0.67622 0.13364 0.0
C942 C 0.61015 0.76547 0.39532 0.0
C943 C 0.6507 0.78518 0.38035 0.0
C944 C 0.65514 0.7318 0.31729 0.0
C945 C 0.61369 0.71262 0.33207 0.0
N946 N 0.56495 0.69831 0.39642 0.0
N947 N 0.71931 0.77818 0.33705 0.0
C948 C 0.5954 0.72537 0.37476 0.0
C949 C 0.67568 0.7654 0.34442 0.0
N950 N 0.58467 0.78603 0.42786 0.0
N951 N 0.67425 0.71944 0.27718 0.0
H952 H 0.73535 0.80166 0.35742 0.0
H953 H 0.74077 0.76243 0.31396 0.0
H954 H 0.66267 0.6928 0.25799 0.0
H955 H 0.70095 0.73673 0.26217 0.0
H956 H 0.55233 0.77533 0.43669 0.0
H957 H 0.59414 0.81612 0.44305 0.0
H958 H 0.55324 0.70448 0.42907 0.0
H959 H 0.55597 0.66682 0.38408 0.0
C960 C 0.52528 0.4016 0.59725 0.0
C961 C 0.52016 0.36193 0.57127 0.0
C962 C 0.43995 0.35915 0.59155 0.0
C963 C 0.44417 0.40022 0.61486 0.0
N964 N 0.48803 0.46573 0.63232 0.0
N965 N 0.47021 0.31066 0.53336 0.0
C966 C 0.4861 0.42303 0.61555 0.0
C967 C 0.47667 0.34301 0.56534 0.0
N968 N 0.56738 0.41774 0.60603 0.0
N969 N 0.40088 0.33523 0.59526 0.0
H970 H 0.49593 0.29975 0.51174 0.0
H971 H 0.4385 0.29845 0.52488 0.0
H972 H 0.37358 0.34631 0.61479 0.0
H973 H 0.39718 0.30282 0.5825 0.0
H974 H 0.57334 0.44356 0.62887 0.0
H975 H 0.59675 0.40328 0.59285 0.0
H976 H 0.51652 0.48596 0.62958 0.0
H977 H 0.45983 0.48226 0.64566 0.0
C978 C 0.16705 0.73343 0.66063 0.0
C979 C 0.14454 0.71504 0.62288 0.0
C980 C 0.08768 0.77434 0.62883 0.0
C981 C 0.10414 0.78617 0.67237 0.0
N982 N 0.15814 0.77197 0.73174 0.0
N983 N 0.07986 0.71468 0.57428 0.0
C984 C 0.14388 0.76481 0.68874 0.0
C985 C 0.10394 0.73472 0.6077 0.0
N986 N 0.21055 0.72096 0.66942 0.0
N987 N 0.0578 0.80175 0.60671 0.0
H988 H 0.09035 0.68494 0.5587 0.0
H989 H 0.04754 0.72532 0.56519 0.0
H990 H 0.04765 0.83297 0.61913 0.0
H991 H 0.04775 0.79617 0.57355 0.0
H992 H 0.22985 0.73595 0.69445 0.0
H993 H 0.22858 0.69895 0.64856 0.0
H994 H 0.18388 0.75311 0.74667 0.0
H995 H 0.14177 0.79385 0.75374 0.0
C996 C 0.46144 0.89318 0.87495 0.0
C997 C 0.46971 0.85484 0.90261 0.0
C998 C 0.54654 0.84931 0.87292 0.0
C999 C 0.5403 0.8904 0.84968 0.0
N1000 N 0.49458 0.95601 0.83421 0.0
N1001 N 0.52384 0.80405 0.93688 0.0
C1002 C 0.49843 0.91371 0.85215 0.0
C1003 C 0.51345 0.83512 0.90422 0.0
N1004 N 0.41844 0.90876 0.86883 0.0
N1005 N 0.58459 0.82427 0.86522 0.0
H1006 H 0.50108 0.7948 0.96227 0.0
H1007 H 0.55637 0.79145 0.94178 0.0
H1008 H 0.60931 0.83434 0.84206 0.0
H1009 H 0.58942 0.792 0.87851 0.0
H1010 H 0.41019 0.93379 0.84542 0.0
H1011 H 0.39052 0.89419 0.8845 0.0
H1012 H 0.46634 0.97655 0.8392 0.0
H1013 H 0.52105 0.97174 0.81709 0.0
C1014 C 0.94056 0.14362 0.40093 0.0
C1015 C 0.9461 0.09999 0.38309 0.0
C1016 C 0.02533 0.09854 0.40638 0.0
C1017 C 0.01891 0.14137 0.42659 0.0
N1018 N 0.96792 0.1996 0.45284 0.0
N1019 N 0.98994 0.03203 0.37532 0.0
C1020 C 0.97571 0.16246 0.42668 0.0
C1021 C 0.98745 0.07623 0.38775 0.0
N1022 N 0.90155 0.16701 0.3928 0.0
N1023 N 0.06766 0.0802 0.40316 0.0
H1024 H 0.96281 0.01527 0.36085 0.0
H1025 H 0.01754 0.01126 0.38226 0.0
H1026 H 0.09614 0.09547 0.41661 0.0
H1027 H 0.07505 0.05139 0.38454 0.0
H1028 H 0.89696 0.20082 0.401 0.0
H1029 H 0.87504 0.15344 0.37435 0.0
H1030 H 0.93608 0.21395 0.45758 0.0
H1031 H 0.99248 0.21337 0.47361 0.0
loop_
_geom_bond_atom_site_label_1
_geom_bond_atom_site_label_2
_geom_bond_distance
_geom_bond_site_symmetry_2
_ccdc_geom_bond_type
Zn0 O1 2.055 . S
Zn0 O8 2.046 . S
Zn0 N16 2.036 . S
Zn0 O28 2.053 . S
Zn0 O30 2.066 . S
O1 Zn0 2.055 . S
O1 C4 1.259 . S
C2 O30 1.256 . S
C2 O31 1.244 . S
Zn3 O5 2.046 . S
Zn3 O7 2.055 . S
Zn3 N9 2.036 . S
Zn3 O27 2.066 . S
Zn3 O31 2.053 . S
C4 O1 1.259 . S
C4 O5 1.254 . S
O5 Zn3 2.046 . S
O5 C4 1.254 . S
C6 O27 1.256 . S
C6 O28 1.244 . S
O7 Zn3 2.055 . S
O7 C29 1.259 . S
O8 Zn0 2.046 . S
O8 C29 1.254 . S
N9 Zn3 2.036 . S
N9 C10 1.298 . S
N9 N12 1.398 . S
C10 N9 1.298 . S
C10 N13 1.367 . S
C10 C23 1.481 . S
C11 N12 1.299 . S
C11 N13 1.379 . S
N12 N9 1.398 . S
N12 C11 1.299 . S
N13 C10 1.367 . S
N13 C11 1.379 . S
C14 N16 1.298 . S
C14 N18 1.367 . S
C14 C22 1.481 . S
C15 N17 1.299 . S
C15 N18 1.379 . S
N16 Zn0 2.036 . S
N16 C14 1.298 . S
N16 N17 1.398 . S
N17 C15 1.299 . S
N17 N16 1.398 . S
N18 C14 1.367 . S
N18 C15 1.379 . S
H19 C22 0.980 . S
H20 C22 0.981 . S
H21 C22 0.981 . S
C22 C14 1.481 . S
C22 H19 0.980 . S
C22 H20 0.981 . S
C22 H21 0.981 . S
C23 C10 1.481 . S
C23 H24 0.980 . S
C23 H25 0.981 . S
C23 H26 0.981 . S
H24 C23 0.980 . S
H25 C23 0.981 . S
H26 C23 0.981 . S
O27 Zn3 2.066 . S
O27 C6 1.256 . S
O28 Zn0 2.053 . S
O28 C6 1.244 . S
C29 O7 1.259 . S
C29 O8 1.254 . S
O30 Zn0 2.066 . S
O30 C2 1.256 . S
O31 C2 1.244 . S
O31 Zn3 2.053 . S
Zn32 O33 2.055 . S
Zn32 O40 2.046 . S
Zn32 N48 2.036 . S
Zn32 O60 2.053 1_655 S
Zn32 O62 2.066 1_655 S
O33 Zn32 2.055 . S
O33 C36 1.259 . S
C34 O62 1.256 . S
C34 O63 1.244 . S
Zn35 O37 2.046 . S
Zn35 O39 2.055 . S
Zn35 N41 2.036 . S
Zn35 O59 2.066 . S
Zn35 O63 2.053 . S
C36 O33 1.259 . S
C36 O37 1.254 1_655 S
O37 Zn35 2.046 . S
O37 C36 1.254 1_455 S
C38 O59 1.256 . S
C38 O60 1.244 . S
O39 Zn35 2.055 . S
O39 C61 1.259 1_455 S
O40 Zn32 2.046 . S
O40 C61 1.254 . S
N41 Zn35 2.036 . S
N41 C42 1.298 . S
N41 N44 1.398 . S
C42 N41 1.298 . S
C42 N45 1.367 . S
C42 C55 1.481 . S
C43 N44 1.299 . S
C43 N45 1.379 . S
N44 N41 1.398 . S
N44 C43 1.299 . S
N45 C42 1.367 . S
N45 C43 1.379 . S
C46 N48 1.298 . S
C46 N50 1.367 . S
C46 C54 1.481 . S
C47 N49 1.299 . S
C47 N50 1.379 . S
N48 Zn32 2.036 . S
N48 C46 1.298 . S
N48 N49 1.398 . S
N49 C47 1.299 . S
N49 N48 1.398 . S
N50 C46 1.367 . S
N50 C47 1.379 . S
H51 C54 0.980 . S
H52 C54 0.981 . S
H53 C54 0.981 . S
C54 C46 1.481 . S
C54 H51 0.980 . S
C54 H52 0.981 . S
C54 H53 0.981 . S
C55 C42 1.481 . S
C55 H56 0.980 . S
C55 H57 0.981 . S
C55 H58 0.981 . S
H56 C55 0.980 . S
H57 C55 0.981 . S
H58 C55 0.981 . S
O59 Zn35 2.066 . S
O59 C38 1.256 . S
O60 Zn32 2.053 1_455 S
O60 C38 1.244 . S
C61 O39 1.259 1_655 S
C61 O40 1.254 . S
O62 Zn32 2.066 1_455 S
O62 C34 1.256 . S
O63 C34 1.244 . S
O63 Zn35 2.053 . S
Zn64 O65 2.055 . S
Zn64 O72 2.046 . S
Zn64 N80 2.036 . S
Zn64 O92 2.053 1_554 S
Zn64 O94 2.066 1_554 S
O65 Zn64 2.055 . S
O65 C68 1.259 . S
C66 O94 1.256 . S
C66 O95 1.244 . S
Zn67 O69 2.046 . S
Zn67 O71 2.055 . S
Zn67 N73 2.036 . S
Zn67 O91 2.066 . S
Zn67 O95 2.053 . S
C68 O65 1.259 . S
C68 O69 1.254 1_554 S
O69 Zn67 2.046 . S
O69 C68 1.254 1_556 S
C70 O91 1.256 . S
C70 O92 1.244 . S
O71 Zn67 2.055 . S
O71 C93 1.259 1_556 S
O72 Zn64 2.046 . S
O72 C93 1.254 . S
N73 Zn67 2.036 . S
N73 C74 1.298 . S
N73 N76 1.398 . S
C74 N73 1.298 . S
C74 N77 1.367 . S
C74 C87 1.481 . S
C75 N76 1.299 . S
C75 N77 1.379 . S
N76 N73 1.398 . S
N76 C75 1.299 . S
N77 C74 1.367 . S
N77 C75 1.379 . S
C78 N80 1.298 . S
C78 N82 1.367 . S
C78 C86 1.481 . S
C79 N81 1.299 . S
C79 N82 1.379 . S
N80 Zn64 2.036 . S
N80 C78 1.298 . S
N80 N81 1.398 . S
N81 C79 1.299 . S
N81 N80 1.398 . S
N82 C78 1.367 . S
N82 C79 1.379 . S
H83 C86 0.980 . S
H84 C86 0.981 . S
H85 C86 0.981 . S
C86 C78 1.481 . S
C86 H83 0.980 . S
C86 H84 0.981 . S
C86 H85 0.981 . S
C87 C74 1.481 . S
C87 H88 0.980 . S
C87 H89 0.981 . S
C87 H90 0.981 . S
H88 C87 0.980 . S
H89 C87 0.981 . S
H90 C87 0.981 . S
O91 Zn67 2.066 . S
O91 C70 1.256 . S
O92 Zn64 2.053 1_556 S
O92 C70 1.244 . S
C93 O71 1.259 1_554 S
C93 O72 1.254 . S
O94 Zn64 2.066 1_556 S
O94 C66 1.256 . S
O95 C66 1.244 . S
O95 Zn67 2.053 . S
Zn96 O97 2.055 . S
Zn96 O104 2.046 . S
Zn96 N112 2.036 . S
Zn96 O124 2.053 . S
Zn96 O126 2.066 . S
O97 Zn96 2.055 . S
O97 C100 1.259 . S
C98 O126 1.256 . S
C98 O127 1.244 . S
Zn99 O101 2.046 . S
Zn99 O103 2.055 . S
Zn99 N105 2.036 . S
Zn99 O123 2.066 . S
Zn99 O127 2.053 . S
C100 O97 1.259 . S
C100 O101 1.254 . S
O101 Zn99 2.046 . S
O101 C100 1.254 . S
C102 O123 1.256 . S
C102 O124 1.244 . S
O103 Zn99 2.055 . S
O103 C125 1.259 . S
O104 Zn96 2.046 . S
O104 C125 1.254 . S
N105 Zn99 2.036 . S
N105 C106 1.298 . S
N105 N108 1.398 . S
C106 N105 1.298 . S
C106 N109 1.367 . S
C106 C119 1.481 . S
C107 N108 1.299 . S
C107 N109 1.379 . S
N108 N105 1.398 . S
N108 C107 1.299 . S
N109 C106 1.367 . S
N109 C107 1.379 . S
C110 N112 1.298 . S
C110 N114 1.367 . S
C110 C118 1.481 . S
C111 N113 1.299 . S
C111 N114 1.379 . S
N112 Zn96 2.036 . S
N112 C110 1.298 . S
N112 N113 1.398 . S
N113 C111 1.299 . S
N113 N112 1.398 . S
N114 C110 1.367 . S
N114 C111 1.379 . S
H115 C118 0.980 . S
H116 C118 0.981 . S
H117 C118 0.981 . S
C118 C110 1.481 . S
C118 H115 0.980 . S
C118 H116 0.981 . S
C118 H117 0.981 . S
C119 C106 1.481 . S
C119 H120 0.980 . S
C119 H121 0.981 . S
C119 H122 0.981 . S
H120 C119 0.980 . S
H121 C119 0.981 . S
H122 C119 0.981 . S
O123 Zn99 2.066 . S
O123 C102 1.256 . S
O124 Zn96 2.053 . S
O124 C102 1.244 . S
C125 O103 1.259 . S
C125 O104 1.254 . S
O126 Zn96 2.066 . S
O126 C98 1.256 . S
O127 C98 1.244 . S
O127 Zn99 2.053 . S
Zn128 O129 2.055 . S
Zn128 O136 2.046 . S
Zn128 N144 2.036 . S
Zn128 O156 2.053 . S
Zn128 O158 2.066 . S
O129 Zn128 2.055 . S
O129 C132 1.259 . S
C130 O158 1.256 . S
C130 O159 1.244 . S
Zn131 O133 2.046 . S
Zn131 O135 2.055 . S
Zn131 N137 2.036 . S
Zn131 O155 2.066 . S
Zn131 O159 2.053 . S
C132 O129 1.259 . S
C132 O133 1.254 . S
O133 Zn131 2.046 . S
O133 C132 1.254 . S
C134 O155 1.256 . S
C134 O156 1.244 . S
O135 Zn131 2.055 . S
O135 C157 1.259 . S
O136 Zn128 2.046 . S
O136 C157 1.254 . S
N137 Zn131 2.036 . S
N137 C138 1.298 . S
N137 N140 1.398 . S
C138 N137 1.298 . S
C138 N141 1.367 . S
C138 C151 1.481 . S
C139 N140 1.299 . S
C139 N141 1.379 . S
N140 N137 1.398 . S
N140 C139 1.299 . S
N141 C138 1.367 . S
N141 C139 1.379 . S
C142 N144 1.298 . S
C142 N146 1.367 . S
C142 C150 1.481 . S
C143 N145 1.299 . S
C143 N146 1.379 . S
N144 Zn128 2.036 . S
N144 C142 1.298 . S
N144 N145 1.398 . S
N145 C143 1.299 . S
N145 N144 1.398 . S
N146 C142 1.367 . S
N146 C143 1.379 . S
H147 C150 0.980 . S
H148 C150 0.981 . S
H149 C150 0.981 . S
C150 C142 1.481 . S
C150 H147 0.980 . S
C150 H148 0.981 . S
C150 H149 0.981 . S
C151 C138 1.481 . S
C151 H152 0.980 . S
C151 H153 0.981 . S
C151 H154 0.981 . S
H152 C151 0.980 . S
H153 C151 0.981 . S
H154 C151 0.981 . S
O155 Zn131 2.066 . S
O155 C134 1.256 . S
O156 Zn128 2.053 . S
O156 C134 1.244 . S
C157 O135 1.259 . S
C157 O136 1.254 . S
O158 Zn128 2.066 . S
O158 C130 1.256 . S
O159 C130 1.244 . S
O159 Zn131 2.053 . S
Zn160 O161 2.055 . S
Zn160 O168 2.046 . S
Zn160 N176 2.036 . S
Zn160 O188 2.053 . S
Zn160 O190 2.066 . S
O161 Zn160 2.055 . S
O161 C164 1.259 1_655 S
C162 O190 1.256 . S
C162 O191 1.244 . S
Zn163 O165 2.046 . S
Zn163 O167 2.055 . S
Zn163 N169 2.036 . S
Zn163 O187 2.066 1_455 S
Zn163 O191 2.053 1_455 S
C164 O161 1.259 1_455 S
C164 O165 1.254 . S
O165 Zn163 2.046 . S
O165 C164 1.254 . S
C166 O187 1.256 . S
C166 O188 1.244 . S
O167 Zn163 2.055 . S
O167 C189 1.259 . S
O168 Zn160 2.046 . S
O168 C189 1.254 1_655 S
N169 Zn163 2.036 . S
N169 C170 1.298 . S
N169 N172 1.398 . S
C170 N169 1.298 . S
C170 N173 1.367 . S
C170 C183 1.481 . S
C171 N172 1.299 . S
C171 N173 1.379 . S
N172 N169 1.398 . S
N172 C171 1.299 . S
N173 C170 1.367 . S
N173 C171 1.379 . S
C174 N176 1.298 . S
C174 N178 1.367 . S
C174 C182 1.481 . S
C175 N177 1.299 . S
C175 N178 1.379 . S
N176 Zn160 2.036 . S
N176 C174 1.298 . S
N176 N177 1.398 . S
N177 C175 1.299 . S
N177 N176 1.398 . S
N178 C174 1.367 . S
N178 C175 1.379 . S
H179 C182 0.980 . S
H180 C182 0.981 . S
H181 C182 0.981 . S
C182 C174 1.481 . S
C182 H179 0.980 . S
C182 H180 0.981 . S
C182 H181 0.981 . S
C183 C170 1.481 . S
C183 H184 0.980 . S
C183 H185 0.981 . S
C183 H186 0.981 . S
H184 C183 0.980 . S
H185 C183 0.981 . S
H186 C183 0.981 . S
O187 Zn163 2.066 1_655 S
O187 C166 1.256 . S
O188 Zn160 2.053 . S
O188 C166 1.244 . S
C189 O167 1.259 . S
C189 O168 1.254 1_455 S
O190 Zn160 2.066 . S
O190 C162 1.256 . S
O191 C162 1.244 . S
O191 Zn163 2.053 1_655 S
Zn192 O193 2.055 . S
Zn192 O200 2.046 . S
Zn192 N208 2.036 . S
Zn192 O220 2.053 . S
Zn192 O222 2.066 . S
O193 Zn192 2.055 . S
O193 C196 1.259 1_554 S
C194 O222 1.256 . S
C194 O223 1.244 . S
Zn195 O197 2.046 . S
Zn195 O199 2.055 . S
Zn195 N201 2.036 . S
Zn195 O219 2.066 1_556 S
Zn195 O223 2.053 1_556 S
C196 O193 1.259 1_556 S
C196 O197 1.254 . S
O197 Zn195 2.046 . S
O197 C196 1.254 . S
C198 O219 1.256 . S
C198 O220 1.244 . S
O199 Zn195 2.055 . S
O199 C221 1.259 . S
O200 Zn192 2.046 . S
O200 C221 1.254 1_554 S
N201 Zn195 2.036 . S
N201 C202 1.298 . S
N201 N204 1.398 . S
C202 N201 1.298 . S
C202 N205 1.367 . S
C202 C215 1.481 . S
C203 N204 1.299 . S
C203 N205 1.379 . S
N204 N201 1.398 . S
N204 C203 1.299 . S
N205 C202 1.367 . S
N205 C203 1.379 . S
C206 N208 1.298 . S
C206 N210 1.367 . S
C206 C214 1.481 . S
C207 N209 1.299 . S
C207 N210 1.379 . S
N208 Zn192 2.036 . S
N208 C206 1.298 . S
N208 N209 1.398 . S
N209 C207 1.299 . S
N209 N208 1.398 . S
N210 C206 1.367 . S
N210 C207 1.379 . S
H211 C214 0.980 . S
H212 C214 0.981 . S
H213 C214 0.981 . S
C214 C206 1.481 . S
C214 H211 0.980 . S
C214 H212 0.981 . S
C214 H213 0.981 . S
C215 C202 1.481 . S
C215 H216 0.980 . S
C215 H217 0.981 . S
C215 H218 0.981 . S
H216 C215 0.980 . S
H217 C215 0.981 . S
H218 C215 0.981 . S
O219 Zn195 2.066 1_554 S
O219 C198 1.256 . S
O220 Zn192 2.053 . S
O220 C198 1.244 . S
C221 O199 1.259 . S
C221 O200 1.254 1_556 S
O222 Zn192 2.066 . S
O222 C194 1.256 . S
O223 C194 1.244 . S
O223 Zn195 2.053 1_554 S
Zn224 O225 2.055 . S
Zn224 O232 2.046 . S
Zn224 N240 2.036 . S
Zn224 O252 2.053 . S
Zn224 O254 2.066 . S
O225 Zn224 2.055 . S
O225 C228 1.259 . S
C226 O254 1.256 . S
C226 O255 1.244 . S
Zn227 O229 2.046 . S
Zn227 O231 2.055 . S
Zn227 N233 2.036 . S
Zn227 O251 2.066 . S
Zn227 O255 2.053 . S
C228 O225 1.259 . S
C228 O229 1.254 . S
O229 Zn227 2.046 . S
O229 C228 1.254 . S
C230 O251 1.256 . S
C230 O252 1.244 . S
O231 Zn227 2.055 . S
O231 C253 1.259 . S
O232 Zn224 2.046 . S
O232 C253 1.254 . S
N233 Zn227 2.036 . S
N233 C234 1.298 . S
N233 N236 1.398 . S
C234 N233 1.298 . S
C234 N237 1.367 . S
C234 C247 1.481 . S
C235 N236 1.299 . S
C235 N237 1.379 . S
N236 N233 1.398 . S
N236 C235 1.299 . S
N237 C234 1.367 . S
N237 C235 1.379 . S
C238 N240 1.298 . S
C238 N242 1.367 . S
C238 C246 1.481 . S
C239 N241 1.299 . S
C239 N242 1.379 . S
N240 Zn224 2.036 . S
N240 C238 1.298 . S
N240 N241 1.398 . S
N241 C239 1.299 . S
N241 N240 1.398 . S
N242 C238 1.367 . S
N242 C239 1.379 . S
H243 C246 0.980 . S
H244 C246 0.981 . S
H245 C246 0.981 . S
C246 C238 1.481 . S
C246 H243 0.980 . S
C246 H244 0.981 . S
C246 H245 0.981 . S
C247 C234 1.481 . S
C247 H248 0.980 . S
C247 H249 0.981 . S
C247 H250 0.981 . S
H248 C247 0.980 . S
H249 C247 0.981 . S
H250 C247 0.981 . S
O251 Zn227 2.066 . S
O251 C230 1.256 . S
O252 Zn224 2.053 . S
O252 C230 1.244 . S
C253 O231 1.259 . S
C253 O232 1.254 . S
O254 Zn224 2.066 . S
O254 C226 1.256 . S
O255 C226 1.244 . S
O255 Zn227 2.053 . S
Zn256 O257 2.055 . S
Zn256 O264 2.046 . S
Zn256 N272 2.036 . S
Zn256 O284 2.053 . S
Zn256 O286 2.066 . S
O257 Zn256 2.055 . S
O257 C260 1.259 . S
C258 O286 1.256 . S
C258 O287 1.244 . S
Zn259 O261 2.046 . S
Zn259 O263 2.055 . S
Zn259 N265 2.036 . S
Zn259 O283 2.066 . S
Zn259 O287 2.053 . S
C260 O257 1.259 . S
C260 O261 1.254 . S
O261 Zn259 2.046 . S
O261 C260 1.254 . S
C262 O283 1.256 . S
C262 O284 1.244 . S
O263 Zn259 2.055 . S
O263 C285 1.259 . S
O264 Zn256 2.046 . S
O264 C285 1.254 . S
N265 Zn259 2.036 . S
N265 C266 1.298 . S
N265 N268 1.398 . S
C266 N265 1.298 . S
C266 N269 1.367 . S
C266 C279 1.481 . S
C267 N268 1.299 . S
C267 N269 1.379 . S
N268 N265 1.398 . S
N268 C267 1.299 . S
N269 C266 1.367 . S
N269 C267 1.379 . S
C270 N272 1.298 . S
C270 N274 1.367 . S
C270 C278 1.481 . S
C271 N273 1.299 . S
C271 N274 1.379 . S
N272 Zn256 2.036 . S
N272 C270 1.298 . S
N272 N273 1.398 . S
N273 C271 1.299 . S
N273 N272 1.398 . S
N274 C270 1.367 . S
N274 C271 1.379 . S
H275 C278 0.980 . S
H276 C278 0.981 . S
H277 C278 0.981 . S
C278 C270 1.481 . S
C278 H275 0.980 . S
C278 H276 0.981 . S
C278 H277 0.981 . S
C279 C266 1.481 . S
C279 H280 0.980 . S
C279 H281 0.981 . S
C279 H282 0.981 . S
H280 C279 0.980 . S
H281 C279 0.981 . S
H282 C279 0.981 . S
O283 Zn259 2.066 . S
O283 C262 1.256 . S
O284 Zn256 2.053 . S
O284 C262 1.244 . S
C285 O263 1.259 . S
C285 O264 1.254 . S
O286 Zn256 2.066 . S
O286 C258 1.256 . S
O287 C258 1.244 . S
O287 Zn259 2.053 . S
Zn288 O289 2.055 . S
Zn288 O296 2.046 . S
Zn288 N304 2.036 . S
Zn288 O316 2.053 . S
Zn288 O318 2.066 . S
O289 Zn288 2.055 . S
O289 C292 1.259 1_545 S
C290 O318 1.256 . S
C290 O319 1.244 . S
Zn291 O293 2.046 . S
Zn291 O295 2.055 . S
Zn291 N297 2.036 . S
Zn291 O315 2.066 1_565 S
Zn291 O319 2.053 1_565 S
C292 O289 1.259 1_565 S
C292 O293 1.254 . S
O293 Zn291 2.046 . S
O293 C292 1.254 . S
C294 O315 1.256 . S
C294 O316 1.244 . S
O295 Zn291 2.055 . S
O295 C317 1.259 . S
O296 Zn288 2.046 . S
O296 C317 1.254 1_545 S
N297 Zn291 2.036 . S
N297 C298 1.298 . S
N297 N300 1.398 . S
C298 N297 1.298 . S
C298 N301 1.367 . S
C298 C311 1.481 . S
C299 N300 1.299 . S
C299 N301 1.379 . S
N300 N297 1.398 . S
N300 C299 1.299 . S
N301 C298 1.367 . S
N301 C299 1.379 . S
C302 N304 1.298 . S
C302 N306 1.367 . S
C302 C310 1.481 . S
C303 N305 1.299 . S
C303 N306 1.379 . S
N304 Zn288 2.036 . S
N304 C302 1.298 . S
N304 N305 1.398 . S
N305 C303 1.299 . S
N305 N304 1.398 . S
N306 C302 1.367 . S
N306 C303 1.379 . S
H307 C310 0.980 . S
H308 C310 0.981 . S
H309 C310 0.981 . S
C310 C302 1.481 . S
C310 H307 0.980 . S
C310 H308 0.981 . S
C310 H309 0.981 . S
C311 C298 1.481 . S
C311 H312 0.980 . S
C311 H313 0.981 . S
C311 H314 0.981 . S
H312 C311 0.980 . S
H313 C311 0.981 . S
H314 C311 0.981 . S
O315 Zn291 2.066 1_545 S
O315 C294 1.256 . S
O316 Zn288 2.053 . S
O316 C294 1.244 . S
C317 O295 1.259 . S
C317 O296 1.254 1_565 S
O318 Zn288 2.066 . S
O318 C290 1.256 . S
O319 C290 1.244 . S
O319 Zn291 2.053 1_545 S
Zn320 O321 2.055 . S
Zn320 O328 2.046 . S
Zn320 N336 2.036 . S
Zn320 O348 2.053 . S
Zn320 O350 2.066 . S
O321 Zn320 2.055 . S
O321 C324 1.259 1_565 S
C322 O350 1.256 . S
C322 O351 1.244 . S
Zn323 O325 2.046 . S
Zn323 O327 2.055 . S
Zn323 N329 2.036 . S
Zn323 O347 2.066 1_545 S
Zn323 O351 2.053 1_545 S
C324 O321 1.259 1_545 S
C324 O325 1.254 . S
O325 Zn323 2.046 . S
O325 C324 1.254 . S
C326 O347 1.256 . S
C326 O348 1.244 . S
O327 Zn323 2.055 . S
O327 C349 1.259 . S
O328 Zn320 2.046 . S
O328 C349 1.254 1_565 S
N329 Zn323 2.036 . S
N329 C330 1.298 . S
N329 N332 1.398 . S
C330 N329 1.298 . S
C330 N333 1.367 . S
C330 C343 1.481 . S
C331 N332 1.299 . S
C331 N333 1.379 . S
N332 N329 1.398 . S
N332 C331 1.299 . S
N333 C330 1.367 . S
N333 C331 1.379 . S
C334 N336 1.298 . S
C334 N338 1.367 . S
C334 C342 1.481 . S
C335 N337 1.299 . S
C335 N338 1.379 . S
N336 Zn320 2.036 . S
N336 C334 1.298 . S
N336 N337 1.398 . S
N337 C335 1.299 . S
N337 N336 1.398 . S
N338 C334 1.367 . S
N338 C335 1.379 . S
H339 C342 0.980 . S
H340 C342 0.981 . S
H341 C342 0.981 . S
C342 C334 1.481 . S
C342 H339 0.980 . S
C342 H340 0.981 . S
C342 H341 0.981 . S
C343 C330 1.481 . S
C343 H344 0.980 . S
C343 H345 0.981 . S
C343 H346 0.981 . S
H344 C343 0.980 . S
H345 C343 0.981 . S
H346 C343 0.981 . S
O347 Zn323 2.066 1_565 S
O347 C326 1.256 . S
O348 Zn320 2.053 . S
O348 C326 1.244 . S
C349 O327 1.259 . S
C349 O328 1.254 1_545 S
O350 Zn320 2.066 . S
O350 C322 1.256 . S
O351 C322 1.244 . S
O351 Zn323 2.053 1_565 S
Zn352 O353 2.055 . S
Zn352 O360 2.046 . S
Zn352 N368 2.036 . S
Zn352 O380 2.053 . S
Zn352 O382 2.066 . S
O353 Zn352 2.055 . S
O353 C356 1.259 . S
C354 O382 1.256 . S
C354 O383 1.244 . S
Zn355 O357 2.046 . S
Zn355 O359 2.055 . S
Zn355 N361 2.036 . S
Zn355 O379 2.066 . S
Zn355 O383 2.053 . S
C356 O353 1.259 . S
C356 O357 1.254 . S
O357 Zn355 2.046 . S
O357 C356 1.254 . S
C358 O379 1.256 . S
C358 O380 1.244 . S
O359 Zn355 2.055 . S
O359 C381 1.259 . S
O360 Zn352 2.046 . S
O360 C381 1.254 . S
N361 Zn355 2.036 . S
N361 C362 1.298 . S
N361 N364 1.398 . S
C362 N361 1.298 . S
C362 N365 1.367 . S
C362 C375 1.481 . S
C363 N364 1.299 . S
C363 N365 1.379 . S
N364 N361 1.398 . S
N364 C363 1.299 . S
N365 C362 1.367 . S
N365 C363 1.379 . S
C366 N368 1.298 . S
C366 N370 1.367 . S
C366 C374 1.481 . S
C367 N369 1.299 . S
C367 N370 1.379 . S
N368 Zn352 2.036 . S
N368 C366 1.298 . S
N368 N369 1.398 . S
N369 C367 1.299 . S
N369 N368 1.398 . S
N370 C366 1.367 . S
N370 C367 1.379 . S
H371 C374 0.980 . S
H372 C374 0.981 . S
H373 C374 0.981 . S
C374 C366 1.481 . S
C374 H371 0.980 . S
C374 H372 0.981 . S
C374 H373 0.981 . S
C375 C362 1.481 . S
C375 H376 0.980 . S
C375 H377 0.981 . S
C375 H378 0.981 . S
H376 C375 0.980 . S
H377 C375 0.981 . S
H378 C375 0.981 . S
O379 Zn355 2.066 . S
O379 C358 1.256 . S
O380 Zn352 2.053 . S
O380 C358 1.244 . S
C381 O359 1.259 . S
C381 O360 1.254 . S
O382 Zn352 2.066 . S
O382 C354 1.256 . S
O383 C354 1.244 . S
O383 Zn355 2.053 . S
C384 C385 1.363 . S
C384 C390 1.379 . S
C384 N392 1.356 . S
C385 C384 1.363 . S
C385 C391 1.363 . S
C386 C387 1.363 . S
C386 C391 1.379 . S
C386 N393 1.356 . S
C387 C386 1.363 . S
C387 C390 1.363 . S
N388 C390 1.356 . S
N388 H400 0.984 . S
N388 H401 0.985 . S
N389 C391 1.356 . S
N389 H394 0.984 . S
N389 H395 0.985 . S
C390 C384 1.379 . S
C390 C387 1.363 . S
C390 N388 1.356 . S
C391 C385 1.363 . S
C391 C386 1.379 . S
C391 N389 1.356 . S
N392 C384 1.356 . S
N392 H398 0.984 . S
N392 H399 0.984 . S
N393 C386 1.356 . S
N393 H396 0.984 . S
N393 H397 0.985 . S
H394 N389 0.984 . S
H395 N389 0.985 . S
H396 N393 0.984 . S
H397 N393 0.985 . S
H398 N392 0.984 . S
H399 N392 0.984 . S
H400 N388 0.984 . S
H401 N388 0.985 . S
C402 C403 1.363 . S
C402 C408 1.379 . S
C402 N410 1.356 . S
C403 C402 1.363 . S
C403 C409 1.363 . S
C404 C405 1.363 . S
C404 C409 1.379 . S
C404 N411 1.356 . S
C405 C404 1.363 . S
C405 C408 1.363 . S
N406 C408 1.356 . S
N406 H418 0.984 . S
N406 H419 0.985 . S
N407 C409 1.356 . S
N407 H412 0.984 . S
N407 H413 0.985 . S
C408 C402 1.379 . S
C408 C405 1.363 . S
C408 N406 1.356 . S
C409 C403 1.363 . S
C409 C404 1.379 . S
C409 N407 1.356 . S
N410 C402 1.356 . S
N410 H416 0.984 . S
N410 H417 0.984 . S
N411 C404 1.356 . S
N411 H414 0.984 . S
N411 H415 0.985 . S
H412 N407 0.984 . S
H413 N407 0.985 . S
H414 N411 0.984 . S
H415 N411 0.985 . S
H416 N410 0.984 . S
H417 N410 0.984 . S
H418 N406 0.984 . S
H419 N406 0.985 . S
C420 C421 1.377 . S
C420 C426 1.380 . S
C420 N428 1.344 1_554 S
C421 C420 1.377 . S
C421 C427 1.363 . S
C422 C423 1.363 . S
C422 C427 1.379 . S
C422 N429 1.356 . S
C423 C422 1.363 . S
C423 C426 1.363 . S
N424 C426 1.356 1_556 S
N424 H436 0.984 . S
N424 H437 0.985 . S
N425 C427 1.356 . S
N425 H430 0.984 . S
N425 H431 0.985 . S
C426 C420 1.380 . S
C426 C423 1.363 . S
C426 N424 1.356 1_554 S
C427 C421 1.363 . S
C427 C422 1.379 . S
C427 N425 1.356 . S
N428 C420 1.344 1_556 S
N428 H434 0.984 . S
N428 H435 0.984 . S
N429 C422 1.356 . S
N429 H432 0.984 . S
N429 H433 0.985 . S
H430 N425 0.984 . S
H431 N425 0.985 . S
H432 N429 0.984 . S
H433 N429 0.985 . S
H434 N428 0.984 . S
H435 N428 0.984 . S
H436 N424 0.984 . S
H437 N424 0.985 . S
C438 C439 1.363 . S
C438 C444 1.379 . S
C438 N446 1.356 . S
C439 C438 1.363 . S
C439 C445 1.363 . S
C440 C441 1.363 . S
C440 C445 1.379 . S
C440 N447 1.356 1_545 S
C441 C440 1.363 . S
C441 C444 1.363 . S
N442 C444 1.356 . S
N442 H454 0.984 . S
N442 H455 0.985 . S
N443 C445 1.356 1_565 S
N443 H448 0.984 . S
N443 H449 0.985 . S
C444 C438 1.379 . S
C444 C441 1.363 . S
C444 N442 1.356 . S
C445 C439 1.363 . S
C445 C440 1.379 . S
C445 N443 1.356 1_545 S
N446 C438 1.356 . S
N446 H452 0.984 . S
N446 H453 0.984 . S
N447 C440 1.356 1_565 S
N447 H450 0.984 . S
N447 H451 0.985 . S
H448 N443 0.984 . S
H449 N443 0.985 . S
H450 N447 0.984 . S
H451 N447 0.985 . S
H452 N446 0.984 . S
H453 N446 0.984 . S
H454 N442 0.984 . S
H455 N442 0.985 . S
C456 C457 1.363 . S
C456 C462 1.379 . S
C456 N464 1.356 . S
C457 C456 1.363 . S
C457 C463 1.363 . S
C458 C459 1.363 . S
C458 C463 1.379 . S
C458 N465 1.356 . S
C459 C458 1.363 . S
C459 C462 1.363 . S
N460 C462 1.356 . S
N460 H472 0.984 . S
N460 H473 0.985 . S
N461 C463 1.356 . S
N461 H466 0.984 . S
N461 H467 0.985 . S
C462 C456 1.379 . S
C462 C459 1.363 . S
C462 N460 1.356 . S
C463 C457 1.363 . S
C463 C458 1.379 . S
C463 N461 1.356 . S
N464 C456 1.356 . S
N464 H470 0.984 . S
N464 H471 0.984 . S
N465 C458 1.356 . S
N465 H468 0.984 . S
N465 H469 0.985 . S
H466 N461 0.984 . S
H467 N461 0.985 . S
H468 N465 0.984 . S
H469 N465 0.985 . S
H470 N464 0.984 . S
H471 N464 0.984 . S
H472 N460 0.984 . S
H473 N460 0.985 . S
C474 C475 1.363 . S
C474 C480 1.379 . S
C474 N482 1.356 . S
C475 C474 1.363 . S
C475 C481 1.363 . S
C476 C477 1.363 . S
C476 C481 1.379 . S
C476 N483 1.356 . S
C477 C476 1.363 . S
C477 C480 1.363 . S
N478 C480 1.356 . S
N478 H490 0.984 . S
N478 H491 0.985 . S
N479 C481 1.356 . S
N479 H484 0.984 . S
N479 H485 0.985 . S
C480 C474 1.379 . S
C480 C477 1.363 . S
C480 N478 1.356 . S
C481 C475 1.363 . S
C481 C476 1.379 . S
C481 N479 1.356 . S
N482 C474 1.356 . S
N482 H488 0.984 . S
N482 H489 0.984 . S
N483 C476 1.356 . S
N483 H486 0.984 . S
N483 H487 0.985 . S
H484 N479 0.984 . S
H485 N479 0.985 . S
H486 N483 0.984 . S
H487 N483 0.985 . S
H488 N482 0.984 . S
H489 N482 0.984 . S
H490 N478 0.984 . S
H491 N478 0.985 . S
C492 C493 1.363 . S
C492 C498 1.380 . S
C492 N500 1.356 1_556 S
C493 C492 1.363 . S
C493 C499 1.363 . S
C494 C495 1.363 . S
C494 C499 1.379 . S
C494 N501 1.356 . S
C495 C494 1.363 . S
C495 C498 1.372 . S
N496 C498 1.349 1_554 S
N496 H508 0.984 . S
N496 H509 0.985 . S
N497 C499 1.356 . S
N497 H502 0.984 . S
N497 H503 0.985 . S
C498 C492 1.380 . S
C498 C495 1.372 . S
C498 N496 1.349 1_556 S
C499 C493 1.363 . S
C499 C494 1.379 . S
C499 N497 1.356 . S
N500 C492 1.356 1_554 S
N500 H506 0.984 . S
N500 H507 0.984 . S
N501 C494 1.356 . S
N501 H504 0.984 . S
N501 H505 0.985 . S
H502 N497 0.984 . S
H503 N497 0.985 . S
H504 N501 0.984 . S
H505 N501 0.985 . S
H506 N500 0.984 . S
H507 N500 0.984 . S
H508 N496 0.984 . S
H509 N496 0.985 . S
C510 C511 1.363 . S
C510 C516 1.379 . S
C510 N518 1.356 . S
C511 C510 1.363 . S
C511 C517 1.363 . S
C512 C513 1.363 . S
C512 C517 1.379 . S
C512 N519 1.356 . S
C513 C512 1.363 . S
C513 C516 1.363 . S
N514 C516 1.356 . S
N514 H526 0.984 . S
N514 H527 0.985 . S
N515 C517 1.356 . S
N515 H520 0.984 . S
N515 H521 0.985 . S
C516 C510 1.379 . S
C516 C513 1.363 . S
C516 N514 1.356 . S
C517 C511 1.363 . S
C517 C512 1.379 . S
C517 N515 1.356 . S
N518 C510 1.356 . S
N518 H524 0.984 . S
N518 H525 0.984 . S
N519 C512 1.356 . S
N519 H522 0.984 . S
N519 H523 0.985 . S
H520 N515 0.984 . S
H521 N515 0.985 . S
H522 N519 0.984 . S
H523 N519 0.985 . S
H524 N518 0.984 . S
H525 N518 0.984 . S
H526 N514 0.984 . S
H527 N514 0.985 . S
C528 C529 1.363 . S
C528 C534 1.379 . S
C528 N536 1.356 . S
C529 C528 1.363 . S
C529 C535 1.363 . S
C530 C531 1.363 . S
C530 C535 1.379 . S
C530 N537 1.356 . S
C531 C530 1.363 . S
C531 C534 1.363 . S
N532 C534 1.356 . S
N532 H544 0.984 . S
N532 H545 0.985 . S
N533 C535 1.356 . S
N533 H538 0.984 . S
N533 H539 0.985 . S
C534 C528 1.379 . S
C534 C531 1.363 . S
C534 N532 1.356 . S
C535 C529 1.363 . S
C535 C530 1.379 . S
C535 N533 1.356 . S
N536 C528 1.356 . S
N536 H542 0.984 . S
N536 H543 0.984 . S
N537 C530 1.356 . S
N537 H540 0.984 . S
N537 H541 0.985 . S
H538 N533 0.984 . S
H539 N533 0.985 . S
H540 N537 0.984 . S
H541 N537 0.985 . S
H542 N536 0.984 . S
H543 N536 0.984 . S
H544 N532 0.984 . S
H545 N532 0.985 . S
C546 C547 1.363 . S
C546 C552 1.379 . S
C546 N554 1.356 . S
C547 C546 1.363 . S
C547 C553 1.363 . S
C548 C549 1.363 . S
C548 C553 1.379 . S
C548 N555 1.356 1_455 S
C549 C548 1.363 . S
C549 C552 1.363 . S
N550 C552 1.356 . S
N550 H562 0.984 . S
N550 H563 0.985 . S
N551 C553 1.356 1_655 S
N551 H556 0.984 1_655 S
N551 H557 0.985 . S
C552 C546 1.379 . S
C552 C549 1.363 . S
C552 N550 1.356 . S
C553 C547 1.363 . S
C553 C548 1.379 . S
C553 N551 1.356 1_455 S
N554 C546 1.356 . S
N554 H560 0.984 . S
N554 H561 0.984 . S
N555 C548 1.356 1_655 S
N555 H558 0.984 . S
N555 H559 0.985 . S
H556 N551 0.984 1_455 S
H557 N551 0.985 . S
H558 N555 0.984 . S
H559 N555 0.985 . S
H560 N554 0.984 . S
H561 N554 0.984 . S
H562 N550 0.984 . S
H563 N550 0.985 . S
C564 C565 1.363 . S
C564 C570 1.379 . S
C564 N572 1.356 1_655 S
C565 C564 1.363 . S
C565 C571 1.363 . S
C566 C567 1.363 . S
C566 C571 1.379 . S
C566 N573 1.356 . S
C567 C566 1.363 . S
C567 C570 1.363 . S
N568 C570 1.356 1_455 S
N568 H580 0.984 . S
N568 H581 0.985 1_455 S
N569 C571 1.356 . S
N569 H574 0.984 . S
N569 H575 0.985 . S
C570 C564 1.379 . S
C570 C567 1.363 . S
C570 N568 1.356 1_655 S
C571 C565 1.363 . S
C571 C566 1.379 . S
C571 N569 1.356 . S
N572 C564 1.356 1_455 S
N572 H578 0.984 . S
N572 H579 0.984 . S
N573 C566 1.356 . S
N573 H576 0.984 . S
N573 H577 0.985 . S
H574 N569 0.984 . S
H575 N569 0.985 . S
H576 N573 0.984 . S
H577 N573 0.985 . S
H578 N572 0.984 . S
H579 N572 0.984 . S
H580 N568 0.984 . S
H581 N568 0.985 1_655 S
C582 C583 1.363 . S
C582 C588 1.379 . S
C582 N590 1.356 . S
C583 C582 1.363 . S
C583 C589 1.363 . S
C584 C585 1.363 . S
C584 C589 1.379 . S
C584 N591 1.356 . S
C585 C584 1.363 . S
C585 C588 1.363 . S
N586 C588 1.356 . S
N586 H598 0.984 . S
N586 H599 0.985 . S
N587 C589 1.356 . S
N587 H592 0.984 . S
N587 H593 0.985 . S
C588 C582 1.379 . S
C588 C585 1.363 . S
C588 N586 1.356 . S
C589 C583 1.363 . S
C589 C584 1.379 . S
C589 N587 1.356 . S
N590 C582 1.356 . S
N590 H596 0.984 . S
N590 H597 0.984 . S
N591 C584 1.356 . S
N591 H594 0.984 . S
N591 H595 0.985 . S
H592 N587 0.984 . S
H593 N587 0.985 . S
H594 N591 0.984 . S
H595 N591 0.985 . S
H596 N590 0.984 . S
H597 N590 0.984 . S
H598 N586 0.984 . S
H599 N586 0.985 . S
C600 C601 1.363 . S
C600 C606 1.379 . S
C600 N608 1.356 . S
C601 C600 1.363 . S
C601 C607 1.363 . S
C602 C603 1.363 . S
C602 C607 1.379 . S
C602 N609 1.356 . S
C603 C602 1.363 . S
C603 C606 1.363 . S
N604 C606 1.356 . S
N604 H616 0.984 . S
N604 H617 0.985 . S
N605 C607 1.356 . S
N605 H610 0.984 . S
N605 H611 0.985 . S
C606 C600 1.379 . S
C606 C603 1.363 . S
C606 N604 1.356 . S
C607 C601 1.363 . S
C607 C602 1.379 . S
C607 N605 1.356 . S
N608 C600 1.356 . S
N608 H614 0.984 . S
N608 H615 0.984 . S
N609 C602 1.356 . S
N609 H612 0.984 . S
N609 H613 0.985 . S
H610 N605 0.984 . S
H611 N605 0.985 . S
H612 N609 0.984 . S
H613 N609 0.985 . S
H614 N608 0.984 . S
H615 N608 0.984 . S
H616 N604 0.984 . S
H617 N604 0.985 . S
C618 C619 1.363 . S
C618 C624 1.379 . S
C618 N626 1.356 . S
C619 C618 1.363 . S
C619 C625 1.363 . S
C620 C621 1.363 . S
C620 C625 1.379 . S
C620 N627 1.356 . S
C621 C620 1.363 . S
C621 C624 1.363 . S
N622 C624 1.356 . S
N622 H634 0.984 . S
N622 H635 0.985 . S
N623 C625 1.356 . S
N623 H628 0.984 . S
N623 H629 0.985 . S
C624 C618 1.379 . S
C624 C621 1.363 . S
C624 N622 1.356 . S
C625 C619 1.363 . S
C625 C620 1.379 . S
C625 N623 1.356 . S
N626 C618 1.356 . S
N626 H632 0.984 . S
N626 H633 0.984 . S
N627 C620 1.356 . S
N627 H630 0.984 . S
N627 H631 0.985 . S
H628 N623 0.984 . S
H629 N623 0.985 . S
H630 N627 0.984 . S
H631 N627 0.985 . S
H632 N626 0.984 . S
H633 N626 0.984 . S
H634 N622 0.984 . S
H635 N622 0.985 . S
C636 C637 1.363 . S
C636 C642 1.379 . S
C636 N644 1.356 . S
C637 C636 1.363 . S
C637 C643 1.363 . S
C638 C639 1.363 . S
C638 C643 1.379 . S
C638 N645 1.356 . S
C639 C638 1.363 . S
C639 C642 1.363 . S
N640 C642 1.356 . S
N640 H652 0.984 . S
N640 H653 0.985 . S
N641 C643 1.356 . S
N641 H646 0.984 . S
N641 H647 0.985 . S
C642 C636 1.379 . S
C642 C639 1.363 . S
C642 N640 1.356 . S
C643 C637 1.363 . S
C643 C638 1.379 . S
C643 N641 1.356 . S
N644 C636 1.356 . S
N644 H650 0.984 . S
N644 H651 0.984 . S
N645 C638 1.356 . S
N645 H648 0.984 . S
N645 H649 0.985 . S
H646 N641 0.984 . S
H647 N641 0.985 . S
H648 N645 0.984 . S
H649 N645 0.985 . S
H650 N644 0.984 . S
H651 N644 0.984 . S
H652 N640 0.984 . S
H653 N640 0.985 . S
C654 C655 1.363 . S
C654 C660 1.379 1_554 S
C654 N662 1.356 . S
C655 C654 1.363 . S
C655 C661 1.363 . S
C656 C657 1.363 1_554 S
C656 C661 1.379 . S
C656 N663 1.356 . S
C657 C656 1.363 1_556 S
C657 C660 1.363 . S
N658 C660 1.356 . S
N658 H670 0.984 . S
N658 H671 0.985 . S
N659 C661 1.356 . S
N659 H664 0.984 . S
N659 H665 0.985 . S
C660 C654 1.379 1_556 S
C660 C657 1.363 . S
C660 N658 1.356 . S
C661 C655 1.363 . S
C661 C656 1.379 . S
C661 N659 1.356 . S
N662 C654 1.356 . S
N662 H668 0.984 1_554 S
N662 H669 0.984 . S
N663 C656 1.356 . S
N663 H666 0.984 1_554 S
N663 H667 0.985 . S
H664 N659 0.984 . S
H665 N659 0.985 . S
H666 N663 0.984 1_556 S
H667 N663 0.985 . S
H668 N662 0.984 1_556 S
H669 N662 0.984 . S
H670 N658 0.984 . S
H671 N658 0.985 . S
C672 C673 1.363 . S
C672 C678 1.379 . S
C672 N680 1.356 . S
C673 C672 1.363 . S
C673 C679 1.363 . S
C674 C675 1.363 . S
C674 C679 1.379 . S
C674 N681 1.356 . S
C675 C674 1.363 . S
C675 C678 1.363 . S
N676 C678 1.356 . S
N676 H688 0.984 . S
N676 H689 0.985 . S
N677 C679 1.356 . S
N677 H682 0.984 . S
N677 H683 0.985 . S
C678 C672 1.379 . S
C678 C675 1.363 . S
C678 N676 1.356 . S
C679 C673 1.363 . S
C679 C674 1.379 . S
C679 N677 1.356 . S
N680 C672 1.356 . S
N680 H686 0.984 . S
N680 H687 0.984 . S
N681 C674 1.356 . S
N681 H684 0.984 . S
N681 H685 0.985 1_545 S
H682 N677 0.984 . S
H683 N677 0.985 . S
H684 N681 0.984 . S
H685 N681 0.985 1_565 S
H686 N680 0.984 . S
H687 N680 0.984 . S
H688 N676 0.984 . S
H689 N676 0.985 . S
C690 C691 1.363 . S
C690 C696 1.379 1_554 S
C690 N698 1.356 . S
C691 C690 1.363 . S
C691 C697 1.363 1_554 S
C692 C693 1.363 . S
C692 C697 1.379 . S
C692 N699 1.356 . S
C693 C692 1.363 . S
C693 C696 1.363 . S
N694 C696 1.356 . S
N694 H706 0.995 . S
N694 H707 0.985 . S
N695 C697 1.356 . S
N695 H700 0.984 1_556 S
N695 H701 0.985 . S
C696 C690 1.379 1_556 S
C696 C693 1.363 . S
C696 N694 1.356 . S
C697 C691 1.363 1_556 S
C697 C692 1.379 . S
C697 N695 1.356 . S
N698 C690 1.356 . S
N698 H704 0.984 . S
N698 H705 0.984 . S
N699 C692 1.356 . S
N699 H702 0.984 . S
N699 H703 0.985 . S
H700 N695 0.984 1_554 S
H701 N695 0.985 . S
H702 N699 0.984 . S
H703 N699 0.985 . S
H704 N698 0.984 . S
H705 N698 0.984 . S
H706 N694 0.995 . S
H707 N694 0.985 . S
C708 C709 1.363 . S
C708 C714 1.379 . S
C708 N716 1.356 . S
C709 C708 1.363 . S
C709 C715 1.363 . S
C710 C711 1.363 . S
C710 C715 1.379 . S
C710 N717 1.356 . S
C711 C710 1.363 . S
C711 C714 1.363 . S
N712 C714 1.356 . S
N712 H724 0.984 . S
N712 H725 0.985 . S
N713 C715 1.356 . S
N713 H718 0.984 . S
N713 H719 0.985 1_565 S
C714 C708 1.379 . S
C714 C711 1.363 . S
C714 N712 1.356 . S
C715 C709 1.363 . S
C715 C710 1.379 . S
C715 N713 1.356 . S
N716 C708 1.356 . S
N716 H722 0.984 . S
N716 H723 0.984 . S
N717 C710 1.356 . S
N717 H720 0.984 . S
N717 H721 0.985 . S
H718 N713 0.984 . S
H719 N713 0.985 1_545 S
H720 N717 0.984 . S
H721 N717 0.985 . S
H722 N716 0.984 . S
H723 N716 0.984 . S
H724 N712 0.984 . S
H725 N712 0.985 . S
C726 C727 1.363 . S
C726 C732 1.379 . S
C726 N734 1.356 . S
C727 C726 1.363 . S
C727 C733 1.363 . S
C728 C729 1.363 . S
C728 C733 1.379 . S
C728 N735 1.356 . S
C729 C728 1.363 . S
C729 C732 1.363 . S
N730 C732 1.356 . S
N730 H742 0.984 . S
N730 H743 0.985 . S
N731 C733 1.356 . S
N731 H736 0.984 . S
N731 H737 0.985 . S
C732 C726 1.379 . S
C732 C729 1.363 . S
C732 N730 1.356 . S
C733 C727 1.363 . S
C733 C728 1.379 . S
C733 N731 1.356 . S
N734 C726 1.356 . S
N734 H740 0.984 . S
N734 H741 0.984 . S
N735 C728 1.356 . S
N735 H738 0.984 . S
N735 H739 0.985 . S
H736 N731 0.984 . S
H737 N731 0.985 . S
H738 N735 0.984 . S
H739 N735 0.985 . S
H740 N734 0.984 . S
H741 N734 0.984 . S
H742 N730 0.984 . S
H743 N730 0.985 . S
C744 C745 1.363 . S
C744 C750 1.379 . S
C744 N752 1.356 . S
C745 C744 1.363 . S
C745 C751 1.363 . S
C746 C747 1.363 . S
C746 C751 1.379 . S
C746 N753 1.356 . S
C747 C746 1.363 . S
C747 C750 1.363 . S
N748 C750 1.356 . S
N748 H760 0.984 . S
N748 H761 0.985 . S
N749 C751 1.356 . S
N749 H754 0.984 . S
N749 H755 0.985 . S
C750 C744 1.379 . S
C750 C747 1.363 . S
C750 N748 1.356 . S
C751 C745 1.363 . S
C751 C746 1.379 . S
C751 N749 1.356 . S
N752 C744 1.356 . S
N752 H758 0.984 . S
N752 H759 0.984 . S
N753 C746 1.356 . S
N753 H756 0.984 . S
N753 H757 0.985 . S
H754 N749 0.984 . S
H755 N749 0.985 . S
H756 N753 0.984 . S
H757 N753 0.985 . S
H758 N752 0.984 . S
H759 N752 0.984 . S
H760 N748 0.984 . S
H761 N748 0.985 . S
C762 C763 1.363 . S
C762 C768 1.399 . S
C762 N770 1.356 . S
C763 C762 1.363 . S
C763 C769 1.363 . S
C764 C765 1.363 . S
C764 C769 1.379 1_565 S
C764 N771 1.356 . S
C765 C764 1.363 . S
C765 C768 1.349 1_565 S
N766 C768 1.344 1_565 S
N766 H778 0.984 1_455 S
N766 H779 0.985 . S
N767 C769 1.356 . S
N767 H772 0.984 . S
N767 H773 0.985 . S
C768 C762 1.399 . S
C768 C765 1.349 1_545 S
C768 N766 1.344 1_545 S
C769 C763 1.363 . S
C769 C764 1.379 1_545 S
C769 N767 1.356 . S
N770 C762 1.356 . S
N770 H776 0.984 . S
N770 H777 0.984 . S
N771 C764 1.356 . S
N771 H774 0.984 . S
N771 H775 0.985 . S
H772 N767 0.984 . S
H773 N767 0.985 . S
H774 N771 0.984 . S
H775 N771 0.985 . S
H776 N770 0.984 . S
H777 N770 0.984 . S
H778 N766 0.984 1_655 S
H779 N766 0.985 . S
C780 C781 1.363 . S
C780 C786 1.379 . S
C780 N788 1.356 . S
C781 C780 1.363 . S
C781 C787 1.363 . S
C782 C783 1.363 . S
C782 C787 1.379 . S
C782 N789 1.356 . S
C783 C782 1.363 . S
C783 C786 1.363 . S
N784 C786 1.356 . S
N784 H796 0.984 . S
N784 H797 0.985 . S
N785 C787 1.356 . S
N785 H790 0.984 . S
N785 H791 0.985 . S
C786 C780 1.379 . S
C786 C783 1.363 . S
C786 N784 1.356 . S
C787 C781 1.363 . S
C787 C782 1.379 . S
C787 N785 1.356 . S
N788 C780 1.356 . S
N788 H794 0.984 . S
N788 H795 0.984 . S
N789 C782 1.356 . S
N789 H792 0.984 . S
N789 H793 0.985 . S
H790 N785 0.984 . S
H791 N785 0.985 . S
H792 N789 0.984 . S
H793 N789 0.985 . S
H794 N788 0.984 . S
H795 N788 0.984 . S
H796 N784 0.984 . S
H797 N784 0.985 . S
C798 C799 1.363 . S
C798 C804 1.379 1_545 S
C798 N806 1.356 . S
C799 C798 1.363 . S
C799 C805 1.368 . S
C800 C801 1.363 . S
C800 C805 1.371 1_565 S
C800 N807 1.356 . S
C801 C800 1.363 . S
C801 C804 1.363 . S
N802 C804 1.356 . S
N802 H814 0.984 . S
N802 H815 0.985 . S
N803 C805 1.361 . S
N803 H808 0.984 . S
N803 H809 0.985 . S
C804 C798 1.379 1_565 S
C804 C801 1.363 . S
C804 N802 1.356 . S
C805 C799 1.368 . S
C805 C800 1.371 1_545 S
C805 N803 1.361 . S
N806 C798 1.356 . S
N806 H812 0.984 . S
N806 H813 0.984 . S
N807 C800 1.356 . S
N807 H810 0.984 . S
N807 H811 0.985 . S
H808 N803 0.984 . S
H809 N803 0.985 . S
H810 N807 0.984 . S
H811 N807 0.985 . S
H812 N806 0.984 . S
H813 N806 0.984 . S
H814 N802 0.984 . S
H815 N802 0.985 . S
C816 C817 1.363 . S
C816 C822 1.379 . S
C816 N824 1.356 . S
C817 C816 1.363 . S
C817 C823 1.363 . S
C818 C819 1.363 . S
C818 C823 1.379 . S
C818 N825 1.356 . S
C819 C818 1.363 . S
C819 C822 1.363 . S
N820 C822 1.356 . S
N820 H832 0.984 . S
N820 H833 0.985 . S
N821 C823 1.356 . S
N821 H826 0.984 . S
N821 H827 0.985 . S
C822 C816 1.379 . S
C822 C819 1.363 . S
C822 N820 1.356 . S
C823 C817 1.363 . S
C823 C818 1.379 . S
C823 N821 1.356 . S
N824 C816 1.356 . S
N824 H830 0.984 . S
N824 H831 0.984 . S
N825 C818 1.356 . S
N825 H828 0.984 . S
N825 H829 0.985 . S
H826 N821 0.984 . S
H827 N821 0.985 . S
H828 N825 0.984 . S
H829 N825 0.985 . S
H830 N824 0.984 . S
H831 N824 0.984 . S
H832 N820 0.984 . S
H833 N820 0.985 . S
C834 C835 1.363 . S
C834 C840 1.379 . S
C834 N842 1.356 . S
C835 C834 1.363 . S
C835 C841 1.363 . S
C836 C837 1.363 . S
C836 C841 1.379 . S
C836 N843 1.356 . S
C837 C836 1.363 . S
C837 C840 1.363 . S
N838 C840 1.356 . S
N838 H850 0.984 . S
N838 H851 0.985 . S
N839 C841 1.356 . S
N839 H844 0.984 . S
N839 H845 0.985 . S
C840 C834 1.379 . S
C840 C837 1.363 . S
C840 N838 1.356 . S
C841 C835 1.363 . S
C841 C836 1.379 . S
C841 N839 1.356 . S
N842 C834 1.356 . S
N842 H848 0.984 . S
N842 H849 0.984 . S
N843 C836 1.356 . S
N843 H846 0.984 . S
N843 H847 0.985 . S
H844 N839 0.984 . S
H845 N839 0.985 . S
H846 N843 0.984 . S
H847 N843 0.985 . S
H848 N842 0.984 . S
H849 N842 0.984 . S
H850 N838 0.984 . S
H851 N838 0.985 . S
C852 C853 1.363 . S
C852 C858 1.379 . S
C852 N860 1.356 . S
C853 C852 1.363 . S
C853 C859 1.363 . S
C854 C855 1.363 . S
C854 C859 1.379 . S
C854 N861 1.356 . S
C855 C854 1.363 . S
C855 C858 1.363 . S
N856 C858 1.356 . S
N856 H868 0.984 . S
N856 H869 0.985 . S
N857 C859 1.356 . S
N857 H862 0.984 . S
N857 H863 0.985 1_554 S
C858 C852 1.379 . S
C858 C855 1.363 . S
C858 N856 1.356 . S
C859 C853 1.363 . S
C859 C854 1.379 . S
C859 N857 1.356 . S
N860 C852 1.356 . S
N860 H866 0.984 . S
N860 H867 0.984 . S
N861 C854 1.356 . S
N861 H864 0.984 . S
N861 H865 0.985 . S
H862 N857 0.984 . S
H863 N857 0.985 1_556 S
H864 N861 0.984 . S
H865 N861 0.985 . S
H866 N860 0.984 . S
H867 N860 0.984 . S
H868 N856 0.984 . S
H869 N856 0.985 . S
C870 C871 1.363 . S
C870 C876 1.379 . S
C870 N878 1.356 . S
C871 C870 1.363 . S
C871 C877 1.363 . S
C872 C873 1.363 . S
C872 C877 1.379 . S
C872 N879 1.356 . S
C873 C872 1.363 . S
C873 C876 1.363 . S
N874 C876 1.356 . S
N874 H886 0.984 . S
N874 H887 0.985 . S
N875 C877 1.356 . S
N875 H880 0.984 . S
N875 H881 0.985 . S
C876 C870 1.379 . S
C876 C873 1.363 . S
C876 N874 1.356 . S
C877 C871 1.363 . S
C877 C872 1.379 . S
C877 N875 1.356 . S
N878 C870 1.356 . S
N878 H884 0.984 . S
N878 H885 0.984 . S
N879 C872 1.356 . S
N879 H882 0.984 . S
N879 H883 0.985 . S
H880 N875 0.984 . S
H881 N875 0.985 . S
H882 N879 0.984 . S
H883 N879 0.985 . S
H884 N878 0.984 . S
H885 N878 0.984 . S
H886 N874 0.984 . S
H887 N874 0.985 . S
C888 C889 1.363 . S
C888 C894 1.379 . S
C888 N896 1.356 . S
C889 C888 1.363 . S
C889 C895 1.363 . S
C890 C891 1.363 . S
C890 C895 1.379 . S
C890 N897 1.356 . S
C891 C890 1.363 . S
C891 C894 1.363 . S
N892 C894 1.356 . S
N892 H904 0.984 . S
N892 H905 0.985 . S
N893 C895 1.356 . S
N893 H898 0.984 . S
N893 H899 0.985 . S
C894 C888 1.379 . S
C894 C891 1.363 . S
C894 N892 1.356 . S
C895 C889 1.363 . S
C895 C890 1.379 . S
C895 N893 1.356 . S
N896 C888 1.356 . S
N896 H902 0.984 . S
N896 H903 0.984 . S
N897 C890 1.356 . S
N897 H900 0.984 . S
N897 H901 0.985 . S
H898 N893 0.984 . S
H899 N893 0.985 . S
H900 N897 0.984 . S
H901 N897 0.985 . S
H902 N896 0.984 . S
H903 N896 0.984 . S
H904 N892 0.984 . S
H905 N892 0.985 . S
C906 C907 1.363 . S
C906 C912 1.379 . S
C906 N914 1.356 . S
C907 C906 1.363 . S
C907 C913 1.363 . S
C908 C909 1.363 . S
C908 C913 1.379 . S
C908 N915 1.356 . S
C909 C908 1.363 . S
C909 C912 1.363 . S
N910 C912 1.356 . S
N910 H922 0.984 . S
N910 H923 0.985 . S
N911 C913 1.356 . S
N911 H916 0.984 . S
N911 H917 0.985 . S
C912 C906 1.379 . S
C912 C909 1.363 . S
C912 N910 1.356 . S
C913 C907 1.363 . S
C913 C908 1.379 . S
C913 N911 1.356 . S
N914 C906 1.356 . S
N914 H920 0.984 . S
N914 H921 0.984 . S
N915 C908 1.356 . S
N915 H918 0.984 . S
N915 H919 0.985 . S
H916 N911 0.984 . S
H917 N911 0.985 . S
H918 N915 0.984 . S
H919 N915 0.985 . S
H920 N914 0.984 . S
H921 N914 0.984 . S
H922 N910 0.984 . S
H923 N910 0.985 . S
C924 C925 1.363 . S
C924 C930 1.379 1_455 S
C924 N932 1.356 . S
C925 C924 1.363 . S
C925 C931 1.363 . S
C926 C927 1.363 1_455 S
C926 C931 1.379 . S
C926 N933 1.366 1_455 S
C927 C926 1.363 1_655 S
C927 C930 1.363 . S
N928 C930 1.356 . S
N928 H940 0.984 . S
N928 H941 0.985 . S
N929 C931 1.356 . S
N929 H934 0.984 . S
N929 H935 0.985 . S
C930 C924 1.379 1_655 S
C930 C927 1.363 . S
C930 N928 1.356 . S
C931 C925 1.363 . S
C931 C926 1.379 . S
C931 N929 1.356 . S
N932 C924 1.356 . S
N932 H938 0.984 . S
N932 H939 0.984 . S
N933 C926 1.366 1_655 S
N933 H936 0.983 1_554 S
N933 H937 0.977 1_654 S
H934 N929 0.984 . S
H935 N929 0.985 . S
H936 N933 0.983 1_556 S
H937 N933 0.977 1_456 S
H938 N932 0.984 . S
H939 N932 0.984 . S
H940 N928 0.984 . S
H941 N928 0.985 . S
C942 C943 1.363 . S
C942 C948 1.379 . S
C942 N950 1.356 . S
C943 C942 1.363 . S
C943 C949 1.363 . S
C944 C945 1.363 . S
C944 C949 1.379 . S
C944 N951 1.356 . S
C945 C944 1.363 . S
C945 C948 1.363 . S
N946 C948 1.356 . S
N946 H958 0.984 . S
N946 H959 0.985 . S
N947 C949 1.356 . S
N947 H952 0.984 . S
N947 H953 0.985 . S
C948 C942 1.379 . S
C948 C945 1.363 . S
C948 N946 1.356 . S
C949 C943 1.363 . S
C949 C944 1.379 . S
C949 N947 1.356 . S
N950 C942 1.356 . S
N950 H956 0.984 . S
N950 H957 0.984 . S
N951 C944 1.356 . S
N951 H954 0.984 . S
N951 H955 0.985 . S
H952 N947 0.984 . S
H953 N947 0.985 . S
H954 N951 0.984 . S
H955 N951 0.985 . S
H956 N950 0.984 . S
H957 N950 0.984 . S
H958 N946 0.984 . S
H959 N946 0.985 . S
C960 C961 1.363 . S
C960 C966 1.379 . S
C960 N968 1.356 . S
C961 C960 1.363 . S
C961 C967 1.363 . S
C962 C963 1.363 . S
C962 C967 1.379 . S
C962 N969 1.356 . S
C963 C962 1.363 . S
C963 C966 1.363 . S
N964 C966 1.356 . S
N964 H976 0.984 . S
N964 H977 0.985 . S
N965 C967 1.356 . S
N965 H970 0.984 . S
N965 H971 0.985 . S
C966 C960 1.379 . S
C966 C963 1.363 . S
C966 N964 1.356 . S
C967 C961 1.363 . S
C967 C962 1.379 . S
C967 N965 1.356 . S
N968 C960 1.356 . S
N968 H974 0.984 . S
N968 H975 0.984 . S
N969 C962 1.356 . S
N969 H972 0.984 . S
N969 H973 0.985 . S
H970 N965 0.984 . S
H971 N965 0.985 . S
H972 N969 0.984 . S
H973 N969 0.985 . S
H974 N968 0.984 . S
H975 N968 0.984 . S
H976 N964 0.984 . S
H977 N964 0.985 . S
C978 C979 1.363 . S
C978 C984 1.379 . S
C978 N986 1.356 . S
C979 C978 1.363 . S
C979 C985 1.363 . S
C980 C981 1.363 . S
C980 C985 1.379 . S
C980 N987 1.356 . S
C981 C980 1.363 . S
C981 C984 1.363 . S
N982 C984 1.356 . S
N982 H994 0.984 . S
N982 H995 0.985 . S
N983 C985 1.356 . S
N983 H988 0.984 . S
N983 H989 0.985 . S
C984 C978 1.379 . S
C984 C981 1.363 . S
C984 N982 1.356 . S
C985 C979 1.363 . S
C985 C980 1.379 . S
C985 N983 1.356 . S
N986 C978 1.356 . S
N986 H992 0.984 . S
N986 H993 0.984 . S
N987 C980 1.356 . S
N987 H990 0.984 . S
N987 H991 0.985 . S
H988 N983 0.984 . S
H989 N983 0.985 . S
H990 N987 0.984 . S
H991 N987 0.985 . S
H992 N986 0.984 . S
H993 N986 0.984 . S
H994 N982 0.984 . S
H995 N982 0.985 . S
C996 C997 1.363 . S
C996 C1002 1.379 . S
C996 N1004 1.356 . S
C997 C996 1.363 . S
C997 C1003 1.363 . S
C998 C999 1.363 . S
C998 C1003 1.379 . S
C998 N1005 1.356 . S
C999 C998 1.363 . S
C999 C1002 1.363 . S
N1000 C1002 1.356 . S
N1000 H1012 0.984 . S
N1000 H1013 0.985 . S
N1001 C1003 1.356 . S
N1001 H1006 0.984 . S
N1001 H1007 0.985 . S
C1002 C996 1.379 . S
C1002 C999 1.363 . S
C1002 N1000 1.356 . S
C1003 C997 1.363 . S
C1003 C998 1.379 . S
C1003 N1001 1.356 . S
N1004 C996 1.356 . S
N1004 H1010 0.984 . S
N1004 H1011 0.984 . S
N1005 C998 1.356 . S
N1005 H1008 0.984 . S
N1005 H1009 0.985 . S
H1006 N1001 0.984 . S
H1007 N1001 0.985 . S
H1008 N1005 0.984 . S
H1009 N1005 0.985 . S
H1010 N1004 0.984 . S
H1011 N1004 0.984 . S
H1012 N1000 0.984 . S
H1013 N1000 0.985 . S
C1014 C1015 1.363 . S
C1014 C1020 1.379 1_655 S
C1014 N1022 1.356 . S
C1015 C1014 1.363 . S
C1015 C1021 1.363 . S
C1016 C1017 1.363 . S
C1016 C1021 1.379 1_455 S
C1016 N1023 1.356 . S
C1017 C1016 1.363 . S
C1017 C1020 1.363 . S
N1018 C1020 1.356 . S
N1018 H1030 0.984 . S
N1018 H1031 0.985 . S
N1019 C1021 1.356 . S
N1019 H1024 0.984 . S
N1019 H1025 0.985 . S
C1020 C1014 1.379 1_455 S
C1020 C1017 1.363 . S
C1020 N1018 1.356 . S
C1021 C1015 1.363 . S
C1021 C1016 1.379 1_655 S
C1021 N1019 1.356 . S
N1022 C1014 1.356 . S
N1022 H1028 0.984 . S
N1022 H1029 0.984 . S
N1023 C1016 1.356 . S
N1023 H1026 0.984 . S
N1023 H1027 0.985 . S
H1024 N1019 0.984 . S
H1025 N1019 0.985 . S
H1026 N1023 0.984 . S
H1027 N1023 0.985 . S
H1028 N1022 0.984 . S
H1029 N1022 0.984 . S
H1030 N1018 0.984 . S
H1031 N1018 0.985 . S
C385 C4 1.539 . S
C387 C356 1.539 . S
C403 C292 1.539 . S
C405 C36 1.539 . S
C421 C93 1.539 . S
C423 C260 1.539 . S
C439 C100 1.539 . S
C441 C324 1.539 . S
C457 C132 1.539 . S
C459 C349 1.539 . S
C475 C189 1.539 . S
C477 C381 1.539 . S
C493 C317 1.539 . S
C495 C196 1.539 . S
C511 C253 1.539 . S
C513 C285 1.539 . S
C529 C125 1.539 . S
C531 C157 1.539 . S
C547 C29 1.539 . S
C549 C164 1.539 . S
C565 C61 1.539 . S
C567 C221 1.539 . S
C583 C228 1.539 . S
C585 C68 1.539 . S
C601 N18 1.416 . S
C603 C262 1.420 . S
C619 N50 1.416 . S
C621 C326 1.420 . S
C637 C358 1.420 . S
C639 N77 1.416 . S
C655 N114 1.416 . S
C657 C294 1.420 . S
C673 N146 1.416 . S
C675 C290 1.420 . S
C691 C258 1.420 . S
C693 N173 1.416 . S
C709 C322 1.420 . S
C711 N210 1.416 . S
C727 C354 1.420 . S
C729 N237 1.416 . S
C745 C2 1.420 . S
C747 N109 1.416 . S
C763 N13 1.416 . S
C765 C34 1.420 . S
C781 N45 1.416 . S
C783 C70 1.420 . S
C799 C98 1.420 . S
C801 N82 1.416 . S
C817 N178 1.416 . S
C819 C130 1.420 . S
C835 C166 1.420 . S
C837 N205 1.416 . S
C853 C194 1.420 . S
C855 N242 1.416 . S
C871 N141 1.416 . S
C873 C230 1.420 . S
C889 N269 1.416 . S
C891 C102 1.420 . S
C907 C162 1.420 . S
C909 N306 1.416 . S
C925 N274 1.416 . S
C927 C198 1.420 . S
C943 N338 1.416 . S
C945 C226 1.420 . S
C961 C134 1.420 . S
C963 N370 1.416 . S
C979 N365 1.416 . S
C981 C38 1.420 . S
C997 C66 1.420 . S
C999 N301 1.416 . S
C1015 N333 1.416 . S
C1017 C6 1.420 . S
