# Generated by pormake.
# Topology upc, (4)-cn, num edge types: 1
# Building blocks:
#     Node 0, Type 0, BuildingBlock: CEKHIL_clean_sbu_0, # of connection points: 4
#     Node 1, Type 0, BuildingBlock: CEKHIL_clean_sbu_0, # of connection points: 4
#     Node 2, Type 0, BuildingBlock: CEKHIL_clean_sbu_0, # of connection points: 4
#     Node 3, Type 0, BuildingBlock: CEKHIL_clean_sbu_0, # of connection points: 4
#     Node 4, Type 0, BuildingBlock: CEKHIL_clean_sbu_0, # of connection points: 4
#     Node 5, Type 0, BuildingBlock: CEKHIL_clean_sbu_0, # of connection points: 4
#     Node 6, Type 0, BuildingBlock: CEKHIL_clean_sbu_0, # of connection points: 4
#     Node 7, Type 0, BuildingBlock: CEKHIL_clean_sbu_0, # of connection points: 4
#     Node 8, Type 0, BuildingBlock: CEKHIL_clean_sbu_0, # of connection points: 4
#     Node 9, Type 0, BuildingBlock: CEKHIL_clean_sbu_0, # of connection points: 4
#     Node 10, Type 0, BuildingBlock: CEKHIL_clean_sbu_0, # of connection points: 4
#     Node 11, Type 0, BuildingBlock: CEKHIL_clean_sbu_0, # of connection points: 4
#     Node 12, Type 0, BuildingBlock: CEKHIL_clean_sbu_0, # of connection points: 4
#     Node 13, Type 0, BuildingBlock: CEKHIL_clean_sbu_0, # of connection points: 4
#     Node 14, Type 0, BuildingBlock: CEKHIL_clean_sbu_0, # of connection points: 4
#     Node 15, Type 0, BuildingBlock: CEKHIL_clean_sbu_0, # of connection points: 4
#     Edge 16, Type (0, 0), BuildingBlock: UVAHIK_clean_linker_0, # of connection points: 2
#     Edge 17, Type (0, 0), BuildingBlock: UVAHIK_clean_linker_0, # of connection points: 2
#     Edge 18, Type (0, 0), BuildingBlock: UVAHIK_clean_linker_0, # of connection points: 2
#     Edge 19, Type (0, 0), BuildingBlock: UVAHIK_clean_linker_0, # of connection points: 2
#     Edge 20, Type (0, 0), BuildingBlock: UVAHIK_clean_linker_0, # of connection points: 2
#     Edge 21, Type (0, 0), BuildingBlock: UVAHIK_clean_linker_0, # of connection points: 2
#     Edge 22, Type (0, 0), BuildingBlock: UVAHIK_clean_linker_0, # of connection points: 2
#     Edge 23, Type (0, 0), BuildingBlock: UVAHIK_clean_linker_0, # of connection points: 2
#     Edge 24, Type (0, 0), BuildingBlock: UVAHIK_clean_linker_0, # of connection points: 2
#     Edge 25, Type (0, 0), BuildingBlock: UVAHIK_clean_linker_0, # of connection points: 2
#     Edge 26, Type (0, 0), BuildingBlock: UVAHIK_clean_linker_0, # of connection points: 2
#     Edge 27, Type (0, 0), BuildingBlock: UVAHIK_clean_linker_0, # of connection points: 2
#     Edge 28, Type (0, 0), BuildingBlock: UVAHIK_clean_linker_0, # of connection points: 2
#     Edge 29, Type (0, 0), BuildingBlock: UVAHIK_clean_linker_0, # of connection points: 2
#     Edge 30, Type (0, 0), BuildingBlock: UVAHIK_clean_linker_0, # of connection points: 2
#     Edge 31, Type (0, 0), BuildingBlock: UVAHIK_clean_linker_0, # of connection points: 2
#     Edge 32, Type (0, 0), BuildingBlock: UVAHIK_clean_linker_0, # of connection points: 2
#     Edge 33, Type (0, 0), BuildingBlock: UVAHIK_clean_linker_0, # of connection points: 2
#     Edge 34, Type (0, 0), BuildingBlock: UVAHIK_clean_linker_0, # of connection points: 2
#     Edge 35, Type (0, 0), BuildingBlock: UVAHIK_clean_linker_0, # of connection points: 2
#     Edge 36, Type (0, 0), BuildingBlock: UVAHIK_clean_linker_0, # of connection points: 2
#     Edge 37, Type (0, 0), BuildingBlock: UVAHIK_clean_linker_0, # of connection points: 2
#     Edge 38, Type (0, 0), BuildingBlock: UVAHIK_clean_linker_0, # of connection points: 2
#     Edge 39, Type (0, 0), BuildingBlock: UVAHIK_clean_linker_0, # of connection points: 2
#     Edge 40, Type (0, 0), BuildingBlock: UVAHIK_clean_linker_0, # of connection points: 2
#     Edge 41, Type (0, 0), BuildingBlock: UVAHIK_clean_linker_0, # of connection points: 2
#     Edge 42, Type (0, 0), BuildingBlock: UVAHIK_clean_linker_0, # of connection points: 2
#     Edge 43, Type (0, 0), BuildingBlock: UVAHIK_clean_linker_0, # of connection points: 2
#     Edge 44, Type (0, 0), BuildingBlock: UVAHIK_clean_linker_0, # of connection points: 2
#     Edge 45, Type (0, 0), BuildingBlock: UVAHIK_clean_linker_0, # of connection points: 2
#     Edge 46, Type (0, 0), BuildingBlock: UVAHIK_clean_linker_0, # of connection points: 2
#     Edge 47, Type (0, 0), BuildingBlock: UVAHIK_clean_linker_0, # of connection points: 2
# Relax obj value: 0.268
# Max RMSD: 0.292
# Mean RMSD: 0.292
data_MOF--net-upc--node1-CEKHIL_clean_sbu_0--edge1-UVAHIK_clean_linker_0
_symmetry_space_group_name_H-M    P1
_symmetry_Int_Tables_number       1
_symmetry_cell_setting            triclinic
loop_
_symmetry_equiv_pos_as_xyz
'x, y, z'
_cell_length_a     42.860912
_cell_length_b     42.856672
_cell_length_c     55.139259
_cell_angle_alpha  90.005228
_cell_angle_beta   89.998119
_cell_angle_gamma 89.999176
loop_
_atom_site_label
_atom_site_type_symbol
_atom_site_fract_x
_atom_site_fract_y
_atom_site_fract_z
_atom_type_partial_charge
Co0 Co 0.06504 0.64652 0.12229 0.0
O1 O 0.07882 0.61179 0.10311 0.0
O2 O 0.03037 0.62998 0.10423 0.0
C3 C 0.10562 0.67733 0.1125 0.0
O4 O 0.04186 0.68161 0.13933 0.0
Co5 Co 0.10419 0.67271 0.1649 0.0
O6 O 0.07422 0.70791 0.16387 0.0
C7 C 0.06719 0.61496 0.17161 0.0
C8 C 0.05019 0.6099 0.09555 0.0
C9 C 0.04771 0.70437 0.1538 0.0
O10 O 0.0556 0.6179 0.15021 0.0
O11 O 0.08809 0.63327 0.18021 0.0
O12 O 0.08173 0.67543 0.09804 0.0
O13 O 0.10482 0.65962 0.13139 0.0
Co14 Co 0.85088 0.06714 0.11966 0.0
O15 O 0.88562 0.07994 0.1001 0.0
O16 O 0.86692 0.03174 0.10215 0.0
C17 C 0.82042 0.1078 0.10926 0.0
O18 O 0.81564 0.04489 0.13724 0.0
Co19 Co 0.82539 0.10805 0.1616 0.0
O20 O 0.79017 0.07806 0.1617 0.0
C21 C 0.8831 0.071 0.16863 0.0
C22 C 0.88715 0.05108 0.09304 0.0
C23 C 0.79323 0.05131 0.1519 0.0
O24 O 0.87957 0.05825 0.14768 0.0
O25 O 0.86526 0.09267 0.17666 0.0
O26 O 0.82196 0.08347 0.09522 0.0
O27 O 0.83826 0.10731 0.12807 0.0
Co28 Co 0.43474 0.85486 0.11731 0.0
O29 O 0.42077 0.88843 0.09702 0.0
O30 O 0.46986 0.87258 0.10056 0.0
C31 C 0.39701 0.82133 0.10651 0.0
O32 O 0.45815 0.82118 0.13583 0.0
Co33 Co 0.39368 0.82874 0.15891 0.0
O34 O 0.42482 0.7945 0.15937 0.0
C35 C 0.42816 0.8878 0.16604 0.0
C36 C 0.4498 0.8915 0.09072 0.0
C37 C 0.45184 0.79849 0.15026 0.0
O38 O 0.44096 0.88459 0.14509 0.0
O39 O 0.40748 0.86901 0.17432 0.0
O40 O 0.4215 0.82461 0.09286 0.0
O41 O 0.39508 0.83979 0.12494 0.0
Co42 Co 0.64342 0.43666 0.11292 0.0
O43 O 0.60959 0.42253 0.0929 0.0
O44 O 0.62527 0.47169 0.09643 0.0
C45 C 0.67691 0.39906 0.10173 0.0
O46 O 0.67701 0.46045 0.13113 0.0
Co47 Co 0.67165 0.39655 0.15414 0.0
O48 O 0.7061 0.4275 0.15313 0.0
C49 C 0.61221 0.4303 0.16226 0.0
C50 C 0.60634 0.45159 0.08668 0.0
C51 C 0.70081 0.45452 0.14448 0.0
O52 O 0.61421 0.44262 0.14104 0.0
O53 O 0.63185 0.4103 0.17037 0.0
O54 O 0.6733 0.42357 0.08815 0.0
O55 O 0.65898 0.39712 0.12048 0.0
Co56 Co 0.06649 0.85393 0.37756 0.0
O57 O 0.07922 0.88831 0.39757 0.0
O58 O 0.03139 0.86861 0.39608 0.0
C59 C 0.10804 0.8239 0.38641 0.0
O60 O 0.04434 0.8188 0.35974 0.0
Co61 Co 0.10625 0.83064 0.3342 0.0
O62 O 0.07722 0.79463 0.3343 0.0
C63 C 0.06763 0.88761 0.32907 0.0
C64 C 0.05056 0.88898 0.40521 0.0
C65 C 0.05074 0.79688 0.34465 0.0
O66 O 0.05605 0.88336 0.35035 0.0
O67 O 0.08911 0.87034 0.32006 0.0
O68 O 0.08424 0.82455 0.40103 0.0
O69 O 0.10659 0.84239 0.36801 0.0
Co70 Co 0.64047 0.06242 0.37839 0.0
O71 O 0.60659 0.07515 0.39886 0.0
O72 O 0.62351 0.02651 0.39462 0.0
C73 C 0.67318 0.10063 0.3899 0.0
O74 O 0.67463 0.04017 0.35958 0.0
Co75 Co 0.66609 0.10515 0.33761 0.0
O76 O 0.70058 0.07432 0.33626 0.0
C77 C 0.60752 0.06993 0.32981 0.0
C78 C 0.60424 0.04592 0.40482 0.0
C79 C 0.69705 0.04706 0.34506 0.0
O80 O 0.61098 0.05629 0.35042 0.0
O81 O 0.62583 0.09142 0.32216 0.0
O82 O 0.67039 0.07568 0.40311 0.0
O83 O 0.65476 0.10261 0.37145 0.0
Co84 Co 0.43647 0.64037 0.37627 0.0
O85 O 0.42368 0.6066 0.39682 0.0
O86 O 0.47229 0.62367 0.3928 0.0
C87 C 0.39804 0.67303 0.3874 0.0
O88 O 0.45871 0.67453 0.35745 0.0
Co89 Co 0.3939 0.66541 0.33514 0.0
O90 O 0.42451 0.70011 0.33391 0.0
C91 C 0.42952 0.60698 0.32781 0.0
C92 C 0.45284 0.60442 0.40298 0.0
C93 C 0.45172 0.69685 0.34287 0.0
O94 O 0.44302 0.6107 0.34845 0.0
O95 O 0.40793 0.62508 0.32 0.0
O96 O 0.42284 0.67042 0.40079 0.0
O97 O 0.3963 0.65444 0.36905 0.0
Co98 Co 0.85049 0.43315 0.38109 0.0
O99 O 0.88439 0.4217 0.40202 0.0
O100 O 0.86428 0.46924 0.39884 0.0
C101 C 0.82065 0.39164 0.39052 0.0
O102 O 0.81589 0.45427 0.36207 0.0
Co103 Co 0.82815 0.39136 0.33854 0.0
O104 O 0.79246 0.42073 0.33675 0.0
C105 C 0.88522 0.43001 0.33317 0.0
C106 C 0.88455 0.45072 0.40885 0.0
C107 C 0.79464 0.44759 0.34649 0.0
O108 O 0.8805 0.44268 0.35402 0.0
O109 O 0.86828 0.40788 0.32471 0.0
O110 O 0.82062 0.41603 0.40455 0.0
O111 O 0.83954 0.3926 0.37237 0.0
Co112 Co 0.93248 0.36609 0.88113 0.0
O113 O 0.92292 0.39969 0.90277 0.0
O114 O 0.96981 0.37865 0.89803 0.0
C115 C 0.8909 0.33705 0.89184 0.0
O116 O 0.95137 0.33111 0.86109 0.0
Co117 Co 0.8874 0.3465 0.83996 0.0
O118 O 0.91484 0.30936 0.83738 0.0
C119 C 0.92801 0.402 0.83372 0.0
C120 C 0.95213 0.39896 0.90892 0.0
C121 C 0.94237 0.31004 0.84607 0.0
O122 O 0.9414 0.39646 0.85417 0.0
O123 O 0.90489 0.38604 0.82574 0.0
O124 O 0.91631 0.33603 0.90468 0.0
O125 O 0.89097 0.35647 0.87398 0.0
Co126 Co 0.14184 0.93449 0.88519 0.0
O127 O 0.10836 0.92311 0.90647 0.0
O128 O 0.12791 0.9708 0.90274 0.0
C129 C 0.17226 0.89348 0.89481 0.0
O130 O 0.17608 0.95519 0.86548 0.0
Co131 Co 0.1628 0.89117 0.84297 0.0
O132 O 0.19892 0.92005 0.8411 0.0
C133 C 0.1056 0.92947 0.83801 0.0
C134 C 0.10794 0.95219 0.91304 0.0
C135 C 0.19717 0.9474 0.85007 0.0
O136 O 0.11142 0.94333 0.85823 0.0
O137 O 0.12181 0.90658 0.82992 0.0
O138 O 0.17223 0.91806 0.90863 0.0
O139 O 0.15288 0.89389 0.87697 0.0
Co140 Co 0.56837 0.13846 0.87869 0.0
O141 O 0.57849 0.10443 0.89981 0.0
O142 O 0.53144 0.12541 0.8958 0.0
C143 C 0.61001 0.16748 0.88926 0.0
O144 O 0.54876 0.17369 0.85939 0.0
Co145 Co 0.61202 0.15928 0.8371 0.0
O146 O 0.58412 0.19612 0.83505 0.0
C147 C 0.57123 0.10407 0.83051 0.0
C148 C 0.54934 0.10491 0.90622 0.0
C149 C 0.5569 0.19498 0.84428 0.0
O150 O 0.55898 0.10866 0.85151 0.0
O151 O 0.59371 0.12057 0.82211 0.0
O152 O 0.58484 0.16805 0.9024 0.0
O153 O 0.60973 0.14849 0.87109 0.0
Co154 Co 0.3467 0.56119 0.88071 0.0
O155 O 0.38037 0.5745 0.90121 0.0
O156 O 0.36377 0.52569 0.89733 0.0
C157 C 0.31382 0.59949 0.89167 0.0
O158 O 0.31306 0.53816 0.86199 0.0
Co159 Co 0.32048 0.60223 0.83929 0.0
O160 O 0.28643 0.57092 0.83804 0.0
C161 C 0.37925 0.56711 0.83185 0.0
C162 C 0.38292 0.54534 0.90736 0.0
C163 C 0.2907 0.54396 0.84716 0.0
O164 O 0.37641 0.55469 0.85297 0.0
O165 O 0.36037 0.58772 0.82358 0.0
O166 O 0.31658 0.57475 0.90513 0.0
O167 O 0.33217 0.60116 0.87315 0.0
Co168 Co 0.93249 0.13708 0.61744 0.0
O169 O 0.92176 0.10313 0.5964 0.0
O170 O 0.96893 0.12404 0.59962 0.0
C171 C 0.89061 0.16645 0.60807 0.0
O172 O 0.95242 0.17222 0.63671 0.0
Co173 Co 0.88914 0.15679 0.66 0.0
O174 O 0.91704 0.19369 0.66169 0.0
C175 C 0.92895 0.10067 0.66464 0.0
C176 C 0.95073 0.1035 0.58954 0.0
C177 C 0.9441 0.19312 0.65211 0.0
O178 O 0.94256 0.10707 0.64443 0.0
O179 O 0.9056 0.11609 0.67283 0.0
O180 O 0.915 0.16688 0.59406 0.0
O181 O 0.89167 0.1471 0.62593 0.0
Co182 Co 0.35365 0.92978 0.61527 0.0
O183 O 0.38983 0.91864 0.59669 0.0
O184 O 0.36845 0.96577 0.5979 0.0
C185 C 0.32596 0.88736 0.60439 0.0
O186 O 0.31665 0.95043 0.63169 0.0
Co187 Co 0.32739 0.88865 0.65666 0.0
O188 O 0.28992 0.9156 0.65372 0.0
C189 C 0.38289 0.92869 0.66538 0.0
C190 C 0.38998 0.94744 0.58937 0.0
C191 C 0.29289 0.94266 0.64451 0.0
O192 O 0.38053 0.94048 0.64398 0.0
O193 O 0.36517 0.90675 0.67316 0.0
O194 O 0.32674 0.9116 0.59023 0.0
O195 O 0.34274 0.88909 0.62375 0.0
Co196 Co 0.56493 0.36005 0.61905 0.0
O197 O 0.57713 0.39448 0.59897 0.0
O198 O 0.52902 0.37574 0.60208 0.0
C199 C 0.60474 0.3288 0.60829 0.0
O200 O 0.54335 0.32495 0.63725 0.0
Co201 Co 0.6071 0.33573 0.66066 0.0
O202 O 0.57792 0.29979 0.66071 0.0
C203 C 0.56891 0.39254 0.66811 0.0
C204 C 0.54808 0.39574 0.59233 0.0
C205 C 0.55076 0.30246 0.65153 0.0
O206 O 0.55657 0.38906 0.64701 0.0
O207 O 0.59068 0.3749 0.67623 0.0
O208 O 0.58019 0.33079 0.59456 0.0
O209 O 0.60539 0.34719 0.62682 0.0
Co210 Co 0.14229 0.56378 0.61506 0.0
O211 O 0.10817 0.57837 0.59545 0.0
O212 O 0.12246 0.52889 0.59962 0.0
C213 C 0.17666 0.59985 0.60245 0.0
O214 O 0.17572 0.53935 0.63293 0.0
Co215 Co 0.17356 0.60396 0.65489 0.0
O216 O 0.20656 0.57148 0.65422 0.0
C217 C 0.11351 0.57223 0.66508 0.0
C218 C 0.10386 0.54923 0.58982 0.0
C219 C 0.19998 0.54453 0.64598 0.0
O220 O 0.114 0.55958 0.64393 0.0
O221 O 0.13421 0.59164 0.67243 0.0
O222 O 0.17166 0.57509 0.58941 0.0
O223 O 0.15952 0.60299 0.62155 0.0
C224 C 0.14108 0.70369 0.08257 0.0
C225 C 0.13418 0.69479 0.10653 0.0
C226 C 0.17086 0.71493 0.07668 0.0
C227 C 0.25109 0.70886 0.09924 0.0
H228 H 0.26848 0.78597 0.06508 0.0
C229 C 0.35398 0.78687 0.11986 0.0
C230 C 0.37176 0.79935 0.10088 0.0
C231 C 0.32761 0.76906 0.1149 0.0
C232 C 0.26397 0.76397 0.07409 0.0
H233 H 0.15189 0.69297 0.14334 0.0
H234 H 0.20323 0.71286 0.13321 0.0
H235 H 0.21472 0.76633 0.0671 0.0
H236 H 0.3766 0.8027 0.06185 0.0
H237 H 0.32928 0.7721 0.0531 0.0
H238 H 0.2998 0.70744 0.10757 0.0
C239 C 0.18617 0.71035 0.11884 0.0
C240 C 0.23329 0.75282 0.07531 0.0
C241 C 0.15667 0.6992 0.12467 0.0
C242 C 0.36328 0.79303 0.07676 0.0
C243 C 0.33628 0.77576 0.07176 0.0
C244 C 0.28154 0.72001 0.09812 0.0
C245 C 0.19394 0.71726 0.0947 0.0
C246 C 0.22648 0.72595 0.08888 0.0
C247 C 0.31814 0.76394 0.09086 0.0
C248 C 0.28801 0.74832 0.08644 0.0
H249 H 0.12409 0.70046 0.06825 0.0
H250 H 0.17626 0.72043 0.05798 0.0
H251 H 0.24653 0.68763 0.10932 0.0
H252 H 0.36008 0.79142 0.13859 0.0
H253 H 0.31379 0.76044 0.12993 0.0
C254 C 0.79335 0.14246 0.07911 0.0
C255 C 0.80301 0.13631 0.10301 0.0
C256 C 0.782 0.1721 0.07287 0.0
C257 C 0.78911 0.25303 0.09362 0.0
H258 H 0.71046 0.26955 0.06137 0.0
C259 C 0.71218 0.35653 0.11472 0.0
C260 C 0.69879 0.37382 0.09584 0.0
C261 C 0.72975 0.33003 0.10966 0.0
C262 C 0.73288 0.26527 0.06982 0.0
H263 H 0.80614 0.15525 0.13941 0.0
H264 H 0.78614 0.20632 0.12866 0.0
H265 H 0.73012 0.21582 0.06382 0.0
H266 H 0.69356 0.37764 0.05687 0.0
H267 H 0.72377 0.33009 0.04798 0.0
H268 H 0.79098 0.30198 0.10103 0.0
C269 C 0.78809 0.18878 0.11459 0.0
C270 C 0.74403 0.23461 0.07128 0.0
C271 C 0.79931 0.15943 0.12078 0.0
C272 C 0.70397 0.36473 0.07169 0.0
C273 C 0.721 0.33758 0.06662 0.0
C274 C 0.77796 0.28347 0.09226 0.0
C275 C 0.78035 0.19578 0.09047 0.0
C276 C 0.77152 0.22815 0.08421 0.0
C277 C 0.73374 0.31992 0.08565 0.0
C278 C 0.74913 0.28965 0.08128 0.0
H279 H 0.796 0.12498 0.06508 0.0
H280 H 0.77585 0.1769 0.05418 0.0
H281 H 0.81076 0.24872 0.1032 0.0
H282 H 0.70848 0.36308 0.13347 0.0
H283 H 0.73908 0.3166 0.12466 0.0
C284 C 0.14418 0.79582 0.41489 0.0
C285 C 0.13677 0.80618 0.39139 0.0
C286 C 0.17391 0.78372 0.41987 0.0
C287 C 0.25379 0.78789 0.39545 0.0
H288 H 0.26942 0.71026 0.42943 0.0
C289 C 0.35419 0.70652 0.37405 0.0
C290 C 0.37257 0.69482 0.39299 0.0
C291 C 0.32799 0.72457 0.37905 0.0
C292 C 0.26541 0.73237 0.42042 0.0
H293 H 0.15355 0.80994 0.35441 0.0
H294 H 0.20469 0.78842 0.3629 0.0
H295 H 0.21635 0.73176 0.42829 0.0
H296 H 0.37851 0.69297 0.43199 0.0
H297 H 0.33148 0.72399 0.44084 0.0
H298 H 0.30228 0.78751 0.38625 0.0
C299 C 0.18815 0.7905 0.37767 0.0
C300 C 0.23512 0.7446 0.41972 0.0
C301 C 0.15874 0.80257 0.37276 0.0
C302 C 0.36473 0.70201 0.4171 0.0
C303 C 0.33789 0.71951 0.42216 0.0
C304 C 0.28384 0.7756 0.39601 0.0
C305 C 0.19645 0.78191 0.40138 0.0
C306 C 0.22887 0.77176 0.4063 0.0
C307 C 0.31928 0.73071 0.40311 0.0
C308 C 0.28964 0.74716 0.40769 0.0
H309 H 0.1276 0.79841 0.42958 0.0
H310 H 0.17965 0.777 0.43827 0.0
H311 H 0.24978 0.80934 0.38553 0.0
H312 H 0.35977 0.70132 0.35532 0.0
H313 H 0.3138 0.73275 0.36408 0.0
C314 C 0.79279 0.35556 0.41923 0.0
C315 C 0.80295 0.36295 0.39568 0.0
C316 C 0.781 0.32571 0.42433 0.0
C317 C 0.78646 0.24584 0.40023 0.0
H318 H 0.70829 0.22907 0.4331 0.0
C319 C 0.70668 0.1448 0.37723 0.0
C320 C 0.69473 0.12612 0.39591 0.0
C321 C 0.72438 0.17111 0.38263 0.0
C322 C 0.73054 0.2334 0.42442 0.0
H323 H 0.80661 0.34601 0.35872 0.0
H324 H 0.78569 0.29472 0.36742 0.0
H325 H 0.72912 0.28245 0.43237 0.0
H326 H 0.69208 0.11978 0.43485 0.0
H327 H 0.72248 0.167 0.44439 0.0
H328 H 0.7869 0.19739 0.39089 0.0
C329 C 0.78766 0.31136 0.38215 0.0
C330 C 0.74239 0.26386 0.42395 0.0
C331 C 0.79939 0.34086 0.37712 0.0
C332 C 0.70133 0.13378 0.42016 0.0
C333 C 0.71848 0.16072 0.42561 0.0
C334 C 0.77456 0.21563 0.40055 0.0
C335 C 0.77935 0.30307 0.40591 0.0
C336 C 0.76974 0.27051 0.41089 0.0
C337 C 0.72991 0.17964 0.40683 0.0
C338 C 0.74592 0.20941 0.4118 0.0
H339 H 0.79537 0.37222 0.43387 0.0
H340 H 0.77446 0.31995 0.44276 0.0
H341 H 0.80802 0.2502 0.39055 0.0
H342 H 0.70192 0.13936 0.35841 0.0
H343 H 0.73274 0.18554 0.36786 0.0
C344 C 0.86301 0.29595 0.91607 0.0
C345 C 0.86272 0.31892 0.89788 0.0
C346 C 0.83568 0.27957 0.92176 0.0
C347 C 0.77949 0.2356 0.9143 0.0
H348 H 0.70015 0.27928 0.91533 0.0
C349 C 0.66605 0.17973 0.88269 0.0
C350 C 0.63833 0.18523 0.89556 0.0
C351 C 0.69345 0.19517 0.88898 0.0
C352 C 0.7221 0.26675 0.91555 0.0
H353 H 0.83371 0.34294 0.87157 0.0
H354 H 0.78641 0.31456 0.88147 0.0
H355 H 0.74878 0.30897 0.91621 0.0
H356 H 0.61745 0.21131 0.92509 0.0
H357 H 0.66562 0.23905 0.93582 0.0
H358 H 0.7528 0.19342 0.91262 0.0
C359 C 0.80751 0.30934 0.89151 0.0
C360 C 0.7499 0.28372 0.91587 0.0
C361 C 0.83472 0.32535 0.88566 0.0
C362 C 0.6385 0.20671 0.91482 0.0
C363 C 0.66599 0.22249 0.92098 0.0
C364 C 0.75169 0.21863 0.91383 0.0
C365 C 0.80765 0.2863 0.90959 0.0
C366 C 0.77881 0.26834 0.91431 0.0
C367 C 0.69376 0.21667 0.90818 0.0
C368 C 0.72276 0.23411 0.91353 0.0
H369 H 0.8843 0.29059 0.9258 0.0
H370 H 0.83639 0.2618 0.93572 0.0
H371 H 0.80144 0.22316 0.91307 0.0
H372 H 0.6667 0.16329 0.86777 0.0
H373 H 0.71432 0.19071 0.87845 0.0
C374 C 0.28149 0.64465 0.8793 0.0
C375 C 0.29304 0.62556 0.89787 0.0
C376 C 0.26488 0.67161 0.88486 0.0
C377 C 0.26104 0.73387 0.92726 0.0
H378 H 0.18456 0.75383 0.89306 0.0
C379 C 0.19994 0.85718 0.92342 0.0
C380 C 0.19073 0.86524 0.89976 0.0
C381 C 0.21181 0.82727 0.92821 0.0
C382 C 0.20584 0.74856 0.90285 0.0
H383 H 0.29609 0.61915 0.93678 0.0
H384 H 0.26753 0.66739 0.94659 0.0
H385 H 0.20391 0.70036 0.89294 0.0
H386 H 0.18924 0.84973 0.86235 0.0
H387 H 0.21026 0.79832 0.87056 0.0
H388 H 0.26383 0.78271 0.93589 0.0
C389 C 0.27102 0.661 0.92778 0.0
C390 C 0.21675 0.71799 0.90288 0.0
C391 C 0.28709 0.63345 0.92217 0.0
C392 C 0.19565 0.84399 0.88082 0.0
C393 C 0.20748 0.81445 0.88554 0.0
C394 C 0.25014 0.7647 0.92712 0.0
C395 C 0.26002 0.68035 0.9091 0.0
C396 C 0.24505 0.71063 0.91424 0.0
C397 C 0.2145 0.80533 0.90936 0.0
C398 C 0.22317 0.77245 0.91397 0.0
H399 H 0.28581 0.63906 0.86044 0.0
H400 H 0.25684 0.68634 0.87015 0.0
H401 H 0.28303 0.72865 0.93605 0.0
H402 H 0.1963 0.87322 0.93833 0.0
H403 H 0.21738 0.82082 0.9467 0.0
C404 C 0.63819 0.299 0.57914 0.0
C405 C 0.63079 0.30751 0.60308 0.0
C406 C 0.66491 0.2812 0.57434 0.0
C407 C 0.71699 0.2245 0.60069 0.0
H408 H 0.78673 0.26476 0.56848 0.0
C409 C 0.84047 0.18848 0.62231 0.0
C410 C 0.86234 0.18512 0.60358 0.0
C411 C 0.8117 0.20229 0.61791 0.0
C412 C 0.76731 0.25291 0.57704 0.0
H413 H 0.64453 0.30327 0.64076 0.0
H414 H 0.69031 0.27127 0.63248 0.0
H415 H 0.73494 0.28925 0.56763 0.0
H416 H 0.87195 0.19484 0.56575 0.0
H417 H 0.82094 0.21909 0.55788 0.0
H418 H 0.74899 0.18858 0.61064 0.0
C419 C 0.67584 0.27874 0.61744 0.0
C420 C 0.73777 0.26688 0.57652 0.0
C421 C 0.64974 0.29708 0.62216 0.0
C422 C 0.85544 0.1972 0.5805 0.0
C423 C 0.8263 0.21096 0.576 0.0
C424 C 0.74626 0.21043 0.60099 0.0
C425 C 0.68388 0.27103 0.59352 0.0
C426 C 0.71278 0.2533 0.58915 0.0
C427 C 0.80385 0.21281 0.59457 0.0
C428 C 0.77204 0.22516 0.59014 0.0
H429 H 0.62398 0.307 0.56413 0.0
H430 H 0.67082 0.27545 0.55577 0.0
H431 H 0.69791 0.21356 0.61039 0.0
H432 H 0.84528 0.17982 0.64038 0.0
H433 H 0.79535 0.20434 0.63281 0.0
C434 C 0.21409 0.64132 0.61386 0.0
C435 C 0.19929 0.62403 0.59562 0.0
C436 C 0.23261 0.66686 0.60791 0.0
C437 C 0.23666 0.73029 0.56709 0.0
H438 H 0.31676 0.74445 0.59786 0.0
C439 C 0.29902 0.85202 0.57454 0.0
C440 C 0.30979 0.85808 0.59817 0.0
C441 C 0.28774 0.82229 0.56844 0.0
C442 C 0.2945 0.7408 0.58899 0.0
H443 H 0.19252 0.61921 0.55686 0.0
H444 H 0.22436 0.66514 0.54641 0.0
H445 H 0.29487 0.69194 0.59692 0.0
H446 H 0.31548 0.83856 0.63421 0.0
H447 H 0.29564 0.78741 0.62374 0.0
H448 H 0.23534 0.7797 0.56072 0.0
C449 C 0.22198 0.65835 0.56524 0.0
C450 C 0.28214 0.71078 0.58833 0.0
C451 C 0.20399 0.63213 0.5712 0.0
C452 C 0.30774 0.83454 0.61577 0.0
C453 C 0.29662 0.8051 0.60972 0.0
C454 C 0.249 0.76054 0.56789 0.0
C455 C 0.23615 0.67602 0.58363 0.0
C456 C 0.25254 0.70552 0.57834 0.0
C457 C 0.28731 0.79836 0.58589 0.0
C458 C 0.27733 0.7662 0.57992 0.0
H459 H 0.21081 0.63551 0.63281 0.0
H460 H 0.24306 0.68034 0.62243 0.0
H461 H 0.21368 0.72673 0.5594 0.0
H462 H 0.30039 0.86979 0.56062 0.0
H463 H 0.28039 0.81771 0.54999 0.0
C464 C 0.92997 0.46665 0.32569 0.0
C465 C 0.9099 0.44302 0.31731 0.0
C466 C 0.95093 0.48112 0.30984 0.0
C467 C 0.95865 0.5001 0.24579 0.0
H468 H 0.04413 0.52117 0.26193 0.0
C469 C 0.03587 0.5663 0.17809 0.0
C470 C 0.05438 0.59041 0.18763 0.0
C471 C 0.0215 0.54478 0.19349 0.0
C472 C 0.02023 0.51568 0.25723 0.0
H473 H 0.89716 0.41523 0.28584 0.0
H474 H 0.93355 0.44061 0.25836 0.0
H475 H 0.01306 0.49015 0.29022 0.0
H476 H 0.07298 0.61032 0.22083 0.0
H477 H 0.04728 0.57343 0.24764 0.0
H478 H 0.9651 0.52643 0.21334 0.0
C479 C 0.93288 0.44802 0.27714 0.0
C480 C 0.00252 0.49786 0.27341 0.0
C481 C 0.91214 0.43341 0.29296 0.0
C482 C 0.05899 0.59194 0.21285 0.0
C483 C 0.04436 0.57064 0.22825 0.0
C484 C 0.9762 0.51812 0.22976 0.0
C485 C 0.95203 0.47241 0.28529 0.0
C486 C 0.97152 0.49004 0.26786 0.0
C487 C 0.02502 0.5471 0.2188 0.0
C488 C 0.00716 0.5263 0.23531 0.0
H489 H 0.92895 0.47457 0.34433 0.0
H490 H 0.96534 0.5 0.31657 0.0
H491 H 0.93463 0.49485 0.24124 0.0
H492 H 0.0321 0.56427 0.15873 0.0
H493 H 0.0073 0.52656 0.18554 0.0
C494 C 0.90843 0.06774 0.20948 0.0
C495 C 0.90762 0.0587 0.18496 0.0
C496 C 0.92931 0.05376 0.22556 0.0
C497 C 0.00128 0.00728 0.22988 0.0
H498 H 0.96337 0.97476 0.28852 0.0
C499 C 0.05943 0.91243 0.28849 0.0
C500 C 0.05421 0.91247 0.31366 0.0
C501 C 0.04444 0.93402 0.27355 0.0
C502 C 0.97458 0.9842 0.27253 0.0
H503 H 0.9293 0.02892 0.15791 0.0
H504 H 0.96585 0.00462 0.18608 0.0
H505 H 0.93241 0.00619 0.26084 0.0
H506 H 0.03034 0.93628 0.34302 0.0
H507 H 0.00485 0.97452 0.31703 0.0
H508 H 0.04347 0.98519 0.24152 0.0
C509 C 0.95025 0.02254 0.19278 0.0
C510 C 0.95676 0.00215 0.25662 0.0
C511 C 0.92918 0.03635 0.17668 0.0
C512 C 0.03463 0.93541 0.32367 0.0
C513 C 0.01988 0.95722 0.30874 0.0
C514 C 0.01924 0.98955 0.24593 0.0
C515 C 0.95002 0.03064 0.21746 0.0
C516 C 0.96981 0.01354 0.235 0.0
C517 C 0.0241 0.95639 0.28345 0.0
C518 C 0.00597 0.97743 0.2673 0.0
H519 H 0.89226 0.08493 0.21651 0.0
H520 H 0.9289 0.06068 0.24446 0.0
H521 H 0.01197 0.01606 0.21344 0.0
H522 H 0.07423 0.89499 0.28014 0.0
H523 H 0.04791 0.93235 0.25414 0.0
C524 C 0.56106 0.036 0.3212 0.0
C525 C 0.58263 0.0586 0.31334 0.0
C526 C 0.53997 0.02267 0.30488 0.0
C527 C 0.53369 0.0044 0.24053 0.0
H528 H 0.44771 0.98417 0.25576 0.0
C529 C 0.45788 0.93745 0.17243 0.0
C530 C 0.43956 0.91317 0.18196 0.0
C531 C 0.47155 0.95945 0.18779 0.0
C532 C 0.47174 0.98948 0.2513 0.0
H533 H 0.59783 0.0859 0.28232 0.0
H534 H 0.56108 0.06256 0.25396 0.0
H535 H 0.47853 0.01508 0.2843 0.0
H536 H 0.42034 0.89365 0.21507 0.0
H537 H 0.4448 0.9315 0.24186 0.0
H538 H 0.52758 0.97795 0.20809 0.0
C539 C 0.56073 0.05502 0.27271 0.0
C540 C 0.48932 0.00723 0.26761 0.0
C541 C 0.58167 0.0685 0.28903 0.0
C542 C 0.43421 0.91213 0.2071 0.0
C543 C 0.44815 0.93396 0.22249 0.0
C544 C 0.51624 0.98649 0.22434 0.0
C545 C 0.54012 0.03151 0.28035 0.0
C546 C 0.52056 0.01465 0.26247 0.0
C547 C 0.46752 0.95751 0.21306 0.0
C548 C 0.48513 0.97855 0.22959 0.0
H549 H 0.56105 0.02789 0.33981 0.0
H550 H 0.5245 0.00445 0.31125 0.0
H551 H 0.55788 0.00926 0.23626 0.0
H552 H 0.46219 0.93914 0.15312 0.0
H553 H 0.48576 0.97768 0.17986 0.0
C554 C 0.58927 0.43653 0.2038 0.0
C555 C 0.58721 0.44145 0.17865 0.0
C556 C 0.56767 0.45018 0.21954 0.0
C557 C 0.51342 0.5169 0.222 0.0
H558 H 0.48744 0.47901 0.2826 0.0
C559 C 0.43089 0.58057 0.28725 0.0
C560 C 0.44118 0.58212 0.31145 0.0
C561 C 0.44467 0.55982 0.27094 0.0
C562 C 0.49456 0.48985 0.26574 0.0
H563 H 0.55971 0.46308 0.1502 0.0
H564 H 0.52159 0.48614 0.17756 0.0
H565 H 0.51853 0.4488 0.25378 0.0
H566 H 0.47292 0.56172 0.33774 0.0
H567 H 0.49693 0.52552 0.30919 0.0
H568 H 0.48973 0.55797 0.234 0.0
C569 C 0.54042 0.47248 0.18522 0.0
C570 C 0.51242 0.47262 0.24926 0.0
C571 C 0.56219 0.45909 0.1695 0.0
C572 C 0.46449 0.56127 0.31922 0.0
C573 C 0.47815 0.54038 0.3029 0.0
C574 C 0.49542 0.53399 0.23835 0.0
C575 C 0.54333 0.46884 0.21047 0.0
C576 C 0.52237 0.48607 0.2273 0.0
C577 C 0.46892 0.54001 0.27846 0.0
C578 C 0.48607 0.52079 0.2605 0.0
H579 H 0.60833 0.42319 0.21148 0.0
H580 H 0.57087 0.44715 0.23888 0.0
H581 H 0.52119 0.5283 0.20554 0.0
H582 H 0.41291 0.59613 0.28061 0.0
H583 H 0.4368 0.55973 0.25227 0.0
C584 C 0.09319 0.56622 0.70744 0.0
C585 C 0.08912 0.56202 0.68235 0.0
C586 C 0.07215 0.55315 0.72392 0.0
C587 C 0.01482 0.48903 0.72766 0.0
H588 H 0.99479 0.52636 0.78983 0.0
C589 C 0.93038 0.42982 0.79381 0.0
C590 C 0.94142 0.42632 0.81768 0.0
C591 C 0.94536 0.44988 0.77764 0.0
C592 C 0.00028 0.51568 0.77254 0.0
H593 H 0.05869 0.5424 0.65485 0.0
H594 H 0.0215 0.52046 0.68351 0.0
H595 H 0.02592 0.55563 0.76043 0.0
H596 H 0.97597 0.44256 0.84359 0.0
H597 H 0.00204 0.4777 0.81525 0.0
H598 H 0.9893 0.44911 0.73975 0.0
C599 C 0.04148 0.53302 0.69053 0.0
C600 C 0.01815 0.53237 0.75573 0.0
C601 C 0.0627 0.54578 0.67407 0.0
C602 C 0.96689 0.44458 0.82532 0.0
C603 C 0.98176 0.46483 0.80914 0.0
C604 C 0.99678 0.47252 0.74434 0.0
C605 C 0.04637 0.53583 0.71567 0.0
C606 C 0.02583 0.51913 0.73313 0.0
C607 C 0.97159 0.46708 0.78497 0.0
C608 C 0.98949 0.48556 0.76701 0.0
H609 H 0.11339 0.57845 0.71445 0.0
H610 H 0.07688 0.55551 0.74312 0.0
H611 H 0.02086 0.47774 0.71073 0.0
H612 H 0.91077 0.41629 0.78727 0.0
H613 H 0.93677 0.45149 0.7592 0.0
C614 C 0.06972 0.92455 0.80239 0.0
C615 C 0.08064 0.942 0.82224 0.0
C616 C 0.049 0.93771 0.78575 0.0
C617 C 0.99637 0.00556 0.77558 0.0
H618 H 0.01391 0.98857 0.70786 0.0
C619 C 0.97312 0.06576 0.67681 0.0
C620 C 0.94229 0.07597 0.68025 0.0
C621 C 0.98708 0.04558 0.6935 0.0
C622 C 0.00877 0.99367 0.72667 0.0
H623 H 0.0775 0.98665 0.84062 0.0
H624 H 0.04199 0.00985 0.81133 0.0
H625 H 0.04335 0.9616 0.73917 0.0
H626 H 0.90128 0.07142 0.70306 0.0
H627 H 0.9253 0.03554 0.73171 0.0
H628 H 0.96305 0.03893 0.7631 0.0
C629 C 0.04893 0.98577 0.80882 0.0
C630 C 0.02536 0.97786 0.74467 0.0
C631 C 0.06941 0.9725 0.82561 0.0
C632 C 0.92521 0.06428 0.70003 0.0
C633 C 0.93905 0.04387 0.71656 0.0
C634 C 0.97997 0.02156 0.75759 0.0
C635 C 0.03894 0.96874 0.78842 0.0
C636 C 0.01962 0.98387 0.76936 0.0
C637 C 0.9704 0.0349 0.71386 0.0
C638 C 0.98621 0.01609 0.7329 0.0
H639 H 0.07767 0.90087 0.79939 0.0
H640 H 0.04126 0.92369 0.77056 0.0
H641 H 0.99104 0.01048 0.7944 0.0
H642 H 0.987 0.07443 0.66184 0.0
H643 H 0.01138 0.03948 0.69095 0.0
C644 C 0.56326 0.08024 0.78949 0.0
C645 C 0.55705 0.08019 0.81453 0.0
C646 C 0.54712 0.06024 0.77393 0.0
C647 C 0.47333 0.01602 0.77076 0.0
H648 H 0.51027 0.98144 0.71243 0.0
C649 C 0.40515 0.93441 0.70714 0.0
C650 C 0.40614 0.94205 0.68233 0.0
C651 C 0.42552 0.9486 0.72351 0.0
C652 C 0.49967 0.99107 0.72861 0.0
H653 H 0.53022 0.0578 0.84301 0.0
H654 H 0.50273 0.02229 0.81595 0.0
H655 H 0.54298 0.00993 0.74117 0.0
H656 H 0.43006 0.96995 0.65523 0.0
H657 H 0.46578 0.99459 0.68394 0.0
H658 H 0.43007 0.99709 0.7582 0.0
C659 C 0.51944 0.03844 0.80824 0.0
C660 C 0.51835 0.00743 0.74506 0.0
C661 C 0.53536 0.05866 0.82379 0.0
C662 C 0.42861 0.96357 0.67421 0.0
C663 C 0.44919 0.97756 0.69061 0.0
C664 C 0.45477 -0.00055 0.75445 0.0
C665 C 0.52459 0.03948 0.78305 0.0
C666 C 0.50534 0.02034 0.76624 0.0
C667 C 0.44751 0.97055 0.71547 0.0
C668 C 0.46768 0.98702 0.73313 0.0
H669 H 0.57968 0.09663 0.78171 0.0
H670 H 0.55144 0.06199 0.75463 0.0
H671 H 0.46234 0.02618 0.78658 0.0
H672 H 0.38817 0.91797 0.71408 0.0
H673 H 0.42393 0.94253 0.74255 0.0
C674 C 0.56418 0.41718 0.7092 0.0
C675 C 0.55564 0.41649 0.68456 0.0
C676 C 0.54902 0.43713 0.72538 0.0
C677 C 0.49895 0.50692 0.72994 0.0
H678 H 0.46898 0.46716 0.78866 0.0
C679 C 0.40307 0.56079 0.7906 0.0
C680 C 0.40428 0.55536 0.81573 0.0
C681 C 0.42469 0.54678 0.77506 0.0
C682 C 0.47764 0.47889 0.77262 0.0
H683 H 0.52544 0.43749 0.65747 0.0
H684 H 0.4991 0.47237 0.68579 0.0
H685 H 0.5015 0.43788 0.76062 0.0
H686 H 0.43023 0.53225 0.84435 0.0
H687 H 0.4684 0.50855 0.81735 0.0
H688 H 0.47495 0.54794 0.74192 0.0
C689 C 0.51755 0.45743 0.69251 0.0
C690 C 0.49624 0.46204 0.75651 0.0
C691 C 0.53257 0.43731 0.67632 0.0
C692 C 0.42843 0.53669 0.82506 0.0
C693 C 0.45021 0.52293 0.80955 0.0
C694 C 0.4805 0.52391 0.74618 0.0
C695 C 0.52514 0.45702 0.7173 0.0
C696 C 0.5069 0.47577 0.73491 0.0
C697 C 0.4482 0.52722 0.78431 0.0
C698 C 0.46939 0.51 0.76763 0.0
H699 H 0.58187 0.40156 0.71622 0.0
H700 H 0.55563 0.43662 0.74434 0.0
H701 H 0.50707 0.51817 0.71352 0.0
H702 H 0.38467 0.57489 0.78276 0.0
H703 H 0.42217 0.55034 0.75572 0.0
C704 C 0.99219 0.7074 0.16705 0.0
C705 C 0.02128 0.72216 0.16408 0.0
C706 C 0.97151 0.71763 0.185 0.0
C707 C 0.96277 0.77575 0.23524 0.0
H708 H 0.96731 0.70193 0.27576 0.0
C709 C 0.99499 0.79189 0.33226 0.0
C710 C 0.02481 0.77839 0.33434 0.0
C711 C 0.97401 0.78103 0.31475 0.0
C712 C 0.96499 0.72272 0.26473 0.0
H713 H 0.04904 0.76225 0.17432 0.0
H714 H 0.01308 0.78032 0.2052 0.0
H715 H 0.96629 0.69638 0.23193 0.0
H716 H 0.05394 0.73987 0.32283 0.0
H717 H 0.01747 0.72067 0.29272 0.0
H718 H 0.96507 0.80216 0.26799 0.0
C719 C 0.00617 0.76062 0.19414 0.0
C720 C 0.96417 0.71959 0.23952 0.0
C721 C 0.02699 0.75017 0.17647 0.0
C722 C 0.03131 0.75098 0.32139 0.0
C723 C 0.01019 0.73987 0.30418 0.0
C724 C 0.96352 0.77887 0.26046 0.0
C725 C 0.97946 0.74299 0.19991 0.0
C726 C 0.9658 0.74616 0.22455 0.0
C727 C 0.98237 0.75623 0.29941 0.0
C728 C 0.96737 0.75243 0.27531 0.0
H729 H 0.98696 0.68585 0.15762 0.0
H730 H 0.95086 0.70389 0.18879 0.0
H731 H 0.96339 0.79661 0.22416 0.0
H732 H 0.98918 0.81297 0.34212 0.0
H733 H 0.95256 0.79382 0.3117 0.0
C734 C 0.74725 0.03163 0.17493 0.0
C735 C 0.77505 0.02531 0.16244 0.0
C736 C 0.73616 0.01077 0.19233 0.0
C737 C 0.7748 0.96576 0.2373 0.0
H738 H 0.69149 0.96706 0.26442 0.0
C739 C 0.70064 0.99226 0.33003 0.0
C740 C 0.71493 0.02146 0.33368 0.0
C741 C 0.71143 0.97228 0.3118 0.0
C742 C 0.71494 0.96538 0.25722 0.0
H743 H 0.8105 0.99017 0.15574 0.0
H744 H 0.79135 0.954 0.18648 0.0
H745 H 0.69825 0.96778 0.22067 0.0
H746 H 0.75456 0.05027 0.3241 0.0
H747 H 0.77355 0.01554 0.29269 0.0
H748 H 0.7915 0.9663 0.2739 0.0
C749 C 0.77823 0.97511 0.18291 0.0
C750 C 0.71877 0.96602 0.23207 0.0
C751 C 0.78909 0.99583 0.16522 0.0
C752 C 0.74285 0.02812 0.32145 0.0
C753 C 0.75384 0.008 0.3035 0.0
C754 C 0.77098 0.96518 0.26246 0.0
C755 C 0.75291 0.98339 0.19776 0.0
C756 C 0.74872 0.96884 0.22198 0.0
C757 C 0.73688 0.98103 0.29725 0.0
C758 C 0.74104 0.96762 0.27263 0.0
H759 H 0.73574 0.054 0.17296 0.0
H760 H 0.71656 0.01796 0.2034 0.0
H761 H 0.79826 0.96769 0.23016 0.0
H762 H 0.67917 0.98634 0.3393 0.0
H763 H 0.69817 0.95145 0.30761 0.0
C764 C 0.5066 0.70126 0.32815 0.0
C765 C 0.47721 0.71513 0.33174 0.0
C766 C 0.52678 0.71276 0.31031 0.0
C767 C 0.53441 0.77414 0.26242 0.0
H768 H 0.53459 0.70298 0.21899 0.0
C769 C 0.50676 0.79546 0.16505 0.0
C770 C 0.47784 0.78074 0.16118 0.0
C771 C 0.52707 0.78438 0.18296 0.0
C772 C 0.53556 0.72309 0.23088 0.0
H773 H 0.44805 0.75461 0.32243 0.0
H774 H 0.48309 0.77485 0.29171 0.0
H775 H 0.53378 0.69458 0.26257 0.0
H776 H 0.44983 0.74025 0.16997 0.0
H777 H 0.4851 0.72076 0.20082 0.0
H778 H 0.53261 0.80259 0.23072 0.0
C779 C 0.49067 0.75494 0.30228 0.0
C780 C 0.53532 0.71832 0.25594 0.0
C781 C 0.47037 0.74323 0.31982 0.0
C782 C 0.47178 0.75227 0.17281 0.0
C783 C 0.49221 0.741 0.19043 0.0
C784 C 0.53468 0.7789 0.23736 0.0
C785 C 0.51801 0.73854 0.29612 0.0
C786 C 0.5321 0.74379 0.27186 0.0
C787 C 0.5189 0.75822 0.19695 0.0
C788 C 0.5326 0.75336 0.2214 0.0
H789 H 0.51263 0.67963 0.33717 0.0
H790 H 0.54787 0.69989 0.30617 0.0
H791 H 0.53257 0.79421 0.27429 0.0
H792 H 0.5122 0.81738 0.15624 0.0
H793 H 0.54767 0.79787 0.18736 0.0
C794 C 0.74892 0.48028 0.1602 0.0
C795 C 0.71668 0.48079 0.15632 0.0
C796 C 0.76213 0.49884 0.17837 0.0
C797 C 0.73542 0.54332 0.23509 0.0
H798 H 0.8023 0.49367 0.26215 0.0
C799 C 0.7943 0.50188 0.33072 0.0
C800 C 0.77824 0.47359 0.33437 0.0
C801 C 0.78655 0.52114 0.31118 0.0
C802 C 0.78395 0.50827 0.25476 0.0
H803 H 0.67339 0.50341 0.16609 0.0
H804 H 0.69511 0.5332 0.19867 0.0
H805 H 0.79488 0.4942 0.21922 0.0
H806 H 0.73826 0.44616 0.32331 0.0
H807 H 0.72405 0.48051 0.28977 0.0
H808 H 0.72273 0.55355 0.27203 0.0
C809 C 0.71123 0.5198 0.18784 0.0
C810 C 0.77953 0.50881 0.22977 0.0
C811 C 0.69841 0.50252 0.16887 0.0
C812 C 0.75114 0.46768 0.32082 0.0
C813 C 0.74292 0.48742 0.3017 0.0
C814 C 0.73917 0.54167 0.26031 0.0
C815 C 0.74295 0.51634 0.19426 0.0
C816 C 0.75385 0.52465 0.21944 0.0
C817 C 0.76201 0.51288 0.29569 0.0
C818 C 0.76267 0.52299 0.27021 0.0
H819 H 0.76357 0.46409 0.1503 0.0
H820 H 0.78704 0.49719 0.18098 0.0
H821 H 0.71663 0.55763 0.22828 0.0
H822 H 0.81532 0.50711 0.34085 0.0
H823 H 0.80174 0.5405 0.30666 0.0
C824 C 0.99802 0.1999 0.66806 0.0
C825 C 0.96836 0.21269 0.66347 0.0
C826 C 0.01693 0.21244 0.68629 0.0
C827 C 0.02207 0.27544 0.73266 0.0
H828 H 0.0181 0.20689 0.7785 0.0
C829 C 0.95714 0.26271 0.82244 0.0
C830 C 0.96615 0.29025 0.83428 0.0
C831 C 0.97635 0.24949 0.8048 0.0
C832 C 0.02032 0.22621 0.76594 0.0
H833 H 0.93733 0.25115 0.67151 0.0
H834 H 0.97047 0.2735 0.70277 0.0
H835 H 0.01903 0.196 0.73517 0.0
H836 H 0.00394 0.32338 0.83914 0.0
H837 H 0.03713 0.30067 0.80776 0.0
H838 H 0.02019 0.30571 0.76339 0.0
C839 C 0.9791 0.2536 0.69268 0.0
C840 C 0.02103 0.22002 0.74108 0.0
C841 C 0.95996 0.24073 0.67483 0.0
C842 C 0.9963 0.30217 0.83025 0.0
C843 C 0.01532 0.28926 0.81224 0.0
C844 C 0.02166 0.28163 0.75753 0.0
C845 C 0.00668 0.2383 0.69976 0.0
C846 C 0.01946 0.24464 0.72424 0.0
C847 C 0.00469 0.26389 0.79841 0.0
C848 C 0.01833 0.25709 0.77429 0.0
H849 H 0.00512 0.17824 0.65955 0.0
H850 H 0.03816 0.20034 0.6913 0.0
H851 H 0.02118 0.29481 0.72006 0.0
H852 H 0.93414 0.2529 0.82534 0.0
H853 H 0.96741 0.22999 0.7944 0.0
C854 C 0.28948 0.9925 0.66661 0.0
C855 C 0.27394 0.96769 0.65525 0.0
C856 C 0.27502 0.00896 0.68533 0.0
C857 C 0.21429 0.98754 0.73006 0.0
H858 H 0.25705 0.05162 0.76704 0.0
C859 C 0.24118 0.96519 0.82413 0.0
C860 C 0.21377 0.97236 0.8369 0.0
C861 C 0.24902 0.98208 0.80336 0.0
C862 C 0.24455 0.03409 0.75675 0.0
H863 H 0.22952 0.94451 0.65091 0.0
H864 H 0.20288 0.97575 0.68144 0.0
H865 H 0.26124 0.05118 0.72273 0.0
H866 H 0.17609 0.00591 0.84044 0.0
H867 H 0.18919 0.03438 0.80355 0.0
H868 H 0.19773 0.97064 0.76412 0.0
C869 C 0.22716 0.98076 0.67773 0.0
C870 C 0.24714 0.03347 0.73138 0.0
C871 C 0.24213 0.96318 0.65982 0.0
C872 C 0.19734 -0.00023 0.83093 0.0
C873 C 0.20482 0.01622 0.80981 0.0
C874 C 0.21112 0.98871 0.75511 0.0
C875 C 0.24437 0.00147 0.69253 0.0
C876 C 0.23365 0.00893 0.71777 0.0
C877 C 0.22932 0.00595 0.79503 0.0
C878 C 0.22746 0.0109 0.76869 0.0
H879 H 0.31408 0.99652 0.66332 0.0
H880 H 0.28936 0.02488 0.69567 0.0
H881 H 0.20357 0.96797 0.72094 0.0
H882 H 0.25436 0.94434 0.82844 0.0
H883 H 0.26795 0.9737 0.79206 0.0
C884 C 0.50206 0.20197 0.83018 0.0
C885 C 0.53232 0.21424 0.83294 0.0
C886 C 0.482 0.21401 0.8125 0.0
C887 C 0.47447 0.27492 0.76466 0.0
H888 H 0.47164 0.20412 0.72089 0.0
C889 C 0.53293 0.2552 0.67382 0.0
C890 C 0.52562 0.28354 0.66244 0.0
C891 C 0.51333 0.24315 0.69171 0.0
C892 C 0.4713 0.22412 0.73292 0.0
H893 H 0.56348 0.2515 0.82213 0.0
H894 H 0.52844 0.27287 0.79175 0.0
H895 H 0.4743 0.19537 0.76445 0.0
H896 H 0.48991 0.31902 0.65815 0.0
H897 H 0.45603 0.29826 0.68984 0.0
H898 H 0.47482 0.30361 0.73304 0.0
C899 C 0.52019 0.25374 0.80288 0.0
C900 C 0.47266 0.21915 0.75793 0.0
C901 C 0.54044 0.2414 0.82021 0.0
C902 C 0.49629 0.29721 0.66676 0.0
C903 C 0.47688 0.28541 0.68497 0.0
C904 C 0.47289 0.27989 0.73966 0.0
C905 C 0.49169 0.23886 0.79772 0.0
C906 C 0.4768 0.24448 0.77385 0.0
C907 C 0.48633 0.25951 0.69874 0.0
C908 C 0.47387 0.25446 0.72353 0.0
H909 H 0.49506 0.18107 0.83979 0.0
H910 H 0.46007 0.20226 0.809 0.0
H911 H 0.47722 0.29484 0.77657 0.0
H912 H 0.55522 0.24399 0.67063 0.0
H913 H 0.52136 0.22312 0.70194 0.0
C914 C 0.24735 0.52209 0.82221 0.0
C915 C 0.27526 0.51738 0.83503 0.0
C916 C 0.2394 0.5023 0.80305 0.0
C917 C 0.23402 0.45265 0.76048 0.0
H918 H 0.29519 0.49383 0.72009 0.0
C919 C 0.19658 0.49528 0.66895 0.0
C920 C 0.21529 0.51775 0.65764 0.0
C921 C 0.20871 0.4767 0.68745 0.0
C922 C 0.27792 0.48126 0.73038 0.0
H923 H 0.31424 0.48571 0.84027 0.0
H924 H 0.30105 0.45226 0.80604 0.0
H925 H 0.30245 0.4926 0.76292 0.0
H926 H 0.26238 0.53466 0.65331 0.0
H927 H 0.28463 0.5 0.68317 0.0
H928 H 0.20955 0.44048 0.72851 0.0
C929 C 0.2851 0.47076 0.8111 0.0
C930 C 0.28245 0.48052 0.75538 0.0
C931 C 0.29261 0.49005 0.83068 0.0
C932 C 0.24733 0.51799 0.66233 0.0
C933 C 0.25984 0.49838 0.68012 0.0
C934 C 0.22997 0.45232 0.73528 0.0
C935 C 0.25959 0.47802 0.79624 0.0
C936 C 0.25955 0.46813 0.77066 0.0
C937 C 0.24016 0.47974 0.69486 0.0
C938 C 0.25033 0.46925 0.71984 0.0
H939 H 0.23345 0.54283 0.82529 0.0
H940 H 0.2197 0.50842 0.79169 0.0
H941 H 0.21631 0.44245 0.77203 0.0
H942 H 0.17169 0.49446 0.66548 0.0
H943 H 0.19219 0.46226 0.69699 0.0
C944 C 0.06311 0.56537 0.06821 0.0
C945 C 0.04088 0.5862 0.07762 0.0
C946 C 0.05461 0.54342 0.05075 0.0
C947 C 0.98661 0.5026 0.0252 0.0
H948 H 0.03977 0.49144 0.96889 0.0
C949 C 0.94384 0.44089 0.93943 0.0
C950 C 0.96413 0.41977 0.92802 0.0
C951 C 0.95443 0.45984 0.9582 0.0
C952 C 0.02493 0.494 0.98467 0.0
H953 H 0.99231 0.60028 0.07635 0.0
H954 H 0.97748 0.56204 0.04568 0.0
H955 H 0.05578 0.52702 0.00115 0.0
H956 H 0.01154 0.40212 0.92707 0.0
H957 H 0.03015 0.4354 0.96011 0.0
H958 H 0.9556 0.46987 0.00863 0.0
C959 C 0.0014 0.56248 0.052 0.0
C960 C 0.03407 0.51434 0.00312 0.0
C961 C 0.00992 0.58447 0.06945 0.0
C962 C 0.9954 0.41824 0.93553 0.0
C963 C 0.00606 0.43731 0.95436 0.0
C964 C 0.97749 0.48228 0.00678 0.0
C965 C 0.02371 0.54183 0.0424 0.0
C966 C 0.01481 0.51911 0.02342 0.0
C967 C 0.98556 0.45809 0.966 0.0
C968 C 0.99635 0.4781 0.98618 0.0
H969 H 0.08716 0.5661 0.07422 0.0
H970 H 0.0722 0.52756 0.04387 0.0
H971 H 0.97159 0.50538 0.04085 0.0
H972 H 0.91962 0.4427 0.93398 0.0
H973 H 0.93825 0.47604 0.96652 0.0
C974 C 0.06465 0.94225 0.94215 0.0
C975 C 0.08577 0.96326 0.93156 0.0
C976 C 0.04383 0.9523 0.95991 0.0
C977 C 0.00538 0.02229 0.98398 0.0
H978 H 0.99108 0.96987 0.04026 0.0
C979 C 0.93179 0.06274 0.06551 0.0
C980 C 0.91068 0.041 0.07521 0.0
C981 C 0.95376 0.05353 0.04829 0.0
C982 C 0.99461 0.98459 0.02454 0.0
H983 H 0.10164 0.01131 0.93112 0.0
H984 H 0.06526 0.0289 0.96241 0.0
H985 H 0.02864 0.95363 0.00956 0.0
H986 H 0.89602 0.99258 0.07464 0.0
H987 H 0.93434 0.97648 0.04436 0.0
H988 H 0.97124 0.0532 -0.00106 0.0
C989 C 0.06468 0.0047 0.95677 0.0
C990 C 0.01611 0.97532 0.00697 0.0
C991 C 0.08557 0.99461 0.93897 0.0
C992 C 0.91206 0.00982 0.0675 0.0
C993 C 0.93408 0.00058 0.05028 0.0
C994 C 0.98387 0.03157 0.00156 0.0
C995 C 0.04369 0.98358 0.96748 0.0
C996 C 0.02159 0.99399 0.98646 0.0
C997 C 0.95508 0.02239 0.04045 0.0
C998 C 0.97818 0.01274 0.02196 0.0
H999 H 0.06415 0.91795 0.93675 0.0
H1000 H 0.02759 0.9356 0.96755 0.0
H1001 H 0.00881 0.03694 0.9682 0.0
H1002 H 0.93134 0.08694 0.07116 0.0
H1003 H 0.96991 0.07075 0.04127 0.0
C1004 C 0.49062 0.91744 0.0655 0.0
C1005 C 0.45937 0.9152 0.07289 0.0
C1006 C 0.49944 0.93938 0.04812 0.0
C1007 C 0.46775 0.98664 0.99827 0.0
H1008 H 0.54536 0.03228 0.00521 0.0
C1009 C 0.50615 0.08438 0.93225 0.0
C1010 C 0.53756 0.08356 0.92502 0.0
C1011 C 0.49553 0.06473 0.95071 0.0
C1012 C 0.52373 0.01953 0.00296 0.0
H1013 H 0.41288 0.93435 0.06821 0.0
H1014 H 0.42838 0.97288 0.03803 0.0
H1015 H 0.52894 0.99654 0.03713 0.0
H1016 H 0.58238 0.06133 0.93112 0.0
H1017 H 0.56381 0.02698 0.9631 0.0
H1018 H 0.46268 0.00957 0.964 0.0
C1019 C 0.44597 0.95742 0.04542 0.0
C1020 C 0.51435 -0.00093 0.0212 0.0
C1021 C 0.43715 0.93548 0.06279 0.0
C1022 C 0.55806 0.06258 0.93636 0.0
C1023 C 0.54749 0.04306 0.95479 0.0
C1024 C 0.47712 0.00716 0.98002 0.0
C1025 C 0.47717 0.95949 0.03783 0.0
C1026 C 0.48643 0.98219 0.01894 0.0
C1027 C 0.5162 0.04407 0.96226 0.0
C1028 C 0.50537 0.02353 0.98209 0.0
H1029 H 0.50823 0.90205 0.07294 0.0
H1030 H 0.5236 0.94017 0.04239 0.0
H1031 H 0.44628 0.97366 0.9959 0.0
H1032 H 0.48985 0.10037 0.92383 0.0
H1033 H 0.47132 0.0661 0.95623 0.0
C1034 C 0.40805 0.50374 0.93231 0.0
C1035 C 0.40632 0.53515 0.9252 0.0
C1036 C 0.42979 0.4943 0.94966 0.0
C1037 C 0.50364 0.51768 0.97835 0.0
H1038 H 0.47754 0.46153 0.02966 0.0
C1039 C 0.58038 0.49251 0.06162 0.0
C1040 C 0.58259 0.46121 0.06892 0.0
C1041 C 0.55855 0.50142 0.04418 0.0
C1042 C 0.48523 0.47697 0.0153 0.0
H1043 H 0.42602 0.58129 0.93047 0.0
H1044 H 0.46382 0.56484 0.96087 0.0
H1045 H 0.44027 0.477 0.99845 0.0
H1046 H 0.56354 0.41473 0.06402 0.0
H1047 H 0.52552 0.43029 0.03345 0.0
H1048 H 0.54857 0.51771 0.99521 0.0
C1049 C 0.44861 0.54746 0.95287 0.0
C1050 C 0.46393 0.48579 0.99744 0.0
C1051 C 0.42686 0.5569 0.93557 0.0
C1052 C 0.56233 0.43904 0.05874 0.0
C1053 C 0.54047 0.44796 0.04134 0.0
C1054 C 0.52492 0.50888 0.9962 0.0
C1055 C 0.45021 0.5161 0.96015 0.0
C1056 C 0.47292 0.50628 0.97883 0.0
C1057 C 0.53851 0.47919 0.03378 0.0
C1058 C 0.5159 0.4885 0.01488 0.0
H1059 H 0.39253 0.48645 0.92457 0.0
H1060 H 0.43076 0.4699 0.95473 0.0
H1061 H 0.51133 0.53315 0.96401 0.0
H1062 H 0.59564 0.51012 0.06922 0.0
H1063 H 0.55726 0.52574 0.03892 0.0
C1064 C 0.00959 0.91182 0.43214 0.0
C1065 C 0.04049 0.91168 0.42368 0.0
C1066 C 0.00038 0.93289 0.45007 0.0
C1067 C 0.02215 0.00738 0.47883 0.0
H1068 H 0.96976 0.97764 0.5313 0.0
C1069 C 0.99329 0.08229 0.56315 0.0
C1070 C 0.96211 0.08156 0.57096 0.0
C1071 C 0.00366 0.06155 0.54532 0.0
C1072 C 0.98417 0.98635 0.51665 0.0
H1073 H 0.08592 0.93359 0.42716 0.0
H1074 H 0.06987 0.97017 0.45859 0.0
H1075 H 0.98587 0.94167 0.49946 0.0
H1076 H 0.91733 0.05869 0.56627 0.0
H1077 H 0.93534 0.02281 0.53513 0.0
H1078 H 0.02036 0.05212 0.49604 0.0
C1079 C 0.0527 0.95424 0.4512 0.0
C1080 C 0.99334 0.96578 0.49841 0.0
C1081 C 0.06191 0.93318 0.4333 0.0
C1082 C 0.94155 0.05974 0.56069 0.0
C1083 C 0.95189 0.03905 0.54294 0.0
C1084 C 0.01296 0.02799 0.4971 0.0
C1085 C 0.02189 0.95421 0.45986 0.0
C1086 C 0.01231 0.9761 0.47925 0.0
C1087 C 0.98304 0.03971 0.53507 0.0
C1088 C 0.99374 0.0177 0.51612 0.0
H1089 H 0.99255 0.89558 0.42499 0.0
H1090 H 0.97636 0.93261 0.45616 0.0
H1091 H 0.0365 0.01608 0.46414 0.0
H1092 H 0.00966 0.09886 0.57077 0.0
H1093 H 0.02788 0.06239 0.53974 0.0
C1094 C 0.58084 0.00442 0.43089 0.0
C1095 C 0.58124 0.03552 0.42292 0.0
C1096 C 0.55992 0.99502 0.44886 0.0
C1097 C 0.5121 0.02627 0.49874 0.0
H1098 H 0.46982 0.9465 0.49418 0.0
C1099 C 0.41246 0.98937 0.56317 0.0
C1100 C 0.41302 0.95842 0.5715 0.0
C1101 C 0.43339 -0.00081 0.54533 0.0
C1102 C 0.48172 0.9687 0.49581 0.0
H1103 H 0.55972 0.08105 0.42704 0.0
H1104 H 0.52288 0.06451 0.4581 0.0
H1105 H 0.50509 0.96269 0.46187 0.0
H1106 H 0.43627 0.91364 0.56817 0.0
H1107 H 0.4729 0.93086 0.53718 0.0
H1108 H 0.48857 0.0323 0.53265 0.0
C1109 C 0.53909 0.04753 0.45082 0.0
C1110 C 0.5019 0.97796 0.47732 0.0
C1111 C 0.56004 0.05693 0.43292 0.0
C1112 C 0.4352 0.93762 0.56202 0.0
C1113 C 0.45604 0.9474 0.54418 0.0
C1114 C 0.49185 0.01704 0.5172 0.0
C1115 C 0.53898 0.01654 0.45911 0.0
C1116 C 0.51734 0.00681 0.47862 0.0
C1117 C 0.45515 0.97819 0.5355 0.0
C1118 C 0.47654 0.98813 0.51593 0.0
H1119 H 0.59701 0.98744 0.42355 0.0
H1120 H 0.56061 0.97106 0.45507 0.0
H1121 H 0.52405 0.04844 0.50042 0.0
H1122 H 0.39558 0.0059 0.57016 0.0
H1123 H 0.43204 0.023 0.53883 0.0
C1124 C 0.55901 0.43907 0.56343 0.0
C1125 C 0.5376 0.41821 0.57386 0.0
C1126 C 0.54964 0.4593 0.54503 0.0
C1127 C 0.48063 0.49598 0.51765 0.0
H1128 H 0.53467 0.50536 0.46166 0.0
C1129 C 0.44142 0.56116 0.43184 0.0
C1130 C 0.46308 0.58174 0.42138 0.0
C1131 C 0.45061 0.54068 0.45013 0.0
C1132 C 0.5195 0.50321 0.47729 0.0
H1133 H 0.48951 0.40244 0.57355 0.0
H1134 H 0.47315 0.43776 0.54123 0.0
H1135 H 0.55029 0.47106 0.49479 0.0
H1136 H 0.51139 0.59679 0.42154 0.0
H1137 H 0.52742 0.56113 0.4537 0.0
H1138 H 0.44987 0.52819 0.50019 0.0
C1139 C 0.49711 0.43861 0.54744 0.0
C1140 C 0.52843 0.48361 0.49624 0.0
C1141 C 0.5065 0.41832 0.56586 0.0
C1142 C 0.49422 0.58112 0.42924 0.0
C1143 C 0.50342 0.56063 0.44758 0.0
C1144 C 0.47171 0.5156 0.49871 0.0
C1145 C 0.51868 0.45908 0.53671 0.0
C1146 C 0.50911 0.47984 0.51662 0.0
C1147 C 0.48163 0.5404 0.45834 0.0
C1148 C 0.49106 0.51942 0.47834 0.0
H1149 H 0.58312 0.4396 0.5693 0.0
H1150 H 0.56664 0.47518 0.53735 0.0
H1151 H 0.46548 0.49382 0.53328 0.0
H1152 H 0.41727 0.56102 0.42606 0.0
H1153 H 0.43343 0.52501 0.45782 0.0
C1154 C 0.90695 0.49344 0.43436 0.0
C1155 C 0.90675 0.46197 0.42726 0.0
C1156 C 0.92793 0.50387 0.45197 0.0
C1157 C 0.00234 0.48306 0.48128 0.0
H1158 H 0.97458 0.53926 0.53204 0.0
C1159 C 0.07702 0.50837 0.5653 0.0
C1160 C 0.07962 0.53973 0.57239 0.0
C1161 C 0.05525 0.49955 0.54782 0.0
C1162 C 0.9827 0.5238 0.51783 0.0
H1163 H 0.92818 0.4167 0.43301 0.0
H1164 H 0.96449 0.4348 0.46386 0.0
H1165 H 0.93799 0.52287 0.50054 0.0
H1166 H 0.06107 0.58635 0.5672 0.0
H1167 H 0.02297 0.57086 0.53656 0.0
H1168 H 0.04694 0.4838 0.49862 0.0
C1169 C 0.94879 0.45153 0.45562 0.0
C1170 C 0.96181 0.51447 0.4998 0.0
C1171 C 0.92787 0.44113 0.43804 0.0
C1172 C 0.05958 0.562 0.56207 0.0
C1173 C 0.0377 0.55314 0.54462 0.0
C1174 C 0.02316 0.49232 0.49931 0.0
C1175 C 0.94908 0.483 0.46275 0.0
C1176 C 0.97139 0.49383 0.48144 0.0
C1177 C 0.0356 0.52188 0.53713 0.0
C1178 C 0.01349 0.5126 0.51785 0.0
H1179 H 0.89095 0.51004 0.42632 0.0
H1180 H 0.92785 0.52832 0.45693 0.0
H1181 H 0.01056 0.46761 0.46711 0.0
H1182 H 0.09208 0.49066 0.57301 0.0
H1183 H 0.0538 0.4752 0.54264 0.0
loop_
_geom_bond_atom_site_label_1
_geom_bond_atom_site_label_2
_geom_bond_distance
_geom_bond_site_symmetry_2
_ccdc_geom_bond_type
Co0 O1 2.216 . S
Co0 O2 2.091 . S
Co0 O4 2.004 . S
Co0 O10 2.021 . S
Co0 O12 2.137 . S
Co0 O13 2.244 . S
O1 Co0 2.216 . S
O1 C8 1.247 . S
O2 Co0 2.091 . S
O2 C8 1.261 . S
C3 O12 1.247 . S
C3 O13 1.272 . S
O4 Co0 2.004 . S
O4 C9 1.259 . S
Co5 O6 2.061 . S
Co5 O11 2.052 . S
Co5 O13 2.135 . S
O6 Co5 2.061 . S
O6 C9 1.235 . S
C7 O10 1.238 . S
C7 O11 1.241 . S
C8 O1 1.247 . S
C8 O2 1.261 . S
C9 O4 1.259 . S
C9 O6 1.235 . S
O10 Co0 2.021 . S
O10 C7 1.238 . S
O11 Co5 2.052 . S
O11 C7 1.241 . S
O12 Co0 2.137 . S
O12 C3 1.247 . S
O13 Co0 2.244 . S
O13 C3 1.272 . S
O13 Co5 2.135 . S
Co14 O15 2.216 . S
Co14 O16 2.091 . S
Co14 O18 2.004 . S
Co14 O24 2.021 . S
Co14 O26 2.137 . S
Co14 O27 2.244 . S
O15 Co14 2.216 . S
O15 C22 1.247 . S
O16 Co14 2.091 . S
O16 C22 1.261 . S
C17 O26 1.247 . S
C17 O27 1.272 . S
O18 Co14 2.004 . S
O18 C23 1.259 . S
Co19 O20 2.061 . S
Co19 O25 2.052 . S
Co19 O27 2.135 . S
O20 Co19 2.061 . S
O20 C23 1.235 . S
C21 O24 1.238 . S
C21 O25 1.241 . S
C22 O15 1.247 . S
C22 O16 1.261 . S
C23 O18 1.259 . S
C23 O20 1.235 . S
O24 Co14 2.021 . S
O24 C21 1.238 . S
O25 Co19 2.052 . S
O25 C21 1.241 . S
O26 Co14 2.137 . S
O26 C17 1.247 . S
O27 Co14 2.244 . S
O27 C17 1.272 . S
O27 Co19 2.135 . S
Co28 O29 2.216 . S
Co28 O30 2.091 . S
Co28 O32 2.004 . S
Co28 O38 2.021 . S
Co28 O40 2.137 . S
Co28 O41 2.244 . S
O29 Co28 2.216 . S
O29 C36 1.247 . S
O30 Co28 2.091 . S
O30 C36 1.261 . S
C31 O40 1.247 . S
C31 O41 1.272 . S
O32 Co28 2.004 . S
O32 C37 1.259 . S
Co33 O34 2.061 . S
Co33 O39 2.052 . S
Co33 O41 2.135 . S
O34 Co33 2.061 . S
O34 C37 1.235 . S
C35 O38 1.238 . S
C35 O39 1.241 . S
C36 O29 1.247 . S
C36 O30 1.261 . S
C37 O32 1.259 . S
C37 O34 1.235 . S
O38 Co28 2.021 . S
O38 C35 1.238 . S
O39 Co33 2.052 . S
O39 C35 1.241 . S
O40 Co28 2.137 . S
O40 C31 1.247 . S
O41 Co28 2.244 . S
O41 C31 1.272 . S
O41 Co33 2.135 . S
Co42 O43 2.216 . S
Co42 O44 2.091 . S
Co42 O46 2.004 . S
Co42 O52 2.021 . S
Co42 O54 2.137 . S
Co42 O55 2.244 . S
O43 Co42 2.216 . S
O43 C50 1.247 . S
O44 Co42 2.091 . S
O44 C50 1.261 . S
C45 O54 1.247 . S
C45 O55 1.272 . S
O46 Co42 2.004 . S
O46 C51 1.259 . S
Co47 O48 2.061 . S
Co47 O53 2.052 . S
Co47 O55 2.135 . S
O48 Co47 2.061 . S
O48 C51 1.235 . S
C49 O52 1.238 . S
C49 O53 1.241 . S
C50 O43 1.247 . S
C50 O44 1.261 . S
C51 O46 1.259 . S
C51 O48 1.235 . S
O52 Co42 2.021 . S
O52 C49 1.238 . S
O53 Co47 2.052 . S
O53 C49 1.241 . S
O54 Co42 2.137 . S
O54 C45 1.247 . S
O55 Co42 2.244 . S
O55 C45 1.272 . S
O55 Co47 2.135 . S
Co56 O57 2.216 . S
Co56 O58 2.091 . S
Co56 O60 2.004 . S
Co56 O66 2.021 . S
Co56 O68 2.137 . S
Co56 O69 2.244 . S
O57 Co56 2.216 . S
O57 C64 1.247 . S
O58 Co56 2.091 . S
O58 C64 1.261 . S
C59 O68 1.247 . S
C59 O69 1.272 . S
O60 Co56 2.004 . S
O60 C65 1.259 . S
Co61 O62 2.061 . S
Co61 O67 2.052 . S
Co61 O69 2.135 . S
O62 Co61 2.061 . S
O62 C65 1.235 . S
C63 O66 1.238 . S
C63 O67 1.241 . S
C64 O57 1.247 . S
C64 O58 1.261 . S
C65 O60 1.259 . S
C65 O62 1.235 . S
O66 Co56 2.021 . S
O66 C63 1.238 . S
O67 Co61 2.052 . S
O67 C63 1.241 . S
O68 Co56 2.137 . S
O68 C59 1.247 . S
O69 Co56 2.244 . S
O69 C59 1.272 . S
O69 Co61 2.135 . S
Co70 O71 2.216 . S
Co70 O72 2.091 . S
Co70 O74 2.004 . S
Co70 O80 2.021 . S
Co70 O82 2.137 . S
Co70 O83 2.244 . S
O71 Co70 2.216 . S
O71 C78 1.247 . S
O72 Co70 2.091 . S
O72 C78 1.261 . S
C73 O82 1.247 . S
C73 O83 1.272 . S
O74 Co70 2.004 . S
O74 C79 1.259 . S
Co75 O76 2.061 . S
Co75 O81 2.052 . S
Co75 O83 2.135 . S
O76 Co75 2.061 . S
O76 C79 1.235 . S
C77 O80 1.238 . S
C77 O81 1.241 . S
C78 O71 1.247 . S
C78 O72 1.261 . S
C79 O74 1.259 . S
C79 O76 1.235 . S
O80 Co70 2.021 . S
O80 C77 1.238 . S
O81 Co75 2.052 . S
O81 C77 1.241 . S
O82 Co70 2.137 . S
O82 C73 1.247 . S
O83 Co70 2.244 . S
O83 C73 1.272 . S
O83 Co75 2.135 . S
Co84 O85 2.216 . S
Co84 O86 2.091 . S
Co84 O88 2.004 . S
Co84 O94 2.021 . S
Co84 O96 2.137 . S
Co84 O97 2.244 . S
O85 Co84 2.216 . S
O85 C92 1.247 . S
O86 Co84 2.091 . S
O86 C92 1.261 . S
C87 O96 1.247 . S
C87 O97 1.272 . S
O88 Co84 2.004 . S
O88 C93 1.259 . S
Co89 O90 2.061 . S
Co89 O95 2.052 . S
Co89 O97 2.135 . S
O90 Co89 2.061 . S
O90 C93 1.235 . S
C91 O94 1.238 . S
C91 O95 1.241 . S
C92 O85 1.247 . S
C92 O86 1.261 . S
C93 O88 1.259 . S
C93 O90 1.235 . S
O94 Co84 2.021 . S
O94 C91 1.238 . S
O95 Co89 2.052 . S
O95 C91 1.241 . S
O96 Co84 2.137 . S
O96 C87 1.247 . S
O97 Co84 2.244 . S
O97 C87 1.272 . S
O97 Co89 2.135 . S
Co98 O99 2.216 . S
Co98 O100 2.091 . S
Co98 O102 2.004 . S
Co98 O108 2.021 . S
Co98 O110 2.137 . S
Co98 O111 2.244 . S
O99 Co98 2.216 . S
O99 C106 1.247 . S
O100 Co98 2.091 . S
O100 C106 1.261 . S
C101 O110 1.247 . S
C101 O111 1.272 . S
O102 Co98 2.004 . S
O102 C107 1.259 . S
Co103 O104 2.061 . S
Co103 O109 2.052 . S
Co103 O111 2.135 . S
O104 Co103 2.061 . S
O104 C107 1.235 . S
C105 O108 1.238 . S
C105 O109 1.241 . S
C106 O99 1.247 . S
C106 O100 1.261 . S
C107 O102 1.259 . S
C107 O104 1.235 . S
O108 Co98 2.021 . S
O108 C105 1.238 . S
O109 Co103 2.052 . S
O109 C105 1.241 . S
O110 Co98 2.137 . S
O110 C101 1.247 . S
O111 Co98 2.244 . S
O111 C101 1.272 . S
O111 Co103 2.135 . S
Co112 O113 2.216 . S
Co112 O114 2.091 . S
Co112 O116 2.004 . S
Co112 O122 2.021 . S
Co112 O124 2.137 . S
Co112 O125 2.244 . S
O113 Co112 2.216 . S
O113 C120 1.247 . S
O114 Co112 2.091 . S
O114 C120 1.261 . S
C115 O124 1.247 . S
C115 O125 1.272 . S
O116 Co112 2.004 . S
O116 C121 1.259 . S
Co117 O118 2.061 . S
Co117 O123 2.052 . S
Co117 O125 2.135 . S
O118 Co117 2.061 . S
O118 C121 1.235 . S
C119 O122 1.238 . S
C119 O123 1.241 . S
C120 O113 1.247 . S
C120 O114 1.261 . S
C121 O116 1.259 . S
C121 O118 1.235 . S
O122 Co112 2.021 . S
O122 C119 1.238 . S
O123 Co117 2.052 . S
O123 C119 1.241 . S
O124 Co112 2.137 . S
O124 C115 1.247 . S
O125 Co112 2.244 . S
O125 C115 1.272 . S
O125 Co117 2.135 . S
Co126 O127 2.216 . S
Co126 O128 2.091 . S
Co126 O130 2.004 . S
Co126 O136 2.021 . S
Co126 O138 2.137 . S
Co126 O139 2.244 . S
O127 Co126 2.216 . S
O127 C134 1.247 . S
O128 Co126 2.091 . S
O128 C134 1.261 . S
C129 O138 1.247 . S
C129 O139 1.272 . S
O130 Co126 2.004 . S
O130 C135 1.259 . S
Co131 O132 2.061 . S
Co131 O137 2.052 . S
Co131 O139 2.135 . S
O132 Co131 2.061 . S
O132 C135 1.235 . S
C133 O136 1.238 . S
C133 O137 1.241 . S
C134 O127 1.247 . S
C134 O128 1.261 . S
C135 O130 1.259 . S
C135 O132 1.235 . S
O136 Co126 2.021 . S
O136 C133 1.238 . S
O137 Co131 2.052 . S
O137 C133 1.241 . S
O138 Co126 2.137 . S
O138 C129 1.247 . S
O139 Co126 2.244 . S
O139 C129 1.272 . S
O139 Co131 2.135 . S
Co140 O141 2.216 . S
Co140 O142 2.091 . S
Co140 O144 2.004 . S
Co140 O150 2.021 . S
Co140 O152 2.137 . S
Co140 O153 2.244 . S
O141 Co140 2.216 . S
O141 C148 1.247 . S
O142 Co140 2.091 . S
O142 C148 1.261 . S
C143 O152 1.247 . S
C143 O153 1.272 . S
O144 Co140 2.004 . S
O144 C149 1.259 . S
Co145 O146 2.061 . S
Co145 O151 2.052 . S
Co145 O153 2.135 . S
O146 Co145 2.061 . S
O146 C149 1.235 . S
C147 O150 1.238 . S
C147 O151 1.241 . S
C148 O141 1.247 . S
C148 O142 1.261 . S
C149 O144 1.259 . S
C149 O146 1.235 . S
O150 Co140 2.021 . S
O150 C147 1.238 . S
O151 Co145 2.052 . S
O151 C147 1.241 . S
O152 Co140 2.137 . S
O152 C143 1.247 . S
O153 Co140 2.244 . S
O153 C143 1.272 . S
O153 Co145 2.135 . S
Co154 O155 2.216 . S
Co154 O156 2.091 . S
Co154 O158 2.004 . S
Co154 O164 2.021 . S
Co154 O166 2.137 . S
Co154 O167 2.244 . S
O155 Co154 2.216 . S
O155 C162 1.247 . S
O156 Co154 2.091 . S
O156 C162 1.261 . S
C157 O166 1.247 . S
C157 O167 1.272 . S
O158 Co154 2.004 . S
O158 C163 1.259 . S
Co159 O160 2.061 . S
Co159 O165 2.052 . S
Co159 O167 2.135 . S
O160 Co159 2.061 . S
O160 C163 1.235 . S
C161 O164 1.238 . S
C161 O165 1.241 . S
C162 O155 1.247 . S
C162 O156 1.261 . S
C163 O158 1.259 . S
C163 O160 1.235 . S
O164 Co154 2.021 . S
O164 C161 1.238 . S
O165 Co159 2.052 . S
O165 C161 1.241 . S
O166 Co154 2.137 . S
O166 C157 1.247 . S
O167 Co154 2.244 . S
O167 C157 1.272 . S
O167 Co159 2.135 . S
Co168 O169 2.216 . S
Co168 O170 2.091 . S
Co168 O172 2.004 . S
Co168 O178 2.021 . S
Co168 O180 2.137 . S
Co168 O181 2.244 . S
O169 Co168 2.216 . S
O169 C176 1.247 . S
O170 Co168 2.091 . S
O170 C176 1.261 . S
C171 O180 1.247 . S
C171 O181 1.272 . S
O172 Co168 2.004 . S
O172 C177 1.259 . S
Co173 O174 2.061 . S
Co173 O179 2.052 . S
Co173 O181 2.135 . S
O174 Co173 2.061 . S
O174 C177 1.235 . S
C175 O178 1.238 . S
C175 O179 1.241 . S
C176 O169 1.247 . S
C176 O170 1.261 . S
C177 O172 1.259 . S
C177 O174 1.235 . S
O178 Co168 2.021 . S
O178 C175 1.238 . S
O179 Co173 2.052 . S
O179 C175 1.241 . S
O180 Co168 2.137 . S
O180 C171 1.247 . S
O181 Co168 2.244 . S
O181 C171 1.272 . S
O181 Co173 2.135 . S
Co182 O183 2.216 . S
Co182 O184 2.091 . S
Co182 O186 2.004 . S
Co182 O192 2.021 . S
Co182 O194 2.137 . S
Co182 O195 2.244 . S
O183 Co182 2.216 . S
O183 C190 1.247 . S
O184 Co182 2.091 . S
O184 C190 1.261 . S
C185 O194 1.247 . S
C185 O195 1.272 . S
O186 Co182 2.004 . S
O186 C191 1.259 . S
Co187 O188 2.061 . S
Co187 O193 2.052 . S
Co187 O195 2.135 . S
O188 Co187 2.061 . S
O188 C191 1.235 . S
C189 O192 1.238 . S
C189 O193 1.241 . S
C190 O183 1.247 . S
C190 O184 1.261 . S
C191 O186 1.259 . S
C191 O188 1.235 . S
O192 Co182 2.021 . S
O192 C189 1.238 . S
O193 Co187 2.052 . S
O193 C189 1.241 . S
O194 Co182 2.137 . S
O194 C185 1.247 . S
O195 Co182 2.244 . S
O195 C185 1.272 . S
O195 Co187 2.135 . S
Co196 O197 2.216 . S
Co196 O198 2.091 . S
Co196 O200 2.004 . S
Co196 O206 2.021 . S
Co196 O208 2.137 . S
Co196 O209 2.244 . S
O197 Co196 2.216 . S
O197 C204 1.247 . S
O198 Co196 2.091 . S
O198 C204 1.261 . S
C199 O208 1.247 . S
C199 O209 1.272 . S
O200 Co196 2.004 . S
O200 C205 1.259 . S
Co201 O202 2.061 . S
Co201 O207 2.052 . S
Co201 O209 2.135 . S
O202 Co201 2.061 . S
O202 C205 1.235 . S
C203 O206 1.238 . S
C203 O207 1.241 . S
C204 O197 1.247 . S
C204 O198 1.261 . S
C205 O200 1.259 . S
C205 O202 1.235 . S
O206 Co196 2.021 . S
O206 C203 1.238 . S
O207 Co201 2.052 . S
O207 C203 1.241 . S
O208 Co196 2.137 . S
O208 C199 1.247 . S
O209 Co196 2.244 . S
O209 C199 1.272 . S
O209 Co201 2.135 . S
Co210 O211 2.216 . S
Co210 O212 2.091 . S
Co210 O214 2.004 . S
Co210 O220 2.021 . S
Co210 O222 2.137 . S
Co210 O223 2.244 . S
O211 Co210 2.216 . S
O211 C218 1.247 . S
O212 Co210 2.091 . S
O212 C218 1.261 . S
C213 O222 1.247 . S
C213 O223 1.272 . S
O214 Co210 2.004 . S
O214 C219 1.259 . S
Co215 O216 2.061 . S
Co215 O221 2.052 . S
Co215 O223 2.135 . S
O216 Co215 2.061 . S
O216 C219 1.235 . S
C217 O220 1.238 . S
C217 O221 1.241 . S
C218 O211 1.247 . S
C218 O212 1.261 . S
C219 O214 1.259 . S
C219 O216 1.235 . S
O220 Co210 2.021 . S
O220 C217 1.238 . S
O221 Co215 2.052 . S
O221 C217 1.241 . S
O222 Co210 2.137 . S
O222 C213 1.247 . S
O223 Co210 2.244 . S
O223 C213 1.272 . S
O223 Co215 2.135 . S
C224 C225 1.349 . S
C224 C226 1.327 . S
C224 H249 0.950 . S
C225 C224 1.349 . S
C225 C241 1.349 . S
C226 C224 1.327 . S
C226 C245 1.429 . S
C226 H250 0.950 . S
C227 C244 1.574 . S
C227 C246 1.368 . S
C227 H251 0.949 . S
H228 C232 0.949 . S
C229 C230 1.349 . S
C229 C231 1.327 . S
C229 H252 0.950 . S
C230 C229 1.349 . S
C230 C242 1.349 . S
C231 C229 1.327 . S
C231 C247 1.429 . S
C231 H253 0.950 . S
C232 H228 0.949 . S
C232 C240 1.574 . S
C232 C248 1.368 . S
H233 C241 0.950 . S
H234 C239 0.950 . S
H235 C240 0.949 . S
H236 C242 0.950 . S
H237 C243 0.950 . S
H238 C244 0.949 . S
C239 H234 0.950 . S
C239 C241 1.327 . S
C239 C245 1.429 . S
C240 C232 1.574 . S
C240 H235 0.949 . S
C240 C246 1.368 . S
C241 C225 1.349 . S
C241 H233 0.950 . S
C241 C239 1.327 . S
C242 C230 1.349 . S
C242 H236 0.950 . S
C242 C243 1.327 . S
C243 H237 0.950 . S
C243 C242 1.327 . S
C243 C247 1.429 . S
C244 C227 1.574 . S
C244 H238 0.949 . S
C244 C248 1.368 . S
C245 C226 1.429 . S
C245 C239 1.429 . S
C245 C246 1.523 . S
C246 C227 1.368 . S
C246 C240 1.368 . S
C246 C245 1.523 . S
C247 C231 1.429 . S
C247 C243 1.429 . S
C247 C248 1.523 . S
C248 C232 1.368 . S
C248 C244 1.368 . S
C248 C247 1.523 . S
H249 C224 0.950 . S
H250 C226 0.950 . S
H251 C227 0.949 . S
H252 C229 0.950 . S
H253 C231 0.950 . S
C254 C255 1.349 . S
C254 C256 1.327 . S
C254 H279 0.950 . S
C255 C254 1.349 . S
C255 C271 1.349 . S
C256 C254 1.327 . S
C256 C275 1.429 . S
C256 H280 0.950 . S
C257 C274 1.574 . S
C257 C276 1.368 . S
C257 H281 0.949 . S
H258 C262 0.949 . S
C259 C260 1.349 . S
C259 C261 1.327 . S
C259 H282 0.950 . S
C260 C259 1.349 . S
C260 C272 1.349 . S
C261 C259 1.327 . S
C261 C277 1.429 . S
C261 H283 0.950 . S
C262 H258 0.949 . S
C262 C270 1.574 . S
C262 C278 1.368 . S
H263 C271 0.950 . S
H264 C269 0.950 . S
H265 C270 0.949 . S
H266 C272 0.950 . S
H267 C273 0.950 . S
H268 C274 0.949 . S
C269 H264 0.950 . S
C269 C271 1.327 . S
C269 C275 1.429 . S
C270 C262 1.574 . S
C270 H265 0.949 . S
C270 C276 1.368 . S
C271 C255 1.349 . S
C271 H263 0.950 . S
C271 C269 1.327 . S
C272 C260 1.349 . S
C272 H266 0.950 . S
C272 C273 1.327 . S
C273 H267 0.950 . S
C273 C272 1.327 . S
C273 C277 1.429 . S
C274 C257 1.574 . S
C274 H268 0.949 . S
C274 C278 1.368 . S
C275 C256 1.429 . S
C275 C269 1.429 . S
C275 C276 1.523 . S
C276 C257 1.368 . S
C276 C270 1.368 . S
C276 C275 1.523 . S
C277 C261 1.429 . S
C277 C273 1.429 . S
C277 C278 1.523 . S
C278 C262 1.368 . S
C278 C274 1.368 . S
C278 C277 1.523 . S
H279 C254 0.950 . S
H280 C256 0.950 . S
H281 C257 0.949 . S
H282 C259 0.950 . S
H283 C261 0.950 . S
C284 C285 1.349 . S
C284 C286 1.327 . S
C284 H309 0.950 . S
C285 C284 1.349 . S
C285 C301 1.349 . S
C286 C284 1.327 . S
C286 C305 1.429 . S
C286 H310 0.950 . S
C287 C304 1.574 . S
C287 C306 1.368 . S
C287 H311 0.949 . S
H288 C292 0.949 . S
C289 C290 1.349 . S
C289 C291 1.327 . S
C289 H312 0.950 . S
C290 C289 1.349 . S
C290 C302 1.349 . S
C291 C289 1.327 . S
C291 C307 1.429 . S
C291 H313 0.950 . S
C292 H288 0.949 . S
C292 C300 1.574 . S
C292 C308 1.368 . S
H293 C301 0.950 . S
H294 C299 0.950 . S
H295 C300 0.949 . S
H296 C302 0.950 . S
H297 C303 0.950 . S
H298 C304 0.949 . S
C299 H294 0.950 . S
C299 C301 1.327 . S
C299 C305 1.429 . S
C300 C292 1.574 . S
C300 H295 0.949 . S
C300 C306 1.368 . S
C301 C285 1.349 . S
C301 H293 0.950 . S
C301 C299 1.327 . S
C302 C290 1.349 . S
C302 H296 0.950 . S
C302 C303 1.327 . S
C303 H297 0.950 . S
C303 C302 1.327 . S
C303 C307 1.429 . S
C304 C287 1.574 . S
C304 H298 0.949 . S
C304 C308 1.368 . S
C305 C286 1.429 . S
C305 C299 1.429 . S
C305 C306 1.523 . S
C306 C287 1.368 . S
C306 C300 1.368 . S
C306 C305 1.523 . S
C307 C291 1.429 . S
C307 C303 1.429 . S
C307 C308 1.523 . S
C308 C292 1.368 . S
C308 C304 1.368 . S
C308 C307 1.523 . S
H309 C284 0.950 . S
H310 C286 0.950 . S
H311 C287 0.949 . S
H312 C289 0.950 . S
H313 C291 0.950 . S
C314 C315 1.349 . S
C314 C316 1.327 . S
C314 H339 0.950 . S
C315 C314 1.349 . S
C315 C331 1.349 . S
C316 C314 1.327 . S
C316 C335 1.429 . S
C316 H340 0.950 . S
C317 C334 1.574 . S
C317 C336 1.368 . S
C317 H341 0.949 . S
H318 C322 0.949 . S
C319 C320 1.349 . S
C319 C321 1.327 . S
C319 H342 0.950 . S
C320 C319 1.349 . S
C320 C332 1.349 . S
C321 C319 1.327 . S
C321 C337 1.429 . S
C321 H343 0.950 . S
C322 H318 0.949 . S
C322 C330 1.574 . S
C322 C338 1.368 . S
H323 C331 0.950 . S
H324 C329 0.950 . S
H325 C330 0.949 . S
H326 C332 0.950 . S
H327 C333 0.950 . S
H328 C334 0.949 . S
C329 H324 0.950 . S
C329 C331 1.327 . S
C329 C335 1.429 . S
C330 C322 1.574 . S
C330 H325 0.949 . S
C330 C336 1.368 . S
C331 C315 1.349 . S
C331 H323 0.950 . S
C331 C329 1.327 . S
C332 C320 1.349 . S
C332 H326 0.950 . S
C332 C333 1.327 . S
C333 H327 0.950 . S
C333 C332 1.327 . S
C333 C337 1.429 . S
C334 C317 1.574 . S
C334 H328 0.949 . S
C334 C338 1.368 . S
C335 C316 1.429 . S
C335 C329 1.429 . S
C335 C336 1.523 . S
C336 C317 1.368 . S
C336 C330 1.368 . S
C336 C335 1.523 . S
C337 C321 1.429 . S
C337 C333 1.429 . S
C337 C338 1.523 . S
C338 C322 1.368 . S
C338 C334 1.368 . S
C338 C337 1.523 . S
H339 C314 0.950 . S
H340 C316 0.950 . S
H341 C317 0.949 . S
H342 C319 0.950 . S
H343 C321 0.950 . S
C344 C345 1.349 . S
C344 C346 1.327 . S
C344 H369 0.950 . S
C345 C344 1.349 . S
C345 C361 1.349 . S
C346 C344 1.327 . S
C346 C365 1.429 . S
C346 H370 0.950 . S
C347 C364 1.574 . S
C347 C366 1.368 . S
C347 H371 0.949 . S
H348 C352 0.949 . S
C349 C350 1.349 . S
C349 C351 1.327 . S
C349 H372 0.950 . S
C350 C349 1.349 . S
C350 C362 1.349 . S
C351 C349 1.327 . S
C351 C367 1.429 . S
C351 H373 0.950 . S
C352 H348 0.949 . S
C352 C360 1.574 . S
C352 C368 1.368 . S
H353 C361 0.950 . S
H354 C359 0.950 . S
H355 C360 0.949 . S
H356 C362 0.950 . S
H357 C363 0.950 . S
H358 C364 0.949 . S
C359 H354 0.950 . S
C359 C361 1.327 . S
C359 C365 1.429 . S
C360 C352 1.574 . S
C360 H355 0.949 . S
C360 C366 1.368 . S
C361 C345 1.349 . S
C361 H353 0.950 . S
C361 C359 1.327 . S
C362 C350 1.349 . S
C362 H356 0.950 . S
C362 C363 1.327 . S
C363 H357 0.950 . S
C363 C362 1.327 . S
C363 C367 1.429 . S
C364 C347 1.574 . S
C364 H358 0.949 . S
C364 C368 1.368 . S
C365 C346 1.429 . S
C365 C359 1.429 . S
C365 C366 1.523 . S
C366 C347 1.368 . S
C366 C360 1.368 . S
C366 C365 1.523 . S
C367 C351 1.429 . S
C367 C363 1.429 . S
C367 C368 1.523 . S
C368 C352 1.368 . S
C368 C364 1.368 . S
C368 C367 1.523 . S
H369 C344 0.950 . S
H370 C346 0.950 . S
H371 C347 0.949 . S
H372 C349 0.950 . S
H373 C351 0.950 . S
C374 C375 1.349 . S
C374 C376 1.327 . S
C374 H399 0.950 . S
C375 C374 1.349 . S
C375 C391 1.349 . S
C376 C374 1.327 . S
C376 C395 1.429 . S
C376 H400 0.950 . S
C377 C394 1.574 . S
C377 C396 1.368 . S
C377 H401 0.949 . S
H378 C382 0.949 . S
C379 C380 1.349 . S
C379 C381 1.327 . S
C379 H402 0.950 . S
C380 C379 1.349 . S
C380 C392 1.349 . S
C381 C379 1.327 . S
C381 C397 1.429 . S
C381 H403 0.950 . S
C382 H378 0.949 . S
C382 C390 1.574 . S
C382 C398 1.368 . S
H383 C391 0.950 . S
H384 C389 0.950 . S
H385 C390 0.949 . S
H386 C392 0.950 . S
H387 C393 0.950 . S
H388 C394 0.949 . S
C389 H384 0.950 . S
C389 C391 1.327 . S
C389 C395 1.429 . S
C390 C382 1.574 . S
C390 H385 0.949 . S
C390 C396 1.368 . S
C391 C375 1.349 . S
C391 H383 0.950 . S
C391 C389 1.327 . S
C392 C380 1.349 . S
C392 H386 0.950 . S
C392 C393 1.327 . S
C393 H387 0.950 . S
C393 C392 1.327 . S
C393 C397 1.429 . S
C394 C377 1.574 . S
C394 H388 0.949 . S
C394 C398 1.368 . S
C395 C376 1.429 . S
C395 C389 1.429 . S
C395 C396 1.523 . S
C396 C377 1.368 . S
C396 C390 1.368 . S
C396 C395 1.523 . S
C397 C381 1.429 . S
C397 C393 1.429 . S
C397 C398 1.523 . S
C398 C382 1.368 . S
C398 C394 1.368 . S
C398 C397 1.523 . S
H399 C374 0.950 . S
H400 C376 0.950 . S
H401 C377 0.949 . S
H402 C379 0.950 . S
H403 C381 0.950 . S
C404 C405 1.349 . S
C404 C406 1.327 . S
C404 H429 0.950 . S
C405 C404 1.349 . S
C405 C421 1.349 . S
C406 C404 1.327 . S
C406 C425 1.429 . S
C406 H430 0.950 . S
C407 C424 1.574 . S
C407 C426 1.368 . S
C407 H431 0.949 . S
H408 C412 0.949 . S
C409 C410 1.349 . S
C409 C411 1.327 . S
C409 H432 0.950 . S
C410 C409 1.349 . S
C410 C422 1.349 . S
C411 C409 1.327 . S
C411 C427 1.429 . S
C411 H433 0.950 . S
C412 H408 0.949 . S
C412 C420 1.574 . S
C412 C428 1.368 . S
H413 C421 0.950 . S
H414 C419 0.950 . S
H415 C420 0.949 . S
H416 C422 0.950 . S
H417 C423 0.950 . S
H418 C424 0.949 . S
C419 H414 0.950 . S
C419 C421 1.327 . S
C419 C425 1.429 . S
C420 C412 1.574 . S
C420 H415 0.949 . S
C420 C426 1.368 . S
C421 C405 1.349 . S
C421 H413 0.950 . S
C421 C419 1.327 . S
C422 C410 1.349 . S
C422 H416 0.950 . S
C422 C423 1.327 . S
C423 H417 0.950 . S
C423 C422 1.327 . S
C423 C427 1.429 . S
C424 C407 1.574 . S
C424 H418 0.949 . S
C424 C428 1.368 . S
C425 C406 1.429 . S
C425 C419 1.429 . S
C425 C426 1.523 . S
C426 C407 1.368 . S
C426 C420 1.368 . S
C426 C425 1.523 . S
C427 C411 1.429 . S
C427 C423 1.429 . S
C427 C428 1.523 . S
C428 C412 1.368 . S
C428 C424 1.368 . S
C428 C427 1.523 . S
H429 C404 0.950 . S
H430 C406 0.950 . S
H431 C407 0.949 . S
H432 C409 0.950 . S
H433 C411 0.950 . S
C434 C435 1.349 . S
C434 C436 1.327 . S
C434 H459 0.950 . S
C435 C434 1.349 . S
C435 C451 1.349 . S
C436 C434 1.327 . S
C436 C455 1.429 . S
C436 H460 0.950 . S
C437 C454 1.574 . S
C437 C456 1.368 . S
C437 H461 0.949 . S
H438 C442 0.949 . S
C439 C440 1.349 . S
C439 C441 1.327 . S
C439 H462 0.950 . S
C440 C439 1.349 . S
C440 C452 1.349 . S
C441 C439 1.327 . S
C441 C457 1.429 . S
C441 H463 0.950 . S
C442 H438 0.949 . S
C442 C450 1.574 . S
C442 C458 1.368 . S
H443 C451 0.950 . S
H444 C449 0.950 . S
H445 C450 0.949 . S
H446 C452 0.950 . S
H447 C453 0.950 . S
H448 C454 0.949 . S
C449 H444 0.950 . S
C449 C451 1.327 . S
C449 C455 1.429 . S
C450 C442 1.574 . S
C450 H445 0.949 . S
C450 C456 1.368 . S
C451 C435 1.349 . S
C451 H443 0.950 . S
C451 C449 1.327 . S
C452 C440 1.349 . S
C452 H446 0.950 . S
C452 C453 1.327 . S
C453 H447 0.950 . S
C453 C452 1.327 . S
C453 C457 1.429 . S
C454 C437 1.574 . S
C454 H448 0.949 . S
C454 C458 1.368 . S
C455 C436 1.429 . S
C455 C449 1.429 . S
C455 C456 1.523 . S
C456 C437 1.368 . S
C456 C450 1.368 . S
C456 C455 1.523 . S
C457 C441 1.429 . S
C457 C453 1.429 . S
C457 C458 1.523 . S
C458 C442 1.368 . S
C458 C454 1.368 . S
C458 C457 1.523 . S
H459 C434 0.950 . S
H460 C436 0.950 . S
H461 C437 0.949 . S
H462 C439 0.950 . S
H463 C441 0.950 . S
C464 C465 1.349 . S
C464 C466 1.327 . S
C464 H489 0.950 . S
C465 C464 1.349 . S
C465 C481 1.349 . S
C466 C464 1.327 . S
C466 C485 1.429 . S
C466 H490 0.950 . S
C467 C484 1.574 . S
C467 C486 1.368 . S
C467 H491 0.949 . S
H468 C472 0.949 . S
C469 C470 1.349 1_655 S
C469 C471 1.327 . S
C469 H492 0.950 . S
C470 C469 1.349 1_455 S
C470 C482 1.349 . S
C471 C469 1.327 . S
C471 C487 1.429 . S
C471 H493 0.950 . S
C472 H468 0.949 . S
C472 C480 1.574 . S
C472 C488 1.368 . S
H473 C481 0.950 . S
H474 C479 0.950 . S
H475 C480 0.949 . S
H476 C482 0.950 . S
H477 C483 0.950 . S
H478 C484 0.949 . S
C479 H474 0.950 . S
C479 C481 1.327 . S
C479 C485 1.429 . S
C480 C472 1.574 . S
C480 H475 0.949 . S
C480 C486 1.368 . S
C481 C465 1.349 . S
C481 H473 0.950 . S
C481 C479 1.327 . S
C482 C470 1.349 . S
C482 H476 0.950 . S
C482 C483 1.327 . S
C483 H477 0.950 . S
C483 C482 1.327 . S
C483 C487 1.429 1_455 S
C484 C467 1.574 . S
C484 H478 0.949 . S
C484 C488 1.368 . S
C485 C466 1.429 . S
C485 C479 1.429 . S
C485 C486 1.523 . S
C486 C467 1.368 . S
C486 C480 1.368 . S
C486 C485 1.523 . S
C487 C471 1.429 . S
C487 C483 1.429 1_655 S
C487 C488 1.523 . S
C488 C472 1.368 . S
C488 C484 1.368 . S
C488 C487 1.523 . S
H489 C464 0.950 . S
H490 C466 0.950 . S
H491 C467 0.949 . S
H492 C469 0.950 . S
H493 C471 0.950 . S
C494 C495 1.349 . S
C494 C496 1.327 . S
C494 H519 0.950 . S
C495 C494 1.349 . S
C495 C511 1.349 1_545 S
C496 C494 1.327 . S
C496 C515 1.429 1_545 S
C496 H520 0.950 . S
C497 C514 1.574 . S
C497 C516 1.368 . S
C497 H521 0.949 . S
H498 C502 0.949 . S
C499 C500 1.349 . S
C499 C501 1.327 . S
C499 H522 0.950 . S
C500 C499 1.349 . S
C500 C512 1.349 1_455 S
C501 C499 1.327 . S
C501 C517 1.429 1_455 S
C501 H523 0.950 . S
C502 H498 0.949 . S
C502 C510 1.574 . S
C502 C518 1.368 . S
H503 C511 0.950 . S
H504 C509 0.950 . S
H505 C510 0.949 . S
H506 C512 0.950 . S
H507 C513 0.950 . S
H508 C514 0.978 . S
C509 H504 0.950 . S
C509 C511 1.327 . S
C509 C515 1.429 . S
C510 C502 1.574 . S
C510 H505 0.949 . S
C510 C516 1.368 . S
C511 C495 1.349 1_565 S
C511 H503 0.950 . S
C511 C509 1.327 . S
C512 C500 1.349 1_655 S
C512 H506 0.950 . S
C512 C513 1.327 . S
C513 H507 0.950 . S
C513 C512 1.327 . S
C513 C517 1.429 . S
C514 C497 1.574 . S
C514 H508 0.978 . S
C514 C518 1.368 . S
C515 C496 1.429 1_565 S
C515 C509 1.429 . S
C515 C516 1.523 . S
C516 C497 1.368 . S
C516 C510 1.368 . S
C516 C515 1.523 . S
C517 C501 1.429 1_655 S
C517 C513 1.429 . S
C517 C518 1.523 . S
C518 C502 1.368 . S
C518 C514 1.368 . S
C518 C517 1.523 . S
H519 C494 0.950 . S
H520 C496 0.950 . S
H521 C497 0.949 . S
H522 C499 0.950 . S
H523 C501 0.950 . S
C524 C525 1.349 1_565 S
C524 C526 1.327 . S
C524 H549 0.950 . S
C525 C524 1.349 1_545 S
C525 C541 1.349 . S
C526 C524 1.327 . S
C526 C545 1.429 . S
C526 H550 0.950 . S
C527 C544 1.574 . S
C527 C546 1.368 . S
C527 H551 0.949 1_565 S
H528 C532 0.949 . S
C529 C530 1.349 . S
C529 C531 1.327 . S
C529 H552 0.950 . S
C530 C529 1.349 . S
C530 C542 1.349 . S
C531 C529 1.327 . S
C531 C547 1.429 . S
C531 H553 0.950 . S
C532 H528 0.949 . S
C532 C540 1.574 . S
C532 C548 1.368 . S
H533 C541 0.950 . S
H534 C539 0.950 . S
H535 C540 0.949 . S
H536 C542 0.950 . S
H537 C543 0.950 . S
H538 C544 0.949 . S
C539 H534 0.950 . S
C539 C541 1.327 . S
C539 C545 1.429 1_545 S
C540 C532 1.574 . S
C540 H535 0.949 . S
C540 C546 1.368 . S
C541 C525 1.349 . S
C541 H533 0.950 . S
C541 C539 1.327 . S
C542 C530 1.349 . S
C542 H536 0.950 . S
C542 C543 1.327 . S
C543 H537 0.950 . S
C543 C542 1.327 . S
C543 C547 1.429 . S
C544 C527 1.574 . S
C544 H538 0.949 . S
C544 C548 1.368 . S
C545 C526 1.429 . S
C545 C539 1.429 1_565 S
C545 C546 1.523 . S
C546 C527 1.368 . S
C546 C540 1.368 . S
C546 C545 1.523 . S
C547 C531 1.429 . S
C547 C543 1.429 . S
C547 C548 1.523 . S
C548 C532 1.368 . S
C548 C544 1.368 . S
C548 C547 1.523 . S
H549 C524 0.950 . S
H550 C526 0.950 . S
H551 C527 0.949 1_545 S
H552 C529 0.950 . S
H553 C531 0.950 . S
C554 C555 1.349 . S
C554 C556 1.327 . S
C554 H579 0.950 . S
C555 C554 1.349 . S
C555 C571 1.349 . S
C556 C554 1.327 . S
C556 C575 1.429 . S
C556 H580 0.950 . S
C557 C574 1.574 . S
C557 C576 1.368 . S
C557 H581 0.949 . S
H558 C562 0.949 . S
C559 C560 1.349 . S
C559 C561 1.327 . S
C559 H582 0.950 . S
C560 C559 1.349 . S
C560 C572 1.349 . S
C561 C559 1.327 . S
C561 C577 1.429 . S
C561 H583 0.950 . S
C562 H558 0.949 . S
C562 C570 1.574 . S
C562 C578 1.368 . S
H563 C571 0.950 . S
H564 C569 0.950 . S
H565 C570 0.949 . S
H566 C572 0.950 . S
H567 C573 0.950 . S
H568 C574 0.949 . S
C569 H564 0.950 . S
C569 C571 1.327 . S
C569 C575 1.429 . S
C570 C562 1.574 . S
C570 H565 0.949 . S
C570 C576 1.368 . S
C571 C555 1.349 . S
C571 H563 0.950 . S
C571 C569 1.327 . S
C572 C560 1.349 . S
C572 H566 0.950 . S
C572 C573 1.327 . S
C573 H567 0.950 . S
C573 C572 1.327 . S
C573 C577 1.429 . S
C574 C557 1.574 . S
C574 H568 0.949 . S
C574 C578 1.368 . S
C575 C556 1.429 . S
C575 C569 1.429 . S
C575 C576 1.523 . S
C576 C557 1.368 . S
C576 C570 1.368 . S
C576 C575 1.523 . S
C577 C561 1.429 . S
C577 C573 1.429 . S
C577 C578 1.523 . S
C578 C562 1.368 . S
C578 C574 1.368 . S
C578 C577 1.523 . S
H579 C554 0.950 . S
H580 C556 0.950 . S
H581 C557 0.949 . S
H582 C559 0.950 . S
H583 C561 0.950 . S
C584 C585 1.349 . S
C584 C586 1.327 . S
C584 H609 0.950 . S
C585 C584 1.349 . S
C585 C601 1.349 . S
C586 C584 1.327 . S
C586 C605 1.429 . S
C586 H610 0.950 . S
C587 C604 1.574 . S
C587 C606 1.368 . S
C587 H611 0.949 . S
H588 C592 0.949 . S
C589 C590 1.349 . S
C589 C591 1.327 . S
C589 H612 0.950 . S
C590 C589 1.349 . S
C590 C602 1.349 1_655 S
C591 C589 1.327 . S
C591 C607 1.429 1_655 S
C591 H613 0.950 . S
C592 H588 0.949 . S
C592 C600 1.574 . S
C592 C608 1.368 . S
H593 C601 0.950 . S
H594 C599 0.950 . S
H595 C600 0.949 . S
H596 C602 0.950 . S
H597 C603 0.950 . S
H598 C604 0.949 1_655 S
C599 H594 0.950 . S
C599 C601 1.327 . S
C599 C605 1.429 . S
C600 C592 1.574 . S
C600 H595 0.949 . S
C600 C606 1.368 . S
C601 C585 1.349 . S
C601 H593 0.950 . S
C601 C599 1.327 . S
C602 C590 1.349 1_455 S
C602 H596 0.950 . S
C602 C603 1.327 . S
C603 H597 0.950 . S
C603 C602 1.327 . S
C603 C607 1.429 . S
C604 C587 1.574 . S
C604 H598 0.949 1_455 S
C604 C608 1.368 . S
C605 C586 1.429 . S
C605 C599 1.429 . S
C605 C606 1.523 . S
C606 C587 1.368 . S
C606 C600 1.368 . S
C606 C605 1.523 . S
C607 C591 1.429 1_455 S
C607 C603 1.429 . S
C607 C608 1.523 . S
C608 C592 1.368 . S
C608 C604 1.368 . S
C608 C607 1.523 . S
H609 C584 0.950 . S
H610 C586 0.950 . S
H611 C587 0.949 . S
H612 C589 0.950 . S
H613 C591 0.950 . S
C614 C615 1.349 . S
C614 C616 1.327 . S
C614 H639 0.950 . S
C615 C614 1.349 . S
C615 C631 1.349 1_565 S
C616 C614 1.327 . S
C616 C635 1.429 1_565 S
C616 H640 0.950 . S
C617 C634 1.574 . S
C617 C636 1.368 . S
C617 H641 0.949 . S
H618 C622 0.949 . S
C619 C620 1.349 1_455 S
C619 C621 1.327 . S
C619 H642 0.950 . S
C620 C619 1.349 1_655 S
C620 C632 1.349 . S
C621 C619 1.327 . S
C621 C637 1.429 . S
C621 H643 0.950 . S
C622 H618 0.949 . S
C622 C630 1.574 . S
C622 C638 1.368 . S
H623 C631 0.950 . S
H624 C629 0.950 . S
H625 C630 0.949 1_565 S
H626 C632 0.950 . S
H627 C633 0.950 . S
H628 C634 0.949 . S
C629 H624 0.950 . S
C629 C631 1.327 . S
C629 C635 1.429 . S
C630 C622 1.574 . S
C630 H625 0.949 1_545 S
C630 C636 1.368 . S
C631 C615 1.349 1_545 S
C631 H623 0.950 . S
C631 C629 1.327 . S
C632 C620 1.349 . S
C632 H626 0.950 . S
C632 C633 1.327 . S
C633 H627 0.950 . S
C633 C632 1.327 . S
C633 C637 1.429 1_655 S
C634 C617 1.574 . S
C634 H628 0.949 . S
C634 C638 1.368 . S
C635 C616 1.429 1_545 S
C635 C629 1.429 . S
C635 C636 1.523 . S
C636 C617 1.368 . S
C636 C630 1.368 . S
C636 C635 1.523 . S
C637 C621 1.429 . S
C637 C633 1.429 1_455 S
C637 C638 1.523 . S
C638 C622 1.368 . S
C638 C634 1.368 . S
C638 C637 1.523 . S
H639 C614 0.950 . S
H640 C616 0.950 . S
H641 C617 0.949 . S
H642 C619 0.950 . S
H643 C621 0.950 . S
C644 C645 1.349 . S
C644 C646 1.327 . S
C644 H669 0.950 . S
C645 C644 1.349 . S
C645 C661 1.349 . S
C646 C644 1.327 . S
C646 C665 1.429 . S
C646 H670 0.950 . S
C647 C664 1.574 . S
C647 C666 1.368 . S
C647 H671 0.949 . S
H648 C652 0.949 . S
C649 C650 1.349 . S
C649 C651 1.327 . S
C649 H672 0.950 . S
C650 C649 1.349 . S
C650 C662 1.349 1_565 S
C651 C649 1.327 . S
C651 C667 1.429 1_565 S
C651 H673 0.950 . S
C652 H648 0.949 . S
C652 C660 1.574 . S
C652 C668 1.368 . S
H653 C661 0.950 . S
H654 C659 0.950 . S
H655 C660 0.949 . S
H656 C662 0.950 . S
H657 C663 0.950 . S
H658 C664 0.949 . S
C659 H654 0.950 . S
C659 C661 1.327 . S
C659 C665 1.429 . S
C660 C652 1.574 . S
C660 H655 0.949 . S
C660 C666 1.368 . S
C661 C645 1.349 . S
C661 H653 0.950 . S
C661 C659 1.327 . S
C662 C650 1.349 1_545 S
C662 H656 0.950 . S
C662 C663 1.327 . S
C663 H657 0.950 . S
C663 C662 1.327 . S
C663 C667 1.429 . S
C664 C647 1.574 . S
C664 H658 0.949 . S
C664 C668 1.368 . S
C665 C646 1.429 . S
C665 C659 1.429 . S
C665 C666 1.523 . S
C666 C647 1.368 . S
C666 C660 1.368 . S
C666 C665 1.523 . S
C667 C651 1.429 1_545 S
C667 C663 1.429 . S
C667 C668 1.523 . S
C668 C652 1.368 . S
C668 C664 1.368 . S
C668 C667 1.523 . S
H669 C644 0.950 . S
H670 C646 0.950 . S
H671 C647 0.949 . S
H672 C649 0.950 . S
H673 C651 0.950 . S
C674 C675 1.349 . S
C674 C676 1.327 . S
C674 H699 0.950 . S
C675 C674 1.349 . S
C675 C691 1.349 . S
C676 C674 1.327 . S
C676 C695 1.429 . S
C676 H700 0.950 . S
C677 C694 1.574 . S
C677 C696 1.368 . S
C677 H701 0.949 . S
H678 C682 0.949 . S
C679 C680 1.349 . S
C679 C681 1.327 . S
C679 H702 0.950 . S
C680 C679 1.349 . S
C680 C692 1.349 . S
C681 C679 1.327 . S
C681 C697 1.429 . S
C681 H703 0.950 . S
C682 H678 0.949 . S
C682 C690 1.574 . S
C682 C698 1.368 . S
H683 C691 0.950 . S
H684 C689 0.950 . S
H685 C690 0.949 . S
H686 C692 0.950 . S
H687 C693 0.950 . S
H688 C694 0.949 . S
C689 H684 0.950 . S
C689 C691 1.327 . S
C689 C695 1.429 . S
C690 C682 1.574 . S
C690 H685 0.949 . S
C690 C696 1.368 . S
C691 C675 1.349 . S
C691 H683 0.950 . S
C691 C689 1.327 . S
C692 C680 1.349 . S
C692 H686 0.950 . S
C692 C693 1.327 . S
C693 H687 0.950 . S
C693 C692 1.327 . S
C693 C697 1.429 . S
C694 C677 1.574 . S
C694 H688 0.949 . S
C694 C698 1.368 . S
C695 C676 1.429 . S
C695 C689 1.429 . S
C695 C696 1.523 . S
C696 C677 1.368 . S
C696 C690 1.368 . S
C696 C695 1.523 . S
C697 C681 1.429 . S
C697 C693 1.429 . S
C697 C698 1.523 . S
C698 C682 1.368 . S
C698 C694 1.368 . S
C698 C697 1.523 . S
H699 C674 0.950 . S
H700 C676 0.950 . S
H701 C677 0.949 . S
H702 C679 0.950 . S
H703 C681 0.950 . S
C704 C705 1.349 . S
C704 C706 1.327 . S
C704 H729 0.950 . S
C705 C704 1.349 . S
C705 C721 1.349 . S
C706 C704 1.327 . S
C706 C725 1.429 . S
C706 H730 0.950 . S
C707 C724 1.574 . S
C707 C726 1.368 . S
C707 H731 0.955 . S
H708 C712 0.949 . S
C709 C710 1.349 . S
C709 C711 1.327 . S
C709 H732 0.950 . S
C710 C709 1.349 . S
C710 C722 1.349 . S
C711 C709 1.327 . S
C711 C727 1.429 . S
C711 H733 0.959 . S
C712 H708 0.949 . S
C712 C720 1.574 . S
C712 C728 1.368 . S
H713 C721 0.950 . S
H714 C719 0.959 . S
H715 C720 0.949 . S
H716 C722 0.950 . S
H717 C723 0.950 . S
H718 C724 0.955 . S
C719 H714 0.959 . S
C719 C721 1.327 . S
C719 C725 1.429 . S
C720 C712 1.574 . S
C720 H715 0.949 . S
C720 C726 1.368 . S
C721 C705 1.349 . S
C721 H713 0.950 . S
C721 C719 1.327 . S
C722 C710 1.349 . S
C722 H716 0.950 . S
C722 C723 1.327 . S
C723 H717 0.950 . S
C723 C722 1.327 . S
C723 C727 1.429 . S
C724 C707 1.574 . S
C724 H718 0.955 . S
C724 C728 1.368 . S
C725 C706 1.429 . S
C725 C719 1.429 . S
C725 C726 1.523 . S
C726 C707 1.368 . S
C726 C720 1.368 . S
C726 C725 1.523 . S
C727 C711 1.429 . S
C727 C723 1.429 . S
C727 C728 1.523 . S
C728 C712 1.368 . S
C728 C724 1.368 . S
C728 C727 1.523 . S
H729 C704 0.950 . S
H730 C706 0.950 . S
H731 C707 0.955 . S
H732 C709 0.950 . S
H733 C711 0.959 . S
C734 C735 1.349 . S
C734 C736 1.327 . S
C734 H759 0.950 . S
C735 C734 1.349 . S
C735 C751 1.349 . S
C736 C734 1.327 . S
C736 C755 1.429 . S
C736 H760 0.950 . S
C737 C754 1.574 . S
C737 C756 1.367 . S
C737 H761 0.950 1_545 S
H738 C742 0.949 . S
C739 C740 1.349 . S
C739 C741 1.327 . S
C739 H762 0.950 1_545 S
C740 C739 1.349 . S
C740 C752 1.349 . S
C741 C739 1.327 . S
C741 C757 1.429 . S
C741 H763 0.950 1_545 S
C742 H738 0.949 . S
C742 C750 1.574 . S
C742 C758 1.368 . S
H743 C751 0.950 1_565 S
H744 C749 0.950 1_565 S
H745 C750 0.949 . S
H746 C752 0.950 . S
H747 C753 0.950 . S
H748 C754 0.950 1_565 S
C749 H744 0.950 1_545 S
C749 C751 1.327 . S
C749 C755 1.429 . S
C750 C742 1.574 . S
C750 H745 0.949 . S
C750 C756 1.368 . S
C751 C735 1.349 . S
C751 H743 0.950 1_545 S
C751 C749 1.327 . S
C752 C740 1.349 . S
C752 H746 0.950 . S
C752 C753 1.327 . S
C753 H747 0.950 . S
C753 C752 1.327 . S
C753 C757 1.429 . S
C754 C737 1.574 . S
C754 H748 0.950 1_545 S
C754 C758 1.367 . S
C755 C736 1.429 . S
C755 C749 1.429 . S
C755 C756 1.523 . S
C756 C737 1.367 . S
C756 C750 1.368 . S
C756 C755 1.523 . S
C757 C741 1.429 . S
C757 C753 1.429 . S
C757 C758 1.523 . S
C758 C742 1.368 . S
C758 C754 1.367 . S
C758 C757 1.523 . S
H759 C734 0.950 . S
H760 C736 0.950 . S
H761 C737 0.950 1_565 S
H762 C739 0.950 1_565 S
H763 C741 0.950 1_565 S
C764 C765 1.349 . S
C764 C766 1.327 . S
C764 H789 0.950 . S
C765 C764 1.349 . S
C765 C781 1.349 . S
C766 C764 1.327 . S
C766 C785 1.429 . S
C766 H790 0.950 . S
C767 C784 1.574 . S
C767 C786 1.368 . S
C767 H791 0.949 . S
H768 C772 0.949 . S
C769 C770 1.349 . S
C769 C771 1.327 . S
C769 H792 0.950 . S
C770 C769 1.349 . S
C770 C782 1.349 . S
C771 C769 1.327 . S
C771 C787 1.429 . S
C771 H793 0.950 . S
C772 H768 0.949 . S
C772 C780 1.574 . S
C772 C788 1.368 . S
H773 C781 0.950 . S
H774 C779 0.950 . S
H775 C780 0.949 . S
H776 C782 0.950 . S
H777 C783 0.950 . S
H778 C784 0.949 . S
C779 H774 0.950 . S
C779 C781 1.327 . S
C779 C785 1.429 . S
C780 C772 1.574 . S
C780 H775 0.949 . S
C780 C786 1.368 . S
C781 C765 1.349 . S
C781 H773 0.950 . S
C781 C779 1.327 . S
C782 C770 1.349 . S
C782 H776 0.950 . S
C782 C783 1.327 . S
C783 H777 0.950 . S
C783 C782 1.327 . S
C783 C787 1.429 . S
C784 C767 1.574 . S
C784 H778 0.949 . S
C784 C788 1.368 . S
C785 C766 1.429 . S
C785 C779 1.429 . S
C785 C786 1.523 . S
C786 C767 1.368 . S
C786 C780 1.368 . S
C786 C785 1.523 . S
C787 C771 1.429 . S
C787 C783 1.429 . S
C787 C788 1.523 . S
C788 C772 1.368 . S
C788 C784 1.368 . S
C788 C787 1.523 . S
H789 C764 0.950 . S
H790 C766 0.950 . S
H791 C767 0.949 . S
H792 C769 0.950 . S
H793 C771 0.950 . S
C794 C795 1.349 . S
C794 C796 1.327 . S
C794 H819 0.950 . S
C795 C794 1.349 . S
C795 C811 1.349 . S
C796 C794 1.327 . S
C796 C815 1.429 . S
C796 H820 0.950 . S
C797 C814 1.574 . S
C797 C816 1.368 . S
C797 H821 0.949 . S
H798 C802 0.949 . S
C799 C800 1.349 . S
C799 C801 1.327 . S
C799 H822 0.950 . S
C800 C799 1.349 . S
C800 C812 1.349 . S
C801 C799 1.327 . S
C801 C817 1.429 . S
C801 H823 0.950 . S
C802 H798 0.949 . S
C802 C810 1.574 . S
C802 C818 1.368 . S
H803 C811 0.950 . S
H804 C809 0.950 . S
H805 C810 0.949 . S
H806 C812 0.950 . S
H807 C813 0.950 . S
H808 C814 0.949 . S
C809 H804 0.950 . S
C809 C811 1.327 . S
C809 C815 1.429 . S
C810 C802 1.574 . S
C810 H805 0.949 . S
C810 C816 1.368 . S
C811 C795 1.349 . S
C811 H803 0.950 . S
C811 C809 1.327 . S
C812 C800 1.349 . S
C812 H806 0.950 . S
C812 C813 1.327 . S
C813 H807 0.950 . S
C813 C812 1.327 . S
C813 C817 1.429 . S
C814 C797 1.574 . S
C814 H808 0.949 . S
C814 C818 1.368 . S
C815 C796 1.429 . S
C815 C809 1.429 . S
C815 C816 1.523 . S
C816 C797 1.368 . S
C816 C810 1.368 . S
C816 C815 1.523 . S
C817 C801 1.429 . S
C817 C813 1.429 . S
C817 C818 1.523 . S
C818 C802 1.368 . S
C818 C814 1.368 . S
C818 C817 1.523 . S
H819 C794 0.950 . S
H820 C796 0.950 . S
H821 C797 0.949 . S
H822 C799 0.950 . S
H823 C801 0.950 . S
C824 C825 1.349 . S
C824 C826 1.327 . S
C824 H849 0.950 1_655 S
C825 C824 1.349 . S
C825 C841 1.349 . S
C826 C824 1.327 . S
C826 C845 1.429 . S
C826 H850 0.950 1_655 S
C827 C844 1.574 . S
C827 C846 1.368 . S
C827 H851 0.949 . S
H828 C832 0.949 1_455 S
C829 C830 1.349 . S
C829 C831 1.327 . S
C829 H852 0.950 . S
C830 C829 1.349 . S
C830 C842 1.349 . S
C831 C829 1.327 . S
C831 C847 1.429 . S
C831 H853 0.950 . S
C832 H828 0.949 1_655 S
C832 C840 1.574 . S
C832 C848 1.368 . S
H833 C841 0.950 . S
H834 C839 0.950 . S
H835 C840 0.949 1_455 S
H836 C842 0.950 1_455 S
H837 C843 0.950 1_455 S
H838 C844 0.949 . S
C839 H834 0.950 . S
C839 C841 1.327 . S
C839 C845 1.429 . S
C840 C832 1.574 . S
C840 H835 0.949 1_655 S
C840 C846 1.368 . S
C841 C825 1.349 . S
C841 H833 0.950 . S
C841 C839 1.327 . S
C842 C830 1.349 . S
C842 H836 0.950 1_655 S
C842 C843 1.327 . S
C843 H837 0.950 1_655 S
C843 C842 1.327 . S
C843 C847 1.429 . S
C844 C827 1.574 . S
C844 H838 0.949 . S
C844 C848 1.368 . S
C845 C826 1.429 . S
C845 C839 1.429 . S
C845 C846 1.523 . S
C846 C827 1.368 . S
C846 C840 1.368 . S
C846 C845 1.523 . S
C847 C831 1.429 . S
C847 C843 1.429 . S
C847 C848 1.523 . S
C848 C832 1.368 . S
C848 C844 1.368 . S
C848 C847 1.523 . S
H849 C824 0.950 1_455 S
H850 C826 0.950 1_455 S
H851 C827 0.949 . S
H852 C829 0.950 . S
H853 C831 0.950 . S
C854 C855 1.349 . S
C854 C856 1.327 . S
C854 H879 0.950 1_565 S
C855 C854 1.349 . S
C855 C871 1.349 . S
C856 C854 1.327 . S
C856 C875 1.429 . S
C856 H880 0.950 1_565 S
C857 C874 1.574 . S
C857 C876 1.368 . S
C857 H881 0.949 . S
H858 C862 0.950 1_545 S
C859 C860 1.349 . S
C859 C861 1.327 . S
C859 H882 0.950 . S
C860 C859 1.349 . S
C860 C872 1.349 . S
C861 C859 1.327 . S
C861 C877 1.429 . S
C861 H883 0.950 . S
C862 H858 0.950 1_565 S
C862 C870 1.574 . S
C862 C878 1.367 . S
H863 C871 0.950 . S
H864 C869 0.950 . S
H865 C870 0.950 1_545 S
H866 C872 0.950 1_545 S
H867 C873 0.950 1_545 S
H868 C874 0.949 . S
C869 H864 0.950 . S
C869 C871 1.327 . S
C869 C875 1.429 . S
C870 C862 1.574 . S
C870 H865 0.950 1_565 S
C870 C876 1.367 . S
C871 C855 1.349 . S
C871 H863 0.950 . S
C871 C869 1.327 . S
C872 C860 1.349 . S
C872 H866 0.950 1_565 S
C872 C873 1.327 . S
C873 H867 0.950 1_565 S
C873 C872 1.327 . S
C873 C877 1.429 . S
C874 C857 1.574 . S
C874 H868 0.949 . S
C874 C878 1.368 . S
C875 C856 1.429 . S
C875 C869 1.429 . S
C875 C876 1.523 . S
C876 C857 1.368 . S
C876 C870 1.367 . S
C876 C875 1.523 . S
C877 C861 1.429 . S
C877 C873 1.429 . S
C877 C878 1.523 . S
C878 C862 1.367 . S
C878 C874 1.368 . S
C878 C877 1.523 . S
H879 C854 0.950 1_545 S
H880 C856 0.950 1_545 S
H881 C857 0.949 . S
H882 C859 0.950 . S
H883 C861 0.950 . S
C884 C885 1.349 . S
C884 C886 1.327 . S
C884 H909 0.950 . S
C885 C884 1.349 . S
C885 C901 1.349 . S
C886 C884 1.327 . S
C886 C905 1.429 . S
C886 H910 0.950 . S
C887 C904 1.574 . S
C887 C906 1.368 . S
C887 H911 0.949 . S
H888 C892 0.949 . S
C889 C890 1.349 . S
C889 C891 1.327 . S
C889 H912 0.950 . S
C890 C889 1.349 . S
C890 C902 1.349 . S
C891 C889 1.327 . S
C891 C907 1.429 . S
C891 H913 0.950 . S
C892 H888 0.949 . S
C892 C900 1.574 . S
C892 C908 1.368 . S
H893 C901 0.950 . S
H894 C899 0.950 . S
H895 C900 0.949 . S
H896 C902 0.950 . S
H897 C903 0.950 . S
H898 C904 0.949 . S
C899 H894 0.950 . S
C899 C901 1.327 . S
C899 C905 1.429 . S
C900 C892 1.574 . S
C900 H895 0.949 . S
C900 C906 1.368 . S
C901 C885 1.349 . S
C901 H893 0.950 . S
C901 C899 1.327 . S
C902 C890 1.349 . S
C902 H896 0.950 . S
C902 C903 1.327 . S
C903 H897 0.950 . S
C903 C902 1.327 . S
C903 C907 1.429 . S
C904 C887 1.574 . S
C904 H898 0.949 . S
C904 C908 1.368 . S
C905 C886 1.429 . S
C905 C899 1.429 . S
C905 C906 1.523 . S
C906 C887 1.368 . S
C906 C900 1.368 . S
C906 C905 1.523 . S
C907 C891 1.429 . S
C907 C903 1.429 . S
C907 C908 1.523 . S
C908 C892 1.368 . S
C908 C904 1.368 . S
C908 C907 1.523 . S
H909 C884 0.950 . S
H910 C886 0.950 . S
H911 C887 0.949 . S
H912 C889 0.950 . S
H913 C891 0.950 . S
C914 C915 1.349 . S
C914 C916 1.327 . S
C914 H939 0.950 . S
C915 C914 1.349 . S
C915 C931 1.349 . S
C916 C914 1.327 . S
C916 C935 1.429 . S
C916 H940 0.950 . S
C917 C934 1.574 . S
C917 C936 1.368 . S
C917 H941 0.949 . S
H918 C922 0.949 . S
C919 C920 1.349 . S
C919 C921 1.327 . S
C919 H942 0.950 . S
C920 C919 1.349 . S
C920 C932 1.349 . S
C921 C919 1.327 . S
C921 C937 1.429 . S
C921 H943 0.950 . S
C922 H918 0.949 . S
C922 C930 1.574 . S
C922 C938 1.368 . S
H923 C931 0.950 . S
H924 C929 0.950 . S
H925 C930 0.949 . S
H926 C932 0.950 . S
H927 C933 0.950 . S
H928 C934 0.949 . S
C929 H924 0.950 . S
C929 C931 1.327 . S
C929 C935 1.429 . S
C930 C922 1.574 . S
C930 H925 0.949 . S
C930 C936 1.368 . S
C931 C915 1.349 . S
C931 H923 0.950 . S
C931 C929 1.327 . S
C932 C920 1.349 . S
C932 H926 0.950 . S
C932 C933 1.327 . S
C933 H927 0.950 . S
C933 C932 1.327 . S
C933 C937 1.429 . S
C934 C917 1.574 . S
C934 H928 0.949 . S
C934 C938 1.368 . S
C935 C916 1.429 . S
C935 C929 1.429 . S
C935 C936 1.523 . S
C936 C917 1.368 . S
C936 C930 1.368 . S
C936 C935 1.523 . S
C937 C921 1.429 . S
C937 C933 1.429 . S
C937 C938 1.523 . S
C938 C922 1.368 . S
C938 C934 1.368 . S
C938 C937 1.523 . S
H939 C914 0.950 . S
H940 C916 0.950 . S
H941 C917 0.949 . S
H942 C919 0.950 . S
H943 C921 0.950 . S
C944 C945 1.349 . S
C944 C946 1.327 . S
C944 H969 0.950 . S
C945 C944 1.349 . S
C945 C961 1.349 1_455 S
C946 C944 1.327 . S
C946 C965 1.429 . S
C946 H970 0.950 . S
C947 C964 1.574 . S
C947 C966 1.368 1_655 S
C947 H971 0.949 . S
H948 C952 0.949 . S
C949 C950 1.349 . S
C949 C951 1.327 . S
C949 H972 0.950 . S
C950 C949 1.349 . S
C950 C962 1.349 1_655 S
C951 C949 1.327 . S
C951 C967 1.429 . S
C951 H973 0.950 . S
C952 H948 0.949 . S
C952 C960 1.574 . S
C952 C968 1.368 1_455 S
H953 C961 0.950 . S
H954 C959 0.950 . S
H955 C960 0.949 . S
H956 C962 0.950 . S
H957 C963 0.950 . S
H958 C964 0.949 . S
C959 H954 0.950 . S
C959 C961 1.327 . S
C959 C965 1.429 1_655 S
C960 C952 1.574 . S
C960 H955 0.949 . S
C960 C966 1.368 1_556 S
C961 C945 1.349 1_655 S
C961 H953 0.950 . S
C961 C959 1.327 . S
C962 C950 1.349 1_455 S
C962 H956 0.950 . S
C962 C963 1.327 . S
C963 H957 0.950 . S
C963 C962 1.327 . S
C963 C967 1.429 1_455 S
C964 C947 1.574 . S
C964 H958 0.949 . S
C964 C968 1.368 1_554 S
C965 C946 1.429 . S
C965 C959 1.429 1_455 S
C965 C966 1.523 . S
C966 C947 1.368 1_455 S
C966 C960 1.368 1_554 S
C966 C965 1.523 . S
C967 C951 1.429 . S
C967 C963 1.429 1_655 S
C967 C968 1.523 . S
C968 C952 1.368 1_655 S
C968 C964 1.368 1_556 S
C968 C967 1.523 . S
H969 C944 0.950 . S
H970 C946 0.950 . S
H971 C947 0.949 . S
H972 C949 0.950 . S
H973 C951 0.950 . S
C974 C975 1.349 . S
C974 C976 1.327 . S
C974 H999 0.950 . S
C975 C974 1.349 . S
C975 C991 1.349 1_565 S
C976 C974 1.327 . S
C976 C995 1.429 . S
C976 H1000 0.950 . S
C977 C994 1.574 1_455 S
C977 C996 1.368 1_545 S
C977 H1001 0.949 . S
H978 C982 0.949 . S
C979 C980 1.349 . S
C979 C981 1.327 . S
C979 H1002 0.950 . S
C980 C979 1.349 . S
C980 C992 1.349 1_545 S
C981 C979 1.327 . S
C981 C997 1.429 . S
C981 H1003 0.950 . S
C982 H978 0.949 . S
C982 C990 1.574 1_655 S
C982 C998 1.368 1_565 S
H983 C991 0.950 . S
H984 C989 0.950 . S
H985 C990 0.949 . S
H986 C992 0.950 . S
H987 C993 0.950 . S
H988 C994 0.949 . S
C989 H984 0.950 . S
C989 C991 1.327 . S
C989 C995 1.429 1_545 S
C990 C982 1.574 1_455 S
C990 H985 0.949 . S
C990 C996 1.368 1_554 S
C991 C975 1.349 1_545 S
C991 H983 0.950 . S
C991 C989 1.327 . S
C992 C980 1.349 1_565 S
C992 H986 0.950 . S
C992 C993 1.327 . S
C993 H987 0.950 . S
C993 C992 1.327 . S
C993 C997 1.429 1_565 S
C994 C977 1.574 1_655 S
C994 H988 0.949 . S
C994 C998 1.368 1_556 S
C995 C976 1.429 . S
C995 C989 1.429 1_565 S
C995 C996 1.523 . S
C996 C977 1.368 1_565 S
C996 C990 1.368 1_556 S
C996 C995 1.523 . S
C997 C981 1.429 . S
C997 C993 1.429 1_545 S
C997 C998 1.523 . S
C998 C982 1.368 1_545 S
C998 C994 1.368 1_554 S
C998 C997 1.523 . S
H999 C974 0.950 . S
H1000 C976 0.950 . S
H1001 C977 0.949 . S
H1002 C979 0.950 . S
H1003 C981 0.950 . S
C1004 C1005 1.349 . S
C1004 C1006 1.327 . S
C1004 H1029 0.950 . S
C1005 C1004 1.349 . S
C1005 C1021 1.349 . S
C1006 C1004 1.327 . S
C1006 C1025 1.429 . S
C1006 H1030 0.950 . S
C1007 C1024 1.547 1_565 S
C1007 C1026 1.368 1_556 S
C1007 H1031 0.949 . S
H1008 C1012 0.949 . S
C1009 C1010 1.349 . S
C1009 C1011 1.327 . S
C1009 H1032 0.950 . S
C1010 C1009 1.349 . S
C1010 C1022 1.349 . S
C1011 C1009 1.327 . S
C1011 C1027 1.429 . S
C1011 H1033 0.950 . S
C1012 H1008 0.949 . S
C1012 C1020 1.547 1_545 S
C1012 C1028 1.368 1_554 S
H1013 C1021 0.950 . S
H1014 C1019 0.950 . S
H1015 C1020 0.951 . S
H1016 C1022 0.950 . S
H1017 C1023 0.950 . S
H1018 C1024 0.951 . S
C1019 H1014 0.950 . S
C1019 C1021 1.327 . S
C1019 C1025 1.429 . S
C1020 C1012 1.547 1_565 S
C1020 H1015 0.951 . S
C1020 C1026 1.394 . S
C1021 C1005 1.349 . S
C1021 H1013 0.950 . S
C1021 C1019 1.327 . S
C1022 C1010 1.349 . S
C1022 H1016 0.950 . S
C1022 C1023 1.327 . S
C1023 H1017 0.950 . S
C1023 C1022 1.327 . S
C1023 C1027 1.429 . S
C1024 C1007 1.547 1_545 S
C1024 H1018 0.951 . S
C1024 C1028 1.394 . S
C1025 C1006 1.429 . S
C1025 C1019 1.429 . S
C1025 C1026 1.523 . S
C1026 C1007 1.368 1_554 S
C1026 C1020 1.394 . S
C1026 C1025 1.523 . S
C1027 C1011 1.429 . S
C1027 C1023 1.429 . S
C1027 C1028 1.523 . S
C1028 C1012 1.368 1_556 S
C1028 C1024 1.394 . S
C1028 C1027 1.523 . S
H1029 C1004 0.950 . S
H1030 C1006 0.950 . S
H1031 C1007 0.949 . S
H1032 C1009 0.950 . S
H1033 C1011 0.950 . S
C1034 C1035 1.349 . S
C1034 C1036 1.327 . S
C1034 H1059 0.950 . S
C1035 C1034 1.349 . S
C1035 C1051 1.349 . S
C1036 C1034 1.327 . S
C1036 C1055 1.429 . S
C1036 H1060 0.950 . S
C1037 C1054 1.574 1_556 S
C1037 C1056 1.368 . S
C1037 H1061 0.949 . S
H1038 C1042 0.949 . S
C1039 C1040 1.349 . S
C1039 C1041 1.327 . S
C1039 H1062 0.950 . S
C1040 C1039 1.349 . S
C1040 C1052 1.349 . S
C1041 C1039 1.327 . S
C1041 C1057 1.429 . S
C1041 H1063 0.950 . S
C1042 H1038 0.949 . S
C1042 C1050 1.574 1_554 S
C1042 C1058 1.368 . S
H1043 C1051 0.950 . S
H1044 C1049 0.950 . S
H1045 C1050 0.949 . S
H1046 C1052 0.950 . S
H1047 C1053 0.950 . S
H1048 C1054 0.949 . S
C1049 H1044 0.950 . S
C1049 C1051 1.327 . S
C1049 C1055 1.429 . S
C1050 C1042 1.574 1_556 S
C1050 H1045 0.949 . S
C1050 C1056 1.368 . S
C1051 C1035 1.349 . S
C1051 H1043 0.950 . S
C1051 C1049 1.327 . S
C1052 C1040 1.349 . S
C1052 H1046 0.950 . S
C1052 C1053 1.327 . S
C1053 H1047 0.950 . S
C1053 C1052 1.327 . S
C1053 C1057 1.429 . S
C1054 C1037 1.574 1_554 S
C1054 H1048 0.949 . S
C1054 C1058 1.368 . S
C1055 C1036 1.429 . S
C1055 C1049 1.429 . S
C1055 C1056 1.523 . S
C1056 C1037 1.368 . S
C1056 C1050 1.368 . S
C1056 C1055 1.523 . S
C1057 C1041 1.429 . S
C1057 C1053 1.429 . S
C1057 C1058 1.523 . S
C1058 C1042 1.368 . S
C1058 C1054 1.368 . S
C1058 C1057 1.523 . S
H1059 C1034 0.950 . S
H1060 C1036 0.950 . S
H1061 C1037 0.949 . S
H1062 C1039 0.950 . S
H1063 C1041 0.950 . S
C1064 C1065 1.349 1_655 S
C1064 C1066 1.327 . S
C1064 H1089 0.950 . S
C1065 C1064 1.349 1_455 S
C1065 C1081 1.349 . S
C1066 C1064 1.327 . S
C1066 C1085 1.429 1_655 S
C1066 H1090 0.950 . S
C1067 C1084 1.574 1_565 S
C1067 C1086 1.368 . S
C1067 H1091 0.949 . S
H1068 C1072 0.949 . S
C1069 C1070 1.349 1_455 S
C1069 C1071 1.327 . S
C1069 H1092 0.950 . S
C1070 C1069 1.349 1_655 S
C1070 C1082 1.349 . S
C1071 C1069 1.327 . S
C1071 C1087 1.429 1_455 S
C1071 H1093 0.950 . S
C1072 H1068 0.949 . S
C1072 C1080 1.574 1_545 S
C1072 C1088 1.368 . S
H1073 C1081 0.950 . S
H1074 C1079 0.950 . S
H1075 C1080 0.949 . S
H1076 C1082 0.950 . S
H1077 C1083 0.950 . S
H1078 C1084 0.949 . S
C1079 H1074 0.950 . S
C1079 C1081 1.327 . S
C1079 C1085 1.429 . S
C1080 C1072 1.574 1_565 S
C1080 H1075 0.949 . S
C1080 C1086 1.368 1_655 S
C1081 C1065 1.349 . S
C1081 H1073 0.950 . S
C1081 C1079 1.327 . S
C1082 C1070 1.349 . S
C1082 H1076 0.950 . S
C1082 C1083 1.327 . S
C1083 H1077 0.950 . S
C1083 C1082 1.327 . S
C1083 C1087 1.429 . S
C1084 C1067 1.574 1_545 S
C1084 H1078 0.949 . S
C1084 C1088 1.368 1_455 S
C1085 C1066 1.429 1_455 S
C1085 C1079 1.429 . S
C1085 C1086 1.523 . S
C1086 C1067 1.368 . S
C1086 C1080 1.368 1_455 S
C1086 C1085 1.523 . S
C1087 C1071 1.429 1_655 S
C1087 C1083 1.429 . S
C1087 C1088 1.523 . S
C1088 C1072 1.368 . S
C1088 C1084 1.368 1_655 S
C1088 C1087 1.523 . S
H1089 C1064 0.950 . S
H1090 C1066 0.950 . S
H1091 C1067 0.949 . S
H1092 C1069 0.950 . S
H1093 C1071 0.950 . S
C1094 C1095 1.349 1_565 S
C1094 C1096 1.327 . S
C1094 H1119 0.950 . S
C1095 C1094 1.349 1_545 S
C1095 C1111 1.349 . S
C1096 C1094 1.327 . S
C1096 C1115 1.429 1_565 S
C1096 H1120 0.950 . S
C1097 C1114 1.574 . S
C1097 C1116 1.368 . S
C1097 H1121 0.949 . S
H1098 C1102 0.949 . S
C1099 C1100 1.349 1_545 S
C1099 C1101 1.327 . S
C1099 H1122 0.950 . S
C1100 C1099 1.349 1_565 S
C1100 C1112 1.349 . S
C1101 C1099 1.327 . S
C1101 C1117 1.429 1_545 S
C1101 H1123 0.950 . S
C1102 H1098 0.949 . S
C1102 C1110 1.574 . S
C1102 C1118 1.368 . S
H1103 C1111 0.950 . S
H1104 C1109 0.950 . S
H1105 C1110 0.949 . S
H1106 C1112 0.950 . S
H1107 C1113 0.950 . S
H1108 C1114 0.949 . S
C1109 H1104 0.950 . S
C1109 C1111 1.327 . S
C1109 C1115 1.429 . S
C1110 C1102 1.574 . S
C1110 H1105 0.949 . S
C1110 C1116 1.368 1_565 S
C1111 C1095 1.349 . S
C1111 H1103 0.950 . S
C1111 C1109 1.327 . S
C1112 C1100 1.349 . S
C1112 H1106 0.950 . S
C1112 C1113 1.327 . S
C1113 H1107 0.950 . S
C1113 C1112 1.327 . S
C1113 C1117 1.429 . S
C1114 C1097 1.574 . S
C1114 H1108 0.949 . S
C1114 C1118 1.368 1_545 S
C1115 C1096 1.429 1_545 S
C1115 C1109 1.429 . S
C1115 C1116 1.523 . S
C1116 C1097 1.368 . S
C1116 C1110 1.368 1_545 S
C1116 C1115 1.523 . S
C1117 C1101 1.429 1_565 S
C1117 C1113 1.429 . S
C1117 C1118 1.523 . S
C1118 C1102 1.368 . S
C1118 C1114 1.368 1_565 S
C1118 C1117 1.523 . S
H1119 C1094 0.950 . S
H1120 C1096 0.950 . S
H1121 C1097 0.949 . S
H1122 C1099 0.950 . S
H1123 C1101 0.950 . S
C1124 C1125 1.349 . S
C1124 C1126 1.327 . S
C1124 H1149 0.950 . S
C1125 C1124 1.349 . S
C1125 C1141 1.349 . S
C1126 C1124 1.327 . S
C1126 C1145 1.429 . S
C1126 H1150 0.950 . S
C1127 C1144 1.574 . S
C1127 C1146 1.368 . S
C1127 H1151 0.949 . S
H1128 C1132 0.949 . S
C1129 C1130 1.349 . S
C1129 C1131 1.327 . S
C1129 H1152 0.950 . S
C1130 C1129 1.349 . S
C1130 C1142 1.349 . S
C1131 C1129 1.327 . S
C1131 C1147 1.429 . S
C1131 H1153 0.950 . S
C1132 H1128 0.949 . S
C1132 C1140 1.574 . S
C1132 C1148 1.368 . S
H1133 C1141 0.950 . S
H1134 C1139 0.950 . S
H1135 C1140 0.949 . S
H1136 C1142 0.950 . S
H1137 C1143 0.950 . S
H1138 C1144 0.949 . S
C1139 H1134 0.950 . S
C1139 C1141 1.327 . S
C1139 C1145 1.429 . S
C1140 C1132 1.574 . S
C1140 H1135 0.949 . S
C1140 C1146 1.368 . S
C1141 C1125 1.349 . S
C1141 H1133 0.950 . S
C1141 C1139 1.327 . S
C1142 C1130 1.349 . S
C1142 H1136 0.950 . S
C1142 C1143 1.327 . S
C1143 H1137 0.950 . S
C1143 C1142 1.327 . S
C1143 C1147 1.429 . S
C1144 C1127 1.574 . S
C1144 H1138 0.949 . S
C1144 C1148 1.368 . S
C1145 C1126 1.429 . S
C1145 C1139 1.429 . S
C1145 C1146 1.523 . S
C1146 C1127 1.368 . S
C1146 C1140 1.368 . S
C1146 C1145 1.523 . S
C1147 C1131 1.429 . S
C1147 C1143 1.429 . S
C1147 C1148 1.523 . S
C1148 C1132 1.368 . S
C1148 C1144 1.368 . S
C1148 C1147 1.523 . S
H1149 C1124 0.950 . S
H1150 C1126 0.950 . S
H1151 C1127 0.949 . S
H1152 C1129 0.950 . S
H1153 C1131 0.950 . S
C1154 C1155 1.349 . S
C1154 C1156 1.327 . S
C1154 H1179 0.950 . S
C1155 C1154 1.349 . S
C1155 C1171 1.349 . S
C1156 C1154 1.327 . S
C1156 C1175 1.429 . S
C1156 H1180 0.950 . S
C1157 C1174 1.574 1_655 S
C1157 C1176 1.368 . S
C1157 H1181 0.949 . S
H1158 C1162 0.949 . S
C1159 C1160 1.349 . S
C1159 C1161 1.327 . S
C1159 H1182 0.950 . S
C1160 C1159 1.349 . S
C1160 C1172 1.349 . S
C1161 C1159 1.327 . S
C1161 C1177 1.429 . S
C1161 H1183 0.950 . S
C1162 H1158 0.949 . S
C1162 C1170 1.574 1_455 S
C1162 C1178 1.368 . S
H1163 C1171 0.950 . S
H1164 C1169 0.950 . S
H1165 C1170 0.949 . S
H1166 C1172 0.950 . S
H1167 C1173 0.950 . S
H1168 C1174 0.949 . S
C1169 H1164 0.950 . S
C1169 C1171 1.327 . S
C1169 C1175 1.429 . S
C1170 C1162 1.574 1_655 S
C1170 H1165 0.949 . S
C1170 C1176 1.368 . S
C1171 C1155 1.349 . S
C1171 H1163 0.950 . S
C1171 C1169 1.327 . S
C1172 C1160 1.349 . S
C1172 H1166 0.950 . S
C1172 C1173 1.327 . S
C1173 H1167 0.950 . S
C1173 C1172 1.327 . S
C1173 C1177 1.429 . S
C1174 C1157 1.574 1_455 S
C1174 H1168 0.949 . S
C1174 C1178 1.368 . S
C1175 C1156 1.429 . S
C1175 C1169 1.429 . S
C1175 C1176 1.523 . S
C1176 C1157 1.368 . S
C1176 C1170 1.368 . S
C1176 C1175 1.523 . S
C1177 C1161 1.429 . S
C1177 C1173 1.429 . S
C1177 C1178 1.523 . S
C1178 C1162 1.368 . S
C1178 C1174 1.368 . S
C1178 C1177 1.523 . S
H1179 C1154 0.950 . S
H1180 C1156 0.950 . S
H1181 C1157 0.949 . S
H1182 C1159 0.950 . S
H1183 C1161 0.950 . S
C225 C3 1.657 . S
C230 C31 1.657 . S
C255 C17 1.657 . S
C260 C45 1.657 . S
C285 C59 1.657 . S
C290 C87 1.657 . S
C315 C101 1.657 . S
C320 C73 1.657 . S
C345 C115 1.657 . S
C350 C143 1.657 . S
C375 C157 1.657 . S
C380 C129 1.657 . S
C405 C199 1.657 . S
C410 C171 1.657 . S
C435 C213 1.657 . S
C440 C185 1.657 . S
C465 C105 1.037 . S
C470 C7 1.037 . S
C495 C21 1.037 . S
C500 C63 1.037 . S
C525 C77 1.037 . S
C530 C35 1.037 . S
C555 C49 1.037 . S
C560 C91 1.037 . S
C585 C217 1.037 . S
C590 C119 1.037 . S
C615 C133 1.037 . S
C620 C175 1.037 . S
C645 C147 1.037 . S
C650 C189 1.037 . S
C675 C203 1.037 . S
C680 C161 1.037 . S
C705 C9 0.679 . S
C710 C65 0.679 . S
C735 C23 0.679 . S
C740 C79 0.679 . S
C765 C93 0.679 . S
C770 C37 0.679 . S
C795 C51 0.679 . S
C800 C107 0.679 . S
C825 C177 0.679 . S
C830 C121 0.679 . S
C855 C191 0.679 . S
C860 C135 0.679 . S
C885 C149 0.679 . S
C890 C205 0.679 . S
C915 C163 0.679 . S
C920 C219 0.679 . S
C945 C8 1.709 . S
C950 C120 1.709 . S
C975 C134 1.709 . S
C980 C22 1.709 . S
C1005 C36 1.709 . S
C1010 C148 1.709 . S
C1035 C162 1.709 . S
C1040 C50 1.709 . S
C1065 C64 1.709 . S
C1070 C176 1.709 . S
C1095 C78 1.709 . S
C1100 C190 1.709 . S
C1125 C204 1.709 . S
C1130 C92 1.709 . S
C1155 C106 1.709 . S
C1160 C218 1.709 . S
