# Generated by pormake.
# Topology ecm, (8)-cn, num edge types: 1
# Building blocks:
#     Node 0, Type 0, BuildingBlock: TAGTUT_clean_sbu_1, # of connection points: 8
#     Node 1, Type 0, BuildingBlock: TAGTUT_clean_sbu_1, # of connection points: 8
#     Node 2, Type 0, BuildingBlock: TAGTUT_clean_sbu_1, # of connection points: 8
#     Node 3, Type 0, BuildingBlock: TAGTUT_clean_sbu_1, # of connection points: 8
#     Node 4, Type 0, BuildingBlock: TAGTUT_clean_sbu_1, # of connection points: 8
#     Node 5, Type 0, BuildingBlock: TAGTUT_clean_sbu_1, # of connection points: 8
#     Node 6, Type 0, BuildingBlock: TAGTUT_clean_sbu_1, # of connection points: 8
#     Node 7, Type 0, BuildingBlock: TAGTUT_clean_sbu_1, # of connection points: 8
#     Edge 8, Type (0, 0), BuildingBlock: ZUJKAS_clean_linker_0, # of connection points: 2
#     Edge 9, Type (0, 0), BuildingBlock: ZUJKAS_clean_linker_0, # of connection points: 2
#     Edge 10, Type (0, 0), BuildingBlock: ZUJKAS_clean_linker_0, # of connection points: 2
#     Edge 11, Type (0, 0), BuildingBlock: ZUJKAS_clean_linker_0, # of connection points: 2
#     Edge 12, Type (0, 0), BuildingBlock: ZUJKAS_clean_linker_0, # of connection points: 2
#     Edge 13, Type (0, 0), BuildingBlock: ZUJKAS_clean_linker_0, # of connection points: 2
#     Edge 14, Type (0, 0), BuildingBlock: ZUJKAS_clean_linker_0, # of connection points: 2
#     Edge 15, Type (0, 0), BuildingBlock: ZUJKAS_clean_linker_0, # of connection points: 2
#     Edge 16, Type (0, 0), BuildingBlock: ZUJKAS_clean_linker_0, # of connection points: 2
#     Edge 17, Type (0, 0), BuildingBlock: ZUJKAS_clean_linker_0, # of connection points: 2
#     Edge 18, Type (0, 0), BuildingBlock: ZUJKAS_clean_linker_0, # of connection points: 2
#     Edge 19, Type (0, 0), BuildingBlock: ZUJKAS_clean_linker_0, # of connection points: 2
#     Edge 20, Type (0, 0), BuildingBlock: ZUJKAS_clean_linker_0, # of connection points: 2
#     Edge 21, Type (0, 0), BuildingBlock: ZUJKAS_clean_linker_0, # of connection points: 2
#     Edge 22, Type (0, 0), BuildingBlock: ZUJKAS_clean_linker_0, # of connection points: 2
#     Edge 23, Type (0, 0), BuildingBlock: ZUJKAS_clean_linker_0, # of connection points: 2
#     Edge 24, Type (0, 0), BuildingBlock: ZUJKAS_clean_linker_0, # of connection points: 2
#     Edge 25, Type (0, 0), BuildingBlock: ZUJKAS_clean_linker_0, # of connection points: 2
#     Edge 26, Type (0, 0), BuildingBlock: ZUJKAS_clean_linker_0, # of connection points: 2
#     Edge 27, Type (0, 0), BuildingBlock: ZUJKAS_clean_linker_0, # of connection points: 2
#     Edge 28, Type (0, 0), BuildingBlock: ZUJKAS_clean_linker_0, # of connection points: 2
#     Edge 29, Type (0, 0), BuildingBlock: ZUJKAS_clean_linker_0, # of connection points: 2
#     Edge 30, Type (0, 0), BuildingBlock: ZUJKAS_clean_linker_0, # of connection points: 2
#     Edge 31, Type (0, 0), BuildingBlock: ZUJKAS_clean_linker_0, # of connection points: 2
#     Edge 32, Type (0, 0), BuildingBlock: ZUJKAS_clean_linker_0, # of connection points: 2
#     Edge 33, Type (0, 0), BuildingBlock: ZUJKAS_clean_linker_0, # of connection points: 2
#     Edge 34, Type (0, 0), BuildingBlock: ZUJKAS_clean_linker_0, # of connection points: 2
#     Edge 35, Type (0, 0), BuildingBlock: ZUJKAS_clean_linker_0, # of connection points: 2
#     Edge 36, Type (0, 0), BuildingBlock: ZUJKAS_clean_linker_0, # of connection points: 2
#     Edge 37, Type (0, 0), BuildingBlock: ZUJKAS_clean_linker_0, # of connection points: 2
#     Edge 38, Type (0, 0), BuildingBlock: ZUJKAS_clean_linker_0, # of connection points: 2
#     Edge 39, Type (0, 0), BuildingBlock: ZUJKAS_clean_linker_0, # of connection points: 2
# Relax obj value: 0.239
# Max RMSD: 0.265
# Mean RMSD: 0.265
data_MOF--net-ecm--node1-TAGTUT_clean_sbu_1--edge1-ZUJKAS_clean_linker_0
_symmetry_space_group_name_H-M    P1
_symmetry_Int_Tables_number       1
_symmetry_cell_setting            triclinic
loop_
_symmetry_equiv_pos_as_xyz
'x, y, z'
_cell_length_a     54.714821
_cell_length_b     54.793673
_cell_length_c     20.596566
_cell_angle_alpha  89.9487
_cell_angle_beta   89.97261
_cell_angle_gamma 90.054599
loop_
_atom_site_label
_atom_site_type_symbol
_atom_site_fract_x
_atom_site_fract_y
_atom_site_fract_z
_atom_type_partial_charge
C0 C 0.51346 0.26573 0.03428 0.0
C1 C 0.49084 0.21448 0.1825 0.0
C2 C 0.43052 0.17554 1.00045 0.0
Mg3 Mg 0.46789 0.26117 0.12506 0.0
O4 O 0.45711 0.24299 0.05303 0.0
Mg5 Mg 0.47729 0.21525 0.02142 0.0
Mg6 Mg 0.4242 0.22787 0.05265 0.0
O7 O 0.38933 0.21384 0.04785 0.0
Mg8 Mg 0.38363 0.19607 0.96187 0.0
Mg9 Mg 0.37006 0.24574 0.08356 0.0
C10 C 0.41377 0.2827 0.10614 0.0
C11 C 0.40477 0.22825 0.20509 0.0
O12 O 0.50911 0.24441 0.0102 0.0
O13 O 0.49959 0.27546 0.07724 0.0
O14 O 0.49055 0.20654 0.12425 0.0
O15 O 0.48156 0.23519 0.19734 0.0
O16 O 0.43492 0.28458 0.13336 0.0
O17 O 0.40777 0.26417 0.07128 0.0
C18 C 0.44267 0.23061 0.89979 0.0
O19 O 0.42495 0.23385 0.93974 0.0
O20 O 0.46361 0.22368 0.91987 0.0
O21 O 0.36808 0.20476 0.05957 0.0
O22 O 0.35434 0.17383 1.00496 0.0
O23 O 0.3594 0.25454 0.9773 0.0
C24 C 0.3509 0.18887 0.05132 0.0
O25 O 0.36837 0.22557 0.90337 0.0
O26 O 0.42149 0.18458 0.94885 0.0
C27 C 0.35989 0.24661 0.91877 0.0
O28 O 0.44246 0.18983 0.03823 0.0
O29 O 0.42237 0.22338 0.16564 0.0
O30 O 0.38412 0.23623 0.18477 0.0
C31 C 0.1968 0.66979 0.94943 0.0
C32 C 0.24481 0.64573 0.10324 0.0
C33 C 0.28506 0.58813 0.92521 0.0
Mg34 Mg 0.19671 0.62596 0.04546 0.0
O35 O 0.21373 0.61306 0.97118 0.0
Mg36 Mg 0.24429 0.63056 0.94367 0.0
Mg37 Mg 0.22802 0.57891 0.97403 0.0
O38 O 0.24281 0.54614 0.97969 0.0
Mg39 Mg 0.26213 0.53431 0.91059 0.0
Mg40 Mg 0.21354 0.52741 0.00815 0.0
C41 C 0.17484 0.57692 0.0192 0.0
C42 C 0.22792 0.56282 0.128 0.0
O43 O 0.21821 0.6628 0.93178 0.0
O44 O 0.18382 0.65807 0.99135 0.0
O45 O 0.25397 0.64368 0.0466 0.0
O46 O 0.2229 0.63921 0.11503 0.0
O47 O 0.18375 0.58867 0.06708 0.0
O48 O 0.18897 0.56263 0.98656 0.0
C49 C 0.22853 0.59604 0.82195 0.0
O50 O 0.22457 0.57827 0.86132 0.0
O51 O 0.2354 0.61695 0.84257 0.0
O52 O 0.24138 0.4948 0.02505 0.0
O53 O 0.27405 0.50224 0.96121 0.0
O54 O 0.20651 0.51366 0.90498 0.0
C55 C 0.26286 0.48921 1.00363 0.0
O56 O 0.23697 0.52123 0.83566 0.0
O57 O 0.28714 0.56633 0.90213 0.0
C58 C 0.21564 0.51275 0.84796 0.0
O59 O 0.26592 0.59478 0.95684 0.0
O60 O 0.23222 0.58004 0.08724 0.0
O61 O 0.22071 0.54188 0.10885 0.0
C62 C 0.49503 0.73895 0.02832 0.0
C63 C 0.51654 0.78762 0.18338 0.0
C64 C 0.57666 0.83069 1.00403 0.0
Mg65 Mg 0.54027 0.74241 0.11988 0.0
O66 O 0.55108 0.76248 0.05169 0.0
Mg67 Mg 0.53047 0.79026 0.02265 0.0
Mg68 Mg 0.58369 0.77819 0.05339 0.0
O69 O 0.6183 0.79287 0.05053 0.0
Mg70 Mg 0.62415 0.8114 0.96575 0.0
Mg71 Mg 0.63827 0.76133 0.08572 0.0
C72 C 0.59516 0.72287 0.10194 0.0
C73 C 0.60219 0.77695 0.20618 0.0
O74 O 0.49899 0.76093 0.00819 0.0
O75 O 0.50914 0.72833 0.06917 0.0
O76 O 0.51694 0.79724 0.12684 0.0
O77 O 0.52568 0.76654 0.19463 0.0
O78 O 0.57378 0.71992 0.12716 0.0
O79 O 0.60102 0.7421 0.06963 0.0
C80 C 0.56565 0.77652 0.90069 0.0
O81 O 0.58333 0.77314 0.94063 0.0
O82 O 0.54458 0.78313 0.92074 0.0
O83 O 0.63888 0.8026 0.06445 0.0
O84 O 0.65261 0.83397 0.01137 0.0
O85 O 0.65091 0.75428 0.98016 0.0
C86 C 0.65591 0.81875 0.05745 0.0
O87 O 0.6411 0.78305 0.90645 0.0
O88 O 0.58602 0.82205 0.95235 0.0
C89 C 0.65081 0.76253 0.92186 0.0
O90 O 0.56483 0.81602 0.04114 0.0
O91 O 0.58478 0.78184 0.16628 0.0
O92 O 0.62305 0.76939 0.1864 0.0
C93 C 0.80725 0.33326 0.96389 0.0
C94 C 0.75893 0.36481 0.10468 0.0
C95 C 0.72238 0.41829 0.92021 0.0
Mg96 Mg 0.80877 0.3803 0.04695 0.0
O97 O 0.79336 0.39188 0.96904 0.0
Mg98 Mg 0.76224 0.37489 0.9434 0.0
Mg99 Mg 0.77981 0.42626 0.96903 0.0
O100 O 0.76574 0.45937 0.97282 0.0
Mg101 Mg 0.74654 0.47127 0.90365 0.0
Mg102 Mg 0.79538 0.47766 1.00097 0.0
C103 C 0.8331 0.42781 0.0153 0.0
C104 C 0.78015 0.44334 0.12289 0.0
O105 O 0.78647 0.34051 0.942 0.0
O106 O 0.82071 0.34624 1.00175 0.0
O107 O 0.75048 0.36536 0.04712 0.0
O108 O 0.78106 0.37044 0.11677 0.0
O109 O 0.82417 0.41687 0.06459 0.0
O110 O 0.81911 0.44184 0.98148 0.0
C111 C 0.77967 0.40723 0.81826 0.0
O112 O 0.78355 0.42539 0.85646 0.0
O113 O 0.7727 0.38644 0.84025 0.0
O114 O 0.7684 0.51093 0.01634 0.0
O115 O 0.73567 0.50406 0.95236 0.0
O116 O 0.80256 0.49068 0.89665 0.0
C117 C 0.74718 0.517 0.99427 0.0
O118 O 0.77192 0.48301 0.82795 0.0
O119 O 0.72047 0.44011 0.89721 0.0
C120 C 0.79337 0.49131 0.83961 0.0
O121 O 0.74172 0.41137 0.95043 0.0
O122 O 0.77521 0.42616 0.08254 0.0
O123 O 0.78804 0.46396 0.10302 0.0
C124 C 0.01589 0.76242 0.52425 0.0
C125 C 0.99264 0.71392 0.67775 0.0
C126 C 0.93218 0.67261 0.49953 0.0
Mg127 Mg 0.97029 0.7601 0.61551 0.0
O128 O 0.9587 0.74054 0.54728 0.0
Mg129 Mg 0.9788 0.71248 0.51715 0.0
Mg130 Mg 0.92579 0.72504 0.54995 0.0
O131 O 0.89111 0.71039 0.54757 0.0
Mg132 Mg 0.88462 0.69197 0.46309 0.0
Mg133 Mg 0.87145 0.74176 0.58403 0.0
C134 C 0.91548 0.78088 0.59812 0.0
C135 C 0.90759 0.72546 0.70313 0.0
O136 O 0.01083 0.74096 0.50233 0.0
O137 O 1.00237 0.77318 0.56624 0.0
O138 O 0.99227 0.70502 0.62046 0.0
O139 O 0.98357 0.73496 0.69027 0.0
O140 O 0.9374 0.78373 0.61998 0.0
O141 O 0.90865 0.76131 0.56854 0.0
C142 C 0.94348 0.72705 0.39673 0.0
O143 O 0.92586 0.73043 0.43694 0.0
O144 O 0.96451 0.72021 0.41636 0.0
O145 O 0.87044 0.70064 0.56229 0.0
O146 O 0.85634 0.66937 0.5099 0.0
O147 O 0.85876 0.74968 0.47922 0.0
C148 C 0.85337 0.68452 0.5562 0.0
O149 O 0.86759 0.72071 0.40528 0.0
O150 O 0.92262 0.68126 0.44811 0.0
C151 C 0.85844 0.74145 0.42095 0.0
O152 O 0.94426 0.68722 0.5361 0.0
O153 O 0.92504 0.72089 0.66301 0.0
O154 O 0.88671 0.73305 0.68373 0.0
C155 C 0.70484 0.17114 0.43896 0.0
C156 C 0.75311 0.143 0.58721 0.0
C157 C 0.78921 0.08664 0.40531 0.0
Mg158 Mg 0.70378 0.12595 0.53064 0.0
O159 O 0.71937 0.11338 0.45417 0.0
Mg160 Mg 0.7506 0.12999 0.42682 0.0
Mg161 Mg 0.73234 0.07879 0.45583 0.0
O162 O 0.74608 0.04564 0.46005 0.0
Mg163 Mg 0.76523 0.03363 0.39072 0.0
Mg164 Mg 0.71633 0.02764 0.48817 0.0
C165 C 0.67891 0.07779 0.50284 0.0
C166 C 0.73186 0.06203 0.60937 0.0
O167 O 0.7257 0.16359 0.4183 0.0
O168 O 0.69204 0.1593 0.48102 0.0
O169 O 0.7615 0.14176 0.52961 0.0
O170 O 0.73118 0.13686 0.60007 0.0
O171 O 0.68819 0.08948 0.55044 0.0
O172 O 0.6928 0.06381 0.4685 0.0
C173 C 0.73322 0.09654 0.30417 0.0
O174 O 0.72875 0.07883 0.34335 0.0
O175 O 0.74076 0.11722 0.32499 0.0
O176 O 0.74336 0.99419 0.50357 0.0
O177 O 0.77675 1.00165 0.44228 0.0
O178 O 0.70881 0.01454 0.38443 0.0
C179 C 0.76505 0.9886 0.48365 0.0
O180 O 0.73986 0.02101 0.31608 0.0
O181 O 0.79076 0.06514 0.38025 0.0
C182 C 0.71817 0.01335 0.32768 0.0
O183 O 0.77055 0.0933 0.43854 0.0
O184 O 0.73671 0.07923 0.56899 0.0
O185 O 0.72398 0.04139 0.58969 0.0
C186 C 0.99124 0.24372 0.51416 0.0
C187 C 0.01447 0.29063 0.67091 0.0
C188 C 0.07744 0.33301 0.49953 0.0
Mg189 Mg 0.03642 0.24473 0.60697 0.0
O190 O 0.04795 0.26429 0.538 0.0
Mg191 Mg 0.02888 0.29345 0.51047 0.0
Mg192 Mg 0.0806 0.27946 0.54393 0.0
O193 O 0.11448 0.29427 0.54679 0.0
Mg194 Mg 0.12675 0.31138 0.47195 0.0
Mg195 Mg 0.13248 0.26397 0.57331 0.0
C196 C 0.09046 0.22249 0.59111 0.0
C197 C 0.09787 0.27875 0.69572 0.0
O198 O 0.99657 0.26527 0.49292 0.0
O199 O 0.00437 0.23266 0.55652 0.0
O200 O 0.01513 0.29992 0.61403 0.0
O201 O 0.02328 0.26943 0.68267 0.0
O202 O 0.06865 0.22005 0.61412 0.0
O203 O 0.09697 0.24181 0.56016 0.0
C204 C 0.06444 0.2801 0.3901 0.0
O205 O 0.08173 0.27579 0.43064 0.0
O206 O 0.0434 0.28694 0.40956 0.0
O207 O 0.16454 0.29051 0.58451 0.0
O208 O 0.15914 0.32457 0.52412 0.0
O209 O 0.14532 0.25448 0.47017 0.0
C210 C 0.17121 0.31191 0.56593 0.0
O211 O 0.13978 0.28535 0.40176 0.0
O212 O 0.08946 0.32474 0.45123 0.0
C213 C 0.14676 0.26361 0.41337 0.0
O214 O 0.06397 0.31814 0.53242 0.0
O215 O 0.07998 0.28249 0.65659 0.0
O216 O 0.11893 0.2724 0.67479 0.0
C217 C 0.31916 0.85168 0.45406 0.0
C218 C 0.2623 0.86044 0.5893 0.0
C219 C 0.22391 0.91389 0.40646 0.0
Mg220 Mg 0.31245 0.8845 0.54324 0.0
O221 O 0.29391 0.88992 0.4582 0.0
Mg222 Mg 0.26174 0.87048 0.4244 0.0
Mg223 Mg 0.27963 0.92467 0.45429 0.0
O224 O 0.26423 0.95739 0.45502 0.0
Mg225 Mg 0.24492 0.96797 0.38483 0.0
Mg226 Mg 0.2923 0.97774 0.48395 0.0
C227 C 0.33241 0.93107 0.50157 0.0
C228 C 0.27831 0.94308 0.60689 0.0
O229 O 0.30295 0.86858 0.44648 0.0
O230 O 0.33454 0.85541 0.49951 0.0
O231 O 0.2539 0.85976 0.53122 0.0
O232 O 0.2834 0.86915 0.60357 0.0
O233 O 0.32423 0.92228 0.55449 0.0
O234 O 0.31771 0.94327 0.46562 0.0
C235 C 0.27815 0.90543 0.30204 0.0
O236 O 0.28316 0.92296 0.34143 0.0
O237 O 0.2704 0.8847 0.32248 0.0
O238 O 0.2633 0.00942 0.49712 0.0
O239 O 0.23132 0.99985 0.43311 0.0
O240 O 0.29964 0.9907 0.37985 0.0
C241 C 0.24168 0.01377 0.47488 0.0
O242 O 0.27001 0.98115 0.30981 0.0
O243 O 0.22137 0.93503 0.37971 0.0
C244 C 0.2909 0.9906 0.32234 0.0
O245 O 0.24321 0.90798 0.43842 0.0
O246 O 0.27471 0.92543 0.56713 0.0
O247 O 0.28506 0.96405 0.58653 0.0
H248 H 0.40216 0.2475 0.83338 0.0
H249 H 0.39505 0.24645 0.71574 0.0
H250 H 0.46778 0.21828 0.68663 0.0
H251 H 0.47466 0.21846 0.80329 0.0
H252 H 0.41944 0.26864 0.61276 0.0
H253 H 0.42661 0.16809 0.59147 0.0
H254 H 0.42335 0.18331 0.66867 0.0
H255 H 0.45273 0.18177 0.62956 0.0
C256 C 0.4165 0.24083 0.80202 0.0
C257 C 0.43873 0.23253 0.82832 0.0
C258 C 0.4125 0.24038 0.73466 0.0
C259 C 0.43065 0.23162 0.69232 0.0
C260 C 0.45321 0.22441 0.71827 0.0
H261 H 0.44593 0.21356 0.27235 0.0
H262 H 0.45239 0.21453 0.39029 0.0
C263 C 0.45717 0.22476 0.78528 0.0
C264 C 0.42631 0.2301 0.62098 0.0
H265 H 0.42685 0.19055 0.49245 0.0
C266 C 0.42089 0.25154 0.58655 0.0
C267 C 0.42827 0.20779 0.58659 0.0
C268 C 0.43282 0.18389 0.62099 0.0
C269 C 0.41792 0.25137 0.51867 0.0
C270 C 0.42005 0.22908 0.48427 0.0
C271 C 0.42539 0.20764 0.5187 0.0
C272 C 0.41604 0.22759 0.41284 0.0
C273 C 0.41304 0.27518 0.48419 0.0
C274 C 0.3933 0.23389 0.3864 0.0
C275 C 0.38958 0.23338 0.3193 0.0
C276 C 0.4085 0.22645 0.27666 0.0
C277 C 0.43105 0.21924 0.30343 0.0
C278 C 0.43475 0.21976 0.37091 0.0
H279 H 0.4185 0.29112 0.5142 0.0
H280 H 0.42297 0.27605 0.4372 0.0
H281 H 0.39319 0.27673 0.47408 0.0
H282 H 0.37839 0.23938 0.41776 0.0
H283 H 0.37188 0.23886 0.3009 0.0
H284 H 0.24131 0.6048 0.19342 0.0
H285 H 0.24218 0.61114 0.31144 0.0
H286 H 0.22021 0.53638 0.34122 0.0
H287 H 0.21924 0.52991 0.22462 0.0
H288 H 0.20236 0.60456 0.40013 0.0
H289 H 0.27978 0.54338 0.46041 0.0
H290 H 0.27413 0.55427 0.37901 0.0
H291 H 0.25669 0.52921 0.4113 0.0
C292 C 0.23674 0.58973 0.22507 0.0
C293 C 0.23009 0.56692 0.19917 0.0
C294 C 0.23729 0.59335 0.29252 0.0
C295 C 0.23154 0.57412 0.33514 0.0
C296 C 0.22516 0.55135 0.30939 0.0
H297 H 0.21604 0.55442 0.7539 0.0
H298 H 0.21553 0.54907 0.63556 0.0
C299 C 0.22451 0.54776 0.2424 0.0
C300 C 0.23106 0.57783 0.40654 0.0
H301 H 0.25505 0.55655 0.5489 0.0
C302 C 0.21403 0.59425 0.43268 0.0
C303 C 0.24612 0.56416 0.44893 0.0
C304 C 0.26537 0.54692 0.42359 0.0
C305 C 0.2113 0.59698 0.50015 0.0
C306 C 0.2263 0.58323 0.54257 0.0
C307 C 0.24341 0.5669 0.51638 0.0
C308 C 0.22544 0.58648 0.61414 0.0
C309 C 0.19199 0.61417 0.52543 0.0
C310 C 0.23124 0.60918 0.64131 0.0
C311 C 0.23162 0.61224 0.70853 0.0
C312 C 0.22639 0.5926 0.75054 0.0
C313 C 0.22028 0.56987 0.72321 0.0
C314 C 0.21997 0.56681 0.65557 0.0
H315 H 0.17764 0.61774 0.48849 0.0
H316 H 0.18316 0.60676 0.56984 0.0
H317 H 0.20063 0.63188 0.53796 0.0
H318 H 0.236 0.62449 0.61046 0.0
H319 H 0.23648 0.63003 0.72746 0.0
H320 H 0.63447 0.76566 0.30265 0.0
H321 H 0.62763 0.76557 0.41932 0.0
H322 H 0.55436 0.79229 0.38992 0.0
H323 H 0.56093 0.79214 0.27208 0.0
H324 H 0.61629 0.80221 0.50357 0.0
H325 H 0.54283 0.73222 0.50254 0.0
H326 H 0.56168 0.73828 0.43243 0.0
H327 H 0.5368 0.75833 0.45231 0.0
C328 C 0.61684 0.77158 0.3206 0.0
C329 C 0.59814 0.77866 0.27752 0.0
C330 C 0.61299 0.77152 0.38762 0.0
C331 C 0.59036 0.77848 0.41352 0.0
C332 C 0.57181 0.78628 0.37101 0.0
H333 H 0.53369 0.7884 0.80403 0.0
H334 H 0.54061 0.7882 0.68732 0.0
C335 C 0.57564 0.78631 0.30361 0.0
C336 C 0.58648 0.77749 0.48505 0.0
H337 H 0.55181 0.75076 0.60352 0.0
C338 C 0.60222 0.79092 0.52545 0.0
C339 C 0.56823 0.76263 0.51364 0.0
C340 C 0.55154 0.74685 0.47316 0.0
C341 C 0.5999 0.79028 0.59344 0.0
C342 C 0.5816 0.77549 0.622 0.0
C343 C 0.56589 0.76203 0.58162 0.0
C344 C 0.57763 0.77463 0.69347 0.0
C345 C 0.61669 0.80593 0.63402 0.0
C346 C 0.596 0.76654 0.73612 0.0
C347 C 0.5921 0.76662 0.80347 0.0
C348 C 0.56973 0.77472 0.82939 0.0
C349 C 0.5512 0.7821 0.78617 0.0
C350 C 0.5551 0.78202 0.71917 0.0
H351 H 0.6257 0.82038 0.60462 0.0
H352 H 0.60653 0.81472 0.67438 0.0
H353 H 0.6312 0.79429 0.65542 0.0
H354 H 0.61336 0.76019 0.71736 0.0
H355 H 0.60659 0.7604 0.8351 0.0
H356 H 0.75899 0.40487 0.18912 0.0
H357 H 0.75848 0.39791 0.30694 0.0
H358 H 0.79591 0.46627 0.33623 0.0
H359 H 0.79695 0.47303 0.21944 0.0
H360 H 0.80064 0.3962 0.39355 0.0
H361 H 0.73627 0.47039 0.4593 0.0
H362 H 0.73874 0.45851 0.37777 0.0
H363 H 0.76111 0.47971 0.40784 0.0
C364 C 0.76729 0.41826 0.22057 0.0
C365 C 0.77826 0.4393 0.19435 0.0
C366 C 0.76684 0.41437 0.28798 0.0
C367 C 0.77697 0.4317 0.33052 0.0
C368 C 0.78764 0.45282 0.30455 0.0
H369 H 0.79578 0.4474 0.74939 0.0
H370 H 0.79615 0.45287 0.63118 0.0
C371 C 0.78825 0.45661 0.23746 0.0
C372 C 0.77724 0.42756 0.40196 0.0
H373 H 0.75788 0.45171 0.54607 0.0
C374 C 0.79113 0.40819 0.42694 0.0
C375 C 0.76505 0.44339 0.44551 0.0
C376 C 0.74927 0.46406 0.42143 0.0
C377 C 0.79361 0.40454 0.49428 0.0
C378 C 0.78137 0.42036 0.53797 0.0
C379 C 0.76737 0.43966 0.51282 0.0
C380 C 0.7822 0.41677 0.60976 0.0
C381 C 0.80991 0.38419 0.51787 0.0
C382 C 0.77417 0.39475 0.63734 0.0
C383 C 0.77404 0.39155 0.70469 0.0
C384 C 0.78165 0.41042 0.74654 0.0
C385 C 0.78978 0.43248 0.71887 0.0
C386 C 0.78998 0.43564 0.6512 0.0
H387 H 0.82361 0.37897 0.48054 0.0
H388 H 0.81972 0.38944 0.56293 0.0
H389 H 0.79858 0.36786 0.52844 0.0
H390 H 0.76747 0.38013 0.60677 0.0
H391 H 0.76741 0.37437 0.72392 0.0
H392 H 0.90152 0.74004 0.33045 0.0
H393 H 0.89496 0.73915 0.21254 0.0
H394 H 0.97022 0.71854 0.18398 0.0
H395 H 0.97676 0.71878 0.30065 0.0
H396 H 0.91874 0.76467 0.11105 0.0
H397 H 0.93327 0.66493 0.08711 0.0
H398 H 0.92801 0.67949 0.16444 0.0
H399 H 0.9578 0.68047 0.12756 0.0
C400 C 0.9166 0.73519 0.29912 0.0
C401 C 0.93949 0.729 0.32545 0.0
C402 C 0.91286 0.73477 0.2317 0.0
C403 C 0.93196 0.72813 0.18956 0.0
C404 C 0.95504 0.72303 0.21558 0.0
H405 H 0.94975 0.71321 0.76954 0.0
H406 H 0.95612 0.71396 0.88757 0.0
C407 C 0.95876 0.72337 0.28257 0.0
C408 C 0.92806 0.72663 0.11829 0.0
H409 H 0.93203 0.68776 0.98887 0.0
C410 C 0.92146 0.74783 0.08437 0.0
C411 C 0.93178 0.70465 0.08347 0.0
C412 C 0.93789 0.68103 0.1175 0.0
C413 C 0.91895 0.74777 0.01646 0.0
C414 C 0.92273 0.7258 0.98164 0.0
C415 C 0.9293 0.7046 0.01556 0.0
C416 C 0.91892 0.72432 0.91034 0.0
C417 C 0.91274 0.77136 0.98241 0.0
C418 C 0.89579 0.72911 0.88422 0.0
C419 C 0.89213 0.72876 0.81721 0.0
C420 C 0.91153 0.72348 0.77441 0.0
C421 C 0.93451 0.71765 0.80084 0.0
C422 C 0.93816 0.71804 0.86829 0.0
H423 H 0.9171 0.78749 0.01295 0.0
H424 H 0.92276 0.773 0.9357 0.0
H425 H 0.89285 0.77173 0.97183 0.0
H426 H 0.88052 0.73334 0.91577 0.0
H427 H 0.87407 0.73305 0.79905 0.0
H428 H 0.74337 0.12974 0.20889 0.0
H429 H 0.74259 0.12382 0.0918 0.0
H430 H 0.71823 0.04964 0.11898 0.0
H431 H 0.71846 0.05556 0.23691 0.0
H432 H 0.76949 0.09071 0.02025 0.0
H433 H 0.67001 0.07583 0.98444 0.0
H434 H 0.68243 0.08825 0.05858 0.0
H435 H 0.68391 0.056 0.04326 0.0
C436 C 0.73758 0.11218 0.19031 0.0
C437 C 0.73105 0.09307 0.23275 0.0
C438 C 0.73724 0.10883 0.12311 0.0
C439 C 0.73022 0.08637 0.09644 0.0
C440 C 0.72337 0.06728 0.13837 0.0
H441 H 0.71969 0.03015 0.70603 0.0
H442 H 0.72066 0.0367 0.82273 0.0
C443 C 0.72367 0.07063 0.20589 0.0
C444 C 0.73095 0.08291 0.02484 0.0
H445 H 0.69553 0.06967 0.89301 0.0
C446 C 0.75331 0.08617 0.99233 0.0
C447 C 0.70983 0.07705 0.98849 0.0
C448 C 0.68512 0.07428 0.02023 0.0
C449 C 0.75524 0.08325 0.92469 0.0
C450 C 0.73411 0.07736 0.8883 0.0
C451 C 0.71173 0.0742 0.92085 0.0
C452 C 0.73483 0.07349 0.81677 0.0
C453 C 0.78002 0.08584 0.8932 0.0
C454 C 0.74269 0.09195 0.77405 0.0
C455 C 0.74243 0.08815 0.70669 0.0
C456 C 0.73391 0.06599 0.68068 0.0
C457 C 0.72633 0.04752 0.72388 0.0
C458 C 0.72677 0.05124 0.79091 0.0
H459 H 0.79505 0.08387 0.92907 0.0
H460 H 0.78259 0.07204 0.85434 0.0
H461 H 0.78154 0.10424 0.87102 0.0
H462 H 0.74865 0.10945 0.79264 0.0
H463 H 0.74869 0.10259 0.67513 0.0
H464 H 0.10585 0.26524 0.32408 0.0
H465 H 0.11254 0.2657 0.20615 0.0
H466 H 0.03875 0.291 0.17732 0.0
H467 H 0.03213 0.2912 0.2939 0.0
H468 H 0.08699 0.2412 0.10612 0.0
H469 H 0.07891 0.34149 0.07766 0.0
H470 H 0.08336 0.32707 0.1556 0.0
H471 H 0.05348 0.32793 0.1193 0.0
C472 C 0.09116 0.27109 0.29268 0.0
C473 C 0.06864 0.2786 0.31887 0.0
C474 C 0.09496 0.27125 0.22527 0.0
C475 C 0.07631 0.27897 0.18305 0.0
C476 C 0.05361 0.28562 0.20898 0.0
H477 H 0.05656 0.29225 0.76395 0.0
H478 H 0.05097 0.29203 0.88228 0.0
C479 C 0.04984 0.28553 0.27592 0.0
C480 C 0.08015 0.2798 0.1117 0.0
H481 H 0.07778 0.31798 0.98044 0.0
C482 C 0.08519 0.258 0.07867 0.0
C483 C 0.07763 0.30175 0.07591 0.0
C484 C 0.07327 0.32594 0.10892 0.0
C485 C 0.08726 0.25746 0.01067 0.0
C486 C 0.08457 0.27938 0.97489 0.0
C487 C 0.07963 0.30119 0.00792 0.0
C488 C 0.08785 0.28014 0.90338 0.0
C489 C 0.09179 0.23333 0.97754 0.0
C490 C 0.11053 0.27417 0.87623 0.0
C491 C 0.11374 0.27425 0.80905 0.0
C492 C 0.09434 0.28041 0.76716 0.0
C493 C 0.07177 0.28714 0.79457 0.0
C494 C 0.06858 0.28707 0.86218 0.0
H495 H 0.08695 0.21767 0.00937 0.0
H496 H 0.08114 0.23192 0.93182 0.0
H497 H 0.11148 0.23183 0.96525 0.0
H498 H 0.1258 0.26934 0.90712 0.0
H499 H 0.13148 0.26914 0.79005 0.0
H500 H 0.29572 0.94558 0.23564 0.0
H501 H 0.29591 0.95224 0.11792 0.0
H502 H 0.26434 0.88094 0.08894 0.0
H503 H 0.26441 0.874 0.20571 0.0
H504 H 0.30085 0.88967 1.00331 0.0
H505 H 0.23701 0.96831 1.00662 0.0
H506 H 0.26378 0.97251 0.05572 0.0
H507 H 0.242 0.9492 0.07676 0.0
C508 C 0.28881 0.93133 0.20425 0.0
C509 C 0.27984 0.90935 0.23055 0.0
C510 C 0.2888 0.93521 0.13686 0.0
C511 C 0.27966 0.91728 0.09442 0.0
C512 C 0.27134 0.89512 0.12052 0.0
H513 H 0.25914 0.90357 0.67275 0.0
H514 H 0.25887 0.89658 0.79039 0.0
C515 C 0.27142 0.8912 0.18759 0.0
C516 C 0.27874 0.92132 0.02282 0.0
H517 H 0.25491 0.9584 0.90522 0.0
C518 C 0.29074 0.90467 0.98188 0.0
C519 C 0.26544 0.9408 0.99468 0.0
C520 C 0.25112 0.95861 0.03557 0.0
C521 C 0.29022 0.90722 0.91389 0.0
C522 C 0.27701 0.92676 0.8858 0.0
C523 C 0.26499 0.94339 0.9267 0.0
C524 C 0.27631 0.93092 0.81429 0.0
C525 C 0.30435 0.88932 0.87282 0.0
C526 C 0.28544 0.9528 0.7885 0.0
C527 C 0.28559 0.95681 0.72147 0.0
C528 C 0.27655 0.93903 0.6783 0.0
C529 C 0.26674 0.91738 0.70431 0.0
C530 C 0.2666 0.91337 0.77165 0.0
H531 H 0.31808 0.87912 0.90184 0.0
H532 H 0.29148 0.87587 0.85149 0.0
H533 H 0.31389 0.89879 0.8324 0.0
H534 H 0.29291 0.96667 0.8203 0.0
H535 H 0.29326 0.97375 0.70352 0.0
H536 H 0.4056 0.14005 0.93716 0.0
H537 H 0.38059 0.10733 0.98291 0.0
H538 H 0.39792 0.13204 0.17615 0.0
H539 H 0.42296 0.16508 0.13067 0.0
H540 H 0.39431 0.06953 0.06635 0.0
H541 H 0.32247 0.12793 0.17567 0.0
H542 H 0.34441 0.13928 0.11753 0.0
H543 H 0.35302 0.13538 0.201 0.0
C544 C 0.40409 0.13858 0.98947 0.0
C545 C 0.41622 0.1553 0.03015 0.0
C546 C 0.38979 0.11983 0.01551 0.0
C547 C 0.38711 0.11739 0.08289 0.0
C548 C 0.39942 0.13381 0.12393 0.0
H549 H 0.33999 0.99743 0.31721 0.0
H550 H 0.36236 0.02662 0.25033 0.0
C551 C 0.4139 0.15258 0.09786 0.0
C552 C 0.3718 0.0973 0.10978 0.0
H553 H 0.32142 0.08562 0.20302 0.0
C554 C 0.37831 0.07306 0.09599 0.0
C555 C 0.35064 0.10188 0.14738 0.0
C556 C 0.342 0.12752 0.16092 0.0
C557 C 0.36473 0.0533 0.12057 0.0
C558 C 0.34419 0.05786 0.16046 0.0
C559 C 0.3372 0.08211 0.17253 0.0
C560 C 0.33089 0.03786 0.19432 0.0
C561 C 0.3725 0.02767 0.10372 0.0
C562 C 0.30574 0.03405 0.18439 0.0
C563 C 0.29283 0.01709 0.22247 0.0
C564 C 0.30483 0.00408 0.27193 0.0
C565 C 0.33021 0.00716 0.27951 0.0
C566 C 0.34307 0.02383 0.24117 0.0
H567 H 0.38376 0.02726 0.05882 0.0
H568 H 0.3837 0.02018 0.14397 0.0
H569 H 0.3564 0.01559 0.09697 0.0
H570 H 0.29596 0.04475 0.14859 0.0
H571 H 0.27327 0.01531 0.21591 0.0
H572 H 0.16624 0.58136 0.8868 0.0
H573 H 0.13371 0.60537 0.83463 0.0
H574 H 0.10563 0.62538 0.0228 0.0
H575 H 0.13779 0.60157 0.07494 0.0
H576 H 0.06941 0.60945 0.93374 0.0
H577 H 0.12958 0.68174 0.83163 0.0
H578 H 0.13817 0.65087 0.81262 0.0
H579 H 0.13938 0.66124 0.89516 0.0
C580 C 0.153 0.5907 0.91694 0.0
C581 C 0.15461 0.5896 0.98508 0.0
C582 C 0.13457 0.6046 0.88712 0.0
C583 C 0.11743 0.61741 0.92493 0.0
C584 C 0.11871 0.61577 0.9927 0.0
H585 H 0.01727 0.73123 0.78482 0.0
H586 H 0.04638 0.70832 0.85248 0.0
C587 C 0.13711 0.60214 0.02238 0.0
C588 C 0.09783 0.63233 0.89459 0.0
H589 H 0.08762 0.68322 0.80249 0.0
C590 C 0.07338 0.62559 0.90504 0.0
C591 C 0.10303 0.65372 0.8586 0.0
C592 C 0.12892 0.66256 0.84909 0.0
C593 C 0.054 0.63925 0.87894 0.0
C594 C 0.05918 0.66007 0.84064 0.0
C595 C 0.08364 0.66722 0.83168 0.0
C596 C 0.03963 0.67361 0.80567 0.0
C597 C 0.02811 0.63133 0.89293 0.0
C598 C 0.02581 0.66164 0.75803 0.0
C599 C 0.00927 0.6746 0.71969 0.0
C600 C 0.00616 0.69991 0.72786 0.0
C601 C 0.01907 0.71173 0.7778 0.0
C602 C 0.03586 0.6987 0.81603 0.0
H603 H 0.02703 0.62004 0.9377 0.0
H604 H 0.01582 0.64731 0.89848 0.0
H605 H 0.02131 0.62011 0.8519 0.0
H606 H 0.0286 0.6424 0.74846 0.0
H607 H 0.99963 0.66493 0.68163 0.0
H608 H 0.6016 0.86657 0.94229 0.0
H609 H 0.62647 0.89903 0.98944 0.0
H610 H 0.60813 0.8737 0.18166 0.0
H611 H 0.58334 0.84081 0.13472 0.0
H612 H 0.61344 0.93658 0.07116 0.0
H613 H 0.68307 0.8769 0.18554 0.0
H614 H 0.661 0.86576 0.12766 0.0
H615 H 0.6523 0.87041 0.2108 0.0
C616 C 0.60285 0.86785 0.99467 0.0
C617 C 0.59059 0.85095 0.03463 0.0
C618 C 0.61706 0.88647 0.02153 0.0
C619 C 0.61947 0.88863 0.08903 0.0
C620 C 0.6069 0.87211 0.12936 0.0
H621 H 0.6688 0.00875 0.32048 0.0
H622 H 0.64566 0.98007 0.25408 0.0
C623 C 0.59255 0.85345 0.10246 0.0
C624 C 0.63492 0.90843 0.11664 0.0
H625 H 0.68489 0.91924 0.21188 0.0
C626 C 0.62911 0.93278 0.10173 0.0
C627 C 0.65566 0.90349 0.15554 0.0
C628 C 0.66359 0.87773 0.17047 0.0
C629 C 0.64305 0.95229 0.12614 0.0
C630 C 0.6632 0.94736 0.16706 0.0
C631 C 0.66942 0.92302 0.18055 0.0
C632 C 0.677 0.96714 0.20018 0.0
C633 C 0.63612 0.97803 0.1078 0.0
C634 C 0.70235 0.9698 0.19121 0.0
C635 C 0.71571 0.98641 0.22906 0.0
C636 C 0.70395 1.00023 0.27731 0.0
C637 C 0.67841 0.99835 0.28376 0.0
C638 C 0.66511 0.982 0.24566 0.0
H639 H 0.62517 0.9785 0.0624 0.0
H640 H 0.62489 0.98607 0.14721 0.0
H641 H 0.6526 0.98962 0.1012 0.0
H642 H 0.7119 0.95844 0.15646 0.0
H643 H 0.73537 0.98727 0.22336 0.0
H644 H 0.86811 0.40011 0.07157 0.0
H645 H 0.90046 0.37654 0.01949 0.0
H646 H 0.87624 0.40151 0.83177 0.0
H647 H 0.84354 0.4253 0.88366 0.0
H648 H 0.88505 0.34805 0.84695 0.0
H649 H 0.96274 0.40567 0.92947 0.0
H650 H 0.94121 0.39675 0.99112 0.0
H651 H 0.93166 0.41672 0.92686 0.0
C652 C 0.86966 0.4007 0.01915 0.0
C653 C 0.85322 0.41463 0.98186 0.0
C654 C 0.88823 0.38726 0.98954 0.0
C655 C 0.89087 0.38742 0.92191 0.0
C656 C 0.87453 0.40124 0.88417 0.0
H657 H 0.00744 0.33961 0.67618 0.0
H658 H 0.97828 0.36176 0.74341 0.0
C659 C 0.85595 0.41491 0.91389 0.0
C660 C 0.91058 0.37287 0.89105 0.0
H661 H 0.97267 0.36859 0.87717 0.0
C662 C 0.90422 0.3525 0.85343 0.0
C663 C 0.93554 0.37872 0.89983 0.0
C664 C 0.94333 0.40075 0.93859 0.0
C665 C 0.9222 0.33783 0.82413 0.0
C666 C 0.94722 0.3436 0.83323 0.0
C667 C 0.95352 0.36399 0.87094 0.0
C668 C 0.96696 0.33017 0.7988 0.0
C669 C 0.91426 0.3167 0.78219 0.0
C670 C 0.97119 0.30516 0.80959 0.0
C671 C 0.9881 0.29236 0.77123 0.0
C672 C 1.0009 0.3044 0.72134 0.0
C673 C 0.99772 0.32973 0.7138 0.0
C674 C 0.98103 0.34246 0.7522 0.0
H675 H 0.89446 0.31748 0.77045 0.0
H676 H 0.9248 0.31638 0.73611 0.0
H677 H 0.91782 0.29934 0.8083 0.0
H678 H 0.96087 0.29541 0.84624 0.0
H679 H 0.99011 0.27287 0.77816 0.0
H680 H 0.25137 0.46014 0.10934 0.0
H681 H 0.27464 0.42498 0.15064 0.0
H682 H 0.3262 0.43312 0.99375 0.0
H683 H 0.30364 0.46804 0.95316 0.0
H684 H 0.28661 0.38098 0.09489 0.0
H685 H 0.37119 0.43182 0.14927 0.0
H686 H 0.3425 0.44695 0.13352 0.0
H687 H 0.36167 0.4372 0.06726 0.0
C688 C 0.26768 0.45442 0.08377 0.0
C689 C 0.27573 0.46716 0.02833 0.0
C690 C 0.28099 0.43437 0.1075 0.0
C691 C 0.30257 0.42682 0.07631 0.0
C692 C 0.3101 0.43905 0.01995 0.0
H693 H 0.3762 0.29375 0.02574 0.0
H694 H 0.3476 0.32751 0.03256 0.0
C695 C 0.297 0.45901 0.99653 0.0
C696 C 0.31713 0.40574 0.10042 0.0
H697 H 0.37596 0.38843 0.13088 0.0
C698 C 0.30606 0.38266 0.10403 0.0
C699 C 0.34241 0.40791 0.11409 0.0
C700 C 0.35506 0.43237 0.11657 0.0
C701 C 0.31993 0.36153 0.1161 0.0
C702 C 0.34564 0.36347 0.12314 0.0
C703 C 0.35636 0.38676 0.12442 0.0
C704 C 0.36195 0.34171 0.12294 0.0
C705 C 0.30687 0.33732 0.12016 0.0
C706 C 0.3802 0.33861 0.1704 0.0
C707 C 0.39688 0.31921 0.16609 0.0
C708 C 0.39555 0.30254 0.11432 0.0
C709 C 0.37722 0.3057 0.06731 0.0
C710 C 0.36076 0.32507 0.07129 0.0
H711 H 0.28797 0.33964 0.13888 0.0
H712 H 0.30551 0.32932 0.07081 0.0
H713 H 0.31672 0.32428 0.15208 0.0
H714 H 0.38173 0.35137 0.21031 0.0
H715 H 0.41089 0.31739 0.2029 0.0
H716 H 0.45678 0.75471 0.95103 0.0
H717 H 0.42019 0.73136 0.91973 0.0
H718 H 0.44799 0.66841 0.02104 0.0
H719 H 0.4842 0.69121 0.05249 0.0
H720 H 0.4156 0.68229 0.8526 0.0
H721 H 0.37981 0.68433 0.10485 0.0
H722 H 0.40291 0.7053 0.07622 0.0
H723 H 0.41105 0.67458 0.09774 0.0
C724 C 0.45517 0.73585 0.96625 0.0
C725 C 0.47338 0.72501 1.00499 0.0
C726 C 0.43429 0.72253 0.94819 0.0
C727 C 0.43131 0.69825 0.96874 0.0
C728 C 0.44981 0.68721 1.00533 0.0
H729 H 0.33127 0.57995 0.87638 0.0
H730 H 0.3663 0.60786 0.87899 0.0
C731 C 0.47053 0.70038 0.02332 0.0
C732 C 0.40852 0.68448 0.95522 0.0
H733 H 0.36064 0.65686 0.03202 0.0
C734 C 0.40339 0.6769 0.89156 0.0
C735 C 0.39258 0.67762 1.00612 0.0
C736 C 0.39666 0.68602 0.07505 0.0
C737 C 0.383 0.66204 0.87781 0.0
C738 C 0.36762 0.65438 0.92927 0.0
C739 C 0.37251 0.66254 0.99258 0.0
C740 C 0.34606 0.63821 0.9194 0.0
C741 C 0.37801 0.65485 0.80843 0.0
C742 C 0.32305 0.64587 0.9411 0.0
C743 C 0.30318 0.62992 0.94046 0.0
C744 C 0.30564 0.60581 0.91794 0.0
C745 C 0.32855 0.5984 0.89372 0.0
C746 C 0.34861 0.61441 0.89481 0.0
H747 H 0.38727 0.6673 0.7736 0.0
H748 H 0.38503 0.63612 0.79999 0.0
H749 H 0.35809 0.65488 0.79812 0.0
H750 H 0.32059 0.66408 0.96051 0.0
H751 H 0.28613 0.63645 0.95972 0.0
H752 H 0.63345 0.71359 0.02205 0.0
H753 H 0.66203 0.67962 0.02613 0.0
H754 H 0.62749 0.65346 0.20124 0.0
H755 H 0.59835 0.68748 0.19653 0.0
H756 H 0.69567 0.6633 0.11168 0.0
H757 H 0.62109 0.59501 0.08415 0.0
H758 H 0.61587 0.6273 0.07523 0.0
H759 H 0.61886 0.61406 0.15475 0.0
C760 C 0.63222 0.70095 0.06222 0.0
C761 C 0.61368 0.70332 0.10902 0.0
C762 C 0.64854 0.68141 0.06438 0.0
C763 C 0.64676 0.66373 0.11346 0.0
C764 C 0.62891 0.66657 0.16206 0.0
H765 H 0.75654 0.54387 0.10502 0.0
H766 H 0.73361 0.57948 0.14464 0.0
C767 C 0.61234 0.68606 0.15949 0.0
C768 C 0.66272 0.64179 0.1105 0.0
H769 H 0.66119 0.58018 0.08595 0.0
C770 C 0.68818 0.64506 0.10683 0.0
C771 C 0.6529 0.61801 0.10369 0.0
C772 C 0.6257 0.61328 0.10408 0.0
C773 C 0.70397 0.6254 0.09387 0.0
C774 C 0.69407 0.60175 0.08571 0.0
C775 C 0.66875 0.59832 0.09242 0.0
C776 C 0.70896 0.58081 0.06248 0.0
C777 C 0.73092 0.63033 0.08542 0.0
C778 C 0.70269 0.56968 1.00354 0.0
C779 C 0.71547 0.54935 0.98136 0.0
C780 C 0.73499 0.53959 0.01741 0.0
C781 C 0.7417 0.55103 0.07593 0.0
C782 C 0.72865 0.57141 0.09852 0.0
H783 H 0.73494 0.65016 0.0814 0.0
H784 H 0.74097 0.62308 0.12802 0.0
H785 H 0.738 0.62103 0.04139 0.0
H786 H 0.68769 0.57666 0.97466 0.0
H787 H 0.70988 0.5412 0.93582 0.0
H788 H 0.52667 0.31133 0.07385 0.0
H789 H 0.56198 0.33523 0.04144 0.0
H790 H 0.58516 0.27745 0.91365 0.0
H791 H 0.54933 0.25308 0.94558 0.0
H792 H 0.61071 0.32157 0.05793 0.0
H793 H 0.58872 0.33992 0.79875 0.0
H794 H 0.56599 0.32977 0.85643 0.0
H795 H 0.58778 0.30851 0.82429 0.0
C796 C 0.53909 0.30355 0.03855 0.0
C797 C 0.53506 0.28012 0.01248 0.0
C798 C 0.55933 0.31736 0.02004 0.0
C799 C 0.5761 0.30826 0.97477 0.0
C800 C 0.57222 0.28499 0.94798 0.0
H801 H 0.72164 0.36877 0.94289 0.0
H802 H 0.68676 0.34188 0.949 0.0
C803 C 0.55182 0.27102 0.96659 0.0
C804 C 0.59815 0.32297 0.95901 0.0
H805 H 0.62632 0.3553 0.83812 0.0
C806 C 0.61419 0.32884 0.00979 0.0
C807 C 0.60244 0.3327 0.89638 0.0
C808 C 0.58529 0.32763 0.84072 0.0
C809 C 0.63434 0.34424 0.99989 0.0
C810 C 0.63889 0.35374 0.93706 0.0
C811 C 0.62285 0.34792 0.88613 0.0
C812 C 0.66035 0.36963 0.92402 0.0
C813 C 0.65028 0.35061 0.05735 0.0
C814 C 0.65739 0.39401 0.90436 0.0
C815 C 0.6777 0.40962 0.89986 0.0
C816 C 0.7013 0.40111 0.9152 0.0
C817 C 0.70408 0.37631 0.93136 0.0
C818 C 0.68396 0.36075 0.93518 0.0
H819 H 0.6407 0.34738 0.10417 0.0
H820 H 0.66686 0.33896 0.0567 0.0
H821 H 0.65618 0.36999 0.05546 0.0
H822 H 0.6393 0.40122 0.89509 0.0
H823 H 0.67473 0.42857 0.88718 0.0
H824 H 0.92508 0.66368 0.63059 0.0
H825 H 0.90058 0.63091 0.67935 0.0
H826 H 0.88286 0.60378 0.48869 0.0
H827 H 0.90732 0.63627 0.4396 0.0
H828 H 0.84925 0.62005 0.65733 0.0
H829 H 0.91017 0.54346 0.58636 0.0
H830 H 0.92023 0.57486 0.58666 0.0
H831 H 0.90143 0.56369 0.52167 0.0
C832 C 0.91616 0.65063 0.59903 0.0
C833 C 0.91824 0.65255 0.53108 0.0
C834 C 0.90205 0.63199 0.62697 0.0
C835 C 0.8901 0.61477 0.58762 0.0
C836 C 0.89218 0.61665 0.51998 0.0
H837 H 0.77606 0.51396 0.72938 0.0
H838 H 0.79853 0.54292 0.66029 0.0
C839 C 0.90611 0.63529 0.49204 0.0
C840 C 0.87531 0.59489 0.61706 0.0
H841 H 0.87246 0.53293 0.63497 0.0
C842 C 0.85426 0.60099 0.65243 0.0
C843 C 0.88193 0.57005 0.61054 0.0
C844 C 0.90477 0.56251 0.57472 0.0
C845 C 0.83973 0.5829 0.68189 0.0
C846 C 0.84628 0.55802 0.67511 0.0
C847 C 0.86728 0.55196 0.63939 0.0
C848 C 0.83304 0.53828 0.71019 0.0
C849 C 0.81794 0.59063 0.72184 0.0
C850 C 0.84526 0.52507 0.75859 0.0
C851 C 0.83258 0.5085 0.79759 0.0
C852 C 0.80736 0.50462 0.78892 0.0
C853 C 0.79546 0.51652 0.73731 0.0
C854 C 0.80822 0.53329 0.69831 0.0
H855 H 0.81809 0.61053 0.73219 0.0
H856 H 0.80093 0.58633 0.69486 0.0
H857 H 0.81743 0.58056 0.76863 0.0
H858 H 0.86444 0.52842 0.76826 0.0
H859 H 0.84237 0.49948 0.83651 0.0
H860 H 0.64314 0.10341 0.56232 0.0
H861 H 0.60933 0.12585 0.51328 0.0
H862 H 0.63269 0.10273 0.32318 0.0
H863 H 0.66684 0.08006 0.37209 0.0
H864 H 0.62257 0.15555 0.34006 0.0
H865 H 0.54689 0.09618 0.42684 0.0
H866 H 0.56869 0.10526 0.48752 0.0
H867 H 0.57817 0.08581 0.42211 0.0
C868 C 0.64104 0.10293 0.51003 0.0
C869 C 0.65771 0.08989 0.47121 0.0
C870 C 0.62163 0.11572 0.48214 0.0
C871 C 0.61836 0.11582 0.41469 0.0
C872 C 0.63485 0.10279 0.37545 0.0
H873 H 0.4979 0.16545 0.18225 0.0
H874 H 0.52797 0.14239 0.24452 0.0
C875 C 0.65427 0.08974 0.40347 0.0
C876 C 0.59801 0.1301 0.38565 0.0
H877 H 0.53569 0.13374 0.37823 0.0
C878 C 0.60357 0.15079 0.34822 0.0
C879 C 0.57324 0.12385 0.39653 0.0
C880 C 0.56625 0.10147 0.435 0.0
C881 C 0.585 0.16546 0.32153 0.0
C882 C 0.5602 0.15939 0.33309 0.0
C883 C 0.55468 0.13859 0.3702 0.0
C884 C 0.53982 0.17315 0.3022 0.0
C885 C 0.59208 0.187 0.27987 0.0
C886 C 0.53559 0.19793 0.31605 0.0
C887 C 0.51812 0.21122 0.28072 0.0
C888 C 0.50477 0.19992 0.23071 0.0
C889 C 0.50798 0.17475 0.22016 0.0
C890 C 0.52522 0.16152 0.25566 0.0
H891 H 0.61168 0.1865 0.26581 0.0
H892 H 0.5808 0.1876 0.23509 0.0
H893 H 0.58879 0.20411 0.3073 0.0
H894 H 0.54637 0.20718 0.35264 0.0
H895 H 0.51616 0.23059 0.28981 0.0
H896 H 0.08124 0.34117 0.63214 0.0
H897 H 0.10463 0.37375 0.68584 0.0
H898 H 0.12519 0.40284 0.49908 0.0
H899 H 0.10193 0.37066 0.44532 0.0
H900 H 0.1567 0.38438 0.66802 0.0
H901 H 0.09729 0.46236 0.59912 0.0
H902 H 0.08686 0.43109 0.59697 0.0
H903 H 0.10607 0.44271 0.5333 0.0
C904 C 0.09045 0.35471 0.60258 0.0
C905 C 0.08965 0.35338 0.53436 0.0
C906 C 0.10394 0.37321 0.6333 0.0
C907 C 0.11648 0.39083 0.59639 0.0
C908 C 0.11542 0.38965 0.52851 0.0
H909 H 0.23257 0.4887 0.73931 0.0
H910 H 0.20939 0.45984 0.67162 0.0
C911 C 0.10216 0.37119 0.4979 0.0
C912 C 0.1312 0.41022 0.62822 0.0
H913 H 0.13546 0.47205 0.64683 0.0
C914 C 0.15207 0.40355 0.66361 0.0
C915 C 0.12512 0.43521 0.62219 0.0
C916 C 0.10252 0.44337 0.58631 0.0
C917 C 0.16704 0.42123 0.6932 0.0
C918 C 0.16111 0.44628 0.68653 0.0
C919 C 0.1402 0.45289 0.65117 0.0
C920 C 0.17497 0.46572 0.72111 0.0
C921 C 0.18869 0.4129 0.73279 0.0
C922 C 0.16307 0.47957 0.76875 0.0
C923 C 0.17615 0.49609 0.80683 0.0
C924 C 0.20146 0.49928 0.79804 0.0
C925 C 0.2131 0.48667 0.74726 0.0
C926 C 0.19994 0.46995 0.70914 0.0
H927 H 0.18791 0.39305 0.74363 0.0
H928 H 0.20574 0.41654 0.70524 0.0
H929 H 0.18971 0.42308 0.77932 0.0
H930 H 0.1438 0.47683 0.77847 0.0
H931 H 0.16655 0.50567 0.84511 0.0
H932 H 0.33389 0.91414 0.37519 0.0
H933 H 0.36479 0.88732 0.32702 0.0
H934 H 0.40569 0.88897 0.5061 0.0
H935 H 0.37414 0.91444 0.55535 0.0
H936 H 0.40978 0.89236 0.29905 0.0
H937 H 0.40571 0.81789 0.47859 0.0
H938 H 0.38385 0.84244 0.47806 0.0
H939 H 0.41288 0.84603 0.51846 0.0
C940 C 0.34947 0.90873 0.40422 0.0
C941 C 0.35157 0.91629 0.46922 0.0
C942 C 0.36713 0.89333 0.37673 0.0
C943 C 0.38742 0.8855 0.41328 0.0
C944 C 0.38986 0.89384 0.47744 0.0
H945 H 0.52018 0.83497 0.22149 0.0
H946 H 0.48984 0.8582 0.28331 0.0
C947 C 0.37196 0.9087 0.50535 0.0
C948 C 0.40655 0.86951 0.38373 0.0
H949 H 0.44177 0.81901 0.41161 0.0
C950 C 0.41658 0.8762 0.32351 0.0
C951 C 0.41517 0.84799 0.41447 0.0
C952 C 0.40361 0.83803 0.47555 0.0
C953 C 0.43523 0.86246 0.29407 0.0
C954 C 0.4452 0.84205 0.32727 0.0
C955 C 0.43471 0.83497 0.38669 0.0
C956 C 0.4658 0.82735 0.29991 0.0
C957 C 0.44338 0.86967 0.22667 0.0
C958 C 0.46377 0.80183 0.29413 0.0
C959 C 0.48177 0.78836 0.26154 0.0
C960 C 0.50191 0.80023 0.23335 0.0
C961 C 0.50479 0.82543 0.24283 0.0
C962 C 0.4872 0.83876 0.27709 0.0
H963 H 0.4288 0.87977 0.20044 0.0
H964 H 0.45945 0.88196 0.23025 0.0
H965 H 0.44848 0.85348 0.19728 0.0
H966 H 0.44765 0.79245 0.31179 0.0
H967 H 0.47896 0.76899 0.25407 0.0
H968 H 0.7451 0.94823 0.54456 0.0
H969 H 0.76689 0.91133 0.58096 0.0
H970 H 0.83507 0.94254 0.51665 0.0
H971 H 0.81377 0.97899 0.48017 0.0
H972 H 0.79907 0.88068 0.49555 0.0
H973 H 0.84765 0.91949 0.70809 0.0
H974 H 0.82019 0.93293 0.67492 0.0
H975 H 0.84915 0.93788 0.63588 0.0
C976 C 0.76475 0.94727 0.53877 0.0
C977 C 0.77764 0.96657 0.50926 0.0
C978 C 0.77715 0.92619 0.55944 0.0
C979 C 0.80262 0.92435 0.55209 0.0
C980 C 0.81547 0.94371 0.52357 0.0
H981 H 0.92518 0.82907 0.58142 0.0
H982 H 0.89592 0.86284 0.57658 0.0
C983 C 0.80317 0.96451 0.50235 0.0
C984 C 0.81608 0.90192 0.57077 0.0
H985 H 0.86331 0.8821 0.6655 0.0
C986 C 0.81279 0.88074 0.53355 0.0
C987 C 0.83412 0.9022 0.61992 0.0
C988 C 0.83792 0.92427 0.66247 0.0
C989 C 0.82793 0.86024 0.54193 0.0
C990 C 0.8465 0.86079 0.58989 0.0
C991 C 0.84914 0.88168 0.6287 0.0
C992 C 0.86428 0.84047 0.59783 0.0
C993 C 0.82485 0.83876 0.49681 0.0
C994 C 0.8564 0.81682 0.61372 0.0
C995 C 0.87311 0.79752 0.61644 0.0
C996 C 0.89804 0.80148 0.60361 0.0
C997 C 0.90607 0.82541 0.59134 0.0
C998 C 0.88936 0.8447 0.58833 0.0
H999 H 0.81342 0.84336 0.45393 0.0
H1000 H 0.84288 0.83215 0.47947 0.0
H1001 H 0.81578 0.82359 0.52323 0.0
H1002 H 0.83728 0.81325 0.62352 0.0
H1003 H 0.86644 0.77962 0.6291 0.0
H1004 H 0.82401 0.08965 0.30829 0.0
H1005 H 0.85818 0.11883 0.30148 0.0
H1006 H 0.83493 0.15165 0.48152 0.0
H1007 H 0.80111 0.123 0.48794 0.0
H1008 H 0.84777 0.18613 0.39351 0.0
H1009 H 0.91962 0.11453 0.41001 0.0
H1010 H 0.89894 0.11202 0.34265 0.0
H1011 H 0.88777 0.10792 0.42399 0.0
C1012 C 0.82621 0.1032 0.3461 0.0
C1013 C 0.80965 0.10425 0.39828 0.0
C1014 C 0.84575 0.11981 0.34231 0.0
C1015 C 0.84925 0.13739 0.39126 0.0
C1016 C 0.83255 0.13848 0.44279 0.0
H1017 H 0.96895 0.20437 0.56862 0.0
H1018 H 0.93496 0.18062 0.52684 0.0
C1019 C 0.81307 0.12214 0.44626 0.0
C1020 C 0.87066 0.15419 0.39167 0.0
H1021 H 0.93256 0.15522 0.41273 0.0
C1022 C 0.86638 0.17943 0.3967 0.0
C1023 C 0.89492 0.14542 0.39616 0.0
C1024 C 0.90072 0.11851 0.39344 0.0
C1025 C 0.88547 0.19595 0.40957 0.0
C1026 C 0.90959 0.18705 0.41621 0.0
C1027 C 0.91405 0.16201 0.40752 0.0
C1028 C 0.92992 0.2026 0.4406 0.0
C1029 C 0.87943 0.22252 0.42 0.0
C1030 C 0.93835 0.2232 0.40643 0.0
C1031 C 0.95789 0.23715 0.43073 0.0
C1032 C 0.96945 0.2305 0.48917 0.0
C1033 C 0.96069 0.21 0.52324 0.0
C1034 C 0.94121 0.1963 0.49932 0.0
H1035 H 0.85943 0.22566 0.42427 0.0
H1036 H 0.88846 0.22948 0.46459 0.0
H1037 H 0.88629 0.23334 0.37821 0.0
H1038 H 0.93014 0.22825 0.36053 0.0
H1039 H 0.96429 0.25271 0.40307 0.0
H1040 H 0.13969 0.22274 0.56452 0.0
H1041 H 0.16731 0.18837 0.55877 0.0
H1042 H 0.10951 0.14026 0.62103 0.0
H1043 H 0.08154 0.1751 0.62877 0.0
H1044 H 0.15593 0.12838 0.67432 0.0
H1045 H 0.16092 0.14121 0.40711 0.0
H1046 H 0.16981 0.1676 0.45288 0.0
H1047 H 0.13877 0.15686 0.45678 0.0
C1048 C 0.13272 0.20511 0.57812 0.0
C1049 C 0.10814 0.20191 0.59653 0.0
C1050 C 0.14866 0.18531 0.57444 0.0
C1051 C 0.14036 0.16166 0.58796 0.0
C1052 C 0.11626 0.15838 0.60994 0.0
H1053 H 0.19549 0.027 0.44002 0.0
H1054 H 0.17248 0.06274 0.47315 0.0
C1055 C 0.10029 0.17834 0.6143 0.0
C1056 C 0.15638 0.14036 0.57476 0.0
H1057 H 0.18688 0.1113 0.45252 0.0
C1058 C 0.16274 0.12462 0.6259 0.0
C1059 C 0.16514 0.13543 0.51138 0.0
C1060 C 0.15816 0.15101 0.45374 0.0
C1061 C 0.17767 0.10408 0.61528 0.0
C1062 C 0.18655 0.09933 0.55203 0.0
C1063 C 0.18024 0.11513 0.50109 0.0
C1064 C 0.20071 0.07703 0.53594 0.0
C1065 C 0.18329 0.08723 0.67123 0.0
C1066 C 0.22436 0.07309 0.56038 0.0
C1067 C 0.2378 0.05246 0.54134 0.0
C1068 C 0.22778 0.03552 0.49737 0.0
C1069 C 0.20396 0.03957 0.47376 0.0
C1070 C 0.19067 0.06005 0.49269 0.0
H1071 H 0.17172 0.09114 0.71432 0.0
H1072 H 0.18055 0.06791 0.65673 0.0
H1073 H 0.20272 0.08949 0.68543 0.0
H1074 H 0.2326 0.08618 0.59313 0.0
H1075 H 0.25606 0.04995 0.56043 0.0
H1076 H 0.18793 0.90973 0.31335 0.0
H1077 H 0.1532 0.88125 0.31353 0.0
H1078 H 0.17906 0.84995 0.49308 0.0
H1079 H 0.21371 0.8778 0.49207 0.0
H1080 H 0.16268 0.81498 0.41456 0.0
H1081 H 0.09421 0.8897 0.427 0.0
H1082 H 0.11335 0.89037 0.35627 0.0
H1083 H 0.12653 0.89523 0.43522 0.0
C1084 C 0.18626 0.89659 0.35243 0.0
C1085 C 0.20372 0.89585 0.4025 0.0
C1086 C 0.16634 0.88042 0.35273 0.0
C1087 C 0.16324 0.86364 0.40388 0.0
C1088 C 0.18102 0.86257 0.45286 0.0
H1089 H 0.03691 0.8027 0.57797 0.0
H1090 H 0.07243 0.82534 0.5405 0.0
C1091 C 0.20097 0.87845 0.45211 0.0
C1092 C 0.14116 0.84779 0.40891 0.0
H1093 H 0.07918 0.84958 0.42863 0.0
C1094 C 0.14437 0.8225 0.41703 0.0
C1095 C 0.11727 0.85763 0.41278 0.0
C1096 C 0.11254 0.88472 0.40795 0.0
C1097 C 0.12457 0.80696 0.43111 0.0
C1098 C 0.10075 0.81686 0.4355 0.0
C1099 C 0.09742 0.84198 0.42495 0.0
C1100 C 0.07936 0.80217 0.45751 0.0
C1101 C 0.12955 0.78035 0.44454 0.0
C1102 C 0.07132 0.78141 0.42352 0.0
C1103 C 0.05093 0.76811 0.44538 0.0
C1104 C 0.03805 0.77558 0.5011 0.0
C1105 C 0.04622 0.79641 0.5347 0.0
C1106 C 0.06659 0.80946 0.51326 0.0
H1107 H 0.14928 0.77681 0.45318 0.0
H1108 H 0.11908 0.77398 0.48753 0.0
H1109 H 0.12375 0.76935 0.40206 0.0
H1110 H 0.08057 0.77566 0.37967 0.0
H1111 H 0.04504 0.75229 0.41807 0.0
H1112 H 0.18404 0.30711 0.69086 0.0
H1113 H 0.22423 0.31273 0.7373 0.0
H1114 H 0.24989 0.34371 0.55683 0.0
H1115 H 0.20908 0.33732 0.50901 0.0
H1116 H 0.27875 0.30839 0.59167 0.0
H1117 H 0.26683 0.36389 0.80931 0.0
H1118 H 0.2433 0.34126 0.81203 0.0
H1119 H 0.24386 0.36318 0.74637 0.0
C1120 C 0.19802 0.31581 0.66155 0.0
C1121 C 0.19356 0.32162 0.59628 0.0
C1122 C 0.22102 0.31932 0.68846 0.0
C1123 C 0.24017 0.329 0.65108 0.0
C1124 C 0.23536 0.3364 0.58683 0.0
H1125 H 0.3602 0.29634 0.91249 0.0
H1126 H 0.33857 0.32225 0.83487 0.0
C1127 C 0.21206 0.3329 0.55965 0.0
C1128 C 0.26548 0.32712 0.67679 0.0
H1129 H 0.29435 0.32759 0.82306 0.0
C1130 C 0.28258 0.31332 0.64162 0.0
C1131 C 0.27121 0.33428 0.74097 0.0
C1132 C 0.25535 0.35173 0.77876 0.0
C1133 C 0.30359 0.30389 0.67169 0.0
C1134 C 0.30696 0.30748 0.73922 0.0
C1135 C 0.29154 0.32393 0.77188 0.0
C1136 C 0.32397 0.29221 0.77853 0.0
C1137 C 0.32143 0.28954 0.63099 0.0
C1138 C 0.32363 0.26662 0.7722 0.0
C1139 C 0.33655 0.25183 0.81552 0.0
C1140 C 0.34932 0.26226 0.86759 0.0
C1141 C 0.35029 0.28781 0.87307 0.0
C1142 C 0.33795 0.30264 0.82862 0.0
H1143 H 0.32306 0.29771 0.58178 0.0
H1144 H 0.33987 0.28886 0.6534 0.0
H1145 H 0.3145 0.27065 0.62464 0.0
H1146 H 0.31233 0.25789 0.73589 0.0
H1147 H 0.33531 0.23218 0.81056 0.0
H1148 H 0.34689 0.81056 0.47308 0.0
H1149 H 0.34214 0.77082 0.41949 0.0
H1150 H 0.28143 0.79909 0.30925 0.0
H1151 H 0.28631 0.83869 0.36124 0.0
H1152 H 0.30175 0.73957 0.41851 0.0
H1153 H 0.32472 0.76936 0.16936 0.0
H1154 H 0.33161 0.78765 0.23993 0.0
H1155 H 0.30147 0.78816 0.20488 0.0
C1156 C 0.33263 0.80831 0.43711 0.0
C1157 C 0.31692 0.82775 0.42148 0.0
C1158 C 0.32993 0.78561 0.40667 0.0
C1159 C 0.31165 0.78212 0.35977 0.0
C1160 C 0.29597 0.80151 0.34435 0.0
H1161 H 0.2282 0.66435 0.21832 0.0
H1162 H 0.24904 0.69381 0.28746 0.0
C1163 C 0.29866 0.82412 0.37456 0.0
C1164 C 0.30821 0.75813 0.32784 0.0
H1165 H 0.30135 0.73229 0.17853 0.0
C1166 C 0.30207 0.73779 0.36607 0.0
C1167 C 0.30917 0.75568 0.25957 0.0
C1168 C 0.31736 0.77632 0.21611 0.0
C1169 C 0.29532 0.71549 0.3375 0.0
C1170 C 0.29423 0.71371 0.26899 0.0
C1171 C 0.3019 0.73363 0.23105 0.0
C1172 C 0.28336 0.69238 0.2351 0.0
C1173 C 0.28915 0.69422 0.38104 0.0
C1174 C 0.29573 0.68143 0.18297 0.0
C1175 C 0.28367 0.66487 0.14253 0.0
C1176 C 0.25898 0.65891 0.15349 0.0
C1177 C 0.24721 0.66849 0.20853 0.0
C1178 C 0.2592 0.68526 0.24853 0.0
H1179 H 0.29938 0.69529 0.42754 0.0
H1180 H 0.26937 0.69471 0.39283 0.0
H1181 H 0.29333 0.67651 0.35734 0.0
H1182 H 0.31437 0.68661 0.17164 0.0
H1183 H 0.29336 0.65769 0.10084 0.0
H1184 H 0.84228 0.71691 0.65154 0.0
H1185 H 0.80343 0.72269 0.70656 0.0
H1186 H 0.77212 0.66338 0.59695 0.0
H1187 H 0.81123 0.65777 0.54002 0.0
H1188 H 0.74207 0.70458 0.60145 0.0
H1189 H 0.77374 0.68017 0.8477 0.0
H1190 H 0.79304 0.70285 0.81135 0.0
H1191 H 0.79108 0.67291 0.77568 0.0
C1192 C 0.82723 0.70505 0.63891 0.0
C1193 C 0.82984 0.68698 0.59106 0.0
C1194 C 0.80502 0.70825 0.67093 0.0
C1195 C 0.78497 0.69324 0.65659 0.0
C1196 C 0.78743 0.67508 0.60894 0.0
H1197 H 0.66378 0.71442 0.92536 0.0
H1198 H 0.69217 0.69337 0.85329 0.0
C1199 C 0.80976 0.67188 0.5766 0.0
C1200 C 0.76142 0.69735 0.69047 0.0
H1201 H 0.73761 0.70515 0.84193 0.0
C1202 C 0.74088 0.70429 0.65401 0.0
C1203 C 0.75972 0.69648 0.75892 0.0
C1204 C 0.78051 0.68743 0.80062 0.0
C1205 C 0.71916 0.71184 0.68449 0.0
C1206 C 0.71822 0.71298 0.75313 0.0
C1207 C 0.7383 0.70461 0.78931 0.0
C1208 C 0.69746 0.7242 0.78897 0.0
C1209 C 0.69758 0.71866 0.64273 0.0
C1210 C 0.69029 0.74833 0.77579 0.0
C1211 C 0.67371 0.76033 0.81648 0.0
C1212 C 0.66447 0.7486 0.87205 0.0
C1213 C 0.67072 0.72406 0.88329 0.0
C1214 C 0.68698 0.71198 0.84208 0.0
H1215 H 0.6978 0.70846 0.59613 0.0
H1216 H 0.68 0.715 0.66785 0.0
H1217 H 0.69857 0.7384 0.63092 0.0
H1218 H 0.69852 0.75842 0.73619 0.0
H1219 H 0.66937 0.77925 0.80662 0.0
H1220 H 0.6747 0.20545 0.49559 0.0
H1221 H 0.66571 0.24659 0.45322 0.0
H1222 H 0.70668 0.22998 0.27971 0.0
H1223 H 0.71523 0.18948 0.32065 0.0
H1224 H 0.69942 0.28126 0.42812 0.0
H1225 H 0.6496 0.26478 0.202 0.0
H1226 H 0.65156 0.24188 0.26501 0.0
H1227 H 0.67499 0.24423 0.20349 0.0
C1228 C 0.68114 0.21049 0.44769 0.0
C1229 C 0.69582 0.19438 0.41161 0.0
C1230 C 0.67605 0.23394 0.42363 0.0
C1231 C 0.68516 0.24126 0.36276 0.0
C1232 C 0.69884 0.22465 0.3259 0.0
H1233 H 0.77313 0.34364 0.21819 0.0
H1234 H 0.74771 0.32039 0.29258 0.0
C1235 C 0.70401 0.20152 0.34984 0.0
C1236 C 0.68376 0.2669 0.33998 0.0
H1237 H 0.68155 0.29724 0.19604 0.0
C1238 C 0.69471 0.28513 0.37801 0.0
C1239 C 0.67673 0.27247 0.27563 0.0
C1240 C 0.66229 0.25479 0.23468 0.0
C1241 C 0.70191 0.30747 0.35044 0.0
C1242 C 0.69887 0.31116 0.28283 0.0
C1243 C 0.68476 0.29433 0.24742 0.0
C1244 C 0.71336 0.32956 0.2459 0.0
C1245 C 0.71364 0.32634 0.39365 0.0
C1246 C 0.70279 0.34259 0.19424 0.0
C1247 C 0.71754 0.35519 0.14997 0.0
C1248 C 0.7431 0.35534 0.15716 0.0
C1249 C 0.75349 0.34396 0.21156 0.0
C1250 C 0.73883 0.33087 0.25482 0.0
H1251 H 0.70436 0.3268 0.44162 0.0
H1252 H 0.73299 0.32127 0.40257 0.0
H1253 H 0.71297 0.34487 0.3719 0.0
H1254 H 0.68325 0.34194 0.1861 0.0
H1255 H 0.70899 0.36401 0.10872 0.0
H1256 H 0.30944 0.16132 0.03362 0.0
H1257 H 0.26986 0.16632 0.08825 0.0
H1258 H 0.299 0.22693 0.19718 0.0
H1259 H 0.33845 0.22159 0.14474 0.0
H1260 H 0.27344 0.19537 0.27303 0.0
H1261 H 0.21972 0.21989 0.05316 0.0
H1262 H 0.23558 0.19119 0.05035 0.0
H1263 H 0.2527 0.21915 0.05331 0.0
C1264 C 0.30733 0.17573 0.06917 0.0
C1265 C 0.327 0.19129 0.08423 0.0
C1266 C 0.28469 0.17864 0.10004 0.0
C1267 C 0.28135 0.19728 0.14596 0.0
C1268 C 0.30111 0.2125 0.16165 0.0
H1269 H 0.16639 0.28095 0.3003 0.0
H1270 H 0.19587 0.26017 0.23078 0.0
C1271 C 0.32367 0.2095 0.13131 0.0
C1272 C 0.25754 0.20117 0.17881 0.0
H1273 H 0.19895 0.22038 0.15316 0.0
C1274 C 0.25703 0.20055 0.24687 0.0
C1275 C 0.23625 0.20806 0.14441 0.0
C1276 C 0.23598 0.20983 0.0713 0.0
C1277 C 0.23623 0.2077 0.28175 0.0
C1278 C 0.21499 0.21496 0.24746 0.0
C1279 C 0.21516 0.21462 0.17926 0.0
C1280 C 0.19362 0.22563 0.2816 0.0
C1281 C 0.23781 0.20885 0.35492 0.0
C1282 C 0.1815 0.21273 0.33098 0.0
C1283 C 0.16491 0.22471 0.37157 0.0
C1284 C 0.15981 0.24966 0.36255 0.0
C1285 C 0.17006 0.2618 0.30891 0.0
C1286 C 0.18693 0.24991 0.26902 0.0
H1287 H 0.25699 0.20789 0.3724 0.0
H1288 H 0.22952 0.22596 0.37357 0.0
H1289 H 0.22771 0.19319 0.37612 0.0
H1290 H 0.18579 0.19376 0.34026 0.0
H1291 H 0.15697 0.21471 0.41182 0.0
H1292 H 0.20374 0.6826 0.82512 0.0
H1293 H 0.19938 0.72287 0.77824 0.0
H1294 H 0.16422 0.74816 0.95341 0.0
H1295 H 0.16962 0.70739 1.00218 0.0
H1296 H 0.1656 0.755 0.74918 0.0
H1297 H 0.22308 0.79177 0.95022 0.0
H1298 H 0.21753 0.75953 0.94182 0.0
H1299 H 0.1937 0.7793 0.97077 0.0
C1300 C 0.19468 0.6966 0.85344 0.0
C1301 C 0.18758 0.69211 0.91783 0.0
C1302 C 0.19205 0.71966 0.82639 0.0
C1303 C 0.18213 0.73885 0.86286 0.0
C1304 C 0.17261 0.73383 0.92503 0.0
H1305 H 0.21289 0.86341 0.60499 0.0
H1306 H 0.18763 0.84053 0.68206 0.0
C1307 C 0.17539 0.7105 0.95256 0.0
C1308 C 0.18488 0.76404 0.83682 0.0
H1309 H 0.22095 0.81447 0.85516 0.0
C1310 C 0.17726 0.76835 0.77272 0.0
C1311 C 0.20003 0.78147 0.86785 0.0
C1312 C 0.20922 0.7779 0.93631 0.0
C1313 C 0.18674 0.78782 0.73615 0.0
C1314 C 0.20326 0.80435 0.7659 0.0
C1315 C 0.20856 0.80164 0.83225 0.0
C1316 C 0.21813 0.82195 0.72731 0.0
C1317 C 0.18073 0.78889 0.66458 0.0
C1318 C 0.2438 0.82081 0.73064 0.0
C1319 C 0.25826 0.8346 0.68839 0.0
C1320 C 0.24731 0.84938 0.64107 0.0
C1321 C 0.22173 0.85171 0.64021 0.0
C1322 C 0.20728 0.83849 0.68389 0.0
H1323 H 0.17203 0.77178 0.64709 0.0
H1324 H 0.16773 0.80403 0.65554 0.0
H1325 H 0.19744 0.79214 0.63523 0.0
H1326 H 0.25271 0.80834 0.76389 0.0
H1327 H 0.27795 0.83255 0.69013 0.0
H1328 H 0.83967 0.72524 0.30568 0.0
H1329 H 0.81075 0.74653 0.2357 0.0
H1330 H 0.81771 0.81121 0.35368 0.0
H1331 H 0.84593 0.78967 0.42541 0.0
H1332 H 0.7722 0.80003 0.34198 0.0
H1333 H 0.81195 0.7967 0.09627 0.0
H1334 H 0.81109 0.76665 0.1305 0.0
H1335 H 0.82972 0.78989 0.16787 0.0
C1336 C 0.83552 0.74418 0.31585 0.0
C1337 C 0.84489 0.75567 0.37153 0.0
C1338 C 0.81909 0.75645 0.27538 0.0
C1339 C 0.81216 0.78061 0.28889 0.0
C1340 C 0.82274 0.79259 0.34219 0.0
H1341 H 0.69794 0.84537 0.03854 0.0
H1342 H 0.73715 0.84043 0.09525 0.0
C1343 C 0.83888 0.78024 0.38319 0.0
C1344 C 0.79152 0.79205 0.25315 0.0
H1345 H 0.76753 0.79999 0.10152 0.0
C1346 C 0.77146 0.80047 0.28936 0.0
C1347 C 0.79054 0.7931 0.1845 0.0
C1348 C 0.81214 0.78635 0.14268 0.0
C1349 C 0.74997 0.8084 0.25897 0.0
C1350 C 0.74819 0.80726 0.19056 0.0
C1351 C 0.76876 0.80043 0.15406 0.0
C1352 C 0.72456 0.81096 0.15681 0.0
C1353 C 0.72918 0.81746 0.30065 0.0
C1354 C 0.70463 0.79591 0.1722 0.0
C1355 C 0.68237 0.79874 0.14029 0.0
C1356 C 0.67958 0.81644 0.09153 0.0
C1357 C 0.69956 0.83151 0.07582 0.0
C1358 C 0.72194 0.82872 0.10809 0.0
H1359 H 0.736 0.8251 0.3472 0.0
H1360 H 0.71836 0.8317 0.27524 0.0
H1361 H 0.71688 0.80197 0.31247 0.0
H1362 H 0.70637 0.78174 0.20861 0.0
H1363 H 0.66738 0.78691 0.15381 0.0
H1364 H 0.73953 0.15742 0.70934 0.0
H1365 H 0.76318 0.18259 0.78434 0.0
H1366 H 0.82567 0.17818 0.65723 0.0
H1367 H 0.80197 0.15361 0.58099 0.0
H1368 H 0.80769 0.17972 0.85166 0.0
H1369 H 0.81086 0.25082 0.6579 0.0
H1370 H 0.79195 0.224 0.65095 0.0
H1371 H 0.8244 0.22188 0.63872 0.0
C1372 C 0.75841 0.16146 0.69773 0.0
C1373 C 0.76864 0.154 0.63837 0.0
C1374 C 0.77196 0.17579 0.7408 0.0
C1375 C 0.79599 0.18277 0.72552 0.0
C1376 C 0.80696 0.17353 0.66916 0.0
H1377 H 0.84948 0.31798 0.90458 0.0
H1378 H 0.85594 0.27771 0.854 0.0
C1379 C 0.79337 0.15941 0.62572 0.0
C1380 C 0.80825 0.20179 0.76507 0.0
H1381 H 0.82362 0.26216 0.76128 0.0
C1382 C 0.81166 0.19762 0.8317 0.0
C1383 C 0.81372 0.22508 0.73885 0.0
C1384 C 0.80994 0.23091 0.66784 0.0
C1385 C 0.81885 0.21655 0.87346 0.0
C1386 C 0.82235 0.24028 0.848 0.0
C1387 C 0.82099 0.24393 0.78069 0.0
C1388 C 0.8221 0.26223 0.89005 0.0
C1389 C 0.82156 0.21123 0.94492 0.0
C1390 C 0.80125 0.26668 0.92786 0.0
C1391 C 0.79748 0.28949 0.95566 0.0
C1392 C 0.81454 0.3083 0.94671 0.0
C1393 C 0.83626 0.30356 0.91271 0.0
C1394 C 0.83991 0.28065 0.88386 0.0
H1395 H 0.82795 0.19222 0.9529 0.0
H1396 H 0.83459 0.22402 0.96842 0.0
H1397 H 0.80349 0.21309 0.9689 0.0
H1398 H 0.78694 0.25309 0.93191 0.0
H1399 H 0.78052 0.29287 0.98135 0.0
loop_
_geom_bond_atom_site_label_1
_geom_bond_atom_site_label_2
_geom_bond_distance
_geom_bond_site_symmetry_2
_ccdc_geom_bond_type
C0 O12 1.241 . S
C0 O13 1.280 . S
C1 O14 1.277 . S
C1 O15 1.245 . S
C2 O26 1.247 . S
C2 O28 1.289 . S
Mg3 O4 1.926 . S
Mg3 O13 1.984 . S
Mg3 O15 1.988 . S
Mg3 O16 2.061 . S
O4 Mg3 1.926 . S
O4 Mg5 1.986 . S
O4 Mg6 1.917 . S
Mg5 O4 1.986 . S
Mg5 O12 2.042 . S
Mg5 O14 2.041 . S
Mg5 O20 2.038 . S
Mg5 O28 2.238 . S
Mg6 O4 1.917 . S
Mg6 O7 1.917 . S
Mg6 O17 2.106 . S
Mg6 O19 2.079 . S
Mg6 O28 2.106 . S
Mg6 O29 2.079 . S
O7 Mg6 1.917 . S
O7 Mg8 1.926 . S
O7 Mg9 1.986 . S
Mg8 O7 1.926 . S
Mg8 O22 1.984 . S
Mg8 O25 1.988 . S
Mg8 O26 2.061 . S
Mg9 O7 1.986 . S
Mg9 O17 2.238 . S
Mg9 O21 2.042 . S
Mg9 O23 2.041 . S
Mg9 O30 2.038 . S
C10 O16 1.247 . S
C10 O17 1.289 . S
C11 O29 1.245 . S
C11 O30 1.274 . S
O12 C0 1.241 . S
O12 Mg5 2.042 . S
O13 C0 1.280 . S
O13 Mg3 1.984 . S
O14 C1 1.277 . S
O14 Mg5 2.041 . S
O15 C1 1.245 . S
O15 Mg3 1.988 . S
O16 Mg3 2.061 . S
O16 C10 1.247 . S
O17 Mg6 2.106 . S
O17 Mg9 2.238 . S
O17 C10 1.289 . S
C18 O19 1.245 1_556 S
C18 O20 1.274 1_556 S
O19 Mg6 2.079 . S
O19 C18 1.245 1_554 S
O20 Mg5 2.038 . S
O20 C18 1.274 1_554 S
O21 Mg9 2.042 . S
O21 C24 1.241 . S
O22 Mg8 1.984 . S
O22 C24 1.280 . S
O23 Mg9 2.041 . S
O23 C27 1.277 . S
C24 O21 1.241 . S
C24 O22 1.280 . S
O25 Mg8 1.988 . S
O25 C27 1.245 . S
O26 C2 1.247 . S
O26 Mg8 2.061 . S
C27 O23 1.277 . S
C27 O25 1.245 . S
O28 C2 1.289 . S
O28 Mg5 2.238 . S
O28 Mg6 2.106 . S
O29 Mg6 2.079 . S
O29 C11 1.245 . S
O30 Mg9 2.038 . S
O30 C11 1.274 . S
C31 O43 1.241 . S
C31 O44 1.280 . S
C32 O45 1.277 . S
C32 O46 1.245 . S
C33 O57 1.247 . S
C33 O59 1.289 . S
Mg34 O35 1.926 . S
Mg34 O44 1.984 . S
Mg34 O46 1.988 . S
Mg34 O47 2.061 . S
O35 Mg34 1.926 . S
O35 Mg36 1.986 . S
O35 Mg37 1.917 . S
Mg36 O35 1.986 . S
Mg36 O43 2.042 . S
Mg36 O45 2.041 . S
Mg36 O51 2.038 . S
Mg36 O59 2.238 . S
Mg37 O35 1.917 . S
Mg37 O38 1.917 . S
Mg37 O48 2.106 . S
Mg37 O50 2.079 . S
Mg37 O59 2.106 . S
Mg37 O60 2.079 . S
O38 Mg37 1.917 . S
O38 Mg39 1.926 . S
O38 Mg40 1.986 . S
Mg39 O38 1.926 . S
Mg39 O53 1.984 . S
Mg39 O56 1.988 . S
Mg39 O57 2.061 . S
Mg40 O38 1.986 . S
Mg40 O48 2.238 . S
Mg40 O52 2.042 . S
Mg40 O54 2.041 . S
Mg40 O61 2.038 . S
C41 O47 1.247 . S
C41 O48 1.289 . S
C42 O60 1.245 1_554 S
C42 O61 1.274 1_554 S
O43 C31 1.241 . S
O43 Mg36 2.042 . S
O44 C31 1.280 . S
O44 Mg34 1.984 . S
O45 C32 1.277 . S
O45 Mg36 2.041 . S
O46 C32 1.245 . S
O46 Mg34 1.988 . S
O47 Mg34 2.061 . S
O47 C41 1.247 . S
O48 Mg37 2.106 . S
O48 Mg40 2.238 . S
O48 C41 1.289 . S
C49 O50 1.245 . S
C49 O51 1.274 . S
O50 Mg37 2.079 . S
O50 C49 1.245 . S
O51 Mg36 2.038 . S
O51 C49 1.274 . S
O52 Mg40 2.042 . S
O52 C55 1.241 . S
O53 Mg39 1.984 . S
O53 C55 1.280 . S
O54 Mg40 2.041 . S
O54 C58 1.277 . S
C55 O52 1.241 . S
C55 O53 1.280 . S
O56 Mg39 1.988 . S
O56 C58 1.245 . S
O57 C33 1.247 . S
O57 Mg39 2.061 . S
C58 O54 1.277 . S
C58 O56 1.245 . S
O59 C33 1.289 . S
O59 Mg36 2.238 . S
O59 Mg37 2.106 . S
O60 Mg37 2.079 . S
O60 C42 1.245 1_556 S
O61 Mg40 2.038 . S
O61 C42 1.274 1_556 S
C62 O74 1.241 . S
C62 O75 1.280 . S
C63 O76 1.277 . S
C63 O77 1.245 . S
C64 O88 1.247 . S
C64 O90 1.289 . S
Mg65 O66 1.926 . S
Mg65 O75 1.984 . S
Mg65 O77 1.988 . S
Mg65 O78 2.061 . S
O66 Mg65 1.926 . S
O66 Mg67 1.986 . S
O66 Mg68 1.917 . S
Mg67 O66 1.986 . S
Mg67 O74 2.042 . S
Mg67 O76 2.041 . S
Mg67 O82 2.038 . S
Mg67 O90 2.238 . S
Mg68 O66 1.917 . S
Mg68 O69 1.917 . S
Mg68 O79 2.106 . S
Mg68 O81 2.079 . S
Mg68 O90 2.106 . S
Mg68 O91 2.079 . S
O69 Mg68 1.917 . S
O69 Mg70 1.926 . S
O69 Mg71 1.986 . S
Mg70 O69 1.926 . S
Mg70 O84 1.984 . S
Mg70 O87 1.988 . S
Mg70 O88 2.061 . S
Mg71 O69 1.986 . S
Mg71 O79 2.238 . S
Mg71 O83 2.042 . S
Mg71 O85 2.041 . S
Mg71 O92 2.038 . S
C72 O78 1.247 . S
C72 O79 1.289 . S
C73 O91 1.245 . S
C73 O92 1.274 . S
O74 C62 1.241 . S
O74 Mg67 2.042 . S
O75 C62 1.280 . S
O75 Mg65 1.984 . S
O76 C63 1.277 . S
O76 Mg67 2.041 . S
O77 C63 1.245 . S
O77 Mg65 1.988 . S
O78 Mg65 2.061 . S
O78 C72 1.247 . S
O79 Mg68 2.106 . S
O79 Mg71 2.238 . S
O79 C72 1.289 . S
C80 O81 1.245 1_556 S
C80 O82 1.274 1_556 S
O81 Mg68 2.079 . S
O81 C80 1.245 1_554 S
O82 Mg67 2.038 . S
O82 C80 1.274 1_554 S
O83 Mg71 2.042 . S
O83 C86 1.241 . S
O84 Mg70 1.984 . S
O84 C86 1.280 . S
O85 Mg71 2.041 . S
O85 C89 1.277 . S
C86 O83 1.241 . S
C86 O84 1.280 . S
O87 Mg70 1.988 . S
O87 C89 1.245 . S
O88 C64 1.247 . S
O88 Mg70 2.061 . S
C89 O85 1.277 . S
C89 O87 1.245 . S
O90 C64 1.289 . S
O90 Mg67 2.238 . S
O90 Mg68 2.106 . S
O91 Mg68 2.079 . S
O91 C73 1.245 . S
O92 Mg71 2.038 . S
O92 C73 1.274 . S
C93 O105 1.241 . S
C93 O106 1.280 . S
C94 O107 1.277 . S
C94 O108 1.245 . S
C95 O119 1.247 . S
C95 O121 1.289 . S
Mg96 O97 1.926 . S
Mg96 O106 1.984 . S
Mg96 O108 1.988 . S
Mg96 O109 2.061 . S
O97 Mg96 1.926 . S
O97 Mg98 1.986 . S
O97 Mg99 1.917 . S
Mg98 O97 1.986 . S
Mg98 O105 2.042 . S
Mg98 O107 2.041 . S
Mg98 O113 2.038 . S
Mg98 O121 2.238 . S
Mg99 O97 1.917 . S
Mg99 O100 1.917 . S
Mg99 O110 2.106 . S
Mg99 O112 2.079 . S
Mg99 O121 2.106 . S
Mg99 O122 2.079 . S
O100 Mg99 1.917 . S
O100 Mg101 1.926 . S
O100 Mg102 1.986 . S
Mg101 O100 1.926 . S
Mg101 O115 1.984 . S
Mg101 O118 1.988 . S
Mg101 O119 2.061 . S
Mg102 O100 1.986 . S
Mg102 O110 2.238 . S
Mg102 O114 2.042 . S
Mg102 O116 2.041 . S
Mg102 O123 2.038 . S
C103 O109 1.247 . S
C103 O110 1.289 . S
C104 O122 1.245 1_554 S
C104 O123 1.274 1_554 S
O105 C93 1.241 . S
O105 Mg98 2.042 . S
O106 C93 1.280 . S
O106 Mg96 1.984 . S
O107 C94 1.277 . S
O107 Mg98 2.041 . S
O108 C94 1.245 . S
O108 Mg96 1.988 . S
O109 Mg96 2.061 . S
O109 C103 1.247 . S
O110 Mg99 2.106 . S
O110 Mg102 2.238 . S
O110 C103 1.289 . S
C111 O112 1.245 . S
C111 O113 1.274 . S
O112 Mg99 2.079 . S
O112 C111 1.245 . S
O113 Mg98 2.038 . S
O113 C111 1.274 . S
O114 Mg102 2.042 . S
O114 C117 1.241 . S
O115 Mg101 1.984 . S
O115 C117 1.280 . S
O116 Mg102 2.041 . S
O116 C120 1.277 . S
C117 O114 1.241 . S
C117 O115 1.280 . S
O118 Mg101 1.988 . S
O118 C120 1.245 . S
O119 C95 1.247 . S
O119 Mg101 2.061 . S
C120 O116 1.277 . S
C120 O118 1.245 . S
O121 C95 1.289 . S
O121 Mg98 2.238 . S
O121 Mg99 2.106 . S
O122 Mg99 2.079 . S
O122 C104 1.245 1_556 S
O123 Mg102 2.038 . S
O123 C104 1.274 1_556 S
C124 O136 1.241 . S
C124 O137 1.280 . S
C125 O138 1.277 . S
C125 O139 1.245 . S
C126 O150 1.247 . S
C126 O152 1.289 . S
Mg127 O128 1.926 . S
Mg127 O137 1.984 . S
Mg127 O139 1.988 . S
Mg127 O140 2.061 . S
O128 Mg127 1.926 . S
O128 Mg129 1.986 . S
O128 Mg130 1.917 . S
Mg129 O128 1.986 . S
Mg129 O136 2.042 . S
Mg129 O138 2.041 . S
Mg129 O144 2.038 . S
Mg129 O152 2.238 . S
Mg130 O128 1.917 . S
Mg130 O131 1.917 . S
Mg130 O141 2.106 . S
Mg130 O143 2.079 . S
Mg130 O152 2.106 . S
Mg130 O153 2.079 . S
O131 Mg130 1.917 . S
O131 Mg132 1.926 . S
O131 Mg133 1.986 . S
Mg132 O131 1.926 . S
Mg132 O146 1.984 . S
Mg132 O149 1.988 . S
Mg132 O150 2.061 . S
Mg133 O131 1.986 . S
Mg133 O141 2.238 . S
Mg133 O145 2.042 . S
Mg133 O147 2.041 . S
Mg133 O154 2.038 . S
C134 O140 1.247 . S
C134 O141 1.289 . S
C135 O153 1.245 . S
C135 O154 1.274 . S
O136 C124 1.241 . S
O136 Mg129 2.042 . S
O137 C124 1.280 . S
O137 Mg127 1.984 . S
O138 C125 1.277 . S
O138 Mg129 2.041 . S
O139 C125 1.245 . S
O139 Mg127 1.988 . S
O140 Mg127 2.061 . S
O140 C134 1.247 . S
O141 Mg130 2.106 . S
O141 Mg133 2.238 . S
O141 C134 1.289 . S
C142 O143 1.245 . S
C142 O144 1.274 . S
O143 Mg130 2.079 . S
O143 C142 1.245 . S
O144 Mg129 2.038 . S
O144 C142 1.274 . S
O145 Mg133 2.042 . S
O145 C148 1.241 . S
O146 Mg132 1.984 . S
O146 C148 1.280 . S
O147 Mg133 2.041 . S
O147 C151 1.277 . S
C148 O145 1.241 . S
C148 O146 1.280 . S
O149 Mg132 1.988 . S
O149 C151 1.245 . S
O150 C126 1.247 . S
O150 Mg132 2.061 . S
C151 O147 1.277 . S
C151 O149 1.245 . S
O152 C126 1.289 . S
O152 Mg129 2.238 . S
O152 Mg130 2.106 . S
O153 Mg130 2.079 . S
O153 C135 1.245 . S
O154 Mg133 2.038 . S
O154 C135 1.274 . S
C155 O167 1.241 . S
C155 O168 1.280 . S
C156 O169 1.277 . S
C156 O170 1.245 . S
C157 O181 1.247 . S
C157 O183 1.289 . S
Mg158 O159 1.926 . S
Mg158 O168 1.984 . S
Mg158 O170 1.988 . S
Mg158 O171 2.061 . S
O159 Mg158 1.926 . S
O159 Mg160 1.986 . S
O159 Mg161 1.917 . S
Mg160 O159 1.986 . S
Mg160 O167 2.042 . S
Mg160 O169 2.041 . S
Mg160 O175 2.038 . S
Mg160 O183 2.238 . S
Mg161 O159 1.917 . S
Mg161 O162 1.917 . S
Mg161 O172 2.106 . S
Mg161 O174 2.079 . S
Mg161 O183 2.106 . S
Mg161 O184 2.079 . S
O162 Mg161 1.917 . S
O162 Mg163 1.926 . S
O162 Mg164 1.986 . S
Mg163 O162 1.926 . S
Mg163 O177 1.984 . S
Mg163 O180 1.988 . S
Mg163 O181 2.061 . S
Mg164 O162 1.986 . S
Mg164 O172 2.238 . S
Mg164 O176 2.042 . S
Mg164 O178 2.041 . S
Mg164 O185 2.038 . S
C165 O171 1.247 . S
C165 O172 1.289 . S
C166 O184 1.245 . S
C166 O185 1.274 . S
O167 C155 1.241 . S
O167 Mg160 2.042 . S
O168 C155 1.280 . S
O168 Mg158 1.984 . S
O169 C156 1.277 . S
O169 Mg160 2.041 . S
O170 C156 1.245 . S
O170 Mg158 1.988 . S
O171 Mg158 2.061 . S
O171 C165 1.247 . S
O172 Mg161 2.106 . S
O172 Mg164 2.238 . S
O172 C165 1.289 . S
C173 O174 1.245 . S
C173 O175 1.274 . S
O174 Mg161 2.079 . S
O174 C173 1.245 . S
O175 Mg160 2.038 . S
O175 C173 1.274 . S
O176 Mg164 2.042 . S
O176 C179 1.241 . S
O177 Mg163 1.984 . S
O177 C179 1.280 . S
O178 Mg164 2.041 . S
O178 C182 1.277 . S
C179 O176 1.241 . S
C179 O177 1.280 . S
O180 Mg163 1.988 . S
O180 C182 1.245 . S
O181 C157 1.247 . S
O181 Mg163 2.061 . S
C182 O178 1.277 . S
C182 O180 1.245 . S
O183 C157 1.289 . S
O183 Mg160 2.238 . S
O183 Mg161 2.106 . S
O184 Mg161 2.079 . S
O184 C166 1.245 . S
O185 Mg164 2.038 . S
O185 C166 1.274 . S
C186 O198 1.241 . S
C186 O199 1.280 . S
C187 O200 1.277 . S
C187 O201 1.245 . S
C188 O212 1.247 . S
C188 O214 1.289 . S
Mg189 O190 1.926 . S
Mg189 O199 1.984 . S
Mg189 O201 1.988 . S
Mg189 O202 2.061 . S
O190 Mg189 1.926 . S
O190 Mg191 1.986 . S
O190 Mg192 1.917 . S
Mg191 O190 1.986 . S
Mg191 O198 2.042 . S
Mg191 O200 2.041 . S
Mg191 O206 2.038 . S
Mg191 O214 2.238 . S
Mg192 O190 1.917 . S
Mg192 O193 1.917 . S
Mg192 O203 2.106 . S
Mg192 O205 2.079 . S
Mg192 O214 2.106 . S
Mg192 O215 2.079 . S
O193 Mg192 1.917 . S
O193 Mg194 1.926 . S
O193 Mg195 1.986 . S
Mg194 O193 1.926 . S
Mg194 O208 1.984 . S
Mg194 O211 1.988 . S
Mg194 O212 2.061 . S
Mg195 O193 1.986 . S
Mg195 O203 2.238 . S
Mg195 O207 2.042 . S
Mg195 O209 2.041 . S
Mg195 O216 2.038 . S
C196 O202 1.247 . S
C196 O203 1.289 . S
C197 O215 1.245 . S
C197 O216 1.274 . S
O198 C186 1.241 . S
O198 Mg191 2.042 . S
O199 C186 1.280 . S
O199 Mg189 1.984 . S
O200 C187 1.277 . S
O200 Mg191 2.041 . S
O201 C187 1.245 . S
O201 Mg189 1.988 . S
O202 Mg189 2.061 . S
O202 C196 1.247 . S
O203 Mg192 2.106 . S
O203 Mg195 2.238 . S
O203 C196 1.289 . S
C204 O205 1.245 . S
C204 O206 1.274 . S
O205 Mg192 2.079 . S
O205 C204 1.245 . S
O206 Mg191 2.038 . S
O206 C204 1.274 . S
O207 Mg195 2.042 . S
O207 C210 1.241 . S
O208 Mg194 1.984 . S
O208 C210 1.280 . S
O209 Mg195 2.041 . S
O209 C213 1.277 . S
C210 O207 1.241 . S
C210 O208 1.280 . S
O211 Mg194 1.988 . S
O211 C213 1.245 . S
O212 C188 1.247 . S
O212 Mg194 2.061 . S
C213 O209 1.277 . S
C213 O211 1.245 . S
O214 C188 1.289 . S
O214 Mg191 2.238 . S
O214 Mg192 2.106 . S
O215 Mg192 2.079 . S
O215 C197 1.245 . S
O216 Mg195 2.038 . S
O216 C197 1.274 . S
C217 O229 1.241 . S
C217 O230 1.280 . S
C218 O231 1.277 . S
C218 O232 1.245 . S
C219 O243 1.247 . S
C219 O245 1.289 . S
Mg220 O221 1.926 . S
Mg220 O230 1.984 . S
Mg220 O232 1.988 . S
Mg220 O233 2.061 . S
O221 Mg220 1.926 . S
O221 Mg222 1.986 . S
O221 Mg223 1.917 . S
Mg222 O221 1.986 . S
Mg222 O229 2.042 . S
Mg222 O231 2.041 . S
Mg222 O237 2.038 . S
Mg222 O245 2.238 . S
Mg223 O221 1.917 . S
Mg223 O224 1.917 . S
Mg223 O234 2.106 . S
Mg223 O236 2.079 . S
Mg223 O245 2.106 . S
Mg223 O246 2.079 . S
O224 Mg223 1.917 . S
O224 Mg225 1.926 . S
O224 Mg226 1.986 . S
Mg225 O224 1.926 . S
Mg225 O239 1.984 . S
Mg225 O242 1.988 . S
Mg225 O243 2.061 . S
Mg226 O224 1.986 . S
Mg226 O234 2.238 . S
Mg226 O238 2.042 . S
Mg226 O240 2.041 . S
Mg226 O247 2.038 . S
C227 O233 1.247 . S
C227 O234 1.289 . S
C228 O246 1.245 . S
C228 O247 1.274 . S
O229 C217 1.241 . S
O229 Mg222 2.042 . S
O230 C217 1.280 . S
O230 Mg220 1.984 . S
O231 C218 1.277 . S
O231 Mg222 2.041 . S
O232 C218 1.245 . S
O232 Mg220 1.988 . S
O233 Mg220 2.061 . S
O233 C227 1.247 . S
O234 Mg223 2.106 . S
O234 Mg226 2.238 . S
O234 C227 1.289 . S
C235 O236 1.245 . S
C235 O237 1.274 . S
O236 Mg223 2.079 . S
O236 C235 1.245 . S
O237 Mg222 2.038 . S
O237 C235 1.274 . S
O238 Mg226 2.042 . S
O238 C241 1.241 . S
O239 Mg225 1.984 . S
O239 C241 1.280 . S
O240 Mg226 2.041 . S
O240 C244 1.277 . S
C241 O238 1.241 . S
C241 O239 1.280 . S
O242 Mg225 1.988 . S
O242 C244 1.245 . S
O243 C219 1.247 . S
O243 Mg225 2.061 . S
C244 O240 1.277 . S
C244 O242 1.245 . S
O245 C219 1.289 . S
O245 Mg222 2.238 . S
O245 Mg223 2.106 . S
O246 Mg223 2.079 . S
O246 C228 1.245 . S
O247 Mg226 2.038 . S
O247 C228 1.274 . S
H248 C256 0.929 . S
H249 C258 0.930 . S
H250 C260 0.930 . S
H251 C263 0.929 . S
H252 C266 0.930 . S
H253 C268 0.960 . S
H254 C268 0.960 . S
H255 C268 0.960 . S
C256 H248 0.929 . S
C256 C257 1.377 . S
C256 C258 1.384 . S
C257 C256 1.377 . S
C257 C263 1.390 . S
C258 H249 0.930 . S
C258 C256 1.384 . S
C258 C259 1.372 . S
C259 C258 1.372 . S
C259 C260 1.400 . S
C259 C264 1.490 . S
C260 H250 0.930 . S
C260 C259 1.400 . S
C260 C263 1.386 . S
H261 C277 0.930 . S
H262 C278 0.931 . S
C263 H251 0.929 . S
C263 C257 1.390 . S
C263 C260 1.386 . S
C264 C259 1.490 . S
C264 C266 1.395 . S
C264 C267 1.403 . S
H265 C271 0.930 . S
C266 H252 0.930 . S
C266 C264 1.395 . S
C266 C269 1.403 . S
C267 C264 1.403 . S
C267 C268 1.524 . S
C267 C271 1.400 . S
C268 H253 0.960 . S
C268 H254 0.960 . S
C268 H255 0.960 . S
C268 C267 1.524 . S
C269 C266 1.403 . S
C269 C270 1.392 . S
C269 C273 1.495 . S
C270 C269 1.392 . S
C270 C271 1.385 . S
C270 C272 1.478 . S
C271 H265 0.930 . S
C271 C267 1.400 . S
C271 C270 1.385 . S
C272 C270 1.478 . S
C272 C274 1.381 . S
C272 C278 1.383 . S
C273 C269 1.495 . S
C273 H279 0.959 . S
C273 H280 0.961 . S
C273 H281 0.960 . S
C274 C272 1.381 . S
C274 C275 1.394 . S
C274 H282 0.930 . S
C275 C274 1.394 . S
C275 C276 1.383 . S
C275 H283 0.929 . S
C276 C275 1.383 . S
C276 C277 1.377 . S
C277 H261 0.930 . S
C277 C276 1.377 . S
C277 C278 1.379 . S
C278 H262 0.931 . S
C278 C272 1.383 . S
C278 C277 1.379 . S
H279 C273 0.959 . S
H280 C273 0.961 . S
H281 C273 0.960 . S
H282 C274 0.930 . S
H283 C275 0.929 . S
H284 C292 0.929 . S
H285 C294 0.930 . S
H286 C296 0.930 . S
H287 C299 0.929 . S
H288 C302 0.930 . S
H289 C304 0.960 . S
H290 C304 0.960 . S
H291 C304 0.960 . S
C292 H284 0.929 . S
C292 C293 1.377 . S
C292 C294 1.384 . S
C293 C292 1.377 . S
C293 C299 1.390 . S
C294 H285 0.930 . S
C294 C292 1.384 . S
C294 C295 1.372 . S
C295 C294 1.372 . S
C295 C296 1.400 . S
C295 C300 1.490 . S
C296 H286 0.930 . S
C296 C295 1.400 . S
C296 C299 1.386 . S
H297 C313 0.930 . S
H298 C314 0.931 . S
C299 H287 0.929 . S
C299 C293 1.390 . S
C299 C296 1.386 . S
C300 C295 1.490 . S
C300 C302 1.395 . S
C300 C303 1.403 . S
H301 C307 0.930 . S
C302 H288 0.930 . S
C302 C300 1.395 . S
C302 C305 1.403 . S
C303 C300 1.403 . S
C303 C304 1.524 . S
C303 C307 1.400 . S
C304 H289 0.960 . S
C304 H290 0.960 . S
C304 H291 0.960 . S
C304 C303 1.524 . S
C305 C302 1.403 . S
C305 C306 1.392 . S
C305 C309 1.495 . S
C306 C305 1.392 . S
C306 C307 1.385 . S
C306 C308 1.478 . S
C307 H301 0.930 . S
C307 C303 1.400 . S
C307 C306 1.385 . S
C308 C306 1.478 . S
C308 C310 1.381 . S
C308 C314 1.383 . S
C309 C305 1.495 . S
C309 H315 0.959 . S
C309 H316 0.961 . S
C309 H317 0.960 . S
C310 C308 1.381 . S
C310 C311 1.394 . S
C310 H318 0.930 . S
C311 C310 1.394 . S
C311 C312 1.383 . S
C311 H319 0.929 . S
C312 C311 1.383 . S
C312 C313 1.377 . S
C313 H297 0.930 . S
C313 C312 1.377 . S
C313 C314 1.379 . S
C314 H298 0.931 . S
C314 C308 1.383 . S
C314 C313 1.379 . S
H315 C309 0.959 . S
H316 C309 0.961 . S
H317 C309 0.960 . S
H318 C310 0.930 . S
H319 C311 0.929 . S
H320 C328 0.929 . S
H321 C330 0.930 . S
H322 C332 0.930 . S
H323 C335 0.929 . S
H324 C338 0.930 . S
H325 C340 0.960 . S
H326 C340 0.960 . S
H327 C340 0.960 . S
C328 H320 0.929 . S
C328 C329 1.377 . S
C328 C330 1.384 . S
C329 C328 1.377 . S
C329 C335 1.390 . S
C330 H321 0.930 . S
C330 C328 1.384 . S
C330 C331 1.372 . S
C331 C330 1.372 . S
C331 C332 1.400 . S
C331 C336 1.490 . S
C332 H322 0.930 . S
C332 C331 1.400 . S
C332 C335 1.386 . S
H333 C349 0.930 . S
H334 C350 0.931 . S
C335 H323 0.929 . S
C335 C329 1.390 . S
C335 C332 1.386 . S
C336 C331 1.490 . S
C336 C338 1.395 . S
C336 C339 1.403 . S
H337 C343 0.930 . S
C338 H324 0.930 . S
C338 C336 1.395 . S
C338 C341 1.403 . S
C339 C336 1.403 . S
C339 C340 1.524 . S
C339 C343 1.400 . S
C340 H325 0.960 . S
C340 H326 0.960 . S
C340 H327 0.960 . S
C340 C339 1.524 . S
C341 C338 1.403 . S
C341 C342 1.392 . S
C341 C345 1.495 . S
C342 C341 1.392 . S
C342 C343 1.385 . S
C342 C344 1.478 . S
C343 H337 0.930 . S
C343 C339 1.400 . S
C343 C342 1.385 . S
C344 C342 1.478 . S
C344 C346 1.381 . S
C344 C350 1.383 . S
C345 C341 1.495 . S
C345 H351 0.959 . S
C345 H352 0.961 . S
C345 H353 0.960 . S
C346 C344 1.381 . S
C346 C347 1.394 . S
C346 H354 0.930 . S
C347 C346 1.394 . S
C347 C348 1.383 . S
C347 H355 0.929 . S
C348 C347 1.383 . S
C348 C349 1.377 . S
C349 H333 0.930 . S
C349 C348 1.377 . S
C349 C350 1.379 . S
C350 H334 0.931 . S
C350 C344 1.383 . S
C350 C349 1.379 . S
H351 C345 0.959 . S
H352 C345 0.961 . S
H353 C345 0.960 . S
H354 C346 0.930 . S
H355 C347 0.929 . S
H356 C364 0.929 . S
H357 C366 0.930 . S
H358 C368 0.930 . S
H359 C371 0.929 . S
H360 C374 0.930 . S
H361 C376 0.960 . S
H362 C376 0.960 . S
H363 C376 0.960 . S
C364 H356 0.929 . S
C364 C365 1.377 . S
C364 C366 1.384 . S
C365 C364 1.377 . S
C365 C371 1.390 . S
C366 H357 0.930 . S
C366 C364 1.384 . S
C366 C367 1.372 . S
C367 C366 1.372 . S
C367 C368 1.400 . S
C367 C372 1.490 . S
C368 H358 0.930 . S
C368 C367 1.400 . S
C368 C371 1.386 . S
H369 C385 0.930 . S
H370 C386 0.931 . S
C371 H359 0.929 . S
C371 C365 1.390 . S
C371 C368 1.386 . S
C372 C367 1.490 . S
C372 C374 1.395 . S
C372 C375 1.403 . S
H373 C379 0.930 . S
C374 H360 0.930 . S
C374 C372 1.395 . S
C374 C377 1.403 . S
C375 C372 1.403 . S
C375 C376 1.524 . S
C375 C379 1.400 . S
C376 H361 0.960 . S
C376 H362 0.960 . S
C376 H363 0.960 . S
C376 C375 1.524 . S
C377 C374 1.403 . S
C377 C378 1.392 . S
C377 C381 1.495 . S
C378 C377 1.392 . S
C378 C379 1.385 . S
C378 C380 1.478 . S
C379 H373 0.930 . S
C379 C375 1.400 . S
C379 C378 1.385 . S
C380 C378 1.478 . S
C380 C382 1.381 . S
C380 C386 1.383 . S
C381 C377 1.495 . S
C381 H387 0.959 . S
C381 H388 0.961 . S
C381 H389 0.960 . S
C382 C380 1.381 . S
C382 C383 1.394 . S
C382 H390 0.930 . S
C383 C382 1.394 . S
C383 C384 1.383 . S
C383 H391 0.929 . S
C384 C383 1.383 . S
C384 C385 1.377 . S
C385 H369 0.930 . S
C385 C384 1.377 . S
C385 C386 1.379 . S
C386 H370 0.931 . S
C386 C380 1.383 . S
C386 C385 1.379 . S
H387 C381 0.959 . S
H388 C381 0.961 . S
H389 C381 0.960 . S
H390 C382 0.930 . S
H391 C383 0.929 . S
H392 C400 0.929 . S
H393 C402 0.930 . S
H394 C404 0.930 . S
H395 C407 0.929 . S
H396 C410 0.930 . S
H397 C412 0.960 . S
H398 C412 0.960 . S
H399 C412 0.960 . S
C400 H392 0.929 . S
C400 C401 1.377 . S
C400 C402 1.384 . S
C401 C400 1.377 . S
C401 C407 1.390 . S
C402 H393 0.930 . S
C402 C400 1.384 . S
C402 C403 1.372 . S
C403 C402 1.372 . S
C403 C404 1.400 . S
C403 C408 1.490 . S
C404 H394 0.930 . S
C404 C403 1.400 . S
C404 C407 1.386 . S
H405 C421 0.930 . S
H406 C422 0.931 . S
C407 H395 0.929 . S
C407 C401 1.390 . S
C407 C404 1.386 . S
C408 C403 1.490 . S
C408 C410 1.395 . S
C408 C411 1.403 . S
H409 C415 0.930 . S
C410 H396 0.930 . S
C410 C408 1.395 . S
C410 C413 1.403 . S
C411 C408 1.403 . S
C411 C412 1.524 . S
C411 C415 1.400 . S
C412 H397 0.960 . S
C412 H398 0.960 . S
C412 H399 0.960 . S
C412 C411 1.524 . S
C413 C410 1.403 . S
C413 C414 1.392 . S
C413 C417 1.495 . S
C414 C413 1.392 . S
C414 C415 1.385 . S
C414 C416 1.478 1_554 S
C415 H409 0.930 . S
C415 C411 1.400 . S
C415 C414 1.385 . S
C416 C414 1.478 1_556 S
C416 C418 1.381 . S
C416 C422 1.383 . S
C417 C413 1.495 . S
C417 H423 0.959 . S
C417 H424 0.961 . S
C417 H425 0.960 . S
C418 C416 1.381 . S
C418 C419 1.394 . S
C418 H426 0.930 . S
C419 C418 1.394 . S
C419 C420 1.383 . S
C419 H427 0.929 . S
C420 C419 1.383 . S
C420 C421 1.377 . S
C421 H405 0.930 . S
C421 C420 1.377 . S
C421 C422 1.379 . S
C422 H406 0.931 . S
C422 C416 1.383 . S
C422 C421 1.379 . S
H423 C417 0.959 . S
H424 C417 0.961 . S
H425 C417 0.960 . S
H426 C418 0.930 . S
H427 C419 0.929 . S
H428 C436 0.929 . S
H429 C438 0.930 . S
H430 C440 0.930 . S
H431 C443 0.929 . S
H432 C446 0.930 . S
H433 C448 0.960 . S
H434 C448 0.960 . S
H435 C448 0.960 . S
C436 H428 0.929 . S
C436 C437 1.377 . S
C436 C438 1.384 . S
C437 C436 1.377 . S
C437 C443 1.390 . S
C438 H429 0.930 . S
C438 C436 1.384 . S
C438 C439 1.372 . S
C439 C438 1.372 . S
C439 C440 1.400 . S
C439 C444 1.490 1_554 S
C440 H430 0.930 . S
C440 C439 1.400 . S
C440 C443 1.386 . S
H441 C457 0.930 . S
H442 C458 0.931 . S
C443 H431 0.929 . S
C443 C437 1.390 . S
C443 C440 1.386 . S
C444 C439 1.490 1_556 S
C444 C446 1.395 . S
C444 C447 1.403 . S
H445 C451 0.930 . S
C446 H432 0.930 . S
C446 C444 1.395 . S
C446 C449 1.403 . S
C447 C444 1.403 . S
C447 C448 1.524 . S
C447 C451 1.400 . S
C448 H433 0.960 . S
C448 H434 0.960 . S
C448 H435 0.960 . S
C448 C447 1.524 . S
C449 C446 1.403 . S
C449 C450 1.392 . S
C449 C453 1.495 . S
C450 C449 1.392 . S
C450 C451 1.385 . S
C450 C452 1.478 . S
C451 H445 0.930 . S
C451 C447 1.400 . S
C451 C450 1.385 . S
C452 C450 1.478 . S
C452 C454 1.381 . S
C452 C458 1.383 . S
C453 C449 1.495 . S
C453 H459 0.959 . S
C453 H460 0.961 . S
C453 H461 0.960 . S
C454 C452 1.381 . S
C454 C455 1.394 . S
C454 H462 0.930 . S
C455 C454 1.394 . S
C455 C456 1.383 . S
C455 H463 0.929 . S
C456 C455 1.383 . S
C456 C457 1.377 . S
C457 H441 0.930 . S
C457 C456 1.377 . S
C457 C458 1.379 . S
C458 H442 0.931 . S
C458 C452 1.383 . S
C458 C457 1.379 . S
H459 C453 0.959 . S
H460 C453 0.961 . S
H461 C453 0.960 . S
H462 C454 0.930 . S
H463 C455 0.929 . S
H464 C472 0.929 . S
H465 C474 0.930 . S
H466 C476 0.930 . S
H467 C479 0.929 . S
H468 C482 0.930 . S
H469 C484 0.960 . S
H470 C484 0.960 . S
H471 C484 0.960 . S
C472 H464 0.929 . S
C472 C473 1.377 . S
C472 C474 1.384 . S
C473 C472 1.377 . S
C473 C479 1.390 . S
C474 H465 0.930 . S
C474 C472 1.384 . S
C474 C475 1.372 . S
C475 C474 1.372 . S
C475 C476 1.400 . S
C475 C480 1.490 . S
C476 H466 0.930 . S
C476 C475 1.400 . S
C476 C479 1.386 . S
H477 C493 0.930 . S
H478 C494 0.931 . S
C479 H467 0.929 . S
C479 C473 1.390 . S
C479 C476 1.386 . S
C480 C475 1.490 . S
C480 C482 1.395 . S
C480 C483 1.403 . S
H481 C487 0.930 . S
C482 H468 0.930 . S
C482 C480 1.395 . S
C482 C485 1.403 . S
C483 C480 1.403 . S
C483 C484 1.524 . S
C483 C487 1.400 . S
C484 H469 0.960 . S
C484 H470 0.960 . S
C484 H471 0.960 . S
C484 C483 1.524 . S
C485 C482 1.403 . S
C485 C486 1.392 . S
C485 C489 1.495 . S
C486 C485 1.392 . S
C486 C487 1.385 . S
C486 C488 1.478 1_554 S
C487 H481 0.930 . S
C487 C483 1.400 . S
C487 C486 1.385 . S
C488 C486 1.478 1_556 S
C488 C490 1.381 . S
C488 C494 1.383 . S
C489 C485 1.495 . S
C489 H495 0.959 . S
C489 H496 0.961 . S
C489 H497 0.960 . S
C490 C488 1.381 . S
C490 C491 1.394 . S
C490 H498 0.930 . S
C491 C490 1.394 . S
C491 C492 1.383 . S
C491 H499 0.929 . S
C492 C491 1.383 . S
C492 C493 1.377 . S
C493 H477 0.930 . S
C493 C492 1.377 . S
C493 C494 1.379 . S
C494 H478 0.931 . S
C494 C488 1.383 . S
C494 C493 1.379 . S
H495 C489 0.959 . S
H496 C489 0.961 . S
H497 C489 0.960 . S
H498 C490 0.930 . S
H499 C491 0.929 . S
H500 C508 0.929 . S
H501 C510 0.930 . S
H502 C512 0.930 . S
H503 C515 0.929 . S
H504 C518 0.930 . S
H505 C520 0.960 . S
H506 C520 0.960 . S
H507 C520 0.960 . S
C508 H500 0.929 . S
C508 C509 1.377 . S
C508 C510 1.384 . S
C509 C508 1.377 . S
C509 C515 1.390 . S
C510 H501 0.930 . S
C510 C508 1.384 . S
C510 C511 1.372 . S
C511 C510 1.372 . S
C511 C512 1.400 . S
C511 C516 1.490 1_554 S
C512 H502 0.930 . S
C512 C511 1.400 . S
C512 C515 1.386 . S
H513 C529 0.930 . S
H514 C530 0.931 . S
C515 H503 0.929 . S
C515 C509 1.390 . S
C515 C512 1.386 . S
C516 C511 1.490 1_556 S
C516 C518 1.395 . S
C516 C519 1.403 . S
H517 C523 0.930 . S
C518 H504 0.930 . S
C518 C516 1.395 . S
C518 C521 1.403 . S
C519 C516 1.403 . S
C519 C520 1.524 . S
C519 C523 1.400 . S
C520 H505 0.960 . S
C520 H506 0.960 . S
C520 H507 0.960 . S
C520 C519 1.524 . S
C521 C518 1.403 . S
C521 C522 1.392 . S
C521 C525 1.495 . S
C522 C521 1.392 . S
C522 C523 1.385 . S
C522 C524 1.478 . S
C523 H517 0.930 . S
C523 C519 1.400 . S
C523 C522 1.385 . S
C524 C522 1.478 . S
C524 C526 1.381 . S
C524 C530 1.383 . S
C525 C521 1.495 . S
C525 H531 0.959 . S
C525 H532 0.961 . S
C525 H533 0.960 . S
C526 C524 1.381 . S
C526 C527 1.394 . S
C526 H534 0.930 . S
C527 C526 1.394 . S
C527 C528 1.383 . S
C527 H535 0.929 . S
C528 C527 1.383 . S
C528 C529 1.377 . S
C529 H513 0.930 . S
C529 C528 1.377 . S
C529 C530 1.379 . S
C530 H514 0.931 . S
C530 C524 1.383 . S
C530 C529 1.379 . S
H531 C525 0.959 . S
H532 C525 0.961 . S
H533 C525 0.960 . S
H534 C526 0.930 . S
H535 C527 0.929 . S
H536 C544 0.929 . S
H537 C546 0.930 . S
H538 C548 0.930 . S
H539 C551 0.929 . S
H540 C554 0.930 . S
H541 C556 0.960 . S
H542 C556 0.960 . S
H543 C556 0.960 . S
C544 H536 0.929 . S
C544 C545 1.377 . S
C544 C546 1.384 . S
C545 C544 1.377 . S
C545 C551 1.390 . S
C546 H537 0.930 . S
C546 C544 1.384 . S
C546 C547 1.372 . S
C547 C546 1.372 . S
C547 C548 1.400 . S
C547 C552 1.490 . S
C548 H538 0.930 . S
C548 C547 1.400 . S
C548 C551 1.386 . S
H549 C565 0.930 . S
H550 C566 0.931 . S
C551 H539 0.929 . S
C551 C545 1.390 . S
C551 C548 1.386 . S
C552 C547 1.490 . S
C552 C554 1.395 . S
C552 C555 1.403 . S
H553 C559 0.930 . S
C554 H540 0.930 . S
C554 C552 1.395 . S
C554 C557 1.403 . S
C555 C552 1.403 . S
C555 C556 1.524 . S
C555 C559 1.400 . S
C556 H541 0.960 . S
C556 H542 0.960 . S
C556 H543 0.960 . S
C556 C555 1.524 . S
C557 C554 1.403 . S
C557 C558 1.392 . S
C557 C561 1.495 . S
C558 C557 1.392 . S
C558 C559 1.385 . S
C558 C560 1.478 . S
C559 H553 0.930 . S
C559 C555 1.400 . S
C559 C558 1.385 . S
C560 C558 1.478 . S
C560 C562 1.381 . S
C560 C566 1.383 . S
C561 C557 1.495 . S
C561 H567 0.959 . S
C561 H568 0.961 . S
C561 H569 0.960 . S
C562 C560 1.381 . S
C562 C563 1.394 . S
C562 H570 0.930 . S
C563 C562 1.394 . S
C563 C564 1.383 1_545 S
C563 H571 0.929 . S
C564 C563 1.383 1_565 S
C564 C565 1.377 . S
C565 H549 0.930 . S
C565 C564 1.377 . S
C565 C566 1.379 1_565 S
C566 H550 0.931 . S
C566 C560 1.383 . S
C566 C565 1.379 1_545 S
H567 C561 0.959 . S
H568 C561 0.961 . S
H569 C561 0.960 . S
H570 C562 0.930 . S
H571 C563 0.929 . S
H572 C580 0.929 . S
H573 C582 0.930 . S
H574 C584 0.930 . S
H575 C587 0.929 . S
H576 C590 0.930 . S
H577 C592 0.960 . S
H578 C592 0.960 . S
H579 C592 0.960 . S
C580 H572 0.929 . S
C580 C581 1.377 . S
C580 C582 1.384 . S
C581 C580 1.377 . S
C581 C587 1.390 . S
C582 H573 0.930 . S
C582 C580 1.384 . S
C582 C583 1.372 . S
C583 C582 1.372 . S
C583 C584 1.400 . S
C583 C588 1.490 . S
C584 H574 0.930 . S
C584 C583 1.400 . S
C584 C587 1.386 . S
H585 C601 0.930 1_655 S
H586 C602 0.931 . S
C587 H575 0.929 . S
C587 C581 1.390 . S
C587 C584 1.386 . S
C588 C583 1.490 . S
C588 C590 1.395 . S
C588 C591 1.403 . S
H589 C595 0.930 . S
C590 H576 0.930 . S
C590 C588 1.395 . S
C590 C593 1.403 . S
C591 C588 1.403 . S
C591 C592 1.524 . S
C591 C595 1.400 . S
C592 H577 0.960 . S
C592 H578 0.960 . S
C592 H579 0.960 . S
C592 C591 1.524 . S
C593 C590 1.403 . S
C593 C594 1.392 . S
C593 C597 1.495 . S
C594 C593 1.392 . S
C594 C595 1.385 . S
C594 C596 1.478 . S
C595 H589 0.930 . S
C595 C591 1.400 . S
C595 C594 1.385 . S
C596 C594 1.478 . S
C596 C598 1.381 . S
C596 C602 1.383 . S
C597 C593 1.495 . S
C597 H603 0.959 . S
C597 H604 0.961 . S
C597 H605 0.960 . S
C598 C596 1.381 . S
C598 C599 1.394 1_455 S
C598 H606 0.930 . S
C599 C598 1.394 1_655 S
C599 C600 1.383 . S
C599 H607 0.929 . S
C600 C599 1.383 . S
C600 C601 1.377 1_655 S
C601 H585 0.930 1_455 S
C601 C600 1.377 1_455 S
C601 C602 1.379 . S
C602 H586 0.931 . S
C602 C596 1.383 . S
C602 C601 1.379 . S
H603 C597 0.959 . S
H604 C597 0.961 . S
H605 C597 0.960 . S
H606 C598 0.930 . S
H607 C599 0.929 . S
H608 C616 0.929 . S
H609 C618 0.930 . S
H610 C620 0.930 . S
H611 C623 0.929 . S
H612 C626 0.930 . S
H613 C628 0.960 . S
H614 C628 0.960 . S
H615 C628 0.960 . S
C616 H608 0.929 . S
C616 C617 1.377 . S
C616 C618 1.384 . S
C617 C616 1.377 . S
C617 C623 1.390 . S
C618 H609 0.930 . S
C618 C616 1.384 . S
C618 C619 1.372 . S
C619 C618 1.372 . S
C619 C620 1.400 . S
C619 C624 1.490 . S
C620 H610 0.930 . S
C620 C619 1.400 . S
C620 C623 1.386 . S
H621 C637 0.931 . S
H622 C638 0.931 . S
C623 H611 0.929 . S
C623 C617 1.390 . S
C623 C620 1.386 . S
C624 C619 1.490 . S
C624 C626 1.395 . S
C624 C627 1.403 . S
H625 C631 0.930 . S
C626 H612 0.930 . S
C626 C624 1.395 . S
C626 C629 1.403 . S
C627 C624 1.403 . S
C627 C628 1.524 . S
C627 C631 1.400 . S
C628 H613 0.960 . S
C628 H614 0.960 . S
C628 H615 0.960 . S
C628 C627 1.524 . S
C629 C626 1.403 . S
C629 C630 1.392 . S
C629 C633 1.495 . S
C630 C629 1.392 . S
C630 C631 1.385 . S
C630 C632 1.478 . S
C631 H625 0.930 . S
C631 C627 1.400 . S
C631 C630 1.385 . S
C632 C630 1.478 . S
C632 C634 1.381 . S
C632 C638 1.383 . S
C633 C629 1.495 . S
C633 H639 0.959 . S
C633 H640 0.961 . S
C633 H641 0.960 . S
C634 C632 1.381 . S
C634 C635 1.394 . S
C634 H642 0.930 . S
C635 C634 1.394 . S
C635 C636 1.383 1_565 S
C635 H643 0.929 1_565 S
C636 C635 1.383 1_545 S
C636 C637 1.378 . S
C637 H621 0.931 . S
C637 C636 1.378 . S
C637 C638 1.377 1_545 S
C638 H622 0.931 . S
C638 C632 1.383 . S
C638 C637 1.377 1_565 S
H639 C633 0.959 . S
H640 C633 0.961 . S
H641 C633 0.960 . S
H642 C634 0.930 . S
H643 C635 0.929 1_545 S
H644 C652 0.929 . S
H645 C654 0.930 . S
H646 C656 0.930 . S
H647 C659 0.929 . S
H648 C662 0.930 . S
H649 C664 0.960 . S
H650 C664 0.960 . S
H651 C664 0.960 . S
C652 H644 0.929 . S
C652 C653 1.377 . S
C652 C654 1.384 . S
C653 C652 1.377 . S
C653 C659 1.390 . S
C654 H645 0.930 . S
C654 C652 1.384 . S
C654 C655 1.372 . S
C655 C654 1.372 . S
C655 C656 1.400 . S
C655 C660 1.490 . S
C656 H646 0.930 . S
C656 C655 1.400 . S
C656 C659 1.386 . S
H657 C673 0.930 1_455 S
H658 C674 0.931 . S
C659 H647 0.929 . S
C659 C653 1.390 . S
C659 C656 1.386 . S
C660 C655 1.490 . S
C660 C662 1.395 . S
C660 C663 1.403 . S
H661 C667 0.930 . S
C662 H648 0.930 . S
C662 C660 1.395 . S
C662 C665 1.403 . S
C663 C660 1.403 . S
C663 C664 1.524 . S
C663 C667 1.400 . S
C664 H649 0.960 . S
C664 H650 0.960 . S
C664 H651 0.960 . S
C664 C663 1.524 . S
C665 C662 1.403 . S
C665 C666 1.392 . S
C665 C669 1.495 . S
C666 C665 1.392 . S
C666 C667 1.385 . S
C666 C668 1.478 . S
C667 H661 0.930 . S
C667 C663 1.400 . S
C667 C666 1.385 . S
C668 C666 1.478 . S
C668 C670 1.381 . S
C668 C674 1.383 . S
C669 C665 1.495 . S
C669 H675 0.959 . S
C669 H676 0.961 . S
C669 H677 0.960 . S
C670 C668 1.381 . S
C670 C671 1.394 . S
C670 H678 0.930 . S
C671 C670 1.394 . S
C671 C672 1.383 1_655 S
C671 H679 0.915 1_655 S
C672 C671 1.383 1_455 S
C672 C673 1.377 1_455 S
C673 H657 0.930 1_655 S
C673 C672 1.377 1_655 S
C673 C674 1.379 . S
C674 H658 0.931 . S
C674 C668 1.383 . S
C674 C673 1.379 . S
H675 C669 0.959 . S
H676 C669 0.961 . S
H677 C669 0.960 . S
H678 C670 0.930 . S
H679 C671 0.915 1_455 S
H680 C688 0.929 . S
H681 C690 0.930 . S
H682 C692 0.930 . S
H683 C695 0.929 . S
H684 C698 0.930 . S
H685 C700 0.960 . S
H686 C700 0.960 . S
H687 C700 0.960 . S
C688 H680 0.929 . S
C688 C689 1.377 . S
C688 C690 1.384 . S
C689 C688 1.377 . S
C689 C695 1.390 1_554 S
C690 H681 0.930 . S
C690 C688 1.384 . S
C690 C691 1.372 . S
C691 C690 1.372 . S
C691 C692 1.400 1_554 S
C691 C696 1.490 . S
C692 H682 0.930 . S
C692 C691 1.400 1_556 S
C692 C695 1.386 . S
H693 C709 0.930 . S
H694 C710 0.947 . S
C695 H683 0.929 . S
C695 C689 1.390 1_556 S
C695 C692 1.386 . S
C696 C691 1.490 . S
C696 C698 1.395 . S
C696 C699 1.403 . S
H697 C703 0.930 . S
C698 H684 0.930 . S
C698 C696 1.395 . S
C698 C701 1.403 . S
C699 C696 1.403 . S
C699 C700 1.524 1_554 S
C699 C703 1.400 . S
C700 H685 0.960 . S
C700 H686 0.960 . S
C700 H687 0.960 . S
C700 C699 1.524 1_556 S
C701 C698 1.403 . S
C701 C702 1.392 . S
C701 C705 1.495 . S
C702 C701 1.392 . S
C702 C703 1.385 . S
C702 C704 1.478 . S
C703 H697 0.930 . S
C703 C699 1.400 . S
C703 C702 1.385 . S
C704 C702 1.478 . S
C704 C706 1.381 . S
C704 C710 1.383 . S
C705 C701 1.495 . S
C705 H711 0.959 . S
C705 H712 0.961 . S
C705 H713 0.960 . S
C706 C704 1.381 . S
C706 C707 1.394 . S
C706 H714 0.930 . S
C707 C706 1.394 . S
C707 C708 1.383 . S
C707 H715 0.929 . S
C708 C707 1.383 . S
C708 C709 1.377 . S
C709 H693 0.930 . S
C709 C708 1.377 . S
C709 C710 1.379 . S
C710 H694 0.947 . S
C710 C704 1.383 . S
C710 C709 1.379 . S
H711 C705 0.959 . S
H712 C705 0.961 . S
H713 C705 0.960 . S
H714 C706 0.930 . S
H715 C707 0.929 . S
H716 C724 0.929 . S
H717 C726 0.930 . S
H718 C728 0.930 . S
H719 C731 0.929 . S
H720 C734 0.930 . S
H721 C736 0.960 . S
H722 C736 0.960 . S
H723 C736 0.960 1_556 S
C724 H716 0.929 . S
C724 C725 1.377 1_554 S
C724 C726 1.384 . S
C725 C724 1.377 1_556 S
C725 C731 1.390 . S
C726 H717 0.930 . S
C726 C724 1.384 . S
C726 C727 1.372 1_554 S
C727 C726 1.372 1_556 S
C727 C728 1.400 . S
C727 C732 1.490 . S
C728 H718 0.930 . S
C728 C727 1.400 . S
C728 C731 1.386 . S
H729 C745 0.930 . S
H730 C746 0.931 . S
C731 H719 0.929 . S
C731 C725 1.390 . S
C731 C728 1.386 . S
C732 C727 1.490 . S
C732 C734 1.395 . S
C732 C735 1.403 . S
H733 C739 0.930 . S
C734 H720 0.930 . S
C734 C732 1.395 . S
C734 C737 1.403 . S
C735 C732 1.403 . S
C735 C736 1.524 1_556 S
C735 C739 1.400 . S
C736 H721 0.960 . S
C736 H722 0.960 . S
C736 H723 0.960 1_554 S
C736 C735 1.524 1_554 S
C737 C734 1.403 . S
C737 C738 1.392 . S
C737 C741 1.495 . S
C738 C737 1.392 . S
C738 C739 1.385 . S
C738 C740 1.478 . S
C739 H733 0.930 . S
C739 C735 1.400 . S
C739 C738 1.385 . S
C740 C738 1.478 . S
C740 C742 1.381 . S
C740 C746 1.383 . S
C741 C737 1.495 . S
C741 H747 0.959 . S
C741 H748 0.961 . S
C741 H749 0.960 . S
C742 C740 1.381 . S
C742 C743 1.394 . S
C742 H750 0.930 . S
C743 C742 1.394 . S
C743 C744 1.383 . S
C743 H751 0.929 . S
C744 C743 1.383 . S
C744 C745 1.377 . S
C745 H729 0.930 . S
C745 C744 1.377 . S
C745 C746 1.379 . S
C746 H730 0.931 . S
C746 C740 1.383 . S
C746 C745 1.379 . S
H747 C741 0.959 . S
H748 C741 0.961 . S
H749 C741 0.960 . S
H750 C742 0.930 . S
H751 C743 0.929 . S
H752 C760 0.929 . S
H753 C762 0.930 1_556 S
H754 C764 0.930 . S
H755 C767 0.929 . S
H756 C770 0.930 . S
H757 C772 0.960 . S
H758 C772 0.960 . S
H759 C772 0.960 . S
C760 H752 0.929 . S
C760 C761 1.377 . S
C760 C762 1.384 . S
C761 C760 1.377 . S
C761 C767 1.390 . S
C762 H753 0.930 1_554 S
C762 C760 1.384 . S
C762 C763 1.372 . S
C763 C762 1.372 . S
C763 C764 1.400 . S
C763 C768 1.490 . S
C764 H754 0.930 . S
C764 C763 1.400 . S
C764 C767 1.386 . S
H765 C781 0.930 . S
H766 C782 0.931 . S
C767 H755 0.929 . S
C767 C761 1.390 . S
C767 C764 1.386 . S
C768 C763 1.490 . S
C768 C770 1.395 . S
C768 C771 1.403 . S
H769 C775 0.930 . S
C770 H756 0.930 . S
C770 C768 1.395 . S
C770 C773 1.403 . S
C771 C768 1.403 . S
C771 C772 1.524 . S
C771 C775 1.400 . S
C772 H757 0.960 . S
C772 H758 0.960 . S
C772 H759 0.960 . S
C772 C771 1.524 . S
C773 C770 1.403 . S
C773 C774 1.392 . S
C773 C777 1.495 . S
C774 C773 1.392 . S
C774 C775 1.385 . S
C774 C776 1.478 . S
C775 H769 0.930 . S
C775 C771 1.400 . S
C775 C774 1.385 . S
C776 C774 1.478 . S
C776 C778 1.381 1_554 S
C776 C782 1.383 . S
C777 C773 1.495 . S
C777 H783 0.959 . S
C777 H784 0.961 . S
C777 H785 0.960 . S
C778 C776 1.381 1_556 S
C778 C779 1.394 . S
C778 H786 0.930 . S
C779 C778 1.394 . S
C779 C780 1.383 1_556 S
C779 H787 0.929 . S
C780 C779 1.383 1_554 S
C780 C781 1.377 . S
C781 H765 0.930 . S
C781 C780 1.377 . S
C781 C782 1.379 . S
C782 H766 0.931 . S
C782 C776 1.383 . S
C782 C781 1.379 . S
H783 C777 0.959 . S
H784 C777 0.961 . S
H785 C777 0.960 . S
H786 C778 0.930 . S
H787 C779 0.929 . S
H788 C796 0.929 . S
H789 C798 0.930 . S
H790 C800 0.930 . S
H791 C803 0.929 . S
H792 C806 0.930 . S
H793 C808 0.960 . S
H794 C808 0.960 . S
H795 C808 0.960 . S
C796 H788 0.929 . S
C796 C797 1.377 . S
C796 C798 1.384 . S
C797 C796 1.377 . S
C797 C803 1.390 1_556 S
C798 H789 0.930 . S
C798 C796 1.384 . S
C798 C799 1.372 . S
C799 C798 1.372 . S
C799 C800 1.400 1_556 S
C799 C804 1.490 . S
C800 H790 0.930 . S
C800 C799 1.400 1_554 S
C800 C803 1.386 . S
H801 C817 0.930 . S
H802 C818 0.931 . S
C803 H791 0.929 . S
C803 C797 1.390 1_554 S
C803 C800 1.386 . S
C804 C799 1.490 . S
C804 C806 1.395 . S
C804 C807 1.403 . S
H805 C811 0.930 . S
C806 H792 0.930 . S
C806 C804 1.395 . S
C806 C809 1.403 . S
C807 C804 1.403 . S
C807 C808 1.524 . S
C807 C811 1.400 . S
C808 H793 0.960 . S
C808 H794 0.960 . S
C808 H795 0.960 . S
C808 C807 1.524 . S
C809 C806 1.403 . S
C809 C810 1.392 . S
C809 C813 1.495 . S
C810 C809 1.392 . S
C810 C811 1.385 . S
C810 C812 1.478 . S
C811 H805 0.930 . S
C811 C807 1.400 . S
C811 C810 1.385 . S
C812 C810 1.478 . S
C812 C814 1.381 . S
C812 C818 1.383 . S
C813 C809 1.495 . S
C813 H819 0.959 1_556 S
C813 H820 0.961 1_556 S
C813 H821 0.960 . S
C814 C812 1.381 . S
C814 C815 1.394 . S
C814 H822 0.930 . S
C815 C814 1.394 . S
C815 C816 1.383 . S
C815 H823 0.929 . S
C816 C815 1.383 . S
C816 C817 1.377 . S
C817 H801 0.930 . S
C817 C816 1.377 . S
C817 C818 1.379 . S
C818 H802 0.931 . S
C818 C812 1.383 . S
C818 C817 1.379 . S
H819 C813 0.959 1_554 S
H820 C813 0.961 1_554 S
H821 C813 0.960 . S
H822 C814 0.930 . S
H823 C815 0.929 . S
H824 C832 0.929 . S
H825 C834 0.930 . S
H826 C836 0.930 . S
H827 C839 0.929 . S
H828 C842 0.930 . S
H829 C844 0.960 . S
H830 C844 0.960 . S
H831 C844 0.960 . S
C832 H824 0.929 . S
C832 C833 1.377 . S
C832 C834 1.384 . S
C833 C832 1.377 . S
C833 C839 1.390 . S
C834 H825 0.930 . S
C834 C832 1.384 . S
C834 C835 1.372 . S
C835 C834 1.372 . S
C835 C836 1.400 . S
C835 C840 1.490 . S
C836 H826 0.930 . S
C836 C835 1.400 . S
C836 C839 1.386 . S
H837 C853 0.930 . S
H838 C854 0.931 . S
C839 H827 0.929 . S
C839 C833 1.390 . S
C839 C836 1.386 . S
C840 C835 1.490 . S
C840 C842 1.395 . S
C840 C843 1.403 . S
H841 C847 0.930 . S
C842 H828 0.930 . S
C842 C840 1.395 . S
C842 C845 1.403 . S
C843 C840 1.403 . S
C843 C844 1.524 . S
C843 C847 1.400 . S
C844 H829 0.960 . S
C844 H830 0.960 . S
C844 H831 0.960 . S
C844 C843 1.524 . S
C845 C842 1.403 . S
C845 C846 1.392 . S
C845 C849 1.495 . S
C846 C845 1.392 . S
C846 C847 1.385 . S
C846 C848 1.478 . S
C847 H841 0.930 . S
C847 C843 1.400 . S
C847 C846 1.385 . S
C848 C846 1.478 . S
C848 C850 1.381 . S
C848 C854 1.383 . S
C849 C845 1.495 . S
C849 H855 0.959 . S
C849 H856 0.961 . S
C849 H857 0.960 . S
C850 C848 1.381 . S
C850 C851 1.394 . S
C850 H858 0.930 . S
C851 C850 1.394 . S
C851 C852 1.383 . S
C851 H859 0.929 . S
C852 C851 1.383 . S
C852 C853 1.377 . S
C853 H837 0.930 . S
C853 C852 1.377 . S
C853 C854 1.379 . S
C854 H838 0.931 . S
C854 C848 1.383 . S
C854 C853 1.379 . S
H855 C849 0.959 . S
H856 C849 0.961 . S
H857 C849 0.960 . S
H858 C850 0.930 . S
H859 C851 0.929 . S
H860 C868 0.929 . S
H861 C870 0.930 . S
H862 C872 0.930 . S
H863 C875 0.929 . S
H864 C878 0.930 . S
H865 C880 0.960 . S
H866 C880 0.960 . S
H867 C880 0.960 . S
C868 H860 0.929 . S
C868 C869 1.377 . S
C868 C870 1.384 . S
C869 C868 1.377 . S
C869 C875 1.390 . S
C870 H861 0.930 . S
C870 C868 1.384 . S
C870 C871 1.372 . S
C871 C870 1.372 . S
C871 C872 1.400 . S
C871 C876 1.490 . S
C872 H862 0.930 . S
C872 C871 1.400 . S
C872 C875 1.386 . S
H873 C889 0.930 . S
H874 C890 0.931 . S
C875 H863 0.929 . S
C875 C869 1.390 . S
C875 C872 1.386 . S
C876 C871 1.490 . S
C876 C878 1.395 . S
C876 C879 1.403 . S
H877 C883 0.930 . S
C878 H864 0.930 . S
C878 C876 1.395 . S
C878 C881 1.403 . S
C879 C876 1.403 . S
C879 C880 1.524 . S
C879 C883 1.400 . S
C880 H865 0.960 . S
C880 H866 0.960 . S
C880 H867 0.960 . S
C880 C879 1.524 . S
C881 C878 1.403 . S
C881 C882 1.392 . S
C881 C885 1.495 . S
C882 C881 1.392 . S
C882 C883 1.385 . S
C882 C884 1.478 . S
C883 H877 0.930 . S
C883 C879 1.400 . S
C883 C882 1.385 . S
C884 C882 1.478 . S
C884 C886 1.381 . S
C884 C890 1.383 . S
C885 C881 1.495 . S
C885 H891 0.959 . S
C885 H892 0.961 . S
C885 H893 0.960 . S
C886 C884 1.381 . S
C886 C887 1.394 . S
C886 H894 0.930 . S
C887 C886 1.394 . S
C887 C888 1.383 . S
C887 H895 0.929 . S
C888 C887 1.383 . S
C888 C889 1.377 . S
C889 H873 0.930 . S
C889 C888 1.377 . S
C889 C890 1.379 . S
C890 H874 0.931 . S
C890 C884 1.383 . S
C890 C889 1.379 . S
H891 C885 0.959 . S
H892 C885 0.961 . S
H893 C885 0.960 . S
H894 C886 0.930 . S
H895 C887 0.929 . S
H896 C904 0.929 . S
H897 C906 0.930 . S
H898 C908 0.930 . S
H899 C911 0.929 . S
H900 C914 0.930 . S
H901 C916 0.960 . S
H902 C916 0.960 . S
H903 C916 0.960 . S
C904 H896 0.929 . S
C904 C905 1.377 . S
C904 C906 1.384 . S
C905 C904 1.377 . S
C905 C911 1.390 . S
C906 H897 0.930 . S
C906 C904 1.384 . S
C906 C907 1.372 . S
C907 C906 1.372 . S
C907 C908 1.400 . S
C907 C912 1.490 . S
C908 H898 0.930 . S
C908 C907 1.400 . S
C908 C911 1.386 . S
H909 C925 0.930 . S
H910 C926 0.931 . S
C911 H899 0.929 . S
C911 C905 1.390 . S
C911 C908 1.386 . S
C912 C907 1.490 . S
C912 C914 1.395 . S
C912 C915 1.403 . S
H913 C919 0.930 . S
C914 H900 0.930 . S
C914 C912 1.395 . S
C914 C917 1.403 . S
C915 C912 1.403 . S
C915 C916 1.524 . S
C915 C919 1.400 . S
C916 H901 0.960 . S
C916 H902 0.960 . S
C916 H903 0.960 . S
C916 C915 1.524 . S
C917 C914 1.403 . S
C917 C918 1.392 . S
C917 C921 1.495 . S
C918 C917 1.392 . S
C918 C919 1.385 . S
C918 C920 1.478 . S
C919 H913 0.930 . S
C919 C915 1.400 . S
C919 C918 1.385 . S
C920 C918 1.478 . S
C920 C922 1.381 . S
C920 C926 1.383 . S
C921 C917 1.495 . S
C921 H927 0.959 . S
C921 H928 0.961 . S
C921 H929 0.960 . S
C922 C920 1.381 . S
C922 C923 1.394 . S
C922 H930 0.930 . S
C923 C922 1.394 . S
C923 C924 1.383 . S
C923 H931 0.929 . S
C924 C923 1.383 . S
C924 C925 1.377 . S
C925 H909 0.930 . S
C925 C924 1.377 . S
C925 C926 1.379 . S
C926 H910 0.931 . S
C926 C920 1.383 . S
C926 C925 1.379 . S
H927 C921 0.959 . S
H928 C921 0.961 . S
H929 C921 0.960 . S
H930 C922 0.930 . S
H931 C923 0.929 . S
H932 C940 0.929 . S
H933 C942 0.930 . S
H934 C944 0.930 . S
H935 C947 0.929 . S
H936 C950 0.930 . S
H937 C952 0.960 . S
H938 C952 0.960 . S
H939 C952 0.960 . S
C940 H932 0.929 . S
C940 C941 1.377 . S
C940 C942 1.384 . S
C941 C940 1.377 . S
C941 C947 1.390 . S
C942 H933 0.930 . S
C942 C940 1.384 . S
C942 C943 1.372 . S
C943 C942 1.372 . S
C943 C944 1.400 . S
C943 C948 1.490 . S
C944 H934 0.930 . S
C944 C943 1.400 . S
C944 C947 1.386 . S
H945 C961 0.930 . S
H946 C962 0.931 . S
C947 H935 0.929 . S
C947 C941 1.390 . S
C947 C944 1.386 . S
C948 C943 1.490 . S
C948 C950 1.395 . S
C948 C951 1.403 . S
H949 C955 0.930 . S
C950 H936 0.930 . S
C950 C948 1.395 . S
C950 C953 1.403 . S
C951 C948 1.403 . S
C951 C952 1.524 . S
C951 C955 1.400 . S
C952 H937 0.960 . S
C952 H938 0.960 . S
C952 H939 0.960 . S
C952 C951 1.524 . S
C953 C950 1.403 . S
C953 C954 1.392 . S
C953 C957 1.495 . S
C954 C953 1.392 . S
C954 C955 1.385 . S
C954 C956 1.478 . S
C955 H949 0.930 . S
C955 C951 1.400 . S
C955 C954 1.385 . S
C956 C954 1.478 . S
C956 C958 1.381 . S
C956 C962 1.383 . S
C957 C953 1.495 . S
C957 H963 0.959 . S
C957 H964 0.961 . S
C957 H965 0.960 . S
C958 C956 1.381 . S
C958 C959 1.394 . S
C958 H966 0.930 . S
C959 C958 1.394 . S
C959 C960 1.383 . S
C959 H967 0.929 . S
C960 C959 1.383 . S
C960 C961 1.377 . S
C961 H945 0.930 . S
C961 C960 1.377 . S
C961 C962 1.379 . S
C962 H946 0.931 . S
C962 C956 1.383 . S
C962 C961 1.379 . S
H963 C957 0.959 . S
H964 C957 0.961 . S
H965 C957 0.960 . S
H966 C958 0.930 . S
H967 C959 0.929 . S
H968 C976 0.929 . S
H969 C978 0.930 . S
H970 C980 0.930 . S
H971 C983 0.941 . S
H972 C986 0.930 . S
H973 C988 0.960 . S
H974 C988 0.960 . S
H975 C988 0.960 . S
C976 H968 0.929 . S
C976 C977 1.377 . S
C976 C978 1.384 . S
C977 C976 1.377 . S
C977 C983 1.390 . S
C978 H969 0.930 . S
C978 C976 1.384 . S
C978 C979 1.372 . S
C979 C978 1.372 . S
C979 C980 1.400 . S
C979 C984 1.490 . S
C980 H970 0.930 . S
C980 C979 1.400 . S
C980 C983 1.386 . S
H981 C997 0.930 . S
H982 C998 0.931 . S
C983 H971 0.941 . S
C983 C977 1.390 . S
C983 C980 1.386 . S
C984 C979 1.490 . S
C984 C986 1.395 . S
C984 C987 1.403 . S
H985 C991 0.930 . S
C986 H972 0.930 . S
C986 C984 1.395 . S
C986 C989 1.403 . S
C987 C984 1.403 . S
C987 C988 1.524 . S
C987 C991 1.400 . S
C988 H973 0.960 . S
C988 H974 0.960 . S
C988 H975 0.960 . S
C988 C987 1.524 . S
C989 C986 1.403 . S
C989 C990 1.392 . S
C989 C993 1.495 . S
C990 C989 1.392 . S
C990 C991 1.385 . S
C990 C992 1.478 . S
C991 H985 0.930 . S
C991 C987 1.400 . S
C991 C990 1.385 . S
C992 C990 1.478 . S
C992 C994 1.381 . S
C992 C998 1.383 . S
C993 C989 1.495 . S
C993 H999 0.959 . S
C993 H1000 0.961 . S
C993 H1001 0.960 . S
C994 C992 1.381 . S
C994 C995 1.394 . S
C994 H1002 0.930 . S
C995 C994 1.394 . S
C995 C996 1.383 . S
C995 H1003 0.929 . S
C996 C995 1.383 . S
C996 C997 1.377 . S
C997 H981 0.930 . S
C997 C996 1.377 . S
C997 C998 1.379 . S
C998 H982 0.931 . S
C998 C992 1.383 . S
C998 C997 1.379 . S
H999 C993 0.959 . S
H1000 C993 0.961 . S
H1001 C993 0.960 . S
H1002 C994 0.930 . S
H1003 C995 0.929 . S
H1004 C1012 0.929 . S
H1005 C1014 0.930 . S
H1006 C1016 0.930 . S
H1007 C1019 0.929 . S
H1008 C1022 0.930 . S
H1009 C1024 0.960 . S
H1010 C1024 0.960 . S
H1011 C1024 0.960 . S
C1012 H1004 0.929 . S
C1012 C1013 1.377 . S
C1012 C1014 1.384 . S
C1013 C1012 1.377 . S
C1013 C1019 1.390 . S
C1014 H1005 0.930 . S
C1014 C1012 1.384 . S
C1014 C1015 1.372 . S
C1015 C1014 1.372 . S
C1015 C1016 1.400 . S
C1015 C1020 1.490 . S
C1016 H1006 0.930 . S
C1016 C1015 1.400 . S
C1016 C1019 1.386 . S
H1017 C1033 0.930 . S
H1018 C1034 0.931 . S
C1019 H1007 0.929 . S
C1019 C1013 1.390 . S
C1019 C1016 1.386 . S
C1020 C1015 1.490 . S
C1020 C1022 1.395 . S
C1020 C1023 1.403 . S
H1021 C1027 0.930 . S
C1022 H1008 0.930 . S
C1022 C1020 1.395 . S
C1022 C1025 1.403 . S
C1023 C1020 1.403 . S
C1023 C1024 1.524 . S
C1023 C1027 1.400 . S
C1024 H1009 0.960 . S
C1024 H1010 0.960 . S
C1024 H1011 0.960 . S
C1024 C1023 1.524 . S
C1025 C1022 1.403 . S
C1025 C1026 1.392 . S
C1025 C1029 1.495 . S
C1026 C1025 1.392 . S
C1026 C1027 1.385 . S
C1026 C1028 1.478 . S
C1027 H1021 0.930 . S
C1027 C1023 1.400 . S
C1027 C1026 1.385 . S
C1028 C1026 1.478 . S
C1028 C1030 1.381 . S
C1028 C1034 1.383 . S
C1029 C1025 1.495 . S
C1029 H1035 0.959 . S
C1029 H1036 0.961 . S
C1029 H1037 0.960 . S
C1030 C1028 1.381 . S
C1030 C1031 1.394 . S
C1030 H1038 0.930 . S
C1031 C1030 1.394 . S
C1031 C1032 1.383 . S
C1031 H1039 0.929 1_655 S
C1032 C1031 1.383 . S
C1032 C1033 1.377 . S
C1033 H1017 0.930 . S
C1033 C1032 1.377 . S
C1033 C1034 1.379 . S
C1034 H1018 0.931 . S
C1034 C1028 1.383 . S
C1034 C1033 1.379 . S
H1035 C1029 0.959 . S
H1036 C1029 0.961 . S
H1037 C1029 0.960 . S
H1038 C1030 0.930 . S
H1039 C1031 0.929 1_455 S
H1040 C1048 0.929 . S
H1041 C1050 0.930 . S
H1042 C1052 0.930 . S
H1043 C1055 0.929 . S
H1044 C1058 0.930 . S
H1045 C1060 0.960 . S
H1046 C1060 0.960 . S
H1047 C1060 0.960 . S
C1048 H1040 0.929 . S
C1048 C1049 1.377 . S
C1048 C1050 1.384 . S
C1049 C1048 1.377 . S
C1049 C1055 1.390 . S
C1050 H1041 0.930 . S
C1050 C1048 1.384 . S
C1050 C1051 1.372 . S
C1051 C1050 1.372 . S
C1051 C1052 1.400 . S
C1051 C1056 1.490 . S
C1052 H1042 0.930 . S
C1052 C1051 1.400 . S
C1052 C1055 1.386 . S
H1053 C1069 0.930 1_565 S
H1054 C1070 0.931 . S
C1055 H1043 0.929 . S
C1055 C1049 1.390 . S
C1055 C1052 1.386 . S
C1056 C1051 1.490 . S
C1056 C1058 1.395 . S
C1056 C1059 1.403 . S
H1057 C1063 0.930 . S
C1058 H1044 0.930 . S
C1058 C1056 1.395 . S
C1058 C1061 1.403 . S
C1059 C1056 1.403 . S
C1059 C1060 1.524 . S
C1059 C1063 1.400 . S
C1060 H1045 0.960 . S
C1060 H1046 0.960 . S
C1060 H1047 0.960 . S
C1060 C1059 1.524 . S
C1061 C1058 1.403 . S
C1061 C1062 1.392 . S
C1061 C1065 1.495 . S
C1062 C1061 1.392 . S
C1062 C1063 1.385 . S
C1062 C1064 1.478 . S
C1063 H1057 0.930 . S
C1063 C1059 1.400 . S
C1063 C1062 1.385 . S
C1064 C1062 1.478 . S
C1064 C1066 1.381 . S
C1064 C1070 1.383 . S
C1065 C1061 1.495 . S
C1065 H1071 0.959 . S
C1065 H1072 0.961 . S
C1065 H1073 0.960 . S
C1066 C1064 1.381 . S
C1066 C1067 1.394 . S
C1066 H1074 0.930 . S
C1067 C1066 1.394 . S
C1067 C1068 1.383 . S
C1067 H1075 0.929 . S
C1068 C1067 1.383 . S
C1068 C1069 1.377 . S
C1069 H1053 0.930 1_545 S
C1069 C1068 1.377 . S
C1069 C1070 1.379 . S
C1070 H1054 0.931 . S
C1070 C1064 1.383 . S
C1070 C1069 1.379 . S
H1071 C1065 0.959 . S
H1072 C1065 0.961 . S
H1073 C1065 0.960 . S
H1074 C1066 0.930 . S
H1075 C1067 0.929 . S
H1076 C1084 0.929 . S
H1077 C1086 0.930 . S
H1078 C1088 0.930 . S
H1079 C1091 0.929 . S
H1080 C1094 0.930 . S
H1081 C1096 0.960 . S
H1082 C1096 0.960 . S
H1083 C1096 0.960 . S
C1084 H1076 0.929 . S
C1084 C1085 1.377 . S
C1084 C1086 1.384 . S
C1085 C1084 1.377 . S
C1085 C1091 1.390 . S
C1086 H1077 0.930 . S
C1086 C1084 1.384 . S
C1086 C1087 1.372 . S
C1087 C1086 1.372 . S
C1087 C1088 1.400 . S
C1087 C1092 1.490 . S
C1088 H1078 0.930 . S
C1088 C1087 1.400 . S
C1088 C1091 1.386 . S
H1089 C1105 0.930 . S
H1090 C1106 0.931 . S
C1091 H1079 0.929 . S
C1091 C1085 1.390 . S
C1091 C1088 1.386 . S
C1092 C1087 1.490 . S
C1092 C1094 1.395 . S
C1092 C1095 1.403 . S
H1093 C1099 0.930 . S
C1094 H1080 0.930 . S
C1094 C1092 1.395 . S
C1094 C1097 1.403 . S
C1095 C1092 1.403 . S
C1095 C1096 1.524 . S
C1095 C1099 1.400 . S
C1096 H1081 0.960 . S
C1096 H1082 0.960 . S
C1096 H1083 0.960 . S
C1096 C1095 1.524 . S
C1097 C1094 1.403 . S
C1097 C1098 1.392 . S
C1097 C1101 1.495 . S
C1098 C1097 1.392 . S
C1098 C1099 1.385 . S
C1098 C1100 1.478 . S
C1099 H1093 0.930 . S
C1099 C1095 1.400 . S
C1099 C1098 1.385 . S
C1100 C1098 1.478 . S
C1100 C1102 1.381 . S
C1100 C1106 1.383 . S
C1101 C1097 1.495 . S
C1101 H1107 0.959 . S
C1101 H1108 0.961 . S
C1101 H1109 0.960 . S
C1102 C1100 1.381 . S
C1102 C1103 1.394 . S
C1102 H1110 0.930 . S
C1103 C1102 1.394 . S
C1103 C1104 1.383 . S
C1103 H1111 0.929 . S
C1104 C1103 1.383 . S
C1104 C1105 1.377 . S
C1105 H1089 0.930 . S
C1105 C1104 1.377 . S
C1105 C1106 1.379 . S
C1106 H1090 0.931 . S
C1106 C1100 1.383 . S
C1106 C1105 1.379 . S
H1107 C1101 0.959 . S
H1108 C1101 0.961 . S
H1109 C1101 0.960 . S
H1110 C1102 0.930 . S
H1111 C1103 0.929 . S
H1112 C1120 0.929 . S
H1113 C1122 0.930 . S
H1114 C1124 0.930 . S
H1115 C1127 0.929 . S
H1116 C1130 0.930 . S
H1117 C1132 0.960 . S
H1118 C1132 0.960 . S
H1119 C1132 0.960 . S
C1120 H1112 0.929 . S
C1120 C1121 1.377 . S
C1120 C1122 1.384 . S
C1121 C1120 1.377 . S
C1121 C1127 1.390 . S
C1122 H1113 0.930 . S
C1122 C1120 1.384 . S
C1122 C1123 1.372 . S
C1123 C1122 1.372 . S
C1123 C1124 1.400 . S
C1123 C1128 1.490 . S
C1124 H1114 0.930 . S
C1124 C1123 1.400 . S
C1124 C1127 1.386 . S
H1125 C1141 0.930 . S
H1126 C1142 0.931 . S
C1127 H1115 0.929 . S
C1127 C1121 1.390 . S
C1127 C1124 1.386 . S
C1128 C1123 1.490 . S
C1128 C1130 1.395 . S
C1128 C1131 1.403 . S
H1129 C1135 0.930 . S
C1130 H1116 0.930 . S
C1130 C1128 1.395 . S
C1130 C1133 1.403 . S
C1131 C1128 1.403 . S
C1131 C1132 1.524 . S
C1131 C1135 1.400 . S
C1132 H1117 0.960 . S
C1132 H1118 0.960 . S
C1132 H1119 0.960 . S
C1132 C1131 1.524 . S
C1133 C1130 1.403 . S
C1133 C1134 1.392 . S
C1133 C1137 1.495 . S
C1134 C1133 1.392 . S
C1134 C1135 1.385 . S
C1134 C1136 1.478 . S
C1135 H1129 0.930 . S
C1135 C1131 1.400 . S
C1135 C1134 1.385 . S
C1136 C1134 1.478 . S
C1136 C1138 1.381 . S
C1136 C1142 1.383 . S
C1137 C1133 1.495 . S
C1137 H1143 0.959 . S
C1137 H1144 0.961 . S
C1137 H1145 0.960 . S
C1138 C1136 1.381 . S
C1138 C1139 1.394 1_556 S
C1138 H1146 0.930 . S
C1139 C1138 1.394 1_554 S
C1139 C1140 1.383 . S
C1139 H1147 0.929 . S
C1140 C1139 1.383 . S
C1140 C1141 1.377 . S
C1141 H1125 0.930 . S
C1141 C1140 1.377 . S
C1141 C1142 1.379 1_554 S
C1142 H1126 0.931 . S
C1142 C1136 1.383 . S
C1142 C1141 1.379 1_556 S
H1143 C1137 0.959 . S
H1144 C1137 0.961 . S
H1145 C1137 0.960 . S
H1146 C1138 0.930 . S
H1147 C1139 0.929 . S
H1148 C1156 0.929 . S
H1149 C1158 0.930 . S
H1150 C1160 0.930 . S
H1151 C1163 0.929 . S
H1152 C1166 0.930 . S
H1153 C1168 0.960 . S
H1154 C1168 0.960 . S
H1155 C1168 0.960 . S
C1156 H1148 0.929 . S
C1156 C1157 1.377 . S
C1156 C1158 1.384 . S
C1157 C1156 1.377 . S
C1157 C1163 1.390 . S
C1158 H1149 0.930 . S
C1158 C1156 1.384 . S
C1158 C1159 1.372 . S
C1159 C1158 1.372 . S
C1159 C1160 1.400 . S
C1159 C1164 1.490 . S
C1160 H1150 0.930 . S
C1160 C1159 1.400 . S
C1160 C1163 1.386 . S
H1161 C1177 0.931 . S
H1162 C1178 0.931 . S
C1163 H1151 0.929 . S
C1163 C1157 1.390 . S
C1163 C1160 1.386 . S
C1164 C1159 1.490 . S
C1164 C1166 1.395 . S
C1164 C1167 1.403 . S
H1165 C1171 0.930 . S
C1166 H1152 0.930 . S
C1166 C1164 1.395 . S
C1166 C1169 1.403 . S
C1167 C1164 1.403 . S
C1167 C1168 1.524 . S
C1167 C1171 1.400 . S
C1168 H1153 0.960 . S
C1168 H1154 0.960 . S
C1168 H1155 0.960 . S
C1168 C1167 1.524 . S
C1169 C1166 1.403 . S
C1169 C1170 1.392 . S
C1169 C1173 1.495 . S
C1170 C1169 1.392 . S
C1170 C1171 1.385 . S
C1170 C1172 1.478 . S
C1171 H1165 0.930 . S
C1171 C1167 1.400 . S
C1171 C1170 1.385 . S
C1172 C1170 1.478 . S
C1172 C1174 1.381 1_554 S
C1172 C1178 1.383 . S
C1173 C1169 1.495 . S
C1173 H1179 0.959 . S
C1173 H1180 0.961 . S
C1173 H1181 0.960 . S
C1174 C1172 1.381 1_556 S
C1174 C1175 1.394 . S
C1174 H1182 0.930 . S
C1175 C1174 1.394 . S
C1175 C1176 1.383 . S
C1175 H1183 0.929 . S
C1176 C1175 1.383 . S
C1176 C1177 1.377 . S
C1177 H1161 0.931 . S
C1177 C1176 1.377 . S
C1177 C1178 1.379 1_556 S
C1178 H1162 0.931 . S
C1178 C1172 1.383 . S
C1178 C1177 1.379 1_554 S
H1179 C1173 0.959 . S
H1180 C1173 0.961 . S
H1181 C1173 0.960 . S
H1182 C1174 0.930 . S
H1183 C1175 0.929 . S
H1184 C1192 0.929 . S
H1185 C1194 0.930 . S
H1186 C1196 0.930 . S
H1187 C1199 0.929 . S
H1188 C1202 0.930 . S
H1189 C1204 0.977 . S
H1190 C1204 0.960 . S
H1191 C1204 0.960 . S
C1192 H1184 0.929 . S
C1192 C1193 1.377 . S
C1192 C1194 1.384 . S
C1193 C1192 1.377 . S
C1193 C1199 1.390 . S
C1194 H1185 0.930 . S
C1194 C1192 1.384 . S
C1194 C1195 1.372 . S
C1195 C1194 1.372 . S
C1195 C1196 1.400 . S
C1195 C1200 1.490 . S
C1196 H1186 0.930 . S
C1196 C1195 1.400 . S
C1196 C1199 1.386 . S
H1197 C1213 0.930 . S
H1198 C1214 0.931 . S
C1199 H1187 0.929 . S
C1199 C1193 1.390 . S
C1199 C1196 1.386 . S
C1200 C1195 1.490 . S
C1200 C1202 1.395 . S
C1200 C1203 1.403 . S
H1201 C1207 0.930 . S
C1202 H1188 0.930 . S
C1202 C1200 1.395 . S
C1202 C1205 1.403 . S
C1203 C1200 1.403 . S
C1203 C1204 1.524 . S
C1203 C1207 1.400 . S
C1204 H1189 0.977 . S
C1204 H1190 0.960 . S
C1204 H1191 0.960 . S
C1204 C1203 1.524 . S
C1205 C1202 1.403 . S
C1205 C1206 1.392 . S
C1205 C1209 1.495 . S
C1206 C1205 1.392 . S
C1206 C1207 1.385 . S
C1206 C1208 1.478 . S
C1207 H1201 0.930 . S
C1207 C1203 1.400 . S
C1207 C1206 1.385 . S
C1208 C1206 1.478 . S
C1208 C1210 1.381 . S
C1208 C1214 1.383 . S
C1209 C1205 1.495 . S
C1209 H1215 0.959 . S
C1209 H1216 0.961 . S
C1209 H1217 0.960 . S
C1210 C1208 1.381 . S
C1210 C1211 1.394 1_556 S
C1210 H1218 0.930 . S
C1211 C1210 1.394 1_554 S
C1211 C1212 1.383 . S
C1211 H1219 0.929 . S
C1212 C1211 1.383 . S
C1212 C1213 1.377 . S
C1213 H1197 0.930 . S
C1213 C1212 1.377 . S
C1213 C1214 1.379 1_554 S
C1214 H1198 0.931 . S
C1214 C1208 1.383 . S
C1214 C1213 1.379 1_556 S
H1215 C1209 0.959 . S
H1216 C1209 0.961 . S
H1217 C1209 0.960 . S
H1218 C1210 0.930 . S
H1219 C1211 0.929 . S
H1220 C1228 0.929 . S
H1221 C1230 0.930 . S
H1222 C1232 0.930 . S
H1223 C1235 0.929 . S
H1224 C1238 0.930 . S
H1225 C1240 0.960 . S
H1226 C1240 0.960 . S
H1227 C1240 0.960 . S
C1228 H1220 0.929 . S
C1228 C1229 1.377 . S
C1228 C1230 1.384 . S
C1229 C1228 1.377 . S
C1229 C1235 1.390 . S
C1230 H1221 0.930 . S
C1230 C1228 1.384 . S
C1230 C1231 1.372 . S
C1231 C1230 1.372 . S
C1231 C1232 1.400 . S
C1231 C1236 1.490 . S
C1232 H1222 0.930 . S
C1232 C1231 1.400 . S
C1232 C1235 1.386 . S
H1233 C1249 0.930 . S
H1234 C1250 0.931 . S
C1235 H1223 0.929 . S
C1235 C1229 1.390 . S
C1235 C1232 1.386 . S
C1236 C1231 1.490 . S
C1236 C1238 1.395 . S
C1236 C1239 1.403 . S
H1237 C1243 0.930 . S
C1238 H1224 0.930 . S
C1238 C1236 1.395 . S
C1238 C1241 1.403 . S
C1239 C1236 1.403 . S
C1239 C1240 1.524 . S
C1239 C1243 1.400 . S
C1240 H1225 0.960 . S
C1240 H1226 0.960 . S
C1240 H1227 0.960 . S
C1240 C1239 1.524 . S
C1241 C1238 1.403 . S
C1241 C1242 1.392 . S
C1241 C1245 1.495 . S
C1242 C1241 1.392 . S
C1242 C1243 1.385 . S
C1242 C1244 1.478 . S
C1243 H1237 0.930 . S
C1243 C1239 1.400 . S
C1243 C1242 1.385 . S
C1244 C1242 1.478 . S
C1244 C1246 1.381 . S
C1244 C1250 1.383 1_554 S
C1245 C1241 1.495 . S
C1245 H1251 0.959 . S
C1245 H1252 0.961 . S
C1245 H1253 0.960 . S
C1246 C1244 1.381 . S
C1246 C1247 1.394 . S
C1246 H1254 0.930 . S
C1247 C1246 1.394 . S
C1247 C1248 1.383 1_554 S
C1247 H1255 0.929 . S
C1248 C1247 1.383 1_556 S
C1248 C1249 1.377 . S
C1249 H1233 0.930 . S
C1249 C1248 1.377 . S
C1249 C1250 1.379 . S
C1250 H1234 0.931 . S
C1250 C1244 1.383 1_556 S
C1250 C1249 1.379 . S
H1251 C1245 0.959 . S
H1252 C1245 0.961 . S
H1253 C1245 0.960 . S
H1254 C1246 0.930 . S
H1255 C1247 0.929 . S
H1256 C1264 0.929 . S
H1257 C1266 0.930 . S
H1258 C1268 0.930 . S
H1259 C1271 0.929 . S
H1260 C1274 0.930 . S
H1261 C1276 0.960 . S
H1262 C1276 0.960 . S
H1263 C1276 0.960 . S
C1264 H1256 0.929 . S
C1264 C1265 1.377 . S
C1264 C1266 1.384 . S
C1265 C1264 1.377 . S
C1265 C1271 1.390 . S
C1266 H1257 0.930 . S
C1266 C1264 1.384 . S
C1266 C1267 1.372 . S
C1267 C1266 1.372 . S
C1267 C1268 1.400 . S
C1267 C1272 1.490 . S
C1268 H1258 0.930 . S
C1268 C1267 1.400 . S
C1268 C1271 1.386 . S
H1269 C1285 0.930 . S
H1270 C1286 0.931 . S
C1271 H1259 0.929 . S
C1271 C1265 1.390 . S
C1271 C1268 1.386 . S
C1272 C1267 1.490 . S
C1272 C1274 1.395 . S
C1272 C1275 1.403 . S
H1273 C1279 0.930 . S
C1274 H1260 0.930 . S
C1274 C1272 1.395 . S
C1274 C1277 1.403 . S
C1275 C1272 1.403 . S
C1275 C1276 1.524 . S
C1275 C1279 1.400 . S
C1276 H1261 0.960 . S
C1276 H1262 0.960 . S
C1276 H1263 0.960 . S
C1276 C1275 1.524 . S
C1277 C1274 1.403 . S
C1277 C1278 1.392 . S
C1277 C1281 1.495 . S
C1278 C1277 1.392 . S
C1278 C1279 1.385 . S
C1278 C1280 1.478 . S
C1279 H1273 0.930 . S
C1279 C1275 1.400 . S
C1279 C1278 1.385 . S
C1280 C1278 1.478 . S
C1280 C1282 1.381 . S
C1280 C1286 1.383 . S
C1281 C1277 1.495 . S
C1281 H1287 0.959 . S
C1281 H1288 0.961 . S
C1281 H1289 0.960 . S
C1282 C1280 1.381 . S
C1282 C1283 1.394 . S
C1282 H1290 0.930 . S
C1283 C1282 1.394 . S
C1283 C1284 1.383 . S
C1283 H1291 0.929 . S
C1284 C1283 1.383 . S
C1284 C1285 1.377 . S
C1285 H1269 0.930 . S
C1285 C1284 1.377 . S
C1285 C1286 1.379 . S
C1286 H1270 0.931 . S
C1286 C1280 1.383 . S
C1286 C1285 1.379 . S
H1287 C1281 0.959 . S
H1288 C1281 0.961 . S
H1289 C1281 0.960 . S
H1290 C1282 0.930 . S
H1291 C1283 0.929 . S
H1292 C1300 0.929 . S
H1293 C1302 0.930 . S
H1294 C1304 0.930 . S
H1295 C1307 0.929 . S
H1296 C1310 0.930 . S
H1297 C1312 0.960 . S
H1298 C1312 0.960 . S
H1299 C1312 0.960 . S
C1300 H1292 0.929 . S
C1300 C1301 1.377 . S
C1300 C1302 1.384 . S
C1301 C1300 1.377 . S
C1301 C1307 1.390 . S
C1302 H1293 0.930 . S
C1302 C1300 1.384 . S
C1302 C1303 1.372 . S
C1303 C1302 1.372 . S
C1303 C1304 1.400 . S
C1303 C1308 1.490 . S
C1304 H1294 0.930 . S
C1304 C1303 1.400 . S
C1304 C1307 1.386 . S
H1305 C1321 0.930 . S
H1306 C1322 0.931 . S
C1307 H1295 0.929 . S
C1307 C1301 1.390 . S
C1307 C1304 1.386 . S
C1308 C1303 1.490 . S
C1308 C1310 1.395 . S
C1308 C1311 1.403 . S
H1309 C1315 0.930 . S
C1310 H1296 0.930 . S
C1310 C1308 1.395 . S
C1310 C1313 1.403 . S
C1311 C1308 1.403 . S
C1311 C1312 1.524 . S
C1311 C1315 1.400 . S
C1312 H1297 0.960 . S
C1312 H1298 0.960 . S
C1312 H1299 0.960 . S
C1312 C1311 1.524 . S
C1313 C1310 1.403 . S
C1313 C1314 1.392 . S
C1313 C1317 1.495 . S
C1314 C1313 1.392 . S
C1314 C1315 1.385 . S
C1314 C1316 1.478 . S
C1315 H1309 0.930 . S
C1315 C1311 1.400 . S
C1315 C1314 1.385 . S
C1316 C1314 1.478 . S
C1316 C1318 1.381 . S
C1316 C1322 1.383 . S
C1317 C1313 1.495 . S
C1317 H1323 0.959 . S
C1317 H1324 0.961 . S
C1317 H1325 0.960 . S
C1318 C1316 1.381 . S
C1318 C1319 1.394 . S
C1318 H1326 0.930 . S
C1319 C1318 1.394 . S
C1319 C1320 1.383 . S
C1319 H1327 0.929 . S
C1320 C1319 1.383 . S
C1320 C1321 1.377 . S
C1321 H1305 0.930 . S
C1321 C1320 1.377 . S
C1321 C1322 1.379 . S
C1322 H1306 0.931 . S
C1322 C1316 1.383 . S
C1322 C1321 1.379 . S
H1323 C1317 0.959 . S
H1324 C1317 0.961 . S
H1325 C1317 0.960 . S
H1326 C1318 0.930 . S
H1327 C1319 0.929 . S
H1328 C1336 0.929 . S
H1329 C1338 0.930 . S
H1330 C1340 0.930 . S
H1331 C1343 0.929 . S
H1332 C1346 0.930 . S
H1333 C1348 0.960 . S
H1334 C1348 0.960 . S
H1335 C1348 0.960 . S
C1336 H1328 0.929 . S
C1336 C1337 1.377 . S
C1336 C1338 1.384 . S
C1337 C1336 1.377 . S
C1337 C1343 1.390 . S
C1338 H1329 0.930 . S
C1338 C1336 1.384 . S
C1338 C1339 1.372 . S
C1339 C1338 1.372 . S
C1339 C1340 1.400 . S
C1339 C1344 1.490 . S
C1340 H1330 0.930 . S
C1340 C1339 1.400 . S
C1340 C1343 1.386 . S
H1341 C1357 0.930 . S
H1342 C1358 0.931 . S
C1343 H1331 0.929 . S
C1343 C1337 1.390 . S
C1343 C1340 1.386 . S
C1344 C1339 1.490 . S
C1344 C1346 1.395 . S
C1344 C1347 1.403 . S
H1345 C1351 0.930 . S
C1346 H1332 0.930 . S
C1346 C1344 1.395 . S
C1346 C1349 1.403 . S
C1347 C1344 1.403 . S
C1347 C1348 1.524 . S
C1347 C1351 1.400 . S
C1348 H1333 0.960 . S
C1348 H1334 0.960 . S
C1348 H1335 0.960 . S
C1348 C1347 1.524 . S
C1349 C1346 1.403 . S
C1349 C1350 1.392 . S
C1349 C1353 1.495 . S
C1350 C1349 1.392 . S
C1350 C1351 1.385 . S
C1350 C1352 1.478 . S
C1351 H1345 0.930 . S
C1351 C1347 1.400 . S
C1351 C1350 1.385 . S
C1352 C1350 1.478 . S
C1352 C1354 1.381 . S
C1352 C1358 1.383 . S
C1353 C1349 1.495 . S
C1353 H1359 0.959 . S
C1353 H1360 0.961 . S
C1353 H1361 0.960 . S
C1354 C1352 1.381 . S
C1354 C1355 1.394 . S
C1354 H1362 0.930 . S
C1355 C1354 1.394 . S
C1355 C1356 1.383 . S
C1355 H1363 0.929 . S
C1356 C1355 1.383 . S
C1356 C1357 1.377 . S
C1357 H1341 0.930 . S
C1357 C1356 1.377 . S
C1357 C1358 1.379 . S
C1358 H1342 0.931 . S
C1358 C1352 1.383 . S
C1358 C1357 1.379 . S
H1359 C1353 0.959 . S
H1360 C1353 0.961 . S
H1361 C1353 0.960 . S
H1362 C1354 0.930 . S
H1363 C1355 0.929 . S
H1364 C1372 0.929 . S
H1365 C1374 0.930 . S
H1366 C1376 0.930 . S
H1367 C1379 0.929 . S
H1368 C1382 0.930 . S
H1369 C1384 0.960 . S
H1370 C1384 0.960 . S
H1371 C1384 0.960 . S
C1372 H1364 0.929 . S
C1372 C1373 1.377 . S
C1372 C1374 1.384 . S
C1373 C1372 1.377 . S
C1373 C1379 1.390 . S
C1374 H1365 0.930 . S
C1374 C1372 1.384 . S
C1374 C1375 1.372 . S
C1375 C1374 1.372 . S
C1375 C1376 1.400 . S
C1375 C1380 1.490 . S
C1376 H1366 0.930 . S
C1376 C1375 1.400 . S
C1376 C1379 1.386 . S
H1377 C1393 0.930 . S
H1378 C1394 0.931 . S
C1379 H1367 0.929 . S
C1379 C1373 1.390 . S
C1379 C1376 1.386 . S
C1380 C1375 1.490 . S
C1380 C1382 1.395 . S
C1380 C1383 1.403 . S
H1381 C1387 0.930 . S
C1382 H1368 0.930 . S
C1382 C1380 1.395 . S
C1382 C1385 1.403 . S
C1383 C1380 1.403 . S
C1383 C1384 1.524 . S
C1383 C1387 1.400 . S
C1384 H1369 0.960 . S
C1384 H1370 0.960 . S
C1384 H1371 0.960 . S
C1384 C1383 1.524 . S
C1385 C1382 1.403 . S
C1385 C1386 1.392 . S
C1385 C1389 1.495 . S
C1386 C1385 1.392 . S
C1386 C1387 1.385 . S
C1386 C1388 1.478 . S
C1387 H1381 0.930 . S
C1387 C1383 1.400 . S
C1387 C1386 1.385 . S
C1388 C1386 1.478 . S
C1388 C1390 1.381 . S
C1388 C1394 1.383 . S
C1389 C1385 1.495 . S
C1389 H1395 0.959 . S
C1389 H1396 0.961 . S
C1389 H1397 0.960 . S
C1390 C1388 1.381 . S
C1390 C1391 1.394 . S
C1390 H1398 0.930 . S
C1391 C1390 1.394 . S
C1391 C1392 1.383 . S
C1391 H1399 0.929 . S
C1392 C1391 1.383 . S
C1392 C1393 1.377 . S
C1393 H1377 0.930 . S
C1393 C1392 1.377 . S
C1393 C1394 1.379 . S
C1394 H1378 0.931 . S
C1394 C1388 1.383 . S
C1394 C1393 1.379 . S
H1395 C1389 0.959 . S
H1396 C1389 0.961 . S
H1397 C1389 0.960 . S
H1398 C1390 0.930 . S
H1399 C1391 0.929 . S
C257 C18 1.892 . S
C276 C11 1.879 . S
C293 C42 1.893 . S
C312 C49 1.886 . S
C329 C73 1.891 . S
C348 C80 1.896 . S
C365 C104 1.891 . S
C384 C111 1.876 . S
C401 C142 1.892 . S
C420 C135 1.880 . S
C437 C173 1.890 . S
C456 C166 1.894 . S
C473 C204 1.892 . S
C492 C197 1.878 . S
C509 C235 1.893 . S
C528 C228 1.899 . S
C545 C2 1.500 . S
C564 C244 1.621 . S
C581 C41 1.505 . S
C600 C125 1.599 . S
C617 C64 1.496 . S
C636 C182 1.614 . S
C653 C103 1.504 . S
C672 C187 1.580 . S
C689 C55 1.844 1_554 S
C708 C10 1.953 . S
C725 C62 1.835 1_556 S
C744 C33 1.955 . S
C761 C72 1.971 . S
C780 C117 1.841 1_554 S
C797 C0 1.848 1_556 S
C816 C95 1.974 . S
C833 C126 1.507 . S
C852 C120 1.565 . S
C869 C165 1.499 . S
C888 C1 1.566 . S
C905 C188 1.513 . S
C924 C58 1.570 . S
C941 C227 1.499 . S
C960 C63 1.577 . S
C977 C179 1.847 1_565 S
C996 C134 1.961 . S
C1013 C157 1.970 . S
C1032 C186 1.862 1_655 S
C1049 C196 1.971 . S
C1068 C241 1.857 1_545 S
C1085 C219 1.968 . S
C1104 C124 1.846 1_455 S
C1121 C210 0.552 . S
C1140 C27 0.532 . S
C1157 C217 0.561 . S
C1176 C32 0.590 . S
C1193 C148 0.546 . S
C1212 C89 0.557 . S
C1229 C155 0.557 . S
C1248 C94 0.528 . S
C1265 C24 0.546 . S
C1284 C213 0.497 . S
C1301 C31 0.535 . S
C1320 C218 0.500 . S
C1337 C151 0.512 . S
C1356 C86 0.574 . S
C1373 C156 0.497 . S
C1392 C93 0.541 . S
