# Generated by pormake.
# Topology smm, (6)-cn, num edge types: 1
# Building blocks:
#     Node 0, Type 0, BuildingBlock: BETGAK_clean_sbu_0, # of connection points: 6
#     Node 1, Type 0, BuildingBlock: BETGAK_clean_sbu_0, # of connection points: 6
#     Node 2, Type 0, BuildingBlock: BETGAK_clean_sbu_0, # of connection points: 6
#     Node 3, Type 0, BuildingBlock: BETGAK_clean_sbu_0, # of connection points: 6
#     Node 4, Type 0, BuildingBlock: BETGAK_clean_sbu_0, # of connection points: 6
#     Node 5, Type 0, BuildingBlock: BETGAK_clean_sbu_0, # of connection points: 6
#     Node 6, Type 0, BuildingBlock: BETGAK_clean_sbu_0, # of connection points: 6
#     Node 7, Type 0, BuildingBlock: BETGAK_clean_sbu_0, # of connection points: 6
#     Node 8, Type 0, BuildingBlock: BETGAK_clean_sbu_0, # of connection points: 6
#     Edge 9, Type (0, 0), BuildingBlock: EYOCIG_clean_linker_4, # of connection points: 2
#     Edge 10, Type (0, 0), BuildingBlock: EYOCIG_clean_linker_4, # of connection points: 2
#     Edge 11, Type (0, 0), BuildingBlock: EYOCIG_clean_linker_4, # of connection points: 2
#     Edge 12, Type (0, 0), BuildingBlock: EYOCIG_clean_linker_4, # of connection points: 2
#     Edge 13, Type (0, 0), BuildingBlock: EYOCIG_clean_linker_4, # of connection points: 2
#     Edge 14, Type (0, 0), BuildingBlock: EYOCIG_clean_linker_4, # of connection points: 2
#     Edge 15, Type (0, 0), BuildingBlock: EYOCIG_clean_linker_4, # of connection points: 2
#     Edge 16, Type (0, 0), BuildingBlock: EYOCIG_clean_linker_4, # of connection points: 2
#     Edge 17, Type (0, 0), BuildingBlock: EYOCIG_clean_linker_4, # of connection points: 2
#     Edge 18, Type (0, 0), BuildingBlock: EYOCIG_clean_linker_4, # of connection points: 2
#     Edge 19, Type (0, 0), BuildingBlock: EYOCIG_clean_linker_4, # of connection points: 2
#     Edge 20, Type (0, 0), BuildingBlock: EYOCIG_clean_linker_4, # of connection points: 2
#     Edge 21, Type (0, 0), BuildingBlock: EYOCIG_clean_linker_4, # of connection points: 2
#     Edge 22, Type (0, 0), BuildingBlock: EYOCIG_clean_linker_4, # of connection points: 2
#     Edge 23, Type (0, 0), BuildingBlock: EYOCIG_clean_linker_4, # of connection points: 2
#     Edge 24, Type (0, 0), BuildingBlock: EYOCIG_clean_linker_4, # of connection points: 2
#     Edge 25, Type (0, 0), BuildingBlock: EYOCIG_clean_linker_4, # of connection points: 2
#     Edge 26, Type (0, 0), BuildingBlock: EYOCIG_clean_linker_4, # of connection points: 2
#     Edge 27, Type (0, 0), BuildingBlock: EYOCIG_clean_linker_4, # of connection points: 2
#     Edge 28, Type (0, 0), BuildingBlock: EYOCIG_clean_linker_4, # of connection points: 2
#     Edge 29, Type (0, 0), BuildingBlock: EYOCIG_clean_linker_4, # of connection points: 2
#     Edge 30, Type (0, 0), BuildingBlock: EYOCIG_clean_linker_4, # of connection points: 2
#     Edge 31, Type (0, 0), BuildingBlock: EYOCIG_clean_linker_4, # of connection points: 2
#     Edge 32, Type (0, 0), BuildingBlock: EYOCIG_clean_linker_4, # of connection points: 2
#     Edge 33, Type (0, 0), BuildingBlock: EYOCIG_clean_linker_4, # of connection points: 2
#     Edge 34, Type (0, 0), BuildingBlock: EYOCIG_clean_linker_4, # of connection points: 2
#     Edge 35, Type (0, 0), BuildingBlock: EYOCIG_clean_linker_4, # of connection points: 2
# Relax obj value: 0.036
# Max RMSD: 0.113
# Mean RMSD: 0.113
data_MOF--net-smm--node1-BETGAK_clean_sbu_0--edge1-EYOCIG_clean_linker_4
_symmetry_space_group_name_H-M    P1
_symmetry_Int_Tables_number       1
_symmetry_cell_setting            triclinic
loop_
_symmetry_equiv_pos_as_xyz
'x, y, z'
_cell_length_a     59.439176
_cell_length_b     59.447645
_cell_length_c     11.229761
_cell_angle_alpha  89.987941
_cell_angle_beta   90.010029
_cell_angle_gamma 119.99773
loop_
_atom_site_label
_atom_site_type_symbol
_atom_site_fract_x
_atom_site_fract_y
_atom_site_fract_z
_atom_type_partial_charge
La0 La 0.08866 0.24194 0.00518 0.0
La1 La 1.04169 0.18928 0.0271 0.0
C2 C 0.12086 0.28691 0.93218 0.0
C3 C 0.1262 0.31405 0.92495 0.0
C4 C 0.14193 0.33242 0.01121 0.0
C5 C 0.15206 0.359 -0.00912 0.0
C6 C 0.14666 0.36754 0.88411 0.0
C7 C 0.12957 0.34934 0.80173 0.0
C8 C 0.11942 0.32278 0.82183 0.0
C9 C 0.07878 0.22367 0.22384 0.0
C10 C 1.03314 0.23649 0.05499 0.0
C11 C 1.00898 0.14301 0.08092 0.0
C12 C 1.00267 0.11607 0.05389 0.0
C13 C 0.99072 0.10399 0.94573 0.0
C14 C 0.98046 0.07726 0.93055 0.0
C15 C 0.98201 0.06228 0.02291 0.0
C16 C 0.99533 0.07439 0.12772 0.0
C17 C 1.00558 0.10112 0.14316 0.0
C18 C 1.0531 0.20768 0.80799 0.0
C19 C 0.09797 0.19507 0.00356 0.0
O20 O 0.12221 0.27789 0.0367 0.0
O21 O 0.10199 0.26933 0.86673 0.0
O22 O 0.10188 0.23905 0.18308 0.0
O23 O 0.06223 0.22086 0.1468 0.0
O24 O 0.05691 0.25097 0.01214 0.0
O25 O 1.02399 0.21191 0.08444 0.0
O26 O 1.00555 0.1561 -0.00386 0.0
O27 O 1.03002 0.15752 0.14299 0.0
O28 O 1.02978 0.19309 0.84697 0.0
O29 O 0.06886 0.20988 0.88755 0.0
O30 O 0.07337 0.18046 0.03466 0.0
O31 O 0.10795 0.21964 0.97205 0.0
H32 H 0.14763 0.3264 0.09131 0.0
H33 H 0.16518 0.37287 0.05566 0.0
H34 H 0.12515 0.35569 0.71893 0.0
H35 H 0.10749 0.30923 0.75332 0.0
H36 H 0.98821 0.11489 0.87482 0.0
H37 H 0.97031 0.06813 0.84877 0.0
H38 H 0.99679 0.06305 0.19973 0.0
H39 H 1.01468 0.10986 0.22726 0.0
La40 La 0.87109 0.87626 0.00562 0.0
La41 La 0.92382 0.88208 0.02768 0.0
C42 C 0.82613 0.86344 0.93218 0.0
C43 C 0.79894 0.8417 0.92505 0.0
C44 C 0.78059 0.83917 0.01119 0.0
C45 C 0.754 0.82279 -0.00913 0.0
C46 C 0.74542 0.80882 0.88422 0.0
C47 C 0.76359 0.80983 0.80193 0.0
C48 C 0.79017 0.82618 0.82202 0.0
C49 C 0.88937 0.88473 0.22429 0.0
C50 C 0.87666 0.82627 0.05614 0.0
C51 C 0.97012 0.89576 0.08164 0.0
C52 C 0.99706 0.91642 0.05447 0.0
C53 C 1.00915 0.9165 0.94641 0.0
C54 C 1.03588 0.93299 0.93121 0.0
C55 C 1.05085 0.94957 0.02342 0.0
C56 C 1.03872 0.95082 0.12809 0.0
C57 C 1.01199 0.93433 0.14356 0.0
C58 C 0.90542 0.87504 0.8085 0.0
C59 C 0.91791 0.93247 0.00369 0.0
O60 O 0.83514 0.87392 0.03651 0.0
O61 O 0.84369 0.86201 0.86721 0.0
O62 O 0.87392 0.89236 0.18347 0.0
O63 O 0.89222 0.87101 0.14734 0.0
O64 O 0.86213 0.8355 0.01328 0.0
O65 O 0.90126 0.84176 0.08529 0.0
O66 O 0.95705 0.87917 -0.00294 0.0
O67 O 0.95558 0.90229 0.14345 0.0
O68 O 0.92007 0.86638 0.84753 0.0
O69 O 0.90317 0.88857 0.88806 0.0
O70 O 0.93255 0.92253 0.03503 0.0
O71 O 0.89335 0.91784 0.97212 0.0
H72 H 0.78664 0.85091 0.09119 0.0
H73 H 0.74014 0.82211 0.05558 0.0
H74 H 0.75721 0.79904 0.71923 0.0
H75 H 0.80371 0.82773 0.75358 0.0
H76 H 0.99826 0.90305 0.87564 0.0
H77 H 1.04502 0.93193 0.84953 0.0
H78 H 1.05006 0.96367 0.19999 0.0
H79 H 1.00324 0.93472 0.22758 0.0
La80 La 0.23684 1.02437 0.00493 0.0
La81 La 0.23116 0.07137 0.02694 0.0
C82 C 0.24956 0.99214 0.93173 0.0
C83 C 0.27127 0.98665 0.92467 0.0
C84 C 0.27379 0.97085 0.01094 0.0
C85 C 0.29014 0.96059 -0.00926 0.0
C86 C 0.30411 0.96596 0.88408 0.0
C87 C 0.30311 0.9831 0.80167 0.0
C88 C 0.2868 0.99337 0.82164 0.0
C89 C 0.22849 1.03426 0.22364 0.0
C90 C 0.28693 0.07989 0.0548 0.0
C91 C 0.2176 0.10407 0.08089 0.0
C92 C 0.19695 0.11039 0.05406 0.0
C93 C 0.1968 0.12237 0.94602 0.0
C94 C 0.18031 0.13262 0.93101 0.0
C95 C 0.16377 0.13102 0.02341 0.0
C96 C 0.16259 0.11768 0.12813 0.0
C97 C 0.17909 0.10744 0.1434 0.0
C98 C 0.23813 0.05995 0.8078 0.0
C99 C 0.18068 1.01512 0.00334 0.0
O100 O 0.23911 0.99074 0.03606 0.0
O101 O 0.251 1.01112 0.86659 0.0
O102 O 0.2208 1.01117 0.18292 0.0
O103 O 0.24221 0.05081 0.14655 0.0
O104 O 0.27763 0.05611 0.01206 0.0
O105 O 0.2715 0.08905 0.08415 0.0
O106 O 0.23409 0.1075 -0.00402 0.0
O107 O 0.2111 0.08304 0.14298 0.0
O108 O 0.24685 0.08327 0.84676 0.0
O109 O 0.22458 0.0442 0.88739 0.0
O110 O 0.19067 0.0397 0.03459 0.0
O111 O 0.19525 1.00513 0.97168 0.0
H112 H 0.26204 0.96518 0.09095 0.0
H113 H 0.29081 0.94743 0.05554 0.0
H114 H 0.3139 0.98749 0.71897 0.0
H115 H 0.28526 1.00535 0.75311 0.0
H116 H 0.21022 0.12492 0.87508 0.0
H117 H 0.18132 0.14279 0.8493 0.0
H118 H 0.14979 0.11619 0.20018 0.0
H119 H 0.17875 0.09832 0.22742 0.0
La120 La 0.7552 0.57523 0.33773 0.0
La121 La 0.70824 0.52253 0.35982 0.0
C122 C 0.78741 0.62019 0.2646 0.0
C123 C 0.79293 0.6474 0.25751 0.0
C124 C 0.80879 0.66572 0.34364 0.0
C125 C 0.81906 0.69233 0.32338 0.0
C126 C 0.81367 0.70094 0.21679 0.0
C127 C 0.79648 0.6828 0.13449 0.0
C128 C 0.78619 0.65621 0.15453 0.0
C129 C 0.74533 0.55695 0.55644 0.0
C130 C 0.69965 0.56974 0.38774 0.0
C131 C 0.67561 0.47628 0.41414 0.0
C132 C 0.66936 0.44933 0.38742 0.0
C133 C 0.6574 0.43719 0.27938 0.0
C134 C 0.6472 0.41046 0.26447 0.0
C135 C 0.64882 0.39555 0.35698 0.0
C136 C 0.66216 0.40774 0.46167 0.0
C137 C 0.67235 0.43446 0.47684 0.0
C138 C 0.71959 0.54092 0.14064 0.0
C139 C 0.76452 0.52836 0.33567 0.0
O140 O 0.78882 0.61114 0.36893 0.0
O141 O 0.76843 0.60267 0.19946 0.0
O142 O 0.76842 0.57237 0.51568 0.0
O143 O 0.72878 0.55414 0.47939 0.0
O144 O 0.72343 0.58424 0.34498 0.0
O145 O 0.69051 0.54514 0.41704 0.0
O146 O 0.67212 0.48929 0.32919 0.0
O147 O 0.69665 0.49085 0.47608 0.0
O148 O 0.69628 0.52629 0.17968 0.0
O149 O 0.73537 0.54316 0.22017 0.0
O150 O 0.73993 0.51374 0.36701 0.0
O151 O 0.77447 0.55293 0.30418 0.0
H152 H 0.81447 0.65964 0.4236 0.0
H153 H 0.83225 0.70616 0.3881 0.0
H154 H 0.79207 0.6892 0.05184 0.0
H155 H 0.77417 0.64269 0.08609 0.0
H156 H 0.65483 0.44803 0.20836 0.0
H157 H 0.63704 0.40127 0.18279 0.0
H158 H 0.66367 0.39644 0.53379 0.0
H159 H 0.68146 0.44326 0.56085 0.0
La160 La 0.5378 0.20959 0.33894 0.0
La161 La 0.59047 0.21525 0.36096 0.0
C162 C 0.49288 0.19689 0.26537 0.0
C163 C 0.46571 0.17513 0.25752 0.0
C164 C 0.44727 0.17252 0.34326 0.0
C165 C 0.4207 0.15612 0.32238 0.0
C166 C 0.41225 0.14219 0.21556 0.0
C167 C 0.43052 0.14328 0.13364 0.0
C168 C 0.45707 0.15965 0.15429 0.0
C169 C 0.55609 0.21804 0.55758 0.0
C170 C 0.54319 0.1595 0.38953 0.0
C171 C 0.63676 0.22884 0.41457 0.0
C172 C 0.66369 0.24944 0.38692 0.0
C173 C 0.67568 0.24946 0.27865 0.0
C174 C 0.7024 0.26594 0.2629 0.0
C175 C 0.71746 0.28259 0.35478 0.0
C176 C 0.70542 0.28389 0.45968 0.0
C177 C 0.67871 0.26741 0.47569 0.0
C178 C 0.57207 0.20828 0.14179 0.0
C179 C 0.5847 0.26574 0.33741 0.0
O180 O 0.50182 0.20715 0.3701 0.0
O181 O 0.5105 0.19562 0.20013 0.0
O182 O 0.54069 0.22573 0.51672 0.0
O183 O 0.55889 0.20427 0.48068 0.0
O184 O 0.52873 0.1688 0.34649 0.0
O185 O 0.5678 0.17494 0.41878 0.0
O186 O 0.62361 0.2122 0.33029 0.0
O187 O 0.62229 0.23546 0.47639 0.0
O188 O 0.58665 0.19954 0.18078 0.0
O189 O 0.56987 0.22183 0.2214 0.0
O190 O 0.5993 0.25573 0.36851 0.0
O191 O 0.56013 0.25117 0.30591 0.0
H192 H 0.45322 0.18422 0.42338 0.0
H193 H 0.40677 0.15537 0.38681 0.0
H194 H 0.42424 0.13253 0.05082 0.0
H195 H 0.47069 0.16126 0.08615 0.0
H196 H 0.66473 0.23597 0.20811 0.0
H197 H 0.71147 0.26484 0.18106 0.0
H198 H 0.71683 0.29678 0.53132 0.0
H199 H 0.67003 0.26785 0.55985 0.0
La200 La 0.9035 0.35779 0.3376 0.0
La201 La 0.89774 0.40474 0.35952 0.0
C202 C 0.91627 0.3256 0.26443 0.0
C203 C 0.93802 0.32017 0.25696 0.0
C204 C 0.94056 0.30432 0.34283 0.0
C205 C 0.95694 0.29411 0.3222 0.0
C206 C 0.9709 0.29957 0.2155 0.0
C207 C 0.96988 0.31677 0.13348 0.0
C208 C 0.95354 0.32699 0.15388 0.0
C209 C 0.89505 0.36763 0.55624 0.0
C210 C 0.95353 0.41332 0.3879 0.0
C211 C 0.88412 0.43739 0.41343 0.0
C212 C 0.86349 0.44372 0.38618 0.0
C213 C 0.8634 0.45568 0.27798 0.0
C214 C 0.84692 0.46593 0.2626 0.0
C215 C 0.83034 0.46435 0.35477 0.0
C216 C 0.82911 0.45102 0.45962 0.0
C217 C 0.8456 0.44079 0.47527 0.0
C218 C 0.90481 0.39338 0.14041 0.0
C219 C 0.8473 0.34845 0.33538 0.0
O220 O 0.90593 0.32425 0.36899 0.0
O221 O 0.91759 0.34451 0.19913 0.0
O222 O 0.88738 0.34455 0.51545 0.0
O223 O 0.90878 0.38419 0.47924 0.0
O224 O 0.94427 0.38956 0.34496 0.0
O225 O 0.93806 0.42244 0.41719 0.0
O226 O 0.90071 0.4409 0.3289 0.0
O227 O 0.87754 0.41631 0.47522 0.0
O228 O 0.91348 0.41669 0.17942 0.0
O229 O 0.89125 0.37761 0.21994 0.0
O230 O 0.85725 0.37304 0.36659 0.0
O231 O 0.86192 0.33849 0.3041 0.0
H232 H 0.92882 0.29857 0.42285 0.0
H233 H 0.95763 0.28091 0.38671 0.0
H234 H 0.98067 0.32123 0.05074 0.0
H235 H 0.95198 0.33902 0.08564 0.0
H236 H 0.87684 0.4582 0.20721 0.0
H237 H 0.84796 0.47608 0.18079 0.0
H238 H 0.81627 0.44955 0.53149 0.0
H239 H 0.84522 0.43168 0.55939 0.0
La240 La 0.42187 0.90849 0.67151 0.0
La241 La 0.37496 0.85576 0.69354 0.0
C242 C 0.45398 0.95347 0.59813 0.0
C243 C 0.45942 0.98065 0.5911 0.0
C244 C 0.47522 0.99899 0.6773 0.0
C245 C 0.48544 1.02558 0.65705 0.0
C246 C 0.48005 1.03418 0.55039 0.0
C247 C 0.4629 1.01602 0.46805 0.0
C248 C 0.45267 0.98944 0.48808 0.0
C249 C 0.41209 0.89017 0.89017 0.0
C250 C 0.36632 0.90293 0.72237 0.0
C251 C 0.3424 0.80947 0.74765 0.0
C252 C 0.33616 0.78256 0.72035 0.0
C253 C 0.32417 0.77049 0.61225 0.0
C254 C 0.31398 0.74377 0.5969 0.0
C255 C 0.31565 0.72881 0.689 0.0
C256 C 0.32903 0.74093 0.7937 0.0
C257 C 0.33921 0.76764 0.80932 0.0
C258 C 0.38627 0.87419 0.47436 0.0
C259 C 0.43126 0.86166 0.66895 0.0
O260 O 0.45548 0.94444 0.70239 0.0
O261 O 0.43498 0.93591 0.53319 0.0
O262 O 0.43517 0.90563 0.84934 0.0
O263 O 0.39551 0.88734 0.81322 0.0
O264 O 0.39008 0.91746 0.67945 0.0
O265 O 0.35721 0.87832 0.75139 0.0
O266 O 0.33881 0.82253 0.66319 0.0
O267 O 0.36349 0.82402 0.80933 0.0
O268 O 0.36297 0.85952 0.51344 0.0
O269 O 0.40206 0.87643 0.55388 0.0
O270 O 0.40668 0.84702 0.70038 0.0
O271 O 0.44119 0.88624 0.63764 0.0
H272 H 0.48091 0.99293 0.7573 0.0
H273 H 0.4986 0.03943 0.72181 0.0
H274 H 0.45849 1.0224 0.38535 0.0
H275 H 0.44069 0.97591 0.41959 0.0
H276 H 0.32156 0.78137 0.54157 0.0
H277 H 0.30378 0.73463 0.51521 0.0
H278 H 0.33058 0.72959 0.86551 0.0
H279 H 0.34835 0.77639 0.89335 0.0
La280 La 0.20443 0.54289 0.67179 0.0
La281 La 0.25708 0.54848 0.69392 0.0
C282 C 0.15952 0.53022 0.59824 0.0
C283 C 0.13232 0.50851 0.59073 0.0
C284 C 0.11392 0.50599 0.67654 0.0
C285 C 0.08734 0.48962 0.65591 0.0
C286 C 0.07882 0.47564 0.54927 0.0
C287 C 0.09704 0.47664 0.46729 0.0
C288 C 0.12361 0.49297 0.4877 0.0
C289 C 0.22271 0.55129 0.89051 0.0
C290 C 0.20976 0.49276 0.72235 0.0
C291 C 0.30333 0.56201 0.74802 0.0
C292 C 0.33028 0.58267 0.72115 0.0
C293 C 0.34241 0.58281 0.61313 0.0
C294 C 0.36914 0.59933 0.59808 0.0
C295 C 0.38407 0.6159 0.69042 0.0
C296 C 0.3719 0.61709 0.7951 0.0
C297 C 0.34518 0.60056 0.81041 0.0
C298 C 0.23867 0.54147 0.47476 0.0
C299 C 0.2514 0.59901 0.66979 0.0
O300 O 0.1685 0.54058 0.70278 0.0
O301 O 0.17709 0.52884 0.53316 0.0
O302 O 0.20733 0.55901 0.84966 0.0
O303 O 0.22549 0.53753 0.81353 0.0
O304 O 0.19531 0.50209 0.67941 0.0
O305 O 0.23438 0.50817 0.75153 0.0
O306 O 0.29026 0.54551 0.66314 0.0
O307 O 0.2888 0.56852 0.81005 0.0
O308 O 0.25324 0.53271 0.51385 0.0
O309 O 0.2365 0.55505 0.55426 0.0
O310 O 0.26597 0.58898 0.70106 0.0
O311 O 0.22682 0.58446 0.63838 0.0
H312 H 0.11993 0.51774 0.75652 0.0
H313 H 0.07345 0.48895 0.72038 0.0
H314 H 0.09071 0.46584 0.3846 0.0
H315 H 0.13719 0.49451 0.4195 0.0
H316 H 0.33155 0.56938 0.54224 0.0
H317 H 0.37831 0.59833 0.51641 0.0
H318 H 0.38321 0.62991 0.8671 0.0
H319 H 0.33639 0.6009 0.89441 0.0
La320 La 0.57009 0.69102 0.67225 0.0
La321 La 0.56436 0.73798 0.69413 0.0
C322 C 0.58282 0.65883 0.59876 0.0
C323 C 0.60456 0.65338 0.59099 0.0
C324 C 0.60713 0.63752 0.67674 0.0
C325 C 0.62348 0.6273 0.65587 0.0
C326 C 0.6374 0.63276 0.54904 0.0
C327 C 0.63635 0.64995 0.46711 0.0
C328 C 0.62003 0.66019 0.48776 0.0
C329 C 0.56164 0.70085 0.89089 0.0
C330 C 0.62013 0.74653 0.72278 0.0
C331 C 0.55073 0.77064 0.74756 0.0
C332 C 0.53009 0.77693 0.71984 0.0
C333 C 0.53007 0.7889 0.61157 0.0
C334 C 0.51358 0.79913 0.59582 0.0
C335 C 0.49692 0.79751 0.68769 0.0
C336 C 0.49561 0.78415 0.79255 0.0
C337 C 0.51211 0.77394 0.80857 0.0
C338 C 0.57138 0.72657 0.47504 0.0
C339 C 0.5139 0.6817 0.67058 0.0
O340 O 0.57252 0.65747 0.70342 0.0
O341 O 0.58413 0.67774 0.53357 0.0
O342 O 0.55398 0.67777 0.8501 0.0
O343 O 0.57538 0.71742 0.81391 0.0
O344 O 0.61087 0.72278 0.6798 0.0
O345 O 0.60466 0.75566 0.75199 0.0
O346 O 0.56737 0.77414 0.66328 0.0
O347 O 0.54414 0.74958 0.80951 0.0
O348 O 0.5801 0.74989 0.51401 0.0
O349 O 0.55783 0.71082 0.55461 0.0
O350 O 0.52388 0.7063 0.70166 0.0
O351 O 0.5285 0.67173 0.63915 0.0
H352 H 0.59542 0.63178 0.75687 0.0
H353 H 0.62419 0.6141 0.72029 0.0
H354 H 0.64711 0.65441 0.38428 0.0
H355 H 0.61845 0.67222 0.4196 0.0
H356 H 0.54357 0.79146 0.54105 0.0
H357 H 0.51468 0.80931 0.51401 0.0
H358 H 0.48271 0.78265 0.86418 0.0
H359 H 0.51167 0.76482 0.89273 0.0
C360 C 0.17188 0.4173 0.82493 0.0
C361 C 0.16057 0.39471 0.85336 0.0
C362 C 0.18567 0.44352 0.788 0.0
C363 C 0.19702 0.46605 0.75868 0.0
C364 C 0.69563 0.78428 0.8252 0.0
C365 C 0.71823 0.79556 0.85358 0.0
C366 C 0.6694 0.77181 0.78834 0.0
C367 C 0.64686 0.76058 0.75907 0.0
C368 C 0.32859 0.94065 0.82518 0.0
C369 C 0.31734 0.95199 0.85355 0.0
C370 C 0.34104 0.92688 0.78825 0.0
C371 C 0.35226 0.91557 0.75886 0.0
C372 C 0.36249 0.11763 0.15602 0.0
C373 C 0.38509 0.1289 0.18445 0.0
C374 C 0.33625 0.10517 0.11945 0.0
C375 C 0.31369 0.09394 0.0906 0.0
C376 C 0.99542 0.27432 0.15624 0.0
C377 C 0.98416 0.28566 0.18458 0.0
C378 C 1.00786 0.26053 0.11968 0.0
C379 C 1.01909 0.24919 0.09082 0.0
C380 C 0.85273 0.77698 0.12137 0.0
C381 C 0.86402 0.79953 0.09227 0.0
C382 C 0.83896 0.75074 0.15802 0.0
C383 C 0.82762 0.72813 0.18627 0.0
C384 C 1.02905 0.45109 0.48991 0.0
C385 C 1.05165 0.46237 0.51835 0.0
C386 C 1.00282 0.43862 0.45314 0.0
C387 C 0.98027 0.42738 0.42403 0.0
C388 C 0.6619 0.60751 0.48939 0.0
C389 C 0.65065 0.61885 0.51792 0.0
C390 C 0.67435 0.59373 0.45267 0.0
C391 C 0.68559 0.58241 0.4237 0.0
C392 C 0.51913 0.11022 0.45489 0.0
C393 C 0.53048 0.13277 0.42573 0.0
C394 C 0.50533 0.08398 0.49157 0.0
C395 C 0.49398 0.06137 0.51981 0.0
C396 C 0.13823 0.15677 0.00683 0.0
C397 C 0.14983 0.14501 0.01475 0.0
C398 C 0.12539 0.17132 0.00129 0.0
C399 C 0.11381 0.18315 0.00066 0.0
C400 C 0.94162 0.98363 0.00086 0.0
C401 C 0.92979 0.96022 0.00044 0.0
C402 C 0.95619 1.011 0.00623 0.0
C403 C 0.96798 1.03436 0.01414 0.0
C404 C 0.10213 0.975 0.00663 0.0
C405 C 0.07878 0.96345 0.01469 0.0
C406 C 0.12951 0.98776 0.001 0.0
C407 C 0.15292 0.9993 0.00036 0.0
C408 C 0.79195 0.50463 0.33261 0.0
C409 C 0.78036 0.51645 0.33234 0.0
C410 C 0.8048 0.4901 0.33788 0.0
C411 C 0.81642 0.47835 0.34581 0.0
C412 C 0.62308 0.34427 0.34062 0.0
C413 C 0.63484 0.36763 0.34849 0.0
C414 C 0.6085 0.3169 0.33512 0.0
C415 C 0.59664 0.29349 0.33449 0.0
C416 C 0.76874 0.30812 0.33746 0.0
C417 C 0.74538 0.2965 0.34552 0.0
C418 C 0.79613 0.32099 0.33219 0.0
C419 C 0.81954 0.3326 0.33199 0.0
C420 C 0.47146 0.82333 0.67044 0.0
C421 C 0.48304 0.81155 0.67852 0.0
C422 C 0.45867 0.83791 0.66524 0.0
C423 C 0.4471 0.84976 0.66522 0.0
C424 C 0.27527 0.65017 0.66681 0.0
C425 C 0.26338 0.62676 0.66649 0.0
C426 C 0.28987 0.67754 0.67219 0.0
C427 C 0.30165 0.70089 0.68021 0.0
C428 C 0.46274 0.65428 0.66822 0.0
C429 C 0.48615 0.66586 0.66762 0.0
C430 C 0.43535 0.64145 0.67378 0.0
C431 C 0.412 0.62985 0.68177 0.0
C432 C 0.06396 0.21439 0.57818 0.0
C433 C 0.05939 0.2115 0.68346 0.0
C434 C 0.06884 0.21702 0.45439 0.0
C435 C 0.07316 0.21995 0.34893 0.0
C436 C 0.89874 0.87925 0.57866 0.0
C437 C 0.90163 0.87754 0.68394 0.0
C438 C 0.8961 0.88152 0.45487 0.0
C439 C 0.89313 0.88287 0.3494 0.0
C440 C 0.23399 0.04908 0.57799 0.0
C441 C 0.23566 0.05366 0.68328 0.0
C442 C 0.23175 0.04421 0.45418 0.0
C443 C 0.23039 0.0399 0.34872 0.0
C444 C 0.73536 0.55025 0.78699 0.0
C445 C 0.7397 0.55321 0.68154 0.0
C446 C 0.73045 0.54761 0.91078 0.0
C447 C 0.72586 0.54472 0.01607 0.0
C448 C 0.56279 0.21482 0.78818 0.0
C449 C 0.55983 0.21618 0.68271 0.0
C450 C 0.56542 0.21254 0.91197 0.0
C451 C 0.56829 0.21081 0.01725 0.0
C452 C 0.89836 0.37758 0.78681 0.0
C453 C 0.89696 0.37325 0.68135 0.0
C454 C 0.90064 0.3825 0.9106 0.0
C455 C 0.90233 0.38709 0.01587 0.0
C456 C 0.39717 0.88082 0.24451 0.0
C457 C 0.39255 0.87795 0.34978 0.0
C458 C 0.40212 0.88346 0.12074 0.0
C459 C 0.40648 0.88643 0.01529 0.0
C460 C 0.22935 0.54797 0.12111 0.0
C461 C 0.22641 0.54938 0.01564 0.0
C462 C 0.23198 0.54567 0.2449 0.0
C463 C 0.23488 0.54396 0.35018 0.0
C464 C 0.56719 0.71568 0.24524 0.0
C465 C 0.56889 0.72028 0.35051 0.0
C466 C 0.56491 0.71078 0.12145 0.0
C467 C 0.56353 0.70646 0.01599 0.0
loop_
_geom_bond_atom_site_label_1
_geom_bond_atom_site_label_2
_geom_bond_distance
_geom_bond_site_symmetry_2
_ccdc_geom_bond_type
La0 C2 2.928 1_554 S
La0 O20 2.521 . S
La0 O21 2.628 1_554 S
La0 O22 2.554 . S
La0 O23 2.757 . S
La0 O24 2.470 . S
La0 O29 2.482 1_554 S
La0 O31 2.503 1_554 S
La1 C11 2.928 1_556 S
La1 O23 2.482 1_656 S
La1 O25 2.503 1_556 S
La1 O26 2.521 . S
La1 O27 2.628 1_556 S
La1 O28 2.554 . S
La1 O29 2.757 1_655 S
La1 O30 2.470 1_655 S
C2 La0 2.928 1_556 S
C2 C3 1.503 . S
C2 O20 1.261 1_556 S
C2 O21 1.243 . S
C3 C2 1.503 . S
C3 C4 1.394 1_556 S
C3 C8 1.373 . S
C4 C3 1.394 1_554 S
C4 C5 1.380 . S
C4 H32 0.930 . S
C5 C4 1.380 . S
C5 C6 1.376 1_554 S
C5 H33 0.930 . S
C6 C5 1.376 1_556 S
C6 C7 1.370 . S
C7 C6 1.370 . S
C7 C8 1.396 . S
C7 H34 0.929 . S
C8 C3 1.373 . S
C8 C7 1.396 . S
C8 H35 0.929 . S
C9 O22 1.240 . S
C9 O23 1.289 . S
C10 O24 1.258 1_655 S
C10 O25 1.256 . S
C11 La1 2.928 1_554 S
C11 C12 1.503 . S
C11 O26 1.261 1_554 S
C11 O27 1.243 . S
C12 C11 1.503 . S
C12 C13 1.394 1_554 S
C12 C17 1.373 . S
C13 C12 1.394 1_556 S
C13 C14 1.380 . S
C13 H36 0.930 . S
C14 C13 1.380 . S
C14 C15 1.376 1_556 S
C14 H37 0.930 . S
C15 C14 1.376 1_554 S
C15 C16 1.370 . S
C16 C15 1.370 . S
C16 C17 1.396 . S
C16 H38 0.929 . S
C17 C12 1.373 . S
C17 C16 1.396 . S
C17 H39 0.929 . S
C18 O28 1.240 1_455 S
C18 O29 1.289 . S
C19 O30 1.258 . S
C19 O31 1.256 . S
O20 La0 2.521 . S
O20 C2 1.261 1_554 S
O21 La0 2.628 1_556 S
O21 C2 1.243 . S
O22 La0 2.554 . S
O22 C9 1.240 . S
O23 La0 2.757 . S
O23 La1 2.482 1_454 S
O23 C9 1.289 . S
O24 La0 2.470 . S
O24 C10 1.258 1_455 S
O25 La1 2.503 1_554 S
O25 C10 1.256 . S
O26 La1 2.521 . S
O26 C11 1.261 1_556 S
O27 La1 2.628 1_554 S
O27 C11 1.243 . S
O28 La1 2.554 . S
O28 C18 1.240 1_655 S
O29 La0 2.482 1_556 S
O29 La1 2.757 1_455 S
O29 C18 1.289 . S
O30 La1 2.470 1_455 S
O30 C19 1.258 . S
O31 La0 2.503 1_556 S
O31 C19 1.256 . S
H32 C4 0.930 . S
H33 C5 0.930 . S
H34 C7 0.929 . S
H35 C8 0.929 . S
H36 C13 0.930 . S
H37 C14 0.930 . S
H38 C16 0.929 . S
H39 C17 0.929 . S
La40 C42 2.928 1_554 S
La40 O60 2.521 . S
La40 O61 2.628 1_554 S
La40 O62 2.554 . S
La40 O63 2.757 . S
La40 O64 2.470 . S
La40 O69 2.482 1_554 S
La40 O71 2.503 1_554 S
La41 C51 2.928 1_556 S
La41 O63 2.482 1_556 S
La41 O65 2.503 1_556 S
La41 O66 2.521 . S
La41 O67 2.628 1_556 S
La41 O68 2.554 . S
La41 O69 2.757 . S
La41 O70 2.470 . S
C42 La40 2.928 1_556 S
C42 C43 1.503 . S
C42 O60 1.261 1_556 S
C42 O61 1.243 . S
C43 C42 1.503 . S
C43 C44 1.394 1_556 S
C43 C48 1.373 . S
C44 C43 1.394 1_554 S
C44 C45 1.380 . S
C44 H72 0.930 . S
C45 C44 1.380 . S
C45 C46 1.376 1_554 S
C45 H73 0.930 . S
C46 C45 1.376 1_556 S
C46 C47 1.370 . S
C47 C46 1.370 . S
C47 C48 1.396 . S
C47 H74 0.929 . S
C48 C43 1.373 . S
C48 C47 1.396 . S
C48 H75 0.929 . S
C49 O62 1.240 . S
C49 O63 1.289 . S
C50 O64 1.258 . S
C50 O65 1.256 . S
C51 La41 2.928 1_554 S
C51 C52 1.503 . S
C51 O66 1.261 1_554 S
C51 O67 1.243 . S
C52 C51 1.503 . S
C52 C53 1.394 1_554 S
C52 C57 1.373 . S
C53 C52 1.394 1_556 S
C53 C54 1.380 . S
C53 H76 0.930 . S
C54 C53 1.380 . S
C54 C55 1.376 1_656 S
C54 H77 0.930 1_655 S
C55 C54 1.376 1_454 S
C55 C56 1.370 1_455 S
C56 C55 1.370 1_655 S
C56 C57 1.396 . S
C56 H78 0.929 . S
C57 C52 1.373 . S
C57 C56 1.396 . S
C57 H79 0.929 . S
C58 O68 1.240 . S
C58 O69 1.289 . S
C59 O70 1.258 . S
C59 O71 1.256 . S
O60 La40 2.521 . S
O60 C42 1.261 1_554 S
O61 La40 2.628 1_556 S
O61 C42 1.243 . S
O62 La40 2.554 . S
O62 C49 1.240 . S
O63 La40 2.757 . S
O63 La41 2.482 1_554 S
O63 C49 1.289 . S
O64 La40 2.470 . S
O64 C50 1.258 . S
O65 La41 2.503 1_554 S
O65 C50 1.256 . S
O66 La41 2.521 . S
O66 C51 1.261 1_556 S
O67 La41 2.628 1_554 S
O67 C51 1.243 . S
O68 La41 2.554 . S
O68 C58 1.240 . S
O69 La40 2.482 1_556 S
O69 La41 2.757 . S
O69 C58 1.289 . S
O70 La41 2.470 . S
O70 C59 1.258 . S
O71 La40 2.503 1_556 S
O71 C59 1.256 . S
H72 C44 0.930 . S
H73 C45 0.930 . S
H74 C47 0.929 . S
H75 C48 0.929 . S
H76 C53 0.930 . S
H77 C54 0.930 1_455 S
H78 C56 0.929 . S
H79 C57 0.929 . S
La80 C82 2.928 1_554 S
La80 O100 2.521 . S
La80 O101 2.628 1_554 S
La80 O102 2.554 . S
La80 O103 2.757 1_565 S
La80 O104 2.470 1_565 S
La80 O109 2.482 1_564 S
La80 O111 2.503 1_554 S
La81 C91 2.928 1_556 S
La81 O103 2.482 1_556 S
La81 O105 2.503 1_556 S
La81 O106 2.521 . S
La81 O107 2.628 1_556 S
La81 O108 2.554 . S
La81 O109 2.757 . S
La81 O110 2.470 . S
C82 La80 2.928 1_556 S
C82 C83 1.503 . S
C82 O100 1.261 1_556 S
C82 O101 1.243 . S
C83 C82 1.503 . S
C83 C84 1.394 1_556 S
C83 C88 1.373 . S
C84 C83 1.394 1_554 S
C84 C85 1.380 . S
C84 H112 0.930 . S
C85 C84 1.380 . S
C85 C86 1.376 1_554 S
C85 H113 0.930 . S
C86 C85 1.376 1_556 S
C86 C87 1.370 . S
C87 C86 1.370 . S
C87 C88 1.396 . S
C87 H114 0.929 . S
C88 C83 1.373 . S
C88 C87 1.396 . S
C88 H115 0.929 . S
C89 O102 1.240 1_545 S
C89 O103 1.289 . S
C90 O104 1.258 . S
C90 O105 1.256 . S
C91 La81 2.928 1_554 S
C91 C92 1.503 . S
C91 O106 1.261 1_554 S
C91 O107 1.243 . S
C92 C91 1.503 . S
C92 C93 1.394 1_554 S
C92 C97 1.373 . S
C93 C92 1.394 1_556 S
C93 C94 1.380 . S
C93 H116 0.930 . S
C94 C93 1.380 . S
C94 C95 1.376 1_556 S
C94 H117 0.930 . S
C95 C94 1.376 1_554 S
C95 C96 1.370 . S
C96 C95 1.370 . S
C96 C97 1.396 . S
C96 H118 0.929 . S
C97 C92 1.373 . S
C97 C96 1.396 . S
C97 H119 0.929 . S
C98 O108 1.240 . S
C98 O109 1.289 . S
C99 O110 1.258 1_565 S
C99 O111 1.256 . S
O100 La80 2.521 . S
O100 C82 1.261 1_554 S
O101 La80 2.628 1_556 S
O101 C82 1.243 . S
O102 La80 2.554 . S
O102 C89 1.240 1_565 S
O103 La80 2.757 1_545 S
O103 La81 2.482 1_554 S
O103 C89 1.289 . S
O104 La80 2.470 1_545 S
O104 C90 1.258 . S
O105 La81 2.503 1_554 S
O105 C90 1.256 . S
O106 La81 2.521 . S
O106 C91 1.261 1_556 S
O107 La81 2.628 1_554 S
O107 C91 1.243 . S
O108 La81 2.554 . S
O108 C98 1.240 . S
O109 La80 2.482 1_546 S
O109 La81 2.757 . S
O109 C98 1.289 . S
O110 La81 2.470 . S
O110 C99 1.258 1_545 S
O111 La80 2.503 1_556 S
O111 C99 1.256 . S
H112 C84 0.930 . S
H113 C85 0.930 . S
H114 C87 0.929 . S
H115 C88 0.929 . S
H116 C93 0.930 . S
H117 C94 0.930 . S
H118 C96 0.929 . S
H119 C97 0.929 . S
La120 C122 2.928 . S
La120 O140 2.521 . S
La120 O141 2.628 . S
La120 O142 2.554 . S
La120 O143 2.757 . S
La120 O144 2.470 . S
La120 O149 2.482 . S
La120 O151 2.503 . S
La121 C131 2.928 . S
La121 O143 2.482 . S
La121 O145 2.503 . S
La121 O146 2.521 . S
La121 O147 2.628 . S
La121 O148 2.554 . S
La121 O149 2.757 . S
La121 O150 2.470 . S
C122 La120 2.928 . S
C122 C123 1.503 . S
C122 O140 1.261 . S
C122 O141 1.243 . S
C123 C122 1.503 . S
C123 C124 1.394 . S
C123 C128 1.373 . S
C124 C123 1.394 . S
C124 C125 1.380 . S
C124 H152 0.930 . S
C125 C124 1.380 . S
C125 C126 1.376 . S
C125 H153 0.930 . S
C126 C125 1.376 . S
C126 C127 1.370 . S
C127 C126 1.370 . S
C127 C128 1.396 . S
C127 H154 0.929 . S
C128 C123 1.373 . S
C128 C127 1.396 . S
C128 H155 0.929 . S
C129 O142 1.240 . S
C129 O143 1.289 . S
C130 O144 1.258 . S
C130 O145 1.256 . S
C131 La121 2.928 . S
C131 C132 1.503 . S
C131 O146 1.261 . S
C131 O147 1.243 . S
C132 C131 1.503 . S
C132 C133 1.394 . S
C132 C137 1.373 . S
C133 C132 1.394 . S
C133 C134 1.380 . S
C133 H156 0.930 . S
C134 C133 1.380 . S
C134 C135 1.376 . S
C134 H157 0.930 . S
C135 C134 1.376 . S
C135 C136 1.370 . S
C136 C135 1.370 . S
C136 C137 1.396 . S
C136 H158 0.929 . S
C137 C132 1.373 . S
C137 C136 1.396 . S
C137 H159 0.929 . S
C138 O148 1.240 . S
C138 O149 1.289 . S
C139 O150 1.258 . S
C139 O151 1.256 . S
O140 La120 2.521 . S
O140 C122 1.261 . S
O141 La120 2.628 . S
O141 C122 1.243 . S
O142 La120 2.554 . S
O142 C129 1.240 . S
O143 La120 2.757 . S
O143 La121 2.482 . S
O143 C129 1.289 . S
O144 La120 2.470 . S
O144 C130 1.258 . S
O145 La121 2.503 . S
O145 C130 1.256 . S
O146 La121 2.521 . S
O146 C131 1.261 . S
O147 La121 2.628 . S
O147 C131 1.243 . S
O148 La121 2.554 . S
O148 C138 1.240 . S
O149 La120 2.482 . S
O149 La121 2.757 . S
O149 C138 1.289 . S
O150 La121 2.470 . S
O150 C139 1.258 . S
O151 La120 2.503 . S
O151 C139 1.256 . S
H152 C124 0.930 . S
H153 C125 0.930 . S
H154 C127 0.929 . S
H155 C128 0.929 . S
H156 C133 0.930 . S
H157 C134 0.930 . S
H158 C136 0.929 . S
H159 C137 0.929 . S
La160 C162 2.928 . S
La160 O180 2.521 . S
La160 O181 2.628 . S
La160 O182 2.554 . S
La160 O183 2.757 . S
La160 O184 2.470 . S
La160 O189 2.482 . S
La160 O191 2.503 . S
La161 C171 2.928 . S
La161 O183 2.482 . S
La161 O185 2.503 . S
La161 O186 2.521 . S
La161 O187 2.628 . S
La161 O188 2.554 . S
La161 O189 2.757 . S
La161 O190 2.470 . S
C162 La160 2.928 . S
C162 C163 1.503 . S
C162 O180 1.261 . S
C162 O181 1.243 . S
C163 C162 1.503 . S
C163 C164 1.394 . S
C163 C168 1.373 . S
C164 C163 1.394 . S
C164 C165 1.380 . S
C164 H192 0.930 . S
C165 C164 1.380 . S
C165 C166 1.376 . S
C165 H193 0.930 . S
C166 C165 1.376 . S
C166 C167 1.370 . S
C167 C166 1.370 . S
C167 C168 1.396 . S
C167 H194 0.929 . S
C168 C163 1.373 . S
C168 C167 1.396 . S
C168 H195 0.929 . S
C169 O182 1.240 . S
C169 O183 1.289 . S
C170 O184 1.258 . S
C170 O185 1.256 . S
C171 La161 2.928 . S
C171 C172 1.503 . S
C171 O186 1.261 . S
C171 O187 1.243 . S
C172 C171 1.503 . S
C172 C173 1.394 . S
C172 C177 1.373 . S
C173 C172 1.394 . S
C173 C174 1.380 . S
C173 H196 0.930 . S
C174 C173 1.380 . S
C174 C175 1.376 . S
C174 H197 0.930 . S
C175 C174 1.376 . S
C175 C176 1.370 . S
C176 C175 1.370 . S
C176 C177 1.396 . S
C176 H198 0.929 . S
C177 C172 1.373 . S
C177 C176 1.396 . S
C177 H199 0.929 . S
C178 O188 1.240 . S
C178 O189 1.289 . S
C179 O190 1.258 . S
C179 O191 1.256 . S
O180 La160 2.521 . S
O180 C162 1.261 . S
O181 La160 2.628 . S
O181 C162 1.243 . S
O182 La160 2.554 . S
O182 C169 1.240 . S
O183 La160 2.757 . S
O183 La161 2.482 . S
O183 C169 1.289 . S
O184 La160 2.470 . S
O184 C170 1.258 . S
O185 La161 2.503 . S
O185 C170 1.256 . S
O186 La161 2.521 . S
O186 C171 1.261 . S
O187 La161 2.628 . S
O187 C171 1.243 . S
O188 La161 2.554 . S
O188 C178 1.240 . S
O189 La160 2.482 . S
O189 La161 2.757 . S
O189 C178 1.289 . S
O190 La161 2.470 . S
O190 C179 1.258 . S
O191 La160 2.503 . S
O191 C179 1.256 . S
H192 C164 0.930 . S
H193 C165 0.930 . S
H194 C167 0.929 . S
H195 C168 0.929 . S
H196 C173 0.930 . S
H197 C174 0.930 . S
H198 C176 0.929 . S
H199 C177 0.929 . S
La200 C202 2.928 . S
La200 O220 2.521 . S
La200 O221 2.628 . S
La200 O222 2.554 . S
La200 O223 2.757 . S
La200 O224 2.470 . S
La200 O229 2.482 . S
La200 O231 2.503 . S
La201 C211 2.928 . S
La201 O223 2.482 . S
La201 O225 2.503 . S
La201 O226 2.521 . S
La201 O227 2.628 . S
La201 O228 2.554 . S
La201 O229 2.757 . S
La201 O230 2.470 . S
C202 La200 2.928 . S
C202 C203 1.503 . S
C202 O220 1.261 . S
C202 O221 1.243 . S
C203 C202 1.503 . S
C203 C204 1.394 . S
C203 C208 1.373 . S
C204 C203 1.394 . S
C204 C205 1.380 . S
C204 H232 0.930 . S
C205 C204 1.380 . S
C205 C206 1.376 . S
C205 H233 0.930 . S
C206 C205 1.376 . S
C206 C207 1.370 . S
C207 C206 1.370 . S
C207 C208 1.396 . S
C207 H234 0.929 . S
C208 C203 1.373 . S
C208 C207 1.396 . S
C208 H235 0.929 . S
C209 O222 1.240 . S
C209 O223 1.289 . S
C210 O224 1.258 . S
C210 O225 1.256 . S
C211 La201 2.928 . S
C211 C212 1.503 . S
C211 O226 1.261 . S
C211 O227 1.243 . S
C212 C211 1.503 . S
C212 C213 1.394 . S
C212 C217 1.373 . S
C213 C212 1.394 . S
C213 C214 1.380 . S
C213 H236 0.930 . S
C214 C213 1.380 . S
C214 C215 1.376 . S
C214 H237 0.930 . S
C215 C214 1.376 . S
C215 C216 1.370 . S
C216 C215 1.370 . S
C216 C217 1.396 . S
C216 H238 0.929 . S
C217 C212 1.373 . S
C217 C216 1.396 . S
C217 H239 0.929 . S
C218 O228 1.240 . S
C218 O229 1.289 . S
C219 O230 1.258 . S
C219 O231 1.256 . S
O220 La200 2.521 . S
O220 C202 1.261 . S
O221 La200 2.628 . S
O221 C202 1.243 . S
O222 La200 2.554 . S
O222 C209 1.240 . S
O223 La200 2.757 . S
O223 La201 2.482 . S
O223 C209 1.289 . S
O224 La200 2.470 . S
O224 C210 1.258 . S
O225 La201 2.503 . S
O225 C210 1.256 . S
O226 La201 2.521 . S
O226 C211 1.261 . S
O227 La201 2.628 . S
O227 C211 1.243 . S
O228 La201 2.554 . S
O228 C218 1.240 . S
O229 La200 2.482 . S
O229 La201 2.757 . S
O229 C218 1.289 . S
O230 La201 2.470 . S
O230 C219 1.258 . S
O231 La200 2.503 . S
O231 C219 1.256 . S
H232 C204 0.930 . S
H233 C205 0.930 . S
H234 C207 0.929 . S
H235 C208 0.929 . S
H236 C213 0.930 . S
H237 C214 0.930 . S
H238 C216 0.929 . S
H239 C217 0.929 . S
La240 C242 2.928 . S
La240 O260 2.521 . S
La240 O261 2.628 . S
La240 O262 2.554 . S
La240 O263 2.757 . S
La240 O264 2.470 . S
La240 O269 2.482 . S
La240 O271 2.503 . S
La241 C251 2.928 . S
La241 O263 2.482 . S
La241 O265 2.503 . S
La241 O266 2.521 . S
La241 O267 2.628 . S
La241 O268 2.554 . S
La241 O269 2.757 . S
La241 O270 2.470 . S
C242 La240 2.928 . S
C242 C243 1.503 . S
C242 O260 1.261 . S
C242 O261 1.243 . S
C243 C242 1.503 . S
C243 C244 1.394 . S
C243 C248 1.373 . S
C244 C243 1.394 . S
C244 C245 1.380 . S
C244 H272 0.930 . S
C245 C244 1.380 . S
C245 C246 1.376 1_565 S
C245 H273 0.930 1_565 S
C246 C245 1.376 1_545 S
C246 C247 1.370 1_545 S
C247 C246 1.370 1_565 S
C247 C248 1.396 . S
C247 H274 0.929 . S
C248 C243 1.373 . S
C248 C247 1.396 . S
C248 H275 0.929 . S
C249 O262 1.240 . S
C249 O263 1.289 . S
C250 O264 1.258 . S
C250 O265 1.256 . S
C251 La241 2.928 . S
C251 C252 1.503 . S
C251 O266 1.261 . S
C251 O267 1.243 . S
C252 C251 1.503 . S
C252 C253 1.394 . S
C252 C257 1.373 . S
C253 C252 1.394 . S
C253 C254 1.380 . S
C253 H276 0.930 . S
C254 C253 1.380 . S
C254 C255 1.376 . S
C254 H277 0.930 . S
C255 C254 1.376 . S
C255 C256 1.370 . S
C256 C255 1.370 . S
C256 C257 1.396 . S
C256 H278 0.929 . S
C257 C252 1.373 . S
C257 C256 1.396 . S
C257 H279 0.929 . S
C258 O268 1.240 . S
C258 O269 1.289 . S
C259 O270 1.258 . S
C259 O271 1.256 . S
O260 La240 2.521 . S
O260 C242 1.261 . S
O261 La240 2.628 . S
O261 C242 1.243 . S
O262 La240 2.554 . S
O262 C249 1.240 . S
O263 La240 2.757 . S
O263 La241 2.482 . S
O263 C249 1.289 . S
O264 La240 2.470 . S
O264 C250 1.258 . S
O265 La241 2.503 . S
O265 C250 1.256 . S
O266 La241 2.521 . S
O266 C251 1.261 . S
O267 La241 2.628 . S
O267 C251 1.243 . S
O268 La241 2.554 . S
O268 C258 1.240 . S
O269 La240 2.482 . S
O269 La241 2.757 . S
O269 C258 1.289 . S
O270 La241 2.470 . S
O270 C259 1.258 . S
O271 La240 2.503 . S
O271 C259 1.256 . S
H272 C244 0.930 . S
H273 C245 0.930 1_545 S
H274 C247 0.929 . S
H275 C248 0.929 . S
H276 C253 0.930 . S
H277 C254 0.930 . S
H278 C256 0.929 . S
H279 C257 0.929 . S
La280 C282 2.928 . S
La280 O300 2.521 . S
La280 O301 2.628 . S
La280 O302 2.554 . S
La280 O303 2.757 . S
La280 O304 2.470 . S
La280 O309 2.482 . S
La280 O311 2.503 . S
La281 C291 2.928 . S
La281 O303 2.482 . S
La281 O305 2.503 . S
La281 O306 2.521 . S
La281 O307 2.628 . S
La281 O308 2.554 . S
La281 O309 2.757 . S
La281 O310 2.470 . S
C282 La280 2.928 . S
C282 C283 1.503 . S
C282 O300 1.261 . S
C282 O301 1.243 . S
C283 C282 1.503 . S
C283 C284 1.394 . S
C283 C288 1.373 . S
C284 C283 1.394 . S
C284 C285 1.380 . S
C284 H312 0.930 . S
C285 C284 1.380 . S
C285 C286 1.376 . S
C285 H313 0.930 . S
C286 C285 1.376 . S
C286 C287 1.370 . S
C287 C286 1.370 . S
C287 C288 1.396 . S
C287 H314 0.929 . S
C288 C283 1.373 . S
C288 C287 1.396 . S
C288 H315 0.929 . S
C289 O302 1.240 . S
C289 O303 1.289 . S
C290 O304 1.258 . S
C290 O305 1.256 . S
C291 La281 2.928 . S
C291 C292 1.503 . S
C291 O306 1.261 . S
C291 O307 1.243 . S
C292 C291 1.503 . S
C292 C293 1.394 . S
C292 C297 1.373 . S
C293 C292 1.394 . S
C293 C294 1.380 . S
C293 H316 0.930 . S
C294 C293 1.380 . S
C294 C295 1.376 . S
C294 H317 0.930 . S
C295 C294 1.376 . S
C295 C296 1.370 . S
C296 C295 1.370 . S
C296 C297 1.396 . S
C296 H318 0.929 . S
C297 C292 1.373 . S
C297 C296 1.396 . S
C297 H319 0.929 . S
C298 O308 1.240 . S
C298 O309 1.289 . S
C299 O310 1.258 . S
C299 O311 1.256 . S
O300 La280 2.521 . S
O300 C282 1.261 . S
O301 La280 2.628 . S
O301 C282 1.243 . S
O302 La280 2.554 . S
O302 C289 1.240 . S
O303 La280 2.757 . S
O303 La281 2.482 . S
O303 C289 1.289 . S
O304 La280 2.470 . S
O304 C290 1.258 . S
O305 La281 2.503 . S
O305 C290 1.256 . S
O306 La281 2.521 . S
O306 C291 1.261 . S
O307 La281 2.628 . S
O307 C291 1.243 . S
O308 La281 2.554 . S
O308 C298 1.240 . S
O309 La280 2.482 . S
O309 La281 2.757 . S
O309 C298 1.289 . S
O310 La281 2.470 . S
O310 C299 1.258 . S
O311 La280 2.503 . S
O311 C299 1.256 . S
H312 C284 0.930 . S
H313 C285 0.930 . S
H314 C287 0.929 . S
H315 C288 0.929 . S
H316 C293 0.930 . S
H317 C294 0.930 . S
H318 C296 0.929 . S
H319 C297 0.929 . S
La320 C322 2.928 . S
La320 O340 2.521 . S
La320 O341 2.628 . S
La320 O342 2.554 . S
La320 O343 2.757 . S
La320 O344 2.470 . S
La320 O349 2.482 . S
La320 O351 2.503 . S
La321 C331 2.928 . S
La321 O343 2.482 . S
La321 O345 2.503 . S
La321 O346 2.521 . S
La321 O347 2.628 . S
La321 O348 2.554 . S
La321 O349 2.757 . S
La321 O350 2.470 . S
C322 La320 2.928 . S
C322 C323 1.503 . S
C322 O340 1.261 . S
C322 O341 1.243 . S
C323 C322 1.503 . S
C323 C324 1.394 . S
C323 C328 1.373 . S
C324 C323 1.394 . S
C324 C325 1.380 . S
C324 H352 0.930 . S
C325 C324 1.380 . S
C325 C326 1.376 . S
C325 H353 0.930 . S
C326 C325 1.376 . S
C326 C327 1.370 . S
C327 C326 1.370 . S
C327 C328 1.396 . S
C327 H354 0.929 . S
C328 C323 1.373 . S
C328 C327 1.396 . S
C328 H355 0.929 . S
C329 O342 1.240 . S
C329 O343 1.289 . S
C330 O344 1.258 . S
C330 O345 1.256 . S
C331 La321 2.928 . S
C331 C332 1.503 . S
C331 O346 1.261 . S
C331 O347 1.243 . S
C332 C331 1.503 . S
C332 C333 1.394 . S
C332 C337 1.373 . S
C333 C332 1.394 . S
C333 C334 1.380 . S
C333 H356 0.930 . S
C334 C333 1.380 . S
C334 C335 1.376 . S
C334 H357 0.930 . S
C335 C334 1.376 . S
C335 C336 1.370 . S
C336 C335 1.370 . S
C336 C337 1.396 . S
C336 H358 0.929 . S
C337 C332 1.373 . S
C337 C336 1.396 . S
C337 H359 0.929 . S
C338 O348 1.240 . S
C338 O349 1.289 . S
C339 O350 1.258 . S
C339 O351 1.256 . S
O340 La320 2.521 . S
O340 C322 1.261 . S
O341 La320 2.628 . S
O341 C322 1.243 . S
O342 La320 2.554 . S
O342 C329 1.240 . S
O343 La320 2.757 . S
O343 La321 2.482 . S
O343 C329 1.289 . S
O344 La320 2.470 . S
O344 C330 1.258 . S
O345 La321 2.503 . S
O345 C330 1.256 . S
O346 La321 2.521 . S
O346 C331 1.261 . S
O347 La321 2.628 . S
O347 C331 1.243 . S
O348 La321 2.554 . S
O348 C338 1.240 . S
O349 La320 2.482 . S
O349 La321 2.757 . S
O349 C338 1.289 . S
O350 La321 2.470 . S
O350 C339 1.258 . S
O351 La320 2.503 . S
O351 C339 1.256 . S
H352 C324 0.930 . S
H353 C325 0.930 . S
H354 C327 0.929 . S
H355 C328 0.929 . S
H356 C333 0.930 . S
H357 C334 0.930 . S
H358 C336 0.929 . S
H359 C337 0.929 . S
C360 C361 1.170 . S
C360 C362 1.380 . S
C361 C360 1.170 . S
C362 C360 1.380 . S
C362 C363 1.170 . S
C363 C362 1.170 . S
C364 C365 1.170 . S
C364 C366 1.380 . S
C365 C364 1.170 . S
C366 C364 1.380 . S
C366 C367 1.170 . S
C367 C366 1.170 . S
C368 C369 1.170 . S
C368 C370 1.380 . S
C369 C368 1.170 . S
C370 C368 1.380 . S
C370 C371 1.170 . S
C371 C370 1.170 . S
C372 C373 1.170 . S
C372 C374 1.380 . S
C373 C372 1.170 . S
C374 C372 1.380 . S
C374 C375 1.170 . S
C375 C374 1.170 . S
C376 C377 1.170 . S
C376 C378 1.380 . S
C377 C376 1.170 . S
C378 C376 1.380 . S
C378 C379 1.170 . S
C379 C378 1.170 . S
C380 C381 1.170 . S
C380 C382 1.380 . S
C381 C380 1.170 . S
C382 C380 1.380 . S
C382 C383 1.170 . S
C383 C382 1.170 . S
C384 C385 1.170 . S
C384 C386 1.380 . S
C385 C384 1.170 . S
C386 C384 1.380 . S
C386 C387 1.170 . S
C387 C386 1.170 . S
C388 C389 1.170 . S
C388 C390 1.380 . S
C389 C388 1.170 . S
C390 C388 1.380 . S
C390 C391 1.170 . S
C391 C390 1.170 . S
C392 C393 1.170 . S
C392 C394 1.380 . S
C393 C392 1.170 . S
C394 C392 1.380 . S
C394 C395 1.170 . S
C395 C394 1.170 . S
C396 C397 1.170 . S
C396 C398 1.380 . S
C397 C396 1.170 . S
C398 C396 1.380 . S
C398 C399 1.170 . S
C399 C398 1.170 . S
C400 C401 1.170 . S
C400 C402 1.380 . S
C401 C400 1.170 . S
C402 C400 1.380 . S
C402 C403 1.170 . S
C403 C402 1.170 . S
C404 C405 1.170 . S
C404 C406 1.380 . S
C405 C404 1.170 . S
C406 C404 1.380 . S
C406 C407 1.170 . S
C407 C406 1.170 . S
C408 C409 1.170 . S
C408 C410 1.380 . S
C409 C408 1.170 . S
C410 C408 1.380 . S
C410 C411 1.170 . S
C411 C410 1.170 . S
C412 C413 1.170 . S
C412 C414 1.380 . S
C413 C412 1.170 . S
C414 C412 1.380 . S
C414 C415 1.170 . S
C415 C414 1.170 . S
C416 C417 1.170 . S
C416 C418 1.380 . S
C417 C416 1.170 . S
C418 C416 1.380 . S
C418 C419 1.170 . S
C419 C418 1.170 . S
C420 C421 1.170 . S
C420 C422 1.380 . S
C421 C420 1.170 . S
C422 C420 1.380 . S
C422 C423 1.170 . S
C423 C422 1.170 . S
C424 C425 1.170 . S
C424 C426 1.380 . S
C425 C424 1.170 . S
C426 C424 1.380 . S
C426 C427 1.170 . S
C427 C426 1.170 . S
C428 C429 1.170 . S
C428 C430 1.380 . S
C429 C428 1.170 . S
C430 C428 1.380 . S
C430 C431 1.170 . S
C431 C430 1.170 . S
C432 C433 1.170 . S
C432 C434 1.380 . S
C433 C432 1.170 . S
C434 C432 1.380 . S
C434 C435 1.170 . S
C435 C434 1.170 . S
C436 C437 1.170 . S
C436 C438 1.380 . S
C437 C436 1.170 . S
C438 C436 1.380 . S
C438 C439 1.170 . S
C439 C438 1.170 . S
C440 C441 1.170 . S
C440 C442 1.380 . S
C441 C440 1.170 . S
C442 C440 1.380 . S
C442 C443 1.170 . S
C443 C442 1.170 . S
C444 C445 1.170 . S
C444 C446 1.380 . S
C445 C444 1.170 . S
C446 C444 1.380 . S
C446 C447 1.170 1_556 S
C447 C446 1.170 1_554 S
C448 C449 1.170 . S
C448 C450 1.380 . S
C449 C448 1.170 . S
C450 C448 1.380 . S
C450 C451 1.170 1_556 S
C451 C450 1.170 1_554 S
C452 C453 1.170 . S
C452 C454 1.380 . S
C453 C452 1.170 . S
C454 C452 1.380 . S
C454 C455 1.170 1_556 S
C455 C454 1.170 1_554 S
C456 C457 1.170 . S
C456 C458 1.380 . S
C457 C456 1.170 . S
C458 C456 1.380 . S
C458 C459 1.170 . S
C459 C458 1.170 . S
C460 C461 1.170 . S
C460 C462 1.380 . S
C461 C460 1.170 . S
C462 C460 1.380 . S
C462 C463 1.170 . S
C463 C462 1.170 . S
C464 C465 1.170 . S
C464 C466 1.380 . S
C465 C464 1.170 . S
C466 C464 1.380 . S
C466 C467 1.170 . S
C467 C466 1.170 . S
C361 C6 1.879 . S
C363 C290 1.775 . S
C365 C46 1.868 . S
C367 C330 1.755 . S
C369 C86 1.872 . S
C371 C250 1.754 . S
C373 C166 1.856 . S
C375 C90 1.796 . S
C377 C206 1.856 . S
C379 C10 1.795 . S
C381 C50 1.761 . S
C383 C126 1.862 . S
C385 C286 1.854 1_655 S
C387 C210 1.781 . S
C389 C326 1.854 . S
C391 C130 1.790 . S
C393 C170 1.779 . S
C395 C246 1.878 . S
C397 C95 1.654 . S
C399 C19 1.664 1_554 S
C401 C59 1.661 1_554 S
C403 C15 1.649 1_565 S
C405 C55 1.660 . S
C407 C99 1.666 1_554 S
C409 C139 1.656 . S
C411 C215 1.644 . S
C413 C135 1.656 . S
C415 C179 1.665 . S
C417 C175 1.644 . S
C419 C219 1.654 . S
C421 C335 1.647 . S
C423 C259 1.655 . S
C425 C299 1.662 . S
C427 C255 1.659 . S
C429 C339 1.665 . S
C431 C295 1.657 . S
C433 C18 1.102 . S
C435 C9 1.059 . S
C437 C58 1.083 . S
C439 C49 1.059 . S
C441 C98 1.102 . S
C443 C89 1.054 . S
C445 C129 1.100 . S
C447 C138 1.064 . S
C449 C169 1.073 . S
C451 C178 1.067 . S
C453 C209 1.062 . S
C455 C218 1.101 . S
C457 C258 1.052 . S
C459 C249 1.097 1_554 S
C461 C289 1.059 1_554 S
C463 C298 1.102 . S
C465 C338 1.102 . S
C467 C329 1.055 1_554 S
