# Generated by pormake.
# Topology whv, (6)-cn, num edge types: 1
# Building blocks:
#     Node 0, Type 0, BuildingBlock: OJICUG_clean_sbu_0, # of connection points: 6
#     Node 1, Type 0, BuildingBlock: OJICUG_clean_sbu_0, # of connection points: 6
#     Node 2, Type 0, BuildingBlock: OJICUG_clean_sbu_0, # of connection points: 6
#     Node 3, Type 0, BuildingBlock: OJICUG_clean_sbu_0, # of connection points: 6
#     Node 4, Type 0, BuildingBlock: OJICUG_clean_sbu_0, # of connection points: 6
#     Node 5, Type 0, BuildingBlock: OJICUG_clean_sbu_0, # of connection points: 6
#     Node 6, Type 0, BuildingBlock: OJICUG_clean_sbu_0, # of connection points: 6
#     Node 7, Type 0, BuildingBlock: OJICUG_clean_sbu_0, # of connection points: 6
#     Node 8, Type 0, BuildingBlock: OJICUG_clean_sbu_0, # of connection points: 6
#     Node 9, Type 0, BuildingBlock: OJICUG_clean_sbu_0, # of connection points: 6
#     Node 10, Type 0, BuildingBlock: OJICUG_clean_sbu_0, # of connection points: 6
#     Node 11, Type 0, BuildingBlock: OJICUG_clean_sbu_0, # of connection points: 6
#     Node 12, Type 0, BuildingBlock: OJICUG_clean_sbu_0, # of connection points: 6
#     Node 13, Type 0, BuildingBlock: OJICUG_clean_sbu_0, # of connection points: 6
#     Node 14, Type 0, BuildingBlock: OJICUG_clean_sbu_0, # of connection points: 6
#     Node 15, Type 0, BuildingBlock: OJICUG_clean_sbu_0, # of connection points: 6
#     Edge 16, Type (0, 0), BuildingBlock: TEMPAE_clean_linker_10, # of connection points: 2
#     Edge 17, Type (0, 0), BuildingBlock: TEMPAE_clean_linker_10, # of connection points: 2
#     Edge 18, Type (0, 0), BuildingBlock: TEMPAE_clean_linker_10, # of connection points: 2
#     Edge 19, Type (0, 0), BuildingBlock: TEMPAE_clean_linker_10, # of connection points: 2
#     Edge 20, Type (0, 0), BuildingBlock: TEMPAE_clean_linker_10, # of connection points: 2
#     Edge 21, Type (0, 0), BuildingBlock: TEMPAE_clean_linker_10, # of connection points: 2
#     Edge 22, Type (0, 0), BuildingBlock: TEMPAE_clean_linker_10, # of connection points: 2
#     Edge 23, Type (0, 0), BuildingBlock: TEMPAE_clean_linker_10, # of connection points: 2
#     Edge 24, Type (0, 0), BuildingBlock: TEMPAE_clean_linker_10, # of connection points: 2
#     Edge 25, Type (0, 0), BuildingBlock: TEMPAE_clean_linker_10, # of connection points: 2
#     Edge 26, Type (0, 0), BuildingBlock: TEMPAE_clean_linker_10, # of connection points: 2
#     Edge 27, Type (0, 0), BuildingBlock: TEMPAE_clean_linker_10, # of connection points: 2
#     Edge 28, Type (0, 0), BuildingBlock: TEMPAE_clean_linker_10, # of connection points: 2
#     Edge 29, Type (0, 0), BuildingBlock: TEMPAE_clean_linker_10, # of connection points: 2
#     Edge 30, Type (0, 0), BuildingBlock: TEMPAE_clean_linker_10, # of connection points: 2
#     Edge 31, Type (0, 0), BuildingBlock: TEMPAE_clean_linker_10, # of connection points: 2
#     Edge 32, Type (0, 0), BuildingBlock: TEMPAE_clean_linker_10, # of connection points: 2
#     Edge 33, Type (0, 0), BuildingBlock: TEMPAE_clean_linker_10, # of connection points: 2
#     Edge 34, Type (0, 0), BuildingBlock: TEMPAE_clean_linker_10, # of connection points: 2
#     Edge 35, Type (0, 0), BuildingBlock: TEMPAE_clean_linker_10, # of connection points: 2
#     Edge 36, Type (0, 0), BuildingBlock: TEMPAE_clean_linker_10, # of connection points: 2
#     Edge 37, Type (0, 0), BuildingBlock: TEMPAE_clean_linker_10, # of connection points: 2
#     Edge 38, Type (0, 0), BuildingBlock: TEMPAE_clean_linker_10, # of connection points: 2
#     Edge 39, Type (0, 0), BuildingBlock: TEMPAE_clean_linker_10, # of connection points: 2
#     Edge 40, Type (0, 0), BuildingBlock: TEMPAE_clean_linker_10, # of connection points: 2
#     Edge 41, Type (0, 0), BuildingBlock: TEMPAE_clean_linker_10, # of connection points: 2
#     Edge 42, Type (0, 0), BuildingBlock: TEMPAE_clean_linker_10, # of connection points: 2
#     Edge 43, Type (0, 0), BuildingBlock: TEMPAE_clean_linker_10, # of connection points: 2
#     Edge 44, Type (0, 0), BuildingBlock: TEMPAE_clean_linker_10, # of connection points: 2
#     Edge 45, Type (0, 0), BuildingBlock: TEMPAE_clean_linker_10, # of connection points: 2
#     Edge 46, Type (0, 0), BuildingBlock: TEMPAE_clean_linker_10, # of connection points: 2
#     Edge 47, Type (0, 0), BuildingBlock: TEMPAE_clean_linker_10, # of connection points: 2
#     Edge 48, Type (0, 0), BuildingBlock: TEMPAE_clean_linker_10, # of connection points: 2
#     Edge 49, Type (0, 0), BuildingBlock: TEMPAE_clean_linker_10, # of connection points: 2
#     Edge 50, Type (0, 0), BuildingBlock: TEMPAE_clean_linker_10, # of connection points: 2
#     Edge 51, Type (0, 0), BuildingBlock: TEMPAE_clean_linker_10, # of connection points: 2
#     Edge 52, Type (0, 0), BuildingBlock: TEMPAE_clean_linker_10, # of connection points: 2
#     Edge 53, Type (0, 0), BuildingBlock: TEMPAE_clean_linker_10, # of connection points: 2
#     Edge 54, Type (0, 0), BuildingBlock: TEMPAE_clean_linker_10, # of connection points: 2
#     Edge 55, Type (0, 0), BuildingBlock: TEMPAE_clean_linker_10, # of connection points: 2
#     Edge 56, Type (0, 0), BuildingBlock: TEMPAE_clean_linker_10, # of connection points: 2
#     Edge 57, Type (0, 0), BuildingBlock: TEMPAE_clean_linker_10, # of connection points: 2
#     Edge 58, Type (0, 0), BuildingBlock: TEMPAE_clean_linker_10, # of connection points: 2
#     Edge 59, Type (0, 0), BuildingBlock: TEMPAE_clean_linker_10, # of connection points: 2
#     Edge 60, Type (0, 0), BuildingBlock: TEMPAE_clean_linker_10, # of connection points: 2
#     Edge 61, Type (0, 0), BuildingBlock: TEMPAE_clean_linker_10, # of connection points: 2
#     Edge 62, Type (0, 0), BuildingBlock: TEMPAE_clean_linker_10, # of connection points: 2
#     Edge 63, Type (0, 0), BuildingBlock: TEMPAE_clean_linker_10, # of connection points: 2
# Relax obj value: 0.290
# Max RMSD: 0.262
# Mean RMSD: 0.262
data_MOF--net-whv--node1-OJICUG_clean_sbu_0--edge1-TEMPAE_clean_linker_10
_symmetry_space_group_name_H-M    P1
_symmetry_Int_Tables_number       1
_symmetry_cell_setting            triclinic
loop_
_symmetry_equiv_pos_as_xyz
'x, y, z'
_cell_length_a     51.911739
_cell_length_b     51.92759
_cell_length_c     27.139885
_cell_angle_alpha  89.993879
_cell_angle_beta   89.995914
_cell_angle_gamma 90.000283
loop_
_atom_site_label
_atom_site_type_symbol
_atom_site_fract_x
_atom_site_fract_y
_atom_site_fract_z
_atom_type_partial_charge
Sc0 Sc 0.29091 0.21438 0.00609 0.0
Sc1 Sc 0.30093 0.14885 0.00269 0.0
Sc2 Sc 0.34822 0.18912 0.05081 0.0
O3 O 0.31351 0.1841 0.0207 0.0
C4 C 0.34615 0.23727 0.9812 0.0
C5 C 0.28106 0.18367 0.91328 0.0
C6 C 0.35737 0.14801 0.9635 0.0
C7 C 0.25033 0.16978 0.03634 0.0
C8 C 0.31037 0.22721 0.11141 0.0
C9 C 0.33344 0.13748 0.10137 0.0
O10 O 0.32221 0.24067 0.98876 0.0
O11 O 0.27926 0.16288 0.93819 0.0
O12 O 0.36586 0.16142 -0.0003 0.0
O13 O 0.25566 0.19173 0.01749 0.0
O14 O 0.33253 0.217 0.10395 0.0
O15 O 0.32067 0.12987 0.06393 0.0
O16 O 0.29174 0.22577 0.08112 0.0
O17 O 0.26804 0.15422 0.04847 0.0
O18 O 0.34175 0.16031 0.10536 0.0
O19 O 0.29087 0.20399 0.93083 0.0
O20 O 0.3582 0.21798 0.99804 0.0
O21 O 0.33359 0.14342 0.95662 0.0
Sc22 Sc 0.56014 0.59804 0.29933 0.0
Sc23 Sc 0.60043 0.55098 0.25057 0.0
Sc24 Sc 0.5349 0.54099 0.25357 0.0
O25 O 0.56517 0.56347 0.26869 0.0
C26 C 0.52189 0.56001 0.35912 0.0
C27 C 0.61179 0.58327 0.3495 0.0
C28 C 0.57944 0.50035 0.28398 0.0
C29 C 0.60128 0.60745 0.21207 0.0
C30 C 0.5121 0.59635 0.22938 0.0
C31 C 0.56572 0.53126 0.16094 0.0
O32 O 0.53218 0.58218 0.35213 0.0
O33 O 0.61944 0.57076 0.31176 0.0
O34 O 0.55754 0.50573 0.26496 0.0
O35 O 0.58795 0.6158 0.24853 0.0
O36 O 0.50871 0.57236 0.23638 0.0
O37 O 0.58645 0.52931 0.18602 0.0
O38 O 0.53134 0.60831 0.24664 0.0
O39 O 0.60577 0.5837 0.20472 0.0
O40 O 0.54545 0.54121 0.17837 0.0
O41 O 0.58886 0.59125 0.35391 0.0
O42 O 0.52333 0.54155 0.32848 0.0
O43 O 0.59508 0.518 0.29612 0.0
Sc44 Sc 0.15147 0.80898 0.54834 0.0
Sc45 Sc 0.19859 0.8496 0.50113 0.0
Sc46 Sc 0.20924 0.78417 0.50437 0.0
O47 O 0.18626 0.81423 0.51869 0.0
C48 C 0.18924 0.77109 0.6095 0.0
C49 C 0.16538 0.8608 0.59895 0.0
C50 C 0.24904 0.82911 0.53662 0.0
C51 C 0.14247 0.84999 0.46073 0.0
C52 C 0.15425 0.76095 0.47829 0.0
C53 C 0.21974 0.8152 0.41224 0.0
O54 O 0.1671 0.78127 0.60178 0.0
O55 O 0.17813 0.86848 0.56155 0.0
O56 O 0.24421 0.80716 0.51727 0.0
O57 O 0.13395 0.83659 0.49694 0.0
O58 O 0.17823 0.75775 0.4858 0.0
O59 O 0.22113 0.83587 0.43758 0.0
O60 O 0.14197 0.78002 0.49542 0.0
O61 O 0.16625 0.85467 0.45401 0.0
O62 O 0.20988 0.79473 0.42901 0.0
O63 O 0.15745 0.83784 0.60309 0.0
O64 O 0.20794 0.7725 0.57934 0.0
O65 O 0.231 0.84441 0.54816 0.0
Sc66 Sc 0.96339 0.45763 0.75669 0.0
Sc67 Sc 0.89792 0.44701 0.7514 0.0
Sc68 Sc 0.9383 0.39997 0.79992 0.0
O69 O 0.93317 0.43474 0.77016 0.0
C70 C 0.98679 0.40269 0.73138 0.0
C71 C 0.93325 0.46746 0.66313 0.0
C72 C 0.89759 0.39063 0.71205 0.0
C73 C 0.91819 0.49778 0.78582 0.0
C74 C 0.97567 0.43784 0.86193 0.0
C75 C 0.88637 0.41427 0.84977 0.0
O76 O 0.99007 0.42657 0.73982 0.0
O77 O 0.91222 0.4689 0.68743 0.0
O78 O 0.91087 0.38225 0.74849 0.0
O79 O 0.94036 0.49266 0.76773 0.0
O80 O 0.96587 0.4156 0.85363 0.0
O81 O 0.87879 0.427 0.81223 0.0
O82 O 0.97418 0.45667 0.83211 0.0
O83 O 0.90265 0.47994 0.79738 0.0
O84 O 0.90926 0.40616 0.85409 0.0
O85 O 0.95357 0.45786 0.68111 0.0
O86 O 0.9674 0.39045 0.74732 0.0
O87 O 0.89298 0.41439 0.70496 0.0
Sc88 Sc 0.72164 0.77806 0.02345 0.0
Sc89 Sc 0.68275 0.82407 0.07833 0.0
Sc90 Sc 0.66669 0.79929 0.96458 0.0
O91 O 0.69091 0.801 0.02194 0.0
C92 C 0.72129 0.78886 0.91318 0.0
C93 C 0.7425 0.83045 0.07346 0.0
C94 C 0.66967 0.85714 0.97939 0.0
C95 C 0.70265 0.7729 0.13236 0.0
C96 C 0.67518 0.74226 0.99167 0.0
C97 C 0.62761 0.81072 0.05248 0.0
O98 O 0.73385 0.79144 0.95288 0.0
O99 O 0.72032 0.84065 0.07706 0.0
O100 O 0.67414 0.83876 0.94946 0.0
O101 O 0.71119 0.76298 0.09305 0.0
O102 O 0.65918 0.76034 0.98372 0.0
O103 O 0.64516 0.80803 0.0843 0.0
O104 O 0.69955 0.74607 0.99228 0.0
O105 O 0.69462 0.79614 0.13469 0.0
O106 O 0.63277 0.81143 0.00663 0.0
O107 O 0.74591 0.8075 0.05763 0.0
O108 O 0.69675 0.78745 0.91276 0.0
O109 O 0.6694 0.85401 0.0264 0.0
Sc110 Sc 0.47204 0.4709 0.76927 0.0
Sc111 Sc 0.42747 0.43176 0.82771 0.0
Sc112 Sc 0.45025 0.41564 0.71253 0.0
O113 O 0.44939 0.44 0.76978 0.0
C114 C 0.45998 0.4698 0.65971 0.0
C115 C 0.4203 0.49162 0.82172 0.0
C116 C 0.39276 0.41896 0.73059 0.0
C117 C 0.47938 0.45245 0.87823 0.0
C118 C 0.50748 0.42406 0.73784 0.0
C119 C 0.43973 0.37672 0.80102 0.0
O120 O 0.4575 0.48244 0.69926 0.0
O121 O 0.41072 0.4693 0.82775 0.0
O122 O 0.41065 0.42341 0.69955 0.0
O123 O 0.48814 0.46144 0.8383 0.0
O124 O 0.48935 0.40805 0.73033 0.0
O125 O 0.44372 0.39422 0.83242 0.0
O126 O 0.50374 0.44846 0.73763 0.0
O127 O 0.4565 0.44357 0.88213 0.0
O128 O 0.4382 0.38192 0.75528 0.0
O129 O 0.4428 0.49525 0.8038 0.0
O130 O 0.4618 0.44531 0.65964 0.0
O131 O 0.39665 0.41852 0.77743 0.0
Sc132 Sc 0.83229 0.19938 0.46343 0.0
Sc133 Sc 0.81634 0.17575 0.57814 0.0
Sc134 Sc 0.77717 0.22082 0.52119 0.0
O135 O 0.80803 0.1981 0.52082 0.0
C136 C 0.82379 0.25649 0.48961 0.0
C137 C 0.8714 0.18844 0.55147 0.0
C138 C 0.79598 0.22739 0.62999 0.0
C139 C 0.82921 0.14174 0.48011 0.0
C140 C 0.77786 0.20927 0.4114 0.0
C141 C 0.75648 0.16889 0.57314 0.0
O142 O 0.83982 0.23841 0.48186 0.0
O143 O 0.85391 0.19192 0.58312 0.0
O144 O 0.78708 0.23653 0.5903 0.0
O145 O 0.82466 0.15985 0.44958 0.0
O146 O 0.76531 0.20667 0.45106 0.0
O147 O 0.77875 0.15905 0.57807 0.0
O148 O 0.80237 0.21104 0.41109 0.0
O149 O 0.82958 0.14528 0.52705 0.0
O150 O 0.75291 0.19152 0.5558 0.0
O151 O 0.86617 0.18728 0.5057 0.0
O152 O 0.7994 0.25268 0.48963 0.0
O153 O 0.80459 0.20439 0.63335 0.0
Sc154 Sc 0.04839 0.58171 0.21397 0.0
Sc155 Sc 0.07117 0.56673 0.32965 0.0
Sc156 Sc 0.02654 0.52705 0.27267 0.0
O157 O 0.04926 0.55789 0.27204 0.0
C158 C 0.99118 0.57365 0.23973 0.0
C159 C 0.05929 0.62148 0.30081 0.0
C160 C 0.01927 0.54667 0.38095 0.0
C161 C 0.10585 0.57834 0.23192 0.0
C162 C 0.03835 0.52709 0.16299 0.0
C163 C 0.07815 0.5068 0.32638 0.0
O164 O 0.00933 0.58958 0.23175 0.0
O165 O 0.055 0.60436 0.3328 0.0
O166 O 0.01051 0.53724 0.3414 0.0
O167 O 0.08791 0.57361 0.20114 0.0
O168 O 0.0409 0.51478 0.20293 0.0
O169 O 0.08777 0.52916 0.33146 0.0
O170 O 0.03668 0.55158 0.16223 0.0
O171 O 0.10202 0.5793 0.27875 0.0
O172 O 0.05574 0.50299 0.30815 0.0
O173 O 0.06074 0.61579 0.25529 0.0
O174 O 0.9949 0.54924 0.24022 0.0
O175 O 0.04214 0.55561 0.38451 0.0
Sc176 Sc 0.79026 0.71417 0.50423 0.0
Sc177 Sc 0.80082 0.64874 0.50057 0.0
Sc178 Sc 0.84771 0.68914 0.54924 0.0
O179 O 0.81309 0.68404 0.51879 0.0
C180 C 0.84547 0.73736 0.47955 0.0
C181 C 0.78015 0.68345 0.41165 0.0
C182 C 0.85716 0.64842 0.46134 0.0
C183 C 0.7502 0.6692 0.53531 0.0
C184 C 0.80966 0.72697 0.6099 0.0
C185 C 0.83346 0.63719 0.59896 0.0
O186 O 0.82144 0.74056 0.48649 0.0
O187 O 0.7786 0.66271 0.43676 0.0
O188 O 0.8655 0.66165 0.49792 0.0
O189 O 0.75518 0.6912 0.51627 0.0
O190 O 0.83182 0.71674 0.6026 0.0
O191 O 0.82095 0.62963 0.56117 0.0
O192 O 0.79114 0.72568 0.57932 0.0
O193 O 0.76815 0.65381 0.54698 0.0
O194 O 0.84133 0.66015 0.60355 0.0
O195 O 0.79005 0.7038 0.42878 0.0
O196 O 0.8576 0.71823 0.49687 0.0
O197 O 0.83341 0.64382 0.45405 0.0
Sc198 Sc 0.06027 0.09811 0.79951 0.0
Sc199 Sc 0.10097 0.05118 0.75122 0.0
Sc200 Sc 0.03545 0.04077 0.75412 0.0
O201 O 0.06559 0.06349 0.76917 0.0
C202 C 0.02237 0.05986 0.85961 0.0
C203 C 0.11198 0.08354 0.85025 0.0
C204 C 0.08023 0.00031 0.78422 0.0
C205 C 0.10144 0.10776 0.71255 0.0
C206 C 0.01218 0.0959 0.72968 0.0
C207 C 0.06641 0.03132 0.66146 0.0
O208 O 0.03248 0.08208 0.85244 0.0
O209 O 0.11971 0.07083 0.81282 0.0
O210 O 0.05827 0.00564 0.76542 0.0
O211 O 0.08787 0.11606 0.74868 0.0
O212 O 0.00898 0.07191 0.73689 0.0
O213 O 0.08718 0.02961 0.68648 0.0
O214 O 0.03135 0.10804 0.74676 0.0
O215 O 0.10626 0.08404 0.70555 0.0
O216 O 0.046 0.041 0.6789 0.0
O217 O 0.08909 0.09176 0.85409 0.0
O218 O 0.0239 0.04135 0.82908 0.0
O219 O 0.09581 0.01801 0.79639 0.0
Sc220 Sc 0.64987 0.30895 0.04981 0.0
Sc221 Sc 0.69705 0.34907 0.00109 0.0
Sc222 Sc 0.70707 0.28358 0.00469 0.0
O223 O 0.68451 0.31387 0.01936 0.0
C224 C 0.68779 0.27087 0.11026 0.0
C225 C 0.66464 0.36069 0.09975 0.0
C226 C 0.7476 0.3282 0.03506 0.0
C227 C 0.64062 0.34985 0.96213 0.0
C228 C 0.65175 0.2608 0.98016 0.0
C229 C 0.717 0.31418 0.91191 0.0
O230 O 0.66564 0.28114 0.103 0.0
O231 O 0.67725 0.36822 0.06205 0.0
O232 O 0.74233 0.30626 0.01611 0.0
O233 O 0.63219 0.33662 -0.00136 0.0
O234 O 0.67571 0.25735 0.98745 0.0
O235 O 0.71886 0.33495 0.93685 0.0
O236 O 0.63976 0.28006 0.99724 0.0
O237 O 0.6644 0.35434 0.95493 0.0
O238 O 0.70702 0.29393 0.92937 0.0
O239 O 0.65651 0.33781 0.10417 0.0
O240 O 0.70632 0.27219 0.07973 0.0
O241 O 0.72985 0.34375 0.04707 0.0
Sc242 Sc 0.46363 0.95773 0.25495 0.0
Sc243 Sc 0.39806 0.94796 0.25175 0.0
Sc244 Sc 0.43824 0.90047 0.29934 0.0
O245 O 0.43329 0.93523 0.26948 0.0
C246 C 0.48631 0.90246 0.22964 0.0
C247 C 0.43288 0.96791 0.16238 0.0
C248 C 0.39686 0.89167 0.21227 0.0
C249 C 0.41922 0.99837 0.28582 0.0
C250 C 0.47655 0.93802 0.35997 0.0
C251 C 0.38677 0.91531 0.35026 0.0
O252 O 0.48978 0.92637 0.2374 0.0
O253 O 0.41212 0.96978 0.18742 0.0
O254 O 0.4103 0.8831 0.24839 0.0
O255 O 0.4411 0.99302 0.26671 0.0
O256 O 0.46632 0.91589 0.35233 0.0
O257 O 0.37907 0.92803 0.31282 0.0
O258 O 0.47506 0.95673 0.3299 0.0
O259 O 0.40361 0.98068 0.29787 0.0
O260 O 0.40963 0.90707 0.35421 0.0
O261 O 0.45316 0.95792 0.17974 0.0
O262 O 0.46695 0.89044 0.2463 0.0
O263 O 0.39243 0.91547 0.20541 0.0
Sc264 Sc 0.22124 0.27716 0.52135 0.0
Sc265 Sc 0.18151 0.32116 0.57993 0.0
Sc266 Sc 0.16612 0.29887 0.46411 0.0
O267 O 0.19022 0.29963 0.52176 0.0
C268 C 0.22054 0.28944 0.41201 0.0
C269 C 0.24141 0.32864 0.57549 0.0
C270 C 0.16911 0.35621 0.48301 0.0
C271 C 0.20226 0.26913 0.62985 0.0
C272 C 0.17469 0.24167 0.48891 0.0
C273 C 0.12672 0.30913 0.55184 0.0
O274 O 0.23301 0.29209 0.45173 0.0
O275 O 0.219 0.33806 0.5813 0.0
O276 O 0.17393 0.3385 0.4518 0.0
O277 O 0.21156 0.26066 0.58996 0.0
O278 O 0.15857 0.25972 0.48151 0.0
O279 O 0.144 0.30469 0.58343 0.0
O280 O 0.19908 0.24556 0.48869 0.0
O281 O 0.19314 0.2919 0.63399 0.0
O282 O 0.1322 0.31088 0.50626 0.0
O283 O 0.24526 0.30633 0.55688 0.0
O284 O 0.19606 0.28746 0.41167 0.0
O285 O 0.16841 0.35213 0.52979 0.0
Sc286 Sc 0.97278 0.97117 0.27109 0.0
Sc287 Sc 0.92827 0.93164 0.32886 0.0
Sc288 Sc 0.95138 0.91596 0.21373 0.0
O289 O 0.95028 0.94016 0.27119 0.0
C290 C 0.96111 0.97024 0.16143 0.0
C291 C 0.92094 0.99153 0.32381 0.0
C292 C 0.89383 0.91934 0.23117 0.0
C293 C 0.98004 0.95225 0.37984 0.0
C294 C 0.00852 0.92451 0.23928 0.0
C295 C 0.94047 0.87672 0.3015 0.0
O296 O 0.95838 0.98282 0.201 0.0
O297 O 0.91149 0.96915 0.3296 0.0
O298 O 0.91186 0.9238 0.20044 0.0
O299 O 0.98875 0.96158 0.34016 0.0
O300 O 0.99045 0.90843 0.23179 0.0
O301 O 0.94454 0.89409 0.3331 0.0
O302 O 0.00466 0.9489 0.23953 0.0
O303 O 0.95723 0.94318 0.38357 0.0
O304 O 0.93912 0.88209 0.25582 0.0
O305 O 0.94338 0.99534 0.30569 0.0
O306 O 0.96307 0.94577 0.1613 0.0
O307 O 0.89754 0.91868 0.27806 0.0
Sc308 Sc 0.33203 0.70004 0.96458 0.0
Sc309 Sc 0.31623 0.67478 0.07808 0.0
Sc310 Sc 0.27702 0.72075 0.02395 0.0
O311 O 0.30788 0.69798 0.02201 0.0
C312 C 0.32313 0.75697 0.99196 0.0
C313 C 0.37127 0.68861 0.05223 0.0
C314 C 0.29624 0.72569 0.13272 0.0
C315 C 0.32943 0.64211 0.97876 0.0
C316 C 0.27727 0.71018 0.9136 0.0
C317 C 0.25653 0.66811 0.07363 0.0
O318 O 0.33927 0.73902 0.98399 0.0
O319 O 0.35371 0.69104 0.08411 0.0
O320 O 0.28759 0.73572 0.09359 0.0
O321 O 0.32488 0.66057 0.94906 0.0
O322 O 0.26475 0.70746 0.95332 0.0
O323 O 0.27876 0.65798 0.07681 0.0
O324 O 0.3018 0.71177 0.91307 0.0
O325 O 0.32969 0.64507 0.02581 0.0
O326 O 0.25298 0.6911 0.05812 0.0
O327 O 0.36611 0.68804 0.00638 0.0
O328 O 0.2988 0.75295 0.99278 0.0
O329 O 0.30429 0.70246 0.13477 0.0
Sc330 Sc 0.54731 0.08254 0.71242 0.0
Sc331 Sc 0.5705 0.06704 0.82761 0.0
Sc332 Sc 0.52598 0.02741 0.77029 0.0
O333 O 0.54848 0.05842 0.77003 0.0
C334 C 0.4902 0.0739 0.73847 0.0
C335 C 0.55779 0.12188 0.80011 0.0
C336 C 0.51881 0.04636 0.87896 0.0
C337 C 0.60489 0.07959 0.72988 0.0
C338 C 0.53779 0.02809 0.6606 0.0
C339 C 0.57797 0.0072 0.82265 0.0
O340 O 0.50823 0.08997 0.73051 0.0
O341 O 0.55401 0.1045 0.83181 0.0
O342 O 0.51002 0.03712 0.83929 0.0
O343 O 0.58691 0.07495 0.69913 0.0
O344 O 0.54039 0.01563 0.70033 0.0
O345 O 0.58745 0.02959 0.8282 0.0
O346 O 0.53583 0.05257 0.66016 0.0
O347 O 0.60114 0.0802 0.77676 0.0
O348 O 0.55545 0.00337 0.80494 0.0
O349 O 0.55928 0.11651 0.75445 0.0
O350 O 0.49407 0.04952 0.73858 0.0
O351 O 0.54166 0.05536 0.88253 0.0
C352 C 0.20655 0.17152 0.99781 0.0
C353 C 0.22424 0.15876 0.02836 0.0
C354 C 0.18582 0.15822 0.9764 0.0
C355 C 0.18259 0.13161 0.9862 0.0
C356 C 0.19846 0.11947 0.02159 0.0
C357 C 0.21909 0.13319 0.04231 0.0
C358 C 0.16822 0.17237 0.94134 0.0
C359 C 0.1949 0.09147 0.0348 0.0
C360 C 0.12173 0.10164 0.93372 0.0
C361 C 0.13063 0.09186 0.8885 0.0
C362 C 0.13857 0.1135 0.96722 0.0
C363 C 0.16492 0.11598 0.95496 0.0
C364 C 0.17427 0.10496 0.91058 0.0
C365 C 0.15704 0.09288 0.87805 0.0
C366 C 0.12783 0.12439 0.01451 0.0
C367 C 0.2023 0.10709 0.89623 0.0
H368 H 0.20996 0.1914 0.98751 0.0
H369 H 0.23228 0.12323 0.06672 0.0
H370 H 0.16566 0.16138 0.90666 0.0
H371 H 0.14894 0.17442 0.95846 0.0
H372 H 0.17552 0.19191 0.93223 0.0
H373 H 0.20573 0.08616 0.06862 0.0
H374 H 0.17421 0.087 0.04049 0.0
H375 H 0.20188 0.07925 0.00404 0.0
H376 H 0.10136 0.10073 0.94241 0.0
H377 H 0.1641 0.08544 0.84326 0.0
H378 H 0.12479 0.1454 0.01009 0.0
H379 H 0.14138 0.12151 0.04565 0.0
H380 H 0.10903 0.11549 0.02415 0.0
H381 H 0.20782 0.12766 0.89339 0.0
H382 H 0.2065 0.09754 0.8605 0.0
H383 H 0.21459 0.09829 0.9251 0.0
C384 C 0.64671 0.37093 0.18314 0.0
C385 C 0.65637 0.37956 0.13763 0.0
C386 C 0.63498 0.38799 0.21642 0.0
C387 C 0.63251 0.41426 0.20362 0.0
C388 C 0.64337 0.42332 0.15888 0.0
C389 C 0.65534 0.40589 0.1266 0.0
C390 C 0.62423 0.37755 0.26408 0.0
C391 C 0.64122 0.45126 0.14393 0.0
C392 C 0.57733 0.45638 0.24636 0.0
C393 C 0.59031 0.47417 0.27635 0.0
C394 C 0.59044 0.43546 0.22523 0.0
C395 C 0.61708 0.43215 0.23473 0.0
C396 C 0.62944 0.44817 0.26959 0.0
C397 C 0.61591 0.46898 0.29006 0.0
C398 C 0.57608 0.41775 0.19072 0.0
C399 C 0.6575 0.44455 0.28242 0.0
H400 H 0.64763 0.35062 0.19227 0.0
H401 H 0.66268 0.41273 0.09157 0.0
H402 H 0.62728 0.39125 0.29489 0.0
H403 H 0.60318 0.37459 0.26003 0.0
H404 H 0.63308 0.35877 0.27396 0.0
H405 H 0.65065 0.45523 0.10797 0.0
H406 H 0.62064 0.45678 0.14125 0.0
H407 H 0.65015 0.46371 0.17239 0.0
H408 H 0.55743 0.45983 0.23627 0.0
H409 H 0.62604 0.48225 0.31404 0.0
H410 H 0.57415 0.39852 0.20809 0.0
H411 H 0.58686 0.41509 0.15582 0.0
H412 H 0.55647 0.425 0.18197 0.0
H413 H 0.6619 0.42389 0.28853 0.0
H414 H 0.66302 0.45557 0.31588 0.0
H415 H 0.66962 0.45127 0.25128 0.0
C416 C 0.34208 0.90354 0.37631 0.0
C417 C 0.36809 0.9069 0.38831 0.0
C418 C 0.32516 0.89124 0.40911 0.0
C419 C 0.33436 0.88254 0.45546 0.0
C420 C 0.36024 0.88724 0.46892 0.0
C421 C 0.37685 0.89914 0.43502 0.0
C422 C 0.29774 0.88629 0.39302 0.0
C423 C 0.37081 0.8787 0.51808 0.0
C424 C 0.27912 0.86668 0.54088 0.0
C425 C 0.27509 0.8405 0.52997 0.0
C426 C 0.29977 0.88029 0.52009 0.0
C427 C 0.31695 0.8674 0.48808 0.0
C428 C 0.315 0.84035 0.48229 0.0
C429 C 0.29407 0.82718 0.50337 0.0
C430 C 0.3019 0.9089 0.52908 0.0
C431 C 0.33432 0.82544 0.45206 0.0
H432 H 0.33524 0.90923 0.34017 0.0
H433 H 0.39695 0.90176 0.44468 0.0
H434 H 0.29432 0.86523 0.39083 0.0
H435 H 0.28406 0.89422 0.4205 0.0
H436 H 0.29339 0.89492 0.3565 0.0
H437 H 0.38886 0.88906 0.52756 0.0
H438 H 0.35658 0.88178 0.54801 0.0
H439 H 0.37517 0.85781 0.51654 0.0
H440 H 0.26499 0.87712 0.56247 0.0
H441 H 0.29161 0.80683 0.49586 0.0
H442 H 0.29532 0.91944 0.49581 0.0
H443 H 0.32223 0.91445 0.53596 0.0
H444 H 0.28997 0.91518 0.56086 0.0
H445 H 0.33874 0.83546 0.41699 0.0
H446 H 0.32754 0.80563 0.44365 0.0
H447 H 0.35259 0.82391 0.47304 0.0
C448 C 0.85098 0.6269 0.68269 0.0
C449 C 0.84179 0.61831 0.63681 0.0
C450 C 0.86252 0.60984 0.71624 0.0
C451 C 0.86534 0.58362 0.70332 0.0
C452 C 0.85504 0.57461 0.65806 0.0
C453 C 0.8432 0.59202 0.62555 0.0
C454 C 0.87262 0.62022 0.76445 0.0
C455 C 0.85755 0.54673 0.64293 0.0
C456 C 0.92032 0.54189 0.74864 0.0
C457 C 0.90708 0.52384 0.77767 0.0
C458 C 0.9073 0.56273 0.72699 0.0
C459 C 0.88049 0.56572 0.73499 0.0
C460 C 0.86777 0.54944 0.76892 0.0
C461 C 0.88121 0.52869 0.7899 0.0
C462 C 0.92206 0.58078 0.69372 0.0
C463 C 0.83951 0.55276 0.78035 0.0
H464 H 0.84977 0.64717 0.69198 0.0
H465 H 0.83622 0.58521 0.59024 0.0
H466 H 0.86922 0.60643 0.795 0.0
H467 H 0.89371 0.62327 0.76141 0.0
H468 H 0.86357 0.63894 0.77408 0.0
H469 H 0.8491 0.54292 0.60604 0.0
H470 H 0.87815 0.54112 0.64225 0.0
H471 H 0.8478 0.53421 0.67029 0.0
H472 H 0.94042 0.53872 0.73975 0.0
H473 H 0.87085 0.51523 0.81314 0.0
H474 H 0.9243 0.59963 0.7124 0.0
H475 H 0.91149 0.58427 0.65886 0.0
H476 H 0.94157 0.57333 0.68479 0.0
H477 H 0.83486 0.57337 0.78648 0.0
H478 H 0.83363 0.54158 0.8134 0.0
H479 H 0.82789 0.54605 0.74855 0.0
C480 C 0.78943 0.83449 0.09531 0.0
C481 C 0.76471 0.84533 0.09303 0.0
C482 C 0.80982 0.8476 0.1184 0.0
C483 C 0.80534 0.87207 0.13986 0.0
C484 C 0.78061 0.88332 0.13692 0.0
C485 C 0.76067 0.86992 0.1134 0.0
C486 C 0.83608 0.83513 0.12042 0.0
C487 C 0.77506 0.90935 0.15943 0.0
C488 C 0.85257 0.89454 0.23799 0.0
C489 C 0.86895 0.9105 0.21048 0.0
C490 C 0.83146 0.88225 0.21571 0.0
C491 C 0.82662 0.8861 0.16485 0.0
C492 C 0.8424 0.90309 0.1375 0.0
C493 C 0.86331 0.9151 0.16064 0.0
C494 C 0.81494 0.86436 0.24615 0.0
C495 C 0.83782 0.90779 0.08326 0.0
H496 H 0.79279 0.81553 0.07988 0.0
H497 H 0.7417 0.87858 0.112 0.0
H498 H 0.85062 0.84798 0.10328 0.0
H499 H 0.8419 0.83218 0.15935 0.0
H500 H 0.83652 0.81625 0.10122 0.0
H501 H 0.75479 0.91552 0.15367 0.0
H502 H 0.77896 0.90878 0.19961 0.0
H503 H 0.788 0.92412 0.14329 0.0
H504 H 0.85693 0.89066 0.27634 0.0
H505 H 0.87581 0.92749 0.13914 0.0
H506 H 0.81694 0.84437 0.23225 0.0
H507 H 0.79434 0.86976 0.24265 0.0
H508 H 0.82031 0.86463 0.28577 0.0
H509 H 0.84029 0.88953 0.06257 0.0
H510 H 0.85123 0.92237 0.06777 0.0
H511 H 0.81776 0.91442 0.07704 0.0
C512 C 0.4162 0.53845 0.84412 0.0
C513 C 0.40516 0.51386 0.84039 0.0
C514 C 0.40278 0.55882 0.86662 0.0
C515 C 0.37776 0.5545 0.88579 0.0
C516 C 0.36627 0.52995 0.88106 0.0
C517 C 0.38005 0.51 0.85837 0.0
C518 C 0.41557 0.58486 0.87072 0.0
C519 C 0.33961 0.5246 0.90091 0.0
C520 C 0.3538 0.60054 0.9847 0.0
C521 C 0.33868 0.61761 0.95697 0.0
C522 C 0.36631 0.57963 0.96216 0.0
C523 C 0.36353 0.57567 0.91077 0.0
C524 C 0.34744 0.59218 0.88303 0.0
C525 C 0.33521 0.61291 0.90644 0.0
C526 C 0.38325 0.56235 0.99301 0.0
C527 C 0.34386 0.58852 0.82823 0.0
H528 H 0.43557 0.54166 0.83056 0.0
H529 H 0.37121 0.49114 0.85562 0.0
H530 H 0.40329 0.5998 0.85335 0.0
H531 H 0.41782 0.59014 0.91009 0.0
H532 H 0.43484 0.58524 0.85293 0.0
H533 H 0.33321 0.50457 0.89339 0.0
H534 H 0.33929 0.52783 0.94131 0.0
H535 H 0.3255 0.53809 0.88429 0.0
H536 H 0.35681 0.60413 0.02362 0.0
H537 H 0.32349 0.62593 0.88471 0.0
H538 H 0.40353 0.56401 0.9805 0.0
H539 H 0.37742 0.54194 0.98826 0.0
H540 H 0.38239 0.56725 0.03282 0.0
H541 H 0.3626 0.59102 0.80916 0.0
H542 H 0.32984 0.60239 0.81238 0.0
H543 H 0.33709 0.56868 0.82035 0.0
C544 C 0.63553 0.08399 0.65951 0.0
C545 C 0.62973 0.08863 0.70926 0.0
C546 C 0.65648 0.09606 0.63651 0.0
C547 C 0.6721 0.11318 0.66389 0.0
C548 C 0.66704 0.11715 0.71465 0.0
C549 C 0.64592 0.10477 0.73679 0.0
C550 C 0.6613 0.09121 0.5824 0.0
C551 C 0.68334 0.13521 0.74511 0.0
C552 C 0.73828 0.12951 0.61349 0.0
C553 C 0.73425 0.15399 0.59266 0.0
C554 C 0.71827 0.11608 0.63676 0.0
C555 C 0.69346 0.12721 0.63907 0.0
C556 C 0.689 0.15159 0.61718 0.0
C557 C 0.70945 0.16471 0.59428 0.0
C558 C 0.7238 0.09014 0.65967 0.0
C559 C 0.66268 0.16396 0.61857 0.0
H560 H 0.62317 0.07148 0.63797 0.0
H561 H 0.64143 0.1087 0.77507 0.0
H562 H 0.65886 0.10941 0.56147 0.0
H563 H 0.6814 0.08463 0.57656 0.0
H564 H 0.648 0.07655 0.56686 0.0
H565 H 0.67773 0.13513 0.78462 0.0
H566 H 0.70397 0.12984 0.74215 0.0
H567 H 0.68139 0.15513 0.7308 0.0
H568 H 0.75731 0.12093 0.61256 0.0
H569 H 0.70608 0.18359 0.57851 0.0
H570 H 0.711 0.07528 0.64346 0.0
H571 H 0.7197 0.09081 0.69977 0.0
H572 H 0.74412 0.08404 0.65434 0.0
H573 H 0.64828 0.15102 0.60129 0.0
H574 H 0.66227 0.18279 0.59916 0.0
H575 H 0.65664 0.167 0.65735 0.0
C576 C 0.16485 0.38756 0.41382 0.0
C577 C 0.15967 0.38101 0.46302 0.0
C578 C 0.15241 0.40834 0.39104 0.0
C579 C 0.13432 0.423 0.41808 0.0
C580 C 0.12973 0.41718 0.46835 0.0
C581 C 0.14253 0.39628 0.49029 0.0
C582 C 0.15794 0.414 0.33747 0.0
C583 C 0.11059 0.43243 0.49842 0.0
C584 C 0.11704 0.48923 0.36937 0.0
C585 C 0.0931 0.48477 0.34659 0.0
C586 C 0.13053 0.46936 0.3929 0.0
C587 C 0.12005 0.44426 0.39344 0.0
C588 C 0.09621 0.43939 0.36977 0.0
C589 C 0.08298 0.45972 0.34669 0.0
C590 C 0.15586 0.47534 0.41784 0.0
C591 C 0.08456 0.41274 0.36926 0.0
H592 H 0.17811 0.37587 0.39252 0.0
H593 H 0.13814 0.39115 0.5281 0.0
H594 H 0.14015 0.41134 0.3154 0.0
H595 H 0.16404 0.43434 0.33297 0.0
H596 H 0.17321 0.40133 0.32216 0.0
H597 H 0.11023 0.42632 0.53766 0.0
H598 H 0.11525 0.45326 0.49671 0.0
H599 H 0.09098 0.42994 0.48285 0.0
H600 H 0.12514 0.50846 0.36972 0.0
H601 H 0.06452 0.45603 0.32942 0.0
H602 H 0.17141 0.46329 0.40191 0.0
H603 H 0.15461 0.47058 0.45763 0.0
H604 H 0.16139 0.49591 0.41408 0.0
H605 H 0.09817 0.39894 0.35204 0.0
H606 H 0.06604 0.41207 0.3488 0.0
H607 H 0.08113 0.40611 0.40756 0.0
C608 C 0.6566 0.59489 0.37515 0.0
C609 C 0.63058 0.59175 0.38733 0.0
C610 C 0.67366 0.60719 0.40769 0.0
C611 C 0.66458 0.61614 0.45395 0.0
C612 C 0.63867 0.6117 0.46759 0.0
C613 C 0.62193 0.59976 0.43396 0.0
C614 C 0.70111 0.61181 0.39147 0.0
C615 C 0.62824 0.62053 0.51667 0.0
C616 C 0.71992 0.63178 0.53931 0.0
C617 C 0.72412 0.65792 0.52832 0.0
C618 C 0.69921 0.61827 0.5185 0.0
C619 C 0.68215 0.63122 0.48635 0.0
C620 C 0.68431 0.65825 0.48034 0.0
C621 C 0.70529 0.67131 0.50147 0.0
C622 C 0.69687 0.5897 0.52771 0.0
C623 C 0.66513 0.67326 0.44994 0.0
H624 H 0.66337 0.58898 0.33909 0.0
H625 H 0.60183 0.59731 0.44378 0.0
H626 H 0.70484 0.63282 0.38951 0.0
H627 H 0.71471 0.6036 0.4188 0.0
H628 H 0.70529 0.60323 0.35485 0.0
H629 H 0.60997 0.61056 0.52619 0.0
H630 H 0.64239 0.61718 0.54663 0.0
H631 H 0.62433 0.6415 0.51502 0.0
H632 H 0.73394 0.62128 0.56107 0.0
H633 H 0.7079 0.69163 0.49385 0.0
H634 H 0.70335 0.57903 0.49452 0.0
H635 H 0.6765 0.58431 0.53468 0.0
H636 H 0.70876 0.58338 0.55952 0.0
H637 H 0.66039 0.66307 0.4152 0.0
H638 H 0.67223 0.69288 0.4409 0.0
H639 H 0.64699 0.67527 0.47116 0.0
C640 C 0.15572 0.90592 0.62592 0.0
C641 C 0.15684 0.87957 0.63682 0.0
C642 C 0.14376 0.92329 0.65832 0.0
C643 C 0.13302 0.91417 0.70313 0.0
C644 C 0.13553 0.88787 0.71575 0.0
C645 C 0.14721 0.87086 0.68229 0.0
C646 C 0.14158 0.95124 0.64351 0.0
C647 C 0.12495 0.87737 0.76349 0.0
C648 C 0.11685 0.96904 0.78956 0.0
C649 C 0.09115 0.97415 0.77643 0.0
C650 C 0.13028 0.94817 0.76899 0.0
C651 C 0.11773 0.93206 0.73454 0.0
C652 C 0.09102 0.9353 0.72568 0.0
C653 C 0.07801 0.95625 0.74694 0.0
C654 C 0.15839 0.94456 0.78138 0.0
C655 C 0.07641 0.91742 0.69184 0.0
H656 H 0.16305 0.91282 0.59092 0.0
H657 H 0.14819 0.85054 0.69132 0.0
H658 H 0.12102 0.95697 0.6421 0.0
H659 H 0.1511 0.9636 0.67142 0.0
H660 H 0.15044 0.95515 0.607 0.0
H661 H 0.13396 0.85866 0.77331 0.0
H662 H 0.12797 0.8911 0.79428 0.0
H663 H 0.10391 0.87424 0.75959 0.0
H664 H 0.12712 0.98238 0.81319 0.0
H665 H 0.05802 0.95961 0.73738 0.0
H666 H 0.17038 0.95124 0.75005 0.0
H667 H 0.16279 0.92389 0.78749 0.0
H668 H 0.16405 0.9556 0.81473 0.0
H669 H 0.08721 0.91402 0.6572 0.0
H670 H 0.05699 0.92497 0.68253 0.0
H671 H 0.07399 0.89851 0.71022 0.0
C672 C 0.84128 0.40415 0.87636 0.0
C673 C 0.86756 0.40584 0.88763 0.0
C674 C 0.82403 0.39199 0.90874 0.0
C675 C 0.83321 0.38162 0.95383 0.0
C676 C 0.85939 0.38472 0.96678 0.0
C677 C 0.87628 0.39662 0.9334 0.0
C678 C 0.79619 0.38911 0.89356 0.0
C679 C 0.86994 0.37447 0.01475 0.0
C680 C 0.77856 0.36502 0.04041 0.0
C681 C 0.77371 0.33926 0.02742 0.0
C682 C 0.79923 0.37864 0.01965 0.0
C683 C 0.8155 0.36619 0.98535 0.0
C684 C 0.81261 0.33943 0.9768 0.0
C685 C 0.79177 0.32624 0.99809 0.0
C686 C 0.80241 0.40686 0.03154 0.0
C687 C 0.83076 0.32493 0.94332 0.0
H688 H 0.8344 0.41112 0.84109 0.0
H689 H 0.89655 0.39803 0.94267 0.0
H690 H 0.7912 0.36839 0.89104 0.0
H691 H 0.78343 0.3978 0.92179 0.0
H692 H 0.79209 0.39832 0.85745 0.0
H693 H 0.88855 0.38372 0.02454 0.0
H694 H 0.85613 0.37748 0.04542 0.0
H695 H 0.87329 0.35346 0.01122 0.0
H696 H 0.7651 0.37519 0.06395 0.0
H697 H 0.78861 0.3062 0.98868 0.0
H698 H 0.79568 0.41858 -0.00014 0.0
H699 H 0.82299 0.41159 0.03782 0.0
H700 H 0.79116 0.41255 0.06462 0.0
H701 H 0.83409 0.33564 0.90854 0.0
H702 H 0.8235 0.30538 0.93426 0.0
H703 H 0.84967 0.32286 0.96187 0.0
C704 C 0.42116 0.04232 0.2481 0.0
C705 C 0.40829 0.02453 0.27827 0.0
C706 C 0.40794 0.06318 0.227 0.0
C707 C 0.38132 0.06643 0.23671 0.0
C708 C 0.36908 0.05043 0.27177 0.0
C709 C 0.38272 0.02968 0.29222 0.0
C710 C 0.42218 0.08091 0.19231 0.0
C711 C 0.34105 0.05399 0.28486 0.0
C712 C 0.35143 0.12746 0.18481 0.0
C713 C 0.34172 0.11871 0.13943 0.0
C714 C 0.36324 0.1105 0.21817 0.0
C715 C 0.36575 0.08421 0.20558 0.0
C716 C 0.35482 0.07502 0.16101 0.0
C717 C 0.34278 0.09235 0.12864 0.0
C718 C 0.37406 0.12108 0.26566 0.0
C719 C 0.35704 0.04706 0.14625 0.0
H720 H 0.44104 0.03891 0.23784 0.0
H721 H 0.37268 0.01641 0.31635 0.0
H722 H 0.41128 0.08358 0.15755 0.0
H723 H 0.42418 0.10012 0.20968 0.0
H724 H 0.44175 0.07365 0.18329 0.0
H725 H 0.33565 0.04302 0.31845 0.0
H726 H 0.33662 0.07466 0.29087 0.0
H727 H 0.32887 0.04719 0.25388 0.0
H728 H 0.35049 0.14779 0.19374 0.0
H729 H 0.33541 0.08542 0.0937 0.0
H730 H 0.39508 0.12416 0.26137 0.0
H731 H 0.37116 0.10741 0.2966 0.0
H732 H 0.36512 0.13983 0.2755 0.0
H733 H 0.37764 0.04169 0.14296 0.0
H734 H 0.34735 0.04294 0.11062 0.0
H735 H 0.34845 0.0346 0.17509 0.0
C736 C 0.3617 0.4146 0.66091 0.0
C737 C 0.36786 0.40983 0.71045 0.0
C738 C 0.34072 0.40241 0.63826 0.0
C739 C 0.32547 0.38502 0.66577 0.0
C740 C 0.33088 0.38092 0.71635 0.0
C741 C 0.35199 0.39345 0.73817 0.0
C742 C 0.33549 0.40742 0.58434 0.0
C743 C 0.315 0.36253 0.74693 0.0
C744 C 0.25923 0.36798 0.61656 0.0
C745 C 0.2635 0.34368 0.59515 0.0
C746 C 0.27918 0.38157 0.63966 0.0
C747 C 0.30415 0.37078 0.64123 0.0
C748 C 0.30884 0.34657 0.61886 0.0
C749 C 0.28845 0.33329 0.59611 0.0
C750 C 0.27343 0.40733 0.66309 0.0
C751 C 0.33532 0.33456 0.61953 0.0
H752 H 0.37382 0.42729 0.63926 0.0
H753 H 0.35678 0.38941 0.77627 0.0
H754 H 0.33808 0.38936 0.56307 0.0
H755 H 0.31526 0.41372 0.57906 0.0
H756 H 0.34847 0.42235 0.56874 0.0
H757 H 0.32082 0.36257 0.78633 0.0
H758 H 0.29428 0.36762 0.74446 0.0
H759 H 0.31715 0.34268 0.73236 0.0
H760 H 0.24009 0.3763 0.61614 0.0
H761 H 0.29199 0.31454 0.5799 0.0
H762 H 0.28589 0.42245 0.64678 0.0
H763 H 0.2778 0.40656 0.70308 0.0
H764 H 0.25298 0.41315 0.65835 0.0
H765 H 0.34944 0.34774 0.60204 0.0
H766 H 0.33587 0.31578 0.59993 0.0
H767 H 0.34165 0.3315 0.65814 0.0
C768 C 0.85446 0.10075 0.48703 0.0
C769 C 0.83855 0.11707 0.45925 0.0
C770 C 0.8672 0.07987 0.46485 0.0
C771 C 0.86385 0.07517 0.41381 0.0
C772 C 0.84695 0.09089 0.38613 0.0
C773 C 0.8345 0.11159 0.40917 0.0
C774 C 0.88499 0.06343 0.49564 0.0
C775 C 0.84275 0.08643 0.33171 0.0
C776 C 0.91634 0.03844 0.34556 0.0
C777 C 0.90574 0.01362 0.34304 0.0
C778 C 0.90286 0.05871 0.36831 0.0
C779 C 0.87825 0.05403 0.38906 0.0
C780 C 0.86723 0.02921 0.38577 0.0
C781 C 0.88103 0.00938 0.36271 0.0
C782 C 0.91512 0.08504 0.37081 0.0
C783 C 0.84104 0.02345 0.4074 0.0
H784 H 0.85793 0.10498 0.52557 0.0
H785 H 0.82217 0.12404 0.38743 0.0
H786 H 0.87973 0.04281 0.49194 0.0
H787 H 0.90507 0.06556 0.48222 0.0
H788 H 0.88444 0.06875 0.53528 0.0
H789 H 0.8282 0.09977 0.31591 0.0
H790 H 0.86117 0.08912 0.31162 0.0
H791 H 0.83634 0.06636 0.32508 0.0
H792 H 0.9354 0.04195 0.33071 0.0
H793 H 0.87252 0.99034 0.36101 0.0
H794 H 0.91773 0.09083 0.40985 0.0
H795 H 0.9023 0.09952 0.35339 0.0
H796 H 0.93416 0.08565 0.35215 0.0
H797 H 0.84123 0.02727 0.44762 0.0
H798 H 0.83507 0.00315 0.40132 0.0
H799 H 0.82633 0.03631 0.39087 0.0
C800 C 0.13651 0.58249 0.16156 0.0
C801 C 0.1307 0.58729 0.21126 0.0
C802 C 0.15734 0.59463 0.13835 0.0
C803 C 0.17285 0.61195 0.16548 0.0
C804 C 0.16786 0.61601 0.21623 0.0
C805 C 0.14684 0.60359 0.23858 0.0
C806 C 0.16209 0.5897 0.08424 0.0
C807 C 0.18408 0.63426 0.24644 0.0
C808 C 0.23872 0.62864 0.11419 0.0
C809 C 0.23445 0.65308 0.09337 0.0
C810 C 0.21889 0.61513 0.13783 0.0
C811 C 0.19402 0.6261 0.14039 0.0
C812 C 0.18931 0.65042 0.11847 0.0
C813 C 0.2096 0.66367 0.0953 0.0
C814 C 0.22469 0.58928 0.16088 0.0
C815 C 0.16291 0.6626 0.12006 0.0
H816 H 0.1242 0.56985 0.14021 0.0
H817 H 0.14234 0.60763 0.27681 0.0
H818 H 0.15944 0.60783 0.06319 0.0
H819 H 0.18223 0.58329 0.07829 0.0
H820 H 0.14889 0.57489 0.06893 0.0
H821 H 0.17866 0.63409 0.28605 0.0
H822 H 0.20476 0.62915 0.24311 0.0
H823 H 0.1818 0.65416 0.23223 0.0
H824 H 0.25779 0.62019 0.1131 0.0
H825 H 0.20606 0.68251 0.07951 0.0
H826 H 0.21196 0.57428 0.14494 0.0
H827 H 0.2207 0.59001 0.20102 0.0
H828 H 0.24504 0.58333 0.15539 0.0
H829 H 0.14855 0.6495 0.10308 0.0
H830 H 0.16229 0.68138 0.10049 0.0
H831 H 0.15697 0.66568 0.15889 0.0
C832 C 0.64515 0.8986 0.98572 0.0
C833 C 0.66041 0.8817 0.95789 0.0
C834 C 0.63254 0.9195 0.96334 0.0
C835 C 0.63537 0.92363 0.91201 0.0
C836 C 0.65163 0.90733 0.88419 0.0
C837 C 0.66396 0.88661 0.90744 0.0
C838 C 0.61542 0.93656 0.99428 0.0
C839 C 0.65527 0.91118 0.82946 0.0
C840 C 0.58244 0.96041 0.84521 0.0
C841 C 0.59325 0.98511 0.84157 0.0
C842 C 0.59601 0.94016 0.86778 0.0
C843 C 0.62096 0.94471 0.88712 0.0
C844 C 0.6322 0.96938 0.88256 0.0
C845 C 0.61828 0.98921 0.85978 0.0
C846 C 0.58348 0.914 0.87171 0.0
C847 C 0.65877 0.97498 0.90262 0.0
H848 H 0.64209 0.89485 0.02458 0.0
H849 H 0.67579 0.87372 0.88564 0.0
H850 H 0.62101 0.95704 0.98959 0.0
H851 H 0.59516 0.93468 0.9818 0.0
H852 H 0.61635 0.93162 0.03407 0.0
H853 H 0.66948 0.8975 0.81357 0.0
H854 H 0.63659 0.90851 0.81024 0.0
H855 H 0.66183 0.93111 0.82179 0.0
H856 H 0.56314 0.95702 0.83148 0.0
H857 H 0.62695 0.00815 0.85713 0.0
H858 H 0.58126 0.90861 0.91105 0.0
H859 H 0.59591 0.89921 0.85425 0.0
H860 H 0.56422 0.91345 0.8539 0.0
H861 H 0.65906 0.97164 0.943 0.0
H862 H 0.66496 0.9951 0.89532 0.0
H863 H 0.67306 0.96169 0.88596 0.0
C864 C 0.36703 0.13359 0.87805 0.0
C865 C 0.3755 0.13749 0.92664 0.0
C866 C 0.38336 0.12309 0.84222 0.0
C867 C 0.40869 0.11595 0.85544 0.0
C868 C 0.41736 0.11968 0.90451 0.0
C869 C 0.40071 0.1307 0.93949 0.0
C870 C 0.37355 0.11985 0.79017 0.0
C871 C 0.44415 0.11179 0.92012 0.0
C872 C 0.44775 0.06797 0.78107 0.0
C873 C 0.46553 0.08425 0.75768 0.0
C874 C 0.42813 0.07813 0.81097 0.0
C875 C 0.42643 0.10509 0.81782 0.0
C876 C 0.4429 0.12165 0.7911 0.0
C877 C 0.46211 0.11105 0.76106 0.0
C878 C 0.41014 0.06 0.83745 0.0
C879 C 0.44146 0.15056 0.79687 0.0
H880 H 0.34759 0.13905 0.8678 0.0
H881 H 0.40722 0.13348 0.97707 0.0
H882 H 0.38543 0.13148 0.7645 0.0
H883 H 0.37532 0.09946 0.77851 0.0
H884 H 0.35311 0.12584 0.78626 0.0
H885 H 0.44786 0.11576 0.95971 0.0
H886 H 0.44695 0.0909 0.91338 0.0
H887 H 0.4587 0.12222 0.89776 0.0
H888 H 0.45008 0.04727 0.77856 0.0
H889 H 0.47551 0.12388 0.74274 0.0
H890 H 0.38985 0.0649 0.82879 0.0
H891 H 0.41256 0.06222 0.87782 0.0
H892 H 0.41355 0.03957 0.82725 0.0
H893 H 0.42132 0.15735 0.79275 0.0
H894 H 0.45371 0.16079 0.76959 0.0
H895 H 0.44797 0.15598 0.83441 0.0
C896 C 0.61659 0.61734 0.12722 0.0
C897 C 0.61192 0.62574 0.17562 0.0
C898 C 0.62709 0.63391 0.09179 0.0
C899 C 0.63351 0.65937 0.10524 0.0
C900 C 0.62915 0.66793 0.15421 0.0
C901 C 0.61803 0.65109 0.1887 0.0
C902 C 0.63131 0.62415 0.04001 0.0
C903 C 0.63622 0.69487 0.17018 0.0
C904 C 0.68117 0.69905 0.03112 0.0
C905 C 0.66478 0.71743 0.00987 0.0
C906 C 0.67124 0.67902 0.06023 0.0
C907 C 0.64429 0.67738 0.06805 0.0
C908 C 0.62758 0.69431 0.04272 0.0
C909 C 0.63801 0.7141 0.01389 0.0
C910 C 0.68988 0.66007 0.08282 0.0
C911 C 0.59867 0.69238 0.04803 0.0
H912 H 0.61175 0.59778 0.11677 0.0
H913 H 0.61463 0.65758 0.2261 0.0
H914 H 0.62214 0.63731 0.01298 0.0
H915 H 0.65224 0.62377 0.03184 0.0
H916 H 0.62344 0.60446 0.03455 0.0
H917 H 0.62277 0.70886 0.15307 0.0
H918 H 0.63532 0.69724 0.21083 0.0
H919 H 0.65591 0.69982 0.15752 0.0
H920 H 0.70186 0.70107 0.02742 0.0
H921 H 0.62508 0.72786 0.99684 0.0
H922 H 0.69337 0.64429 0.05611 0.0
H923 H 0.6825 0.65136 0.11734 0.0
H924 H 0.70875 0.66933 0.09044 0.0
H925 H 0.59225 0.67218 0.04273 0.0
H926 H 0.58836 0.70484 0.02124 0.0
H927 H 0.59297 0.69826 0.08578 0.0
C928 C 0.05129 0.93041 0.28064 0.0
C929 C 0.0334 0.91417 0.25746 0.0
C930 C 0.0712 0.92018 0.30973 0.0
C931 C 0.0731 0.89318 0.31593 0.0
C932 C 0.05653 0.8767 0.28926 0.0
C933 C 0.03701 0.88738 0.26007 0.0
C934 C 0.08925 0.93825 0.3362 0.0
C935 C 0.05816 0.84777 0.29434 0.0
C936 C 0.13272 0.86468 0.37542 0.0
C937 C 0.12431 0.86056 0.42399 0.0
C938 C 0.11629 0.87524 0.3398 0.0
C939 C 0.09094 0.88222 0.35323 0.0
C940 C 0.08235 0.87827 0.40229 0.0
C941 C 0.09908 0.86719 0.43702 0.0
C942 C 0.12602 0.87872 0.28776 0.0
C943 C 0.05554 0.88598 0.41814 0.0
H944 H 0.04883 0.95111 0.2787 0.0
H945 H 0.02353 0.87459 0.24186 0.0
H946 H 0.087 0.93586 0.37658 0.0
H947 H 0.10952 0.93344 0.32717 0.0
H948 H 0.08574 0.95871 0.32636 0.0
H949 H 0.04593 0.83765 0.26689 0.0
H950 H 0.07834 0.84113 0.28997 0.0
H951 H 0.05173 0.84206 0.33178 0.0
H952 H 0.15217 0.85935 0.36505 0.0
H953 H 0.09262 0.86424 0.47459 0.0
H954 H 0.12422 0.89916 0.27645 0.0
H955 H 0.11411 0.8672 0.26195 0.0
H956 H 0.14646 0.87276 0.28362 0.0
H957 H 0.05266 0.9069 0.41176 0.0
H958 H 0.0519 0.88182 0.45768 0.0
H959 H 0.04101 0.8756 0.39569 0.0
C960 C 0.81784 0.29927 0.53097 0.0
C961 C 0.83416 0.28123 0.50839 0.0
C962 C 0.82795 0.31912 0.56034 0.0
C963 C 0.85491 0.32083 0.56745 0.0
C964 C 0.87152 0.30406 0.54153 0.0
C965 C 0.86096 0.2846 0.51204 0.0
C966 C 0.80977 0.33743 0.58589 0.0
C967 C 0.90042 0.30547 0.54762 0.0
C968 C 0.88342 0.38054 0.62658 0.0
C969 C 0.88714 0.37236 0.6754 0.0
C970 C 0.87299 0.36401 0.591 0.0
C971 C 0.8657 0.3388 0.60474 0.0
C972 C 0.86921 0.33045 0.65407 0.0
C973 C 0.8802 0.34727 0.68876 0.0
C974 C 0.86999 0.37347 0.53867 0.0
C975 C 0.86112 0.30382 0.67026 0.0
H976 H 0.79714 0.29699 0.52821 0.0
H977 H 0.87383 0.271 0.49436 0.0
H978 H 0.81233 0.336 0.62637 0.0
H979 H 0.81434 0.35755 0.57536 0.0
H980 H 0.78931 0.33353 0.5766 0.0
H981 H 0.91071 0.29298 0.52085 0.0
H982 H 0.90728 0.32555 0.543 0.0
H983 H 0.9057 0.29925 0.58542 0.0
H984 H 0.88899 0.39989 0.61597 0.0
H985 H 0.88281 0.341 0.72653 0.0
H986 H 0.84961 0.37183 0.52686 0.0
H987 H 0.88157 0.3613 0.51342 0.0
H988 H 0.87621 0.39381 0.53427 0.0
H989 H 0.84023 0.3011 0.6633 0.0
H990 H 0.86492 0.30037 0.71 0.0
H991 H 0.87155 0.28906 0.64843 0.0
C992 C 0.58616 0.83488 0.04278 0.0
C993 C 0.60194 0.81856 0.0708 0.0
C994 C 0.56507 0.84756 0.06445 0.0
C995 C 0.55979 0.84378 0.11517 0.0
C996 C 0.57453 0.82587 0.14252 0.0
C997 C 0.59532 0.8134 0.11994 0.0
C998 C 0.54954 0.86622 0.03386 0.0
C999 C 0.56952 0.82119 0.19664 0.0
C1000 C 0.52996 0.89745 0.19117 0.0
C1001 C 0.50499 0.88804 0.19892 0.0
C1002 C 0.5478 0.88353 0.16279 0.0
C1003 C 0.54032 0.85987 0.14101 0.0
C1004 C 0.51487 0.85074 0.14724 0.0
C1005 C 0.49759 0.86481 0.17645 0.0
C1006 C 0.57487 0.89379 0.1573 0.0
C1007 C 0.50604 0.8259 0.12378 0.0
H1008 H 0.59124 0.83909 0.00488 0.0
H1009 H 0.60733 0.80063 0.14167 0.0
H1010 H 0.52862 0.86363 0.04066 0.0
H1011 H 0.55457 0.88622 0.04451 0.0
H1012 H 0.55334 0.86392 0.99382 0.0
H1013 H 0.58155 0.80534 0.21168 0.0
H1014 H 0.57374 0.839 0.21774 0.0
H1015 H 0.54896 0.8164 0.20285 0.0
H1016 H 0.53576 0.91542 0.2082 0.0
H1017 H 0.47816 0.85761 0.18149 0.0
H1018 H 0.57994 0.89552 0.11774 0.0
H1019 H 0.58872 0.8801 0.17418 0.0
H1020 H 0.57735 0.91291 0.17504 0.0
H1021 H 0.5105 0.82599 0.08379 0.0
H1022 H 0.48504 0.82262 0.12863 0.0
H1023 H 0.51656 0.80944 0.14033 0.0
C1024 C 0.35143 0.28096 0.94298 0.0
C1025 C 0.36057 0.25586 0.95029 0.0
C1026 C 0.36539 0.29867 0.91435 0.0
C1027 C 0.38878 0.29092 0.89183 0.0
C1028 C 0.39761 0.26534 0.89762 0.0
C1029 C 0.38354 0.2482 0.92714 0.0
C1030 C 0.35548 0.32589 0.90936 0.0
C1031 C 0.42213 0.2562 0.87331 0.0
C1032 C 0.41402 0.33612 0.79268 0.0
C1033 C 0.43109 0.35144 0.82002 0.0
C1034 C 0.4009 0.31547 0.8149 0.0
C1035 C 0.40495 0.31017 0.86553 0.0
C1036 C 0.42345 0.32449 0.89227 0.0
C1037 C 0.43637 0.34483 0.86912 0.0
C1038 C 0.38158 0.3004 0.78496 0.0
C1039 C 0.4284 0.31945 0.94628 0.0
H1040 H 0.33366 0.28695 0.96056 0.0
H1041 H 0.39051 0.22867 0.93182 0.0
H1042 H 0.36953 0.33951 0.92581 0.0
H1043 H 0.35344 0.33104 0.86989 0.0
H1044 H 0.33656 0.32861 0.92778 0.0
H1045 H 0.4252 0.23517 0.87807 0.0
H1046 H 0.42169 0.26065 0.83332 0.0
H1047 H 0.43887 0.26653 0.88925 0.0
H1048 H 0.40968 0.34121 0.75483 0.0
H1049 H 0.44968 0.35649 0.89036 0.0
H1050 H 0.36179 0.30593 0.79624 0.0
H1051 H 0.38372 0.27944 0.79172 0.0
H1052 H 0.38362 0.30413 0.74484 0.0
H1053 H 0.41077 0.32389 0.96781 0.0
H1054 H 0.4445 0.33129 0.96094 0.0
H1055 H 0.43299 0.29884 0.9524 0.0
C1056 C 0.9124 0.16341 0.54236 0.0
C1057 C 0.89687 0.18011 0.5701 0.0
C1058 C 0.9333 0.1505 0.56422 0.0
C1059 C 0.93863 0.15439 0.6149 0.0
C1060 C 0.92409 0.17256 0.64202 0.0
C1061 C 0.90351 0.18527 0.61923 0.0
C1062 C 0.9486 0.13155 0.53387 0.0
C1063 C 0.92914 0.17733 0.69609 0.0
C1064 C 0.96845 0.10087 0.69145 0.0
C1065 C 0.99345 0.11026 0.69895 0.0
C1066 C 0.95059 0.11474 0.66301 0.0
C1067 C 0.95808 0.13831 0.64086 0.0
C1068 C 0.98357 0.14739 0.64682 0.0
C1069 C 0.00086 0.13339 0.67615 0.0
C1070 C 0.92347 0.10456 0.65786 0.0
C1071 C 0.99245 0.17211 0.62291 0.0
H1072 H 0.9073 0.15917 0.50448 0.0
H1073 H 0.8917 0.1983 0.64078 0.0
H1074 H 0.96955 0.13395 0.54056 0.0
H1075 H 0.94337 0.11164 0.54483 0.0
H1076 H 0.94479 0.13373 0.4938 0.0
H1077 H 0.91714 0.19323 0.71106 0.0
H1078 H 0.92493 0.15956 0.71735 0.0
H1079 H 0.94971 0.18212 0.70219 0.0
H1080 H 0.96264 0.08297 0.70874 0.0
H1081 H 0.02032 0.14055 0.68098 0.0
H1082 H 0.91833 0.10266 0.61836 0.0
H1083 H 0.9097 0.11836 0.67459 0.0
H1084 H 0.92097 0.08552 0.67593 0.0
H1085 H 0.98796 0.17183 0.58294 0.0
H1086 H 0.01346 0.17536 0.62763 0.0
H1087 H 0.98198 0.18867 0.6392 0.0
C1088 C 0.06318 0.65402 0.36766 0.0
C1089 C 0.06849 0.64675 0.31892 0.0
C1090 C 0.07649 0.6743 0.39018 0.0
C1091 C 0.09544 0.68788 0.36317 0.0
C1092 C 0.09961 0.68188 0.31285 0.0
C1093 C 0.08607 0.66132 0.29127 0.0
C1094 C 0.0714 0.68008 0.44387 0.0
C1095 C 0.11943 0.69613 0.28262 0.0
C1096 C 0.1174 0.75013 0.4229 0.0
C1097 C 0.14001 0.74235 0.44711 0.0
C1098 C 0.10336 0.73294 0.39347 0.0
C1099 C 0.11182 0.70717 0.3889 0.0
C1100 C 0.13492 0.69931 0.41236 0.0
C1101 C 0.14889 0.71708 0.44083 0.0
C1102 C 0.0792 0.74222 0.36805 0.0
C1103 C 0.14443 0.67189 0.40871 0.0
H1104 H 0.04949 0.64293 0.38915 0.0
H1105 H 0.09046 0.65569 0.25372 0.0
H1106 H 0.08888 0.67568 0.46587 0.0
H1107 H 0.06708 0.70082 0.44895 0.0
H1108 H 0.05507 0.66867 0.45884 0.0
H1109 H 0.11747 0.69201 0.24263 0.0
H1110 H 0.11779 0.71722 0.28849 0.0
H1111 H 0.13902 0.69025 0.29444 0.0
H1112 H 0.11067 0.76979 0.42676 0.0
H1113 H 0.1664 0.711 0.45924 0.0
H1114 H 0.06214 0.73248 0.38413 0.0
H1115 H 0.0798 0.73719 0.32833 0.0
H1116 H 0.07654 0.76337 0.37163 0.0
H1117 H 0.13011 0.65869 0.42555 0.0
H1118 H 0.16323 0.6691 0.42754 0.0
H1119 H 0.14655 0.66623 0.36951 0.0
C1120 C 0.90068 0.6313 0.43815 0.0
C1121 C 0.8755 0.63797 0.42479 0.0
C1122 C 0.91754 0.62027 0.40358 0.0
C1123 C 0.90914 0.61641 0.35439 0.0
C1124 C 0.88386 0.62347 0.34062 0.0
C1125 C 0.8673 0.63398 0.37606 0.0
C1126 C 0.94427 0.61249 0.41978 0.0
C1127 C 0.87434 0.62006 0.28842 0.0
C1128 C 0.96311 0.61099 0.26127 0.0
C1129 C 0.96647 0.58417 0.25837 0.0
C1130 C 0.94373 0.62177 0.29068 0.0
C1131 C 0.92705 0.60536 0.3173 0.0
C1132 C 0.92876 0.57836 0.31098 0.0
C1133 C 0.94852 0.56803 0.28165 0.0
C1134 C 0.94231 0.6507 0.29592 0.0
C1135 C 0.91062 0.56038 0.33747 0.0
H1136 H 0.90698 0.63415 0.47584 0.0
H1137 H 0.8479 0.63935 0.36542 0.0
H1138 H 0.9471 0.59156 0.41348 0.0
H1139 H 0.95891 0.6228 0.39747 0.0
H1140 H 0.94779 0.61666 0.45935 0.0
H1141 H 0.854 0.62631 0.2839 0.0
H1142 H 0.88653 0.63136 0.26275 0.0
H1143 H 0.87589 0.59958 0.27728 0.0
H1144 H 0.97666 0.6237 0.24305 0.0
H1145 H 0.9508 0.54732 0.27953 0.0
H1146 H 0.94863 0.65629 0.33349 0.0
H1147 H 0.9222 0.6575 0.29132 0.0
H1148 H 0.95471 0.66078 0.2687 0.0
H1149 H 0.91284 0.5628 0.37785 0.0
H1150 H 0.91408 0.53989 0.32774 0.0
H1151 H 0.89038 0.56524 0.32834 0.0
C1152 C 0.13769 0.21328 0.51107 0.0
C1153 C 0.16447 0.21691 0.50788 0.0
C1154 C 0.12718 0.19393 0.54089 0.0
C1155 C 0.14383 0.17756 0.56764 0.0
C1156 C 0.17081 0.17951 0.56104 0.0
C1157 C 0.18086 0.19924 0.53129 0.0
C1158 C 0.09827 0.19221 0.54638 0.0
C1159 C 0.18905 0.16172 0.58773 0.0
C1160 C 0.11828 0.15132 0.68894 0.0
C1161 C 0.11184 0.12605 0.67588 0.0
C1162 C 0.12914 0.16818 0.65414 0.0
C1163 C 0.13305 0.15965 0.60504 0.0
C1164 C 0.12626 0.13426 0.5916 0.0
C1165 C 0.11592 0.11773 0.62726 0.0
C1166 C 0.13666 0.19503 0.66998 0.0
C1167 C 0.12972 0.1246 0.53951 0.0
H1168 H 0.12479 0.22661 0.49273 0.0
H1169 H 0.20155 0.20174 0.52898 0.0
H1170 H 0.09168 0.17201 0.54209 0.0
H1171 H 0.09269 0.1986 0.58391 0.0
H1172 H 0.08799 0.2044 0.51909 0.0
H1173 H 0.20944 0.16508 0.57715 0.0
H1174 H 0.18699 0.16447 0.62806 0.0
H1175 H 0.18413 0.14137 0.57975 0.0
H1176 H 0.11535 0.15772 0.72655 0.0
H1177 H 0.11072 0.09825 0.61685 0.0
H1178 H 0.1261 0.20948 0.64764 0.0
H1179 H 0.15754 0.1981 0.66341 0.0
H1180 H 0.13256 0.19861 0.70957 0.0
H1181 H 0.11811 0.13647 0.51379 0.0
H1182 H 0.12385 0.10414 0.53534 0.0
H1183 H 0.15015 0.12651 0.52812 0.0
C1184 C 0.59719 0.36705 0.93835 0.0
C1185 C 0.62241 0.36033 0.92536 0.0
C1186 C 0.58047 0.37804 0.90347 0.0
C1187 C 0.58906 0.38181 0.85436 0.0
C1188 C 0.61438 0.37472 0.84099 0.0
C1189 C 0.63079 0.36424 0.87671 0.0
C1190 C 0.55367 0.38585 0.91923 0.0
C1191 C 0.62411 0.37804 0.7889 0.0
C1192 C 0.53556 0.38686 0.76019 0.0
C1193 C 0.53216 0.41366 0.75692 0.0
C1194 C 0.55478 0.3762 0.79013 0.0
C1195 C 0.57128 0.39272 0.81689 0.0
C1196 C 0.56957 0.4197 0.81018 0.0
C1197 C 0.54995 0.42991 0.78036 0.0
C1198 C 0.55621 0.34729 0.79574 0.0
C1199 C 0.58754 0.43779 0.83681 0.0
H1200 H 0.59075 0.36425 0.97597 0.0
H1201 H 0.65022 0.35883 0.86634 0.0
H1202 H 0.55083 0.40675 0.91265 0.0
H1203 H 0.53913 0.37544 0.89685 0.0
H1204 H 0.55001 0.38179 0.95881 0.0
H1205 H 0.64452 0.37196 0.7848 0.0
H1206 H 0.61214 0.36652 0.7632 0.0
H1207 H 0.62242 0.39846 0.77744 0.0
H1208 H 0.52213 0.37407 0.74184 0.0
H1209 H 0.54762 0.45061 0.77798 0.0
H1210 H 0.54975 0.34181 0.83328 0.0
H1211 H 0.57635 0.34051 0.79152 0.0
H1212 H 0.54394 0.3371 0.76847 0.0
H1213 H 0.58479 0.43577 0.87715 0.0
H1214 H 0.58435 0.4582 0.82619 0.0
H1215 H 0.60785 0.43269 0.82878 0.0
C1216 C 0.36008 0.78557 0.01345 0.0
C1217 C 0.33333 0.78194 0.00982 0.0
C1218 C 0.37039 0.80551 0.04204 0.0
C1219 C 0.35358 0.82224 0.06762 0.0
C1220 C 0.32663 0.82036 0.06002 0.0
C1221 C 0.31682 0.8002 0.03111 0.0
C1222 C 0.39929 0.80781 0.04683 0.0
C1223 C 0.30782 0.83913 0.08265 0.0
C1224 C 0.38033 0.84805 0.18824 0.0
C1225 C 0.386 0.87357 0.17569 0.0
C1226 C 0.36915 0.83131 0.15366 0.0
C1227 C 0.36429 0.84016 0.10505 0.0
C1228 C 0.37024 0.86582 0.09211 0.0
C1229 C 0.38079 0.88227 0.12768 0.0
C1230 C 0.36278 0.80412 0.16917 0.0
C1231 C 0.36553 0.87588 0.0407 0.0
H1232 H 0.37309 0.77193 0.99629 0.0
H1233 H 0.29614 0.79797 0.02764 0.0
H1234 H 0.4054 0.82815 0.0421 0.0
H1235 H 0.40529 0.80163 0.08423 0.0
H1236 H 0.40961 0.79575 0.01939 0.0
H1237 H 0.2894 0.8294 0.09201 0.0
H1238 H 0.31545 0.8487 0.11611 0.0
H1239 H 0.30332 0.85429 0.05515 0.0
H1240 H 0.38418 0.84129 0.22532 0.0
H1241 H 0.38528 0.90197 0.1176 0.0
H1242 H 0.37757 0.79079 0.15431 0.0
H1243 H 0.34387 0.79803 0.15418 0.0
H1244 H 0.36237 0.802 0.20991 0.0
H1245 H 0.37464 0.863 0.01311 0.0
H1246 H 0.37315 0.89569 0.03551 0.0
H1247 H 0.34453 0.87609 0.03312 0.0
C1248 C 0.09436 0.3125 0.61914 0.0
C1249 C 0.10154 0.31824 0.57053 0.0
C1250 C 0.07411 0.32561 0.64222 0.0
C1251 C 0.0605 0.34481 0.61594 0.0
C1252 C 0.06646 0.34949 0.56577 0.0
C1253 C 0.08697 0.33613 0.5436 0.0
C1254 C 0.06835 0.31998 0.69573 0.0
C1255 C 0.05223 0.36964 0.53634 0.0
C1256 C 0.99799 0.36613 0.67561 0.0
C1257 C 0.00562 0.38859 0.7005 0.0
C1258 C 0.01535 0.35231 0.64615 0.0
C1259 C 0.04112 0.36085 0.6422 0.0
C1260 C 0.04886 0.38376 0.66647 0.0
C1261 C 0.03093 0.3975 0.69498 0.0
C1262 C 0.00621 0.32834 0.61993 0.0
C1263 C 0.07629 0.39333 0.66349 0.0
H1264 H 0.10548 0.29861 0.64008 0.0
H1265 H 0.09256 0.34086 0.50618 0.0
H1266 H 0.07273 0.33724 0.71834 0.0
H1267 H 0.0476 0.31559 0.70067 0.0
H1268 H 0.07979 0.30353 0.71009 0.0
H1269 H 0.05651 0.36827 0.49631 0.0
H1270 H 0.03113 0.3678 0.54183 0.0
H1271 H 0.05795 0.38909 0.54923 0.0
H1272 H 0.9783 0.35937 0.6789 0.0
H1273 H 0.0369 0.41489 0.71392 0.0
H1274 H 0.01611 0.31121 0.63532 0.0
H1275 H 0.01119 0.32938 0.58021 0.0
H1276 H 0.98508 0.32548 0.62349 0.0
H1277 H 0.08946 0.37884 0.6799 0.0
H1278 H 0.079 0.41192 0.68308 0.0
H1279 H 0.08206 0.39587 0.62444 0.0
C1280 C 0.85087 0.78111 0.44157 0.0
C1281 C 0.85993 0.75597 0.44875 0.0
C1282 C 0.86495 0.79885 0.41321 0.0
C1283 C 0.88838 0.79109 0.39081 0.0
C1284 C 0.89708 0.76546 0.39639 0.0
C1285 C 0.8829 0.7483 0.42565 0.0
C1286 C 0.85517 0.82613 0.40847 0.0
C1287 C 0.92162 0.75629 0.37217 0.0
C1288 C 0.91433 0.83642 0.29247 0.0
C1289 C 0.93147 0.85149 0.32017 0.0
C1290 C 0.90091 0.81585 0.31432 0.0
C1291 C 0.90472 0.81037 0.36496 0.0
C1292 C 0.92325 0.82444 0.39208 0.0
C1293 C 0.93648 0.84471 0.36929 0.0
C1294 C 0.88157 0.80103 0.28397 0.0
C1295 C 0.92797 0.81921 0.4461 0.0
H1296 H 0.83309 0.78711 0.45911 0.0
H1297 H 0.8898 0.72873 0.43021 0.0
H1298 H 0.8692 0.83963 0.42533 0.0
H1299 H 0.85331 0.83145 0.36905 0.0
H1300 H 0.83619 0.82885 0.42666 0.0
H1301 H 0.92455 0.73522 0.3766 0.0
H1302 H 0.92133 0.76093 0.33226 0.0
H1303 H 0.93838 0.76644 0.38847 0.0
H1304 H 0.91019 0.84164 0.25461 0.0
H1305 H 0.94982 0.85617 0.39083 0.0
H1306 H 0.86179 0.80662 0.29519 0.0
H1307 H 0.88357 0.78003 0.29041 0.0
H1308 H 0.88372 0.80493 0.24393 0.0
H1309 H 0.91026 0.82362 0.46742 0.0
H1310 H 0.94404 0.83094 0.46116 0.0
H1311 H 0.93246 0.79857 0.45202 0.0
C1312 C 0.4128 0.66461 0.0424 0.0
C1313 C 0.39699 0.68088 0.07046 0.0
C1314 C 0.43387 0.6519 0.06407 0.0
C1315 C 0.43907 0.65557 0.11485 0.0
C1316 C 0.42432 0.67345 0.14224 0.0
C1317 C 0.40357 0.68597 0.11964 0.0
C1318 C 0.44944 0.63329 0.03343 0.0
C1319 C 0.42925 0.67801 0.19641 0.0
C1320 C 0.46855 0.6016 0.19062 0.0
C1321 C 0.49352 0.61092 0.19871 0.0
C1322 C 0.45083 0.61565 0.16221 0.0
C1323 C 0.45843 0.63935 0.14072 0.0
C1324 C 0.48389 0.64838 0.14728 0.0
C1325 C 0.50105 0.63419 0.17654 0.0
C1326 C 0.42373 0.6055 0.1564 0.0
C1327 C 0.49287 0.67325 0.1241 0.0
H1328 H 0.40775 0.66046 0.00446 0.0
H1329 H 0.39153 0.6987 0.1414 0.0
H1330 H 0.47034 0.63579 0.04049 0.0
H1331 H 0.4443 0.61327 0.04376 0.0
H1332 H 0.44576 0.63576 0.99337 0.0
H1333 H 0.41726 0.69389 0.21147 0.0
H1334 H 0.42491 0.66018 0.21738 0.0
H1335 H 0.44982 0.68271 0.20281 0.0
H1336 H 0.46265 0.5836 0.20742 0.0
H1337 H 0.52048 0.64131 0.18183 0.0
H1338 H 0.41877 0.60385 0.11677 0.0
H1339 H 0.40988 0.61921 0.17321 0.0
H1340 H 0.42114 0.58636 0.17399 0.0
H1341 H 0.4885 0.67327 0.08408 0.0
H1342 H 0.51387 0.67644 0.12914 0.0
H1343 H 0.48237 0.68971 0.14071 0.0
C1344 C 0.56083 0.15412 0.86758 0.0
C1345 C 0.56632 0.14727 0.8187 0.0
C1346 C 0.57378 0.17447 0.89064 0.0
C1347 C 0.59253 0.18852 0.86403 0.0
C1348 C 0.59675 0.18303 0.81352 0.0
C1349 C 0.58358 0.16239 0.79138 0.0
C1350 C 0.56863 0.17972 0.94451 0.0
C1351 C 0.61631 0.19784 0.78369 0.0
C1352 C 0.61447 0.25028 0.9256 0.0
C1353 C 0.63724 0.24236 0.94912 0.0
C1354 C 0.60031 0.2333 0.89594 0.0
C1355 C 0.60884 0.20761 0.8904 0.0
C1356 C 0.63204 0.19959 0.91328 0.0
C1357 C 0.64611 0.21715 0.94203 0.0
C1358 C 0.57602 0.24273 0.8712 0.0
C1359 C 0.64162 0.17224 0.90858 0.0
H1360 H 0.54736 0.14262 0.88877 0.0
H1361 H 0.58807 0.15711 0.7537 0.0
H1362 H 0.58609 0.17509 0.96639 0.0
H1363 H 0.56431 0.20041 0.95035 0.0
H1364 H 0.55229 0.16816 0.95899 0.0
H1365 H 0.61432 0.1941 0.74356 0.0
H1366 H 0.61443 0.21883 0.79036 0.0
H1367 H 0.636 0.19207 0.79514 0.0
H1368 H 0.60774 0.26991 0.9301 0.0
H1369 H 0.66373 0.21096 0.95989 0.0
H1370 H 0.55907 0.23269 0.88701 0.0
H1371 H 0.57654 0.23818 0.83126 0.0
H1372 H 0.57324 0.26381 0.87572 0.0
H1373 H 0.62732 0.15882 0.92488 0.0
H1374 H 0.66042 0.16929 0.9273 0.0
H1375 H 0.64376 0.16701 0.86917 0.0
C1376 C 0.30743 0.22806 0.20287 0.0
C1377 C 0.305 0.24082 0.15774 0.0
C1378 C 0.29591 0.23818 0.24558 0.0
C1379 C 0.2822 0.26177 0.24283 0.0
C1380 C 0.2817 0.27571 0.19806 0.0
C1381 C 0.29281 0.26486 0.15585 0.0
C1382 C 0.29667 0.22262 0.29254 0.0
C1383 C 0.2679 0.30121 0.19383 0.0
C1384 C 0.22481 0.27019 0.32805 0.0
C1385 C 0.2354 0.2849 0.36629 0.0
C1386 C 0.23988 0.26263 0.28763 0.0
C1387 C 0.26601 0.27041 0.28492 0.0
C1388 C 0.2765 0.28619 0.32234 0.0
C1389 C 0.26113 0.29305 0.36284 0.0
C1390 C 0.22802 0.24563 0.24857 0.0
C1391 C 0.30405 0.29542 0.32006 0.0
H1392 H 0.31655 0.20928 0.20399 0.0
H1393 H 0.29094 0.27464 0.12071 0.0
H1394 H 0.30235 0.23492 0.32412 0.0
H1395 H 0.27713 0.215 0.30049 0.0
H1396 H 0.31026 0.20615 0.29003 0.0
H1397 H 0.27258 0.3113 0.15886 0.0
H1398 H 0.24678 0.29798 0.19514 0.0
H1399 H 0.27297 0.31395 0.22517 0.0
H1400 H 0.20503 0.26363 0.3307 0.0
H1401 H 0.26939 0.30454 0.39221 0.0
H1402 H 0.23887 0.22726 0.24604 0.0
H1403 H 0.22926 0.25514 0.21206 0.0
H1404 H 0.20749 0.24115 0.2563 0.0
H1405 H 0.31733 0.27872 0.3221 0.0
H1406 H 0.30878 0.3089 0.35052 0.0
H1407 H 0.30773 0.30524 0.28443 0.0
C1408 C 0.4793 0.47395 0.57576 0.0
C1409 C 0.46442 0.48451 0.61378 0.0
C1410 C 0.48682 0.48898 0.53526 0.0
C1411 C 0.47881 0.51503 0.53225 0.0
C1412 C 0.46283 0.52546 0.56943 0.0
C1413 C 0.45602 0.51014 0.61001 0.0
C1414 C 0.50403 0.47719 0.49645 0.0
C1415 C 0.45335 0.55291 0.56682 0.0
C1416 C 0.52093 0.5569 0.45057 0.0
C1417 C 0.50827 0.5544 0.40535 0.0
C1418 C 0.51087 0.54521 0.49315 0.0
C1419 C 0.48744 0.53122 0.49017 0.0
C1420 C 0.47359 0.5306 0.44531 0.0
C1421 C 0.48438 0.5419 0.40324 0.0
C1422 C 0.52631 0.5461 0.54023 0.0
C1423 C 0.44826 0.5165 0.44084 0.0
H1424 H 0.48605 0.45425 0.57869 0.0
H1425 H 0.44439 0.51837 0.63922 0.0
H1426 H 0.49463 0.47833 0.45982 0.0
H1427 H 0.52234 0.48817 0.49409 0.0
H1428 H 0.50863 0.45671 0.50433 0.0
H1429 H 0.43972 0.55757 0.5971 0.0
H1430 H 0.46993 0.56634 0.56896 0.0
H1431 H 0.44361 0.55642 0.53105 0.0
H1432 H 0.53959 0.56625 0.45186 0.0
H1433 H 0.47467 0.53998 0.36803 0.0
H1434 H 0.53404 0.52663 0.54833 0.0
H1435 H 0.51389 0.55174 0.57168 0.0
H1436 H 0.54271 0.5598 0.53782 0.0
H1437 H 0.45172 0.49543 0.4423 0.0
H1438 H 0.43822 0.52102 0.40573 0.0
H1439 H 0.43535 0.52147 0.47201 0.0
C1440 C 0.19148 0.77069 0.70107 0.0
C1441 C 0.19452 0.75777 0.65623 0.0
C1442 C 0.20265 0.76089 0.74438 0.0
C1443 C 0.21663 0.73743 0.74258 0.0
C1444 C 0.21779 0.72333 0.69803 0.0
C1445 C 0.20705 0.73389 0.65519 0.0
C1446 C 0.20125 0.77666 0.79102 0.0
C1447 C 0.23186 0.69793 0.69479 0.0
C1448 C 0.2733 0.72966 0.82977 0.0
C1449 C 0.26251 0.71493 0.86781 0.0
C1450 C 0.2585 0.73709 0.78891 0.0
C1451 C 0.23245 0.72913 0.78545 0.0
C1452 C 0.22173 0.71343 0.82279 0.0
C1453 C 0.23682 0.70674 0.86381 0.0
C1454 C 0.27059 0.75407 0.75006 0.0
C1455 C 0.19427 0.70399 0.81972 0.0
H1456 H 0.18209 0.78935 0.70155 0.0
H1457 H 0.20939 0.72398 0.6203 0.0
H1458 H 0.19537 0.76446 0.82261 0.0
H1459 H 0.22063 0.78452 0.79955 0.0
H1460 H 0.18753 0.79298 0.7877 0.0
H1461 H 0.22766 0.68766 0.65979 0.0
H1462 H 0.25292 0.70135 0.69693 0.0
H1463 H 0.22653 0.68528 0.72611 0.0
H1464 H 0.29304 0.73626 0.83285 0.0
H1465 H 0.2284 0.69525 0.89303 0.0
H1466 H 0.25951 0.77227 0.74669 0.0
H1467 H 0.26992 0.74435 0.71369 0.0
H1468 H 0.29096 0.75888 0.75859 0.0
H1469 H 0.18086 0.72061 0.82062 0.0
H1470 H 0.18929 0.69076 0.85045 0.0
H1471 H 0.19108 0.69382 0.78429 0.0
C1472 C 0.03981 0.48572 0.11567 0.0
C1473 C 0.03375 0.51208 0.11738 0.0
C1474 C 0.03275 0.47048 0.07515 0.0
C1475 C 0.019 0.48178 0.03572 0.0
C1476 C 0.0135 0.50851 0.03654 0.0
C1477 C 0.02113 0.52338 0.07717 0.0
C1478 C 0.03947 0.44219 0.07506 0.0
C1479 C 0.99877 0.52127 0.9952 0.0
C1480 C 0.01381 0.45307 0.90798 0.0
C1481 C 0.9888 0.443 0.90878 0.0
C1482 C 0.0247 0.46407 0.9503 0.0
C1483 C 0.0098 0.46575 0.99385 0.0
C1484 C 0.985 0.4543 0.9955 0.0
C1485 C 0.97486 0.44278 0.95285 0.0
C1486 C 0.05144 0.47538 0.94737 0.0
C1487 C 0.9684 0.45598 0.04104 0.0
H1488 H 0.04972 0.47686 0.14647 0.0
H1489 H 0.01625 0.54367 0.07829 0.0
H1490 H 0.02158 0.43053 0.07652 0.0
H1491 H 0.04962 0.43705 0.04045 0.0
H1492 H 0.05183 0.43677 0.10682 0.0
H1493 H 0.99621 0.54228 0.00128 0.0
H1494 H 0.00898 0.5184 0.95973 0.0
H1495 H 0.97947 0.51227 0.99158 0.0
H1496 H 0.02443 0.45334 0.87356 0.0
H1497 H 0.95533 0.43537 0.95297 0.0
H1498 H 0.06297 0.46977 0.98009 0.0
H1499 H 0.05017 0.4967 0.94706 0.0
H1500 H 0.0618 0.46911 0.91362 0.0
H1501 H 0.97932 0.44961 0.07397 0.0
H1502 H 0.95066 0.44412 0.03784 0.0
H1503 H 0.96268 0.47632 0.04724 0.0
C1504 C 0.76185 0.79175 0.86359 0.0
C1505 C 0.73599 0.78404 0.86734 0.0
C1506 C 0.77689 0.78486 0.82265 0.0
C1507 C 0.76596 0.76946 0.78509 0.0
C1508 C 0.73973 0.76205 0.78822 0.0
C1509 C 0.72499 0.76966 0.82905 0.0
C1510 C 0.80456 0.7937 0.81995 0.0
C1511 C 0.7274 0.74543 0.74909 0.0
C1512 C 0.79205 0.76435 0.65532 0.0
C1513 C 0.80416 0.74025 0.65656 0.0
C1514 C 0.78118 0.77503 0.69794 0.0
C1515 C 0.78177 0.76084 0.74243 0.0
C1516 C 0.79527 0.73711 0.74445 0.0
C1517 C 0.8066 0.72719 0.70139 0.0
C1518 C 0.76764 0.8007 0.6945 0.0
C1519 C 0.79603 0.72125 0.79103 0.0
H1520 H 0.77043 0.80298 0.89299 0.0
H1521 H 0.70512 0.76344 0.83191 0.0
H1522 H 0.81761 0.7768 0.82111 0.0
H1523 H 0.80812 0.80378 0.78454 0.0
H1524 H 0.80969 0.80685 0.85071 0.0
H1525 H 0.70687 0.74113 0.75726 0.0
H1526 H 0.72849 0.75516 0.71277 0.0
H1527 H 0.73802 0.72696 0.74585 0.0
H1528 H 0.79016 0.77436 0.62043 0.0
H1529 H 0.81564 0.70837 0.702 0.0
H1530 H 0.77309 0.81323 0.72593 0.0
H1531 H 0.7465 0.79771 0.69631 0.0
H1532 H 0.7722 0.81091 0.65958 0.0
H1533 H 0.80212 0.73325 0.82275 0.0
H1534 H 0.80932 0.70456 0.78785 0.0
H1535 H 0.77642 0.71391 0.79925 0.0
C1536 C 0.69088 0.27024 0.20173 0.0
C1537 C 0.69331 0.25739 0.1567 0.0
C1538 C 0.7025 0.26029 0.24448 0.0
C1539 C 0.71634 0.23676 0.24188 0.0
C1540 C 0.71688 0.22274 0.19722 0.0
C1541 C 0.70566 0.23342 0.15496 0.0
C1542 C 0.70169 0.27593 0.29132 0.0
C1543 C 0.73081 0.1973 0.19315 0.0
C1544 C 0.77365 0.22854 0.3274 0.0
C1545 C 0.76305 0.21382 0.36562 0.0
C1546 C 0.75861 0.23606 0.2869 0.0
C1547 C 0.7325 0.22822 0.28409 0.0
C1548 C 0.722 0.21244 0.32151 0.0
C1549 C 0.73733 0.20563 0.36208 0.0
C1550 C 0.77048 0.25306 0.24784 0.0
C1551 C 0.69447 0.20315 0.31914 0.0
H1552 H 0.68164 0.28897 0.20273 0.0
H1553 H 0.70754 0.22357 0.1199 0.0
H1554 H 0.69602 0.26367 0.32298 0.0
H1555 H 0.72121 0.2836 0.29925 0.0
H1556 H 0.68807 0.29237 0.28867 0.0
H1557 H 0.72623 0.18715 0.15819 0.0
H1558 H 0.75191 0.20063 0.19457 0.0
H1559 H 0.72575 0.18456 0.22451 0.0
H1560 H 0.79341 0.23513 0.33013 0.0
H1561 H 0.72906 0.19413 0.39143 0.0
H1562 H 0.75958 0.27139 0.2452 0.0
H1563 H 0.76931 0.24351 0.21136 0.0
H1564 H 0.79099 0.25759 0.25565 0.0
H1565 H 0.68115 0.21983 0.32092 0.0
H1566 H 0.68971 0.18973 0.3497 0.0
H1567 H 0.69088 0.19323 0.28358 0.0
C1568 C 0.98509 0.04153 0.90419 0.0
C1569 C 0.00886 0.05426 0.90598 0.0
C1570 C 0.97442 0.03041 0.94655 0.0
C1571 C 0.98828 0.03144 0.99138 0.0
C1572 C 0.01158 0.04565 0.99398 0.0
C1573 C 0.02151 0.05717 0.95112 0.0
C1574 C 0.9492 0.01608 0.94247 0.0
C1575 C 0.02705 0.04696 0.041 0.0
C1576 C 0.9571 0.01054 0.11157 0.0
C1577 C 0.96564 0.98497 0.11557 0.0
C1578 C 0.9638 0.02579 0.07084 0.0
C1579 C 0.97986 0.01537 0.03377 0.0
C1580 C 0.9881 0.9894 0.03709 0.0
C1581 C 0.98066 0.97443 0.07771 0.0
C1582 C 0.95409 0.05315 0.06788 0.0
C1583 C 0.00542 0.97763 -0.00155 0.0
H1584 H 0.97539 0.03931 0.86905 0.0
H1585 H 0.04009 0.06672 0.95217 0.0
H1586 H 0.95285 0.99505 0.94433 0.0
H1587 H 0.93628 0.02111 0.97358 0.0
H1588 H 0.9391 0.02032 0.9073 0.0
H1589 H 0.04329 0.06083 0.03827 0.0
H1590 H 0.0146 0.0526 0.07239 0.0
H1591 H 0.03502 0.02762 0.04941 0.0
H1592 H 0.94538 0.01875 0.14067 0.0
H1593 H 0.98752 0.95478 0.08082 0.0
H1594 H 0.94421 0.0564 0.03217 0.0
H1595 H 0.97055 0.06674 0.06959 0.0
H1596 H 0.94051 0.05784 0.09823 0.0
H1597 H 0.99595 0.97844 0.96184 0.0
H1598 H 0.01029 0.95725 0.00671 0.0
H1599 H 0.02358 0.98883 0.99577 0.0
C1600 C 0.51874 0.02367 0.5765 0.0
C1601 C 0.53342 0.0132 0.61489 0.0
C1602 C 0.51136 0.00853 0.53607 0.0
C1603 C 0.51931 0.98245 0.53353 0.0
C1604 C 0.53508 0.97209 0.57111 0.0
C1605 C 0.54175 0.98752 0.61159 0.0
C1606 C 0.49439 0.02025 0.49681 0.0
C1607 C 0.54447 0.94459 0.56902 0.0
C1608 C 0.4773 0.9408 0.45139 0.0
C1609 C 0.49014 0.94327 0.40634 0.0
C1610 C 0.48731 0.95236 0.49413 0.0
C1611 C 0.51085 0.96617 0.49149 0.0
C1612 C 0.52488 0.96669 0.44683 0.0
C1613 C 0.51416 0.95553 0.40458 0.0
C1614 C 0.47166 0.95158 0.54099 0.0
C1615 C 0.55034 0.9806 0.44273 0.0
H1616 H 0.51206 0.04341 0.57904 0.0
H1617 H 0.55323 0.97936 0.64108 0.0
H1618 H 0.50399 0.019 0.46038 0.0
H1619 H 0.47607 0.0093 0.4942 0.0
H1620 H 0.48979 0.04076 0.5044 0.0
H1621 H 0.55792 0.93998 0.5996 0.0
H1622 H 0.52783 0.93123 0.571 0.0
H1623 H 0.55438 0.94093 0.53348 0.0
H1624 H 0.45854 0.93163 0.45239 0.0
H1625 H 0.52398 0.95743 0.36949 0.0
H1626 H 0.46389 0.97107 0.54876 0.0
H1627 H 0.48394 0.94602 0.57269 0.0
H1628 H 0.45528 0.93788 0.53843 0.0
H1629 H 0.547 0.0017 0.44384 0.0
H1630 H 0.56054 0.9759 0.40788 0.0
H1631 H 0.56303 0.97566 0.47422 0.0
C1632 C 0.20465 0.26155 0.72127 0.0
C1633 C 0.20487 0.25192 0.6731 0.0
C1634 C 0.21304 0.24614 0.76076 0.0
C1635 C 0.22223 0.22088 0.75139 0.0
C1636 C 0.22029 0.21039 0.70361 0.0
C1637 C 0.21109 0.22585 0.66528 0.0
C1638 C 0.2141 0.25757 0.8118 0.0
C1639 C 0.22956 0.18345 0.69221 0.0
C1640 C 0.27916 0.20233 0.83013 0.0
C1641 C 0.26768 0.18676 0.86602 0.0
C1642 C 0.26464 0.21271 0.79165 0.0
C1643 C 0.23793 0.20736 0.78905 0.0
C1644 C 0.22668 0.1898 0.82266 0.0
C1645 C 0.24173 0.17978 0.86127 0.0
C1646 C 0.27768 0.23042 0.75514 0.0
C1647 C 0.19849 0.18293 0.82009 0.0
H1648 H 0.1995 0.28149 0.72776 0.0
H1649 H 0.21039 0.21789 0.62837 0.0
H1650 H 0.20651 0.24366 0.83926 0.0
H1651 H 0.23444 0.26172 0.82164 0.0
H1652 H 0.20291 0.27576 0.81442 0.0
H1653 H 0.23138 0.18006 0.65201 0.0
H1654 H 0.24861 0.17966 0.70924 0.0
H1655 H 0.21573 0.16929 0.70765 0.0
H1656 H 0.29926 0.20768 0.83398 0.0
H1657 H 0.23274 0.16814 0.88963 0.0
H1658 H 0.26962 0.25013 0.75854 0.0
H1659 H 0.27397 0.22372 0.71696 0.0
H1660 H 0.29884 0.23146 0.76089 0.0
H1661 H 0.19137 0.18244 0.78157 0.0
H1662 H 0.18722 0.1977 0.84029 0.0
H1663 H 0.19478 0.1639 0.83728 0.0
C1664 C 0.52269 0.46067 0.91408 0.0
C1665 C 0.49644 0.45512 0.92169 0.0
C1666 C 0.53819 0.46988 0.95233 0.0
C1667 C 0.52755 0.47252 -0.00012 0.0
C1668 C 0.50202 0.46404 0.00913 0.0
C1669 C 0.48659 0.45562 0.96969 0.0
C1670 C 0.56541 0.47836 0.94104 0.0
C1671 C 0.4904 0.46584 0.05995 0.0
C1672 C 0.56888 0.49163 0.10971 0.0
C1673 C 0.56256 0.51777 0.11382 0.0
C1674 C 0.55855 0.47661 0.07136 0.0
C1675 C 0.54137 0.4881 0.03732 0.0
C1676 C 0.53673 0.51495 0.03925 0.0
C1677 C 0.54738 0.52943 0.07754 0.0
C1678 C 0.56466 0.44824 0.06959 0.0
C1679 C 0.5195 0.52822 0.00223 0.0
H1680 H 0.5308 0.4594 0.87735 0.0
H1681 H 0.4665 0.451 0.97601 0.0
H1682 H 0.56972 0.49735 0.95789 0.0
H1683 H 0.57914 0.46418 0.9567 0.0
H1684 H 0.56892 0.47997 0.90084 0.0
H1685 H 0.4719 0.45518 0.06262 0.0
H1686 H 0.50399 0.4581 0.08784 0.0
H1687 H 0.48678 0.48635 0.06912 0.0
H1688 H 0.58021 0.48251 0.13839 0.0
H1689 H 0.54252 0.54967 0.08094 0.0
H1690 H 0.56481 0.44076 0.03132 0.0
H1691 H 0.5497 0.43756 0.09043 0.0
H1692 H 0.58367 0.44419 0.08662 0.0
H1693 H 0.52619 0.52404 0.96422 0.0
H1694 H 0.51905 0.54944 0.00741 0.0
H1695 H 0.49955 0.52075 0.00563 0.0
C1696 C 0.22222 0.80078 0.32607 0.0
C1697 C 0.23437 0.81225 0.36645 0.0
C1698 C 0.23666 0.78956 0.2882 0.0
C1699 C 0.26389 0.78927 0.29163 0.0
C1700 C 0.27626 0.80275 0.33031 0.0
C1701 C 0.26127 0.81412 0.36752 0.0
C1702 C 0.22273 0.7767 0.246 0.0
C1703 C 0.30519 0.80385 0.33457 0.0
C1704 C 0.28935 0.73104 0.2236 0.0
C1705 C 0.2946 0.74184 0.17744 0.0
C1706 C 0.28151 0.74676 0.26304 0.0
C1707 C 0.27884 0.77368 0.25574 0.0
C1708 C 0.28694 0.78483 0.21092 0.0
C1709 C 0.29463 0.76877 0.17226 0.0
C1710 C 0.27426 0.73439 0.31139 0.0
C1711 C 0.28573 0.81346 0.2017 0.0
H1712 H 0.20138 0.7992 0.32569 0.0
H1713 H 0.27065 0.82255 0.39937 0.0
H1714 H 0.23071 0.78342 0.2103 0.0
H1715 H 0.22563 0.75555 0.24796 0.0
H1716 H 0.2017 0.78068 0.24655 0.0
H1717 H 0.31178 0.78806 0.3591 0.0
H1718 H 0.31497 0.80169 0.29847 0.0
H1719 H 0.31128 0.82241 0.35109 0.0
H1720 H 0.28958 0.71029 0.22796 0.0
H1721 H 0.29933 0.77734 0.13692 0.0
H1722 H 0.253 0.7347 0.31567 0.0
H1723 H 0.28265 0.74539 0.34258 0.0
H1724 H 0.2809 0.71409 0.31365 0.0
H1725 H 0.26915 0.8177 0.17718 0.0
H1726 H 0.30349 0.81984 0.1826 0.0
H1727 H 0.28369 0.82499 0.23583 0.0
C1728 C 0.97597 0.53901 0.41714 0.0
C1729 C 0.00227 0.54435 0.42453 0.0
C1730 C 0.96053 0.52977 0.45545 0.0
C1731 C 0.97131 0.52692 0.50285 0.0
C1732 C 0.99688 0.53532 0.51195 0.0
C1733 C 0.01224 0.54375 0.47243 0.0
C1734 C 0.93323 0.52147 0.44432 0.0
C1735 C 0.00862 0.53338 0.56264 0.0
C1736 C 0.93012 0.50727 0.6125 0.0
C1737 C 0.93652 0.48114 0.61626 0.0
C1738 C 0.94041 0.52248 0.57439 0.0
C1739 C 0.95762 0.51116 0.54018 0.0
C1740 C 0.96237 0.48433 0.54178 0.0
C1741 C 0.95181 0.46968 0.57992 0.0
C1742 C 0.93425 0.55084 0.57302 0.0
C1743 C 0.97958 0.47125 0.50449 0.0
H1744 H 0.96779 0.54039 0.38047 0.0
H1745 H 0.03238 0.54822 0.47857 0.0
H1746 H 0.92865 0.5027 0.46175 0.0
H1747 H 0.91965 0.53597 0.45935 0.0
H1748 H 0.92979 0.51956 0.40415 0.0
H1749 H 0.02707 0.54413 0.5653 0.0
H1750 H 0.99506 0.54093 0.59078 0.0
H1751 H 0.01238 0.51285 0.57147 0.0
H1752 H 0.91875 0.51623 0.64128 0.0
H1753 H 0.95675 0.44944 0.5831 0.0
H1754 H 0.93391 0.55843 0.53484 0.0
H1755 H 0.94931 0.56149 0.59368 0.0
H1756 H 0.91532 0.55482 0.59042 0.0
H1757 H 0.98005 0.45001 0.50933 0.0
H1758 H -0.00047 0.47871 0.50796 0.0
H1759 H 0.97285 0.47559 0.46657 0.0
C1760 C 0.70519 0.72974 0.17144 0.0
C1761 C 0.70454 0.75665 0.17695 0.0
C1762 C 0.71331 0.71374 0.20986 0.0
C1763 C 0.7209 0.7249 0.25501 0.0
C1764 C 0.71748 0.75172 0.26265 0.0
C1765 C 0.7094 0.7674 0.22331 0.0
C1766 C 0.71534 0.68521 0.19999 0.0
C1767 C 0.72418 0.76407 0.31129 0.0
C1768 C 0.73882 0.68405 0.36609 0.0
C1769 C 0.76568 0.68661 0.36571 0.0
C1770 C 0.72378 0.69538 0.32888 0.0
C1771 C 0.73605 0.70955 0.29098 0.0
C1772 C 0.76329 0.71 0.2882 0.0
C1773 C 0.77777 0.69879 0.326 0.0
C1774 C 0.69486 0.69349 0.33221 0.0
C1775 C 0.77715 0.72353 0.24667 0.0
H1776 H 0.70074 0.72117 0.13599 0.0
H1777 H 0.70863 0.78812 0.22796 0.0
H1778 H 0.73048 0.68177 0.17185 0.0
H1779 H 0.71987 0.67359 0.23312 0.0
H1780 H 0.69685 0.67815 0.18467 0.0
H1781 H 0.7169 0.78415 0.3138 0.0
H1782 H 0.71603 0.75267 0.3422 0.0
H1783 H 0.74542 0.7644 0.31585 0.0
H1784 H 0.72947 0.67506 0.39741 0.0
H1785 H 0.79857 0.70086 0.32612 0.0
H1786 H 0.68907 0.67524 0.35033 0.0
H1787 H 0.68554 0.69435 0.29547 0.0
H1788 H 0.68752 0.70978 0.35465 0.0
H1789 H 0.76957 0.71685 0.21061 0.0
H1790 H 0.79827 0.72011 0.24762 0.0
H1791 H 0.77367 0.74458 0.24907 0.0
C1792 C 0.78894 0.27065 0.66671 0.0
C1793 C 0.79351 0.24419 0.67381 0.0
C1794 C 0.77971 0.28615 0.70493 0.0
C1795 C 0.77607 0.27524 0.75202 0.0
C1796 C 0.7836 0.24939 0.76094 0.0
C1797 C 0.79205 0.234 0.72147 0.0
C1798 C 0.77242 0.31374 0.69395 0.0
C1799 C 0.78081 0.23748 0.81134 0.0
C1800 C 0.75707 0.31656 0.8619 0.0
C1801 C 0.73073 0.31092 0.86509 0.0
C1802 C 0.77216 0.306 0.82388 0.0
C1803 C 0.76051 0.28929 0.78919 0.0
C1804 C 0.73352 0.28541 0.79013 0.0
C1805 C 0.71899 0.29622 0.82821 0.0
C1806 C 0.8007 0.31133 0.82316 0.0
C1807 C 0.72011 0.26886 0.7522 0.0
H1808 H 0.79099 0.27898 0.63027 0.0
H1809 H 0.7959 0.21372 0.7274 0.0
H1810 H 0.75405 0.3192 0.71202 0.0
H1811 H 0.78768 0.3267 0.70825 0.0
H1812 H 0.77025 0.31717 0.65383 0.0
H1813 H 0.79089 0.21866 0.814 0.0
H1814 H 0.78858 0.25063 0.83995 0.0
H1815 H 0.76008 0.2344 0.81946 0.0
H1816 H 0.76623 0.32749 0.89106 0.0
H1817 H 0.69859 0.29187 0.83094 0.0
H1818 H 0.80506 0.33021 0.84037 0.0
H1819 H 0.80859 0.3113 0.7852 0.0
H1820 H 0.81076 0.29608 0.84439 0.0
H1821 H 0.72495 0.27562 0.71452 0.0
H1822 H 0.69882 0.26911 0.7565 0.0
H1823 H 0.72685 0.24865 0.75549 0.0
C1824 C 0.98721 0.95555 0.47123 0.0
C1825 C 0.99711 0.95469 0.42329 0.0
C1826 C 0.00271 0.96401 0.51054 0.0
C1827 C 0.02833 0.97215 0.50118 0.0
C1828 C 0.039 0.96909 0.45375 0.0
C1829 C 0.02343 0.95983 0.41566 0.0
C1830 C 0.99105 0.96625 0.56127 0.0
C1831 C 0.06634 0.97714 0.44232 0.0
C1832 C 0.0484 0.02933 0.57783 0.0
C1833 C 0.06341 0.01774 0.61444 0.0
C1834 C 0.03779 0.01474 0.53967 0.0
C1835 C 0.04224 0.98785 0.5383 0.0
C1836 C 0.05928 0.97641 0.57265 0.0
C1837 C 0.0696 0.99155 0.61082 0.0
C1838 C 0.02077 0.02794 0.5022 0.0
C1839 C 0.06519 0.948 0.5714 0.0
H1840 H 0.96705 0.95125 0.47755 0.0
H1841 H 0.03154 0.95825 0.37896 0.0
H1842 H 0.00455 0.95861 0.58942 0.0
H1843 H 0.98756 0.98685 0.56989 0.0
H1844 H 0.97247 0.95574 0.56414 0.0
H1845 H 0.06965 0.9791 0.40212 0.0
H1846 H 0.07119 0.99583 0.45981 0.0
H1847 H 0.07983 0.96247 0.45707 0.0
H1848 H 0.04364 0.04961 0.58089 0.0
H1849 H 0.08077 0.9825 0.63978 0.0
H1850 H 0.00074 0.02071 0.50564 0.0
H1851 H 0.0275 0.02344 0.46435 0.0
H1852 H 0.02054 0.0492 0.50687 0.0
H1853 H 0.04989 0.93747 0.59163 0.0
H1854 H 0.08396 0.94383 0.58923 0.0
H1855 H 0.06571 0.94045 0.53319 0.0
C1856 C 0.47557 0.03828 0.91517 0.0
C1857 C 0.50181 0.0439 0.92256 0.0
C1858 C 0.46013 0.02919 0.95362 0.0
C1859 C 0.47084 0.02675 0.00115 0.0
C1860 C 0.49635 0.03534 0.01016 0.0
C1861 C 0.51172 0.04363 0.97052 0.0
C1862 C 0.43292 0.02059 0.94256 0.0
C1863 C 0.50803 0.03377 0.06096 0.0
C1864 C 0.42963 0.00755 0.11114 0.0
C1865 C 0.43605 0.98143 0.11529 0.0
C1866 C 0.4399 0.02259 0.07275 0.0
C1867 C 0.45716 0.01116 0.03877 0.0
C1868 C 0.46192 0.98434 0.04078 0.0
C1869 C 0.4513 0.96983 0.07906 0.0
C1870 C 0.43362 0.05092 0.07084 0.0
C1871 C 0.47922 0.97112 0.0038 0.0
H1872 H 0.46741 0.03938 0.87845 0.0
H1873 H 0.53181 0.04831 0.97668 0.0
H1874 H 0.42861 0.00173 0.95991 0.0
H1875 H 0.41917 0.03488 0.95782 0.0
H1876 H 0.42943 0.01868 0.90241 0.0
H1877 H 0.52646 0.04456 0.06343 0.0
H1878 H 0.49442 0.04151 0.08881 0.0
H1879 H 0.51179 0.01331 0.07034 0.0
H1880 H 0.41826 0.01662 0.13978 0.0
H1881 H 0.45623 0.9496 0.08248 0.0
H1882 H 0.4146 0.05488 0.08788 0.0
H1883 H 0.43341 0.05835 0.03252 0.0
H1884 H 0.44853 0.06172 0.09158 0.0
H1885 H 0.47245 0.97516 0.96579 0.0
H1886 H 0.47983 0.94991 0.00915 0.0
H1887 H 0.49912 0.97874 0.00706 0.0
loop_
_geom_bond_atom_site_label_1
_geom_bond_atom_site_label_2
_geom_bond_distance
_geom_bond_site_symmetry_2
_ccdc_geom_bond_type
Sc0 O3 2.025 . S
Sc0 O10 2.105 . S
Sc0 O13 2.105 . S
Sc0 O16 2.105 . S
Sc0 O19 2.105 1_554 S
Sc1 O3 2.025 1_556 S
Sc1 O11 2.105 . S
Sc1 O15 2.105 1_556 S
Sc1 O17 2.105 . S
Sc1 O21 2.105 . S
Sc2 O3 2.025 . S
Sc2 O12 2.105 . S
Sc2 O14 2.105 . S
Sc2 O18 2.105 . S
Sc2 O20 2.105 . S
O3 Sc0 2.025 . S
O3 Sc1 2.025 1_554 S
O3 Sc2 2.025 . S
C4 O10 1.268 . S
C4 O20 1.268 . S
C5 O11 1.268 . S
C5 O19 1.268 . S
C6 O12 1.268 1_556 S
C6 O21 1.268 . S
C7 O13 1.268 . S
C7 O17 1.268 1_554 S
C8 O14 1.268 . S
C8 O16 1.268 . S
C9 O15 1.268 . S
C9 O18 1.268 . S
O10 Sc0 2.105 . S
O10 C4 1.268 . S
O11 Sc1 2.105 . S
O11 C5 1.268 . S
O12 Sc2 2.105 . S
O12 C6 1.268 1_554 S
O13 Sc0 2.105 . S
O13 C7 1.268 . S
O14 Sc2 2.105 . S
O14 C8 1.268 . S
O15 Sc1 2.105 1_554 S
O15 C9 1.268 . S
O16 Sc0 2.105 . S
O16 C8 1.268 . S
O17 Sc1 2.105 . S
O17 C7 1.268 1_556 S
O18 Sc2 2.105 . S
O18 C9 1.268 . S
O19 Sc0 2.105 1_556 S
O19 C5 1.268 . S
O20 Sc2 2.105 . S
O20 C4 1.268 . S
O21 Sc1 2.105 . S
O21 C6 1.268 . S
Sc22 O25 2.025 . S
Sc22 O32 2.105 . S
Sc22 O35 2.105 . S
Sc22 O38 2.105 . S
Sc22 O41 2.105 . S
Sc23 O25 2.025 . S
Sc23 O33 2.105 . S
Sc23 O37 2.105 . S
Sc23 O39 2.105 . S
Sc23 O43 2.105 . S
Sc24 O25 2.025 . S
Sc24 O34 2.105 . S
Sc24 O36 2.105 . S
Sc24 O40 2.105 . S
Sc24 O42 2.105 . S
O25 Sc22 2.025 . S
O25 Sc23 2.025 . S
O25 Sc24 2.025 . S
C26 O32 1.268 . S
C26 O42 1.268 . S
C27 O33 1.268 . S
C27 O41 1.268 . S
C28 O34 1.268 . S
C28 O43 1.268 . S
C29 O35 1.268 . S
C29 O39 1.268 . S
C30 O36 1.268 . S
C30 O38 1.268 . S
C31 O37 1.268 . S
C31 O40 1.268 . S
O32 Sc22 2.105 . S
O32 C26 1.268 . S
O33 Sc23 2.105 . S
O33 C27 1.268 . S
O34 Sc24 2.105 . S
O34 C28 1.268 . S
O35 Sc22 2.105 . S
O35 C29 1.268 . S
O36 Sc24 2.105 . S
O36 C30 1.268 . S
O37 Sc23 2.105 . S
O37 C31 1.268 . S
O38 Sc22 2.105 . S
O38 C30 1.268 . S
O39 Sc23 2.105 . S
O39 C29 1.268 . S
O40 Sc24 2.105 . S
O40 C31 1.268 . S
O41 Sc22 2.105 . S
O41 C27 1.268 . S
O42 Sc24 2.105 . S
O42 C26 1.268 . S
O43 Sc23 2.105 . S
O43 C28 1.268 . S
Sc44 O47 2.025 . S
Sc44 O54 2.105 . S
Sc44 O57 2.105 . S
Sc44 O60 2.105 . S
Sc44 O63 2.105 . S
Sc45 O47 2.025 . S
Sc45 O55 2.105 . S
Sc45 O59 2.105 . S
Sc45 O61 2.105 . S
Sc45 O65 2.105 . S
Sc46 O47 2.025 . S
Sc46 O56 2.105 . S
Sc46 O58 2.105 . S
Sc46 O62 2.105 . S
Sc46 O64 2.105 . S
O47 Sc44 2.025 . S
O47 Sc45 2.025 . S
O47 Sc46 2.025 . S
C48 O54 1.268 . S
C48 O64 1.268 . S
C49 O55 1.268 . S
C49 O63 1.268 . S
C50 O56 1.268 . S
C50 O65 1.268 . S
C51 O57 1.268 . S
C51 O61 1.268 . S
C52 O58 1.268 . S
C52 O60 1.268 . S
C53 O59 1.268 . S
C53 O62 1.268 . S
O54 Sc44 2.105 . S
O54 C48 1.268 . S
O55 Sc45 2.105 . S
O55 C49 1.268 . S
O56 Sc46 2.105 . S
O56 C50 1.268 . S
O57 Sc44 2.105 . S
O57 C51 1.268 . S
O58 Sc46 2.105 . S
O58 C52 1.268 . S
O59 Sc45 2.105 . S
O59 C53 1.268 . S
O60 Sc44 2.105 . S
O60 C52 1.268 . S
O61 Sc45 2.105 . S
O61 C51 1.268 . S
O62 Sc46 2.105 . S
O62 C53 1.268 . S
O63 Sc44 2.105 . S
O63 C49 1.268 . S
O64 Sc46 2.105 . S
O64 C48 1.268 . S
O65 Sc45 2.105 . S
O65 C50 1.268 . S
Sc66 O69 2.025 . S
Sc66 O76 2.087 1_655 S
Sc66 O79 2.105 . S
Sc66 O82 2.105 . S
Sc66 O85 2.105 . S
Sc67 O69 2.025 . S
Sc67 O77 2.105 . S
Sc67 O81 2.105 . S
Sc67 O83 2.105 . S
Sc67 O87 2.105 . S
Sc68 O69 2.025 . S
Sc68 O78 2.105 . S
Sc68 O80 2.105 . S
Sc68 O84 2.105 . S
Sc68 O86 2.105 . S
O69 Sc66 2.025 . S
O69 Sc67 2.025 . S
O69 Sc68 2.025 . S
C70 O76 1.270 . S
C70 O86 1.268 1_455 S
C71 O77 1.268 . S
C71 O85 1.268 . S
C72 O78 1.268 . S
C72 O87 1.268 . S
C73 O79 1.268 . S
C73 O83 1.268 . S
C74 O80 1.268 . S
C74 O82 1.268 . S
C75 O81 1.268 . S
C75 O84 1.268 . S
O76 Sc66 2.087 1_455 S
O76 C70 1.270 . S
O77 Sc67 2.105 . S
O77 C71 1.268 . S
O78 Sc68 2.105 . S
O78 C72 1.268 . S
O79 Sc66 2.105 . S
O79 C73 1.268 . S
O80 Sc68 2.105 . S
O80 C74 1.268 . S
O81 Sc67 2.105 . S
O81 C75 1.268 . S
O82 Sc66 2.105 . S
O82 C74 1.268 . S
O83 Sc67 2.105 . S
O83 C73 1.268 . S
O84 Sc68 2.105 . S
O84 C75 1.268 . S
O85 Sc66 2.105 . S
O85 C71 1.268 . S
O86 Sc68 2.105 . S
O86 C70 1.268 1_655 S
O87 Sc67 2.105 . S
O87 C72 1.268 . S
Sc88 O91 2.025 . S
Sc88 O98 2.105 1_554 S
Sc88 O101 2.105 . S
Sc88 O104 2.105 . S
Sc88 O107 2.105 . S
Sc89 O91 2.025 . S
Sc89 O99 2.105 . S
Sc89 O103 2.105 . S
Sc89 O105 2.105 . S
Sc89 O109 2.105 . S
Sc90 O91 2.025 1_556 S
Sc90 O100 2.105 . S
Sc90 O102 2.105 1_556 S
Sc90 O106 2.105 1_556 S
Sc90 O108 2.105 . S
O91 Sc88 2.025 . S
O91 Sc89 2.025 . S
O91 Sc90 2.025 1_554 S
C92 O98 1.268 . S
C92 O108 1.268 . S
C93 O99 1.268 . S
C93 O107 1.268 . S
C94 O100 1.268 . S
C94 O109 1.268 1_556 S
C95 O101 1.268 . S
C95 O105 1.268 . S
C96 O102 1.268 . S
C96 O104 1.268 . S
C97 O103 1.268 . S
C97 O106 1.268 . S
O98 Sc88 2.105 1_556 S
O98 C92 1.268 . S
O99 Sc89 2.105 . S
O99 C93 1.268 . S
O100 Sc90 2.105 . S
O100 C94 1.268 . S
O101 Sc88 2.105 . S
O101 C95 1.268 . S
O102 Sc90 2.105 1_554 S
O102 C96 1.268 . S
O103 Sc89 2.105 . S
O103 C97 1.268 . S
O104 Sc88 2.105 . S
O104 C96 1.268 . S
O105 Sc89 2.105 . S
O105 C95 1.268 . S
O106 Sc90 2.105 1_554 S
O106 C97 1.268 . S
O107 Sc88 2.105 . S
O107 C93 1.268 . S
O108 Sc90 2.105 . S
O108 C92 1.268 . S
O109 Sc89 2.105 . S
O109 C94 1.268 1_554 S
Sc110 O113 2.025 . S
Sc110 O120 2.105 . S
Sc110 O123 2.105 . S
Sc110 O126 2.105 . S
Sc110 O129 2.105 . S
Sc111 O113 2.025 . S
Sc111 O121 2.105 . S
Sc111 O125 2.105 . S
Sc111 O127 2.105 . S
Sc111 O131 2.105 . S
Sc112 O113 2.025 . S
Sc112 O122 2.105 . S
Sc112 O124 2.105 . S
Sc112 O128 2.105 . S
Sc112 O130 2.105 . S
O113 Sc110 2.025 . S
O113 Sc111 2.025 . S
O113 Sc112 2.025 . S
C114 O120 1.268 . S
C114 O130 1.268 . S
C115 O121 1.268 . S
C115 O129 1.268 . S
C116 O122 1.268 . S
C116 O131 1.268 . S
C117 O123 1.268 . S
C117 O127 1.268 . S
C118 O124 1.268 . S
C118 O126 1.268 . S
C119 O125 1.268 . S
C119 O128 1.268 . S
O120 Sc110 2.105 . S
O120 C114 1.268 . S
O121 Sc111 2.105 . S
O121 C115 1.268 . S
O122 Sc112 2.105 . S
O122 C116 1.268 . S
O123 Sc110 2.105 . S
O123 C117 1.268 . S
O124 Sc112 2.105 . S
O124 C118 1.268 . S
O125 Sc111 2.105 . S
O125 C119 1.268 . S
O126 Sc110 2.105 . S
O126 C118 1.268 . S
O127 Sc111 2.105 . S
O127 C117 1.268 . S
O128 Sc112 2.105 . S
O128 C119 1.268 . S
O129 Sc110 2.105 . S
O129 C115 1.268 . S
O130 Sc112 2.105 . S
O130 C114 1.268 . S
O131 Sc111 2.105 . S
O131 C116 1.268 . S
Sc132 O135 2.025 . S
Sc132 O142 2.105 . S
Sc132 O145 2.105 . S
Sc132 O148 2.105 . S
Sc132 O151 2.105 . S
Sc133 O135 2.025 . S
Sc133 O143 2.105 . S
Sc133 O147 2.105 . S
Sc133 O149 2.105 . S
Sc133 O153 2.105 . S
Sc134 O135 2.025 . S
Sc134 O144 2.105 . S
Sc134 O146 2.105 . S
Sc134 O150 2.105 . S
Sc134 O152 2.105 . S
O135 Sc132 2.025 . S
O135 Sc133 2.025 . S
O135 Sc134 2.025 . S
C136 O142 1.268 . S
C136 O152 1.268 . S
C137 O143 1.268 . S
C137 O151 1.268 . S
C138 O144 1.268 . S
C138 O153 1.268 . S
C139 O145 1.268 . S
C139 O149 1.268 . S
C140 O146 1.268 . S
C140 O148 1.268 . S
C141 O147 1.268 . S
C141 O150 1.268 . S
O142 Sc132 2.105 . S
O142 C136 1.268 . S
O143 Sc133 2.105 . S
O143 C137 1.268 . S
O144 Sc134 2.105 . S
O144 C138 1.268 . S
O145 Sc132 2.105 . S
O145 C139 1.268 . S
O146 Sc134 2.105 . S
O146 C140 1.268 . S
O147 Sc133 2.105 . S
O147 C141 1.268 . S
O148 Sc132 2.105 . S
O148 C140 1.268 . S
O149 Sc133 2.105 . S
O149 C139 1.268 . S
O150 Sc134 2.105 . S
O150 C141 1.268 . S
O151 Sc132 2.105 . S
O151 C137 1.268 . S
O152 Sc134 2.105 . S
O152 C136 1.268 . S
O153 Sc133 2.105 . S
O153 C138 1.268 . S
Sc154 O157 2.025 . S
Sc154 O164 2.105 . S
Sc154 O167 2.105 . S
Sc154 O170 2.105 . S
Sc154 O173 2.105 . S
Sc155 O157 2.025 . S
Sc155 O165 2.105 . S
Sc155 O169 2.105 . S
Sc155 O171 2.105 . S
Sc155 O175 2.105 . S
Sc156 O157 2.025 . S
Sc156 O166 2.105 . S
Sc156 O168 2.105 . S
Sc156 O172 2.105 . S
Sc156 O174 2.087 1_455 S
O157 Sc154 2.025 . S
O157 Sc155 2.025 . S
O157 Sc156 2.025 . S
C158 O164 1.268 1_655 S
C158 O174 1.270 . S
C159 O165 1.268 . S
C159 O173 1.268 . S
C160 O166 1.268 . S
C160 O175 1.268 . S
C161 O167 1.268 . S
C161 O171 1.268 . S
C162 O168 1.268 . S
C162 O170 1.268 . S
C163 O169 1.268 . S
C163 O172 1.268 . S
O164 Sc154 2.105 . S
O164 C158 1.268 1_455 S
O165 Sc155 2.105 . S
O165 C159 1.268 . S
O166 Sc156 2.105 . S
O166 C160 1.268 . S
O167 Sc154 2.105 . S
O167 C161 1.268 . S
O168 Sc156 2.105 . S
O168 C162 1.268 . S
O169 Sc155 2.105 . S
O169 C163 1.268 . S
O170 Sc154 2.105 . S
O170 C162 1.268 . S
O171 Sc155 2.105 . S
O171 C161 1.268 . S
O172 Sc156 2.105 . S
O172 C163 1.268 . S
O173 Sc154 2.105 . S
O173 C159 1.268 . S
O174 Sc156 2.087 1_655 S
O174 C158 1.270 . S
O175 Sc155 2.105 . S
O175 C160 1.268 . S
Sc176 O179 2.025 . S
Sc176 O186 2.105 . S
Sc176 O189 2.105 . S
Sc176 O192 2.105 . S
Sc176 O195 2.105 . S
Sc177 O179 2.025 . S
Sc177 O187 2.105 . S
Sc177 O191 2.105 . S
Sc177 O193 2.105 . S
Sc177 O197 2.105 . S
Sc178 O179 2.025 . S
Sc178 O188 2.105 . S
Sc178 O190 2.105 . S
Sc178 O194 2.105 . S
Sc178 O196 2.105 . S
O179 Sc176 2.025 . S
O179 Sc177 2.025 . S
O179 Sc178 2.025 . S
C180 O186 1.268 . S
C180 O196 1.268 . S
C181 O187 1.268 . S
C181 O195 1.268 . S
C182 O188 1.268 . S
C182 O197 1.268 . S
C183 O189 1.268 . S
C183 O193 1.268 . S
C184 O190 1.268 . S
C184 O192 1.268 . S
C185 O191 1.268 . S
C185 O194 1.268 . S
O186 Sc176 2.105 . S
O186 C180 1.268 . S
O187 Sc177 2.105 . S
O187 C181 1.268 . S
O188 Sc178 2.105 . S
O188 C182 1.268 . S
O189 Sc176 2.105 . S
O189 C183 1.268 . S
O190 Sc178 2.105 . S
O190 C184 1.268 . S
O191 Sc177 2.105 . S
O191 C185 1.268 . S
O192 Sc176 2.105 . S
O192 C184 1.268 . S
O193 Sc177 2.105 . S
O193 C183 1.268 . S
O194 Sc178 2.105 . S
O194 C185 1.268 . S
O195 Sc176 2.105 . S
O195 C181 1.268 . S
O196 Sc178 2.105 . S
O196 C180 1.268 . S
O197 Sc177 2.105 . S
O197 C182 1.268 . S
Sc198 O201 2.025 . S
Sc198 O208 2.105 . S
Sc198 O211 2.105 . S
Sc198 O214 2.105 . S
Sc198 O217 2.105 . S
Sc199 O201 2.025 . S
Sc199 O209 2.105 . S
Sc199 O213 2.105 . S
Sc199 O215 2.105 . S
Sc199 O219 2.105 . S
Sc200 O201 2.025 . S
Sc200 O210 2.105 1_545 S
Sc200 O212 2.087 1_455 S
Sc200 O216 2.105 . S
Sc200 O218 2.105 . S
O201 Sc198 2.025 . S
O201 Sc199 2.025 . S
O201 Sc200 2.025 . S
C202 O208 1.268 . S
C202 O218 1.268 . S
C203 O209 1.268 . S
C203 O217 1.268 . S
C204 O210 1.268 . S
C204 O219 1.268 1_565 S
C205 O211 1.268 . S
C205 O215 1.268 . S
C206 O212 1.270 . S
C206 O214 1.268 1_655 S
C207 O213 1.268 . S
C207 O216 1.268 . S
O208 Sc198 2.105 . S
O208 C202 1.268 . S
O209 Sc199 2.105 . S
O209 C203 1.268 . S
O210 Sc200 2.105 1_565 S
O210 C204 1.268 . S
O211 Sc198 2.105 . S
O211 C205 1.268 . S
O212 Sc200 2.087 1_655 S
O212 C206 1.270 . S
O213 Sc199 2.105 . S
O213 C207 1.268 . S
O214 Sc198 2.105 . S
O214 C206 1.268 1_455 S
O215 Sc199 2.105 . S
O215 C205 1.268 . S
O216 Sc200 2.105 . S
O216 C207 1.268 . S
O217 Sc198 2.105 . S
O217 C203 1.268 . S
O218 Sc200 2.105 . S
O218 C202 1.268 . S
O219 Sc199 2.105 . S
O219 C204 1.268 1_545 S
Sc220 O223 2.025 . S
Sc220 O230 2.105 . S
Sc220 O233 2.105 . S
Sc220 O236 2.105 . S
Sc220 O239 2.105 . S
Sc221 O223 2.025 1_556 S
Sc221 O231 2.105 1_556 S
Sc221 O235 2.105 . S
Sc221 O237 2.105 . S
Sc221 O241 2.105 . S
Sc222 O223 2.025 . S
Sc222 O232 2.105 . S
Sc222 O234 2.105 . S
Sc222 O238 2.105 1_554 S
Sc222 O240 2.105 . S
O223 Sc220 2.025 . S
O223 Sc221 2.025 1_554 S
O223 Sc222 2.025 . S
C224 O230 1.268 . S
C224 O240 1.268 . S
C225 O231 1.268 . S
C225 O239 1.268 . S
C226 O232 1.268 . S
C226 O241 1.268 1_554 S
C227 O233 1.268 1_556 S
C227 O237 1.268 . S
C228 O234 1.268 . S
C228 O236 1.268 . S
C229 O235 1.268 . S
C229 O238 1.268 . S
O230 Sc220 2.105 . S
O230 C224 1.268 . S
O231 Sc221 2.105 1_554 S
O231 C225 1.268 . S
O232 Sc222 2.105 . S
O232 C226 1.268 . S
O233 Sc220 2.105 . S
O233 C227 1.268 1_554 S
O234 Sc222 2.105 . S
O234 C228 1.268 . S
O235 Sc221 2.105 . S
O235 C229 1.268 . S
O236 Sc220 2.105 . S
O236 C228 1.268 . S
O237 Sc221 2.105 . S
O237 C227 1.268 . S
O238 Sc222 2.105 1_556 S
O238 C229 1.268 . S
O239 Sc220 2.105 . S
O239 C225 1.268 . S
O240 Sc222 2.105 . S
O240 C224 1.268 . S
O241 Sc221 2.105 . S
O241 C226 1.268 1_556 S
Sc242 O245 2.025 . S
Sc242 O252 2.105 . S
Sc242 O255 2.105 1_565 S
Sc242 O258 2.105 . S
Sc242 O261 2.105 . S
Sc243 O245 2.025 . S
Sc243 O253 2.105 . S
Sc243 O257 2.105 . S
Sc243 O259 2.105 . S
Sc243 O263 2.105 . S
Sc244 O245 2.025 . S
Sc244 O254 2.105 . S
Sc244 O256 2.105 . S
Sc244 O260 2.105 . S
Sc244 O262 2.105 . S
O245 Sc242 2.025 . S
O245 Sc243 2.025 . S
O245 Sc244 2.025 . S
C246 O252 1.268 . S
C246 O262 1.268 . S
C247 O253 1.268 . S
C247 O261 1.268 . S
C248 O254 1.268 . S
C248 O263 1.268 . S
C249 O255 1.268 . S
C249 O259 1.268 1_545 S
C250 O256 1.268 . S
C250 O258 1.268 . S
C251 O257 1.268 . S
C251 O260 1.268 . S
O252 Sc242 2.105 . S
O252 C246 1.268 . S
O253 Sc243 2.105 . S
O253 C247 1.268 . S
O254 Sc244 2.105 . S
O254 C248 1.268 . S
O255 Sc242 2.105 1_545 S
O255 C249 1.268 . S
O256 Sc244 2.105 . S
O256 C250 1.268 . S
O257 Sc243 2.105 . S
O257 C251 1.268 . S
O258 Sc242 2.105 . S
O258 C250 1.268 . S
O259 Sc243 2.105 . S
O259 C249 1.268 1_565 S
O260 Sc244 2.105 . S
O260 C251 1.268 . S
O261 Sc242 2.105 . S
O261 C247 1.268 . S
O262 Sc244 2.105 . S
O262 C246 1.268 . S
O263 Sc243 2.105 . S
O263 C248 1.268 . S
Sc264 O267 2.025 . S
Sc264 O274 2.105 . S
Sc264 O277 2.105 . S
Sc264 O280 2.105 . S
Sc264 O283 2.105 . S
Sc265 O267 2.025 . S
Sc265 O275 2.105 . S
Sc265 O279 2.105 . S
Sc265 O281 2.105 . S
Sc265 O285 2.105 . S
Sc266 O267 2.025 . S
Sc266 O276 2.105 . S
Sc266 O278 2.105 . S
Sc266 O282 2.105 . S
Sc266 O284 2.105 . S
O267 Sc264 2.025 . S
O267 Sc265 2.025 . S
O267 Sc266 2.025 . S
C268 O274 1.268 . S
C268 O284 1.268 . S
C269 O275 1.268 . S
C269 O283 1.268 . S
C270 O276 1.268 . S
C270 O285 1.268 . S
C271 O277 1.268 . S
C271 O281 1.268 . S
C272 O278 1.268 . S
C272 O280 1.268 . S
C273 O279 1.268 . S
C273 O282 1.268 . S
O274 Sc264 2.105 . S
O274 C268 1.268 . S
O275 Sc265 2.105 . S
O275 C269 1.268 . S
O276 Sc266 2.105 . S
O276 C270 1.268 . S
O277 Sc264 2.105 . S
O277 C271 1.268 . S
O278 Sc266 2.105 . S
O278 C272 1.268 . S
O279 Sc265 2.105 . S
O279 C273 1.268 . S
O280 Sc264 2.105 . S
O280 C272 1.268 . S
O281 Sc265 2.105 . S
O281 C271 1.268 . S
O282 Sc266 2.105 . S
O282 C273 1.268 . S
O283 Sc264 2.105 . S
O283 C269 1.268 . S
O284 Sc266 2.105 . S
O284 C268 1.268 . S
O285 Sc265 2.105 . S
O285 C270 1.268 . S
Sc286 O289 2.025 . S
Sc286 O296 2.105 . S
Sc286 O299 2.105 . S
Sc286 O302 2.087 1_655 S
Sc286 O305 2.105 1_565 S
Sc287 O289 2.025 . S
Sc287 O297 2.105 . S
Sc287 O301 2.105 . S
Sc287 O303 2.105 . S
Sc287 O307 2.105 . S
Sc288 O289 2.025 . S
Sc288 O298 2.105 . S
Sc288 O300 2.105 . S
Sc288 O304 2.105 . S
Sc288 O306 2.105 . S
O289 Sc286 2.025 . S
O289 Sc287 2.025 . S
O289 Sc288 2.025 . S
C290 O296 1.268 . S
C290 O306 1.268 . S
C291 O297 1.268 1_545 S
C291 O305 1.268 . S
C292 O298 1.268 . S
C292 O307 1.268 . S
C293 O299 1.268 . S
C293 O303 1.268 . S
C294 O300 1.268 1_455 S
C294 O302 1.270 . S
C295 O301 1.268 . S
C295 O304 1.268 . S
O296 Sc286 2.105 . S
O296 C290 1.268 . S
O297 Sc287 2.105 . S
O297 C291 1.268 1_565 S
O298 Sc288 2.105 . S
O298 C292 1.268 . S
O299 Sc286 2.105 . S
O299 C293 1.268 . S
O300 Sc288 2.105 . S
O300 C294 1.268 1_655 S
O301 Sc287 2.105 . S
O301 C295 1.268 . S
O302 Sc286 2.087 1_455 S
O302 C294 1.270 . S
O303 Sc287 2.105 . S
O303 C293 1.268 . S
O304 Sc288 2.105 . S
O304 C295 1.268 . S
O305 Sc286 2.105 1_545 S
O305 C291 1.268 . S
O306 Sc288 2.105 . S
O306 C290 1.268 . S
O307 Sc287 2.105 . S
O307 C292 1.268 . S
Sc308 O311 2.025 1_556 S
Sc308 O318 2.105 1_556 S
Sc308 O321 2.105 . S
Sc308 O324 2.105 . S
Sc308 O327 2.105 1_556 S
Sc309 O311 2.025 . S
Sc309 O319 2.105 . S
Sc309 O323 2.105 . S
Sc309 O325 2.105 . S
Sc309 O329 2.105 . S
Sc310 O311 2.025 . S
Sc310 O320 2.105 . S
Sc310 O322 2.105 1_554 S
Sc310 O326 2.105 . S
Sc310 O328 2.105 . S
O311 Sc308 2.025 1_554 S
O311 Sc309 2.025 . S
O311 Sc310 2.025 . S
C312 O318 1.268 . S
C312 O328 1.268 . S
C313 O319 1.268 . S
C313 O327 1.268 . S
C314 O320 1.268 . S
C314 O329 1.268 . S
C315 O321 1.268 . S
C315 O325 1.268 1_556 S
C316 O322 1.268 . S
C316 O324 1.268 . S
C317 O323 1.268 . S
C317 O326 1.268 . S
O318 Sc308 2.105 1_554 S
O318 C312 1.268 . S
O319 Sc309 2.105 . S
O319 C313 1.268 . S
O320 Sc310 2.105 . S
O320 C314 1.268 . S
O321 Sc308 2.105 . S
O321 C315 1.268 . S
O322 Sc310 2.105 1_556 S
O322 C316 1.268 . S
O323 Sc309 2.105 . S
O323 C317 1.268 . S
O324 Sc308 2.105 . S
O324 C316 1.268 . S
O325 Sc309 2.105 . S
O325 C315 1.268 1_554 S
O326 Sc310 2.105 . S
O326 C317 1.268 . S
O327 Sc308 2.105 1_554 S
O327 C313 1.268 . S
O328 Sc310 2.105 . S
O328 C312 1.268 . S
O329 Sc309 2.105 . S
O329 C314 1.268 . S
Sc330 O333 2.025 . S
Sc330 O340 2.105 . S
Sc330 O343 2.105 . S
Sc330 O346 2.105 . S
Sc330 O349 2.105 . S
Sc331 O333 2.025 . S
Sc331 O341 2.105 . S
Sc331 O345 2.105 . S
Sc331 O347 2.105 . S
Sc331 O351 2.105 . S
Sc332 O333 2.025 . S
Sc332 O342 2.105 . S
Sc332 O344 2.105 . S
Sc332 O348 2.105 1_545 S
Sc332 O350 2.105 . S
O333 Sc330 2.025 . S
O333 Sc331 2.025 . S
O333 Sc332 2.025 . S
C334 O340 1.268 . S
C334 O350 1.268 . S
C335 O341 1.268 . S
C335 O349 1.268 . S
C336 O342 1.268 . S
C336 O351 1.268 . S
C337 O343 1.268 . S
C337 O347 1.268 . S
C338 O344 1.268 . S
C338 O346 1.268 . S
C339 O345 1.268 1_565 S
C339 O348 1.268 . S
O340 Sc330 2.105 . S
O340 C334 1.268 . S
O341 Sc331 2.105 . S
O341 C335 1.268 . S
O342 Sc332 2.105 . S
O342 C336 1.268 . S
O343 Sc330 2.105 . S
O343 C337 1.268 . S
O344 Sc332 2.105 . S
O344 C338 1.268 . S
O345 Sc331 2.105 . S
O345 C339 1.268 1_545 S
O346 Sc330 2.105 . S
O346 C338 1.268 . S
O347 Sc331 2.105 . S
O347 C337 1.268 . S
O348 Sc332 2.105 1_565 S
O348 C339 1.268 . S
O349 Sc330 2.105 . S
O349 C335 1.268 . S
O350 Sc332 2.105 . S
O350 C334 1.268 . S
O351 Sc331 2.105 . S
O351 C336 1.268 . S
C352 C353 1.391 . S
C352 C354 1.394 . S
C352 H368 0.931 . S
C353 C352 1.391 . S
C353 C357 1.376 . S
C354 C352 1.394 . S
C354 C355 1.369 . S
C354 C358 1.531 . S
C355 C354 1.369 . S
C355 C356 1.410 . S
C355 C363 1.503 . S
C356 C355 1.410 . S
C356 C357 1.392 . S
C356 C359 1.511 . S
C357 C353 1.376 . S
C357 C356 1.392 . S
C357 H369 0.929 . S
C358 C354 1.531 . S
C358 H370 0.960 . S
C358 H371 0.962 . S
C358 H372 0.960 . S
C359 C356 1.511 . S
C359 H373 0.961 . S
C359 H374 0.961 . S
C359 H375 0.961 . S
C360 C361 1.370 . S
C360 C362 1.363 . S
C360 H376 0.931 . S
C361 C360 1.370 . S
C361 C365 1.408 . S
C362 C360 1.363 . S
C362 C363 1.370 . S
C362 C366 1.524 . S
C363 C355 1.503 . S
C363 C362 1.370 . S
C363 C364 1.403 . S
C364 C363 1.403 . S
C364 C365 1.404 . S
C364 C367 1.539 . S
C365 C361 1.408 . S
C365 C364 1.404 . S
C365 H377 0.930 . S
C366 C362 1.524 . S
C366 H378 0.956 . S
C366 H379 0.961 1_556 S
C366 H380 0.961 1_556 S
C367 C364 1.539 . S
C367 H381 0.958 . S
C367 H382 0.961 . S
C367 H383 0.960 . S
H368 C352 0.931 . S
H369 C357 0.929 . S
H370 C358 0.960 . S
H371 C358 0.962 . S
H372 C358 0.960 . S
H373 C359 0.961 . S
H374 C359 0.961 . S
H375 C359 0.961 . S
H376 C360 0.931 . S
H377 C365 0.930 . S
H378 C366 0.956 . S
H379 C366 0.961 1_554 S
H380 C366 0.961 1_554 S
H381 C367 0.958 . S
H382 C367 0.961 . S
H383 C367 0.960 . S
C384 C385 1.391 . S
C384 C386 1.394 . S
C384 H400 0.931 . S
C385 C384 1.391 . S
C385 C389 1.376 . S
C386 C384 1.394 . S
C386 C387 1.369 . S
C386 C390 1.531 . S
C387 C386 1.369 . S
C387 C388 1.410 . S
C387 C395 1.503 . S
C388 C387 1.410 . S
C388 C389 1.392 . S
C388 C391 1.511 . S
C389 C385 1.376 . S
C389 C388 1.392 . S
C389 H401 0.929 . S
C390 C386 1.531 . S
C390 H402 0.960 . S
C390 H403 0.962 . S
C390 H404 0.960 . S
C391 C388 1.511 . S
C391 H405 0.961 . S
C391 H406 0.961 . S
C391 H407 0.961 . S
C392 C393 1.370 . S
C392 C394 1.363 . S
C392 H408 0.931 . S
C393 C392 1.370 . S
C393 C397 1.408 . S
C394 C392 1.363 . S
C394 C395 1.370 . S
C394 C398 1.524 . S
C395 C387 1.503 . S
C395 C394 1.370 . S
C395 C396 1.403 . S
C396 C395 1.403 . S
C396 C397 1.404 . S
C396 C399 1.539 . S
C397 C393 1.408 . S
C397 C396 1.404 . S
C397 H409 0.930 . S
C398 C394 1.524 . S
C398 H410 0.956 . S
C398 H411 0.961 . S
C398 H412 0.961 . S
C399 C396 1.539 . S
C399 H413 0.958 . S
C399 H414 0.961 . S
C399 H415 0.960 . S
H400 C384 0.931 . S
H401 C389 0.929 . S
H402 C390 0.960 . S
H403 C390 0.962 . S
H404 C390 0.960 . S
H405 C391 0.961 . S
H406 C391 0.961 . S
H407 C391 0.961 . S
H408 C392 0.931 . S
H409 C397 0.930 . S
H410 C398 0.956 . S
H411 C398 0.961 . S
H412 C398 0.961 . S
H413 C399 0.958 . S
H414 C399 0.961 . S
H415 C399 0.960 . S
C416 C417 1.391 . S
C416 C418 1.394 . S
C416 H432 0.931 . S
C417 C416 1.391 . S
C417 C421 1.376 . S
C418 C416 1.394 . S
C418 C419 1.369 . S
C418 C422 1.531 . S
C419 C418 1.369 . S
C419 C420 1.410 . S
C419 C427 1.503 . S
C420 C419 1.410 . S
C420 C421 1.392 . S
C420 C423 1.511 . S
C421 C417 1.376 . S
C421 C420 1.392 . S
C421 H433 0.929 . S
C422 C418 1.531 . S
C422 H434 0.960 . S
C422 H435 0.962 . S
C422 H436 0.960 . S
C423 C420 1.511 . S
C423 H437 0.961 . S
C423 H438 0.961 . S
C423 H439 0.961 . S
C424 C425 1.370 . S
C424 C426 1.363 . S
C424 H440 0.931 . S
C425 C424 1.370 . S
C425 C429 1.408 . S
C426 C424 1.363 . S
C426 C427 1.370 . S
C426 C430 1.524 . S
C427 C419 1.503 . S
C427 C426 1.370 . S
C427 C428 1.403 . S
C428 C427 1.403 . S
C428 C429 1.404 . S
C428 C431 1.539 . S
C429 C425 1.408 . S
C429 C428 1.404 . S
C429 H441 0.930 . S
C430 C426 1.524 . S
C430 H442 0.956 . S
C430 H443 0.961 . S
C430 H444 0.961 . S
C431 C428 1.539 . S
C431 H445 0.958 . S
C431 H446 0.961 . S
C431 H447 0.960 . S
H432 C416 0.931 . S
H433 C421 0.929 . S
H434 C422 0.960 . S
H435 C422 0.962 . S
H436 C422 0.960 . S
H437 C423 0.961 . S
H438 C423 0.961 . S
H439 C423 0.961 . S
H440 C424 0.931 . S
H441 C429 0.930 . S
H442 C430 0.956 . S
H443 C430 0.961 . S
H444 C430 0.961 . S
H445 C431 0.958 . S
H446 C431 0.961 . S
H447 C431 0.960 . S
C448 C449 1.391 . S
C448 C450 1.394 . S
C448 H464 0.931 . S
C449 C448 1.391 . S
C449 C453 1.376 . S
C450 C448 1.394 . S
C450 C451 1.369 . S
C450 C454 1.531 . S
C451 C450 1.369 . S
C451 C452 1.410 . S
C451 C459 1.503 . S
C452 C451 1.410 . S
C452 C453 1.392 . S
C452 C455 1.511 . S
C453 C449 1.376 . S
C453 C452 1.392 . S
C453 H465 0.929 . S
C454 C450 1.531 . S
C454 H466 0.960 . S
C454 H467 0.962 . S
C454 H468 0.960 . S
C455 C452 1.511 . S
C455 H469 0.961 . S
C455 H470 0.961 . S
C455 H471 0.961 . S
C456 C457 1.370 . S
C456 C458 1.363 . S
C456 H472 0.931 . S
C457 C456 1.370 . S
C457 C461 1.408 . S
C458 C456 1.363 . S
C458 C459 1.370 . S
C458 C462 1.524 . S
C459 C451 1.503 . S
C459 C458 1.370 . S
C459 C460 1.403 . S
C460 C459 1.403 . S
C460 C461 1.404 . S
C460 C463 1.539 . S
C461 C457 1.408 . S
C461 C460 1.404 . S
C461 H473 0.930 . S
C462 C458 1.524 . S
C462 H474 0.956 . S
C462 H475 0.961 . S
C462 H476 0.961 . S
C463 C460 1.539 . S
C463 H477 0.958 . S
C463 H478 0.961 . S
C463 H479 0.960 . S
H464 C448 0.931 . S
H465 C453 0.929 . S
H466 C454 0.960 . S
H467 C454 0.962 . S
H468 C454 0.960 . S
H469 C455 0.961 . S
H470 C455 0.961 . S
H471 C455 0.961 . S
H472 C456 0.931 . S
H473 C461 0.930 . S
H474 C462 0.956 . S
H475 C462 0.961 . S
H476 C462 0.961 . S
H477 C463 0.958 . S
H478 C463 0.961 . S
H479 C463 0.960 . S
C480 C481 1.391 . S
C480 C482 1.394 . S
C480 H496 0.931 . S
C481 C480 1.391 . S
C481 C485 1.376 . S
C482 C480 1.394 . S
C482 C483 1.369 . S
C482 C486 1.531 . S
C483 C482 1.369 . S
C483 C484 1.410 . S
C483 C491 1.503 . S
C484 C483 1.410 . S
C484 C485 1.392 . S
C484 C487 1.511 . S
C485 C481 1.376 . S
C485 C484 1.392 . S
C485 H497 0.929 . S
C486 C482 1.531 . S
C486 H498 0.960 . S
C486 H499 0.962 . S
C486 H500 0.960 . S
C487 C484 1.511 . S
C487 H501 0.961 . S
C487 H502 0.961 . S
C487 H503 0.961 . S
C488 C489 1.370 . S
C488 C490 1.363 . S
C488 H504 0.931 . S
C489 C488 1.370 . S
C489 C493 1.408 . S
C490 C488 1.363 . S
C490 C491 1.370 . S
C490 C494 1.524 . S
C491 C483 1.503 . S
C491 C490 1.370 . S
C491 C492 1.403 . S
C492 C491 1.403 . S
C492 C493 1.404 . S
C492 C495 1.539 . S
C493 C489 1.408 . S
C493 C492 1.404 . S
C493 H505 0.930 . S
C494 C490 1.524 . S
C494 H506 0.956 . S
C494 H507 0.961 . S
C494 H508 0.961 . S
C495 C492 1.539 . S
C495 H509 0.958 . S
C495 H510 0.961 . S
C495 H511 0.960 . S
H496 C480 0.931 . S
H497 C485 0.929 . S
H498 C486 0.960 . S
H499 C486 0.962 . S
H500 C486 0.960 . S
H501 C487 0.961 . S
H502 C487 0.961 . S
H503 C487 0.961 . S
H504 C488 0.931 . S
H505 C493 0.930 . S
H506 C494 0.956 . S
H507 C494 0.961 . S
H508 C494 0.961 . S
H509 C495 0.958 . S
H510 C495 0.961 . S
H511 C495 0.960 . S
C512 C513 1.391 . S
C512 C514 1.394 . S
C512 H528 0.931 . S
C513 C512 1.391 . S
C513 C517 1.376 . S
C514 C512 1.394 . S
C514 C515 1.369 . S
C514 C518 1.531 . S
C515 C514 1.369 . S
C515 C516 1.410 . S
C515 C523 1.503 . S
C516 C515 1.410 . S
C516 C517 1.392 . S
C516 C519 1.511 . S
C517 C513 1.376 . S
C517 C516 1.392 . S
C517 H529 0.929 . S
C518 C514 1.531 . S
C518 H530 0.960 . S
C518 H531 0.962 . S
C518 H532 0.960 . S
C519 C516 1.511 . S
C519 H533 0.961 . S
C519 H534 0.961 . S
C519 H535 0.961 . S
C520 C521 1.370 . S
C520 C522 1.363 . S
C520 H536 0.931 . S
C521 C520 1.370 . S
C521 C525 1.408 . S
C522 C520 1.363 . S
C522 C523 1.370 . S
C522 C526 1.524 . S
C523 C515 1.503 . S
C523 C522 1.370 . S
C523 C524 1.403 . S
C524 C523 1.403 . S
C524 C525 1.404 . S
C524 C527 1.539 . S
C525 C521 1.408 . S
C525 C524 1.404 . S
C525 H537 0.930 . S
C526 C522 1.524 . S
C526 H538 0.956 . S
C526 H539 0.961 . S
C526 H540 0.961 . S
C527 C524 1.539 . S
C527 H541 0.958 . S
C527 H542 0.961 . S
C527 H543 0.960 . S
H528 C512 0.931 . S
H529 C517 0.929 . S
H530 C518 0.960 . S
H531 C518 0.962 . S
H532 C518 0.960 . S
H533 C519 0.961 . S
H534 C519 0.961 . S
H535 C519 0.961 . S
H536 C520 0.931 . S
H537 C525 0.930 . S
H538 C526 0.956 . S
H539 C526 0.961 . S
H540 C526 0.961 . S
H541 C527 0.958 . S
H542 C527 0.961 . S
H543 C527 0.960 . S
C544 C545 1.391 . S
C544 C546 1.394 . S
C544 H560 0.931 . S
C545 C544 1.391 . S
C545 C549 1.376 . S
C546 C544 1.394 . S
C546 C547 1.369 . S
C546 C550 1.531 . S
C547 C546 1.369 . S
C547 C548 1.410 . S
C547 C555 1.503 . S
C548 C547 1.410 . S
C548 C549 1.392 . S
C548 C551 1.511 . S
C549 C545 1.376 . S
C549 C548 1.392 . S
C549 H561 0.929 . S
C550 C546 1.531 . S
C550 H562 0.960 . S
C550 H563 0.962 . S
C550 H564 0.960 . S
C551 C548 1.511 . S
C551 H565 0.961 . S
C551 H566 0.961 . S
C551 H567 0.961 . S
C552 C553 1.370 . S
C552 C554 1.363 . S
C552 H568 0.931 . S
C553 C552 1.370 . S
C553 C557 1.408 . S
C554 C552 1.363 . S
C554 C555 1.370 . S
C554 C558 1.524 . S
C555 C547 1.503 . S
C555 C554 1.370 . S
C555 C556 1.403 . S
C556 C555 1.403 . S
C556 C557 1.404 . S
C556 C559 1.539 . S
C557 C553 1.408 . S
C557 C556 1.404 . S
C557 H569 0.930 . S
C558 C554 1.524 . S
C558 H570 0.956 . S
C558 H571 0.961 . S
C558 H572 0.961 . S
C559 C556 1.539 . S
C559 H573 0.958 . S
C559 H574 0.961 . S
C559 H575 0.960 . S
H560 C544 0.931 . S
H561 C549 0.929 . S
H562 C550 0.960 . S
H563 C550 0.962 . S
H564 C550 0.960 . S
H565 C551 0.961 . S
H566 C551 0.961 . S
H567 C551 0.961 . S
H568 C552 0.931 . S
H569 C557 0.930 . S
H570 C558 0.956 . S
H571 C558 0.961 . S
H572 C558 0.961 . S
H573 C559 0.958 . S
H574 C559 0.961 . S
H575 C559 0.960 . S
C576 C577 1.391 . S
C576 C578 1.394 . S
C576 H592 0.931 . S
C577 C576 1.391 . S
C577 C581 1.376 . S
C578 C576 1.394 . S
C578 C579 1.369 . S
C578 C582 1.531 . S
C579 C578 1.369 . S
C579 C580 1.410 . S
C579 C587 1.503 . S
C580 C579 1.410 . S
C580 C581 1.392 . S
C580 C583 1.511 . S
C581 C577 1.376 . S
C581 C580 1.392 . S
C581 H593 0.929 . S
C582 C578 1.531 . S
C582 H594 0.960 . S
C582 H595 0.962 . S
C582 H596 0.960 . S
C583 C580 1.511 . S
C583 H597 0.961 . S
C583 H598 0.961 . S
C583 H599 0.961 . S
C584 C585 1.370 . S
C584 C586 1.363 . S
C584 H600 0.931 . S
C585 C584 1.370 . S
C585 C589 1.408 . S
C586 C584 1.363 . S
C586 C587 1.370 . S
C586 C590 1.524 . S
C587 C579 1.503 . S
C587 C586 1.370 . S
C587 C588 1.403 . S
C588 C587 1.403 . S
C588 C589 1.404 . S
C588 C591 1.539 . S
C589 C585 1.408 . S
C589 C588 1.404 . S
C589 H601 0.930 . S
C590 C586 1.524 . S
C590 H602 0.956 . S
C590 H603 0.961 . S
C590 H604 0.961 . S
C591 C588 1.539 . S
C591 H605 0.958 . S
C591 H606 0.961 . S
C591 H607 0.960 . S
H592 C576 0.931 . S
H593 C581 0.929 . S
H594 C582 0.960 . S
H595 C582 0.962 . S
H596 C582 0.960 . S
H597 C583 0.961 . S
H598 C583 0.961 . S
H599 C583 0.961 . S
H600 C584 0.931 . S
H601 C589 0.930 . S
H602 C590 0.956 . S
H603 C590 0.961 . S
H604 C590 0.961 . S
H605 C591 0.958 . S
H606 C591 0.961 . S
H607 C591 0.960 . S
C608 C609 1.391 . S
C608 C610 1.394 . S
C608 H624 0.931 . S
C609 C608 1.391 . S
C609 C613 1.376 . S
C610 C608 1.394 . S
C610 C611 1.369 . S
C610 C614 1.531 . S
C611 C610 1.369 . S
C611 C612 1.410 . S
C611 C619 1.503 . S
C612 C611 1.410 . S
C612 C613 1.392 . S
C612 C615 1.511 . S
C613 C609 1.376 . S
C613 C612 1.392 . S
C613 H625 0.929 . S
C614 C610 1.531 . S
C614 H626 0.960 . S
C614 H627 0.962 . S
C614 H628 0.960 . S
C615 C612 1.511 . S
C615 H629 0.961 . S
C615 H630 0.961 . S
C615 H631 0.961 . S
C616 C617 1.370 . S
C616 C618 1.363 . S
C616 H632 0.931 . S
C617 C616 1.370 . S
C617 C621 1.408 . S
C618 C616 1.363 . S
C618 C619 1.370 . S
C618 C622 1.524 . S
C619 C611 1.503 . S
C619 C618 1.370 . S
C619 C620 1.403 . S
C620 C619 1.403 . S
C620 C621 1.404 . S
C620 C623 1.539 . S
C621 C617 1.408 . S
C621 C620 1.404 . S
C621 H633 0.930 . S
C622 C618 1.524 . S
C622 H634 0.956 . S
C622 H635 0.961 . S
C622 H636 0.961 . S
C623 C620 1.539 . S
C623 H637 0.958 . S
C623 H638 0.961 . S
C623 H639 0.960 . S
H624 C608 0.931 . S
H625 C613 0.929 . S
H626 C614 0.960 . S
H627 C614 0.962 . S
H628 C614 0.960 . S
H629 C615 0.961 . S
H630 C615 0.961 . S
H631 C615 0.961 . S
H632 C616 0.931 . S
H633 C621 0.930 . S
H634 C622 0.956 . S
H635 C622 0.961 . S
H636 C622 0.961 . S
H637 C623 0.958 . S
H638 C623 0.961 . S
H639 C623 0.960 . S
C640 C641 1.391 . S
C640 C642 1.394 . S
C640 H656 0.931 . S
C641 C640 1.391 . S
C641 C645 1.376 . S
C642 C640 1.394 . S
C642 C643 1.369 . S
C642 C646 1.531 . S
C643 C642 1.369 . S
C643 C644 1.410 . S
C643 C651 1.503 . S
C644 C643 1.410 . S
C644 C645 1.392 . S
C644 C647 1.511 . S
C645 C641 1.376 . S
C645 C644 1.392 . S
C645 H657 0.929 . S
C646 C642 1.531 . S
C646 H658 0.960 . S
C646 H659 0.962 . S
C646 H660 0.960 . S
C647 C644 1.511 . S
C647 H661 0.961 . S
C647 H662 0.961 . S
C647 H663 0.961 . S
C648 C649 1.370 . S
C648 C650 1.363 . S
C648 H664 0.931 . S
C649 C648 1.370 . S
C649 C653 1.408 . S
C650 C648 1.363 . S
C650 C651 1.370 . S
C650 C654 1.524 . S
C651 C643 1.503 . S
C651 C650 1.370 . S
C651 C652 1.403 . S
C652 C651 1.403 . S
C652 C653 1.404 . S
C652 C655 1.539 . S
C653 C649 1.408 . S
C653 C652 1.404 . S
C653 H665 0.930 . S
C654 C650 1.524 . S
C654 H666 0.956 . S
C654 H667 0.961 . S
C654 H668 0.961 . S
C655 C652 1.539 . S
C655 H669 0.958 . S
C655 H670 0.961 . S
C655 H671 0.960 . S
H656 C640 0.931 . S
H657 C645 0.929 . S
H658 C646 0.960 . S
H659 C646 0.962 . S
H660 C646 0.960 . S
H661 C647 0.961 . S
H662 C647 0.961 . S
H663 C647 0.961 . S
H664 C648 0.931 . S
H665 C653 0.930 . S
H666 C654 0.956 . S
H667 C654 0.961 . S
H668 C654 0.961 . S
H669 C655 0.958 . S
H670 C655 0.961 . S
H671 C655 0.960 . S
C672 C673 1.391 . S
C672 C674 1.394 . S
C672 H688 0.931 . S
C673 C672 1.391 . S
C673 C677 1.376 . S
C674 C672 1.394 . S
C674 C675 1.369 . S
C674 C678 1.531 . S
C675 C674 1.369 . S
C675 C676 1.410 . S
C675 C683 1.503 . S
C676 C675 1.410 . S
C676 C677 1.392 . S
C676 C679 1.511 . S
C677 C673 1.376 . S
C677 C676 1.392 . S
C677 H689 0.929 . S
C678 C674 1.531 . S
C678 H690 0.960 . S
C678 H691 0.962 . S
C678 H692 0.960 . S
C679 C676 1.511 . S
C679 H693 0.961 . S
C679 H694 0.963 . S
C679 H695 0.961 1_556 S
C680 C681 1.370 . S
C680 C682 1.363 . S
C680 H696 0.931 . S
C681 C680 1.370 . S
C681 C685 1.408 1_556 S
C682 C680 1.363 . S
C682 C683 1.370 . S
C682 C686 1.524 . S
C683 C675 1.503 . S
C683 C682 1.370 . S
C683 C684 1.403 . S
C684 C683 1.403 . S
C684 C685 1.404 1_556 S
C684 C687 1.539 . S
C685 C681 1.408 1_554 S
C685 C684 1.404 1_554 S
C685 H697 0.930 . S
C686 C682 1.524 . S
C686 H698 0.956 . S
C686 H699 0.961 . S
C686 H700 0.961 . S
C687 C684 1.539 . S
C687 H701 0.958 . S
C687 H702 0.961 1_556 S
C687 H703 0.960 . S
H688 C672 0.931 . S
H689 C677 0.929 . S
H690 C678 0.960 . S
H691 C678 0.962 . S
H692 C678 0.960 . S
H693 C679 0.961 . S
H694 C679 0.963 . S
H695 C679 0.961 1_554 S
H696 C680 0.931 . S
H697 C685 0.930 . S
H698 C686 0.956 . S
H699 C686 0.961 . S
H700 C686 0.961 . S
H701 C687 0.958 . S
H702 C687 0.961 1_554 S
H703 C687 0.960 . S
C704 C705 1.391 . S
C704 C706 1.394 . S
C704 H720 0.931 . S
C705 C704 1.391 . S
C705 C709 1.376 . S
C706 C704 1.394 . S
C706 C707 1.369 . S
C706 C710 1.531 . S
C707 C706 1.369 . S
C707 C708 1.410 . S
C707 C715 1.503 . S
C708 C707 1.410 . S
C708 C709 1.392 . S
C708 C711 1.511 . S
C709 C705 1.376 . S
C709 C708 1.392 . S
C709 H721 0.929 . S
C710 C706 1.531 . S
C710 H722 0.960 . S
C710 H723 0.962 . S
C710 H724 0.960 . S
C711 C708 1.511 . S
C711 H725 0.961 . S
C711 H726 0.961 . S
C711 H727 0.961 . S
C712 C713 1.370 . S
C712 C714 1.363 . S
C712 H728 0.931 . S
C713 C712 1.370 . S
C713 C717 1.408 . S
C714 C712 1.363 . S
C714 C715 1.370 . S
C714 C718 1.524 . S
C715 C707 1.503 . S
C715 C714 1.370 . S
C715 C716 1.403 . S
C716 C715 1.403 . S
C716 C717 1.404 . S
C716 C719 1.539 . S
C717 C713 1.408 . S
C717 C716 1.404 . S
C717 H729 0.930 . S
C718 C714 1.524 . S
C718 H730 0.956 . S
C718 H731 0.961 . S
C718 H732 0.961 . S
C719 C716 1.539 . S
C719 H733 0.958 . S
C719 H734 0.961 . S
C719 H735 0.960 . S
H720 C704 0.931 . S
H721 C709 0.929 . S
H722 C710 0.960 . S
H723 C710 0.962 . S
H724 C710 0.960 . S
H725 C711 0.961 . S
H726 C711 0.961 . S
H727 C711 0.961 . S
H728 C712 0.931 . S
H729 C717 0.930 . S
H730 C718 0.956 . S
H731 C718 0.961 . S
H732 C718 0.961 . S
H733 C719 0.958 . S
H734 C719 0.961 . S
H735 C719 0.960 . S
C736 C737 1.391 . S
C736 C738 1.394 . S
C736 H752 0.931 . S
C737 C736 1.391 . S
C737 C741 1.376 . S
C738 C736 1.394 . S
C738 C739 1.369 . S
C738 C742 1.531 . S
C739 C738 1.369 . S
C739 C740 1.410 . S
C739 C747 1.503 . S
C740 C739 1.410 . S
C740 C741 1.392 . S
C740 C743 1.511 . S
C741 C737 1.376 . S
C741 C740 1.392 . S
C741 H753 0.929 . S
C742 C738 1.531 . S
C742 H754 0.960 . S
C742 H755 0.962 . S
C742 H756 0.960 . S
C743 C740 1.511 . S
C743 H757 0.961 . S
C743 H758 0.961 . S
C743 H759 0.961 . S
C744 C745 1.370 . S
C744 C746 1.363 . S
C744 H760 0.931 . S
C745 C744 1.370 . S
C745 C749 1.408 . S
C746 C744 1.363 . S
C746 C747 1.370 . S
C746 C750 1.524 . S
C747 C739 1.503 . S
C747 C746 1.370 . S
C747 C748 1.403 . S
C748 C747 1.403 . S
C748 C749 1.404 . S
C748 C751 1.539 . S
C749 C745 1.408 . S
C749 C748 1.404 . S
C749 H761 0.930 . S
C750 C746 1.524 . S
C750 H762 0.956 . S
C750 H763 0.961 . S
C750 H764 0.961 . S
C751 C748 1.539 . S
C751 H765 0.958 . S
C751 H766 0.961 . S
C751 H767 0.960 . S
H752 C736 0.931 . S
H753 C741 0.929 . S
H754 C742 0.960 . S
H755 C742 0.962 . S
H756 C742 0.960 . S
H757 C743 0.961 . S
H758 C743 0.961 . S
H759 C743 0.961 . S
H760 C744 0.931 . S
H761 C749 0.930 . S
H762 C750 0.956 . S
H763 C750 0.961 . S
H764 C750 0.961 . S
H765 C751 0.958 . S
H766 C751 0.961 . S
H767 C751 0.960 . S
C768 C769 1.391 . S
C768 C770 1.394 . S
C768 H784 0.931 . S
C769 C768 1.391 . S
C769 C773 1.376 . S
C770 C768 1.394 . S
C770 C771 1.369 . S
C770 C774 1.531 . S
C771 C770 1.369 . S
C771 C772 1.410 . S
C771 C779 1.503 . S
C772 C771 1.410 . S
C772 C773 1.392 . S
C772 C775 1.511 . S
C773 C769 1.376 . S
C773 C772 1.392 . S
C773 H785 0.929 . S
C774 C770 1.531 . S
C774 H786 0.960 . S
C774 H787 0.962 . S
C774 H788 0.960 . S
C775 C772 1.511 . S
C775 H789 0.961 . S
C775 H790 0.961 . S
C775 H791 0.961 . S
C776 C777 1.370 . S
C776 C778 1.363 . S
C776 H792 0.931 . S
C777 C776 1.370 . S
C777 C781 1.408 . S
C778 C776 1.363 . S
C778 C779 1.370 . S
C778 C782 1.524 . S
C779 C771 1.503 . S
C779 C778 1.370 . S
C779 C780 1.403 . S
C780 C779 1.403 . S
C780 C781 1.404 . S
C780 C783 1.539 . S
C781 C777 1.408 . S
C781 C780 1.404 . S
C781 H793 0.930 . S
C782 C778 1.524 . S
C782 H794 0.956 . S
C782 H795 0.961 . S
C782 H796 0.961 . S
C783 C780 1.539 . S
C783 H797 0.958 . S
C783 H798 0.961 . S
C783 H799 0.960 . S
H784 C768 0.931 . S
H785 C773 0.929 . S
H786 C774 0.960 . S
H787 C774 0.962 . S
H788 C774 0.960 . S
H789 C775 0.961 . S
H790 C775 0.961 . S
H791 C775 0.961 . S
H792 C776 0.931 . S
H793 C781 0.930 . S
H794 C782 0.956 . S
H795 C782 0.961 . S
H796 C782 0.961 . S
H797 C783 0.958 . S
H798 C783 0.961 . S
H799 C783 0.960 . S
C800 C801 1.391 . S
C800 C802 1.394 . S
C800 H816 0.931 . S
C801 C800 1.391 . S
C801 C805 1.376 . S
C802 C800 1.394 . S
C802 C803 1.369 . S
C802 C806 1.531 . S
C803 C802 1.369 . S
C803 C804 1.410 . S
C803 C811 1.503 . S
C804 C803 1.410 . S
C804 C805 1.392 . S
C804 C807 1.511 . S
C805 C801 1.376 . S
C805 C804 1.392 . S
C805 H817 0.929 . S
C806 C802 1.531 . S
C806 H818 0.960 . S
C806 H819 0.962 . S
C806 H820 0.960 . S
C807 C804 1.511 . S
C807 H821 0.961 . S
C807 H822 0.961 . S
C807 H823 0.961 . S
C808 C809 1.370 . S
C808 C810 1.363 . S
C808 H824 0.931 . S
C809 C808 1.370 . S
C809 C813 1.408 . S
C810 C808 1.363 . S
C810 C811 1.370 . S
C810 C814 1.524 . S
C811 C803 1.503 . S
C811 C810 1.370 . S
C811 C812 1.403 . S
C812 C811 1.403 . S
C812 C813 1.404 . S
C812 C815 1.539 . S
C813 C809 1.408 . S
C813 C812 1.404 . S
C813 H825 0.930 . S
C814 C810 1.524 . S
C814 H826 0.956 . S
C814 H827 0.961 . S
C814 H828 0.961 . S
C815 C812 1.539 . S
C815 H829 0.958 . S
C815 H830 0.961 . S
C815 H831 0.960 . S
H816 C800 0.931 . S
H817 C805 0.929 . S
H818 C806 0.960 . S
H819 C806 0.962 . S
H820 C806 0.960 . S
H821 C807 0.961 . S
H822 C807 0.961 . S
H823 C807 0.961 . S
H824 C808 0.931 . S
H825 C813 0.930 . S
H826 C814 0.956 . S
H827 C814 0.961 . S
H828 C814 0.961 . S
H829 C815 0.958 . S
H830 C815 0.961 . S
H831 C815 0.960 . S
C832 C833 1.391 . S
C832 C834 1.394 . S
C832 H848 0.931 . S
C833 C832 1.391 . S
C833 C837 1.376 . S
C834 C832 1.394 . S
C834 C835 1.369 . S
C834 C838 1.531 . S
C835 C834 1.369 . S
C835 C836 1.410 . S
C835 C843 1.503 . S
C836 C835 1.410 . S
C836 C837 1.392 . S
C836 C839 1.511 . S
C837 C833 1.376 . S
C837 C836 1.392 . S
C837 H849 0.929 . S
C838 C834 1.531 . S
C838 H850 0.960 . S
C838 H851 0.962 . S
C838 H852 0.960 . S
C839 C836 1.511 . S
C839 H853 0.961 . S
C839 H854 0.961 . S
C839 H855 0.961 . S
C840 C841 1.370 . S
C840 C842 1.363 . S
C840 H856 0.931 . S
C841 C840 1.370 . S
C841 C845 1.408 . S
C842 C840 1.363 . S
C842 C843 1.370 . S
C842 C846 1.524 . S
C843 C835 1.503 . S
C843 C842 1.370 . S
C843 C844 1.403 . S
C844 C843 1.403 . S
C844 C845 1.404 . S
C844 C847 1.539 . S
C845 C841 1.408 . S
C845 C844 1.404 . S
C845 H857 0.930 . S
C846 C842 1.524 . S
C846 H858 0.956 . S
C846 H859 0.961 . S
C846 H860 0.961 . S
C847 C844 1.539 . S
C847 H861 0.958 . S
C847 H862 0.961 . S
C847 H863 0.960 . S
H848 C832 0.931 . S
H849 C837 0.929 . S
H850 C838 0.960 . S
H851 C838 0.962 . S
H852 C838 0.960 . S
H853 C839 0.961 . S
H854 C839 0.961 . S
H855 C839 0.961 . S
H856 C840 0.931 . S
H857 C845 0.930 . S
H858 C846 0.956 . S
H859 C846 0.961 . S
H860 C846 0.961 . S
H861 C847 0.958 . S
H862 C847 0.961 . S
H863 C847 0.960 . S
C864 C865 1.391 . S
C864 C866 1.394 . S
C864 H880 0.931 . S
C865 C864 1.391 . S
C865 C869 1.376 . S
C866 C864 1.394 . S
C866 C867 1.369 . S
C866 C870 1.531 . S
C867 C866 1.369 . S
C867 C868 1.410 . S
C867 C875 1.503 . S
C868 C867 1.410 . S
C868 C869 1.392 . S
C868 C871 1.511 . S
C869 C865 1.376 . S
C869 C868 1.392 . S
C869 H881 0.929 . S
C870 C866 1.531 . S
C870 H882 0.960 . S
C870 H883 0.962 . S
C870 H884 0.960 . S
C871 C868 1.511 . S
C871 H885 0.961 . S
C871 H886 0.961 . S
C871 H887 0.961 . S
C872 C873 1.370 . S
C872 C874 1.363 . S
C872 H888 0.931 . S
C873 C872 1.370 . S
C873 C877 1.408 . S
C874 C872 1.363 . S
C874 C875 1.370 . S
C874 C878 1.524 . S
C875 C867 1.503 . S
C875 C874 1.370 . S
C875 C876 1.403 . S
C876 C875 1.403 . S
C876 C877 1.404 . S
C876 C879 1.539 . S
C877 C873 1.408 . S
C877 C876 1.404 . S
C877 H889 0.930 . S
C878 C874 1.524 . S
C878 H890 0.956 . S
C878 H891 0.961 . S
C878 H892 0.961 . S
C879 C876 1.539 . S
C879 H893 0.958 . S
C879 H894 0.961 . S
C879 H895 0.960 . S
H880 C864 0.931 . S
H881 C869 0.929 . S
H882 C870 0.960 . S
H883 C870 0.962 . S
H884 C870 0.960 . S
H885 C871 0.961 . S
H886 C871 0.961 . S
H887 C871 0.961 . S
H888 C872 0.931 . S
H889 C877 0.930 . S
H890 C878 0.956 . S
H891 C878 0.961 . S
H892 C878 0.961 . S
H893 C879 0.958 . S
H894 C879 0.961 . S
H895 C879 0.960 . S
C896 C897 1.391 . S
C896 C898 1.394 . S
C896 H912 0.931 . S
C897 C896 1.391 . S
C897 C901 1.376 . S
C898 C896 1.394 . S
C898 C899 1.369 . S
C898 C902 1.531 . S
C899 C898 1.369 . S
C899 C900 1.410 . S
C899 C907 1.503 . S
C900 C899 1.410 . S
C900 C901 1.392 . S
C900 C903 1.511 . S
C901 C897 1.376 . S
C901 C900 1.392 . S
C901 H913 0.929 . S
C902 C898 1.531 . S
C902 H914 0.960 . S
C902 H915 0.962 . S
C902 H916 0.960 . S
C903 C900 1.511 . S
C903 H917 0.961 . S
C903 H918 0.961 . S
C903 H919 0.961 . S
C904 C905 1.370 . S
C904 C906 1.363 . S
C904 H920 0.931 . S
C905 C904 1.370 . S
C905 C909 1.408 . S
C906 C904 1.363 . S
C906 C907 1.370 . S
C906 C910 1.524 . S
C907 C899 1.503 . S
C907 C906 1.370 . S
C907 C908 1.403 . S
C908 C907 1.403 . S
C908 C909 1.404 . S
C908 C911 1.539 . S
C909 C905 1.408 . S
C909 C908 1.404 . S
C909 H921 0.930 . S
C910 C906 1.524 . S
C910 H922 0.956 . S
C910 H923 0.961 . S
C910 H924 0.961 . S
C911 C908 1.539 . S
C911 H925 0.958 . S
C911 H926 0.961 . S
C911 H927 0.960 . S
H912 C896 0.931 . S
H913 C901 0.929 . S
H914 C902 0.960 . S
H915 C902 0.962 . S
H916 C902 0.960 . S
H917 C903 0.961 . S
H918 C903 0.961 . S
H919 C903 0.961 . S
H920 C904 0.931 . S
H921 C909 0.930 . S
H922 C910 0.956 . S
H923 C910 0.961 . S
H924 C910 0.961 . S
H925 C911 0.958 . S
H926 C911 0.961 . S
H927 C911 0.960 . S
C928 C929 1.391 . S
C928 C930 1.394 . S
C928 H944 0.931 . S
C929 C928 1.391 . S
C929 C933 1.376 . S
C930 C928 1.394 . S
C930 C931 1.369 . S
C930 C934 1.531 . S
C931 C930 1.369 . S
C931 C932 1.410 . S
C931 C939 1.503 . S
C932 C931 1.410 . S
C932 C933 1.392 . S
C932 C935 1.511 . S
C933 C929 1.376 . S
C933 C932 1.392 . S
C933 H945 0.929 . S
C934 C930 1.531 . S
C934 H946 0.960 . S
C934 H947 0.962 . S
C934 H948 0.960 . S
C935 C932 1.511 . S
C935 H949 0.961 . S
C935 H950 0.961 . S
C935 H951 0.961 . S
C936 C937 1.370 . S
C936 C938 1.363 . S
C936 H952 0.931 . S
C937 C936 1.370 . S
C937 C941 1.408 . S
C938 C936 1.363 . S
C938 C939 1.370 . S
C938 C942 1.524 . S
C939 C931 1.503 . S
C939 C938 1.370 . S
C939 C940 1.403 . S
C940 C939 1.403 . S
C940 C941 1.404 . S
C940 C943 1.539 . S
C941 C937 1.408 . S
C941 C940 1.404 . S
C941 H953 0.930 . S
C942 C938 1.524 . S
C942 H954 0.956 . S
C942 H955 0.961 . S
C942 H956 0.961 . S
C943 C940 1.539 . S
C943 H957 0.958 . S
C943 H958 0.961 . S
C943 H959 0.960 . S
H944 C928 0.931 . S
H945 C933 0.929 . S
H946 C934 0.960 . S
H947 C934 0.962 . S
H948 C934 0.960 . S
H949 C935 0.961 . S
H950 C935 0.961 . S
H951 C935 0.961 . S
H952 C936 0.931 . S
H953 C941 0.930 . S
H954 C942 0.956 . S
H955 C942 0.961 . S
H956 C942 0.961 . S
H957 C943 0.958 . S
H958 C943 0.961 . S
H959 C943 0.960 . S
C960 C961 1.391 . S
C960 C962 1.394 . S
C960 H976 0.931 . S
C961 C960 1.391 . S
C961 C965 1.376 . S
C962 C960 1.394 . S
C962 C963 1.369 . S
C962 C966 1.531 . S
C963 C962 1.369 . S
C963 C964 1.410 . S
C963 C971 1.503 . S
C964 C963 1.410 . S
C964 C965 1.392 . S
C964 C967 1.511 . S
C965 C961 1.376 . S
C965 C964 1.392 . S
C965 H977 0.929 . S
C966 C962 1.531 . S
C966 H978 0.960 . S
C966 H979 0.962 . S
C966 H980 0.960 . S
C967 C964 1.511 . S
C967 H981 0.961 . S
C967 H982 0.961 . S
C967 H983 0.961 . S
C968 C969 1.370 . S
C968 C970 1.363 . S
C968 H984 0.931 . S
C969 C968 1.370 . S
C969 C973 1.408 . S
C970 C968 1.363 . S
C970 C971 1.370 . S
C970 C974 1.524 . S
C971 C963 1.503 . S
C971 C970 1.370 . S
C971 C972 1.403 . S
C972 C971 1.403 . S
C972 C973 1.404 . S
C972 C975 1.539 . S
C973 C969 1.408 . S
C973 C972 1.404 . S
C973 H985 0.930 . S
C974 C970 1.524 . S
C974 H986 0.956 . S
C974 H987 0.961 . S
C974 H988 0.961 . S
C975 C972 1.539 . S
C975 H989 0.958 . S
C975 H990 0.961 . S
C975 H991 0.960 . S
H976 C960 0.931 . S
H977 C965 0.929 . S
H978 C966 0.960 . S
H979 C966 0.962 . S
H980 C966 0.960 . S
H981 C967 0.961 . S
H982 C967 0.961 . S
H983 C967 0.961 . S
H984 C968 0.931 . S
H985 C973 0.930 . S
H986 C974 0.956 . S
H987 C974 0.961 . S
H988 C974 0.961 . S
H989 C975 0.958 . S
H990 C975 0.961 . S
H991 C975 0.960 . S
C992 C993 1.391 . S
C992 C994 1.394 . S
C992 H1008 0.931 . S
C993 C992 1.391 . S
C993 C997 1.376 . S
C994 C992 1.394 . S
C994 C995 1.369 . S
C994 C998 1.531 . S
C995 C994 1.369 . S
C995 C996 1.410 . S
C995 C1003 1.503 . S
C996 C995 1.410 . S
C996 C997 1.392 . S
C996 C999 1.511 . S
C997 C993 1.376 . S
C997 C996 1.392 . S
C997 H1009 0.929 . S
C998 C994 1.531 . S
C998 H1010 0.960 . S
C998 H1011 0.962 . S
C998 H1012 0.960 . S
C999 C996 1.511 . S
C999 H1013 0.961 . S
C999 H1014 0.961 . S
C999 H1015 0.961 . S
C1000 C1001 1.370 . S
C1000 C1002 1.363 . S
C1000 H1016 0.931 . S
C1001 C1000 1.370 . S
C1001 C1005 1.408 . S
C1002 C1000 1.363 . S
C1002 C1003 1.370 . S
C1002 C1006 1.524 . S
C1003 C995 1.503 . S
C1003 C1002 1.370 . S
C1003 C1004 1.403 . S
C1004 C1003 1.403 . S
C1004 C1005 1.404 . S
C1004 C1007 1.539 . S
C1005 C1001 1.408 . S
C1005 C1004 1.404 . S
C1005 H1017 0.930 . S
C1006 C1002 1.524 . S
C1006 H1018 0.956 . S
C1006 H1019 0.961 . S
C1006 H1020 0.961 . S
C1007 C1004 1.539 . S
C1007 H1021 0.958 . S
C1007 H1022 0.961 . S
C1007 H1023 0.960 . S
H1008 C992 0.931 . S
H1009 C997 0.929 . S
H1010 C998 0.960 . S
H1011 C998 0.962 . S
H1012 C998 0.960 . S
H1013 C999 0.961 . S
H1014 C999 0.961 . S
H1015 C999 0.961 . S
H1016 C1000 0.931 . S
H1017 C1005 0.930 . S
H1018 C1006 0.956 . S
H1019 C1006 0.961 . S
H1020 C1006 0.961 . S
H1021 C1007 0.958 . S
H1022 C1007 0.961 . S
H1023 C1007 0.960 . S
C1024 C1025 1.391 . S
C1024 C1026 1.394 . S
C1024 H1040 0.931 . S
C1025 C1024 1.391 . S
C1025 C1029 1.376 . S
C1026 C1024 1.394 . S
C1026 C1027 1.369 . S
C1026 C1030 1.531 . S
C1027 C1026 1.369 . S
C1027 C1028 1.410 . S
C1027 C1035 1.503 . S
C1028 C1027 1.410 . S
C1028 C1029 1.392 . S
C1028 C1031 1.511 . S
C1029 C1025 1.376 . S
C1029 C1028 1.392 . S
C1029 H1041 0.929 . S
C1030 C1026 1.531 . S
C1030 H1042 0.960 . S
C1030 H1043 0.962 . S
C1030 H1044 0.960 . S
C1031 C1028 1.511 . S
C1031 H1045 0.961 . S
C1031 H1046 0.961 . S
C1031 H1047 0.961 . S
C1032 C1033 1.370 . S
C1032 C1034 1.363 . S
C1032 H1048 0.931 . S
C1033 C1032 1.370 . S
C1033 C1037 1.408 . S
C1034 C1032 1.363 . S
C1034 C1035 1.370 . S
C1034 C1038 1.524 . S
C1035 C1027 1.503 . S
C1035 C1034 1.370 . S
C1035 C1036 1.403 . S
C1036 C1035 1.403 . S
C1036 C1037 1.404 . S
C1036 C1039 1.539 . S
C1037 C1033 1.408 . S
C1037 C1036 1.404 . S
C1037 H1049 0.930 . S
C1038 C1034 1.524 . S
C1038 H1050 0.956 . S
C1038 H1051 0.961 . S
C1038 H1052 0.961 . S
C1039 C1036 1.539 . S
C1039 H1053 0.958 1_556 S
C1039 H1054 0.961 1_556 S
C1039 H1055 0.960 1_556 S
H1040 C1024 0.931 . S
H1041 C1029 0.929 . S
H1042 C1030 0.960 . S
H1043 C1030 0.962 . S
H1044 C1030 0.960 . S
H1045 C1031 0.961 . S
H1046 C1031 0.961 . S
H1047 C1031 0.961 . S
H1048 C1032 0.931 . S
H1049 C1037 0.930 . S
H1050 C1038 0.956 . S
H1051 C1038 0.961 . S
H1052 C1038 0.961 . S
H1053 C1039 0.958 1_554 S
H1054 C1039 0.961 1_554 S
H1055 C1039 0.960 1_554 S
C1056 C1057 1.391 . S
C1056 C1058 1.394 . S
C1056 H1072 0.931 . S
C1057 C1056 1.391 . S
C1057 C1061 1.376 . S
C1058 C1056 1.394 . S
C1058 C1059 1.369 . S
C1058 C1062 1.531 . S
C1059 C1058 1.369 . S
C1059 C1060 1.410 . S
C1059 C1067 1.503 . S
C1060 C1059 1.410 . S
C1060 C1061 1.392 . S
C1060 C1063 1.511 . S
C1061 C1057 1.376 . S
C1061 C1060 1.392 . S
C1061 H1073 0.929 . S
C1062 C1058 1.531 . S
C1062 H1074 0.960 . S
C1062 H1075 0.962 . S
C1062 H1076 0.960 . S
C1063 C1060 1.511 . S
C1063 H1077 0.961 . S
C1063 H1078 0.961 . S
C1063 H1079 0.961 . S
C1064 C1065 1.370 . S
C1064 C1066 1.363 . S
C1064 H1080 0.931 . S
C1065 C1064 1.370 . S
C1065 C1069 1.408 . S
C1066 C1064 1.363 . S
C1066 C1067 1.370 . S
C1066 C1070 1.524 . S
C1067 C1059 1.503 . S
C1067 C1066 1.370 . S
C1067 C1068 1.403 . S
C1068 C1067 1.403 . S
C1068 C1069 1.404 . S
C1068 C1071 1.539 . S
C1069 C1065 1.408 . S
C1069 C1068 1.404 . S
C1069 H1081 0.930 . S
C1070 C1066 1.524 . S
C1070 H1082 0.956 . S
C1070 H1083 0.961 . S
C1070 H1084 0.961 . S
C1071 C1068 1.539 . S
C1071 H1085 0.958 . S
C1071 H1086 0.961 . S
C1071 H1087 0.960 . S
H1072 C1056 0.931 . S
H1073 C1061 0.929 . S
H1074 C1062 0.960 . S
H1075 C1062 0.962 . S
H1076 C1062 0.960 . S
H1077 C1063 0.961 . S
H1078 C1063 0.961 . S
H1079 C1063 0.961 . S
H1080 C1064 0.931 . S
H1081 C1069 0.930 . S
H1082 C1070 0.956 . S
H1083 C1070 0.961 . S
H1084 C1070 0.961 . S
H1085 C1071 0.958 . S
H1086 C1071 0.961 . S
H1087 C1071 0.960 . S
C1088 C1089 1.391 . S
C1088 C1090 1.394 . S
C1088 H1104 0.931 . S
C1089 C1088 1.391 . S
C1089 C1093 1.376 . S
C1090 C1088 1.394 . S
C1090 C1091 1.369 . S
C1090 C1094 1.531 . S
C1091 C1090 1.369 . S
C1091 C1092 1.410 . S
C1091 C1099 1.503 . S
C1092 C1091 1.410 . S
C1092 C1093 1.392 . S
C1092 C1095 1.511 . S
C1093 C1089 1.376 . S
C1093 C1092 1.392 . S
C1093 H1105 0.929 . S
C1094 C1090 1.531 . S
C1094 H1106 0.960 . S
C1094 H1107 0.962 . S
C1094 H1108 0.960 . S
C1095 C1092 1.511 . S
C1095 H1109 0.961 . S
C1095 H1110 0.961 . S
C1095 H1111 0.961 . S
C1096 C1097 1.370 . S
C1096 C1098 1.363 . S
C1096 H1112 0.931 . S
C1097 C1096 1.370 . S
C1097 C1101 1.408 . S
C1098 C1096 1.363 . S
C1098 C1099 1.370 . S
C1098 C1102 1.524 . S
C1099 C1091 1.503 . S
C1099 C1098 1.370 . S
C1099 C1100 1.403 . S
C1100 C1099 1.403 . S
C1100 C1101 1.404 . S
C1100 C1103 1.539 . S
C1101 C1097 1.408 . S
C1101 C1100 1.404 . S
C1101 H1113 0.930 . S
C1102 C1098 1.524 . S
C1102 H1114 0.956 . S
C1102 H1115 0.961 . S
C1102 H1116 0.961 . S
C1103 C1100 1.539 . S
C1103 H1117 0.958 . S
C1103 H1118 0.961 . S
C1103 H1119 0.960 . S
H1104 C1088 0.931 . S
H1105 C1093 0.929 . S
H1106 C1094 0.960 . S
H1107 C1094 0.962 . S
H1108 C1094 0.960 . S
H1109 C1095 0.961 . S
H1110 C1095 0.961 . S
H1111 C1095 0.961 . S
H1112 C1096 0.931 . S
H1113 C1101 0.930 . S
H1114 C1102 0.956 . S
H1115 C1102 0.961 . S
H1116 C1102 0.961 . S
H1117 C1103 0.958 . S
H1118 C1103 0.961 . S
H1119 C1103 0.960 . S
C1120 C1121 1.391 . S
C1120 C1122 1.394 . S
C1120 H1136 0.931 . S
C1121 C1120 1.391 . S
C1121 C1125 1.376 . S
C1122 C1120 1.394 . S
C1122 C1123 1.369 . S
C1122 C1126 1.531 . S
C1123 C1122 1.369 . S
C1123 C1124 1.410 . S
C1123 C1131 1.503 . S
C1124 C1123 1.410 . S
C1124 C1125 1.392 . S
C1124 C1127 1.511 . S
C1125 C1121 1.376 . S
C1125 C1124 1.392 . S
C1125 H1137 0.929 . S
C1126 C1122 1.531 . S
C1126 H1138 0.960 . S
C1126 H1139 0.962 . S
C1126 H1140 0.960 . S
C1127 C1124 1.511 . S
C1127 H1141 0.961 . S
C1127 H1142 0.961 . S
C1127 H1143 0.961 . S
C1128 C1129 1.370 . S
C1128 C1130 1.363 . S
C1128 H1144 0.931 . S
C1129 C1128 1.370 . S
C1129 C1133 1.408 . S
C1130 C1128 1.363 . S
C1130 C1131 1.370 . S
C1130 C1134 1.524 . S
C1131 C1123 1.503 . S
C1131 C1130 1.370 . S
C1131 C1132 1.403 . S
C1132 C1131 1.403 . S
C1132 C1133 1.404 . S
C1132 C1135 1.539 . S
C1133 C1129 1.408 . S
C1133 C1132 1.404 . S
C1133 H1145 0.930 . S
C1134 C1130 1.524 . S
C1134 H1146 0.956 . S
C1134 H1147 0.961 . S
C1134 H1148 0.961 . S
C1135 C1132 1.539 . S
C1135 H1149 0.958 . S
C1135 H1150 0.961 . S
C1135 H1151 0.960 . S
H1136 C1120 0.931 . S
H1137 C1125 0.929 . S
H1138 C1126 0.960 . S
H1139 C1126 0.962 . S
H1140 C1126 0.960 . S
H1141 C1127 0.961 . S
H1142 C1127 0.961 . S
H1143 C1127 0.961 . S
H1144 C1128 0.931 . S
H1145 C1133 0.930 . S
H1146 C1134 0.956 . S
H1147 C1134 0.961 . S
H1148 C1134 0.961 . S
H1149 C1135 0.958 . S
H1150 C1135 0.961 . S
H1151 C1135 0.960 . S
C1152 C1153 1.391 . S
C1152 C1154 1.394 . S
C1152 H1168 0.931 . S
C1153 C1152 1.391 . S
C1153 C1157 1.376 . S
C1154 C1152 1.394 . S
C1154 C1155 1.369 . S
C1154 C1158 1.531 . S
C1155 C1154 1.369 . S
C1155 C1156 1.410 . S
C1155 C1163 1.503 . S
C1156 C1155 1.410 . S
C1156 C1157 1.392 . S
C1156 C1159 1.511 . S
C1157 C1153 1.376 . S
C1157 C1156 1.392 . S
C1157 H1169 0.929 . S
C1158 C1154 1.531 . S
C1158 H1170 0.960 . S
C1158 H1171 0.962 . S
C1158 H1172 0.960 . S
C1159 C1156 1.511 . S
C1159 H1173 0.961 . S
C1159 H1174 0.961 . S
C1159 H1175 0.961 . S
C1160 C1161 1.370 . S
C1160 C1162 1.363 . S
C1160 H1176 0.931 . S
C1161 C1160 1.370 . S
C1161 C1165 1.408 . S
C1162 C1160 1.363 . S
C1162 C1163 1.370 . S
C1162 C1166 1.524 . S
C1163 C1155 1.503 . S
C1163 C1162 1.370 . S
C1163 C1164 1.403 . S
C1164 C1163 1.403 . S
C1164 C1165 1.404 . S
C1164 C1167 1.539 . S
C1165 C1161 1.408 . S
C1165 C1164 1.404 . S
C1165 H1177 0.930 . S
C1166 C1162 1.524 . S
C1166 H1178 0.956 . S
C1166 H1179 0.961 . S
C1166 H1180 0.961 . S
C1167 C1164 1.539 . S
C1167 H1181 0.958 . S
C1167 H1182 0.961 . S
C1167 H1183 0.960 . S
H1168 C1152 0.931 . S
H1169 C1157 0.929 . S
H1170 C1158 0.960 . S
H1171 C1158 0.962 . S
H1172 C1158 0.960 . S
H1173 C1159 0.961 . S
H1174 C1159 0.961 . S
H1175 C1159 0.961 . S
H1176 C1160 0.931 . S
H1177 C1165 0.930 . S
H1178 C1166 0.956 . S
H1179 C1166 0.961 . S
H1180 C1166 0.961 . S
H1181 C1167 0.958 . S
H1182 C1167 0.961 . S
H1183 C1167 0.960 . S
C1184 C1185 1.391 . S
C1184 C1186 1.394 . S
C1184 H1200 0.931 . S
C1185 C1184 1.391 . S
C1185 C1189 1.376 . S
C1186 C1184 1.394 . S
C1186 C1187 1.369 . S
C1186 C1190 1.531 . S
C1187 C1186 1.369 . S
C1187 C1188 1.410 . S
C1187 C1195 1.503 . S
C1188 C1187 1.410 . S
C1188 C1189 1.392 . S
C1188 C1191 1.511 . S
C1189 C1185 1.376 . S
C1189 C1188 1.392 . S
C1189 H1201 0.929 . S
C1190 C1186 1.531 . S
C1190 H1202 0.960 . S
C1190 H1203 0.962 . S
C1190 H1204 0.960 . S
C1191 C1188 1.511 . S
C1191 H1205 0.961 . S
C1191 H1206 0.961 . S
C1191 H1207 0.961 . S
C1192 C1193 1.370 . S
C1192 C1194 1.363 . S
C1192 H1208 0.931 . S
C1193 C1192 1.370 . S
C1193 C1197 1.408 . S
C1194 C1192 1.363 . S
C1194 C1195 1.370 . S
C1194 C1198 1.524 . S
C1195 C1187 1.503 . S
C1195 C1194 1.370 . S
C1195 C1196 1.403 . S
C1196 C1195 1.403 . S
C1196 C1197 1.404 . S
C1196 C1199 1.539 . S
C1197 C1193 1.408 . S
C1197 C1196 1.404 . S
C1197 H1209 0.930 . S
C1198 C1194 1.524 . S
C1198 H1210 0.956 . S
C1198 H1211 0.961 . S
C1198 H1212 0.961 . S
C1199 C1196 1.539 . S
C1199 H1213 0.958 . S
C1199 H1214 0.961 . S
C1199 H1215 0.960 . S
H1200 C1184 0.931 . S
H1201 C1189 0.929 . S
H1202 C1190 0.960 . S
H1203 C1190 0.962 . S
H1204 C1190 0.960 . S
H1205 C1191 0.961 . S
H1206 C1191 0.961 . S
H1207 C1191 0.961 . S
H1208 C1192 0.931 . S
H1209 C1197 0.930 . S
H1210 C1198 0.956 . S
H1211 C1198 0.961 . S
H1212 C1198 0.961 . S
H1213 C1199 0.958 . S
H1214 C1199 0.961 . S
H1215 C1199 0.960 . S
C1216 C1217 1.391 . S
C1216 C1218 1.394 . S
C1216 H1232 0.931 . S
C1217 C1216 1.391 . S
C1217 C1221 1.376 . S
C1218 C1216 1.394 . S
C1218 C1219 1.369 . S
C1218 C1222 1.531 . S
C1219 C1218 1.369 . S
C1219 C1220 1.410 . S
C1219 C1227 1.503 . S
C1220 C1219 1.410 . S
C1220 C1221 1.392 . S
C1220 C1223 1.511 . S
C1221 C1217 1.376 . S
C1221 C1220 1.392 . S
C1221 H1233 0.929 . S
C1222 C1218 1.531 . S
C1222 H1234 0.960 . S
C1222 H1235 0.962 . S
C1222 H1236 0.960 . S
C1223 C1220 1.511 . S
C1223 H1237 0.961 . S
C1223 H1238 0.961 . S
C1223 H1239 0.961 . S
C1224 C1225 1.370 . S
C1224 C1226 1.363 . S
C1224 H1240 0.931 . S
C1225 C1224 1.370 . S
C1225 C1229 1.408 . S
C1226 C1224 1.363 . S
C1226 C1227 1.370 . S
C1226 C1230 1.524 . S
C1227 C1219 1.503 . S
C1227 C1226 1.370 . S
C1227 C1228 1.403 . S
C1228 C1227 1.403 . S
C1228 C1229 1.404 . S
C1228 C1231 1.539 . S
C1229 C1225 1.408 . S
C1229 C1228 1.404 . S
C1229 H1241 0.930 . S
C1230 C1226 1.524 . S
C1230 H1242 0.956 . S
C1230 H1243 0.961 . S
C1230 H1244 0.961 . S
C1231 C1228 1.539 . S
C1231 H1245 0.958 . S
C1231 H1246 0.961 . S
C1231 H1247 0.960 . S
H1232 C1216 0.931 . S
H1233 C1221 0.929 . S
H1234 C1222 0.960 . S
H1235 C1222 0.962 . S
H1236 C1222 0.960 . S
H1237 C1223 0.961 . S
H1238 C1223 0.961 . S
H1239 C1223 0.961 . S
H1240 C1224 0.931 . S
H1241 C1229 0.930 . S
H1242 C1230 0.956 . S
H1243 C1230 0.961 . S
H1244 C1230 0.961 . S
H1245 C1231 0.958 . S
H1246 C1231 0.961 . S
H1247 C1231 0.960 . S
C1248 C1249 1.391 . S
C1248 C1250 1.394 . S
C1248 H1264 0.931 . S
C1249 C1248 1.391 . S
C1249 C1253 1.376 . S
C1250 C1248 1.394 . S
C1250 C1251 1.369 . S
C1250 C1254 1.531 . S
C1251 C1250 1.369 . S
C1251 C1252 1.410 . S
C1251 C1259 1.503 . S
C1252 C1251 1.410 . S
C1252 C1253 1.392 . S
C1252 C1255 1.511 . S
C1253 C1249 1.376 . S
C1253 C1252 1.392 . S
C1253 H1265 0.929 . S
C1254 C1250 1.531 . S
C1254 H1266 0.960 . S
C1254 H1267 0.962 . S
C1254 H1268 0.960 . S
C1255 C1252 1.511 . S
C1255 H1269 0.961 . S
C1255 H1270 0.961 . S
C1255 H1271 0.961 . S
C1256 C1257 1.370 . S
C1256 C1258 1.363 . S
C1256 H1272 0.931 . S
C1257 C1256 1.370 . S
C1257 C1261 1.408 . S
C1258 C1256 1.363 . S
C1258 C1259 1.370 . S
C1258 C1262 1.524 . S
C1259 C1251 1.503 . S
C1259 C1258 1.370 . S
C1259 C1260 1.403 . S
C1260 C1259 1.403 . S
C1260 C1261 1.404 . S
C1260 C1263 1.539 . S
C1261 C1257 1.408 . S
C1261 C1260 1.404 . S
C1261 H1273 0.930 . S
C1262 C1258 1.524 . S
C1262 H1274 0.956 . S
C1262 H1275 0.961 . S
C1262 H1276 0.961 . S
C1263 C1260 1.539 . S
C1263 H1277 0.958 . S
C1263 H1278 0.961 . S
C1263 H1279 0.960 . S
H1264 C1248 0.931 . S
H1265 C1253 0.929 . S
H1266 C1254 0.960 . S
H1267 C1254 0.962 . S
H1268 C1254 0.960 . S
H1269 C1255 0.961 . S
H1270 C1255 0.961 . S
H1271 C1255 0.961 . S
H1272 C1256 0.931 . S
H1273 C1261 0.930 . S
H1274 C1262 0.956 . S
H1275 C1262 0.961 . S
H1276 C1262 0.961 . S
H1277 C1263 0.958 . S
H1278 C1263 0.961 . S
H1279 C1263 0.960 . S
C1280 C1281 1.391 . S
C1280 C1282 1.394 . S
C1280 H1296 0.931 . S
C1281 C1280 1.391 . S
C1281 C1285 1.376 . S
C1282 C1280 1.394 . S
C1282 C1283 1.369 . S
C1282 C1286 1.531 . S
C1283 C1282 1.369 . S
C1283 C1284 1.410 . S
C1283 C1291 1.503 . S
C1284 C1283 1.410 . S
C1284 C1285 1.392 . S
C1284 C1287 1.511 . S
C1285 C1281 1.376 . S
C1285 C1284 1.392 . S
C1285 H1297 0.929 . S
C1286 C1282 1.531 . S
C1286 H1298 0.960 . S
C1286 H1299 0.962 . S
C1286 H1300 0.960 . S
C1287 C1284 1.511 . S
C1287 H1301 0.961 . S
C1287 H1302 0.961 . S
C1287 H1303 0.961 . S
C1288 C1289 1.370 . S
C1288 C1290 1.363 . S
C1288 H1304 0.931 . S
C1289 C1288 1.370 . S
C1289 C1293 1.408 . S
C1290 C1288 1.363 . S
C1290 C1291 1.370 . S
C1290 C1294 1.524 . S
C1291 C1283 1.503 . S
C1291 C1290 1.370 . S
C1291 C1292 1.403 . S
C1292 C1291 1.403 . S
C1292 C1293 1.404 . S
C1292 C1295 1.539 . S
C1293 C1289 1.408 . S
C1293 C1292 1.404 . S
C1293 H1305 0.930 . S
C1294 C1290 1.524 . S
C1294 H1306 0.956 . S
C1294 H1307 0.961 . S
C1294 H1308 0.961 . S
C1295 C1292 1.539 . S
C1295 H1309 0.958 . S
C1295 H1310 0.961 . S
C1295 H1311 0.960 . S
H1296 C1280 0.931 . S
H1297 C1285 0.929 . S
H1298 C1286 0.960 . S
H1299 C1286 0.962 . S
H1300 C1286 0.960 . S
H1301 C1287 0.961 . S
H1302 C1287 0.961 . S
H1303 C1287 0.961 . S
H1304 C1288 0.931 . S
H1305 C1293 0.930 . S
H1306 C1294 0.956 . S
H1307 C1294 0.961 . S
H1308 C1294 0.961 . S
H1309 C1295 0.958 . S
H1310 C1295 0.961 . S
H1311 C1295 0.960 . S
C1312 C1313 1.391 . S
C1312 C1314 1.394 . S
C1312 H1328 0.931 . S
C1313 C1312 1.391 . S
C1313 C1317 1.376 . S
C1314 C1312 1.394 . S
C1314 C1315 1.369 . S
C1314 C1318 1.531 . S
C1315 C1314 1.369 . S
C1315 C1316 1.410 . S
C1315 C1323 1.503 . S
C1316 C1315 1.410 . S
C1316 C1317 1.392 . S
C1316 C1319 1.511 . S
C1317 C1313 1.376 . S
C1317 C1316 1.392 . S
C1317 H1329 0.929 . S
C1318 C1314 1.531 . S
C1318 H1330 0.960 . S
C1318 H1331 0.962 . S
C1318 H1332 0.960 . S
C1319 C1316 1.511 . S
C1319 H1333 0.961 . S
C1319 H1334 0.961 . S
C1319 H1335 0.961 . S
C1320 C1321 1.370 . S
C1320 C1322 1.363 . S
C1320 H1336 0.931 . S
C1321 C1320 1.370 . S
C1321 C1325 1.408 . S
C1322 C1320 1.363 . S
C1322 C1323 1.370 . S
C1322 C1326 1.524 . S
C1323 C1315 1.503 . S
C1323 C1322 1.370 . S
C1323 C1324 1.403 . S
C1324 C1323 1.403 . S
C1324 C1325 1.404 . S
C1324 C1327 1.539 . S
C1325 C1321 1.408 . S
C1325 C1324 1.404 . S
C1325 H1337 0.930 . S
C1326 C1322 1.524 . S
C1326 H1338 0.956 . S
C1326 H1339 0.961 . S
C1326 H1340 0.961 . S
C1327 C1324 1.539 . S
C1327 H1341 0.958 . S
C1327 H1342 0.961 . S
C1327 H1343 0.960 . S
H1328 C1312 0.931 . S
H1329 C1317 0.929 . S
H1330 C1318 0.960 . S
H1331 C1318 0.962 . S
H1332 C1318 0.960 . S
H1333 C1319 0.961 . S
H1334 C1319 0.961 . S
H1335 C1319 0.961 . S
H1336 C1320 0.931 . S
H1337 C1325 0.930 . S
H1338 C1326 0.956 . S
H1339 C1326 0.961 . S
H1340 C1326 0.961 . S
H1341 C1327 0.958 . S
H1342 C1327 0.961 . S
H1343 C1327 0.960 . S
C1344 C1345 1.391 . S
C1344 C1346 1.394 . S
C1344 H1360 0.931 . S
C1345 C1344 1.391 . S
C1345 C1349 1.376 . S
C1346 C1344 1.394 . S
C1346 C1347 1.369 . S
C1346 C1350 1.531 . S
C1347 C1346 1.369 . S
C1347 C1348 1.410 . S
C1347 C1355 1.503 . S
C1348 C1347 1.410 . S
C1348 C1349 1.392 . S
C1348 C1351 1.511 . S
C1349 C1345 1.376 . S
C1349 C1348 1.392 . S
C1349 H1361 0.929 . S
C1350 C1346 1.531 . S
C1350 H1362 0.960 . S
C1350 H1363 0.962 . S
C1350 H1364 0.960 . S
C1351 C1348 1.511 . S
C1351 H1365 0.961 . S
C1351 H1366 0.961 . S
C1351 H1367 0.961 . S
C1352 C1353 1.370 . S
C1352 C1354 1.363 . S
C1352 H1368 0.931 . S
C1353 C1352 1.370 . S
C1353 C1357 1.408 1_556 S
C1354 C1352 1.363 . S
C1354 C1355 1.370 . S
C1354 C1358 1.524 . S
C1355 C1347 1.503 . S
C1355 C1354 1.370 . S
C1355 C1356 1.403 . S
C1356 C1355 1.403 . S
C1356 C1357 1.404 1_556 S
C1356 C1359 1.539 1_556 S
C1357 C1353 1.408 1_554 S
C1357 C1356 1.404 1_554 S
C1357 H1369 0.930 . S
C1358 C1354 1.524 . S
C1358 H1370 0.956 . S
C1358 H1371 0.961 . S
C1358 H1372 0.961 . S
C1359 C1356 1.539 1_554 S
C1359 H1373 0.958 . S
C1359 H1374 0.961 . S
C1359 H1375 0.960 1_554 S
H1360 C1344 0.931 . S
H1361 C1349 0.929 . S
H1362 C1350 0.960 . S
H1363 C1350 0.962 . S
H1364 C1350 0.960 . S
H1365 C1351 0.961 . S
H1366 C1351 0.961 . S
H1367 C1351 0.961 . S
H1368 C1352 0.931 . S
H1369 C1357 0.930 . S
H1370 C1358 0.956 . S
H1371 C1358 0.961 . S
H1372 C1358 0.961 . S
H1373 C1359 0.958 . S
H1374 C1359 0.961 . S
H1375 C1359 0.960 1_556 S
C1376 C1377 1.391 . S
C1376 C1378 1.394 . S
C1376 H1392 0.931 . S
C1377 C1376 1.391 . S
C1377 C1381 1.376 . S
C1378 C1376 1.394 . S
C1378 C1379 1.369 . S
C1378 C1382 1.531 . S
C1379 C1378 1.369 . S
C1379 C1380 1.410 . S
C1379 C1387 1.503 . S
C1380 C1379 1.410 . S
C1380 C1381 1.392 . S
C1380 C1383 1.511 . S
C1381 C1377 1.376 . S
C1381 C1380 1.392 . S
C1381 H1393 0.929 . S
C1382 C1378 1.531 . S
C1382 H1394 0.960 . S
C1382 H1395 0.962 . S
C1382 H1396 0.960 . S
C1383 C1380 1.511 . S
C1383 H1397 0.961 . S
C1383 H1398 0.961 . S
C1383 H1399 0.961 . S
C1384 C1385 1.370 . S
C1384 C1386 1.363 . S
C1384 H1400 0.931 . S
C1385 C1384 1.370 . S
C1385 C1389 1.408 . S
C1386 C1384 1.363 . S
C1386 C1387 1.370 . S
C1386 C1390 1.524 . S
C1387 C1379 1.503 . S
C1387 C1386 1.370 . S
C1387 C1388 1.403 . S
C1388 C1387 1.403 . S
C1388 C1389 1.404 . S
C1388 C1391 1.539 . S
C1389 C1385 1.408 . S
C1389 C1388 1.404 . S
C1389 H1401 0.930 . S
C1390 C1386 1.524 . S
C1390 H1402 0.956 . S
C1390 H1403 0.961 . S
C1390 H1404 0.961 . S
C1391 C1388 1.539 . S
C1391 H1405 0.958 . S
C1391 H1406 0.961 . S
C1391 H1407 0.960 . S
H1392 C1376 0.931 . S
H1393 C1381 0.929 . S
H1394 C1382 0.960 . S
H1395 C1382 0.962 . S
H1396 C1382 0.960 . S
H1397 C1383 0.961 . S
H1398 C1383 0.961 . S
H1399 C1383 0.961 . S
H1400 C1384 0.931 . S
H1401 C1389 0.930 . S
H1402 C1390 0.956 . S
H1403 C1390 0.961 . S
H1404 C1390 0.961 . S
H1405 C1391 0.958 . S
H1406 C1391 0.961 . S
H1407 C1391 0.960 . S
C1408 C1409 1.391 . S
C1408 C1410 1.394 . S
C1408 H1424 0.931 . S
C1409 C1408 1.391 . S
C1409 C1413 1.376 . S
C1410 C1408 1.394 . S
C1410 C1411 1.369 . S
C1410 C1414 1.531 . S
C1411 C1410 1.369 . S
C1411 C1412 1.410 . S
C1411 C1419 1.503 . S
C1412 C1411 1.410 . S
C1412 C1413 1.392 . S
C1412 C1415 1.511 . S
C1413 C1409 1.376 . S
C1413 C1412 1.392 . S
C1413 H1425 0.929 . S
C1414 C1410 1.531 . S
C1414 H1426 0.960 . S
C1414 H1427 0.962 . S
C1414 H1428 0.960 . S
C1415 C1412 1.511 . S
C1415 H1429 0.961 . S
C1415 H1430 0.961 . S
C1415 H1431 0.961 . S
C1416 C1417 1.370 . S
C1416 C1418 1.363 . S
C1416 H1432 0.931 . S
C1417 C1416 1.370 . S
C1417 C1421 1.408 . S
C1418 C1416 1.363 . S
C1418 C1419 1.370 . S
C1418 C1422 1.524 . S
C1419 C1411 1.503 . S
C1419 C1418 1.370 . S
C1419 C1420 1.403 . S
C1420 C1419 1.403 . S
C1420 C1421 1.404 . S
C1420 C1423 1.539 . S
C1421 C1417 1.408 . S
C1421 C1420 1.404 . S
C1421 H1433 0.930 . S
C1422 C1418 1.524 . S
C1422 H1434 0.956 . S
C1422 H1435 0.961 . S
C1422 H1436 0.961 . S
C1423 C1420 1.539 . S
C1423 H1437 0.958 . S
C1423 H1438 0.961 . S
C1423 H1439 0.960 . S
H1424 C1408 0.931 . S
H1425 C1413 0.929 . S
H1426 C1414 0.960 . S
H1427 C1414 0.962 . S
H1428 C1414 0.960 . S
H1429 C1415 0.961 . S
H1430 C1415 0.961 . S
H1431 C1415 0.961 . S
H1432 C1416 0.931 . S
H1433 C1421 0.930 . S
H1434 C1422 0.956 . S
H1435 C1422 0.961 . S
H1436 C1422 0.961 . S
H1437 C1423 0.958 . S
H1438 C1423 0.961 . S
H1439 C1423 0.960 . S
C1440 C1441 1.391 . S
C1440 C1442 1.394 . S
C1440 H1456 0.931 . S
C1441 C1440 1.391 . S
C1441 C1445 1.376 . S
C1442 C1440 1.394 . S
C1442 C1443 1.369 . S
C1442 C1446 1.531 . S
C1443 C1442 1.369 . S
C1443 C1444 1.410 . S
C1443 C1451 1.503 . S
C1444 C1443 1.410 . S
C1444 C1445 1.392 . S
C1444 C1447 1.511 . S
C1445 C1441 1.376 . S
C1445 C1444 1.392 . S
C1445 H1457 0.929 . S
C1446 C1442 1.531 . S
C1446 H1458 0.960 . S
C1446 H1459 0.962 . S
C1446 H1460 0.960 . S
C1447 C1444 1.511 . S
C1447 H1461 0.961 . S
C1447 H1462 0.961 . S
C1447 H1463 0.961 . S
C1448 C1449 1.370 . S
C1448 C1450 1.363 . S
C1448 H1464 0.931 . S
C1449 C1448 1.370 . S
C1449 C1453 1.408 . S
C1450 C1448 1.363 . S
C1450 C1451 1.370 . S
C1450 C1454 1.524 . S
C1451 C1443 1.503 . S
C1451 C1450 1.370 . S
C1451 C1452 1.403 . S
C1452 C1451 1.403 . S
C1452 C1453 1.404 . S
C1452 C1455 1.539 . S
C1453 C1449 1.408 . S
C1453 C1452 1.404 . S
C1453 H1465 0.930 . S
C1454 C1450 1.524 . S
C1454 H1466 0.956 . S
C1454 H1467 0.961 . S
C1454 H1468 0.961 . S
C1455 C1452 1.539 . S
C1455 H1469 0.958 . S
C1455 H1470 0.961 . S
C1455 H1471 0.960 . S
H1456 C1440 0.931 . S
H1457 C1445 0.929 . S
H1458 C1446 0.960 . S
H1459 C1446 0.962 . S
H1460 C1446 0.960 . S
H1461 C1447 0.961 . S
H1462 C1447 0.961 . S
H1463 C1447 0.961 . S
H1464 C1448 0.931 . S
H1465 C1453 0.930 . S
H1466 C1454 0.956 . S
H1467 C1454 0.961 . S
H1468 C1454 0.961 . S
H1469 C1455 0.958 . S
H1470 C1455 0.961 . S
H1471 C1455 0.960 . S
C1472 C1473 1.391 . S
C1472 C1474 1.394 1_455 S
C1472 H1488 0.931 1_455 S
C1473 C1472 1.391 . S
C1473 C1477 1.376 . S
C1474 C1472 1.394 1_655 S
C1474 C1475 1.369 1_655 S
C1474 C1478 1.531 . S
C1475 C1474 1.369 1_455 S
C1475 C1476 1.410 . S
C1475 C1483 1.489 1_454 S
C1476 C1475 1.410 . S
C1476 C1477 1.392 . S
C1476 C1479 1.511 1_554 S
C1477 C1473 1.376 . S
C1477 C1476 1.392 . S
C1477 H1489 0.929 . S
C1478 C1474 1.531 . S
C1478 H1490 0.960 . S
C1478 H1491 0.962 . S
C1478 H1492 0.960 . S
C1479 C1476 1.511 1_556 S
C1479 H1493 0.961 . S
C1479 H1494 0.961 . S
C1479 H1495 0.961 . S
C1480 C1481 1.370 . S
C1480 C1482 1.364 . S
C1480 H1496 0.931 . S
C1481 C1480 1.370 . S
C1481 C1485 1.408 . S
C1482 C1480 1.364 . S
C1482 C1483 1.376 . S
C1482 C1486 1.522 1_656 S
C1483 C1475 1.489 1_656 S
C1483 C1482 1.376 . S
C1483 C1484 1.412 . S
C1484 C1483 1.412 . S
C1484 C1485 1.404 . S
C1484 C1487 1.539 . S
C1485 C1481 1.408 . S
C1485 C1484 1.404 . S
C1485 H1497 0.930 . S
C1486 C1482 1.522 1_454 S
C1486 H1498 0.956 . S
C1486 H1499 0.961 . S
C1486 H1500 0.961 . S
C1487 C1484 1.539 . S
C1487 H1501 0.951 1_556 S
C1487 H1502 0.961 . S
C1487 H1503 0.960 . S
H1488 C1472 0.931 1_655 S
H1489 C1477 0.929 . S
H1490 C1478 0.960 . S
H1491 C1478 0.962 . S
H1492 C1478 0.960 . S
H1493 C1479 0.961 . S
H1494 C1479 0.961 . S
H1495 C1479 0.961 . S
H1496 C1480 0.931 . S
H1497 C1485 0.930 . S
H1498 C1486 0.956 . S
H1499 C1486 0.961 . S
H1500 C1486 0.961 . S
H1501 C1487 0.951 1_554 S
H1502 C1487 0.961 . S
H1503 C1487 0.960 . S
C1504 C1505 1.391 . S
C1504 C1506 1.394 . S
C1504 H1520 0.931 . S
C1505 C1504 1.391 . S
C1505 C1509 1.376 . S
C1506 C1504 1.394 . S
C1506 C1507 1.369 . S
C1506 C1510 1.531 . S
C1507 C1506 1.369 . S
C1507 C1508 1.410 . S
C1507 C1515 1.503 . S
C1508 C1507 1.410 . S
C1508 C1509 1.392 . S
C1508 C1511 1.511 . S
C1509 C1505 1.376 . S
C1509 C1508 1.392 . S
C1509 H1521 0.929 . S
C1510 C1506 1.531 . S
C1510 H1522 0.960 . S
C1510 H1523 0.962 . S
C1510 H1524 0.960 . S
C1511 C1508 1.511 . S
C1511 H1525 0.961 . S
C1511 H1526 0.961 . S
C1511 H1527 0.961 . S
C1512 C1513 1.370 . S
C1512 C1514 1.363 . S
C1512 H1528 0.931 . S
C1513 C1512 1.370 . S
C1513 C1517 1.408 . S
C1514 C1512 1.363 . S
C1514 C1515 1.370 . S
C1514 C1518 1.524 . S
C1515 C1507 1.503 . S
C1515 C1514 1.370 . S
C1515 C1516 1.403 . S
C1516 C1515 1.403 . S
C1516 C1517 1.404 . S
C1516 C1519 1.539 . S
C1517 C1513 1.408 . S
C1517 C1516 1.404 . S
C1517 H1529 0.930 . S
C1518 C1514 1.524 . S
C1518 H1530 0.956 . S
C1518 H1531 0.961 . S
C1518 H1532 0.961 . S
C1519 C1516 1.539 . S
C1519 H1533 0.958 . S
C1519 H1534 0.961 . S
C1519 H1535 0.960 . S
H1520 C1504 0.931 . S
H1521 C1509 0.929 . S
H1522 C1510 0.960 . S
H1523 C1510 0.962 . S
H1524 C1510 0.960 . S
H1525 C1511 0.961 . S
H1526 C1511 0.961 . S
H1527 C1511 0.961 . S
H1528 C1512 0.931 . S
H1529 C1517 0.930 . S
H1530 C1518 0.956 . S
H1531 C1518 0.961 . S
H1532 C1518 0.961 . S
H1533 C1519 0.958 . S
H1534 C1519 0.961 . S
H1535 C1519 0.960 . S
C1536 C1537 1.391 . S
C1536 C1538 1.394 . S
C1536 H1552 0.931 . S
C1537 C1536 1.391 . S
C1537 C1541 1.376 . S
C1538 C1536 1.394 . S
C1538 C1539 1.369 . S
C1538 C1542 1.531 . S
C1539 C1538 1.369 . S
C1539 C1540 1.410 . S
C1539 C1547 1.503 . S
C1540 C1539 1.410 . S
C1540 C1541 1.392 . S
C1540 C1543 1.511 . S
C1541 C1537 1.376 . S
C1541 C1540 1.392 . S
C1541 H1553 0.929 . S
C1542 C1538 1.531 . S
C1542 H1554 0.960 . S
C1542 H1555 0.962 . S
C1542 H1556 0.960 . S
C1543 C1540 1.511 . S
C1543 H1557 0.961 . S
C1543 H1558 0.961 . S
C1543 H1559 0.961 . S
C1544 C1545 1.370 . S
C1544 C1546 1.363 . S
C1544 H1560 0.931 . S
C1545 C1544 1.370 . S
C1545 C1549 1.408 . S
C1546 C1544 1.363 . S
C1546 C1547 1.370 . S
C1546 C1550 1.524 . S
C1547 C1539 1.503 . S
C1547 C1546 1.370 . S
C1547 C1548 1.403 . S
C1548 C1547 1.403 . S
C1548 C1549 1.404 . S
C1548 C1551 1.539 . S
C1549 C1545 1.408 . S
C1549 C1548 1.404 . S
C1549 H1561 0.930 . S
C1550 C1546 1.524 . S
C1550 H1562 0.956 . S
C1550 H1563 0.961 . S
C1550 H1564 0.961 . S
C1551 C1548 1.539 . S
C1551 H1565 0.958 . S
C1551 H1566 0.961 . S
C1551 H1567 0.960 . S
H1552 C1536 0.931 . S
H1553 C1541 0.929 . S
H1554 C1542 0.960 . S
H1555 C1542 0.962 . S
H1556 C1542 0.960 . S
H1557 C1543 0.961 . S
H1558 C1543 0.961 . S
H1559 C1543 0.961 . S
H1560 C1544 0.931 . S
H1561 C1549 0.930 . S
H1562 C1550 0.956 . S
H1563 C1550 0.961 . S
H1564 C1550 0.961 . S
H1565 C1551 0.958 . S
H1566 C1551 0.961 . S
H1567 C1551 0.960 . S
C1568 C1569 1.391 . S
C1568 C1570 1.394 1_545 S
C1568 H1584 0.931 1_545 S
C1569 C1568 1.391 . S
C1569 C1573 1.376 . S
C1570 C1568 1.394 1_565 S
C1570 C1571 1.369 1_566 S
C1570 C1574 1.531 1_455 S
C1571 C1570 1.369 1_544 S
C1571 C1572 1.410 . S
C1571 C1579 1.503 1_445 S
C1572 C1571 1.410 . S
C1572 C1573 1.392 1_554 S
C1572 C1575 1.511 . S
C1573 C1569 1.376 . S
C1573 C1572 1.392 1_556 S
C1573 H1585 0.929 . S
C1574 C1570 1.531 1_655 S
C1574 H1586 0.961 . S
C1574 H1587 0.962 . S
C1574 H1588 0.960 1_655 S
C1575 C1572 1.511 . S
C1575 H1589 0.961 . S
C1575 H1590 0.961 . S
C1575 H1591 0.961 . S
C1576 C1577 1.370 . S
C1576 C1578 1.363 . S
C1576 H1592 0.931 . S
C1577 C1576 1.370 . S
C1577 C1581 1.419 . S
C1578 C1576 1.363 . S
C1578 C1579 1.370 . S
C1578 C1582 1.524 1_565 S
C1579 C1571 1.503 1_665 S
C1579 C1578 1.370 . S
C1579 C1580 1.403 1_655 S
C1580 C1579 1.403 1_455 S
C1580 C1581 1.399 1_455 S
C1580 C1583 1.539 . S
C1581 C1577 1.419 . S
C1581 C1580 1.399 1_655 S
C1581 H1593 0.924 1_655 S
C1582 C1578 1.524 1_545 S
C1582 H1594 0.956 1_554 S
C1582 H1595 0.961 . S
C1582 H1596 0.961 . S
C1583 C1580 1.539 . S
C1583 H1597 0.958 . S
C1583 H1598 0.961 . S
C1583 H1599 0.960 . S
H1584 C1568 0.931 1_565 S
H1585 C1573 0.929 . S
H1586 C1574 0.961 . S
H1587 C1574 0.962 . S
H1588 C1574 0.960 1_455 S
H1589 C1575 0.961 . S
H1590 C1575 0.961 . S
H1591 C1575 0.961 . S
H1592 C1576 0.931 . S
H1593 C1581 0.924 1_455 S
H1594 C1582 0.956 1_556 S
H1595 C1582 0.961 . S
H1596 C1582 0.961 . S
H1597 C1583 0.958 . S
H1598 C1583 0.961 . S
H1599 C1583 0.960 . S
C1600 C1601 1.391 . S
C1600 C1602 1.394 . S
C1600 H1616 0.931 . S
C1601 C1600 1.391 . S
C1601 C1605 1.376 . S
C1602 C1600 1.394 . S
C1602 C1603 1.369 . S
C1602 C1606 1.531 . S
C1603 C1602 1.369 . S
C1603 C1604 1.420 . S
C1603 C1611 1.503 1_545 S
C1604 C1603 1.420 . S
C1604 C1605 1.403 . S
C1604 C1607 1.491 1_545 S
C1605 C1601 1.376 . S
C1605 C1604 1.403 . S
C1605 H1617 0.929 . S
C1606 C1602 1.531 . S
C1606 H1618 0.960 . S
C1606 H1619 0.962 . S
C1606 H1620 0.960 . S
C1607 C1604 1.491 1_565 S
C1607 H1621 0.961 . S
C1607 H1622 0.961 . S
C1607 H1623 0.961 . S
C1608 C1609 1.370 . S
C1608 C1610 1.363 . S
C1608 H1624 0.931 . S
C1609 C1608 1.370 . S
C1609 C1613 1.408 . S
C1610 C1608 1.363 . S
C1610 C1611 1.370 . S
C1610 C1614 1.524 . S
C1611 C1603 1.503 1_565 S
C1611 C1610 1.370 . S
C1611 C1612 1.403 1_565 S
C1612 C1611 1.403 1_545 S
C1612 C1613 1.404 1_545 S
C1612 C1615 1.539 . S
C1613 C1609 1.408 . S
C1613 C1612 1.404 1_565 S
C1613 H1625 0.931 1_565 S
C1614 C1610 1.524 . S
C1614 H1626 0.956 . S
C1614 H1627 0.961 . S
C1614 H1628 0.961 . S
C1615 C1612 1.539 . S
C1615 H1629 0.958 . S
C1615 H1630 0.961 . S
C1615 H1631 0.960 . S
H1616 C1600 0.931 . S
H1617 C1605 0.929 . S
H1618 C1606 0.960 . S
H1619 C1606 0.962 . S
H1620 C1606 0.960 . S
H1621 C1607 0.961 . S
H1622 C1607 0.961 . S
H1623 C1607 0.961 . S
H1624 C1608 0.931 . S
H1625 C1613 0.931 1_545 S
H1626 C1614 0.956 . S
H1627 C1614 0.961 . S
H1628 C1614 0.961 . S
H1629 C1615 0.958 . S
H1630 C1615 0.961 . S
H1631 C1615 0.960 . S
C1632 C1633 1.391 . S
C1632 C1634 1.394 . S
C1632 H1648 0.931 . S
C1633 C1632 1.391 . S
C1633 C1637 1.376 . S
C1634 C1632 1.394 . S
C1634 C1635 1.369 . S
C1634 C1638 1.531 . S
C1635 C1634 1.369 . S
C1635 C1636 1.410 . S
C1635 C1643 1.503 . S
C1636 C1635 1.410 . S
C1636 C1637 1.392 . S
C1636 C1639 1.511 . S
C1637 C1633 1.376 . S
C1637 C1636 1.392 . S
C1637 H1649 0.929 . S
C1638 C1634 1.531 . S
C1638 H1650 0.960 . S
C1638 H1651 0.962 . S
C1638 H1652 0.960 . S
C1639 C1636 1.511 . S
C1639 H1653 0.961 . S
C1639 H1654 0.961 . S
C1639 H1655 0.961 . S
C1640 C1641 1.370 . S
C1640 C1642 1.363 . S
C1640 H1656 0.931 . S
C1641 C1640 1.370 . S
C1641 C1645 1.408 . S
C1642 C1640 1.363 . S
C1642 C1643 1.370 . S
C1642 C1646 1.524 . S
C1643 C1635 1.503 . S
C1643 C1642 1.370 . S
C1643 C1644 1.403 . S
C1644 C1643 1.403 . S
C1644 C1645 1.404 . S
C1644 C1647 1.539 . S
C1645 C1641 1.408 . S
C1645 C1644 1.404 . S
C1645 H1657 0.930 . S
C1646 C1642 1.524 . S
C1646 H1658 0.956 . S
C1646 H1659 0.961 . S
C1646 H1660 0.961 . S
C1647 C1644 1.539 . S
C1647 H1661 0.958 . S
C1647 H1662 0.961 . S
C1647 H1663 0.960 . S
H1648 C1632 0.931 . S
H1649 C1637 0.929 . S
H1650 C1638 0.960 . S
H1651 C1638 0.962 . S
H1652 C1638 0.960 . S
H1653 C1639 0.961 . S
H1654 C1639 0.961 . S
H1655 C1639 0.961 . S
H1656 C1640 0.931 . S
H1657 C1645 0.930 . S
H1658 C1646 0.956 . S
H1659 C1646 0.961 . S
H1660 C1646 0.961 . S
H1661 C1647 0.958 . S
H1662 C1647 0.961 . S
H1663 C1647 0.960 . S
C1664 C1665 1.391 . S
C1664 C1666 1.394 . S
C1664 H1680 0.931 . S
C1665 C1664 1.391 . S
C1665 C1669 1.376 . S
C1666 C1664 1.394 . S
C1666 C1667 1.369 1_556 S
C1666 C1670 1.531 . S
C1667 C1666 1.369 1_554 S
C1667 C1668 1.410 . S
C1667 C1675 1.503 . S
C1668 C1667 1.410 . S
C1668 C1669 1.392 1_554 S
C1668 C1671 1.511 . S
C1669 C1665 1.376 . S
C1669 C1668 1.392 1_556 S
C1669 H1681 0.929 . S
C1670 C1666 1.531 . S
C1670 H1682 0.960 . S
C1670 H1683 0.962 . S
C1670 H1684 0.960 . S
C1671 C1668 1.511 . S
C1671 H1685 0.961 . S
C1671 H1686 0.961 . S
C1671 H1687 0.961 . S
C1672 C1673 1.370 . S
C1672 C1674 1.363 . S
C1672 H1688 0.931 . S
C1673 C1672 1.370 . S
C1673 C1677 1.408 . S
C1674 C1672 1.363 . S
C1674 C1675 1.370 . S
C1674 C1678 1.524 . S
C1675 C1667 1.503 . S
C1675 C1674 1.370 . S
C1675 C1676 1.403 . S
C1676 C1675 1.403 . S
C1676 C1677 1.404 . S
C1676 C1679 1.539 . S
C1677 C1673 1.408 . S
C1677 C1676 1.404 . S
C1677 H1689 0.930 . S
C1678 C1674 1.524 . S
C1678 H1690 0.956 . S
C1678 H1691 0.961 . S
C1678 H1692 0.961 . S
C1679 C1676 1.539 . S
C1679 H1693 0.958 1_554 S
C1679 H1694 0.961 . S
C1679 H1695 0.960 . S
H1680 C1664 0.931 . S
H1681 C1669 0.929 . S
H1682 C1670 0.960 . S
H1683 C1670 0.962 . S
H1684 C1670 0.960 . S
H1685 C1671 0.961 . S
H1686 C1671 0.961 . S
H1687 C1671 0.961 . S
H1688 C1672 0.931 . S
H1689 C1677 0.930 . S
H1690 C1678 0.956 . S
H1691 C1678 0.961 . S
H1692 C1678 0.961 . S
H1693 C1679 0.958 1_556 S
H1694 C1679 0.961 . S
H1695 C1679 0.960 . S
C1696 C1697 1.391 . S
C1696 C1698 1.394 . S
C1696 H1712 0.931 . S
C1697 C1696 1.391 . S
C1697 C1701 1.376 . S
C1698 C1696 1.394 . S
C1698 C1699 1.369 . S
C1698 C1702 1.531 . S
C1699 C1698 1.369 . S
C1699 C1700 1.410 . S
C1699 C1707 1.503 . S
C1700 C1699 1.410 . S
C1700 C1701 1.392 . S
C1700 C1703 1.511 . S
C1701 C1697 1.376 . S
C1701 C1700 1.392 . S
C1701 H1713 0.929 . S
C1702 C1698 1.531 . S
C1702 H1714 0.960 . S
C1702 H1715 0.962 . S
C1702 H1716 0.960 . S
C1703 C1700 1.511 . S
C1703 H1717 0.961 . S
C1703 H1718 0.961 . S
C1703 H1719 0.961 . S
C1704 C1705 1.370 . S
C1704 C1706 1.363 . S
C1704 H1720 0.931 . S
C1705 C1704 1.370 . S
C1705 C1709 1.408 . S
C1706 C1704 1.363 . S
C1706 C1707 1.370 . S
C1706 C1710 1.524 . S
C1707 C1699 1.503 . S
C1707 C1706 1.370 . S
C1707 C1708 1.403 . S
C1708 C1707 1.403 . S
C1708 C1709 1.404 . S
C1708 C1711 1.539 . S
C1709 C1705 1.408 . S
C1709 C1708 1.404 . S
C1709 H1721 0.930 . S
C1710 C1706 1.524 . S
C1710 H1722 0.956 . S
C1710 H1723 0.961 . S
C1710 H1724 0.961 . S
C1711 C1708 1.539 . S
C1711 H1725 0.958 . S
C1711 H1726 0.961 . S
C1711 H1727 0.960 . S
H1712 C1696 0.931 . S
H1713 C1701 0.929 . S
H1714 C1702 0.960 . S
H1715 C1702 0.962 . S
H1716 C1702 0.960 . S
H1717 C1703 0.961 . S
H1718 C1703 0.961 . S
H1719 C1703 0.961 . S
H1720 C1704 0.931 . S
H1721 C1709 0.930 . S
H1722 C1710 0.956 . S
H1723 C1710 0.961 . S
H1724 C1710 0.961 . S
H1725 C1711 0.958 . S
H1726 C1711 0.961 . S
H1727 C1711 0.960 . S
C1728 C1729 1.391 . S
C1728 C1730 1.394 . S
C1728 H1744 0.931 . S
C1729 C1728 1.391 . S
C1729 C1733 1.376 . S
C1730 C1728 1.394 . S
C1730 C1731 1.369 . S
C1730 C1734 1.531 1_455 S
C1731 C1730 1.369 . S
C1731 C1732 1.410 . S
C1731 C1739 1.503 1_455 S
C1732 C1731 1.410 . S
C1732 C1733 1.392 . S
C1732 C1735 1.511 . S
C1733 C1729 1.376 . S
C1733 C1732 1.392 . S
C1733 H1745 0.929 . S
C1734 C1730 1.531 1_655 S
C1734 H1746 0.960 . S
C1734 H1747 0.962 . S
C1734 H1748 0.960 . S
C1735 C1732 1.511 . S
C1735 H1749 0.961 . S
C1735 H1750 0.961 . S
C1735 H1751 0.961 . S
C1736 C1737 1.370 . S
C1736 C1738 1.363 . S
C1736 H1752 0.931 . S
C1737 C1736 1.370 . S
C1737 C1741 1.408 . S
C1738 C1736 1.363 . S
C1738 C1739 1.370 . S
C1738 C1742 1.524 . S
C1739 C1731 1.503 1_655 S
C1739 C1738 1.370 . S
C1739 C1740 1.403 . S
C1740 C1739 1.403 . S
C1740 C1741 1.404 . S
C1740 C1743 1.539 1_655 S
C1741 C1737 1.408 . S
C1741 C1740 1.404 . S
C1741 H1753 0.930 . S
C1742 C1738 1.524 . S
C1742 H1754 0.956 . S
C1742 H1755 0.961 . S
C1742 H1756 0.961 . S
C1743 C1740 1.539 1_455 S
C1743 H1757 0.958 . S
C1743 H1758 0.961 . S
C1743 H1759 0.960 . S
H1744 C1728 0.931 . S
H1745 C1733 0.929 . S
H1746 C1734 0.960 . S
H1747 C1734 0.962 . S
H1748 C1734 0.960 . S
H1749 C1735 0.961 . S
H1750 C1735 0.961 . S
H1751 C1735 0.961 . S
H1752 C1736 0.931 . S
H1753 C1741 0.930 . S
H1754 C1742 0.956 . S
H1755 C1742 0.961 . S
H1756 C1742 0.961 . S
H1757 C1743 0.958 . S
H1758 C1743 0.961 . S
H1759 C1743 0.960 . S
C1760 C1761 1.391 . S
C1760 C1762 1.394 . S
C1760 H1776 0.931 . S
C1761 C1760 1.391 . S
C1761 C1765 1.376 . S
C1762 C1760 1.394 . S
C1762 C1763 1.369 . S
C1762 C1766 1.531 . S
C1763 C1762 1.369 . S
C1763 C1764 1.410 . S
C1763 C1771 1.503 . S
C1764 C1763 1.410 . S
C1764 C1765 1.392 . S
C1764 C1767 1.511 . S
C1765 C1761 1.376 . S
C1765 C1764 1.392 . S
C1765 H1777 0.929 . S
C1766 C1762 1.531 . S
C1766 H1778 0.960 . S
C1766 H1779 0.962 . S
C1766 H1780 0.960 . S
C1767 C1764 1.511 . S
C1767 H1781 0.961 . S
C1767 H1782 0.961 . S
C1767 H1783 0.961 . S
C1768 C1769 1.370 . S
C1768 C1770 1.363 . S
C1768 H1784 0.931 . S
C1769 C1768 1.370 . S
C1769 C1773 1.408 . S
C1770 C1768 1.363 . S
C1770 C1771 1.370 . S
C1770 C1774 1.524 . S
C1771 C1763 1.503 . S
C1771 C1770 1.370 . S
C1771 C1772 1.403 . S
C1772 C1771 1.403 . S
C1772 C1773 1.404 . S
C1772 C1775 1.539 . S
C1773 C1769 1.408 . S
C1773 C1772 1.404 . S
C1773 H1785 0.930 . S
C1774 C1770 1.524 . S
C1774 H1786 0.956 . S
C1774 H1787 0.961 . S
C1774 H1788 0.961 . S
C1775 C1772 1.539 . S
C1775 H1789 0.958 . S
C1775 H1790 0.961 . S
C1775 H1791 0.960 . S
H1776 C1760 0.931 . S
H1777 C1765 0.929 . S
H1778 C1766 0.960 . S
H1779 C1766 0.962 . S
H1780 C1766 0.960 . S
H1781 C1767 0.961 . S
H1782 C1767 0.961 . S
H1783 C1767 0.961 . S
H1784 C1768 0.931 . S
H1785 C1773 0.930 . S
H1786 C1774 0.956 . S
H1787 C1774 0.961 . S
H1788 C1774 0.961 . S
H1789 C1775 0.958 . S
H1790 C1775 0.961 . S
H1791 C1775 0.960 . S
C1792 C1793 1.391 . S
C1792 C1794 1.394 . S
C1792 H1808 0.931 . S
C1793 C1792 1.391 . S
C1793 C1797 1.376 . S
C1794 C1792 1.394 . S
C1794 C1795 1.369 . S
C1794 C1798 1.531 . S
C1795 C1794 1.369 . S
C1795 C1796 1.410 . S
C1795 C1803 1.503 . S
C1796 C1795 1.410 . S
C1796 C1797 1.392 . S
C1796 C1799 1.511 . S
C1797 C1793 1.376 . S
C1797 C1796 1.392 . S
C1797 H1809 0.929 . S
C1798 C1794 1.531 . S
C1798 H1810 0.960 . S
C1798 H1811 0.962 . S
C1798 H1812 0.960 . S
C1799 C1796 1.511 . S
C1799 H1813 0.961 . S
C1799 H1814 0.961 . S
C1799 H1815 0.961 . S
C1800 C1801 1.370 . S
C1800 C1802 1.363 . S
C1800 H1816 0.931 . S
C1801 C1800 1.370 . S
C1801 C1805 1.408 . S
C1802 C1800 1.363 . S
C1802 C1803 1.370 . S
C1802 C1806 1.524 . S
C1803 C1795 1.503 . S
C1803 C1802 1.370 . S
C1803 C1804 1.403 . S
C1804 C1803 1.403 . S
C1804 C1805 1.404 . S
C1804 C1807 1.539 . S
C1805 C1801 1.408 . S
C1805 C1804 1.404 . S
C1805 H1817 0.930 . S
C1806 C1802 1.524 . S
C1806 H1818 0.956 . S
C1806 H1819 0.961 . S
C1806 H1820 0.961 . S
C1807 C1804 1.539 . S
C1807 H1821 0.958 . S
C1807 H1822 0.961 . S
C1807 H1823 0.960 . S
H1808 C1792 0.931 . S
H1809 C1797 0.929 . S
H1810 C1798 0.960 . S
H1811 C1798 0.962 . S
H1812 C1798 0.960 . S
H1813 C1799 0.961 . S
H1814 C1799 0.961 . S
H1815 C1799 0.961 . S
H1816 C1800 0.931 . S
H1817 C1805 0.930 . S
H1818 C1806 0.956 . S
H1819 C1806 0.961 . S
H1820 C1806 0.961 . S
H1821 C1807 0.958 . S
H1822 C1807 0.961 . S
H1823 C1807 0.960 . S
C1824 C1825 1.391 . S
C1824 C1826 1.394 . S
C1824 H1840 0.931 . S
C1825 C1824 1.391 . S
C1825 C1829 1.376 . S
C1826 C1824 1.394 . S
C1826 C1827 1.369 . S
C1826 C1830 1.531 . S
C1827 C1826 1.369 . S
C1827 C1828 1.410 1_655 S
C1827 C1835 1.503 1_665 S
C1828 C1827 1.410 1_455 S
C1828 C1829 1.393 1_455 S
C1828 C1831 1.510 1_565 S
C1829 C1825 1.376 . S
C1829 C1828 1.393 1_655 S
C1829 H1841 0.929 . S
C1830 C1826 1.531 . S
C1830 H1842 0.960 . S
C1830 H1843 0.962 . S
C1830 H1844 0.960 . S
C1831 C1828 1.510 1_545 S
C1831 H1845 0.961 . S
C1831 H1846 0.961 . S
C1831 H1847 0.961 . S
C1832 C1833 1.370 . S
C1832 C1834 1.379 . S
C1832 H1848 0.931 . S
C1833 C1832 1.370 . S
C1833 C1837 1.408 . S
C1834 C1832 1.379 . S
C1834 C1835 1.383 . S
C1834 C1838 1.496 1_455 S
C1835 C1827 1.503 1_445 S
C1835 C1834 1.383 . S
C1835 C1836 1.403 1_545 S
C1836 C1835 1.403 1_565 S
C1836 C1837 1.404 1_565 S
C1836 C1839 1.539 . S
C1837 C1833 1.408 . S
C1837 C1836 1.404 1_545 S
C1837 H1849 0.930 . S
C1838 C1834 1.496 1_655 S
C1838 H1850 0.956 . S
C1838 H1851 0.961 . S
C1838 H1852 0.961 . S
C1839 C1836 1.539 . S
C1839 H1853 0.958 . S
C1839 H1854 0.961 . S
C1839 H1855 0.960 . S
H1840 C1824 0.931 . S
H1841 C1829 0.929 . S
H1842 C1830 0.960 . S
H1843 C1830 0.962 . S
H1844 C1830 0.960 . S
H1845 C1831 0.961 . S
H1846 C1831 0.961 . S
H1847 C1831 0.961 . S
H1848 C1832 0.931 . S
H1849 C1837 0.930 . S
H1850 C1838 0.956 . S
H1851 C1838 0.961 . S
H1852 C1838 0.961 . S
H1853 C1839 0.958 . S
H1854 C1839 0.961 . S
H1855 C1839 0.960 . S
C1856 C1857 1.391 . S
C1856 C1858 1.394 . S
C1856 H1872 0.931 . S
C1857 C1856 1.391 . S
C1857 C1861 1.376 . S
C1858 C1856 1.394 . S
C1858 C1859 1.369 . S
C1858 C1862 1.531 . S
C1859 C1858 1.369 . S
C1859 C1860 1.410 1_556 S
C1859 C1867 1.503 1_546 S
C1860 C1859 1.410 1_554 S
C1860 C1861 1.392 1_554 S
C1860 C1863 1.511 1_545 S
C1861 C1857 1.376 . S
C1861 C1860 1.392 1_556 S
C1861 H1873 0.929 . S
C1862 C1858 1.531 . S
C1862 H1874 0.960 1_545 S
C1862 H1875 0.962 . S
C1862 H1876 0.960 . S
C1863 C1860 1.511 1_565 S
C1863 H1877 0.961 1_565 S
C1863 H1878 0.961 . S
C1863 H1879 0.961 . S
C1864 C1865 1.370 . S
C1864 C1866 1.363 1_565 S
C1864 H1880 0.931 1_565 S
C1865 C1864 1.370 . S
C1865 C1869 1.408 . S
C1866 C1864 1.363 1_545 S
C1866 C1867 1.370 1_545 S
C1866 C1870 1.524 . S
C1867 C1859 1.503 1_564 S
C1867 C1866 1.370 1_565 S
C1867 C1868 1.403 . S
C1868 C1867 1.403 . S
C1868 C1869 1.404 . S
C1868 C1871 1.539 1_554 S
C1869 C1865 1.408 . S
C1869 C1868 1.404 . S
C1869 H1881 0.930 . S
C1870 C1866 1.524 . S
C1870 H1882 0.956 . S
C1870 H1883 0.961 . S
C1870 H1884 0.961 . S
C1871 C1868 1.539 1_556 S
C1871 H1885 0.958 . S
C1871 H1886 0.961 1_556 S
C1871 H1887 0.960 . S
H1872 C1856 0.931 . S
H1873 C1861 0.929 . S
H1874 C1862 0.960 1_565 S
H1875 C1862 0.962 . S
H1876 C1862 0.960 . S
H1877 C1863 0.961 1_545 S
H1878 C1863 0.961 . S
H1879 C1863 0.961 . S
H1880 C1864 0.931 1_545 S
H1881 C1869 0.930 . S
H1882 C1870 0.956 . S
H1883 C1870 0.961 . S
H1884 C1870 0.961 . S
H1885 C1871 0.958 . S
H1886 C1871 0.961 1_554 S
H1887 C1871 0.960 . S
C353 C7 1.479 1_556 S
C361 C203 1.593 . S
C385 C225 1.613 . S
C393 C28 1.545 . S
C417 C251 1.559 . S
C425 C50 1.520 . S
C449 C185 1.624 . S
C457 C73 1.538 . S
C481 C93 1.570 . S
C489 C292 1.603 . S
C513 C115 1.568 . S
C521 C315 1.599 . S
C545 C337 1.592 . S
C553 C141 1.545 . S
C577 C270 1.586 . S
C585 C163 1.544 . S
C609 C27 1.567 . S
C617 C183 1.514 . S
C641 C49 1.565 . S
C649 C204 1.515 . S
C673 C75 1.573 . S
C681 C226 1.543 1_556 S
C705 C249 1.494 . S
C713 C9 1.606 . S
C737 C116 1.576 . S
C745 C269 1.540 . S
C769 C139 1.624 . S
C777 C291 1.543 . S
C801 C161 1.558 . S
C809 C317 1.524 . S
C833 C94 1.627 . S
C841 C339 1.534 . S
C865 C6 1.483 . S
C873 C334 1.511 . S
C897 C29 1.462 . S
C905 C96 1.510 . S
C929 C294 1.499 . S
C937 C51 1.457 . S
C961 C136 1.499 . S
C969 C72 1.455 . S
C993 C97 1.469 . S
C1001 C246 1.510 . S
C1025 C4 1.520 1_556 S
C1033 C119 1.460 . S
C1057 C137 1.434 . S
C1065 C206 1.510 . S
C1089 C159 1.415 . S
C1097 C52 1.514 . S
C1121 C182 1.439 . S
C1129 C158 1.519 . S
C1153 C272 1.522 . S
C1161 C205 1.451 . S
C1185 C227 1.415 . S
C1193 C118 1.517 . S
C1217 C312 1.522 . S
C1225 C248 1.451 . S
C1249 C273 1.428 . S
C1257 C70 1.511 . S
C1281 C180 1.519 . S
C1289 C295 1.442 . S
C1313 C313 1.464 . S
C1321 C30 1.510 . S
C1345 C335 1.440 . S
C1353 C228 1.519 1_556 S
C1377 C8 1.367 . S
C1385 C268 1.372 . S
C1409 C114 1.384 . S
C1417 C26 1.362 . S
C1441 C48 1.392 . S
C1449 C316 1.360 . S
C1473 C162 1.354 . S
C1481 C74 1.374 . S
C1505 C92 1.357 . S
C1513 C184 1.373 . S
C1537 C224 1.352 . S
C1545 C140 1.378 . S
C1569 C202 1.390 . S
C1577 C290 1.360 . S
C1601 C338 1.381 . S
C1609 C250 1.363 . S
C1633 C271 1.183 . S
C1641 C5 1.116 . S
C1665 C117 1.103 . S
C1673 C31 1.147 . S
C1697 C53 1.135 . S
C1705 C314 1.140 . S
C1729 C160 1.103 . S
C1737 C71 1.147 . S
C1761 C95 1.086 . S
C1769 C181 1.157 . S
C1793 C138 1.086 . S
C1801 C229 1.157 . S
C1825 C293 1.155 . S
C1833 C207 1.132 . S
C1857 C336 1.089 . S
C1865 C247 1.154 . S
