# Generated by pormake.
# Topology qtz, (4)-cn, num edge types: 1
# Building blocks:
#     Node 0, Type 0, BuildingBlock: UXUYUI_clean_sbu_0, # of connection points: 4
#     Node 1, Type 0, BuildingBlock: UXUYUI_clean_sbu_0, # of connection points: 4
#     Node 2, Type 0, BuildingBlock: UXUYUI_clean_sbu_0, # of connection points: 4
#     Edge 3, Type (0, 0), BuildingBlock: XUDNAN_clean_linker_2, # of connection points: 2
#     Edge 4, Type (0, 0), BuildingBlock: XUDNAN_clean_linker_2, # of connection points: 2
#     Edge 5, Type (0, 0), BuildingBlock: XUDNAN_clean_linker_2, # of connection points: 2
#     Edge 6, Type (0, 0), BuildingBlock: XUDNAN_clean_linker_2, # of connection points: 2
#     Edge 7, Type (0, 0), BuildingBlock: XUDNAN_clean_linker_2, # of connection points: 2
#     Edge 8, Type (0, 0), BuildingBlock: XUDNAN_clean_linker_2, # of connection points: 2
# Relax obj value: 0.181
# Max RMSD: 0.212
# Mean RMSD: 0.212
data_MOF--net-qtz--node1-UXUYUI_clean_sbu_0--edge1-XUDNAN_clean_linker_2
_symmetry_space_group_name_H-M    P1
_symmetry_Int_Tables_number       1
_symmetry_cell_setting            triclinic
loop_
_symmetry_equiv_pos_as_xyz
'x, y, z'
_cell_length_a     34.247773
_cell_length_b     34.2333
_cell_length_c     40.81727
_cell_angle_alpha  90.006059
_cell_angle_beta   89.956788
_cell_angle_gamma 119.99019
loop_
_atom_site_label
_atom_site_type_symbol
_atom_site_fract_x
_atom_site_fract_y
_atom_site_fract_z
_atom_type_partial_charge
Li0 Li 0.02978 0.48697 0.14488 0.0
Li1 Li 0.02039 0.52913 0.1897 0.0
Li2 Li 0.96965 0.44794 0.18338 0.0
Li3 Li 0.96672 0.50138 0.1453 0.0
C4 C 0.07334 0.47803 0.19436 0.0
N5 N 0.15279 0.47565 0.19492 0.0
C6 C 0.11327 0.51548 0.20509 0.0
C7 C 0.07375 0.43927 0.18411 0.0
C8 C 0.15311 0.51362 0.20516 0.0
C9 C 0.11429 0.43878 0.1845 0.0
C10 C 0.03414 0.57447 0.1194 0.0
C11 C 0.02201 0.63441 0.10073 0.0
N12 N 0.03431 0.62966 0.06995 0.0
C13 C 0.04678 0.57025 0.08761 0.0
C14 C 0.02183 0.60692 0.12608 0.0
C15 C 0.04664 0.59848 0.06294 0.0
C16 C 0.06474 0.45391 0.09482 0.0
N17 N 0.07444 0.48657 0.11753 0.0
C18 C 0.15065 0.52832 0.09906 0.0
C19 C 0.11639 0.52311 0.12014 0.0
C20 C 0.14153 0.49602 0.07457 0.0
C21 C 0.09809 0.45793 0.07298 0.0
H22 H 0.03085 0.42555 0.093 0.0
H23 H 0.12287 0.54884 0.13813 0.0
C24 C 0.04988 0.56365 0.25281 0.0
N25 N 0.05185 0.57577 0.22089 0.0
C26 C 0.07283 0.59634 0.27672 0.0
C27 C 0.10084 0.65331 0.2343 0.0
C28 C 0.07681 0.6195 0.21123 0.0
C29 C 0.09883 0.64181 0.26754 0.0
H30 H 0.03076 0.52846 0.25963 0.0
H31 H 0.07849 0.62808 0.1856 0.0
C32 C 0.93274 0.40095 0.13105 0.0
N33 N 0.86409 0.31236 0.12682 0.0
C34 C 0.88838 0.39104 0.12588 0.0
C35 C 0.94227 0.36588 0.13388 0.0
C36 C 0.85413 0.34601 0.12383 0.0
C37 C 0.90706 0.32129 0.13175 0.0
C38 C 0.94613 0.51347 0.2197 0.0
C39 C 0.93577 0.49036 0.24955 0.0
C40 C 0.9507 0.55636 0.21828 0.0
C41 C 0.93029 0.51067 0.27752 0.0
C42 C 0.94505 0.57555 0.24682 0.0
N43 N 0.93504 0.55249 0.2756 0.0
C44 C 0.95442 0.3757 0.22522 0.0
C45 C 0.88908 0.37912 0.21108 0.0
C46 C 0.92976 0.34106 0.24756 0.0
N47 N 0.93397 0.39442 0.208 0.0
C48 C 0.86315 0.34465 0.23323 0.0
C49 C 0.88372 0.32593 0.25247 0.0
H50 H 0.99025 0.38892 0.22265 0.0
H51 H 0.87394 0.39535 0.19757 0.0
C52 C 0.93142 0.50948 0.08502 0.0
N53 N 0.92891 0.51332 0.11799 0.0
C54 C 0.9053 0.51936 0.06407 0.0
C55 C 0.87341 0.53548 0.11149 0.0
C56 C 0.90033 0.52553 0.1315 0.0
C57 C 0.87588 0.53276 0.07725 0.0
H58 H 0.95408 0.49913 0.075 0.0
H59 H 0.8983 0.52739 0.1578 0.0
O60 O 0.03414 0.47944 0.19356 0.0
O61 O 0.03321 0.54659 0.14377 0.0
O62 O 0.96659 0.44475 0.13382 0.0
O63 O 0.95238 0.4945 0.19212 0.0
H64 H 0.11364 0.54583 0.21298 0.0
H65 H 0.04321 0.41011 0.17553 0.0
H66 H 0.1843 0.54242 0.21326 0.0
H67 H 0.11516 0.40913 0.17643 0.0
H68 H 0.01227 0.65946 0.1055 0.0
H69 H 0.0561 0.54514 0.08191 0.0
H70 H 0.01175 0.61049 0.1505 0.0
H71 H 0.05615 0.59546 0.0382 0.0
H72 H 0.18378 0.55782 0.10159 0.0
H73 H 0.08948 0.43246 0.05428 0.0
H74 H 0.07114 0.58604 0.30201 0.0
H75 H 0.1206 0.68803 0.2263 0.0
H76 H 0.88042 0.4178 0.12379 0.0
H77 H 0.97643 0.37304 0.138 0.0
H78 H 0.8196 0.3378 0.11998 0.0
H79 H 0.91388 0.29379 0.13408 0.0
H80 H 0.93261 0.4574 0.25128 0.0
H81 H 0.95911 0.57492 0.19549 0.0
H82 H 0.92247 0.49325 0.30081 0.0
H83 H 0.94877 0.60883 0.2461 0.0
H84 H 0.94688 0.32721 0.26155 0.0
H85 H 0.82797 0.33458 0.23649 0.0
H86 H 0.90861 0.51711 0.03785 0.0
H87 H 0.85049 0.54464 0.12279 0.0
Li88 Li 0.53494 0.02298 0.47568 0.0
Li89 Li 0.48609 0.0231 0.5163 0.0
Li90 Li 0.50955 0.96545 0.51793 0.0
Li91 Li 0.45478 0.96532 0.47402 0.0
C92 C 0.58566 0.06973 0.52867 0.0
N93 N 0.66594 0.14892 0.53863 0.0
C94 C 0.58832 0.11125 0.52313 0.0
C95 C 0.62361 0.0684 0.53965 0.0
C96 C 0.62927 0.15094 0.5282 0.0
C97 C 0.66396 0.10884 0.54443 0.0
C98 C 0.46536 0.05828 0.46121 0.0
C99 C 0.40254 0.06849 0.44742 0.0
N100 N 0.43084 0.11388 0.44633 0.0
C101 C 0.49388 0.10501 0.45968 0.0
C102 C 0.41934 0.03981 0.45484 0.0
C103 C 0.47575 0.13255 0.45225 0.0
C104 C 0.58143 0.08352 0.42369 0.0
N105 N 0.58605 0.06001 0.44875 0.0
C106 C 0.66401 0.09002 0.43598 0.0
C107 C 0.62616 0.06238 0.45495 0.0
C108 C 0.66065 0.11569 0.4104 0.0
C109 C 0.61848 0.11185 0.40421 0.0
H110 H 0.54899 0.08047 0.41891 0.0
H111 H 0.62876 0.04266 0.4746 0.0
C112 C 0.49223 0.0626 0.57692 0.0
N113 N 0.47345 0.05832 0.54683 0.0
C114 C 0.48394 0.08515 0.60205 0.0
C115 C 0.43806 0.09975 0.56469 0.0
C116 C 0.44641 0.07601 0.54046 0.0
C117 C 0.45668 0.10415 0.59596 0.0
H118 H 0.51305 0.04767 0.58157 0.0
H119 H 0.43044 0.07113 0.51698 0.0
C120 C 0.53526 0.95557 0.44539 0.0
N121 N 0.59192 0.9578 0.39634 0.0
C122 C 0.52756 0.96265 0.41289 0.0
C123 C 0.57156 0.94932 0.45296 0.0
C124 C 0.55668 0.96378 0.38844 0.0
C125 C 0.59985 0.9506 0.4278 0.0
C126 C 0.41739 0.95487 0.54514 0.0
C127 C 0.42432 0.95054 0.57836 0.0
C128 C 0.38066 0.9593 0.53546 0.0
C129 C 0.39455 0.95124 0.60146 0.0
C130 C 0.35165 0.95983 0.5593 0.0
N131 N 0.35917 0.95588 0.59153 0.0
C132 C 0.53828 0.94472 0.57605 0.0
C133 C 0.51898 0.89001 0.53425 0.0
C134 C 0.54885 0.91953 0.5974 0.0
N135 N 0.52364 0.9296 0.54523 0.0
C136 C 0.52949 0.86383 0.55472 0.0
C137 C 0.54465 0.87847 0.58683 0.0
H138 H 0.54143 0.9763 0.58409 0.0
H139 H 0.50722 0.87888 0.50956 0.0
C140 C 0.39914 0.9362 0.41714 0.0
N141 N 0.40355 0.92644 0.44873 0.0
C142 C 0.36065 0.90704 0.39923 0.0
C143 C 0.33239 0.8584 0.44668 0.0
C144 C 0.37134 0.88841 0.46361 0.0
C145 C 0.32654 0.86758 0.41407 0.0
H146 H 0.42531 0.96685 0.406 0.0
H147 H 0.37599 0.88139 0.48869 0.0
O148 O 0.54605 0.03048 0.52353 0.0
O149 O 0.48261 0.03072 0.46787 0.0
O150 O 0.50785 0.95556 0.46974 0.0
O151 O 0.44702 0.95588 0.52225 0.0
H152 H 0.55908 0.11278 0.51504 0.0
H153 H 0.62195 0.03644 0.54416 0.0
H154 H 0.63187 0.18334 0.52389 0.0
H155 H 0.69371 0.10836 0.55272 0.0
H156 H 0.36697 0.05467 0.44262 0.0
H157 H 0.52966 0.11989 0.46405 0.0
H158 H 0.3967 0.00381 0.45595 0.0
H159 H 0.49741 0.16876 0.4511 0.0
H160 H 0.6955 0.09109 0.44125 0.0
H161 H 0.61426 0.13121 0.38499 0.0
H162 H 0.49888 0.08795 0.62595 0.0
H163 H 0.41637 0.11354 0.55932 0.0
H164 H 0.49977 0.96783 0.4067 0.0
H165 H 0.57817 0.94417 0.47805 0.0
H166 H 0.55134 0.96955 0.3632 0.0
H167 H 0.62825 0.94609 0.4333 0.0
H168 H 0.45269 0.94723 0.58622 0.0
H169 H 0.37495 0.96282 0.50984 0.0
H170 H 0.39966 0.94827 0.62728 0.0
H171 H 0.32326 0.96354 0.55219 0.0
H172 H 0.55952 0.93182 0.62207 0.0
H173 H 0.52622 0.83273 0.54536 0.0
H174 H 0.35735 0.9156 0.37423 0.0
H175 H 0.30741 0.82801 0.4589 0.0
Li176 Li 0.48381 0.44945 0.80972 0.0
Li177 Li 0.54227 0.50347 0.84841 0.0
Li178 Li 0.46736 0.4899 0.84956 0.0
Li179 Li 0.51345 0.53296 0.8049 0.0
C180 C 0.45417 0.41663 0.87873 0.0
N181 N 0.38641 0.36021 0.92119 0.0
C182 C 0.46048 0.42267 0.91256 0.0
C183 C 0.41346 0.38181 0.86647 0.0
C184 C 0.42577 0.39384 0.93363 0.0
C185 C 0.37963 0.35363 0.88835 0.0
C186 C 0.57078 0.48098 0.78652 0.0
C187 C 0.61395 0.47439 0.74238 0.0
N188 N 0.61656 0.44153 0.7593 0.0
C189 C 0.57386 0.44715 0.80347 0.0
C190 C 0.59089 0.4947 0.75572 0.0
C191 C 0.59715 0.42762 0.78929 0.0
C192 C 0.45123 0.39209 0.75405 0.0
N193 N 0.46546 0.39558 0.78554 0.0
C194 C 0.46017 0.32343 0.78245 0.0
C195 C 0.46957 0.36209 0.80001 0.0
C196 C 0.44594 0.31887 0.74967 0.0
C197 C 0.44106 0.35372 0.73558 0.0
H198 H 0.44845 0.4194 0.74316 0.0
H199 H 0.48132 0.36596 0.82503 0.0
C200 C 0.58709 0.52472 0.90743 0.0
N201 N 0.5928 0.5171 0.8756 0.0
C202 C 0.62123 0.53534 0.93024 0.0
C203 C 0.6671 0.53082 0.88702 0.0
C204 C 0.63218 0.52085 0.8649 0.0
C205 C 0.66172 0.5381 0.92017 0.0
H206 H 0.55594 0.52283 0.91503 0.0
H207 H 0.63684 0.51659 0.83927 0.0
C208 C 0.41039 0.48004 0.80023 0.0
N209 N 0.32778 0.47564 0.79688 0.0
C210 C 0.40703 0.51829 0.80691 0.0
C211 C 0.37191 0.43968 0.79152 0.0
C212 C 0.36489 0.51532 0.80521 0.0
C213 C 0.3304 0.43813 0.79002 0.0
C214 C 0.56146 0.59079 0.8549 0.0
C215 C 0.56253 0.62306 0.87647 0.0
C216 C 0.59964 0.60131 0.83604 0.0
C217 C 0.60166 0.66515 0.87886 0.0
C218 C 0.63812 0.64376 0.83916 0.0
N219 N 0.63834 0.67454 0.86032 0.0
C220 C 0.4395 0.51968 0.90303 0.0
C221 C 0.37786 0.45681 0.87779 0.0
C222 C 0.41061 0.52448 0.92454 0.0
N223 N 0.4228 0.48717 0.8796 0.0
C224 C 0.34761 0.46018 0.89906 0.0
C225 C 0.36394 0.49516 0.92222 0.0
H226 H 0.47536 0.54241 0.9047 0.0
H227 H 0.36528 0.43058 0.85948 0.0
C228 C 0.53499 0.57826 0.74314 0.0
N229 N 0.52685 0.58129 0.7754 0.0
C230 C 0.54461 0.61402 0.72181 0.0
C231 C 0.53736 0.65508 0.76738 0.0
C232 C 0.52696 0.61833 0.78757 0.0
C233 C 0.54644 0.65319 0.73412 0.0
H234 H 0.53381 0.54805 0.73399 0.0
H235 H 0.51878 0.61937 0.81299 0.0
O236 O 0.48743 0.44491 0.85765 0.0
O237 O 0.54714 0.49974 0.79957 0.0
O238 O 0.4512 0.4821 0.80197 0.0
O239 O 0.52315 0.54936 0.85247 0.0
H240 H 0.49172 0.44939 0.92248 0.0
H241 H 0.40772 0.37704 0.84036 0.0
H242 H 0.43013 0.39822 0.95988 0.0
H243 H 0.34787 0.32671 0.8792 0.0
H244 H 0.62973 0.48469 0.71856 0.0
H245 H 0.55849 0.43619 0.82736 0.0
H246 H 0.5887 0.52076 0.74224 0.0
H247 H 0.59978 0.40139 0.80214 0.0
H248 H 0.46535 0.29806 0.79424 0.0
H249 H 0.42971 0.35152 0.71055 0.0
H250 H 0.61573 0.54063 0.95559 0.0
H251 H 0.69819 0.53346 0.87825 0.0
H252 H 0.43654 0.54971 0.81377 0.0
H253 H 0.37409 0.40983 0.78622 0.0
H254 H 0.36168 0.54453 0.81057 0.0
H255 H 0.30026 0.40708 0.78348 0.0
H256 H 0.53336 0.61587 0.89112 0.0
H257 H 0.59984 0.5772 0.81914 0.0
H258 H 0.60285 0.69039 0.89543 0.0
H259 H 0.66783 0.65224 0.82473 0.0
H260 H 0.42461 0.55127 0.94258 0.0
H261 H 0.31181 0.43681 0.89661 0.0
H262 H 0.55121 0.61143 0.69618 0.0
H263 H 0.53765 0.68446 0.77754 0.0
H264 H 0.29091 0.43303 0.95812 0.0
H265 H 0.36688 0.575 0.93255 0.0
H266 H 0.317 0.58978 0.96756 0.0
H267 H 0.18035 0.4241 0.961 0.0
H268 H 0.16144 0.3865 0.99571 0.0
H269 H 0.20208 0.38642 0.96768 0.0
H270 H 0.25697 0.4014 0.0159 0.0
H271 H 0.21654 0.40155 0.04407 0.0
H272 H 0.27284 0.44939 0.04217 0.0
H273 H 0.26033 0.58981 0.00526 0.0
H274 H 0.2005 0.57556 0.04491 0.0
H275 H 0.16161 0.43381 0.048 0.0
C276 C 0.29665 0.46709 0.95971 0.0
C277 C 0.3328 0.50295 0.94275 0.0
C278 C 0.33968 0.54719 0.94566 0.0
C279 C 0.31141 0.55587 0.96531 0.0
C280 C 0.2764 0.51996 0.98196 0.0
C281 C 0.26885 0.47646 0.9795 0.0
C282 C 0.22956 0.44439 0.00092 0.0
C283 C 0.19108 0.40822 0.98008 0.0
C284 C 0.24491 0.42293 0.02733 0.0
C285 C 0.21645 0.47679 0.01585 0.0
C286 C 0.24385 0.52012 0.00437 0.0
C287 C 0.23874 0.55607 0.01458 0.0
C288 C 0.20486 0.54766 0.03734 0.0
C289 C 0.17663 0.50366 0.04992 0.0
C290 C 0.18242 0.46774 0.03874 0.0
H291 H 0.79556 0.25615 0.25211 0.0
H292 H 0.91397 0.32414 0.31418 0.0
H293 H 0.87091 0.27492 0.36027 0.0
H294 H 0.71676 0.24613 0.31227 0.0
H295 H 0.6729 0.19125 0.29922 0.0
H296 H 0.71389 0.22914 0.27012 0.0
H297 H 0.73478 0.16826 0.25521 0.0
H298 H 0.69366 0.13007 0.28416 0.0
H299 H 0.75152 0.14332 0.28717 0.0
H300 H 0.81393 0.22251 0.40071 0.0
H301 H 0.74718 0.16908 0.43248 0.0
H302 H 0.66564 0.13422 0.34425 0.0
C303 C 0.81253 0.2605 0.27533 0.0
C304 C 0.85834 0.29382 0.27936 0.0
C305 C 0.87925 0.29828 0.31019 0.0
C306 C 0.85497 0.27067 0.33663 0.0
C307 C 0.8098 0.23863 0.33192 0.0
C308 C 0.78879 0.23319 0.30202 0.0
C309 C 0.73943 0.19728 0.30386 0.0
C310 C 0.70896 0.21716 0.2959 0.0
C311 C 0.72927 0.15737 0.28126 0.0
C312 C 0.73585 0.18404 0.33962 0.0
C313 C 0.77688 0.20815 0.3553 0.0
C314 C 0.78173 0.20295 0.38861 0.0
C315 C 0.74359 0.17228 0.40642 0.0
C316 C 0.70107 0.14706 0.39091 0.0
C317 C 0.69747 0.15308 0.35696 0.0
H318 H 0.50064 0.78592 0.59311 0.0
H319 H 0.61328 0.90887 0.63183 0.0
H320 H 0.62844 0.864 0.67166 0.0
H321 H 0.46165 0.72898 0.66788 0.0
H322 H 0.44708 0.67416 0.65212 0.0
H323 H 0.44641 0.71562 0.62539 0.0
H324 H 0.50165 0.70835 0.58584 0.0
H325 H 0.50241 0.6667 0.61243 0.0
H326 H 0.55449 0.71642 0.60128 0.0
H327 H 0.62774 0.80674 0.71005 0.0
H328 H 0.61269 0.74011 0.74318 0.0
H329 H 0.50365 0.65397 0.67771 0.0
C330 C 0.5291 0.80344 0.60947 0.0
C331 C 0.55557 0.85108 0.60937 0.0
C332 C 0.59195 0.87254 0.63173 0.0
C333 C 0.60112 0.84732 0.65429 0.0
C334 C 0.574 0.80056 0.65397 0.0
C335 C 0.53899 0.77875 0.63197 0.0
C336 C 0.51411 0.72819 0.63748 0.0
C337 C 0.46438 0.71073 0.64625 0.0
C338 C 0.51844 0.70346 0.60747 0.0
C339 C 0.54004 0.7251 0.66646 0.0
C340 C 0.5745 0.76728 0.67555 0.0
C341 C 0.60134 0.77347 0.70288 0.0
C342 C 0.59252 0.73558 0.72156 0.0
C343 C 0.55744 0.69212 0.71267 0.0
C344 C 0.53127 0.68679 0.68455 0.0
H345 H 0.70923 0.49395 0.92819 0.0
H346 H 0.69446 0.60374 0.9672 0.0
H347 H 0.75075 0.61693 0.01004 0.0
H348 H 0.71705 0.45015 0.00441 0.0
H349 H 0.75801 0.43503 0.99124 0.0
H350 H 0.71954 0.43671 0.96203 0.0
H351 H 0.78685 0.4928 0.92613 0.0
H352 H 0.82558 0.49119 0.95522 0.0
H353 H 0.83052 0.5444 0.94401 0.0
H354 H 0.80594 0.61593 0.04993 0.0
H355 H 0.85544 0.60024 0.08467 0.0
H356 H 0.83215 0.48932 0.02062 0.0
C357 C 0.71854 0.52132 0.94537 0.0
C358 C 0.69772 0.54798 0.94437 0.0
C359 C 0.70995 0.58283 0.96769 0.0
C360 C 0.74199 0.5907 0.99197 0.0
C361 C 0.76141 0.56336 0.9926 0.0
C362 C 0.7502 0.52939 0.96992 0.0
C363 C 0.77415 0.50325 0.9771 0.0
C364 C 0.74016 0.45334 0.98412 0.0
C365 C 0.80618 0.50823 0.94894 0.0
C366 C 0.80009 0.52743 0.00761 0.0
C367 C 0.79259 0.56224 0.01597 0.0
C368 C 0.81213 0.58879 0.04361 0.0
C369 C 0.8399 0.57937 0.06334 0.0
C370 C 0.84764 0.54344 0.05551 0.0
C371 C 0.82754 0.51743 0.02709 0.0
H372 H 0.3203 0.83986 0.35012 0.0
H373 H 0.23952 0.82294 0.43665 0.0
H374 H 0.1716 0.76621 0.40747 0.0
H375 H 0.23477 0.82705 0.28995 0.0
H376 H 0.25023 0.79684 0.26146 0.0
H377 H 0.29204 0.83814 0.28852 0.0
H378 H 0.3104 0.77802 0.31032 0.0
H379 H 0.26862 0.73656 0.28343 0.0
H380 H 0.26567 0.72593 0.32687 0.0
H381 H 0.11357 0.70778 0.37033 0.0
H382 H 0.06912 0.6526 0.32718 0.0
H383 H 0.18722 0.70887 0.26447 0.0
C384 C 0.28819 0.82492 0.36273 0.0
C385 C 0.28527 0.83578 0.39572 0.0
C386 C 0.2427 0.81474 0.41153 0.0
C387 C 0.20387 0.78272 0.39509 0.0
C388 C 0.20807 0.77233 0.36276 0.0
C389 C 0.24907 0.79298 0.34666 0.0
C390 C 0.24468 0.7744 0.31234 0.0
C391 C 0.2561 0.81131 0.28654 0.0
C392 C 0.27408 0.75242 0.30801 0.0
C393 C 0.19497 0.73952 0.31189 0.0
C394 C 0.17443 0.73899 0.34117 0.0
C395 C 0.12915 0.70817 0.34716 0.0
C396 C 0.10427 0.67687 0.32263 0.0
C397 C 0.12472 0.67671 0.2925 0.0
C398 C 0.17054 0.70879 0.28704 0.0
H399 H 0.46618 0.31589 0.68468 0.0
H400 H 0.40834 0.23096 0.77047 0.0
H401 H 0.4022 0.16613 0.73976 0.0
H402 H 0.39509 0.22878 0.62443 0.0
H403 H 0.44011 0.24832 0.59484 0.0
H404 H 0.43785 0.28756 0.62314 0.0
H405 H 0.51888 0.31193 0.6426 0.0
H406 H 0.52127 0.27257 0.6146 0.0
H407 H 0.53134 0.26983 0.65765 0.0
H408 H 0.40865 0.11231 0.70144 0.0
H409 H 0.42232 0.0719 0.65656 0.0
H410 H 0.47105 0.19018 0.59474 0.0
C411 C 0.45119 0.28348 0.69686 0.0
C412 C 0.43807 0.27879 0.73016 0.0
C413 C 0.41947 0.23578 0.74521 0.0
C414 C 0.4155 0.1986 0.72789 0.0
C415 C 0.42964 0.2047 0.69537 0.0
C416 C 0.44651 0.24588 0.67984 0.0
C417 C 0.46029 0.24364 0.64491 0.0
C418 C 0.43161 0.2526 0.62038 0.0
C419 C 0.51095 0.27643 0.63965 0.0
C420 C 0.44941 0.19502 0.64348 0.0
C421 C 0.43183 0.17316 0.67287 0.0
C422 C 0.42173 0.12884 0.67815 0.0
C423 C 0.42978 0.10627 0.65267 0.0
C424 C 0.44732 0.12794 0.6223 0.0
C425 C 0.4569 0.17272 0.61761 0.0
loop_
_geom_bond_atom_site_label_1
_geom_bond_atom_site_label_2
_geom_bond_distance
_geom_bond_site_symmetry_2
_ccdc_geom_bond_type
Li0 N17 1.990 . S
Li0 O60 1.956 . S
Li0 O61 1.970 . S
Li0 O62 1.961 1_455 S
Li1 N25 1.990 . S
Li1 O60 1.970 . S
Li1 O61 1.956 . S
Li1 O63 1.961 1_455 S
Li2 N47 1.990 . S
Li2 O60 1.961 1_655 S
Li2 O62 1.956 . S
Li2 O63 1.970 . S
Li3 N53 1.990 . S
Li3 O61 1.961 1_655 S
Li3 O62 1.970 . S
Li3 O63 1.956 . S
C4 C6 1.348 . S
C4 C7 1.356 . S
C4 O60 1.325 . S
N5 C8 1.314 . S
N5 C9 1.279 . S
C6 C4 1.348 . S
C6 C8 1.353 . S
C6 H64 0.929 . S
C7 C4 1.356 . S
C7 C9 1.358 . S
C7 H65 0.930 . S
C8 N5 1.314 . S
C8 C6 1.353 . S
C8 H66 0.930 . S
C9 N5 1.279 . S
C9 C7 1.358 . S
C9 H67 0.930 . S
C10 C13 1.348 . S
C10 C14 1.356 . S
C10 O61 1.325 . S
C11 N12 1.279 . S
C11 C14 1.358 . S
C11 H68 0.930 . S
N12 C11 1.279 . S
N12 C15 1.314 . S
C13 C10 1.348 . S
C13 C15 1.353 . S
C13 H69 0.929 . S
C14 C10 1.356 . S
C14 C11 1.358 . S
C14 H70 0.930 . S
C15 N12 1.314 . S
C15 C13 1.353 . S
C15 H71 0.930 . S
C16 N17 1.314 . S
C16 C21 1.353 . S
C16 H22 0.930 . S
N17 Li0 1.990 . S
N17 C16 1.314 . S
N17 C19 1.279 . S
C18 C19 1.358 . S
C18 C20 1.356 . S
C18 H72 0.930 . S
C19 N17 1.279 . S
C19 C18 1.358 . S
C19 H23 0.930 . S
C20 C18 1.356 . S
C20 C21 1.348 . S
C21 C16 1.353 . S
C21 C20 1.348 . S
C21 H73 0.929 . S
H22 C16 0.930 . S
H23 C19 0.930 . S
C24 N25 1.314 . S
C24 C26 1.353 . S
C24 H30 0.930 . S
N25 Li1 1.990 . S
N25 C24 1.314 . S
N25 C28 1.279 . S
C26 C24 1.353 . S
C26 C29 1.348 . S
C26 H74 0.929 . S
C27 C28 1.358 . S
C27 C29 1.356 . S
C27 H75 0.930 . S
C28 N25 1.279 . S
C28 C27 1.358 . S
C28 H31 0.930 . S
C29 C26 1.348 . S
C29 C27 1.356 . S
H30 C24 0.930 . S
H31 C28 0.930 . S
C32 C34 1.348 . S
C32 C35 1.356 . S
C32 O62 1.325 . S
N33 C36 1.314 . S
N33 C37 1.279 . S
C34 C32 1.348 . S
C34 C36 1.353 . S
C34 H76 0.929 . S
C35 C32 1.356 . S
C35 C37 1.358 . S
C35 H77 0.930 . S
C36 N33 1.314 . S
C36 C34 1.353 . S
C36 H78 0.930 . S
C37 N33 1.279 . S
C37 C35 1.358 . S
C37 H79 0.930 . S
C38 C39 1.348 . S
C38 C40 1.356 . S
C38 O63 1.325 . S
C39 C38 1.348 . S
C39 C41 1.353 . S
C39 H80 0.929 . S
C40 C38 1.356 . S
C40 C42 1.358 . S
C40 H81 0.930 . S
C41 C39 1.353 . S
C41 N43 1.314 . S
C41 H82 0.930 . S
C42 C40 1.358 . S
C42 N43 1.279 . S
C42 H83 0.930 . S
N43 C41 1.314 . S
N43 C42 1.279 . S
C44 C46 1.353 . S
C44 N47 1.314 . S
C44 H50 0.930 . S
C45 N47 1.279 . S
C45 C48 1.358 . S
C45 H51 0.930 . S
C46 C44 1.353 . S
C46 C49 1.348 . S
C46 H84 0.929 . S
N47 Li2 1.990 . S
N47 C44 1.314 . S
N47 C45 1.279 . S
C48 C45 1.358 . S
C48 C49 1.356 . S
C48 H85 0.930 . S
C49 C46 1.348 . S
C49 C48 1.356 . S
H50 C44 0.930 . S
H51 C45 0.930 . S
C52 N53 1.314 . S
C52 C54 1.353 . S
C52 H58 0.930 . S
N53 Li3 1.990 . S
N53 C52 1.314 . S
N53 C56 1.279 . S
C54 C52 1.353 . S
C54 C57 1.348 . S
C54 H86 0.929 . S
C55 C56 1.358 . S
C55 C57 1.356 . S
C55 H87 0.930 . S
C56 N53 1.279 . S
C56 C55 1.358 . S
C56 H59 0.930 . S
C57 C54 1.348 . S
C57 C55 1.356 . S
H58 C52 0.930 . S
H59 C56 0.930 . S
O60 Li0 1.956 . S
O60 Li1 1.970 . S
O60 Li2 1.961 1_455 S
O60 C4 1.325 . S
O61 Li0 1.970 . S
O61 Li1 1.956 . S
O61 Li3 1.961 1_455 S
O61 C10 1.325 . S
O62 Li0 1.961 1_655 S
O62 Li2 1.956 . S
O62 Li3 1.970 . S
O62 C32 1.325 . S
O63 Li1 1.961 1_655 S
O63 Li2 1.970 . S
O63 Li3 1.956 . S
O63 C38 1.325 . S
H64 C6 0.929 . S
H65 C7 0.930 . S
H66 C8 0.930 . S
H67 C9 0.930 . S
H68 C11 0.930 . S
H69 C13 0.929 . S
H70 C14 0.930 . S
H71 C15 0.930 . S
H72 C18 0.930 . S
H73 C21 0.929 . S
H74 C26 0.929 . S
H75 C27 0.930 . S
H76 C34 0.929 . S
H77 C35 0.930 . S
H78 C36 0.930 . S
H79 C37 0.930 . S
H80 C39 0.929 . S
H81 C40 0.930 . S
H82 C41 0.930 . S
H83 C42 0.930 . S
H84 C46 0.929 . S
H85 C48 0.930 . S
H86 C54 0.929 . S
H87 C55 0.930 . S
Li88 N105 1.990 . S
Li88 O148 1.956 . S
Li88 O149 1.970 . S
Li88 O150 1.961 1_545 S
Li89 N113 1.990 . S
Li89 O148 1.970 . S
Li89 O149 1.956 . S
Li89 O151 1.961 1_545 S
Li90 N135 1.990 . S
Li90 O148 1.961 1_565 S
Li90 O150 1.956 . S
Li90 O151 1.970 . S
Li91 N141 1.990 . S
Li91 O149 1.961 1_565 S
Li91 O150 1.970 . S
Li91 O151 1.956 . S
C92 C94 1.348 . S
C92 C95 1.356 . S
C92 O148 1.325 . S
N93 C96 1.314 . S
N93 C97 1.279 . S
C94 C92 1.348 . S
C94 C96 1.353 . S
C94 H152 0.929 . S
C95 C92 1.356 . S
C95 C97 1.358 . S
C95 H153 0.930 . S
C96 N93 1.314 . S
C96 C94 1.353 . S
C96 H154 0.930 . S
C97 N93 1.279 . S
C97 C95 1.358 . S
C97 H155 0.930 . S
C98 C101 1.348 . S
C98 C102 1.356 . S
C98 O149 1.325 . S
C99 N100 1.279 . S
C99 C102 1.358 . S
C99 H156 0.930 . S
N100 C99 1.279 . S
N100 C103 1.314 . S
C101 C98 1.348 . S
C101 C103 1.353 . S
C101 H157 0.929 . S
C102 C98 1.356 . S
C102 C99 1.358 . S
C102 H158 0.930 . S
C103 N100 1.314 . S
C103 C101 1.353 . S
C103 H159 0.930 . S
C104 N105 1.314 . S
C104 C109 1.353 . S
C104 H110 0.930 . S
N105 Li88 1.990 . S
N105 C104 1.314 . S
N105 C107 1.279 . S
C106 C107 1.358 . S
C106 C108 1.356 . S
C106 H160 0.930 . S
C107 N105 1.279 . S
C107 C106 1.358 . S
C107 H111 0.930 . S
C108 C106 1.356 . S
C108 C109 1.348 . S
C109 C104 1.353 . S
C109 C108 1.348 . S
C109 H161 0.929 . S
H110 C104 0.930 . S
H111 C107 0.930 . S
C112 N113 1.314 . S
C112 C114 1.353 . S
C112 H118 0.930 . S
N113 Li89 1.990 . S
N113 C112 1.314 . S
N113 C116 1.279 . S
C114 C112 1.353 . S
C114 C117 1.348 . S
C114 H162 0.929 . S
C115 C116 1.358 . S
C115 C117 1.356 . S
C115 H163 0.930 . S
C116 N113 1.279 . S
C116 C115 1.358 . S
C116 H119 0.930 . S
C117 C114 1.348 . S
C117 C115 1.356 . S
H118 C112 0.930 . S
H119 C116 0.930 . S
C120 C122 1.348 . S
C120 C123 1.356 . S
C120 O150 1.325 . S
N121 C124 1.314 . S
N121 C125 1.279 . S
C122 C120 1.348 . S
C122 C124 1.353 . S
C122 H164 0.929 . S
C123 C120 1.356 . S
C123 C125 1.358 . S
C123 H165 0.930 . S
C124 N121 1.314 . S
C124 C122 1.353 . S
C124 H166 0.930 . S
C125 N121 1.279 . S
C125 C123 1.358 . S
C125 H167 0.930 . S
C126 C127 1.348 . S
C126 C128 1.356 . S
C126 O151 1.325 . S
C127 C126 1.348 . S
C127 C129 1.353 . S
C127 H168 0.929 . S
C128 C126 1.356 . S
C128 C130 1.358 . S
C128 H169 0.930 . S
C129 C127 1.353 . S
C129 N131 1.314 . S
C129 H170 0.930 . S
C130 C128 1.358 . S
C130 N131 1.279 . S
C130 H171 0.930 . S
N131 C129 1.314 . S
N131 C130 1.279 . S
C132 C134 1.353 . S
C132 N135 1.314 . S
C132 H138 0.930 . S
C133 N135 1.279 . S
C133 C136 1.358 . S
C133 H139 0.930 . S
C134 C132 1.353 . S
C134 C137 1.348 . S
C134 H172 0.929 . S
N135 Li90 1.990 . S
N135 C132 1.314 . S
N135 C133 1.279 . S
C136 C133 1.358 . S
C136 C137 1.356 . S
C136 H173 0.930 . S
C137 C134 1.348 . S
C137 C136 1.356 . S
H138 C132 0.930 . S
H139 C133 0.930 . S
C140 N141 1.314 . S
C140 C142 1.353 . S
C140 H146 0.930 . S
N141 Li91 1.990 . S
N141 C140 1.314 . S
N141 C144 1.279 . S
C142 C140 1.353 . S
C142 C145 1.348 . S
C142 H174 0.929 . S
C143 C144 1.358 . S
C143 C145 1.356 . S
C143 H175 0.930 . S
C144 N141 1.279 . S
C144 C143 1.358 . S
C144 H147 0.930 . S
C145 C142 1.348 . S
C145 C143 1.356 . S
H146 C140 0.930 . S
H147 C144 0.930 . S
O148 Li88 1.956 . S
O148 Li89 1.970 . S
O148 Li90 1.961 1_545 S
O148 C92 1.325 . S
O149 Li88 1.970 . S
O149 Li89 1.956 . S
O149 Li91 1.961 1_545 S
O149 C98 1.325 . S
O150 Li88 1.961 1_565 S
O150 Li90 1.956 . S
O150 Li91 1.970 . S
O150 C120 1.325 . S
O151 Li89 1.961 1_565 S
O151 Li90 1.970 . S
O151 Li91 1.956 . S
O151 C126 1.325 . S
H152 C94 0.929 . S
H153 C95 0.930 . S
H154 C96 0.930 . S
H155 C97 0.930 . S
H156 C99 0.930 . S
H157 C101 0.929 . S
H158 C102 0.930 . S
H159 C103 0.930 . S
H160 C106 0.930 . S
H161 C109 0.929 . S
H162 C114 0.929 . S
H163 C115 0.930 . S
H164 C122 0.929 . S
H165 C123 0.930 . S
H166 C124 0.930 . S
H167 C125 0.930 . S
H168 C127 0.929 . S
H169 C128 0.930 . S
H170 C129 0.930 . S
H171 C130 0.930 . S
H172 C134 0.929 . S
H173 C136 0.930 . S
H174 C142 0.929 . S
H175 C143 0.930 . S
Li176 N193 1.990 . S
Li176 O236 1.956 . S
Li176 O237 1.970 . S
Li176 O238 1.961 . S
Li177 N201 1.990 . S
Li177 O236 1.970 . S
Li177 O237 1.956 . S
Li177 O239 1.961 . S
Li178 N223 1.990 . S
Li178 O236 1.961 . S
Li178 O238 1.956 . S
Li178 O239 1.970 . S
Li179 N229 1.990 . S
Li179 O237 1.961 . S
Li179 O238 1.970 . S
Li179 O239 1.956 . S
C180 C182 1.348 . S
C180 C183 1.356 . S
C180 O236 1.325 . S
N181 C184 1.314 . S
N181 C185 1.279 . S
C182 C180 1.348 . S
C182 C184 1.353 . S
C182 H240 0.929 . S
C183 C180 1.356 . S
C183 C185 1.358 . S
C183 H241 0.930 . S
C184 N181 1.314 . S
C184 C182 1.353 . S
C184 H242 0.930 . S
C185 N181 1.279 . S
C185 C183 1.358 . S
C185 H243 0.930 . S
C186 C189 1.348 . S
C186 C190 1.356 . S
C186 O237 1.325 . S
C187 N188 1.279 . S
C187 C190 1.358 . S
C187 H244 0.930 . S
N188 C187 1.279 . S
N188 C191 1.314 . S
C189 C186 1.348 . S
C189 C191 1.353 . S
C189 H245 0.929 . S
C190 C186 1.356 . S
C190 C187 1.358 . S
C190 H246 0.930 . S
C191 N188 1.314 . S
C191 C189 1.353 . S
C191 H247 0.930 . S
C192 N193 1.314 . S
C192 C197 1.353 . S
C192 H198 0.930 . S
N193 Li176 1.990 . S
N193 C192 1.314 . S
N193 C195 1.279 . S
C194 C195 1.358 . S
C194 C196 1.356 . S
C194 H248 0.930 . S
C195 N193 1.279 . S
C195 C194 1.358 . S
C195 H199 0.930 . S
C196 C194 1.356 . S
C196 C197 1.348 . S
C197 C192 1.353 . S
C197 C196 1.348 . S
C197 H249 0.929 . S
H198 C192 0.930 . S
H199 C195 0.930 . S
C200 N201 1.314 . S
C200 C202 1.353 . S
C200 H206 0.930 . S
N201 Li177 1.990 . S
N201 C200 1.314 . S
N201 C204 1.279 . S
C202 C200 1.353 . S
C202 C205 1.348 . S
C202 H250 0.929 . S
C203 C204 1.358 . S
C203 C205 1.356 . S
C203 H251 0.930 . S
C204 N201 1.279 . S
C204 C203 1.358 . S
C204 H207 0.930 . S
C205 C202 1.348 . S
C205 C203 1.356 . S
H206 C200 0.930 . S
H207 C204 0.930 . S
C208 C210 1.348 . S
C208 C211 1.356 . S
C208 O238 1.325 . S
N209 C212 1.314 . S
N209 C213 1.279 . S
C210 C208 1.348 . S
C210 C212 1.353 . S
C210 H252 0.929 . S
C211 C208 1.356 . S
C211 C213 1.358 . S
C211 H253 0.930 . S
C212 N209 1.314 . S
C212 C210 1.353 . S
C212 H254 0.930 . S
C213 N209 1.279 . S
C213 C211 1.358 . S
C213 H255 0.930 . S
C214 C215 1.348 . S
C214 C216 1.356 . S
C214 O239 1.325 . S
C215 C214 1.348 . S
C215 C217 1.353 . S
C215 H256 0.929 . S
C216 C214 1.356 . S
C216 C218 1.358 . S
C216 H257 0.930 . S
C217 C215 1.353 . S
C217 N219 1.314 . S
C217 H258 0.930 . S
C218 C216 1.358 . S
C218 N219 1.279 . S
C218 H259 0.930 . S
N219 C217 1.314 . S
N219 C218 1.279 . S
C220 C222 1.353 . S
C220 N223 1.314 . S
C220 H226 0.930 . S
C221 N223 1.279 . S
C221 C224 1.358 . S
C221 H227 0.930 . S
C222 C220 1.353 . S
C222 C225 1.348 . S
C222 H260 0.929 . S
N223 Li178 1.990 . S
N223 C220 1.314 . S
N223 C221 1.279 . S
C224 C221 1.358 . S
C224 C225 1.356 . S
C224 H261 0.930 . S
C225 C222 1.348 . S
C225 C224 1.356 . S
H226 C220 0.930 . S
H227 C221 0.930 . S
C228 N229 1.314 . S
C228 C230 1.353 . S
C228 H234 0.930 . S
N229 Li179 1.990 . S
N229 C228 1.314 . S
N229 C232 1.279 . S
C230 C228 1.353 . S
C230 C233 1.348 . S
C230 H262 0.929 . S
C231 C232 1.358 . S
C231 C233 1.356 . S
C231 H263 0.930 . S
C232 N229 1.279 . S
C232 C231 1.358 . S
C232 H235 0.930 . S
C233 C230 1.348 . S
C233 C231 1.356 . S
H234 C228 0.930 . S
H235 C232 0.930 . S
O236 Li176 1.956 . S
O236 Li177 1.970 . S
O236 Li178 1.961 . S
O236 C180 1.325 . S
O237 Li176 1.970 . S
O237 Li177 1.956 . S
O237 Li179 1.961 . S
O237 C186 1.325 . S
O238 Li176 1.961 . S
O238 Li178 1.956 . S
O238 Li179 1.970 . S
O238 C208 1.325 . S
O239 Li177 1.961 . S
O239 Li178 1.970 . S
O239 Li179 1.956 . S
O239 C214 1.325 . S
H240 C182 0.929 . S
H241 C183 0.930 . S
H242 C184 0.930 . S
H243 C185 0.930 . S
H244 C187 0.930 . S
H245 C189 0.929 . S
H246 C190 0.930 . S
H247 C191 0.930 . S
H248 C194 0.930 . S
H249 C197 0.929 . S
H250 C202 0.929 . S
H251 C203 0.930 . S
H252 C210 0.929 . S
H253 C211 0.930 . S
H254 C212 0.930 . S
H255 C213 0.930 . S
H256 C215 0.929 . S
H257 C216 0.930 . S
H258 C217 0.930 . S
H259 C218 0.930 . S
H260 C222 0.929 . S
H261 C224 0.930 . S
H262 C230 0.929 . S
H263 C231 0.930 . S
H264 C276 0.930 . S
H265 C278 0.930 . S
H266 C279 0.930 . S
H267 C283 0.959 . S
H268 C283 0.959 . S
H269 C283 0.961 . S
H270 C284 0.960 1_556 S
H271 C284 0.961 . S
H272 C284 0.959 . S
H273 C287 0.929 . S
H274 C288 0.931 . S
H275 C290 0.930 . S
C276 H264 0.930 . S
C276 C277 1.399 . S
C276 C281 1.399 . S
C277 C276 1.399 . S
C277 C278 1.376 . S
C278 H265 0.930 . S
C278 C277 1.376 . S
C278 C279 1.388 . S
C279 H266 0.930 . S
C279 C278 1.388 . S
C279 C280 1.390 . S
C280 C279 1.390 . S
C280 C281 1.394 . S
C280 C286 1.465 1_556 S
C281 C276 1.399 . S
C281 C280 1.394 . S
C281 C282 1.516 . S
C282 C281 1.516 . S
C282 C283 1.502 . S
C282 C284 1.561 1_556 S
C282 C285 1.526 1_556 S
C283 H267 0.959 . S
C283 H268 0.959 . S
C283 H269 0.961 . S
C283 C282 1.502 . S
C284 H270 0.960 1_554 S
C284 H271 0.961 . S
C284 H272 0.959 . S
C284 C282 1.561 1_554 S
C285 C282 1.526 1_554 S
C285 C286 1.396 . S
C285 C290 1.390 . S
C286 C280 1.465 1_554 S
C286 C285 1.396 . S
C286 C287 1.399 . S
C287 H273 0.929 . S
C287 C286 1.399 . S
C287 C288 1.385 . S
C288 H274 0.931 . S
C288 C287 1.385 . S
C288 C289 1.389 . S
C289 C288 1.389 . S
C289 C290 1.387 . S
C290 H275 0.930 . S
C290 C285 1.390 . S
C290 C289 1.387 . S
H291 C303 0.930 . S
H292 C305 0.930 . S
H293 C306 0.930 . S
H294 C310 0.959 . S
H295 C310 0.959 . S
H296 C310 0.961 . S
H297 C311 0.960 . S
H298 C311 0.961 . S
H299 C311 0.959 . S
H300 C314 0.929 . S
H301 C315 0.931 . S
H302 C317 0.930 . S
C303 H291 0.930 . S
C303 C304 1.399 . S
C303 C308 1.399 . S
C304 C303 1.399 . S
C304 C305 1.376 . S
C305 H292 0.930 . S
C305 C304 1.376 . S
C305 C306 1.388 . S
C306 H293 0.930 . S
C306 C305 1.388 . S
C306 C307 1.390 . S
C307 C306 1.390 . S
C307 C308 1.394 . S
C307 C313 1.465 . S
C308 C303 1.399 . S
C308 C307 1.394 . S
C308 C309 1.516 . S
C309 C308 1.516 . S
C309 C310 1.502 . S
C309 C311 1.561 . S
C309 C312 1.526 . S
C310 H294 0.959 . S
C310 H295 0.959 . S
C310 H296 0.961 . S
C310 C309 1.502 . S
C311 H297 0.960 . S
C311 H298 0.961 . S
C311 H299 0.959 . S
C311 C309 1.561 . S
C312 C309 1.526 . S
C312 C313 1.396 . S
C312 C317 1.390 . S
C313 C307 1.465 . S
C313 C312 1.396 . S
C313 C314 1.399 . S
C314 H300 0.929 . S
C314 C313 1.399 . S
C314 C315 1.385 . S
C315 H301 0.931 . S
C315 C314 1.385 . S
C315 C316 1.389 . S
C316 C315 1.389 . S
C316 C317 1.387 . S
C317 H302 0.930 . S
C317 C312 1.390 . S
C317 C316 1.387 . S
H318 C330 0.930 . S
H319 C332 0.930 . S
H320 C333 0.930 . S
H321 C337 0.959 . S
H322 C337 0.959 . S
H323 C337 0.961 . S
H324 C338 0.960 . S
H325 C338 0.961 . S
H326 C338 0.959 . S
H327 C341 0.929 . S
H328 C342 0.931 . S
H329 C344 0.930 . S
C330 H318 0.930 . S
C330 C331 1.399 . S
C330 C335 1.399 . S
C331 C330 1.399 . S
C331 C332 1.376 . S
C332 H319 0.930 . S
C332 C331 1.376 . S
C332 C333 1.388 . S
C333 H320 0.930 . S
C333 C332 1.388 . S
C333 C334 1.390 . S
C334 C333 1.390 . S
C334 C335 1.394 . S
C334 C340 1.465 . S
C335 C330 1.399 . S
C335 C334 1.394 . S
C335 C336 1.516 . S
C336 C335 1.516 . S
C336 C337 1.502 . S
C336 C338 1.561 . S
C336 C339 1.526 . S
C337 H321 0.959 . S
C337 H322 0.959 . S
C337 H323 0.961 . S
C337 C336 1.502 . S
C338 H324 0.960 . S
C338 H325 0.961 . S
C338 H326 0.959 . S
C338 C336 1.561 . S
C339 C336 1.526 . S
C339 C340 1.396 . S
C339 C344 1.390 . S
C340 C334 1.465 . S
C340 C339 1.396 . S
C340 C341 1.399 . S
C341 H327 0.929 . S
C341 C340 1.399 . S
C341 C342 1.385 . S
C342 H328 0.931 . S
C342 C341 1.385 . S
C342 C343 1.389 . S
C343 C342 1.389 . S
C343 C344 1.387 . S
C344 H329 0.930 . S
C344 C339 1.390 . S
C344 C343 1.387 . S
H345 C357 0.930 . S
H346 C359 0.930 . S
H347 C360 0.930 . S
H348 C364 0.959 . S
H349 C364 0.959 . S
H350 C364 0.961 1_556 S
H351 C365 0.960 . S
H352 C365 0.961 . S
H353 C365 0.959 . S
H354 C368 0.929 . S
H355 C369 0.931 . S
H356 C371 0.930 . S
C357 H345 0.930 . S
C357 C358 1.399 . S
C357 C362 1.399 . S
C358 C357 1.399 . S
C358 C359 1.376 . S
C359 H346 0.930 . S
C359 C358 1.376 . S
C359 C360 1.388 . S
C360 H347 0.930 . S
C360 C359 1.388 . S
C360 C361 1.390 . S
C361 C360 1.390 . S
C361 C362 1.394 . S
C361 C367 1.465 1_556 S
C362 C357 1.399 . S
C362 C361 1.394 . S
C362 C363 1.516 . S
C363 C362 1.516 . S
C363 C364 1.502 1_556 S
C363 C365 1.561 . S
C363 C366 1.526 1_556 S
C364 H348 0.959 . S
C364 H349 0.959 . S
C364 H350 0.961 1_554 S
C364 C363 1.502 1_554 S
C365 H351 0.960 . S
C365 H352 0.961 . S
C365 H353 0.959 . S
C365 C363 1.561 . S
C366 C363 1.526 1_554 S
C366 C367 1.396 . S
C366 C371 1.390 . S
C367 C361 1.465 1_554 S
C367 C366 1.396 . S
C367 C368 1.399 . S
C368 H354 0.929 . S
C368 C367 1.399 . S
C368 C369 1.385 . S
C369 H355 0.931 . S
C369 C368 1.385 . S
C369 C370 1.389 . S
C370 C369 1.389 . S
C370 C371 1.387 . S
C371 H356 0.930 . S
C371 C366 1.390 . S
C371 C370 1.387 . S
H372 C384 0.930 . S
H373 C386 0.930 . S
H374 C387 0.930 . S
H375 C391 0.959 . S
H376 C391 0.959 . S
H377 C391 0.961 . S
H378 C392 0.960 . S
H379 C392 0.961 . S
H380 C392 0.959 . S
H381 C395 0.929 . S
H382 C396 0.931 . S
H383 C398 0.930 . S
C384 H372 0.930 . S
C384 C385 1.399 . S
C384 C389 1.399 . S
C385 C384 1.399 . S
C385 C386 1.376 . S
C386 H373 0.930 . S
C386 C385 1.376 . S
C386 C387 1.388 . S
C387 H374 0.930 . S
C387 C386 1.388 . S
C387 C388 1.390 . S
C388 C387 1.390 . S
C388 C389 1.394 . S
C388 C394 1.465 . S
C389 C384 1.399 . S
C389 C388 1.394 . S
C389 C390 1.516 . S
C390 C389 1.516 . S
C390 C391 1.502 . S
C390 C392 1.561 . S
C390 C393 1.526 . S
C391 H375 0.959 . S
C391 H376 0.959 . S
C391 H377 0.961 . S
C391 C390 1.502 . S
C392 H378 0.960 . S
C392 H379 0.961 . S
C392 H380 0.959 . S
C392 C390 1.561 . S
C393 C390 1.526 . S
C393 C394 1.396 . S
C393 C398 1.390 . S
C394 C388 1.465 . S
C394 C393 1.396 . S
C394 C395 1.399 . S
C395 H381 0.929 . S
C395 C394 1.399 . S
C395 C396 1.385 . S
C396 H382 0.931 . S
C396 C395 1.385 . S
C396 C397 1.389 . S
C397 C396 1.389 . S
C397 C398 1.387 . S
C398 H383 0.930 . S
C398 C393 1.390 . S
C398 C397 1.387 . S
H399 C411 0.930 . S
H400 C413 0.930 . S
H401 C414 0.930 . S
H402 C418 0.959 . S
H403 C418 0.959 . S
H404 C418 0.961 . S
H405 C419 0.960 . S
H406 C419 0.961 . S
H407 C419 0.959 . S
H408 C422 0.929 . S
H409 C423 0.931 . S
H410 C425 0.930 . S
C411 H399 0.930 . S
C411 C412 1.399 . S
C411 C416 1.399 . S
C412 C411 1.399 . S
C412 C413 1.376 . S
C413 H400 0.930 . S
C413 C412 1.376 . S
C413 C414 1.388 . S
C414 H401 0.930 . S
C414 C413 1.388 . S
C414 C415 1.390 . S
C415 C414 1.390 . S
C415 C416 1.394 . S
C415 C421 1.465 . S
C416 C411 1.399 . S
C416 C415 1.394 . S
C416 C417 1.516 . S
C417 C416 1.516 . S
C417 C418 1.502 . S
C417 C419 1.561 . S
C417 C420 1.526 . S
C418 H402 0.959 . S
C418 H403 0.959 . S
C418 H404 0.961 . S
C418 C417 1.502 . S
C419 H405 0.960 . S
C419 H406 0.961 . S
C419 H407 0.959 . S
C419 C417 1.561 . S
C420 C417 1.526 . S
C420 C421 1.396 . S
C420 C425 1.390 . S
C421 C415 1.465 . S
C421 C420 1.396 . S
C421 C422 1.399 . S
C422 H408 0.929 . S
C422 C421 1.399 . S
C422 C423 1.385 . S
C423 H409 0.931 . S
C423 C422 1.385 . S
C423 C424 1.389 . S
C424 C423 1.389 . S
C424 C425 1.387 . S
C425 H410 0.930 . S
C425 C420 1.390 . S
C425 C424 1.387 . S
C277 C225 1.183 . S
C289 C20 1.188 . S
C304 C49 1.196 . S
C316 C108 1.204 . S
C331 C137 1.208 . S
C343 C233 1.215 . S
C358 C205 1.217 . S
C370 C57 1.217 . S
C385 C145 1.206 . S
C397 C29 1.198 . S
C412 C196 1.205 . S
C424 C117 1.196 . S
