# Generated by pormake.
# Topology smc, (6)-cn, num edge types: 1
# Building blocks:
#     Node 0, Type 0, BuildingBlock: CUKXOW_clean_sbu_0, # of connection points: 6
#     Node 1, Type 0, BuildingBlock: CUKXOW_clean_sbu_0, # of connection points: 6
#     Node 2, Type 0, BuildingBlock: CUKXOW_clean_sbu_0, # of connection points: 6
#     Node 3, Type 0, BuildingBlock: CUKXOW_clean_sbu_0, # of connection points: 6
#     Node 4, Type 0, BuildingBlock: CUKXOW_clean_sbu_0, # of connection points: 6
#     Node 5, Type 0, BuildingBlock: CUKXOW_clean_sbu_0, # of connection points: 6
#     Node 6, Type 0, BuildingBlock: CUKXOW_clean_sbu_0, # of connection points: 6
#     Node 7, Type 0, BuildingBlock: CUKXOW_clean_sbu_0, # of connection points: 6
#     Node 8, Type 0, BuildingBlock: CUKXOW_clean_sbu_0, # of connection points: 6
#     Edge 9, Type (0, 0), BuildingBlock: XIVTED_clean_linker_0, # of connection points: 2
#     Edge 10, Type (0, 0), BuildingBlock: XIVTED_clean_linker_0, # of connection points: 2
#     Edge 11, Type (0, 0), BuildingBlock: XIVTED_clean_linker_0, # of connection points: 2
#     Edge 12, Type (0, 0), BuildingBlock: XIVTED_clean_linker_0, # of connection points: 2
#     Edge 13, Type (0, 0), BuildingBlock: XIVTED_clean_linker_0, # of connection points: 2
#     Edge 14, Type (0, 0), BuildingBlock: XIVTED_clean_linker_0, # of connection points: 2
#     Edge 15, Type (0, 0), BuildingBlock: XIVTED_clean_linker_0, # of connection points: 2
#     Edge 16, Type (0, 0), BuildingBlock: XIVTED_clean_linker_0, # of connection points: 2
#     Edge 17, Type (0, 0), BuildingBlock: XIVTED_clean_linker_0, # of connection points: 2
#     Edge 18, Type (0, 0), BuildingBlock: XIVTED_clean_linker_0, # of connection points: 2
#     Edge 19, Type (0, 0), BuildingBlock: XIVTED_clean_linker_0, # of connection points: 2
#     Edge 20, Type (0, 0), BuildingBlock: XIVTED_clean_linker_0, # of connection points: 2
#     Edge 21, Type (0, 0), BuildingBlock: XIVTED_clean_linker_0, # of connection points: 2
#     Edge 22, Type (0, 0), BuildingBlock: XIVTED_clean_linker_0, # of connection points: 2
#     Edge 23, Type (0, 0), BuildingBlock: XIVTED_clean_linker_0, # of connection points: 2
#     Edge 24, Type (0, 0), BuildingBlock: XIVTED_clean_linker_0, # of connection points: 2
#     Edge 25, Type (0, 0), BuildingBlock: XIVTED_clean_linker_0, # of connection points: 2
#     Edge 26, Type (0, 0), BuildingBlock: XIVTED_clean_linker_0, # of connection points: 2
#     Edge 27, Type (0, 0), BuildingBlock: XIVTED_clean_linker_0, # of connection points: 2
#     Edge 28, Type (0, 0), BuildingBlock: XIVTED_clean_linker_0, # of connection points: 2
#     Edge 29, Type (0, 0), BuildingBlock: XIVTED_clean_linker_0, # of connection points: 2
#     Edge 30, Type (0, 0), BuildingBlock: XIVTED_clean_linker_0, # of connection points: 2
#     Edge 31, Type (0, 0), BuildingBlock: XIVTED_clean_linker_0, # of connection points: 2
#     Edge 32, Type (0, 0), BuildingBlock: XIVTED_clean_linker_0, # of connection points: 2
#     Edge 33, Type (0, 0), BuildingBlock: XIVTED_clean_linker_0, # of connection points: 2
#     Edge 34, Type (0, 0), BuildingBlock: XIVTED_clean_linker_0, # of connection points: 2
#     Edge 35, Type (0, 0), BuildingBlock: XIVTED_clean_linker_0, # of connection points: 2
# Relax obj value: 0.122
# Max RMSD: 0.269
# Mean RMSD: 0.255
data_MOF--net-smc--node1-CUKXOW_clean_sbu_0--edge1-XIVTED_clean_linker_0
_symmetry_space_group_name_H-M    P1
_symmetry_Int_Tables_number       1
_symmetry_cell_setting            triclinic
loop_
_symmetry_equiv_pos_as_xyz
'x, y, z'
_cell_length_a     29.798518
_cell_length_b     33.129802
_cell_length_c     41.9403
_cell_angle_alpha  90.73454
_cell_angle_beta   91.249041
_cell_angle_gamma 119.85263
loop_
_atom_site_label
_atom_site_type_symbol
_atom_site_fract_x
_atom_site_fract_y
_atom_site_fract_z
_atom_type_partial_charge
Tb0 Tb 0.99297 0.41573 0.03189 0.0
C1 C 0.04991 0.47442 0.08875 0.0
Tb2 Tb 0.06542 0.51634 0.01909 0.0
O3 O 0.06009 0.40418 0.04351 0.0
O4 O 0.06985 0.45559 1.01348 0.0
O5 O 1.00219 0.44603 0.07861 0.0
C6 C 0.14767 0.60199 0.01844 0.0
O7 O 0.08428 0.50248 0.06815 0.0
C8 C 0.97261 0.50928 0.02617 0.0
C9 C 1.00979 0.44317 0.96017 0.0
O10 O 0.12245 0.58069 0.04327 0.0
O11 O 0.12756 0.57433 0.99348 0.0
O12 O 1.01516 0.54638 0.01972 0.0
O13 O 0.98365 0.47651 0.02827 0.0
O14 O 0.04589 0.48691 0.96895 0.0
O15 O 0.98522 0.41056 0.98105 0.0
C16 C 0.90096 0.3359 0.0336 0.0
O17 O 0.9129 0.37004 1.01468 0.0
O18 O 0.9417 0.34601 0.05152 0.0
C19 C 0.09496 0.44017 0.02859 0.0
Tb20 Tb 0.60785 0.61523 1.01531 0.0
C21 C 0.59017 0.5547 0.95709 0.0
Tb22 Tb 0.55935 0.5149 0.02721 0.0
O23 O 0.69131 0.63135 1.01515 0.0
O24 O 0.63373 0.56827 0.02423 0.0
O25 O 0.5848 0.58957 0.96724 0.0
C26 C 0.55717 0.43576 0.02944 0.0
O27 O 0.58754 0.52336 0.97755 0.0
C28 C 0.47811 0.52714 0.02095 0.0
C29 C 0.58666 0.58619 0.08525 0.0
O30 O 0.54447 0.45096 1.00459 0.0
O31 O 0.56744 0.46338 0.05413 0.0
O32 O 0.47683 0.48824 0.02638 0.0
O33 O 0.52606 0.55979 0.01885 0.0
O34 O 0.58093 0.54504 0.07646 0.0
O35 O 0.58852 0.61599 0.06425 0.0
C36 C 0.62591 0.70045 1.00503 0.0
O37 O 0.62941 0.68472 0.03254 0.0
O38 O 0.61378 0.66831 0.98324 0.0
C39 C 0.68187 0.58977 0.02191 0.0
Tb40 Tb 0.42811 0.03719 0.02852 0.0
C41 C 0.43409 0.97919 0.08243 0.0
Tb42 Tb 0.46668 0.97135 1.01138 0.0
O43 O 0.35076 0.97758 0.03663 0.0
O44 O 0.39816 0.97305 1.00322 0.0
O45 O 0.44267 0.02101 0.07558 0.0
C46 C 0.46326 0.89199 0.99781 0.0
O47 O 0.43565 0.95115 0.05998 0.0
C48 C 0.54761 0.05134 0.03074 0.0
C49 C 0.46421 0.03854 0.95895 0.0
O50 O 0.44534 0.90071 0.02322 0.0
O51 O 0.48367 0.92826 0.98002 0.0
O52 O 0.5503 0.0148 0.02242 0.0
O53 O 0.50059 0.04042 0.02886 0.0
O54 O 0.46041 0.99719 0.9639 0.0
O55 O 0.46085 0.06361 0.9826 0.0
C56 C 0.41728 0.10958 0.04065 0.0
O57 O 0.3976 0.08204 1.01573 0.0
O58 O 0.44066 0.09448 0.0592 0.0
C59 C 0.35619 0.95001 1.01687 0.0
Tb60 Tb 0.65183 0.74332 0.35663 0.0
C61 C 0.72524 0.79763 0.41394 0.0
Tb62 Tb 0.74293 0.8454 0.34635 0.0
O63 O 0.71004 0.72209 0.36785 0.0
O64 O 0.72482 0.77625 0.3377 0.0
O65 O 0.67607 0.77062 0.40481 0.0
C66 C 0.82027 0.93356 0.33709 0.0
O67 O 0.76063 0.82639 0.39379 0.0
C68 C 0.65588 0.83474 0.36894 0.0
C69 C 0.67568 0.77861 0.28612 0.0
O70 O 0.8229 0.90332 0.35554 0.0
O71 O 0.77516 0.91277 0.3223 0.0
O72 O 0.7009 0.87047 0.37476 0.0
O73 O 0.6616 0.80974 0.34904 0.0
O74 O 0.72087 0.81595 0.29621 0.0
O75 O 0.64089 0.74964 0.30611 0.0
C76 C 0.55985 0.66798 0.36159 0.0
O77 O 0.5998 0.66877 0.34909 0.0
O78 O 0.5717 0.70957 0.37144 0.0
C79 C 0.7441 0.75452 0.35033 0.0
Tb80 Tb 0.29954 0.91639 0.36279 0.0
C81 C 0.24785 0.92159 0.42165 0.0
Tb82 Tb 0.19717 0.88159 0.35249 0.0
O83 O 0.31142 0.9865 0.37597 0.0
O84 O 0.2585 0.94673 0.34029 0.0
O85 O 0.28339 0.91236 0.4126 0.0
C86 C 0.11182 0.88526 0.3544 0.0
O87 O 0.21167 0.9161 0.40052 0.0
C88 C 0.19885 0.80319 0.3617 0.0
C89 C 0.26126 0.89056 0.2925 0.0
O90 O 0.14109 0.88989 0.37886 0.0
O91 O 0.12892 0.87612 0.3286 0.0
O92 O 0.15825 0.80611 0.35435 0.0
O93 O 0.23878 0.84414 0.36258 0.0
O94 O 0.21918 0.89068 0.30213 0.0
O95 O 0.29659 0.89408 0.31349 0.0
C96 C 0.39091 0.92374 0.37109 0.0
O97 O 0.37918 0.94372 0.34859 0.0
O98 O 0.35223 0.90217 0.38935 0.0
C99 C 0.27608 0.98417 0.35627 0.0
Tb100 Tb 0.11221 0.3763 0.35642 0.0
C101 C 0.10565 0.31174 0.41202 0.0
Tb102 Tb 0.14423 0.29835 0.34432 0.0
O103 O 0.03055 0.31886 0.36355 0.0
O104 O 0.0803 0.30782 0.33643 0.0
O105 O 0.11755 0.35484 0.40464 0.0
C106 C 0.15755 0.22343 0.33598 0.0
O107 O 0.10673 0.28187 0.39086 0.0
C108 C 0.2165 0.37951 0.36939 0.0
C109 C 0.13555 0.35646 0.28589 0.0
O110 O 0.12207 0.22507 0.35263 0.0
O111 O 0.1838 0.26354 0.32241 0.0
O112 O 0.21551 0.34036 0.37296 0.0
O113 O 0.18044 0.37202 0.34998 0.0
O114 O 0.13607 0.31771 0.29462 0.0
O115 O 0.13186 0.38554 0.30636 0.0
C116 C 0.12539 0.46464 0.36252 0.0
O117 O 0.09355 0.43145 0.34257 0.0
O118 O 0.14771 0.44685 0.37994 0.0
C119 C 0.03631 0.28725 0.34798 0.0
Tb120 Tb 0.32876 0.088 0.68852 0.0
C121 C 0.3933 0.13935 0.74814 0.0
Tb122 Tb 0.40774 0.18918 0.68063 0.0
O123 O 0.39319 0.07358 0.70067 0.0
O124 O 0.40627 0.12634 0.67076 0.0
O125 O 0.34633 0.10817 0.738 0.0
C126 C 0.49371 0.27228 0.67819 0.0
O127 O 0.42578 0.17249 0.72908 0.0
C128 C 0.31713 0.18599 0.68965 0.0
C129 C 0.3476 0.1245 0.61941 0.0
O130 O 0.47776 0.24664 0.70308 0.0
O131 O 0.46209 0.25024 0.65418 0.0
O132 O 0.36122 0.22282 0.68557 0.0
O133 O 0.32575 0.15179 0.68907 0.0
O134 O 0.39163 0.16169 0.63028 0.0
O135 O 0.31339 0.09475 0.63893 0.0
C136 C 0.2376 0.00856 0.69305 0.0
O137 O 0.27678 0.01318 0.67699 0.0
O138 O 0.25051 0.04822 0.70692 0.0
C139 C 0.42906 0.10825 0.68533 0.0
Tb140 Tb 0.93885 0.27421 0.67866 0.0
C141 C 0.9246 0.22201 0.62058 0.0
Tb142 Tb 0.89935 0.19575 0.69347 0.0
O143 O 1.01221 0.28074 0.66165 0.0
O144 O 0.97907 0.24081 0.70097 0.0
O145 O 0.91799 0.25617 0.62972 0.0
C146 C 0.87509 0.10826 0.69584 0.0
O147 O 0.92482 0.19471 0.64333 0.0
C148 C 0.81897 0.20953 0.69379 0.0
C149 C 0.93953 0.26929 0.7506 0.0
O150 O 0.85706 0.12486 0.67481 0.0
O151 O 0.90472 0.1401 0.71647 0.0
O152 O 0.83048 0.18817 0.71512 0.0
O153 O 0.85457 0.22481 0.67293 0.0
O154 O 0.91614 0.22397 0.74389 0.0
O155 O 0.95367 0.29769 0.72714 0.0
C156 C 0.94796 0.35733 0.67932 0.0
O157 O 0.92127 0.32443 0.69861 0.0
O158 O 0.97045 0.34372 0.65905 0.0
C159 C 1.01513 0.25252 0.68163 0.0
Tb160 Tb 0.77277 0.70652 0.69778 0.0
C161 C 0.77848 0.6478 0.75142 0.0
Tb162 Tb 0.80792 0.6424 0.68041 0.0
O163 O 0.69699 0.64724 0.7105 0.0
O164 O 0.73814 0.64179 0.67338 0.0
O165 O 0.79038 0.69054 0.74452 0.0
C166 C 0.81547 0.57122 0.65898 0.0
O167 O 0.77695 0.61914 0.72849 0.0
C168 C 0.88424 0.72236 0.70486 0.0
C169 C 0.79816 0.70301 0.62596 0.0
O170 O 0.78058 0.56847 0.67806 0.0
O171 O 0.84669 0.61427 0.65221 0.0
O172 O 0.88037 0.68194 0.70835 0.0
O173 O 0.84693 0.71635 0.68678 0.0
O174 O 0.80042 0.66479 0.63227 0.0
O175 O 0.79206 0.72778 0.64871 0.0
C176 C 0.76466 0.77993 0.71055 0.0
O177 O 0.73702 0.74842 0.68886 0.0
O178 O 0.79526 0.76892 0.7256 0.0
C179 C 0.6983 0.61949 0.68899 0.0
H180 H 0.39838 0.47357 0.97932 0.0
H181 H 0.17966 0.5224 0.05282 0.0
H182 H 0.43694 0.57526 0.05508 0.0
H183 H 0.1448 0.39803 0.99933 0.0
H184 H 0.27297 0.54899 0.04957 0.0
H185 H 0.30781 0.45472 0.98053 0.0
C186 C 0.38833 0.49321 0.99564 0.0
C187 C 0.42701 0.52734 1.01638 0.0
C188 C 0.24509 0.51591 0.03845 0.0
C189 C 0.31995 0.50389 0.01892 0.0
C190 C 0.1913 0.5005 0.04032 0.0
C191 C 0.15312 0.45729 0.02664 0.0
C192 C 0.26212 0.48882 0.02194 0.0
C193 C 0.17193 0.4312 1.01062 0.0
C194 C 0.33587 0.48174 0.99664 0.0
C195 C 0.4098 0.54995 0.03771 0.0
N196 N 0.22426 0.44735 1.00857 0.0
N197 N 0.35814 0.53787 0.03843 0.0
H198 H 0.44969 0.82898 0.04247 0.0
H199 H 0.60723 0.73197 0.94989 0.0
H200 H 0.49912 0.86813 0.94622 0.0
H201 H 0.6092 0.74701 0.05243 0.0
H202 H 0.55576 0.77065 0.94518 0.0
H203 H 0.49002 0.78044 0.04255 0.0
C204 C 0.4678 0.82624 0.02105 0.0
C205 C 0.47251 0.85313 0.99453 0.0
C206 C 0.56819 0.76598 0.96863 0.0
C207 C 0.51897 0.79904 0.99469 0.0
C208 C 0.59816 0.74477 0.9713 0.0
C209 C 0.61216 0.7365 1.00155 0.0
C210 C 0.5522 0.77839 0.99642 0.0
C211 C 0.59919 0.75303 0.02867 0.0
C212 C 0.49126 0.79912 0.02126 0.0
C213 C 0.49578 0.84835 0.96727 0.0
N214 N 0.56908 0.77268 0.02548 0.0
N215 N 0.51902 0.82219 0.96816 0.0
H216 H 0.28153 0.89539 0.05782 0.0
H217 H 0.22198 0.6532 0.97496 0.0
H218 H 0.36301 0.88833 0.97614 0.0
H219 H 0.15364 0.6657 0.06143 0.0
H220 H 0.27594 0.73877 0.97477 0.0
H221 H 0.23433 0.81049 0.05886 0.0
C222 C 0.28922 0.87584 0.03999 0.0
C223 C 0.32595 0.89872 1.01681 0.0
C224 C 0.24915 0.72264 0.99378 0.0
C225 C 0.27247 0.80145 0.0179 0.0
C226 C 0.21855 0.67398 0.99388 0.0
C227 C 0.1836 0.6526 0.01828 0.0
C228 C 0.24364 0.74974 0.01787 0.0
C229 C 0.18053 0.68081 0.04234 0.0
C230 C 0.26254 0.82736 0.04067 0.0
C231 C 0.33485 0.87181 0.99441 0.0
N232 N 0.20972 0.7278 0.04136 0.0
N233 N 0.30826 0.82451 0.99547 0.0
H234 H 0.42009 0.15696 0.98822 0.0
H235 H 0.58004 0.39664 0.07909 0.0
H236 H 0.46404 0.17306 0.08842 0.0
H237 H 0.54103 0.38013 0.97822 0.0
H238 H 0.56121 0.31607 0.07965 0.0
H239 H 0.47946 0.23924 0.98175 0.0
C240 C 0.44095 0.1783 1.00909 0.0
C241 C 0.43671 0.15891 0.03904 0.0
C242 C 0.55772 0.33038 0.05727 0.0
C243 C 0.50562 0.25217 0.03173 0.0
C244 C 0.5683 0.37608 0.05705 0.0
C245 C 0.55886 0.39318 0.02902 0.0
C246 C 0.53644 0.30244 0.02949 0.0
C247 C 0.54611 0.36679 1.00065 0.0
C248 C 0.47596 0.2249 1.00523 0.0
C249 C 0.46569 0.18736 0.06511 0.0
N250 N 0.5338 0.32188 1.00172 0.0
N251 N 0.49912 0.23288 0.06085 0.0
H252 H 0.57392 0.13252 1.00002 0.0
H253 H 0.86422 0.26515 0.07679 0.0
H254 H 0.62796 0.07473 0.07261 0.0
H255 H 0.81678 0.31335 0.99471 0.0
H256 H 0.77542 0.19926 0.0795 0.0
H257 H 0.65947 0.20374 1.00203 0.0
C258 C 0.60328 0.1355 1.01712 0.0
C259 C 0.59375 0.09803 0.03652 0.0
C260 C 0.78443 0.22422 0.06085 0.0
C261 C 0.69197 0.17891 0.03864 0.0
C262 C 0.83523 0.26172 0.05925 0.0
C263 C 0.8481 0.29463 0.03538 0.0
C264 C 0.74607 0.21949 0.03842 0.0
C265 C 0.80869 0.28872 1.01348 0.0
C266 C 0.65234 0.17587 0.018 0.0
C267 C 0.63369 0.10303 0.05746 0.0
N268 N 0.75968 0.252 1.01548 0.0
N269 N 0.68087 0.14255 0.05799 0.0
H270 H 0.95345 0.56423 0.98841 0.0
H271 H 0.66899 0.50392 0.04184 0.0
H272 H 0.87513 0.45714 0.05676 0.0
H273 H 0.78276 0.63396 1.00357 0.0
H274 H 0.73373 0.47763 0.04249 0.0
H275 H 0.88194 0.57947 0.98747 0.0
C276 C 0.92082 0.5432 1.00311 0.0
C277 C 0.92145 0.50922 0.02276 0.0
C278 C 0.74452 0.5119 0.03398 0.0
C279 C 0.83703 0.52758 0.02198 0.0
C280 C 0.70733 0.52697 0.03344 0.0
C281 C 0.71985 0.57151 0.02253 0.0
C282 C 0.79484 0.54116 0.02301 0.0
C283 C 0.77068 0.5995 1.01219 0.0
C284 C 0.87967 0.55235 1.00264 0.0
C285 C 0.87692 0.48343 0.04096 0.0
N286 N 0.80552 0.58391 1.01253 0.0
N287 N 0.83682 0.49327 0.04024 0.0
H288 H 0.80613 0.80396 0.30485 0.0
H289 H 0.06104 0.87916 0.40831 0.0
H290 H 0.80638 0.75467 0.39963 0.0
H291 H 0.05342 0.88979 0.30607 0.0
H292 H 0.96979 0.85718 0.41045 0.0
H293 H 0.89829 0.8562 0.31029 0.0
C294 C 0.8262 0.80338 0.32657 0.0
C295 C 0.7995 0.77465 0.35166 0.0
C296 C 0.98857 0.8654 0.38773 0.0
C297 C 0.90462 0.834 0.35794 0.0
C298 C 0.04031 0.87797 0.38645 0.0
C299 C 0.06317 0.88425 0.35676 0.0
C300 C 0.9608 0.85968 0.35911 0.0
C301 C 0.03602 0.88358 0.3292 0.0
C302 C 0.87849 0.83368 0.32982 0.0
C303 C 0.82645 0.77554 0.37952 0.0
N304 N 0.98554 0.87056 0.33097 0.0
N305 N 0.87832 0.80489 0.3819 0.0
H306 H 0.13817 0.16132 0.38359 0.0
H307 H 0.24312 0.00787 0.30151 0.0
H308 H 0.21148 0.20059 0.29304 0.0
H309 H 0.2691 0.04096 0.40223 0.0
H310 H 0.21431 0.06559 0.29567 0.0
H311 H 0.16774 0.10421 0.3887 0.0
C312 C 0.1599 0.15757 0.36454 0.0
C313 C 0.17212 0.18596 0.33776 0.0
C314 C 0.22638 0.06026 0.31903 0.0
C315 C 0.20557 0.11962 0.34333 0.0
C316 C 0.24277 0.02725 0.32242 0.0
C317 C 0.25925 0.01982 0.35237 0.0
C318 C 0.22438 0.08501 0.34597 0.0
C319 C 0.2575 0.04589 0.37862 0.0
C320 C 0.1771 0.12512 0.36763 0.0
C321 C 0.201 0.17958 0.31407 0.0
N322 N 0.23983 0.0767 0.3749 0.0
N323 N 0.21616 0.1469 0.31722 0.0
H324 H 0.03737 0.22657 0.3044 0.0
H325 H 0.85561 0.98957 0.39116 0.0
H326 H 0.95927 0.22858 0.38912 0.0
H327 H 0.86205 0.99617 0.28882 0.0
H328 H 0.90556 0.07547 0.39487 0.0
H329 H 0.98637 0.14142 0.30232 0.0
C330 C 1.00914 0.20912 0.32251 0.0
C331 C 1.00221 0.23518 0.34669 0.0
C332 C 0.89638 0.0581 0.37163 0.0
C333 C 0.94404 0.13656 0.34481 0.0
C334 C 0.86833 0.00904 0.36947 0.0
C335 C 0.85505 0.98543 0.33959 0.0
C336 C 0.9128 0.08405 0.34373 0.0
C337 C 0.87163 0.0127 0.31232 0.0
C338 C 0.98 0.16035 0.32126 0.0
C339 C 0.96541 0.21017 0.36973 0.0
N340 N 0.90007 0.06025 0.31506 0.0
N341 N 0.93809 0.16235 0.3684 0.0
H342 H 0.17006 0.74009 0.31191 0.0
H343 H 0.17721 0.5334 0.40974 0.0
H344 H 0.22114 0.75788 0.41038 0.0
H345 H 0.10469 0.51346 0.31659 0.0
H346 H 0.19953 0.61587 0.40972 0.0
H347 H 0.15462 0.65997 0.31195 0.0
C348 C 0.17875 0.72742 0.33353 0.0
C349 C 0.19777 0.75672 0.36102 0.0
C350 C 0.17875 0.59359 0.38924 0.0
C351 C 0.17818 0.66269 0.36163 0.0
C352 C 0.1658 0.54615 0.38923 0.0
C353 C 0.13827 0.51546 0.36326 0.0
C354 C 0.16514 0.61166 0.36277 0.0
C355 C 0.1252 0.53497 0.33741 0.0
C356 C 0.16945 0.6812 0.33361 0.0
C357 C 0.20751 0.73741 0.38836 0.0
N358 N 0.1388 0.58123 0.3378 0.0
N359 N 0.19745 0.69199 0.388 0.0
H360 H 0.23359 0.46554 0.35248 0.0
H361 H 0.53692 0.57788 0.3567 0.0
H362 H 0.30966 0.39517 0.39279 0.0
H363 H 0.46757 0.66366 0.37188 0.0
H364 H 0.45171 0.50837 0.36137 0.0
H365 H 0.31743 0.53786 0.35244 0.0
C366 C 0.26766 0.46556 0.36196 0.0
C367 C 0.2647 0.42456 0.37303 0.0
C368 C 0.45527 0.54245 0.3638 0.0
C369 C 0.36032 0.50607 0.37169 0.0
C370 C 0.50365 0.58196 0.36099 0.0
C371 C 0.50893 0.62624 0.36412 0.0
C372 C 0.41193 0.54745 0.3691 0.0
C373 C 0.46483 0.62991 0.36958 0.0
C374 C 0.3154 0.50663 0.36169 0.0
C375 C 0.31023 0.42611 0.38423 0.0
N376 N 0.41783 0.59086 0.37165 0.0
N377 N 0.35635 0.46608 0.38285 0.0
H378 H 0.46834 0.95393 0.32888 0.0
H379 H 0.564 0.78589 0.39743 0.0
H380 H 0.39775 0.85949 0.40598 0.0
H381 H 0.6477 0.8942 0.33069 0.0
H382 H 0.49029 0.79914 0.39117 0.0
H383 H 0.52468 0.92089 0.32071 0.0
C384 C 0.46547 0.92684 0.34433 0.0
C385 C 0.42998 0.91028 0.36868 0.0
C386 C 0.52474 0.81981 0.37778 0.0
C387 C 0.49204 0.87164 0.35905 0.0
C388 C 0.56646 0.81245 0.38159 0.0
C389 C 0.61165 0.84069 0.36566 0.0
C390 C 0.52938 0.8556 0.35801 0.0
C391 C 0.61357 0.87344 0.34434 0.0
C392 C 0.49675 0.90749 0.33939 0.0
C393 C 0.42597 0.87412 0.38753 0.0
N394 N 0.57296 0.88052 0.34138 0.0
N395 N 0.45689 0.856 0.38235 0.0
H396 H 0.76531 0.22754 0.6436 0.0
H397 H 0.48619 0.0862 0.7272 0.0
H398 H 0.74197 0.16728 0.7364 0.0
H399 H 0.50593 0.16907 0.64494 0.0
H400 H 0.57936 0.11293 0.72823 0.0
H401 H 0.67222 0.205 0.64079 0.0
C402 C 0.74116 0.20991 0.66345 0.0
C403 C 0.76281 0.19955 0.69031 0.0
C404 C 0.56364 0.12536 0.70979 0.0
C405 C 0.65457 0.17271 0.68704 0.0
C406 C 0.50992 0.10984 0.70916 0.0
C407 C 0.48712 0.1249 0.68589 0.0
C408 C 0.59618 0.15609 0.68667 0.0
C409 C 0.5211 0.15619 0.66341 0.0
C410 C 0.68761 0.19686 0.66181 0.0
C411 C 0.72821 0.17623 0.71502 0.0
N412 N 0.57322 0.17031 0.66422 0.0
N413 N 0.6769 0.16369 0.7127 0.0
H414 H 0.97253 0.41597 0.6295 0.0
H415 H 0.76903 0.4871 0.68615 0.0
H416 H 0.90181 0.38498 0.72142 0.0
H417 H 0.88849 0.57204 0.6212 0.0
H418 H 0.80462 0.43505 0.68944 0.0
H419 H 0.93434 0.46552 0.61909 0.0
C420 C 0.95021 0.42071 0.64771 0.0
C421 C 0.93975 0.39657 0.67614 0.0
C422 C 0.82249 0.46473 0.6741 0.0
C423 C 0.89486 0.45031 0.66401 0.0
C424 C 0.80191 0.49397 0.67191 0.0
C425 C 0.82677 0.53398 0.65382 0.0
C426 C 0.86767 0.47577 0.65786 0.0
C427 C 0.86897 0.54159 0.63569 0.0
C428 C 0.92792 0.44816 0.64162 0.0
C429 C 0.91032 0.40301 0.69906 0.0
N430 N 0.88877 0.51283 0.63846 0.0
N431 N 0.88807 0.42882 0.69227 0.0
H432 H 0.64358 0.56105 0.73686 0.0
H433 H 0.53499 0.33024 0.62817 0.0
H434 H 0.6859 0.56203 0.6391 0.0
H435 H 0.53803 0.32831 0.73097 0.0
H436 H 0.58769 0.41536 0.63114 0.0
H437 H 0.59961 0.47548 0.73487 0.0
C438 C 0.6429 0.54315 0.7149 0.0
C439 C 0.66767 0.56829 0.68798 0.0
C440 C 0.57732 0.39628 0.65306 0.0
C441 C 0.61818 0.4711 0.68554 0.0
C442 C 0.54746 0.34775 0.65133 0.0
C443 C 0.53222 0.32238 0.67933 0.0
C444 C 0.591 0.41953 0.68301 0.0
C445 C 0.54914 0.34668 0.70879 0.0
C446 C 0.61843 0.49449 0.71386 0.0
C447 C 0.66674 0.54371 0.66027 0.0
N448 N 0.57704 0.39398 0.70989 0.0
N449 N 0.64219 0.49648 0.65969 0.0
H450 H 0.73748 0.81819 0.66272 0.0
H451 H 0.91625 0.072 0.73638 0.0
H452 H 0.82479 0.8496 0.75205 0.0
H453 H 0.81983 0.04157 0.65105 0.0
H454 H 0.8975 0.99162 0.73598 0.0
H455 H 0.7779 0.90117 0.65311 0.0
C456 C 0.76399 0.84274 0.68072 0.0
C457 C 0.77718 0.82772 0.70854 0.0
C458 C 0.88069 1.0026 0.71723 0.0
C459 C 0.82426 0.92154 0.69742 0.0
C460 C 0.89115 0.04816 0.71759 0.0
C461 C 0.86757 0.062 0.69449 0.0
C462 C 0.84586 0.97126 0.69392 0.0
C463 C 0.837 0.0311 0.66989 0.0
C464 C 0.78783 0.88985 0.67494 0.0
C465 C 0.81299 0.86031 0.73065 0.0
N466 N 0.82619 0.9865 0.67051 0.0
N467 N 0.83543 0.90602 0.7246 0.0
H468 H 0.90825 0.81315 0.71569 0.0
H469 H 0.20504 0.92129 0.66722 0.0
H470 H 0.97705 0.72963 0.6913 0.0
H471 H 0.15119 0.99982 0.72092 0.0
H472 H 0.11847 0.85229 0.66963 0.0
H473 H 0.99396 0.88366 0.71228 0.0
C474 C 0.9414 0.80968 0.70977 0.0
C475 C 0.9357 0.76545 0.70433 0.0
C476 C 0.12563 0.88459 0.68098 0.0
C477 C 0.03339 0.84578 0.69942 0.0
C478 C 0.17506 0.92396 0.67959 0.0
C479 C 0.18555 0.96623 0.69418 0.0
C480 C 0.08611 0.88749 0.69683 0.0
C481 C 0.14496 0.96781 0.70959 0.0
C482 C 0.99024 0.84986 0.70777 0.0
C483 C 0.97983 0.76295 0.69633 0.0
N484 N 0.09712 0.92914 0.71046 0.0
N485 N 0.02653 0.80241 0.69391 0.0
H486 H 0.21001 0.11594 0.69352 0.0
H487 H 0.11478 0.30203 0.66072 0.0
H488 H 0.31078 0.26424 0.68766 0.0
H489 H 1.01341 0.17419 0.7068 0.0
H490 H 0.18372 0.28208 0.66363 0.0
H491 H 0.13461 0.12923 0.6925 0.0
C492 C 0.21661 0.15109 0.69215 0.0
C493 C 0.26766 0.18888 0.69061 0.0
C494 C 0.14645 0.25815 0.67314 0.0
C495 C 0.18112 0.20437 0.68886 0.0
C496 C 0.10685 0.26967 0.67146 0.0
C497 C 0.05797 0.2403 0.68387 0.0
C498 C 0.13759 0.21603 0.68658 0.0
C499 C 0.05056 0.19847 0.69732 0.0
C500 C 0.17342 0.15872 0.69156 0.0
C501 C 0.27285 0.2336 0.68876 0.0
N502 N 0.0895 0.18748 0.69812 0.0
N503 N 0.23091 0.23982 0.6877 0.0
H504 H 0.20795 0.42659 0.25074 0.0
H505 H 0.98822 0.41978 0.13561 0.0
H506 H 0.05072 0.31331 0.24629 0.0
H507 H 0.14907 0.50057 0.11203 0.0
H508 H 1.01245 0.38757 0.18027 0.0
H509 H 0.19011 0.45812 0.20226 0.0
C510 C 0.17027 0.40735 0.23878 0.0
C511 C 0.13124 0.36635 0.25194 0.0
C512 C 0.0426 0.41249 0.16547 0.0
C513 C 0.10948 0.40394 0.19778 0.0
C514 C 0.02887 0.43144 0.14005 0.0
C515 C 0.06655 0.4631 0.11972 0.0
C516 C 0.09466 0.42536 0.17123 0.0
C517 C 0.1186 0.4766 0.12704 0.0
C518 C 0.15988 0.42575 0.21141 0.0
C519 C 0.08239 0.34405 0.23635 0.0
N520 N 0.13111 0.45764 0.15214 0.0
N521 N 0.07273 0.36342 0.21047 0.0
H522 H 0.58276 0.7337 0.25438 0.0
H523 H 0.68144 0.63256 0.11438 0.0
H524 H 0.74407 0.77862 0.2426 0.0
H525 H 0.52113 0.58791 0.12908 0.0
H526 H 0.70576 0.68517 0.16132 0.0
H527 H 0.56062 0.68285 0.20721 0.0
C528 C 0.61381 0.73398 0.24122 0.0
C529 C 0.6655 0.76094 0.25243 0.0
C530 C 0.66517 0.66311 0.15482 0.0
C531 C 0.64004 0.70107 0.19849 0.0
C532 C 0.65121 0.63236 0.1284 0.0
C533 C 0.59904 0.60448 0.11856 0.0
C534 C 0.62667 0.66652 0.17142 0.0
C535 C 0.56162 0.60757 0.13648 0.0
C536 C 0.60099 0.7043 0.21446 0.0
C537 C 0.70386 0.75915 0.23459 0.0
N538 N 0.57613 0.63801 0.16193 0.0
N539 N 0.69033 0.72935 0.20872 0.0
H540 H 0.37975 0.88843 0.10325 0.0
H541 H 0.28116 0.96446 0.25635 0.0
H542 H 0.43858 0.03111 0.13456 0.0
H543 H 0.27964 0.83383 0.25335 0.0
H544 H 0.32516 0.98423 0.20539 0.0
H545 H 0.33257 0.86286 0.15333 0.0
C546 C 0.38367 0.91435 0.12081 0.0
C547 C 0.41328 0.96205 0.11453 0.0
C548 C 0.31436 0.95082 0.21553 0.0
C549 C 0.35799 0.93302 0.17114 0.0
C550 C 0.28852 0.93926 0.24434 0.0
C551 C 0.27587 0.89708 0.25867 0.0
C552 C 0.32711 0.91971 0.20063 0.0
C553 C 0.28809 0.86639 0.24273 0.0
C554 C 0.35632 0.89973 0.14921 0.0
C555 C 0.41608 0.99398 0.13806 0.0
N556 N 0.31283 0.87816 0.21446 0.0
N557 N 0.38844 0.97894 0.16496 0.0
H558 H 0.4955 0.128 0.94196 0.0
H559 H 0.37164 0.05384 0.76626 0.0
H560 H 0.43744 0.99017 0.90096 0.0
H561 H 0.45909 0.19781 0.79756 0.0
H562 H 0.39809 0.03131 0.81496 0.0
H563 H 0.48619 0.15529 0.88969 0.0
C564 C 0.48141 0.10347 0.92187 0.0
C565 C 0.46683 0.05642 0.9261 0.0
C566 C 0.41175 0.06788 0.81137 0.0
C567 C 0.45543 0.08775 0.86586 0.0
C568 C 0.39636 0.08089 0.78354 0.0
C569 C 0.4124 0.12787 0.77793 0.0
C570 C 0.44292 0.10184 0.83453 0.0
C571 C 0.44545 0.16122 0.80096 0.0
C572 C 0.47612 0.11924 0.89196 0.0
C573 C 0.44918 0.02664 0.899 0.0
N574 N 0.45899 0.14751 0.82849 0.0
N575 N 0.44334 0.04264 0.87023 0.0
H576 H 0.91808 0.37303 0.9369 0.0
H577 H 0.0216 0.3527 0.76717 0.0
H578 H 0.07158 0.47072 0.90679 0.0
H579 H 0.88591 0.23946 0.80721 0.0
H580 H 0.0365 0.39904 0.81568 0.0
H581 H 0.90123 0.32905 0.88694 0.0
C582 C 0.94815 0.38588 0.91947 0.0
C583 C 0.99684 0.4256 0.92641 0.0
C584 C 1.00389 0.36389 0.81422 0.0
C585 C 0.97731 0.37449 0.86868 0.0
C586 C 0.99532 0.33706 0.78651 0.0
C587 C 0.95254 0.29164 0.78306 0.0
C588 C 0.96946 0.34565 0.83912 0.0
C589 C 0.91979 0.27383 0.80893 0.0
C590 C 0.93842 0.36028 0.89099 0.0
C591 C 0.03363 0.44052 0.90261 0.0
N592 N 0.92875 0.30103 0.83582 0.0
N593 N 0.02322 0.41473 0.87489 0.0
H594 H 0.77085 0.6985 0.80052 0.0
H595 H 0.63134 0.50426 0.9285 0.0
H596 H 0.73428 0.5583 0.77554 0.0
H597 H 0.59805 0.61501 0.91112 0.0
H598 H 0.6794 0.52323 0.87841 0.0
H599 H 0.72246 0.6703 0.84878 0.0
C600 C 0.75337 0.66175 0.8053 0.0
C601 C 0.75666 0.63079 0.78349 0.0
C602 C 0.66086 0.54277 0.88556 0.0
C603 C 0.70044 0.59808 0.83955 0.0
C604 C 0.63315 0.53182 0.91401 0.0
C605 C 0.6106 0.55813 0.92435 0.0
C606 C 0.66687 0.58084 0.86783 0.0
C607 C 0.61487 0.5938 0.90457 0.0
C608 C 0.72528 0.64563 0.83293 0.0
C609 C 0.73293 0.58352 0.79156 0.0
N610 N 0.64294 0.60442 0.87778 0.0
N611 N 0.7057 0.56851 0.81896 0.0
H612 H 0.66278 0.73282 0.45585 0.0
H613 H 0.85602 0.78935 0.60129 0.0
H614 H 0.82227 0.8393 0.4452 0.0
H615 H 0.73795 0.64917 0.57554 0.0
H616 H 0.84414 0.81474 0.5483 0.0
H617 H 0.68713 0.7095 0.50474 0.0
C618 C 0.70305 0.75185 0.46382 0.0
C619 C 0.74053 0.78831 0.44598 0.0
C620 C 0.8215 0.77835 0.55412 0.0
C621 C 0.76852 0.76111 0.50282 0.0
C622 C 0.82822 0.76385 0.58423 0.0
C623 C 0.79801 0.71707 0.59262 0.0
C624 C 0.78288 0.74614 0.53283 0.0
C625 C 0.76234 0.68542 0.56986 0.0
C626 C 0.71687 0.73799 0.49177 0.0
C627 C 0.79198 0.8112 0.45809 0.0
N628 N 0.75502 0.70068 0.54127 0.0
N629 N 0.80448 0.79741 0.48593 0.0
H630 H 0.19347 0.96247 0.44561 0.0
H631 H 0.41331 0.11409 0.5799 0.0
H632 H 0.32724 0.94787 0.46577 0.0
H633 H 0.25895 0.09342 0.58324 0.0
H634 H 0.38758 0.0646 0.53117 0.0
H635 H 0.22 0.01863 0.49085 0.0
C636 C 0.22785 0.97037 0.45977 0.0
C637 C 0.2578 0.94987 0.45182 0.0
C638 C 0.35961 0.07172 0.54217 0.0
C639 C 0.28945 0.01556 0.50298 0.0
C640 C 0.37466 0.10077 0.56964 0.0
C641 C 0.33854 0.10863 0.58536 0.0
C642 C 0.30812 0.05062 0.53011 0.0
C643 C 0.28825 0.08882 0.5716 0.0
C644 C 0.24327 0.00282 0.48541 0.0
C645 C 0.30258 0.96236 0.47087 0.0
N646 N 0.27449 0.06071 0.54492 0.0
N647 N 0.31713 0.99445 0.49522 0.0
H648 H 0.90959 0.15853 0.57083 0.0
H649 H 0.1233 0.36404 0.46653 0.0
H650 H 1.0051 0.30197 0.60182 0.0
H651 H 0.03955 0.22198 0.43074 0.0
H652 H 0.08211 0.33859 0.51751 0.0
H653 H 0.9571 0.17729 0.52033 0.0
C654 C 0.94079 0.1936 0.56724 0.0
C655 C 0.9531 0.22875 0.59054 0.0
C656 C 0.07272 0.31267 0.49869 0.0
C657 C 1.00771 0.25035 0.5334 0.0
C658 C 0.09646 0.32733 0.46947 0.0
C659 C 0.08497 0.29523 0.44421 0.0
C660 C 0.03627 0.26542 0.50291 0.0
C661 C 0.04986 0.24795 0.44964 0.0
C662 C 0.96784 0.20436 0.53847 0.0
C663 C 0.99376 0.27371 0.58457 0.0
N664 N 0.02632 0.2345 0.47826 0.0
N665 N 0.01927 0.28304 0.55687 0.0
loop_
_geom_bond_atom_site_label_1
_geom_bond_atom_site_label_2
_geom_bond_distance
_geom_bond_site_symmetry_2
_ccdc_geom_bond_type
Tb0 O3 2.453 1_654 S
Tb0 O4 2.596 1_655 S
Tb0 O5 2.374 . S
Tb0 O13 2.343 . S
Tb0 O15 2.353 1_554 S
Tb0 O17 2.427 1_554 S
Tb0 O18 2.513 . S
C1 O5 1.250 1_455 S
C1 O7 1.263 . S
Tb2 O4 2.343 . S
Tb2 O7 2.353 . S
Tb2 O10 2.427 . S
Tb2 O11 2.513 1_554 S
Tb2 O12 2.453 1_455 S
Tb2 O13 2.596 1_455 S
Tb2 O14 2.374 1_554 S
O3 Tb0 2.453 1_456 S
O3 C19 1.245 1_556 S
O4 Tb0 2.596 1_455 S
O4 Tb2 2.343 . S
O4 C19 1.259 . S
O5 Tb0 2.374 . S
O5 C1 1.250 1_655 S
C6 O10 1.275 1_556 S
C6 O11 1.246 . S
O7 C1 1.263 . S
O7 Tb2 2.353 . S
C8 O12 1.245 . S
C8 O13 1.259 . S
C9 O14 1.250 1_655 S
C9 O15 1.263 . S
O10 Tb2 2.427 . S
O10 C6 1.275 1_554 S
O11 Tb2 2.513 1_556 S
O11 C6 1.246 . S
O12 Tb2 2.453 1_655 S
O12 C8 1.245 . S
O13 Tb0 2.343 . S
O13 Tb2 2.596 1_655 S
O13 C8 1.259 . S
O14 Tb2 2.374 1_556 S
O14 C9 1.250 1_455 S
O15 Tb0 2.353 1_556 S
O15 C9 1.263 . S
C16 O17 1.275 1_554 S
C16 O18 1.246 . S
O17 Tb0 2.427 1_556 S
O17 C16 1.275 1_556 S
O18 Tb0 2.513 . S
O18 C16 1.246 . S
C19 O3 1.245 1_554 S
C19 O4 1.259 . S
Tb20 O23 2.453 . S
Tb20 O24 2.596 . S
Tb20 O25 2.374 1_554 S
Tb20 O33 2.343 . S
Tb20 O35 2.353 . S
Tb20 O37 2.427 . S
Tb20 O38 2.513 1_554 S
C21 O25 1.251 . S
C21 O27 1.263 . S
Tb22 O24 2.343 . S
Tb22 O27 2.353 1_554 S
Tb22 O30 2.427 1_554 S
Tb22 O31 2.513 . S
Tb22 O32 2.453 1_554 S
Tb22 O33 2.596 . S
Tb22 O34 2.374 . S
O23 Tb20 2.453 . S
O23 C39 1.245 . S
O24 Tb20 2.596 . S
O24 Tb22 2.343 . S
O24 C39 1.259 . S
O25 Tb20 2.374 1_556 S
O25 C21 1.251 . S
C26 O30 1.275 1_554 S
C26 O31 1.246 . S
O27 C21 1.263 . S
O27 Tb22 2.353 1_556 S
C28 O32 1.245 1_554 S
C28 O33 1.259 . S
C29 O34 1.250 . S
C29 O35 1.263 . S
O30 Tb22 2.427 1_556 S
O30 C26 1.275 1_556 S
O31 Tb22 2.513 . S
O31 C26 1.246 . S
O32 Tb22 2.453 1_556 S
O32 C28 1.245 1_556 S
O33 Tb20 2.343 . S
O33 Tb22 2.596 . S
O33 C28 1.259 . S
O34 Tb22 2.374 . S
O34 C29 1.250 . S
O35 Tb20 2.353 . S
O35 C29 1.263 . S
C36 O37 1.275 1_556 S
C36 O38 1.246 . S
O37 Tb20 2.427 . S
O37 C36 1.275 1_554 S
O38 Tb20 2.513 1_556 S
O38 C36 1.246 . S
C39 O23 1.245 . S
C39 O24 1.259 . S
Tb40 O43 2.453 1_544 S
Tb40 O44 2.596 1_545 S
Tb40 O45 2.374 . S
Tb40 O53 2.343 . S
Tb40 O55 2.353 1_554 S
Tb40 O57 2.427 1_554 S
Tb40 O58 2.513 . S
C41 O45 1.251 1_565 S
C41 O47 1.263 . S
Tb42 O44 2.343 . S
Tb42 O47 2.353 . S
Tb42 O50 2.427 . S
Tb42 O51 2.513 1_554 S
Tb42 O52 2.453 1_565 S
Tb42 O53 2.596 1_565 S
Tb42 O54 2.381 1_554 S
O43 Tb40 2.453 1_566 S
O43 C59 1.245 1_556 S
O44 Tb40 2.596 1_565 S
O44 Tb42 2.343 . S
O44 C59 1.259 . S
O45 Tb40 2.374 . S
O45 C41 1.251 1_545 S
C46 O50 1.275 1_556 S
C46 O51 1.246 . S
O47 C41 1.263 . S
O47 Tb42 2.353 . S
C48 O52 1.245 . S
C48 O53 1.259 . S
C49 O54 1.235 1_545 S
C49 O55 1.263 . S
O50 Tb42 2.427 . S
O50 C46 1.275 1_554 S
O51 Tb42 2.513 1_556 S
O51 C46 1.246 . S
O52 Tb42 2.453 1_545 S
O52 C48 1.245 . S
O53 Tb40 2.343 . S
O53 Tb42 2.596 1_545 S
O53 C48 1.259 . S
O54 Tb42 2.381 1_556 S
O54 C49 1.235 1_565 S
O55 Tb40 2.353 1_556 S
O55 C49 1.263 . S
C56 O57 1.275 1_554 S
C56 O58 1.246 . S
O57 Tb40 2.427 1_556 S
O57 C56 1.275 1_556 S
O58 Tb40 2.513 . S
O58 C56 1.246 . S
C59 O43 1.245 1_554 S
C59 O44 1.259 . S
Tb60 O63 2.453 . S
Tb60 O64 2.596 . S
Tb60 O65 2.374 . S
Tb60 O73 2.343 . S
Tb60 O75 2.353 . S
Tb60 O77 2.427 . S
Tb60 O78 2.513 . S
C61 O65 1.251 . S
C61 O67 1.263 . S
Tb62 O64 2.343 . S
Tb62 O67 2.353 . S
Tb62 O70 2.427 . S
Tb62 O71 2.513 . S
Tb62 O72 2.453 . S
Tb62 O73 2.596 . S
Tb62 O74 2.374 . S
O63 Tb60 2.453 . S
O63 C79 1.245 . S
O64 Tb60 2.596 . S
O64 Tb62 2.343 . S
O64 C79 1.259 . S
O65 Tb60 2.374 . S
O65 C61 1.251 . S
C66 O70 1.275 . S
C66 O71 1.246 . S
O67 C61 1.263 . S
O67 Tb62 2.353 . S
C68 O72 1.245 . S
C68 O73 1.259 . S
C69 O74 1.250 . S
C69 O75 1.263 . S
O70 Tb62 2.427 . S
O70 C66 1.275 . S
O71 Tb62 2.513 . S
O71 C66 1.246 . S
O72 Tb62 2.453 . S
O72 C68 1.245 . S
O73 Tb60 2.343 . S
O73 Tb62 2.596 . S
O73 C68 1.259 . S
O74 Tb62 2.374 . S
O74 C69 1.250 . S
O75 Tb60 2.353 . S
O75 C69 1.263 . S
C76 O77 1.275 . S
C76 O78 1.246 . S
O77 Tb60 2.427 . S
O77 C76 1.275 . S
O78 Tb60 2.513 . S
O78 C76 1.246 . S
C79 O63 1.245 . S
C79 O64 1.259 . S
Tb80 O83 2.453 . S
Tb80 O84 2.596 . S
Tb80 O85 2.374 . S
Tb80 O93 2.343 . S
Tb80 O95 2.353 . S
Tb80 O97 2.427 . S
Tb80 O98 2.513 . S
C81 O85 1.251 . S
C81 O87 1.263 . S
Tb82 O84 2.343 . S
Tb82 O87 2.353 . S
Tb82 O90 2.427 . S
Tb82 O91 2.513 . S
Tb82 O92 2.453 . S
Tb82 O93 2.596 . S
Tb82 O94 2.374 . S
O83 Tb80 2.453 . S
O83 C99 1.245 . S
O84 Tb80 2.596 . S
O84 Tb82 2.343 . S
O84 C99 1.259 . S
O85 Tb80 2.374 . S
O85 C81 1.251 . S
C86 O90 1.275 . S
C86 O91 1.246 . S
O87 C81 1.263 . S
O87 Tb82 2.353 . S
C88 O92 1.245 . S
C88 O93 1.259 . S
C89 O94 1.250 . S
C89 O95 1.263 . S
O90 Tb82 2.427 . S
O90 C86 1.275 . S
O91 Tb82 2.513 . S
O91 C86 1.246 . S
O92 Tb82 2.453 . S
O92 C88 1.245 . S
O93 Tb80 2.343 . S
O93 Tb82 2.596 . S
O93 C88 1.259 . S
O94 Tb82 2.374 . S
O94 C89 1.250 . S
O95 Tb80 2.353 . S
O95 C89 1.263 . S
C96 O97 1.275 . S
C96 O98 1.246 . S
O97 Tb80 2.427 . S
O97 C96 1.275 . S
O98 Tb80 2.513 . S
O98 C96 1.246 . S
C99 O83 1.245 . S
C99 O84 1.259 . S
Tb100 O103 2.453 . S
Tb100 O104 2.596 . S
Tb100 O105 2.374 . S
Tb100 O113 2.343 . S
Tb100 O115 2.353 . S
Tb100 O117 2.427 . S
Tb100 O118 2.513 . S
C101 O105 1.251 . S
C101 O107 1.263 . S
Tb102 O104 2.343 . S
Tb102 O107 2.353 . S
Tb102 O110 2.427 . S
Tb102 O111 2.513 . S
Tb102 O112 2.453 . S
Tb102 O113 2.596 . S
Tb102 O114 2.374 . S
O103 Tb100 2.453 . S
O103 C119 1.245 . S
O104 Tb100 2.596 . S
O104 Tb102 2.343 . S
O104 C119 1.259 . S
O105 Tb100 2.374 . S
O105 C101 1.251 . S
C106 O110 1.275 . S
C106 O111 1.246 . S
O107 C101 1.263 . S
O107 Tb102 2.353 . S
C108 O112 1.245 . S
C108 O113 1.259 . S
C109 O114 1.250 . S
C109 O115 1.263 . S
O110 Tb102 2.427 . S
O110 C106 1.275 . S
O111 Tb102 2.513 . S
O111 C106 1.246 . S
O112 Tb102 2.453 . S
O112 C108 1.245 . S
O113 Tb100 2.343 . S
O113 Tb102 2.596 . S
O113 C108 1.259 . S
O114 Tb102 2.374 . S
O114 C109 1.250 . S
O115 Tb100 2.353 . S
O115 C109 1.263 . S
C116 O117 1.275 . S
C116 O118 1.246 . S
O117 Tb100 2.427 . S
O117 C116 1.275 . S
O118 Tb100 2.513 . S
O118 C116 1.246 . S
C119 O103 1.245 . S
C119 O104 1.259 . S
Tb120 O123 2.453 . S
Tb120 O124 2.596 . S
Tb120 O125 2.374 . S
Tb120 O133 2.343 . S
Tb120 O135 2.353 . S
Tb120 O137 2.427 . S
Tb120 O138 2.513 . S
C121 O125 1.251 . S
C121 O127 1.263 . S
Tb122 O124 2.343 . S
Tb122 O127 2.353 . S
Tb122 O130 2.427 . S
Tb122 O131 2.513 . S
Tb122 O132 2.453 . S
Tb122 O133 2.596 . S
Tb122 O134 2.374 . S
O123 Tb120 2.453 . S
O123 C139 1.245 . S
O124 Tb120 2.596 . S
O124 Tb122 2.343 . S
O124 C139 1.259 . S
O125 Tb120 2.374 . S
O125 C121 1.251 . S
C126 O130 1.275 . S
C126 O131 1.246 . S
O127 C121 1.263 . S
O127 Tb122 2.353 . S
C128 O132 1.245 . S
C128 O133 1.259 . S
C129 O134 1.250 . S
C129 O135 1.263 . S
O130 Tb122 2.427 . S
O130 C126 1.275 . S
O131 Tb122 2.513 . S
O131 C126 1.246 . S
O132 Tb122 2.453 . S
O132 C128 1.245 . S
O133 Tb120 2.343 . S
O133 Tb122 2.596 . S
O133 C128 1.259 . S
O134 Tb122 2.374 . S
O134 C129 1.250 . S
O135 Tb120 2.353 . S
O135 C129 1.263 . S
C136 O137 1.275 . S
C136 O138 1.246 . S
O137 Tb120 2.427 . S
O137 C136 1.275 . S
O138 Tb120 2.513 . S
O138 C136 1.246 . S
C139 O123 1.245 . S
C139 O124 1.259 . S
Tb140 O143 2.453 . S
Tb140 O144 2.596 . S
Tb140 O145 2.374 . S
Tb140 O153 2.343 . S
Tb140 O155 2.353 . S
Tb140 O157 2.427 . S
Tb140 O158 2.513 . S
C141 O145 1.251 . S
C141 O147 1.263 . S
Tb142 O144 2.343 . S
Tb142 O147 2.353 . S
Tb142 O150 2.427 . S
Tb142 O151 2.513 . S
Tb142 O152 2.453 . S
Tb142 O153 2.596 . S
Tb142 O154 2.374 . S
O143 Tb140 2.453 . S
O143 C159 1.245 . S
O144 Tb140 2.596 . S
O144 Tb142 2.343 . S
O144 C159 1.259 . S
O145 Tb140 2.374 . S
O145 C141 1.251 . S
C146 O150 1.275 . S
C146 O151 1.246 . S
O147 C141 1.263 . S
O147 Tb142 2.353 . S
C148 O152 1.245 . S
C148 O153 1.259 . S
C149 O154 1.250 . S
C149 O155 1.263 . S
O150 Tb142 2.427 . S
O150 C146 1.275 . S
O151 Tb142 2.513 . S
O151 C146 1.246 . S
O152 Tb142 2.453 . S
O152 C148 1.245 . S
O153 Tb140 2.343 . S
O153 Tb142 2.596 . S
O153 C148 1.259 . S
O154 Tb142 2.374 . S
O154 C149 1.250 . S
O155 Tb140 2.353 . S
O155 C149 1.263 . S
C156 O157 1.275 . S
C156 O158 1.246 . S
O157 Tb140 2.427 . S
O157 C156 1.275 . S
O158 Tb140 2.513 . S
O158 C156 1.246 . S
C159 O143 1.245 . S
C159 O144 1.259 . S
Tb160 O163 2.453 . S
Tb160 O164 2.596 . S
Tb160 O165 2.374 . S
Tb160 O173 2.343 . S
Tb160 O175 2.353 . S
Tb160 O177 2.427 . S
Tb160 O178 2.513 . S
C161 O165 1.251 . S
C161 O167 1.263 . S
Tb162 O164 2.343 . S
Tb162 O167 2.353 . S
Tb162 O170 2.427 . S
Tb162 O171 2.513 . S
Tb162 O172 2.453 . S
Tb162 O173 2.596 . S
Tb162 O174 2.374 . S
O163 Tb160 2.453 . S
O163 C179 1.245 . S
O164 Tb160 2.596 . S
O164 Tb162 2.343 . S
O164 C179 1.259 . S
O165 Tb160 2.374 . S
O165 C161 1.251 . S
C166 O170 1.275 . S
C166 O171 1.246 . S
O167 C161 1.263 . S
O167 Tb162 2.353 . S
C168 O172 1.245 . S
C168 O173 1.259 . S
C169 O174 1.250 . S
C169 O175 1.263 . S
O170 Tb162 2.427 . S
O170 C166 1.275 . S
O171 Tb162 2.513 . S
O171 C166 1.246 . S
O172 Tb162 2.453 . S
O172 C168 1.245 . S
O173 Tb160 2.343 . S
O173 Tb162 2.596 . S
O173 C168 1.259 . S
O174 Tb162 2.374 . S
O174 C169 1.250 . S
O175 Tb160 2.353 . S
O175 C169 1.263 . S
C176 O177 1.275 . S
C176 O178 1.246 . S
O177 Tb160 2.427 . S
O177 C176 1.275 . S
O178 Tb160 2.513 . S
O178 C176 1.246 . S
C179 O163 1.245 . S
C179 O164 1.259 . S
H180 C186 0.930 . S
H181 C190 0.930 . S
H182 C195 0.929 . S
H183 C193 0.929 . S
H184 C188 0.929 . S
H185 C194 0.929 . S
C186 H180 0.930 . S
C186 C187 1.367 1_556 S
C186 C194 1.378 . S
C187 C186 1.367 1_554 S
C187 C195 1.433 . S
C188 H184 0.929 . S
C188 C190 1.378 . S
C188 C192 1.350 . S
C189 C192 1.463 . S
C189 C194 1.350 1_554 S
C189 N197 1.427 . S
C190 H181 0.930 . S
C190 C188 1.378 . S
C190 C191 1.367 . S
C191 C190 1.367 . S
C191 C193 1.433 1_554 S
C192 C188 1.350 . S
C192 C189 1.463 . S
C192 N196 1.427 1_554 S
C193 H183 0.929 . S
C193 C191 1.433 1_556 S
C193 N196 1.384 . S
C194 H185 0.929 . S
C194 C186 1.378 . S
C194 C189 1.350 1_556 S
C195 H182 0.929 . S
C195 C187 1.433 . S
C195 N197 1.384 . S
N196 C192 1.427 1_556 S
N196 C193 1.384 . S
N197 C189 1.427 . S
N197 C195 1.384 . S
H198 C204 0.930 . S
H199 C208 0.930 . S
H200 C213 0.929 . S
H201 C211 0.929 . S
H202 C206 0.929 . S
H203 C212 0.929 . S
C204 H198 0.930 . S
C204 C205 1.367 1_554 S
C204 C212 1.378 . S
C205 C204 1.367 1_556 S
C205 C213 1.433 . S
C206 H202 0.929 . S
C206 C208 1.378 . S
C206 C210 1.350 . S
C207 C210 1.463 . S
C207 C212 1.350 1_556 S
C207 N215 1.427 . S
C208 H199 0.930 . S
C208 C206 1.378 . S
C208 C209 1.367 . S
C209 C208 1.367 . S
C209 C211 1.433 1_556 S
C210 C206 1.350 . S
C210 C207 1.463 . S
C210 N214 1.427 1_556 S
C211 H201 0.929 . S
C211 C209 1.433 1_554 S
C211 N214 1.384 . S
C212 H203 0.929 . S
C212 C204 1.378 . S
C212 C207 1.350 1_554 S
C213 H200 0.929 . S
C213 C205 1.433 . S
C213 N215 1.384 . S
N214 C210 1.427 1_554 S
N214 C211 1.384 . S
N215 C207 1.427 . S
N215 C213 1.384 . S
H216 C222 0.930 . S
H217 C226 0.930 . S
H218 C231 0.929 . S
H219 C229 0.929 . S
H220 C224 0.929 . S
H221 C230 0.929 . S
C222 H216 0.930 . S
C222 C223 1.367 . S
C222 C230 1.378 . S
C223 C222 1.367 . S
C223 C231 1.433 1_554 S
C224 H220 0.929 . S
C224 C226 1.378 . S
C224 C228 1.344 1_556 S
C225 C228 1.463 . S
C225 C230 1.350 . S
C225 N233 1.427 1_554 S
C226 H217 0.930 . S
C226 C224 1.378 . S
C226 C227 1.367 . S
C227 C226 1.367 . S
C227 C229 1.433 1_556 S
C228 C224 1.344 1_554 S
C228 C225 1.463 . S
C228 N232 1.434 . S
C229 H219 0.929 . S
C229 C227 1.433 1_554 S
C229 N232 1.384 . S
C230 H221 0.929 . S
C230 C222 1.378 . S
C230 C225 1.350 . S
C231 H218 0.929 . S
C231 C223 1.433 1_556 S
C231 N233 1.384 . S
N232 C228 1.434 . S
N232 C229 1.384 . S
N233 C225 1.427 1_556 S
N233 C231 1.384 . S
H234 C240 0.930 . S
H235 C244 0.930 . S
H236 C249 0.929 . S
H237 C247 0.929 . S
H238 C242 0.929 . S
H239 C248 0.929 . S
C240 H234 0.930 . S
C240 C241 1.367 1_556 S
C240 C248 1.378 . S
C241 C240 1.367 1_554 S
C241 C249 1.433 . S
C242 H238 0.929 . S
C242 C244 1.378 . S
C242 C246 1.350 . S
C243 C246 1.463 . S
C243 C248 1.350 1_554 S
C243 N251 1.427 . S
C244 H235 0.930 . S
C244 C242 1.378 . S
C244 C245 1.367 . S
C245 C244 1.367 . S
C245 C247 1.433 1_554 S
C246 C242 1.350 . S
C246 C243 1.463 . S
C246 N250 1.427 1_554 S
C247 H237 0.929 . S
C247 C245 1.433 1_556 S
C247 N250 1.384 . S
C248 H239 0.929 . S
C248 C240 1.378 . S
C248 C243 1.350 1_556 S
C249 H236 0.929 . S
C249 C241 1.433 . S
C249 N251 1.384 . S
N250 C246 1.427 1_556 S
N250 C247 1.384 . S
N251 C243 1.427 . S
N251 C249 1.384 . S
H252 C258 0.930 . S
H253 C262 0.930 . S
H254 C267 0.929 . S
H255 C265 0.929 . S
H256 C260 0.929 . S
H257 C266 0.929 . S
C258 H252 0.930 . S
C258 C259 1.348 1_556 S
C258 C266 1.378 . S
C259 C258 1.348 1_554 S
C259 C267 1.454 . S
C260 H256 0.929 . S
C260 C262 1.378 . S
C260 C264 1.350 . S
C261 C264 1.463 . S
C261 C266 1.350 1_554 S
C261 N269 1.427 . S
C262 H253 0.930 . S
C262 C260 1.378 . S
C262 C263 1.367 . S
C263 C262 1.367 . S
C263 C265 1.433 1_554 S
C264 C260 1.350 . S
C264 C261 1.463 . S
C264 N268 1.427 1_554 S
C265 H255 0.929 . S
C265 C263 1.433 1_556 S
C265 N268 1.384 . S
C266 H257 0.929 . S
C266 C258 1.378 . S
C266 C261 1.350 1_556 S
C267 H254 0.929 . S
C267 C259 1.454 . S
C267 N269 1.384 . S
N268 C264 1.427 1_556 S
N268 C265 1.384 . S
N269 C261 1.427 . S
N269 C267 1.384 . S
H270 C276 0.930 . S
H271 C280 0.930 . S
H272 C285 0.929 . S
H273 C283 0.929 . S
H274 C278 0.929 . S
H275 C284 0.929 . S
C276 H270 0.930 . S
C276 C277 1.378 . S
C276 C284 1.378 . S
C277 C276 1.378 . S
C277 C285 1.422 1_556 S
C278 H274 0.929 . S
C278 C280 1.378 . S
C278 C282 1.350 1_554 S
C279 C282 1.462 . S
C279 C284 1.363 . S
C279 N287 1.415 1_556 S
C280 H271 0.930 . S
C280 C278 1.378 . S
C280 C281 1.365 1_554 S
C281 C280 1.365 1_556 S
C281 C283 1.435 . S
C282 C278 1.350 1_556 S
C282 C279 1.462 . S
C282 N286 1.427 . S
C283 H273 0.929 . S
C283 C281 1.435 . S
C283 N286 1.384 . S
C284 H275 0.929 . S
C284 C276 1.378 . S
C284 C279 1.363 . S
C285 H272 0.929 . S
C285 C277 1.422 1_554 S
C285 N287 1.384 . S
N286 C282 1.427 . S
N286 C283 1.384 . S
N287 C279 1.415 1_554 S
N287 C285 1.384 . S
H288 C294 0.930 . S
H289 C298 0.930 . S
H290 C303 0.929 . S
H291 C301 0.929 . S
H292 C296 0.929 . S
H293 C302 0.929 . S
C294 H288 0.930 . S
C294 C295 1.367 . S
C294 C302 1.378 . S
C295 C294 1.367 . S
C295 C303 1.433 . S
C296 H292 0.929 . S
C296 C298 1.378 1_655 S
C296 C300 1.350 . S
C297 C300 1.463 . S
C297 C302 1.350 . S
C297 N305 1.427 . S
C298 H289 0.930 . S
C298 C296 1.378 1_455 S
C298 C299 1.367 . S
C299 C298 1.367 . S
C299 C301 1.433 . S
C300 C296 1.350 . S
C300 C297 1.463 . S
C300 N304 1.427 . S
C301 H291 0.929 . S
C301 C299 1.433 . S
C301 N304 1.384 1_455 S
C302 H293 0.929 . S
C302 C294 1.378 . S
C302 C297 1.350 . S
C303 H290 0.929 . S
C303 C295 1.433 . S
C303 N305 1.384 . S
N304 C300 1.427 . S
N304 C301 1.384 1_655 S
N305 C297 1.427 . S
N305 C303 1.384 . S
H306 C312 0.930 . S
H307 C316 0.930 . S
H308 C321 0.929 . S
H309 C319 0.929 1_565 S
H310 C314 0.929 . S
H311 C320 0.929 . S
C312 H306 0.930 . S
C312 C313 1.367 . S
C312 C320 1.378 . S
C313 C312 1.367 . S
C313 C321 1.433 . S
C314 H310 0.929 . S
C314 C316 1.378 . S
C314 C318 1.350 . S
C315 C318 1.463 . S
C315 C320 1.350 . S
C315 N323 1.427 . S
C316 H307 0.930 . S
C316 C314 1.378 . S
C316 C317 1.367 . S
C317 C316 1.367 . S
C317 C319 1.433 . S
C318 C314 1.350 . S
C318 C315 1.463 . S
C318 N322 1.427 . S
C319 H309 0.929 1_545 S
C319 C317 1.433 . S
C319 N322 1.384 . S
C320 H311 0.929 . S
C320 C312 1.378 . S
C320 C315 1.350 . S
C321 H308 0.929 . S
C321 C313 1.433 . S
C321 N323 1.384 . S
N322 C318 1.427 . S
N322 C319 1.384 . S
N323 C315 1.427 . S
N323 C321 1.384 . S
H324 C330 0.930 . S
H325 C334 0.930 1_565 S
H326 C339 0.929 . S
H327 C337 0.929 . S
H328 C332 0.929 . S
H329 C338 0.929 . S
C330 H324 0.930 . S
C330 C331 1.367 . S
C330 C338 1.378 1_455 S
C331 C330 1.367 . S
C331 C339 1.433 1_455 S
C332 H328 0.929 . S
C332 C334 1.378 . S
C332 C336 1.350 . S
C333 C336 1.463 . S
C333 C338 1.350 . S
C333 N341 1.427 . S
C334 H325 0.930 1_545 S
C334 C332 1.378 . S
C334 C335 1.367 1_545 S
C335 C334 1.367 1_565 S
C335 C337 1.433 . S
C336 C332 1.350 . S
C336 C333 1.463 . S
C336 N340 1.427 . S
C337 H327 0.929 . S
C337 C335 1.433 . S
C337 N340 1.384 1_565 S
C338 H329 0.929 . S
C338 C330 1.378 1_655 S
C338 C333 1.350 . S
C339 H326 0.929 . S
C339 C331 1.433 1_655 S
C339 N341 1.384 . S
N340 C336 1.427 . S
N340 C337 1.384 1_545 S
N341 C333 1.427 . S
N341 C339 1.384 . S
H342 C348 0.930 . S
H343 C352 0.930 . S
H344 C357 0.929 . S
H345 C355 0.929 . S
H346 C350 0.929 . S
H347 C356 0.929 . S
C348 H342 0.930 . S
C348 C349 1.367 . S
C348 C356 1.378 . S
C349 C348 1.367 . S
C349 C357 1.433 . S
C350 H346 0.929 . S
C350 C352 1.378 . S
C350 C354 1.350 . S
C351 C354 1.463 . S
C351 C356 1.350 . S
C351 N359 1.427 . S
C352 H343 0.930 . S
C352 C350 1.378 . S
C352 C353 1.367 . S
C353 C352 1.367 . S
C353 C355 1.433 . S
C354 C350 1.350 . S
C354 C351 1.463 . S
C354 N358 1.427 . S
C355 H345 0.929 . S
C355 C353 1.433 . S
C355 N358 1.384 . S
C356 H347 0.929 . S
C356 C348 1.378 . S
C356 C351 1.350 . S
C357 H344 0.929 . S
C357 C349 1.433 . S
C357 N359 1.384 . S
N358 C354 1.427 . S
N358 C355 1.384 . S
N359 C351 1.427 . S
N359 C357 1.384 . S
H360 C366 0.930 . S
H361 C370 0.930 . S
H362 C375 0.929 . S
H363 C373 0.929 . S
H364 C368 0.929 . S
H365 C374 0.929 . S
C366 H360 0.930 . S
C366 C367 1.367 . S
C366 C374 1.378 . S
C367 C366 1.367 . S
C367 C375 1.433 . S
C368 H364 0.929 . S
C368 C370 1.378 . S
C368 C372 1.350 . S
C369 C372 1.463 . S
C369 C374 1.350 . S
C369 N377 1.427 . S
C370 H361 0.930 . S
C370 C368 1.378 . S
C370 C371 1.367 . S
C371 C370 1.367 . S
C371 C373 1.433 . S
C372 C368 1.350 . S
C372 C369 1.463 . S
C372 N376 1.427 . S
C373 H363 0.929 . S
C373 C371 1.433 . S
C373 N376 1.384 . S
C374 H365 0.929 . S
C374 C366 1.378 . S
C374 C369 1.350 . S
C375 H362 0.929 . S
C375 C367 1.433 . S
C375 N377 1.384 . S
N376 C372 1.427 . S
N376 C373 1.384 . S
N377 C369 1.427 . S
N377 C375 1.384 . S
H378 C384 0.930 . S
H379 C388 0.930 . S
H380 C393 0.929 . S
H381 C391 0.929 . S
H382 C386 0.929 . S
H383 C392 0.929 . S
C384 H378 0.930 . S
C384 C385 1.367 . S
C384 C392 1.378 . S
C385 C384 1.367 . S
C385 C393 1.433 . S
C386 H382 0.929 . S
C386 C388 1.378 . S
C386 C390 1.350 . S
C387 C390 1.463 . S
C387 C392 1.350 . S
C387 N395 1.427 . S
C388 H379 0.930 . S
C388 C386 1.378 . S
C388 C389 1.367 . S
C389 C388 1.367 . S
C389 C391 1.433 . S
C390 C386 1.350 . S
C390 C387 1.463 . S
C390 N394 1.427 . S
C391 H381 0.929 . S
C391 C389 1.433 . S
C391 N394 1.384 . S
C392 H383 0.929 . S
C392 C384 1.378 . S
C392 C387 1.350 . S
C393 H380 0.929 . S
C393 C385 1.433 . S
C393 N395 1.384 . S
N394 C390 1.427 . S
N394 C391 1.384 . S
N395 C387 1.427 . S
N395 C393 1.384 . S
H396 C402 0.930 . S
H397 C406 0.930 . S
H398 C411 0.929 . S
H399 C409 0.929 . S
H400 C404 0.929 . S
H401 C410 0.929 . S
C402 H396 0.930 . S
C402 C403 1.367 . S
C402 C410 1.378 . S
C403 C402 1.367 . S
C403 C411 1.433 . S
C404 H400 0.929 . S
C404 C406 1.378 . S
C404 C408 1.350 . S
C405 C408 1.463 . S
C405 C410 1.350 . S
C405 N413 1.427 . S
C406 H397 0.930 . S
C406 C404 1.378 . S
C406 C407 1.367 . S
C407 C406 1.367 . S
C407 C409 1.433 . S
C408 C404 1.350 . S
C408 C405 1.463 . S
C408 N412 1.427 . S
C409 H399 0.929 . S
C409 C407 1.433 . S
C409 N412 1.384 . S
C410 H401 0.929 . S
C410 C402 1.378 . S
C410 C405 1.350 . S
C411 H398 0.929 . S
C411 C403 1.433 . S
C411 N413 1.384 . S
N412 C408 1.427 . S
N412 C409 1.384 . S
N413 C405 1.427 . S
N413 C411 1.384 . S
H414 C420 0.930 . S
H415 C424 0.930 . S
H416 C429 0.929 . S
H417 C427 0.929 . S
H418 C422 0.929 . S
H419 C428 0.929 . S
C420 H414 0.930 . S
C420 C421 1.367 . S
C420 C428 1.378 . S
C421 C420 1.367 . S
C421 C429 1.433 . S
C422 H418 0.929 . S
C422 C424 1.378 . S
C422 C426 1.350 . S
C423 C426 1.463 . S
C423 C428 1.350 . S
C423 N431 1.427 . S
C424 H415 0.930 . S
C424 C422 1.378 . S
C424 C425 1.367 . S
C425 C424 1.367 . S
C425 C427 1.433 . S
C426 C422 1.350 . S
C426 C423 1.463 . S
C426 N430 1.427 . S
C427 H417 0.929 . S
C427 C425 1.433 . S
C427 N430 1.384 . S
C428 H419 0.929 . S
C428 C420 1.378 . S
C428 C423 1.350 . S
C429 H416 0.929 . S
C429 C421 1.433 . S
C429 N431 1.384 . S
N430 C426 1.427 . S
N430 C427 1.384 . S
N431 C423 1.427 . S
N431 C429 1.384 . S
H432 C438 0.930 . S
H433 C442 0.930 . S
H434 C447 0.929 . S
H435 C445 0.929 . S
H436 C440 0.929 . S
H437 C446 0.929 . S
C438 H432 0.930 . S
C438 C439 1.367 . S
C438 C446 1.378 . S
C439 C438 1.367 . S
C439 C447 1.433 . S
C440 H436 0.929 . S
C440 C442 1.378 . S
C440 C444 1.350 . S
C441 C444 1.463 . S
C441 C446 1.350 . S
C441 N449 1.427 . S
C442 H433 0.930 . S
C442 C440 1.378 . S
C442 C443 1.367 . S
C443 C442 1.367 . S
C443 C445 1.433 . S
C444 C440 1.350 . S
C444 C441 1.463 . S
C444 N448 1.427 . S
C445 H435 0.929 . S
C445 C443 1.433 . S
C445 N448 1.384 . S
C446 H437 0.929 . S
C446 C438 1.378 . S
C446 C441 1.350 . S
C447 H434 0.929 . S
C447 C439 1.433 . S
C447 N449 1.384 . S
N448 C444 1.427 . S
N448 C445 1.384 . S
N449 C441 1.427 . S
N449 C447 1.384 . S
H450 C456 0.930 . S
H451 C460 0.930 . S
H452 C465 0.929 . S
H453 C463 0.929 . S
H454 C458 0.929 1_565 S
H455 C464 0.929 . S
C456 H450 0.930 . S
C456 C457 1.367 . S
C456 C464 1.378 . S
C457 C456 1.367 . S
C457 C465 1.433 . S
C458 H454 0.929 1_545 S
C458 C460 1.378 . S
C458 C462 1.350 1_545 S
C459 C462 1.463 . S
C459 C464 1.350 . S
C459 N467 1.427 . S
C460 H451 0.930 . S
C460 C458 1.378 . S
C460 C461 1.367 . S
C461 C460 1.367 . S
C461 C463 1.433 . S
C462 C458 1.350 1_565 S
C462 C459 1.463 . S
C462 N466 1.427 . S
C463 H453 0.929 . S
C463 C461 1.433 . S
C463 N466 1.384 1_545 S
C464 H455 0.929 . S
C464 C456 1.378 . S
C464 C459 1.350 . S
C465 H452 0.929 . S
C465 C457 1.433 . S
C465 N467 1.384 . S
N466 C462 1.427 . S
N466 C463 1.384 1_565 S
N467 C459 1.427 . S
N467 C465 1.384 . S
H468 C474 0.930 . S
H469 C478 0.930 . S
H470 C483 0.929 . S
H471 C481 0.929 1_545 S
H472 C476 0.929 . S
H473 C482 0.929 . S
C474 H468 0.930 . S
C474 C475 1.367 . S
C474 C482 1.378 . S
C475 C474 1.367 . S
C475 C483 1.433 . S
C476 H472 0.929 . S
C476 C478 1.378 . S
C476 C480 1.350 . S
C477 C480 1.463 . S
C477 C482 1.350 1_455 S
C477 N485 1.427 . S
C478 H469 0.930 . S
C478 C476 1.378 . S
C478 C479 1.367 . S
C479 C478 1.367 . S
C479 C481 1.433 . S
C480 C476 1.350 . S
C480 C477 1.463 . S
C480 N484 1.427 . S
C481 H471 0.929 1_565 S
C481 C479 1.433 . S
C481 N484 1.384 . S
C482 H473 0.929 . S
C482 C474 1.378 . S
C482 C477 1.350 1_655 S
C483 H470 0.929 . S
C483 C475 1.433 . S
C483 N485 1.384 1_655 S
N484 C480 1.427 . S
N484 C481 1.384 . S
N485 C477 1.427 . S
N485 C483 1.384 1_455 S
H486 C492 0.930 . S
H487 C496 0.930 . S
H488 C501 0.929 . S
H489 C499 0.929 1_655 S
H490 C494 0.929 . S
H491 C500 0.929 . S
C492 H486 0.930 . S
C492 C493 1.367 . S
C492 C500 1.378 . S
C493 C492 1.367 . S
C493 C501 1.433 . S
C494 H490 0.929 . S
C494 C496 1.378 . S
C494 C498 1.350 . S
C495 C498 1.463 . S
C495 C500 1.350 . S
C495 N503 1.427 . S
C496 H487 0.930 . S
C496 C494 1.378 . S
C496 C497 1.367 . S
C497 C496 1.367 . S
C497 C499 1.433 . S
C498 C494 1.350 . S
C498 C495 1.463 . S
C498 N502 1.427 . S
C499 H489 0.929 1_455 S
C499 C497 1.433 . S
C499 N502 1.384 . S
C500 H491 0.929 . S
C500 C492 1.378 . S
C500 C495 1.350 . S
C501 H488 0.929 . S
C501 C493 1.433 . S
C501 N503 1.384 . S
N502 C498 1.427 . S
N502 C499 1.384 . S
N503 C495 1.427 . S
N503 C501 1.384 . S
H504 C510 0.930 . S
H505 C514 0.930 1_655 S
H506 C519 0.929 . S
H507 C517 0.929 . S
H508 C512 0.929 . S
H509 C518 0.929 . S
C510 H504 0.930 . S
C510 C511 1.367 . S
C510 C518 1.378 . S
C511 C510 1.367 . S
C511 C519 1.433 . S
C512 H508 0.929 . S
C512 C514 1.378 . S
C512 C516 1.350 . S
C513 C516 1.463 . S
C513 C518 1.350 . S
C513 N521 1.427 . S
C514 H505 0.930 1_455 S
C514 C512 1.378 . S
C514 C515 1.367 . S
C515 C514 1.367 . S
C515 C517 1.433 . S
C516 C512 1.350 . S
C516 C513 1.463 . S
C516 N520 1.427 . S
C517 H507 0.929 . S
C517 C515 1.433 . S
C517 N520 1.384 . S
C518 H509 0.929 . S
C518 C510 1.378 . S
C518 C513 1.350 . S
C519 H506 0.929 . S
C519 C511 1.433 . S
C519 N521 1.384 . S
N520 C516 1.427 . S
N520 C517 1.384 . S
N521 C513 1.427 . S
N521 C519 1.384 . S
H522 C528 0.930 . S
H523 C532 0.930 . S
H524 C537 0.929 . S
H525 C535 0.929 . S
H526 C530 0.929 . S
H527 C536 0.929 . S
C528 H522 0.930 . S
C528 C529 1.367 . S
C528 C536 1.378 . S
C529 C528 1.367 . S
C529 C537 1.433 . S
C530 H526 0.929 . S
C530 C532 1.378 . S
C530 C534 1.350 . S
C531 C534 1.463 . S
C531 C536 1.350 . S
C531 N539 1.427 . S
C532 H523 0.930 . S
C532 C530 1.378 . S
C532 C533 1.367 . S
C533 C532 1.367 . S
C533 C535 1.433 . S
C534 C530 1.350 . S
C534 C531 1.463 . S
C534 N538 1.427 . S
C535 H525 0.929 . S
C535 C533 1.433 . S
C535 N538 1.384 . S
C536 H527 0.929 . S
C536 C528 1.378 . S
C536 C531 1.350 . S
C537 H524 0.929 . S
C537 C529 1.433 . S
C537 N539 1.384 . S
N538 C534 1.427 . S
N538 C535 1.384 . S
N539 C531 1.427 . S
N539 C537 1.384 . S
H540 C546 0.930 . S
H541 C550 0.930 . S
H542 C555 0.929 1_545 S
H543 C553 0.929 . S
H544 C548 0.929 . S
H545 C554 0.929 . S
C546 H540 0.930 . S
C546 C547 1.367 . S
C546 C554 1.378 . S
C547 C546 1.367 . S
C547 C555 1.433 . S
C548 H544 0.929 . S
C548 C550 1.378 . S
C548 C552 1.350 . S
C549 C552 1.463 . S
C549 C554 1.350 . S
C549 N557 1.427 . S
C550 H541 0.930 . S
C550 C548 1.378 . S
C550 C551 1.367 . S
C551 C550 1.367 . S
C551 C553 1.433 . S
C552 C548 1.350 . S
C552 C549 1.463 . S
C552 N556 1.427 . S
C553 H543 0.929 . S
C553 C551 1.433 . S
C553 N556 1.384 . S
C554 H545 0.929 . S
C554 C546 1.378 . S
C554 C549 1.350 . S
C555 H542 0.929 1_565 S
C555 C547 1.433 . S
C555 N557 1.384 . S
N556 C552 1.427 . S
N556 C553 1.384 . S
N557 C549 1.427 . S
N557 C555 1.384 . S
H558 C564 0.930 . S
H559 C568 0.930 . S
H560 C573 0.929 1_565 S
H561 C571 0.929 . S
H562 C566 0.929 . S
H563 C572 0.929 . S
C564 H558 0.930 . S
C564 C565 1.367 . S
C564 C572 1.378 . S
C565 C564 1.367 . S
C565 C573 1.433 . S
C566 H562 0.929 . S
C566 C568 1.378 . S
C566 C570 1.350 . S
C567 C570 1.463 . S
C567 C572 1.350 . S
C567 N575 1.427 . S
C568 H559 0.930 . S
C568 C566 1.378 . S
C568 C569 1.367 . S
C569 C568 1.367 . S
C569 C571 1.433 . S
C570 C566 1.350 . S
C570 C567 1.463 . S
C570 N574 1.427 . S
C571 H561 0.929 . S
C571 C569 1.433 . S
C571 N574 1.384 . S
C572 H563 0.929 . S
C572 C564 1.378 . S
C572 C567 1.350 . S
C573 H560 0.929 1_545 S
C573 C565 1.433 . S
C573 N575 1.384 . S
N574 C570 1.427 . S
N574 C571 1.384 . S
N575 C567 1.427 . S
N575 C573 1.384 . S
H576 C582 0.930 . S
H577 C586 0.930 . S
H578 C591 0.929 1_455 S
H579 C589 0.929 . S
H580 C584 0.929 . S
H581 C590 0.929 . S
C582 H576 0.930 . S
C582 C583 1.367 . S
C582 C590 1.378 . S
C583 C582 1.367 . S
C583 C591 1.433 . S
C584 H580 0.929 . S
C584 C586 1.378 . S
C584 C588 1.350 . S
C585 C588 1.463 . S
C585 C590 1.350 . S
C585 N593 1.427 . S
C586 H577 0.930 . S
C586 C584 1.378 . S
C586 C587 1.367 . S
C587 C586 1.367 . S
C587 C589 1.433 . S
C588 C584 1.350 . S
C588 C585 1.463 . S
C588 N592 1.427 . S
C589 H579 0.929 . S
C589 C587 1.433 . S
C589 N592 1.384 . S
C590 H581 0.929 . S
C590 C582 1.378 . S
C590 C585 1.350 . S
C591 H578 0.929 1_655 S
C591 C583 1.433 . S
C591 N593 1.384 . S
N592 C588 1.427 . S
N592 C589 1.384 . S
N593 C585 1.427 . S
N593 C591 1.384 . S
H594 C600 0.930 . S
H595 C604 0.930 . S
H596 C609 0.929 . S
H597 C607 0.929 . S
H598 C602 0.929 . S
H599 C608 0.929 . S
C600 H594 0.930 . S
C600 C601 1.367 . S
C600 C608 1.378 . S
C601 C600 1.367 . S
C601 C609 1.433 . S
C602 H598 0.929 . S
C602 C604 1.378 . S
C602 C606 1.350 . S
C603 C606 1.463 . S
C603 C608 1.350 . S
C603 N611 1.427 . S
C604 H595 0.930 . S
C604 C602 1.378 . S
C604 C605 1.367 . S
C605 C604 1.367 . S
C605 C607 1.433 . S
C606 C602 1.350 . S
C606 C603 1.463 . S
C606 N610 1.427 . S
C607 H597 0.929 . S
C607 C605 1.433 . S
C607 N610 1.384 . S
C608 H599 0.929 . S
C608 C600 1.378 . S
C608 C603 1.350 . S
C609 H596 0.929 . S
C609 C601 1.433 . S
C609 N611 1.384 . S
N610 C606 1.427 . S
N610 C607 1.384 . S
N611 C603 1.427 . S
N611 C609 1.384 . S
H612 C618 0.930 . S
H613 C622 0.930 . S
H614 C627 0.929 . S
H615 C625 0.929 . S
H616 C620 0.929 . S
H617 C626 0.929 . S
C618 H612 0.930 . S
C618 C619 1.367 . S
C618 C626 1.378 . S
C619 C618 1.367 . S
C619 C627 1.433 . S
C620 H616 0.929 . S
C620 C622 1.378 . S
C620 C624 1.350 . S
C621 C624 1.463 . S
C621 C626 1.350 . S
C621 N629 1.427 . S
C622 H613 0.930 . S
C622 C620 1.378 . S
C622 C623 1.367 . S
C623 C622 1.367 . S
C623 C625 1.433 . S
C624 C620 1.350 . S
C624 C621 1.463 . S
C624 N628 1.427 . S
C625 H615 0.929 . S
C625 C623 1.433 . S
C625 N628 1.384 . S
C626 H617 0.929 . S
C626 C618 1.378 . S
C626 C621 1.350 . S
C627 H614 0.929 . S
C627 C619 1.433 . S
C627 N629 1.384 . S
N628 C624 1.427 . S
N628 C625 1.384 . S
N629 C621 1.427 . S
N629 C627 1.384 . S
H630 C636 0.930 . S
H631 C640 0.930 . S
H632 C645 0.929 . S
H633 C643 0.929 . S
H634 C638 0.929 . S
H635 C644 0.929 1_545 S
C636 H630 0.930 . S
C636 C637 1.367 . S
C636 C644 1.378 . S
C637 C636 1.367 . S
C637 C645 1.433 . S
C638 H634 0.929 . S
C638 C640 1.378 . S
C638 C642 1.350 . S
C639 C642 1.463 . S
C639 C644 1.350 1_545 S
C639 N647 1.427 1_545 S
C640 H631 0.930 . S
C640 C638 1.378 . S
C640 C641 1.367 . S
C641 C640 1.367 . S
C641 C643 1.433 . S
C642 C638 1.350 . S
C642 C639 1.463 . S
C642 N646 1.427 . S
C643 H633 0.929 . S
C643 C641 1.433 . S
C643 N646 1.384 . S
C644 H635 0.929 1_565 S
C644 C636 1.378 . S
C644 C639 1.350 1_565 S
C645 H632 0.929 . S
C645 C637 1.433 . S
C645 N647 1.384 . S
N646 C642 1.427 . S
N646 C643 1.384 . S
N647 C639 1.427 1_565 S
N647 C645 1.384 . S
H648 C654 0.930 . S
H649 C658 0.930 . S
H650 C663 0.929 . S
H651 C661 0.929 . S
H652 C656 0.929 . S
H653 C662 0.929 . S
C654 H648 0.930 . S
C654 C655 1.367 . S
C654 C662 1.378 . S
C655 C654 1.367 . S
C655 C663 1.433 . S
C656 H652 0.929 . S
C656 C658 1.378 . S
C656 C660 1.350 . S
C657 C660 1.463 1_655 S
C657 C662 1.350 . S
C657 N665 1.427 1_655 S
C658 H649 0.930 . S
C658 C656 1.378 . S
C658 C659 1.367 . S
C659 C658 1.367 . S
C659 C661 1.433 . S
C660 C656 1.350 . S
C660 C657 1.463 1_455 S
C660 N664 1.427 . S
C661 H651 0.929 . S
C661 C659 1.433 . S
C661 N664 1.384 . S
C662 H653 0.929 . S
C662 C654 1.378 . S
C662 C657 1.350 . S
C663 H650 0.929 . S
C663 C655 1.433 . S
C663 N665 1.384 1_655 S
N664 C660 1.427 . S
N664 C661 1.384 . S
N665 C657 1.427 1_455 S
N665 C663 1.384 1_455 S
C187 C28 1.712 . S
C191 C19 1.839 . S
C205 C46 0.827 . S
C209 C36 0.838 . S
C223 C59 1.567 . S
C227 C6 1.494 . S
C241 C56 1.071 . S
C245 C26 1.023 . S
C259 C48 1.259 . S
C263 C16 1.348 . S
C277 C8 1.896 1_556 S
C281 C39 2.064 1_556 S
C295 C79 1.051 . S
C299 C86 1.007 . S
C313 C106 1.579 . S
C317 C99 1.602 1_545 S
C331 C119 1.630 . S
C335 C66 1.543 . S
C349 C88 1.708 . S
C353 C116 1.864 . S
C367 C108 1.193 . S
C371 C76 1.276 . S
C385 C96 1.314 . S
C389 C68 1.180 . S
C403 C148 1.704 . S
C407 C139 1.817 . S
C421 C156 0.834 . S
C425 C166 0.832 . S
C439 C179 1.564 . S
C443 C126 1.481 . S
C457 C176 1.042 . S
C461 C146 1.003 . S
C475 C168 1.244 . S
C479 C136 1.333 1_565 S
C493 C128 1.909 . S
C497 C159 2.050 1_455 S
C511 C109 2.159 . S
C515 C1 2.217 . S
C529 C69 2.263 . S
C533 C29 2.267 . S
C547 C41 2.222 . S
C551 C89 2.122 . S
C565 C49 2.165 . S
C569 C121 2.212 . S
C583 C9 2.211 . S
C587 C149 2.223 . S
C601 C161 2.167 . S
C605 C21 2.165 . S
C619 C61 2.217 . S
C623 C169 2.158 . S
C637 C81 2.266 . S
C641 C129 2.162 . S
C655 C141 2.117 . S
C659 C101 2.120 . S
