# Generated by pormake.
# Topology lhb, (8)-cn, num edge types: 1
# Building blocks:
#     Node 0, Type 0, BuildingBlock: EBIMEJ_clean_sbu_0, # of connection points: 8
#     Node 1, Type 0, BuildingBlock: EBIMEJ_clean_sbu_0, # of connection points: 8
#     Node 2, Type 0, BuildingBlock: EBIMEJ_clean_sbu_0, # of connection points: 8
#     Node 3, Type 0, BuildingBlock: EBIMEJ_clean_sbu_0, # of connection points: 8
#     Node 4, Type 0, BuildingBlock: EBIMEJ_clean_sbu_0, # of connection points: 8
#     Node 5, Type 0, BuildingBlock: EBIMEJ_clean_sbu_0, # of connection points: 8
#     Node 6, Type 0, BuildingBlock: EBIMEJ_clean_sbu_0, # of connection points: 8
#     Node 7, Type 0, BuildingBlock: EBIMEJ_clean_sbu_0, # of connection points: 8
#     Edge 8, Type (0, 0), BuildingBlock: EZIPEK_clean_linker_0, # of connection points: 2
#     Edge 9, Type (0, 0), BuildingBlock: EZIPEK_clean_linker_0, # of connection points: 2
#     Edge 10, Type (0, 0), BuildingBlock: EZIPEK_clean_linker_0, # of connection points: 2
#     Edge 11, Type (0, 0), BuildingBlock: EZIPEK_clean_linker_0, # of connection points: 2
#     Edge 12, Type (0, 0), BuildingBlock: EZIPEK_clean_linker_0, # of connection points: 2
#     Edge 13, Type (0, 0), BuildingBlock: EZIPEK_clean_linker_0, # of connection points: 2
#     Edge 14, Type (0, 0), BuildingBlock: EZIPEK_clean_linker_0, # of connection points: 2
#     Edge 15, Type (0, 0), BuildingBlock: EZIPEK_clean_linker_0, # of connection points: 2
#     Edge 16, Type (0, 0), BuildingBlock: EZIPEK_clean_linker_0, # of connection points: 2
#     Edge 17, Type (0, 0), BuildingBlock: EZIPEK_clean_linker_0, # of connection points: 2
#     Edge 18, Type (0, 0), BuildingBlock: EZIPEK_clean_linker_0, # of connection points: 2
#     Edge 19, Type (0, 0), BuildingBlock: EZIPEK_clean_linker_0, # of connection points: 2
#     Edge 20, Type (0, 0), BuildingBlock: EZIPEK_clean_linker_0, # of connection points: 2
#     Edge 21, Type (0, 0), BuildingBlock: EZIPEK_clean_linker_0, # of connection points: 2
#     Edge 22, Type (0, 0), BuildingBlock: EZIPEK_clean_linker_0, # of connection points: 2
#     Edge 23, Type (0, 0), BuildingBlock: EZIPEK_clean_linker_0, # of connection points: 2
#     Edge 24, Type (0, 0), BuildingBlock: EZIPEK_clean_linker_0, # of connection points: 2
#     Edge 25, Type (0, 0), BuildingBlock: EZIPEK_clean_linker_0, # of connection points: 2
#     Edge 26, Type (0, 0), BuildingBlock: EZIPEK_clean_linker_0, # of connection points: 2
#     Edge 27, Type (0, 0), BuildingBlock: EZIPEK_clean_linker_0, # of connection points: 2
#     Edge 28, Type (0, 0), BuildingBlock: EZIPEK_clean_linker_0, # of connection points: 2
#     Edge 29, Type (0, 0), BuildingBlock: EZIPEK_clean_linker_0, # of connection points: 2
#     Edge 30, Type (0, 0), BuildingBlock: EZIPEK_clean_linker_0, # of connection points: 2
#     Edge 31, Type (0, 0), BuildingBlock: EZIPEK_clean_linker_0, # of connection points: 2
#     Edge 32, Type (0, 0), BuildingBlock: EZIPEK_clean_linker_0, # of connection points: 2
#     Edge 33, Type (0, 0), BuildingBlock: EZIPEK_clean_linker_0, # of connection points: 2
#     Edge 34, Type (0, 0), BuildingBlock: EZIPEK_clean_linker_0, # of connection points: 2
#     Edge 35, Type (0, 0), BuildingBlock: EZIPEK_clean_linker_0, # of connection points: 2
#     Edge 36, Type (0, 0), BuildingBlock: EZIPEK_clean_linker_0, # of connection points: 2
#     Edge 37, Type (0, 0), BuildingBlock: EZIPEK_clean_linker_0, # of connection points: 2
#     Edge 38, Type (0, 0), BuildingBlock: EZIPEK_clean_linker_0, # of connection points: 2
#     Edge 39, Type (0, 0), BuildingBlock: EZIPEK_clean_linker_0, # of connection points: 2
# Relax obj value: 0.067
# Max RMSD: 0.169
# Mean RMSD: 0.169
data_MOF--net-lhb--node1-EBIMEJ_clean_sbu_0--edge1-EZIPEK_clean_linker_0
_symmetry_space_group_name_H-M    P1
_symmetry_Int_Tables_number       1
_symmetry_cell_setting            triclinic
loop_
_symmetry_equiv_pos_as_xyz
'x, y, z'
_cell_length_a     24.615888
_cell_length_b     11.733635
_cell_length_c     52.679501
_cell_angle_alpha  82.192648
_cell_angle_beta   89.852231
_cell_angle_gamma 89.985638
loop_
_atom_site_label
_atom_site_type_symbol
_atom_site_fract_x
_atom_site_fract_y
_atom_site_fract_z
_atom_type_partial_charge
Co0 Co 0.96207 0.91191 0.98113 0.0
Co1 Co 0.0684 0.00861 1.0108 0.0
Co2 Co 0.9717 0.91384 0.0413 0.0
H3 H 0.97514 0.94143 1.01123 0.0
O4 O 0.9889 0.00788 1.00633 0.0
H5 H 0.06088 0.00198 0.04146 0.0
O6 O 0.0499 0.93383 0.04727 0.0
Co7 Co 0.06579 0.04914 0.07084 0.0
O8 O 0.14008 0.0967 0.05473 0.0
O9 O 0.14751 0.02294 1.01761 0.0
O10 O 1.00237 -0.01166 0.09504 0.0
O11 O 0.96003 0.85038 0.07759 0.0
O12 O 0.93666 0.89778 0.94442 0.0
O13 O 0.90172 0.01981 0.96442 0.0
O14 O 0.04275 0.20197 0.05314 0.0
O15 O 0.06022 0.1772 1.01248 0.0
C16 C 0.87255 0.82949 1.01781 0.0
C17 C 0.0692 -0.01858 0.95543 0.0
C18 C 0.09947 0.10121 0.11284 0.0
C19 C 0.01192 0.72404 1.01322 0.0
C20 C 0.16693 0.07954 0.03468 0.0
C21 C 0.96556 0.91025 0.09593 0.0
C22 C 0.90275 0.97787 0.94371 0.0
C23 C 0.04813 0.24016 0.02959 0.0
O24 O 0.89611 0.82302 0.99644 0.0
O25 O 0.89321 0.88465 0.0348 0.0
O26 O 0.08358 0.04338 0.97269 0.0
O27 O 0.02744 0.91633 0.95769 0.0
O28 O 0.07124 0.16546 0.09705 0.0
O29 O 0.10793 0.006 0.10503 0.0
O30 O 0.01663 0.78991 0.99226 0.0
O31 O 0.98964 0.75616 0.03302 0.0
Co32 Co 0.19631 0.29429 0.32139 0.0
Co33 Co 0.2944 0.16391 0.29224 0.0
Co34 Co 0.19523 0.24764 0.26194 0.0
H35 H 0.20283 0.24426 0.29242 0.0
O36 O 0.21552 0.17788 0.29851 0.0
H37 H 0.29037 0.18819 0.26209 0.0
O38 O 0.27482 0.25258 0.25698 0.0
Co39 Co 0.30548 0.15954 0.23202 0.0
O40 O 0.37361 0.08116 0.24721 0.0
O41 O 0.37414 0.14104 0.28574 0.0
O42 O 0.23863 0.15198 0.20988 0.0
O43 O 0.1795 0.27656 0.22386 0.0
O44 O 0.17133 0.42591 0.34148 0.0
O45 O 0.17087 0.25793 0.35937 0.0
O46 O 0.27912 0.00133 0.24298 0.0
O47 O 0.27805 0.00277 0.28555 0.0
C48 C 0.0962 0.32073 0.28546 0.0
C49 C 0.28814 0.1384 0.34855 0.0
C50 C 0.35868 0.2395 0.19362 0.0
C51 C 0.22256 0.47395 0.27948 0.0
C52 C 0.39636 0.08842 0.26864 0.0
C53 C 0.19554 0.21292 0.20717 0.0
C54 C 0.16104 0.36105 0.36189 0.0
C55 C 0.27244 0.9523 0.26568 0.0
O56 O 0.12316 0.34443 0.30487 0.0
O57 O 0.11578 0.25868 0.26934 0.0
O58 O 0.30761 0.1035 0.32849 0.0
O59 O 0.2485 0.20973 0.34821 0.0
O60 O 0.33169 0.14819 0.1954 0.0
O61 O 0.35534 0.28654 0.21363 0.0
O62 O 0.23339 0.43069 0.30226 0.0
O63 O 0.20144 0.41707 0.26306 0.0
Co64 Co 0.69704 0.79856 0.32152 0.0
Co65 Co 0.79583 0.66831 0.29279 0.0
Co66 Co 0.69734 0.75402 0.26205 0.0
H67 H 0.70427 0.74924 0.29254 0.0
O68 O 0.71679 0.68272 0.29863 0.0
H69 H 0.79251 0.69353 0.26251 0.0
O70 O 0.7771 0.75821 0.25752 0.0
Co71 Co 0.80812 0.66699 0.23223 0.0
O72 O 0.87548 0.58681 0.2478 0.0
O73 O 0.8756 0.64436 0.2866 0.0
O74 O 0.74254 0.66719 0.20884 0.0
O75 O 0.68231 0.7864 0.22397 0.0
O76 O 0.6758 0.9306 0.34221 0.0
O77 O 0.66884 0.76145 0.35901 0.0
O78 O 0.78307 0.5073 0.24319 0.0
O79 O 0.77925 0.50799 0.28577 0.0
C80 C 0.59761 0.82615 0.28523 0.0
C81 C 0.78745 0.64039 0.34923 0.0
C82 C 0.85841 0.75011 0.19298 0.0
C83 C 0.72426 0.9796 0.28011 0.0
C84 C 0.8978 0.5921 0.26942 0.0
C85 C 0.69907 0.72718 0.20661 0.0
C86 C 0.6624 0.86507 0.36209 0.0
C87 C 0.77505 0.45788 0.26578 0.0
O88 O 0.62416 0.84949 0.30479 0.0
O89 O 0.61772 0.76489 0.26908 0.0
O90 O 0.80827 0.60713 0.32924 0.0
O91 O 0.74744 0.71078 0.34864 0.0
O92 O 0.86128 0.64685 0.20285 0.0
O93 O 0.82787 0.80707 0.20569 0.0
O94 O 0.73424 0.9361 0.30296 0.0
O95 O 0.70363 0.92306 0.26353 0.0
Co96 Co 0.95724 0.41353 0.48227 0.0
Co97 Co 0.06793 0.50156 0.51201 0.0
Co98 Co 0.9687 0.4172 0.54259 0.0
H99 H 0.97265 0.44164 0.51237 0.0
O100 O 0.98824 0.50609 0.50727 0.0
H101 H 0.06059 0.49639 0.54256 0.0
O102 O 0.04775 0.42995 0.54854 0.0
Co103 Co 0.06769 0.54478 0.57168 0.0
O104 O 0.14022 0.59827 0.55476 0.0
O105 O 0.14748 0.51249 0.51922 0.0
O106 O 0.01727 0.45546 0.59876 0.0
O107 O 0.95548 0.35644 0.57895 0.0
O108 O 0.93415 0.40472 0.44506 0.0
O109 O 0.90251 0.53231 0.46453 0.0
O110 O 0.02924 0.68062 0.55307 0.0
O111 O 0.06147 0.67065 0.5137 0.0
C112 C 0.86661 0.34297 0.51938 0.0
C113 C 0.06647 0.47425 0.45654 0.0
C114 C 0.10342 0.60856 0.61239 0.0
C115 C 0.99036 0.20562 0.51582 0.0
C116 C 0.16716 0.57459 0.53528 0.0
C117 C 0.97665 0.38663 0.59912 0.0
C118 C 0.90288 0.48961 0.4439 0.0
C119 C 0.03996 0.72582 0.53039 0.0
O120 O 0.88947 0.33473 0.49796 0.0
O121 O 0.88883 0.39624 0.53632 0.0
O122 O 0.08349 0.53332 0.47388 0.0
O123 O 0.02287 0.41476 0.45885 0.0
O124 O 0.08634 0.67502 0.59339 0.0
O125 O 0.10014 0.50554 0.60834 0.0
O126 O 0.98428 0.25536 0.49314 0.0
O127 O 0.98422 0.25559 0.53575 0.0
Co128 Co 0.20075 0.79363 0.82228 0.0
Co129 Co 0.29943 0.67058 0.7921 0.0
Co130 Co 0.19892 0.75239 0.76211 0.0
H131 H 0.20715 0.74733 0.79276 0.0
O132 O 0.22043 0.68109 0.79861 0.0
H133 H 0.29382 0.68955 0.76207 0.0
O134 O 0.27833 0.75351 0.7566 0.0
Co135 Co 0.30712 0.65582 0.73226 0.0
O136 O 0.37497 0.57755 0.74831 0.0
O137 O 0.37913 0.65398 0.78485 0.0
O138 O 0.24124 0.65908 0.7091 0.0
O139 O 0.18234 0.78198 0.72406 0.0
O140 O 0.2111 0.89355 0.85161 0.0
O141 O 0.14301 0.79027 0.85121 0.0
O142 O 0.26909 0.51034 0.74477 0.0
O143 O 0.28598 0.5065 0.78664 0.0
C144 C 0.09959 0.82532 0.78777 0.0
C145 C 0.29403 0.64275 0.84892 0.0
C146 C 0.36234 0.72376 0.69357 0.0
C147 C 0.22466 0.97914 0.77966 0.0
C148 C 0.39997 0.59418 0.76871 0.0
C149 C 0.19846 0.72122 0.70679 0.0
C150 C 0.16733 0.86219 0.86274 0.0
C151 C 0.27034 0.45888 0.76748 0.0
O152 O 0.12532 0.83512 0.80837 0.0
O153 O 0.11984 0.77473 0.7697 0.0
O154 O 0.31462 0.61419 0.82847 0.0
O155 O 0.25273 0.70919 0.84914 0.0
O156 O 0.36777 0.62727 0.70683 0.0
O157 O 0.3261 0.78247 0.70248 0.0
O158 O 0.22938 0.93943 0.80319 0.0
O159 O 0.20978 0.91928 0.76256 0.0
Co160 Co 0.69714 0.29249 0.82184 0.0
Co161 Co 0.79588 0.16047 0.79259 0.0
Co162 Co 0.69856 0.25224 0.76182 0.0
H163 H 0.70509 0.24605 0.79248 0.0
O164 O 0.71706 0.17878 0.79841 0.0
H165 H 0.79252 0.18757 0.76253 0.0
O166 O 0.77831 0.25347 0.75753 0.0
Co167 Co 0.80596 0.1579 0.73244 0.0
O168 O 0.87091 0.06684 0.74807 0.0
O169 O 0.87494 0.13264 0.78598 0.0
O170 O 0.73976 0.15362 0.70993 0.0
O171 O 0.6836 0.28402 0.72359 0.0
O172 O 0.71035 0.38028 0.85303 0.0
O173 O 0.63813 0.29286 0.85019 0.0
O174 O 0.75439 0.03008 0.74333 0.0
O175 O 0.77839 0.00202 0.78453 0.0
C176 C 0.59889 0.32506 0.78477 0.0
C177 C 0.78736 0.12974 0.84894 0.0
C178 C 0.86336 0.22923 0.69455 0.0
C179 C 0.71799 0.48336 0.78072 0.0
C180 C 0.89486 0.07473 0.76921 0.0
C181 C 0.6977 0.2178 0.70706 0.0
C182 C 0.66492 0.35526 0.86322 0.0
C183 C 0.75785 0.96698 0.7647 0.0
O184 O 0.62453 0.34378 0.80494 0.0
O185 O 0.61911 0.26583 0.76833 0.0
O186 O 0.80773 0.09596 0.82889 0.0
O187 O 0.74802 0.20182 0.8484 0.0
O188 O 0.87321 0.13979 0.70976 0.0
O189 O 0.82182 0.27965 0.70121 0.0
O190 O 0.72197 0.44452 0.80429 0.0
O191 O 0.70651 0.42116 0.76339 0.0
Co192 Co 0.45755 0.91545 0.48188 0.0
Co193 Co 0.56753 0.00423 0.51195 0.0
Co194 Co 0.46761 0.92068 0.54212 0.0
H195 H 0.47225 0.94457 0.51195 0.0
O196 O 0.48794 0.00888 0.50684 0.0
H197 H 0.55964 -0.00051 0.54244 0.0
O198 O 0.54651 0.9333 0.5484 0.0
Co199 Co 0.5667 0.04736 0.57162 0.0
O200 O 0.63929 0.10075 0.55493 0.0
O201 O 0.64694 0.01485 0.51945 0.0
O202 O 0.51774 0.95166 0.59843 0.0
O203 O 0.45348 0.8604 0.57835 0.0
O204 O 0.39099 0.90107 0.45894 0.0
O205 O 0.44543 0.03558 0.45 0.0
O206 O 0.53243 0.18845 0.55315 0.0
O207 O 0.56098 0.17344 0.51335 0.0
C208 C 0.36645 0.84377 0.51868 0.0
C209 C 0.56731 0.97691 0.45654 0.0
C210 C 0.59979 0.10917 0.61293 0.0
C211 C 0.49106 0.70926 0.51573 0.0
C212 C 0.66641 0.07709 0.53552 0.0
C213 C 0.47604 0.8857 0.59863 0.0
C214 C 0.403 -0.01187 0.44341 0.0
C215 C 0.54173 0.23101 0.53015 0.0
O216 O 0.38968 0.83584 0.49734 0.0
O217 O 0.38797 0.89844 0.53556 0.0
O218 O 0.58399 0.03569 0.47396 0.0
O219 O 0.52361 0.91763 0.45861 0.0
O220 O 0.61842 0.14619 0.59115 0.0
O221 O 0.56293 0.03678 0.6112 0.0
O222 O 0.48566 0.75858 0.49299 0.0
O223 O 0.48382 0.75931 0.53556 0.0
Co224 Co 0.45967 0.40716 0.9832 0.0
Co225 Co 0.56919 0.50362 1.01264 0.0
Co226 Co 0.46905 0.42294 0.04313 0.0
H227 H 0.47408 0.44067 1.01298 0.0
O228 O 0.48974 0.50428 1.00734 0.0
H229 H 0.56071 0.50215 0.0431 0.0
O230 O 0.54786 0.43606 0.04937 0.0
Co231 Co 0.56617 0.55338 0.07205 0.0
O232 O 0.64096 0.59782 0.05758 0.0
O233 O 0.64822 0.5262 1.02014 0.0
O234 O 0.51512 0.47026 0.09944 0.0
O235 O 0.45453 0.36831 0.07973 0.0
O236 O 0.39768 0.38775 0.95786 0.0
O237 O 0.44616 0.53324 0.95254 0.0
O238 O 0.52921 0.68785 0.05186 0.0
O239 O 0.55831 0.67062 1.01243 0.0
C240 C 0.3682 0.3426 1.02054 0.0
C241 C 0.5693 0.47026 0.95742 0.0
C242 C 0.60129 0.6211 0.11233 0.0
C243 C 0.49316 0.20677 1.01884 0.0
C244 C 0.66757 0.5822 0.03748 0.0
C245 C 0.47481 0.40112 0.09979 0.0
C246 C 0.40725 0.48107 0.94395 0.0
C247 C 0.53711 0.72856 0.02853 0.0
O248 O 0.39283 0.32559 1.0 0.0
O249 O 0.38933 0.40382 0.03627 0.0
O250 O 0.58591 0.53071 0.97459 0.0
O251 O 0.52572 0.41035 0.95975 0.0
O252 O 0.59251 0.6853 0.09167 0.0
O253 O 0.58978 0.51838 0.11021 0.0
O254 O 0.48935 0.25392 0.99585 0.0
O255 O 0.48425 0.25906 0.0382 0.0
C256 C 0.10836 0.06553 0.1613 0.0
C257 C 0.12032 0.13475 0.13761 0.0
C258 C 0.16864 0.27248 0.16117 0.0
C259 C 0.16143 0.19753 0.18439 0.0
N260 N 0.1269 0.02001 0.20691 0.0
N261 N 0.16859 0.296 0.11464 0.0
C262 C 0.1316 0.09364 0.18453 0.0
C263 C 0.1517 0.23699 0.13747 0.0
N264 N 0.0736 0.97442 0.16172 0.0
N265 N 0.1922 0.37749 0.16182 0.0
H266 H 0.15907 0.27075 0.09696 0.0
H267 H 0.19619 0.36377 0.1131 0.0
H268 H 0.20545 0.40455 0.17883 0.0
H269 H 0.19433 0.44139 0.14608 0.0
H270 H 0.0587 0.92727 0.17843 0.0
H271 H 0.05628 0.95006 0.14526 0.0
H272 H 0.11236 0.93621 0.20803 0.0
H273 H 0.14003 0.04123 0.2245 0.0
C274 C 0.93637 0.9445 0.14123 0.0
C275 C 0.92984 0.88438 0.11966 0.0
C276 C 0.86835 0.74803 0.14542 0.0
C277 C 0.88283 0.79645 0.16777 0.0
N278 N 0.93444 0.93534 0.18747 0.0
N279 N 0.86337 0.77606 0.09921 0.0
C280 C 0.91762 0.89364 0.16579 0.0
C281 C 0.88866 0.7982 0.12108 0.0
N282 N 0.95429 0.05575 0.1379 0.0
N283 N 0.83426 0.6552 0.14724 0.0
H284 H 0.86771 0.82973 0.08192 0.0
H285 H 0.8313 0.71863 0.09878 0.0
H286 H 0.8132 0.62358 0.16389 0.0
H287 H 0.82877 0.6057 0.13247 0.0
H288 H 0.95626 0.10623 0.15268 0.0
H289 H 0.95826 0.10411 0.1199 0.0
H290 H 0.96432 -0.00177 0.18741 0.0
H291 H 0.92221 0.90002 0.20583 0.0
C292 C 0.07542 0.51263 0.40865 0.0
C293 C 0.09849 0.46744 0.43257 0.0
C294 C 0.1682 0.36939 0.40975 0.0
C295 C 0.14057 0.40147 0.38612 0.0
N296 N 0.06324 0.49309 0.36374 0.0
N297 N 0.16427 0.34387 0.45627 0.0
C298 C 0.09325 0.47155 0.38568 0.0
C299 C 0.14456 0.39427 0.4332 0.0
N300 N 0.0364 0.59576 0.40798 0.0
N301 N 0.21802 0.31822 0.40975 0.0
H302 H 0.14944 0.3629 0.47377 0.0
H303 H 0.19298 0.27805 0.4581 0.0
H304 H 0.23687 0.30038 0.39304 0.0
H305 H 0.24283 0.30342 0.42584 0.0
H306 H 0.02096 0.64033 0.3911 0.0
H307 H 0.02351 0.62815 0.42448 0.0
H308 H 0.02522 0.53233 0.36296 0.0
H309 H 0.07376 0.46256 0.34672 0.0
C310 C 0.84398 0.68473 0.38639 0.0
C311 C 0.81418 0.60317 0.37432 0.0
C312 C 0.8354 0.45327 0.41017 0.0
C313 C 0.86965 0.53165 0.42092 0.0
N314 N 0.91103 0.71936 0.41814 0.0
N315 N 0.78555 0.40754 0.37316 0.0
C316 C 0.87462 0.64715 0.40891 0.0
C317 C 0.8112 0.48666 0.38574 0.0
N318 N 0.84341 0.79841 0.37621 0.0
N319 N 0.8238 0.34872 0.42397 0.0
H320 H 0.76462 0.42962 0.356 0.0
H321 H 0.78786 0.31915 0.37884 0.0
H322 H 0.83911 0.32281 0.44229 0.0
H323 H 0.79487 0.29224 0.41847 0.0
H324 H 0.85773 0.86409 0.38585 0.0
H325 H 0.82544 0.82891 0.35871 0.0
H326 H 0.92196 0.79936 0.40846 0.0
H327 H 0.93374 0.69655 0.4347 0.0
C328 C 0.16627 0.72992 0.6361 0.0
C329 C 0.1238 0.64698 0.63683 0.0
C330 C 0.12414 0.6277 0.68416 0.0
C331 C 0.16535 0.71278 0.68332 0.0
N332 N 0.2183 0.86065 0.65883 0.0
N333 N 0.05531 0.53371 0.66153 0.0
C334 C 0.18382 0.76914 0.65932 0.0
C335 C 0.10074 0.60079 0.66089 0.0
N336 N 0.19237 0.76576 0.61347 0.0
N337 N 0.10892 0.56888 0.70729 0.0
H338 H 0.03719 0.51171 0.64508 0.0
H339 H 0.0329 0.50773 0.67809 0.0
H340 H 0.12273 0.59059 0.72472 0.0
H341 H 0.08498 0.49505 0.70923 0.0
H342 H 0.2274 0.81593 0.61207 0.0
H343 H 0.18209 0.73713 0.59623 0.0
H344 H 0.22966 0.91308 0.64212 0.0
H345 H 0.23149 0.8907 0.67553 0.0
C346 C 0.9103 0.385 0.66484 0.0
C347 C 0.89495 0.26781 0.67075 0.0
C348 C 0.94091 0.22587 0.63157 0.0
C349 C 0.95027 0.34517 0.6242 0.0
N350 N 0.93096 0.54063 0.63128 0.0
N351 N 0.88513 0.0816 0.65639 0.0
C352 C 0.9314 0.42556 0.64012 0.0
C353 C 0.90753 0.18921 0.65326 0.0
N354 N 0.90651 0.4572 0.68306 0.0
N355 N 0.96484 0.14711 0.61824 0.0
H356 H 0.85846 0.05237 0.67125 0.0
H357 H 0.88834 0.02576 0.64268 0.0
H358 H 0.99048 0.17031 0.6026 0.0
H359 H 0.96361 0.05881 0.62427 0.0
H360 H 0.92224 0.54046 0.68047 0.0
H361 H 0.8931 0.43019 0.7017 0.0
H362 H 0.91256 0.60132 0.64121 0.0
H363 H 0.94415 0.57454 0.61298 0.0
C364 C 0.09751 0.97187 0.88519 0.0
C365 C 0.14631 0.90629 0.88635 0.0
C366 C 0.15112 0.91243 0.933 0.0
C367 C 0.10231 0.9775 0.93174 0.0
N368 N 0.03579 0.09083 0.90648 0.0
N369 N 0.2238 0.82755 0.91057 0.0
C370 C 0.07775 0.01398 0.90768 0.0
C371 C 0.17474 0.88216 0.90999 0.0
N372 N 0.06947 -0.00776 0.86267 0.0
N373 N 0.17289 0.87288 0.95641 0.0
H374 H 0.23976 0.79441 0.89481 0.0
H375 H 0.24989 0.81968 0.92622 0.0
H376 H 0.15784 0.89613 0.97349 0.0
H377 H 0.20409 0.81268 0.9592 0.0
H378 H 0.03056 0.02712 0.86108 0.0
H379 H 0.0839 0.9684 0.84555 0.0
H380 H 0.01819 0.12916 0.8895 0.0
H381 H 0.02191 0.12465 0.92263 0.0
C382 C 0.8436 0.17322 0.8863 0.0
C383 C 0.81415 0.09176 0.87402 0.0
C384 C 0.83619 0.94055 0.90959 0.0
C385 C 0.86947 0.01948 0.92069 0.0
N386 N 0.90959 0.20827 0.91848 0.0
N387 N 0.78564 0.89633 0.87258 0.0
C388 C 0.87387 0.13554 0.90893 0.0
C389 C 0.8115 0.97485 0.88526 0.0
N390 N 0.84312 0.28699 0.87618 0.0
N391 N 0.82614 0.83428 0.92294 0.0
H392 H 0.76418 0.91919 0.8556 0.0
H393 H 0.78795 0.8078 0.87801 0.0
H394 H 0.84228 0.80734 0.94105 0.0
H395 H 0.79803 0.77652 0.91728 0.0
H396 H 0.85671 0.35272 0.88599 0.0
H397 H 0.82621 0.3175 0.85844 0.0
H398 H 0.92027 0.28884 0.90901 0.0
H399 H 0.93209 0.18557 0.9351 0.0
C400 C 0.65297 0.28739 0.66403 0.0
C401 C 0.6619 0.19969 0.68496 0.0
C402 C 0.63173 0.05418 0.65855 0.0
C403 C 0.62023 0.14165 0.63784 0.0
N404 N 0.60757 0.34411 0.62334 0.0
N405 N 0.64342 0.00568 0.70437 0.0
C406 C 0.62721 0.25926 0.6413 0.0
C407 C 0.64573 0.08518 0.68287 0.0
N408 N 0.67092 0.39644 0.66542 0.0
N409 N 0.63297 0.94125 0.65472 0.0
H410 H 0.65169 0.0266 0.7226 0.0
H411 H 0.62744 0.92337 0.70447 0.0
H412 H 0.62628 0.91407 0.63697 0.0
H413 H 0.64674 0.87555 0.66851 0.0
H414 H 0.6713 0.46117 0.64979 0.0
H415 H 0.68853 0.42022 0.6819 0.0
H416 H 0.60653 0.43048 0.62596 0.0
H417 H 0.58747 0.32713 0.60686 0.0
C418 C 0.43473 0.72483 0.62926 0.0
C419 C 0.45019 0.84219 0.62371 0.0
C420 C 0.41647 0.87517 0.666 0.0
C421 C 0.39396 0.76286 0.66986 0.0
N422 N 0.37156 0.58955 0.65193 0.0
N423 N 0.44219 0.03558 0.63467 0.0
C424 C 0.40042 0.68966 0.65065 0.0
C425 C 0.43756 0.91938 0.64152 0.0
N426 N 0.45385 0.64607 0.61456 0.0
N427 N 0.41926 0.93892 0.68582 0.0
H428 H 0.45337 0.07323 0.61634 0.0
H429 H 0.42864 0.09504 0.64627 0.0
H430 H 0.40626 0.90823 0.70434 0.0
H431 H 0.44006 0.01692 0.68448 0.0
H432 H 0.44765 0.55783 0.61922 0.0
H433 H 0.48077 0.66741 0.59934 0.0
H434 H 0.37069 0.53963 0.63701 0.0
H435 H 0.3438 0.56278 0.66649 0.0
C436 C 0.64768 0.38874 0.9345 0.0
C437 C 0.60185 0.46286 0.93358 0.0
C438 C 0.59881 0.47049 0.88654 0.0
C439 C 0.64479 0.39643 0.88738 0.0
N440 N 0.71845 0.29979 0.91163 0.0
N441 N 0.54168 0.5948 0.90879 0.0
C442 C 0.67122 0.36124 0.91119 0.0
C443 C 0.57986 0.50983 0.90954 0.0
N444 N 0.66673 0.33903 0.95777 0.0
N445 N 0.57286 0.50254 0.86376 0.0
H446 H 0.52901 0.62783 0.92524 0.0
H447 H 0.52654 0.64028 0.89196 0.0
H448 H 0.58746 0.48275 0.84628 0.0
H449 H 0.53536 0.54387 0.86221 0.0
H450 H 0.69506 0.27258 0.96006 0.0
H451 H 0.65198 0.36017 0.97511 0.0
H452 H 0.74332 0.28331 0.92766 0.0
H453 H 0.73467 0.27036 0.89545 0.0
C454 C 0.36318 0.6402 0.91379 0.0
C455 C 0.37767 0.52236 0.91973 0.0
C456 C 0.33075 0.48162 0.88081 0.0
C457 C 0.32161 0.601 0.87357 0.0
N458 N 0.34353 0.79572 0.88005 0.0
N459 N 0.38763 0.33739 0.90472 0.0
C460 C 0.34199 0.681 0.88915 0.0
C461 C 0.36481 0.44452 0.90212 0.0
N462 N 0.36738 0.71275 0.9319 0.0
N463 N 0.30608 0.40318 0.8677 0.0
H464 H 0.4157 0.3088 0.91894 0.0
H465 H 0.38373 0.28205 0.89094 0.0
H466 H 0.28009 0.42668 0.85227 0.0
H467 H 0.30719 0.31487 0.87376 0.0
H468 H 0.35291 0.79699 0.92908 0.0
H469 H 0.37962 0.68565 0.95067 0.0
H470 H 0.36309 0.85593 0.88966 0.0
H471 H 0.32987 0.82932 0.86184 0.0
C472 C 0.59443 0.63202 0.16 0.0
C473 C 0.62252 0.66121 0.13635 0.0
C474 C 0.69039 0.76581 0.15869 0.0
C475 C 0.66693 0.72194 0.18268 0.0
N476 N 0.59883 0.60435 0.20649 0.0
N477 N 0.7014 0.74573 0.11375 0.0
C478 C 0.61919 0.65352 0.18341 0.0
C479 C 0.67133 0.72666 0.13578 0.0
N480 N 0.54321 0.58704 0.16006 0.0
N481 N 0.73081 0.846 0.15789 0.0
H482 H 0.69015 0.71597 0.09677 0.0
H483 H 0.73999 0.78231 0.11282 0.0
H484 H 0.74449 0.87769 0.17431 0.0
H485 H 0.74676 0.88939 0.14096 0.0
H486 H 0.51847 0.57442 0.17626 0.0
H487 H 0.52323 0.57296 0.14335 0.0
H488 H 0.56851 0.54185 0.2083 0.0
H489 H 0.61467 0.62055 0.22399 0.0
C490 C 0.42979 0.21131 0.16078 0.0
C491 C 0.39126 0.2843 0.17063 0.0
C492 C 0.41408 0.43918 0.13604 0.0
C493 C 0.44799 0.36192 0.12471 0.0
N494 N 0.48376 0.17083 0.12445 0.0
N495 N 0.34048 0.46193 0.16561 0.0
C496 C 0.45447 0.24677 0.13652 0.0
C497 C 0.38207 0.39723 0.15788 0.0
N498 N 0.44475 0.11034 0.17517 0.0
N499 N 0.4121 0.55269 0.12584 0.0
H500 H 0.3153 0.43395 0.18114 0.0
H501 H 0.32765 0.53925 0.15531 0.0
H502 H 0.43241 0.58592 0.10907 0.0
H503 H 0.39358 0.61573 0.13502 0.0
H504 H 0.4766 0.05912 0.17025 0.0
H505 H 0.42899 0.08303 0.19337 0.0
H506 H 0.48438 0.08257 0.13052 0.0
H507 H 0.50468 0.19488 0.10731 0.0
C508 C 0.58017 0.02256 0.40894 0.0
C509 C 0.6002 0.96957 0.43289 0.0
C510 C 0.66768 0.86511 0.41022 0.0
C511 C 0.64237 0.90513 0.38638 0.0
N512 N 0.56958 0.0123 0.36353 0.0
N513 N 0.6604 0.83281 0.45664 0.0
C514 C 0.59767 -0.01746 0.38581 0.0
C515 C 0.64362 0.88952 0.4336 0.0
N516 N 0.54444 0.11196 0.40839 0.0
N517 N 0.71579 0.80685 0.41052 0.0
H518 H 0.64542 0.8516 0.47415 0.0
H519 H 0.6867 0.76265 0.45836 0.0
H520 H 0.73521 0.78962 0.39388 0.0
H521 H 0.73909 0.78543 0.42695 0.0
H522 H 0.53172 0.16163 0.39157 0.0
H523 H 0.53193 0.14381 0.42503 0.0
H524 H 0.53315 0.05777 0.36253 0.0
H525 H 0.57975 -0.01725 0.34635 0.0
C526 C 0.35994 0.14453 0.41244 0.0
C527 C 0.37246 0.02638 0.41942 0.0
C528 C 0.32253 -0.01947 0.38178 0.0
C529 C 0.31554 0.09964 0.37335 0.0
N530 N 0.34085 0.29529 0.37761 0.0
N531 N 0.37705 0.83561 0.40691 0.0
C532 C 0.33797 0.18192 0.38781 0.0
C533 C 0.35678 0.94506 0.40309 0.0
N534 N 0.36701 0.22083 0.42958 0.0
N535 N 0.29561 0.90106 0.36982 0.0
H536 H 0.40476 0.80725 0.42132 0.0
H537 H 0.37124 0.77691 0.39399 0.0
H538 H 0.26938 0.92366 0.35443 0.0
H539 H 0.29513 0.81357 0.37678 0.0
H540 H 0.35348 0.30571 0.4262 0.0
H541 H 0.38092 0.19663 0.44821 0.0
H542 H 0.36187 0.35639 0.38638 0.0
H543 H 0.32681 0.3265 0.35933 0.0
C544 C 0.06845 0.55723 0.0312 0.0
C545 C 0.0276 0.60312 1.01395 0.0
C546 C 1.0031 0.41069 1.00499 0.0
C547 C 0.04405 0.3649 1.0222 0.0
N548 N 0.12575 0.39458 0.04574 0.0
N549 N 0.96594 0.57795 0.9792 0.0
C550 C 0.07982 0.43821 0.03356 0.0
C551 C 0.99857 0.53152 0.99892 0.0
N552 N 0.09614 0.62729 0.04541 0.0
N553 N 0.96617 0.33937 0.99581 0.0
H554 H 0.9577 0.66535 0.97492 0.0
H555 H 0.94961 0.52983 0.96584 0.0
H556 H 0.9676 0.25 0.99998 0.0
H557 H 0.93134 0.36879 0.98581 0.0
H558 H 0.1211 0.59655 0.06076 0.0
H559 H 0.09225 0.71664 0.04261 0.0
H560 H 0.15618 0.44518 0.05217 0.0
H561 H 0.13627 0.30824 0.0471 0.0
C562 C 0.2841 0.63349 0.2634 0.0
C563 C 0.23223 0.59698 0.2726 0.0
C564 C 0.20483 0.79552 0.27493 0.0
C565 C 0.25886 0.83007 0.26882 0.0
N566 N 0.35184 0.78339 0.25961 0.0
N567 N 0.14317 0.63855 0.28834 0.0
C568 C 0.29902 0.74962 0.26352 0.0
C569 C 0.19237 0.67672 0.27859 0.0
N570 N 0.31871 0.55721 0.2543 0.0
N571 N 0.16526 0.87636 0.27639 0.0
H572 H 0.13137 0.55296 0.28968 0.0
H573 H 0.11509 0.69034 0.29617 0.0
H574 H 0.17317 0.96451 0.27422 0.0
H575 H 0.12399 0.85713 0.27782 0.0
H576 H 0.35495 0.58115 0.24482 0.0
H577 H 0.30886 0.47089 0.25413 0.0
H578 H 0.38403 0.72652 0.25869 0.0
H579 H 0.36432 0.86802 0.25939 0.0
C580 C 0.69477 0.18268 0.27941 0.0
C581 C 0.73427 0.10253 0.27327 0.0
C582 C 0.80093 0.25487 0.26324 0.0
C583 C 0.76112 0.33575 0.26873 0.0
N584 N 0.66785 0.38256 0.27691 0.0
N585 N 0.81999 0.06175 0.25434 0.0
C586 C 0.70727 0.30147 0.27537 0.0
C587 C 0.78582 0.13859 0.26354 0.0
N588 N 0.64581 0.14495 0.28955 0.0
N589 N 0.85366 0.2883 0.25883 0.0
H590 H 0.81017 0.97521 0.25456 0.0
H591 H 0.85581 0.0853 0.24444 0.0
H592 H 0.86631 0.37301 0.2582 0.0
H593 H 0.88571 0.23115 0.25783 0.0
H594 H 0.61812 0.19716 0.29751 0.0
H595 H 0.63383 0.05937 0.29111 0.0
H596 H 0.62663 0.36338 0.27885 0.0
H597 H 0.6757 0.47077 0.27424 0.0
C598 C 0.97489 0.88387 0.51819 0.0
C599 C 0.02889 0.84862 0.52379 0.0
C600 C 0.05857 0.04861 0.52153 0.0
C601 C 1.00358 0.08295 0.51888 0.0
N602 N 0.90853 0.03644 0.51565 0.0
N603 N 0.12206 0.89296 0.53282 0.0
C604 C 0.96145 0.00149 0.51735 0.0
C605 C 0.07091 0.92973 0.52584 0.0
N606 N 0.9369 0.8049 0.51311 0.0
N607 N 0.09891 0.12964 0.51928 0.0
H608 H 0.13294 0.80663 0.53535 0.0
H609 H 0.15287 0.94691 0.5376 0.0
H610 H 0.0912 0.21793 0.51672 0.0
H611 H 0.13998 0.11001 0.51799 0.0
H612 H 0.89809 0.8264 0.50628 0.0
H613 H 0.94557 0.71755 0.51373 0.0
H614 H 0.87547 -0.01935 0.51786 0.0
H615 H 0.89742 0.12246 0.51353 0.0
C616 C 0.19879 0.18025 0.76223 0.0
C617 C 0.23903 0.09995 0.77223 0.0
C618 C 0.30215 0.25582 0.7764 0.0
C619 C 0.25897 0.33535 0.77076 0.0
N620 N 0.16457 0.37419 0.76103 0.0
N621 N 0.3298 0.05818 0.78808 0.0
C622 C 0.20684 0.29791 0.76428 0.0
C623 C 0.29097 0.13697 0.77913 0.0
N624 N 0.15349 0.14521 0.7505 0.0
N625 N 0.35432 0.29369 0.77759 0.0
H626 H 0.32559 0.97013 0.78741 0.0
H627 H 0.36536 0.0796 0.797 0.0
H628 H 0.36403 0.38021 0.77507 0.0
H629 H 0.38827 0.24028 0.77869 0.0
H630 H 0.12596 0.20227 0.74062 0.0
H631 H 0.1453 0.05972 0.74871 0.0
H632 H 0.12438 0.34945 0.75893 0.0
H633 H 0.16892 0.46119 0.76285 0.0
C634 C 0.68748 0.68273 0.78428 0.0
C635 C 0.72372 0.60797 0.77355 0.0
C636 C 0.77331 0.77256 0.75169 0.0
C637 C 0.74275 0.84553 0.76588 0.0
N638 N 0.67124 0.87241 0.79589 0.0
N639 N 0.80453 0.57894 0.7492 0.0
C640 C 0.69989 0.80128 0.78223 0.0
C641 C 0.76711 0.65197 0.75751 0.0
N642 N 0.64018 0.64095 0.79556 0.0
N643 N 0.80884 0.81752 0.73296 0.0
H644 H 0.80169 0.48965 0.75311 0.0
H645 H 0.84088 0.60661 0.74026 0.0
H646 H 0.81807 0.90453 0.72891 0.0
H647 H 0.82664 0.76879 0.72005 0.0
H648 H 0.60949 0.69273 0.80141 0.0
H649 H 0.62904 0.55501 0.79675 0.0
H650 H 0.64452 0.84268 0.81067 0.0
H651 H 0.67611 0.96153 0.79331 0.0
C652 C 0.55878 0.55294 0.52533 0.0
C653 C 0.50485 0.58708 0.51901 0.0
C654 C 0.48002 0.38994 0.51392 0.0
C655 C 0.5318 0.35396 0.52325 0.0
N656 N 0.6205 0.3965 0.53901 0.0
N657 N 0.41212 0.53949 0.50979 0.0
C658 C 0.57138 0.43418 0.52919 0.0
C659 C 0.46492 0.50613 0.51381 0.0
N660 N 0.59814 0.63416 0.52679 0.0
N661 N 0.44562 0.31313 0.50495 0.0
H662 H 0.39952 0.62412 0.50938 0.0
H663 H 0.38002 0.48235 0.50897 0.0
H664 H 0.45542 0.22663 0.50505 0.0
H665 H 0.40957 0.33667 0.49534 0.0
H666 H 0.6394 0.61525 0.52844 0.0
H667 H 0.59009 0.72228 0.52445 0.0
H668 H 0.64835 0.44867 0.54681 0.0
H669 H 0.63251 0.31098 0.54041 0.0
C670 C 0.47112 0.88589 0.02939 0.0
C671 C 0.52173 0.84918 1.02063 0.0
C672 C 0.55407 0.04689 1.01226 0.0
C673 C 0.50481 0.0835 1.02239 0.0
N674 N 0.41603 0.04195 0.04085 0.0
N675 N 0.60149 0.89746 0.99411 0.0
C676 C 0.463 0.0041 0.03099 0.0
C677 C 0.56033 0.9301 1.00904 0.0
N678 N 0.43019 0.80719 0.03477 0.0
N679 N 0.59585 0.12336 1.00678 0.0
H680 H 0.60754 0.81389 0.9903 0.0
H681 H 0.62689 0.9559 0.98316 0.0
H682 H 0.59298 0.20974 1.00942 0.0
H683 H 0.63496 0.0992 1.00213 0.0
H684 H 0.39082 0.827 0.03982 0.0
H685 H 0.43448 0.72123 0.03196 0.0
H686 H 0.38565 -0.01116 0.04962 0.0
H687 H 0.40838 0.12836 0.0415 0.0
C688 C 0.30352 0.20947 0.04861 0.0
C689 C 0.31346 0.28715 0.02579 0.0
C690 C 0.22579 0.23041 1.0086 0.0
C691 C 0.21971 0.14249 0.02997 0.0
N692 N 0.25732 0.03694 0.0682 0.0
N693 N 0.28206 0.37768 0.9847 0.0
C694 C 0.25975 0.12954 0.04942 0.0
C695 C 0.27394 0.29883 1.00598 0.0
N696 N 0.33515 0.21194 0.06979 0.0
N697 N 0.18432 0.25365 0.99146 0.0
H698 H 0.31141 0.44215 0.98395 0.0
H699 H 0.26058 0.37824 0.96768 0.0
H700 H 0.14965 0.20352 0.99147 0.0
H701 H 0.18257 0.32674 0.97788 0.0
H702 H 0.32539 0.16783 0.08773 0.0
H703 H 0.36877 0.26471 0.07023 0.0
H704 H 0.2885 0.01467 0.08127 0.0
H705 H 0.22666 0.97512 0.06906 0.0
C706 C 0.77347 0.82547 0.03001 0.0
C707 C 0.82044 0.76563 1.02361 0.0
C708 C 0.76873 0.58292 0.02865 0.0
C709 C 0.72077 0.64416 0.03317 0.0
N710 N 0.67663 0.82566 0.03743 0.0
N711 N 0.8651 0.58707 1.01865 0.0
C712 C 0.72315 0.76562 0.03407 0.0
C713 C 0.81854 0.64426 1.02329 0.0
N714 N 0.77686 0.94047 0.03197 0.0
N715 N 0.76722 0.46529 0.03114 0.0
H716 H 0.90327 0.62485 1.01883 0.0
H717 H 0.86646 0.50305 1.01448 0.0
H718 H 0.73204 0.41772 0.03598 0.0
H719 H 0.80103 0.41294 0.03018 0.0
H720 H 0.74767 -0.01392 0.04075 0.0
H721 H 0.81033 -0.00881 0.02578 0.0
H722 H 0.67408 0.91473 0.03571 0.0
H723 H 0.63859 0.78835 0.04022 0.0
C724 C 1.00111 0.36698 0.29897 0.0
C725 C 0.04316 0.3821 0.28027 0.0
C726 C 0.99389 0.54906 0.2577 0.0
C727 C 0.9497 0.52714 0.27497 0.0
N728 N 0.90755 0.4025 0.30984 0.0
N729 N 0.07587 0.47977 0.23961 0.0
C730 C 0.95245 0.43323 0.29516 0.0
C731 C 0.03824 0.47029 0.25889 0.0
N732 N 0.00761 0.28897 0.32051 0.0
N733 N 0.99459 0.6486 0.24083 0.0
H734 H 0.11019 0.42829 0.23981 0.0
H735 H 0.07085 0.5327 0.22225 0.0
H736 H 0.96347 0.70944 0.23986 0.0
H737 H 0.02818 0.67689 0.22967 0.0
H738 H 0.98239 0.28552 0.3365 0.0
H739 H 0.04007 0.23141 0.323 0.0
H740 H 0.90483 0.32666 0.32257 0.0
H741 H 0.87109 0.4475 0.3079 0.0
C742 C 0.27066 0.79981 0.50678 0.0
C743 C 0.31431 0.77944 0.5243 0.0
C744 C 0.26192 0.62209 0.5489 0.0
C745 C 0.22041 0.63545 0.53 0.0
N746 N 0.1889 0.7297 0.48887 0.0
N747 N 0.35515 0.65839 0.56 0.0
C748 C 0.22614 0.7214 0.50822 0.0
C749 C 0.31078 0.68771 0.54496 0.0
N750 N 0.27045 0.89806 0.48951 0.0
N751 N 0.25473 0.54628 0.57077 0.0
H752 H 0.39175 0.7029 0.55793 0.0
H753 H 0.35738 0.58408 0.57323 0.0
H754 H 0.22235 0.48852 0.57339 0.0
H755 H 0.27937 0.5447 0.58686 0.0
H756 H 0.23727 0.92528 0.47804 0.0
H757 H 0.30141 0.95923 0.48854 0.0
H758 H 0.19476 0.78004 0.47122 0.0
H759 H 0.15384 0.68034 0.48943 0.0
C760 C 0.77092 0.30033 0.50717 0.0
C761 C 0.81405 0.28027 0.525 0.0
C762 C 0.76073 0.12445 0.54961 0.0
C763 C 0.71976 0.13756 0.53044 0.0
N764 N 0.68907 0.23118 0.48912 0.0
N765 N 0.85351 0.16109 0.56139 0.0
C766 C 0.72605 0.22284 0.50859 0.0
C767 C 0.8097 0.18984 0.54591 0.0
N768 N 0.7716 0.39748 0.48956 0.0
N769 N 0.75296 0.04881 0.57146 0.0
H770 H 0.89035 0.20467 0.5594 0.0
H771 H 0.85522 0.08762 0.57488 0.0
H772 H 0.72069 -0.0093 0.57386 0.0
H773 H 0.77699 0.04743 0.58775 0.0
H774 H 0.73894 0.42461 0.47773 0.0
H775 H 0.80281 0.45804 0.48856 0.0
H776 H 0.69538 0.28044 0.47138 0.0
H777 H 0.6537 0.18281 0.48971 0.0
C778 C 0.99507 0.07068 0.77852 0.0
C779 C 0.94679 0.01048 0.77471 0.0
C780 C 0.99855 0.82875 0.77802 0.0
C781 C 0.04637 0.88775 0.78381 0.0
N782 N 0.08598 0.06481 0.79507 0.0
N783 N 0.90014 0.8289 0.77683 0.0
C784 C 0.04332 0.00828 0.78588 0.0
C785 C 0.94789 0.88854 0.77595 0.0
N786 N 0.9958 0.18826 0.77381 0.0
N787 N 1.00101 0.71495 0.77505 0.0
H788 H 0.86255 0.86925 0.77694 0.0
H789 H 0.8976 0.73955 0.78021 0.0
H790 H 0.03577 0.6649 0.77885 0.0
H791 H 0.96923 0.67151 0.76752 0.0
H792 H 0.03144 0.23654 0.77307 0.0
H793 H 0.96153 0.23742 0.76814 0.0
H794 H 0.08236 0.14653 0.80056 0.0
H795 H 0.12433 0.02997 0.79868 0.0
C796 C 0.5043 0.37179 0.79787 0.0
C797 C 0.5464 0.38786 0.77934 0.0
C798 C 0.49462 0.54731 0.75516 0.0
C799 C 0.45321 0.53354 0.77417 0.0
N800 N 0.42211 0.44179 0.81565 0.0
N801 N 0.58494 0.5001 0.74166 0.0
C802 C 0.45945 0.44946 0.79626 0.0
C803 C 0.54223 0.47744 0.75821 0.0
N804 N 0.50577 0.27758 0.81628 0.0
N805 N 0.48838 0.62812 0.73406 0.0
H806 H 0.61864 0.44712 0.74163 0.0
H807 H 0.58839 0.57435 0.72851 0.0
H808 H 0.45832 0.69131 0.73277 0.0
H809 H 0.51181 0.63109 0.71751 0.0
H810 H 0.47376 0.25239 0.82874 0.0
H811 H 0.53722 0.21744 0.81759 0.0
H812 H 0.42846 0.39557 0.8337 0.0
H813 H 0.38544 0.48561 0.81429 0.0
C814 C 0.5022 0.87028 0.29877 0.0
C815 C 0.54416 0.88597 0.28002 0.0
C816 C 0.49274 0.04802 0.25667 0.0
C817 C 0.44888 0.02557 0.27412 0.0
N818 N 0.40823 0.90204 0.3096 0.0
N819 N 0.57618 -0.01741 0.23913 0.0
C820 C 0.45277 0.93373 0.29473 0.0
C821 C 0.53827 0.9721 0.2583 0.0
N822 N 0.50949 0.79426 0.32058 0.0
N823 N 0.49208 0.14579 0.23925 0.0
H824 H 0.61188 0.9352 0.23986 0.0
H825 H 0.57042 0.03262 0.22145 0.0
H826 H 0.46019 0.20485 0.23798 0.0
H827 H 0.52516 0.17471 0.2278 0.0
H828 H 0.48435 0.79114 0.3366 0.0
H829 H 0.5424 0.73796 0.32325 0.0
H830 H 0.40642 0.82743 0.32275 0.0
H831 H 0.37113 0.94457 0.30739 0.0
loop_
_geom_bond_atom_site_label_1
_geom_bond_atom_site_label_2
_geom_bond_distance
_geom_bond_site_symmetry_2
_ccdc_geom_bond_type
Co0 H3 2.400 1_565 S
Co0 O4 2.009 1_565 S
Co0 O12 2.115 . S
Co0 O13 2.315 1_565 S
Co0 O24 2.053 . S
Co0 O27 2.094 1_655 S
Co0 O30 2.122 . S
Co1 O4 2.126 1_455 S
Co1 H5 2.388 1_546 S
Co1 O6 2.053 1_546 S
Co1 O9 2.047 . S
Co1 O15 2.113 . S
Co1 O26 2.063 . S
Co2 H3 2.388 1_564 S
Co2 O4 2.053 1_564 S
Co2 O6 2.126 1_655 S
Co2 O11 2.063 . S
Co2 O25 2.047 . S
Co2 O31 2.113 . S
H3 Co0 2.400 1_545 S
H3 Co2 2.388 1_546 S
H3 O4 0.760 . S
O4 Co0 2.009 1_545 S
O4 Co1 2.126 1_655 S
O4 Co2 2.053 1_546 S
O4 H3 0.760 . S
H5 Co1 2.388 1_564 S
H5 O6 0.760 . S
H5 Co7 2.400 1_565 S
O6 Co1 2.053 1_564 S
O6 Co2 2.126 1_455 S
O6 H5 0.760 . S
O6 Co7 2.009 1_565 S
Co7 H5 2.400 1_545 S
Co7 O6 2.009 1_545 S
Co7 O8 2.053 . S
Co7 O10 2.094 1_455 S
Co7 O14 2.122 . S
Co7 O28 2.115 . S
Co7 O29 2.315 1_545 S
O8 Co7 2.053 . S
O8 C20 1.259 . S
O9 Co1 2.047 . S
O9 C20 1.257 1_556 S
O10 Co7 2.094 1_655 S
O10 C21 1.253 1_545 S
O11 Co2 2.063 . S
O11 C21 1.268 . S
O12 Co0 2.115 . S
O12 C22 1.281 . S
O13 Co0 2.315 1_545 S
O13 C22 1.252 1_545 S
O14 Co7 2.122 . S
O14 C23 1.272 . S
O15 Co1 2.113 . S
O15 C23 1.245 1_556 S
C16 O24 1.259 . S
C16 O25 1.257 1_556 S
C17 O26 1.268 . S
C17 O27 1.253 1_545 S
C18 O28 1.281 . S
C18 O29 1.252 1_545 S
C19 O30 1.272 . S
C19 O31 1.245 1_556 S
C20 O8 1.259 . S
C20 O9 1.257 1_554 S
C21 O10 1.253 1_565 S
C21 O11 1.268 . S
C22 O12 1.281 . S
C22 O13 1.252 1_565 S
C23 O14 1.272 . S
C23 O15 1.245 1_554 S
O24 Co0 2.053 . S
O24 C16 1.259 . S
O25 Co2 2.047 . S
O25 C16 1.257 1_554 S
O26 Co1 2.063 . S
O26 C17 1.268 . S
O27 Co0 2.094 1_455 S
O27 C17 1.253 1_565 S
O28 Co7 2.115 . S
O28 C18 1.281 . S
O29 Co7 2.315 1_565 S
O29 C18 1.252 1_565 S
O30 Co0 2.122 . S
O30 C19 1.272 . S
O31 Co2 2.113 . S
O31 C19 1.245 1_554 S
Co32 H35 2.400 . S
Co32 O36 2.009 . S
Co32 O44 2.115 . S
Co32 O45 2.315 . S
Co32 O56 2.053 . S
Co32 O59 2.094 . S
Co32 O62 2.122 . S
Co33 O36 2.126 . S
Co33 H37 2.388 . S
Co33 O38 2.053 . S
Co33 O41 2.047 . S
Co33 O47 2.113 . S
Co33 O58 2.063 . S
Co34 H35 2.388 . S
Co34 O36 2.053 . S
Co34 O38 2.126 . S
Co34 O43 2.063 . S
Co34 O57 2.047 . S
Co34 O63 2.113 . S
H35 Co32 2.400 . S
H35 Co34 2.388 . S
H35 O36 0.760 . S
O36 Co32 2.009 . S
O36 Co33 2.126 . S
O36 Co34 2.053 . S
O36 H35 0.760 . S
H37 Co33 2.388 . S
H37 O38 0.760 . S
H37 Co39 2.400 . S
O38 Co33 2.053 . S
O38 Co34 2.126 . S
O38 H37 0.760 . S
O38 Co39 2.009 . S
Co39 H37 2.400 . S
Co39 O38 2.009 . S
Co39 O40 2.053 . S
Co39 O42 2.094 . S
Co39 O46 2.122 1_545 S
Co39 O60 2.115 . S
Co39 O61 2.315 . S
O40 Co39 2.053 . S
O40 C52 1.259 . S
O41 Co33 2.047 . S
O41 C52 1.257 . S
O42 Co39 2.094 . S
O42 C53 1.253 . S
O43 Co34 2.063 . S
O43 C53 1.268 . S
O44 Co32 2.115 . S
O44 C54 1.281 . S
O45 Co32 2.315 . S
O45 C54 1.252 . S
O46 Co39 2.122 1_565 S
O46 C55 1.272 . S
O47 Co33 2.113 . S
O47 C55 1.245 1_545 S
C48 O56 1.259 . S
C48 O57 1.257 . S
C49 O58 1.268 . S
C49 O59 1.253 . S
C50 O60 1.281 . S
C50 O61 1.252 . S
C51 O62 1.272 . S
C51 O63 1.245 . S
C52 O40 1.259 . S
C52 O41 1.257 . S
C53 O42 1.253 . S
C53 O43 1.268 . S
C54 O44 1.281 . S
C54 O45 1.252 . S
C55 O46 1.272 . S
C55 O47 1.245 1_565 S
O56 Co32 2.053 . S
O56 C48 1.259 . S
O57 Co34 2.047 . S
O57 C48 1.257 . S
O58 Co33 2.063 . S
O58 C49 1.268 . S
O59 Co32 2.094 . S
O59 C49 1.253 . S
O60 Co39 2.115 . S
O60 C50 1.281 . S
O61 Co39 2.315 . S
O61 C50 1.252 . S
O62 Co32 2.122 . S
O62 C51 1.272 . S
O63 Co34 2.113 . S
O63 C51 1.245 . S
Co64 H67 2.400 . S
Co64 O68 2.009 . S
Co64 O76 2.115 . S
Co64 O77 2.315 . S
Co64 O88 2.053 . S
Co64 O91 2.094 . S
Co64 O94 2.122 1_565 S
Co65 O68 2.126 . S
Co65 H69 2.388 . S
Co65 O70 2.053 . S
Co65 O73 2.047 . S
Co65 O79 2.113 . S
Co65 O90 2.063 . S
Co66 H67 2.388 . S
Co66 O68 2.053 . S
Co66 O70 2.126 . S
Co66 O75 2.063 . S
Co66 O89 2.047 . S
Co66 O95 2.113 . S
H67 Co64 2.400 . S
H67 Co66 2.388 . S
H67 O68 0.760 . S
O68 Co64 2.009 . S
O68 Co65 2.126 . S
O68 Co66 2.053 . S
O68 H67 0.760 . S
H69 Co65 2.388 . S
H69 O70 0.760 . S
H69 Co71 2.400 . S
O70 Co65 2.053 . S
O70 Co66 2.126 . S
O70 H69 0.760 . S
O70 Co71 2.009 . S
Co71 H69 2.400 . S
Co71 O70 2.009 . S
Co71 O72 2.053 . S
Co71 O74 2.094 . S
Co71 O78 2.122 . S
Co71 O92 2.115 . S
Co71 O93 2.315 . S
O72 Co71 2.053 . S
O72 C84 1.259 . S
O73 Co65 2.047 . S
O73 C84 1.257 . S
O74 Co71 2.094 . S
O74 C85 1.253 . S
O75 Co66 2.063 . S
O75 C85 1.268 . S
O76 Co64 2.115 . S
O76 C86 1.281 . S
O77 Co64 2.315 . S
O77 C86 1.252 . S
O78 Co71 2.122 . S
O78 C87 1.272 . S
O79 Co65 2.113 . S
O79 C87 1.245 . S
C80 O88 1.259 . S
C80 O89 1.257 . S
C81 O90 1.268 . S
C81 O91 1.253 . S
C82 O92 1.281 . S
C82 O93 1.252 . S
C83 O94 1.272 . S
C83 O95 1.245 1_545 S
C84 O72 1.259 . S
C84 O73 1.257 . S
C85 O74 1.253 . S
C85 O75 1.268 . S
C86 O76 1.281 . S
C86 O77 1.252 . S
C87 O78 1.272 . S
C87 O79 1.245 . S
O88 Co64 2.053 . S
O88 C80 1.259 . S
O89 Co66 2.047 . S
O89 C80 1.257 . S
O90 Co65 2.063 . S
O90 C81 1.268 . S
O91 Co64 2.094 . S
O91 C81 1.253 . S
O92 Co71 2.115 . S
O92 C82 1.281 . S
O93 Co71 2.315 . S
O93 C82 1.252 . S
O94 Co64 2.122 1_545 S
O94 C83 1.272 . S
O95 Co66 2.113 . S
O95 C83 1.245 1_565 S
Co96 H99 2.400 . S
Co96 O100 2.009 . S
Co96 O108 2.115 . S
Co96 O109 2.315 . S
Co96 O120 2.053 . S
Co96 O123 2.094 1_655 S
Co96 O126 2.122 . S
Co97 O100 2.126 1_455 S
Co97 H101 2.388 . S
Co97 O102 2.053 . S
Co97 O105 2.047 . S
Co97 O111 2.113 . S
Co97 O122 2.063 . S
Co98 H99 2.388 . S
Co98 O100 2.053 . S
Co98 O102 2.126 1_655 S
Co98 O107 2.063 . S
Co98 O121 2.047 . S
Co98 O127 2.113 . S
H99 Co96 2.400 . S
H99 Co98 2.388 . S
H99 O100 0.760 . S
O100 Co96 2.009 . S
O100 Co97 2.126 1_655 S
O100 Co98 2.053 . S
O100 H99 0.760 . S
H101 Co97 2.388 . S
H101 O102 0.760 . S
H101 Co103 2.400 . S
O102 Co97 2.053 . S
O102 Co98 2.126 1_455 S
O102 H101 0.760 . S
O102 Co103 2.009 . S
Co103 H101 2.400 . S
Co103 O102 2.009 . S
Co103 O104 2.053 . S
Co103 O106 2.094 1_455 S
Co103 O110 2.122 . S
Co103 O124 2.115 . S
Co103 O125 2.315 . S
O104 Co103 2.053 . S
O104 C116 1.259 . S
O105 Co97 2.047 . S
O105 C116 1.257 . S
O106 Co103 2.094 1_655 S
O106 C117 1.253 . S
O107 Co98 2.063 . S
O107 C117 1.268 . S
O108 Co96 2.115 . S
O108 C118 1.281 . S
O109 Co96 2.315 . S
O109 C118 1.252 . S
O110 Co103 2.122 . S
O110 C119 1.272 . S
O111 Co97 2.113 . S
O111 C119 1.245 . S
C112 O120 1.259 . S
C112 O121 1.257 . S
C113 O122 1.268 . S
C113 O123 1.253 . S
C114 O124 1.281 . S
C114 O125 1.252 . S
C115 O126 1.272 . S
C115 O127 1.245 . S
C116 O104 1.259 . S
C116 O105 1.257 . S
C117 O106 1.253 . S
C117 O107 1.268 . S
C118 O108 1.281 . S
C118 O109 1.252 . S
C119 O110 1.272 . S
C119 O111 1.245 . S
O120 Co96 2.053 . S
O120 C112 1.259 . S
O121 Co98 2.047 . S
O121 C112 1.257 . S
O122 Co97 2.063 . S
O122 C113 1.268 . S
O123 Co96 2.094 1_455 S
O123 C113 1.253 . S
O124 Co103 2.115 . S
O124 C114 1.281 . S
O125 Co103 2.315 . S
O125 C114 1.252 . S
O126 Co96 2.122 . S
O126 C115 1.272 . S
O127 Co98 2.113 . S
O127 C115 1.245 . S
Co128 H131 2.400 . S
Co128 O132 2.009 . S
Co128 O140 2.115 . S
Co128 O141 2.315 . S
Co128 O152 2.053 . S
Co128 O155 2.094 . S
Co128 O158 2.122 1_565 S
Co129 O132 2.126 . S
Co129 H133 2.388 . S
Co129 O134 2.053 . S
Co129 O137 2.047 . S
Co129 O143 2.113 . S
Co129 O154 2.063 . S
Co130 H131 2.388 . S
Co130 O132 2.053 . S
Co130 O134 2.126 . S
Co130 O139 2.063 . S
Co130 O153 2.047 . S
Co130 O159 2.113 . S
H131 Co128 2.400 . S
H131 Co130 2.388 . S
H131 O132 0.760 . S
O132 Co128 2.009 . S
O132 Co129 2.126 . S
O132 Co130 2.053 . S
O132 H131 0.760 . S
H133 Co129 2.388 . S
H133 O134 0.760 . S
H133 Co135 2.400 . S
O134 Co129 2.053 . S
O134 Co130 2.126 . S
O134 H133 0.760 . S
O134 Co135 2.009 . S
Co135 H133 2.400 . S
Co135 O134 2.009 . S
Co135 O136 2.053 . S
Co135 O138 2.094 . S
Co135 O142 2.122 . S
Co135 O156 2.115 . S
Co135 O157 2.315 . S
O136 Co135 2.053 . S
O136 C148 1.259 . S
O137 Co129 2.047 . S
O137 C148 1.257 . S
O138 Co135 2.094 . S
O138 C149 1.253 . S
O139 Co130 2.063 . S
O139 C149 1.268 . S
O140 Co128 2.115 . S
O140 C150 1.281 . S
O141 Co128 2.315 . S
O141 C150 1.252 . S
O142 Co135 2.122 . S
O142 C151 1.272 . S
O143 Co129 2.113 . S
O143 C151 1.245 . S
C144 O152 1.259 . S
C144 O153 1.257 . S
C145 O154 1.268 . S
C145 O155 1.253 . S
C146 O156 1.281 . S
C146 O157 1.252 . S
C147 O158 1.272 . S
C147 O159 1.245 1_545 S
C148 O136 1.259 . S
C148 O137 1.257 . S
C149 O138 1.253 . S
C149 O139 1.268 . S
C150 O140 1.281 . S
C150 O141 1.252 . S
C151 O142 1.272 . S
C151 O143 1.245 . S
O152 Co128 2.053 . S
O152 C144 1.259 . S
O153 Co130 2.047 . S
O153 C144 1.257 . S
O154 Co129 2.063 . S
O154 C145 1.268 . S
O155 Co128 2.094 . S
O155 C145 1.253 . S
O156 Co135 2.115 . S
O156 C146 1.281 . S
O157 Co135 2.315 . S
O157 C146 1.252 . S
O158 Co128 2.122 1_545 S
O158 C147 1.272 . S
O159 Co130 2.113 . S
O159 C147 1.245 1_565 S
Co160 H163 2.400 . S
Co160 O164 2.009 . S
Co160 O172 2.115 . S
Co160 O173 2.315 . S
Co160 O184 2.053 . S
Co160 O187 2.094 . S
Co160 O190 2.122 . S
Co161 O164 2.126 . S
Co161 H165 2.388 . S
Co161 O166 2.053 . S
Co161 O169 2.047 . S
Co161 O175 2.113 . S
Co161 O186 2.063 . S
Co162 H163 2.388 . S
Co162 O164 2.053 . S
Co162 O166 2.126 . S
Co162 O171 2.063 . S
Co162 O185 2.047 . S
Co162 O191 2.113 . S
H163 Co160 2.400 . S
H163 Co162 2.388 . S
H163 O164 0.760 . S
O164 Co160 2.009 . S
O164 Co161 2.126 . S
O164 Co162 2.053 . S
O164 H163 0.760 . S
H165 Co161 2.388 . S
H165 O166 0.760 . S
H165 Co167 2.400 . S
O166 Co161 2.053 . S
O166 Co162 2.126 . S
O166 H165 0.760 . S
O166 Co167 2.009 . S
Co167 H165 2.400 . S
Co167 O166 2.009 . S
Co167 O168 2.053 . S
Co167 O170 2.094 . S
Co167 O174 2.122 1_545 S
Co167 O188 2.115 . S
Co167 O189 2.315 . S
O168 Co167 2.053 . S
O168 C180 1.259 . S
O169 Co161 2.047 . S
O169 C180 1.257 . S
O170 Co167 2.094 . S
O170 C181 1.253 . S
O171 Co162 2.063 . S
O171 C181 1.268 . S
O172 Co160 2.115 . S
O172 C182 1.281 . S
O173 Co160 2.315 . S
O173 C182 1.252 . S
O174 Co167 2.122 1_565 S
O174 C183 1.272 . S
O175 Co161 2.113 . S
O175 C183 1.245 1_545 S
C176 O184 1.259 . S
C176 O185 1.257 . S
C177 O186 1.268 . S
C177 O187 1.253 . S
C178 O188 1.281 . S
C178 O189 1.252 . S
C179 O190 1.272 . S
C179 O191 1.245 . S
C180 O168 1.259 . S
C180 O169 1.257 . S
C181 O170 1.253 . S
C181 O171 1.268 . S
C182 O172 1.281 . S
C182 O173 1.252 . S
C183 O174 1.272 . S
C183 O175 1.245 1_565 S
O184 Co160 2.053 . S
O184 C176 1.259 . S
O185 Co162 2.047 . S
O185 C176 1.257 . S
O186 Co161 2.063 . S
O186 C177 1.268 . S
O187 Co160 2.094 . S
O187 C177 1.253 . S
O188 Co167 2.115 . S
O188 C178 1.281 . S
O189 Co167 2.315 . S
O189 C178 1.252 . S
O190 Co160 2.122 . S
O190 C179 1.272 . S
O191 Co162 2.113 . S
O191 C179 1.245 . S
Co192 H195 2.400 1_565 S
Co192 O196 2.009 1_565 S
Co192 O204 2.115 . S
Co192 O205 2.315 1_565 S
Co192 O216 2.053 . S
Co192 O219 2.094 . S
Co192 O222 2.122 . S
Co193 O196 2.126 . S
Co193 H197 2.388 1_545 S
Co193 O198 2.053 1_545 S
Co193 O201 2.047 . S
Co193 O207 2.113 . S
Co193 O218 2.063 . S
Co194 H195 2.388 1_565 S
Co194 O196 2.053 1_565 S
Co194 O198 2.126 . S
Co194 O203 2.063 . S
Co194 O217 2.047 . S
Co194 O223 2.113 . S
H195 Co192 2.400 1_545 S
H195 Co194 2.388 1_545 S
H195 O196 0.760 . S
O196 Co192 2.009 1_545 S
O196 Co193 2.126 . S
O196 Co194 2.053 1_545 S
O196 H195 0.760 . S
H197 Co193 2.388 1_565 S
H197 O198 0.760 . S
H197 Co199 2.400 1_565 S
O198 Co193 2.053 1_565 S
O198 Co194 2.126 . S
O198 H197 0.760 . S
O198 Co199 2.009 1_565 S
Co199 H197 2.400 1_545 S
Co199 O198 2.009 1_545 S
Co199 O200 2.053 . S
Co199 O202 2.094 . S
Co199 O206 2.122 . S
Co199 O220 2.115 . S
Co199 O221 2.315 1_545 S
O200 Co199 2.053 . S
O200 C212 1.259 . S
O201 Co193 2.047 . S
O201 C212 1.257 . S
O202 Co199 2.094 . S
O202 C213 1.253 1_545 S
O203 Co194 2.063 . S
O203 C213 1.268 . S
O204 Co192 2.115 . S
O204 C214 1.281 . S
O205 Co192 2.315 1_545 S
O205 C214 1.252 1_545 S
O206 Co199 2.122 . S
O206 C215 1.272 . S
O207 Co193 2.113 . S
O207 C215 1.245 . S
C208 O216 1.259 . S
C208 O217 1.257 . S
C209 O218 1.268 . S
C209 O219 1.253 1_545 S
C210 O220 1.281 . S
C210 O221 1.252 1_545 S
C211 O222 1.272 . S
C211 O223 1.245 . S
C212 O200 1.259 . S
C212 O201 1.257 . S
C213 O202 1.253 1_565 S
C213 O203 1.268 . S
C214 O204 1.281 . S
C214 O205 1.252 1_565 S
C215 O206 1.272 . S
C215 O207 1.245 . S
O216 Co192 2.053 . S
O216 C208 1.259 . S
O217 Co194 2.047 . S
O217 C208 1.257 . S
O218 Co193 2.063 . S
O218 C209 1.268 . S
O219 Co192 2.094 . S
O219 C209 1.253 1_565 S
O220 Co199 2.115 . S
O220 C210 1.281 . S
O221 Co199 2.315 1_565 S
O221 C210 1.252 1_565 S
O222 Co192 2.122 . S
O222 C211 1.272 . S
O223 Co194 2.113 . S
O223 C211 1.245 . S
Co224 H227 2.400 . S
Co224 O228 2.009 . S
Co224 O236 2.115 . S
Co224 O237 2.315 . S
Co224 O248 2.053 . S
Co224 O251 2.094 . S
Co224 O254 2.122 . S
Co225 O228 2.126 . S
Co225 H229 2.388 1_556 S
Co225 O230 2.053 1_556 S
Co225 O233 2.047 . S
Co225 O239 2.113 . S
Co225 O250 2.063 . S
Co226 H227 2.388 1_554 S
Co226 O228 2.053 1_554 S
Co226 O230 2.126 . S
Co226 O235 2.063 . S
Co226 O249 2.047 . S
Co226 O255 2.113 . S
H227 Co224 2.400 . S
H227 Co226 2.388 1_556 S
H227 O228 0.760 . S
O228 Co224 2.009 . S
O228 Co225 2.126 . S
O228 Co226 2.053 1_556 S
O228 H227 0.760 . S
H229 Co225 2.388 1_554 S
H229 O230 0.760 . S
H229 Co231 2.400 . S
O230 Co225 2.053 1_554 S
O230 Co226 2.126 . S
O230 H229 0.760 . S
O230 Co231 2.009 . S
Co231 H229 2.400 . S
Co231 O230 2.009 . S
Co231 O232 2.053 . S
Co231 O234 2.094 . S
Co231 O238 2.122 . S
Co231 O252 2.115 . S
Co231 O253 2.315 . S
O232 Co231 2.053 . S
O232 C244 1.259 . S
O233 Co225 2.047 . S
O233 C244 1.257 1_556 S
O234 Co231 2.094 . S
O234 C245 1.253 . S
O235 Co226 2.063 . S
O235 C245 1.268 . S
O236 Co224 2.115 . S
O236 C246 1.281 . S
O237 Co224 2.315 . S
O237 C246 1.252 . S
O238 Co231 2.122 . S
O238 C247 1.272 . S
O239 Co225 2.113 . S
O239 C247 1.245 1_556 S
C240 O248 1.259 . S
C240 O249 1.257 1_556 S
C241 O250 1.268 . S
C241 O251 1.253 . S
C242 O252 1.281 . S
C242 O253 1.252 . S
C243 O254 1.272 . S
C243 O255 1.245 1_556 S
C244 O232 1.259 . S
C244 O233 1.257 1_554 S
C245 O234 1.253 . S
C245 O235 1.268 . S
C246 O236 1.281 . S
C246 O237 1.252 . S
C247 O238 1.272 . S
C247 O239 1.245 1_554 S
O248 Co224 2.053 . S
O248 C240 1.259 . S
O249 Co226 2.047 . S
O249 C240 1.257 1_554 S
O250 Co225 2.063 . S
O250 C241 1.268 . S
O251 Co224 2.094 . S
O251 C241 1.253 . S
O252 Co231 2.115 . S
O252 C242 1.281 . S
O253 Co231 2.315 . S
O253 C242 1.252 . S
O254 Co224 2.122 . S
O254 C243 1.272 . S
O255 Co226 2.113 . S
O255 C243 1.245 1_554 S
C256 C257 1.363 . S
C256 C262 1.379 . S
C256 N264 1.356 . S
C257 C256 1.363 . S
C257 C263 1.363 . S
C258 C259 1.363 . S
C258 C263 1.379 . S
C258 N265 1.356 . S
C259 C258 1.363 . S
C259 C262 1.363 . S
N260 C262 1.356 . S
N260 H272 0.984 . S
N260 H273 0.985 . S
N261 C263 1.356 . S
N261 H266 0.984 . S
N261 H267 0.985 . S
C262 C256 1.379 . S
C262 C259 1.363 . S
C262 N260 1.356 . S
C263 C257 1.363 . S
C263 C258 1.379 . S
C263 N261 1.356 . S
N264 C256 1.356 . S
N264 H270 0.984 1_545 S
N264 H271 0.984 1_545 S
N265 C258 1.356 . S
N265 H268 0.984 . S
N265 H269 0.985 . S
H266 N261 0.984 . S
H267 N261 0.985 . S
H268 N265 0.984 . S
H269 N265 0.985 . S
H270 N264 0.984 1_565 S
H271 N264 0.984 1_565 S
H272 N260 0.984 . S
H273 N260 0.985 . S
C274 C275 1.363 . S
C274 C280 1.379 . S
C274 N282 1.356 . S
C275 C274 1.363 . S
C275 C281 1.363 . S
C276 C277 1.363 . S
C276 C281 1.379 . S
C276 N283 1.356 . S
C277 C276 1.363 . S
C277 C280 1.363 . S
N278 C280 1.356 . S
N278 H290 0.984 . S
N278 H291 0.985 . S
N279 C281 1.356 . S
N279 H284 0.984 . S
N279 H285 0.985 . S
C280 C274 1.379 . S
C280 C277 1.363 . S
C280 N278 1.356 . S
C281 C275 1.363 . S
C281 C276 1.379 . S
C281 N279 1.356 . S
N282 C274 1.356 . S
N282 H288 0.984 1_565 S
N282 H289 0.984 1_565 S
N283 C276 1.356 . S
N283 H286 0.984 . S
N283 H287 0.985 . S
H284 N279 0.984 . S
H285 N279 0.985 . S
H286 N283 0.984 . S
H287 N283 0.985 . S
H288 N282 0.984 1_545 S
H289 N282 0.984 1_545 S
H290 N278 0.984 . S
H291 N278 0.985 . S
C292 C293 1.363 . S
C292 C298 1.379 . S
C292 N300 1.356 . S
C293 C292 1.363 . S
C293 C299 1.363 . S
C294 C295 1.363 . S
C294 C299 1.379 . S
C294 N301 1.356 . S
C295 C294 1.363 . S
C295 C298 1.363 . S
N296 C298 1.356 . S
N296 H308 0.984 . S
N296 H309 0.985 . S
N297 C299 1.356 . S
N297 H302 0.984 . S
N297 H303 0.985 . S
C298 C292 1.379 . S
C298 C295 1.363 . S
C298 N296 1.356 . S
C299 C293 1.363 . S
C299 C294 1.379 . S
C299 N297 1.356 . S
N300 C292 1.356 . S
N300 H306 0.984 . S
N300 H307 0.984 . S
N301 C294 1.356 . S
N301 H304 0.984 . S
N301 H305 0.985 . S
H302 N297 0.984 . S
H303 N297 0.985 . S
H304 N301 0.984 . S
H305 N301 0.985 . S
H306 N300 0.984 . S
H307 N300 0.984 . S
H308 N296 0.984 . S
H309 N296 0.985 . S
C310 C311 1.363 . S
C310 C316 1.379 . S
C310 N318 1.356 . S
C311 C310 1.363 . S
C311 C317 1.363 . S
C312 C313 1.363 . S
C312 C317 1.379 . S
C312 N319 1.356 . S
C313 C312 1.363 . S
C313 C316 1.363 . S
N314 C316 1.356 . S
N314 H326 0.984 . S
N314 H327 0.985 . S
N315 C317 1.356 . S
N315 H320 0.984 . S
N315 H321 0.985 . S
C316 C310 1.379 . S
C316 C313 1.363 . S
C316 N314 1.356 . S
C317 C311 1.363 . S
C317 C312 1.379 . S
C317 N315 1.356 . S
N318 C310 1.356 . S
N318 H324 0.984 . S
N318 H325 0.984 . S
N319 C312 1.356 . S
N319 H322 0.984 . S
N319 H323 0.985 . S
H320 N315 0.984 . S
H321 N315 0.985 . S
H322 N319 0.984 . S
H323 N319 0.985 . S
H324 N318 0.984 . S
H325 N318 0.984 . S
H326 N314 0.984 . S
H327 N314 0.985 . S
C328 C329 1.363 . S
C328 C334 1.379 . S
C328 N336 1.356 . S
C329 C328 1.363 . S
C329 C335 1.363 . S
C330 C331 1.363 . S
C330 C335 1.379 . S
C330 N337 1.356 . S
C331 C330 1.363 . S
C331 C334 1.363 . S
N332 C334 1.356 . S
N332 H344 0.984 . S
N332 H345 0.985 . S
N333 C335 1.356 . S
N333 H338 0.984 . S
N333 H339 0.985 . S
C334 C328 1.379 . S
C334 C331 1.363 . S
C334 N332 1.356 . S
C335 C329 1.363 . S
C335 C330 1.379 . S
C335 N333 1.356 . S
N336 C328 1.356 . S
N336 H342 0.984 . S
N336 H343 0.984 . S
N337 C330 1.356 . S
N337 H340 0.984 . S
N337 H341 0.985 . S
H338 N333 0.984 . S
H339 N333 0.985 . S
H340 N337 0.984 . S
H341 N337 0.985 . S
H342 N336 0.984 . S
H343 N336 0.984 . S
H344 N332 0.984 . S
H345 N332 0.985 . S
C346 C347 1.363 . S
C346 C352 1.379 . S
C346 N354 1.356 . S
C347 C346 1.363 . S
C347 C353 1.363 . S
C348 C349 1.363 . S
C348 C353 1.379 . S
C348 N355 1.356 . S
C349 C348 1.363 . S
C349 C352 1.363 . S
N350 C352 1.356 . S
N350 H362 0.984 . S
N350 H363 0.985 . S
N351 C353 1.356 . S
N351 H356 0.984 . S
N351 H357 0.985 . S
C352 C346 1.379 . S
C352 C349 1.363 . S
C352 N350 1.356 . S
C353 C347 1.363 . S
C353 C348 1.379 . S
C353 N351 1.356 . S
N354 C346 1.356 . S
N354 H360 0.984 . S
N354 H361 0.984 . S
N355 C348 1.356 . S
N355 H358 0.984 . S
N355 H359 0.985 . S
H356 N351 0.984 . S
H357 N351 0.985 . S
H358 N355 0.984 . S
H359 N355 0.985 . S
H360 N354 0.984 . S
H361 N354 0.984 . S
H362 N350 0.984 . S
H363 N350 0.985 . S
C364 C365 1.363 . S
C364 C370 1.379 . S
C364 N372 1.356 . S
C365 C364 1.363 . S
C365 C371 1.363 . S
C366 C367 1.363 1_545 S
C366 C371 1.379 1_545 S
C366 N373 1.356 . S
C367 C366 1.363 1_565 S
C367 C370 1.363 . S
N368 C370 1.356 . S
N368 H380 0.984 1_455 S
N368 H381 0.985 . S
N369 C371 1.356 . S
N369 H374 0.984 . S
N369 H375 0.985 1_565 S
C370 C364 1.379 . S
C370 C367 1.363 . S
C370 N368 1.356 . S
C371 C365 1.363 . S
C371 C366 1.379 1_565 S
C371 N369 1.356 . S
N372 C364 1.356 . S
N372 H378 0.984 . S
N372 H379 0.984 . S
N373 C366 1.356 . S
N373 H376 0.984 . S
N373 H377 0.985 . S
H374 N369 0.984 . S
H375 N369 0.985 1_545 S
H376 N373 0.984 . S
H377 N373 0.985 . S
H378 N372 0.984 . S
H379 N372 0.984 . S
H380 N368 0.984 1_655 S
H381 N368 0.985 . S
C382 C383 1.363 . S
C382 C388 1.379 . S
C382 N390 1.356 . S
C383 C382 1.363 . S
C383 C389 1.363 . S
C384 C385 1.363 1_565 S
C384 C389 1.379 1_565 S
C384 N391 1.356 . S
C385 C384 1.363 1_545 S
C385 C388 1.363 . S
N386 C388 1.356 . S
N386 H398 0.984 . S
N386 H399 0.985 . S
N387 C389 1.356 . S
N387 H392 0.984 . S
N387 H393 0.985 1_545 S
C388 C382 1.379 . S
C388 C385 1.363 . S
C388 N386 1.356 . S
C389 C383 1.363 . S
C389 C384 1.379 1_545 S
C389 N387 1.356 . S
N390 C382 1.356 . S
N390 H396 0.984 . S
N390 H397 0.984 . S
N391 C384 1.356 . S
N391 H394 0.984 . S
N391 H395 0.985 . S
H392 N387 0.984 . S
H393 N387 0.985 1_565 S
H394 N391 0.984 . S
H395 N391 0.985 . S
H396 N390 0.984 . S
H397 N390 0.984 . S
H398 N386 0.984 . S
H399 N386 0.985 . S
C400 C401 1.363 . S
C400 C406 1.379 . S
C400 N408 1.356 . S
C401 C400 1.363 . S
C401 C407 1.363 . S
C402 C403 1.363 . S
C402 C407 1.379 . S
C402 N409 1.356 1_545 S
C403 C402 1.363 . S
C403 C406 1.363 . S
N404 C406 1.356 . S
N404 H416 0.984 . S
N404 H417 0.985 . S
N405 C407 1.356 . S
N405 H410 0.984 . S
N405 H411 0.985 . S
C406 C400 1.379 . S
C406 C403 1.363 . S
C406 N404 1.356 . S
C407 C401 1.363 . S
C407 C402 1.379 . S
C407 N405 1.356 . S
N408 C400 1.356 . S
N408 H414 0.984 . S
N408 H415 0.984 . S
N409 C402 1.356 1_565 S
N409 H412 0.984 . S
N409 H413 0.985 . S
H410 N405 0.984 . S
H411 N405 0.985 . S
H412 N409 0.984 . S
H413 N409 0.985 . S
H414 N408 0.984 . S
H415 N408 0.984 . S
H416 N404 0.984 . S
H417 N404 0.985 . S
C418 C419 1.363 . S
C418 C424 1.379 . S
C418 N426 1.356 . S
C419 C418 1.363 . S
C419 C425 1.363 . S
C420 C421 1.363 . S
C420 C425 1.379 . S
C420 N427 1.356 . S
C421 C420 1.363 . S
C421 C424 1.363 . S
N422 C424 1.356 . S
N422 H434 0.984 . S
N422 H435 0.985 . S
N423 C425 1.356 1_545 S
N423 H428 0.984 . S
N423 H429 0.985 . S
C424 C418 1.379 . S
C424 C421 1.363 . S
C424 N422 1.356 . S
C425 C419 1.363 . S
C425 C420 1.379 . S
C425 N423 1.356 1_565 S
N426 C418 1.356 . S
N426 H432 0.984 . S
N426 H433 0.984 . S
N427 C420 1.356 . S
N427 H430 0.984 . S
N427 H431 0.985 . S
H428 N423 0.984 . S
H429 N423 0.985 . S
H430 N427 0.984 . S
H431 N427 0.985 . S
H432 N426 0.984 . S
H433 N426 0.984 . S
H434 N422 0.984 . S
H435 N422 0.985 . S
C436 C437 1.363 . S
C436 C442 1.379 . S
C436 N444 1.356 . S
C437 C436 1.363 . S
C437 C443 1.363 . S
C438 C439 1.363 . S
C438 C443 1.379 . S
C438 N445 1.356 . S
C439 C438 1.363 . S
C439 C442 1.363 . S
N440 C442 1.356 . S
N440 H452 0.984 . S
N440 H453 0.985 . S
N441 C443 1.356 . S
N441 H446 0.984 . S
N441 H447 0.985 . S
C442 C436 1.379 . S
C442 C439 1.363 . S
C442 N440 1.356 . S
C443 C437 1.363 . S
C443 C438 1.379 . S
C443 N441 1.356 . S
N444 C436 1.356 . S
N444 H450 0.984 . S
N444 H451 0.984 . S
N445 C438 1.356 . S
N445 H448 0.984 . S
N445 H449 0.985 . S
H446 N441 0.984 . S
H447 N441 0.985 . S
H448 N445 0.984 . S
H449 N445 0.985 . S
H450 N444 0.984 . S
H451 N444 0.984 . S
H452 N440 0.984 . S
H453 N440 0.985 . S
C454 C455 1.363 . S
C454 C460 1.379 . S
C454 N462 1.356 . S
C455 C454 1.363 . S
C455 C461 1.363 . S
C456 C457 1.363 . S
C456 C461 1.379 . S
C456 N463 1.356 . S
C457 C456 1.363 . S
C457 C460 1.363 . S
N458 C460 1.356 . S
N458 H470 0.984 . S
N458 H471 0.985 . S
N459 C461 1.356 . S
N459 H464 0.984 . S
N459 H465 0.985 . S
C460 C454 1.379 . S
C460 C457 1.363 . S
C460 N458 1.356 . S
C461 C455 1.363 . S
C461 C456 1.379 . S
C461 N459 1.356 . S
N462 C454 1.356 . S
N462 H468 0.984 . S
N462 H469 0.984 . S
N463 C456 1.356 . S
N463 H466 0.984 . S
N463 H467 0.985 . S
H464 N459 0.984 . S
H465 N459 0.985 . S
H466 N463 0.984 . S
H467 N463 0.985 . S
H468 N462 0.984 . S
H469 N462 0.984 . S
H470 N458 0.984 . S
H471 N458 0.985 . S
C472 C473 1.363 . S
C472 C478 1.379 . S
C472 N480 1.356 . S
C473 C472 1.363 . S
C473 C479 1.363 . S
C474 C475 1.363 . S
C474 C479 1.379 . S
C474 N481 1.356 . S
C475 C474 1.363 . S
C475 C478 1.363 . S
N476 C478 1.356 . S
N476 H488 0.984 . S
N476 H489 0.985 . S
N477 C479 1.356 . S
N477 H482 0.984 . S
N477 H483 0.985 . S
C478 C472 1.379 . S
C478 C475 1.363 . S
C478 N476 1.356 . S
C479 C473 1.363 . S
C479 C474 1.379 . S
C479 N477 1.356 . S
N480 C472 1.356 . S
N480 H486 0.984 . S
N480 H487 0.984 . S
N481 C474 1.356 . S
N481 H484 0.984 . S
N481 H485 0.985 . S
H482 N477 0.984 . S
H483 N477 0.985 . S
H484 N481 0.984 . S
H485 N481 0.985 . S
H486 N480 0.984 . S
H487 N480 0.984 . S
H488 N476 0.984 . S
H489 N476 0.985 . S
C490 C491 1.363 . S
C490 C496 1.379 . S
C490 N498 1.356 . S
C491 C490 1.363 . S
C491 C497 1.363 . S
C492 C493 1.363 . S
C492 C497 1.379 . S
C492 N499 1.356 . S
C493 C492 1.363 . S
C493 C496 1.363 . S
N494 C496 1.356 . S
N494 H506 0.984 . S
N494 H507 0.985 . S
N495 C497 1.356 . S
N495 H500 0.984 . S
N495 H501 0.985 . S
C496 C490 1.379 . S
C496 C493 1.363 . S
C496 N494 1.356 . S
C497 C491 1.363 . S
C497 C492 1.379 . S
C497 N495 1.356 . S
N498 C490 1.356 . S
N498 H504 0.984 . S
N498 H505 0.984 . S
N499 C492 1.356 . S
N499 H502 0.984 . S
N499 H503 0.985 . S
H500 N495 0.984 . S
H501 N495 0.985 . S
H502 N499 0.984 . S
H503 N499 0.985 . S
H504 N498 0.984 . S
H505 N498 0.984 . S
H506 N494 0.984 . S
H507 N494 0.985 . S
C508 C509 1.363 1_545 S
C508 C514 1.379 1_545 S
C508 N516 1.356 . S
C509 C508 1.363 1_565 S
C509 C515 1.363 . S
C510 C511 1.363 . S
C510 C515 1.379 . S
C510 N517 1.356 . S
C511 C510 1.363 . S
C511 C514 1.363 . S
N512 C514 1.356 . S
N512 H524 0.984 1_565 S
N512 H525 0.985 . S
N513 C515 1.356 . S
N513 H518 0.984 . S
N513 H519 0.985 . S
C514 C508 1.379 1_565 S
C514 C511 1.363 . S
C514 N512 1.356 . S
C515 C509 1.363 . S
C515 C510 1.379 . S
C515 N513 1.356 . S
N516 C508 1.356 . S
N516 H522 0.984 . S
N516 H523 0.984 . S
N517 C510 1.356 . S
N517 H520 0.984 . S
N517 H521 0.985 . S
H518 N513 0.984 . S
H519 N513 0.985 . S
H520 N517 0.984 . S
H521 N517 0.985 . S
H522 N516 0.984 . S
H523 N516 0.984 . S
H524 N512 0.984 1_545 S
H525 N512 0.985 . S
C526 C527 1.363 . S
C526 C532 1.379 . S
C526 N534 1.356 . S
C527 C526 1.363 . S
C527 C533 1.363 1_545 S
C528 C529 1.363 . S
C528 C533 1.379 1_545 S
C528 N535 1.356 . S
C529 C528 1.363 . S
C529 C532 1.363 . S
N530 C532 1.356 . S
N530 H542 0.984 . S
N530 H543 0.985 . S
N531 C533 1.356 . S
N531 H536 0.984 . S
N531 H537 0.985 . S
C532 C526 1.379 . S
C532 C529 1.363 . S
C532 N530 1.356 . S
C533 C527 1.363 1_565 S
C533 C528 1.379 1_565 S
C533 N531 1.356 . S
N534 C526 1.356 . S
N534 H540 0.984 . S
N534 H541 0.984 . S
N535 C528 1.356 . S
N535 H538 0.984 . S
N535 H539 0.985 1_545 S
H536 N531 0.984 . S
H537 N531 0.985 . S
H538 N535 0.984 . S
H539 N535 0.985 1_565 S
H540 N534 0.984 . S
H541 N534 0.984 . S
H542 N530 0.984 . S
H543 N530 0.985 . S
C544 C545 1.363 1_455 S
C544 C550 1.379 . S
C544 N552 1.356 . S
C545 C544 1.363 1_655 S
C545 C551 1.363 1_554 S
C546 C547 1.363 1_655 S
C546 C551 1.379 . S
C546 N553 1.356 . S
C547 C546 1.363 1_455 S
C547 C550 1.363 1_556 S
N548 C550 1.356 . S
N548 H560 0.984 . S
N548 H561 0.985 . S
N549 C551 1.356 . S
N549 H554 0.984 . S
N549 H555 0.985 . S
C550 C544 1.379 . S
C550 C547 1.363 1_554 S
C550 N548 1.356 . S
C551 C545 1.363 1_556 S
C551 C546 1.379 . S
C551 N549 1.356 . S
N552 C544 1.356 . S
N552 H558 0.984 . S
N552 H559 0.984 . S
N553 C546 1.356 . S
N553 H556 0.984 . S
N553 H557 0.985 . S
H554 N549 0.984 . S
H555 N549 0.985 . S
H556 N553 0.984 . S
H557 N553 0.985 . S
H558 N552 0.984 . S
H559 N552 0.984 . S
H560 N548 0.984 . S
H561 N548 0.985 . S
C562 C563 1.363 . S
C562 C568 1.379 . S
C562 N570 1.356 . S
C563 C562 1.363 . S
C563 C569 1.363 . S
C564 C565 1.363 . S
C564 C569 1.379 . S
C564 N571 1.356 . S
C565 C564 1.363 . S
C565 C568 1.363 . S
N566 C568 1.356 . S
N566 H578 0.984 . S
N566 H579 0.985 . S
N567 C569 1.356 . S
N567 H572 0.984 . S
N567 H573 0.985 . S
C568 C562 1.379 . S
C568 C565 1.363 . S
C568 N566 1.356 . S
C569 C563 1.363 . S
C569 C564 1.379 . S
C569 N567 1.356 . S
N570 C562 1.356 . S
N570 H576 0.984 . S
N570 H577 0.984 . S
N571 C564 1.356 . S
N571 H574 0.984 . S
N571 H575 0.985 . S
H572 N567 0.984 . S
H573 N567 0.985 . S
H574 N571 0.984 . S
H575 N571 0.985 . S
H576 N570 0.984 . S
H577 N570 0.984 . S
H578 N566 0.984 . S
H579 N566 0.985 . S
C580 C581 1.363 . S
C580 C586 1.379 . S
C580 N588 1.356 . S
C581 C580 1.363 . S
C581 C587 1.363 . S
C582 C583 1.363 . S
C582 C587 1.379 . S
C582 N589 1.356 . S
C583 C582 1.363 . S
C583 C586 1.363 . S
N584 C586 1.356 . S
N584 H596 0.984 . S
N584 H597 0.985 . S
N585 C587 1.356 . S
N585 H590 0.984 . S
N585 H591 0.985 . S
C586 C580 1.379 . S
C586 C583 1.363 . S
C586 N584 1.356 . S
C587 C581 1.363 . S
C587 C582 1.379 . S
C587 N585 1.356 . S
N588 C580 1.356 . S
N588 H594 0.984 . S
N588 H595 0.984 . S
N589 C582 1.356 . S
N589 H592 0.984 . S
N589 H593 0.985 . S
H590 N585 0.984 . S
H591 N585 0.985 . S
H592 N589 0.984 . S
H593 N589 0.985 . S
H594 N588 0.984 . S
H595 N588 0.984 . S
H596 N584 0.984 . S
H597 N584 0.985 . S
C598 C599 1.363 1_655 S
C598 C604 1.379 1_565 S
C598 N606 1.356 . S
C599 C598 1.363 1_455 S
C599 C605 1.363 . S
C600 C601 1.363 1_455 S
C600 C605 1.379 1_545 S
C600 N607 1.356 . S
C601 C600 1.363 1_655 S
C601 C604 1.363 . S
N602 C604 1.356 . S
N602 H614 0.984 . S
N602 H615 0.985 . S
N603 C605 1.356 . S
N603 H608 0.984 . S
N603 H609 0.985 . S
C604 C598 1.379 1_545 S
C604 C601 1.363 . S
C604 N602 1.356 . S
C605 C599 1.363 . S
C605 C600 1.379 1_565 S
C605 N603 1.356 . S
N606 C598 1.356 . S
N606 H612 0.984 . S
N606 H613 0.984 . S
N607 C600 1.356 . S
N607 H610 0.984 . S
N607 H611 0.985 . S
H608 N603 0.984 . S
H609 N603 0.985 . S
H610 N607 0.984 . S
H611 N607 0.985 . S
H612 N606 0.984 . S
H613 N606 0.984 . S
H614 N602 0.984 . S
H615 N602 0.985 . S
C616 C617 1.363 . S
C616 C622 1.379 . S
C616 N624 1.356 . S
C617 C616 1.363 . S
C617 C623 1.363 . S
C618 C619 1.363 . S
C618 C623 1.379 . S
C618 N625 1.356 . S
C619 C618 1.363 . S
C619 C622 1.363 . S
N620 C622 1.356 . S
N620 H632 0.984 . S
N620 H633 0.985 . S
N621 C623 1.356 . S
N621 H626 0.984 . S
N621 H627 0.985 . S
C622 C616 1.379 . S
C622 C619 1.363 . S
C622 N620 1.356 . S
C623 C617 1.363 . S
C623 C618 1.379 . S
C623 N621 1.356 . S
N624 C616 1.356 . S
N624 H630 0.984 . S
N624 H631 0.984 . S
N625 C618 1.356 . S
N625 H628 0.984 . S
N625 H629 0.985 . S
H626 N621 0.984 . S
H627 N621 0.985 . S
H628 N625 0.984 . S
H629 N625 0.985 . S
H630 N624 0.984 . S
H631 N624 0.984 . S
H632 N620 0.984 . S
H633 N620 0.985 . S
C634 C635 1.363 . S
C634 C640 1.379 . S
C634 N642 1.356 . S
C635 C634 1.363 . S
C635 C641 1.363 . S
C636 C637 1.363 . S
C636 C641 1.379 . S
C636 N643 1.356 . S
C637 C636 1.363 . S
C637 C640 1.363 . S
N638 C640 1.356 . S
N638 H650 0.984 . S
N638 H651 0.985 . S
N639 C641 1.356 . S
N639 H644 0.984 . S
N639 H645 0.985 . S
C640 C634 1.379 . S
C640 C637 1.363 . S
C640 N638 1.356 . S
C641 C635 1.363 . S
C641 C636 1.379 . S
C641 N639 1.356 . S
N642 C634 1.356 . S
N642 H648 0.984 . S
N642 H649 0.984 . S
N643 C636 1.356 . S
N643 H646 0.984 . S
N643 H647 0.985 . S
H644 N639 0.984 . S
H645 N639 0.985 . S
H646 N643 0.984 . S
H647 N643 0.985 . S
H648 N642 0.984 . S
H649 N642 0.984 . S
H650 N638 0.984 . S
H651 N638 0.985 . S
C652 C653 1.363 . S
C652 C658 1.379 . S
C652 N660 1.356 . S
C653 C652 1.363 . S
C653 C659 1.363 . S
C654 C655 1.363 . S
C654 C659 1.379 . S
C654 N661 1.356 . S
C655 C654 1.363 . S
C655 C658 1.363 . S
N656 C658 1.356 . S
N656 H668 0.984 . S
N656 H669 0.985 . S
N657 C659 1.356 . S
N657 H662 0.984 . S
N657 H663 0.985 . S
C658 C652 1.379 . S
C658 C655 1.363 . S
C658 N656 1.356 . S
C659 C653 1.363 . S
C659 C654 1.379 . S
C659 N657 1.356 . S
N660 C652 1.356 . S
N660 H666 0.984 . S
N660 H667 0.984 . S
N661 C654 1.356 . S
N661 H664 0.984 . S
N661 H665 0.985 . S
H662 N657 0.984 . S
H663 N657 0.985 . S
H664 N661 0.984 . S
H665 N661 0.985 . S
H666 N660 0.984 . S
H667 N660 0.984 . S
H668 N656 0.984 . S
H669 N656 0.985 . S
C670 C671 1.363 1_554 S
C670 C676 1.379 1_565 S
C670 N678 1.356 . S
C671 C670 1.363 1_556 S
C671 C677 1.363 . S
C672 C673 1.363 1_556 S
C672 C677 1.379 1_545 S
C672 N679 1.356 . S
C673 C672 1.363 1_554 S
C673 C676 1.363 . S
N674 C676 1.356 . S
N674 H686 0.984 . S
N674 H687 0.985 . S
N675 C677 1.356 . S
N675 H680 0.984 . S
N675 H681 0.985 . S
C676 C670 1.379 1_545 S
C676 C673 1.363 . S
C676 N674 1.356 . S
C677 C671 1.363 . S
C677 C672 1.379 1_565 S
C677 N675 1.356 . S
N678 C670 1.356 . S
N678 H684 0.984 . S
N678 H685 0.984 . S
N679 C672 1.356 . S
N679 H682 0.984 . S
N679 H683 0.985 . S
H680 N675 0.984 . S
H681 N675 0.985 . S
H682 N679 0.984 . S
H683 N679 0.985 . S
H684 N678 0.984 . S
H685 N678 0.984 . S
H686 N674 0.984 . S
H687 N674 0.985 . S
C688 C689 1.363 1_554 S
C688 C694 1.379 . S
C688 N696 1.356 . S
C689 C688 1.363 1_556 S
C689 C695 1.363 . S
C690 C691 1.363 1_556 S
C690 C695 1.379 . S
C690 N697 1.356 . S
C691 C690 1.363 1_554 S
C691 C694 1.363 . S
N692 C694 1.356 . S
N692 H704 0.984 . S
N692 H705 0.985 . S
N693 C695 1.356 . S
N693 H698 0.984 . S
N693 H699 0.985 . S
C694 C688 1.379 . S
C694 C691 1.363 . S
C694 N692 1.356 . S
C695 C689 1.363 . S
C695 C690 1.379 . S
C695 N693 1.356 . S
N696 C688 1.356 . S
N696 H702 0.984 . S
N696 H703 0.984 . S
N697 C690 1.356 . S
N697 H700 0.984 . S
N697 H701 0.985 . S
H698 N693 0.984 . S
H699 N693 0.985 . S
H700 N697 0.984 . S
H701 N697 0.985 . S
H702 N696 0.984 . S
H703 N696 0.984 . S
H704 N692 0.984 . S
H705 N692 0.985 . S
C706 C707 1.363 1_554 S
C706 C712 1.379 . S
C706 N714 1.356 . S
C707 C706 1.363 1_556 S
C707 C713 1.363 . S
C708 C709 1.363 1_556 S
C708 C713 1.379 . S
C708 N715 1.356 . S
C709 C708 1.363 1_554 S
C709 C712 1.363 . S
N710 C712 1.356 . S
N710 H722 0.984 . S
N710 H723 0.985 . S
N711 C713 1.356 . S
N711 H716 0.984 . S
N711 H717 0.985 . S
C712 C706 1.379 . S
C712 C709 1.363 . S
C712 N710 1.356 . S
C713 C707 1.363 . S
C713 C708 1.379 . S
C713 N711 1.356 . S
N714 C706 1.356 . S
N714 H720 0.984 . S
N714 H721 0.984 . S
N715 C708 1.356 . S
N715 H718 0.984 . S
N715 H719 0.985 . S
H716 N711 0.984 . S
H717 N711 0.985 . S
H718 N715 0.984 . S
H719 N715 0.985 . S
H720 N714 0.984 . S
H721 N714 0.984 . S
H722 N710 0.984 . S
H723 N710 0.985 . S
C724 C725 1.363 . S
C724 C730 1.379 1_455 S
C724 N732 1.356 . S
C725 C724 1.363 . S
C725 C731 1.363 . S
C726 C727 1.363 . S
C726 C731 1.379 1_655 S
C726 N733 1.356 . S
C727 C726 1.363 . S
C727 C730 1.363 . S
N728 C730 1.356 . S
N728 H740 0.984 . S
N728 H741 0.985 . S
N729 C731 1.356 . S
N729 H734 0.984 . S
N729 H735 0.985 . S
C730 C724 1.379 1_655 S
C730 C727 1.363 . S
C730 N728 1.356 . S
C731 C725 1.363 . S
C731 C726 1.379 1_455 S
C731 N729 1.356 . S
N732 C724 1.356 . S
N732 H738 0.984 . S
N732 H739 0.984 . S
N733 C726 1.356 . S
N733 H736 0.984 . S
N733 H737 0.985 . S
H734 N729 0.984 . S
H735 N729 0.985 . S
H736 N733 0.984 . S
H737 N733 0.985 . S
H738 N732 0.984 . S
H739 N732 0.984 . S
H740 N728 0.984 . S
H741 N728 0.985 . S
C742 C743 1.363 . S
C742 C748 1.379 . S
C742 N750 1.356 . S
C743 C742 1.363 . S
C743 C749 1.363 . S
C744 C745 1.363 . S
C744 C749 1.379 . S
C744 N751 1.356 . S
C745 C744 1.363 . S
C745 C748 1.363 . S
N746 C748 1.356 . S
N746 H758 0.984 . S
N746 H759 0.985 . S
N747 C749 1.356 . S
N747 H752 0.984 . S
N747 H753 0.985 . S
C748 C742 1.379 . S
C748 C745 1.363 . S
C748 N746 1.356 . S
C749 C743 1.363 . S
C749 C744 1.379 . S
C749 N747 1.356 . S
N750 C742 1.356 . S
N750 H756 0.984 . S
N750 H757 0.984 . S
N751 C744 1.356 . S
N751 H754 0.984 . S
N751 H755 0.985 . S
H752 N747 0.984 . S
H753 N747 0.985 . S
H754 N751 0.984 . S
H755 N751 0.985 . S
H756 N750 0.984 . S
H757 N750 0.984 . S
H758 N746 0.984 . S
H759 N746 0.985 . S
C760 C761 1.363 . S
C760 C766 1.379 . S
C760 N768 1.356 . S
C761 C760 1.363 . S
C761 C767 1.363 . S
C762 C763 1.363 . S
C762 C767 1.379 . S
C762 N769 1.356 . S
C763 C762 1.363 . S
C763 C766 1.363 . S
N764 C766 1.356 . S
N764 H776 0.984 . S
N764 H777 0.985 . S
N765 C767 1.356 . S
N765 H770 0.984 . S
N765 H771 0.985 . S
C766 C760 1.379 . S
C766 C763 1.363 . S
C766 N764 1.356 . S
C767 C761 1.363 . S
C767 C762 1.379 . S
C767 N765 1.356 . S
N768 C760 1.356 . S
N768 H774 0.984 . S
N768 H775 0.984 . S
N769 C762 1.356 . S
N769 H772 0.984 . S
N769 H773 0.985 . S
H770 N765 0.984 . S
H771 N765 0.985 . S
H772 N769 0.984 . S
H773 N769 0.985 . S
H774 N768 0.984 . S
H775 N768 0.984 . S
H776 N764 0.984 . S
H777 N764 0.985 . S
C778 C779 1.363 . S
C778 C784 1.379 1_655 S
C778 N786 1.356 . S
C779 C778 1.363 . S
C779 C785 1.363 1_545 S
C780 C781 1.363 . S
C780 C785 1.379 1_455 S
C780 N787 1.356 . S
C781 C780 1.363 . S
C781 C784 1.363 1_565 S
N782 C784 1.356 . S
N782 H794 0.984 . S
N782 H795 0.985 1_545 S
N783 C785 1.356 . S
N783 H788 0.984 1_565 S
N783 H789 0.985 . S
C784 C778 1.379 1_455 S
C784 C781 1.363 1_545 S
C784 N782 1.356 . S
C785 C779 1.363 1_565 S
C785 C780 1.379 1_655 S
C785 N783 1.356 . S
N786 C778 1.356 . S
N786 H792 0.984 . S
N786 H793 0.984 . S
N787 C780 1.356 . S
N787 H790 0.984 . S
N787 H791 0.985 . S
H788 N783 0.984 1_545 S
H789 N783 0.985 . S
H790 N787 0.984 . S
H791 N787 0.985 . S
H792 N786 0.984 . S
H793 N786 0.984 . S
H794 N782 0.984 . S
H795 N782 0.985 1_565 S
C796 C797 1.363 . S
C796 C802 1.379 . S
C796 N804 1.356 . S
C797 C796 1.363 . S
C797 C803 1.363 . S
C798 C799 1.363 . S
C798 C803 1.379 . S
C798 N805 1.356 . S
C799 C798 1.363 . S
C799 C802 1.363 . S
N800 C802 1.356 . S
N800 H812 0.984 . S
N800 H813 0.985 . S
N801 C803 1.356 . S
N801 H806 0.984 . S
N801 H807 0.985 . S
C802 C796 1.379 . S
C802 C799 1.363 . S
C802 N800 1.356 . S
C803 C797 1.363 . S
C803 C798 1.379 . S
C803 N801 1.356 . S
N804 C796 1.356 . S
N804 H810 0.984 . S
N804 H811 0.984 . S
N805 C798 1.356 . S
N805 H808 0.984 . S
N805 H809 0.985 . S
H806 N801 0.984 . S
H807 N801 0.985 . S
H808 N805 0.984 . S
H809 N805 0.985 . S
H810 N804 0.984 . S
H811 N804 0.984 . S
H812 N800 0.984 . S
H813 N800 0.985 . S
C814 C815 1.363 . S
C814 C820 1.379 1_565 S
C814 N822 1.356 . S
C815 C814 1.363 . S
C815 C821 1.363 . S
C816 C817 1.363 . S
C816 C821 1.379 1_545 S
C816 N823 1.356 . S
C817 C816 1.363 . S
C817 C820 1.363 . S
N818 C820 1.356 . S
N818 H830 0.984 . S
N818 H831 0.985 . S
N819 C821 1.356 . S
N819 H824 0.984 . S
N819 H825 0.985 . S
C820 C814 1.379 1_545 S
C820 C817 1.363 . S
C820 N818 1.356 . S
C821 C815 1.363 . S
C821 C816 1.379 1_565 S
C821 N819 1.356 . S
N822 C814 1.356 . S
N822 H828 0.984 . S
N822 H829 0.984 . S
N823 C816 1.356 . S
N823 H826 0.984 . S
N823 H827 0.985 . S
H824 N819 0.984 . S
H825 N819 0.985 . S
H826 N823 0.984 . S
H827 N823 0.985 . S
H828 N822 0.984 . S
H829 N822 0.984 . S
H830 N818 0.984 . S
H831 N818 0.985 . S
C257 C18 2.053 . S
C259 C53 2.017 . S
C275 C21 1.884 . S
C277 C82 1.827 . S
C293 C113 2.017 . S
C295 C54 2.053 . S
C311 C81 1.884 . S
C313 C118 1.827 . S
C329 C114 2.053 . S
C331 C149 2.018 . S
C347 C178 1.827 . S
C349 C117 1.883 . S
C365 C150 2.053 . S
C367 C17 2.018 1_565 S
C383 C177 1.883 . S
C385 C22 1.827 1_545 S
C401 C181 2.018 . S
C403 C210 2.053 . S
C419 C213 1.883 . S
C421 C146 1.827 . S
C437 C241 2.018 . S
C439 C182 2.053 . S
C455 C246 1.827 . S
C457 C145 1.883 . S
C473 C242 2.053 . S
C475 C85 2.017 . S
C491 C50 1.827 . S
C493 C245 1.883 . S
C509 C209 2.018 1_565 S
C511 C86 2.053 . S
C527 C214 1.827 1_545 S
C529 C49 1.883 . S
C545 C19 1.117 1_554 S
C547 C23 1.117 1_556 S
C563 C51 1.117 . S
C565 C55 1.117 . S
C581 C83 1.117 . S
C583 C87 1.117 . S
C599 C119 1.117 . S
C601 C115 1.117 . S
C617 C147 1.117 . S
C619 C151 1.117 . S
C635 C179 1.117 . S
C637 C183 1.117 . S
C653 C211 1.117 . S
C655 C215 1.117 . S
C671 C247 1.117 1_556 S
C673 C243 1.117 1_554 S
C689 C240 1.437 . S
C691 C20 1.437 . S
C707 C16 1.437 . S
C709 C244 1.437 . S
C725 C48 1.437 . S
C727 C84 1.437 . S
C743 C208 1.437 . S
C745 C116 1.437 . S
C761 C112 1.437 . S
C763 C212 1.436 . S
C779 C180 1.437 . S
C781 C144 1.437 . S
C797 C176 1.437 . S
C799 C148 1.437 . S
C815 C80 1.437 . S
C817 C52 1.437 . S
