# Generated by pormake.
# Topology zfv, (5)-cn, num edge types: 1
# Building blocks:
#     Node 0, Type 0, BuildingBlock: BEQFEK_clean_sbu_0, # of connection points: 5
#     Node 1, Type 0, BuildingBlock: BEQFEK_clean_sbu_0, # of connection points: 5
#     Node 2, Type 0, BuildingBlock: BEQFEK_clean_sbu_0, # of connection points: 5
#     Node 3, Type 0, BuildingBlock: BEQFEK_clean_sbu_0, # of connection points: 5
#     Node 4, Type 0, BuildingBlock: BEQFEK_clean_sbu_0, # of connection points: 5
#     Node 5, Type 0, BuildingBlock: BEQFEK_clean_sbu_0, # of connection points: 5
#     Node 6, Type 0, BuildingBlock: BEQFEK_clean_sbu_0, # of connection points: 5
#     Node 7, Type 0, BuildingBlock: BEQFEK_clean_sbu_0, # of connection points: 5
#     Node 8, Type 0, BuildingBlock: BEQFEK_clean_sbu_0, # of connection points: 5
#     Node 9, Type 0, BuildingBlock: BEQFEK_clean_sbu_0, # of connection points: 5
#     Node 10, Type 0, BuildingBlock: BEQFEK_clean_sbu_0, # of connection points: 5
#     Node 11, Type 0, BuildingBlock: BEQFEK_clean_sbu_0, # of connection points: 5
#     Node 12, Type 0, BuildingBlock: BEQFEK_clean_sbu_0, # of connection points: 5
#     Node 13, Type 0, BuildingBlock: BEQFEK_clean_sbu_0, # of connection points: 5
#     Node 14, Type 0, BuildingBlock: BEQFEK_clean_sbu_0, # of connection points: 5
#     Node 15, Type 0, BuildingBlock: BEQFEK_clean_sbu_0, # of connection points: 5
#     Edge 16, Type (0, 0), BuildingBlock: EZIPEK_clean_linker_0, # of connection points: 2
#     Edge 17, Type (0, 0), BuildingBlock: EZIPEK_clean_linker_0, # of connection points: 2
#     Edge 18, Type (0, 0), BuildingBlock: EZIPEK_clean_linker_0, # of connection points: 2
#     Edge 19, Type (0, 0), BuildingBlock: EZIPEK_clean_linker_0, # of connection points: 2
#     Edge 20, Type (0, 0), BuildingBlock: EZIPEK_clean_linker_0, # of connection points: 2
#     Edge 21, Type (0, 0), BuildingBlock: EZIPEK_clean_linker_0, # of connection points: 2
#     Edge 22, Type (0, 0), BuildingBlock: EZIPEK_clean_linker_0, # of connection points: 2
#     Edge 23, Type (0, 0), BuildingBlock: EZIPEK_clean_linker_0, # of connection points: 2
#     Edge 24, Type (0, 0), BuildingBlock: EZIPEK_clean_linker_0, # of connection points: 2
#     Edge 25, Type (0, 0), BuildingBlock: EZIPEK_clean_linker_0, # of connection points: 2
#     Edge 26, Type (0, 0), BuildingBlock: EZIPEK_clean_linker_0, # of connection points: 2
#     Edge 27, Type (0, 0), BuildingBlock: EZIPEK_clean_linker_0, # of connection points: 2
#     Edge 28, Type (0, 0), BuildingBlock: EZIPEK_clean_linker_0, # of connection points: 2
#     Edge 29, Type (0, 0), BuildingBlock: EZIPEK_clean_linker_0, # of connection points: 2
#     Edge 30, Type (0, 0), BuildingBlock: EZIPEK_clean_linker_0, # of connection points: 2
#     Edge 31, Type (0, 0), BuildingBlock: EZIPEK_clean_linker_0, # of connection points: 2
#     Edge 32, Type (0, 0), BuildingBlock: EZIPEK_clean_linker_0, # of connection points: 2
#     Edge 33, Type (0, 0), BuildingBlock: EZIPEK_clean_linker_0, # of connection points: 2
#     Edge 34, Type (0, 0), BuildingBlock: EZIPEK_clean_linker_0, # of connection points: 2
#     Edge 35, Type (0, 0), BuildingBlock: EZIPEK_clean_linker_0, # of connection points: 2
#     Edge 36, Type (0, 0), BuildingBlock: EZIPEK_clean_linker_0, # of connection points: 2
#     Edge 37, Type (0, 0), BuildingBlock: EZIPEK_clean_linker_0, # of connection points: 2
#     Edge 38, Type (0, 0), BuildingBlock: EZIPEK_clean_linker_0, # of connection points: 2
#     Edge 39, Type (0, 0), BuildingBlock: EZIPEK_clean_linker_0, # of connection points: 2
#     Edge 40, Type (0, 0), BuildingBlock: EZIPEK_clean_linker_0, # of connection points: 2
#     Edge 41, Type (0, 0), BuildingBlock: EZIPEK_clean_linker_0, # of connection points: 2
#     Edge 42, Type (0, 0), BuildingBlock: EZIPEK_clean_linker_0, # of connection points: 2
#     Edge 43, Type (0, 0), BuildingBlock: EZIPEK_clean_linker_0, # of connection points: 2
#     Edge 44, Type (0, 0), BuildingBlock: EZIPEK_clean_linker_0, # of connection points: 2
#     Edge 45, Type (0, 0), BuildingBlock: EZIPEK_clean_linker_0, # of connection points: 2
#     Edge 46, Type (0, 0), BuildingBlock: EZIPEK_clean_linker_0, # of connection points: 2
#     Edge 47, Type (0, 0), BuildingBlock: EZIPEK_clean_linker_0, # of connection points: 2
#     Edge 48, Type (0, 0), BuildingBlock: EZIPEK_clean_linker_0, # of connection points: 2
#     Edge 49, Type (0, 0), BuildingBlock: EZIPEK_clean_linker_0, # of connection points: 2
#     Edge 50, Type (0, 0), BuildingBlock: EZIPEK_clean_linker_0, # of connection points: 2
#     Edge 51, Type (0, 0), BuildingBlock: EZIPEK_clean_linker_0, # of connection points: 2
#     Edge 52, Type (0, 0), BuildingBlock: EZIPEK_clean_linker_0, # of connection points: 2
#     Edge 53, Type (0, 0), BuildingBlock: EZIPEK_clean_linker_0, # of connection points: 2
#     Edge 54, Type (0, 0), BuildingBlock: EZIPEK_clean_linker_0, # of connection points: 2
#     Edge 55, Type (0, 0), BuildingBlock: EZIPEK_clean_linker_0, # of connection points: 2
# Relax obj value: 0.071
# Max RMSD: 0.135
# Mean RMSD: 0.135
data_MOF--net-zfv--node1-BEQFEK_clean_sbu_0--edge1-EZIPEK_clean_linker_0
_symmetry_space_group_name_H-M    P1
_symmetry_Int_Tables_number       1
_symmetry_cell_setting            triclinic
loop_
_symmetry_equiv_pos_as_xyz
'x, y, z'
_cell_length_a     56.349519
_cell_length_b     56.325839
_cell_length_c     15.365491
_cell_angle_alpha  90.056884
_cell_angle_beta   89.973291
_cell_angle_gamma 89.993775
loop_
_atom_site_label
_atom_site_type_symbol
_atom_site_fract_x
_atom_site_fract_y
_atom_site_fract_z
_atom_type_partial_charge
Co0 Co 0.00543 0.60868 0.19501 0.0
Co1 Co 0.00811 0.61958 0.99323 0.0
C2 C 0.96878 0.63841 0.10876 0.0
O3 O 0.97578 0.62603 0.17281 0.0
O4 O 0.97988 0.63785 0.03624 0.0
C5 C 0.98641 0.59657 0.36516 0.0
O6 O 0.96626 0.59289 0.32442 0.0
C7 C 0.99487 0.61511 0.80557 0.0
C8 C 0.02933 0.62307 0.74338 0.0
C9 C 0.00632 0.61608 0.72553 0.0
N10 N 0.01057 0.62094 0.86821 0.0
N11 N 0.03101 0.626 0.8301 0.0
C12 C 0.96988 0.6075 0.82234 0.0
H13 H 0.96755 0.60244 0.89164 0.0
H14 H 0.96508 0.59243 0.77917 0.0
H15 H 0.95777 0.62246 0.8072 0.0
C16 C 0.00866 0.55903 0.12879 0.0
N17 N 0.00783 0.58273 0.11705 0.0
N18 N 0.00895 0.58738 0.033 0.0
C19 C 0.01107 0.56672 0.98929 0.0
C20 C 0.01063 0.54821 0.04803 0.0
C21 C 0.00762 0.54711 0.21543 0.0
H22 H 0.99091 0.55217 0.24882 0.0
H23 H 0.00855 0.5275 0.20897 0.0
H24 H 0.02264 0.55347 0.25589 0.0
O25 O 0.03272 0.63104 0.18064 0.0
O26 O 0.03573 0.6367 0.03787 0.0
H27 H 0.02087 0.54651 0.87486 0.0
H28 H 0.99741 0.56757 0.86005 0.0
C29 C 0.01454 0.56447 0.8933 0.0
H30 H 0.02771 0.57772 0.87114 0.0
H31 H 0.04642 0.63065 0.86365 0.0
O32 O 0.00518 0.60058 0.32144 0.0
C33 C 0.04295 0.64032 0.11502 0.0
Co34 Co 0.64203 0.74911 0.42813 0.0
Co35 Co 0.63385 0.74988 0.22573 0.0
C36 C 0.61213 0.71254 0.33377 0.0
O37 O 0.62033 0.72236 0.402 0.0
O38 O 0.61722 0.72014 0.25794 0.0
C39 C 0.64756 0.72819 0.59708 0.0
O40 O 0.6422 0.70829 0.55714 0.0
C41 C 0.63671 0.73789 0.0386 0.0
C42 C 0.63317 0.77348 0.97935 0.0
C43 C 0.6365 0.74975 0.95974 0.0
N44 N 0.63378 0.75395 0.10253 0.0
N45 N 0.63151 0.77515 0.06651 0.0
C46 C 0.64006 0.71187 0.05286 0.0
H47 H 0.62277 0.70276 0.04388 0.0
H48 H 0.64646 0.7084 0.11996 0.0
H49 H 0.65274 0.70452 0.00451 0.0
C50 C 0.69244 0.74926 0.36928 0.0
N51 N 0.6689 0.74925 0.35367 0.0
N52 N 0.66536 0.74998 0.26894 0.0
C53 C 0.68653 0.75053 0.22826 0.0
C54 C 0.70427 0.74997 0.29019 0.0
C55 C 0.70326 0.74834 0.45792 0.0
H56 H 0.70036 0.73039 0.48559 0.0
H57 H 0.7226 0.75202 0.4555 0.0
H58 H 0.69434 0.76137 0.50115 0.0
O59 O 0.62341 0.77852 0.41446 0.0
O60 O 0.61535 0.777 0.27298 0.0
H61 H 0.67949 0.76688 0.10547 0.0
H62 H 0.70887 0.75437 0.11419 0.0
C63 C 0.68994 0.75187 0.13189 0.0
H64 H 0.68359 0.73517 0.10179 0.0
H65 H 0.62923 0.79085 0.10165 0.0
O66 O 0.65016 0.74719 0.55352 0.0
C67 C 0.61316 0.78675 0.34731 0.0
Co68 Co 0.50483 0.38772 0.68685 0.0
Co69 Co 0.50434 0.37864 0.48391 0.0
C70 C 0.54147 0.35738 0.59799 0.0
O71 O 0.53272 0.36779 0.66403 0.0
O72 O 0.53265 0.35988 0.52201 0.0
C73 C 0.52525 0.3962 0.85475 0.0
O74 O 0.54557 0.39527 0.81299 0.0
C75 C 0.51734 0.38136 0.29631 0.0
C76 C 0.48168 0.38017 0.23642 0.0
C77 C 0.50553 0.38245 0.21724 0.0
N78 N 0.5011 0.37876 0.35986 0.0
N79 N 0.47987 0.3778 0.32327 0.0
C80 C 0.54342 0.3838 0.31124 0.0
H81 H 0.5471 0.38825 0.38032 0.0
H82 H 0.55089 0.39766 0.26779 0.0
H83 H 0.55221 0.36672 0.29513 0.0
C84 C 0.5041 0.43781 0.62705 0.0
N85 N 0.50452 0.41425 0.61202 0.0
N86 N 0.50474 0.41045 0.52735 0.0
C87 C 0.50448 0.43157 0.48628 0.0
C88 C 0.50415 0.44946 0.54777 0.0
C89 C 0.50392 0.44886 0.71537 0.0
H90 H 0.49111 0.43937 0.75774 0.0
H91 H 0.52185 0.447 0.74437 0.0
H92 H 0.49927 0.46799 0.71207 0.0
O93 O 0.47635 0.36769 0.66996 0.0
O94 O 0.47607 0.36151 0.52704 0.0
H95 H 0.48894 0.42504 0.36203 0.0
H96 H 0.5028 0.4538 0.37144 0.0
C97 C 0.50421 0.43481 0.38994 0.0
H98 H 0.52086 0.42755 0.36241 0.0
H99 H 0.46403 0.37619 0.35796 0.0
O100 O 0.50585 0.39558 0.81257 0.0
C101 C 0.46719 0.35848 0.60228 0.0
Co102 Co 0.86532 0.25166 0.94129 0.0
Co103 Co 0.87536 0.24634 0.7415 0.0
C104 C 0.89512 0.28708 0.84633 0.0
O105 O 0.88328 0.28075 0.91284 0.0
O106 O 0.89399 0.2752 0.77563 0.0
C107 C 0.86175 0.26972 0.11522 0.0
O108 O 0.87071 0.28914 0.08143 0.0
C109 C 0.87146 0.25725 0.55418 0.0
C110 C 0.87847 0.22196 0.49649 0.0
C111 C 0.8726 0.24511 0.4761 0.0
N112 N 0.87609 0.24186 0.61873 0.0
N113 N 0.88036 0.22082 0.58367 0.0
C114 C 0.86575 0.2829 0.56694 0.0
H115 H 0.86031 0.28629 0.63526 0.0
H116 H 0.85144 0.28842 0.52163 0.0
H117 H 0.88174 0.29362 0.55169 0.0
C118 C 0.81555 0.24896 0.87968 0.0
N119 N 0.83916 0.24877 0.86584 0.0
N120 N 0.84331 0.24667 0.78181 0.0
C121 C 0.82236 0.24498 0.73989 0.0
C122 C 0.80423 0.24662 0.80011 0.0
C123 C 0.80425 0.25195 0.967 0.0
H124 H 0.81066 0.23777 0.01125 0.0
H125 H 0.80981 0.26923 0.99512 0.0
H126 H 0.7846 0.25126 0.96263 0.0
O127 O 0.88711 0.22383 0.93213 0.0
O128 O 0.89242 0.2192 0.78997 0.0
H129 H 0.83171 0.22759 0.62075 0.0
H130 H 0.801 0.23641 0.62708 0.0
C131 C 0.81943 0.24157 0.64406 0.0
H132 H 0.82351 0.25847 0.61059 0.0
H133 H 0.88424 0.20557 0.61941 0.0
O134 O 0.85623 0.25243 0.06606 0.0
C135 C 0.89612 0.21276 0.86789 0.0
Co136 Co 0.00386 0.39002 0.79011 0.0
Co137 Co 0.00784 0.37899 0.9915 0.0
C138 C 0.96757 0.36061 0.87894 0.0
O139 O 0.97406 0.37303 0.8142 0.0
O140 O 0.97927 0.36108 0.95012 0.0
C141 C 0.98503 0.40195 0.61896 0.0
O142 O 0.96468 0.40544 0.65863 0.0
C143 C 0.99484 0.38369 0.17907 0.0
C144 C 0.02909 0.37505 0.24144 0.0
C145 C 0.00618 0.38244 0.25915 0.0
N146 N 0.01047 0.37761 0.11648 0.0
N147 N 0.03079 0.37216 0.15466 0.0
C148 C 0.97002 0.39181 0.1623 0.0
H149 H 0.96775 0.39671 0.09284 0.0
H150 H 0.96561 0.40712 0.20488 0.0
H151 H 0.95759 0.37718 0.17843 0.0
C152 C 0.00784 0.43962 0.8565 0.0
N153 N 0.00705 0.41591 0.86804 0.0
N154 N 0.00881 0.41119 0.95189 0.0
C155 C 0.01137 0.43179 0.99558 0.0
C156 C 0.0105 0.45035 0.93715 0.0
C157 C 0.00599 0.45162 0.7702 0.0
H158 H 0.02113 0.44596 0.72894 0.0
H159 H 0.98941 0.44591 0.73741 0.0
H160 H 0.00614 0.47124 0.77707 0.0
O161 O 0.03088 0.36731 0.8026 0.0
O162 O 0.03502 0.3615 0.94493 0.0
H163 H 0.02842 0.42038 0.11258 0.0
H164 H 0.02239 0.45177 0.109 0.0
C165 C 0.01548 0.43397 0.09128 0.0
H166 H 0.99846 0.43136 0.12593 0.0
H167 H 0.04614 0.36724 0.12114 0.0
O168 O 0.00366 0.39813 0.66365 0.0
C169 C 0.04155 0.35789 0.86691 0.0
Co170 Co 0.86506 0.74632 0.06054 0.0
Co171 Co 0.87465 0.75037 0.26063 0.0
C172 C 0.89546 0.71082 0.15301 0.0
O173 O 0.88343 0.7174 0.0874 0.0
O174 O 0.89412 0.72216 0.22487 0.0
C175 C 0.8609 0.72799 0.88756 0.0
O176 O 0.86953 0.70849 0.92178 0.0
C177 C 0.8712 0.73918 0.44825 0.0
C178 C 0.87623 0.77489 0.50528 0.0
C179 C 0.87158 0.7515 0.52611 0.0
N180 N 0.87505 0.75472 0.38344 0.0
N181 N 0.87815 0.776 0.41814 0.0
C182 C 0.86698 0.71323 0.43587 0.0
H183 H 0.86166 0.70948 0.36769 0.0
H184 H 0.85308 0.70691 0.48154 0.0
H185 H 0.8836 0.70348 0.45071 0.0
C186 C 0.81515 0.74841 0.12078 0.0
N187 N 0.83872 0.74842 0.13534 0.0
N188 N 0.84268 0.74962 0.21969 0.0
C189 C 0.82163 0.75073 0.26122 0.0
C190 C 0.80364 0.74982 0.20029 0.0
C191 C 0.80407 0.74663 0.03269 0.0
H192 H 0.81078 0.76124 0.991 0.0
H193 H 0.80947 0.72963 0.00197 0.0
H194 H 0.78441 0.74751 0.03654 0.0
O195 O 0.88651 0.77437 0.07157 0.0
O196 O 0.89119 0.77809 0.21429 0.0
H197 H 0.82986 0.76729 0.38281 0.0
H198 H 0.79979 0.75653 0.37531 0.0
C199 C 0.8185 0.75281 0.3574 0.0
H200 H 0.8238 0.73584 0.388 0.0
H201 H 0.88122 0.79139 0.38216 0.0
O202 O 0.85606 0.74562 0.93603 0.0
C203 C 0.89515 0.7851 0.13721 0.0
Co204 Co 0.50451 0.61021 0.31808 0.0
Co205 Co 0.50452 0.62006 0.5207 0.0
C206 C 0.54162 0.64047 0.40396 0.0
O207 O 0.53234 0.63021 0.33871 0.0
O208 O 0.53314 0.63818 0.48058 0.0
C209 C 0.52477 0.60198 0.14997 0.0
O210 O 0.54502 0.60459 0.1911 0.0
C211 C 0.51768 0.61644 0.70773 0.0
C212 C 0.4828 0.62303 0.76921 0.0
C213 C 0.50617 0.61752 0.78746 0.0
N214 N 0.50169 0.62093 0.64478 0.0
N215 N 0.48097 0.62507 0.68228 0.0
C216 C 0.54318 0.6106 0.69169 0.0
H217 H 0.54606 0.60582 0.62236 0.0
H218 H 0.54886 0.59583 0.73471 0.0
H219 H 0.55421 0.62633 0.70765 0.0
C220 C 0.50416 0.56042 0.38056 0.0
N221 N 0.5044 0.58402 0.39471 0.0
N222 N 0.50418 0.58808 0.47924 0.0
C223 C 0.50338 0.56708 0.52116 0.0
C224 C 0.50359 0.54901 0.46032 0.0
C225 C 0.50473 0.54915 0.29255 0.0
H226 H 0.49115 0.55752 0.25025 0.0
H227 H 0.52236 0.55241 0.2627 0.0
H228 H 0.50158 0.52973 0.29646 0.0
O229 O 0.47614 0.6306 0.33485 0.0
O230 O 0.47645 0.63735 0.47743 0.0
H231 H 0.49686 0.54556 0.63536 0.0
H232 H 0.51863 0.56861 0.64796 0.0
C233 C 0.50142 0.56409 0.61746 0.0
H234 H 0.48752 0.57613 0.64303 0.0
H235 H 0.46536 0.62873 0.6483 0.0
O236 O 0.50543 0.60162 0.19269 0.0
C237 C 0.46739 0.64029 0.40249 0.0
Co238 Co 0.6431 0.24955 0.56819 0.0
Co239 Co 0.63454 0.24845 0.77132 0.0
C240 C 0.61326 0.28612 0.66164 0.0
O241 O 0.6221 0.27683 0.59344 0.0
O242 O 0.61727 0.27774 0.7373 0.0
C243 C 0.65139 0.27038 0.39977 0.0
O244 O 0.65034 0.29077 0.44113 0.0
C245 C 0.63734 0.26086 0.95884 0.0
C246 C 0.63569 0.22519 0.01844 0.0
C247 C 0.6382 0.24903 0.03782 0.0
N248 N 0.63464 0.24467 0.89512 0.0
N249 N 0.63341 0.22343 0.93148 0.0
C250 C 0.64005 0.28694 0.94414 0.0
H251 H 0.64564 0.29052 0.87613 0.0
H252 H 0.65313 0.2945 0.9905 0.0
H253 H 0.62272 0.29573 0.95595 0.0
C254 C 0.6934 0.2487 0.62788 0.0
N255 N 0.66984 0.24906 0.64301 0.0
N256 N 0.66615 0.24856 0.72772 0.0
C257 C 0.68726 0.24792 0.76869 0.0
C258 C 0.7051 0.24808 0.70714 0.0
C259 C 0.7044 0.24906 0.53953 0.0
H260 H 0.69518 0.23615 0.49673 0.0
H261 H 0.70207 0.26703 0.51128 0.0
H262 H 0.72363 0.24484 0.54249 0.0
O263 O 0.62393 0.22056 0.58275 0.0
O264 O 0.61635 0.22106 0.72477 0.0
H265 H 0.70949 0.2451 0.88335 0.0
H266 H 0.68358 0.26351 0.89424 0.0
C267 C 0.69053 0.24694 0.86505 0.0
H268 H 0.68054 0.23164 0.89164 0.0
H269 H 0.63164 0.20762 0.89659 0.0
O270 O 0.6509 0.25105 0.44238 0.0
C271 C 0.61401 0.21181 0.64971 0.0
Co272 Co 0.36498 0.24983 0.57257 0.0
Co273 Co 0.37493 0.25088 0.77512 0.0
C274 C 0.39549 0.21337 0.65943 0.0
O275 O 0.3846 0.2218 0.59406 0.0
O276 O 0.39352 0.2225 0.73522 0.0
C277 C 0.35623 0.22971 0.40419 0.0
O278 O 0.35683 0.2093 0.44541 0.0
C279 C 0.37183 0.23777 0.96263 0.0
C280 C 0.3753 0.27318 0.02348 0.0
C281 C 0.37151 0.24949 0.04209 0.0
N282 N 0.3754 0.25393 0.89944 0.0
N283 N 0.37773 0.27499 0.93663 0.0
C284 C 0.36776 0.2119 0.94699 0.0
H285 H 0.36341 0.20859 0.87757 0.0
H286 H 0.35324 0.20533 0.9895 0.0
H287 H 0.38413 0.20199 0.96394 0.0
C288 C 0.31519 0.24986 0.63526 0.0
N289 N 0.3388 0.25021 0.64896 0.0
N290 N 0.34294 0.25071 0.73338 0.0
C291 C 0.32197 0.25108 0.77558 0.0
C292 C 0.30385 0.25034 0.71521 0.0
C293 C 0.30389 0.24861 0.54752 0.0
H294 H 0.30846 0.23135 0.51695 0.0
H295 H 0.2843 0.25032 0.55179 0.0
H296 H 0.31118 0.26292 0.50575 0.0
O297 O 0.38544 0.27813 0.58861 0.0
O298 O 0.39202 0.27901 0.73121 0.0
H299 H 0.30034 0.25613 0.89054 0.0
H300 H 0.32459 0.23557 0.90131 0.0
C301 C 0.31904 0.25262 0.87188 0.0
H302 H 0.33032 0.26711 0.89762 0.0
H303 H 0.38029 0.29077 0.90238 0.0
O304 O 0.35686 0.24903 0.44703 0.0
C305 C 0.3949 0.28753 0.65541 0.0
Co306 Co 0.14339 0.75083 0.0734 0.0
Co307 Co 0.1346 0.74984 0.27588 0.0
C308 C 0.1133 0.78732 0.16659 0.0
O309 O 0.12229 0.7779 0.09905 0.0
O310 O 0.11685 0.77897 0.24254 0.0
C311 C 0.14884 0.7715 0.9043 0.0
O312 O 0.1432 0.79138 0.94393 0.0
C313 C 0.13745 0.76179 0.46317 0.0
C314 C 0.13449 0.7261 0.52199 0.0
C315 C 0.13753 0.74984 0.54185 0.0
N316 N 0.13465 0.74577 0.39907 0.0
N317 N 0.13273 0.7245 0.43484 0.0
C318 C 0.14044 0.78787 0.44927 0.0
H319 H 0.12328 0.79687 0.46233 0.0
H320 H 0.14586 0.79158 0.38116 0.0
H321 H 0.15379 0.79511 0.49535 0.0
C322 C 0.19347 0.75057 0.13215 0.0
N323 N 0.16996 0.75066 0.14789 0.0
N324 N 0.16633 0.75016 0.2326 0.0
C325 C 0.18753 0.74971 0.27321 0.0
C326 C 0.20529 0.75005 0.21113 0.0
C327 C 0.20427 0.75116 0.04336 0.0
H328 H 0.19557 0.73771 0.00129 0.0
H329 H 0.20102 0.76887 0.01422 0.0
H330 H 0.22367 0.74783 0.04586 0.0
O331 O 0.12454 0.72158 0.08768 0.0
O332 O 0.11648 0.72248 0.22927 0.0
H333 H 0.18077 0.73343 0.39627 0.0
H334 H 0.2099 0.74651 0.3873 0.0
C335 C 0.19093 0.7486 0.36956 0.0
H336 H 0.18421 0.76522 0.39923 0.0
H337 H 0.13064 0.7088 0.39953 0.0
O338 O 0.15163 0.75258 0.94812 0.0
C339 C 0.11423 0.71311 0.15441 0.0
Co340 Co 0.13979 0.24894 0.9251 0.0
Co341 Co 0.13536 0.24574 0.72584 0.0
C342 C 0.11221 0.20994 0.82794 0.0
O343 O 0.11964 0.22108 0.89479 0.0
O344 O 0.11719 0.21664 0.75082 0.0
C345 C 0.15781 0.23572 0.09795 0.0
O346 O 0.17327 0.22131 0.06186 0.0
C347 C 0.13676 0.24044 0.53385 0.0
C348 C 0.15838 0.27225 0.50381 0.0
C349 C 0.14795 0.25248 0.46657 0.0
N350 N 0.14101 0.25237 0.60783 0.0
N351 N 0.15351 0.27154 0.58911 0.0
C352 C 0.12255 0.21806 0.52894 0.0
H353 H 0.10615 0.22002 0.56836 0.0
H354 H 0.133 0.20331 0.55756 0.0
H355 H 0.11789 0.21361 0.46066 0.0
C356 C 0.19182 0.25132 0.87843 0.0
N357 N 0.16843 0.24893 0.86107 0.0
N358 N 0.16588 0.24411 0.77789 0.0
C359 C 0.18746 0.24144 0.74149 0.0
C360 C 0.20446 0.24641 0.80317 0.0
C361 C 0.20205 0.25957 0.96283 0.0
H362 H 0.18811 0.26748 0.00447 0.0
H363 H 0.2104 0.24432 0.99665 0.0
H364 H 0.21619 0.27288 0.95063 0.0
O365 O 0.12161 0.27784 0.90488 0.0
O366 O 0.11578 0.27344 0.76341 0.0
H367 H 0.19525 0.24901 0.60819 0.0
H368 H 0.20841 0.22228 0.64787 0.0
C369 C 0.19212 0.23336 0.6503 0.0
H370 H 0.17697 0.22286 0.62532 0.0
H371 H 0.15944 0.28374 0.63546 0.0
O372 O 0.14387 0.24773 0.05068 0.0
C373 C 0.1123 0.2846 0.83413 0.0
Co374 Co 0.3665 0.75029 0.43395 0.0
Co375 Co 0.37624 0.74905 0.23145 0.0
C376 C 0.39722 0.78649 0.34624 0.0
O377 O 0.38659 0.77804 0.41216 0.0
O378 O 0.39488 0.77742 0.27055 0.0
C379 C 0.35887 0.77057 0.6027 0.0
O380 O 0.36213 0.79084 0.56229 0.0
C381 C 0.37274 0.76221 0.0447 0.0
C382 C 0.37882 0.72728 0.98279 0.0
C383 C 0.37368 0.75075 0.96484 0.0
N384 N 0.37697 0.7461 0.10745 0.0
N385 N 0.3808 0.72533 0.06973 0.0
C386 C 0.3673 0.78779 0.06106 0.0
H387 H 0.36236 0.79066 0.13023 0.0
H388 H 0.35278 0.7938 0.01754 0.0
H389 H 0.38327 0.79857 0.04606 0.0
C390 C 0.31672 0.75024 0.372 0.0
N391 N 0.34029 0.7501 0.35757 0.0
N392 N 0.34428 0.74941 0.27303 0.0
C393 C 0.32323 0.7487 0.23138 0.0
C394 C 0.30524 0.74943 0.29244 0.0
C395 C 0.30558 0.75133 0.46012 0.0
H396 H 0.31358 0.73758 0.50266 0.0
H397 H 0.3094 0.76892 0.48948 0.0
H398 H 0.28607 0.74873 0.45657 0.0
O399 O 0.38654 0.72162 0.4181 0.0
O400 O 0.39307 0.72079 0.27543 0.0
H401 H 0.30154 0.74203 0.11772 0.0
H402 H 0.32485 0.76346 0.10382 0.0
C403 C 0.32014 0.74641 0.13518 0.0
H404 H 0.33198 0.73227 0.11009 0.0
H405 H 0.38422 0.70965 0.10355 0.0
O406 O 0.35794 0.75134 0.55934 0.0
C407 C 0.39581 0.71212 0.35106 0.0
Co408 Co 0.50318 0.11173 0.68607 0.0
Co409 Co 0.50487 0.12073 0.48379 0.0
C410 C 0.467 0.14197 0.59224 0.0
O411 O 0.47633 0.1333 0.66056 0.0
O412 O 0.47528 0.1376 0.51668 0.0
C413 C 0.48241 0.10586 0.85547 0.0
O414 O 0.46239 0.11094 0.81598 0.0
C415 C 0.49275 0.11764 0.29683 0.0
C416 C 0.52801 0.1227 0.23649 0.0
C417 C 0.50442 0.11836 0.21753 0.0
N418 N 0.50879 0.12124 0.36031 0.0
N419 N 0.52979 0.12443 0.32362 0.0
C420 C 0.46695 0.11312 0.31193 0.0
H421 H 0.45696 0.12984 0.30116 0.0
H422 H 0.46384 0.10708 0.37973 0.0
H423 H 0.46025 0.09969 0.26504 0.0
C424 C 0.50346 0.06158 0.6247 0.0
N425 N 0.50354 0.08517 0.61016 0.0
N426 N 0.50476 0.089 0.52565 0.0
C427 C 0.50568 0.06795 0.4841 0.0
C428 C 0.50472 0.05 0.54516 0.0
C429 C 0.5021 0.05049 0.71282 0.0
H430 H 0.48435 0.05414 0.74106 0.0
H431 H 0.50493 0.031 0.70949 0.0
H432 H 0.51555 0.05869 0.75617 0.0
O433 O 0.53259 0.13046 0.67374 0.0
O434 O 0.53201 0.13888 0.53244 0.0
H435 H 0.51168 0.04609 0.37003 0.0
H436 H 0.49123 0.07026 0.35614 0.0
C437 C 0.50801 0.06483 0.38784 0.0
H438 H 0.52263 0.07612 0.36321 0.0
H439 H 0.54544 0.12735 0.35826 0.0
O440 O 0.50133 0.10329 0.81132 0.0
C441 C 0.54135 0.14073 0.60753 0.0
Co442 Co 0.00476 0.88703 0.18041 0.0
Co443 Co 0.00394 0.87735 0.97833 0.0
C444 C 0.04167 0.85699 0.08899 0.0
O445 O 0.03194 0.86593 0.15607 0.0
O446 O 0.03339 0.86026 0.01274 0.0
C447 C 0.02526 0.89331 0.34968 0.0
O448 O 0.04536 0.88865 0.30992 0.0
C449 C 0.01598 0.88067 0.79114 0.0
C450 C 0.98073 0.87506 0.73143 0.0
C451 C 0.00421 0.87983 0.71206 0.0
N452 N 9e-05 0.87674 0.85487 0.0
N453 N 0.97911 0.87322 0.81855 0.0
C454 C 0.04172 0.88567 0.80579 0.0
H455 H 0.04492 0.89101 0.87437 0.0
H456 H 0.04789 0.8998 0.7608 0.0
H457 H 0.05209 0.86937 0.79166 0.0
C458 C 0.00457 0.93688 0.11909 0.0
N459 N 0.00459 0.9133 0.10453 0.0
N460 N 0.0037 0.90933 0.02003 0.0
C461 C 0.00283 0.93038 0.97846 0.0
C462 C 0.00353 0.94838 0.0396 0.0
C463 C 0.00571 0.94801 0.20726 0.0
H464 H 0.02333 0.94422 0.23632 0.0
H465 H 0.00306 0.96752 0.20386 0.0
H466 H 0.99203 0.93995 0.24999 0.0
O467 O 0.97547 0.86821 0.16648 0.0
O468 O 0.9769 0.85894 0.02599 0.0
H469 H 0.99663 0.95215 0.86466 0.0
H470 H 0.01762 0.9284 0.85093 0.0
C471 C 0.00066 0.93348 0.88223 0.0
H472 H 0.98633 0.92189 0.85713 0.0
H473 H 0.96354 0.87003 0.85344 0.0
O474 O 0.00627 0.89552 0.30572 0.0
C475 C 0.96735 0.85716 0.10072 0.0
Co476 Co 0.50413 0.88907 0.3123 0.0
Co477 Co 0.50631 0.87992 0.51461 0.0
C478 C 0.46822 0.85878 0.40609 0.0
O479 O 0.47712 0.86785 0.33774 0.0
O480 O 0.47698 0.86259 0.48132 0.0
C481 C 0.48363 0.89457 0.14267 0.0
O482 O 0.46368 0.88894 0.18171 0.0
C483 C 0.49427 0.88274 0.70173 0.0
C484 C 0.52972 0.87857 0.76141 0.0
C485 C 0.50606 0.88236 0.78076 0.0
N486 N 0.51032 0.8795 0.63797 0.0
N487 N 0.53143 0.87684 0.67426 0.0
C488 C 0.46835 0.88664 0.68714 0.0
H489 H 0.45878 0.86972 0.69869 0.0
H490 H 0.465 0.89246 0.61925 0.0
H491 H 0.46142 0.90001 0.73382 0.0
C492 C 0.5044 0.93914 0.37381 0.0
N493 N 0.50469 0.91555 0.38825 0.0
N494 N 0.50596 0.91168 0.47271 0.0
C495 C 0.50666 0.93273 0.51436 0.0
C496 C 0.50555 0.9507 0.45339 0.0
C497 C 0.5028 0.95024 0.28575 0.0
H498 H 0.51642 0.94234 0.24231 0.0
H499 H 0.48513 0.94621 0.25751 0.0
H500 H 0.50521 0.96978 0.28916 0.0
O501 O 0.53321 0.86985 0.32459 0.0
O502 O 0.53349 0.8619 0.46628 0.0
H503 H 0.52359 0.92491 0.63549 0.0
H504 H 0.51182 0.95464 0.62885 0.0
C505 C 0.50871 0.93583 0.61068 0.0
H506 H 0.49203 0.92989 0.64188 0.0
H507 H 0.54711 0.87429 0.63932 0.0
O508 O 0.50241 0.89756 0.18719 0.0
C509 C 0.54228 0.85968 0.39049 0.0
Co510 Co 0.00405 0.11055 0.82186 0.0
Co511 Co 0.00495 0.11895 0.0248 0.0
C512 C 0.04194 0.13967 0.91258 0.0
O513 O 0.03158 0.13116 0.84604 0.0
O514 O 0.03432 0.13604 0.98959 0.0
C515 C 0.02481 0.10233 0.65409 0.0
O516 O 0.04507 0.1035 0.69607 0.0
C517 C 0.0172 0.11615 0.21265 0.0
C518 C 0.98132 0.11681 0.27102 0.0
C519 C 0.00514 0.11491 0.29115 0.0
N520 N 0.00114 0.11851 0.14844 0.0
N521 N 0.97977 0.11911 0.18406 0.0
C522 C 0.04337 0.1142 0.19894 0.0
H523 H 0.04736 0.10906 0.13074 0.0
H524 H 0.05108 0.10105 0.24472 0.0
H525 H 0.05167 0.13168 0.21251 0.0
C526 C 0.00323 0.06024 0.87964 0.0
N527 N 0.00388 0.08376 0.89553 0.0
N528 N 0.00439 0.0873 0.98031 0.0
C529 C 0.00423 0.06606 0.02062 0.0
C530 C 0.00355 0.04836 0.95843 0.0
C531 C 0.00272 0.04941 0.791 0.0
H532 H 0.99069 0.05971 0.74816 0.0
H533 H 0.02087 0.05015 0.76315 0.0
H534 H 0.99692 0.03058 0.79366 0.0
O535 O 0.97527 0.1298 0.83927 0.0
O536 O 0.97777 0.13789 0.98059 0.0
H537 H 0.98935 0.07184 0.14653 0.0
H538 H 0.00391 0.04349 0.13472 0.0
C539 C 0.0047 0.06256 0.11687 0.0
H540 H 0.02129 0.07023 0.14326 0.0
H541 H 0.96403 0.12052 0.14864 0.0
O542 O 0.00536 0.10294 0.69599 0.0
C543 C 0.96772 0.14034 0.90703 0.0
C544 C 0.00626 0.58759 0.59984 0.0
C545 C 0.99745 0.60876 0.63836 0.0
C546 C 0.97558 0.61783 0.50427 0.0
C547 C 0.98728 0.59862 0.46179 0.0
N548 N 0.01313 0.56464 0.46846 0.0
N549 N 0.97483 0.6449 0.62738 0.0
C550 C 0.00232 0.58324 0.50973 0.0
C551 C 0.98207 0.62392 0.59111 0.0
N552 N 0.01802 0.57142 0.65014 0.0
N553 N 0.95844 0.63046 0.46167 0.0
H554 H 0.9789 0.64982 0.69108 0.0
H555 H 0.96619 0.65824 0.59289 0.0
H556 H 0.95368 0.62737 0.3973 0.0
H557 H 0.94747 0.64281 0.49206 0.0
H558 H 0.02281 0.55452 0.62903 0.0
H559 H 0.02139 0.57417 0.71596 0.0
H560 H 0.02678 0.55465 0.49558 0.0
H561 H 0.00892 0.55965 0.40499 0.0
C562 C 0.62043 0.73176 0.82339 0.0
C563 C 0.64022 0.74007 0.87126 0.0
C564 C 0.66581 0.73479 0.74346 0.0
C565 C 0.64542 0.72984 0.69278 0.0
N566 N 0.60284 0.72558 0.68141 0.0
N567 N 0.68174 0.75021 0.87882 0.0
C568 C 0.6226 0.72849 0.73204 0.0
C569 C 0.66299 0.74159 0.83203 0.0
N570 N 0.59953 0.72713 0.86531 0.0
N571 N 0.68783 0.73253 0.70706 0.0
H572 H 0.68055 0.75434 0.94481 0.0
H573 H 0.69811 0.75446 0.85161 0.0
H574 H 0.69033 0.72738 0.64249 0.0
H575 H 0.70357 0.7337 0.7422 0.0
H576 H 0.5852 0.71864 0.83595 0.0
H577 H 0.59716 0.72994 0.93186 0.0
H578 H 0.58559 0.72734 0.70481 0.0
H579 H 0.60351 0.72317 0.61418 0.0
C580 C 0.51308 0.41002 0.09274 0.0
C581 C 0.51527 0.38699 0.12917 0.0
C582 C 0.52969 0.37154 0.98949 0.0
C583 C 0.52456 0.39389 0.95068 0.0
N584 N 0.51174 0.4345 0.96296 0.0
N585 N 0.52533 0.34564 0.115 0.0
C586 C 0.51656 0.41323 0.00189 0.0
C587 C 0.5239 0.36776 0.07867 0.0
N588 N 0.50797 0.42885 0.14567 0.0
N589 N 0.53971 0.35384 0.9407 0.0
H590 H 0.52201 0.34244 0.18074 0.0
H591 H 0.52866 0.33019 0.07993 0.0
H592 H 0.54284 0.35529 0.87408 0.0
H593 H 0.54631 0.33812 0.96667 0.0
H594 H 0.50836 0.44649 0.12572 0.0
H595 H 0.5051 0.42696 0.21217 0.0
H596 H 0.50297 0.44848 0.99348 0.0
H597 H 0.51578 0.43792 0.898 0.0
C598 C 0.84618 0.25467 0.34932 0.0
C599 C 0.86914 0.25443 0.38729 0.0
C600 C 0.88705 0.26364 0.24687 0.0
C601 C 0.86404 0.26547 0.20966 0.0
N602 N 0.82159 0.2666 0.22714 0.0
N603 N 0.91078 0.26383 0.37811 0.0
C604 C 0.84352 0.26219 0.26152 0.0
C605 C 0.88935 0.26071 0.33795 0.0
N606 N 0.82709 0.24689 0.39615 0.0
N607 N 0.90667 0.26294 0.19465 0.0
H608 H 0.91316 0.26155 0.44492 0.0
H609 H 0.92558 0.27083 0.34666 0.0
H610 H 0.90568 0.2634 0.12708 0.0
H611 H 0.92366 0.25922 0.21756 0.0
H612 H 0.81034 0.24416 0.36941 0.0
H613 H 0.82839 0.2416 0.4609 0.0
H614 H 0.80607 0.26683 0.26389 0.0
H615 H 0.81914 0.27196 0.16278 0.0
C616 C 0.98176 0.3744 0.39299 0.0
C617 C 0.99721 0.38964 0.34635 0.0
C618 C 0.00145 0.41525 0.47504 0.0
C619 C 0.98633 0.3998 0.5224 0.0
N620 N 0.95788 0.36762 0.52173 0.0
N621 N 0.01777 0.427 0.33536 0.0
C622 C 0.97497 0.38044 0.4796 0.0
C623 C 0.00581 0.41085 0.38517 0.0
N624 N 0.97472 0.35341 0.35633 0.0
N625 N 0.01195 0.43396 0.51667 0.0
H626 H 0.02149 0.42419 0.2698 0.0
H627 H 0.02242 0.44392 0.35653 0.0
H628 H 0.00744 0.43897 0.57986 0.0
H629 H 0.02562 0.44405 0.49016 0.0
H630 H 0.96604 0.34001 0.39038 0.0
H631 H 0.97896 0.34855 0.2927 0.0
H632 H 0.9471 0.35517 0.49107 0.0
H633 H 0.95297 0.37061 0.58602 0.0
C634 C 0.8455 0.73931 0.65093 0.0
C635 C 0.86857 0.74225 0.61524 0.0
C636 C 0.88628 0.73645 0.75836 0.0
C637 C 0.86339 0.73196 0.79326 0.0
N638 N 0.82162 0.72518 0.77192 0.0
N639 N 0.91096 0.7384 0.62958 0.0
C640 C 0.84309 0.7321 0.73914 0.0
C641 C 0.88899 0.73904 0.66729 0.0
N642 N 0.82597 0.7444 0.60177 0.0
N643 N 0.90523 0.7397 0.81259 0.0
H644 H 0.91356 0.74033 0.56271 0.0
H645 H 0.9263 0.7337 0.66325 0.0
H646 H 0.90375 0.73915 0.88008 0.0
H647 H 0.92182 0.7454 0.79128 0.0
H648 H 0.8088 0.7451 0.62667 0.0
H649 H 0.82714 0.74966 0.53701 0.0
H650 H 0.8066 0.7226 0.73365 0.0
H651 H 0.81931 0.72019 0.83676 0.0
C652 C 0.52623 0.63017 0.92494 0.0
C653 C 0.51541 0.61195 0.87538 0.0
C654 C 0.5163 0.58542 0.00204 0.0
C655 C 0.52383 0.60471 0.05428 0.0
N656 N 0.53407 0.64622 0.0684 0.0
N657 N 0.49937 0.57235 0.86516 0.0
C658 C 0.52867 0.62723 0.01641 0.0
C659 C 0.51043 0.5895 0.91331 0.0
N660 N 0.53394 0.65037 0.8846 0.0
N661 N 0.5152 0.56315 0.03714 0.0
H662 H 0.49582 0.57431 0.79906 0.0
H663 H 0.49259 0.55672 0.89135 0.0
H664 H 0.51953 0.5597 0.10189 0.0
H665 H 0.51206 0.54786 0.00086 0.0
H666 H 0.54425 0.66324 0.91526 0.0
H667 H 0.53176 0.65335 0.81811 0.0
H668 H 0.535 0.66362 0.0459 0.0
H669 H 0.53586 0.64503 0.13577 0.0
C670 C 0.66864 0.26054 0.25385 0.0
C671 C 0.6494 0.26943 0.30364 0.0
C672 C 0.62357 0.26837 0.17483 0.0
C673 C 0.64266 0.25884 0.12589 0.0
N674 N 0.68435 0.25035 0.11155 0.0
N675 N 0.60982 0.28585 0.31023 0.0
C676 C 0.66554 0.25636 0.16329 0.0
C677 C 0.62732 0.27485 0.26341 0.0
N678 N 0.68974 0.25564 0.2939 0.0
N679 N 0.60155 0.26998 0.1378 0.0
H680 H 0.61118 0.28957 0.37645 0.0
H681 H 0.59442 0.29274 0.28273 0.0
H682 H 0.59834 0.26606 0.0725 0.0
H683 H 0.58614 0.27395 0.17213 0.0
H684 H 0.70355 0.24626 0.26493 0.0
H685 H 0.69317 0.26037 0.35824 0.0
H686 H 0.70194 0.25045 0.13206 0.0
H687 H 0.68256 0.24692 0.04531 0.0
C688 C 0.38079 0.22429 0.26927 0.0
C689 C 0.35873 0.23057 0.30824 0.0
C690 C 0.34348 0.24354 0.16664 0.0
C691 C 0.36633 0.23993 0.13001 0.0
N692 N 0.40691 0.22719 0.14362 0.0
N693 N 0.31896 0.24579 0.29633 0.0
C694 C 0.38493 0.22997 0.18018 0.0
C695 C 0.33996 0.23989 0.25728 0.0
N696 N 0.39793 0.21333 0.31788 0.0
N697 N 0.32509 0.25018 0.11409 0.0
H698 H 0.31519 0.24166 0.36097 0.0
H699 H 0.30556 0.25549 0.26631 0.0
H700 H 0.32725 0.25339 0.04794 0.0
H701 H 0.30744 0.25086 0.13384 0.0
H702 H 0.41324 0.20584 0.29181 0.0
H703 H 0.39644 0.21043 0.3846 0.0
H704 H 0.42212 0.22277 0.17834 0.0
H705 H 0.41031 0.23041 0.07796 0.0
C706 C 0.12115 0.76678 0.67945 0.0
C707 C 0.14114 0.7595 0.63041 0.0
C708 C 0.16689 0.76572 0.75708 0.0
C709 C 0.14647 0.76969 0.8088 0.0
N710 N 0.1038 0.77195 0.82245 0.0
N711 N 0.18302 0.75111 0.6208 0.0
C712 C 0.12349 0.77001 0.77074 0.0
C713 C 0.16408 0.7589 0.66854 0.0
N714 N 0.09992 0.77055 0.63864 0.0
N715 N 0.18892 0.76887 0.79251 0.0
H716 H 0.18176 0.74688 0.55493 0.0
H717 H 0.19965 0.74756 0.64717 0.0
H718 H 0.19141 0.77396 0.85715 0.0
H719 H 0.20457 0.76848 0.75656 0.0
H720 H 0.08531 0.77828 0.66897 0.0
H721 H 0.09749 0.76784 0.57207 0.0
H722 H 0.08657 0.76941 0.79992 0.0
H723 H 0.10461 0.77435 0.88967 0.0
C724 C 0.15863 0.22482 0.34315 0.0
C725 C 0.14925 0.24676 0.37291 0.0
C726 C 0.15139 0.26236 0.22578 0.0
C727 C 0.15671 0.23932 0.1934 0.0
N728 N 0.15953 0.19711 0.22345 0.0
N729 N 0.13055 0.28411 0.33698 0.0
C730 C 0.15872 0.22001 0.2525 0.0
C731 C 0.14365 0.26481 0.31246 0.0
N732 N 0.16844 0.20903 0.40008 0.0
N733 N 0.15475 0.28211 0.17569 0.0
H734 H 0.12336 0.28595 0.39921 0.0
H735 H 0.12455 0.29674 0.29257 0.0
H736 H 0.1625 0.28153 0.11418 0.0
H737 H 0.15272 0.29928 0.19998 0.0
H738 H 0.17733 0.19378 0.37963 0.0
H739 H 0.16999 0.21242 0.46649 0.0
H740 H 0.15894 0.18261 0.26553 0.0
H741 H 0.15801 0.19245 0.1581 0.0
C742 C 0.34202 0.76211 0.75017 0.0
C743 C 0.36152 0.76931 0.69838 0.0
C744 C 0.38694 0.77072 0.82801 0.0
C745 C 0.36843 0.76023 0.87702 0.0
N746 N 0.32846 0.74514 0.88633 0.0
N747 N 0.40329 0.77845 0.685 0.0
C748 C 0.3459 0.7559 0.83872 0.0
C749 C 0.38413 0.77345 0.73661 0.0
N750 N 0.31977 0.76166 0.71484 0.0
N751 N 0.40728 0.77785 0.86881 0.0
H752 H 0.40219 0.78041 0.61768 0.0
H753 H 0.42068 0.77884 0.70772 0.0
H754 H 0.41016 0.77546 0.93527 0.0
H755 H 0.42041 0.78792 0.83861 0.0
H756 H 0.30439 0.75879 0.75086 0.0
H757 H 0.31646 0.76627 0.65024 0.0
H758 H 0.31269 0.73883 0.85977 0.0
H759 H 0.3303 0.74136 0.95232 0.0
C760 C 0.49071 0.08814 0.00163 0.0
C761 C 0.48425 0.10815 0.95119 0.0
C762 C 0.48502 0.13324 0.0819 0.0
C763 C 0.49476 0.11403 0.12932 0.0
N764 N 0.50772 0.07328 0.13595 0.0
N765 N 0.47756 0.15046 0.94026 0.0
C766 C 0.49767 0.09141 0.08981 0.0
C767 C 0.48165 0.13086 0.99064 0.0
N768 N 0.48972 0.06598 0.96542 0.0
N769 N 0.47917 0.15381 0.12405 0.0
H770 H 0.47525 0.14973 0.87302 0.0
H771 H 0.47834 0.16778 0.96385 0.0
H772 H 0.48208 0.1564 0.19041 0.0
H773 H 0.46961 0.16751 0.09512 0.0
H774 H 0.49201 0.05036 0.00055 0.0
H775 H 0.48447 0.06311 0.90117 0.0
H776 H 0.51298 0.05724 0.1083 0.0
H777 H 0.51202 0.07472 0.20169 0.0
C778 C 0.02346 0.86548 0.57525 0.0
C779 C 0.01362 0.88447 0.62371 0.0
C780 C 0.01691 0.91063 0.49662 0.0
C781 C 0.02351 0.8908 0.44532 0.0
N782 N 0.03064 0.84859 0.43272 0.0
N783 N 1e-05 0.925 0.63196 0.0
C784 C 0.0265 0.86805 0.48392 0.0
C785 C 0.01025 0.9071 0.58496 0.0
N786 N 0.02973 0.84492 0.61651 0.0
N787 N 0.01748 0.93286 0.46107 0.0
H788 H 0.99588 0.92337 0.69777 0.0
H789 H 0.99441 0.94099 0.60494 0.0
H790 H 0.02246 0.93593 0.39666 0.0
H791 H 0.01508 0.94839 0.49682 0.0
H792 H 0.03936 0.83139 0.58667 0.0
H793 H 0.0271 0.8422 0.68295 0.0
H794 H 0.03015 0.83123 0.45582 0.0
H795 H 0.03267 0.84947 0.36538 0.0
C796 C 0.48416 0.86929 0.00836 0.0
C797 C 0.48571 0.89217 0.04712 0.0
C798 C 0.49833 0.90922 0.90802 0.0
C799 C 0.49638 0.88642 0.8691 0.0
N800 N 0.48261 0.84599 0.87559 0.0
N801 N 0.48935 0.93451 0.03188 0.0
C802 C 0.48757 0.86689 0.91715 0.0
C803 C 0.49127 0.91236 0.99617 0.0
N804 N 0.481 0.84963 0.05935 0.0
N805 N 0.5076 0.92768 0.86139 0.0
H806 H 0.48408 0.93728 0.0962 0.0
H807 H 0.49092 0.95015 0.99633 0.0
H808 H 0.51204 0.92626 0.79575 0.0
H809 H 0.51215 0.94398 0.88858 0.0
H810 H 0.48259 0.83232 0.03624 0.0
H811 H 0.47867 0.85041 0.12659 0.0
H812 H 0.47374 0.83192 0.90508 0.0
H813 H 0.48552 0.84343 0.8092 0.0
C814 C 0.02259 0.13043 0.42995 0.0
C815 C 0.01476 0.11085 0.37961 0.0
C816 C 0.01698 0.08478 0.5071 0.0
C817 C 0.02421 0.10446 0.55813 0.0
N818 N 0.03807 0.14496 0.56749 0.0
N819 N 0.00919 0.06871 0.36335 0.0
C820 C 0.02855 0.12692 0.51906 0.0
C821 C 0.01346 0.08777 0.41618 0.0
N822 N 0.02314 0.15258 0.39351 0.0
N823 N 0.01296 0.06337 0.54626 0.0
H824 H 0.00638 0.07042 0.29672 0.0
H825 H 0.01024 0.05112 0.38355 0.0
H826 H 0.01709 0.06019 0.61128 0.0
H827 H 0.00477 0.04904 0.51584 0.0
H828 H 0.02581 0.16815 0.4286 0.0
H829 H 0.0197 0.15562 0.32776 0.0
H830 H 0.04409 0.16087 0.54123 0.0
H831 H 0.04147 0.14357 0.63395 0.0
C832 C 0.03271 0.51132 0.00623 0.0
C833 C 0.01084 0.52261 0.0258 0.0
C834 C 0.98886 0.48769 0.97504 0.0
C835 C 0.01073 0.47593 0.95976 0.0
N836 N 0.05342 0.47503 0.96697 0.0
N837 N 0.96827 0.52129 0.03926 0.0
C838 C 0.03267 0.48736 0.97688 0.0
C839 C 0.98894 0.51069 0.01324 0.0
N840 N 0.05345 0.52378 0.0138 0.0
N841 N 0.96804 0.47695 0.95157 0.0
H842 H 0.9676 0.53834 0.06569 0.0
H843 H 0.95192 0.51273 0.04078 0.0
H844 H 0.96726 0.45989 0.92529 0.0
H845 H 0.95162 0.48539 0.95205 0.0
H846 H 0.06975 0.51774 0.99088 0.0
H847 H 0.05423 0.54091 0.03951 0.0
H848 H 0.06985 0.48117 0.98803 0.0
H849 H 0.0541 0.45789 0.94124 0.0
C850 C 0.76619 0.77193 0.23371 0.0
C851 C 0.77785 0.74998 0.21881 0.0
C852 C 0.74223 0.72818 0.2634 0.0
C853 C 0.73012 0.75009 0.27298 0.0
N854 N 0.72915 0.79272 0.26021 0.0
N855 N 0.77697 0.70729 0.2095 0.0
C856 C 0.74173 0.77197 0.25636 0.0
C857 C 0.76585 0.7281 0.23081 0.0
N858 N 0.7787 0.79268 0.22816 0.0
N859 N 0.7312 0.70752 0.28691 0.0
H860 H 0.79443 0.70656 0.18716 0.0
H861 H 0.76852 0.69087 0.20784 0.0
H862 H 0.71375 0.70692 0.30946 0.0
H863 H 0.73971 0.69116 0.29028 0.0
H864 H 0.77216 0.80905 0.24841 0.0
H865 H 0.79633 0.79342 0.20751 0.0
H866 H 0.73564 0.80897 0.23861 0.0
H867 H 0.71154 0.79355 0.28095 0.0
C868 C 0.48176 0.51113 0.48945 0.0
C869 C 0.50363 0.52323 0.47878 0.0
C870 C 0.52553 0.48786 0.52518 0.0
C871 C 0.50377 0.4753 0.53032 0.0
N872 N 0.4614 0.47358 0.50975 0.0
N873 N 0.54637 0.52308 0.47575 0.0
C874 C 0.48192 0.48656 0.51043 0.0
C875 C 0.52556 0.51158 0.49367 0.0
N876 N 0.46088 0.52334 0.48175 0.0
N877 N 0.54608 0.47716 0.55173 0.0
H878 H 0.54703 0.54059 0.45379 0.0
H879 H 0.56292 0.5149 0.4763 0.0
H880 H 0.54677 0.45962 0.5733 0.0
H881 H 0.56217 0.48602 0.55854 0.0
H882 H 0.44442 0.51638 0.49875 0.0
H883 H 0.46007 0.54112 0.463 0.0
H884 H 0.44534 0.47989 0.48565 0.0
H885 H 0.46064 0.45584 0.52902 0.0
C886 C 0.76713 0.26896 0.76479 0.0
C887 C 0.7785 0.24692 0.78058 0.0
C888 C 0.74192 0.22549 0.74499 0.0
C889 C 0.73092 0.24747 0.72485 0.0
N890 N 0.73314 0.28981 0.70483 0.0
N891 N 0.77826 0.20415 0.7778 0.0
C892 C 0.74358 0.26914 0.73155 0.0
C893 C 0.76631 0.22514 0.7686 0.0
N894 N 0.77875 0.28969 0.7832 0.0
N895 N 0.72884 0.20504 0.74343 0.0
H896 H 0.79581 0.2032 0.79915 0.0
H897 H 0.77135 0.18773 0.75991 0.0
H898 H 0.7113 0.20442 0.72182 0.0
H899 H 0.73483 0.18886 0.7676 0.0
H900 H 0.77075 0.30633 0.7821 0.0
H901 H 0.79619 0.29023 0.80583 0.0
H902 H 0.74208 0.30589 0.69924 0.0
H903 H 0.71573 0.29064 0.68193 0.0
C904 C 0.23963 0.26911 0.74875 0.0
C905 C 0.23028 0.2482 0.78715 0.0
C906 C 0.26834 0.22795 0.76779 0.0
C907 C 0.27812 0.24931 0.73454 0.0
N908 N 0.27458 0.29115 0.70449 0.0
N909 N 0.23597 0.20891 0.84514 0.0
C910 C 0.26417 0.27017 0.72787 0.0
C911 C 0.24476 0.22797 0.80048 0.0
N912 N 0.22491 0.28777 0.73069 0.0
N913 N 0.28142 0.2075 0.76547 0.0
H914 H 0.2186 0.20822 0.86857 0.0
H915 H 0.24629 0.1946 0.8651 0.0
H916 H 0.29873 0.20682 0.7415 0.0
H917 H 0.27459 0.19083 0.78041 0.0
H918 H 0.2299 0.30227 0.69294 0.0
H919 H 0.20711 0.28821 0.74938 0.0
H920 H 0.26606 0.30752 0.70817 0.0
H921 H 0.29241 0.2925 0.68684 0.0
C922 C 0.24258 0.72782 0.24582 0.0
C923 C 0.23118 0.74971 0.22752 0.0
C924 C 0.2677 0.77147 0.26104 0.0
C925 C 0.27943 0.74951 0.27464 0.0
N926 N 0.27951 0.70674 0.27108 0.0
N927 N 0.23286 0.79208 0.20696 0.0
C928 C 0.26726 0.72764 0.26468 0.0
C929 C 0.24376 0.77148 0.23192 0.0
N930 N 0.22963 0.70728 0.24694 0.0
N931 N 0.27936 0.79227 0.2779 0.0
H932 H 0.21514 0.79284 0.18757 0.0
H933 H 0.24167 0.80818 0.19947 0.0
H934 H 0.29705 0.79292 0.29773 0.0
H935 H 0.2712 0.80884 0.27839 0.0
H936 H 0.23608 0.69116 0.27004 0.0
H937 H 0.21178 0.70653 0.22907 0.0
H938 H 0.27245 0.69028 0.25448 0.0
H939 H 0.2974 0.70591 0.28826 0.0
C940 C 0.48327 0.01206 0.51466 0.0
C941 C 0.50505 0.0242 0.52684 0.0
C942 C 0.52728 0.98823 0.48891 0.0
C943 C 0.50549 0.9765 0.47187 0.0
N944 N 0.46291 0.9773 0.45826 0.0
N945 N 0.54774 0.0253 0.51826 0.0
C946 C 0.4835 0.98845 0.48175 0.0
C947 C 0.52708 0.01267 0.5121 0.0
N948 N 0.4624 0.02303 0.53613 0.0
N949 N 0.54811 0.97579 0.48481 0.0
H950 H 0.54836 0.0429 0.53938 0.0
H951 H 0.56417 0.01889 0.49817 0.0
H952 H 0.54906 0.95822 0.46357 0.0
H953 H 0.56431 0.98235 0.50667 0.0
H954 H 0.44604 0.01449 0.53759 0.0
H955 H 0.46157 0.04047 0.55885 0.0
H956 H 0.4465 0.98571 0.45498 0.0
H957 H 0.46239 0.95983 0.43579 0.0
C958 C 0.98155 0.98638 0.01431 0.0
C959 C 0.00348 0.9742 0.02188 0.0
C960 C 0.02509 0.00985 0.97652 0.0
C961 C 0.00331 0.02245 0.97461 0.0
N962 N 0.9611 0.02406 0.99938 0.0
N963 N 0.04622 0.97428 0.02065 0.0
C964 C 0.98159 0.01108 0.99558 0.0
C965 C 0.02531 0.98592 0.00584 0.0
N966 N 0.96072 0.97414 0.02283 0.0
N967 N 0.04547 0.02071 0.94905 0.0
H968 H 0.04702 0.95661 0.04076 0.0
H969 H 0.06278 0.98245 0.01927 0.0
H970 H 0.04606 0.03841 0.92931 0.0
H971 H 0.06149 0.01188 0.93979 0.0
H972 H 0.94415 0.98123 0.00804 0.0
H973 H 0.96001 0.95622 0.03985 0.0
H974 H 0.9452 0.01761 0.02443 0.0
H975 H 0.96023 0.04193 0.98187 0.0
C976 C 0.07457 0.69946 0.10263 0.0
C977 C 0.09656 0.69399 0.14297 0.0
C978 C 0.0838 0.6527 0.16354 0.0
C979 C 0.0613 0.65869 0.12854 0.0
N980 N 0.03332 0.68873 0.08371 0.0
N981 N 0.12144 0.66658 0.22158 0.0
C982 C 0.05615 0.68233 0.10311 0.0
C983 C 0.10095 0.67094 0.17674 0.0
N984 N 0.0712 0.72102 0.06356 0.0
N985 N 0.08905 0.62948 0.18091 0.0
H986 H 0.13488 0.67917 0.22854 0.0
H987 H 0.12456 0.65101 0.2562 0.0
H988 H 0.07683 0.61577 0.17246 0.0
H989 H 0.10592 0.62354 0.19776 0.0
H990 H 0.05669 0.72484 0.02401 0.0
H991 H 0.08366 0.73467 0.0649 0.0
H992 H 0.02797 0.70624 0.07439 0.0
H993 H 0.0191 0.67689 0.08554 0.0
C994 C 0.58496 0.84689 0.39526 0.0
C995 C 0.56088 0.84165 0.37661 0.0
C996 C 0.57105 0.80019 0.34732 0.0
C997 C 0.59541 0.80583 0.3581 0.0
N998 N 0.62621 0.83471 0.38263 0.0
N999 N 0.53113 0.81446 0.32274 0.0
C1000 C 0.60259 0.82924 0.37969 0.0
C1001 C 0.55399 0.81866 0.34854 0.0
N1002 N 0.59087 0.86858 0.42884 0.0
N1003 N 0.56409 0.77698 0.34082 0.0
H1004 H 0.51775 0.82723 0.32559 0.0
H1005 H 0.52578 0.79885 0.29211 0.0
H1006 H 0.57599 0.76282 0.34283 0.0
H1007 H 0.54643 0.77155 0.34233 0.0
H1008 H 0.60766 0.8727 0.45262 0.0
H1009 H 0.57846 0.88211 0.43796 0.0
H1010 H 0.63267 0.85193 0.38927 0.0
H1011 H 0.6395 0.82213 0.37209 0.0
C1012 C 0.45454 0.31632 0.61533 0.0
C1013 C 0.44821 0.34068 0.61308 0.0
C1014 C 0.40629 0.33024 0.633 0.0
C1015 C 0.41301 0.30613 0.64284 0.0
N1016 N 0.44373 0.27654 0.65912 0.0
N1017 N 0.41887 0.37152 0.62752 0.0
C1018 C 0.43721 0.29926 0.63864 0.0
C1019 C 0.42427 0.34788 0.62424 0.0
N1020 N 0.47704 0.30939 0.59338 0.0
N1021 N 0.38277 0.33615 0.63102 0.0
H1022 H 0.43154 0.38478 0.61815 0.0
H1023 H 0.40221 0.37806 0.64442 0.0
H1024 H 0.36928 0.3237 0.64014 0.0
H1025 H 0.37653 0.35299 0.61523 0.0
H1026 H 0.48195 0.29174 0.58419 0.0
H1027 H 0.49045 0.32128 0.57666 0.0
H1028 H 0.4613 0.27121 0.6669 0.0
H1029 H 0.43161 0.26335 0.67603 0.0
C1030 C 0.92614 0.15479 0.93394 0.0
C1031 C 0.94902 0.15854 0.89777 0.0
C1032 C 0.93789 0.19898 0.85624 0.0
C1033 C 0.91429 0.19435 0.88334 0.0
N1034 N 0.88494 0.16748 0.94063 0.0
N1035 N 0.97611 0.18307 0.81505 0.0
C1036 C 0.90812 0.17219 0.92087 0.0
C1037 C 0.9547 0.18027 0.85583 0.0
N1038 N 0.92168 0.13465 0.98074 0.0
N1039 N 0.94455 0.22161 0.83482 0.0
H1040 H 0.98954 0.17037 0.81623 0.0
H1041 H 0.97999 0.19735 0.77442 0.0
H1042 H 0.93293 0.23602 0.83648 0.0
H1043 H 0.96209 0.22663 0.82398 0.0
H1044 H 0.90627 0.13201 0.01684 0.0
H1045 H 0.93409 0.12104 0.98786 0.0
H1046 H 0.87881 0.15083 0.9594 0.0
H1047 H 0.87141 0.17992 0.9325 0.0
C1048 C 0.07138 0.29785 0.87155 0.0
C1049 C 0.09409 0.30341 0.83715 0.0
C1050 C 0.08233 0.34505 0.81928 0.0
C1051 C 0.05941 0.33921 0.85088 0.0
N1052 N 0.03022 0.30947 0.88702 0.0
N1053 N 0.12041 0.33089 0.76571 0.0
C1054 C 0.05339 0.31542 0.87124 0.0
C1055 C 0.0993 0.3266 0.80668 0.0
N1056 N 0.06708 0.27585 0.90588 0.0
N1057 N 0.0881 0.36828 0.80473 0.0
H1058 H 0.13347 0.31792 0.75814 0.0
H1059 H 0.12438 0.34674 0.73416 0.0
H1060 H 0.07595 0.38211 0.81223 0.0
H1061 H 0.10521 0.37408 0.79063 0.0
H1062 H 0.05191 0.2717 0.94149 0.0
H1063 H 0.07937 0.26202 0.90422 0.0
H1064 H 0.02428 0.29204 0.89276 0.0
H1065 H 0.0164 0.3218 0.88611 0.0
C1066 C 0.953 0.81846 0.16007 0.0
C1067 C 0.94813 0.83959 0.11301 0.0
C1068 C 0.90761 0.82557 0.08392 0.0
C1069 C 0.91332 0.80371 0.12455 0.0
N1070 N 0.94314 0.77712 0.18142 0.0
N1071 N 0.92188 0.86259 0.02214 0.0
C1072 C 0.93647 0.79955 0.15731 0.0
C1073 C 0.92576 0.8429 0.07211 0.0
N1074 N 0.97339 0.8163 0.20772 0.0
N1075 N 0.8847 0.8301 0.05991 0.0
H1076 H 0.93419 0.87634 0.01657 0.0
H1077 H 0.90706 0.86473 0.9825 0.0
H1078 H 0.87105 0.81776 0.06752 0.0
H1079 H 0.87882 0.8466 0.03841 0.0
H1080 H 0.97634 0.80247 0.25135 0.0
H1081 H 0.98662 0.82917 0.20975 0.0
H1082 H 0.96056 0.77251 0.19648 0.0
H1083 H 0.93189 0.76246 0.17729 0.0
C1084 C 0.45481 0.68266 0.39551 0.0
C1085 C 0.44852 0.65827 0.39207 0.0
C1086 C 0.40687 0.66909 0.36742 0.0
C1087 C 0.4137 0.69328 0.36304 0.0
N1088 N 0.44469 0.72278 0.35409 0.0
N1089 N 0.41935 0.62775 0.36705 0.0
C1090 C 0.43783 0.69997 0.3716 0.0
C1091 C 0.42474 0.6513 0.37555 0.0
N1092 N 0.47688 0.68939 0.42312 0.0
N1093 N 0.38334 0.66323 0.36495 0.0
H1094 H 0.43186 0.61433 0.3763 0.0
H1095 H 0.40293 0.62152 0.34613 0.0
H1096 H 0.36998 0.67585 0.35642 0.0
H1097 H 0.37693 0.6462 0.3766 0.0
H1098 H 0.48147 0.70695 0.43624 0.0
H1099 H 0.49009 0.6774 0.44075 0.0
H1100 H 0.46237 0.72804 0.34985 0.0
H1101 H 0.43286 0.73603 0.33529 0.0
C1102 C 0.57234 0.20015 0.6187 0.0
C1103 C 0.59594 0.19317 0.63765 0.0
C1104 C 0.58419 0.15126 0.6329 0.0
C1105 C 0.5603 0.15846 0.62057 0.0
N1106 N 0.5308 0.18948 0.62254 0.0
N1107 N 0.62434 0.16273 0.67303 0.0
C1108 C 0.55413 0.18284 0.61923 0.0
C1109 C 0.6019 0.16886 0.64788 0.0
N1110 N 0.56735 0.22328 0.59866 0.0
N1111 N 0.58993 0.12773 0.62809 0.0
H1112 H 0.6378 0.17522 0.68198 0.0
H1113 H 0.62925 0.14555 0.6903 0.0
H1114 H 0.57725 0.11447 0.61876 0.0
H1115 H 0.60729 0.12142 0.62768 0.0
H1116 H 0.55095 0.22888 0.57519 0.0
H1117 H 0.58018 0.23662 0.598 0.0
H1118 H 0.52525 0.20698 0.63059 0.0
H1119 H 0.51696 0.17724 0.62657 0.0
C1120 C 0.94058 0.33421 0.78603 0.0
C1121 C 0.94719 0.34371 0.86888 0.0
C1122 C 0.92217 0.3137 0.93637 0.0
C1123 C 0.91211 0.30746 0.85439 0.0
N1124 N 0.90719 0.31964 0.70421 0.0
N1125 N 0.9358 0.34695 0.0208 0.0
C1126 C 0.91972 0.32027 0.78 0.0
C1127 C 0.93516 0.33506 0.94351 0.0
N1128 N 0.95475 0.33638 0.71439 0.0
N1129 N 0.92155 0.29858 0.00552 0.0
H1130 H 0.94287 0.36397 0.02649 0.0
H1131 H 0.92629 0.34119 0.07513 0.0
H1132 H 0.91663 0.28086 0.99923 0.0
H1133 H 0.92978 0.30257 0.0646 0.0
H1134 H 0.95056 0.32815 0.65548 0.0
H1135 H 0.972 0.34291 0.71617 0.0
H1136 H 0.91196 0.32981 0.65023 0.0
H1137 H 0.89049 0.31182 0.69995 0.0
C1138 C 0.45112 0.18324 0.57322 0.0
C1139 C 0.4477 0.15962 0.60301 0.0
C1140 C 0.41094 0.17169 0.6772 0.0
C1141 C 0.41359 0.19485 0.64244 0.0
N1142 N 0.43448 0.22205 0.54714 0.0
N1143 N 0.42259 0.13022 0.66992 0.0
C1144 C 0.43306 0.20036 0.58696 0.0
C1145 C 0.42712 0.15353 0.6516 0.0
N1146 N 0.47228 0.18987 0.53677 0.0
N1147 N 0.39294 0.16704 0.73441 0.0
H1148 H 0.43372 0.11646 0.6498 0.0
H1149 H 0.40687 0.12423 0.69783 0.0
H1150 H 0.38002 0.17952 0.75087 0.0
H1151 H 0.39163 0.15135 0.76982 0.0
H1152 H 0.47705 0.20747 0.52576 0.0
H1153 H 0.48612 0.17816 0.52375 0.0
H1154 H 0.44607 0.22564 0.49599 0.0
H1155 H 0.42324 0.23622 0.56099 0.0
C1156 C 0.57123 0.69573 0.31263 0.0
C1157 C 0.59472 0.693 0.34491 0.0
C1158 C 0.58349 0.65566 0.41722 0.0
C1159 C 0.56001 0.65858 0.38591 0.0
N1160 N 0.53035 0.68243 0.31348 0.0
N1161 N 0.62459 0.66877 0.41324 0.0
C1162 C 0.55365 0.67873 0.33515 0.0
C1163 C 0.6012 0.67257 0.39378 0.0
N1164 N 0.56566 0.71452 0.26 0.0
N1165 N 0.58869 0.63686 0.47019 0.0
H1166 H 0.63808 0.6803 0.39387 0.0
H1167 H 0.63109 0.65341 0.44213 0.0
H1168 H 0.57643 0.62359 0.485 0.0
H1169 H 0.60463 0.6349 0.50348 0.0
H1170 H 0.55019 0.71562 0.22331 0.0
H1171 H 0.5769 0.7288 0.24839 0.0
H1172 H 0.52377 0.69813 0.28741 0.0
H1173 H 0.51682 0.67042 0.32714 0.0
C1174 C 0.08457 0.84582 0.10312 0.0
C1175 C 0.06035 0.83904 0.10321 0.0
C1176 C 0.0709 0.79874 0.14954 0.0
C1177 C 0.09508 0.80578 0.15319 0.0
N1178 N 0.12529 0.83575 0.14141 0.0
N1179 N 0.02975 0.80994 0.12815 0.0
C1180 C 0.10204 0.82928 0.13194 0.0
C1181 C 0.05334 0.81571 0.12676 0.0
N1182 N 0.09073 0.86792 0.07409 0.0
N1183 N 0.06491 0.77555 0.16464 0.0
H1184 H 0.01659 0.8211 0.10373 0.0
H1185 H 0.02296 0.79452 0.15579 0.0
H1186 H 0.07701 0.76284 0.18613 0.0
H1187 H 0.04823 0.76838 0.15234 0.0
H1188 H 0.10811 0.87363 0.06541 0.0
H1189 H 0.07821 0.88032 0.05321 0.0
H1190 H 0.13157 0.85298 0.13375 0.0
H1191 H 0.13834 0.82396 0.1627 0.0
C1192 C 0.9224 0.68511 0.05866 0.0
C1193 C 0.91293 0.6909 0.14218 0.0
C1194 C 0.94267 0.66462 0.20543 0.0
C1195 C 0.94852 0.65531 0.1215 0.0
N1196 N 0.93577 0.65237 0.97096 0.0
N1197 N 0.90991 0.67825 0.29269 0.0
C1198 C 0.93566 0.66398 0.04886 0.0
C1199 C 0.92161 0.6781 0.21502 0.0
N1200 N 0.92103 0.70048 0.99042 0.0
N1201 N 0.95773 0.66272 0.27464 0.0
H1202 H 0.89307 0.68561 0.29987 0.0
H1203 H 0.91556 0.66809 0.34554 0.0
H1204 H 0.97509 0.65658 0.26978 0.0
H1205 H 0.95407 0.67082 0.33429 0.0
H1206 H 0.92876 0.69679 0.93016 0.0
H1207 H 0.9161 0.71815 0.99829 0.0
H1208 H 0.92564 0.65817 0.91823 0.0
H1209 H 0.94308 0.63551 0.9633 0.0
C1210 C 0.07028 0.1975 0.84676 0.0
C1211 C 0.09455 0.19101 0.84224 0.0
C1212 C 0.08458 0.15029 0.88529 0.0
C1213 C 0.06067 0.15745 0.89716 0.0
N1214 N 0.03136 0.18858 0.90493 0.0
N1215 N 0.12563 0.16235 0.8652 0.0
C1216 C 0.05371 0.1813 0.88252 0.0
C1217 C 0.10197 0.16768 0.8638 0.0
N1218 N 0.06304 0.21904 0.81541 0.0
N1219 N 0.09049 0.12686 0.89306 0.0
H1220 H 0.13867 0.17444 0.8461 0.0
H1221 H 0.13243 0.14651 0.88949 0.0
H1222 H 0.07829 0.11392 0.91216 0.0
H1223 H 0.10702 0.12002 0.87611 0.0
H1224 H 0.04529 0.22384 0.80876 0.0
H1225 H 0.0747 0.23138 0.7884 0.0
H1226 H 0.02595 0.20625 0.90401 0.0
H1227 H 0.0188 0.17724 0.93243 0.0
C1228 C 0.57162 0.301 0.6766 0.0
C1229 C 0.59542 0.30518 0.65042 0.0
C1230 C 0.58342 0.34265 0.58132 0.0
C1231 C 0.56008 0.33933 0.61371 0.0
N1232 N 0.53249 0.31692 0.70256 0.0
N1233 N 0.62494 0.3312 0.58923 0.0
C1234 C 0.55441 0.31907 0.66491 0.0
C1235 C 0.60159 0.32633 0.60554 0.0
N1236 N 0.56499 0.27918 0.70739 0.0
N1237 N 0.58821 0.36139 0.52761 0.0
H1238 H 0.63867 0.31986 0.60779 0.0
H1239 H 0.63096 0.34728 0.56428 0.0
H1240 H 0.57567 0.37435 0.51231 0.0
H1241 H 0.6041 0.36334 0.49381 0.0
H1242 H 0.54738 0.2741 0.71607 0.0
H1243 H 0.57677 0.26518 0.71707 0.0
H1244 H 0.52863 0.30445 0.75056 0.0
H1245 H 0.51841 0.32841 0.69043 0.0
C1246 C 0.42792 0.84681 0.35157 0.0
C1247 C 0.44929 0.84081 0.39532 0.0
C1248 C 0.43548 0.79989 0.4126 0.0
C1249 C 0.41511 0.80527 0.36162 0.0
N1250 N 0.39281 0.83306 0.27485 0.0
N1251 N 0.47577 0.81043 0.44945 0.0
C1252 C 0.41164 0.8285 0.32835 0.0
C1253 C 0.45368 0.81707 0.42149 0.0
N1254 N 0.42281 0.87012 0.33531 0.0
N1255 N 0.43762 0.77833 0.45285 0.0
H1256 H 0.49 0.82213 0.45532 0.0
H1257 H 0.48076 0.7928 0.45862 0.0
H1258 H 0.42571 0.7644 0.44452 0.0
H1259 H 0.45043 0.77481 0.49998 0.0
H1260 H 0.40657 0.87597 0.31125 0.0
H1261 H 0.43413 0.88396 0.3531 0.0
H1262 H 0.39077 0.84886 0.24058 0.0
H1263 H 0.37989 0.82042 0.26019 0.0
loop_
_geom_bond_atom_site_label_1
_geom_bond_atom_site_label_2
_geom_bond_distance
_geom_bond_site_symmetry_2
_ccdc_geom_bond_type
Co0 O3 1.970 1_455 S
Co0 N17 1.989 . S
Co0 O25 1.967 . S
Co0 O32 1.920 . S
Co1 O4 1.966 1_456 S
Co1 N10 2.022 . S
Co1 N18 1.993 1_556 S
Co1 O26 1.941 1_556 S
C2 O3 1.258 . S
C2 O4 1.263 . S
O3 Co0 1.970 1_655 S
O3 C2 1.258 . S
O4 Co1 1.966 1_654 S
O4 C2 1.263 . S
C5 O6 1.235 . S
C5 O32 1.289 1_655 S
O6 C5 1.235 . S
C7 C9 1.402 . S
C7 N10 1.351 1_655 S
C7 C12 1.501 . S
C8 C9 1.381 1_455 S
C8 N11 1.341 . S
C9 C7 1.402 . S
C9 C8 1.381 1_655 S
N10 Co1 2.022 . S
N10 C7 1.351 1_455 S
N10 N11 1.365 . S
N11 C8 1.341 . S
N11 N10 1.365 . S
N11 H31 0.862 . S
C12 C7 1.501 . S
C12 H13 0.961 . S
C12 H14 0.961 . S
C12 H15 0.960 . S
H13 C12 0.961 . S
H14 C12 0.961 . S
H15 C12 0.960 . S
C16 N17 1.342 . S
C16 C20 1.401 . S
C16 C21 1.499 . S
N17 Co0 1.989 . S
N17 C16 1.342 . S
N17 N18 1.388 . S
N18 Co1 1.993 1_554 S
N18 N17 1.388 . S
N18 C19 1.346 1_554 S
C19 N18 1.346 1_556 S
C19 C20 1.396 1_556 S
C19 C29 1.510 . S
C20 C16 1.401 . S
C20 C19 1.396 1_554 S
C21 C16 1.499 . S
C21 H22 0.959 . S
C21 H23 0.960 . S
C21 H24 0.961 . S
H22 C21 0.959 . S
H23 C21 0.960 . S
H24 C21 0.961 . S
O25 Co0 1.967 . S
O25 C33 1.258 . S
O26 Co1 1.941 1_554 S
O26 C33 1.266 . S
H27 C29 0.959 . S
H28 C29 0.961 1_655 S
C29 C19 1.510 . S
C29 H27 0.959 . S
C29 H28 0.961 1_455 S
C29 H30 0.960 . S
H30 C29 0.960 . S
H31 N11 0.862 . S
O32 Co0 1.920 . S
O32 C5 1.289 1_455 S
C33 O25 1.258 . S
C33 O26 1.266 . S
Co34 O37 1.970 . S
Co34 N51 1.989 . S
Co34 O59 1.967 . S
Co34 O66 1.920 . S
Co35 O38 1.966 . S
Co35 N44 2.022 . S
Co35 N52 1.993 . S
Co35 O60 1.941 . S
C36 O37 1.258 . S
C36 O38 1.263 . S
O37 Co34 1.970 . S
O37 C36 1.258 . S
O38 Co35 1.966 . S
O38 C36 1.263 . S
C39 O40 1.235 . S
C39 O66 1.289 . S
O40 C39 1.235 . S
C41 C43 1.400 1_554 S
C41 N44 1.351 . S
C41 C46 1.501 . S
C42 C43 1.387 . S
C42 N45 1.341 1_556 S
C43 C41 1.400 1_556 S
C43 C42 1.387 . S
N44 Co35 2.022 . S
N44 C41 1.351 . S
N44 N45 1.365 . S
N45 C42 1.341 1_554 S
N45 N44 1.365 . S
N45 H65 0.862 . S
C46 C41 1.501 . S
C46 H47 0.961 . S
C46 H48 0.961 . S
C46 H49 0.960 . S
H47 C46 0.961 . S
H48 C46 0.961 . S
H49 C46 0.960 . S
C50 N51 1.342 . S
C50 C54 1.401 . S
C50 C55 1.499 . S
N51 Co34 1.989 . S
N51 C50 1.342 . S
N51 N52 1.388 . S
N52 Co35 1.993 . S
N52 N51 1.388 . S
N52 C53 1.346 . S
C53 N52 1.346 . S
C53 C54 1.396 . S
C53 C63 1.510 . S
C54 C50 1.401 . S
C54 C53 1.396 . S
C55 C50 1.499 . S
C55 H56 0.959 . S
C55 H57 0.960 . S
C55 H58 0.961 . S
H56 C55 0.959 . S
H57 C55 0.960 . S
H58 C55 0.961 . S
O59 Co34 1.967 . S
O59 C67 1.258 . S
O60 Co35 1.941 . S
O60 C67 1.266 . S
H61 C63 0.959 . S
H62 C63 0.961 . S
C63 C53 1.510 . S
C63 H61 0.959 . S
C63 H62 0.961 . S
C63 H64 0.960 . S
H64 C63 0.960 . S
H65 N45 0.862 . S
O66 Co34 1.920 . S
O66 C39 1.289 . S
C67 O59 1.258 . S
C67 O60 1.266 . S
Co68 O71 1.970 . S
Co68 N85 1.989 . S
Co68 O93 1.967 . S
Co68 O100 1.920 . S
Co69 O72 1.966 . S
Co69 N78 2.022 . S
Co69 N86 1.993 . S
Co69 O94 1.941 . S
C70 O71 1.258 . S
C70 O72 1.263 . S
O71 Co68 1.970 . S
O71 C70 1.258 . S
O72 Co69 1.966 . S
O72 C70 1.263 . S
C73 O74 1.235 . S
C73 O100 1.289 . S
O74 C73 1.235 . S
C75 C77 1.400 . S
C75 N78 1.351 . S
C75 C80 1.501 . S
C76 C77 1.387 . S
C76 N79 1.341 . S
C77 C75 1.400 . S
C77 C76 1.387 . S
N78 Co69 2.022 . S
N78 C75 1.351 . S
N78 N79 1.365 . S
N79 C76 1.341 . S
N79 N78 1.365 . S
N79 H99 0.862 . S
C80 C75 1.501 . S
C80 H81 0.961 . S
C80 H82 0.961 . S
C80 H83 0.960 . S
H81 C80 0.961 . S
H82 C80 0.961 . S
H83 C80 0.960 . S
C84 N85 1.342 . S
C84 C88 1.401 . S
C84 C89 1.499 . S
N85 Co68 1.989 . S
N85 C84 1.342 . S
N85 N86 1.388 . S
N86 Co69 1.993 . S
N86 N85 1.388 . S
N86 C87 1.346 . S
C87 N86 1.346 . S
C87 C88 1.396 . S
C87 C97 1.510 . S
C88 C84 1.401 . S
C88 C87 1.396 . S
C89 C84 1.499 . S
C89 H90 0.959 . S
C89 H91 0.960 . S
C89 H92 0.961 . S
H90 C89 0.959 . S
H91 C89 0.960 . S
H92 C89 0.961 . S
O93 Co68 1.967 . S
O93 C101 1.258 . S
O94 Co69 1.941 . S
O94 C101 1.266 . S
H95 C97 0.959 . S
H96 C97 0.961 . S
C97 C87 1.510 . S
C97 H95 0.959 . S
C97 H96 0.961 . S
C97 H98 0.960 . S
H98 C97 0.960 . S
H99 N79 0.862 . S
O100 Co68 1.920 . S
O100 C73 1.289 . S
C101 O93 1.258 . S
C101 O94 1.266 . S
Co102 O105 1.970 . S
Co102 N119 1.989 . S
Co102 O127 1.967 . S
Co102 O134 1.920 1_556 S
Co103 O106 1.966 . S
Co103 N112 2.022 . S
Co103 N120 1.993 . S
Co103 O128 1.941 . S
C104 O105 1.258 . S
C104 O106 1.263 . S
O105 Co102 1.970 . S
O105 C104 1.258 . S
O106 Co103 1.966 . S
O106 C104 1.263 . S
C107 O108 1.235 . S
C107 O134 1.289 . S
O108 C107 1.235 . S
C109 C111 1.400 . S
C109 N112 1.351 . S
C109 C114 1.501 . S
C110 C111 1.387 . S
C110 N113 1.341 . S
C111 C109 1.400 . S
C111 C110 1.387 . S
N112 Co103 2.022 . S
N112 C109 1.351 . S
N112 N113 1.365 . S
N113 C110 1.341 . S
N113 N112 1.365 . S
N113 H133 0.862 . S
C114 C109 1.501 . S
C114 H115 0.961 . S
C114 H116 0.961 . S
C114 H117 0.960 . S
H115 C114 0.961 . S
H116 C114 0.961 . S
H117 C114 0.960 . S
C118 N119 1.342 . S
C118 C122 1.401 . S
C118 C123 1.499 . S
N119 Co102 1.989 . S
N119 C118 1.342 . S
N119 N120 1.388 . S
N120 Co103 1.993 . S
N120 N119 1.388 . S
N120 C121 1.346 . S
C121 N120 1.346 . S
C121 C122 1.396 . S
C121 C131 1.510 . S
C122 C118 1.401 . S
C122 C121 1.396 . S
C123 C118 1.499 . S
C123 H124 0.959 1_556 S
C123 H125 0.960 . S
C123 H126 0.961 . S
H124 C123 0.959 1_554 S
H125 C123 0.960 . S
H126 C123 0.961 . S
O127 Co102 1.967 . S
O127 C135 1.258 . S
O128 Co103 1.941 . S
O128 C135 1.266 . S
H129 C131 0.959 . S
H130 C131 0.961 . S
C131 C121 1.510 . S
C131 H129 0.959 . S
C131 H130 0.961 . S
C131 H132 0.960 . S
H132 C131 0.960 . S
H133 N113 0.862 . S
O134 Co102 1.920 1_554 S
O134 C107 1.289 . S
C135 O127 1.258 . S
C135 O128 1.266 . S
Co136 O139 1.970 1_455 S
Co136 N153 1.989 . S
Co136 O161 1.967 . S
Co136 O168 1.920 . S
Co137 O140 1.966 1_454 S
Co137 N146 2.022 . S
Co137 N154 1.993 1_554 S
Co137 O162 1.941 1_554 S
C138 O139 1.258 . S
C138 O140 1.263 . S
O139 Co136 1.970 1_655 S
O139 C138 1.258 . S
O140 Co137 1.966 1_656 S
O140 C138 1.263 . S
C141 O142 1.235 . S
C141 O168 1.289 1_655 S
O142 C141 1.235 . S
C143 C145 1.402 . S
C143 N146 1.351 1_655 S
C143 C148 1.501 . S
C144 C145 1.381 1_455 S
C144 N147 1.341 . S
C145 C143 1.402 . S
C145 C144 1.381 1_655 S
N146 Co137 2.022 . S
N146 C143 1.351 1_455 S
N146 N147 1.365 . S
N147 C144 1.341 . S
N147 N146 1.365 . S
N147 H167 0.862 . S
C148 C143 1.501 . S
C148 H149 0.961 . S
C148 H150 0.961 . S
C148 H151 0.960 . S
H149 C148 0.961 . S
H150 C148 0.961 . S
H151 C148 0.960 . S
C152 N153 1.342 . S
C152 C156 1.401 . S
C152 C157 1.499 . S
N153 Co136 1.989 . S
N153 C152 1.342 . S
N153 N154 1.388 . S
N154 Co137 1.993 1_556 S
N154 N153 1.388 . S
N154 C155 1.346 1_556 S
C155 N154 1.346 1_554 S
C155 C156 1.396 1_554 S
C155 C165 1.510 . S
C156 C152 1.401 . S
C156 C155 1.396 1_556 S
C157 C152 1.499 . S
C157 H158 0.959 . S
C157 H159 0.960 . S
C157 H160 0.961 . S
H158 C157 0.959 . S
H159 C157 0.960 . S
H160 C157 0.961 . S
O161 Co136 1.967 . S
O161 C169 1.258 . S
O162 Co137 1.941 1_556 S
O162 C169 1.266 . S
H163 C165 0.959 . S
H164 C165 0.961 1_655 S
C165 C155 1.510 . S
C165 H163 0.959 . S
C165 H164 0.961 1_455 S
C165 H166 0.960 . S
H166 C165 0.960 . S
H167 N147 0.862 . S
O168 Co136 1.920 . S
O168 C141 1.289 1_455 S
C169 O161 1.258 . S
C169 O162 1.266 . S
Co170 O173 1.970 . S
Co170 N187 1.989 . S
Co170 O195 1.967 . S
Co170 O202 1.920 1_554 S
Co171 O174 1.966 . S
Co171 N180 2.022 . S
Co171 N188 1.993 . S
Co171 O196 1.941 . S
C172 O173 1.258 . S
C172 O174 1.263 . S
O173 Co170 1.970 . S
O173 C172 1.258 . S
O174 Co171 1.966 . S
O174 C172 1.263 . S
C175 O176 1.235 . S
C175 O202 1.289 . S
O176 C175 1.235 . S
C177 C179 1.400 . S
C177 N180 1.351 . S
C177 C182 1.501 . S
C178 C179 1.387 . S
C178 N181 1.341 . S
C179 C177 1.400 . S
C179 C178 1.387 . S
N180 Co171 2.022 . S
N180 C177 1.351 . S
N180 N181 1.365 . S
N181 C178 1.341 . S
N181 N180 1.365 . S
N181 H201 0.862 . S
C182 C177 1.501 . S
C182 H183 0.961 . S
C182 H184 0.961 . S
C182 H185 0.960 . S
H183 C182 0.961 . S
H184 C182 0.961 . S
H185 C182 0.960 . S
C186 N187 1.342 . S
C186 C190 1.401 . S
C186 C191 1.499 . S
N187 Co170 1.989 . S
N187 C186 1.342 . S
N187 N188 1.388 . S
N188 Co171 1.993 . S
N188 N187 1.388 . S
N188 C189 1.346 . S
C189 N188 1.346 . S
C189 C190 1.396 . S
C189 C199 1.510 . S
C190 C186 1.401 . S
C190 C189 1.396 . S
C191 C186 1.499 . S
C191 H192 0.959 1_554 S
C191 H193 0.960 . S
C191 H194 0.961 . S
H192 C191 0.959 1_556 S
H193 C191 0.960 . S
H194 C191 0.961 . S
O195 Co170 1.967 . S
O195 C203 1.258 . S
O196 Co171 1.941 . S
O196 C203 1.266 . S
H197 C199 0.959 . S
H198 C199 0.961 . S
C199 C189 1.510 . S
C199 H197 0.959 . S
C199 H198 0.961 . S
C199 H200 0.960 . S
H200 C199 0.960 . S
H201 N181 0.862 . S
O202 Co170 1.920 1_556 S
O202 C175 1.289 . S
C203 O195 1.258 . S
C203 O196 1.266 . S
Co204 O207 1.970 . S
Co204 N221 1.989 . S
Co204 O229 1.967 . S
Co204 O236 1.920 . S
Co205 O208 1.966 . S
Co205 N214 2.022 . S
Co205 N222 1.993 . S
Co205 O230 1.941 . S
C206 O207 1.258 . S
C206 O208 1.263 . S
O207 Co204 1.970 . S
O207 C206 1.258 . S
O208 Co205 1.966 . S
O208 C206 1.263 . S
C209 O210 1.235 . S
C209 O236 1.289 . S
O210 C209 1.235 . S
C211 C213 1.400 . S
C211 N214 1.351 . S
C211 C216 1.501 . S
C212 C213 1.387 . S
C212 N215 1.341 . S
C213 C211 1.400 . S
C213 C212 1.387 . S
N214 Co205 2.022 . S
N214 C211 1.351 . S
N214 N215 1.365 . S
N215 C212 1.341 . S
N215 N214 1.365 . S
N215 H235 0.862 . S
C216 C211 1.501 . S
C216 H217 0.961 . S
C216 H218 0.961 . S
C216 H219 0.960 . S
H217 C216 0.961 . S
H218 C216 0.961 . S
H219 C216 0.960 . S
C220 N221 1.342 . S
C220 C224 1.401 . S
C220 C225 1.499 . S
N221 Co204 1.989 . S
N221 C220 1.342 . S
N221 N222 1.388 . S
N222 Co205 1.993 . S
N222 N221 1.388 . S
N222 C223 1.346 . S
C223 N222 1.346 . S
C223 C224 1.396 . S
C223 C233 1.510 . S
C224 C220 1.401 . S
C224 C223 1.396 . S
C225 C220 1.499 . S
C225 H226 0.959 . S
C225 H227 0.960 . S
C225 H228 0.961 . S
H226 C225 0.959 . S
H227 C225 0.960 . S
H228 C225 0.961 . S
O229 Co204 1.967 . S
O229 C237 1.258 . S
O230 Co205 1.941 . S
O230 C237 1.266 . S
H231 C233 0.959 . S
H232 C233 0.961 . S
C233 C223 1.510 . S
C233 H231 0.959 . S
C233 H232 0.961 . S
C233 H234 0.960 . S
H234 C233 0.960 . S
H235 N215 0.862 . S
O236 Co204 1.920 . S
O236 C209 1.289 . S
C237 O229 1.258 . S
C237 O230 1.266 . S
Co238 O241 1.970 . S
Co238 N255 1.989 . S
Co238 O263 1.967 . S
Co238 O270 1.920 . S
Co239 O242 1.966 . S
Co239 N248 2.022 . S
Co239 N256 1.993 . S
Co239 O264 1.941 . S
C240 O241 1.258 . S
C240 O242 1.263 . S
O241 Co238 1.970 . S
O241 C240 1.258 . S
O242 Co239 1.966 . S
O242 C240 1.263 . S
C243 O244 1.235 . S
C243 O270 1.289 . S
O244 C243 1.235 . S
C245 C247 1.400 1_556 S
C245 N248 1.351 . S
C245 C250 1.501 . S
C246 C247 1.387 . S
C246 N249 1.341 1_554 S
C247 C245 1.400 1_554 S
C247 C246 1.387 . S
N248 Co239 2.022 . S
N248 C245 1.351 . S
N248 N249 1.365 . S
N249 C246 1.341 1_556 S
N249 N248 1.365 . S
N249 H269 0.862 . S
C250 C245 1.501 . S
C250 H251 0.961 . S
C250 H252 0.961 . S
C250 H253 0.960 . S
H251 C250 0.961 . S
H252 C250 0.961 . S
H253 C250 0.960 . S
C254 N255 1.342 . S
C254 C258 1.401 . S
C254 C259 1.499 . S
N255 Co238 1.989 . S
N255 C254 1.342 . S
N255 N256 1.388 . S
N256 Co239 1.993 . S
N256 N255 1.388 . S
N256 C257 1.346 . S
C257 N256 1.346 . S
C257 C258 1.396 . S
C257 C267 1.510 . S
C258 C254 1.401 . S
C258 C257 1.396 . S
C259 C254 1.499 . S
C259 H260 0.959 . S
C259 H261 0.960 . S
C259 H262 0.961 . S
H260 C259 0.959 . S
H261 C259 0.960 . S
H262 C259 0.961 . S
O263 Co238 1.967 . S
O263 C271 1.258 . S
O264 Co239 1.941 . S
O264 C271 1.266 . S
H265 C267 0.959 . S
H266 C267 0.961 . S
C267 C257 1.510 . S
C267 H265 0.959 . S
C267 H266 0.961 . S
C267 H268 0.960 . S
H268 C267 0.960 . S
H269 N249 0.862 . S
O270 Co238 1.920 . S
O270 C243 1.289 . S
C271 O263 1.258 . S
C271 O264 1.266 . S
Co272 O275 1.970 . S
Co272 N289 1.989 . S
Co272 O297 1.967 . S
Co272 O304 1.920 . S
Co273 O276 1.966 . S
Co273 N282 2.022 . S
Co273 N290 1.993 . S
Co273 O298 1.941 . S
C274 O275 1.258 . S
C274 O276 1.263 . S
O275 Co272 1.970 . S
O275 C274 1.258 . S
O276 Co273 1.966 . S
O276 C274 1.263 . S
C277 O278 1.235 . S
C277 O304 1.289 . S
O278 C277 1.235 . S
C279 C281 1.400 1_556 S
C279 N282 1.351 . S
C279 C284 1.501 . S
C280 C281 1.387 . S
C280 N283 1.341 1_554 S
C281 C279 1.400 1_554 S
C281 C280 1.387 . S
N282 Co273 2.022 . S
N282 C279 1.351 . S
N282 N283 1.365 . S
N283 C280 1.341 1_556 S
N283 N282 1.365 . S
N283 H303 0.862 . S
C284 C279 1.501 . S
C284 H285 0.961 . S
C284 H286 0.961 . S
C284 H287 0.960 . S
H285 C284 0.961 . S
H286 C284 0.961 . S
H287 C284 0.960 . S
C288 N289 1.342 . S
C288 C292 1.401 . S
C288 C293 1.499 . S
N289 Co272 1.989 . S
N289 C288 1.342 . S
N289 N290 1.388 . S
N290 Co273 1.993 . S
N290 N289 1.388 . S
N290 C291 1.346 . S
C291 N290 1.346 . S
C291 C292 1.396 . S
C291 C301 1.510 . S
C292 C288 1.401 . S
C292 C291 1.396 . S
C293 C288 1.499 . S
C293 H294 0.959 . S
C293 H295 0.960 . S
C293 H296 0.961 . S
H294 C293 0.959 . S
H295 C293 0.960 . S
H296 C293 0.961 . S
O297 Co272 1.967 . S
O297 C305 1.258 . S
O298 Co273 1.941 . S
O298 C305 1.266 . S
H299 C301 0.959 . S
H300 C301 0.961 . S
C301 C291 1.510 . S
C301 H299 0.959 . S
C301 H300 0.961 . S
C301 H302 0.960 . S
H302 C301 0.960 . S
H303 N283 0.862 . S
O304 Co272 1.920 . S
O304 C277 1.289 . S
C305 O297 1.258 . S
C305 O298 1.266 . S
Co306 O309 1.970 . S
Co306 N323 1.989 . S
Co306 O331 1.967 . S
Co306 O338 1.920 1_554 S
Co307 O310 1.966 . S
Co307 N316 2.022 . S
Co307 N324 1.993 . S
Co307 O332 1.941 . S
C308 O309 1.258 . S
C308 O310 1.263 . S
O309 Co306 1.970 . S
O309 C308 1.258 . S
O310 Co307 1.966 . S
O310 C308 1.263 . S
C311 O312 1.235 . S
C311 O338 1.289 . S
O312 C311 1.235 . S
C313 C315 1.400 . S
C313 N316 1.351 . S
C313 C318 1.501 . S
C314 C315 1.387 . S
C314 N317 1.341 . S
C315 C313 1.400 . S
C315 C314 1.387 . S
N316 Co307 2.022 . S
N316 C313 1.351 . S
N316 N317 1.365 . S
N317 C314 1.341 . S
N317 N316 1.365 . S
N317 H337 0.862 . S
C318 C313 1.501 . S
C318 H319 0.961 . S
C318 H320 0.961 . S
C318 H321 0.960 . S
H319 C318 0.961 . S
H320 C318 0.961 . S
H321 C318 0.960 . S
C322 N323 1.342 . S
C322 C326 1.401 . S
C322 C327 1.499 . S
N323 Co306 1.989 . S
N323 C322 1.342 . S
N323 N324 1.388 . S
N324 Co307 1.993 . S
N324 N323 1.388 . S
N324 C325 1.346 . S
C325 N324 1.346 . S
C325 C326 1.396 . S
C325 C335 1.510 . S
C326 C322 1.401 . S
C326 C325 1.396 . S
C327 C322 1.499 . S
C327 H328 0.959 1_554 S
C327 H329 0.960 . S
C327 H330 0.961 . S
H328 C327 0.959 1_556 S
H329 C327 0.960 . S
H330 C327 0.961 . S
O331 Co306 1.967 . S
O331 C339 1.258 . S
O332 Co307 1.941 . S
O332 C339 1.266 . S
H333 C335 0.959 . S
H334 C335 0.961 . S
C335 C325 1.510 . S
C335 H333 0.959 . S
C335 H334 0.961 . S
C335 H336 0.960 . S
H336 C335 0.960 . S
H337 N317 0.862 . S
O338 Co306 1.920 1_556 S
O338 C311 1.289 . S
C339 O331 1.258 . S
C339 O332 1.266 . S
Co340 O343 1.970 . S
Co340 N357 1.989 . S
Co340 O365 1.967 . S
Co340 O372 1.920 1_556 S
Co341 O344 1.966 . S
Co341 N350 2.022 . S
Co341 N358 1.993 . S
Co341 O366 1.941 . S
C342 O343 1.258 . S
C342 O344 1.263 . S
O343 Co340 1.970 . S
O343 C342 1.258 . S
O344 Co341 1.966 . S
O344 C342 1.263 . S
C345 O346 1.235 . S
C345 O372 1.289 . S
O346 C345 1.235 . S
C347 C349 1.400 . S
C347 N350 1.351 . S
C347 C352 1.501 . S
C348 C349 1.387 . S
C348 N351 1.341 . S
C349 C347 1.400 . S
C349 C348 1.387 . S
N350 Co341 2.022 . S
N350 C347 1.351 . S
N350 N351 1.365 . S
N351 C348 1.341 . S
N351 N350 1.365 . S
N351 H371 0.862 . S
C352 C347 1.501 . S
C352 H353 0.961 . S
C352 H354 0.961 . S
C352 H355 0.960 . S
H353 C352 0.961 . S
H354 C352 0.961 . S
H355 C352 0.960 . S
C356 N357 1.342 . S
C356 C360 1.401 . S
C356 C361 1.499 . S
N357 Co340 1.989 . S
N357 C356 1.342 . S
N357 N358 1.388 . S
N358 Co341 1.993 . S
N358 N357 1.388 . S
N358 C359 1.346 . S
C359 N358 1.346 . S
C359 C360 1.396 . S
C359 C369 1.510 . S
C360 C356 1.401 . S
C360 C359 1.396 . S
C361 C356 1.499 . S
C361 H362 0.959 1_556 S
C361 H363 0.960 . S
C361 H364 0.961 . S
H362 C361 0.959 1_554 S
H363 C361 0.960 . S
H364 C361 0.961 . S
O365 Co340 1.967 . S
O365 C373 1.258 . S
O366 Co341 1.941 . S
O366 C373 1.266 . S
H367 C369 0.959 . S
H368 C369 0.961 . S
C369 C359 1.510 . S
C369 H367 0.959 . S
C369 H368 0.961 . S
C369 H370 0.960 . S
H370 C369 0.960 . S
H371 N351 0.862 . S
O372 Co340 1.920 1_554 S
O372 C345 1.289 . S
C373 O365 1.258 . S
C373 O366 1.266 . S
Co374 O377 1.970 . S
Co374 N391 1.989 . S
Co374 O399 1.967 . S
Co374 O406 1.920 . S
Co375 O378 1.966 . S
Co375 N384 2.022 . S
Co375 N392 1.993 . S
Co375 O400 1.941 . S
C376 O377 1.258 . S
C376 O378 1.263 . S
O377 Co374 1.970 . S
O377 C376 1.258 . S
O378 Co375 1.966 . S
O378 C376 1.263 . S
C379 O380 1.235 . S
C379 O406 1.289 . S
O380 C379 1.235 . S
C381 C383 1.400 1_554 S
C381 N384 1.351 . S
C381 C386 1.501 . S
C382 C383 1.387 . S
C382 N385 1.341 1_556 S
C383 C381 1.400 1_556 S
C383 C382 1.387 . S
N384 Co375 2.022 . S
N384 C381 1.351 . S
N384 N385 1.365 . S
N385 C382 1.341 1_554 S
N385 N384 1.365 . S
N385 H405 0.862 . S
C386 C381 1.501 . S
C386 H387 0.961 . S
C386 H388 0.961 . S
C386 H389 0.960 . S
H387 C386 0.961 . S
H388 C386 0.961 . S
H389 C386 0.960 . S
C390 N391 1.342 . S
C390 C394 1.401 . S
C390 C395 1.499 . S
N391 Co374 1.989 . S
N391 C390 1.342 . S
N391 N392 1.388 . S
N392 Co375 1.993 . S
N392 N391 1.388 . S
N392 C393 1.346 . S
C393 N392 1.346 . S
C393 C394 1.396 . S
C393 C403 1.510 . S
C394 C390 1.401 . S
C394 C393 1.396 . S
C395 C390 1.499 . S
C395 H396 0.959 . S
C395 H397 0.960 . S
C395 H398 0.961 . S
H396 C395 0.959 . S
H397 C395 0.960 . S
H398 C395 0.961 . S
O399 Co374 1.967 . S
O399 C407 1.258 . S
O400 Co375 1.941 . S
O400 C407 1.266 . S
H401 C403 0.959 . S
H402 C403 0.961 . S
C403 C393 1.510 . S
C403 H401 0.959 . S
C403 H402 0.961 . S
C403 H404 0.960 . S
H404 C403 0.960 . S
H405 N385 0.862 . S
O406 Co374 1.920 . S
O406 C379 1.289 . S
C407 O399 1.258 . S
C407 O400 1.266 . S
Co408 O411 1.970 . S
Co408 N425 1.989 . S
Co408 O433 1.967 . S
Co408 O440 1.920 . S
Co409 O412 1.966 . S
Co409 N418 2.022 . S
Co409 N426 1.993 . S
Co409 O434 1.941 . S
C410 O411 1.258 . S
C410 O412 1.263 . S
O411 Co408 1.970 . S
O411 C410 1.258 . S
O412 Co409 1.966 . S
O412 C410 1.263 . S
C413 O414 1.235 . S
C413 O440 1.289 . S
O414 C413 1.235 . S
C415 C417 1.400 . S
C415 N418 1.351 . S
C415 C420 1.501 . S
C416 C417 1.387 . S
C416 N419 1.341 . S
C417 C415 1.400 . S
C417 C416 1.387 . S
N418 Co409 2.022 . S
N418 C415 1.351 . S
N418 N419 1.365 . S
N419 C416 1.341 . S
N419 N418 1.365 . S
N419 H439 0.862 . S
C420 C415 1.501 . S
C420 H421 0.961 . S
C420 H422 0.961 . S
C420 H423 0.960 . S
H421 C420 0.961 . S
H422 C420 0.961 . S
H423 C420 0.960 . S
C424 N425 1.342 . S
C424 C428 1.401 . S
C424 C429 1.499 . S
N425 Co408 1.989 . S
N425 C424 1.342 . S
N425 N426 1.388 . S
N426 Co409 1.993 . S
N426 N425 1.388 . S
N426 C427 1.346 . S
C427 N426 1.346 . S
C427 C428 1.396 . S
C427 C437 1.510 . S
C428 C424 1.401 . S
C428 C427 1.396 . S
C429 C424 1.499 . S
C429 H430 0.959 . S
C429 H431 0.960 . S
C429 H432 0.961 . S
H430 C429 0.959 . S
H431 C429 0.960 . S
H432 C429 0.961 . S
O433 Co408 1.967 . S
O433 C441 1.258 . S
O434 Co409 1.941 . S
O434 C441 1.266 . S
H435 C437 0.959 . S
H436 C437 0.961 . S
C437 C427 1.510 . S
C437 H435 0.959 . S
C437 H436 0.961 . S
C437 H438 0.960 . S
H438 C437 0.960 . S
H439 N419 0.862 . S
O440 Co408 1.920 . S
O440 C413 1.289 . S
C441 O433 1.258 . S
C441 O434 1.266 . S
Co442 O445 1.970 . S
Co442 N459 1.989 1_455 S
Co442 O467 1.967 1_455 S
Co442 O474 1.915 1_455 S
Co443 O446 1.966 1_656 S
Co443 N452 2.022 . S
Co443 N460 1.990 1_656 S
Co443 O468 1.941 1_556 S
C444 O445 1.258 . S
C444 O446 1.263 . S
O445 Co442 1.970 . S
O445 C444 1.258 . S
O446 Co443 1.966 1_454 S
O446 C444 1.263 . S
C447 O448 1.235 . S
C447 O474 1.254 1_455 S
O448 C447 1.235 . S
C449 C451 1.400 . S
C449 N452 1.351 1_455 S
C449 C454 1.501 . S
C450 C451 1.387 1_655 S
C450 N453 1.341 . S
C451 C449 1.400 . S
C451 C450 1.387 1_455 S
N452 Co443 2.022 . S
N452 C449 1.351 1_655 S
N452 N453 1.365 . S
N453 C450 1.341 . S
N453 N452 1.365 . S
N453 H473 0.862 . S
C454 C449 1.501 . S
C454 H455 0.961 . S
C454 H456 0.961 . S
C454 H457 0.960 . S
H455 C454 0.961 . S
H456 C454 0.961 . S
H457 C454 0.960 . S
C458 N459 1.342 . S
C458 C462 1.401 . S
C458 C463 1.499 . S
N459 Co442 1.989 1_655 S
N459 C458 1.342 . S
N459 N460 1.387 1_655 S
N460 Co443 1.990 1_454 S
N460 N459 1.387 1_455 S
N460 C461 1.342 1_454 S
C461 N460 1.342 1_656 S
C461 C462 1.396 1_556 S
C461 C471 1.511 . S
C462 C458 1.401 . S
C462 C461 1.396 1_554 S
C463 C458 1.499 . S
C463 H464 0.959 . S
C463 H465 0.960 1_655 S
C463 H466 0.961 . S
H464 C463 0.959 . S
H465 C463 0.960 1_455 S
H466 C463 0.961 . S
O467 Co442 1.967 1_655 S
O467 C475 1.258 . S
O468 Co443 1.941 1_554 S
O468 C475 1.266 . S
H469 C471 0.978 . S
H470 C471 0.945 1_455 S
C471 C461 1.511 . S
C471 H469 0.978 . S
C471 H470 0.945 1_655 S
C471 H472 0.957 1_655 S
H472 C471 0.957 1_455 S
H473 N453 0.862 . S
O474 Co442 1.915 1_655 S
O474 C447 1.254 1_655 S
C475 O467 1.258 . S
C475 O468 1.266 . S
Co476 O479 1.970 . S
Co476 N493 1.989 . S
Co476 O501 1.967 . S
Co476 O508 1.920 . S
Co477 O480 1.966 . S
Co477 N486 2.022 . S
Co477 N494 1.993 . S
Co477 O502 1.941 . S
C478 O479 1.258 . S
C478 O480 1.263 . S
O479 Co476 1.970 . S
O479 C478 1.258 . S
O480 Co477 1.966 . S
O480 C478 1.263 . S
C481 O482 1.235 . S
C481 O508 1.289 . S
O482 C481 1.235 . S
C483 C485 1.400 . S
C483 N486 1.351 . S
C483 C488 1.501 . S
C484 C485 1.387 . S
C484 N487 1.341 . S
C485 C483 1.400 . S
C485 C484 1.387 . S
N486 Co477 2.022 . S
N486 C483 1.351 . S
N486 N487 1.365 . S
N487 C484 1.341 . S
N487 N486 1.365 . S
N487 H507 0.862 . S
C488 C483 1.501 . S
C488 H489 0.961 . S
C488 H490 0.961 . S
C488 H491 0.960 . S
H489 C488 0.961 . S
H490 C488 0.961 . S
H491 C488 0.960 . S
C492 N493 1.342 . S
C492 C496 1.401 . S
C492 C497 1.499 . S
N493 Co476 1.989 . S
N493 C492 1.342 . S
N493 N494 1.388 . S
N494 Co477 1.993 . S
N494 N493 1.388 . S
N494 C495 1.346 . S
C495 N494 1.346 . S
C495 C496 1.396 . S
C495 C505 1.510 . S
C496 C492 1.401 . S
C496 C495 1.396 . S
C497 C492 1.499 . S
C497 H498 0.959 . S
C497 H499 0.960 . S
C497 H500 0.961 . S
H498 C497 0.959 . S
H499 C497 0.960 . S
H500 C497 0.961 . S
O501 Co476 1.967 . S
O501 C509 1.258 . S
O502 Co477 1.941 . S
O502 C509 1.266 . S
H503 C505 0.959 . S
H504 C505 0.961 . S
C505 C495 1.510 . S
C505 H503 0.959 . S
C505 H504 0.961 . S
C505 H506 0.960 . S
H506 C505 0.960 . S
H507 N487 0.862 . S
O508 Co476 1.920 . S
O508 C481 1.289 . S
C509 O501 1.258 . S
C509 O502 1.266 . S
Co510 O513 1.970 . S
Co510 N527 1.989 1_455 S
Co510 O535 1.967 1_455 S
Co510 O542 1.915 1_455 S
Co511 O514 1.966 1_654 S
Co511 N520 2.022 . S
Co511 N528 1.990 1_654 S
Co511 O536 1.941 1_554 S
C512 O513 1.258 . S
C512 O514 1.263 . S
O513 Co510 1.970 . S
O513 C512 1.258 . S
O514 Co511 1.966 1_456 S
O514 C512 1.263 . S
C515 O516 1.235 . S
C515 O542 1.254 1_455 S
O516 C515 1.235 . S
C517 C519 1.400 . S
C517 N520 1.351 1_455 S
C517 C522 1.501 . S
C518 C519 1.387 1_655 S
C518 N521 1.341 . S
C519 C517 1.400 . S
C519 C518 1.387 1_455 S
N520 Co511 2.022 . S
N520 C517 1.351 1_655 S
N520 N521 1.365 . S
N521 C518 1.341 . S
N521 N520 1.365 . S
N521 H541 0.862 . S
C522 C517 1.501 . S
C522 H523 0.961 . S
C522 H524 0.961 . S
C522 H525 0.960 . S
H523 C522 0.961 . S
H524 C522 0.961 . S
H525 C522 0.960 . S
C526 N527 1.342 . S
C526 C530 1.401 . S
C526 C531 1.499 . S
N527 Co510 1.989 1_655 S
N527 C526 1.342 . S
N527 N528 1.387 1_655 S
N528 Co511 1.990 1_456 S
N528 N527 1.387 1_455 S
N528 C529 1.342 1_456 S
C529 N528 1.342 1_654 S
C529 C530 1.396 1_554 S
C529 C539 1.511 . S
C530 C526 1.401 . S
C530 C529 1.396 1_556 S
C531 C526 1.499 . S
C531 H532 0.959 . S
C531 H533 0.960 1_655 S
C531 H534 0.961 . S
H532 C531 0.959 . S
H533 C531 0.960 1_455 S
H534 C531 0.961 . S
O535 Co510 1.967 1_655 S
O535 C543 1.258 . S
O536 Co511 1.941 1_556 S
O536 C543 1.266 . S
H537 C539 0.978 . S
H538 C539 0.945 1_455 S
C539 C529 1.511 . S
C539 H537 0.978 . S
C539 H538 0.945 1_655 S
C539 H540 0.957 1_655 S
H540 C539 0.957 1_455 S
H541 N521 0.862 . S
O542 Co510 1.915 1_655 S
O542 C515 1.254 1_655 S
C543 O535 1.258 . S
C543 O536 1.266 . S
C544 C545 1.363 1_455 S
C544 C550 1.379 . S
C544 N552 1.356 . S
C545 C544 1.363 1_655 S
C545 C551 1.363 . S
C546 C547 1.363 . S
C546 C551 1.379 . S
C546 N553 1.356 . S
C547 C546 1.363 . S
C547 C550 1.363 1_655 S
N548 C550 1.356 . S
N548 H560 0.984 . S
N548 H561 0.985 . S
N549 C551 1.356 . S
N549 H554 0.984 . S
N549 H555 0.985 . S
C550 C544 1.379 . S
C550 C547 1.363 1_455 S
C550 N548 1.356 . S
C551 C545 1.363 . S
C551 C546 1.379 . S
C551 N549 1.356 . S
N552 C544 1.356 . S
N552 H558 0.984 . S
N552 H559 0.984 . S
N553 C546 1.356 . S
N553 H556 0.984 . S
N553 H557 0.985 . S
H554 N549 0.984 . S
H555 N549 0.985 . S
H556 N553 0.984 . S
H557 N553 0.985 . S
H558 N552 0.984 . S
H559 N552 0.984 . S
H560 N548 0.984 . S
H561 N548 0.985 . S
C562 C563 1.363 . S
C562 C568 1.379 . S
C562 N570 1.356 . S
C563 C562 1.363 . S
C563 C569 1.363 . S
C564 C565 1.363 . S
C564 C569 1.379 . S
C564 N571 1.356 . S
C565 C564 1.363 . S
C565 C568 1.363 . S
N566 C568 1.356 . S
N566 H578 0.984 . S
N566 H579 0.985 . S
N567 C569 1.356 . S
N567 H572 0.984 . S
N567 H573 0.985 . S
C568 C562 1.379 . S
C568 C565 1.363 . S
C568 N566 1.356 . S
C569 C563 1.363 . S
C569 C564 1.379 . S
C569 N567 1.356 . S
N570 C562 1.356 . S
N570 H576 0.984 . S
N570 H577 0.984 . S
N571 C564 1.356 . S
N571 H574 0.984 . S
N571 H575 0.985 . S
H572 N567 0.984 . S
H573 N567 0.985 . S
H574 N571 0.984 . S
H575 N571 0.985 . S
H576 N570 0.984 . S
H577 N570 0.984 . S
H578 N566 0.984 . S
H579 N566 0.985 . S
C580 C581 1.363 . S
C580 C586 1.390 . S
C580 N588 1.356 . S
C581 C580 1.363 . S
C581 C587 1.363 . S
C582 C583 1.363 . S
C582 C587 1.379 1_556 S
C582 N589 1.356 . S
C583 C582 1.363 . S
C583 C586 1.355 1_556 S
N584 C586 1.349 1_556 S
N584 H596 0.984 . S
N584 H597 0.985 . S
N585 C587 1.356 . S
N585 H590 0.984 . S
N585 H591 0.985 . S
C586 C580 1.390 . S
C586 C583 1.355 1_554 S
C586 N584 1.349 1_554 S
C587 C581 1.363 . S
C587 C582 1.379 1_554 S
C587 N585 1.356 . S
N588 C580 1.356 . S
N588 H594 0.984 . S
N588 H595 0.984 . S
N589 C582 1.356 . S
N589 H592 0.984 . S
N589 H593 0.985 . S
H590 N585 0.984 . S
H591 N585 0.985 . S
H592 N589 0.984 . S
H593 N589 0.985 . S
H594 N588 0.984 . S
H595 N588 0.984 . S
H596 N584 0.984 . S
H597 N584 0.985 . S
C598 C599 1.363 . S
C598 C604 1.379 . S
C598 N606 1.356 . S
C599 C598 1.363 . S
C599 C605 1.363 . S
C600 C601 1.363 . S
C600 C605 1.379 . S
C600 N607 1.356 . S
C601 C600 1.363 . S
C601 C604 1.363 . S
N602 C604 1.356 . S
N602 H614 0.984 . S
N602 H615 0.985 . S
N603 C605 1.356 . S
N603 H608 0.984 . S
N603 H609 0.985 . S
C604 C598 1.379 . S
C604 C601 1.363 . S
C604 N602 1.356 . S
C605 C599 1.363 . S
C605 C600 1.379 . S
C605 N603 1.356 . S
N606 C598 1.356 . S
N606 H612 0.984 . S
N606 H613 0.984 . S
N607 C600 1.356 . S
N607 H610 0.984 . S
N607 H611 0.985 . S
H608 N603 0.984 . S
H609 N603 0.985 . S
H610 N607 0.984 . S
H611 N607 0.985 . S
H612 N606 0.984 . S
H613 N606 0.984 . S
H614 N602 0.984 . S
H615 N602 0.985 . S
C616 C617 1.363 . S
C616 C622 1.379 . S
C616 N624 1.356 . S
C617 C616 1.363 . S
C617 C623 1.363 1_655 S
C618 C619 1.363 1_455 S
C618 C623 1.379 . S
C618 N625 1.356 . S
C619 C618 1.363 1_655 S
C619 C622 1.363 . S
N620 C622 1.356 . S
N620 H632 0.984 . S
N620 H633 0.985 . S
N621 C623 1.356 . S
N621 H626 0.984 . S
N621 H627 0.985 . S
C622 C616 1.379 . S
C622 C619 1.363 . S
C622 N620 1.356 . S
C623 C617 1.363 1_455 S
C623 C618 1.379 . S
C623 N621 1.356 . S
N624 C616 1.356 . S
N624 H630 0.984 . S
N624 H631 0.984 . S
N625 C618 1.356 . S
N625 H628 0.984 . S
N625 H629 0.985 . S
H626 N621 0.984 . S
H627 N621 0.985 . S
H628 N625 0.984 . S
H629 N625 0.985 . S
H630 N624 0.984 . S
H631 N624 0.984 . S
H632 N620 0.984 . S
H633 N620 0.985 . S
C634 C635 1.363 . S
C634 C640 1.379 . S
C634 N642 1.356 . S
C635 C634 1.363 . S
C635 C641 1.363 . S
C636 C637 1.363 . S
C636 C641 1.379 . S
C636 N643 1.356 . S
C637 C636 1.363 . S
C637 C640 1.363 . S
N638 C640 1.356 . S
N638 H650 0.984 . S
N638 H651 0.985 . S
N639 C641 1.356 . S
N639 H644 0.984 . S
N639 H645 0.985 . S
C640 C634 1.379 . S
C640 C637 1.363 . S
C640 N638 1.356 . S
C641 C635 1.363 . S
C641 C636 1.379 . S
C641 N639 1.356 . S
N642 C634 1.356 . S
N642 H648 0.984 . S
N642 H649 0.984 . S
N643 C636 1.356 . S
N643 H646 0.984 . S
N643 H647 0.985 . S
H644 N639 0.984 . S
H645 N639 0.985 . S
H646 N643 0.984 . S
H647 N643 0.985 . S
H648 N642 0.984 . S
H649 N642 0.984 . S
H650 N638 0.984 . S
H651 N638 0.985 . S
C652 C653 1.363 . S
C652 C658 1.379 1_556 S
C652 N660 1.356 . S
C653 C652 1.363 . S
C653 C659 1.363 . S
C654 C655 1.359 1_556 S
C654 C659 1.385 . S
C654 N661 1.352 1_556 S
C655 C654 1.359 1_554 S
C655 C658 1.363 . S
N656 C658 1.356 . S
N656 H668 0.984 . S
N656 H669 0.985 . S
N657 C659 1.356 . S
N657 H662 0.984 . S
N657 H663 0.985 . S
C658 C652 1.379 1_554 S
C658 C655 1.363 . S
C658 N656 1.356 . S
C659 C653 1.363 . S
C659 C654 1.385 . S
C659 N657 1.356 . S
N660 C652 1.356 . S
N660 H666 0.984 . S
N660 H667 0.984 . S
N661 C654 1.352 1_554 S
N661 H664 0.984 . S
N661 H665 0.985 . S
H662 N657 0.984 . S
H663 N657 0.985 . S
H664 N661 0.984 . S
H665 N661 0.985 . S
H666 N660 0.984 . S
H667 N660 0.984 . S
H668 N656 0.984 . S
H669 N656 0.985 . S
C670 C671 1.363 . S
C670 C676 1.379 . S
C670 N678 1.356 . S
C671 C670 1.363 . S
C671 C677 1.363 . S
C672 C673 1.363 . S
C672 C677 1.379 . S
C672 N679 1.356 . S
C673 C672 1.363 . S
C673 C676 1.363 . S
N674 C676 1.356 . S
N674 H686 0.984 . S
N674 H687 0.985 . S
N675 C677 1.356 . S
N675 H680 0.984 . S
N675 H681 0.985 . S
C676 C670 1.379 . S
C676 C673 1.363 . S
C676 N674 1.356 . S
C677 C671 1.363 . S
C677 C672 1.379 . S
C677 N675 1.356 . S
N678 C670 1.356 . S
N678 H684 0.984 . S
N678 H685 0.984 . S
N679 C672 1.356 . S
N679 H682 0.984 . S
N679 H683 0.985 . S
H680 N675 0.984 . S
H681 N675 0.985 . S
H682 N679 0.984 . S
H683 N679 0.985 . S
H684 N678 0.984 . S
H685 N678 0.984 . S
H686 N674 0.984 . S
H687 N674 0.985 . S
C688 C689 1.363 . S
C688 C694 1.379 . S
C688 N696 1.356 . S
C689 C688 1.363 . S
C689 C695 1.363 . S
C690 C691 1.363 . S
C690 C695 1.379 . S
C690 N697 1.356 . S
C691 C690 1.363 . S
C691 C694 1.363 . S
N692 C694 1.356 . S
N692 H704 0.984 . S
N692 H705 0.985 . S
N693 C695 1.356 . S
N693 H698 0.984 . S
N693 H699 0.985 . S
C694 C688 1.379 . S
C694 C691 1.363 . S
C694 N692 1.356 . S
C695 C689 1.363 . S
C695 C690 1.379 . S
C695 N693 1.356 . S
N696 C688 1.356 . S
N696 H702 0.984 . S
N696 H703 0.984 . S
N697 C690 1.356 . S
N697 H700 0.984 . S
N697 H701 0.985 . S
H698 N693 0.984 . S
H699 N693 0.985 . S
H700 N697 0.984 . S
H701 N697 0.985 . S
H702 N696 0.984 . S
H703 N696 0.984 . S
H704 N692 0.984 . S
H705 N692 0.985 . S
C706 C707 1.363 . S
C706 C712 1.379 . S
C706 N714 1.356 . S
C707 C706 1.363 . S
C707 C713 1.363 . S
C708 C709 1.363 . S
C708 C713 1.379 . S
C708 N715 1.356 . S
C709 C708 1.363 . S
C709 C712 1.363 . S
N710 C712 1.356 . S
N710 H722 0.984 . S
N710 H723 0.985 . S
N711 C713 1.356 . S
N711 H716 0.984 . S
N711 H717 0.985 . S
C712 C706 1.379 . S
C712 C709 1.363 . S
C712 N710 1.356 . S
C713 C707 1.363 . S
C713 C708 1.379 . S
C713 N711 1.356 . S
N714 C706 1.356 . S
N714 H720 0.984 . S
N714 H721 0.984 . S
N715 C708 1.356 . S
N715 H718 0.984 . S
N715 H719 0.985 . S
H716 N711 0.984 . S
H717 N711 0.985 . S
H718 N715 0.984 . S
H719 N715 0.985 . S
H720 N714 0.984 . S
H721 N714 0.984 . S
H722 N710 0.984 . S
H723 N710 0.985 . S
C724 C725 1.363 . S
C724 C730 1.379 . S
C724 N732 1.356 . S
C725 C724 1.363 . S
C725 C731 1.363 . S
C726 C727 1.363 . S
C726 C731 1.379 . S
C726 N733 1.356 . S
C727 C726 1.363 . S
C727 C730 1.363 . S
N728 C730 1.356 . S
N728 H740 0.984 . S
N728 H741 0.985 . S
N729 C731 1.356 . S
N729 H734 0.984 . S
N729 H735 0.985 . S
C730 C724 1.379 . S
C730 C727 1.363 . S
C730 N728 1.356 . S
C731 C725 1.363 . S
C731 C726 1.379 . S
C731 N729 1.356 . S
N732 C724 1.356 . S
N732 H738 0.984 . S
N732 H739 0.984 . S
N733 C726 1.356 . S
N733 H736 0.984 . S
N733 H737 0.985 . S
H734 N729 0.984 . S
H735 N729 0.985 . S
H736 N733 0.984 . S
H737 N733 0.985 . S
H738 N732 0.984 . S
H739 N732 0.984 . S
H740 N728 0.984 . S
H741 N728 0.985 . S
C742 C743 1.363 . S
C742 C748 1.379 . S
C742 N750 1.356 . S
C743 C742 1.363 . S
C743 C749 1.363 . S
C744 C745 1.363 . S
C744 C749 1.379 . S
C744 N751 1.356 . S
C745 C744 1.363 . S
C745 C748 1.363 . S
N746 C748 1.356 . S
N746 H758 0.984 . S
N746 H759 0.985 . S
N747 C749 1.356 . S
N747 H752 0.984 . S
N747 H753 0.985 . S
C748 C742 1.379 . S
C748 C745 1.363 . S
C748 N746 1.356 . S
C749 C743 1.363 . S
C749 C744 1.379 . S
C749 N747 1.356 . S
N750 C742 1.356 . S
N750 H756 0.984 . S
N750 H757 0.984 . S
N751 C744 1.356 . S
N751 H754 0.984 . S
N751 H755 0.985 . S
H752 N747 0.984 . S
H753 N747 0.985 . S
H754 N751 0.984 . S
H755 N751 0.985 . S
H756 N750 0.984 . S
H757 N750 0.984 . S
H758 N746 0.984 . S
H759 N746 0.985 . S
C760 C761 1.363 . S
C760 C766 1.379 1_556 S
C760 N768 1.356 . S
C761 C760 1.363 . S
C761 C767 1.363 . S
C762 C763 1.363 . S
C762 C767 1.379 1_554 S
C762 N769 1.356 . S
C763 C762 1.363 . S
C763 C766 1.363 . S
N764 C766 1.356 . S
N764 H776 0.984 . S
N764 H777 0.985 . S
N765 C767 1.356 . S
N765 H770 0.984 . S
N765 H771 0.985 . S
C766 C760 1.379 1_554 S
C766 C763 1.363 . S
C766 N764 1.356 . S
C767 C761 1.363 . S
C767 C762 1.379 1_556 S
C767 N765 1.356 . S
N768 C760 1.356 . S
N768 H774 0.984 . S
N768 H775 0.984 . S
N769 C762 1.356 . S
N769 H772 0.984 . S
N769 H773 0.985 . S
H770 N765 0.984 . S
H771 N765 0.985 . S
H772 N769 0.984 . S
H773 N769 0.985 . S
H774 N768 0.984 . S
H775 N768 0.984 . S
H776 N764 0.984 . S
H777 N764 0.985 . S
C778 C779 1.363 . S
C778 C784 1.379 . S
C778 N786 1.356 . S
C779 C778 1.363 . S
C779 C785 1.363 . S
C780 C781 1.363 . S
C780 C785 1.379 . S
C780 N787 1.356 1_455 S
C781 C780 1.363 . S
C781 C784 1.363 . S
N782 C784 1.356 . S
N782 H794 0.984 . S
N782 H795 0.985 . S
N783 C785 1.346 1_655 S
N783 H788 0.977 1_655 S
N783 H789 1.004 . S
C784 C778 1.379 . S
C784 C781 1.363 . S
C784 N782 1.356 . S
C785 C779 1.363 . S
C785 C780 1.379 . S
C785 N783 1.346 1_455 S
N786 C778 1.356 . S
N786 H792 0.984 . S
N786 H793 0.984 . S
N787 C780 1.356 1_655 S
N787 H790 0.984 . S
N787 H791 0.985 . S
H788 N783 0.977 1_455 S
H789 N783 1.004 . S
H790 N787 0.984 . S
H791 N787 0.985 . S
H792 N786 0.984 . S
H793 N786 0.984 . S
H794 N782 0.984 . S
H795 N782 0.985 . S
C796 C797 1.363 . S
C796 C802 1.379 1_554 S
C796 N804 1.356 . S
C797 C796 1.363 . S
C797 C803 1.363 . S
C798 C799 1.363 . S
C798 C803 1.379 1_556 S
C798 N805 1.356 . S
C799 C798 1.363 . S
C799 C802 1.363 . S
N800 C802 1.356 . S
N800 H812 0.984 . S
N800 H813 0.985 . S
N801 C803 1.356 . S
N801 H806 0.984 . S
N801 H807 0.985 . S
C802 C796 1.379 1_556 S
C802 C799 1.363 . S
C802 N800 1.356 . S
C803 C797 1.363 . S
C803 C798 1.379 1_554 S
C803 N801 1.356 . S
N804 C796 1.356 . S
N804 H810 0.984 . S
N804 H811 0.984 . S
N805 C798 1.356 . S
N805 H808 0.984 . S
N805 H809 0.985 . S
H806 N801 0.984 . S
H807 N801 0.985 . S
H808 N805 0.984 . S
H809 N805 0.985 . S
H810 N804 0.984 . S
H811 N804 0.984 . S
H812 N800 0.984 . S
H813 N800 0.985 . S
C814 C815 1.363 . S
C814 C820 1.379 . S
C814 N822 1.356 . S
C815 C814 1.363 . S
C815 C821 1.363 . S
C816 C817 1.363 . S
C816 C821 1.379 . S
C816 N823 1.356 1_455 S
C817 C816 1.363 . S
C817 C820 1.363 . S
N818 C820 1.356 . S
N818 H830 0.984 . S
N818 H831 0.985 . S
N819 C821 1.356 . S
N819 H824 0.984 . S
N819 H825 0.985 1_455 S
C820 C814 1.379 . S
C820 C817 1.363 . S
C820 N818 1.356 . S
C821 C815 1.363 . S
C821 C816 1.379 . S
C821 N819 1.356 . S
N822 C814 1.356 . S
N822 H828 0.984 . S
N822 H829 0.984 . S
N823 C816 1.356 1_655 S
N823 H826 0.984 . S
N823 H827 0.985 . S
H824 N819 0.984 . S
H825 N819 0.985 1_655 S
H826 N823 0.984 . S
H827 N823 0.985 . S
H828 N822 0.984 . S
H829 N822 0.984 . S
H830 N818 0.984 . S
H831 N818 0.985 . S
C832 C833 1.363 . S
C832 C838 1.379 . S
C832 N840 1.356 . S
C833 C832 1.363 . S
C833 C839 1.363 1_554 S
C834 C835 1.363 . S
C834 C839 1.379 . S
C834 N841 1.356 1_455 S
C835 C834 1.363 . S
C835 C838 1.363 1_556 S
N836 C838 1.356 . S
N836 H848 0.984 . S
N836 H849 0.985 . S
N837 C839 1.356 1_655 S
N837 H842 0.979 1_655 S
N837 H843 0.985 . S
C838 C832 1.379 . S
C838 C835 1.363 1_554 S
C838 N836 1.356 . S
C839 C833 1.363 1_556 S
C839 C834 1.379 . S
C839 N837 1.356 1_455 S
N840 C832 1.356 . S
N840 H846 0.984 . S
N840 H847 0.984 . S
N841 C834 1.356 1_655 S
N841 H844 0.979 1_655 S
N841 H845 0.985 . S
H842 N837 0.979 1_455 S
H843 N837 0.985 . S
H844 N841 0.979 1_455 S
H845 N841 0.985 . S
H846 N840 0.984 . S
H847 N840 0.984 . S
H848 N836 0.984 . S
H849 N836 0.985 . S
C850 C851 1.363 . S
C850 C856 1.379 . S
C850 N858 1.356 . S
C851 C850 1.363 . S
C851 C857 1.363 . S
C852 C853 1.363 . S
C852 C857 1.379 . S
C852 N859 1.356 . S
C853 C852 1.363 . S
C853 C856 1.363 . S
N854 C856 1.356 . S
N854 H866 0.984 . S
N854 H867 0.985 . S
N855 C857 1.356 . S
N855 H860 0.984 . S
N855 H861 0.985 . S
C856 C850 1.379 . S
C856 C853 1.363 . S
C856 N854 1.356 . S
C857 C851 1.363 . S
C857 C852 1.379 . S
C857 N855 1.356 . S
N858 C850 1.356 . S
N858 H864 0.984 . S
N858 H865 0.984 . S
N859 C852 1.356 . S
N859 H862 0.984 . S
N859 H863 0.985 . S
H860 N855 0.984 . S
H861 N855 0.985 . S
H862 N859 0.984 . S
H863 N859 0.985 . S
H864 N858 0.984 . S
H865 N858 0.984 . S
H866 N854 0.984 . S
H867 N854 0.985 . S
C868 C869 1.363 . S
C868 C874 1.379 . S
C868 N876 1.356 . S
C869 C868 1.363 . S
C869 C875 1.363 . S
C870 C871 1.363 . S
C870 C875 1.379 . S
C870 N877 1.356 . S
C871 C870 1.363 . S
C871 C874 1.363 . S
N872 C874 1.356 . S
N872 H884 0.984 . S
N872 H885 0.985 . S
N873 C875 1.356 . S
N873 H878 0.984 . S
N873 H879 0.985 . S
C874 C868 1.379 . S
C874 C871 1.363 . S
C874 N872 1.356 . S
C875 C869 1.363 . S
C875 C870 1.379 . S
C875 N873 1.356 . S
N876 C868 1.356 . S
N876 H882 0.984 . S
N876 H883 0.984 . S
N877 C870 1.356 . S
N877 H880 0.984 . S
N877 H881 0.985 . S
H878 N873 0.984 . S
H879 N873 0.985 . S
H880 N877 0.984 . S
H881 N877 0.985 . S
H882 N876 0.984 . S
H883 N876 0.984 . S
H884 N872 0.984 . S
H885 N872 0.985 . S
C886 C887 1.363 . S
C886 C892 1.379 . S
C886 N894 1.356 . S
C887 C886 1.363 . S
C887 C893 1.363 . S
C888 C889 1.363 . S
C888 C893 1.379 . S
C888 N895 1.356 . S
C889 C888 1.363 . S
C889 C892 1.363 . S
N890 C892 1.356 . S
N890 H902 0.984 . S
N890 H903 0.985 . S
N891 C893 1.356 . S
N891 H896 0.984 . S
N891 H897 0.985 . S
C892 C886 1.379 . S
C892 C889 1.363 . S
C892 N890 1.356 . S
C893 C887 1.363 . S
C893 C888 1.379 . S
C893 N891 1.356 . S
N894 C886 1.356 . S
N894 H900 0.984 . S
N894 H901 0.984 . S
N895 C888 1.356 . S
N895 H898 0.984 . S
N895 H899 0.985 . S
H896 N891 0.984 . S
H897 N891 0.985 . S
H898 N895 0.984 . S
H899 N895 0.985 . S
H900 N894 0.984 . S
H901 N894 0.984 . S
H902 N890 0.984 . S
H903 N890 0.985 . S
C904 C905 1.363 . S
C904 C910 1.379 . S
C904 N912 1.356 . S
C905 C904 1.363 . S
C905 C911 1.363 . S
C906 C907 1.363 . S
C906 C911 1.379 . S
C906 N913 1.356 . S
C907 C906 1.363 . S
C907 C910 1.363 . S
N908 C910 1.356 . S
N908 H920 0.984 . S
N908 H921 0.985 . S
N909 C911 1.356 . S
N909 H914 0.984 . S
N909 H915 0.985 . S
C910 C904 1.379 . S
C910 C907 1.363 . S
C910 N908 1.356 . S
C911 C905 1.363 . S
C911 C906 1.379 . S
C911 N909 1.356 . S
N912 C904 1.356 . S
N912 H918 0.984 . S
N912 H919 0.984 . S
N913 C906 1.356 . S
N913 H916 0.984 . S
N913 H917 0.985 . S
H914 N909 0.984 . S
H915 N909 0.985 . S
H916 N913 0.984 . S
H917 N913 0.985 . S
H918 N912 0.984 . S
H919 N912 0.984 . S
H920 N908 0.984 . S
H921 N908 0.985 . S
C922 C923 1.363 . S
C922 C928 1.379 . S
C922 N930 1.356 . S
C923 C922 1.363 . S
C923 C929 1.363 . S
C924 C925 1.363 . S
C924 C929 1.379 . S
C924 N931 1.356 . S
C925 C924 1.363 . S
C925 C928 1.363 . S
N926 C928 1.356 . S
N926 H938 0.984 . S
N926 H939 0.985 . S
N927 C929 1.356 . S
N927 H932 0.984 . S
N927 H933 0.985 . S
C928 C922 1.379 . S
C928 C925 1.363 . S
C928 N926 1.356 . S
C929 C923 1.363 . S
C929 C924 1.379 . S
C929 N927 1.356 . S
N930 C922 1.356 . S
N930 H936 0.984 . S
N930 H937 0.984 . S
N931 C924 1.356 . S
N931 H934 0.984 . S
N931 H935 0.985 . S
H932 N927 0.984 . S
H933 N927 0.985 . S
H934 N931 0.984 . S
H935 N931 0.985 . S
H936 N930 0.984 . S
H937 N930 0.984 . S
H938 N926 0.984 . S
H939 N926 0.985 . S
C940 C941 1.363 . S
C940 C946 1.379 1_545 S
C940 N948 1.356 . S
C941 C940 1.363 . S
C941 C947 1.363 . S
C942 C943 1.363 . S
C942 C947 1.379 1_565 S
C942 N949 1.356 . S
C943 C942 1.363 . S
C943 C946 1.363 . S
N944 C946 1.356 . S
N944 H956 0.984 . S
N944 H957 0.985 . S
N945 C947 1.356 . S
N945 H950 0.984 . S
N945 H951 0.985 . S
C946 C940 1.379 1_565 S
C946 C943 1.363 . S
C946 N944 1.356 . S
C947 C941 1.363 . S
C947 C942 1.379 1_545 S
C947 N945 1.356 . S
N948 C940 1.356 . S
N948 H954 0.984 . S
N948 H955 0.984 . S
N949 C942 1.356 . S
N949 H952 0.984 . S
N949 H953 0.985 . S
H950 N945 0.984 . S
H951 N945 0.985 . S
H952 N949 0.984 . S
H953 N949 0.985 . S
H954 N948 0.984 . S
H955 N948 0.984 . S
H956 N944 0.984 . S
H957 N944 0.985 . S
C958 C959 1.363 . S
C958 C964 1.379 1_565 S
C958 N966 1.356 . S
C959 C958 1.363 . S
C959 C965 1.363 1_654 S
C960 C961 1.363 1_455 S
C960 C965 1.379 1_545 S
C960 N967 1.356 . S
C961 C960 1.363 1_655 S
C961 C964 1.363 1_556 S
N962 C964 1.356 . S
N962 H974 0.984 . S
N962 H975 0.985 . S
N963 C965 1.356 . S
N963 H968 0.984 . S
N963 H969 0.985 . S
C964 C958 1.379 1_545 S
C964 C961 1.363 1_554 S
C964 N962 1.356 . S
C965 C959 1.363 1_456 S
C965 C960 1.379 1_565 S
C965 N963 1.356 . S
N966 C958 1.356 . S
N966 H972 0.984 . S
N966 H973 0.984 . S
N967 C960 1.356 . S
N967 H970 0.984 . S
N967 H971 0.985 . S
H968 N963 0.984 . S
H969 N963 0.985 . S
H970 N967 0.984 . S
H971 N967 0.985 . S
H972 N966 0.984 . S
H973 N966 0.984 . S
H974 N962 0.984 . S
H975 N962 0.985 . S
C976 C977 1.363 . S
C976 C982 1.379 . S
C976 N984 1.356 . S
C977 C976 1.363 . S
C977 C983 1.363 . S
C978 C979 1.363 . S
C978 C983 1.379 . S
C978 N985 1.356 . S
C979 C978 1.363 . S
C979 C982 1.363 . S
N980 C982 1.356 1_556 S
N980 H992 0.984 . S
N980 H993 0.985 . S
N981 C983 1.356 . S
N981 H986 0.984 . S
N981 H987 0.985 . S
C982 C976 1.379 . S
C982 C979 1.363 . S
C982 N980 1.356 1_554 S
C983 C977 1.363 . S
C983 C978 1.379 . S
C983 N981 1.356 . S
N984 C976 1.356 . S
N984 H990 0.984 1_554 S
N984 H991 0.984 . S
N985 C978 1.356 . S
N985 H988 0.984 . S
N985 H989 0.985 . S
H986 N981 0.984 . S
H987 N981 0.985 . S
H988 N985 0.984 . S
H989 N985 0.985 . S
H990 N984 0.984 1_556 S
H991 N984 0.984 . S
H992 N980 0.984 . S
H993 N980 0.985 . S
C994 C995 1.363 . S
C994 C1000 1.379 . S
C994 N1002 1.356 . S
C995 C994 1.363 . S
C995 C1001 1.363 . S
C996 C997 1.363 . S
C996 C1001 1.379 . S
C996 N1003 1.356 . S
C997 C996 1.363 . S
C997 C1000 1.363 . S
N998 C1000 1.356 . S
N998 H1010 0.984 . S
N998 H1011 0.985 . S
N999 C1001 1.356 . S
N999 H1004 0.984 . S
N999 H1005 0.985 . S
C1000 C994 1.379 . S
C1000 C997 1.363 . S
C1000 N998 1.356 . S
C1001 C995 1.363 . S
C1001 C996 1.379 . S
C1001 N999 1.356 . S
N1002 C994 1.356 . S
N1002 H1008 0.984 . S
N1002 H1009 0.984 . S
N1003 C996 1.356 . S
N1003 H1006 0.984 . S
N1003 H1007 0.985 . S
H1004 N999 0.984 . S
H1005 N999 0.985 . S
H1006 N1003 0.984 . S
H1007 N1003 0.985 . S
H1008 N1002 0.984 . S
H1009 N1002 0.984 . S
H1010 N998 0.984 . S
H1011 N998 0.985 . S
C1012 C1013 1.363 . S
C1012 C1018 1.379 . S
C1012 N1020 1.356 . S
C1013 C1012 1.363 . S
C1013 C1019 1.363 . S
C1014 C1015 1.363 . S
C1014 C1019 1.379 . S
C1014 N1021 1.356 . S
C1015 C1014 1.363 . S
C1015 C1018 1.363 . S
N1016 C1018 1.356 . S
N1016 H1028 0.984 . S
N1016 H1029 0.985 . S
N1017 C1019 1.356 . S
N1017 H1022 0.984 . S
N1017 H1023 0.985 . S
C1018 C1012 1.379 . S
C1018 C1015 1.363 . S
C1018 N1016 1.356 . S
C1019 C1013 1.363 . S
C1019 C1014 1.379 . S
C1019 N1017 1.356 . S
N1020 C1012 1.356 . S
N1020 H1026 0.984 . S
N1020 H1027 0.984 . S
N1021 C1014 1.356 . S
N1021 H1024 0.984 . S
N1021 H1025 0.985 . S
H1022 N1017 0.984 . S
H1023 N1017 0.985 . S
H1024 N1021 0.984 . S
H1025 N1021 0.985 . S
H1026 N1020 0.984 . S
H1027 N1020 0.984 . S
H1028 N1016 0.984 . S
H1029 N1016 0.985 . S
C1030 C1031 1.363 . S
C1030 C1036 1.379 . S
C1030 N1038 1.356 1_556 S
C1031 C1030 1.363 . S
C1031 C1037 1.363 . S
C1032 C1033 1.363 . S
C1032 C1037 1.379 . S
C1032 N1039 1.356 . S
C1033 C1032 1.363 . S
C1033 C1036 1.363 . S
N1034 C1036 1.356 . S
N1034 H1046 0.984 1_556 S
N1034 H1047 0.985 . S
N1035 C1037 1.356 . S
N1035 H1040 0.984 . S
N1035 H1041 0.985 . S
C1036 C1030 1.379 . S
C1036 C1033 1.363 . S
C1036 N1034 1.356 . S
C1037 C1031 1.363 . S
C1037 C1032 1.379 . S
C1037 N1035 1.356 . S
N1038 C1030 1.356 1_554 S
N1038 H1044 0.984 . S
N1038 H1045 0.984 . S
N1039 C1032 1.356 . S
N1039 H1042 0.984 . S
N1039 H1043 0.985 . S
H1040 N1035 0.984 . S
H1041 N1035 0.985 . S
H1042 N1039 0.984 . S
H1043 N1039 0.985 . S
H1044 N1038 0.984 . S
H1045 N1038 0.984 . S
H1046 N1034 0.984 1_554 S
H1047 N1034 0.985 . S
C1048 C1049 1.363 . S
C1048 C1054 1.379 . S
C1048 N1056 1.356 . S
C1049 C1048 1.363 . S
C1049 C1055 1.363 . S
C1050 C1051 1.363 . S
C1050 C1055 1.379 . S
C1050 N1057 1.356 . S
C1051 C1050 1.363 . S
C1051 C1054 1.363 . S
N1052 C1054 1.356 . S
N1052 H1064 0.984 . S
N1052 H1065 0.985 . S
N1053 C1055 1.356 . S
N1053 H1058 0.984 . S
N1053 H1059 0.985 . S
C1054 C1048 1.379 . S
C1054 C1051 1.363 . S
C1054 N1052 1.356 . S
C1055 C1049 1.363 . S
C1055 C1050 1.379 . S
C1055 N1053 1.356 . S
N1056 C1048 1.356 . S
N1056 H1062 0.984 . S
N1056 H1063 0.984 . S
N1057 C1050 1.356 . S
N1057 H1060 0.984 . S
N1057 H1061 0.985 . S
H1058 N1053 0.984 . S
H1059 N1053 0.985 . S
H1060 N1057 0.984 . S
H1061 N1057 0.985 . S
H1062 N1056 0.984 . S
H1063 N1056 0.984 . S
H1064 N1052 0.984 . S
H1065 N1052 0.985 . S
C1066 C1067 1.363 . S
C1066 C1072 1.379 . S
C1066 N1074 1.356 . S
C1067 C1066 1.363 . S
C1067 C1073 1.363 . S
C1068 C1069 1.363 . S
C1068 C1073 1.379 . S
C1068 N1075 1.356 . S
C1069 C1068 1.363 . S
C1069 C1072 1.363 . S
N1070 C1072 1.356 . S
N1070 H1082 0.984 . S
N1070 H1083 0.985 . S
N1071 C1073 1.356 1_556 S
N1071 H1076 0.984 . S
N1071 H1077 0.985 . S
C1072 C1066 1.379 . S
C1072 C1069 1.363 . S
C1072 N1070 1.356 . S
C1073 C1067 1.363 . S
C1073 C1068 1.379 . S
C1073 N1071 1.356 1_554 S
N1074 C1066 1.356 . S
N1074 H1080 0.984 . S
N1074 H1081 0.984 . S
N1075 C1068 1.356 . S
N1075 H1078 0.984 . S
N1075 H1079 0.985 1_554 S
H1076 N1071 0.984 . S
H1077 N1071 0.985 . S
H1078 N1075 0.984 . S
H1079 N1075 0.985 1_556 S
H1080 N1074 0.984 . S
H1081 N1074 0.984 . S
H1082 N1070 0.984 . S
H1083 N1070 0.985 . S
C1084 C1085 1.363 . S
C1084 C1090 1.379 . S
C1084 N1092 1.356 . S
C1085 C1084 1.363 . S
C1085 C1091 1.363 . S
C1086 C1087 1.363 . S
C1086 C1091 1.379 . S
C1086 N1093 1.356 . S
C1087 C1086 1.363 . S
C1087 C1090 1.363 . S
N1088 C1090 1.356 . S
N1088 H1100 0.984 . S
N1088 H1101 0.985 . S
N1089 C1091 1.356 . S
N1089 H1094 0.984 . S
N1089 H1095 0.985 . S
C1090 C1084 1.379 . S
C1090 C1087 1.363 . S
C1090 N1088 1.356 . S
C1091 C1085 1.363 . S
C1091 C1086 1.379 . S
C1091 N1089 1.356 . S
N1092 C1084 1.356 . S
N1092 H1098 0.984 . S
N1092 H1099 0.984 . S
N1093 C1086 1.356 . S
N1093 H1096 0.984 . S
N1093 H1097 0.985 . S
H1094 N1089 0.984 . S
H1095 N1089 0.985 . S
H1096 N1093 0.984 . S
H1097 N1093 0.985 . S
H1098 N1092 0.984 . S
H1099 N1092 0.984 . S
H1100 N1088 0.984 . S
H1101 N1088 0.985 . S
C1102 C1103 1.363 . S
C1102 C1108 1.379 . S
C1102 N1110 1.356 . S
C1103 C1102 1.363 . S
C1103 C1109 1.363 . S
C1104 C1105 1.363 . S
C1104 C1109 1.379 . S
C1104 N1111 1.356 . S
C1105 C1104 1.363 . S
C1105 C1108 1.363 . S
N1106 C1108 1.356 . S
N1106 H1118 0.984 . S
N1106 H1119 0.985 . S
N1107 C1109 1.356 . S
N1107 H1112 0.984 . S
N1107 H1113 0.985 . S
C1108 C1102 1.379 . S
C1108 C1105 1.363 . S
C1108 N1106 1.356 . S
C1109 C1103 1.363 . S
C1109 C1104 1.379 . S
C1109 N1107 1.356 . S
N1110 C1102 1.356 . S
N1110 H1116 0.984 . S
N1110 H1117 0.984 . S
N1111 C1104 1.356 . S
N1111 H1114 0.984 . S
N1111 H1115 0.985 . S
H1112 N1107 0.984 . S
H1113 N1107 0.985 . S
H1114 N1111 0.984 . S
H1115 N1111 0.985 . S
H1116 N1110 0.984 . S
H1117 N1110 0.984 . S
H1118 N1106 0.984 . S
H1119 N1106 0.985 . S
C1120 C1121 1.363 . S
C1120 C1126 1.379 . S
C1120 N1128 1.356 . S
C1121 C1120 1.363 . S
C1121 C1127 1.363 . S
C1122 C1123 1.363 . S
C1122 C1127 1.379 . S
C1122 N1129 1.356 . S
C1123 C1122 1.363 . S
C1123 C1126 1.363 . S
N1124 C1126 1.356 . S
N1124 H1136 0.984 . S
N1124 H1137 0.985 . S
N1125 C1127 1.356 1_554 S
N1125 H1130 0.984 . S
N1125 H1131 0.985 . S
C1126 C1120 1.379 . S
C1126 C1123 1.363 . S
C1126 N1124 1.356 . S
C1127 C1121 1.363 . S
C1127 C1122 1.379 . S
C1127 N1125 1.356 1_556 S
N1128 C1120 1.356 . S
N1128 H1134 0.984 . S
N1128 H1135 0.984 . S
N1129 C1122 1.356 . S
N1129 H1132 0.984 . S
N1129 H1133 0.985 1_556 S
H1130 N1125 0.984 . S
H1131 N1125 0.985 . S
H1132 N1129 0.984 . S
H1133 N1129 0.985 1_554 S
H1134 N1128 0.984 . S
H1135 N1128 0.984 . S
H1136 N1124 0.984 . S
H1137 N1124 0.985 . S
C1138 C1139 1.363 . S
C1138 C1144 1.379 . S
C1138 N1146 1.356 . S
C1139 C1138 1.363 . S
C1139 C1145 1.363 . S
C1140 C1141 1.363 . S
C1140 C1145 1.379 . S
C1140 N1147 1.356 . S
C1141 C1140 1.363 . S
C1141 C1144 1.363 . S
N1142 C1144 1.356 . S
N1142 H1154 0.984 . S
N1142 H1155 0.985 . S
N1143 C1145 1.356 . S
N1143 H1148 0.984 . S
N1143 H1149 0.985 . S
C1144 C1138 1.379 . S
C1144 C1141 1.363 . S
C1144 N1142 1.356 . S
C1145 C1139 1.363 . S
C1145 C1140 1.379 . S
C1145 N1143 1.356 . S
N1146 C1138 1.356 . S
N1146 H1152 0.984 . S
N1146 H1153 0.984 . S
N1147 C1140 1.356 . S
N1147 H1150 0.984 . S
N1147 H1151 0.985 . S
H1148 N1143 0.984 . S
H1149 N1143 0.985 . S
H1150 N1147 0.984 . S
H1151 N1147 0.985 . S
H1152 N1146 0.984 . S
H1153 N1146 0.984 . S
H1154 N1142 0.984 . S
H1155 N1142 0.985 . S
C1156 C1157 1.363 . S
C1156 C1162 1.379 . S
C1156 N1164 1.356 . S
C1157 C1156 1.363 . S
C1157 C1163 1.363 . S
C1158 C1159 1.363 . S
C1158 C1163 1.379 . S
C1158 N1165 1.356 . S
C1159 C1158 1.363 . S
C1159 C1162 1.363 . S
N1160 C1162 1.356 . S
N1160 H1172 0.984 . S
N1160 H1173 0.985 . S
N1161 C1163 1.356 . S
N1161 H1166 0.984 . S
N1161 H1167 0.985 . S
C1162 C1156 1.379 . S
C1162 C1159 1.363 . S
C1162 N1160 1.356 . S
C1163 C1157 1.363 . S
C1163 C1158 1.379 . S
C1163 N1161 1.356 . S
N1164 C1156 1.356 . S
N1164 H1170 0.984 . S
N1164 H1171 0.984 . S
N1165 C1158 1.356 . S
N1165 H1168 0.984 . S
N1165 H1169 0.985 . S
H1166 N1161 0.984 . S
H1167 N1161 0.985 . S
H1168 N1165 0.984 . S
H1169 N1165 0.985 . S
H1170 N1164 0.984 . S
H1171 N1164 0.984 . S
H1172 N1160 0.984 . S
H1173 N1160 0.985 . S
C1174 C1175 1.363 . S
C1174 C1180 1.379 . S
C1174 N1182 1.356 . S
C1175 C1174 1.363 . S
C1175 C1181 1.363 . S
C1176 C1177 1.363 . S
C1176 C1181 1.379 . S
C1176 N1183 1.356 . S
C1177 C1176 1.363 . S
C1177 C1180 1.363 . S
N1178 C1180 1.356 . S
N1178 H1190 0.984 . S
N1178 H1191 0.985 . S
N1179 C1181 1.356 . S
N1179 H1184 0.984 . S
N1179 H1185 0.985 . S
C1180 C1174 1.379 . S
C1180 C1177 1.363 . S
C1180 N1178 1.356 . S
C1181 C1175 1.363 . S
C1181 C1176 1.379 . S
C1181 N1179 1.356 . S
N1182 C1174 1.356 . S
N1182 H1188 0.984 . S
N1182 H1189 0.984 . S
N1183 C1176 1.356 . S
N1183 H1186 0.984 . S
N1183 H1187 0.985 . S
H1184 N1179 0.984 . S
H1185 N1179 0.985 . S
H1186 N1183 0.984 . S
H1187 N1183 0.985 . S
H1188 N1182 0.984 . S
H1189 N1182 0.984 . S
H1190 N1178 0.984 . S
H1191 N1178 0.985 . S
C1192 C1193 1.363 . S
C1192 C1198 1.379 . S
C1192 N1200 1.356 . S
C1193 C1192 1.363 . S
C1193 C1199 1.363 . S
C1194 C1195 1.363 . S
C1194 C1199 1.379 . S
C1194 N1201 1.356 . S
C1195 C1194 1.363 . S
C1195 C1198 1.363 . S
N1196 C1198 1.356 1_556 S
N1196 H1208 0.984 . S
N1196 H1209 0.985 . S
N1197 C1199 1.356 . S
N1197 H1202 0.984 . S
N1197 H1203 0.985 . S
C1198 C1192 1.379 . S
C1198 C1195 1.363 . S
C1198 N1196 1.356 1_554 S
C1199 C1193 1.363 . S
C1199 C1194 1.379 . S
C1199 N1197 1.356 . S
N1200 C1192 1.356 . S
N1200 H1206 0.984 1_554 S
N1200 H1207 0.984 . S
N1201 C1194 1.356 . S
N1201 H1204 0.984 . S
N1201 H1205 0.985 . S
H1202 N1197 0.984 . S
H1203 N1197 0.985 . S
H1204 N1201 0.984 . S
H1205 N1201 0.985 . S
H1206 N1200 0.984 1_556 S
H1207 N1200 0.984 . S
H1208 N1196 0.984 . S
H1209 N1196 0.985 . S
C1210 C1211 1.363 . S
C1210 C1216 1.379 . S
C1210 N1218 1.356 . S
C1211 C1210 1.363 . S
C1211 C1217 1.363 . S
C1212 C1213 1.363 . S
C1212 C1217 1.379 . S
C1212 N1219 1.356 . S
C1213 C1212 1.363 . S
C1213 C1216 1.363 . S
N1214 C1216 1.356 . S
N1214 H1226 0.984 . S
N1214 H1227 0.985 . S
N1215 C1217 1.356 . S
N1215 H1220 0.984 . S
N1215 H1221 0.985 . S
C1216 C1210 1.379 . S
C1216 C1213 1.363 . S
C1216 N1214 1.356 . S
C1217 C1211 1.363 . S
C1217 C1212 1.379 . S
C1217 N1215 1.356 . S
N1218 C1210 1.356 . S
N1218 H1224 0.984 . S
N1218 H1225 0.984 . S
N1219 C1212 1.356 . S
N1219 H1222 0.984 . S
N1219 H1223 0.985 . S
H1220 N1215 0.984 . S
H1221 N1215 0.985 . S
H1222 N1219 0.984 . S
H1223 N1219 0.985 . S
H1224 N1218 0.984 . S
H1225 N1218 0.984 . S
H1226 N1214 0.984 . S
H1227 N1214 0.985 . S
C1228 C1229 1.363 . S
C1228 C1234 1.379 . S
C1228 N1236 1.356 . S
C1229 C1228 1.363 . S
C1229 C1235 1.363 . S
C1230 C1231 1.363 . S
C1230 C1235 1.379 . S
C1230 N1237 1.356 . S
C1231 C1230 1.363 . S
C1231 C1234 1.363 . S
N1232 C1234 1.356 . S
N1232 H1244 0.984 . S
N1232 H1245 0.985 . S
N1233 C1235 1.356 . S
N1233 H1238 0.984 . S
N1233 H1239 0.985 . S
C1234 C1228 1.379 . S
C1234 C1231 1.363 . S
C1234 N1232 1.356 . S
C1235 C1229 1.363 . S
C1235 C1230 1.379 . S
C1235 N1233 1.356 . S
N1236 C1228 1.356 . S
N1236 H1242 0.984 . S
N1236 H1243 0.984 . S
N1237 C1230 1.356 . S
N1237 H1240 0.984 . S
N1237 H1241 0.985 . S
H1238 N1233 0.984 . S
H1239 N1233 0.985 . S
H1240 N1237 0.984 . S
H1241 N1237 0.985 . S
H1242 N1236 0.984 . S
H1243 N1236 0.984 . S
H1244 N1232 0.984 . S
H1245 N1232 0.985 . S
C1246 C1247 1.363 . S
C1246 C1252 1.379 . S
C1246 N1254 1.356 . S
C1247 C1246 1.363 . S
C1247 C1253 1.363 . S
C1248 C1249 1.363 . S
C1248 C1253 1.379 . S
C1248 N1255 1.356 . S
C1249 C1248 1.363 . S
C1249 C1252 1.363 . S
N1250 C1252 1.356 . S
N1250 H1262 0.984 . S
N1250 H1263 0.985 . S
N1251 C1253 1.356 . S
N1251 H1256 0.984 . S
N1251 H1257 0.985 . S
C1252 C1246 1.379 . S
C1252 C1249 1.363 . S
C1252 N1250 1.356 . S
C1253 C1247 1.363 . S
C1253 C1248 1.379 . S
C1253 N1251 1.356 . S
N1254 C1246 1.356 . S
N1254 H1260 0.984 . S
N1254 H1261 0.984 . S
N1255 C1248 1.356 . S
N1255 H1258 0.984 . S
N1255 H1259 0.985 . S
H1256 N1251 0.984 . S
H1257 N1251 0.985 . S
H1258 N1255 0.984 . S
H1259 N1255 0.985 . S
H1260 N1254 0.984 . S
H1261 N1254 0.984 . S
H1262 N1250 0.984 . S
H1263 N1250 0.985 . S
C545 C9 1.367 . S
C547 C5 1.451 . S
C563 C43 1.365 . S
C565 C39 1.451 . S
C581 C77 1.365 . S
C583 C73 1.451 . S
C599 C111 1.365 . S
C601 C107 1.451 . S
C617 C145 1.367 . S
C619 C141 1.451 . S
C635 C179 1.365 . S
C637 C175 1.451 . S
C653 C213 1.365 . S
C655 C209 1.451 . S
C671 C243 1.451 . S
C673 C247 1.365 . S
C689 C277 1.451 . S
C691 C281 1.365 . S
C707 C315 1.365 . S
C709 C311 1.451 . S
C725 C349 1.365 . S
C727 C345 1.451 . S
C743 C379 1.451 . S
C745 C383 1.365 . S
C761 C413 1.451 . S
C763 C417 1.365 . S
C779 C451 1.365 . S
C781 C447 1.451 . S
C797 C481 1.451 . S
C799 C485 1.365 . S
C815 C519 1.365 . S
C817 C515 1.451 . S
C833 C20 1.516 . S
C835 C156 1.516 . S
C851 C190 1.517 . S
C853 C54 1.517 . S
C869 C224 1.516 . S
C871 C88 1.516 . S
C887 C122 1.517 . S
C889 C258 1.517 . S
C905 C360 1.517 . S
C907 C292 1.517 . S
C923 C326 1.517 . S
C925 C394 1.517 . S
C941 C428 1.516 . S
C943 C496 1.516 . S
C959 C462 1.516 . S
C961 C530 1.516 . S
C977 C339 1.268 . S
C979 C33 1.268 . S
C995 C509 1.268 . S
C997 C67 1.268 . S
C1013 C101 1.268 . S
C1015 C305 1.268 . S
C1031 C543 1.268 . S
C1033 C135 1.268 . S
C1049 C373 1.268 . S
C1051 C169 1.268 . S
C1067 C475 1.268 . S
C1069 C203 1.268 . S
C1085 C237 1.268 . S
C1087 C407 1.268 . S
C1103 C271 1.268 . S
C1105 C441 1.268 . S
C1121 C138 1.654 . S
C1123 C104 1.654 . S
C1139 C410 1.654 . S
C1141 C274 1.654 . S
C1157 C36 1.654 . S
C1159 C206 1.654 . S
C1175 C444 1.654 . S
C1177 C308 1.654 . S
C1193 C172 1.654 . S
C1195 C2 1.654 . S
C1211 C342 1.654 . S
C1213 C512 1.654 . S
C1229 C240 1.654 . S
C1231 C70 1.654 . S
C1247 C478 1.654 . S
C1249 C376 1.654 . S
