# Generated by pormake.
# Topology sml, (6)-cn, num edge types: 1
# Building blocks:
#     Node 0, Type 0, BuildingBlock: BETDAH_clean_sbu_0, # of connection points: 6
#     Node 1, Type 0, BuildingBlock: BETDAH_clean_sbu_0, # of connection points: 6
#     Node 2, Type 0, BuildingBlock: BETDAH_clean_sbu_0, # of connection points: 6
#     Node 3, Type 0, BuildingBlock: BETDAH_clean_sbu_0, # of connection points: 6
#     Node 4, Type 0, BuildingBlock: BETDAH_clean_sbu_0, # of connection points: 6
#     Node 5, Type 0, BuildingBlock: BETDAH_clean_sbu_0, # of connection points: 6
#     Edge 6, Type (0, 0), BuildingBlock: XIVTED_clean_linker_0, # of connection points: 2
#     Edge 7, Type (0, 0), BuildingBlock: XIVTED_clean_linker_0, # of connection points: 2
#     Edge 8, Type (0, 0), BuildingBlock: XIVTED_clean_linker_0, # of connection points: 2
#     Edge 9, Type (0, 0), BuildingBlock: XIVTED_clean_linker_0, # of connection points: 2
#     Edge 10, Type (0, 0), BuildingBlock: XIVTED_clean_linker_0, # of connection points: 2
#     Edge 11, Type (0, 0), BuildingBlock: XIVTED_clean_linker_0, # of connection points: 2
#     Edge 12, Type (0, 0), BuildingBlock: XIVTED_clean_linker_0, # of connection points: 2
#     Edge 13, Type (0, 0), BuildingBlock: XIVTED_clean_linker_0, # of connection points: 2
#     Edge 14, Type (0, 0), BuildingBlock: XIVTED_clean_linker_0, # of connection points: 2
#     Edge 15, Type (0, 0), BuildingBlock: XIVTED_clean_linker_0, # of connection points: 2
#     Edge 16, Type (0, 0), BuildingBlock: XIVTED_clean_linker_0, # of connection points: 2
#     Edge 17, Type (0, 0), BuildingBlock: XIVTED_clean_linker_0, # of connection points: 2
#     Edge 18, Type (0, 0), BuildingBlock: XIVTED_clean_linker_0, # of connection points: 2
#     Edge 19, Type (0, 0), BuildingBlock: XIVTED_clean_linker_0, # of connection points: 2
#     Edge 20, Type (0, 0), BuildingBlock: XIVTED_clean_linker_0, # of connection points: 2
#     Edge 21, Type (0, 0), BuildingBlock: XIVTED_clean_linker_0, # of connection points: 2
#     Edge 22, Type (0, 0), BuildingBlock: XIVTED_clean_linker_0, # of connection points: 2
#     Edge 23, Type (0, 0), BuildingBlock: XIVTED_clean_linker_0, # of connection points: 2
# Relax obj value: 0.178
# Max RMSD: 0.218
# Mean RMSD: 0.218
data_MOF--net-sml--node1-BETDAH_clean_sbu_0--edge1-XIVTED_clean_linker_0
_symmetry_space_group_name_H-M    P1
_symmetry_Int_Tables_number       1
_symmetry_cell_setting            triclinic
loop_
_symmetry_equiv_pos_as_xyz
'x, y, z'
_cell_length_a     32.442941
_cell_length_b     32.283999
_cell_length_c     25.268988
_cell_angle_alpha  89.848265
_cell_angle_beta   90.256625
_cell_angle_gamma 119.96171
loop_
_atom_site_label
_atom_site_type_symbol
_atom_site_fract_x
_atom_site_fract_y
_atom_site_fract_z
_atom_type_partial_charge
Ho0 Ho 0.15609 0.42302 0.10044 0.0
Ho1 Ho 0.1988 0.39648 0.19729 0.0
C2 C 0.17801 0.33497 0.09417 0.0
C3 C 0.13865 0.44454 1.00756 0.0
C4 C 0.14767 0.43781 0.9518 0.0
C5 C 0.19405 0.45883 0.93124 0.0
C6 C 0.20129 0.4528 0.8779 0.0
C7 C 0.16238 0.42542 0.84424 0.0
C8 C 0.11613 0.40419 0.86504 0.0
C9 C 0.10889 0.41052 0.91815 0.0
C10 C 0.09314 0.36975 0.17457 0.0
C11 C 0.1735 0.48196 0.2062 0.0
C12 C 0.21996 0.37544 0.28859 0.0
C13 C 0.21307 0.38167 0.34535 0.0
C14 C 0.16962 0.35188 0.37081 0.0
C15 C 0.16418 0.35754 0.42473 0.0
C16 C 0.20229 0.39263 0.45467 0.0
C17 C 0.24583 0.42209 0.42917 0.0
C18 C 0.25114 0.41663 0.37523 0.0
C19 C 0.261 0.45027 0.12162 0.0
O20 O 0.175 0.36932 0.06872 0.0
O21 O 0.18096 0.334 0.14619 0.0
O22 O 0.10875 0.4059 0.03329 0.0
O23 O 0.17524 0.47389 0.03649 0.0
O24 O 0.08794 0.39931 0.14433 0.0
O25 O 0.12846 0.36625 0.16049 0.0
O26 O 0.17945 0.44892 0.23048 0.0
O27 O 0.16836 0.48297 0.15431 0.0
O28 O 0.2484 0.41425 0.26219 0.0
O29 O 0.18247 0.34571 0.26101 0.0
O30 O 0.26492 0.41847 0.14918 0.0
O31 O 0.22635 0.45391 0.13788 0.0
H32 H 0.22474 0.48004 0.95615 0.0
H33 H 0.23736 0.46926 0.86311 0.0
H34 H 0.08541 0.38344 0.83997 0.0
H35 H 0.0728 0.39427 0.9329 0.0
H36 H 0.1398 0.32397 0.34926 0.0
H37 H 0.12998 0.3345 0.44286 0.0
H38 H 0.27625 0.44884 0.45109 0.0
H39 H 0.28535 0.43953 0.35699 0.0
Ho40 Ho 0.80036 0.24596 0.53938 0.0
Ho41 Ho 0.7594 0.1785 0.44085 0.0
C42 C 0.7753 0.13457 0.54511 0.0
C43 C 0.8122 0.28563 0.63127 0.0
C44 C 0.8045 0.27186 0.68736 0.0
C45 C 0.7786 0.22377 0.70296 0.0
C46 C 0.7725 0.21176 0.75681 0.0
C47 C 0.79203 0.24772 0.79579 0.0
C48 C 0.81782 0.29582 0.77962 0.0
C49 C 0.82399 0.3077 0.72595 0.0
C50 C 0.86568 0.25478 0.46922 0.0
C51 C 0.79085 0.29089 0.43132 0.0
C52 C 0.7374 0.13553 0.35006 0.0
C53 C 0.74769 0.14807 0.29382 0.0
C54 C 0.77299 0.19591 0.27722 0.0
C55 C 0.78034 0.20697 0.22324 0.0
C56 C 0.76248 0.17035 0.18498 0.0
C57 C 0.73783 0.12248 0.20211 0.0
C58 C 0.73053 0.11151 0.25602 0.0
C59 C 0.69672 0.17355 0.51371 0.0
O60 O 0.78006 0.17249 0.57091 0.0
O61 O 0.77327 0.13155 0.49302 0.0
O62 O 0.84514 0.28067 0.60728 0.0
O63 O 0.77402 0.27173 0.60219 0.0
O64 O 0.87098 0.28925 0.49994 0.0
O65 O 0.82863 0.21617 0.48104 0.0
O66 O 0.78473 0.25182 0.40721 0.0
O67 O 0.79292 0.29564 0.48342 0.0
O68 O 0.71195 0.15111 0.37363 0.0
O69 O 0.77276 0.14004 0.37935 0.0
O70 O 0.69186 0.13644 0.48854 0.0
O71 O 0.7326 0.21056 0.49726 0.0
H72 H 0.76313 0.19562 0.6736 0.0
H73 H 0.75207 0.17443 0.7679 0.0
H74 H 0.83394 0.32435 0.80849 0.0
H75 H 0.84425 0.345 0.71453 0.0
H76 H 0.78661 0.22466 0.30586 0.0
H77 H 0.80002 0.24418 0.21151 0.0
H78 H 0.72306 0.09341 0.17382 0.0
H79 H 0.71078 0.07438 0.26817 0.0
Ho80 Ho 0.54576 0.72373 0.7561 0.0
Ho81 Ho 0.5878 0.7874 0.85591 0.0
C82 C 0.63527 0.83342 0.74679 0.0
C83 C 0.50719 0.68811 0.66545 0.0
C84 C 0.51837 0.69972 0.60916 0.0
C85 C 0.54377 0.74728 0.59155 0.0
C86 C 0.55347 0.75735 0.5377 0.0
C87 C 0.53805 0.72001 0.5006 0.0
C88 C 0.51291 0.67246 0.51862 0.0
C89 C 0.50317 0.66246 0.57241 0.0
C90 C 0.61223 0.71341 0.80857 0.0
C91 C 0.50125 0.67818 0.86686 0.0
C92 C 0.62157 0.82659 0.94701 0.0
C93 C 0.61297 0.81395 1.00329 0.0
C94 C 0.58951 0.76613 0.02015 0.0
C95 C 0.58104 0.75522 0.07406 0.0
C96 C 0.59573 0.79199 0.11181 0.0
C97 C 0.61948 0.83979 0.09449 0.0
C98 C 0.62797 0.8506 0.04073 0.0
C99 C 0.52173 0.79654 0.80042 0.0
O100 O 0.59856 0.79672 0.7232 0.0
O101 O 0.64273 0.83469 0.79833 0.0
O102 O 0.53415 0.67539 0.69121 0.0
O103 O 0.49791 0.71687 0.69275 0.0
O104 O 0.57621 0.67853 0.78454 0.0
O105 O 0.61247 0.75207 0.80099 0.0
O106 O 0.53994 0.71347 0.88894 0.0
O107 O 0.49146 0.67793 0.81598 0.0
O108 O 0.58802 0.82995 0.92202 0.0
O109 O 0.63888 0.80478 0.91918 0.0
O110 O 0.55902 0.83256 0.821 0.0
O111 O 0.5211 0.75833 0.81133 0.0
H112 H 0.55594 0.7766 0.61934 0.0
H113 H 0.5734 0.79434 0.52518 0.0
H114 H 0.5 0.6429 0.49105 0.0
H115 H 0.48346 0.62554 0.58532 0.0
H116 H 0.57753 0.73731 0.9917 0.0
H117 H 0.56227 0.71805 0.08606 0.0
H118 H 0.63192 0.86895 0.12254 0.0
H119 H 0.64622 0.8877 0.02834 0.0
Ho120 Ho 0.7368 0.5731 0.19678 0.0
Ho121 Ho 0.8073 0.59355 0.10182 0.0
C122 C 0.84946 0.65436 0.20575 0.0
C123 C 0.69816 0.55226 0.28941 0.0
C124 C 0.71421 0.55855 0.34538 0.0
C125 C 0.73392 0.53216 0.36738 0.0
C126 C 0.74702 0.53733 0.42089 0.0
C127 C 0.74095 0.56912 0.45351 0.0
C128 C 0.72168 0.59577 0.4313 0.0
C129 C 0.70825 0.59035 0.37798 0.0
C130 C 0.73476 0.63006 0.12069 0.0
C131 C 0.69379 0.51397 0.09129 0.0
C132 C 0.84943 0.61157 0.01096 0.0
C133 C 0.83612 0.606 0.95401 0.0
C134 C 0.82865 0.64006 0.92748 0.0
C135 C 0.81741 0.63518 0.87348 0.0
C136 C 0.81408 0.5965 0.84435 0.0
C137 C 0.82193 0.56266 0.8709 0.0
C138 C 0.83284 0.56738 0.92497 0.0
C139 C 0.80716 0.53659 0.17977 0.0
O140 O 0.80975 0.62325 0.23006 0.0
O141 O 0.85515 0.65399 0.15408 0.0
O142 O 0.70717 0.5911 0.2635 0.0
O143 O 0.70455 0.52227 0.26051 0.0
O144 O 0.69859 0.60357 0.15075 0.0
O145 O 0.77102 0.62867 0.13619 0.0
O146 O 0.73486 0.54305 0.06804 0.0
O147 O 0.68642 0.51524 0.14257 0.0
O148 O 0.83689 0.57234 0.03786 0.0
O149 O 0.84429 0.64323 0.03809 0.0
O150 O 0.84523 0.56573 0.15373 0.0
O151 O 0.77166 0.53721 0.16083 0.0
H152 H 0.73901 0.50728 0.34347 0.0
H153 H 0.76218 0.51662 0.43667 0.0
H154 H 0.71593 0.62007 0.45547 0.0
H155 H 0.69273 0.61078 0.36231 0.0
H156 H 0.83154 0.67066 0.94836 0.0
H157 H 0.81104 0.66166 0.8547 0.0
H158 H 0.82061 0.53291 0.84972 0.0
H159 H 0.83925 0.54097 0.94392 0.0
Ho160 Ho 0.24249 0.81259 0.44421 0.0
Ho161 Ho 0.17048 0.7716 0.53948 0.0
C162 C 0.13248 0.79021 0.43238 0.0
C163 C 0.28052 0.82295 0.35187 0.0
C164 C 0.26439 0.81533 0.29582 0.0
C165 C 0.24045 0.7693 0.27331 0.0
C166 C 0.22712 0.76312 0.21982 0.0
C167 C 0.23726 0.80274 0.18767 0.0
C168 C 0.26089 0.84863 0.21036 0.0
C169 C 0.27448 0.85484 0.26366 0.0
C170 C 0.249 0.87768 0.51369 0.0
C171 C 0.28156 0.7988 0.55408 0.0
C172 C 0.12765 0.75191 0.63002 0.0
C173 C 0.14091 0.75825 0.68703 0.0
C174 C 0.15529 0.80184 0.71312 0.0
C175 C 0.16662 0.80684 0.76715 0.0
C176 C 0.16326 0.76821 0.79665 0.0
C177 C 0.14846 0.72454 0.77052 0.0
C178 C 0.13739 0.71963 0.7165 0.0
C179 C 0.16727 0.70892 0.46741 0.0
O180 O 0.17114 0.79453 0.40944 0.0
O181 O 0.12631 0.78674 0.48418 0.0
O182 O 0.27912 0.85761 0.37712 0.0
O183 O 0.26702 0.78493 0.38142 0.0
O184 O 0.28464 0.88315 0.48526 0.0
O185 O 0.21098 0.84089 0.49985 0.0
O186 O 0.24171 0.79242 0.57588 0.0
O187 O 0.28912 0.80292 0.50236 0.0
O188 O 0.13569 0.72184 0.6036 0.0
O189 O 0.13746 0.79017 0.60244 0.0
O190 O 0.1295 0.7043 0.49041 0.0
O191 O 0.20374 0.74449 0.48555 0.0
H192 H 0.23219 0.738 0.29681 0.0
H193 H 0.20861 0.72725 0.20371 0.0
H194 H 0.26989 0.87997 0.1866 0.0
H195 H 0.29336 0.89077 0.27961 0.0
H196 H 0.15762 0.83211 0.69193 0.0
H197 H 0.1783 0.84117 0.78569 0.0
H198 H 0.14448 0.69368 0.79198 0.0
H199 H 0.12558 0.6853 0.69789 0.0
Ho200 Ho 0.41588 0.17424 0.87594 0.0
Ho201 Ho 0.38464 0.21269 0.77807 0.0
C202 C 0.32608 0.19363 0.88337 0.0
C203 C 0.44617 0.16605 0.96822 0.0
C204 C 0.43707 0.17097 0.02427 0.0
C205 C 0.41393 0.19594 0.03954 0.0
C206 C 0.40535 0.19962 0.09317 0.0
C207 C 0.41976 0.17839 0.13247 0.0
C208 C 0.44313 0.15363 0.11668 0.0
C209 C 0.4516 0.14994 0.06317 0.0
C210 C 0.35859 0.10711 0.80735 0.0
C211 C 0.46744 0.18446 0.76649 0.0
C212 C 0.3616 0.23306 0.68725 0.0
C213 C 0.36421 0.22351 0.63075 0.0
C214 C 0.38746 0.19917 0.61365 0.0
C215 C 0.39167 0.19288 0.55947 0.0
C216 C 0.37289 0.21102 0.52145 0.0
C217 C 0.34894 0.23467 0.53907 0.0
C218 C 0.34469 0.24082 0.59314 0.0
C219 C 0.44345 0.2772 0.84948 0.0
O220 O 0.36025 0.19 0.90826 0.0
O221 O 0.32452 0.19696 0.83141 0.0
O222 O 0.41172 0.13017 0.94268 0.0
O223 O 0.4665 0.20539 0.94013 0.0
O224 O 0.38896 0.10296 0.83731 0.0
O225 O 0.35646 0.14395 0.81924 0.0
O226 O 0.43288 0.1886 0.74357 0.0
O227 O 0.47214 0.18345 0.81849 0.0
O228 O 0.40228 0.26014 0.71101 0.0
O229 O 0.33205 0.1968 0.71638 0.0
O230 O 0.40997 0.28079 0.82547 0.0
O231 O 0.44496 0.24151 0.83274 0.0
H232 H 0.40245 0.21246 0.01004 0.0
H233 H 0.38685 0.21854 0.10375 0.0
H234 H 0.45548 0.13755 0.14574 0.0
H235 H 0.46966 0.13067 0.05215 0.0
H236 H 0.40295 0.18568 0.64205 0.0
H237 H 0.41071 0.17489 0.54739 0.0
H238 H 0.33336 0.2484 0.51104 0.0
H239 H 0.32655 0.25965 0.6056 0.0
H240 H 0.31309 0.18442 0.99078 0.0
H241 H 0.1674 0.31972 0.98727 0.0
H242 H 0.25758 0.21279 0.848 0.0
H243 H 0.20115 0.26927 0.13052 0.0
H244 H 0.18976 0.27036 0.9357 0.0
H245 H 0.26252 0.20462 0.04286 0.0
C246 C 0.28986 0.19431 0.97033 0.0
C247 C 0.29042 0.19804 0.915 0.0
C248 C 0.19154 0.26947 0.97846 0.0
C249 C 0.23269 0.22143 0.9743 0.0
C250 C 0.17888 0.29777 0.00793 0.0
C251 C 0.18344 0.29943 0.0632 0.0
C252 C 0.20952 0.24327 1.00447 0.0
C253 C 0.19777 0.26967 0.08791 0.0
C254 C 0.26084 0.20569 1.0001 0.0
C255 C 0.25894 0.2102 0.89062 0.0
N256 N 0.21115 0.24344 0.05829 0.0
N257 N 0.23194 0.22227 0.92049 0.0
H258 H 0.11603 0.36342 0.27637 0.0
H259 H 0.84558 0.21732 0.37002 0.0
H260 H -0.00293 0.31867 0.17033 0.0
H261 H 0.96156 0.30885 0.473 0.0
H262 H 0.90187 0.23614 0.29738 0.0
H263 H 0.06069 0.32556 0.35003 0.0
C264 C 0.07826 0.34415 0.26851 0.0
C265 C 0.06078 0.34304 0.2176 0.0
C266 C 0.91507 0.25136 0.33616 0.0
C267 C -0.0024 0.30091 0.30088 0.0
C268 C 0.88303 0.24005 0.37762 0.0
C269 C 0.8992 0.26095 0.42731 0.0
C270 C 0.96356 0.28355 0.34499 0.0
C271 C 0.94794 0.29202 0.43497 0.0
C272 C 0.04675 0.3232 0.31044 0.0
C273 C 0.01158 0.31984 0.20934 0.0
N274 N 0.97856 0.30248 0.39412 0.0
N275 N 0.98151 0.29955 0.2507 0.0
H276 H 0.77955 0.12517 0.65269 0.0
H277 H 0.64053 0.84307 0.63881 0.0
H278 H 0.75286 0.04688 0.50621 0.0
H279 H 0.70207 0.92127 0.78343 0.0
H280 H 0.68538 0.91727 0.58898 0.0
H281 H 0.75558 0.05119 0.70147 0.0
C282 C 0.76923 0.09262 0.63077 0.0
C283 C 0.76752 0.09211 0.5753 0.0
C284 C 0.68958 0.91803 0.63157 0.0
C285 C 0.73972 0.00741 0.63077 0.0
C286 C 0.66385 0.87569 0.66003 0.0
C287 C 0.66701 0.87608 0.71539 0.0
C288 C 0.71807 0.96108 0.65879 0.0
C289 C 0.69823 0.91932 0.74079 0.0
C290 C 0.75565 0.0504 0.65863 0.0
C291 C 0.75426 0.04894 0.54898 0.0
N292 N 0.72201 0.96024 0.71234 0.0
N293 N 0.7402 0.00819 0.57696 0.0
H294 H 0.68876 0.78236 0.86266 0.0
H295 H 0.75845 0.61834 0.02067 0.0
H296 H 0.60511 0.62966 0.84099 0.0
H297 H 0.69956 0.69001 0.10978 0.0
H298 H 0.73787 0.64416 0.93847 0.0
H299 H 0.7286 0.76932 0.93882 0.0
C300 C 0.67892 0.74622 0.87394 0.0
C301 C 0.6423 0.7069 0.84737 0.0
C302 C 0.73096 0.65532 0.9762 0.0
C303 C 0.68948 0.69227 0.9308 0.0
C304 C 0.74281 0.64086 0.02301 0.0
C305 C 0.73097 0.65242 0.07184 0.0
C306 C 0.70858 0.68268 0.97871 0.0
C307 C 0.70938 0.68067 0.07265 0.0
C308 C 0.7019 0.73898 0.91669 0.0
C309 C 0.63255 0.66085 0.86127 0.0
N310 N 0.69882 0.69504 0.0265 0.0
N311 N 0.65597 0.6547 0.9024 0.0
H312 H 0.13233 0.80003 0.32478 0.0
H313 H 0.85112 0.67098 0.31207 0.0
H314 H 0.0429 0.76847 0.46242 0.0
H315 H 0.94111 0.71406 0.17384 0.0
H316 H 0.92125 0.71737 0.36712 0.0
H317 H 0.06368 0.77985 0.26848 0.0
C318 C 0.09839 0.78941 0.34323 0.0
C319 C 0.09315 0.78503 0.39839 0.0
C320 C 0.92562 0.71723 0.32467 0.0
C321 C 0.01438 0.76155 0.33412 0.0
C322 C 0.88556 0.69065 0.29318 0.0
C323 C 0.89037 0.68787 0.23835 0.0
C324 C 0.97082 0.74074 0.30122 0.0
C325 C 0.93578 0.71466 0.21602 0.0
C326 C 0.0592 0.77796 0.31102 0.0
C327 C 0.04848 0.77175 0.42006 0.0
N328 N 0.97437 0.7394 0.24766 0.0
N329 N 0.01064 0.75977 0.38781 0.0
H330 H 0.34082 0.12658 0.70798 0.0
H331 H 0.22099 0.85484 0.61565 0.0
H332 H 0.31739 0.01088 0.81149 0.0
H333 H 0.29044 0.97398 0.50866 0.0
H334 H 0.23711 0.9104 0.68875 0.0
H335 H 0.30332 0.06964 0.63544 0.0
C336 C 0.32624 0.08903 0.71573 0.0
C337 C 0.33124 0.07313 0.76553 0.0
C338 C 0.24786 0.92432 0.64907 0.0
C339 C 0.28962 0.00804 0.6833 0.0
C340 C 0.23804 0.89262 0.60738 0.0
C341 C 0.25345 0.91006 0.55634 0.0
C342 C 0.27322 0.97368 0.63926 0.0
C343 C 0.2778 0.95946 0.54776 0.0
C344 C 0.30553 0.05662 0.67431 0.0
C345 C 0.31392 0.02429 0.77337 0.0
N346 N 0.28704 0.98976 0.58897 0.0
N347 N 0.29384 -0.0067 0.73254 0.0
H348 H 0.11829 0.34377 0.78455 0.0
H349 H 0.23917 0.4755 0.51289 0.0
H350 H 0.22284 0.49377 0.77437 0.0
H351 H 0.15344 0.32214 0.5284 0.0
H352 H 0.23133 0.48336 0.60786 0.0
H353 H 0.12819 0.33559 0.68999 0.0
C354 C 0.1433 0.37501 0.76236 0.0
C355 C 0.16968 0.41956 0.78736 0.0
C356 C 0.21428 0.44798 0.59048 0.0
C357 C 0.18126 0.41045 0.67905 0.0
C358 C 0.2189 0.44342 0.53621 0.0
C359 C 0.197 0.39804 0.51237 0.0
C360 C 0.18734 0.40693 0.62132 0.0
C361 C 0.17041 0.35789 0.5447 0.0
C362 C 0.1491 0.37027 0.70843 0.0
C363 C 0.20207 0.45868 0.75681 0.0
N364 N 0.16631 0.36329 0.59741 0.0
N365 N 0.20676 0.45327 0.70422 0.0
H366 H 0.78252 0.12543 0.10515 0.0
H367 H 0.77301 0.29263 0.87607 0.0
H368 H 0.7551 0.2413 0.13331 0.0
H369 H 0.79748 0.17507 0.84636 0.0
H370 H 0.76672 0.27438 0.97047 0.0
H371 H 0.78849 0.14306 0.01044 0.0
C372 C 0.77763 0.15451 0.09146 0.0
C373 C 0.76821 0.18186 0.12742 0.0
C374 C 0.77342 0.2525 0.94336 0.0
C375 C 0.77535 0.20246 0.01883 0.0
C376 C 0.77722 0.26303 0.8894 0.0
C377 C 0.78604 0.2355 0.85312 0.0
C378 C 0.77851 0.21413 0.96149 0.0
C379 C 0.79025 0.19702 0.87275 0.0
C380 C 0.78123 0.16467 0.03734 0.0
C381 C 0.763 0.2196 0.10729 0.0
N382 N 0.78662 0.18759 0.92557 0.0
N383 N 0.76653 0.22868 0.05444 0.0
H384 H 0.56554 0.67535 0.42821 0.0
H385 H 0.56624 0.83458 0.18427 0.0
H386 H 0.53182 0.78837 0.44215 0.0
H387 H 0.60335 0.724 0.16986 0.0
H388 H 0.55292 0.81756 0.27872 0.0
H389 H 0.57876 0.69187 0.33346 0.0
C390 C 0.56074 0.70354 0.41132 0.0
C391 C 0.54747 0.73048 0.44322 0.0
C392 C 0.56397 0.79698 0.25497 0.0
C393 C 0.56287 0.74979 0.33476 0.0
C394 C 0.57182 0.80684 0.20102 0.0
C395 C 0.58618 0.78084 0.16906 0.0
C396 C 0.5705 0.76081 0.27737 0.0
C397 C 0.5919 0.74465 0.19285 0.0
C398 C 0.56851 0.71309 0.35725 0.0
C399 C 0.54254 0.76706 0.41927 0.0
N400 N 0.58416 0.73579 0.24558 0.0
N401 N 0.55013 0.77555 0.36652 0.0
H402 H 0.75924 0.51449 0.78672 0.0
H403 H 0.78709 0.65115 0.5127 0.0
H404 H 0.844 0.66777 0.76939 0.0
H405 H 0.72359 0.49797 0.52487 0.0
H406 H 0.8051 0.65794 0.60745 0.0
H407 H 0.74304 0.50771 0.69171 0.0
C408 C 0.77472 0.54676 0.76303 0.0
C409 C 0.80316 0.59182 0.78646 0.0
C410 C 0.78735 0.62284 0.5894 0.0
C411 C 0.78402 0.58423 0.6773 0.0
C412 C 0.77685 0.61892 0.53533 0.0
C413 C 0.7537 0.5739 0.51074 0.0
C414 C 0.7743 0.58142 0.61942 0.0
C415 C 0.74188 0.53343 0.54199 0.0
C416 C 0.76522 0.54283 0.70871 0.0
C417 C 0.82133 0.63232 0.75353 0.0
N418 N 0.75208 0.53813 0.59467 0.0
N419 N 0.81142 0.62755 0.70079 0.0
H420 H 0.20814 0.72949 0.85412 0.0
H421 H 0.19927 0.84756 0.12929 0.0
H422 H 0.14397 0.81796 0.87165 0.0
H423 H 0.24589 0.74412 0.11537 0.0
H424 H 0.18123 0.83932 0.03453 0.0
H425 H 0.2244 0.73633 0.94909 0.0
C426 C 0.19719 0.75016 0.87786 0.0
C427 C 0.17447 0.77306 0.8545 0.0
C428 C 0.19528 0.81831 0.05219 0.0
C429 C 0.1937 0.78159 0.9637 0.0
C430 C 0.20581 0.82316 0.10629 0.0
C431 C 0.22427 0.79658 0.13042 0.0
C432 C 0.20352 0.78686 0.02166 0.0
C433 C 0.23131 0.765 0.09866 0.0
C434 C 0.20672 0.75422 0.93218 0.0
C435 C 0.16211 0.80016 0.88749 0.0
N436 N 0.22116 0.7612 0.04598 0.0
N437 N 0.17187 0.80365 0.94026 0.0
H438 H 0.39351 0.27759 0.44307 0.0
H439 H 0.39285 0.10957 0.20968 0.0
H440 H 0.36644 0.13381 0.46786 0.0
H441 H 0.42618 0.25555 0.18617 0.0
H442 H 0.38113 0.11711 0.30378 0.0
H443 H 0.40311 0.26927 0.34859 0.0
C444 C 0.38925 0.2441 0.42866 0.0
C445 C 0.37898 0.20628 0.46369 0.0
C446 C 0.39096 0.1475 0.27806 0.0
C447 C 0.39051 0.19671 0.35514 0.0
C448 C 0.39793 0.14332 0.22425 0.0
C449 C 0.41081 0.18207 0.1897 0.0
C450 C 0.39684 0.19075 0.29783 0.0
C451 C 0.41583 0.22454 0.21099 0.0
C452 C 0.39504 0.2395 0.37464 0.0
C453 C 0.37481 0.16411 0.44259 0.0
N454 N 0.40897 0.22776 0.26359 0.0
N455 N 0.38051 0.16046 0.38979 0.0
H456 H 0.12354 0.52937 0.192 0.0
H457 H 0.24181 0.69805 0.44108 0.0
H458 H 0.22318 0.5184 0.29661 0.0
H459 H 0.09587 0.6505 0.399 0.0
H460 H 0.24453 0.64633 0.37253 0.0
H461 H 0.1216 0.5878 0.25331 0.0
C462 C 0.14527 0.53964 0.22748 0.0
C463 C 0.17342 0.51912 0.23959 0.0
C464 C 0.21195 0.64731 0.37821 0.0
C465 C 0.17182 0.5855 0.30855 0.0
C466 C 0.21038 0.67676 0.41714 0.0
C467 C 0.16843 0.678 0.42572 0.0
C468 C 0.17147 0.61936 0.34719 0.0
C469 C 0.12867 0.6499 0.39373 0.0
C470 C 0.1439 0.57253 0.26238 0.0
C471 C 0.20074 0.53318 0.28608 0.0
N472 N 0.13113 0.62159 0.35549 0.0
N473 N 0.19945 0.56569 0.31872 0.0
H474 H 0.63618 0.1 0.57823 0.0
H475 H 0.49667 0.22716 0.67108 0.0
H476 H 0.68408 0.24747 0.54017 0.0
H477 H 0.51746 0.1373 0.78207 0.0
H478 H 0.55403 0.2238 0.6117 0.0
H479 H 0.58138 0.10217 0.64417 0.0
C480 C 0.63502 0.13266 0.58379 0.0
C481 C 0.66423 0.17356 0.55387 0.0
C482 C 0.54608 0.20492 0.64911 0.0
C483 C 0.60201 0.17599 0.62764 0.0
C484 C 0.51327 0.20659 0.68286 0.0
C485 C 0.50256 0.18256 0.73152 0.0
C486 C 0.56751 0.17811 0.6635 0.0
C487 C 0.5252 0.15659 0.74499 0.0
C488 C 0.6042 0.13395 0.62143 0.0
C489 C 0.662 0.21521 0.56256 0.0
N490 N 0.55646 0.15458 0.71075 0.0
N491 N 0.63092 0.2152 0.59821 0.0
H492 H 0.26037 0.52225 0.06558 0.0
H493 H 0.51843 0.64108 0.95586 0.0
H494 H 0.3413 0.45079 0.08891 0.0
H495 H 0.40487 0.62984 0.8563 0.0
H496 H 0.45879 0.58155 0.01605 0.0
H497 H 0.31774 0.57331 0.9986 0.0
C498 C 0.28972 0.51678 0.05595 0.0
C499 C 0.29549 0.48151 0.08168 0.0
C500 C 0.44718 0.59193 0.9807 0.0
C501 C 0.36225 0.54119 1.00756 0.0
C502 C 0.48097 0.62584 0.94661 0.0
C503 C 0.46631 0.64009 0.90119 0.0
C504 C 0.39868 0.57357 0.96995 0.0
C505 C 0.41748 0.61942 0.89078 0.0
C506 C 0.32254 0.54609 0.01813 0.0
C507 C 0.33542 0.47734 0.0695 0.0
N508 N 0.38526 0.58767 0.92545 0.0
N509 N 0.36774 0.50727 0.0336 0.0
H510 H 0.84177 0.38761 0.4495 0.0
H511 H 0.72899 0.45426 0.20952 0.0
H512 H 0.74685 0.28207 0.33728 0.0
H513 H 0.8786 0.54336 0.24372 0.0
H514 H 0.72495 0.39611 0.27469 0.0
H515 H 0.84648 0.45102 0.39077 0.0
C516 C 0.82179 0.37788 0.41277 0.0
C517 C 0.794 0.32975 0.39795 0.0
C518 C 0.75854 0.42857 0.26808 0.0
C519 C 0.7984 0.40122 0.3321 0.0
C520 C 0.76088 0.46172 0.23117 0.0
C521 C 0.80432 0.50321 0.2211 0.0
C522 C 0.79967 0.43756 0.29584 0.0
C523 C 0.84461 0.51137 0.25017 0.0
C524 C 0.82467 0.41388 0.37941 0.0
C525 C 0.76892 0.31881 0.34993 0.0
N526 N 0.84135 0.47875 0.2866 0.0
N527 N 0.77135 0.35428 0.31891 0.0
H528 H 0.26707 0.75595 0.64999 0.0
H529 H 0.53646 0.87111 0.73633 0.0
H530 H 0.37844 0.84376 0.53995 0.0
H531 H 0.43057 0.72821 0.78207 0.0
H532 H 0.47875 0.87292 0.6739 0.0
H533 H 0.32675 0.75693 0.70988 0.0
C534 C 0.30417 0.77562 0.63852 0.0
C535 C 0.31794 0.79971 0.58989 0.0
C536 C 0.46839 0.84131 0.69774 0.0
C537 C 0.38622 0.80138 0.65857 0.0
C538 C 0.50097 0.8404 0.73345 0.0
C539 C 0.48784 0.79953 0.76424 0.0
C540 C 0.42236 0.80157 0.69422 0.0
C541 C 0.44182 0.76036 0.75892 0.0
C542 C 0.33807 0.77595 0.67261 0.0
C543 C 0.36645 0.82446 0.57696 0.0
N544 N 0.4105 0.7625 0.72488 0.0
N545 N 0.39911 0.82502 0.61142 0.0
H546 H 0.70372 0.47582 1.00018 0.0
H547 H 0.43411 0.3415 0.91175 0.0
H548 H 0.59701 0.47131 0.10532 0.0
H549 H 0.53031 0.29024 0.87353 0.0
H550 H 0.49386 0.39889 0.97433 0.0
H551 H 0.64087 0.41755 0.94308 0.0
C552 C 0.66698 0.46258 0.01121 0.0
C553 C 0.65544 0.47819 0.05761 0.0
C554 C 0.50151 0.37479 0.9523 0.0
C555 C 0.58349 0.41195 0.99207 0.0
C556 C 0.46776 0.34244 0.91657 0.0
C557 C 0.47763 0.31145 0.88763 0.0
C558 C 0.54545 0.37656 0.95767 0.0
C559 C 0.52143 0.31358 0.89525 0.0
C560 C 0.63121 0.42921 0.97873 0.0
C561 C 0.60725 0.45976 0.07005 0.0
N562 N 0.55395 0.34595 0.92915 0.0
N563 N 0.57278 0.42773 0.03709 0.0
loop_
_geom_bond_atom_site_label_1
_geom_bond_atom_site_label_2
_geom_bond_distance
_geom_bond_site_symmetry_2
_ccdc_geom_bond_type
Ho0 C3 2.811 . S
Ho0 O20 2.322 . S
Ho0 O22 2.378 . S
Ho0 O23 2.524 . S
Ho0 O24 2.381 . S
Ho0 O25 2.669 . S
Ho0 O27 2.346 . S
Ho0 O31 2.305 . S
Ho1 C12 2.811 . S
Ho1 O21 2.346 . S
Ho1 O25 2.305 . S
Ho1 O26 2.322 . S
Ho1 O28 2.378 . S
Ho1 O29 2.524 . S
Ho1 O30 2.381 . S
Ho1 O31 2.669 . S
C2 O20 1.259 . S
C2 O21 1.268 . S
C3 Ho0 2.811 . S
C3 C4 1.511 . S
C3 O22 1.215 . S
C3 O23 1.289 . S
C4 C3 1.511 . S
C4 C5 1.334 1_554 S
C4 C9 1.404 1_554 S
C5 C4 1.334 1_556 S
C5 C6 1.442 . S
C5 H32 0.930 . S
C6 C5 1.442 . S
C6 C7 1.381 . S
C6 H33 0.931 . S
C7 C6 1.381 . S
C7 C8 1.321 . S
C8 C7 1.321 . S
C8 C9 1.403 . S
C8 H34 0.934 . S
C9 C4 1.404 1_556 S
C9 C8 1.403 . S
C9 H35 0.919 1_556 S
C10 O24 1.275 . S
C10 O25 1.256 . S
C11 O26 1.259 . S
C11 O27 1.268 . S
C12 Ho1 2.811 . S
C12 C13 1.488 . S
C12 O28 1.215 . S
C12 O29 1.289 . S
C13 C12 1.488 . S
C13 C14 1.348 . S
C13 C18 1.413 . S
C14 C13 1.348 . S
C14 C15 1.442 . S
C14 H36 0.930 . S
C15 C14 1.442 . S
C15 C16 1.381 . S
C15 H37 0.931 . S
C16 C15 1.381 . S
C16 C17 1.321 . S
C17 C16 1.321 . S
C17 C18 1.403 . S
C17 H38 0.934 . S
C18 C13 1.413 . S
C18 C17 1.403 . S
C18 H39 0.930 . S
C19 O30 1.275 . S
C19 O31 1.256 . S
O20 Ho0 2.322 . S
O20 C2 1.259 . S
O21 Ho1 2.346 . S
O21 C2 1.268 . S
O22 Ho0 2.378 . S
O22 C3 1.215 . S
O23 Ho0 2.524 . S
O23 C3 1.289 . S
O24 Ho0 2.381 . S
O24 C10 1.275 . S
O25 Ho0 2.669 . S
O25 Ho1 2.305 . S
O25 C10 1.256 . S
O26 Ho1 2.322 . S
O26 C11 1.259 . S
O27 Ho0 2.346 . S
O27 C11 1.268 . S
O28 Ho1 2.378 . S
O28 C12 1.215 . S
O29 Ho1 2.524 . S
O29 C12 1.289 . S
O30 Ho1 2.381 . S
O30 C19 1.275 . S
O31 Ho0 2.305 . S
O31 Ho1 2.669 . S
O31 C19 1.256 . S
H32 C5 0.930 . S
H33 C6 0.931 . S
H34 C8 0.934 . S
H35 C9 0.919 1_554 S
H36 C14 0.930 . S
H37 C15 0.931 . S
H38 C17 0.934 . S
H39 C18 0.930 . S
Ho40 C43 2.811 . S
Ho40 O60 2.322 . S
Ho40 O62 2.378 . S
Ho40 O63 2.524 . S
Ho40 O64 2.381 . S
Ho40 O65 2.669 . S
Ho40 O67 2.346 . S
Ho40 O71 2.305 . S
Ho41 C52 2.811 . S
Ho41 O61 2.346 . S
Ho41 O65 2.305 . S
Ho41 O66 2.322 . S
Ho41 O68 2.378 . S
Ho41 O69 2.524 . S
Ho41 O70 2.381 . S
Ho41 O71 2.669 . S
C42 O60 1.259 . S
C42 O61 1.268 . S
C43 Ho40 2.811 . S
C43 C44 1.488 . S
C43 O62 1.215 . S
C43 O63 1.289 . S
C44 C43 1.488 . S
C44 C45 1.348 . S
C44 C49 1.413 . S
C45 C44 1.348 . S
C45 C46 1.442 . S
C45 H72 0.930 . S
C46 C45 1.442 . S
C46 C47 1.381 . S
C46 H73 0.931 . S
C47 C46 1.381 . S
C47 C48 1.321 . S
C48 C47 1.321 . S
C48 C49 1.403 . S
C48 H74 0.934 . S
C49 C44 1.413 . S
C49 C48 1.403 . S
C49 H75 0.930 . S
C50 O64 1.275 . S
C50 O65 1.256 . S
C51 O66 1.259 . S
C51 O67 1.268 . S
C52 Ho41 2.811 . S
C52 C53 1.488 . S
C52 O68 1.215 . S
C52 O69 1.289 . S
C53 C52 1.488 . S
C53 C54 1.348 . S
C53 C58 1.413 . S
C54 C53 1.348 . S
C54 C55 1.442 . S
C54 H76 0.930 . S
C55 C54 1.442 . S
C55 C56 1.381 . S
C55 H77 0.931 . S
C56 C55 1.381 . S
C56 C57 1.321 . S
C57 C56 1.321 . S
C57 C58 1.403 . S
C57 H78 0.934 . S
C58 C53 1.413 . S
C58 C57 1.403 . S
C58 H79 0.930 . S
C59 O70 1.275 . S
C59 O71 1.256 . S
O60 Ho40 2.322 . S
O60 C42 1.259 . S
O61 Ho41 2.346 . S
O61 C42 1.268 . S
O62 Ho40 2.378 . S
O62 C43 1.215 . S
O63 Ho40 2.524 . S
O63 C43 1.289 . S
O64 Ho40 2.381 . S
O64 C50 1.275 . S
O65 Ho40 2.669 . S
O65 Ho41 2.305 . S
O65 C50 1.256 . S
O66 Ho41 2.322 . S
O66 C51 1.259 . S
O67 Ho40 2.346 . S
O67 C51 1.268 . S
O68 Ho41 2.378 . S
O68 C52 1.215 . S
O69 Ho41 2.524 . S
O69 C52 1.289 . S
O70 Ho41 2.381 . S
O70 C59 1.275 . S
O71 Ho40 2.305 . S
O71 Ho41 2.669 . S
O71 C59 1.256 . S
H72 C45 0.930 . S
H73 C46 0.931 . S
H74 C48 0.934 . S
H75 C49 0.930 . S
H76 C54 0.930 . S
H77 C55 0.931 . S
H78 C57 0.934 . S
H79 C58 0.930 . S
Ho80 C83 2.811 . S
Ho80 O100 2.322 . S
Ho80 O102 2.378 . S
Ho80 O103 2.524 . S
Ho80 O104 2.381 . S
Ho80 O105 2.669 . S
Ho80 O107 2.346 . S
Ho80 O111 2.305 . S
Ho81 C92 2.811 1_556 S
Ho81 O101 2.346 . S
Ho81 O105 2.305 . S
Ho81 O106 2.322 . S
Ho81 O108 2.378 1_556 S
Ho81 O109 2.524 1_556 S
Ho81 O110 2.381 . S
Ho81 O111 2.669 . S
C82 O100 1.259 . S
C82 O101 1.268 . S
C83 Ho80 2.811 . S
C83 C84 1.488 . S
C83 O102 1.215 . S
C83 O103 1.289 . S
C84 C83 1.488 . S
C84 C85 1.348 . S
C84 C89 1.413 . S
C85 C84 1.348 . S
C85 C86 1.442 . S
C85 H112 0.930 . S
C86 C85 1.442 . S
C86 C87 1.381 . S
C86 H113 0.931 . S
C87 C86 1.381 . S
C87 C88 1.321 . S
C88 C87 1.321 . S
C88 C89 1.403 . S
C88 H114 0.934 . S
C89 C84 1.413 . S
C89 C88 1.403 . S
C89 H115 0.930 . S
C90 O104 1.275 . S
C90 O105 1.256 . S
C91 O106 1.259 . S
C91 O107 1.268 . S
C92 Ho81 2.811 1_554 S
C92 C93 1.488 . S
C92 O108 1.215 . S
C92 O109 1.289 . S
C93 C92 1.488 . S
C93 C94 1.348 . S
C93 C98 1.413 . S
C94 C93 1.348 . S
C94 C95 1.442 . S
C94 H116 0.930 . S
C95 C94 1.442 . S
C95 C96 1.381 . S
C95 H117 0.931 . S
C96 C95 1.381 . S
C96 C97 1.321 . S
C97 C96 1.321 . S
C97 C98 1.403 . S
C97 H118 0.934 . S
C98 C93 1.413 . S
C98 C97 1.403 . S
C98 H119 0.930 . S
C99 O110 1.275 . S
C99 O111 1.256 . S
O100 Ho80 2.322 . S
O100 C82 1.259 . S
O101 Ho81 2.346 . S
O101 C82 1.268 . S
O102 Ho80 2.378 . S
O102 C83 1.215 . S
O103 Ho80 2.524 . S
O103 C83 1.289 . S
O104 Ho80 2.381 . S
O104 C90 1.275 . S
O105 Ho80 2.669 . S
O105 Ho81 2.305 . S
O105 C90 1.256 . S
O106 Ho81 2.322 . S
O106 C91 1.259 . S
O107 Ho80 2.346 . S
O107 C91 1.268 . S
O108 Ho81 2.378 1_554 S
O108 C92 1.215 . S
O109 Ho81 2.524 1_554 S
O109 C92 1.289 . S
O110 Ho81 2.381 . S
O110 C99 1.275 . S
O111 Ho80 2.305 . S
O111 Ho81 2.669 . S
O111 C99 1.256 . S
H112 C85 0.930 . S
H113 C86 0.931 . S
H114 C88 0.934 . S
H115 C89 0.930 . S
H116 C94 0.930 . S
H117 C95 0.931 . S
H118 C97 0.934 . S
H119 C98 0.930 . S
Ho120 C123 2.811 . S
Ho120 O140 2.322 . S
Ho120 O142 2.378 . S
Ho120 O143 2.524 . S
Ho120 O144 2.381 . S
Ho120 O145 2.669 . S
Ho120 O147 2.346 . S
Ho120 O151 2.305 . S
Ho121 C132 2.811 1_554 S
Ho121 O141 2.346 . S
Ho121 O145 2.305 . S
Ho121 O146 2.322 1_554 S
Ho121 O148 2.378 1_554 S
Ho121 O149 2.524 1_554 S
Ho121 O150 2.381 . S
Ho121 O151 2.669 . S
C122 O140 1.259 . S
C122 O141 1.268 . S
C123 Ho120 2.811 . S
C123 C124 1.488 . S
C123 O142 1.215 . S
C123 O143 1.289 . S
C124 C123 1.488 . S
C124 C125 1.348 . S
C124 C129 1.413 . S
C125 C124 1.348 . S
C125 C126 1.442 . S
C125 H152 0.930 . S
C126 C125 1.442 . S
C126 C127 1.381 . S
C126 H153 0.931 . S
C127 C126 1.381 . S
C127 C128 1.321 . S
C128 C127 1.321 . S
C128 C129 1.403 . S
C128 H154 0.934 . S
C129 C124 1.413 . S
C129 C128 1.403 . S
C129 H155 0.930 . S
C130 O144 1.275 . S
C130 O145 1.256 . S
C131 O146 1.259 1_554 S
C131 O147 1.268 . S
C132 Ho121 2.811 1_556 S
C132 C133 1.488 . S
C132 O148 1.215 . S
C132 O149 1.289 . S
C133 C132 1.488 . S
C133 C134 1.348 . S
C133 C138 1.413 . S
C134 C133 1.348 . S
C134 C135 1.442 . S
C134 H156 0.930 . S
C135 C134 1.442 . S
C135 C136 1.381 . S
C135 H157 0.931 . S
C136 C135 1.381 . S
C136 C137 1.321 . S
C137 C136 1.321 . S
C137 C138 1.403 . S
C137 H158 0.934 . S
C138 C133 1.413 . S
C138 C137 1.403 . S
C138 H159 0.930 . S
C139 O150 1.275 . S
C139 O151 1.256 . S
O140 Ho120 2.322 . S
O140 C122 1.259 . S
O141 Ho121 2.346 . S
O141 C122 1.268 . S
O142 Ho120 2.378 . S
O142 C123 1.215 . S
O143 Ho120 2.524 . S
O143 C123 1.289 . S
O144 Ho120 2.381 . S
O144 C130 1.275 . S
O145 Ho120 2.669 . S
O145 Ho121 2.305 . S
O145 C130 1.256 . S
O146 Ho121 2.322 1_556 S
O146 C131 1.259 1_556 S
O147 Ho120 2.346 . S
O147 C131 1.268 . S
O148 Ho121 2.378 1_556 S
O148 C132 1.215 . S
O149 Ho121 2.524 1_556 S
O149 C132 1.289 . S
O150 Ho121 2.381 . S
O150 C139 1.275 . S
O151 Ho120 2.305 . S
O151 Ho121 2.669 . S
O151 C139 1.256 . S
H152 C125 0.930 . S
H153 C126 0.931 . S
H154 C128 0.934 . S
H155 C129 0.930 . S
H156 C134 0.930 . S
H157 C135 0.931 . S
H158 C137 0.934 . S
H159 C138 0.930 . S
Ho160 C163 2.811 . S
Ho160 O180 2.322 . S
Ho160 O182 2.378 . S
Ho160 O183 2.524 . S
Ho160 O184 2.381 . S
Ho160 O185 2.669 . S
Ho160 O187 2.346 . S
Ho160 O191 2.305 . S
Ho161 C172 2.811 . S
Ho161 O181 2.346 . S
Ho161 O185 2.305 . S
Ho161 O186 2.322 . S
Ho161 O188 2.378 . S
Ho161 O189 2.524 . S
Ho161 O190 2.381 . S
Ho161 O191 2.669 . S
C162 O180 1.259 . S
C162 O181 1.268 . S
C163 Ho160 2.811 . S
C163 C164 1.488 . S
C163 O182 1.215 . S
C163 O183 1.289 . S
C164 C163 1.488 . S
C164 C165 1.348 . S
C164 C169 1.413 . S
C165 C164 1.348 . S
C165 C166 1.442 . S
C165 H192 0.930 . S
C166 C165 1.442 . S
C166 C167 1.381 . S
C166 H193 0.931 . S
C167 C166 1.381 . S
C167 C168 1.321 . S
C168 C167 1.321 . S
C168 C169 1.403 . S
C168 H194 0.934 . S
C169 C164 1.413 . S
C169 C168 1.403 . S
C169 H195 0.930 . S
C170 O184 1.275 . S
C170 O185 1.256 . S
C171 O186 1.259 . S
C171 O187 1.268 . S
C172 Ho161 2.811 . S
C172 C173 1.488 . S
C172 O188 1.215 . S
C172 O189 1.289 . S
C173 C172 1.488 . S
C173 C174 1.348 . S
C173 C178 1.413 . S
C174 C173 1.348 . S
C174 C175 1.442 . S
C174 H196 0.930 . S
C175 C174 1.442 . S
C175 C176 1.381 . S
C175 H197 0.931 . S
C176 C175 1.381 . S
C176 C177 1.321 . S
C177 C176 1.321 . S
C177 C178 1.403 . S
C177 H198 0.934 . S
C178 C173 1.413 . S
C178 C177 1.403 . S
C178 H199 0.930 . S
C179 O190 1.275 . S
C179 O191 1.256 . S
O180 Ho160 2.322 . S
O180 C162 1.259 . S
O181 Ho161 2.346 . S
O181 C162 1.268 . S
O182 Ho160 2.378 . S
O182 C163 1.215 . S
O183 Ho160 2.524 . S
O183 C163 1.289 . S
O184 Ho160 2.381 . S
O184 C170 1.275 . S
O185 Ho160 2.669 . S
O185 Ho161 2.305 . S
O185 C170 1.256 . S
O186 Ho161 2.322 . S
O186 C171 1.259 . S
O187 Ho160 2.346 . S
O187 C171 1.268 . S
O188 Ho161 2.378 . S
O188 C172 1.215 . S
O189 Ho161 2.524 . S
O189 C172 1.289 . S
O190 Ho161 2.381 . S
O190 C179 1.275 . S
O191 Ho160 2.305 . S
O191 Ho161 2.669 . S
O191 C179 1.256 . S
H192 C165 0.930 . S
H193 C166 0.931 . S
H194 C168 0.934 . S
H195 C169 0.930 . S
H196 C174 0.930 . S
H197 C175 0.931 . S
H198 C177 0.934 . S
H199 C178 0.930 . S
Ho200 C203 2.811 . S
Ho200 O220 2.322 . S
Ho200 O222 2.378 . S
Ho200 O223 2.524 . S
Ho200 O224 2.381 . S
Ho200 O225 2.669 . S
Ho200 O227 2.346 . S
Ho200 O231 2.305 . S
Ho201 C212 2.811 . S
Ho201 O221 2.346 . S
Ho201 O225 2.305 . S
Ho201 O226 2.322 . S
Ho201 O228 2.378 . S
Ho201 O229 2.524 . S
Ho201 O230 2.381 . S
Ho201 O231 2.669 . S
C202 O220 1.259 . S
C202 O221 1.268 . S
C203 Ho200 2.811 . S
C203 C204 1.488 . S
C203 O222 1.215 . S
C203 O223 1.289 . S
C204 C203 1.488 . S
C204 C205 1.348 . S
C204 C209 1.413 . S
C205 C204 1.348 . S
C205 C206 1.442 1_556 S
C205 H232 0.930 . S
C206 C205 1.442 1_554 S
C206 C207 1.381 . S
C206 H233 0.931 . S
C207 C206 1.381 . S
C207 C208 1.321 . S
C208 C207 1.321 . S
C208 C209 1.403 1_554 S
C208 H234 0.934 . S
C209 C204 1.413 . S
C209 C208 1.403 1_556 S
C209 H235 0.930 . S
C210 O224 1.275 . S
C210 O225 1.256 . S
C211 O226 1.259 . S
C211 O227 1.268 . S
C212 Ho201 2.811 . S
C212 C213 1.488 . S
C212 O228 1.215 . S
C212 O229 1.289 . S
C213 C212 1.488 . S
C213 C214 1.348 . S
C213 C218 1.413 . S
C214 C213 1.348 . S
C214 C215 1.442 . S
C214 H236 0.930 . S
C215 C214 1.442 . S
C215 C216 1.381 . S
C215 H237 0.931 . S
C216 C215 1.381 . S
C216 C217 1.321 . S
C217 C216 1.321 . S
C217 C218 1.403 . S
C217 H238 0.934 . S
C218 C213 1.413 . S
C218 C217 1.403 . S
C218 H239 0.930 . S
C219 O230 1.275 . S
C219 O231 1.256 . S
O220 Ho200 2.322 . S
O220 C202 1.259 . S
O221 Ho201 2.346 . S
O221 C202 1.268 . S
O222 Ho200 2.378 . S
O222 C203 1.215 . S
O223 Ho200 2.524 . S
O223 C203 1.289 . S
O224 Ho200 2.381 . S
O224 C210 1.275 . S
O225 Ho200 2.669 . S
O225 Ho201 2.305 . S
O225 C210 1.256 . S
O226 Ho201 2.322 . S
O226 C211 1.259 . S
O227 Ho200 2.346 . S
O227 C211 1.268 . S
O228 Ho201 2.378 . S
O228 C212 1.215 . S
O229 Ho201 2.524 . S
O229 C212 1.289 . S
O230 Ho201 2.381 . S
O230 C219 1.275 . S
O231 Ho200 2.305 . S
O231 Ho201 2.669 . S
O231 C219 1.256 . S
H232 C205 0.930 . S
H233 C206 0.931 . S
H234 C208 0.934 . S
H235 C209 0.930 . S
H236 C214 0.930 . S
H237 C215 0.931 . S
H238 C217 0.934 . S
H239 C218 0.930 . S
H240 C246 0.930 . S
H241 C250 0.930 . S
H242 C255 0.929 . S
H243 C253 0.929 . S
H244 C248 0.929 1_556 S
H245 C254 0.929 . S
C246 H240 0.930 . S
C246 C247 1.367 . S
C246 C254 1.378 . S
C247 C246 1.367 . S
C247 C255 1.433 . S
C248 H244 0.929 1_554 S
C248 C250 1.378 . S
C248 C252 1.350 . S
C249 C252 1.463 1_556 S
C249 C254 1.350 . S
C249 N257 1.427 . S
C250 H241 0.930 . S
C250 C248 1.378 . S
C250 C251 1.367 . S
C251 C250 1.367 . S
C251 C253 1.433 . S
C252 C248 1.350 . S
C252 C249 1.463 1_554 S
C252 N256 1.427 . S
C253 H243 0.929 . S
C253 C251 1.433 . S
C253 N256 1.384 . S
C254 H245 0.929 . S
C254 C246 1.378 . S
C254 C249 1.350 . S
C255 H242 0.929 . S
C255 C247 1.433 . S
C255 N257 1.384 . S
N256 C252 1.427 . S
N256 C253 1.384 . S
N257 C249 1.427 . S
N257 C255 1.384 . S
H258 C264 0.930 . S
H259 C268 0.930 . S
H260 C273 0.929 . S
H261 C271 0.929 . S
H262 C266 0.929 . S
H263 C272 0.929 . S
C264 H258 0.930 . S
C264 C265 1.367 . S
C264 C272 1.378 . S
C265 C264 1.367 . S
C265 C273 1.433 . S
C266 H262 0.929 . S
C266 C268 1.378 . S
C266 C270 1.350 . S
C267 C270 1.463 1_455 S
C267 C272 1.350 . S
C267 N275 1.427 . S
C268 H259 0.930 . S
C268 C266 1.378 . S
C268 C269 1.367 . S
C269 C268 1.367 . S
C269 C271 1.433 . S
C270 C266 1.350 . S
C270 C267 1.463 1_655 S
C270 N274 1.427 . S
C271 H261 0.929 . S
C271 C269 1.433 . S
C271 N274 1.384 . S
C272 H263 0.929 . S
C272 C264 1.378 . S
C272 C267 1.350 . S
C273 H260 0.929 . S
C273 C265 1.433 . S
C273 N275 1.384 . S
N274 C270 1.427 . S
N274 C271 1.384 . S
N275 C267 1.427 . S
N275 C273 1.384 . S
H276 C282 0.930 . S
H277 C286 0.930 . S
H278 C291 0.929 1_565 S
H279 C289 0.929 1_545 S
H280 C284 0.929 . S
H281 C290 0.929 . S
C282 H276 0.930 . S
C282 C283 1.367 . S
C282 C290 1.378 . S
C283 C282 1.367 . S
C283 C291 1.433 . S
C284 H280 0.929 . S
C284 C286 1.378 . S
C284 C288 1.350 . S
C285 C288 1.463 1_545 S
C285 C290 1.350 . S
C285 N293 1.427 1_545 S
C286 H277 0.930 . S
C286 C284 1.378 . S
C286 C287 1.367 . S
C287 C286 1.367 . S
C287 C289 1.433 . S
C288 C284 1.350 . S
C288 C285 1.463 1_565 S
C288 N292 1.427 1_565 S
C289 H279 0.929 1_565 S
C289 C287 1.433 . S
C289 N292 1.384 1_565 S
C290 H281 0.929 . S
C290 C282 1.378 . S
C290 C285 1.350 . S
C291 H278 0.929 1_545 S
C291 C283 1.433 . S
C291 N293 1.384 1_545 S
N292 C288 1.427 1_545 S
N292 C289 1.384 1_545 S
N293 C285 1.427 1_565 S
N293 C291 1.384 1_565 S
H294 C300 0.932 . S
H295 C304 0.930 . S
H296 C309 0.929 . S
H297 C307 0.929 . S
H298 C302 0.929 . S
H299 C308 0.929 1_554 S
C300 H294 0.932 . S
C300 C301 1.367 . S
C300 C308 1.378 . S
C301 C300 1.367 . S
C301 C309 1.433 . S
C302 H298 0.929 . S
C302 C304 1.378 . S
C302 C306 1.350 . S
C303 C306 1.463 . S
C303 C308 1.350 . S
C303 N311 1.427 . S
C304 H295 0.930 . S
C304 C302 1.378 . S
C304 C305 1.367 1_556 S
C305 C304 1.367 1_554 S
C305 C307 1.433 . S
C306 C302 1.350 . S
C306 C303 1.463 . S
C306 N310 1.427 1_556 S
C307 H297 0.929 . S
C307 C305 1.433 . S
C307 N310 1.384 . S
C308 H299 0.929 1_556 S
C308 C300 1.378 . S
C308 C303 1.350 . S
C309 H296 0.929 . S
C309 C301 1.433 . S
C309 N311 1.384 . S
N310 C306 1.427 1_554 S
N310 C307 1.384 . S
N311 C303 1.427 . S
N311 C309 1.384 . S
H312 C318 0.930 . S
H313 C322 0.930 . S
H314 C327 0.929 . S
H315 C325 0.929 . S
H316 C320 0.929 . S
H317 C326 0.929 . S
C318 H312 0.930 . S
C318 C319 1.367 . S
C318 C326 1.378 . S
C319 C318 1.367 . S
C319 C327 1.433 . S
C320 H316 0.929 . S
C320 C322 1.378 . S
C320 C324 1.350 . S
C321 C324 1.463 1_455 S
C321 C326 1.350 . S
C321 N329 1.428 . S
C322 H313 0.930 . S
C322 C320 1.378 . S
C322 C323 1.367 . S
C323 C322 1.367 . S
C323 C325 1.433 . S
C324 C320 1.350 . S
C324 C321 1.463 1_655 S
C324 N328 1.428 . S
C325 H315 0.929 . S
C325 C323 1.433 . S
C325 N328 1.383 . S
C326 H317 0.929 . S
C326 C318 1.378 . S
C326 C321 1.350 . S
C327 H314 0.929 . S
C327 C319 1.433 . S
C327 N329 1.383 . S
N328 C324 1.428 . S
N328 C325 1.383 . S
N329 C321 1.428 . S
N329 C327 1.383 . S
H330 C336 0.930 . S
H331 C340 0.930 . S
H332 C345 0.929 . S
H333 C343 0.929 . S
H334 C338 0.929 . S
H335 C344 0.929 . S
C336 H330 0.930 . S
C336 C337 1.367 . S
C336 C344 1.378 . S
C337 C336 1.367 . S
C337 C345 1.433 . S
C338 H334 0.929 . S
C338 C340 1.378 . S
C338 C342 1.350 . S
C339 C342 1.463 1_545 S
C339 C344 1.350 . S
C339 N347 1.427 . S
C340 H331 0.930 . S
C340 C338 1.378 . S
C340 C341 1.367 . S
C341 C340 1.367 . S
C341 C343 1.433 . S
C342 C338 1.350 . S
C342 C339 1.463 1_565 S
C342 N346 1.427 . S
C343 H333 0.929 . S
C343 C341 1.433 . S
C343 N346 1.384 . S
C344 H335 0.929 . S
C344 C336 1.378 . S
C344 C339 1.350 . S
C345 H332 0.929 . S
C345 C337 1.433 . S
C345 N347 1.384 . S
N346 C342 1.427 . S
N346 C343 1.384 . S
N347 C339 1.427 . S
N347 C345 1.384 . S
H348 C354 0.930 . S
H349 C358 0.930 . S
H350 C363 0.929 . S
H351 C361 0.929 . S
H352 C356 0.929 . S
H353 C362 0.929 . S
C354 H348 0.930 . S
C354 C355 1.367 . S
C354 C362 1.378 . S
C355 C354 1.367 . S
C355 C363 1.433 . S
C356 H352 0.929 . S
C356 C358 1.378 . S
C356 C360 1.350 . S
C357 C360 1.463 . S
C357 C362 1.350 . S
C357 N365 1.427 . S
C358 H349 0.930 . S
C358 C356 1.378 . S
C358 C359 1.367 . S
C359 C358 1.367 . S
C359 C361 1.433 . S
C360 C356 1.350 . S
C360 C357 1.463 . S
C360 N364 1.427 . S
C361 H351 0.929 . S
C361 C359 1.433 . S
C361 N364 1.384 . S
C362 H353 0.929 . S
C362 C354 1.378 . S
C362 C357 1.350 . S
C363 H350 0.929 . S
C363 C355 1.433 . S
C363 N365 1.384 . S
N364 C360 1.427 . S
N364 C361 1.384 . S
N365 C357 1.427 . S
N365 C363 1.384 . S
H366 C372 0.930 1_554 S
H367 C376 0.930 . S
H368 C381 0.929 1_554 S
H369 C379 0.929 . S
H370 C374 0.929 . S
H371 C380 0.929 . S
C372 H366 0.930 1_556 S
C372 C373 1.367 1_556 S
C372 C380 1.378 . S
C373 C372 1.367 1_554 S
C373 C381 1.433 1_554 S
C374 H370 0.929 . S
C374 C376 1.378 . S
C374 C378 1.350 . S
C375 C378 1.463 . S
C375 C380 1.350 . S
C375 N383 1.427 . S
C376 H367 0.930 . S
C376 C374 1.378 . S
C376 C377 1.367 . S
C377 C376 1.367 . S
C377 C379 1.433 . S
C378 C374 1.350 . S
C378 C375 1.463 . S
C378 N382 1.427 . S
C379 H369 0.929 . S
C379 C377 1.433 . S
C379 N382 1.384 . S
C380 H371 0.929 . S
C380 C372 1.378 . S
C380 C375 1.350 . S
C381 H368 0.929 1_556 S
C381 C373 1.433 1_556 S
C381 N383 1.384 . S
N382 C378 1.427 . S
N382 C379 1.384 . S
N383 C375 1.427 . S
N383 C381 1.384 . S
H384 C390 0.930 . S
H385 C394 0.930 . S
H386 C399 0.929 . S
H387 C397 0.929 . S
H388 C392 0.929 . S
H389 C398 0.929 . S
C390 H384 0.930 . S
C390 C391 1.367 . S
C390 C398 1.378 . S
C391 C390 1.367 . S
C391 C399 1.433 . S
C392 H388 0.929 . S
C392 C394 1.378 . S
C392 C396 1.350 . S
C393 C396 1.463 . S
C393 C398 1.350 . S
C393 N401 1.427 . S
C394 H385 0.930 . S
C394 C392 1.378 . S
C394 C395 1.367 . S
C395 C394 1.367 . S
C395 C397 1.433 . S
C396 C392 1.350 . S
C396 C393 1.463 . S
C396 N400 1.427 . S
C397 H387 0.929 . S
C397 C395 1.433 . S
C397 N400 1.384 . S
C398 H389 0.929 . S
C398 C390 1.378 . S
C398 C393 1.350 . S
C399 H386 0.929 . S
C399 C391 1.433 . S
C399 N401 1.384 . S
N400 C396 1.427 . S
N400 C397 1.384 . S
N401 C393 1.427 . S
N401 C399 1.384 . S
H402 C408 0.930 . S
H403 C412 0.930 . S
H404 C417 0.929 . S
H405 C415 0.929 . S
H406 C410 0.929 . S
H407 C416 0.929 . S
C408 H402 0.930 . S
C408 C409 1.367 . S
C408 C416 1.378 . S
C409 C408 1.367 . S
C409 C417 1.433 . S
C410 H406 0.929 . S
C410 C412 1.378 . S
C410 C414 1.350 . S
C411 C414 1.463 . S
C411 C416 1.350 . S
C411 N419 1.427 . S
C412 H403 0.930 . S
C412 C410 1.378 . S
C412 C413 1.367 . S
C413 C412 1.367 . S
C413 C415 1.433 . S
C414 C410 1.350 . S
C414 C411 1.463 . S
C414 N418 1.427 . S
C415 H405 0.929 . S
C415 C413 1.433 . S
C415 N418 1.384 . S
C416 H407 0.929 . S
C416 C408 1.378 . S
C416 C411 1.350 . S
C417 H404 0.929 . S
C417 C409 1.433 . S
C417 N419 1.384 . S
N418 C414 1.427 . S
N418 C415 1.384 . S
N419 C411 1.427 . S
N419 C417 1.384 . S
H420 C426 0.930 . S
H421 C430 0.930 . S
H422 C435 0.929 . S
H423 C433 0.929 . S
H424 C428 0.929 . S
H425 C434 0.929 . S
C426 H420 0.930 . S
C426 C427 1.367 . S
C426 C434 1.378 1_556 S
C427 C426 1.367 . S
C427 C435 1.433 . S
C428 H424 0.929 . S
C428 C430 1.378 . S
C428 C432 1.350 . S
C429 C432 1.463 . S
C429 C434 1.350 . S
C429 N437 1.427 1_554 S
C430 H421 0.930 . S
C430 C428 1.378 . S
C430 C431 1.367 . S
C431 C430 1.367 . S
C431 C433 1.433 . S
C432 C428 1.350 . S
C432 C429 1.463 . S
C432 N436 1.427 . S
C433 H423 0.929 . S
C433 C431 1.433 . S
C433 N436 1.384 . S
C434 H425 0.929 . S
C434 C426 1.378 1_554 S
C434 C429 1.350 . S
C435 H422 0.929 . S
C435 C427 1.433 . S
C435 N437 1.384 . S
N436 C432 1.427 . S
N436 C433 1.384 . S
N437 C429 1.427 1_556 S
N437 C435 1.384 . S
H438 C444 0.930 . S
H439 C448 0.930 . S
H440 C453 0.929 . S
H441 C451 0.929 . S
H442 C446 0.929 . S
H443 C452 0.929 . S
C444 H438 0.930 . S
C444 C445 1.367 . S
C444 C452 1.378 . S
C445 C444 1.367 . S
C445 C453 1.433 . S
C446 H442 0.929 . S
C446 C448 1.378 . S
C446 C450 1.350 . S
C447 C450 1.463 . S
C447 C452 1.350 . S
C447 N455 1.427 . S
C448 H439 0.930 . S
C448 C446 1.378 . S
C448 C449 1.367 . S
C449 C448 1.367 . S
C449 C451 1.433 . S
C450 C446 1.350 . S
C450 C447 1.463 . S
C450 N454 1.427 . S
C451 H441 0.929 . S
C451 C449 1.433 . S
C451 N454 1.384 . S
C452 H443 0.929 . S
C452 C444 1.378 . S
C452 C447 1.350 . S
C453 H440 0.929 . S
C453 C445 1.433 . S
C453 N455 1.384 . S
N454 C450 1.427 . S
N454 C451 1.384 . S
N455 C447 1.427 . S
N455 C453 1.384 . S
H456 C462 0.930 . S
H457 C466 0.930 . S
H458 C471 0.929 . S
H459 C469 0.929 . S
H460 C464 0.929 . S
H461 C470 0.929 . S
C462 H456 0.930 . S
C462 C463 1.367 . S
C462 C470 1.378 . S
C463 C462 1.367 . S
C463 C471 1.433 . S
C464 H460 0.929 . S
C464 C466 1.378 . S
C464 C468 1.350 . S
C465 C468 1.463 . S
C465 C470 1.350 . S
C465 N473 1.427 . S
C466 H457 0.930 . S
C466 C464 1.378 . S
C466 C467 1.367 . S
C467 C466 1.367 . S
C467 C469 1.433 . S
C468 C464 1.350 . S
C468 C465 1.463 . S
C468 N472 1.427 . S
C469 H459 0.929 . S
C469 C467 1.433 . S
C469 N472 1.384 . S
C470 H461 0.929 . S
C470 C462 1.378 . S
C470 C465 1.350 . S
C471 H458 0.929 . S
C471 C463 1.433 . S
C471 N473 1.384 . S
N472 C468 1.427 . S
N472 C469 1.384 . S
N473 C465 1.427 . S
N473 C471 1.384 . S
H474 C480 0.930 . S
H475 C484 0.930 . S
H476 C489 0.929 . S
H477 C487 0.929 . S
H478 C482 0.929 . S
H479 C488 0.929 . S
C480 H474 0.930 . S
C480 C481 1.367 . S
C480 C488 1.378 . S
C481 C480 1.367 . S
C481 C489 1.433 . S
C482 H478 0.929 . S
C482 C484 1.378 . S
C482 C486 1.350 . S
C483 C486 1.463 . S
C483 C488 1.350 . S
C483 N491 1.427 . S
C484 H475 0.930 . S
C484 C482 1.378 . S
C484 C485 1.367 . S
C485 C484 1.367 . S
C485 C487 1.433 . S
C486 C482 1.350 . S
C486 C483 1.463 . S
C486 N490 1.427 . S
C487 H477 0.929 . S
C487 C485 1.433 . S
C487 N490 1.384 . S
C488 H479 0.929 . S
C488 C480 1.378 . S
C488 C483 1.350 . S
C489 H476 0.929 . S
C489 C481 1.433 . S
C489 N491 1.384 . S
N490 C486 1.427 . S
N490 C487 1.384 . S
N491 C483 1.427 . S
N491 C489 1.384 . S
H492 C498 0.930 . S
H493 C502 0.930 . S
H494 C507 0.929 . S
H495 C505 0.929 1_556 S
H496 C500 0.929 . S
H497 C506 0.929 . S
C498 H492 0.930 . S
C498 C499 1.367 . S
C498 C506 1.378 . S
C499 C498 1.367 . S
C499 C507 1.433 . S
C500 H496 0.929 . S
C500 C502 1.378 . S
C500 C504 1.350 . S
C501 C504 1.463 . S
C501 C506 1.350 . S
C501 N509 1.427 . S
C502 H493 0.930 . S
C502 C500 1.378 . S
C502 C503 1.367 . S
C503 C502 1.367 . S
C503 C505 1.433 . S
C504 C500 1.350 . S
C504 C501 1.463 . S
C504 N508 1.427 . S
C505 H495 0.929 1_554 S
C505 C503 1.433 . S
C505 N508 1.384 . S
C506 H497 0.929 . S
C506 C498 1.378 . S
C506 C501 1.350 . S
C507 H494 0.929 . S
C507 C499 1.433 . S
C507 N509 1.384 . S
N508 C504 1.427 . S
N508 C505 1.384 . S
N509 C501 1.427 . S
N509 C507 1.384 . S
H510 C516 0.930 . S
H511 C520 0.930 . S
H512 C525 0.929 . S
H513 C523 0.929 . S
H514 C518 0.929 . S
H515 C524 0.929 . S
C516 H510 0.930 . S
C516 C517 1.367 . S
C516 C524 1.378 . S
C517 C516 1.367 . S
C517 C525 1.433 . S
C518 H514 0.929 . S
C518 C520 1.378 . S
C518 C522 1.350 . S
C519 C522 1.463 . S
C519 C524 1.350 . S
C519 N527 1.427 . S
C520 H511 0.930 . S
C520 C518 1.378 . S
C520 C521 1.367 . S
C521 C520 1.367 . S
C521 C523 1.433 . S
C522 C518 1.350 . S
C522 C519 1.463 . S
C522 N526 1.427 . S
C523 H513 0.929 . S
C523 C521 1.433 . S
C523 N526 1.384 . S
C524 H515 0.929 . S
C524 C516 1.378 . S
C524 C519 1.350 . S
C525 H512 0.929 . S
C525 C517 1.433 . S
C525 N527 1.384 . S
N526 C522 1.427 . S
N526 C523 1.384 . S
N527 C519 1.427 . S
N527 C525 1.384 . S
H528 C534 0.930 . S
H529 C538 0.930 . S
H530 C543 0.929 . S
H531 C541 0.929 . S
H532 C536 0.929 . S
H533 C542 0.929 . S
C534 H528 0.930 . S
C534 C535 1.367 . S
C534 C542 1.378 . S
C535 C534 1.367 . S
C535 C543 1.433 . S
C536 H532 0.929 . S
C536 C538 1.378 . S
C536 C540 1.350 . S
C537 C540 1.463 . S
C537 C542 1.350 . S
C537 N545 1.427 . S
C538 H529 0.930 . S
C538 C536 1.378 . S
C538 C539 1.367 . S
C539 C538 1.367 . S
C539 C541 1.433 . S
C540 C536 1.350 . S
C540 C537 1.463 . S
C540 N544 1.427 . S
C541 H531 0.929 . S
C541 C539 1.433 . S
C541 N544 1.384 . S
C542 H533 0.929 . S
C542 C534 1.378 . S
C542 C537 1.350 . S
C543 H530 0.929 . S
C543 C535 1.433 . S
C543 N545 1.384 . S
N544 C540 1.427 . S
N544 C541 1.384 . S
N545 C537 1.427 . S
N545 C543 1.384 . S
H546 C552 0.930 . S
H547 C556 0.930 . S
H548 C561 0.929 1_554 S
H549 C559 0.929 . S
H550 C554 0.929 . S
H551 C560 0.929 . S
C552 H546 0.930 . S
C552 C553 1.367 . S
C552 C560 1.378 . S
C553 C552 1.367 . S
C553 C561 1.433 . S
C554 H550 0.929 . S
C554 C556 1.378 . S
C554 C558 1.350 . S
C555 C558 1.463 . S
C555 C560 1.350 . S
C555 N563 1.427 . S
C556 H547 0.930 . S
C556 C554 1.378 . S
C556 C557 1.367 . S
C557 C556 1.367 . S
C557 C559 1.433 . S
C558 C554 1.350 . S
C558 C555 1.463 . S
C558 N562 1.427 . S
C559 H549 0.929 . S
C559 C557 1.433 . S
C559 N562 1.384 . S
C560 H551 0.929 . S
C560 C552 1.378 . S
C560 C555 1.350 . S
C561 H548 0.929 1_556 S
C561 C553 1.433 . S
C561 N563 1.384 . S
N562 C558 1.427 . S
N562 C559 1.384 . S
N563 C555 1.427 . S
N563 C561 1.384 . S
C247 C202 1.751 . S
C251 C2 1.751 . S
C265 C10 1.413 . S
C269 C50 1.421 . S
C283 C42 1.751 . S
C287 C82 1.751 . S
C301 C90 1.422 . S
C305 C130 1.413 . S
C319 C162 1.752 . S
C323 C122 1.752 . S
C337 C210 1.421 . S
C341 C170 1.416 . S
C355 C7 1.298 . S
C359 C16 1.298 . S
C373 C56 1.290 . S
C377 C47 1.290 . S
C391 C87 1.296 . S
C395 C96 1.296 . S
C409 C136 1.297 . S
C413 C127 1.297 . S
C427 C176 1.297 . S
C431 C167 1.297 . S
C445 C216 1.299 . S
C449 C207 1.299 . S
C463 C11 1.824 . S
C467 C179 1.836 . S
C481 C59 1.836 . S
C485 C211 1.828 . S
C499 C19 1.835 . S
C503 C91 1.828 1_554 S
C517 C51 1.826 . S
C521 C139 1.835 . S
C535 C171 1.825 . S
C539 C99 1.837 . S
C553 C131 1.828 1_556 S
C557 C219 1.836 . S
