# Generated by pormake.
# Topology qtz-x, (6)-cn, num edge types: 1
# Building blocks:
#     Node 0, Type 0, BuildingBlock: KUMBUR_clean_sbu_0, # of connection points: 6
#     Node 1, Type 0, BuildingBlock: KUMBUR_clean_sbu_0, # of connection points: 6
#     Node 2, Type 0, BuildingBlock: KUMBUR_clean_sbu_0, # of connection points: 6
#     Edge 3, Type (0, 0), BuildingBlock: FUNLAD_clean_linker_0, # of connection points: 2
#     Edge 4, Type (0, 0), BuildingBlock: FUNLAD_clean_linker_0, # of connection points: 2
#     Edge 5, Type (0, 0), BuildingBlock: FUNLAD_clean_linker_0, # of connection points: 2
#     Edge 6, Type (0, 0), BuildingBlock: FUNLAD_clean_linker_0, # of connection points: 2
#     Edge 7, Type (0, 0), BuildingBlock: FUNLAD_clean_linker_0, # of connection points: 2
#     Edge 8, Type (0, 0), BuildingBlock: FUNLAD_clean_linker_0, # of connection points: 2
#     Edge 9, Type (0, 0), BuildingBlock: FUNLAD_clean_linker_0, # of connection points: 2
#     Edge 10, Type (0, 0), BuildingBlock: FUNLAD_clean_linker_0, # of connection points: 2
#     Edge 11, Type (0, 0), BuildingBlock: FUNLAD_clean_linker_0, # of connection points: 2
# Relax obj value: 0.166
# Max RMSD: 0.277
# Mean RMSD: 0.277
data_MOF--net-qtz-x--node1-KUMBUR_clean_sbu_0--edge1-FUNLAD_clean_linker_0
_symmetry_space_group_name_H-M    P1
_symmetry_Int_Tables_number       1
_symmetry_cell_setting            triclinic
loop_
_symmetry_equiv_pos_as_xyz
'x, y, z'
_cell_length_a     17.49549
_cell_length_b     17.47299
_cell_length_c     57.078811
_cell_angle_alpha  90.146885
_cell_angle_beta   90.029431
_cell_angle_gamma 119.91199
loop_
_atom_site_label
_atom_site_type_symbol
_atom_site_fract_x
_atom_site_fract_y
_atom_site_fract_z
_atom_type_partial_charge
Tb0 Tb 0.25873 0.52658 0.19074 0.0
C1 C 0.87239 0.43913 0.18075 0.0
C2 C 0.79144 0.32045 0.20813 0.0
C3 C 0.73722 0.42012 0.19816 0.0
C4 C 0.86436 0.36834 0.19324 0.0
C5 C 0.80814 0.46506 0.18265 0.0
C6 C 0.72889 0.34787 0.2109 0.0
C7 C 0.88503 0.57277 0.15239 0.0
N8 N 0.94147 0.48018 0.16589 0.0
C9 C 0.94679 0.54425 0.15108 0.0
C10 C 0.81595 0.53374 0.16846 0.0
Tb11 Tb 0.04008 0.42976 0.16505 0.0
N12 N 0.92566 0.34358 0.18982 0.0
C13 C 0.91386 0.26687 0.1995 0.0
C14 C 0.78224 0.24502 0.21919 0.0
C15 C 0.84309 0.21744 0.21458 0.0
H16 H -3e-05 0.57532 0.13864 0.0
H17 H 0.83568 0.15815 0.22266 0.0
H18 H 0.67279 0.31239 0.2224 0.0
H19 H 0.89085 0.62489 0.14103 0.0
H20 H 0.96015 0.24446 0.1963 0.0
H21 H 0.46895 0.79995 0.1343 0.0
H22 H 0.72732 0.20646 0.2308 0.0
H23 H 0.29644 0.37962 0.21732 0.0
H24 H 0.34371 0.71461 0.16056 0.0
H25 H 0.40358 0.32752 0.21484 0.0
H26 H 0.68751 0.43944 0.20003 0.0
H27 H 0.57395 0.74789 0.12555 0.0
H28 H 0.62475 0.63861 0.1334 0.0
H29 H 0.76809 0.55578 0.16941 0.0
H30 H 0.6074 0.51008 0.15554 0.0
N31 N 0.37435 0.61239 0.16628 0.0
C32 C 0.38852 0.6906 0.15706 0.0
C33 C 0.51865 0.70973 0.13709 0.0
C34 C 0.5073 0.63286 0.14778 0.0
C35 C 0.45974 0.73946 0.14206 0.0
C36 C 0.43396 0.58558 0.16258 0.0
H37 H 0.52589 0.39449 0.18628 0.0
N38 N 0.35555 0.47397 0.18992 0.0
C39 C 0.41005 0.3798 0.20343 0.0
C40 C 0.42455 0.51399 0.17498 0.0
C41 C 0.34941 0.40973 0.20479 0.0
C42 C 0.47887 0.4176 0.18725 0.0
C43 C 0.48765 0.48659 0.17302 0.0
O44 O 0.28885 0.5357 0.22671 0.0
O45 O 0.11837 0.46435 0.19641 0.0
O46 O 0.06322 0.54838 0.18372 0.0
O47 O 0.21743 0.62591 0.18475 0.0
O48 O 0.18684 0.42696 0.2177 0.0
O49 O 0.33498 0.65283 0.20577 0.0
O50 O 0.00517 0.41852 0.12938 0.0
O51 O 0.18047 0.49347 0.1593 0.0
O52 O 0.23646 0.40936 0.17149 0.0
O53 O 0.08245 0.3313 0.17096 0.0
O54 O 0.11007 0.52852 0.13788 0.0
O55 O 0.96853 0.30275 0.15029 0.0
C56 C 0.10989 0.41615 0.21368 0.0
C57 C 0.42484 0.6569 0.23753 0.0
C58 C 0.51219 0.69162 0.27351 0.0
C59 C 0.43064 0.66179 0.26213 0.0
C60 C 0.58797 0.71704 0.25982 0.0
C61 C 0.50133 0.68272 0.22426 0.0
C62 C 0.58238 0.71268 0.23539 0.0
C63 C 0.13981 0.62245 0.18598 0.0
C64 C 0.33793 0.62111 0.2262 0.0
C65 C 0.55863 0.5306 0.15747 0.0
C66 C 0.56842 0.60368 0.14485 0.0
C67 C 0.18767 0.54152 0.14207 0.0
C68 C 0.87035 0.29192 0.11997 0.0
C69 C 0.86067 0.30121 0.09585 0.0
C70 C 0.77633 0.26451 0.08558 0.0
C71 C 0.70169 0.21736 0.09988 0.0
C72 C 0.79485 0.24527 0.1339 0.0
C73 C 0.71111 0.20802 0.12383 0.0
C74 C 0.16009 0.33511 0.16935 0.0
C75 C 0.95967 0.33279 0.13018 0.0
H76 H 0.37133 0.64072 0.27238 0.0
H77 H 0.65191 0.74146 0.26798 0.0
H78 H 0.49855 0.6796 0.20533 0.0
H79 H 0.64117 0.73261 0.22505 0.0
H80 H 0.919 0.33873 0.08521 0.0
H81 H 0.63587 0.18712 0.09254 0.0
H82 H 0.80035 0.23753 0.15253 0.0
H83 H 0.65318 0.17181 0.13465 0.0
Tb84 Tb 0.59323 0.89299 0.52459 0.0
C85 C 0.89324 0.27628 0.51106 0.0
C86 C 0.86142 0.36389 0.53793 0.0
C87 C 0.01316 0.41271 0.52701 0.0
C88 C 0.83309 0.28824 0.52374 0.0
C89 C 0.98393 0.33906 0.51217 0.0
C90 C 0.95196 0.42514 0.53987 0.0
C91 C 0.00893 0.25507 0.48257 0.0
N92 N 0.86219 0.20445 0.49691 0.0
C93 C 0.91832 0.19484 0.48204 0.0
C94 C 0.04209 0.32695 0.49791 0.0
Tb95 Tb 0.71272 0.1088 0.49753 0.0
N96 N 0.74635 0.228 0.52117 0.0
C97 C 0.68394 0.24348 0.53094 0.0
C98 C 0.79779 0.37696 0.54914 0.0
C99 C 0.70859 0.31711 0.54534 0.0
H100 H 0.89412 0.13963 0.47012 0.0
H101 H 0.65869 0.32749 0.55352 0.0
H102 H 0.97511 0.48331 0.55083 0.0
H103 H 0.05314 0.24587 0.47117 0.0
H104 H 0.61479 0.19794 0.52827 0.0
H105 H 0.6499 0.68101 0.46659 0.0
H106 H 0.81672 0.4341 0.56023 0.0
H107 H 0.41156 0.85617 0.55289 0.0
H108 H 0.69259 0.80729 0.49299 0.0
H109 H 0.25264 0.74954 0.55138 0.0
H110 H 0.08264 0.46128 0.52827 0.0
H111 H 0.49219 0.57473 0.45928 0.0
H112 H 0.33334 0.52365 0.4687 0.0
H113 H 0.11227 0.37354 0.49827 0.0
H114 H 0.22492 0.5421 0.49194 0.0
N115 N 0.56062 0.77562 0.50027 0.0
C116 C 0.62355 0.76178 0.49013 0.0
C117 C 0.51058 0.6304 0.4709 0.0
C118 C 0.44641 0.64173 0.48244 0.0
C119 C 0.5996 0.69005 0.47504 0.0
C120 C 0.47405 0.71557 0.49729 0.0
H121 H 0.1943 0.6257 0.52304 0.0
N122 N 0.44411 0.79543 0.52514 0.0
C123 C 0.29713 0.74219 0.53964 0.0
C124 C 0.41348 0.72563 0.51028 0.0
C125 C 0.38766 0.80265 0.54043 0.0
C126 C 0.26441 0.67246 0.5236 0.0
C127 C 0.32294 0.66261 0.50891 0.0
O128 O 0.58096 0.86925 0.56088 0.0
O129 O 0.66974 0.03427 0.52947 0.0
O130 O 0.80798 0.08898 0.5171 0.0
O131 O 0.73305 0.93488 0.51772 0.0
O132 O 0.56507 0.9661 0.55115 0.0
O133 O 0.64395 0.81651 0.53901 0.0
O134 O 0.72648 0.13194 0.46127 0.0
O135 O 0.63485 0.96767 0.49263 0.0
O136 O 0.49678 0.91387 0.50596 0.0
O137 O 0.57296 0.06817 0.50408 0.0
O138 O 0.73937 0.03433 0.47099 0.0
O139 O 0.66462 0.18712 0.48279 0.0
C140 C 0.6294 0.04342 0.54656 0.0
C141 C 0.56948 0.73598 0.57301 0.0
C142 C 0.54148 0.65747 0.61026 0.0
C143 C 0.58749 0.73529 0.59698 0.0
C144 C 0.47692 0.58022 0.59902 0.0
C145 C 0.50507 0.65828 0.56217 0.0
C146 C 0.4591 0.58083 0.57517 0.0
C147 C 0.80647 0.01285 0.5192 0.0
C148 C 0.61648 0.81943 0.56004 0.0
C149 C 0.29429 0.59086 0.49341 0.0
C150 C 0.356 0.58042 0.48017 0.0
C151 C 0.67375 0.95752 0.47536 0.0
C152 C 0.74639 0.2691 0.4494 0.0
C153 C 0.76612 0.26639 0.42565 0.0
C154 C 0.81707 0.34457 0.41294 0.0
C155 C 0.84676 0.42616 0.42427 0.0
C156 C 0.77749 0.35123 0.46049 0.0
C157 C 0.82704 0.42923 0.44789 0.0
C158 C 0.49907 0.99027 0.50339 0.0
C159 C 0.69465 0.18504 0.46203 0.0
H160 H 0.63799 0.79542 0.60519 0.0
H161 H 0.43929 0.5195 0.60873 0.0
H162 H 0.49011 0.6575 0.54376 0.0
H163 H 0.40911 0.52111 0.56675 0.0
H164 H 0.7417 0.20294 0.41707 0.0
H165 H 0.8869 0.48756 0.41506 0.0
H166 H 0.76394 0.35529 0.47882 0.0
H167 H 0.85101 0.49239 0.45652 0.0
Tb168 Tb 0.65311 0.54322 0.86212 0.0
C169 C 0.85042 0.35963 0.86491 0.0
C170 C 0.006 0.44108 0.85584 0.0
C171 C 0.95176 0.32509 0.88515 0.0
C172 C 0.9196 0.42592 0.85281 0.0
C173 C 0.86515 0.30678 0.88084 0.0
C174 C 0.02217 0.39214 0.87263 0.0
C175 C 0.70739 0.21666 0.88513 0.0
N176 N 0.76791 0.34329 0.85987 0.0
C177 C 0.69629 0.2711 0.86918 0.0
C178 C 0.79224 0.2354 0.89129 0.0
Tb179 Tb 0.75661 0.43558 0.83339 0.0
N180 N 0.90073 0.47009 0.83647 0.0
C181 C 0.96346 0.52271 0.82056 0.0
C182 C 0.07243 0.50158 0.84107 0.0
C183 C 0.05065 0.54129 0.82303 0.0
H184 H 0.63025 0.25603 0.86488 0.0
H185 H 0.10069 0.58538 0.81089 0.0
H186 H 0.08826 0.40342 0.87544 0.0
H187 H 0.65044 0.16069 0.89279 0.0
H188 H 0.94625 0.55183 0.8063 0.0
H189 H 0.43394 0.52505 0.79286 0.0
H190 H 0.13972 0.51508 0.84277 0.0
H191 H 0.76697 0.70619 0.89935 0.0
H192 H 0.49052 0.46559 0.82305 0.0
H193 H 0.8304 0.86825 0.90089 0.0
H194 H 0.96461 0.28588 0.89752 0.0
H195 H 0.50432 0.68647 0.78702 0.0
H196 H 0.61548 0.83971 0.80072 0.0
H197 H 0.80064 0.19317 0.90364 0.0
H198 H 0.7252 0.93422 0.83025 0.0
N199 N 0.59388 0.59186 0.83398 0.0
C200 C 0.52188 0.53612 0.82083 0.0
C201 C 0.52966 0.66072 0.8003 0.0
C202 C 0.59959 0.71755 0.81486 0.0
C203 C 0.4895 0.56961 0.80363 0.0
C204 C 0.63002 0.68043 0.83181 0.0
H205 H 0.80477 0.94534 0.8681 0.0
N206 N 0.71235 0.69311 0.86527 0.0
C207 C 0.79246 0.83126 0.88577 0.0
C208 C 0.69182 0.73328 0.84813 0.0
C209 C 0.75679 0.73964 0.88482 0.0
C210 C 0.77807 0.87456 0.86721 0.0
C211 C 0.72489 0.82515 0.84838 0.0
O212 O 0.61954 0.53129 0.898 0.0
O213 O 0.70051 0.44998 0.86573 0.0
O214 O 0.61586 0.34177 0.83393 0.0
O215 O 0.54845 0.41014 0.85337 0.0
O216 O 0.73849 0.54924 0.89045 0.0
O217 O 0.52734 0.5206 0.87189 0.0
O218 O 0.71966 0.31217 0.81797 0.0
O219 O 0.67818 0.49919 0.82906 0.0
O220 O 0.79058 0.64266 0.85496 0.0
O221 O 0.86202 0.56089 0.84748 0.0
O222 O 0.78982 0.54322 0.80909 0.0
O223 O 0.77084 0.42831 0.79687 0.0
C224 C 0.74468 0.4816 0.88447 0.0
C225 C 0.52782 0.58853 0.90792 0.0
C226 C 0.49675 0.63405 0.9457 0.0
C227 C 0.50865 0.57349 0.93197 0.0
C228 C 0.50578 0.71053 0.93489 0.0
C229 C 0.53424 0.66423 0.89752 0.0
C230 C 0.52388 0.72503 0.91099 0.0
C231 C 0.54604 0.34239 0.84239 0.0
C232 C 0.5445 0.52672 0.89417 0.0
C233 C 0.69966 0.86356 0.83059 0.0
C234 C 0.63709 0.80974 0.8138 0.0
C235 C 0.72167 0.55156 0.81259 0.0
C236 C 0.80078 0.31833 0.78402 0.0
C237 C 0.79618 0.31551 0.75942 0.0
C238 C 0.8475 0.28973 0.74612 0.0
C239 C 0.90454 0.26783 0.75801 0.0
C240 C 0.85823 0.29642 0.79546 0.0
C241 C 0.90992 0.27155 0.78246 0.0
C242 C 0.86197 0.63517 0.85238 0.0
C243 C 0.74535 0.34495 0.79717 0.0
H244 H 0.50213 0.51415 0.93984 0.0
H245 H 0.49943 0.75976 0.94491 0.0
H246 H 0.54789 0.6769 0.87903 0.0
H247 H 0.53018 0.78386 0.9029 0.0
H248 H 0.75277 0.33406 0.7507 0.0
H249 H 0.94384 0.24611 0.74849 0.0
H250 H 0.86296 0.29815 0.81438 0.0
H251 H 0.9538 0.25426 0.79138 0.0
C252 C 0.21496 0.78707 0.18322 0.0
C253 C 0.13849 0.70612 0.1878 0.0
C254 C 0.21158 0.86516 0.18244 0.0
C255 C 0.13147 0.86383 0.18623 0.0
C256 C 0.05624 0.78371 0.19207 0.0
C257 C 0.05959 0.70558 0.19281 0.0
C258 C 0.12406 0.94454 0.18447 0.0
C259 C 0.17656 0.0134 0.17066 0.0
C260 C 0.16898 0.09403 0.16888 0.0
C261 C 0.24403 0.1742 0.16297 0.0
C262 C 0.24049 0.25224 0.16227 0.0
C263 C 0.16161 0.25156 0.16741 0.0
H264 H 0.0286 0.03147 0.17631 0.0
C265 C 0.08528 0.17053 0.17202 0.0
C266 C 0.08883 0.09254 0.17274 0.0
H267 H 0.02301 0.16728 0.17562 0.0
H268 H 0.2772 0.79017 0.17969 0.0
H269 H 0.27188 0.92618 0.17889 0.0
H270 H -0.00591 0.78113 0.19552 0.0
H271 H -5e-05 0.64463 0.19697 0.0
H272 H 0.07196 0.94571 0.19451 0.0
H273 H 0.22869 0.01225 0.16063 0.0
H274 H 0.3062 0.1769 0.15946 0.0
H275 H 0.29997 0.31325 0.15805 0.0
C276 C 0.40945 0.06376 0.50885 0.0
C277 C 0.41411 0.98844 0.50266 0.0
C278 C 0.32797 0.05898 0.51138 0.0
C279 C 0.24936 0.97882 0.50737 0.0
C280 C 0.25437 0.90442 0.50036 0.0
C281 C 0.33589 0.90922 0.49789 0.0
C282 C 0.16109 0.96864 0.51134 0.0
C283 C 0.14567 0.03678 0.51193 0.0
C284 C 0.05712 0.02611 0.51573 0.0
C285 C 0.05129 0.09967 0.52313 0.0
C286 C 0.9694 0.09424 0.52542 0.0
C287 C 0.89171 0.01528 0.52006 0.0
H288 H 0.98004 0.88844 0.50473 0.0
C289 C 0.89719 0.9408 0.51344 0.0
C290 C 0.97898 0.94621 0.5111 0.0
H291 H 0.83863 0.87912 0.50908 0.0
H292 H 0.46847 0.12567 0.51274 0.0
H293 H 0.32763 0.11751 0.51737 0.0
H294 H 0.19494 0.8419 0.49711 0.0
H295 H 0.33744 0.85027 0.49278 0.0
H296 H 0.10718 0.90183 0.51386 0.0
H297 H 0.19949 0.10369 0.5095 0.0
H298 H 0.11036 0.16199 0.52683 0.0
H299 H 0.96716 0.15255 0.53084 0.0
C300 C 0.00716 0.74019 0.83555 0.0
C301 C 0.94694 0.71622 0.85398 0.0
C302 C 0.08468 0.82149 0.83593 0.0
C303 C 0.10222 0.88051 0.85469 0.0
C304 C 0.04353 0.85437 0.87362 0.0
C305 C 0.9662 0.77275 0.87323 0.0
C306 C 0.18081 0.96953 0.85512 0.0
C307 C 0.2221 0.01323 0.83557 0.0
C308 C 0.30193 0.10075 0.83653 0.0
C309 C 0.36994 0.12014 0.8206 0.0
C310 C 0.4491 0.19965 0.82226 0.0
C311 C 0.46049 0.26165 0.83961 0.0
H312 H 0.25913 0.15166 0.86536 0.0
C313 C 0.39057 0.24422 0.85477 0.0
C314 C 0.31185 0.1641 0.85331 0.0
H315 H 0.39749 0.29125 0.86818 0.0
H316 H -0.00706 0.69767 0.82045 0.0
H317 H 0.13 0.83761 0.82146 0.0
H318 H 0.05649 0.89796 0.88847 0.0
H319 H 0.92149 0.75397 0.88793 0.0
H320 H 0.20427 0.00071 0.87213 0.0
H321 H 0.20004 0.98321 0.81842 0.0
H322 H 0.36293 0.07246 0.80736 0.0
H323 H 0.50161 0.21212 0.81011 0.0
C324 C 0.41541 0.64193 0.98106 0.0
C325 C 0.47395 0.61784 0.9711 0.0
C326 C 0.3951 0.62937 1.00488 0.0
C327 C 0.43245 0.59193 0.01948 0.0
C328 C 0.48886 0.56528 1.00953 0.0
C329 C 0.51011 0.5788 0.98563 0.0
C330 C 0.40893 0.57598 0.04477 0.0
C331 C 0.3928 0.63154 0.0575 0.0
C332 C 0.35184 0.61251 0.08122 0.0
C333 C 0.31489 0.66349 0.08881 0.0
C334 C 0.26529 0.64227 0.1093 0.0
C335 C 0.25326 0.57094 0.1231 0.0
H336 H 0.37195 0.50315 0.09074 0.0
C337 C 0.29383 0.5223 0.11639 0.0
C338 C 0.34306 0.54301 0.09561 0.0
H339 H 0.28445 0.46617 0.12662 0.0
H340 H 0.38392 0.66948 0.97038 0.0
H341 H 0.34835 0.64725 1.0117 0.0
H342 H 0.51753 0.53512 0.02032 0.0
H343 H 0.55581 0.5598 0.97866 0.0
H344 H 0.4022 0.51629 0.05248 0.0
H345 H 0.40378 0.69227 0.04928 0.0
H346 H 0.3208 0.71767 0.07827 0.0
H347 H 0.2341 0.68032 0.11407 0.0
C348 C 0.83975 0.39741 0.37111 0.0
C349 C 0.8417 0.34054 0.38819 0.0
C350 C 0.8653 0.39465 0.34799 0.0
C351 C 0.89358 0.33489 0.34151 0.0
C352 C 0.89522 0.27813 0.35862 0.0
C353 C 0.86928 0.28055 0.38162 0.0
C354 C 0.92798 0.33358 0.31775 0.0
C355 C 0.90944 0.36453 0.29817 0.0
C356 C 0.95163 0.36922 0.27511 0.0
C357 C 0.95984 0.43278 0.2587 0.0
C358 C 0.00777 0.44587 0.23802 0.0
C359 C 0.04712 0.39449 0.23319 0.0
H360 H 0.97889 0.26202 0.28104 0.0
C361 C 0.03507 0.32791 0.24892 0.0
C362 C 0.98692 0.3145 0.2695 0.0
H363 H 0.06447 0.28717 0.24548 0.0
H364 H 0.81856 0.4442 0.37561 0.0
H365 H 0.86512 0.44114 0.33556 0.0
H366 H 0.91756 0.23211 0.35424 0.0
H367 H 0.87291 0.23676 0.39441 0.0
H368 H 0.97225 0.30705 0.3167 0.0
H369 H 0.86585 0.3919 0.29918 0.0
H370 H 0.93247 0.47514 0.26237 0.0
H371 H 0.01694 0.4985 0.22638 0.0
C372 C 0.72051 0.64665 0.78031 0.0
C373 C 0.68078 0.56463 0.79159 0.0
C374 C 0.69118 0.65529 0.75814 0.0
C375 C 0.62206 0.58128 0.74674 0.0
C376 C 0.58184 0.49968 0.75841 0.0
C377 C 0.61134 0.49121 0.78046 0.0
C378 C 0.59442 0.58331 0.72209 0.0
C379 C 0.62116 0.65701 0.70922 0.0
C380 C 0.59817 0.65468 0.68396 0.0
C381 C 0.59719 0.72774 0.67411 0.0
C382 C 0.57831 0.72862 0.65029 0.0
C383 C 0.5609 0.65667 0.63568 0.0
H384 H 0.58509 0.52691 0.67592 0.0
C385 C 0.56295 0.584 0.64551 0.0
C386 C 0.58157 0.58304 0.6693 0.0
H387 H 0.55201 0.52838 0.6347 0.0
H388 H 0.77595 0.70345 0.78836 0.0
H389 H 0.72552 0.71915 0.74981 0.0
H390 H 0.52913 0.44132 0.75011 0.0
H391 H 0.58161 0.4266 0.78854 0.0
H392 H 0.54983 0.51986 0.71412 0.0
H393 H 0.65979 0.72151 0.71727 0.0
H394 H 0.61055 0.78421 0.6849 0.0
H395 H 0.57655 0.7854 0.6434 0.0
C396 C 0.68509 0.36496 0.91481 0.0
C397 C 0.75832 0.43182 0.90309 0.0
C398 C 0.69596 0.33111 0.93592 0.0
C399 C 0.7803 0.36541 0.94604 0.0
C400 C 0.85383 0.42944 0.93366 0.0
C401 C 0.84278 0.46354 0.91257 0.0
C402 C 0.79324 0.33994 0.96999 0.0
C403 C 0.73213 0.31714 0.987 0.0
C404 C 0.74577 0.3024 1.01201 0.0
C405 C 0.68955 0.30652 0.0289 0.0
C406 C 0.69962 0.29437 0.05263 0.0
C407 C 0.76593 0.27699 0.06018 0.0
H408 H 0.85514 0.27807 1.00704 0.0
C409 C 0.82185 0.27187 0.04329 0.0
C410 C 0.81182 0.28417 0.01946 0.0
H411 H 0.87264 0.25705 0.04845 0.0
H412 H 0.61912 0.34124 0.90804 0.0
H413 H 0.63794 0.27981 0.94453 0.0
H414 H 0.91954 0.45664 0.94093 0.0
H415 H 0.89983 0.51683 0.90407 0.0
H416 H 0.85786 0.34937 0.9742 0.0
H417 H 0.67078 0.3157 0.98291 0.0
H418 H 0.63803 0.32035 0.02375 0.0
H419 H 0.6561 0.30001 0.06513 0.0
C420 C 0.47565 0.73216 0.31268 0.0
C421 C 0.51904 0.69701 0.29956 0.0
C422 C 0.48814 0.74383 0.33697 0.0
C423 C 0.54379 0.71964 0.34875 0.0
C424 C 0.5846 0.68181 0.33564 0.0
C425 C 0.57243 0.67059 0.31141 0.0
C426 C 0.56824 0.74018 0.37399 0.0
C427 C 0.52694 0.76592 0.38944 0.0
C428 C 0.56274 0.80213 0.41322 0.0
C429 C 0.50732 0.80917 0.42991 0.0
C430 C 0.54166 0.85489 0.45101 0.0
C431 C 0.6322 0.89418 0.45586 0.0
H432 H 0.69901 0.83768 0.40626 0.0
C433 C 0.68695 0.88422 0.43969 0.0
C434 C 0.65293 0.83886 0.41865 0.0
H435 H 0.75726 0.91509 0.4429 0.0
H436 H 0.43478 0.75401 0.30404 0.0
H437 H 0.4567 0.77495 0.34611 0.0
H438 H 0.62792 0.66262 0.34411 0.0
H439 H 0.60578 0.64205 0.30189 0.0
H440 H 0.62486 0.73563 0.37984 0.0
H441 H 0.46587 0.76331 0.38444 0.0
H442 H 0.43781 0.78228 0.42621 0.0
H443 H 0.49813 0.86308 0.4629 0.0
C444 C 0.91363 0.30465 0.70587 0.0
C445 C 0.83973 0.28321 0.72002 0.0
C446 C 0.90497 0.29372 0.68152 0.0
C447 C 0.82272 0.26267 0.67064 0.0
C448 C 0.74897 0.24239 0.68472 0.0
C449 C 0.75742 0.25251 0.70905 0.0
C450 C 0.81394 0.24392 0.64499 0.0
C451 C 0.75009 0.24408 0.63178 0.0
C452 C 0.72667 0.20594 0.60773 0.0
C453 C 0.63916 0.17195 0.60027 0.0
C454 C 0.60947 0.12336 0.57955 0.0
C455 C 0.66719 0.10976 0.56544 0.0
H456 H 0.85467 0.22421 0.59767 0.0
C457 C 0.75637 0.14876 0.57189 0.0
C458 C 0.78606 0.19671 0.59289 0.0
H459 H 0.80203 0.13855 0.56139 0.0
H460 H 0.97834 0.3296 0.71359 0.0
H461 H 0.96272 0.30905 0.67115 0.0
H462 H 0.68374 0.21508 0.67718 0.0
H463 H 0.69856 0.23322 0.71931 0.0
H464 H 0.85874 0.22491 0.63729 0.0
H465 H 0.70681 0.2647 0.63972 0.0
H466 H 0.59211 0.17864 0.61117 0.0
H467 H 0.54032 0.09358 0.57493 0.0
loop_
_geom_bond_atom_site_label_1
_geom_bond_atom_site_label_2
_geom_bond_distance
_geom_bond_site_symmetry_2
_ccdc_geom_bond_type
Tb0 N31 2.660 . S
Tb0 N38 2.600 . S
Tb0 O44 2.546 . S
Tb0 O45 2.610 1_455 S
Tb0 O47 2.320 . S
Tb0 O48 2.552 . S
Tb0 O49 2.413 . S
Tb0 O51 2.362 . S
Tb0 O52 2.421 . S
Tb0 C64 2.833 . S
C1 C4 1.432 . S
C1 C5 1.414 . S
C1 N8 1.359 . S
C2 C4 1.417 . S
C2 C6 1.432 . S
C2 C14 1.410 . S
C3 C5 1.444 . S
C3 C6 1.317 . S
C3 H26 0.929 . S
C4 C1 1.432 . S
C4 C2 1.417 . S
C4 N12 1.360 . S
C5 C1 1.414 . S
C5 C3 1.444 . S
C5 C10 1.385 . S
C6 C2 1.432 . S
C6 C3 1.317 . S
C6 H18 0.930 . S
C7 C9 1.392 . S
C7 C10 1.370 . S
C7 H19 0.931 . S
N8 C1 1.359 . S
N8 C9 1.327 . S
N8 Tb11 2.600 . S
C9 C7 1.392 . S
C9 N8 1.327 . S
C9 H16 0.930 . S
C10 C5 1.385 . S
C10 C7 1.370 . S
C10 H29 0.930 . S
Tb11 N8 2.600 . S
Tb11 N12 2.660 . S
Tb11 O45 2.362 . S
Tb11 O46 2.421 . S
Tb11 O50 2.546 . S
Tb11 O51 2.610 1_655 S
Tb11 O53 2.320 . S
Tb11 O54 2.552 . S
Tb11 O55 2.413 . S
Tb11 C75 2.833 . S
N12 C4 1.360 . S
N12 Tb11 2.660 . S
N12 C13 1.305 . S
C13 N12 1.305 . S
C13 C15 1.407 . S
C13 H20 0.930 . S
C14 C2 1.410 . S
C14 C15 1.345 . S
C14 H22 0.930 . S
C15 C13 1.407 . S
C15 C14 1.345 . S
C15 H17 0.930 . S
H16 C9 0.930 . S
H17 C15 0.930 . S
H18 C6 0.930 . S
H19 C7 0.931 . S
H20 C13 0.930 . S
H21 C35 0.930 . S
H22 C14 0.930 . S
H23 C41 0.930 . S
H24 C32 0.930 . S
H25 C39 0.931 . S
H26 C3 0.929 . S
H27 C33 0.930 . S
H28 C66 0.930 . S
H29 C10 0.930 . S
H30 C65 0.929 . S
N31 Tb0 2.660 . S
N31 C32 1.305 . S
N31 C36 1.360 . S
C32 H24 0.930 . S
C32 N31 1.305 . S
C32 C35 1.407 . S
C33 H27 0.930 . S
C33 C34 1.410 . S
C33 C35 1.345 . S
C34 C33 1.410 . S
C34 C36 1.417 . S
C34 C66 1.432 . S
C35 H21 0.930 . S
C35 C32 1.407 . S
C35 C33 1.345 . S
C36 N31 1.360 . S
C36 C34 1.417 . S
C36 C40 1.432 . S
H37 C42 0.930 . S
N38 Tb0 2.600 . S
N38 C40 1.359 . S
N38 C41 1.327 . S
C39 H25 0.931 . S
C39 C41 1.392 . S
C39 C42 1.370 . S
C40 C36 1.432 . S
C40 N38 1.359 . S
C40 C43 1.414 . S
C41 H23 0.930 . S
C41 N38 1.327 . S
C41 C39 1.392 . S
C42 H37 0.930 . S
C42 C39 1.370 . S
C42 C43 1.385 . S
C43 C40 1.414 . S
C43 C42 1.385 . S
C43 C65 1.444 . S
O44 Tb0 2.546 . S
O44 C64 1.251 . S
O45 Tb0 2.610 1_655 S
O45 Tb11 2.362 . S
O45 C56 1.283 . S
O46 Tb11 2.421 . S
O46 C63 1.262 1_655 S
O47 Tb0 2.320 . S
O47 C63 1.260 . S
O48 Tb0 2.552 . S
O48 C56 1.243 1_455 S
O49 Tb0 2.413 . S
O49 C64 1.256 . S
O50 Tb11 2.546 . S
O50 C75 1.251 . S
O51 Tb0 2.362 . S
O51 Tb11 2.610 1_455 S
O51 C67 1.283 . S
O52 Tb0 2.421 . S
O52 C74 1.262 1_455 S
O53 Tb11 2.320 . S
O53 C74 1.260 . S
O54 Tb11 2.552 . S
O54 C67 1.243 1_655 S
O55 Tb11 2.413 . S
O55 C75 1.256 . S
C56 O45 1.283 . S
C56 O48 1.243 1_655 S
C57 C59 1.382 . S
C57 C61 1.393 . S
C57 C64 1.500 . S
C58 C59 1.400 . S
C58 C60 1.384 . S
C59 C57 1.382 . S
C59 C58 1.400 . S
C59 H76 0.930 . S
C60 C58 1.384 . S
C60 C62 1.392 . S
C60 H77 0.931 . S
C61 C57 1.393 . S
C61 C62 1.401 . S
C61 H78 0.930 . S
C62 C60 1.392 . S
C62 C61 1.401 . S
C62 H79 0.930 . S
C63 O46 1.262 1_455 S
C63 O47 1.260 . S
C64 Tb0 2.833 . S
C64 O44 1.251 . S
C64 O49 1.256 . S
C64 C57 1.500 . S
C65 H30 0.929 . S
C65 C43 1.444 . S
C65 C66 1.317 . S
C66 H28 0.930 . S
C66 C34 1.432 . S
C66 C65 1.317 . S
C67 O51 1.283 . S
C67 O54 1.243 1_455 S
C68 C69 1.382 . S
C68 C72 1.393 . S
C68 C75 1.500 . S
C69 C68 1.382 . S
C69 C70 1.400 . S
C69 H80 0.930 . S
C70 C69 1.400 . S
C70 C71 1.384 . S
C71 C70 1.384 . S
C71 C73 1.392 . S
C71 H81 0.931 . S
C72 C68 1.393 . S
C72 C73 1.401 . S
C72 H82 0.930 . S
C73 C71 1.392 . S
C73 C72 1.401 . S
C73 H83 0.930 . S
C74 O52 1.262 1_655 S
C74 O53 1.260 . S
C75 Tb11 2.833 . S
C75 O50 1.251 . S
C75 O55 1.256 . S
C75 C68 1.500 . S
H76 C59 0.930 . S
H77 C60 0.931 . S
H78 C61 0.930 . S
H79 C62 0.930 . S
H80 C69 0.930 . S
H81 C71 0.931 . S
H82 C72 0.930 . S
H83 C73 0.930 . S
Tb84 N115 2.660 1_545 S
Tb84 N122 2.600 1_545 S
Tb84 O128 2.546 . S
Tb84 O129 2.610 . S
Tb84 O131 2.320 . S
Tb84 O132 2.552 . S
Tb84 O133 2.413 1_545 S
Tb84 O135 2.362 . S
Tb84 O136 2.421 . S
Tb84 C148 2.833 1_545 S
C85 C88 1.432 1_455 S
C85 C89 1.414 . S
C85 N92 1.359 . S
C86 C88 1.417 . S
C86 C90 1.432 1_655 S
C86 C98 1.410 . S
C87 C89 1.444 . S
C87 C90 1.317 . S
C87 H110 0.929 . S
C88 C85 1.432 1_655 S
C88 C86 1.417 . S
C88 N96 1.360 . S
C89 C85 1.414 . S
C89 C87 1.444 . S
C89 C94 1.385 . S
C90 C86 1.432 1_455 S
C90 C87 1.317 . S
C90 H102 0.930 . S
C91 C93 1.392 . S
C91 C94 1.370 . S
C91 H103 0.931 . S
N92 C85 1.359 . S
N92 C93 1.327 . S
N92 Tb95 2.600 1_455 S
C93 C91 1.392 . S
C93 N92 1.327 . S
C93 H100 0.930 . S
C94 C89 1.385 . S
C94 C91 1.370 . S
C94 H113 0.930 . S
Tb95 N92 2.600 1_655 S
Tb95 N96 2.660 . S
Tb95 O129 2.362 . S
Tb95 O130 2.421 . S
Tb95 O134 2.546 . S
Tb95 O135 2.610 . S
Tb95 O137 2.320 . S
Tb95 O138 2.552 . S
Tb95 O139 2.413 . S
Tb95 C159 2.833 . S
N96 C88 1.360 . S
N96 Tb95 2.660 . S
N96 C97 1.305 . S
C97 N96 1.305 . S
C97 C99 1.407 . S
C97 H104 0.930 . S
C98 C86 1.410 . S
C98 C99 1.345 . S
C98 H106 0.930 . S
C99 C97 1.407 . S
C99 C98 1.345 . S
C99 H101 0.930 . S
H100 C93 0.930 . S
H101 C99 0.930 . S
H102 C90 0.930 . S
H103 C91 0.931 . S
H104 C97 0.930 . S
H105 C119 0.930 . S
H106 C98 0.930 . S
H107 C125 0.930 . S
H108 C116 0.930 . S
H109 C123 0.931 . S
H110 C87 0.929 . S
H111 C117 0.930 . S
H112 C150 0.930 . S
H113 C94 0.930 . S
H114 C149 0.929 . S
N115 Tb84 2.660 1_565 S
N115 C116 1.305 . S
N115 C120 1.360 . S
C116 H108 0.930 . S
C116 N115 1.305 . S
C116 C119 1.407 . S
C117 H111 0.930 . S
C117 C118 1.410 . S
C117 C119 1.345 . S
C118 C117 1.410 . S
C118 C120 1.417 . S
C118 C150 1.432 . S
C119 H105 0.930 . S
C119 C116 1.407 . S
C119 C117 1.345 . S
C120 N115 1.360 . S
C120 C118 1.417 . S
C120 C124 1.432 . S
H121 C126 0.930 . S
N122 Tb84 2.600 1_565 S
N122 C124 1.359 . S
N122 C125 1.327 . S
C123 H109 0.931 . S
C123 C125 1.392 . S
C123 C126 1.370 . S
C124 C120 1.432 . S
C124 N122 1.359 . S
C124 C127 1.414 . S
C125 H107 0.930 . S
C125 N122 1.327 . S
C125 C123 1.392 . S
C126 H121 0.930 . S
C126 C123 1.370 . S
C126 C127 1.385 . S
C127 C124 1.414 . S
C127 C126 1.385 . S
C127 C149 1.444 . S
O128 Tb84 2.546 . S
O128 C148 1.251 1_545 S
O129 Tb84 2.610 . S
O129 Tb95 2.362 . S
O129 C140 1.283 . S
O130 Tb95 2.421 . S
O130 C147 1.262 . S
O131 Tb84 2.320 . S
O131 C147 1.260 . S
O132 Tb84 2.552 . S
O132 C140 1.243 . S
O133 Tb84 2.413 1_565 S
O133 C148 1.256 . S
O134 Tb95 2.546 . S
O134 C159 1.251 . S
O135 Tb84 2.362 . S
O135 Tb95 2.610 . S
O135 C151 1.283 . S
O136 Tb84 2.421 . S
O136 C158 1.262 . S
O137 Tb95 2.320 . S
O137 C158 1.260 . S
O138 Tb95 2.552 . S
O138 C151 1.243 . S
O139 Tb95 2.413 . S
O139 C159 1.256 . S
C140 O129 1.283 . S
C140 O132 1.243 . S
C141 C143 1.382 . S
C141 C145 1.393 . S
C141 C148 1.500 . S
C142 C143 1.400 . S
C142 C144 1.384 . S
C143 C141 1.382 . S
C143 C142 1.400 . S
C143 H160 0.930 . S
C144 C142 1.384 . S
C144 C146 1.392 . S
C144 H161 0.931 . S
C145 C141 1.393 . S
C145 C146 1.401 . S
C145 H162 0.930 . S
C146 C144 1.392 . S
C146 C145 1.401 . S
C146 H163 0.930 . S
C147 O130 1.262 . S
C147 O131 1.260 . S
C148 Tb84 2.833 1_565 S
C148 O128 1.251 1_565 S
C148 O133 1.256 . S
C148 C141 1.500 . S
C149 H114 0.929 . S
C149 C127 1.444 . S
C149 C150 1.317 . S
C150 H112 0.930 . S
C150 C118 1.432 . S
C150 C149 1.317 . S
C151 O135 1.283 . S
C151 O138 1.243 . S
C152 C153 1.382 . S
C152 C156 1.393 . S
C152 C159 1.500 . S
C153 C152 1.382 . S
C153 C154 1.400 . S
C153 H164 0.930 . S
C154 C153 1.400 . S
C154 C155 1.384 . S
C155 C154 1.384 . S
C155 C157 1.392 . S
C155 H165 0.931 . S
C156 C152 1.393 . S
C156 C157 1.401 . S
C156 H166 0.930 1_655 S
C157 C155 1.392 . S
C157 C156 1.401 . S
C157 H167 0.930 1_655 S
C158 O136 1.262 . S
C158 O137 1.260 . S
C159 Tb95 2.833 . S
C159 O134 1.251 . S
C159 O139 1.256 . S
C159 C152 1.500 . S
H160 C143 0.930 . S
H161 C144 0.931 . S
H162 C145 0.930 . S
H163 C146 0.930 . S
H164 C153 0.930 . S
H165 C155 0.931 . S
H166 C156 0.930 1_455 S
H167 C157 0.930 1_455 S
Tb168 N199 2.660 . S
Tb168 N206 2.600 . S
Tb168 O212 2.546 . S
Tb168 O213 2.610 . S
Tb168 O215 2.320 . S
Tb168 O216 2.552 . S
Tb168 O217 2.413 . S
Tb168 O219 2.362 . S
Tb168 O220 2.421 . S
Tb168 C232 2.833 . S
C169 C172 1.432 . S
C169 C173 1.414 . S
C169 N176 1.359 . S
C170 C172 1.417 . S
C170 C174 1.432 . S
C170 C182 1.410 1_655 S
C171 C173 1.444 . S
C171 C174 1.317 . S
C171 H194 0.929 . S
C172 C169 1.432 . S
C172 C170 1.417 . S
C172 N180 1.360 . S
C173 C169 1.414 . S
C173 C171 1.444 . S
C173 C178 1.385 . S
C174 C170 1.432 . S
C174 C171 1.317 . S
C174 H186 0.930 1_655 S
C175 C177 1.392 . S
C175 C178 1.370 . S
C175 H187 0.931 1_545 S
N176 C169 1.359 . S
N176 C177 1.327 . S
N176 Tb179 2.600 . S
C177 C175 1.392 . S
C177 N176 1.327 . S
C177 H184 0.930 . S
C178 C173 1.385 . S
C178 C175 1.370 . S
C178 H197 0.930 1_545 S
Tb179 N176 2.600 . S
Tb179 N180 2.660 . S
Tb179 O213 2.362 . S
Tb179 O214 2.421 . S
Tb179 O218 2.546 . S
Tb179 O219 2.610 . S
Tb179 O221 2.320 . S
Tb179 O222 2.552 . S
Tb179 O223 2.413 . S
Tb179 C243 2.833 . S
N180 C172 1.360 . S
N180 Tb179 2.660 . S
N180 C181 1.305 1_655 S
C181 N180 1.305 1_455 S
C181 C183 1.407 . S
C181 H188 0.930 . S
C182 C170 1.410 1_455 S
C182 C183 1.345 . S
C182 H190 0.930 . S
C183 C181 1.407 . S
C183 C182 1.345 . S
C183 H185 0.930 . S
H184 C177 0.930 . S
H185 C183 0.930 . S
H186 C174 0.930 1_455 S
H187 C175 0.931 1_565 S
H188 C181 0.930 . S
H189 C203 0.930 . S
H190 C182 0.930 . S
H191 C209 0.930 . S
H192 C200 0.930 . S
H193 C207 0.931 . S
H194 C171 0.929 . S
H195 C201 0.930 . S
H196 C234 0.930 . S
H197 C178 0.930 1_565 S
H198 C233 0.929 . S
N199 Tb168 2.660 . S
N199 C200 1.305 . S
N199 C204 1.360 . S
C200 H192 0.930 . S
C200 N199 1.305 . S
C200 C203 1.407 . S
C201 H195 0.930 . S
C201 C202 1.410 . S
C201 C203 1.345 . S
C202 C201 1.410 . S
C202 C204 1.417 . S
C202 C234 1.432 . S
C203 H189 0.930 . S
C203 C200 1.407 . S
C203 C201 1.345 . S
C204 N199 1.360 . S
C204 C202 1.417 . S
C204 C208 1.432 . S
H205 C210 0.930 . S
N206 Tb168 2.600 . S
N206 C208 1.359 . S
N206 C209 1.327 . S
C207 H193 0.931 . S
C207 C209 1.392 . S
C207 C210 1.370 . S
C208 C204 1.432 . S
C208 N206 1.359 . S
C208 C211 1.414 . S
C209 H191 0.930 . S
C209 N206 1.327 . S
C209 C207 1.392 . S
C210 H205 0.930 . S
C210 C207 1.370 . S
C210 C211 1.385 . S
C211 C208 1.414 . S
C211 C210 1.385 . S
C211 C233 1.444 . S
O212 Tb168 2.546 . S
O212 C232 1.251 . S
O213 Tb168 2.610 . S
O213 Tb179 2.362 . S
O213 C224 1.283 . S
O214 Tb179 2.421 . S
O214 C231 1.262 . S
O215 Tb168 2.320 . S
O215 C231 1.260 . S
O216 Tb168 2.552 . S
O216 C224 1.243 . S
O217 Tb168 2.413 . S
O217 C232 1.256 . S
O218 Tb179 2.546 . S
O218 C243 1.251 . S
O219 Tb168 2.362 . S
O219 Tb179 2.610 . S
O219 C235 1.283 . S
O220 Tb168 2.421 . S
O220 C242 1.262 . S
O221 Tb179 2.320 . S
O221 C242 1.260 . S
O222 Tb179 2.552 . S
O222 C235 1.243 . S
O223 Tb179 2.413 . S
O223 C243 1.256 . S
C224 O213 1.283 . S
C224 O216 1.243 . S
C225 C227 1.382 . S
C225 C229 1.393 . S
C225 C232 1.500 . S
C226 C227 1.400 . S
C226 C228 1.384 . S
C227 C225 1.382 . S
C227 C226 1.400 . S
C227 H244 0.930 . S
C228 C226 1.384 . S
C228 C230 1.392 . S
C228 H245 0.931 . S
C229 C225 1.393 . S
C229 C230 1.401 . S
C229 H246 0.930 . S
C230 C228 1.392 . S
C230 C229 1.401 . S
C230 H247 0.930 . S
C231 O214 1.262 . S
C231 O215 1.260 . S
C232 Tb168 2.833 . S
C232 O212 1.251 . S
C232 O217 1.256 . S
C232 C225 1.500 . S
C233 H198 0.929 . S
C233 C211 1.444 . S
C233 C234 1.317 . S
C234 H196 0.930 . S
C234 C202 1.432 . S
C234 C233 1.317 . S
C235 O219 1.283 . S
C235 O222 1.243 . S
C236 C237 1.382 . S
C236 C240 1.393 . S
C236 C243 1.500 . S
C237 C236 1.382 . S
C237 C238 1.400 1_655 S
C237 H248 0.930 1_655 S
C238 C237 1.400 1_455 S
C238 C239 1.384 1_455 S
C239 C238 1.384 1_655 S
C239 C241 1.392 . S
C239 H249 0.931 1_655 S
C240 C236 1.393 . S
C240 C241 1.401 . S
C240 H250 0.930 . S
C241 C239 1.392 . S
C241 C240 1.401 . S
C241 H251 0.930 . S
C242 O220 1.262 . S
C242 O221 1.260 . S
C243 Tb179 2.833 . S
C243 O218 1.251 . S
C243 O223 1.256 . S
C243 C236 1.500 . S
H244 C227 0.930 . S
H245 C228 0.931 . S
H246 C229 0.930 . S
H247 C230 0.930 . S
H248 C237 0.930 1_455 S
H249 C239 0.931 1_455 S
H250 C240 0.930 . S
H251 C241 0.930 . S
C252 C253 1.386 . S
C252 C254 1.383 . S
C252 H268 0.951 . S
C253 C252 1.386 . S
C253 C257 1.383 1_455 S
C254 C252 1.383 . S
C254 C255 1.402 . S
C254 H269 0.951 . S
C255 C254 1.402 . S
C255 C256 1.375 1_455 S
C255 C258 1.485 . S
C256 C255 1.375 1_655 S
C256 C257 1.367 . S
C256 H270 0.951 . S
C257 C253 1.383 1_655 S
C257 C256 1.367 . S
C257 H271 0.950 . S
C258 C255 1.485 . S
C258 C259 1.298 . S
C258 H272 0.945 1_455 S
C259 C258 1.298 . S
C259 C260 1.479 1_565 S
C259 H273 0.950 . S
C260 C259 1.479 1_545 S
C260 C261 1.375 . S
C260 C266 1.404 1_455 S
C261 C260 1.375 . S
C261 C262 1.369 . S
C261 H274 0.950 . S
C262 C261 1.369 . S
C262 C263 1.392 . S
C262 H275 0.951 . S
C263 C262 1.392 . S
C263 C265 1.384 1_455 S
H264 C266 0.949 1_565 S
C265 C263 1.384 1_655 S
C265 C266 1.385 . S
C265 H267 0.950 . S
C266 C260 1.404 1_655 S
C266 H264 0.949 1_545 S
C266 C265 1.385 . S
H267 C265 0.950 . S
H268 C252 0.951 . S
H269 C254 0.951 . S
H270 C256 0.951 . S
H271 C257 0.950 . S
H272 C258 0.945 1_655 S
H273 C259 0.950 . S
H274 C261 0.950 . S
H275 C262 0.951 . S
C276 C277 1.386 . S
C276 C278 1.383 . S
C276 H292 0.951 . S
C277 C276 1.386 . S
C277 C281 1.383 . S
C278 C276 1.383 . S
C278 C279 1.402 . S
C278 H293 0.951 . S
C279 C278 1.402 . S
C279 C280 1.375 . S
C279 C282 1.481 . S
C280 C279 1.375 . S
C280 C281 1.367 . S
C280 H294 0.951 . S
C281 C277 1.383 . S
C281 C280 1.367 . S
C281 H295 0.950 . S
C282 C279 1.481 . S
C282 C283 1.297 . S
C282 H296 0.950 . S
C283 C282 1.297 . S
C283 C284 1.479 . S
C283 H297 0.950 . S
C284 C283 1.479 . S
C284 C285 1.375 . S
C284 C290 1.404 . S
C285 C284 1.375 . S
C285 C286 1.369 . S
C285 H298 0.950 . S
C286 C285 1.369 . S
C286 C287 1.392 . S
C286 H299 0.951 . S
C287 C286 1.392 . S
C287 C289 1.384 . S
H288 C290 0.949 . S
C289 C287 1.384 . S
C289 C290 1.385 . S
C289 H291 0.950 1_455 S
C290 C284 1.404 . S
C290 H288 0.949 . S
C290 C289 1.385 . S
H291 C289 0.950 1_655 S
H292 C276 0.951 . S
H293 C278 0.951 . S
H294 C280 0.951 . S
H295 C281 0.950 . S
H296 C282 0.950 . S
H297 C283 0.950 . S
H298 C285 0.950 . S
H299 C286 0.951 . S
C300 C301 1.386 . S
C300 C302 1.383 . S
C300 H316 0.951 . S
C301 C300 1.386 . S
C301 C305 1.383 . S
C302 C300 1.383 . S
C302 C303 1.402 . S
C302 H317 0.951 . S
C303 C302 1.402 . S
C303 C304 1.375 . S
C303 C306 1.481 . S
C304 C303 1.375 . S
C304 C305 1.367 . S
C304 H318 0.951 . S
C305 C301 1.383 . S
C305 C304 1.367 . S
C305 H319 0.950 1_455 S
C306 C303 1.481 . S
C306 C307 1.297 . S
C306 H320 0.950 . S
C307 C306 1.297 . S
C307 C308 1.479 1_565 S
C307 H321 0.950 . S
C308 C307 1.479 1_545 S
C308 C309 1.375 . S
C308 C314 1.404 . S
C309 C308 1.375 . S
C309 C310 1.369 . S
C309 H322 0.950 . S
C310 C309 1.369 . S
C310 C311 1.392 . S
C310 H323 0.951 . S
C311 C310 1.392 . S
C311 C313 1.384 . S
H312 C314 0.949 . S
C313 C311 1.384 . S
C313 C314 1.385 . S
C313 H315 0.950 . S
C314 C308 1.404 . S
C314 H312 0.949 . S
C314 C313 1.385 . S
H315 C313 0.950 . S
H316 C300 0.951 . S
H317 C302 0.951 . S
H318 C304 0.951 . S
H319 C305 0.950 1_655 S
H320 C306 0.950 . S
H321 C307 0.950 . S
H322 C309 0.950 . S
H323 C310 0.951 . S
C324 C325 1.386 . S
C324 C326 1.383 . S
C324 H340 0.951 . S
C325 C324 1.386 . S
C325 C329 1.383 . S
C326 C324 1.383 . S
C326 C327 1.402 1_556 S
C326 H341 0.951 1_556 S
C327 C326 1.402 1_554 S
C327 C328 1.375 . S
C327 C330 1.481 . S
C328 C327 1.375 . S
C328 C329 1.367 1_554 S
C328 H342 0.951 . S
C329 C325 1.383 . S
C329 C328 1.367 1_556 S
C329 H343 0.950 . S
C330 C327 1.481 . S
C330 C331 1.297 . S
C330 H344 0.950 . S
C331 C330 1.297 . S
C331 C332 1.479 . S
C331 H345 0.950 . S
C332 C331 1.479 . S
C332 C333 1.375 . S
C332 C338 1.404 . S
C333 C332 1.375 . S
C333 C334 1.369 . S
C333 H346 0.950 . S
C334 C333 1.369 . S
C334 C335 1.392 . S
C334 H347 0.951 . S
C335 C334 1.392 . S
C335 C337 1.384 . S
H336 C338 0.949 . S
C337 C335 1.384 . S
C337 C338 1.385 . S
C337 H339 0.950 . S
C338 C332 1.404 . S
C338 H336 0.949 . S
C338 C337 1.385 . S
H339 C337 0.950 . S
H340 C324 0.951 . S
H341 C326 0.951 1_554 S
H342 C328 0.951 . S
H343 C329 0.950 . S
H344 C330 0.950 . S
H345 C331 0.950 . S
H346 C333 0.950 . S
H347 C334 0.951 . S
C348 C349 1.386 . S
C348 C350 1.383 . S
C348 H364 0.951 . S
C349 C348 1.386 . S
C349 C353 1.383 . S
C350 C348 1.383 . S
C350 C351 1.402 . S
C350 H365 0.951 . S
C351 C350 1.402 . S
C351 C352 1.375 . S
C351 C354 1.481 . S
C352 C351 1.375 . S
C352 C353 1.367 . S
C352 H366 0.951 . S
C353 C349 1.383 . S
C353 C352 1.367 . S
C353 H367 0.950 . S
C354 C351 1.481 . S
C354 C355 1.297 . S
C354 H368 0.950 . S
C355 C354 1.297 . S
C355 C356 1.479 . S
C355 H369 0.950 . S
C356 C355 1.479 . S
C356 C357 1.375 . S
C356 C362 1.404 . S
C357 C356 1.375 . S
C357 C358 1.369 . S
C357 H370 0.950 . S
C358 C357 1.369 . S
C358 C359 1.392 . S
C358 H371 0.951 . S
C359 C358 1.392 . S
C359 C361 1.384 . S
H360 C362 0.949 . S
C361 C359 1.384 . S
C361 C362 1.385 . S
C361 H363 0.950 . S
C362 C356 1.404 . S
C362 H360 0.949 . S
C362 C361 1.385 . S
H363 C361 0.950 . S
H364 C348 0.951 . S
H365 C350 0.951 . S
H366 C352 0.951 . S
H367 C353 0.950 . S
H368 C354 0.950 . S
H369 C355 0.950 . S
H370 C357 0.950 . S
H371 C358 0.951 . S
C372 C373 1.386 . S
C372 C374 1.383 . S
C372 H388 0.951 . S
C373 C372 1.386 . S
C373 C377 1.383 . S
C374 C372 1.383 . S
C374 C375 1.402 . S
C374 H389 0.951 . S
C375 C374 1.402 . S
C375 C376 1.375 . S
C375 C378 1.481 . S
C376 C375 1.375 . S
C376 C377 1.367 . S
C376 H390 0.951 . S
C377 C373 1.383 . S
C377 C376 1.367 . S
C377 H391 0.950 . S
C378 C375 1.481 . S
C378 C379 1.297 . S
C378 H392 0.950 . S
C379 C378 1.297 . S
C379 C380 1.479 . S
C379 H393 0.950 . S
C380 C379 1.479 . S
C380 C381 1.375 . S
C380 C386 1.404 . S
C381 C380 1.375 . S
C381 C382 1.369 . S
C381 H394 0.950 . S
C382 C381 1.369 . S
C382 C383 1.392 . S
C382 H395 0.951 . S
C383 C382 1.392 . S
C383 C385 1.384 . S
H384 C386 0.949 . S
C385 C383 1.384 . S
C385 C386 1.385 . S
C385 H387 0.950 . S
C386 C380 1.404 . S
C386 H384 0.949 . S
C386 C385 1.385 . S
H387 C385 0.950 . S
H388 C372 0.951 . S
H389 C374 0.951 . S
H390 C376 0.951 . S
H391 C377 0.950 . S
H392 C378 0.950 . S
H393 C379 0.950 . S
H394 C381 0.950 . S
H395 C382 0.951 . S
C396 C397 1.386 . S
C396 C398 1.383 . S
C396 H412 0.951 . S
C397 C396 1.386 . S
C397 C401 1.383 . S
C398 C396 1.383 . S
C398 C399 1.402 . S
C398 H413 0.951 . S
C399 C398 1.402 . S
C399 C400 1.375 . S
C399 C402 1.481 . S
C400 C399 1.375 . S
C400 C401 1.367 . S
C400 H414 0.951 . S
C401 C397 1.383 . S
C401 C400 1.367 . S
C401 H415 0.950 . S
C402 C399 1.481 . S
C402 C403 1.297 . S
C402 H416 0.950 . S
C403 C402 1.297 . S
C403 C404 1.479 . S
C403 H417 0.950 . S
C404 C403 1.479 . S
C404 C405 1.375 1_556 S
C404 C410 1.402 . S
C405 C404 1.375 1_554 S
C405 C406 1.369 . S
C405 H418 0.950 . S
C406 C405 1.369 . S
C406 C407 1.392 . S
C406 H419 0.951 . S
C407 C406 1.392 . S
C407 C409 1.384 . S
H408 C410 0.945 . S
C409 C407 1.384 . S
C409 C410 1.390 1_554 S
C409 H411 0.950 . S
C410 C404 1.402 . S
C410 H408 0.945 . S
C410 C409 1.390 1_556 S
H411 C409 0.950 . S
H412 C396 0.951 . S
H413 C398 0.951 . S
H414 C400 0.951 . S
H415 C401 0.950 . S
H416 C402 0.950 . S
H417 C403 0.950 . S
H418 C405 0.950 . S
H419 C406 0.951 . S
C420 C421 1.386 . S
C420 C422 1.383 . S
C420 H436 0.951 . S
C421 C420 1.386 . S
C421 C425 1.383 . S
C422 C420 1.383 . S
C422 C423 1.402 . S
C422 H437 0.951 . S
C423 C422 1.402 . S
C423 C424 1.375 . S
C423 C426 1.481 . S
C424 C423 1.375 . S
C424 C425 1.367 . S
C424 H438 0.951 . S
C425 C421 1.383 . S
C425 C424 1.367 . S
C425 H439 0.950 . S
C426 C423 1.481 . S
C426 C427 1.297 . S
C426 H440 0.950 . S
C427 C426 1.297 . S
C427 C428 1.479 . S
C427 H441 0.950 . S
C428 C427 1.479 . S
C428 C429 1.375 1_565 S
C428 C434 1.404 . S
C429 C428 1.375 1_545 S
C429 C430 1.369 . S
C429 H442 0.950 . S
C430 C429 1.369 . S
C430 C431 1.392 . S
C430 H443 0.951 . S
C431 C430 1.392 . S
C431 C433 1.384 1_545 S
H432 C434 0.949 . S
C433 C431 1.384 1_565 S
C433 C434 1.385 . S
C433 H435 0.950 . S
C434 C428 1.404 . S
C434 H432 0.949 . S
C434 C433 1.385 . S
H435 C433 0.950 . S
H436 C420 0.951 . S
H437 C422 0.951 . S
H438 C424 0.951 . S
H439 C425 0.950 . S
H440 C426 0.950 . S
H441 C427 0.950 . S
H442 C429 0.950 . S
H443 C430 0.951 . S
C444 C445 1.386 . S
C444 C446 1.383 . S
C444 H460 0.951 . S
C445 C444 1.386 . S
C445 C449 1.383 1_455 S
C446 C444 1.383 . S
C446 C447 1.402 1_455 S
C446 H461 0.951 . S
C447 C446 1.402 1_655 S
C447 C448 1.375 . S
C447 C450 1.481 . S
C448 C447 1.375 . S
C448 C449 1.367 . S
C448 H462 0.951 . S
C449 C445 1.383 1_655 S
C449 C448 1.367 . S
C449 H463 0.950 . S
C450 C447 1.481 . S
C450 C451 1.297 . S
C450 H464 0.950 . S
C451 C450 1.297 . S
C451 C452 1.479 . S
C451 H465 0.950 1_655 S
C452 C451 1.479 . S
C452 C453 1.375 . S
C452 C458 1.404 . S
C453 C452 1.375 . S
C453 C454 1.369 . S
C453 H466 0.950 1_655 S
C454 C453 1.369 . S
C454 C455 1.392 . S
C454 H467 0.951 . S
C455 C454 1.392 . S
C455 C457 1.384 . S
H456 C458 0.949 . S
C457 C455 1.384 . S
C457 C458 1.385 . S
C457 H459 0.950 . S
C458 C452 1.404 . S
C458 H456 0.949 . S
C458 C457 1.385 . S
H459 C457 0.950 . S
H460 C444 0.951 . S
H461 C446 0.951 . S
H462 C448 0.951 . S
H463 C449 0.950 . S
H464 C450 0.950 . S
H465 C451 0.950 1_455 S
H466 C453 0.950 1_455 S
H467 C454 0.951 . S
C253 C63 1.330 . S
C263 C74 1.400 1_455 S
C277 C158 1.405 . S
C287 C147 1.326 1_455 S
C301 C242 1.351 1_455 S
C311 C231 1.328 . S
C325 C226 1.911 . S
C335 C67 1.990 . S
C349 C154 0.866 . S
C359 C56 0.982 . S
C373 C235 2.019 . S
C383 C142 1.904 . S
C397 C224 1.099 . S
C407 C70 0.999 . S
C421 C58 1.882 . S
C431 C151 2.031 . S
C445 C238 0.894 . S
C455 C140 1.050 . S
