# Generated by pormake.
# Topology whr, (6)-cn, num edge types: 1
# Building blocks:
#     Node 0, Type 0, BuildingBlock: OJICUG_clean_sbu_0, # of connection points: 6
#     Node 1, Type 0, BuildingBlock: OJICUG_clean_sbu_0, # of connection points: 6
#     Node 2, Type 0, BuildingBlock: OJICUG_clean_sbu_0, # of connection points: 6
#     Node 3, Type 0, BuildingBlock: OJICUG_clean_sbu_0, # of connection points: 6
#     Node 4, Type 0, BuildingBlock: OJICUG_clean_sbu_0, # of connection points: 6
#     Node 5, Type 0, BuildingBlock: OJICUG_clean_sbu_0, # of connection points: 6
#     Node 6, Type 0, BuildingBlock: OJICUG_clean_sbu_0, # of connection points: 6
#     Node 7, Type 0, BuildingBlock: OJICUG_clean_sbu_0, # of connection points: 6
#     Node 8, Type 0, BuildingBlock: OJICUG_clean_sbu_0, # of connection points: 6
#     Node 9, Type 0, BuildingBlock: OJICUG_clean_sbu_0, # of connection points: 6
#     Node 10, Type 0, BuildingBlock: OJICUG_clean_sbu_0, # of connection points: 6
#     Node 11, Type 0, BuildingBlock: OJICUG_clean_sbu_0, # of connection points: 6
#     Node 12, Type 0, BuildingBlock: OJICUG_clean_sbu_0, # of connection points: 6
#     Node 13, Type 0, BuildingBlock: OJICUG_clean_sbu_0, # of connection points: 6
#     Node 14, Type 0, BuildingBlock: OJICUG_clean_sbu_0, # of connection points: 6
#     Node 15, Type 0, BuildingBlock: OJICUG_clean_sbu_0, # of connection points: 6
#     Edge 16, Type (0, 0), BuildingBlock: UVAHIK_clean_linker_0, # of connection points: 2
#     Edge 17, Type (0, 0), BuildingBlock: UVAHIK_clean_linker_0, # of connection points: 2
#     Edge 18, Type (0, 0), BuildingBlock: UVAHIK_clean_linker_0, # of connection points: 2
#     Edge 19, Type (0, 0), BuildingBlock: UVAHIK_clean_linker_0, # of connection points: 2
#     Edge 20, Type (0, 0), BuildingBlock: UVAHIK_clean_linker_0, # of connection points: 2
#     Edge 21, Type (0, 0), BuildingBlock: UVAHIK_clean_linker_0, # of connection points: 2
#     Edge 22, Type (0, 0), BuildingBlock: UVAHIK_clean_linker_0, # of connection points: 2
#     Edge 23, Type (0, 0), BuildingBlock: UVAHIK_clean_linker_0, # of connection points: 2
#     Edge 24, Type (0, 0), BuildingBlock: UVAHIK_clean_linker_0, # of connection points: 2
#     Edge 25, Type (0, 0), BuildingBlock: UVAHIK_clean_linker_0, # of connection points: 2
#     Edge 26, Type (0, 0), BuildingBlock: UVAHIK_clean_linker_0, # of connection points: 2
#     Edge 27, Type (0, 0), BuildingBlock: UVAHIK_clean_linker_0, # of connection points: 2
#     Edge 28, Type (0, 0), BuildingBlock: UVAHIK_clean_linker_0, # of connection points: 2
#     Edge 29, Type (0, 0), BuildingBlock: UVAHIK_clean_linker_0, # of connection points: 2
#     Edge 30, Type (0, 0), BuildingBlock: UVAHIK_clean_linker_0, # of connection points: 2
#     Edge 31, Type (0, 0), BuildingBlock: UVAHIK_clean_linker_0, # of connection points: 2
#     Edge 32, Type (0, 0), BuildingBlock: UVAHIK_clean_linker_0, # of connection points: 2
#     Edge 33, Type (0, 0), BuildingBlock: UVAHIK_clean_linker_0, # of connection points: 2
#     Edge 34, Type (0, 0), BuildingBlock: UVAHIK_clean_linker_0, # of connection points: 2
#     Edge 35, Type (0, 0), BuildingBlock: UVAHIK_clean_linker_0, # of connection points: 2
#     Edge 36, Type (0, 0), BuildingBlock: UVAHIK_clean_linker_0, # of connection points: 2
#     Edge 37, Type (0, 0), BuildingBlock: UVAHIK_clean_linker_0, # of connection points: 2
#     Edge 38, Type (0, 0), BuildingBlock: UVAHIK_clean_linker_0, # of connection points: 2
#     Edge 39, Type (0, 0), BuildingBlock: UVAHIK_clean_linker_0, # of connection points: 2
#     Edge 40, Type (0, 0), BuildingBlock: UVAHIK_clean_linker_0, # of connection points: 2
#     Edge 41, Type (0, 0), BuildingBlock: UVAHIK_clean_linker_0, # of connection points: 2
#     Edge 42, Type (0, 0), BuildingBlock: UVAHIK_clean_linker_0, # of connection points: 2
#     Edge 43, Type (0, 0), BuildingBlock: UVAHIK_clean_linker_0, # of connection points: 2
#     Edge 44, Type (0, 0), BuildingBlock: UVAHIK_clean_linker_0, # of connection points: 2
#     Edge 45, Type (0, 0), BuildingBlock: UVAHIK_clean_linker_0, # of connection points: 2
#     Edge 46, Type (0, 0), BuildingBlock: UVAHIK_clean_linker_0, # of connection points: 2
#     Edge 47, Type (0, 0), BuildingBlock: UVAHIK_clean_linker_0, # of connection points: 2
#     Edge 48, Type (0, 0), BuildingBlock: UVAHIK_clean_linker_0, # of connection points: 2
#     Edge 49, Type (0, 0), BuildingBlock: UVAHIK_clean_linker_0, # of connection points: 2
#     Edge 50, Type (0, 0), BuildingBlock: UVAHIK_clean_linker_0, # of connection points: 2
#     Edge 51, Type (0, 0), BuildingBlock: UVAHIK_clean_linker_0, # of connection points: 2
#     Edge 52, Type (0, 0), BuildingBlock: UVAHIK_clean_linker_0, # of connection points: 2
#     Edge 53, Type (0, 0), BuildingBlock: UVAHIK_clean_linker_0, # of connection points: 2
#     Edge 54, Type (0, 0), BuildingBlock: UVAHIK_clean_linker_0, # of connection points: 2
#     Edge 55, Type (0, 0), BuildingBlock: UVAHIK_clean_linker_0, # of connection points: 2
#     Edge 56, Type (0, 0), BuildingBlock: UVAHIK_clean_linker_0, # of connection points: 2
#     Edge 57, Type (0, 0), BuildingBlock: UVAHIK_clean_linker_0, # of connection points: 2
#     Edge 58, Type (0, 0), BuildingBlock: UVAHIK_clean_linker_0, # of connection points: 2
#     Edge 59, Type (0, 0), BuildingBlock: UVAHIK_clean_linker_0, # of connection points: 2
#     Edge 60, Type (0, 0), BuildingBlock: UVAHIK_clean_linker_0, # of connection points: 2
#     Edge 61, Type (0, 0), BuildingBlock: UVAHIK_clean_linker_0, # of connection points: 2
#     Edge 62, Type (0, 0), BuildingBlock: UVAHIK_clean_linker_0, # of connection points: 2
#     Edge 63, Type (0, 0), BuildingBlock: UVAHIK_clean_linker_0, # of connection points: 2
# Relax obj value: 0.342
# Max RMSD: 0.271
# Mean RMSD: 0.271
data_MOF--net-whr--node1-OJICUG_clean_sbu_0--edge1-UVAHIK_clean_linker_0
_symmetry_space_group_name_H-M    P1
_symmetry_Int_Tables_number       1
_symmetry_cell_setting            triclinic
loop_
_symmetry_equiv_pos_as_xyz
'x, y, z'
_cell_length_a     61.694629
_cell_length_b     61.70274
_cell_length_c     37.737717
_cell_angle_alpha  89.985802
_cell_angle_beta   90.065737
_cell_angle_gamma 89.940904
loop_
_atom_site_label
_atom_site_type_symbol
_atom_site_fract_x
_atom_site_fract_y
_atom_site_fract_z
_atom_type_partial_charge
Sc0 Sc 0.19668 0.05509 0.09683 0.0
Sc1 Sc 0.22749 0.08751 0.03949 0.0
Sc2 Sc 0.24414 0.03387 0.05846 0.0
O3 O 0.22281 0.0588 0.06482 0.0
C4 C 0.23283 0.02877 0.13964 0.0
C5 C 0.21168 0.10266 0.11619 0.0
C6 C 0.2756 0.07477 0.06257 0.0
C7 C 0.17652 0.08325 0.03337 0.0
C8 C 0.19794 0.00986 0.05672 0.0
C9 C 0.24283 0.0536 0.98094 0.0
O10 O 0.21461 0.03816 0.13689 0.0
O11 O 0.21953 0.10661 0.08574 0.0
O12 O 0.27227 0.05444 0.06407 0.0
O13 O 0.17496 0.0717 0.06115 0.0
O14 O 0.21829 0.01055 0.05095 0.0
O15 O 0.23615 0.07229 0.98994 0.0
O16 O 0.18767 0.02513 0.07193 0.0
O17 O 0.19462 0.08933 0.02087 0.0
O18 O 0.24555 0.03814 0.0026 0.0
O19 O 0.20376 0.08445 0.12492 0.0
O20 O 0.24581 0.02662 0.11387 0.0
O21 O 0.26086 0.08852 0.05544 0.0
Sc22 Sc 0.05522 0.79534 0.89002 0.0
Sc23 Sc 0.08645 0.76518 0.95004 0.0
Sc24 Sc 0.03233 0.75007 0.93178 0.0
O25 O 0.05801 0.77013 0.92399 0.0
C26 C 0.0099 0.79709 0.92868 0.0
C27 C 0.08463 0.81628 0.9513 0.0
C28 C 0.05118 0.75437 0.00966 0.0
C29 C 0.1021 0.77817 0.87199 0.0
C30 C 0.02744 0.75877 0.85008 0.0
C31 C 0.07226 0.71692 0.9324 0.0
O32 O 0.02604 0.80678 0.91497 0.0
O33 O 0.08921 0.79846 0.96644 0.0
O34 O 0.03559 0.75232 0.98795 0.0
O35 O 0.0839 0.78568 0.86207 0.0
O36 O 0.02591 0.74581 0.87609 0.0
O37 O 0.0867 0.73141 0.93637 0.0
O38 O 0.03665 0.77711 0.85241 0.0
O39 O 0.10591 0.77171 0.90343 0.0
O40 O 0.05205 0.72107 0.93153 0.0
O41 O 0.07354 0.81725 0.92294 0.0
O42 O 0.00962 0.77673 0.93424 0.0
O43 O 0.07058 0.75813 -5e-05 0.0
Sc44 Sc 0.75286 0.96509 0.05189 0.0
Sc45 Sc 0.76615 0.91008 0.04055 0.0
Sc46 Sc 0.79825 0.94356 0.09419 0.0
O47 O 0.77235 0.93946 0.06231 0.0
C48 C 0.79977 0.98726 0.05251 0.0
C49 C 0.75757 0.94336 0.97687 0.0
C50 C 0.81735 0.9109 0.03611 0.0
C51 C 0.71855 0.9262 0.05417 0.0
C52 C 0.76168 0.97267 0.13216 0.0
C53 C 0.7808 0.89799 0.11975 0.0
O54 O 0.77922 0.98803 0.05024 0.0
O55 O 0.75881 0.92413 0.98911 0.0
O56 O 0.81921 0.92326 0.06286 0.0
O57 O 0.72356 0.94605 0.05074 0.0
O58 O 0.7806 0.96457 0.12959 0.0
O59 O 0.77312 0.89291 0.0895 0.0
O60 O 0.74787 0.97185 0.10713 0.0
O61 O 0.73259 0.91116 0.05555 0.0
O62 O 0.78894 0.91649 0.12636 0.0
O63 O 0.75707 0.96017 -0.00368 0.0
O64 O 0.80982 0.9708 0.06427 0.0
O65 O 0.79908 0.90579 0.02297 0.0
Sc66 Sc 0.96378 0.24494 0.93268 0.0
Sc67 Sc 0.9083 0.23206 0.94183 0.0
Sc68 Sc 0.9414 0.20224 0.88367 0.0
O69 O 0.93776 0.22646 0.91933 0.0
C70 C 0.96916 0.24108 0.85 0.0
C71 C 0.92551 0.28004 0.93453 0.0
C72 C 0.89523 0.22133 0.86191 0.0
C73 C 0.94157 0.23649 0.00668 0.0
C74 C 0.98608 0.19831 0.92411 0.0
C75 C 0.90968 0.18046 0.94016 0.0
O76 O 0.97118 0.25214 0.87826 0.0
O77 O 0.91016 0.26638 0.93301 0.0
O78 O 0.91304 0.21193 0.855 0.0
O79 O 0.95834 0.23863 0.98752 0.0
O80 O 0.97025 0.18966 0.90801 0.0
O81 O 0.90312 0.19832 0.95312 0.0
O82 O 0.98627 0.2182 0.9327 0.0
O83 O 0.92237 0.23547 -0.00572 0.0
O84 O 0.92323 0.17936 0.91487 0.0
O85 O 0.94534 0.27458 0.93618 0.0
O86 O 0.95983 0.22271 0.8489 0.0
O87 O 0.8907 0.22899 0.89232 0.0
Sc88 Sc 0.74845 0.03539 0.55014 0.0
Sc89 Sc 0.76387 0.09023 0.53754 0.0
Sc90 Sc 0.79732 0.05485 0.58588 0.0
O91 O 0.7698 0.0602 0.55787 0.0
C92 C 0.76234 0.02738 0.62975 0.0
C93 C 0.71604 0.07535 0.55877 0.0
C94 C 0.78253 0.10144 0.61421 0.0
C95 C 0.74954 0.05858 0.4746 0.0
C96 C 0.79415 0.01106 0.54235 0.0
C97 C 0.81506 0.08696 0.52655 0.0
O98 O 0.74826 0.02611 0.60521 0.0
O99 O 0.73034 0.08968 0.55278 0.0
O100 O 0.79246 0.08345 0.61724 0.0
O101 O 0.74662 0.04224 0.49458 0.0
O102 O 0.80514 0.02585 0.55728 0.0
O103 O 0.79665 0.09507 0.51931 0.0
O104 O 0.77365 0.01198 0.53908 0.0
O105 O 0.75587 0.07695 0.48606 0.0
O106 O 0.81764 0.07215 0.54949 0.0
O107 O 0.72015 0.05517 0.55896 0.0
O108 O 0.78049 0.03679 0.6258 0.0
O109 O 0.77137 0.10643 0.58698 0.0
Sc110 Sc 0.0576 0.19556 0.39628 0.0
Sc111 Sc 0.08929 0.22807 0.45241 0.0
Sc112 Sc 0.03541 0.24341 0.43149 0.0
O113 O 0.06077 0.22239 0.42683 0.0
C114 C 0.0305 0.23016 0.35104 0.0
C115 C 0.10488 0.2117 0.37619 0.0
C116 C 0.07542 0.27587 0.42845 0.0
C117 C 0.08683 0.17684 0.45955 0.0
C118 C 0.01209 0.19696 0.4352 0.0
C119 C 0.05466 0.24315 0.50988 0.0
O120 O 0.04023 0.21223 0.3553 0.0
O121 O 0.10844 0.22071 0.40598 0.0
O122 O 0.05535 0.27173 0.42498 0.0
O123 O 0.07461 0.17478 0.43266 0.0
O124 O 0.01242 0.21744 0.43939 0.0
O125 O 0.0734 0.23618 0.50165 0.0
O126 O 0.02775 0.18642 0.42161 0.0
O127 O 0.09277 0.19522 0.47117 0.0
O128 O 0.03948 0.24593 0.48758 0.0
O129 O 0.08701 0.20267 0.36822 0.0
O130 O 0.02825 0.24391 0.37576 0.0
O131 O 0.08941 0.26166 0.43708 0.0
Sc132 Sc 0.19907 0.93674 0.60175 0.0
Sc133 Sc 0.22835 0.90451 0.54153 0.0
Sc134 Sc 0.24549 0.95796 0.56025 0.0
O135 O 0.22433 0.93307 0.56779 0.0
C136 C 0.19981 0.98269 0.56305 0.0
C137 C 0.17708 0.9097 0.53886 0.0
C138 C 0.24191 0.93876 0.48243 0.0
C139 C 0.21379 0.88838 0.61844 0.0
C140 C 0.23663 0.96196 0.64264 0.0
C141 C 0.27714 0.91705 0.56124 0.0
O142 O 0.1901 0.96765 0.57972 0.0
O143 O 0.19483 0.90276 0.52608 0.0
O144 O 0.24567 0.95388 0.5043 0.0
O145 O 0.20555 0.90641 0.62758 0.0
O146 O 0.24832 0.96507 0.61553 0.0
O147 O 0.26236 0.90335 0.55408 0.0
O148 O 0.21861 0.95207 0.64154 0.0
O149 O 0.22202 0.88506 0.58803 0.0
O150 O 0.27357 0.93727 0.56437 0.0
O151 O 0.17622 0.9217 0.56621 0.0
O152 O 0.21971 0.9815 0.55433 0.0
O153 O 0.23514 0.92012 0.49152 0.0
Sc154 Sc 0.96171 0.75183 0.43706 0.0
Sc155 Sc 0.90585 0.7644 0.44284 0.0
Sc156 Sc 0.9402 0.7951 0.38783 0.0
O157 O 0.93587 0.7704 0.42254 0.0
C158 C 0.98371 0.79871 0.43227 0.0
C159 C 0.93714 0.75861 0.5099 0.0
C160 C 0.90676 0.81611 0.44257 0.0
C161 C 0.9238 0.71651 0.43379 0.0
C162 C 0.9695 0.75723 0.35478 0.0
C163 C 0.89458 0.77614 0.36263 0.0
O164 O 0.98349 0.7789 0.44137 0.0
O165 O 0.91836 0.76066 0.49625 0.0
O166 O 0.92136 0.81758 0.41891 0.0
O167 O 0.94362 0.72192 0.43606 0.0
O168 O 0.9592 0.77508 0.35306 0.0
O169 O 0.88962 0.76761 0.39221 0.0
O170 O 0.97152 0.74626 0.38312 0.0
O171 O 0.90839 0.73018 0.4336 0.0
O172 O 0.91232 0.78605 0.35742 0.0
O173 O 0.95432 0.75626 0.49182 0.0
O174 O 0.9687 0.80725 0.41394 0.0
O175 O 0.89979 0.79806 0.45416 0.0
Sc176 Sc 0.69823 0.56106 0.5995 0.0
Sc177 Sc 0.72845 0.59283 0.53966 0.0
Sc178 Sc 0.74318 0.53843 0.55611 0.0
O179 O 0.72333 0.56416 0.56515 0.0
C180 C 0.73646 0.53521 0.63879 0.0
C181 C 0.7157 0.60848 0.61743 0.0
C182 C 0.77693 0.57768 0.55354 0.0
C183 C 0.67684 0.58982 0.53825 0.0
C184 C 0.69699 0.51505 0.56231 0.0
C185 C 0.7363 0.55759 0.47904 0.0
O186 O 0.71805 0.54449 0.63784 0.0
O187 O 0.72404 0.61185 0.58712 0.0
O188 O 0.77229 0.55766 0.55501 0.0
O189 O 0.67558 0.57716 0.56475 0.0
O190 O 0.71703 0.51545 0.55473 0.0
O191 O 0.73324 0.57705 0.48907 0.0
O192 O 0.6874 0.53082 0.57721 0.0
O193 O 0.69478 0.5966 0.526 0.0
O194 O 0.73932 0.5419 0.50026 0.0
O195 O 0.70632 0.59088 0.62578 0.0
O196 O 0.74828 0.53258 0.61156 0.0
O197 O 0.76269 0.59242 0.5502 0.0
Sc198 Sc 0.55914 0.30049 0.38959 0.0
Sc199 Sc 0.59121 0.26923 0.44701 0.0
Sc200 Sc 0.53646 0.25587 0.43264 0.0
O201 O 0.56234 0.27513 0.42302 0.0
C202 C 0.51455 0.30307 0.42938 0.0
C203 C 0.58998 0.32041 0.44967 0.0
C204 C 0.55678 0.26085 0.50876 0.0
C205 C 0.60517 0.28236 0.36819 0.0
C206 C 0.53043 0.26384 0.35145 0.0
C207 C 0.57548 0.22145 0.43312 0.0
O208 O 0.53097 0.31271 0.41658 0.0
O209 O 0.59469 0.30234 0.46389 0.0
O210 O 0.54043 0.2601 0.48833 0.0
O211 O 0.58688 0.29027 0.3596 0.0
O212 O 0.53021 0.25054 0.3772 0.0
O213 O 0.59055 0.23548 0.43301 0.0
O214 O 0.53906 0.2825 0.35358 0.0
O215 O 0.60965 0.2757 0.39929 0.0
O216 O 0.55551 0.22648 0.43467 0.0
O217 O 0.57861 0.3219 0.42165 0.0
O218 O 0.51387 0.28262 0.43359 0.0
O219 O 0.57621 0.2623 0.49769 0.0
Sc220 Sc 0.24967 0.45988 0.55027 0.0
Sc221 Sc 0.267 0.40614 0.53434 0.0
Sc222 Sc 0.29542 0.43922 0.59465 0.0
O223 O 0.27065 0.43504 0.55978 0.0
C224 C 0.29538 0.4839 0.55196 0.0
C225 C 0.25385 0.43896 0.47329 0.0
C226 C 0.31843 0.41103 0.53424 0.0
C227 C 0.21788 0.41959 0.55215 0.0
C228 C 0.25806 0.46595 0.63282 0.0
C229 C 0.27992 0.39126 0.61264 0.0
O230 O 0.27589 0.48222 0.54121 0.0
O231 O 0.26197 0.42099 0.48302 0.0
O232 O 0.31889 0.42394 0.56048 0.0
O233 O 0.22157 0.43967 0.55691 0.0
O234 O 0.27529 0.45472 0.63334 0.0
O235 O 0.27176 0.38746 0.58231 0.0
O236 O 0.24732 0.46958 0.60479 0.0
O237 O 0.23255 0.40592 0.54404 0.0
O238 O 0.28867 0.40916 0.62099 0.0
O239 O 0.24869 0.45388 0.49475 0.0
O240 O 0.30445 0.47001 0.57201 0.0
O241 O 0.30089 0.4035 0.52157 0.0
Sc242 Sc 0.46198 0.7402 0.42908 0.0
Sc243 Sc 0.40808 0.72566 0.44614 0.0
Sc244 Sc 0.43769 0.69858 0.38113 0.0
O245 O 0.43586 0.72157 0.41873 0.0
C246 C 0.46483 0.73774 0.34701 0.0
C247 C 0.42271 0.77389 0.43767 0.0
C248 C 0.39126 0.71702 0.36696 0.0
C249 C 0.44474 0.731 0.50553 0.0
C250 C 0.48328 0.69349 0.41626 0.0
C251 C 0.40888 0.67511 0.44032 0.0
O252 O 0.46555 0.74949 0.37463 0.0
O253 O 0.40778 0.75978 0.43519 0.0
O254 O 0.40961 0.7113 0.3549 0.0
O255 O 0.46043 0.73185 0.48383 0.0
O256 O 0.46603 0.68447 0.40519 0.0
O257 O 0.40631 0.69184 0.45946 0.0
O258 O 0.48465 0.71379 0.42187 0.0
O259 O 0.42493 0.73106 0.49593 0.0
O260 O 0.41805 0.67566 0.41015 0.0
O261 O 0.44275 0.76901 0.43874 0.0
O262 O 0.45719 0.71859 0.34693 0.0
O263 O 0.38774 0.7205 0.39974 0.0
Sc264 Sc 0.25683 0.53781 0.05249 0.0
Sc265 Sc 0.27177 0.59169 0.03292 0.0
Sc266 Sc 0.30125 0.56145 0.09568 0.0
O267 O 0.27657 0.56369 0.06038 0.0
C268 C 0.26363 0.53498 0.13504 0.0
C269 C 0.2233 0.57736 0.04833 0.0
C270 C 0.28385 0.60891 0.11061 0.0
C271 C 0.26266 0.55537 0.97426 0.0
C272 C 0.30357 0.51529 0.05943 0.0
C273 C 0.32309 0.58939 0.03358 0.0
O274 O 0.25161 0.53257 0.10801 0.0
O275 O 0.23767 0.59193 0.04449 0.0
O276 O 0.29182 0.59104 0.12124 0.0
O277 O 0.26027 0.54015 -0.00348 0.0
O278 O 0.31294 0.5315 0.07347 0.0
O279 O 0.30539 0.5944 0.01835 0.0
O280 O 0.28341 0.5151 0.0523 0.0
O281 O 0.26591 0.57499 0.98323 0.0
O282 O 0.32379 0.57844 0.0621 0.0
O283 O 0.22774 0.55727 0.05043 0.0
O284 O 0.282 0.54425 0.13386 0.0
O285 O 0.27709 0.6119 0.07909 0.0
Sc286 Sc 0.56462 0.69971 0.89419 0.0
Sc287 Sc 0.59459 0.73142 0.95416 0.0
Sc288 Sc 0.54101 0.74652 0.93068 0.0
O289 O 0.56675 0.72593 0.9264 0.0
C290 C 0.53801 0.73448 0.8491 0.0
C291 C 0.61225 0.71679 0.87839 0.0
C292 C 0.58049 0.7794 0.9304 0.0
C293 C 0.59219 0.67996 0.95845 0.0
C294 C 0.51838 0.69983 0.93173 0.0
C295 C 0.55884 0.74541 0.01018 0.0
O296 O 0.54888 0.71716 0.85254 0.0
O297 O 0.61494 0.72567 0.90849 0.0
O298 O 0.56069 0.77501 0.92433 0.0
O299 O 0.58026 0.67836 0.93116 0.0
O300 O 0.51868 0.72004 0.93856 0.0
O301 O 0.57752 0.73787 0.00304 0.0
O302 O 0.5339 0.6901 0.91621 0.0
O303 O 0.59828 0.69813 0.97081 0.0
O304 O 0.5445 0.74914 0.98682 0.0
O305 O 0.59491 0.70726 0.86913 0.0
O306 O 0.53394 0.74706 0.87482 0.0
O307 O 0.59422 0.7654 0.94098 0.0
Sc308 Sc 0.70068 0.43663 0.09392 0.0
Sc309 Sc 0.73221 0.40591 0.03472 0.0
Sc310 Sc 0.74769 0.45948 0.05697 0.0
O311 O 0.7269 0.434 0.06182 0.0
C312 C 0.70134 0.48295 0.05654 0.0
C313 C 0.68085 0.40926 0.02952 0.0
C314 C 0.74638 0.44132 0.97797 0.0
C315 C 0.71664 0.38861 0.11038 0.0
C316 C 0.73598 0.46277 0.13852 0.0
C317 C 0.78023 0.41948 0.05835 0.0
O318 O 0.69146 0.4675 0.07193 0.0
O319 O 0.69902 0.40293 0.01749 0.0
O320 O 0.74982 0.45594 0.00091 0.0
O321 O 0.70756 0.40627 0.11934 0.0
O322 O 0.74857 0.46645 0.11268 0.0
O323 O 0.76606 0.4057 0.04874 0.0
O324 O 0.71844 0.45224 0.1354 0.0
O325 O 0.72566 0.38576 0.08043 0.0
O326 O 0.77605 0.43946 0.06306 0.0
O327 O 0.6792 0.42121 0.05678 0.0
O328 O 0.72151 0.48233 0.04945 0.0
O329 O 0.73927 0.42257 0.98564 0.0
Sc330 Sc 0.46149 0.25272 0.93179 0.0
Sc331 Sc 0.40778 0.26951 0.94951 0.0
Sc332 Sc 0.43983 0.29901 0.89012 0.0
O333 O 0.43639 0.2737 0.92384 0.0
C334 C 0.48566 0.29875 0.92832 0.0
C335 C 0.44233 0.25653 0.00936 0.0
C336 C 0.41233 0.32057 0.95297 0.0
C337 C 0.42054 0.22098 0.9308 0.0
C338 C 0.46566 0.2614 0.8496 0.0
C339 C 0.39188 0.28431 0.87241 0.0
O340 O 0.48507 0.27857 0.93541 0.0
O341 O 0.4233 0.26155 -0.00079 0.0
O342 O 0.42357 0.32156 0.92479 0.0
O343 O 0.44089 0.22438 0.93033 0.0
O344 O 0.45643 0.27977 0.85149 0.0
O345 O 0.38829 0.2769 0.90331 0.0
O346 O 0.46797 0.24893 0.87612 0.0
O347 O 0.40658 0.23593 0.93504 0.0
O348 O 0.41018 0.29169 0.86291 0.0
O349 O 0.45805 0.25408 0.98807 0.0
O350 O 0.47004 0.3087 0.9135 0.0
O351 O 0.40633 0.30272 0.96661 0.0
C352 C 0.19942 0.13942 0.13394 0.0
C353 C 0.21044 0.12024 0.14225 0.0
C354 C 0.19475 0.15449 0.1605 0.0
C355 C 0.18859 0.15561 0.25842 0.0
H356 H 0.17127 0.21489 0.23916 0.0
C357 C 0.14411 0.20664 0.36221 0.0
C358 C 0.12275 0.21002 0.35047 0.0
C359 C 0.16032 0.20096 0.33807 0.0
C360 C 0.17639 0.19847 0.24498 0.0
H361 H 0.22696 0.10233 0.18347 0.0
H362 H 0.22041 0.12931 0.2294 0.0
H363 H 0.19156 0.19464 0.19448 0.0
H364 H 0.10191 0.21201 0.30431 0.0
H365 H 0.13043 0.2027 0.26202 0.0
H366 H 0.1734 0.1596 0.30891 0.0
C367 C 0.21421 0.13239 0.20303 0.0
C368 C 0.18778 0.18673 0.2193 0.0
C369 C 0.21821 0.11701 0.17672 0.0
C370 C 0.11824 0.20936 0.314 0.0
C371 C 0.13455 0.20422 0.28983 0.0
C372 C 0.17776 0.16752 0.2843 0.0
C373 C 0.20153 0.15088 0.19573 0.0
C374 C 0.19327 0.16482 0.22511 0.0
C375 C 0.1555 0.19919 0.30182 0.0
C376 C 0.17091 0.18875 0.27733 0.0
H377 H 0.19316 0.14208 0.10745 0.0
H378 H 0.18471 0.16824 0.15361 0.0
H379 H 0.19202 0.13876 0.26401 0.0
H380 H 0.14797 0.20696 0.39022 0.0
H381 H 0.17637 0.19702 0.34782 0.0
C382 C 0.11689 0.77218 0.81148 0.0
C383 C 0.12003 0.77912 0.84644 0.0
C384 C 0.13244 0.77659 0.78559 0.0
C385 C 0.18701 0.80302 0.7714 0.0
H386 H 0.16021 0.81962 0.68246 0.0
C387 C 0.21131 0.87391 0.68006 0.0
C388 C 0.21181 0.87007 0.64337 0.0
C389 C 0.20571 0.85732 0.70348 0.0
C390 C 0.16804 0.81467 0.70688 0.0
H391 H 0.14199 0.79527 0.88245 0.0
H392 H 0.16844 0.80437 0.8372 0.0
H393 H 0.13913 0.8002 0.72611 0.0
H394 H 0.20797 0.84568 0.60251 0.0
H395 H 0.19733 0.81683 0.64357 0.0
H396 H 0.21535 0.81967 0.75269 0.0
C397 C 0.1546 0.79468 0.82953 0.0
C398 C 0.15599 0.80336 0.73204 0.0
C399 C 0.13937 0.7896 0.85561 0.0
C400 C 0.20781 0.84904 0.63068 0.0
C401 C 0.2017 0.83257 0.65407 0.0
C402 C 0.19889 0.81487 0.74648 0.0
C403 C 0.15102 0.78888 0.79384 0.0
C404 C 0.16509 0.7978 0.7651 0.0
C405 C 0.20008 0.83677 0.69054 0.0
C406 C 0.18932 0.82113 0.71435 0.0
H407 H 0.10211 0.76389 0.80397 0.0
H408 H 0.12937 0.77109 0.75883 0.0
H409 H 0.19485 0.7986 0.79603 0.0
H410 H 0.21442 0.88996 0.69052 0.0
H411 H 0.20435 0.86098 0.73147 0.0
C412 C 0.88503 0.78092 0.29904 0.0
C413 C 0.87823 0.7773 0.33405 0.0
C414 C 0.87036 0.78814 0.27354 0.0
C415 C 0.84364 0.82539 0.247 0.0
H416 H 0.78458 0.8097 0.2227 0.0
C417 C 0.78921 0.88696 0.18192 0.0
C418 C 0.78294 0.88107 0.14741 0.0
C419 C 0.79622 0.87129 0.20591 0.0
C420 C 0.80105 0.81416 0.2294 0.0
H421 H 0.8503 0.77601 0.36884 0.0
H422 H 0.82459 0.78891 0.32404 0.0
H423 H 0.80666 0.7851 0.2597 0.0
H424 H 0.77692 0.85381 0.11239 0.0
H425 H 0.7893 0.82633 0.15472 0.0
H426 H 0.83818 0.85449 0.21775 0.0
C427 C 0.84128 0.78607 0.31645 0.0
C428 C 0.81362 0.80018 0.25043 0.0
C429 C 0.85601 0.77871 0.34207 0.0
C430 C 0.78177 0.85891 0.13869 0.0
C431 C 0.78878 0.84316 0.16289 0.0
C432 C 0.83108 0.8394 0.22671 0.0
C433 C 0.84863 0.79198 0.28257 0.0
C434 C 0.83508 0.80569 0.25919 0.0
C435 C 0.79702 0.84939 0.19603 0.0
C436 C 0.80968 0.83402 0.21784 0.0
H437 H 0.902 0.77962 0.29194 0.0
H438 H 0.87634 0.79224 0.2474 0.0
H439 H 0.86 0.83024 0.25383 0.0
H440 H 0.78995 0.90383 0.18978 0.0
H441 H 0.80227 0.87643 0.23154 0.0
C442 C 0.78161 0.13993 0.63655 0.0
C443 C 0.78608 0.11782 0.64237 0.0
C444 C 0.78894 0.15562 0.6606 0.0
C445 C 0.80222 0.18261 0.72946 0.0
H446 H 0.86424 0.1744 0.74029 0.0
C447 C 0.85671 0.21651 0.84263 0.0
C448 C 0.87845 0.22077 0.83402 0.0
C449 C 0.84221 0.20963 0.81634 0.0
C450 C 0.847 0.1772 0.73718 0.0
H451 H 0.7998 0.09479 0.67976 0.0
H452 H 0.81267 0.12209 0.7211 0.0
H453 H 0.84379 0.15013 0.70234 0.0
H454 H 0.90138 0.22399 0.79091 0.0
H455 H 0.87604 0.21253 0.74507 0.0
H456 H 0.80555 0.20942 0.76551 0.0
C457 C 0.80375 0.12727 0.69783 0.0
C458 C 0.83527 0.16312 0.71575 0.0
C459 C 0.7964 0.11166 0.67406 0.0
C460 C 0.88478 0.22048 0.79831 0.0
C461 C 0.8703 0.21387 0.77211 0.0
C462 C 0.81401 0.19665 0.7515 0.0
C463 C 0.80084 0.14938 0.69065 0.0
C464 C 0.81278 0.16548 0.71204 0.0
C465 C 0.84928 0.2071 0.78116 0.0
C466 C 0.83653 0.19397 0.75565 0.0
H467 H 0.77362 0.14521 0.61248 0.0
H468 H 0.78655 0.17263 0.65458 0.0
H469 H 0.78486 0.18469 0.72687 0.0
H470 H 0.85142 0.21658 0.87 0.0
H471 H 0.82611 0.20451 0.82408 0.0
C472 C 0.62855 0.72545 0.82001 0.0
C473 C 0.63047 0.716 0.85359 0.0
C474 C 0.64409 0.72131 0.79398 0.0
C475 C 0.69625 0.69094 0.77696 0.0
H476 H 0.66894 0.68107 0.68582 0.0
C477 C 0.71467 0.62166 0.67988 0.0
C478 C 0.71523 0.62631 0.64346 0.0
C479 C 0.71065 0.63808 0.70442 0.0
C480 C 0.67697 0.68416 0.71086 0.0
H481 H 0.65013 0.69555 0.88724 0.0
H482 H 0.67655 0.68707 0.8415 0.0
H483 H 0.64936 0.70048 0.73133 0.0
H484 H 0.71323 0.65189 0.6042 0.0
H485 H 0.70535 0.68056 0.64724 0.0
H486 H 0.72308 0.6725 0.7568 0.0
C487 C 0.66377 0.69846 0.83518 0.0
C488 C 0.66578 0.69544 0.73711 0.0
C489 C 0.64857 0.70317 0.86148 0.0
C490 C 0.71294 0.64789 0.63215 0.0
C491 C 0.70842 0.66426 0.65668 0.0
C492 C 0.70724 0.67918 0.75086 0.0
C493 C 0.66136 0.70688 0.80064 0.0
C494 C 0.67496 0.69844 0.77097 0.0
C495 C 0.70669 0.65935 0.6929 0.0
C496 C 0.69742 0.67524 0.71795 0.0
H497 H 0.61465 0.73546 0.81357 0.0
H498 H 0.64197 0.72869 0.76819 0.0
H499 H 0.70415 0.69339 0.80226 0.0
H500 H 0.71652 0.60516 0.6893 0.0
H501 H 0.70916 0.63387 0.73219 0.0
C502 C 0.64254 0.29217 0.34952 0.0
C503 C 0.62243 0.28288 0.34137 0.0
C504 C 0.65742 0.29663 0.3226 0.0
C505 C 0.65733 0.30583 0.22513 0.0
H506 H 0.71793 0.31848 0.24285 0.0
C507 C 0.70984 0.34937 0.12205 0.0
C508 C 0.7147 0.37016 0.13497 0.0
C509 C 0.70344 0.33297 0.14539 0.0
C510 C 0.70111 0.31467 0.23743 0.0
H511 H 0.60271 0.26909 0.29971 0.0
H512 H 0.62926 0.27519 0.25303 0.0
H513 H 0.69708 0.29837 0.28695 0.0
H514 H 0.71855 0.38967 0.18228 0.0
H515 H 0.70808 0.36077 0.22314 0.0
H516 H 0.66156 0.32211 0.17556 0.0
C517 C 0.63325 0.28027 0.2797 0.0
C518 C 0.68903 0.3034 0.26281 0.0
C519 C 0.61808 0.2765 0.30645 0.0
C520 C 0.71482 0.37378 0.17171 0.0
C521 C 0.70897 0.35724 0.19505 0.0
C522 C 0.66955 0.31654 0.19948 0.0
C523 C 0.65272 0.29135 0.28705 0.0
C524 C 0.66672 0.29956 0.25765 0.0
C525 C 0.70243 0.33699 0.18198 0.0
C526 C 0.6913 0.3217 0.20592 0.0
H527 H 0.64613 0.29738 0.37631 0.0
H528 H 0.67197 0.30541 0.32961 0.0
H529 H 0.6402 0.30372 0.22006 0.0
H530 H 0.70947 0.34624 0.09381 0.0
H531 H 0.69832 0.31748 0.1348 0.0
C532 C 0.37762 0.28602 0.81052 0.0
C533 C 0.37368 0.28629 0.84718 0.0
C534 C 0.36116 0.29138 0.78663 0.0
C535 C 0.31821 0.32905 0.78064 0.0
H536 H 0.30262 0.3003 0.69295 0.0
C537 C 0.27422 0.37729 0.67367 0.0
C538 C 0.28113 0.37369 0.63883 0.0
C539 C 0.27913 0.36234 0.7003 0.0
C540 C 0.30691 0.30868 0.71715 0.0
H541 H 0.34921 0.29131 0.88757 0.0
H542 H 0.32059 0.30149 0.84565 0.0
H543 H 0.32399 0.28095 0.73744 0.0
H544 H 0.29778 0.35155 0.6038 0.0
H545 H 0.30768 0.3261 0.65031 0.0
H546 H 0.30322 0.35734 0.75984 0.0
C547 C 0.33632 0.29673 0.83555 0.0
C548 C 0.31895 0.29746 0.74273 0.0
C549 C 0.35266 0.29088 0.85944 0.0
C550 C 0.29209 0.35447 0.63053 0.0
C551 C 0.29766 0.33983 0.65734 0.0
C552 C 0.30669 0.34043 0.75482 0.0
C553 C 0.34061 0.29752 0.79903 0.0
C554 C 0.32501 0.30772 0.77438 0.0
C555 C 0.29189 0.34392 0.69289 0.0
C556 C 0.30126 0.33061 0.72228 0.0
H557 H 0.39365 0.28245 0.80037 0.0
H558 H 0.36489 0.29208 0.7586 0.0
H559 H 0.323 0.33742 0.80465 0.0
H560 H 0.26562 0.39203 0.68051 0.0
H561 H 0.27366 0.36577 0.72695 0.0
C562 C 0.2886 0.64847 0.1227 0.0
C563 C 0.28456 0.62743 0.13534 0.0
C564 C 0.29376 0.66515 0.14635 0.0
C565 C 0.32546 0.68446 0.20043 0.0
H566 H 0.29819 0.69747 0.29042 0.0
C567 C 0.35391 0.70572 0.35043 0.0
C568 C 0.37292 0.71702 0.34202 0.0
C569 C 0.33856 0.70129 0.32415 0.0
C570 C 0.30613 0.69395 0.26552 0.0
H571 H 0.28074 0.60777 0.18253 0.0
H572 H 0.28922 0.63703 0.22381 0.0
H573 H 0.27841 0.67669 0.24576 0.0
H574 H 0.38995 0.73448 0.3009 0.0
H575 H 0.36247 0.72829 0.2556 0.0
H576 H 0.35381 0.6996 0.22061 0.0
C577 C 0.28862 0.64058 0.19571 0.0
C578 C 0.29467 0.68224 0.23985 0.0
C579 C 0.28393 0.62382 0.17208 0.0
C580 C 0.37546 0.72553 0.30784 0.0
C581 C 0.3598 0.72171 0.28183 0.0
C582 C 0.33708 0.69568 0.22627 0.0
C583 C 0.29443 0.66115 0.18299 0.0
C584 C 0.30447 0.67696 0.20744 0.0
C585 C 0.34168 0.70854 0.28907 0.0
C586 C 0.32784 0.70007 0.25965 0.0
H587 H 0.28927 0.65169 0.0945 0.0
H588 H 0.29821 0.68089 0.13597 0.0
H589 H 0.33351 0.68031 0.17583 0.0
H590 H 0.35173 0.69884 0.37661 0.0
H591 H 0.32507 0.69092 0.331 0.0
C592 C 0.16371 0.98799 0.05546 0.0
C593 C 0.18566 0.99025 0.04607 0.0
C594 C 0.15219 0.96934 0.04638 0.0
C595 C 0.15979 0.91205 0.02044 0.0
H596 H 0.09997 0.91689 0.98973 0.0
C597 C 0.09082 0.85638 0.94763 0.0
C598 C 0.09381 0.83667 0.96576 0.0
C599 C 0.10111 0.87525 0.95918 0.0
C600 C 0.1167 0.91525 -0.00192 0.0
H601 H 0.21257 0.97463 0.01926 0.0
H602 H 0.19233 0.94224 0.00289 0.0
H603 H 0.12025 0.94949 0.00453 0.0
H604 H 0.10936 0.82164 0.01118 0.0
H605 H 0.127 0.85469 0.03166 0.0
H606 H 0.15644 0.87786 0.01292 0.0
C607 C 0.18416 0.95478 0.01788 0.0
C608 C 0.12826 0.93394 0.00694 0.0
C609 C 0.19573 0.97343 0.02708 0.0
C610 C 0.10677 0.83648 -0.00356 0.0
C611 C 0.11703 0.8554 0.00805 0.0
C612 C 0.14824 0.89336 0.01149 0.0
C613 C 0.16227 0.95248 0.02754 0.0
C614 C 0.14997 0.93257 0.01815 0.0
C615 C 0.11457 0.87493 0.98924 0.0
C616 C 0.12657 0.89474 9e-05 0.0
H617 H 0.1554 0.00054 0.07025 0.0
H618 H 0.13545 0.96799 0.05469 0.0
H619 H 0.17639 0.91038 0.02939 0.0
H620 H 0.081 0.85718 0.92386 0.0
H621 H 0.09904 0.88993 0.94382 0.0
C622 C 0.83638 0.88828 0.99026 0.0
C623 C 0.83732 0.9014 0.0207 0.0
C624 C 0.8551 0.87834 0.97715 0.0
C625 C 0.89351 0.84785 0.97077 0.0
H626 H 0.94945 0.87635 0.97484 0.0
C627 C 0.97335 0.80037 0.95715 0.0
C628 C 0.99038 0.80991 0.93798 0.0
C629 C 0.95471 0.81222 0.96522 0.0
C630 C 0.93394 0.86821 0.97314 0.0
H631 H 0.85888 0.91466 0.06073 0.0
H632 H 0.89127 0.89706 0.0383 0.0
H633 H 0.91685 0.89645 0.99054 0.0
H634 H 0.0011 0.8395 0.9123 0.0
H635 H 0.96843 0.86006 0.92596 0.0
H636 H 0.91053 0.81973 0.9528 0.0
C637 C 0.87616 0.89471 0.02418 0.0
C638 C 0.91526 0.87967 0.98254 0.0
C639 C 0.8575 0.90472 0.03719 0.0
C640 C 0.98836 0.83165 0.92726 0.0
C641 C 0.96965 0.84348 0.9352 0.0
C642 C 0.91216 0.83642 0.96123 0.0
C643 C 0.87517 0.88122 -0.00577 0.0
C644 C 0.89485 0.86955 0.98188 0.0
C645 C 0.95257 0.83388 0.95418 0.0
C646 C 0.93264 0.84638 0.96273 0.0
H647 H 0.82114 0.88548 0.97673 0.0
H648 H 0.85382 0.86831 0.95369 0.0
H649 H 0.8781 0.83946 0.97028 0.0
H650 H 0.97439 0.78371 0.96607 0.0
H651 H 0.94206 0.80444 0.98049 0.0
C652 C 0.91048 0.14008 0.94781 0.0
C653 C 0.90028 0.16013 0.95399 0.0
C654 C 0.90084 0.12081 0.95921 0.0
C655 C 0.84804 0.09756 0.97624 0.0
H656 H 0.87798 0.05453 0.03305 0.0
C657 C 0.80207 0.02679 0.03915 0.0
C658 C 0.81228 0.00648 0.04134 0.0
C659 C 0.81365 0.04504 0.02847 0.0
C660 C 0.86949 0.0662 0.0167 0.0
H661 H 0.87215 0.17568 0.9774 0.0
H662 H 0.85522 0.14199 -0.00334 0.0
H663 H 0.89708 0.08731 0.01443 0.0
H664 H 0.84263 0.98934 0.03393 0.0
H665 H 0.86275 0.02114 0.01408 0.0
H666 H 0.82065 0.0765 0.97747 0.0
C667 C 0.87069 0.14127 0.98314 0.0
C668 C 0.88041 0.08498 0.00623 0.0
C669 C 0.88045 0.16052 0.97229 0.0
C670 C 0.83436 0.00481 0.03266 0.0
C671 C 0.8459 0.02307 0.02146 0.0
C672 C 0.83723 0.0787 0.98621 0.0
C673 C 0.88069 0.12126 0.97643 0.0
C674 C 0.86965 0.10093 0.98635 0.0
C675 C 0.83565 0.04341 0.01915 0.0
C676 C 0.84769 0.06291 0.00704 0.0
H677 H 0.92582 0.13927 0.93392 0.0
H678 H 0.90881 0.10553 0.95369 0.0
H679 H 0.83952 0.10949 0.96039 0.0
H680 H 0.78514 0.02869 0.04609 0.0
H681 H 0.80532 0.0605 0.02789 0.0
C682 C 0.00667 0.1632 0.92121 0.0
C683 C 0.00523 0.18481 0.93289 0.0
C684 C 0.02498 0.15069 0.92893 0.0
C685 C 0.08251 0.15583 0.95496 0.0
H686 H 0.07644 0.09591 0.9843 0.0
C687 C 0.13613 0.08781 0.03246 0.0
C688 C 0.15637 0.09117 0.01628 0.0
C689 C 0.11741 0.09729 0.0185 0.0
C690 C 0.0784 0.11263 0.97621 0.0
H691 H 0.02184 0.21004 0.96241 0.0
H692 H 0.05351 0.18816 0.97623 0.0
H693 H 0.04425 0.11686 0.96862 0.0
H694 H 0.17256 0.10615 0.97147 0.0
H695 H 0.13985 0.12238 0.94687 0.0
H696 H 0.11649 0.15194 0.96381 0.0
C697 C 0.04068 0.18101 0.9605 0.0
C698 C 0.05998 0.12457 0.96689 0.0
C699 C 0.02243 0.19352 0.95275 0.0
C700 C 0.15729 0.1034 0.98486 0.0
C701 C 0.13855 0.11281 0.97083 0.0
C702 C 0.10089 0.14393 0.96432 0.0
C703 C 0.04224 0.1595 0.94852 0.0
C704 C 0.06182 0.14639 0.95661 0.0
C705 C 0.11848 0.11027 0.98794 0.0
C706 C 0.09904 0.12226 0.97542 0.0
H707 H 0.99375 0.15597 0.90579 0.0
H708 H 0.02577 0.13423 0.91905 0.0
H709 H 0.08452 0.17251 0.94664 0.0
H710 H 0.13479 0.07848 0.05667 0.0
H711 H 0.10226 0.09517 0.03254 0.0
C712 C 0.82811 0.99232 0.52281 0.0
C713 C 0.80572 0.99158 0.5295 0.0
C714 C 0.8393 0.97367 0.51252 0.0
C715 C 0.83093 0.91752 0.47871 0.0
H716 H 0.88929 0.90896 0.51451 0.0
C717 C 0.87563 0.83558 0.47072 0.0
C718 C 0.89641 0.83626 0.45549 0.0
C719 C 0.86496 0.8547 0.48008 0.0
C720 C 0.87305 0.91123 0.5042 0.0
H721 H 0.77749 0.97069 0.53051 0.0
H722 H 0.79707 0.93802 0.51379 0.0
H723 H 0.8696 0.942 0.52953 0.0
H724 H 0.9226 0.85752 0.43935 0.0
H725 H 0.90405 0.89096 0.45656 0.0
H726 H 0.83429 0.88634 0.45436 0.0
C727 C 0.80596 0.9531 0.51549 0.0
C728 C 0.86178 0.9302 0.51258 0.0
C729 C 0.79471 0.97184 0.52525 0.0
C730 C 0.90658 0.85646 0.45092 0.0
C731 C 0.89602 0.87558 0.46085 0.0
C732 C 0.84209 0.89842 0.47082 0.0
C733 C 0.82844 0.95373 0.50921 0.0
C734 C 0.84056 0.93362 0.49991 0.0
C735 C 0.87498 0.87486 0.47495 0.0
C736 C 0.86324 0.89512 0.48348 0.0
H737 H 0.83702 0.00735 0.52551 0.0
H738 H 0.85648 0.97494 0.50714 0.0
H739 H 0.81482 0.91971 0.46786 0.0
H740 H 0.8673 0.8203 0.47447 0.0
H741 H 0.84881 0.85374 0.49121 0.0
C742 C 0.85427 0.08474 0.51008 0.0
C743 C 0.83465 0.09633 0.51 0.0
C744 C 0.87342 0.09454 0.49867 0.0
C745 C 0.89528 0.14317 0.45205 0.0
H746 H 0.94652 0.13044 0.50804 0.0
C747 C 0.97241 0.19608 0.44919 0.0
C748 C 0.99216 0.18499 0.44486 0.0
C749 C 0.9533 0.18468 0.45589 0.0
C750 C 0.93238 0.134 0.492 0.0
H751 H 0.81961 0.12706 0.49676 0.0
H752 H 0.85307 0.14438 0.47785 0.0
H753 H 0.91283 0.11135 0.52031 0.0
H754 H 0.00739 0.15326 0.44511 0.0
H755 H 0.97399 0.13343 0.4575 0.0
H756 H 0.91488 0.1664 0.42461 0.0
C757 C 0.85367 0.12756 0.48598 0.0
C758 C 0.91308 0.12299 0.49884 0.0
C759 C 0.83444 0.11765 0.49693 0.0
C760 C 0.99244 0.16229 0.44822 0.0
C761 C 0.97336 0.15093 0.45542 0.0
C762 C 0.91454 0.15438 0.44553 0.0
C763 C 0.87349 0.11627 0.4874 0.0
C764 C 0.89424 0.12744 0.479 0.0
C765 C 0.95358 0.162 0.4589 0.0
C766 C 0.93325 0.14993 0.46551 0.0
H767 H 0.85492 0.06819 0.51962 0.0
H768 H 0.88826 0.08515 0.49926 0.0
H769 H 0.88125 0.14679 0.43584 0.0
H770 H 0.97159 0.21355 0.44663 0.0
H771 H 0.93828 0.19362 0.45886 0.0
C772 C 0.09064 0.13641 0.46203 0.0
C773 C 0.09579 0.15689 0.47606 0.0
C774 C 0.1008 0.11773 0.47474 0.0
C775 C 0.11771 0.07914 0.51579 0.0
H776 H 0.17946 0.08263 0.53416 0.0
C777 C 0.16653 0.00591 0.56803 0.0
C778 C 0.18746 0.00264 0.55424 0.0
C779 C 0.15503 0.02488 0.56053 0.0
C780 C 0.16225 0.08133 0.52889 0.0
H781 H 0.11508 0.17358 0.51569 0.0
H782 H 0.13254 0.14087 0.5383 0.0
H783 H 0.15947 0.11528 0.51825 0.0
H784 H 0.21256 0.0168 0.52133 0.0
H785 H 0.1923 0.04967 0.50763 0.0
H786 H 0.12063 0.04507 0.52506 0.0
C787 C 0.12092 0.13937 0.51691 0.0
C788 C 0.15071 0.10013 0.52029 0.0
C789 C 0.11077 0.1581 0.50412 0.0
C790 C 0.19653 0.01879 0.53255 0.0
C791 C 0.18496 0.03773 0.52489 0.0
C792 C 0.12926 0.06034 0.52425 0.0
C793 C 0.11633 0.119 0.50194 0.0
C794 C 0.12832 0.09924 0.51335 0.0
C795 C 0.16408 0.04104 0.53886 0.0
C796 C 0.15171 0.06116 0.53067 0.0
H797 H 0.0792 0.13479 0.4404 0.0
H798 H 0.09703 0.10239 0.46227 0.0
H799 H 0.10045 0.07788 0.51101 0.0
H800 H 0.15906 0.99392 0.58504 0.0
H801 H 0.13913 0.02699 0.57217 0.0
C802 C 0.15667 0.8893 0.49202 0.0
C803 C 0.15649 0.90226 0.52268 0.0
C804 C 0.13749 0.8803 0.47902 0.0
C805 C 0.09882 0.85041 0.47557 0.0
H806 H 0.04321 0.87974 0.47756 0.0
C807 C 0.01894 0.80344 0.46439 0.0
C808 C 0.00258 0.81214 0.44265 0.0
C809 C 0.03727 0.81562 0.47285 0.0
C810 C 0.05864 0.87139 0.47656 0.0
H811 H 0.13573 0.9167 0.56269 0.0
H812 H 0.1024 0.90074 0.54029 0.0
H813 H 0.07615 0.89981 0.49216 0.0
H814 H 0.99254 0.84074 0.41336 0.0
H815 H 0.02469 0.86193 0.42794 0.0
H816 H 0.08144 0.82208 0.45971 0.0
C817 C 0.11735 0.89771 0.5261 0.0
C818 C 0.07748 0.88283 0.48522 0.0
C819 C 0.13652 0.90678 0.53906 0.0
C820 C 0.00481 0.83352 0.43018 0.0
C821 C 0.0232 0.84571 0.43864 0.0
C822 C 0.08003 0.83901 0.46693 0.0
C823 C 0.11769 0.88398 0.4964 0.0
C824 C 0.09776 0.8724 0.48508 0.0
C825 C 0.03974 0.83679 0.45974 0.0
C826 C 0.0597 0.84929 0.4677 0.0
H827 H 0.17171 0.88565 0.47848 0.0
H828 H 0.13824 0.87012 0.45567 0.0
H829 H 0.11412 0.84179 0.47563 0.0
H830 H 0.01772 0.78712 0.47476 0.0
H831 H 0.04952 0.80844 0.48976 0.0
C832 C 0.69439 0.47829 0.53458 0.0
C833 C 0.68451 0.49525 0.55354 0.0
C834 C 0.68292 0.45945 0.52662 0.0
C835 C 0.62765 0.43778 0.51703 0.0
H836 H 0.65754 0.38252 0.5216 0.0
C837 C 0.6105 0.33991 0.49751 0.0
C838 C 0.59854 0.34058 0.46578 0.0
C839 C 0.61943 0.35883 0.51168 0.0
C840 C 0.64883 0.39776 0.52063 0.0
H841 H 0.65469 0.50562 0.5789 0.0
H842 H 0.6347 0.47253 0.56523 0.0
H843 H 0.67612 0.4153 0.54046 0.0
H844 H 0.5862 0.36185 0.42455 0.0
H845 H 0.60206 0.39466 0.44891 0.0
H846 H 0.60027 0.42014 0.49745 0.0
C847 C 0.6513 0.47399 0.55625 0.0
C848 C 0.65959 0.4166 0.531 0.0
C849 C 0.66279 0.49292 0.56419 0.0
C850 C 0.5953 0.36069 0.44903 0.0
C851 C 0.60428 0.37957 0.46314 0.0
C852 C 0.61685 0.4189 0.5067 0.0
C853 C 0.66128 0.45701 0.53749 0.0
C854 C 0.64925 0.43687 0.5288 0.0
C855 C 0.61664 0.37884 0.49442 0.0
C856 C 0.62743 0.39871 0.50792 0.0
H857 H 0.71103 0.47955 0.52569 0.0
H858 H 0.69096 0.44688 0.51151 0.0
H859 H 0.61926 0.45315 0.51483 0.0
H860 H 0.61318 0.32474 0.5113 0.0
H861 H 0.62861 0.35776 0.5361 0.0
C862 C 0.33956 0.39102 0.48782 0.0
C863 C 0.33926 0.40343 0.51905 0.0
C864 C 0.35895 0.38222 0.47522 0.0
C865 C 0.39794 0.3528 0.47024 0.0
H866 H 0.45336 0.38196 0.47859 0.0
C867 C 0.47807 0.30621 0.45795 0.0
C868 C 0.4952 0.31597 0.43931 0.0
C869 C 0.45947 0.31799 0.46637 0.0
C870 C 0.438 0.37366 0.47575 0.0
H871 H 0.35934 0.41694 0.56084 0.0
H872 H 0.39301 0.40125 0.53927 0.0
H873 H 0.42011 0.40138 0.49345 0.0
H874 H 0.50623 0.34596 0.4153 0.0
H875 H 0.47353 0.36645 0.42957 0.0
H876 H 0.41568 0.32523 0.45202 0.0
C877 C 0.37832 0.39856 0.52419 0.0
C878 C 0.41895 0.38472 0.48463 0.0
C879 C 0.35894 0.40748 0.53667 0.0
C880 C 0.49337 0.33793 0.42974 0.0
C881 C 0.47466 0.34971 0.43805 0.0
C882 C 0.41693 0.3418 0.46127 0.0
C883 C 0.37849 0.3855 0.49366 0.0
C884 C 0.39871 0.37435 0.48228 0.0
C885 C 0.45741 0.33981 0.4562 0.0
C886 C 0.43721 0.35199 0.46431 0.0
H887 H 0.32475 0.38777 0.47333 0.0
H888 H 0.35856 0.37261 0.45122 0.0
H889 H 0.38269 0.34419 0.46853 0.0
H890 H 0.47899 0.2894 0.46611 0.0
H891 H 0.44671 0.30997 0.48106 0.0
C892 C 0.30396 0.51273 0.50773 0.0
C893 C 0.30805 0.50293 0.54062 0.0
C894 C 0.31592 0.53075 0.49694 0.0
C895 C 0.36592 0.56243 0.51835 0.0
H896 H 0.33759 0.6058 0.46 0.0
C897 C 0.39682 0.6502 0.48888 0.0
C898 C 0.39962 0.65438 0.45255 0.0
C899 C 0.3869 0.63103 0.50012 0.0
C900 C 0.34566 0.59374 0.47622 0.0
H901 H 0.32759 0.50438 0.58828 0.0
H902 H 0.34769 0.53651 0.57044 0.0
H903 H 0.3173 0.57411 0.47936 0.0
H904 H 0.3943 0.64181 0.39954 0.0
H905 H 0.37631 0.60865 0.41932 0.0
H906 H 0.394 0.58295 0.51624 0.0
C907 C 0.33587 0.52989 0.55222 0.0
C908 C 0.33414 0.57546 0.48711 0.0
C909 C 0.32425 0.51154 0.56262 0.0
C910 C 0.3925 0.63896 0.42771 0.0
C911 C 0.38215 0.62008 0.43893 0.0
C912 C 0.37727 0.58099 0.50808 0.0
C913 C 0.33189 0.53975 0.51919 0.0
C914 C 0.34415 0.55943 0.50809 0.0
C915 C 0.37919 0.61605 0.47516 0.0
C916 C 0.36724 0.59665 0.48673 0.0
H917 H 0.29173 0.50624 0.49005 0.0
H918 H 0.3127 0.53746 0.47096 0.0
H919 H 0.37437 0.55033 0.5339 0.0
H920 H 0.40221 0.66179 0.50857 0.0
H921 H 0.38467 0.62819 0.52821 0.0
C922 C 0.52334 0.68935 0.42325 0.0
C923 C 0.50258 0.67997 0.42351 0.0
C924 C 0.54158 0.67698 0.43163 0.0
C925 C 0.55876 0.63133 0.48454 0.0
H926 H 0.61088 0.63337 0.42732 0.0
C927 C 0.63683 0.58663 0.52729 0.0
C928 C 0.65653 0.59748 0.52145 0.0
C929 C 0.61759 0.59433 0.51223 0.0
C930 C 0.59656 0.63279 0.44384 0.0
H931 H 0.48468 0.65025 0.43253 0.0
H932 H 0.51672 0.6287 0.44809 0.0
H933 H 0.57803 0.65136 0.40653 0.0
H934 H 0.67144 0.62495 0.49516 0.0
H935 H 0.63794 0.63878 0.47006 0.0
H936 H 0.57738 0.61376 0.52272 0.0
C937 C 0.51874 0.64559 0.44102 0.0
C938 C 0.57772 0.64298 0.43176 0.0
C939 C 0.50048 0.65788 0.43197 0.0
C940 C 0.65658 0.61609 0.49998 0.0
C941 C 0.63733 0.62395 0.48534 0.0
C942 C 0.57768 0.62141 0.4969 0.0
C943 C 0.53943 0.65507 0.44101 0.0
C944 C 0.55874 0.64258 0.45221 0.0
C945 C 0.61754 0.61324 0.49136 0.0
C946 C 0.59694 0.62228 0.47695 0.0
H947 H 0.52549 0.7063 0.41669 0.0
H948 H 0.55734 0.68471 0.43174 0.0
H949 H 0.54437 0.63099 0.50096 0.0
H950 H 0.63627 0.57212 0.54344 0.0
H951 H 0.60276 0.58543 0.51697 0.0
C952 C 0.39331 0.34088 0.00148 0.0
C953 C 0.40485 0.34108 0.96937 0.0
C954 C 0.38456 0.36001 0.01522 0.0
C955 C 0.35456 0.39852 0.02254 0.0
H956 H 0.38268 0.45442 0.01337 0.0
C957 C 0.30693 0.47816 0.0332 0.0
C958 C 0.3165 0.49567 0.0512 0.0
C959 C 0.31887 0.45949 0.02582 0.0
C960 C 0.37469 0.43892 0.0165 0.0
H961 H 0.41692 0.3618 0.92726 0.0
H962 H 0.40136 0.39497 0.95087 0.0
H963 H 0.40244 0.42152 -0.00228 0.0
H964 H 0.34627 0.50721 0.07542 0.0
H965 H 0.36704 0.47444 0.06281 0.0
H966 H 0.3269 0.41583 0.04159 0.0
C967 C 0.3993 0.3801 0.96571 0.0
C968 C 0.38594 0.42008 0.00717 0.0
C969 C 0.40813 0.361 0.95205 0.0
C970 C 0.33838 0.49407 0.06144 0.0
C971 C 0.35033 0.47532 0.0541 0.0
C972 C 0.34336 0.41732 0.03192 0.0
C973 C 0.38708 0.37977 -0.00288 0.0
C974 C 0.3759 0.39968 0.00965 0.0
C975 C 0.34066 0.45778 0.03634 0.0
C976 C 0.35316 0.43776 0.0285 0.0
H977 H 0.39065 0.32588 0.01574 0.0
H978 H 0.37557 0.35926 0.03982 0.0
H979 H 0.34622 0.38313 0.02442 0.0
H980 H 0.29018 0.47884 0.02465 0.0
H981 H 0.31104 0.44646 0.01148 0.0
C982 C 0.36339 0.59429 0.03681 0.0
C983 C 0.34371 0.59774 0.01877 0.0
C984 C 0.38254 0.60379 0.02478 0.0
C985 C 0.40155 0.65009 0.9719 0.0
H986 H 0.45726 0.6213 0.9796 0.0
C987 C 0.49674 0.66537 0.93115 0.0
C988 C 0.49885 0.68718 0.94149 0.0
C989 C 0.47799 0.6537 0.93924 0.0
C990 C 0.44181 0.62951 0.97697 0.0
H991 H 0.32903 0.61316 0.97292 0.0
H992 H 0.36255 0.62947 0.95168 0.0
H993 H 0.42422 0.60147 -0.00615 0.0
H994 H 0.48294 0.71363 0.96914 0.0
H995 H 0.45046 0.69317 0.9837 0.0
H996 H 0.41907 0.67802 0.95455 0.0
C997 C 0.36303 0.61974 0.97557 0.0
C998 C 0.4229 0.61821 0.98548 0.0
C999 C 0.34384 0.61028 0.98765 0.0
C1000 C 0.48185 0.69692 0.96054 0.0
C1001 C 0.46314 0.68522 0.9687 0.0
C1002 C 0.42044 0.66137 0.96334 0.0
C1003 C 0.38253 0.61691 -0.00566 0.0
C1004 C 0.40256 0.62843 0.98332 0.0
C1005 C 0.46092 0.66353 0.95794 0.0
C1006 C 0.44081 0.65128 0.96608 0.0
H1007 H 0.36395 0.58473 0.06088 0.0
H1008 H 0.39722 0.60145 0.04009 0.0
H1009 H 0.38619 0.65855 0.97034 0.0
H1010 H 0.50946 0.65734 0.91635 0.0
H1011 H 0.47671 0.63708 0.93025 0.0
C1012 C 0.61525 0.66027 0.00318 0.0
C1013 C 0.60057 0.65969 0.97464 0.0
C1014 C 0.62481 0.64117 0.01571 0.0
C1015 C 0.65376 0.60132 0.01845 0.0
H1016 H 0.62269 0.54673 0.01963 0.0
C1017 C 0.69832 0.51933 0.02706 0.0
C1018 C 0.68897 0.50287 0.04778 0.0
C1019 C 0.68695 0.53846 0.02006 0.0
C1020 C 0.63159 0.56185 0.01985 0.0
H1021 H 0.58389 0.63834 0.93786 0.0
H1022 H 0.60075 0.60535 0.95923 0.0
H1023 H 0.6032 0.58015 0.00698 0.0
H1024 H 0.66023 0.49371 0.07735 0.0
H1025 H 0.64062 0.52716 0.06566 0.0
H1026 H 0.68207 0.58307 0.03198 0.0
C1027 C 0.60471 0.62046 0.9723 0.0
C1028 C 0.62044 0.58101 0.01219 0.0
C1029 C 0.59511 0.63948 0.95987 0.0
C1030 C 0.6679 0.50596 0.06108 0.0
C1031 C 0.6566 0.52515 0.05427 0.0
C1032 C 0.66489 0.58217 0.02629 0.0
C1033 C 0.61994 0.62108 -2e-05 0.0
C1034 C 0.63143 0.60095 0.01096 0.0
C1035 C 0.666 0.54168 0.03379 0.0
C1036 C 0.654 0.56216 0.02668 0.0
H1037 H 0.61976 0.67552 0.01532 0.0
H1038 H 0.63622 0.64218 0.03748 0.0
H1039 H 0.6628 0.61634 0.01736 0.0
H1040 H 0.71446 0.51746 0.0162 0.0
H1041 H 0.69454 0.55067 0.00361 0.0
C1042 C 0.50831 0.33235 0.9239 0.0
C1043 C 0.5056 0.31111 0.93671 0.0
C1044 C 0.52734 0.34385 0.93083 0.0
C1045 C 0.58454 0.3363 0.95838 0.0
H1046 H 0.58107 0.39757 0.98054 0.0
C1047 C 0.66145 0.38702 0.98356 0.0
C1048 C 0.66067 0.40104 0.01292 0.0
C1049 C 0.64252 0.37741 0.97057 0.0
C1050 C 0.58233 0.38045 0.97452 0.0
H1051 H 0.52077 0.28544 0.96729 0.0
H1052 H 0.55373 0.30568 0.98007 0.0
H1053 H 0.5481 0.37758 0.96698 0.0
H1054 H 0.63911 0.41659 0.05066 0.0
H1055 H 0.60636 0.39964 0.02844 0.0
H1056 H 0.61865 0.33897 0.96738 0.0
C1057 C 0.54132 0.31328 0.96397 0.0
C1058 C 0.56344 0.36903 0.96635 0.0
C1059 C 0.52233 0.30172 0.95686 0.0
C1060 C 0.64039 0.40588 0.02802 0.0
C1061 C 0.62152 0.39623 0.01513 0.0
C1062 C 0.60342 0.34771 0.96671 0.0
C1063 C 0.54408 0.33446 0.95094 0.0
C1064 C 0.56428 0.34676 0.9585 0.0
C1065 C 0.62239 0.38158 0.98666 0.0
C1066 C 0.60252 0.36987 0.97522 0.0
H1067 H 0.49585 0.34007 0.90806 0.0
H1068 H 0.52903 0.36 0.91996 0.0
H1069 H 0.58583 0.31925 0.95192 0.0
H1070 H 0.67675 0.38302 0.97111 0.0
H1071 H 0.6437 0.36649 0.94819 0.0
C1072 C 0.25896 0.98823 0.67738 0.0
C1073 C 0.24361 0.97139 0.67661 0.0
C1074 C 0.26393 0.9986 0.70921 0.0
C1075 C 0.26122 0.99216 0.80549 0.0
H1076 H 0.255 0.05474 0.80845 0.0
C1077 C 0.26642 0.03575 0.93688 0.0
C1078 C 0.2488 0.04948 0.94397 0.0
C1079 C 0.27088 0.0293 0.9024 0.0
C1080 C 0.2569 0.03729 0.80791 0.0
H1081 H 0.22213 0.95162 0.70862 0.0
H1082 H 0.23095 0.96962 0.76412 0.0
H1083 H 0.25338 0.03581 0.75147 0.0
H1084 H 0.22299 0.06859 0.92078 0.0
H1085 H 0.23024 0.05656 0.86004 0.0
H1086 H 0.26365 0.99328 0.86174 0.0
C1087 C 0.23909 0.97479 0.74015 0.0
C1088 C 0.25618 0.02651 0.77539 0.0
C1089 C 0.23395 0.96459 0.70837 0.0
C1090 C 0.23657 0.05787 0.91581 0.0
C1091 C 0.24083 0.0511 0.88115 0.0
C1092 C 0.262 0.00288 0.83785 0.0
C1093 C 0.25387 0.99208 0.74074 0.0
C1094 C 0.25778 0.00381 0.77412 0.0
C1095 C 0.25756 0.03613 0.8744 0.0
C1096 C 0.2594 0.02549 0.83948 0.0
H1097 H 0.26662 0.99387 0.65328 0.0
H1098 H 0.27547 0.01183 0.70915 0.0
H1099 H 0.26266 0.97465 0.8051 0.0
H1100 H 0.27643 0.02951 0.9582 0.0
H1101 H 0.2842 0.01819 0.89784 0.0
C1102 C 0.96977 0.75288 0.28944 0.0
C1103 C 0.97991 0.74938 0.32222 0.0
C1104 C 0.98029 0.74739 0.2581 0.0
C1105 C 0.03231 0.74689 0.21876 0.0
H1106 H 0.00329 0.7163 0.14256 0.0
C1107 C 0.0246 0.75087 0.05892 0.0
C1108 C 0.0463 0.75132 0.04768 0.0
C1109 C 0.01949 0.74651 0.09406 0.0
C1110 C 0.01164 0.72486 0.16358 0.0
H1111 H 0.00875 0.73711 0.34829 0.0
H1112 H 0.02764 0.72817 0.29279 0.0
H1113 H 0.98836 0.71494 0.20235 0.0
H1114 H 0.07972 0.74794 0.06486 0.0
H1115 H 0.07065 0.74025 0.12682 0.0
H1116 H 0.05472 0.75814 0.17952 0.0
C1117 C 0.01138 0.73479 0.29169 0.0
C1118 C 0.00318 0.72392 0.19775 0.0
C1119 C 0.00059 0.7398 0.32324 0.0
C1120 C 0.06284 0.74776 0.07272 0.0
C1121 C 0.05767 0.74332 0.10813 0.0
C1122 C 0.04068 0.74805 0.18438 0.0
C1123 C 0.00132 0.73871 0.25893 0.0
C1124 C 0.013 0.73558 0.22528 0.0
C1125 C 0.03589 0.74235 0.11897 0.0
C1126 C 0.02986 0.73778 0.15622 0.0
H1127 H 0.95381 0.76019 0.28804 0.0
H1128 H 0.97233 0.75077 0.23308 0.0
H1129 H 0.04004 0.75612 0.23967 0.0
H1130 H 0.01143 0.75381 0.04052 0.0
H1131 H 0.00257 0.74657 0.10176 0.0
C1132 C 0.74749 0.93163 0.91533 0.0
C1133 C 0.75732 0.94666 0.93826 0.0
C1134 C 0.74669 0.93568 0.87882 0.0
C1135 C 0.77509 0.96335 0.80892 0.0
H1136 H 0.72015 0.97736 0.76426 0.0
C1137 C 0.77153 0.02124 0.69317 0.0
C1138 C 0.75838 0.01633 0.66386 0.0
C1139 C 0.76999 0.0092 0.7242 0.0
C1140 C 0.73556 0.97305 0.77609 0.0
H1141 H 0.77451 0.97727 0.9412 0.0
H1142 H 0.77366 0.98393 0.87763 0.0
H1143 H 0.72062 0.96076 0.8234 0.0
H1144 H 0.73257 0.99551 0.6447 0.0
H1145 H 0.7299 0.97432 0.69948 0.0
H1146 H 0.79018 0.97611 0.76255 0.0
C1147 C 0.76634 0.96925 0.88785 0.0
C1148 C 0.73581 0.96355 0.80978 0.0
C1149 C 0.76672 0.96547 0.92415 0.0
C1150 C 0.74291 -0.00031 0.66687 0.0
C1151 C 0.74141 0.98753 0.69812 0.0
C1152 C 0.77486 0.97263 0.77533 0.0
C1153 C 0.75624 0.95449 0.86496 0.0
C1154 C 0.75562 0.95945 0.82685 0.0
C1155 C 0.75536 0.99186 0.72671 0.0
C1156 C 0.75514 0.97847 0.75925 0.0
H1157 H 0.74004 0.91706 0.92569 0.0
H1158 H 0.73879 0.92415 0.86144 0.0
H1159 H 0.79052 0.96016 0.82165 0.0
H1160 H 0.78338 0.03417 0.69197 0.0
H1161 H 0.78049 0.01337 0.7462 0.0
C1162 C 0.93071 0.2446 0.06927 0.0
C1163 C 0.94495 0.23475 0.0451 0.0
C1164 C 0.93546 0.24437 0.10557 0.0
C1165 C 0.96618 0.21508 0.17282 0.0
H1166 H 0.97762 0.27051 0.2176 0.0
C1167 C 0.02527 0.22128 0.28726 0.0
C1168 C 0.0197 0.23402 0.3167 0.0
C1169 C 0.01311 0.22236 0.25626 0.0
C1170 C 0.97411 0.25492 0.20574 0.0
H1171 H 0.9746 0.21617 0.03958 0.0
H1172 H 0.98251 0.21526 0.10275 0.0
H1173 H 0.9595 0.26936 0.15979 0.0
H1174 H 0.99761 0.25872 0.33611 0.0
H1175 H 0.97622 0.26054 0.28156 0.0
H1176 H 0.98118 0.20054 0.21795 0.0
C1177 C 0.96789 0.22334 0.0938 0.0
C1178 C 0.9637 0.25428 0.1728 0.0
C1179 C 0.96344 0.22397 0.05772 0.0
C1180 C 0.00233 0.24872 0.31381 0.0
C1181 C 0.99005 0.24974 0.28267 0.0
C1182 C 0.9764 0.21569 0.20569 0.0
C1183 C 0.95414 0.23378 0.11796 0.0
C1184 C 0.96042 0.23437 0.15561 0.0
C1185 C 0.99499 0.2361 0.25398 0.0
C1186 C 0.98126 0.23564 0.22181 0.0
H1187 H 0.91641 0.2531 0.06 0.0
H1188 H 0.9247 0.25255 0.12388 0.0
H1189 H 0.9636 0.19954 0.16011 0.0
H1190 H 0.03874 0.21002 0.28844 0.0
H1191 H 0.01771 0.21214 0.23417 0.0
C1192 C 0.77177 0.98631 0.19217 0.0
C1193 C 0.75632 0.98475 0.16488 0.0
C1194 C 0.76776 -0.00101 0.22192 0.0
C1195 C 0.72484 0.02171 0.27626 0.0
H1196 H 0.77275 0.05459 0.31558 0.0
C1197 C 0.75202 0.07145 0.41149 0.0
C1198 C 0.74546 0.05575 0.43624 0.0
C1199 C 0.74943 0.06772 0.37516 0.0
C1200 C 0.75901 0.04594 0.30468 0.0
H1201 H 0.72426 0.99501 0.14796 0.0
H1202 H 0.71718 0.01711 0.20059 0.0
H1203 H 0.77609 0.03864 0.25688 0.0
H1204 H 0.72991 0.02438 0.44226 0.0
H1205 H 0.72579 0.01781 0.37941 0.0
H1206 H 0.70799 0.02853 0.32455 0.0
C1207 C 0.73244 0.00851 0.19855 0.0
C1208 C 0.76103 0.03657 0.27124 0.0
C1209 C 0.7365 0.99583 0.16851 0.0
C1210 C 0.73537 0.03675 0.42398 0.0
C1211 C 0.73272 0.03309 0.38785 0.0
C1212 C 0.72281 0.0311 0.30977 0.0
C1213 C 0.7482 0.01042 0.22527 0.0
C1214 C 0.74433 0.02363 0.25736 0.0
C1215 C 0.7401 0.04831 0.363 0.0
C1216 C 0.74022 0.04257 0.32488 0.0
H1217 H 0.78717 0.97793 0.19048 0.0
H1218 H 0.77999 -0.0003 0.24252 0.0
H1219 H 0.71169 0.01187 0.26615 0.0
H1220 H 0.75971 0.08633 0.42007 0.0
H1221 H 0.75514 0.07981 0.35657 0.0
C1222 C 0.05886 0.23821 0.5754 0.0
C1223 C 0.05039 0.2498 0.54659 0.0
C1224 C 0.0529 0.24379 0.60997 0.0
C1225 C 0.00724 0.27 0.65517 0.0
H1226 H 0.0416 0.25852 0.7392 0.0
C1227 C 0.97012 0.24204 0.78428 0.0
C1228 C 0.9784 0.24943 0.81675 0.0
C1229 C 0.97987 0.24807 0.75262 0.0
C1230 C 0.03194 0.26225 0.71599 0.0
H1231 H 0.03092 0.27749 0.53099 0.0
H1232 H 0.02119 0.2877 0.59108 0.0
H1233 H 0.059 0.25841 0.681 0.0
H1234 H 0.00294 0.26949 0.8416 0.0
H1235 H 0.02027 0.27993 0.78564 0.0
H1236 H 0.98016 0.2734 0.68992 0.0
C1237 C 0.03162 0.27377 0.58723 0.0
C1238 C 0.04183 0.2619 0.68267 0.0
C1239 C 0.03718 0.26792 0.55283 0.0
C1240 C 0.99622 0.26361 0.81688 0.0
C1241 C 0.00619 0.26948 0.78501 0.0
C1242 C 0.99745 0.27044 0.68833 0.0
C1243 C 0.03873 0.26131 0.61614 0.0
C1244 C 0.02941 0.26507 0.65183 0.0
C1245 C 0.99819 0.26155 0.75265 0.0
C1246 C 0.00951 0.26575 0.7189 0.0
H1247 H 0.06921 0.22426 0.57113 0.0
H1248 H 0.05853 0.23372 0.63161 0.0
H1249 H 0.99708 0.27229 0.63206 0.0
H1250 H 0.95631 0.23121 0.78334 0.0
H1251 H 0.97352 0.24146 0.72811 0.0
C1252 C 0.26303 0.95799 0.43652 0.0
C1253 C 0.24649 0.94328 0.44499 0.0
C1254 C 0.2662 0.96452 0.4017 0.0
C1255 C 0.25156 0.95459 0.30825 0.0
H1256 H 0.25397 0.01738 0.30299 0.0
C1257 C 0.25438 0.00266 0.17621 0.0
C1258 C 0.23862 0.0191 0.17403 0.0
C1259 C 0.25856 0.9924 0.20848 0.0
C1260 C 0.25342 -0.00016 0.30407 0.0
H1261 H 0.22127 0.92262 0.42371 0.0
H1262 H 0.22634 0.93467 0.36235 0.0
H1263 H 0.25566 -0.00035 0.36038 0.0
H1264 H 0.21537 0.03811 0.20398 0.0
H1265 H 0.22282 0.02035 0.26021 0.0
H1266 H 0.24843 0.95508 0.25166 0.0
C1267 C 0.23703 0.94089 0.38272 0.0
C1268 C 0.25459 0.98965 0.33685 0.0
C1269 C 0.23403 0.9341 0.41774 0.0
C1270 C 0.22756 0.02547 0.2048 0.0
C1271 C 0.23189 0.01539 0.23701 0.0
C1272 C 0.25047 0.96484 0.27527 0.0
C1273 C 0.25269 0.95671 0.37468 0.0
C1274 C 0.25336 0.96696 0.33934 0.0
C1275 C 0.24726 -0.00135 0.23905 0.0
C1276 C 0.25095 0.98757 0.2731 0.0
H1277 H 0.27323 0.96489 0.457 0.0
H1278 H 0.27872 0.97633 0.3961 0.0
H1279 H 0.25069 0.93708 0.30949 0.0
H1280 H 0.26309 0.99735 0.15287 0.0
H1281 H 0.27056 0.97959 0.20956 0.0
C1282 C 0.02159 0.76554 0.78588 0.0
C1283 C 0.01626 0.75373 0.81646 0.0
C1284 C 0.0086 0.76433 0.75583 0.0
C1285 C 0.96828 0.73361 0.70725 0.0
H1286 H 0.9557 0.79033 0.66767 0.0
C1287 C 0.92527 0.7482 0.5711 0.0
C1288 C 0.9396 0.75931 0.54859 0.0
C1289 C 0.92949 0.7471 0.60756 0.0
C1290 C 0.95879 0.77441 0.67872 0.0
H1291 H 0.99402 0.73012 0.83863 0.0
H1292 H 0.97127 0.72786 0.78534 0.0
H1293 H 0.9741 0.78756 0.72469 0.0
H1294 H 0.9688 0.77873 0.54618 0.0
H1295 H 0.97575 0.77741 0.60962 0.0
H1296 H 0.95376 0.72057 0.66011 0.0
C1297 C 0.98545 0.73818 0.78509 0.0
C1298 C 0.96942 0.77281 0.71113 0.0
C1299 C 0.99852 0.73942 0.81543 0.0
C1300 C 0.95756 0.77004 0.56305 0.0
C1301 C 0.96147 0.76936 0.5993 0.0
C1302 C 0.95754 0.73523 0.67464 0.0
C1303 C 0.98998 0.75129 0.75559 0.0
C1304 C 0.97515 0.75243 0.72489 0.0
C1305 C 0.9477 0.75763 0.62179 0.0
C1306 C 0.95359 0.75568 0.65953 0.0
H1307 H 0.03534 0.77645 0.78559 0.0
H1308 H 0.0128 0.77412 0.73301 0.0
H1309 H 0.97246 0.71773 0.71745 0.0
H1310 H 0.91141 0.73968 0.56034 0.0
H1311 H 0.91874 0.73793 0.62454 0.0
C1312 C 0.74367 0.56708 0.41562 0.0
C1313 C 0.73573 0.55249 0.44107 0.0
C1314 C 0.74422 0.56114 0.37983 0.0
C1315 C 0.71867 0.52534 0.31599 0.0
H1316 H 0.77461 0.51925 0.27012 0.0
C1317 C 0.7295 0.46604 0.20331 0.0
C1318 C 0.74042 0.47318 0.17288 0.0
C1319 C 0.73031 0.47812 0.23439 0.0
C1320 C 0.75885 0.5212 0.28235 0.0
H1321 H 0.72143 0.52079 0.44934 0.0
H1322 H 0.7219 0.51072 0.38706 0.0
H1323 H 0.77196 0.53843 0.3269 0.0
H1324 H 0.76196 0.4978 0.15176 0.0
H1325 H 0.76327 0.51904 0.20638 0.0
H1326 H 0.70551 0.50781 0.27229 0.0
C1327 C 0.7279 0.52656 0.39466 0.0
C1328 C 0.75734 0.53222 0.31463 0.0
C1329 C 0.72776 0.53226 0.43024 0.0
C1330 C 0.75338 0.49189 0.17484 0.0
C1331 C 0.7541 0.50408 0.20602 0.0
C1332 C 0.72014 0.5145 0.2838 0.0
C1333 C 0.7363 0.54083 0.36926 0.0
C1334 C 0.73734 0.53366 0.33216 0.0
C1335 C 0.74193 0.49767 0.23563 0.0
C1336 C 0.74035 0.51159 0.26736 0.0
H1337 H 0.74998 0.58273 0.42349 0.0
H1338 H 0.7508 0.57231 0.36049 0.0
H1339 H 0.70306 0.52648 0.32901 0.0
H1340 H 0.71965 0.45152 0.20278 0.0
H1341 H 0.72132 0.47245 0.25722 0.0
C1342 C 0.53332 0.26929 0.56009 0.0
C1343 C 0.55264 0.26034 0.54708 0.0
C1344 C 0.52854 0.26824 0.59599 0.0
C1345 C 0.53368 0.23612 0.67325 0.0
H1346 H 0.51458 0.28863 0.72035 0.0
C1347 C 0.49417 0.24187 0.81465 0.0
C1348 C 0.47601 0.25567 0.81569 0.0
C1349 C 0.50658 0.24022 0.78373 0.0
C1350 C 0.51992 0.27384 0.70758 0.0
H1351 H 0.58217 0.24327 0.56114 0.0
H1352 H 0.57334 0.24093 0.62469 0.0
H1353 H 0.53278 0.29108 0.66322 0.0
H1354 H 0.45538 0.27684 0.78444 0.0
H1355 H 0.47678 0.27375 0.73072 0.0
H1356 H 0.5197 0.21884 0.71704 0.0
C1357 C 0.56218 0.24896 0.6068 0.0
C1358 C 0.53045 0.27527 0.67514 0.0
C1359 C 0.56722 0.2504 0.5707 0.0
C1360 C 0.4695 0.26638 0.78464 0.0
C1361 C 0.48181 0.26472 0.75396 0.0
C1362 C 0.52303 0.23467 0.70589 0.0
C1363 C 0.54281 0.25796 0.61957 0.0
C1364 C 0.53664 0.25641 0.65711 0.0
C1365 C 0.50092 0.25237 0.75365 0.0
C1366 C 0.51528 0.25351 0.72248 0.0
H1367 H 0.52186 0.27713 0.54247 0.0
H1368 H 0.5134 0.27511 0.60529 0.0
H1369 H 0.53827 0.22138 0.65956 0.0
H1370 H 0.49955 0.23341 0.83824 0.0
H1371 H 0.52118 0.23046 0.78394 0.0
C1372 C 0.26637 0.53215 0.20074 0.0
C1373 C 0.25692 0.52515 0.16888 0.0
C1374 C 0.26201 0.52135 0.23234 0.0
C1375 C 0.24791 0.46841 0.2668 0.0
H1376 H 0.23741 0.50035 0.35355 0.0
C1377 C 0.26373 0.43592 0.409 0.0
C1378 C 0.24957 0.44313 0.43557 0.0
C1379 C 0.26107 0.44318 0.37409 0.0
C1380 C 0.24003 0.49112 0.32951 0.0
H1381 H 0.23509 0.50168 0.14519 0.0
H1382 H 0.22761 0.48264 0.20075 0.0
H1383 H 0.23859 0.51962 0.29738 0.0
H1384 H 0.22033 0.46156 0.44624 0.0
H1385 H 0.21549 0.47379 0.38555 0.0
H1386 H 0.2498 0.43992 0.2993 0.0
C1387 C 0.23838 0.4965 0.20104 0.0
C1388 C 0.24088 0.5022 0.29744 0.0
C1389 C 0.24251 0.50751 0.1694 0.0
C1390 C 0.23178 0.45617 0.42632 0.0
C1391 C 0.229 0.46319 0.39163 0.0
C1392 C 0.2472 0.45728 0.29906 0.0
C1393 C 0.24829 0.50321 0.23266 0.0
C1394 C 0.24514 0.49102 0.26589 0.0
C1395 C 0.24411 0.45753 0.36548 0.0
C1396 C 0.24345 0.4686 0.33074 0.0
H1397 H 0.27749 0.54573 0.20117 0.0
H1398 H 0.26999 0.52675 0.25636 0.0
H1399 H 0.2514 0.45947 0.24276 0.0
H1400 H 0.27752 0.42579 0.41556 0.0
H1401 H 0.27298 0.4386 0.3544 0.0
C1402 C 0.43618 0.73942 0.56899 0.0
C1403 C 0.45008 0.73031 0.54353 0.0
C1404 C 0.44249 0.74029 0.6046 0.0
C1405 C 0.47916 0.71498 0.66868 0.0
H1406 H 0.48233 0.77119 0.7145 0.0
C1407 C 0.53619 0.72823 0.78409 0.0
C1408 C 0.52798 0.73867 0.81428 0.0
C1409 C 0.52469 0.72868 0.75238 0.0
C1410 C 0.48124 0.75536 0.70223 0.0
H1411 H 0.48096 0.71424 0.53531 0.0
H1412 H 0.49172 0.7154 0.59725 0.0
H1413 H 0.46386 0.76764 0.6572 0.0
H1414 H 0.50204 0.759 0.83435 0.0
H1415 H 0.4818 0.75969 0.77852 0.0
H1416 H 0.49679 0.70265 0.71299 0.0
C1417 C 0.47607 0.72198 0.5898 0.0
C1418 C 0.47063 0.75332 0.66961 0.0
C1419 C 0.46997 0.72144 0.55435 0.0
C1420 C 0.50876 0.75082 0.81147 0.0
C1421 C 0.49715 0.75118 0.77959 0.0
C1422 C 0.48964 0.71698 0.70116 0.0
C1423 C 0.46254 0.73162 0.61517 0.0
C1424 C 0.47013 0.73322 0.65214 0.0
C1425 C 0.50468 0.73944 0.75017 0.0
C1426 C 0.49142 0.7373 0.71769 0.0
H1427 H 0.4208 0.74647 0.56123 0.0
H1428 H 0.43181 0.74777 0.62381 0.0
H1429 H 0.47868 0.69925 0.65591 0.0
H1430 H 0.55113 0.71902 0.78529 0.0
H1431 H 0.5312 0.72003 0.72977 0.0
C1432 C 0.2624 0.52788 0.92625 0.0
C1433 C 0.26035 0.54966 0.93648 0.0
C1434 C 0.25779 0.52156 0.89175 0.0
C1435 C 0.25319 0.54009 0.80041 0.0
H1436 H 0.2232 0.48514 0.79039 0.0
C1437 C 0.24108 0.49679 0.66551 0.0
C1438 C 0.25113 0.47633 0.66601 0.0
C1439 C 0.23712 0.50784 0.69718 0.0
C1440 C 0.23135 0.50062 0.7928 0.0
H1441 H 0.25271 0.5821 0.91814 0.0
H1442 H 0.24461 0.57091 0.85713 0.0
H1443 H 0.22658 0.50171 0.84879 0.0
H1444 H 0.26381 0.45083 0.6997 0.0
H1445 H 0.25637 0.46987 0.755 0.0
H1446 H 0.25846 0.53852 0.74431 0.0
C1447 C 0.24975 0.5588 0.87616 0.0
C1448 C 0.2334 0.51004 0.82614 0.0
C1449 C 0.25445 0.5652 0.91095 0.0
C1450 C 0.25612 0.46662 0.69863 0.0
C1451 C 0.25176 0.47744 0.7302 0.0
C1452 C 0.25096 0.53071 0.76689 0.0
C1453 C 0.25089 0.53682 0.86656 0.0
C1454 C 0.24519 0.52935 0.83049 0.0
C1455 C 0.24267 0.49831 0.7297 0.0
C1456 C 0.24079 0.51048 0.76315 0.0
H1457 H 0.26726 0.51554 0.9451 0.0
H1458 H 0.25952 0.5046 0.88484 0.0
H1459 H 0.26235 0.55497 0.80303 0.0
H1460 H 0.23721 0.50467 0.64063 0.0
H1461 H 0.23012 0.52394 0.69628 0.0
C1462 C 0.56151 0.7391 0.07572 0.0
C1463 C 0.55338 0.75105 0.04699 0.0
C1464 C 0.55418 0.74344 0.11008 0.0
C1465 C 0.50573 0.76555 0.15287 0.0
H1466 H 0.53856 0.7567 0.23935 0.0
C1467 C 0.46714 0.73717 0.28133 0.0
C1468 C 0.4741 0.74595 0.31369 0.0
C1469 C 0.47731 0.74295 0.24986 0.0
C1470 C 0.52928 0.75963 0.21542 0.0
H1471 H 0.53296 0.77815 0.03173 0.0
H1472 H 0.52071 0.78605 0.09147 0.0
H1473 H 0.55745 0.75764 0.18234 0.0
H1474 H 0.49672 0.76817 0.33851 0.0
H1475 H 0.51479 0.77817 0.28298 0.0
H1476 H 0.47757 0.76706 0.18568 0.0
C1477 C 0.53204 0.77285 0.08757 0.0
C1478 C 0.54004 0.7599 0.18282 0.0
C1479 C 0.53906 0.76831 0.05336 0.0
C1480 C 0.49099 0.76123 0.31386 0.0
C1481 C 0.5014 0.76683 0.28224 0.0
C1482 C 0.49504 0.76528 0.18531 0.0
C1483 C 0.53888 0.75998 0.11615 0.0
C1484 C 0.52827 0.76235 0.15115 0.0
C1485 C 0.49477 0.75752 0.25005 0.0
C1486 C 0.50662 0.76168 0.21676 0.0
H1487 H 0.57266 0.72579 0.07143 0.0
H1488 H 0.55965 0.73313 0.13154 0.0
H1489 H 0.4961 0.76722 0.12901 0.0
H1490 H 0.4541 0.72544 0.28038 0.0
H1491 H 0.47202 0.73534 0.22547 0.0
C1492 C 0.73953 0.43804 0.91269 0.0
C1493 C 0.7515 0.4467 0.94095 0.0
C1494 C 0.743 0.44557 0.87818 0.0
C1495 C 0.76168 0.49512 0.83489 0.0
H1496 H 0.75501 0.46187 0.74842 0.0
C1497 C 0.73394 0.5328 0.70455 0.0
C1498 C 0.74373 0.52602 0.67286 0.0
C1499 C 0.73914 0.52275 0.73646 0.0
C1500 C 0.75725 0.47129 0.77236 0.0
H1501 H 0.77784 0.4683 0.95519 0.0
H1502 H 0.78421 0.48097 0.89517 0.0
H1503 H 0.75692 0.44304 0.80548 0.0
H1504 H 0.76709 0.50377 0.64986 0.0
H1505 H 0.7761 0.48608 0.70602 0.0
H1506 H 0.76164 0.52333 0.80207 0.0
C1507 C 0.77166 0.46901 0.89959 0.0
C1508 C 0.75811 0.46055 0.80496 0.0
C1509 C 0.76801 0.46175 0.93393 0.0
C1510 C 0.75933 0.50939 0.6739 0.0
C1511 C 0.76437 0.49916 0.7059 0.0
C1512 C 0.76079 0.50579 0.80246 0.0
C1513 C 0.75867 0.46164 0.87155 0.0
C1514 C 0.75995 0.47242 0.83658 0.0
C1515 C 0.75413 0.50563 0.73737 0.0
C1516 C 0.75808 0.49403 0.77099 0.0
H1517 H 0.72678 0.42634 0.91748 0.0
H1518 H 0.73266 0.43966 0.85708 0.0
H1519 H 0.76283 0.50478 0.85878 0.0
H1520 H 0.72193 0.54563 0.70464 0.0
H1521 H 0.73083 0.52791 0.7603 0.0
C1522 C 0.50752 0.23872 0.31446 0.0
C1523 C 0.51879 0.25841 0.31834 0.0
C1524 C 0.49497 0.23487 0.28416 0.0
C1525 C 0.46645 0.26416 0.21344 0.0
H1526 H 0.47615 0.21337 0.15512 0.0
C1527 C 0.46628 0.24383 0.05852 0.0
C1528 C 0.44641 0.25276 0.04747 0.0
C1529 C 0.47054 0.24051 0.09433 0.0
C1530 C 0.4731 0.22753 0.17135 0.0
H1531 H 0.52619 0.28914 0.29282 0.0
H1532 H 0.50449 0.28235 0.24058 0.0
H1533 H 0.49278 0.21551 0.21392 0.0
H1534 H 0.41514 0.26456 0.06546 0.0
H1535 H 0.42279 0.25895 0.12839 0.0
H1536 H 0.4479 0.27681 0.17032 0.0
C1537 C 0.50505 0.27008 0.2611 0.0
C1538 C 0.48247 0.22866 0.20502 0.0
C1539 C 0.51766 0.27385 0.29098 0.0
C1540 C 0.43067 0.25779 0.0731 0.0
C1541 C 0.43501 0.25456 0.10909 0.0
C1542 C 0.45704 0.263 0.17992 0.0
C1543 C 0.49333 0.25074 0.25762 0.0
C1544 C 0.47995 0.24739 0.22565 0.0
C1545 C 0.45508 0.24608 0.12003 0.0
C1546 C 0.46102 0.24507 0.15798 0.0
H1547 H 0.50806 0.22649 0.33503 0.0
H1548 H 0.48617 0.21975 0.28184 0.0
H1549 H 0.46405 0.27866 0.22915 0.0
H1550 H 0.47874 0.23959 0.03953 0.0
H1551 H 0.48631 0.23432 0.10195 0.0
C1552 C 0.42321 0.18362 0.95524 0.0
C1553 C 0.41255 0.19856 0.93313 0.0
C1554 C 0.41221 0.16534 0.96778 0.0
C1555 C 0.38415 0.12609 0.98946 0.0
H1556 H 0.32712 0.14624 0.01738 0.0
C1557 C 0.31361 0.07259 0.04128 0.0
C1558 C 0.29801 0.08286 0.06255 0.0
C1559 C 0.33204 0.08393 0.03028 0.0
C1560 C 0.34312 0.1404 0.01038 0.0
H1561 H 0.3834 0.20473 0.90278 0.0
H1562 H 0.36457 0.17238 0.92324 0.0
H1563 H 0.35013 0.16955 0.98261 0.0
H1564 H 0.2907 0.11158 0.09317 0.0
H1565 H 0.32337 0.13097 0.0756 0.0
H1566 H 0.37687 0.09687 0.01807 0.0
C1567 C 0.38105 0.17515 0.93211 0.0
C1568 C 0.35616 0.15363 0.98965 0.0
C1569 C 0.39186 0.19356 0.92013 0.0
C1570 C 0.30244 0.10343 0.07648 0.0
C1571 C 0.32103 0.11457 0.06612 0.0
C1572 C 0.37094 0.1127 0.01033 0.0
C1573 C 0.39054 0.16171 0.95796 0.0
C1574 C 0.37674 0.14664 0.97865 0.0
C1575 C 0.33516 0.10555 0.04085 0.0
C1576 C 0.35029 0.1198 0.02109 0.0
H1577 H 0.43916 0.18718 0.96578 0.0
H1578 H 0.41999 0.15526 0.98756 0.0
H1579 H 0.40001 0.12034 0.98153 0.0
H1580 H 0.31046 0.05675 0.03002 0.0
H1581 H 0.34264 0.07649 0.0109 0.0
C1582 C 0.18541 0.57041 0.02799 0.0
C1583 C 0.20039 0.58401 0.04516 0.0
C1584 C 0.1652 0.57843 0.01748 0.0
C1585 C 0.12618 0.62311 0.02757 0.0
H1586 H 0.1226 0.62274 0.92488 0.0
C1587 C 0.06731 0.67917 0.95449 0.0
C1588 C 0.07941 0.69415 0.93462 0.0
C1589 C 0.07667 0.65958 0.9652 0.0
C1590 C 0.12309 0.62259 0.95358 0.0
H1591 H 0.20531 0.61596 0.06758 0.0
H1592 H 0.16976 0.62975 0.05018 0.0
H1593 H 0.14889 0.59935 0.95493 0.0
H1594 H 0.1098 0.69959 0.90735 0.0
H1595 H 0.12587 0.6651 0.92507 0.0
H1596 H 0.10119 0.64718 0.02615 0.0
C1597 C 0.17373 0.613 0.04449 0.0
C1598 C 0.13803 0.60917 0.97077 0.0
C1599 C 0.1941 0.60515 0.05431 0.0
C1600 C 0.10015 0.68832 0.92268 0.0
C1601 C 0.1093 0.66856 0.93273 0.0
C1602 C 0.11098 0.63623 0.01041 0.0
C1603 C 0.15947 0.59999 0.02477 0.0
C1604 C 0.14031 0.61001 0.00781 0.0
C1605 C 0.09803 0.65449 0.95544 0.0
C1606 C 0.10995 0.63674 0.97321 0.0
H1607 H 0.18988 0.55408 0.02037 0.0
H1608 H 0.15443 0.56812 0.00231 0.0
H1609 H 0.12766 0.62401 0.05614 0.0
H1610 H 0.05135 0.68335 0.96428 0.0
H1611 H 0.06768 0.64896 0.98269 0.0
C1612 C 0.68175 0.9326 0.02878 0.0
C1613 C 0.69561 0.91988 0.04991 0.0
C1614 C 0.66222 0.92408 0.01627 0.0
C1615 C 0.62314 0.87928 0.02349 0.0
H1616 H 0.62917 0.8743 0.92143 0.0
C1617 C 0.573 0.81814 0.94424 0.0
C1618 C 0.58723 0.80229 0.93096 0.0
C1619 C 0.58086 0.83849 0.9542 0.0
C1620 C 0.62695 0.87597 0.94977 0.0
H1621 H 0.69884 0.88931 0.07771 0.0
H1622 H 0.66444 0.87468 0.05664 0.0
H1623 H 0.65182 0.89997 0.95406 0.0
H1624 H 0.62021 0.79586 0.91439 0.0
H1625 H 0.63378 0.83167 0.9306 0.0
H1626 H 0.5991 0.85441 0.01937 0.0
C1627 C 0.6688 0.89109 0.0494 0.0
C1628 C 0.6398 0.89068 0.96843 0.0
C1629 C 0.68853 0.89942 0.06134 0.0
C1630 C 0.60893 0.8078 0.92456 0.0
C1631 C 0.61666 0.82829 0.93373 0.0
C1632 C 0.60999 0.86486 0.00474 0.0
C1633 C 0.65603 0.90294 0.02539 0.0
C1634 C 0.63866 0.89176 0.00559 0.0
C1635 C 0.60291 0.84342 0.95013 0.0
C1636 C 0.61248 0.86244 0.96794 0.0
H1637 H 0.68679 0.94841 0.01942 0.0
H1638 H 0.65257 0.93351 -0.00217 0.0
H1639 H 0.62203 0.87983 0.05213 0.0
H1640 H 0.55621 0.81424 0.94974 0.0
H1641 H 0.57 0.84992 0.96685 0.0
C1642 C 0.80826 0.39064 0.06511 0.0
C1643 C 0.80306 0.41242 0.0585 0.0
C1644 C 0.8288 0.38266 0.0568 0.0
C1645 C 0.86673 0.38946 0.98744 0.0
H1646 H 0.89961 0.34571 0.03807 0.0
C1647 C 0.89961 0.31093 0.92879 0.0
C1648 C 0.9197 0.30295 0.94047 0.0
C1649 C 0.89172 0.33064 0.94157 0.0
C1650 C 0.89096 0.35826 0.02376 0.0
H1651 H 0.81569 0.44332 0.04046 0.0
H1652 H 0.85147 0.42911 0.02494 0.0
H1653 H 0.87403 0.36867 0.07036 0.0
H1654 H 0.94801 0.31002 0.97264 0.0
H1655 H 0.93383 0.34423 -0.00424 0.0
H1656 H 0.88222 0.37773 0.94036 0.0
C1657 C 0.83972 0.41837 0.03698 0.0
C1658 C 0.87629 0.37129 0.04221 0.0
C1659 C 0.81929 0.42647 0.04602 0.0
C1660 C 0.9325 0.31582 0.96303 0.0
C1661 C 0.9244 0.33533 0.9764 0.0
C1662 C 0.88111 0.37617 0.9689 0.0
C1663 C 0.84434 0.39624 0.04113 0.0
C1664 C 0.8635 0.38645 0.02398 0.0
C1665 C 0.90362 0.34248 0.96673 0.0
C1666 C 0.89275 0.35995 0.98674 0.0
H1667 H 0.79605 0.3795 0.07477 0.0
H1668 H 0.83192 0.36549 0.06 0.0
H1669 H 0.85688 0.4009 0.97273 0.0
H1670 H 0.88945 0.30136 0.91138 0.0
H1671 H 0.87557 0.33573 0.93391 0.0
C1672 C 0.67741 0.06961 0.54188 0.0
C1673 C 0.6932 0.08248 0.55862 0.0
C1674 C 0.65762 0.07869 0.53149 0.0
C1675 C 0.62181 0.1264 0.53818 0.0
H1676 H 0.62081 0.12476 0.43535 0.0
C1677 C 0.56844 0.18468 0.45812 0.0
C1678 C 0.58171 0.19851 0.43794 0.0
C1679 C 0.57652 0.16499 0.47085 0.0
C1680 C 0.62059 0.12503 0.46406 0.0
H1681 H 0.69977 0.11407 0.58123 0.0
H1682 H 0.66498 0.12971 0.56408 0.0
H1683 H 0.64431 0.09981 0.46802 0.0
H1684 H 0.61299 0.20164 0.41239 0.0
H1685 H 0.62685 0.16694 0.43375 0.0
H1686 H 0.5989 0.15238 0.53411 0.0
C1687 C 0.66798 0.11274 0.55855 0.0
C1688 C 0.6339 0.1107 0.48277 0.0
C1689 C 0.68791 0.10382 0.5683 0.0
C1690 C 0.60243 0.19134 0.42794 0.0
C1691 C 0.61033 0.17146 0.44007 0.0
C1692 C 0.6082 0.14047 0.51949 0.0
C1693 C 0.65316 0.10059 0.53844 0.0
C1694 C 0.63526 0.11186 0.51991 0.0
C1695 C 0.59779 0.15859 0.4629 0.0
C1696 C 0.60814 0.14047 0.48223 0.0
H1697 H 0.68106 0.05315 0.53389 0.0
H1698 H 0.64639 0.069 0.51613 0.0
H1699 H 0.62263 0.12762 0.56679 0.0
H1700 H 0.55243 0.18979 0.46644 0.0
H1701 H 0.56655 0.15528 0.48833 0.0
C1702 C 0.10388 0.30416 0.42116 0.0
C1703 C 0.08236 0.29871 0.42921 0.0
C1704 C 0.11223 0.32425 0.43125 0.0
C1705 C 0.10888 0.35766 0.50641 0.0
H1706 H 0.14848 0.39536 0.45591 0.0
C1707 C 0.17972 0.42575 0.53324 0.0
C1708 C 0.1952 0.41232 0.54962 0.0
C1709 C 0.16006 0.41713 0.52143 0.0
C1710 C 0.13711 0.38529 0.47028 0.0
H1711 H 0.05222 0.31051 0.45169 0.0
H1712 H 0.06713 0.3454 0.47035 0.0
H1713 H 0.12459 0.37107 0.42259 0.0
H1714 H 0.20152 0.38002 0.56963 0.0
H1715 H 0.16676 0.36516 0.55025 0.0
H1716 H 0.12288 0.37038 0.55412 0.0
C1717 C 0.07734 0.33426 0.45574 0.0
C1718 C 0.12355 0.3714 0.45124 0.0
C1719 C 0.06883 0.31436 0.44488 0.0
C1720 C 0.18984 0.3907 0.55713 0.0
C1721 C 0.16997 0.38224 0.54612 0.0
C1722 C 0.12278 0.3712 0.52544 0.0
C1723 C 0.0993 0.33898 0.45019 0.0
C1724 C 0.1098 0.35704 0.46921 0.0
C1725 C 0.1554 0.39513 0.52675 0.0
C1726 C 0.13743 0.38464 0.5075 0.0
H1727 H 0.11462 0.29236 0.40915 0.0
H1728 H 0.12928 0.32749 0.42693 0.0
H1729 H 0.09859 0.34651 0.52083 0.0
H1730 H 0.18353 0.44243 0.52679 0.0
H1731 H 0.14904 0.42731 0.50647 0.0
C1732 C 0.42853 0.80937 0.46797 0.0
C1733 C 0.41617 0.79648 0.44481 0.0
C1734 C 0.42002 0.8287 0.48138 0.0
C1735 C 0.38626 0.85232 0.52741 0.0
H1736 H 0.35295 0.89458 0.47418 0.0
C1737 C 0.30453 0.88762 0.56853 0.0
C1738 C 0.29978 0.90934 0.56059 0.0
C1739 C 0.32474 0.87889 0.56003 0.0
C1740 C 0.36257 0.88324 0.48949 0.0
H1741 H 0.38617 0.79454 0.41508 0.0
H1742 H 0.37158 0.82861 0.43771 0.0
H1743 H 0.37806 0.87052 0.4431 0.0
H1744 H 0.31289 0.93938 0.53984 0.0
H1745 H 0.3481 0.92387 0.52411 0.0
H1746 H 0.36943 0.86384 0.5734 0.0
C1747 C 0.38771 0.82368 0.44577 0.0
C1748 C 0.37681 0.86943 0.47168 0.0
C1749 C 0.396 0.80415 0.43295 0.0
C1750 C 0.31615 0.9226 0.54643 0.0
C1751 C 0.33624 0.91374 0.53726 0.0
C1752 C 0.37174 0.86589 0.54514 0.0
C1753 C 0.39927 0.83566 0.47117 0.0
C1754 C 0.38822 0.85338 0.49035 0.0
C1755 C 0.3404 0.89164 0.54289 0.0
C1756 C 0.35924 0.88096 0.52615 0.0
H1757 H 0.44407 0.80378 0.47774 0.0
H1758 H 0.4292 0.83771 0.50093 0.0
H1759 H 0.39474 0.83994 0.54236 0.0
H1760 H 0.29222 0.87707 0.57951 0.0
H1761 H 0.32748 0.86175 0.56441 0.0
C1762 C 0.89792 0.68603 0.42451 0.0
C1763 C 0.91801 0.69341 0.43714 0.0
C1764 C 0.88986 0.66597 0.4353 0.0
C1765 C 0.88925 0.63554 0.51519 0.0
H1766 H 0.85246 0.59666 0.46141 0.0
C1767 C 0.81493 0.56998 0.53452 0.0
C1768 C 0.79992 0.58403 0.55064 0.0
C1769 C 0.83533 0.57757 0.52432 0.0
C1770 C 0.86305 0.60701 0.47684 0.0
H1771 H 0.94623 0.68489 0.46856 0.0
H1772 H 0.9318 0.64999 0.48813 0.0
H1773 H 0.87841 0.61979 0.43038 0.0
H1774 H 0.79515 0.61636 0.57167 0.0
H1775 H 0.83094 0.62946 0.55465 0.0
H1776 H 0.87261 0.62409 0.56136 0.0
C1777 C 0.92245 0.65967 0.46966 0.0
C1778 C 0.87779 0.62029 0.45906 0.0
C1779 C 0.93071 0.67958 0.45832 0.0
C1780 C 0.80636 0.60522 0.55916 0.0
C1781 C 0.82688 0.61266 0.54959 0.0
C1782 C 0.87429 0.62251 0.5329 0.0
C1783 C 0.90159 0.65312 0.45935 0.0
C1784 C 0.89041 0.63526 0.47799 0.0
C1785 C 0.84119 0.59918 0.53082 0.0
C1786 C 0.86048 0.60876 0.51373 0.0
H1787 H 0.88784 0.69633 0.40806 0.0
H1788 H 0.87365 0.66139 0.42714 0.0
H1789 H 0.89865 0.64709 0.5304 0.0
H1790 H 0.81039 0.55358 0.52748 0.0
H1791 H 0.84612 0.56689 0.5099 0.0
loop_
_geom_bond_atom_site_label_1
_geom_bond_atom_site_label_2
_geom_bond_distance
_geom_bond_site_symmetry_2
_ccdc_geom_bond_type
Sc0 O3 2.025 . S
Sc0 O10 2.105 . S
Sc0 O13 2.105 . S
Sc0 O16 2.105 . S
Sc0 O19 2.105 . S
Sc1 O3 2.025 . S
Sc1 O11 2.105 . S
Sc1 O15 2.105 1_554 S
Sc1 O17 2.105 . S
Sc1 O21 2.105 . S
Sc2 O3 2.025 . S
Sc2 O12 2.105 . S
Sc2 O14 2.105 . S
Sc2 O18 2.105 1_554 S
Sc2 O20 2.105 . S
O3 Sc0 2.025 . S
O3 Sc1 2.025 . S
O3 Sc2 2.025 . S
C4 O10 1.268 . S
C4 O20 1.268 . S
C5 O11 1.268 . S
C5 O19 1.268 . S
C6 O12 1.268 . S
C6 O21 1.268 . S
C7 O13 1.268 . S
C7 O17 1.268 . S
C8 O14 1.268 . S
C8 O16 1.268 . S
C9 O15 1.268 . S
C9 O18 1.268 . S
O10 Sc0 2.105 . S
O10 C4 1.268 . S
O11 Sc1 2.105 . S
O11 C5 1.268 . S
O12 Sc2 2.105 . S
O12 C6 1.268 . S
O13 Sc0 2.105 . S
O13 C7 1.268 . S
O14 Sc2 2.105 . S
O14 C8 1.268 . S
O15 Sc1 2.105 1_556 S
O15 C9 1.268 . S
O16 Sc0 2.105 . S
O16 C8 1.268 . S
O17 Sc1 2.105 . S
O17 C7 1.268 . S
O18 Sc2 2.105 1_556 S
O18 C9 1.268 . S
O19 Sc0 2.105 . S
O19 C5 1.268 . S
O20 Sc2 2.105 . S
O20 C4 1.268 . S
O21 Sc1 2.105 . S
O21 C6 1.268 . S
Sc22 O25 2.025 . S
Sc22 O32 2.105 . S
Sc22 O35 2.105 . S
Sc22 O38 2.105 . S
Sc22 O41 2.105 . S
Sc23 O25 2.025 . S
Sc23 O33 2.105 . S
Sc23 O37 2.105 . S
Sc23 O39 2.105 . S
Sc23 O43 2.105 1_556 S
Sc24 O25 2.025 . S
Sc24 O34 2.105 1_556 S
Sc24 O36 2.105 . S
Sc24 O40 2.105 . S
Sc24 O42 2.105 . S
O25 Sc22 2.025 . S
O25 Sc23 2.025 . S
O25 Sc24 2.025 . S
C26 O32 1.268 . S
C26 O42 1.268 . S
C27 O33 1.268 . S
C27 O41 1.268 . S
C28 O34 1.268 . S
C28 O43 1.268 . S
C29 O35 1.268 . S
C29 O39 1.268 . S
C30 O36 1.268 . S
C30 O38 1.268 . S
C31 O37 1.268 . S
C31 O40 1.268 . S
O32 Sc22 2.105 . S
O32 C26 1.268 . S
O33 Sc23 2.105 . S
O33 C27 1.268 . S
O34 Sc24 2.105 1_554 S
O34 C28 1.268 . S
O35 Sc22 2.105 . S
O35 C29 1.268 . S
O36 Sc24 2.105 . S
O36 C30 1.268 . S
O37 Sc23 2.105 . S
O37 C31 1.268 . S
O38 Sc22 2.105 . S
O38 C30 1.268 . S
O39 Sc23 2.105 . S
O39 C29 1.268 . S
O40 Sc24 2.105 . S
O40 C31 1.268 . S
O41 Sc22 2.105 . S
O41 C27 1.268 . S
O42 Sc24 2.105 . S
O42 C26 1.268 . S
O43 Sc23 2.105 1_554 S
O43 C28 1.268 . S
Sc44 O47 2.025 . S
Sc44 O54 2.105 . S
Sc44 O57 2.105 . S
Sc44 O60 2.105 . S
Sc44 O63 2.105 1_554 S
Sc45 O47 2.025 . S
Sc45 O55 2.105 1_554 S
Sc45 O59 2.105 . S
Sc45 O61 2.105 . S
Sc45 O65 2.105 . S
Sc46 O47 2.025 . S
Sc46 O56 2.105 . S
Sc46 O58 2.105 . S
Sc46 O62 2.105 . S
Sc46 O64 2.105 . S
O47 Sc44 2.025 . S
O47 Sc45 2.025 . S
O47 Sc46 2.025 . S
C48 O54 1.268 . S
C48 O64 1.268 . S
C49 O55 1.268 . S
C49 O63 1.268 . S
C50 O56 1.268 . S
C50 O65 1.268 . S
C51 O57 1.268 . S
C51 O61 1.268 . S
C52 O58 1.268 . S
C52 O60 1.268 . S
C53 O59 1.268 . S
C53 O62 1.268 . S
O54 Sc44 2.105 . S
O54 C48 1.268 . S
O55 Sc45 2.105 1_556 S
O55 C49 1.268 . S
O56 Sc46 2.105 . S
O56 C50 1.268 . S
O57 Sc44 2.105 . S
O57 C51 1.268 . S
O58 Sc46 2.105 . S
O58 C52 1.268 . S
O59 Sc45 2.105 . S
O59 C53 1.268 . S
O60 Sc44 2.105 . S
O60 C52 1.268 . S
O61 Sc45 2.105 . S
O61 C51 1.268 . S
O62 Sc46 2.105 . S
O62 C53 1.268 . S
O63 Sc44 2.105 1_556 S
O63 C49 1.268 . S
O64 Sc46 2.105 . S
O64 C48 1.268 . S
O65 Sc45 2.105 . S
O65 C50 1.268 . S
Sc66 O69 2.025 . S
Sc66 O76 2.105 . S
Sc66 O79 2.105 1_556 S
Sc66 O82 2.105 . S
Sc66 O85 2.105 . S
Sc67 O69 2.025 . S
Sc67 O77 2.105 . S
Sc67 O81 2.105 . S
Sc67 O83 2.105 1_556 S
Sc67 O87 2.105 . S
Sc68 O69 2.025 . S
Sc68 O78 2.105 . S
Sc68 O80 2.105 . S
Sc68 O84 2.105 . S
Sc68 O86 2.105 . S
O69 Sc66 2.025 . S
O69 Sc67 2.025 . S
O69 Sc68 2.025 . S
C70 O76 1.268 . S
C70 O86 1.268 . S
C71 O77 1.268 . S
C71 O85 1.268 . S
C72 O78 1.268 . S
C72 O87 1.268 . S
C73 O79 1.268 . S
C73 O83 1.268 . S
C74 O80 1.268 . S
C74 O82 1.268 . S
C75 O81 1.268 . S
C75 O84 1.268 . S
O76 Sc66 2.105 . S
O76 C70 1.268 . S
O77 Sc67 2.105 . S
O77 C71 1.268 . S
O78 Sc68 2.105 . S
O78 C72 1.268 . S
O79 Sc66 2.105 1_554 S
O79 C73 1.268 . S
O80 Sc68 2.105 . S
O80 C74 1.268 . S
O81 Sc67 2.105 . S
O81 C75 1.268 . S
O82 Sc66 2.105 . S
O82 C74 1.268 . S
O83 Sc67 2.105 1_554 S
O83 C73 1.268 . S
O84 Sc68 2.105 . S
O84 C75 1.268 . S
O85 Sc66 2.105 . S
O85 C71 1.268 . S
O86 Sc68 2.105 . S
O86 C70 1.268 . S
O87 Sc67 2.105 . S
O87 C72 1.268 . S
Sc88 O91 2.025 . S
Sc88 O98 2.105 . S
Sc88 O101 2.105 . S
Sc88 O104 2.105 . S
Sc88 O107 2.105 . S
Sc89 O91 2.025 . S
Sc89 O99 2.105 . S
Sc89 O103 2.105 . S
Sc89 O105 2.105 . S
Sc89 O109 2.105 . S
Sc90 O91 2.025 . S
Sc90 O100 2.105 . S
Sc90 O102 2.105 . S
Sc90 O106 2.105 . S
Sc90 O108 2.105 . S
O91 Sc88 2.025 . S
O91 Sc89 2.025 . S
O91 Sc90 2.025 . S
C92 O98 1.268 . S
C92 O108 1.268 . S
C93 O99 1.268 . S
C93 O107 1.268 . S
C94 O100 1.268 . S
C94 O109 1.268 . S
C95 O101 1.268 . S
C95 O105 1.268 . S
C96 O102 1.268 . S
C96 O104 1.268 . S
C97 O103 1.268 . S
C97 O106 1.268 . S
O98 Sc88 2.105 . S
O98 C92 1.268 . S
O99 Sc89 2.105 . S
O99 C93 1.268 . S
O100 Sc90 2.105 . S
O100 C94 1.268 . S
O101 Sc88 2.105 . S
O101 C95 1.268 . S
O102 Sc90 2.105 . S
O102 C96 1.268 . S
O103 Sc89 2.105 . S
O103 C97 1.268 . S
O104 Sc88 2.105 . S
O104 C96 1.268 . S
O105 Sc89 2.105 . S
O105 C95 1.268 . S
O106 Sc90 2.105 . S
O106 C97 1.268 . S
O107 Sc88 2.105 . S
O107 C93 1.268 . S
O108 Sc90 2.105 . S
O108 C92 1.268 . S
O109 Sc89 2.105 . S
O109 C94 1.268 . S
Sc110 O113 2.025 . S
Sc110 O120 2.105 . S
Sc110 O123 2.105 . S
Sc110 O126 2.105 . S
Sc110 O129 2.105 . S
Sc111 O113 2.025 . S
Sc111 O121 2.105 . S
Sc111 O125 2.105 . S
Sc111 O127 2.105 . S
Sc111 O131 2.105 . S
Sc112 O113 2.025 . S
Sc112 O122 2.105 . S
Sc112 O124 2.105 . S
Sc112 O128 2.105 . S
Sc112 O130 2.105 . S
O113 Sc110 2.025 . S
O113 Sc111 2.025 . S
O113 Sc112 2.025 . S
C114 O120 1.268 . S
C114 O130 1.268 . S
C115 O121 1.268 . S
C115 O129 1.268 . S
C116 O122 1.268 . S
C116 O131 1.268 . S
C117 O123 1.268 . S
C117 O127 1.268 . S
C118 O124 1.268 . S
C118 O126 1.268 . S
C119 O125 1.268 . S
C119 O128 1.268 . S
O120 Sc110 2.105 . S
O120 C114 1.268 . S
O121 Sc111 2.105 . S
O121 C115 1.268 . S
O122 Sc112 2.105 . S
O122 C116 1.268 . S
O123 Sc110 2.105 . S
O123 C117 1.268 . S
O124 Sc112 2.105 . S
O124 C118 1.268 . S
O125 Sc111 2.105 . S
O125 C119 1.268 . S
O126 Sc110 2.105 . S
O126 C118 1.268 . S
O127 Sc111 2.105 . S
O127 C117 1.268 . S
O128 Sc112 2.105 . S
O128 C119 1.268 . S
O129 Sc110 2.105 . S
O129 C115 1.268 . S
O130 Sc112 2.105 . S
O130 C114 1.268 . S
O131 Sc111 2.105 . S
O131 C116 1.268 . S
Sc132 O135 2.025 . S
Sc132 O142 2.105 . S
Sc132 O145 2.105 . S
Sc132 O148 2.105 . S
Sc132 O151 2.105 . S
Sc133 O135 2.025 . S
Sc133 O143 2.105 . S
Sc133 O147 2.105 . S
Sc133 O149 2.105 . S
Sc133 O153 2.105 . S
Sc134 O135 2.025 . S
Sc134 O144 2.105 . S
Sc134 O146 2.105 . S
Sc134 O150 2.105 . S
Sc134 O152 2.105 . S
O135 Sc132 2.025 . S
O135 Sc133 2.025 . S
O135 Sc134 2.025 . S
C136 O142 1.268 . S
C136 O152 1.268 . S
C137 O143 1.268 . S
C137 O151 1.268 . S
C138 O144 1.268 . S
C138 O153 1.268 . S
C139 O145 1.268 . S
C139 O149 1.268 . S
C140 O146 1.268 . S
C140 O148 1.268 . S
C141 O147 1.268 . S
C141 O150 1.268 . S
O142 Sc132 2.105 . S
O142 C136 1.268 . S
O143 Sc133 2.105 . S
O143 C137 1.268 . S
O144 Sc134 2.105 . S
O144 C138 1.268 . S
O145 Sc132 2.105 . S
O145 C139 1.268 . S
O146 Sc134 2.105 . S
O146 C140 1.268 . S
O147 Sc133 2.105 . S
O147 C141 1.268 . S
O148 Sc132 2.105 . S
O148 C140 1.268 . S
O149 Sc133 2.105 . S
O149 C139 1.268 . S
O150 Sc134 2.105 . S
O150 C141 1.268 . S
O151 Sc132 2.105 . S
O151 C137 1.268 . S
O152 Sc134 2.105 . S
O152 C136 1.268 . S
O153 Sc133 2.105 . S
O153 C138 1.268 . S
Sc154 O157 2.025 . S
Sc154 O164 2.105 . S
Sc154 O167 2.105 . S
Sc154 O170 2.105 . S
Sc154 O173 2.105 . S
Sc155 O157 2.025 . S
Sc155 O165 2.105 . S
Sc155 O169 2.105 . S
Sc155 O171 2.105 . S
Sc155 O175 2.105 . S
Sc156 O157 2.025 . S
Sc156 O166 2.105 . S
Sc156 O168 2.105 . S
Sc156 O172 2.105 . S
Sc156 O174 2.105 . S
O157 Sc154 2.025 . S
O157 Sc155 2.025 . S
O157 Sc156 2.025 . S
C158 O164 1.268 . S
C158 O174 1.268 . S
C159 O165 1.268 . S
C159 O173 1.268 . S
C160 O166 1.268 . S
C160 O175 1.268 . S
C161 O167 1.268 . S
C161 O171 1.268 . S
C162 O168 1.268 . S
C162 O170 1.268 . S
C163 O169 1.268 . S
C163 O172 1.268 . S
O164 Sc154 2.105 . S
O164 C158 1.268 . S
O165 Sc155 2.105 . S
O165 C159 1.268 . S
O166 Sc156 2.105 . S
O166 C160 1.268 . S
O167 Sc154 2.105 . S
O167 C161 1.268 . S
O168 Sc156 2.105 . S
O168 C162 1.268 . S
O169 Sc155 2.105 . S
O169 C163 1.268 . S
O170 Sc154 2.105 . S
O170 C162 1.268 . S
O171 Sc155 2.105 . S
O171 C161 1.268 . S
O172 Sc156 2.105 . S
O172 C163 1.268 . S
O173 Sc154 2.105 . S
O173 C159 1.268 . S
O174 Sc156 2.105 . S
O174 C158 1.268 . S
O175 Sc155 2.105 . S
O175 C160 1.268 . S
Sc176 O179 2.025 . S
Sc176 O186 2.105 . S
Sc176 O189 2.105 . S
Sc176 O192 2.105 . S
Sc176 O195 2.105 . S
Sc177 O179 2.025 . S
Sc177 O187 2.105 . S
Sc177 O191 2.105 . S
Sc177 O193 2.105 . S
Sc177 O197 2.105 . S
Sc178 O179 2.025 . S
Sc178 O188 2.105 . S
Sc178 O190 2.105 . S
Sc178 O194 2.105 . S
Sc178 O196 2.105 . S
O179 Sc176 2.025 . S
O179 Sc177 2.025 . S
O179 Sc178 2.025 . S
C180 O186 1.268 . S
C180 O196 1.268 . S
C181 O187 1.268 . S
C181 O195 1.268 . S
C182 O188 1.268 . S
C182 O197 1.268 . S
C183 O189 1.268 . S
C183 O193 1.268 . S
C184 O190 1.268 . S
C184 O192 1.268 . S
C185 O191 1.268 . S
C185 O194 1.268 . S
O186 Sc176 2.105 . S
O186 C180 1.268 . S
O187 Sc177 2.105 . S
O187 C181 1.268 . S
O188 Sc178 2.105 . S
O188 C182 1.268 . S
O189 Sc176 2.105 . S
O189 C183 1.268 . S
O190 Sc178 2.105 . S
O190 C184 1.268 . S
O191 Sc177 2.105 . S
O191 C185 1.268 . S
O192 Sc176 2.105 . S
O192 C184 1.268 . S
O193 Sc177 2.105 . S
O193 C183 1.268 . S
O194 Sc178 2.105 . S
O194 C185 1.268 . S
O195 Sc176 2.105 . S
O195 C181 1.268 . S
O196 Sc178 2.105 . S
O196 C180 1.268 . S
O197 Sc177 2.105 . S
O197 C182 1.268 . S
Sc198 O201 2.025 . S
Sc198 O208 2.105 . S
Sc198 O211 2.105 . S
Sc198 O214 2.105 . S
Sc198 O217 2.105 . S
Sc199 O201 2.025 . S
Sc199 O209 2.105 . S
Sc199 O213 2.105 . S
Sc199 O215 2.105 . S
Sc199 O219 2.105 . S
Sc200 O201 2.025 . S
Sc200 O210 2.105 . S
Sc200 O212 2.105 . S
Sc200 O216 2.105 . S
Sc200 O218 2.105 . S
O201 Sc198 2.025 . S
O201 Sc199 2.025 . S
O201 Sc200 2.025 . S
C202 O208 1.268 . S
C202 O218 1.268 . S
C203 O209 1.268 . S
C203 O217 1.268 . S
C204 O210 1.268 . S
C204 O219 1.268 . S
C205 O211 1.268 . S
C205 O215 1.268 . S
C206 O212 1.268 . S
C206 O214 1.268 . S
C207 O213 1.268 . S
C207 O216 1.268 . S
O208 Sc198 2.105 . S
O208 C202 1.268 . S
O209 Sc199 2.105 . S
O209 C203 1.268 . S
O210 Sc200 2.105 . S
O210 C204 1.268 . S
O211 Sc198 2.105 . S
O211 C205 1.268 . S
O212 Sc200 2.105 . S
O212 C206 1.268 . S
O213 Sc199 2.105 . S
O213 C207 1.268 . S
O214 Sc198 2.105 . S
O214 C206 1.268 . S
O215 Sc199 2.105 . S
O215 C205 1.268 . S
O216 Sc200 2.105 . S
O216 C207 1.268 . S
O217 Sc198 2.105 . S
O217 C203 1.268 . S
O218 Sc200 2.105 . S
O218 C202 1.268 . S
O219 Sc199 2.105 . S
O219 C204 1.268 . S
Sc220 O223 2.025 . S
Sc220 O230 2.105 . S
Sc220 O233 2.105 . S
Sc220 O236 2.105 . S
Sc220 O239 2.105 . S
Sc221 O223 2.025 . S
Sc221 O231 2.105 . S
Sc221 O235 2.105 . S
Sc221 O237 2.105 . S
Sc221 O241 2.105 . S
Sc222 O223 2.025 . S
Sc222 O232 2.105 . S
Sc222 O234 2.105 . S
Sc222 O238 2.105 . S
Sc222 O240 2.105 . S
O223 Sc220 2.025 . S
O223 Sc221 2.025 . S
O223 Sc222 2.025 . S
C224 O230 1.268 . S
C224 O240 1.268 . S
C225 O231 1.268 . S
C225 O239 1.268 . S
C226 O232 1.268 . S
C226 O241 1.268 . S
C227 O233 1.268 . S
C227 O237 1.268 . S
C228 O234 1.268 . S
C228 O236 1.268 . S
C229 O235 1.268 . S
C229 O238 1.268 . S
O230 Sc220 2.105 . S
O230 C224 1.268 . S
O231 Sc221 2.105 . S
O231 C225 1.268 . S
O232 Sc222 2.105 . S
O232 C226 1.268 . S
O233 Sc220 2.105 . S
O233 C227 1.268 . S
O234 Sc222 2.105 . S
O234 C228 1.268 . S
O235 Sc221 2.105 . S
O235 C229 1.268 . S
O236 Sc220 2.105 . S
O236 C228 1.268 . S
O237 Sc221 2.105 . S
O237 C227 1.268 . S
O238 Sc222 2.105 . S
O238 C229 1.268 . S
O239 Sc220 2.105 . S
O239 C225 1.268 . S
O240 Sc222 2.105 . S
O240 C224 1.268 . S
O241 Sc221 2.105 . S
O241 C226 1.268 . S
Sc242 O245 2.025 . S
Sc242 O252 2.105 . S
Sc242 O255 2.105 . S
Sc242 O258 2.105 . S
Sc242 O261 2.105 . S
Sc243 O245 2.025 . S
Sc243 O253 2.105 . S
Sc243 O257 2.105 . S
Sc243 O259 2.105 . S
Sc243 O263 2.105 . S
Sc244 O245 2.025 . S
Sc244 O254 2.105 . S
Sc244 O256 2.105 . S
Sc244 O260 2.105 . S
Sc244 O262 2.105 . S
O245 Sc242 2.025 . S
O245 Sc243 2.025 . S
O245 Sc244 2.025 . S
C246 O252 1.268 . S
C246 O262 1.268 . S
C247 O253 1.268 . S
C247 O261 1.268 . S
C248 O254 1.268 . S
C248 O263 1.268 . S
C249 O255 1.268 . S
C249 O259 1.268 . S
C250 O256 1.268 . S
C250 O258 1.268 . S
C251 O257 1.268 . S
C251 O260 1.268 . S
O252 Sc242 2.105 . S
O252 C246 1.268 . S
O253 Sc243 2.105 . S
O253 C247 1.268 . S
O254 Sc244 2.105 . S
O254 C248 1.268 . S
O255 Sc242 2.105 . S
O255 C249 1.268 . S
O256 Sc244 2.105 . S
O256 C250 1.268 . S
O257 Sc243 2.105 . S
O257 C251 1.268 . S
O258 Sc242 2.105 . S
O258 C250 1.268 . S
O259 Sc243 2.105 . S
O259 C249 1.268 . S
O260 Sc244 2.105 . S
O260 C251 1.268 . S
O261 Sc242 2.105 . S
O261 C247 1.268 . S
O262 Sc244 2.105 . S
O262 C246 1.268 . S
O263 Sc243 2.105 . S
O263 C248 1.268 . S
Sc264 O267 2.025 . S
Sc264 O274 2.105 . S
Sc264 O277 2.105 1_554 S
Sc264 O280 2.105 . S
Sc264 O283 2.105 . S
Sc265 O267 2.025 . S
Sc265 O275 2.105 . S
Sc265 O279 2.105 . S
Sc265 O281 2.105 1_554 S
Sc265 O285 2.105 . S
Sc266 O267 2.025 . S
Sc266 O276 2.105 . S
Sc266 O278 2.105 . S
Sc266 O282 2.105 . S
Sc266 O284 2.105 . S
O267 Sc264 2.025 . S
O267 Sc265 2.025 . S
O267 Sc266 2.025 . S
C268 O274 1.268 . S
C268 O284 1.268 . S
C269 O275 1.268 . S
C269 O283 1.268 . S
C270 O276 1.268 . S
C270 O285 1.268 . S
C271 O277 1.268 . S
C271 O281 1.268 . S
C272 O278 1.268 . S
C272 O280 1.268 . S
C273 O279 1.268 . S
C273 O282 1.268 . S
O274 Sc264 2.105 . S
O274 C268 1.268 . S
O275 Sc265 2.105 . S
O275 C269 1.268 . S
O276 Sc266 2.105 . S
O276 C270 1.268 . S
O277 Sc264 2.105 1_556 S
O277 C271 1.268 . S
O278 Sc266 2.105 . S
O278 C272 1.268 . S
O279 Sc265 2.105 . S
O279 C273 1.268 . S
O280 Sc264 2.105 . S
O280 C272 1.268 . S
O281 Sc265 2.105 1_556 S
O281 C271 1.268 . S
O282 Sc266 2.105 . S
O282 C273 1.268 . S
O283 Sc264 2.105 . S
O283 C269 1.268 . S
O284 Sc266 2.105 . S
O284 C268 1.268 . S
O285 Sc265 2.105 . S
O285 C270 1.268 . S
Sc286 O289 2.025 . S
Sc286 O296 2.105 . S
Sc286 O299 2.105 . S
Sc286 O302 2.105 . S
Sc286 O305 2.105 . S
Sc287 O289 2.025 . S
Sc287 O297 2.105 . S
Sc287 O301 2.105 1_556 S
Sc287 O303 2.105 . S
Sc287 O307 2.105 . S
Sc288 O289 2.025 . S
Sc288 O298 2.105 . S
Sc288 O300 2.105 . S
Sc288 O304 2.105 1_556 S
Sc288 O306 2.105 . S
O289 Sc286 2.025 . S
O289 Sc287 2.025 . S
O289 Sc288 2.025 . S
C290 O296 1.268 . S
C290 O306 1.268 . S
C291 O297 1.268 . S
C291 O305 1.268 . S
C292 O298 1.268 . S
C292 O307 1.268 . S
C293 O299 1.268 . S
C293 O303 1.268 . S
C294 O300 1.268 . S
C294 O302 1.268 . S
C295 O301 1.268 . S
C295 O304 1.268 . S
O296 Sc286 2.105 . S
O296 C290 1.268 . S
O297 Sc287 2.105 . S
O297 C291 1.268 . S
O298 Sc288 2.105 . S
O298 C292 1.268 . S
O299 Sc286 2.105 . S
O299 C293 1.268 . S
O300 Sc288 2.105 . S
O300 C294 1.268 . S
O301 Sc287 2.105 1_554 S
O301 C295 1.268 . S
O302 Sc286 2.105 . S
O302 C294 1.268 . S
O303 Sc287 2.105 . S
O303 C293 1.268 . S
O304 Sc288 2.105 1_554 S
O304 C295 1.268 . S
O305 Sc286 2.105 . S
O305 C291 1.268 . S
O306 Sc288 2.105 . S
O306 C290 1.268 . S
O307 Sc287 2.105 . S
O307 C292 1.268 . S
Sc308 O311 2.025 . S
Sc308 O318 2.105 . S
Sc308 O321 2.105 . S
Sc308 O324 2.105 . S
Sc308 O327 2.105 . S
Sc309 O311 2.025 . S
Sc309 O319 2.105 . S
Sc309 O323 2.105 . S
Sc309 O325 2.105 . S
Sc309 O329 2.105 1_554 S
Sc310 O311 2.025 . S
Sc310 O320 2.105 1_554 S
Sc310 O322 2.105 . S
Sc310 O326 2.105 . S
Sc310 O328 2.105 . S
O311 Sc308 2.025 . S
O311 Sc309 2.025 . S
O311 Sc310 2.025 . S
C312 O318 1.268 . S
C312 O328 1.268 . S
C313 O319 1.268 . S
C313 O327 1.268 . S
C314 O320 1.268 . S
C314 O329 1.268 . S
C315 O321 1.268 . S
C315 O325 1.268 . S
C316 O322 1.268 . S
C316 O324 1.268 . S
C317 O323 1.268 . S
C317 O326 1.268 . S
O318 Sc308 2.105 . S
O318 C312 1.268 . S
O319 Sc309 2.105 . S
O319 C313 1.268 . S
O320 Sc310 2.105 1_556 S
O320 C314 1.268 . S
O321 Sc308 2.105 . S
O321 C315 1.268 . S
O322 Sc310 2.105 . S
O322 C316 1.268 . S
O323 Sc309 2.105 . S
O323 C317 1.268 . S
O324 Sc308 2.105 . S
O324 C316 1.268 . S
O325 Sc309 2.105 . S
O325 C315 1.268 . S
O326 Sc310 2.105 . S
O326 C317 1.268 . S
O327 Sc308 2.105 . S
O327 C313 1.268 . S
O328 Sc310 2.105 . S
O328 C312 1.268 . S
O329 Sc309 2.105 1_556 S
O329 C314 1.268 . S
Sc330 O333 2.025 . S
Sc330 O340 2.105 . S
Sc330 O343 2.105 . S
Sc330 O346 2.105 . S
Sc330 O349 2.105 1_556 S
Sc331 O333 2.025 . S
Sc331 O341 2.105 1_556 S
Sc331 O345 2.105 . S
Sc331 O347 2.105 . S
Sc331 O351 2.105 . S
Sc332 O333 2.025 . S
Sc332 O342 2.105 . S
Sc332 O344 2.105 . S
Sc332 O348 2.105 . S
Sc332 O350 2.105 . S
O333 Sc330 2.025 . S
O333 Sc331 2.025 . S
O333 Sc332 2.025 . S
C334 O340 1.268 . S
C334 O350 1.268 . S
C335 O341 1.268 . S
C335 O349 1.268 . S
C336 O342 1.268 . S
C336 O351 1.268 . S
C337 O343 1.268 . S
C337 O347 1.268 . S
C338 O344 1.268 . S
C338 O346 1.268 . S
C339 O345 1.268 . S
C339 O348 1.268 . S
O340 Sc330 2.105 . S
O340 C334 1.268 . S
O341 Sc331 2.105 1_554 S
O341 C335 1.268 . S
O342 Sc332 2.105 . S
O342 C336 1.268 . S
O343 Sc330 2.105 . S
O343 C337 1.268 . S
O344 Sc332 2.105 . S
O344 C338 1.268 . S
O345 Sc331 2.105 . S
O345 C339 1.268 . S
O346 Sc330 2.105 . S
O346 C338 1.268 . S
O347 Sc331 2.105 . S
O347 C337 1.268 . S
O348 Sc332 2.105 . S
O348 C339 1.268 . S
O349 Sc330 2.105 1_554 S
O349 C335 1.268 . S
O350 Sc332 2.105 . S
O350 C334 1.268 . S
O351 Sc331 2.105 . S
O351 C336 1.268 . S
C352 C353 1.349 . S
C352 C354 1.327 . S
C352 H377 0.950 . S
C353 C352 1.349 . S
C353 C369 1.349 . S
C354 C352 1.327 . S
C354 C373 1.429 . S
C354 H378 0.950 . S
C355 C372 1.574 . S
C355 C374 1.368 . S
C355 H379 0.949 . S
H356 C360 0.949 . S
C357 C358 1.349 . S
C357 C359 1.327 . S
C357 H380 0.950 . S
C358 C357 1.349 . S
C358 C370 1.349 . S
C359 C357 1.327 . S
C359 C375 1.429 . S
C359 H381 0.950 . S
C360 H356 0.949 . S
C360 C368 1.574 . S
C360 C376 1.368 . S
H361 C369 0.950 . S
H362 C367 0.950 . S
H363 C368 0.949 . S
H364 C370 0.950 . S
H365 C371 0.950 . S
H366 C372 0.949 . S
C367 H362 0.950 . S
C367 C369 1.327 . S
C367 C373 1.429 . S
C368 C360 1.574 . S
C368 H363 0.949 . S
C368 C374 1.368 . S
C369 C353 1.349 . S
C369 H361 0.950 . S
C369 C367 1.327 . S
C370 C358 1.349 . S
C370 H364 0.950 . S
C370 C371 1.327 . S
C371 H365 0.950 . S
C371 C370 1.327 . S
C371 C375 1.429 . S
C372 C355 1.574 . S
C372 H366 0.949 . S
C372 C376 1.368 . S
C373 C354 1.429 . S
C373 C367 1.429 . S
C373 C374 1.523 . S
C374 C355 1.368 . S
C374 C368 1.368 . S
C374 C373 1.523 . S
C375 C359 1.429 . S
C375 C371 1.429 . S
C375 C376 1.523 . S
C376 C360 1.368 . S
C376 C372 1.368 . S
C376 C375 1.523 . S
H377 C352 0.950 . S
H378 C354 0.950 . S
H379 C355 0.949 . S
H380 C357 0.950 . S
H381 C359 0.950 . S
C382 C383 1.349 . S
C382 C384 1.327 . S
C382 H407 0.950 . S
C383 C382 1.349 . S
C383 C399 1.349 . S
C384 C382 1.327 . S
C384 C403 1.429 . S
C384 H408 0.950 . S
C385 C402 1.574 . S
C385 C404 1.368 . S
C385 H409 0.949 . S
H386 C390 0.949 . S
C387 C388 1.349 . S
C387 C389 1.327 . S
C387 H410 0.950 . S
C388 C387 1.349 . S
C388 C400 1.349 . S
C389 C387 1.327 . S
C389 C405 1.429 . S
C389 H411 0.950 . S
C390 H386 0.949 . S
C390 C398 1.574 . S
C390 C406 1.368 . S
H391 C399 0.950 . S
H392 C397 0.950 . S
H393 C398 0.949 . S
H394 C400 0.950 . S
H395 C401 0.950 . S
H396 C402 0.949 . S
C397 H392 0.950 . S
C397 C399 1.327 . S
C397 C403 1.429 . S
C398 C390 1.574 . S
C398 H393 0.949 . S
C398 C404 1.368 . S
C399 C383 1.349 . S
C399 H391 0.950 . S
C399 C397 1.327 . S
C400 C388 1.349 . S
C400 H394 0.950 . S
C400 C401 1.327 . S
C401 H395 0.950 . S
C401 C400 1.327 . S
C401 C405 1.429 . S
C402 C385 1.574 . S
C402 H396 0.949 . S
C402 C406 1.368 . S
C403 C384 1.429 . S
C403 C397 1.429 . S
C403 C404 1.523 . S
C404 C385 1.368 . S
C404 C398 1.368 . S
C404 C403 1.523 . S
C405 C389 1.429 . S
C405 C401 1.429 . S
C405 C406 1.523 . S
C406 C390 1.368 . S
C406 C402 1.368 . S
C406 C405 1.523 . S
H407 C382 0.950 . S
H408 C384 0.950 . S
H409 C385 0.949 . S
H410 C387 0.950 . S
H411 C389 0.950 . S
C412 C413 1.349 . S
C412 C414 1.327 . S
C412 H437 0.950 . S
C413 C412 1.349 . S
C413 C429 1.349 . S
C414 C412 1.327 . S
C414 C433 1.429 . S
C414 H438 0.950 . S
C415 C432 1.574 . S
C415 C434 1.368 . S
C415 H439 0.949 . S
H416 C420 0.949 . S
C417 C418 1.349 . S
C417 C419 1.327 . S
C417 H440 0.950 . S
C418 C417 1.349 . S
C418 C430 1.349 . S
C419 C417 1.327 . S
C419 C435 1.429 . S
C419 H441 0.950 . S
C420 H416 0.949 . S
C420 C428 1.574 . S
C420 C436 1.368 . S
H421 C429 0.950 . S
H422 C427 0.950 . S
H423 C428 0.949 . S
H424 C430 0.950 . S
H425 C431 0.950 . S
H426 C432 0.949 . S
C427 H422 0.950 . S
C427 C429 1.327 . S
C427 C433 1.429 . S
C428 C420 1.574 . S
C428 H423 0.949 . S
C428 C434 1.368 . S
C429 C413 1.349 . S
C429 H421 0.950 . S
C429 C427 1.327 . S
C430 C418 1.349 . S
C430 H424 0.950 . S
C430 C431 1.327 . S
C431 H425 0.950 . S
C431 C430 1.327 . S
C431 C435 1.429 . S
C432 C415 1.574 . S
C432 H426 0.949 . S
C432 C436 1.368 . S
C433 C414 1.429 . S
C433 C427 1.429 . S
C433 C434 1.523 . S
C434 C415 1.368 . S
C434 C428 1.368 . S
C434 C433 1.523 . S
C435 C419 1.429 . S
C435 C431 1.429 . S
C435 C436 1.523 . S
C436 C420 1.368 . S
C436 C432 1.368 . S
C436 C435 1.523 . S
H437 C412 0.950 . S
H438 C414 0.950 . S
H439 C415 0.949 . S
H440 C417 0.950 . S
H441 C419 0.950 . S
C442 C443 1.349 . S
C442 C444 1.327 . S
C442 H467 0.950 . S
C443 C442 1.349 . S
C443 C459 1.349 . S
C444 C442 1.327 . S
C444 C463 1.429 . S
C444 H468 0.950 . S
C445 C462 1.574 . S
C445 C464 1.368 . S
C445 H469 0.949 . S
H446 C450 0.949 . S
C447 C448 1.349 . S
C447 C449 1.327 . S
C447 H470 0.950 . S
C448 C447 1.349 . S
C448 C460 1.349 . S
C449 C447 1.327 . S
C449 C465 1.429 . S
C449 H471 0.950 . S
C450 H446 0.949 . S
C450 C458 1.574 . S
C450 C466 1.368 . S
H451 C459 0.950 . S
H452 C457 0.950 . S
H453 C458 0.949 . S
H454 C460 0.950 . S
H455 C461 0.950 . S
H456 C462 0.949 . S
C457 H452 0.950 . S
C457 C459 1.327 . S
C457 C463 1.429 . S
C458 C450 1.574 . S
C458 H453 0.949 . S
C458 C464 1.368 . S
C459 C443 1.349 . S
C459 H451 0.950 . S
C459 C457 1.327 . S
C460 C448 1.349 . S
C460 H454 0.950 . S
C460 C461 1.327 . S
C461 H455 0.950 . S
C461 C460 1.327 . S
C461 C465 1.429 . S
C462 C445 1.574 . S
C462 H456 0.949 . S
C462 C466 1.368 . S
C463 C444 1.429 . S
C463 C457 1.429 . S
C463 C464 1.523 . S
C464 C445 1.368 . S
C464 C458 1.368 . S
C464 C463 1.523 . S
C465 C449 1.429 . S
C465 C461 1.429 . S
C465 C466 1.523 . S
C466 C450 1.368 . S
C466 C462 1.368 . S
C466 C465 1.523 . S
H467 C442 0.950 . S
H468 C444 0.950 . S
H469 C445 0.949 . S
H470 C447 0.950 . S
H471 C449 0.950 . S
C472 C473 1.349 . S
C472 C474 1.327 . S
C472 H497 0.950 . S
C473 C472 1.349 . S
C473 C489 1.349 . S
C474 C472 1.327 . S
C474 C493 1.429 . S
C474 H498 0.950 . S
C475 C492 1.574 . S
C475 C494 1.368 . S
C475 H499 0.949 . S
H476 C480 0.949 . S
C477 C478 1.349 . S
C477 C479 1.327 . S
C477 H500 0.950 . S
C478 C477 1.349 . S
C478 C490 1.349 . S
C479 C477 1.327 . S
C479 C495 1.429 . S
C479 H501 0.950 . S
C480 H476 0.949 . S
C480 C488 1.574 . S
C480 C496 1.368 . S
H481 C489 0.950 . S
H482 C487 0.950 . S
H483 C488 0.949 . S
H484 C490 0.950 . S
H485 C491 0.950 . S
H486 C492 0.949 . S
C487 H482 0.950 . S
C487 C489 1.327 . S
C487 C493 1.429 . S
C488 C480 1.574 . S
C488 H483 0.949 . S
C488 C494 1.368 . S
C489 C473 1.349 . S
C489 H481 0.950 . S
C489 C487 1.327 . S
C490 C478 1.349 . S
C490 H484 0.950 . S
C490 C491 1.327 . S
C491 H485 0.950 . S
C491 C490 1.327 . S
C491 C495 1.429 . S
C492 C475 1.574 . S
C492 H486 0.949 . S
C492 C496 1.368 . S
C493 C474 1.429 . S
C493 C487 1.429 . S
C493 C494 1.523 . S
C494 C475 1.368 . S
C494 C488 1.368 . S
C494 C493 1.523 . S
C495 C479 1.429 . S
C495 C491 1.429 . S
C495 C496 1.523 . S
C496 C480 1.368 . S
C496 C492 1.368 . S
C496 C495 1.523 . S
H497 C472 0.950 . S
H498 C474 0.950 . S
H499 C475 0.949 . S
H500 C477 0.950 . S
H501 C479 0.950 . S
C502 C503 1.349 . S
C502 C504 1.327 . S
C502 H527 0.950 . S
C503 C502 1.349 . S
C503 C519 1.349 . S
C504 C502 1.327 . S
C504 C523 1.429 . S
C504 H528 0.950 . S
C505 C522 1.574 . S
C505 C524 1.368 . S
C505 H529 0.949 . S
H506 C510 0.949 . S
C507 C508 1.349 . S
C507 C509 1.327 . S
C507 H530 0.950 . S
C508 C507 1.349 . S
C508 C520 1.349 . S
C509 C507 1.327 . S
C509 C525 1.429 . S
C509 H531 0.950 . S
C510 H506 0.949 . S
C510 C518 1.574 . S
C510 C526 1.368 . S
H511 C519 0.950 . S
H512 C517 0.950 . S
H513 C518 0.949 . S
H514 C520 0.950 . S
H515 C521 0.950 . S
H516 C522 0.949 . S
C517 H512 0.950 . S
C517 C519 1.327 . S
C517 C523 1.429 . S
C518 C510 1.574 . S
C518 H513 0.949 . S
C518 C524 1.368 . S
C519 C503 1.349 . S
C519 H511 0.950 . S
C519 C517 1.327 . S
C520 C508 1.349 . S
C520 H514 0.950 . S
C520 C521 1.327 . S
C521 H515 0.950 . S
C521 C520 1.327 . S
C521 C525 1.429 . S
C522 C505 1.574 . S
C522 H516 0.949 . S
C522 C526 1.368 . S
C523 C504 1.429 . S
C523 C517 1.429 . S
C523 C524 1.523 . S
C524 C505 1.368 . S
C524 C518 1.368 . S
C524 C523 1.523 . S
C525 C509 1.429 . S
C525 C521 1.429 . S
C525 C526 1.523 . S
C526 C510 1.368 . S
C526 C522 1.368 . S
C526 C525 1.523 . S
H527 C502 0.950 . S
H528 C504 0.950 . S
H529 C505 0.949 . S
H530 C507 0.950 . S
H531 C509 0.950 . S
C532 C533 1.349 . S
C532 C534 1.327 . S
C532 H557 0.950 . S
C533 C532 1.349 . S
C533 C549 1.349 . S
C534 C532 1.327 . S
C534 C553 1.429 . S
C534 H558 0.950 . S
C535 C552 1.574 . S
C535 C554 1.368 . S
C535 H559 0.949 . S
H536 C540 0.949 . S
C537 C538 1.349 . S
C537 C539 1.327 . S
C537 H560 0.950 . S
C538 C537 1.349 . S
C538 C550 1.349 . S
C539 C537 1.327 . S
C539 C555 1.429 . S
C539 H561 0.950 . S
C540 H536 0.949 . S
C540 C548 1.574 . S
C540 C556 1.368 . S
H541 C549 0.950 . S
H542 C547 0.950 . S
H543 C548 0.949 . S
H544 C550 0.950 . S
H545 C551 0.950 . S
H546 C552 0.949 . S
C547 H542 0.950 . S
C547 C549 1.327 . S
C547 C553 1.429 . S
C548 C540 1.574 . S
C548 H543 0.949 . S
C548 C554 1.368 . S
C549 C533 1.349 . S
C549 H541 0.950 . S
C549 C547 1.327 . S
C550 C538 1.349 . S
C550 H544 0.950 . S
C550 C551 1.327 . S
C551 H545 0.950 . S
C551 C550 1.327 . S
C551 C555 1.429 . S
C552 C535 1.574 . S
C552 H546 0.949 . S
C552 C556 1.368 . S
C553 C534 1.429 . S
C553 C547 1.429 . S
C553 C554 1.523 . S
C554 C535 1.368 . S
C554 C548 1.368 . S
C554 C553 1.523 . S
C555 C539 1.429 . S
C555 C551 1.429 . S
C555 C556 1.523 . S
C556 C540 1.368 . S
C556 C552 1.368 . S
C556 C555 1.523 . S
H557 C532 0.950 . S
H558 C534 0.950 . S
H559 C535 0.949 . S
H560 C537 0.950 . S
H561 C539 0.950 . S
C562 C563 1.349 . S
C562 C564 1.327 . S
C562 H587 0.950 . S
C563 C562 1.349 . S
C563 C579 1.349 . S
C564 C562 1.327 . S
C564 C583 1.429 . S
C564 H588 0.950 . S
C565 C582 1.574 . S
C565 C584 1.368 . S
C565 H589 0.949 . S
H566 C570 0.949 . S
C567 C568 1.349 . S
C567 C569 1.327 . S
C567 H590 0.950 . S
C568 C567 1.349 . S
C568 C580 1.349 . S
C569 C567 1.327 . S
C569 C585 1.429 . S
C569 H591 0.950 . S
C570 H566 0.949 . S
C570 C578 1.574 . S
C570 C586 1.368 . S
H571 C579 0.950 . S
H572 C577 0.950 . S
H573 C578 0.949 . S
H574 C580 0.950 . S
H575 C581 0.950 . S
H576 C582 0.949 . S
C577 H572 0.950 . S
C577 C579 1.327 . S
C577 C583 1.429 . S
C578 C570 1.574 . S
C578 H573 0.949 . S
C578 C584 1.368 . S
C579 C563 1.349 . S
C579 H571 0.950 . S
C579 C577 1.327 . S
C580 C568 1.349 . S
C580 H574 0.950 . S
C580 C581 1.327 . S
C581 H575 0.950 . S
C581 C580 1.327 . S
C581 C585 1.429 . S
C582 C565 1.574 . S
C582 H576 0.949 . S
C582 C586 1.368 . S
C583 C564 1.429 . S
C583 C577 1.429 . S
C583 C584 1.523 . S
C584 C565 1.368 . S
C584 C578 1.368 . S
C584 C583 1.523 . S
C585 C569 1.429 . S
C585 C581 1.429 . S
C585 C586 1.523 . S
C586 C570 1.368 . S
C586 C582 1.368 . S
C586 C585 1.523 . S
H587 C562 0.950 . S
H588 C564 0.950 . S
H589 C565 0.949 . S
H590 C567 0.950 . S
H591 C569 0.950 . S
C592 C593 1.349 . S
C592 C594 1.327 . S
C592 H617 0.984 . S
C593 C592 1.349 . S
C593 C609 1.349 . S
C594 C592 1.327 . S
C594 C613 1.429 . S
C594 H618 0.950 . S
C595 C612 1.574 . S
C595 C614 1.368 1_556 S
C595 H619 0.949 . S
H596 C600 0.949 . S
C597 C598 1.349 . S
C597 C599 1.327 . S
C597 H620 0.950 . S
C598 C597 1.349 . S
C598 C610 1.349 1_556 S
C599 C597 1.327 . S
C599 C615 1.429 . S
C599 H621 0.950 . S
C600 H596 0.949 . S
C600 C608 1.574 . S
C600 C616 1.368 . S
H601 C609 0.950 1_556 S
H602 C607 0.950 1_556 S
H603 C608 0.949 . S
H604 C610 0.950 . S
H605 C611 0.950 . S
H606 C612 0.949 . S
C607 H602 0.950 1_554 S
C607 C609 1.327 . S
C607 C613 1.429 . S
C608 C600 1.574 . S
C608 H603 0.949 . S
C608 C614 1.368 . S
C609 C593 1.349 . S
C609 H601 0.950 1_554 S
C609 C607 1.327 . S
C610 C598 1.349 1_554 S
C610 H604 0.950 . S
C610 C611 1.327 . S
C611 H605 0.950 . S
C611 C610 1.327 . S
C611 C615 1.429 1_554 S
C612 C595 1.574 . S
C612 H606 0.949 . S
C612 C616 1.368 1_556 S
C613 C594 1.429 . S
C613 C607 1.429 . S
C613 C614 1.523 . S
C614 C595 1.368 1_554 S
C614 C608 1.368 . S
C614 C613 1.523 . S
C615 C599 1.429 . S
C615 C611 1.429 1_556 S
C615 C616 1.523 1_556 S
C616 C600 1.368 . S
C616 C612 1.368 1_554 S
C616 C615 1.523 1_554 S
H617 C592 0.984 . S
H618 C594 0.950 . S
H619 C595 0.949 . S
H620 C597 0.950 . S
H621 C599 0.950 . S
C622 C623 1.349 1_556 S
C622 C624 1.327 . S
C622 H647 0.950 . S
C623 C622 1.349 1_554 S
C623 C639 1.349 . S
C624 C622 1.327 . S
C624 C643 1.429 1_556 S
C624 H648 0.950 . S
C625 C642 1.574 . S
C625 C644 1.368 1_554 S
C625 H649 0.949 . S
H626 C630 0.949 . S
C627 C628 1.349 . S
C627 C629 1.327 . S
C627 H650 0.950 . S
C628 C627 1.349 . S
C628 C640 1.349 . S
C629 C627 1.327 . S
C629 C645 1.429 . S
C629 H651 0.950 1_556 S
C630 H626 0.949 . S
C630 C638 1.574 . S
C630 C646 1.368 . S
H631 C639 0.950 . S
H632 C637 0.950 . S
H633 C638 0.949 . S
H634 C640 0.950 1_455 S
H635 C641 0.950 . S
H636 C642 0.949 . S
C637 H632 0.950 . S
C637 C639 1.327 . S
C637 C643 1.429 . S
C638 C630 1.574 . S
C638 H633 0.949 . S
C638 C644 1.368 . S
C639 C623 1.349 . S
C639 H631 0.950 . S
C639 C637 1.327 . S
C640 C628 1.349 . S
C640 H634 0.950 1_655 S
C640 C641 1.327 . S
C641 H635 0.950 . S
C641 C640 1.327 . S
C641 C645 1.429 . S
C642 C625 1.574 . S
C642 H636 0.949 . S
C642 C646 1.368 1_554 S
C643 C624 1.429 1_554 S
C643 C637 1.429 . S
C643 C644 1.523 1_554 S
C644 C625 1.368 1_556 S
C644 C638 1.368 . S
C644 C643 1.523 1_556 S
C645 C629 1.429 . S
C645 C641 1.429 . S
C645 C646 1.523 . S
C646 C630 1.368 . S
C646 C642 1.368 1_556 S
C646 C645 1.523 . S
H647 C622 0.950 . S
H648 C624 0.950 . S
H649 C625 0.949 . S
H650 C627 0.950 . S
H651 C629 0.950 1_554 S
C652 C653 1.349 . S
C652 C654 1.327 . S
C652 H677 0.950 . S
C653 C652 1.349 . S
C653 C669 1.349 . S
C654 C652 1.327 . S
C654 C673 1.429 . S
C654 H678 0.950 . S
C655 C672 1.574 . S
C655 C674 1.368 . S
C655 H679 0.949 . S
H656 C660 0.947 1_556 S
C657 C658 1.349 . S
C657 C659 1.327 . S
C657 H680 0.950 . S
C658 C657 1.349 . S
C658 C670 1.349 . S
C659 C657 1.327 . S
C659 C675 1.429 . S
C659 H681 0.950 . S
C660 H656 0.947 1_554 S
C660 C668 1.574 1_554 S
C660 C676 1.368 . S
H661 C669 0.950 . S
H662 C667 0.950 . S
H663 C668 0.949 . S
H664 C670 0.950 1_565 S
H665 C671 0.950 . S
H666 C672 0.949 . S
C667 H662 0.950 . S
C667 C669 1.327 1_554 S
C667 C673 1.429 1_554 S
C668 C660 1.574 1_556 S
C668 H663 0.949 . S
C668 C674 1.368 1_556 S
C669 C653 1.349 . S
C669 H661 0.950 . S
C669 C667 1.327 1_556 S
C670 C658 1.349 . S
C670 H664 0.950 1_545 S
C670 C671 1.327 . S
C671 H665 0.950 . S
C671 C670 1.327 . S
C671 C675 1.429 . S
C672 C655 1.574 . S
C672 H666 0.949 . S
C672 C676 1.368 . S
C673 C654 1.429 . S
C673 C667 1.429 1_556 S
C673 C674 1.523 1_556 S
C674 C655 1.368 . S
C674 C668 1.368 1_554 S
C674 C673 1.523 1_554 S
C675 C659 1.429 . S
C675 C671 1.429 . S
C675 C676 1.523 . S
C676 C660 1.368 . S
C676 C672 1.368 . S
C676 C675 1.523 . S
H677 C652 0.950 . S
H678 C654 0.950 . S
H679 C655 0.949 . S
H680 C657 0.950 . S
H681 C659 0.950 . S
C682 C683 1.349 . S
C682 C684 1.327 . S
C682 H707 0.950 . S
C683 C682 1.349 . S
C683 C699 1.349 . S
C684 C682 1.327 . S
C684 C703 1.429 . S
C684 H708 0.950 . S
C685 C702 1.574 . S
C685 C704 1.368 1_554 S
C685 H709 0.949 . S
H686 C690 0.949 . S
C687 C688 1.349 . S
C687 C689 1.327 . S
C687 H710 0.950 . S
C688 C687 1.349 . S
C688 C700 1.349 1_554 S
C689 C687 1.327 . S
C689 C705 1.429 . S
C689 H711 0.950 . S
C690 H686 0.949 . S
C690 C698 1.574 . S
C690 C706 1.368 . S
H691 C699 0.950 1_554 S
H692 C697 0.959 . S
H693 C698 0.949 . S
H694 C700 0.950 . S
H695 C701 0.950 . S
H696 C702 0.949 . S
C697 H692 0.959 . S
C697 C699 1.325 1_554 S
C697 C703 1.422 1_554 S
C698 C690 1.574 . S
C698 H693 0.949 . S
C698 C704 1.368 . S
C699 C683 1.349 . S
C699 H691 0.950 1_556 S
C699 C697 1.325 1_556 S
C700 C688 1.349 1_556 S
C700 H694 0.950 . S
C700 C701 1.327 . S
C701 H695 0.950 . S
C701 C700 1.327 . S
C701 C705 1.429 1_556 S
C702 C685 1.574 . S
C702 H696 0.949 . S
C702 C706 1.368 1_554 S
C703 C684 1.429 . S
C703 C697 1.422 1_556 S
C703 C704 1.523 . S
C704 C685 1.368 1_556 S
C704 C698 1.368 . S
C704 C703 1.523 . S
C705 C689 1.429 . S
C705 C701 1.429 1_554 S
C705 C706 1.523 1_554 S
C706 C690 1.368 . S
C706 C702 1.368 1_556 S
C706 C705 1.523 1_556 S
H707 C682 0.950 . S
H708 C684 0.950 . S
H709 C685 0.949 . S
H710 C687 0.950 . S
H711 C689 0.950 . S
C712 C713 1.349 . S
C712 C714 1.327 . S
C712 H737 0.950 1_565 S
C713 C712 1.349 . S
C713 C729 1.349 . S
C714 C712 1.327 . S
C714 C733 1.429 . S
C714 H738 0.950 . S
C715 C732 1.574 . S
C715 C734 1.368 . S
C715 H739 0.949 . S
H716 C720 0.949 . S
C717 C718 1.349 . S
C717 C719 1.327 . S
C717 H740 0.950 . S
C718 C717 1.349 . S
C718 C730 1.349 . S
C719 C717 1.327 . S
C719 C735 1.429 . S
C719 H741 0.950 . S
C720 H716 0.949 . S
C720 C728 1.574 . S
C720 C736 1.368 . S
H721 C729 0.950 . S
H722 C727 0.950 . S
H723 C728 0.949 . S
H724 C730 0.950 . S
H725 C731 0.950 . S
H726 C732 0.949 . S
C727 H722 0.950 . S
C727 C729 1.327 . S
C727 C733 1.429 . S
C728 C720 1.574 . S
C728 H723 0.949 . S
C728 C734 1.368 . S
C729 C713 1.349 . S
C729 H721 0.950 . S
C729 C727 1.327 . S
C730 C718 1.349 . S
C730 H724 0.950 . S
C730 C731 1.327 . S
C731 H725 0.950 . S
C731 C730 1.327 . S
C731 C735 1.429 . S
C732 C715 1.574 . S
C732 H726 0.949 . S
C732 C736 1.368 . S
C733 C714 1.429 . S
C733 C727 1.429 . S
C733 C734 1.523 . S
C734 C715 1.368 . S
C734 C728 1.368 . S
C734 C733 1.523 . S
C735 C719 1.429 . S
C735 C731 1.429 . S
C735 C736 1.523 . S
C736 C720 1.368 . S
C736 C732 1.368 . S
C736 C735 1.523 . S
H737 C712 0.950 1_545 S
H738 C714 0.950 . S
H739 C715 0.949 . S
H740 C717 0.950 . S
H741 C719 0.950 . S
C742 C743 1.349 . S
C742 C744 1.327 . S
C742 H767 0.950 . S
C743 C742 1.349 . S
C743 C759 1.349 . S
C744 C742 1.327 . S
C744 C763 1.429 . S
C744 H768 0.950 . S
C745 C762 1.574 . S
C745 C764 1.368 . S
C745 H769 0.949 . S
H746 C750 0.949 . S
C747 C748 1.349 . S
C747 C749 1.327 . S
C747 H770 0.950 . S
C748 C747 1.349 . S
C748 C760 1.349 . S
C749 C747 1.327 . S
C749 C765 1.429 . S
C749 H771 0.950 . S
C750 H746 0.949 . S
C750 C758 1.574 . S
C750 C766 1.368 . S
H751 C759 0.950 . S
H752 C757 0.950 . S
H753 C758 0.949 . S
H754 C760 0.950 1_455 S
H755 C761 0.950 . S
H756 C762 0.949 . S
C757 H752 0.950 . S
C757 C759 1.327 . S
C757 C763 1.429 . S
C758 C750 1.574 . S
C758 H753 0.949 . S
C758 C764 1.368 . S
C759 C743 1.349 . S
C759 H751 0.950 . S
C759 C757 1.327 . S
C760 C748 1.349 . S
C760 H754 0.950 1_655 S
C760 C761 1.327 . S
C761 H755 0.950 . S
C761 C760 1.327 . S
C761 C765 1.429 . S
C762 C745 1.574 . S
C762 H756 0.949 . S
C762 C766 1.368 . S
C763 C744 1.429 . S
C763 C757 1.429 . S
C763 C764 1.523 . S
C764 C745 1.368 . S
C764 C758 1.368 . S
C764 C763 1.523 . S
C765 C749 1.429 . S
C765 C761 1.429 . S
C765 C766 1.523 . S
C766 C750 1.368 . S
C766 C762 1.368 . S
C766 C765 1.523 . S
H767 C742 0.950 . S
H768 C744 0.950 . S
H769 C745 0.949 . S
H770 C747 0.950 . S
H771 C749 0.950 . S
C772 C773 1.349 . S
C772 C774 1.327 . S
C772 H797 0.950 . S
C773 C772 1.349 . S
C773 C789 1.349 . S
C774 C772 1.327 . S
C774 C793 1.429 . S
C774 H798 0.950 . S
C775 C792 1.574 . S
C775 C794 1.368 . S
C775 H799 0.949 . S
H776 C780 0.949 . S
C777 C778 1.349 . S
C777 C779 1.327 . S
C777 H800 0.950 1_545 S
C778 C777 1.349 . S
C778 C790 1.349 . S
C779 C777 1.327 . S
C779 C795 1.429 . S
C779 H801 0.950 . S
C780 H776 0.949 . S
C780 C788 1.574 . S
C780 C796 1.368 . S
H781 C789 0.950 . S
H782 C787 0.950 . S
H783 C788 0.949 . S
H784 C790 0.950 . S
H785 C791 0.950 . S
H786 C792 0.949 . S
C787 H782 0.950 . S
C787 C789 1.327 . S
C787 C793 1.429 . S
C788 C780 1.574 . S
C788 H783 0.949 . S
C788 C794 1.368 . S
C789 C773 1.349 . S
C789 H781 0.950 . S
C789 C787 1.327 . S
C790 C778 1.349 . S
C790 H784 0.950 . S
C790 C791 1.327 . S
C791 H785 0.950 . S
C791 C790 1.327 . S
C791 C795 1.429 . S
C792 C775 1.574 . S
C792 H786 0.949 . S
C792 C796 1.368 . S
C793 C774 1.429 . S
C793 C787 1.429 . S
C793 C794 1.523 . S
C794 C775 1.368 . S
C794 C788 1.368 . S
C794 C793 1.523 . S
C795 C779 1.429 . S
C795 C791 1.429 . S
C795 C796 1.523 . S
C796 C780 1.368 . S
C796 C792 1.368 . S
C796 C795 1.523 . S
H797 C772 0.950 . S
H798 C774 0.950 . S
H799 C775 0.949 . S
H800 C777 0.950 1_565 S
H801 C779 0.950 . S
C802 C803 1.349 . S
C802 C804 1.327 . S
C802 H827 0.950 . S
C803 C802 1.349 . S
C803 C819 1.349 . S
C804 C802 1.327 . S
C804 C823 1.429 . S
C804 H828 0.950 . S
C805 C822 1.574 . S
C805 C824 1.368 . S
C805 H829 0.949 . S
H806 C810 0.949 . S
C807 C808 1.349 . S
C807 C809 1.327 . S
C807 H830 0.950 . S
C808 C807 1.349 . S
C808 C820 1.349 . S
C809 C807 1.327 . S
C809 C825 1.429 . S
C809 H831 0.950 . S
C810 H806 0.949 . S
C810 C818 1.574 . S
C810 C826 1.368 . S
H811 C819 0.950 . S
H812 C817 0.950 . S
H813 C818 0.949 . S
H814 C820 0.950 . S
H815 C821 0.950 . S
H816 C822 0.949 . S
C817 H812 0.950 . S
C817 C819 1.327 . S
C817 C823 1.429 . S
C818 C810 1.574 . S
C818 H813 0.949 . S
C818 C824 1.368 . S
C819 C803 1.349 . S
C819 H811 0.950 . S
C819 C817 1.327 . S
C820 C808 1.349 . S
C820 H814 0.950 . S
C820 C821 1.327 . S
C821 H815 0.950 . S
C821 C820 1.327 . S
C821 C825 1.429 . S
C822 C805 1.574 . S
C822 H816 0.949 . S
C822 C826 1.368 . S
C823 C804 1.429 . S
C823 C817 1.429 . S
C823 C824 1.523 . S
C824 C805 1.368 . S
C824 C818 1.368 . S
C824 C823 1.523 . S
C825 C809 1.429 . S
C825 C821 1.429 . S
C825 C826 1.523 . S
C826 C810 1.368 . S
C826 C822 1.368 . S
C826 C825 1.523 . S
H827 C802 0.950 . S
H828 C804 0.950 . S
H829 C805 0.949 . S
H830 C807 0.950 . S
H831 C809 0.950 . S
C832 C833 1.349 . S
C832 C834 1.327 . S
C832 H857 0.950 . S
C833 C832 1.349 . S
C833 C849 1.349 . S
C834 C832 1.327 . S
C834 C853 1.429 . S
C834 H858 0.950 . S
C835 C852 1.574 . S
C835 C854 1.368 . S
C835 H859 0.949 . S
H836 C840 0.949 . S
C837 C838 1.349 . S
C837 C839 1.327 . S
C837 H860 0.950 . S
C838 C837 1.349 . S
C838 C850 1.349 . S
C839 C837 1.327 . S
C839 C855 1.429 . S
C839 H861 0.950 . S
C840 H836 0.949 . S
C840 C848 1.574 . S
C840 C856 1.368 . S
H841 C849 0.950 . S
H842 C847 0.950 . S
H843 C848 0.949 . S
H844 C850 0.950 . S
H845 C851 0.950 . S
H846 C852 0.949 . S
C847 H842 0.950 . S
C847 C849 1.327 . S
C847 C853 1.429 . S
C848 C840 1.574 . S
C848 H843 0.949 . S
C848 C854 1.368 . S
C849 C833 1.349 . S
C849 H841 0.950 . S
C849 C847 1.327 . S
C850 C838 1.349 . S
C850 H844 0.950 . S
C850 C851 1.327 . S
C851 H845 0.950 . S
C851 C850 1.327 . S
C851 C855 1.429 . S
C852 C835 1.574 . S
C852 H846 0.949 . S
C852 C856 1.368 . S
C853 C834 1.429 . S
C853 C847 1.429 . S
C853 C854 1.523 . S
C854 C835 1.368 . S
C854 C848 1.368 . S
C854 C853 1.523 . S
C855 C839 1.429 . S
C855 C851 1.429 . S
C855 C856 1.523 . S
C856 C840 1.368 . S
C856 C852 1.368 . S
C856 C855 1.523 . S
H857 C832 0.950 . S
H858 C834 0.950 . S
H859 C835 0.949 . S
H860 C837 0.950 . S
H861 C839 0.950 . S
C862 C863 1.349 . S
C862 C864 1.327 . S
C862 H887 0.950 . S
C863 C862 1.349 . S
C863 C879 1.349 . S
C864 C862 1.327 . S
C864 C883 1.429 . S
C864 H888 0.950 . S
C865 C882 1.574 . S
C865 C884 1.368 . S
C865 H889 0.949 . S
H866 C870 0.949 . S
C867 C868 1.349 . S
C867 C869 1.327 . S
C867 H890 0.950 . S
C868 C867 1.349 . S
C868 C880 1.349 . S
C869 C867 1.327 . S
C869 C885 1.429 . S
C869 H891 0.950 . S
C870 H866 0.949 . S
C870 C878 1.574 . S
C870 C886 1.368 . S
H871 C879 0.950 . S
H872 C877 0.950 . S
H873 C878 0.949 . S
H874 C880 0.950 . S
H875 C881 0.950 . S
H876 C882 0.949 . S
C877 H872 0.950 . S
C877 C879 1.327 . S
C877 C883 1.429 . S
C878 C870 1.574 . S
C878 H873 0.949 . S
C878 C884 1.368 . S
C879 C863 1.349 . S
C879 H871 0.950 . S
C879 C877 1.327 . S
C880 C868 1.349 . S
C880 H874 0.950 . S
C880 C881 1.327 . S
C881 H875 0.950 . S
C881 C880 1.327 . S
C881 C885 1.429 . S
C882 C865 1.574 . S
C882 H876 0.949 . S
C882 C886 1.368 . S
C883 C864 1.429 . S
C883 C877 1.429 . S
C883 C884 1.523 . S
C884 C865 1.368 . S
C884 C878 1.368 . S
C884 C883 1.523 . S
C885 C869 1.429 . S
C885 C881 1.429 . S
C885 C886 1.523 . S
C886 C870 1.368 . S
C886 C882 1.368 . S
C886 C885 1.523 . S
H887 C862 0.950 . S
H888 C864 0.950 . S
H889 C865 0.949 . S
H890 C867 0.950 . S
H891 C869 0.950 . S
C892 C893 1.349 . S
C892 C894 1.327 . S
C892 H917 0.950 . S
C893 C892 1.349 . S
C893 C909 1.349 . S
C894 C892 1.327 . S
C894 C913 1.429 . S
C894 H918 0.950 . S
C895 C912 1.574 . S
C895 C914 1.368 . S
C895 H919 0.949 . S
H896 C900 0.949 . S
C897 C898 1.349 . S
C897 C899 1.327 . S
C897 H920 0.950 . S
C898 C897 1.349 . S
C898 C910 1.349 . S
C899 C897 1.327 . S
C899 C915 1.429 . S
C899 H921 0.950 . S
C900 H896 0.949 . S
C900 C908 1.574 . S
C900 C916 1.368 . S
H901 C909 0.950 . S
H902 C907 0.950 . S
H903 C908 0.949 . S
H904 C910 0.950 . S
H905 C911 0.950 . S
H906 C912 0.949 . S
C907 H902 0.950 . S
C907 C909 1.327 . S
C907 C913 1.429 . S
C908 C900 1.574 . S
C908 H903 0.949 . S
C908 C914 1.368 . S
C909 C893 1.349 . S
C909 H901 0.950 . S
C909 C907 1.327 . S
C910 C898 1.349 . S
C910 H904 0.950 . S
C910 C911 1.327 . S
C911 H905 0.950 . S
C911 C910 1.327 . S
C911 C915 1.429 . S
C912 C895 1.574 . S
C912 H906 0.949 . S
C912 C916 1.368 . S
C913 C894 1.429 . S
C913 C907 1.429 . S
C913 C914 1.523 . S
C914 C895 1.368 . S
C914 C908 1.368 . S
C914 C913 1.523 . S
C915 C899 1.429 . S
C915 C911 1.429 . S
C915 C916 1.523 . S
C916 C900 1.368 . S
C916 C912 1.368 . S
C916 C915 1.523 . S
H917 C892 0.950 . S
H918 C894 0.950 . S
H919 C895 0.949 . S
H920 C897 0.950 . S
H921 C899 0.950 . S
C922 C923 1.349 . S
C922 C924 1.327 . S
C922 H947 0.950 . S
C923 C922 1.349 . S
C923 C939 1.349 . S
C924 C922 1.327 . S
C924 C943 1.429 . S
C924 H948 0.950 . S
C925 C942 1.574 . S
C925 C944 1.368 . S
C925 H949 0.949 . S
H926 C930 0.949 . S
C927 C928 1.349 . S
C927 C929 1.327 . S
C927 H950 0.950 . S
C928 C927 1.349 . S
C928 C940 1.349 . S
C929 C927 1.327 . S
C929 C945 1.429 . S
C929 H951 0.950 . S
C930 H926 0.949 . S
C930 C938 1.574 . S
C930 C946 1.368 . S
H931 C939 0.950 . S
H932 C937 0.950 . S
H933 C938 0.949 . S
H934 C940 0.950 . S
H935 C941 0.950 . S
H936 C942 0.949 . S
C937 H932 0.950 . S
C937 C939 1.327 . S
C937 C943 1.429 . S
C938 C930 1.574 . S
C938 H933 0.949 . S
C938 C944 1.368 . S
C939 C923 1.349 . S
C939 H931 0.950 . S
C939 C937 1.327 . S
C940 C928 1.349 . S
C940 H934 0.950 . S
C940 C941 1.327 . S
C941 H935 0.950 . S
C941 C940 1.327 . S
C941 C945 1.429 . S
C942 C925 1.574 . S
C942 H936 0.949 . S
C942 C946 1.368 . S
C943 C924 1.429 . S
C943 C937 1.429 . S
C943 C944 1.523 . S
C944 C925 1.368 . S
C944 C938 1.368 . S
C944 C943 1.523 . S
C945 C929 1.429 . S
C945 C941 1.429 . S
C945 C946 1.523 . S
C946 C930 1.368 . S
C946 C942 1.368 . S
C946 C945 1.523 . S
H947 C922 0.950 . S
H948 C924 0.950 . S
H949 C925 0.949 . S
H950 C927 0.950 . S
H951 C929 0.950 . S
C952 C953 1.349 1_554 S
C952 C954 1.327 . S
C952 H977 0.950 . S
C953 C952 1.349 1_556 S
C953 C969 1.349 . S
C954 C952 1.327 . S
C954 C973 1.429 1_554 S
C954 H978 0.950 . S
C955 C972 1.574 . S
C955 C974 1.368 1_556 S
C955 H979 0.949 . S
H956 C960 0.949 . S
C957 C958 1.349 . S
C957 C959 1.327 . S
C957 H980 0.950 1_554 S
C958 C957 1.349 . S
C958 C970 1.349 . S
C959 C957 1.327 . S
C959 C975 1.429 . S
C959 H981 0.950 1_554 S
C960 H956 0.949 . S
C960 C968 1.574 . S
C960 C976 1.368 . S
H961 C969 0.950 . S
H962 C967 0.950 . S
H963 C968 0.949 . S
H964 C970 0.950 . S
H965 C971 0.950 . S
H966 C972 0.949 . S
C967 H962 0.950 . S
C967 C969 1.327 . S
C967 C973 1.429 . S
C968 C960 1.574 . S
C968 H963 0.949 . S
C968 C974 1.368 . S
C969 C953 1.349 . S
C969 H961 0.950 . S
C969 C967 1.327 . S
C970 C958 1.349 . S
C970 H964 0.950 . S
C970 C971 1.327 . S
C971 H965 0.950 . S
C971 C970 1.327 . S
C971 C975 1.429 . S
C972 C955 1.574 . S
C972 H966 0.949 . S
C972 C976 1.368 1_556 S
C973 C954 1.429 1_556 S
C973 C967 1.429 . S
C973 C974 1.523 1_556 S
C974 C955 1.368 1_554 S
C974 C968 1.368 . S
C974 C973 1.523 1_554 S
C975 C959 1.429 . S
C975 C971 1.429 . S
C975 C976 1.523 . S
C976 C960 1.368 . S
C976 C972 1.368 1_554 S
C976 C975 1.523 . S
H977 C952 0.950 . S
H978 C954 0.950 . S
H979 C955 0.949 . S
H980 C957 0.950 1_556 S
H981 C959 0.950 1_556 S
C982 C983 1.349 . S
C982 C984 1.327 . S
C982 H1007 0.950 . S
C983 C982 1.349 . S
C983 C999 1.349 1_554 S
C984 C982 1.327 . S
C984 C1003 1.429 . S
C984 H1008 0.950 . S
C985 C1002 1.574 . S
C985 C1004 1.368 . S
C985 H1009 0.949 . S
H986 C990 0.949 . S
C987 C988 1.349 . S
C987 C989 1.327 . S
C987 H1010 0.950 . S
C988 C987 1.349 . S
C988 C1000 1.349 . S
C989 C987 1.327 . S
C989 C1005 1.429 . S
C989 H1011 0.950 . S
C990 H986 0.949 . S
C990 C998 1.574 . S
C990 C1006 1.368 1_554 S
H991 C999 0.950 . S
H992 C997 0.950 . S
H993 C998 0.949 . S
H994 C1000 0.950 1_554 S
H995 C1001 0.950 1_554 S
H996 C1002 0.949 . S
C997 H992 0.950 . S
C997 C999 1.327 . S
C997 C1003 1.429 1_556 S
C998 C990 1.574 . S
C998 H993 0.949 . S
C998 C1004 1.368 1_554 S
C999 C983 1.349 1_556 S
C999 H991 0.950 . S
C999 C997 1.327 . S
C1000 C988 1.349 . S
C1000 H994 0.950 1_556 S
C1000 C1001 1.327 . S
C1001 H995 0.950 1_556 S
C1001 C1000 1.327 . S
C1001 C1005 1.429 . S
C1002 C985 1.574 . S
C1002 H996 0.949 . S
C1002 C1006 1.368 . S
C1003 C984 1.429 . S
C1003 C997 1.429 1_554 S
C1003 C1004 1.523 1_554 S
C1004 C985 1.368 . S
C1004 C998 1.368 1_556 S
C1004 C1003 1.523 1_556 S
C1005 C989 1.429 . S
C1005 C1001 1.429 . S
C1005 C1006 1.523 . S
C1006 C990 1.368 1_556 S
C1006 C1002 1.368 . S
C1006 C1005 1.523 . S
H1007 C982 0.950 . S
H1008 C984 0.950 . S
H1009 C985 0.949 . S
H1010 C987 0.950 . S
H1011 C989 0.950 . S
C1012 C1013 1.349 1_554 S
C1012 C1014 1.327 . S
C1012 H1037 0.950 . S
C1013 C1012 1.349 1_556 S
C1013 C1029 1.349 . S
C1014 C1012 1.327 . S
C1014 C1033 1.429 1_554 S
C1014 H1038 0.950 . S
C1015 C1032 1.574 . S
C1015 C1034 1.368 1_556 S
C1015 H1039 0.949 . S
H1016 C1020 0.949 . S
C1017 C1018 1.349 . S
C1017 C1019 1.327 . S
C1017 H1040 0.950 1_554 S
C1018 C1017 1.349 . S
C1018 C1030 1.349 . S
C1019 C1017 1.327 . S
C1019 C1035 1.429 . S
C1019 H1041 0.950 1_554 S
C1020 H1016 0.949 . S
C1020 C1028 1.574 . S
C1020 C1036 1.368 . S
H1021 C1029 0.950 . S
H1022 C1027 0.950 . S
H1023 C1028 0.949 . S
H1024 C1030 0.950 . S
H1025 C1031 0.950 . S
H1026 C1032 0.949 . S
C1027 H1022 0.950 . S
C1027 C1029 1.327 . S
C1027 C1033 1.429 . S
C1028 C1020 1.574 . S
C1028 H1023 0.949 . S
C1028 C1034 1.368 . S
C1029 C1013 1.349 . S
C1029 H1021 0.950 . S
C1029 C1027 1.327 . S
C1030 C1018 1.349 . S
C1030 H1024 0.950 . S
C1030 C1031 1.327 . S
C1031 H1025 0.950 . S
C1031 C1030 1.327 . S
C1031 C1035 1.429 . S
C1032 C1015 1.574 . S
C1032 H1026 0.949 . S
C1032 C1036 1.368 1_556 S
C1033 C1014 1.429 1_556 S
C1033 C1027 1.429 . S
C1033 C1034 1.523 1_556 S
C1034 C1015 1.368 1_554 S
C1034 C1028 1.368 . S
C1034 C1033 1.523 1_554 S
C1035 C1019 1.429 . S
C1035 C1031 1.429 . S
C1035 C1036 1.523 . S
C1036 C1020 1.368 . S
C1036 C1032 1.368 1_554 S
C1036 C1035 1.523 . S
H1037 C1012 0.950 . S
H1038 C1014 0.950 . S
H1039 C1015 0.949 . S
H1040 C1017 0.950 1_556 S
H1041 C1019 0.950 1_556 S
C1042 C1043 1.349 . S
C1042 C1044 1.327 . S
C1042 H1067 0.950 . S
C1043 C1042 1.349 . S
C1043 C1059 1.349 . S
C1044 C1042 1.327 . S
C1044 C1063 1.429 . S
C1044 H1068 0.950 . S
C1045 C1062 1.574 . S
C1045 C1064 1.368 1_554 S
C1045 H1069 0.949 . S
H1046 C1050 0.949 . S
C1047 C1048 1.349 . S
C1047 C1049 1.327 . S
C1047 H1070 0.950 . S
C1048 C1047 1.349 . S
C1048 C1060 1.349 1_554 S
C1049 C1047 1.327 . S
C1049 C1065 1.429 . S
C1049 H1071 0.950 . S
C1050 H1046 0.949 . S
C1050 C1058 1.574 . S
C1050 C1066 1.368 . S
H1051 C1059 0.950 . S
H1052 C1057 0.950 1_554 S
H1053 C1058 0.949 . S
H1054 C1060 0.950 . S
H1055 C1061 0.950 . S
H1056 C1062 0.949 . S
C1057 H1052 0.950 1_556 S
C1057 C1059 1.327 . S
C1057 C1063 1.429 . S
C1058 C1050 1.574 . S
C1058 H1053 0.949 . S
C1058 C1064 1.368 . S
C1059 C1043 1.349 . S
C1059 H1051 0.950 . S
C1059 C1057 1.327 . S
C1060 C1048 1.349 1_556 S
C1060 H1054 0.950 . S
C1060 C1061 1.327 . S
C1061 H1055 0.950 . S
C1061 C1060 1.327 . S
C1061 C1065 1.429 1_556 S
C1062 C1045 1.574 . S
C1062 H1056 0.949 . S
C1062 C1066 1.368 1_554 S
C1063 C1044 1.429 . S
C1063 C1057 1.429 . S
C1063 C1064 1.523 . S
C1064 C1045 1.368 1_556 S
C1064 C1058 1.368 . S
C1064 C1063 1.523 . S
C1065 C1049 1.429 . S
C1065 C1061 1.429 1_554 S
C1065 C1066 1.523 1_554 S
C1066 C1050 1.368 . S
C1066 C1062 1.368 1_556 S
C1066 C1065 1.523 1_556 S
H1067 C1042 0.950 . S
H1068 C1044 0.950 . S
H1069 C1045 0.949 . S
H1070 C1047 0.950 . S
H1071 C1049 0.950 . S
C1072 C1073 1.349 . S
C1072 C1074 1.327 . S
C1072 H1097 0.950 . S
C1073 C1072 1.349 . S
C1073 C1089 1.349 . S
C1074 C1072 1.327 . S
C1074 C1093 1.429 . S
C1074 H1098 0.950 1_565 S
C1075 C1092 1.574 1_565 S
C1075 C1094 1.368 1_565 S
C1075 H1099 0.949 . S
H1076 C1080 0.949 . S
C1077 C1078 1.349 . S
C1077 C1079 1.327 . S
C1077 H1100 0.950 . S
C1078 C1077 1.349 . S
C1078 C1090 1.349 . S
C1079 C1077 1.327 . S
C1079 C1095 1.429 . S
C1079 H1101 0.950 . S
C1080 H1076 0.949 . S
C1080 C1088 1.574 . S
C1080 C1096 1.368 . S
H1081 C1089 0.950 . S
H1082 C1087 0.950 . S
H1083 C1088 0.949 . S
H1084 C1090 0.950 . S
H1085 C1091 0.950 . S
H1086 C1092 0.949 1_565 S
C1087 H1082 0.950 . S
C1087 C1089 1.327 . S
C1087 C1093 1.429 . S
C1088 C1080 1.574 . S
C1088 H1083 0.949 . S
C1088 C1094 1.368 . S
C1089 C1073 1.349 . S
C1089 H1081 0.950 . S
C1089 C1087 1.327 . S
C1090 C1078 1.349 . S
C1090 H1084 0.950 . S
C1090 C1091 1.327 . S
C1091 H1085 0.950 . S
C1091 C1090 1.327 . S
C1091 C1095 1.429 . S
C1092 C1075 1.574 1_545 S
C1092 H1086 0.949 1_545 S
C1092 C1096 1.368 . S
C1093 C1074 1.429 . S
C1093 C1087 1.429 . S
C1093 C1094 1.523 1_565 S
C1094 C1075 1.368 1_545 S
C1094 C1088 1.368 . S
C1094 C1093 1.523 1_545 S
C1095 C1079 1.429 . S
C1095 C1091 1.429 . S
C1095 C1096 1.523 . S
C1096 C1080 1.368 . S
C1096 C1092 1.368 . S
C1096 C1095 1.523 . S
H1097 C1072 0.950 . S
H1098 C1074 0.950 1_545 S
H1099 C1075 0.949 . S
H1100 C1077 0.950 . S
H1101 C1079 0.950 . S
C1102 C1103 1.349 . S
C1102 C1104 1.327 . S
C1102 H1127 0.950 . S
C1103 C1102 1.349 . S
C1103 C1119 1.349 . S
C1104 C1102 1.327 . S
C1104 C1123 1.429 . S
C1104 H1128 0.950 . S
C1105 C1122 1.574 . S
C1105 C1124 1.368 . S
C1105 H1129 0.949 . S
H1106 C1110 0.949 . S
C1107 C1108 1.349 . S
C1107 C1109 1.327 . S
C1107 H1130 0.950 . S
C1108 C1107 1.349 . S
C1108 C1120 1.349 . S
C1109 C1107 1.327 . S
C1109 C1125 1.429 . S
C1109 H1131 0.950 . S
C1110 H1106 0.949 . S
C1110 C1118 1.597 . S
C1110 C1126 1.368 . S
H1111 C1119 0.950 . S
H1112 C1117 0.950 . S
H1113 C1118 0.928 1_655 S
H1114 C1120 0.950 . S
H1115 C1121 0.950 . S
H1116 C1122 0.949 . S
C1117 H1112 0.950 . S
C1117 C1119 1.327 . S
C1117 C1123 1.429 . S
C1118 C1110 1.597 . S
C1118 H1113 0.928 1_455 S
C1118 C1124 1.372 . S
C1119 C1103 1.349 . S
C1119 H1111 0.950 . S
C1119 C1117 1.327 . S
C1120 C1108 1.349 . S
C1120 H1114 0.950 . S
C1120 C1121 1.327 . S
C1121 H1115 0.950 . S
C1121 C1120 1.327 . S
C1121 C1125 1.429 . S
C1122 C1105 1.574 . S
C1122 H1116 0.949 . S
C1122 C1126 1.368 . S
C1123 C1104 1.429 . S
C1123 C1117 1.429 . S
C1123 C1124 1.523 1_655 S
C1124 C1105 1.368 . S
C1124 C1118 1.372 . S
C1124 C1123 1.523 1_455 S
C1125 C1109 1.429 . S
C1125 C1121 1.429 . S
C1125 C1126 1.523 . S
C1126 C1110 1.368 . S
C1126 C1122 1.368 . S
C1126 C1125 1.523 . S
H1127 C1102 0.950 . S
H1128 C1104 0.950 . S
H1129 C1105 0.949 . S
H1130 C1107 0.950 . S
H1131 C1109 0.950 . S
C1132 C1133 1.349 . S
C1132 C1134 1.327 . S
C1132 H1157 0.950 . S
C1133 C1132 1.349 . S
C1133 C1149 1.349 . S
C1134 C1132 1.327 . S
C1134 C1153 1.429 . S
C1134 H1158 0.950 . S
C1135 C1152 1.574 1_565 S
C1135 C1154 1.368 . S
C1135 H1159 0.949 1_565 S
H1136 C1140 0.949 . S
C1137 C1138 1.349 . S
C1137 C1139 1.327 . S
C1137 H1160 0.950 . S
C1138 C1137 1.349 . S
C1138 C1150 1.349 . S
C1139 C1137 1.327 . S
C1139 C1155 1.429 . S
C1139 H1161 0.950 . S
C1140 H1136 0.949 . S
C1140 C1148 1.574 . S
C1140 C1156 1.368 . S
H1141 C1149 0.950 . S
H1142 C1147 0.950 . S
H1143 C1148 0.949 . S
H1144 C1150 0.950 . S
H1145 C1151 0.950 1_565 S
H1146 C1152 0.949 . S
C1147 H1142 0.950 . S
C1147 C1149 1.327 . S
C1147 C1153 1.429 . S
C1148 C1140 1.574 . S
C1148 H1143 0.949 . S
C1148 C1154 1.368 . S
C1149 C1133 1.349 . S
C1149 H1141 0.950 . S
C1149 C1147 1.327 . S
C1150 C1138 1.349 . S
C1150 H1144 0.950 . S
C1150 C1151 1.327 . S
C1151 H1145 0.950 1_545 S
C1151 C1150 1.327 . S
C1151 C1155 1.429 . S
C1152 C1135 1.574 1_545 S
C1152 H1146 0.949 . S
C1152 C1156 1.368 1_545 S
C1153 C1134 1.429 . S
C1153 C1147 1.429 . S
C1153 C1154 1.523 . S
C1154 C1135 1.368 . S
C1154 C1148 1.368 . S
C1154 C1153 1.523 . S
C1155 C1139 1.429 . S
C1155 C1151 1.429 . S
C1155 C1156 1.523 1_545 S
C1156 C1140 1.368 . S
C1156 C1152 1.368 1_565 S
C1156 C1155 1.523 1_565 S
H1157 C1132 0.950 . S
H1158 C1134 0.950 . S
H1159 C1135 0.949 1_545 S
H1160 C1137 0.950 . S
H1161 C1139 0.950 . S
C1162 C1163 1.349 . S
C1162 C1164 1.327 . S
C1162 H1187 0.950 . S
C1163 C1162 1.349 . S
C1163 C1179 1.349 . S
C1164 C1162 1.327 . S
C1164 C1183 1.429 . S
C1164 H1188 0.950 . S
C1165 C1182 1.574 1_655 S
C1165 C1184 1.368 . S
C1165 H1189 0.949 . S
H1166 C1170 0.949 . S
C1167 C1168 1.349 . S
C1167 C1169 1.327 . S
C1167 H1190 0.950 . S
C1168 C1167 1.349 . S
C1168 C1180 1.349 . S
C1169 C1167 1.327 . S
C1169 C1185 1.429 . S
C1169 H1191 0.950 . S
C1170 H1166 0.949 . S
C1170 C1178 1.574 . S
C1170 C1186 1.368 . S
H1171 C1179 0.950 . S
H1172 C1177 0.950 . S
H1173 C1178 0.949 . S
H1174 C1180 0.950 . S
H1175 C1181 0.950 1_655 S
H1176 C1182 0.949 . S
C1177 H1172 0.950 . S
C1177 C1179 1.327 . S
C1177 C1183 1.429 . S
C1178 C1170 1.574 . S
C1178 H1173 0.949 . S
C1178 C1184 1.368 . S
C1179 C1163 1.349 . S
C1179 H1171 0.950 . S
C1179 C1177 1.327 . S
C1180 C1168 1.349 . S
C1180 H1174 0.950 . S
C1180 C1181 1.327 . S
C1181 H1175 0.950 1_455 S
C1181 C1180 1.327 . S
C1181 C1185 1.429 . S
C1182 C1165 1.574 1_455 S
C1182 H1176 0.949 . S
C1182 C1186 1.368 1_455 S
C1183 C1164 1.429 . S
C1183 C1177 1.429 . S
C1183 C1184 1.523 . S
C1184 C1165 1.368 . S
C1184 C1178 1.368 . S
C1184 C1183 1.523 . S
C1185 C1169 1.429 . S
C1185 C1181 1.429 . S
C1185 C1186 1.523 1_455 S
C1186 C1170 1.368 . S
C1186 C1182 1.368 1_655 S
C1186 C1185 1.523 1_655 S
H1187 C1162 0.950 . S
H1188 C1164 0.950 . S
H1189 C1165 0.949 . S
H1190 C1167 0.950 . S
H1191 C1169 0.950 . S
C1192 C1193 1.349 . S
C1192 C1194 1.327 . S
C1192 H1217 0.950 . S
C1193 C1192 1.349 . S
C1193 C1209 1.349 . S
C1194 C1192 1.327 . S
C1194 C1213 1.429 . S
C1194 H1218 0.950 . S
C1195 C1212 1.574 . S
C1195 C1214 1.368 . S
C1195 H1219 0.949 . S
H1196 C1200 0.949 . S
C1197 C1198 1.349 . S
C1197 C1199 1.327 . S
C1197 H1220 0.950 . S
C1198 C1197 1.349 . S
C1198 C1210 1.349 . S
C1199 C1197 1.327 . S
C1199 C1215 1.429 . S
C1199 H1221 0.950 . S
C1200 H1196 0.949 . S
C1200 C1208 1.574 . S
C1200 C1216 1.368 . S
H1201 C1209 0.950 . S
H1202 C1207 0.950 . S
H1203 C1208 0.949 1_565 S
H1204 C1210 0.950 . S
H1205 C1211 0.950 . S
H1206 C1212 0.949 . S
C1207 H1202 0.950 . S
C1207 C1209 1.327 . S
C1207 C1213 1.429 . S
C1208 C1200 1.574 . S
C1208 H1203 0.949 1_545 S
C1208 C1214 1.368 . S
C1209 C1193 1.349 . S
C1209 H1201 0.950 . S
C1209 C1207 1.327 . S
C1210 C1198 1.349 . S
C1210 H1204 0.950 . S
C1210 C1211 1.327 . S
C1211 H1205 0.950 . S
C1211 C1210 1.327 . S
C1211 C1215 1.429 . S
C1212 C1195 1.574 . S
C1212 H1206 0.949 . S
C1212 C1216 1.368 . S
C1213 C1194 1.429 . S
C1213 C1207 1.429 . S
C1213 C1214 1.523 1_565 S
C1214 C1195 1.368 . S
C1214 C1208 1.368 . S
C1214 C1213 1.523 1_545 S
C1215 C1199 1.429 . S
C1215 C1211 1.429 . S
C1215 C1216 1.523 . S
C1216 C1200 1.368 . S
C1216 C1212 1.368 . S
C1216 C1215 1.523 . S
H1217 C1192 0.950 . S
H1218 C1194 0.950 . S
H1219 C1195 0.949 . S
H1220 C1197 0.950 . S
H1221 C1199 0.950 . S
C1222 C1223 1.349 . S
C1222 C1224 1.327 . S
C1222 H1247 0.950 . S
C1223 C1222 1.349 . S
C1223 C1239 1.349 . S
C1224 C1222 1.327 . S
C1224 C1243 1.429 . S
C1224 H1248 0.950 . S
C1225 C1242 1.574 1_455 S
C1225 C1244 1.368 . S
C1225 H1249 0.949 . S
H1226 C1230 0.949 . S
C1227 C1228 1.349 . S
C1227 C1229 1.327 . S
C1227 H1250 0.950 . S
C1228 C1227 1.349 . S
C1228 C1240 1.349 . S
C1229 C1227 1.327 . S
C1229 C1245 1.429 . S
C1229 H1251 0.950 . S
C1230 H1226 0.949 . S
C1230 C1238 1.574 . S
C1230 C1246 1.368 . S
H1231 C1239 0.950 . S
H1232 C1237 0.950 . S
H1233 C1238 0.949 . S
H1234 C1240 0.950 . S
H1235 C1241 0.950 1_455 S
H1236 C1242 0.949 . S
C1237 H1232 0.950 . S
C1237 C1239 1.327 . S
C1237 C1243 1.429 . S
C1238 C1230 1.574 . S
C1238 H1233 0.949 . S
C1238 C1244 1.368 . S
C1239 C1223 1.349 . S
C1239 H1231 0.950 . S
C1239 C1237 1.327 . S
C1240 C1228 1.349 . S
C1240 H1234 0.950 . S
C1240 C1241 1.327 . S
C1241 H1235 0.950 1_655 S
C1241 C1240 1.327 . S
C1241 C1245 1.429 . S
C1242 C1225 1.574 1_655 S
C1242 H1236 0.949 . S
C1242 C1246 1.368 1_655 S
C1243 C1224 1.429 . S
C1243 C1237 1.429 . S
C1243 C1244 1.523 . S
C1244 C1225 1.368 . S
C1244 C1238 1.368 . S
C1244 C1243 1.523 . S
C1245 C1229 1.429 . S
C1245 C1241 1.429 . S
C1245 C1246 1.523 1_655 S
C1246 C1230 1.368 . S
C1246 C1242 1.368 1_455 S
C1246 C1245 1.523 1_455 S
H1247 C1222 0.950 . S
H1248 C1224 0.950 . S
H1249 C1225 0.949 . S
H1250 C1227 0.950 . S
H1251 C1229 0.950 . S
C1252 C1253 1.349 . S
C1252 C1254 1.327 . S
C1252 H1277 0.950 . S
C1253 C1252 1.349 . S
C1253 C1269 1.349 . S
C1254 C1252 1.327 . S
C1254 C1273 1.429 . S
C1254 H1278 0.950 . S
C1255 C1272 1.574 . S
C1255 C1274 1.368 . S
C1255 H1279 0.949 . S
H1256 C1260 0.949 1_545 S
C1257 C1258 1.349 . S
C1257 C1259 1.327 . S
C1257 H1280 0.950 . S
C1258 C1257 1.349 . S
C1258 C1270 1.349 . S
C1259 C1257 1.327 . S
C1259 C1275 1.429 . S
C1259 H1281 0.950 . S
C1260 H1256 0.949 1_565 S
C1260 C1268 1.574 . S
C1260 C1276 1.368 . S
H1261 C1269 0.950 . S
H1262 C1267 0.950 . S
H1263 C1268 0.949 . S
H1264 C1270 0.950 . S
H1265 C1271 0.950 . S
H1266 C1272 0.949 . S
C1267 H1262 0.950 . S
C1267 C1269 1.327 . S
C1267 C1273 1.429 . S
C1268 C1260 1.574 . S
C1268 H1263 0.949 . S
C1268 C1274 1.368 . S
C1269 C1253 1.349 . S
C1269 H1261 0.950 . S
C1269 C1267 1.327 . S
C1270 C1258 1.349 . S
C1270 H1264 0.950 . S
C1270 C1271 1.327 . S
C1271 H1265 0.950 . S
C1271 C1270 1.327 . S
C1271 C1275 1.429 . S
C1272 C1255 1.574 . S
C1272 H1266 0.949 . S
C1272 C1276 1.368 . S
C1273 C1254 1.429 . S
C1273 C1267 1.429 . S
C1273 C1274 1.523 . S
C1274 C1255 1.368 . S
C1274 C1268 1.368 . S
C1274 C1273 1.523 . S
C1275 C1259 1.429 . S
C1275 C1271 1.429 . S
C1275 C1276 1.523 1_545 S
C1276 C1260 1.368 . S
C1276 C1272 1.368 . S
C1276 C1275 1.523 1_565 S
H1277 C1252 0.950 . S
H1278 C1254 0.950 . S
H1279 C1255 0.949 . S
H1280 C1257 0.950 . S
H1281 C1259 0.950 . S
C1282 C1283 1.349 . S
C1282 C1284 1.327 . S
C1282 H1307 0.950 . S
C1283 C1282 1.349 . S
C1283 C1299 1.349 . S
C1284 C1282 1.327 . S
C1284 C1303 1.429 . S
C1284 H1308 0.950 . S
C1285 C1302 1.574 . S
C1285 C1304 1.368 . S
C1285 H1309 0.949 . S
H1286 C1290 0.949 . S
C1287 C1288 1.349 . S
C1287 C1289 1.327 . S
C1287 H1310 0.950 . S
C1288 C1287 1.349 . S
C1288 C1300 1.349 . S
C1289 C1287 1.327 . S
C1289 C1305 1.429 . S
C1289 H1311 0.950 . S
C1290 H1286 0.949 . S
C1290 C1298 1.574 1_655 S
C1290 C1306 1.368 . S
H1291 C1299 0.950 . S
H1292 C1297 0.950 1_655 S
H1293 C1298 0.949 . S
H1294 C1300 0.950 . S
H1295 C1301 0.950 . S
H1296 C1302 0.949 . S
C1297 H1292 0.950 1_455 S
C1297 C1299 1.327 . S
C1297 C1303 1.429 . S
C1298 C1290 1.574 1_455 S
C1298 H1293 0.949 . S
C1298 C1304 1.368 1_455 S
C1299 C1283 1.349 . S
C1299 H1291 0.950 . S
C1299 C1297 1.327 . S
C1300 C1288 1.349 . S
C1300 H1294 0.950 . S
C1300 C1301 1.327 . S
C1301 H1295 0.950 . S
C1301 C1300 1.327 . S
C1301 C1305 1.429 . S
C1302 C1285 1.574 . S
C1302 H1296 0.949 . S
C1302 C1306 1.368 . S
C1303 C1284 1.429 . S
C1303 C1297 1.429 . S
C1303 C1304 1.523 1_455 S
C1304 C1285 1.368 . S
C1304 C1298 1.368 1_655 S
C1304 C1303 1.523 1_655 S
C1305 C1289 1.429 . S
C1305 C1301 1.429 . S
C1305 C1306 1.523 . S
C1306 C1290 1.368 . S
C1306 C1302 1.368 . S
C1306 C1305 1.523 . S
H1307 C1282 0.950 . S
H1308 C1284 0.950 . S
H1309 C1285 0.949 . S
H1310 C1287 0.950 . S
H1311 C1289 0.950 . S
C1312 C1313 1.349 . S
C1312 C1314 1.327 . S
C1312 H1337 0.950 . S
C1313 C1312 1.349 . S
C1313 C1329 1.349 . S
C1314 C1312 1.327 . S
C1314 C1333 1.429 . S
C1314 H1338 0.950 . S
C1315 C1332 1.574 . S
C1315 C1334 1.368 . S
C1315 H1339 0.949 . S
H1316 C1320 0.949 . S
C1317 C1318 1.349 . S
C1317 C1319 1.327 . S
C1317 H1340 0.950 . S
C1318 C1317 1.349 . S
C1318 C1330 1.349 . S
C1319 C1317 1.327 . S
C1319 C1335 1.429 . S
C1319 H1341 0.950 . S
C1320 H1316 0.949 . S
C1320 C1328 1.574 . S
C1320 C1336 1.368 . S
H1321 C1329 0.950 . S
H1322 C1327 0.950 . S
H1323 C1328 0.949 . S
H1324 C1330 0.950 . S
H1325 C1331 0.950 . S
H1326 C1332 0.949 . S
C1327 H1322 0.950 . S
C1327 C1329 1.327 . S
C1327 C1333 1.429 . S
C1328 C1320 1.574 . S
C1328 H1323 0.949 . S
C1328 C1334 1.368 . S
C1329 C1313 1.349 . S
C1329 H1321 0.950 . S
C1329 C1327 1.327 . S
C1330 C1318 1.349 . S
C1330 H1324 0.950 . S
C1330 C1331 1.327 . S
C1331 H1325 0.950 . S
C1331 C1330 1.327 . S
C1331 C1335 1.429 . S
C1332 C1315 1.574 . S
C1332 H1326 0.949 . S
C1332 C1336 1.368 . S
C1333 C1314 1.429 . S
C1333 C1327 1.429 . S
C1333 C1334 1.523 . S
C1334 C1315 1.368 . S
C1334 C1328 1.368 . S
C1334 C1333 1.523 . S
C1335 C1319 1.429 . S
C1335 C1331 1.429 . S
C1335 C1336 1.523 . S
C1336 C1320 1.368 . S
C1336 C1332 1.368 . S
C1336 C1335 1.523 . S
H1337 C1312 0.950 . S
H1338 C1314 0.950 . S
H1339 C1315 0.949 . S
H1340 C1317 0.950 . S
H1341 C1319 0.950 . S
C1342 C1343 1.349 . S
C1342 C1344 1.327 . S
C1342 H1367 0.950 . S
C1343 C1342 1.349 . S
C1343 C1359 1.349 . S
C1344 C1342 1.327 . S
C1344 C1363 1.429 . S
C1344 H1368 0.950 . S
C1345 C1362 1.574 . S
C1345 C1364 1.368 . S
C1345 H1369 0.949 . S
H1346 C1350 0.949 . S
C1347 C1348 1.349 . S
C1347 C1349 1.327 . S
C1347 H1370 0.950 . S
C1348 C1347 1.349 . S
C1348 C1360 1.349 . S
C1349 C1347 1.327 . S
C1349 C1365 1.429 . S
C1349 H1371 0.950 . S
C1350 H1346 0.949 . S
C1350 C1358 1.574 . S
C1350 C1366 1.368 . S
H1351 C1359 0.950 . S
H1352 C1357 0.950 . S
H1353 C1358 0.949 . S
H1354 C1360 0.950 . S
H1355 C1361 0.950 . S
H1356 C1362 0.949 . S
C1357 H1352 0.950 . S
C1357 C1359 1.327 . S
C1357 C1363 1.429 . S
C1358 C1350 1.574 . S
C1358 H1353 0.949 . S
C1358 C1364 1.368 . S
C1359 C1343 1.349 . S
C1359 H1351 0.950 . S
C1359 C1357 1.327 . S
C1360 C1348 1.349 . S
C1360 H1354 0.950 . S
C1360 C1361 1.327 . S
C1361 H1355 0.950 . S
C1361 C1360 1.327 . S
C1361 C1365 1.429 . S
C1362 C1345 1.574 . S
C1362 H1356 0.949 . S
C1362 C1366 1.368 . S
C1363 C1344 1.429 . S
C1363 C1357 1.429 . S
C1363 C1364 1.523 . S
C1364 C1345 1.368 . S
C1364 C1358 1.368 . S
C1364 C1363 1.523 . S
C1365 C1349 1.429 . S
C1365 C1361 1.429 . S
C1365 C1366 1.523 . S
C1366 C1350 1.368 . S
C1366 C1362 1.368 . S
C1366 C1365 1.523 . S
H1367 C1342 0.950 . S
H1368 C1344 0.950 . S
H1369 C1345 0.949 . S
H1370 C1347 0.950 . S
H1371 C1349 0.950 . S
C1372 C1373 1.349 . S
C1372 C1374 1.327 . S
C1372 H1397 0.950 . S
C1373 C1372 1.349 . S
C1373 C1389 1.349 . S
C1374 C1372 1.327 . S
C1374 C1393 1.429 . S
C1374 H1398 0.950 . S
C1375 C1392 1.574 . S
C1375 C1394 1.368 . S
C1375 H1399 0.949 . S
H1376 C1380 0.949 . S
C1377 C1378 1.349 . S
C1377 C1379 1.327 . S
C1377 H1400 0.950 . S
C1378 C1377 1.349 . S
C1378 C1390 1.349 . S
C1379 C1377 1.327 . S
C1379 C1395 1.429 . S
C1379 H1401 0.950 . S
C1380 H1376 0.949 . S
C1380 C1388 1.574 . S
C1380 C1396 1.368 . S
H1381 C1389 0.950 . S
H1382 C1387 0.950 . S
H1383 C1388 0.949 . S
H1384 C1390 0.950 . S
H1385 C1391 0.950 . S
H1386 C1392 0.949 . S
C1387 H1382 0.950 . S
C1387 C1389 1.327 . S
C1387 C1393 1.429 . S
C1388 C1380 1.574 . S
C1388 H1383 0.949 . S
C1388 C1394 1.368 . S
C1389 C1373 1.349 . S
C1389 H1381 0.950 . S
C1389 C1387 1.327 . S
C1390 C1378 1.349 . S
C1390 H1384 0.950 . S
C1390 C1391 1.327 . S
C1391 H1385 0.950 . S
C1391 C1390 1.327 . S
C1391 C1395 1.429 . S
C1392 C1375 1.574 . S
C1392 H1386 0.949 . S
C1392 C1396 1.368 . S
C1393 C1374 1.429 . S
C1393 C1387 1.429 . S
C1393 C1394 1.523 . S
C1394 C1375 1.368 . S
C1394 C1388 1.368 . S
C1394 C1393 1.523 . S
C1395 C1379 1.429 . S
C1395 C1391 1.429 . S
C1395 C1396 1.523 . S
C1396 C1380 1.368 . S
C1396 C1392 1.368 . S
C1396 C1395 1.523 . S
H1397 C1372 0.950 . S
H1398 C1374 0.950 . S
H1399 C1375 0.949 . S
H1400 C1377 0.950 . S
H1401 C1379 0.950 . S
C1402 C1403 1.349 . S
C1402 C1404 1.327 . S
C1402 H1427 0.950 . S
C1403 C1402 1.349 . S
C1403 C1419 1.349 . S
C1404 C1402 1.327 . S
C1404 C1423 1.429 . S
C1404 H1428 0.950 . S
C1405 C1422 1.574 . S
C1405 C1424 1.368 . S
C1405 H1429 0.949 . S
H1406 C1410 0.949 . S
C1407 C1408 1.349 . S
C1407 C1409 1.327 . S
C1407 H1430 0.950 . S
C1408 C1407 1.349 . S
C1408 C1420 1.349 . S
C1409 C1407 1.327 . S
C1409 C1425 1.429 . S
C1409 H1431 0.950 . S
C1410 H1406 0.949 . S
C1410 C1418 1.574 . S
C1410 C1426 1.368 . S
H1411 C1419 0.950 . S
H1412 C1417 0.950 . S
H1413 C1418 0.949 . S
H1414 C1420 0.950 . S
H1415 C1421 0.950 . S
H1416 C1422 0.949 . S
C1417 H1412 0.950 . S
C1417 C1419 1.327 . S
C1417 C1423 1.429 . S
C1418 C1410 1.574 . S
C1418 H1413 0.949 . S
C1418 C1424 1.368 . S
C1419 C1403 1.349 . S
C1419 H1411 0.950 . S
C1419 C1417 1.327 . S
C1420 C1408 1.349 . S
C1420 H1414 0.950 . S
C1420 C1421 1.327 . S
C1421 H1415 0.950 . S
C1421 C1420 1.327 . S
C1421 C1425 1.429 . S
C1422 C1405 1.574 . S
C1422 H1416 0.949 . S
C1422 C1426 1.368 . S
C1423 C1404 1.429 . S
C1423 C1417 1.429 . S
C1423 C1424 1.523 . S
C1424 C1405 1.368 . S
C1424 C1418 1.368 . S
C1424 C1423 1.523 . S
C1425 C1409 1.429 . S
C1425 C1421 1.429 . S
C1425 C1426 1.523 . S
C1426 C1410 1.368 . S
C1426 C1422 1.368 . S
C1426 C1425 1.523 . S
H1427 C1402 0.950 . S
H1428 C1404 0.950 . S
H1429 C1405 0.949 . S
H1430 C1407 0.950 . S
H1431 C1409 0.950 . S
C1432 C1433 1.349 . S
C1432 C1434 1.327 . S
C1432 H1457 0.950 . S
C1433 C1432 1.349 . S
C1433 C1449 1.349 . S
C1434 C1432 1.327 . S
C1434 C1453 1.429 . S
C1434 H1458 0.950 . S
C1435 C1452 1.574 . S
C1435 C1454 1.368 . S
C1435 H1459 0.949 . S
H1436 C1440 0.949 . S
C1437 C1438 1.349 . S
C1437 C1439 1.327 . S
C1437 H1460 0.950 . S
C1438 C1437 1.349 . S
C1438 C1450 1.349 . S
C1439 C1437 1.327 . S
C1439 C1455 1.429 . S
C1439 H1461 0.950 . S
C1440 H1436 0.949 . S
C1440 C1448 1.574 . S
C1440 C1456 1.368 . S
H1441 C1449 0.950 . S
H1442 C1447 0.950 . S
H1443 C1448 0.949 . S
H1444 C1450 0.950 . S
H1445 C1451 0.950 . S
H1446 C1452 0.949 . S
C1447 H1442 0.950 . S
C1447 C1449 1.327 . S
C1447 C1453 1.429 . S
C1448 C1440 1.574 . S
C1448 H1443 0.949 . S
C1448 C1454 1.368 . S
C1449 C1433 1.349 . S
C1449 H1441 0.950 . S
C1449 C1447 1.327 . S
C1450 C1438 1.349 . S
C1450 H1444 0.950 . S
C1450 C1451 1.327 . S
C1451 H1445 0.950 . S
C1451 C1450 1.327 . S
C1451 C1455 1.429 . S
C1452 C1435 1.574 . S
C1452 H1446 0.949 . S
C1452 C1456 1.368 . S
C1453 C1434 1.429 . S
C1453 C1447 1.429 . S
C1453 C1454 1.523 . S
C1454 C1435 1.368 . S
C1454 C1448 1.368 . S
C1454 C1453 1.523 . S
C1455 C1439 1.429 . S
C1455 C1451 1.429 . S
C1455 C1456 1.523 . S
C1456 C1440 1.368 . S
C1456 C1452 1.368 . S
C1456 C1455 1.523 . S
H1457 C1432 0.950 . S
H1458 C1434 0.950 . S
H1459 C1435 0.949 . S
H1460 C1437 0.950 . S
H1461 C1439 0.950 . S
C1462 C1463 1.349 . S
C1462 C1464 1.327 . S
C1462 H1487 0.950 . S
C1463 C1462 1.349 . S
C1463 C1479 1.349 . S
C1464 C1462 1.327 . S
C1464 C1483 1.429 . S
C1464 H1488 0.950 . S
C1465 C1482 1.574 . S
C1465 C1484 1.368 . S
C1465 H1489 0.949 . S
H1466 C1470 0.949 . S
C1467 C1468 1.349 . S
C1467 C1469 1.327 . S
C1467 H1490 0.950 . S
C1468 C1467 1.349 . S
C1468 C1480 1.349 . S
C1469 C1467 1.327 . S
C1469 C1485 1.429 . S
C1469 H1491 0.950 . S
C1470 H1466 0.949 . S
C1470 C1478 1.574 . S
C1470 C1486 1.368 . S
H1471 C1479 0.950 . S
H1472 C1477 0.950 . S
H1473 C1478 0.949 . S
H1474 C1480 0.950 . S
H1475 C1481 0.950 . S
H1476 C1482 0.949 . S
C1477 H1472 0.950 . S
C1477 C1479 1.327 . S
C1477 C1483 1.429 . S
C1478 C1470 1.574 . S
C1478 H1473 0.949 . S
C1478 C1484 1.368 . S
C1479 C1463 1.349 . S
C1479 H1471 0.950 . S
C1479 C1477 1.327 . S
C1480 C1468 1.349 . S
C1480 H1474 0.950 . S
C1480 C1481 1.327 . S
C1481 H1475 0.950 . S
C1481 C1480 1.327 . S
C1481 C1485 1.429 . S
C1482 C1465 1.574 . S
C1482 H1476 0.949 . S
C1482 C1486 1.368 . S
C1483 C1464 1.429 . S
C1483 C1477 1.429 . S
C1483 C1484 1.523 . S
C1484 C1465 1.368 . S
C1484 C1478 1.368 . S
C1484 C1483 1.523 . S
C1485 C1469 1.429 . S
C1485 C1481 1.429 . S
C1485 C1486 1.523 . S
C1486 C1470 1.368 . S
C1486 C1482 1.368 . S
C1486 C1485 1.523 . S
H1487 C1462 0.950 . S
H1488 C1464 0.950 . S
H1489 C1465 0.949 . S
H1490 C1467 0.950 . S
H1491 C1469 0.950 . S
C1492 C1493 1.349 . S
C1492 C1494 1.327 . S
C1492 H1517 0.950 . S
C1493 C1492 1.349 . S
C1493 C1509 1.349 . S
C1494 C1492 1.327 . S
C1494 C1513 1.429 . S
C1494 H1518 0.950 . S
C1495 C1512 1.574 . S
C1495 C1514 1.368 . S
C1495 H1519 0.949 . S
H1496 C1500 0.949 . S
C1497 C1498 1.349 . S
C1497 C1499 1.327 . S
C1497 H1520 0.950 . S
C1498 C1497 1.349 . S
C1498 C1510 1.349 . S
C1499 C1497 1.327 . S
C1499 C1515 1.429 . S
C1499 H1521 0.950 . S
C1500 H1496 0.949 . S
C1500 C1508 1.574 . S
C1500 C1516 1.368 . S
H1501 C1509 0.950 . S
H1502 C1507 0.950 . S
H1503 C1508 0.949 . S
H1504 C1510 0.950 . S
H1505 C1511 0.950 . S
H1506 C1512 0.949 . S
C1507 H1502 0.950 . S
C1507 C1509 1.327 . S
C1507 C1513 1.429 . S
C1508 C1500 1.574 . S
C1508 H1503 0.949 . S
C1508 C1514 1.368 . S
C1509 C1493 1.349 . S
C1509 H1501 0.950 . S
C1509 C1507 1.327 . S
C1510 C1498 1.349 . S
C1510 H1504 0.950 . S
C1510 C1511 1.327 . S
C1511 H1505 0.950 . S
C1511 C1510 1.327 . S
C1511 C1515 1.429 . S
C1512 C1495 1.574 . S
C1512 H1506 0.949 . S
C1512 C1516 1.368 . S
C1513 C1494 1.429 . S
C1513 C1507 1.429 . S
C1513 C1514 1.523 . S
C1514 C1495 1.368 . S
C1514 C1508 1.368 . S
C1514 C1513 1.523 . S
C1515 C1499 1.429 . S
C1515 C1511 1.429 . S
C1515 C1516 1.523 . S
C1516 C1500 1.368 . S
C1516 C1512 1.368 . S
C1516 C1515 1.523 . S
H1517 C1492 0.950 . S
H1518 C1494 0.950 . S
H1519 C1495 0.949 . S
H1520 C1497 0.950 . S
H1521 C1499 0.950 . S
C1522 C1523 1.349 . S
C1522 C1524 1.327 . S
C1522 H1547 0.950 . S
C1523 C1522 1.349 . S
C1523 C1539 1.349 . S
C1524 C1522 1.327 . S
C1524 C1543 1.429 . S
C1524 H1548 0.950 . S
C1525 C1542 1.574 . S
C1525 C1544 1.368 . S
C1525 H1549 0.949 . S
H1526 C1530 0.949 . S
C1527 C1528 1.349 . S
C1527 C1529 1.327 . S
C1527 H1550 0.950 . S
C1528 C1527 1.349 . S
C1528 C1540 1.349 . S
C1529 C1527 1.327 . S
C1529 C1545 1.429 . S
C1529 H1551 0.950 . S
C1530 H1526 0.949 . S
C1530 C1538 1.574 . S
C1530 C1546 1.368 . S
H1531 C1539 0.950 . S
H1532 C1537 0.950 . S
H1533 C1538 0.949 . S
H1534 C1540 0.950 . S
H1535 C1541 0.950 . S
H1536 C1542 0.949 . S
C1537 H1532 0.950 . S
C1537 C1539 1.327 . S
C1537 C1543 1.429 . S
C1538 C1530 1.574 . S
C1538 H1533 0.949 . S
C1538 C1544 1.368 . S
C1539 C1523 1.349 . S
C1539 H1531 0.950 . S
C1539 C1537 1.327 . S
C1540 C1528 1.349 . S
C1540 H1534 0.950 . S
C1540 C1541 1.327 . S
C1541 H1535 0.950 . S
C1541 C1540 1.327 . S
C1541 C1545 1.429 . S
C1542 C1525 1.574 . S
C1542 H1536 0.949 . S
C1542 C1546 1.368 . S
C1543 C1524 1.429 . S
C1543 C1537 1.429 . S
C1543 C1544 1.523 . S
C1544 C1525 1.368 . S
C1544 C1538 1.368 . S
C1544 C1543 1.523 . S
C1545 C1529 1.429 . S
C1545 C1541 1.429 . S
C1545 C1546 1.523 . S
C1546 C1530 1.368 . S
C1546 C1542 1.368 . S
C1546 C1545 1.523 . S
H1547 C1522 0.950 . S
H1548 C1524 0.950 . S
H1549 C1525 0.949 . S
H1550 C1527 0.950 . S
H1551 C1529 0.950 . S
C1552 C1553 1.349 . S
C1552 C1554 1.327 . S
C1552 H1577 0.950 . S
C1553 C1552 1.349 . S
C1553 C1569 1.349 . S
C1554 C1552 1.327 . S
C1554 C1573 1.429 . S
C1554 H1578 0.950 1_556 S
C1555 C1572 1.574 . S
C1555 C1574 1.368 . S
C1555 H1579 0.949 . S
H1556 C1560 0.949 . S
C1557 C1558 1.349 . S
C1557 C1559 1.327 . S
C1557 H1580 0.950 . S
C1558 C1557 1.349 . S
C1558 C1570 1.349 . S
C1559 C1557 1.327 . S
C1559 C1575 1.429 . S
C1559 H1581 0.950 1_554 S
C1560 H1556 0.949 . S
C1560 C1568 1.574 . S
C1560 C1576 1.368 . S
H1561 C1569 0.950 . S
H1562 C1567 0.950 . S
H1563 C1568 0.949 . S
H1564 C1570 0.950 . S
H1565 C1571 0.950 . S
H1566 C1572 0.949 . S
C1567 H1562 0.950 . S
C1567 C1569 1.327 . S
C1567 C1573 1.429 . S
C1568 C1560 1.574 . S
C1568 H1563 0.949 . S
C1568 C1574 1.368 1_554 S
C1569 C1553 1.349 . S
C1569 H1561 0.950 . S
C1569 C1567 1.327 . S
C1570 C1558 1.349 . S
C1570 H1564 0.950 . S
C1570 C1571 1.327 . S
C1571 H1565 0.950 . S
C1571 C1570 1.327 . S
C1571 C1575 1.429 . S
C1572 C1555 1.574 . S
C1572 H1566 0.949 . S
C1572 C1576 1.368 1_556 S
C1573 C1554 1.429 . S
C1573 C1567 1.429 . S
C1573 C1574 1.523 . S
C1574 C1555 1.368 . S
C1574 C1568 1.368 1_556 S
C1574 C1573 1.523 . S
C1575 C1559 1.429 . S
C1575 C1571 1.429 . S
C1575 C1576 1.523 . S
C1576 C1560 1.368 . S
C1576 C1572 1.368 1_554 S
C1576 C1575 1.523 . S
H1577 C1552 0.950 . S
H1578 C1554 0.950 1_554 S
H1579 C1555 0.949 . S
H1580 C1557 0.950 . S
H1581 C1559 0.950 1_556 S
C1582 C1583 1.349 . S
C1582 C1584 1.327 . S
C1582 H1607 0.950 . S
C1583 C1582 1.349 . S
C1583 C1599 1.349 . S
C1584 C1582 1.327 . S
C1584 C1603 1.429 . S
C1584 H1608 0.950 1_554 S
C1585 C1602 1.574 . S
C1585 C1604 1.368 . S
C1585 H1609 0.949 . S
H1586 C1590 0.949 . S
C1587 C1588 1.349 . S
C1587 C1589 1.327 . S
C1587 H1610 0.950 . S
C1588 C1587 1.349 . S
C1588 C1600 1.349 . S
C1589 C1587 1.327 . S
C1589 C1605 1.429 . S
C1589 H1611 0.950 1_556 S
C1590 H1586 0.949 . S
C1590 C1598 1.574 . S
C1590 C1606 1.368 . S
H1591 C1599 0.950 . S
H1592 C1597 0.950 . S
H1593 C1598 0.949 . S
H1594 C1600 0.950 . S
H1595 C1601 0.950 . S
H1596 C1602 0.949 . S
C1597 H1592 0.950 . S
C1597 C1599 1.327 . S
C1597 C1603 1.429 . S
C1598 C1590 1.574 . S
C1598 H1593 0.949 . S
C1598 C1604 1.368 1_556 S
C1599 C1583 1.349 . S
C1599 H1591 0.950 . S
C1599 C1597 1.327 . S
C1600 C1588 1.349 . S
C1600 H1594 0.950 . S
C1600 C1601 1.327 . S
C1601 H1595 0.950 . S
C1601 C1600 1.327 . S
C1601 C1605 1.429 . S
C1602 C1585 1.574 . S
C1602 H1596 0.949 . S
C1602 C1606 1.368 1_554 S
C1603 C1584 1.429 . S
C1603 C1597 1.429 . S
C1603 C1604 1.523 . S
C1604 C1585 1.368 . S
C1604 C1598 1.368 1_554 S
C1604 C1603 1.523 . S
C1605 C1589 1.429 . S
C1605 C1601 1.429 . S
C1605 C1606 1.523 . S
C1606 C1590 1.368 . S
C1606 C1602 1.368 1_556 S
C1606 C1605 1.523 . S
H1607 C1582 0.950 . S
H1608 C1584 0.950 1_556 S
H1609 C1585 0.949 . S
H1610 C1587 0.950 . S
H1611 C1589 0.950 1_554 S
C1612 C1613 1.349 . S
C1612 C1614 1.327 . S
C1612 H1637 0.950 . S
C1613 C1612 1.349 . S
C1613 C1629 1.349 . S
C1614 C1612 1.327 . S
C1614 C1633 1.429 . S
C1614 H1638 0.950 1_554 S
C1615 C1632 1.574 . S
C1615 C1634 1.368 . S
C1615 H1639 0.949 . S
H1616 C1620 0.949 . S
C1617 C1618 1.349 . S
C1617 C1619 1.327 . S
C1617 H1640 0.950 . S
C1618 C1617 1.349 . S
C1618 C1630 1.349 . S
C1619 C1617 1.327 . S
C1619 C1635 1.429 . S
C1619 H1641 0.950 1_556 S
C1620 H1616 0.949 . S
C1620 C1628 1.574 . S
C1620 C1636 1.368 . S
H1621 C1629 0.950 . S
H1622 C1627 0.950 . S
H1623 C1628 0.949 . S
H1624 C1630 0.950 . S
H1625 C1631 0.950 . S
H1626 C1632 0.949 . S
C1627 H1622 0.950 . S
C1627 C1629 1.327 . S
C1627 C1633 1.429 . S
C1628 C1620 1.574 . S
C1628 H1623 0.949 . S
C1628 C1634 1.368 1_556 S
C1629 C1613 1.349 . S
C1629 H1621 0.950 . S
C1629 C1627 1.327 . S
C1630 C1618 1.349 . S
C1630 H1624 0.950 . S
C1630 C1631 1.327 . S
C1631 H1625 0.950 . S
C1631 C1630 1.327 . S
C1631 C1635 1.429 . S
C1632 C1615 1.574 . S
C1632 H1626 0.949 . S
C1632 C1636 1.368 1_554 S
C1633 C1614 1.429 . S
C1633 C1627 1.429 . S
C1633 C1634 1.523 . S
C1634 C1615 1.368 . S
C1634 C1628 1.368 1_554 S
C1634 C1633 1.523 . S
C1635 C1619 1.429 . S
C1635 C1631 1.429 . S
C1635 C1636 1.523 . S
C1636 C1620 1.368 . S
C1636 C1632 1.368 1_556 S
C1636 C1635 1.523 . S
H1637 C1612 0.950 . S
H1638 C1614 0.950 1_556 S
H1639 C1615 0.949 . S
H1640 C1617 0.950 . S
H1641 C1619 0.950 1_554 S
C1642 C1643 1.349 . S
C1642 C1644 1.327 . S
C1642 H1667 0.950 . S
C1643 C1642 1.349 . S
C1643 C1659 1.349 . S
C1644 C1642 1.327 . S
C1644 C1663 1.429 . S
C1644 H1668 0.950 . S
C1645 C1662 1.574 . S
C1645 C1664 1.368 1_556 S
C1645 H1669 0.949 . S
H1646 C1650 0.949 . S
C1647 C1648 1.349 . S
C1647 C1649 1.327 . S
C1647 H1670 0.950 . S
C1648 C1647 1.349 . S
C1648 C1660 1.349 . S
C1649 C1647 1.327 . S
C1649 C1665 1.429 . S
C1649 H1671 0.950 . S
C1650 H1646 0.949 . S
C1650 C1658 1.574 . S
C1650 C1666 1.368 1_554 S
H1651 C1659 0.950 . S
H1652 C1657 0.950 1_556 S
H1653 C1658 0.949 . S
H1654 C1660 0.950 . S
H1655 C1661 0.950 1_554 S
H1656 C1662 0.949 . S
C1657 H1652 0.950 1_554 S
C1657 C1659 1.327 . S
C1657 C1663 1.429 . S
C1658 C1650 1.574 . S
C1658 H1653 0.949 . S
C1658 C1664 1.368 . S
C1659 C1643 1.349 . S
C1659 H1651 0.950 . S
C1659 C1657 1.327 . S
C1660 C1648 1.349 . S
C1660 H1654 0.950 . S
C1660 C1661 1.327 . S
C1661 H1655 0.950 1_556 S
C1661 C1660 1.327 . S
C1661 C1665 1.429 . S
C1662 C1645 1.574 . S
C1662 H1656 0.949 . S
C1662 C1666 1.368 . S
C1663 C1644 1.429 . S
C1663 C1657 1.429 . S
C1663 C1664 1.523 . S
C1664 C1645 1.368 1_554 S
C1664 C1658 1.368 . S
C1664 C1663 1.523 . S
C1665 C1649 1.429 . S
C1665 C1661 1.429 . S
C1665 C1666 1.523 . S
C1666 C1650 1.368 1_556 S
C1666 C1662 1.368 . S
C1666 C1665 1.523 . S
H1667 C1642 0.950 . S
H1668 C1644 0.950 . S
H1669 C1645 0.949 . S
H1670 C1647 0.950 . S
H1671 C1649 0.950 . S
C1672 C1673 1.349 . S
C1672 C1674 1.327 . S
C1672 H1697 0.950 . S
C1673 C1672 1.349 . S
C1673 C1689 1.349 . S
C1674 C1672 1.327 . S
C1674 C1693 1.429 . S
C1674 H1698 0.950 . S
C1675 C1692 1.574 . S
C1675 C1694 1.368 . S
C1675 H1699 0.949 . S
H1676 C1680 0.949 . S
C1677 C1678 1.349 . S
C1677 C1679 1.327 . S
C1677 H1700 0.950 . S
C1678 C1677 1.349 . S
C1678 C1690 1.349 . S
C1679 C1677 1.327 . S
C1679 C1695 1.429 . S
C1679 H1701 0.950 . S
C1680 H1676 0.949 . S
C1680 C1688 1.574 . S
C1680 C1696 1.368 . S
H1681 C1689 0.950 . S
H1682 C1687 0.950 . S
H1683 C1688 0.949 . S
H1684 C1690 0.950 . S
H1685 C1691 0.950 . S
H1686 C1692 0.949 . S
C1687 H1682 0.950 . S
C1687 C1689 1.327 . S
C1687 C1693 1.429 . S
C1688 C1680 1.574 . S
C1688 H1683 0.949 . S
C1688 C1694 1.368 . S
C1689 C1673 1.349 . S
C1689 H1681 0.950 . S
C1689 C1687 1.327 . S
C1690 C1678 1.349 . S
C1690 H1684 0.950 . S
C1690 C1691 1.327 . S
C1691 H1685 0.950 . S
C1691 C1690 1.327 . S
C1691 C1695 1.429 . S
C1692 C1675 1.574 . S
C1692 H1686 0.949 . S
C1692 C1696 1.368 . S
C1693 C1674 1.429 . S
C1693 C1687 1.429 . S
C1693 C1694 1.523 . S
C1694 C1675 1.368 . S
C1694 C1688 1.368 . S
C1694 C1693 1.523 . S
C1695 C1679 1.429 . S
C1695 C1691 1.429 . S
C1695 C1696 1.523 . S
C1696 C1680 1.368 . S
C1696 C1692 1.368 . S
C1696 C1695 1.523 . S
H1697 C1672 0.950 . S
H1698 C1674 0.950 . S
H1699 C1675 0.949 . S
H1700 C1677 0.950 . S
H1701 C1679 0.950 . S
C1702 C1703 1.349 . S
C1702 C1704 1.327 . S
C1702 H1727 0.950 . S
C1703 C1702 1.349 . S
C1703 C1719 1.349 . S
C1704 C1702 1.327 . S
C1704 C1723 1.429 . S
C1704 H1728 0.950 . S
C1705 C1722 1.574 . S
C1705 C1724 1.368 . S
C1705 H1729 0.949 . S
H1706 C1710 0.949 . S
C1707 C1708 1.349 . S
C1707 C1709 1.327 . S
C1707 H1730 0.950 . S
C1708 C1707 1.349 . S
C1708 C1720 1.349 . S
C1709 C1707 1.327 . S
C1709 C1725 1.429 . S
C1709 H1731 0.950 . S
C1710 H1706 0.949 . S
C1710 C1718 1.574 . S
C1710 C1726 1.368 . S
H1711 C1719 0.950 . S
H1712 C1717 0.950 . S
H1713 C1718 0.949 . S
H1714 C1720 0.950 . S
H1715 C1721 0.950 . S
H1716 C1722 0.949 . S
C1717 H1712 0.950 . S
C1717 C1719 1.327 . S
C1717 C1723 1.429 . S
C1718 C1710 1.574 . S
C1718 H1713 0.949 . S
C1718 C1724 1.368 . S
C1719 C1703 1.349 . S
C1719 H1711 0.950 . S
C1719 C1717 1.327 . S
C1720 C1708 1.349 . S
C1720 H1714 0.950 . S
C1720 C1721 1.327 . S
C1721 H1715 0.950 . S
C1721 C1720 1.327 . S
C1721 C1725 1.429 . S
C1722 C1705 1.574 . S
C1722 H1716 0.949 . S
C1722 C1726 1.368 . S
C1723 C1704 1.429 . S
C1723 C1717 1.429 . S
C1723 C1724 1.523 . S
C1724 C1705 1.368 . S
C1724 C1718 1.368 . S
C1724 C1723 1.523 . S
C1725 C1709 1.429 . S
C1725 C1721 1.429 . S
C1725 C1726 1.523 . S
C1726 C1710 1.368 . S
C1726 C1722 1.368 . S
C1726 C1725 1.523 . S
H1727 C1702 0.950 . S
H1728 C1704 0.950 . S
H1729 C1705 0.949 . S
H1730 C1707 0.950 . S
H1731 C1709 0.950 . S
C1732 C1733 1.349 . S
C1732 C1734 1.327 . S
C1732 H1757 0.950 . S
C1733 C1732 1.349 . S
C1733 C1749 1.349 . S
C1734 C1732 1.327 . S
C1734 C1753 1.429 . S
C1734 H1758 0.950 . S
C1735 C1752 1.574 . S
C1735 C1754 1.368 . S
C1735 H1759 0.949 . S
H1736 C1740 0.949 . S
C1737 C1738 1.349 . S
C1737 C1739 1.327 . S
C1737 H1760 0.950 . S
C1738 C1737 1.349 . S
C1738 C1750 1.349 . S
C1739 C1737 1.327 . S
C1739 C1755 1.429 . S
C1739 H1761 0.950 . S
C1740 H1736 0.949 . S
C1740 C1748 1.574 . S
C1740 C1756 1.368 . S
H1741 C1749 0.950 . S
H1742 C1747 0.950 . S
H1743 C1748 0.949 . S
H1744 C1750 0.950 . S
H1745 C1751 0.950 . S
H1746 C1752 0.949 . S
C1747 H1742 0.950 . S
C1747 C1749 1.327 . S
C1747 C1753 1.429 . S
C1748 C1740 1.574 . S
C1748 H1743 0.949 . S
C1748 C1754 1.368 . S
C1749 C1733 1.349 . S
C1749 H1741 0.950 . S
C1749 C1747 1.327 . S
C1750 C1738 1.349 . S
C1750 H1744 0.950 . S
C1750 C1751 1.327 . S
C1751 H1745 0.950 . S
C1751 C1750 1.327 . S
C1751 C1755 1.429 . S
C1752 C1735 1.574 . S
C1752 H1746 0.949 . S
C1752 C1756 1.368 . S
C1753 C1734 1.429 . S
C1753 C1747 1.429 . S
C1753 C1754 1.523 . S
C1754 C1735 1.368 . S
C1754 C1748 1.368 . S
C1754 C1753 1.523 . S
C1755 C1739 1.429 . S
C1755 C1751 1.429 . S
C1755 C1756 1.523 . S
C1756 C1740 1.368 . S
C1756 C1752 1.368 . S
C1756 C1755 1.523 . S
H1757 C1732 0.950 . S
H1758 C1734 0.950 . S
H1759 C1735 0.949 . S
H1760 C1737 0.950 . S
H1761 C1739 0.950 . S
C1762 C1763 1.349 . S
C1762 C1764 1.327 . S
C1762 H1787 0.950 . S
C1763 C1762 1.349 . S
C1763 C1779 1.349 . S
C1764 C1762 1.327 . S
C1764 C1783 1.429 . S
C1764 H1788 0.950 . S
C1765 C1782 1.574 . S
C1765 C1784 1.368 . S
C1765 H1789 0.949 . S
H1766 C1770 0.949 . S
C1767 C1768 1.349 . S
C1767 C1769 1.327 . S
C1767 H1790 0.950 . S
C1768 C1767 1.349 . S
C1768 C1780 1.349 . S
C1769 C1767 1.327 . S
C1769 C1785 1.429 . S
C1769 H1791 0.950 . S
C1770 H1766 0.949 . S
C1770 C1778 1.574 . S
C1770 C1786 1.368 . S
H1771 C1779 0.950 . S
H1772 C1777 0.950 . S
H1773 C1778 0.949 . S
H1774 C1780 0.950 . S
H1775 C1781 0.950 . S
H1776 C1782 0.949 . S
C1777 H1772 0.950 . S
C1777 C1779 1.327 . S
C1777 C1783 1.429 . S
C1778 C1770 1.574 . S
C1778 H1773 0.949 . S
C1778 C1784 1.368 . S
C1779 C1763 1.349 . S
C1779 H1771 0.950 . S
C1779 C1777 1.327 . S
C1780 C1768 1.349 . S
C1780 H1774 0.950 . S
C1780 C1781 1.327 . S
C1781 H1775 0.950 . S
C1781 C1780 1.327 . S
C1781 C1785 1.429 . S
C1782 C1765 1.574 . S
C1782 H1776 0.949 . S
C1782 C1786 1.368 . S
C1783 C1764 1.429 . S
C1783 C1777 1.429 . S
C1783 C1784 1.523 . S
C1784 C1765 1.368 . S
C1784 C1778 1.368 . S
C1784 C1783 1.523 . S
C1785 C1769 1.429 . S
C1785 C1781 1.429 . S
C1785 C1786 1.523 . S
C1786 C1770 1.368 . S
C1786 C1782 1.368 . S
C1786 C1785 1.523 . S
H1787 C1762 0.950 . S
H1788 C1764 0.950 . S
H1789 C1765 0.949 . S
H1790 C1767 0.950 . S
H1791 C1769 0.950 . S
C353 C5 1.126 . S
C358 C115 1.126 . S
C383 C29 1.126 . S
C388 C139 1.126 . S
C413 C163 1.126 . S
C418 C53 1.126 . S
C443 C94 1.126 . S
C448 C72 1.126 . S
C473 C291 1.126 . S
C478 C181 1.126 . S
C503 C205 1.126 . S
C508 C315 1.126 . S
C533 C339 1.126 . S
C538 C229 1.126 . S
C563 C270 1.126 . S
C568 C248 1.126 . S
C593 C8 1.243 1_565 S
C598 C27 1.181 . S
C623 C50 1.181 . S
C628 C26 1.243 1_655 S
C653 C75 1.181 . S
C658 C48 1.243 1_545 S
C683 C74 1.243 1_455 S
C688 C7 1.181 . S
C713 C96 1.243 1_565 S
C718 C160 1.181 . S
C743 C97 1.181 . S
C748 C118 1.243 1_655 S
C773 C117 1.181 . S
C778 C136 1.243 1_545 S
C803 C137 1.181 . S
C808 C158 1.243 1_455 S
C833 C184 1.243 . S
C838 C203 1.181 . S
C863 C226 1.181 . S
C868 C202 1.243 . S
C893 C224 1.243 . S
C898 C251 1.181 . S
C923 C250 1.243 . S
C928 C183 1.181 . S
C953 C336 1.181 . S
C958 C272 1.243 . S
C983 C273 1.181 . S
C988 C294 1.243 . S
C1013 C293 1.181 . S
C1018 C312 1.243 . S
C1043 C334 1.243 . S
C1048 C313 1.181 . S
C1073 C140 1.344 . S
C1078 C9 1.394 . S
C1103 C162 1.344 . S
C1108 C28 1.394 . S
C1133 C49 1.394 . S
C1138 C92 1.344 . S
C1163 C73 1.394 . S
C1168 C114 1.344 . S
C1193 C52 1.344 . S
C1198 C95 1.394 . S
C1223 C119 1.394 . S
C1228 C70 1.344 . S
C1253 C138 1.394 . S
C1258 C4 1.344 . S
C1283 C30 1.344 . S
C1288 C159 1.394 . S
C1313 C185 1.394 . S
C1318 C316 1.344 . S
C1343 C204 1.394 . S
C1348 C338 1.344 . S
C1373 C268 1.344 . S
C1378 C225 1.394 . S
C1403 C249 1.394 . S
C1408 C290 1.344 . S
C1433 C271 1.394 . S
C1438 C228 1.344 . S
C1463 C295 1.394 . S
C1468 C246 1.344 . S
C1493 C314 1.394 . S
C1498 C180 1.344 . S
C1523 C206 1.344 . S
C1528 C335 1.394 . S
C1553 C337 1.460 . S
C1558 C6 1.460 . S
C1583 C269 1.460 . S
C1588 C31 1.460 . S
C1613 C51 1.460 . S
C1618 C292 1.460 . S
C1643 C317 1.460 . S
C1648 C71 1.460 . S
C1673 C93 1.460 . S
C1678 C207 1.460 . S
C1703 C116 1.460 . S
C1708 C227 1.460 . S
C1733 C247 1.460 . S
C1738 C141 1.460 . S
C1763 C161 1.460 . S
C1768 C182 1.460 . S
