# Generated by pormake.
# Topology svx, (7)-cn, num edge types: 1
# Building blocks:
#     Node 0, Type 0, BuildingBlock: NUHQUE_clean_sbu_2, # of connection points: 7
#     Node 1, Type 0, BuildingBlock: NUHQUE_clean_sbu_2, # of connection points: 7
#     Node 2, Type 0, BuildingBlock: NUHQUE_clean_sbu_2, # of connection points: 7
#     Node 3, Type 0, BuildingBlock: NUHQUE_clean_sbu_2, # of connection points: 7
#     Node 4, Type 0, BuildingBlock: NUHQUE_clean_sbu_2, # of connection points: 7
#     Node 5, Type 0, BuildingBlock: NUHQUE_clean_sbu_2, # of connection points: 7
#     Node 6, Type 0, BuildingBlock: NUHQUE_clean_sbu_2, # of connection points: 7
#     Node 7, Type 0, BuildingBlock: NUHQUE_clean_sbu_2, # of connection points: 7
#     Node 8, Type 0, BuildingBlock: NUHQUE_clean_sbu_2, # of connection points: 7
#     Node 9, Type 0, BuildingBlock: NUHQUE_clean_sbu_2, # of connection points: 7
#     Node 10, Type 0, BuildingBlock: NUHQUE_clean_sbu_2, # of connection points: 7
#     Node 11, Type 0, BuildingBlock: NUHQUE_clean_sbu_2, # of connection points: 7
#     Node 12, Type 0, BuildingBlock: NUHQUE_clean_sbu_2, # of connection points: 7
#     Node 13, Type 0, BuildingBlock: NUHQUE_clean_sbu_2, # of connection points: 7
#     Node 14, Type 0, BuildingBlock: NUHQUE_clean_sbu_2, # of connection points: 7
#     Node 15, Type 0, BuildingBlock: NUHQUE_clean_sbu_2, # of connection points: 7
#     Node 16, Type 0, BuildingBlock: NUHQUE_clean_sbu_2, # of connection points: 7
#     Node 17, Type 0, BuildingBlock: NUHQUE_clean_sbu_2, # of connection points: 7
#     Node 18, Type 0, BuildingBlock: NUHQUE_clean_sbu_2, # of connection points: 7
#     Node 19, Type 0, BuildingBlock: NUHQUE_clean_sbu_2, # of connection points: 7
#     Node 20, Type 0, BuildingBlock: NUHQUE_clean_sbu_2, # of connection points: 7
#     Node 21, Type 0, BuildingBlock: NUHQUE_clean_sbu_2, # of connection points: 7
#     Node 22, Type 0, BuildingBlock: NUHQUE_clean_sbu_2, # of connection points: 7
#     Node 23, Type 0, BuildingBlock: NUHQUE_clean_sbu_2, # of connection points: 7
#     Node 24, Type 0, BuildingBlock: NUHQUE_clean_sbu_2, # of connection points: 7
#     Node 25, Type 0, BuildingBlock: NUHQUE_clean_sbu_2, # of connection points: 7
#     Node 26, Type 0, BuildingBlock: NUHQUE_clean_sbu_2, # of connection points: 7
#     Node 27, Type 0, BuildingBlock: NUHQUE_clean_sbu_2, # of connection points: 7
#     Node 28, Type 0, BuildingBlock: NUHQUE_clean_sbu_2, # of connection points: 7
#     Node 29, Type 0, BuildingBlock: NUHQUE_clean_sbu_2, # of connection points: 7
#     Node 30, Type 0, BuildingBlock: NUHQUE_clean_sbu_2, # of connection points: 7
#     Node 31, Type 0, BuildingBlock: NUHQUE_clean_sbu_2, # of connection points: 7
#     Node 32, Type 0, BuildingBlock: NUHQUE_clean_sbu_2, # of connection points: 7
#     Node 33, Type 0, BuildingBlock: NUHQUE_clean_sbu_2, # of connection points: 7
#     Node 34, Type 0, BuildingBlock: NUHQUE_clean_sbu_2, # of connection points: 7
#     Node 35, Type 0, BuildingBlock: NUHQUE_clean_sbu_2, # of connection points: 7
#     Node 36, Type 0, BuildingBlock: NUHQUE_clean_sbu_2, # of connection points: 7
#     Node 37, Type 0, BuildingBlock: NUHQUE_clean_sbu_2, # of connection points: 7
#     Node 38, Type 0, BuildingBlock: NUHQUE_clean_sbu_2, # of connection points: 7
#     Node 39, Type 0, BuildingBlock: NUHQUE_clean_sbu_2, # of connection points: 7
#     Node 40, Type 0, BuildingBlock: NUHQUE_clean_sbu_2, # of connection points: 7
#     Node 41, Type 0, BuildingBlock: NUHQUE_clean_sbu_2, # of connection points: 7
#     Node 42, Type 0, BuildingBlock: NUHQUE_clean_sbu_2, # of connection points: 7
#     Node 43, Type 0, BuildingBlock: NUHQUE_clean_sbu_2, # of connection points: 7
#     Node 44, Type 0, BuildingBlock: NUHQUE_clean_sbu_2, # of connection points: 7
#     Node 45, Type 0, BuildingBlock: NUHQUE_clean_sbu_2, # of connection points: 7
#     Node 46, Type 0, BuildingBlock: NUHQUE_clean_sbu_2, # of connection points: 7
#     Node 47, Type 0, BuildingBlock: NUHQUE_clean_sbu_2, # of connection points: 7
#     Edge 48, Type (0, 0), BuildingBlock: AJUNOK_clean_linker_0, # of connection points: 2
#     Edge 49, Type (0, 0), BuildingBlock: AJUNOK_clean_linker_0, # of connection points: 2
#     Edge 50, Type (0, 0), BuildingBlock: AJUNOK_clean_linker_0, # of connection points: 2
#     Edge 51, Type (0, 0), BuildingBlock: AJUNOK_clean_linker_0, # of connection points: 2
#     Edge 52, Type (0, 0), BuildingBlock: AJUNOK_clean_linker_0, # of connection points: 2
#     Edge 53, Type (0, 0), BuildingBlock: AJUNOK_clean_linker_0, # of connection points: 2
#     Edge 54, Type (0, 0), BuildingBlock: AJUNOK_clean_linker_0, # of connection points: 2
#     Edge 55, Type (0, 0), BuildingBlock: AJUNOK_clean_linker_0, # of connection points: 2
#     Edge 56, Type (0, 0), BuildingBlock: AJUNOK_clean_linker_0, # of connection points: 2
#     Edge 57, Type (0, 0), BuildingBlock: AJUNOK_clean_linker_0, # of connection points: 2
#     Edge 58, Type (0, 0), BuildingBlock: AJUNOK_clean_linker_0, # of connection points: 2
#     Edge 59, Type (0, 0), BuildingBlock: AJUNOK_clean_linker_0, # of connection points: 2
#     Edge 60, Type (0, 0), BuildingBlock: AJUNOK_clean_linker_0, # of connection points: 2
#     Edge 61, Type (0, 0), BuildingBlock: AJUNOK_clean_linker_0, # of connection points: 2
#     Edge 62, Type (0, 0), BuildingBlock: AJUNOK_clean_linker_0, # of connection points: 2
#     Edge 63, Type (0, 0), BuildingBlock: AJUNOK_clean_linker_0, # of connection points: 2
#     Edge 64, Type (0, 0), BuildingBlock: AJUNOK_clean_linker_0, # of connection points: 2
#     Edge 65, Type (0, 0), BuildingBlock: AJUNOK_clean_linker_0, # of connection points: 2
#     Edge 66, Type (0, 0), BuildingBlock: AJUNOK_clean_linker_0, # of connection points: 2
#     Edge 67, Type (0, 0), BuildingBlock: AJUNOK_clean_linker_0, # of connection points: 2
#     Edge 68, Type (0, 0), BuildingBlock: AJUNOK_clean_linker_0, # of connection points: 2
#     Edge 69, Type (0, 0), BuildingBlock: AJUNOK_clean_linker_0, # of connection points: 2
#     Edge 70, Type (0, 0), BuildingBlock: AJUNOK_clean_linker_0, # of connection points: 2
#     Edge 71, Type (0, 0), BuildingBlock: AJUNOK_clean_linker_0, # of connection points: 2
#     Edge 72, Type (0, 0), BuildingBlock: AJUNOK_clean_linker_0, # of connection points: 2
#     Edge 73, Type (0, 0), BuildingBlock: AJUNOK_clean_linker_0, # of connection points: 2
#     Edge 74, Type (0, 0), BuildingBlock: AJUNOK_clean_linker_0, # of connection points: 2
#     Edge 75, Type (0, 0), BuildingBlock: AJUNOK_clean_linker_0, # of connection points: 2
#     Edge 76, Type (0, 0), BuildingBlock: AJUNOK_clean_linker_0, # of connection points: 2
#     Edge 77, Type (0, 0), BuildingBlock: AJUNOK_clean_linker_0, # of connection points: 2
#     Edge 78, Type (0, 0), BuildingBlock: AJUNOK_clean_linker_0, # of connection points: 2
#     Edge 79, Type (0, 0), BuildingBlock: AJUNOK_clean_linker_0, # of connection points: 2
#     Edge 80, Type (0, 0), BuildingBlock: AJUNOK_clean_linker_0, # of connection points: 2
#     Edge 81, Type (0, 0), BuildingBlock: AJUNOK_clean_linker_0, # of connection points: 2
#     Edge 82, Type (0, 0), BuildingBlock: AJUNOK_clean_linker_0, # of connection points: 2
#     Edge 83, Type (0, 0), BuildingBlock: AJUNOK_clean_linker_0, # of connection points: 2
#     Edge 84, Type (0, 0), BuildingBlock: AJUNOK_clean_linker_0, # of connection points: 2
#     Edge 85, Type (0, 0), BuildingBlock: AJUNOK_clean_linker_0, # of connection points: 2
#     Edge 86, Type (0, 0), BuildingBlock: AJUNOK_clean_linker_0, # of connection points: 2
#     Edge 87, Type (0, 0), BuildingBlock: AJUNOK_clean_linker_0, # of connection points: 2
#     Edge 88, Type (0, 0), BuildingBlock: AJUNOK_clean_linker_0, # of connection points: 2
#     Edge 89, Type (0, 0), BuildingBlock: AJUNOK_clean_linker_0, # of connection points: 2
#     Edge 90, Type (0, 0), BuildingBlock: AJUNOK_clean_linker_0, # of connection points: 2
#     Edge 91, Type (0, 0), BuildingBlock: AJUNOK_clean_linker_0, # of connection points: 2
#     Edge 92, Type (0, 0), BuildingBlock: AJUNOK_clean_linker_0, # of connection points: 2
#     Edge 93, Type (0, 0), BuildingBlock: AJUNOK_clean_linker_0, # of connection points: 2
#     Edge 94, Type (0, 0), BuildingBlock: AJUNOK_clean_linker_0, # of connection points: 2
#     Edge 95, Type (0, 0), BuildingBlock: AJUNOK_clean_linker_0, # of connection points: 2
#     Edge 96, Type (0, 0), BuildingBlock: AJUNOK_clean_linker_0, # of connection points: 2
#     Edge 97, Type (0, 0), BuildingBlock: AJUNOK_clean_linker_0, # of connection points: 2
#     Edge 98, Type (0, 0), BuildingBlock: AJUNOK_clean_linker_0, # of connection points: 2
#     Edge 99, Type (0, 0), BuildingBlock: AJUNOK_clean_linker_0, # of connection points: 2
#     Edge 100, Type (0, 0), BuildingBlock: AJUNOK_clean_linker_0, # of connection points: 2
#     Edge 101, Type (0, 0), BuildingBlock: AJUNOK_clean_linker_0, # of connection points: 2
#     Edge 102, Type (0, 0), BuildingBlock: AJUNOK_clean_linker_0, # of connection points: 2
#     Edge 103, Type (0, 0), BuildingBlock: AJUNOK_clean_linker_0, # of connection points: 2
#     Edge 104, Type (0, 0), BuildingBlock: AJUNOK_clean_linker_0, # of connection points: 2
#     Edge 105, Type (0, 0), BuildingBlock: AJUNOK_clean_linker_0, # of connection points: 2
#     Edge 106, Type (0, 0), BuildingBlock: AJUNOK_clean_linker_0, # of connection points: 2
#     Edge 107, Type (0, 0), BuildingBlock: AJUNOK_clean_linker_0, # of connection points: 2
#     Edge 108, Type (0, 0), BuildingBlock: AJUNOK_clean_linker_0, # of connection points: 2
#     Edge 109, Type (0, 0), BuildingBlock: AJUNOK_clean_linker_0, # of connection points: 2
#     Edge 110, Type (0, 0), BuildingBlock: AJUNOK_clean_linker_0, # of connection points: 2
#     Edge 111, Type (0, 0), BuildingBlock: AJUNOK_clean_linker_0, # of connection points: 2
#     Edge 112, Type (0, 0), BuildingBlock: AJUNOK_clean_linker_0, # of connection points: 2
#     Edge 113, Type (0, 0), BuildingBlock: AJUNOK_clean_linker_0, # of connection points: 2
#     Edge 114, Type (0, 0), BuildingBlock: AJUNOK_clean_linker_0, # of connection points: 2
#     Edge 115, Type (0, 0), BuildingBlock: AJUNOK_clean_linker_0, # of connection points: 2
#     Edge 116, Type (0, 0), BuildingBlock: AJUNOK_clean_linker_0, # of connection points: 2
#     Edge 117, Type (0, 0), BuildingBlock: AJUNOK_clean_linker_0, # of connection points: 2
#     Edge 118, Type (0, 0), BuildingBlock: AJUNOK_clean_linker_0, # of connection points: 2
#     Edge 119, Type (0, 0), BuildingBlock: AJUNOK_clean_linker_0, # of connection points: 2
#     Edge 120, Type (0, 0), BuildingBlock: AJUNOK_clean_linker_0, # of connection points: 2
#     Edge 121, Type (0, 0), BuildingBlock: AJUNOK_clean_linker_0, # of connection points: 2
#     Edge 122, Type (0, 0), BuildingBlock: AJUNOK_clean_linker_0, # of connection points: 2
#     Edge 123, Type (0, 0), BuildingBlock: AJUNOK_clean_linker_0, # of connection points: 2
#     Edge 124, Type (0, 0), BuildingBlock: AJUNOK_clean_linker_0, # of connection points: 2
#     Edge 125, Type (0, 0), BuildingBlock: AJUNOK_clean_linker_0, # of connection points: 2
#     Edge 126, Type (0, 0), BuildingBlock: AJUNOK_clean_linker_0, # of connection points: 2
#     Edge 127, Type (0, 0), BuildingBlock: AJUNOK_clean_linker_0, # of connection points: 2
#     Edge 128, Type (0, 0), BuildingBlock: AJUNOK_clean_linker_0, # of connection points: 2
#     Edge 129, Type (0, 0), BuildingBlock: AJUNOK_clean_linker_0, # of connection points: 2
#     Edge 130, Type (0, 0), BuildingBlock: AJUNOK_clean_linker_0, # of connection points: 2
#     Edge 131, Type (0, 0), BuildingBlock: AJUNOK_clean_linker_0, # of connection points: 2
#     Edge 132, Type (0, 0), BuildingBlock: AJUNOK_clean_linker_0, # of connection points: 2
#     Edge 133, Type (0, 0), BuildingBlock: AJUNOK_clean_linker_0, # of connection points: 2
#     Edge 134, Type (0, 0), BuildingBlock: AJUNOK_clean_linker_0, # of connection points: 2
#     Edge 135, Type (0, 0), BuildingBlock: AJUNOK_clean_linker_0, # of connection points: 2
#     Edge 136, Type (0, 0), BuildingBlock: AJUNOK_clean_linker_0, # of connection points: 2
#     Edge 137, Type (0, 0), BuildingBlock: AJUNOK_clean_linker_0, # of connection points: 2
#     Edge 138, Type (0, 0), BuildingBlock: AJUNOK_clean_linker_0, # of connection points: 2
#     Edge 139, Type (0, 0), BuildingBlock: AJUNOK_clean_linker_0, # of connection points: 2
#     Edge 140, Type (0, 0), BuildingBlock: AJUNOK_clean_linker_0, # of connection points: 2
#     Edge 141, Type (0, 0), BuildingBlock: AJUNOK_clean_linker_0, # of connection points: 2
#     Edge 142, Type (0, 0), BuildingBlock: AJUNOK_clean_linker_0, # of connection points: 2
#     Edge 143, Type (0, 0), BuildingBlock: AJUNOK_clean_linker_0, # of connection points: 2
#     Edge 144, Type (0, 0), BuildingBlock: AJUNOK_clean_linker_0, # of connection points: 2
#     Edge 145, Type (0, 0), BuildingBlock: AJUNOK_clean_linker_0, # of connection points: 2
#     Edge 146, Type (0, 0), BuildingBlock: AJUNOK_clean_linker_0, # of connection points: 2
#     Edge 147, Type (0, 0), BuildingBlock: AJUNOK_clean_linker_0, # of connection points: 2
#     Edge 148, Type (0, 0), BuildingBlock: AJUNOK_clean_linker_0, # of connection points: 2
#     Edge 149, Type (0, 0), BuildingBlock: AJUNOK_clean_linker_0, # of connection points: 2
#     Edge 150, Type (0, 0), BuildingBlock: AJUNOK_clean_linker_0, # of connection points: 2
#     Edge 151, Type (0, 0), BuildingBlock: AJUNOK_clean_linker_0, # of connection points: 2
#     Edge 152, Type (0, 0), BuildingBlock: AJUNOK_clean_linker_0, # of connection points: 2
#     Edge 153, Type (0, 0), BuildingBlock: AJUNOK_clean_linker_0, # of connection points: 2
#     Edge 154, Type (0, 0), BuildingBlock: AJUNOK_clean_linker_0, # of connection points: 2
#     Edge 155, Type (0, 0), BuildingBlock: AJUNOK_clean_linker_0, # of connection points: 2
#     Edge 156, Type (0, 0), BuildingBlock: AJUNOK_clean_linker_0, # of connection points: 2
#     Edge 157, Type (0, 0), BuildingBlock: AJUNOK_clean_linker_0, # of connection points: 2
#     Edge 158, Type (0, 0), BuildingBlock: AJUNOK_clean_linker_0, # of connection points: 2
#     Edge 159, Type (0, 0), BuildingBlock: AJUNOK_clean_linker_0, # of connection points: 2
#     Edge 160, Type (0, 0), BuildingBlock: AJUNOK_clean_linker_0, # of connection points: 2
#     Edge 161, Type (0, 0), BuildingBlock: AJUNOK_clean_linker_0, # of connection points: 2
#     Edge 162, Type (0, 0), BuildingBlock: AJUNOK_clean_linker_0, # of connection points: 2
#     Edge 163, Type (0, 0), BuildingBlock: AJUNOK_clean_linker_0, # of connection points: 2
#     Edge 164, Type (0, 0), BuildingBlock: AJUNOK_clean_linker_0, # of connection points: 2
#     Edge 165, Type (0, 0), BuildingBlock: AJUNOK_clean_linker_0, # of connection points: 2
#     Edge 166, Type (0, 0), BuildingBlock: AJUNOK_clean_linker_0, # of connection points: 2
#     Edge 167, Type (0, 0), BuildingBlock: AJUNOK_clean_linker_0, # of connection points: 2
#     Edge 168, Type (0, 0), BuildingBlock: AJUNOK_clean_linker_0, # of connection points: 2
#     Edge 169, Type (0, 0), BuildingBlock: AJUNOK_clean_linker_0, # of connection points: 2
#     Edge 170, Type (0, 0), BuildingBlock: AJUNOK_clean_linker_0, # of connection points: 2
#     Edge 171, Type (0, 0), BuildingBlock: AJUNOK_clean_linker_0, # of connection points: 2
#     Edge 172, Type (0, 0), BuildingBlock: AJUNOK_clean_linker_0, # of connection points: 2
#     Edge 173, Type (0, 0), BuildingBlock: AJUNOK_clean_linker_0, # of connection points: 2
#     Edge 174, Type (0, 0), BuildingBlock: AJUNOK_clean_linker_0, # of connection points: 2
#     Edge 175, Type (0, 0), BuildingBlock: AJUNOK_clean_linker_0, # of connection points: 2
#     Edge 176, Type (0, 0), BuildingBlock: AJUNOK_clean_linker_0, # of connection points: 2
#     Edge 177, Type (0, 0), BuildingBlock: AJUNOK_clean_linker_0, # of connection points: 2
#     Edge 178, Type (0, 0), BuildingBlock: AJUNOK_clean_linker_0, # of connection points: 2
#     Edge 179, Type (0, 0), BuildingBlock: AJUNOK_clean_linker_0, # of connection points: 2
#     Edge 180, Type (0, 0), BuildingBlock: AJUNOK_clean_linker_0, # of connection points: 2
#     Edge 181, Type (0, 0), BuildingBlock: AJUNOK_clean_linker_0, # of connection points: 2
#     Edge 182, Type (0, 0), BuildingBlock: AJUNOK_clean_linker_0, # of connection points: 2
#     Edge 183, Type (0, 0), BuildingBlock: AJUNOK_clean_linker_0, # of connection points: 2
#     Edge 184, Type (0, 0), BuildingBlock: AJUNOK_clean_linker_0, # of connection points: 2
#     Edge 185, Type (0, 0), BuildingBlock: AJUNOK_clean_linker_0, # of connection points: 2
#     Edge 186, Type (0, 0), BuildingBlock: AJUNOK_clean_linker_0, # of connection points: 2
#     Edge 187, Type (0, 0), BuildingBlock: AJUNOK_clean_linker_0, # of connection points: 2
#     Edge 188, Type (0, 0), BuildingBlock: AJUNOK_clean_linker_0, # of connection points: 2
#     Edge 189, Type (0, 0), BuildingBlock: AJUNOK_clean_linker_0, # of connection points: 2
#     Edge 190, Type (0, 0), BuildingBlock: AJUNOK_clean_linker_0, # of connection points: 2
#     Edge 191, Type (0, 0), BuildingBlock: AJUNOK_clean_linker_0, # of connection points: 2
#     Edge 192, Type (0, 0), BuildingBlock: AJUNOK_clean_linker_0, # of connection points: 2
#     Edge 193, Type (0, 0), BuildingBlock: AJUNOK_clean_linker_0, # of connection points: 2
#     Edge 194, Type (0, 0), BuildingBlock: AJUNOK_clean_linker_0, # of connection points: 2
#     Edge 195, Type (0, 0), BuildingBlock: AJUNOK_clean_linker_0, # of connection points: 2
#     Edge 196, Type (0, 0), BuildingBlock: AJUNOK_clean_linker_0, # of connection points: 2
#     Edge 197, Type (0, 0), BuildingBlock: AJUNOK_clean_linker_0, # of connection points: 2
#     Edge 198, Type (0, 0), BuildingBlock: AJUNOK_clean_linker_0, # of connection points: 2
#     Edge 199, Type (0, 0), BuildingBlock: AJUNOK_clean_linker_0, # of connection points: 2
#     Edge 200, Type (0, 0), BuildingBlock: AJUNOK_clean_linker_0, # of connection points: 2
#     Edge 201, Type (0, 0), BuildingBlock: AJUNOK_clean_linker_0, # of connection points: 2
#     Edge 202, Type (0, 0), BuildingBlock: AJUNOK_clean_linker_0, # of connection points: 2
#     Edge 203, Type (0, 0), BuildingBlock: AJUNOK_clean_linker_0, # of connection points: 2
#     Edge 204, Type (0, 0), BuildingBlock: AJUNOK_clean_linker_0, # of connection points: 2
#     Edge 205, Type (0, 0), BuildingBlock: AJUNOK_clean_linker_0, # of connection points: 2
#     Edge 206, Type (0, 0), BuildingBlock: AJUNOK_clean_linker_0, # of connection points: 2
#     Edge 207, Type (0, 0), BuildingBlock: AJUNOK_clean_linker_0, # of connection points: 2
#     Edge 208, Type (0, 0), BuildingBlock: AJUNOK_clean_linker_0, # of connection points: 2
#     Edge 209, Type (0, 0), BuildingBlock: AJUNOK_clean_linker_0, # of connection points: 2
#     Edge 210, Type (0, 0), BuildingBlock: AJUNOK_clean_linker_0, # of connection points: 2
#     Edge 211, Type (0, 0), BuildingBlock: AJUNOK_clean_linker_0, # of connection points: 2
#     Edge 212, Type (0, 0), BuildingBlock: AJUNOK_clean_linker_0, # of connection points: 2
#     Edge 213, Type (0, 0), BuildingBlock: AJUNOK_clean_linker_0, # of connection points: 2
#     Edge 214, Type (0, 0), BuildingBlock: AJUNOK_clean_linker_0, # of connection points: 2
#     Edge 215, Type (0, 0), BuildingBlock: AJUNOK_clean_linker_0, # of connection points: 2
# Relax obj value: 0.309
# Max RMSD: 0.248
# Mean RMSD: 0.248
data_MOF--net-svx--node1-NUHQUE_clean_sbu_2--edge1-AJUNOK_clean_linker_0
_symmetry_space_group_name_H-M    P1
_symmetry_Int_Tables_number       1
_symmetry_cell_setting            triclinic
loop_
_symmetry_equiv_pos_as_xyz
'x, y, z'
_cell_length_a     51.724486
_cell_length_b     51.760794
_cell_length_c     51.810697
_cell_angle_alpha  89.877193
_cell_angle_beta   90.171609
_cell_angle_gamma 90.0242
loop_
_atom_site_label
_atom_site_type_symbol
_atom_site_fract_x
_atom_site_fract_y
_atom_site_fract_z
_atom_type_partial_charge
O0 O 0.1294 0.32734 0.35676 0.0
Tb1 Tb 0.10531 0.35395 0.33544 0.0
Eu2 Eu 0.10859 0.37577 0.2751 0.0
C3 C 0.13032 0.3026 0.3517 0.0
O4 O 0.12081 0.29413 0.32977 0.0
C5 C 0.0692 0.32617 0.29189 0.0
O6 O 0.11677 0.40565 0.24142 0.0
C7 C 0.14884 0.34667 0.27377 0.0
C8 C 0.14077 0.41497 0.23758 0.0
O9 O 0.15882 0.40719 0.25371 0.0
C10 C 0.13137 0.40628 0.32544 0.0
C11 C 0.17197 0.33047 0.27244 0.0
C12 C 0.17683 0.31179 0.29161 0.0
C13 C 0.19966 0.29743 0.29095 0.0
C14 C 0.21765 0.30194 0.27139 0.0
C15 C 0.21301 0.32048 0.25231 0.0
C16 C 0.19003 0.3346 0.25259 0.0
O17 O 0.08345 0.32482 0.31314 0.0
O18 O 0.0726 0.34636 0.27546 0.0
O19 O 0.09295 0.35455 0.37514 0.0
O20 O 0.07364 0.37916 0.34818 0.0
C21 C 0.07543 0.37221 0.37237 0.0
O22 O 0.11589 0.40896 0.30497 0.0
O23 O 0.13602 0.38281 0.33365 0.0
O24 O 0.13806 0.35609 0.2528 0.0
O25 O 0.13695 0.35178 0.29545 0.0
H26 H 0.16306 0.30846 0.3069 0.0
H27 H 0.23525 0.29053 0.27073 0.0
H28 H 0.18653 0.34906 0.23781 0.0
O29 O 0.57741 0.68125 0.95173 0.0
Tb30 Tb 0.60266 0.70581 0.9739 0.0
Eu31 Eu 0.62312 0.70156 0.03344 0.0
C32 C 0.55251 0.67985 0.95565 0.0
O33 O 0.54272 0.69006 0.97664 0.0
C34 C 0.57543 0.74248 1.01668 0.0
O35 O 0.65107 0.69267 0.06858 0.0
C36 C 0.58819 0.66547 0.03337 0.0
C37 C 0.6686 0.6735 0.06805 0.0
O38 O 0.67018 0.65986 0.04677 0.0
C39 C 0.65411 0.67772 0.9838 0.0
C40 C 0.58014 0.63826 0.03173 0.0
C41 C 0.562 0.63151 1.01256 0.0
C42 C 0.55142 0.6067 1.01185 0.0
C43 C 0.55905 0.58854 0.03036 0.0
C44 C 0.57651 0.59508 0.05002 0.0
C45 C 0.58716 0.62 0.05071 0.0
O46 O 0.57322 0.72749 0.99606 0.0
O47 O 0.59615 0.73922 0.03252 0.0
O48 O 0.60305 0.71982 0.93475 0.0
O49 O 0.62946 0.73645 0.96187 0.0
C50 C 0.62187 0.73605 0.9378 0.0
O51 O 0.65685 0.69266 1.00454 0.0
O52 O 0.63059 0.67413 0.97514 0.0
O53 O 0.59934 0.67397 0.05454 0.0
O54 O 0.59652 0.67672 1.01232 0.0
H55 H 0.55536 0.64578 0.99879 0.0
H56 H 0.54987 0.56966 0.03053 0.0
H57 H 0.59999 0.62532 0.06639 0.0
O58 O 0.93257 0.23699 0.35521 0.0
Tb59 Tb 0.95475 0.20798 0.33528 0.0
Eu60 Eu 0.95011 0.18818 0.27481 0.0
C61 C 0.93191 0.26109 0.34749 0.0
O62 O 0.93973 0.26692 0.32412 0.0
C63 C 0.99202 0.23498 0.29189 0.0
O64 O 0.94116 0.16105 0.23916 0.0
C65 C 0.91381 0.22285 0.27558 0.0
C66 C 0.92273 0.1427 0.23942 0.0
O67 O 0.91006 0.13914 0.26106 0.0
C68 C 0.92625 0.15691 0.32443 0.0
C69 C 0.88638 0.22993 0.27799 0.0
C70 C 0.87949 0.24756 0.29746 0.0
C71 C 0.85445 0.25752 0.2987 0.0
C72 C 0.83608 0.24944 0.28064 0.0
C73 C 0.84265 0.23234 0.2608 0.0
C74 C 0.86789 0.22259 0.25936 0.0
O75 O 0.97841 0.23616 0.31348 0.0
O76 O 0.98772 0.21524 0.27521 0.0
O77 O 0.96625 0.20661 0.3753 0.0
O78 O 0.98599 0.18243 0.34852 0.0
C79 C 0.98398 0.18916 0.37271 0.0
O80 O 0.94118 0.15434 0.30366 0.0
O81 O 0.92285 0.18029 0.33343 0.0
O82 O 0.92191 0.21183 0.25427 0.0
O83 O 0.92584 0.21478 0.29635 0.0
H84 H 0.89381 0.25449 0.31094 0.0
H85 H 0.81698 0.25815 0.28081 0.0
H86 H 0.87321 0.21018 0.24342 0.0
O87 O 0.48228 0.87504 0.94889 0.0
Tb88 Tb 0.45661 0.85649 0.97572 0.0
Eu89 Eu 0.43727 0.86114 0.03451 0.0
C90 C 0.50632 0.88067 0.95429 0.0
O91 O 0.51528 0.87625 0.97761 0.0
C92 C 0.48562 0.82122 1.01776 0.0
O93 O 0.40951 0.86981 0.06964 0.0
C94 C 0.47192 0.89755 0.03487 0.0
C95 C 0.39189 0.88894 0.06928 0.0
O96 O 0.38953 0.90232 0.04784 0.0
C97 C 0.40644 0.88529 0.98494 0.0
C98 C 0.47968 0.92485 0.03272 0.0
C99 C 0.49775 0.93145 1.01351 0.0
C100 C 0.50802 0.95634 1.01222 0.0
C101 C 0.50007 0.97478 0.03011 0.0
C102 C 0.48253 0.96855 0.04971 0.0
C103 C 0.47234 0.94345 0.05116 0.0
O104 O 0.48774 0.8371 0.99778 0.0
O105 O 0.46465 0.82366 0.03331 0.0
O106 O 0.44722 0.84074 0.93841 0.0
O107 O 0.43249 0.82185 0.97182 0.0
C108 C 0.43296 0.82192 0.94664 0.0
O109 O 0.40341 0.86998 1.0054 0.0
O110 O 0.43017 0.88917 0.97732 0.0
O111 O 0.46028 0.88932 0.05584 0.0
O112 O 0.46431 0.8858 1.01385 0.0
H113 H 0.50458 0.91705 1.00014 0.0
H114 H 0.509 0.99378 0.02983 0.0
H115 H 0.45949 0.93836 0.06684 0.0
O116 O 0.11331 0.73213 0.19191 0.0
Tb117 Tb 0.10054 0.70552 0.22117 0.0
Eu118 Eu 0.10853 0.68619 0.28081 0.0
C119 C 0.13766 0.73814 0.18842 0.0
O120 O 0.15552 0.72991 0.20448 0.0
C121 C 0.06958 0.73625 0.2646 0.0
O122 O 0.1153 0.65762 0.31586 0.0
C123 C 0.14902 0.71522 0.282 0.0
C124 C 0.13523 0.64092 0.3162 0.0
O125 O 0.15002 0.6402 0.29565 0.0
C126 C 0.13138 0.65644 0.2305 0.0
C127 C 0.17237 0.7313 0.28336 0.0
C128 C 0.17726 0.75032 0.26446 0.0
C129 C 0.2006 0.76403 0.26496 0.0
C130 C 0.21873 0.75889 0.28435 0.0
C131 C 0.21395 0.74027 0.30326 0.0
C132 C 0.19073 0.72654 0.30293 0.0
O133 O 0.08428 0.73769 0.24374 0.0
O134 O 0.07255 0.71563 0.28059 0.0
O135 O 0.08279 0.69215 0.1859 0.0
O136 O 0.06559 0.68145 0.22173 0.0
C137 C 0.06431 0.67919 0.19666 0.0
O138 O 0.11658 0.65291 0.25123 0.0
O139 O 0.13416 0.68022 0.22231 0.0
O140 O 0.13954 0.70407 0.30269 0.0
O141 O 0.13585 0.7116 0.26067 0.0
H142 H 0.16314 0.7544 0.24952 0.0
H143 H 0.23671 0.76974 0.2849 0.0
H144 H 0.1873 0.71183 0.31746 0.0
O145 O 0.9843 0.69527 0.11454 0.0
Tb146 Tb 0.95749 0.7079 0.08538 0.0
Eu147 Eu 0.93738 0.70038 1.02658 0.0
C148 C 0.98859 0.67091 0.11996 0.0
O149 O 0.97908 0.65245 0.10545 0.0
C150 C 0.9862 0.73967 0.04232 0.0
O151 O 0.90962 0.69168 0.9913 0.0
C152 C 0.9722 0.66422 1.02616 0.0
C153 C 0.89101 0.67352 0.99185 0.0
O154 O 0.88728 0.66121 1.01371 0.0
C155 C 0.9077 0.67708 0.07747 0.0
C156 C 0.98027 0.637 1.02754 0.0
C157 C 0.99856 0.63024 0.04657 0.0
C158 C 1.00896 0.60537 0.04734 0.0
C159 C 1.00106 0.58718 1.02907 0.0
C160 C 0.98356 0.59371 1.00943 0.0
C161 C 0.97307 0.61873 1.00862 0.0
O162 O 0.98912 0.72265 0.06117 0.0
O163 O 0.96434 0.73814 1.02785 0.0
O164 O 0.94706 0.7279 0.12025 0.0
O165 O 0.93379 0.7431 0.08428 0.0
C166 C 0.9337 0.74605 0.10931 0.0
O167 O 0.90424 0.69107 0.0561 0.0
O168 O 0.9314 0.67479 0.08613 0.0
O169 O 0.96106 0.67305 1.00509 0.0
O170 O 0.96392 0.67515 0.04735 0.0
H171 H 1.00552 0.64462 0.06011 0.0
H172 H 1.01013 0.56826 1.02898 0.0
H173 H 0.96013 0.62409 0.99301 0.0
O174 O 0.93765 0.82473 0.19867 0.0
Tb175 Tb 0.9562 0.85323 0.22274 0.0
Eu176 Eu 0.95053 0.87377 0.2815 0.0
C177 C 0.9263 0.83132 0.17688 0.0
O178 O 0.9248 0.8558 0.1704 0.0
C179 C 0.99039 0.82536 0.26573 0.0
O180 O 0.94171 0.9019 0.31629 0.0
C181 C 0.91433 0.83897 0.28204 0.0
C182 C 0.92197 0.91879 0.31573 0.0
O183 O 0.90787 0.91961 0.29462 0.0
C184 C 0.92662 0.90388 0.23101 0.0
C185 C 0.88703 0.83109 0.28054 0.0
C186 C 0.88009 0.81314 0.26132 0.0
C187 C 0.85513 0.80287 0.26055 0.0
C188 C 0.83707 0.81059 0.27898 0.0
C189 C 0.84374 0.82786 0.29866 0.0
C190 C 0.86884 0.83819 0.29951 0.0
O191 O 0.97384 0.82241 0.24642 0.0
O192 O 0.98832 0.84691 0.28047 0.0
O193 O 0.97555 0.86118 0.1866 0.0
O194 O 0.99066 0.87789 0.22113 0.0
C195 C 0.99314 0.87621 0.19615 0.0
O196 O 0.94131 0.90707 0.25196 0.0
O197 O 0.92372 0.88024 0.22248 0.0
O198 O 0.92311 0.85015 0.30306 0.0
O199 O 0.9254 0.84715 0.26084 0.0
H200 H 0.89433 0.80646 0.24752 0.0
H201 H 0.81808 0.80162 0.27905 0.0
H202 H 0.8743 0.85091 0.31519 0.0
O203 O 0.07735 0.86199 0.11639 0.0
Tb204 Tb 0.10482 0.85119 0.08739 0.0
Eu205 Eu 0.12301 0.85915 1.02773 0.0
C206 C 0.07045 0.8859 0.12076 0.0
O207 O 0.07788 0.90467 0.10542 0.0
C208 C 0.0751 0.81917 0.04445 0.0
O209 O 0.15094 0.86766 0.99265 0.0
C210 C 0.08781 0.89494 1.0269 0.0
C211 C 0.16798 0.88728 0.99286 0.0
O212 O 0.16905 0.90153 1.01378 0.0
C213 C 0.15287 0.88356 0.07803 0.0
C214 C 0.0798 0.92221 1.02801 0.0
C215 C 0.06141 0.92922 0.04676 0.0
C216 C 0.05131 0.95426 0.04727 0.0
C217 C 0.05955 0.97225 1.02893 0.0
C218 C 0.07708 0.96541 1.00957 0.0
C219 C 0.0873 0.94032 1.00906 0.0
O220 O 0.07291 0.83562 0.06384 0.0
O221 O 0.0963 0.82124 1.02922 0.0
O222 O 0.11864 0.83454 0.12304 0.0
O223 O 0.12863 0.81602 0.08774 0.0
C224 C 0.13129 0.8156 0.11284 0.0
O225 O 0.15638 0.86932 0.05692 0.0
O226 O 0.12918 0.88551 0.0866 0.0
O227 O 0.09903 0.88614 1.00597 0.0
O228 O 0.09615 0.8841 0.04822 0.0
H229 H 0.05419 0.91495 0.06028 0.0
H230 H 0.05076 0.9913 1.02856 0.0
H231 H 0.10028 0.93481 0.99365 0.0
O232 O 0.3587 0.11778 0.32498 0.0
Tb233 Tb 0.33418 0.10293 0.35508 0.0
Eu234 Eu 0.27629 0.10746 0.37673 0.0
C235 C 0.38054 0.1297 0.33 0.0
O236 O 0.38586 0.13702 0.35364 0.0
C237 C 0.29127 0.07034 0.3257 0.0
O238 O 0.24209 0.11472 0.40597 0.0
C239 C 0.27424 0.14778 0.34768 0.0
C240 C 0.2415 0.13614 0.42062 0.0
O241 O 0.26121 0.15202 0.41868 0.0
C242 C 0.32699 0.1316 0.40586 0.0
C243 C 0.27283 0.1708 0.33132 0.0
C244 C 0.29166 0.17514 0.31223 0.0
C245 C 0.29118 0.19804 0.29792 0.0
C246 C 0.27207 0.21647 0.30272 0.0
C247 C 0.25325 0.21227 0.32153 0.0
C248 C 0.25341 0.1893 0.33572 0.0
O249 O 0.31026 0.08729 0.32353 0.0
O250 O 0.27655 0.07146 0.34731 0.0
O251 O 0.3702 0.0837 0.36406 0.0
O252 O 0.33523 0.06732 0.37824 0.0
C253 C 0.36037 0.06528 0.37781 0.0
O254 O 0.30677 0.11592 0.40934 0.0
O255 O 0.3349 0.13516 0.38211 0.0
O256 O 0.25358 0.13782 0.35848 0.0
O257 O 0.29583 0.13518 0.35163 0.0
H258 H 0.30657 0.16091 0.30856 0.0
H259 H 0.27153 0.2341 0.2913 0.0
H260 H 0.23889 0.18617 0.35044 0.0
O261 O 0.3761 0.4496 0.98274 0.0
Tb262 Tb 0.35516 0.47519 0.95736 0.0
Eu263 Eu 0.35898 0.53336 0.93493 0.0
C264 C 0.38011 0.45484 1.00711 0.0
O265 O 0.37468 0.478 1.01582 0.0
C266 C 0.32041 0.51815 0.98432 0.0
O267 O 0.36749 0.56822 0.9067 0.0
C268 C 0.39565 0.53493 0.96926 0.0
C269 C 0.38644 0.56773 0.88898 0.0
O270 O 0.39954 0.54615 0.88647 0.0
C271 C 0.38309 0.48247 0.90564 0.0
C272 C 0.42298 0.53351 0.97705 0.0
C273 C 0.42983 0.5142 0.99495 0.0
C274 C 0.45463 0.51337 1.00543 0.0
C275 C 0.47285 0.5317 0.9978 0.0
C276 C 0.46638 0.55145 0.98045 0.0
C277 C 0.44126 0.55254 0.97009 0.0
O278 O 0.33822 0.50011 0.98739 0.0
O279 O 0.3214 0.5323 0.96225 0.0
O280 O 0.3361 0.43822 0.95609 0.0
O281 O 0.32219 0.46829 0.93145 0.0
C282 C 0.31953 0.44412 0.93824 0.0
O283 O 0.36832 0.50334 0.90217 0.0
O284 O 0.38668 0.47457 0.92942 0.0
O285 O 0.38676 0.55568 0.95761 0.0
O286 O 0.38448 0.51352 0.96177 0.0
H287 H 0.4156 0.50044 1.00159 0.0
H288 H 0.49178 0.53174 1.00695 0.0
H289 H 0.4359 0.56834 0.95742 0.0
O290 O 0.70559 0.42723 0.32354 0.0
Tb291 Tb 0.72423 0.45351 0.34989 0.0
Eu292 Eu 0.78351 0.45027 0.3726 0.0
C293 C 0.71049 0.42777 0.29879 0.0
O294 O 0.7312 0.43989 0.29063 0.0
C295 C 0.76781 0.49114 0.32469 0.0
O296 O 0.81883 0.441 0.40013 0.0
C297 C 0.78372 0.41404 0.3379 0.0
C298 C 0.81783 0.42387 0.41967 0.0
O299 O 0.79541 0.41314 0.42478 0.0
C300 C 0.73271 0.42737 0.40277 0.0
C301 C 0.78169 0.3868 0.33003 0.0
C302 C 0.76278 0.3804 0.31153 0.0
C303 C 0.76136 0.35551 0.30138 0.0
C304 C 0.7791 0.33691 0.30965 0.0
C305 C 0.79866 0.34304 0.32736 0.0
C306 C 0.79998 0.36807 0.33768 0.0
O307 O 0.7475 0.47585 0.32197 0.0
O308 O 0.78329 0.48801 0.34567 0.0
O309 O 0.70789 0.48356 0.37476 0.0
O310 O 0.68492 0.46633 0.34516 0.0
C311 C 0.68502 0.48268 0.36404 0.0
O312 O 0.75367 0.44207 0.40579 0.0
O313 O 0.72486 0.42307 0.37914 0.0
O314 O 0.80477 0.42226 0.34948 0.0
O315 O 0.76267 0.42563 0.34566 0.0
H316 H 0.74979 0.39497 0.30425 0.0
H317 H 0.77884 0.31794 0.30072 0.0
H318 H 0.81557 0.37307 0.35077 0.0
O319 O 0.68678 0.10658 0.98442 0.0
Tb320 Tb 0.70422 0.08448 0.95415 0.0
Eu321 Eu 0.70029 1.02583 0.93581 0.0
C322 C 0.70247 0.12103 0.99794 0.0
O323 O 0.72749 0.11976 0.99382 0.0
C324 C 0.74046 0.04291 0.98315 0.0
O325 O 0.69082 0.99075 0.90842 0.0
C326 C 0.66475 1.02605 0.97114 0.0
C327 C 0.67227 0.9917 0.89022 0.0
O328 O 0.65987 1.01361 0.88707 0.0
C329 C 0.67521 0.07425 0.90427 0.0
C330 C 0.63776 1.0282 0.9797 0.0
C331 C 0.63185 0.04738 0.99804 0.0
C332 C 0.60716 0.04867 1.00885 0.0
C333 C 0.58836 0.03088 1.00115 0.0
C334 C 0.59405 1.01132 0.98342 0.0
C335 C 0.61885 1.00987 0.97268 0.0
O336 O 0.72426 0.06264 0.9851 0.0
O337 O 0.73818 1.02724 0.96233 0.0
O338 O 0.71499 0.12325 0.94294 0.0
O339 O 0.74005 0.09233 0.9329 0.0
C340 C 0.73645 0.11727 0.93167 0.0
O341 O 0.69121 0.05432 0.90175 0.0
O342 O 0.67134 0.08257 0.92773 0.0
O343 O 0.67273 1.00483 0.95981 0.0
O344 O 0.67606 0.04699 0.96268 0.0
H345 H 0.64667 0.06069 1.0046 0.0
H346 H 0.56954 0.03118 1.01039 0.0
H347 H 0.62349 0.99426 0.95958 0.0
O348 O 0.35956 0.93467 0.23305 0.0
Tb349 Tb 0.33567 0.95735 0.20764 0.0
Eu350 Eu 0.27647 0.95157 0.18757 0.0
C351 C 0.35435 0.93147 0.2575 0.0
O352 O 0.33191 0.93919 0.2664 0.0
C353 C 0.29231 0.9927 0.23535 0.0
O354 O 0.24085 0.94253 0.16038 0.0
C355 C 0.27676 0.91514 0.22218 0.0
C356 C 0.24139 0.92447 0.14176 0.0
O357 O 0.26338 0.91249 0.13774 0.0
C358 C 0.3265 0.92822 0.15711 0.0
C359 C 0.27894 0.88767 0.22927 0.0
C360 C 0.29861 0.88044 0.2467 0.0
C361 C 0.29941 0.85547 0.25697 0.0
C362 C 0.28063 0.83752 0.24943 0.0
C363 C 0.26051 0.84451 0.23262 0.0
C364 C 0.25971 0.86962 0.22243 0.0
O365 O 0.31359 0.97859 0.2374 0.0
O366 O 0.27651 0.98902 0.2147 0.0
O367 O 0.37444 0.97216 0.20504 0.0
O368 O 0.34543 0.98844 0.1804 0.0
C369 C 0.36991 0.9885 0.18663 0.0
O370 O 0.30565 0.94301 0.1539 0.0
O371 O 0.33453 0.92487 0.18083 0.0
O372 O 0.25559 0.9234 0.21079 0.0
O373 O 0.29768 0.92713 0.21457 0.0
H374 H 0.31257 0.89453 0.25327 0.0
H375 H 0.28043 0.81857 0.25844 0.0
H376 H 0.24361 0.8753 0.21024 0.0
O377 O 0.1792 0.45423 0.07558 0.0
Tb378 Tb 0.20557 0.47661 0.09878 0.0
Eu379 Eu 0.2011 0.53477 0.12133 0.0
C380 C 0.17784 0.4577 0.05061 0.0
O381 O 0.18859 0.47835 0.04053 0.0
C382 C 0.24093 0.52067 0.07323 0.0
O383 O 0.19133 0.56986 0.14854 0.0
C384 C 0.16476 0.53344 0.08654 0.0
C385 C 0.173 0.56885 0.16683 0.0
O386 O 0.1611 0.54672 0.1704 0.0
C387 C 0.17923 0.48402 0.15233 0.0
C388 C 0.13735 0.53135 0.07921 0.0
C389 C 0.1304 0.51198 0.06145 0.0
C390 C 0.10527 0.51062 0.05161 0.0
C391 C 0.08696 0.52863 0.05981 0.0
C392 C 0.09367 0.54853 0.07686 0.0
C393 C 0.11894 0.5499 0.08668 0.0
O394 O 0.22396 0.50193 0.06947 0.0
O395 O 0.23913 0.53447 0.09531 0.0
O396 O 0.22568 0.44113 0.09103 0.0
O397 O 0.23647 0.46285 0.12442 0.0
C398 C 0.2409 0.44207 0.1109 0.0
O399 O 0.19366 0.50521 0.1548 0.0
O400 O 0.17598 0.4743 0.12916 0.0
O401 O 0.17348 0.55504 0.09661 0.0
O402 O 0.17595 0.51278 0.09584 0.0
H403 H 0.14476 0.49868 0.05438 0.0
H404 H 0.06782 0.52846 0.05113 0.0
H405 H 0.12436 0.56578 0.09918 0.0
O406 O 0.70518 0.63248 0.23453 0.0
Tb407 Tb 0.72461 0.60664 0.2085 0.0
Eu408 Eu 0.78411 0.61065 0.18739 0.0
C409 C 0.70984 0.63241 0.25934 0.0
O410 O 0.73084 0.62104 0.26801 0.0
C411 C 0.76811 0.56948 0.2348 0.0
O412 O 0.81959 0.6194 0.16017 0.0
C413 C 0.78374 0.64687 0.22206 0.0
C414 C 0.81915 0.63768 0.14171 0.0
O415 O 0.79739 0.65024 0.13806 0.0
C416 C 0.73382 0.63371 0.15614 0.0
C417 C 0.7817 0.67412 0.2298 0.0
C418 C 0.76272 0.68065 0.24808 0.0
C419 C 0.76136 0.70562 0.25808 0.0
C420 C 0.77916 0.72413 0.24983 0.0
C421 C 0.79867 0.71787 0.23224 0.0
C422 C 0.80003 0.69278 0.22216 0.0
O423 O 0.74731 0.58419 0.23703 0.0
O424 O 0.78388 0.57296 0.21422 0.0
O425 O 0.68529 0.59324 0.21159 0.0
O426 O 0.70955 0.5765 0.18286 0.0
C427 C 0.68633 0.57694 0.19269 0.0
O428 O 0.75492 0.61914 0.15363 0.0
O429 O 0.72498 0.63739 0.17949 0.0
O430 O 0.80499 0.63861 0.21097 0.0
O431 O 0.76279 0.63532 0.2138 0.0
H432 H 0.7496 0.66614 0.25528 0.0
H433 H 0.77891 0.74319 0.25858 0.0
H434 H 0.8156 0.68772 0.20918 0.0
O435 O 0.86344 0.11589 0.07488 0.0
Tb436 Tb 0.85132 0.0865 0.10157 0.0
Eu437 Eu 0.85984 1.0277 0.12073 0.0
C438 C 0.88778 0.12105 0.07022 0.0
O439 O 0.90625 0.10633 0.07952 0.0
C440 C 0.81946 0.04304 0.07243 0.0
O441 O 0.86862 0.99241 0.1484 0.0
C442 C 0.89569 1.02785 0.08572 0.0
C443 C 0.88796 0.99252 0.16582 0.0
O444 O 0.90164 1.01379 0.16795 0.0
C445 C 0.88305 0.07835 0.15079 0.0
C446 C 0.92286 1.02955 0.07755 0.0
C447 C 0.92931 0.04821 0.05878 0.0
C448 C 0.95424 0.04907 0.04848 0.0
C449 C 0.97266 0.03118 0.05686 0.0
C450 C 0.96639 1.01191 0.07477 0.0
C451 C 0.94142 1.0111 0.08527 0.0
O452 O 0.83499 0.06322 0.06985 0.0
O453 O 0.82202 1.02817 0.09388 0.0
O454 O 0.83207 0.12132 0.11374 0.0
O455 O 0.81648 0.08498 0.12554 0.0
C456 C 0.81401 0.11004 0.12682 0.0
O457 O 0.86921 0.05689 0.15417 0.0
O458 O 0.88498 0.08711 0.12714 0.0
O459 O 0.88736 1.00667 0.09699 0.0
O460 O 0.88443 0.04892 0.09399 0.0
H461 H 0.91473 0.06143 0.05151 0.0
H462 H 0.99161 0.03107 0.04787 0.0
H463 H 0.93632 0.99575 0.09856 0.0
O464 O 0.32699 0.35568 0.13431 0.0
Tb465 Tb 0.35155 0.33376 0.10874 0.0
Eu466 Eu 0.37605 0.27612 0.10825 0.0
C467 C 0.30191 0.35258 0.13429 0.0
O468 O 0.29224 0.3307 0.12605 0.0
C469 C 0.32435 0.29155 0.07203 0.0
O470 O 0.40636 0.24275 0.11567 0.0
C471 C 0.34706 0.27276 0.14841 0.0
C472 C 0.41433 0.23727 0.13982 0.0
O473 O 0.40514 0.25163 0.15855 0.0
C474 C 0.40585 0.32626 0.13259 0.0
C475 C 0.33064 0.27077 0.17123 0.0
C476 C 0.31186 0.28975 0.17605 0.0
C477 C 0.29737 0.28884 0.19868 0.0
C478 C 0.30203 0.26931 0.21671 0.0
C479 C 0.32088 0.25052 0.21224 0.0
C480 C 0.33499 0.25094 0.18931 0.0
O481 O 0.32157 0.30966 0.08983 0.0
O482 O 0.34667 0.27779 0.07223 0.0
O483 O 0.35014 0.37258 0.09369 0.0
O484 O 0.37509 0.34534 0.07548 0.0
C485 C 0.36708 0.36926 0.07565 0.0
O486 O 0.4088 0.30651 0.11632 0.0
O487 O 0.38221 0.33351 0.13791 0.0
O488 O 0.35599 0.25223 0.13657 0.0
O489 O 0.35246 0.29491 0.13755 0.0
H490 H 0.30865 0.30518 0.16244 0.0
H491 H 0.29066 0.26855 0.23429 0.0
H492 H 0.34972 0.23645 0.18596 0.0
O493 O 0.32274 0.70536 0.435 0.0
Tb494 Tb 0.35273 0.72685 0.45427 0.0
Eu495 Eu 0.37493 0.78505 0.45041 0.0
C496 C 0.32755 0.68349 0.42314 0.0
O497 O 0.35158 0.67574 0.42074 0.0
C498 C 0.3257 0.76926 0.48878 0.0
O499 O 0.40295 0.82022 0.44233 0.0
C500 C 0.34017 0.78612 0.41418 0.0
C501 C 0.41855 0.82078 0.42164 0.0
O502 O 0.41801 0.80062 0.4063 0.0
C503 C 0.40445 0.73443 0.42565 0.0
C504 C 0.33198 0.78435 0.38709 0.0
C505 C 0.3131 0.76571 0.38105 0.0
C506 C 0.30265 0.76445 0.35626 0.0
C507 C 0.31116 0.78174 0.3374 0.0
C508 C 0.32938 0.80092 0.34315 0.0
C509 C 0.33988 0.80232 0.36815 0.0
O510 O 0.3224 0.75184 0.47047 0.0
O511 O 0.34786 0.7833 0.48806 0.0
O512 O 0.35743 0.68976 0.47307 0.0
O513 O 0.37577 0.72277 0.48965 0.0
C514 C 0.37211 0.6979 0.49167 0.0
O515 O 0.40785 0.75533 0.44038 0.0
O516 O 0.38075 0.72588 0.42272 0.0
O517 O 0.35171 0.80705 0.42272 0.0
O518 O 0.34815 0.76486 0.42529 0.0
H519 H 0.30581 0.75281 0.39588 0.0
H520 H 0.30197 0.78155 0.31852 0.0
H521 H 0.35335 0.81762 0.37295 0.0
O522 O 0.9501 0.48247 0.86707 0.0
Tb523 Tb 0.97665 0.45458 0.85167 0.0
Eu524 Eu 0.03569 0.437 0.8586 0.0
C525 C 0.93171 0.49186 0.85239 0.0
O526 O 0.93081 0.48608 0.82774 0.0
C527 C 1.01856 0.48543 0.81902 0.0
O528 O 0.07115 0.40941 0.86752 0.0
C529 C 0.03508 0.47185 0.8947 0.0
C530 C 0.07075 0.39198 0.88682 0.0
O531 O 0.04951 0.39042 0.90055 0.0
C532 C 0.98633 0.40585 0.88268 0.0
C533 C 0.03266 0.47978 0.92187 0.0
C534 C 1.01358 0.49822 0.92806 0.0
C535 C 1.01221 0.5085 0.95297 0.0
C536 C 1.02984 0.50016 0.97169 0.0
C537 C 0.04935 0.48239 0.96577 0.0
C538 C 0.05079 0.47212 0.94077 0.0
O539 O 0.999 0.48708 0.83539 0.0
O540 O 0.03421 0.46442 0.82102 0.0
O541 O 0.94167 0.43757 0.83598 0.0
O542 O 0.97632 0.43435 0.81444 0.0
C543 C 0.9517 0.42894 0.81483 0.0
O544 O 1.00713 0.40277 0.8679 0.0
O545 O 0.97809 0.42951 0.88543 0.0
O546 O 0.05638 0.46056 0.88679 0.0
O547 O 1.01425 0.46373 0.88286 0.0
H548 H 1.00046 0.5053 0.91328 0.0
H549 H 1.02956 0.50907 0.99065 0.0
H550 H 0.06635 0.459 0.93595 0.0
O551 O 0.73438 0.85669 0.42812 0.0
Tb552 Tb 0.70975 0.83496 0.45349 0.0
Eu553 Eu 0.68792 0.77691 0.45042 0.0
C554 C 0.7593 0.85284 0.42693 0.0
O555 O 0.76917 0.83202 0.43759 0.0
C556 C 0.73613 0.79259 0.49065 0.0
O557 O 0.65964 0.74225 0.44158 0.0
C558 C 0.72272 0.77626 0.41424 0.0
C559 C 0.64257 0.74308 0.42201 0.0
O560 O 0.64168 0.76434 0.40816 0.0
C561 C 0.65746 0.82694 0.42645 0.0
C562 C 0.73051 0.77818 0.38698 0.0
C563 C 0.74874 0.79728 0.38029 0.0
C564 C 0.75888 0.79849 0.35536 0.0
C565 C 0.75059 0.78059 0.337 0.0
C566 C 0.73301 0.76102 0.3434 0.0
C567 C 0.72294 0.75971 0.36848 0.0
O568 O 0.7393 0.81182 0.47408 0.0
O569 O 0.71461 0.77776 0.48835 0.0
O570 O 0.68381 0.84713 0.48455 0.0
O571 O 0.71098 0.87374 0.46837 0.0
C572 C 0.69238 0.87086 0.48482 0.0
O573 O 0.65439 0.80636 0.44163 0.0
O574 O 0.6812 0.83456 0.42234 0.0
O575 O 0.71112 0.75531 0.42267 0.0
O576 O 0.71494 0.79737 0.42562 0.0
H577 H 0.75586 0.81055 0.39468 0.0
H578 H 0.75934 0.78076 0.31796 0.0
H579 H 0.70999 0.74409 0.37365 0.0
O580 O 0.60719 0.57453 0.3785 0.0
Tb581 Tb 0.58713 0.60353 0.3562 0.0
Eu582 Eu 0.52779 0.62481 0.35813 0.0
C583 C 0.59919 0.55053 0.37937 0.0
O584 O 0.57556 0.54498 0.37196 0.0
C585 C 0.54467 0.57561 0.3186 0.0
O586 O 0.49292 0.65346 0.36514 0.0
C587 C 0.52707 0.59644 0.39911 0.0
C588 C 0.49269 0.67004 0.38514 0.0
O589 O 0.51351 0.67103 0.39968 0.0
C590 C 0.57735 0.65577 0.38176 0.0
C591 C 0.52601 0.58069 0.42269 0.0
C592 C 0.54534 0.56225 0.42812 0.0
C593 C 0.54468 0.54823 0.4512 0.0
C594 C 0.52521 0.55318 0.4691 0.0
C595 C 0.50628 0.57177 0.46415 0.0
C596 C 0.50635 0.58526 0.4408 0.0
O597 O 0.5656 0.57469 0.33328 0.0
O598 O 0.52778 0.59537 0.32213 0.0
O599 O 0.62713 0.60591 0.34489 0.0
O600 O 0.59932 0.62815 0.32396 0.0
C601 C 0.6238 0.62248 0.32642 0.0
O602 O 0.55745 0.65829 0.3655 0.0
O603 O 0.58525 0.63229 0.38688 0.0
O604 O 0.50622 0.60731 0.38952 0.0
O605 O 0.54816 0.59964 0.38559 0.0
H606 H 0.56089 0.55901 0.41479 0.0
H607 H 0.52465 0.54227 0.48703 0.0
H608 H 0.49156 0.59964 0.4371 0.0
O609 O 0.23247 0.69908 0.62372 0.0
Tb610 Tb 0.20812 0.72508 0.60243 0.0
Eu611 Eu 0.18875 0.78364 0.60859 0.0
C612 C 0.25652 0.70423 0.62941 0.0
O613 O 0.26599 0.72707 0.62368 0.0
C614 C 0.23654 0.76795 0.56794 0.0
O615 O 0.16071 0.81832 0.61734 0.0
C616 C 0.22338 0.78417 0.64504 0.0
C617 C 0.14425 0.81796 0.63734 0.0
O618 O 0.14348 0.79692 0.65153 0.0
C619 C 0.15831 0.73375 0.63223 0.0
C620 C 0.23081 0.7822 0.67245 0.0
C621 C 0.2486 0.7628 0.67947 0.0
C622 C 0.25859 0.76163 0.70448 0.0
C623 C 0.25067 0.77982 0.72263 0.0
C624 C 0.23346 0.79963 0.71601 0.0
C625 C 0.22352 0.80096 0.69078 0.0
O626 O 0.23893 0.74753 0.5832 0.0
O627 O 0.21551 0.78332 0.57088 0.0
O628 O 0.20359 0.68732 0.58572 0.0
O629 O 0.1806 0.7183 0.57076 0.0
C630 C 0.18553 0.69359 0.56955 0.0
O631 O 0.15496 0.75469 0.61766 0.0
O632 O 0.18206 0.72579 0.63535 0.0
O633 O 0.21176 0.80513 0.6366 0.0
O634 O 0.21591 0.76305 0.6333 0.0
H635 H 0.25547 0.74919 0.66529 0.0
H636 H 0.25942 0.77962 0.74172 0.0
H637 H 0.21092 0.81681 0.68538 0.0
O638 O 0.95311 0.5757 0.68889 0.0
Tb639 Tb 0.97649 0.60595 0.70488 0.0
Eu640 Eu 0.03564 0.62357 0.70015 0.0
C641 C 0.93552 0.5656 0.70393 0.0
O642 O 0.93428 0.57248 0.72827 0.0
C643 C 1.01817 0.57626 0.74076 0.0
O644 O 0.07127 0.65061 0.69102 0.0
C645 C 0.03545 0.5884 0.66433 0.0
C646 C 0.07044 0.66973 0.67341 0.0
O647 O 0.04824 0.67435 0.66196 0.0
C648 C 0.98724 0.65447 0.6746 0.0
C649 C 0.03261 0.58084 0.63708 0.0
C650 C 1.01308 0.5629 0.6307 0.0
C651 C 1.01141 0.55281 0.60573 0.0
C652 C 1.0292 0.56086 0.58711 0.0
C653 C 0.04916 0.57811 0.59323 0.0
C654 C 0.05088 0.58818 0.61828 0.0
O655 O 0.99774 0.57479 0.72529 0.0
O656 O 0.03444 0.59665 0.73788 0.0
O657 O 0.93854 0.62137 0.71318 0.0
O658 O 0.96842 0.6272 0.74069 0.0
C659 C 0.94411 0.63149 0.7353 0.0
O660 O 1.00702 0.65763 0.69073 0.0
O661 O 0.97984 0.63066 0.67095 0.0
O662 O 0.05651 0.60041 0.67192 0.0
O663 O 1.01466 0.59575 0.67658 0.0
H664 H 0.99985 0.556 0.64539 0.0
H665 H 1.02872 0.55203 0.56812 0.0
H666 H 0.06682 0.60084 0.62325 0.0
O667 O 0.10994 0.98378 0.67848 0.0
Tb668 Tb 0.0863 0.95808 0.70109 0.0
Eu669 Eu 1.02909 0.93538 0.7006 0.0
C670 C 0.1047 1.00837 0.67595 0.0
O671 O 0.08207 1.01704 0.68333 0.0
C672 C 0.04485 0.98608 0.73755 0.0
O673 O 0.995 0.90605 0.69368 0.0
C674 C 1.02669 0.96391 0.65981 0.0
C675 C 0.99456 0.89143 0.6723 0.0
O676 O 1.01426 0.89361 0.65651 0.0
C677 C 0.07847 0.90527 0.67625 0.0
C678 C 1.02508 0.98 0.63653 0.0
C679 C 0.04447 0.99829 0.63101 0.0
C680 C 0.04362 1.01241 0.60801 0.0
C681 C 1.02377 1.00774 0.59028 0.0
C682 C 1.00464 0.98934 0.59543 0.0
C683 C 1.00501 0.97575 0.61871 0.0
O684 O 0.06321 0.98846 0.72003 0.0
O685 O 1.02991 0.96459 0.73659 0.0
O686 O 0.12491 0.95563 0.71645 0.0
O687 O 0.095 0.93378 0.73472 0.0
C688 C 0.11964 0.93927 0.73462 0.0
O689 O 0.05913 0.9023 0.69295 0.0
O690 O 0.08529 0.92897 0.67074 0.0
O691 O 1.00616 0.95304 0.66997 0.0
O692 O 0.0482 0.96062 0.67264 0.0
H693 H 0.06024 1.00134 0.64426 0.0
H694 H 1.02303 1.01874 0.57242 0.0
H695 H 0.99016 0.96147 0.62254 0.0
O696 O 0.63047 0.82633 0.85627 0.0
Tb697 Tb 0.606 0.8518 0.8341 0.0
Eu698 Eu 0.60845 0.87442 0.77534 0.0
C699 C 0.6324 0.80167 0.85118 0.0
O700 O 0.62272 0.79283 0.82948 0.0
C701 C 0.56983 0.824 0.79114 0.0
O702 O 0.61525 0.90329 0.74064 0.0
C703 C 0.64936 0.84602 0.77428 0.0
C704 C 0.63542 0.91971 0.74057 0.0
O705 O 0.6503 0.9199 0.76116 0.0
C706 C 0.63148 0.9044 0.82548 0.0
C707 C 0.67279 0.8301 0.77328 0.0
C708 C 0.67786 0.81156 0.79259 0.0
C709 C 0.70103 0.79766 0.79231 0.0
C710 C 0.71918 0.80256 0.77297 0.0
C711 C 0.71435 0.821 0.75379 0.0
C712 C 0.69104 0.83456 0.75372 0.0
O713 O 0.58477 0.82218 0.81187 0.0
O714 O 0.57276 0.84463 0.77517 0.0
O715 O 0.59213 0.85282 0.87323 0.0
O716 O 0.57396 0.87715 0.84517 0.0
C717 C 0.57464 0.87032 0.86944 0.0
O718 O 0.61561 0.90755 0.8054 0.0
O719 O 0.63664 0.88066 0.83243 0.0
O720 O 0.6401 0.8575 0.75363 0.0
O721 O 0.63565 0.84877 0.79526 0.0
H722 H 0.6641 0.80811 0.8078 0.0
H723 H 0.7371 0.79165 0.77264 0.0
H724 H 0.68747 0.84891 0.73886 0.0
O725 O 0.07567 0.18021 0.4543 0.0
Tb726 Tb 0.10211 0.20461 0.47532 0.0
Eu727 Eu 0.12361 0.2015 0.53506 0.0
C728 C 0.05096 0.17905 0.45947 0.0
O729 O 0.04245 0.18887 0.4812 0.0
C730 C 0.07536 0.24159 0.51839 0.0
O731 O 0.15181 0.19313 0.57 0.0
C732 C 0.08937 0.16487 0.53574 0.0
C733 C 0.16858 0.17332 0.56973 0.0
O734 O 0.16918 0.159 0.54884 0.0
C735 C 0.15416 0.17723 0.48536 0.0
C736 C 0.08205 0.13751 0.53371 0.0
C737 C 0.06439 0.13076 0.51419 0.0
C738 C 0.05414 0.10591 0.51297 0.0
C739 C 0.0618 0.08754 0.53121 0.0
C740 C 0.07883 0.09399 0.55128 0.0
C741 C 0.08897 0.11911 0.55263 0.0
O742 O 0.0731 0.22637 0.49796 0.0
O743 O 0.09622 0.23877 0.5341 0.0
O744 O 0.10147 0.2179 0.43584 0.0
O745 O 0.12737 0.23612 0.46228 0.0
C746 C 0.11933 0.23526 0.43837 0.0
O747 O 0.15695 0.19256 0.50583 0.0
O748 O 0.13064 0.17339 0.47674 0.0
O749 O 0.10097 0.17329 0.55669 0.0
O750 O 0.09673 0.17663 0.51461 0.0
H751 H 0.0576 0.14514 0.50065 0.0
H752 H 0.05268 0.06863 0.53109 0.0
H753 H 0.10129 0.12445 0.56871 0.0
O754 O 0.43563 0.73642 0.85399 0.0
Tb755 Tb 0.45489 0.70578 0.83378 0.0
Eu756 Eu 0.4508 0.6863 0.7746 0.0
C757 C 0.45018 0.75096 0.86865 0.0
O758 O 0.47539 0.74788 0.86827 0.0
C759 C 0.49175 0.73363 0.79146 0.0
O760 O 0.44171 0.65889 0.73929 0.0
C761 C 0.41523 0.7218 0.77453 0.0
C762 C 0.42273 0.64111 0.73965 0.0
O763 O 0.40967 0.63838 0.76118 0.0
C764 C 0.4261 0.65568 0.82369 0.0
C765 C 0.38817 0.73016 0.77704 0.0
C766 C 0.38221 0.74856 0.79618 0.0
C767 C 0.35735 0.75906 0.79766 0.0
C768 C 0.33851 0.75114 0.77998 0.0
C769 C 0.34425 0.73337 0.76048 0.0
C770 C 0.36915 0.72285 0.75893 0.0
O771 O 0.47674 0.73556 0.81209 0.0
O772 O 0.48856 0.71309 0.7755 0.0
O773 O 0.46363 0.69669 0.87361 0.0
O774 O 0.48918 0.68308 0.8446 0.0
C775 C 0.4845 0.68366 0.86936 0.0
O776 O 0.4417 0.6525 0.80357 0.0
O777 O 0.42207 0.67948 0.83092 0.0
O778 O 0.42269 0.70972 0.75356 0.0
O779 O 0.42723 0.7141 0.79541 0.0
H780 H 0.39707 0.75533 0.80936 0.0
H781 H 0.31957 0.76017 0.78038 0.0
H782 H 0.37378 0.70973 0.74335 0.0
O783 O 0.98554 0.3834 0.45543 0.0
Tb784 Tb 0.95952 0.35672 0.4741 0.0
Eu785 Eu 0.93687 0.3601 0.53424 0.0
C786 C 1.01046 0.38269 0.45974 0.0
O787 O 1.01909 0.37037 0.48018 0.0
C788 C 0.98493 0.31937 0.51805 0.0
O789 O 0.909 0.36856 0.56941 0.0
C790 C 0.97142 0.39658 0.53456 0.0
C791 C 0.8919 0.38817 0.56955 0.0
O792 O 0.8901 0.40225 0.5485 0.0
C793 C 0.90659 0.38279 0.4832 0.0
C794 C 0.97932 0.42384 0.53254 0.0
C795 C 0.99758 0.43034 0.5135 0.0
C796 C 1.00784 0.45524 0.51219 0.0
C797 C 0.99989 0.47373 0.53007 0.0
C798 C 0.98236 0.46751 0.5497 0.0
C799 C 0.97197 0.44246 0.55096 0.0
O800 O 0.9875 0.33448 0.49758 0.0
O801 O 0.96409 0.32255 0.53364 0.0
O802 O 0.96447 0.34438 0.43473 0.0
O803 O 0.9347 0.32678 0.45706 0.0
C804 C 0.94557 0.32798 0.43435 0.0
O805 O 0.90355 0.36854 0.50445 0.0
O806 O 0.93022 0.38703 0.47527 0.0
O807 O 0.95988 0.38829 0.55555 0.0
O808 O 0.9637 0.38492 0.51351 0.0
H809 H 1.00455 0.41583 0.5003 0.0
H810 H 1.00886 0.49271 0.52981 0.0
H811 H 0.95903 0.43738 0.56658 0.0
O812 O 0.62699 0.2331 0.70099 0.0
Tb813 Tb 0.60403 0.20713 0.72398 0.0
Eu814 Eu 0.60843 0.18419 0.78172 0.0
C815 C 0.62974 0.25753 0.70678 0.0
O816 O 0.62109 0.26594 0.72901 0.0
C817 C 0.56889 0.23426 0.76765 0.0
O818 O 0.6151 0.15525 0.81623 0.0
C819 C 0.64904 0.21313 0.78301 0.0
C820 C 0.63555 0.13928 0.81648 0.0
O821 O 0.6508 0.13978 0.79625 0.0
C822 C 0.63117 0.15498 0.73135 0.0
C823 C 0.67234 0.2293 0.78419 0.0
C824 C 0.67676 0.24862 0.76549 0.0
C825 C 0.69974 0.26286 0.76598 0.0
C826 C 0.71832 0.25757 0.78487 0.0
C827 C 0.71424 0.23832 0.80334 0.0
C828 C 0.69113 0.22437 0.80327 0.0
O829 O 0.58293 0.23683 0.74648 0.0
O830 O 0.5722 0.21295 0.78257 0.0
O831 O 0.58912 0.20452 0.68524 0.0
O832 O 0.57262 0.18026 0.71435 0.0
C833 C 0.57269 0.18621 0.68987 0.0
O834 O 0.6157 0.15136 0.75155 0.0
O835 O 0.63553 0.17894 0.72446 0.0
O836 O 0.64021 0.20108 0.80348 0.0
O837 O 0.63506 0.21061 0.76208 0.0
H838 H 0.66266 0.25241 0.75059 0.0
H839 H 0.73611 0.26872 0.78533 0.0
H840 H 0.68814 0.20939 0.81761 0.0
O841 O 0.48348 0.17827 0.60739 0.0
Tb842 Tb 0.46113 0.20459 0.58416 0.0
Eu843 Eu 0.43723 0.20078 0.52727 0.0
C844 C 0.50825 0.17526 0.60349 0.0
O845 O 0.51859 0.18522 0.58262 0.0
C846 C 0.48641 0.23943 0.54096 0.0
O847 O 0.40901 0.19174 0.49271 0.0
C848 C 0.47193 0.16442 0.52678 0.0
C849 C 0.39248 0.17174 0.49311 0.0
O850 O 0.39155 0.15775 0.51427 0.0
C851 C 0.40741 0.17797 0.57864 0.0
C852 C 0.47951 0.13704 0.52768 0.0
C853 C 0.49701 0.12935 0.5471 0.0
C854 C 0.50711 0.10435 0.5475 0.0
C855 C 0.49937 0.08683 0.52852 0.0
C856 C 0.48247 0.09426 0.50866 0.0
C857 C 0.47252 0.11946 0.50813 0.0
O858 O 0.49041 0.2206 0.55768 0.0
O859 O 0.46369 0.23888 0.52794 0.0
O860 O 0.46969 0.2264 0.61837 0.0
O861 O 0.43555 0.23577 0.59692 0.0
C862 C 0.44959 0.24131 0.61716 0.0
O863 O 0.4042 0.19184 0.55711 0.0
O864 O 0.43103 0.17503 0.58743 0.0
O865 O 0.46155 0.17402 0.50566 0.0
O866 O 0.46291 0.17467 0.54795 0.0
H867 H 0.50363 0.14308 0.56131 0.0
H868 H 0.50808 0.06775 0.5281 0.0
H869 H 0.46016 0.12546 0.4923 0.0
O870 O 0.42267 0.32368 0.70569 0.0
Tb871 Tb 0.4508 0.34873 0.72381 0.0
Eu872 Eu 0.45023 0.37195 0.78266 0.0
C873 C 0.42452 0.29861 0.70815 0.0
O874 O 0.43413 0.28919 0.72961 0.0
C875 C 0.48891 0.32274 0.76648 0.0
O876 O 0.4416 0.39964 0.81793 0.0
C877 C 0.41347 0.33769 0.78324 0.0
C878 C 0.42342 0.41824 0.81737 0.0
O879 O 0.41113 0.42208 0.79548 0.0
C880 C 0.42666 0.40296 0.73243 0.0
C881 C 0.38606 0.33024 0.78176 0.0
C882 C 0.37898 0.31216 0.76278 0.0
C883 C 0.35393 0.30232 0.76168 0.0
C884 C 0.33576 0.31063 0.77969 0.0
C885 C 0.34255 0.32803 0.79926 0.0
C886 C 0.36781 0.33794 0.80035 0.0
O887 O 0.47165 0.31977 0.74775 0.0
O888 O 0.48776 0.34468 0.78077 0.0
O889 O 0.46317 0.34354 0.68455 0.0
O890 O 0.48253 0.37167 0.70747 0.0
C891 C 0.48104 0.36102 0.68468 0.0
O892 O 0.44185 0.40536 0.75313 0.0
O893 O 0.42188 0.37961 0.72394 0.0
O894 O 0.42266 0.3484 0.80432 0.0
O895 O 0.42433 0.34613 0.76211 0.0
H896 H 0.39315 0.30496 0.74945 0.0
H897 H 0.31664 0.30194 0.77965 0.0
H898 H 0.37334 0.35073 0.81595 0.0
O899 O 0.57291 0.37731 0.6068 0.0
Tb900 Tb 0.6023 0.35647 0.58602 0.0
Eu901 Eu 0.62273 0.36043 0.52633 0.0
C902 C 0.54891 0.37823 0.59877 0.0
O903 O 0.54339 0.37205 0.57483 0.0
C904 C 0.57578 0.31885 0.543 0.0
O905 O 0.65011 0.36951 0.49099 0.0
C906 C 0.58784 0.39657 0.52641 0.0
C907 C 0.66872 0.38768 0.49154 0.0
O908 O 0.6726 0.3999 0.51339 0.0
C909 C 0.6536 0.38438 0.57618 0.0
C910 C 0.58051 0.424 0.52826 0.0
C911 C 0.56306 0.43122 0.54778 0.0
C912 C 0.55264 0.45609 0.54839 0.0
C913 C 0.56022 0.47404 0.52971 0.0
C914 C 0.57721 0.46715 0.50985 0.0
C915 C 0.58732 0.44203 0.50903 0.0
O916 O 0.57378 0.33357 0.56377 0.0
O917 O 0.59609 0.32255 0.5269 0.0
O918 O 0.60553 0.34479 0.62585 0.0
O919 O 0.62741 0.32428 0.59766 0.0
C920 C 0.62231 0.32661 0.62221 0.0
O921 O 0.65631 0.36923 0.55559 0.0
O922 O 0.63006 0.38829 0.58454 0.0
O923 O 0.59891 0.38811 0.50527 0.0
O924 O 0.59599 0.38501 0.54739 0.0
H925 H 0.55662 0.41724 0.56183 0.0
H926 H 0.55122 0.49299 0.52944 0.0
H927 H 0.5996 0.43642 0.49309 0.0
O928 O 0.86239 0.62457 0.82749 0.0
Tb929 Tb 0.83388 0.60662 0.85191 0.0
Eu930 Eu 0.77596 0.60937 0.87349 0.0
C931 C 0.85813 0.63091 0.8034 0.0
O932 O 0.83512 0.62714 0.79333 0.0
C933 C 0.79235 0.57125 0.82393 0.0
O934 O 0.74117 0.61768 0.90184 0.0
C935 C 0.77444 0.64597 0.83917 0.0
C936 C 0.74158 0.63743 0.91868 0.0
O937 O 0.76258 0.65168 0.91943 0.0
C938 C 0.82612 0.63407 0.90341 0.0
C939 C 0.7761 0.67328 0.83158 0.0
C940 C 0.79578 0.68023 0.81421 0.0
C941 C 0.79657 0.70492 0.80349 0.0
C942 C 0.77797 0.72304 0.81072 0.0
C943 C 0.75792 0.71641 0.82764 0.0
C944 C 0.75684 0.69137 0.83801 0.0
O945 O 0.81018 0.5894 0.82078 0.0
O946 O 0.77811 0.57207 0.84593 0.0
O947 O 0.86972 0.58741 0.86069 0.0
O948 O 0.83471 0.57095 0.87467 0.0
C949 C 0.85981 0.56874 0.87405 0.0
O950 O 0.80569 0.6187 0.90665 0.0
O951 O 0.83356 0.63827 0.87965 0.0
O952 O 0.75363 0.63714 0.85069 0.0
O953 O 0.79579 0.63477 0.84677 0.0
H954 H 0.80977 0.66606 0.80798 0.0
H955 H 0.77784 0.74187 0.80142 0.0
H956 H 0.74075 0.68588 0.8502 0.0
O957 O 0.8786 0.95317 0.48336 0.0
Tb958 Tb 0.85619 0.97454 0.45532 0.0
Eu959 Eu 0.85841 0.03385 0.43341 0.0
C960 C 0.87984 0.95996 0.50767 0.0
O961 O 0.87137 0.98283 0.51448 0.0
C962 C 0.81915 1.01727 0.48319 0.0
O963 O 0.86499 0.06858 0.40456 0.0
C964 C 0.89959 0.03519 0.46139 0.0
C965 C 0.8852 0.06877 0.38829 0.0
O966 O 0.90019 0.04829 0.38823 0.0
C967 C 0.88188 0.98407 0.40298 0.0
C968 C 0.92312 0.03621 0.47715 0.0
C969 C 0.92751 1.01738 0.49628 0.0
C970 C 0.95057 1.01749 0.51029 0.0
C971 C 0.96931 0.03616 0.50502 0.0
C972 C 0.96526 0.05485 0.48597 0.0
C973 C 0.942 0.05517 0.47218 0.0
O974 O 0.83301 0.99577 0.48418 0.0
O975 O 0.82294 0.03404 0.46335 0.0
O976 O 0.84404 0.93487 0.45204 0.0
O977 O 0.82391 0.96357 0.43012 0.0
C978 C 0.82586 0.93896 0.43529 0.0
O979 O 0.86568 1.00396 0.40026 0.0
O980 O 0.88697 0.97635 0.42654 0.0
O981 O 0.89006 0.0559 0.45024 0.0
O982 O 0.886 1.01403 0.45856 0.0
H983 H 0.91323 1.00273 0.50022 0.0
H984 H 0.98712 0.03643 0.51619 0.0
H985 H 0.93894 0.06963 0.45732 0.0
O986 O 0.19521 0.93996 0.83036 0.0
Tb987 Tb 0.22318 0.95746 0.85555 0.0
Eu988 Eu 0.28275 0.95029 0.87357 0.0
C989 C 0.20117 0.93162 0.80736 0.0
O990 O 0.22512 0.9336 0.79933 0.0
C991 C 0.26579 0.99049 0.82567 0.0
O992 O 0.31815 0.9419 0.90122 0.0
C993 C 0.28296 0.91389 0.8391 0.0
C994 C 0.31792 0.92314 0.91922 0.0
O995 O 0.29649 0.90984 0.92201 0.0
C996 C 0.23296 0.92678 0.90498 0.0
C997 C 0.28228 0.88676 0.83048 0.0
C998 C 0.26346 0.87985 0.81204 0.0
C999 C 0.26347 0.85533 0.80095 0.0
C1000 C 0.28228 0.83749 0.80842 0.0
C1001 C 0.30148 0.844 0.82638 0.0
C1002 C 0.30164 0.86878 0.83741 0.0
O1003 O 0.24597 0.97443 0.82374 0.0
O1004 O 0.28144 0.98807 0.84659 0.0
O1005 O 0.18695 0.97612 0.86432 0.0
O1006 O 0.22164 0.99182 0.88026 0.0
C1007 C 0.19652 0.99385 0.87913 0.0
O1008 O 0.25421 0.94113 0.90759 0.0
O1009 O 0.22349 0.92437 0.88167 0.0
O1010 O 0.30413 0.92318 0.84965 0.0
O1011 O 0.26165 0.92436 0.84788 0.0
H1012 H 0.2493 0.89373 0.80562 0.0
H1013 H 0.2828 0.81872 0.79909 0.0
H1014 H 0.31695 0.87411 0.85069 0.0
O1015 O 0.18501 0.6135 0.47816 0.0
Tb1016 Tb 0.20607 0.5858 0.45556 0.0
Eu1017 Eu 0.19947 0.52729 0.43627 0.0
C1018 C 0.17863 0.60934 0.5022 0.0
O1019 O 0.18395 0.58689 0.51276 0.0
C1020 C 0.23896 0.54272 0.48486 0.0
O1021 O 0.19052 0.4925 0.40833 0.0
C1022 C 0.16319 0.52771 0.47078 0.0
C1023 C 0.17063 0.49314 0.39162 0.0
O1024 O 0.15635 0.5141 0.39124 0.0
C1025 C 0.17633 0.57731 0.40469 0.0
C1026 C 0.13604 0.52909 0.479 0.0
C1027 C 0.12936 0.5482 0.49711 0.0
C1028 C 0.10467 0.5488 0.50787 0.0
C1029 C 0.08649 0.53036 0.50029 0.0
C1030 C 0.09285 0.51088 0.4827 0.0
C1031 C 0.11775 0.5101 0.47206 0.0
O1032 O 0.2226 0.56224 0.48716 0.0
O1033 O 0.23708 0.5279 0.46339 0.0
O1034 O 0.2273 0.62146 0.4528 0.0
O1035 O 0.23913 0.58969 0.42934 0.0
C1036 C 0.24348 0.61379 0.43536 0.0
O1037 O 0.19041 0.5559 0.4022 0.0
O1038 O 0.17409 0.58703 0.42789 0.0
O1039 O 0.17204 0.50635 0.46035 0.0
O1040 O 0.17404 0.54877 0.46184 0.0
H1041 H 0.1436 0.562 0.50361 0.0
H1042 H 0.06763 0.53017 0.50947 0.0
H1043 H 0.12294 0.49455 0.4591 0.0
O1044 O 0.85722 0.43379 0.73943 0.0
Tb1045 Tb 0.8335 0.45287 0.71071 0.0
Eu1046 Eu 0.77608 0.4508 0.68765 0.0
C1047 C 0.87871 0.42219 0.73246 0.0
O1048 O 0.88409 0.41996 0.70783 0.0
C1049 C 0.79166 0.48981 0.7366 0.0
O1050 O 0.74117 0.44253 0.65925 0.0
C1051 C 0.77467 0.41501 0.72288 0.0
C1052 C 0.74161 0.42324 0.64193 0.0
O1053 O 0.76276 0.40928 0.64069 0.0
C1054 C 0.82635 0.42587 0.65825 0.0
C1055 C 0.77601 0.38788 0.7311 0.0
C1056 C 0.79562 0.38083 0.74872 0.0
C1057 C 0.79629 0.35595 0.75917 0.0
C1058 C 0.77736 0.33807 0.75193 0.0
C1059 C 0.75736 0.34497 0.73494 0.0
C1060 C 0.75663 0.36994 0.7245 0.0
O1061 O 0.80976 0.47208 0.74062 0.0
O1062 O 0.77791 0.48855 0.71428 0.0
O1063 O 0.87036 0.47087 0.70377 0.0
O1064 O 0.83666 0.48788 0.68712 0.0
C1065 C 0.86176 0.48915 0.68903 0.0
O1066 O 0.80603 0.4414 0.65494 0.0
O1067 O 0.83393 0.42165 0.68209 0.0
O1068 O 0.75382 0.4238 0.71126 0.0
O1069 O 0.79602 0.42565 0.71469 0.0
H1070 H 0.80985 0.39493 0.75494 0.0
H1071 H 0.77722 0.3191 0.76092 0.0
H1072 H 0.74072 0.3755 0.71201 0.0
O1073 O 0.68195 0.95131 0.57603 0.0
Tb1074 Tb 0.70544 0.97352 0.60214 0.0
Eu1075 Eu 0.70004 0.03336 0.62101 0.0
C1076 C 0.67972 0.95684 0.5515 0.0
O1077 O 0.68832 0.97915 0.54298 0.0
C1078 C 0.74149 1.01657 0.57392 0.0
O1079 O 0.69075 0.06851 0.64847 0.0
C1080 C 0.6636 0.03293 0.58641 0.0
C1081 C 0.67172 0.06786 0.66609 0.0
O1082 O 0.65872 0.0462 0.66858 0.0
C1083 C 0.67643 0.98389 0.65265 0.0
C1084 C 0.63628 0.03102 0.57861 0.0
C1085 C 0.62984 1.0126 0.5597 0.0
C1086 C 0.60485 1.01144 0.54959 0.0
C1087 C 0.58617 1.02867 0.55844 0.0
C1088 C 0.59231 0.04778 0.57656 0.0
C1089 C 0.61749 0.04898 0.58677 0.0
O1090 O 0.72723 0.99534 0.57251 0.0
O1091 O 0.73769 0.03295 0.594 0.0
O1092 O 0.71897 0.93418 0.60375 0.0
O1093 O 0.73653 0.96191 0.62875 0.0
C1094 C 0.73574 0.93761 0.62203 0.0
O1095 O 0.6913 1.00477 0.65516 0.0
O1096 O 0.67325 0.97479 0.62933 0.0
O1097 O 0.67202 0.05421 0.59739 0.0
O1098 O 0.67516 1.01196 0.59466 0.0
H1099 H 0.64443 0.99977 0.55214 0.0
H1100 H 0.56711 1.0285 0.54957 0.0
H1101 H 0.62253 0.0642 0.60019 0.0
O1102 O 0.20483 0.13234 0.73759 0.0
Tb1103 Tb 0.22515 0.1075 0.71102 0.0
Eu1104 Eu 0.28397 0.10987 0.6885 0.0
C1105 C 0.18346 0.14417 0.73036 0.0
O1106 O 0.17644 0.14337 0.70599 0.0
C1107 C 0.26762 0.07036 0.73677 0.0
O1108 O 0.31922 0.11903 0.66089 0.0
C1109 C 0.28381 0.14556 0.7237 0.0
C1110 C 0.31872 0.13767 0.64273 0.0
O1111 O 0.29697 0.15038 0.63954 0.0
C1112 C 0.23367 0.13377 0.6579 0.0
C1113 C 0.28185 0.17271 0.73155 0.0
C1114 C 0.26261 0.17925 0.74962 0.0
C1115 C 0.26114 0.20434 0.75938 0.0
C1116 C 0.27892 0.22284 0.75104 0.0
C1117 C 0.29856 0.21652 0.73362 0.0
C1118 C 0.30012 0.19136 0.72383 0.0
O1119 O 0.24944 0.088 0.7404 0.0
O1120 O 0.282 0.0719 0.71496 0.0
O1121 O 0.18719 0.09045 0.71265 0.0
O1122 O 0.21414 0.07586 0.68513 0.0
C1123 C 0.19058 0.07432 0.69392 0.0
O1124 O 0.25446 0.1188 0.65525 0.0
O1125 O 0.22503 0.13779 0.68133 0.0
O1126 O 0.30513 0.13704 0.71292 0.0
O1127 O 0.26287 0.13468 0.71473 0.0
H1128 H 0.24932 0.16466 0.75668 0.0
H1129 H 0.27854 0.24199 0.75957 0.0
H1130 H 0.31576 0.18625 0.71094 0.0
O1131 O 0.37563 0.60407 0.56853 0.0
Tb1132 Tb 0.35535 0.58446 0.59932 0.0
Eu1133 Eu 0.35858 0.52565 0.62239 0.0
C1134 C 0.38887 0.62523 0.5733 0.0
O1135 O 0.39352 0.63161 0.59734 0.0
C1136 C 0.31805 0.54138 0.57405 0.0
O1137 O 0.36698 0.49095 0.6509 0.0
C1138 C 0.39499 0.52422 0.58805 0.0
C1139 C 0.38703 0.49123 0.66746 0.0
O1140 O 0.40151 0.51208 0.6678 0.0
C1141 C 0.38333 0.57624 0.65122 0.0
C1142 C 0.42233 0.52691 0.58086 0.0
C1143 C 0.42847 0.54608 0.5626 0.0
C1144 C 0.45334 0.54767 0.55242 0.0
C1145 C 0.47231 0.53045 0.56094 0.0
C1146 C 0.46651 0.51077 0.57856 0.0
C1147 C 0.44135 0.5089 0.58859 0.0
O1148 O 0.33393 0.56116 0.57067 0.0
O1149 O 0.32082 0.52644 0.59547 0.0
O1150 O 0.34124 0.62351 0.6022 0.0
O1151 O 0.32287 0.59432 0.62474 0.0
C1152 C 0.32367 0.61893 0.61929 0.0
O1153 O 0.36798 0.55585 0.65479 0.0
O1154 O 0.38723 0.58372 0.62732 0.0
O1155 O 0.38716 0.50361 0.60062 0.0
O1156 O 0.38265 0.54532 0.59438 0.0
H1157 H 0.41357 0.55889 0.55522 0.0
H1158 H 0.49125 0.5309 0.55193 0.0
H1159 H 0.43649 0.49309 0.60143 0.0
O1160 O 0.82749 0.85667 0.63268 0.0
Tb1161 Tb 0.85349 0.8366 0.60706 0.0
Eu1162 Eu 0.87631 0.7772 0.60813 0.0
C1163 C 0.80265 0.85179 0.63308 0.0
O1164 O 0.79402 0.83072 0.62196 0.0
C1165 C 0.826 0.79384 0.5699 0.0
O1166 O 0.90515 0.74252 0.61477 0.0
C1167 C 0.84857 0.77573 0.64932 0.0
C1168 C 0.92203 0.74237 0.63457 0.0
O1169 O 0.92329 0.76322 0.64893 0.0
C1170 C 0.90708 0.82691 0.63139 0.0
C1171 C 0.83294 0.77467 0.67285 0.0
C1172 C 0.81373 0.79338 0.67715 0.0
C1173 C 0.80017 0.79359 0.7004 0.0
C1174 C 0.8059 0.77521 0.71932 0.0
C1175 C 0.82489 0.75649 0.7153 0.0
C1176 C 0.83828 0.75595 0.6919 0.0
O1177 O 0.82421 0.81383 0.5857 0.0
O1178 O 0.84659 0.77778 0.57239 0.0
O1179 O 0.87751 0.85083 0.57517 0.0
O1180 O 0.8518 0.87637 0.59466 0.0
C1181 C 0.86927 0.87461 0.57691 0.0
O1182 O 0.90951 0.80713 0.61512 0.0
O1183 O 0.88366 0.83486 0.63669 0.0
O1184 O 0.85928 0.75498 0.63953 0.0
O1185 O 0.85165 0.79699 0.63597 0.0
H1186 H 0.80936 0.80767 0.66263 0.0
H1187 H 0.79492 0.77503 0.73717 0.0
H1188 H 0.85307 0.74145 0.68882 0.0
O1189 O 0.83211 0.19473 0.94084 0.0
Tb1190 Tb 0.85684 0.22352 0.95775 0.0
Eu1191 Eu 0.87561 0.28297 0.95009 0.0
C1192 C 0.80897 0.19993 0.93209 0.0
O1193 O 0.8002 0.22367 0.93354 0.0
C1194 C 0.82741 0.26657 0.99039 0.0
O1195 O 0.90339 0.31818 0.94129 0.0
C1196 C 0.84115 0.28334 0.91357 0.0
C1197 C 0.92158 0.31767 0.92278 0.0
O1198 O 0.92471 0.29598 0.91008 0.0
C1199 C 0.90619 0.23272 0.92671 0.0
C1200 C 0.83313 0.28188 0.88632 0.0
C1201 C 0.81471 0.26298 0.87979 0.0
C1202 C 0.80371 0.26241 0.85522 0.0
C1203 C 0.81156 0.28047 0.83683 0.0
C1204 C 0.82942 0.29985 0.84296 0.0
C1205 C 0.84019 0.30074 0.86789 0.0
O1206 O 0.82515 0.24643 0.9748 0.0
O1207 O 0.8485 0.28198 0.98769 0.0
O1208 O 0.86592 0.18784 0.9774 0.0
O1209 O 0.88266 0.22282 0.99147 0.0
C1210 C 0.88143 0.1978 0.99433 0.0
O1211 O 0.90921 0.25394 0.94093 0.0
O1212 O 0.88271 0.22351 0.92451 0.0
O1213 O 0.85224 0.30443 0.9223 0.0
O1214 O 0.84919 0.26211 0.92487 0.0
H1215 H 0.80788 0.2495 0.89417 0.0
H1216 H 0.80205 0.28074 0.8181 0.0
H1217 H 0.85321 0.31632 0.87303 0.0
O1218 O 0.45615 0.99254 0.37411 0.0
Tb1219 Tb 0.47614 0.96108 0.35544 0.0
Eu1220 Eu 0.53479 0.93809 0.35861 0.0
C1221 C 0.43776 0.9882 0.39101 0.0
O1222 O 0.43453 0.96482 0.40028 0.0
C1223 C 0.51968 0.98632 0.31864 0.0
O1224 O 0.56976 0.91009 0.36785 0.0
C1225 C 0.53532 0.97366 0.39395 0.0
C1226 C 0.56911 0.89198 0.38651 0.0
O1227 O 0.54734 0.88902 0.39916 0.0
C1228 C 0.48445 0.90869 0.38285 0.0
C1229 C 0.53301 0.98203 0.42092 0.0
C1230 C 0.51385 1.00046 0.42676 0.0
C1231 C 0.51222 1.01085 0.45154 0.0
C1232 C 0.5297 1.00279 0.4705 0.0
C1233 C 0.54926 0.98497 0.46489 0.0
C1234 C 0.55101 0.97455 0.43999 0.0
O1235 O 0.50052 0.9901 0.33517 0.0
O1236 O 0.53347 0.96411 0.32049 0.0
O1237 O 0.43647 0.95684 0.3436 0.0
O1238 O 0.4654 0.93766 0.32163 0.0
C1239 C 0.4406 0.94141 0.32451 0.0
O1240 O 0.50486 0.90549 0.36759 0.0
O1241 O 0.4766 0.93247 0.3869 0.0
O1242 O 0.55632 0.96176 0.38617 0.0
O1243 O 0.51429 0.96564 0.3825 0.0
H1244 H 0.50075 1.00733 0.41186 0.0
H1245 H 0.52908 1.01172 0.48944 0.0
H1246 H 0.56656 0.96131 0.43544 0.0
O1247 O 0.24125 0.35125 0.93605 0.0
Tb1248 Tb 0.20942 0.33426 0.95667 0.0
Eu1249 Eu 0.18797 0.27539 0.95075 0.0
C1250 C 0.23834 0.37166 0.92123 0.0
O1251 O 0.21491 0.37974 0.91559 0.0
C1252 C 0.23536 0.29019 0.99254 0.0
O1253 O 0.16024 0.24027 0.94163 0.0
C1254 C 0.22311 0.27568 0.915 0.0
C1255 C 0.14314 0.24075 0.92206 0.0
O1256 O 0.14184 0.262 0.90823 0.0
C1257 C 0.15808 0.3261 0.92727 0.0
C1258 C 0.2303 0.27816 0.88765 0.0
C1259 C 0.24804 0.2977 0.8809 0.0
C1260 C 0.25784 0.29914 0.85584 0.0
C1261 C 0.24963 0.28121 0.83742 0.0
C1262 C 0.23252 0.26126 0.8439 0.0
C1263 C 0.22284 0.25965 0.86911 0.0
O1264 O 0.23846 0.31112 0.97817 0.0
O1265 O 0.21396 0.27546 0.98897 0.0
O1266 O 0.20674 0.37394 0.96916 0.0
O1267 O 0.1846 0.34543 0.98914 0.0
C1268 C 0.18983 0.37003 0.98713 0.0
O1269 O 0.15484 0.30489 0.94152 0.0
O1270 O 0.18176 0.33474 0.92451 0.0
O1271 O 0.21162 0.2545 0.923 0.0
O1272 O 0.2153 0.29654 0.92688 0.0
H1273 H 0.25509 0.31107 0.89541 0.0
H1274 H 0.25822 0.28158 0.81832 0.0
H1275 H 0.21033 0.2437 0.87437 0.0
O1276 O 0.11761 0.07843 0.8601 0.0
Tb1277 Tb 0.08832 0.10528 0.84789 0.0
Eu1278 Eu 1.02804 0.12267 0.85744 0.0
C1279 C 0.12097 0.0716 0.88422 0.0
O1280 O 0.10477 0.07915 0.90212 0.0
C1281 C 0.04457 0.07547 0.81646 0.0
O1282 O 0.99296 0.15048 0.8666 0.0
C1283 C 1.02826 0.08723 0.89296 0.0
C1284 C 0.99344 0.16737 0.88629 0.0
O1285 O 1.01458 0.16826 0.90036 0.0
C1286 C 0.07857 0.15317 0.88093 0.0
C1287 C 1.02926 0.07876 0.92007 0.0
C1288 C 0.04777 0.05996 0.92687 0.0
C1289 C 0.04825 0.04959 0.95178 0.0
C1290 C 1.03003 0.0578 0.96982 0.0
C1291 C 1.01091 0.07578 0.96319 0.0
C1292 C 1.01048 0.08638 0.93824 0.0
O1293 O 0.06518 0.07336 0.83155 0.0
O1294 O 1.0291 0.09642 0.8194 0.0
O1295 O 0.12372 0.11742 0.82964 0.0
O1296 O 0.08802 0.13081 0.81387 0.0
C1297 C 0.11319 0.13177 0.81202 0.0
O1298 O 0.05691 0.15623 0.86725 0.0
O1299 O 0.08838 0.12986 0.88213 0.0
O1300 O 1.00697 0.09786 0.884 0.0
O1301 O 0.04944 0.09638 0.88251 0.0
H1302 H 0.06123 0.05278 0.91259 0.0
H1303 H 1.02973 0.04888 0.98882 0.0
H1304 H 0.99531 0.09981 0.9329 0.0
O1305 O 0.74009 0.20314 0.12658 0.0
Tb1306 Tb 0.71179 0.22685 0.10695 0.0
Eu1307 Eu 0.68914 0.2842 0.1082 0.0
C1308 C 0.73253 0.1817 0.13791 0.0
O1309 O 0.70777 0.17653 0.13932 0.0
C1310 C 0.73866 0.26808 0.0703 0.0
O1311 O 0.66045 0.31864 0.11672 0.0
C1312 C 0.72392 0.28583 0.14442 0.0
C1313 C 0.64413 0.31811 0.13686 0.0
O1314 O 0.64424 0.29726 0.15136 0.0
C1315 C 0.65935 0.23432 0.13358 0.0
C1316 C 0.73154 0.28403 0.17165 0.0
C1317 C 0.7493 0.26455 0.1785 0.0
C1318 C 0.75893 0.26305 0.20362 0.0
C1319 C 0.75078 0.28102 0.22193 0.0
C1320 C 0.73359 0.30089 0.21532 0.0
C1321 C 0.72395 0.30252 0.19005 0.0
O1322 O 0.74219 0.25078 0.08887 0.0
O1323 O 0.71641 0.282 0.07079 0.0
O1324 O 0.70524 0.18992 0.08902 0.0
O1325 O 0.68823 0.22333 0.07186 0.0
C1326 C 0.69033 0.19826 0.07078 0.0
O1327 O 0.65618 0.2544 0.11771 0.0
O1328 O 0.68316 0.22683 0.13806 0.0
O1329 O 0.71226 0.30663 0.13563 0.0
O1330 O 0.71608 0.26452 0.13349 0.0
H1331 H 0.75625 0.25104 0.16412 0.0
H1332 H 0.75922 0.28054 0.24114 0.0
H1333 H 0.71124 0.31829 0.1847 0.0
O1334 O 0.45257 0.07768 0.18444 0.0
Tb1335 Tb 0.4795 0.09947 0.20751 0.0
Eu1336 Eu 0.53619 0.12369 0.20031 0.0
C1337 C 0.45665 0.05337 0.17903 0.0
O1338 O 0.47872 0.04284 0.18585 0.0
C1339 C 0.52405 0.0743 0.23892 0.0
O1340 O 0.57109 0.15151 0.19089 0.0
C1341 C 0.53514 0.08872 0.16442 0.0
C1342 C 0.5704 0.16956 0.17219 0.0
O1343 O 0.54861 0.17252 0.15945 0.0
C1344 C 0.48375 0.15331 0.17948 0.0
C1345 C 0.53379 0.08079 0.13721 0.0
C1346 C 0.51427 0.06317 0.1302 0.0
C1347 C 0.51321 0.05307 0.1053 0.0
C1348 C 0.5317 0.06071 0.08724 0.0
C1349 C 0.55167 0.07775 0.09394 0.0
C1350 C 0.55279 0.08785 0.11906 0.0
O1351 O 0.50739 0.06972 0.2202 0.0
O1352 O 0.53543 0.09783 0.23873 0.0
O1353 O 0.44846 0.09213 0.23399 0.0
O1354 O 0.47356 0.12418 0.24132 0.0
C1355 C 0.45367 0.11102 0.24955 0.0
O1356 O 0.50651 0.15653 0.19118 0.0
O1357 O 0.4731 0.13027 0.17904 0.0
O1358 O 0.55674 0.09838 0.17372 0.0
O1359 O 0.5143 0.09867 0.17464 0.0
H1360 H 0.50036 0.05667 0.1443 0.0
H1361 H 0.53156 0.05192 0.06822 0.0
H1362 H 0.56864 0.10041 0.12453 0.0
O1363 O 0.60687 0.48591 0.17946 0.0
Tb1364 Tb 0.58729 0.45746 0.20274 0.0
Eu1365 Eu 0.52869 0.43583 0.20013 0.0
C1366 C 0.59978 0.51019 0.17877 0.0
O1367 O 0.57716 0.51686 0.18804 0.0
C1368 C 0.54469 0.48488 0.2402 0.0
O1369 O 0.4942 0.40695 0.19302 0.0
C1370 C 0.52777 0.46413 0.15911 0.0
C1371 C 0.49385 0.39123 0.1724 0.0
O1372 O 0.51425 0.39147 0.15736 0.0
C1373 C 0.57828 0.40501 0.17699 0.0
C1374 C 0.52667 0.47986 0.13552 0.0
C1375 C 0.5457 0.49869 0.13055 0.0
C1376 C 0.54547 0.51236 0.10725 0.0
C1377 C 0.52646 0.50692 0.08886 0.0
C1378 C 0.50763 0.48814 0.09347 0.0
C1379 C 0.50744 0.47482 0.11693 0.0
O1380 O 0.56597 0.48609 0.22611 0.0
O1381 O 0.52799 0.46507 0.23614 0.0
O1382 O 0.62733 0.45571 0.21427 0.0
O1383 O 0.6 0.43224 0.23439 0.0
C1384 C 0.62436 0.43835 0.23206 0.0
O1385 O 0.55837 0.40236 0.19308 0.0
O1386 O 0.586 0.42858 0.17202 0.0
O1387 O 0.507 0.45301 0.16849 0.0
O1388 O 0.54884 0.46121 0.17286 0.0
H1389 H 0.56066 0.5026 0.1445 0.0
H1390 H 0.5261 0.5177 0.07084 0.0
H1391 H 0.49287 0.46015 0.12033 0.0
C1392 C 0.12734 0.25844 0.37021 0.0
C1393 C 0.13444 0.28444 0.37338 0.0
C1394 C 0.12394 0.2423 0.39154 0.0
C1395 C 0.12798 0.2514 0.41676 0.0
H1396 H 0.12256 0.25087 0.35131 0.0
H1397 H 0.11694 0.22284 0.38826 0.0
S1398 S 0.15064 0.31653 0.43554 0.0
N1399 N 0.14844 0.31768 0.40375 0.0
N1400 N 0.14218 0.28688 0.44382 0.0
C1401 C 0.13735 0.27652 0.42022 0.0
C1402 C 0.14061 0.29317 0.39848 0.0
C1403 C 0.49201 0.67568 0.91572 0.0
C1404 C 0.50172 0.67544 0.8904 0.0
C1405 C 0.50858 0.67456 0.937 0.0
C1406 C 0.53546 0.67329 0.93369 0.0
H1407 H 0.47155 0.67843 0.9192 0.0
H1408 H 0.50029 0.67652 0.95608 0.0
S1409 S 0.5701 0.66762 0.87109 0.0
N1410 N 0.53933 0.67042 0.86299 0.0
N1411 N 0.57081 0.66803 0.90295 0.0
C1412 C 0.54522 0.67036 0.9084 0.0
C1413 C 0.52822 0.67154 0.8867 0.0
C1414 C 0.9232 0.29086 0.41321 0.0
C1415 C 0.93827 0.31329 0.41121 0.0
C1416 C 0.91933 0.27494 0.3917 0.0
C1417 C 0.93018 0.28115 0.36754 0.0
H1418 H 0.91554 0.28486 0.43171 0.0
H1419 H 0.90891 0.25697 0.39436 0.0
S1420 S 0.96858 0.33965 0.35182 0.0
N1421 N 0.96203 0.34232 0.38284 0.0
N1422 N 0.95463 0.31256 0.3425 0.0
C1423 C 0.94362 0.30458 0.36496 0.0
C1424 C 0.94778 0.32059 0.38684 0.0
C1425 C 0.55075 0.88121 0.93656 0.0
C1426 C 0.5242 0.8853 0.93269 0.0
C1427 C 0.56731 0.87818 0.91561 0.0
C1428 C 0.55798 0.87961 0.89017 0.0
H1429 H 0.55856 0.87835 0.95578 0.0
H1430 H 0.58734 0.87329 0.9194 0.0
S1431 S 0.49113 0.89466 0.86955 0.0
N1432 N 0.48995 0.89426 0.9014 0.0
N1433 N 0.52153 0.88863 0.86199 0.0
C1434 C 0.53212 0.8863 0.88591 0.0
C1435 C 0.51508 0.88917 0.90726 0.0
C1436 C 0.13357 0.76904 0.12313 0.0
C1437 C 0.14138 0.79438 0.12861 0.0
C1438 C 0.13446 0.74999 0.14235 0.0
C1439 C 0.14388 0.75567 0.16719 0.0
H1440 H 0.1243 0.76456 0.1049 0.0
H1441 H 0.12615 0.7312 0.1383 0.0
S1442 S 0.16947 0.81833 0.18997 0.0
N1443 N 0.16079 0.82371 0.15972 0.0
N1444 N 0.16331 0.7875 0.19555 0.0
C1445 C 0.154 0.78023 0.1721 0.0
C1446 C 0.15255 0.79976 0.15278 0.0
C1447 C 1.02932 0.65441 0.13875 0.0
C1448 C 1.00477 0.66519 0.14237 0.0
C1449 C 0.0482 0.65655 0.15804 0.0
C1450 C 0.04274 0.66892 0.18157 0.0
H1451 H 0.03469 0.64658 0.12013 0.0
H1452 H 0.06773 0.65031 0.15378 0.0
S1453 S 0.98035 0.69767 0.20109 0.0
N1454 N 0.97519 0.68677 0.17157 0.0
N1455 N 1.01054 0.68996 0.20822 0.0
C1456 C 1.01754 0.67751 0.18626 0.0
C1457 C 0.99853 0.6759 0.16644 0.0
C1458 C 0.91707 0.78558 0.16695 0.0
C1459 C 0.92079 0.81089 0.15794 0.0
C1460 C 0.91876 0.7646 0.15022 0.0
C1461 C 0.92408 0.76824 0.1239 0.0
H1462 H 0.91457 0.78178 0.18738 0.0
H1463 H 0.91767 0.7453 0.1583 0.0
S1464 S 0.93217 0.83071 0.09002 0.0
N1465 N 0.92735 0.83866 0.12049 0.0
N1466 N 0.93045 0.79886 0.08895 0.0
C1467 C 0.92541 0.79345 0.11411 0.0
C1468 C 0.92376 0.81496 0.13122 0.0
C1469 C 1.00914 0.89771 0.1568 0.0
C1470 C 1.01459 0.88594 0.1807 0.0
C1471 C 1.02838 0.90039 0.13803 0.0
C1472 C 0.05325 0.8906 0.14253 0.0
H1473 H 0.98953 0.90334 0.15199 0.0
H1474 H 1.02319 0.90797 0.1192 0.0
S1475 S 0.07737 0.85929 0.2023 0.0
N1476 N 0.04679 0.86606 0.20848 0.0
N1477 N 0.08284 0.87013 0.1728 0.0
C1478 C 0.05927 0.88015 0.16685 0.0
C1479 C 0.03989 0.87806 0.18614 0.0
C1480 C 0.41569 0.14587 0.30108 0.0
C1481 C 0.40168 0.1253 0.3119 0.0
C1482 C 0.43397 0.14124 0.28159 0.0
C1483 C 0.43851 0.11596 0.2728 0.0
H1484 H 0.41169 0.16556 0.30687 0.0
H1485 H 0.44355 0.15749 0.27252 0.0
S1486 S 0.4098 0.05545 0.29831 0.0
N1487 N 0.39565 0.07879 0.31466 0.0
N1488 N 0.43003 0.07009 0.27853 0.0
C1489 C 0.42584 0.09526 0.28482 0.0
C1490 C 0.40734 0.09994 0.30431 0.0
C1491 C 0.37268 0.41581 0.06767 0.0
C1492 C 0.37561 0.39035 0.05881 0.0
C1493 C 0.37663 0.43682 0.05129 0.0
C1494 C 0.38316 0.43309 1.02528 0.0
H1495 H 0.3663 0.41957 0.08721 0.0
H1496 H 0.37278 0.45598 0.05872 0.0
S1497 S 0.39596 0.37006 0.99354 0.0
N1498 N 0.38784 0.36236 1.02339 0.0
N1499 N 0.39501 0.40192 0.99207 0.0
C1500 C 0.38793 0.40769 1.01664 0.0
C1501 C 0.38417 0.38625 0.03356 0.0
C1502 C 0.66371 0.41997 0.29022 0.0
C1503 C 0.68915 0.4224 0.28069 0.0
C1504 C 0.64232 0.42303 0.27389 0.0
C1505 C 0.64586 0.42862 0.24769 0.0
H1506 H 0.66015 0.41781 0.31071 0.0
H1507 H 0.62311 0.4231 0.28218 0.0
S1508 S 0.70797 0.43063 0.2122 0.0
N1509 N 0.71632 0.42581 0.2426 0.0
N1510 N 0.67608 0.432 0.212 0.0
C1511 C 0.67096 0.42828 0.23746 0.0
C1512 C 0.69268 0.42494 0.25397 0.0
C1513 C 0.69942 0.16734 1.00773 0.0
C1514 C 0.69232 0.14183 1.01363 0.0
C1515 C 0.69472 0.18725 1.02524 0.0
C1516 C 0.68353 0.18176 0.04921 0.0
H1517 H 0.71008 0.17162 0.99025 0.0
H1518 H 0.70258 0.20626 1.02125 0.0
S1519 S 0.65882 0.11854 0.07207 0.0
N1520 N 0.67079 0.11252 0.04316 0.0
N1521 N 0.66308 0.14981 0.07693 0.0
C1522 C 0.67439 0.15671 0.05429 0.0
C1523 C 0.6786 0.13662 0.0362 0.0
C1524 C 0.40161 0.92581 0.26538 0.0
C1525 C 0.37615 0.92634 0.27521 0.0
C1526 C 0.42304 0.92843 0.28174 0.0
C1527 C 0.41955 0.93161 0.30831 0.0
H1528 H 0.40508 0.92535 0.24478 0.0
H1529 H 0.44214 0.93004 0.27336 0.0
S1530 S 0.35771 0.92804 0.34425 0.0
N1531 N 0.34925 0.92549 0.31362 0.0
N1532 N 0.38952 0.93065 0.34434 0.0
C1533 C 0.39454 0.92932 0.31863 0.0
C1534 C 0.37278 0.92653 0.30205 0.0
C1535 C 0.17629 0.3883 1.02932 0.0
C1536 C 0.17912 0.39108 1.00259 0.0
C1537 C 0.17297 0.41011 0.04493 0.0
C1538 C 0.17237 0.43518 0.03412 0.0
H1539 H 0.17889 0.36958 0.03837 0.0
H1540 H 0.17314 0.40738 0.06567 0.0
S1541 S 0.17226 0.45139 0.96444 0.0
N1542 N 0.17639 0.41977 0.96548 0.0
N1543 N 0.16968 0.46071 0.99477 0.0
C1544 C 0.17196 0.43765 1.00717 0.0
C1545 C 0.17558 0.41555 0.99138 0.0
C1546 C 0.67045 0.62912 0.31972 0.0
C1547 C 0.64511 0.63161 0.31023 0.0
C1548 C 0.69169 0.63228 0.30352 0.0
C1549 C 0.68827 0.63763 0.27715 0.0
H1550 H 0.67392 0.62331 0.33953 0.0
H1551 H 0.71076 0.62856 0.31139 0.0
S1552 S 0.62563 0.65022 0.24399 0.0
N1553 N 0.61758 0.64306 0.27398 0.0
N1554 N 0.65751 0.64901 0.2431 0.0
C1555 C 0.66301 0.6427 0.26801 0.0
C1556 C 0.64135 0.63959 0.28468 0.0
C1557 C 0.88113 0.16687 0.05893 0.0
C1558 C 0.89349 0.14326 0.05376 0.0
C1559 C 0.88032 0.18651 0.04035 0.0
C1560 C 0.89132 0.18269 1.01598 0.0
H1561 H 0.87056 0.16949 0.07677 0.0
H1562 H 0.86879 0.20357 0.04414 0.0
S1563 S 0.92746 0.12514 0.99381 0.0
N1564 N 0.91883 0.11799 1.02367 0.0
N1565 N 0.91635 0.15455 0.98815 0.0
C1566 C 0.90517 0.15988 1.01124 0.0
C1567 C 0.90654 0.14016 0.03037 0.0
C1568 C 0.27795 0.39176 0.14888 0.0
C1569 C 0.28709 0.37591 0.12896 0.0
C1570 C 0.26391 0.41428 0.14307 0.0
C1571 C 0.25882 0.42116 0.11727 0.0
H1572 H 0.2813 0.38652 0.16886 0.0
H1573 H 0.2562 0.42575 0.15872 0.0
S1574 S 0.28181 0.38749 0.05855 0.0
N1575 N 0.29264 0.36984 0.08284 0.0
N1576 N 0.26571 0.4115 0.07188 0.0
C1577 C 0.26884 0.40587 0.09736 0.0
C1578 C 0.28319 0.38334 0.10324 0.0
C1579 C 0.2806 0.67451 0.42352 0.0
C1580 C 0.30581 0.66546 0.41906 0.0
C1581 C 0.26015 0.65737 0.42695 0.0
C1582 C 0.264 0.63059 0.42554 0.0
H1583 H 0.27681 0.69492 0.42616 0.0
H1584 H 0.24142 0.66518 0.43209 0.0
S1585 S 0.32502 0.597 0.40967 0.0
N1586 N 0.3328 0.62796 0.41 0.0
N1587 N 0.29378 0.59568 0.41607 0.0
C1588 C 0.28837 0.62124 0.41848 0.0
C1589 C 0.30947 0.63875 0.41526 0.0
C1590 C 0.88615 0.50593 0.85483 0.0
C1591 C 0.91178 0.50826 0.86354 0.0
C1592 C 0.86747 0.52392 0.86215 0.0
C1593 C 0.87425 0.545 0.87772 0.0
H1594 H 0.88084 0.4909 0.84128 0.0
H1595 H 0.84851 0.52293 0.85322 0.0
S1596 S 0.93798 0.55793 0.90777 0.0
N1597 N 0.94229 0.5312 0.89095 0.0
N1598 N 0.90734 0.56598 0.90358 0.0
C1599 C 0.89923 0.54632 0.88819 0.0
C1600 C 0.91807 0.52766 0.8813 0.0
C1601 C 0.81932 0.89301 0.42537 0.0
C1602 C 0.80931 0.91822 0.42566 0.0
C1603 C 0.80305 0.8717 0.42276 0.0
C1604 C 0.77618 0.87495 0.42083 0.0
H1605 H 0.83973 0.88964 0.42877 0.0
H1606 H 0.81146 0.85259 0.42433 0.0
S1607 S 0.74108 0.93756 0.41646 0.0
N1608 N 0.77169 0.94571 0.42044 0.0
N1609 N 0.74065 0.90568 0.41558 0.0
C1610 C 0.76623 0.90028 0.41838 0.0
C1611 C 0.78296 0.922 0.42089 0.0
C1612 C 0.66467 0.51969 0.38701 0.0
C1613 C 0.66217 0.49764 0.37154 0.0
C1614 C 0.64342 0.53585 0.39131 0.0
C1615 C 0.61903 0.53022 0.38051 0.0
H1616 H 0.68337 0.52521 0.3947 0.0
H1617 H 0.64642 0.55354 0.40206 0.0
S1618 S 0.60205 0.47296 0.34091 0.0
N1619 N 0.63314 0.46964 0.34727 0.0
N1620 N 0.59325 0.49984 0.35547 0.0
C1621 C 0.61596 0.50718 0.36655 0.0
C1622 C 0.63759 0.49095 0.36196 0.0
C1623 C 0.31699 0.66476 0.62933 0.0
C1624 C 0.30722 0.63943 0.62948 0.0
C1625 C 0.30064 0.68592 0.6323 0.0
C1626 C 0.2739 0.68239 0.63505 0.0
H1627 H 0.33722 0.66836 0.62523 0.0
H1628 H 0.30881 0.70509 0.63021 0.0
S1629 S 0.23967 0.6195 0.64152 0.0
N1630 N 0.27015 0.61159 0.63639 0.0
N1631 N 0.23894 0.6514 0.64203 0.0
C1632 C 0.26432 0.65699 0.63808 0.0
C1633 C 0.28114 0.63541 0.63521 0.0
C1634 C 0.88975 0.55359 0.69898 0.0
C1635 C 0.91583 0.54867 0.69337 0.0
C1636 C 0.87081 0.53521 0.69342 0.0
C1637 C 0.87782 0.51129 0.68296 0.0
H1638 H 0.88422 0.57108 0.70903 0.0
H1639 H 0.85124 0.53856 0.70005 0.0
S1640 S 0.94308 0.49066 0.66217 0.0
N1641 N 0.94734 0.52 0.67396 0.0
N1642 N 0.91182 0.48459 0.66476 0.0
C1643 C 0.90348 0.50712 0.67529 0.0
C1644 C 0.9226 0.5261 0.6803 0.0
C1645 C 0.14417 0.06787 0.68643 0.0
C1646 C 0.16951 0.05866 0.68357 0.0
C1647 C 0.12299 0.05217 0.68106 0.0
C1648 C 0.12648 1.02646 0.67321 0.0
H1649 H 0.14062 0.08706 0.69399 0.0
H1650 H 0.10389 0.0597 0.68507 0.0
S1651 S 0.18927 0.99457 0.65923 0.0
N1652 N 0.19726 1.02373 0.66941 0.0
N1653 N 0.15735 0.99356 0.65957 0.0
C1654 C 0.15182 1.01774 0.66812 0.0
C1655 C 0.17344 0.03402 0.67332 0.0
C1656 C 0.64033 0.79375 0.89806 0.0
C1657 C 0.63794 0.78385 0.87277 0.0
C1658 C 0.6375 0.77766 0.91965 0.0
C1659 C 0.63217 0.75136 0.91643 0.0
H1660 H 0.64232 0.81432 0.90134 0.0
H1661 H 0.63728 0.78621 0.93872 0.0
S1662 S 0.6306 0.7149 0.85495 0.0
N1663 N 0.63507 0.74525 0.84618 0.0
N1664 N 0.62922 0.71518 0.88678 0.0
C1665 C 0.63267 0.74078 0.89152 0.0
C1666 C 0.63582 0.75701 0.86961 0.0
C1667 C 0.99064 0.18428 0.41959 0.0
C1668 C 0.99987 0.18022 0.39445 0.0
C1669 C 1.00673 0.18113 0.441 0.0
C1670 C 0.03279 0.1742 0.43798 0.0
H1671 H 0.97115 0.19128 0.42271 0.0
H1672 H 0.99911 0.18608 0.45981 0.0
S1673 S 0.06501 0.15718 0.37625 0.0
N1674 N 0.03542 0.16567 0.36771 0.0
N1675 N 0.06608 0.15972 0.408 0.0
C1676 C 0.04157 0.16768 0.41304 0.0
C1677 C 1.02499 0.17076 0.3912 0.0
C1678 C 0.43959 0.77666 0.93515 0.0
C1679 C 0.42712 0.80014 0.92988 0.0
C1680 C 0.44563 0.75977 0.91507 0.0
C1681 C 0.43863 0.76569 0.88952 0.0
H1682 H 0.44744 0.77279 0.95419 0.0
H1683 H 0.45726 0.74285 0.91927 0.0
S1684 S 0.40134 0.82218 0.86679 0.0
N1685 N 0.40507 0.8269 0.89813 0.0
N1686 N 0.41531 0.7942 0.86048 0.0
C1687 C 0.42343 0.78742 0.88452 0.0
C1688 C 0.41785 0.80494 0.90482 0.0
C1689 C 1.01787 0.39014 0.41269 0.0
C1690 C 1.02804 0.38786 0.43794 0.0
C1691 C 0.03374 0.38719 0.39101 0.0
C1692 C 0.06011 0.38184 0.39405 0.0
H1693 H 0.99726 0.39215 0.40953 0.0
H1694 H 1.02497 0.38704 0.37199 0.0
S1695 S 0.09713 0.37996 0.45543 0.0
N1696 N 0.06687 0.38461 0.46432 0.0
N1697 N 0.09656 0.37863 0.4236 0.0
C1698 C 0.07092 0.3822 0.41895 0.0
C1699 C 0.05489 0.38543 0.44094 0.0
C1700 C 0.63735 0.26668 0.66014 0.0
C1701 C 0.63563 0.27583 0.68575 0.0
C1702 C 0.63538 0.28363 0.63913 0.0
C1703 C 0.63163 0.31008 0.64321 0.0
H1704 H 0.63821 0.24616 0.65616 0.0
H1705 H 0.63465 0.27573 0.61979 0.0
S1706 S 0.6322 0.3444 0.70594 0.0
N1707 N 0.63491 0.31357 0.71366 0.0
N1708 N 0.63079 0.34532 0.67412 0.0
C1709 C 0.63275 0.31975 0.66849 0.0
C1710 C 0.63496 0.30261 0.68983 0.0
C1711 C 0.53019 0.17241 0.67253 0.0
C1712 C 0.55696 0.17465 0.66952 0.0
C1713 C 0.51422 0.16946 0.65087 0.0
C1714 C 0.52477 0.16876 0.62576 0.0
H1715 H 0.52141 0.17544 0.69125 0.0
H1716 H 0.4935 0.17019 0.65374 0.0
S1717 S 0.59436 0.16677 0.60916 0.0
N1718 N 0.59376 0.17092 0.64075 0.0
N1719 N 0.56381 0.16493 0.60001 0.0
C1720 C 0.55171 0.16747 0.62312 0.0
C1721 C 0.56785 0.17066 0.64508 0.0
C1722 C 0.41692 0.26354 0.64467 0.0
C1723 C 0.44287 0.25899 0.63805 0.0
C1724 C 0.41074 0.27649 0.66764 0.0
C1725 C 0.4304 0.28484 0.68437 0.0
H1726 H 0.40142 0.25615 0.63267 0.0
H1727 H 0.39063 0.27949 0.6726 0.0
S1728 S 0.50111 0.28094 0.67367 0.0
N1729 N 0.48812 0.26619 0.64858 0.0
N1730 N 0.47652 0.29031 0.69156 0.0
C1731 C 0.4563 0.28151 0.67724 0.0
C1732 C 0.46253 0.2686 0.65404 0.0
C1733 C 0.51686 0.38546 0.66355 0.0
C1734 C 0.49666 0.36743 0.66189 0.0
C1735 C 0.53281 0.39027 0.64227 0.0
C1736 C 0.52878 0.37747 0.61865 0.0
H1737 H 0.52088 0.39527 0.68157 0.0
H1738 H 0.54898 0.4034 0.64456 0.0
S1739 S 0.47832 0.3285 0.60448 0.0
N1740 N 0.47322 0.33694 0.63471 0.0
N1741 N 0.50307 0.34612 0.59486 0.0
C1742 C 0.50807 0.36006 0.61654 0.0
C1743 C 0.49206 0.35496 0.63819 0.0
C1744 C 0.90577 0.63367 0.79647 0.0
C1745 C 0.88045 0.63754 0.78697 0.0
C1746 C 0.92715 0.6344 0.77997 0.0
C1747 C 0.92383 0.6391 0.75352 0.0
H1748 H 0.90906 0.62828 0.81643 0.0
H1749 H 0.94596 0.62916 0.78759 0.0
S1750 S 0.86259 0.65593 0.72008 0.0
N1751 N 0.854 0.65038 0.75025 0.0
N1752 N 0.89421 0.65167 0.71922 0.0
C1753 C 0.89908 0.6456 0.74431 0.0
C1754 C 0.87733 0.64484 0.76106 0.0
C1755 C 0.88935 0.91406 0.51913 0.0
C1756 C 0.88359 0.93945 0.52719 0.0
C1757 C 0.88636 0.89298 0.53587 0.0
C1758 C 0.87737 0.89669 0.56106 0.0
H1759 H 0.89468 0.91018 0.49931 0.0
H1760 H 0.88947 0.87365 0.52854 0.0
S1761 S 0.86437 0.95935 0.59318 0.0
N1762 N 0.87227 0.96718 0.56335 0.0
N1763 N 0.86628 0.92755 0.59458 0.0
C1764 C 0.87376 0.92203 0.57006 0.0
C1765 C 0.87706 0.94347 0.55318 0.0
C1766 C 0.16511 0.93001 0.74467 0.0
C1767 C 0.13925 0.93025 0.75283 0.0
C1768 C 0.18527 0.92781 0.76243 0.0
C1769 C 0.18015 0.92629 0.78897 0.0
H1770 H 0.16988 0.93306 0.72454 0.0
H1771 H 0.20491 0.92938 0.75538 0.0
S1772 S 0.11539 0.92184 0.81953 0.0
N1773 N 0.10926 0.92538 0.78842 0.0
N1774 N 0.14721 0.92138 0.82226 0.0
C1775 C 0.15424 0.92402 0.79713 0.0
C1776 C 0.13369 0.926 0.77889 0.0
C1777 C 0.17577 0.65695 0.50867 0.0
C1778 C 0.1719 0.63172 0.51839 0.0
C1779 C 0.177 0.67821 0.52528 0.0
C1780 C 0.17427 0.67474 0.55191 0.0
H1781 H 0.18015 0.66012 0.48848 0.0
H1782 H 0.18267 0.69684 0.51755 0.0
S1783 S 0.15721 0.61423 0.58617 0.0
N1784 N 0.16017 0.6056 0.55566 0.0
N1785 N 0.16299 0.64561 0.5869 0.0
C1786 C 0.16732 0.65033 0.56145 0.0
C1787 C 0.16592 0.62874 0.54462 0.0
C1788 C 0.8918 0.41238 0.77747 0.0
C1789 C 0.89899 0.41798 0.75198 0.0
C1790 C 0.90985 0.41371 0.79753 0.0
C1791 C 0.93565 0.42087 0.79282 0.0
H1792 H 0.87181 0.40819 0.78212 0.0
H1793 H 0.90315 0.41063 0.8171 0.0
S1794 S 0.96445 0.43654 0.7293 0.0
N1795 N 0.93391 0.42978 0.72281 0.0
N1796 N 0.96782 0.43248 0.76075 0.0
C1797 C 0.9435 0.42501 0.76725 0.0
C1798 C 0.92511 0.42353 0.74672 0.0
C1799 C 0.68612 0.91748 0.49137 0.0
C1800 C 0.68292 0.89218 0.50065 0.0
C1801 C 0.68219 0.93873 0.50736 0.0
C1802 C 0.67545 0.93532 0.53338 0.0
H1803 H 0.69296 0.9209 0.47189 0.0
H1804 H 0.68645 0.95776 0.49973 0.0
S1805 S 0.66109 0.87275 0.56576 0.0
N1806 N 0.66965 0.86468 0.53617 0.0
N1807 N 0.66235 0.90461 0.56675 0.0
C1808 C 0.66989 0.91008 0.54222 0.0
C1809 C 0.6737 0.88843 0.52571 0.0
C1810 C 0.12009 0.1418 0.7656 0.0
C1811 C 0.12845 0.14357 0.7913 0.0
C1812 C 0.13772 0.14491 0.7453 0.0
C1813 C 0.16408 0.14984 0.75031 0.0
H1814 H 0.10057 0.13556 0.76121 0.0
H1815 H 0.13111 0.14098 0.72583 0.0
S1816 S 0.19387 0.16197 0.81422 0.0
N1817 N 0.16343 0.1548 0.82063 0.0
N1818 N 0.19647 0.16083 0.7825 0.0
C1819 C 0.17181 0.1546 0.77581 0.0
C1820 C 0.15397 0.15137 0.79636 0.0
C1821 C 0.38453 0.65448 0.50704 0.0
C1822 C 0.38158 0.68092 0.5123 0.0
C1823 C 0.38913 0.63674 0.52686 0.0
C1824 C 0.39065 0.64481 0.55268 0.0
H1825 H 0.38226 0.64728 0.48754 0.0
H1826 H 0.39013 0.6164 0.52205 0.0
S1827 S 0.38488 0.71231 0.57632 0.0
N1828 N 0.38152 0.71468 0.5447 0.0
N1829 N 0.38978 0.68135 0.58234 0.0
C1830 C 0.38907 0.67148 0.55806 0.0
C1831 C 0.38457 0.68957 0.53772 0.0
C1832 C 0.77791 0.92009 0.63724 0.0
C1833 C 0.75153 0.91646 0.63229 0.0
C1834 C 0.79432 0.89874 0.64021 0.0
C1835 C 0.78469 0.87326 0.63838 0.0
H1836 H 0.78623 0.9393 0.63663 0.0
H1837 H 0.8149 0.90233 0.64185 0.0
S1838 S 0.71585 0.85432 0.63183 0.0
N1839 N 0.7157 0.88617 0.63002 0.0
N1840 N 0.74637 0.84607 0.63617 0.0
C1841 C 0.75785 0.8697 0.63649 0.0
C1842 C 0.74128 0.89136 0.63319 0.0
C1843 C 0.7649 0.18314 0.92294 0.0
C1844 C 0.79151 0.17839 0.92548 0.0
C1845 C 0.74724 0.16277 0.92262 0.0
C1846 C 0.75555 0.13698 0.9246 0.0
H1847 H 0.75745 0.2027 0.92293 0.0
H1848 H 0.7268 0.16738 0.92248 0.0
S1849 S 0.82327 0.11397 0.92678 0.0
N1850 N 0.82559 0.14578 0.92617 0.0
N1851 N 0.79202 0.1075 0.92578 0.0
C1852 C 0.78211 0.13179 0.92458 0.0
C1853 C 0.80021 0.15255 0.92497 0.0
C1854 C 0.38161 1.02551 0.36418 0.0
C1855 C 0.37536 0.04233 0.38436 0.0
C1856 C 0.40141 1.00745 0.36701 0.0
C1857 C 0.41552 1.0056 0.39016 0.0
H1858 H 0.37214 1.02735 0.34557 0.0
H1859 H 0.40627 0.99551 0.35061 0.0
S1860 S 0.40635 0.04498 0.44884 0.0
N1861 N 0.38448 0.05609 0.42827 0.0
N1862 N 0.42157 1.02132 0.43382 0.0
C1863 C 0.40885 1.02156 0.41086 0.0
C1864 C 0.38877 0.04024 0.40787 0.0
C1865 C 0.27639 0.43382 0.91916 0.0
C1866 C 0.30061 0.42556 0.92818 0.0
C1867 C 0.25659 0.41587 0.91448 0.0
C1868 C 0.26064 0.38923 0.91852 0.0
H1869 H 0.27216 0.45425 0.91744 0.0
H1870 H 0.23758 0.42312 0.9095 0.0
S1871 S 0.32254 0.35786 0.93702 0.0
N1872 N 0.32882 0.38911 0.93751 0.0
N1873 N 0.29199 0.35541 0.9281 0.0
C1874 C 0.28565 0.38074 0.92501 0.0
C1875 C 0.30556 0.39895 0.93009 0.0
C1876 C 0.18602 0.04024 0.87907 0.0
C1877 C 0.18087 1.01535 0.88841 0.0
C1878 C 0.16684 0.05928 0.87962 0.0
C1879 C 0.14234 0.05406 0.89014 0.0
H1880 H 0.20395 0.04427 0.86906 0.0
H1881 H 0.17062 0.07767 0.87032 0.0
S1882 S 0.12057 0.99268 0.91954 0.0
N1883 N 0.15047 0.98687 0.91003 0.0
N1884 N 0.11474 1.02319 0.9121 0.0
C1885 C 0.13781 1.02999 0.90159 0.0
C1886 C 0.15707 1.01042 0.90043 0.0
C1887 C 0.79618 0.14854 0.14794 0.0
C1888 C 0.79178 0.12434 0.1365 0.0
C1889 C 0.77621 0.16656 0.15023 0.0
C1890 C 0.75133 0.16081 0.14112 0.0
H1891 H 0.81556 0.15422 0.15357 0.0
H1892 H 0.78059 0.18558 0.1578 0.0
S1893 S 0.73024 0.10033 0.10899 0.0
N1894 N 0.76101 0.09545 0.11607 0.0
N1895 N 0.72325 0.12929 0.12031 0.0
C1896 C 0.74637 0.13615 0.13083 0.0
C1897 C 0.76673 0.11782 0.12855 0.0
C1898 C 0.38736 0.0315 0.17481 0.0
C1899 C 0.39032 1.00465 0.17575 0.0
C1900 C 0.40912 0.04752 0.17307 0.0
C1901 C 0.4343 0.03699 0.17227 0.0
H1902 H 0.36855 0.04016 0.1779 0.0
H1903 H 0.40622 0.06819 0.17461 0.0
S1904 S 0.45096 0.96751 0.16763 0.0
N1905 N 0.41924 0.96803 0.17115 0.0
N1906 N 0.46015 0.99806 0.16725 0.0
C1907 C 0.43696 1.01013 0.16985 0.0
C1908 C 0.4149 0.99393 0.17187 0.0
C1909 C 0.61789 0.55302 0.18953 0.0
C1910 C 0.62021 0.52972 0.17591 0.0
C1911 C 0.63941 0.56865 0.19383 0.0
C1912 C 0.66388 0.56176 0.18435 0.0
H1913 H 0.59984 0.55834 0.19865 0.0
H1914 H 0.63698 0.58573 0.20564 0.0
S1915 S 0.67927 0.50505 0.1438 0.0
N1916 N 0.64814 0.50208 0.1502 0.0
N1917 N 0.68872 0.53194 0.15814 0.0
C1918 C 0.66608 0.53978 0.16879 0.0
C1919 C 0.64415 0.52365 0.16456 0.0
C1920 C 1.02299 0.26888 0.31174 0.0
C1921 C 1.01279 0.25726 0.28899 0.0
C1922 C 0.04015 0.29058 0.31176 0.0
C1923 C 0.04873 0.30356 0.28907 0.0
H1924 H 1.01763 0.26101 0.33035 0.0
H1925 H 0.04671 0.29741 0.33041 0.0
S1926 S 1.02818 0.28251 0.22329 0.0
N1927 N 1.01313 0.26167 0.24228 0.0
N1928 N 0.04476 0.30212 0.24235 0.0
C1929 C 0.03864 0.29248 0.26589 0.0
C1930 C 1.02115 0.26976 0.26585 0.0
C1931 C 0.51993 0.79118 0.99718 0.0
C1932 C 0.50773 0.8002 1.02006 0.0
C1933 C 0.5413 0.77354 0.99693 0.0
C1934 C 0.55341 0.76351 1.01956 0.0
H1935 H 0.51269 0.79777 0.97867 0.0
H1936 H 0.5486 0.76774 0.97825 0.0
S1937 S 0.53038 0.78034 0.0856 0.0
N1938 N 0.51046 0.79689 0.06677 0.0
N1939 N 0.55041 0.76467 0.06633 0.0
C1940 C 0.54173 0.77242 0.04285 0.0
C1941 C 0.51929 0.79024 0.04309 0.0
C1942 C 1.02139 0.7921 0.2451 0.0
C1943 C 1.01182 0.80375 0.26801 0.0
C1944 C 0.03922 0.77092 0.24483 0.0
C1945 C 0.04891 0.75855 0.26746 0.0
H1946 H 1.01499 0.79958 0.22661 0.0
H1947 H 0.04533 0.76392 0.22614 0.0
S1948 S 1.03038 0.78007 0.33354 0.0
N1949 N 1.01411 0.80022 0.31473 0.0
N1950 N 0.04668 0.76057 0.31425 0.0
C1951 C 0.03942 0.76968 0.29078 0.0
C1952 C 1.02142 0.79193 0.29105 0.0
C1953 C 1.02119 0.76942 1.01826 0.0
C1954 C 1.00754 0.76139 0.04087 0.0
C1955 C 0.0431 0.7871 1.01893 0.0
C1956 C 0.05288 0.79826 0.04224 0.0
H1957 H 1.01535 0.76153 0.99982 0.0
H1958 H 0.05222 0.79227 1.00088 0.0
S1959 S 1.02466 0.78392 0.10708 0.0
N1960 N 1.00654 0.76673 0.08729 0.0
N1961 N 0.04598 0.79874 0.08863 0.0
C1962 C 0.03916 0.79027 0.06473 0.0
C1963 C 1.01731 0.77238 0.06404 0.0
C1964 C 0.31049 1.02908 0.26448 0.0
C1965 C 0.28887 1.01387 0.25697 0.0
C1966 C 0.31041 0.04654 0.28595 0.0
C1967 C 0.28893 0.05018 0.3028 0.0
H1968 H 0.32822 1.02738 0.25354 0.0
H1969 H 0.3281 0.05714 0.2896 0.0
S1970 S 0.22706 1.01419 0.29394 0.0
N1971 N 0.24493 1.00348 0.26979 0.0
N1972 N 0.24494 0.03539 0.30985 0.0
C1973 C 0.26707 0.03479 0.29593 0.0
C1974 C 0.26701 1.01713 0.27345 0.0
C1975 C 0.26575 0.54324 0.0339 0.0
C1976 C 0.26306 0.52285 0.05243 0.0
C1977 C 0.28354 0.54219 1.01215 0.0
C1978 C 0.30003 0.52061 1.00714 0.0
H1979 H 0.25344 0.56003 0.03572 0.0
H1980 H 0.28425 0.55854 0.99912 0.0
S1981 S 0.30025 0.46142 0.04895 0.0
N1982 N 0.27861 0.4801 0.06291 0.0
N1983 N 0.31095 0.47793 1.02392 0.0
C1984 C 0.29721 0.50024 1.02571 0.0
C1985 C 0.27921 0.50134 0.04745 0.0
C1986 C 0.74809 0.51968 0.28861 0.0
C1987 C 0.77064 0.51204 0.30255 0.0
C1988 C 0.74823 0.53705 0.26709 0.0
C1989 C 0.77099 0.5483 0.25661 0.0
H1990 H 0.72947 0.5122 0.29455 0.0
H1991 H 0.72973 0.54176 0.25843 0.0
S1992 S 0.83632 0.53579 0.2847 0.0
N1993 N 0.81722 0.51813 0.30328 0.0
N1994 N 0.8175 0.55013 0.26312 0.0
C1995 C 0.79399 0.54091 0.27005 0.0
C1996 C 0.79381 0.52324 0.29261 0.0
C1997 C 0.76644 0.06246 1.02137 0.0
C1998 C 0.76106 0.0405 1.00566 0.0
C1999 C 0.78422 0.06237 0.04264 0.0
C2000 C 0.79799 0.04013 0.051 0.0
H2001 H 0.75695 0.08059 1.01701 0.0
H2002 H 0.78728 0.08042 0.05276 0.0
S2003 S 0.79227 0.97662 1.01759 0.0
N2004 N 0.77226 0.99519 1.00086 0.0
N2005 N 0.80479 0.99491 0.0406 0.0
C2006 C 0.79285 1.01774 0.03579 0.0
C2007 C 0.77487 1.01794 1.01351 0.0
C2008 C 0.30176 0.27393 1.02874 0.0
C2009 C 0.30085 0.288 0.0524 0.0
C2010 C 0.28047 0.27321 1.01035 0.0
C2011 C 0.25625 0.28598 1.01431 0.0
H2012 H 0.31946 0.26396 1.02384 0.0
H2013 H 0.28339 0.26304 0.99237 0.0
S2014 S 0.24238 0.32593 0.07211 0.0
N2015 N 0.27188 0.31509 0.07768 0.0
N2016 N 0.23377 0.31382 0.04396 0.0
C2017 C 0.25508 0.29986 0.03773 0.0
C2018 C 0.27651 0.30071 0.05632 0.0
C2019 C 0.2732 0.79303 0.5411 0.0
C2020 C 0.25793 0.77057 0.54639 0.0
C2021 C 0.29517 0.79302 0.52353 0.0
C2022 C 0.30347 0.77058 0.50976 0.0
H2023 H 0.2686 0.81076 0.5511 0.0
H2024 H 0.30554 0.81094 0.52056 0.0
S2025 S 0.27092 0.70637 0.51662 0.0
N2026 N 0.254 0.72519 0.53586 0.0
N2027 N 0.29349 0.72503 0.50404 0.0
C2028 C 0.28819 0.74822 0.5151 0.0
C2029 C 0.26628 0.74824 0.53288 0.0
C2030 C 0.04333 0.54108 0.77006 0.0
C2031 C 1.02026 0.55406 0.76186 0.0
C2032 C 0.04333 0.51883 0.78745 0.0
C2033 C 1.02028 0.50793 0.79818 0.0
H2034 H 0.06167 0.54778 0.7626 0.0
H2035 H 0.06173 0.51038 0.79277 0.0
S2036 S 0.95443 0.53392 0.78346 0.0
N2037 N 0.97369 0.55313 0.7669 0.0
N2038 N 0.97363 0.51304 0.79803 0.0
C2039 C 0.99736 0.52093 0.79001 0.0
C2040 C 0.99736 0.54315 0.77249 0.0
C2041 C 0.79354 0.76853 0.53772 0.0
C2042 C 0.80335 0.79171 0.54919 0.0
C2043 C 0.77145 0.76805 0.52012 0.0
C2044 C 0.75752 0.79073 0.51248 0.0
H2045 H 0.80282 0.7504 0.54251 0.0
H2046 H 0.76571 0.74969 0.51195 0.0
S2047 S 0.77453 0.85673 0.53582 0.0
N2048 N 0.79609 0.83814 0.55022 0.0
N2049 N 0.75637 0.83708 0.51853 0.0
C2050 C 0.7673 0.81376 0.52379 0.0
C2051 C 0.78935 0.81428 0.54155 0.0
C2052 C 0.51963 0.5426 0.28646 0.0
C2053 C 0.54268 0.55289 0.29794 0.0
C2054 C 0.51949 0.52044 0.26898 0.0
C2055 C 0.5424 0.50684 0.26147 0.0
H2056 H 0.50134 0.55154 0.29116 0.0
H2057 H 0.50118 0.51434 0.26088 0.0
S2058 S 0.60821 0.52488 0.28527 0.0
N2059 N 0.58927 0.54629 0.29914 0.0
N2060 N 0.5888 0.50633 0.26817 0.0
C2061 C 0.56528 0.51701 0.27296 0.0
C2062 C 0.56547 0.53919 0.29043 0.0
C2063 C 1.02112 1.01531 0.7734 0.0
C2064 C 0.04303 1.00895 0.75787 0.0
C2065 C 1.02064 0.03716 0.79109 0.0
C2066 C 0.04206 0.0543 0.79474 0.0
H2067 H 1.00403 1.00333 0.77194 0.0
H2068 H 1.00345 0.04014 0.80257 0.0
S2069 S 0.1046 0.04711 0.76003 0.0
N2070 N 0.08704 1.02304 0.74872 0.0
N2071 N 0.08592 0.06224 0.78083 0.0
C2072 C 0.06386 0.048 0.77946 0.0
C2073 C 0.06437 1.0262 0.76154 0.0
C2074 C 0.53979 0.78941 0.81131 0.0
C2075 C 0.54908 0.80167 0.7885 0.0
C2076 C 0.52233 0.76791 0.8114 0.0
C2077 C 0.51268 0.75578 0.7887 0.0
H2078 H 0.54602 0.79668 0.8299 0.0
H2079 H 0.51637 0.76055 0.83004 0.0
S2080 S 0.53034 0.77888 0.72279 0.0
N2081 N 0.5465 0.79891 0.74176 0.0
N2082 N 0.5145 0.75876 0.74192 0.0
C2083 C 0.52185 0.7675 0.76547 0.0
C2084 C 0.53954 0.79005 0.76538 0.0
C2085 C 0.0414 0.27235 0.49829 0.0
C2086 C 0.05319 0.26241 0.52108 0.0
C2087 C 1.01977 0.28962 0.49821 0.0
C2088 C 1.00702 0.29842 0.5209 0.0
H2089 H 0.04913 0.26676 0.47972 0.0
H2090 H 1.01283 0.29614 0.47956 0.0
S2091 S 1.02859 0.27846 0.58675 0.0
N2092 N 0.04921 0.26317 0.5678 0.0
N2093 N 1.00886 0.29491 0.56764 0.0
C2094 C 1.01825 0.28852 0.54411 0.0
C2095 C 0.04092 0.27099 0.5442 0.0
C2096 C 0.55175 0.27993 0.78372 0.0
C2097 C 0.54735 0.25534 0.77185 0.0
C2098 C 0.53316 0.30103 0.7832 0.0
C2099 C 0.50881 0.29951 0.77021 0.0
H2100 H 0.57021 0.28328 0.79304 0.0
H2101 H 0.53844 0.31904 0.79238 0.0
S2102 S 0.48761 0.23983 0.73505 0.0
N2103 N 0.51646 0.23184 0.74606 0.0
N2104 N 0.48236 0.26952 0.74529 0.0
C2105 C 0.50445 0.27479 0.75845 0.0
C2106 C 0.52324 0.25359 0.75909 0.0
C2107 C 0.54058 0.29028 0.51729 0.0
C2108 C 0.55397 0.2975 0.54041 0.0
C2109 C 0.51848 0.27274 0.51698 0.0
C2110 C 0.50816 0.26094 0.53975 0.0
H2111 H 0.54684 0.29862 0.49919 0.0
H2112 H 0.50974 0.26809 0.49857 0.0
S2113 S 0.53534 0.27282 0.60551 0.0
N2114 N 0.55394 0.29054 0.58671 0.0
N2115 N 0.51422 0.25884 0.58615 0.0
C2116 C 0.52153 0.26813 0.56271 0.0
C2117 C 0.54356 0.28585 0.56304 0.0
C2118 C 0.76753 0.51839 0.77233 0.0
C2119 C 0.7899 0.51201 0.75745 0.0
C2120 C 0.76795 0.53654 0.79381 0.0
C2121 C 0.79073 0.54996 0.80196 0.0
H2122 H 0.74948 0.5088 0.76781 0.0
H2123 H 0.75006 0.54022 0.80392 0.0
S2124 S 0.85493 0.5403 0.77035 0.0
N2125 N 0.83566 0.52097 0.75386 0.0
N2126 N 0.8365 0.55422 0.79223 0.0
C2127 C 0.81302 0.54361 0.78703 0.0
C2128 C 0.81261 0.52507 0.76569 0.0
C2129 C 0.77123 0.99688 0.53885 0.0
C2130 C 0.76222 1.01951 0.55159 0.0
C2131 C 0.78858 0.99707 0.51733 0.0
C2132 C 0.7985 1.01992 0.50561 0.0
H2133 H 0.76484 0.97817 0.54572 0.0
H2134 H 0.79422 0.97848 0.50961 0.0
S2135 S 0.78179 0.08555 0.53018 0.0
N2136 N 0.76545 0.06631 0.54979 0.0
N2137 N 0.79729 0.06668 0.50964 0.0
C2138 C 0.78966 0.043 0.51786 0.0
C2139 C 0.77203 0.04279 0.54043 0.0
C2140 C 0.29135 1.02176 0.79283 0.0
C2141 C 0.26798 1.01148 0.80345 0.0
C2142 C 0.29187 0.03948 0.77092 0.0
C2143 C 0.26904 0.04848 0.75807 0.0
H2144 H 0.30958 1.01584 0.80127 0.0
H2145 H 0.31041 0.04663 0.76443 0.0
S2146 S 0.2026 1.02841 0.77755 0.0
N2147 N 0.22131 1.01279 0.79814 0.0
N2148 N 0.22234 0.04492 0.75878 0.0
C2149 C 0.24582 0.03834 0.76868 0.0
C2150 C 0.24528 1.02038 0.79051 0.0
C2151 C 0.26594 0.56194 0.52248 0.0
C2152 C 0.25951 0.53988 0.50734 0.0
C2153 C 0.28367 0.56149 0.54379 0.0
C2154 C 0.29628 0.5388 0.55285 0.0
H2155 H 0.25738 0.5804 0.51755 0.0
H2156 H 0.28766 0.57965 0.55338 0.0
S2157 S 0.28726 0.47478 0.52115 0.0
N2158 N 0.26831 0.49392 0.50384 0.0
N2159 N 0.30071 0.49301 0.54369 0.0
C2160 C 0.29002 0.51631 0.53821 0.0
C2161 C 0.27212 0.51685 0.51585 0.0
C2162 C 0.79176 0.29182 1.01843 0.0
C2163 C 0.80581 0.26895 1.01186 0.0
C2164 C 0.76991 0.29195 0.03617 0.0
C2165 C 0.76057 0.26927 0.04895 0.0
H2166 H 0.79726 0.30985 1.00936 0.0
H2167 H 0.76054 0.3102 0.04015 0.0
S2168 S 0.7897 0.20402 0.03882 0.0
N2169 N 0.80742 0.2229 1.02025 0.0
N2170 N 0.76823 0.22311 0.0525 0.0
C2171 C 0.77462 0.24652 0.0424 0.0
C2172 C 0.79637 0.24636 1.02437 0.0
C2173 C 0.51756 0.03487 0.30425 0.0
C2174 C 0.52468 1.00877 0.29855 0.0
C2175 C 0.51914 0.0559 0.28599 0.0
C2176 C 0.52754 0.0527 0.26011 0.0
H2177 H 0.5101 0.03921 0.32326 0.0
H2178 H 0.51247 0.07477 0.29201 0.0
S2179 S 0.54728 0.98875 0.23346 0.0
N2180 N 0.54037 0.98179 0.26382 0.0
N2181 N 0.5422 1.02009 0.2299 0.0
C2182 C 0.53449 1.02672 0.254 0.0
C2183 C 0.53349 1.00538 0.27285 0.0
C2184 C 0.19602 0.25163 0.3036 0.0
C2185 C 0.20526 0.2765 0.30935 0.0
C2186 C 0.20995 0.22967 0.31128 0.0
C2187 C 0.23333 0.23221 0.32491 0.0
H2188 H 0.17993 0.24924 0.29038 0.0
H2189 H 0.20416 0.211 0.30381 0.0
S2190 S 0.26267 0.29283 0.34878 0.0
N2191 N 0.23662 0.30224 0.33282 0.0
N2192 N 0.26282 0.26095 0.3473 0.0
C2193 C 0.24072 0.25673 0.3337 0.0
C2194 C 0.22659 0.27898 0.32591 0.0
C2195 C 0.48292 0.59482 0.99185 0.0
C2196 C 0.48568 0.57221 0.97709 0.0
C2197 C 0.50476 0.60854 1.0004 0.0
C2198 C 0.52982 0.59993 0.9944 0.0
H2199 H 0.46416 0.59999 0.99955 0.0
H2200 H 0.5021 0.62404 1.01416 0.0
S2201 S 0.54686 0.54492 0.95235 0.0
N2202 N 0.51495 0.54442 0.9535 0.0
N2203 N 0.55595 0.57007 0.96974 0.0
C2204 C 0.53255 0.57943 0.97701 0.0
C2205 C 0.51042 0.56565 0.96819 0.0
C2206 C 0.82615 0.27705 0.33193 0.0
C2207 C 0.84769 0.27943 0.31565 0.0
C2208 C 0.81221 0.29889 0.33963 0.0
C2209 C 0.8193 0.32369 0.33106 0.0
H2210 H 0.81838 0.25811 0.33634 0.0
H2211 H 0.79403 0.29609 0.34959 0.0
S2212 S 0.87687 0.34042 0.29214 0.0
N2213 N 0.87781 0.3086 0.29459 0.0
N2214 N 0.85133 0.3497 0.30879 0.0
C2215 C 0.84268 0.32654 0.31766 0.0
C2216 C 0.85698 0.3043 0.30994 0.0
C2217 C 0.55465 0.95402 1.00129 0.0
C2218 C 0.52975 0.96304 0.99502 0.0
C2219 C 0.5767 0.96792 0.9937 0.0
C2220 C 0.5743 0.99108 0.97966 0.0
H2221 H 0.55699 0.93805 1.01464 0.0
H2222 H 0.59531 0.9623 1.00157 0.0
S2223 S 0.51378 1.01956 0.95422 0.0
N2224 N 0.50424 0.99385 0.97056 0.0
N2225 N 0.54565 1.0199 0.95625 0.0
C2226 C 0.54979 0.99816 0.9704 0.0
C2227 C 0.52745 0.98413 0.97816 0.0
C2228 C 0.22783 0.78052 0.22959 0.0
C2229 C 0.20698 0.78465 0.24642 0.0
C2230 C 0.24344 0.80113 0.22159 0.0
C2231 C 0.23855 0.82641 0.23014 0.0
H2232 H 0.23405 0.761 0.22532 0.0
H2233 H 0.26112 0.79687 0.21127 0.0
S2234 S 0.18315 0.84768 0.2699 0.0
N2235 N 0.17972 0.81602 0.26781 0.0
N2236 N 0.20901 0.85493 0.25269 0.0
C2237 C 0.21569 0.83114 0.24392 0.0
C2238 C 0.19985 0.81012 0.25211 0.0
C2239 C 0.05 0.56342 0.08916 0.0
C2240 C 0.0748 0.56964 0.08 0.0
C2241 C 1.02836 0.57767 0.0813 0.0
C2242 C 0.03097 0.59863 0.06424 0.0
H2243 H 0.04697 0.54565 0.09982 0.0
H2244 H 1.0093 0.57054 0.08624 0.0
S2245 S 0.09213 0.62532 0.03854 0.0
N2246 N 0.10115 0.60019 0.05608 0.0
N2247 N 0.06039 0.62718 0.04149 0.0
C2248 C 0.05592 0.60705 0.05776 0.0
C2249 C 0.07796 0.59248 0.06568 0.0
C2250 C 0.85677 0.75635 0.24935 0.0
C2251 C 0.848 0.78137 0.24329 0.0
C2252 C 0.84248 0.73454 0.24186 0.0
C2253 C 0.81912 0.7373 0.22816 0.0
H2254 H 0.87289 0.75377 0.26251 0.0
H2255 H 0.84795 0.71585 0.24961 0.0
S2256 S 0.79093 0.79825 0.20354 0.0
N2257 N 0.81707 0.80737 0.2195 0.0
N2258 N 0.79025 0.76639 0.20537 0.0
C2259 C 0.81222 0.76192 0.21911 0.0
C2260 C 0.82666 0.78402 0.22676 0.0
C2261 C 1.01034 0.99764 0.08736 0.0
C2262 C 0.98547 0.99099 0.07857 0.0
C2263 C 0.03198 0.98315 0.08009 0.0
C2264 C 1.02935 0.96152 0.06394 0.0
H2265 H 1.0134 1.01582 0.09725 0.0
H2266 H 0.05104 0.99054 0.08471 0.0
S2267 S 0.96804 0.93365 0.03959 0.0
N2268 N 0.95907 0.95943 0.05605 0.0
N2269 N 0.99982 0.93203 0.04252 0.0
C2270 C 1.00435 0.9528 0.05787 0.0
C2271 C 0.98231 0.96761 0.06522 0.0
C2272 C 0.31048 0.20753 0.22991 0.0
C2273 C 0.3246 0.23059 0.23208 0.0
C2274 C 0.3029 0.19393 0.25205 0.0
C2275 C 0.30926 0.20322 0.27673 0.0
H2276 H 0.30252 0.20181 0.21141 0.0
H2277 H 0.28929 0.17814 0.24997 0.0
S2278 S 0.34997 0.25995 0.29204 0.0
N2279 N 0.34802 0.25984 0.26021 0.0
N2280 N 0.3337 0.2343 0.30189 0.0
C2281 C 0.32627 0.22421 0.27883 0.0
C2282 C 0.33398 0.23797 0.25638 0.0
C2283 C 0.45104 0.5031 0.05192 0.0
C2284 C 0.46109 0.49665 1.02757 0.0
C2285 C 0.46459 0.49669 0.07452 0.0
C2286 C 0.4883 0.48359 0.07316 0.0
H2287 H 0.4345 0.51584 0.05336 0.0
H2288 H 0.45813 0.5047 0.09271 0.0
S2289 S 0.51966 0.45796 1.0145 0.0
N2290 N 0.49357 0.47294 1.00371 0.0
N2291 N 0.51897 0.46075 0.04625 0.0
C2292 C 0.49653 0.47404 0.04926 0.0
C2293 C 0.48287 0.48063 1.02635 0.0
C2294 C 0.74333 0.34438 0.23256 0.0
C2295 C 0.72929 0.3212 0.23476 0.0
C2296 C 0.75072 0.35818 0.2547 0.0
C2297 C 0.74427 0.34903 0.27944 0.0
H2298 H 0.7514 0.35003 0.21412 0.0
H2299 H 0.76412 0.37414 0.25258 0.0
S2300 S 0.70304 0.29269 0.29473 0.0
N2301 N 0.70539 0.29245 0.26294 0.0
N2302 N 0.7194 0.31829 0.30452 0.0
C2303 C 0.72726 0.32805 0.28148 0.0
C2304 C 0.71966 0.31415 0.25905 0.0
C2305 C 0.58002 0.08277 1.02849 0.0
C2306 C 0.60104 0.06573 0.03083 0.0
C2307 C 0.56607 0.09049 0.05027 0.0
C2308 C 0.57264 0.08121 0.07497 0.0
H2309 H 0.57255 0.08772 1.00956 0.0
H2310 H 0.54821 0.10106 0.04743 0.0
S2311 S 0.6289 0.04021 0.09164 0.0
N2312 N 0.63023 0.04319 0.05992 0.0
N2313 N 0.60377 0.05751 0.10093 0.0
C2314 C 0.59561 0.06706 0.07785 0.0
C2315 C 0.6099 0.05928 0.05566 0.0
C2316 C 0.33255 0.82664 0.27651 0.0
C2317 C 0.31673 0.84857 0.27871 0.0
C2318 C 0.34091 0.81323 0.29851 0.0
C2319 C 0.33332 0.82113 0.32333 0.0
H2320 H 0.33615 0.81828 0.25771 0.0
H2321 H 0.35045 0.79478 0.29595 0.0
S2322 S 0.29621 0.88006 0.33942 0.0
N2323 N 0.29742 0.88 0.30756 0.0
N2324 N 0.31272 0.85443 0.34897 0.0
C2325 C 0.3205 0.8449 0.32584 0.0
C2326 C 0.31217 0.8587 0.30343 0.0
C2327 C 0.0624 0.47015 1.01013 0.0
C2328 C 0.06981 0.47845 0.98537 0.0
C2329 C 0.07641 0.47768 0.03202 0.0
C2330 C 0.09832 0.49358 0.02977 0.0
H2331 H 0.04399 0.46054 1.01282 0.0
H2332 H 0.06844 0.47351 0.0509 0.0
S2333 S 0.12859 0.5158 0.96894 0.0
N2334 N 0.10267 0.49966 0.95953 0.0
N2335 N 0.12922 0.51366 1.00076 0.0
C2336 C 0.10794 0.49885 1.00497 0.0
C2337 C 0.09359 0.49125 0.98266 0.0
C2338 C 0.74305 0.71746 0.32661 0.0
C2339 C 0.7289 0.74053 0.32407 0.0
C2340 C 0.75061 0.70349 0.30469 0.0
C2341 C 0.74421 0.71233 0.27979 0.0
H2342 H 0.75108 0.71204 0.3452 0.0
H2343 H 0.76407 0.68762 0.3071 0.0
S2344 S 0.70302 0.76847 0.26353 0.0
N2345 N 0.70517 0.76899 0.29534 0.0
N2346 N 0.71947 0.74282 0.25416 0.0
C2347 C 0.7272 0.73327 0.27738 0.0
C2348 C 0.71944 0.74736 0.29959 0.0
C2349 C 0.96722 0.0655 0.97965 0.0
C2350 C 0.99008 0.08002 0.98214 0.0
C2351 C 0.95286 0.05843 1.00153 0.0
C2352 C 0.96105 0.06576 1.02637 0.0
H2353 H 0.96222 0.0569 0.96124 0.0
H2354 H 0.93719 0.04472 0.99927 0.0
S2355 S 1.01656 0.1079 0.04235 0.0
N2356 N 1.01781 0.10476 1.01066 0.0
N2357 N 0.9908 0.09155 0.05174 0.0
C2358 C 0.98182 0.08302 1.02861 0.0
C2359 C 0.99637 0.09019 1.00643 0.0
C2360 C 0.25139 0.30094 0.19541 0.0
C2361 C 0.27639 0.30716 0.20406 0.0
C2362 C 0.22962 0.30904 0.20925 0.0
C2363 C 0.23249 0.32353 0.23197 0.0
H2364 H 0.24879 0.28714 0.17992 0.0
H2365 H 0.21088 0.30123 0.20405 0.0
S2366 S 0.29349 0.34888 0.25939 0.0
N2367 N 0.30257 0.33195 0.23399 0.0
N2368 N 0.2616 0.34723 0.26003 0.0
C2369 C 0.2571 0.33275 0.23864 0.0
C2370 C 0.27917 0.32452 0.22461 0.0
C2371 C 0.2329 0.75048 0.34589 0.0
C2372 C 0.23399 0.73605 0.323 0.0
C2373 C 0.2556 0.75656 0.35945 0.0
C2374 C 0.27984 0.74849 0.35024 0.0
H2375 H 0.21495 0.75958 0.35162 0.0
H2376 H 0.25447 0.7702 0.37524 0.0
S2377 S 0.29208 0.7064 0.29401 0.0
N2378 N 0.26042 0.71063 0.294 0.0
N2379 N 0.30314 0.72217 0.31944 0.0
C2380 C 0.28067 0.73138 0.32933 0.0
C2381 C 0.25764 0.72514 0.31564 0.0
C2382 C 0.97093 0.54997 0.99479 0.0
C2383 C 0.98012 0.57473 0.98839 0.0
C2384 C 0.97848 0.52824 0.9806 0.0
C2385 C 0.99535 0.53064 0.95952 0.0
H2386 H 0.96046 0.54703 1.01264 0.0
H2387 H 0.97349 0.50926 0.9879 0.0
S2388 S 1.02084 0.59167 0.93218 0.0
N2389 N 1.00372 0.60083 0.95742 0.0
N2390 N 1.01779 0.55993 0.93059 0.0
C2391 C 1.00183 0.55556 0.95092 0.0
C2392 C 0.99418 0.57771 0.96542 0.0
C2393 C 0.77823 0.83226 0.32735 0.0
C2394 C 0.78083 0.81549 0.34856 0.0
C2395 C 0.79989 0.84012 0.31319 0.0
C2396 C 0.82478 0.83123 0.31969 0.0
H2397 H 0.75917 0.83698 0.31999 0.0
H2398 H 0.79684 0.85051 0.29527 0.0
S2399 S 0.84217 0.79097 0.37629 0.0
N2400 N 0.81038 0.79361 0.37779 0.0
N2401 N 0.85116 0.8081 0.35091 0.0
C2402 C 0.82791 0.8173 0.34278 0.0
C2403 C 0.80584 0.80942 0.3573 0.0
C2404 C 0.55751 0.50225 0.45042 0.0
C2405 C 0.56345 0.52777 0.45756 0.0
C2406 C 0.56585 0.48136 0.46562 0.0
C2407 C 0.58022 0.48558 0.48831 0.0
H2408 H 0.54372 0.49866 0.43506 0.0
H2409 H 0.55821 0.46231 0.46147 0.0
S2410 S 0.60496 0.54825 0.51204 0.0
N2411 N 0.58799 0.55572 0.48602 0.0
N2412 N 0.60362 0.51646 0.51461 0.0
C2413 C 0.58921 0.51061 0.49344 0.0
C2414 C 0.5808 0.53179 0.478 0.0
C2415 C 0.30511 0.75019 0.70259 0.0
C2416 C 0.28015 0.74431 0.71158 0.0
C2417 C 0.32706 0.74282 0.71682 0.0
C2418 C 0.32448 0.72939 0.7403 0.0
H2419 H 0.30757 0.76316 0.68633 0.0
H2420 H 0.34572 0.75043 0.71113 0.0
S2421 S 0.26374 0.70501 0.76893 0.0
N2422 N 0.2544 0.72075 0.74276 0.0
N2423 N 0.29562 0.70686 0.76946 0.0
C2424 C 0.29992 0.72044 0.74742 0.0
C2425 C 0.27768 0.72796 0.73303 0.0
C2426 C 0.97787 0.53342 0.57745 0.0
C2427 C 0.99418 0.53098 0.59907 0.0
C2428 C 0.97024 0.51166 0.56333 0.0
C2429 C 0.97879 0.48683 0.57035 0.0
H2430 H 0.97348 0.55239 0.56973 0.0
H2431 H 0.9603 0.51456 0.54511 0.0
S2432 S 1.01748 0.46983 0.62817 0.0
N2433 N 1.01512 0.50164 0.62919 0.0
N2434 N 1.00088 0.46066 0.60247 0.0
C2435 C 0.99211 0.48387 0.59382 0.0
C2436 C 0.99983 0.50605 0.60827 0.0
C2437 C 0.06688 0.07918 0.59505 0.0
C2438 C 0.08143 0.07511 0.57252 0.0
C2439 C 0.05752 0.05817 0.60944 0.0
C2440 C 0.06262 0.03267 0.60168 0.0
H2441 H 0.05986 0.09836 0.59959 0.0
H2442 H 0.04373 0.06183 0.62471 0.0
S2443 S 0.10406 1.01225 0.54739 0.0
N2444 N 0.10402 0.04412 0.54579 0.0
N2445 N 0.0864 1.00466 0.57282 0.0
C2446 C 0.08001 1.0286 0.58141 0.0
C2447 C 0.08954 0.04989 0.56684 0.0
C2448 C 0.714 0.7309 0.81539 0.0
C2449 C 0.7365 0.73506 0.83013 0.0
C2450 C 0.69948 0.75186 0.80606 0.0
C2451 C 0.70711 0.77737 0.81138 0.0
H2452 H 0.70959 0.71174 0.80822 0.0
H2453 H 0.68427 0.74818 0.79212 0.0
S2454 S 0.76115 0.7979 0.85351 0.0
N2455 N 0.76296 0.76604 0.85324 0.0
N2456 N 0.73571 0.80542 0.83567 0.0
C2457 C 0.72728 0.78147 0.82902 0.0
C2458 C 0.74198 0.76022 0.83851 0.0
C2459 C 1.00765 0.11024 0.50224 0.0
C2460 C 0.03196 0.09972 0.49616 0.0
C2461 C 0.98485 0.09737 0.49518 0.0
C2462 C 0.98593 0.07386 0.48175 0.0
H2463 H 1.0063 0.12666 0.51511 0.0
H2464 H 0.96663 0.10413 0.50293 0.0
S2465 S 0.04453 0.04149 0.45696 0.0
N2466 N 0.0556 0.06702 0.47255 0.0
N2467 N 1.0127 0.04292 0.45909 0.0
C2468 C 1.0099 0.0652 0.47263 0.0
C2469 C 0.03302 0.07814 0.47993 0.0
C2470 C 0.34522 0.8276 0.81611 0.0
C2471 C 0.32232 0.82493 0.83046 0.0
C2472 C 0.35935 0.80574 0.80847 0.0
C2473 C 0.35087 0.78074 0.815 0.0
H2474 H 0.35036 0.84622 0.80801 0.0
H2475 H 0.37503 0.80825 0.79487 0.0
S2476 S 0.29506 0.7641 0.8563 0.0
N2477 N 0.29427 0.79594 0.85421 0.0
N2478 N 0.32074 0.75491 0.83982 0.0
C2479 C 0.33008 0.77822 0.83213 0.0
C2480 C 0.31582 0.80037 0.83994 0.0
C2481 C 0.07636 0.46727 0.49335 0.0
C2482 C 0.07364 0.49016 0.47891 0.0
C2483 C 0.05449 0.45324 0.50122 0.0
C2484 C 1.02948 0.46188 0.49487 0.0
H2485 H 0.09504 0.46205 0.50132 0.0
H2486 H 0.05704 0.43753 0.51485 0.0
S2487 S 1.01275 0.5174 0.45302 0.0
N2488 N 0.04462 0.51814 0.45497 0.0
N2489 N 1.00355 0.4919 0.46988 0.0
C2490 C 1.02688 0.48259 0.47759 0.0
C2491 C 0.04904 0.49671 0.4695 0.0
C2492 C 0.6983 0.30913 0.75434 0.0
C2493 C 0.70542 0.28384 0.74759 0.0
C2494 C 0.71334 0.33029 0.74648 0.0
C2495 C 0.73585 0.32654 0.73178 0.0
H2496 H 0.68316 0.31228 0.76839 0.0
H2497 H 0.70927 0.34909 0.75468 0.0
S2498 S 0.7593 0.26475 0.70493 0.0
N2499 N 0.73352 0.25672 0.7219 0.0
N2500 N 0.76187 0.29647 0.70723 0.0
C2501 C 0.7409 0.30183 0.72201 0.0
C2502 C 0.72559 0.2804 0.7299 0.0
C2503 C 0.54777 0.06062 0.58817 0.0
C2504 C 0.57278 0.06821 0.58069 0.0
C2505 C 0.52602 0.07466 0.58019 0.0
C2506 C 0.52867 0.09688 0.5648 0.0
H2507 H 0.54483 0.04203 0.59735 0.0
H2508 H 0.50702 0.06657 0.58366 0.0
S2509 S 0.59008 0.12763 0.54474 0.0
N2510 N 0.59913 0.10149 0.56072 0.0
N2511 N 0.55818 0.12816 0.54606 0.0
C2512 C 0.55362 0.10663 0.5604 0.0
C2513 C 0.57579 0.09222 0.56837 0.0
C2514 C 0.35602 0.25565 0.75104 0.0
C2515 C 0.34699 0.2805 0.74471 0.0
C2516 C 0.34211 0.23361 0.7435 0.0
C2517 C 0.31892 0.23601 0.72945 0.0
H2518 H 0.37202 0.25334 0.7644 0.0
H2519 H 0.34769 0.21505 0.75147 0.0
S2520 S 0.29066 0.29639 0.70355 0.0
N2521 N 0.31633 0.30596 0.72 0.0
N2522 N 0.29024 0.26455 0.70574 0.0
C2523 C 0.31194 0.26045 0.72001 0.0
C2524 C 0.32596 0.28279 0.72776 0.0
C2525 C 0.5331 0.48441 0.58173 0.0
C2526 C 0.53078 0.46288 0.56542 0.0
C2527 C 0.51115 0.49783 0.59004 0.0
C2528 C 0.48625 0.49037 0.58195 0.0
H2529 H 0.55201 0.49246 0.58583 0.0
H2530 H 0.51384 0.51598 0.6001 0.0
S2531 S 0.46981 0.43276 0.54293 0.0
N2532 N 0.5017 0.4324 0.54475 0.0
N2533 N 0.46039 0.458 0.55994 0.0
C2534 C 0.48358 0.46703 0.56841 0.0
C2535 C 0.50594 0.45321 0.56013 0.0
C2536 C 0.82913 0.73328 0.78273 0.0
C2537 C 0.81347 0.71116 0.78142 0.0
C2538 C 0.83681 0.74609 0.76022 0.0
C2539 C 0.82882 0.73721 0.73584 0.0
H2540 H 0.83306 0.74227 0.8012 0.0
H2541 H 0.84624 0.7647 0.762 0.0
S2542 S 0.79168 0.67774 0.72205 0.0
N2543 N 0.79363 0.67874 0.75387 0.0
N2544 N 0.80788 0.70314 0.71148 0.0
C2545 C 0.8161 0.71337 0.7342 0.0
C2546 C 0.80839 0.70023 0.75712 0.0
C2547 C 0.99118 0.97621 0.55175 0.0
C2548 C 0.98417 0.98563 0.57613 0.0
C2549 C 0.97697 0.98306 0.5298 0.0
C2550 C 0.95556 0.99962 0.53179 0.0
H2551 H 1.00941 0.9662 0.54926 0.0
H2552 H 0.98473 0.97829 0.511 0.0
S2553 S 0.92647 1.02456 0.59191 0.0
N2554 N 0.95219 1.00828 0.60165 0.0
N2555 N 0.92536 1.02129 0.5602 0.0
C2556 C 0.94626 1.00588 0.55639 0.0
C2557 C 0.96073 0.99889 0.57874 0.0
C2558 C 0.25213 0.85714 0.75437 0.0
C2559 C 0.24613 0.8484 0.77936 0.0
C2560 C 0.24402 0.84321 0.73255 0.0
C2561 C 0.22972 0.82024 0.7353 0.0
H2562 H 0.26562 0.87295 0.75177 0.0
H2563 H 0.25172 0.84858 0.71386 0.0
S2564 S 0.20507 0.79241 0.79628 0.0
N2565 N 0.22187 0.81798 0.80539 0.0
N2566 N 0.20645 0.79192 0.76444 0.0
C2567 C 0.22074 0.81349 0.75994 0.0
C2568 C 0.2291 0.82751 0.78205 0.0
C2569 C 0.07652 0.58226 0.52722 0.0
C2570 C 0.09805 0.5659 0.52966 0.0
C2571 C 0.06263 0.59008 0.549 0.0
C2572 C 0.06976 0.58155 0.57381 0.0
H2573 H 0.06872 0.58662 0.50828 0.0
H2574 H 0.04447 0.60012 0.54616 0.0
S2575 S 0.1275 0.54269 0.59066 0.0
N2576 N 0.1283 0.54494 0.55886 0.0
N2577 N 0.10197 0.55942 0.59989 0.0
C2578 C 0.09319 0.56815 0.57671 0.0
C2579 C 0.10742 0.56028 0.55452 0.0
C2580 C 0.80918 0.35739 0.8054 0.0
C2581 C 0.81429 0.34877 0.78019 0.0
C2582 C 0.81826 0.34348 0.82691 0.0
C2583 C 0.83264 0.32066 0.82368 0.0
H2584 H 0.79569 0.37308 0.80849 0.0
H2585 H 0.81119 0.34871 0.84587 0.0
S2586 S 0.85516 0.29322 0.76182 0.0
N2587 N 0.83777 0.31862 0.75331 0.0
N2588 N 0.85501 0.29264 0.79369 0.0
C2589 C 0.84072 0.31406 0.7987 0.0
C2590 C 0.83135 0.32803 0.7769 0.0
C2591 C 0.59273 0.99382 0.48176 0.0
C2592 C 0.56906 0.98067 0.48492 0.0
C2593 C 0.60704 1.00161 0.50295 0.0
C2594 C 0.59815 0.99517 0.52724 0.0
H2595 H 0.59808 1.00131 0.46296 0.0
H2596 H 0.62308 1.01485 0.50045 0.0
S2597 S 0.54237 0.94665 0.55098 0.0
N2598 N 0.56416 0.96628 0.5351 0.0
N2599 N 0.56806 0.96636 0.55041 0.0
C2600 C 0.57537 0.9767 0.52903 0.0
C2601 C 0.55947 0.96986 0.50829 0.0
C2602 C 0.24299 0.21753 0.82765 0.0
C2603 C 0.22881 0.24053 0.82468 0.0
C2604 C 0.25049 0.20309 0.80601 0.0
C2605 C 0.24392 0.21131 0.78095 0.0
H2606 H 0.25103 0.21245 0.84633 0.0
H2607 H 0.26398 0.18729 0.80871 0.0
S2608 S 0.20264 0.26707 0.76362 0.0
N2609 N 0.20498 0.26835 0.7954 0.0
N2610 N 0.21902 0.2412 0.75476 0.0
C2611 C 0.22688 0.2322 0.77815 0.0
C2612 C 0.21928 0.24684 0.80009 0.0
C2613 C 0.49388 0.58629 0.50762 0.0
C2614 C 0.48634 0.57576 0.4838 0.0
C2615 C 0.48038 0.58019 0.53017 0.0
C2616 C 0.45908 0.56336 0.5294 0.0
H2617 H 0.51195 0.59678 0.50924 0.0
H2618 H 0.4884 0.58616 0.54856 0.0
S2619 S 0.42948 0.5344 0.47104 0.0
N2620 N 0.45449 0.55091 0.46007 0.0
N2621 N 0.42895 0.53932 0.50253 0.0
C2622 C 0.44949 0.55548 0.50526 0.0
C2623 C 0.46326 0.5617 0.48233 0.0
C2624 C 0.75838 0.83408 0.74113 0.0
C2625 C 0.73397 0.82478 0.7337 0.0
C2626 C 0.78043 0.82754 0.72705 0.0
C2627 C 0.77856 0.81133 0.70539 0.0
H2628 H 0.76079 0.84379 0.75949 0.0
H2629 H 0.79922 0.83224 0.73507 0.0
S2630 S 0.71844 0.78693 0.67523 0.0
N2631 N 0.70857 0.80274 0.70106 0.0
N2632 N 0.75022 0.79019 0.67458 0.0
C2633 C 0.75396 0.80521 0.69574 0.0
C2634 C 0.73149 0.81195 0.71004 0.0
C2635 C 0.78137 0.23065 0.82733 0.0
C2636 C 0.78081 0.24652 0.84928 0.0
C2637 C 0.75855 0.22449 0.81417 0.0
C2638 C 0.73463 0.23404 0.82265 0.0
H2639 H 0.79969 0.2255 0.81867 0.0
H2640 H 0.75992 0.2148 0.7957 0.0
S2641 S 0.7225 0.27248 0.88144 0.0
N2642 N 0.75418 0.26844 0.88099 0.0
N2643 N 0.7112 0.25683 0.85604 0.0
C2644 C 0.7335 0.24707 0.84628 0.0
C2645 C 0.75672 0.25332 0.85974 0.0
C2646 C 0.50268 0.05772 0.4507 0.0
C2647 C 0.49497 0.03264 0.45777 0.0
C2648 C 0.49484 0.0792 0.4652 0.0
C2649 C 0.47913 0.07602 0.48708 0.0
H2650 H 0.5173 0.06043 0.43599 0.0
H2651 H 0.50375 0.09775 0.46128 0.0
S2652 S 0.44969 1.01509 0.51005 0.0
N2653 N 0.46754 1.0064 0.48515 0.0
N2654 N 0.45275 0.04677 0.51238 0.0
C2655 C 0.46855 0.05157 0.49203 0.0
C2656 C 0.47655 1.02979 0.47736 0.0
C2657 C 0.2988 0.34057 0.81359 0.0
C2658 C 0.32364 0.33169 0.8202 0.0
C2659 C 0.27712 0.33282 0.82775 0.0
C2660 C 0.27972 0.31617 0.84905 0.0
H2661 H 0.29578 0.35083 0.79557 0.0
H2662 H 0.25808 0.33746 0.82031 0.0
S2663 S 0.34099 0.29162 0.87693 0.0
N2664 N 0.35001 0.30867 0.8515 0.0
N2665 N 0.30921 0.29433 0.8784 0.0
C2666 C 0.3047 0.31011 0.85787 0.0
C2667 C 0.32678 0.3179 0.84336 0.0
C2668 C 0.05838 1.00275 0.95124 0.0
C2669 C 0.06526 1.02785 0.95902 0.0
C2670 C 0.06612 0.98115 0.96578 0.0
C2671 C 0.08085 0.9842 0.98844 0.0
H2672 H 0.04456 1.00003 0.93572 0.0
H2673 H 0.05786 0.96248 0.96111 0.0
S2674 S 0.10762 0.04537 1.01388 0.0
N2675 N 0.09073 0.05415 0.98821 0.0
N2676 N 0.10529 1.01358 1.01551 0.0
C2677 C 0.09056 1.00881 0.99429 0.0
C2678 C 0.08268 0.03071 0.97959 0.0
C2679 C 0.82688 0.24321 0.21703 0.0
C2680 C 0.82358 0.2289 0.23989 0.0
C2681 C 0.80538 0.25138 0.2026 0.0
C2682 C 0.78016 0.2454 0.21075 0.0
H2683 H 0.84574 0.25088 0.21214 0.0
H2684 H 0.80836 0.26495 0.18693 0.0
S2685 S 0.76194 0.20399 0.26602 0.0
N2686 N 0.79381 0.20546 0.26738 0.0
N2687 N 0.75338 0.22091 0.24032 0.0
C2688 C 0.77697 0.22824 0.23145 0.0
C2689 C 0.79878 0.21988 0.24602 0.0
C2690 C 0.50047 1.00685 0.10743 0.0
C2691 C 0.49536 0.03193 0.09824 0.0
C2692 C 0.49221 0.98511 0.09346 0.0
C2693 C 0.47865 0.98805 0.07006 0.0
H2694 H 0.51347 1.00403 0.12363 0.0
H2695 H 0.49932 0.96626 0.0992 0.0
S2696 S 0.45588 0.04942 0.04122 0.0
N2697 N 0.47231 0.05833 0.0671 0.0
N2698 N 0.45662 1.01752 0.04099 0.0
C2699 C 0.47032 1.01286 0.06292 0.0
C2700 C 0.47883 0.03488 0.07697 0.0
C2701 C 0.58065 0.53024 0.08053 0.0
C2702 C 0.56371 0.53345 0.10144 0.0
C2703 C 0.58849 0.55149 0.06572 0.0
C2704 C 0.57961 0.57649 0.07146 0.0
H2705 H 0.58515 0.51101 0.07365 0.0
H2706 H 0.59886 0.54798 0.04793 0.0
S2707 S 0.53926 0.59534 0.12723 0.0
N2708 N 0.54184 0.56361 0.12967 0.0
N2709 N 0.55652 0.60369 0.10175 0.0
C2710 C 0.56572 0.58025 0.09439 0.0
C2711 C 0.55776 0.5586 0.10947 0.0
C2712 C 0.17596 0.43682 0.21045 0.0
C2713 C 0.14916 0.43334 0.21566 0.0
C2714 C 0.18537 0.45385 0.19102 0.0
C2715 C 0.16869 0.46872 0.17537 0.0
H2716 H 0.19014 0.42593 0.22137 0.0
H2717 H 0.20603 0.45482 0.18777 0.0
S2718 S 0.09696 0.4682 0.18062 0.0
N2719 N 0.1062 0.44744 0.20312 0.0
N2720 N 0.12367 0.4788 0.16667 0.0
C2721 C 0.14188 0.46558 0.18019 0.0
C2722 C 0.13224 0.44824 0.20017 0.0
C2723 C 0.69424 0.6577 0.13734 0.0
C2724 C 0.71845 0.64523 0.1333 0.0
C2725 C 0.67876 0.66775 0.11675 0.0
C2726 C 0.68639 0.66586 0.09067 0.0
H2727 H 0.68674 0.65939 0.15676 0.0
H2728 H 0.66024 0.6763 0.12132 0.0
S2729 S 0.74868 0.63699 0.06891 0.0
N2730 N 0.74949 0.63314 0.10055 0.0
N2731 N 0.72097 0.65148 0.06239 0.0
C2732 C 0.7108 0.65397 0.0864 0.0
C2733 C 0.72657 0.64388 0.10737 0.0
C2734 C 0.89209 0.08678 0.19921 0.0
C2735 C 0.89485 0.09423 0.17311 0.0
C2736 C 0.90168 0.10215 0.21996 0.0
C2737 C 0.91494 0.12594 0.21614 0.0
H2738 H 0.88204 0.06901 0.20379 0.0
H2739 H 0.8984 0.09526 0.23943 0.0
S2740 S 0.92715 0.15521 0.15185 0.0
N2741 N 0.91194 0.128 0.14502 0.0
N2742 N 0.92978 0.15609 0.18361 0.0
C2743 C 0.91811 0.13353 0.19019 0.0
C2744 C 0.90817 0.11801 0.16898 0.0
C2745 C 0.33633 0.92114 0.10863 0.0
C2746 C 0.3425 0.91663 0.13484 0.0
C2747 C 0.35196 0.91166 0.08808 0.0
C2748 C 0.37473 0.89675 0.0922 0.0
H2749 H 0.31941 0.93251 0.10384 0.0
H2750 H 0.3461 0.91632 0.06854 0.0
S2751 S 0.4005 0.87952 0.15691 0.0
N2752 N 0.374 0.89605 0.16337 0.0
N2753 N 0.40254 0.87844 0.12514 0.0
C2754 C 0.38103 0.89184 0.11824 0.0
C2755 C 0.36527 0.90167 0.13925 0.0
C2756 C 0.15142 0.61627 0.38572 0.0
C2757 C 0.16411 0.59214 0.38186 0.0
C2758 C 0.14098 0.63133 0.36501 0.0
C2759 C 0.14267 0.62334 0.33901 0.0
H2760 H 0.14992 0.62403 0.40504 0.0
H2761 H 0.13238 0.64987 0.3694 0.0
S2762 S 0.17211 0.5612 0.31777 0.0
N2763 N 0.17618 0.5608 0.34939 0.0
N2764 N 0.15722 0.58863 0.31104 0.0
C2765 C 0.15476 0.59902 0.33496 0.0
C2766 C 0.1652 0.58365 0.35604 0.0
C2767 C 0.85005 0.65305 0.97249 0.0
C2768 C 0.87421 0.66561 0.96863 0.0
C2769 C 0.8346 0.64338 0.95179 0.0
C2770 C 0.84233 0.6454 0.92574 0.0
H2771 H 0.8429 0.65045 0.99194 0.0
H2772 H 0.81645 0.63401 0.95637 0.0
S2773 S 0.90471 0.67498 0.90453 0.0
N2774 N 0.90526 0.67851 0.9362 0.0
N2775 N 0.87704 0.66054 0.89771 0.0
C2776 C 0.86659 0.65785 0.9216 0.0
C2777 C 0.88219 0.66784 0.94274 0.0
C2778 C 0.9068 0.94499 0.38474 0.0
C2779 C 0.89335 0.96863 0.38036 0.0
C2780 C 0.91694 0.92953 0.36431 0.0
C2781 C 0.91419 0.93664 0.33811 0.0
H2782 H 0.9092 0.93793 0.40429 0.0
H2783 H 0.92628 0.91142 0.36913 0.0
S2784 S 0.88276 0.99753 0.31556 0.0
N2785 N 0.87955 0.99871 0.34723 0.0
N2786 N 0.89803 0.97023 0.30936 0.0
C2787 C 0.90135 0.96053 0.33353 0.0
C2788 C 0.89117 0.97626 0.35432 0.0
C2789 C 0.19382 0.90205 0.92358 0.0
C2790 C 0.21777 0.91506 0.9277 0.0
C2791 C 0.1784 0.89211 0.94417 0.0
C2792 C 0.1858 0.89471 0.97031 0.0
H2793 H 0.18651 0.89986 0.9041 0.0
H2794 H 0.16006 0.88311 0.93955 0.0
S2795 S 0.24728 0.92539 0.99229 0.0
N2796 N 0.24829 0.9285 0.96059 0.0
N2797 N 0.21983 0.91043 0.99875 0.0
C2798 C 0.20994 0.90716 0.97465 0.0
C2799 C 0.22568 0.91708 0.95369 0.0
C2800 C 0.17255 0.14914 0.44851 0.0
C2801 C 0.17691 0.16518 0.47044 0.0
C2802 C 0.19305 0.13877 0.43326 0.0
C2803 C 0.21932 0.14396 0.43875 0.0
H2804 H 0.15292 0.1448 0.44267 0.0
H2805 H 0.18817 0.12735 0.41645 0.0
S2806 S 0.24209 0.18356 0.49444 0.0
N2807 N 0.2103 0.18451 0.49701 0.0
N2808 N 0.24823 0.16578 0.46875 0.0
C2809 C 0.22394 0.15957 0.46086 0.0
C2810 C 0.2031 0.16988 0.47649 0.0
C2811 C 0.41772 0.60722 0.83295 0.0
C2812 C 0.41468 0.63342 0.8399 0.0
C2813 C 0.40802 0.58662 0.84851 0.0
C2814 C 0.3944 0.59074 0.87195 0.0
H2815 H 0.42796 0.60246 0.8154 0.0
H2816 H 0.41146 0.56705 0.84202 0.0
S2817 S 0.38209 0.65534 0.90029 0.0
N2818 N 0.39742 0.66189 0.87314 0.0
N2819 N 0.37939 0.62358 0.90152 0.0
C2820 C 0.39115 0.61677 0.87915 0.0
C2821 C 0.40118 0.63781 0.86346 0.0
C2822 C 0.85841 0.39477 0.47627 0.0
C2823 C 0.88409 0.39402 0.46712 0.0
C2824 C 0.83768 0.40497 0.46114 0.0
C2825 C 0.8412 0.41532 0.43592 0.0
H2826 H 0.85416 0.38733 0.49534 0.0
H2827 H 0.81847 0.40462 0.46939 0.0
S2828 S 0.90397 0.41629 0.40143 0.0
N2829 N 0.9112 0.40362 0.42983 0.0
N2830 N 0.87271 0.42267 0.40225 0.0
C2831 C 0.86669 0.41458 0.42646 0.0
C2832 C 0.88782 0.40403 0.44172 0.0
C2833 C 0.64101 0.95268 0.83403 0.0
C2834 C 0.64286 0.92655 0.84167 0.0
C2835 C 0.65113 0.97313 0.84944 0.0
C2836 C 0.66395 0.96884 0.8734 0.0
H2837 H 0.63151 0.95748 0.816 0.0
H2838 H 0.6487 0.99271 0.84244 0.0
S2839 S 0.67306 0.90438 0.90351 0.0
N2840 N 0.65815 0.89797 0.87603 0.0
N2841 N 0.67695 0.93604 0.90414 0.0
C2842 C 0.66602 0.94288 0.88126 0.0
C2843 C 0.65559 0.92201 0.86573 0.0
C2844 C 0.20107 0.89448 0.08564 0.0
C2845 C 0.1751 0.8955 0.09391 0.0
C2846 C 0.22181 0.90443 0.10085 0.0
C2847 C 0.21804 0.91635 0.12526 0.0
H2848 H 0.20558 0.8856 0.06729 0.0
H2849 H 0.24123 0.90256 0.09332 0.0
S2850 S 0.1542 0.92315 0.15705 0.0
N2851 N 0.14725 0.90908 0.1293 0.0
N2852 N 0.18581 0.92764 0.15709 0.0
C2853 C 0.19222 0.91764 0.13375 0.0
C2854 C 0.17104 0.90732 0.1184 0.0
C2855 C 0.14138 0.60826 0.22237 0.0
C2856 C 0.14336 0.63437 0.21469 0.0
C2857 C 0.15149 0.58773 0.20717 0.0
C2858 C 0.16451 0.59187 0.18338 0.0
H2859 H 0.13163 0.60351 0.24023 0.0
H2860 H 0.14888 0.56819 0.2142 0.0
S2861 S 0.17449 0.65631 0.15345 0.0
N2862 N 0.1593 0.66284 0.18065 0.0
N2863 N 0.17811 0.62462 0.15285 0.0
C2864 C 0.16684 0.61784 0.17552 0.0
C2865 C 0.15638 0.63881 0.19086 0.0
C2866 C 0.85929 0.66783 0.08567 0.0
C2867 C 0.8854 0.66542 0.09337 0.0
C2868 C 0.83853 0.65828 0.10102 0.0
C2869 C 0.8424 0.64543 0.12501 0.0
H2870 H 0.85471 0.67755 0.0677 0.0
H2871 H 0.81903 0.66125 0.09395 0.0
S2872 S 0.9067 0.63442 0.15506 0.0
N2873 N 0.91354 0.64922 0.12765 0.0
N2874 N 0.87492 0.63144 0.1557 0.0
C2875 C 0.86836 0.64264 0.13288 0.0
C2876 C 0.88957 0.65253 0.11739 0.0
C2877 C 0.91164 0.97322 0.20506 0.0
C2878 C 0.8956 0.96946 0.18302 0.0
C2879 C 0.92087 0.95246 0.22071 0.0
C2880 C 0.91489 0.92639 0.21531 0.0
H2881 H 0.91746 0.99261 0.21031 0.0
H2882 H 0.93327 0.95696 0.23697 0.0
S2883 S 0.87358 0.90525 0.15996 0.0
N2884 N 0.87425 0.937 0.15698 0.0
N2885 N 0.89101 0.89843 0.18585 0.0
C2886 C 0.89853 0.92236 0.19348 0.0
C2887 C 0.88909 0.94358 0.17761 0.0
C2888 C 0.44468 0.18299 0.18163 0.0
C2889 C 0.46766 0.17576 0.16893 0.0
C2890 C 0.42774 0.20216 0.17161 0.0
C2891 C 0.4321 0.21488 0.14773 0.0
H2892 H 0.43968 0.17371 0.19971 0.0
H2893 H 0.4108 0.20702 0.18284 0.0
S2894 S 0.48872 0.2023 0.10566 0.0
N2895 N 0.49337 0.18258 0.13039 0.0
N2896 N 0.46148 0.21795 0.11143 0.0
C2897 C 0.4547 0.20738 0.13442 0.0
C2898 C 0.47235 0.1881 0.14496 0.0
C2899 C 0.44602 0.89015 0.40899 0.0
C2900 C 0.46891 0.88598 0.39434 0.0
C2901 C 0.43045 0.86949 0.41876 0.0
C2902 C 0.43663 0.84326 0.41432 0.0
H2903 H 0.43968 0.90973 0.41266 0.0
H2904 H 0.41293 0.87419 0.42913 0.0
S2905 S 0.49502 0.82101 0.37865 0.0
N2906 N 0.49711 0.85281 0.37724 0.0
N2907 N 0.46837 0.81465 0.39495 0.0
C2908 C 0.4597 0.83886 0.40017 0.0
C2909 C 0.47559 0.85984 0.39043 0.0
C2910 C 0.13994 0.36613 0.90335 0.0
C2911 C 0.13559 0.34172 0.91536 0.0
C2912 C 0.11951 0.38176 0.89314 0.0
C2913 C 0.09332 0.37408 0.8944 0.0
H2914 H 0.15943 0.37365 0.90219 0.0
H2915 H 0.12427 0.40044 0.88499 0.0
S2916 S 0.07084 0.31136 0.92195 0.0
N2917 N 0.10246 0.31049 0.92634 0.0
N2918 N 0.06465 0.33929 0.90774 0.0
C2919 C 0.08878 0.34949 0.90583 0.0
C2920 C 0.10956 0.33357 0.91606 0.0
C2921 C 0.63181 0.69456 0.41689 0.0
C2922 C 0.62469 0.72075 0.41411 0.0
C2923 C 0.61635 0.67411 0.40672 0.0
C2924 C 0.59271 0.67846 0.39321 0.0
H2925 H 0.64992 0.68978 0.42629 0.0
H2926 H 0.62341 0.65456 0.40915 0.0
S2927 S 0.56381 0.74323 0.38252 0.0
N2928 N 0.59112 0.7495 0.39787 0.0
N2929 N 0.56261 0.71153 0.37929 0.0
C2930 C 0.58506 0.70449 0.39098 0.0
C2931 C 0.6008 0.72533 0.40121 0.0
C2932 C 0.45306 0.72471 0.41855 0.0
C2933 C 0.42684 0.71895 0.41342 0.0
C2934 C 0.47372 0.70932 0.40876 0.0
C2935 C 0.46972 0.68725 0.3929 0.0
H2936 H 0.45779 0.74102 0.43072 0.0
H2937 H 0.49325 0.71478 0.41401 0.0
S2938 S 0.40504 0.66298 0.37337 0.0
N2939 N 0.39847 0.68883 0.39079 0.0
N2940 N 0.43687 0.66059 0.37292 0.0
C2941 C 0.44368 0.68143 0.38728 0.0
C2942 C 0.42256 0.69698 0.39735 0.0
C2943 C 0.10563 0.83645 0.66219 0.0
C2944 C 0.12681 0.84056 0.64521 0.0
C2945 C 0.08987 0.85693 0.6716 0.0
C2946 C 0.09438 0.88297 0.66484 0.0
H2947 H 0.10116 0.81703 0.66858 0.0
H2948 H 0.07424 0.85225 0.68465 0.0
S2949 S 0.14758 0.90491 0.62132 0.0
N2950 N 0.1512 0.87323 0.6223 0.0
N2951 N 0.12235 0.91138 0.63965 0.0
C2952 C 0.11546 0.88734 0.64768 0.0
C2953 C 0.13135 0.8664 0.638 0.0
C2954 C 0.08991 0.71142 0.65495 0.0
C2955 C 0.09369 0.68615 0.66512 0.0
C2956 C 0.11044 0.72667 0.64472 0.0
C2957 C 0.13616 0.71759 0.64377 0.0
H2958 H 0.07064 0.7196 0.65472 0.0
H2959 H 0.10601 0.74577 0.63737 0.0
S2960 S 0.15663 0.65179 0.66546 0.0
N2961 N 0.12543 0.65248 0.67207 0.0
N2962 N 0.1636 0.68033 0.65297 0.0
C2963 C 0.14016 0.69215 0.65363 0.0
C2964 C 0.11922 0.67675 0.66421 0.0
C2965 C 0.92575 0.86322 0.65983 0.0
C2966 C 0.92996 0.84178 0.64316 0.0
C2967 C 0.94632 0.87843 0.67018 0.0
C2968 C 0.97245 0.87331 0.66434 0.0
H2969 H 0.90617 0.86874 0.66472 0.0
H2970 H 0.94157 0.8949 0.68212 0.0
S2971 S 0.9948 0.8188 0.62308 0.0
N2972 N 0.96301 0.81594 0.6226 0.0
N2973 N 1.00115 0.84413 0.64136 0.0
C2974 C 0.97695 0.85164 0.64814 0.0
C2975 C 0.95602 0.83607 0.63782 0.0
C2976 C 0.65093 0.94525 0.67131 0.0
C2977 C 0.66441 0.96892 0.67542 0.0
C2978 C 0.64052 0.93007 0.69188 0.0
C2979 C 0.64305 0.93747 0.718 0.0
H2980 H 0.64874 0.93793 0.65186 0.0
H2981 H 0.63125 0.91189 0.68727 0.0
S2982 S 0.67492 0.99824 0.73997 0.0
N2983 N 0.67826 0.99918 0.7083 0.0
N2984 N 0.65935 0.97113 0.74641 0.0
C2985 C 0.656 0.96131 0.72233 0.0
C2986 C 0.66642 0.97681 0.70139 0.0
C2987 C 0.19511 0.15934 0.63902 0.0
C2988 C 0.21846 0.14534 0.635 0.0
C2989 C 0.17966 0.16925 0.61836 0.0
C2990 C 0.18648 0.16571 0.59223 0.0
H2991 H 0.18829 0.16244 0.65849 0.0
H2992 H 0.16177 0.17906 0.62295 0.0
S2993 S 0.24649 0.13248 0.57036 0.0
N2994 N 0.24793 0.13006 0.60211 0.0
N2995 N 0.21946 0.14819 0.56383 0.0
C2996 C 0.21009 0.15234 0.58793 0.0
C2997 C 0.22583 0.14238 0.60897 0.0
C2998 C 0.39033 0.58594 0.69974 0.0
C2999 C 0.39503 0.59217 0.67359 0.0
C3000 C 0.3998 0.60143 0.72046 0.0
C3001 C 0.41479 0.62416 0.71659 0.0
H3002 H 0.37886 0.56906 0.70436 0.0
H3003 H 0.39507 0.59547 0.73993 0.0
S3004 S 0.43272 0.64995 0.65222 0.0
N3005 N 0.41628 0.62343 0.64551 0.0
N3006 N 0.43337 0.65203 0.684 0.0
C3007 C 0.41987 0.63053 0.69065 0.0
C3008 C 0.41023 0.6148 0.66948 0.0
C3009 C 0.83737 0.42133 0.60972 0.0
C3010 C 0.84225 0.41449 0.63571 0.0
C3011 C 0.85306 0.41233 0.58897 0.0
C3012 C 0.87467 0.39566 0.5926 0.0
H3013 H 0.82147 0.43421 0.60526 0.0
H3014 H 0.84816 0.4188 0.56968 0.0
S3015 S 0.89642 0.37143 0.65656 0.0
N3016 N 0.87084 0.3892 0.66342 0.0
N3017 N 0.89981 0.37293 0.62491 0.0
C3018 C 0.87961 0.38837 0.61839 0.0
C3019 C 0.86367 0.39756 0.63961 0.0
C3020 C 0.64903 0.11242 0.88564 0.0
C3021 C 0.66353 0.08942 0.8815 0.0
C3022 C 0.639 0.12781 0.86501 0.0
C3023 C 0.643 0.12128 0.83887 0.0
H3024 H 0.64572 0.11902 0.90517 0.0
H3025 H 0.62883 0.14547 0.86964 0.0
S3026 S 0.67807 0.06245 0.81678 0.0
N3027 N 0.68002 0.0607 0.84855 0.0
N3028 N 0.66176 0.08913 0.81033 0.0
C3029 C 0.65699 0.09808 0.83448 0.0
C3030 C 0.66702 0.08238 0.85547 0.0
C3031 C 0.33799 0.13732 0.45413 0.0
C3032 C 0.34276 0.14358 0.42805 0.0
C3033 C 0.3537 0.14694 0.4746 0.0
C3034 C 0.3751 0.16368 0.47045 0.0
H3035 H 0.32221 0.12441 0.45886 0.0
H3036 H 0.34902 0.14089 0.49405 0.0
S3037 S 0.3964 0.18659 0.40601 0.0
N3038 N 0.37098 0.16837 0.39959 0.0
N3039 N 0.39993 0.18594 0.43768 0.0
C3040 C 0.37988 0.17046 0.44456 0.0
C3041 C 0.36398 0.1606 0.42363 0.0
C3042 C 0.39322 0.47447 0.85734 0.0
C3043 C 0.39469 0.46643 0.88339 0.0
C3044 C 0.40312 0.45918 0.83671 0.0
C3045 C 0.41539 0.43488 0.84061 0.0
H3046 H 0.38409 0.49273 0.85271 0.0
H3047 H 0.40091 0.46657 0.81725 0.0
S3048 S 0.42333 0.40357 0.90467 0.0
N3049 N 0.40904 0.43126 0.91142 0.0
N3050 N 0.42743 0.40337 0.87307 0.0
C3051 C 0.41709 0.42659 0.86649 0.0
C3052 C 0.40686 0.44202 0.88757 0.0
C3053 C 0.72477 0.41796 0.45127 0.0
C3054 C 0.71673 0.41611 0.42525 0.0
C3055 C 0.70953 0.4082 0.47204 0.0
C3056 C 0.6853 0.39571 0.46828 0.0
H3057 H 0.74299 0.42725 0.45576 0.0
H3058 H 0.7169 0.41065 0.49147 0.0
S3059 S 0.65403 0.38677 0.40436 0.0
N3060 N 0.68163 0.40121 0.39741 0.0
N3061 N 0.65385 0.38305 0.43602 0.0
C3062 C 0.67701 0.39365 0.44244 0.0
C3063 C 0.69238 0.40375 0.42124 0.0
C3064 C 0.67243 0.65287 0.94472 0.0
C3065 C 0.67678 0.66597 0.96853 0.0
C3066 C 0.69289 0.64269 0.9293 0.0
C3067 C 0.71913 0.64508 0.93656 0.0
H3068 H 0.65288 0.65079 0.93752 0.0
H3069 H 0.68808 0.63365 0.91108 0.0
S3070 S 0.74172 0.67585 0.99764 0.0
N3071 N 0.71001 0.67926 0.99876 0.0
N3072 N 0.74792 0.66074 0.97031 0.0
C3073 C 0.72371 0.65764 0.96054 0.0
C3074 C 0.70288 0.66783 0.97628 0.0
C3075 C 0.89031 0.11751 0.37803 0.0
C3076 C 0.89279 0.09139 0.37059 0.0
C3077 C 0.90074 0.13814 0.36293 0.0
C3078 C 0.91421 0.13408 0.33932 0.0
H3079 H 0.88105 0.12207 0.39618 0.0
H3080 H 0.89858 0.15759 0.37025 0.0
S3081 S 0.92456 0.06951 0.30996 0.0
N3082 N 0.90899 0.06301 0.33699 0.0
N3083 N 0.92798 0.10123 0.30908 0.0
C3084 C 0.91617 0.1081 0.3314 0.0
C3085 C 0.90572 0.0871 0.34681 0.0
C3086 C 0.35787 0.8928 0.97555 0.0
C3087 C 0.38404 0.89639 0.96868 0.0
C3088 C 0.33713 0.90203 0.95986 0.0
C3089 C 0.34106 0.91569 0.93634 0.0
H3090 H 0.35326 0.88245 0.99313 0.0
H3091 H 0.3176 0.89819 0.96629 0.0
S3092 S 0.40554 0.92963 0.90833 0.0
N3093 N 0.4123 0.91439 0.93556 0.0
N3094 N 0.3737 0.93154 0.9069 0.0
C3095 C 0.36705 0.91957 0.92926 0.0
C3096 C 0.38825 0.91002 0.94509 0.0
C3097 C 0.16647 0.44474 0.38006 0.0
C3098 C 0.16298 0.47098 0.37349 0.0
C3099 C 0.15656 0.42437 0.36436 0.0
C3100 C 0.14268 0.4289 0.34099 0.0
H3101 H 0.17622 0.43981 0.39792 0.0
H3102 H 0.15951 0.40475 0.37101 0.0
S3103 S 0.1299 0.494 0.31366 0.0
N3104 N 0.14553 0.50005 0.34083 0.0
N3105 N 0.1275 0.46225 0.31181 0.0
C3106 C 0.13974 0.45502 0.33389 0.0
C3107 C 0.14965 0.47575 0.34991 0.0
C3108 C 0.69284 0.41827 0.63129 0.0
C3109 C 0.71903 0.41584 0.624 0.0
C3110 C 0.67223 0.40847 0.6157 0.0
C3111 C 0.67638 0.39572 0.59171 0.0
H3112 H 0.68819 0.42707 0.64964 0.0
H3113 H 0.65272 0.41055 0.62291 0.0
S3114 S 0.74108 0.38595 0.56243 0.0
N3115 N 0.74753 0.40061 0.59 0.0
N3116 N 0.70935 0.3827 0.56128 0.0
C3117 C 0.70242 0.3938 0.58395 0.0
C3118 C 0.7234 0.40365 0.59982 0.0
C3119 C 0.63981 0.10671 0.72194 0.0
C3120 C 0.64282 0.13297 0.71513 0.0
C3121 C 0.64974 0.08631 0.70641 0.0
C3122 C 0.66358 0.09071 0.68312 0.0
H3123 H 0.62942 0.10174 0.73937 0.0
H3124 H 0.64632 0.06667 0.71278 0.0
S3125 S 0.67631 0.15564 0.65541 0.0
N3126 N 0.66056 0.16186 0.68237 0.0
N3127 N 0.67902 0.12389 0.65399 0.0
C3128 C 0.66691 0.11682 0.67613 0.0
C3129 C 0.65664 0.13766 0.6918 0.0
C3130 C 0.35874 0.16991 0.58749 0.0
C3131 C 0.38494 0.16611 0.59431 0.0
C3132 C 0.33798 0.16018 0.60282 0.0
C3133 C 0.34189 0.14572 0.62591 0.0
H3134 H 0.35408 0.1809 0.57029 0.0
H3135 H 0.31845 0.1643 0.59645 0.0
S3136 S 0.40645 0.13005 0.65319 0.0
N3137 N 0.41318 0.14642 0.62665 0.0
N3138 N 0.37461 0.12841 0.6546 0.0
C3139 C 0.36792 0.14144 0.6328 0.0
C3140 C 0.38912 0.1515 0.61736 0.0
C3141 C 0.40091 0.4219 0.69405 0.0
C3142 C 0.41526 0.42595 0.71723 0.0
C3143 C 0.39092 0.44258 0.67868 0.0
C3144 C 0.39478 0.46874 0.68534 0.0
H3145 H 0.39761 0.40239 0.68731 0.0
H3146 H 0.38081 0.43795 0.66095 0.0
S3147 S 0.42932 0.49068 0.74469 0.0
N3148 N 0.43139 0.45888 0.74628 0.0
N3149 N 0.41322 0.4972 0.71789 0.0
C3150 C 0.40862 0.47306 0.70871 0.0
C3151 C 0.41862 0.452 0.72441 0.0
C3152 C 0.96205 0.72353 0.65718 0.0
C3153 C 0.93925 0.71942 0.64232 0.0
C3154 C 0.97757 0.70293 0.66697 0.0
C3155 C 0.9712 0.67672 0.66284 0.0
H3156 H 0.96801 0.7431 0.66156 0.0
H3157 H 0.99457 0.70769 0.67823 0.0
S3158 S 0.91265 0.65473 0.62661 0.0
N3159 N 0.91092 0.68654 0.62487 0.0
N3160 N 0.93927 0.64819 0.64305 0.0
C3161 C 0.94832 0.67231 0.64805 0.0
C3162 C 0.93268 0.69338 0.63791 0.0
C3163 C 0.96247 0.33678 0.90209 0.0
C3164 C 0.93848 0.34079 0.91485 0.0
C3165 C 0.97792 0.35742 0.8923 0.0
C3166 C 0.97032 0.38355 0.89435 0.0
H3167 H 0.96945 0.31725 0.89941 0.0
H3168 H 0.9959 0.35274 0.88273 0.0
S3169 S 0.9085 0.40512 0.92465 0.0
N3170 N 0.90781 0.37341 0.92813 0.0
N3171 N 0.93598 0.4118 0.90992 0.0
C3172 C 0.94625 0.38782 0.90706 0.0
C3173 C 0.93068 0.36674 0.9172 0.0
C3174 C 0.58814 0.85184 0.40896 0.0
C3175 C 0.59217 0.87498 0.39462 0.0
C3176 C 0.60882 0.83631 0.41865 0.0
C3177 C 0.63504 0.84296 0.41489 0.0
H3178 H 0.56858 0.84558 0.41297 0.0
H3179 H 0.6041 0.81904 0.4295 0.0
S3180 S 0.65684 0.90215 0.37966 0.0
N3181 N 0.62501 0.90371 0.3778 0.0
N3182 N 0.66345 0.87538 0.39577 0.0
C3183 C 0.63934 0.86612 0.40054 0.0
C3184 C 0.61822 0.88178 0.39053 0.0
C3185 C 0.13324 0.19204 0.91603 0.0
C3186 C 0.12548 0.21815 0.91429 0.0
C3187 C 0.11791 0.17151 0.90571 0.0
C3188 C 0.09371 0.17569 0.89318 0.0
H3189 H 0.15179 0.18741 0.92462 0.0
H3190 H 0.12548 0.15206 0.90721 0.0
S3191 S 0.06328 0.24023 0.88516 0.0
N3192 N 0.0909 0.24661 0.89989 0.0
N3193 N 0.06256 0.2086 0.88117 0.0
C3194 C 0.08544 0.20165 0.89206 0.0
C3195 C 0.1011 0.22254 0.90234 0.0
C3196 C 0.92431 0.19351 0.90182 0.0
C3197 C 0.92872 0.21739 0.91477 0.0
C3198 C 0.94475 0.17801 0.89166 0.0
C3199 C 0.97099 0.18526 0.89395 0.0
H3200 H 0.90475 0.18632 0.89985 0.0
H3201 H 0.93992 0.15974 0.88272 0.0
S3202 S 0.99368 0.24652 0.92432 0.0
N3203 N 0.96198 0.24769 0.9278 0.0
N3204 N 0.99982 0.21908 0.90933 0.0
C3205 C 0.9756 0.20933 0.90634 0.0
C3206 C 0.95481 0.22515 0.91649 0.0
C3207 C 0.61674 0.38692 0.1511 0.0
C3208 C 0.59373 0.38239 0.16548 0.0
C3209 C 0.63231 0.36656 0.14097 0.0
C3210 C 0.62599 0.34027 0.14469 0.0
H3211 H 0.62321 0.40656 0.14792 0.0
H3212 H 0.64992 0.37153 0.13086 0.0
S3213 S 0.56704 0.3172 0.17908 0.0
N3214 N 0.56511 0.34895 0.18138 0.0
N3215 N 0.59385 0.31119 0.16295 0.0
C3216 C 0.60274 0.33549 0.15852 0.0
C3217 C 0.58685 0.35623 0.16867 0.0
C3218 C 0.58973 0.20916 0.14911 0.0
C3219 C 0.59349 0.18649 0.16425 0.0
C3220 C 0.6106 0.22465 0.13986 0.0
C3221 C 0.63674 0.21853 0.14506 0.0
H3222 H 0.57027 0.21506 0.14407 0.0
H3223 H 0.60611 0.24146 0.12821 0.0
S3224 S 0.65773 0.16109 0.18362 0.0
N3225 N 0.62591 0.15878 0.18349 0.0
N3226 N 0.66459 0.18764 0.16731 0.0
C3227 C 0.64067 0.19605 0.16056 0.0
C3228 C 0.61939 0.18022 0.16979 0.0
C3229 C 0.47492 0.3534 0.14654 0.0
C3230 C 0.47114 0.37379 0.16451 0.0
C3231 C 0.4543 0.33785 0.1369 0.0
C3232 C 0.42838 0.3418 0.14435 0.0
H3233 H 0.4942 0.34942 0.13951 0.0
H3234 H 0.45876 0.32288 0.12304 0.0
S3235 S 0.40723 0.39282 0.19068 0.0
N3236 N 0.43886 0.39682 0.18915 0.0
N3237 N 0.40045 0.36835 0.1714 0.0
C3238 C 0.42432 0.36208 0.16252 0.0
C3239 C 0.44543 0.37775 0.17245 0.0
loop_
_geom_bond_atom_site_label_1
_geom_bond_atom_site_label_2
_geom_bond_distance
_geom_bond_site_symmetry_2
_ccdc_geom_bond_type
O0 Tb1 2.292 . S
O0 C3 1.255 . S
Tb1 O0 2.292 . S
Tb1 O17 2.326 . S
Tb1 O19 2.500 . S
Tb1 O20 2.473 . S
Tb1 O23 2.324 . S
Eu2 O6 2.292 . S
Eu2 C7 2.852 . S
Eu2 O18 2.324 . S
Eu2 O22 2.326 . S
Eu2 O24 2.500 . S
Eu2 O25 2.473 . S
C3 O0 1.255 . S
C3 O4 1.247 . S
O4 C3 1.247 . S
C5 O17 1.242 . S
C5 O18 1.258 . S
O6 Eu2 2.292 . S
O6 C8 1.255 . S
C7 Eu2 2.852 . S
C7 C11 1.503 . S
C7 O24 1.273 . S
C7 O25 1.257 . S
C8 O6 1.255 . S
C8 O9 1.247 . S
O9 C8 1.247 . S
C10 O22 1.242 . S
C10 O23 1.258 . S
C11 C7 1.503 . S
C11 C12 1.379 . S
C11 C16 1.392 . S
C12 C11 1.379 . S
C12 C13 1.404 . S
C12 H26 0.929 . S
C13 C12 1.404 . S
C13 C14 1.389 . S
C14 C13 1.389 . S
C14 C15 1.399 . S
C14 H27 0.931 . S
C15 C14 1.399 . S
C15 C16 1.390 . S
C16 C11 1.392 . S
C16 C15 1.390 . S
C16 H28 0.929 . S
O17 Tb1 2.326 . S
O17 C5 1.242 . S
O18 Eu2 2.324 . S
O18 C5 1.258 . S
O19 Tb1 2.500 . S
O19 C21 1.273 . S
O20 Tb1 2.473 . S
O20 C21 1.257 . S
C21 O19 1.273 . S
C21 O20 1.257 . S
O22 Eu2 2.326 . S
O22 C10 1.242 . S
O23 Tb1 2.324 . S
O23 C10 1.258 . S
O24 Eu2 2.500 . S
O24 C7 1.273 . S
O25 Eu2 2.473 . S
O25 C7 1.257 . S
H26 C12 0.929 . S
H27 C14 0.931 . S
H28 C16 0.929 . S
O29 Tb30 2.292 . S
O29 C32 1.255 . S
Tb30 O29 2.292 . S
Tb30 O46 2.326 . S
Tb30 O48 2.500 . S
Tb30 O49 2.473 . S
Tb30 O52 2.324 . S
Eu31 O35 2.292 1_556 S
Eu31 C36 2.852 . S
Eu31 O47 2.324 . S
Eu31 O51 2.326 . S
Eu31 O53 2.500 1_556 S
Eu31 O54 2.473 . S
C32 O29 1.255 . S
C32 O33 1.247 . S
O33 C32 1.247 . S
C34 O46 1.242 . S
C34 O47 1.258 . S
O35 Eu31 2.292 1_554 S
O35 C37 1.255 . S
C36 Eu31 2.852 . S
C36 C40 1.503 . S
C36 O53 1.273 1_556 S
C36 O54 1.257 . S
C37 O35 1.255 . S
C37 O38 1.247 1_554 S
O38 C37 1.247 1_556 S
C39 O51 1.242 . S
C39 O52 1.258 . S
C40 C36 1.503 . S
C40 C41 1.379 . S
C40 C45 1.382 1_556 S
C41 C40 1.379 . S
C41 C42 1.404 . S
C41 H55 0.929 . S
C42 C41 1.404 . S
C42 C43 1.389 . S
C43 C42 1.389 . S
C43 C44 1.425 . S
C43 H56 0.931 . S
C44 C43 1.425 . S
C44 C45 1.388 1_556 S
C45 C40 1.382 1_554 S
C45 C44 1.388 1_554 S
C45 H57 0.940 . S
O46 Tb30 2.326 . S
O46 C34 1.242 . S
O47 Eu31 2.324 . S
O47 C34 1.258 . S
O48 Tb30 2.500 . S
O48 C50 1.273 . S
O49 Tb30 2.473 . S
O49 C50 1.257 . S
C50 O48 1.273 . S
C50 O49 1.257 . S
O51 Eu31 2.326 . S
O51 C39 1.242 . S
O52 Tb30 2.324 . S
O52 C39 1.258 . S
O53 Eu31 2.500 1_554 S
O53 C36 1.273 1_554 S
O54 Eu31 2.473 . S
O54 C36 1.257 . S
H55 C41 0.929 . S
H56 C43 0.931 . S
H57 C45 0.940 . S
O58 Tb59 2.292 . S
O58 C61 1.255 . S
Tb59 O58 2.292 . S
Tb59 O75 2.326 . S
Tb59 O77 2.500 . S
Tb59 O78 2.473 . S
Tb59 O81 2.324 . S
Eu60 O64 2.292 . S
Eu60 C65 2.852 . S
Eu60 O76 2.324 . S
Eu60 O80 2.326 . S
Eu60 O82 2.500 . S
Eu60 O83 2.473 . S
C61 O58 1.255 . S
C61 O62 1.247 . S
O62 C61 1.247 . S
C63 O75 1.242 . S
C63 O76 1.258 . S
O64 Eu60 2.292 . S
O64 C66 1.255 . S
C65 Eu60 2.852 . S
C65 C69 1.503 . S
C65 O82 1.273 . S
C65 O83 1.257 . S
C66 O64 1.255 . S
C66 O67 1.247 . S
O67 C66 1.247 . S
C68 O80 1.242 . S
C68 O81 1.258 . S
C69 C65 1.503 . S
C69 C70 1.379 . S
C69 C74 1.392 . S
C70 C69 1.379 . S
C70 C71 1.404 . S
C70 H84 0.929 . S
C71 C70 1.404 . S
C71 C72 1.389 . S
C72 C71 1.389 . S
C72 C73 1.399 . S
C72 H85 0.931 . S
C73 C72 1.399 . S
C73 C74 1.390 . S
C74 C69 1.392 . S
C74 C73 1.390 . S
C74 H86 0.929 . S
O75 Tb59 2.326 . S
O75 C63 1.242 . S
O76 Eu60 2.324 . S
O76 C63 1.258 . S
O77 Tb59 2.500 . S
O77 C79 1.273 . S
O78 Tb59 2.473 . S
O78 C79 1.257 . S
C79 O77 1.273 . S
C79 O78 1.257 . S
O80 Eu60 2.326 . S
O80 C68 1.242 . S
O81 Tb59 2.324 . S
O81 C68 1.258 . S
O82 Eu60 2.500 . S
O82 C65 1.273 . S
O83 Eu60 2.473 . S
O83 C65 1.257 . S
H84 C70 0.929 . S
H85 C72 0.931 . S
H86 C74 0.929 . S
O87 Tb88 2.292 . S
O87 C90 1.255 . S
Tb88 O87 2.292 . S
Tb88 O104 2.326 . S
Tb88 O106 2.500 . S
Tb88 O107 2.473 . S
Tb88 O110 2.324 . S
Eu89 O93 2.292 1_556 S
Eu89 C94 2.852 . S
Eu89 O105 2.324 . S
Eu89 O109 2.326 . S
Eu89 O111 2.500 1_556 S
Eu89 O112 2.473 . S
C90 O87 1.255 . S
C90 O91 1.247 . S
O91 C90 1.247 . S
C92 O104 1.242 . S
C92 O105 1.258 . S
O93 Eu89 2.292 1_554 S
O93 C95 1.255 . S
C94 Eu89 2.852 . S
C94 C98 1.503 . S
C94 O111 1.273 1_556 S
C94 O112 1.257 . S
C95 O93 1.255 . S
C95 O96 1.247 1_554 S
O96 C95 1.247 1_556 S
C97 O109 1.242 . S
C97 O110 1.258 . S
C98 C94 1.503 . S
C98 C99 1.379 . S
C98 C103 1.382 1_556 S
C99 C98 1.379 . S
C99 C100 1.404 . S
C99 H113 0.929 . S
C100 C99 1.404 . S
C100 C101 1.389 . S
C101 C100 1.389 . S
C101 C102 1.425 . S
C101 H114 0.931 . S
C102 C101 1.425 . S
C102 C103 1.388 1_556 S
C103 C98 1.382 1_554 S
C103 C102 1.388 1_554 S
C103 H115 0.940 . S
O104 Tb88 2.326 . S
O104 C92 1.242 . S
O105 Eu89 2.324 . S
O105 C92 1.258 . S
O106 Tb88 2.500 . S
O106 C108 1.273 . S
O107 Tb88 2.473 . S
O107 C108 1.257 . S
C108 O106 1.273 . S
C108 O107 1.257 . S
O109 Eu89 2.326 . S
O109 C97 1.242 . S
O110 Tb88 2.324 . S
O110 C97 1.258 . S
O111 Eu89 2.500 1_554 S
O111 C94 1.273 1_554 S
O112 Eu89 2.473 . S
O112 C94 1.257 . S
H113 C99 0.929 . S
H114 C101 0.931 . S
H115 C103 0.940 . S
O116 Tb117 2.292 . S
O116 C119 1.255 . S
Tb117 O116 2.292 . S
Tb117 O133 2.326 . S
Tb117 O135 2.500 . S
Tb117 O136 2.473 . S
Tb117 O139 2.324 . S
Eu118 O122 2.292 . S
Eu118 C123 2.852 . S
Eu118 O134 2.324 . S
Eu118 O138 2.326 . S
Eu118 O140 2.500 . S
Eu118 O141 2.473 . S
C119 O116 1.255 . S
C119 O120 1.247 . S
O120 C119 1.247 . S
C121 O133 1.242 . S
C121 O134 1.258 . S
O122 Eu118 2.292 . S
O122 C124 1.255 . S
C123 Eu118 2.852 . S
C123 C127 1.503 . S
C123 O140 1.273 . S
C123 O141 1.257 . S
C124 O122 1.255 . S
C124 O125 1.247 . S
O125 C124 1.247 . S
C126 O138 1.242 . S
C126 O139 1.258 . S
C127 C123 1.503 . S
C127 C128 1.379 . S
C127 C132 1.392 . S
C128 C127 1.379 . S
C128 C129 1.404 . S
C128 H142 0.929 . S
C129 C128 1.404 . S
C129 C130 1.389 . S
C130 C129 1.389 . S
C130 C131 1.399 . S
C130 H143 0.931 . S
C131 C130 1.399 . S
C131 C132 1.390 . S
C132 C127 1.392 . S
C132 C131 1.390 . S
C132 H144 0.929 . S
O133 Tb117 2.326 . S
O133 C121 1.242 . S
O134 Eu118 2.324 . S
O134 C121 1.258 . S
O135 Tb117 2.500 . S
O135 C137 1.273 . S
O136 Tb117 2.473 . S
O136 C137 1.257 . S
C137 O135 1.273 . S
C137 O136 1.257 . S
O138 Eu118 2.326 . S
O138 C126 1.242 . S
O139 Tb117 2.324 . S
O139 C126 1.258 . S
O140 Eu118 2.500 . S
O140 C123 1.273 . S
O141 Eu118 2.473 . S
O141 C123 1.257 . S
H142 C128 0.929 . S
H143 C130 0.931 . S
H144 C132 0.929 . S
O145 Tb146 2.292 . S
O145 C148 1.255 . S
Tb146 O145 2.292 . S
Tb146 O162 2.326 . S
Tb146 O164 2.500 . S
Tb146 O165 2.473 . S
Tb146 O168 2.324 . S
Eu147 O151 2.292 1_554 S
Eu147 C152 2.852 . S
Eu147 O163 2.324 . S
Eu147 O167 2.326 . S
Eu147 O169 2.500 1_554 S
Eu147 O170 2.473 . S
C148 O145 1.255 . S
C148 O149 1.247 . S
O149 C148 1.247 . S
C150 O162 1.242 . S
C150 O163 1.258 . S
O151 Eu147 2.292 1_556 S
O151 C153 1.255 . S
C152 Eu147 2.852 . S
C152 C156 1.503 . S
C152 O169 1.273 1_554 S
C152 O170 1.257 . S
C153 O151 1.255 . S
C153 O154 1.247 1_556 S
O154 C153 1.247 1_554 S
C155 O167 1.242 . S
C155 O168 1.258 . S
C156 C152 1.503 . S
C156 C157 1.379 . S
C156 C161 1.382 1_554 S
C157 C156 1.379 . S
C157 C158 1.404 . S
C157 H171 0.929 . S
C158 C157 1.404 . S
C158 C159 1.389 . S
C159 C158 1.389 . S
C159 C160 1.425 . S
C159 H172 0.931 . S
C160 C159 1.425 . S
C160 C161 1.388 1_554 S
C161 C156 1.382 1_556 S
C161 C160 1.388 1_556 S
C161 H173 0.940 . S
O162 Tb146 2.326 . S
O162 C150 1.242 . S
O163 Eu147 2.324 . S
O163 C150 1.258 . S
O164 Tb146 2.500 . S
O164 C166 1.273 . S
O165 Tb146 2.473 . S
O165 C166 1.257 . S
C166 O164 1.273 . S
C166 O165 1.257 . S
O167 Eu147 2.326 . S
O167 C155 1.242 . S
O168 Tb146 2.324 . S
O168 C155 1.258 . S
O169 Eu147 2.500 1_556 S
O169 C152 1.273 1_556 S
O170 Eu147 2.473 . S
O170 C152 1.257 . S
H171 C157 0.929 . S
H172 C159 0.931 . S
H173 C161 0.940 . S
O174 Tb175 2.292 . S
O174 C177 1.255 . S
Tb175 O174 2.292 . S
Tb175 O191 2.326 . S
Tb175 O193 2.500 . S
Tb175 O194 2.473 . S
Tb175 O197 2.324 . S
Eu176 O180 2.292 . S
Eu176 C181 2.852 . S
Eu176 O192 2.324 . S
Eu176 O196 2.326 . S
Eu176 O198 2.500 . S
Eu176 O199 2.473 . S
C177 O174 1.255 . S
C177 O178 1.247 . S
O178 C177 1.247 . S
C179 O191 1.242 . S
C179 O192 1.258 . S
O180 Eu176 2.292 . S
O180 C182 1.255 . S
C181 Eu176 2.852 . S
C181 C185 1.503 . S
C181 O198 1.273 . S
C181 O199 1.257 . S
C182 O180 1.255 . S
C182 O183 1.247 . S
O183 C182 1.247 . S
C184 O196 1.242 . S
C184 O197 1.258 . S
C185 C181 1.503 . S
C185 C186 1.379 . S
C185 C190 1.392 . S
C186 C185 1.379 . S
C186 C187 1.404 . S
C186 H200 0.929 . S
C187 C186 1.404 . S
C187 C188 1.389 . S
C188 C187 1.389 . S
C188 C189 1.399 . S
C188 H201 0.931 . S
C189 C188 1.399 . S
C189 C190 1.390 . S
C190 C185 1.392 . S
C190 C189 1.390 . S
C190 H202 0.929 . S
O191 Tb175 2.326 . S
O191 C179 1.242 . S
O192 Eu176 2.324 . S
O192 C179 1.258 . S
O193 Tb175 2.500 . S
O193 C195 1.273 . S
O194 Tb175 2.473 . S
O194 C195 1.257 . S
C195 O193 1.273 . S
C195 O194 1.257 . S
O196 Eu176 2.326 . S
O196 C184 1.242 . S
O197 Tb175 2.324 . S
O197 C184 1.258 . S
O198 Eu176 2.500 . S
O198 C181 1.273 . S
O199 Eu176 2.473 . S
O199 C181 1.257 . S
H200 C186 0.929 . S
H201 C188 0.931 . S
H202 C190 0.929 . S
O203 Tb204 2.292 . S
O203 C206 1.255 . S
Tb204 O203 2.292 . S
Tb204 O220 2.326 . S
Tb204 O222 2.500 . S
Tb204 O223 2.473 . S
Tb204 O226 2.324 . S
Eu205 O209 2.292 1_554 S
Eu205 C210 2.852 . S
Eu205 O221 2.324 . S
Eu205 O225 2.326 . S
Eu205 O227 2.500 1_554 S
Eu205 O228 2.473 . S
C206 O203 1.255 . S
C206 O207 1.247 . S
O207 C206 1.247 . S
C208 O220 1.242 . S
C208 O221 1.258 . S
O209 Eu205 2.292 1_556 S
O209 C211 1.255 . S
C210 Eu205 2.852 . S
C210 C214 1.503 . S
C210 O227 1.273 1_554 S
C210 O228 1.257 . S
C211 O209 1.255 . S
C211 O212 1.247 1_556 S
O212 C211 1.247 1_554 S
C213 O225 1.242 . S
C213 O226 1.258 . S
C214 C210 1.503 . S
C214 C215 1.379 . S
C214 C219 1.382 1_554 S
C215 C214 1.379 . S
C215 C216 1.404 . S
C215 H229 0.929 . S
C216 C215 1.404 . S
C216 C217 1.389 . S
C217 C216 1.389 . S
C217 C218 1.425 . S
C217 H230 0.931 . S
C218 C217 1.425 . S
C218 C219 1.388 1_554 S
C219 C214 1.382 1_556 S
C219 C218 1.388 1_556 S
C219 H231 0.940 . S
O220 Tb204 2.326 . S
O220 C208 1.242 . S
O221 Eu205 2.324 . S
O221 C208 1.258 . S
O222 Tb204 2.500 . S
O222 C224 1.273 . S
O223 Tb204 2.473 . S
O223 C224 1.257 . S
C224 O222 1.273 . S
C224 O223 1.257 . S
O225 Eu205 2.326 . S
O225 C213 1.242 . S
O226 Tb204 2.324 . S
O226 C213 1.258 . S
O227 Eu205 2.500 1_556 S
O227 C210 1.273 1_556 S
O228 Eu205 2.473 . S
O228 C210 1.257 . S
H229 C215 0.929 . S
H230 C217 0.931 . S
H231 C219 0.940 . S
O232 Tb233 2.292 . S
O232 C235 1.255 . S
Tb233 O232 2.292 . S
Tb233 O249 2.326 . S
Tb233 O251 2.500 . S
Tb233 O252 2.473 . S
Tb233 O255 2.324 . S
Eu234 O238 2.292 . S
Eu234 C239 2.852 . S
Eu234 O250 2.324 . S
Eu234 O254 2.326 . S
Eu234 O256 2.500 . S
Eu234 O257 2.473 . S
C235 O232 1.255 . S
C235 O236 1.247 . S
O236 C235 1.247 . S
C237 O249 1.242 . S
C237 O250 1.258 . S
O238 Eu234 2.292 . S
O238 C240 1.255 . S
C239 Eu234 2.852 . S
C239 C243 1.503 . S
C239 O256 1.273 . S
C239 O257 1.257 . S
C240 O238 1.255 . S
C240 O241 1.247 . S
O241 C240 1.247 . S
C242 O254 1.242 . S
C242 O255 1.258 . S
C243 C239 1.503 . S
C243 C244 1.379 . S
C243 C248 1.392 . S
C244 C243 1.379 . S
C244 C245 1.404 . S
C244 H258 0.929 . S
C245 C244 1.404 . S
C245 C246 1.389 . S
C246 C245 1.389 . S
C246 C247 1.399 . S
C246 H259 0.931 . S
C247 C246 1.399 . S
C247 C248 1.390 . S
C248 C243 1.392 . S
C248 C247 1.390 . S
C248 H260 0.929 . S
O249 Tb233 2.326 . S
O249 C237 1.242 . S
O250 Eu234 2.324 . S
O250 C237 1.258 . S
O251 Tb233 2.500 . S
O251 C253 1.273 . S
O252 Tb233 2.473 . S
O252 C253 1.257 . S
C253 O251 1.273 . S
C253 O252 1.257 . S
O254 Eu234 2.326 . S
O254 C242 1.242 . S
O255 Tb233 2.324 . S
O255 C242 1.258 . S
O256 Eu234 2.500 . S
O256 C239 1.273 . S
O257 Eu234 2.473 . S
O257 C239 1.257 . S
H258 C244 0.929 . S
H259 C246 0.931 . S
H260 C248 0.929 . S
O261 Tb262 2.292 . S
O261 C264 1.255 . S
Tb262 O261 2.292 . S
Tb262 O278 2.326 . S
Tb262 O280 2.500 . S
Tb262 O281 2.473 . S
Tb262 O284 2.324 . S
Eu263 O267 2.292 . S
Eu263 C268 2.852 . S
Eu263 O279 2.324 . S
Eu263 O283 2.326 . S
Eu263 O285 2.500 . S
Eu263 O286 2.473 . S
C264 O261 1.255 . S
C264 O265 1.247 . S
O265 C264 1.247 . S
C266 O278 1.242 . S
C266 O279 1.258 . S
O267 Eu263 2.292 . S
O267 C269 1.255 . S
C268 Eu263 2.852 . S
C268 C272 1.503 . S
C268 O285 1.273 . S
C268 O286 1.257 . S
C269 O267 1.255 . S
C269 O270 1.247 . S
O270 C269 1.247 . S
C271 O283 1.242 . S
C271 O284 1.258 . S
C272 C268 1.503 . S
C272 C273 1.379 . S
C272 C277 1.392 . S
C273 C272 1.379 . S
C273 C274 1.404 . S
C273 H287 0.929 . S
C274 C273 1.404 . S
C274 C275 1.389 . S
C275 C274 1.389 . S
C275 C276 1.399 . S
C275 H288 0.931 . S
C276 C275 1.399 . S
C276 C277 1.390 . S
C277 C272 1.392 . S
C277 C276 1.390 . S
C277 H289 0.929 . S
O278 Tb262 2.326 . S
O278 C266 1.242 . S
O279 Eu263 2.324 . S
O279 C266 1.258 . S
O280 Tb262 2.500 . S
O280 C282 1.273 . S
O281 Tb262 2.473 . S
O281 C282 1.257 . S
C282 O280 1.273 . S
C282 O281 1.257 . S
O283 Eu263 2.326 . S
O283 C271 1.242 . S
O284 Tb262 2.324 . S
O284 C271 1.258 . S
O285 Eu263 2.500 . S
O285 C268 1.273 . S
O286 Eu263 2.473 . S
O286 C268 1.257 . S
H287 C273 0.929 . S
H288 C275 0.931 . S
H289 C277 0.929 . S
O290 Tb291 2.292 . S
O290 C293 1.255 . S
Tb291 O290 2.292 . S
Tb291 O307 2.326 . S
Tb291 O309 2.500 . S
Tb291 O310 2.473 . S
Tb291 O313 2.324 . S
Eu292 O296 2.292 . S
Eu292 C297 2.852 . S
Eu292 O308 2.324 . S
Eu292 O312 2.326 . S
Eu292 O314 2.500 . S
Eu292 O315 2.473 . S
C293 O290 1.255 . S
C293 O294 1.247 . S
O294 C293 1.247 . S
C295 O307 1.242 . S
C295 O308 1.258 . S
O296 Eu292 2.292 . S
O296 C298 1.255 . S
C297 Eu292 2.852 . S
C297 C301 1.503 . S
C297 O314 1.273 . S
C297 O315 1.257 . S
C298 O296 1.255 . S
C298 O299 1.247 . S
O299 C298 1.247 . S
C300 O312 1.242 . S
C300 O313 1.258 . S
C301 C297 1.503 . S
C301 C302 1.379 . S
C301 C306 1.392 . S
C302 C301 1.379 . S
C302 C303 1.404 . S
C302 H316 0.929 . S
C303 C302 1.404 . S
C303 C304 1.389 . S
C304 C303 1.389 . S
C304 C305 1.399 . S
C304 H317 0.931 . S
C305 C304 1.399 . S
C305 C306 1.390 . S
C306 C301 1.392 . S
C306 C305 1.390 . S
C306 H318 0.929 . S
O307 Tb291 2.326 . S
O307 C295 1.242 . S
O308 Eu292 2.324 . S
O308 C295 1.258 . S
O309 Tb291 2.500 . S
O309 C311 1.273 . S
O310 Tb291 2.473 . S
O310 C311 1.257 . S
C311 O309 1.273 . S
C311 O310 1.257 . S
O312 Eu292 2.326 . S
O312 C300 1.242 . S
O313 Tb291 2.324 . S
O313 C300 1.258 . S
O314 Eu292 2.500 . S
O314 C297 1.273 . S
O315 Eu292 2.473 . S
O315 C297 1.257 . S
H316 C302 0.929 . S
H317 C304 0.931 . S
H318 C306 0.929 . S
O319 Tb320 2.292 . S
O319 C322 1.255 . S
Tb320 O319 2.292 . S
Tb320 O336 2.326 . S
Tb320 O338 2.500 . S
Tb320 O339 2.473 . S
Tb320 O342 2.324 . S
Eu321 O325 2.292 1_545 S
Eu321 C326 2.852 . S
Eu321 O337 2.324 . S
Eu321 O341 2.326 . S
Eu321 O343 2.500 1_545 S
Eu321 O344 2.473 . S
C322 O319 1.255 . S
C322 O323 1.247 . S
O323 C322 1.247 . S
C324 O336 1.242 . S
C324 O337 1.258 . S
O325 Eu321 2.292 1_565 S
O325 C327 1.255 . S
C326 Eu321 2.852 . S
C326 C330 1.503 . S
C326 O343 1.273 1_545 S
C326 O344 1.257 . S
C327 O325 1.255 . S
C327 O328 1.247 1_565 S
O328 C327 1.247 1_545 S
C329 O341 1.242 . S
C329 O342 1.258 . S
C330 C326 1.503 . S
C330 C331 1.379 . S
C330 C335 1.382 1_545 S
C331 C330 1.379 . S
C331 C332 1.404 . S
C331 H345 0.929 . S
C332 C331 1.404 . S
C332 C333 1.389 . S
C333 C332 1.389 . S
C333 C334 1.425 . S
C333 H346 0.931 . S
C334 C333 1.425 . S
C334 C335 1.388 1_545 S
C335 C330 1.382 1_565 S
C335 C334 1.388 1_565 S
C335 H347 0.940 . S
O336 Tb320 2.326 . S
O336 C324 1.242 . S
O337 Eu321 2.324 . S
O337 C324 1.258 . S
O338 Tb320 2.500 . S
O338 C340 1.273 . S
O339 Tb320 2.473 . S
O339 C340 1.257 . S
C340 O338 1.273 . S
C340 O339 1.257 . S
O341 Eu321 2.326 . S
O341 C329 1.242 . S
O342 Tb320 2.324 . S
O342 C329 1.258 . S
O343 Eu321 2.500 1_565 S
O343 C326 1.273 1_565 S
O344 Eu321 2.473 . S
O344 C326 1.257 . S
H345 C331 0.929 . S
H346 C333 0.931 . S
H347 C335 0.940 . S
O348 Tb349 2.292 . S
O348 C351 1.255 . S
Tb349 O348 2.292 . S
Tb349 O365 2.326 . S
Tb349 O367 2.500 . S
Tb349 O368 2.473 . S
Tb349 O371 2.324 . S
Eu350 O354 2.292 . S
Eu350 C355 2.852 . S
Eu350 O366 2.324 . S
Eu350 O370 2.326 . S
Eu350 O372 2.500 . S
Eu350 O373 2.473 . S
C351 O348 1.255 . S
C351 O352 1.247 . S
O352 C351 1.247 . S
C353 O365 1.242 . S
C353 O366 1.258 . S
O354 Eu350 2.292 . S
O354 C356 1.255 . S
C355 Eu350 2.852 . S
C355 C359 1.503 . S
C355 O372 1.273 . S
C355 O373 1.257 . S
C356 O354 1.255 . S
C356 O357 1.247 . S
O357 C356 1.247 . S
C358 O370 1.242 . S
C358 O371 1.258 . S
C359 C355 1.503 . S
C359 C360 1.379 . S
C359 C364 1.392 . S
C360 C359 1.379 . S
C360 C361 1.404 . S
C360 H374 0.929 . S
C361 C360 1.404 . S
C361 C362 1.389 . S
C362 C361 1.389 . S
C362 C363 1.399 . S
C362 H375 0.931 . S
C363 C362 1.399 . S
C363 C364 1.390 . S
C364 C359 1.392 . S
C364 C363 1.390 . S
C364 H376 0.929 . S
O365 Tb349 2.326 . S
O365 C353 1.242 . S
O366 Eu350 2.324 . S
O366 C353 1.258 . S
O367 Tb349 2.500 . S
O367 C369 1.273 . S
O368 Tb349 2.473 . S
O368 C369 1.257 . S
C369 O367 1.273 . S
C369 O368 1.257 . S
O370 Eu350 2.326 . S
O370 C358 1.242 . S
O371 Tb349 2.324 . S
O371 C358 1.258 . S
O372 Eu350 2.500 . S
O372 C355 1.273 . S
O373 Eu350 2.473 . S
O373 C355 1.257 . S
H374 C360 0.929 . S
H375 C362 0.931 . S
H376 C364 0.929 . S
O377 Tb378 2.292 . S
O377 C380 1.255 . S
Tb378 O377 2.292 . S
Tb378 O394 2.326 . S
Tb378 O396 2.500 . S
Tb378 O397 2.473 . S
Tb378 O400 2.324 . S
Eu379 O383 2.292 . S
Eu379 C384 2.852 . S
Eu379 O395 2.324 . S
Eu379 O399 2.326 . S
Eu379 O401 2.500 . S
Eu379 O402 2.473 . S
C380 O377 1.255 . S
C380 O381 1.247 . S
O381 C380 1.247 . S
C382 O394 1.242 . S
C382 O395 1.258 . S
O383 Eu379 2.292 . S
O383 C385 1.255 . S
C384 Eu379 2.852 . S
C384 C388 1.503 . S
C384 O401 1.273 . S
C384 O402 1.257 . S
C385 O383 1.255 . S
C385 O386 1.247 . S
O386 C385 1.247 . S
C387 O399 1.242 . S
C387 O400 1.258 . S
C388 C384 1.503 . S
C388 C389 1.379 . S
C388 C393 1.392 . S
C389 C388 1.379 . S
C389 C390 1.404 . S
C389 H403 0.929 . S
C390 C389 1.404 . S
C390 C391 1.389 . S
C391 C390 1.389 . S
C391 C392 1.399 . S
C391 H404 0.931 . S
C392 C391 1.399 . S
C392 C393 1.390 . S
C393 C388 1.392 . S
C393 C392 1.390 . S
C393 H405 0.929 . S
O394 Tb378 2.326 . S
O394 C382 1.242 . S
O395 Eu379 2.324 . S
O395 C382 1.258 . S
O396 Tb378 2.500 . S
O396 C398 1.273 . S
O397 Tb378 2.473 . S
O397 C398 1.257 . S
C398 O396 1.273 . S
C398 O397 1.257 . S
O399 Eu379 2.326 . S
O399 C387 1.242 . S
O400 Tb378 2.324 . S
O400 C387 1.258 . S
O401 Eu379 2.500 . S
O401 C384 1.273 . S
O402 Eu379 2.473 . S
O402 C384 1.257 . S
H403 C389 0.929 . S
H404 C391 0.931 . S
H405 C393 0.929 . S
O406 Tb407 2.292 . S
O406 C409 1.255 . S
Tb407 O406 2.292 . S
Tb407 O423 2.326 . S
Tb407 O425 2.500 . S
Tb407 O426 2.473 . S
Tb407 O429 2.324 . S
Eu408 O412 2.292 . S
Eu408 C413 2.852 . S
Eu408 O424 2.324 . S
Eu408 O428 2.326 . S
Eu408 O430 2.500 . S
Eu408 O431 2.473 . S
C409 O406 1.255 . S
C409 O410 1.247 . S
O410 C409 1.247 . S
C411 O423 1.242 . S
C411 O424 1.258 . S
O412 Eu408 2.292 . S
O412 C414 1.255 . S
C413 Eu408 2.852 . S
C413 C417 1.503 . S
C413 O430 1.273 . S
C413 O431 1.257 . S
C414 O412 1.255 . S
C414 O415 1.247 . S
O415 C414 1.247 . S
C416 O428 1.242 . S
C416 O429 1.258 . S
C417 C413 1.503 . S
C417 C418 1.379 . S
C417 C422 1.392 . S
C418 C417 1.379 . S
C418 C419 1.404 . S
C418 H432 0.929 . S
C419 C418 1.404 . S
C419 C420 1.389 . S
C420 C419 1.389 . S
C420 C421 1.399 . S
C420 H433 0.931 . S
C421 C420 1.399 . S
C421 C422 1.390 . S
C422 C417 1.392 . S
C422 C421 1.390 . S
C422 H434 0.929 . S
O423 Tb407 2.326 . S
O423 C411 1.242 . S
O424 Eu408 2.324 . S
O424 C411 1.258 . S
O425 Tb407 2.500 . S
O425 C427 1.273 . S
O426 Tb407 2.473 . S
O426 C427 1.257 . S
C427 O425 1.273 . S
C427 O426 1.257 . S
O428 Eu408 2.326 . S
O428 C416 1.242 . S
O429 Tb407 2.324 . S
O429 C416 1.258 . S
O430 Eu408 2.500 . S
O430 C413 1.273 . S
O431 Eu408 2.473 . S
O431 C413 1.257 . S
H432 C418 0.929 . S
H433 C420 0.931 . S
H434 C422 0.929 . S
O435 Tb436 2.292 . S
O435 C438 1.255 . S
Tb436 O435 2.292 . S
Tb436 O452 2.326 . S
Tb436 O454 2.500 . S
Tb436 O455 2.473 . S
Tb436 O458 2.324 . S
Eu437 O441 2.292 1_545 S
Eu437 C442 2.852 . S
Eu437 O453 2.324 . S
Eu437 O457 2.326 . S
Eu437 O459 2.500 1_545 S
Eu437 O460 2.473 . S
C438 O435 1.255 . S
C438 O439 1.247 . S
O439 C438 1.247 . S
C440 O452 1.242 . S
C440 O453 1.258 . S
O441 Eu437 2.292 1_565 S
O441 C443 1.255 . S
C442 Eu437 2.852 . S
C442 C446 1.503 . S
C442 O459 1.273 1_545 S
C442 O460 1.257 . S
C443 O441 1.255 . S
C443 O444 1.247 1_565 S
O444 C443 1.247 1_545 S
C445 O457 1.242 . S
C445 O458 1.258 . S
C446 C442 1.503 . S
C446 C447 1.379 . S
C446 C451 1.382 1_545 S
C447 C446 1.379 . S
C447 C448 1.404 . S
C447 H461 0.929 . S
C448 C447 1.404 . S
C448 C449 1.389 . S
C449 C448 1.389 . S
C449 C450 1.425 . S
C449 H462 0.931 . S
C450 C449 1.425 . S
C450 C451 1.388 1_545 S
C451 C446 1.382 1_565 S
C451 C450 1.388 1_565 S
C451 H463 0.940 . S
O452 Tb436 2.326 . S
O452 C440 1.242 . S
O453 Eu437 2.324 . S
O453 C440 1.258 . S
O454 Tb436 2.500 . S
O454 C456 1.273 . S
O455 Tb436 2.473 . S
O455 C456 1.257 . S
C456 O454 1.273 . S
C456 O455 1.257 . S
O457 Eu437 2.326 . S
O457 C445 1.242 . S
O458 Tb436 2.324 . S
O458 C445 1.258 . S
O459 Eu437 2.500 1_565 S
O459 C442 1.273 1_565 S
O460 Eu437 2.473 . S
O460 C442 1.257 . S
H461 C447 0.929 . S
H462 C449 0.931 . S
H463 C451 0.940 . S
O464 Tb465 2.292 . S
O464 C467 1.255 . S
Tb465 O464 2.292 . S
Tb465 O481 2.326 . S
Tb465 O483 2.500 . S
Tb465 O484 2.473 . S
Tb465 O487 2.324 . S
Eu466 O470 2.292 . S
Eu466 C471 2.852 . S
Eu466 O482 2.324 . S
Eu466 O486 2.326 . S
Eu466 O488 2.500 . S
Eu466 O489 2.473 . S
C467 O464 1.255 . S
C467 O468 1.247 . S
O468 C467 1.247 . S
C469 O481 1.242 . S
C469 O482 1.258 . S
O470 Eu466 2.292 . S
O470 C472 1.255 . S
C471 Eu466 2.852 . S
C471 C475 1.503 . S
C471 O488 1.273 . S
C471 O489 1.257 . S
C472 O470 1.255 . S
C472 O473 1.247 . S
O473 C472 1.247 . S
C474 O486 1.242 . S
C474 O487 1.258 . S
C475 C471 1.503 . S
C475 C476 1.379 . S
C475 C480 1.392 . S
C476 C475 1.379 . S
C476 C477 1.404 . S
C476 H490 0.929 . S
C477 C476 1.404 . S
C477 C478 1.389 . S
C478 C477 1.389 . S
C478 C479 1.399 . S
C478 H491 0.931 . S
C479 C478 1.399 . S
C479 C480 1.390 . S
C480 C475 1.392 . S
C480 C479 1.390 . S
C480 H492 0.929 . S
O481 Tb465 2.326 . S
O481 C469 1.242 . S
O482 Eu466 2.324 . S
O482 C469 1.258 . S
O483 Tb465 2.500 . S
O483 C485 1.273 . S
O484 Tb465 2.473 . S
O484 C485 1.257 . S
C485 O483 1.273 . S
C485 O484 1.257 . S
O486 Eu466 2.326 . S
O486 C474 1.242 . S
O487 Tb465 2.324 . S
O487 C474 1.258 . S
O488 Eu466 2.500 . S
O488 C471 1.273 . S
O489 Eu466 2.473 . S
O489 C471 1.257 . S
H490 C476 0.929 . S
H491 C478 0.931 . S
H492 C480 0.929 . S
O493 Tb494 2.292 . S
O493 C496 1.255 . S
Tb494 O493 2.292 . S
Tb494 O510 2.326 . S
Tb494 O512 2.500 . S
Tb494 O513 2.473 . S
Tb494 O516 2.324 . S
Eu495 O499 2.292 . S
Eu495 C500 2.852 . S
Eu495 O511 2.324 . S
Eu495 O515 2.326 . S
Eu495 O517 2.500 . S
Eu495 O518 2.473 . S
C496 O493 1.255 . S
C496 O497 1.247 . S
O497 C496 1.247 . S
C498 O510 1.242 . S
C498 O511 1.258 . S
O499 Eu495 2.292 . S
O499 C501 1.255 . S
C500 Eu495 2.852 . S
C500 C504 1.503 . S
C500 O517 1.273 . S
C500 O518 1.257 . S
C501 O499 1.255 . S
C501 O502 1.247 . S
O502 C501 1.247 . S
C503 O515 1.242 . S
C503 O516 1.258 . S
C504 C500 1.503 . S
C504 C505 1.379 . S
C504 C509 1.392 . S
C505 C504 1.379 . S
C505 C506 1.404 . S
C505 H519 0.929 . S
C506 C505 1.404 . S
C506 C507 1.389 . S
C507 C506 1.389 . S
C507 C508 1.399 . S
C507 H520 0.931 . S
C508 C507 1.399 . S
C508 C509 1.390 . S
C509 C504 1.392 . S
C509 C508 1.390 . S
C509 H521 0.929 . S
O510 Tb494 2.326 . S
O510 C498 1.242 . S
O511 Eu495 2.324 . S
O511 C498 1.258 . S
O512 Tb494 2.500 . S
O512 C514 1.273 . S
O513 Tb494 2.473 . S
O513 C514 1.257 . S
C514 O512 1.273 . S
C514 O513 1.257 . S
O515 Eu495 2.326 . S
O515 C503 1.242 . S
O516 Tb494 2.324 . S
O516 C503 1.258 . S
O517 Eu495 2.500 . S
O517 C500 1.273 . S
O518 Eu495 2.473 . S
O518 C500 1.257 . S
H519 C505 0.929 . S
H520 C507 0.931 . S
H521 C509 0.929 . S
O522 Tb523 2.292 . S
O522 C525 1.255 . S
Tb523 O522 2.292 . S
Tb523 O539 2.326 . S
Tb523 O541 2.500 . S
Tb523 O542 2.473 . S
Tb523 O545 2.324 . S
Eu524 O528 2.292 1_655 S
Eu524 C529 2.852 . S
Eu524 O540 2.324 . S
Eu524 O544 2.326 . S
Eu524 O546 2.500 1_655 S
Eu524 O547 2.473 . S
C525 O522 1.255 . S
C525 O526 1.247 . S
O526 C525 1.247 . S
C527 O539 1.242 . S
C527 O540 1.258 . S
O528 Eu524 2.292 1_455 S
O528 C530 1.255 . S
C529 Eu524 2.852 . S
C529 C533 1.503 . S
C529 O546 1.273 1_655 S
C529 O547 1.257 . S
C530 O528 1.255 . S
C530 O531 1.247 1_455 S
O531 C530 1.247 1_655 S
C532 O544 1.242 . S
C532 O545 1.258 . S
C533 C529 1.503 . S
C533 C534 1.379 . S
C533 C538 1.382 1_655 S
C534 C533 1.379 . S
C534 C535 1.404 . S
C534 H548 0.929 . S
C535 C534 1.404 . S
C535 C536 1.389 . S
C536 C535 1.389 . S
C536 C537 1.425 . S
C536 H549 0.931 . S
C537 C536 1.425 . S
C537 C538 1.388 1_655 S
C538 C533 1.382 1_455 S
C538 C537 1.388 1_455 S
C538 H550 0.940 . S
O539 Tb523 2.326 . S
O539 C527 1.242 . S
O540 Eu524 2.324 . S
O540 C527 1.258 . S
O541 Tb523 2.500 . S
O541 C543 1.273 . S
O542 Tb523 2.473 . S
O542 C543 1.257 . S
C543 O541 1.273 . S
C543 O542 1.257 . S
O544 Eu524 2.326 . S
O544 C532 1.242 . S
O545 Tb523 2.324 . S
O545 C532 1.258 . S
O546 Eu524 2.500 1_455 S
O546 C529 1.273 1_455 S
O547 Eu524 2.473 . S
O547 C529 1.257 . S
H548 C534 0.929 . S
H549 C536 0.931 . S
H550 C538 0.940 . S
O551 Tb552 2.292 . S
O551 C554 1.255 . S
Tb552 O551 2.292 . S
Tb552 O568 2.326 . S
Tb552 O570 2.500 . S
Tb552 O571 2.473 . S
Tb552 O574 2.324 . S
Eu553 O557 2.292 . S
Eu553 C558 2.852 . S
Eu553 O569 2.324 . S
Eu553 O573 2.326 . S
Eu553 O575 2.500 . S
Eu553 O576 2.473 . S
C554 O551 1.255 . S
C554 O555 1.247 . S
O555 C554 1.247 . S
C556 O568 1.242 . S
C556 O569 1.258 . S
O557 Eu553 2.292 . S
O557 C559 1.255 . S
C558 Eu553 2.852 . S
C558 C562 1.503 . S
C558 O575 1.273 . S
C558 O576 1.257 . S
C559 O557 1.255 . S
C559 O560 1.247 . S
O560 C559 1.247 . S
C561 O573 1.242 . S
C561 O574 1.258 . S
C562 C558 1.503 . S
C562 C563 1.379 . S
C562 C567 1.392 . S
C563 C562 1.379 . S
C563 C564 1.404 . S
C563 H577 0.929 . S
C564 C563 1.404 . S
C564 C565 1.389 . S
C565 C564 1.389 . S
C565 C566 1.399 . S
C565 H578 0.931 . S
C566 C565 1.399 . S
C566 C567 1.390 . S
C567 C562 1.392 . S
C567 C566 1.390 . S
C567 H579 0.929 . S
O568 Tb552 2.326 . S
O568 C556 1.242 . S
O569 Eu553 2.324 . S
O569 C556 1.258 . S
O570 Tb552 2.500 . S
O570 C572 1.273 . S
O571 Tb552 2.473 . S
O571 C572 1.257 . S
C572 O570 1.273 . S
C572 O571 1.257 . S
O573 Eu553 2.326 . S
O573 C561 1.242 . S
O574 Tb552 2.324 . S
O574 C561 1.258 . S
O575 Eu553 2.500 . S
O575 C558 1.273 . S
O576 Eu553 2.473 . S
O576 C558 1.257 . S
H577 C563 0.929 . S
H578 C565 0.931 . S
H579 C567 0.929 . S
O580 Tb581 2.292 . S
O580 C583 1.255 . S
Tb581 O580 2.292 . S
Tb581 O597 2.326 . S
Tb581 O599 2.500 . S
Tb581 O600 2.473 . S
Tb581 O603 2.324 . S
Eu582 O586 2.292 . S
Eu582 C587 2.852 . S
Eu582 O598 2.324 . S
Eu582 O602 2.326 . S
Eu582 O604 2.500 . S
Eu582 O605 2.473 . S
C583 O580 1.255 . S
C583 O584 1.247 . S
O584 C583 1.247 . S
C585 O597 1.242 . S
C585 O598 1.258 . S
O586 Eu582 2.292 . S
O586 C588 1.255 . S
C587 Eu582 2.852 . S
C587 C591 1.503 . S
C587 O604 1.273 . S
C587 O605 1.257 . S
C588 O586 1.255 . S
C588 O589 1.247 . S
O589 C588 1.247 . S
C590 O602 1.242 . S
C590 O603 1.258 . S
C591 C587 1.503 . S
C591 C592 1.379 . S
C591 C596 1.392 . S
C592 C591 1.379 . S
C592 C593 1.404 . S
C592 H606 0.929 . S
C593 C592 1.404 . S
C593 C594 1.389 . S
C594 C593 1.389 . S
C594 C595 1.399 . S
C594 H607 0.931 . S
C595 C594 1.399 . S
C595 C596 1.390 . S
C596 C591 1.392 . S
C596 C595 1.390 . S
C596 H608 0.929 . S
O597 Tb581 2.326 . S
O597 C585 1.242 . S
O598 Eu582 2.324 . S
O598 C585 1.258 . S
O599 Tb581 2.500 . S
O599 C601 1.273 . S
O600 Tb581 2.473 . S
O600 C601 1.257 . S
C601 O599 1.273 . S
C601 O600 1.257 . S
O602 Eu582 2.326 . S
O602 C590 1.242 . S
O603 Tb581 2.324 . S
O603 C590 1.258 . S
O604 Eu582 2.500 . S
O604 C587 1.273 . S
O605 Eu582 2.473 . S
O605 C587 1.257 . S
H606 C592 0.929 . S
H607 C594 0.931 . S
H608 C596 0.929 . S
O609 Tb610 2.292 . S
O609 C612 1.255 . S
Tb610 O609 2.292 . S
Tb610 O626 2.326 . S
Tb610 O628 2.500 . S
Tb610 O629 2.473 . S
Tb610 O632 2.324 . S
Eu611 O615 2.292 . S
Eu611 C616 2.852 . S
Eu611 O627 2.324 . S
Eu611 O631 2.326 . S
Eu611 O633 2.500 . S
Eu611 O634 2.473 . S
C612 O609 1.255 . S
C612 O613 1.247 . S
O613 C612 1.247 . S
C614 O626 1.242 . S
C614 O627 1.258 . S
O615 Eu611 2.292 . S
O615 C617 1.255 . S
C616 Eu611 2.852 . S
C616 C620 1.503 . S
C616 O633 1.273 . S
C616 O634 1.257 . S
C617 O615 1.255 . S
C617 O618 1.247 . S
O618 C617 1.247 . S
C619 O631 1.242 . S
C619 O632 1.258 . S
C620 C616 1.503 . S
C620 C621 1.379 . S
C620 C625 1.392 . S
C621 C620 1.379 . S
C621 C622 1.404 . S
C621 H635 0.929 . S
C622 C621 1.404 . S
C622 C623 1.389 . S
C623 C622 1.389 . S
C623 C624 1.399 . S
C623 H636 0.931 . S
C624 C623 1.399 . S
C624 C625 1.390 . S
C625 C620 1.392 . S
C625 C624 1.390 . S
C625 H637 0.929 . S
O626 Tb610 2.326 . S
O626 C614 1.242 . S
O627 Eu611 2.324 . S
O627 C614 1.258 . S
O628 Tb610 2.500 . S
O628 C630 1.273 . S
O629 Tb610 2.473 . S
O629 C630 1.257 . S
C630 O628 1.273 . S
C630 O629 1.257 . S
O631 Eu611 2.326 . S
O631 C619 1.242 . S
O632 Tb610 2.324 . S
O632 C619 1.258 . S
O633 Eu611 2.500 . S
O633 C616 1.273 . S
O634 Eu611 2.473 . S
O634 C616 1.257 . S
H635 C621 0.929 . S
H636 C623 0.931 . S
H637 C625 0.929 . S
O638 Tb639 2.292 . S
O638 C641 1.255 . S
Tb639 O638 2.292 . S
Tb639 O655 2.326 . S
Tb639 O657 2.500 . S
Tb639 O658 2.473 . S
Tb639 O661 2.324 . S
Eu640 O644 2.292 1_655 S
Eu640 C645 2.852 . S
Eu640 O656 2.324 . S
Eu640 O660 2.326 . S
Eu640 O662 2.500 1_655 S
Eu640 O663 2.473 . S
C641 O638 1.255 . S
C641 O642 1.247 . S
O642 C641 1.247 . S
C643 O655 1.242 . S
C643 O656 1.258 . S
O644 Eu640 2.292 1_455 S
O644 C646 1.255 . S
C645 Eu640 2.852 . S
C645 C649 1.503 . S
C645 O662 1.273 1_655 S
C645 O663 1.257 . S
C646 O644 1.255 . S
C646 O647 1.247 1_455 S
O647 C646 1.247 1_655 S
C648 O660 1.242 . S
C648 O661 1.258 . S
C649 C645 1.503 . S
C649 C650 1.379 . S
C649 C654 1.382 1_655 S
C650 C649 1.379 . S
C650 C651 1.404 . S
C650 H664 0.929 . S
C651 C650 1.404 . S
C651 C652 1.389 . S
C652 C651 1.389 . S
C652 C653 1.425 . S
C652 H665 0.931 . S
C653 C652 1.425 . S
C653 C654 1.388 1_655 S
C654 C649 1.382 1_455 S
C654 C653 1.388 1_455 S
C654 H666 0.940 . S
O655 Tb639 2.326 . S
O655 C643 1.242 . S
O656 Eu640 2.324 . S
O656 C643 1.258 . S
O657 Tb639 2.500 . S
O657 C659 1.273 . S
O658 Tb639 2.473 . S
O658 C659 1.257 . S
C659 O657 1.273 . S
C659 O658 1.257 . S
O660 Eu640 2.326 . S
O660 C648 1.242 . S
O661 Tb639 2.324 . S
O661 C648 1.258 . S
O662 Eu640 2.500 1_455 S
O662 C645 1.273 1_455 S
O663 Eu640 2.473 . S
O663 C645 1.257 . S
H664 C650 0.929 . S
H665 C652 0.931 . S
H666 C654 0.940 . S
O667 Tb668 2.292 . S
O667 C670 1.255 . S
Tb668 O667 2.292 . S
Tb668 O684 2.326 . S
Tb668 O686 2.500 . S
Tb668 O687 2.473 . S
Tb668 O690 2.324 . S
Eu669 O673 2.292 1_455 S
Eu669 C674 2.852 . S
Eu669 O685 2.324 . S
Eu669 O689 2.326 . S
Eu669 O691 2.500 1_455 S
Eu669 O692 2.473 . S
C670 O667 1.255 . S
C670 O671 1.247 . S
O671 C670 1.247 . S
C672 O684 1.242 . S
C672 O685 1.258 . S
O673 Eu669 2.292 1_655 S
O673 C675 1.255 . S
C674 Eu669 2.852 . S
C674 C678 1.503 . S
C674 O691 1.273 1_455 S
C674 O692 1.257 . S
C675 O673 1.255 . S
C675 O676 1.247 1_655 S
O676 C675 1.247 1_455 S
C677 O689 1.242 . S
C677 O690 1.258 . S
C678 C674 1.503 . S
C678 C679 1.379 . S
C678 C683 1.382 1_455 S
C679 C678 1.379 . S
C679 C680 1.404 . S
C679 H693 0.929 . S
C680 C679 1.404 . S
C680 C681 1.389 . S
C681 C680 1.389 . S
C681 C682 1.425 . S
C681 H694 0.931 . S
C682 C681 1.425 . S
C682 C683 1.388 1_455 S
C683 C678 1.382 1_655 S
C683 C682 1.388 1_655 S
C683 H695 0.940 . S
O684 Tb668 2.326 . S
O684 C672 1.242 . S
O685 Eu669 2.324 . S
O685 C672 1.258 . S
O686 Tb668 2.500 . S
O686 C688 1.273 . S
O687 Tb668 2.473 . S
O687 C688 1.257 . S
C688 O686 1.273 . S
C688 O687 1.257 . S
O689 Eu669 2.326 . S
O689 C677 1.242 . S
O690 Tb668 2.324 . S
O690 C677 1.258 . S
O691 Eu669 2.500 1_655 S
O691 C674 1.273 1_655 S
O692 Eu669 2.473 . S
O692 C674 1.257 . S
H693 C679 0.929 . S
H694 C681 0.931 . S
H695 C683 0.940 . S
O696 Tb697 2.292 . S
O696 C699 1.255 . S
Tb697 O696 2.292 . S
Tb697 O713 2.326 . S
Tb697 O715 2.500 . S
Tb697 O716 2.473 . S
Tb697 O719 2.324 . S
Eu698 O702 2.292 . S
Eu698 C703 2.852 . S
Eu698 O714 2.324 . S
Eu698 O718 2.326 . S
Eu698 O720 2.500 . S
Eu698 O721 2.473 . S
C699 O696 1.255 . S
C699 O700 1.247 . S
O700 C699 1.247 . S
C701 O713 1.242 . S
C701 O714 1.258 . S
O702 Eu698 2.292 . S
O702 C704 1.255 . S
C703 Eu698 2.852 . S
C703 C707 1.503 . S
C703 O720 1.273 . S
C703 O721 1.257 . S
C704 O702 1.255 . S
C704 O705 1.247 . S
O705 C704 1.247 . S
C706 O718 1.242 . S
C706 O719 1.258 . S
C707 C703 1.503 . S
C707 C708 1.379 . S
C707 C712 1.392 . S
C708 C707 1.379 . S
C708 C709 1.404 . S
C708 H722 0.929 . S
C709 C708 1.404 . S
C709 C710 1.389 . S
C710 C709 1.389 . S
C710 C711 1.399 . S
C710 H723 0.931 . S
C711 C710 1.399 . S
C711 C712 1.390 . S
C712 C707 1.392 . S
C712 C711 1.390 . S
C712 H724 0.929 . S
O713 Tb697 2.326 . S
O713 C701 1.242 . S
O714 Eu698 2.324 . S
O714 C701 1.258 . S
O715 Tb697 2.500 . S
O715 C717 1.273 . S
O716 Tb697 2.473 . S
O716 C717 1.257 . S
C717 O715 1.273 . S
C717 O716 1.257 . S
O718 Eu698 2.326 . S
O718 C706 1.242 . S
O719 Tb697 2.324 . S
O719 C706 1.258 . S
O720 Eu698 2.500 . S
O720 C703 1.273 . S
O721 Eu698 2.473 . S
O721 C703 1.257 . S
H722 C708 0.929 . S
H723 C710 0.931 . S
H724 C712 0.929 . S
O725 Tb726 2.292 . S
O725 C728 1.255 . S
Tb726 O725 2.292 . S
Tb726 O742 2.326 . S
Tb726 O744 2.500 . S
Tb726 O745 2.473 . S
Tb726 O748 2.324 . S
Eu727 O731 2.292 . S
Eu727 C732 2.852 . S
Eu727 O743 2.324 . S
Eu727 O747 2.326 . S
Eu727 O749 2.500 . S
Eu727 O750 2.473 . S
C728 O725 1.255 . S
C728 O729 1.247 . S
O729 C728 1.247 . S
C730 O742 1.242 . S
C730 O743 1.258 . S
O731 Eu727 2.292 . S
O731 C733 1.255 . S
C732 Eu727 2.852 . S
C732 C736 1.503 . S
C732 O749 1.273 . S
C732 O750 1.257 . S
C733 O731 1.255 . S
C733 O734 1.247 . S
O734 C733 1.247 . S
C735 O747 1.242 . S
C735 O748 1.258 . S
C736 C732 1.503 . S
C736 C737 1.379 . S
C736 C741 1.392 . S
C737 C736 1.379 . S
C737 C738 1.404 . S
C737 H751 0.929 . S
C738 C737 1.404 . S
C738 C739 1.389 . S
C739 C738 1.389 . S
C739 C740 1.399 . S
C739 H752 0.931 . S
C740 C739 1.399 . S
C740 C741 1.390 . S
C741 C736 1.392 . S
C741 C740 1.390 . S
C741 H753 0.929 . S
O742 Tb726 2.326 . S
O742 C730 1.242 . S
O743 Eu727 2.324 . S
O743 C730 1.258 . S
O744 Tb726 2.500 . S
O744 C746 1.273 . S
O745 Tb726 2.473 . S
O745 C746 1.257 . S
C746 O744 1.273 . S
C746 O745 1.257 . S
O747 Eu727 2.326 . S
O747 C735 1.242 . S
O748 Tb726 2.324 . S
O748 C735 1.258 . S
O749 Eu727 2.500 . S
O749 C732 1.273 . S
O750 Eu727 2.473 . S
O750 C732 1.257 . S
H751 C737 0.929 . S
H752 C739 0.931 . S
H753 C741 0.929 . S
O754 Tb755 2.292 . S
O754 C757 1.255 . S
Tb755 O754 2.292 . S
Tb755 O771 2.326 . S
Tb755 O773 2.500 . S
Tb755 O774 2.473 . S
Tb755 O777 2.324 . S
Eu756 O760 2.292 . S
Eu756 C761 2.852 . S
Eu756 O772 2.324 . S
Eu756 O776 2.326 . S
Eu756 O778 2.500 . S
Eu756 O779 2.473 . S
C757 O754 1.255 . S
C757 O758 1.247 . S
O758 C757 1.247 . S
C759 O771 1.242 . S
C759 O772 1.258 . S
O760 Eu756 2.292 . S
O760 C762 1.255 . S
C761 Eu756 2.852 . S
C761 C765 1.503 . S
C761 O778 1.273 . S
C761 O779 1.257 . S
C762 O760 1.255 . S
C762 O763 1.247 . S
O763 C762 1.247 . S
C764 O776 1.242 . S
C764 O777 1.258 . S
C765 C761 1.503 . S
C765 C766 1.379 . S
C765 C770 1.392 . S
C766 C765 1.379 . S
C766 C767 1.404 . S
C766 H780 0.929 . S
C767 C766 1.404 . S
C767 C768 1.389 . S
C768 C767 1.389 . S
C768 C769 1.399 . S
C768 H781 0.931 . S
C769 C768 1.399 . S
C769 C770 1.390 . S
C770 C765 1.392 . S
C770 C769 1.390 . S
C770 H782 0.929 . S
O771 Tb755 2.326 . S
O771 C759 1.242 . S
O772 Eu756 2.324 . S
O772 C759 1.258 . S
O773 Tb755 2.500 . S
O773 C775 1.273 . S
O774 Tb755 2.473 . S
O774 C775 1.257 . S
C775 O773 1.273 . S
C775 O774 1.257 . S
O776 Eu756 2.326 . S
O776 C764 1.242 . S
O777 Tb755 2.324 . S
O777 C764 1.258 . S
O778 Eu756 2.500 . S
O778 C761 1.273 . S
O779 Eu756 2.473 . S
O779 C761 1.257 . S
H780 C766 0.929 . S
H781 C768 0.931 . S
H782 C770 0.929 . S
O783 Tb784 2.292 . S
O783 C786 1.255 . S
Tb784 O783 2.292 . S
Tb784 O800 2.326 . S
Tb784 O802 2.500 . S
Tb784 O803 2.473 . S
Tb784 O806 2.324 . S
Eu785 O789 2.292 . S
Eu785 C790 2.852 . S
Eu785 O801 2.324 . S
Eu785 O805 2.326 . S
Eu785 O807 2.500 . S
Eu785 O808 2.473 . S
C786 O783 1.255 . S
C786 O787 1.247 . S
O787 C786 1.247 . S
C788 O800 1.242 . S
C788 O801 1.258 . S
O789 Eu785 2.292 . S
O789 C791 1.255 . S
C790 Eu785 2.852 . S
C790 C794 1.503 . S
C790 O807 1.273 . S
C790 O808 1.257 . S
C791 O789 1.255 . S
C791 O792 1.247 . S
O792 C791 1.247 . S
C793 O805 1.242 . S
C793 O806 1.258 . S
C794 C790 1.503 . S
C794 C795 1.379 . S
C794 C799 1.392 . S
C795 C794 1.379 . S
C795 C796 1.404 . S
C795 H809 0.929 . S
C796 C795 1.404 . S
C796 C797 1.389 . S
C797 C796 1.389 . S
C797 C798 1.399 . S
C797 H810 0.931 . S
C798 C797 1.399 . S
C798 C799 1.390 . S
C799 C794 1.392 . S
C799 C798 1.390 . S
C799 H811 0.929 . S
O800 Tb784 2.326 . S
O800 C788 1.242 . S
O801 Eu785 2.324 . S
O801 C788 1.258 . S
O802 Tb784 2.500 . S
O802 C804 1.273 . S
O803 Tb784 2.473 . S
O803 C804 1.257 . S
C804 O802 1.273 . S
C804 O803 1.257 . S
O805 Eu785 2.326 . S
O805 C793 1.242 . S
O806 Tb784 2.324 . S
O806 C793 1.258 . S
O807 Eu785 2.500 . S
O807 C790 1.273 . S
O808 Eu785 2.473 . S
O808 C790 1.257 . S
H809 C795 0.929 . S
H810 C797 0.931 . S
H811 C799 0.929 . S
O812 Tb813 2.292 . S
O812 C815 1.255 . S
Tb813 O812 2.292 . S
Tb813 O829 2.326 . S
Tb813 O831 2.500 . S
Tb813 O832 2.473 . S
Tb813 O835 2.324 . S
Eu814 O818 2.292 . S
Eu814 C819 2.852 . S
Eu814 O830 2.324 . S
Eu814 O834 2.326 . S
Eu814 O836 2.500 . S
Eu814 O837 2.473 . S
C815 O812 1.255 . S
C815 O816 1.247 . S
O816 C815 1.247 . S
C817 O829 1.242 . S
C817 O830 1.258 . S
O818 Eu814 2.292 . S
O818 C820 1.255 . S
C819 Eu814 2.852 . S
C819 C823 1.503 . S
C819 O836 1.273 . S
C819 O837 1.257 . S
C820 O818 1.255 . S
C820 O821 1.247 . S
O821 C820 1.247 . S
C822 O834 1.242 . S
C822 O835 1.258 . S
C823 C819 1.503 . S
C823 C824 1.379 . S
C823 C828 1.392 . S
C824 C823 1.379 . S
C824 C825 1.404 . S
C824 H838 0.929 . S
C825 C824 1.404 . S
C825 C826 1.389 . S
C826 C825 1.389 . S
C826 C827 1.399 . S
C826 H839 0.931 . S
C827 C826 1.399 . S
C827 C828 1.390 . S
C828 C823 1.392 . S
C828 C827 1.390 . S
C828 H840 0.929 . S
O829 Tb813 2.326 . S
O829 C817 1.242 . S
O830 Eu814 2.324 . S
O830 C817 1.258 . S
O831 Tb813 2.500 . S
O831 C833 1.273 . S
O832 Tb813 2.473 . S
O832 C833 1.257 . S
C833 O831 1.273 . S
C833 O832 1.257 . S
O834 Eu814 2.326 . S
O834 C822 1.242 . S
O835 Tb813 2.324 . S
O835 C822 1.258 . S
O836 Eu814 2.500 . S
O836 C819 1.273 . S
O837 Eu814 2.473 . S
O837 C819 1.257 . S
H838 C824 0.929 . S
H839 C826 0.931 . S
H840 C828 0.929 . S
O841 Tb842 2.292 . S
O841 C844 1.255 . S
Tb842 O841 2.292 . S
Tb842 O858 2.326 . S
Tb842 O860 2.500 . S
Tb842 O861 2.473 . S
Tb842 O864 2.324 . S
Eu843 O847 2.292 . S
Eu843 C848 2.852 . S
Eu843 O859 2.324 . S
Eu843 O863 2.326 . S
Eu843 O865 2.500 . S
Eu843 O866 2.473 . S
C844 O841 1.255 . S
C844 O845 1.247 . S
O845 C844 1.247 . S
C846 O858 1.242 . S
C846 O859 1.258 . S
O847 Eu843 2.292 . S
O847 C849 1.255 . S
C848 Eu843 2.852 . S
C848 C852 1.503 . S
C848 O865 1.273 . S
C848 O866 1.257 . S
C849 O847 1.255 . S
C849 O850 1.247 . S
O850 C849 1.247 . S
C851 O863 1.242 . S
C851 O864 1.258 . S
C852 C848 1.503 . S
C852 C853 1.379 . S
C852 C857 1.392 . S
C853 C852 1.379 . S
C853 C854 1.404 . S
C853 H867 0.929 . S
C854 C853 1.404 . S
C854 C855 1.389 . S
C855 C854 1.389 . S
C855 C856 1.399 . S
C855 H868 0.931 . S
C856 C855 1.399 . S
C856 C857 1.390 . S
C857 C852 1.392 . S
C857 C856 1.390 . S
C857 H869 0.929 . S
O858 Tb842 2.326 . S
O858 C846 1.242 . S
O859 Eu843 2.324 . S
O859 C846 1.258 . S
O860 Tb842 2.500 . S
O860 C862 1.273 . S
O861 Tb842 2.473 . S
O861 C862 1.257 . S
C862 O860 1.273 . S
C862 O861 1.257 . S
O863 Eu843 2.326 . S
O863 C851 1.242 . S
O864 Tb842 2.324 . S
O864 C851 1.258 . S
O865 Eu843 2.500 . S
O865 C848 1.273 . S
O866 Eu843 2.473 . S
O866 C848 1.257 . S
H867 C853 0.929 . S
H868 C855 0.931 . S
H869 C857 0.929 . S
O870 Tb871 2.292 . S
O870 C873 1.255 . S
Tb871 O870 2.292 . S
Tb871 O887 2.326 . S
Tb871 O889 2.500 . S
Tb871 O890 2.473 . S
Tb871 O893 2.324 . S
Eu872 O876 2.292 . S
Eu872 C877 2.852 . S
Eu872 O888 2.324 . S
Eu872 O892 2.326 . S
Eu872 O894 2.500 . S
Eu872 O895 2.473 . S
C873 O870 1.255 . S
C873 O874 1.247 . S
O874 C873 1.247 . S
C875 O887 1.242 . S
C875 O888 1.258 . S
O876 Eu872 2.292 . S
O876 C878 1.255 . S
C877 Eu872 2.852 . S
C877 C881 1.503 . S
C877 O894 1.273 . S
C877 O895 1.257 . S
C878 O876 1.255 . S
C878 O879 1.247 . S
O879 C878 1.247 . S
C880 O892 1.242 . S
C880 O893 1.258 . S
C881 C877 1.503 . S
C881 C882 1.379 . S
C881 C886 1.392 . S
C882 C881 1.379 . S
C882 C883 1.404 . S
C882 H896 0.929 . S
C883 C882 1.404 . S
C883 C884 1.389 . S
C884 C883 1.389 . S
C884 C885 1.399 . S
C884 H897 0.931 . S
C885 C884 1.399 . S
C885 C886 1.390 . S
C886 C881 1.392 . S
C886 C885 1.390 . S
C886 H898 0.929 . S
O887 Tb871 2.326 . S
O887 C875 1.242 . S
O888 Eu872 2.324 . S
O888 C875 1.258 . S
O889 Tb871 2.500 . S
O889 C891 1.273 . S
O890 Tb871 2.473 . S
O890 C891 1.257 . S
C891 O889 1.273 . S
C891 O890 1.257 . S
O892 Eu872 2.326 . S
O892 C880 1.242 . S
O893 Tb871 2.324 . S
O893 C880 1.258 . S
O894 Eu872 2.500 . S
O894 C877 1.273 . S
O895 Eu872 2.473 . S
O895 C877 1.257 . S
H896 C882 0.929 . S
H897 C884 0.931 . S
H898 C886 0.929 . S
O899 Tb900 2.292 . S
O899 C902 1.255 . S
Tb900 O899 2.292 . S
Tb900 O916 2.326 . S
Tb900 O918 2.500 . S
Tb900 O919 2.473 . S
Tb900 O922 2.324 . S
Eu901 O905 2.292 . S
Eu901 C906 2.852 . S
Eu901 O917 2.324 . S
Eu901 O921 2.326 . S
Eu901 O923 2.500 . S
Eu901 O924 2.473 . S
C902 O899 1.255 . S
C902 O903 1.247 . S
O903 C902 1.247 . S
C904 O916 1.242 . S
C904 O917 1.258 . S
O905 Eu901 2.292 . S
O905 C907 1.255 . S
C906 Eu901 2.852 . S
C906 C910 1.503 . S
C906 O923 1.273 . S
C906 O924 1.257 . S
C907 O905 1.255 . S
C907 O908 1.247 . S
O908 C907 1.247 . S
C909 O921 1.242 . S
C909 O922 1.258 . S
C910 C906 1.503 . S
C910 C911 1.379 . S
C910 C915 1.392 . S
C911 C910 1.379 . S
C911 C912 1.404 . S
C911 H925 0.929 . S
C912 C911 1.404 . S
C912 C913 1.389 . S
C913 C912 1.389 . S
C913 C914 1.399 . S
C913 H926 0.931 . S
C914 C913 1.399 . S
C914 C915 1.390 . S
C915 C910 1.392 . S
C915 C914 1.390 . S
C915 H927 0.929 . S
O916 Tb900 2.326 . S
O916 C904 1.242 . S
O917 Eu901 2.324 . S
O917 C904 1.258 . S
O918 Tb900 2.500 . S
O918 C920 1.273 . S
O919 Tb900 2.473 . S
O919 C920 1.257 . S
C920 O918 1.273 . S
C920 O919 1.257 . S
O921 Eu901 2.326 . S
O921 C909 1.242 . S
O922 Tb900 2.324 . S
O922 C909 1.258 . S
O923 Eu901 2.500 . S
O923 C906 1.273 . S
O924 Eu901 2.473 . S
O924 C906 1.257 . S
H925 C911 0.929 . S
H926 C913 0.931 . S
H927 C915 0.929 . S
O928 Tb929 2.292 . S
O928 C931 1.255 . S
Tb929 O928 2.292 . S
Tb929 O945 2.326 . S
Tb929 O947 2.500 . S
Tb929 O948 2.473 . S
Tb929 O951 2.324 . S
Eu930 O934 2.292 . S
Eu930 C935 2.852 . S
Eu930 O946 2.324 . S
Eu930 O950 2.326 . S
Eu930 O952 2.500 . S
Eu930 O953 2.473 . S
C931 O928 1.255 . S
C931 O932 1.247 . S
O932 C931 1.247 . S
C933 O945 1.242 . S
C933 O946 1.258 . S
O934 Eu930 2.292 . S
O934 C936 1.255 . S
C935 Eu930 2.852 . S
C935 C939 1.503 . S
C935 O952 1.273 . S
C935 O953 1.257 . S
C936 O934 1.255 . S
C936 O937 1.247 . S
O937 C936 1.247 . S
C938 O950 1.242 . S
C938 O951 1.258 . S
C939 C935 1.503 . S
C939 C940 1.379 . S
C939 C944 1.392 . S
C940 C939 1.379 . S
C940 C941 1.404 . S
C940 H954 0.929 . S
C941 C940 1.404 . S
C941 C942 1.389 . S
C942 C941 1.389 . S
C942 C943 1.399 . S
C942 H955 0.931 . S
C943 C942 1.399 . S
C943 C944 1.390 . S
C944 C939 1.392 . S
C944 C943 1.390 . S
C944 H956 0.929 . S
O945 Tb929 2.326 . S
O945 C933 1.242 . S
O946 Eu930 2.324 . S
O946 C933 1.258 . S
O947 Tb929 2.500 . S
O947 C949 1.273 . S
O948 Tb929 2.473 . S
O948 C949 1.257 . S
C949 O947 1.273 . S
C949 O948 1.257 . S
O950 Eu930 2.326 . S
O950 C938 1.242 . S
O951 Tb929 2.324 . S
O951 C938 1.258 . S
O952 Eu930 2.500 . S
O952 C935 1.273 . S
O953 Eu930 2.473 . S
O953 C935 1.257 . S
H954 C940 0.929 . S
H955 C942 0.931 . S
H956 C944 0.929 . S
O957 Tb958 2.292 . S
O957 C960 1.255 . S
Tb958 O957 2.292 . S
Tb958 O974 2.326 . S
Tb958 O976 2.500 . S
Tb958 O977 2.473 . S
Tb958 O980 2.324 . S
Eu959 O963 2.292 1_565 S
Eu959 C964 2.852 . S
Eu959 O975 2.324 . S
Eu959 O979 2.326 . S
Eu959 O981 2.500 1_565 S
Eu959 O982 2.473 . S
C960 O957 1.255 . S
C960 O961 1.247 . S
O961 C960 1.247 . S
C962 O974 1.242 . S
C962 O975 1.258 . S
O963 Eu959 2.292 1_545 S
O963 C965 1.255 . S
C964 Eu959 2.852 . S
C964 C968 1.503 . S
C964 O981 1.273 1_565 S
C964 O982 1.257 . S
C965 O963 1.255 . S
C965 O966 1.247 1_545 S
O966 C965 1.247 1_565 S
C967 O979 1.242 . S
C967 O980 1.258 . S
C968 C964 1.503 . S
C968 C969 1.379 . S
C968 C973 1.382 1_565 S
C969 C968 1.379 . S
C969 C970 1.404 . S
C969 H983 0.929 . S
C970 C969 1.404 . S
C970 C971 1.389 . S
C971 C970 1.389 . S
C971 C972 1.425 . S
C971 H984 0.931 . S
C972 C971 1.425 . S
C972 C973 1.388 1_565 S
C973 C968 1.382 1_545 S
C973 C972 1.388 1_545 S
C973 H985 0.940 . S
O974 Tb958 2.326 . S
O974 C962 1.242 . S
O975 Eu959 2.324 . S
O975 C962 1.258 . S
O976 Tb958 2.500 . S
O976 C978 1.273 . S
O977 Tb958 2.473 . S
O977 C978 1.257 . S
C978 O976 1.273 . S
C978 O977 1.257 . S
O979 Eu959 2.326 . S
O979 C967 1.242 . S
O980 Tb958 2.324 . S
O980 C967 1.258 . S
O981 Eu959 2.500 1_545 S
O981 C964 1.273 1_545 S
O982 Eu959 2.473 . S
O982 C964 1.257 . S
H983 C969 0.929 . S
H984 C971 0.931 . S
H985 C973 0.940 . S
O986 Tb987 2.292 . S
O986 C989 1.255 . S
Tb987 O986 2.292 . S
Tb987 O1003 2.326 . S
Tb987 O1005 2.500 . S
Tb987 O1006 2.473 . S
Tb987 O1009 2.324 . S
Eu988 O992 2.292 . S
Eu988 C993 2.852 . S
Eu988 O1004 2.324 . S
Eu988 O1008 2.326 . S
Eu988 O1010 2.500 . S
Eu988 O1011 2.473 . S
C989 O986 1.255 . S
C989 O990 1.247 . S
O990 C989 1.247 . S
C991 O1003 1.242 . S
C991 O1004 1.258 . S
O992 Eu988 2.292 . S
O992 C994 1.255 . S
C993 Eu988 2.852 . S
C993 C997 1.503 . S
C993 O1010 1.273 . S
C993 O1011 1.257 . S
C994 O992 1.255 . S
C994 O995 1.247 . S
O995 C994 1.247 . S
C996 O1008 1.242 . S
C996 O1009 1.258 . S
C997 C993 1.503 . S
C997 C998 1.379 . S
C997 C1002 1.392 . S
C998 C997 1.379 . S
C998 C999 1.404 . S
C998 H1012 0.929 . S
C999 C998 1.404 . S
C999 C1000 1.389 . S
C1000 C999 1.389 . S
C1000 C1001 1.399 . S
C1000 H1013 0.931 . S
C1001 C1000 1.399 . S
C1001 C1002 1.390 . S
C1002 C997 1.392 . S
C1002 C1001 1.390 . S
C1002 H1014 0.929 . S
O1003 Tb987 2.326 . S
O1003 C991 1.242 . S
O1004 Eu988 2.324 . S
O1004 C991 1.258 . S
O1005 Tb987 2.500 . S
O1005 C1007 1.273 . S
O1006 Tb987 2.473 . S
O1006 C1007 1.257 . S
C1007 O1005 1.273 . S
C1007 O1006 1.257 . S
O1008 Eu988 2.326 . S
O1008 C996 1.242 . S
O1009 Tb987 2.324 . S
O1009 C996 1.258 . S
O1010 Eu988 2.500 . S
O1010 C993 1.273 . S
O1011 Eu988 2.473 . S
O1011 C993 1.257 . S
H1012 C998 0.929 . S
H1013 C1000 0.931 . S
H1014 C1002 0.929 . S
O1015 Tb1016 2.292 . S
O1015 C1018 1.255 . S
Tb1016 O1015 2.292 . S
Tb1016 O1032 2.326 . S
Tb1016 O1034 2.500 . S
Tb1016 O1035 2.473 . S
Tb1016 O1038 2.324 . S
Eu1017 O1021 2.292 . S
Eu1017 C1022 2.852 . S
Eu1017 O1033 2.324 . S
Eu1017 O1037 2.326 . S
Eu1017 O1039 2.500 . S
Eu1017 O1040 2.473 . S
C1018 O1015 1.255 . S
C1018 O1019 1.247 . S
O1019 C1018 1.247 . S
C1020 O1032 1.242 . S
C1020 O1033 1.258 . S
O1021 Eu1017 2.292 . S
O1021 C1023 1.255 . S
C1022 Eu1017 2.852 . S
C1022 C1026 1.503 . S
C1022 O1039 1.273 . S
C1022 O1040 1.257 . S
C1023 O1021 1.255 . S
C1023 O1024 1.247 . S
O1024 C1023 1.247 . S
C1025 O1037 1.242 . S
C1025 O1038 1.258 . S
C1026 C1022 1.503 . S
C1026 C1027 1.379 . S
C1026 C1031 1.392 . S
C1027 C1026 1.379 . S
C1027 C1028 1.404 . S
C1027 H1041 0.929 . S
C1028 C1027 1.404 . S
C1028 C1029 1.389 . S
C1029 C1028 1.389 . S
C1029 C1030 1.399 . S
C1029 H1042 0.931 . S
C1030 C1029 1.399 . S
C1030 C1031 1.390 . S
C1031 C1026 1.392 . S
C1031 C1030 1.390 . S
C1031 H1043 0.929 . S
O1032 Tb1016 2.326 . S
O1032 C1020 1.242 . S
O1033 Eu1017 2.324 . S
O1033 C1020 1.258 . S
O1034 Tb1016 2.500 . S
O1034 C1036 1.273 . S
O1035 Tb1016 2.473 . S
O1035 C1036 1.257 . S
C1036 O1034 1.273 . S
C1036 O1035 1.257 . S
O1037 Eu1017 2.326 . S
O1037 C1025 1.242 . S
O1038 Tb1016 2.324 . S
O1038 C1025 1.258 . S
O1039 Eu1017 2.500 . S
O1039 C1022 1.273 . S
O1040 Eu1017 2.473 . S
O1040 C1022 1.257 . S
H1041 C1027 0.929 . S
H1042 C1029 0.931 . S
H1043 C1031 0.929 . S
O1044 Tb1045 2.292 . S
O1044 C1047 1.255 . S
Tb1045 O1044 2.292 . S
Tb1045 O1061 2.326 . S
Tb1045 O1063 2.500 . S
Tb1045 O1064 2.473 . S
Tb1045 O1067 2.324 . S
Eu1046 O1050 2.292 . S
Eu1046 C1051 2.852 . S
Eu1046 O1062 2.324 . S
Eu1046 O1066 2.326 . S
Eu1046 O1068 2.500 . S
Eu1046 O1069 2.473 . S
C1047 O1044 1.255 . S
C1047 O1048 1.247 . S
O1048 C1047 1.247 . S
C1049 O1061 1.242 . S
C1049 O1062 1.258 . S
O1050 Eu1046 2.292 . S
O1050 C1052 1.255 . S
C1051 Eu1046 2.852 . S
C1051 C1055 1.503 . S
C1051 O1068 1.273 . S
C1051 O1069 1.257 . S
C1052 O1050 1.255 . S
C1052 O1053 1.247 . S
O1053 C1052 1.247 . S
C1054 O1066 1.242 . S
C1054 O1067 1.258 . S
C1055 C1051 1.503 . S
C1055 C1056 1.379 . S
C1055 C1060 1.392 . S
C1056 C1055 1.379 . S
C1056 C1057 1.404 . S
C1056 H1070 0.929 . S
C1057 C1056 1.404 . S
C1057 C1058 1.389 . S
C1058 C1057 1.389 . S
C1058 C1059 1.399 . S
C1058 H1071 0.931 . S
C1059 C1058 1.399 . S
C1059 C1060 1.390 . S
C1060 C1055 1.392 . S
C1060 C1059 1.390 . S
C1060 H1072 0.929 . S
O1061 Tb1045 2.326 . S
O1061 C1049 1.242 . S
O1062 Eu1046 2.324 . S
O1062 C1049 1.258 . S
O1063 Tb1045 2.500 . S
O1063 C1065 1.273 . S
O1064 Tb1045 2.473 . S
O1064 C1065 1.257 . S
C1065 O1063 1.273 . S
C1065 O1064 1.257 . S
O1066 Eu1046 2.326 . S
O1066 C1054 1.242 . S
O1067 Tb1045 2.324 . S
O1067 C1054 1.258 . S
O1068 Eu1046 2.500 . S
O1068 C1051 1.273 . S
O1069 Eu1046 2.473 . S
O1069 C1051 1.257 . S
H1070 C1056 0.929 . S
H1071 C1058 0.931 . S
H1072 C1060 0.929 . S
O1073 Tb1074 2.292 . S
O1073 C1076 1.255 . S
Tb1074 O1073 2.292 . S
Tb1074 O1090 2.326 . S
Tb1074 O1092 2.500 . S
Tb1074 O1093 2.473 . S
Tb1074 O1096 2.324 . S
Eu1075 O1079 2.292 1_565 S
Eu1075 C1080 2.852 . S
Eu1075 O1091 2.324 . S
Eu1075 O1095 2.326 . S
Eu1075 O1097 2.500 1_565 S
Eu1075 O1098 2.473 . S
C1076 O1073 1.255 . S
C1076 O1077 1.247 . S
O1077 C1076 1.247 . S
C1078 O1090 1.242 . S
C1078 O1091 1.258 . S
O1079 Eu1075 2.292 1_545 S
O1079 C1081 1.255 . S
C1080 Eu1075 2.852 . S
C1080 C1084 1.503 . S
C1080 O1097 1.273 1_565 S
C1080 O1098 1.257 . S
C1081 O1079 1.255 . S
C1081 O1082 1.247 1_545 S
O1082 C1081 1.247 1_565 S
C1083 O1095 1.242 . S
C1083 O1096 1.258 . S
C1084 C1080 1.503 . S
C1084 C1085 1.379 . S
C1084 C1089 1.382 1_565 S
C1085 C1084 1.379 . S
C1085 C1086 1.404 . S
C1085 H1099 0.929 . S
C1086 C1085 1.404 . S
C1086 C1087 1.389 . S
C1087 C1086 1.389 . S
C1087 C1088 1.425 . S
C1087 H1100 0.931 . S
C1088 C1087 1.425 . S
C1088 C1089 1.388 1_565 S
C1089 C1084 1.382 1_545 S
C1089 C1088 1.388 1_545 S
C1089 H1101 0.940 . S
O1090 Tb1074 2.326 . S
O1090 C1078 1.242 . S
O1091 Eu1075 2.324 . S
O1091 C1078 1.258 . S
O1092 Tb1074 2.500 . S
O1092 C1094 1.273 . S
O1093 Tb1074 2.473 . S
O1093 C1094 1.257 . S
C1094 O1092 1.273 . S
C1094 O1093 1.257 . S
O1095 Eu1075 2.326 . S
O1095 C1083 1.242 . S
O1096 Tb1074 2.324 . S
O1096 C1083 1.258 . S
O1097 Eu1075 2.500 1_545 S
O1097 C1080 1.273 1_545 S
O1098 Eu1075 2.473 . S
O1098 C1080 1.257 . S
H1099 C1085 0.929 . S
H1100 C1087 0.931 . S
H1101 C1089 0.940 . S
O1102 Tb1103 2.292 . S
O1102 C1105 1.255 . S
Tb1103 O1102 2.292 . S
Tb1103 O1119 2.326 . S
Tb1103 O1121 2.500 . S
Tb1103 O1122 2.473 . S
Tb1103 O1125 2.324 . S
Eu1104 O1108 2.292 . S
Eu1104 C1109 2.852 . S
Eu1104 O1120 2.324 . S
Eu1104 O1124 2.326 . S
Eu1104 O1126 2.500 . S
Eu1104 O1127 2.473 . S
C1105 O1102 1.255 . S
C1105 O1106 1.247 . S
O1106 C1105 1.247 . S
C1107 O1119 1.242 . S
C1107 O1120 1.258 . S
O1108 Eu1104 2.292 . S
O1108 C1110 1.255 . S
C1109 Eu1104 2.852 . S
C1109 C1113 1.503 . S
C1109 O1126 1.273 . S
C1109 O1127 1.257 . S
C1110 O1108 1.255 . S
C1110 O1111 1.247 . S
O1111 C1110 1.247 . S
C1112 O1124 1.242 . S
C1112 O1125 1.258 . S
C1113 C1109 1.503 . S
C1113 C1114 1.379 . S
C1113 C1118 1.392 . S
C1114 C1113 1.379 . S
C1114 C1115 1.404 . S
C1114 H1128 0.929 . S
C1115 C1114 1.404 . S
C1115 C1116 1.389 . S
C1116 C1115 1.389 . S
C1116 C1117 1.399 . S
C1116 H1129 0.931 . S
C1117 C1116 1.399 . S
C1117 C1118 1.390 . S
C1118 C1113 1.392 . S
C1118 C1117 1.390 . S
C1118 H1130 0.929 . S
O1119 Tb1103 2.326 . S
O1119 C1107 1.242 . S
O1120 Eu1104 2.324 . S
O1120 C1107 1.258 . S
O1121 Tb1103 2.500 . S
O1121 C1123 1.273 . S
O1122 Tb1103 2.473 . S
O1122 C1123 1.257 . S
C1123 O1121 1.273 . S
C1123 O1122 1.257 . S
O1124 Eu1104 2.326 . S
O1124 C1112 1.242 . S
O1125 Tb1103 2.324 . S
O1125 C1112 1.258 . S
O1126 Eu1104 2.500 . S
O1126 C1109 1.273 . S
O1127 Eu1104 2.473 . S
O1127 C1109 1.257 . S
H1128 C1114 0.929 . S
H1129 C1116 0.931 . S
H1130 C1118 0.929 . S
O1131 Tb1132 2.292 . S
O1131 C1134 1.255 . S
Tb1132 O1131 2.292 . S
Tb1132 O1148 2.326 . S
Tb1132 O1150 2.500 . S
Tb1132 O1151 2.473 . S
Tb1132 O1154 2.324 . S
Eu1133 O1137 2.292 . S
Eu1133 C1138 2.852 . S
Eu1133 O1149 2.324 . S
Eu1133 O1153 2.326 . S
Eu1133 O1155 2.500 . S
Eu1133 O1156 2.473 . S
C1134 O1131 1.255 . S
C1134 O1135 1.247 . S
O1135 C1134 1.247 . S
C1136 O1148 1.242 . S
C1136 O1149 1.258 . S
O1137 Eu1133 2.292 . S
O1137 C1139 1.255 . S
C1138 Eu1133 2.852 . S
C1138 C1142 1.503 . S
C1138 O1155 1.273 . S
C1138 O1156 1.257 . S
C1139 O1137 1.255 . S
C1139 O1140 1.247 . S
O1140 C1139 1.247 . S
C1141 O1153 1.242 . S
C1141 O1154 1.258 . S
C1142 C1138 1.503 . S
C1142 C1143 1.379 . S
C1142 C1147 1.392 . S
C1143 C1142 1.379 . S
C1143 C1144 1.404 . S
C1143 H1157 0.929 . S
C1144 C1143 1.404 . S
C1144 C1145 1.389 . S
C1145 C1144 1.389 . S
C1145 C1146 1.399 . S
C1145 H1158 0.931 . S
C1146 C1145 1.399 . S
C1146 C1147 1.390 . S
C1147 C1142 1.392 . S
C1147 C1146 1.390 . S
C1147 H1159 0.929 . S
O1148 Tb1132 2.326 . S
O1148 C1136 1.242 . S
O1149 Eu1133 2.324 . S
O1149 C1136 1.258 . S
O1150 Tb1132 2.500 . S
O1150 C1152 1.273 . S
O1151 Tb1132 2.473 . S
O1151 C1152 1.257 . S
C1152 O1150 1.273 . S
C1152 O1151 1.257 . S
O1153 Eu1133 2.326 . S
O1153 C1141 1.242 . S
O1154 Tb1132 2.324 . S
O1154 C1141 1.258 . S
O1155 Eu1133 2.500 . S
O1155 C1138 1.273 . S
O1156 Eu1133 2.473 . S
O1156 C1138 1.257 . S
H1157 C1143 0.929 . S
H1158 C1145 0.931 . S
H1159 C1147 0.929 . S
O1160 Tb1161 2.292 . S
O1160 C1163 1.255 . S
Tb1161 O1160 2.292 . S
Tb1161 O1177 2.326 . S
Tb1161 O1179 2.500 . S
Tb1161 O1180 2.473 . S
Tb1161 O1183 2.324 . S
Eu1162 O1166 2.292 . S
Eu1162 C1167 2.852 . S
Eu1162 O1178 2.324 . S
Eu1162 O1182 2.326 . S
Eu1162 O1184 2.500 . S
Eu1162 O1185 2.473 . S
C1163 O1160 1.255 . S
C1163 O1164 1.247 . S
O1164 C1163 1.247 . S
C1165 O1177 1.242 . S
C1165 O1178 1.258 . S
O1166 Eu1162 2.292 . S
O1166 C1168 1.255 . S
C1167 Eu1162 2.852 . S
C1167 C1171 1.503 . S
C1167 O1184 1.273 . S
C1167 O1185 1.257 . S
C1168 O1166 1.255 . S
C1168 O1169 1.247 . S
O1169 C1168 1.247 . S
C1170 O1182 1.242 . S
C1170 O1183 1.258 . S
C1171 C1167 1.503 . S
C1171 C1172 1.379 . S
C1171 C1176 1.392 . S
C1172 C1171 1.379 . S
C1172 C1173 1.404 . S
C1172 H1186 0.929 . S
C1173 C1172 1.404 . S
C1173 C1174 1.389 . S
C1174 C1173 1.389 . S
C1174 C1175 1.399 . S
C1174 H1187 0.931 . S
C1175 C1174 1.399 . S
C1175 C1176 1.390 . S
C1176 C1171 1.392 . S
C1176 C1175 1.390 . S
C1176 H1188 0.929 . S
O1177 Tb1161 2.326 . S
O1177 C1165 1.242 . S
O1178 Eu1162 2.324 . S
O1178 C1165 1.258 . S
O1179 Tb1161 2.500 . S
O1179 C1181 1.273 . S
O1180 Tb1161 2.473 . S
O1180 C1181 1.257 . S
C1181 O1179 1.273 . S
C1181 O1180 1.257 . S
O1182 Eu1162 2.326 . S
O1182 C1170 1.242 . S
O1183 Tb1161 2.324 . S
O1183 C1170 1.258 . S
O1184 Eu1162 2.500 . S
O1184 C1167 1.273 . S
O1185 Eu1162 2.473 . S
O1185 C1167 1.257 . S
H1186 C1172 0.929 . S
H1187 C1174 0.931 . S
H1188 C1176 0.929 . S
O1189 Tb1190 2.292 . S
O1189 C1192 1.255 . S
Tb1190 O1189 2.292 . S
Tb1190 O1206 2.326 . S
Tb1190 O1208 2.500 . S
Tb1190 O1209 2.473 . S
Tb1190 O1212 2.324 . S
Eu1191 O1195 2.292 . S
Eu1191 C1196 2.852 . S
Eu1191 O1207 2.324 . S
Eu1191 O1211 2.326 . S
Eu1191 O1213 2.500 . S
Eu1191 O1214 2.473 . S
C1192 O1189 1.255 . S
C1192 O1193 1.247 . S
O1193 C1192 1.247 . S
C1194 O1206 1.242 . S
C1194 O1207 1.258 . S
O1195 Eu1191 2.292 . S
O1195 C1197 1.255 . S
C1196 Eu1191 2.852 . S
C1196 C1200 1.503 . S
C1196 O1213 1.273 . S
C1196 O1214 1.257 . S
C1197 O1195 1.255 . S
C1197 O1198 1.247 . S
O1198 C1197 1.247 . S
C1199 O1211 1.242 . S
C1199 O1212 1.258 . S
C1200 C1196 1.503 . S
C1200 C1201 1.379 . S
C1200 C1205 1.392 . S
C1201 C1200 1.379 . S
C1201 C1202 1.404 . S
C1201 H1215 0.929 . S
C1202 C1201 1.404 . S
C1202 C1203 1.389 . S
C1203 C1202 1.389 . S
C1203 C1204 1.399 . S
C1203 H1216 0.931 . S
C1204 C1203 1.399 . S
C1204 C1205 1.390 . S
C1205 C1200 1.392 . S
C1205 C1204 1.390 . S
C1205 H1217 0.929 . S
O1206 Tb1190 2.326 . S
O1206 C1194 1.242 . S
O1207 Eu1191 2.324 . S
O1207 C1194 1.258 . S
O1208 Tb1190 2.500 . S
O1208 C1210 1.273 . S
O1209 Tb1190 2.473 . S
O1209 C1210 1.257 . S
C1210 O1208 1.273 . S
C1210 O1209 1.257 . S
O1211 Eu1191 2.326 . S
O1211 C1199 1.242 . S
O1212 Tb1190 2.324 . S
O1212 C1199 1.258 . S
O1213 Eu1191 2.500 . S
O1213 C1196 1.273 . S
O1214 Eu1191 2.473 . S
O1214 C1196 1.257 . S
H1215 C1201 0.929 . S
H1216 C1203 0.931 . S
H1217 C1205 0.929 . S
O1218 Tb1219 2.292 . S
O1218 C1221 1.255 . S
Tb1219 O1218 2.292 . S
Tb1219 O1235 2.326 . S
Tb1219 O1237 2.500 . S
Tb1219 O1238 2.473 . S
Tb1219 O1241 2.324 . S
Eu1220 O1224 2.292 . S
Eu1220 C1225 2.852 . S
Eu1220 O1236 2.324 . S
Eu1220 O1240 2.326 . S
Eu1220 O1242 2.500 . S
Eu1220 O1243 2.473 . S
C1221 O1218 1.255 . S
C1221 O1222 1.247 . S
O1222 C1221 1.247 . S
C1223 O1235 1.242 . S
C1223 O1236 1.258 . S
O1224 Eu1220 2.292 . S
O1224 C1226 1.255 . S
C1225 Eu1220 2.852 . S
C1225 C1229 1.503 . S
C1225 O1242 1.273 . S
C1225 O1243 1.257 . S
C1226 O1224 1.255 . S
C1226 O1227 1.247 . S
O1227 C1226 1.247 . S
C1228 O1240 1.242 . S
C1228 O1241 1.258 . S
C1229 C1225 1.503 . S
C1229 C1230 1.379 . S
C1229 C1234 1.392 . S
C1230 C1229 1.379 . S
C1230 C1231 1.404 . S
C1230 H1244 0.929 . S
C1231 C1230 1.404 . S
C1231 C1232 1.389 . S
C1232 C1231 1.389 . S
C1232 C1233 1.399 . S
C1232 H1245 0.931 . S
C1233 C1232 1.399 . S
C1233 C1234 1.390 . S
C1234 C1229 1.392 . S
C1234 C1233 1.390 . S
C1234 H1246 0.929 . S
O1235 Tb1219 2.326 . S
O1235 C1223 1.242 . S
O1236 Eu1220 2.324 . S
O1236 C1223 1.258 . S
O1237 Tb1219 2.500 . S
O1237 C1239 1.273 . S
O1238 Tb1219 2.473 . S
O1238 C1239 1.257 . S
C1239 O1237 1.273 . S
C1239 O1238 1.257 . S
O1240 Eu1220 2.326 . S
O1240 C1228 1.242 . S
O1241 Tb1219 2.324 . S
O1241 C1228 1.258 . S
O1242 Eu1220 2.500 . S
O1242 C1225 1.273 . S
O1243 Eu1220 2.473 . S
O1243 C1225 1.257 . S
H1244 C1230 0.929 . S
H1245 C1232 0.931 . S
H1246 C1234 0.929 . S
O1247 Tb1248 2.292 . S
O1247 C1250 1.255 . S
Tb1248 O1247 2.292 . S
Tb1248 O1264 2.326 . S
Tb1248 O1266 2.500 . S
Tb1248 O1267 2.473 . S
Tb1248 O1270 2.324 . S
Eu1249 O1253 2.292 . S
Eu1249 C1254 2.852 . S
Eu1249 O1265 2.324 . S
Eu1249 O1269 2.326 . S
Eu1249 O1271 2.500 . S
Eu1249 O1272 2.473 . S
C1250 O1247 1.255 . S
C1250 O1251 1.247 . S
O1251 C1250 1.247 . S
C1252 O1264 1.242 . S
C1252 O1265 1.258 . S
O1253 Eu1249 2.292 . S
O1253 C1255 1.255 . S
C1254 Eu1249 2.852 . S
C1254 C1258 1.503 . S
C1254 O1271 1.273 . S
C1254 O1272 1.257 . S
C1255 O1253 1.255 . S
C1255 O1256 1.247 . S
O1256 C1255 1.247 . S
C1257 O1269 1.242 . S
C1257 O1270 1.258 . S
C1258 C1254 1.503 . S
C1258 C1259 1.379 . S
C1258 C1263 1.392 . S
C1259 C1258 1.379 . S
C1259 C1260 1.404 . S
C1259 H1273 0.929 . S
C1260 C1259 1.404 . S
C1260 C1261 1.389 . S
C1261 C1260 1.389 . S
C1261 C1262 1.399 . S
C1261 H1274 0.931 . S
C1262 C1261 1.399 . S
C1262 C1263 1.390 . S
C1263 C1258 1.392 . S
C1263 C1262 1.390 . S
C1263 H1275 0.929 . S
O1264 Tb1248 2.326 . S
O1264 C1252 1.242 . S
O1265 Eu1249 2.324 . S
O1265 C1252 1.258 . S
O1266 Tb1248 2.500 . S
O1266 C1268 1.273 . S
O1267 Tb1248 2.473 . S
O1267 C1268 1.257 . S
C1268 O1266 1.273 . S
C1268 O1267 1.257 . S
O1269 Eu1249 2.326 . S
O1269 C1257 1.242 . S
O1270 Tb1248 2.324 . S
O1270 C1257 1.258 . S
O1271 Eu1249 2.500 . S
O1271 C1254 1.273 . S
O1272 Eu1249 2.473 . S
O1272 C1254 1.257 . S
H1273 C1259 0.929 . S
H1274 C1261 0.931 . S
H1275 C1263 0.929 . S
O1276 Tb1277 2.292 . S
O1276 C1279 1.255 . S
Tb1277 O1276 2.292 . S
Tb1277 O1293 2.326 . S
Tb1277 O1295 2.500 . S
Tb1277 O1296 2.473 . S
Tb1277 O1299 2.324 . S
Eu1278 O1282 2.292 1_455 S
Eu1278 C1283 2.852 . S
Eu1278 O1294 2.324 . S
Eu1278 O1298 2.326 . S
Eu1278 O1300 2.500 1_455 S
Eu1278 O1301 2.473 . S
C1279 O1276 1.255 . S
C1279 O1280 1.247 . S
O1280 C1279 1.247 . S
C1281 O1293 1.242 . S
C1281 O1294 1.258 . S
O1282 Eu1278 2.292 1_655 S
O1282 C1284 1.255 . S
C1283 Eu1278 2.852 . S
C1283 C1287 1.503 . S
C1283 O1300 1.273 1_455 S
C1283 O1301 1.257 . S
C1284 O1282 1.255 . S
C1284 O1285 1.247 1_655 S
O1285 C1284 1.247 1_455 S
C1286 O1298 1.242 . S
C1286 O1299 1.258 . S
C1287 C1283 1.503 . S
C1287 C1288 1.379 . S
C1287 C1292 1.382 1_455 S
C1288 C1287 1.379 . S
C1288 C1289 1.404 . S
C1288 H1302 0.929 . S
C1289 C1288 1.404 . S
C1289 C1290 1.389 . S
C1290 C1289 1.389 . S
C1290 C1291 1.425 . S
C1290 H1303 0.931 . S
C1291 C1290 1.425 . S
C1291 C1292 1.388 1_455 S
C1292 C1287 1.382 1_655 S
C1292 C1291 1.388 1_655 S
C1292 H1304 0.940 . S
O1293 Tb1277 2.326 . S
O1293 C1281 1.242 . S
O1294 Eu1278 2.324 . S
O1294 C1281 1.258 . S
O1295 Tb1277 2.500 . S
O1295 C1297 1.273 . S
O1296 Tb1277 2.473 . S
O1296 C1297 1.257 . S
C1297 O1295 1.273 . S
C1297 O1296 1.257 . S
O1298 Eu1278 2.326 . S
O1298 C1286 1.242 . S
O1299 Tb1277 2.324 . S
O1299 C1286 1.258 . S
O1300 Eu1278 2.500 1_655 S
O1300 C1283 1.273 1_655 S
O1301 Eu1278 2.473 . S
O1301 C1283 1.257 . S
H1302 C1288 0.929 . S
H1303 C1290 0.931 . S
H1304 C1292 0.940 . S
O1305 Tb1306 2.292 . S
O1305 C1308 1.255 . S
Tb1306 O1305 2.292 . S
Tb1306 O1322 2.326 . S
Tb1306 O1324 2.500 . S
Tb1306 O1325 2.473 . S
Tb1306 O1328 2.324 . S
Eu1307 O1311 2.292 . S
Eu1307 C1312 2.852 . S
Eu1307 O1323 2.324 . S
Eu1307 O1327 2.326 . S
Eu1307 O1329 2.500 . S
Eu1307 O1330 2.473 . S
C1308 O1305 1.255 . S
C1308 O1309 1.247 . S
O1309 C1308 1.247 . S
C1310 O1322 1.242 . S
C1310 O1323 1.258 . S
O1311 Eu1307 2.292 . S
O1311 C1313 1.255 . S
C1312 Eu1307 2.852 . S
C1312 C1316 1.503 . S
C1312 O1329 1.273 . S
C1312 O1330 1.257 . S
C1313 O1311 1.255 . S
C1313 O1314 1.247 . S
O1314 C1313 1.247 . S
C1315 O1327 1.242 . S
C1315 O1328 1.258 . S
C1316 C1312 1.503 . S
C1316 C1317 1.379 . S
C1316 C1321 1.392 . S
C1317 C1316 1.379 . S
C1317 C1318 1.404 . S
C1317 H1331 0.929 . S
C1318 C1317 1.404 . S
C1318 C1319 1.389 . S
C1319 C1318 1.389 . S
C1319 C1320 1.399 . S
C1319 H1332 0.931 . S
C1320 C1319 1.399 . S
C1320 C1321 1.390 . S
C1321 C1316 1.392 . S
C1321 C1320 1.390 . S
C1321 H1333 0.929 . S
O1322 Tb1306 2.326 . S
O1322 C1310 1.242 . S
O1323 Eu1307 2.324 . S
O1323 C1310 1.258 . S
O1324 Tb1306 2.500 . S
O1324 C1326 1.273 . S
O1325 Tb1306 2.473 . S
O1325 C1326 1.257 . S
C1326 O1324 1.273 . S
C1326 O1325 1.257 . S
O1327 Eu1307 2.326 . S
O1327 C1315 1.242 . S
O1328 Tb1306 2.324 . S
O1328 C1315 1.258 . S
O1329 Eu1307 2.500 . S
O1329 C1312 1.273 . S
O1330 Eu1307 2.473 . S
O1330 C1312 1.257 . S
H1331 C1317 0.929 . S
H1332 C1319 0.931 . S
H1333 C1321 0.929 . S
O1334 Tb1335 2.292 . S
O1334 C1337 1.255 . S
Tb1335 O1334 2.292 . S
Tb1335 O1351 2.326 . S
Tb1335 O1353 2.500 . S
Tb1335 O1354 2.473 . S
Tb1335 O1357 2.324 . S
Eu1336 O1340 2.292 . S
Eu1336 C1341 2.852 . S
Eu1336 O1352 2.324 . S
Eu1336 O1356 2.326 . S
Eu1336 O1358 2.500 . S
Eu1336 O1359 2.473 . S
C1337 O1334 1.255 . S
C1337 O1338 1.247 . S
O1338 C1337 1.247 . S
C1339 O1351 1.242 . S
C1339 O1352 1.258 . S
O1340 Eu1336 2.292 . S
O1340 C1342 1.255 . S
C1341 Eu1336 2.852 . S
C1341 C1345 1.503 . S
C1341 O1358 1.273 . S
C1341 O1359 1.257 . S
C1342 O1340 1.255 . S
C1342 O1343 1.247 . S
O1343 C1342 1.247 . S
C1344 O1356 1.242 . S
C1344 O1357 1.258 . S
C1345 C1341 1.503 . S
C1345 C1346 1.379 . S
C1345 C1350 1.392 . S
C1346 C1345 1.379 . S
C1346 C1347 1.404 . S
C1346 H1360 0.929 . S
C1347 C1346 1.404 . S
C1347 C1348 1.389 . S
C1348 C1347 1.389 . S
C1348 C1349 1.399 . S
C1348 H1361 0.931 . S
C1349 C1348 1.399 . S
C1349 C1350 1.390 . S
C1350 C1345 1.392 . S
C1350 C1349 1.390 . S
C1350 H1362 0.929 . S
O1351 Tb1335 2.326 . S
O1351 C1339 1.242 . S
O1352 Eu1336 2.324 . S
O1352 C1339 1.258 . S
O1353 Tb1335 2.500 . S
O1353 C1355 1.273 . S
O1354 Tb1335 2.473 . S
O1354 C1355 1.257 . S
C1355 O1353 1.273 . S
C1355 O1354 1.257 . S
O1356 Eu1336 2.326 . S
O1356 C1344 1.242 . S
O1357 Tb1335 2.324 . S
O1357 C1344 1.258 . S
O1358 Eu1336 2.500 . S
O1358 C1341 1.273 . S
O1359 Eu1336 2.473 . S
O1359 C1341 1.257 . S
H1360 C1346 0.929 . S
H1361 C1348 0.931 . S
H1362 C1350 0.929 . S
O1363 Tb1364 2.292 . S
O1363 C1366 1.255 . S
Tb1364 O1363 2.292 . S
Tb1364 O1380 2.326 . S
Tb1364 O1382 2.500 . S
Tb1364 O1383 2.473 . S
Tb1364 O1386 2.324 . S
Eu1365 O1369 2.292 . S
Eu1365 C1370 2.852 . S
Eu1365 O1381 2.324 . S
Eu1365 O1385 2.326 . S
Eu1365 O1387 2.500 . S
Eu1365 O1388 2.473 . S
C1366 O1363 1.255 . S
C1366 O1367 1.247 . S
O1367 C1366 1.247 . S
C1368 O1380 1.242 . S
C1368 O1381 1.258 . S
O1369 Eu1365 2.292 . S
O1369 C1371 1.255 . S
C1370 Eu1365 2.852 . S
C1370 C1374 1.503 . S
C1370 O1387 1.273 . S
C1370 O1388 1.257 . S
C1371 O1369 1.255 . S
C1371 O1372 1.247 . S
O1372 C1371 1.247 . S
C1373 O1385 1.242 . S
C1373 O1386 1.258 . S
C1374 C1370 1.503 . S
C1374 C1375 1.379 . S
C1374 C1379 1.392 . S
C1375 C1374 1.379 . S
C1375 C1376 1.404 . S
C1375 H1389 0.929 . S
C1376 C1375 1.404 . S
C1376 C1377 1.389 . S
C1377 C1376 1.389 . S
C1377 C1378 1.399 . S
C1377 H1390 0.931 . S
C1378 C1377 1.399 . S
C1378 C1379 1.390 . S
C1379 C1374 1.392 . S
C1379 C1378 1.390 . S
C1379 H1391 0.929 . S
O1380 Tb1364 2.326 . S
O1380 C1368 1.242 . S
O1381 Eu1365 2.324 . S
O1381 C1368 1.258 . S
O1382 Tb1364 2.500 . S
O1382 C1384 1.273 . S
O1383 Tb1364 2.473 . S
O1383 C1384 1.257 . S
C1384 O1382 1.273 . S
C1384 O1383 1.257 . S
O1385 Eu1365 2.326 . S
O1385 C1373 1.242 . S
O1386 Tb1364 2.324 . S
O1386 C1373 1.258 . S
O1387 Eu1365 2.500 . S
O1387 C1370 1.273 . S
O1388 Eu1365 2.473 . S
O1388 C1370 1.257 . S
H1389 C1375 0.929 . S
H1390 C1377 0.931 . S
H1391 C1379 0.929 . S
C1392 C1393 1.369 . S
C1392 C1394 1.419 . S
C1392 H1396 0.930 . S
C1393 C1392 1.369 . S
C1393 C1402 1.429 . S
C1394 C1392 1.419 . S
C1394 C1395 1.363 . S
C1394 H1397 0.929 . S
C1395 C1394 1.363 . S
C1395 C1401 1.428 . S
H1396 C1392 0.930 . S
H1397 C1394 0.929 . S
S1398 N1399 1.613 . S
S1398 N1400 1.610 . S
N1399 S1398 1.613 . S
N1399 C1402 1.350 . S
N1400 S1398 1.610 . S
N1400 C1401 1.351 . S
C1401 C1395 1.428 . S
C1401 N1400 1.351 . S
C1401 C1402 1.434 . S
C1402 C1393 1.429 . S
C1402 N1399 1.350 . S
C1402 C1401 1.434 . S
C1403 C1404 1.369 . S
C1403 C1405 1.419 . S
C1403 H1407 0.930 . S
C1404 C1403 1.369 . S
C1404 C1413 1.429 . S
C1405 C1403 1.419 . S
C1405 C1406 1.363 . S
C1405 H1408 0.929 . S
C1406 C1405 1.363 . S
C1406 C1412 1.428 . S
H1407 C1403 0.930 . S
H1408 C1405 0.929 . S
S1409 N1410 1.613 . S
S1409 N1411 1.610 . S
N1410 S1409 1.613 . S
N1410 C1413 1.350 . S
N1411 S1409 1.610 . S
N1411 C1412 1.351 . S
C1412 C1406 1.428 . S
C1412 N1411 1.351 . S
C1412 C1413 1.434 . S
C1413 C1404 1.429 . S
C1413 N1410 1.350 . S
C1413 C1412 1.434 . S
C1414 C1415 1.369 . S
C1414 C1416 1.419 . S
C1414 H1418 0.930 . S
C1415 C1414 1.369 . S
C1415 C1424 1.429 . S
C1416 C1414 1.419 . S
C1416 C1417 1.363 . S
C1416 H1419 0.929 . S
C1417 C1416 1.363 . S
C1417 C1423 1.428 . S
H1418 C1414 0.930 . S
H1419 C1416 0.929 . S
S1420 N1421 1.613 . S
S1420 N1422 1.610 . S
N1421 S1420 1.613 . S
N1421 C1424 1.350 . S
N1422 S1420 1.610 . S
N1422 C1423 1.351 . S
C1423 C1417 1.428 . S
C1423 N1422 1.351 . S
C1423 C1424 1.434 . S
C1424 C1415 1.429 . S
C1424 N1421 1.350 . S
C1424 C1423 1.434 . S
C1425 C1426 1.369 . S
C1425 C1427 1.419 . S
C1425 H1429 0.930 . S
C1426 C1425 1.369 . S
C1426 C1435 1.429 . S
C1427 C1425 1.419 . S
C1427 C1428 1.363 . S
C1427 H1430 0.929 . S
C1428 C1427 1.363 . S
C1428 C1434 1.428 . S
H1429 C1425 0.930 . S
H1430 C1427 0.929 . S
S1431 N1432 1.613 . S
S1431 N1433 1.610 . S
N1432 S1431 1.613 . S
N1432 C1435 1.350 . S
N1433 S1431 1.610 . S
N1433 C1434 1.351 . S
C1434 C1428 1.428 . S
C1434 N1433 1.351 . S
C1434 C1435 1.434 . S
C1435 C1426 1.429 . S
C1435 N1432 1.350 . S
C1435 C1434 1.434 . S
C1436 C1437 1.369 . S
C1436 C1438 1.419 . S
C1436 H1440 0.930 . S
C1437 C1436 1.369 . S
C1437 C1446 1.429 . S
C1438 C1436 1.419 . S
C1438 C1439 1.363 . S
C1438 H1441 0.929 . S
C1439 C1438 1.363 . S
C1439 C1445 1.428 . S
H1440 C1436 0.930 . S
H1441 C1438 0.929 . S
S1442 N1443 1.613 . S
S1442 N1444 1.610 . S
N1443 S1442 1.613 . S
N1443 C1446 1.350 . S
N1444 S1442 1.610 . S
N1444 C1445 1.351 . S
C1445 C1439 1.428 . S
C1445 N1444 1.351 . S
C1445 C1446 1.434 . S
C1446 C1437 1.429 . S
C1446 N1443 1.350 . S
C1446 C1445 1.434 . S
C1447 C1448 1.369 1_455 S
C1447 C1449 1.419 . S
C1447 H1451 0.930 . S
C1448 C1447 1.369 1_655 S
C1448 C1457 1.429 . S
C1449 C1447 1.419 . S
C1449 C1450 1.363 . S
C1449 H1452 0.929 . S
C1450 C1449 1.363 . S
C1450 C1456 1.428 . S
H1451 C1447 0.930 . S
H1452 C1449 0.929 . S
S1453 N1454 1.613 . S
S1453 N1455 1.610 1_655 S
N1454 S1453 1.613 . S
N1454 C1457 1.350 . S
N1455 S1453 1.610 1_455 S
N1455 C1456 1.351 . S
C1456 C1450 1.428 . S
C1456 N1455 1.351 . S
C1456 C1457 1.434 1_455 S
C1457 C1448 1.429 . S
C1457 N1454 1.350 . S
C1457 C1456 1.434 1_655 S
C1458 C1459 1.369 . S
C1458 C1460 1.419 . S
C1458 H1462 0.930 . S
C1459 C1458 1.369 . S
C1459 C1468 1.429 . S
C1460 C1458 1.419 . S
C1460 C1461 1.363 . S
C1460 H1463 0.929 . S
C1461 C1460 1.363 . S
C1461 C1467 1.428 . S
H1462 C1458 0.930 . S
H1463 C1460 0.929 . S
S1464 N1465 1.613 . S
S1464 N1466 1.610 . S
N1465 S1464 1.613 . S
N1465 C1468 1.350 . S
N1466 S1464 1.610 . S
N1466 C1467 1.351 . S
C1467 C1461 1.428 . S
C1467 N1466 1.351 . S
C1467 C1468 1.434 . S
C1468 C1459 1.429 . S
C1468 N1465 1.350 . S
C1468 C1467 1.434 . S
C1469 C1470 1.369 . S
C1469 C1471 1.419 1_655 S
C1469 H1473 0.930 . S
C1470 C1469 1.369 . S
C1470 C1479 1.429 . S
C1471 C1469 1.419 1_455 S
C1471 C1472 1.363 . S
C1471 H1474 0.929 . S
C1472 C1471 1.363 . S
C1472 C1478 1.428 1_455 S
H1473 C1469 0.930 . S
H1474 C1471 0.929 . S
S1475 N1476 1.613 . S
S1475 N1477 1.610 . S
N1476 S1475 1.613 . S
N1476 C1479 1.350 . S
N1477 S1475 1.610 . S
N1477 C1478 1.351 . S
C1478 C1472 1.428 1_655 S
C1478 N1477 1.351 . S
C1478 C1479 1.434 . S
C1479 C1470 1.429 . S
C1479 N1476 1.350 . S
C1479 C1478 1.434 . S
C1480 C1481 1.369 . S
C1480 C1482 1.419 . S
C1480 H1484 0.930 . S
C1481 C1480 1.369 . S
C1481 C1490 1.429 . S
C1482 C1480 1.419 . S
C1482 C1483 1.363 . S
C1482 H1485 0.929 . S
C1483 C1482 1.363 . S
C1483 C1489 1.428 . S
H1484 C1480 0.930 . S
H1485 C1482 0.929 . S
S1486 N1487 1.613 . S
S1486 N1488 1.610 . S
N1487 S1486 1.613 . S
N1487 C1490 1.350 . S
N1488 S1486 1.610 . S
N1488 C1489 1.351 . S
C1489 C1483 1.428 . S
C1489 N1488 1.351 . S
C1489 C1490 1.434 . S
C1490 C1481 1.429 . S
C1490 N1487 1.350 . S
C1490 C1489 1.434 . S
C1491 C1492 1.369 . S
C1491 C1493 1.419 . S
C1491 H1495 0.930 . S
C1492 C1491 1.369 . S
C1492 C1501 1.429 . S
C1493 C1491 1.419 . S
C1493 C1494 1.363 1_554 S
C1493 H1496 0.929 . S
C1494 C1493 1.363 1_556 S
C1494 C1500 1.428 . S
H1495 C1491 0.930 . S
H1496 C1493 0.929 . S
S1497 N1498 1.613 1_556 S
S1497 N1499 1.610 . S
N1498 S1497 1.613 1_554 S
N1498 C1501 1.350 . S
N1499 S1497 1.610 . S
N1499 C1500 1.351 . S
C1500 C1494 1.428 . S
C1500 N1499 1.351 . S
C1500 C1501 1.434 1_556 S
C1501 C1492 1.429 . S
C1501 N1498 1.350 . S
C1501 C1500 1.434 1_554 S
C1502 C1503 1.369 . S
C1502 C1504 1.419 . S
C1502 H1506 0.930 . S
C1503 C1502 1.369 . S
C1503 C1512 1.429 . S
C1504 C1502 1.419 . S
C1504 C1505 1.363 . S
C1504 H1507 0.929 . S
C1505 C1504 1.363 . S
C1505 C1511 1.428 . S
H1506 C1502 0.930 . S
H1507 C1504 0.929 . S
S1508 N1509 1.613 . S
S1508 N1510 1.610 . S
N1509 S1508 1.613 . S
N1509 C1512 1.350 . S
N1510 S1508 1.610 . S
N1510 C1511 1.351 . S
C1511 C1505 1.428 . S
C1511 N1510 1.351 . S
C1511 C1512 1.434 . S
C1512 C1503 1.429 . S
C1512 N1509 1.350 . S
C1512 C1511 1.434 . S
C1513 C1514 1.369 . S
C1513 C1515 1.419 1_556 S
C1513 H1517 0.930 . S
C1514 C1513 1.369 . S
C1514 C1523 1.408 1_556 S
C1515 C1513 1.419 1_554 S
C1515 C1516 1.363 . S
C1515 H1518 0.929 . S
C1516 C1515 1.363 . S
C1516 C1522 1.428 . S
H1517 C1513 0.930 . S
H1518 C1515 0.929 . S
S1519 N1520 1.613 1_554 S
S1519 N1521 1.610 . S
N1520 S1519 1.613 1_556 S
N1520 C1523 1.337 1_556 S
N1521 S1519 1.610 . S
N1521 C1522 1.351 . S
C1522 C1516 1.428 . S
C1522 N1521 1.351 . S
C1522 C1523 1.471 . S
C1523 C1514 1.408 1_554 S
C1523 N1520 1.337 1_554 S
C1523 C1522 1.471 . S
C1524 C1525 1.369 . S
C1524 C1526 1.419 . S
C1524 H1528 0.930 . S
C1525 C1524 1.369 . S
C1525 C1534 1.429 . S
C1526 C1524 1.419 . S
C1526 C1527 1.363 . S
C1526 H1529 0.929 . S
C1527 C1526 1.363 . S
C1527 C1533 1.428 . S
H1528 C1524 0.930 . S
H1529 C1526 0.929 . S
S1530 N1531 1.613 . S
S1530 N1532 1.610 . S
N1531 S1530 1.613 . S
N1531 C1534 1.350 . S
N1532 S1530 1.610 . S
N1532 C1533 1.351 . S
C1533 C1527 1.428 . S
C1533 N1532 1.351 . S
C1533 C1534 1.434 . S
C1534 C1525 1.429 . S
C1534 N1531 1.350 . S
C1534 C1533 1.434 . S
C1535 C1536 1.369 . S
C1535 C1537 1.419 1_556 S
C1535 H1539 0.930 . S
C1536 C1535 1.369 . S
C1536 C1545 1.429 . S
C1537 C1535 1.419 1_554 S
C1537 C1538 1.363 . S
C1537 H1540 0.929 . S
C1538 C1537 1.363 . S
C1538 C1544 1.428 1_554 S
H1539 C1535 0.930 . S
H1540 C1537 0.929 . S
S1541 N1542 1.613 . S
S1541 N1543 1.610 . S
N1542 S1541 1.613 . S
N1542 C1545 1.350 . S
N1543 S1541 1.610 . S
N1543 C1544 1.351 . S
C1544 C1538 1.428 1_556 S
C1544 N1543 1.351 . S
C1544 C1545 1.434 . S
C1545 C1536 1.429 . S
C1545 N1542 1.350 . S
C1545 C1544 1.434 . S
C1546 C1547 1.369 . S
C1546 C1548 1.419 . S
C1546 H1550 0.930 . S
C1547 C1546 1.369 . S
C1547 C1556 1.429 . S
C1548 C1546 1.419 . S
C1548 C1549 1.363 . S
C1548 H1551 0.929 . S
C1549 C1548 1.363 . S
C1549 C1555 1.428 . S
H1550 C1546 0.930 . S
H1551 C1548 0.929 . S
S1552 N1553 1.613 . S
S1552 N1554 1.610 . S
N1553 S1552 1.613 . S
N1553 C1556 1.350 . S
N1554 S1552 1.610 . S
N1554 C1555 1.351 . S
C1555 C1549 1.428 . S
C1555 N1554 1.351 . S
C1555 C1556 1.434 . S
C1556 C1547 1.429 . S
C1556 N1553 1.350 . S
C1556 C1555 1.434 . S
C1557 C1558 1.369 1_556 S
C1557 C1559 1.419 . S
C1557 H1561 0.930 1_556 S
C1558 C1557 1.369 1_554 S
C1558 C1567 1.429 . S
C1559 C1557 1.419 . S
C1559 C1560 1.363 . S
C1559 H1562 0.929 . S
C1560 C1559 1.363 . S
C1560 C1566 1.428 . S
H1561 C1557 0.930 1_554 S
H1562 C1559 0.929 . S
S1563 N1564 1.612 1_556 S
S1563 N1565 1.612 . S
N1564 S1563 1.612 1_554 S
N1564 C1567 1.350 . S
N1565 S1563 1.612 . S
N1565 C1566 1.351 . S
C1566 C1560 1.428 . S
C1566 N1565 1.351 . S
C1566 C1567 1.434 1_556 S
C1567 C1558 1.429 . S
C1567 N1564 1.350 . S
C1567 C1566 1.434 1_554 S
C1568 C1569 1.369 . S
C1568 C1570 1.419 . S
C1568 H1572 0.930 . S
C1569 C1568 1.369 . S
C1569 C1578 1.429 . S
C1570 C1568 1.419 . S
C1570 C1571 1.363 . S
C1570 H1573 0.929 . S
C1571 C1570 1.363 . S
C1571 C1577 1.428 . S
H1572 C1568 0.930 . S
H1573 C1570 0.929 . S
S1574 N1575 1.613 . S
S1574 N1576 1.610 . S
N1575 S1574 1.613 . S
N1575 C1578 1.350 . S
N1576 S1574 1.610 . S
N1576 C1577 1.351 . S
C1577 C1571 1.428 . S
C1577 N1576 1.351 . S
C1577 C1578 1.434 . S
C1578 C1569 1.429 . S
C1578 N1575 1.350 . S
C1578 C1577 1.434 . S
C1579 C1580 1.369 . S
C1579 C1581 1.419 . S
C1579 H1583 0.930 . S
C1580 C1579 1.369 . S
C1580 C1589 1.429 . S
C1581 C1579 1.419 . S
C1581 C1582 1.363 . S
C1581 H1584 0.929 . S
C1582 C1581 1.363 . S
C1582 C1588 1.428 . S
H1583 C1579 0.930 . S
H1584 C1581 0.929 . S
S1585 N1586 1.613 . S
S1585 N1587 1.610 . S
N1586 S1585 1.613 . S
N1586 C1589 1.350 . S
N1587 S1585 1.610 . S
N1587 C1588 1.351 . S
C1588 C1582 1.428 . S
C1588 N1587 1.351 . S
C1588 C1589 1.434 . S
C1589 C1580 1.429 . S
C1589 N1586 1.350 . S
C1589 C1588 1.434 . S
C1590 C1591 1.369 . S
C1590 C1592 1.419 . S
C1590 H1594 0.930 . S
C1591 C1590 1.369 . S
C1591 C1600 1.429 . S
C1592 C1590 1.419 . S
C1592 C1593 1.363 . S
C1592 H1595 0.929 . S
C1593 C1592 1.363 . S
C1593 C1599 1.428 . S
H1594 C1590 0.930 . S
H1595 C1592 0.929 . S
S1596 N1597 1.613 . S
S1596 N1598 1.610 . S
N1597 S1596 1.613 . S
N1597 C1600 1.350 . S
N1598 S1596 1.610 . S
N1598 C1599 1.351 . S
C1599 C1593 1.428 . S
C1599 N1598 1.351 . S
C1599 C1600 1.434 . S
C1600 C1591 1.429 . S
C1600 N1597 1.350 . S
C1600 C1599 1.434 . S
C1601 C1602 1.369 . S
C1601 C1603 1.419 . S
C1601 H1605 0.930 . S
C1602 C1601 1.369 . S
C1602 C1611 1.429 . S
C1603 C1601 1.419 . S
C1603 C1604 1.363 . S
C1603 H1606 0.929 . S
C1604 C1603 1.363 . S
C1604 C1610 1.428 . S
H1605 C1601 0.930 . S
H1606 C1603 0.929 . S
S1607 N1608 1.613 . S
S1607 N1609 1.610 . S
N1608 S1607 1.613 . S
N1608 C1611 1.350 . S
N1609 S1607 1.610 . S
N1609 C1610 1.351 . S
C1610 C1604 1.428 . S
C1610 N1609 1.351 . S
C1610 C1611 1.434 . S
C1611 C1602 1.429 . S
C1611 N1608 1.350 . S
C1611 C1610 1.434 . S
C1612 C1613 1.369 . S
C1612 C1614 1.419 . S
C1612 H1616 0.930 . S
C1613 C1612 1.369 . S
C1613 C1622 1.429 . S
C1614 C1612 1.419 . S
C1614 C1615 1.363 . S
C1614 H1617 0.929 . S
C1615 C1614 1.363 . S
C1615 C1621 1.428 . S
H1616 C1612 0.930 . S
H1617 C1614 0.929 . S
S1618 N1619 1.613 . S
S1618 N1620 1.610 . S
N1619 S1618 1.613 . S
N1619 C1622 1.350 . S
N1620 S1618 1.610 . S
N1620 C1621 1.351 . S
C1621 C1615 1.428 . S
C1621 N1620 1.351 . S
C1621 C1622 1.434 . S
C1622 C1613 1.429 . S
C1622 N1619 1.350 . S
C1622 C1621 1.434 . S
C1623 C1624 1.369 . S
C1623 C1625 1.419 . S
C1623 H1627 0.930 . S
C1624 C1623 1.369 . S
C1624 C1633 1.429 . S
C1625 C1623 1.419 . S
C1625 C1626 1.363 . S
C1625 H1628 0.929 . S
C1626 C1625 1.363 . S
C1626 C1632 1.428 . S
H1627 C1623 0.930 . S
H1628 C1625 0.929 . S
S1629 N1630 1.613 . S
S1629 N1631 1.610 . S
N1630 S1629 1.613 . S
N1630 C1633 1.350 . S
N1631 S1629 1.610 . S
N1631 C1632 1.351 . S
C1632 C1626 1.428 . S
C1632 N1631 1.351 . S
C1632 C1633 1.434 . S
C1633 C1624 1.429 . S
C1633 N1630 1.350 . S
C1633 C1632 1.434 . S
C1634 C1635 1.369 . S
C1634 C1636 1.419 . S
C1634 H1638 0.930 . S
C1635 C1634 1.369 . S
C1635 C1644 1.429 . S
C1636 C1634 1.419 . S
C1636 C1637 1.363 . S
C1636 H1639 0.929 . S
C1637 C1636 1.363 . S
C1637 C1643 1.428 . S
H1638 C1634 0.930 . S
H1639 C1636 0.929 . S
S1640 N1641 1.613 . S
S1640 N1642 1.610 . S
N1641 S1640 1.613 . S
N1641 C1644 1.350 . S
N1642 S1640 1.610 . S
N1642 C1643 1.351 . S
C1643 C1637 1.428 . S
C1643 N1642 1.351 . S
C1643 C1644 1.434 . S
C1644 C1635 1.429 . S
C1644 N1641 1.350 . S
C1644 C1643 1.434 . S
C1645 C1646 1.369 . S
C1645 C1647 1.419 . S
C1645 H1649 0.930 . S
C1646 C1645 1.369 . S
C1646 C1655 1.429 . S
C1647 C1645 1.419 . S
C1647 C1648 1.363 1_545 S
C1647 H1650 0.929 . S
C1648 C1647 1.363 1_565 S
C1648 C1654 1.428 . S
H1649 C1645 0.930 . S
H1650 C1647 0.929 . S
S1651 N1652 1.613 1_565 S
S1651 N1653 1.610 . S
N1652 S1651 1.613 1_545 S
N1652 C1655 1.350 . S
N1653 S1651 1.610 . S
N1653 C1654 1.351 . S
C1654 C1648 1.428 . S
C1654 N1653 1.351 . S
C1654 C1655 1.434 1_565 S
C1655 C1646 1.429 . S
C1655 N1652 1.350 . S
C1655 C1654 1.434 1_545 S
C1656 C1657 1.369 . S
C1656 C1658 1.419 . S
C1656 H1660 0.930 . S
C1657 C1656 1.369 . S
C1657 C1666 1.429 . S
C1658 C1656 1.419 . S
C1658 C1659 1.363 . S
C1658 H1661 0.929 . S
C1659 C1658 1.363 . S
C1659 C1665 1.428 . S
H1660 C1656 0.930 . S
H1661 C1658 0.929 . S
S1662 N1663 1.613 . S
S1662 N1664 1.610 . S
N1663 S1662 1.613 . S
N1663 C1666 1.350 . S
N1664 S1662 1.610 . S
N1664 C1665 1.351 . S
C1665 C1659 1.428 . S
C1665 N1664 1.351 . S
C1665 C1666 1.434 . S
C1666 C1657 1.429 . S
C1666 N1663 1.350 . S
C1666 C1665 1.434 . S
C1667 C1668 1.369 . S
C1667 C1669 1.419 . S
C1667 H1671 0.930 . S
C1668 C1667 1.369 . S
C1668 C1677 1.429 . S
C1669 C1667 1.419 . S
C1669 C1670 1.363 1_655 S
C1669 H1672 0.929 . S
C1670 C1669 1.363 1_455 S
C1670 C1676 1.428 . S
H1671 C1667 0.930 . S
H1672 C1669 0.929 . S
S1673 N1674 1.613 1_455 S
S1673 N1675 1.610 . S
N1674 S1673 1.613 1_655 S
N1674 C1677 1.350 . S
N1675 S1673 1.610 . S
N1675 C1676 1.351 . S
C1676 C1670 1.428 . S
C1676 N1675 1.351 . S
C1676 C1677 1.434 1_455 S
C1677 C1668 1.429 . S
C1677 N1674 1.350 . S
C1677 C1676 1.434 1_655 S
C1678 C1679 1.369 . S
C1678 C1680 1.419 . S
C1678 H1682 0.930 . S
C1679 C1678 1.369 . S
C1679 C1688 1.429 . S
C1680 C1678 1.419 . S
C1680 C1681 1.363 . S
C1680 H1683 0.929 . S
C1681 C1680 1.363 . S
C1681 C1687 1.428 . S
H1682 C1678 0.930 . S
H1683 C1680 0.929 . S
S1684 N1685 1.613 . S
S1684 N1686 1.610 . S
N1685 S1684 1.613 . S
N1685 C1688 1.350 . S
N1686 S1684 1.610 . S
N1686 C1687 1.351 . S
C1687 C1681 1.428 . S
C1687 N1686 1.351 . S
C1687 C1688 1.434 . S
C1688 C1679 1.429 . S
C1688 N1685 1.350 . S
C1688 C1687 1.434 . S
C1689 C1690 1.369 . S
C1689 C1691 1.419 1_655 S
C1689 H1693 0.930 . S
C1690 C1689 1.369 . S
C1690 C1699 1.429 1_655 S
C1691 C1689 1.419 1_455 S
C1691 C1692 1.363 . S
C1691 H1694 0.929 . S
C1692 C1691 1.363 . S
C1692 C1698 1.428 . S
H1693 C1689 0.930 . S
H1694 C1691 0.929 . S
S1695 N1696 1.613 . S
S1695 N1697 1.610 . S
N1696 S1695 1.613 . S
N1696 C1699 1.350 . S
N1697 S1695 1.610 . S
N1697 C1698 1.351 . S
C1698 C1692 1.428 . S
C1698 N1697 1.351 . S
C1698 C1699 1.434 . S
C1699 C1690 1.429 1_455 S
C1699 N1696 1.350 . S
C1699 C1698 1.434 . S
C1700 C1701 1.369 . S
C1700 C1702 1.419 . S
C1700 H1704 0.930 . S
C1701 C1700 1.369 . S
C1701 C1710 1.429 . S
C1702 C1700 1.419 . S
C1702 C1703 1.363 . S
C1702 H1705 0.929 . S
C1703 C1702 1.363 . S
C1703 C1709 1.428 . S
H1704 C1700 0.930 . S
H1705 C1702 0.929 . S
S1706 N1707 1.613 . S
S1706 N1708 1.610 . S
N1707 S1706 1.613 . S
N1707 C1710 1.350 . S
N1708 S1706 1.610 . S
N1708 C1709 1.351 . S
C1709 C1703 1.428 . S
C1709 N1708 1.351 . S
C1709 C1710 1.434 . S
C1710 C1701 1.429 . S
C1710 N1707 1.350 . S
C1710 C1709 1.434 . S
C1711 C1712 1.369 . S
C1711 C1713 1.419 . S
C1711 H1715 0.930 . S
C1712 C1711 1.369 . S
C1712 C1721 1.429 . S
C1713 C1711 1.419 . S
C1713 C1714 1.363 . S
C1713 H1716 0.929 . S
C1714 C1713 1.363 . S
C1714 C1720 1.428 . S
H1715 C1711 0.930 . S
H1716 C1713 0.929 . S
S1717 N1718 1.613 . S
S1717 N1719 1.610 . S
N1718 S1717 1.613 . S
N1718 C1721 1.350 . S
N1719 S1717 1.610 . S
N1719 C1720 1.351 . S
C1720 C1714 1.428 . S
C1720 N1719 1.351 . S
C1720 C1721 1.434 . S
C1721 C1712 1.429 . S
C1721 N1718 1.350 . S
C1721 C1720 1.434 . S
C1722 C1723 1.369 . S
C1722 C1724 1.419 . S
C1722 H1726 0.930 . S
C1723 C1722 1.369 . S
C1723 C1732 1.429 . S
C1724 C1722 1.419 . S
C1724 C1725 1.363 . S
C1724 H1727 0.929 . S
C1725 C1724 1.363 . S
C1725 C1731 1.428 . S
H1726 C1722 0.930 . S
H1727 C1724 0.929 . S
S1728 N1729 1.613 . S
S1728 N1730 1.610 . S
N1729 S1728 1.613 . S
N1729 C1732 1.350 . S
N1730 S1728 1.610 . S
N1730 C1731 1.351 . S
C1731 C1725 1.428 . S
C1731 N1730 1.351 . S
C1731 C1732 1.434 . S
C1732 C1723 1.429 . S
C1732 N1729 1.350 . S
C1732 C1731 1.434 . S
C1733 C1734 1.369 . S
C1733 C1735 1.419 . S
C1733 H1737 0.930 . S
C1734 C1733 1.369 . S
C1734 C1743 1.429 . S
C1735 C1733 1.419 . S
C1735 C1736 1.363 . S
C1735 H1738 0.929 . S
C1736 C1735 1.363 . S
C1736 C1742 1.428 . S
H1737 C1733 0.930 . S
H1738 C1735 0.929 . S
S1739 N1740 1.613 . S
S1739 N1741 1.610 . S
N1740 S1739 1.613 . S
N1740 C1743 1.350 . S
N1741 S1739 1.610 . S
N1741 C1742 1.351 . S
C1742 C1736 1.428 . S
C1742 N1741 1.351 . S
C1742 C1743 1.434 . S
C1743 C1734 1.429 . S
C1743 N1740 1.350 . S
C1743 C1742 1.434 . S
C1744 C1745 1.369 . S
C1744 C1746 1.419 . S
C1744 H1748 0.930 . S
C1745 C1744 1.369 . S
C1745 C1754 1.429 . S
C1746 C1744 1.419 . S
C1746 C1747 1.363 . S
C1746 H1749 0.929 . S
C1747 C1746 1.363 . S
C1747 C1753 1.428 . S
H1748 C1744 0.930 . S
H1749 C1746 0.929 . S
S1750 N1751 1.613 . S
S1750 N1752 1.610 . S
N1751 S1750 1.613 . S
N1751 C1754 1.350 . S
N1752 S1750 1.610 . S
N1752 C1753 1.351 . S
C1753 C1747 1.428 . S
C1753 N1752 1.351 . S
C1753 C1754 1.434 . S
C1754 C1745 1.429 . S
C1754 N1751 1.350 . S
C1754 C1753 1.434 . S
C1755 C1756 1.369 . S
C1755 C1757 1.419 . S
C1755 H1759 0.930 . S
C1756 C1755 1.369 . S
C1756 C1765 1.429 . S
C1757 C1755 1.419 . S
C1757 C1758 1.363 . S
C1757 H1760 0.929 . S
C1758 C1757 1.363 . S
C1758 C1764 1.428 . S
H1759 C1755 0.930 . S
H1760 C1757 0.929 . S
S1761 N1762 1.613 . S
S1761 N1763 1.610 . S
N1762 S1761 1.613 . S
N1762 C1765 1.350 . S
N1763 S1761 1.610 . S
N1763 C1764 1.351 . S
C1764 C1758 1.428 . S
C1764 N1763 1.351 . S
C1764 C1765 1.434 . S
C1765 C1756 1.429 . S
C1765 N1762 1.350 . S
C1765 C1764 1.434 . S
C1766 C1767 1.369 . S
C1766 C1768 1.419 . S
C1766 H1770 0.930 . S
C1767 C1766 1.369 . S
C1767 C1776 1.429 . S
C1768 C1766 1.419 . S
C1768 C1769 1.363 . S
C1768 H1771 0.929 . S
C1769 C1768 1.363 . S
C1769 C1775 1.428 . S
H1770 C1766 0.930 . S
H1771 C1768 0.929 . S
S1772 N1773 1.613 . S
S1772 N1774 1.610 . S
N1773 S1772 1.613 . S
N1773 C1776 1.350 . S
N1774 S1772 1.610 . S
N1774 C1775 1.351 . S
C1775 C1769 1.428 . S
C1775 N1774 1.351 . S
C1775 C1776 1.434 . S
C1776 C1767 1.429 . S
C1776 N1773 1.350 . S
C1776 C1775 1.434 . S
C1777 C1778 1.369 . S
C1777 C1779 1.419 . S
C1777 H1781 0.930 . S
C1778 C1777 1.369 . S
C1778 C1787 1.429 . S
C1779 C1777 1.419 . S
C1779 C1780 1.363 . S
C1779 H1782 0.929 . S
C1780 C1779 1.363 . S
C1780 C1786 1.428 . S
H1781 C1777 0.930 . S
H1782 C1779 0.929 . S
S1783 N1784 1.613 . S
S1783 N1785 1.610 . S
N1784 S1783 1.613 . S
N1784 C1787 1.350 . S
N1785 S1783 1.610 . S
N1785 C1786 1.351 . S
C1786 C1780 1.428 . S
C1786 N1785 1.351 . S
C1786 C1787 1.434 . S
C1787 C1778 1.429 . S
C1787 N1784 1.350 . S
C1787 C1786 1.434 . S
C1788 C1789 1.369 . S
C1788 C1790 1.419 . S
C1788 H1792 0.930 . S
C1789 C1788 1.369 . S
C1789 C1798 1.429 . S
C1790 C1788 1.419 . S
C1790 C1791 1.363 . S
C1790 H1793 0.929 . S
C1791 C1790 1.363 . S
C1791 C1797 1.428 . S
H1792 C1788 0.930 . S
H1793 C1790 0.929 . S
S1794 N1795 1.613 . S
S1794 N1796 1.610 . S
N1795 S1794 1.613 . S
N1795 C1798 1.350 . S
N1796 S1794 1.610 . S
N1796 C1797 1.351 . S
C1797 C1791 1.428 . S
C1797 N1796 1.351 . S
C1797 C1798 1.434 . S
C1798 C1789 1.429 . S
C1798 N1795 1.350 . S
C1798 C1797 1.434 . S
C1799 C1800 1.369 . S
C1799 C1801 1.419 . S
C1799 H1803 0.930 . S
C1800 C1799 1.369 . S
C1800 C1809 1.429 . S
C1801 C1799 1.419 . S
C1801 C1802 1.363 . S
C1801 H1804 0.929 . S
C1802 C1801 1.363 . S
C1802 C1808 1.428 . S
H1803 C1799 0.930 . S
H1804 C1801 0.929 . S
S1805 N1806 1.613 . S
S1805 N1807 1.610 . S
N1806 S1805 1.613 . S
N1806 C1809 1.350 . S
N1807 S1805 1.610 . S
N1807 C1808 1.351 . S
C1808 C1802 1.428 . S
C1808 N1807 1.351 . S
C1808 C1809 1.434 . S
C1809 C1800 1.429 . S
C1809 N1806 1.350 . S
C1809 C1808 1.434 . S
C1810 C1811 1.369 . S
C1810 C1812 1.419 . S
C1810 H1814 0.930 . S
C1811 C1810 1.369 . S
C1811 C1820 1.429 . S
C1812 C1810 1.419 . S
C1812 C1813 1.363 . S
C1812 H1815 0.929 . S
C1813 C1812 1.363 . S
C1813 C1819 1.428 . S
H1814 C1810 0.930 . S
H1815 C1812 0.929 . S
S1816 N1817 1.613 . S
S1816 N1818 1.610 . S
N1817 S1816 1.613 . S
N1817 C1820 1.350 . S
N1818 S1816 1.610 . S
N1818 C1819 1.351 . S
C1819 C1813 1.428 . S
C1819 N1818 1.351 . S
C1819 C1820 1.434 . S
C1820 C1811 1.429 . S
C1820 N1817 1.350 . S
C1820 C1819 1.434 . S
C1821 C1822 1.369 . S
C1821 C1823 1.419 . S
C1821 H1825 0.930 . S
C1822 C1821 1.369 . S
C1822 C1831 1.429 . S
C1823 C1821 1.419 . S
C1823 C1824 1.363 . S
C1823 H1826 0.929 . S
C1824 C1823 1.363 . S
C1824 C1830 1.428 . S
H1825 C1821 0.930 . S
H1826 C1823 0.929 . S
S1827 N1828 1.613 . S
S1827 N1829 1.610 . S
N1828 S1827 1.613 . S
N1828 C1831 1.350 . S
N1829 S1827 1.610 . S
N1829 C1830 1.351 . S
C1830 C1824 1.428 . S
C1830 N1829 1.351 . S
C1830 C1831 1.434 . S
C1831 C1822 1.429 . S
C1831 N1828 1.350 . S
C1831 C1830 1.434 . S
C1832 C1833 1.369 . S
C1832 C1834 1.419 . S
C1832 H1836 0.930 . S
C1833 C1832 1.369 . S
C1833 C1842 1.429 . S
C1834 C1832 1.419 . S
C1834 C1835 1.363 . S
C1834 H1837 0.929 . S
C1835 C1834 1.363 . S
C1835 C1841 1.428 . S
H1836 C1832 0.930 . S
H1837 C1834 0.929 . S
S1838 N1839 1.613 . S
S1838 N1840 1.610 . S
N1839 S1838 1.613 . S
N1839 C1842 1.350 . S
N1840 S1838 1.610 . S
N1840 C1841 1.351 . S
C1841 C1835 1.428 . S
C1841 N1840 1.351 . S
C1841 C1842 1.434 . S
C1842 C1833 1.429 . S
C1842 N1839 1.350 . S
C1842 C1841 1.434 . S
C1843 C1844 1.369 . S
C1843 C1845 1.419 . S
C1843 H1847 0.930 . S
C1844 C1843 1.369 . S
C1844 C1853 1.429 . S
C1845 C1843 1.419 . S
C1845 C1846 1.363 . S
C1845 H1848 0.929 . S
C1846 C1845 1.363 . S
C1846 C1852 1.428 . S
H1847 C1843 0.930 . S
H1848 C1845 0.929 . S
S1849 N1850 1.613 . S
S1849 N1851 1.610 . S
N1850 S1849 1.613 . S
N1850 C1853 1.350 . S
N1851 S1849 1.610 . S
N1851 C1852 1.351 . S
C1852 C1846 1.428 . S
C1852 N1851 1.351 . S
C1852 C1853 1.434 . S
C1853 C1844 1.429 . S
C1853 N1850 1.350 . S
C1853 C1852 1.434 . S
C1854 C1855 1.369 . S
C1854 C1856 1.419 . S
C1854 H1858 0.930 . S
C1855 C1854 1.369 . S
C1855 C1864 1.429 . S
C1856 C1854 1.419 . S
C1856 C1857 1.363 1_545 S
C1856 H1859 0.929 . S
C1857 C1856 1.363 1_565 S
C1857 C1863 1.428 . S
H1858 C1854 0.930 . S
H1859 C1856 0.929 . S
S1860 N1861 1.613 1_565 S
S1860 N1862 1.610 . S
N1861 S1860 1.613 1_545 S
N1861 C1864 1.350 . S
N1862 S1860 1.610 . S
N1862 C1863 1.351 . S
C1863 C1857 1.428 . S
C1863 N1862 1.351 . S
C1863 C1864 1.434 1_565 S
C1864 C1855 1.429 . S
C1864 N1861 1.350 . S
C1864 C1863 1.434 1_545 S
C1865 C1866 1.369 . S
C1865 C1867 1.419 . S
C1865 H1869 0.930 . S
C1866 C1865 1.369 . S
C1866 C1875 1.429 . S
C1867 C1865 1.419 . S
C1867 C1868 1.363 . S
C1867 H1870 0.929 . S
C1868 C1867 1.363 . S
C1868 C1874 1.428 . S
H1869 C1865 0.930 . S
H1870 C1867 0.929 . S
S1871 N1872 1.613 . S
S1871 N1873 1.610 . S
N1872 S1871 1.613 . S
N1872 C1875 1.350 . S
N1873 S1871 1.610 . S
N1873 C1874 1.351 . S
C1874 C1868 1.428 . S
C1874 N1873 1.351 . S
C1874 C1875 1.434 . S
C1875 C1866 1.429 . S
C1875 N1872 1.350 . S
C1875 C1874 1.434 . S
C1876 C1877 1.369 . S
C1876 C1878 1.419 1_565 S
C1876 H1880 0.930 . S
C1877 C1876 1.369 . S
C1877 C1886 1.429 . S
C1878 C1876 1.419 1_545 S
C1878 C1879 1.363 . S
C1878 H1881 0.929 . S
C1879 C1878 1.363 . S
C1879 C1885 1.428 1_545 S
H1880 C1876 0.930 . S
H1881 C1878 0.929 . S
S1882 N1883 1.613 . S
S1882 N1884 1.610 1_565 S
N1883 S1882 1.613 . S
N1883 C1886 1.350 . S
N1884 S1882 1.610 1_545 S
N1884 C1885 1.351 1_545 S
C1885 C1879 1.428 1_565 S
C1885 N1884 1.351 1_565 S
C1885 C1886 1.434 . S
C1886 C1877 1.429 . S
C1886 N1883 1.350 . S
C1886 C1885 1.434 . S
C1887 C1888 1.369 . S
C1887 C1889 1.419 . S
C1887 H1891 0.930 . S
C1888 C1887 1.369 . S
C1888 C1897 1.429 . S
C1889 C1887 1.419 . S
C1889 C1890 1.363 . S
C1889 H1892 0.929 . S
C1890 C1889 1.363 . S
C1890 C1896 1.428 . S
H1891 C1887 0.930 . S
H1892 C1889 0.929 . S
S1893 N1894 1.613 . S
S1893 N1895 1.610 . S
N1894 S1893 1.613 . S
N1894 C1897 1.350 . S
N1895 S1893 1.610 . S
N1895 C1896 1.351 . S
C1896 C1890 1.428 . S
C1896 N1895 1.351 . S
C1896 C1897 1.434 . S
C1897 C1888 1.429 . S
C1897 N1894 1.350 . S
C1897 C1896 1.434 . S
C1898 C1899 1.369 . S
C1898 C1900 1.419 1_565 S
C1898 H1902 0.930 . S
C1899 C1898 1.369 . S
C1899 C1908 1.429 . S
C1900 C1898 1.419 1_545 S
C1900 C1901 1.363 . S
C1900 H1903 0.929 . S
C1901 C1900 1.363 . S
C1901 C1907 1.428 1_545 S
H1902 C1898 0.930 . S
H1903 C1900 0.929 . S
S1904 N1905 1.613 . S
S1904 N1906 1.610 . S
N1905 S1904 1.613 . S
N1905 C1908 1.350 . S
N1906 S1904 1.610 . S
N1906 C1907 1.351 . S
C1907 C1901 1.428 1_565 S
C1907 N1906 1.351 . S
C1907 C1908 1.434 . S
C1908 C1899 1.429 . S
C1908 N1905 1.350 . S
C1908 C1907 1.434 . S
C1909 C1910 1.369 . S
C1909 C1911 1.419 . S
C1909 H1913 0.930 . S
C1910 C1909 1.369 . S
C1910 C1919 1.429 . S
C1911 C1909 1.419 . S
C1911 C1912 1.363 . S
C1911 H1914 0.929 . S
C1912 C1911 1.363 . S
C1912 C1918 1.428 . S
H1913 C1909 0.930 . S
H1914 C1911 0.929 . S
S1915 N1916 1.613 . S
S1915 N1917 1.610 . S
N1916 S1915 1.613 . S
N1916 C1919 1.350 . S
N1917 S1915 1.610 . S
N1917 C1918 1.351 . S
C1918 C1912 1.428 . S
C1918 N1917 1.351 . S
C1918 C1919 1.434 . S
C1919 C1910 1.429 . S
C1919 N1916 1.350 . S
C1919 C1918 1.434 . S
C1920 C1921 1.369 . S
C1920 C1922 1.419 1_655 S
C1920 H1924 0.932 . S
C1921 C1920 1.369 . S
C1921 C1930 1.429 . S
C1922 C1920 1.419 1_455 S
C1922 C1923 1.363 . S
C1922 H1925 0.929 . S
C1923 C1922 1.363 . S
C1923 C1929 1.447 . S
H1924 C1920 0.932 . S
H1925 C1922 0.929 . S
S1926 N1927 1.613 . S
S1926 N1928 1.610 . S
N1927 S1926 1.613 . S
N1927 C1930 1.350 . S
N1928 S1926 1.610 . S
N1928 C1929 1.349 1_655 S
C1929 C1923 1.447 . S
C1929 N1928 1.349 1_455 S
C1929 C1930 1.415 1_455 S
C1930 C1921 1.429 . S
C1930 N1927 1.350 . S
C1930 C1929 1.415 1_655 S
C1931 C1932 1.369 . S
C1931 C1933 1.419 . S
C1931 H1935 0.930 . S
C1932 C1931 1.369 . S
C1932 C1941 1.429 . S
C1933 C1931 1.419 . S
C1933 C1934 1.363 . S
C1933 H1936 0.929 . S
C1934 C1933 1.363 . S
C1934 C1940 1.428 . S
H1935 C1931 0.930 . S
H1936 C1933 0.929 . S
S1937 N1938 1.613 . S
S1937 N1939 1.610 . S
N1938 S1937 1.613 . S
N1938 C1941 1.350 . S
N1939 S1937 1.610 . S
N1939 C1940 1.351 . S
C1940 C1934 1.428 . S
C1940 N1939 1.351 . S
C1940 C1941 1.434 . S
C1941 C1932 1.429 . S
C1941 N1938 1.350 . S
C1941 C1940 1.434 . S
C1942 C1943 1.369 . S
C1942 C1944 1.419 1_655 S
C1942 H1946 0.930 . S
C1943 C1942 1.369 . S
C1943 C1952 1.429 . S
C1944 C1942 1.419 1_455 S
C1944 C1945 1.363 . S
C1944 H1947 0.929 . S
C1945 C1944 1.363 . S
C1945 C1951 1.428 . S
H1946 C1942 0.930 . S
H1947 C1944 0.929 . S
S1948 N1949 1.613 . S
S1948 N1950 1.610 1_655 S
N1949 S1948 1.613 . S
N1949 C1952 1.350 . S
N1950 S1948 1.610 1_455 S
N1950 C1951 1.351 . S
C1951 C1945 1.428 . S
C1951 N1950 1.351 . S
C1951 C1952 1.434 1_455 S
C1952 C1943 1.429 . S
C1952 N1949 1.350 . S
C1952 C1951 1.434 1_655 S
C1953 C1954 1.369 . S
C1953 C1955 1.419 1_655 S
C1953 H1957 0.930 . S
C1954 C1953 1.369 . S
C1954 C1963 1.429 . S
C1955 C1953 1.419 1_455 S
C1955 C1956 1.363 . S
C1955 H1958 0.929 . S
C1956 C1955 1.363 . S
C1956 C1962 1.428 . S
H1957 C1953 0.930 . S
H1958 C1955 0.929 . S
S1959 N1960 1.613 . S
S1959 N1961 1.610 1_655 S
N1960 S1959 1.613 . S
N1960 C1963 1.350 . S
N1961 S1959 1.610 1_455 S
N1961 C1962 1.351 . S
C1962 C1956 1.428 . S
C1962 N1961 1.351 . S
C1962 C1963 1.434 1_455 S
C1963 C1954 1.429 . S
C1963 N1960 1.350 . S
C1963 C1962 1.434 1_655 S
C1964 C1965 1.369 1_545 S
C1964 C1966 1.419 . S
C1964 H1968 0.930 . S
C1965 C1964 1.369 1_565 S
C1965 C1974 1.429 . S
C1966 C1964 1.419 . S
C1966 C1967 1.363 . S
C1966 H1969 0.929 . S
C1967 C1966 1.363 . S
C1967 C1973 1.428 1_545 S
H1968 C1964 0.930 . S
H1969 C1966 0.929 . S
S1970 N1971 1.613 . S
S1970 N1972 1.610 . S
N1971 S1970 1.613 . S
N1971 C1974 1.350 . S
N1972 S1970 1.610 . S
N1972 C1973 1.351 . S
C1973 C1967 1.428 1_565 S
C1973 N1972 1.351 . S
C1973 C1974 1.434 . S
C1974 C1965 1.429 . S
C1974 N1971 1.350 . S
C1974 C1973 1.434 . S
C1975 C1976 1.360 1_556 S
C1975 C1977 1.427 . S
C1975 H1979 0.931 . S
C1976 C1975 1.360 1_554 S
C1976 C1985 1.429 . S
C1977 C1975 1.427 . S
C1977 C1978 1.363 . S
C1977 H1980 0.929 . S
C1978 C1977 1.363 . S
C1978 C1984 1.428 1_556 S
H1979 C1975 0.931 . S
H1980 C1977 0.929 . S
S1981 N1982 1.613 . S
S1981 N1983 1.610 . S
N1982 S1981 1.613 . S
N1982 C1985 1.350 . S
N1983 S1981 1.610 . S
N1983 C1984 1.351 . S
C1984 C1978 1.428 1_554 S
C1984 N1983 1.351 . S
C1984 C1985 1.434 . S
C1985 C1976 1.429 . S
C1985 N1982 1.350 . S
C1985 C1984 1.434 . S
C1986 C1987 1.369 . S
C1986 C1988 1.419 . S
C1986 H1990 0.930 . S
C1987 C1986 1.369 . S
C1987 C1996 1.429 . S
C1988 C1986 1.419 . S
C1988 C1989 1.363 . S
C1988 H1991 0.929 . S
C1989 C1988 1.363 . S
C1989 C1995 1.428 . S
H1990 C1986 0.930 . S
H1991 C1988 0.929 . S
S1992 N1993 1.613 . S
S1992 N1994 1.610 . S
N1993 S1992 1.613 . S
N1993 C1996 1.350 . S
N1994 S1992 1.610 . S
N1994 C1995 1.351 . S
C1995 C1989 1.428 . S
C1995 N1994 1.351 . S
C1995 C1996 1.434 . S
C1996 C1987 1.429 . S
C1996 N1993 1.350 . S
C1996 C1995 1.434 . S
C1997 C1998 1.369 1_554 S
C1997 C1999 1.419 . S
C1997 H2001 0.930 . S
C1998 C1997 1.369 1_556 S
C1998 C2007 1.429 . S
C1999 C1997 1.419 . S
C1999 C2000 1.363 . S
C1999 H2002 0.929 . S
C2000 C1999 1.363 . S
C2000 C2006 1.428 1_554 S
H2001 C1997 0.930 . S
H2002 C1999 0.929 . S
S2003 N2004 1.613 . S
S2003 N2005 1.610 . S
N2004 S2003 1.613 . S
N2004 C2007 1.350 . S
N2005 S2003 1.610 . S
N2005 C2006 1.351 . S
C2006 C2000 1.428 1_556 S
C2006 N2005 1.351 . S
C2006 C2007 1.434 . S
C2007 C1998 1.429 . S
C2007 N2004 1.350 . S
C2007 C2006 1.434 . S
C2008 C2009 1.369 1_556 S
C2008 C2010 1.419 . S
C2008 H2012 0.930 . S
C2009 C2008 1.369 1_554 S
C2009 C2018 1.429 . S
C2010 C2008 1.419 . S
C2010 C2011 1.363 . S
C2010 H2013 0.929 . S
C2011 C2010 1.363 . S
C2011 C2017 1.428 1_556 S
H2012 C2008 0.930 . S
H2013 C2010 0.929 . S
S2014 N2015 1.613 . S
S2014 N2016 1.610 . S
N2015 S2014 1.613 . S
N2015 C2018 1.350 . S
N2016 S2014 1.610 . S
N2016 C2017 1.351 . S
C2017 C2011 1.428 1_554 S
C2017 N2016 1.351 . S
C2017 C2018 1.434 . S
C2018 C2009 1.429 . S
C2018 N2015 1.350 . S
C2018 C2017 1.434 . S
C2019 C2020 1.369 . S
C2019 C2021 1.419 . S
C2019 H2023 0.930 . S
C2020 C2019 1.369 . S
C2020 C2029 1.429 . S
C2021 C2019 1.419 . S
C2021 C2022 1.363 . S
C2021 H2024 0.929 . S
C2022 C2021 1.363 . S
C2022 C2028 1.428 . S
H2023 C2019 0.930 . S
H2024 C2021 0.929 . S
S2025 N2026 1.613 . S
S2025 N2027 1.610 . S
N2026 S2025 1.613 . S
N2026 C2029 1.350 . S
N2027 S2025 1.610 . S
N2027 C2028 1.351 . S
C2028 C2022 1.428 . S
C2028 N2027 1.351 . S
C2028 C2029 1.434 . S
C2029 C2020 1.429 . S
C2029 N2026 1.350 . S
C2029 C2028 1.434 . S
C2030 C2031 1.369 . S
C2030 C2032 1.419 . S
C2030 H2034 0.930 . S
C2031 C2030 1.369 . S
C2031 C2040 1.429 . S
C2032 C2030 1.419 . S
C2032 C2033 1.363 . S
C2032 H2035 0.929 . S
C2033 C2032 1.363 . S
C2033 C2039 1.428 . S
H2034 C2030 0.930 . S
H2035 C2032 0.929 . S
S2036 N2037 1.613 . S
S2036 N2038 1.610 . S
N2037 S2036 1.613 . S
N2037 C2040 1.350 . S
N2038 S2036 1.610 . S
N2038 C2039 1.351 . S
C2039 C2033 1.428 . S
C2039 N2038 1.351 . S
C2039 C2040 1.434 . S
C2040 C2031 1.429 . S
C2040 N2037 1.350 . S
C2040 C2039 1.434 . S
C2041 C2042 1.369 . S
C2041 C2043 1.419 . S
C2041 H2045 0.930 . S
C2042 C2041 1.369 . S
C2042 C2051 1.429 . S
C2043 C2041 1.419 . S
C2043 C2044 1.363 . S
C2043 H2046 0.929 . S
C2044 C2043 1.363 . S
C2044 C2050 1.428 . S
H2045 C2041 0.930 . S
H2046 C2043 0.929 . S
S2047 N2048 1.613 . S
S2047 N2049 1.610 . S
N2048 S2047 1.613 . S
N2048 C2051 1.350 . S
N2049 S2047 1.610 . S
N2049 C2050 1.351 . S
C2050 C2044 1.428 . S
C2050 N2049 1.351 . S
C2050 C2051 1.434 . S
C2051 C2042 1.429 . S
C2051 N2048 1.350 . S
C2051 C2050 1.434 . S
C2052 C2053 1.369 . S
C2052 C2054 1.419 . S
C2052 H2056 0.930 . S
C2053 C2052 1.369 . S
C2053 C2062 1.429 . S
C2054 C2052 1.419 . S
C2054 C2055 1.363 . S
C2054 H2057 0.929 . S
C2055 C2054 1.363 . S
C2055 C2061 1.428 . S
H2056 C2052 0.930 . S
H2057 C2054 0.929 . S
S2058 N2059 1.613 . S
S2058 N2060 1.610 . S
N2059 S2058 1.613 . S
N2059 C2062 1.350 . S
N2060 S2058 1.610 . S
N2060 C2061 1.351 . S
C2061 C2055 1.428 . S
C2061 N2060 1.351 . S
C2061 C2062 1.434 . S
C2062 C2053 1.429 . S
C2062 N2059 1.350 . S
C2062 C2061 1.434 . S
C2063 C2064 1.369 . S
C2063 C2065 1.419 . S
C2063 H2067 0.930 . S
C2064 C2063 1.369 . S
C2064 C2073 1.429 1_565 S
C2065 C2063 1.419 . S
C2065 C2066 1.363 1_565 S
C2065 H2068 0.929 . S
C2066 C2065 1.363 1_545 S
C2066 C2072 1.428 . S
H2067 C2063 0.930 . S
H2068 C2065 0.929 . S
S2069 N2070 1.613 . S
S2069 N2071 1.610 . S
N2070 S2069 1.613 . S
N2070 C2073 1.350 . S
N2071 S2069 1.610 . S
N2071 C2072 1.351 . S
C2072 C2066 1.428 . S
C2072 N2071 1.351 . S
C2072 C2073 1.434 . S
C2073 C2064 1.429 1_545 S
C2073 N2070 1.350 . S
C2073 C2072 1.434 . S
C2074 C2075 1.369 . S
C2074 C2076 1.419 . S
C2074 H2078 0.930 . S
C2075 C2074 1.369 . S
C2075 C2084 1.429 . S
C2076 C2074 1.419 . S
C2076 C2077 1.363 . S
C2076 H2079 0.929 . S
C2077 C2076 1.363 . S
C2077 C2083 1.428 . S
H2078 C2074 0.930 . S
H2079 C2076 0.929 . S
S2080 N2081 1.613 . S
S2080 N2082 1.610 . S
N2081 S2080 1.613 . S
N2081 C2084 1.350 . S
N2082 S2080 1.610 . S
N2082 C2083 1.351 . S
C2083 C2077 1.428 . S
C2083 N2082 1.351 . S
C2083 C2084 1.434 . S
C2084 C2075 1.429 . S
C2084 N2081 1.350 . S
C2084 C2083 1.434 . S
C2085 C2086 1.369 . S
C2085 C2087 1.419 . S
C2085 H2089 0.930 . S
C2086 C2085 1.369 . S
C2086 C2095 1.429 1_455 S
C2087 C2085 1.419 . S
C2087 C2088 1.363 1_455 S
C2087 H2090 0.929 . S
C2088 C2087 1.363 1_655 S
C2088 C2094 1.428 . S
H2089 C2085 0.930 . S
H2090 C2087 0.929 . S
S2091 N2092 1.613 . S
S2091 N2093 1.610 . S
N2092 S2091 1.613 . S
N2092 C2095 1.350 . S
N2093 S2091 1.610 . S
N2093 C2094 1.351 . S
C2094 C2088 1.428 . S
C2094 N2093 1.351 . S
C2094 C2095 1.434 . S
C2095 C2086 1.429 1_655 S
C2095 N2092 1.350 . S
C2095 C2094 1.434 . S
C2096 C2097 1.369 . S
C2096 C2098 1.419 . S
C2096 H2100 0.930 . S
C2097 C2096 1.369 . S
C2097 C2106 1.429 . S
C2098 C2096 1.419 . S
C2098 C2099 1.363 . S
C2098 H2101 0.929 . S
C2099 C2098 1.363 . S
C2099 C2105 1.428 . S
H2100 C2096 0.930 . S
H2101 C2098 0.929 . S
S2102 N2103 1.613 . S
S2102 N2104 1.610 . S
N2103 S2102 1.613 . S
N2103 C2106 1.350 . S
N2104 S2102 1.610 . S
N2104 C2105 1.351 . S
C2105 C2099 1.428 . S
C2105 N2104 1.351 . S
C2105 C2106 1.434 . S
C2106 C2097 1.429 . S
C2106 N2103 1.350 . S
C2106 C2105 1.434 . S
C2107 C2108 1.369 . S
C2107 C2109 1.419 . S
C2107 H2111 0.930 . S
C2108 C2107 1.369 . S
C2108 C2117 1.429 . S
C2109 C2107 1.419 . S
C2109 C2110 1.363 . S
C2109 H2112 0.929 . S
C2110 C2109 1.363 . S
C2110 C2116 1.428 . S
H2111 C2107 0.930 . S
H2112 C2109 0.929 . S
S2113 N2114 1.613 . S
S2113 N2115 1.610 . S
N2114 S2113 1.613 . S
N2114 C2117 1.350 . S
N2115 S2113 1.610 . S
N2115 C2116 1.351 . S
C2116 C2110 1.428 . S
C2116 N2115 1.351 . S
C2116 C2117 1.434 . S
C2117 C2108 1.429 . S
C2117 N2114 1.350 . S
C2117 C2116 1.434 . S
C2118 C2119 1.369 . S
C2118 C2120 1.419 . S
C2118 H2122 0.930 . S
C2119 C2118 1.369 . S
C2119 C2128 1.429 . S
C2120 C2118 1.419 . S
C2120 C2121 1.363 . S
C2120 H2123 0.929 . S
C2121 C2120 1.363 . S
C2121 C2127 1.428 . S
H2122 C2118 0.930 . S
H2123 C2120 0.929 . S
S2124 N2125 1.613 . S
S2124 N2126 1.610 . S
N2125 S2124 1.613 . S
N2125 C2128 1.350 . S
N2126 S2124 1.610 . S
N2126 C2127 1.351 . S
C2127 C2121 1.428 . S
C2127 N2126 1.351 . S
C2127 C2128 1.434 . S
C2128 C2119 1.429 . S
C2128 N2125 1.350 . S
C2128 C2127 1.434 . S
C2129 C2130 1.369 . S
C2129 C2131 1.419 . S
C2129 H2133 0.930 . S
C2130 C2129 1.369 . S
C2130 C2139 1.429 . S
C2131 C2129 1.419 . S
C2131 C2132 1.363 . S
C2131 H2134 0.929 . S
C2132 C2131 1.363 . S
C2132 C2138 1.428 . S
H2133 C2129 0.930 . S
H2134 C2131 0.929 . S
S2135 N2136 1.613 . S
S2135 N2137 1.610 . S
N2136 S2135 1.613 . S
N2136 C2139 1.350 . S
N2137 S2135 1.610 . S
N2137 C2138 1.351 . S
C2138 C2132 1.428 . S
C2138 N2137 1.351 . S
C2138 C2139 1.434 . S
C2139 C2130 1.429 . S
C2139 N2136 1.350 . S
C2139 C2138 1.434 . S
C2140 C2141 1.369 . S
C2140 C2142 1.419 1_565 S
C2140 H2144 0.930 . S
C2141 C2140 1.369 . S
C2141 C2150 1.429 . S
C2142 C2140 1.419 1_545 S
C2142 C2143 1.363 . S
C2142 H2145 0.929 . S
C2143 C2142 1.363 . S
C2143 C2149 1.428 . S
H2144 C2140 0.930 . S
H2145 C2142 0.929 . S
S2146 N2147 1.613 1_545 S
S2146 N2148 1.610 . S
N2147 S2146 1.613 1_565 S
N2147 C2150 1.350 . S
N2148 S2146 1.610 . S
N2148 C2149 1.351 . S
C2149 C2143 1.428 . S
C2149 N2148 1.351 . S
C2149 C2150 1.434 1_545 S
C2150 C2141 1.429 . S
C2150 N2147 1.350 . S
C2150 C2149 1.434 1_565 S
C2151 C2152 1.369 . S
C2151 C2153 1.419 . S
C2151 H2155 0.930 . S
C2152 C2151 1.369 . S
C2152 C2161 1.429 . S
C2153 C2151 1.419 . S
C2153 C2154 1.363 . S
C2153 H2156 0.929 . S
C2154 C2153 1.363 . S
C2154 C2160 1.428 . S
H2155 C2151 0.930 . S
H2156 C2153 0.929 . S
S2157 N2158 1.613 . S
S2157 N2159 1.610 . S
N2158 S2157 1.613 . S
N2158 C2161 1.350 . S
N2159 S2157 1.610 . S
N2159 C2160 1.351 . S
C2160 C2154 1.428 . S
C2160 N2159 1.351 . S
C2160 C2161 1.434 . S
C2161 C2152 1.429 . S
C2161 N2158 1.350 . S
C2161 C2160 1.434 . S
C2162 C2163 1.369 . S
C2162 C2164 1.441 . S
C2162 H2166 0.930 . S
C2163 C2162 1.369 . S
C2163 C2172 1.429 1_556 S
C2164 C2162 1.441 . S
C2164 C2165 1.338 1_556 S
C2164 H2167 0.932 . S
C2165 C2164 1.338 1_554 S
C2165 C2171 1.428 . S
H2166 C2162 0.930 . S
H2167 C2164 0.932 . S
S2168 N2169 1.613 . S
S2168 N2170 1.610 . S
N2169 S2168 1.613 . S
N2169 C2172 1.350 . S
N2170 S2168 1.610 . S
N2170 C2171 1.351 . S
C2171 C2165 1.428 . S
C2171 N2170 1.351 . S
C2171 C2172 1.434 . S
C2172 C2163 1.429 1_554 S
C2172 N2169 1.350 . S
C2172 C2171 1.434 . S
C2173 C2174 1.369 1_545 S
C2173 C2175 1.419 . S
C2173 H2177 0.930 . S
C2174 C2173 1.369 1_565 S
C2174 C2183 1.429 . S
C2175 C2173 1.419 . S
C2175 C2176 1.363 . S
C2175 H2178 0.929 . S
C2176 C2175 1.363 . S
C2176 C2182 1.428 1_545 S
H2177 C2173 0.930 . S
H2178 C2175 0.929 . S
S2179 N2180 1.613 . S
S2179 N2181 1.610 . S
N2180 S2179 1.613 . S
N2180 C2183 1.350 . S
N2181 S2179 1.610 . S
N2181 C2182 1.351 . S
C2182 C2176 1.428 1_565 S
C2182 N2181 1.351 . S
C2182 C2183 1.434 . S
C2183 C2174 1.429 . S
C2183 N2180 1.350 . S
C2183 C2182 1.434 . S
C2184 C2185 1.369 . S
C2184 C2186 1.419 . S
C2184 H2188 0.930 . S
C2185 C2184 1.369 . S
C2185 C2194 1.429 . S
C2186 C2184 1.419 . S
C2186 C2187 1.363 . S
C2186 H2189 0.929 . S
C2187 C2186 1.363 . S
C2187 C2193 1.428 . S
H2188 C2184 0.930 . S
H2189 C2186 0.929 . S
S2190 N2191 1.613 . S
S2190 N2192 1.610 . S
N2191 S2190 1.613 . S
N2191 C2194 1.350 . S
N2192 S2190 1.610 . S
N2192 C2193 1.351 . S
C2193 C2187 1.428 . S
C2193 N2192 1.351 . S
C2193 C2194 1.434 . S
C2194 C2185 1.429 . S
C2194 N2191 1.350 . S
C2194 C2193 1.434 . S
C2195 C2196 1.369 . S
C2195 C2197 1.419 . S
C2195 H2199 0.930 . S
C2196 C2195 1.369 . S
C2196 C2205 1.429 . S
C2197 C2195 1.419 . S
C2197 C2198 1.363 . S
C2197 H2200 0.929 . S
C2198 C2197 1.363 . S
C2198 C2204 1.428 . S
H2199 C2195 0.930 . S
H2200 C2197 0.929 . S
S2201 N2202 1.613 . S
S2201 N2203 1.610 . S
N2202 S2201 1.613 . S
N2202 C2205 1.350 . S
N2203 S2201 1.610 . S
N2203 C2204 1.351 . S
C2204 C2198 1.428 . S
C2204 N2203 1.351 . S
C2204 C2205 1.434 . S
C2205 C2196 1.429 . S
C2205 N2202 1.350 . S
C2205 C2204 1.434 . S
C2206 C2207 1.369 . S
C2206 C2208 1.419 . S
C2206 H2210 0.930 . S
C2207 C2206 1.369 . S
C2207 C2216 1.429 . S
C2208 C2206 1.419 . S
C2208 C2209 1.363 . S
C2208 H2211 0.929 . S
C2209 C2208 1.363 . S
C2209 C2215 1.428 . S
H2210 C2206 0.930 . S
H2211 C2208 0.929 . S
S2212 N2213 1.613 . S
S2212 N2214 1.610 . S
N2213 S2212 1.613 . S
N2213 C2216 1.350 . S
N2214 S2212 1.610 . S
N2214 C2215 1.351 . S
C2215 C2209 1.428 . S
C2215 N2214 1.351 . S
C2215 C2216 1.434 . S
C2216 C2207 1.429 . S
C2216 N2213 1.350 . S
C2216 C2215 1.434 . S
C2217 C2218 1.369 . S
C2217 C2219 1.419 . S
C2217 H2221 0.930 . S
C2218 C2217 1.369 . S
C2218 C2227 1.429 . S
C2219 C2217 1.419 . S
C2219 C2220 1.363 . S
C2219 H2222 0.929 . S
C2220 C2219 1.363 . S
C2220 C2226 1.428 . S
H2221 C2217 0.930 . S
H2222 C2219 0.929 . S
S2223 N2224 1.613 1_545 S
S2223 N2225 1.610 . S
N2224 S2223 1.613 1_565 S
N2224 C2227 1.350 . S
N2225 S2223 1.610 . S
N2225 C2226 1.351 1_545 S
C2226 C2220 1.428 . S
C2226 N2225 1.351 1_565 S
C2226 C2227 1.434 . S
C2227 C2218 1.429 . S
C2227 N2224 1.350 . S
C2227 C2226 1.434 . S
C2228 C2229 1.369 . S
C2228 C2230 1.419 . S
C2228 H2232 0.930 . S
C2229 C2228 1.369 . S
C2229 C2238 1.429 . S
C2230 C2228 1.419 . S
C2230 C2231 1.363 . S
C2230 H2233 0.929 . S
C2231 C2230 1.363 . S
C2231 C2237 1.428 . S
H2232 C2228 0.930 . S
H2233 C2230 0.929 . S
S2234 N2235 1.613 . S
S2234 N2236 1.610 . S
N2235 S2234 1.613 . S
N2235 C2238 1.350 . S
N2236 S2234 1.610 . S
N2236 C2237 1.351 . S
C2237 C2231 1.428 . S
C2237 N2236 1.351 . S
C2237 C2238 1.434 . S
C2238 C2229 1.429 . S
C2238 N2235 1.350 . S
C2238 C2237 1.434 . S
C2239 C2240 1.369 . S
C2239 C2241 1.419 1_455 S
C2239 H2243 0.930 . S
C2240 C2239 1.369 . S
C2240 C2249 1.429 . S
C2241 C2239 1.419 1_655 S
C2241 C2242 1.363 . S
C2241 H2244 0.929 . S
C2242 C2241 1.363 . S
C2242 C2248 1.428 1_655 S
H2243 C2239 0.930 . S
H2244 C2241 0.929 . S
S2245 N2246 1.613 1_556 S
S2245 N2247 1.610 1_556 S
N2246 S2245 1.613 1_554 S
N2246 C2249 1.350 . S
N2247 S2245 1.610 1_554 S
N2247 C2248 1.351 . S
C2248 C2242 1.428 1_455 S
C2248 N2247 1.351 . S
C2248 C2249 1.434 . S
C2249 C2240 1.429 . S
C2249 N2246 1.350 . S
C2249 C2248 1.434 . S
C2250 C2251 1.369 . S
C2250 C2252 1.419 . S
C2250 H2254 0.930 . S
C2251 C2250 1.369 . S
C2251 C2260 1.429 . S
C2252 C2250 1.419 . S
C2252 C2253 1.363 . S
C2252 H2255 0.929 . S
C2253 C2252 1.363 . S
C2253 C2259 1.428 . S
H2254 C2250 0.930 . S
H2255 C2252 0.929 . S
S2256 N2257 1.613 . S
S2256 N2258 1.610 . S
N2257 S2256 1.613 . S
N2257 C2260 1.350 . S
N2258 S2256 1.610 . S
N2258 C2259 1.351 . S
C2259 C2253 1.428 . S
C2259 N2258 1.351 . S
C2259 C2260 1.434 . S
C2260 C2251 1.429 . S
C2260 N2257 1.350 . S
C2260 C2259 1.434 . S
C2261 C2262 1.369 . S
C2261 C2263 1.419 1_655 S
C2261 H2265 0.930 . S
C2262 C2261 1.369 . S
C2262 C2271 1.429 . S
C2263 C2261 1.419 1_455 S
C2263 C2264 1.363 . S
C2263 H2266 0.929 . S
C2264 C2263 1.363 . S
C2264 C2270 1.428 1_455 S
H2265 C2261 0.930 . S
H2266 C2263 0.929 . S
S2267 N2268 1.613 1_556 S
S2267 N2269 1.610 1_556 S
N2268 S2267 1.613 1_554 S
N2268 C2271 1.350 . S
N2269 S2267 1.610 1_554 S
N2269 C2270 1.351 . S
C2270 C2264 1.428 1_655 S
C2270 N2269 1.351 . S
C2270 C2271 1.434 . S
C2271 C2262 1.429 . S
C2271 N2268 1.350 . S
C2271 C2270 1.434 . S
C2272 C2273 1.369 . S
C2272 C2274 1.419 . S
C2272 H2276 0.930 . S
C2273 C2272 1.369 . S
C2273 C2282 1.429 . S
C2274 C2272 1.419 . S
C2274 C2275 1.363 . S
C2274 H2277 0.929 . S
C2275 C2274 1.363 . S
C2275 C2281 1.428 . S
H2276 C2272 0.930 . S
H2277 C2274 0.929 . S
S2278 N2279 1.613 . S
S2278 N2280 1.610 . S
N2279 S2278 1.613 . S
N2279 C2282 1.350 . S
N2280 S2278 1.610 . S
N2280 C2281 1.351 . S
C2281 C2275 1.428 . S
C2281 N2280 1.351 . S
C2281 C2282 1.434 . S
C2282 C2273 1.429 . S
C2282 N2279 1.350 . S
C2282 C2281 1.434 . S
C2283 C2284 1.369 1_554 S
C2283 C2285 1.419 . S
C2283 H2287 0.930 . S
C2284 C2283 1.369 1_556 S
C2284 C2293 1.429 . S
C2285 C2283 1.419 . S
C2285 C2286 1.363 . S
C2285 H2288 0.929 . S
C2286 C2285 1.363 . S
C2286 C2292 1.428 . S
H2287 C2283 0.930 . S
H2288 C2285 0.929 . S
S2289 N2290 1.613 . S
S2289 N2291 1.610 . S
N2290 S2289 1.613 . S
N2290 C2293 1.350 . S
N2291 S2289 1.610 . S
N2291 C2292 1.351 1_556 S
C2292 C2286 1.428 . S
C2292 N2291 1.351 1_554 S
C2292 C2293 1.434 1_554 S
C2293 C2284 1.429 . S
C2293 N2290 1.350 . S
C2293 C2292 1.434 1_556 S
C2294 C2295 1.369 . S
C2294 C2296 1.419 . S
C2294 H2298 0.930 . S
C2295 C2294 1.369 . S
C2295 C2304 1.429 . S
C2296 C2294 1.419 . S
C2296 C2297 1.363 . S
C2296 H2299 0.929 . S
C2297 C2296 1.363 . S
C2297 C2303 1.428 . S
H2298 C2294 0.930 . S
H2299 C2296 0.929 . S
S2300 N2301 1.613 . S
S2300 N2302 1.610 . S
N2301 S2300 1.613 . S
N2301 C2304 1.350 . S
N2302 S2300 1.610 . S
N2302 C2303 1.351 . S
C2303 C2297 1.428 . S
C2303 N2302 1.351 . S
C2303 C2304 1.434 . S
C2304 C2295 1.429 . S
C2304 N2301 1.350 . S
C2304 C2303 1.434 . S
C2305 C2306 1.369 . S
C2305 C2307 1.419 1_556 S
C2305 H2309 0.930 . S
C2306 C2305 1.369 . S
C2306 C2315 1.429 . S
C2307 C2305 1.419 1_554 S
C2307 C2308 1.363 . S
C2307 H2310 0.929 . S
C2308 C2307 1.363 . S
C2308 C2314 1.428 . S
H2309 C2305 0.930 . S
H2310 C2307 0.929 . S
S2311 N2312 1.604 1_564 S
S2311 N2313 1.580 1_565 S
N2312 S2311 1.604 1_546 S
N2312 C2315 1.350 . S
N2313 S2311 1.580 1_545 S
N2313 C2314 1.351 . S
C2314 C2308 1.428 . S
C2314 N2313 1.351 . S
C2314 C2315 1.434 1_554 S
C2315 C2306 1.429 . S
C2315 N2312 1.350 . S
C2315 C2314 1.434 1_556 S
C2316 C2317 1.369 . S
C2316 C2318 1.419 . S
C2316 H2320 0.930 . S
C2317 C2316 1.369 . S
C2317 C2326 1.429 . S
C2318 C2316 1.419 . S
C2318 C2319 1.363 . S
C2318 H2321 0.929 . S
C2319 C2318 1.363 . S
C2319 C2325 1.428 . S
H2320 C2316 0.930 . S
H2321 C2318 0.929 . S
S2322 N2323 1.613 . S
S2322 N2324 1.610 . S
N2323 S2322 1.613 . S
N2323 C2326 1.350 . S
N2324 S2322 1.610 . S
N2324 C2325 1.351 . S
C2325 C2319 1.428 . S
C2325 N2324 1.351 . S
C2325 C2326 1.434 . S
C2326 C2317 1.429 . S
C2326 N2323 1.350 . S
C2326 C2325 1.434 . S
C2327 C2328 1.369 . S
C2327 C2329 1.419 1_556 S
C2327 H2331 0.930 . S
C2328 C2327 1.369 . S
C2328 C2337 1.429 . S
C2329 C2327 1.419 1_554 S
C2329 C2330 1.363 . S
C2329 H2332 0.929 . S
C2330 C2329 1.363 . S
C2330 C2336 1.428 1_554 S
H2331 C2327 0.930 . S
H2332 C2329 0.929 . S
S2333 N2334 1.613 . S
S2333 N2335 1.610 . S
N2334 S2333 1.613 . S
N2334 C2337 1.350 . S
N2335 S2333 1.610 . S
N2335 C2336 1.351 . S
C2336 C2330 1.428 1_556 S
C2336 N2335 1.351 . S
C2336 C2337 1.434 . S
C2337 C2328 1.429 . S
C2337 N2334 1.350 . S
C2337 C2336 1.434 . S
C2338 C2339 1.369 . S
C2338 C2340 1.419 . S
C2338 H2342 0.930 . S
C2339 C2338 1.369 . S
C2339 C2348 1.429 . S
C2340 C2338 1.419 . S
C2340 C2341 1.363 . S
C2340 H2343 0.929 . S
C2341 C2340 1.363 . S
C2341 C2347 1.428 . S
H2342 C2338 0.930 . S
H2343 C2340 0.929 . S
S2344 N2345 1.613 . S
S2344 N2346 1.610 . S
N2345 S2344 1.613 . S
N2345 C2348 1.350 . S
N2346 S2344 1.610 . S
N2346 C2347 1.351 . S
C2347 C2341 1.428 . S
C2347 N2346 1.351 . S
C2347 C2348 1.434 . S
C2348 C2339 1.429 . S
C2348 N2345 1.350 . S
C2348 C2347 1.434 . S
C2349 C2350 1.369 . S
C2349 C2351 1.419 1_556 S
C2349 H2353 0.930 1_655 S
C2350 C2349 1.369 . S
C2350 C2359 1.429 . S
C2351 C2349 1.419 1_554 S
C2351 C2352 1.363 . S
C2351 H2354 0.929 . S
C2352 C2351 1.363 . S
C2352 C2358 1.428 . S
H2353 C2349 0.930 1_455 S
H2354 C2351 0.929 . S
S2355 N2356 1.613 . S
S2355 N2357 1.610 1_556 S
N2356 S2355 1.613 . S
N2356 C2359 1.350 . S
N2357 S2355 1.610 1_554 S
N2357 C2358 1.351 . S
C2358 C2352 1.428 . S
C2358 N2357 1.351 . S
C2358 C2359 1.434 1_554 S
C2359 C2350 1.429 . S
C2359 N2356 1.350 . S
C2359 C2358 1.434 1_556 S
C2360 C2361 1.369 . S
C2360 C2362 1.419 . S
C2360 H2364 0.930 . S
C2361 C2360 1.369 . S
C2361 C2370 1.429 . S
C2362 C2360 1.419 . S
C2362 C2363 1.363 . S
C2362 H2365 0.929 . S
C2363 C2362 1.363 . S
C2363 C2369 1.428 . S
H2364 C2360 0.930 . S
H2365 C2362 0.929 . S
S2366 N2367 1.613 . S
S2366 N2368 1.610 . S
N2367 S2366 1.613 . S
N2367 C2370 1.350 . S
N2368 S2366 1.610 . S
N2368 C2369 1.351 . S
C2369 C2363 1.428 . S
C2369 N2368 1.351 . S
C2369 C2370 1.434 . S
C2370 C2361 1.429 . S
C2370 N2367 1.350 . S
C2370 C2369 1.434 . S
C2371 C2372 1.369 . S
C2371 C2373 1.419 . S
C2371 H2375 0.930 . S
C2372 C2371 1.369 . S
C2372 C2381 1.429 . S
C2373 C2371 1.419 . S
C2373 C2374 1.363 . S
C2373 H2376 0.929 . S
C2374 C2373 1.363 . S
C2374 C2380 1.428 . S
H2375 C2371 0.930 . S
H2376 C2373 0.929 . S
S2377 N2378 1.613 . S
S2377 N2379 1.610 . S
N2378 S2377 1.613 . S
N2378 C2381 1.350 . S
N2379 S2377 1.610 . S
N2379 C2380 1.351 . S
C2380 C2374 1.428 . S
C2380 N2379 1.351 . S
C2380 C2381 1.434 . S
C2381 C2372 1.429 . S
C2381 N2378 1.350 . S
C2381 C2380 1.434 . S
C2382 C2383 1.369 . S
C2382 C2384 1.419 . S
C2382 H2386 0.930 1_556 S
C2383 C2382 1.369 . S
C2383 C2392 1.429 . S
C2384 C2382 1.419 . S
C2384 C2385 1.363 . S
C2384 H2387 0.929 . S
C2385 C2384 1.363 . S
C2385 C2391 1.428 . S
H2386 C2382 0.930 1_554 S
H2387 C2384 0.929 . S
S2388 N2389 1.613 . S
S2388 N2390 1.610 . S
N2389 S2388 1.613 . S
N2389 C2392 1.350 . S
N2390 S2388 1.610 . S
N2390 C2391 1.351 . S
C2391 C2385 1.428 . S
C2391 N2390 1.351 . S
C2391 C2392 1.434 . S
C2392 C2383 1.429 . S
C2392 N2389 1.350 . S
C2392 C2391 1.434 . S
C2393 C2394 1.369 . S
C2393 C2395 1.419 . S
C2393 H2397 0.930 . S
C2394 C2393 1.369 . S
C2394 C2403 1.429 . S
C2395 C2393 1.419 . S
C2395 C2396 1.363 . S
C2395 H2398 0.929 . S
C2396 C2395 1.363 . S
C2396 C2402 1.428 . S
H2397 C2393 0.930 . S
H2398 C2395 0.929 . S
S2399 N2400 1.613 . S
S2399 N2401 1.610 . S
N2400 S2399 1.613 . S
N2400 C2403 1.350 . S
N2401 S2399 1.610 . S
N2401 C2402 1.351 . S
C2402 C2396 1.428 . S
C2402 N2401 1.351 . S
C2402 C2403 1.434 . S
C2403 C2394 1.429 . S
C2403 N2400 1.350 . S
C2403 C2402 1.434 . S
C2404 C2405 1.369 . S
C2404 C2406 1.419 . S
C2404 H2408 0.930 . S
C2405 C2404 1.369 . S
C2405 C2414 1.429 . S
C2406 C2404 1.419 . S
C2406 C2407 1.363 . S
C2406 H2409 0.929 . S
C2407 C2406 1.363 . S
C2407 C2413 1.428 . S
H2408 C2404 0.930 . S
H2409 C2406 0.929 . S
S2410 N2411 1.613 . S
S2410 N2412 1.610 . S
N2411 S2410 1.613 . S
N2411 C2414 1.350 . S
N2412 S2410 1.610 . S
N2412 C2413 1.351 . S
C2413 C2407 1.428 . S
C2413 N2412 1.351 . S
C2413 C2414 1.434 . S
C2414 C2405 1.429 . S
C2414 N2411 1.350 . S
C2414 C2413 1.434 . S
C2415 C2416 1.369 . S
C2415 C2417 1.419 . S
C2415 H2419 0.930 . S
C2416 C2415 1.369 . S
C2416 C2425 1.429 . S
C2417 C2415 1.419 . S
C2417 C2418 1.363 . S
C2417 H2420 0.929 . S
C2418 C2417 1.363 . S
C2418 C2424 1.428 . S
H2419 C2415 0.930 . S
H2420 C2417 0.929 . S
S2421 N2422 1.613 . S
S2421 N2423 1.610 . S
N2422 S2421 1.613 . S
N2422 C2425 1.350 . S
N2423 S2421 1.610 . S
N2423 C2424 1.351 . S
C2424 C2418 1.428 . S
C2424 N2423 1.351 . S
C2424 C2425 1.434 . S
C2425 C2416 1.429 . S
C2425 N2422 1.350 . S
C2425 C2424 1.434 . S
C2426 C2427 1.369 . S
C2426 C2428 1.419 . S
C2426 H2430 0.930 . S
C2427 C2426 1.369 . S
C2427 C2436 1.429 . S
C2428 C2426 1.419 . S
C2428 C2429 1.363 . S
C2428 H2431 0.929 . S
C2429 C2428 1.363 . S
C2429 C2435 1.428 . S
H2430 C2426 0.930 . S
H2431 C2428 0.929 . S
S2432 N2433 1.613 . S
S2432 N2434 1.610 . S
N2433 S2432 1.613 . S
N2433 C2436 1.350 . S
N2434 S2432 1.610 . S
N2434 C2435 1.351 . S
C2435 C2429 1.428 . S
C2435 N2434 1.351 . S
C2435 C2436 1.434 . S
C2436 C2427 1.429 . S
C2436 N2433 1.350 . S
C2436 C2435 1.434 . S
C2437 C2438 1.369 . S
C2437 C2439 1.419 . S
C2437 H2441 0.930 . S
C2438 C2437 1.369 . S
C2438 C2447 1.429 1_545 S
C2439 C2437 1.419 . S
C2439 C2440 1.363 1_545 S
C2439 H2442 0.929 . S
C2440 C2439 1.363 1_565 S
C2440 C2446 1.428 . S
H2441 C2437 0.930 . S
H2442 C2439 0.929 . S
S2443 N2444 1.613 . S
S2443 N2445 1.610 . S
N2444 S2443 1.613 . S
N2444 C2447 1.350 . S
N2445 S2443 1.610 . S
N2445 C2446 1.351 . S
C2446 C2440 1.428 . S
C2446 N2445 1.351 . S
C2446 C2447 1.434 . S
C2447 C2438 1.429 1_565 S
C2447 N2444 1.350 . S
C2447 C2446 1.434 . S
C2448 C2449 1.369 . S
C2448 C2450 1.419 . S
C2448 H2452 0.930 . S
C2449 C2448 1.369 . S
C2449 C2458 1.429 . S
C2450 C2448 1.419 . S
C2450 C2451 1.363 . S
C2450 H2453 0.929 . S
C2451 C2450 1.363 . S
C2451 C2457 1.428 . S
H2452 C2448 0.930 . S
H2453 C2450 0.929 . S
S2454 N2455 1.613 . S
S2454 N2456 1.610 . S
N2455 S2454 1.613 . S
N2455 C2458 1.350 . S
N2456 S2454 1.610 . S
N2456 C2457 1.351 . S
C2457 C2451 1.428 . S
C2457 N2456 1.351 . S
C2457 C2458 1.434 . S
C2458 C2449 1.429 . S
C2458 N2455 1.350 . S
C2458 C2457 1.434 . S
C2459 C2460 1.369 1_655 S
C2459 C2461 1.419 . S
C2459 H2463 0.930 . S
C2460 C2459 1.369 1_455 S
C2460 C2469 1.429 . S
C2461 C2459 1.419 . S
C2461 C2462 1.363 . S
C2461 H2464 0.929 . S
C2462 C2461 1.363 . S
C2462 C2468 1.428 . S
H2463 C2459 0.930 . S
H2464 C2461 0.929 . S
S2465 N2466 1.613 1_565 S
S2465 N2467 1.637 . S
N2466 S2465 1.613 1_545 S
N2466 C2469 1.350 . S
N2467 S2465 1.637 . S
N2467 C2468 1.347 1_465 S
C2468 C2462 1.428 . S
C2468 N2467 1.347 1_645 S
C2468 C2469 1.434 1_655 S
C2469 C2460 1.429 . S
C2469 N2466 1.350 . S
C2469 C2468 1.434 1_455 S
C2470 C2471 1.369 . S
C2470 C2472 1.419 . S
C2470 H2474 0.930 . S
C2471 C2470 1.369 . S
C2471 C2480 1.429 . S
C2472 C2470 1.419 . S
C2472 C2473 1.363 . S
C2472 H2475 0.929 . S
C2473 C2472 1.363 . S
C2473 C2479 1.428 . S
H2474 C2470 0.930 . S
H2475 C2472 0.929 . S
S2476 N2477 1.613 . S
S2476 N2478 1.610 . S
N2477 S2476 1.613 . S
N2477 C2480 1.350 . S
N2478 S2476 1.610 . S
N2478 C2479 1.351 . S
C2479 C2473 1.428 . S
C2479 N2478 1.351 . S
C2479 C2480 1.434 . S
C2480 C2471 1.429 . S
C2480 N2477 1.350 . S
C2480 C2479 1.434 . S
C2481 C2482 1.369 . S
C2481 C2483 1.385 1_455 S
C2481 H2485 0.930 . S
C2482 C2481 1.369 . S
C2482 C2491 1.429 . S
C2483 C2481 1.385 1_655 S
C2483 C2484 1.391 . S
C2483 H2486 0.937 . S
C2484 C2483 1.391 . S
C2484 C2490 1.428 . S
H2485 C2481 0.930 . S
H2486 C2483 0.937 . S
S2487 N2488 1.613 1_655 S
S2487 N2489 1.610 . S
N2488 S2487 1.613 1_455 S
N2488 C2491 1.350 . S
N2489 S2487 1.610 . S
N2489 C2490 1.351 . S
C2490 C2484 1.428 . S
C2490 N2489 1.351 . S
C2490 C2491 1.434 1_655 S
C2491 C2482 1.429 . S
C2491 N2488 1.350 . S
C2491 C2490 1.434 1_455 S
C2492 C2493 1.369 . S
C2492 C2494 1.419 . S
C2492 H2496 0.930 . S
C2493 C2492 1.369 . S
C2493 C2502 1.429 . S
C2494 C2492 1.419 . S
C2494 C2495 1.363 . S
C2494 H2497 0.929 . S
C2495 C2494 1.363 . S
C2495 C2501 1.428 . S
H2496 C2492 0.930 . S
H2497 C2494 0.929 . S
S2498 N2499 1.613 . S
S2498 N2500 1.610 . S
N2499 S2498 1.613 . S
N2499 C2502 1.350 . S
N2500 S2498 1.610 . S
N2500 C2501 1.351 . S
C2501 C2495 1.428 . S
C2501 N2500 1.351 . S
C2501 C2502 1.434 . S
C2502 C2493 1.429 . S
C2502 N2499 1.350 . S
C2502 C2501 1.434 . S
C2503 C2504 1.369 . S
C2503 C2505 1.419 . S
C2503 H2507 0.930 1_545 S
C2504 C2503 1.369 . S
C2504 C2513 1.429 . S
C2505 C2503 1.419 . S
C2505 C2506 1.363 . S
C2505 H2508 0.929 . S
C2506 C2505 1.363 . S
C2506 C2512 1.428 . S
H2507 C2503 0.930 1_565 S
H2508 C2505 0.929 . S
S2509 N2510 1.613 . S
S2509 N2511 1.610 . S
N2510 S2509 1.613 . S
N2510 C2513 1.350 . S
N2511 S2509 1.610 . S
N2511 C2512 1.351 . S
C2512 C2506 1.428 . S
C2512 N2511 1.351 . S
C2512 C2513 1.434 . S
C2513 C2504 1.429 . S
C2513 N2510 1.350 . S
C2513 C2512 1.434 . S
C2514 C2515 1.369 . S
C2514 C2516 1.419 . S
C2514 H2518 0.930 . S
C2515 C2514 1.369 . S
C2515 C2524 1.429 . S
C2516 C2514 1.419 . S
C2516 C2517 1.363 . S
C2516 H2519 0.929 . S
C2517 C2516 1.363 . S
C2517 C2523 1.428 . S
H2518 C2514 0.930 . S
H2519 C2516 0.929 . S
S2520 N2521 1.613 . S
S2520 N2522 1.610 . S
N2521 S2520 1.613 . S
N2521 C2524 1.350 . S
N2522 S2520 1.610 . S
N2522 C2523 1.351 . S
C2523 C2517 1.428 . S
C2523 N2522 1.351 . S
C2523 C2524 1.434 . S
C2524 C2515 1.429 . S
C2524 N2521 1.350 . S
C2524 C2523 1.434 . S
C2525 C2526 1.369 . S
C2525 C2527 1.419 . S
C2525 H2529 0.930 . S
C2526 C2525 1.369 . S
C2526 C2535 1.429 . S
C2527 C2525 1.419 . S
C2527 C2528 1.363 . S
C2527 H2530 0.929 . S
C2528 C2527 1.363 . S
C2528 C2534 1.428 . S
H2529 C2525 0.930 . S
H2530 C2527 0.929 . S
S2531 N2532 1.613 . S
S2531 N2533 1.610 . S
N2532 S2531 1.613 . S
N2532 C2535 1.350 . S
N2533 S2531 1.610 . S
N2533 C2534 1.351 . S
C2534 C2528 1.428 . S
C2534 N2533 1.351 . S
C2534 C2535 1.434 . S
C2535 C2526 1.429 . S
C2535 N2532 1.350 . S
C2535 C2534 1.434 . S
C2536 C2537 1.369 . S
C2536 C2538 1.419 . S
C2536 H2540 0.930 . S
C2537 C2536 1.369 . S
C2537 C2546 1.429 . S
C2538 C2536 1.419 . S
C2538 C2539 1.363 . S
C2538 H2541 0.929 . S
C2539 C2538 1.363 . S
C2539 C2545 1.428 . S
H2540 C2536 0.930 . S
H2541 C2538 0.929 . S
S2542 N2543 1.613 . S
S2542 N2544 1.610 . S
N2543 S2542 1.613 . S
N2543 C2546 1.350 . S
N2544 S2542 1.610 . S
N2544 C2545 1.351 . S
C2545 C2539 1.428 . S
C2545 N2544 1.351 . S
C2545 C2546 1.434 . S
C2546 C2537 1.429 . S
C2546 N2543 1.350 . S
C2546 C2545 1.434 . S
C2547 C2548 1.369 . S
C2547 C2549 1.419 . S
C2547 H2551 0.930 . S
C2548 C2547 1.369 . S
C2548 C2557 1.429 . S
C2549 C2547 1.419 . S
C2549 C2550 1.363 . S
C2549 H2552 0.929 . S
C2550 C2549 1.363 . S
C2550 C2556 1.428 . S
H2551 C2547 0.930 . S
H2552 C2549 0.929 . S
S2553 N2554 1.613 1_645 S
S2553 N2555 1.610 1_545 S
N2554 S2553 1.613 1_465 S
N2554 C2557 1.350 1_455 S
N2555 S2553 1.610 1_565 S
N2555 C2556 1.351 . S
C2556 C2550 1.428 . S
C2556 N2555 1.351 . S
C2556 C2557 1.434 . S
C2557 C2548 1.429 . S
C2557 N2554 1.350 1_655 S
C2557 C2556 1.434 . S
C2558 C2559 1.369 . S
C2558 C2560 1.419 . S
C2558 H2562 0.930 . S
C2559 C2558 1.369 . S
C2559 C2568 1.429 . S
C2560 C2558 1.419 . S
C2560 C2561 1.363 . S
C2560 H2563 0.929 . S
C2561 C2560 1.363 . S
C2561 C2567 1.428 . S
H2562 C2558 0.930 . S
H2563 C2560 0.929 . S
S2564 N2565 1.613 . S
S2564 N2566 1.610 . S
N2565 S2564 1.613 . S
N2565 C2568 1.350 . S
N2566 S2564 1.610 . S
N2566 C2567 1.351 . S
C2567 C2561 1.428 . S
C2567 N2566 1.351 . S
C2567 C2568 1.434 . S
C2568 C2559 1.429 . S
C2568 N2565 1.350 . S
C2568 C2567 1.434 . S
C2569 C2570 1.369 . S
C2569 C2571 1.419 . S
C2569 H2573 0.930 . S
C2570 C2569 1.369 . S
C2570 C2579 1.429 . S
C2571 C2569 1.419 . S
C2571 C2572 1.363 . S
C2571 H2574 0.929 . S
C2572 C2571 1.363 . S
C2572 C2578 1.428 . S
H2573 C2569 0.930 . S
H2574 C2571 0.929 . S
S2575 N2576 1.613 . S
S2575 N2577 1.610 . S
N2576 S2575 1.613 . S
N2576 C2579 1.350 . S
N2577 S2575 1.610 . S
N2577 C2578 1.351 . S
C2578 C2572 1.428 . S
C2578 N2577 1.351 . S
C2578 C2579 1.434 . S
C2579 C2570 1.429 . S
C2579 N2576 1.350 . S
C2579 C2578 1.434 . S
C2580 C2581 1.369 . S
C2580 C2582 1.419 . S
C2580 H2584 0.930 . S
C2581 C2580 1.369 . S
C2581 C2590 1.429 . S
C2582 C2580 1.419 . S
C2582 C2583 1.363 . S
C2582 H2585 0.929 . S
C2583 C2582 1.363 . S
C2583 C2589 1.428 . S
H2584 C2580 0.930 . S
H2585 C2582 0.929 . S
S2586 N2587 1.613 . S
S2586 N2588 1.610 . S
N2587 S2586 1.613 . S
N2587 C2590 1.350 . S
N2588 S2586 1.610 . S
N2588 C2589 1.351 . S
C2589 C2583 1.428 . S
C2589 N2588 1.351 . S
C2589 C2590 1.434 . S
C2590 C2581 1.429 . S
C2590 N2587 1.350 . S
C2590 C2589 1.434 . S
C2591 C2592 1.369 . S
C2591 C2593 1.419 . S
C2591 H2595 0.930 . S
C2592 C2591 1.369 . S
C2592 C2601 1.429 . S
C2593 C2591 1.419 . S
C2593 C2594 1.363 . S
C2593 H2596 0.929 . S
C2594 C2593 1.363 . S
C2594 C2600 1.428 . S
H2595 C2591 0.930 . S
H2596 C2593 0.929 . S
S2597 N2598 1.613 . S
S2597 N2599 1.610 . S
N2598 S2597 1.613 . S
N2598 C2601 1.350 . S
N2599 S2597 1.610 . S
N2599 C2600 1.351 . S
C2600 C2594 1.428 . S
C2600 N2599 1.351 . S
C2600 C2601 1.434 . S
C2601 C2592 1.429 . S
C2601 N2598 1.350 . S
C2601 C2600 1.434 . S
C2602 C2603 1.369 . S
C2602 C2604 1.419 . S
C2602 H2606 0.930 . S
C2603 C2602 1.369 . S
C2603 C2612 1.429 . S
C2604 C2602 1.419 . S
C2604 C2605 1.363 . S
C2604 H2607 0.929 . S
C2605 C2604 1.363 . S
C2605 C2611 1.428 . S
H2606 C2602 0.930 . S
H2607 C2604 0.929 . S
S2608 N2609 1.613 . S
S2608 N2610 1.610 . S
N2609 S2608 1.613 . S
N2609 C2612 1.350 . S
N2610 S2608 1.610 . S
N2610 C2611 1.351 . S
C2611 C2605 1.428 . S
C2611 N2610 1.351 . S
C2611 C2612 1.434 . S
C2612 C2603 1.429 . S
C2612 N2609 1.350 . S
C2612 C2611 1.434 . S
C2613 C2614 1.369 . S
C2613 C2615 1.419 . S
C2613 H2617 0.930 . S
C2614 C2613 1.369 . S
C2614 C2623 1.429 . S
C2615 C2613 1.419 . S
C2615 C2616 1.363 . S
C2615 H2618 0.929 . S
C2616 C2615 1.363 . S
C2616 C2622 1.428 . S
H2617 C2613 0.930 . S
H2618 C2615 0.929 . S
S2619 N2620 1.613 . S
S2619 N2621 1.610 . S
N2620 S2619 1.613 . S
N2620 C2623 1.350 . S
N2621 S2619 1.610 . S
N2621 C2622 1.351 . S
C2622 C2616 1.428 . S
C2622 N2621 1.351 . S
C2622 C2623 1.434 . S
C2623 C2614 1.429 . S
C2623 N2620 1.350 . S
C2623 C2622 1.434 . S
C2624 C2625 1.369 . S
C2624 C2626 1.419 . S
C2624 H2628 0.930 . S
C2625 C2624 1.369 . S
C2625 C2634 1.429 . S
C2626 C2624 1.419 . S
C2626 C2627 1.363 . S
C2626 H2629 0.929 . S
C2627 C2626 1.363 . S
C2627 C2633 1.428 . S
H2628 C2624 0.930 . S
H2629 C2626 0.929 . S
S2630 N2631 1.613 . S
S2630 N2632 1.610 . S
N2631 S2630 1.613 . S
N2631 C2634 1.350 . S
N2632 S2630 1.610 . S
N2632 C2633 1.351 . S
C2633 C2627 1.428 . S
C2633 N2632 1.351 . S
C2633 C2634 1.434 . S
C2634 C2625 1.429 . S
C2634 N2631 1.350 . S
C2634 C2633 1.434 . S
C2635 C2636 1.369 . S
C2635 C2637 1.419 . S
C2635 H2639 0.930 . S
C2636 C2635 1.369 . S
C2636 C2645 1.429 . S
C2637 C2635 1.419 . S
C2637 C2638 1.363 . S
C2637 H2640 0.929 . S
C2638 C2637 1.363 . S
C2638 C2644 1.428 . S
H2639 C2635 0.930 . S
H2640 C2637 0.929 . S
S2641 N2642 1.613 . S
S2641 N2643 1.610 . S
N2642 S2641 1.613 . S
N2642 C2645 1.350 . S
N2643 S2641 1.610 . S
N2643 C2644 1.351 . S
C2644 C2638 1.428 . S
C2644 N2643 1.351 . S
C2644 C2645 1.434 . S
C2645 C2636 1.429 . S
C2645 N2642 1.350 . S
C2645 C2644 1.434 . S
C2646 C2647 1.369 1_545 S
C2646 C2648 1.419 . S
C2646 H2650 0.930 . S
C2647 C2646 1.369 1_565 S
C2647 C2656 1.429 . S
C2648 C2646 1.419 . S
C2648 C2649 1.363 . S
C2648 H2651 0.929 . S
C2649 C2648 1.363 . S
C2649 C2655 1.428 . S
H2650 C2646 0.930 . S
H2651 C2648 0.929 . S
S2652 N2653 1.613 . S
S2652 N2654 1.610 1_565 S
N2653 S2652 1.613 . S
N2653 C2656 1.350 . S
N2654 S2652 1.610 1_545 S
N2654 C2655 1.351 . S
C2655 C2649 1.428 . S
C2655 N2654 1.351 . S
C2655 C2656 1.434 1_545 S
C2656 C2647 1.429 . S
C2656 N2653 1.350 . S
C2656 C2655 1.434 1_565 S
C2657 C2658 1.369 . S
C2657 C2659 1.419 . S
C2657 H2661 0.930 . S
C2658 C2657 1.369 . S
C2658 C2667 1.429 . S
C2659 C2657 1.419 . S
C2659 C2660 1.363 . S
C2659 H2662 0.929 . S
C2660 C2659 1.363 . S
C2660 C2666 1.428 . S
H2661 C2657 0.930 . S
H2662 C2659 0.929 . S
S2663 N2664 1.613 . S
S2663 N2665 1.610 . S
N2664 S2663 1.613 . S
N2664 C2667 1.350 . S
N2665 S2663 1.610 . S
N2665 C2666 1.351 . S
C2666 C2660 1.428 . S
C2666 N2665 1.351 . S
C2666 C2667 1.434 . S
C2667 C2658 1.429 . S
C2667 N2664 1.350 . S
C2667 C2666 1.434 . S
C2668 C2669 1.369 . S
C2668 C2670 1.419 1_545 S
C2668 H2672 0.930 . S
C2669 C2668 1.369 . S
C2669 C2678 1.429 . S
C2670 C2668 1.419 1_565 S
C2670 C2671 1.363 . S
C2670 H2673 0.929 . S
C2671 C2670 1.363 . S
C2671 C2677 1.428 . S
H2672 C2668 0.930 . S
H2673 C2670 0.929 . S
S2674 N2675 1.613 . S
S2674 N2676 1.610 1_545 S
N2675 S2674 1.613 . S
N2675 C2678 1.350 . S
N2676 S2674 1.610 1_565 S
N2676 C2677 1.351 . S
C2677 C2671 1.428 . S
C2677 N2676 1.351 . S
C2677 C2678 1.434 1_565 S
C2678 C2669 1.429 . S
C2678 N2675 1.350 . S
C2678 C2677 1.434 1_545 S
C2679 C2680 1.369 . S
C2679 C2681 1.419 . S
C2679 H2683 0.930 . S
C2680 C2679 1.369 . S
C2680 C2689 1.429 . S
C2681 C2679 1.419 . S
C2681 C2682 1.363 . S
C2681 H2684 0.929 . S
C2682 C2681 1.363 . S
C2682 C2688 1.428 . S
H2683 C2679 0.930 . S
H2684 C2681 0.929 . S
S2685 N2686 1.613 . S
S2685 N2687 1.610 . S
N2686 S2685 1.613 . S
N2686 C2689 1.350 . S
N2687 S2685 1.610 . S
N2687 C2688 1.351 . S
C2688 C2682 1.428 . S
C2688 N2687 1.351 . S
C2688 C2689 1.434 . S
C2689 C2680 1.429 . S
C2689 N2686 1.350 . S
C2689 C2688 1.434 . S
C2690 C2691 1.369 1_565 S
C2690 C2692 1.419 . S
C2690 H2694 0.930 . S
C2691 C2690 1.369 1_545 S
C2691 C2700 1.429 . S
C2692 C2690 1.419 . S
C2692 C2693 1.363 . S
C2692 H2695 0.929 . S
C2693 C2692 1.363 . S
C2693 C2699 1.428 1_565 S
H2694 C2690 0.930 . S
H2695 C2692 0.929 . S
S2696 N2697 1.618 . S
S2696 N2698 1.609 1_554 S
N2697 S2696 1.618 . S
N2697 C2700 1.350 . S
N2698 S2696 1.609 1_556 S
N2698 C2699 1.351 1_556 S
C2699 C2693 1.428 1_545 S
C2699 N2698 1.351 1_554 S
C2699 C2700 1.434 . S
C2700 C2691 1.429 . S
C2700 N2697 1.350 . S
C2700 C2699 1.434 . S
C2701 C2702 1.369 . S
C2701 C2703 1.419 . S
C2701 H2705 0.930 . S
C2702 C2701 1.369 . S
C2702 C2711 1.429 . S
C2703 C2701 1.419 . S
C2703 C2704 1.363 . S
C2703 H2706 0.929 1_554 S
C2704 C2703 1.363 . S
C2704 C2710 1.428 . S
H2705 C2701 0.930 . S
H2706 C2703 0.929 1_556 S
S2707 N2708 1.613 . S
S2707 N2709 1.610 . S
N2708 S2707 1.613 . S
N2708 C2711 1.350 . S
N2709 S2707 1.610 . S
N2709 C2710 1.351 . S
C2710 C2704 1.428 . S
C2710 N2709 1.351 . S
C2710 C2711 1.434 . S
C2711 C2702 1.429 . S
C2711 N2708 1.350 . S
C2711 C2710 1.434 . S
C2712 C2713 1.369 . S
C2712 C2714 1.419 . S
C2712 H2716 0.930 . S
C2713 C2712 1.369 . S
C2713 C2722 1.429 . S
C2714 C2712 1.419 . S
C2714 C2715 1.363 . S
C2714 H2717 0.929 . S
C2715 C2714 1.363 . S
C2715 C2721 1.428 . S
H2716 C2712 0.930 . S
H2717 C2714 0.929 . S
S2718 N2719 1.613 . S
S2718 N2720 1.610 . S
N2719 S2718 1.613 . S
N2719 C2722 1.350 . S
N2720 S2718 1.610 . S
N2720 C2721 1.351 . S
C2721 C2715 1.428 . S
C2721 N2720 1.351 . S
C2721 C2722 1.434 . S
C2722 C2713 1.429 . S
C2722 N2719 1.350 . S
C2722 C2721 1.434 . S
C2723 C2724 1.369 . S
C2723 C2725 1.419 . S
C2723 H2727 0.930 . S
C2724 C2723 1.369 . S
C2724 C2733 1.429 . S
C2725 C2723 1.419 . S
C2725 C2726 1.363 . S
C2725 H2728 0.929 . S
C2726 C2725 1.363 . S
C2726 C2732 1.428 . S
H2727 C2723 0.930 . S
H2728 C2725 0.929 . S
S2729 N2730 1.613 . S
S2729 N2731 1.610 . S
N2730 S2729 1.613 . S
N2730 C2733 1.350 . S
N2731 S2729 1.610 . S
N2731 C2732 1.351 . S
C2732 C2726 1.428 . S
C2732 N2731 1.351 . S
C2732 C2733 1.434 . S
C2733 C2724 1.429 . S
C2733 N2730 1.350 . S
C2733 C2732 1.434 . S
C2734 C2735 1.369 . S
C2734 C2736 1.419 . S
C2734 H2738 0.930 . S
C2735 C2734 1.369 . S
C2735 C2744 1.429 . S
C2736 C2734 1.419 . S
C2736 C2737 1.363 . S
C2736 H2739 0.929 . S
C2737 C2736 1.363 . S
C2737 C2743 1.428 . S
H2738 C2734 0.930 . S
H2739 C2736 0.929 . S
S2740 N2741 1.613 . S
S2740 N2742 1.610 . S
N2741 S2740 1.613 . S
N2741 C2744 1.350 . S
N2742 S2740 1.610 . S
N2742 C2743 1.351 . S
C2743 C2737 1.428 . S
C2743 N2742 1.351 . S
C2743 C2744 1.434 . S
C2744 C2735 1.429 . S
C2744 N2741 1.350 . S
C2744 C2743 1.434 . S
C2745 C2746 1.369 . S
C2745 C2747 1.419 . S
C2745 H2749 0.930 . S
C2746 C2745 1.369 . S
C2746 C2755 1.429 . S
C2747 C2745 1.419 . S
C2747 C2748 1.363 . S
C2747 H2750 0.929 . S
C2748 C2747 1.363 . S
C2748 C2754 1.428 . S
H2749 C2745 0.930 . S
H2750 C2747 0.929 . S
S2751 N2752 1.613 . S
S2751 N2753 1.610 . S
N2752 S2751 1.613 . S
N2752 C2755 1.350 . S
N2753 S2751 1.610 . S
N2753 C2754 1.351 . S
C2754 C2748 1.428 . S
C2754 N2753 1.351 . S
C2754 C2755 1.434 . S
C2755 C2746 1.429 . S
C2755 N2752 1.350 . S
C2755 C2754 1.434 . S
C2756 C2757 1.369 . S
C2756 C2758 1.419 . S
C2756 H2760 0.930 . S
C2757 C2756 1.369 . S
C2757 C2766 1.429 . S
C2758 C2756 1.419 . S
C2758 C2759 1.363 . S
C2758 H2761 0.929 . S
C2759 C2758 1.363 . S
C2759 C2765 1.428 . S
H2760 C2756 0.930 . S
H2761 C2758 0.929 . S
S2762 N2763 1.613 . S
S2762 N2764 1.610 . S
N2763 S2762 1.613 . S
N2763 C2766 1.350 . S
N2764 S2762 1.610 . S
N2764 C2765 1.351 . S
C2765 C2759 1.428 . S
C2765 N2764 1.351 . S
C2765 C2766 1.434 . S
C2766 C2757 1.429 . S
C2766 N2763 1.350 . S
C2766 C2765 1.434 . S
C2767 C2768 1.369 . S
C2767 C2769 1.419 . S
C2767 H2771 0.930 . S
C2768 C2767 1.369 . S
C2768 C2777 1.429 . S
C2769 C2767 1.419 . S
C2769 C2770 1.363 . S
C2769 H2772 0.929 . S
C2770 C2769 1.363 . S
C2770 C2776 1.428 . S
H2771 C2767 0.930 . S
H2772 C2769 0.929 . S
S2773 N2774 1.613 . S
S2773 N2775 1.610 . S
N2774 S2773 1.613 . S
N2774 C2777 1.350 . S
N2775 S2773 1.610 . S
N2775 C2776 1.351 . S
C2776 C2770 1.428 . S
C2776 N2775 1.351 . S
C2776 C2777 1.434 . S
C2777 C2768 1.429 . S
C2777 N2774 1.350 . S
C2777 C2776 1.434 . S
C2778 C2779 1.369 . S
C2778 C2780 1.419 . S
C2778 H2782 0.930 . S
C2779 C2778 1.369 . S
C2779 C2788 1.429 . S
C2780 C2778 1.419 . S
C2780 C2781 1.363 . S
C2780 H2783 0.929 . S
C2781 C2780 1.363 . S
C2781 C2787 1.428 . S
H2782 C2778 0.930 . S
H2783 C2780 0.929 . S
S2784 N2785 1.613 . S
S2784 N2786 1.610 . S
N2785 S2784 1.613 . S
N2785 C2788 1.350 . S
N2786 S2784 1.610 . S
N2786 C2787 1.351 . S
C2787 C2781 1.428 . S
C2787 N2786 1.351 . S
C2787 C2788 1.434 . S
C2788 C2779 1.429 . S
C2788 N2785 1.350 . S
C2788 C2787 1.434 . S
C2789 C2790 1.369 . S
C2789 C2791 1.419 . S
C2789 H2793 0.930 . S
C2790 C2789 1.369 . S
C2790 C2799 1.429 . S
C2791 C2789 1.419 . S
C2791 C2792 1.363 . S
C2791 H2794 0.929 . S
C2792 C2791 1.363 . S
C2792 C2798 1.428 . S
H2793 C2789 0.930 . S
H2794 C2791 0.929 . S
S2795 N2796 1.613 . S
S2795 N2797 1.610 . S
N2796 S2795 1.613 . S
N2796 C2799 1.350 . S
N2797 S2795 1.610 . S
N2797 C2798 1.351 . S
C2798 C2792 1.428 . S
C2798 N2797 1.351 . S
C2798 C2799 1.434 . S
C2799 C2790 1.429 . S
C2799 N2796 1.350 . S
C2799 C2798 1.434 . S
C2800 C2801 1.369 . S
C2800 C2802 1.419 . S
C2800 H2804 0.930 . S
C2801 C2800 1.369 . S
C2801 C2810 1.429 . S
C2802 C2800 1.419 . S
C2802 C2803 1.363 . S
C2802 H2805 0.929 . S
C2803 C2802 1.363 . S
C2803 C2809 1.428 . S
H2804 C2800 0.930 . S
H2805 C2802 0.929 . S
S2806 N2807 1.613 . S
S2806 N2808 1.610 . S
N2807 S2806 1.613 . S
N2807 C2810 1.350 . S
N2808 S2806 1.610 . S
N2808 C2809 1.351 . S
C2809 C2803 1.428 . S
C2809 N2808 1.351 . S
C2809 C2810 1.434 . S
C2810 C2801 1.429 . S
C2810 N2807 1.350 . S
C2810 C2809 1.434 . S
C2811 C2812 1.369 . S
C2811 C2813 1.419 . S
C2811 H2815 0.930 . S
C2812 C2811 1.369 . S
C2812 C2821 1.429 . S
C2813 C2811 1.419 . S
C2813 C2814 1.363 . S
C2813 H2816 0.929 . S
C2814 C2813 1.363 . S
C2814 C2820 1.428 . S
H2815 C2811 0.930 . S
H2816 C2813 0.929 . S
S2817 N2818 1.613 . S
S2817 N2819 1.610 . S
N2818 S2817 1.613 . S
N2818 C2821 1.350 . S
N2819 S2817 1.610 . S
N2819 C2820 1.351 . S
C2820 C2814 1.428 . S
C2820 N2819 1.351 . S
C2820 C2821 1.434 . S
C2821 C2812 1.429 . S
C2821 N2818 1.350 . S
C2821 C2820 1.434 . S
C2822 C2823 1.369 . S
C2822 C2824 1.419 . S
C2822 H2826 0.930 . S
C2823 C2822 1.369 . S
C2823 C2832 1.429 . S
C2824 C2822 1.419 . S
C2824 C2825 1.363 . S
C2824 H2827 0.929 . S
C2825 C2824 1.363 . S
C2825 C2831 1.428 . S
H2826 C2822 0.930 . S
H2827 C2824 0.929 . S
S2828 N2829 1.613 . S
S2828 N2830 1.610 . S
N2829 S2828 1.613 . S
N2829 C2832 1.350 . S
N2830 S2828 1.610 . S
N2830 C2831 1.351 . S
C2831 C2825 1.428 . S
C2831 N2830 1.351 . S
C2831 C2832 1.434 . S
C2832 C2823 1.429 . S
C2832 N2829 1.350 . S
C2832 C2831 1.434 . S
C2833 C2834 1.369 . S
C2833 C2835 1.419 . S
C2833 H2837 0.930 . S
C2834 C2833 1.369 . S
C2834 C2843 1.429 . S
C2835 C2833 1.419 . S
C2835 C2836 1.363 . S
C2835 H2838 0.929 . S
C2836 C2835 1.363 . S
C2836 C2842 1.428 . S
H2837 C2833 0.930 . S
H2838 C2835 0.929 . S
S2839 N2840 1.613 . S
S2839 N2841 1.610 . S
N2840 S2839 1.613 . S
N2840 C2843 1.350 . S
N2841 S2839 1.610 . S
N2841 C2842 1.351 . S
C2842 C2836 1.428 . S
C2842 N2841 1.351 . S
C2842 C2843 1.434 . S
C2843 C2834 1.429 . S
C2843 N2840 1.350 . S
C2843 C2842 1.434 . S
C2844 C2845 1.369 . S
C2844 C2846 1.419 . S
C2844 H2848 0.930 . S
C2845 C2844 1.369 . S
C2845 C2854 1.429 . S
C2846 C2844 1.419 . S
C2846 C2847 1.363 . S
C2846 H2849 0.929 . S
C2847 C2846 1.363 . S
C2847 C2853 1.428 . S
H2848 C2844 0.930 . S
H2849 C2846 0.929 . S
S2850 N2851 1.613 . S
S2850 N2852 1.610 . S
N2851 S2850 1.613 . S
N2851 C2854 1.350 . S
N2852 S2850 1.610 . S
N2852 C2853 1.351 . S
C2853 C2847 1.428 . S
C2853 N2852 1.351 . S
C2853 C2854 1.434 . S
C2854 C2845 1.429 . S
C2854 N2851 1.350 . S
C2854 C2853 1.434 . S
C2855 C2856 1.369 . S
C2855 C2857 1.419 . S
C2855 H2859 0.930 . S
C2856 C2855 1.369 . S
C2856 C2865 1.429 . S
C2857 C2855 1.419 . S
C2857 C2858 1.363 . S
C2857 H2860 0.929 . S
C2858 C2857 1.363 . S
C2858 C2864 1.428 . S
H2859 C2855 0.930 . S
H2860 C2857 0.929 . S
S2861 N2862 1.613 . S
S2861 N2863 1.610 . S
N2862 S2861 1.613 . S
N2862 C2865 1.350 . S
N2863 S2861 1.610 . S
N2863 C2864 1.351 . S
C2864 C2858 1.428 . S
C2864 N2863 1.351 . S
C2864 C2865 1.434 . S
C2865 C2856 1.429 . S
C2865 N2862 1.350 . S
C2865 C2864 1.434 . S
C2866 C2867 1.369 . S
C2866 C2868 1.419 . S
C2866 H2870 0.930 . S
C2867 C2866 1.369 . S
C2867 C2876 1.429 . S
C2868 C2866 1.419 . S
C2868 C2869 1.363 . S
C2868 H2871 0.929 . S
C2869 C2868 1.363 . S
C2869 C2875 1.428 . S
H2870 C2866 0.930 . S
H2871 C2868 0.929 . S
S2872 N2873 1.613 . S
S2872 N2874 1.610 . S
N2873 S2872 1.613 . S
N2873 C2876 1.350 . S
N2874 S2872 1.610 . S
N2874 C2875 1.351 . S
C2875 C2869 1.428 . S
C2875 N2874 1.351 . S
C2875 C2876 1.434 . S
C2876 C2867 1.429 . S
C2876 N2873 1.350 . S
C2876 C2875 1.434 . S
C2877 C2878 1.369 . S
C2877 C2879 1.419 . S
C2877 H2881 0.930 . S
C2878 C2877 1.369 . S
C2878 C2887 1.429 . S
C2879 C2877 1.419 . S
C2879 C2880 1.363 . S
C2879 H2882 0.929 . S
C2880 C2879 1.363 . S
C2880 C2886 1.428 . S
H2881 C2877 0.930 . S
H2882 C2879 0.929 . S
S2883 N2884 1.613 . S
S2883 N2885 1.610 . S
N2884 S2883 1.613 . S
N2884 C2887 1.350 . S
N2885 S2883 1.610 . S
N2885 C2886 1.351 . S
C2886 C2880 1.428 . S
C2886 N2885 1.351 . S
C2886 C2887 1.434 . S
C2887 C2878 1.429 . S
C2887 N2884 1.350 . S
C2887 C2886 1.434 . S
C2888 C2889 1.369 . S
C2888 C2890 1.419 . S
C2888 H2892 0.930 . S
C2889 C2888 1.369 . S
C2889 C2898 1.429 . S
C2890 C2888 1.419 . S
C2890 C2891 1.363 . S
C2890 H2893 0.929 . S
C2891 C2890 1.363 . S
C2891 C2897 1.428 . S
H2892 C2888 0.930 . S
H2893 C2890 0.929 . S
S2894 N2895 1.613 . S
S2894 N2896 1.610 . S
N2895 S2894 1.613 . S
N2895 C2898 1.350 . S
N2896 S2894 1.610 . S
N2896 C2897 1.351 . S
C2897 C2891 1.428 . S
C2897 N2896 1.351 . S
C2897 C2898 1.434 . S
C2898 C2889 1.429 . S
C2898 N2895 1.350 . S
C2898 C2897 1.434 . S
C2899 C2900 1.369 . S
C2899 C2901 1.419 . S
C2899 H2903 0.930 . S
C2900 C2899 1.369 . S
C2900 C2909 1.429 . S
C2901 C2899 1.419 . S
C2901 C2902 1.363 . S
C2901 H2904 0.929 . S
C2902 C2901 1.363 . S
C2902 C2908 1.428 . S
H2903 C2899 0.930 . S
H2904 C2901 0.929 . S
S2905 N2906 1.613 . S
S2905 N2907 1.610 . S
N2906 S2905 1.613 . S
N2906 C2909 1.350 . S
N2907 S2905 1.610 . S
N2907 C2908 1.351 . S
C2908 C2902 1.428 . S
C2908 N2907 1.351 . S
C2908 C2909 1.434 . S
C2909 C2900 1.429 . S
C2909 N2906 1.350 . S
C2909 C2908 1.434 . S
C2910 C2911 1.369 . S
C2910 C2912 1.419 . S
C2910 H2914 0.930 . S
C2911 C2910 1.369 . S
C2911 C2920 1.429 . S
C2912 C2910 1.419 . S
C2912 C2913 1.363 . S
C2912 H2915 0.929 . S
C2913 C2912 1.363 . S
C2913 C2919 1.428 . S
H2914 C2910 0.930 . S
H2915 C2912 0.929 . S
S2916 N2917 1.613 . S
S2916 N2918 1.610 . S
N2917 S2916 1.613 . S
N2917 C2920 1.350 . S
N2918 S2916 1.610 . S
N2918 C2919 1.351 . S
C2919 C2913 1.428 . S
C2919 N2918 1.351 . S
C2919 C2920 1.434 . S
C2920 C2911 1.429 . S
C2920 N2917 1.350 . S
C2920 C2919 1.434 . S
C2921 C2922 1.369 . S
C2921 C2923 1.419 . S
C2921 H2925 0.930 . S
C2922 C2921 1.369 . S
C2922 C2931 1.429 . S
C2923 C2921 1.419 . S
C2923 C2924 1.363 . S
C2923 H2926 0.929 . S
C2924 C2923 1.363 . S
C2924 C2930 1.428 . S
H2925 C2921 0.930 . S
H2926 C2923 0.929 . S
S2927 N2928 1.613 . S
S2927 N2929 1.610 . S
N2928 S2927 1.613 . S
N2928 C2931 1.350 . S
N2929 S2927 1.610 . S
N2929 C2930 1.351 . S
C2930 C2924 1.428 . S
C2930 N2929 1.351 . S
C2930 C2931 1.434 . S
C2931 C2922 1.429 . S
C2931 N2928 1.350 . S
C2931 C2930 1.434 . S
C2932 C2933 1.369 . S
C2932 C2934 1.419 . S
C2932 H2936 0.930 . S
C2933 C2932 1.369 . S
C2933 C2942 1.429 . S
C2934 C2932 1.419 . S
C2934 C2935 1.363 . S
C2934 H2937 0.929 . S
C2935 C2934 1.363 . S
C2935 C2941 1.428 . S
H2936 C2932 0.930 . S
H2937 C2934 0.929 . S
S2938 N2939 1.613 . S
S2938 N2940 1.610 . S
N2939 S2938 1.613 . S
N2939 C2942 1.350 . S
N2940 S2938 1.610 . S
N2940 C2941 1.351 . S
C2941 C2935 1.428 . S
C2941 N2940 1.351 . S
C2941 C2942 1.434 . S
C2942 C2933 1.429 . S
C2942 N2939 1.350 . S
C2942 C2941 1.434 . S
C2943 C2944 1.369 . S
C2943 C2945 1.419 . S
C2943 H2947 0.930 . S
C2944 C2943 1.369 . S
C2944 C2953 1.429 . S
C2945 C2943 1.419 . S
C2945 C2946 1.363 . S
C2945 H2948 0.929 . S
C2946 C2945 1.363 . S
C2946 C2952 1.428 . S
H2947 C2943 0.930 . S
H2948 C2945 0.929 . S
S2949 N2950 1.613 . S
S2949 N2951 1.610 . S
N2950 S2949 1.613 . S
N2950 C2953 1.350 . S
N2951 S2949 1.610 . S
N2951 C2952 1.351 . S
C2952 C2946 1.428 . S
C2952 N2951 1.351 . S
C2952 C2953 1.434 . S
C2953 C2944 1.429 . S
C2953 N2950 1.350 . S
C2953 C2952 1.434 . S
C2954 C2955 1.369 . S
C2954 C2956 1.419 . S
C2954 H2958 0.930 . S
C2955 C2954 1.369 . S
C2955 C2964 1.429 . S
C2956 C2954 1.419 . S
C2956 C2957 1.363 . S
C2956 H2959 0.929 . S
C2957 C2956 1.363 . S
C2957 C2963 1.428 . S
H2958 C2954 0.930 . S
H2959 C2956 0.929 . S
S2960 N2961 1.613 . S
S2960 N2962 1.610 . S
N2961 S2960 1.613 . S
N2961 C2964 1.350 . S
N2962 S2960 1.610 . S
N2962 C2963 1.351 . S
C2963 C2957 1.428 . S
C2963 N2962 1.351 . S
C2963 C2964 1.434 . S
C2964 C2955 1.429 . S
C2964 N2961 1.350 . S
C2964 C2963 1.434 . S
C2965 C2966 1.369 . S
C2965 C2967 1.419 . S
C2965 H2969 0.930 . S
C2966 C2965 1.369 . S
C2966 C2975 1.429 . S
C2967 C2965 1.419 . S
C2967 C2968 1.363 . S
C2967 H2970 0.929 . S
C2968 C2967 1.363 . S
C2968 C2974 1.428 . S
H2969 C2965 0.930 . S
H2970 C2967 0.929 . S
S2971 N2972 1.613 . S
S2971 N2973 1.610 . S
N2972 S2971 1.613 . S
N2972 C2975 1.350 . S
N2973 S2971 1.610 . S
N2973 C2974 1.351 . S
C2974 C2968 1.428 . S
C2974 N2973 1.351 . S
C2974 C2975 1.434 . S
C2975 C2966 1.429 . S
C2975 N2972 1.350 . S
C2975 C2974 1.434 . S
C2976 C2977 1.369 . S
C2976 C2978 1.419 . S
C2976 H2980 0.930 . S
C2977 C2976 1.369 . S
C2977 C2986 1.429 . S
C2978 C2976 1.419 . S
C2978 C2979 1.363 . S
C2978 H2981 0.929 . S
C2979 C2978 1.363 . S
C2979 C2985 1.428 . S
H2980 C2976 0.930 . S
H2981 C2978 0.929 . S
S2982 N2983 1.613 . S
S2982 N2984 1.610 . S
N2983 S2982 1.613 . S
N2983 C2986 1.350 . S
N2984 S2982 1.610 . S
N2984 C2985 1.351 . S
C2985 C2979 1.428 . S
C2985 N2984 1.351 . S
C2985 C2986 1.434 . S
C2986 C2977 1.429 . S
C2986 N2983 1.350 . S
C2986 C2985 1.434 . S
C2987 C2988 1.369 . S
C2987 C2989 1.419 . S
C2987 H2991 0.930 . S
C2988 C2987 1.369 . S
C2988 C2997 1.429 . S
C2989 C2987 1.419 . S
C2989 C2990 1.363 . S
C2989 H2992 0.929 . S
C2990 C2989 1.363 . S
C2990 C2996 1.428 . S
H2991 C2987 0.930 . S
H2992 C2989 0.929 . S
S2993 N2994 1.613 . S
S2993 N2995 1.610 . S
N2994 S2993 1.613 . S
N2994 C2997 1.350 . S
N2995 S2993 1.610 . S
N2995 C2996 1.351 . S
C2996 C2990 1.428 . S
C2996 N2995 1.351 . S
C2996 C2997 1.434 . S
C2997 C2988 1.429 . S
C2997 N2994 1.350 . S
C2997 C2996 1.434 . S
C2998 C2999 1.369 . S
C2998 C3000 1.419 . S
C2998 H3002 0.930 . S
C2999 C2998 1.369 . S
C2999 C3008 1.429 . S
C3000 C2998 1.419 . S
C3000 C3001 1.363 . S
C3000 H3003 0.929 . S
C3001 C3000 1.363 . S
C3001 C3007 1.428 . S
H3002 C2998 0.930 . S
H3003 C3000 0.929 . S
S3004 N3005 1.613 . S
S3004 N3006 1.610 . S
N3005 S3004 1.613 . S
N3005 C3008 1.350 . S
N3006 S3004 1.610 . S
N3006 C3007 1.351 . S
C3007 C3001 1.428 . S
C3007 N3006 1.351 . S
C3007 C3008 1.434 . S
C3008 C2999 1.429 . S
C3008 N3005 1.350 . S
C3008 C3007 1.434 . S
C3009 C3010 1.369 . S
C3009 C3011 1.419 . S
C3009 H3013 0.930 . S
C3010 C3009 1.369 . S
C3010 C3019 1.429 . S
C3011 C3009 1.419 . S
C3011 C3012 1.363 . S
C3011 H3014 0.929 . S
C3012 C3011 1.363 . S
C3012 C3018 1.428 . S
H3013 C3009 0.930 . S
H3014 C3011 0.929 . S
S3015 N3016 1.613 . S
S3015 N3017 1.610 . S
N3016 S3015 1.613 . S
N3016 C3019 1.350 . S
N3017 S3015 1.610 . S
N3017 C3018 1.351 . S
C3018 C3012 1.428 . S
C3018 N3017 1.351 . S
C3018 C3019 1.434 . S
C3019 C3010 1.429 . S
C3019 N3016 1.350 . S
C3019 C3018 1.434 . S
C3020 C3021 1.369 . S
C3020 C3022 1.419 . S
C3020 H3024 0.930 . S
C3021 C3020 1.369 . S
C3021 C3030 1.429 . S
C3022 C3020 1.419 . S
C3022 C3023 1.363 . S
C3022 H3025 0.929 . S
C3023 C3022 1.363 . S
C3023 C3029 1.428 . S
H3024 C3020 0.930 . S
H3025 C3022 0.929 . S
S3026 N3027 1.613 . S
S3026 N3028 1.610 . S
N3027 S3026 1.613 . S
N3027 C3030 1.350 . S
N3028 S3026 1.610 . S
N3028 C3029 1.351 . S
C3029 C3023 1.428 . S
C3029 N3028 1.351 . S
C3029 C3030 1.434 . S
C3030 C3021 1.429 . S
C3030 N3027 1.350 . S
C3030 C3029 1.434 . S
C3031 C3032 1.369 . S
C3031 C3033 1.419 . S
C3031 H3035 0.930 . S
C3032 C3031 1.369 . S
C3032 C3041 1.429 . S
C3033 C3031 1.419 . S
C3033 C3034 1.363 . S
C3033 H3036 0.929 . S
C3034 C3033 1.363 . S
C3034 C3040 1.428 . S
H3035 C3031 0.930 . S
H3036 C3033 0.929 . S
S3037 N3038 1.613 . S
S3037 N3039 1.610 . S
N3038 S3037 1.613 . S
N3038 C3041 1.350 . S
N3039 S3037 1.610 . S
N3039 C3040 1.351 . S
C3040 C3034 1.428 . S
C3040 N3039 1.351 . S
C3040 C3041 1.434 . S
C3041 C3032 1.429 . S
C3041 N3038 1.350 . S
C3041 C3040 1.434 . S
C3042 C3043 1.369 . S
C3042 C3044 1.419 . S
C3042 H3046 0.930 . S
C3043 C3042 1.369 . S
C3043 C3052 1.429 . S
C3044 C3042 1.419 . S
C3044 C3045 1.363 . S
C3044 H3047 0.929 . S
C3045 C3044 1.363 . S
C3045 C3051 1.428 . S
H3046 C3042 0.930 . S
H3047 C3044 0.929 . S
S3048 N3049 1.613 . S
S3048 N3050 1.610 . S
N3049 S3048 1.613 . S
N3049 C3052 1.350 . S
N3050 S3048 1.610 . S
N3050 C3051 1.351 . S
C3051 C3045 1.428 . S
C3051 N3050 1.351 . S
C3051 C3052 1.434 . S
C3052 C3043 1.429 . S
C3052 N3049 1.350 . S
C3052 C3051 1.434 . S
C3053 C3054 1.369 . S
C3053 C3055 1.419 . S
C3053 H3057 0.930 . S
C3054 C3053 1.369 . S
C3054 C3063 1.429 . S
C3055 C3053 1.419 . S
C3055 C3056 1.363 . S
C3055 H3058 0.929 . S
C3056 C3055 1.363 . S
C3056 C3062 1.428 . S
H3057 C3053 0.930 . S
H3058 C3055 0.929 . S
S3059 N3060 1.613 . S
S3059 N3061 1.610 . S
N3060 S3059 1.613 . S
N3060 C3063 1.350 . S
N3061 S3059 1.610 . S
N3061 C3062 1.351 . S
C3062 C3056 1.428 . S
C3062 N3061 1.351 . S
C3062 C3063 1.434 . S
C3063 C3054 1.429 . S
C3063 N3060 1.350 . S
C3063 C3062 1.434 . S
C3064 C3065 1.369 . S
C3064 C3066 1.419 . S
C3064 H3068 0.930 . S
C3065 C3064 1.369 . S
C3065 C3074 1.429 . S
C3066 C3064 1.419 . S
C3066 C3067 1.363 . S
C3066 H3069 0.929 . S
C3067 C3066 1.363 . S
C3067 C3073 1.428 . S
H3068 C3064 0.930 . S
H3069 C3066 0.929 . S
S3070 N3071 1.613 . S
S3070 N3072 1.610 . S
N3071 S3070 1.613 . S
N3071 C3074 1.350 . S
N3072 S3070 1.610 . S
N3072 C3073 1.351 . S
C3073 C3067 1.428 . S
C3073 N3072 1.351 . S
C3073 C3074 1.434 . S
C3074 C3065 1.429 . S
C3074 N3071 1.350 . S
C3074 C3073 1.434 . S
C3075 C3076 1.369 . S
C3075 C3077 1.419 . S
C3075 H3079 0.930 . S
C3076 C3075 1.369 . S
C3076 C3085 1.429 . S
C3077 C3075 1.419 . S
C3077 C3078 1.363 . S
C3077 H3080 0.929 . S
C3078 C3077 1.363 . S
C3078 C3084 1.428 . S
H3079 C3075 0.930 . S
H3080 C3077 0.929 . S
S3081 N3082 1.613 . S
S3081 N3083 1.610 . S
N3082 S3081 1.613 . S
N3082 C3085 1.350 . S
N3083 S3081 1.610 . S
N3083 C3084 1.351 . S
C3084 C3078 1.428 . S
C3084 N3083 1.351 . S
C3084 C3085 1.434 . S
C3085 C3076 1.429 . S
C3085 N3082 1.350 . S
C3085 C3084 1.434 . S
C3086 C3087 1.369 . S
C3086 C3088 1.419 . S
C3086 H3090 0.930 . S
C3087 C3086 1.369 . S
C3087 C3096 1.429 . S
C3088 C3086 1.419 . S
C3088 C3089 1.363 . S
C3088 H3091 0.929 . S
C3089 C3088 1.363 . S
C3089 C3095 1.428 . S
H3090 C3086 0.930 . S
H3091 C3088 0.929 . S
S3092 N3093 1.613 . S
S3092 N3094 1.610 . S
N3093 S3092 1.613 . S
N3093 C3096 1.350 . S
N3094 S3092 1.610 . S
N3094 C3095 1.351 . S
C3095 C3089 1.428 . S
C3095 N3094 1.351 . S
C3095 C3096 1.434 . S
C3096 C3087 1.429 . S
C3096 N3093 1.350 . S
C3096 C3095 1.434 . S
C3097 C3098 1.369 . S
C3097 C3099 1.419 . S
C3097 H3101 0.930 . S
C3098 C3097 1.369 . S
C3098 C3107 1.429 . S
C3099 C3097 1.419 . S
C3099 C3100 1.363 . S
C3099 H3102 0.929 . S
C3100 C3099 1.363 . S
C3100 C3106 1.428 . S
H3101 C3097 0.930 . S
H3102 C3099 0.929 . S
S3103 N3104 1.613 . S
S3103 N3105 1.610 . S
N3104 S3103 1.613 . S
N3104 C3107 1.350 . S
N3105 S3103 1.610 . S
N3105 C3106 1.351 . S
C3106 C3100 1.428 . S
C3106 N3105 1.351 . S
C3106 C3107 1.434 . S
C3107 C3098 1.429 . S
C3107 N3104 1.350 . S
C3107 C3106 1.434 . S
C3108 C3109 1.369 . S
C3108 C3110 1.419 . S
C3108 H3112 0.930 . S
C3109 C3108 1.369 . S
C3109 C3118 1.429 . S
C3110 C3108 1.419 . S
C3110 C3111 1.363 . S
C3110 H3113 0.929 . S
C3111 C3110 1.363 . S
C3111 C3117 1.428 . S
H3112 C3108 0.930 . S
H3113 C3110 0.929 . S
S3114 N3115 1.613 . S
S3114 N3116 1.610 . S
N3115 S3114 1.613 . S
N3115 C3118 1.350 . S
N3116 S3114 1.610 . S
N3116 C3117 1.351 . S
C3117 C3111 1.428 . S
C3117 N3116 1.351 . S
C3117 C3118 1.434 . S
C3118 C3109 1.429 . S
C3118 N3115 1.350 . S
C3118 C3117 1.434 . S
C3119 C3120 1.369 . S
C3119 C3121 1.419 . S
C3119 H3123 0.930 . S
C3120 C3119 1.369 . S
C3120 C3129 1.429 . S
C3121 C3119 1.419 . S
C3121 C3122 1.363 . S
C3121 H3124 0.929 . S
C3122 C3121 1.363 . S
C3122 C3128 1.428 . S
H3123 C3119 0.930 . S
H3124 C3121 0.929 . S
S3125 N3126 1.613 . S
S3125 N3127 1.610 . S
N3126 S3125 1.613 . S
N3126 C3129 1.350 . S
N3127 S3125 1.610 . S
N3127 C3128 1.351 . S
C3128 C3122 1.428 . S
C3128 N3127 1.351 . S
C3128 C3129 1.434 . S
C3129 C3120 1.429 . S
C3129 N3126 1.350 . S
C3129 C3128 1.434 . S
C3130 C3131 1.369 . S
C3130 C3132 1.419 . S
C3130 H3134 0.930 . S
C3131 C3130 1.369 . S
C3131 C3140 1.429 . S
C3132 C3130 1.419 . S
C3132 C3133 1.363 . S
C3132 H3135 0.929 . S
C3133 C3132 1.363 . S
C3133 C3139 1.428 . S
H3134 C3130 0.930 . S
H3135 C3132 0.929 . S
S3136 N3137 1.613 . S
S3136 N3138 1.610 . S
N3137 S3136 1.613 . S
N3137 C3140 1.350 . S
N3138 S3136 1.610 . S
N3138 C3139 1.351 . S
C3139 C3133 1.428 . S
C3139 N3138 1.351 . S
C3139 C3140 1.434 . S
C3140 C3131 1.429 . S
C3140 N3137 1.350 . S
C3140 C3139 1.434 . S
C3141 C3142 1.369 . S
C3141 C3143 1.419 . S
C3141 H3145 0.930 . S
C3142 C3141 1.369 . S
C3142 C3151 1.429 . S
C3143 C3141 1.419 . S
C3143 C3144 1.363 . S
C3143 H3146 0.929 . S
C3144 C3143 1.363 . S
C3144 C3150 1.428 . S
H3145 C3141 0.930 . S
H3146 C3143 0.929 . S
S3147 N3148 1.613 . S
S3147 N3149 1.610 . S
N3148 S3147 1.613 . S
N3148 C3151 1.350 . S
N3149 S3147 1.610 . S
N3149 C3150 1.351 . S
C3150 C3144 1.428 . S
C3150 N3149 1.351 . S
C3150 C3151 1.434 . S
C3151 C3142 1.429 . S
C3151 N3148 1.350 . S
C3151 C3150 1.434 . S
C3152 C3153 1.369 . S
C3152 C3154 1.419 . S
C3152 H3156 0.930 . S
C3153 C3152 1.369 . S
C3153 C3162 1.429 . S
C3154 C3152 1.419 . S
C3154 C3155 1.363 . S
C3154 H3157 0.929 . S
C3155 C3154 1.363 . S
C3155 C3161 1.428 . S
H3156 C3152 0.930 . S
H3157 C3154 0.929 . S
S3158 N3159 1.613 . S
S3158 N3160 1.610 . S
N3159 S3158 1.613 . S
N3159 C3162 1.350 . S
N3160 S3158 1.610 . S
N3160 C3161 1.351 . S
C3161 C3155 1.428 . S
C3161 N3160 1.351 . S
C3161 C3162 1.434 . S
C3162 C3153 1.429 . S
C3162 N3159 1.350 . S
C3162 C3161 1.434 . S
C3163 C3164 1.369 . S
C3163 C3165 1.419 . S
C3163 H3167 0.930 . S
C3164 C3163 1.369 . S
C3164 C3173 1.429 . S
C3165 C3163 1.419 . S
C3165 C3166 1.363 . S
C3165 H3168 0.929 . S
C3166 C3165 1.363 . S
C3166 C3172 1.428 . S
H3167 C3163 0.930 . S
H3168 C3165 0.929 . S
S3169 N3170 1.613 . S
S3169 N3171 1.610 . S
N3170 S3169 1.613 . S
N3170 C3173 1.350 . S
N3171 S3169 1.610 . S
N3171 C3172 1.351 . S
C3172 C3166 1.428 . S
C3172 N3171 1.351 . S
C3172 C3173 1.434 . S
C3173 C3164 1.429 . S
C3173 N3170 1.350 . S
C3173 C3172 1.434 . S
C3174 C3175 1.369 . S
C3174 C3176 1.419 . S
C3174 H3178 0.930 . S
C3175 C3174 1.369 . S
C3175 C3184 1.429 . S
C3176 C3174 1.419 . S
C3176 C3177 1.363 . S
C3176 H3179 0.929 . S
C3177 C3176 1.363 . S
C3177 C3183 1.428 . S
H3178 C3174 0.930 . S
H3179 C3176 0.929 . S
S3180 N3181 1.613 . S
S3180 N3182 1.610 . S
N3181 S3180 1.613 . S
N3181 C3184 1.350 . S
N3182 S3180 1.610 . S
N3182 C3183 1.351 . S
C3183 C3177 1.428 . S
C3183 N3182 1.351 . S
C3183 C3184 1.434 . S
C3184 C3175 1.429 . S
C3184 N3181 1.350 . S
C3184 C3183 1.434 . S
C3185 C3186 1.369 . S
C3185 C3187 1.419 . S
C3185 H3189 0.930 . S
C3186 C3185 1.369 . S
C3186 C3195 1.429 . S
C3187 C3185 1.419 . S
C3187 C3188 1.363 . S
C3187 H3190 0.929 . S
C3188 C3187 1.363 . S
C3188 C3194 1.428 . S
H3189 C3185 0.930 . S
H3190 C3187 0.929 . S
S3191 N3192 1.613 . S
S3191 N3193 1.610 . S
N3192 S3191 1.613 . S
N3192 C3195 1.350 . S
N3193 S3191 1.610 . S
N3193 C3194 1.351 . S
C3194 C3188 1.428 . S
C3194 N3193 1.351 . S
C3194 C3195 1.434 . S
C3195 C3186 1.429 . S
C3195 N3192 1.350 . S
C3195 C3194 1.434 . S
C3196 C3197 1.369 . S
C3196 C3198 1.419 . S
C3196 H3200 0.930 . S
C3197 C3196 1.369 . S
C3197 C3206 1.429 . S
C3198 C3196 1.419 . S
C3198 C3199 1.363 . S
C3198 H3201 0.929 . S
C3199 C3198 1.363 . S
C3199 C3205 1.428 . S
H3200 C3196 0.930 . S
H3201 C3198 0.929 . S
S3202 N3203 1.613 . S
S3202 N3204 1.610 . S
N3203 S3202 1.613 . S
N3203 C3206 1.350 . S
N3204 S3202 1.610 . S
N3204 C3205 1.351 . S
C3205 C3199 1.428 . S
C3205 N3204 1.351 . S
C3205 C3206 1.434 . S
C3206 C3197 1.429 . S
C3206 N3203 1.350 . S
C3206 C3205 1.434 . S
C3207 C3208 1.369 . S
C3207 C3209 1.419 . S
C3207 H3211 0.930 . S
C3208 C3207 1.369 . S
C3208 C3217 1.429 . S
C3209 C3207 1.419 . S
C3209 C3210 1.363 . S
C3209 H3212 0.929 . S
C3210 C3209 1.363 . S
C3210 C3216 1.428 . S
H3211 C3207 0.930 . S
H3212 C3209 0.929 . S
S3213 N3214 1.613 . S
S3213 N3215 1.610 . S
N3214 S3213 1.613 . S
N3214 C3217 1.350 . S
N3215 S3213 1.610 . S
N3215 C3216 1.351 . S
C3216 C3210 1.428 . S
C3216 N3215 1.351 . S
C3216 C3217 1.434 . S
C3217 C3208 1.429 . S
C3217 N3214 1.350 . S
C3217 C3216 1.434 . S
C3218 C3219 1.369 . S
C3218 C3220 1.419 . S
C3218 H3222 0.930 . S
C3219 C3218 1.369 . S
C3219 C3228 1.429 . S
C3220 C3218 1.419 . S
C3220 C3221 1.363 . S
C3220 H3223 0.929 . S
C3221 C3220 1.363 . S
C3221 C3227 1.428 . S
H3222 C3218 0.930 . S
H3223 C3220 0.929 . S
S3224 N3225 1.613 . S
S3224 N3226 1.610 . S
N3225 S3224 1.613 . S
N3225 C3228 1.350 . S
N3226 S3224 1.610 . S
N3226 C3227 1.351 . S
C3227 C3221 1.428 . S
C3227 N3226 1.351 . S
C3227 C3228 1.434 . S
C3228 C3219 1.429 . S
C3228 N3225 1.350 . S
C3228 C3227 1.434 . S
C3229 C3230 1.369 . S
C3229 C3231 1.419 . S
C3229 H3233 0.930 . S
C3230 C3229 1.369 . S
C3230 C3239 1.429 . S
C3231 C3229 1.419 . S
C3231 C3232 1.363 . S
C3231 H3234 0.929 . S
C3232 C3231 1.363 . S
C3232 C3238 1.428 . S
H3233 C3229 0.930 . S
H3234 C3231 0.929 . S
S3235 N3236 1.613 . S
S3235 N3237 1.610 . S
N3236 S3235 1.613 . S
N3236 C3239 1.350 . S
N3237 S3235 1.610 . S
N3237 C3238 1.351 . S
C3238 C3232 1.428 . S
C3238 N3237 1.351 . S
C3238 C3239 1.434 . S
C3239 C3230 1.429 . S
C3239 N3236 1.350 . S
C3239 C3238 1.434 . S
C1393 C3 0.753 . S
C1395 C746 0.770 . S
C1404 C775 0.773 . S
C1406 C32 0.758 . S
C1415 C804 0.746 . S
C1417 C61 0.764 . S
C1426 C90 0.764 . S
C1428 C717 0.767 . S
C1437 C224 0.756 . S
C1439 C119 0.754 . S
C1448 C148 0.772 . S
C1450 C137 0.757 . S
C1459 C177 0.772 . S
C1461 C166 0.757 . S
C1470 C195 0.754 . S
C1472 C206 0.770 . S
C1481 C235 0.773 . S
C1483 C1355 0.752 . S
C1492 C485 0.773 . S
C1494 C264 0.758 . S
C1503 C293 0.762 . S
C1505 C1384 0.750 . S
C1514 C322 0.748 . S
C1516 C1326 0.764 . S
C1525 C351 0.758 . S
C1527 C1239 0.751 . S
C1536 C1268 0.753 . S
C1538 C380 0.755 . S
C1547 C601 0.767 . S
C1549 C409 0.764 . S
C1558 C438 0.749 . S
C1560 C1210 0.767 . S
C1569 C467 0.772 . S
C1571 C398 0.755 . S
C1580 C496 0.749 . S
C1582 C1036 0.768 . S
C1591 C525 0.748 . S
C1593 C949 0.765 . S
C1602 C978 0.747 . S
C1604 C554 0.769 . S
C1613 C311 0.746 . S
C1615 C583 0.767 . S
C1624 C1152 0.759 . S
C1626 C612 0.768 . S
C1635 C641 0.748 . S
C1637 C1065 0.764 . S
C1646 C1123 0.770 . S
C1648 C670 0.763 . S
C1657 C699 0.756 . S
C1659 C50 0.753 . S
C1668 C79 0.771 . S
C1670 C728 0.761 . S
C1679 C108 0.767 . S
C1681 C757 0.751 . S
C1690 C786 0.753 . S
C1692 C21 0.754 . S
C1701 C815 0.760 . S
C1703 C920 0.751 . S
C1712 C833 0.745 . S
C1714 C844 0.763 . S
C1723 C862 0.745 . S
C1725 C873 0.764 . S
C1734 C891 0.748 . S
C1736 C902 0.769 . S
C1745 C931 0.751 . S
C1747 C659 0.758 . S
C1756 C960 0.762 . S
C1758 C1181 0.749 . S
C1767 C688 0.764 . S
C1769 C989 0.766 . S
C1778 C1018 0.751 . S
C1780 C630 0.769 . S
C1789 C1047 0.773 . S
C1791 C543 0.755 . S
C1800 C572 0.773 . S
C1802 C1076 0.755 . S
C1811 C1297 0.773 . S
C1813 C1105 0.754 . S
C1822 C514 0.759 . S
C1824 C1134 0.769 . S
C1833 C1094 0.756 . S
C1835 C1163 0.754 . S
C1844 C1192 0.762 . S
C1846 C340 0.767 . S
C1855 C253 0.768 . S
C1857 C1221 0.751 . S
C1866 C282 0.746 . S
C1868 C1250 0.764 . S
C1877 C1007 0.755 . S
C1879 C1279 0.753 . S
C1888 C456 0.748 . S
C1890 C1308 0.769 . S
C1899 C369 0.745 . S
C1901 C1337 0.763 . S
C1910 C1366 0.754 . S
C1912 C427 0.770 . S
C1921 C63 3.133 . S
C1923 C5 3.132 . S
C1932 C92 3.134 . S
C1934 C34 3.132 . S
C1943 C179 3.133 . S
C1945 C121 3.133 . S
C1954 C150 3.133 . S
C1956 C208 3.134 . S
C1965 C353 3.134 . S
C1967 C237 3.132 . S
C1976 C382 3.133 . S
C1978 C266 3.134 . S
C1987 C295 3.132 . S
C1989 C411 3.134 . S
C1998 C324 3.132 . S
C2000 C440 3.134 . S
C2009 C469 3.134 . S
C2011 C1252 3.132 . S
C2020 C614 3.133 . S
C2022 C498 3.134 . S
C2031 C643 3.132 . S
C2033 C527 3.134 . S
C2042 C1165 3.134 . S
C2044 C556 3.133 . S
C2053 C585 3.133 . S
C2055 C1368 3.134 . S
C2064 C672 3.134 . S
C2066 C1281 3.133 . S
C2075 C701 3.133 . S
C2077 C759 3.133 . S
C2086 C730 3.134 . S
C2088 C788 3.132 . S
C2097 C817 3.133 . S
C2099 C875 3.134 . S
C2108 C904 3.133 . S
C2110 C846 3.134 . S
C2119 C1049 3.133 . S
C2121 C933 3.134 . S
C2130 C1078 3.132 . S
C2132 C962 3.133 . S
C2141 C991 3.134 . S
C2143 C1107 3.134 . S
C2152 C1020 3.132 . S
C2154 C1136 3.133 . S
C2163 C1194 3.133 . S
C2165 C1310 3.134 . S
C2174 C1223 3.132 . S
C2176 C1339 3.134 . S
C2185 C13 1.204 . S
C2187 C247 1.136 . S
C2196 C276 1.145 . S
C2198 C42 1.209 . S
C2207 C71 1.213 . S
C2209 C305 1.141 . S
C2218 C100 1.207 . S
C2220 C334 1.118 1_565 S
C2229 C129 1.207 . S
C2231 C363 1.132 . S
C2240 C392 1.130 . S
C2242 C158 1.207 . S
C2251 C187 1.203 . S
C2253 C421 1.134 . S
C2262 C450 1.106 1_565 S
C2264 C216 1.207 . S
C2273 C479 1.146 . S
C2275 C245 1.210 . S
C2284 C274 1.205 . S
C2286 C1378 1.138 . S
C2295 C1320 1.145 . S
C2297 C303 1.209 . S
C2306 C332 1.203 . S
C2308 C1349 1.133 . S
C2317 C361 1.210 . S
C2319 C508 1.134 . S
C2328 C537 1.106 1_455 S
C2330 C390 1.206 . S
C2339 C566 1.144 . S
C2341 C419 1.208 . S
C2350 C1291 1.123 1_655 S
C2352 C448 1.212 . S
C2361 C477 1.209 . S
C2363 C15 1.143 . S
C2372 C131 1.145 . S
C2374 C506 1.209 . S
C2383 C160 1.121 1_556 S
C2385 C535 1.212 . S
C2394 C564 1.209 . S
C2396 C189 1.134 . S
C2405 C593 1.208 . S
C2407 C914 1.142 . S
C2416 C622 1.211 . S
C2418 C769 1.144 . S
C2427 C651 1.212 . S
C2429 C798 1.140 . S
C2438 C740 1.136 . S
C2440 C680 1.205 . S
C2449 C943 1.142 . S
C2451 C709 1.207 . S
C2460 C738 1.205 . S
C2462 C972 1.114 1_545 S
C2471 C1001 1.145 . S
C2473 C767 1.209 . S
C2482 C1030 1.130 . S
C2484 C796 1.204 . S
C2493 C825 1.212 . S
C2495 C1059 1.144 . S
C2504 C1088 1.117 1_545 S
C2506 C854 1.211 . S
C2515 C883 1.209 . S
C2517 C1117 1.143 . S
C2526 C912 1.210 . S
C2528 C1146 1.135 . S
C2537 C941 1.212 . S
C2539 C1175 1.139 . S
C2548 C682 1.106 1_655 S
C2550 C970 1.205 . S
C2559 C999 1.206 . S
C2561 C624 1.141 . S
C2570 C1028 1.203 . S
C2572 C653 1.108 1_455 S
C2581 C1057 1.203 . S
C2583 C1204 1.132 . S
C2592 C1233 1.131 . S
C2594 C1086 1.204 . S
C2603 C1262 1.146 . S
C2605 C1115 1.210 . S
C2614 C595 1.129 . S
C2616 C1144 1.205 . S
C2625 C711 1.129 . S
C2627 C1173 1.205 . S
C2636 C1202 1.204 . S
C2638 C827 1.131 . S
C2647 C1231 1.204 . S
C2649 C856 1.137 . S
C2658 C885 1.132 . S
C2660 C1260 1.208 . S
C2669 C1289 1.213 . S
C2671 C218 1.120 1_556 S
C2680 C73 1.145 . S
C2682 C1318 1.212 . S
C2691 C1347 1.210 . S
C2693 C102 1.121 1_554 S
C2702 C1376 1.210 . S
C2704 C44 1.112 1_554 S
C2713 C8 2.459 . S
C2715 C387 2.440 . S
C2724 C416 2.441 . S
C2726 C37 2.461 . S
C2735 C445 2.438 . S
C2737 C66 2.458 . S
C2746 C358 2.440 . S
C2748 C95 2.459 . S
C2757 C1025 2.440 . S
C2759 C124 2.462 . S
C2768 C153 2.460 . S
C2770 C938 2.435 . S
C2779 C967 2.438 . S
C2781 C182 2.463 . S
C2790 C996 2.441 . S
C2792 C211 2.462 . S
C2801 C735 2.435 . S
C2803 C240 2.461 . S
C2812 C764 2.435 . S
C2814 C269 2.460 . S
C2823 C793 2.435 . S
C2825 C298 2.460 . S
C2834 C706 2.435 . S
C2836 C327 2.461 . S
C2845 C213 2.436 . S
C2847 C356 2.459 . S
C2856 C126 2.435 . S
C2858 C385 2.461 . S
C2867 C155 2.436 . S
C2869 C414 2.459 . S
C2878 C443 2.458 . S
C2880 C184 2.439 . S
C2889 C1344 2.441 . S
C2891 C472 2.461 . S
C2900 C1228 2.435 . S
C2902 C501 2.461 . S
C2911 C1257 2.438 . S
C2913 C530 2.463 . S
C2922 C559 2.461 . S
C2924 C590 2.440 . S
C2933 C503 2.439 . S
C2935 C588 2.459 . S
C2944 C617 2.458 . S
C2946 C677 2.440 . S
C2955 C646 2.460 . S
C2957 C619 2.435 . S
C2966 C1170 2.436 . S
C2968 C675 2.462 . S
C2977 C1083 2.440 . S
C2979 C704 2.462 . S
C2988 C1112 2.441 . S
C2990 C733 2.462 . S
C2999 C1141 2.437 . S
C3001 C762 2.459 . S
C3010 C1054 2.439 . S
C3012 C791 2.459 . S
C3021 C329 2.439 . S
C3023 C820 2.463 . S
C3032 C242 2.439 . S
C3034 C849 2.459 . S
C3043 C271 2.435 . S
C3045 C878 2.460 . S
C3054 C300 2.435 . S
C3056 C907 2.461 . S
C3065 C39 2.438 . S
C3067 C936 2.463 . S
C3076 C965 2.462 . S
C3078 C68 2.440 . S
C3087 C97 2.437 . S
C3089 C994 2.459 . S
C3098 C1023 2.463 . S
C3100 C10 2.437 . S
C3109 C1052 2.459 . S
C3111 C909 2.440 . S
C3120 C822 2.437 . S
C3122 C1081 2.458 . S
C3131 C851 2.438 . S
C3133 C1110 2.458 . S
C3142 C880 2.438 . S
C3144 C1139 2.463 . S
C3153 C1168 2.458 . S
C3155 C648 2.438 . S
C3164 C1197 2.461 . S
C3166 C532 2.435 . S
C3175 C1226 2.458 . S
C3177 C561 2.438 . S
C3186 C1255 2.463 . S
C3188 C1286 2.437 . S
C3197 C1199 2.438 . S
C3199 C1284 2.463 . S
C3208 C1373 2.436 . S
C3210 C1313 2.462 . S
C3219 C1342 2.459 . S
C3221 C1315 2.436 . S
C3230 C1371 2.461 . S
C3232 C474 2.440 . S
