# Generated by pormake.
# Topology wjq, (5)-cn, num edge types: 1
# Building blocks:
#     Node 0, Type 0, BuildingBlock: BEQFEK_clean_sbu_0, # of connection points: 5
#     Node 1, Type 0, BuildingBlock: BEQFEK_clean_sbu_0, # of connection points: 5
#     Node 2, Type 0, BuildingBlock: BEQFEK_clean_sbu_0, # of connection points: 5
#     Node 3, Type 0, BuildingBlock: BEQFEK_clean_sbu_0, # of connection points: 5
#     Node 4, Type 0, BuildingBlock: BEQFEK_clean_sbu_0, # of connection points: 5
#     Node 5, Type 0, BuildingBlock: BEQFEK_clean_sbu_0, # of connection points: 5
#     Node 6, Type 0, BuildingBlock: BEQFEK_clean_sbu_0, # of connection points: 5
#     Node 7, Type 0, BuildingBlock: BEQFEK_clean_sbu_0, # of connection points: 5
#     Node 8, Type 0, BuildingBlock: BEQFEK_clean_sbu_0, # of connection points: 5
#     Node 9, Type 0, BuildingBlock: BEQFEK_clean_sbu_0, # of connection points: 5
#     Node 10, Type 0, BuildingBlock: BEQFEK_clean_sbu_0, # of connection points: 5
#     Node 11, Type 0, BuildingBlock: BEQFEK_clean_sbu_0, # of connection points: 5
#     Edge 12, Type (0, 0), BuildingBlock: XIVTED_clean_linker_0, # of connection points: 2
#     Edge 13, Type (0, 0), BuildingBlock: XIVTED_clean_linker_0, # of connection points: 2
#     Edge 14, Type (0, 0), BuildingBlock: XIVTED_clean_linker_0, # of connection points: 2
#     Edge 15, Type (0, 0), BuildingBlock: XIVTED_clean_linker_0, # of connection points: 2
#     Edge 16, Type (0, 0), BuildingBlock: XIVTED_clean_linker_0, # of connection points: 2
#     Edge 17, Type (0, 0), BuildingBlock: XIVTED_clean_linker_0, # of connection points: 2
#     Edge 18, Type (0, 0), BuildingBlock: XIVTED_clean_linker_0, # of connection points: 2
#     Edge 19, Type (0, 0), BuildingBlock: XIVTED_clean_linker_0, # of connection points: 2
#     Edge 20, Type (0, 0), BuildingBlock: XIVTED_clean_linker_0, # of connection points: 2
#     Edge 21, Type (0, 0), BuildingBlock: XIVTED_clean_linker_0, # of connection points: 2
#     Edge 22, Type (0, 0), BuildingBlock: XIVTED_clean_linker_0, # of connection points: 2
#     Edge 23, Type (0, 0), BuildingBlock: XIVTED_clean_linker_0, # of connection points: 2
#     Edge 24, Type (0, 0), BuildingBlock: XIVTED_clean_linker_0, # of connection points: 2
#     Edge 25, Type (0, 0), BuildingBlock: XIVTED_clean_linker_0, # of connection points: 2
#     Edge 26, Type (0, 0), BuildingBlock: XIVTED_clean_linker_0, # of connection points: 2
#     Edge 27, Type (0, 0), BuildingBlock: XIVTED_clean_linker_0, # of connection points: 2
#     Edge 28, Type (0, 0), BuildingBlock: XIVTED_clean_linker_0, # of connection points: 2
#     Edge 29, Type (0, 0), BuildingBlock: XIVTED_clean_linker_0, # of connection points: 2
#     Edge 30, Type (0, 0), BuildingBlock: XIVTED_clean_linker_0, # of connection points: 2
#     Edge 31, Type (0, 0), BuildingBlock: XIVTED_clean_linker_0, # of connection points: 2
#     Edge 32, Type (0, 0), BuildingBlock: XIVTED_clean_linker_0, # of connection points: 2
#     Edge 33, Type (0, 0), BuildingBlock: XIVTED_clean_linker_0, # of connection points: 2
#     Edge 34, Type (0, 0), BuildingBlock: XIVTED_clean_linker_0, # of connection points: 2
#     Edge 35, Type (0, 0), BuildingBlock: XIVTED_clean_linker_0, # of connection points: 2
#     Edge 36, Type (0, 0), BuildingBlock: XIVTED_clean_linker_0, # of connection points: 2
#     Edge 37, Type (0, 0), BuildingBlock: XIVTED_clean_linker_0, # of connection points: 2
#     Edge 38, Type (0, 0), BuildingBlock: XIVTED_clean_linker_0, # of connection points: 2
#     Edge 39, Type (0, 0), BuildingBlock: XIVTED_clean_linker_0, # of connection points: 2
#     Edge 40, Type (0, 0), BuildingBlock: XIVTED_clean_linker_0, # of connection points: 2
#     Edge 41, Type (0, 0), BuildingBlock: XIVTED_clean_linker_0, # of connection points: 2
# Relax obj value: 0.370
# Max RMSD: 0.176
# Mean RMSD: 0.176
data_MOF--net-wjq--node1-BEQFEK_clean_sbu_0--edge1-XIVTED_clean_linker_0
_symmetry_space_group_name_H-M    P1
_symmetry_Int_Tables_number       1
_symmetry_cell_setting            triclinic
loop_
_symmetry_equiv_pos_as_xyz
'x, y, z'
_cell_length_a     35.211809
_cell_length_b     35.150361
_cell_length_c     74.412186
_cell_angle_alpha  89.982325
_cell_angle_beta   89.969158
_cell_angle_gamma 119.98816
loop_
_atom_site_label
_atom_site_type_symbol
_atom_site_fract_x
_atom_site_fract_y
_atom_site_fract_z
_atom_type_partial_charge
Co0 Co 0.21132 0.13811 0.0944 0.0
Co1 Co 0.29402 0.21356 0.07621 0.0
C2 C 0.20423 0.2008 0.06892 0.0
O3 O 0.18762 0.16787 0.07943 0.0
O4 O 0.24566 0.22344 0.06674 0.0
C5 C 0.1393 0.10682 0.11785 0.0
O6 O 0.14803 0.14775 0.11694 0.0
C7 C 0.35819 0.30538 0.06986 0.0
C8 C 0.41747 0.30328 0.06179 0.0
C9 C 0.40184 0.3318 0.06514 0.0
N10 N 0.34837 0.26323 0.06924 0.0
N11 N 0.38381 0.2621 0.06424 0.0
C12 C 0.32739 0.31981 0.07666 0.0
H13 H 0.30301 0.2948 0.08595 0.0
H14 H 0.34553 0.3519 0.08365 0.0
H15 H 0.30955 0.32346 0.06511 0.0
C16 C 0.26533 0.17134 0.12687 0.0
N17 N 0.25805 0.17549 0.10939 0.0
N18 N 0.29411 0.2069 0.10204 0.0
C19 C 0.32577 0.22369 0.11484 0.0
C20 C 0.30828 0.20186 0.13101 0.0
C21 C 0.23355 0.13508 0.13887 0.0
H22 H 0.22005 0.10312 0.13183 0.0
H23 H 0.20624 0.14089 0.14227 0.0
H24 H 0.24896 0.13336 0.15161 0.0
O25 O 0.22972 0.10613 0.07824 0.0
O26 O 0.28682 0.15938 0.06367 0.0
H27 H 0.38588 0.24373 0.10088 0.0
H28 H 0.39282 0.26422 0.12368 0.0
C29 C 0.37276 0.25667 0.11129 0.0
H30 H 0.37511 0.28731 0.10605 0.0
H31 H 0.38536 0.23333 0.06301 0.0
O32 O 0.16269 0.0952 0.10906 0.0
C33 C 0.25955 0.11865 0.06631 0.0
Co34 Co 0.07495 0.21762 0.42725 0.0
Co35 Co 0.07952 0.29957 0.40944 0.0
C36 C 0.00379 0.20885 0.40223 0.0
O37 O 0.02105 0.19296 0.4126 0.0
O38 O 0.02164 0.25029 0.40006 0.0
C39 C 0.03679 0.1455 0.45081 0.0
O40 O 0.00422 0.15366 0.45055 0.0
C41 C 0.05038 0.36276 0.40338 0.0
C42 C 0.11125 0.4228 0.39539 0.0
C43 C 0.06706 0.40648 0.39878 0.0
N44 N 0.08307 0.35357 0.40266 0.0
N45 N 0.11934 0.38946 0.3977 0.0
C46 C 0.00533 0.33131 0.41015 0.0
H47 H 0.00632 0.30691 0.41933 0.0
H48 H 0.99103 0.34898 0.41727 0.0
H49 H 0.98396 0.31348 0.39857 0.0
C50 C 0.09577 0.27137 0.45982 0.0
N51 N 0.08377 0.26396 0.44241 0.0
N52 N 0.08696 0.29964 0.43525 0.0
C53 C 0.10121 0.33113 0.44814 0.0
C54 C 0.10705 0.31401 0.46413 0.0
C55 C 0.10088 0.23976 0.47169 0.0
H56 H 0.11972 0.22684 0.46457 0.0
H57 H 0.06799 0.21201 0.47507 0.0
H58 H 0.11773 0.25506 0.48448 0.0
O59 O 0.12491 0.23723 0.41083 0.0
O60 O 0.12697 0.29388 0.39656 0.0
H61 H 0.13939 0.39207 0.43439 0.0
H62 H 0.12528 0.39772 0.45726 0.0
C63 C 0.11339 0.3778 0.4448 0.0
H64 H 0.08441 0.3789 0.43966 0.0
H65 H 0.14983 0.39153 0.39642 0.0
O66 O 0.07097 0.16929 0.44161 0.0
C67 C 0.14137 0.2673 0.39896 0.0
Co68 Co 0.84476 0.06513 0.76102 0.0
Co69 Co 0.77746 0.08496 0.74275 0.0
C70 C 0.78106 0.00158 0.73491 0.0
O71 O 0.81082 0.01109 0.74659 0.0
O72 O 0.76572 0.02712 0.73212 0.0
C73 C 0.87453 0.02101 0.78395 0.0
O74 O 0.83399 0.98839 0.78261 0.0
C75 C 0.68706 0.05992 0.73612 0.0
C76 C 0.68987 0.12202 0.72857 0.0
C77 C 0.66111 0.07766 0.73142 0.0
N78 N 0.7292 0.09204 0.7359 0.0
N79 N 0.73081 0.12912 0.73126 0.0
C80 C 0.67209 0.01413 0.74243 0.0
H81 H 0.69617 0.01403 0.75202 0.0
H82 H 0.63942 -0.00036 0.74896 0.0
H83 H 0.66958 0.99352 0.7307 0.0
C84 C 0.81386 0.08829 0.79376 0.0
N85 N 0.81021 0.07857 0.7761 0.0
N86 N 0.78276 0.08888 0.76861 0.0
C87 C 0.76843 0.10615 0.78142 0.0
C88 C 0.78734 0.10581 0.79783 0.0
C89 C 0.84703 0.08706 0.806 0.0
H90 H 0.87987 0.10447 0.79962 0.0
H91 H 0.83798 0.05241 0.80836 0.0
H92 H 0.84889 0.1026 0.81919 0.0
O93 O 0.87997 0.11523 0.74463 0.0
O94 O 0.83292 0.13099 0.73128 0.0
H95 H 0.75669 0.1525 0.76756 0.0
H96 H 0.73448 0.13994 0.79015 0.0
C97 C 0.74042 0.12613 0.77775 0.0
H98 H 0.70855 0.10073 0.77215 0.0
H99 H 0.75969 0.15939 0.73035 0.0
O100 O 0.88597 0.05665 0.77563 0.0
C101 C 0.87187 0.13812 0.73364 0.0
Co102 Co 0.77832 0.84461 0.09437 0.0
Co103 Co 0.69096 0.77793 0.07611 0.0
C104 C 0.77782 0.78178 0.06764 0.0
O105 O 0.79794 0.81094 0.07955 0.0
O106 O 0.73703 0.76672 0.06482 0.0
C107 C 0.85165 0.87131 0.11688 0.0
O108 O 0.84197 0.83027 0.11492 0.0
C109 C 0.62199 0.68708 0.07324 0.0
C110 C 0.56975 0.69032 0.05814 0.0
C111 C 0.57999 0.66101 0.0663 0.0
N112 N 0.63538 0.72934 0.06951 0.0
N113 N 0.60403 0.73117 0.0605 0.0
C114 C 0.65029 0.67274 0.08267 0.0
H115 H 0.68505 0.69922 0.0826 0.0
H116 H 0.63986 0.66529 0.09692 0.0
H117 H 0.64729 0.64287 0.07625 0.0
C118 C 0.72447 0.81408 0.12708 0.0
N119 N 0.73055 0.80974 0.10948 0.0
N120 N 0.69265 0.78284 0.10198 0.0
C121 C 0.66094 0.76983 0.11469 0.0
C122 C 0.68026 0.7889 0.13106 0.0
C123 C 0.75935 0.84631 0.13942 0.0
H124 H 0.78496 0.83709 0.14109 0.0
H125 H 0.74623 0.84688 0.15291 0.0
H126 H 0.77455 0.87971 0.1335 0.0
O127 O 0.76319 0.88057 0.07844 0.0
O128 O 0.69993 0.83392 0.06528 0.0
H129 H 0.59345 0.74641 0.1222 0.0
H130 H 0.6028 0.70978 0.10836 0.0
C131 C 0.61287 0.74469 0.11079 0.0
H132 H 0.60579 0.75777 0.09845 0.0
H133 H 0.60612 0.7602 0.05589 0.0
O134 O 0.82846 0.88468 0.10907 0.0
C135 C 0.73183 0.8729 0.06774 0.0
Co136 Co 0.93182 0.78323 0.42771 0.0
Co137 Co 0.91023 0.69521 0.40977 0.0
C138 C 0.99337 0.78167 0.40089 0.0
O139 O 0.9848 0.8022 0.41278 0.0
O140 O 0.96735 0.74081 0.39822 0.0
C141 C 0.9787 0.85529 0.45078 0.0
O142 O 0.00788 0.84244 0.45005 0.0
C143 C 0.93139 0.62573 0.40702 0.0
C144 C 0.8755 0.57324 0.39218 0.0
C145 C 0.91509 0.58348 0.40023 0.0
N146 N 0.9027 0.63928 0.40332 0.0
N147 N 0.86927 0.60778 0.39446 0.0
C148 C 0.97425 0.65411 0.41627 0.0
H149 H 0.98282 0.68899 0.41606 0.0
H150 H 0.9715 0.64405 0.43056 0.0
H151 H 0.0008 0.65067 0.40981 0.0
C152 C 0.90866 0.72986 0.4607 0.0
N153 N 0.91867 0.73563 0.44305 0.0
N154 N 0.90752 0.69751 0.43565 0.0
C155 C 0.8892 0.66601 0.44848 0.0
C156 C 0.89005 0.68569 0.46483 0.0
C157 C 0.9104 0.76466 0.47288 0.0
H158 H 0.94511 0.7892 0.47565 0.0
H159 H 0.89389 0.75102 0.48592 0.0
H160 H 0.89446 0.78134 0.46629 0.0
O161 O 0.88066 0.76817 0.41188 0.0
O162 O 0.86339 0.70434 0.39898 0.0
H163 H 0.84598 0.61028 0.43249 0.0
H164 H 0.84548 0.59853 0.45627 0.0
C165 C 0.86636 0.61776 0.44477 0.0
H166 H 0.8912 0.60775 0.44235 0.0
H167 H 0.84239 0.60995 0.3899 0.0
O168 O 0.94312 0.83425 0.44208 0.0
C169 C 0.85668 0.73653 0.40132 0.0
Co170 Co 0.14775 0.93605 0.76064 0.0
Co171 Co 0.21436 0.91519 0.7424 0.0
C172 C 0.21064 -0.00133 0.73421 0.0
O173 O 0.18157 0.98997 0.74613 0.0
O174 O 0.22536 0.9726 0.73141 0.0
C175 C 0.11763 0.98034 0.78323 0.0
O176 O 0.15799 0.01317 0.78159 0.0
C177 C 0.30537 0.9385 0.7401 0.0
C178 C 0.30435 0.88512 0.72413 0.0
C179 C 0.33251 0.92414 0.73289 0.0
N180 N 0.26361 0.9093 0.73593 0.0
N181 N 0.26308 0.87734 0.72642 0.0
C182 C 0.31828 0.98016 0.75013 0.0
H183 H 0.29123 0.98761 0.75022 0.0
H184 H 0.32539 0.97625 0.76431 0.0
H185 H 0.34799 0.00801 0.74406 0.0
C186 C 0.17817 0.91263 0.79341 0.0
N187 N 0.18229 0.92279 0.77578 0.0
N188 N 0.20873 0.91123 0.76823 0.0
C189 C 0.22148 0.89223 0.78091 0.0
C190 C 0.20299 0.89314 0.79735 0.0
C191 C 0.14603 0.91543 0.80577 0.0
H192 H 0.11264 0.89698 0.79994 0.0
H193 H 0.15504 0.95029 0.8073 0.0
H194 H 0.14563 0.90195 0.81929 0.0
O195 O 0.1127 0.88562 0.74428 0.0
O196 O 0.15912 0.8687 0.73107 0.0
H197 H 0.23378 0.84957 0.76441 0.0
H198 H 0.24368 0.84698 0.7882 0.0
C199 C 0.2463 0.86893 0.77696 0.0
H200 H 0.28137 0.89357 0.7749 0.0
H201 H 0.23468 0.85052 0.72135 0.0
O202 O 0.10635 0.94439 0.77521 0.0
C203 C 0.12034 0.86211 0.73344 0.0
Co204 Co 0.84436 0.78403 0.6231 0.0
Co205 Co 0.77709 0.69645 0.64119 0.0
C206 C 0.78128 0.7838 0.64941 0.0
O207 O 0.81053 0.80417 0.63754 0.0
O208 O 0.7663 0.74294 0.65219 0.0
C209 C 0.87486 0.85817 0.60027 0.0
O210 O 0.83416 0.84985 0.60131 0.0
C211 C 0.68588 0.62875 0.64376 0.0
C212 C 0.68731 0.57611 0.65938 0.0
C213 C 0.65889 0.58712 0.65096 0.0
N214 N 0.72776 0.64124 0.64765 0.0
N215 N 0.72852 0.60962 0.65694 0.0
C216 C 0.67275 0.65767 0.63402 0.0
H217 H 0.69999 0.69211 0.63374 0.0
H218 H 0.66474 0.64652 0.61988 0.0
H219 H 0.64353 0.6561 0.64043 0.0
C220 C 0.81393 0.73041 0.59023 0.0
N221 N 0.80983 0.73635 0.60787 0.0
N222 N 0.78288 0.69834 0.61535 0.0
C223 C 0.76966 0.6667 0.6026 0.0
C224 C 0.78846 0.68619 0.58621 0.0
C225 C 0.84647 0.76524 0.57794 0.0
H226 H 0.87964 0.78048 0.58399 0.0
H227 H 0.83734 0.79091 0.57607 0.0
H228 H 0.84747 0.75198 0.56453 0.0
O229 O 0.87903 0.76837 0.6395 0.0
O230 O 0.83217 0.70498 0.65262 0.0
H231 H 0.75632 0.61104 0.61886 0.0
H232 H 0.74578 0.59906 0.59506 0.0
C233 C 0.74393 0.61852 0.60642 0.0
H234 H 0.7091 0.60883 0.60864 0.0
H235 H 0.75705 0.61109 0.66177 0.0
O236 O 0.88613 0.834 0.60869 0.0
C237 C 0.87106 0.73709 0.65032 0.0
Co238 Co 0.05615 0.84475 0.95449 0.0
Co239 Co 0.07755 0.77886 0.97309 0.0
C240 C 0.99379 0.7812 0.98115 0.0
O241 O 0.00301 0.81068 0.96934 0.0
O242 O 0.01956 0.76617 0.98403 0.0
C243 C 0.00939 0.87059 0.93135 0.0
O244 O 0.97838 0.82932 0.93294 0.0
C245 C 0.05585 0.68914 0.97991 0.0
C246 C 0.11899 0.6949 0.98774 0.0
C247 C 0.07516 0.66463 0.98473 0.0
N248 N 0.0866 0.73185 0.98018 0.0
N249 N 0.12429 0.73522 0.985 0.0
C250 C 0.00999 0.67239 0.97341 0.0
H251 H 0.0088 0.69641 0.96407 0.0
H252 H -0.00272 0.64025 0.96655 0.0
H253 H 0.98856 0.66796 0.98509 0.0
C254 C 0.07974 0.81381 0.92192 0.0
N255 N 0.06977 0.81008 0.93956 0.0
N256 N 0.08065 0.78314 0.94718 0.0
C257 C 0.09858 0.76928 0.93446 0.0
C258 C 0.09806 0.78792 0.918 0.0
C259 C 0.07796 0.84653 0.90954 0.0
H260 H 0.04325 0.83688 0.90715 0.0
H261 H 0.09348 0.8483 0.89636 0.0
H262 H 0.09491 0.87955 0.91581 0.0
O263 O 0.10681 0.88166 0.97036 0.0
O264 O 0.12347 0.83542 0.98389 0.0
H265 H 0.14616 0.76002 0.94858 0.0
H266 H 0.1348 0.7376 0.92602 0.0
C267 C 0.1202 0.74284 0.93834 0.0
H268 H 0.09563 0.71053 0.94395 0.0
H269 H 0.15378 0.76489 0.98597 0.0
O270 O 0.0454 0.88414 0.93962 0.0
C271 C 0.13032 0.87427 0.98127 0.0
Co272 Co 0.21163 0.0624 0.28888 0.0
Co273 Co 0.2988 0.08332 0.30729 0.0
C274 C 0.21239 -8e-05 0.3156 0.0
O275 O 0.19216 0.00915 0.3038 0.0
O276 O 0.25323 0.02557 0.31835 0.0
C277 C 0.13892 0.0159 0.26585 0.0
O278 O 0.14896 0.98473 0.26742 0.0
C279 C 0.36583 0.0605 0.31408 0.0
C280 C 0.42381 0.12339 0.3218 0.0
C281 C 0.40956 0.07931 0.31887 0.0
N282 N 0.35455 0.09176 0.31431 0.0
N283 N 0.38923 0.1293 0.31906 0.0
C284 C 0.33614 0.01458 0.30768 0.0
H285 H 0.31119 0.01371 0.29832 0.0
H286 H 0.35511 0.00128 0.30088 0.0
H287 H 0.31891 0.9934 0.31941 0.0
C288 C 0.266 0.0862 0.25626 0.0
N289 N 0.2597 0.0757 0.27386 0.0
N290 N 0.29744 0.08628 0.28141 0.0
C291 C 0.32922 0.10445 0.2687 0.0
C292 C 0.31016 0.10458 0.25231 0.0
C293 C 0.23158 0.08463 0.24396 0.0
H294 H 0.21602 0.1021 0.2502 0.0
H295 H 0.20613 0.04992 0.24172 0.0
H296 H 0.24521 0.0997 0.23069 0.0
O297 O 0.22605 0.11341 0.3047 0.0
O298 O 0.28902 0.12986 0.31801 0.0
H299 H 0.38594 0.15224 0.28281 0.0
H300 H 0.39707 0.14082 0.26027 0.0
C301 C 0.37722 0.1262 0.27259 0.0
H302 H 0.38496 0.10165 0.27823 0.0
H303 H 0.38958 0.1591 0.32 0.0
O304 O 0.16159 0.052 0.27408 0.0
C305 C 0.25724 0.137 0.31547 0.0
Co306 Co 0.14746 0.21584 0.62236 0.0
Co307 Co 0.21429 0.30329 0.64059 0.0
C308 C 0.21143 0.2167 0.64852 0.0
O309 O 0.18173 0.19627 0.63684 0.0
O310 O 0.22653 0.25757 0.65129 0.0
C311 C 0.11862 0.14231 0.59925 0.0
O312 O 0.15958 0.15142 0.60023 0.0
C313 C 0.30451 0.36962 0.64704 0.0
C314 C 0.30087 0.42837 0.65473 0.0
C315 C 0.33006 0.41341 0.65172 0.0
N316 N 0.26221 0.35895 0.6474 0.0
N317 N 0.26011 0.3941 0.65214 0.0
C318 C 0.31995 0.33931 0.64058 0.0
H319 H 0.29573 0.31473 0.63114 0.0
H320 H 0.35232 0.3579 0.63385 0.0
H321 H 0.32329 0.3216 0.65228 0.0
C322 C 0.17772 0.27004 0.58961 0.0
N323 N 0.18168 0.26396 0.60724 0.0
N324 N 0.20893 0.30183 0.61473 0.0
C325 C 0.22281 0.33349 0.60195 0.0
C326 C 0.20383 0.3142 0.58556 0.0
C327 C 0.1445 0.23554 0.57741 0.0
H328 H 0.11182 0.21955 0.58394 0.0
H329 H 0.15397 0.21034 0.57482 0.0
H330 H 0.14207 0.24928 0.56433 0.0
O331 O 0.11189 0.23035 0.63869 0.0
O332 O 0.15864 0.29337 0.65201 0.0
H333 H 0.23385 0.39122 0.61591 0.0
H334 H 0.25583 0.40133 0.59328 0.0
C335 C 0.2503 0.38156 0.60565 0.0
H336 H 0.28239 0.38851 0.61117 0.0
H337 H 0.231 0.39498 0.65317 0.0
O338 O 0.10663 0.16574 0.60782 0.0
C339 C 0.11977 0.26134 0.64964 0.0
Co340 Co 0.91598 0.13711 0.95638 0.0
Co341 Co 0.91077 0.21428 0.97417 0.0
C342 C 0.98656 0.19897 0.98153 0.0
O343 O 0.97001 0.16629 0.97092 0.0
O344 O 0.96805 0.22185 0.98386 0.0
C345 C 0.95395 0.10401 0.93249 0.0
O346 O 0.98518 0.1454 0.93216 0.0
C347 C 0.93959 0.30763 0.97754 0.0
C348 C 0.88489 0.30733 0.99216 0.0
C349 C 0.92553 0.33531 0.98452 0.0
N350 N 0.90864 0.26575 0.9808 0.0
N351 N 0.87599 0.26576 0.98953 0.0
C352 C 0.9822 0.32009 0.96845 0.0
H353 H 0.9809 0.32937 0.95431 0.0
H354 H 0.00971 0.3484 0.97538 0.0
H355 H 0.98826 0.2921 0.96816 0.0
C356 C 0.89472 0.16978 0.92378 0.0
N357 N 0.90702 0.17457 0.94116 0.0
N358 N 0.90324 0.20667 0.94837 0.0
C359 C 0.88802 0.22323 0.9356 0.0
C360 C 0.88255 0.20053 0.91957 0.0
C361 C 0.88982 0.13318 0.91188 0.0
H362 H 0.87191 0.10144 0.91911 0.0
H363 H 0.92279 0.1391 0.90814 0.0
H364 H 0.87211 0.13097 0.89926 0.0
O365 O 0.86606 0.10696 0.97292 0.0
O366 O 0.86282 0.16121 0.98697 0.0
H367 H 0.85337 0.24692 0.95142 0.0
H368 H 0.85537 0.25882 0.9276 0.0
C369 C 0.87395 0.25623 0.93913 0.0
H370 H 0.90336 0.2888 0.94148 0.0
H371 H 0.84772 0.23743 0.99373 0.0
O372 O 0.92026 0.09274 0.94215 0.0
C373 C 0.84897 0.12028 0.98463 0.0
Co374 Co 0.77868 0.92135 0.28969 0.0
Co375 Co 0.69603 0.91587 0.3072 0.0
C376 C 0.78684 0.99182 0.31483 0.0
O377 O 0.80329 0.97539 0.30433 0.0
O378 O 0.74544 0.97321 0.31697 0.0
C379 C 0.84979 0.95952 0.26584 0.0
O380 O 0.8393 0.99051 0.26533 0.0
C381 C 0.63173 0.94481 0.31021 0.0
C382 C 0.57718 0.89037 0.32493 0.0
C383 C 0.59003 0.93095 0.31713 0.0
N384 N 0.64247 0.91379 0.31365 0.0
N385 N 0.60972 0.8813 0.32243 0.0
C386 C 0.66203 0.98736 0.30106 0.0
H387 H 0.65172 0.98583 0.28687 0.0
H388 H 0.66111 0.01501 0.30783 0.0
H389 H 0.69604 0.99345 0.30092 0.0
C390 C 0.72535 0.90021 0.2569 0.0
N391 N 0.73255 0.91236 0.27431 0.0
N392 N 0.69659 0.9085 0.28142 0.0
C393 C 0.66509 0.89341 0.26855 0.0
C394 C 0.68262 0.88822 0.25257 0.0
C395 C 0.7569 0.89481 0.24513 0.0
H396 H 0.77094 0.8774 0.25258 0.0
H397 H 0.78379 0.92767 0.2411 0.0
H398 H 0.74115 0.87623 0.2327 0.0
O399 O 0.75861 0.87122 0.30617 0.0
O400 O 0.70091 0.86784 0.32004 0.0
H401 H 0.60656 0.85891 0.28428 0.0
H402 H 0.59705 0.86047 0.26041 0.0
C403 C 0.61801 0.87931 0.27194 0.0
H404 H 0.6148 0.90877 0.27409 0.0
H405 H 0.60966 0.85304 0.32678 0.0
O406 O 0.82755 0.92588 0.27558 0.0
C407 C 0.72801 0.85401 0.3178 0.0
H408 H 0.51734 0.60963 0.04184 0.0
H409 H 0.48277 0.3833 0.07952 0.0
H410 H 0.57578 0.60085 0.09151 0.0
H411 H 0.38032 0.39003 0.05053 0.0
H412 H 0.52522 0.46384 0.08011 0.0
H413 H 0.47274 0.52928 0.04136 0.0
C414 C 0.52114 0.591 0.05258 0.0
C415 C 0.55185 0.61234 0.06637 0.0
C416 C 0.49339 0.44763 0.07366 0.0
C417 C 0.50122 0.52051 0.06575 0.0
C418 C 0.46936 0.40183 0.07324 0.0
C419 C 0.42793 0.38024 0.06514 0.0
C420 C 0.47629 0.47191 0.06553 0.0
C421 C 0.41191 0.40561 0.05715 0.0
C422 C 0.49568 0.54519 0.05226 0.0
C423 C 0.55472 0.58631 0.08005 0.0
N424 N 0.43627 0.45023 0.05744 0.0
N425 N 0.53017 0.54181 0.07927 0.0
H426 H 0.09574 0.4872 0.41336 0.0
H427 H 0.90369 0.52059 0.37581 0.0
H428 H 0.98706 0.38414 0.38434 0.0
H429 H 0.97057 0.57912 0.42552 0.0
H430 H 0.9394 0.47597 0.37535 0.0
H431 H 0.05714 0.52907 0.4141 0.0
C432 C 0.06378 0.47352 0.40711 0.0
C433 C 0.04425 0.4321 0.39894 0.0
C434 C 0.94635 0.49891 0.38627 0.0
C435 C 0.00035 0.47981 0.39951 0.0
C436 C 0.92603 0.52438 0.38656 0.0
C437 C 0.93537 0.55515 0.40035 0.0
C438 C 0.9765 0.50452 0.39977 0.0
C439 C 0.96412 0.55802 0.41405 0.0
C440 C 0.04172 0.49722 0.40762 0.0
C441 C 0.00283 0.41573 0.39101 0.0
N442 N 0.98405 0.53348 0.4133 0.0
N443 N 0.98229 0.4398 0.39137 0.0
H444 H 0.6052 -0.00012 0.71505 0.0
H445 H 0.39063 0.9782 0.759 0.0
H446 H 0.60762 0.10429 0.74632 0.0
H447 H 0.38595 0.91753 0.70799 0.0
H448 H 0.47028 0.0169 0.75774 0.0
H449 H 0.52468 0.96144 0.71533 0.0
C450 C 0.58867 0.01458 0.722 0.0
C451 C 0.6128 0.05506 0.73079 0.0
C452 C 0.45173 0.99543 0.74675 0.0
C453 C 0.52129 0.01133 0.7313 0.0
C454 C 0.40604 0.97366 0.74731 0.0
C455 C 0.38117 0.94595 0.73316 0.0
C456 C 0.47287 0.98845 0.73223 0.0
C457 C 0.40369 0.93908 0.71907 0.0
C458 C 0.54291 0.99281 0.72207 0.0
C459 C 0.59004 0.07313 0.73938 0.0
N460 N 0.44828 0.96019 0.71895 0.0
N461 N 0.54546 0.05088 0.73961 0.0
H462 H 0.60664 0.52624 0.67586 0.0
H463 H 0.38223 0.49428 0.63712 0.0
H464 H 0.59943 0.584 0.62568 0.0
H465 H 0.38729 0.39255 0.66757 0.0
H466 H 0.46274 0.53631 0.63684 0.0
H467 H 0.52636 0.48359 0.67656 0.0
C468 C 0.58838 0.53032 0.66505 0.0
C469 C 0.61019 0.56022 0.65103 0.0
C470 C 0.44615 0.50476 0.64357 0.0
C471 C 0.51841 0.51184 0.65191 0.0
C472 C 0.40038 0.481 0.64382 0.0
C473 C 0.37837 0.43983 0.6522 0.0
C474 C 0.4699 0.48762 0.65214 0.0
C475 C 0.40322 0.42393 0.66072 0.0
C476 C 0.5426 0.50599 0.6655 0.0
C477 C 0.58459 0.56353 0.6373 0.0
N478 N 0.44776 0.44797 0.66056 0.0
N479 N 0.54012 0.54005 0.63818 0.0
H480 H 0.91418 0.38719 1.00866 0.0
H481 H 0.10696 0.61418 0.97106 0.0
H482 H 0.98633 0.39564 0.96045 0.0
H483 H -0.00299 0.60564 1.00012 0.0
H484 H 0.07085 0.53364 0.97114 0.0
H485 H 0.95094 0.46745 1.00935 0.0
C486 C 0.93798 0.40571 0.99831 0.0
C487 C 0.94805 0.38416 0.98481 0.0
C488 C 0.05467 0.54947 0.97748 0.0
C489 C 0.99046 0.47612 0.98567 0.0
C490 C 0.07531 0.59527 0.97752 0.0
C491 C 0.05457 0.61632 0.98538 0.0
C492 C 0.01352 0.52473 0.98574 0.0
C493 C 0.01365 0.5905 0.99363 0.0
C494 C 0.95892 0.45152 0.99875 0.0
C495 C 0.97888 0.41017 0.97167 0.0
N496 N 0.99447 0.54598 0.99366 0.0
N497 N -0.00078 0.45471 0.97252 0.0
H498 H 0.5904 0.99063 0.29251 0.0
H499 H 0.38923 0.00107 0.33454 0.0
H500 H 0.52737 0.92101 0.34128 0.0
H501 H 0.49119 0.10941 0.30487 0.0
H502 H 0.43348 0.96493 0.33436 0.0
H503 H 0.54859 0.02845 0.294 0.0
C504 C 0.56878 0.98394 0.30381 0.0
C505 C 0.56398 0.9537 0.31722 0.0
C506 C 0.44617 0.99666 0.32794 0.0
C507 C 0.51388 0.99539 0.31836 0.0
C508 C 0.42089 0.01711 0.32794 0.0
C509 C 0.43655 0.05799 0.31955 0.0
C510 C 0.48702 0.01697 0.31923 0.0
C511 C 0.47806 0.07785 0.31147 0.0
C512 C 0.54436 0.00526 0.30448 0.0
C513 C 0.53267 0.94443 0.33076 0.0
N514 N 0.50172 0.05691 0.31133 0.0
N515 N 0.50875 0.96511 0.33097 0.0
H516 H 0.17074 0.96192 0.97342 0.0
H517 H 0.2324 0.03292 0.07386 0.0
H518 H 0.16454 0.87142 1.01407 0.0
H519 H 0.28047 0.12689 0.03048 0.0
H520 H 0.21283 0.97384 0.05216 0.0
H521 H 0.2156 0.02309 0.99354 0.0
C522 C 0.17937 0.95494 0.9865 0.0
C523 C 0.16342 0.91142 0.99215 0.0
C524 C 0.22853 0.00743 0.04738 0.0
C525 C 0.21432 0.98142 1.01538 0.0
C526 C 0.23976 0.0412 0.05978 0.0
C527 C 0.2578 0.08484 0.05394 0.0
C528 C 0.23435 0.01719 0.02894 0.0
C529 C 0.26669 0.09371 0.03555 0.0
C530 C 0.20513 0.98993 0.99796 0.0
C531 C 0.17598 0.90441 1.00918 0.0
N532 N 0.25398 0.06007 1.02365 0.0
N533 N 0.19997 0.93899 1.02032 0.0
H534 H 0.15298 0.28892 0.36319 0.0
H535 H 0.29698 0.17333 0.34766 0.0
H536 H 0.20137 0.24185 0.40598 0.0
H537 H 0.20922 0.17678 0.30807 0.0
H538 H 0.28076 0.21913 0.36748 0.0
H539 H 0.19276 0.26919 0.34144 0.0
C540 C 0.17305 0.27573 0.36805 0.0
C541 C 0.17353 0.26654 0.38638 0.0
C542 C 0.26566 0.21042 0.35432 0.0
C543 C 0.21873 0.24373 0.36166 0.0
C544 C 0.27503 0.18444 0.34297 0.0
C545 C 0.2539 0.17064 0.32629 0.0
C546 C 0.2354 0.2231 0.34885 0.0
C547 C 0.22573 0.18608 0.32094 0.0
C548 C 0.1954 0.26412 0.35564 0.0
C549 C 0.19976 0.24902 0.39194 0.0
N550 N 0.21703 0.21116 0.33223 0.0
N551 N 0.22096 0.23779 0.37962 0.0
H552 H 0.03263 0.21948 0.6414 0.0
H553 H 0.95894 0.18455 0.74191 0.0
H554 H 0.12362 0.29183 0.6839 0.0
H555 H 0.86778 0.16339 0.69916 0.0
H556 H 0.01979 0.22632 0.72116 0.0
H557 H 0.9717 0.2008 0.66204 0.0
C558 C 0.03975 0.23208 0.65501 0.0
C559 C 0.08325 0.25698 0.66099 0.0
C560 C 0.98652 0.21332 0.71639 0.0
C561 C 0.01366 0.23492 0.68479 0.0
C562 C 0.95176 0.1894 0.72822 0.0
C563 C 0.90825 0.17023 0.72221 0.0
C564 C 0.97775 0.21717 0.69829 0.0
C565 C 0.90083 0.17766 0.70435 0.0
C566 C 0.00495 0.22149 0.66677 0.0
C567 C 0.09059 0.27258 0.67874 0.0
N568 N 0.93524 0.19977 0.69291 0.0
N569 N 0.05614 0.26052 0.69013 0.0
H570 H 0.69277 0.8696 0.03538 0.0
H571 H 0.83636 0.12972 1.02035 0.0
H572 H 0.77927 0.96067 0.07531 0.0
H573 H 0.7895 0.03473 0.97739 0.0
H574 H 0.79625 0.06981 0.04194 0.0
H575 H 0.70934 0.93184 1.01557 0.0
C576 C 0.71449 0.90267 0.04014 0.0
C577 C 0.73517 0.9099 0.05692 0.0
C578 C 0.79401 0.06229 0.02774 0.0
C579 C 0.75409 0.98111 0.03438 0.0
C580 C 0.81654 0.09647 1.01541 0.0
C581 C 0.81659 0.08707 0.99709 0.0
C582 C 0.771 0.0186 1.02163 0.0
C583 C 0.79069 0.04332 0.99143 0.0
C584 C 0.72407 0.93813 0.0288 0.0
C585 C 0.76309 0.95352 0.06237 0.0
N586 N 0.76929 0.01067 1.00366 0.0
N587 N 0.772 0.98742 0.05109 0.0
H588 H 0.70544 0.84137 0.35347 0.0
H589 H 0.82079 0.69704 0.36904 0.0
H590 H 0.75407 0.79444 0.31071 0.0
H591 H 0.81686 0.78452 0.40872 0.0
H592 H 0.7755 0.7137 0.34912 0.0
H593 H 0.72481 0.80117 0.37517 0.0
C594 C 0.71889 0.82152 0.34859 0.0
C595 C 0.7286 0.82157 0.3303 0.0
C596 C 0.78397 0.72861 0.36232 0.0
C597 C 0.75098 0.77587 0.35497 0.0
C598 C 0.80964 0.71898 0.37373 0.0
C599 C 0.82317 0.73991 0.39047 0.0
C600 C 0.7713 0.75892 0.3678 0.0
C601 C 0.80774 0.76813 0.39582 0.0
C602 C 0.7303 0.79894 0.36098 0.0
C603 C 0.74647 0.79563 0.32473 0.0
N604 N 0.78295 0.77707 0.38447 0.0
N605 N 0.75746 0.77417 0.33702 0.0
H606 H 0.03335 0.81686 0.74199 0.0
H607 H 0.95797 0.77762 0.64177 0.0
H608 H 0.12355 0.83503 0.69919 0.0
H609 H 0.86743 0.7077 0.68478 0.0
H610 H 0.01913 0.7967 0.6623 0.0
H611 H 0.97204 0.77447 0.72156 0.0
C612 C 0.04022 0.81124 0.72836 0.0
C613 C 0.08361 0.82974 0.72224 0.0
C614 C 0.98592 0.77644 0.66717 0.0
C615 C 0.01357 0.78206 0.69867 0.0
C616 C 0.95099 0.7656 0.65547 0.0
C617 C 0.90756 0.74127 0.66162 0.0
C618 C 0.97743 0.76387 0.68529 0.0
C619 C 0.9004 0.72646 0.67948 0.0
C620 C 0.0052 0.78695 0.71672 0.0
C621 C 0.09061 0.82131 0.70447 0.0
N622 N 0.93499 0.73878 0.69081 0.0
N623 N 0.05596 0.79886 0.69319 0.0
H624 H 0.12015 0.02413 0.12727 0.0
H625 H 0.87144 0.95198 0.1294 0.0
H626 H 0.07014 0.11375 0.13056 0.0
H627 H 0.92133 0.86218 0.12697 0.0
H628 H 0.94306 0.00971 0.13953 0.0
H629 H 0.04894 0.96449 0.13686 0.0
C630 C 0.09431 0.03137 0.1303 0.0
C631 C 0.10035 0.07348 0.12747 0.0
C632 C 0.93821 0.97719 0.13714 0.0
C633 C 0.01884 0.00545 0.13822 0.0
C634 C 0.89737 0.94427 0.13128 0.0
C635 C 0.89112 0.90284 0.12671 0.0
C636 C 0.97312 0.96871 0.13806 0.0
C637 C 0.9252 0.89409 0.12992 0.0
C638 C 0.05371 0.99733 0.13585 0.0
C639 C 0.06641 0.08144 0.13212 0.0
N640 N 0.9652 0.92716 0.13498 0.0
N641 N 0.02664 0.04742 0.13686 0.0
H642 H 0.10084 0.12513 0.457 0.0
H643 H 0.0558 0.91596 0.46662 0.0
H644 H 0.96361 0.07857 0.46658 0.0
H645 H 0.92265 0.88592 0.4573 0.0
H646 H 0.07398 0.98908 0.47686 0.0
H647 H 0.09028 0.05461 0.46641 0.0
C648 C 0.06859 0.10024 0.46152 0.0
C649 C 0.03268 0.10703 0.46039 0.0
C650 C 0.0408 0.96661 0.47256 0.0
C651 C 0.02018 0.02595 0.47152 0.0
C652 C 0.03033 0.92468 0.46686 0.0
C653 C 0.98819 0.89569 0.46034 0.0
C654 C 0.00897 0.97952 0.47137 0.0
C655 C 0.95604 0.90795 0.46155 0.0
C656 C 0.06258 0.05985 0.46714 0.0
C657 C 0.99195 0.07422 0.46681 0.0
N658 N 0.96733 0.94928 0.46657 0.0
N659 N 0.98656 0.03462 0.47167 0.0
H660 H 0.95477 0.08528 0.79525 0.0
H661 H 0.03755 0.91605 0.79476 0.0
H662 H 0.87015 0.94451 0.79473 0.0
H663 H 0.12208 0.05684 0.79403 0.0
H664 H 0.97706 0.92586 0.8047 0.0
H665 H 0.01548 0.07546 0.80479 0.0
C666 C 0.94883 0.05227 0.79743 0.0
C667 C 0.90792 0.01555 0.79357 0.0
C668 C 0.00902 0.95464 0.80272 0.0
C669 C 0.97721 0.00409 0.80426 0.0
C670 C 0.04352 0.94906 0.79697 0.0
C671 C 0.08433 0.98579 0.79294 0.0
C672 C 0.0153 0.99722 0.80411 0.0
C673 C 0.09075 0.02769 0.79656 0.0
C674 C 0.98347 0.04668 0.80295 0.0
C675 C 0.90155 0.97365 0.79715 0.0
N676 N 0.05621 0.03234 0.80153 0.0
N677 N 0.93622 0.96898 0.80188 0.0
H678 H 0.86817 0.92717 0.58688 0.0
H679 H 0.12579 0.07276 0.58691 0.0
H680 H 0.95768 0.87734 0.59145 0.0
H681 H 0.03619 0.12278 0.5897 0.0
H682 H 0.06514 0.00158 0.57749 0.0
H683 H 0.92896 -0.00234 0.57688 0.0
C684 C 0.90043 0.93079 0.58544 0.0
C685 C 0.90837 0.89709 0.59064 0.0
C686 C 0.05896 0.02843 0.57979 0.0
C687 C 0.9778 0.97732 0.57936 0.0
C688 C 0.09356 0.06903 0.58517 0.0
C689 C 0.0855 0.10302 0.58974 0.0
C690 C 0.01625 0.02203 0.57914 0.0
C691 C 0.04341 0.09682 0.58691 0.0
C692 C 0.9351 0.97099 0.57972 0.0
C693 C 0.95051 0.9031 0.58815 0.0
N694 N 0.0101 0.05675 0.58214 0.0
N695 N 0.9839 0.94283 0.58304 0.0
H696 H 0.07019 0.95241 0.9201 0.0
H697 H 0.02321 0.11508 0.9118 0.0
H698 H 0.93098 0.86088 0.9202 0.0
H699 H 0.89559 0.01616 0.93073 0.0
H700 H 0.03623 0.0571 0.90098 0.0
H701 H 0.05626 0.01025 0.91081 0.0
C702 C 0.03661 0.94433 0.91772 0.0
C703 C 0.00157 0.90229 0.92154 0.0
C704 C 0.00543 0.04797 0.90754 0.0
C705 C 0.98505 0.96837 0.91063 0.0
C706 C -0.00215 0.08114 0.9136 0.0
C707 C 0.9591 0.0703 0.92289 0.0
C708 C 0.97431 0.00389 0.91121 0.0
C709 C 0.92666 0.02596 0.92423 0.0
C710 C 0.02857 0.97742 0.91217 0.0
C711 C 0.95887 0.89321 0.91781 0.0
N712 N 0.93538 0.99434 0.91881 0.0
N713 N 0.95172 0.92635 0.91301 0.0
H714 H 0.1179 0.07694 0.25491 0.0
H715 H 0.90852 0.02943 0.24551 0.0
H716 H 0.07049 0.93756 0.25437 0.0
H717 H 0.87946 0.9013 0.26413 0.0
H718 H 0.97993 0.043 0.23511 0.0
H719 H 0.0464 0.06304 0.24542 0.0
C720 C 0.09254 0.04335 0.25235 0.0
C721 C 0.09952 0.00822 0.25603 0.0
C722 C 0.95808 0.01196 0.24151 0.0
C723 C 0.01725 0.99174 0.24487 0.0
C724 C 0.9171 0.00407 0.24732 0.0
C725 C 0.88894 0.965 0.25642 0.0
C726 C 0.97099 0.98083 0.24522 0.0
C727 C 0.9009 0.9326 0.25778 0.0
C728 C 0.05157 0.03533 0.24668 0.0
C729 C 0.06607 0.96551 0.25208 0.0
N730 N 0.94143 0.94161 0.2526 0.0
N731 N 0.02592 0.95837 0.24716 0.0
H732 H 0.01659 0.14197 0.987 0.0
H733 H 0.22147 0.27376 0.04827 0.0
H734 H 0.04178 0.27075 1.0028 0.0
H735 H 0.11792 0.14363 0.0624 0.0
H736 H 0.17118 0.27917 0.02653 0.0
H737 H 0.0711 0.1478 1.00864 0.0
C738 C 0.03405 0.1719 0.99477 0.0
C739 C 0.02418 0.20586 0.99306 0.0
C740 C 0.15968 0.24982 0.03462 0.0
C741 C 0.08738 0.21265 1.01786 0.0
C742 C 0.18823 0.24664 0.04699 0.0
C743 C 0.17403 0.20817 0.05724 0.0
C744 C 0.11733 0.21379 0.03216 0.0
C745 C 0.13054 0.17401 0.05492 0.0
C746 C 0.06503 0.17498 1.0072 0.0
C747 C 0.04813 0.24369 1.0037 0.0
N748 N 0.10418 0.17734 0.04247 0.0
N749 N 0.07878 0.24617 1.01567 0.0
H750 H 0.97407 0.12178 0.39694 0.0
H751 H 0.77008 0.0486 0.33488 0.0
H752 H 0.94831 0.22479 0.38083 0.0
H753 H 0.87265 0.01983 0.32197 0.0
H754 H 0.82021 0.10449 0.3566 0.0
H755 H 0.91992 0.07274 0.37529 0.0
C756 C 0.95657 0.13406 0.3891 0.0
C757 C 0.9662 0.17785 0.39073 0.0
C758 C 0.83156 0.08612 0.34878 0.0
C759 C 0.9034 0.121 0.36588 0.0
C760 C 0.80309 0.05427 0.33643 0.0
C761 C 0.81706 0.02936 0.32652 0.0
C762 C 0.87359 0.09193 0.35158 0.0
C763 C 0.86024 0.03812 0.32917 0.0
C764 C 0.92579 0.10595 0.37664 0.0
C765 C 0.94216 0.19143 0.38 0.0
N766 N 0.88652 0.06796 0.34161 0.0
N767 N 0.91171 0.16305 0.368 0.0
H768 H 0.75165 0.76502 0.68419 0.0
H769 H 0.74953 0.9892 0.70042 0.0
H770 H 0.78433 0.86204 0.64258 0.0
H771 H 0.78581 0.9273 0.74176 0.0
H772 H 0.74112 0.93188 0.67926 0.0
H773 H 0.74307 0.81367 0.70543 0.0
C774 C 0.75607 0.79608 0.6794 0.0
C775 C 0.7689 0.8095 0.66156 0.0
C776 C 0.75029 0.93058 0.69304 0.0
C777 C 0.75884 0.86514 0.68581 0.0
C778 C 0.75478 0.96306 0.70517 0.0
C779 C 0.76859 0.96322 0.72291 0.0
C780 C 0.75875 0.89743 0.69875 0.0
C781 C 0.77532 0.92864 0.72821 0.0
C782 C 0.75149 0.82394 0.69158 0.0
C783 C 0.77461 0.85042 0.65621 0.0
N784 N 0.77037 0.89721 0.71621 0.0
N785 N 0.76957 0.87675 0.66826 0.0
H786 H 0.85524 0.78422 0.07507 0.0
H787 H 0.91898 0.78391 0.97364 0.0
H788 H 0.76076 0.75296 0.03266 0.0
H789 H 0.98164 0.7519 1.01609 0.0
H790 H 0.86163 0.7747 0.99481 0.0
H791 H 0.90311 0.77459 0.05389 0.0
C792 C 0.84425 0.77469 0.06136 0.0
C793 C 0.80383 0.76938 0.05567 0.0
C794 C 0.88753 0.76901 0.99943 0.0
C795 C 0.85914 0.75939 0.03119 0.0
C796 C 0.92032 0.77427 0.98735 0.0
C797 C 0.95526 0.76867 0.99306 0.0
C798 C 0.89015 0.75919 1.01753 0.0
C799 C 0.95526 0.75631 1.01104 0.0
C800 C 0.87162 0.76917 0.04928 0.0
C801 C 0.79146 0.75713 0.03769 0.0
N802 N 0.92372 0.75277 1.02269 0.0
N803 N 0.81929 0.75333 0.02603 0.0
H804 H 0.23076 0.98776 0.35031 0.0
H805 H 0.00409 0.76337 0.36596 0.0
H806 H 0.13394 0.92539 0.30861 0.0
H807 H 0.06883 0.85929 0.40783 0.0
H808 H 0.06158 0.81216 0.34481 0.0
H809 H 0.18156 0.93029 0.37138 0.0
C810 C 0.19962 0.9615 0.34547 0.0
C811 C 0.18644 0.96157 0.32765 0.0
C812 C 0.06345 0.82216 0.3587 0.0
C813 C 0.13011 0.89559 0.35171 0.0
C814 C 0.03086 0.79421 0.37082 0.0
C815 C 0.03148 0.80727 0.38872 0.0
C816 C 0.09748 0.86312 0.36457 0.0
C817 C 0.06686 0.84793 0.39416 0.0
C818 C 0.17144 0.92892 0.35755 0.0
C819 C 0.14541 0.92682 0.32222 0.0
N820 N 0.09835 0.87435 0.38216 0.0
N821 N 0.11875 0.89532 0.33418 0.0
H822 H 0.24039 0.00951 0.69945 0.0
H823 H 0.24261 0.23589 0.68307 0.0
H824 H 0.20779 0.07399 0.74098 0.0
H825 H 0.20723 0.13793 0.64171 0.0
H826 H 0.25093 0.18701 0.70429 0.0
H827 H 0.24924 0.06684 0.67818 0.0
C828 C 0.23604 0.0362 0.70421 0.0
C829 C 0.22316 0.03679 0.72204 0.0
C830 C 0.24198 0.17658 0.69049 0.0
C831 C 0.2335 0.1026 0.69776 0.0
C832 C 0.23756 0.20457 0.67832 0.0
C833 C 0.22401 0.19096 0.66056 0.0
C834 C 0.23373 0.13503 0.68479 0.0
C835 C 0.21751 0.14972 0.65527 0.0
C836 C 0.24078 0.06869 0.69202 0.0
C837 C 0.21754 0.07206 0.72736 0.0
N838 N 0.22238 0.12325 0.66731 0.0
N839 N 0.22272 0.10349 0.71529 0.0
H840 H 0.34609 0.15287 0.13905 0.0
H841 H 0.33485 0.18945 0.24471 0.0
H842 H 0.31635 0.24764 0.16165 0.0
H843 H 0.32873 0.07417 0.22175 0.0
H844 H 0.34954 0.22313 0.21473 0.0
H845 H 0.36144 0.13629 0.16936 0.0
C846 C 0.34456 0.17143 0.15037 0.0
C847 C 0.33063 0.20211 0.14791 0.0
C848 C 0.34613 0.19093 0.21628 0.0
C849 C 0.34676 0.1825 0.18262 0.0
C850 C 0.33825 0.17197 0.2334 0.0
C851 C 0.33121 0.12931 0.23565 0.0
C852 C 0.34678 0.16694 0.20128 0.0
C853 C 0.33465 0.1074 0.22055 0.0
C854 C 0.35273 0.16159 0.16767 0.0
C855 C 0.32772 0.22431 0.16302 0.0
N856 N 0.34181 0.12628 0.20398 0.0
N857 N 0.33529 0.2138 0.17975 0.0
H858 H 0.07 0.3289 0.49348 0.0
H859 H 0.16115 0.35961 0.57874 0.0
H860 H 0.19201 0.34521 0.4736 0.0
H861 H 0.2397 0.31243 0.55345 0.0
H862 H 0.14267 0.37589 0.54894 0.0
H863 H 0.10015 0.34375 0.52398 0.0
C864 C 0.10387 0.33762 0.49549 0.0
C865 C 0.12884 0.33656 0.48105 0.0
C866 C 0.16432 0.36243 0.54986 0.0
C867 C 0.16355 0.35255 0.51595 0.0
C868 C 0.17548 0.35391 0.56688 0.0
C869 C 0.20217 0.33498 0.56846 0.0
C870 C 0.17982 0.35159 0.53434 0.0
C871 C 0.21931 0.3274 0.55274 0.0
C872 C 0.12117 0.34597 0.51294 0.0
C873 C 0.17205 0.3465 0.4844 0.0
N874 N 0.20762 0.33544 0.53635 0.0
N875 N 0.18771 0.35316 0.50152 0.0
H876 H 0.91889 0.25342 0.8904 0.0
H877 H 0.82864 0.19375 0.80501 0.0
H878 H 0.79788 0.14545 0.90997 0.0
H879 H 0.75146 0.067 0.82978 0.0
H880 H 0.84639 0.22778 0.83494 0.0
H881 H 0.88886 0.2384 0.85989 0.0
C882 C 0.88523 0.22778 0.88832 0.0
C883 C 0.86054 0.20104 0.90267 0.0
C884 C 0.8252 0.19259 0.83388 0.0
C885 C 0.82595 0.18268 0.86775 0.0
C886 C 0.81445 0.17332 0.81678 0.0
C887 C 0.78837 0.12764 0.81502 0.0
C888 C 0.80994 0.16578 0.84929 0.0
C889 C 0.77138 0.10241 0.83064 0.0
C890 C 0.868 0.219 0.87087 0.0
C891 C 0.81761 0.16721 0.89924 0.0
N892 N 0.78269 0.12175 0.84711 0.0
N893 N 0.80202 0.15842 0.88211 0.0
H894 H 0.6725 0.927 0.22272 0.0
H895 H 0.65609 0.73593 0.16061 0.0
H896 H 0.64735 0.80217 0.24338 0.0
H897 H 0.66176 0.85293 0.13986 0.0
H898 H 0.64133 0.75424 0.1907 0.0
H899 H 0.65698 0.89614 0.19228 0.0
C900 C 0.66206 0.89258 0.22087 0.0
C901 C 0.66056 0.86685 0.23552 0.0
C902 C 0.64465 0.77541 0.17952 0.0
C903 C 0.6446 0.83165 0.2007 0.0
C904 C 0.65268 0.76468 0.16234 0.0
C905 C 0.65955 0.7927 0.14779 0.0
C906 C 0.64439 0.81494 0.18221 0.0
C907 C 0.65602 0.83023 0.15075 0.0
C908 C 0.65364 0.87502 0.20348 0.0
C909 C 0.64815 0.82278 0.2324 0.0
N910 N 0.64933 0.8406 0.16764 0.0
N911 N 0.64134 0.80675 0.21532 0.0
H912 H 0.80397 0.65484 0.47254 0.0
H913 H 0.84501 0.65691 0.5786 0.0
H914 H 0.92436 0.67486 0.49591 0.0
H915 H 0.74236 0.67335 0.55523 0.0
H916 H 0.86405 0.64269 0.54853 0.0
H917 H 0.77102 0.64087 0.50268 0.0
C918 C 0.82285 0.65465 0.484 0.0
C919 C 0.86663 0.66531 0.48181 0.0
C920 C 0.83663 0.6483 0.55 0.0
C921 C 0.82978 0.65059 0.5163 0.0
C922 C 0.82548 0.65589 0.56716 0.0
C923 C 0.79169 0.66561 0.56933 0.0
C924 C 0.81389 0.65063 0.5349 0.0
C925 C 0.76817 0.66526 0.55408 0.0
C926 C 0.80428 0.64721 0.50119 0.0
C927 C 0.89027 0.66604 0.49708 0.0
N928 N 0.77991 0.65827 0.53749 0.0
N929 N 0.87169 0.65914 0.51369 0.0
H930 H 0.14509 0.80728 0.80443 0.0
H931 H 0.18469 0.84158 0.91071 0.0
H932 H 0.2487 0.92464 0.82855 0.0
H933 H 0.0637 0.7439 0.88671 0.0
H934 H 0.21829 0.86108 0.88069 0.0
H935 H 0.12507 0.77284 0.83428 0.0
C936 C 0.16458 0.82514 0.81598 0.0
C937 C 0.19894 0.86853 0.81409 0.0
C938 C 0.18474 0.83459 0.88201 0.0
C939 C 0.17566 0.82999 0.84828 0.0
C940 C 0.16578 0.82314 0.89914 0.0
C941 C 0.12166 0.79067 0.90112 0.0
C942 C 0.15928 0.81346 0.86677 0.0
C943 C 0.09804 0.76862 0.88571 0.0
C944 C 0.15289 0.80572 0.83302 0.0
C945 C 0.22244 0.89086 0.82948 0.0
N946 N 0.11701 0.78062 0.86917 0.0
N947 N 0.21018 0.87149 0.84595 0.0
loop_
_geom_bond_atom_site_label_1
_geom_bond_atom_site_label_2
_geom_bond_distance
_geom_bond_site_symmetry_2
_ccdc_geom_bond_type
Co0 O3 1.970 . S
Co0 N17 1.989 . S
Co0 O25 1.967 . S
Co0 O32 1.920 . S
Co1 O4 1.966 . S
Co1 N10 2.022 . S
Co1 N18 1.993 . S
Co1 O26 1.941 . S
C2 O3 1.258 . S
C2 O4 1.263 . S
O3 Co0 1.970 . S
O3 C2 1.258 . S
O4 Co1 1.966 . S
O4 C2 1.263 . S
C5 O6 1.235 . S
C5 O32 1.289 . S
O6 C5 1.235 . S
C7 C9 1.400 . S
C7 N10 1.351 . S
C7 C12 1.501 . S
C8 C9 1.387 . S
C8 N11 1.341 . S
C9 C7 1.400 . S
C9 C8 1.387 . S
N10 Co1 2.022 . S
N10 C7 1.351 . S
N10 N11 1.365 . S
N11 C8 1.341 . S
N11 N10 1.365 . S
N11 H31 0.862 . S
C12 C7 1.501 . S
C12 H13 0.961 . S
C12 H14 0.961 . S
C12 H15 0.960 . S
H13 C12 0.961 . S
H14 C12 0.961 . S
H15 C12 0.960 . S
C16 N17 1.342 . S
C16 C20 1.401 . S
C16 C21 1.499 . S
N17 Co0 1.989 . S
N17 C16 1.342 . S
N17 N18 1.388 . S
N18 Co1 1.993 . S
N18 N17 1.388 . S
N18 C19 1.346 . S
C19 N18 1.346 . S
C19 C20 1.396 . S
C19 C29 1.510 . S
C20 C16 1.401 . S
C20 C19 1.396 . S
C21 C16 1.499 . S
C21 H22 0.959 . S
C21 H23 0.960 . S
C21 H24 0.961 . S
H22 C21 0.959 . S
H23 C21 0.960 . S
H24 C21 0.961 . S
O25 Co0 1.967 . S
O25 C33 1.258 . S
O26 Co1 1.941 . S
O26 C33 1.266 . S
H27 C29 0.959 . S
H28 C29 0.961 . S
C29 C19 1.510 . S
C29 H27 0.959 . S
C29 H28 0.961 . S
C29 H30 0.960 . S
H30 C29 0.960 . S
H31 N11 0.862 . S
O32 Co0 1.920 . S
O32 C5 1.289 . S
C33 O25 1.258 . S
C33 O26 1.266 . S
Co34 O37 1.970 . S
Co34 N51 1.989 . S
Co34 O59 1.967 . S
Co34 O66 1.920 . S
Co35 O38 1.966 . S
Co35 N44 2.022 . S
Co35 N52 1.993 . S
Co35 O60 1.941 . S
C36 O37 1.258 . S
C36 O38 1.263 . S
O37 Co34 1.970 . S
O37 C36 1.258 . S
O38 Co35 1.966 . S
O38 C36 1.263 . S
C39 O40 1.235 . S
C39 O66 1.289 . S
O40 C39 1.235 . S
C41 C43 1.400 . S
C41 N44 1.351 . S
C41 C46 1.501 . S
C42 C43 1.387 . S
C42 N45 1.341 . S
C43 C41 1.400 . S
C43 C42 1.387 . S
N44 Co35 2.022 . S
N44 C41 1.351 . S
N44 N45 1.365 . S
N45 C42 1.341 . S
N45 N44 1.365 . S
N45 H65 0.862 . S
C46 C41 1.501 . S
C46 H47 0.961 . S
C46 H48 0.961 . S
C46 H49 0.960 . S
H47 C46 0.961 . S
H48 C46 0.961 . S
H49 C46 0.960 . S
C50 N51 1.342 . S
C50 C54 1.401 . S
C50 C55 1.499 . S
N51 Co34 1.989 . S
N51 C50 1.342 . S
N51 N52 1.388 . S
N52 Co35 1.993 . S
N52 N51 1.388 . S
N52 C53 1.346 . S
C53 N52 1.346 . S
C53 C54 1.396 . S
C53 C63 1.510 . S
C54 C50 1.401 . S
C54 C53 1.396 . S
C55 C50 1.499 . S
C55 H56 0.959 . S
C55 H57 0.960 . S
C55 H58 0.961 . S
H56 C55 0.959 . S
H57 C55 0.960 . S
H58 C55 0.961 . S
O59 Co34 1.967 . S
O59 C67 1.258 . S
O60 Co35 1.941 . S
O60 C67 1.266 . S
H61 C63 0.959 . S
H62 C63 0.961 . S
C63 C53 1.510 . S
C63 H61 0.959 . S
C63 H62 0.961 . S
C63 H64 0.960 . S
H64 C63 0.960 . S
H65 N45 0.862 . S
O66 Co34 1.920 . S
O66 C39 1.289 . S
C67 O59 1.258 . S
C67 O60 1.266 . S
Co68 O71 1.970 . S
Co68 N85 1.989 . S
Co68 O93 1.967 . S
Co68 O100 1.920 . S
Co69 O72 1.966 . S
Co69 N78 2.022 . S
Co69 N86 1.993 . S
Co69 O94 1.941 . S
C70 O71 1.258 . S
C70 O72 1.263 . S
O71 Co68 1.970 . S
O71 C70 1.258 . S
O72 Co69 1.966 . S
O72 C70 1.263 . S
C73 O74 1.235 . S
C73 O100 1.289 . S
O74 C73 1.235 . S
C75 C77 1.400 . S
C75 N78 1.351 . S
C75 C80 1.501 . S
C76 C77 1.387 . S
C76 N79 1.341 . S
C77 C75 1.400 . S
C77 C76 1.387 . S
N78 Co69 2.022 . S
N78 C75 1.351 . S
N78 N79 1.365 . S
N79 C76 1.341 . S
N79 N78 1.365 . S
N79 H99 0.862 . S
C80 C75 1.501 . S
C80 H81 0.961 . S
C80 H82 0.961 . S
C80 H83 0.960 . S
H81 C80 0.961 . S
H82 C80 0.961 . S
H83 C80 0.960 . S
C84 N85 1.342 . S
C84 C88 1.401 . S
C84 C89 1.499 . S
N85 Co68 1.989 . S
N85 C84 1.342 . S
N85 N86 1.388 . S
N86 Co69 1.993 . S
N86 N85 1.388 . S
N86 C87 1.346 . S
C87 N86 1.346 . S
C87 C88 1.396 . S
C87 C97 1.510 . S
C88 C84 1.401 . S
C88 C87 1.396 . S
C89 C84 1.499 . S
C89 H90 0.959 . S
C89 H91 0.960 . S
C89 H92 0.961 . S
H90 C89 0.959 . S
H91 C89 0.960 . S
H92 C89 0.961 . S
O93 Co68 1.967 . S
O93 C101 1.258 . S
O94 Co69 1.941 . S
O94 C101 1.266 . S
H95 C97 0.959 . S
H96 C97 0.961 . S
C97 C87 1.510 . S
C97 H95 0.959 . S
C97 H96 0.961 . S
C97 H98 0.960 . S
H98 C97 0.960 . S
H99 N79 0.862 . S
O100 Co68 1.920 . S
O100 C73 1.289 . S
C101 O93 1.258 . S
C101 O94 1.266 . S
Co102 O105 1.970 . S
Co102 N119 1.989 . S
Co102 O127 1.967 . S
Co102 O134 1.920 . S
Co103 O106 1.966 . S
Co103 N112 2.022 . S
Co103 N120 1.993 . S
Co103 O128 1.941 . S
C104 O105 1.258 . S
C104 O106 1.263 . S
O105 Co102 1.970 . S
O105 C104 1.258 . S
O106 Co103 1.966 . S
O106 C104 1.263 . S
C107 O108 1.235 . S
C107 O134 1.289 . S
O108 C107 1.235 . S
C109 C111 1.400 . S
C109 N112 1.351 . S
C109 C114 1.501 . S
C110 C111 1.387 . S
C110 N113 1.341 . S
C111 C109 1.400 . S
C111 C110 1.387 . S
N112 Co103 2.022 . S
N112 C109 1.351 . S
N112 N113 1.365 . S
N113 C110 1.341 . S
N113 N112 1.365 . S
N113 H133 0.862 . S
C114 C109 1.501 . S
C114 H115 0.961 . S
C114 H116 0.961 . S
C114 H117 0.960 . S
H115 C114 0.961 . S
H116 C114 0.961 . S
H117 C114 0.960 . S
C118 N119 1.342 . S
C118 C122 1.401 . S
C118 C123 1.499 . S
N119 Co102 1.989 . S
N119 C118 1.342 . S
N119 N120 1.388 . S
N120 Co103 1.993 . S
N120 N119 1.388 . S
N120 C121 1.346 . S
C121 N120 1.346 . S
C121 C122 1.396 . S
C121 C131 1.510 . S
C122 C118 1.401 . S
C122 C121 1.396 . S
C123 C118 1.499 . S
C123 H124 0.959 . S
C123 H125 0.960 . S
C123 H126 0.961 . S
H124 C123 0.959 . S
H125 C123 0.960 . S
H126 C123 0.961 . S
O127 Co102 1.967 . S
O127 C135 1.258 . S
O128 Co103 1.941 . S
O128 C135 1.266 . S
H129 C131 0.959 . S
H130 C131 0.961 . S
C131 C121 1.510 . S
C131 H129 0.959 . S
C131 H130 0.961 . S
C131 H132 0.960 . S
H132 C131 0.960 . S
H133 N113 0.862 . S
O134 Co102 1.920 . S
O134 C107 1.289 . S
C135 O127 1.258 . S
C135 O128 1.266 . S
Co136 O139 1.970 . S
Co136 N153 1.989 . S
Co136 O161 1.967 . S
Co136 O168 1.920 . S
Co137 O140 1.966 . S
Co137 N146 2.022 . S
Co137 N154 1.993 . S
Co137 O162 1.941 . S
C138 O139 1.258 . S
C138 O140 1.263 . S
O139 Co136 1.970 . S
O139 C138 1.258 . S
O140 Co137 1.966 . S
O140 C138 1.263 . S
C141 O142 1.235 . S
C141 O168 1.289 . S
O142 C141 1.235 . S
C143 C145 1.400 . S
C143 N146 1.351 . S
C143 C148 1.501 . S
C144 C145 1.387 . S
C144 N147 1.341 . S
C145 C143 1.400 . S
C145 C144 1.387 . S
N146 Co137 2.022 . S
N146 C143 1.351 . S
N146 N147 1.365 . S
N147 C144 1.341 . S
N147 N146 1.365 . S
N147 H167 0.862 . S
C148 C143 1.501 . S
C148 H149 0.961 . S
C148 H150 0.961 . S
C148 H151 0.960 . S
H149 C148 0.961 . S
H150 C148 0.961 . S
H151 C148 0.960 . S
C152 N153 1.342 . S
C152 C156 1.401 . S
C152 C157 1.499 . S
N153 Co136 1.989 . S
N153 C152 1.342 . S
N153 N154 1.388 . S
N154 Co137 1.993 . S
N154 N153 1.388 . S
N154 C155 1.346 . S
C155 N154 1.346 . S
C155 C156 1.396 . S
C155 C165 1.510 . S
C156 C152 1.401 . S
C156 C155 1.396 . S
C157 C152 1.499 . S
C157 H158 0.959 . S
C157 H159 0.960 . S
C157 H160 0.961 . S
H158 C157 0.959 . S
H159 C157 0.960 . S
H160 C157 0.961 . S
O161 Co136 1.967 . S
O161 C169 1.258 . S
O162 Co137 1.941 . S
O162 C169 1.266 . S
H163 C165 0.959 . S
H164 C165 0.961 . S
C165 C155 1.510 . S
C165 H163 0.959 . S
C165 H164 0.961 . S
C165 H166 0.960 . S
H166 C165 0.960 . S
H167 N147 0.862 . S
O168 Co136 1.920 . S
O168 C141 1.289 . S
C169 O161 1.258 . S
C169 O162 1.266 . S
Co170 O173 1.970 . S
Co170 N187 1.989 . S
Co170 O195 1.967 . S
Co170 O202 1.920 . S
Co171 O174 1.966 . S
Co171 N180 2.022 . S
Co171 N188 1.993 . S
Co171 O196 1.941 . S
C172 O173 1.258 . S
C172 O174 1.263 . S
O173 Co170 1.970 . S
O173 C172 1.258 . S
O174 Co171 1.966 . S
O174 C172 1.263 . S
C175 O176 1.235 . S
C175 O202 1.289 . S
O176 C175 1.235 . S
C177 C179 1.400 . S
C177 N180 1.351 . S
C177 C182 1.501 . S
C178 C179 1.387 . S
C178 N181 1.341 . S
C179 C177 1.400 . S
C179 C178 1.387 . S
N180 Co171 2.022 . S
N180 C177 1.351 . S
N180 N181 1.365 . S
N181 C178 1.341 . S
N181 N180 1.365 . S
N181 H201 0.862 . S
C182 C177 1.501 . S
C182 H183 0.961 . S
C182 H184 0.961 . S
C182 H185 0.960 . S
H183 C182 0.961 . S
H184 C182 0.961 . S
H185 C182 0.960 . S
C186 N187 1.342 . S
C186 C190 1.401 . S
C186 C191 1.499 . S
N187 Co170 1.989 . S
N187 C186 1.342 . S
N187 N188 1.388 . S
N188 Co171 1.993 . S
N188 N187 1.388 . S
N188 C189 1.346 . S
C189 N188 1.346 . S
C189 C190 1.396 . S
C189 C199 1.510 . S
C190 C186 1.401 . S
C190 C189 1.396 . S
C191 C186 1.499 . S
C191 H192 0.959 . S
C191 H193 0.960 . S
C191 H194 0.961 . S
H192 C191 0.959 . S
H193 C191 0.960 . S
H194 C191 0.961 . S
O195 Co170 1.967 . S
O195 C203 1.258 . S
O196 Co171 1.941 . S
O196 C203 1.266 . S
H197 C199 0.959 . S
H198 C199 0.961 . S
C199 C189 1.510 . S
C199 H197 0.959 . S
C199 H198 0.961 . S
C199 H200 0.960 . S
H200 C199 0.960 . S
H201 N181 0.862 . S
O202 Co170 1.920 . S
O202 C175 1.289 . S
C203 O195 1.258 . S
C203 O196 1.266 . S
Co204 O207 1.970 . S
Co204 N221 1.989 . S
Co204 O229 1.967 . S
Co204 O236 1.920 . S
Co205 O208 1.966 . S
Co205 N214 2.022 . S
Co205 N222 1.993 . S
Co205 O230 1.941 . S
C206 O207 1.258 . S
C206 O208 1.263 . S
O207 Co204 1.970 . S
O207 C206 1.258 . S
O208 Co205 1.966 . S
O208 C206 1.263 . S
C209 O210 1.235 . S
C209 O236 1.289 . S
O210 C209 1.235 . S
C211 C213 1.400 . S
C211 N214 1.351 . S
C211 C216 1.501 . S
C212 C213 1.387 . S
C212 N215 1.341 . S
C213 C211 1.400 . S
C213 C212 1.387 . S
N214 Co205 2.022 . S
N214 C211 1.351 . S
N214 N215 1.365 . S
N215 C212 1.341 . S
N215 N214 1.365 . S
N215 H235 0.862 . S
C216 C211 1.501 . S
C216 H217 0.961 . S
C216 H218 0.961 . S
C216 H219 0.960 . S
H217 C216 0.961 . S
H218 C216 0.961 . S
H219 C216 0.960 . S
C220 N221 1.342 . S
C220 C224 1.401 . S
C220 C225 1.499 . S
N221 Co204 1.989 . S
N221 C220 1.342 . S
N221 N222 1.388 . S
N222 Co205 1.993 . S
N222 N221 1.388 . S
N222 C223 1.346 . S
C223 N222 1.346 . S
C223 C224 1.396 . S
C223 C233 1.510 . S
C224 C220 1.401 . S
C224 C223 1.396 . S
C225 C220 1.499 . S
C225 H226 0.959 . S
C225 H227 0.960 . S
C225 H228 0.961 . S
H226 C225 0.959 . S
H227 C225 0.960 . S
H228 C225 0.961 . S
O229 Co204 1.967 . S
O229 C237 1.258 . S
O230 Co205 1.941 . S
O230 C237 1.266 . S
H231 C233 0.959 . S
H232 C233 0.961 . S
C233 C223 1.510 . S
C233 H231 0.959 . S
C233 H232 0.961 . S
C233 H234 0.960 . S
H234 C233 0.960 . S
H235 N215 0.862 . S
O236 Co204 1.920 . S
O236 C209 1.289 . S
C237 O229 1.258 . S
C237 O230 1.266 . S
Co238 O241 1.970 . S
Co238 N255 1.989 . S
Co238 O263 1.967 . S
Co238 O270 1.920 . S
Co239 O242 1.966 . S
Co239 N248 2.022 . S
Co239 N256 1.993 . S
Co239 O264 1.941 . S
C240 O241 1.258 . S
C240 O242 1.263 . S
O241 Co238 1.970 . S
O241 C240 1.258 . S
O242 Co239 1.966 . S
O242 C240 1.263 . S
C243 O244 1.235 . S
C243 O270 1.289 . S
O244 C243 1.235 . S
C245 C247 1.400 . S
C245 N248 1.351 . S
C245 C250 1.501 . S
C246 C247 1.387 . S
C246 N249 1.341 . S
C247 C245 1.400 . S
C247 C246 1.387 . S
N248 Co239 2.022 . S
N248 C245 1.351 . S
N248 N249 1.365 . S
N249 C246 1.341 . S
N249 N248 1.365 . S
N249 H269 0.862 . S
C250 C245 1.501 . S
C250 H251 0.961 . S
C250 H252 0.961 . S
C250 H253 0.960 . S
H251 C250 0.961 . S
H252 C250 0.961 . S
H253 C250 0.960 . S
C254 N255 1.342 . S
C254 C258 1.401 . S
C254 C259 1.499 . S
N255 Co238 1.989 . S
N255 C254 1.342 . S
N255 N256 1.388 . S
N256 Co239 1.993 . S
N256 N255 1.388 . S
N256 C257 1.346 . S
C257 N256 1.346 . S
C257 C258 1.396 . S
C257 C267 1.510 . S
C258 C254 1.401 . S
C258 C257 1.396 . S
C259 C254 1.499 . S
C259 H260 0.959 . S
C259 H261 0.960 . S
C259 H262 0.961 . S
H260 C259 0.959 . S
H261 C259 0.960 . S
H262 C259 0.961 . S
O263 Co238 1.967 . S
O263 C271 1.258 . S
O264 Co239 1.941 . S
O264 C271 1.266 . S
H265 C267 0.959 . S
H266 C267 0.961 . S
C267 C257 1.510 . S
C267 H265 0.959 . S
C267 H266 0.961 . S
C267 H268 0.960 . S
H268 C267 0.960 . S
H269 N249 0.862 . S
O270 Co238 1.920 . S
O270 C243 1.289 . S
C271 O263 1.258 . S
C271 O264 1.266 . S
Co272 O275 1.970 . S
Co272 N289 1.989 . S
Co272 O297 1.967 . S
Co272 O304 1.920 . S
Co273 O276 1.966 . S
Co273 N282 2.022 . S
Co273 N290 1.993 . S
Co273 O298 1.941 . S
C274 O275 1.258 . S
C274 O276 1.263 . S
O275 Co272 1.970 . S
O275 C274 1.258 . S
O276 Co273 1.966 . S
O276 C274 1.263 . S
C277 O278 1.235 . S
C277 O304 1.289 . S
O278 C277 1.235 . S
C279 C281 1.400 . S
C279 N282 1.351 . S
C279 C284 1.501 . S
C280 C281 1.387 . S
C280 N283 1.341 . S
C281 C279 1.400 . S
C281 C280 1.387 . S
N282 Co273 2.022 . S
N282 C279 1.351 . S
N282 N283 1.365 . S
N283 C280 1.341 . S
N283 N282 1.365 . S
N283 H303 0.862 . S
C284 C279 1.501 . S
C284 H285 0.961 . S
C284 H286 0.961 . S
C284 H287 0.960 . S
H285 C284 0.961 . S
H286 C284 0.961 . S
H287 C284 0.960 . S
C288 N289 1.342 . S
C288 C292 1.401 . S
C288 C293 1.499 . S
N289 Co272 1.989 . S
N289 C288 1.342 . S
N289 N290 1.388 . S
N290 Co273 1.993 . S
N290 N289 1.388 . S
N290 C291 1.346 . S
C291 N290 1.346 . S
C291 C292 1.396 . S
C291 C301 1.510 . S
C292 C288 1.401 . S
C292 C291 1.396 . S
C293 C288 1.499 . S
C293 H294 0.959 . S
C293 H295 0.960 . S
C293 H296 0.961 . S
H294 C293 0.959 . S
H295 C293 0.960 . S
H296 C293 0.961 . S
O297 Co272 1.967 . S
O297 C305 1.258 . S
O298 Co273 1.941 . S
O298 C305 1.266 . S
H299 C301 0.959 . S
H300 C301 0.961 . S
C301 C291 1.510 . S
C301 H299 0.959 . S
C301 H300 0.961 . S
C301 H302 0.960 . S
H302 C301 0.960 . S
H303 N283 0.862 . S
O304 Co272 1.920 . S
O304 C277 1.289 . S
C305 O297 1.258 . S
C305 O298 1.266 . S
Co306 O309 1.970 . S
Co306 N323 1.989 . S
Co306 O331 1.967 . S
Co306 O338 1.920 . S
Co307 O310 1.966 . S
Co307 N316 2.022 . S
Co307 N324 1.993 . S
Co307 O332 1.941 . S
C308 O309 1.258 . S
C308 O310 1.263 . S
O309 Co306 1.970 . S
O309 C308 1.258 . S
O310 Co307 1.966 . S
O310 C308 1.263 . S
C311 O312 1.235 . S
C311 O338 1.289 . S
O312 C311 1.235 . S
C313 C315 1.400 . S
C313 N316 1.351 . S
C313 C318 1.501 . S
C314 C315 1.387 . S
C314 N317 1.341 . S
C315 C313 1.400 . S
C315 C314 1.387 . S
N316 Co307 2.022 . S
N316 C313 1.351 . S
N316 N317 1.365 . S
N317 C314 1.341 . S
N317 N316 1.365 . S
N317 H337 0.862 . S
C318 C313 1.501 . S
C318 H319 0.961 . S
C318 H320 0.961 . S
C318 H321 0.960 . S
H319 C318 0.961 . S
H320 C318 0.961 . S
H321 C318 0.960 . S
C322 N323 1.342 . S
C322 C326 1.401 . S
C322 C327 1.499 . S
N323 Co306 1.989 . S
N323 C322 1.342 . S
N323 N324 1.388 . S
N324 Co307 1.993 . S
N324 N323 1.388 . S
N324 C325 1.346 . S
C325 N324 1.346 . S
C325 C326 1.396 . S
C325 C335 1.510 . S
C326 C322 1.401 . S
C326 C325 1.396 . S
C327 C322 1.499 . S
C327 H328 0.959 . S
C327 H329 0.960 . S
C327 H330 0.961 . S
H328 C327 0.959 . S
H329 C327 0.960 . S
H330 C327 0.961 . S
O331 Co306 1.967 . S
O331 C339 1.258 . S
O332 Co307 1.941 . S
O332 C339 1.266 . S
H333 C335 0.959 . S
H334 C335 0.961 . S
C335 C325 1.510 . S
C335 H333 0.959 . S
C335 H334 0.961 . S
C335 H336 0.960 . S
H336 C335 0.960 . S
H337 N317 0.862 . S
O338 Co306 1.920 . S
O338 C311 1.289 . S
C339 O331 1.258 . S
C339 O332 1.266 . S
Co340 O343 1.970 . S
Co340 N357 1.989 . S
Co340 O365 1.967 . S
Co340 O372 1.920 . S
Co341 O344 1.966 . S
Co341 N350 2.022 . S
Co341 N358 1.993 . S
Co341 O366 1.941 . S
C342 O343 1.258 . S
C342 O344 1.263 . S
O343 Co340 1.970 . S
O343 C342 1.258 . S
O344 Co341 1.966 . S
O344 C342 1.263 . S
C345 O346 1.235 . S
C345 O372 1.289 . S
O346 C345 1.235 . S
C347 C349 1.400 . S
C347 N350 1.351 . S
C347 C352 1.501 . S
C348 C349 1.387 . S
C348 N351 1.341 . S
C349 C347 1.400 . S
C349 C348 1.387 . S
N350 Co341 2.022 . S
N350 C347 1.351 . S
N350 N351 1.365 . S
N351 C348 1.341 . S
N351 N350 1.365 . S
N351 H371 0.862 . S
C352 C347 1.501 . S
C352 H353 0.961 . S
C352 H354 0.961 . S
C352 H355 0.960 . S
H353 C352 0.961 . S
H354 C352 0.961 . S
H355 C352 0.960 . S
C356 N357 1.342 . S
C356 C360 1.401 . S
C356 C361 1.499 . S
N357 Co340 1.989 . S
N357 C356 1.342 . S
N357 N358 1.388 . S
N358 Co341 1.993 . S
N358 N357 1.388 . S
N358 C359 1.346 . S
C359 N358 1.346 . S
C359 C360 1.396 . S
C359 C369 1.510 . S
C360 C356 1.401 . S
C360 C359 1.396 . S
C361 C356 1.499 . S
C361 H362 0.959 . S
C361 H363 0.960 . S
C361 H364 0.961 . S
H362 C361 0.959 . S
H363 C361 0.960 . S
H364 C361 0.961 . S
O365 Co340 1.967 . S
O365 C373 1.258 . S
O366 Co341 1.941 . S
O366 C373 1.266 . S
H367 C369 0.959 . S
H368 C369 0.961 . S
C369 C359 1.510 . S
C369 H367 0.959 . S
C369 H368 0.961 . S
C369 H370 0.960 . S
H370 C369 0.960 . S
H371 N351 0.862 . S
O372 Co340 1.920 . S
O372 C345 1.289 . S
C373 O365 1.258 . S
C373 O366 1.266 . S
Co374 O377 1.970 . S
Co374 N391 1.989 . S
Co374 O399 1.967 . S
Co374 O406 1.920 . S
Co375 O378 1.966 . S
Co375 N384 2.022 . S
Co375 N392 1.993 . S
Co375 O400 1.941 . S
C376 O377 1.258 . S
C376 O378 1.263 . S
O377 Co374 1.970 . S
O377 C376 1.258 . S
O378 Co375 1.966 . S
O378 C376 1.263 . S
C379 O380 1.235 . S
C379 O406 1.289 . S
O380 C379 1.235 . S
C381 C383 1.400 . S
C381 N384 1.351 . S
C381 C386 1.501 . S
C382 C383 1.387 . S
C382 N385 1.341 . S
C383 C381 1.400 . S
C383 C382 1.387 . S
N384 Co375 2.022 . S
N384 C381 1.351 . S
N384 N385 1.365 . S
N385 C382 1.341 . S
N385 N384 1.365 . S
N385 H405 0.862 . S
C386 C381 1.501 . S
C386 H387 0.961 . S
C386 H388 0.961 . S
C386 H389 0.960 . S
H387 C386 0.961 . S
H388 C386 0.961 . S
H389 C386 0.960 . S
C390 N391 1.342 . S
C390 C394 1.401 . S
C390 C395 1.499 . S
N391 Co374 1.989 . S
N391 C390 1.342 . S
N391 N392 1.388 . S
N392 Co375 1.993 . S
N392 N391 1.388 . S
N392 C393 1.346 . S
C393 N392 1.346 . S
C393 C394 1.396 . S
C393 C403 1.510 . S
C394 C390 1.401 . S
C394 C393 1.396 . S
C395 C390 1.499 . S
C395 H396 0.959 . S
C395 H397 0.960 . S
C395 H398 0.961 . S
H396 C395 0.959 . S
H397 C395 0.960 . S
H398 C395 0.961 . S
O399 Co374 1.967 . S
O399 C407 1.258 . S
O400 Co375 1.941 . S
O400 C407 1.266 . S
H401 C403 0.959 . S
H402 C403 0.961 . S
C403 C393 1.510 . S
C403 H401 0.959 . S
C403 H402 0.961 . S
C403 H404 0.960 . S
H404 C403 0.960 . S
H405 N385 0.862 . S
O406 Co374 1.920 . S
O406 C379 1.289 . S
C407 O399 1.258 . S
C407 O400 1.266 . S
H408 C414 0.930 . S
H409 C418 0.930 . S
H410 C423 0.929 . S
H411 C421 0.929 . S
H412 C416 0.929 . S
H413 C422 0.929 . S
C414 H408 0.930 . S
C414 C415 1.367 . S
C414 C422 1.378 . S
C415 C414 1.367 . S
C415 C423 1.433 . S
C416 H412 0.929 . S
C416 C418 1.378 . S
C416 C420 1.350 . S
C417 C420 1.463 . S
C417 C422 1.350 . S
C417 N425 1.427 . S
C418 H409 0.930 . S
C418 C416 1.378 . S
C418 C419 1.367 . S
C419 C418 1.367 . S
C419 C421 1.433 . S
C420 C416 1.350 . S
C420 C417 1.463 . S
C420 N424 1.427 . S
C421 H411 0.929 . S
C421 C419 1.433 . S
C421 N424 1.384 . S
C422 H413 0.929 . S
C422 C414 1.378 . S
C422 C417 1.350 . S
C423 H410 0.929 . S
C423 C415 1.433 . S
C423 N425 1.384 . S
N424 C420 1.427 . S
N424 C421 1.384 . S
N425 C417 1.427 . S
N425 C423 1.384 . S
H426 C432 0.930 . S
H427 C436 0.930 . S
H428 C441 0.929 . S
H429 C439 0.929 . S
H430 C434 0.929 . S
H431 C440 0.929 . S
C432 H426 0.930 . S
C432 C433 1.367 . S
C432 C440 1.378 . S
C433 C432 1.367 . S
C433 C441 1.433 . S
C434 H430 0.929 . S
C434 C436 1.378 . S
C434 C438 1.350 . S
C435 C438 1.463 1_455 S
C435 C440 1.350 . S
C435 N443 1.427 1_455 S
C436 H427 0.930 . S
C436 C434 1.378 . S
C436 C437 1.367 . S
C437 C436 1.367 . S
C437 C439 1.433 . S
C438 C434 1.350 . S
C438 C435 1.463 1_655 S
C438 N442 1.427 1_655 S
C439 H429 0.929 . S
C439 C437 1.433 . S
C439 N442 1.384 1_655 S
C440 H431 0.929 . S
C440 C432 1.378 . S
C440 C435 1.350 . S
C441 H428 0.929 . S
C441 C433 1.433 . S
C441 N443 1.384 1_455 S
N442 C438 1.427 1_455 S
N442 C439 1.384 1_455 S
N443 C435 1.427 1_655 S
N443 C441 1.384 1_655 S
H444 C450 0.930 . S
H445 C454 0.930 . S
H446 C459 0.929 . S
H447 C457 0.929 . S
H448 C452 0.937 . S
H449 C458 0.937 . S
C450 H444 0.930 . S
C450 C451 1.367 . S
C450 C458 1.378 1_545 S
C451 C450 1.367 . S
C451 C459 1.433 . S
C452 H448 0.937 . S
C452 C454 1.378 1_545 S
C452 C456 1.341 1_545 S
C453 C456 1.463 1_545 S
C453 C458 1.341 1_545 S
C453 N461 1.427 . S
C454 H445 0.930 . S
C454 C452 1.378 1_565 S
C454 C455 1.367 . S
C455 C454 1.367 . S
C455 C457 1.433 . S
C456 C452 1.341 1_565 S
C456 C453 1.463 1_565 S
C456 N460 1.427 . S
C457 H447 0.929 . S
C457 C455 1.433 . S
C457 N460 1.384 . S
C458 H449 0.937 . S
C458 C450 1.378 1_565 S
C458 C453 1.341 1_565 S
C459 H446 0.929 . S
C459 C451 1.433 . S
C459 N461 1.384 . S
N460 C456 1.427 . S
N460 C457 1.384 . S
N461 C453 1.427 . S
N461 C459 1.384 . S
H462 C468 0.930 . S
H463 C472 0.930 . S
H464 C477 0.929 . S
H465 C475 0.929 . S
H466 C470 0.929 . S
H467 C476 0.929 . S
C468 H462 0.930 . S
C468 C469 1.367 . S
C468 C476 1.378 . S
C469 C468 1.367 . S
C469 C477 1.433 . S
C470 H466 0.929 . S
C470 C472 1.378 . S
C470 C474 1.350 . S
C471 C474 1.463 . S
C471 C476 1.350 . S
C471 N479 1.427 . S
C472 H463 0.930 . S
C472 C470 1.378 . S
C472 C473 1.367 . S
C473 C472 1.367 . S
C473 C475 1.433 . S
C474 C470 1.350 . S
C474 C471 1.463 . S
C474 N478 1.427 . S
C475 H465 0.929 . S
C475 C473 1.433 . S
C475 N478 1.384 . S
C476 H467 0.929 . S
C476 C468 1.378 . S
C476 C471 1.350 . S
C477 H464 0.929 . S
C477 C469 1.433 . S
C477 N479 1.384 . S
N478 C474 1.427 . S
N478 C475 1.384 . S
N479 C471 1.427 . S
N479 C477 1.384 . S
H480 C486 0.930 . S
H481 C490 0.930 . S
H482 C495 0.929 . S
H483 C493 0.929 . S
H484 C488 0.929 . S
H485 C494 0.929 . S
C486 H480 0.930 . S
C486 C487 1.367 . S
C486 C494 1.378 . S
C487 C486 1.367 . S
C487 C495 1.433 . S
C488 H484 0.929 . S
C488 C490 1.378 . S
C488 C492 1.350 . S
C489 C492 1.463 1_655 S
C489 C494 1.350 . S
C489 N497 1.427 . S
C490 H481 0.930 . S
C490 C488 1.378 . S
C490 C491 1.367 . S
C491 C490 1.367 . S
C491 C493 1.433 . S
C492 C488 1.350 . S
C492 C489 1.463 1_455 S
C492 N496 1.427 . S
C493 H483 0.929 . S
C493 C491 1.433 . S
C493 N496 1.384 . S
C494 H485 0.929 . S
C494 C486 1.378 . S
C494 C489 1.350 . S
C495 H482 0.929 . S
C495 C487 1.433 . S
C495 N497 1.384 . S
N496 C492 1.427 . S
N496 C493 1.384 . S
N497 C489 1.427 . S
N497 C495 1.384 . S
H498 C504 0.930 . S
H499 C508 0.930 . S
H500 C513 0.929 . S
H501 C511 0.929 . S
H502 C506 0.929 . S
H503 C512 0.929 . S
C504 H498 0.930 . S
C504 C505 1.367 . S
C504 C512 1.378 . S
C505 C504 1.367 . S
C505 C513 1.433 . S
C506 H502 0.929 . S
C506 C508 1.378 . S
C506 C510 1.350 . S
C507 C510 1.463 1_565 S
C507 C512 1.350 . S
C507 N515 1.427 . S
C508 H499 0.930 . S
C508 C506 1.378 . S
C508 C509 1.367 . S
C509 C508 1.367 . S
C509 C511 1.433 . S
C510 C506 1.350 . S
C510 C507 1.463 1_545 S
C510 N514 1.427 . S
C511 H501 0.929 . S
C511 C509 1.433 . S
C511 N514 1.384 . S
C512 H503 0.929 . S
C512 C504 1.378 . S
C512 C507 1.350 . S
C513 H500 0.929 . S
C513 C505 1.433 . S
C513 N515 1.384 . S
N514 C510 1.427 . S
N514 C511 1.384 . S
N515 C507 1.427 . S
N515 C513 1.384 . S
H516 C522 0.930 . S
H517 C526 0.930 . S
H518 C531 0.929 . S
H519 C529 0.929 . S
H520 C524 0.929 1_565 S
H521 C530 0.929 1_545 S
C522 H516 0.930 . S
C522 C523 1.367 . S
C522 C530 1.378 . S
C523 C522 1.367 . S
C523 C531 1.433 . S
C524 H520 0.929 1_545 S
C524 C526 1.378 . S
C524 C528 1.350 . S
C525 C528 1.463 1_566 S
C525 C530 1.350 . S
C525 N533 1.427 1_556 S
C526 H517 0.930 . S
C526 C524 1.378 . S
C526 C527 1.367 . S
C527 C526 1.367 . S
C527 C529 1.433 . S
C528 C524 1.350 . S
C528 C525 1.463 1_544 S
C528 N532 1.427 1_554 S
C529 H519 0.929 . S
C529 C527 1.433 . S
C529 N532 1.384 1_554 S
C530 H521 0.929 1_565 S
C530 C522 1.378 . S
C530 C525 1.350 . S
C531 H518 0.929 . S
C531 C523 1.433 . S
C531 N533 1.384 1_556 S
N532 C528 1.427 1_556 S
N532 C529 1.384 1_556 S
N533 C525 1.427 1_554 S
N533 C531 1.384 1_554 S
H534 C540 0.930 . S
H535 C544 0.930 . S
H536 C549 0.929 . S
H537 C547 0.929 . S
H538 C542 0.929 . S
H539 C548 0.929 . S
C540 H534 0.930 . S
C540 C541 1.367 . S
C540 C548 1.378 . S
C541 C540 1.367 . S
C541 C549 1.433 . S
C542 H538 0.929 . S
C542 C544 1.378 . S
C542 C546 1.350 . S
C543 C546 1.463 . S
C543 C548 1.350 . S
C543 N551 1.427 . S
C544 H535 0.930 . S
C544 C542 1.378 . S
C544 C545 1.367 . S
C545 C544 1.367 . S
C545 C547 1.433 . S
C546 C542 1.350 . S
C546 C543 1.463 . S
C546 N550 1.427 . S
C547 H537 0.929 . S
C547 C545 1.433 . S
C547 N550 1.384 . S
C548 H539 0.929 . S
C548 C540 1.378 . S
C548 C543 1.350 . S
C549 H536 0.929 . S
C549 C541 1.433 . S
C549 N551 1.384 . S
N550 C546 1.427 . S
N550 C547 1.384 . S
N551 C543 1.427 . S
N551 C549 1.384 . S
H552 C558 0.930 . S
H553 C562 0.930 . S
H554 C567 0.929 . S
H555 C565 0.929 . S
H556 C560 0.929 1_455 S
H557 C566 0.929 1_655 S
C558 H552 0.930 . S
C558 C559 1.367 . S
C558 C566 1.378 . S
C559 C558 1.367 . S
C559 C567 1.433 . S
C560 H556 0.929 1_655 S
C560 C562 1.378 . S
C560 C564 1.350 . S
C561 C564 1.463 1_455 S
C561 C566 1.350 . S
C561 N569 1.427 . S
C562 H553 0.930 . S
C562 C560 1.378 . S
C562 C563 1.367 . S
C563 C562 1.367 . S
C563 C565 1.433 . S
C564 C560 1.350 . S
C564 C561 1.463 1_655 S
C564 N568 1.427 . S
C565 H555 0.929 . S
C565 C563 1.433 . S
C565 N568 1.384 . S
C566 H557 0.929 1_455 S
C566 C558 1.378 . S
C566 C561 1.350 . S
C567 H554 0.929 . S
C567 C559 1.433 . S
C567 N569 1.384 . S
N568 C564 1.427 . S
N568 C565 1.384 . S
N569 C561 1.427 . S
N569 C567 1.384 . S
H570 C576 0.930 . S
H571 C580 0.930 . S
H572 C585 0.929 . S
H573 C583 0.929 . S
H574 C578 0.929 1_554 S
H575 C584 0.929 1_556 S
C576 H570 0.930 . S
C576 C577 1.367 . S
C576 C584 1.378 . S
C577 C576 1.367 . S
C577 C585 1.433 . S
C578 H574 0.929 1_556 S
C578 C580 1.378 . S
C578 C582 1.350 . S
C579 C582 1.463 1_564 S
C579 C584 1.350 . S
C579 N587 1.427 . S
C580 H571 0.930 . S
C580 C578 1.378 . S
C580 C581 1.367 . S
C581 C580 1.367 . S
C581 C583 1.433 . S
C582 C578 1.350 . S
C582 C579 1.463 1_546 S
C582 N586 1.427 . S
C583 H573 0.929 . S
C583 C581 1.433 . S
C583 N586 1.384 . S
C584 H575 0.929 1_554 S
C584 C576 1.378 . S
C584 C579 1.350 . S
C585 H572 0.929 . S
C585 C577 1.433 . S
C585 N587 1.384 . S
N586 C582 1.427 . S
N586 C583 1.384 . S
N587 C579 1.427 . S
N587 C585 1.384 . S
H588 C594 0.930 . S
H589 C598 0.930 . S
H590 C603 0.929 . S
H591 C601 0.929 . S
H592 C596 0.929 . S
H593 C602 0.929 . S
C594 H588 0.930 . S
C594 C595 1.367 . S
C594 C602 1.378 . S
C595 C594 1.367 . S
C595 C603 1.433 . S
C596 H592 0.929 . S
C596 C598 1.378 . S
C596 C600 1.350 . S
C597 C600 1.463 . S
C597 C602 1.350 . S
C597 N605 1.427 . S
C598 H589 0.930 . S
C598 C596 1.378 . S
C598 C599 1.367 . S
C599 C598 1.367 . S
C599 C601 1.433 . S
C600 C596 1.350 . S
C600 C597 1.463 . S
C600 N604 1.427 . S
C601 H591 0.929 . S
C601 C599 1.433 . S
C601 N604 1.384 . S
C602 H593 0.929 . S
C602 C594 1.378 . S
C602 C597 1.350 . S
C603 H590 0.929 . S
C603 C595 1.433 . S
C603 N605 1.384 . S
N604 C600 1.427 . S
N604 C601 1.384 . S
N605 C597 1.427 . S
N605 C603 1.384 . S
H606 C612 0.930 . S
H607 C616 0.930 . S
H608 C621 0.929 . S
H609 C619 0.929 . S
H610 C614 0.929 . S
H611 C620 0.929 . S
C612 H606 0.930 . S
C612 C613 1.367 . S
C612 C620 1.378 . S
C613 C612 1.367 . S
C613 C621 1.433 . S
C614 H610 0.929 . S
C614 C616 1.378 . S
C614 C618 1.350 . S
C615 C618 1.463 1_455 S
C615 C620 1.350 . S
C615 N623 1.427 . S
C616 H607 0.930 . S
C616 C614 1.378 . S
C616 C617 1.367 . S
C617 C616 1.367 . S
C617 C619 1.433 . S
C618 C614 1.350 . S
C618 C615 1.463 1_655 S
C618 N622 1.427 . S
C619 H609 0.929 . S
C619 C617 1.433 . S
C619 N622 1.384 . S
C620 H611 0.929 . S
C620 C612 1.378 . S
C620 C615 1.350 . S
C621 H608 0.929 . S
C621 C613 1.433 . S
C621 N623 1.384 . S
N622 C618 1.427 . S
N622 C619 1.384 . S
N623 C615 1.427 . S
N623 C621 1.384 . S
H624 C630 0.930 . S
H625 C634 0.930 . S
H626 C639 0.929 . S
H627 C637 0.929 . S
H628 C632 0.929 . S
H629 C638 0.929 . S
C630 H624 0.930 . S
C630 C631 1.367 . S
C630 C638 1.378 1_545 S
C631 C630 1.367 . S
C631 C639 1.433 . S
C632 H628 0.929 . S
C632 C634 1.378 1_545 S
C632 C636 1.350 1_545 S
C633 C636 1.463 1_445 S
C633 C638 1.350 1_545 S
C633 N641 1.427 . S
C634 H625 0.930 . S
C634 C632 1.378 1_565 S
C634 C635 1.367 . S
C635 C634 1.367 . S
C635 C637 1.433 . S
C636 C632 1.350 1_565 S
C636 C633 1.463 1_665 S
C636 N640 1.427 . S
C637 H627 0.929 . S
C637 C635 1.433 . S
C637 N640 1.384 . S
C638 H629 0.929 . S
C638 C630 1.378 1_565 S
C638 C633 1.350 1_565 S
C639 H626 0.929 . S
C639 C631 1.433 . S
C639 N641 1.384 . S
N640 C636 1.427 . S
N640 C637 1.384 . S
N641 C633 1.427 . S
N641 C639 1.384 . S
H642 C648 0.930 . S
H643 C652 0.930 . S
H644 C657 0.929 . S
H645 C655 0.929 . S
H646 C650 0.929 . S
H647 C656 0.929 . S
C648 H642 0.930 . S
C648 C649 1.367 . S
C648 C656 1.378 . S
C649 C648 1.367 . S
C649 C657 1.433 . S
C650 H646 0.929 . S
C650 C652 1.378 . S
C650 C654 1.350 . S
C651 C654 1.463 1_445 S
C651 C656 1.350 . S
C651 N659 1.427 . S
C652 H643 0.930 . S
C652 C650 1.378 . S
C652 C653 1.367 . S
C653 C652 1.367 . S
C653 C655 1.433 . S
C654 C650 1.350 . S
C654 C651 1.463 1_665 S
C654 N658 1.427 . S
C655 H645 0.929 . S
C655 C653 1.433 . S
C655 N658 1.384 . S
C656 H647 0.929 . S
C656 C648 1.378 . S
C656 C651 1.350 . S
C657 H644 0.929 . S
C657 C649 1.433 . S
C657 N659 1.384 . S
N658 C654 1.427 . S
N658 C655 1.384 . S
N659 C651 1.427 . S
N659 C657 1.384 . S
H660 C666 0.930 1_455 S
H661 C670 0.930 1_655 S
H662 C675 0.929 1_565 S
H663 C673 0.929 1_545 S
H664 C668 0.929 . S
H665 C674 0.929 . S
C666 H660 0.930 1_655 S
C666 C667 1.367 . S
C666 C674 1.378 1_655 S
C667 C666 1.367 . S
C667 C675 1.433 . S
C668 H664 0.929 . S
C668 C670 1.378 1_655 S
C668 C672 1.350 1_655 S
C669 C672 1.463 1_645 S
C669 C674 1.350 1_655 S
C669 N677 1.427 1_545 S
C670 H661 0.930 1_455 S
C670 C668 1.378 1_455 S
C670 C671 1.367 . S
C671 C670 1.367 . S
C671 C673 1.433 . S
C672 C668 1.350 1_455 S
C672 C669 1.463 1_465 S
C672 N676 1.427 1_565 S
C673 H663 0.929 1_565 S
C673 C671 1.433 . S
C673 N676 1.384 1_565 S
C674 H665 0.929 . S
C674 C666 1.378 1_455 S
C674 C669 1.350 1_455 S
C675 H662 0.929 1_545 S
C675 C667 1.433 . S
C675 N677 1.384 1_545 S
N676 C672 1.427 1_545 S
N676 C673 1.384 1_545 S
N677 C669 1.427 1_565 S
N677 C675 1.384 1_565 S
H678 C684 0.930 . S
H679 C688 0.930 . S
H680 C693 0.929 . S
H681 C691 0.929 . S
H682 C686 0.929 . S
H683 C692 0.929 . S
C684 H678 0.930 . S
C684 C685 1.367 . S
C684 C692 1.378 . S
C685 C684 1.367 . S
C685 C693 1.433 . S
C686 H682 0.929 . S
C686 C688 1.378 . S
C686 C690 1.350 . S
C687 C690 1.463 1_665 S
C687 C692 1.350 . S
C687 N695 1.427 1_655 S
C688 H679 0.930 . S
C688 C686 1.378 . S
C688 C689 1.367 . S
C689 C688 1.367 . S
C689 C691 1.433 . S
C690 C686 1.350 . S
C690 C687 1.463 1_445 S
C690 N694 1.427 1_455 S
C691 H681 0.929 . S
C691 C689 1.433 . S
C691 N694 1.384 1_455 S
C692 H683 0.929 . S
C692 C684 1.378 . S
C692 C687 1.350 . S
C693 H680 0.929 . S
C693 C685 1.433 . S
C693 N695 1.384 1_655 S
N694 C690 1.427 1_655 S
N694 C691 1.384 1_655 S
N695 C687 1.427 1_455 S
N695 C693 1.384 1_455 S
H696 C702 0.930 . S
H697 C706 0.930 . S
H698 C711 0.929 . S
H699 C709 0.929 . S
H700 C704 0.929 . S
H701 C710 0.929 . S
C702 H696 0.930 . S
C702 C703 1.367 . S
C702 C710 1.378 . S
C703 C702 1.367 . S
C703 C711 1.433 . S
C704 H700 0.929 . S
C704 C706 1.378 . S
C704 C708 1.350 . S
C705 C708 1.463 1_465 S
C705 C710 1.350 . S
C705 N713 1.427 . S
C706 H697 0.930 . S
C706 C704 1.378 . S
C706 C707 1.367 . S
C707 C706 1.367 . S
C707 C709 1.433 . S
C708 C704 1.350 . S
C708 C705 1.463 1_645 S
C708 N712 1.427 . S
C709 H699 0.929 . S
C709 C707 1.433 . S
C709 N712 1.384 . S
C710 H701 0.929 . S
C710 C702 1.378 . S
C710 C705 1.350 . S
C711 H698 0.929 . S
C711 C703 1.433 . S
C711 N713 1.384 . S
N712 C708 1.427 . S
N712 C709 1.384 . S
N713 C705 1.427 . S
N713 C711 1.384 . S
H714 C720 0.930 . S
H715 C724 0.930 . S
H716 C729 0.929 . S
H717 C727 0.929 . S
H718 C722 0.929 . S
H719 C728 0.929 . S
C720 H714 0.930 . S
C720 C721 1.367 . S
C720 C728 1.378 . S
C721 C720 1.367 . S
C721 C729 1.433 . S
C722 H718 0.929 . S
C722 C724 1.378 . S
C722 C726 1.350 . S
C723 C726 1.463 1_445 S
C723 C728 1.350 . S
C723 N731 1.427 . S
C724 H715 0.930 . S
C724 C722 1.378 . S
C724 C725 1.367 . S
C725 C724 1.367 . S
C725 C727 1.433 . S
C726 C722 1.350 . S
C726 C723 1.463 1_665 S
C726 N730 1.427 . S
C727 H717 0.929 . S
C727 C725 1.433 . S
C727 N730 1.384 . S
C728 H719 0.929 . S
C728 C720 1.378 . S
C728 C723 1.350 . S
C729 H716 0.929 . S
C729 C721 1.433 . S
C729 N731 1.384 . S
N730 C726 1.427 . S
N730 C727 1.384 . S
N731 C723 1.427 . S
N731 C729 1.384 . S
H732 C738 0.922 1_655 S
H733 C742 0.930 . S
H734 C747 0.929 . S
H735 C745 0.929 . S
H736 C740 0.929 . S
H737 C746 0.929 . S
C738 H732 0.922 1_455 S
C738 C739 1.367 . S
C738 C746 1.378 . S
C739 C738 1.367 . S
C739 C747 1.433 . S
C740 H736 0.929 . S
C740 C742 1.378 . S
C740 C744 1.350 . S
C741 C744 1.463 1_556 S
C741 C746 1.350 . S
C741 N749 1.427 . S
C742 H733 0.930 . S
C742 C740 1.378 . S
C742 C743 1.367 . S
C743 C742 1.367 . S
C743 C745 1.433 . S
C744 C740 1.350 . S
C744 C741 1.463 1_554 S
C744 N748 1.427 . S
C745 H735 0.929 . S
C745 C743 1.433 . S
C745 N748 1.384 . S
C746 H737 0.929 . S
C746 C738 1.378 . S
C746 C741 1.350 . S
C747 H734 0.929 . S
C747 C739 1.433 . S
C747 N749 1.384 . S
N748 C744 1.427 . S
N748 C745 1.384 . S
N749 C741 1.427 . S
N749 C747 1.384 . S
H750 C756 0.930 1_455 S
H751 C760 0.930 . S
H752 C765 0.929 . S
H753 C763 0.929 . S
H754 C758 0.929 . S
H755 C764 0.929 . S
C756 H750 0.930 1_655 S
C756 C757 1.367 . S
C756 C764 1.378 . S
C757 C756 1.367 . S
C757 C765 1.433 . S
C758 H754 0.929 . S
C758 C760 1.378 . S
C758 C762 1.350 . S
C759 C762 1.463 . S
C759 C764 1.350 . S
C759 N767 1.427 . S
C760 H751 0.930 . S
C760 C758 1.378 . S
C760 C761 1.367 . S
C761 C760 1.367 . S
C761 C763 1.433 . S
C762 C758 1.350 . S
C762 C759 1.463 . S
C762 N766 1.427 . S
C763 H753 0.929 . S
C763 C761 1.433 . S
C763 N766 1.384 . S
C764 H755 0.929 . S
C764 C756 1.378 . S
C764 C759 1.350 . S
C765 H752 0.929 . S
C765 C757 1.433 . S
C765 N767 1.384 . S
N766 C762 1.427 . S
N766 C763 1.384 . S
N767 C759 1.427 . S
N767 C765 1.384 . S
H768 C774 0.930 . S
H769 C778 0.930 . S
H770 C783 0.929 . S
H771 C781 0.929 . S
H772 C776 0.929 . S
H773 C782 0.929 . S
C774 H768 0.930 . S
C774 C775 1.367 . S
C774 C782 1.378 . S
C775 C774 1.367 . S
C775 C783 1.433 . S
C776 H772 0.929 . S
C776 C778 1.378 . S
C776 C780 1.350 . S
C777 C780 1.463 . S
C777 C782 1.350 . S
C777 N785 1.427 . S
C778 H769 0.930 . S
C778 C776 1.378 . S
C778 C779 1.367 . S
C779 C778 1.367 . S
C779 C781 1.433 . S
C780 C776 1.350 . S
C780 C777 1.463 . S
C780 N784 1.427 . S
C781 H771 0.929 . S
C781 C779 1.433 . S
C781 N784 1.384 . S
C782 H773 0.929 . S
C782 C774 1.378 . S
C782 C777 1.350 . S
C783 H770 0.929 . S
C783 C775 1.433 . S
C783 N785 1.384 . S
N784 C780 1.427 . S
N784 C781 1.384 . S
N785 C777 1.427 . S
N785 C783 1.384 . S
H786 C792 0.930 . S
H787 C796 0.930 . S
H788 C801 0.929 . S
H789 C799 0.929 . S
H790 C794 0.929 . S
H791 C800 0.929 . S
C792 H786 0.930 . S
C792 C793 1.367 . S
C792 C800 1.378 . S
C793 C792 1.367 . S
C793 C801 1.433 . S
C794 H790 0.929 . S
C794 C796 1.378 . S
C794 C798 1.350 . S
C795 C798 1.463 1_554 S
C795 C800 1.350 . S
C795 N803 1.427 1_554 S
C796 H787 0.930 . S
C796 C794 1.378 . S
C796 C797 1.367 . S
C797 C796 1.367 . S
C797 C799 1.433 . S
C798 C794 1.350 . S
C798 C795 1.463 1_556 S
C798 N802 1.427 1_556 S
C799 H789 0.929 . S
C799 C797 1.433 . S
C799 N802 1.384 1_556 S
C800 H791 0.929 . S
C800 C792 1.378 . S
C800 C795 1.350 . S
C801 H788 0.929 . S
C801 C793 1.433 . S
C801 N803 1.384 1_554 S
N802 C798 1.427 1_554 S
N802 C799 1.384 1_554 S
N803 C795 1.427 1_556 S
N803 C801 1.384 1_556 S
H804 C810 0.930 1_545 S
H805 C814 0.930 . S
H806 C819 0.929 . S
H807 C817 0.929 . S
H808 C812 0.929 . S
H809 C818 0.929 . S
C810 H804 0.930 1_565 S
C810 C811 1.367 . S
C810 C818 1.378 . S
C811 C810 1.367 . S
C811 C819 1.433 . S
C812 H808 0.929 . S
C812 C814 1.378 . S
C812 C816 1.350 . S
C813 C816 1.463 . S
C813 C818 1.350 . S
C813 N821 1.427 . S
C814 H805 0.930 . S
C814 C812 1.378 . S
C814 C815 1.367 . S
C815 C814 1.367 . S
C815 C817 1.433 . S
C816 C812 1.350 . S
C816 C813 1.463 . S
C816 N820 1.427 . S
C817 H807 0.929 . S
C817 C815 1.433 . S
C817 N820 1.384 . S
C818 H809 0.929 . S
C818 C810 1.378 . S
C818 C813 1.350 . S
C819 H806 0.929 . S
C819 C811 1.433 . S
C819 N821 1.384 . S
N820 C816 1.427 . S
N820 C817 1.384 . S
N821 C813 1.427 . S
N821 C819 1.384 . S
H822 C828 0.930 1_565 S
H823 C832 0.930 . S
H824 C837 0.929 . S
H825 C835 0.929 . S
H826 C830 0.929 . S
H827 C836 0.929 . S
C828 H822 0.930 1_545 S
C828 C829 1.367 . S
C828 C836 1.378 . S
C829 C828 1.367 . S
C829 C837 1.433 . S
C830 H826 0.929 . S
C830 C832 1.378 . S
C830 C834 1.350 . S
C831 C834 1.463 . S
C831 C836 1.350 . S
C831 N839 1.427 . S
C832 H823 0.930 . S
C832 C830 1.378 . S
C832 C833 1.367 . S
C833 C832 1.367 . S
C833 C835 1.433 . S
C834 C830 1.350 . S
C834 C831 1.463 . S
C834 N838 1.427 . S
C835 H825 0.929 . S
C835 C833 1.433 . S
C835 N838 1.384 . S
C836 H827 0.929 . S
C836 C828 1.378 . S
C836 C831 1.350 . S
C837 H824 0.929 . S
C837 C829 1.433 . S
C837 N839 1.384 . S
N838 C834 1.427 . S
N838 C835 1.384 . S
N839 C831 1.427 . S
N839 C837 1.384 . S
H840 C846 0.930 . S
H841 C850 0.930 . S
H842 C855 0.929 . S
H843 C853 0.929 . S
H844 C848 0.929 . S
H845 C854 0.929 . S
C846 H840 0.930 . S
C846 C847 1.367 . S
C846 C854 1.378 . S
C847 C846 1.367 . S
C847 C855 1.433 . S
C848 H844 0.929 . S
C848 C850 1.378 . S
C848 C852 1.350 . S
C849 C852 1.463 . S
C849 C854 1.350 . S
C849 N857 1.427 . S
C850 H841 0.930 . S
C850 C848 1.378 . S
C850 C851 1.367 . S
C851 C850 1.367 . S
C851 C853 1.433 . S
C852 C848 1.350 . S
C852 C849 1.463 . S
C852 N856 1.427 . S
C853 H843 0.929 . S
C853 C851 1.433 . S
C853 N856 1.384 . S
C854 H845 0.929 . S
C854 C846 1.378 . S
C854 C849 1.350 . S
C855 H842 0.929 . S
C855 C847 1.433 . S
C855 N857 1.384 . S
N856 C852 1.427 . S
N856 C853 1.384 . S
N857 C849 1.427 . S
N857 C855 1.384 . S
H858 C864 0.930 . S
H859 C868 0.930 . S
H860 C873 0.929 . S
H861 C871 0.929 . S
H862 C866 0.929 . S
H863 C872 0.929 . S
C864 H858 0.930 . S
C864 C865 1.367 . S
C864 C872 1.378 . S
C865 C864 1.367 . S
C865 C873 1.433 . S
C866 H862 0.929 . S
C866 C868 1.378 . S
C866 C870 1.350 . S
C867 C870 1.463 . S
C867 C872 1.350 . S
C867 N875 1.427 . S
C868 H859 0.930 . S
C868 C866 1.378 . S
C868 C869 1.367 . S
C869 C868 1.367 . S
C869 C871 1.433 . S
C870 C866 1.350 . S
C870 C867 1.463 . S
C870 N874 1.427 . S
C871 H861 0.929 . S
C871 C869 1.433 . S
C871 N874 1.384 . S
C872 H863 0.929 . S
C872 C864 1.378 . S
C872 C867 1.350 . S
C873 H860 0.929 . S
C873 C865 1.433 . S
C873 N875 1.384 . S
N874 C870 1.427 . S
N874 C871 1.384 . S
N875 C867 1.427 . S
N875 C873 1.384 . S
H876 C882 0.930 . S
H877 C886 0.930 . S
H878 C891 0.929 . S
H879 C889 0.929 . S
H880 C884 0.929 . S
H881 C890 0.929 . S
C882 H876 0.930 . S
C882 C883 1.367 . S
C882 C890 1.378 . S
C883 C882 1.367 . S
C883 C891 1.433 . S
C884 H880 0.929 . S
C884 C886 1.378 . S
C884 C888 1.350 . S
C885 C888 1.463 . S
C885 C890 1.350 . S
C885 N893 1.427 . S
C886 H877 0.930 . S
C886 C884 1.378 . S
C886 C887 1.367 . S
C887 C886 1.367 . S
C887 C889 1.433 . S
C888 C884 1.350 . S
C888 C885 1.463 . S
C888 N892 1.427 . S
C889 H879 0.929 . S
C889 C887 1.433 . S
C889 N892 1.384 . S
C890 H881 0.929 . S
C890 C882 1.378 . S
C890 C885 1.350 . S
C891 H878 0.929 . S
C891 C883 1.433 . S
C891 N893 1.384 . S
N892 C888 1.427 . S
N892 C889 1.384 . S
N893 C885 1.427 . S
N893 C891 1.384 . S
H894 C900 0.930 . S
H895 C904 0.930 . S
H896 C909 0.929 . S
H897 C907 0.929 . S
H898 C902 0.929 . S
H899 C908 0.929 . S
C900 H894 0.930 . S
C900 C901 1.367 . S
C900 C908 1.378 . S
C901 C900 1.367 . S
C901 C909 1.433 . S
C902 H898 0.929 . S
C902 C904 1.378 . S
C902 C906 1.350 . S
C903 C906 1.463 . S
C903 C908 1.350 . S
C903 N911 1.427 . S
C904 H895 0.930 . S
C904 C902 1.378 . S
C904 C905 1.367 . S
C905 C904 1.367 . S
C905 C907 1.433 . S
C906 C902 1.350 . S
C906 C903 1.463 . S
C906 N910 1.427 . S
C907 H897 0.929 . S
C907 C905 1.433 . S
C907 N910 1.384 . S
C908 H899 0.929 . S
C908 C900 1.378 . S
C908 C903 1.350 . S
C909 H896 0.929 . S
C909 C901 1.433 . S
C909 N911 1.384 . S
N910 C906 1.427 . S
N910 C907 1.384 . S
N911 C903 1.427 . S
N911 C909 1.384 . S
H912 C918 0.930 . S
H913 C922 0.930 . S
H914 C927 0.929 . S
H915 C925 0.929 . S
H916 C920 0.929 . S
H917 C926 0.929 . S
C918 H912 0.930 . S
C918 C919 1.367 . S
C918 C926 1.378 . S
C919 C918 1.367 . S
C919 C927 1.433 . S
C920 H916 0.929 . S
C920 C922 1.378 . S
C920 C924 1.350 . S
C921 C924 1.463 . S
C921 C926 1.350 . S
C921 N929 1.427 . S
C922 H913 0.930 . S
C922 C920 1.378 . S
C922 C923 1.367 . S
C923 C922 1.367 . S
C923 C925 1.433 . S
C924 C920 1.350 . S
C924 C921 1.463 . S
C924 N928 1.427 . S
C925 H915 0.929 . S
C925 C923 1.433 . S
C925 N928 1.384 . S
C926 H917 0.929 . S
C926 C918 1.378 . S
C926 C921 1.350 . S
C927 H914 0.929 . S
C927 C919 1.433 . S
C927 N929 1.384 . S
N928 C924 1.427 . S
N928 C925 1.384 . S
N929 C921 1.427 . S
N929 C927 1.384 . S
H930 C936 0.930 . S
H931 C940 0.930 . S
H932 C945 0.929 . S
H933 C943 0.929 . S
H934 C938 0.929 . S
H935 C944 0.929 . S
C936 H930 0.930 . S
C936 C937 1.367 . S
C936 C944 1.378 . S
C937 C936 1.367 . S
C937 C945 1.433 . S
C938 H934 0.929 . S
C938 C940 1.378 . S
C938 C942 1.350 . S
C939 C942 1.463 . S
C939 C944 1.350 . S
C939 N947 1.427 . S
C940 H931 0.930 . S
C940 C938 1.378 . S
C940 C941 1.367 . S
C941 C940 1.367 . S
C941 C943 1.433 . S
C942 C938 1.350 . S
C942 C939 1.463 . S
C942 N946 1.427 . S
C943 H933 0.929 . S
C943 C941 1.433 . S
C943 N946 1.384 . S
C944 H935 0.929 . S
C944 C936 1.378 . S
C944 C939 1.350 . S
C945 H932 0.929 . S
C945 C937 1.433 . S
C945 N947 1.384 . S
N946 C942 1.427 . S
N946 C943 1.384 . S
N947 C939 1.427 . S
N947 C945 1.384 . S
C415 C111 1.734 . S
C419 C9 1.736 . S
C433 C43 1.734 . S
C437 C145 1.733 . S
C451 C77 1.734 . S
C455 C179 1.736 . S
C469 C213 1.734 . S
C473 C315 1.735 . S
C487 C349 1.733 . S
C491 C247 1.735 . S
C505 C383 1.735 . S
C509 C281 1.734 . S
C523 C271 1.131 . S
C527 C33 1.141 . S
C541 C67 1.142 . S
C545 C305 1.140 . S
C559 C339 1.132 . S
C563 C101 1.139 . S
C577 C135 1.148 . S
C581 C373 1.132 . S
C595 C407 1.131 . S
C599 C169 1.147 . S
C613 C203 1.129 . S
C617 C237 1.145 . S
C631 C5 0.443 . S
C635 C107 0.449 . S
C649 C39 0.431 . S
C653 C141 0.439 . S
C667 C73 0.453 . S
C671 C175 0.452 . S
C685 C209 0.405 . S
C689 C311 0.400 . S
C703 C243 0.416 . S
C707 C345 0.425 . S
C721 C277 0.424 . S
C725 C379 0.433 . S
C739 C342 1.555 1_455 S
C743 C2 1.566 . S
C757 C36 1.558 1_655 S
C761 C376 1.568 1_545 S
C775 C206 1.561 . S
C779 C70 1.566 1_565 S
C793 C104 1.561 . S
C797 C240 1.557 1_655 S
C811 C274 1.559 1_565 S
C815 C138 1.567 1_455 S
C829 C172 1.560 1_545 S
C833 C308 1.567 . S
C847 C20 1.752 . S
C851 C292 1.753 . S
C865 C54 1.749 . S
C869 C326 1.756 . S
C883 C360 1.749 . S
C887 C88 1.755 . S
C901 C394 1.750 . S
C905 C122 1.755 . S
C919 C156 1.750 . S
C923 C224 1.755 . S
C937 C190 1.755 . S
C941 C258 1.749 . S
