# Generated by pormake.
# Topology cbo, (4)-cn, num edge types: 1
# Building blocks:
#     Node 0, Type 0, BuildingBlock: QUQFOY_clean_sbu_1, # of connection points: 4
#     Node 1, Type 0, BuildingBlock: QUQFOY_clean_sbu_1, # of connection points: 4
#     Node 2, Type 0, BuildingBlock: QUQFOY_clean_sbu_1, # of connection points: 4
#     Node 3, Type 0, BuildingBlock: QUQFOY_clean_sbu_1, # of connection points: 4
#     Node 4, Type 0, BuildingBlock: QUQFOY_clean_sbu_1, # of connection points: 4
#     Node 5, Type 0, BuildingBlock: QUQFOY_clean_sbu_1, # of connection points: 4
#     Node 6, Type 0, BuildingBlock: QUQFOY_clean_sbu_1, # of connection points: 4
#     Node 7, Type 0, BuildingBlock: QUQFOY_clean_sbu_1, # of connection points: 4
#     Node 8, Type 0, BuildingBlock: QUQFOY_clean_sbu_1, # of connection points: 4
#     Node 9, Type 0, BuildingBlock: QUQFOY_clean_sbu_1, # of connection points: 4
#     Node 10, Type 0, BuildingBlock: QUQFOY_clean_sbu_1, # of connection points: 4
#     Node 11, Type 0, BuildingBlock: QUQFOY_clean_sbu_1, # of connection points: 4
#     Node 12, Type 0, BuildingBlock: QUQFOY_clean_sbu_1, # of connection points: 4
#     Node 13, Type 0, BuildingBlock: QUQFOY_clean_sbu_1, # of connection points: 4
#     Node 14, Type 0, BuildingBlock: QUQFOY_clean_sbu_1, # of connection points: 4
#     Node 15, Type 0, BuildingBlock: QUQFOY_clean_sbu_1, # of connection points: 4
#     Node 16, Type 0, BuildingBlock: QUQFOY_clean_sbu_1, # of connection points: 4
#     Node 17, Type 0, BuildingBlock: QUQFOY_clean_sbu_1, # of connection points: 4
#     Node 18, Type 0, BuildingBlock: QUQFOY_clean_sbu_1, # of connection points: 4
#     Node 19, Type 0, BuildingBlock: QUQFOY_clean_sbu_1, # of connection points: 4
#     Node 20, Type 0, BuildingBlock: QUQFOY_clean_sbu_1, # of connection points: 4
#     Node 21, Type 0, BuildingBlock: QUQFOY_clean_sbu_1, # of connection points: 4
#     Node 22, Type 0, BuildingBlock: QUQFOY_clean_sbu_1, # of connection points: 4
#     Node 23, Type 0, BuildingBlock: QUQFOY_clean_sbu_1, # of connection points: 4
#     Edge 24, Type (0, 0), BuildingBlock: EZIPEK_clean_linker_0, # of connection points: 2
#     Edge 25, Type (0, 0), BuildingBlock: EZIPEK_clean_linker_0, # of connection points: 2
#     Edge 26, Type (0, 0), BuildingBlock: EZIPEK_clean_linker_0, # of connection points: 2
#     Edge 27, Type (0, 0), BuildingBlock: EZIPEK_clean_linker_0, # of connection points: 2
#     Edge 28, Type (0, 0), BuildingBlock: EZIPEK_clean_linker_0, # of connection points: 2
#     Edge 29, Type (0, 0), BuildingBlock: EZIPEK_clean_linker_0, # of connection points: 2
#     Edge 30, Type (0, 0), BuildingBlock: EZIPEK_clean_linker_0, # of connection points: 2
#     Edge 31, Type (0, 0), BuildingBlock: EZIPEK_clean_linker_0, # of connection points: 2
#     Edge 32, Type (0, 0), BuildingBlock: EZIPEK_clean_linker_0, # of connection points: 2
#     Edge 33, Type (0, 0), BuildingBlock: EZIPEK_clean_linker_0, # of connection points: 2
#     Edge 34, Type (0, 0), BuildingBlock: EZIPEK_clean_linker_0, # of connection points: 2
#     Edge 35, Type (0, 0), BuildingBlock: EZIPEK_clean_linker_0, # of connection points: 2
#     Edge 36, Type (0, 0), BuildingBlock: EZIPEK_clean_linker_0, # of connection points: 2
#     Edge 37, Type (0, 0), BuildingBlock: EZIPEK_clean_linker_0, # of connection points: 2
#     Edge 38, Type (0, 0), BuildingBlock: EZIPEK_clean_linker_0, # of connection points: 2
#     Edge 39, Type (0, 0), BuildingBlock: EZIPEK_clean_linker_0, # of connection points: 2
#     Edge 40, Type (0, 0), BuildingBlock: EZIPEK_clean_linker_0, # of connection points: 2
#     Edge 41, Type (0, 0), BuildingBlock: EZIPEK_clean_linker_0, # of connection points: 2
#     Edge 42, Type (0, 0), BuildingBlock: EZIPEK_clean_linker_0, # of connection points: 2
#     Edge 43, Type (0, 0), BuildingBlock: EZIPEK_clean_linker_0, # of connection points: 2
#     Edge 44, Type (0, 0), BuildingBlock: EZIPEK_clean_linker_0, # of connection points: 2
#     Edge 45, Type (0, 0), BuildingBlock: EZIPEK_clean_linker_0, # of connection points: 2
#     Edge 46, Type (0, 0), BuildingBlock: EZIPEK_clean_linker_0, # of connection points: 2
#     Edge 47, Type (0, 0), BuildingBlock: EZIPEK_clean_linker_0, # of connection points: 2
#     Edge 48, Type (0, 0), BuildingBlock: EZIPEK_clean_linker_0, # of connection points: 2
#     Edge 49, Type (0, 0), BuildingBlock: EZIPEK_clean_linker_0, # of connection points: 2
#     Edge 50, Type (0, 0), BuildingBlock: EZIPEK_clean_linker_0, # of connection points: 2
#     Edge 51, Type (0, 0), BuildingBlock: EZIPEK_clean_linker_0, # of connection points: 2
#     Edge 52, Type (0, 0), BuildingBlock: EZIPEK_clean_linker_0, # of connection points: 2
#     Edge 53, Type (0, 0), BuildingBlock: EZIPEK_clean_linker_0, # of connection points: 2
#     Edge 54, Type (0, 0), BuildingBlock: EZIPEK_clean_linker_0, # of connection points: 2
#     Edge 55, Type (0, 0), BuildingBlock: EZIPEK_clean_linker_0, # of connection points: 2
#     Edge 56, Type (0, 0), BuildingBlock: EZIPEK_clean_linker_0, # of connection points: 2
#     Edge 57, Type (0, 0), BuildingBlock: EZIPEK_clean_linker_0, # of connection points: 2
#     Edge 58, Type (0, 0), BuildingBlock: EZIPEK_clean_linker_0, # of connection points: 2
#     Edge 59, Type (0, 0), BuildingBlock: EZIPEK_clean_linker_0, # of connection points: 2
#     Edge 60, Type (0, 0), BuildingBlock: EZIPEK_clean_linker_0, # of connection points: 2
#     Edge 61, Type (0, 0), BuildingBlock: EZIPEK_clean_linker_0, # of connection points: 2
#     Edge 62, Type (0, 0), BuildingBlock: EZIPEK_clean_linker_0, # of connection points: 2
#     Edge 63, Type (0, 0), BuildingBlock: EZIPEK_clean_linker_0, # of connection points: 2
#     Edge 64, Type (0, 0), BuildingBlock: EZIPEK_clean_linker_0, # of connection points: 2
#     Edge 65, Type (0, 0), BuildingBlock: EZIPEK_clean_linker_0, # of connection points: 2
#     Edge 66, Type (0, 0), BuildingBlock: EZIPEK_clean_linker_0, # of connection points: 2
#     Edge 67, Type (0, 0), BuildingBlock: EZIPEK_clean_linker_0, # of connection points: 2
#     Edge 68, Type (0, 0), BuildingBlock: EZIPEK_clean_linker_0, # of connection points: 2
#     Edge 69, Type (0, 0), BuildingBlock: EZIPEK_clean_linker_0, # of connection points: 2
#     Edge 70, Type (0, 0), BuildingBlock: EZIPEK_clean_linker_0, # of connection points: 2
#     Edge 71, Type (0, 0), BuildingBlock: EZIPEK_clean_linker_0, # of connection points: 2
# Relax obj value: 0.088
# Max RMSD: 0.128
# Mean RMSD: 0.128
data_MOF--net-cbo--node1-QUQFOY_clean_sbu_1--edge1-EZIPEK_clean_linker_0
_symmetry_space_group_name_H-M    P1
_symmetry_Int_Tables_number       1
_symmetry_cell_setting            triclinic
loop_
_symmetry_equiv_pos_as_xyz
'x, y, z'
_cell_length_a     39.982053
_cell_length_b     39.957763
_cell_length_c     39.993261
_cell_angle_alpha  90.008264
_cell_angle_beta   89.984478
_cell_angle_gamma 90.005789
loop_
_atom_site_label
_atom_site_type_symbol
_atom_site_fract_x
_atom_site_fract_y
_atom_site_fract_z
_atom_type_partial_charge
O0 O 0.09155 0.195 0.25994 0.0
Cd1 Cd 0.08851 0.15168 0.28737 0.0
Cd2 Cd 0.11593 0.18867 0.33487 0.0
O3 O 0.10096 0.22757 0.30345 0.0
O4 O 0.05038 0.12447 0.27032 0.0
O5 O 0.05078 0.14873 0.32019 0.0
C6 C 0.03477 0.13196 0.29761 0.0
C7 C 0.11362 0.19427 0.39311 0.0
C8 C 0.09561 0.22403 0.27224 0.0
C9 C 0.15856 0.13613 0.29974 0.0
O10 O 0.15704 0.16146 0.31893 0.0
O11 O 0.13209 0.12431 0.28673 0.0
O12 O 0.13438 0.21128 0.37533 0.0
O13 O 0.09274 0.17496 0.37783 0.0
O14 O 0.41249 0.81739 0.75378 0.0
Cd15 Cd 0.41704 0.85924 0.78365 0.0
Cd16 Cd 0.39167 0.81926 0.82935 0.0
O17 O 0.40777 0.78247 0.79614 0.0
O18 O 0.45469 0.887 0.7663 0.0
O19 O 0.45623 0.85978 0.81466 0.0
C20 C 0.47131 0.87784 0.79244 0.0
C21 C 0.39689 0.81306 0.88732 0.0
C22 C 0.41119 0.78763 0.76491 0.0
C23 C 0.34815 0.87545 0.80274 0.0
O24 O 0.3497 0.84665 0.81613 0.0
O25 O 0.37451 0.88778 0.78995 0.0
O26 O 0.37613 0.79527 0.87028 0.0
O27 O 0.41629 0.83333 0.8713 0.0
O28 O 0.59504 0.32775 0.75191 0.0
Cd29 Cd 0.5897 0.36868 0.72112 0.0
Cd30 Cd 0.62086 0.32879 0.67884 0.0
O31 O 0.60945 0.29143 0.71292 0.0
O32 O 0.54812 0.39258 0.73507 0.0
O33 O 0.55422 0.36711 0.68606 0.0
C34 C 0.5353 0.38289 0.70703 0.0
C35 C 0.6178 0.32036 0.62107 0.0
C36 C 0.60172 0.29798 0.74307 0.0
C37 C 0.65901 0.3884 0.70732 0.0
O38 O 0.65949 0.36001 0.69297 0.0
O39 O 0.63141 0.39929 0.71885 0.0
O40 O 0.63999 0.3055 0.63906 0.0
O41 O 0.59598 0.33888 0.63601 0.0
O42 O 0.93026 0.71018 0.24487 0.0
Cd43 Cd 0.93191 0.66336 0.22346 0.0
Cd44 Cd 0.89382 0.69074 0.17695 0.0
O45 O 0.90219 0.7339 0.20409 0.0
O46 O 0.9747 0.64191 0.23725 0.0
O47 O 0.96229 0.65506 0.18468 0.0
C48 C 0.98359 0.64377 0.20625 0.0
C49 C 0.89362 0.69526 0.11851 0.0
C50 C 0.91656 0.73598 0.23233 0.0
C51 C 0.8624 0.63902 0.22234 0.0
O52 O 0.8587 0.65967 0.19847 0.0
O53 O 0.89103 0.63418 0.23525 0.0
O54 O 0.86964 0.70695 0.13651 0.0
O55 O 0.9182 0.68084 0.13364 0.0
O56 O 0.26318 0.08646 0.20161 0.0
Cd57 Cd 0.28852 0.08145 0.15704 0.0
Cd58 Cd 0.33425 0.11543 0.18983 0.0
O59 O 0.30649 0.10242 0.23158 0.0
O60 O 0.27354 0.03932 0.13481 0.0
O61 O 0.32547 0.04803 0.1526 0.0
C62 C 0.30355 0.02824 0.13937 0.0
C63 C 0.3928 0.11546 0.19327 0.0
C64 C 0.27565 0.09505 0.22952 0.0
C65 C 0.2925 0.15121 0.13713 0.0
O66 O 0.31237 0.15327 0.16189 0.0
O67 O 0.28241 0.12281 0.12694 0.0
O68 O 0.37496 0.13725 0.20888 0.0
O69 O 0.3775 0.09311 0.1757 0.0
O70 O 0.24892 0.91676 0.69755 0.0
Cd71 Cd 0.22301 0.92141 0.65347 0.0
Cd72 Cd 0.1768 0.88809 0.68636 0.0
O73 O 0.20577 0.90033 0.72769 0.0
O74 O 0.24108 0.96103 0.6292 0.0
O75 O 0.18961 0.9587 0.64964 0.0
C76 C 0.21293 0.97575 0.63505 0.0
C77 C 0.11832 0.88945 0.69103 0.0
C78 C 0.23652 0.9083 0.72554 0.0
C79 C 0.21721 0.8516 0.63347 0.0
O80 O 0.19665 0.84984 0.65765 0.0
O81 O 0.22826 0.87978 0.62381 0.0
O82 O 0.13596 0.86643 0.70502 0.0
O83 O 0.13394 0.9125 0.67465 0.0
O84 O 0.755 0.42018 0.81985 0.0
Cd85 Cd 0.78081 0.42275 0.86407 0.0
Cd86 Cd 0.82972 0.39432 0.82877 0.0
O87 O 0.79865 0.40699 0.78887 0.0
O88 O 0.76671 0.46396 0.88826 0.0
O89 O 0.81779 0.45597 0.86765 0.0
C90 C 0.79628 0.47545 0.88201 0.0
C91 C 0.88792 0.39681 0.82063 0.0
C92 C 0.76771 0.41412 0.7914 0.0
C93 C 0.79261 0.35327 0.88187 0.0
O94 O 0.81385 0.35462 0.85821 0.0
O95 O 0.77774 0.37961 0.89168 0.0
O96 O 0.86982 0.37386 0.80717 0.0
O97 O 0.87291 0.41931 0.83825 0.0
O98 O 0.75541 0.5977 0.33305 0.0
Cd99 Cd 0.72225 0.5909 0.37184 0.0
Cd100 Cd 0.68041 0.6196 0.33019 0.0
O101 O 0.71761 0.61127 0.29511 0.0
O102 O 0.7368 0.55127 0.39831 0.0
O103 O 0.69024 0.55269 0.36808 0.0
C104 C 0.71082 0.536 0.38662 0.0
C105 C 0.6237 0.61271 0.31727 0.0
C106 C 0.74775 0.60483 0.30307 0.0
C107 C 0.70321 0.65915 0.39106 0.0
O108 O 0.68968 0.65885 0.36233 0.0
O109 O 0.71617 0.63231 0.40216 0.0
O110 O 0.641 0.63706 0.30518 0.0
O111 O 0.63905 0.59089 0.33544 0.0
O112 O 0.18085 0.25813 0.09835 0.0
Cd113 Cd 0.14151 0.29096 0.09266 0.0
Cd114 Cd 0.18244 0.33162 0.12342 0.0
O115 O 0.21852 0.29608 0.11212 0.0
O116 O 0.11461 0.27609 0.05335 0.0
O117 O 0.14421 0.323 0.05417 0.0
C118 C 0.12576 0.30211 0.03776 0.0
C119 C 0.19131 0.38916 0.11784 0.0
C120 C 0.21094 0.26603 0.10483 0.0
C121 C 0.12253 0.3061 0.16221 0.0
O122 O 0.15155 0.31905 0.16282 0.0
O123 O 0.11121 0.29533 0.13449 0.0
O124 O 0.20656 0.3719 0.14038 0.0
O125 O 0.17215 0.37353 0.09708 0.0
O126 O 0.6915 0.24915 0.92438 0.0
Cd127 Cd 0.64756 0.22284 0.92862 0.0
Cd128 Cd 0.68241 0.17725 0.89839 0.0
O129 O 0.72321 0.20531 0.91388 0.0
O130 O 0.62237 0.24035 0.96784 0.0
O131 O 0.6445 0.18947 0.96572 0.0
C132 C 0.62919 0.21243 0.98263 0.0
C133 C 0.68316 0.11878 0.89967 0.0
C134 C 0.72019 0.23654 0.91922 0.0
C135 C 0.63158 0.21673 0.85842 0.0
O136 O 0.65747 0.19826 0.85824 0.0
O137 O 0.61881 0.22604 0.88599 0.0
O138 O 0.70133 0.13544 0.87894 0.0
O139 O 0.66505 0.13524 0.92074 0.0
O140 O 0.81281 0.75683 0.41563 0.0
Cd141 Cd 0.8563 0.78368 0.41786 0.0
Cd142 Cd 0.81974 0.83308 0.3929 0.0
O143 O 0.78086 0.8008 0.40617 0.0
O144 O 0.88355 0.76685 0.45584 0.0
O145 O 0.85914 0.81679 0.4551 0.0
C146 C 0.87573 0.79418 0.47127 0.0
C147 C 0.81242 0.89099 0.39884 0.0
C148 C 0.78399 0.7696 0.41191 0.0
C149 C 0.87268 0.80022 0.34872 0.0
O150 O 0.84836 0.82051 0.3515 0.0
O151 O 0.88302 0.78415 0.37408 0.0
O152 O 0.79735 0.87419 0.37589 0.0
O153 O 0.83074 0.87464 0.4198 0.0
O154 O 0.3286 0.74638 0.58985 0.0
Cd155 Cd 0.36967 0.71571 0.58491 0.0
Cd156 Cd 0.33131 0.67349 0.61822 0.0
O157 O 0.2939 0.70829 0.60981 0.0
O158 O 0.39607 0.73238 0.54598 0.0
O159 O 0.36976 0.68361 0.54626 0.0
C160 C 0.38696 0.70576 0.53013 0.0
C161 C 0.32165 0.61591 0.61278 0.0
C162 C 0.29957 0.73791 0.59964 0.0
C163 C 0.39109 0.70297 0.65463 0.0
O164 O 0.36376 0.6868 0.65598 0.0
O165 O 0.40032 0.71512 0.62672 0.0
O166 O 0.30911 0.63295 0.63708 0.0
O167 O 0.33871 0.63181 0.59043 0.0
O168 O 0.91482 0.81085 0.74276 0.0
Cd169 Cd 0.92019 0.85312 0.71371 0.0
Cd170 Cd 0.88431 0.81802 0.67213 0.0
O171 O 0.89458 0.77802 0.70331 0.0
O172 O 0.95938 0.87801 0.73194 0.0
O173 O 0.95878 0.8551 0.68154 0.0
C174 C 0.97505 0.87076 0.70468 0.0
C175 C 0.88884 0.81185 0.61423 0.0
C176 C 0.90424 0.78242 0.73328 0.0
C177 C 0.85028 0.87505 0.70794 0.0
O178 O 0.84689 0.84871 0.69049 0.0
O179 O 0.87928 0.88461 0.71684 0.0
O180 O 0.86447 0.79879 0.6308 0.0
O181 O 0.91132 0.82824 0.63067 0.0
O182 O 0.59447 0.18705 0.25831 0.0
Cd183 Cd 0.58919 0.14462 0.22943 0.0
Cd184 Cd 0.61792 0.18219 0.18294 0.0
O185 O 0.60579 0.22046 0.21597 0.0
O186 O 0.54688 0.1214 0.24227 0.0
O187 O 0.55512 0.1458 0.19304 0.0
C188 C 0.53533 0.1304 0.21346 0.0
C189 C 0.61373 0.19201 0.12524 0.0
C190 C 0.59974 0.21627 0.24692 0.0
C191 C 0.65703 0.12306 0.21233 0.0
O192 O 0.65677 0.1504 0.19607 0.0
O193 O 0.63042 0.11373 0.22703 0.0
O194 O 0.63737 0.20485 0.14293 0.0
O195 O 0.59143 0.17435 0.14049 0.0
O196 O 0.4255 0.69113 0.25453 0.0
Cd197 Cd 0.42846 0.64805 0.28231 0.0
Cd198 Cd 0.39963 0.68508 0.32822 0.0
O199 O 0.41446 0.72421 0.29724 0.0
O200 O 0.46709 0.62124 0.26585 0.0
O201 O 0.46526 0.64506 0.31596 0.0
C202 C 0.48188 0.62857 0.29362 0.0
C203 C 0.40287 0.69078 0.3866 0.0
C204 C 0.42049 0.72025 0.26622 0.0
C205 C 0.35825 0.63294 0.29143 0.0
O206 O 0.35894 0.65849 0.31038 0.0
O207 O 0.38526 0.6204 0.2804 0.0
O208 O 0.38073 0.70642 0.36922 0.0
O209 O 0.42415 0.67237 0.37074 0.0
O210 O 0.08913 0.316 0.7633 0.0
Cd211 Cd 0.08451 0.35944 0.79049 0.0
Cd212 Cd 0.11604 0.32443 0.83586 0.0
O213 O 0.10315 0.28402 0.80592 0.0
O214 O 0.04719 0.36234 0.82381 0.0
O215 O 0.04528 0.38477 0.77314 0.0
C216 C 0.03041 0.37798 0.801 0.0
C217 C 0.113 0.31913 0.89424 0.0
C218 C 0.09644 0.28739 0.77502 0.0
C219 C 0.15455 0.37752 0.79738 0.0
O220 O 0.1554 0.35215 0.81658 0.0
O221 O 0.1267 0.38882 0.78709 0.0
O222 O 0.13592 0.30443 0.87705 0.0
O223 O 0.09113 0.33671 0.87827 0.0
O224 O 0.74043 0.9273 0.81426 0.0
Cd225 Cd 0.71261 0.92532 0.8573 0.0
Cd226 Cd 0.67114 0.88881 0.82116 0.0
O227 O 0.708 0.89382 0.78467 0.0
O228 O 0.7258 0.96574 0.88342 0.0
O229 O 0.67467 0.95737 0.86346 0.0
C230 C 0.69592 0.9768 0.87818 0.0
C231 C 0.614 0.89437 0.80975 0.0
C232 C 0.73487 0.91064 0.78782 0.0
C233 C 0.70578 0.85398 0.87773 0.0
O234 O 0.68263 0.85279 0.85603 0.0
O235 O 0.7207 0.88144 0.88389 0.0
O236 O 0.63099 0.86924 0.79885 0.0
O237 O 0.62981 0.91759 0.82567 0.0
O238 O 0.75986 0.09033 0.3178 0.0
Cd239 Cd 0.78858 0.08747 0.36026 0.0
Cd240 Cd 0.83361 0.11582 0.32175 0.0
O241 O 0.80187 0.10035 0.28354 0.0
O242 O 0.77081 0.0502 0.38809 0.0
O243 O 0.82058 0.0491 0.36362 0.0
C244 C 0.79769 0.03388 0.3807 0.0
C245 C 0.89188 0.11289 0.31481 0.0
C246 C 0.7709 0.09467 0.28834 0.0
C247 C 0.79816 0.15782 0.37431 0.0
O248 O 0.81622 0.15686 0.34816 0.0
O249 O 0.78772 0.13091 0.38757 0.0
O250 O 0.87399 0.13478 0.29939 0.0
O251 O 0.87655 0.0916 0.33366 0.0
O252 O 0.25448 0.59328 0.18148 0.0
Cd253 Cd 0.22598 0.58695 0.13912 0.0
Cd254 Cd 0.18191 0.62009 0.1753 0.0
O255 O 0.21347 0.60921 0.2148 0.0
O256 O 0.23963 0.54399 0.11765 0.0
O257 O 0.18954 0.55281 0.14011 0.0
C258 C 0.21061 0.53257 0.12617 0.0
C259 C 0.12392 0.62005 0.18286 0.0
C260 C 0.24393 0.60124 0.21034 0.0
C261 C 0.21517 0.65565 0.11628 0.0
O262 O 0.19881 0.65721 0.1435 0.0
O263 O 0.22688 0.62752 0.10706 0.0
O264 O 0.14266 0.6424 0.19646 0.0
O265 O 0.13806 0.59664 0.16571 0.0
O266 O 0.26033 0.4134 0.68487 0.0
Cd267 Cd 0.29194 0.41834 0.64442 0.0
Cd268 Cd 0.33383 0.38902 0.68527 0.0
O269 O 0.29938 0.4015 0.72199 0.0
O270 O 0.27627 0.45706 0.61705 0.0
O271 O 0.32398 0.45687 0.64534 0.0
C272 C 0.30259 0.47288 0.62711 0.0
C273 C 0.39161 0.3941 0.69245 0.0
C274 C 0.26907 0.40814 0.71495 0.0
C275 C 0.30723 0.3484 0.62707 0.0
O276 O 0.32049 0.34868 0.65593 0.0
O277 O 0.29616 0.37574 0.61511 0.0
O278 O 0.37445 0.37235 0.70891 0.0
O279 O 0.37577 0.41454 0.67311 0.0
O280 O 0.81232 0.75037 0.91819 0.0
Cd281 Cd 0.85483 0.72184 0.92242 0.0
Cd282 Cd 0.81675 0.67626 0.89607 0.0
O283 O 0.77818 0.70762 0.91142 0.0
O284 O 0.88172 0.73897 0.96051 0.0
O285 O 0.857 0.68916 0.96016 0.0
C286 C 0.87391 0.71172 0.97606 0.0
C287 C 0.81217 0.61802 0.89922 0.0
C288 C 0.78288 0.73893 0.91494 0.0
C289 C 0.86884 0.71049 0.8526 0.0
O290 O 0.84225 0.69311 0.85428 0.0
O291 O 0.88253 0.72134 0.87913 0.0
O292 O 0.79436 0.63525 0.87866 0.0
O293 O 0.83183 0.63387 0.91933 0.0
O294 O 0.3298 0.75451 0.09082 0.0
Cd295 Cd 0.37163 0.78423 0.08545 0.0
Cd296 Cd 0.33292 0.82902 0.11494 0.0
O297 O 0.29536 0.79672 0.09897 0.0
O298 O 0.39516 0.77039 0.04361 0.0
O299 O 0.37001 0.81956 0.05013 0.0
C300 C 0.38559 0.79859 0.03101 0.0
C301 C 0.3244 0.887 0.11517 0.0
C302 C 0.30021 0.76563 0.09407 0.0
C303 C 0.39138 0.79908 0.15411 0.0
O304 O 0.36292 0.8133 0.15421 0.0
O305 O 0.40239 0.78713 0.12678 0.0
O306 O 0.30903 0.86763 0.13578 0.0
O307 O 0.34366 0.87348 0.09307 0.0
O308 O 0.19642 0.25128 0.59131 0.0
Cd309 Cd 0.15194 0.22578 0.58814 0.0
Cd310 Cd 0.18659 0.17692 0.61778 0.0
O311 O 0.22696 0.20787 0.60632 0.0
O312 O 0.1281 0.24044 0.54688 0.0
O313 O 0.14779 0.18897 0.55464 0.0
C314 C 0.1337 0.21076 0.5353 0.0
C315 C 0.19445 0.11856 0.61579 0.0
C316 C 0.22464 0.23873 0.59869 0.0
C317 C 0.1331 0.21481 0.65755 0.0
O318 O 0.15656 0.19331 0.65675 0.0
O319 O 0.12382 0.22953 0.63097 0.0
O320 O 0.20738 0.13673 0.63898 0.0
O321 O 0.17754 0.13359 0.59278 0.0
O322 O 0.68925 0.26159 0.41714 0.0
Cd323 Cd 0.64652 0.28951 0.42366 0.0
Cd324 Cd 0.68221 0.33511 0.39156 0.0
O325 O 0.72169 0.30257 0.39928 0.0
O326 O 0.62441 0.27421 0.46571 0.0
O327 O 0.64602 0.32498 0.45876 0.0
C328 C 0.63193 0.30315 0.47803 0.0
C329 C 0.6908 0.39288 0.3967 0.0
C330 C 0.71768 0.27217 0.40776 0.0
C331 C 0.6231 0.3027 0.35537 0.0
O332 O 0.64941 0.32053 0.35434 0.0
O333 O 0.61489 0.28897 0.38288 0.0
O334 O 0.70284 0.37615 0.37196 0.0
O335 O 0.67444 0.37672 0.41935 0.0
C336 C 0.07649 0.27713 0.1958 0.0
C337 C 0.1058 0.29718 0.19478 0.0
C338 C 0.12272 0.27676 0.24967 0.0
C339 C 0.09594 0.25331 0.24916 0.0
N340 N 0.04126 0.23921 0.2281 0.0
N341 N 0.14188 0.33052 0.2296 0.0
C342 C 0.07074 0.2561 0.22416 0.0
C343 C 0.12391 0.3019 0.22478 0.0
N344 N 0.05418 0.27862 0.17003 0.0
N345 N 0.14857 0.27377 0.27181 0.0
H346 H 0.14068 0.35046 0.21277 0.0
H347 H 0.15385 0.33605 0.2521 0.0
H348 H 0.15046 0.25476 0.28947 0.0
H349 H 0.17002 0.28855 0.27034 0.0
H350 H 0.03466 0.26174 0.16666 0.0
H351 H 0.05496 0.29774 0.15229 0.0
H352 H 0.02096 0.24135 0.21199 0.0
H353 H 0.03606 0.225 0.24937 0.0
C354 C 0.4378 0.75913 0.71535 0.0
C355 C 0.41291 0.75916 0.74084 0.0
C356 C 0.3903 0.7075 0.71719 0.0
C357 C 0.40729 0.71398 0.68684 0.0
N358 N 0.45569 0.73861 0.66087 0.0
N359 N 0.36345 0.73299 0.7646 0.0
C360 C 0.43396 0.73747 0.68715 0.0
C361 C 0.389 0.73283 0.74191 0.0
N362 N 0.46541 0.77901 0.71879 0.0
N363 N 0.37585 0.67704 0.72254 0.0
H364 H 0.35974 0.75192 0.78208 0.0
H365 H 0.34384 0.7158 0.76372 0.0
H366 H 0.37909 0.65721 0.70584 0.0
H367 H 0.36496 0.67038 0.74528 0.0
H368 H 0.48557 0.77892 0.70235 0.0
H369 H 0.46956 0.79363 0.74001 0.0
H370 H 0.4728 0.75785 0.65697 0.0
H371 H 0.45687 0.71946 0.64317 0.0
C372 C 0.58375 0.25347 0.7841 0.0
C373 C 0.60931 0.27339 0.76961 0.0
C374 C 0.64793 0.25746 0.81417 0.0
C375 C 0.62334 0.23549 0.82752 0.0
N376 N 0.56936 0.20918 0.82339 0.0
N377 N 0.66756 0.28914 0.76659 0.0
C378 C 0.59159 0.23248 0.81195 0.0
C379 C 0.64202 0.2735 0.7832 0.0
N380 N 0.55198 0.25526 0.77168 0.0
N381 N 0.67606 0.26495 0.83219 0.0
H382 H 0.66426 0.30211 0.74421 0.0
H383 H 0.69259 0.28671 0.77343 0.0
H384 H 0.68112 0.25502 0.85572 0.0
H385 H 0.69269 0.28386 0.82552 0.0
H386 H 0.53138 0.24418 0.78312 0.0
H387 H 0.54597 0.26945 0.75062 0.0
H388 H 0.547 0.20347 0.81136 0.0
H389 H 0.57447 0.19381 0.84385 0.0
C390 C 0.93346 0.77238 0.28091 0.0
C391 C 0.91086 0.76559 0.25443 0.0
C392 C 0.8645 0.78664 0.28755 0.0
C393 C 0.88645 0.79232 0.31504 0.0
N394 N 0.9432 0.80097 0.3337 0.0
N395 N 0.86049 0.78504 0.2274 0.0
C396 C 0.92152 0.78859 0.31038 0.0
C397 C 0.87833 0.77928 0.25589 0.0
N398 N 0.96608 0.76278 0.27792 0.0
N399 N 0.83059 0.78518 0.29174 0.0
H400 H 0.87122 0.78319 0.20371 0.0
H401 H 0.8371 0.79659 0.22763 0.0
H402 H 0.81874 0.78671 0.31485 0.0
H403 H 0.81446 0.7781 0.2725 0.0
H404 H 0.98307 0.76315 0.29763 0.0
H405 H 0.9757 0.75367 0.2554 0.0
H406 H 0.96904 0.80119 0.33057 0.0
H407 H 0.93508 0.81405 0.35478 0.0
C408 C 0.22871 0.0794 0.26832 0.0
C409 C 0.25215 0.10358 0.25705 0.0
C410 C 0.21497 0.14857 0.27511 0.0
C411 C 0.19178 0.12461 0.28755 0.0
N412 N 0.18029 0.06749 0.30313 0.0
N413 N 0.27234 0.16066 0.26111 0.0
C414 C 0.19985 0.09001 0.28646 0.0
C415 C 0.24709 0.13789 0.26472 0.0
N416 N 0.23378 0.04641 0.26101 0.0
N417 N 0.20557 0.18115 0.27013 0.0
H418 H 0.29648 0.15441 0.25382 0.0
H419 H 0.27031 0.18534 0.26932 0.0
H420 H 0.18134 0.18997 0.27382 0.0
H421 H 0.22074 0.19869 0.25822 0.0
H422 H 0.21585 0.02791 0.2649 0.0
H423 H 0.25575 0.03787 0.24975 0.0
H424 H 0.18641 0.04228 0.30563 0.0
H425 H 0.15946 0.07467 0.31711 0.0
C426 C 0.31214 0.92314 0.7806 0.0
C427 C 0.31466 0.89131 0.79616 0.0
C428 C 0.26033 0.87505 0.77398 0.0
C429 C 0.25935 0.90503 0.75474 0.0
N430 N 0.27777 0.9621 0.74869 0.0
N431 N 0.28158 0.84958 0.82446 0.0
C432 C 0.28322 0.93068 0.76103 0.0
C433 C 0.28553 0.87139 0.79852 0.0
N434 N 0.33711 0.94601 0.78492 0.0
N435 N 0.2394 0.84884 0.76741 0.0
H436 H 0.29809 0.84912 0.84466 0.0
H437 H 0.25964 0.83597 0.82821 0.0
H438 H 0.22149 0.84882 0.74857 0.0
H439 H 0.24216 0.82554 0.77883 0.0
H440 H 0.3393 0.96801 0.77118 0.0
H441 H 0.35556 0.94291 0.80312 0.0
H442 H 0.293 0.9826 0.75368 0.0
H443 H 0.25609 0.96832 0.73554 0.0
C444 C 0.74566 0.38664 0.73861 0.0
C445 C 0.74532 0.4138 0.76162 0.0
C446 C 0.69282 0.43403 0.7366 0.0
C447 C 0.69168 0.40458 0.71678 0.0
N448 N 0.72679 0.36779 0.6844 0.0
N449 N 0.72557 0.46949 0.7738 0.0
C450 C 0.72146 0.38588 0.71283 0.0
C451 C 0.72104 0.4396 0.7578 0.0
N452 N 0.76688 0.36013 0.74251 0.0
N453 N 0.66729 0.4566 0.73478 0.0
H454 H 0.74684 0.47458 0.78805 0.0
H455 H 0.71011 0.49018 0.77061 0.0
H456 H 0.64953 0.45575 0.71569 0.0
H457 H 0.66404 0.47623 0.75157 0.0
H458 H 0.76515 0.33859 0.72788 0.0
H459 H 0.78382 0.3578 0.7621 0.0
H460 H 0.7492 0.35532 0.67963 0.0
H461 H 0.7107 0.36944 0.6639 0.0
C462 C 0.82138 0.59556 0.2429 0.0
C463 C 0.83227 0.62929 0.24151 0.0
C464 C 0.78445 0.64688 0.27565 0.0
C465 C 0.77505 0.61286 0.27946 0.0
N466 N 0.7855 0.55432 0.26972 0.0
N467 N 0.82835 0.68616 0.26199 0.0
C468 C 0.79379 0.58699 0.2639 0.0
C469 C 0.81482 0.65476 0.25918 0.0
N470 N 0.83698 0.57203 0.22363 0.0
N471 N 0.76447 0.67181 0.28803 0.0
H472 H 0.85097 0.69315 0.25105 0.0
H473 H 0.81892 0.70456 0.27784 0.0
H474 H 0.74294 0.6674 0.30204 0.0
H475 H 0.76781 0.69702 0.28228 0.0
H476 H 0.82843 0.54758 0.2209 0.0
H477 H 0.85746 0.57768 0.20846 0.0
H478 H 0.80009 0.53413 0.26214 0.0
H479 H 0.76465 0.54741 0.28383 0.0
C480 C 0.25108 0.19517 0.15228 0.0
C481 C 0.2731 0.18146 0.12797 0.0
C482 C 0.25456 0.22375 0.08739 0.0
C483 C 0.23473 0.23881 0.11271 0.0
N484 N 0.21873 0.24276 0.17082 0.0
N485 N 0.2988 0.18413 0.07365 0.0
C486 C 0.2346 0.22579 0.14566 0.0
C487 C 0.27572 0.19616 0.09578 0.0
N488 N 0.2442 0.17784 0.181 0.0
N489 N 0.25258 0.23543 0.05535 0.0
H490 H 0.31417 0.16375 0.07913 0.0
H491 H 0.30429 0.19555 0.05091 0.0
H492 H 0.23818 0.25622 0.04888 0.0
H493 H 0.26364 0.22358 0.03498 0.0
H494 H 0.22514 0.18451 0.19745 0.0
H495 H 0.25494 0.15482 0.18685 0.0
H496 H 0.2212 0.2365 0.19599 0.0
H497 H 0.20537 0.26485 0.16705 0.0
C498 C 0.77663 0.31236 0.92734 0.0
C499 C 0.78005 0.32004 0.89285 0.0
C500 C 0.75788 0.26468 0.87858 0.0
C501 C 0.74819 0.25992 0.91234 0.0
N502 N 0.74832 0.27881 0.96943 0.0
N503 N 0.76643 0.30575 0.83542 0.0
C504 C 0.75787 0.28356 0.93699 0.0
C505 C 0.76919 0.29663 0.86832 0.0
N506 N 0.79158 0.33231 0.95069 0.0
N507 N 0.75515 0.23928 0.85585 0.0
H508 H 0.77105 0.32983 0.8266 0.0
H509 H 0.75547 0.29054 0.81732 0.0
H510 H 0.74675 0.2154 0.86186 0.0
H511 H 0.76485 0.24091 0.8317 0.0
H512 H 0.79239 0.32651 0.97606 0.0
H513 H 0.80582 0.35322 0.94422 0.0
H514 H 0.75102 0.29689 0.98798 0.0
H515 H 0.73637 0.25697 0.97736 0.0
C516 C 0.75246 0.7231 0.43994 0.0
C517 C 0.75433 0.74716 0.41374 0.0
C518 C 0.70492 0.72172 0.38845 0.0
C519 C 0.71078 0.69229 0.40717 0.0
N520 N 0.73096 0.66926 0.45887 0.0
N521 N 0.7312 0.76886 0.36185 0.0
C522 C 0.73153 0.69443 0.43583 0.0
C523 C 0.7297 0.74701 0.38808 0.0
N524 N 0.77026 0.72817 0.46867 0.0
N525 N 0.67572 0.72541 0.37122 0.0
H526 H 0.7496 0.78705 0.35911 0.0
H527 H 0.7156 0.76685 0.34105 0.0
H528 H 0.65633 0.70802 0.37334 0.0
H529 H 0.6693 0.74745 0.35884 0.0
H530 H 0.769 0.71269 0.48953 0.0
H531 H 0.78438 0.74978 0.47266 0.0
H532 H 0.74817 0.66682 0.47822 0.0
H533 H 0.71233 0.65096 0.45871 0.0
C534 C 0.25901 0.80797 0.64878 0.0
C535 C 0.23636 0.82112 0.62462 0.0
C536 C 0.25192 0.77654 0.5852 0.0
C537 C 0.27587 0.76483 0.60859 0.0
N538 N 0.30464 0.77009 0.6614 0.0
N539 N 0.2122 0.82009 0.56957 0.0
C540 C 0.2798 0.78053 0.64017 0.0
C541 C 0.23302 0.80596 0.5927 0.0
N542 N 0.26081 0.82189 0.68004 0.0
N543 N 0.24712 0.75918 0.55614 0.0
H544 H 0.19735 0.8409 0.57488 0.0
H545 H 0.21061 0.8124 0.54478 0.0
H546 H 0.26091 0.73784 0.55013 0.0
H547 H 0.22834 0.76446 0.53894 0.0
H548 H 0.27263 0.81058 0.70028 0.0
H549 H 0.24927 0.8443 0.68663 0.0
H550 H 0.31215 0.78316 0.6826 0.0
H551 H 0.31943 0.74905 0.65702 0.0
C552 C 0.85379 0.74418 0.80226 0.0
C553 C 0.87823 0.72537 0.81993 0.0
C554 C 0.92038 0.74119 0.77813 0.0
C555 C 0.8952 0.75782 0.75945 0.0
N556 N 0.83626 0.768 0.74976 0.0
N557 N 0.93343 0.7014 0.82229 0.0
C558 C 0.86134 0.75653 0.76999 0.0
C559 C 0.91121 0.72245 0.80712 0.0
N560 N 0.82432 0.75295 0.81736 0.0
N561 N 0.95305 0.7439 0.76849 0.0
H562 H 0.92727 0.6874 0.84344 0.0
H563 H 0.9569 0.6958 0.81249 0.0
H564 H 0.96018 0.75599 0.74647 0.0
H565 H 0.97303 0.73564 0.78298 0.0
H566 H 0.80736 0.76975 0.8069 0.0
H567 H 0.8184 0.74692 0.842 0.0
H568 H 0.81101 0.76404 0.75496 0.0
H569 H 0.84027 0.77891 0.72648 0.0
C570 C 0.57419 0.248 0.29511 0.0
C571 C 0.59974 0.24524 0.27042 0.0
C572 C 0.62525 0.29596 0.29304 0.0
C573 C 0.60711 0.2917 0.32312 0.0
N574 N 0.5571 0.27054 0.34902 0.0
N575 N 0.65221 0.26652 0.24813 0.0
C576 C 0.57907 0.26991 0.32292 0.0
C577 C 0.6257 0.26957 0.26948 0.0
N578 N 0.54503 0.23055 0.29128 0.0
N579 N 0.64154 0.32528 0.28671 0.0
H580 H 0.65554 0.2464 0.23196 0.0
H581 H 0.67291 0.28238 0.24924 0.0
H582 H 0.63867 0.3462 0.30208 0.0
H583 H 0.65353 0.33009 0.26404 0.0
H584 H 0.52447 0.23309 0.30703 0.0
H585 H 0.54017 0.21582 0.27029 0.0
H586 H 0.53875 0.25247 0.35294 0.0
H587 H 0.55731 0.28974 0.36672 0.0
C588 C 0.44437 0.7518 0.21738 0.0
C589 C 0.41931 0.74893 0.24251 0.0
C590 C 0.38981 0.79588 0.21684 0.0
C591 C 0.40798 0.79083 0.18691 0.0
N592 N 0.46004 0.77298 0.16248 0.0
N593 N 0.36588 0.7682 0.26447 0.0
C594 C 0.43787 0.77167 0.18839 0.0
C595 C 0.39173 0.77145 0.24235 0.0
N596 N 0.47441 0.73608 0.22178 0.0
N597 N 0.37133 0.82424 0.2212 0.0
H598 H 0.36447 0.7496 0.28259 0.0
H599 H 0.34399 0.78225 0.26251 0.0
H600 H 0.37233 0.84402 0.20419 0.0
H601 H 0.35927 0.8299 0.24362 0.0
H602 H 0.49464 0.73846 0.2056 0.0
H603 H 0.48011 0.72273 0.24348 0.0
H604 H 0.47999 0.75652 0.15954 0.0
H605 H 0.45867 0.79148 0.14412 0.0
C606 C 0.08793 0.23146 0.69863 0.0
C607 C 0.12232 0.22816 0.69052 0.0
C608 C 0.13734 0.25078 0.74545 0.0
C609 C 0.10351 0.26005 0.75086 0.0
N610 N 0.04608 0.25926 0.73291 0.0
N611 N 0.17981 0.24259 0.70359 0.0
C612 C 0.07857 0.25014 0.72759 0.0
C613 C 0.14712 0.2395 0.71337 0.0
N614 N 0.06439 0.21639 0.67898 0.0
N615 N 0.16058 0.25369 0.77034 0.0
H616 H 0.18819 0.23783 0.67939 0.0
H617 H 0.19807 0.25393 0.71833 0.0
H618 H 0.15513 0.26211 0.79432 0.0
H619 H 0.18476 0.24417 0.76818 0.0
H620 H 0.0391 0.2154 0.68511 0.0
H621 H 0.07066 0.20234 0.6579 0.0
H622 H 0.02727 0.25642 0.71514 0.0
H623 H 0.03831 0.27098 0.75492 0.0
C624 C 0.76736 0.91554 0.73366 0.0
C625 C 0.764 0.90231 0.76644 0.0
C626 C 0.81642 0.87111 0.75991 0.0
C627 C 0.82111 0.88607 0.72801 0.0
N628 N 0.80314 0.9239 0.68493 0.0
N629 N 0.78658 0.86993 0.81239 0.0
C630 C 0.79709 0.90868 0.71492 0.0
C631 C 0.78895 0.88088 0.78 0.0
N632 N 0.742 0.93432 0.72055 0.0
N633 N 0.83748 0.84623 0.77044 0.0
H634 H 0.76567 0.87361 0.82746 0.0
H635 H 0.8062 0.85868 0.82528 0.0
H636 H 0.85861 0.83876 0.75724 0.0
H637 H 0.83279 0.83098 0.79102 0.0
H638 H 0.74122 0.94249 0.69586 0.0
H639 H 0.72053 0.94032 0.73412 0.0
H640 H 0.78827 0.94274 0.67489 0.0
H641 H 0.82451 0.91891 0.67079 0.0
C642 C 0.71988 0.12386 0.21324 0.0
C643 C 0.6899 0.10619 0.21965 0.0
C644 C 0.72108 0.07045 0.25867 0.0
C645 C 0.74652 0.09533 0.26022 0.0
N646 N 0.76851 0.14801 0.23895 0.0
N647 N 0.66527 0.05507 0.23974 0.0
C648 C 0.74603 0.12231 0.237 0.0
C649 C 0.69158 0.07682 0.23955 0.0
N650 N 0.72364 0.14153 0.18431 0.0
N651 N 0.72562 0.04073 0.27497 0.0
H652 H 0.64614 0.05649 0.22205 0.0
H653 H 0.66264 0.03553 0.25673 0.0
H654 H 0.74765 0.03511 0.2878 0.0
H655 H 0.70916 0.02063 0.27351 0.0
H656 H 0.74604 0.15319 0.17774 0.0
H657 H 0.70613 0.14016 0.165 0.0
H658 H 0.76639 0.16955 0.22438 0.0
H659 H 0.78715 0.14972 0.25699 0.0
C660 C 0.31293 0.59188 0.27548 0.0
C661 C 0.32648 0.62468 0.27424 0.0
C662 C 0.2801 0.64291 0.23858 0.0
C663 C 0.26899 0.60932 0.23626 0.0
N664 N 0.27514 0.55116 0.25056 0.0
N665 N 0.32702 0.6795 0.24822 0.0
C666 C 0.28542 0.58355 0.25431 0.0
C667 C 0.31097 0.64984 0.2544 0.0
N668 N 0.32606 0.56903 0.29723 0.0
N669 N 0.26158 0.66828 0.22495 0.0
H670 H 0.35068 0.68537 0.25739 0.0
H671 H 0.3186 0.697 0.23085 0.0
H672 H 0.23951 0.66443 0.21165 0.0
H673 H 0.26657 0.69349 0.22939 0.0
H674 H 0.31555 0.5456 0.3016 0.0
H675 H 0.34618 0.57458 0.31288 0.0
H676 H 0.28817 0.5307 0.26003 0.0
H677 H 0.25417 0.54468 0.23642 0.0
C678 C 0.22985 0.36756 0.74056 0.0
C679 C 0.24256 0.40063 0.73964 0.0
C680 C 0.20001 0.41831 0.78039 0.0
C681 C 0.18533 0.38603 0.77846 0.0
N682 N 0.18182 0.33248 0.75032 0.0
N683 N 0.239 0.4584 0.75616 0.0
C684 C 0.19916 0.36125 0.757 0.0
C685 C 0.22749 0.42634 0.75895 0.0
N686 N 0.24704 0.34202 0.72554 0.0
N687 N 0.18803 0.4409 0.80305 0.0
H688 H 0.25974 0.46461 0.74157 0.0
H689 H 0.22709 0.47899 0.76677 0.0
H690 H 0.16781 0.43563 0.8187 0.0
H691 H 0.19941 0.46381 0.808 0.0
H692 H 0.24089 0.31688 0.72875 0.0
H693 H 0.26924 0.34554 0.7123 0.0
H694 H 0.18879 0.31559 0.73175 0.0
H695 H 0.15849 0.32704 0.76054 0.0
C696 C 0.74395 0.76677 0.87512 0.0
C697 C 0.75553 0.76319 0.90844 0.0
C698 C 0.72722 0.8158 0.92349 0.0
C699 C 0.72083 0.8219 0.88913 0.0
N700 N 0.73099 0.80594 0.83139 0.0
N701 N 0.75905 0.78432 0.96468 0.0
C702 C 0.73087 0.79797 0.8647 0.0
C703 C 0.74721 0.78768 0.93282 0.0
N704 N 0.74634 0.7409 0.85286 0.0
N705 N 0.71379 0.83653 0.9471 0.0
H706 H 0.77193 0.76303 0.97262 0.0
H707 H 0.75735 0.80307 0.98268 0.0
H708 H 0.69889 0.85704 0.94089 0.0
H709 H 0.71503 0.83185 0.97268 0.0
H710 H 0.73489 0.74141 0.82944 0.0
H711 H 0.75667 0.71773 0.85854 0.0
H712 H 0.74198 0.79082 0.81321 0.0
H713 H 0.72398 0.82916 0.82192 0.0
C714 C 0.2493 0.6879 0.07282 0.0
C715 C 0.22643 0.68775 0.10001 0.0
C716 C 0.24607 0.74267 0.1179 0.0
C717 C 0.27164 0.74163 0.09319 0.0
N718 N 0.28952 0.7197 0.0399 0.0
N719 N 0.19036 0.72395 0.13198 0.0
C720 C 0.27075 0.71617 0.06826 0.0
C721 C 0.2205 0.71821 0.11706 0.0
N722 N 0.25006 0.66147 0.05125 0.0
N723 N 0.24717 0.765 0.14375 0.0
H724 H 0.17022 0.70759 0.12896 0.0
H725 H 0.18423 0.7468 0.14301 0.0
H726 H 0.26649 0.78205 0.14738 0.0
H727 H 0.23043 0.76404 0.16374 0.0
H728 H 0.26902 0.65751 0.03386 0.0
H729 H 0.23094 0.64372 0.05051 0.0
H730 H 0.28847 0.70336 0.01968 0.0
H731 H 0.30396 0.74095 0.03523 0.0
C732 C 0.28031 0.3136 0.58071 0.0
C733 C 0.29842 0.31535 0.6112 0.0
C734 C 0.27564 0.26157 0.62878 0.0
C735 C 0.25427 0.26131 0.60032 0.0
N736 N 0.24508 0.28021 0.54384 0.0
N737 N 0.3286 0.28098 0.65045 0.0
C738 C 0.25946 0.28523 0.57444 0.0
C739 C 0.30126 0.28592 0.63067 0.0
N740 N 0.28346 0.33871 0.55781 0.0
N741 N 0.27026 0.24075 0.65534 0.0
H742 H 0.34921 0.297 0.64964 0.0
H743 H 0.33264 0.2588 0.66359 0.0
H744 H 0.2507 0.22366 0.65674 0.0
H745 H 0.28352 0.24296 0.67768 0.0
H746 H 0.26784 0.34158 0.53719 0.0
H747 H 0.30251 0.35649 0.55938 0.0
H748 H 0.24932 0.29537 0.52313 0.0
H749 H 0.23109 0.25885 0.53835 0.0
C750 C 0.76247 0.23103 0.4242 0.0
C751 C 0.74338 0.2471 0.39899 0.0
C752 C 0.76034 0.20481 0.35826 0.0
C753 C 0.78116 0.18964 0.38282 0.0
N754 N 0.80615 0.19076 0.43753 0.0
N755 N 0.72983 0.25384 0.34047 0.0
C756 C 0.7835 0.20354 0.41538 0.0
C757 C 0.74454 0.23566 0.36547 0.0
N758 N 0.75985 0.24162 0.45658 0.0
N759 N 0.75323 0.18844 0.329 0.0
H760 H 0.71647 0.27584 0.34459 0.0
H761 H 0.73339 0.24864 0.31518 0.0
H762 H 0.76239 0.1648 0.32299 0.0
H763 H 0.73517 0.19658 0.31208 0.0
H764 H 0.77013 0.22883 0.47679 0.0
H765 H 0.74583 0.26258 0.46338 0.0
H766 H 0.81132 0.20153 0.46066 0.0
H767 H 0.82174 0.17066 0.43161 0.0
C768 C 0.09461 0.20756 0.48596 0.0
C769 C 0.12714 0.2031 0.49955 0.0
C770 C 0.14765 0.1854 0.4446 0.0
C771 C 0.11661 0.19459 0.43011 0.0
N772 N 0.06105 0.21717 0.43627 0.0
N773 N 0.18619 0.1935 0.49036 0.0
C774 C 0.09004 0.20615 0.45061 0.0
C775 C 0.15407 0.19329 0.47857 0.0
N776 N 0.06802 0.21231 0.50689 0.0
N777 N 0.17081 0.16836 0.42605 0.0
H778 H 0.19251 0.20025 0.51472 0.0
H779 H 0.207 0.19023 0.47501 0.0
H780 H 0.16675 0.16141 0.40123 0.0
H781 H 0.19244 0.15804 0.43629 0.0
H782 H 0.04326 0.21247 0.4988 0.0
H783 H 0.07049 0.21301 0.53285 0.0
H784 H 0.04225 0.22939 0.44953 0.0
H785 H 0.05678 0.21631 0.41057 0.0
C786 C 0.36071 0.8117 0.97488 0.0
C787 C 0.3895 0.80518 0.99464 0.0
C788 C 0.42404 0.80375 0.94375 0.0
C789 C 0.39556 0.81251 0.92445 0.0
N790 N 0.33911 0.83391 0.92297 0.0
N791 N 0.44954 0.80162 0.99882 0.0
C792 C 0.36461 0.81927 0.94045 0.0
C793 C 0.42151 0.80317 0.97933 0.0
N794 N 0.3294 0.80872 0.98835 0.0
N795 N 0.45303 0.79458 0.92814 0.0
H796 H 0.44858 0.80169 0.02488 0.0
H797 H 0.47372 0.80343 0.98929 0.0
H798 H 0.45578 0.79465 0.90222 0.0
H799 H 0.47344 0.7844 0.94071 0.0
H800 H 0.30765 0.80957 0.97402 0.0
H801 H 0.32499 0.80196 0.01312 0.0
H802 H 0.31724 0.84249 0.93426 0.0
H803 H 0.34124 0.84084 0.89791 0.0
C804 C 0.5953 0.3056 0.52928 0.0
C805 C 0.62719 0.30996 0.51422 0.0
C806 C 0.6502 0.32754 0.56817 0.0
C807 C 0.61976 0.31858 0.58406 0.0
N808 N 0.56422 0.29529 0.58037 0.0
N809 N 0.68672 0.31858 0.52094 0.0
C810 C 0.59239 0.30676 0.56478 0.0
C811 C 0.65512 0.31934 0.53404 0.0
N812 N 0.56767 0.30132 0.50963 0.0
N813 N 0.67413 0.34488 0.5854 0.0
H814 H 0.69195 0.31138 0.49645 0.0
H815 H 0.70816 0.32169 0.53544 0.0
H816 H 0.67111 0.35242 0.61019 0.0
H817 H 0.69533 0.35495 0.57404 0.0
H818 H 0.54335 0.30134 0.51897 0.0
H819 H 0.56881 0.30097 0.48358 0.0
H820 H 0.54495 0.28301 0.56785 0.0
H821 H 0.56125 0.29554 0.60627 0.0
C822 C 0.88423 0.73145 0.06853 0.0
C823 C 0.89283 0.69964 0.08163 0.0
C824 C 0.89573 0.6775 0.02444 0.0
C825 C 0.88168 0.70775 0.01217 0.0
N826 N 0.85495 0.76072 0.02477 0.0
N827 N 0.90168 0.64052 0.07199 0.0
C828 C 0.87397 0.73409 0.03476 0.0
C829 C 0.89746 0.6721 0.0596 0.0
N830 N 0.88653 0.7594 0.0881 0.0
N831 N 0.90824 0.65432 1.00266 0.0
H832 H 0.90212 0.63514 0.09747 0.0
H833 H 0.90157 0.61923 0.05694 0.0
H834 H 0.90835 0.65785 0.97682 0.0
H835 H 0.9216 0.63331 0.01039 0.0
H836 H 0.88336 0.78353 0.0787 0.0
H837 H 0.89542 0.75877 0.11261 0.0
H838 H 0.84613 0.77878 0.04139 0.0
H839 H 0.84455 0.76278 1.00098 0.0
C840 C 0.4456 0.14832 0.18689 0.0
C841 C 0.42988 0.11747 0.19465 0.0
C842 C 0.48473 0.09324 0.2079 0.0
C843 C 0.49945 0.12547 0.20516 0.0
N844 N 0.4921 0.18519 0.19813 0.0
N845 N 0.43393 0.06133 0.21668 0.0
C846 C 0.47949 0.15343 0.19607 0.0
C847 C 0.4493 0.08996 0.20603 0.0
N848 N 0.42839 0.17255 0.16997 0.0
N849 N 0.50464 0.06567 0.21143 0.0
H850 H 0.40809 0.05801 0.21618 0.0
H851 H 0.44659 0.04197 0.22868 0.0
H852 H 0.53067 0.0671 0.21221 0.0
H853 H 0.49556 0.04126 0.21024 0.0
H854 H 0.43966 0.1942 0.1608 0.0
H855 H 0.40379 0.16936 0.16188 0.0
H856 H 0.47739 0.20652 0.19524 0.0
H857 H 0.5163 0.19054 0.20618 0.0
C858 C 0.03345 0.87092 0.72819 0.0
C859 C 0.01142 0.87807 0.70124 0.0
C860 C 0.05981 0.89274 0.66636 0.0
C861 C 0.08123 0.889 0.69452 0.0
N862 N 0.08592 0.8848 0.75459 0.0
N863 N 1.00343 0.90398 0.64725 0.0
C864 C 0.06723 0.88139 0.72619 0.0
C865 C 0.02451 0.8915 0.67105 0.0
N866 N 0.02301 0.85222 0.75485 0.0
N867 N 0.07284 0.89556 0.6349 0.0
H868 H 0.97755 0.90478 0.65029 0.0
H869 H 0.0119 0.91684 0.62621 0.0
H870 H 0.09839 0.89522 0.6299 0.0
H871 H 0.05812 0.89484 0.61341 0.0
H872 H 0.03929 0.844 0.77349 0.0
H873 H 0.99937 0.84136 0.75637 0.0
H874 H 0.0758 0.88223 0.77849 0.0
H875 H 0.1103 0.89409 0.7544 0.0
C876 C 0.98251 0.39925 0.8364 0.0
C877 C 0.99428 0.38584 0.80568 0.0
C878 C 0.93745 0.38938 0.78316 0.0
C879 C 0.92482 0.39672 0.81546 0.0
N880 N 0.93588 0.40283 0.87472 0.0
N881 N 0.98033 0.3603 0.75245 0.0
C882 C 0.94746 0.40035 0.84267 0.0
C883 C 0.97111 0.3789 0.77963 0.0
N884 N 1.00458 0.41178 0.85927 0.0
N885 N 0.91754 0.39296 0.75563 0.0
H886 H 1.00382 0.34935 0.74985 0.0
H887 H 0.96324 0.35223 0.73448 0.0
H888 H 0.89319 0.40224 0.75698 0.0
H889 H 0.9266 0.39056 0.73129 0.0
H890 H 0.99701 0.42457 0.88069 0.0
H891 H 0.0303 0.41274 0.85503 0.0
H892 H 0.9516 0.40202 0.89549 0.0
H893 H 0.91061 0.40225 0.88092 0.0
C894 C 0.52886 0.60722 0.32984 0.0
C895 C 0.51783 0.62041 0.29879 0.0
C896 C 0.5754 0.61792 0.27799 0.0
C897 C 0.5871 0.61102 0.31071 0.0
N898 N 0.57425 0.60453 0.36961 0.0
N899 N 0.53275 0.64548 0.24559 0.0
C900 C 0.56369 0.60678 0.33719 0.0
C901 C 0.54159 0.62748 0.27329 0.0
N902 N 0.50626 0.59447 0.35207 0.0
N903 N 0.59646 0.61501 0.25124 0.0
H904 H 0.50902 0.6556 0.24199 0.0
H905 H 0.55016 0.65382 0.22806 0.0
H906 H 0.62109 0.60672 0.25359 0.0
H907 H 0.58828 0.61703 0.22657 0.0
H908 H 0.51332 0.58179 0.37372 0.0
H909 H 0.48069 0.59327 0.34706 0.0
H910 H 0.55784 0.60503 0.38986 0.0
H911 H 0.59927 0.60554 0.37669 0.0
C912 C 0.20477 0.4444 0.08997 0.0
C913 C 0.19343 0.42627 0.11831 0.0
C914 C 0.19399 0.47766 0.15174 0.0
C915 C 0.20299 0.49633 0.12289 0.0
N916 N 0.21031 0.49859 0.06309 0.0
N917 N 0.16833 0.42729 0.17323 0.0
C918 C 0.20642 0.48001 0.09151 0.0
C919 C 0.1853 0.44342 0.1483 0.0
N920 N 0.21536 0.42763 0.06213 0.0
N921 N 0.1956 0.4919 0.18281 0.0
H922 H 0.16048 0.40246 0.17132 0.0
H923 H 0.15884 0.43956 0.19418 0.0
H924 H 0.20319 0.5165 0.18697 0.0
H925 H 0.1928 0.47823 0.20482 0.0
H926 H 0.2273 0.43928 0.04213 0.0
H927 H 0.21473 0.40162 0.06014 0.0
H928 H 0.20964 0.48836 0.03915 0.0
H929 H 0.21102 0.52468 0.06328 0.0
C930 C 0.6929 0.02542 0.91805 0.0
C931 C 0.68771 0.0123 0.88546 0.0
C932 C 0.67081 0.0679 0.86593 0.0
C933 C 0.68124 0.08183 0.89679 0.0
N934 N 0.70434 0.07451 0.95197 0.0
N935 N 0.67684 0.02239 0.82673 0.0
C936 C 0.69252 0.06076 0.92301 0.0
C937 C 0.67764 0.03378 0.85899 0.0
N938 N 0.69754 1.00404 0.94431 0.0
N939 N 0.65387 0.08723 0.84337 0.0
H940 H 0.68286 0.99798 0.81988 0.0
H941 H 0.6734 0.03809 0.80622 0.0
H942 H 0.64792 0.11226 0.84786 0.0
H943 H 0.64268 0.07754 0.82193 0.0
H944 H 0.69833 0.01183 0.96915 0.0
H945 H 0.69745 0.97809 0.9415 0.0
H946 H 0.71644 0.06072 0.97046 0.0
H947 H 0.70415 0.10019 0.95657 0.0
C948 C 0.77373 0.97559 0.38383 0.0
C949 C 0.801 0.99778 0.38931 0.0
C950 C 0.83677 0.94968 0.40261 0.0
C951 C 0.80859 0.92804 0.4001 0.0
N952 N 0.74845 0.92292 0.39922 0.0
N953 N 0.85591 0.00625 0.41298 0.0
C954 C 0.77647 0.94187 0.39435 0.0
C955 C 0.83175 0.98494 0.4016 0.0
N956 N 0.7461 0.98569 0.3664 0.0
N957 N 0.86847 0.93698 0.4038 0.0
H958 H 0.85264 0.03213 0.41386 0.0
H959 H 0.87754 0.99798 0.42495 0.0
H960 H 0.87379 0.9115 0.40316 0.0
H961 H 0.88973 0.95197 0.40205 0.0
H962 H 0.72714 0.96921 0.35935 0.0
H963 H 0.74387 0.00916 0.35532 0.0
H964 H 0.72436 0.93285 0.39797 0.0
H965 H 0.74941 0.89849 0.40838 0.0
C966 C 0.28025 0.53187 0.62604 0.0
C967 C 0.30697 0.50919 0.61994 0.0
C968 C 0.34411 0.55671 0.60822 0.0
C969 C 0.31656 0.57902 0.61145 0.0
N970 N 0.2567 0.5862 0.61372 0.0
N971 N 0.36202 0.49987 0.59698 0.0
C972 C 0.28407 0.56604 0.61722 0.0
C973 C 0.33822 0.52156 0.60844 0.0
N974 N 0.25201 0.52155 0.64235 0.0
N975 N 0.37608 0.56874 0.60696 0.0
H976 H 0.35823 0.47408 0.59579 0.0
H977 H 0.38398 0.50777 0.58537 0.0
H978 H 0.3819 0.59412 0.60788 0.0
H979 H 0.39706 0.55332 0.60828 0.0
H980 H 0.23342 0.53807 0.65021 0.0
H981 H 0.24875 0.49738 0.65155 0.0
H982 H 0.23226 0.57714 0.61469 0.0
H983 H 0.25842 0.6111 0.60606 0.0
C984 C 0.87522 0.77168 0.53004 0.0
C985 C 0.88282 0.79817 0.50755 0.0
C986 C 0.89532 0.83466 0.55532 0.0
C987 C 0.89066 0.80714 0.57739 0.0
N988 N 0.88686 0.7472 0.58397 0.0
N989 N 0.90828 0.85225 0.49879 0.0
C990 C 0.88411 0.77491 0.56414 0.0
C991 C 0.89546 0.82889 0.52018 0.0
N992 N 0.85737 0.74439 0.51969 0.0
N993 N 0.89763 0.86652 0.56752 0.0
H994 H 0.90984 0.84842 0.47304 0.0
H995 H 0.92059 0.87374 0.50696 0.0
H996 H 0.8965 0.87224 0.59289 0.0
H997 H 0.89746 0.88761 0.55219 0.0
H998 H 0.84867 0.72616 0.5362 0.0
H999 H 0.84765 0.74181 0.49568 0.0
H1000 H 0.8851 0.72291 0.57459 0.0
H1001 H 0.89478 0.7484 0.60879 0.0
C1002 C 0.62971 0.23368 0.04199 0.0
C1003 C 0.62189 0.20782 0.01884 0.0
C1004 C 0.60843 0.17055 0.0657 0.0
C1005 C 0.61295 0.19757 0.08844 0.0
N1006 N 0.61757 0.25733 0.0962 0.0
N1007 N 0.5952 0.15453 0.00883 0.0
C1008 C 0.62023 0.22995 0.07591 0.0
C1009 C 0.60853 0.17712 0.03072 0.0
N1010 N 0.64823 0.26081 0.03244 0.0
N1011 N 0.60612 0.13838 0.07704 0.0
H1012 H 0.59357 0.15901 0.9832 0.0
H1013 H 0.58244 0.13313 0.01658 0.0
H1014 H 0.60756 0.13191 0.10221 0.0
H1015 H 0.60628 0.11774 0.06111 0.0
H1016 H 0.65696 0.27857 0.04942 0.0
H1017 H 0.65844 0.26357 0.00864 0.0
H1018 H 0.61992 0.28175 0.08731 0.0
H1019 H 0.60912 0.25583 0.12084 0.0
C1020 C 0.39837 0.7266 0.43776 0.0
C1021 C 0.4033 0.6944 0.4237 0.0
C1022 C 0.40489 0.67086 0.48045 0.0
C1023 C 0.39394 0.70199 0.49369 0.0
N1024 N 0.37221 0.75751 0.48235 0.0
N1025 N 0.4053 0.63439 0.4322 0.0
C1026 C 0.38863 0.72944 0.47171 0.0
C1027 C 0.40519 0.66604 0.44515 0.0
N1028 N 0.40363 0.75465 0.41894 0.0
N1029 N 0.41587 0.64619 0.50138 0.0
H1030 H 0.40406 0.62935 0.4067 0.0
H1031 H 0.40317 0.61305 0.44702 0.0
H1032 H 0.41733 0.64922 0.52723 0.0
H1033 H 0.42698 0.62421 0.49276 0.0
H1034 H 0.40309 0.77871 0.42902 0.0
H1035 H 0.41243 0.75369 0.3944 0.0
H1036 H 0.36522 0.77672 0.46615 0.0
H1037 H 0.36186 0.75992 0.50612 0.0
C1038 C 0.12503 0.27913 0.97912 0.0
C1039 C 0.11971 0.30645 1.00127 0.0
C1040 C 0.11 0.34316 0.95296 0.0
C1041 C 0.11207 0.31503 0.93125 0.0
N1042 N 0.11154 0.25488 0.92549 0.0
N1043 N 0.09914 0.36269 0.0093 0.0
C1044 C 0.1164 0.28258 0.94493 0.0
C1045 C 0.10974 0.33797 0.98821 0.0
N1046 N 0.14038 0.25056 0.98999 0.0
N1047 N 0.11016 0.3749 0.94025 0.0
H1048 H 0.09753 0.35948 0.03513 0.0
H1049 H 0.08862 0.38501 1.00087 0.0
H1050 H 0.11149 0.38007 0.91477 0.0
H1051 H 0.11228 0.39615 0.95521 0.0
H1052 H 0.14759 0.23139 0.97383 0.0
H1053 H 0.14958 0.24753 0.01416 0.0
H1054 H 0.11148 0.23065 0.93516 0.0
H1055 H 0.10369 0.25628 0.90065 0.0
C1056 C 0.5641 0.88831 0.77252 0.0
C1057 C 0.57716 0.89541 0.80469 0.0
C1058 C 0.51987 0.89884 0.82658 0.0
C1059 C 0.50744 0.886 0.79592 0.0
N1060 N 0.51946 0.86219 0.74148 0.0
N1061 N 0.56718 0.9022 0.86404 0.0
C1062 C 0.52994 0.87926 0.76919 0.0
C1063 C 0.555 0.89961 0.83222 0.0
N1064 N 0.5842 0.89071 0.74499 0.0
N1065 N 0.49822 0.911 0.85006 0.0
H1066 H 0.59258 0.90173 0.86977 0.0
H1067 H 0.5519 0.90157 0.88514 0.0
H1068 H 0.47241 0.91176 0.8464 0.0
H1069 H 0.50612 0.92357 0.87149 0.0
H1070 H 0.57513 0.88881 0.72063 0.0
H1071 H 0.60913 0.89831 0.74638 0.0
H1072 H 0.53584 0.85372 0.72305 0.0
H1073 H 0.49521 0.85317 0.73846 0.0
C1074 C 0.94232 0.1186 0.27816 0.0
C1075 C 0.92895 0.11286 0.3105 0.0
C1076 C 0.9862 0.11176 0.3328 0.0
C1077 C 0.99861 0.12377 0.30175 0.0
N1078 N 0.98558 0.14667 0.24709 0.0
N1079 N 0.93877 0.10993 0.37024 0.0
C1080 C 0.97596 0.12924 0.27489 0.0
C1081 C 0.95101 0.11078 0.33835 0.0
N1082 N 0.92313 0.11336 0.25039 0.0
N1083 N 0.00782 0.1005 0.35672 0.0
H1084 H 0.91338 0.11079 0.37589 0.0
H1085 H 0.95406 0.11189 0.39126 0.0
H1086 H 0.03362 0.09947 0.35307 0.0
H1087 H 0.99982 0.08872 0.37857 0.0
H1088 H 0.93279 0.1146 0.22619 0.0
H1089 H 0.89886 0.10385 0.25163 0.0
H1090 H 0.9688 0.15367 0.22841 0.0
H1091 H 0.00898 0.15784 0.24451 0.0
C1092 C 0.06725 0.59868 0.20077 0.0
C1093 C 0.08705 0.6234 0.18476 0.0
C1094 C 0.03876 0.66097 0.18171 0.0
C1095 C 0.01844 0.63577 0.19638 0.0
N1096 N 0.0114 0.57827 0.21316 0.0
N1097 N 0.08977 0.67385 0.15177 0.0
C1098 C 0.03212 0.60383 0.20385 0.0
C1099 C 0.07215 0.65321 0.17262 0.0
N1100 N 0.08213 0.57109 0.21442 0.0
N1101 N 0.02701 0.69295 0.17836 0.0
H1102 H 0.11413 0.66865 0.144 0.0
H1103 H 0.07906 0.69416 0.13944 0.0
H1104 H 1.00308 0.70031 0.18558 0.0
H1105 H 0.04213 0.71301 0.17139 0.0
H1106 H 0.06959 0.55412 0.2297 0.0
H1107 H 0.10771 0.56639 0.2125 0.0
H1108 H 0.01936 0.5536 0.21581 0.0
H1109 H 0.98554 0.58114 0.21516 0.0
C1110 C 0.44486 0.36212 0.6858 0.0
C1111 C 0.42873 0.39284 0.6933 0.0
C1112 C 0.48351 0.41877 0.70332 0.0
C1113 C 0.4989 0.38683 0.70065 0.0
N1114 N 0.49263 0.32673 0.69618 0.0
N1115 N 0.43223 0.44984 0.71287 0.0
C1116 C 0.47921 0.35811 0.69356 0.0
C1117 C 0.44792 0.42117 0.70285 0.0
N1118 N 0.42761 0.33697 0.67028 0.0
N1119 N 0.50289 0.44687 0.70534 0.0
H1120 H 0.40629 0.45246 0.71305 0.0
H1121 H 0.44478 0.47002 0.72356 0.0
H1122 H 0.52896 0.44604 0.7051 0.0
H1123 H 0.49323 0.47104 0.70403 0.0
H1124 H 0.43908 0.31535 0.66127 0.0
H1125 H 0.40265 0.33924 0.66305 0.0
H1126 H 0.47827 0.305 0.69475 0.0
H1127 H 0.51727 0.32218 0.70333 0.0
C1128 C 0.80146 0.56087 0.92412 0.0
C1129 C 0.8122 0.58098 0.89692 0.0
C1130 C 0.81302 0.53188 0.8603 0.0
C1131 C 0.80398 0.5113 0.88782 0.0
N1132 N 0.7962 0.50489 0.94722 0.0
N1133 N 0.83713 0.58431 0.84209 0.0
C1134 C 0.80021 0.52542 0.92019 0.0
C1135 C 0.8208 0.56602 0.86595 0.0
N1136 N 0.79105 0.57566 0.95312 0.0
N1137 N 0.81213 0.51953 0.8284 0.0
H1138 H 0.84395 0.60928 0.84557 0.0
H1139 H 0.84705 0.57376 0.82042 0.0
H1140 H 0.8054 0.49501 0.82263 0.0
H1141 H 0.8148 0.53456 0.80728 0.0
H1142 H 0.77941 0.56264 0.97245 0.0
H1143 H 0.79182 0.60146 0.95693 0.0
H1144 H 0.79655 0.5134 0.97183 0.0
H1145 H 0.7956 0.47887 0.94518 0.0
C1146 C 0.30886 0.94449 0.09386 0.0
C1147 C 0.3223 0.92385 0.1194 0.0
C1148 C 0.32341 0.97158 0.1579 0.0
C1149 C 0.3118 0.99277 0.13187 0.0
N1150 N 0.29999 1.00097 0.07333 0.0
N1151 N 0.35066 0.91953 0.17247 0.0
C1152 C 0.30645 0.97968 0.09928 0.0
C1153 C 0.33213 0.93799 0.15042 0.0
N1154 N 0.29709 0.93036 0.06505 0.0
N1155 N 0.32428 0.98281 0.19021 0.0
H1156 H 0.3583 0.89506 0.16755 0.0
H1157 H 0.36144 0.92962 0.19394 0.0
H1158 H 0.31713 0.00688 0.19725 0.0
H1159 H 0.32895 0.96721 0.21055 0.0
H1160 H 0.28359 0.94358 0.04713 0.0
H1161 H 0.29859 0.90477 0.06018 0.0
H1162 H 0.29913 0.99335 0.04845 0.0
H1163 H 0.29858 0.02687 0.07634 0.0
C1164 C 0.23432 0.03509 0.63535 0.0
C1165 C 0.20848 0.01199 0.62738 0.0
C1166 C 0.17221 0.05903 0.61167 0.0
C1167 C 0.1994 0.08158 0.61622 0.0
N1168 N 0.25912 0.08854 0.62213 0.0
N1169 N 0.15577 1.00196 0.59958 0.0
C1170 C 0.23135 0.06878 0.62475 0.0
C1171 C 0.17829 0.02392 0.61293 0.0
N1172 N 0.26071 0.02576 0.65498 0.0
N1173 N 0.14032 0.07075 0.60811 0.0
H1174 H 0.15992 0.97621 0.59873 0.0
H1175 H 0.13485 0.00965 0.58607 0.0
H1176 H 0.13421 0.09607 0.60855 0.0
H1177 H 0.11946 0.0551 0.60819 0.0
H1178 H 0.27842 0.04279 0.66373 0.0
H1179 H 0.26275 1.00224 0.66603 0.0
H1180 H 0.2833 0.07933 0.62545 0.0
H1181 H 0.25828 0.11288 0.61274 0.0
C1182 C 0.66856 0.45195 0.40224 0.0
C1183 C 0.69603 0.42966 0.39853 0.0
C1184 C 0.7327 0.47699 0.38564 0.0
C1185 C 0.70604 0.49956 0.39229 0.0
N1186 N 0.6507 0.50856 0.41466 0.0
N1187 N 0.75587 0.42212 0.39614 0.0
C1188 C 0.67457 0.48705 0.40299 0.0
C1189 C 0.72863 0.44258 0.39324 0.0
N1190 N 0.63657 0.43993 0.40312 0.0
N1191 N 0.76117 0.48778 0.37004 0.0
H1192 H 0.75399 0.39698 0.40289 0.0
H1193 H 0.78037 0.43104 0.39558 0.0
H1194 H 0.76467 0.51231 0.36193 0.0
H1195 H 0.77976 0.4715 0.36172 0.0
H1196 H 0.6156 0.45538 0.40213 0.0
H1197 H 0.63075 0.41457 0.40163 0.0
H1198 H 0.62855 0.50049 0.42579 0.0
H1199 H 0.65452 0.53432 0.41644 0.0
loop_
_geom_bond_atom_site_label_1
_geom_bond_atom_site_label_2
_geom_bond_distance
_geom_bond_site_symmetry_2
_ccdc_geom_bond_type
O0 Cd1 2.223 . S
O0 C8 1.315 . S
Cd1 O0 2.223 . S
Cd1 O4 2.297 . S
Cd1 O5 2.439 . S
Cd1 O11 2.240 . S
Cd2 O3 2.240 . S
Cd2 O10 2.223 . S
Cd2 O12 2.297 . S
Cd2 O13 2.439 . S
O3 Cd2 2.240 . S
O3 C8 1.279 . S
O4 Cd1 2.297 . S
O4 C6 1.247 . S
O5 Cd1 2.439 . S
O5 C6 1.208 . S
C6 O4 1.247 . S
C6 O5 1.208 . S
C7 O12 1.247 . S
C7 O13 1.208 . S
C8 O0 1.315 . S
C8 O3 1.279 . S
C9 O10 1.315 . S
C9 O11 1.279 . S
O10 Cd2 2.223 . S
O10 C9 1.315 . S
O11 Cd1 2.240 . S
O11 C9 1.279 . S
O12 Cd2 2.297 . S
O12 C7 1.247 . S
O13 Cd2 2.439 . S
O13 C7 1.208 . S
O14 Cd15 2.223 . S
O14 C22 1.315 . S
Cd15 O14 2.223 . S
Cd15 O18 2.297 . S
Cd15 O19 2.439 . S
Cd15 O25 2.240 . S
Cd16 O17 2.240 . S
Cd16 O24 2.223 . S
Cd16 O26 2.297 . S
Cd16 O27 2.439 . S
O17 Cd16 2.240 . S
O17 C22 1.279 . S
O18 Cd15 2.297 . S
O18 C20 1.247 . S
O19 Cd15 2.439 . S
O19 C20 1.208 . S
C20 O18 1.247 . S
C20 O19 1.208 . S
C21 O26 1.247 . S
C21 O27 1.208 . S
C22 O14 1.315 . S
C22 O17 1.279 . S
C23 O24 1.315 . S
C23 O25 1.279 . S
O24 Cd16 2.223 . S
O24 C23 1.315 . S
O25 Cd15 2.240 . S
O25 C23 1.279 . S
O26 Cd16 2.297 . S
O26 C21 1.247 . S
O27 Cd16 2.439 . S
O27 C21 1.208 . S
O28 Cd29 2.223 . S
O28 C36 1.315 . S
Cd29 O28 2.223 . S
Cd29 O32 2.297 . S
Cd29 O33 2.439 . S
Cd29 O39 2.240 . S
Cd30 O31 2.240 . S
Cd30 O38 2.223 . S
Cd30 O40 2.297 . S
Cd30 O41 2.439 . S
O31 Cd30 2.240 . S
O31 C36 1.279 . S
O32 Cd29 2.297 . S
O32 C34 1.247 . S
O33 Cd29 2.439 . S
O33 C34 1.208 . S
C34 O32 1.247 . S
C34 O33 1.208 . S
C35 O40 1.247 . S
C35 O41 1.208 . S
C36 O28 1.315 . S
C36 O31 1.279 . S
C37 O38 1.315 . S
C37 O39 1.279 . S
O38 Cd30 2.223 . S
O38 C37 1.315 . S
O39 Cd29 2.240 . S
O39 C37 1.279 . S
O40 Cd30 2.297 . S
O40 C35 1.247 . S
O41 Cd30 2.439 . S
O41 C35 1.208 . S
O42 Cd43 2.223 . S
O42 C50 1.315 . S
Cd43 O42 2.223 . S
Cd43 O46 2.297 . S
Cd43 O47 2.439 . S
Cd43 O53 2.240 . S
Cd44 O45 2.240 . S
Cd44 O52 2.223 . S
Cd44 O54 2.297 . S
Cd44 O55 2.439 . S
O45 Cd44 2.240 . S
O45 C50 1.279 . S
O46 Cd43 2.297 . S
O46 C48 1.247 . S
O47 Cd43 2.439 . S
O47 C48 1.208 . S
C48 O46 1.247 . S
C48 O47 1.208 . S
C49 O54 1.247 . S
C49 O55 1.208 . S
C50 O42 1.315 . S
C50 O45 1.279 . S
C51 O52 1.315 . S
C51 O53 1.279 . S
O52 Cd44 2.223 . S
O52 C51 1.315 . S
O53 Cd43 2.240 . S
O53 C51 1.279 . S
O54 Cd44 2.297 . S
O54 C49 1.247 . S
O55 Cd44 2.439 . S
O55 C49 1.208 . S
O56 Cd57 2.223 . S
O56 C64 1.315 . S
Cd57 O56 2.223 . S
Cd57 O60 2.297 . S
Cd57 O61 2.439 . S
Cd57 O67 2.240 . S
Cd58 O59 2.240 . S
Cd58 O66 2.223 . S
Cd58 O68 2.297 . S
Cd58 O69 2.439 . S
O59 Cd58 2.240 . S
O59 C64 1.279 . S
O60 Cd57 2.297 . S
O60 C62 1.247 . S
O61 Cd57 2.439 . S
O61 C62 1.208 . S
C62 O60 1.247 . S
C62 O61 1.208 . S
C63 O68 1.247 . S
C63 O69 1.208 . S
C64 O56 1.315 . S
C64 O59 1.279 . S
C65 O66 1.315 . S
C65 O67 1.279 . S
O66 Cd58 2.223 . S
O66 C65 1.315 . S
O67 Cd57 2.240 . S
O67 C65 1.279 . S
O68 Cd58 2.297 . S
O68 C63 1.247 . S
O69 Cd58 2.439 . S
O69 C63 1.208 . S
O70 Cd71 2.223 . S
O70 C78 1.315 . S
Cd71 O70 2.223 . S
Cd71 O74 2.297 . S
Cd71 O75 2.439 . S
Cd71 O81 2.240 . S
Cd72 O73 2.240 . S
Cd72 O80 2.223 . S
Cd72 O82 2.297 . S
Cd72 O83 2.439 . S
O73 Cd72 2.240 . S
O73 C78 1.279 . S
O74 Cd71 2.297 . S
O74 C76 1.247 . S
O75 Cd71 2.439 . S
O75 C76 1.208 . S
C76 O74 1.247 . S
C76 O75 1.208 . S
C77 O82 1.247 . S
C77 O83 1.208 . S
C78 O70 1.315 . S
C78 O73 1.279 . S
C79 O80 1.315 . S
C79 O81 1.279 . S
O80 Cd72 2.223 . S
O80 C79 1.315 . S
O81 Cd71 2.240 . S
O81 C79 1.279 . S
O82 Cd72 2.297 . S
O82 C77 1.247 . S
O83 Cd72 2.439 . S
O83 C77 1.208 . S
O84 Cd85 2.223 . S
O84 C92 1.315 . S
Cd85 O84 2.223 . S
Cd85 O88 2.297 . S
Cd85 O89 2.439 . S
Cd85 O95 2.240 . S
Cd86 O87 2.240 . S
Cd86 O94 2.223 . S
Cd86 O96 2.297 . S
Cd86 O97 2.439 . S
O87 Cd86 2.240 . S
O87 C92 1.279 . S
O88 Cd85 2.297 . S
O88 C90 1.247 . S
O89 Cd85 2.439 . S
O89 C90 1.208 . S
C90 O88 1.247 . S
C90 O89 1.208 . S
C91 O96 1.247 . S
C91 O97 1.208 . S
C92 O84 1.315 . S
C92 O87 1.279 . S
C93 O94 1.315 . S
C93 O95 1.279 . S
O94 Cd86 2.223 . S
O94 C93 1.315 . S
O95 Cd85 2.240 . S
O95 C93 1.279 . S
O96 Cd86 2.297 . S
O96 C91 1.247 . S
O97 Cd86 2.439 . S
O97 C91 1.208 . S
O98 Cd99 2.223 . S
O98 C106 1.315 . S
Cd99 O98 2.223 . S
Cd99 O102 2.297 . S
Cd99 O103 2.439 . S
Cd99 O109 2.240 . S
Cd100 O101 2.240 . S
Cd100 O108 2.223 . S
Cd100 O110 2.297 . S
Cd100 O111 2.439 . S
O101 Cd100 2.240 . S
O101 C106 1.279 . S
O102 Cd99 2.297 . S
O102 C104 1.247 . S
O103 Cd99 2.439 . S
O103 C104 1.208 . S
C104 O102 1.247 . S
C104 O103 1.208 . S
C105 O110 1.247 . S
C105 O111 1.208 . S
C106 O98 1.315 . S
C106 O101 1.279 . S
C107 O108 1.315 . S
C107 O109 1.279 . S
O108 Cd100 2.223 . S
O108 C107 1.315 . S
O109 Cd99 2.240 . S
O109 C107 1.279 . S
O110 Cd100 2.297 . S
O110 C105 1.247 . S
O111 Cd100 2.439 . S
O111 C105 1.208 . S
O112 Cd113 2.223 . S
O112 C120 1.315 . S
Cd113 O112 2.223 . S
Cd113 O116 2.297 . S
Cd113 O117 2.439 . S
Cd113 O123 2.240 . S
Cd114 O115 2.240 . S
Cd114 O122 2.223 . S
Cd114 O124 2.297 . S
Cd114 O125 2.439 . S
O115 Cd114 2.240 . S
O115 C120 1.279 . S
O116 Cd113 2.297 . S
O116 C118 1.247 . S
O117 Cd113 2.439 . S
O117 C118 1.208 . S
C118 O116 1.247 . S
C118 O117 1.208 . S
C119 O124 1.247 . S
C119 O125 1.208 . S
C120 O112 1.315 . S
C120 O115 1.279 . S
C121 O122 1.315 . S
C121 O123 1.279 . S
O122 Cd114 2.223 . S
O122 C121 1.315 . S
O123 Cd113 2.240 . S
O123 C121 1.279 . S
O124 Cd114 2.297 . S
O124 C119 1.247 . S
O125 Cd114 2.439 . S
O125 C119 1.208 . S
O126 Cd127 2.223 . S
O126 C134 1.315 . S
Cd127 O126 2.223 . S
Cd127 O130 2.297 . S
Cd127 O131 2.439 . S
Cd127 O137 2.240 . S
Cd128 O129 2.240 . S
Cd128 O136 2.223 . S
Cd128 O138 2.297 . S
Cd128 O139 2.439 . S
O129 Cd128 2.240 . S
O129 C134 1.279 . S
O130 Cd127 2.297 . S
O130 C132 1.247 . S
O131 Cd127 2.439 . S
O131 C132 1.208 . S
C132 O130 1.247 . S
C132 O131 1.208 . S
C133 O138 1.247 . S
C133 O139 1.208 . S
C134 O126 1.315 . S
C134 O129 1.279 . S
C135 O136 1.315 . S
C135 O137 1.279 . S
O136 Cd128 2.223 . S
O136 C135 1.315 . S
O137 Cd127 2.240 . S
O137 C135 1.279 . S
O138 Cd128 2.297 . S
O138 C133 1.247 . S
O139 Cd128 2.439 . S
O139 C133 1.208 . S
O140 Cd141 2.223 . S
O140 C148 1.315 . S
Cd141 O140 2.223 . S
Cd141 O144 2.297 . S
Cd141 O145 2.439 . S
Cd141 O151 2.240 . S
Cd142 O143 2.240 . S
Cd142 O150 2.223 . S
Cd142 O152 2.297 . S
Cd142 O153 2.439 . S
O143 Cd142 2.240 . S
O143 C148 1.279 . S
O144 Cd141 2.297 . S
O144 C146 1.247 . S
O145 Cd141 2.439 . S
O145 C146 1.208 . S
C146 O144 1.247 . S
C146 O145 1.208 . S
C147 O152 1.247 . S
C147 O153 1.208 . S
C148 O140 1.315 . S
C148 O143 1.279 . S
C149 O150 1.315 . S
C149 O151 1.279 . S
O150 Cd142 2.223 . S
O150 C149 1.315 . S
O151 Cd141 2.240 . S
O151 C149 1.279 . S
O152 Cd142 2.297 . S
O152 C147 1.247 . S
O153 Cd142 2.439 . S
O153 C147 1.208 . S
O154 Cd155 2.223 . S
O154 C162 1.315 . S
Cd155 O154 2.223 . S
Cd155 O158 2.297 . S
Cd155 O159 2.439 . S
Cd155 O165 2.240 . S
Cd156 O157 2.240 . S
Cd156 O164 2.223 . S
Cd156 O166 2.297 . S
Cd156 O167 2.439 . S
O157 Cd156 2.240 . S
O157 C162 1.279 . S
O158 Cd155 2.297 . S
O158 C160 1.247 . S
O159 Cd155 2.439 . S
O159 C160 1.208 . S
C160 O158 1.247 . S
C160 O159 1.208 . S
C161 O166 1.247 . S
C161 O167 1.208 . S
C162 O154 1.315 . S
C162 O157 1.279 . S
C163 O164 1.315 . S
C163 O165 1.279 . S
O164 Cd156 2.223 . S
O164 C163 1.315 . S
O165 Cd155 2.240 . S
O165 C163 1.279 . S
O166 Cd156 2.297 . S
O166 C161 1.247 . S
O167 Cd156 2.439 . S
O167 C161 1.208 . S
O168 Cd169 2.223 . S
O168 C176 1.315 . S
Cd169 O168 2.223 . S
Cd169 O172 2.297 . S
Cd169 O173 2.439 . S
Cd169 O179 2.240 . S
Cd170 O171 2.240 . S
Cd170 O178 2.223 . S
Cd170 O180 2.297 . S
Cd170 O181 2.439 . S
O171 Cd170 2.240 . S
O171 C176 1.279 . S
O172 Cd169 2.297 . S
O172 C174 1.247 . S
O173 Cd169 2.439 . S
O173 C174 1.208 . S
C174 O172 1.247 . S
C174 O173 1.208 . S
C175 O180 1.247 . S
C175 O181 1.208 . S
C176 O168 1.315 . S
C176 O171 1.279 . S
C177 O178 1.315 . S
C177 O179 1.279 . S
O178 Cd170 2.223 . S
O178 C177 1.315 . S
O179 Cd169 2.240 . S
O179 C177 1.279 . S
O180 Cd170 2.297 . S
O180 C175 1.247 . S
O181 Cd170 2.439 . S
O181 C175 1.208 . S
O182 Cd183 2.223 . S
O182 C190 1.315 . S
Cd183 O182 2.223 . S
Cd183 O186 2.297 . S
Cd183 O187 2.439 . S
Cd183 O193 2.240 . S
Cd184 O185 2.240 . S
Cd184 O192 2.223 . S
Cd184 O194 2.297 . S
Cd184 O195 2.439 . S
O185 Cd184 2.240 . S
O185 C190 1.279 . S
O186 Cd183 2.297 . S
O186 C188 1.247 . S
O187 Cd183 2.439 . S
O187 C188 1.208 . S
C188 O186 1.247 . S
C188 O187 1.208 . S
C189 O194 1.247 . S
C189 O195 1.208 . S
C190 O182 1.315 . S
C190 O185 1.279 . S
C191 O192 1.315 . S
C191 O193 1.279 . S
O192 Cd184 2.223 . S
O192 C191 1.315 . S
O193 Cd183 2.240 . S
O193 C191 1.279 . S
O194 Cd184 2.297 . S
O194 C189 1.247 . S
O195 Cd184 2.439 . S
O195 C189 1.208 . S
O196 Cd197 2.223 . S
O196 C204 1.315 . S
Cd197 O196 2.223 . S
Cd197 O200 2.297 . S
Cd197 O201 2.439 . S
Cd197 O207 2.240 . S
Cd198 O199 2.240 . S
Cd198 O206 2.223 . S
Cd198 O208 2.297 . S
Cd198 O209 2.439 . S
O199 Cd198 2.240 . S
O199 C204 1.279 . S
O200 Cd197 2.297 . S
O200 C202 1.247 . S
O201 Cd197 2.439 . S
O201 C202 1.208 . S
C202 O200 1.247 . S
C202 O201 1.208 . S
C203 O208 1.247 . S
C203 O209 1.208 . S
C204 O196 1.315 . S
C204 O199 1.279 . S
C205 O206 1.315 . S
C205 O207 1.279 . S
O206 Cd198 2.223 . S
O206 C205 1.315 . S
O207 Cd197 2.240 . S
O207 C205 1.279 . S
O208 Cd198 2.297 . S
O208 C203 1.247 . S
O209 Cd198 2.439 . S
O209 C203 1.208 . S
O210 Cd211 2.223 . S
O210 C218 1.315 . S
Cd211 O210 2.223 . S
Cd211 O214 2.297 . S
Cd211 O215 2.439 . S
Cd211 O221 2.240 . S
Cd212 O213 2.240 . S
Cd212 O220 2.223 . S
Cd212 O222 2.297 . S
Cd212 O223 2.439 . S
O213 Cd212 2.240 . S
O213 C218 1.279 . S
O214 Cd211 2.297 . S
O214 C216 1.247 . S
O215 Cd211 2.439 . S
O215 C216 1.208 . S
C216 O214 1.247 . S
C216 O215 1.208 . S
C217 O222 1.247 . S
C217 O223 1.208 . S
C218 O210 1.315 . S
C218 O213 1.279 . S
C219 O220 1.315 . S
C219 O221 1.279 . S
O220 Cd212 2.223 . S
O220 C219 1.315 . S
O221 Cd211 2.240 . S
O221 C219 1.279 . S
O222 Cd212 2.297 . S
O222 C217 1.247 . S
O223 Cd212 2.439 . S
O223 C217 1.208 . S
O224 Cd225 2.223 . S
O224 C232 1.315 . S
Cd225 O224 2.223 . S
Cd225 O228 2.297 . S
Cd225 O229 2.439 . S
Cd225 O235 2.240 . S
Cd226 O227 2.240 . S
Cd226 O234 2.223 . S
Cd226 O236 2.297 . S
Cd226 O237 2.439 . S
O227 Cd226 2.240 . S
O227 C232 1.279 . S
O228 Cd225 2.297 . S
O228 C230 1.247 . S
O229 Cd225 2.439 . S
O229 C230 1.208 . S
C230 O228 1.247 . S
C230 O229 1.208 . S
C231 O236 1.247 . S
C231 O237 1.208 . S
C232 O224 1.315 . S
C232 O227 1.279 . S
C233 O234 1.315 . S
C233 O235 1.279 . S
O234 Cd226 2.223 . S
O234 C233 1.315 . S
O235 Cd225 2.240 . S
O235 C233 1.279 . S
O236 Cd226 2.297 . S
O236 C231 1.247 . S
O237 Cd226 2.439 . S
O237 C231 1.208 . S
O238 Cd239 2.223 . S
O238 C246 1.315 . S
Cd239 O238 2.223 . S
Cd239 O242 2.297 . S
Cd239 O243 2.439 . S
Cd239 O249 2.240 . S
Cd240 O241 2.240 . S
Cd240 O248 2.223 . S
Cd240 O250 2.297 . S
Cd240 O251 2.439 . S
O241 Cd240 2.240 . S
O241 C246 1.279 . S
O242 Cd239 2.297 . S
O242 C244 1.247 . S
O243 Cd239 2.439 . S
O243 C244 1.208 . S
C244 O242 1.247 . S
C244 O243 1.208 . S
C245 O250 1.247 . S
C245 O251 1.208 . S
C246 O238 1.315 . S
C246 O241 1.279 . S
C247 O248 1.315 . S
C247 O249 1.279 . S
O248 Cd240 2.223 . S
O248 C247 1.315 . S
O249 Cd239 2.240 . S
O249 C247 1.279 . S
O250 Cd240 2.297 . S
O250 C245 1.247 . S
O251 Cd240 2.439 . S
O251 C245 1.208 . S
O252 Cd253 2.223 . S
O252 C260 1.315 . S
Cd253 O252 2.223 . S
Cd253 O256 2.297 . S
Cd253 O257 2.439 . S
Cd253 O263 2.240 . S
Cd254 O255 2.240 . S
Cd254 O262 2.223 . S
Cd254 O264 2.297 . S
Cd254 O265 2.439 . S
O255 Cd254 2.240 . S
O255 C260 1.279 . S
O256 Cd253 2.297 . S
O256 C258 1.247 . S
O257 Cd253 2.439 . S
O257 C258 1.208 . S
C258 O256 1.247 . S
C258 O257 1.208 . S
C259 O264 1.247 . S
C259 O265 1.208 . S
C260 O252 1.315 . S
C260 O255 1.279 . S
C261 O262 1.315 . S
C261 O263 1.279 . S
O262 Cd254 2.223 . S
O262 C261 1.315 . S
O263 Cd253 2.240 . S
O263 C261 1.279 . S
O264 Cd254 2.297 . S
O264 C259 1.247 . S
O265 Cd254 2.439 . S
O265 C259 1.208 . S
O266 Cd267 2.223 . S
O266 C274 1.315 . S
Cd267 O266 2.223 . S
Cd267 O270 2.297 . S
Cd267 O271 2.439 . S
Cd267 O277 2.240 . S
Cd268 O269 2.240 . S
Cd268 O276 2.223 . S
Cd268 O278 2.297 . S
Cd268 O279 2.439 . S
O269 Cd268 2.240 . S
O269 C274 1.279 . S
O270 Cd267 2.297 . S
O270 C272 1.247 . S
O271 Cd267 2.439 . S
O271 C272 1.208 . S
C272 O270 1.247 . S
C272 O271 1.208 . S
C273 O278 1.247 . S
C273 O279 1.208 . S
C274 O266 1.315 . S
C274 O269 1.279 . S
C275 O276 1.315 . S
C275 O277 1.279 . S
O276 Cd268 2.223 . S
O276 C275 1.315 . S
O277 Cd267 2.240 . S
O277 C275 1.279 . S
O278 Cd268 2.297 . S
O278 C273 1.247 . S
O279 Cd268 2.439 . S
O279 C273 1.208 . S
O280 Cd281 2.223 . S
O280 C288 1.315 . S
Cd281 O280 2.223 . S
Cd281 O284 2.297 . S
Cd281 O285 2.439 . S
Cd281 O291 2.240 . S
Cd282 O283 2.240 . S
Cd282 O290 2.223 . S
Cd282 O292 2.297 . S
Cd282 O293 2.439 . S
O283 Cd282 2.240 . S
O283 C288 1.279 . S
O284 Cd281 2.297 . S
O284 C286 1.247 . S
O285 Cd281 2.439 . S
O285 C286 1.208 . S
C286 O284 1.247 . S
C286 O285 1.208 . S
C287 O292 1.247 . S
C287 O293 1.208 . S
C288 O280 1.315 . S
C288 O283 1.279 . S
C289 O290 1.315 . S
C289 O291 1.279 . S
O290 Cd282 2.223 . S
O290 C289 1.315 . S
O291 Cd281 2.240 . S
O291 C289 1.279 . S
O292 Cd282 2.297 . S
O292 C287 1.247 . S
O293 Cd282 2.439 . S
O293 C287 1.208 . S
O294 Cd295 2.223 . S
O294 C302 1.315 . S
Cd295 O294 2.223 . S
Cd295 O298 2.297 . S
Cd295 O299 2.439 . S
Cd295 O305 2.240 . S
Cd296 O297 2.240 . S
Cd296 O304 2.223 . S
Cd296 O306 2.297 . S
Cd296 O307 2.439 . S
O297 Cd296 2.240 . S
O297 C302 1.279 . S
O298 Cd295 2.297 . S
O298 C300 1.247 . S
O299 Cd295 2.439 . S
O299 C300 1.208 . S
C300 O298 1.247 . S
C300 O299 1.208 . S
C301 O306 1.247 . S
C301 O307 1.208 . S
C302 O294 1.315 . S
C302 O297 1.279 . S
C303 O304 1.315 . S
C303 O305 1.279 . S
O304 Cd296 2.223 . S
O304 C303 1.315 . S
O305 Cd295 2.240 . S
O305 C303 1.279 . S
O306 Cd296 2.297 . S
O306 C301 1.247 . S
O307 Cd296 2.439 . S
O307 C301 1.208 . S
O308 Cd309 2.223 . S
O308 C316 1.315 . S
Cd309 O308 2.223 . S
Cd309 O312 2.297 . S
Cd309 O313 2.439 . S
Cd309 O319 2.240 . S
Cd310 O311 2.240 . S
Cd310 O318 2.223 . S
Cd310 O320 2.297 . S
Cd310 O321 2.439 . S
O311 Cd310 2.240 . S
O311 C316 1.279 . S
O312 Cd309 2.297 . S
O312 C314 1.247 . S
O313 Cd309 2.439 . S
O313 C314 1.208 . S
C314 O312 1.247 . S
C314 O313 1.208 . S
C315 O320 1.247 . S
C315 O321 1.208 . S
C316 O308 1.315 . S
C316 O311 1.279 . S
C317 O318 1.315 . S
C317 O319 1.279 . S
O318 Cd310 2.223 . S
O318 C317 1.315 . S
O319 Cd309 2.240 . S
O319 C317 1.279 . S
O320 Cd310 2.297 . S
O320 C315 1.247 . S
O321 Cd310 2.439 . S
O321 C315 1.208 . S
O322 Cd323 2.223 . S
O322 C330 1.315 . S
Cd323 O322 2.223 . S
Cd323 O326 2.297 . S
Cd323 O327 2.439 . S
Cd323 O333 2.240 . S
Cd324 O325 2.240 . S
Cd324 O332 2.223 . S
Cd324 O334 2.297 . S
Cd324 O335 2.439 . S
O325 Cd324 2.240 . S
O325 C330 1.279 . S
O326 Cd323 2.297 . S
O326 C328 1.247 . S
O327 Cd323 2.439 . S
O327 C328 1.208 . S
C328 O326 1.247 . S
C328 O327 1.208 . S
C329 O334 1.247 . S
C329 O335 1.208 . S
C330 O322 1.315 . S
C330 O325 1.279 . S
C331 O332 1.315 . S
C331 O333 1.279 . S
O332 Cd324 2.223 . S
O332 C331 1.315 . S
O333 Cd323 2.240 . S
O333 C331 1.279 . S
O334 Cd324 2.297 . S
O334 C329 1.247 . S
O335 Cd324 2.439 . S
O335 C329 1.208 . S
C336 C337 1.363 . S
C336 C342 1.379 . S
C336 N344 1.356 . S
C337 C336 1.363 . S
C337 C343 1.363 . S
C338 C339 1.363 . S
C338 C343 1.379 . S
C338 N345 1.356 . S
C339 C338 1.363 . S
C339 C342 1.363 . S
N340 C342 1.356 . S
N340 H352 0.984 . S
N340 H353 0.985 . S
N341 C343 1.356 . S
N341 H346 0.984 . S
N341 H347 0.985 . S
C342 C336 1.379 . S
C342 C339 1.363 . S
C342 N340 1.356 . S
C343 C337 1.363 . S
C343 C338 1.379 . S
C343 N341 1.356 . S
N344 C336 1.356 . S
N344 H350 0.984 . S
N344 H351 0.984 . S
N345 C338 1.356 . S
N345 H348 0.984 . S
N345 H349 0.985 . S
H346 N341 0.984 . S
H347 N341 0.985 . S
H348 N345 0.984 . S
H349 N345 0.985 . S
H350 N344 0.984 . S
H351 N344 0.984 . S
H352 N340 0.984 . S
H353 N340 0.985 . S
C354 C355 1.363 . S
C354 C360 1.379 . S
C354 N362 1.356 . S
C355 C354 1.363 . S
C355 C361 1.363 . S
C356 C357 1.363 . S
C356 C361 1.379 . S
C356 N363 1.356 . S
C357 C356 1.363 . S
C357 C360 1.363 . S
N358 C360 1.356 . S
N358 H370 0.984 . S
N358 H371 0.985 . S
N359 C361 1.356 . S
N359 H364 0.984 . S
N359 H365 0.985 . S
C360 C354 1.379 . S
C360 C357 1.363 . S
C360 N358 1.356 . S
C361 C355 1.363 . S
C361 C356 1.379 . S
C361 N359 1.356 . S
N362 C354 1.356 . S
N362 H368 0.984 . S
N362 H369 0.984 . S
N363 C356 1.356 . S
N363 H366 0.984 . S
N363 H367 0.985 . S
H364 N359 0.984 . S
H365 N359 0.985 . S
H366 N363 0.984 . S
H367 N363 0.985 . S
H368 N362 0.984 . S
H369 N362 0.984 . S
H370 N358 0.984 . S
H371 N358 0.985 . S
C372 C373 1.363 . S
C372 C378 1.379 . S
C372 N380 1.356 . S
C373 C372 1.363 . S
C373 C379 1.363 . S
C374 C375 1.363 . S
C374 C379 1.379 . S
C374 N381 1.356 . S
C375 C374 1.363 . S
C375 C378 1.363 . S
N376 C378 1.356 . S
N376 H388 0.984 . S
N376 H389 0.985 . S
N377 C379 1.356 . S
N377 H382 0.984 . S
N377 H383 0.985 . S
C378 C372 1.379 . S
C378 C375 1.363 . S
C378 N376 1.356 . S
C379 C373 1.363 . S
C379 C374 1.379 . S
C379 N377 1.356 . S
N380 C372 1.356 . S
N380 H386 0.984 . S
N380 H387 0.984 . S
N381 C374 1.356 . S
N381 H384 0.984 . S
N381 H385 0.985 . S
H382 N377 0.984 . S
H383 N377 0.985 . S
H384 N381 0.984 . S
H385 N381 0.985 . S
H386 N380 0.984 . S
H387 N380 0.984 . S
H388 N376 0.984 . S
H389 N376 0.985 . S
C390 C391 1.363 . S
C390 C396 1.379 . S
C390 N398 1.356 . S
C391 C390 1.363 . S
C391 C397 1.363 . S
C392 C393 1.363 . S
C392 C397 1.379 . S
C392 N399 1.356 . S
C393 C392 1.363 . S
C393 C396 1.363 . S
N394 C396 1.356 . S
N394 H406 0.984 . S
N394 H407 0.985 . S
N395 C397 1.356 . S
N395 H400 0.984 . S
N395 H401 0.985 . S
C396 C390 1.379 . S
C396 C393 1.363 . S
C396 N394 1.356 . S
C397 C391 1.363 . S
C397 C392 1.379 . S
C397 N395 1.356 . S
N398 C390 1.356 . S
N398 H404 0.984 . S
N398 H405 0.984 . S
N399 C392 1.356 . S
N399 H402 0.984 . S
N399 H403 0.985 . S
H400 N395 0.984 . S
H401 N395 0.985 . S
H402 N399 0.984 . S
H403 N399 0.985 . S
H404 N398 0.984 . S
H405 N398 0.984 . S
H406 N394 0.984 . S
H407 N394 0.985 . S
C408 C409 1.363 . S
C408 C414 1.379 . S
C408 N416 1.356 . S
C409 C408 1.363 . S
C409 C415 1.363 . S
C410 C411 1.363 . S
C410 C415 1.379 . S
C410 N417 1.356 . S
C411 C410 1.363 . S
C411 C414 1.363 . S
N412 C414 1.356 . S
N412 H424 0.984 . S
N412 H425 0.985 . S
N413 C415 1.356 . S
N413 H418 0.984 . S
N413 H419 0.985 . S
C414 C408 1.379 . S
C414 C411 1.363 . S
C414 N412 1.356 . S
C415 C409 1.363 . S
C415 C410 1.379 . S
C415 N413 1.356 . S
N416 C408 1.356 . S
N416 H422 0.984 . S
N416 H423 0.984 . S
N417 C410 1.356 . S
N417 H420 0.984 . S
N417 H421 0.985 . S
H418 N413 0.984 . S
H419 N413 0.985 . S
H420 N417 0.984 . S
H421 N417 0.985 . S
H422 N416 0.984 . S
H423 N416 0.984 . S
H424 N412 0.984 . S
H425 N412 0.985 . S
C426 C427 1.363 . S
C426 C432 1.379 . S
C426 N434 1.356 . S
C427 C426 1.363 . S
C427 C433 1.363 . S
C428 C429 1.363 . S
C428 C433 1.379 . S
C428 N435 1.356 . S
C429 C428 1.363 . S
C429 C432 1.363 . S
N430 C432 1.356 . S
N430 H442 0.984 . S
N430 H443 0.985 . S
N431 C433 1.356 . S
N431 H436 0.984 . S
N431 H437 0.985 . S
C432 C426 1.379 . S
C432 C429 1.363 . S
C432 N430 1.356 . S
C433 C427 1.363 . S
C433 C428 1.379 . S
C433 N431 1.356 . S
N434 C426 1.356 . S
N434 H440 0.984 . S
N434 H441 0.984 . S
N435 C428 1.356 . S
N435 H438 0.984 . S
N435 H439 0.985 . S
H436 N431 0.984 . S
H437 N431 0.985 . S
H438 N435 0.984 . S
H439 N435 0.985 . S
H440 N434 0.984 . S
H441 N434 0.984 . S
H442 N430 0.984 . S
H443 N430 0.985 . S
C444 C445 1.363 . S
C444 C450 1.379 . S
C444 N452 1.356 . S
C445 C444 1.363 . S
C445 C451 1.363 . S
C446 C447 1.363 . S
C446 C451 1.379 . S
C446 N453 1.356 . S
C447 C446 1.363 . S
C447 C450 1.363 . S
N448 C450 1.356 . S
N448 H460 0.984 . S
N448 H461 0.985 . S
N449 C451 1.356 . S
N449 H454 0.984 . S
N449 H455 0.985 . S
C450 C444 1.379 . S
C450 C447 1.363 . S
C450 N448 1.356 . S
C451 C445 1.363 . S
C451 C446 1.379 . S
C451 N449 1.356 . S
N452 C444 1.356 . S
N452 H458 0.984 . S
N452 H459 0.984 . S
N453 C446 1.356 . S
N453 H456 0.984 . S
N453 H457 0.985 . S
H454 N449 0.984 . S
H455 N449 0.985 . S
H456 N453 0.984 . S
H457 N453 0.985 . S
H458 N452 0.984 . S
H459 N452 0.984 . S
H460 N448 0.984 . S
H461 N448 0.985 . S
C462 C463 1.363 . S
C462 C468 1.379 . S
C462 N470 1.356 . S
C463 C462 1.363 . S
C463 C469 1.363 . S
C464 C465 1.363 . S
C464 C469 1.379 . S
C464 N471 1.356 . S
C465 C464 1.363 . S
C465 C468 1.363 . S
N466 C468 1.356 . S
N466 H478 0.984 . S
N466 H479 0.985 . S
N467 C469 1.356 . S
N467 H472 0.984 . S
N467 H473 0.985 . S
C468 C462 1.379 . S
C468 C465 1.363 . S
C468 N466 1.356 . S
C469 C463 1.363 . S
C469 C464 1.379 . S
C469 N467 1.356 . S
N470 C462 1.356 . S
N470 H476 0.984 . S
N470 H477 0.984 . S
N471 C464 1.356 . S
N471 H474 0.984 . S
N471 H475 0.985 . S
H472 N467 0.984 . S
H473 N467 0.985 . S
H474 N471 0.984 . S
H475 N471 0.985 . S
H476 N470 0.984 . S
H477 N470 0.984 . S
H478 N466 0.984 . S
H479 N466 0.985 . S
C480 C481 1.363 . S
C480 C486 1.379 . S
C480 N488 1.356 . S
C481 C480 1.363 . S
C481 C487 1.363 . S
C482 C483 1.363 . S
C482 C487 1.379 . S
C482 N489 1.356 . S
C483 C482 1.363 . S
C483 C486 1.363 . S
N484 C486 1.356 . S
N484 H496 0.984 . S
N484 H497 0.985 . S
N485 C487 1.356 . S
N485 H490 0.984 . S
N485 H491 0.985 . S
C486 C480 1.379 . S
C486 C483 1.363 . S
C486 N484 1.356 . S
C487 C481 1.363 . S
C487 C482 1.379 . S
C487 N485 1.356 . S
N488 C480 1.356 . S
N488 H494 0.984 . S
N488 H495 0.984 . S
N489 C482 1.356 . S
N489 H492 0.984 . S
N489 H493 0.985 . S
H490 N485 0.984 . S
H491 N485 0.985 . S
H492 N489 0.984 . S
H493 N489 0.985 . S
H494 N488 0.984 . S
H495 N488 0.984 . S
H496 N484 0.984 . S
H497 N484 0.985 . S
C498 C499 1.363 . S
C498 C504 1.379 . S
C498 N506 1.356 . S
C499 C498 1.363 . S
C499 C505 1.363 . S
C500 C501 1.363 . S
C500 C505 1.379 . S
C500 N507 1.356 . S
C501 C500 1.363 . S
C501 C504 1.363 . S
N502 C504 1.356 . S
N502 H514 0.984 . S
N502 H515 0.985 . S
N503 C505 1.356 . S
N503 H508 0.984 . S
N503 H509 0.985 . S
C504 C498 1.379 . S
C504 C501 1.363 . S
C504 N502 1.356 . S
C505 C499 1.363 . S
C505 C500 1.379 . S
C505 N503 1.356 . S
N506 C498 1.356 . S
N506 H512 0.984 . S
N506 H513 0.984 . S
N507 C500 1.356 . S
N507 H510 0.984 . S
N507 H511 0.985 . S
H508 N503 0.984 . S
H509 N503 0.985 . S
H510 N507 0.984 . S
H511 N507 0.985 . S
H512 N506 0.984 . S
H513 N506 0.984 . S
H514 N502 0.984 . S
H515 N502 0.985 . S
C516 C517 1.363 . S
C516 C522 1.379 . S
C516 N524 1.356 . S
C517 C516 1.363 . S
C517 C523 1.363 . S
C518 C519 1.363 . S
C518 C523 1.379 . S
C518 N525 1.356 . S
C519 C518 1.363 . S
C519 C522 1.363 . S
N520 C522 1.356 . S
N520 H532 0.984 . S
N520 H533 0.985 . S
N521 C523 1.356 . S
N521 H526 0.984 . S
N521 H527 0.985 . S
C522 C516 1.379 . S
C522 C519 1.363 . S
C522 N520 1.356 . S
C523 C517 1.363 . S
C523 C518 1.379 . S
C523 N521 1.356 . S
N524 C516 1.356 . S
N524 H530 0.984 . S
N524 H531 0.984 . S
N525 C518 1.356 . S
N525 H528 0.984 . S
N525 H529 0.985 . S
H526 N521 0.984 . S
H527 N521 0.985 . S
H528 N525 0.984 . S
H529 N525 0.985 . S
H530 N524 0.984 . S
H531 N524 0.984 . S
H532 N520 0.984 . S
H533 N520 0.985 . S
C534 C535 1.363 . S
C534 C540 1.379 . S
C534 N542 1.356 . S
C535 C534 1.363 . S
C535 C541 1.363 . S
C536 C537 1.363 . S
C536 C541 1.379 . S
C536 N543 1.356 . S
C537 C536 1.363 . S
C537 C540 1.363 . S
N538 C540 1.356 . S
N538 H550 0.984 . S
N538 H551 0.985 . S
N539 C541 1.356 . S
N539 H544 0.984 . S
N539 H545 0.985 . S
C540 C534 1.379 . S
C540 C537 1.363 . S
C540 N538 1.356 . S
C541 C535 1.363 . S
C541 C536 1.379 . S
C541 N539 1.356 . S
N542 C534 1.356 . S
N542 H548 0.984 . S
N542 H549 0.984 . S
N543 C536 1.356 . S
N543 H546 0.984 . S
N543 H547 0.985 . S
H544 N539 0.984 . S
H545 N539 0.985 . S
H546 N543 0.984 . S
H547 N543 0.985 . S
H548 N542 0.984 . S
H549 N542 0.984 . S
H550 N538 0.984 . S
H551 N538 0.985 . S
C552 C553 1.363 . S
C552 C558 1.379 . S
C552 N560 1.356 . S
C553 C552 1.363 . S
C553 C559 1.363 . S
C554 C555 1.363 . S
C554 C559 1.379 . S
C554 N561 1.356 . S
C555 C554 1.363 . S
C555 C558 1.363 . S
N556 C558 1.356 . S
N556 H568 0.984 . S
N556 H569 0.985 . S
N557 C559 1.356 . S
N557 H562 0.984 . S
N557 H563 0.985 . S
C558 C552 1.379 . S
C558 C555 1.363 . S
C558 N556 1.356 . S
C559 C553 1.363 . S
C559 C554 1.379 . S
C559 N557 1.356 . S
N560 C552 1.356 . S
N560 H566 0.984 . S
N560 H567 0.984 . S
N561 C554 1.356 . S
N561 H564 0.984 . S
N561 H565 0.985 . S
H562 N557 0.984 . S
H563 N557 0.985 . S
H564 N561 0.984 . S
H565 N561 0.985 . S
H566 N560 0.984 . S
H567 N560 0.984 . S
H568 N556 0.984 . S
H569 N556 0.985 . S
C570 C571 1.363 . S
C570 C576 1.379 . S
C570 N578 1.356 . S
C571 C570 1.363 . S
C571 C577 1.363 . S
C572 C573 1.363 . S
C572 C577 1.379 . S
C572 N579 1.356 . S
C573 C572 1.363 . S
C573 C576 1.363 . S
N574 C576 1.356 . S
N574 H586 0.984 . S
N574 H587 0.985 . S
N575 C577 1.356 . S
N575 H580 0.984 . S
N575 H581 0.985 . S
C576 C570 1.379 . S
C576 C573 1.363 . S
C576 N574 1.356 . S
C577 C571 1.363 . S
C577 C572 1.379 . S
C577 N575 1.356 . S
N578 C570 1.356 . S
N578 H584 0.984 . S
N578 H585 0.984 . S
N579 C572 1.356 . S
N579 H582 0.984 . S
N579 H583 0.985 . S
H580 N575 0.984 . S
H581 N575 0.985 . S
H582 N579 0.984 . S
H583 N579 0.985 . S
H584 N578 0.984 . S
H585 N578 0.984 . S
H586 N574 0.984 . S
H587 N574 0.985 . S
C588 C589 1.363 . S
C588 C594 1.379 . S
C588 N596 1.356 . S
C589 C588 1.363 . S
C589 C595 1.363 . S
C590 C591 1.363 . S
C590 C595 1.379 . S
C590 N597 1.356 . S
C591 C590 1.363 . S
C591 C594 1.363 . S
N592 C594 1.356 . S
N592 H604 0.984 . S
N592 H605 0.985 . S
N593 C595 1.356 . S
N593 H598 0.984 . S
N593 H599 0.985 . S
C594 C588 1.379 . S
C594 C591 1.363 . S
C594 N592 1.356 . S
C595 C589 1.363 . S
C595 C590 1.379 . S
C595 N593 1.356 . S
N596 C588 1.356 . S
N596 H602 0.984 . S
N596 H603 0.984 . S
N597 C590 1.356 . S
N597 H600 0.984 . S
N597 H601 0.985 . S
H598 N593 0.984 . S
H599 N593 0.985 . S
H600 N597 0.984 . S
H601 N597 0.985 . S
H602 N596 0.984 . S
H603 N596 0.984 . S
H604 N592 0.984 . S
H605 N592 0.985 . S
C606 C607 1.363 . S
C606 C612 1.379 . S
C606 N614 1.356 . S
C607 C606 1.363 . S
C607 C613 1.363 . S
C608 C609 1.363 . S
C608 C613 1.379 . S
C608 N615 1.356 . S
C609 C608 1.363 . S
C609 C612 1.363 . S
N610 C612 1.356 . S
N610 H622 0.984 . S
N610 H623 0.985 . S
N611 C613 1.356 . S
N611 H616 0.984 . S
N611 H617 0.985 . S
C612 C606 1.379 . S
C612 C609 1.363 . S
C612 N610 1.356 . S
C613 C607 1.363 . S
C613 C608 1.379 . S
C613 N611 1.356 . S
N614 C606 1.356 . S
N614 H620 0.984 . S
N614 H621 0.984 . S
N615 C608 1.356 . S
N615 H618 0.984 . S
N615 H619 0.985 . S
H616 N611 0.984 . S
H617 N611 0.985 . S
H618 N615 0.984 . S
H619 N615 0.985 . S
H620 N614 0.984 . S
H621 N614 0.984 . S
H622 N610 0.984 . S
H623 N610 0.985 . S
C624 C625 1.363 . S
C624 C630 1.379 . S
C624 N632 1.356 . S
C625 C624 1.363 . S
C625 C631 1.363 . S
C626 C627 1.363 . S
C626 C631 1.379 . S
C626 N633 1.356 . S
C627 C626 1.363 . S
C627 C630 1.363 . S
N628 C630 1.356 . S
N628 H640 0.984 . S
N628 H641 0.985 . S
N629 C631 1.356 . S
N629 H634 0.984 . S
N629 H635 0.985 . S
C630 C624 1.379 . S
C630 C627 1.363 . S
C630 N628 1.356 . S
C631 C625 1.363 . S
C631 C626 1.379 . S
C631 N629 1.356 . S
N632 C624 1.356 . S
N632 H638 0.984 . S
N632 H639 0.984 . S
N633 C626 1.356 . S
N633 H636 0.984 . S
N633 H637 0.985 . S
H634 N629 0.984 . S
H635 N629 0.985 . S
H636 N633 0.984 . S
H637 N633 0.985 . S
H638 N632 0.984 . S
H639 N632 0.984 . S
H640 N628 0.984 . S
H641 N628 0.985 . S
C642 C643 1.363 . S
C642 C648 1.379 . S
C642 N650 1.356 . S
C643 C642 1.363 . S
C643 C649 1.363 . S
C644 C645 1.363 . S
C644 C649 1.379 . S
C644 N651 1.356 . S
C645 C644 1.363 . S
C645 C648 1.363 . S
N646 C648 1.356 . S
N646 H658 0.984 . S
N646 H659 0.985 . S
N647 C649 1.356 . S
N647 H652 0.984 . S
N647 H653 0.985 . S
C648 C642 1.379 . S
C648 C645 1.363 . S
C648 N646 1.356 . S
C649 C643 1.363 . S
C649 C644 1.379 . S
C649 N647 1.356 . S
N650 C642 1.356 . S
N650 H656 0.984 . S
N650 H657 0.984 . S
N651 C644 1.356 . S
N651 H654 0.984 . S
N651 H655 0.985 . S
H652 N647 0.984 . S
H653 N647 0.985 . S
H654 N651 0.984 . S
H655 N651 0.985 . S
H656 N650 0.984 . S
H657 N650 0.984 . S
H658 N646 0.984 . S
H659 N646 0.985 . S
C660 C661 1.363 . S
C660 C666 1.379 . S
C660 N668 1.356 . S
C661 C660 1.363 . S
C661 C667 1.363 . S
C662 C663 1.363 . S
C662 C667 1.379 . S
C662 N669 1.356 . S
C663 C662 1.363 . S
C663 C666 1.363 . S
N664 C666 1.356 . S
N664 H676 0.984 . S
N664 H677 0.985 . S
N665 C667 1.356 . S
N665 H670 0.984 . S
N665 H671 0.985 . S
C666 C660 1.379 . S
C666 C663 1.363 . S
C666 N664 1.356 . S
C667 C661 1.363 . S
C667 C662 1.379 . S
C667 N665 1.356 . S
N668 C660 1.356 . S
N668 H674 0.984 . S
N668 H675 0.984 . S
N669 C662 1.356 . S
N669 H672 0.984 . S
N669 H673 0.985 . S
H670 N665 0.984 . S
H671 N665 0.985 . S
H672 N669 0.984 . S
H673 N669 0.985 . S
H674 N668 0.984 . S
H675 N668 0.984 . S
H676 N664 0.984 . S
H677 N664 0.985 . S
C678 C679 1.363 . S
C678 C684 1.379 . S
C678 N686 1.356 . S
C679 C678 1.363 . S
C679 C685 1.363 . S
C680 C681 1.363 . S
C680 C685 1.379 . S
C680 N687 1.356 . S
C681 C680 1.363 . S
C681 C684 1.363 . S
N682 C684 1.356 . S
N682 H694 0.984 . S
N682 H695 0.985 . S
N683 C685 1.356 . S
N683 H688 0.984 . S
N683 H689 0.985 . S
C684 C678 1.379 . S
C684 C681 1.363 . S
C684 N682 1.356 . S
C685 C679 1.363 . S
C685 C680 1.379 . S
C685 N683 1.356 . S
N686 C678 1.356 . S
N686 H692 0.984 . S
N686 H693 0.984 . S
N687 C680 1.356 . S
N687 H690 0.984 . S
N687 H691 0.985 . S
H688 N683 0.984 . S
H689 N683 0.985 . S
H690 N687 0.984 . S
H691 N687 0.985 . S
H692 N686 0.984 . S
H693 N686 0.984 . S
H694 N682 0.984 . S
H695 N682 0.985 . S
C696 C697 1.363 . S
C696 C702 1.379 . S
C696 N704 1.356 . S
C697 C696 1.363 . S
C697 C703 1.363 . S
C698 C699 1.363 . S
C698 C703 1.379 . S
C698 N705 1.356 . S
C699 C698 1.363 . S
C699 C702 1.363 . S
N700 C702 1.356 . S
N700 H712 0.984 . S
N700 H713 0.985 . S
N701 C703 1.356 . S
N701 H706 0.984 . S
N701 H707 0.985 . S
C702 C696 1.379 . S
C702 C699 1.363 . S
C702 N700 1.356 . S
C703 C697 1.363 . S
C703 C698 1.379 . S
C703 N701 1.356 . S
N704 C696 1.356 . S
N704 H710 0.984 . S
N704 H711 0.984 . S
N705 C698 1.356 . S
N705 H708 0.984 . S
N705 H709 0.985 . S
H706 N701 0.984 . S
H707 N701 0.985 . S
H708 N705 0.984 . S
H709 N705 0.985 . S
H710 N704 0.984 . S
H711 N704 0.984 . S
H712 N700 0.984 . S
H713 N700 0.985 . S
C714 C715 1.363 . S
C714 C720 1.379 . S
C714 N722 1.356 . S
C715 C714 1.363 . S
C715 C721 1.363 . S
C716 C717 1.363 . S
C716 C721 1.379 . S
C716 N723 1.356 . S
C717 C716 1.363 . S
C717 C720 1.363 . S
N718 C720 1.356 . S
N718 H730 0.984 . S
N718 H731 0.985 . S
N719 C721 1.356 . S
N719 H724 0.984 . S
N719 H725 0.985 . S
C720 C714 1.379 . S
C720 C717 1.363 . S
C720 N718 1.356 . S
C721 C715 1.363 . S
C721 C716 1.379 . S
C721 N719 1.356 . S
N722 C714 1.356 . S
N722 H728 0.984 . S
N722 H729 0.984 . S
N723 C716 1.356 . S
N723 H726 0.984 . S
N723 H727 0.985 . S
H724 N719 0.984 . S
H725 N719 0.985 . S
H726 N723 0.984 . S
H727 N723 0.985 . S
H728 N722 0.984 . S
H729 N722 0.984 . S
H730 N718 0.984 . S
H731 N718 0.985 . S
C732 C733 1.363 . S
C732 C738 1.379 . S
C732 N740 1.356 . S
C733 C732 1.363 . S
C733 C739 1.363 . S
C734 C735 1.363 . S
C734 C739 1.379 . S
C734 N741 1.356 . S
C735 C734 1.363 . S
C735 C738 1.363 . S
N736 C738 1.356 . S
N736 H748 0.984 . S
N736 H749 0.985 . S
N737 C739 1.356 . S
N737 H742 0.984 . S
N737 H743 0.985 . S
C738 C732 1.379 . S
C738 C735 1.363 . S
C738 N736 1.356 . S
C739 C733 1.363 . S
C739 C734 1.379 . S
C739 N737 1.356 . S
N740 C732 1.356 . S
N740 H746 0.984 . S
N740 H747 0.984 . S
N741 C734 1.356 . S
N741 H744 0.984 . S
N741 H745 0.985 . S
H742 N737 0.984 . S
H743 N737 0.985 . S
H744 N741 0.984 . S
H745 N741 0.985 . S
H746 N740 0.984 . S
H747 N740 0.984 . S
H748 N736 0.984 . S
H749 N736 0.985 . S
C750 C751 1.363 . S
C750 C756 1.379 . S
C750 N758 1.356 . S
C751 C750 1.363 . S
C751 C757 1.363 . S
C752 C753 1.363 . S
C752 C757 1.379 . S
C752 N759 1.356 . S
C753 C752 1.363 . S
C753 C756 1.363 . S
N754 C756 1.356 . S
N754 H766 0.984 . S
N754 H767 0.985 . S
N755 C757 1.356 . S
N755 H760 0.984 . S
N755 H761 0.985 . S
C756 C750 1.379 . S
C756 C753 1.363 . S
C756 N754 1.356 . S
C757 C751 1.363 . S
C757 C752 1.379 . S
C757 N755 1.356 . S
N758 C750 1.356 . S
N758 H764 0.984 . S
N758 H765 0.984 . S
N759 C752 1.356 . S
N759 H762 0.984 . S
N759 H763 0.985 . S
H760 N755 0.984 . S
H761 N755 0.985 . S
H762 N759 0.984 . S
H763 N759 0.985 . S
H764 N758 0.984 . S
H765 N758 0.984 . S
H766 N754 0.984 . S
H767 N754 0.985 . S
C768 C769 1.363 . S
C768 C774 1.379 . S
C768 N776 1.356 . S
C769 C768 1.363 . S
C769 C775 1.363 . S
C770 C771 1.363 . S
C770 C775 1.379 . S
C770 N777 1.356 . S
C771 C770 1.363 . S
C771 C774 1.363 . S
N772 C774 1.356 . S
N772 H784 0.984 . S
N772 H785 0.985 . S
N773 C775 1.356 . S
N773 H778 0.984 . S
N773 H779 0.985 . S
C774 C768 1.379 . S
C774 C771 1.363 . S
C774 N772 1.356 . S
C775 C769 1.363 . S
C775 C770 1.379 . S
C775 N773 1.356 . S
N776 C768 1.356 . S
N776 H782 0.984 . S
N776 H783 0.984 . S
N777 C770 1.356 . S
N777 H780 0.984 . S
N777 H781 0.985 . S
H778 N773 0.984 . S
H779 N773 0.985 . S
H780 N777 0.984 . S
H781 N777 0.985 . S
H782 N776 0.984 . S
H783 N776 0.984 . S
H784 N772 0.984 . S
H785 N772 0.985 . S
C786 C787 1.363 1_556 S
C786 C792 1.379 . S
C786 N794 1.356 1_556 S
C787 C786 1.363 1_554 S
C787 C793 1.363 . S
C788 C789 1.363 . S
C788 C793 1.379 1_556 S
C788 N795 1.356 . S
C789 C788 1.363 . S
C789 C792 1.363 . S
N790 C792 1.356 . S
N790 H802 0.984 . S
N790 H803 0.985 . S
N791 C793 1.356 . S
N791 H796 0.984 . S
N791 H797 0.985 . S
C792 C786 1.379 . S
C792 C789 1.363 . S
C792 N790 1.356 . S
C793 C787 1.363 . S
C793 C788 1.379 1_554 S
C793 N791 1.356 . S
N794 C786 1.356 1_554 S
N794 H800 0.984 1_554 S
N794 H801 0.984 . S
N795 C788 1.356 . S
N795 H798 0.984 . S
N795 H799 0.985 1_556 S
H796 N791 0.984 . S
H797 N791 0.985 . S
H798 N795 0.984 . S
H799 N795 0.985 1_554 S
H800 N794 0.984 1_556 S
H801 N794 0.984 . S
H802 N790 0.984 . S
H803 N790 0.985 . S
C804 C805 1.363 . S
C804 C810 1.379 . S
C804 N812 1.356 . S
C805 C804 1.363 . S
C805 C811 1.363 . S
C806 C807 1.363 . S
C806 C811 1.379 . S
C806 N813 1.356 . S
C807 C806 1.363 . S
C807 C810 1.363 . S
N808 C810 1.356 . S
N808 H820 0.984 . S
N808 H821 0.985 . S
N809 C811 1.356 . S
N809 H814 0.984 . S
N809 H815 0.985 . S
C810 C804 1.379 . S
C810 C807 1.363 . S
C810 N808 1.356 . S
C811 C805 1.363 . S
C811 C806 1.379 . S
C811 N809 1.356 . S
N812 C804 1.356 . S
N812 H818 0.984 . S
N812 H819 0.984 . S
N813 C806 1.356 . S
N813 H816 0.984 . S
N813 H817 0.985 . S
H814 N809 0.984 . S
H815 N809 0.985 . S
H816 N813 0.984 . S
H817 N813 0.985 . S
H818 N812 0.984 . S
H819 N812 0.984 . S
H820 N808 0.984 . S
H821 N808 0.985 . S
C822 C823 1.363 . S
C822 C828 1.379 1_554 S
C822 N830 1.356 . S
C823 C822 1.363 . S
C823 C829 1.363 . S
C824 C825 1.363 . S
C824 C829 1.379 1_556 S
C824 N831 1.356 . S
C825 C824 1.363 . S
C825 C828 1.363 . S
N826 C828 1.356 . S
N826 H838 0.984 . S
N826 H839 0.985 . S
N827 C829 1.356 . S
N827 H832 0.984 . S
N827 H833 0.985 . S
C828 C822 1.379 1_556 S
C828 C825 1.363 . S
C828 N826 1.356 . S
C829 C823 1.363 . S
C829 C824 1.379 1_554 S
C829 N827 1.356 . S
N830 C822 1.356 . S
N830 H836 0.984 . S
N830 H837 0.984 . S
N831 C824 1.356 . S
N831 H834 0.984 . S
N831 H835 0.985 . S
H832 N827 0.984 . S
H833 N827 0.985 . S
H834 N831 0.984 . S
H835 N831 0.985 . S
H836 N830 0.984 . S
H837 N830 0.984 . S
H838 N826 0.984 . S
H839 N826 0.985 . S
C840 C841 1.363 . S
C840 C846 1.379 . S
C840 N848 1.356 . S
C841 C840 1.363 . S
C841 C847 1.363 . S
C842 C843 1.363 . S
C842 C847 1.379 . S
C842 N849 1.356 . S
C843 C842 1.363 . S
C843 C846 1.363 . S
N844 C846 1.356 . S
N844 H856 0.984 . S
N844 H857 0.985 . S
N845 C847 1.356 . S
N845 H850 0.984 . S
N845 H851 0.985 . S
C846 C840 1.379 . S
C846 C843 1.363 . S
C846 N844 1.356 . S
C847 C841 1.363 . S
C847 C842 1.379 . S
C847 N845 1.356 . S
N848 C840 1.356 . S
N848 H854 0.984 . S
N848 H855 0.984 . S
N849 C842 1.356 . S
N849 H852 0.984 . S
N849 H853 0.985 . S
H850 N845 0.984 . S
H851 N845 0.985 . S
H852 N849 0.984 . S
H853 N849 0.985 . S
H854 N848 0.984 . S
H855 N848 0.984 . S
H856 N844 0.984 . S
H857 N844 0.985 . S
C858 C859 1.363 . S
C858 C864 1.379 1_655 S
C858 N866 1.356 . S
C859 C858 1.363 . S
C859 C865 1.363 . S
C860 C861 1.363 . S
C860 C865 1.379 1_455 S
C860 N867 1.356 . S
C861 C860 1.363 . S
C861 C864 1.363 . S
N862 C864 1.356 . S
N862 H874 0.984 . S
N862 H875 0.985 . S
N863 C865 1.356 . S
N863 H868 0.984 . S
N863 H869 0.985 . S
C864 C858 1.379 1_455 S
C864 C861 1.363 . S
C864 N862 1.356 . S
C865 C859 1.363 . S
C865 C860 1.379 1_655 S
C865 N863 1.356 . S
N866 C858 1.356 . S
N866 H872 0.984 . S
N866 H873 0.984 . S
N867 C860 1.356 . S
N867 H870 0.984 . S
N867 H871 0.985 . S
H868 N863 0.984 . S
H869 N863 0.985 . S
H870 N867 0.984 . S
H871 N867 0.985 . S
H872 N866 0.984 . S
H873 N866 0.984 . S
H874 N862 0.984 . S
H875 N862 0.985 . S
C876 C877 1.363 1_655 S
C876 C882 1.379 . S
C876 N884 1.356 1_655 S
C877 C876 1.363 1_455 S
C877 C883 1.363 . S
C878 C879 1.363 . S
C878 C883 1.379 1_655 S
C878 N885 1.356 . S
C879 C878 1.363 . S
C879 C882 1.363 . S
N880 C882 1.356 . S
N880 H892 0.984 . S
N880 H893 0.985 . S
N881 C883 1.356 . S
N881 H886 0.984 . S
N881 H887 0.985 . S
C882 C876 1.379 . S
C882 C879 1.363 . S
C882 N880 1.356 . S
C883 C877 1.363 . S
C883 C878 1.379 1_455 S
C883 N881 1.356 . S
N884 C876 1.356 1_455 S
N884 H890 0.984 1_455 S
N884 H891 0.984 . S
N885 C878 1.356 . S
N885 H888 0.984 . S
N885 H889 0.985 1_655 S
H886 N881 0.984 . S
H887 N881 0.985 . S
H888 N885 0.984 . S
H889 N885 0.985 1_455 S
H890 N884 0.984 1_655 S
H891 N884 0.984 . S
H892 N880 0.984 . S
H893 N880 0.985 . S
C894 C895 1.363 . S
C894 C900 1.379 . S
C894 N902 1.356 . S
C895 C894 1.363 . S
C895 C901 1.363 . S
C896 C897 1.363 . S
C896 C901 1.379 . S
C896 N903 1.356 . S
C897 C896 1.363 . S
C897 C900 1.363 . S
N898 C900 1.356 . S
N898 H910 0.984 . S
N898 H911 0.985 . S
N899 C901 1.356 . S
N899 H904 0.984 . S
N899 H905 0.985 . S
C900 C894 1.379 . S
C900 C897 1.363 . S
C900 N898 1.356 . S
C901 C895 1.363 . S
C901 C896 1.379 . S
C901 N899 1.356 . S
N902 C894 1.356 . S
N902 H908 0.984 . S
N902 H909 0.984 . S
N903 C896 1.356 . S
N903 H906 0.984 . S
N903 H907 0.985 . S
H904 N899 0.984 . S
H905 N899 0.985 . S
H906 N903 0.984 . S
H907 N903 0.985 . S
H908 N902 0.984 . S
H909 N902 0.984 . S
H910 N898 0.984 . S
H911 N898 0.985 . S
C912 C913 1.363 . S
C912 C918 1.379 . S
C912 N920 1.356 . S
C913 C912 1.363 . S
C913 C919 1.363 . S
C914 C915 1.363 . S
C914 C919 1.379 . S
C914 N921 1.356 . S
C915 C914 1.363 . S
C915 C918 1.363 . S
N916 C918 1.356 . S
N916 H928 0.984 . S
N916 H929 0.985 . S
N917 C919 1.356 . S
N917 H922 0.984 . S
N917 H923 0.985 . S
C918 C912 1.379 . S
C918 C915 1.363 . S
C918 N916 1.356 . S
C919 C913 1.363 . S
C919 C914 1.379 . S
C919 N917 1.356 . S
N920 C912 1.356 . S
N920 H926 0.984 . S
N920 H927 0.984 . S
N921 C914 1.356 . S
N921 H924 0.984 . S
N921 H925 0.985 . S
H922 N917 0.984 . S
H923 N917 0.985 . S
H924 N921 0.984 . S
H925 N921 0.985 . S
H926 N920 0.984 . S
H927 N920 0.984 . S
H928 N916 0.984 . S
H929 N916 0.985 . S
C930 C931 1.363 . S
C930 C936 1.379 1_565 S
C930 N938 1.356 . S
C931 C930 1.363 . S
C931 C937 1.363 1_565 S
C932 C933 1.363 . S
C932 C937 1.379 . S
C932 N939 1.356 . S
C933 C932 1.363 . S
C933 C936 1.363 . S
N934 C936 1.356 . S
N934 H946 0.984 1_545 S
N934 H947 0.985 . S
N935 C937 1.356 1_565 S
N935 H940 0.984 . S
N935 H941 0.985 1_565 S
C936 C930 1.379 1_545 S
C936 C933 1.363 . S
C936 N934 1.356 . S
C937 C931 1.363 1_545 S
C937 C932 1.379 . S
C937 N935 1.356 1_545 S
N938 C930 1.356 . S
N938 H944 0.984 . S
N938 H945 0.984 . S
N939 C932 1.356 . S
N939 H942 0.984 . S
N939 H943 0.985 . S
H940 N935 0.984 . S
H941 N935 0.985 1_545 S
H942 N939 0.984 . S
H943 N939 0.985 . S
H944 N938 0.984 . S
H945 N938 0.984 . S
H946 N934 0.984 1_565 S
H947 N934 0.985 . S
C948 C949 1.363 . S
C948 C954 1.379 1_545 S
C948 N956 1.356 . S
C949 C948 1.363 . S
C949 C955 1.363 . S
C950 C951 1.363 . S
C950 C955 1.379 1_565 S
C950 N957 1.356 . S
C951 C950 1.363 . S
C951 C954 1.363 . S
N952 C954 1.356 . S
N952 H964 0.984 . S
N952 H965 0.985 . S
N953 C955 1.356 . S
N953 H958 0.984 . S
N953 H959 0.985 . S
C954 C948 1.379 1_565 S
C954 C951 1.363 . S
C954 N952 1.356 . S
C955 C949 1.363 . S
C955 C950 1.379 1_545 S
C955 N953 1.356 . S
N956 C948 1.356 . S
N956 H962 0.984 . S
N956 H963 0.984 . S
N957 C950 1.356 . S
N957 H960 0.984 . S
N957 H961 0.985 . S
H958 N953 0.984 . S
H959 N953 0.985 . S
H960 N957 0.984 . S
H961 N957 0.985 . S
H962 N956 0.984 . S
H963 N956 0.984 . S
H964 N952 0.984 . S
H965 N952 0.985 . S
C966 C967 1.363 . S
C966 C972 1.379 . S
C966 N974 1.356 . S
C967 C966 1.363 . S
C967 C973 1.363 . S
C968 C969 1.363 . S
C968 C973 1.379 . S
C968 N975 1.356 . S
C969 C968 1.363 . S
C969 C972 1.363 . S
N970 C972 1.356 . S
N970 H982 0.984 . S
N970 H983 0.985 . S
N971 C973 1.356 . S
N971 H976 0.984 . S
N971 H977 0.985 . S
C972 C966 1.379 . S
C972 C969 1.363 . S
C972 N970 1.356 . S
C973 C967 1.363 . S
C973 C968 1.379 . S
C973 N971 1.356 . S
N974 C966 1.356 . S
N974 H980 0.984 . S
N974 H981 0.984 . S
N975 C968 1.356 . S
N975 H978 0.984 . S
N975 H979 0.985 . S
H976 N971 0.984 . S
H977 N971 0.985 . S
H978 N975 0.984 . S
H979 N975 0.985 . S
H980 N974 0.984 . S
H981 N974 0.984 . S
H982 N970 0.984 . S
H983 N970 0.985 . S
C984 C985 1.363 . S
C984 C990 1.379 . S
C984 N992 1.356 . S
C985 C984 1.363 . S
C985 C991 1.363 . S
C986 C987 1.363 . S
C986 C991 1.379 . S
C986 N993 1.356 . S
C987 C986 1.363 . S
C987 C990 1.363 . S
N988 C990 1.356 . S
N988 H1000 0.984 . S
N988 H1001 0.985 . S
N989 C991 1.356 . S
N989 H994 0.984 . S
N989 H995 0.985 . S
C990 C984 1.379 . S
C990 C987 1.363 . S
C990 N988 1.356 . S
C991 C985 1.363 . S
C991 C986 1.379 . S
C991 N989 1.356 . S
N992 C984 1.356 . S
N992 H998 0.984 . S
N992 H999 0.984 . S
N993 C986 1.356 . S
N993 H996 0.984 . S
N993 H997 0.985 . S
H994 N989 0.984 . S
H995 N989 0.985 . S
H996 N993 0.984 . S
H997 N993 0.985 . S
H998 N992 0.984 . S
H999 N992 0.984 . S
H1000 N988 0.984 . S
H1001 N988 0.985 . S
C1002 C1003 1.363 . S
C1002 C1008 1.379 1_556 S
C1002 N1010 1.356 . S
C1003 C1002 1.363 . S
C1003 C1009 1.363 . S
C1004 C1005 1.363 . S
C1004 C1009 1.379 1_554 S
C1004 N1011 1.356 . S
C1005 C1004 1.363 . S
C1005 C1008 1.363 . S
N1006 C1008 1.356 . S
N1006 H1018 0.984 . S
N1006 H1019 0.985 . S
N1007 C1009 1.356 . S
N1007 H1012 0.984 . S
N1007 H1013 0.985 . S
C1008 C1002 1.379 1_554 S
C1008 C1005 1.363 . S
C1008 N1006 1.356 . S
C1009 C1003 1.363 . S
C1009 C1004 1.379 1_556 S
C1009 N1007 1.356 . S
N1010 C1002 1.356 . S
N1010 H1016 0.984 . S
N1010 H1017 0.984 . S
N1011 C1004 1.356 . S
N1011 H1014 0.984 . S
N1011 H1015 0.985 . S
H1012 N1007 0.984 . S
H1013 N1007 0.985 . S
H1014 N1011 0.984 . S
H1015 N1011 0.985 . S
H1016 N1010 0.984 . S
H1017 N1010 0.984 . S
H1018 N1006 0.984 . S
H1019 N1006 0.985 . S
C1020 C1021 1.363 . S
C1020 C1026 1.379 . S
C1020 N1028 1.356 . S
C1021 C1020 1.363 . S
C1021 C1027 1.363 . S
C1022 C1023 1.363 . S
C1022 C1027 1.379 . S
C1022 N1029 1.356 . S
C1023 C1022 1.363 . S
C1023 C1026 1.363 . S
N1024 C1026 1.356 . S
N1024 H1036 0.984 . S
N1024 H1037 0.985 . S
N1025 C1027 1.356 . S
N1025 H1030 0.984 . S
N1025 H1031 0.985 . S
C1026 C1020 1.379 . S
C1026 C1023 1.363 . S
C1026 N1024 1.356 . S
C1027 C1021 1.363 . S
C1027 C1022 1.379 . S
C1027 N1025 1.356 . S
N1028 C1020 1.356 . S
N1028 H1034 0.984 . S
N1028 H1035 0.984 . S
N1029 C1022 1.356 . S
N1029 H1032 0.984 . S
N1029 H1033 0.985 . S
H1030 N1025 0.984 . S
H1031 N1025 0.985 . S
H1032 N1029 0.984 . S
H1033 N1029 0.985 . S
H1034 N1028 0.984 . S
H1035 N1028 0.984 . S
H1036 N1024 0.984 . S
H1037 N1024 0.985 . S
C1038 C1039 1.363 . S
C1038 C1044 1.379 1_554 S
C1038 N1046 1.356 . S
C1039 C1038 1.363 . S
C1039 C1045 1.363 . S
C1040 C1041 1.363 . S
C1040 C1045 1.379 1_556 S
C1040 N1047 1.356 . S
C1041 C1040 1.363 . S
C1041 C1044 1.363 . S
N1042 C1044 1.356 . S
N1042 H1054 0.984 . S
N1042 H1055 0.985 . S
N1043 C1045 1.356 . S
N1043 H1048 0.984 . S
N1043 H1049 0.985 . S
C1044 C1038 1.379 1_556 S
C1044 C1041 1.363 . S
C1044 N1042 1.356 . S
C1045 C1039 1.363 . S
C1045 C1040 1.379 1_554 S
C1045 N1043 1.356 . S
N1046 C1038 1.356 . S
N1046 H1052 0.984 . S
N1046 H1053 0.984 . S
N1047 C1040 1.356 . S
N1047 H1050 0.984 . S
N1047 H1051 0.985 . S
H1048 N1043 0.984 . S
H1049 N1043 0.985 . S
H1050 N1047 0.984 . S
H1051 N1047 0.985 . S
H1052 N1046 0.984 . S
H1053 N1046 0.984 . S
H1054 N1042 0.984 . S
H1055 N1042 0.985 . S
C1056 C1057 1.363 . S
C1056 C1062 1.379 . S
C1056 N1064 1.356 . S
C1057 C1056 1.363 . S
C1057 C1063 1.363 . S
C1058 C1059 1.363 . S
C1058 C1063 1.379 . S
C1058 N1065 1.356 . S
C1059 C1058 1.363 . S
C1059 C1062 1.363 . S
N1060 C1062 1.356 . S
N1060 H1072 0.984 . S
N1060 H1073 0.985 . S
N1061 C1063 1.356 . S
N1061 H1066 0.984 . S
N1061 H1067 0.985 . S
C1062 C1056 1.379 . S
C1062 C1059 1.363 . S
C1062 N1060 1.356 . S
C1063 C1057 1.363 . S
C1063 C1058 1.379 . S
C1063 N1061 1.356 . S
N1064 C1056 1.356 . S
N1064 H1070 0.984 . S
N1064 H1071 0.984 . S
N1065 C1058 1.356 . S
N1065 H1068 0.984 . S
N1065 H1069 0.985 . S
H1066 N1061 0.984 . S
H1067 N1061 0.985 . S
H1068 N1065 0.984 . S
H1069 N1065 0.985 . S
H1070 N1064 0.984 . S
H1071 N1064 0.984 . S
H1072 N1060 0.984 . S
H1073 N1060 0.985 . S
C1074 C1075 1.363 . S
C1074 C1080 1.379 1_655 S
C1074 N1082 1.356 . S
C1075 C1074 1.363 . S
C1075 C1081 1.363 . S
C1076 C1077 1.363 . S
C1076 C1081 1.379 1_455 S
C1076 N1083 1.356 . S
C1077 C1076 1.363 . S
C1077 C1080 1.363 . S
N1078 C1080 1.356 . S
N1078 H1090 0.984 . S
N1078 H1091 0.985 . S
N1079 C1081 1.356 . S
N1079 H1084 0.984 . S
N1079 H1085 0.985 . S
C1080 C1074 1.379 1_455 S
C1080 C1077 1.363 . S
C1080 N1078 1.356 . S
C1081 C1075 1.363 . S
C1081 C1076 1.379 1_655 S
C1081 N1079 1.356 . S
N1082 C1074 1.356 . S
N1082 H1088 0.984 . S
N1082 H1089 0.984 . S
N1083 C1076 1.356 . S
N1083 H1086 0.984 . S
N1083 H1087 0.985 . S
H1084 N1079 0.984 . S
H1085 N1079 0.985 . S
H1086 N1083 0.984 . S
H1087 N1083 0.985 . S
H1088 N1082 0.984 . S
H1089 N1082 0.984 . S
H1090 N1078 0.984 . S
H1091 N1078 0.985 . S
C1092 C1093 1.363 . S
C1092 C1098 1.379 1_455 S
C1092 N1100 1.356 . S
C1093 C1092 1.363 . S
C1093 C1099 1.363 . S
C1094 C1095 1.363 . S
C1094 C1099 1.379 1_655 S
C1094 N1101 1.356 . S
C1095 C1094 1.363 . S
C1095 C1098 1.363 . S
N1096 C1098 1.356 . S
N1096 H1108 0.984 . S
N1096 H1109 0.985 . S
N1097 C1099 1.356 . S
N1097 H1102 0.984 . S
N1097 H1103 0.985 . S
C1098 C1092 1.379 1_655 S
C1098 C1095 1.363 . S
C1098 N1096 1.356 . S
C1099 C1093 1.363 . S
C1099 C1094 1.379 1_455 S
C1099 N1097 1.356 . S
N1100 C1092 1.356 . S
N1100 H1106 0.984 . S
N1100 H1107 0.984 . S
N1101 C1094 1.356 . S
N1101 H1104 0.984 . S
N1101 H1105 0.985 . S
H1102 N1097 0.984 . S
H1103 N1097 0.985 . S
H1104 N1101 0.984 . S
H1105 N1101 0.985 . S
H1106 N1100 0.984 . S
H1107 N1100 0.984 . S
H1108 N1096 0.984 . S
H1109 N1096 0.985 . S
C1110 C1111 1.363 . S
C1110 C1116 1.379 . S
C1110 N1118 1.356 . S
C1111 C1110 1.363 . S
C1111 C1117 1.363 . S
C1112 C1113 1.363 . S
C1112 C1117 1.379 . S
C1112 N1119 1.356 . S
C1113 C1112 1.363 . S
C1113 C1116 1.363 . S
N1114 C1116 1.356 . S
N1114 H1126 0.984 . S
N1114 H1127 0.985 . S
N1115 C1117 1.356 . S
N1115 H1120 0.984 . S
N1115 H1121 0.985 . S
C1116 C1110 1.379 . S
C1116 C1113 1.363 . S
C1116 N1114 1.356 . S
C1117 C1111 1.363 . S
C1117 C1112 1.379 . S
C1117 N1115 1.356 . S
N1118 C1110 1.356 . S
N1118 H1124 0.984 . S
N1118 H1125 0.984 . S
N1119 C1112 1.356 . S
N1119 H1122 0.984 . S
N1119 H1123 0.985 . S
H1120 N1115 0.984 . S
H1121 N1115 0.985 . S
H1122 N1119 0.984 . S
H1123 N1119 0.985 . S
H1124 N1118 0.984 . S
H1125 N1118 0.984 . S
H1126 N1114 0.984 . S
H1127 N1114 0.985 . S
C1128 C1129 1.363 . S
C1128 C1134 1.379 . S
C1128 N1136 1.356 . S
C1129 C1128 1.363 . S
C1129 C1135 1.363 . S
C1130 C1131 1.363 . S
C1130 C1135 1.379 . S
C1130 N1137 1.356 . S
C1131 C1130 1.363 . S
C1131 C1134 1.363 . S
N1132 C1134 1.356 . S
N1132 H1144 0.984 . S
N1132 H1145 0.985 . S
N1133 C1135 1.356 . S
N1133 H1138 0.984 . S
N1133 H1139 0.985 . S
C1134 C1128 1.379 . S
C1134 C1131 1.363 . S
C1134 N1132 1.356 . S
C1135 C1129 1.363 . S
C1135 C1130 1.379 . S
C1135 N1133 1.356 . S
N1136 C1128 1.356 . S
N1136 H1142 0.984 . S
N1136 H1143 0.984 . S
N1137 C1130 1.356 . S
N1137 H1140 0.984 . S
N1137 H1141 0.985 . S
H1138 N1133 0.984 . S
H1139 N1133 0.985 . S
H1140 N1137 0.984 . S
H1141 N1137 0.985 . S
H1142 N1136 0.984 . S
H1143 N1136 0.984 . S
H1144 N1132 0.984 . S
H1145 N1132 0.985 . S
C1146 C1147 1.363 . S
C1146 C1152 1.379 1_565 S
C1146 N1154 1.356 . S
C1147 C1146 1.363 . S
C1147 C1153 1.363 . S
C1148 C1149 1.363 . S
C1148 C1153 1.379 1_545 S
C1148 N1155 1.356 . S
C1149 C1148 1.363 . S
C1149 C1152 1.363 . S
N1150 C1152 1.356 . S
N1150 H1162 0.984 . S
N1150 H1163 0.985 . S
N1151 C1153 1.356 . S
N1151 H1156 0.984 . S
N1151 H1157 0.985 . S
C1152 C1146 1.379 1_545 S
C1152 C1149 1.363 . S
C1152 N1150 1.356 . S
C1153 C1147 1.363 . S
C1153 C1148 1.379 1_565 S
C1153 N1151 1.356 . S
N1154 C1146 1.356 . S
N1154 H1160 0.984 . S
N1154 H1161 0.984 . S
N1155 C1148 1.356 . S
N1155 H1158 0.984 . S
N1155 H1159 0.985 . S
H1156 N1151 0.984 . S
H1157 N1151 0.985 . S
H1158 N1155 0.984 . S
H1159 N1155 0.985 . S
H1160 N1154 0.984 . S
H1161 N1154 0.984 . S
H1162 N1150 0.984 . S
H1163 N1150 0.985 . S
C1164 C1165 1.363 . S
C1164 C1170 1.379 1_565 S
C1164 N1172 1.356 . S
C1165 C1164 1.363 . S
C1165 C1171 1.363 . S
C1166 C1167 1.363 . S
C1166 C1171 1.379 1_545 S
C1166 N1173 1.356 . S
C1167 C1166 1.363 . S
C1167 C1170 1.363 . S
N1168 C1170 1.356 . S
N1168 H1180 0.984 . S
N1168 H1181 0.985 . S
N1169 C1171 1.356 . S
N1169 H1174 0.984 . S
N1169 H1175 0.985 . S
C1170 C1164 1.379 1_545 S
C1170 C1167 1.363 . S
C1170 N1168 1.356 . S
C1171 C1165 1.363 . S
C1171 C1166 1.379 1_565 S
C1171 N1169 1.356 . S
N1172 C1164 1.356 . S
N1172 H1178 0.984 . S
N1172 H1179 0.984 . S
N1173 C1166 1.356 . S
N1173 H1176 0.984 . S
N1173 H1177 0.985 . S
H1174 N1169 0.984 . S
H1175 N1169 0.985 . S
H1176 N1173 0.984 . S
H1177 N1173 0.985 . S
H1178 N1172 0.984 . S
H1179 N1172 0.984 . S
H1180 N1168 0.984 . S
H1181 N1168 0.985 . S
C1182 C1183 1.363 . S
C1182 C1188 1.379 . S
C1182 N1190 1.356 . S
C1183 C1182 1.363 . S
C1183 C1189 1.363 . S
C1184 C1185 1.363 . S
C1184 C1189 1.379 . S
C1184 N1191 1.356 . S
C1185 C1184 1.363 . S
C1185 C1188 1.363 . S
N1186 C1188 1.356 . S
N1186 H1198 0.984 . S
N1186 H1199 0.985 . S
N1187 C1189 1.356 . S
N1187 H1192 0.984 . S
N1187 H1193 0.985 . S
C1188 C1182 1.379 . S
C1188 C1185 1.363 . S
C1188 N1186 1.356 . S
C1189 C1183 1.363 . S
C1189 C1184 1.379 . S
C1189 N1187 1.356 . S
N1190 C1182 1.356 . S
N1190 H1196 0.984 . S
N1190 H1197 0.984 . S
N1191 C1184 1.356 . S
N1191 H1194 0.984 . S
N1191 H1195 0.985 . S
H1192 N1187 0.984 . S
H1193 N1187 0.985 . S
H1194 N1191 0.984 . S
H1195 N1191 0.985 . S
H1196 N1190 0.984 . S
H1197 N1190 0.984 . S
H1198 N1186 0.984 . S
H1199 N1186 0.985 . S
C337 C121 1.365 . S
C339 C8 1.310 . S
C355 C22 1.310 . S
C357 C163 1.365 . S
C373 C36 1.310 . S
C375 C135 1.365 . S
C391 C50 1.310 . S
C393 C149 1.365 . S
C409 C64 1.310 . S
C411 C9 1.365 . S
C427 C23 1.365 . S
C429 C78 1.310 . S
C445 C92 1.310 . S
C447 C37 1.365 . S
C463 C51 1.365 . S
C465 C106 1.310 . S
C481 C65 1.365 . S
C483 C120 1.310 . S
C499 C93 1.365 . S
C501 C134 1.310 . S
C517 C148 1.310 . S
C519 C107 1.365 . S
C535 C79 1.365 . S
C537 C162 1.310 . S
C553 C289 1.365 . S
C555 C176 1.310 . S
C571 C190 1.310 . S
C573 C331 1.365 . S
C589 C204 1.310 . S
C591 C303 1.365 . S
C607 C317 1.365 . S
C609 C218 1.310 . S
C625 C232 1.310 . S
C627 C177 1.365 . S
C643 C191 1.365 . S
C645 C246 1.310 . S
C661 C205 1.365 . S
C663 C260 1.310 . S
C679 C274 1.310 . S
C681 C219 1.365 . S
C697 C288 1.310 . S
C699 C233 1.365 . S
C715 C261 1.365 . S
C717 C302 1.310 . S
C733 C275 1.365 . S
C735 C316 1.310 . S
C751 C330 1.310 . S
C753 C247 1.365 . S
C769 C314 1.496 . S
C771 C7 1.559 . S
C787 C300 1.496 . S
C789 C21 1.559 . S
C805 C328 1.496 . S
C807 C35 1.559 . S
C823 C49 1.559 . S
C825 C286 1.496 . S
C841 C63 1.559 . S
C843 C188 1.496 . S
C859 C174 1.496 . S
C861 C77 1.559 . S
C877 C216 1.496 . S
C879 C91 1.559 . S
C895 C202 1.496 . S
C897 C105 1.559 . S
C913 C119 1.559 . S
C915 C258 1.496 . S
C931 C230 1.496 . S
C933 C133 1.559 . S
C949 C244 1.496 . S
C951 C147 1.559 . S
C967 C272 1.496 . S
C969 C161 1.559 . S
C985 C146 1.496 . S
C987 C175 1.559 . S
C1003 C132 1.496 . S
C1005 C189 1.559 . S
C1021 C203 1.559 . S
C1023 C160 1.496 . S
C1039 C118 1.496 . S
C1041 C217 1.559 . S
C1057 C231 1.559 . S
C1059 C20 1.496 . S
C1075 C245 1.559 . S
C1077 C6 1.496 . S
C1093 C259 1.559 . S
C1095 C48 1.496 . S
C1111 C273 1.559 . S
C1113 C34 1.496 . S
C1129 C287 1.559 . S
C1131 C90 1.496 . S
C1147 C301 1.559 . S
C1149 C62 1.496 . S
C1165 C76 1.496 . S
C1167 C315 1.559 . S
C1183 C329 1.559 . S
C1185 C104 1.496 . S
