# Generated by pormake.
# Topology unh, (4)-cn, num edge types: 1
# Building blocks:
#     Node 0, Type 0, BuildingBlock: ESEHIV_clean_sbu_0, # of connection points: 4
#     Node 1, Type 0, BuildingBlock: ESEHIV_clean_sbu_0, # of connection points: 4
#     Node 2, Type 0, BuildingBlock: ESEHIV_clean_sbu_0, # of connection points: 4
#     Node 3, Type 0, BuildingBlock: ESEHIV_clean_sbu_0, # of connection points: 4
#     Node 4, Type 0, BuildingBlock: ESEHIV_clean_sbu_0, # of connection points: 4
#     Node 5, Type 0, BuildingBlock: ESEHIV_clean_sbu_0, # of connection points: 4
#     Edge 6, Type (0, 0), BuildingBlock: XUDNAN_clean_linker_2, # of connection points: 2
#     Edge 7, Type (0, 0), BuildingBlock: XUDNAN_clean_linker_2, # of connection points: 2
#     Edge 8, Type (0, 0), BuildingBlock: XUDNAN_clean_linker_2, # of connection points: 2
#     Edge 9, Type (0, 0), BuildingBlock: XUDNAN_clean_linker_2, # of connection points: 2
#     Edge 10, Type (0, 0), BuildingBlock: XUDNAN_clean_linker_2, # of connection points: 2
#     Edge 11, Type (0, 0), BuildingBlock: XUDNAN_clean_linker_2, # of connection points: 2
#     Edge 12, Type (0, 0), BuildingBlock: XUDNAN_clean_linker_2, # of connection points: 2
#     Edge 13, Type (0, 0), BuildingBlock: XUDNAN_clean_linker_2, # of connection points: 2
#     Edge 14, Type (0, 0), BuildingBlock: XUDNAN_clean_linker_2, # of connection points: 2
#     Edge 15, Type (0, 0), BuildingBlock: XUDNAN_clean_linker_2, # of connection points: 2
#     Edge 16, Type (0, 0), BuildingBlock: XUDNAN_clean_linker_2, # of connection points: 2
#     Edge 17, Type (0, 0), BuildingBlock: XUDNAN_clean_linker_2, # of connection points: 2
# Relax obj value: 0.010
# Max RMSD: 0.159
# Mean RMSD: 0.159
data_MOF--net-unh--node1-ESEHIV_clean_sbu_0--edge1-XUDNAN_clean_linker_2
_symmetry_space_group_name_H-M    P1
_symmetry_Int_Tables_number       1
_symmetry_cell_setting            triclinic
loop_
_symmetry_equiv_pos_as_xyz
'x, y, z'
_cell_length_a     50.908
_cell_length_b     50.975882
_cell_length_c     21.408998
_cell_angle_alpha  90.10404
_cell_angle_beta   89.812455
_cell_angle_gamma 120.10879
loop_
_atom_site_label
_atom_site_type_symbol
_atom_site_fract_x
_atom_site_fract_y
_atom_site_fract_z
_atom_type_partial_charge
Cu0 Cu 0.16093 0.57296 0.10366 0.0
N1 N 0.13934 0.5551 0.02952 0.0
N2 N 0.10202 0.53349 0.95812 0.0
C3 C 0.10958 0.54425 0.01736 0.0
C4 C 0.12825 0.53788 0.93253 0.0
C5 C 0.15103 0.55109 0.97642 0.0
O6 O 0.13186 0.57123 0.1663 0.0
C7 C 0.19514 0.63129 0.04255 0.0
O8 O 0.17033 0.62323 1.01027 0.0
H9 H 0.09389 0.54424 0.05155 0.0
H10 H 0.17463 0.55767 0.9699 0.0
N11 N 0.17882 0.55074 0.13272 0.0
N12 N 0.21232 0.53899 0.17271 0.0
C13 C 0.20556 0.56118 0.16296 0.0
C14 C 0.16833 0.52102 0.12347 0.0
C15 C 0.1889 0.51374 0.14785 0.0
C16 C 0.13737 0.57405 0.22471 0.0
O17 O 0.16454 0.58083 0.2439 0.0
H18 H 0.22022 0.58472 0.17559 0.0
H19 H 0.14745 0.50585 0.09944 0.0
O20 O 0.19471 0.6139 0.08582 0.0
H21 H 0.13115 0.53259 0.88496 0.0
H22 H 0.18688 0.49156 0.14693 0.0
Cu23 Cu 0.60014 0.1499 0.2618 0.0
N24 N 0.60712 0.127 0.20185 0.0
N25 N 0.59891 0.09092 0.13131 0.0
C26 C 0.58609 0.10245 0.17009 0.0
C27 C 0.62916 0.10914 0.13907 0.0
C28 C 0.63411 0.13125 0.18234 0.0
O29 O 0.56624 0.11942 0.31242 0.0
C30 C 0.58866 0.19971 0.23315 0.0
O31 O 0.59461 0.20828 0.29175 0.0
H32 H 0.56188 0.09294 0.17626 0.0
H33 H 0.65589 0.14917 0.19861 0.0
N34 N 0.6355 0.17232 0.31095 0.0
N35 N 0.67568 0.20953 0.3613 0.0
C36 C 0.65361 0.20266 0.31836 0.0
C37 C 0.6472 0.15986 0.34922 0.0
C38 C 0.67162 0.18259 0.38066 0.0
C39 C 0.56541 0.11636 0.37173 0.0
O40 O 0.58725 0.1373 0.40591 0.0
H41 H 0.65051 0.21937 0.29362 0.0
H42 H 0.63814 0.13574 0.35472 0.0
O43 O 0.58934 0.17621 0.21477 0.0
H44 H 0.64662 0.10693 0.11477 0.0
H45 H 0.68553 0.17956 0.41477 0.0
Cu46 Cu 0.45526 0.58837 0.43474 0.0
N47 N 0.4815 0.59049 0.36994 0.0
N48 N 0.50466 0.57566 0.30031 0.0
C49 C 0.48218 0.56677 0.34334 0.0
C50 C 0.51839 0.60625 0.29954 0.0
C51 C 0.50413 0.61528 0.34244 0.0
O52 O 0.45452 0.55974 0.49773 0.0
C53 C 0.39327 0.57741 0.4124 0.0
O54 O 0.39448 0.5903 0.46629 0.0
H55 H 0.46665 0.54345 0.35614 0.0
H56 H 0.51023 0.63835 0.35374 0.0
N57 N 0.4705 0.62641 0.47506 0.0
N58 N 0.47533 0.66852 0.5203 0.0
C59 C 0.45981 0.64598 0.47824 0.0
C60 C 0.49385 0.6375 0.51546 0.0
C61 C 0.49686 0.66321 0.54325 0.0
C62 C 0.47897 0.55925 0.50856 0.0
O63 O 0.50362 0.57757 0.47701 0.0
H64 H 0.44045 0.64323 0.45212 0.0
H65 H 0.50726 0.62702 0.52572 0.0
O66 O 0.41553 0.57424 0.39492 0.0
H67 H 0.53797 0.62119 0.27147 0.0
H68 H 0.51346 0.67675 0.57832 0.0
Cu69 Cu 0.88185 0.45457 0.59693 0.0
N70 N 0.90875 0.47843 0.5327 0.0
N71 N 0.94947 0.50275 0.46969 0.0
C72 C 0.93907 0.49006 0.52667 0.0
C73 C 0.92471 0.49923 0.43926 0.0
C74 C 0.89983 0.48427 0.47795 0.0
O75 O 0.90534 0.45541 0.67049 0.0
C76 C 0.83268 0.39097 0.57981 0.0
O77 O 0.82728 0.38887 0.64016 0.0
H78 H 0.95308 0.48837 0.56241 0.0
H79 H 0.87658 0.47737 0.46641 0.0
N80 N 0.85862 0.47225 0.62173 0.0
N81 N 0.8254 0.48201 0.671 0.0
C82 C 0.83436 0.4614 0.66068 0.0
C83 C 0.86496 0.50046 0.60688 0.0
C84 C 0.84465 0.50652 0.63696 0.0
C85 C 0.9271 0.4498 0.67239 0.0
O86 O 0.93297 0.43829 0.62293 0.0
H87 H 0.82418 0.43934 0.68267 0.0
H88 H 0.88355 0.51586 0.57715 0.0
O89 O 0.85472 0.41526 0.55737 0.0
H90 H 0.92443 0.50667 0.3921 0.0
H91 H 0.84417 0.52747 0.6341 0.0
Cu92 Cu 0.43923 0.87608 0.7594 0.0
N93 N 0.43339 0.89915 0.69819 0.0
N94 N 0.44129 0.93271 0.62231 0.0
C95 C 0.4541 0.92468 0.66839 0.0
C96 C 0.41151 0.91153 0.62377 0.0
C97 C 0.40679 0.89094 0.67004 0.0
O98 O 0.47163 0.904 0.81626 0.0
C99 C 0.4556 0.82945 0.73356 0.0
O100 O 0.46066 0.82915 0.79361 0.0
H101 H 0.47817 0.93632 0.67846 0.0
H102 H 0.38551 0.87077 0.68112 0.0
N103 N 0.40267 0.85348 0.80474 0.0
N104 N 0.36296 0.81624 0.85621 0.0
C105 C 0.39065 0.82555 0.83055 0.0
C106 C 0.38197 0.86206 0.81526 0.0
C107 C 0.35752 0.83921 0.84652 0.0
C108 C 0.46886 0.92482 0.84356 0.0
O109 O 0.44444 0.92663 0.83252 0.0
H110 H 0.40161 0.81205 0.82936 0.0
H111 H 0.38433 0.88342 0.80053 0.0
O112 O 0.44782 0.84797 0.71264 0.0
H113 H 0.39429 0.91065 0.59289 0.0
H114 H 0.33739 0.83959 0.86153 0.0
Cu115 Cu 0.58278 0.4311 0.93546 0.0
N116 N 0.56542 0.43573 0.86147 0.0
N117 N 0.54366 0.45053 0.78917 0.0
C118 C 0.54995 0.4505 0.85067 0.0
C119 C 0.55521 0.4349 0.76068 0.0
C120 C 0.56844 0.42582 0.80508 0.0
O121 O 0.57424 0.45062 1.00579 0.0
C122 C 0.63517 0.43163 0.88762 0.0
O123 O 0.61495 0.40387 0.87125 0.0
H124 H 0.54426 0.46177 0.88659 0.0
H125 H 0.57997 0.41323 0.79656 0.0
N126 N 0.56456 0.38943 0.95391 0.0
N127 N 0.55615 0.34404 0.98659 0.0
C128 C 0.575 0.37447 0.98888 0.0
C129 C 0.53815 0.36776 0.92974 0.0
C130 C 0.53298 0.33988 0.94952 0.0
C131 C 0.57915 0.47776 1.00729 0.0
O132 O 0.59307 0.49592 0.95997 0.0
H133 H 0.59654 0.38553 0.01311 0.0
H134 H 0.52398 0.37195 0.89856 0.0
O135 O 0.62636 0.44741 0.91834 0.0
H136 H 0.5543 0.43046 0.71104 0.0
H137 H 0.51376 0.31813 0.93692 0.0
H138 H 0.08355 0.50002 0.84994 0.0
H139 H 0.05304 0.53818 0.99541 0.0
H140 H 1.00389 0.51806 0.94182 0.0
H141 H 0.05012 0.51774 0.72297 0.0
H142 H 0.04015 0.48352 0.68021 0.0
H143 H 0.07224 0.49933 0.73211 0.0
H144 H 0.04911 0.44822 0.79143 0.0
H145 H 1.01686 0.43227 0.73982 0.0
H146 H 1.01124 0.43174 0.82308 0.0
H147 H 0.95834 0.49555 0.86912 0.0
H148 H 0.92116 0.47358 0.7833 0.0
H149 H 0.9816 0.45076 0.68441 0.0
C150 C 0.06673 0.50432 0.87087 0.0
C151 C 0.07263 0.52087 0.92755 0.0
C152 C 0.04938 0.52539 0.95282 0.0
C153 C 1.02126 0.51409 0.92244 0.0
C154 C 1.01643 0.49816 0.86661 0.0
C155 C 0.03856 0.49328 0.84109 0.0
C156 C 0.02807 0.47629 0.77953 0.0
C157 C 0.04888 0.49536 0.72553 0.0
C158 C 0.02621 0.44529 0.78375 0.0
C159 C 0.9967 0.47268 0.77394 0.0
C160 C 0.99033 0.48528 0.82485 0.0
C161 C 0.96308 0.48547 0.82928 0.0
C162 C 0.94203 0.47286 0.78019 0.0
C163 C 0.94821 0.4602 0.72695 0.0
C164 C 0.97588 0.45989 0.72455 0.0
H165 H 0.46715 0.96981 0.91125 0.0
H166 H 0.52421 0.9307 0.87416 0.0
H167 H 0.56334 0.96849 0.945 0.0
H168 H 0.52669 0.04742 0.91669 0.0
H169 H 0.50951 0.0576 0.97882 0.0
H170 H 0.486 0.02726 0.92611 0.0
H171 H 0.46176 0.9908 0.01994 0.0
H172 H 0.48521 0.02103 0.07297 0.0
H173 H 0.48585 0.98601 0.0747 0.0
H174 H 0.59669 1.01148 0.01924 0.0
H175 H 0.62121 0.05527 0.09055 0.0
H176 H 0.54227 0.06641 0.0792 0.0
C177 C 0.48782 0.96906 0.91797 0.0
C178 C 0.49251 0.94713 0.88685 0.0
C179 C 0.51998 0.94713 0.89731 0.0
C180 C 0.54236 0.96856 0.93753 0.0
C181 C 0.53696 0.98985 0.96725 0.0
C182 C 0.51031 0.99018 0.95802 0.0
C183 C 0.51007 0.01548 0.99522 0.0
C184 C 0.50795 0.03829 0.9516 0.0
C185 C 0.48419 1.00255 0.04358 0.0
C186 C 0.54085 0.02952 0.02673 0.0
C187 C 0.55601 0.0144 1.00996 0.0
C188 C 0.58498 0.02344 0.03251 0.0
C189 C 0.59884 0.04856 0.07286 0.0
C190 C 0.58388 0.06461 0.0907 0.0
C191 C 0.55432 0.05463 0.06728 0.0
H192 H 0.53602 0.589 0.18966 0.0
H193 H 0.49347 0.51911 0.3314 0.0
H194 H 0.50846 0.48698 0.27289 0.0
H195 H 0.51524 0.53889 0.05761 0.0
H196 H 0.55054 0.56176 0.01663 0.0
H197 H 0.53647 0.57934 0.0697 0.0
H198 H 0.58704 0.60301 0.13104 0.0
H199 H 0.60125 0.58544 0.07821 0.0
H200 H 0.60038 0.57876 0.16103 0.0
H201 H 0.5282 0.46212 0.19856 0.0
H202 H 0.55014 0.44628 0.11355 0.0
H203 H 0.58061 0.53245 0.02044 0.0
C204 C 0.52999 0.56704 0.20876 0.0
C205 C 0.51334 0.55671 0.26541 0.0
C206 C 0.50571 0.52755 0.2879 0.0
C207 C 0.51436 0.50914 0.25511 0.0
C208 C 0.53072 0.52005 0.19964 0.0
C209 C 0.53843 0.54832 0.17656 0.0
C210 C 0.55588 0.55454 0.11551 0.0
C211 C 0.53849 0.55888 0.06169 0.0
C212 C 0.58805 0.58207 0.12185 0.0
C213 C 0.55676 0.52535 0.10784 0.0
C214 C 0.54215 0.50578 0.15697 0.0
C215 C 0.53973 0.47732 0.15994 0.0
C216 C 0.55233 0.46852 0.11133 0.0
C217 C 0.56726 0.48806 0.0601 0.0
C218 C 0.56955 0.51696 0.0589 0.0
H219 H 0.96654 0.50802 0.34683 0.0
H220 H 1.00231 0.52697 0.53557 0.0
H221 H 0.05428 0.54857 0.49325 0.0
H222 H 1.0181 0.48636 0.28512 0.0
H223 H 0.02143 0.50359 0.20987 0.0
H224 H 0.98714 0.49016 0.25501 0.0
H225 H 0.99256 0.54341 0.24921 0.0
H226 H 0.02691 0.55702 0.2041 0.0
H227 H 0.02721 0.57603 0.27539 0.0
H228 H 0.1026 0.56764 0.42999 0.0
H229 H 0.1431 0.58152 0.35159 0.0
H230 H 0.07599 0.55083 0.2036 0.0
C231 C 0.98522 0.51703 0.37948 0.0
C232 C 0.98006 0.51577 0.44489 0.0
C233 C 1.00541 0.52733 0.48551 0.0
C234 C 0.03512 0.53985 0.46181 0.0
C235 C 0.03928 0.54072 0.39723 0.0
C236 C 1.01501 0.52958 0.35663 0.0
C237 C 0.02558 0.53262 0.28922 0.0
C238 C 1.01227 0.50132 0.25799 0.0
C239 C 1.01759 0.55352 0.25231 0.0
C240 C 0.05963 0.54716 0.29816 0.0
C241 C 0.06705 0.5517 0.36084 0.0
C242 C 0.09701 0.56426 0.38081 0.0
C243 C 0.11991 0.57211 0.33577 0.0
C244 C 0.1129 0.56743 0.27119 0.0
C245 C 0.08226 0.55498 0.25243 0.0
H246 H 0.56348 0.09675 0.49271 0.0
H247 H 0.51439 0.07031 0.31712 0.0
H248 H 0.47746 0.02088 0.36299 0.0
H249 H 0.55498 0.02458 0.52809 0.0
H250 H 0.55023 0.02695 0.611 0.0
H251 H 0.57203 0.06105 0.56604 0.0
H252 H 0.53775 0.08175 0.60548 0.0
H253 H 0.51599 0.0478 0.651 0.0
H254 H 0.4972 0.05926 0.59527 0.0
H255 H 0.44678 0.97383 0.42621 0.0
H256 H 0.42364 0.93239 0.50293 0.0
H257 H 0.49243 0.98827 0.63849 0.0
C258 C 0.54473 0.08075 0.4641 0.0
C259 C 0.5418 0.08762 0.4012 0.0
C260 C 0.51713 0.06576 0.36533 0.0
C261 C 0.49603 0.03756 0.391 0.0
C262 C 0.49986 0.03137 0.45267 0.0
C263 C 0.52351 0.05234 0.48891 0.0
C264 C 0.5228 0.03956 0.55346 0.0
C265 C 0.55173 0.03794 0.56531 0.0
C266 C 0.51815 0.0582 0.60431 0.0
C267 C 0.49513 1.00807 0.54769 0.0
C268 C 0.48224 1.00397 0.48915 0.0
C269 C 0.45655 0.97688 0.47231 0.0
C270 C 0.44346 0.95347 0.51649 0.0
C271 C 0.45596 0.95702 0.57716 0.0
C272 C 0.48239 0.98473 0.59255 0.0
H273 H 0.55755 0.47693 0.67497 0.0
H274 H 0.49772 0.45825 0.83364 0.0
H275 H 0.47217 0.48199 0.7778 0.0
H276 H 0.5672 0.54975 0.63918 0.0
H277 H 0.56852 0.545 0.55599 0.0
H278 H 0.58093 0.52587 0.60846 0.0
H279 H 0.54296 0.47439 0.55764 0.0
H280 H 0.53025 0.49336 0.50533 0.0
H281 H 0.50324 0.46294 0.55423 0.0
H282 H 0.45227 0.50717 0.70023 0.0
H283 H 0.44415 0.53558 0.61536 0.0
H284 H 0.51884 0.53858 0.51148 0.0
C285 C 0.53891 0.47759 0.69788 0.0
C286 C 0.5294 0.46543 0.75846 0.0
C287 C 0.5054 0.46746 0.78733 0.0
C288 C 0.49066 0.48073 0.75574 0.0
C289 C 0.50041 0.49215 0.69554 0.0
C290 C 0.5243 0.49099 0.66744 0.0
C291 C 0.5315 0.50581 0.60371 0.0
C292 C 0.56395 0.53324 0.60176 0.0
C293 C 0.52669 0.48275 0.5522 0.0
C294 C 0.50799 0.5156 0.59995 0.0
C295 C 0.48991 0.50727 0.65281 0.0
C296 C 0.46644 0.51385 0.65887 0.0
C297 C 0.46184 0.52982 0.61032 0.0
C298 C 0.48091 0.5394 0.55693 0.0
C299 C 0.50397 0.53177 0.55184 0.0
H300 H 0.24533 0.5746 0.27099 0.0
H301 H 0.24107 0.50911 0.13597 0.0
H302 H 0.28666 0.51189 0.18263 0.0
H303 H 0.32764 0.62072 0.27794 0.0
H304 H 0.32856 0.62731 0.36086 0.0
H305 H 0.29606 0.62095 0.31575 0.0
H306 H 0.26095 0.57661 0.389 0.0
H307 H 0.29335 0.58276 0.43419 0.0
H308 H 0.26839 0.54594 0.40104 0.0
H309 H 0.33316 0.52217 0.24251 0.0
H310 H 0.37641 0.53784 0.3142 0.0
H311 H 0.34998 0.59506 0.4147 0.0
C312 C 0.25421 0.56109 0.25106 0.0
C313 C 0.23958 0.54161 0.19971 0.0
C314 C 0.25166 0.52394 0.17552 0.0
C315 C 0.27765 0.52548 0.20159 0.0
C316 C 0.29135 0.5446 0.25244 0.0
C317 C 0.28002 0.56201 0.27725 0.0
C318 C 0.29871 0.58001 0.33327 0.0
C319 C 0.31363 0.61428 0.32121 0.0
C320 C 0.27918 0.57077 0.3929 0.0
C321 C 0.3223 0.57006 0.33583 0.0
C322 C 0.31771 0.54979 0.2884 0.0
C323 C 0.33689 0.53791 0.28004 0.0
C324 C 0.36144 0.54697 0.32105 0.0
C325 C 0.36658 0.56751 0.3705 0.0
C326 C 0.34653 0.57905 0.37791 0.0
H327 H 0.69797 0.22553 0.4793 0.0
H328 H 0.70614 0.26067 0.29175 0.0
H329 H 0.74787 0.31067 0.32685 0.0
H330 H 0.71142 0.29428 0.5587 0.0
H331 H 0.73202 0.28979 0.62215 0.0
H332 H 0.70313 0.2569 0.58189 0.0
H333 H 0.74216 0.23974 0.55826 0.0
H334 H 0.77122 0.27266 0.59811 0.0
H335 H 0.77704 0.26527 0.51838 0.0
H336 H 0.79062 0.35611 0.38175 0.0
H337 H 0.82734 0.39508 0.45353 0.0
H338 H 0.78961 0.33145 0.60765 0.0
C339 C 0.70861 0.24377 0.44565 0.0
C340 C 0.69893 0.23915 0.38254 0.0
C341 C 0.71306 0.26373 0.34021 0.0
C342 C 0.7369 0.29213 0.35974 0.0
C343 C 0.74609 0.29581 0.42209 0.0
C344 C 0.73206 0.27242 0.46466 0.0
C345 C 0.74561 0.28259 0.52942 0.0
C346 C 0.72161 0.28078 0.57577 0.0
C347 C 0.75985 0.26395 0.55237 0.0
C348 C 0.76975 0.31527 0.51658 0.0
C349 C 0.76981 0.32232 0.45422 0.0
C350 C 0.79057 0.35086 0.43073 0.0
C351 C 0.81149 0.37285 0.47198 0.0
C352 C 0.81146 0.3665 0.53651 0.0
C353 C 0.79022 0.33717 0.55878 0.0
H354 H 0.47479 0.7886 0.75964 0.0
H355 H 0.43965 0.81939 0.6097 0.0
H356 H 0.44016 0.78126 0.53916 0.0
H357 H 0.52529 0.77499 0.66357 0.0
H358 H 0.51858 0.74182 0.70659 0.0
H359 H 0.51531 0.77147 0.74524 0.0
H360 H 0.46052 0.73237 0.77972 0.0
H361 H 0.4636 0.70262 0.741 0.0
H362 H 0.43299 0.70925 0.72161 0.0
H363 H 0.4432 0.73819 0.48497 0.0
H364 H 0.45155 0.69639 0.45114 0.0
H365 H 0.48552 0.69461 0.63561 0.0
C366 C 0.46728 0.78744 0.71194 0.0
C367 C 0.45715 0.80714 0.6905 0.0
C368 C 0.44757 0.80471 0.6275 0.0
C369 C 0.4477 0.78301 0.58697 0.0
C370 C 0.45761 0.76384 0.60972 0.0
C371 C 0.46743 0.76601 0.67066 0.0
C372 C 0.47728 0.74293 0.68337 0.0
C373 C 0.51113 0.75876 0.7007 0.0
C374 C 0.45741 0.72046 0.73445 0.0
C375 C 0.47151 0.72748 0.62017 0.0
C376 C 0.45994 0.73966 0.57835 0.0
C377 C 0.45238 0.7286 0.51737 0.0
C378 C 0.45704 0.70473 0.49857 0.0
C379 C 0.46943 0.69228 0.54032 0.0
C380 C 0.47653 0.70388 0.60203 0.0
H381 H 0.66002 0.40242 0.82386 0.0
H382 H 0.68285 0.49017 0.90077 0.0
H383 H 0.73485 0.5119 0.85775 0.0
H384 H 0.73379 0.40846 0.85083 0.0
H385 H 0.73253 0.38936 0.779 0.0
H386 H 0.69777 0.38045 0.81878 0.0
H387 H 0.67792 0.39279 0.71825 0.0
H388 H 0.7126 0.4018 0.67823 0.0
H389 H 0.70029 0.42933 0.68169 0.0
H390 H 0.78348 0.52466 0.80064 0.0
H391 H 0.82513 0.52743 0.73648 0.0
H392 H 0.77099 0.43122 0.69714 0.0
C393 C 0.67599 0.42616 0.83238 0.0
C394 C 0.66722 0.44457 0.866 0.0
C395 C 0.68894 0.47555 0.87556 0.0
C396 C 0.71856 0.48809 0.8512 0.0
C397 C 0.72625 0.46935 0.81764 0.0
C398 C 0.70563 0.43899 0.80857 0.0
C399 C 0.7193 0.42393 0.7693 0.0
C400 C 0.72095 0.39908 0.80673 0.0
C401 C 0.70147 0.41122 0.70826 0.0
C402 C 0.75077 0.45065 0.75678 0.0
C403 C 0.7543 0.47662 0.78522 0.0
C404 C 0.78096 0.50441 0.77853 0.0
C405 C 0.80447 0.50579 0.7416 0.0
C406 C 0.80142 0.47957 0.71155 0.0
C407 C 0.77422 0.45157 0.72007 0.0
H408 H 0.30127 0.78448 0.85274 0.0
H409 H 0.37932 0.78392 0.93121 0.0
H410 H 0.34494 0.7371 0.99007 0.0
H411 H 0.25334 0.75807 0.9878 0.0
H412 H 0.21906 0.73471 0.94437 0.0
H413 H 0.2498 0.76802 0.90875 0.0
H414 H 0.25116 0.73545 0.81712 0.0
H415 H 0.22028 0.70208 0.85222 0.0
H416 H 0.2553 0.70304 0.83354 0.0
H417 H 0.30135 0.69121 0.04404 0.0
H418 H 0.25292 0.64766 0.08026 0.0
H419 H 0.20336 0.67721 0.96269 0.0
C420 C 0.31111 0.77453 0.88243 0.0
C421 C 0.34302 0.78797 0.88773 0.0
C422 C 0.355 0.77393 0.9262 0.0
C423 C 0.33562 0.74746 0.96008 0.0
C424 C 0.30425 0.73501 0.95436 0.0
C425 C 0.29211 0.74789 0.91574 0.0
C426 C 0.25766 0.72963 0.9162 0.0
C427 C 0.24418 0.74875 0.94076 0.0
C428 C 0.24538 0.71679 0.85089 0.0
C429 C 0.25221 0.70461 0.96171 0.0
C430 C 0.27936 0.70822 0.98361 0.0
C431 C 0.28001 0.68812 0.02684 0.0
C432 C 0.25232 0.66348 0.0474 0.0
C433 C 0.2242 0.65886 0.0244 0.0
C434 C 0.22437 0.67996 0.98121 0.0
H435 H 0.58015 0.34335 0.10056 0.0
H436 H 0.54176 0.29078 0.93191 0.0
H437 H 0.54638 0.24872 0.97651 0.0
H438 H 0.63403 0.31741 0.13192 0.0
H439 H 0.62856 0.31581 0.21535 0.0
H440 H 0.62349 0.34251 0.16937 0.0
H441 H 0.56917 0.32067 0.2142 0.0
H442 H 0.57402 0.29381 0.26007 0.0
H443 H 0.54247 0.28065 0.207 0.0
H444 H 0.5547 0.21215 0.03865 0.0
H445 H 0.56533 0.18276 0.11557 0.0
H446 H 0.59693 0.25747 0.24707 0.0
C447 C 0.57308 0.32309 0.07295 0.0
C448 C 0.56054 0.32035 0.01266 0.0
C449 C 0.55112 0.29329 0.9783 0.0
C450 C 0.55378 0.26931 1.00317 0.0
C451 C 0.56576 0.27247 0.06289 0.0
C452 C 0.57523 0.2986 0.09756 0.0
C453 C 0.58637 0.2955 0.16148 0.0
C454 C 0.62012 0.31922 0.17001 0.0
C455 C 0.56684 0.29779 0.21377 0.0
C456 C 0.58164 0.26361 0.15713 0.0
C457 C 0.56992 0.2509 0.0996 0.0
C458 C 0.56385 0.22184 0.08393 0.0
C459 C 0.56999 0.2053 0.12804 0.0
C460 C 0.58187 0.21762 0.18764 0.0
C461 C 0.58765 0.24723 0.20219 0.0
loop_
_geom_bond_atom_site_label_1
_geom_bond_atom_site_label_2
_geom_bond_distance
_geom_bond_site_symmetry_2
_ccdc_geom_bond_type
Cu0 N1 1.999 . S
Cu0 O6 1.974 . S
Cu0 N11 1.985 . S
Cu0 O20 1.959 . S
N1 Cu0 1.999 . S
N1 C3 1.263 . S
N1 C5 1.389 1_554 S
N2 C3 1.358 1_556 S
N2 C4 1.400 . S
C3 N1 1.263 . S
C3 N2 1.358 1_554 S
C3 H9 0.930 . S
C4 N2 1.400 . S
C4 C5 1.351 . S
C4 H21 0.930 . S
C5 N1 1.389 1_556 S
C5 C4 1.351 . S
C5 H10 0.930 . S
O6 Cu0 1.974 . S
O6 C16 1.282 . S
C7 O8 1.261 . S
C7 O20 1.251 . S
O8 C7 1.261 . S
H9 C3 0.930 . S
H10 C5 0.930 . S
N11 Cu0 1.985 . S
N11 C13 1.335 . S
N11 C14 1.390 . S
N12 C13 1.345 . S
N12 C15 1.336 . S
C13 N11 1.335 . S
C13 N12 1.345 . S
C13 H18 0.930 . S
C14 N11 1.390 . S
C14 C15 1.346 . S
C14 H19 0.930 . S
C15 N12 1.336 . S
C15 C14 1.346 . S
C15 H22 0.929 . S
C16 O6 1.282 . S
C16 O17 1.216 . S
O17 C16 1.216 . S
H18 C13 0.930 . S
H19 C14 0.930 . S
O20 Cu0 1.959 . S
O20 C7 1.251 . S
H21 C4 0.930 . S
H22 C15 0.929 . S
Cu23 N24 1.999 . S
Cu23 O29 1.974 . S
Cu23 N34 1.985 . S
Cu23 O43 1.959 . S
N24 Cu23 1.999 . S
N24 C26 1.263 . S
N24 C28 1.389 . S
N25 C26 1.358 . S
N25 C27 1.400 . S
C26 N24 1.263 . S
C26 N25 1.358 . S
C26 H32 0.930 . S
C27 N25 1.400 . S
C27 C28 1.351 . S
C27 H44 0.930 . S
C28 N24 1.389 . S
C28 C27 1.351 . S
C28 H33 0.930 . S
O29 Cu23 1.974 . S
O29 C39 1.282 . S
C30 O31 1.261 . S
C30 O43 1.251 . S
O31 C30 1.261 . S
H32 C26 0.930 . S
H33 C28 0.930 . S
N34 Cu23 1.985 . S
N34 C36 1.335 . S
N34 C37 1.390 . S
N35 C36 1.345 . S
N35 C38 1.336 . S
C36 N34 1.335 . S
C36 N35 1.345 . S
C36 H41 0.930 . S
C37 N34 1.390 . S
C37 C38 1.346 . S
C37 H42 0.930 . S
C38 N35 1.336 . S
C38 C37 1.346 . S
C38 H45 0.929 . S
C39 O29 1.282 . S
C39 O40 1.216 . S
O40 C39 1.216 . S
H41 C36 0.930 . S
H42 C37 0.930 . S
O43 Cu23 1.959 . S
O43 C30 1.251 . S
H44 C27 0.930 . S
H45 C38 0.929 . S
Cu46 N47 1.999 . S
Cu46 O52 1.974 . S
Cu46 N57 1.985 . S
Cu46 O66 1.959 . S
N47 Cu46 1.999 . S
N47 C49 1.263 . S
N47 C51 1.389 . S
N48 C49 1.358 . S
N48 C50 1.400 . S
C49 N47 1.263 . S
C49 N48 1.358 . S
C49 H55 0.930 . S
C50 N48 1.400 . S
C50 C51 1.351 . S
C50 H67 0.930 . S
C51 N47 1.389 . S
C51 C50 1.351 . S
C51 H56 0.930 . S
O52 Cu46 1.974 . S
O52 C62 1.282 . S
C53 O54 1.261 . S
C53 O66 1.251 . S
O54 C53 1.261 . S
H55 C49 0.930 . S
H56 C51 0.930 . S
N57 Cu46 1.985 . S
N57 C59 1.335 . S
N57 C60 1.390 . S
N58 C59 1.345 . S
N58 C61 1.336 . S
C59 N57 1.335 . S
C59 N58 1.345 . S
C59 H64 0.930 . S
C60 N57 1.390 . S
C60 C61 1.346 . S
C60 H65 0.930 . S
C61 N58 1.336 . S
C61 C60 1.346 . S
C61 H68 0.929 . S
C62 O52 1.282 . S
C62 O63 1.216 . S
O63 C62 1.216 . S
H64 C59 0.930 . S
H65 C60 0.930 . S
O66 Cu46 1.959 . S
O66 C53 1.251 . S
H67 C50 0.930 . S
H68 C61 0.929 . S
Cu69 N70 1.999 . S
Cu69 O75 1.974 . S
Cu69 N80 1.985 . S
Cu69 O89 1.959 . S
N70 Cu69 1.999 . S
N70 C72 1.263 . S
N70 C74 1.389 . S
N71 C72 1.358 . S
N71 C73 1.400 . S
C72 N70 1.263 . S
C72 N71 1.358 . S
C72 H78 0.930 . S
C73 N71 1.400 . S
C73 C74 1.351 . S
C73 H90 0.930 . S
C74 N70 1.389 . S
C74 C73 1.351 . S
C74 H79 0.930 . S
O75 Cu69 1.974 . S
O75 C85 1.282 . S
C76 O77 1.261 . S
C76 O89 1.251 . S
O77 C76 1.261 . S
H78 C72 0.930 . S
H79 C74 0.930 . S
N80 Cu69 1.985 . S
N80 C82 1.335 . S
N80 C83 1.390 . S
N81 C82 1.345 . S
N81 C84 1.336 . S
C82 N80 1.335 . S
C82 N81 1.345 . S
C82 H87 0.930 . S
C83 N80 1.390 . S
C83 C84 1.346 . S
C83 H88 0.930 . S
C84 N81 1.336 . S
C84 C83 1.346 . S
C84 H91 0.929 . S
C85 O75 1.282 . S
C85 O86 1.216 . S
O86 C85 1.216 . S
H87 C82 0.930 . S
H88 C83 0.930 . S
O89 Cu69 1.959 . S
O89 C76 1.251 . S
H90 C73 0.930 . S
H91 C84 0.929 . S
Cu92 N93 1.999 . S
Cu92 O98 1.974 . S
Cu92 N103 1.985 . S
Cu92 O112 1.959 . S
N93 Cu92 1.999 . S
N93 C95 1.263 . S
N93 C97 1.389 . S
N94 C95 1.358 . S
N94 C96 1.400 . S
C95 N93 1.263 . S
C95 N94 1.358 . S
C95 H101 0.930 . S
C96 N94 1.400 . S
C96 C97 1.351 . S
C96 H113 0.930 . S
C97 N93 1.389 . S
C97 C96 1.351 . S
C97 H102 0.930 . S
O98 Cu92 1.974 . S
O98 C108 1.282 . S
C99 O100 1.261 . S
C99 O112 1.251 . S
O100 C99 1.261 . S
H101 C95 0.930 . S
H102 C97 0.930 . S
N103 Cu92 1.985 . S
N103 C105 1.335 . S
N103 C106 1.390 . S
N104 C105 1.345 . S
N104 C107 1.336 . S
C105 N103 1.335 . S
C105 N104 1.345 . S
C105 H110 0.930 . S
C106 N103 1.390 . S
C106 C107 1.346 . S
C106 H111 0.930 . S
C107 N104 1.336 . S
C107 C106 1.346 . S
C107 H114 0.929 . S
C108 O98 1.282 . S
C108 O109 1.216 . S
O109 C108 1.216 . S
H110 C105 0.930 . S
H111 C106 0.930 . S
O112 Cu92 1.959 . S
O112 C99 1.251 . S
H113 C96 0.930 . S
H114 C107 0.929 . S
Cu115 N116 1.999 . S
Cu115 O121 1.974 . S
Cu115 N126 1.985 . S
Cu115 O135 1.959 . S
N116 Cu115 1.999 . S
N116 C118 1.263 . S
N116 C120 1.389 . S
N117 C118 1.358 . S
N117 C119 1.400 . S
C118 N116 1.263 . S
C118 N117 1.358 . S
C118 H124 0.930 . S
C119 N117 1.400 . S
C119 C120 1.351 . S
C119 H136 0.930 . S
C120 N116 1.389 . S
C120 C119 1.351 . S
C120 H125 0.930 . S
O121 Cu115 1.974 . S
O121 C131 1.282 . S
C122 O123 1.261 . S
C122 O135 1.251 . S
O123 C122 1.261 . S
H124 C118 0.930 . S
H125 C120 0.930 . S
N126 Cu115 1.985 . S
N126 C128 1.335 . S
N126 C129 1.390 1_556 S
N127 C128 1.345 1_554 S
N127 C130 1.336 . S
C128 N126 1.335 . S
C128 N127 1.345 1_556 S
C128 H133 0.930 . S
C129 N126 1.390 1_554 S
C129 C130 1.346 . S
C129 H134 0.930 . S
C130 N127 1.336 . S
C130 C129 1.346 . S
C130 H137 0.929 . S
C131 O121 1.282 . S
C131 O132 1.216 1_556 S
O132 C131 1.216 1_554 S
H133 C128 0.930 . S
H134 C129 0.930 . S
O135 Cu115 1.959 . S
O135 C122 1.251 . S
H136 C119 0.930 . S
H137 C130 0.929 . S
H138 C150 0.930 . S
H139 C152 0.930 . S
H140 C153 0.930 . S
H141 C157 0.959 1_455 S
H142 C157 0.959 . S
H143 C157 0.961 1_455 S
H144 C158 0.960 . S
H145 C158 0.961 . S
H146 C158 0.959 . S
H147 C161 0.929 . S
H148 C162 0.931 . S
H149 C164 0.930 . S
C150 H138 0.930 . S
C150 C151 1.399 . S
C150 C155 1.399 . S
C151 C150 1.399 . S
C151 C152 1.376 . S
C152 H139 0.930 . S
C152 C151 1.376 . S
C152 C153 1.388 . S
C153 H140 0.930 . S
C153 C152 1.388 . S
C153 C154 1.390 . S
C154 C153 1.390 . S
C154 C155 1.394 . S
C154 C160 1.465 1_455 S
C155 C150 1.399 . S
C155 C154 1.394 . S
C155 C156 1.516 1_455 S
C156 C155 1.516 1_655 S
C156 C157 1.502 . S
C156 C158 1.561 . S
C156 C159 1.526 . S
C157 H141 0.959 1_655 S
C157 H142 0.959 . S
C157 H143 0.961 1_655 S
C157 C156 1.502 . S
C158 H144 0.960 . S
C158 H145 0.961 . S
C158 H146 0.959 . S
C158 C156 1.561 . S
C159 C156 1.526 . S
C159 C160 1.396 . S
C159 C164 1.390 . S
C160 C154 1.465 1_655 S
C160 C159 1.396 . S
C160 C161 1.399 . S
C161 H147 0.929 . S
C161 C160 1.399 . S
C161 C162 1.385 . S
C162 H148 0.931 . S
C162 C161 1.385 . S
C162 C163 1.389 . S
C163 C162 1.389 . S
C163 C164 1.387 . S
C164 H149 0.930 . S
C164 C159 1.390 . S
C164 C163 1.387 . S
H165 C177 0.930 . S
H166 C179 0.930 . S
H167 C180 0.926 1_545 S
H168 C184 0.959 . S
H169 C184 0.959 . S
H170 C184 0.961 . S
H171 C185 0.960 . S
H172 C185 0.961 . S
H173 C185 0.959 . S
H174 C188 0.929 . S
H175 C189 0.931 . S
H176 C191 0.930 . S
C177 H165 0.930 . S
C177 C178 1.399 . S
C177 C182 1.399 . S
C178 C177 1.399 . S
C178 C179 1.376 . S
C179 H166 0.930 . S
C179 C178 1.376 . S
C179 C180 1.388 . S
C180 H167 0.926 1_565 S
C180 C179 1.388 . S
C180 C181 1.390 . S
C181 C180 1.390 . S
C181 C182 1.394 . S
C181 C187 1.465 1_565 S
C182 C177 1.399 . S
C182 C181 1.394 . S
C182 C183 1.516 1_556 S
C183 C182 1.516 1_554 S
C183 C184 1.502 . S
C183 C185 1.561 . S
C183 C186 1.526 . S
C184 H168 0.959 . S
C184 H169 0.959 . S
C184 H170 0.961 . S
C184 C183 1.502 . S
C185 H171 0.960 . S
C185 H172 0.961 . S
C185 H173 0.959 . S
C185 C183 1.561 . S
C186 C183 1.526 . S
C186 C187 1.396 1_564 S
C186 C191 1.390 1_565 S
C187 C181 1.465 1_545 S
C187 C186 1.396 1_546 S
C187 C188 1.399 . S
C188 H174 0.929 . S
C188 C187 1.399 . S
C188 C189 1.385 1_556 S
C189 H175 0.931 . S
C189 C188 1.385 1_554 S
C189 C190 1.389 . S
C190 C189 1.389 . S
C190 C191 1.387 . S
C191 H176 0.930 . S
C191 C186 1.390 1_545 S
C191 C190 1.387 . S
H192 C204 0.930 . S
H193 C206 0.930 . S
H194 C207 0.930 . S
H195 C211 0.959 . S
H196 C211 0.959 . S
H197 C211 0.961 . S
H198 C212 0.960 . S
H199 C212 0.961 . S
H200 C212 0.959 . S
H201 C215 0.929 . S
H202 C216 0.931 . S
H203 C218 0.930 . S
C204 H192 0.930 . S
C204 C205 1.399 . S
C204 C209 1.399 . S
C205 C204 1.399 . S
C205 C206 1.376 . S
C206 H193 0.930 . S
C206 C205 1.376 . S
C206 C207 1.388 . S
C207 H194 0.930 . S
C207 C206 1.388 . S
C207 C208 1.390 . S
C208 C207 1.390 . S
C208 C209 1.394 . S
C208 C214 1.465 . S
C209 C204 1.399 . S
C209 C208 1.394 . S
C209 C210 1.516 . S
C210 C209 1.516 . S
C210 C211 1.502 . S
C210 C212 1.561 . S
C210 C213 1.526 . S
C211 H195 0.959 . S
C211 H196 0.959 . S
C211 H197 0.961 . S
C211 C210 1.502 . S
C212 H198 0.960 . S
C212 H199 0.961 . S
C212 H200 0.959 . S
C212 C210 1.561 . S
C213 C210 1.526 . S
C213 C214 1.396 . S
C213 C218 1.390 . S
C214 C208 1.465 . S
C214 C213 1.396 . S
C214 C215 1.399 . S
C215 H201 0.929 . S
C215 C214 1.399 . S
C215 C216 1.385 . S
C216 H202 0.931 . S
C216 C215 1.385 . S
C216 C217 1.389 . S
C217 C216 1.389 . S
C217 C218 1.387 . S
C218 H203 0.930 . S
C218 C213 1.390 . S
C218 C217 1.387 . S
H219 C231 0.930 . S
H220 C233 0.930 . S
H221 C234 0.930 . S
H222 C238 0.959 . S
H223 C238 0.959 . S
H224 C238 0.961 . S
H225 C239 0.960 . S
H226 C239 0.961 . S
H227 C239 0.959 . S
H228 C242 0.929 . S
H229 C243 0.931 . S
H230 C245 0.930 . S
C231 H219 0.930 . S
C231 C232 1.399 . S
C231 C236 1.399 . S
C232 C231 1.399 . S
C232 C233 1.376 . S
C233 H220 0.930 . S
C233 C232 1.376 . S
C233 C234 1.388 . S
C234 H221 0.930 . S
C234 C233 1.388 . S
C234 C235 1.390 . S
C235 C234 1.390 . S
C235 C236 1.394 . S
C235 C241 1.465 1_655 S
C236 C231 1.399 . S
C236 C235 1.394 . S
C236 C237 1.516 1_655 S
C237 C236 1.516 1_455 S
C237 C238 1.502 . S
C237 C239 1.561 1_455 S
C237 C240 1.526 . S
C238 H222 0.959 . S
C238 H223 0.959 . S
C238 H224 0.961 . S
C238 C237 1.502 . S
C239 H225 0.960 . S
C239 H226 0.961 . S
C239 H227 0.959 . S
C239 C237 1.561 1_655 S
C240 C237 1.526 . S
C240 C241 1.396 . S
C240 C245 1.390 . S
C241 C235 1.465 1_455 S
C241 C240 1.396 . S
C241 C242 1.399 . S
C242 H228 0.929 . S
C242 C241 1.399 . S
C242 C243 1.385 . S
C243 H229 0.931 . S
C243 C242 1.385 . S
C243 C244 1.389 . S
C244 C243 1.389 . S
C244 C245 1.387 . S
C245 H230 0.930 . S
C245 C240 1.390 . S
C245 C244 1.387 . S
H246 C258 0.930 . S
H247 C260 0.930 . S
H248 C261 0.930 1_565 S
H249 C265 0.959 . S
H250 C265 0.959 . S
H251 C265 0.961 . S
H252 C266 0.960 . S
H253 C266 0.961 . S
H254 C266 0.959 . S
H255 C269 0.929 . S
H256 C270 0.931 . S
H257 C272 0.930 . S
C258 H246 0.930 . S
C258 C259 1.399 . S
C258 C263 1.399 . S
C259 C258 1.399 . S
C259 C260 1.376 . S
C260 H247 0.930 . S
C260 C259 1.376 . S
C260 C261 1.388 . S
C261 H248 0.930 1_545 S
C261 C260 1.388 . S
C261 C262 1.390 . S
C262 C261 1.390 . S
C262 C263 1.394 . S
C262 C268 1.465 1_545 S
C263 C258 1.399 . S
C263 C262 1.394 . S
C263 C264 1.516 . S
C264 C263 1.516 . S
C264 C265 1.502 . S
C264 C266 1.561 . S
C264 C267 1.526 . S
C265 H249 0.959 . S
C265 H250 0.959 . S
C265 H251 0.961 . S
C265 C264 1.502 . S
C266 H252 0.960 . S
C266 H253 0.961 . S
C266 H254 0.959 . S
C266 C264 1.561 . S
C267 C264 1.526 . S
C267 C268 1.396 1_545 S
C267 C272 1.390 1_545 S
C268 C262 1.465 1_565 S
C268 C267 1.396 1_565 S
C268 C269 1.399 . S
C269 H255 0.929 . S
C269 C268 1.399 . S
C269 C270 1.385 . S
C270 H256 0.931 . S
C270 C269 1.385 . S
C270 C271 1.389 . S
C271 C270 1.389 . S
C271 C272 1.387 . S
C272 H257 0.930 . S
C272 C267 1.390 1_565 S
C272 C271 1.387 . S
H273 C285 0.930 . S
H274 C287 0.930 . S
H275 C288 0.930 . S
H276 C292 0.959 . S
H277 C292 0.959 . S
H278 C292 0.961 . S
H279 C293 0.960 . S
H280 C293 0.961 . S
H281 C293 0.959 . S
H282 C296 0.929 . S
H283 C297 0.931 . S
H284 C299 0.930 . S
C285 H273 0.930 . S
C285 C286 1.399 . S
C285 C290 1.399 . S
C286 C285 1.399 . S
C286 C287 1.376 . S
C287 H274 0.930 . S
C287 C286 1.376 . S
C287 C288 1.388 . S
C288 H275 0.930 . S
C288 C287 1.388 . S
C288 C289 1.390 . S
C289 C288 1.390 . S
C289 C290 1.394 . S
C289 C295 1.465 . S
C290 C285 1.399 . S
C290 C289 1.394 . S
C290 C291 1.516 . S
C291 C290 1.516 . S
C291 C292 1.502 . S
C291 C293 1.561 . S
C291 C294 1.526 . S
C292 H276 0.959 . S
C292 H277 0.959 . S
C292 H278 0.961 . S
C292 C291 1.502 . S
C293 H279 0.960 . S
C293 H280 0.961 . S
C293 H281 0.959 . S
C293 C291 1.561 . S
C294 C291 1.526 . S
C294 C295 1.396 . S
C294 C299 1.390 . S
C295 C289 1.465 . S
C295 C294 1.396 . S
C295 C296 1.399 . S
C296 H282 0.929 . S
C296 C295 1.399 . S
C296 C297 1.385 . S
C297 H283 0.931 . S
C297 C296 1.385 . S
C297 C298 1.389 . S
C298 C297 1.389 . S
C298 C299 1.387 . S
C299 H284 0.930 . S
C299 C294 1.390 . S
C299 C298 1.387 . S
H300 C312 0.930 . S
H301 C314 0.930 . S
H302 C315 0.930 . S
H303 C319 0.959 . S
H304 C319 0.959 . S
H305 C319 0.961 . S
H306 C320 0.960 . S
H307 C320 0.961 . S
H308 C320 0.959 . S
H309 C323 0.929 . S
H310 C324 0.931 . S
H311 C326 0.930 . S
C312 H300 0.930 . S
C312 C313 1.399 . S
C312 C317 1.399 . S
C313 C312 1.399 . S
C313 C314 1.376 . S
C314 H301 0.930 . S
C314 C313 1.376 . S
C314 C315 1.388 . S
C315 H302 0.930 . S
C315 C314 1.388 . S
C315 C316 1.390 . S
C316 C315 1.390 . S
C316 C317 1.394 . S
C316 C322 1.465 . S
C317 C312 1.399 . S
C317 C316 1.394 . S
C317 C318 1.516 . S
C318 C317 1.516 . S
C318 C319 1.502 . S
C318 C320 1.561 . S
C318 C321 1.526 . S
C319 H303 0.959 . S
C319 H304 0.959 . S
C319 H305 0.961 . S
C319 C318 1.502 . S
C320 H306 0.960 . S
C320 H307 0.961 . S
C320 H308 0.959 . S
C320 C318 1.561 . S
C321 C318 1.526 . S
C321 C322 1.396 . S
C321 C326 1.390 . S
C322 C316 1.465 . S
C322 C321 1.396 . S
C322 C323 1.399 . S
C323 H309 0.929 . S
C323 C322 1.399 . S
C323 C324 1.385 . S
C324 H310 0.931 . S
C324 C323 1.385 . S
C324 C325 1.389 . S
C325 C324 1.389 . S
C325 C326 1.387 . S
C326 H311 0.930 . S
C326 C321 1.390 . S
C326 C325 1.387 . S
H327 C339 0.930 . S
H328 C341 0.930 . S
H329 C342 0.930 . S
H330 C346 0.959 . S
H331 C346 0.959 . S
H332 C346 0.961 . S
H333 C347 0.960 . S
H334 C347 0.961 . S
H335 C347 0.959 . S
H336 C350 0.929 . S
H337 C351 0.931 . S
H338 C353 0.930 . S
C339 H327 0.930 . S
C339 C340 1.399 . S
C339 C344 1.399 . S
C340 C339 1.399 . S
C340 C341 1.376 . S
C341 H328 0.930 . S
C341 C340 1.376 . S
C341 C342 1.388 . S
C342 H329 0.930 . S
C342 C341 1.388 . S
C342 C343 1.390 . S
C343 C342 1.390 . S
C343 C344 1.394 . S
C343 C349 1.465 . S
C344 C339 1.399 . S
C344 C343 1.394 . S
C344 C345 1.516 . S
C345 C344 1.516 . S
C345 C346 1.502 . S
C345 C347 1.561 . S
C345 C348 1.526 . S
C346 H330 0.959 . S
C346 H331 0.959 . S
C346 H332 0.961 . S
C346 C345 1.502 . S
C347 H333 0.960 . S
C347 H334 0.961 . S
C347 H335 0.959 . S
C347 C345 1.561 . S
C348 C345 1.526 . S
C348 C349 1.396 . S
C348 C353 1.390 . S
C349 C343 1.465 . S
C349 C348 1.396 . S
C349 C350 1.399 . S
C350 H336 0.929 . S
C350 C349 1.399 . S
C350 C351 1.385 . S
C351 H337 0.931 . S
C351 C350 1.385 . S
C351 C352 1.389 . S
C352 C351 1.389 . S
C352 C353 1.387 . S
C353 H338 0.930 . S
C353 C348 1.390 . S
C353 C352 1.387 . S
H354 C366 0.930 . S
H355 C368 0.930 . S
H356 C369 0.930 . S
H357 C373 0.959 . S
H358 C373 0.959 . S
H359 C373 0.961 . S
H360 C374 0.960 . S
H361 C374 0.961 . S
H362 C374 0.959 . S
H363 C377 0.929 . S
H364 C378 0.931 . S
H365 C380 0.930 . S
C366 H354 0.930 . S
C366 C367 1.399 . S
C366 C371 1.399 . S
C367 C366 1.399 . S
C367 C368 1.376 . S
C368 H355 0.930 . S
C368 C367 1.376 . S
C368 C369 1.388 . S
C369 H356 0.930 . S
C369 C368 1.388 . S
C369 C370 1.390 . S
C370 C369 1.390 . S
C370 C371 1.394 . S
C370 C376 1.465 . S
C371 C366 1.399 . S
C371 C370 1.394 . S
C371 C372 1.516 . S
C372 C371 1.516 . S
C372 C373 1.502 . S
C372 C374 1.561 . S
C372 C375 1.526 . S
C373 H357 0.959 . S
C373 H358 0.959 . S
C373 H359 0.961 . S
C373 C372 1.502 . S
C374 H360 0.960 . S
C374 H361 0.961 . S
C374 H362 0.959 . S
C374 C372 1.561 . S
C375 C372 1.526 . S
C375 C376 1.396 . S
C375 C380 1.390 . S
C376 C370 1.465 . S
C376 C375 1.396 . S
C376 C377 1.399 . S
C377 H363 0.929 . S
C377 C376 1.399 . S
C377 C378 1.385 . S
C378 H364 0.931 . S
C378 C377 1.385 . S
C378 C379 1.389 . S
C379 C378 1.389 . S
C379 C380 1.387 . S
C380 H365 0.930 . S
C380 C375 1.390 . S
C380 C379 1.387 . S
H381 C393 0.930 . S
H382 C395 0.930 . S
H383 C396 0.930 . S
H384 C400 0.959 . S
H385 C400 0.959 . S
H386 C400 0.961 . S
H387 C401 0.960 . S
H388 C401 0.961 . S
H389 C401 0.959 . S
H390 C404 0.929 . S
H391 C405 0.931 . S
H392 C407 0.930 . S
C393 H381 0.930 . S
C393 C394 1.399 . S
C393 C398 1.399 . S
C394 C393 1.399 . S
C394 C395 1.376 . S
C395 H382 0.930 . S
C395 C394 1.376 . S
C395 C396 1.388 . S
C396 H383 0.930 . S
C396 C395 1.388 . S
C396 C397 1.390 . S
C397 C396 1.390 . S
C397 C398 1.394 . S
C397 C403 1.465 . S
C398 C393 1.399 . S
C398 C397 1.394 . S
C398 C399 1.516 . S
C399 C398 1.516 . S
C399 C400 1.502 . S
C399 C401 1.561 . S
C399 C402 1.526 . S
C400 H384 0.959 . S
C400 H385 0.959 . S
C400 H386 0.961 . S
C400 C399 1.502 . S
C401 H387 0.960 . S
C401 H388 0.961 . S
C401 H389 0.959 . S
C401 C399 1.561 . S
C402 C399 1.526 . S
C402 C403 1.396 . S
C402 C407 1.390 . S
C403 C397 1.465 . S
C403 C402 1.396 . S
C403 C404 1.399 . S
C404 H390 0.929 . S
C404 C403 1.399 . S
C404 C405 1.385 . S
C405 H391 0.931 . S
C405 C404 1.385 . S
C405 C406 1.389 . S
C406 C405 1.389 . S
C406 C407 1.387 . S
C407 H392 0.930 . S
C407 C402 1.390 . S
C407 C406 1.387 . S
H408 C420 0.930 . S
H409 C422 0.930 . S
H410 C423 0.930 1_554 S
H411 C427 0.959 . S
H412 C427 0.959 . S
H413 C427 0.961 . S
H414 C428 0.960 . S
H415 C428 0.961 . S
H416 C428 0.959 . S
H417 C431 0.929 . S
H418 C432 0.931 . S
H419 C434 0.930 . S
C420 H408 0.930 . S
C420 C421 1.399 . S
C420 C425 1.399 . S
C421 C420 1.399 . S
C421 C422 1.376 . S
C422 H409 0.930 . S
C422 C421 1.376 . S
C422 C423 1.388 . S
C423 H410 0.930 1_556 S
C423 C422 1.388 . S
C423 C424 1.390 . S
C424 C423 1.390 . S
C424 C425 1.394 . S
C424 C430 1.465 . S
C425 C420 1.399 . S
C425 C424 1.394 . S
C425 C426 1.516 . S
C426 C425 1.516 . S
C426 C427 1.502 . S
C426 C428 1.561 . S
C426 C429 1.526 . S
C427 H411 0.959 . S
C427 H412 0.959 . S
C427 H413 0.961 . S
C427 C426 1.502 . S
C428 H414 0.960 . S
C428 H415 0.961 . S
C428 H416 0.959 . S
C428 C426 1.561 . S
C429 C426 1.526 . S
C429 C430 1.396 . S
C429 C434 1.390 . S
C430 C424 1.465 . S
C430 C429 1.396 . S
C430 C431 1.399 1_556 S
C431 H417 0.929 . S
C431 C430 1.399 1_554 S
C431 C432 1.385 . S
C432 H418 0.931 . S
C432 C431 1.385 . S
C432 C433 1.389 1_554 S
C433 C432 1.389 1_556 S
C433 C434 1.387 . S
C434 H419 0.930 . S
C434 C429 1.390 . S
C434 C433 1.387 . S
H435 C447 0.930 . S
H436 C449 0.930 . S
H437 C450 0.930 . S
H438 C454 0.959 . S
H439 C454 0.959 . S
H440 C454 0.961 . S
H441 C455 0.960 . S
H442 C455 0.961 . S
H443 C455 0.959 . S
H444 C458 0.929 . S
H445 C459 0.931 . S
H446 C461 0.930 . S
C447 H435 0.930 . S
C447 C448 1.399 . S
C447 C452 1.399 . S
C448 C447 1.399 . S
C448 C449 1.376 . S
C449 H436 0.930 . S
C449 C448 1.376 . S
C449 C450 1.388 . S
C450 H437 0.930 . S
C450 C449 1.388 . S
C450 C451 1.390 . S
C451 C450 1.390 . S
C451 C452 1.394 . S
C451 C457 1.465 . S
C452 C447 1.399 . S
C452 C451 1.394 . S
C452 C453 1.516 . S
C453 C452 1.516 . S
C453 C454 1.502 . S
C453 C455 1.561 . S
C453 C456 1.526 . S
C454 H438 0.959 . S
C454 H439 0.959 . S
C454 H440 0.961 . S
C454 C453 1.502 . S
C455 H441 0.960 . S
C455 H442 0.961 . S
C455 H443 0.959 . S
C455 C453 1.561 . S
C456 C453 1.526 . S
C456 C457 1.396 . S
C456 C461 1.390 . S
C457 C451 1.465 . S
C457 C456 1.396 . S
C457 C458 1.399 . S
C458 H444 0.929 . S
C458 C457 1.399 . S
C458 C459 1.385 . S
C459 H445 0.931 . S
C459 C458 1.385 . S
C459 C460 1.389 . S
C460 C459 1.389 . S
C460 C461 1.387 . S
C461 H446 0.930 . S
C461 C456 1.390 . S
C461 C460 1.387 . S
C151 N2 1.665 . S
C163 C85 1.715 . S
C178 C108 1.683 . S
C190 N25 1.589 . S
C205 N48 1.674 . S
C217 C131 1.698 1_554 S
C232 N71 1.594 . S
C244 C16 1.669 . S
C259 C39 1.695 . S
C271 N94 1.594 . S
C286 N117 1.659 . S
C298 C62 1.676 . S
C313 N12 1.575 . S
C325 C53 1.590 . S
C340 N35 1.608 . S
C352 C76 1.623 . S
C367 C99 1.624 . S
C379 N58 1.611 . S
C394 C122 1.599 . S
C406 N81 1.580 . S
C421 N104 1.610 . S
C433 C7 1.608 1_556 S
C448 N127 1.576 . S
C460 C30 1.595 . S
