# Generated by pormake.
# Topology uol, (4)-cn, num edge types: 1
# Building blocks:
#     Node 0, Type 0, BuildingBlock: MUDLON_clean_sbu_0, # of connection points: 4
#     Node 1, Type 0, BuildingBlock: MUDLON_clean_sbu_0, # of connection points: 4
#     Node 2, Type 0, BuildingBlock: MUDLON_clean_sbu_0, # of connection points: 4
#     Node 3, Type 0, BuildingBlock: MUDLON_clean_sbu_0, # of connection points: 4
#     Node 4, Type 0, BuildingBlock: MUDLON_clean_sbu_0, # of connection points: 4
#     Node 5, Type 0, BuildingBlock: MUDLON_clean_sbu_0, # of connection points: 4
#     Node 6, Type 0, BuildingBlock: MUDLON_clean_sbu_0, # of connection points: 4
#     Node 7, Type 0, BuildingBlock: MUDLON_clean_sbu_0, # of connection points: 4
#     Node 8, Type 0, BuildingBlock: MUDLON_clean_sbu_0, # of connection points: 4
#     Node 9, Type 0, BuildingBlock: MUDLON_clean_sbu_0, # of connection points: 4
#     Node 10, Type 0, BuildingBlock: MUDLON_clean_sbu_0, # of connection points: 4
#     Node 11, Type 0, BuildingBlock: MUDLON_clean_sbu_0, # of connection points: 4
#     Edge 12, Type (0, 0), BuildingBlock: XIVTED_clean_linker_0, # of connection points: 2
#     Edge 13, Type (0, 0), BuildingBlock: XIVTED_clean_linker_0, # of connection points: 2
#     Edge 14, Type (0, 0), BuildingBlock: XIVTED_clean_linker_0, # of connection points: 2
#     Edge 15, Type (0, 0), BuildingBlock: XIVTED_clean_linker_0, # of connection points: 2
#     Edge 16, Type (0, 0), BuildingBlock: XIVTED_clean_linker_0, # of connection points: 2
#     Edge 17, Type (0, 0), BuildingBlock: XIVTED_clean_linker_0, # of connection points: 2
#     Edge 18, Type (0, 0), BuildingBlock: XIVTED_clean_linker_0, # of connection points: 2
#     Edge 19, Type (0, 0), BuildingBlock: XIVTED_clean_linker_0, # of connection points: 2
#     Edge 20, Type (0, 0), BuildingBlock: XIVTED_clean_linker_0, # of connection points: 2
#     Edge 21, Type (0, 0), BuildingBlock: XIVTED_clean_linker_0, # of connection points: 2
#     Edge 22, Type (0, 0), BuildingBlock: XIVTED_clean_linker_0, # of connection points: 2
#     Edge 23, Type (0, 0), BuildingBlock: XIVTED_clean_linker_0, # of connection points: 2
#     Edge 24, Type (0, 0), BuildingBlock: XIVTED_clean_linker_0, # of connection points: 2
#     Edge 25, Type (0, 0), BuildingBlock: XIVTED_clean_linker_0, # of connection points: 2
#     Edge 26, Type (0, 0), BuildingBlock: XIVTED_clean_linker_0, # of connection points: 2
#     Edge 27, Type (0, 0), BuildingBlock: XIVTED_clean_linker_0, # of connection points: 2
#     Edge 28, Type (0, 0), BuildingBlock: XIVTED_clean_linker_0, # of connection points: 2
#     Edge 29, Type (0, 0), BuildingBlock: XIVTED_clean_linker_0, # of connection points: 2
#     Edge 30, Type (0, 0), BuildingBlock: XIVTED_clean_linker_0, # of connection points: 2
#     Edge 31, Type (0, 0), BuildingBlock: XIVTED_clean_linker_0, # of connection points: 2
#     Edge 32, Type (0, 0), BuildingBlock: XIVTED_clean_linker_0, # of connection points: 2
#     Edge 33, Type (0, 0), BuildingBlock: XIVTED_clean_linker_0, # of connection points: 2
#     Edge 34, Type (0, 0), BuildingBlock: XIVTED_clean_linker_0, # of connection points: 2
#     Edge 35, Type (0, 0), BuildingBlock: XIVTED_clean_linker_0, # of connection points: 2
# Relax obj value: 0.129
# Max RMSD: 0.264
# Mean RMSD: 0.264
data_MOF--net-uol--node1-MUDLON_clean_sbu_0--edge1-XIVTED_clean_linker_0
_symmetry_space_group_name_H-M    P1
_symmetry_Int_Tables_number       1
_symmetry_cell_setting            triclinic
loop_
_symmetry_equiv_pos_as_xyz
'x, y, z'
_cell_length_a     33.574447
_cell_length_b     33.601168
_cell_length_c     71.892935
_cell_angle_alpha  90.170423
_cell_angle_beta   89.94002
_cell_angle_gamma 120.23237
loop_
_atom_site_label
_atom_site_type_symbol
_atom_site_fract_x
_atom_site_fract_y
_atom_site_fract_z
_atom_type_partial_charge
Mg0 Mg 0.15577 0.34255 0.11797 0.0
C1 C 0.09915 0.31666 0.15165 0.0
O2 O 0.13328 0.35858 0.15489 0.0
C3 C 0.17812 0.3468 0.07781 0.0
O4 O 0.19905 0.39051 0.08259 0.0
C5 C 0.12609 0.41197 0.11449 0.0
O6 O 0.08663 0.37294 0.11394 0.0
O7 O 0.16307 0.41067 0.1164 0.0
O8 O 0.09683 0.29884 0.13576 0.0
O9 O 0.21409 0.34244 0.13099 0.0
C10 C 0.23785 0.36699 0.14466 0.0
O11 O 0.2299 0.39864 0.15146 0.0
O12 O 0.15365 0.31675 0.08991 0.0
Mg13 Mg 0.81401 0.1391 0.28592 0.0
C14 C 0.8619 0.19997 0.31971 0.0
O15 O 0.82451 0.16908 0.32832 0.0
C16 C 0.71801 0.12334 0.29172 0.0
O17 O 0.71993 0.09905 0.30562 0.0
C18 C 0.89155 0.15972 0.26019 0.0
O19 O 0.91159 0.1682 0.27657 0.0
O20 O 0.84821 0.14351 0.25952 0.0
O21 O 0.86482 0.19701 0.30219 0.0
O22 O 0.79588 0.07751 0.30223 0.0
C23 C 0.82662 0.07546 0.31184 0.0
O24 O 0.86965 0.10887 0.31039 0.0
O25 O 0.75288 0.1445 0.28115 0.0
Mg26 Mg 0.66973 0.8081 0.45379 0.0
C27 C 0.68089 0.89737 0.46946 0.0
O28 O 0.69772 0.91239 0.45279 0.0
C29 C 0.57625 0.7396 0.43762 0.0
O30 O 0.58826 0.77344 0.42576 0.0
C31 C 0.73469 0.86695 0.42252 0.0
O32 O 0.76645 0.87299 0.43469 0.0
O33 O 0.69244 0.84118 0.42673 0.0
O34 O 0.66456 0.85499 0.47322 0.0
O35 O 0.71905 0.79325 0.46711 0.0
C36 C 0.70928 0.75207 0.47021 0.0
O37 O 0.67057 0.718 0.46358 0.0
O38 O 0.60344 0.74478 0.45092 0.0
Mg39 Mg 0.88518 0.68261 0.61544 0.0
C40 C 0.95566 0.75865 0.64071 0.0
O41 O 0.9242 0.77096 0.64087 0.0
C42 C 0.85033 0.68014 0.57764 0.0
O43 O 0.82882 0.63672 0.58274 0.0
C44 C 0.86644 0.58343 0.62106 0.0
O45 O 0.85419 0.58801 0.63793 0.0
O46 O 0.87968 0.61644 0.60959 0.0
O47 O 0.94938 0.7249 0.63053 0.0
O48 O 0.82899 0.67722 0.63233 0.0
C49 C 0.82819 0.67405 0.64996 0.0
O50 O 0.86078 0.67023 0.65841 0.0
O51 O 0.87942 0.71021 0.5888 0.0
Mg52 Mg 0.2172 0.88118 0.78409 0.0
C53 C 0.16463 0.82247 0.81728 0.0
O54 O 0.20213 0.85282 0.82604 0.0
C55 C 0.30173 0.88953 0.76562 0.0
O56 O 0.29389 0.91627 0.75478 0.0
C57 C 0.17991 0.85074 0.74589 0.0
O58 O 0.19476 0.8224 0.75007 0.0
O59 O 0.18592 0.88176 0.7576 0.0
O60 O 0.16262 0.82499 0.7997 0.0
O61 O 0.23926 0.94321 0.80085 0.0
C62 C 0.27897 0.96298 0.80837 0.0
O63 O 0.30701 0.94734 0.80479 0.0
O64 O 0.27478 0.86968 0.77925 0.0
Mg65 Mg 0.35254 0.20952 0.95472 0.0
C66 C 0.32585 0.11422 0.96721 0.0
O67 O 0.3034 0.10524 0.95138 0.0
C68 C 0.43549 0.29656 0.94029 0.0
O69 O 0.40931 0.28443 0.92538 0.0
C70 C 0.36322 0.1741 0.91827 0.0
O71 O 0.40242 0.18598 0.92667 0.0
O72 O 0.33398 0.18135 0.92659 0.0
O73 O 0.35132 0.15602 0.97217 0.0
O74 O 0.3031 0.22484 0.96779 0.0
C75 C 0.31277 0.26605 0.97087 0.0
O76 O 0.35167 0.30009 0.96443 0.0
O77 O 0.42076 0.27141 0.95473 0.0
Mg78 Mg 0.67067 0.86342 0.75413 0.0
C79 C 0.66854 0.80562 0.72151 0.0
O80 O 0.66094 0.83529 0.71264 0.0
C81 C 0.58554 0.86803 0.74242 0.0
O82 O 0.60924 0.88399 0.72697 0.0
C83 C 0.72952 0.86063 0.78571 0.0
O84 O 0.75736 0.86617 0.77184 0.0
O85 O 0.6924 0.86078 0.78239 0.0
O86 O 0.67131 0.8076 0.73915 0.0
O87 O 0.71747 0.92525 0.73861 0.0
C88 C 0.71507 0.96183 0.73866 0.0
O89 O 0.68556 0.96464 0.74982 0.0
O90 O 0.60231 0.85579 0.75558 0.0
Mg91 Mg 0.82223 0.68008 0.92268 0.0
C92 C 0.77229 0.71998 0.90057 0.0
O93 O 0.73526 0.68334 0.90686 0.0
C94 C 0.85967 0.68284 0.96067 0.0
O95 O 0.85093 0.64223 0.95467 0.0
C96 C 0.73582 0.59708 0.93842 0.0
O97 O 0.74985 0.62194 0.9537 0.0
O98 O 0.75936 0.61275 0.9236 0.0
O99 O 0.81177 0.7278 0.9058 0.0
O100 O 0.87709 0.67649 0.90825 0.0
C101 C 0.87575 0.67248 0.89064 0.0
O102 O 0.83877 0.66597 0.88173 0.0
O103 O 0.84947 0.70703 0.95029 0.0
Mg104 Mg 0.1529 0.80634 0.09062 0.0
C105 C 0.20301 0.85026 0.05508 0.0
O106 O 0.17356 0.80878 0.0489 0.0
C107 C 0.12661 0.70928 0.09798 0.0
O108 O 0.08795 0.70906 0.10114 0.0
C109 C 0.159 0.87236 0.12147 0.0
O110 O 0.1481 0.89108 0.10783 0.0
O111 O 0.16123 0.8363 0.11825 0.0
O112 O 0.20376 0.85863 0.07237 0.0
O113 O 0.08609 0.78263 0.07749 0.0
C114 C 0.0786 0.80931 0.06744 0.0
O115 O 0.11007 0.8532 0.06664 0.0
O116 O 0.16192 0.74677 0.093 0.0
Mg117 Mg 0.36053 0.15841 0.25299 0.0
C118 C 0.36925 0.21254 0.21859 0.0
O119 O 0.3694 0.17683 0.21116 0.0
C120 C 0.42868 0.13495 0.26846 0.0
O121 O 0.39388 0.11304 0.27997 0.0
C122 C 0.30129 0.15928 0.2856 0.0
O123 O 0.26734 0.13901 0.27359 0.0
O124 O 0.34164 0.16901 0.28078 0.0
O125 O 0.36845 0.21547 0.2362 0.0
O126 O 0.30792 0.09735 0.23845 0.0
C127 C 0.31448 0.0647 0.23353 0.0
O128 O 0.35209 0.06532 0.23902 0.0
O129 O 0.42477 0.15755 0.25513 0.0
Mg130 Mg 0.20691 0.34006 0.42327 0.0
C131 C 0.26103 0.30866 0.3992 0.0
O132 O 0.29552 0.34917 0.40404 0.0
C133 C 0.1741 0.33482 0.46242 0.0
O134 O 0.19277 0.37909 0.45906 0.0
C135 C 0.27985 0.44106 0.41709 0.0
O136 O 0.25252 0.43646 0.40317 0.0
O137 O 0.26907 0.40678 0.42763 0.0
O138 O 0.22123 0.29536 0.40593 0.0
O139 O 0.1535 0.34521 0.40835 0.0
C140 C 0.15397 0.3464 0.39067 0.0
O141 O 0.18942 0.34901 0.38178 0.0
O142 O 0.17631 0.30906 0.44994 0.0
Mg143 Mg 0.87457 0.20817 0.59107 0.0
C144 C 0.79603 0.12029 0.57444 0.0
O145 O 0.79549 0.10482 0.59126 0.0
C146 C 0.87879 0.30013 0.58587 0.0
O147 O 0.89789 0.2992 0.57003 0.0
C148 C 0.84193 0.17474 0.62969 0.0
O149 O 0.82508 0.20202 0.62684 0.0
O150 O 0.86607 0.17074 0.61695 0.0
O151 O 0.82397 0.16243 0.57084 0.0
O152 O 0.94121 0.23342 0.57759 0.0
C153 C 0.94676 0.20695 0.56653 0.0
O154 O 0.91361 0.16383 0.56495 0.0
O155 O 0.8654 0.26653 0.59704 0.0
H156 H 0.2019 0.6974 0.09546 0.0
H157 H 0.05262 0.42561 0.11356 0.0
H158 H 0.0554 0.62331 0.10597 0.0
H159 H 0.20127 0.49927 0.11083 0.0
H160 H 0.05359 0.49801 0.10959 0.0
H161 H 0.20301 0.62554 0.09977 0.0
C162 C 0.17 0.66609 0.09865 0.0
C163 C 0.12849 0.66644 0.10035 0.0
C164 C 0.08607 0.4985 0.1099 0.0
C165 C 0.12952 0.58422 0.10528 0.0
C166 C 0.08555 0.45705 0.11214 0.0
C167 C 0.12694 0.45628 0.11253 0.0
C168 C 0.12829 0.53973 0.1079 0.0
C169 C 0.16853 0.49826 0.11065 0.0
C170 C 0.17068 0.62513 0.10115 0.0
C171 C 0.08823 0.62483 0.10453 0.0
N172 N 0.16816 0.5383 0.10836 0.0
N173 N 0.08977 0.58553 0.10681 0.0
H174 H 0.6372 0.08051 0.31128 0.0
H175 H 0.50875 0.17779 0.248 0.0
H176 H 0.70154 0.1702 0.26432 0.0
H177 H 0.44664 0.08867 0.2953 0.0
H178 H 0.57947 0.17525 0.25341 0.0
H179 H 0.56703 0.08308 0.30537 0.0
C180 C 0.63664 0.10083 0.29973 0.0
C181 C 0.67543 0.1252 0.2883 0.0
C182 C 0.55033 0.15624 0.26258 0.0
C183 C 0.59486 0.12827 0.2814 0.0
C184 C 0.50992 0.15765 0.2595 0.0
C185 C 0.47166 0.13346 0.27123 0.0
C186 C 0.5525 0.13044 0.2775 0.0
C187 C 0.47521 0.10794 0.2859 0.0
C188 C 0.59647 0.10225 0.29634 0.0
C189 C 0.67251 0.15087 0.27351 0.0
N190 N 0.51484 0.10714 0.28861 0.0
N191 N 0.63294 0.15174 0.27049 0.0
H192 H 0.54145 0.66139 0.45894 0.0
H193 H 0.3136 0.52057 0.39688 0.0
H194 H 0.51042 0.71745 0.4108 0.0
H195 H 0.3446 0.46299 0.44453 0.0
H196 H 0.38508 0.59326 0.40211 0.0
H197 H 0.46908 0.5889 0.45427 0.0
C198 C 0.51941 0.65854 0.44741 0.0
C199 C 0.53212 0.69565 0.43524 0.0
C200 C 0.37627 0.56477 0.41145 0.0
C201 C 0.44915 0.61262 0.4298 0.0
C202 C 0.33539 0.52318 0.40847 0.0
C203 C 0.32299 0.48551 0.42027 0.0
C204 C 0.40516 0.56891 0.42636 0.0
C205 C 0.35272 0.49106 0.43506 0.0
C206 C 0.47808 0.61709 0.44475 0.0
C207 C 0.50213 0.68984 0.42054 0.0
N208 N 0.39238 0.53192 0.43767 0.0
N209 N 0.46215 0.64917 0.41823 0.0
H210 H 0.89144 0.56393 0.5875 0.0
H211 H 0.84456 0.31492 0.61817 0.0
H212 H 0.84088 0.50568 0.64181 0.0
H213 H 0.90304 0.37752 0.56523 0.0
H214 H 0.83966 0.38284 0.62661 0.0
H215 H 0.89262 0.49438 0.57869 0.0
C216 C 0.88048 0.53648 0.59758 0.0
C217 C 0.86614 0.54078 0.61546 0.0
C218 C 0.85349 0.38169 0.61314 0.0
C219 C 0.86743 0.4608 0.60541 0.0
C220 C 0.85626 0.34287 0.60829 0.0
C221 C 0.87434 0.34049 0.59096 0.0
C222 C 0.86884 0.41847 0.60058 0.0
C223 C 0.88893 0.37781 0.57874 0.0
C224 C 0.8812 0.49672 0.59253 0.0
C225 C 0.85227 0.50395 0.62789 0.0
N226 N 0.88591 0.41522 0.58379 0.0
N227 N 0.85332 0.46555 0.62264 0.0
H228 H 0.54372 0.89885 0.71839 0.0
H229 H 0.33375 0.84388 0.78702 0.0
H230 H 0.52698 0.83651 0.7724 0.0
H231 H 0.36105 0.921 0.73606 0.0
H232 H 0.40108 0.83573 0.78097 0.0
H233 H 0.47333 0.90174 0.72363 0.0
C234 C 0.52514 0.88551 0.73132 0.0
C235 C 0.54146 0.86753 0.745 0.0
C236 C 0.39227 0.85436 0.7711 0.0
C237 C 0.46071 0.87089 0.75111 0.0
C238 C 0.35378 0.85898 0.77453 0.0
C239 C 0.34176 0.88328 0.76206 0.0
C240 C 0.41885 0.87399 0.75503 0.0
C241 C 0.36906 0.90212 0.74611 0.0
C242 C 0.48496 0.8873 0.73432 0.0
C243 C 0.51581 0.85078 0.76148 0.0
N244 N 0.40625 0.89709 0.74307 0.0
N245 N 0.47681 0.85295 0.76408 0.0
H246 H 0.49278 0.34008 0.96997 0.0
H247 H 0.68909 0.5426 0.9085 0.0
H248 H 0.48191 0.35128 0.91062 0.0
H249 H 0.68406 0.54805 0.9684 0.0
H250 H 0.61699 0.46854 0.90893 0.0
H251 H 0.56681 0.41237 0.96957 0.0
C252 C 0.50601 0.35761 0.95684 0.0
C253 C 0.48099 0.3396 0.9403 0.0
C254 C 0.63168 0.48594 0.92198 0.0
C255 C 0.56577 0.42231 0.93975 0.0
C256 C 0.67294 0.52818 0.92175 0.0
C257 C 0.69265 0.5517 0.93844 0.0
C258 C 0.6101 0.46677 0.93903 0.0
C259 C 0.67005 0.5313 0.95519 0.0
C260 C 0.54821 0.39896 0.95664 0.0
C261 C 0.49985 0.36392 0.92372 0.0
N262 N 0.63008 0.49002 0.95505 0.0
N263 N 0.54108 0.40392 0.92386 0.0
H264 H 0.36405 0.21277 0.18061 0.0
H265 H 0.27793 0.39552 0.17908 0.0
H266 H 0.3589 0.2853 0.22939 0.0
H267 H 0.26882 0.31033 0.13236 0.0
H268 H 0.32034 0.36595 0.19638 0.0
H269 H 0.34224 0.25872 0.16155 0.0
C270 C 0.35892 0.23876 0.18731 0.0
C271 C 0.36274 0.24473 0.20668 0.0
C272 C 0.30952 0.35417 0.18226 0.0
C273 C 0.33735 0.29733 0.18489 0.0
C274 C 0.28546 0.37118 0.17235 0.0
C275 C 0.26929 0.35496 0.15432 0.0
C276 C 0.31758 0.32085 0.17406 0.0
C277 C 0.28012 0.32342 0.1463 0.0
C278 C 0.34634 0.26495 0.1764 0.0
C279 C 0.35596 0.27922 0.21453 0.0
N280 N 0.3032 0.30714 0.15627 0.0
N281 N 0.34311 0.30387 0.20363 0.0
H282 H 0.87055 0.21317 0.35752 0.0
H283 H 0.14449 0.35103 0.35307 0.0
H284 H 0.94794 0.26085 0.30641 0.0
H285 H 0.06809 0.32057 0.40446 0.0
H286 H 0.07294 0.32499 0.33582 0.0
H287 H 0.94197 0.25876 0.37504 0.0
C288 C 0.90241 0.23372 0.34997 0.0
C289 C 0.90327 0.23271 0.33046 0.0
C290 C 0.07184 0.32453 0.35088 0.0
C291 C 0.98527 0.28462 0.35044 0.0
C292 C 0.11275 0.33943 0.36075 0.0
C293 C 0.11225 0.33748 0.38024 0.0
C294 C 0.02995 0.30702 0.36055 0.0
C295 C 0.0701 0.32241 0.38943 0.0
C296 C 0.94323 0.25975 0.35999 0.0
C297 C 0.9456 0.26024 0.32144 0.0
N298 N 0.03055 0.30715 0.3795 0.0
N299 N 0.98492 0.28455 0.3315 0.0
H300 H 0.73524 0.02753 0.57694 0.0
H301 H 0.71845 0.99087 0.46678 0.0
H302 H 0.79568 0.13895 0.53734 0.0
H303 H 0.65853 0.87945 0.50639 0.0
H304 H 0.73833 0.04576 0.49233 0.0
H305 H 0.69852 0.97326 0.5513 0.0
C306 C 0.7404 0.04069 0.56288 0.0
C307 C 0.76903 0.08787 0.5593 0.0
C308 C 0.7204 1.00929 0.49543 0.0
C309 C 0.72726 0.02577 0.52982 0.0
C310 C 0.70895 0.97786 0.48082 0.0
C311 C 0.68726 0.93044 0.48445 0.0
C312 C 0.7103 0.99324 0.51382 0.0
C313 C 0.67557 0.91568 0.50293 0.0
C314 C 0.71943 1.00963 0.54822 0.0
C315 C 0.77418 0.10287 0.54077 0.0
N316 N 0.68767 0.94698 0.51693 0.0
N317 N 0.75391 0.07189 0.52673 0.0
H318 H 0.81781 0.67215 0.68786 0.0
H319 H 0.66376 0.79062 0.68391 0.0
H320 H 0.76367 0.69416 0.63693 0.0
H321 H 0.70235 0.75228 0.73517 0.0
H322 H 0.69438 0.74931 0.66657 0.0
H323 H 0.77034 0.69505 0.70554 0.0
C324 C 0.79553 0.68124 0.68038 0.0
C325 C 0.79516 0.6817 0.66086 0.0
C326 C 0.69567 0.74943 0.68162 0.0
C327 C 0.74099 0.70841 0.68104 0.0
C328 C 0.67815 0.77304 0.69154 0.0
C329 C 0.6809 0.77536 0.71103 0.0
C330 C 0.71655 0.72834 0.69122 0.0
C331 C 0.69971 0.75166 0.72015 0.0
C332 C 0.76842 0.69434 0.6905 0.0
C333 C 0.76539 0.6936 0.65195 0.0
N334 N 0.71733 0.72965 0.71017 0.0
N335 N 0.73996 0.70698 0.6621 0.0
H336 H 0.96206 0.70013 0.90441 0.0
H337 H 0.07896 0.76078 0.80369 0.0
H338 H 0.88575 0.66897 0.85295 0.0
H339 H 0.15513 0.8101 0.85506 0.0
H340 H 1.0085 0.71477 0.82158 0.0
H341 H 0.03318 0.72794 0.88657 0.0
C342 C 0.96011 0.69849 0.88937 0.0
C343 C 0.91787 0.68272 0.88017 0.0
C344 C 0.0407 0.7353 0.82894 0.0
C345 C 0.99929 0.71478 0.85967 0.0
C346 C 0.08103 0.76154 0.81874 0.0
C347 C 0.12301 0.78986 0.82788 0.0
C348 C 0.04227 0.7373 0.84846 0.0
C349 C 0.12351 0.78914 0.84741 0.0
C350 C 1.0008 0.71454 0.87919 0.0
C351 C 0.91754 0.68124 0.86065 0.0
N352 N 0.08369 0.76365 0.85704 0.0
N353 N 0.95766 0.69749 0.85105 0.0
H354 H 0.20463 0.84542 1.0171 0.0
H355 H 0.35222 0.11894 1.00374 0.0
H356 H 0.26267 0.94163 0.06279 0.0
H357 H 0.27959 0.02212 0.95945 0.0
H358 H 0.3298 0.05424 0.02502 0.0
H359 H 0.24208 0.90949 0.99534 0.0
C360 C 0.22566 0.87996 0.02258 0.0
C361 C 0.2301 0.88815 0.04183 0.0
C362 C 0.31915 0.0472 1.0106 0.0
C363 C 0.27293 0.96187 1.01692 0.0
C364 C 0.33205 0.08412 0.99843 0.0
C365 C 0.31736 0.07596 0.97982 0.0
C366 C 0.2915 1.00184 1.00409 0.0
C367 C 0.29132 0.0301 0.97372 0.0
C368 C 0.24697 0.91659 1.01012 0.0
C369 C 0.25802 0.9337 0.04807 0.0
N370 N 0.27901 0.99485 0.98583 0.0
N371 N 0.27806 0.96888 0.03566 0.0
H372 H 0.22766 0.40317 0.04912 0.0
H373 H 0.23799 0.20444 0.99149 0.0
H374 H 0.15309 0.25991 0.06498 0.0
H375 H 0.32257 0.3497 0.97997 0.0
H376 H 0.19777 0.22242 1.01556 0.0
H377 H 0.25345 0.38234 0.02096 0.0
C378 C 0.21626 0.3672 0.0466 0.0
C379 C 0.18852 0.33331 0.05958 0.0
C380 C 0.22482 0.25029 1.00763 0.0
C381 C 0.21836 0.30918 0.02727 0.0
C382 C 0.24773 0.24007 0.99383 0.0
C383 C 0.28407 0.27566 0.98377 0.0
C384 C 0.23823 0.29643 1.0114 0.0
C385 C 0.29507 0.32114 0.98744 0.0
C386 C 0.23112 0.35533 0.03049 0.0
C387 C 0.17464 0.28723 0.05543 0.0
N388 N 0.2725 0.3302 1.00101 0.0
N389 N 0.19007 0.27656 0.03972 0.0
H390 H 0.86365 0.14859 0.22343 0.0
H391 H 0.11213 0.3362 0.18851 0.0
H392 H 0.98525 0.20747 0.25808 0.0
H393 H 1.01343 0.23737 0.14981 0.0
H394 H 0.06109 0.29361 0.21407 0.0
H395 H 0.91334 0.18331 0.19605 0.0
C396 C 0.90069 0.16832 0.22528 0.0
C397 C 0.92026 0.17538 0.24313 0.0
C398 C 0.05052 0.28103 0.20001 0.0
C399 C 0.97684 0.21555 0.21203 0.0
C400 C 0.07955 0.30554 0.18535 0.0
C401 C 0.06706 0.29036 0.16695 0.0
C402 C 1.00808 0.24124 0.19637 0.0
C403 C 0.02442 0.25016 0.16381 0.0
C404 C 0.92893 0.18805 0.20966 0.0
C405 C 0.96846 0.2012 0.24467 0.0
N406 N 0.99615 0.22707 0.1784 0.0
N407 N 0.99492 0.22072 0.2294 0.0
H408 H 0.88372 0.06292 0.33516 0.0
H409 H 0.67764 0.86583 0.39495 0.0
H410 H 0.73991 1.00612 0.32154 0.0
H411 H 0.82147 0.92679 0.40943 0.0
H412 H 0.69984 0.91214 0.3666 0.0
H413 H 0.86163 1.00844 0.36083 0.0
C414 C 0.84747 0.03871 0.33744 0.0
C415 C 0.81362 0.03934 0.32619 0.0
C416 C 0.72656 0.91521 0.37593 0.0
C417 C 0.78802 0.97687 0.35575 0.0
C418 C 0.71392 0.88873 0.39213 0.0
C419 C 0.74773 0.89257 0.40468 0.0
C420 C 0.77338 0.94587 0.3722 0.0
C421 C 0.79418 0.92278 0.40023 0.0
C422 C 0.83487 1.00762 0.35216 0.0
C423 C 0.76721 1.007 0.32985 0.0
N424 N 0.80559 0.94838 0.38442 0.0
N425 N 0.75578 0.97731 0.34437 0.0
H426 H 0.87729 0.76704 0.56432 0.0
H427 H 0.69938 0.66853 0.47921 0.0
H428 H 0.79367 0.62278 0.55053 0.0
H429 H 0.783 0.8137 0.49141 0.0
H430 H 0.73962 0.6523 0.50357 0.0
H431 H 0.84907 0.78604 0.53616 0.0
C432 C 0.85341 0.73941 0.5553 0.0
C433 C 0.83753 0.69322 0.5599 0.0
C434 C 0.74953 0.68778 0.50085 0.0
C435 C 0.80503 0.71466 0.52773 0.0
C436 C 0.72655 0.69709 0.48688 0.0
C437 C 0.73751 0.74252 0.48333 0.0
C438 C 0.78361 0.72412 0.5115 0.0
C439 C 0.77326 0.7781 0.4937 0.0
C440 C 0.83725 0.75027 0.53924 0.0
C441 C 0.8066 0.65886 0.54767 0.0
N442 N 0.79471 0.76812 0.50744 0.0
N443 N 0.79121 0.67026 0.53227 0.0
H444 H 0.16844 0.79306 0.71697 0.0
H445 H 0.97696 0.82811 0.66591 0.0
H446 H 0.13026 0.89178 0.73526 0.0
H447 H 0.02301 0.7365 0.64621 0.0
H448 H 0.03638 0.85607 0.69005 0.0
H449 H 0.11907 0.77611 0.68979 0.0
C450 C 0.14991 0.81146 0.71522 0.0
C451 C 0.15329 0.84367 0.72853 0.0
C452 C 0.03376 0.83016 0.68034 0.0
C453 C 0.0962 0.82411 0.69735 0.0
C454 C 0.99985 0.8142 0.66651 0.0
C455 C 0.9947 0.77962 0.65405 0.0
C456 C 0.06266 0.8113 0.68179 0.0
C457 C 0.02547 0.76301 0.65553 0.0
C458 C 0.12168 0.80175 0.69965 0.0
C459 C 0.12862 0.8666 0.7254 0.0
N460 N 0.05781 0.77872 0.66922 0.0
N461 N 0.1008 0.85608 0.71022 0.0
H462 H 0.4205 0.1581 0.89663 0.0
H463 H 0.22495 0.99455 0.82392 0.0
H464 H 0.28121 0.13294 0.89885 0.0
H465 H 0.36269 0.01532 0.82512 0.0
H466 H 0.24616 0.05072 0.84925 0.0
H467 H 0.40122 0.11179 0.86841 0.0
C468 C 0.38585 0.14306 0.89112 0.0
C469 C 0.35234 0.14921 0.90024 0.0
C470 C 0.27179 0.04319 0.84386 0.0
C471 C 0.32984 0.09561 0.86779 0.0
C472 C 0.25976 1.01123 0.82935 0.0
C473 C 0.29201 0.99994 0.82243 0.0
C474 C 0.31641 0.06409 0.85146 0.0
C475 C 0.33656 0.02263 0.83006 0.0
C476 C 0.37484 0.11651 0.87497 0.0
C477 C 0.30811 0.12903 0.89232 0.0
N478 N 0.34731 0.05336 0.84418 0.0
N479 N 0.29803 0.10285 0.87661 0.0
H480 H 0.67087 0.82922 0.81562 0.0
H481 H 0.8413 0.78585 0.87902 0.0
H482 H 0.80771 0.86324 0.79852 0.0
H483 H 0.69443 0.71875 0.88813 0.0
H484 H 0.83305 0.82656 0.85251 0.0
H485 H 0.68284 0.80097 0.8452 0.0
C486 C 0.70366 0.8313 0.81815 0.0
C487 C 0.73823 0.84833 0.80447 0.0
C488 C 0.8027 0.8032 0.86041 0.0
C489 C 0.75207 0.81597 0.83835 0.0
C490 C 0.80737 0.78007 0.87561 0.0
C491 C 0.76842 0.74854 0.88578 0.0
C492 C 0.75882 0.79512 0.85538 0.0
C493 C 0.72535 0.74248 0.88064 0.0
C494 C 0.71036 0.81495 0.83502 0.0
C495 C 0.77998 0.85012 0.80858 0.0
N496 N 0.72169 0.76541 0.86577 0.0
N497 N 0.78566 0.83397 0.82511 0.0
H498 H 0.89844 0.77104 0.9745 0.0
H499 H 1.01349 0.71856 0.06168 0.0
H500 H 0.87814 0.63668 0.98739 0.0
H501 H 0.05298 0.85593 0.04352 0.0
H502 H 0.95424 0.68722 0.03752 0.0
H503 H 0.94582 0.8017 1.00257 0.0
C504 C 0.9035 0.74787 0.98332 0.0
C505 C 0.88459 0.70127 0.97848 0.0
C506 C 0.97559 0.72424 0.03892 0.0
C507 C 0.93878 0.73615 1.01061 0.0
C508 C 1.00935 0.7422 0.05278 0.0
C509 C 0.03861 0.79001 0.05456 0.0
C510 C 0.97087 0.75422 0.02673 0.0
C511 C 0.03146 0.81885 0.0426 0.0
C512 C 0.93067 0.76544 0.99931 0.0
C513 C 0.89232 0.6729 0.99046 0.0
N514 N 0.99856 0.80052 0.02913 0.0
N515 N 0.91895 0.69081 1.00589 0.0
H516 H 0.15501 0.9476 0.1339 0.0
H517 H 0.313 0.98589 0.22248 0.0
H518 H 0.19707 0.85103 0.15076 0.0
H519 H 0.24685 0.06557 0.21242 0.0
H520 H 0.26895 0.93477 0.19681 0.0
H521 H 0.18645 0.99009 0.16296 0.0
C522 C 0.17047 0.93506 0.14377 0.0
C523 C 0.17365 0.89582 0.13979 0.0
C524 C 0.26366 0.96313 0.20034 0.0
C525 C 0.21012 0.9446 0.17305 0.0
C526 C 0.28883 0.99236 0.21501 0.0
C527 C 0.28383 0.03026 0.21958 0.0
C528 C 0.23363 0.97211 0.18995 0.0
C529 C 0.25186 0.03681 0.20941 0.0
C530 C 0.18838 0.95934 0.16038 0.0
C531 C 0.19394 0.88116 0.15317 0.0
N532 N 0.2284 1.00838 0.19495 0.0
N533 N 0.2118 0.90579 0.16909 0.0
H534 H 0.21959 0.14238 0.3013 0.0
H535 H 0.34195 0.32249 0.3841 0.0
H536 H 0.36612 0.21231 0.31167 0.0
H537 H 0.19448 0.23302 0.38043 0.0
H538 H 0.35134 0.28162 0.35784 0.0
H539 H 0.20928 0.17409 0.33042 0.0
C540 C 0.24956 0.1641 0.30975 0.0
C541 C 0.29382 0.17488 0.30394 0.0
C542 C 0.31693 0.27062 0.36287 0.0
C543 C 0.28229 0.21163 0.33724 0.0
C544 C 0.31154 0.29399 0.37788 0.0
C545 C 0.26735 0.28132 0.38447 0.0
C546 C 0.27784 0.23457 0.3542 0.0
C547 C 0.22922 0.24401 0.37585 0.0
C548 C 0.24364 0.18217 0.32639 0.0
C549 C 0.33135 0.20313 0.31552 0.0
N550 N 0.23532 0.22226 0.36106 0.0
N551 N 0.32477 0.2208 0.3315 0.0
H552 H 0.12238 0.24366 0.47233 0.0
H553 H 0.01664 0.29669 0.56272 0.0
H554 H 0.16354 0.38072 0.49179 0.0
H555 H 0.9681 0.15994 0.54097 0.0
H556 H 0.07719 0.32751 0.53906 0.0
H557 H 0.07221 0.21195 0.49951 0.0
C558 C 0.12124 0.26712 0.48239 0.0
C559 C 0.14698 0.31496 0.47966 0.0
C560 C 0.05353 0.29071 0.53956 0.0
C561 C 0.08941 0.27884 0.51081 0.0
C562 C 0.019 0.27304 0.55312 0.0
C563 C 0.98693 0.22564 0.55377 0.0
C564 C 0.05609 0.26081 0.52652 0.0
C565 C 0.99182 0.19674 0.54095 0.0
C566 C 0.09249 0.24898 0.4979 0.0
C567 C 0.14412 0.34363 0.49322 0.0
N568 N 0.02546 0.21479 0.52779 0.0
N569 N 0.11567 0.32514 0.50811 0.0
H570 H 0.71431 0.04218 0.73331 0.0
H571 H 0.86109 0.10659 0.6389 0.0
H572 H 0.77384 0.96381 0.71159 0.0
H573 H 0.79525 0.17966 0.65992 0.0
H574 H 0.83582 0.05818 0.66679 0.0
H575 H 0.75036 0.09729 0.70801 0.0
C576 C 0.73533 0.03675 0.72334 0.0
C577 C 0.74076 0.99807 0.72456 0.0
C578 C 0.82717 0.08501 0.66533 0.0
C579 C 0.78199 0.06104 0.69537 0.0
C580 C 0.84167 0.11272 0.64942 0.0
C581 C 0.83005 0.14709 0.64698 0.0
C582 C 0.80093 0.09176 0.67891 0.0
C583 C 0.8048 0.15343 0.6611 0.0
C584 C 0.75585 0.06823 0.70884 0.0
C585 C 0.76852 0.99301 0.71119 0.0
N586 N 0.79096 0.12596 0.67637 0.0
N587 N 0.78781 0.02391 0.6971 0.0
loop_
_geom_bond_atom_site_label_1
_geom_bond_atom_site_label_2
_geom_bond_distance
_geom_bond_site_symmetry_2
_ccdc_geom_bond_type
Mg0 O7 2.141 . S
Mg0 O8 2.048 . S
Mg0 O9 2.048 . S
Mg0 O12 2.141 . S
C1 O2 1.313 . S
C1 O8 1.195 . S
O2 C1 1.313 . S
C3 O4 1.245 . S
C3 O12 1.289 . S
O4 C3 1.245 . S
C5 O6 1.245 . S
C5 O7 1.289 . S
O6 C5 1.245 . S
O7 Mg0 2.141 . S
O7 C5 1.289 . S
O8 Mg0 2.048 . S
O8 C1 1.195 . S
O9 Mg0 2.048 . S
O9 C10 1.195 . S
C10 O9 1.195 . S
C10 O11 1.313 . S
O11 C10 1.313 . S
O12 Mg0 2.141 . S
O12 C3 1.289 . S
Mg13 O20 2.141 . S
Mg13 O21 2.048 . S
Mg13 O22 2.048 . S
Mg13 O25 2.141 . S
C14 O15 1.313 . S
C14 O21 1.195 . S
O15 C14 1.313 . S
C16 O17 1.245 . S
C16 O25 1.289 . S
O17 C16 1.245 . S
C18 O19 1.245 . S
C18 O20 1.289 . S
O19 C18 1.245 . S
O20 Mg13 2.141 . S
O20 C18 1.289 . S
O21 Mg13 2.048 . S
O21 C14 1.195 . S
O22 Mg13 2.048 . S
O22 C23 1.195 . S
C23 O22 1.195 . S
C23 O24 1.313 . S
O24 C23 1.313 . S
O25 Mg13 2.141 . S
O25 C16 1.289 . S
Mg26 O33 2.141 . S
Mg26 O34 2.048 . S
Mg26 O35 2.048 . S
Mg26 O38 2.141 . S
C27 O28 1.313 . S
C27 O34 1.195 . S
O28 C27 1.313 . S
C29 O30 1.245 . S
C29 O38 1.289 . S
O30 C29 1.245 . S
C31 O32 1.245 . S
C31 O33 1.289 . S
O32 C31 1.245 . S
O33 Mg26 2.141 . S
O33 C31 1.289 . S
O34 Mg26 2.048 . S
O34 C27 1.195 . S
O35 Mg26 2.048 . S
O35 C36 1.195 . S
C36 O35 1.195 . S
C36 O37 1.313 . S
O37 C36 1.313 . S
O38 Mg26 2.141 . S
O38 C29 1.289 . S
Mg39 O46 2.141 . S
Mg39 O47 2.048 . S
Mg39 O48 2.048 . S
Mg39 O51 2.141 . S
C40 O41 1.313 . S
C40 O47 1.195 . S
O41 C40 1.313 . S
C42 O43 1.245 . S
C42 O51 1.289 . S
O43 C42 1.245 . S
C44 O45 1.245 . S
C44 O46 1.289 . S
O45 C44 1.245 . S
O46 Mg39 2.141 . S
O46 C44 1.289 . S
O47 Mg39 2.048 . S
O47 C40 1.195 . S
O48 Mg39 2.048 . S
O48 C49 1.195 . S
C49 O48 1.195 . S
C49 O50 1.313 . S
O50 C49 1.313 . S
O51 Mg39 2.141 . S
O51 C42 1.289 . S
Mg52 O59 2.141 . S
Mg52 O60 2.048 . S
Mg52 O61 2.048 . S
Mg52 O64 2.141 . S
C53 O54 1.313 . S
C53 O60 1.195 . S
O54 C53 1.313 . S
C55 O56 1.245 . S
C55 O64 1.289 . S
O56 C55 1.245 . S
C57 O58 1.245 . S
C57 O59 1.289 . S
O58 C57 1.245 . S
O59 Mg52 2.141 . S
O59 C57 1.289 . S
O60 Mg52 2.048 . S
O60 C53 1.195 . S
O61 Mg52 2.048 . S
O61 C62 1.195 . S
C62 O61 1.195 . S
C62 O63 1.313 . S
O63 C62 1.313 . S
O64 Mg52 2.141 . S
O64 C55 1.289 . S
Mg65 O72 2.141 . S
Mg65 O73 2.048 . S
Mg65 O74 2.048 . S
Mg65 O77 2.141 . S
C66 O67 1.313 . S
C66 O73 1.195 . S
O67 C66 1.313 . S
C68 O69 1.245 . S
C68 O77 1.289 . S
O69 C68 1.245 . S
C70 O71 1.245 . S
C70 O72 1.289 . S
O71 C70 1.245 . S
O72 Mg65 2.141 . S
O72 C70 1.289 . S
O73 Mg65 2.048 . S
O73 C66 1.195 . S
O74 Mg65 2.048 . S
O74 C75 1.195 . S
C75 O74 1.195 . S
C75 O76 1.313 . S
O76 C75 1.313 . S
O77 Mg65 2.141 . S
O77 C68 1.289 . S
Mg78 O85 2.141 . S
Mg78 O86 2.048 . S
Mg78 O87 2.048 . S
Mg78 O90 2.141 . S
C79 O80 1.313 . S
C79 O86 1.195 . S
O80 C79 1.313 . S
C81 O82 1.245 . S
C81 O90 1.289 . S
O82 C81 1.245 . S
C83 O84 1.245 . S
C83 O85 1.289 . S
O84 C83 1.245 . S
O85 Mg78 2.141 . S
O85 C83 1.289 . S
O86 Mg78 2.048 . S
O86 C79 1.195 . S
O87 Mg78 2.048 . S
O87 C88 1.195 . S
C88 O87 1.195 . S
C88 O89 1.313 . S
O89 C88 1.313 . S
O90 Mg78 2.141 . S
O90 C81 1.289 . S
Mg91 O98 2.141 . S
Mg91 O99 2.048 . S
Mg91 O100 2.048 . S
Mg91 O103 2.141 . S
C92 O93 1.313 . S
C92 O99 1.195 . S
O93 C92 1.313 . S
C94 O95 1.245 . S
C94 O103 1.289 . S
O95 C94 1.245 . S
C96 O97 1.245 . S
C96 O98 1.289 . S
O97 C96 1.245 . S
O98 Mg91 2.141 . S
O98 C96 1.289 . S
O99 Mg91 2.048 . S
O99 C92 1.195 . S
O100 Mg91 2.048 . S
O100 C101 1.195 . S
C101 O100 1.195 . S
C101 O102 1.313 . S
O102 C101 1.313 . S
O103 Mg91 2.141 . S
O103 C94 1.289 . S
Mg104 O111 2.141 . S
Mg104 O112 2.048 . S
Mg104 O113 2.048 . S
Mg104 O116 2.141 . S
C105 O106 1.313 . S
C105 O112 1.195 . S
O106 C105 1.313 . S
C107 O108 1.245 . S
C107 O116 1.289 . S
O108 C107 1.245 . S
C109 O110 1.245 . S
C109 O111 1.289 . S
O110 C109 1.245 . S
O111 Mg104 2.141 . S
O111 C109 1.289 . S
O112 Mg104 2.048 . S
O112 C105 1.195 . S
O113 Mg104 2.048 . S
O113 C114 1.195 . S
C114 O113 1.195 . S
C114 O115 1.313 . S
O115 C114 1.313 . S
O116 Mg104 2.141 . S
O116 C107 1.289 . S
Mg117 O124 2.141 . S
Mg117 O125 2.048 . S
Mg117 O126 2.048 . S
Mg117 O129 2.141 . S
C118 O119 1.313 . S
C118 O125 1.195 . S
O119 C118 1.313 . S
C120 O121 1.245 . S
C120 O129 1.289 . S
O121 C120 1.245 . S
C122 O123 1.245 . S
C122 O124 1.289 . S
O123 C122 1.245 . S
O124 Mg117 2.141 . S
O124 C122 1.289 . S
O125 Mg117 2.048 . S
O125 C118 1.195 . S
O126 Mg117 2.048 . S
O126 C127 1.195 . S
C127 O126 1.195 . S
C127 O128 1.313 . S
O128 C127 1.313 . S
O129 Mg117 2.141 . S
O129 C120 1.289 . S
Mg130 O137 2.141 . S
Mg130 O138 2.048 . S
Mg130 O139 2.048 . S
Mg130 O142 2.141 . S
C131 O132 1.313 . S
C131 O138 1.195 . S
O132 C131 1.313 . S
C133 O134 1.245 . S
C133 O142 1.289 . S
O134 C133 1.245 . S
C135 O136 1.245 . S
C135 O137 1.289 . S
O136 C135 1.245 . S
O137 Mg130 2.141 . S
O137 C135 1.289 . S
O138 Mg130 2.048 . S
O138 C131 1.195 . S
O139 Mg130 2.048 . S
O139 C140 1.195 . S
C140 O139 1.195 . S
C140 O141 1.313 . S
O141 C140 1.313 . S
O142 Mg130 2.141 . S
O142 C133 1.289 . S
Mg143 O150 2.141 . S
Mg143 O151 2.048 . S
Mg143 O152 2.048 . S
Mg143 O155 2.141 . S
C144 O145 1.313 . S
C144 O151 1.195 . S
O145 C144 1.313 . S
C146 O147 1.245 . S
C146 O155 1.289 . S
O147 C146 1.245 . S
C148 O149 1.245 . S
C148 O150 1.289 . S
O149 C148 1.245 . S
O150 Mg143 2.141 . S
O150 C148 1.289 . S
O151 Mg143 2.048 . S
O151 C144 1.195 . S
O152 Mg143 2.048 . S
O152 C153 1.195 . S
C153 O152 1.195 . S
C153 O154 1.313 . S
O154 C153 1.313 . S
O155 Mg143 2.141 . S
O155 C146 1.289 . S
H156 C162 0.930 . S
H157 C166 0.930 . S
H158 C171 0.929 . S
H159 C169 0.929 . S
H160 C164 0.929 . S
H161 C170 0.929 . S
C162 H156 0.930 . S
C162 C163 1.367 . S
C162 C170 1.378 . S
C163 C162 1.367 . S
C163 C171 1.433 . S
C164 H160 0.929 . S
C164 C166 1.378 . S
C164 C168 1.350 . S
C165 C168 1.463 . S
C165 C170 1.350 . S
C165 N173 1.427 . S
C166 H157 0.930 . S
C166 C164 1.378 . S
C166 C167 1.367 . S
C167 C166 1.367 . S
C167 C169 1.433 . S
C168 C164 1.350 . S
C168 C165 1.463 . S
C168 N172 1.427 . S
C169 H159 0.929 . S
C169 C167 1.433 . S
C169 N172 1.384 . S
C170 H161 0.929 . S
C170 C162 1.378 . S
C170 C165 1.350 . S
C171 H158 0.929 . S
C171 C163 1.433 . S
C171 N173 1.384 . S
N172 C168 1.427 . S
N172 C169 1.384 . S
N173 C165 1.427 . S
N173 C171 1.384 . S
H174 C180 0.930 . S
H175 C184 0.930 . S
H176 C189 0.929 . S
H177 C187 0.929 . S
H178 C182 0.929 . S
H179 C188 0.929 . S
C180 H174 0.930 . S
C180 C181 1.367 . S
C180 C188 1.378 . S
C181 C180 1.367 . S
C181 C189 1.433 . S
C182 H178 0.929 . S
C182 C184 1.378 . S
C182 C186 1.350 . S
C183 C186 1.463 . S
C183 C188 1.350 . S
C183 N191 1.427 . S
C184 H175 0.930 . S
C184 C182 1.378 . S
C184 C185 1.367 . S
C185 C184 1.367 . S
C185 C187 1.433 . S
C186 C182 1.350 . S
C186 C183 1.463 . S
C186 N190 1.427 . S
C187 H177 0.929 . S
C187 C185 1.433 . S
C187 N190 1.384 . S
C188 H179 0.929 . S
C188 C180 1.378 . S
C188 C183 1.350 . S
C189 H176 0.929 . S
C189 C181 1.433 . S
C189 N191 1.384 . S
N190 C186 1.427 . S
N190 C187 1.384 . S
N191 C183 1.427 . S
N191 C189 1.384 . S
H192 C198 0.930 . S
H193 C202 0.930 . S
H194 C207 0.929 . S
H195 C205 0.929 . S
H196 C200 0.929 . S
H197 C206 0.929 . S
C198 H192 0.930 . S
C198 C199 1.367 . S
C198 C206 1.378 . S
C199 C198 1.367 . S
C199 C207 1.433 . S
C200 H196 0.929 . S
C200 C202 1.378 . S
C200 C204 1.350 . S
C201 C204 1.463 . S
C201 C206 1.350 . S
C201 N209 1.427 . S
C202 H193 0.930 . S
C202 C200 1.378 . S
C202 C203 1.367 . S
C203 C202 1.367 . S
C203 C205 1.433 . S
C204 C200 1.350 . S
C204 C201 1.463 . S
C204 N208 1.427 . S
C205 H195 0.929 . S
C205 C203 1.433 . S
C205 N208 1.384 . S
C206 H197 0.929 . S
C206 C198 1.378 . S
C206 C201 1.350 . S
C207 H194 0.929 . S
C207 C199 1.433 . S
C207 N209 1.384 . S
N208 C204 1.427 . S
N208 C205 1.384 . S
N209 C201 1.427 . S
N209 C207 1.384 . S
H210 C216 0.930 . S
H211 C220 0.930 . S
H212 C225 0.929 . S
H213 C223 0.929 . S
H214 C218 0.929 . S
H215 C224 0.929 . S
C216 H210 0.930 . S
C216 C217 1.367 . S
C216 C224 1.378 . S
C217 C216 1.367 . S
C217 C225 1.433 . S
C218 H214 0.929 . S
C218 C220 1.378 . S
C218 C222 1.350 . S
C219 C222 1.463 . S
C219 C224 1.350 . S
C219 N227 1.427 . S
C220 H211 0.930 . S
C220 C218 1.378 . S
C220 C221 1.367 . S
C221 C220 1.367 . S
C221 C223 1.433 . S
C222 C218 1.350 . S
C222 C219 1.463 . S
C222 N226 1.427 . S
C223 H213 0.929 . S
C223 C221 1.433 . S
C223 N226 1.384 . S
C224 H215 0.929 . S
C224 C216 1.378 . S
C224 C219 1.350 . S
C225 H212 0.929 . S
C225 C217 1.433 . S
C225 N227 1.384 . S
N226 C222 1.427 . S
N226 C223 1.384 . S
N227 C219 1.427 . S
N227 C225 1.384 . S
H228 C234 0.930 . S
H229 C238 0.930 . S
H230 C243 0.929 . S
H231 C241 0.929 . S
H232 C236 0.929 . S
H233 C242 0.929 . S
C234 H228 0.930 . S
C234 C235 1.367 . S
C234 C242 1.378 . S
C235 C234 1.367 . S
C235 C243 1.433 . S
C236 H232 0.929 . S
C236 C238 1.378 . S
C236 C240 1.350 . S
C237 C240 1.463 . S
C237 C242 1.350 . S
C237 N245 1.427 . S
C238 H229 0.930 . S
C238 C236 1.378 . S
C238 C239 1.367 . S
C239 C238 1.367 . S
C239 C241 1.433 . S
C240 C236 1.350 . S
C240 C237 1.463 . S
C240 N244 1.427 . S
C241 H231 0.929 . S
C241 C239 1.433 . S
C241 N244 1.384 . S
C242 H233 0.929 . S
C242 C234 1.378 . S
C242 C237 1.350 . S
C243 H230 0.929 . S
C243 C235 1.433 . S
C243 N245 1.384 . S
N244 C240 1.427 . S
N244 C241 1.384 . S
N245 C237 1.427 . S
N245 C243 1.384 . S
H246 C252 0.930 . S
H247 C256 0.930 . S
H248 C261 0.929 . S
H249 C259 0.929 . S
H250 C254 0.929 . S
H251 C260 0.929 . S
C252 H246 0.930 . S
C252 C253 1.367 . S
C252 C260 1.378 . S
C253 C252 1.367 . S
C253 C261 1.433 . S
C254 H250 0.929 . S
C254 C256 1.378 . S
C254 C258 1.350 . S
C255 C258 1.463 . S
C255 C260 1.350 . S
C255 N263 1.427 . S
C256 H247 0.930 . S
C256 C254 1.378 . S
C256 C257 1.367 . S
C257 C256 1.367 . S
C257 C259 1.433 . S
C258 C254 1.350 . S
C258 C255 1.463 . S
C258 N262 1.427 . S
C259 H249 0.929 . S
C259 C257 1.433 . S
C259 N262 1.384 . S
C260 H251 0.929 . S
C260 C252 1.378 . S
C260 C255 1.350 . S
C261 H248 0.929 . S
C261 C253 1.433 . S
C261 N263 1.384 . S
N262 C258 1.427 . S
N262 C259 1.384 . S
N263 C255 1.427 . S
N263 C261 1.384 . S
H264 C270 0.930 . S
H265 C274 0.930 . S
H266 C279 0.929 . S
H267 C277 0.929 . S
H268 C272 0.929 . S
H269 C278 0.929 . S
C270 H264 0.930 . S
C270 C271 1.367 . S
C270 C278 1.378 . S
C271 C270 1.367 . S
C271 C279 1.433 . S
C272 H268 0.929 . S
C272 C274 1.378 . S
C272 C276 1.350 . S
C273 C276 1.463 . S
C273 C278 1.350 . S
C273 N281 1.427 . S
C274 H265 0.930 . S
C274 C272 1.378 . S
C274 C275 1.367 . S
C275 C274 1.367 . S
C275 C277 1.433 . S
C276 C272 1.350 . S
C276 C273 1.463 . S
C276 N280 1.427 . S
C277 H267 0.929 . S
C277 C275 1.433 . S
C277 N280 1.384 . S
C278 H269 0.929 . S
C278 C270 1.378 . S
C278 C273 1.350 . S
C279 H266 0.929 . S
C279 C271 1.433 . S
C279 N281 1.384 . S
N280 C276 1.427 . S
N280 C277 1.384 . S
N281 C273 1.427 . S
N281 C279 1.384 . S
H282 C288 0.930 . S
H283 C292 0.930 . S
H284 C297 0.929 . S
H285 C295 0.929 . S
H286 C290 0.929 . S
H287 C296 0.929 . S
C288 H282 0.930 . S
C288 C289 1.367 . S
C288 C296 1.378 . S
C289 C288 1.367 . S
C289 C297 1.433 . S
C290 H286 0.929 . S
C290 C292 1.378 . S
C290 C294 1.350 . S
C291 C294 1.463 1_655 S
C291 C296 1.350 . S
C291 N299 1.427 . S
C292 H283 0.930 . S
C292 C290 1.378 . S
C292 C293 1.367 . S
C293 C292 1.367 . S
C293 C295 1.433 . S
C294 C290 1.350 . S
C294 C291 1.463 1_455 S
C294 N298 1.427 . S
C295 H285 0.929 . S
C295 C293 1.433 . S
C295 N298 1.384 . S
C296 H287 0.929 . S
C296 C288 1.378 . S
C296 C291 1.350 . S
C297 H284 0.929 . S
C297 C289 1.433 . S
C297 N299 1.384 . S
N298 C294 1.427 . S
N298 C295 1.384 . S
N299 C291 1.427 . S
N299 C297 1.384 . S
H300 C306 0.930 . S
H301 C310 0.930 . S
H302 C315 0.929 . S
H303 C313 0.929 . S
H304 C308 0.929 1_545 S
H305 C314 0.929 1_565 S
C306 H300 0.930 . S
C306 C307 1.367 . S
C306 C314 1.378 . S
C307 C306 1.367 . S
C307 C315 1.433 . S
C308 H304 0.929 1_565 S
C308 C310 1.378 . S
C308 C312 1.350 . S
C309 C312 1.463 1_545 S
C309 C314 1.350 . S
C309 N317 1.427 . S
C310 H301 0.930 . S
C310 C308 1.378 . S
C310 C311 1.367 . S
C311 C310 1.367 . S
C311 C313 1.433 . S
C312 C308 1.350 . S
C312 C309 1.463 1_565 S
C312 N316 1.427 . S
C313 H303 0.929 . S
C313 C311 1.433 . S
C313 N316 1.384 . S
C314 H305 0.929 1_545 S
C314 C306 1.378 . S
C314 C309 1.350 . S
C315 H302 0.929 . S
C315 C307 1.433 . S
C315 N317 1.384 . S
N316 C312 1.427 . S
N316 C313 1.384 . S
N317 C309 1.427 . S
N317 C315 1.384 . S
H318 C324 0.930 . S
H319 C328 0.930 . S
H320 C333 0.929 . S
H321 C331 0.929 . S
H322 C326 0.929 . S
H323 C332 0.929 . S
C324 H318 0.930 . S
C324 C325 1.367 . S
C324 C332 1.378 . S
C325 C324 1.367 . S
C325 C333 1.433 . S
C326 H322 0.929 . S
C326 C328 1.378 . S
C326 C330 1.350 . S
C327 C330 1.463 . S
C327 C332 1.350 . S
C327 N335 1.427 . S
C328 H319 0.930 . S
C328 C326 1.378 . S
C328 C329 1.367 . S
C329 C328 1.367 . S
C329 C331 1.433 . S
C330 C326 1.350 . S
C330 C327 1.463 . S
C330 N334 1.427 . S
C331 H321 0.929 . S
C331 C329 1.433 . S
C331 N334 1.384 . S
C332 H323 0.929 . S
C332 C324 1.378 . S
C332 C327 1.350 . S
C333 H320 0.929 . S
C333 C325 1.433 . S
C333 N335 1.384 . S
N334 C330 1.427 . S
N334 C331 1.384 . S
N335 C327 1.427 . S
N335 C333 1.384 . S
H336 C342 0.930 . S
H337 C346 0.930 . S
H338 C351 0.929 . S
H339 C349 0.929 . S
H340 C344 0.929 1_655 S
H341 C350 0.929 1_455 S
C342 H336 0.930 . S
C342 C343 1.367 . S
C342 C350 1.378 . S
C343 C342 1.367 . S
C343 C351 1.433 . S
C344 H340 0.929 1_455 S
C344 C346 1.378 . S
C344 C348 1.350 . S
C345 C348 1.463 1_655 S
C345 C350 1.350 . S
C345 N353 1.427 . S
C346 H337 0.930 . S
C346 C344 1.378 . S
C346 C347 1.367 . S
C347 C346 1.367 . S
C347 C349 1.433 . S
C348 C344 1.350 . S
C348 C345 1.463 1_455 S
C348 N352 1.427 . S
C349 H339 0.929 . S
C349 C347 1.433 . S
C349 N352 1.384 . S
C350 H341 0.929 1_655 S
C350 C342 1.378 . S
C350 C345 1.350 . S
C351 H338 0.929 . S
C351 C343 1.433 . S
C351 N353 1.384 . S
N352 C348 1.427 . S
N352 C349 1.384 . S
N353 C345 1.427 . S
N353 C351 1.384 . S
H354 C360 0.930 . S
H355 C364 0.930 . S
H356 C369 0.929 . S
H357 C367 0.929 . S
H358 C362 0.976 . S
H359 C368 0.976 . S
C360 H354 0.930 . S
C360 C361 1.367 . S
C360 C368 1.348 1_554 S
C361 C360 1.367 . S
C361 C369 1.433 . S
C362 H358 0.976 . S
C362 C364 1.348 1_554 S
C362 C366 1.333 1_554 S
C363 C366 1.463 1_564 S
C363 C368 1.333 1_554 S
C363 N371 1.427 . S
C364 H355 0.930 . S
C364 C362 1.348 1_556 S
C364 C365 1.367 . S
C365 C364 1.367 . S
C365 C367 1.433 . S
C366 C362 1.333 1_556 S
C366 C363 1.463 1_546 S
C366 N370 1.427 . S
C367 H357 0.929 . S
C367 C365 1.433 . S
C367 N370 1.384 . S
C368 H359 0.976 . S
C368 C360 1.348 1_556 S
C368 C363 1.333 1_556 S
C369 H356 0.929 . S
C369 C361 1.433 . S
C369 N371 1.384 . S
N370 C366 1.427 . S
N370 C367 1.384 . S
N371 C363 1.427 . S
N371 C369 1.384 . S
H372 C378 0.930 . S
H373 C382 0.930 1_556 S
H374 C387 0.929 . S
H375 C385 0.929 1_556 S
H376 C380 0.929 . S
H377 C386 0.929 . S
C378 H372 0.930 . S
C378 C379 1.367 . S
C378 C386 1.378 . S
C379 C378 1.367 . S
C379 C387 1.433 . S
C380 H376 0.929 . S
C380 C382 1.378 . S
C380 C384 1.350 . S
C381 C384 1.463 . S
C381 C386 1.350 . S
C381 N389 1.427 . S
C382 H373 0.930 1_554 S
C382 C380 1.378 . S
C382 C383 1.367 1_554 S
C383 C382 1.367 1_556 S
C383 C385 1.433 1_556 S
C384 C380 1.350 . S
C384 C381 1.463 . S
C384 N388 1.427 . S
C385 H375 0.929 1_554 S
C385 C383 1.433 1_554 S
C385 N388 1.384 . S
C386 H377 0.929 . S
C386 C378 1.378 . S
C386 C381 1.350 . S
C387 H374 0.929 . S
C387 C379 1.433 . S
C387 N389 1.384 . S
N388 C384 1.427 . S
N388 C385 1.384 . S
N389 C381 1.427 . S
N389 C387 1.384 . S
H390 C396 0.930 . S
H391 C400 0.930 . S
H392 C405 0.929 . S
H393 C403 0.929 . S
H394 C398 0.929 . S
H395 C404 0.929 . S
C396 H390 0.930 . S
C396 C397 1.367 . S
C396 C404 1.378 . S
C397 C396 1.367 . S
C397 C405 1.433 . S
C398 H394 0.929 . S
C398 C400 1.378 . S
C398 C402 1.350 1_455 S
C399 C402 1.463 . S
C399 C404 1.350 . S
C399 N407 1.427 . S
C400 H391 0.930 . S
C400 C398 1.378 . S
C400 C401 1.367 . S
C401 C400 1.367 . S
C401 C403 1.433 1_455 S
C402 C398 1.350 1_655 S
C402 C399 1.463 . S
C402 N406 1.427 . S
C403 H393 0.929 . S
C403 C401 1.433 1_655 S
C403 N406 1.384 . S
C404 H395 0.929 . S
C404 C396 1.378 . S
C404 C399 1.350 . S
C405 H392 0.929 . S
C405 C397 1.433 . S
C405 N407 1.384 . S
N406 C402 1.427 . S
N406 C403 1.384 . S
N407 C399 1.427 . S
N407 C405 1.384 . S
H408 C414 0.924 . S
H409 C418 0.930 . S
H410 C423 0.929 . S
H411 C421 0.929 . S
H412 C416 0.929 . S
H413 C422 0.929 . S
C414 H408 0.924 . S
C414 C415 1.361 1_565 S
C414 C422 1.381 . S
C415 C414 1.361 1_545 S
C415 C423 1.433 . S
C416 H412 0.929 . S
C416 C418 1.378 . S
C416 C420 1.350 . S
C417 C420 1.463 . S
C417 C422 1.350 . S
C417 N425 1.427 1_565 S
C418 H409 0.930 . S
C418 C416 1.378 . S
C418 C419 1.367 . S
C419 C418 1.367 . S
C419 C421 1.433 . S
C420 C416 1.350 . S
C420 C417 1.463 . S
C420 N424 1.427 . S
C421 H411 0.929 . S
C421 C419 1.433 . S
C421 N424 1.384 . S
C422 H413 0.929 . S
C422 C414 1.381 . S
C422 C417 1.350 . S
C423 H410 0.929 . S
C423 C415 1.433 . S
C423 N425 1.384 . S
N424 C420 1.427 . S
N424 C421 1.384 . S
N425 C417 1.427 1_545 S
N425 C423 1.384 . S
H426 C432 0.930 . S
H427 C436 0.930 . S
H428 C441 0.929 . S
H429 C439 0.929 . S
H430 C434 0.929 . S
H431 C440 0.929 . S
C432 H426 0.930 . S
C432 C433 1.367 . S
C432 C440 1.378 . S
C433 C432 1.367 . S
C433 C441 1.433 . S
C434 H430 0.929 . S
C434 C436 1.378 . S
C434 C438 1.350 . S
C435 C438 1.463 . S
C435 C440 1.350 . S
C435 N443 1.427 . S
C436 H427 0.930 . S
C436 C434 1.378 . S
C436 C437 1.367 . S
C437 C436 1.367 . S
C437 C439 1.433 . S
C438 C434 1.350 . S
C438 C435 1.463 . S
C438 N442 1.427 . S
C439 H429 0.929 . S
C439 C437 1.433 . S
C439 N442 1.384 . S
C440 H431 0.929 . S
C440 C432 1.378 . S
C440 C435 1.350 . S
C441 H428 0.929 . S
C441 C433 1.433 . S
C441 N443 1.384 . S
N442 C438 1.427 . S
N442 C439 1.384 . S
N443 C435 1.427 . S
N443 C441 1.384 . S
H444 C450 0.930 . S
H445 C454 0.930 . S
H446 C459 0.929 . S
H447 C457 0.929 . S
H448 C452 0.929 . S
H449 C458 0.929 . S
C450 H444 0.930 . S
C450 C451 1.367 . S
C450 C458 1.378 . S
C451 C450 1.367 . S
C451 C459 1.433 . S
C452 H448 0.929 . S
C452 C454 1.378 . S
C452 C456 1.350 1_655 S
C453 C456 1.463 . S
C453 C458 1.350 . S
C453 N461 1.427 . S
C454 H445 0.930 . S
C454 C452 1.378 . S
C454 C455 1.367 . S
C455 C454 1.367 . S
C455 C457 1.433 1_655 S
C456 C452 1.350 1_455 S
C456 C453 1.463 . S
C456 N460 1.427 . S
C457 H447 0.929 . S
C457 C455 1.433 1_455 S
C457 N460 1.384 . S
C458 H449 0.929 . S
C458 C450 1.378 . S
C458 C453 1.350 . S
C459 H446 0.929 . S
C459 C451 1.433 . S
C459 N461 1.384 . S
N460 C456 1.427 . S
N460 C457 1.384 . S
N461 C453 1.427 . S
N461 C459 1.384 . S
H462 C468 0.930 . S
H463 C472 0.930 . S
H464 C477 0.929 . S
H465 C475 0.929 . S
H466 C470 0.929 . S
H467 C476 0.929 . S
C468 H462 0.930 . S
C468 C469 1.367 . S
C468 C476 1.378 . S
C469 C468 1.367 . S
C469 C477 1.433 . S
C470 H466 0.929 . S
C470 C472 1.378 . S
C470 C474 1.350 1_565 S
C471 C474 1.463 . S
C471 C476 1.350 . S
C471 N479 1.427 . S
C472 H463 0.930 . S
C472 C470 1.378 . S
C472 C473 1.367 . S
C473 C472 1.367 . S
C473 C475 1.433 1_565 S
C474 C470 1.350 1_545 S
C474 C471 1.463 . S
C474 N478 1.427 . S
C475 H465 0.929 . S
C475 C473 1.433 1_545 S
C475 N478 1.384 . S
C476 H467 0.929 . S
C476 C468 1.378 . S
C476 C471 1.350 . S
C477 H464 0.929 . S
C477 C469 1.433 . S
C477 N479 1.384 . S
N478 C474 1.427 . S
N478 C475 1.384 . S
N479 C471 1.427 . S
N479 C477 1.384 . S
H480 C486 0.930 . S
H481 C490 0.930 . S
H482 C495 0.929 . S
H483 C493 0.929 . S
H484 C488 0.929 . S
H485 C494 0.929 . S
C486 H480 0.930 . S
C486 C487 1.367 . S
C486 C494 1.378 . S
C487 C486 1.367 . S
C487 C495 1.433 . S
C488 H484 0.929 . S
C488 C490 1.378 . S
C488 C492 1.350 . S
C489 C492 1.463 . S
C489 C494 1.350 . S
C489 N497 1.427 . S
C490 H481 0.930 . S
C490 C488 1.378 . S
C490 C491 1.367 . S
C491 C490 1.367 . S
C491 C493 1.433 . S
C492 C488 1.350 . S
C492 C489 1.463 . S
C492 N496 1.427 . S
C493 H483 0.929 . S
C493 C491 1.433 . S
C493 N496 1.384 . S
C494 H485 0.929 . S
C494 C486 1.378 . S
C494 C489 1.350 . S
C495 H482 0.929 . S
C495 C487 1.433 . S
C495 N497 1.384 . S
N496 C492 1.427 . S
N496 C493 1.384 . S
N497 C489 1.427 . S
N497 C495 1.384 . S
H498 C504 0.930 . S
H499 C508 0.930 1_554 S
H500 C513 0.929 . S
H501 C511 0.906 1_554 S
H502 C506 0.929 . S
H503 C512 0.929 . S
C504 H498 0.930 . S
C504 C505 1.367 . S
C504 C512 1.378 . S
C505 C504 1.367 . S
C505 C513 1.433 . S
C506 H502 0.929 . S
C506 C508 1.378 1_655 S
C506 C510 1.350 . S
C507 C510 1.463 . S
C507 C512 1.350 . S
C507 N515 1.427 . S
C508 H499 0.930 1_556 S
C508 C506 1.378 1_455 S
C508 C509 1.367 1_556 S
C509 C508 1.367 1_554 S
C509 C511 1.417 1_554 S
C510 C506 1.350 . S
C510 C507 1.463 . S
C510 N514 1.427 . S
C511 H501 0.906 1_556 S
C511 C509 1.417 1_556 S
C511 N514 1.428 1_455 S
C512 H503 0.929 . S
C512 C504 1.378 . S
C512 C507 1.350 . S
C513 H500 0.929 . S
C513 C505 1.433 . S
C513 N515 1.384 . S
N514 C510 1.427 . S
N514 C511 1.428 1_655 S
N515 C507 1.427 . S
N515 C513 1.384 . S
H516 C522 0.930 . S
H517 C526 0.930 . S
H518 C531 0.929 . S
H519 C529 0.929 . S
H520 C524 0.929 . S
H521 C530 0.929 . S
C522 H516 0.930 . S
C522 C523 1.367 . S
C522 C530 1.378 . S
C523 C522 1.367 . S
C523 C531 1.433 . S
C524 H520 0.929 . S
C524 C526 1.378 . S
C524 C528 1.350 . S
C525 C528 1.463 . S
C525 C530 1.350 . S
C525 N533 1.427 . S
C526 H517 0.930 . S
C526 C524 1.378 . S
C526 C527 1.367 1_565 S
C527 C526 1.367 1_545 S
C527 C529 1.433 . S
C528 C524 1.350 . S
C528 C525 1.463 . S
C528 N532 1.427 1_565 S
C529 H519 0.929 . S
C529 C527 1.433 . S
C529 N532 1.384 . S
C530 H521 0.929 . S
C530 C522 1.378 . S
C530 C525 1.350 . S
C531 H518 0.929 . S
C531 C523 1.433 . S
C531 N533 1.384 . S
N532 C528 1.427 1_545 S
N532 C529 1.384 . S
N533 C525 1.427 . S
N533 C531 1.384 . S
H534 C540 0.930 . S
H535 C544 0.930 . S
H536 C549 0.929 . S
H537 C547 0.929 . S
H538 C542 0.929 . S
H539 C548 0.929 . S
C540 H534 0.930 . S
C540 C541 1.367 . S
C540 C548 1.378 . S
C541 C540 1.367 . S
C541 C549 1.433 . S
C542 H538 0.929 . S
C542 C544 1.378 . S
C542 C546 1.350 . S
C543 C546 1.463 . S
C543 C548 1.350 . S
C543 N551 1.427 . S
C544 H535 0.930 . S
C544 C542 1.378 . S
C544 C545 1.367 . S
C545 C544 1.367 . S
C545 C547 1.433 . S
C546 C542 1.350 . S
C546 C543 1.463 . S
C546 N550 1.427 . S
C547 H537 0.929 . S
C547 C545 1.433 . S
C547 N550 1.384 . S
C548 H539 0.929 . S
C548 C540 1.378 . S
C548 C543 1.350 . S
C549 H536 0.929 . S
C549 C541 1.433 . S
C549 N551 1.384 . S
N550 C546 1.427 . S
N550 C547 1.384 . S
N551 C543 1.427 . S
N551 C549 1.384 . S
H552 C558 0.930 . S
H553 C562 0.930 . S
H554 C567 0.929 . S
H555 C565 0.929 . S
H556 C560 0.929 . S
H557 C566 0.929 . S
C558 H552 0.930 . S
C558 C559 1.367 . S
C558 C566 1.378 . S
C559 C558 1.367 . S
C559 C567 1.433 . S
C560 H556 0.929 . S
C560 C562 1.378 1_455 S
C560 C564 1.350 . S
C561 C564 1.463 . S
C561 C566 1.350 . S
C561 N569 1.427 . S
C562 H553 0.930 . S
C562 C560 1.378 1_655 S
C562 C563 1.367 . S
C563 C562 1.367 . S
C563 C565 1.433 . S
C564 C560 1.350 . S
C564 C561 1.463 . S
C564 N568 1.427 . S
C565 H555 0.929 . S
C565 C563 1.433 . S
C565 N568 1.384 1_655 S
C566 H557 0.929 . S
C566 C558 1.378 . S
C566 C561 1.350 . S
C567 H554 0.929 . S
C567 C559 1.433 . S
C567 N569 1.384 . S
N568 C564 1.427 . S
N568 C565 1.384 1_455 S
N569 C561 1.427 . S
N569 C567 1.384 . S
H570 C576 0.930 . S
H571 C580 0.930 . S
H572 C585 0.929 . S
H573 C583 0.929 . S
H574 C578 0.929 . S
H575 C584 0.929 . S
C576 H570 0.930 . S
C576 C577 1.367 1_545 S
C576 C584 1.378 . S
C577 C576 1.367 1_565 S
C577 C585 1.433 . S
C578 H574 0.929 . S
C578 C580 1.378 . S
C578 C582 1.350 . S
C579 C582 1.463 . S
C579 C584 1.350 . S
C579 N587 1.427 1_545 S
C580 H571 0.930 . S
C580 C578 1.378 . S
C580 C581 1.367 . S
C581 C580 1.367 . S
C581 C583 1.433 . S
C582 C578 1.350 . S
C582 C579 1.463 . S
C582 N586 1.427 . S
C583 H573 0.929 . S
C583 C581 1.433 . S
C583 N586 1.384 . S
C584 H575 0.929 . S
C584 C576 1.378 . S
C584 C579 1.350 . S
C585 H572 0.929 . S
C585 C577 1.433 . S
C585 N587 1.384 . S
N586 C582 1.427 . S
N586 C583 1.384 . S
N587 C579 1.427 1_565 S
N587 C585 1.384 . S
C163 C107 1.654 . S
C167 C5 1.581 . S
C181 C16 1.657 . S
C185 C120 1.656 . S
C199 C29 1.655 . S
C203 C135 1.578 . S
C217 C44 1.592 . S
C221 C146 1.656 . S
C235 C81 1.655 . S
C239 C55 1.654 . S
C253 C68 1.654 . S
C257 C96 1.589 . S
C271 C118 1.439 . S
C275 C10 1.397 . S
C289 C14 1.438 . S
C293 C140 1.397 . S
C307 C144 1.445 . S
C311 C27 1.445 . S
C325 C49 1.397 . S
C329 C79 1.440 . S
C343 C101 1.411 . S
C347 C53 1.443 . S
C361 C105 1.438 . S
C365 C66 1.438 . S
C379 C3 1.888 . S
C383 C75 1.822 . S
C397 C18 1.854 . S
C401 C1 1.874 . S
C415 C23 1.821 . S
C419 C31 1.853 . S
C433 C42 1.887 . S
C437 C36 1.831 . S
C451 C57 1.848 . S
C455 C40 1.878 . S
C469 C70 1.849 . S
C473 C62 1.832 . S
C487 C83 1.855 . S
C491 C92 1.873 . S
C505 C94 1.887 . S
C509 C114 1.832 . S
C523 C109 1.846 . S
C527 C127 1.827 . S
C541 C122 1.849 . S
C545 C131 1.878 . S
C559 C133 1.887 . S
C563 C153 1.831 . S
C577 C88 1.822 . S
C581 C148 1.850 . S
