# Generated by pormake.
# Topology fnv, (5)-cn, num edge types: 1
# Building blocks:
#     Node 0, Type 0, BuildingBlock: BEQFEK_clean_sbu_0, # of connection points: 5
#     Node 1, Type 0, BuildingBlock: BEQFEK_clean_sbu_0, # of connection points: 5
#     Node 2, Type 0, BuildingBlock: BEQFEK_clean_sbu_0, # of connection points: 5
#     Node 3, Type 0, BuildingBlock: BEQFEK_clean_sbu_0, # of connection points: 5
#     Node 4, Type 0, BuildingBlock: BEQFEK_clean_sbu_0, # of connection points: 5
#     Node 5, Type 0, BuildingBlock: BEQFEK_clean_sbu_0, # of connection points: 5
#     Edge 6, Type (0, 0), BuildingBlock: UVAHIK_clean_linker_0, # of connection points: 2
#     Edge 7, Type (0, 0), BuildingBlock: UVAHIK_clean_linker_0, # of connection points: 2
#     Edge 8, Type (0, 0), BuildingBlock: UVAHIK_clean_linker_0, # of connection points: 2
#     Edge 9, Type (0, 0), BuildingBlock: UVAHIK_clean_linker_0, # of connection points: 2
#     Edge 10, Type (0, 0), BuildingBlock: UVAHIK_clean_linker_0, # of connection points: 2
#     Edge 11, Type (0, 0), BuildingBlock: UVAHIK_clean_linker_0, # of connection points: 2
#     Edge 12, Type (0, 0), BuildingBlock: UVAHIK_clean_linker_0, # of connection points: 2
#     Edge 13, Type (0, 0), BuildingBlock: UVAHIK_clean_linker_0, # of connection points: 2
#     Edge 14, Type (0, 0), BuildingBlock: UVAHIK_clean_linker_0, # of connection points: 2
#     Edge 15, Type (0, 0), BuildingBlock: UVAHIK_clean_linker_0, # of connection points: 2
#     Edge 16, Type (0, 0), BuildingBlock: UVAHIK_clean_linker_0, # of connection points: 2
#     Edge 17, Type (0, 0), BuildingBlock: UVAHIK_clean_linker_0, # of connection points: 2
#     Edge 18, Type (0, 0), BuildingBlock: UVAHIK_clean_linker_0, # of connection points: 2
#     Edge 19, Type (0, 0), BuildingBlock: UVAHIK_clean_linker_0, # of connection points: 2
#     Edge 20, Type (0, 0), BuildingBlock: UVAHIK_clean_linker_0, # of connection points: 2
# Relax obj value: 0.494
# Max RMSD: 0.268
# Mean RMSD: 0.268
data_MOF--net-fnv--node1-BEQFEK_clean_sbu_0--edge1-UVAHIK_clean_linker_0
_symmetry_space_group_name_H-M    P1
_symmetry_Int_Tables_number       1
_symmetry_cell_setting            triclinic
loop_
_symmetry_equiv_pos_as_xyz
'x, y, z'
_cell_length_a     43.749375
_cell_length_b     43.730464
_cell_length_c     36.61449
_cell_angle_alpha  89.959156
_cell_angle_beta   90.010357
_cell_angle_gamma 120.02315
loop_
_atom_site_label
_atom_site_type_symbol
_atom_site_fract_x
_atom_site_fract_y
_atom_site_fract_z
_atom_type_partial_charge
Co0 Co 0.24915 0.37635 0.98488 0.0
Co1 Co 0.24196 0.42348 0.04453 0.0
C2 C 0.24955 0.44362 0.96622 0.0
O3 O 0.25172 0.41664 0.9574 0.0
O4 O 0.24494 0.44933 -0.00074 0.0
C5 C 0.22098 0.33355 0.92286 0.0
O6 O 0.20297 0.35017 0.92102 0.0
C7 C 0.22989 0.47407 0.08525 0.0
C8 C 0.23622 0.46198 0.14241 0.0
C9 C 0.23096 0.485 0.12091 0.0
N10 N 0.23491 0.44619 0.08542 0.0
N11 N 0.23849 0.43896 0.1197 0.0
C12 C 0.22338 0.48937 0.05162 0.0
H13 H 0.24901 0.50671 0.03799 0.0
H14 H 0.20612 0.46789 0.03259 0.0
H15 H 0.21064 0.50516 0.05826 0.0
C16 C 0.18353 0.32207 0.02075 0.0
N17 N 0.21024 0.35556 0.01715 0.0
N18 N 0.20635 0.3756 0.04132 0.0
C19 C 0.1766 0.35567 0.06051 0.0
C20 C 0.16134 0.3211 0.04817 0.0
C21 C 0.18056 0.29109 0.00024 0.0
H22 H 0.20711 0.29444 -0.00434 0.0
H23 H 0.16794 0.28916 0.97342 0.0
H24 H 0.16411 0.26609 0.01537 0.0
O25 O 0.29418 0.39344 0.01147 0.0
O26 O 0.28856 0.4277 0.05243 0.0
H27 H 0.17562 0.37188 0.11526 0.0
H28 H 0.13343 0.3521 0.09257 0.0
C29 C 0.16227 0.36978 0.08886 0.0
H30 H 0.16747 0.39643 0.08091 0.0
H31 H 0.24341 0.41887 0.12752 0.0
O32 O 0.24342 0.34116 0.9483 0.0
C33 C 0.30633 0.415 0.03812 0.0
Co34 Co 0.8721 0.24667 0.31009 0.0
Co35 Co 0.82182 0.24796 0.37001 0.0
C36 C 0.80842 0.25326 0.29165 0.0
O37 O 0.83611 0.25235 0.28296 0.0
O38 O 0.79857 0.25041 0.32478 0.0
C39 C 0.88203 0.21417 0.24795 0.0
O40 O 0.84778 0.20064 0.24435 0.0
C41 C 0.76611 0.24948 0.4133 0.0
C42 C 0.78281 0.24705 0.46969 0.0
C43 C 0.75737 0.24965 0.44966 0.0
N44 N 0.79506 0.24624 0.41187 0.0
N45 N 0.80501 0.245 0.44567 0.0
C46 C 0.75022 0.25687 0.38065 0.0
H47 H 0.77148 0.27817 0.36417 0.0
H48 H 0.73679 0.23273 0.36355 0.0
H49 H 0.73114 0.26542 0.38831 0.0
C50 C 0.85498 0.18068 0.34879 0.0
N51 N 0.85186 0.20958 0.34449 0.0
N52 N 0.82934 0.20898 0.36869 0.0
C53 C 0.81659 0.17906 0.38846 0.0
C54 C 0.83265 0.16037 0.37661 0.0
C55 C 0.88025 0.17355 0.32806 0.0
H56 H 0.90525 0.19857 0.32308 0.0
H57 H 0.86835 0.16138 0.30141 0.0
H58 H 0.88616 0.15514 0.34325 0.0
O59 O 0.90414 0.29232 0.3337 0.0
O60 O 0.86702 0.29295 0.37455 0.0
H61 H 0.79939 0.1777 0.44331 0.0
H62 H 0.77233 0.13796 0.4179 0.0
C63 C 0.78766 0.16722 0.41612 0.0
H64 H 0.7696 0.17719 0.4089 0.0
H65 H 0.82746 0.24357 0.45233 0.0
O66 O 0.89813 0.23551 0.27394 0.0
C67 C 0.89722 0.30762 0.35931 0.0
Co68 Co 0.60693 0.85682 0.63651 0.0
Co69 Co 0.55729 0.8085 0.69885 0.0
C70 C 0.53833 0.79039 0.6207 0.0
O71 O 0.5664 0.81803 0.6106 0.0
O72 O 0.53162 0.78272 0.65439 0.0
C73 C 0.64934 0.86901 0.57306 0.0
O74 O 0.62916 0.83487 0.56788 0.0
C75 C 0.50298 0.75217 0.74422 0.0
C76 C 0.52025 0.77336 0.7999 0.0
C77 C 0.49396 0.74515 0.78079 0.0
N78 N 0.53355 0.7829 0.74181 0.0
N79 N 0.5437 0.79548 0.77518 0.0
C80 C 0.48074 0.7329 0.71191 0.0
H81 H 0.49505 0.72322 0.69475 0.0
H82 H 0.45467 0.71045 0.71977 0.0
H83 H 0.47626 0.75158 0.69543 0.0
C84 C 0.65828 0.84466 0.67693 0.0
N85 N 0.62561 0.83982 0.67235 0.0
N86 N 0.60463 0.81834 0.69781 0.0
C87 C 0.62314 0.80812 0.71893 0.0
C88 C 0.65775 0.8247 0.7065 0.0
C89 C 0.68975 0.86921 0.65454 0.0
H90 H 0.68935 0.89395 0.64906 0.0
H91 H 0.68882 0.85643 0.62808 0.0
H92 H 0.71476 0.87581 0.66864 0.0
O93 O 0.59107 0.88795 0.65805 0.0
O94 O 0.55514 0.85248 0.7011 0.0
H95 H 0.60765 0.79432 0.77453 0.0
H96 H 0.62305 0.76763 0.75282 0.0
C97 C 0.6075 0.78108 0.74865 0.0
H98 H 0.57989 0.76108 0.74186 0.0
H99 H 0.5662 0.81962 0.78099 0.0
O100 O 0.64368 0.88364 0.60015 0.0
C101 C 0.56926 0.8817 0.68391 0.0
Co102 Co 0.73422 0.61498 0.98752 0.0
Co103 Co 0.73717 0.57 0.05249 0.0
C104 C 0.72598 0.54367 0.97562 0.0
O105 O 0.72815 0.57187 0.96326 0.0
O106 O 0.72907 0.5397 0.00956 0.0
C107 C 0.76156 0.65257 0.92164 0.0
O108 O 0.7755 0.63215 0.91891 0.0
C109 C 0.75388 0.52365 0.09496 0.0
C110 C 0.73978 0.53082 0.15104 0.0
C111 C 0.75151 0.51201 0.13069 0.0
N112 N 0.7441 0.54827 0.09435 0.0
N113 N 0.73606 0.55273 0.12797 0.0
C114 C 0.76079 0.50882 0.06113 0.0
H115 H 0.77742 0.53061 0.04204 0.0
H116 H 0.77364 0.49306 0.06672 0.0
H117 H 0.73523 0.49126 0.04759 0.0
C118 C 0.802 0.66807 0.02058 0.0
N119 N 0.77365 0.63532 0.01899 0.0
N120 N 0.7756 0.61605 0.04548 0.0
C121 C 0.80557 0.63569 0.06441 0.0
C122 C 0.82315 0.66933 0.04932 0.0
C123 C 0.80726 0.69837 -0.00291 0.0
H124 H 0.78173 0.69747 -0.00713 0.0
H125 H 0.81773 0.69638 0.97016 0.0
H126 H 0.82625 0.7241 0.0096 0.0
O127 O 0.69013 0.6025 0.01448 0.0
O128 O 0.69332 0.57125 0.06069 0.0
H129 H 0.80141 0.61948 0.12009 0.0
H130 H 0.84578 0.63989 0.102 0.0
C131 C 0.81747 0.62205 0.09561 0.0
H132 H 0.81336 0.59556 0.08878 0.0
H133 H 0.72689 0.56987 0.13494 0.0
O134 O 0.74187 0.64902 0.94872 0.0
C135 C 0.67729 0.58441 0.04353 0.0
Co136 Co 0.11482 0.74383 0.31173 0.0
Co137 Co 0.1679 0.74432 0.36942 0.0
C138 C 0.17971 0.74059 0.29028 0.0
O139 O 0.15102 0.74003 0.28297 0.0
O140 O 0.1906 0.74358 0.32301 0.0
C141 C 0.10332 0.77571 0.25051 0.0
O142 O 0.13766 0.78982 0.2471 0.0
C143 C 0.2256 0.74343 0.40914 0.0
C144 C 0.21424 0.75005 0.46645 0.0
C145 C 0.23771 0.74585 0.44458 0.0
N146 N 0.19684 0.74701 0.40982 0.0
N147 N 0.18993 0.75052 0.44422 0.0
C148 C 0.23835 0.73347 0.37576 0.0
H149 H 0.25311 0.7572 0.35831 0.0
H150 H 0.25568 0.72254 0.38266 0.0
H151 H 0.21546 0.71316 0.36016 0.0
C152 C 0.13143 0.80943 0.35059 0.0
N153 N 0.13496 0.78078 0.3462 0.0
N154 N 0.15862 0.78226 0.36943 0.0
C155 C 0.17174 0.81259 0.38855 0.0
C156 C 0.1547 0.83054 0.37734 0.0
C157 C 0.10551 0.81603 0.33045 0.0
H158 H 0.08056 0.79083 0.326 0.0
H159 H 0.11681 0.82812 0.30358 0.0
H160 H 0.09969 0.8344 0.34583 0.0
O161 O 0.08471 0.6977 0.33542 0.0
O162 O 0.12378 0.69827 0.37451 0.0
H163 H 0.19235 0.81681 0.44233 0.0
H164 H 0.21752 0.85524 0.41446 0.0
C165 C 0.20235 0.82593 0.41428 0.0
H166 H 0.22012 0.81581 0.40639 0.0
H167 H 0.16832 0.75274 0.45257 0.0
O168 O 0.08738 0.75415 0.27643 0.0
C169 C 0.09315 0.68279 0.36017 0.0
Co170 Co 0.38098 0.13109 0.63514 0.0
Co171 Co 0.42737 0.17166 0.70235 0.0
C172 C 0.45257 0.19449 0.62592 0.0
O173 O 0.4243 0.16948 0.61232 0.0
O174 O 0.45682 0.19852 0.66032 0.0
C175 C 0.34352 0.12201 0.56773 0.0
O176 O 0.36739 0.15501 0.56099 0.0
C177 C 0.47275 0.23042 0.74961 0.0
C178 C 0.47632 0.20307 0.79879 0.0
C179 C 0.48971 0.23626 0.78315 0.0
N180 N 0.45116 0.19555 0.74551 0.0
N181 N 0.45308 0.17932 0.77511 0.0
C182 C 0.47573 0.25708 0.72208 0.0
H183 H 0.45134 0.24619 0.70535 0.0
H184 H 0.48043 0.2817 0.73577 0.0
H185 H 0.49812 0.26342 0.7035 0.0
C186 C 0.33096 0.14731 0.67317 0.0
N187 N 0.36222 0.14838 0.67088 0.0
N188 N 0.38182 0.16576 0.69911 0.0
C189 C 0.3638 0.17651 0.72019 0.0
C190 C 0.33107 0.16522 0.70436 0.0
C191 C 0.30262 0.13153 0.64476 0.0
H192 H 0.29551 0.10373 0.63977 0.0
H193 H 0.31277 0.14644 0.61889 0.0
H194 H 0.27867 0.1324 0.65293 0.0
O195 O 0.39245 0.09615 0.65613 0.0
O196 O 0.42534 0.12579 0.70366 0.0
H197 H 0.38899 0.18407 0.7722 0.0
H198 H 0.35635 0.19784 0.77064 0.0
C199 C 0.37751 0.1967 0.75505 0.0
H200 H 0.39872 0.22398 0.74872 0.0
H201 H 0.4395 0.15196 0.77857 0.0
O202 O 0.34537 0.1073 0.59693 0.0
C203 C 0.41105 0.09826 0.68382 0.0
C204 C 0.62524 0.55116 0.08465 0.0
C205 C 0.64101 0.57434 0.05501 0.0
C206 C 0.58915 0.53603 0.09135 0.0
C207 C 0.50922 0.54061 0.0693 0.0
H208 H 0.46191 0.43835 0.07565 0.0
C209 C 0.36479 0.41758 0.03348 0.0
C210 C 0.34319 0.42877 0.0503 0.0
C211 C 0.40088 0.43445 0.04127 0.0
C212 C 0.47478 0.46688 0.07408 0.0
H213 H 0.6317 0.60198 0.01102 0.0
H214 H 0.56866 0.5756 0.02287 0.0
H215 H 0.5263 0.4728 0.07666 0.0
H216 H 0.34224 0.46506 0.09022 0.0
H217 H 0.40512 0.49439 0.10359 0.0
H218 H 0.45768 0.53458 0.06545 0.0
C219 C 0.58427 0.56909 0.04082 0.0
C220 C 0.51158 0.48663 0.07501 0.0
C221 C 0.62039 0.58412 0.03397 0.0
C222 C 0.35811 0.45589 0.07652 0.0
C223 C 0.39418 0.47287 0.0841 0.0
C224 C 0.47239 0.52087 0.06868 0.0
C225 C 0.56812 0.54395 0.06876 0.0
C226 C 0.52917 0.52364 0.07197 0.0
C227 C 0.41605 0.46291 0.06589 0.0
C228 C 0.45485 0.48378 0.07039 0.0
H229 H 0.64037 0.54328 0.10168 0.0
H230 H 0.57744 0.51717 0.11346 0.0
H231 H 0.52211 0.56909 0.06706 0.0
H232 H 0.35416 0.39674 0.01323 0.0
H233 H 0.41719 0.42635 0.02668 0.0
C234 C 0.07844 0.62818 0.39567 0.0
C235 C 0.06885 0.64521 0.36921 0.0
C236 C 0.05904 0.59153 0.3997 0.0
C237 C 0.00542 0.51332 0.41076 0.0
H238 H 0.98206 0.46305 0.31852 0.0
C239 C 0.91494 0.36212 0.39618 0.0
C240 C 0.92275 0.34486 0.3684 0.0
C241 C 0.93525 0.39868 0.40039 0.0
C242 C 0.98877 0.4767 0.34451 0.0
H243 H 0.02976 0.63726 0.32815 0.0
H244 H -0.00428 0.57331 0.33549 0.0
H245 H 0.00942 0.52705 0.31872 0.0
H246 H 0.95973 0.3522 0.32513 0.0
H247 H -0.00462 0.41603 0.33278 0.0
H248 H 0.98499 0.46273 0.43647 0.0
C249 C 0.01869 0.58834 0.3526 0.0
C250 C 0.00389 0.51333 0.34464 0.0
C251 C 0.03805 0.62501 0.34861 0.0
C252 C 0.95282 0.36466 0.34663 0.0
C253 C 0.97308 0.40126 0.35081 0.0
C254 C 0.9901 0.47654 0.41064 0.0
C255 C 0.02966 0.57113 0.37734 0.0
C256 C 0.01232 0.53205 0.37773 0.0
C257 C 0.96378 0.41876 0.3769 0.0
C258 C 0.98167 0.45788 0.37748 0.0
H259 H 0.10192 0.64293 0.41217 0.0
H260 H 0.0682 0.57905 0.41894 0.0
H261 H 0.01158 0.52705 0.43669 0.0
H262 H 0.89208 0.34765 0.41361 0.0
H263 H 0.92735 0.41138 0.42068 0.0
C264 C 0.5297 0.89828 0.71712 0.0
C265 C 0.55678 0.90687 0.69148 0.0
C266 C 0.51381 0.91898 0.72028 0.0
C267 C 0.49262 0.97478 0.73104 0.0
H268 H 0.47344 0.00584 0.639 0.0
C269 C 0.44232 0.07375 0.72005 0.0
C270 C 0.41995 0.0703 0.69079 0.0
C271 C 0.45594 0.05106 0.72323 0.0
C272 C 0.47813 -0.00306 0.66491 0.0
H273 H 0.59004 0.9454 0.65088 0.0
H274 H 0.56273 0.98193 0.65696 0.0
H275 H 0.50599 0.97426 0.63929 0.0
H276 H 0.39221 0.03855 0.64356 0.0
H277 H 0.41552 -0.00152 0.64955 0.0
H278 H 0.46405 -0.00309 0.75654 0.0
C279 C 0.5532 0.95862 0.67393 0.0
C280 C 0.49738 0.9794 0.66514 0.0
C281 C 0.56905 0.93785 0.67067 0.0
C282 C 0.4096 0.04213 0.66623 0.0
C283 C 0.42319 0.01935 0.66949 0.0
C284 C 0.47326 0.99229 0.73081 0.0
C285 C 0.52472 0.94882 0.69799 0.0
C286 C 0.50502 0.96828 0.69819 0.0
C287 C 0.4474 0.02431 0.69733 0.0
C288 C 0.4659 0.00366 0.69773 0.0
H289 H 0.51964 0.87466 0.7337 0.0
H290 H 0.49184 0.91059 0.73895 0.0
H291 H 0.49818 0.96666 0.75697 0.0
H292 H 0.45071 0.09503 0.73962 0.0
H293 H 0.47465 0.05575 0.74489 0.0
C294 C 0.18039 0.7195 0.22706 0.0
C295 C 0.19688 0.73093 0.26127 0.0
C296 C 0.1901 0.70067 0.20362 0.0
C297 C 0.25326 0.66878 0.18805 0.0
H298 H 0.16804 0.57955 0.16884 0.0
C299 C 0.25083 0.54918 0.11618 0.0
C300 C 0.23018 0.5165 0.13363 0.0
C301 C 0.24964 0.57896 0.12774 0.0
C302 C 0.19204 0.60435 0.17395 0.0
H303 H 0.23994 0.73617 0.29513 0.0
H304 H 0.25656 0.70303 0.25446 0.0
H305 H 0.16345 0.62914 0.19237 0.0
H306 H 0.19321 0.48929 0.17746 0.0
H307 H 0.19071 0.54143 0.19759 0.0
H308 H 0.28175 0.64327 0.17051 0.0
C309 C 0.23591 0.70826 0.24592 0.0
C310 C 0.18945 0.6329 0.18692 0.0
C311 C 0.22617 0.72706 0.26941 0.0
C312 C 0.20905 0.51419 0.16342 0.0
C313 C 0.20751 0.54387 0.17473 0.0
C314 C 0.25584 0.64021 0.17465 0.0
C315 C 0.21659 0.69316 0.21385 0.0
C316 C 0.22001 0.66521 0.19476 0.0
C317 C 0.22762 0.57644 0.15681 0.0
C318 C 0.22521 0.60755 0.1683 0.0
H319 H 0.15813 0.72258 0.21955 0.0
H320 H 0.1753 0.68995 0.17861 0.0
H321 H 0.27721 0.69339 0.1939 0.0
H322 H 0.26802 0.55173 0.09367 0.0
H323 H 0.26543 0.60378 0.11357 0.0
C324 C 0.51428 0.24396 0.61625 0.0
C325 C 0.48309 0.21584 0.60181 0.0
C326 C 0.54565 0.25864 0.59632 0.0
C327 C 0.58514 0.25775 0.50639 0.0
H328 H 0.65777 0.25783 0.56724 0.0
C329 C 0.69414 0.23421 0.44971 0.0
C330 C 0.7281 0.25321 0.46482 0.0
C331 C 0.66638 0.2373 0.46437 0.0
C332 C 0.63816 0.25868 0.54988 0.0
H333 H 0.45958 0.18359 0.55362 0.0
H334 H 0.51436 0.20866 0.51921 0.0
H335 H 0.60512 0.25239 0.59541 0.0
H336 H 0.75978 0.28988 0.50727 0.0
H337 H 0.71121 0.29543 0.53302 0.0
H338 H 0.61788 0.26264 0.46071 0.0
C339 C 0.51465 0.21959 0.54583 0.0
C340 C 0.60794 0.25566 0.56605 0.0
C341 C 0.48319 0.20506 0.56567 0.0
C342 C 0.73379 0.27504 0.49511 0.0
C343 C 0.70604 0.2782 0.50979 0.0
C344 C 0.61545 0.26076 0.49018 0.0
C345 C 0.54651 0.24535 0.56166 0.0
C346 C 0.58071 0.25435 0.54447 0.0
C347 C 0.672 0.25926 0.49464 0.0
C348 C 0.64188 0.26041 0.51174 0.0
H349 H 0.51501 0.25329 0.64377 0.0
H350 H 0.56963 0.27909 0.60889 0.0
H351 H 0.5648 0.25722 0.48908 0.0
H352 H 0.68888 0.21637 0.42701 0.0
H353 H 0.64029 0.22166 0.45267 0.0
C354 C 0.44271 0.72093 0.82348 0.0
C355 C 0.46211 0.71517 0.79661 0.0
C356 C 0.41212 0.69255 0.83801 0.0
C357 C 0.34594 0.59831 0.82136 0.0
H358 H 0.33463 0.5951 0.92651 0.0
C359 C 0.27367 0.47097 0.90534 0.0
C360 C 0.25807 0.47154 0.9387 0.0
C361 C 0.28976 0.50104 0.88331 0.0
C362 C 0.3368 0.59586 0.89702 0.0
H363 H 0.46613 0.67549 0.76505 0.0
H364 H 0.413 0.62578 0.79065 0.0
H365 H 0.38159 0.64792 0.89804 0.0
H366 H 0.24292 0.50247 0.97256 0.0
H367 H 0.271 0.55493 0.9341 0.0
H368 H 0.30197 0.54548 0.8207 0.0
C369 C 0.42053 0.65223 0.79962 0.0
C370 C 0.36384 0.62617 0.88069 0.0
C371 C 0.451 0.6806 0.78506 0.0
C372 C 0.25557 0.50148 0.94758 0.0
C373 C 0.27165 0.53155 0.92555 0.0
C374 C 0.31891 0.5679 0.83773 0.0
C375 C 0.40068 0.65787 0.82619 0.0
C376 C 0.3693 0.6274 0.8428 0.0
C377 C 0.29039 0.53217 0.89414 0.0
C378 C 0.31462 0.56606 0.87584 0.0
H379 H 0.45091 0.74744 0.83284 0.0
H380 H 0.39734 0.69777 0.85835 0.0
H381 H 0.34907 0.59874 0.79199 0.0
H382 H 0.2758 0.44823 0.89747 0.0
H383 H 0.30402 0.50066 0.8593 0.0
C384 C 0.76223 0.26811 0.27319 0.0
C385 C 0.79164 0.26479 0.26397 0.0
C386 C 0.7528 0.28839 0.25151 0.0
C387 C 0.79962 0.36786 0.19922 0.0
H388 H 0.70759 0.35472 0.17491 0.0
C389 C 0.78499 0.47962 0.13434 0.0
C390 C 0.75554 0.48244 0.14413 0.0
C391 C 0.78742 0.45029 0.14506 0.0
C392 C 0.73346 0.35893 0.18193 0.0
H393 H 0.83124 0.27621 0.22222 0.0
H394 H 0.81483 0.3117 0.18468 0.0
H395 H 0.71251 0.30475 0.19767 0.0
H396 H 0.70671 0.45838 0.17487 0.0
H397 H 0.71168 0.40792 0.19531 0.0
H398 H 0.82065 0.42215 0.18572 0.0
C399 C 0.79951 0.2991 0.20898 0.0
C400 C 0.73622 0.33023 0.19459 0.0
C401 C 0.80877 0.27865 0.23047 0.0
C402 C 0.72947 0.45648 0.16655 0.0
C403 C 0.73211 0.42736 0.17779 0.0
C404 C 0.79684 0.39659 0.18716 0.0
C405 C 0.77269 0.30565 0.22035 0.0
C406 C 0.76935 0.33453 0.20343 0.0
C407 C 0.7609 0.42365 0.16677 0.0
C408 C 0.76373 0.3926 0.17854 0.0
H409 H 0.74806 0.25725 0.29845 0.0
H410 H 0.73189 0.29293 0.26078 0.0
H411 H 0.82542 0.37209 0.20669 0.0
H412 H 0.80616 0.50005 0.11829 0.0
H413 H 0.80995 0.4484 0.13593 0.0
C414 C 0.26766 0.72633 0.4893 0.0
C415 C 0.269 0.74434 0.45708 0.0
C416 C 0.29731 0.72485 0.501 0.0
C417 C 0.39382 0.7734 0.49305 0.0
H418 H 0.38678 0.68954 0.53743 0.0
C419 C 0.51566 0.78186 0.55664 0.0
C420 C 0.51033 0.77075 0.5933 0.0
C421 C 0.48694 0.77079 0.53309 0.0
C422 C 0.38915 0.71311 0.52498 0.0
H423 H 0.30267 0.77637 0.41276 0.0
H424 H 0.35409 0.77312 0.43258 0.0
H425 H 0.33429 0.687 0.51072 0.0
H426 H 0.47127 0.73533 0.63229 0.0
H427 H 0.4213 0.71687 0.59172 0.0
H428 H 0.44809 0.79997 0.50831 0.0
C429 C 0.33017 0.75991 0.44874 0.0
C430 C 0.35911 0.7117 0.50985 0.0
C431 C 0.30061 0.76142 0.43714 0.0
C432 C 0.47628 0.74505 0.60453 0.0
C433 C 0.44753 0.73419 0.58107 0.0
C434 C 0.42373 0.77482 0.50813 0.0
C435 C 0.32891 0.7417 0.48085 0.0
C436 C 0.36105 0.74203 0.49431 0.0
C437 C 0.45238 0.74854 0.54577 0.0
C438 C 0.42167 0.74489 0.52486 0.0
H439 H 0.24364 0.71322 0.50531 0.0
H440 H 0.29573 0.7112 0.52624 0.0
H441 H 0.39612 0.79738 0.48181 0.0
H442 H 0.54165 0.80109 0.54679 0.0
H443 H 0.4916 0.7815 0.50566 0.0
C444 C 0.54333 0.29666 0.77621 0.0
C445 C 0.51865 0.26937 0.79874 0.0
C446 C 0.57145 0.32693 0.79144 0.0
C447 C 0.62735 0.35917 0.87194 0.0
H448 H 0.63909 0.45077 0.84777 0.0
C449 C 0.69938 0.47895 0.96544 0.0
C450 C 0.71478 0.51322 0.95091 0.0
C451 C 0.68256 0.44959 0.94269 0.0
C452 C 0.63694 0.42559 0.85419 0.0
H453 H 0.50497 0.25202 0.85489 0.0
H454 H 0.55461 0.30472 0.88142 0.0
H455 H 0.59467 0.39836 0.81601 0.0
H456 H 0.72725 0.54365 0.90082 0.0
H457 H 0.69876 0.49222 0.86081 0.0
H458 H 0.66952 0.38611 0.91006 0.0
C459 C 0.55176 0.30271 0.85198 0.0
C460 C 0.61126 0.39556 0.83614 0.0
C461 C 0.52331 0.27269 0.8368 0.0
C462 C 0.71528 0.51753 0.91285 0.0
C463 C 0.69875 0.48806 0.88997 0.0
C464 C 0.65343 0.38924 0.88958 0.0
C465 C 0.57599 0.33008 0.82941 0.0
C466 C 0.60563 0.36206 0.84563 0.0
C467 C 0.68104 0.45376 0.90477 0.0
C468 C 0.65782 0.42271 0.88173 0.0
H469 H 0.54188 0.29443 0.74684 0.0
H470 H 0.59015 0.34755 0.77351 0.0
H471 H 0.6238 0.33357 0.87923 0.0
H472 H 0.69814 0.47463 -0.00537 0.0
H473 H 0.66884 0.4237 0.95524 0.0
C474 C 0.31311 0.20915 0.71953 0.0
C475 C 0.30413 0.17376 0.71612 0.0
C476 C 0.28871 0.21773 0.73326 0.0
C477 C 0.23 0.23074 0.75474 0.0
H478 H 0.19698 0.18806 0.84999 0.0
C479 C 0.19443 0.30058 0.86482 0.0
C480 C 0.21444 0.30545 0.89656 0.0
C481 C 0.19044 0.2754 0.83888 0.0
C482 C 0.20546 0.19986 0.8232 0.0
H483 H 0.26272 0.1194 0.72272 0.0
H484 H 0.21966 0.1344 0.74739 0.0
H485 H 0.21873 0.16108 0.80678 0.0
H486 H 0.24404 0.28639 0.92719 0.0
H487 H 0.23756 0.24307 0.882 0.0
H488 H 0.21985 0.27134 0.77245 0.0
C489 C 0.24551 0.15547 0.73928 0.0
C490 C 0.21761 0.18423 0.7983 0.0
C491 C 0.26999 0.1469 0.72525 0.0
C492 C 0.22882 0.28355 0.9028 0.0
C493 C 0.22464 0.25831 0.8771 0.0
C494 C 0.21795 0.24642 0.77967 0.0
C495 C 0.25489 0.19102 0.74403 0.0
C496 C 0.23202 0.20078 0.76475 0.0
C497 C 0.20608 0.25447 0.84451 0.0
C498 C 0.20766 0.23228 0.81494 0.0
H499 H 0.33936 0.23016 0.71242 0.0
H500 H 0.29703 0.24536 0.73725 0.0
H501 H 0.24035 0.24362 0.72872 0.0
H502 H 0.18279 0.31693 0.85947 0.0
H503 H 0.17596 0.27292 0.81402 0.0
C504 C 0.9356 0.21078 0.23265 0.0
C505 C 0.90173 0.20393 0.22296 0.0
C506 C 0.95568 0.2038 0.20821 0.0
C507 C 0.99245 0.1811 0.15495 0.0
H508 H 0.00331 0.23447 0.06659 0.0
C509 C 0.10155 0.26929 0.0368 0.0
C510 C 0.12871 0.29025 0.06131 0.0
C511 C 0.06913 0.24243 0.04985 0.0
C512 C 0.00013 0.21846 0.09044 0.0
H513 H 0.86133 0.1824 0.18103 0.0
H514 H 0.89705 0.17092 0.13763 0.0
H515 H 0.95075 0.21448 0.10369 0.0
H516 H 0.14483 0.29839 0.11796 0.0
H517 H 0.08826 0.25189 0.141 0.0
H518 H 0.0434 0.18786 0.14316 0.0
C519 C 0.90786 0.18155 0.16429 0.0
C520 C 0.9699 0.20695 0.11175 0.0
C521 C 0.88754 0.18822 0.18903 0.0
C522 C 0.12397 0.28271 0.09871 0.0
C523 C 0.09178 0.25576 0.11174 0.0
C524 C 0.02271 0.19267 0.13366 0.0
C525 C 0.94244 0.19003 0.17339 0.0
C526 C 0.96698 0.19031 0.14544 0.0
C527 C 0.06368 0.23603 0.08756 0.0
C528 C 0.02781 0.21349 0.10254 0.0
H529 H 0.94706 0.22243 0.25882 0.0
H530 H 0.98243 0.21122 0.21586 0.0
H531 H 0.99043 0.16761 0.18044 0.0
H532 H 0.10484 0.27477 0.00776 0.0
H533 H 0.04791 0.22763 0.03066 0.0
C534 C 0.82811 0.12075 0.42757 0.0
C535 C 0.82661 0.12607 0.39006 0.0
C536 C 0.8199 0.08761 0.44072 0.0
C537 C 0.76214 -0.00392 0.41904 0.0
H538 H 0.80298 0.98293 0.5075 0.0
C539 C 0.68056 0.87833 0.51319 0.0
C540 C 0.67898 0.89047 0.54827 0.0
C541 C 0.70716 0.90044 0.48882 0.0
C542 C 0.79155 0.98597 0.48247 0.0
H543 H 0.81679 0.10187 0.33656 0.0
H544 H 0.80197 0.04341 0.35966 0.0
H545 H 0.83619 0.03699 0.47183 0.0
H546 H 0.70526 0.93401 0.58638 0.0
H547 H 0.75118 0.9724 0.54414 0.0
H548 H 0.71644 0.94643 0.4311 0.0
C549 C 0.80966 0.0649 0.37883 0.0
C550 C 0.81051 0.01687 0.46213 0.0
C551 C 0.81814 0.09822 0.36566 0.0
C552 C 0.70553 0.9241 0.55934 0.0
C553 C 0.73219 0.94593 0.53526 0.0
C554 C 0.74316 0.96522 0.43943 0.0
C555 C 0.80985 0.05915 0.41656 0.0
C556 C 0.79508 0.02305 0.43145 0.0
C557 C 0.73278 0.93473 0.49946 0.0
C558 C 0.75686 0.9609 0.47248 0.0
H559 H 0.83492 0.14205 0.44676 0.0
H560 H 0.8197 0.08387 0.46999 0.0
H561 H 0.74954 0.00015 0.39555 0.0
H562 H 0.66051 0.85238 0.50407 0.0
H563 H 0.70706 0.89118 0.46137 0.0
C564 C 0.6946 0.82534 0.75839 0.0
C565 C 0.68707 0.82097 0.72098 0.0
C566 C 0.71992 0.81839 0.77292 0.0
C567 C 0.78029 0.80904 0.79766 0.0
H568 H 0.75469 0.71288 0.7732 0.0
C569 C 0.78415 0.68013 0.86033 0.0
C570 C 0.76986 0.68057 0.89456 0.0
C571 C 0.7896 0.70556 0.83399 0.0
C572 C 0.76317 0.74014 0.77973 0.0
H573 H 0.70085 0.80774 0.66889 0.0
H574 H 0.74523 0.79517 0.69441 0.0
H575 H 0.73589 0.74506 0.73378 0.0
H576 H 0.75232 0.70915 0.92904 0.0
H577 H 0.76151 0.75308 0.88331 0.0
H578 H 0.80521 0.80296 0.84521 0.0
C579 C 0.73164 0.80407 0.71246 0.0
C580 C 0.75237 0.75863 0.7571 0.0
C581 C 0.70639 0.81127 0.6979 0.0
C582 C 0.76293 0.70786 0.90272 0.0
C583 C 0.76873 0.73338 0.87668 0.0
C584 C 0.79109 0.79055 0.82029 0.0
C585 C 0.73802 0.80675 0.75026 0.0
C586 C 0.75895 0.7924 0.76712 0.0
C587 C 0.78135 0.73206 0.84177 0.0
C588 C 0.78067 0.75517 0.81268 0.0
H589 H 0.68015 0.83313 0.77655 0.0
H590 H 0.72377 0.82014 0.80223 0.0
H591 H 0.78634 0.83536 0.80556 0.0
H592 H 0.78997 0.65949 0.85344 0.0
H593 H 0.79933 0.70396 0.80727 0.0
C594 C 0.86059 0.70966 0.09866 0.0
C595 C 0.85635 0.6999 0.06182 0.0
C596 C 0.89315 0.73612 0.11146 0.0
C597 C 0.98509 0.76885 0.09184 0.0
H598 H -0.00429 0.82218 0.18014 0.0
C599 C 0.09771 0.80082 0.19113 0.0
C600 C 0.08344 0.78541 0.22517 0.0
C601 C 0.07736 0.80702 0.16598 0.0
C602 C -0.00657 0.808 0.1551 0.0
H603 H 0.88146 0.71134 0.00872 0.0
H604 H 0.93884 0.75791 0.0311 0.0
H605 H 0.94336 0.80278 0.14208 0.0
H606 H 0.03796 0.76695 0.26078 0.0
H607 H 0.00254 0.77753 0.21707 0.0
H608 H 0.03382 0.77183 0.10617 0.0
C609 C 0.91709 0.74497 0.05016 0.0
C610 C 0.96348 0.79683 0.13339 0.0
C611 C 0.88439 0.71844 0.03737 0.0
C612 C 0.04945 0.77838 0.23454 0.0
C613 C 0.02936 0.78497 0.20968 0.0
C614 C 0.01509 0.78015 0.11345 0.0
C615 C 0.92208 0.75332 0.08756 0.0
C616 C 0.95796 0.77512 0.10294 0.0
C617 C 0.04272 0.79843 0.1748 0.0
C618 C 0.01832 0.79778 0.1465 0.0
H619 H 0.83903 0.69597 0.11781 0.0
H620 H 0.89614 0.74146 0.14051 0.0
H621 H 0.98167 0.75213 0.06859 0.0
H622 H 0.124 0.80673 0.18335 0.0
H623 H 0.08822 0.81737 0.13924 0.0
C624 C 0.16126 0.87243 0.4266 0.0
C625 C 0.16167 0.86553 0.38934 0.0
C626 C 0.17034 0.90625 0.43829 0.0
C627 C 0.18092 0.97854 0.45561 0.0
H628 H 0.27685 0.04458 0.42558 0.0
C629 C 0.31501 0.11355 0.50628 0.0
C630 C 0.31409 0.10189 0.54224 0.0
C631 C 0.28839 0.09231 0.48153 0.0
C632 C 0.24967 0.02713 0.43354 0.0
H633 H 0.17068 0.88761 0.33482 0.0
H634 H 0.18745 0.94736 0.3554 0.0
H635 H 0.24231 0.99032 0.39134 0.0
H636 H 0.28338 0.06031 0.58132 0.0
H637 H 0.23766 0.02336 0.53846 0.0
H638 H 0.18909 0.01437 0.4992 0.0
C639 C 0.17965 0.92652 0.37544 0.0
C640 C 0.22989 -0.00406 0.41392 0.0
C641 C 0.17011 0.8925 0.36374 0.0
C642 C 0.2851 0.06983 0.55364 0.0
C643 C 0.25852 0.04884 0.52914 0.0
C644 C 0.20059 0.00986 0.47506 0.0
C645 C 0.18037 0.93378 0.41288 0.0
C646 C 0.1962 0.97046 0.42618 0.0
C647 C 0.26032 0.05933 0.49256 0.0
C648 C 0.23596 0.0333 0.46561 0.0
H649 H 0.15461 0.85183 0.44669 0.0
H650 H 0.17128 0.91125 0.46736 0.0
H651 H 0.15472 0.95951 0.46516 0.0
H652 H 0.33693 0.13834 0.49687 0.0
H653 H 0.29036 0.1011 0.45352 0.0
loop_
_geom_bond_atom_site_label_1
_geom_bond_atom_site_label_2
_geom_bond_distance
_geom_bond_site_symmetry_2
_ccdc_geom_bond_type
Co0 O3 1.970 . S
Co0 N17 1.989 1_556 S
Co0 O25 1.967 1_556 S
Co0 O32 1.920 . S
Co1 O4 1.966 1_554 S
Co1 N10 2.022 . S
Co1 N18 1.993 . S
Co1 O26 1.941 . S
C2 O3 1.258 . S
C2 O4 1.263 . S
O3 Co0 1.970 . S
O3 C2 1.258 . S
O4 Co1 1.966 1_556 S
O4 C2 1.263 . S
C5 O6 1.235 . S
C5 O32 1.289 . S
O6 C5 1.235 . S
C7 C9 1.400 . S
C7 N10 1.351 . S
C7 C12 1.501 . S
C8 C9 1.387 . S
C8 N11 1.341 . S
C9 C7 1.400 . S
C9 C8 1.387 . S
N10 Co1 2.022 . S
N10 C7 1.351 . S
N10 N11 1.365 . S
N11 C8 1.341 . S
N11 N10 1.365 . S
N11 H31 0.862 . S
C12 C7 1.501 . S
C12 H13 0.961 . S
C12 H14 0.961 . S
C12 H15 0.960 . S
H13 C12 0.961 . S
H14 C12 0.961 . S
H15 C12 0.960 . S
C16 N17 1.342 . S
C16 C20 1.401 . S
C16 C21 1.499 . S
N17 Co0 1.989 1_554 S
N17 C16 1.342 . S
N17 N18 1.388 . S
N18 Co1 1.993 . S
N18 N17 1.388 . S
N18 C19 1.346 . S
C19 N18 1.346 . S
C19 C20 1.396 . S
C19 C29 1.510 . S
C20 C16 1.401 . S
C20 C19 1.396 . S
C21 C16 1.499 . S
C21 H22 0.959 1_554 S
C21 H23 0.968 . S
C21 H24 0.961 . S
H22 C21 0.959 1_556 S
H23 C21 0.968 . S
H24 C21 0.961 . S
O25 Co0 1.967 1_554 S
O25 C33 1.258 . S
O26 Co1 1.941 . S
O26 C33 1.266 . S
H27 C29 0.959 . S
H28 C29 0.961 . S
C29 C19 1.510 . S
C29 H27 0.959 . S
C29 H28 0.961 . S
C29 H30 0.960 . S
H30 C29 0.960 . S
H31 N11 0.862 . S
O32 Co0 1.920 . S
O32 C5 1.289 . S
C33 O25 1.258 . S
C33 O26 1.266 . S
Co34 O37 1.970 . S
Co34 N51 1.989 . S
Co34 O59 1.967 . S
Co34 O66 1.920 . S
Co35 O38 1.966 . S
Co35 N44 2.022 . S
Co35 N52 1.993 . S
Co35 O60 1.941 . S
C36 O37 1.258 . S
C36 O38 1.263 . S
O37 Co34 1.970 . S
O37 C36 1.258 . S
O38 Co35 1.966 . S
O38 C36 1.263 . S
C39 O40 1.235 . S
C39 O66 1.289 . S
O40 C39 1.235 . S
C41 C43 1.400 . S
C41 N44 1.351 . S
C41 C46 1.501 . S
C42 C43 1.387 . S
C42 N45 1.341 . S
C43 C41 1.400 . S
C43 C42 1.387 . S
N44 Co35 2.022 . S
N44 C41 1.351 . S
N44 N45 1.365 . S
N45 C42 1.341 . S
N45 N44 1.365 . S
N45 H65 0.862 . S
C46 C41 1.501 . S
C46 H47 0.961 . S
C46 H48 0.961 . S
C46 H49 0.960 . S
H47 C46 0.961 . S
H48 C46 0.961 . S
H49 C46 0.960 . S
C50 N51 1.342 . S
C50 C54 1.401 . S
C50 C55 1.499 . S
N51 Co34 1.989 . S
N51 C50 1.342 . S
N51 N52 1.388 . S
N52 Co35 1.993 . S
N52 N51 1.388 . S
N52 C53 1.346 . S
C53 N52 1.346 . S
C53 C54 1.396 . S
C53 C63 1.510 . S
C54 C50 1.401 . S
C54 C53 1.396 . S
C55 C50 1.499 . S
C55 H56 0.959 . S
C55 H57 0.960 . S
C55 H58 0.961 . S
H56 C55 0.959 . S
H57 C55 0.960 . S
H58 C55 0.961 . S
O59 Co34 1.967 . S
O59 C67 1.258 . S
O60 Co35 1.941 . S
O60 C67 1.266 . S
H61 C63 0.959 . S
H62 C63 0.961 . S
C63 C53 1.510 . S
C63 H61 0.959 . S
C63 H62 0.961 . S
C63 H64 0.960 . S
H64 C63 0.960 . S
H65 N45 0.862 . S
O66 Co34 1.920 . S
O66 C39 1.289 . S
C67 O59 1.258 . S
C67 O60 1.266 . S
Co68 O71 1.970 . S
Co68 N85 1.989 . S
Co68 O93 1.967 . S
Co68 O100 1.920 . S
Co69 O72 1.966 . S
Co69 N78 2.022 . S
Co69 N86 1.993 . S
Co69 O94 1.941 . S
C70 O71 1.258 . S
C70 O72 1.263 . S
O71 Co68 1.970 . S
O71 C70 1.258 . S
O72 Co69 1.966 . S
O72 C70 1.263 . S
C73 O74 1.235 . S
C73 O100 1.289 . S
O74 C73 1.235 . S
C75 C77 1.400 . S
C75 N78 1.351 . S
C75 C80 1.501 . S
C76 C77 1.387 . S
C76 N79 1.341 . S
C77 C75 1.400 . S
C77 C76 1.387 . S
N78 Co69 2.022 . S
N78 C75 1.351 . S
N78 N79 1.365 . S
N79 C76 1.341 . S
N79 N78 1.365 . S
N79 H99 0.862 . S
C80 C75 1.501 . S
C80 H81 0.961 . S
C80 H82 0.961 . S
C80 H83 0.960 . S
H81 C80 0.961 . S
H82 C80 0.961 . S
H83 C80 0.960 . S
C84 N85 1.342 . S
C84 C88 1.401 . S
C84 C89 1.499 . S
N85 Co68 1.989 . S
N85 C84 1.342 . S
N85 N86 1.388 . S
N86 Co69 1.993 . S
N86 N85 1.388 . S
N86 C87 1.346 . S
C87 N86 1.346 . S
C87 C88 1.396 . S
C87 C97 1.510 . S
C88 C84 1.401 . S
C88 C87 1.396 . S
C89 C84 1.499 . S
C89 H90 0.959 . S
C89 H91 0.960 . S
C89 H92 0.961 . S
H90 C89 0.959 . S
H91 C89 0.960 . S
H92 C89 0.961 . S
O93 Co68 1.967 . S
O93 C101 1.258 . S
O94 Co69 1.941 . S
O94 C101 1.266 . S
H95 C97 0.959 . S
H96 C97 0.961 . S
C97 C87 1.510 . S
C97 H95 0.959 . S
C97 H96 0.961 . S
C97 H98 0.960 . S
H98 C97 0.960 . S
H99 N79 0.862 . S
O100 Co68 1.920 . S
O100 C73 1.289 . S
C101 O93 1.258 . S
C101 O94 1.266 . S
Co102 O105 1.970 . S
Co102 N119 1.989 1_556 S
Co102 O127 1.967 1_556 S
Co102 O134 1.920 . S
Co103 O106 1.966 1_554 S
Co103 N112 2.022 . S
Co103 N120 1.993 . S
Co103 O128 1.941 . S
C104 O105 1.258 . S
C104 O106 1.263 . S
O105 Co102 1.970 . S
O105 C104 1.258 . S
O106 Co103 1.966 1_556 S
O106 C104 1.263 . S
C107 O108 1.235 . S
C107 O134 1.289 . S
O108 C107 1.235 . S
C109 C111 1.400 . S
C109 N112 1.351 . S
C109 C114 1.501 . S
C110 C111 1.387 . S
C110 N113 1.341 . S
C111 C109 1.400 . S
C111 C110 1.387 . S
N112 Co103 2.022 . S
N112 C109 1.351 . S
N112 N113 1.365 . S
N113 C110 1.341 . S
N113 N112 1.365 . S
N113 H133 0.862 . S
C114 C109 1.501 . S
C114 H115 0.961 . S
C114 H116 0.961 . S
C114 H117 0.960 . S
H115 C114 0.961 . S
H116 C114 0.961 . S
H117 C114 0.960 . S
C118 N119 1.342 . S
C118 C122 1.401 . S
C118 C123 1.499 . S
N119 Co102 1.989 1_554 S
N119 C118 1.342 . S
N119 N120 1.388 . S
N120 Co103 1.993 . S
N120 N119 1.388 . S
N120 C121 1.346 . S
C121 N120 1.346 . S
C121 C122 1.396 . S
C121 C131 1.510 . S
C122 C118 1.401 . S
C122 C121 1.396 . S
C123 C118 1.499 . S
C123 H124 0.959 1_554 S
C123 H125 0.968 . S
C123 H126 0.961 . S
H124 C123 0.959 1_556 S
H125 C123 0.968 . S
H126 C123 0.961 . S
O127 Co102 1.967 1_554 S
O127 C135 1.258 . S
O128 Co103 1.941 . S
O128 C135 1.266 . S
H129 C131 0.959 . S
H130 C131 0.961 . S
C131 C121 1.510 . S
C131 H129 0.959 . S
C131 H130 0.961 . S
C131 H132 0.960 . S
H132 C131 0.960 . S
H133 N113 0.862 . S
O134 Co102 1.920 . S
O134 C107 1.289 . S
C135 O127 1.258 . S
C135 O128 1.266 . S
Co136 O139 1.970 . S
Co136 N153 1.989 . S
Co136 O161 1.967 . S
Co136 O168 1.920 . S
Co137 O140 1.966 . S
Co137 N146 2.022 . S
Co137 N154 1.993 . S
Co137 O162 1.941 . S
C138 O139 1.258 . S
C138 O140 1.263 . S
O139 Co136 1.970 . S
O139 C138 1.258 . S
O140 Co137 1.966 . S
O140 C138 1.263 . S
C141 O142 1.235 . S
C141 O168 1.289 . S
O142 C141 1.235 . S
C143 C145 1.400 . S
C143 N146 1.351 . S
C143 C148 1.501 . S
C144 C145 1.387 . S
C144 N147 1.341 . S
C145 C143 1.400 . S
C145 C144 1.387 . S
N146 Co137 2.022 . S
N146 C143 1.351 . S
N146 N147 1.365 . S
N147 C144 1.341 . S
N147 N146 1.365 . S
N147 H167 0.862 . S
C148 C143 1.501 . S
C148 H149 0.961 . S
C148 H150 0.961 . S
C148 H151 0.960 . S
H149 C148 0.961 . S
H150 C148 0.961 . S
H151 C148 0.960 . S
C152 N153 1.342 . S
C152 C156 1.401 . S
C152 C157 1.499 . S
N153 Co136 1.989 . S
N153 C152 1.342 . S
N153 N154 1.388 . S
N154 Co137 1.993 . S
N154 N153 1.388 . S
N154 C155 1.346 . S
C155 N154 1.346 . S
C155 C156 1.396 . S
C155 C165 1.510 . S
C156 C152 1.401 . S
C156 C155 1.396 . S
C157 C152 1.499 . S
C157 H158 0.959 . S
C157 H159 0.960 . S
C157 H160 0.961 . S
H158 C157 0.959 . S
H159 C157 0.960 . S
H160 C157 0.961 . S
O161 Co136 1.967 . S
O161 C169 1.258 . S
O162 Co137 1.941 . S
O162 C169 1.266 . S
H163 C165 0.959 . S
H164 C165 0.961 . S
C165 C155 1.510 . S
C165 H163 0.959 . S
C165 H164 0.961 . S
C165 H166 0.960 . S
H166 C165 0.960 . S
H167 N147 0.862 . S
O168 Co136 1.920 . S
O168 C141 1.289 . S
C169 O161 1.258 . S
C169 O162 1.266 . S
Co170 O173 1.970 . S
Co170 N187 1.989 . S
Co170 O195 1.967 . S
Co170 O202 1.920 . S
Co171 O174 1.966 . S
Co171 N180 2.022 . S
Co171 N188 1.993 . S
Co171 O196 1.941 . S
C172 O173 1.258 . S
C172 O174 1.263 . S
O173 Co170 1.970 . S
O173 C172 1.258 . S
O174 Co171 1.966 . S
O174 C172 1.263 . S
C175 O176 1.235 . S
C175 O202 1.289 . S
O176 C175 1.235 . S
C177 C179 1.400 . S
C177 N180 1.351 . S
C177 C182 1.501 . S
C178 C179 1.387 . S
C178 N181 1.341 . S
C179 C177 1.400 . S
C179 C178 1.387 . S
N180 Co171 2.022 . S
N180 C177 1.351 . S
N180 N181 1.365 . S
N181 C178 1.341 . S
N181 N180 1.365 . S
N181 H201 0.862 . S
C182 C177 1.501 . S
C182 H183 0.961 . S
C182 H184 0.961 . S
C182 H185 0.960 . S
H183 C182 0.961 . S
H184 C182 0.961 . S
H185 C182 0.960 . S
C186 N187 1.342 . S
C186 C190 1.401 . S
C186 C191 1.499 . S
N187 Co170 1.989 . S
N187 C186 1.342 . S
N187 N188 1.388 . S
N188 Co171 1.993 . S
N188 N187 1.388 . S
N188 C189 1.346 . S
C189 N188 1.346 . S
C189 C190 1.396 . S
C189 C199 1.510 . S
C190 C186 1.401 . S
C190 C189 1.396 . S
C191 C186 1.499 . S
C191 H192 0.959 . S
C191 H193 0.960 . S
C191 H194 0.961 . S
H192 C191 0.959 . S
H193 C191 0.960 . S
H194 C191 0.961 . S
O195 Co170 1.967 . S
O195 C203 1.258 . S
O196 Co171 1.941 . S
O196 C203 1.266 . S
H197 C199 0.959 . S
H198 C199 0.961 . S
C199 C189 1.510 . S
C199 H197 0.959 . S
C199 H198 0.961 . S
C199 H200 0.960 . S
H200 C199 0.960 . S
H201 N181 0.862 . S
O202 Co170 1.920 . S
O202 C175 1.289 . S
C203 O195 1.258 . S
C203 O196 1.266 . S
C204 C205 1.349 . S
C204 C206 1.327 . S
C204 H229 0.950 . S
C205 C204 1.349 . S
C205 C221 1.349 . S
C206 C204 1.327 . S
C206 C225 1.429 . S
C206 H230 0.950 . S
C207 C224 1.574 . S
C207 C226 1.368 . S
C207 H231 0.953 . S
H208 C212 0.949 . S
C209 C210 1.349 . S
C209 C211 1.327 . S
C209 H232 0.950 . S
C210 C209 1.349 . S
C210 C222 1.349 . S
C211 C209 1.327 . S
C211 C227 1.429 . S
C211 H233 0.962 . S
C212 H208 0.949 . S
C212 C220 1.574 . S
C212 C228 1.368 . S
H213 C221 0.950 . S
H214 C219 0.962 . S
H215 C220 0.949 . S
H216 C222 0.950 . S
H217 C223 0.950 . S
H218 C224 0.953 . S
C219 H214 0.962 . S
C219 C221 1.327 . S
C219 C225 1.429 . S
C220 C212 1.574 . S
C220 H215 0.949 . S
C220 C226 1.368 . S
C221 C205 1.349 . S
C221 H213 0.950 . S
C221 C219 1.327 . S
C222 C210 1.349 . S
C222 H216 0.950 . S
C222 C223 1.327 . S
C223 H217 0.950 . S
C223 C222 1.327 . S
C223 C227 1.429 . S
C224 C207 1.574 . S
C224 H218 0.953 . S
C224 C228 1.368 . S
C225 C206 1.429 . S
C225 C219 1.429 . S
C225 C226 1.523 . S
C226 C207 1.368 . S
C226 C220 1.368 . S
C226 C225 1.523 . S
C227 C211 1.429 . S
C227 C223 1.429 . S
C227 C228 1.523 . S
C228 C212 1.368 . S
C228 C224 1.368 . S
C228 C227 1.523 . S
H229 C204 0.950 . S
H230 C206 0.950 . S
H231 C207 0.953 . S
H232 C209 0.950 . S
H233 C211 0.962 . S
C234 C235 1.349 . S
C234 C236 1.327 . S
C234 H259 0.950 . S
C235 C234 1.349 . S
C235 C251 1.349 . S
C236 C234 1.327 . S
C236 C255 1.429 . S
C236 H260 0.950 . S
C237 C254 1.574 . S
C237 C256 1.368 1_655 S
C237 H261 0.949 . S
H238 C242 0.949 . S
C239 C240 1.349 . S
C239 C241 1.327 . S
C239 H262 0.950 . S
C240 C239 1.349 . S
C240 C252 1.349 . S
C241 C239 1.327 . S
C241 C257 1.429 . S
C241 H263 0.950 . S
C242 H238 0.949 . S
C242 C250 1.574 . S
C242 C258 1.368 1_455 S
H243 C251 0.950 . S
H244 C249 0.950 . S
H245 C250 0.949 . S
H246 C252 0.950 . S
H247 C253 0.950 . S
H248 C254 0.949 . S
C249 H244 0.950 . S
C249 C251 1.327 . S
C249 C255 1.429 . S
C250 C242 1.574 . S
C250 H245 0.949 . S
C250 C256 1.368 . S
C251 C235 1.349 . S
C251 H243 0.950 . S
C251 C249 1.327 . S
C252 C240 1.349 . S
C252 H246 0.950 . S
C252 C253 1.327 . S
C253 H247 0.950 . S
C253 C252 1.327 . S
C253 C257 1.429 . S
C254 C237 1.574 . S
C254 H248 0.949 . S
C254 C258 1.368 . S
C255 C236 1.429 . S
C255 C249 1.429 . S
C255 C256 1.523 . S
C256 C237 1.368 1_455 S
C256 C250 1.368 . S
C256 C255 1.523 . S
C257 C241 1.429 . S
C257 C253 1.429 . S
C257 C258 1.523 . S
C258 C242 1.368 1_655 S
C258 C254 1.368 . S
C258 C257 1.523 . S
H259 C234 0.950 . S
H260 C236 0.950 . S
H261 C237 0.949 . S
H262 C239 0.950 . S
H263 C241 0.950 . S
C264 C265 1.349 . S
C264 C266 1.327 . S
C264 H289 0.950 . S
C265 C264 1.349 . S
C265 C281 1.349 . S
C266 C264 1.327 . S
C266 C285 1.429 . S
C266 H290 0.950 . S
C267 C284 1.574 . S
C267 C286 1.368 1_545 S
C267 H291 0.949 . S
H268 C272 0.949 . S
C269 C270 1.349 . S
C269 C271 1.327 . S
C269 H292 0.950 . S
C270 C269 1.349 . S
C270 C282 1.349 . S
C271 C269 1.327 . S
C271 C287 1.429 . S
C271 H293 0.950 . S
C272 H268 0.949 . S
C272 C280 1.574 . S
C272 C288 1.368 1_565 S
H273 C281 0.950 . S
H274 C279 0.950 . S
H275 C280 0.949 . S
H276 C282 0.950 . S
H277 C283 0.950 . S
H278 C284 0.949 . S
C279 H274 0.950 . S
C279 C281 1.327 . S
C279 C285 1.429 . S
C280 C272 1.574 . S
C280 H275 0.949 . S
C280 C286 1.368 . S
C281 C265 1.349 . S
C281 H273 0.950 . S
C281 C279 1.327 . S
C282 C270 1.349 . S
C282 H276 0.950 . S
C282 C283 1.327 . S
C283 H277 0.950 . S
C283 C282 1.327 . S
C283 C287 1.429 . S
C284 C267 1.574 . S
C284 H278 0.949 . S
C284 C288 1.368 . S
C285 C266 1.429 . S
C285 C279 1.429 . S
C285 C286 1.523 . S
C286 C267 1.368 1_565 S
C286 C280 1.368 . S
C286 C285 1.523 . S
C287 C271 1.429 . S
C287 C283 1.429 . S
C287 C288 1.523 . S
C288 C272 1.368 1_545 S
C288 C284 1.368 . S
C288 C287 1.523 . S
H289 C264 0.950 . S
H290 C266 0.950 . S
H291 C267 0.949 . S
H292 C269 0.950 . S
H293 C271 0.950 . S
C294 C295 1.349 . S
C294 C296 1.327 . S
C294 H319 0.950 . S
C295 C294 1.349 . S
C295 C311 1.349 . S
C296 C294 1.327 . S
C296 C315 1.429 . S
C296 H320 0.950 . S
C297 C314 1.574 . S
C297 C316 1.368 . S
C297 H321 0.949 . S
H298 C302 0.949 . S
C299 C300 1.349 . S
C299 C301 1.327 . S
C299 H322 0.950 . S
C300 C299 1.349 . S
C300 C312 1.349 . S
C301 C299 1.327 . S
C301 C317 1.429 . S
C301 H323 0.950 . S
C302 H298 0.949 . S
C302 C310 1.574 . S
C302 C318 1.368 . S
H303 C311 0.950 . S
H304 C309 0.950 . S
H305 C310 0.949 . S
H306 C312 0.950 . S
H307 C313 0.950 . S
H308 C314 0.949 . S
C309 H304 0.950 . S
C309 C311 1.327 . S
C309 C315 1.429 . S
C310 C302 1.574 . S
C310 H305 0.949 . S
C310 C316 1.368 . S
C311 C295 1.349 . S
C311 H303 0.950 . S
C311 C309 1.327 . S
C312 C300 1.349 . S
C312 H306 0.950 . S
C312 C313 1.327 . S
C313 H307 0.950 . S
C313 C312 1.327 . S
C313 C317 1.429 . S
C314 C297 1.574 . S
C314 H308 0.949 . S
C314 C318 1.368 . S
C315 C296 1.429 . S
C315 C309 1.429 . S
C315 C316 1.523 . S
C316 C297 1.368 . S
C316 C310 1.368 . S
C316 C315 1.523 . S
C317 C301 1.429 . S
C317 C313 1.429 . S
C317 C318 1.523 . S
C318 C302 1.368 . S
C318 C314 1.368 . S
C318 C317 1.523 . S
H319 C294 0.950 . S
H320 C296 0.950 . S
H321 C297 0.949 . S
H322 C299 0.950 . S
H323 C301 0.950 . S
C324 C325 1.349 . S
C324 C326 1.327 . S
C324 H349 0.950 . S
C325 C324 1.349 . S
C325 C341 1.349 . S
C326 C324 1.327 . S
C326 C345 1.429 . S
C326 H350 0.950 . S
C327 C344 1.574 . S
C327 C346 1.368 . S
C327 H351 0.949 . S
H328 C332 0.949 . S
C329 C330 1.349 . S
C329 C331 1.327 . S
C329 H352 0.950 . S
C330 C329 1.349 . S
C330 C342 1.349 . S
C331 C329 1.327 . S
C331 C347 1.429 . S
C331 H353 0.950 . S
C332 H328 0.949 . S
C332 C340 1.574 . S
C332 C348 1.368 . S
H333 C341 0.950 . S
H334 C339 0.950 . S
H335 C340 0.949 . S
H336 C342 0.950 . S
H337 C343 0.950 . S
H338 C344 0.949 . S
C339 H334 0.950 . S
C339 C341 1.327 . S
C339 C345 1.429 . S
C340 C332 1.574 . S
C340 H335 0.949 . S
C340 C346 1.368 . S
C341 C325 1.349 . S
C341 H333 0.950 . S
C341 C339 1.327 . S
C342 C330 1.349 . S
C342 H336 0.950 . S
C342 C343 1.327 . S
C343 H337 0.950 . S
C343 C342 1.327 . S
C343 C347 1.429 . S
C344 C327 1.574 . S
C344 H338 0.949 . S
C344 C348 1.368 . S
C345 C326 1.429 . S
C345 C339 1.429 . S
C345 C346 1.523 . S
C346 C327 1.368 . S
C346 C340 1.368 . S
C346 C345 1.523 . S
C347 C331 1.429 . S
C347 C343 1.429 . S
C347 C348 1.523 . S
C348 C332 1.368 . S
C348 C344 1.368 . S
C348 C347 1.523 . S
H349 C324 0.950 . S
H350 C326 0.950 . S
H351 C327 0.949 . S
H352 C329 0.950 . S
H353 C331 0.950 . S
C354 C355 1.349 . S
C354 C356 1.327 . S
C354 H379 0.950 . S
C355 C354 1.349 . S
C355 C371 1.349 . S
C356 C354 1.327 . S
C356 C375 1.429 . S
C356 H380 0.950 . S
C357 C374 1.574 . S
C357 C376 1.368 . S
C357 H381 0.949 . S
H358 C362 0.949 . S
C359 C360 1.349 . S
C359 C361 1.327 . S
C359 H382 0.950 . S
C360 C359 1.349 . S
C360 C372 1.349 . S
C361 C359 1.327 . S
C361 C377 1.429 . S
C361 H383 0.950 . S
C362 H358 0.949 . S
C362 C370 1.574 . S
C362 C378 1.368 . S
H363 C371 0.950 . S
H364 C369 0.950 . S
H365 C370 0.949 . S
H366 C372 0.950 . S
H367 C373 0.950 . S
H368 C374 0.949 . S
C369 H364 0.950 . S
C369 C371 1.327 . S
C369 C375 1.429 . S
C370 C362 1.574 . S
C370 H365 0.949 . S
C370 C376 1.368 . S
C371 C355 1.349 . S
C371 H363 0.950 . S
C371 C369 1.327 . S
C372 C360 1.349 . S
C372 H366 0.950 . S
C372 C373 1.327 . S
C373 H367 0.950 . S
C373 C372 1.327 . S
C373 C377 1.429 . S
C374 C357 1.574 . S
C374 H368 0.949 . S
C374 C378 1.368 . S
C375 C356 1.429 . S
C375 C369 1.429 . S
C375 C376 1.523 . S
C376 C357 1.368 . S
C376 C370 1.368 . S
C376 C375 1.523 . S
C377 C361 1.429 . S
C377 C373 1.429 . S
C377 C378 1.523 . S
C378 C362 1.368 . S
C378 C374 1.368 . S
C378 C377 1.523 . S
H379 C354 0.950 . S
H380 C356 0.950 . S
H381 C357 0.949 . S
H382 C359 0.950 . S
H383 C361 0.950 . S
C384 C385 1.349 . S
C384 C386 1.327 . S
C384 H409 0.950 . S
C385 C384 1.349 . S
C385 C401 1.349 . S
C386 C384 1.327 . S
C386 C405 1.429 . S
C386 H410 0.950 . S
C387 C404 1.574 . S
C387 C406 1.368 . S
C387 H411 0.949 . S
H388 C392 0.949 . S
C389 C390 1.349 . S
C389 C391 1.327 . S
C389 H412 0.950 . S
C390 C389 1.349 . S
C390 C402 1.349 . S
C391 C389 1.327 . S
C391 C407 1.429 . S
C391 H413 0.950 . S
C392 H388 0.949 . S
C392 C400 1.574 . S
C392 C408 1.368 . S
H393 C401 0.950 . S
H394 C399 0.950 . S
H395 C400 0.949 . S
H396 C402 0.950 . S
H397 C403 0.950 . S
H398 C404 0.949 . S
C399 H394 0.950 . S
C399 C401 1.327 . S
C399 C405 1.429 . S
C400 C392 1.574 . S
C400 H395 0.949 . S
C400 C406 1.368 . S
C401 C385 1.349 . S
C401 H393 0.950 . S
C401 C399 1.327 . S
C402 C390 1.349 . S
C402 H396 0.950 . S
C402 C403 1.327 . S
C403 H397 0.950 . S
C403 C402 1.327 . S
C403 C407 1.429 . S
C404 C387 1.574 . S
C404 H398 0.949 . S
C404 C408 1.368 . S
C405 C386 1.429 . S
C405 C399 1.429 . S
C405 C406 1.523 . S
C406 C387 1.368 . S
C406 C400 1.368 . S
C406 C405 1.523 . S
C407 C391 1.429 . S
C407 C403 1.429 . S
C407 C408 1.523 . S
C408 C392 1.368 . S
C408 C404 1.368 . S
C408 C407 1.523 . S
H409 C384 0.950 . S
H410 C386 0.950 . S
H411 C387 0.949 . S
H412 C389 0.950 . S
H413 C391 0.950 . S
C414 C415 1.349 . S
C414 C416 1.327 . S
C414 H439 0.950 . S
C415 C414 1.349 . S
C415 C431 1.349 . S
C416 C414 1.327 . S
C416 C435 1.429 . S
C416 H440 0.950 . S
C417 C434 1.574 . S
C417 C436 1.368 . S
C417 H441 0.949 . S
H418 C422 0.949 . S
C419 C420 1.349 . S
C419 C421 1.327 . S
C419 H442 0.950 . S
C420 C419 1.349 . S
C420 C432 1.349 . S
C421 C419 1.327 . S
C421 C437 1.429 . S
C421 H443 0.950 . S
C422 H418 0.949 . S
C422 C430 1.574 . S
C422 C438 1.368 . S
H423 C431 0.950 . S
H424 C429 0.950 . S
H425 C430 0.949 . S
H426 C432 0.950 . S
H427 C433 0.950 . S
H428 C434 0.949 . S
C429 H424 0.950 . S
C429 C431 1.327 . S
C429 C435 1.429 . S
C430 C422 1.574 . S
C430 H425 0.949 . S
C430 C436 1.368 . S
C431 C415 1.349 . S
C431 H423 0.950 . S
C431 C429 1.327 . S
C432 C420 1.349 . S
C432 H426 0.950 . S
C432 C433 1.327 . S
C433 H427 0.950 . S
C433 C432 1.327 . S
C433 C437 1.429 . S
C434 C417 1.574 . S
C434 H428 0.949 . S
C434 C438 1.368 . S
C435 C416 1.429 . S
C435 C429 1.429 . S
C435 C436 1.523 . S
C436 C417 1.368 . S
C436 C430 1.368 . S
C436 C435 1.523 . S
C437 C421 1.429 . S
C437 C433 1.429 . S
C437 C438 1.523 . S
C438 C422 1.368 . S
C438 C434 1.368 . S
C438 C437 1.523 . S
H439 C414 0.950 . S
H440 C416 0.950 . S
H441 C417 0.949 . S
H442 C419 0.950 . S
H443 C421 0.950 . S
C444 C445 1.349 . S
C444 C446 1.327 . S
C444 H469 0.950 . S
C445 C444 1.349 . S
C445 C461 1.349 . S
C446 C444 1.327 . S
C446 C465 1.429 . S
C446 H470 0.950 . S
C447 C464 1.574 . S
C447 C466 1.368 . S
C447 H471 0.949 . S
H448 C452 0.949 . S
C449 C450 1.349 . S
C449 C451 1.327 . S
C449 H472 0.950 . S
C450 C449 1.349 . S
C450 C462 1.349 . S
C451 C449 1.327 . S
C451 C467 1.429 . S
C451 H473 0.950 . S
C452 H448 0.949 . S
C452 C460 1.574 . S
C452 C468 1.368 . S
H453 C461 0.950 . S
H454 C459 0.950 . S
H455 C460 0.949 . S
H456 C462 0.950 . S
H457 C463 0.950 . S
H458 C464 0.949 . S
C459 H454 0.950 . S
C459 C461 1.327 . S
C459 C465 1.429 . S
C460 C452 1.574 . S
C460 H455 0.949 . S
C460 C466 1.368 . S
C461 C445 1.349 . S
C461 H453 0.950 . S
C461 C459 1.327 . S
C462 C450 1.349 . S
C462 H456 0.950 . S
C462 C463 1.327 . S
C463 H457 0.950 . S
C463 C462 1.327 . S
C463 C467 1.429 . S
C464 C447 1.574 . S
C464 H458 0.949 . S
C464 C468 1.368 . S
C465 C446 1.429 . S
C465 C459 1.429 . S
C465 C466 1.523 . S
C466 C447 1.368 . S
C466 C460 1.368 . S
C466 C465 1.523 . S
C467 C451 1.429 . S
C467 C463 1.429 . S
C467 C468 1.523 . S
C468 C452 1.368 . S
C468 C464 1.368 . S
C468 C467 1.523 . S
H469 C444 0.950 . S
H470 C446 0.950 . S
H471 C447 0.949 . S
H472 C449 0.950 . S
H473 C451 0.950 . S
C474 C475 1.349 . S
C474 C476 1.327 . S
C474 H499 0.950 . S
C475 C474 1.349 . S
C475 C491 1.349 . S
C476 C474 1.327 . S
C476 C495 1.429 . S
C476 H500 0.950 . S
C477 C494 1.574 . S
C477 C496 1.368 . S
C477 H501 0.949 . S
H478 C482 0.949 . S
C479 C480 1.349 . S
C479 C481 1.327 . S
C479 H502 0.950 . S
C480 C479 1.349 . S
C480 C492 1.349 . S
C481 C479 1.327 . S
C481 C497 1.429 . S
C481 H503 0.950 . S
C482 H478 0.949 . S
C482 C490 1.574 . S
C482 C498 1.368 . S
H483 C491 0.950 . S
H484 C489 0.950 . S
H485 C490 0.949 . S
H486 C492 0.950 . S
H487 C493 0.950 . S
H488 C494 0.949 . S
C489 H484 0.950 . S
C489 C491 1.327 . S
C489 C495 1.429 . S
C490 C482 1.574 . S
C490 H485 0.949 . S
C490 C496 1.368 . S
C491 C475 1.349 . S
C491 H483 0.950 . S
C491 C489 1.327 . S
C492 C480 1.349 . S
C492 H486 0.950 . S
C492 C493 1.327 . S
C493 H487 0.950 . S
C493 C492 1.327 . S
C493 C497 1.429 . S
C494 C477 1.574 . S
C494 H488 0.949 . S
C494 C498 1.368 . S
C495 C476 1.429 . S
C495 C489 1.429 . S
C495 C496 1.523 . S
C496 C477 1.368 . S
C496 C490 1.368 . S
C496 C495 1.523 . S
C497 C481 1.429 . S
C497 C493 1.429 . S
C497 C498 1.523 . S
C498 C482 1.368 . S
C498 C494 1.368 . S
C498 C497 1.523 . S
H499 C474 0.950 . S
H500 C476 0.950 . S
H501 C477 0.949 . S
H502 C479 0.950 . S
H503 C481 0.950 . S
C504 C505 1.349 . S
C504 C506 1.327 . S
C504 H529 0.950 . S
C505 C504 1.349 . S
C505 C521 1.349 . S
C506 C504 1.327 . S
C506 C525 1.429 . S
C506 H530 0.950 1_655 S
C507 C524 1.574 . S
C507 C526 1.368 . S
C507 H531 0.949 1_455 S
H508 C512 0.949 . S
C509 C510 1.349 . S
C509 C511 1.327 . S
C509 H532 0.950 . S
C510 C509 1.349 . S
C510 C522 1.349 . S
C511 C509 1.327 . S
C511 C527 1.429 . S
C511 H533 0.950 . S
C512 H508 0.949 . S
C512 C520 1.574 . S
C512 C528 1.368 . S
H513 C521 0.950 . S
H514 C519 0.950 . S
H515 C520 0.949 . S
H516 C522 0.950 . S
H517 C523 0.950 . S
H518 C524 0.949 . S
C519 H514 0.950 . S
C519 C521 1.327 . S
C519 C525 1.429 . S
C520 C512 1.574 . S
C520 H515 0.949 . S
C520 C526 1.368 . S
C521 C505 1.349 . S
C521 H513 0.950 . S
C521 C519 1.327 . S
C522 C510 1.349 . S
C522 H516 0.950 . S
C522 C523 1.327 . S
C523 H517 0.950 . S
C523 C522 1.327 . S
C523 C527 1.429 . S
C524 C507 1.574 . S
C524 H518 0.949 . S
C524 C528 1.368 . S
C525 C506 1.429 . S
C525 C519 1.429 . S
C525 C526 1.523 1_655 S
C526 C507 1.368 . S
C526 C520 1.368 . S
C526 C525 1.523 1_455 S
C527 C511 1.429 . S
C527 C523 1.429 . S
C527 C528 1.523 . S
C528 C512 1.368 . S
C528 C524 1.368 . S
C528 C527 1.523 . S
H529 C504 0.950 . S
H530 C506 0.950 1_455 S
H531 C507 0.949 1_655 S
H532 C509 0.950 . S
H533 C511 0.950 . S
C534 C535 1.349 . S
C534 C536 1.327 . S
C534 H559 0.950 . S
C535 C534 1.349 . S
C535 C551 1.349 . S
C536 C534 1.327 . S
C536 C555 1.429 . S
C536 H560 0.950 . S
C537 C554 1.574 . S
C537 C556 1.368 . S
C537 H561 0.949 . S
H538 C542 0.949 . S
C539 C540 1.349 . S
C539 C541 1.327 . S
C539 H562 0.950 . S
C540 C539 1.349 . S
C540 C552 1.349 . S
C541 C539 1.327 . S
C541 C557 1.429 . S
C541 H563 0.950 . S
C542 H538 0.949 . S
C542 C550 1.574 . S
C542 C558 1.368 . S
H543 C551 0.950 . S
H544 C549 0.950 . S
H545 C550 0.949 . S
H546 C552 0.950 . S
H547 C553 0.950 . S
H548 C554 0.949 . S
C549 H544 0.950 . S
C549 C551 1.327 . S
C549 C555 1.429 . S
C550 C542 1.574 . S
C550 H545 0.949 . S
C550 C556 1.368 . S
C551 C535 1.349 . S
C551 H543 0.950 . S
C551 C549 1.327 . S
C552 C540 1.349 . S
C552 H546 0.950 . S
C552 C553 1.327 . S
C553 H547 0.950 . S
C553 C552 1.327 . S
C553 C557 1.429 . S
C554 C537 1.574 . S
C554 H548 0.949 . S
C554 C558 1.368 . S
C555 C536 1.429 . S
C555 C549 1.429 . S
C555 C556 1.523 . S
C556 C537 1.368 . S
C556 C550 1.368 . S
C556 C555 1.523 . S
C557 C541 1.429 . S
C557 C553 1.429 . S
C557 C558 1.523 1_565 S
C558 C542 1.368 . S
C558 C554 1.368 . S
C558 C557 1.523 1_545 S
H559 C534 0.950 . S
H560 C536 0.950 . S
H561 C537 0.949 . S
H562 C539 0.950 . S
H563 C541 0.950 . S
C564 C565 1.349 . S
C564 C566 1.327 . S
C564 H589 0.950 . S
C565 C564 1.349 . S
C565 C581 1.349 . S
C566 C564 1.327 . S
C566 C585 1.429 . S
C566 H590 0.950 . S
C567 C584 1.574 . S
C567 C586 1.368 . S
C567 H591 0.949 . S
H568 C572 0.949 . S
C569 C570 1.349 . S
C569 C571 1.327 . S
C569 H592 0.950 . S
C570 C569 1.349 . S
C570 C582 1.349 . S
C571 C569 1.327 . S
C571 C587 1.429 . S
C571 H593 0.950 . S
C572 H568 0.949 . S
C572 C580 1.574 . S
C572 C588 1.368 . S
H573 C581 0.950 . S
H574 C579 0.950 . S
H575 C580 0.949 . S
H576 C582 0.950 . S
H577 C583 0.950 . S
H578 C584 0.949 . S
C579 H574 0.950 . S
C579 C581 1.327 . S
C579 C585 1.429 . S
C580 C572 1.574 . S
C580 H575 0.949 . S
C580 C586 1.368 . S
C581 C565 1.349 . S
C581 H573 0.950 . S
C581 C579 1.327 . S
C582 C570 1.349 . S
C582 H576 0.950 . S
C582 C583 1.327 . S
C583 H577 0.950 . S
C583 C582 1.327 . S
C583 C587 1.429 . S
C584 C567 1.574 . S
C584 H578 0.949 . S
C584 C588 1.368 . S
C585 C566 1.429 . S
C585 C579 1.429 . S
C585 C586 1.523 . S
C586 C567 1.368 . S
C586 C580 1.368 . S
C586 C585 1.523 . S
C587 C571 1.429 . S
C587 C583 1.429 . S
C587 C588 1.523 . S
C588 C572 1.368 . S
C588 C584 1.368 . S
C588 C587 1.523 . S
H589 C564 0.950 . S
H590 C566 0.950 . S
H591 C567 0.949 . S
H592 C569 0.950 . S
H593 C571 0.950 . S
C594 C595 1.349 . S
C594 C596 1.327 . S
C594 H619 0.950 . S
C595 C594 1.349 . S
C595 C611 1.349 . S
C596 C594 1.327 . S
C596 C615 1.429 . S
C596 H620 0.950 . S
C597 C614 1.574 . S
C597 C616 1.368 . S
C597 H621 0.949 . S
H598 C602 0.949 . S
C599 C600 1.349 . S
C599 C601 1.327 . S
C599 H622 0.950 . S
C600 C599 1.349 . S
C600 C612 1.349 . S
C601 C599 1.327 . S
C601 C617 1.429 . S
C601 H623 0.950 . S
C602 H598 0.949 . S
C602 C610 1.574 . S
C602 C618 1.368 . S
H603 C611 0.950 . S
H604 C609 0.950 . S
H605 C610 0.949 . S
H606 C612 0.950 . S
H607 C613 0.950 . S
H608 C614 0.949 . S
C609 H604 0.950 . S
C609 C611 1.327 . S
C609 C615 1.429 . S
C610 C602 1.574 . S
C610 H605 0.949 . S
C610 C616 1.368 . S
C611 C595 1.349 . S
C611 H603 0.950 . S
C611 C609 1.327 . S
C612 C600 1.349 . S
C612 H606 0.950 . S
C612 C613 1.327 . S
C613 H607 0.950 . S
C613 C612 1.327 . S
C613 C617 1.429 . S
C614 C597 1.574 . S
C614 H608 0.949 . S
C614 C618 1.368 . S
C615 C596 1.429 . S
C615 C609 1.429 . S
C615 C616 1.523 . S
C616 C597 1.368 . S
C616 C610 1.368 . S
C616 C615 1.523 . S
C617 C601 1.429 . S
C617 C613 1.429 . S
C617 C618 1.523 1_455 S
C618 C602 1.368 . S
C618 C614 1.368 . S
C618 C617 1.523 1_655 S
H619 C594 0.950 . S
H620 C596 0.950 . S
H621 C597 0.949 . S
H622 C599 0.950 . S
H623 C601 0.950 . S
C624 C625 1.349 . S
C624 C626 1.327 . S
C624 H649 0.950 . S
C625 C624 1.349 . S
C625 C641 1.349 . S
C626 C624 1.327 . S
C626 C645 1.429 . S
C626 H650 0.950 . S
C627 C644 1.574 . S
C627 C646 1.368 . S
C627 H651 0.949 . S
H628 C632 0.949 . S
C629 C630 1.349 . S
C629 C631 1.327 . S
C629 H652 0.950 . S
C630 C629 1.349 . S
C630 C642 1.349 . S
C631 C629 1.327 . S
C631 C647 1.429 . S
C631 H653 0.950 . S
C632 H628 0.949 . S
C632 C640 1.574 . S
C632 C648 1.368 . S
H633 C641 0.950 . S
H634 C639 0.950 . S
H635 C640 0.949 . S
H636 C642 0.950 . S
H637 C643 0.950 1_565 S
H638 C644 0.949 1_545 S
C639 H634 0.950 . S
C639 C641 1.327 . S
C639 C645 1.429 . S
C640 C632 1.574 . S
C640 H635 0.949 . S
C640 C646 1.368 . S
C641 C625 1.349 . S
C641 H633 0.950 . S
C641 C639 1.327 . S
C642 C630 1.349 . S
C642 H636 0.950 . S
C642 C643 1.327 . S
C643 H637 0.950 1_545 S
C643 C642 1.327 . S
C643 C647 1.429 . S
C644 C627 1.574 . S
C644 H638 0.949 1_565 S
C644 C648 1.368 . S
C645 C626 1.429 . S
C645 C639 1.429 . S
C645 C646 1.523 . S
C646 C627 1.368 . S
C646 C640 1.368 . S
C646 C645 1.523 . S
C647 C631 1.429 . S
C647 C643 1.429 . S
C647 C648 1.523 1_545 S
C648 C632 1.368 . S
C648 C644 1.368 . S
C648 C647 1.523 1_565 S
H649 C624 0.950 . S
H650 C626 0.950 . S
H651 C627 0.949 . S
H652 C629 0.950 . S
H653 C631 0.950 . S
C205 C135 0.980 . S
C210 C33 0.980 . S
C235 C169 0.980 . S
C240 C67 0.980 . S
C265 C101 0.980 . S
C270 C203 0.980 . S
C295 C138 0.902 . S
C300 C9 0.889 . S
C325 C172 0.903 . S
C330 C43 0.890 . S
C355 C77 0.889 . S
C360 C2 0.903 . S
C385 C36 0.902 . S
C390 C111 0.889 . S
C415 C145 0.890 . S
C420 C70 0.903 . S
C445 C179 0.889 . S
C450 C104 0.903 . S
C475 C190 0.688 . S
C480 C5 0.681 . S
C505 C39 0.682 . S
C510 C20 0.688 . S
C535 C54 0.688 . S
C540 C73 0.681 . S
C565 C88 0.688 . S
C570 C107 0.681 . S
C595 C122 0.688 . S
C600 C141 0.682 . S
C625 C156 0.688 . S
C630 C175 0.681 . S
