# Generated by pormake.
# Topology uox, (4)-cn, num edge types: 1
# Building blocks:
#     Node 0, Type 0, BuildingBlock: GALJAG_clean_sbu_0, # of connection points: 4
#     Node 1, Type 0, BuildingBlock: GALJAG_clean_sbu_0, # of connection points: 4
#     Node 2, Type 0, BuildingBlock: GALJAG_clean_sbu_0, # of connection points: 4
#     Node 3, Type 0, BuildingBlock: GALJAG_clean_sbu_0, # of connection points: 4
#     Node 4, Type 0, BuildingBlock: GALJAG_clean_sbu_0, # of connection points: 4
#     Node 5, Type 0, BuildingBlock: GALJAG_clean_sbu_0, # of connection points: 4
#     Node 6, Type 0, BuildingBlock: GALJAG_clean_sbu_0, # of connection points: 4
#     Node 7, Type 0, BuildingBlock: GALJAG_clean_sbu_0, # of connection points: 4
#     Node 8, Type 0, BuildingBlock: GALJAG_clean_sbu_0, # of connection points: 4
#     Node 9, Type 0, BuildingBlock: GALJAG_clean_sbu_0, # of connection points: 4
#     Node 10, Type 0, BuildingBlock: GALJAG_clean_sbu_0, # of connection points: 4
#     Node 11, Type 0, BuildingBlock: GALJAG_clean_sbu_0, # of connection points: 4
#     Node 12, Type 0, BuildingBlock: GALJAG_clean_sbu_0, # of connection points: 4
#     Node 13, Type 0, BuildingBlock: GALJAG_clean_sbu_0, # of connection points: 4
#     Node 14, Type 0, BuildingBlock: GALJAG_clean_sbu_0, # of connection points: 4
#     Node 15, Type 0, BuildingBlock: GALJAG_clean_sbu_0, # of connection points: 4
#     Node 16, Type 0, BuildingBlock: GALJAG_clean_sbu_0, # of connection points: 4
#     Node 17, Type 0, BuildingBlock: GALJAG_clean_sbu_0, # of connection points: 4
#     Node 18, Type 0, BuildingBlock: GALJAG_clean_sbu_0, # of connection points: 4
#     Node 19, Type 0, BuildingBlock: GALJAG_clean_sbu_0, # of connection points: 4
#     Node 20, Type 0, BuildingBlock: GALJAG_clean_sbu_0, # of connection points: 4
#     Node 21, Type 0, BuildingBlock: GALJAG_clean_sbu_0, # of connection points: 4
#     Node 22, Type 0, BuildingBlock: GALJAG_clean_sbu_0, # of connection points: 4
#     Node 23, Type 0, BuildingBlock: GALJAG_clean_sbu_0, # of connection points: 4
#     Node 24, Type 0, BuildingBlock: GALJAG_clean_sbu_0, # of connection points: 4
#     Node 25, Type 0, BuildingBlock: GALJAG_clean_sbu_0, # of connection points: 4
#     Node 26, Type 0, BuildingBlock: GALJAG_clean_sbu_0, # of connection points: 4
#     Node 27, Type 0, BuildingBlock: GALJAG_clean_sbu_0, # of connection points: 4
#     Node 28, Type 0, BuildingBlock: GALJAG_clean_sbu_0, # of connection points: 4
#     Node 29, Type 0, BuildingBlock: GALJAG_clean_sbu_0, # of connection points: 4
#     Node 30, Type 0, BuildingBlock: GALJAG_clean_sbu_0, # of connection points: 4
#     Node 31, Type 0, BuildingBlock: GALJAG_clean_sbu_0, # of connection points: 4
#     Edge 32, Type (0, 0), BuildingBlock: XUDNAN_clean_linker_2, # of connection points: 2
#     Edge 33, Type (0, 0), BuildingBlock: XUDNAN_clean_linker_2, # of connection points: 2
#     Edge 34, Type (0, 0), BuildingBlock: XUDNAN_clean_linker_2, # of connection points: 2
#     Edge 35, Type (0, 0), BuildingBlock: XUDNAN_clean_linker_2, # of connection points: 2
#     Edge 36, Type (0, 0), BuildingBlock: XUDNAN_clean_linker_2, # of connection points: 2
#     Edge 37, Type (0, 0), BuildingBlock: XUDNAN_clean_linker_2, # of connection points: 2
#     Edge 38, Type (0, 0), BuildingBlock: XUDNAN_clean_linker_2, # of connection points: 2
#     Edge 39, Type (0, 0), BuildingBlock: XUDNAN_clean_linker_2, # of connection points: 2
#     Edge 40, Type (0, 0), BuildingBlock: XUDNAN_clean_linker_2, # of connection points: 2
#     Edge 41, Type (0, 0), BuildingBlock: XUDNAN_clean_linker_2, # of connection points: 2
#     Edge 42, Type (0, 0), BuildingBlock: XUDNAN_clean_linker_2, # of connection points: 2
#     Edge 43, Type (0, 0), BuildingBlock: XUDNAN_clean_linker_2, # of connection points: 2
#     Edge 44, Type (0, 0), BuildingBlock: XUDNAN_clean_linker_2, # of connection points: 2
#     Edge 45, Type (0, 0), BuildingBlock: XUDNAN_clean_linker_2, # of connection points: 2
#     Edge 46, Type (0, 0), BuildingBlock: XUDNAN_clean_linker_2, # of connection points: 2
#     Edge 47, Type (0, 0), BuildingBlock: XUDNAN_clean_linker_2, # of connection points: 2
#     Edge 48, Type (0, 0), BuildingBlock: XUDNAN_clean_linker_2, # of connection points: 2
#     Edge 49, Type (0, 0), BuildingBlock: XUDNAN_clean_linker_2, # of connection points: 2
#     Edge 50, Type (0, 0), BuildingBlock: XUDNAN_clean_linker_2, # of connection points: 2
#     Edge 51, Type (0, 0), BuildingBlock: XUDNAN_clean_linker_2, # of connection points: 2
#     Edge 52, Type (0, 0), BuildingBlock: XUDNAN_clean_linker_2, # of connection points: 2
#     Edge 53, Type (0, 0), BuildingBlock: XUDNAN_clean_linker_2, # of connection points: 2
#     Edge 54, Type (0, 0), BuildingBlock: XUDNAN_clean_linker_2, # of connection points: 2
#     Edge 55, Type (0, 0), BuildingBlock: XUDNAN_clean_linker_2, # of connection points: 2
#     Edge 56, Type (0, 0), BuildingBlock: XUDNAN_clean_linker_2, # of connection points: 2
#     Edge 57, Type (0, 0), BuildingBlock: XUDNAN_clean_linker_2, # of connection points: 2
#     Edge 58, Type (0, 0), BuildingBlock: XUDNAN_clean_linker_2, # of connection points: 2
#     Edge 59, Type (0, 0), BuildingBlock: XUDNAN_clean_linker_2, # of connection points: 2
#     Edge 60, Type (0, 0), BuildingBlock: XUDNAN_clean_linker_2, # of connection points: 2
#     Edge 61, Type (0, 0), BuildingBlock: XUDNAN_clean_linker_2, # of connection points: 2
#     Edge 62, Type (0, 0), BuildingBlock: XUDNAN_clean_linker_2, # of connection points: 2
#     Edge 63, Type (0, 0), BuildingBlock: XUDNAN_clean_linker_2, # of connection points: 2
#     Edge 64, Type (0, 0), BuildingBlock: XUDNAN_clean_linker_2, # of connection points: 2
#     Edge 65, Type (0, 0), BuildingBlock: XUDNAN_clean_linker_2, # of connection points: 2
#     Edge 66, Type (0, 0), BuildingBlock: XUDNAN_clean_linker_2, # of connection points: 2
#     Edge 67, Type (0, 0), BuildingBlock: XUDNAN_clean_linker_2, # of connection points: 2
#     Edge 68, Type (0, 0), BuildingBlock: XUDNAN_clean_linker_2, # of connection points: 2
#     Edge 69, Type (0, 0), BuildingBlock: XUDNAN_clean_linker_2, # of connection points: 2
#     Edge 70, Type (0, 0), BuildingBlock: XUDNAN_clean_linker_2, # of connection points: 2
#     Edge 71, Type (0, 0), BuildingBlock: XUDNAN_clean_linker_2, # of connection points: 2
#     Edge 72, Type (0, 0), BuildingBlock: XUDNAN_clean_linker_2, # of connection points: 2
#     Edge 73, Type (0, 0), BuildingBlock: XUDNAN_clean_linker_2, # of connection points: 2
#     Edge 74, Type (0, 0), BuildingBlock: XUDNAN_clean_linker_2, # of connection points: 2
#     Edge 75, Type (0, 0), BuildingBlock: XUDNAN_clean_linker_2, # of connection points: 2
#     Edge 76, Type (0, 0), BuildingBlock: XUDNAN_clean_linker_2, # of connection points: 2
#     Edge 77, Type (0, 0), BuildingBlock: XUDNAN_clean_linker_2, # of connection points: 2
#     Edge 78, Type (0, 0), BuildingBlock: XUDNAN_clean_linker_2, # of connection points: 2
#     Edge 79, Type (0, 0), BuildingBlock: XUDNAN_clean_linker_2, # of connection points: 2
#     Edge 80, Type (0, 0), BuildingBlock: XUDNAN_clean_linker_2, # of connection points: 2
#     Edge 81, Type (0, 0), BuildingBlock: XUDNAN_clean_linker_2, # of connection points: 2
#     Edge 82, Type (0, 0), BuildingBlock: XUDNAN_clean_linker_2, # of connection points: 2
#     Edge 83, Type (0, 0), BuildingBlock: XUDNAN_clean_linker_2, # of connection points: 2
#     Edge 84, Type (0, 0), BuildingBlock: XUDNAN_clean_linker_2, # of connection points: 2
#     Edge 85, Type (0, 0), BuildingBlock: XUDNAN_clean_linker_2, # of connection points: 2
#     Edge 86, Type (0, 0), BuildingBlock: XUDNAN_clean_linker_2, # of connection points: 2
#     Edge 87, Type (0, 0), BuildingBlock: XUDNAN_clean_linker_2, # of connection points: 2
#     Edge 88, Type (0, 0), BuildingBlock: XUDNAN_clean_linker_2, # of connection points: 2
#     Edge 89, Type (0, 0), BuildingBlock: XUDNAN_clean_linker_2, # of connection points: 2
#     Edge 90, Type (0, 0), BuildingBlock: XUDNAN_clean_linker_2, # of connection points: 2
#     Edge 91, Type (0, 0), BuildingBlock: XUDNAN_clean_linker_2, # of connection points: 2
#     Edge 92, Type (0, 0), BuildingBlock: XUDNAN_clean_linker_2, # of connection points: 2
#     Edge 93, Type (0, 0), BuildingBlock: XUDNAN_clean_linker_2, # of connection points: 2
#     Edge 94, Type (0, 0), BuildingBlock: XUDNAN_clean_linker_2, # of connection points: 2
#     Edge 95, Type (0, 0), BuildingBlock: XUDNAN_clean_linker_2, # of connection points: 2
# Relax obj value: 0.005
# Max RMSD: 0.035
# Mean RMSD: 0.035
data_MOF--net-uox--node1-GALJAG_clean_sbu_0--edge1-XUDNAN_clean_linker_2
_symmetry_space_group_name_H-M    P1
_symmetry_Int_Tables_number       1
_symmetry_cell_setting            triclinic
loop_
_symmetry_equiv_pos_as_xyz
'x, y, z'
_cell_length_a     48.21728
_cell_length_b     48.186518
_cell_length_c     72.290974
_cell_angle_alpha  89.9989
_cell_angle_beta   89.974118
_cell_angle_gamma 89.998979
loop_
_atom_site_label
_atom_site_type_symbol
_atom_site_fract_x
_atom_site_fract_y
_atom_site_fract_z
_atom_type_partial_charge
In0 In 0.39924 0.07606 0.15989 0.0
O1 O 0.37966 0.03898 0.14495 0.0
O2 O 0.35706 0.05848 0.16673 0.0
C3 C 0.44855 0.08243 0.1429 0.0
C4 C 0.41394 0.05297 0.19231 0.0
C5 C 0.37488 0.12365 0.14871 0.0
O6 O 0.42966 0.06703 0.13641 0.0
O7 O 0.44254 0.09441 0.15792 0.0
O8 O 0.38591 0.12171 0.16457 0.0
O9 O 0.37619 0.10189 0.13908 0.0
C10 C 0.35795 0.03934 0.15482 0.0
O11 O 0.40033 0.07548 0.19172 0.0
O12 O 0.42089 0.04337 0.17675 0.0
In13 In 0.19454 0.15237 0.40839 0.0
O14 O 0.19862 0.15503 0.44013 0.0
O15 O 0.23476 0.16042 0.42378 0.0
C16 C 0.14085 0.13658 0.40573 0.0
C17 C 0.22152 0.10713 0.39553 0.0
C18 C 0.19248 0.20302 0.39225 0.0
O19 O 0.15324 0.1387 0.42109 0.0
O20 O 0.15546 0.14268 0.39181 0.0
O21 O 0.20167 0.18179 0.38406 0.0
O22 O 0.18448 0.19877 0.40864 0.0
C23 C 0.22452 0.15899 0.43978 0.0
O24 O 0.22834 0.13148 0.39097 0.0
O25 O 0.20073 0.10564 0.40605 0.0
In26 In 0.10848 0.94101 0.65471 0.0
O27 O 0.1273 0.9777 0.63851 0.0
O28 O 0.15457 0.94978 0.65205 0.0
C29 C 0.05827 0.93405 0.63871 0.0
C30 C 0.09878 0.96868 0.68663 0.0
C31 C 0.12638 0.88812 0.65155 0.0
O32 O 0.07833 0.94542 0.63038 0.0
O33 O 0.06353 0.92654 0.65506 0.0
O34 O 0.12171 0.89931 0.66707 0.0
O35 O 0.12186 0.90356 0.63775 0.0
C36 C 0.15202 0.97139 0.64242 0.0
O37 O 0.11076 0.94537 0.6863 0.0
O38 O 0.09133 0.97757 0.67101 0.0
In39 In 0.31464 0.85785 0.91015 0.0
O40 O 0.31586 0.88267 0.93717 0.0
O41 O 0.29281 0.84507 0.93679 0.0
C42 C 0.36139 0.8771 0.89397 0.0
C43 C 0.27061 0.8851 0.89572 0.0
C44 C 0.32591 0.80335 0.90585 0.0
O45 O 0.35822 0.87724 0.91133 0.0
O46 O 0.34107 0.86755 0.88503 0.0
O47 O 0.31113 0.81658 0.89441 0.0
O48 O 0.33454 0.81751 0.91936 0.0
C49 C 0.30027 0.86611 0.94588 0.0
O50 O 0.27016 0.85928 0.89872 0.0
O51 O 0.29337 0.89668 0.89935 0.0
In52 In 0.39997 0.93541 0.34587 0.0
O53 O 0.41156 0.92965 0.31552 0.0
O54 O 0.3934 0.96811 0.32343 0.0
C55 C 0.38443 0.88156 0.34861 0.0
C56 C 0.35875 0.96581 0.36124 0.0
C57 C 0.45249 0.93959 0.35931 0.0
O58 O 0.38122 0.89554 0.334 0.0
O59 O 0.39597 0.89456 0.36165 0.0
O60 O 0.43235 0.9328 0.36947 0.0
O61 O 0.44596 0.94479 0.34284 0.0
C62 C 0.40379 0.95362 0.31064 0.0
O63 O 0.38349 0.97432 0.36073 0.0
O64 O 0.3551 0.94205 0.35443 0.0
In65 In 0.32533 0.15313 0.59888 0.0
O66 O 0.28493 0.13609 0.61164 0.0
O67 O 0.31682 0.10769 0.60423 0.0
C68 C 0.3239 0.20801 0.60674 0.0
C69 C 0.31159 0.15256 0.56272 0.0
C70 C 0.37496 0.13994 0.61383 0.0
O71 O 0.31507 0.19009 0.61807 0.0
O72 O 0.3327 0.19827 0.59168 0.0
O73 O 0.36995 0.1364 0.59682 0.0
O74 O 0.35518 0.15024 0.62296 0.0
C75 C 0.29284 0.11109 0.61078 0.0
O76 O 0.33639 0.14988 0.5682 0.0
O77 O 0.2939 0.15525 0.57548 0.0
In78 In 0.10309 0.06744 0.84618 0.0
O79 O 0.10622 0.02661 0.8623 0.0
O80 O 0.14371 0.04684 0.85511 0.0
C81 C 0.05054 0.07112 0.85956 0.0
C82 C 0.09983 0.05529 0.80967 0.0
C83 C 0.12865 0.11693 0.85101 0.0
O84 O 0.0581 0.05277 0.84822 0.0
O85 O 0.06955 0.08749 0.86444 0.0
O86 O 0.1239 0.10681 0.83522 0.0
O87 O 0.12087 0.10192 0.86436 0.0
C88 C 0.13235 0.02604 0.86248 0.0
O89 O 0.0865 0.07508 0.81689 0.0
O90 O 0.11518 0.04219 0.82074 0.0
In91 In 0.18541 0.8674 0.10102 0.0
O92 O 0.19184 0.89096 0.07402 0.0
O93 O 0.20628 0.84948 0.0749 0.0
C94 C 0.13284 0.88773 0.10318 0.0
C95 C 0.22195 0.8969 0.12142 0.0
C96 C 0.18392 0.81585 0.11575 0.0
O97 O 0.13833 0.86232 0.1049 0.0
O98 O 0.15361 0.90271 0.09982 0.0
O99 O 0.19343 0.83656 0.12438 0.0
O100 O 0.17572 0.821 0.09949 0.0
C101 C 0.20434 0.87167 0.06575 0.0
O102 O 0.19662 0.89491 0.12556 0.0
O103 O 0.22915 0.88297 0.10746 0.0
In104 In 0.60151 0.94802 0.84997 0.0
O105 O 0.60618 0.98545 0.86906 0.0
O106 O 0.64255 0.96923 0.85624 0.0
C107 C 0.54677 0.937 0.85384 0.0
C108 C 0.60531 0.97342 0.81683 0.0
C109 C 0.62305 0.90027 0.86361 0.0
O110 O 0.56047 0.94983 0.86601 0.0
O111 O 0.56052 0.93026 0.83969 0.0
O112 O 0.62271 0.90518 0.84641 0.0
O113 O 0.61324 0.91946 0.87347 0.0
C114 C 0.63204 0.98772 0.86647 0.0
O115 O 0.61382 0.94876 0.8191 0.0
O116 O 0.59421 0.98427 0.83087 0.0
In117 In 0.82132 0.84872 0.59832 0.0
O118 O 0.77692 0.85325 0.60889 0.0
O119 O 0.8031 0.88873 0.61016 0.0
C120 C 0.82604 0.79768 0.61397 0.0
C121 C 0.80377 0.84305 0.56286 0.0
C122 C 0.87152 0.8739 0.60205 0.0
O123 O 0.81669 0.81835 0.62269 0.0
O124 O 0.83255 0.8027 0.59743 0.0
O125 O 0.85849 0.87334 0.58695 0.0
O126 O 0.85917 0.8621 0.61522 0.0
C127 C 0.77925 0.87867 0.6129 0.0
O128 O 0.79508 0.86189 0.57344 0.0
O129 O 0.82185 0.82743 0.56996 0.0
In130 In 0.90233 0.06781 0.35461 0.0
O131 O 0.90608 0.06231 0.32326 0.0
O132 O 0.9177 0.02844 0.34045 0.0
C133 C 0.87709 0.1183 0.35543 0.0
C134 C 0.86343 0.03422 0.36978 0.0
C135 C 0.95321 0.07746 0.36943 0.0
O136 O 0.88297 0.10609 0.34051 0.0
O137 O 0.88363 0.105 0.36976 0.0
O138 O 0.93494 0.063 0.37734 0.0
O139 O 0.9461 0.08675 0.35383 0.0
C140 C 0.91465 0.03756 0.32421 0.0
O141 O 0.88374 0.04368 0.37877 0.0
O142 O 0.86232 0.04206 0.35315 0.0
In143 In 0.68964 0.15052 0.09842 0.0
O144 O 0.7193 0.14386 0.12308 0.0
O145 O 0.7126 0.11043 0.10455 0.0
C146 C 0.6831 0.20595 0.1028 0.0
C147 C 0.7171 0.1434 0.06625 0.0
C148 C 0.63684 0.13196 0.10289 0.0
O149 O 0.68986 0.19024 0.11602 0.0
O150 O 0.68005 0.19378 0.08748 0.0
O151 O 0.64754 0.13609 0.08724 0.0
O152 O 0.65268 0.13713 0.11629 0.0
C153 C 0.72501 0.11917 0.11868 0.0
O154 O 0.69676 0.12858 0.07109 0.0
O155 O 0.72333 0.1626 0.07743 0.0
In156 In 0.61578 0.06857 0.65656 0.0
O157 O 0.62841 0.0781 0.68644 0.0
O158 O 0.60951 0.03909 0.68079 0.0
C159 C 0.63661 0.1138 0.63914 0.0
C160 C 0.64443 0.02474 0.64324 0.0
C161 C 0.56104 0.07997 0.6527 0.0
O162 O 0.63943 0.11016 0.65636 0.0
O163 O 0.62417 0.09441 0.63089 0.0
O164 O 0.57414 0.06554 0.64103 0.0
O165 O 0.57535 0.08793 0.66627 0.0
C166 C 0.61996 0.05509 0.69271 0.0
O167 O 0.61824 0.02581 0.64306 0.0
O168 O 0.65615 0.04614 0.64961 0.0
In169 In 0.68327 0.85742 0.41097 0.0
O170 O 0.68609 0.85945 0.44257 0.0
O171 O 0.7159 0.83526 0.42773 0.0
C172 C 0.63711 0.88483 0.40056 0.0
C173 C 0.72227 0.89584 0.40379 0.0
C174 C 0.67038 0.80526 0.40057 0.0
O175 O 0.64014 0.87585 0.4169 0.0
O176 O 0.65711 0.87986 0.3898 0.0
O177 O 0.68718 0.81984 0.39117 0.0
O178 O 0.66011 0.81734 0.41447 0.0
C179 C 0.70745 0.84408 0.44321 0.0
O180 O 0.71865 0.87535 0.39301 0.0
O181 O 0.706 0.89686 0.41744 0.0
In182 In 0.89778 0.94033 0.16615 0.0
O183 O 0.89978 0.92834 0.1968 0.0
O184 O 0.91592 0.96763 0.18877 0.0
C185 C 0.86925 0.89575 0.1535 0.0
C186 C 0.8599 0.98075 0.16077 0.0
C187 C 0.94786 0.93691 0.1491 0.0
O188 O 0.88151 0.89557 0.16893 0.0
O189 O 0.87103 0.91834 0.14481 0.0
O190 O 0.93308 0.95848 0.14855 0.0
O191 O 0.93754 0.91731 0.15833 0.0
C192 C 0.91086 0.95091 0.20177 0.0
O193 O 0.87754 0.97421 0.14859 0.0
O194 O 0.8611 0.96669 0.17547 0.0
In195 In 0.81667 0.15296 0.91037 0.0
O196 O 0.79261 0.12474 0.89061 0.0
O197 O 0.76929 0.14955 0.90908 0.0
C198 C 0.81728 0.2061 0.8976 0.0
C199 C 0.81186 0.14073 0.94686 0.0
C200 C 0.86514 0.12843 0.90096 0.0
O201 O 0.8282 0.18636 0.88877 0.0
O202 O 0.80603 0.19898 0.91258 0.0
O203 O 0.86432 0.14868 0.91209 0.0
O204 O 0.84186 0.12098 0.89482 0.0
C205 C 0.76901 0.131 0.89681 0.0
O206 O 0.80947 0.12295 0.9342 0.0
O207 O 0.81839 0.16464 0.94125 0.0
In208 In 0.91043 0.56025 0.65249 0.0
O209 O 0.9365 0.55641 0.67903 0.0
O210 O 0.89599 0.53966 0.67933 0.0
C211 C 0.88383 0.6095 0.64901 0.0
C212 C 0.87974 0.51919 0.63719 0.0
C213 C 0.95962 0.56741 0.63479 0.0
O214 O 0.88864 0.59839 0.66451 0.0
O215 O 0.89194 0.59552 0.63526 0.0
O216 O 0.94872 0.58583 0.64479 0.0
O217 O 0.94577 0.54527 0.63364 0.0
C218 C 0.91825 0.54345 0.68803 0.0
O219 O 0.90522 0.51662 0.64072 0.0
O220 O 0.86989 0.54289 0.64067 0.0
In221 In 0.68667 0.65552 0.90484 0.0
O222 O 0.69461 0.65025 0.93585 0.0
O223 O 0.72561 0.67016 0.91955 0.0
C224 C 0.63702 0.62958 0.90111 0.0
C225 C 0.7214 0.62135 0.88631 0.0
C226 C 0.67413 0.70969 0.89924 0.0
O227 O 0.65018 0.62995 0.9162 0.0
O228 O 0.64885 0.64225 0.88806 0.0
O229 O 0.68649 0.69538 0.88712 0.0
O230 O 0.66809 0.69664 0.91382 0.0
C231 C 0.71828 0.66158 0.93533 0.0
O232 O 0.71287 0.64389 0.8794 0.0
O233 O 0.71202 0.61602 0.90218 0.0
In234 In 0.61421 0.44653 0.14912 0.0
O235 O 0.61188 0.44704 0.181 0.0
O236 O 0.5973 0.48208 0.16585 0.0
C237 C 0.63447 0.39747 0.13725 0.0
C238 C 0.65789 0.47956 0.14205 0.0
C239 C 0.56389 0.44083 0.13349 0.0
O240 O 0.62812 0.40118 0.15411 0.0
O241 O 0.63091 0.41835 0.12701 0.0
O242 O 0.58266 0.45577 0.12637 0.0
O243 O 0.57039 0.42942 0.14861 0.0
C244 C 0.60173 0.47133 0.18148 0.0
O245 O 0.63473 0.48296 0.13411 0.0
O246 O 0.65892 0.45932 0.15313 0.0
In247 In 0.81942 0.35875 0.40257 0.0
O248 O 0.8138 0.3848 0.42887 0.0
O249 O 0.7944 0.34533 0.42793 0.0
C250 C 0.8746 0.37022 0.40258 0.0
C251 C 0.78573 0.39154 0.38222 0.0
C252 C 0.81919 0.30741 0.38705 0.0
O253 O 0.86458 0.34819 0.40916 0.0
O254 O 0.85673 0.38715 0.39674 0.0
O255 O 0.81565 0.32921 0.37767 0.0
O256 O 0.82181 0.3115 0.40417 0.0
C257 C 0.79849 0.36735 0.43692 0.0
O258 O 0.81163 0.39051 0.37986 0.0
O259 O 0.77653 0.375 0.39431 0.0
In260 In 0.89391 0.43862 0.84392 0.0
O261 O 0.8747 0.47368 0.86126 0.0
O262 O 0.85816 0.46574 0.83447 0.0
C263 C 0.94203 0.4304 0.86227 0.0
C264 C 0.91174 0.45609 0.81052 0.0
C265 C 0.8655 0.39204 0.8531 0.0
O266 O 0.92543 0.44969 0.86655 0.0
O267 O 0.93425 0.4155 0.8489 0.0
O268 O 0.88073 0.39317 0.83889 0.0
O269 O 0.86425 0.41431 0.86217 0.0
C270 C 0.85723 0.48027 0.84896 0.0
O271 O 0.89304 0.43783 0.81222 0.0
O272 O 0.92185 0.46468 0.82556 0.0
In273 In 0.82717 0.65968 0.09201 0.0
O274 O 0.79666 0.65089 0.06861 0.0
O275 O 0.83577 0.66817 0.06143 0.0
C276 C 0.88021 0.64192 0.09514 0.0
C277 C 0.79518 0.62192 0.10982 0.0
C278 C 0.82277 0.71258 0.10473 0.0
O279 O 0.86388 0.63292 0.08288 0.0
O280 O 0.87003 0.6604 0.10547 0.0
O281 O 0.827 0.69229 0.11537 0.0
O282 O 0.82033 0.70613 0.08795 0.0
C283 C 0.81237 0.65973 0.05594 0.0
O284 O 0.78529 0.64403 0.10322 0.0
O285 O 0.82096 0.61932 0.10783 0.0
In286 In 0.60726 0.56891 0.34124 0.0
O287 O 0.60337 0.58017 0.31055 0.0
O288 O 0.59956 0.53769 0.31818 0.0
C289 C 0.62462 0.6169 0.35705 0.0
C290 C 0.65044 0.53481 0.3481 0.0
C291 C 0.55483 0.56686 0.35458 0.0
O292 O 0.62349 0.61404 0.33968 0.0
O293 O 0.61752 0.59567 0.36606 0.0
O294 O 0.57404 0.55177 0.36091 0.0
O295 O 0.56197 0.58234 0.34134 0.0
C296 C 0.59979 0.55537 0.30533 0.0
O297 O 0.62654 0.53045 0.35468 0.0
O298 O 0.65257 0.5566 0.3385 0.0
In299 In 0.68905 0.35792 0.5925 0.0
O300 O 0.68904 0.38431 0.56605 0.0
O301 O 0.7077 0.34444 0.56497 0.0
C302 C 0.64195 0.37651 0.60882 0.0
C303 C 0.7342 0.38429 0.6062 0.0
C304 C 0.68033 0.30304 0.59771 0.0
O305 O 0.64447 0.37545 0.59143 0.0
O306 O 0.66305 0.36854 0.61764 0.0
O307 O 0.69465 0.31739 0.6088 0.0
O308 O 0.67063 0.31635 0.58412 0.0
C309 C 0.70227 0.36671 0.55658 0.0
O310 O 0.73387 0.35848 0.6032 0.0
O311 O 0.71158 0.39642 0.60296 0.0
In312 In 0.10878 0.43254 0.34082 0.0
O313 O 0.09966 0.42412 0.30998 0.0
O314 O 0.10368 0.46583 0.31849 0.0
C315 C 0.14105 0.38825 0.34842 0.0
C316 C 0.13931 0.47292 0.35681 0.0
C317 C 0.05933 0.41657 0.35542 0.0
O318 O 0.13874 0.39803 0.33224 0.0
O319 O 0.12803 0.40154 0.36073 0.0
O320 O 0.06697 0.44161 0.35551 0.0
O321 O 0.07594 0.40032 0.34755 0.0
C322 C 0.09954 0.44932 0.30533 0.0
O323 O 0.11355 0.47044 0.35954 0.0
O324 O 0.14977 0.45462 0.34645 0.0
In325 In 0.32541 0.36276 0.09202 0.0
O326 O 0.31915 0.35972 0.06071 0.0
O327 O 0.2847 0.35146 0.0784 0.0
C328 C 0.37844 0.38019 0.09483 0.0
C329 C 0.29661 0.40796 0.10274 0.0
C330 C 0.32889 0.31004 0.10433 0.0
O331 O 0.36648 0.37733 0.0794 0.0
O332 O 0.36381 0.3739 0.10868 0.0
O333 O 0.32253 0.32975 0.11511 0.0
O334 O 0.33362 0.3171 0.08784 0.0
C335 C 0.29372 0.35342 0.06204 0.0
O336 O 0.29582 0.38564 0.11198 0.0
O337 O 0.3125 0.40741 0.08892 0.0
In338 In 0.39835 0.5672 0.85231 0.0
O339 O 0.37866 0.52817 0.86504 0.0
O340 O 0.35246 0.5575 0.85164 0.0
C341 C 0.45108 0.56719 0.86508 0.0
C342 C 0.40512 0.5529 0.8165 0.0
C343 C 0.38139 0.6155 0.86759 0.0
O344 O 0.4323 0.5525 0.87239 0.0
O345 O 0.44335 0.58095 0.85117 0.0
O346 O 0.3816 0.61185 0.85026 0.0
O347 O 0.38947 0.5949 0.87691 0.0
C348 C 0.35431 0.53472 0.86015 0.0
O349 O 0.40148 0.57777 0.82153 0.0
O350 O 0.40555 0.53543 0.82949 0.0
In351 In 0.19404 0.653 0.59522 0.0
O352 O 0.20647 0.62783 0.62087 0.0
O353 O 0.23311 0.62644 0.59758 0.0
C354 C 0.18741 0.70269 0.61216 0.0
C355 C 0.21935 0.66312 0.56251 0.0
C356 C 0.14335 0.62826 0.59367 0.0
O357 O 0.19748 0.68185 0.62036 0.0
O358 O 0.18136 0.6986 0.59541 0.0
O359 O 0.14668 0.65371 0.59683 0.0
O360 O 0.16553 0.61528 0.59044 0.0
C361 C 0.22836 0.61817 0.61379 0.0
O362 O 0.19726 0.64906 0.56359 0.0
O363 O 0.22792 0.67258 0.57774 0.0
In364 In 0.11361 0.57388 0.15454 0.0
O365 O 0.11121 0.56813 0.18602 0.0
O366 O 0.09642 0.53553 0.16878 0.0
C367 C 0.13518 0.62577 0.15251 0.0
C368 C 0.15546 0.54365 0.13987 0.0
C369 C 0.06278 0.58029 0.13933 0.0
O370 O 0.13143 0.61363 0.16781 0.0
O371 O 0.1284 0.61167 0.13858 0.0
O372 O 0.08025 0.56296 0.13335 0.0
O373 O 0.07067 0.59392 0.15327 0.0
C374 C 0.10087 0.54404 0.18503 0.0
O375 O 0.13651 0.55425 0.13017 0.0
O376 O 0.15351 0.54834 0.15696 0.0
In377 In 0.18056 0.35534 0.90673 0.0
O378 O 0.18712 0.39844 0.89449 0.0
O379 O 0.22229 0.37216 0.89609 0.0
C380 C 0.18058 0.30434 0.89075 0.0
C381 C 0.1981 0.35009 0.94215 0.0
C382 C 0.1282 0.37483 0.90313 0.0
O383 O 0.18805 0.32592 0.88224 0.0
O384 O 0.17368 0.3084 0.90734 0.0
O385 O 0.14378 0.38167 0.91642 0.0
O386 O 0.139 0.35815 0.89175 0.0
C387 C 0.21274 0.39561 0.89167 0.0
O388 O 0.17291 0.34828 0.93762 0.0
O389 O 0.21441 0.35442 0.92884 0.0
In390 In 0.40264 0.43976 0.66132 0.0
O391 O 0.40076 0.44194 0.69303 0.0
O392 O 0.41804 0.476 0.67794 0.0
C393 C 0.37894 0.39324 0.64803 0.0
C394 C 0.36204 0.47558 0.65269 0.0
C395 C 0.45598 0.42892 0.65294 0.0
O396 O 0.38314 0.39641 0.66522 0.0
O397 O 0.38684 0.41322 0.63803 0.0
O398 O 0.44127 0.44449 0.64275 0.0
O399 O 0.44366 0.41911 0.66691 0.0
C400 C 0.41133 0.46609 0.6935 0.0
O401 O 0.38489 0.47555 0.64392 0.0
O402 O 0.35985 0.45721 0.66507 0.0
In403 In 0.32005 0.64456 0.40369 0.0
O404 O 0.2757 0.63972 0.39344 0.0
O405 O 0.30088 0.60348 0.39416 0.0
C406 C 0.32584 0.69528 0.38784 0.0
C407 C 0.30634 0.65209 0.43978 0.0
C408 C 0.36805 0.61725 0.39647 0.0
O409 O 0.31498 0.67498 0.37956 0.0
O410 O 0.33315 0.69021 0.40423 0.0
O411 O 0.35498 0.61415 0.41147 0.0
O412 O 0.35669 0.63358 0.38518 0.0
C413 C 0.27734 0.61387 0.39081 0.0
O414 O 0.33036 0.65703 0.43366 0.0
O415 O 0.28959 0.64321 0.42784 0.0
H416 H 0.38493 1.00272 0.29598 0.0
H417 H 0.43346 0.92943 0.28286 0.0
H418 H 0.44372 0.9487 0.25198 0.0
H419 H 0.35464 0.01057 0.25075 0.0
H420 H 0.35553 0.04796 0.25126 0.0
H421 H 0.35262 0.02871 0.27252 0.0
H422 H 0.39619 0.05381 0.28516 0.0
H423 H 0.39941 0.07292 0.26385 0.0
H424 H 0.4281 0.05248 0.27219 0.0
H425 H 0.44895 0.97562 0.22283 0.0
H426 H 0.44546 0.00659 0.19586 0.0
H427 H 0.39272 0.06244 0.22724 0.0
C428 C 0.39768 0.99073 0.28658 0.0
C429 C 0.40847 0.96459 0.29181 0.0
C430 C 0.42494 0.94945 0.27912 0.0
C431 C 0.43101 0.9603 0.2616 0.0
C432 C 0.42034 0.98625 0.25695 0.0
C433 C 0.40378 1.00117 0.26895 0.0
C434 C 0.39415 0.02813 0.26019 0.0
C435 C 0.36235 0.02887 0.25858 0.0
C436 C 0.40513 0.05332 0.271 0.0
C437 C 0.4078 0.02593 0.24135 0.0
C438 C 0.42302 1.00171 0.2399 0.0
C439 C 0.43712 0.99466 0.22378 0.0
C440 C 0.43505 0.01245 0.20855 0.0
C441 C 0.41888 0.03697 0.20945 0.0
C442 C 0.40548 0.04401 0.2262 0.0
H443 H 0.25925 0.15253 0.54795 0.0
H444 H 0.34635 0.15477 0.53285 0.0
H445 H 0.33333 0.15793 0.49984 0.0
H446 H 0.23695 0.11016 0.50961 0.0
H447 H 0.20437 0.12805 0.50688 0.0
H448 H 0.22059 0.12631 0.52929 0.0
H449 H 0.21928 0.17995 0.53157 0.0
H450 H 0.2032 0.18188 0.50912 0.0
H451 H 0.23494 0.20049 0.51352 0.0
H452 H 0.31092 0.16161 0.46866 0.0
H453 H 0.28082 0.16279 0.44112 0.0
H454 H 0.20806 0.15705 0.4763 0.0
C455 C 0.27559 0.15366 0.53769 0.0
C456 C 0.30384 0.15348 0.54294 0.0
C457 C 0.3246 0.15485 0.52912 0.0
C458 C 0.3174 0.15674 0.51036 0.0
C459 C 0.28936 0.15706 0.50566 0.0
C460 C 0.26877 0.15535 0.5189 0.0
C461 C 0.2402 0.15557 0.51011 0.0
C462 C 0.22461 0.1284 0.51422 0.0
C463 C 0.22342 0.18099 0.51646 0.0
C464 C 0.24794 0.15772 0.48985 0.0
C465 C 0.27641 0.15872 0.48762 0.0
C466 C 0.28861 0.16079 0.47022 0.0
C467 C 0.27131 0.16152 0.45466 0.0
C468 C 0.24209 0.16004 0.45655 0.0
C469 C 0.23031 0.15828 0.47442 0.0
H470 H 0.12208 0.00986 0.79249 0.0
H471 H 0.0705 0.08217 0.78265 0.0
H472 H 0.06421 0.06757 0.75011 0.0
H473 H 0.15622 0.00918 0.74809 0.0
H474 H 0.15649 0.97185 0.74646 0.0
H475 H 0.15727 0.98837 0.7688 0.0
H476 H 0.11364 0.96061 0.77861 0.0
H477 H 0.11263 0.94412 0.75626 0.0
H478 H 0.08269 0.96262 0.76469 0.0
H479 H 0.06364 0.04504 0.7187 0.0
H480 H 0.06888 0.01638 0.6906 0.0
H481 H 0.11997 0.95815 0.72119 0.0
C482 C 0.10959 0.02273 0.78346 0.0
C483 C 0.09685 0.04722 0.79005 0.0
C484 C 0.0805 0.06337 0.77786 0.0
C485 C 0.07679 0.05522 0.75938 0.0
C486 C 0.08948 0.03083 0.75337 0.0
C487 C 0.10555 0.01482 0.76504 0.0
C488 C 0.11666 0.98937 0.75521 0.0
C489 C 0.14855 0.98973 0.7546 0.0
C490 C 0.10574 0.9626 0.76423 0.0
C491 C 0.10436 0.99356 0.73614 0.0
C492 C 0.08879 0.01763 0.73537 0.0
C493 C 0.07572 0.02612 0.71916 0.0
C494 C 0.0788 0.0097 0.70328 0.0
C495 C 0.09473 0.98499 0.70374 0.0
C496 C 0.10749 0.9768 0.72045 0.0
H497 H 0.27833 0.82917 0.97071 0.0
H498 H 0.29682 0.9165 0.9629 0.0
H499 H 0.27367 0.92732 0.99257 0.0
H500 H 0.21191 0.83687 0.99087 0.0
H501 H 0.21601 0.80927 0.00747 0.0
H502 H 0.23463 0.80811 0.98589 0.0
H503 H 0.28117 0.80369 0.00354 0.0
H504 H 0.26267 0.80447 0.02519 0.0
H505 H 0.29003 0.82912 0.02085 0.0
H506 H 0.24513 0.92901 0.02157 0.0
H507 H 0.21874 0.92104 0.05034 0.0
H508 H 0.22163 0.8322 0.04069 0.0
C509 C 0.27777 0.85052 0.97537 0.0
C510 C 0.2893 0.87205 0.96454 0.0
C511 C 0.28826 0.89971 0.97107 0.0
C512 C 0.27501 0.90606 0.98783 0.0
C513 C 0.26336 0.88442 0.99802 0.0
C514 C 0.26511 0.85715 0.99226 0.0
C515 C 0.25132 0.83777 0.006 0.0
C516 C 0.22702 0.82209 0.99702 0.0
C517 C 0.27257 0.81757 0.01439 0.0
C518 C 0.24112 0.85846 0.02025 0.0
C519 C 0.24804 0.88528 0.01524 0.0
C520 C 0.23991 0.90809 0.02575 0.0
C521 C 0.22476 0.90335 0.042 0.0
C522 C 0.21824 0.87601 0.04775 0.0
C523 C 0.22648 0.85331 0.03667 0.0
H524 H 0.60812 0.95477 0.78072 0.0
H525 H 0.61223 0.02896 0.8146 0.0
H526 H 0.61924 0.05749 0.78667 0.0
H527 H 0.65852 0.97588 0.74569 0.0
H528 H 0.63906 0.96128 0.72676 0.0
H529 H 0.63651 0.94617 0.7495 0.0
H530 H 0.58313 0.95224 0.74874 0.0
H531 H 0.58552 0.9673 0.726 0.0
H532 H 0.56864 0.98611 0.74438 0.0
H533 H 0.62573 0.07816 0.75529 0.0
H534 H 0.62693 0.09012 0.72203 0.0
H535 H 0.6153 1.00331 0.70809 0.0
C536 C 0.61079 0.97697 0.78219 0.0
C537 C 0.6098 0.98969 0.79978 0.0
C538 C 0.61286 0.01885 0.80122 0.0
C539 C 0.61701 0.03521 0.78546 0.0
C540 C 0.61768 0.02218 0.76829 0.0
C541 C 0.61434 0.99378 0.76649 0.0
C542 C 0.61404 0.98538 0.74627 0.0
C543 C 0.63849 0.96603 0.74179 0.0
C544 C 0.58617 0.97197 0.74105 0.0
C545 C 0.61757 0.01348 0.73708 0.0
C546 C 0.62009 0.03434 0.75006 0.0
C547 C 0.62373 0.06202 0.74497 0.0
C548 C 0.62445 0.06862 0.72607 0.0
C549 C 0.6211 0.04769 0.71254 0.0
C550 C 0.61779 0.01976 0.71816 0.0
H551 H 0.70405 0.87139 0.47654 0.0
H552 H 0.74612 0.80378 0.44851 0.0
H553 H 0.77488 0.79575 0.47622 0.0
H554 H 0.76403 0.89813 0.4989 0.0
H555 H 0.74641 0.90748 0.51999 0.0
H556 H 0.72767 0.90685 0.49845 0.0
H557 H 0.69194 0.87263 0.51248 0.0
H558 H 0.71043 0.87334 0.53413 0.0
H559 H 0.70389 0.8407 0.52276 0.0
H560 H 0.80019 0.796 0.50644 0.0
H561 H 0.81989 0.80414 0.53753 0.0
H562 H 0.76227 0.87226 0.54575 0.0
C563 C 0.71899 0.85461 0.47637 0.0
C564 C 0.72275 0.83807 0.46044 0.0
C565 C 0.74287 0.81665 0.4606 0.0
C566 C 0.75931 0.81193 0.47626 0.0
C567 C 0.75548 0.8289 0.49163 0.0
C568 C 0.7358 0.84978 0.49186 0.0
C569 C 0.73669 0.86571 0.50993 0.0
C570 C 0.74415 0.89635 0.50661 0.0
C571 C 0.7091 0.86291 0.52045 0.0
C572 C 0.75992 0.85054 0.51977 0.0
C573 C 0.77043 0.82934 0.50898 0.0
C574 C 0.7921 0.8125 0.51505 0.0
C575 C 0.8032 0.81732 0.53269 0.0
C576 C 0.79267 0.83884 0.54401 0.0
C577 C 0.77081 0.85569 0.53738 0.0
H578 H 0.91566 0.05376 0.28784 0.0
H579 H 0.92201 0.9814 0.3233 0.0
H580 H 0.92437 0.95119 0.29573 0.0
H581 H 0.87267 0.02405 0.25397 0.0
H582 H 0.88909 0.04098 0.23462 0.0
H583 H 0.8897 0.05703 0.25709 0.0
H584 H 0.94337 0.05947 0.25582 0.0
H585 H 0.94291 0.04351 0.23327 0.0
H586 H 0.96301 0.02825 0.25167 0.0
H587 H 0.92112 0.92858 0.26431 0.0
H588 H 0.9161 0.91571 0.2313 0.0
H589 H 0.91478 1.00288 0.2164 0.0
C590 C 0.91795 0.03159 0.28979 0.0
C591 C 0.91867 0.0199 0.30769 0.0
C592 C 0.92157 0.9908 0.3097 0.0
C593 C 0.92287 0.97347 0.29413 0.0
C594 C 0.92166 0.9856 0.27665 0.0
C595 C 0.91965 0.01403 0.27439 0.0
C596 C 0.91813 0.02177 0.25411 0.0
C597 C 0.89077 0.03684 0.2497 0.0
C598 C 0.94336 0.03928 0.24838 0.0
C599 C 0.919 0.99325 0.24534 0.0
C600 C 0.92094 0.97262 0.25856 0.0
C601 C 0.92011 0.94456 0.25382 0.0
C602 C 0.91719 0.93743 0.23507 0.0
C603 C 0.91548 0.95829 0.22135 0.0
C604 C 0.91667 0.9865 0.22659 0.0
H605 H 0.80608 0.1775 0.97577 0.0
H606 H 0.79694 0.09064 0.96109 0.0
H607 H 0.7746 0.08154 0.99113 0.0
H608 H 0.8185 0.16563 0.02641 0.0
H609 H 0.79908 0.19613 0.03279 0.0
H610 H 0.81762 0.19519 0.01113 0.0
H611 H 0.77219 0.20713 0.99377 0.0
H612 H 0.75343 0.2077 0.01528 0.0
H613 H 0.74217 0.18528 0.9968 0.0
H614 H 0.74737 0.083 0.02024 0.0
H615 H 0.72099 0.09393 0.04856 0.0
H616 H 0.74907 0.17936 0.04566 0.0
C617 C 0.80016 0.15642 0.97914 0.0
C618 C 0.80336 0.13474 0.96612 0.0
C619 C 0.79484 0.10753 0.97088 0.0
C620 C 0.78208 0.10216 0.98791 0.0
C621 C 0.77826 0.12414 1.00014 0.0
C622 C 0.78747 0.15064 0.99618 0.0
C623 C 0.77933 0.17078 0.0114 0.0
C624 C 0.80518 0.18263 0.021 0.0
C625 C 0.76067 0.19409 0.00385 0.0
C626 C 0.76335 0.1516 0.02419 0.0
C627 C 0.76305 0.1248 0.01739 0.0
C628 C 0.74791 0.10377 0.02592 0.0
C629 C 0.73284 0.11022 0.04191 0.0
C630 C 0.73318 0.13741 0.04932 0.0
C631 C 0.74882 0.1583 0.04041 0.0
H632 H 0.8854 0.50717 0.70716 0.0
H633 H 0.96151 0.55479 0.71136 0.0
H634 H 0.96936 0.53577 0.74273 0.0
H635 H 0.86358 0.51486 0.75409 0.0
H636 H 0.85003 0.4801 0.75589 0.0
H637 H 0.85073 0.49733 0.7338 0.0
H638 H 0.87876 0.45635 0.72 0.0
H639 H 0.87831 0.43908 0.7421 0.0
H640 H 0.91087 0.44604 0.73075 0.0
H641 H 0.96784 0.51289 0.77405 0.0
H642 H 0.9572 0.48782 0.80302 0.0
H643 H 0.88306 0.45363 0.77781 0.0
C644 C 0.9037 0.51364 0.71469 0.0
C645 C 0.92282 0.53255 0.70689 0.0
C646 C 0.94661 0.54035 0.71711 0.0
C647 C 0.95125 0.52962 0.7349 0.0
C648 C 0.93205 0.5109 0.74215 0.0
C649 C 0.90879 0.50291 0.73235 0.0
C650 C 0.89131 0.48258 0.7433 0.0
C651 C 0.86219 0.49443 0.74699 0.0
C652 C 0.88973 0.45434 0.73345 0.0
C653 C 0.90813 0.48067 0.76093 0.0
C654 C 0.93157 0.49715 0.75998 0.0
C655 C 0.9497 0.49972 0.77488 0.0
C656 C 0.9435 0.48539 0.79126 0.0
C657 C 0.91948 0.46858 0.79257 0.0
C658 C 0.90183 0.46593 0.77709 0.0
H659 H 0.76281 0.6429 0.04112 0.0
H660 H 0.84182 0.68024 0.02664 0.0
H661 H 0.82629 0.68469 0.9942 0.0
H662 H 0.75409 0.60362 0.99872 0.0
H663 H 0.71713 0.60909 0.99787 0.0
H664 H 0.73474 0.60834 0.01984 0.0
H665 H 0.71477 0.65685 0.0277 0.0
H666 H 0.69723 0.65783 0.00572 0.0
H667 H 0.72068 0.68537 0.01204 0.0
H668 H 0.80175 0.68619 0.96358 0.0
H669 H 0.77048 0.68335 0.93662 0.0
H670 H 0.70745 0.64479 0.97096 0.0
C671 C 0.77691 0.65186 0.0311 0.0
C672 C 0.80355 0.66122 0.03638 0.0
C673 C 0.82135 0.67289 0.02288 0.0
C674 C 0.8127 0.67554 0.00444 0.0
C675 C 0.78622 0.66635 0.99973 0.0
C676 C 0.76863 0.65462 0.01263 0.0
C677 C 0.74116 0.64656 0.00398 0.0
C678 C 0.73652 0.61503 0.00517 0.0
C679 C 0.71704 0.66262 0.01289 0.0
C680 C 0.74598 0.65575 0.9842 0.0
C681 C 0.77211 0.66712 0.98205 0.0
C682 C 0.78128 0.67727 0.96508 0.0
C683 C 0.76334 0.67561 0.94986 0.0
C684 C 0.73654 0.66387 0.9517 0.0
C685 C 0.72781 0.65389 0.96913 0.0
H686 H 0.60704 0.50386 0.29011 0.0
H687 H 0.58629 0.58897 0.27625 0.0
H688 H 0.58191 0.57573 0.24332 0.0
H689 H 0.64938 0.4917 0.25044 0.0
H690 H 0.63887 0.45605 0.24765 0.0
H691 H 0.63847 0.47175 0.27025 0.0
H692 H 0.58662 0.4588 0.27392 0.0
H693 H 0.58683 0.4431 0.25129 0.0
H694 H 0.56204 0.46993 0.25665 0.0
H695 H 0.58029 0.55356 0.21214 0.0
H696 H 0.58473 0.52492 0.18413 0.0
H697 H 0.60876 0.45422 0.21774 0.0
C698 C 0.60128 0.51963 0.28015 0.0
C699 C 0.59674 0.54741 0.2857 0.0
C700 C 0.58977 0.56758 0.27227 0.0
C701 C 0.58715 0.56022 0.25357 0.0
C702 C 0.59184 0.53267 0.24855 0.0
C703 C 0.59899 0.51272 0.26139 0.0
C704 C 0.60445 0.48495 0.25216 0.0
C705 C 0.63459 0.47557 0.25531 0.0
C706 C 0.58375 0.4629 0.25891 0.0
C707 C 0.59937 0.49244 0.23208 0.0
C708 C 0.5918 0.52001 0.23039 0.0
C709 C 0.58618 0.53196 0.21329 0.0
C710 C 0.58874 0.51545 0.19745 0.0
C711 C 0.5971 0.4873 0.19872 0.0
C712 C 0.60225 0.47562 0.21633 0.0
H713 H 0.72018 0.32918 0.53085 0.0
H714 H 0.70997 0.41744 0.54045 0.0
H715 H 0.73384 0.42738 0.51086 0.0
H716 H 0.78689 0.33166 0.511 0.0
H717 H 0.78043 0.30515 0.49394 0.0
H718 H 0.76162 0.30491 0.51546 0.0
H719 H 0.71498 0.30542 0.49766 0.0
H720 H 0.73364 0.30528 0.47607 0.0
H721 H 0.7086 0.33216 0.48075 0.0
H722 H 0.7626 0.42751 0.48156 0.0
H723 H 0.78852 0.41787 0.45271 0.0
H724 H 0.7772 0.32952 0.46135 0.0
C725 C 0.72263 0.35059 0.52659 0.0
C726 C 0.71326 0.37257 0.5379 0.0
C727 C 0.71682 0.40031 0.53189 0.0
C728 C 0.7305 0.40614 0.51518 0.0
C729 C 0.74005 0.38397 0.50453 0.0
C730 C 0.73578 0.35674 0.50982 0.0
C731 C 0.74783 0.3367 0.49581 0.0
C732 C 0.77054 0.31854 0.50458 0.0
C733 C 0.72489 0.31884 0.48705 0.0
C734 C 0.75996 0.35689 0.48194 0.0
C735 C 0.75552 0.38406 0.48731 0.0
C736 C 0.76588 0.40633 0.4771 0.0
C737 C 0.78072 0.40066 0.46082 0.0
C738 C 0.78472 0.37299 0.4548 0.0
C739 C 0.77425 0.35089 0.46556 0.0
H740 H 0.10725 0.50178 0.29181 0.0
H741 H 0.08399 0.41842 0.27527 0.0
H742 H 0.07922 0.43435 0.24288 0.0
H743 H 0.06184 0.53905 0.26012 0.0
H744 H 0.08696 0.5659 0.25559 0.0
H745 H 0.08684 0.54832 0.27759 0.0
H746 H 0.13845 0.53495 0.27304 0.0
H747 H 0.13874 0.55249 0.25106 0.0
H748 H 0.14873 0.51651 0.25245 0.0
H749 H 0.07825 0.45915 0.21222 0.0
H750 H 0.08312 0.49028 0.18531 0.0
H751 H 0.10828 0.5573 0.22173 0.0
C752 C 0.10086 0.48693 0.2814 0.0
C753 C 0.0958 0.45888 0.28604 0.0
C754 C 0.08787 0.44001 0.27201 0.0
C755 C 0.08505 0.44889 0.2536 0.0
C756 C 0.09034 0.47668 0.24947 0.0
C757 C 0.09818 0.4954 0.26297 0.0
C758 C 0.10394 0.52378 0.25476 0.0
C759 C 0.08368 0.54554 0.26248 0.0
C760 C 0.13427 0.53243 0.25802 0.0
C761 C 0.09841 0.51806 0.2345 0.0
C762 C 0.09032 0.49083 0.23177 0.0
C763 C 0.08448 0.48052 0.21421 0.0
C764 C 0.08727 0.49839 0.199 0.0
C765 C 0.09603 0.52623 0.20142 0.0
C766 C 0.10143 0.53617 0.21945 0.0
H767 H 0.30695 0.35927 0.02523 0.0
H768 H 0.23901 0.3392 0.06231 0.0
H769 H 0.2075 0.33481 0.03559 0.0
H770 H 0.26767 0.40062 0.99401 0.0
H771 H 0.28555 0.3888 0.97357 0.0
H772 H 0.30318 0.38911 0.99551 0.0
H773 H 0.31437 0.33677 0.99198 0.0
H774 H 0.29682 0.33633 0.96998 0.0
H775 H 0.28654 0.31252 0.98796 0.0
H776 H 0.18288 0.33451 0.00509 0.0
H777 H 0.16702 0.33759 0.97265 0.0
H778 H 0.25088 0.35751 0.95531 0.0
C779 C 0.28551 0.3537 0.0277 0.0
C780 C 0.27543 0.34952 0.04584 0.0
C781 C 0.24719 0.34244 0.04852 0.0
C782 C 0.22913 0.33989 0.03344 0.0
C783 C 0.23962 0.34441 0.01575 0.0
C784 C 0.26716 0.35105 0.01278 0.0
C785 C 0.27295 0.35546 0.99238 0.0
C786 C 0.28292 0.38527 0.98866 0.0
C787 C 0.29391 0.33398 0.98515 0.0
C788 C 0.24432 0.35052 0.9844 0.0
C789 C 0.22541 0.34412 0.99812 0.0
C790 C 0.19752 0.33934 0.9942 0.0
C791 C 0.1887 0.34117 0.97576 0.0
C792 C 0.20772 0.3477 0.96148 0.0
C793 C 0.23589 0.35232 0.96592 0.0
H794 H 0.39918 0.50099 0.80155 0.0
H795 H 0.41824 0.58636 0.78729 0.0
H796 H 0.42392 0.5727 0.75454 0.0
H797 H 0.44618 0.46785 0.76928 0.0
H798 H 0.42246 0.44019 0.76369 0.0
H799 H 0.42115 0.45634 0.78616 0.0
H800 H 0.36913 0.46767 0.78133 0.0
H801 H 0.37025 0.4515 0.75889 0.0
H802 H 0.35857 0.48687 0.76112 0.0
H803 H 0.42769 0.54994 0.72361 0.0
H804 H 0.426 0.52041 0.69585 0.0
H805 H 0.40223 0.44985 0.72969 0.0
C806 C 0.40475 0.51676 0.79154 0.0
C807 C 0.40849 0.54472 0.79693 0.0
C808 C 0.41532 0.56484 0.78343 0.0
C809 C 0.41868 0.55725 0.76483 0.0
C810 C 0.41484 0.52952 0.75996 0.0
C811 C 0.40777 0.5096 0.77287 0.0
C812 C 0.40357 0.4815 0.76381 0.0
C813 C 0.4246 0.46022 0.77118 0.0
C814 C 0.3736 0.4713 0.76644 0.0
C815 C 0.40937 0.48874 0.74377 0.0
C816 C 0.41612 0.5165 0.74194 0.0
C817 C 0.4224 0.52819 0.72486 0.0
C818 C 0.42143 0.51119 0.70917 0.0
C819 C 0.41397 0.48281 0.71059 0.0
C820 C 0.40802 0.47144 0.72817 0.0
H821 H 0.20634 0.64376 0.52776 0.0
H822 H 0.26898 0.68948 0.55825 0.0
H823 H 0.29793 0.69202 0.53016 0.0
H824 H 0.25273 0.60315 0.50087 0.0
H825 H 0.23209 0.6043 0.4801 0.0
H826 H 0.21561 0.60703 0.50238 0.0
H827 H 0.19299 0.65357 0.49263 0.0
H828 H 0.20923 0.65087 0.47026 0.0
H829 H 0.21461 0.68138 0.48423 0.0
H830 H 0.32132 0.6874 0.49919 0.0
H831 H 0.33602 0.67835 0.46694 0.0
H832 H 0.25782 0.63664 0.45646 0.0
C833 C 0.226 0.65459 0.52846 0.0
C834 C 0.23538 0.66646 0.54519 0.0
C835 C 0.26131 0.6803 0.54557 0.0
C836 C 0.27796 0.68181 0.5297 0.0
C837 C 0.26833 0.66952 0.51349 0.0
C838 C 0.24284 0.65641 0.51269 0.0
C839 C 0.23752 0.64465 0.49358 0.0
C840 C 0.23431 0.6129 0.49429 0.0
C841 C 0.21208 0.65845 0.48465 0.0
C842 C 0.26408 0.65298 0.48385 0.0
C843 C 0.28163 0.66724 0.49558 0.0
C844 C 0.30767 0.67644 0.48982 0.0
C845 C 0.31589 0.67113 0.47152 0.0
C846 C 0.29805 0.65689 0.45921 0.0
C847 C 0.27186 0.64771 0.46554 0.0
H848 H 0.35306 0.99705 0.12941 0.0
H849 H 0.31218 0.03479 0.17666 0.0
H850 H 0.2747 1.00017 0.17458 0.0
H851 H 0.29133 0.98258 0.10397 0.0
H852 H 0.30359 0.94998 0.09488 0.0
H853 H 0.32796 0.97692 0.10062 0.0
H854 H 0.35405 0.94287 0.12223 0.0
H855 H 0.32961 0.91586 0.11664 0.0
H856 H 0.33534 0.92544 0.14044 0.0
H857 H 0.24084 0.96284 0.16684 0.0
H858 H 0.2117 0.92619 0.15299 0.0
H859 H 0.27434 0.91227 0.11086 0.0
C860 C 0.33627 0.99792 0.13935 0.0
C861 C 0.33554 0.01858 0.1532 0.0
C862 C 0.31316 0.01915 0.16591 0.0
C863 C 0.29182 0.99951 0.1649 0.0
C864 C 0.29315 0.97939 0.15112 0.0
C865 C 0.31471 0.97846 0.13852 0.0
C866 C 0.3105 0.95528 0.12463 0.0
C867 C 0.3082 0.96689 0.10486 0.0
C868 C 0.33376 0.93358 0.12608 0.0
C869 C 0.28305 0.94361 0.13127 0.0
C870 C 0.27354 0.95771 0.14666 0.0
C871 C 0.24815 0.95148 0.15488 0.0
C872 C 0.23177 0.93062 0.14694 0.0
C873 C 0.24085 0.91629 0.13095 0.0
C874 C 0.26704 0.92261 0.12324 0.0
H875 H 0.27507 0.1052 0.38287 0.0
H876 H 0.20454 0.05325 0.39669 0.0
H877 H 0.23227 0.0114 0.38973 0.0
H878 H 0.30196 0.06299 0.34537 0.0
H879 H 0.3377 0.06902 0.35146 0.0
H880 H 0.31184 0.09485 0.35666 0.0
H881 H 0.3265 0.09381 0.39114 0.0
H882 H 0.35222 0.06779 0.38607 0.0
H883 H 0.32625 0.06131 0.40349 0.0
H884 H 0.26738 0.9754 0.38117 0.0
H885 H 0.3079 0.94732 0.37188 0.0
H886 H 0.3566 0.0224 0.36532 0.0
C887 C 0.26539 0.08501 0.38418 0.0
C888 C 0.23761 0.08238 0.39014 0.0
C889 C 0.22578 0.05566 0.39206 0.0
C890 C 0.24136 0.0318 0.38817 0.0
C891 C 0.26882 0.03507 0.38258 0.0
C892 C 0.28079 0.06096 0.38062 0.0
C893 C 0.31098 0.05862 0.37497 0.0
C894 C 0.3159 0.07217 0.35598 0.0
C895 C 0.33011 0.07112 0.38981 0.0
C896 C 0.31406 0.02736 0.37398 0.0
C897 C 0.28943 0.01421 0.37832 0.0
C898 C 0.28682 0.98544 0.37784 0.0
C899 C 0.30994 0.96968 0.37258 0.0
C900 C 0.33538 0.98271 0.36807 0.0
C901 C 0.3375 0.01191 0.36898 0.0
H902 H 0.15317 0.02635 0.63191 0.0
H903 H 0.20566 0.95451 0.64118 0.0
H904 H 0.24704 0.98264 0.6341 0.0
H905 H 0.19336 0.0566 0.59426 0.0
H906 H 0.18813 0.09179 0.60196 0.0
H907 H 0.16236 0.06572 0.60682 0.0
H908 H 0.16569 0.07713 0.64177 0.0
H909 H 0.19162 0.10309 0.63703 0.0
H910 H 0.19891 0.0755 0.65315 0.0
H911 H 0.28255 0.01795 0.62624 0.0
H912 H 0.31068 0.05896 0.61834 0.0
H913 H 0.23606 0.10919 0.61553 0.0
C914 C 0.17337 0.01653 0.6322 0.0
C915 C 0.17627 0.98821 0.63695 0.0
C916 C 0.20302 0.97616 0.63753 0.0
C917 C 0.22663 0.99195 0.63353 0.0
C918 C 0.22318 0.01987 0.62916 0.0
C919 C 0.1973 0.03216 0.62849 0.0
C920 C 0.19966 0.06285 0.62401 0.0
C921 C 0.18501 0.06963 0.60567 0.0
C922 C 0.1883 0.08069 0.63995 0.0
C923 C 0.23088 0.06581 0.62226 0.0
C924 C 0.24394 0.04066 0.62519 0.0
C925 C 0.2726 0.03779 0.62398 0.0
C926 C 0.28839 0.06121 0.61949 0.0
C927 C 0.27556 0.08724 0.61644 0.0
C928 C 0.24642 0.08959 0.618 0.0
H929 H 0.18864 0.02189 0.86656 0.0
H930 H 0.11223 0.9753 0.87289 0.0
H931 H 0.13927 0.93351 0.88121 0.0
H932 H 0.22887 0.96777 0.84647 0.0
H933 H 0.26035 0.97683 0.85847 0.0
H934 H 0.23501 1.00319 0.85336 0.0
H935 H 0.23238 0.01636 0.88809 0.0
H936 H 0.25797 0.99028 0.89327 0.0
H937 H 0.22495 0.98983 0.90496 0.0
H938 H 0.17506 0.89618 0.88756 0.0
H939 H 0.21653 0.8676 0.89431 0.0
H940 H 0.26911 0.9392 0.88456 0.0
C941 C 0.17759 1.00296 0.86986 0.0
C942 C 0.14834 1.00181 0.86909 0.0
C943 C 0.13463 0.97666 0.87348 0.0
C944 C 0.14981 0.95279 0.87812 0.0
C945 C 0.17866 0.95449 0.87844 0.0
C946 C 0.19239 0.97904 0.87465 0.0
C947 C 0.22349 0.97551 0.87617 0.0
C948 C 0.23776 0.98116 0.85751 0.0
C949 C 0.23539 0.99409 0.89154 0.0
C950 C 0.22517 0.94511 0.88132 0.0
C951 C 0.19913 0.93326 0.88242 0.0
C952 C 0.19555 0.90529 0.88681 0.0
C953 C 0.2192 0.88918 0.89053 0.0
C954 C 0.24598 0.90119 0.88996 0.0
C955 C 0.24889 0.92944 0.88511 0.0
H956 H 0.76541 0.0846 0.87517 0.0
H957 H 0.71593 0.14067 0.9086 0.0
H958 H 0.6751 0.11029 0.90428 0.0
H959 H 0.7105 0.06502 0.84251 0.0
H960 H 0.72232 0.02959 0.84114 0.0
H961 H 0.74674 0.05706 0.84563 0.0
H962 H 0.76265 0.03162 0.87538 0.0
H963 H 0.73799 1.0043 0.87115 0.0
H964 H 0.73738 0.02281 0.89281 0.0
H965 H 0.64042 0.07215 0.89783 0.0
H966 H 0.61398 0.03052 0.88833 0.0
H967 H 0.68666 0.99922 0.8597 0.0
C968 C 0.74584 0.09081 0.88125 0.0
C969 C 0.74376 0.1151 0.89211 0.0
C970 C 0.71791 0.12226 0.90011 0.0
C971 C 0.69465 0.10509 0.89779 0.0
C972 C 0.69761 0.08086 0.88743 0.0
C973 C 0.7225 0.07386 0.87915 0.0
C974 C 0.72054 0.04619 0.86932 0.0
C975 C 0.7253 0.04968 0.84841 0.0
C976 C 0.74084 0.02499 0.87767 0.0
C977 C 0.69075 0.03855 0.87351 0.0
C978 C 0.67783 0.05882 0.88393 0.0
C979 C 0.65031 0.0562 0.8896 0.0
C980 C 0.6355 0.03244 0.88422 0.0
C981 C 0.64829 0.0116 0.87335 0.0
C982 C 0.67634 0.01471 0.86809 0.0
H983 H 0.70081 0.01894 0.64 0.0
H984 H 0.62341 0.9738 0.63427 0.0
H985 H 0.64958 0.93107 0.62697 0.0
H986 H 0.73658 0.98463 0.60245 0.0
H987 H 0.76959 0.98462 0.61415 0.0
H988 H 0.74466 0.01149 0.61895 0.0
H989 H 0.74684 0.99939 0.65385 0.0
H990 H 0.77158 0.97229 0.64913 0.0
H991 H 0.73987 0.96434 0.66124 0.0
H992 H 0.68426 0.89298 0.62108 0.0
H993 H 0.72479 0.86315 0.61457 0.0
H994 H 0.77953 0.93339 0.62343 0.0
C995 C 0.68937 1.0001 0.63712 0.0
C996 C 0.66007 0.99966 0.6377 0.0
C997 C 0.64585 0.97462 0.63383 0.0
C998 C 0.66053 0.95022 0.62976 0.0
C999 C 0.68942 0.95126 0.62951 0.0
C1000 C 0.70369 0.97561 0.6329 0.0
C1001 C 0.73474 0.97126 0.63144 0.0
C1002 C 0.74711 0.98905 0.61581 0.0
C1003 C 0.7491 0.97717 0.65002 0.0
C1004 C 0.73572 0.94064 0.62672 0.0
C1005 C 0.70936 0.92945 0.62582 0.0
C1006 C 0.70499 0.90153 0.62171 0.0
C1007 C 0.72815 0.88473 0.61811 0.0
C1008 C 0.7553 0.89593 0.61852 0.0
C1009 C 0.75904 0.92421 0.62306 0.0
H1010 H 0.74767 0.91441 0.37167 0.0
H1011 H 0.74691 0.92438 0.43134 0.0
H1012 H 0.78309 0.96025 0.429 0.0
H1013 H 0.82166 0.92561 0.36483 0.0
H1014 H 0.81727 0.94531 0.34384 0.0
H1015 H 0.79219 0.91922 0.35009 0.0
H1016 H 0.75299 0.95586 0.34813 0.0
H1017 H 0.77796 0.98207 0.34194 0.0
H1018 H 0.75557 0.98723 0.36161 0.0
H1019 H 0.81947 0.99435 0.42064 0.0
H1020 H 0.85274 0.02688 0.40637 0.0
H1021 H 0.82849 0.99793 0.35188 0.0
C1022 C 0.75539 0.92401 0.3842 0.0
C1023 C 0.74464 0.91656 0.4017 0.0
C1024 C 0.75485 0.92985 0.41779 0.0
C1025 C 0.77544 0.9502 0.41663 0.0
C1026 C 0.78543 0.95736 0.39923 0.0
C1027 C 0.7757 0.94491 0.38326 0.0
C1028 C 0.78932 0.95754 0.36629 0.0
C1029 C 0.80611 0.93561 0.35564 0.0
C1030 C 0.76766 0.97151 0.35375 0.0
C1031 C 0.8082 0.97887 0.37528 0.0
C1032 C 0.80576 0.97814 0.39431 0.0
C1033 C 0.82149 0.99526 0.40575 0.0
C1034 C 0.84033 0.01364 0.39753 0.0
C1035 C 0.84299 0.01505 0.37806 0.0
C1036 C 0.8266 0.9975 0.36681 0.0
H1037 H 0.75748 0.0787 0.10414 0.0
H1038 H 0.73813 0.12075 0.15556 0.0
H1039 H 0.77072 0.08964 0.17221 0.0
H1040 H 0.76444 0.01028 0.12178 0.0
H1041 H 0.79341 1.00138 0.10718 0.0
H1042 H 0.76849 0.02673 0.09955 0.0
H1043 H 0.80787 0.06262 0.09477 0.0
H1044 H 0.83296 0.03734 0.10231 0.0
H1045 H 0.83089 0.07056 0.11369 0.0
H1046 H 0.80299 0.05143 0.18329 0.0
H1047 H 0.83646 0.01296 0.18753 0.0
H1048 H 0.83761 0.99917 0.12827 0.0
C1049 C 0.76013 0.08134 0.11892 0.0
C1050 C 0.74519 0.10183 0.12869 0.0
C1051 C 0.74945 0.10508 0.14791 0.0
C1052 C 0.7678 0.08748 0.15744 0.0
C1053 C 0.78207 0.06726 0.1474 0.0
C1054 C 0.77881 0.06449 0.1285 0.0
C1055 C 0.79722 0.04183 0.12078 0.0
C1056 C 0.77984 0.01869 0.1118 0.0
C1057 C 0.8185 0.05381 0.10708 0.0
C1058 C 0.81107 0.03187 0.13833 0.0
C1059 C 0.80184 0.04657 0.15358 0.0
C1060 C 0.81064 0.04008 0.17143 0.0
C1061 C 0.82952 0.01816 0.1737 0.0
C1062 C 0.83971 1.00339 0.1582 0.0
C1063 C 0.83042 0.01044 0.14031 0.0
H1064 H 0.7385 0.43927 0.61526 0.0
H1065 H 0.78713 0.36409 0.60892 0.0
H1066 H 0.82992 0.39069 0.61545 0.0
H1067 H 0.78626 0.4855 0.59391 0.0
H1068 H 0.7798 0.51374 0.60968 0.0
H1069 H 0.75294 0.48872 0.60503 0.0
H1070 H 0.74856 0.47822 0.64007 0.0
H1071 H 0.77518 0.50344 0.64485 0.0
H1072 H 0.77897 0.46828 0.65297 0.0
H1073 H 0.86749 0.42589 0.62174 0.0
H1074 H 0.89678 0.46639 0.62935 0.0
H1075 H 0.82342 0.51845 0.63173 0.0
C1076 C 0.75813 0.42834 0.61539 0.0
C1077 C 0.75953 0.3996 0.61161 0.0
C1078 C 0.78559 0.38607 0.61188 0.0
C1079 C 0.80999 0.40102 0.61549 0.0
C1080 C 0.80792 0.42944 0.61888 0.0
C1081 C 0.78262 0.44291 0.61905 0.0
C1082 C 0.78603 0.47354 0.62319 0.0
C1083 C 0.77564 0.49142 0.60698 0.0
C1084 C 0.77131 0.48132 0.64135 0.0
C1085 C 0.81724 0.47529 0.62515 0.0
C1086 C 0.82949 0.44964 0.62259 0.0
C1087 C 0.85811 0.44606 0.62382 0.0
C1088 C 0.87458 0.4692 0.62808 0.0
C1089 C 0.8624 0.49557 0.63108 0.0
C1090 C 0.83336 0.4986 0.6294 0.0
H1091 H 0.83624 0.50223 0.8811 0.0
H1092 H 0.83295 0.50988 0.82137 0.0
H1093 H 0.79895 0.54801 0.82432 0.0
H1094 H 0.76348 0.51256 0.88821 0.0
H1095 H 0.7677 0.53154 0.90951 0.0
H1096 H 0.79317 0.50616 0.90275 0.0
H1097 H 0.83181 0.54338 0.90511 0.0
H1098 H 0.80644 0.56887 0.9119 0.0
H1099 H 0.82852 0.57524 0.89222 0.0
H1100 H 0.7657 0.58587 0.83385 0.0
H1101 H 0.73282 0.61798 0.84925 0.0
H1102 H 0.75524 0.58312 0.9025 0.0
C1103 C 0.82853 0.51216 0.86868 0.0
C1104 C 0.83734 0.50335 0.85101 0.0
C1105 C 0.82645 0.51641 0.83504 0.0
C1106 C 0.80721 0.53812 0.83657 0.0
C1107 C 0.79878 0.54625 0.85419 0.0
C1108 C 0.80886 0.53349 0.86996 0.0
C1109 C 0.79524 0.54513 0.88717 0.0
C1110 C 0.77893 0.5225 0.89752 0.0
C1111 C 0.81679 0.55898 0.89985 0.0
C1112 C 0.77599 0.5664 0.87862 0.0
C1113 C 0.7786 0.56702 0.85959 0.0
C1114 C 0.76335 0.58546 0.84873 0.0
C1115 C 0.74479 0.60363 0.85756 0.0
C1116 C 0.74137 0.60281 0.87699 0.0
C1117 C 0.75722 0.58396 0.88758 0.0
H1118 H 0.739 0.61419 0.10628 0.0
H1119 H 0.81293 0.5791 0.13125 0.0
H1120 H 0.78544 0.53951 0.1428 0.0
H1121 H 0.68983 0.59216 0.1421 0.0
H1122 H 0.66286 0.5843 0.12566 0.0
H1123 H 0.68789 0.61101 0.12059 0.0
H1124 H 0.70042 0.58608 0.08995 0.0
H1125 H 0.67562 0.55919 0.09499 0.0
H1126 H 0.71132 0.5503 0.09054 0.0
H1127 H 0.75072 0.5031 0.15064 0.0
H1128 H 0.71062 0.47185 0.15442 0.0
H1129 H 0.65921 0.52938 0.12345 0.0
C1130 C 0.74924 0.59841 0.11447 0.0
C1131 C 0.77802 0.59976 0.11804 0.0
C1132 C 0.79087 0.57847 0.12845 0.0
C1133 C 0.77545 0.55593 0.13506 0.0
C1134 C 0.74723 0.5549 0.13103 0.0
C1135 C 0.73419 0.57554 0.121 0.0
C1136 C 0.70386 0.56865 0.11786 0.0
C1137 C 0.685 0.59032 0.12711 0.0
C1138 C 0.69744 0.56589 0.0971 0.0
C1139 C 0.702 0.54084 0.12758 0.0
C1140 C 0.72724 0.53344 0.13517 0.0
C1141 C 0.73082 0.50868 0.1448 0.0
C1142 C 0.70794 0.49105 0.14684 0.0
C1143 C 0.68186 0.49815 0.13918 0.0
C1144 C 0.67894 0.52335 0.12937 0.0
H1145 H 0.73074 0.40292 0.38861 0.0
H1146 H 0.80146 0.4283 0.35552 0.0
H1147 H 0.77404 0.467 0.34266 0.0
H1148 H 0.67712 0.42066 0.35438 0.0
H1149 H 0.65323 0.43284 0.37177 0.0
H1150 H 0.67779 0.40591 0.3773 0.0
H1151 H 0.69603 0.4354 0.40468 0.0
H1152 H 0.67176 0.46254 0.39912 0.0
H1153 H 0.70831 0.47016 0.40043 0.0
H1154 H 0.74033 0.50477 0.33513 0.0
H1155 H 0.70147 0.53773 0.33196 0.0
H1156 H 0.65229 0.48788 0.36974 0.0
C1157 C 0.74027 0.4163 0.37839 0.0
C1158 C 0.76819 0.41253 0.37298 0.0
C1159 C 0.78006 0.43072 0.35978 0.0
C1160 C 0.76467 0.4528 0.35243 0.0
C1161 C 0.73742 0.45634 0.35837 0.0
C1162 C 0.72519 0.43847 0.37091 0.0
C1163 C 0.69585 0.44753 0.37545 0.0
C1164 C 0.67475 0.42542 0.36936 0.0
C1165 C 0.69283 0.45431 0.39615 0.0
C1166 C 0.69364 0.47346 0.36368 0.0
C1167 C 0.71787 0.47814 0.35395 0.0
C1168 C 0.72117 0.5012 0.34255 0.0
C1169 C 0.69901 0.51987 0.34091 0.0
C1170 C 0.67386 0.51535 0.35058 0.0
C1171 C 0.67123 0.49183 0.36213 0.0
H1172 H 0.19588 0.47761 0.35876 0.0
H1173 H 0.11948 0.52179 0.37057 0.0
H1174 H 0.14659 0.56297 0.38 0.0
H1175 H 0.23473 0.50589 0.39764 0.0
H1176 H 0.26686 0.50745 0.38492 0.0
H1177 H 0.24136 0.48149 0.37926 0.0
H1178 H 0.24114 0.49856 0.34526 0.0
H1179 H 0.26643 0.52475 0.35086 0.0
H1180 H 0.23395 0.53454 0.34039 0.0
H1181 H 0.18186 0.60012 0.38631 0.0
H1182 H 0.22301 0.62921 0.39245 0.0
H1183 H 0.27662 0.56009 0.37819 0.0
C1184 C 0.18488 0.49589 0.36346 0.0
C1185 C 0.15559 0.49659 0.36391 0.0
C1186 C 0.14192 0.52081 0.37021 0.0
C1187 C 0.15713 0.54433 0.3755 0.0
C1188 C 0.18598 0.54312 0.37463 0.0
C1189 C 0.19975 0.51939 0.36906 0.0
C1190 C 0.23092 0.52338 0.36974 0.0
C1191 C 0.24425 0.50337 0.38373 0.0
C1192 C 0.24386 0.52012 0.35041 0.0
C1193 C 0.23252 0.55316 0.37637 0.0
C1194 C 0.20635 0.56423 0.37893 0.0
C1195 C 0.20246 0.59162 0.38452 0.0
C1196 C 0.22595 0.60801 0.38787 0.0
C1197 C 0.25296 0.59687 0.38583 0.0
C1198 C 0.25621 0.56911 0.37993 0.0
H1199 H 0.2655 0.41967 0.13397 0.0
H1200 H 0.28639 0.45059 0.07929 0.0
H1201 H 0.25356 0.48917 0.0833 0.0
H1202 H 0.19372 0.43539 0.13266 0.0
H1203 H 0.19132 0.44657 0.1564 0.0
H1204 H 0.21727 0.42163 0.14972 0.0
H1205 H 0.25577 0.45329 0.16312 0.0
H1206 H 0.2299 0.47828 0.16994 0.0
H1207 H 0.25838 0.48876 0.15537 0.0
H1208 H 0.21557 0.52157 0.09167 0.0
H1209 H 0.1778 0.54928 0.10559 0.0
H1210 H 0.18362 0.50048 0.15585 0.0
C1211 C 0.26334 0.43476 0.12297 0.0
C1212 C 0.27847 0.4321 0.10632 0.0
C1213 C 0.27512 0.45225 0.09221 0.0
C1214 C 0.25645 0.47423 0.09431 0.0
C1215 C 0.24158 0.47611 0.11074 0.0
C1216 C 0.24508 0.45727 0.12498 0.0
C1217 C 0.22641 0.46433 0.14121 0.0
C1218 C 0.20597 0.44057 0.14522 0.0
C1219 C 0.24365 0.4716 0.15843 0.0
C1220 C 0.21155 0.48967 0.13366 0.0
C1221 C 0.2205 0.49591 0.11599 0.0
C1222 C 0.20869 0.51724 0.10562 0.0
C1223 C 0.18721 0.53276 0.11358 0.0
C1224 C 0.17815 0.52716 0.1318 0.0
C1225 C 0.19059 0.50545 0.142 0.0
H1226 H 0.35251 0.4819 0.87488 0.0
H1227 H 0.3005 0.54772 0.853 0.0
H1228 H 0.25909 0.5187 0.8579 0.0
H1229 H 0.31406 0.42501 0.85469 0.0
H1230 H 0.31837 0.40246 0.87438 0.0
H1231 H 0.34422 0.42834 0.86925 0.0
H1232 H 0.3389 0.44864 0.90225 0.0
H1233 H 0.31313 0.42275 0.9075 0.0
H1234 H 0.30506 0.45903 0.91029 0.0
H1235 H 0.22327 0.48342 0.86563 0.0
H1236 H 0.19495 0.44362 0.87583 0.0
H1237 H 0.26968 0.39969 0.89204 0.0
C1238 C 0.33239 0.49018 0.87117 0.0
C1239 C 0.32972 0.5171 0.86359 0.0
C1240 C 0.30306 0.52718 0.85884 0.0
C1241 C 0.27939 0.51084 0.86154 0.0
C1242 C 0.28269 0.4844 0.86895 0.0
C1243 C 0.30846 0.47405 0.8737 0.0
C1244 C 0.30605 0.44488 0.88146 0.0
C1245 C 0.3216 0.42393 0.86921 0.0
C1246 C 0.3164 0.44377 0.90157 0.0
C1247 C 0.27492 0.44059 0.8804 0.0
C1248 C 0.2619 0.4637 0.87314 0.0
C1249 C 0.2332 0.46513 0.87124 0.0
C1250 C 0.2173 0.44243 0.87707 0.0
C1251 C 0.23012 0.41854 0.88461 0.0
C1252 C 0.25935 0.41757 0.88612 0.0
H1253 H 0.35561 0.5124 0.62365 0.0
H1254 H 0.31822 0.48552 0.67528 0.0
H1255 H 0.28118 0.52019 0.67149 0.0
H1256 H 0.34021 0.58558 0.62841 0.0
H1257 H 0.33218 0.59045 0.60428 0.0
H1258 H 0.35647 0.56399 0.61117 0.0
H1259 H 0.32724 0.52684 0.5941 0.0
H1260 H 0.30294 0.55321 0.5871 0.0
H1261 H 0.29096 0.52315 0.5996 0.0
H1262 H 0.24819 0.5576 0.6624 0.0
H1263 H 0.21973 0.59387 0.64745 0.0
H1264 H 0.27728 0.59597 0.60127 0.0
C1265 C 0.33964 0.51391 0.63414 0.0
C1266 C 0.33982 0.49629 0.64976 0.0
C1267 C 0.31847 0.49872 0.66315 0.0
C1268 C 0.29737 0.51844 0.66118 0.0
C1269 C 0.29773 0.5355 0.64567 0.0
C1270 C 0.31813 0.53336 0.63229 0.0
C1271 C 0.31298 0.55369 0.61665 0.0
C1272 C 0.33688 0.57467 0.61504 0.0
C1273 C 0.30825 0.5383 0.59828 0.0
C1274 C 0.28658 0.56753 0.62339 0.0
C1275 C 0.27828 0.55684 0.64022 0.0
C1276 C 0.25444 0.56617 0.6492 0.0
C1277 C 0.23845 0.58679 0.64064 0.0
C1278 C 0.24628 0.59772 0.62324 0.0
C1279 C 0.27079 0.58804 0.61461 0.0
H1280 H 0.37592 0.17711 0.16313 0.0
H1281 H 0.34533 0.12803 0.11706 0.0
H1282 H 0.32704 0.17015 0.1024 0.0
H1283 H 0.31758 0.22793 0.16341 0.0
H1284 H 0.33987 0.25683 0.16883 0.0
H1285 H 0.34857 0.2225 0.17688 0.0
H1286 H 0.39661 0.2263 0.16105 0.0
H1287 H 0.38804 0.26055 0.15292 0.0
H1288 H 0.39846 0.23413 0.13669 0.0
H1289 H 0.31677 0.21679 0.09085 0.0
H1290 H 0.31283 0.26657 0.08358 0.0
H1291 H 0.34757 0.28725 0.13717 0.0
C1292 C 0.36489 0.17526 0.15015 0.0
C1293 C 0.36204 0.14923 0.14126 0.0
C1294 C 0.34782 0.14768 0.12414 0.0
C1295 C 0.33725 0.17151 0.1157 0.0
C1296 C 0.34083 0.19685 0.12456 0.0
C1297 C 0.35404 0.19904 0.14146 0.0
C1298 C 0.35615 0.22926 0.14736 0.0
C1299 C 0.33955 0.23443 0.16518 0.0
C1300 C 0.38663 0.23807 0.14963 0.0
C1301 C 0.34275 0.24358 0.13089 0.0
C1302 C 0.33404 0.22431 0.11797 0.0
C1303 C 0.32299 0.23211 0.10097 0.0
C1304 C 0.32094 0.2604 0.09694 0.0
C1305 C 0.32957 0.28061 0.1099 0.0
C1306 C 0.34025 0.27214 0.12722 0.0
H1307 H 0.1078 0.13728 0.37486 0.0
H1308 H 0.10849 0.11355 0.43277 0.0
H1309 H 0.06074 0.0954 0.42968 0.0
H1310 H 0.03617 0.15976 0.37377 0.0
H1311 H 0.03023 0.147 0.35068 0.0
H1312 H 0.06444 0.15801 0.35748 0.0
H1313 H 0.08412 0.11003 0.348 0.0
H1314 H 0.04996 0.09883 0.34125 0.0
H1315 H 0.06944 0.07899 0.35791 0.0
H1316 H 0.0135 0.07845 0.41998 0.0
H1317 H 0.96906 0.06657 0.40495 0.0
H1318 H 0.99847 0.10281 0.35361 0.0
C1319 C 0.09787 0.12832 0.38691 0.0
C1320 C 0.11187 0.12675 0.40406 0.0
C1321 C 0.09813 0.11501 0.41951 0.0
C1322 C 0.07105 0.10458 0.41787 0.0
C1323 C 0.05791 0.10627 0.40073 0.0
C1324 C 0.07076 0.11807 0.38556 0.0
C1325 C 0.0519 0.11771 0.36878 0.0
C1326 C 0.04529 0.14738 0.3623 0.0
C1327 C 0.06462 0.10035 0.35306 0.0
C1328 C 0.0265 0.10368 0.37684 0.0
C1329 C 0.03046 0.09711 0.39526 0.0
C1330 C 0.01012 0.08363 0.40559 0.0
C1331 C 0.98497 0.07689 0.39692 0.0
C1332 C 0.98028 0.08381 0.37813 0.0
C1333 C 1.00141 0.09735 0.368 0.0
H1334 H 0.13217 0.85831 0.61959 0.0
H1335 H 0.14422 0.85308 0.67896 0.0
H1336 H 0.1626 0.80541 0.67536 0.0
H1337 H 0.10942 0.78801 0.61334 0.0
H1338 H 0.12651 0.784 0.59132 0.0
H1339 H 0.11493 0.81777 0.59867 0.0
H1340 H 0.16472 0.837 0.59438 0.0
H1341 H 0.17649 0.80325 0.58709 0.0
H1342 H 0.19322 0.8205 0.60619 0.0
H1343 H 0.18003 0.75818 0.66504 0.0
H1344 H 0.19276 0.71455 0.64908 0.0
H1345 H 0.16826 0.75079 0.59662 0.0
C1346 C 0.13871 0.84717 0.63184 0.0
C1347 C 0.13686 0.85941 0.64956 0.0
C1348 C 0.14546 0.84407 0.66525 0.0
C1349 C 0.15599 0.81703 0.66334 0.0
C1350 C 0.15765 0.80561 0.64564 0.0
C1351 C 0.14907 0.82016 0.63019 0.0
C1352 C 0.15238 0.80302 0.61277 0.0
C1353 C 0.12413 0.7979 0.60349 0.0
C1354 C 0.17293 0.81676 0.59932 0.0
C1355 C 0.16417 0.77653 0.6208 0.0
C1356 C 0.16723 0.77845 0.63977 0.0
C1357 C 0.17771 0.75647 0.65019 0.0
C1358 C 0.18495 0.73181 0.64101 0.0
C1359 C 0.18153 0.7293 0.62162 0.0
C1360 C 0.17116 0.75208 0.61145 0.0
H1361 H 0.51609 0.93674 0.8859 0.0
H1362 H 0.51115 0.91932 0.82709 0.0
H1363 H 0.4626 0.90409 0.83093 0.0
H1364 H 0.47738 0.87774 0.90034 0.0
H1365 H 0.46013 0.89514 0.91918 0.0
H1366 H 0.49385 0.90667 0.91171 0.0
H1367 H 0.4746 0.95628 0.90662 0.0
H1368 H 0.44081 0.94492 0.91413 0.0
H1369 H 0.44488 0.96127 0.89187 0.0
H1370 H 0.41541 0.88945 0.84111 0.0
H1371 H 0.3726 0.8751 0.85709 0.0
H1372 H 0.40807 0.90049 0.90963 0.0
C1373 C 0.50462 0.93009 0.8738 0.0
C1374 C 0.51727 0.9294 0.85616 0.0
C1375 C 0.50181 0.92009 0.84072 0.0
C1376 C 0.47423 0.91144 0.84275 0.0
C1377 C 0.46244 0.91207 0.86035 0.0
C1378 C 0.4771 0.92107 0.87563 0.0
C1379 C 0.45989 0.91835 0.89312 0.0
C1380 C 0.47364 0.89828 0.9069 0.0
C1381 C 0.45474 0.94691 0.90195 0.0
C1382 C 0.43335 0.90624 0.88527 0.0
C1383 C 0.43526 0.90301 0.86632 0.0
C1384 C 0.41362 0.89195 0.85594 0.0
C1385 C 0.38938 0.88385 0.86516 0.0
C1386 C 0.38698 0.88667 0.8846 0.0
C1387 C 0.40928 0.89812 0.89475 0.0
H1388 H 0.35157 0.74086 0.40261 0.0
H1389 H 0.31242 0.71053 0.35249 0.0
H1390 H 0.32338 0.75482 0.33683 0.0
H1391 H 0.3288 0.81215 0.39845 0.0
H1392 H 0.36076 0.82618 0.40737 0.0
H1393 H 0.34921 0.79235 0.41464 0.0
H1394 H 0.39604 0.77125 0.40404 0.0
H1395 H 0.40766 0.80499 0.39662 0.0
H1396 H 0.40751 0.7764 0.38055 0.0
H1397 H 0.33948 0.80226 0.32649 0.0
H1398 H 0.35832 0.84965 0.32256 0.0
H1399 H 0.38713 0.8486 0.37942 0.0
C1400 C 0.34512 0.7436 0.38838 0.0
C1401 C 0.33107 0.72229 0.37877 0.0
C1402 C 0.32312 0.72663 0.36013 0.0
C1403 C 0.32931 0.75168 0.35111 0.0
C1404 C 0.34344 0.77217 0.36093 0.0
C1405 C 0.35115 0.76844 0.37917 0.0
C1406 C 0.36635 0.7936 0.38657 0.0
C1407 C 0.35031 0.80685 0.40271 0.0
C1408 C 0.39616 0.7861 0.39228 0.0
C1409 C 0.36606 0.81207 0.36963 0.0
C1410 C 0.35277 0.79935 0.35497 0.0
C1411 C 0.34991 0.81243 0.33788 0.0
C1412 C 0.36072 0.8393 0.33576 0.0
C1413 C 0.37423 0.85277 0.35066 0.0
C1414 C 0.37699 0.83882 0.36775 0.0
H1415 H 0.42021 0.11365 0.59823 0.0
H1416 H 0.38959 0.14872 0.64966 0.0
H1417 H 0.4331 0.1356 0.6652 0.0
H1418 H 0.45578 0.05503 0.61886 0.0
H1419 H 0.48465 0.05627 0.60303 0.0
H1420 H 0.45096 0.06819 0.59574 0.0
H1421 H 0.47191 0.11587 0.58684 0.0
H1422 H 0.50567 0.10405 0.59402 0.0
H1423 H 0.49121 0.13524 0.60386 0.0
H1424 H 0.47978 0.1199 0.67514 0.0
H1425 H 0.52761 0.10274 0.67888 0.0
H1426 H 0.52854 0.07673 0.62139 0.0
C1427 C 0.42271 0.11856 0.61275 0.0
C1428 C 0.4015 0.13223 0.62274 0.0
C1429 C 0.40553 0.13826 0.64173 0.0
C1430 C 0.43016 0.13086 0.6507 0.0
C1431 C 0.4506 0.11732 0.64053 0.0
C1432 C 0.44724 0.1112 0.62199 0.0
C1433 C 0.47274 0.09671 0.61433 0.0
C1434 C 0.4656 0.0673 0.6076 0.0
C1435 C 0.48617 0.114 0.59885 0.0
C1436 C 0.49094 0.09585 0.63145 0.0
C1437 C 0.47766 0.10786 0.64638 0.0
C1438 C 0.49037 0.11031 0.66358 0.0
C1439 C 0.51754 0.1005 0.66557 0.0
C1440 C 0.53171 0.08828 0.65047 0.0
C1441 C 0.51808 0.08569 0.63323 0.0
H1442 H 0.13304 0.14634 0.88329 0.0
H1443 H 0.15177 0.1505 0.82465 0.0
H1444 H 0.17021 0.19798 0.8288 0.0
H1445 H 0.10914 0.21519 0.88753 0.0
H1446 H 0.12339 0.22063 0.91029 0.0
H1447 H 0.11395 0.18621 0.90297 0.0
H1448 H 0.16373 0.16896 0.91008 0.0
H1449 H 0.17333 0.20336 0.91744 0.0
H1450 H 0.19294 0.18619 0.89957 0.0
H1451 H 0.18431 0.24602 0.83913 0.0
H1452 H 0.19185 0.29113 0.85467 0.0
H1453 H 0.16323 0.25561 0.90643 0.0
C1454 C 0.14141 0.15708 0.87137 0.0
C1455 C 0.14115 0.14469 0.85366 0.0
C1456 C 0.15187 0.15958 0.83836 0.0
C1457 C 0.16243 0.18653 0.84059 0.0
C1458 C 0.1621 0.19828 0.85821 0.0
C1459 C 0.15186 0.18403 0.87334 0.0
C1460 C 0.15242 0.20187 0.89059 0.0
C1461 C 0.12297 0.20623 0.89829 0.0
C1462 C 0.17176 0.18934 0.90528 0.0
C1463 C 0.16421 0.22852 0.88276 0.0
C1464 C 0.1699 0.22598 0.8641 0.0
C1465 C 0.18012 0.24818 0.85377 0.0
C1466 C 0.18434 0.27371 0.86271 0.0
C1467 C 0.17822 0.27685 0.88175 0.0
C1468 C 0.1683 0.25381 0.89188 0.0
H1469 H 0.08792 0.86164 0.11849 0.0
H1470 H 0.11504 0.94041 0.09575 0.0
H1471 H 0.06964 0.96115 0.10364 0.0
H1472 H 0.01496 0.86659 0.1044 0.0
H1473 H 1.00259 0.85089 0.12548 0.0
H1474 H 0.03622 0.84173 0.11649 0.0
H1475 H 0.05866 0.85536 0.14777 0.0
H1476 H 0.02516 0.86473 0.1568 0.0
H1477 H 0.05301 0.88968 0.15695 0.0
H1478 H 0.02208 0.97389 0.11552 0.0
H1479 H 0.97621 0.97769 0.13066 0.0
H1480 H 0.98091 0.89091 0.14641 0.0
C1481 C 0.0841 0.8831 0.11485 0.0
C1482 C 0.10487 0.89938 0.10636 0.0
C1483 C 0.09932 0.92755 0.10216 0.0
C1484 C 0.07361 0.93949 0.10659 0.0
C1485 C 0.05373 0.92301 0.11527 0.0
C1486 C 0.05866 0.89541 0.11933 0.0
C1487 C 0.03446 0.88265 0.12964 0.0
C1488 C 0.02128 0.85907 0.11832 0.0
C1489 C 0.04336 0.87252 0.14893 0.0
C1490 C 0.01528 0.90746 0.13094 0.0
C1491 C 0.02665 0.93048 0.12243 0.0
C1492 C 0.01292 0.95596 0.12214 0.0
C1493 C 0.98691 0.95793 0.1308 0.0
C1494 C 0.97504 0.93463 0.13972 0.0
C1495 C 0.98946 0.9091 0.1397 0.0
H1496 H 0.67264 0.74087 0.86708 0.0
H1497 H 0.66053 0.74587 0.9265 0.0
H1498 H 0.6488 0.7954 0.92364 0.0
H1499 H 0.70199 0.81024 0.86083 0.0
H1500 H 0.68417 0.81648 0.83931 0.0
H1501 H 0.69327 0.78157 0.8459 0.0
H1502 H 0.64193 0.7666 0.84259 0.0
H1503 H 0.63268 0.80143 0.83597 0.0
H1504 H 0.61551 0.78507 0.85525 0.0
H1505 H 0.6376 0.84355 0.91477 0.0
H1506 H 0.62497 0.88781 0.90016 0.0
H1507 H 0.64244 0.85281 0.84602 0.0
C1508 C 0.66775 0.75252 0.87946 0.0
C1509 C 0.66762 0.73954 0.89704 0.0
C1510 C 0.66075 0.75534 0.91291 0.0
C1511 C 0.65415 0.78353 0.91144 0.0
C1512 C 0.65431 0.79569 0.89398 0.0
C1513 C 0.66074 0.78078 0.87822 0.0
C1514 C 0.65796 0.79887 0.86108 0.0
C1515 C 0.68602 0.80197 0.8512 0.0
C1516 C 0.63569 0.7873 0.84795 0.0
C1517 C 0.6488 0.82614 0.86972 0.0
C1518 C 0.64714 0.82374 0.88873 0.0
C1519 C 0.63885 0.84574 0.89989 0.0
C1520 C 0.63172 0.87083 0.89142 0.0
C1521 C 0.6327 0.87385 0.87193 0.0
C1522 C 0.64161 0.85119 0.86095 0.0
H1523 H 0.01264 0.90973 0.6543 0.0
H1524 H 0.04232 0.94678 0.6033 0.0
H1525 H 0.99715 0.93678 0.58847 0.0
H1526 H 0.97517 0.85437 0.63364 0.0
H1527 H 0.94719 0.85532 0.65017 0.0
H1528 H 0.98137 0.86646 0.65687 0.0
H1529 H 0.96154 0.91403 0.66714 0.0
H1530 H 0.92726 0.90302 0.66049 0.0
H1531 H 0.94171 0.93441 0.65095 0.0
H1532 H 0.94899 0.92108 0.57897 0.0
H1533 H 0.90188 0.90128 0.57567 0.0
H1534 H 0.90409 0.87485 0.63303 0.0
C1535 C 0.0096 0.91593 0.64005 0.0
C1536 C 0.03097 0.92909 0.62995 0.0
C1537 C 0.0262 0.93675 0.6113 0.0
C1538 C 1.00062 0.93115 0.60277 0.0
C1539 C 0.98003 0.91796 0.6131 0.0
C1540 C 0.98425 0.91054 0.63136 0.0
C1541 C 0.95905 0.89609 0.63933 0.0
C1542 C 0.96613 0.86629 0.64535 0.0
C1543 C 0.94666 0.9129 0.65543 0.0
C1544 C 0.94004 0.89628 0.62268 0.0
C1545 C 0.95245 0.90905 0.60768 0.0
C1546 C 0.93904 0.91117 0.59065 0.0
C1547 C 0.9123 0.89986 0.58891 0.0
C1548 C 0.8993 0.8866 0.6041 0.0
C1549 C 0.91341 0.88498 0.62119 0.0
H1550 H 0.83138 0.2588 0.40474 0.0
H1551 H 0.81577 0.29337 0.35033 0.0
H1552 H 0.82615 0.24773 0.3362 0.0
H1553 H 0.88867 0.21831 0.39213 0.0
H1554 H 0.88042 0.18968 0.40721 0.0
H1555 H 0.8692 0.22419 0.41307 0.0
H1556 H 0.81831 0.20714 0.41511 0.0
H1557 H 0.8294 0.17249 0.40936 0.0
H1558 H 0.80308 0.18934 0.39568 0.0
H1559 H 0.84178 0.1989 0.32796 0.0
H1560 H 0.86055 0.15111 0.32641 0.0
H1561 H 0.86585 0.14907 0.3863 0.0
C1562 C 0.82964 0.25667 0.38987 0.0
C1563 C 0.8226 0.2796 0.37863 0.0
C1564 C 0.82095 0.27603 0.35921 0.0
C1565 C 0.82683 0.2502 0.35107 0.0
C1566 C 0.83422 0.22813 0.36255 0.0
C1567 C 0.83547 0.23111 0.38155 0.0
C1568 C 0.84529 0.20467 0.39078 0.0
C1569 C 0.87251 0.20951 0.40142 0.0
C1570 C 0.82267 0.1927 0.40348 0.0
C1571 C 0.84984 0.18644 0.374 0.0
C1572 C 0.84321 0.20023 0.35784 0.0
C1573 C 0.84677 0.18783 0.34055 0.0
C1574 C 0.85747 0.16071 0.3398 0.0
C1575 C 0.86455 0.14634 0.35623 0.0
C1576 C 0.86044 0.15942 0.3735 0.0
H1577 H 0.60548 0.13342 0.13442 0.0
H1578 H 0.60327 0.10832 0.07681 0.0
H1579 H 0.55513 0.09161 0.08091 0.0
H1580 H 0.56481 0.07703 0.15289 0.0
H1581 H 0.54692 0.09856 0.16943 0.0
H1582 H 0.58147 0.10755 0.16208 0.0
H1583 H 0.56419 0.15622 0.15206 0.0
H1584 H 0.52961 0.14739 0.15939 0.0
H1585 H 0.53569 0.15896 0.13603 0.0
H1586 H 0.50729 0.07706 0.09155 0.0
H1587 H 0.4625 0.06866 0.10734 0.0
H1588 H 0.4955 0.10549 0.15748 0.0
C1589 C 0.5949 0.12426 0.1227 0.0
C1590 C 0.6081 0.12197 0.10533 0.0
C1591 C 0.5935 0.11022 0.09025 0.0
C1592 C 0.56621 0.10062 0.09246 0.0
C1593 C 0.55376 0.10319 0.10978 0.0
C1594 C 0.56756 0.11495 0.1246 0.0
C1595 C 0.54918 0.11628 0.14157 0.0
C1596 C 0.56132 0.09881 0.15742 0.0
C1597 C 0.54439 0.14651 0.14761 0.0
C1598 C 0.52289 0.1034 0.134 0.0
C1599 C 0.526 0.09574 0.1157 0.0
C1600 C 0.50459 0.08308 0.10586 0.0
C1601 C 0.47927 0.07834 0.11494 0.0
C1602 C 0.47553 0.08653 0.13358 0.0
C1603 C 0.49771 0.09915 0.14318 0.0
H1604 H 0.68601 0.27202 0.62951 0.0
H1605 H 0.66216 0.26647 0.57175 0.0
H1606 H 0.65164 0.21674 0.57579 0.0
H1607 H 0.71684 0.20272 0.63349 0.0
H1608 H 0.7034 0.19696 0.65644 0.0
H1609 H 0.71117 0.2317 0.6488 0.0
H1610 H 0.66094 0.24689 0.65649 0.0
H1611 H 0.65303 0.21224 0.66417 0.0
H1612 H 0.63224 0.22827 0.64643 0.0
H1613 H 0.64211 0.16841 0.58608 0.0
H1614 H 0.6318 0.12471 0.60236 0.0
H1615 H 0.66028 0.1611 0.65391 0.0
C1616 C 0.67892 0.2602 0.61768 0.0
C1617 C 0.67507 0.27303 0.60027 0.0
C1618 C 0.66529 0.25705 0.5852 0.0
C1619 C 0.65936 0.22876 0.58733 0.0
C1620 C 0.66314 0.21676 0.60468 0.0
C1621 C 0.67255 0.23192 0.61964 0.0
C1622 C 0.67316 0.21422 0.63702 0.0
C1623 C 0.70292 0.21123 0.64437 0.0
C1624 C 0.65368 0.22612 0.6519 0.0
C1625 C 0.66236 0.18687 0.6295 0.0
C1626 C 0.65702 0.1888 0.61076 0.0
C1627 C 0.64632 0.16659 0.60073 0.0
C1628 C 0.64054 0.14182 0.61012 0.0
C1629 C 0.64528 0.13943 0.6294 0.0
C1630 C 0.65663 0.16223 0.63914 0.0
H1631 H 0.47493 0.91504 0.39036 0.0
H1632 H 0.49622 0.96277 0.34147 0.0
H1633 H 0.54582 0.95774 0.34881 0.0
H1634 H 0.53343 0.94046 0.42002 0.0
H1635 H 0.5384 0.90688 0.4305 0.0
H1636 H 0.50434 0.91737 0.42295 0.0
H1637 H 0.50085 0.87311 0.40276 0.0
H1638 H 0.5349 0.86258 0.41013 0.0
H1639 H 0.52739 0.86612 0.38581 0.0
H1640 H 0.59242 0.94284 0.35874 0.0
H1641 H 0.63402 0.92021 0.37153 0.0
H1642 H 0.58395 0.88249 0.41461 0.0
C1643 C 0.49006 0.92507 0.38153 0.0
C1644 C 0.48175 0.93947 0.36541 0.0
C1645 C 0.50212 0.95175 0.35392 0.0
C1646 C 0.53036 0.94906 0.35799 0.0
C1647 C 0.53795 0.93411 0.37366 0.0
C1648 C 0.51849 0.92249 0.38538 0.0
C1649 C 0.53248 0.90564 0.40049 0.0
C1650 C 0.52682 0.91835 0.41962 0.0
C1651 C 0.52336 0.87505 0.39974 0.0
C1652 C 0.56272 0.90893 0.39505 0.0
C1653 C 0.5653 0.92564 0.3796 0.0
C1654 C 0.59077 0.93015 0.37104 0.0
C1655 C 0.61425 0.9171 0.37835 0.0
C1656 C 0.6122 0.89984 0.39414 0.0
C1657 C 0.58615 0.89604 0.40275 0.0
H1658 H 0.84326 0.73397 0.13722 0.0
H1659 H 0.80256 0.7571 0.08598 0.0
H1660 H 0.80589 0.8065 0.09467 0.0
H1661 H 0.81358 0.79012 0.16648 0.0
H1662 H 0.84555 0.795 0.17898 0.0
H1663 H 0.83677 0.76125 0.16995 0.0
H1664 H 0.88349 0.7597 0.15226 0.0
H1665 H 0.89236 0.79342 0.16116 0.0
H1666 H 0.89213 0.78744 0.13655 0.0
H1667 H 0.81734 0.85307 0.10724 0.0
H1668 H 0.8369 0.89424 0.12269 0.0
H1669 H 0.87102 0.84166 0.1658 0.0
C1670 C 0.83445 0.74944 0.12808 0.0
C1671 C 0.8224 0.74176 0.11101 0.0
C1672 C 0.81174 0.76256 0.09916 0.0
C1673 C 0.81346 0.79066 0.10401 0.0
C1674 C 0.82596 0.79763 0.12074 0.0
C1675 C 0.83626 0.77768 0.13264 0.0
C1676 C 0.85078 0.79096 0.14902 0.0
C1677 C 0.83577 0.78391 0.16718 0.0
C1678 C 0.88151 0.78237 0.14978 0.0
C1679 C 0.84762 0.82144 0.14422 0.0
C1680 C 0.83292 0.82476 0.12795 0.0
C1681 C 0.82857 0.85079 0.12011 0.0
C1682 C 0.83982 0.87404 0.12897 0.0
C1683 C 0.85534 0.87117 0.14549 0.0
C1684 C 0.85891 0.84452 0.15333 0.0
H1685 H 0.02784 0.11233 0.88116 0.0
H1686 H 0.00756 0.03619 0.85206 0.0
H1687 H 0.95851 0.04156 0.86106 0.0
H1688 H 0.97875 0.10304 0.9195 0.0
H1689 H 0.97009 0.1394 0.92059 0.0
H1690 H 1.00403 0.12877 0.91289 0.0
H1691 H 0.99726 0.15636 0.88248 0.0
H1692 H 0.96331 0.16702 0.89005 0.0
H1693 H 0.96739 0.1494 0.86822 0.0
H1694 H 0.91164 0.05633 0.87138 0.0
H1695 H 0.86936 0.07935 0.88276 0.0
H1696 H 0.91925 0.14602 0.90564 0.0
C1697 C 0.01311 0.09662 0.8769 0.0
C1698 C 0.02151 0.07376 0.86596 0.0
C1699 C 1.0016 0.05381 0.86047 0.0
C1700 C 0.9737 0.05666 0.86554 0.0
C1701 C 0.96602 0.07956 0.87613 0.0
C1702 C 0.98509 0.09917 0.88182 0.0
C1703 C 0.97104 0.12237 0.89252 0.0
C1704 C 0.98161 0.12344 0.91257 0.0
C1705 C 0.97498 0.15044 0.88273 0.0
C1706 C 0.94106 0.11289 0.8917 0.0
C1707 C 0.93875 0.08808 0.88222 0.0
C1708 C 0.91318 0.07562 0.87897 0.0
C1709 C 0.88928 0.08892 0.88546 0.0
C1710 C 0.89102 0.11441 0.89515 0.0
C1711 C 0.91732 0.1264 0.89846 0.0
H1712 H 0.84559 0.75059 0.59731 0.0
H1713 H 0.81648 0.78251 0.64997 0.0
H1714 H 0.82604 0.73699 0.66449 0.0
H1715 H 0.81818 0.68048 0.60264 0.0
H1716 H 0.84764 0.66463 0.59149 0.0
H1717 H 0.83717 0.69924 0.58516 0.0
H1718 H 0.88659 0.7173 0.59248 0.0
H1719 H 0.8972 0.68279 0.59886 0.0
H1720 H 0.90134 0.71098 0.61501 0.0
H1721 H 0.84139 0.68861 0.67357 0.0
H1722 H 0.86051 0.64116 0.67635 0.0
H1723 H 0.8788 0.64088 0.61758 0.0
C1724 C 0.84095 0.74794 0.61186 0.0
C1725 C 0.83023 0.77007 0.62252 0.0
C1726 C 0.82461 0.76581 0.64154 0.0
C1727 C 0.82997 0.74003 0.64989 0.0
C1728 C 0.8408 0.71871 0.63902 0.0
C1729 C 0.8461 0.72238 0.62038 0.0
C1730 C 0.85847 0.69645 0.61186 0.0
C1731 C 0.83921 0.6845 0.5969 0.0
C1732 C 0.88763 0.70224 0.6041 0.0
C1733 C 0.85967 0.6777 0.62865 0.0
C1734 C 0.84934 0.69088 0.64418 0.0
C1735 C 0.84929 0.67803 0.66146 0.0
C1736 C 0.86021 0.65109 0.66291 0.0
C1737 C 0.87098 0.63727 0.64717 0.0
C1738 C 0.87044 0.65077 0.62982 0.0
H1739 H 0.60246 0.63228 0.87123 0.0
H1740 H 0.61007 0.59582 0.92585 0.0
H1741 H 0.56433 0.57318 0.92191 0.0
H1742 H 0.53063 0.64773 0.87434 0.0
H1743 H 0.5236 0.64012 0.85038 0.0
H1744 H 0.5575 0.6519 0.85721 0.0
H1745 H 0.57949 0.60827 0.8422 0.0
H1746 H 0.54561 0.59629 0.83539 0.0
H1747 H 0.56775 0.57429 0.84912 0.0
H1748 H 0.51683 0.55545 0.91205 0.0
H1749 H 0.47095 0.54634 0.89787 0.0
H1750 H 0.49476 0.59537 0.8501 0.0
C1751 C 0.59463 0.61935 0.88232 0.0
C1752 C 0.60986 0.61568 0.89882 0.0
C1753 C 0.59875 0.59886 0.91308 0.0
C1754 C 0.57284 0.58586 0.91094 0.0
C1755 C 0.55831 0.58997 0.89448 0.0
C1756 C 0.5688 0.60642 0.88046 0.0
C1757 C 0.54866 0.60861 0.86448 0.0
C1758 C 0.53956 0.63888 0.86144 0.0
C1759 C 0.56113 0.59611 0.84675 0.0
C1760 C 0.52504 0.59102 0.87173 0.0
C1761 C 0.53103 0.5802 0.88897 0.0
C1762 C 0.51199 0.56374 0.89852 0.0
C1763 C 0.48603 0.55861 0.89035 0.0
C1764 C 0.47932 0.57009 0.87288 0.0
C1765 C 0.49929 0.5862 0.86344 0.0
H1766 H 0.64432 0.34755 0.15534 0.0
H1767 H 0.64668 0.38699 0.10133 0.0
H1768 H 0.66097 0.34291 0.08719 0.0
H1769 H 0.70455 0.30231 0.14769 0.0
H1770 H 0.68971 0.27342 0.16006 0.0
H1771 H 0.68053 0.30843 0.16637 0.0
H1772 H 0.62854 0.29668 0.16187 0.0
H1773 H 0.63756 0.26168 0.15553 0.0
H1774 H 0.617 0.28261 0.14008 0.0
H1775 H 0.67212 0.29466 0.07831 0.0
H1776 H 0.68146 0.24453 0.07542 0.0
H1777 H 0.67388 0.23537 0.13494 0.0
C1778 C 0.6481 0.3469 0.14058 0.0
C1779 C 0.64437 0.37079 0.12946 0.0
C1780 C 0.64941 0.36905 0.11017 0.0
C1781 C 0.65756 0.34408 0.10197 0.0
C1782 C 0.66082 0.32091 0.11321 0.0
C1783 C 0.65647 0.32199 0.1321 0.0
C1784 C 0.66111 0.29367 0.14081 0.0
C1785 C 0.68542 0.29452 0.15454 0.0
C1786 C 0.63446 0.28304 0.15012 0.0
C1787 C 0.66832 0.27659 0.1238 0.0
C1788 C 0.66797 0.29282 0.10806 0.0
C1789 C 0.67276 0.28174 0.09055 0.0
C1790 C 0.67798 0.25325 0.08904 0.0
C1791 C 0.67859 0.23614 0.10494 0.0
C1792 C 0.6739 0.24805 0.12257 0.0
H1793 H 0.90173 0.41697 0.39022 0.0
H1794 H 0.91537 0.33202 0.408 0.0
H1795 H 0.96466 0.33587 0.39934 0.0
H1796 H 0.94425 0.41545 0.35123 0.0
H1797 H 0.95811 0.44998 0.35382 0.0
H1798 H 0.92437 0.4418 0.36298 0.0
H1799 H 0.93977 0.45827 0.3955 0.0
H1800 H 0.97352 0.46681 0.38639 0.0
H1801 H 0.97047 0.44361 0.40584 0.0
H1802 H 0.01034 0.34654 0.38523 0.0
H1803 H 0.05171 0.36517 0.36952 0.0
H1804 H 0.01034 0.44442 0.36242 0.0
C1805 C 0.91526 0.39941 0.39266 0.0
C1806 C 0.90474 0.37419 0.39982 0.0
C1807 C 0.923 0.35158 0.40266 0.0
C1808 C 0.95103 0.35354 0.39773 0.0
C1809 C 0.96059 0.37841 0.39026 0.0
C1810 C 0.94347 0.40115 0.38805 0.0
C1811 C 0.959 0.42514 0.37919 0.0
C1812 C 0.94563 0.43357 0.36071 0.0
C1813 C 0.9608 0.44993 0.39253 0.0
C1814 C 0.98725 0.41199 0.37624 0.0
C1815 C 0.98759 0.38498 0.38272 0.0
C1816 C 0.01053 0.36781 0.38043 0.0
C1817 C 0.03385 0.37852 0.37138 0.0
C1818 C 0.03424 0.40625 0.3649 0.0
C1819 C 0.0107 0.42328 0.3675 0.0
H1820 H 0.87591 0.33796 0.8427 0.0
H1821 H 0.82431 0.3884 0.87862 0.0
H1822 H 0.80392 0.34607 0.89209 0.0
H1823 H 0.82505 0.28123 0.83531 0.0
H1824 H 0.85133 0.25465 0.83598 0.0
H1825 H 0.85981 0.28887 0.82764 0.0
H1826 H 0.89945 0.29222 0.85171 0.0
H1827 H 0.89103 0.25813 0.86018 0.0
H1828 H 0.89174 0.28717 0.87588 0.0
H1829 H 0.79205 0.29901 0.9036 0.0
H1830 H 0.78895 0.24965 0.91232 0.0
H1831 H 0.84813 0.22877 0.86924 0.0
C1832 C 0.85985 0.34003 0.85309 0.0
C1833 C 0.85151 0.36647 0.85953 0.0
C1834 C 0.83092 0.36837 0.87344 0.0
C1835 C 0.81918 0.34444 0.88116 0.0
C1836 C 0.82823 0.3187 0.87483 0.0
C1837 C 0.848 0.31625 0.86107 0.0
C1838 C 0.85531 0.286 0.85773 0.0
C1839 C 0.84739 0.27717 0.83799 0.0
C1840 C 0.88621 0.28057 0.86161 0.0
C1841 C 0.83696 0.27197 0.872 0.0
C1842 C 0.82139 0.29127 0.88159 0.0
C1843 C 0.80388 0.28365 0.89605 0.0
C1844 C 0.80232 0.25556 0.90093 0.0
C1845 C 0.81817 0.23536 0.8914 0.0
C1846 C 0.83551 0.24371 0.87662 0.0
H1847 H 0.02275 0.61804 0.14896 0.0
H1848 H 0.04208 0.5539 0.10883 0.0
H1849 H 0.99794 0.56343 0.09266 0.0
H1850 H 0.94926 0.60451 0.1515 0.0
H1851 H 0.9401 0.64063 0.15368 0.0
H1852 H 0.97312 0.62855 0.16207 0.0
H1853 H 0.99809 0.66506 0.14168 0.0
H1854 H 0.96515 0.67713 0.13312 0.0
H1855 H 0.99152 0.66581 0.11713 0.0
H1856 H 0.95176 0.58019 0.08077 0.0
H1857 H 0.90621 0.60188 0.07466 0.0
H1858 H 0.91726 0.65522 0.12247 0.0
C1859 C 0.01763 0.6059 0.13682 0.0
C1860 C 0.03581 0.58519 0.13016 0.0
C1861 C 0.02842 0.56983 0.1142 0.0
C1862 C 1.00344 0.57514 0.1049 0.0
C1863 C 0.98609 0.59588 0.11173 0.0
C1864 C 0.99281 0.61095 0.12737 0.0
C1865 C 0.97051 0.63203 0.1319 0.0
C1866 C 0.95748 0.62606 0.15091 0.0
C1867 C 0.98201 0.66177 0.13089 0.0
C1868 C 0.95019 0.62646 0.11637 0.0
C1869 C 0.95958 0.60557 0.10486 0.0
C1870 C 0.94421 0.59659 0.08968 0.0
C1871 C 0.9184 0.60907 0.08629 0.0
C1872 C 0.90826 0.63028 0.09804 0.0
C1873 C 0.92454 0.63917 0.11317 0.0
H1874 H 0.64487 0.66568 0.34164 0.0
H1875 H 0.6215 0.62749 0.3938 0.0
H1876 H 0.63196 0.67099 0.4101 0.0
H1877 H 0.70235 0.7068 0.36054 0.0
H1878 H 0.69567 0.73636 0.34593 0.0
H1879 H 0.68698 0.70196 0.33804 0.0
H1880 H 0.6363 0.7176 0.33244 0.0
H1881 H 0.6448 0.75201 0.34035 0.0
H1882 H 0.61694 0.73304 0.35115 0.0
H1883 H 0.64182 0.71837 0.42071 0.0
H1884 H 0.65341 0.76747 0.42562 0.0
H1885 H 0.67308 0.77631 0.3673 0.0
C1886 C 0.64216 0.6665 0.3565 0.0
C1887 C 0.63232 0.64313 0.36644 0.0
C1888 C 0.62904 0.64502 0.38587 0.0
C1889 C 0.6349 0.66967 0.39528 0.0
C1890 C 0.64432 0.69232 0.38514 0.0
C1891 C 0.64823 0.69105 0.36623 0.0
C1892 C 0.65855 0.71877 0.35885 0.0
C1893 C 0.68762 0.71578 0.35034 0.0
C1894 C 0.63791 0.73108 0.34487 0.0
C1895 C 0.65941 0.73579 0.37656 0.0
C1896 C 0.65097 0.71995 0.39148 0.0
C1897 C 0.64873 0.73095 0.4092 0.0
C1898 C 0.65527 0.75892 0.41182 0.0
C1899 C 0.66424 0.77568 0.39688 0.0
C1900 C 0.66657 0.76388 0.379 0.0
H1901 H 0.5935 0.39747 0.59364 0.0
H1902 H 0.63235 0.37545 0.6458 0.0
H1903 H 0.58972 0.38832 0.66241 0.0
H1904 H 0.55471 0.45722 0.61157 0.0
H1905 H 0.52462 0.45058 0.59747 0.0
H1906 H 0.55853 0.44046 0.58942 0.0
H1907 H 0.54135 0.38992 0.58526 0.0
H1908 H 0.50742 0.39988 0.5933 0.0
H1909 H 0.52583 0.37208 0.60459 0.0
H1910 H 0.54283 0.40051 0.67336 0.0
H1911 H 0.49399 0.41334 0.67836 0.0
H1912 H 0.48457 0.42978 0.61967 0.0
C1913 C 0.59303 0.39557 0.60856 0.0
C1914 C 0.6163 0.38543 0.61842 0.0
C1915 C 0.61487 0.38319 0.63794 0.0
C1916 C 0.59073 0.39045 0.64752 0.0
C1917 C 0.56815 0.40019 0.63745 0.0
C1918 C 0.56902 0.40299 0.61844 0.0
C1919 C 0.54146 0.41369 0.61111 0.0
C1920 C 0.54505 0.44218 0.60184 0.0
C1921 C 0.52824 0.39263 0.59778 0.0
C1922 C 0.52497 0.41603 0.62896 0.0
C1923 C 0.5409 0.40805 0.64393 0.0
C1924 C 0.5302 0.40709 0.66179 0.0
C1925 C 0.50241 0.41434 0.66448 0.0
C1926 C 0.48557 0.42272 0.64944 0.0
C1927 C 0.4971 0.42384 0.63145 0.0
H1928 H 0.14043 0.35902 0.38081 0.0
H1929 H 0.17295 0.35714 0.32485 0.0
H1930 H 0.19252 0.31048 0.33069 0.0
H1931 H 0.19757 0.32101 0.40313 0.0
H1932 H 0.17446 0.30277 0.41851 0.0
H1933 H 0.16563 0.33705 0.41047 0.0
H1934 H 0.11883 0.31837 0.39801 0.0
H1935 H 0.12756 0.28404 0.40588 0.0
H1936 H 0.1188 0.28975 0.38195 0.0
H1937 H 0.20524 0.26253 0.3419 0.0
H1938 H 0.21059 0.21731 0.35767 0.0
H1939 H 0.16927 0.25058 0.40617 0.0
C1940 C 0.15219 0.34907 0.3699 0.0
C1941 C 0.1554 0.36179 0.35241 0.0
C1942 C 0.17043 0.34784 0.33839 0.0
C1943 C 0.18161 0.32135 0.34158 0.0
C1944 C 0.17756 0.30914 0.35887 0.0
C1945 C 0.16331 0.32261 0.37282 0.0
C1946 C 0.1603 0.30432 0.38975 0.0
C1947 C 0.1754 0.31705 0.40645 0.0
C1948 C 0.12955 0.2988 0.39414 0.0
C1949 C 0.17472 0.27828 0.38307 0.0
C1950 C 0.18468 0.28151 0.36527 0.0
C1951 C 0.19778 0.25987 0.35591 0.0
C1952 C 0.20067 0.23425 0.36496 0.0
C1953 C 0.19045 0.23047 0.38316 0.0
C1954 C 0.17751 0.2529 0.39232 0.0
H1955 H 0.41082 0.37972 0.12581 0.0
H1956 H 0.41043 0.40502 0.06821 0.0
H1957 H 0.45752 0.42473 0.07196 0.0
H1958 H 0.44699 0.43867 0.1439 0.0
H1959 H 0.46662 0.41877 0.16045 0.0
H1960 H 0.43289 0.40696 0.15322 0.0
H1961 H 0.45392 0.35978 0.14321 0.0
H1962 H 0.48767 0.37136 0.15053 0.0
H1963 H 0.48257 0.35926 0.12719 0.0
H1964 H 0.50441 0.4427 0.08244 0.0
H1965 H 0.5486 0.45422 0.09809 0.0
H1966 H 0.51838 0.41556 0.14842 0.0
C1967 C 0.42064 0.3894 0.11397 0.0
C1968 C 0.40699 0.39096 0.09673 0.0
C1969 C 0.42058 0.40358 0.08153 0.0
C1970 C 0.44725 0.41492 0.08356 0.0
C1971 C 0.46006 0.41323 0.10082 0.0
C1972 C 0.44729 0.40052 0.1157 0.0
C1973 C 0.4657 0.40075 0.13264 0.0
C1974 C 0.45224 0.41728 0.14849 0.0
C1975 C 0.47289 0.37102 0.13874 0.0
C1976 C 0.49085 0.41564 0.12501 0.0
C1977 C 0.48715 0.42289 0.10668 0.0
C1978 C 0.50756 0.43703 0.09677 0.0
C1979 C 0.53252 0.44358 0.10578 0.0
C1980 C 0.5369 0.43574 0.12443 0.0
C1981 C 0.51566 0.42177 0.13413 0.0
H1982 H 0.32455 0.77177 0.87409 0.0
H1983 H 0.34451 0.7684 0.93258 0.0
H1984 H 0.35907 0.7196 0.92915 0.0
H1985 H 0.2992 0.70059 0.86955 0.0
H1986 H 0.31461 0.69556 0.84708 0.0
H1987 H 0.30396 0.72976 0.85425 0.0
H1988 H 0.35355 0.74821 0.84801 0.0
H1989 H 0.36437 0.71408 0.84087 0.0
H1990 H 0.3827 0.73176 0.85913 0.0
H1991 H 0.37235 0.67195 0.91955 0.0
H1992 H 0.38518 0.62824 0.90412 0.0
H1993 H 0.35861 0.66219 0.85139 0.0
C1994 C 0.33164 0.76058 0.88619 0.0
C1995 C 0.33322 0.77375 0.90364 0.0
C1996 C 0.34309 0.75867 0.9191 0.0
C1997 C 0.35135 0.73094 0.9173 0.0
C1998 C 0.34985 0.71863 0.89991 0.0
C1999 C 0.34037 0.7329 0.88458 0.0
C2000 C 0.34221 0.71503 0.86732 0.0
C2001 C 0.31327 0.70993 0.85907 0.0
C2002 C 0.36188 0.72805 0.85299 0.0
C2003 C 0.3543 0.68857 0.87537 0.0
C2004 C 0.35829 0.69112 0.89422 0.0
C2005 C 0.3693 0.66966 0.9048 0.0
C2006 C 0.37652 0.6449 0.89589 0.0
C2007 C 0.37293 0.64179 0.87655 0.0
C2008 C 0.36161 0.66397 0.86618 0.0
H2009 H 0.98848 0.61586 0.63057 0.0
H2010 H 0.99207 0.52782 0.61831 0.0
H2011 H 0.03848 0.53417 0.60427 0.0
H2012 H 0.02381 0.63886 0.58822 0.0
H2013 H 0.04154 0.66673 0.5999 0.0
H2014 H 0.00805 0.65537 0.60798 0.0
H2015 H 0.0285 0.64689 0.64065 0.0
H2016 H 0.06198 0.65825 0.63269 0.0
H2017 H 0.05824 0.62454 0.64321 0.0
H2018 H 0.08616 0.54985 0.59371 0.0
H2019 H 0.1306 0.57363 0.58713 0.0
H2020 H 0.09476 0.65154 0.60538 0.0
C2021 C 0.99893 0.59795 0.62478 0.0
C2022 C 0.98673 0.57133 0.62554 0.0
C2023 C 1.00102 0.54841 0.61781 0.0
C2024 C 0.02737 0.55183 0.6098 0.0
C2025 C 0.03893 0.57836 0.60941 0.0
C2026 C 0.02504 0.60105 0.61657 0.0
C2027 C 0.04222 0.62723 0.61486 0.0
C2028 C 0.02806 0.64829 0.60197 0.0
C2029 C 0.04808 0.63996 0.63399 0.0
C2030 C 0.06832 0.61562 0.60617 0.0
C2031 C 0.066 0.58743 0.60299 0.0
C2032 C 0.08805 0.57198 0.59591 0.0
C2033 C 0.1132 0.58565 0.5922 0.0
C2034 C 0.11606 0.61446 0.59559 0.0
C2035 C 0.09312 0.62958 0.6024 0.0
H2036 H 0.13677 0.65749 0.12129 0.0
H2037 H 0.15716 0.65899 0.17973 0.0
H2038 H 0.17404 0.70734 0.17643 0.0
H2039 H 0.19468 0.69863 0.10508 0.0
H2040 H 0.17437 0.71638 0.08781 0.0
H2041 H 0.16523 0.68163 0.0947 0.0
H2042 H 0.11559 0.69822 0.10292 0.0
H2043 H 0.12456 0.73298 0.09603 0.0
H2044 H 0.11112 0.72659 0.11891 0.0
H2045 H 0.18791 0.75599 0.16659 0.0
H2046 H 0.19571 0.80139 0.15151 0.0
H2047 H 0.16502 0.76787 0.0997 0.0
C2048 C 0.145 0.66788 0.13339 0.0
C2049 C 0.14583 0.65446 0.15077 0.0
C2050 C 0.15642 0.66889 0.16629 0.0
C2051 C 0.16609 0.6963 0.16452 0.0
C2052 C 0.16489 0.70895 0.14716 0.0
C2053 C 0.15449 0.6952 0.1319 0.0
C2054 C 0.15436 0.71368 0.11495 0.0
C2055 C 0.17329 0.70187 0.09974 0.0
C2056 C 0.12464 0.71813 0.10779 0.0
C2057 C 0.16621 0.7401 0.12304 0.0
C2058 C 0.17236 0.73692 0.1416 0.0
C2059 C 0.18322 0.75866 0.15206 0.0
C2060 C 0.18762 0.78436 0.14336 0.0
C2061 C 0.18101 0.78816 0.12443 0.0
C2062 C 0.17037 0.7656 0.11417 0.0
H2063 H 0.09034 0.36072 0.87659 0.0
H2064 H 0.10219 0.41449 0.92407 0.0
H2065 H 0.0554 0.43432 0.91924 0.0
H2066 H 0.05423 0.40943 0.84847 0.0
H2067 H 0.03098 0.38406 0.83873 0.0
H2068 H 0.06503 0.37376 0.84628 0.0
H2069 H 0.04328 0.3365 0.8677 0.0
H2070 H 0.00914 0.34665 0.86019 0.0
H2071 H 0.01754 0.34668 0.88448 0.0
H2072 H 0.00755 0.44932 0.90838 0.0
H2073 H 0.9624 0.45726 0.8929 0.0
H2074 H 0.98219 0.39297 0.853 0.0
C2075 C 0.08306 0.37658 0.88603 0.0
C2076 C 0.09989 0.38609 0.90071 0.0
C2077 C 0.08961 0.40687 0.91275 0.0
C2078 C 0.06308 0.41827 0.91011 0.0
C2079 C 0.04707 0.40853 0.89541 0.0
C2080 C 0.05666 0.38805 0.88364 0.0
C2081 C 0.03555 0.38129 0.86883 0.0
C2082 C 0.04714 0.38752 0.84944 0.0
C2083 C 0.0258 0.35098 0.8704 0.0
C2084 C 0.01264 0.40131 0.87398 0.0
C2085 C 0.01962 0.41688 0.88934 0.0
C2086 C 1.00183 0.43713 0.8964 0.0
C2087 C 0.97627 0.44152 0.88752 0.0
C2088 C 0.96877 0.42569 0.8718 0.0
C2089 C 0.98726 0.40532 0.86505 0.0
H2090 H 0.3327 0.23369 0.6403 0.0
H2091 H 0.3201 0.24969 0.58187 0.0
H2092 H 0.32855 0.29953 0.58704 0.0
H2093 H 0.3033 0.30051 0.65793 0.0
H2094 H 0.32933 0.30367 0.6757 0.0
H2095 H 0.31828 0.2698 0.66808 0.0
H2096 H 0.36924 0.25694 0.6607 0.0
H2097 H 0.38042 0.29078 0.66814 0.0
H2098 H 0.38902 0.27866 0.64525 0.0
H2099 H 0.34259 0.34604 0.59745 0.0
H2100 H 0.36182 0.38745 0.61255 0.0
H2101 H 0.36709 0.34262 0.66455 0.0
C2102 C 0.33091 0.2479 0.62876 0.0
C2103 C 0.32536 0.23801 0.61071 0.0
C2104 C 0.32411 0.25696 0.5958 0.0
C2105 C 0.32882 0.28529 0.59861 0.0
C2106 C 0.33496 0.29437 0.61642 0.0
C2107 C 0.33601 0.27637 0.6313 0.0
C2108 C 0.34563 0.29138 0.64865 0.0
C2109 C 0.32277 0.29134 0.66347 0.0
C2110 C 0.37268 0.27868 0.65611 0.0
C2111 C 0.35041 0.32039 0.64105 0.0
C2112 C 0.34376 0.32156 0.62247 0.0
C2113 C 0.34757 0.34551 0.61204 0.0
C2114 C 0.35863 0.36892 0.62076 0.0
C2115 C 0.36592 0.36833 0.63974 0.0
C2116 C 0.36145 0.34377 0.65007 0.0
H2117 H 0.5106 0.59736 0.34256 0.0
H2118 H 0.5356 0.53907 0.38514 0.0
H2119 H 0.48949 0.54372 0.39992 0.0
H2120 H 0.47353 0.64273 0.37161 0.0
H2121 H 0.44666 0.65011 0.355 0.0
H2122 H 0.48082 0.64064 0.34719 0.0
H2123 H 0.46004 0.60024 0.328 0.0
H2124 H 0.42576 0.60965 0.3357 0.0
H2125 H 0.43837 0.57485 0.33927 0.0
H2126 H 0.44142 0.5575 0.41117 0.0
H2127 H 0.39525 0.57813 0.41732 0.0
H2128 H 0.40211 0.62662 0.36696 0.0
C2129 C 0.50628 0.58527 0.35486 0.0
C2130 C 0.52665 0.56778 0.36269 0.0
C2131 C 0.52024 0.55249 0.37887 0.0
C2132 C 0.49413 0.55502 0.38736 0.0
C2133 C 0.47463 0.57279 0.37942 0.0
C2134 C 0.48038 0.58749 0.36345 0.0
C2135 C 0.4563 0.60588 0.35797 0.0
C2136 C 0.46485 0.63666 0.35795 0.0
C2137 C 0.44441 0.59712 0.33912 0.0
C2138 C 0.43621 0.59959 0.3735 0.0
C2139 C 0.44707 0.58043 0.38574 0.0
C2140 C 0.43262 0.5723 0.40156 0.0
C2141 C 0.40645 0.58414 0.40496 0.0
C2142 C 0.39504 0.60382 0.39257 0.0
C2143 C 0.41014 0.61141 0.3766 0.0
loop_
_geom_bond_atom_site_label_1
_geom_bond_atom_site_label_2
_geom_bond_distance
_geom_bond_site_symmetry_2
_ccdc_geom_bond_type
In0 O1 2.294 . S
In0 O2 2.326 . S
In0 O6 2.266 . S
In0 O7 2.326 . S
In0 O8 2.266 . S
In0 O9 2.326 . S
In0 O11 2.294 . S
In0 O12 2.326 . S
O1 In0 2.294 . S
O1 C10 1.240 . S
O2 In0 2.326 . S
O2 C10 1.252 . S
C3 O6 1.252 . S
C3 O7 1.260 . S
C4 O11 1.240 . S
C4 O12 1.252 . S
C5 O8 1.252 . S
C5 O9 1.260 . S
O6 In0 2.266 . S
O6 C3 1.252 . S
O7 In0 2.326 . S
O7 C3 1.260 . S
O8 In0 2.266 . S
O8 C5 1.252 . S
O9 In0 2.326 . S
O9 C5 1.260 . S
C10 O1 1.240 . S
C10 O2 1.252 . S
O11 In0 2.294 . S
O11 C4 1.240 . S
O12 In0 2.326 . S
O12 C4 1.252 . S
In13 O14 2.294 . S
In13 O15 2.326 . S
In13 O19 2.266 . S
In13 O20 2.326 . S
In13 O21 2.266 . S
In13 O22 2.326 . S
In13 O24 2.294 . S
In13 O25 2.326 . S
O14 In13 2.294 . S
O14 C23 1.240 . S
O15 In13 2.326 . S
O15 C23 1.252 . S
C16 O19 1.252 . S
C16 O20 1.260 . S
C17 O24 1.240 . S
C17 O25 1.252 . S
C18 O21 1.252 . S
C18 O22 1.260 . S
O19 In13 2.266 . S
O19 C16 1.252 . S
O20 In13 2.326 . S
O20 C16 1.260 . S
O21 In13 2.266 . S
O21 C18 1.252 . S
O22 In13 2.326 . S
O22 C18 1.260 . S
C23 O14 1.240 . S
C23 O15 1.252 . S
O24 In13 2.294 . S
O24 C17 1.240 . S
O25 In13 2.326 . S
O25 C17 1.252 . S
In26 O27 2.294 . S
In26 O28 2.326 . S
In26 O32 2.266 . S
In26 O33 2.326 . S
In26 O34 2.266 . S
In26 O35 2.326 . S
In26 O37 2.294 . S
In26 O38 2.326 . S
O27 In26 2.294 . S
O27 C36 1.240 . S
O28 In26 2.326 . S
O28 C36 1.252 . S
C29 O32 1.252 . S
C29 O33 1.260 . S
C30 O37 1.240 . S
C30 O38 1.252 . S
C31 O34 1.252 . S
C31 O35 1.260 . S
O32 In26 2.266 . S
O32 C29 1.252 . S
O33 In26 2.326 . S
O33 C29 1.260 . S
O34 In26 2.266 . S
O34 C31 1.252 . S
O35 In26 2.326 . S
O35 C31 1.260 . S
C36 O27 1.240 . S
C36 O28 1.252 . S
O37 In26 2.294 . S
O37 C30 1.240 . S
O38 In26 2.326 . S
O38 C30 1.252 . S
In39 O40 2.294 . S
In39 O41 2.326 . S
In39 O45 2.266 . S
In39 O46 2.326 . S
In39 O47 2.266 . S
In39 O48 2.326 . S
In39 O50 2.294 . S
In39 O51 2.326 . S
O40 In39 2.294 . S
O40 C49 1.240 . S
O41 In39 2.326 . S
O41 C49 1.252 . S
C42 O45 1.252 . S
C42 O46 1.260 . S
C43 O50 1.240 . S
C43 O51 1.252 . S
C44 O47 1.252 . S
C44 O48 1.260 . S
O45 In39 2.266 . S
O45 C42 1.252 . S
O46 In39 2.326 . S
O46 C42 1.260 . S
O47 In39 2.266 . S
O47 C44 1.252 . S
O48 In39 2.326 . S
O48 C44 1.260 . S
C49 O40 1.240 . S
C49 O41 1.252 . S
O50 In39 2.294 . S
O50 C43 1.240 . S
O51 In39 2.326 . S
O51 C43 1.252 . S
In52 O53 2.294 . S
In52 O54 2.326 . S
In52 O58 2.266 . S
In52 O59 2.326 . S
In52 O60 2.266 . S
In52 O61 2.326 . S
In52 O63 2.294 . S
In52 O64 2.326 . S
O53 In52 2.294 . S
O53 C62 1.240 . S
O54 In52 2.326 . S
O54 C62 1.252 . S
C55 O58 1.252 . S
C55 O59 1.260 . S
C56 O63 1.240 . S
C56 O64 1.252 . S
C57 O60 1.252 . S
C57 O61 1.260 . S
O58 In52 2.266 . S
O58 C55 1.252 . S
O59 In52 2.326 . S
O59 C55 1.260 . S
O60 In52 2.266 . S
O60 C57 1.252 . S
O61 In52 2.326 . S
O61 C57 1.260 . S
C62 O53 1.240 . S
C62 O54 1.252 . S
O63 In52 2.294 . S
O63 C56 1.240 . S
O64 In52 2.326 . S
O64 C56 1.252 . S
In65 O66 2.294 . S
In65 O67 2.326 . S
In65 O71 2.266 . S
In65 O72 2.326 . S
In65 O73 2.266 . S
In65 O74 2.326 . S
In65 O76 2.294 . S
In65 O77 2.326 . S
O66 In65 2.294 . S
O66 C75 1.240 . S
O67 In65 2.326 . S
O67 C75 1.252 . S
C68 O71 1.252 . S
C68 O72 1.260 . S
C69 O76 1.240 . S
C69 O77 1.252 . S
C70 O73 1.252 . S
C70 O74 1.260 . S
O71 In65 2.266 . S
O71 C68 1.252 . S
O72 In65 2.326 . S
O72 C68 1.260 . S
O73 In65 2.266 . S
O73 C70 1.252 . S
O74 In65 2.326 . S
O74 C70 1.260 . S
C75 O66 1.240 . S
C75 O67 1.252 . S
O76 In65 2.294 . S
O76 C69 1.240 . S
O77 In65 2.326 . S
O77 C69 1.252 . S
In78 O79 2.294 . S
In78 O80 2.326 . S
In78 O84 2.266 . S
In78 O85 2.326 . S
In78 O86 2.266 . S
In78 O87 2.326 . S
In78 O89 2.294 . S
In78 O90 2.326 . S
O79 In78 2.294 . S
O79 C88 1.240 . S
O80 In78 2.326 . S
O80 C88 1.252 . S
C81 O84 1.252 . S
C81 O85 1.260 . S
C82 O89 1.240 . S
C82 O90 1.252 . S
C83 O86 1.252 . S
C83 O87 1.260 . S
O84 In78 2.266 . S
O84 C81 1.252 . S
O85 In78 2.326 . S
O85 C81 1.260 . S
O86 In78 2.266 . S
O86 C83 1.252 . S
O87 In78 2.326 . S
O87 C83 1.260 . S
C88 O79 1.240 . S
C88 O80 1.252 . S
O89 In78 2.294 . S
O89 C82 1.240 . S
O90 In78 2.326 . S
O90 C82 1.252 . S
In91 O92 2.294 . S
In91 O93 2.326 . S
In91 O97 2.266 . S
In91 O98 2.326 . S
In91 O99 2.266 . S
In91 O100 2.326 . S
In91 O102 2.294 . S
In91 O103 2.326 . S
O92 In91 2.294 . S
O92 C101 1.240 . S
O93 In91 2.326 . S
O93 C101 1.252 . S
C94 O97 1.252 . S
C94 O98 1.260 . S
C95 O102 1.240 . S
C95 O103 1.252 . S
C96 O99 1.252 . S
C96 O100 1.260 . S
O97 In91 2.266 . S
O97 C94 1.252 . S
O98 In91 2.326 . S
O98 C94 1.260 . S
O99 In91 2.266 . S
O99 C96 1.252 . S
O100 In91 2.326 . S
O100 C96 1.260 . S
C101 O92 1.240 . S
C101 O93 1.252 . S
O102 In91 2.294 . S
O102 C95 1.240 . S
O103 In91 2.326 . S
O103 C95 1.252 . S
In104 O105 2.294 . S
In104 O106 2.326 . S
In104 O110 2.266 . S
In104 O111 2.326 . S
In104 O112 2.266 . S
In104 O113 2.326 . S
In104 O115 2.294 . S
In104 O116 2.326 . S
O105 In104 2.294 . S
O105 C114 1.240 . S
O106 In104 2.326 . S
O106 C114 1.252 . S
C107 O110 1.252 . S
C107 O111 1.260 . S
C108 O115 1.240 . S
C108 O116 1.252 . S
C109 O112 1.252 . S
C109 O113 1.260 . S
O110 In104 2.266 . S
O110 C107 1.252 . S
O111 In104 2.326 . S
O111 C107 1.260 . S
O112 In104 2.266 . S
O112 C109 1.252 . S
O113 In104 2.326 . S
O113 C109 1.260 . S
C114 O105 1.240 . S
C114 O106 1.252 . S
O115 In104 2.294 . S
O115 C108 1.240 . S
O116 In104 2.326 . S
O116 C108 1.252 . S
In117 O118 2.294 . S
In117 O119 2.326 . S
In117 O123 2.266 . S
In117 O124 2.326 . S
In117 O125 2.266 . S
In117 O126 2.326 . S
In117 O128 2.294 . S
In117 O129 2.326 . S
O118 In117 2.294 . S
O118 C127 1.240 . S
O119 In117 2.326 . S
O119 C127 1.252 . S
C120 O123 1.252 . S
C120 O124 1.260 . S
C121 O128 1.240 . S
C121 O129 1.252 . S
C122 O125 1.252 . S
C122 O126 1.260 . S
O123 In117 2.266 . S
O123 C120 1.252 . S
O124 In117 2.326 . S
O124 C120 1.260 . S
O125 In117 2.266 . S
O125 C122 1.252 . S
O126 In117 2.326 . S
O126 C122 1.260 . S
C127 O118 1.240 . S
C127 O119 1.252 . S
O128 In117 2.294 . S
O128 C121 1.240 . S
O129 In117 2.326 . S
O129 C121 1.252 . S
In130 O131 2.294 . S
In130 O132 2.326 . S
In130 O136 2.266 . S
In130 O137 2.326 . S
In130 O138 2.266 . S
In130 O139 2.326 . S
In130 O141 2.294 . S
In130 O142 2.326 . S
O131 In130 2.294 . S
O131 C140 1.240 . S
O132 In130 2.326 . S
O132 C140 1.252 . S
C133 O136 1.252 . S
C133 O137 1.260 . S
C134 O141 1.240 . S
C134 O142 1.252 . S
C135 O138 1.252 . S
C135 O139 1.260 . S
O136 In130 2.266 . S
O136 C133 1.252 . S
O137 In130 2.326 . S
O137 C133 1.260 . S
O138 In130 2.266 . S
O138 C135 1.252 . S
O139 In130 2.326 . S
O139 C135 1.260 . S
C140 O131 1.240 . S
C140 O132 1.252 . S
O141 In130 2.294 . S
O141 C134 1.240 . S
O142 In130 2.326 . S
O142 C134 1.252 . S
In143 O144 2.294 . S
In143 O145 2.326 . S
In143 O149 2.266 . S
In143 O150 2.326 . S
In143 O151 2.266 . S
In143 O152 2.326 . S
In143 O154 2.294 . S
In143 O155 2.326 . S
O144 In143 2.294 . S
O144 C153 1.240 . S
O145 In143 2.326 . S
O145 C153 1.252 . S
C146 O149 1.252 . S
C146 O150 1.260 . S
C147 O154 1.240 . S
C147 O155 1.252 . S
C148 O151 1.252 . S
C148 O152 1.260 . S
O149 In143 2.266 . S
O149 C146 1.252 . S
O150 In143 2.326 . S
O150 C146 1.260 . S
O151 In143 2.266 . S
O151 C148 1.252 . S
O152 In143 2.326 . S
O152 C148 1.260 . S
C153 O144 1.240 . S
C153 O145 1.252 . S
O154 In143 2.294 . S
O154 C147 1.240 . S
O155 In143 2.326 . S
O155 C147 1.252 . S
In156 O157 2.294 . S
In156 O158 2.326 . S
In156 O162 2.266 . S
In156 O163 2.326 . S
In156 O164 2.266 . S
In156 O165 2.326 . S
In156 O167 2.294 . S
In156 O168 2.326 . S
O157 In156 2.294 . S
O157 C166 1.240 . S
O158 In156 2.326 . S
O158 C166 1.252 . S
C159 O162 1.252 . S
C159 O163 1.260 . S
C160 O167 1.240 . S
C160 O168 1.252 . S
C161 O164 1.252 . S
C161 O165 1.260 . S
O162 In156 2.266 . S
O162 C159 1.252 . S
O163 In156 2.326 . S
O163 C159 1.260 . S
O164 In156 2.266 . S
O164 C161 1.252 . S
O165 In156 2.326 . S
O165 C161 1.260 . S
C166 O157 1.240 . S
C166 O158 1.252 . S
O167 In156 2.294 . S
O167 C160 1.240 . S
O168 In156 2.326 . S
O168 C160 1.252 . S
In169 O170 2.294 . S
In169 O171 2.326 . S
In169 O175 2.266 . S
In169 O176 2.326 . S
In169 O177 2.266 . S
In169 O178 2.326 . S
In169 O180 2.294 . S
In169 O181 2.326 . S
O170 In169 2.294 . S
O170 C179 1.240 . S
O171 In169 2.326 . S
O171 C179 1.252 . S
C172 O175 1.252 . S
C172 O176 1.260 . S
C173 O180 1.240 . S
C173 O181 1.252 . S
C174 O177 1.252 . S
C174 O178 1.260 . S
O175 In169 2.266 . S
O175 C172 1.252 . S
O176 In169 2.326 . S
O176 C172 1.260 . S
O177 In169 2.266 . S
O177 C174 1.252 . S
O178 In169 2.326 . S
O178 C174 1.260 . S
C179 O170 1.240 . S
C179 O171 1.252 . S
O180 In169 2.294 . S
O180 C173 1.240 . S
O181 In169 2.326 . S
O181 C173 1.252 . S
In182 O183 2.294 . S
In182 O184 2.326 . S
In182 O188 2.266 . S
In182 O189 2.326 . S
In182 O190 2.266 . S
In182 O191 2.326 . S
In182 O193 2.294 . S
In182 O194 2.326 . S
O183 In182 2.294 . S
O183 C192 1.240 . S
O184 In182 2.326 . S
O184 C192 1.252 . S
C185 O188 1.252 . S
C185 O189 1.260 . S
C186 O193 1.240 . S
C186 O194 1.252 . S
C187 O190 1.252 . S
C187 O191 1.260 . S
O188 In182 2.266 . S
O188 C185 1.252 . S
O189 In182 2.326 . S
O189 C185 1.260 . S
O190 In182 2.266 . S
O190 C187 1.252 . S
O191 In182 2.326 . S
O191 C187 1.260 . S
C192 O183 1.240 . S
C192 O184 1.252 . S
O193 In182 2.294 . S
O193 C186 1.240 . S
O194 In182 2.326 . S
O194 C186 1.252 . S
In195 O196 2.294 . S
In195 O197 2.326 . S
In195 O201 2.266 . S
In195 O202 2.326 . S
In195 O203 2.266 . S
In195 O204 2.326 . S
In195 O206 2.294 . S
In195 O207 2.326 . S
O196 In195 2.294 . S
O196 C205 1.240 . S
O197 In195 2.326 . S
O197 C205 1.252 . S
C198 O201 1.252 . S
C198 O202 1.260 . S
C199 O206 1.240 . S
C199 O207 1.252 . S
C200 O203 1.252 . S
C200 O204 1.260 . S
O201 In195 2.266 . S
O201 C198 1.252 . S
O202 In195 2.326 . S
O202 C198 1.260 . S
O203 In195 2.266 . S
O203 C200 1.252 . S
O204 In195 2.326 . S
O204 C200 1.260 . S
C205 O196 1.240 . S
C205 O197 1.252 . S
O206 In195 2.294 . S
O206 C199 1.240 . S
O207 In195 2.326 . S
O207 C199 1.252 . S
In208 O209 2.294 . S
In208 O210 2.326 . S
In208 O214 2.266 . S
In208 O215 2.326 . S
In208 O216 2.266 . S
In208 O217 2.326 . S
In208 O219 2.294 . S
In208 O220 2.326 . S
O209 In208 2.294 . S
O209 C218 1.240 . S
O210 In208 2.326 . S
O210 C218 1.252 . S
C211 O214 1.252 . S
C211 O215 1.260 . S
C212 O219 1.240 . S
C212 O220 1.252 . S
C213 O216 1.252 . S
C213 O217 1.260 . S
O214 In208 2.266 . S
O214 C211 1.252 . S
O215 In208 2.326 . S
O215 C211 1.260 . S
O216 In208 2.266 . S
O216 C213 1.252 . S
O217 In208 2.326 . S
O217 C213 1.260 . S
C218 O209 1.240 . S
C218 O210 1.252 . S
O219 In208 2.294 . S
O219 C212 1.240 . S
O220 In208 2.326 . S
O220 C212 1.252 . S
In221 O222 2.294 . S
In221 O223 2.326 . S
In221 O227 2.266 . S
In221 O228 2.326 . S
In221 O229 2.266 . S
In221 O230 2.326 . S
In221 O232 2.294 . S
In221 O233 2.326 . S
O222 In221 2.294 . S
O222 C231 1.240 . S
O223 In221 2.326 . S
O223 C231 1.252 . S
C224 O227 1.252 . S
C224 O228 1.260 . S
C225 O232 1.240 . S
C225 O233 1.252 . S
C226 O229 1.252 . S
C226 O230 1.260 . S
O227 In221 2.266 . S
O227 C224 1.252 . S
O228 In221 2.326 . S
O228 C224 1.260 . S
O229 In221 2.266 . S
O229 C226 1.252 . S
O230 In221 2.326 . S
O230 C226 1.260 . S
C231 O222 1.240 . S
C231 O223 1.252 . S
O232 In221 2.294 . S
O232 C225 1.240 . S
O233 In221 2.326 . S
O233 C225 1.252 . S
In234 O235 2.294 . S
In234 O236 2.326 . S
In234 O240 2.266 . S
In234 O241 2.326 . S
In234 O242 2.266 . S
In234 O243 2.326 . S
In234 O245 2.294 . S
In234 O246 2.326 . S
O235 In234 2.294 . S
O235 C244 1.240 . S
O236 In234 2.326 . S
O236 C244 1.252 . S
C237 O240 1.252 . S
C237 O241 1.260 . S
C238 O245 1.240 . S
C238 O246 1.252 . S
C239 O242 1.252 . S
C239 O243 1.260 . S
O240 In234 2.266 . S
O240 C237 1.252 . S
O241 In234 2.326 . S
O241 C237 1.260 . S
O242 In234 2.266 . S
O242 C239 1.252 . S
O243 In234 2.326 . S
O243 C239 1.260 . S
C244 O235 1.240 . S
C244 O236 1.252 . S
O245 In234 2.294 . S
O245 C238 1.240 . S
O246 In234 2.326 . S
O246 C238 1.252 . S
In247 O248 2.294 . S
In247 O249 2.326 . S
In247 O253 2.266 . S
In247 O254 2.326 . S
In247 O255 2.266 . S
In247 O256 2.326 . S
In247 O258 2.294 . S
In247 O259 2.326 . S
O248 In247 2.294 . S
O248 C257 1.240 . S
O249 In247 2.326 . S
O249 C257 1.252 . S
C250 O253 1.252 . S
C250 O254 1.260 . S
C251 O258 1.240 . S
C251 O259 1.252 . S
C252 O255 1.252 . S
C252 O256 1.260 . S
O253 In247 2.266 . S
O253 C250 1.252 . S
O254 In247 2.326 . S
O254 C250 1.260 . S
O255 In247 2.266 . S
O255 C252 1.252 . S
O256 In247 2.326 . S
O256 C252 1.260 . S
C257 O248 1.240 . S
C257 O249 1.252 . S
O258 In247 2.294 . S
O258 C251 1.240 . S
O259 In247 2.326 . S
O259 C251 1.252 . S
In260 O261 2.294 . S
In260 O262 2.326 . S
In260 O266 2.266 . S
In260 O267 2.326 . S
In260 O268 2.266 . S
In260 O269 2.326 . S
In260 O271 2.294 . S
In260 O272 2.326 . S
O261 In260 2.294 . S
O261 C270 1.240 . S
O262 In260 2.326 . S
O262 C270 1.252 . S
C263 O266 1.252 . S
C263 O267 1.260 . S
C264 O271 1.240 . S
C264 O272 1.252 . S
C265 O268 1.252 . S
C265 O269 1.260 . S
O266 In260 2.266 . S
O266 C263 1.252 . S
O267 In260 2.326 . S
O267 C263 1.260 . S
O268 In260 2.266 . S
O268 C265 1.252 . S
O269 In260 2.326 . S
O269 C265 1.260 . S
C270 O261 1.240 . S
C270 O262 1.252 . S
O271 In260 2.294 . S
O271 C264 1.240 . S
O272 In260 2.326 . S
O272 C264 1.252 . S
In273 O274 2.294 . S
In273 O275 2.326 . S
In273 O279 2.266 . S
In273 O280 2.326 . S
In273 O281 2.266 . S
In273 O282 2.326 . S
In273 O284 2.294 . S
In273 O285 2.326 . S
O274 In273 2.294 . S
O274 C283 1.240 . S
O275 In273 2.326 . S
O275 C283 1.252 . S
C276 O279 1.252 . S
C276 O280 1.260 . S
C277 O284 1.240 . S
C277 O285 1.252 . S
C278 O281 1.252 . S
C278 O282 1.260 . S
O279 In273 2.266 . S
O279 C276 1.252 . S
O280 In273 2.326 . S
O280 C276 1.260 . S
O281 In273 2.266 . S
O281 C278 1.252 . S
O282 In273 2.326 . S
O282 C278 1.260 . S
C283 O274 1.240 . S
C283 O275 1.252 . S
O284 In273 2.294 . S
O284 C277 1.240 . S
O285 In273 2.326 . S
O285 C277 1.252 . S
In286 O287 2.294 . S
In286 O288 2.326 . S
In286 O292 2.266 . S
In286 O293 2.326 . S
In286 O294 2.266 . S
In286 O295 2.326 . S
In286 O297 2.294 . S
In286 O298 2.326 . S
O287 In286 2.294 . S
O287 C296 1.240 . S
O288 In286 2.326 . S
O288 C296 1.252 . S
C289 O292 1.252 . S
C289 O293 1.260 . S
C290 O297 1.240 . S
C290 O298 1.252 . S
C291 O294 1.252 . S
C291 O295 1.260 . S
O292 In286 2.266 . S
O292 C289 1.252 . S
O293 In286 2.326 . S
O293 C289 1.260 . S
O294 In286 2.266 . S
O294 C291 1.252 . S
O295 In286 2.326 . S
O295 C291 1.260 . S
C296 O287 1.240 . S
C296 O288 1.252 . S
O297 In286 2.294 . S
O297 C290 1.240 . S
O298 In286 2.326 . S
O298 C290 1.252 . S
In299 O300 2.294 . S
In299 O301 2.326 . S
In299 O305 2.266 . S
In299 O306 2.326 . S
In299 O307 2.266 . S
In299 O308 2.326 . S
In299 O310 2.294 . S
In299 O311 2.326 . S
O300 In299 2.294 . S
O300 C309 1.240 . S
O301 In299 2.326 . S
O301 C309 1.252 . S
C302 O305 1.252 . S
C302 O306 1.260 . S
C303 O310 1.240 . S
C303 O311 1.252 . S
C304 O307 1.252 . S
C304 O308 1.260 . S
O305 In299 2.266 . S
O305 C302 1.252 . S
O306 In299 2.326 . S
O306 C302 1.260 . S
O307 In299 2.266 . S
O307 C304 1.252 . S
O308 In299 2.326 . S
O308 C304 1.260 . S
C309 O300 1.240 . S
C309 O301 1.252 . S
O310 In299 2.294 . S
O310 C303 1.240 . S
O311 In299 2.326 . S
O311 C303 1.252 . S
In312 O313 2.294 . S
In312 O314 2.326 . S
In312 O318 2.266 . S
In312 O319 2.326 . S
In312 O320 2.266 . S
In312 O321 2.326 . S
In312 O323 2.294 . S
In312 O324 2.326 . S
O313 In312 2.294 . S
O313 C322 1.240 . S
O314 In312 2.326 . S
O314 C322 1.252 . S
C315 O318 1.252 . S
C315 O319 1.260 . S
C316 O323 1.240 . S
C316 O324 1.252 . S
C317 O320 1.252 . S
C317 O321 1.260 . S
O318 In312 2.266 . S
O318 C315 1.252 . S
O319 In312 2.326 . S
O319 C315 1.260 . S
O320 In312 2.266 . S
O320 C317 1.252 . S
O321 In312 2.326 . S
O321 C317 1.260 . S
C322 O313 1.240 . S
C322 O314 1.252 . S
O323 In312 2.294 . S
O323 C316 1.240 . S
O324 In312 2.326 . S
O324 C316 1.252 . S
In325 O326 2.294 . S
In325 O327 2.326 . S
In325 O331 2.266 . S
In325 O332 2.326 . S
In325 O333 2.266 . S
In325 O334 2.326 . S
In325 O336 2.294 . S
In325 O337 2.326 . S
O326 In325 2.294 . S
O326 C335 1.240 . S
O327 In325 2.326 . S
O327 C335 1.252 . S
C328 O331 1.252 . S
C328 O332 1.260 . S
C329 O336 1.240 . S
C329 O337 1.252 . S
C330 O333 1.252 . S
C330 O334 1.260 . S
O331 In325 2.266 . S
O331 C328 1.252 . S
O332 In325 2.326 . S
O332 C328 1.260 . S
O333 In325 2.266 . S
O333 C330 1.252 . S
O334 In325 2.326 . S
O334 C330 1.260 . S
C335 O326 1.240 . S
C335 O327 1.252 . S
O336 In325 2.294 . S
O336 C329 1.240 . S
O337 In325 2.326 . S
O337 C329 1.252 . S
In338 O339 2.294 . S
In338 O340 2.326 . S
In338 O344 2.266 . S
In338 O345 2.326 . S
In338 O346 2.266 . S
In338 O347 2.326 . S
In338 O349 2.294 . S
In338 O350 2.326 . S
O339 In338 2.294 . S
O339 C348 1.240 . S
O340 In338 2.326 . S
O340 C348 1.252 . S
C341 O344 1.252 . S
C341 O345 1.260 . S
C342 O349 1.240 . S
C342 O350 1.252 . S
C343 O346 1.252 . S
C343 O347 1.260 . S
O344 In338 2.266 . S
O344 C341 1.252 . S
O345 In338 2.326 . S
O345 C341 1.260 . S
O346 In338 2.266 . S
O346 C343 1.252 . S
O347 In338 2.326 . S
O347 C343 1.260 . S
C348 O339 1.240 . S
C348 O340 1.252 . S
O349 In338 2.294 . S
O349 C342 1.240 . S
O350 In338 2.326 . S
O350 C342 1.252 . S
In351 O352 2.294 . S
In351 O353 2.326 . S
In351 O357 2.266 . S
In351 O358 2.326 . S
In351 O359 2.266 . S
In351 O360 2.326 . S
In351 O362 2.294 . S
In351 O363 2.326 . S
O352 In351 2.294 . S
O352 C361 1.240 . S
O353 In351 2.326 . S
O353 C361 1.252 . S
C354 O357 1.252 . S
C354 O358 1.260 . S
C355 O362 1.240 . S
C355 O363 1.252 . S
C356 O359 1.252 . S
C356 O360 1.260 . S
O357 In351 2.266 . S
O357 C354 1.252 . S
O358 In351 2.326 . S
O358 C354 1.260 . S
O359 In351 2.266 . S
O359 C356 1.252 . S
O360 In351 2.326 . S
O360 C356 1.260 . S
C361 O352 1.240 . S
C361 O353 1.252 . S
O362 In351 2.294 . S
O362 C355 1.240 . S
O363 In351 2.326 . S
O363 C355 1.252 . S
In364 O365 2.294 . S
In364 O366 2.326 . S
In364 O370 2.266 . S
In364 O371 2.326 . S
In364 O372 2.266 . S
In364 O373 2.326 . S
In364 O375 2.294 . S
In364 O376 2.326 . S
O365 In364 2.294 . S
O365 C374 1.240 . S
O366 In364 2.326 . S
O366 C374 1.252 . S
C367 O370 1.252 . S
C367 O371 1.260 . S
C368 O375 1.240 . S
C368 O376 1.252 . S
C369 O372 1.252 . S
C369 O373 1.260 . S
O370 In364 2.266 . S
O370 C367 1.252 . S
O371 In364 2.326 . S
O371 C367 1.260 . S
O372 In364 2.266 . S
O372 C369 1.252 . S
O373 In364 2.326 . S
O373 C369 1.260 . S
C374 O365 1.240 . S
C374 O366 1.252 . S
O375 In364 2.294 . S
O375 C368 1.240 . S
O376 In364 2.326 . S
O376 C368 1.252 . S
In377 O378 2.294 . S
In377 O379 2.326 . S
In377 O383 2.266 . S
In377 O384 2.326 . S
In377 O385 2.266 . S
In377 O386 2.326 . S
In377 O388 2.294 . S
In377 O389 2.326 . S
O378 In377 2.294 . S
O378 C387 1.240 . S
O379 In377 2.326 . S
O379 C387 1.252 . S
C380 O383 1.252 . S
C380 O384 1.260 . S
C381 O388 1.240 . S
C381 O389 1.252 . S
C382 O385 1.252 . S
C382 O386 1.260 . S
O383 In377 2.266 . S
O383 C380 1.252 . S
O384 In377 2.326 . S
O384 C380 1.260 . S
O385 In377 2.266 . S
O385 C382 1.252 . S
O386 In377 2.326 . S
O386 C382 1.260 . S
C387 O378 1.240 . S
C387 O379 1.252 . S
O388 In377 2.294 . S
O388 C381 1.240 . S
O389 In377 2.326 . S
O389 C381 1.252 . S
In390 O391 2.294 . S
In390 O392 2.326 . S
In390 O396 2.266 . S
In390 O397 2.326 . S
In390 O398 2.266 . S
In390 O399 2.326 . S
In390 O401 2.294 . S
In390 O402 2.326 . S
O391 In390 2.294 . S
O391 C400 1.240 . S
O392 In390 2.326 . S
O392 C400 1.252 . S
C393 O396 1.252 . S
C393 O397 1.260 . S
C394 O401 1.240 . S
C394 O402 1.252 . S
C395 O398 1.252 . S
C395 O399 1.260 . S
O396 In390 2.266 . S
O396 C393 1.252 . S
O397 In390 2.326 . S
O397 C393 1.260 . S
O398 In390 2.266 . S
O398 C395 1.252 . S
O399 In390 2.326 . S
O399 C395 1.260 . S
C400 O391 1.240 . S
C400 O392 1.252 . S
O401 In390 2.294 . S
O401 C394 1.240 . S
O402 In390 2.326 . S
O402 C394 1.252 . S
In403 O404 2.294 . S
In403 O405 2.326 . S
In403 O409 2.266 . S
In403 O410 2.326 . S
In403 O411 2.266 . S
In403 O412 2.326 . S
In403 O414 2.294 . S
In403 O415 2.326 . S
O404 In403 2.294 . S
O404 C413 1.240 . S
O405 In403 2.326 . S
O405 C413 1.252 . S
C406 O409 1.252 . S
C406 O410 1.260 . S
C407 O414 1.240 . S
C407 O415 1.252 . S
C408 O411 1.252 . S
C408 O412 1.260 . S
O409 In403 2.266 . S
O409 C406 1.252 . S
O410 In403 2.326 . S
O410 C406 1.260 . S
O411 In403 2.266 . S
O411 C408 1.252 . S
O412 In403 2.326 . S
O412 C408 1.260 . S
C413 O404 1.240 . S
C413 O405 1.252 . S
O414 In403 2.294 . S
O414 C407 1.240 . S
O415 In403 2.326 . S
O415 C407 1.252 . S
H416 C428 0.930 1_545 S
H417 C430 0.930 . S
H418 C431 0.930 . S
H419 C435 0.959 . S
H420 C435 0.959 . S
H421 C435 0.961 . S
H422 C436 0.960 . S
H423 C436 0.961 . S
H424 C436 0.959 . S
H425 C439 0.929 . S
H426 C440 0.931 1_565 S
H427 C442 0.930 . S
C428 H416 0.930 1_565 S
C428 C429 1.399 . S
C428 C433 1.399 1_565 S
C429 C428 1.399 . S
C429 C430 1.376 . S
C430 H417 0.930 . S
C430 C429 1.376 . S
C430 C431 1.388 . S
C431 H418 0.930 . S
C431 C430 1.388 . S
C431 C432 1.390 . S
C432 C431 1.390 . S
C432 C433 1.394 1_565 S
C432 C438 1.465 . S
C433 C428 1.399 1_545 S
C433 C432 1.394 1_545 S
C433 C434 1.516 . S
C434 C433 1.516 . S
C434 C435 1.502 . S
C434 C436 1.561 . S
C434 C437 1.526 . S
C435 H419 0.959 . S
C435 H420 0.959 . S
C435 H421 0.961 . S
C435 C434 1.502 . S
C436 H422 0.960 . S
C436 H423 0.961 . S
C436 H424 0.959 . S
C436 C434 1.561 . S
C437 C434 1.526 . S
C437 C438 1.396 1_545 S
C437 C442 1.390 . S
C438 C432 1.465 . S
C438 C437 1.396 1_565 S
C438 C439 1.399 . S
C439 H425 0.929 . S
C439 C438 1.399 . S
C439 C440 1.385 1_565 S
C440 H426 0.931 1_545 S
C440 C439 1.385 1_545 S
C440 C441 1.389 . S
C441 C440 1.389 . S
C441 C442 1.387 . S
C442 H427 0.930 . S
C442 C437 1.390 . S
C442 C441 1.387 . S
H443 C455 0.930 . S
H444 C457 0.930 . S
H445 C458 0.930 . S
H446 C462 0.959 . S
H447 C462 0.959 . S
H448 C462 0.961 . S
H449 C463 0.960 . S
H450 C463 0.961 . S
H451 C463 0.959 . S
H452 C466 0.929 . S
H453 C467 0.931 . S
H454 C469 0.930 . S
C455 H443 0.930 . S
C455 C456 1.399 . S
C455 C460 1.399 . S
C456 C455 1.399 . S
C456 C457 1.376 . S
C457 H444 0.930 . S
C457 C456 1.376 . S
C457 C458 1.388 . S
C458 H445 0.930 . S
C458 C457 1.388 . S
C458 C459 1.390 . S
C459 C458 1.390 . S
C459 C460 1.394 . S
C459 C465 1.465 . S
C460 C455 1.399 . S
C460 C459 1.394 . S
C460 C461 1.516 . S
C461 C460 1.516 . S
C461 C462 1.502 . S
C461 C463 1.561 . S
C461 C464 1.526 . S
C462 H446 0.959 . S
C462 H447 0.959 . S
C462 H448 0.961 . S
C462 C461 1.502 . S
C463 H449 0.960 . S
C463 H450 0.961 . S
C463 H451 0.959 . S
C463 C461 1.561 . S
C464 C461 1.526 . S
C464 C465 1.396 . S
C464 C469 1.390 . S
C465 C459 1.465 . S
C465 C464 1.396 . S
C465 C466 1.399 . S
C466 H452 0.929 . S
C466 C465 1.399 . S
C466 C467 1.385 . S
C467 H453 0.931 . S
C467 C466 1.385 . S
C467 C468 1.389 . S
C468 C467 1.389 . S
C468 C469 1.387 . S
C469 H454 0.930 . S
C469 C464 1.390 . S
C469 C468 1.387 . S
H470 C482 0.930 1_565 S
H471 C484 0.930 . S
H472 C485 0.930 . S
H473 C489 0.959 . S
H474 C489 0.959 . S
H475 C489 0.961 . S
H476 C490 0.960 . S
H477 C490 0.961 . S
H478 C490 0.959 . S
H479 C493 0.929 . S
H480 C494 0.931 1_545 S
H481 C496 0.930 . S
C482 H470 0.930 1_545 S
C482 C483 1.399 . S
C482 C487 1.399 1_545 S
C483 C482 1.399 . S
C483 C484 1.376 . S
C484 H471 0.930 . S
C484 C483 1.376 . S
C484 C485 1.388 . S
C485 H472 0.930 . S
C485 C484 1.388 . S
C485 C486 1.390 . S
C486 C485 1.390 . S
C486 C487 1.394 1_545 S
C486 C492 1.465 . S
C487 C482 1.399 1_565 S
C487 C486 1.394 1_565 S
C487 C488 1.516 . S
C488 C487 1.516 . S
C488 C489 1.502 . S
C488 C490 1.561 . S
C488 C491 1.526 . S
C489 H473 0.959 . S
C489 H474 0.959 . S
C489 H475 0.961 . S
C489 C488 1.502 . S
C490 H476 0.960 . S
C490 H477 0.961 . S
C490 H478 0.959 . S
C490 C488 1.561 . S
C491 C488 1.526 . S
C491 C492 1.396 1_565 S
C491 C496 1.390 . S
C492 C486 1.465 . S
C492 C491 1.396 1_545 S
C492 C493 1.399 . S
C493 H479 0.929 . S
C493 C492 1.399 . S
C493 C494 1.385 1_545 S
C494 H480 0.931 1_565 S
C494 C493 1.385 1_565 S
C494 C495 1.389 . S
C495 C494 1.389 . S
C495 C496 1.387 . S
C496 H481 0.930 . S
C496 C491 1.390 . S
C496 C495 1.387 . S
H497 C509 0.930 . S
H498 C511 0.930 . S
H499 C512 0.930 . S
H500 C516 0.959 . S
H501 C516 0.959 1_554 S
H502 C516 0.961 . S
H503 C517 0.960 1_556 S
H504 C517 0.961 . S
H505 C517 0.959 . S
H506 C520 0.929 . S
H507 C521 0.931 . S
H508 C523 0.930 . S
C509 H497 0.930 . S
C509 C510 1.399 . S
C509 C514 1.399 . S
C510 C509 1.399 . S
C510 C511 1.376 . S
C511 H498 0.930 . S
C511 C510 1.376 . S
C511 C512 1.388 . S
C512 H499 0.930 . S
C512 C511 1.388 . S
C512 C513 1.390 . S
C513 C512 1.390 . S
C513 C514 1.394 . S
C513 C519 1.465 1_556 S
C514 C509 1.399 . S
C514 C513 1.394 . S
C514 C515 1.509 1_556 S
C515 C514 1.509 1_554 S
C515 C516 1.498 1_554 S
C515 C517 1.565 . S
C515 C518 1.533 . S
C516 H500 0.959 . S
C516 H501 0.959 1_556 S
C516 H502 0.961 . S
C516 C515 1.498 1_556 S
C517 H503 0.960 1_554 S
C517 H504 0.961 . S
C517 H505 0.959 . S
C517 C515 1.565 . S
C518 C515 1.533 . S
C518 C519 1.396 . S
C518 C523 1.390 . S
C519 C513 1.465 1_554 S
C519 C518 1.396 . S
C519 C520 1.399 . S
C520 H506 0.929 . S
C520 C519 1.399 . S
C520 C521 1.385 . S
C521 H507 0.931 . S
C521 C520 1.385 . S
C521 C522 1.389 . S
C522 C521 1.389 . S
C522 C523 1.387 . S
C523 H508 0.930 . S
C523 C518 1.390 . S
C523 C522 1.387 . S
H524 C536 0.930 . S
H525 C538 0.930 . S
H526 C539 0.930 1_545 S
H527 C543 0.959 1_545 S
H528 C543 0.959 . S
H529 C543 0.961 . S
H530 C544 0.960 . S
H531 C544 0.961 . S
H532 C544 0.959 . S
H533 C547 0.929 . S
H534 C548 0.931 . S
H535 C550 0.930 . S
C536 H524 0.930 . S
C536 C537 1.399 . S
C536 C541 1.399 . S
C537 C536 1.399 . S
C537 C538 1.376 . S
C538 H525 0.930 . S
C538 C537 1.376 . S
C538 C539 1.388 . S
C539 H526 0.930 1_565 S
C539 C538 1.388 . S
C539 C540 1.390 . S
C540 C539 1.390 . S
C540 C541 1.394 . S
C540 C546 1.465 1_565 S
C541 C536 1.399 . S
C541 C540 1.394 . S
C541 C542 1.516 . S
C542 C541 1.516 . S
C542 C543 1.502 . S
C542 C544 1.561 . S
C542 C545 1.526 1_565 S
C543 H527 0.959 1_565 S
C543 H528 0.959 . S
C543 H529 0.961 . S
C543 C542 1.502 . S
C544 H530 0.960 . S
C544 H531 0.961 . S
C544 H532 0.959 . S
C544 C542 1.561 . S
C545 C542 1.526 1_545 S
C545 C546 1.396 . S
C545 C550 1.390 . S
C546 C540 1.465 1_545 S
C546 C545 1.396 . S
C546 C547 1.399 . S
C547 H533 0.929 . S
C547 C546 1.399 . S
C547 C548 1.385 . S
C548 H534 0.931 . S
C548 C547 1.385 . S
C548 C549 1.389 . S
C549 C548 1.389 . S
C549 C550 1.387 . S
C550 H535 0.930 . S
C550 C545 1.390 . S
C550 C549 1.387 . S
H551 C563 0.930 . S
H552 C565 0.930 . S
H553 C566 0.930 . S
H554 C570 0.959 . S
H555 C570 0.959 . S
H556 C570 0.961 . S
H557 C571 0.960 . S
H558 C571 0.961 . S
H559 C571 0.959 . S
H560 C574 0.929 . S
H561 C575 0.931 . S
H562 C577 0.930 . S
C563 H551 0.930 . S
C563 C564 1.399 . S
C563 C568 1.399 . S
C564 C563 1.399 . S
C564 C565 1.376 . S
C565 H552 0.930 . S
C565 C564 1.376 . S
C565 C566 1.388 . S
C566 H553 0.930 . S
C566 C565 1.388 . S
C566 C567 1.390 . S
C567 C566 1.390 . S
C567 C568 1.394 . S
C567 C573 1.465 . S
C568 C563 1.399 . S
C568 C567 1.394 . S
C568 C569 1.516 . S
C569 C568 1.516 . S
C569 C570 1.502 . S
C569 C571 1.561 . S
C569 C572 1.526 . S
C570 H554 0.959 . S
C570 H555 0.959 . S
C570 H556 0.961 . S
C570 C569 1.502 . S
C571 H557 0.960 . S
C571 H558 0.961 . S
C571 H559 0.959 . S
C571 C569 1.561 . S
C572 C569 1.526 . S
C572 C573 1.396 . S
C572 C577 1.390 . S
C573 C567 1.465 . S
C573 C572 1.396 . S
C573 C574 1.399 . S
C574 H560 0.929 . S
C574 C573 1.399 . S
C574 C575 1.385 . S
C575 H561 0.931 . S
C575 C574 1.385 . S
C575 C576 1.389 . S
C576 C575 1.389 . S
C576 C577 1.387 . S
C577 H562 0.930 . S
C577 C572 1.390 . S
C577 C576 1.387 . S
H578 C590 0.930 . S
H579 C592 0.926 1_565 S
H580 C593 0.930 . S
H581 C597 0.959 . S
H582 C597 0.959 . S
H583 C597 0.961 . S
H584 C598 0.960 . S
H585 C598 0.961 . S
H586 C598 0.959 . S
H587 C601 0.929 . S
H588 C602 0.931 . S
H589 C604 0.930 1_545 S
C590 H578 0.930 . S
C590 C591 1.399 . S
C590 C595 1.399 . S
C591 C590 1.399 . S
C591 C592 1.389 . S
C592 H579 0.926 1_545 S
C592 C591 1.389 . S
C592 C593 1.381 1_545 S
C593 H580 0.930 . S
C593 C592 1.381 1_565 S
C593 C594 1.390 . S
C594 C593 1.390 . S
C594 C595 1.394 1_565 S
C594 C600 1.465 . S
C595 C590 1.399 . S
C595 C594 1.394 1_545 S
C595 C596 1.516 . S
C596 C595 1.516 . S
C596 C597 1.502 . S
C596 C598 1.561 . S
C596 C599 1.526 . S
C597 H581 0.959 . S
C597 H582 0.959 . S
C597 H583 0.961 . S
C597 C596 1.502 . S
C598 H584 0.960 . S
C598 H585 0.961 . S
C598 H586 0.959 . S
C598 C596 1.561 . S
C599 C596 1.526 . S
C599 C600 1.396 1_545 S
C599 C604 1.390 1_545 S
C600 C594 1.465 . S
C600 C599 1.396 1_565 S
C600 C601 1.399 . S
C601 H587 0.929 . S
C601 C600 1.399 . S
C601 C602 1.385 . S
C602 H588 0.931 . S
C602 C601 1.385 . S
C602 C603 1.389 . S
C603 C602 1.389 . S
C603 C604 1.387 . S
C604 H589 0.930 1_565 S
C604 C599 1.390 1_565 S
C604 C603 1.387 . S
H605 C617 0.930 . S
H606 C619 0.930 . S
H607 C620 0.930 . S
H608 C624 0.959 . S
H609 C624 0.959 . S
H610 C624 0.961 . S
H611 C625 0.960 . S
H612 C625 0.961 1_554 S
H613 C625 0.959 . S
H614 C628 0.929 . S
H615 C629 0.931 . S
H616 C631 0.930 . S
C617 H605 0.930 . S
C617 C618 1.399 . S
C617 C622 1.399 . S
C618 C617 1.399 . S
C618 C619 1.376 . S
C619 H606 0.930 . S
C619 C618 1.376 . S
C619 C620 1.388 . S
C620 H607 0.930 . S
C620 C619 1.388 . S
C620 C621 1.390 . S
C621 C620 1.390 . S
C621 C622 1.394 . S
C621 C627 1.465 1_556 S
C622 C617 1.399 . S
C622 C621 1.394 . S
C622 C623 1.516 1_556 S
C623 C622 1.516 1_554 S
C623 C624 1.502 . S
C623 C625 1.561 1_554 S
C623 C626 1.526 . S
C624 H608 0.959 . S
C624 H609 0.959 . S
C624 H610 0.961 . S
C624 C623 1.502 . S
C625 H611 0.960 . S
C625 H612 0.961 1_556 S
C625 H613 0.959 . S
C625 C623 1.561 1_556 S
C626 C623 1.526 . S
C626 C627 1.396 . S
C626 C631 1.390 . S
C627 C621 1.465 1_554 S
C627 C626 1.396 . S
C627 C628 1.399 . S
C628 H614 0.929 . S
C628 C627 1.399 . S
C628 C629 1.385 . S
C629 H615 0.931 . S
C629 C628 1.385 . S
C629 C630 1.389 . S
C630 C629 1.389 . S
C630 C631 1.387 . S
C631 H616 0.930 . S
C631 C626 1.390 . S
C631 C630 1.387 . S
H632 C644 0.930 . S
H633 C646 0.930 . S
H634 C647 0.930 . S
H635 C651 0.959 . S
H636 C651 0.959 . S
H637 C651 0.961 . S
H638 C652 0.960 . S
H639 C652 0.961 . S
H640 C652 0.959 . S
H641 C655 0.929 . S
H642 C656 0.931 . S
H643 C658 0.930 . S
C644 H632 0.930 . S
C644 C645 1.399 . S
C644 C649 1.399 . S
C645 C644 1.399 . S
C645 C646 1.376 . S
C646 H633 0.930 . S
C646 C645 1.376 . S
C646 C647 1.388 . S
C647 H634 0.930 . S
C647 C646 1.388 . S
C647 C648 1.390 . S
C648 C647 1.390 . S
C648 C649 1.394 . S
C648 C654 1.465 . S
C649 C644 1.399 . S
C649 C648 1.394 . S
C649 C650 1.516 . S
C650 C649 1.516 . S
C650 C651 1.502 . S
C650 C652 1.561 . S
C650 C653 1.526 . S
C651 H635 0.959 . S
C651 H636 0.959 . S
C651 H637 0.961 . S
C651 C650 1.502 . S
C652 H638 0.960 . S
C652 H639 0.961 . S
C652 H640 0.959 . S
C652 C650 1.561 . S
C653 C650 1.526 . S
C653 C654 1.396 . S
C653 C658 1.390 . S
C654 C648 1.465 . S
C654 C653 1.396 . S
C654 C655 1.399 . S
C655 H641 0.929 . S
C655 C654 1.399 . S
C655 C656 1.385 . S
C656 H642 0.931 . S
C656 C655 1.385 . S
C656 C657 1.389 . S
C657 C656 1.389 . S
C657 C658 1.387 . S
C658 H643 0.930 . S
C658 C653 1.390 . S
C658 C657 1.387 . S
H659 C671 0.930 . S
H660 C673 0.930 . S
H661 C674 0.930 . S
H662 C678 0.959 . S
H663 C678 0.959 . S
H664 C678 0.961 1_554 S
H665 C679 0.960 . S
H666 C679 0.961 1_556 S
H667 C679 0.959 . S
H668 C682 0.929 . S
H669 C683 0.931 . S
H670 C685 0.930 . S
C671 H659 0.930 . S
C671 C672 1.399 . S
C671 C676 1.399 . S
C672 C671 1.399 . S
C672 C673 1.376 . S
C673 H660 0.930 . S
C673 C672 1.376 . S
C673 C674 1.388 . S
C674 H661 0.930 . S
C674 C673 1.388 . S
C674 C675 1.390 . S
C675 C674 1.390 . S
C675 C676 1.394 . S
C675 C681 1.465 1_554 S
C676 C671 1.399 . S
C676 C675 1.394 . S
C676 C677 1.535 . S
C677 C676 1.535 . S
C677 C678 1.493 1_554 S
C677 C679 1.571 . S
C677 C680 1.507 1_554 S
C678 H662 0.959 . S
C678 H663 0.959 . S
C678 H664 0.961 1_556 S
C678 C677 1.493 1_556 S
C679 H665 0.960 . S
C679 H666 0.961 1_554 S
C679 H667 0.959 . S
C679 C677 1.571 . S
C680 C677 1.507 1_556 S
C680 C681 1.396 . S
C680 C685 1.390 . S
C681 C675 1.465 1_556 S
C681 C680 1.396 . S
C681 C682 1.399 . S
C682 H668 0.929 . S
C682 C681 1.399 . S
C682 C683 1.385 . S
C683 H669 0.931 . S
C683 C682 1.385 . S
C683 C684 1.389 . S
C684 C683 1.389 . S
C684 C685 1.387 . S
C685 H670 0.930 . S
C685 C680 1.390 . S
C685 C684 1.387 . S
H686 C698 0.930 . S
H687 C700 0.930 . S
H688 C701 0.930 . S
H689 C705 0.959 . S
H690 C705 0.959 . S
H691 C705 0.961 . S
H692 C706 0.960 . S
H693 C706 0.961 . S
H694 C706 0.959 . S
H695 C709 0.929 . S
H696 C710 0.931 . S
H697 C712 0.930 . S
C698 H686 0.930 . S
C698 C699 1.399 . S
C698 C703 1.399 . S
C699 C698 1.399 . S
C699 C700 1.376 . S
C700 H687 0.930 . S
C700 C699 1.376 . S
C700 C701 1.388 . S
C701 H688 0.930 . S
C701 C700 1.388 . S
C701 C702 1.390 . S
C702 C701 1.390 . S
C702 C703 1.394 . S
C702 C708 1.465 . S
C703 C698 1.399 . S
C703 C702 1.394 . S
C703 C704 1.516 . S
C704 C703 1.516 . S
C704 C705 1.502 . S
C704 C706 1.561 . S
C704 C707 1.526 . S
C705 H689 0.959 . S
C705 H690 0.959 . S
C705 H691 0.961 . S
C705 C704 1.502 . S
C706 H692 0.960 . S
C706 H693 0.961 . S
C706 H694 0.959 . S
C706 C704 1.561 . S
C707 C704 1.526 . S
C707 C708 1.396 . S
C707 C712 1.390 . S
C708 C702 1.465 . S
C708 C707 1.396 . S
C708 C709 1.399 . S
C709 H695 0.929 . S
C709 C708 1.399 . S
C709 C710 1.385 . S
C710 H696 0.931 . S
C710 C709 1.385 . S
C710 C711 1.389 . S
C711 C710 1.389 . S
C711 C712 1.387 . S
C712 H697 0.930 . S
C712 C707 1.390 . S
C712 C711 1.387 . S
H713 C725 0.930 . S
H714 C727 0.930 . S
H715 C728 0.930 . S
H716 C732 0.959 . S
H717 C732 0.959 . S
H718 C732 0.961 . S
H719 C733 0.960 . S
H720 C733 0.961 . S
H721 C733 0.959 . S
H722 C736 0.929 . S
H723 C737 0.931 . S
H724 C739 0.930 . S
C725 H713 0.930 . S
C725 C726 1.399 . S
C725 C730 1.399 . S
C726 C725 1.399 . S
C726 C727 1.376 . S
C727 H714 0.930 . S
C727 C726 1.376 . S
C727 C728 1.388 . S
C728 H715 0.930 . S
C728 C727 1.388 . S
C728 C729 1.390 . S
C729 C728 1.390 . S
C729 C730 1.394 . S
C729 C735 1.465 . S
C730 C725 1.399 . S
C730 C729 1.394 . S
C730 C731 1.516 . S
C731 C730 1.516 . S
C731 C732 1.502 . S
C731 C733 1.561 . S
C731 C734 1.526 . S
C732 H716 0.959 . S
C732 H717 0.959 . S
C732 H718 0.961 . S
C732 C731 1.502 . S
C733 H719 0.960 . S
C733 H720 0.961 . S
C733 H721 0.959 . S
C733 C731 1.561 . S
C734 C731 1.526 . S
C734 C735 1.396 . S
C734 C739 1.390 . S
C735 C729 1.465 . S
C735 C734 1.396 . S
C735 C736 1.399 . S
C736 H722 0.929 . S
C736 C735 1.399 . S
C736 C737 1.385 . S
C737 H723 0.931 . S
C737 C736 1.385 . S
C737 C738 1.389 . S
C738 C737 1.389 . S
C738 C739 1.387 . S
C739 H724 0.930 . S
C739 C734 1.390 . S
C739 C738 1.387 . S
H740 C752 0.930 . S
H741 C754 0.930 . S
H742 C755 0.930 . S
H743 C759 0.959 . S
H744 C759 0.959 . S
H745 C759 0.961 . S
H746 C760 0.960 . S
H747 C760 0.961 . S
H748 C760 0.959 . S
H749 C763 0.929 . S
H750 C764 0.931 . S
H751 C766 0.930 . S
C752 H740 0.930 . S
C752 C753 1.399 . S
C752 C757 1.399 . S
C753 C752 1.399 . S
C753 C754 1.376 . S
C754 H741 0.930 . S
C754 C753 1.376 . S
C754 C755 1.388 . S
C755 H742 0.930 . S
C755 C754 1.388 . S
C755 C756 1.390 . S
C756 C755 1.390 . S
C756 C757 1.394 . S
C756 C762 1.465 . S
C757 C752 1.399 . S
C757 C756 1.394 . S
C757 C758 1.516 . S
C758 C757 1.516 . S
C758 C759 1.502 . S
C758 C760 1.561 . S
C758 C761 1.526 . S
C759 H743 0.959 . S
C759 H744 0.959 . S
C759 H745 0.961 . S
C759 C758 1.502 . S
C760 H746 0.960 . S
C760 H747 0.961 . S
C760 H748 0.959 . S
C760 C758 1.561 . S
C761 C758 1.526 . S
C761 C762 1.396 . S
C761 C766 1.390 . S
C762 C756 1.465 . S
C762 C761 1.396 . S
C762 C763 1.399 . S
C763 H749 0.929 . S
C763 C762 1.399 . S
C763 C764 1.385 . S
C764 H750 0.931 . S
C764 C763 1.385 . S
C764 C765 1.389 . S
C765 C764 1.389 . S
C765 C766 1.387 . S
C766 H751 0.930 . S
C766 C761 1.390 . S
C766 C765 1.387 . S
H767 C779 0.930 . S
H768 C781 0.930 . S
H769 C782 0.930 . S
H770 C786 0.959 . S
H771 C786 0.959 . S
H772 C786 0.961 . S
H773 C787 0.960 . S
H774 C787 0.961 1_556 S
H775 C787 0.959 . S
H776 C790 0.929 . S
H777 C791 0.931 . S
H778 C793 0.930 . S
C779 H767 0.930 . S
C779 C780 1.399 . S
C779 C784 1.399 . S
C780 C779 1.399 . S
C780 C781 1.376 . S
C781 H768 0.930 . S
C781 C780 1.376 . S
C781 C782 1.388 . S
C782 H769 0.930 . S
C782 C781 1.388 . S
C782 C783 1.390 . S
C783 C782 1.390 . S
C783 C784 1.394 . S
C783 C789 1.465 1_554 S
C784 C779 1.399 . S
C784 C783 1.394 . S
C784 C785 1.516 1_554 S
C785 C784 1.516 1_556 S
C785 C786 1.502 . S
C785 C787 1.561 1_556 S
C785 C788 1.526 . S
C786 H770 0.959 . S
C786 H771 0.959 . S
C786 H772 0.961 . S
C786 C785 1.502 . S
C787 H773 0.960 . S
C787 H774 0.961 1_554 S
C787 H775 0.959 . S
C787 C785 1.561 1_554 S
C788 C785 1.526 . S
C788 C789 1.396 . S
C788 C793 1.390 . S
C789 C783 1.465 1_556 S
C789 C788 1.396 . S
C789 C790 1.399 . S
C790 H776 0.929 . S
C790 C789 1.399 . S
C790 C791 1.385 . S
C791 H777 0.931 . S
C791 C790 1.385 . S
C791 C792 1.389 . S
C792 C791 1.389 . S
C792 C793 1.387 . S
C793 H778 0.930 . S
C793 C788 1.390 . S
C793 C792 1.387 . S
H794 C806 0.930 . S
H795 C808 0.930 . S
H796 C809 0.930 . S
H797 C813 0.959 . S
H798 C813 0.959 . S
H799 C813 0.961 . S
H800 C814 0.960 . S
H801 C814 0.961 . S
H802 C814 0.959 . S
H803 C817 0.929 . S
H804 C818 0.931 . S
H805 C820 0.930 . S
C806 H794 0.930 . S
C806 C807 1.399 . S
C806 C811 1.399 . S
C807 C806 1.399 . S
C807 C808 1.376 . S
C808 H795 0.930 . S
C808 C807 1.376 . S
C808 C809 1.388 . S
C809 H796 0.930 . S
C809 C808 1.388 . S
C809 C810 1.390 . S
C810 C809 1.390 . S
C810 C811 1.394 . S
C810 C816 1.465 . S
C811 C806 1.399 . S
C811 C810 1.394 . S
C811 C812 1.516 . S
C812 C811 1.516 . S
C812 C813 1.502 . S
C812 C814 1.561 . S
C812 C815 1.526 . S
C813 H797 0.959 . S
C813 H798 0.959 . S
C813 H799 0.961 . S
C813 C812 1.502 . S
C814 H800 0.960 . S
C814 H801 0.961 . S
C814 H802 0.959 . S
C814 C812 1.561 . S
C815 C812 1.526 . S
C815 C816 1.396 . S
C815 C820 1.390 . S
C816 C810 1.465 . S
C816 C815 1.396 . S
C816 C817 1.399 . S
C817 H803 0.929 . S
C817 C816 1.399 . S
C817 C818 1.385 . S
C818 H804 0.931 . S
C818 C817 1.385 . S
C818 C819 1.389 . S
C819 C818 1.389 . S
C819 C820 1.387 . S
C820 H805 0.930 . S
C820 C815 1.390 . S
C820 C819 1.387 . S
H821 C833 0.930 . S
H822 C835 0.930 . S
H823 C836 0.930 . S
H824 C840 0.959 . S
H825 C840 0.959 . S
H826 C840 0.961 . S
H827 C841 0.960 . S
H828 C841 0.961 . S
H829 C841 0.959 . S
H830 C844 0.929 . S
H831 C845 0.931 . S
H832 C847 0.930 . S
C833 H821 0.930 . S
C833 C834 1.399 . S
C833 C838 1.399 . S
C834 C833 1.399 . S
C834 C835 1.376 . S
C835 H822 0.930 . S
C835 C834 1.376 . S
C835 C836 1.388 . S
C836 H823 0.930 . S
C836 C835 1.388 . S
C836 C837 1.390 . S
C837 C836 1.390 . S
C837 C838 1.394 . S
C837 C843 1.465 . S
C838 C833 1.399 . S
C838 C837 1.394 . S
C838 C839 1.516 . S
C839 C838 1.516 . S
C839 C840 1.502 . S
C839 C841 1.561 . S
C839 C842 1.526 . S
C840 H824 0.959 . S
C840 H825 0.959 . S
C840 H826 0.961 . S
C840 C839 1.502 . S
C841 H827 0.960 . S
C841 H828 0.961 . S
C841 H829 0.959 . S
C841 C839 1.561 . S
C842 C839 1.526 . S
C842 C843 1.396 . S
C842 C847 1.390 . S
C843 C837 1.465 . S
C843 C842 1.396 . S
C843 C844 1.399 . S
C844 H830 0.929 . S
C844 C843 1.399 . S
C844 C845 1.385 . S
C845 H831 0.931 . S
C845 C844 1.385 . S
C845 C846 1.389 . S
C846 C845 1.389 . S
C846 C847 1.387 . S
C847 H832 0.930 . S
C847 C842 1.390 . S
C847 C846 1.387 . S
H848 C860 0.930 . S
H849 C862 0.930 . S
H850 C863 0.930 . S
H851 C867 0.967 . S
H852 C867 0.949 1_565 S
H853 C867 0.994 . S
H854 C868 0.960 . S
H855 C868 0.961 . S
H856 C868 0.959 . S
H857 C871 0.929 . S
H858 C872 0.931 . S
H859 C874 0.930 . S
C860 H848 0.930 . S
C860 C861 1.399 . S
C860 C865 1.399 1_545 S
C861 C860 1.399 . S
C861 C862 1.376 1_545 S
C862 H849 0.930 . S
C862 C861 1.376 1_565 S
C862 C863 1.388 . S
C863 H850 0.930 . S
C863 C862 1.388 . S
C863 C864 1.390 . S
C864 C863 1.390 . S
C864 C865 1.394 . S
C864 C870 1.465 . S
C865 C860 1.399 1_565 S
C865 C864 1.394 . S
C865 C866 1.516 . S
C866 C865 1.516 . S
C866 C867 1.473 1_565 S
C866 C868 1.561 . S
C866 C869 1.526 . S
C867 H851 0.967 . S
C867 H852 0.949 1_545 S
C867 H853 0.994 . S
C867 C866 1.473 1_545 S
C868 H854 0.960 . S
C868 H855 0.961 . S
C868 H856 0.959 . S
C868 C866 1.561 . S
C869 C866 1.526 . S
C869 C870 1.396 . S
C869 C874 1.390 . S
C870 C864 1.465 . S
C870 C869 1.396 . S
C870 C871 1.399 . S
C871 H857 0.929 . S
C871 C870 1.399 . S
C871 C872 1.385 . S
C872 H858 0.931 . S
C872 C871 1.385 . S
C872 C873 1.389 . S
C873 C872 1.389 . S
C873 C874 1.387 . S
C874 H859 0.930 . S
C874 C869 1.390 . S
C874 C873 1.387 . S
H875 C887 0.930 . S
H876 C889 0.930 . S
H877 C890 0.930 . S
H878 C894 0.959 . S
H879 C894 0.959 . S
H880 C894 0.961 . S
H881 C895 0.960 . S
H882 C895 0.961 . S
H883 C895 0.959 . S
H884 C898 0.929 . S
H885 C899 0.931 . S
H886 C901 0.930 . S
C887 H875 0.930 . S
C887 C888 1.399 . S
C887 C892 1.399 . S
C888 C887 1.399 . S
C888 C889 1.376 . S
C889 H876 0.930 . S
C889 C888 1.376 . S
C889 C890 1.388 . S
C890 H877 0.930 . S
C890 C889 1.388 . S
C890 C891 1.390 . S
C891 C890 1.390 . S
C891 C892 1.394 . S
C891 C897 1.465 . S
C892 C887 1.399 . S
C892 C891 1.394 . S
C892 C893 1.516 . S
C893 C892 1.516 . S
C893 C894 1.502 . S
C893 C895 1.561 . S
C893 C896 1.526 . S
C894 H878 0.959 . S
C894 H879 0.959 . S
C894 H880 0.961 . S
C894 C893 1.502 . S
C895 H881 0.960 . S
C895 H882 0.961 . S
C895 H883 0.959 . S
C895 C893 1.561 . S
C896 C893 1.526 . S
C896 C897 1.396 . S
C896 C901 1.390 . S
C897 C891 1.465 . S
C897 C896 1.396 . S
C897 C898 1.399 1_545 S
C898 H884 0.929 . S
C898 C897 1.399 1_565 S
C898 C899 1.385 . S
C899 H885 0.931 . S
C899 C898 1.385 . S
C899 C900 1.389 . S
C900 C899 1.389 . S
C900 C901 1.387 1_565 S
C901 H886 0.930 . S
C901 C896 1.390 . S
C901 C900 1.387 1_545 S
H902 C914 0.930 . S
H903 C916 0.930 . S
H904 C917 0.930 . S
H905 C921 0.959 . S
H906 C921 0.959 . S
H907 C921 0.961 . S
H908 C922 0.960 . S
H909 C922 0.961 . S
H910 C922 0.959 . S
H911 C925 0.929 . S
H912 C926 0.931 . S
H913 C928 0.930 . S
C914 H902 0.930 . S
C914 C915 1.399 1_545 S
C914 C919 1.399 . S
C915 C914 1.399 1_565 S
C915 C916 1.376 . S
C916 H903 0.930 . S
C916 C915 1.376 . S
C916 C917 1.388 . S
C917 H904 0.930 . S
C917 C916 1.388 . S
C917 C918 1.390 1_565 S
C918 C917 1.390 1_545 S
C918 C919 1.394 . S
C918 C924 1.465 . S
C919 C914 1.399 . S
C919 C918 1.394 . S
C919 C920 1.516 . S
C920 C919 1.516 . S
C920 C921 1.502 . S
C920 C922 1.561 . S
C920 C923 1.526 . S
C921 H905 0.959 . S
C921 H906 0.959 . S
C921 H907 0.961 . S
C921 C920 1.502 . S
C922 H908 0.960 . S
C922 H909 0.961 . S
C922 H910 0.959 . S
C922 C920 1.561 . S
C923 C920 1.526 . S
C923 C924 1.396 . S
C923 C928 1.390 . S
C924 C918 1.465 . S
C924 C923 1.396 . S
C924 C925 1.399 . S
C925 H911 0.929 . S
C925 C924 1.399 . S
C925 C926 1.385 . S
C926 H912 0.931 . S
C926 C925 1.385 . S
C926 C927 1.389 . S
C927 C926 1.389 . S
C927 C928 1.387 . S
C928 H913 0.930 . S
C928 C923 1.390 . S
C928 C927 1.387 . S
H929 C941 0.930 . S
H930 C943 0.930 1_545 S
H931 C944 0.930 . S
H932 C948 0.959 . S
H933 C948 0.959 . S
H934 C948 0.961 . S
H935 C949 0.944 1_545 S
H936 C949 0.967 . S
H937 C949 0.954 1_545 S
H938 C952 0.929 . S
H939 C953 0.931 . S
H940 C955 0.930 . S
C941 H929 0.930 . S
C941 C942 1.399 . S
C941 C946 1.399 1_545 S
C942 C941 1.399 . S
C942 C943 1.376 1_545 S
C943 H930 0.930 1_565 S
C943 C942 1.376 1_565 S
C943 C944 1.388 . S
C944 H931 0.930 . S
C944 C943 1.388 . S
C944 C945 1.390 . S
C945 C944 1.390 . S
C945 C946 1.394 . S
C945 C951 1.465 . S
C946 C941 1.399 1_565 S
C946 C945 1.394 . S
C946 C947 1.516 . S
C947 C946 1.516 . S
C947 C948 1.502 . S
C947 C949 1.576 . S
C947 C950 1.526 . S
C948 H932 0.959 . S
C948 H933 0.959 . S
C948 H934 0.961 . S
C948 C947 1.502 . S
C949 H935 0.944 1_565 S
C949 H936 0.967 . S
C949 H937 0.954 1_565 S
C949 C947 1.576 . S
C950 C947 1.526 . S
C950 C951 1.396 . S
C950 C955 1.390 . S
C951 C945 1.465 . S
C951 C950 1.396 . S
C951 C952 1.399 . S
C952 H938 0.929 . S
C952 C951 1.399 . S
C952 C953 1.385 . S
C953 H939 0.931 . S
C953 C952 1.385 . S
C953 C954 1.389 . S
C954 C953 1.389 . S
C954 C955 1.387 . S
C955 H940 0.930 . S
C955 C950 1.390 . S
C955 C954 1.387 . S
H956 C968 0.930 . S
H957 C970 0.930 . S
H958 C971 0.930 . S
H959 C975 0.959 . S
H960 C975 0.959 . S
H961 C975 0.961 . S
H962 C976 0.960 . S
H963 C976 0.961 . S
H964 C976 0.959 . S
H965 C979 0.929 1_565 S
H966 C980 0.931 . S
H967 C982 0.930 . S
C968 H956 0.930 . S
C968 C969 1.399 . S
C968 C973 1.399 . S
C969 C968 1.399 . S
C969 C970 1.376 . S
C970 H957 0.930 . S
C970 C969 1.376 . S
C970 C971 1.388 . S
C971 H958 0.930 . S
C971 C970 1.388 . S
C971 C972 1.390 . S
C972 C971 1.390 . S
C972 C973 1.394 . S
C972 C978 1.465 . S
C973 C968 1.399 . S
C973 C972 1.394 . S
C973 C974 1.516 . S
C974 C973 1.516 . S
C974 C975 1.502 . S
C974 C976 1.561 . S
C974 C977 1.526 . S
C975 H959 0.959 . S
C975 H960 0.959 . S
C975 H961 0.961 . S
C975 C974 1.502 . S
C976 H962 0.960 . S
C976 H963 0.961 . S
C976 H964 0.959 . S
C976 C974 1.561 . S
C977 C974 1.526 . S
C977 C978 1.396 . S
C977 C982 1.390 . S
C978 C972 1.465 . S
C978 C977 1.396 . S
C978 C979 1.402 . S
C979 H965 0.929 1_545 S
C979 C978 1.402 . S
C979 C980 1.382 1_545 S
C980 H966 0.931 . S
C980 C979 1.382 1_565 S
C980 C981 1.389 . S
C981 C980 1.389 . S
C981 C982 1.387 1_565 S
C982 H967 0.930 . S
C982 C977 1.390 . S
C982 C981 1.387 1_545 S
H983 C995 0.930 . S
H984 C997 0.930 . S
H985 C998 0.930 . S
H986 C1002 0.959 . S
H987 C1002 0.959 . S
H988 C1002 0.961 . S
H989 C1003 0.960 . S
H990 C1003 0.961 . S
H991 C1003 0.959 . S
H992 C1006 0.929 . S
H993 C1007 0.931 . S
H994 C1009 0.930 . S
C995 H983 0.930 . S
C995 C996 1.399 . S
C995 C1000 1.399 1_545 S
C996 C995 1.399 . S
C996 C997 1.376 1_545 S
C997 H984 0.930 . S
C997 C996 1.376 1_565 S
C997 C998 1.388 . S
C998 H985 0.930 . S
C998 C997 1.388 . S
C998 C999 1.390 . S
C999 C998 1.390 . S
C999 C1000 1.394 . S
C999 C1005 1.465 . S
C1000 C995 1.399 1_565 S
C1000 C999 1.394 . S
C1000 C1001 1.516 . S
C1001 C1000 1.516 . S
C1001 C1002 1.502 1_565 S
C1001 C1003 1.561 . S
C1001 C1004 1.526 . S
C1002 H986 0.959 . S
C1002 H987 0.959 . S
C1002 H988 0.961 . S
C1002 C1001 1.502 1_545 S
C1003 H989 0.960 . S
C1003 H990 0.961 . S
C1003 H991 0.959 . S
C1003 C1001 1.561 . S
C1004 C1001 1.526 . S
C1004 C1005 1.396 . S
C1004 C1009 1.390 . S
C1005 C999 1.465 . S
C1005 C1004 1.396 . S
C1005 C1006 1.399 . S
C1006 H992 0.929 . S
C1006 C1005 1.399 . S
C1006 C1007 1.385 . S
C1007 H993 0.931 . S
C1007 C1006 1.385 . S
C1007 C1008 1.389 . S
C1008 C1007 1.389 . S
C1008 C1009 1.387 . S
C1009 H994 0.930 . S
C1009 C1004 1.390 . S
C1009 C1008 1.387 . S
H1010 C1022 0.930 . S
H1011 C1024 0.930 . S
H1012 C1025 0.930 . S
H1013 C1029 0.959 . S
H1014 C1029 0.959 . S
H1015 C1029 0.961 . S
H1016 C1030 0.960 . S
H1017 C1030 0.961 . S
H1018 C1030 0.959 . S
H1019 C1033 0.929 . S
H1020 C1034 0.931 . S
H1021 C1036 0.930 . S
C1022 H1010 0.930 . S
C1022 C1023 1.399 . S
C1022 C1027 1.399 . S
C1023 C1022 1.399 . S
C1023 C1024 1.376 . S
C1024 H1011 0.930 . S
C1024 C1023 1.376 . S
C1024 C1025 1.388 . S
C1025 H1012 0.930 . S
C1025 C1024 1.388 . S
C1025 C1026 1.390 . S
C1026 C1025 1.390 . S
C1026 C1027 1.394 . S
C1026 C1032 1.465 . S
C1027 C1022 1.399 . S
C1027 C1026 1.394 . S
C1027 C1028 1.516 . S
C1028 C1027 1.516 . S
C1028 C1029 1.502 . S
C1028 C1030 1.561 . S
C1028 C1031 1.526 . S
C1029 H1013 0.959 . S
C1029 H1014 0.959 . S
C1029 H1015 0.961 . S
C1029 C1028 1.502 . S
C1030 H1016 0.960 . S
C1030 H1017 0.961 . S
C1030 H1018 0.959 . S
C1030 C1028 1.561 . S
C1031 C1028 1.526 . S
C1031 C1032 1.396 . S
C1031 C1036 1.390 . S
C1032 C1026 1.465 . S
C1032 C1031 1.396 . S
C1032 C1033 1.399 1_565 S
C1033 H1019 0.929 . S
C1033 C1032 1.399 1_545 S
C1033 C1034 1.385 . S
C1034 H1020 0.931 . S
C1034 C1033 1.385 . S
C1034 C1035 1.389 . S
C1035 C1034 1.389 . S
C1035 C1036 1.387 1_545 S
C1036 H1021 0.930 . S
C1036 C1031 1.390 . S
C1036 C1035 1.387 1_565 S
H1037 C1049 0.930 . S
H1038 C1051 0.930 . S
H1039 C1052 0.930 . S
H1040 C1056 0.959 1_565 S
H1041 C1056 0.959 1_565 S
H1042 C1056 0.961 . S
H1043 C1057 0.960 . S
H1044 C1057 0.961 . S
H1045 C1057 0.959 . S
H1046 C1060 0.929 . S
H1047 C1061 0.931 . S
H1048 C1063 0.930 . S
C1049 H1037 0.930 . S
C1049 C1050 1.399 . S
C1049 C1054 1.399 . S
C1050 C1049 1.399 . S
C1050 C1051 1.376 . S
C1051 H1038 0.930 . S
C1051 C1050 1.376 . S
C1051 C1052 1.388 . S
C1052 H1039 0.930 . S
C1052 C1051 1.388 . S
C1052 C1053 1.390 . S
C1053 C1052 1.390 . S
C1053 C1054 1.394 . S
C1053 C1059 1.465 . S
C1054 C1049 1.399 . S
C1054 C1053 1.394 . S
C1054 C1055 1.516 . S
C1055 C1054 1.516 . S
C1055 C1056 1.502 . S
C1055 C1057 1.561 . S
C1055 C1058 1.526 . S
C1056 H1040 0.959 1_545 S
C1056 H1041 0.959 1_545 S
C1056 H1042 0.961 . S
C1056 C1055 1.502 . S
C1057 H1043 0.960 . S
C1057 H1044 0.961 . S
C1057 H1045 0.959 . S
C1057 C1055 1.561 . S
C1058 C1055 1.526 . S
C1058 C1059 1.396 . S
C1058 C1063 1.390 1_545 S
C1059 C1053 1.465 . S
C1059 C1058 1.396 . S
C1059 C1060 1.399 . S
C1060 H1046 0.929 . S
C1060 C1059 1.399 . S
C1060 C1061 1.385 . S
C1061 H1047 0.931 . S
C1061 C1060 1.385 . S
C1061 C1062 1.389 1_545 S
C1062 C1061 1.389 1_565 S
C1062 C1063 1.387 . S
C1063 H1048 0.930 . S
C1063 C1058 1.390 1_565 S
C1063 C1062 1.387 . S
H1064 C1076 0.930 . S
H1065 C1078 0.930 . S
H1066 C1079 0.930 . S
H1067 C1083 0.959 . S
H1068 C1083 0.959 . S
H1069 C1083 0.961 . S
H1070 C1084 0.960 . S
H1071 C1084 0.961 . S
H1072 C1084 0.959 . S
H1073 C1087 0.929 . S
H1074 C1088 0.931 . S
H1075 C1090 0.930 . S
C1076 H1064 0.930 . S
C1076 C1077 1.399 . S
C1076 C1081 1.399 . S
C1077 C1076 1.399 . S
C1077 C1078 1.376 . S
C1078 H1065 0.930 . S
C1078 C1077 1.376 . S
C1078 C1079 1.388 . S
C1079 H1066 0.930 . S
C1079 C1078 1.388 . S
C1079 C1080 1.390 . S
C1080 C1079 1.390 . S
C1080 C1081 1.394 . S
C1080 C1086 1.465 . S
C1081 C1076 1.399 . S
C1081 C1080 1.394 . S
C1081 C1082 1.516 . S
C1082 C1081 1.516 . S
C1082 C1083 1.502 . S
C1082 C1084 1.561 . S
C1082 C1085 1.526 . S
C1083 H1067 0.959 . S
C1083 H1068 0.959 . S
C1083 H1069 0.961 . S
C1083 C1082 1.502 . S
C1084 H1070 0.960 . S
C1084 H1071 0.961 . S
C1084 H1072 0.959 . S
C1084 C1082 1.561 . S
C1085 C1082 1.526 . S
C1085 C1086 1.396 . S
C1085 C1090 1.390 . S
C1086 C1080 1.465 . S
C1086 C1085 1.396 . S
C1086 C1087 1.399 . S
C1087 H1073 0.929 . S
C1087 C1086 1.399 . S
C1087 C1088 1.385 . S
C1088 H1074 0.931 . S
C1088 C1087 1.385 . S
C1088 C1089 1.389 . S
C1089 C1088 1.389 . S
C1089 C1090 1.387 . S
C1090 H1075 0.930 . S
C1090 C1085 1.390 . S
C1090 C1089 1.387 . S
H1091 C1103 0.930 . S
H1092 C1105 0.930 . S
H1093 C1106 0.930 . S
H1094 C1110 0.959 . S
H1095 C1110 0.959 . S
H1096 C1110 0.961 . S
H1097 C1111 0.960 . S
H1098 C1111 0.961 . S
H1099 C1111 0.959 . S
H1100 C1114 0.929 . S
H1101 C1115 0.931 . S
H1102 C1117 0.930 . S
C1103 H1091 0.930 . S
C1103 C1104 1.399 . S
C1103 C1108 1.399 . S
C1104 C1103 1.399 . S
C1104 C1105 1.376 . S
C1105 H1092 0.930 . S
C1105 C1104 1.376 . S
C1105 C1106 1.388 . S
C1106 H1093 0.930 . S
C1106 C1105 1.388 . S
C1106 C1107 1.390 . S
C1107 C1106 1.390 . S
C1107 C1108 1.394 . S
C1107 C1113 1.465 . S
C1108 C1103 1.399 . S
C1108 C1107 1.394 . S
C1108 C1109 1.516 . S
C1109 C1108 1.516 . S
C1109 C1110 1.502 . S
C1109 C1111 1.561 . S
C1109 C1112 1.526 . S
C1110 H1094 0.959 . S
C1110 H1095 0.959 . S
C1110 H1096 0.961 . S
C1110 C1109 1.502 . S
C1111 H1097 0.960 . S
C1111 H1098 0.961 . S
C1111 H1099 0.959 . S
C1111 C1109 1.561 . S
C1112 C1109 1.526 . S
C1112 C1113 1.396 . S
C1112 C1117 1.390 . S
C1113 C1107 1.465 . S
C1113 C1112 1.396 . S
C1113 C1114 1.399 . S
C1114 H1100 0.929 . S
C1114 C1113 1.399 . S
C1114 C1115 1.385 . S
C1115 H1101 0.931 . S
C1115 C1114 1.385 . S
C1115 C1116 1.389 . S
C1116 C1115 1.389 . S
C1116 C1117 1.387 . S
C1117 H1102 0.930 . S
C1117 C1112 1.390 . S
C1117 C1116 1.387 . S
H1118 C1130 0.930 . S
H1119 C1132 0.930 . S
H1120 C1133 0.930 . S
H1121 C1137 0.959 . S
H1122 C1137 0.959 . S
H1123 C1137 0.961 . S
H1124 C1138 0.960 . S
H1125 C1138 0.961 . S
H1126 C1138 0.959 . S
H1127 C1141 0.929 . S
H1128 C1142 0.931 . S
H1129 C1144 0.930 . S
C1130 H1118 0.930 . S
C1130 C1131 1.399 . S
C1130 C1135 1.399 . S
C1131 C1130 1.399 . S
C1131 C1132 1.376 . S
C1132 H1119 0.930 . S
C1132 C1131 1.376 . S
C1132 C1133 1.388 . S
C1133 H1120 0.930 . S
C1133 C1132 1.388 . S
C1133 C1134 1.390 . S
C1134 C1133 1.390 . S
C1134 C1135 1.394 . S
C1134 C1140 1.465 . S
C1135 C1130 1.399 . S
C1135 C1134 1.394 . S
C1135 C1136 1.516 . S
C1136 C1135 1.516 . S
C1136 C1137 1.502 . S
C1136 C1138 1.561 . S
C1136 C1139 1.526 . S
C1137 H1121 0.959 . S
C1137 H1122 0.959 . S
C1137 H1123 0.961 . S
C1137 C1136 1.502 . S
C1138 H1124 0.960 . S
C1138 H1125 0.961 . S
C1138 H1126 0.959 . S
C1138 C1136 1.561 . S
C1139 C1136 1.526 . S
C1139 C1140 1.396 . S
C1139 C1144 1.390 . S
C1140 C1134 1.465 . S
C1140 C1139 1.396 . S
C1140 C1141 1.399 . S
C1141 H1127 0.929 . S
C1141 C1140 1.399 . S
C1141 C1142 1.385 . S
C1142 H1128 0.931 . S
C1142 C1141 1.385 . S
C1142 C1143 1.389 . S
C1143 C1142 1.389 . S
C1143 C1144 1.387 . S
C1144 H1129 0.930 . S
C1144 C1139 1.390 . S
C1144 C1143 1.387 . S
H1145 C1157 0.930 . S
H1146 C1159 0.930 . S
H1147 C1160 0.930 . S
H1148 C1164 0.959 . S
H1149 C1164 0.959 . S
H1150 C1164 0.961 . S
H1151 C1165 0.960 . S
H1152 C1165 0.961 . S
H1153 C1165 0.959 . S
H1154 C1168 0.929 . S
H1155 C1169 0.931 . S
H1156 C1171 0.930 . S
C1157 H1145 0.930 . S
C1157 C1158 1.399 . S
C1157 C1162 1.399 . S
C1158 C1157 1.399 . S
C1158 C1159 1.376 . S
C1159 H1146 0.930 . S
C1159 C1158 1.376 . S
C1159 C1160 1.388 . S
C1160 H1147 0.930 . S
C1160 C1159 1.388 . S
C1160 C1161 1.390 . S
C1161 C1160 1.390 . S
C1161 C1162 1.394 . S
C1161 C1167 1.465 . S
C1162 C1157 1.399 . S
C1162 C1161 1.394 . S
C1162 C1163 1.516 . S
C1163 C1162 1.516 . S
C1163 C1164 1.502 . S
C1163 C1165 1.561 . S
C1163 C1166 1.526 . S
C1164 H1148 0.959 . S
C1164 H1149 0.959 . S
C1164 H1150 0.961 . S
C1164 C1163 1.502 . S
C1165 H1151 0.960 . S
C1165 H1152 0.961 . S
C1165 H1153 0.959 . S
C1165 C1163 1.561 . S
C1166 C1163 1.526 . S
C1166 C1167 1.396 . S
C1166 C1171 1.390 . S
C1167 C1161 1.465 . S
C1167 C1166 1.396 . S
C1167 C1168 1.399 . S
C1168 H1154 0.929 . S
C1168 C1167 1.399 . S
C1168 C1169 1.385 . S
C1169 H1155 0.931 . S
C1169 C1168 1.385 . S
C1169 C1170 1.389 . S
C1170 C1169 1.389 . S
C1170 C1171 1.387 . S
C1171 H1156 0.930 . S
C1171 C1166 1.390 . S
C1171 C1170 1.387 . S
H1172 C1184 0.930 . S
H1173 C1186 0.930 . S
H1174 C1187 0.930 . S
H1175 C1191 0.959 . S
H1176 C1191 0.959 . S
H1177 C1191 0.961 . S
H1178 C1192 0.960 . S
H1179 C1192 0.961 . S
H1180 C1192 0.959 . S
H1181 C1195 0.929 . S
H1182 C1196 0.931 . S
H1183 C1198 0.930 . S
C1184 H1172 0.930 . S
C1184 C1185 1.399 . S
C1184 C1189 1.399 . S
C1185 C1184 1.399 . S
C1185 C1186 1.376 . S
C1186 H1173 0.930 . S
C1186 C1185 1.376 . S
C1186 C1187 1.388 . S
C1187 H1174 0.930 . S
C1187 C1186 1.388 . S
C1187 C1188 1.390 . S
C1188 C1187 1.390 . S
C1188 C1189 1.394 . S
C1188 C1194 1.465 . S
C1189 C1184 1.399 . S
C1189 C1188 1.394 . S
C1189 C1190 1.516 . S
C1190 C1189 1.516 . S
C1190 C1191 1.502 . S
C1190 C1192 1.561 . S
C1190 C1193 1.526 . S
C1191 H1175 0.959 . S
C1191 H1176 0.959 . S
C1191 H1177 0.961 . S
C1191 C1190 1.502 . S
C1192 H1178 0.960 . S
C1192 H1179 0.961 . S
C1192 H1180 0.959 . S
C1192 C1190 1.561 . S
C1193 C1190 1.526 . S
C1193 C1194 1.396 . S
C1193 C1198 1.390 . S
C1194 C1188 1.465 . S
C1194 C1193 1.396 . S
C1194 C1195 1.399 . S
C1195 H1181 0.929 . S
C1195 C1194 1.399 . S
C1195 C1196 1.385 . S
C1196 H1182 0.931 . S
C1196 C1195 1.385 . S
C1196 C1197 1.389 . S
C1197 C1196 1.389 . S
C1197 C1198 1.387 . S
C1198 H1183 0.930 . S
C1198 C1193 1.390 . S
C1198 C1197 1.387 . S
H1199 C1211 0.930 . S
H1200 C1213 0.930 . S
H1201 C1214 0.930 . S
H1202 C1218 0.959 . S
H1203 C1218 0.959 . S
H1204 C1218 0.961 . S
H1205 C1219 0.960 . S
H1206 C1219 0.961 . S
H1207 C1219 0.959 . S
H1208 C1222 0.929 . S
H1209 C1223 0.931 . S
H1210 C1225 0.930 . S
C1211 H1199 0.930 . S
C1211 C1212 1.399 . S
C1211 C1216 1.399 . S
C1212 C1211 1.399 . S
C1212 C1213 1.376 . S
C1213 H1200 0.930 . S
C1213 C1212 1.376 . S
C1213 C1214 1.388 . S
C1214 H1201 0.930 . S
C1214 C1213 1.388 . S
C1214 C1215 1.390 . S
C1215 C1214 1.390 . S
C1215 C1216 1.394 . S
C1215 C1221 1.465 . S
C1216 C1211 1.399 . S
C1216 C1215 1.394 . S
C1216 C1217 1.516 . S
C1217 C1216 1.516 . S
C1217 C1218 1.502 . S
C1217 C1219 1.561 . S
C1217 C1220 1.526 . S
C1218 H1202 0.959 . S
C1218 H1203 0.959 . S
C1218 H1204 0.961 . S
C1218 C1217 1.502 . S
C1219 H1205 0.960 . S
C1219 H1206 0.961 . S
C1219 H1207 0.959 . S
C1219 C1217 1.561 . S
C1220 C1217 1.526 . S
C1220 C1221 1.396 . S
C1220 C1225 1.390 . S
C1221 C1215 1.465 . S
C1221 C1220 1.396 . S
C1221 C1222 1.399 . S
C1222 H1208 0.929 . S
C1222 C1221 1.399 . S
C1222 C1223 1.385 . S
C1223 H1209 0.931 . S
C1223 C1222 1.385 . S
C1223 C1224 1.389 . S
C1224 C1223 1.389 . S
C1224 C1225 1.387 . S
C1225 H1210 0.930 . S
C1225 C1220 1.390 . S
C1225 C1224 1.387 . S
H1226 C1238 0.930 . S
H1227 C1240 0.930 . S
H1228 C1241 0.930 . S
H1229 C1245 0.959 . S
H1230 C1245 0.959 . S
H1231 C1245 0.961 . S
H1232 C1246 0.960 . S
H1233 C1246 0.961 . S
H1234 C1246 0.959 . S
H1235 C1249 0.929 . S
H1236 C1250 0.931 . S
H1237 C1252 0.930 . S
C1238 H1226 0.930 . S
C1238 C1239 1.399 . S
C1238 C1243 1.399 . S
C1239 C1238 1.399 . S
C1239 C1240 1.376 . S
C1240 H1227 0.930 . S
C1240 C1239 1.376 . S
C1240 C1241 1.388 . S
C1241 H1228 0.930 . S
C1241 C1240 1.388 . S
C1241 C1242 1.390 . S
C1242 C1241 1.390 . S
C1242 C1243 1.394 . S
C1242 C1248 1.465 . S
C1243 C1238 1.399 . S
C1243 C1242 1.394 . S
C1243 C1244 1.516 . S
C1244 C1243 1.516 . S
C1244 C1245 1.502 . S
C1244 C1246 1.561 . S
C1244 C1247 1.526 . S
C1245 H1229 0.959 . S
C1245 H1230 0.959 . S
C1245 H1231 0.961 . S
C1245 C1244 1.502 . S
C1246 H1232 0.960 . S
C1246 H1233 0.961 . S
C1246 H1234 0.959 . S
C1246 C1244 1.561 . S
C1247 C1244 1.526 . S
C1247 C1248 1.396 . S
C1247 C1252 1.390 . S
C1248 C1242 1.465 . S
C1248 C1247 1.396 . S
C1248 C1249 1.399 . S
C1249 H1235 0.929 . S
C1249 C1248 1.399 . S
C1249 C1250 1.385 . S
C1250 H1236 0.931 . S
C1250 C1249 1.385 . S
C1250 C1251 1.389 . S
C1251 C1250 1.389 . S
C1251 C1252 1.387 . S
C1252 H1237 0.930 . S
C1252 C1247 1.390 . S
C1252 C1251 1.387 . S
H1253 C1265 0.930 . S
H1254 C1267 0.930 . S
H1255 C1268 0.930 . S
H1256 C1272 0.959 . S
H1257 C1272 0.959 . S
H1258 C1272 0.961 . S
H1259 C1273 0.960 . S
H1260 C1273 0.961 . S
H1261 C1273 0.959 . S
H1262 C1276 0.929 . S
H1263 C1277 0.931 . S
H1264 C1279 0.930 . S
C1265 H1253 0.930 . S
C1265 C1266 1.399 . S
C1265 C1270 1.399 . S
C1266 C1265 1.399 . S
C1266 C1267 1.376 . S
C1267 H1254 0.930 . S
C1267 C1266 1.376 . S
C1267 C1268 1.388 . S
C1268 H1255 0.930 . S
C1268 C1267 1.388 . S
C1268 C1269 1.390 . S
C1269 C1268 1.390 . S
C1269 C1270 1.394 . S
C1269 C1275 1.465 . S
C1270 C1265 1.399 . S
C1270 C1269 1.394 . S
C1270 C1271 1.516 . S
C1271 C1270 1.516 . S
C1271 C1272 1.502 . S
C1271 C1273 1.561 . S
C1271 C1274 1.526 . S
C1272 H1256 0.959 . S
C1272 H1257 0.959 . S
C1272 H1258 0.961 . S
C1272 C1271 1.502 . S
C1273 H1259 0.960 . S
C1273 H1260 0.961 . S
C1273 H1261 0.959 . S
C1273 C1271 1.561 . S
C1274 C1271 1.526 . S
C1274 C1275 1.396 . S
C1274 C1279 1.390 . S
C1275 C1269 1.465 . S
C1275 C1274 1.396 . S
C1275 C1276 1.399 . S
C1276 H1262 0.929 . S
C1276 C1275 1.399 . S
C1276 C1277 1.385 . S
C1277 H1263 0.931 . S
C1277 C1276 1.385 . S
C1277 C1278 1.389 . S
C1278 C1277 1.389 . S
C1278 C1279 1.387 . S
C1279 H1264 0.930 . S
C1279 C1274 1.390 . S
C1279 C1278 1.387 . S
H1280 C1292 0.930 . S
H1281 C1294 0.930 . S
H1282 C1295 0.930 . S
H1283 C1299 0.959 . S
H1284 C1299 0.959 . S
H1285 C1299 0.961 . S
H1286 C1300 0.960 . S
H1287 C1300 0.961 . S
H1288 C1300 0.959 . S
H1289 C1303 0.929 . S
H1290 C1304 0.931 . S
H1291 C1306 0.930 . S
C1292 H1280 0.930 . S
C1292 C1293 1.399 . S
C1292 C1297 1.399 . S
C1293 C1292 1.399 . S
C1293 C1294 1.376 . S
C1294 H1281 0.930 . S
C1294 C1293 1.376 . S
C1294 C1295 1.388 . S
C1295 H1282 0.930 . S
C1295 C1294 1.388 . S
C1295 C1296 1.390 . S
C1296 C1295 1.390 . S
C1296 C1297 1.394 . S
C1296 C1302 1.465 . S
C1297 C1292 1.399 . S
C1297 C1296 1.394 . S
C1297 C1298 1.516 . S
C1298 C1297 1.516 . S
C1298 C1299 1.502 . S
C1298 C1300 1.561 . S
C1298 C1301 1.526 . S
C1299 H1283 0.959 . S
C1299 H1284 0.959 . S
C1299 H1285 0.961 . S
C1299 C1298 1.502 . S
C1300 H1286 0.960 . S
C1300 H1287 0.961 . S
C1300 H1288 0.959 . S
C1300 C1298 1.561 . S
C1301 C1298 1.526 . S
C1301 C1302 1.396 . S
C1301 C1306 1.390 . S
C1302 C1296 1.465 . S
C1302 C1301 1.396 . S
C1302 C1303 1.399 . S
C1303 H1289 0.929 . S
C1303 C1302 1.399 . S
C1303 C1304 1.385 . S
C1304 H1290 0.931 . S
C1304 C1303 1.385 . S
C1304 C1305 1.389 . S
C1305 C1304 1.389 . S
C1305 C1306 1.387 . S
C1306 H1291 0.930 . S
C1306 C1301 1.390 . S
C1306 C1305 1.387 . S
H1307 C1319 0.930 . S
H1308 C1321 0.930 . S
H1309 C1322 0.930 . S
H1310 C1326 0.959 . S
H1311 C1326 0.959 . S
H1312 C1326 0.961 . S
H1313 C1327 0.960 . S
H1314 C1327 0.961 . S
H1315 C1327 0.959 . S
H1316 C1330 0.929 . S
H1317 C1331 0.931 . S
H1318 C1333 0.930 . S
C1319 H1307 0.930 . S
C1319 C1320 1.399 . S
C1319 C1324 1.399 . S
C1320 C1319 1.399 . S
C1320 C1321 1.376 . S
C1321 H1308 0.930 . S
C1321 C1320 1.376 . S
C1321 C1322 1.388 . S
C1322 H1309 0.930 . S
C1322 C1321 1.388 . S
C1322 C1323 1.390 . S
C1323 C1322 1.390 . S
C1323 C1324 1.394 . S
C1323 C1329 1.465 . S
C1324 C1319 1.399 . S
C1324 C1323 1.394 . S
C1324 C1325 1.516 . S
C1325 C1324 1.516 . S
C1325 C1326 1.502 . S
C1325 C1327 1.561 . S
C1325 C1328 1.526 . S
C1326 H1310 0.959 . S
C1326 H1311 0.959 . S
C1326 H1312 0.961 . S
C1326 C1325 1.502 . S
C1327 H1313 0.960 . S
C1327 H1314 0.961 . S
C1327 H1315 0.959 . S
C1327 C1325 1.561 . S
C1328 C1325 1.526 . S
C1328 C1329 1.396 . S
C1328 C1333 1.390 1_455 S
C1329 C1323 1.465 . S
C1329 C1328 1.396 . S
C1329 C1330 1.399 . S
C1330 H1316 0.929 . S
C1330 C1329 1.399 . S
C1330 C1331 1.385 1_455 S
C1331 H1317 0.931 . S
C1331 C1330 1.385 1_655 S
C1331 C1332 1.389 . S
C1332 C1331 1.389 . S
C1332 C1333 1.387 . S
C1333 H1318 0.930 . S
C1333 C1328 1.390 1_655 S
C1333 C1332 1.387 . S
H1334 C1346 0.930 . S
H1335 C1348 0.930 . S
H1336 C1349 0.930 . S
H1337 C1353 0.959 . S
H1338 C1353 0.959 . S
H1339 C1353 0.961 . S
H1340 C1354 0.960 . S
H1341 C1354 0.961 . S
H1342 C1354 0.959 . S
H1343 C1357 0.929 . S
H1344 C1358 0.931 . S
H1345 C1360 0.930 . S
C1346 H1334 0.930 . S
C1346 C1347 1.399 . S
C1346 C1351 1.399 . S
C1347 C1346 1.399 . S
C1347 C1348 1.376 . S
C1348 H1335 0.930 . S
C1348 C1347 1.376 . S
C1348 C1349 1.388 . S
C1349 H1336 0.930 . S
C1349 C1348 1.388 . S
C1349 C1350 1.390 . S
C1350 C1349 1.390 . S
C1350 C1351 1.394 . S
C1350 C1356 1.465 . S
C1351 C1346 1.399 . S
C1351 C1350 1.394 . S
C1351 C1352 1.516 . S
C1352 C1351 1.516 . S
C1352 C1353 1.502 . S
C1352 C1354 1.561 . S
C1352 C1355 1.526 . S
C1353 H1337 0.959 . S
C1353 H1338 0.959 . S
C1353 H1339 0.961 . S
C1353 C1352 1.502 . S
C1354 H1340 0.960 . S
C1354 H1341 0.961 . S
C1354 H1342 0.959 . S
C1354 C1352 1.561 . S
C1355 C1352 1.526 . S
C1355 C1356 1.396 . S
C1355 C1360 1.390 . S
C1356 C1350 1.465 . S
C1356 C1355 1.396 . S
C1356 C1357 1.399 . S
C1357 H1343 0.929 . S
C1357 C1356 1.399 . S
C1357 C1358 1.385 . S
C1358 H1344 0.931 . S
C1358 C1357 1.385 . S
C1358 C1359 1.389 . S
C1359 C1358 1.389 . S
C1359 C1360 1.387 . S
C1360 H1345 0.930 . S
C1360 C1355 1.390 . S
C1360 C1359 1.387 . S
H1361 C1373 0.930 . S
H1362 C1375 0.930 . S
H1363 C1376 0.930 . S
H1364 C1380 0.959 . S
H1365 C1380 0.959 . S
H1366 C1380 0.961 . S
H1367 C1381 0.960 . S
H1368 C1381 0.961 . S
H1369 C1381 0.959 . S
H1370 C1384 0.929 . S
H1371 C1385 0.931 . S
H1372 C1387 0.930 . S
C1373 H1361 0.930 . S
C1373 C1374 1.399 . S
C1373 C1378 1.399 . S
C1374 C1373 1.399 . S
C1374 C1375 1.376 . S
C1375 H1362 0.930 . S
C1375 C1374 1.376 . S
C1375 C1376 1.388 . S
C1376 H1363 0.930 . S
C1376 C1375 1.388 . S
C1376 C1377 1.390 . S
C1377 C1376 1.390 . S
C1377 C1378 1.394 . S
C1377 C1383 1.465 . S
C1378 C1373 1.399 . S
C1378 C1377 1.394 . S
C1378 C1379 1.516 . S
C1379 C1378 1.516 . S
C1379 C1380 1.502 . S
C1379 C1381 1.561 . S
C1379 C1382 1.526 . S
C1380 H1364 0.959 . S
C1380 H1365 0.959 . S
C1380 H1366 0.961 . S
C1380 C1379 1.502 . S
C1381 H1367 0.960 . S
C1381 H1368 0.961 . S
C1381 H1369 0.959 . S
C1381 C1379 1.561 . S
C1382 C1379 1.526 . S
C1382 C1383 1.396 . S
C1382 C1387 1.390 . S
C1383 C1377 1.465 . S
C1383 C1382 1.396 . S
C1383 C1384 1.399 . S
C1384 H1370 0.929 . S
C1384 C1383 1.399 . S
C1384 C1385 1.385 . S
C1385 H1371 0.931 . S
C1385 C1384 1.385 . S
C1385 C1386 1.389 . S
C1386 C1385 1.389 . S
C1386 C1387 1.387 . S
C1387 H1372 0.930 . S
C1387 C1382 1.390 . S
C1387 C1386 1.387 . S
H1388 C1400 0.930 . S
H1389 C1402 0.930 . S
H1390 C1403 0.930 . S
H1391 C1407 0.959 . S
H1392 C1407 0.959 . S
H1393 C1407 0.961 . S
H1394 C1408 0.960 . S
H1395 C1408 0.961 . S
H1396 C1408 0.959 . S
H1397 C1411 0.929 . S
H1398 C1412 0.931 . S
H1399 C1414 0.930 . S
C1400 H1388 0.930 . S
C1400 C1401 1.399 . S
C1400 C1405 1.399 . S
C1401 C1400 1.399 . S
C1401 C1402 1.376 . S
C1402 H1389 0.930 . S
C1402 C1401 1.376 . S
C1402 C1403 1.388 . S
C1403 H1390 0.930 . S
C1403 C1402 1.388 . S
C1403 C1404 1.390 . S
C1404 C1403 1.390 . S
C1404 C1405 1.394 . S
C1404 C1410 1.465 . S
C1405 C1400 1.399 . S
C1405 C1404 1.394 . S
C1405 C1406 1.516 . S
C1406 C1405 1.516 . S
C1406 C1407 1.502 . S
C1406 C1408 1.561 . S
C1406 C1409 1.526 . S
C1407 H1391 0.959 . S
C1407 H1392 0.959 . S
C1407 H1393 0.961 . S
C1407 C1406 1.502 . S
C1408 H1394 0.960 . S
C1408 H1395 0.961 . S
C1408 H1396 0.959 . S
C1408 C1406 1.561 . S
C1409 C1406 1.526 . S
C1409 C1410 1.396 . S
C1409 C1414 1.390 . S
C1410 C1404 1.465 . S
C1410 C1409 1.396 . S
C1410 C1411 1.399 . S
C1411 H1397 0.929 . S
C1411 C1410 1.399 . S
C1411 C1412 1.385 . S
C1412 H1398 0.931 . S
C1412 C1411 1.385 . S
C1412 C1413 1.389 . S
C1413 C1412 1.389 . S
C1413 C1414 1.387 . S
C1414 H1399 0.930 . S
C1414 C1409 1.390 . S
C1414 C1413 1.387 . S
H1415 C1427 0.930 . S
H1416 C1429 0.930 . S
H1417 C1430 0.930 . S
H1418 C1434 0.959 . S
H1419 C1434 0.959 . S
H1420 C1434 0.961 . S
H1421 C1435 0.960 . S
H1422 C1435 0.961 . S
H1423 C1435 0.959 . S
H1424 C1438 0.929 . S
H1425 C1439 0.931 . S
H1426 C1441 0.930 . S
C1427 H1415 0.930 . S
C1427 C1428 1.399 . S
C1427 C1432 1.399 . S
C1428 C1427 1.399 . S
C1428 C1429 1.376 . S
C1429 H1416 0.930 . S
C1429 C1428 1.376 . S
C1429 C1430 1.388 . S
C1430 H1417 0.930 . S
C1430 C1429 1.388 . S
C1430 C1431 1.390 . S
C1431 C1430 1.390 . S
C1431 C1432 1.394 . S
C1431 C1437 1.465 . S
C1432 C1427 1.399 . S
C1432 C1431 1.394 . S
C1432 C1433 1.516 . S
C1433 C1432 1.516 . S
C1433 C1434 1.502 . S
C1433 C1435 1.561 . S
C1433 C1436 1.526 . S
C1434 H1418 0.959 . S
C1434 H1419 0.959 . S
C1434 H1420 0.961 . S
C1434 C1433 1.502 . S
C1435 H1421 0.960 . S
C1435 H1422 0.961 . S
C1435 H1423 0.959 . S
C1435 C1433 1.561 . S
C1436 C1433 1.526 . S
C1436 C1437 1.396 . S
C1436 C1441 1.390 . S
C1437 C1431 1.465 . S
C1437 C1436 1.396 . S
C1437 C1438 1.399 . S
C1438 H1424 0.929 . S
C1438 C1437 1.399 . S
C1438 C1439 1.385 . S
C1439 H1425 0.931 . S
C1439 C1438 1.385 . S
C1439 C1440 1.389 . S
C1440 C1439 1.389 . S
C1440 C1441 1.387 . S
C1441 H1426 0.930 . S
C1441 C1436 1.390 . S
C1441 C1440 1.387 . S
H1442 C1454 0.930 . S
H1443 C1456 0.930 . S
H1444 C1457 0.930 . S
H1445 C1461 0.959 . S
H1446 C1461 0.959 . S
H1447 C1461 0.961 . S
H1448 C1462 0.960 . S
H1449 C1462 0.961 . S
H1450 C1462 0.959 . S
H1451 C1465 0.929 . S
H1452 C1466 0.931 . S
H1453 C1468 0.930 . S
C1454 H1442 0.930 . S
C1454 C1455 1.399 . S
C1454 C1459 1.399 . S
C1455 C1454 1.399 . S
C1455 C1456 1.376 . S
C1456 H1443 0.930 . S
C1456 C1455 1.376 . S
C1456 C1457 1.388 . S
C1457 H1444 0.930 . S
C1457 C1456 1.388 . S
C1457 C1458 1.390 . S
C1458 C1457 1.390 . S
C1458 C1459 1.394 . S
C1458 C1464 1.465 . S
C1459 C1454 1.399 . S
C1459 C1458 1.394 . S
C1459 C1460 1.516 . S
C1460 C1459 1.516 . S
C1460 C1461 1.502 . S
C1460 C1462 1.561 . S
C1460 C1463 1.526 . S
C1461 H1445 0.959 . S
C1461 H1446 0.959 . S
C1461 H1447 0.961 . S
C1461 C1460 1.502 . S
C1462 H1448 0.960 . S
C1462 H1449 0.961 . S
C1462 H1450 0.959 . S
C1462 C1460 1.561 . S
C1463 C1460 1.526 . S
C1463 C1464 1.396 . S
C1463 C1468 1.390 . S
C1464 C1458 1.465 . S
C1464 C1463 1.396 . S
C1464 C1465 1.399 . S
C1465 H1451 0.929 . S
C1465 C1464 1.399 . S
C1465 C1466 1.385 . S
C1466 H1452 0.931 . S
C1466 C1465 1.385 . S
C1466 C1467 1.389 . S
C1467 C1466 1.389 . S
C1467 C1468 1.387 . S
C1468 H1453 0.930 . S
C1468 C1463 1.390 . S
C1468 C1467 1.387 . S
H1469 C1481 0.930 . S
H1470 C1483 0.930 . S
H1471 C1484 0.930 . S
H1472 C1488 0.959 . S
H1473 C1488 0.953 1_655 S
H1474 C1488 0.961 . S
H1475 C1489 0.960 . S
H1476 C1489 0.961 . S
H1477 C1489 0.959 . S
H1478 C1492 0.929 . S
H1479 C1493 0.931 . S
H1480 C1495 0.930 . S
C1481 H1469 0.930 . S
C1481 C1482 1.399 . S
C1481 C1486 1.399 . S
C1482 C1481 1.399 . S
C1482 C1483 1.376 . S
C1483 H1470 0.930 . S
C1483 C1482 1.376 . S
C1483 C1484 1.388 . S
C1484 H1471 0.930 . S
C1484 C1483 1.388 . S
C1484 C1485 1.390 . S
C1485 C1484 1.390 . S
C1485 C1486 1.394 . S
C1485 C1491 1.465 . S
C1486 C1481 1.399 . S
C1486 C1485 1.394 . S
C1486 C1487 1.516 . S
C1487 C1486 1.516 . S
C1487 C1488 1.502 . S
C1487 C1489 1.561 . S
C1487 C1490 1.526 . S
C1488 H1472 0.959 . S
C1488 H1473 0.953 1_455 S
C1488 H1474 0.961 . S
C1488 C1487 1.502 . S
C1489 H1475 0.960 . S
C1489 H1476 0.961 . S
C1489 H1477 0.959 . S
C1489 C1487 1.561 . S
C1490 C1487 1.526 . S
C1490 C1491 1.396 . S
C1490 C1495 1.390 1_455 S
C1491 C1485 1.465 . S
C1491 C1490 1.396 . S
C1491 C1492 1.399 . S
C1492 H1478 0.929 . S
C1492 C1491 1.399 . S
C1492 C1493 1.385 1_455 S
C1493 H1479 0.931 . S
C1493 C1492 1.385 1_655 S
C1493 C1494 1.389 . S
C1494 C1493 1.389 . S
C1494 C1495 1.387 . S
C1495 H1480 0.930 . S
C1495 C1490 1.390 1_655 S
C1495 C1494 1.387 . S
H1496 C1508 0.930 . S
H1497 C1510 0.930 . S
H1498 C1511 0.930 . S
H1499 C1515 0.959 . S
H1500 C1515 0.959 . S
H1501 C1515 0.961 . S
H1502 C1516 0.960 . S
H1503 C1516 0.961 . S
H1504 C1516 0.959 . S
H1505 C1519 0.929 . S
H1506 C1520 0.931 . S
H1507 C1522 0.930 . S
C1508 H1496 0.930 . S
C1508 C1509 1.399 . S
C1508 C1513 1.399 . S
C1509 C1508 1.399 . S
C1509 C1510 1.376 . S
C1510 H1497 0.930 . S
C1510 C1509 1.376 . S
C1510 C1511 1.388 . S
C1511 H1498 0.930 . S
C1511 C1510 1.388 . S
C1511 C1512 1.390 . S
C1512 C1511 1.390 . S
C1512 C1513 1.394 . S
C1512 C1518 1.465 . S
C1513 C1508 1.399 . S
C1513 C1512 1.394 . S
C1513 C1514 1.516 . S
C1514 C1513 1.516 . S
C1514 C1515 1.502 . S
C1514 C1516 1.561 . S
C1514 C1517 1.526 . S
C1515 H1499 0.959 . S
C1515 H1500 0.959 . S
C1515 H1501 0.961 . S
C1515 C1514 1.502 . S
C1516 H1502 0.960 . S
C1516 H1503 0.961 . S
C1516 H1504 0.959 . S
C1516 C1514 1.561 . S
C1517 C1514 1.526 . S
C1517 C1518 1.396 . S
C1517 C1522 1.390 . S
C1518 C1512 1.465 . S
C1518 C1517 1.396 . S
C1518 C1519 1.399 . S
C1519 H1505 0.929 . S
C1519 C1518 1.399 . S
C1519 C1520 1.385 . S
C1520 H1506 0.931 . S
C1520 C1519 1.385 . S
C1520 C1521 1.389 . S
C1521 C1520 1.389 . S
C1521 C1522 1.387 . S
C1522 H1507 0.930 . S
C1522 C1517 1.390 . S
C1522 C1521 1.387 . S
H1523 C1535 0.930 . S
H1524 C1537 0.930 . S
H1525 C1538 0.930 . S
H1526 C1542 0.959 . S
H1527 C1542 0.959 . S
H1528 C1542 0.961 . S
H1529 C1543 0.960 . S
H1530 C1543 0.961 . S
H1531 C1543 0.959 . S
H1532 C1546 0.929 . S
H1533 C1547 0.931 . S
H1534 C1549 0.930 . S
C1535 H1523 0.930 . S
C1535 C1536 1.399 . S
C1535 C1540 1.399 1_455 S
C1536 C1535 1.399 . S
C1536 C1537 1.376 . S
C1537 H1524 0.930 . S
C1537 C1536 1.376 . S
C1537 C1538 1.388 1_455 S
C1538 H1525 0.930 . S
C1538 C1537 1.388 1_655 S
C1538 C1539 1.390 . S
C1539 C1538 1.390 . S
C1539 C1540 1.394 . S
C1539 C1545 1.465 . S
C1540 C1535 1.399 1_655 S
C1540 C1539 1.394 . S
C1540 C1541 1.516 . S
C1541 C1540 1.516 . S
C1541 C1542 1.502 . S
C1541 C1543 1.561 . S
C1541 C1544 1.526 . S
C1542 H1526 0.959 . S
C1542 H1527 0.959 . S
C1542 H1528 0.961 . S
C1542 C1541 1.502 . S
C1543 H1529 0.960 . S
C1543 H1530 0.961 . S
C1543 H1531 0.959 . S
C1543 C1541 1.561 . S
C1544 C1541 1.526 . S
C1544 C1545 1.396 . S
C1544 C1549 1.390 . S
C1545 C1539 1.465 . S
C1545 C1544 1.396 . S
C1545 C1546 1.399 . S
C1546 H1532 0.929 . S
C1546 C1545 1.399 . S
C1546 C1547 1.385 . S
C1547 H1533 0.931 . S
C1547 C1546 1.385 . S
C1547 C1548 1.389 . S
C1548 C1547 1.389 . S
C1548 C1549 1.387 . S
C1549 H1534 0.930 . S
C1549 C1544 1.390 . S
C1549 C1548 1.387 . S
H1550 C1562 0.930 . S
H1551 C1564 0.930 . S
H1552 C1565 0.930 . S
H1553 C1569 0.959 . S
H1554 C1569 0.959 . S
H1555 C1569 0.961 . S
H1556 C1570 0.960 . S
H1557 C1570 0.961 . S
H1558 C1570 0.959 . S
H1559 C1573 0.929 . S
H1560 C1574 0.931 . S
H1561 C1576 0.930 . S
C1562 H1550 0.930 . S
C1562 C1563 1.399 . S
C1562 C1567 1.399 . S
C1563 C1562 1.399 . S
C1563 C1564 1.376 . S
C1564 H1551 0.930 . S
C1564 C1563 1.376 . S
C1564 C1565 1.388 . S
C1565 H1552 0.930 . S
C1565 C1564 1.388 . S
C1565 C1566 1.390 . S
C1566 C1565 1.390 . S
C1566 C1567 1.394 . S
C1566 C1572 1.465 . S
C1567 C1562 1.399 . S
C1567 C1566 1.394 . S
C1567 C1568 1.516 . S
C1568 C1567 1.516 . S
C1568 C1569 1.502 . S
C1568 C1570 1.561 . S
C1568 C1571 1.526 . S
C1569 H1553 0.959 . S
C1569 H1554 0.959 . S
C1569 H1555 0.961 . S
C1569 C1568 1.502 . S
C1570 H1556 0.960 . S
C1570 H1557 0.961 . S
C1570 H1558 0.959 . S
C1570 C1568 1.561 . S
C1571 C1568 1.526 . S
C1571 C1572 1.396 . S
C1571 C1576 1.390 . S
C1572 C1566 1.465 . S
C1572 C1571 1.396 . S
C1572 C1573 1.399 . S
C1573 H1559 0.929 . S
C1573 C1572 1.399 . S
C1573 C1574 1.385 . S
C1574 H1560 0.931 . S
C1574 C1573 1.385 . S
C1574 C1575 1.389 . S
C1575 C1574 1.389 . S
C1575 C1576 1.387 . S
C1576 H1561 0.930 . S
C1576 C1571 1.390 . S
C1576 C1575 1.387 . S
H1577 C1589 0.930 . S
H1578 C1591 0.930 . S
H1579 C1592 0.930 . S
H1580 C1596 0.959 . S
H1581 C1596 0.959 . S
H1582 C1596 0.961 . S
H1583 C1597 0.960 . S
H1584 C1597 0.961 . S
H1585 C1597 0.959 . S
H1586 C1600 0.929 . S
H1587 C1601 0.931 . S
H1588 C1603 0.930 . S
C1589 H1577 0.930 . S
C1589 C1590 1.399 . S
C1589 C1594 1.399 . S
C1590 C1589 1.399 . S
C1590 C1591 1.376 . S
C1591 H1578 0.930 . S
C1591 C1590 1.376 . S
C1591 C1592 1.388 . S
C1592 H1579 0.930 . S
C1592 C1591 1.388 . S
C1592 C1593 1.390 . S
C1593 C1592 1.390 . S
C1593 C1594 1.394 . S
C1593 C1599 1.465 . S
C1594 C1589 1.399 . S
C1594 C1593 1.394 . S
C1594 C1595 1.516 . S
C1595 C1594 1.516 . S
C1595 C1596 1.502 . S
C1595 C1597 1.561 . S
C1595 C1598 1.526 . S
C1596 H1580 0.959 . S
C1596 H1581 0.959 . S
C1596 H1582 0.961 . S
C1596 C1595 1.502 . S
C1597 H1583 0.960 . S
C1597 H1584 0.961 . S
C1597 H1585 0.959 . S
C1597 C1595 1.561 . S
C1598 C1595 1.526 . S
C1598 C1599 1.396 . S
C1598 C1603 1.390 . S
C1599 C1593 1.465 . S
C1599 C1598 1.396 . S
C1599 C1600 1.399 . S
C1600 H1586 0.929 . S
C1600 C1599 1.399 . S
C1600 C1601 1.385 . S
C1601 H1587 0.931 . S
C1601 C1600 1.385 . S
C1601 C1602 1.389 . S
C1602 C1601 1.389 . S
C1602 C1603 1.387 . S
C1603 H1588 0.930 . S
C1603 C1598 1.390 . S
C1603 C1602 1.387 . S
H1604 C1616 0.930 . S
H1605 C1618 0.930 . S
H1606 C1619 0.930 . S
H1607 C1623 0.959 . S
H1608 C1623 0.959 . S
H1609 C1623 0.961 . S
H1610 C1624 0.960 . S
H1611 C1624 0.961 . S
H1612 C1624 0.959 . S
H1613 C1627 0.929 . S
H1614 C1628 0.931 . S
H1615 C1630 0.930 . S
C1616 H1604 0.930 . S
C1616 C1617 1.399 . S
C1616 C1621 1.399 . S
C1617 C1616 1.399 . S
C1617 C1618 1.376 . S
C1618 H1605 0.930 . S
C1618 C1617 1.376 . S
C1618 C1619 1.388 . S
C1619 H1606 0.930 . S
C1619 C1618 1.388 . S
C1619 C1620 1.390 . S
C1620 C1619 1.390 . S
C1620 C1621 1.394 . S
C1620 C1626 1.465 . S
C1621 C1616 1.399 . S
C1621 C1620 1.394 . S
C1621 C1622 1.516 . S
C1622 C1621 1.516 . S
C1622 C1623 1.502 . S
C1622 C1624 1.561 . S
C1622 C1625 1.526 . S
C1623 H1607 0.959 . S
C1623 H1608 0.959 . S
C1623 H1609 0.961 . S
C1623 C1622 1.502 . S
C1624 H1610 0.960 . S
C1624 H1611 0.961 . S
C1624 H1612 0.959 . S
C1624 C1622 1.561 . S
C1625 C1622 1.526 . S
C1625 C1626 1.396 . S
C1625 C1630 1.390 . S
C1626 C1620 1.465 . S
C1626 C1625 1.396 . S
C1626 C1627 1.399 . S
C1627 H1613 0.929 . S
C1627 C1626 1.399 . S
C1627 C1628 1.385 . S
C1628 H1614 0.931 . S
C1628 C1627 1.385 . S
C1628 C1629 1.389 . S
C1629 C1628 1.389 . S
C1629 C1630 1.387 . S
C1630 H1615 0.930 . S
C1630 C1625 1.390 . S
C1630 C1629 1.387 . S
H1631 C1643 0.930 . S
H1632 C1645 0.930 . S
H1633 C1646 0.930 . S
H1634 C1650 0.959 . S
H1635 C1650 0.959 . S
H1636 C1650 0.961 . S
H1637 C1651 0.960 . S
H1638 C1651 0.961 . S
H1639 C1651 0.959 . S
H1640 C1654 0.929 . S
H1641 C1655 0.931 . S
H1642 C1657 0.930 . S
C1643 H1631 0.930 . S
C1643 C1644 1.399 . S
C1643 C1648 1.399 . S
C1644 C1643 1.399 . S
C1644 C1645 1.376 . S
C1645 H1632 0.930 . S
C1645 C1644 1.376 . S
C1645 C1646 1.388 . S
C1646 H1633 0.930 . S
C1646 C1645 1.388 . S
C1646 C1647 1.390 . S
C1647 C1646 1.390 . S
C1647 C1648 1.394 . S
C1647 C1653 1.465 . S
C1648 C1643 1.399 . S
C1648 C1647 1.394 . S
C1648 C1649 1.516 . S
C1649 C1648 1.516 . S
C1649 C1650 1.502 . S
C1649 C1651 1.561 . S
C1649 C1652 1.526 . S
C1650 H1634 0.959 . S
C1650 H1635 0.959 . S
C1650 H1636 0.961 . S
C1650 C1649 1.502 . S
C1651 H1637 0.960 . S
C1651 H1638 0.961 . S
C1651 H1639 0.959 . S
C1651 C1649 1.561 . S
C1652 C1649 1.526 . S
C1652 C1653 1.396 . S
C1652 C1657 1.390 . S
C1653 C1647 1.465 . S
C1653 C1652 1.396 . S
C1653 C1654 1.399 . S
C1654 H1640 0.929 . S
C1654 C1653 1.399 . S
C1654 C1655 1.385 . S
C1655 H1641 0.931 . S
C1655 C1654 1.385 . S
C1655 C1656 1.389 . S
C1656 C1655 1.389 . S
C1656 C1657 1.387 . S
C1657 H1642 0.930 . S
C1657 C1652 1.390 . S
C1657 C1656 1.387 . S
H1658 C1670 0.930 . S
H1659 C1672 0.930 . S
H1660 C1673 0.930 . S
H1661 C1677 0.959 . S
H1662 C1677 0.959 . S
H1663 C1677 0.961 . S
H1664 C1678 0.960 . S
H1665 C1678 0.961 . S
H1666 C1678 0.959 . S
H1667 C1681 0.929 . S
H1668 C1682 0.931 . S
H1669 C1684 0.930 . S
C1670 H1658 0.930 . S
C1670 C1671 1.399 . S
C1670 C1675 1.399 . S
C1671 C1670 1.399 . S
C1671 C1672 1.376 . S
C1672 H1659 0.930 . S
C1672 C1671 1.376 . S
C1672 C1673 1.388 . S
C1673 H1660 0.930 . S
C1673 C1672 1.388 . S
C1673 C1674 1.390 . S
C1674 C1673 1.390 . S
C1674 C1675 1.394 . S
C1674 C1680 1.465 . S
C1675 C1670 1.399 . S
C1675 C1674 1.394 . S
C1675 C1676 1.516 . S
C1676 C1675 1.516 . S
C1676 C1677 1.502 . S
C1676 C1678 1.561 . S
C1676 C1679 1.526 . S
C1677 H1661 0.959 . S
C1677 H1662 0.959 . S
C1677 H1663 0.961 . S
C1677 C1676 1.502 . S
C1678 H1664 0.960 . S
C1678 H1665 0.961 . S
C1678 H1666 0.959 . S
C1678 C1676 1.561 . S
C1679 C1676 1.526 . S
C1679 C1680 1.396 . S
C1679 C1684 1.390 . S
C1680 C1674 1.465 . S
C1680 C1679 1.396 . S
C1680 C1681 1.399 . S
C1681 H1667 0.929 . S
C1681 C1680 1.399 . S
C1681 C1682 1.385 . S
C1682 H1668 0.931 . S
C1682 C1681 1.385 . S
C1682 C1683 1.389 . S
C1683 C1682 1.389 . S
C1683 C1684 1.387 . S
C1684 H1669 0.930 . S
C1684 C1679 1.390 . S
C1684 C1683 1.387 . S
H1685 C1697 0.930 . S
H1686 C1699 0.930 . S
H1687 C1700 0.930 . S
H1688 C1704 0.959 . S
H1689 C1704 0.959 . S
H1690 C1704 0.985 . S
H1691 C1705 0.960 . S
H1692 C1705 0.961 . S
H1693 C1705 0.959 . S
H1694 C1708 0.929 . S
H1695 C1709 0.931 . S
H1696 C1711 0.930 . S
C1697 H1685 0.930 . S
C1697 C1698 1.399 . S
C1697 C1702 1.399 1_455 S
C1698 C1697 1.399 . S
C1698 C1699 1.376 . S
C1699 H1686 0.930 . S
C1699 C1698 1.376 . S
C1699 C1700 1.388 1_455 S
C1700 H1687 0.930 . S
C1700 C1699 1.388 1_655 S
C1700 C1701 1.390 . S
C1701 C1700 1.390 . S
C1701 C1702 1.394 . S
C1701 C1707 1.465 . S
C1702 C1697 1.399 1_655 S
C1702 C1701 1.394 . S
C1702 C1703 1.516 . S
C1703 C1702 1.516 . S
C1703 C1704 1.502 . S
C1703 C1705 1.561 . S
C1703 C1706 1.526 . S
C1704 H1688 0.959 . S
C1704 H1689 0.959 . S
C1704 H1690 0.985 . S
C1704 C1703 1.502 . S
C1705 H1691 0.960 . S
C1705 H1692 0.961 . S
C1705 H1693 0.959 . S
C1705 C1703 1.561 . S
C1706 C1703 1.526 . S
C1706 C1707 1.396 . S
C1706 C1711 1.390 . S
C1707 C1701 1.465 . S
C1707 C1706 1.396 . S
C1707 C1708 1.399 . S
C1708 H1694 0.929 . S
C1708 C1707 1.399 . S
C1708 C1709 1.385 . S
C1709 H1695 0.931 . S
C1709 C1708 1.385 . S
C1709 C1710 1.389 . S
C1710 C1709 1.389 . S
C1710 C1711 1.387 . S
C1711 H1696 0.930 . S
C1711 C1706 1.390 . S
C1711 C1710 1.387 . S
H1712 C1724 0.930 . S
H1713 C1726 0.930 . S
H1714 C1727 0.930 . S
H1715 C1731 0.959 . S
H1716 C1731 0.959 . S
H1717 C1731 0.961 . S
H1718 C1732 0.960 . S
H1719 C1732 0.961 . S
H1720 C1732 0.959 . S
H1721 C1735 0.929 . S
H1722 C1736 0.931 . S
H1723 C1738 0.930 . S
C1724 H1712 0.930 . S
C1724 C1725 1.399 . S
C1724 C1729 1.399 . S
C1725 C1724 1.399 . S
C1725 C1726 1.376 . S
C1726 H1713 0.930 . S
C1726 C1725 1.376 . S
C1726 C1727 1.388 . S
C1727 H1714 0.930 . S
C1727 C1726 1.388 . S
C1727 C1728 1.390 . S
C1728 C1727 1.390 . S
C1728 C1729 1.394 . S
C1728 C1734 1.465 . S
C1729 C1724 1.399 . S
C1729 C1728 1.394 . S
C1729 C1730 1.516 . S
C1730 C1729 1.516 . S
C1730 C1731 1.502 . S
C1730 C1732 1.561 . S
C1730 C1733 1.526 . S
C1731 H1715 0.959 . S
C1731 H1716 0.959 . S
C1731 H1717 0.961 . S
C1731 C1730 1.502 . S
C1732 H1718 0.960 . S
C1732 H1719 0.961 . S
C1732 H1720 0.959 . S
C1732 C1730 1.561 . S
C1733 C1730 1.526 . S
C1733 C1734 1.396 . S
C1733 C1738 1.390 . S
C1734 C1728 1.465 . S
C1734 C1733 1.396 . S
C1734 C1735 1.399 . S
C1735 H1721 0.929 . S
C1735 C1734 1.399 . S
C1735 C1736 1.385 . S
C1736 H1722 0.931 . S
C1736 C1735 1.385 . S
C1736 C1737 1.389 . S
C1737 C1736 1.389 . S
C1737 C1738 1.387 . S
C1738 H1723 0.930 . S
C1738 C1733 1.390 . S
C1738 C1737 1.387 . S
H1739 C1751 0.930 . S
H1740 C1753 0.930 . S
H1741 C1754 0.930 . S
H1742 C1758 0.959 . S
H1743 C1758 0.959 . S
H1744 C1758 0.961 . S
H1745 C1759 0.960 . S
H1746 C1759 0.961 . S
H1747 C1759 0.959 . S
H1748 C1762 0.929 . S
H1749 C1763 0.931 . S
H1750 C1765 0.930 . S
C1751 H1739 0.930 . S
C1751 C1752 1.399 . S
C1751 C1756 1.399 . S
C1752 C1751 1.399 . S
C1752 C1753 1.376 . S
C1753 H1740 0.930 . S
C1753 C1752 1.376 . S
C1753 C1754 1.388 . S
C1754 H1741 0.930 . S
C1754 C1753 1.388 . S
C1754 C1755 1.390 . S
C1755 C1754 1.390 . S
C1755 C1756 1.394 . S
C1755 C1761 1.465 . S
C1756 C1751 1.399 . S
C1756 C1755 1.394 . S
C1756 C1757 1.516 . S
C1757 C1756 1.516 . S
C1757 C1758 1.502 . S
C1757 C1759 1.561 . S
C1757 C1760 1.526 . S
C1758 H1742 0.959 . S
C1758 H1743 0.959 . S
C1758 H1744 0.961 . S
C1758 C1757 1.502 . S
C1759 H1745 0.960 . S
C1759 H1746 0.961 . S
C1759 H1747 0.959 . S
C1759 C1757 1.561 . S
C1760 C1757 1.526 . S
C1760 C1761 1.396 . S
C1760 C1765 1.390 . S
C1761 C1755 1.465 . S
C1761 C1760 1.396 . S
C1761 C1762 1.399 . S
C1762 H1748 0.929 . S
C1762 C1761 1.399 . S
C1762 C1763 1.385 . S
C1763 H1749 0.931 . S
C1763 C1762 1.385 . S
C1763 C1764 1.389 . S
C1764 C1763 1.389 . S
C1764 C1765 1.387 . S
C1765 H1750 0.930 . S
C1765 C1760 1.390 . S
C1765 C1764 1.387 . S
H1766 C1778 0.930 . S
H1767 C1780 0.930 . S
H1768 C1781 0.930 . S
H1769 C1785 0.959 . S
H1770 C1785 0.959 . S
H1771 C1785 0.961 . S
H1772 C1786 0.960 . S
H1773 C1786 0.961 . S
H1774 C1786 0.959 . S
H1775 C1789 0.929 . S
H1776 C1790 0.931 . S
H1777 C1792 0.930 . S
C1778 H1766 0.930 . S
C1778 C1779 1.399 . S
C1778 C1783 1.399 . S
C1779 C1778 1.399 . S
C1779 C1780 1.376 . S
C1780 H1767 0.930 . S
C1780 C1779 1.376 . S
C1780 C1781 1.388 . S
C1781 H1768 0.930 . S
C1781 C1780 1.388 . S
C1781 C1782 1.390 . S
C1782 C1781 1.390 . S
C1782 C1783 1.394 . S
C1782 C1788 1.465 . S
C1783 C1778 1.399 . S
C1783 C1782 1.394 . S
C1783 C1784 1.516 . S
C1784 C1783 1.516 . S
C1784 C1785 1.502 . S
C1784 C1786 1.561 . S
C1784 C1787 1.526 . S
C1785 H1769 0.959 . S
C1785 H1770 0.959 . S
C1785 H1771 0.961 . S
C1785 C1784 1.502 . S
C1786 H1772 0.960 . S
C1786 H1773 0.961 . S
C1786 H1774 0.959 . S
C1786 C1784 1.561 . S
C1787 C1784 1.526 . S
C1787 C1788 1.396 . S
C1787 C1792 1.390 . S
C1788 C1782 1.465 . S
C1788 C1787 1.396 . S
C1788 C1789 1.399 . S
C1789 H1775 0.929 . S
C1789 C1788 1.399 . S
C1789 C1790 1.385 . S
C1790 H1776 0.931 . S
C1790 C1789 1.385 . S
C1790 C1791 1.389 . S
C1791 C1790 1.389 . S
C1791 C1792 1.387 . S
C1792 H1777 0.930 . S
C1792 C1787 1.390 . S
C1792 C1791 1.387 . S
H1793 C1805 0.930 . S
H1794 C1807 0.930 . S
H1795 C1808 0.930 . S
H1796 C1812 0.959 . S
H1797 C1812 0.959 . S
H1798 C1812 0.961 . S
H1799 C1813 0.960 . S
H1800 C1813 0.961 . S
H1801 C1813 0.959 . S
H1802 C1816 0.934 . S
H1803 C1817 0.931 . S
H1804 C1819 0.930 . S
C1805 H1793 0.930 . S
C1805 C1806 1.399 . S
C1805 C1810 1.399 . S
C1806 C1805 1.399 . S
C1806 C1807 1.376 . S
C1807 H1794 0.930 . S
C1807 C1806 1.376 . S
C1807 C1808 1.388 . S
C1808 H1795 0.930 . S
C1808 C1807 1.388 . S
C1808 C1809 1.390 . S
C1809 C1808 1.390 . S
C1809 C1810 1.394 . S
C1809 C1815 1.465 . S
C1810 C1805 1.399 . S
C1810 C1809 1.394 . S
C1810 C1811 1.516 . S
C1811 C1810 1.516 . S
C1811 C1812 1.502 . S
C1811 C1813 1.561 . S
C1811 C1814 1.526 . S
C1812 H1796 0.959 . S
C1812 H1797 0.959 . S
C1812 H1798 0.961 . S
C1812 C1811 1.502 . S
C1813 H1799 0.960 . S
C1813 H1800 0.961 . S
C1813 H1801 0.959 . S
C1813 C1811 1.561 . S
C1814 C1811 1.526 . S
C1814 C1815 1.396 . S
C1814 C1819 1.390 1_655 S
C1815 C1809 1.465 . S
C1815 C1814 1.396 . S
C1815 C1816 1.421 . S
C1816 H1802 0.934 . S
C1816 C1815 1.421 . S
C1816 C1817 1.359 1_655 S
C1817 H1803 0.931 . S
C1817 C1816 1.359 1_455 S
C1817 C1818 1.389 . S
C1818 C1817 1.389 . S
C1818 C1819 1.387 . S
C1819 H1804 0.930 . S
C1819 C1814 1.390 1_455 S
C1819 C1818 1.387 . S
H1820 C1832 0.930 . S
H1821 C1834 0.930 . S
H1822 C1835 0.930 . S
H1823 C1839 0.959 . S
H1824 C1839 0.959 . S
H1825 C1839 0.961 . S
H1826 C1840 0.960 . S
H1827 C1840 0.961 . S
H1828 C1840 0.959 . S
H1829 C1843 0.929 . S
H1830 C1844 0.931 . S
H1831 C1846 0.930 . S
C1832 H1820 0.930 . S
C1832 C1833 1.399 . S
C1832 C1837 1.399 . S
C1833 C1832 1.399 . S
C1833 C1834 1.376 . S
C1834 H1821 0.930 . S
C1834 C1833 1.376 . S
C1834 C1835 1.388 . S
C1835 H1822 0.930 . S
C1835 C1834 1.388 . S
C1835 C1836 1.390 . S
C1836 C1835 1.390 . S
C1836 C1837 1.394 . S
C1836 C1842 1.465 . S
C1837 C1832 1.399 . S
C1837 C1836 1.394 . S
C1837 C1838 1.516 . S
C1838 C1837 1.516 . S
C1838 C1839 1.502 . S
C1838 C1840 1.561 . S
C1838 C1841 1.526 . S
C1839 H1823 0.959 . S
C1839 H1824 0.959 . S
C1839 H1825 0.961 . S
C1839 C1838 1.502 . S
C1840 H1826 0.960 . S
C1840 H1827 0.961 . S
C1840 H1828 0.959 . S
C1840 C1838 1.561 . S
C1841 C1838 1.526 . S
C1841 C1842 1.396 . S
C1841 C1846 1.390 . S
C1842 C1836 1.465 . S
C1842 C1841 1.396 . S
C1842 C1843 1.399 . S
C1843 H1829 0.929 . S
C1843 C1842 1.399 . S
C1843 C1844 1.385 . S
C1844 H1830 0.931 . S
C1844 C1843 1.385 . S
C1844 C1845 1.389 . S
C1845 C1844 1.389 . S
C1845 C1846 1.387 . S
C1846 H1831 0.930 . S
C1846 C1841 1.390 . S
C1846 C1845 1.387 . S
H1847 C1859 0.930 . S
H1848 C1861 0.930 . S
H1849 C1862 0.930 . S
H1850 C1866 0.959 . S
H1851 C1866 0.959 . S
H1852 C1866 0.961 . S
H1853 C1867 0.960 . S
H1854 C1867 0.961 . S
H1855 C1867 0.959 . S
H1856 C1870 0.929 . S
H1857 C1871 0.931 . S
H1858 C1873 0.930 . S
C1859 H1847 0.930 . S
C1859 C1860 1.399 . S
C1859 C1864 1.399 1_455 S
C1860 C1859 1.399 . S
C1860 C1861 1.376 . S
C1861 H1848 0.930 . S
C1861 C1860 1.376 . S
C1861 C1862 1.388 1_455 S
C1862 H1849 0.930 . S
C1862 C1861 1.388 1_655 S
C1862 C1863 1.390 . S
C1863 C1862 1.390 . S
C1863 C1864 1.394 . S
C1863 C1869 1.465 . S
C1864 C1859 1.399 1_655 S
C1864 C1863 1.394 . S
C1864 C1865 1.516 . S
C1865 C1864 1.516 . S
C1865 C1866 1.502 . S
C1865 C1867 1.561 . S
C1865 C1868 1.526 . S
C1866 H1850 0.959 . S
C1866 H1851 0.959 . S
C1866 H1852 0.961 . S
C1866 C1865 1.502 . S
C1867 H1853 0.960 . S
C1867 H1854 0.961 . S
C1867 H1855 0.959 . S
C1867 C1865 1.561 . S
C1868 C1865 1.526 . S
C1868 C1869 1.396 . S
C1868 C1873 1.390 . S
C1869 C1863 1.465 . S
C1869 C1868 1.396 . S
C1869 C1870 1.399 . S
C1870 H1856 0.929 . S
C1870 C1869 1.399 . S
C1870 C1871 1.385 . S
C1871 H1857 0.931 . S
C1871 C1870 1.385 . S
C1871 C1872 1.389 . S
C1872 C1871 1.389 . S
C1872 C1873 1.387 . S
C1873 H1858 0.930 . S
C1873 C1868 1.390 . S
C1873 C1872 1.387 . S
H1874 C1886 0.930 . S
H1875 C1888 0.930 . S
H1876 C1889 0.930 . S
H1877 C1893 0.959 . S
H1878 C1893 0.959 . S
H1879 C1893 0.961 . S
H1880 C1894 0.960 . S
H1881 C1894 0.961 . S
H1882 C1894 0.959 . S
H1883 C1897 0.929 . S
H1884 C1898 0.931 . S
H1885 C1900 0.930 . S
C1886 H1874 0.930 . S
C1886 C1887 1.399 . S
C1886 C1891 1.399 . S
C1887 C1886 1.399 . S
C1887 C1888 1.376 . S
C1888 H1875 0.930 . S
C1888 C1887 1.376 . S
C1888 C1889 1.388 . S
C1889 H1876 0.930 . S
C1889 C1888 1.388 . S
C1889 C1890 1.390 . S
C1890 C1889 1.390 . S
C1890 C1891 1.394 . S
C1890 C1896 1.465 . S
C1891 C1886 1.399 . S
C1891 C1890 1.394 . S
C1891 C1892 1.516 . S
C1892 C1891 1.516 . S
C1892 C1893 1.502 . S
C1892 C1894 1.561 . S
C1892 C1895 1.526 . S
C1893 H1877 0.959 . S
C1893 H1878 0.959 . S
C1893 H1879 0.961 . S
C1893 C1892 1.502 . S
C1894 H1880 0.960 . S
C1894 H1881 0.961 . S
C1894 H1882 0.959 . S
C1894 C1892 1.561 . S
C1895 C1892 1.526 . S
C1895 C1896 1.396 . S
C1895 C1900 1.390 . S
C1896 C1890 1.465 . S
C1896 C1895 1.396 . S
C1896 C1897 1.399 . S
C1897 H1883 0.929 . S
C1897 C1896 1.399 . S
C1897 C1898 1.385 . S
C1898 H1884 0.931 . S
C1898 C1897 1.385 . S
C1898 C1899 1.389 . S
C1899 C1898 1.389 . S
C1899 C1900 1.387 . S
C1900 H1885 0.930 . S
C1900 C1895 1.390 . S
C1900 C1899 1.387 . S
H1901 C1913 0.930 . S
H1902 C1915 0.930 . S
H1903 C1916 0.930 . S
H1904 C1920 0.959 . S
H1905 C1920 0.959 . S
H1906 C1920 0.961 . S
H1907 C1921 0.960 . S
H1908 C1921 0.961 . S
H1909 C1921 0.959 . S
H1910 C1924 0.929 . S
H1911 C1925 0.931 . S
H1912 C1927 0.930 . S
C1913 H1901 0.930 . S
C1913 C1914 1.399 . S
C1913 C1918 1.399 . S
C1914 C1913 1.399 . S
C1914 C1915 1.376 . S
C1915 H1902 0.930 . S
C1915 C1914 1.376 . S
C1915 C1916 1.388 . S
C1916 H1903 0.930 . S
C1916 C1915 1.388 . S
C1916 C1917 1.390 . S
C1917 C1916 1.390 . S
C1917 C1918 1.394 . S
C1917 C1923 1.465 . S
C1918 C1913 1.399 . S
C1918 C1917 1.394 . S
C1918 C1919 1.516 . S
C1919 C1918 1.516 . S
C1919 C1920 1.502 . S
C1919 C1921 1.561 . S
C1919 C1922 1.526 . S
C1920 H1904 0.959 . S
C1920 H1905 0.959 . S
C1920 H1906 0.961 . S
C1920 C1919 1.502 . S
C1921 H1907 0.960 . S
C1921 H1908 0.961 . S
C1921 H1909 0.959 . S
C1921 C1919 1.561 . S
C1922 C1919 1.526 . S
C1922 C1923 1.396 . S
C1922 C1927 1.390 . S
C1923 C1917 1.465 . S
C1923 C1922 1.396 . S
C1923 C1924 1.399 . S
C1924 H1910 0.929 . S
C1924 C1923 1.399 . S
C1924 C1925 1.385 . S
C1925 H1911 0.931 . S
C1925 C1924 1.385 . S
C1925 C1926 1.389 . S
C1926 C1925 1.389 . S
C1926 C1927 1.387 . S
C1927 H1912 0.930 . S
C1927 C1922 1.390 . S
C1927 C1926 1.387 . S
H1928 C1940 0.930 . S
H1929 C1942 0.930 . S
H1930 C1943 0.930 . S
H1931 C1947 0.959 . S
H1932 C1947 0.959 . S
H1933 C1947 0.961 . S
H1934 C1948 0.960 . S
H1935 C1948 0.961 . S
H1936 C1948 0.959 . S
H1937 C1951 0.929 . S
H1938 C1952 0.931 . S
H1939 C1954 0.930 . S
C1940 H1928 0.930 . S
C1940 C1941 1.399 . S
C1940 C1945 1.399 . S
C1941 C1940 1.399 . S
C1941 C1942 1.376 . S
C1942 H1929 0.930 . S
C1942 C1941 1.376 . S
C1942 C1943 1.388 . S
C1943 H1930 0.930 . S
C1943 C1942 1.388 . S
C1943 C1944 1.390 . S
C1944 C1943 1.390 . S
C1944 C1945 1.394 . S
C1944 C1950 1.465 . S
C1945 C1940 1.399 . S
C1945 C1944 1.394 . S
C1945 C1946 1.516 . S
C1946 C1945 1.516 . S
C1946 C1947 1.502 . S
C1946 C1948 1.561 . S
C1946 C1949 1.526 . S
C1947 H1931 0.959 . S
C1947 H1932 0.959 . S
C1947 H1933 0.961 . S
C1947 C1946 1.502 . S
C1948 H1934 0.960 . S
C1948 H1935 0.961 . S
C1948 H1936 0.959 . S
C1948 C1946 1.561 . S
C1949 C1946 1.526 . S
C1949 C1950 1.396 . S
C1949 C1954 1.390 . S
C1950 C1944 1.465 . S
C1950 C1949 1.396 . S
C1950 C1951 1.399 . S
C1951 H1937 0.929 . S
C1951 C1950 1.399 . S
C1951 C1952 1.385 . S
C1952 H1938 0.931 . S
C1952 C1951 1.385 . S
C1952 C1953 1.389 . S
C1953 C1952 1.389 . S
C1953 C1954 1.387 . S
C1954 H1939 0.930 . S
C1954 C1949 1.390 . S
C1954 C1953 1.387 . S
H1955 C1967 0.930 . S
H1956 C1969 0.930 . S
H1957 C1970 0.930 . S
H1958 C1974 0.959 . S
H1959 C1974 0.959 . S
H1960 C1974 0.961 . S
H1961 C1975 0.960 . S
H1962 C1975 0.961 . S
H1963 C1975 0.959 . S
H1964 C1978 0.929 . S
H1965 C1979 0.931 . S
H1966 C1981 0.930 . S
C1967 H1955 0.930 . S
C1967 C1968 1.399 . S
C1967 C1972 1.399 . S
C1968 C1967 1.399 . S
C1968 C1969 1.376 . S
C1969 H1956 0.930 . S
C1969 C1968 1.376 . S
C1969 C1970 1.388 . S
C1970 H1957 0.930 . S
C1970 C1969 1.388 . S
C1970 C1971 1.390 . S
C1971 C1970 1.390 . S
C1971 C1972 1.394 . S
C1971 C1977 1.465 . S
C1972 C1967 1.399 . S
C1972 C1971 1.394 . S
C1972 C1973 1.516 . S
C1973 C1972 1.516 . S
C1973 C1974 1.502 . S
C1973 C1975 1.561 . S
C1973 C1976 1.526 . S
C1974 H1958 0.959 . S
C1974 H1959 0.959 . S
C1974 H1960 0.961 . S
C1974 C1973 1.502 . S
C1975 H1961 0.960 . S
C1975 H1962 0.961 . S
C1975 H1963 0.959 . S
C1975 C1973 1.561 . S
C1976 C1973 1.526 . S
C1976 C1977 1.396 . S
C1976 C1981 1.390 . S
C1977 C1971 1.465 . S
C1977 C1976 1.396 . S
C1977 C1978 1.399 . S
C1978 H1964 0.929 . S
C1978 C1977 1.399 . S
C1978 C1979 1.385 . S
C1979 H1965 0.931 . S
C1979 C1978 1.385 . S
C1979 C1980 1.389 . S
C1980 C1979 1.389 . S
C1980 C1981 1.387 . S
C1981 H1966 0.930 . S
C1981 C1976 1.390 . S
C1981 C1980 1.387 . S
H1982 C1994 0.930 . S
H1983 C1996 0.930 . S
H1984 C1997 0.930 . S
H1985 C2001 0.959 . S
H1986 C2001 0.959 . S
H1987 C2001 0.961 . S
H1988 C2002 0.960 . S
H1989 C2002 0.961 . S
H1990 C2002 0.959 . S
H1991 C2005 0.929 . S
H1992 C2006 0.931 . S
H1993 C2008 0.930 . S
C1994 H1982 0.930 . S
C1994 C1995 1.399 . S
C1994 C1999 1.399 . S
C1995 C1994 1.399 . S
C1995 C1996 1.376 . S
C1996 H1983 0.930 . S
C1996 C1995 1.376 . S
C1996 C1997 1.388 . S
C1997 H1984 0.930 . S
C1997 C1996 1.388 . S
C1997 C1998 1.390 . S
C1998 C1997 1.390 . S
C1998 C1999 1.394 . S
C1998 C2004 1.465 . S
C1999 C1994 1.399 . S
C1999 C1998 1.394 . S
C1999 C2000 1.516 . S
C2000 C1999 1.516 . S
C2000 C2001 1.502 . S
C2000 C2002 1.561 . S
C2000 C2003 1.526 . S
C2001 H1985 0.959 . S
C2001 H1986 0.959 . S
C2001 H1987 0.961 . S
C2001 C2000 1.502 . S
C2002 H1988 0.960 . S
C2002 H1989 0.961 . S
C2002 H1990 0.959 . S
C2002 C2000 1.561 . S
C2003 C2000 1.526 . S
C2003 C2004 1.396 . S
C2003 C2008 1.390 . S
C2004 C1998 1.465 . S
C2004 C2003 1.396 . S
C2004 C2005 1.399 . S
C2005 H1991 0.929 . S
C2005 C2004 1.399 . S
C2005 C2006 1.385 . S
C2006 H1992 0.931 . S
C2006 C2005 1.385 . S
C2006 C2007 1.389 . S
C2007 C2006 1.389 . S
C2007 C2008 1.387 . S
C2008 H1993 0.930 . S
C2008 C2003 1.390 . S
C2008 C2007 1.387 . S
H2009 C2021 0.930 . S
H2010 C2023 0.930 . S
H2011 C2024 0.930 . S
H2012 C2028 0.959 . S
H2013 C2028 0.959 . S
H2014 C2028 0.961 . S
H2015 C2029 0.960 1_655 S
H2016 C2029 0.961 . S
H2017 C2029 0.959 . S
H2018 C2032 0.929 . S
H2019 C2033 0.931 . S
H2020 C2035 0.930 . S
C2021 H2009 0.930 . S
C2021 C2022 1.399 . S
C2021 C2026 1.399 1_655 S
C2022 C2021 1.399 . S
C2022 C2023 1.376 . S
C2023 H2010 0.930 . S
C2023 C2022 1.376 . S
C2023 C2024 1.388 1_655 S
C2024 H2011 0.930 . S
C2024 C2023 1.388 1_455 S
C2024 C2025 1.390 . S
C2025 C2024 1.390 . S
C2025 C2026 1.394 . S
C2025 C2031 1.465 . S
C2026 C2021 1.399 1_455 S
C2026 C2025 1.394 . S
C2026 C2027 1.516 . S
C2027 C2026 1.516 . S
C2027 C2028 1.502 . S
C2027 C2029 1.561 . S
C2027 C2030 1.526 . S
C2028 H2012 0.959 . S
C2028 H2013 0.959 . S
C2028 H2014 0.961 . S
C2028 C2027 1.502 . S
C2029 H2015 0.960 1_455 S
C2029 H2016 0.961 . S
C2029 H2017 0.959 . S
C2029 C2027 1.561 . S
C2030 C2027 1.526 . S
C2030 C2031 1.396 . S
C2030 C2035 1.390 . S
C2031 C2025 1.465 . S
C2031 C2030 1.396 . S
C2031 C2032 1.399 . S
C2032 H2018 0.929 . S
C2032 C2031 1.399 . S
C2032 C2033 1.385 . S
C2033 H2019 0.931 . S
C2033 C2032 1.385 . S
C2033 C2034 1.389 . S
C2034 C2033 1.389 . S
C2034 C2035 1.387 . S
C2035 H2020 0.930 . S
C2035 C2030 1.390 . S
C2035 C2034 1.387 . S
H2036 C2048 0.930 . S
H2037 C2050 0.930 . S
H2038 C2051 0.930 . S
H2039 C2055 0.959 . S
H2040 C2055 0.959 . S
H2041 C2055 0.961 . S
H2042 C2056 0.960 . S
H2043 C2056 0.961 . S
H2044 C2056 0.959 . S
H2045 C2059 0.929 . S
H2046 C2060 0.931 . S
H2047 C2062 0.930 . S
C2048 H2036 0.930 . S
C2048 C2049 1.399 . S
C2048 C2053 1.399 . S
C2049 C2048 1.399 . S
C2049 C2050 1.376 . S
C2050 H2037 0.930 . S
C2050 C2049 1.376 . S
C2050 C2051 1.388 . S
C2051 H2038 0.930 . S
C2051 C2050 1.388 . S
C2051 C2052 1.390 . S
C2052 C2051 1.390 . S
C2052 C2053 1.394 . S
C2052 C2058 1.465 . S
C2053 C2048 1.399 . S
C2053 C2052 1.394 . S
C2053 C2054 1.516 . S
C2054 C2053 1.516 . S
C2054 C2055 1.502 . S
C2054 C2056 1.561 . S
C2054 C2057 1.526 . S
C2055 H2039 0.959 . S
C2055 H2040 0.959 . S
C2055 H2041 0.961 . S
C2055 C2054 1.502 . S
C2056 H2042 0.960 . S
C2056 H2043 0.961 . S
C2056 H2044 0.959 . S
C2056 C2054 1.561 . S
C2057 C2054 1.526 . S
C2057 C2058 1.396 . S
C2057 C2062 1.390 . S
C2058 C2052 1.465 . S
C2058 C2057 1.396 . S
C2058 C2059 1.399 . S
C2059 H2045 0.929 . S
C2059 C2058 1.399 . S
C2059 C2060 1.385 . S
C2060 H2046 0.931 . S
C2060 C2059 1.385 . S
C2060 C2061 1.389 . S
C2061 C2060 1.389 . S
C2061 C2062 1.387 . S
C2062 H2047 0.930 . S
C2062 C2057 1.390 . S
C2062 C2061 1.387 . S
H2063 C2075 0.930 . S
H2064 C2077 0.930 . S
H2065 C2078 0.930 . S
H2066 C2082 0.959 . S
H2067 C2082 0.959 . S
H2068 C2082 0.961 . S
H2069 C2083 0.960 . S
H2070 C2083 0.961 . S
H2071 C2083 0.959 . S
H2072 C2086 0.929 . S
H2073 C2087 0.931 . S
H2074 C2089 0.930 . S
C2075 H2063 0.930 . S
C2075 C2076 1.399 . S
C2075 C2080 1.399 . S
C2076 C2075 1.399 . S
C2076 C2077 1.376 . S
C2077 H2064 0.930 . S
C2077 C2076 1.376 . S
C2077 C2078 1.388 . S
C2078 H2065 0.930 . S
C2078 C2077 1.388 . S
C2078 C2079 1.390 . S
C2079 C2078 1.390 . S
C2079 C2080 1.394 . S
C2079 C2085 1.465 . S
C2080 C2075 1.399 . S
C2080 C2079 1.394 . S
C2080 C2081 1.516 . S
C2081 C2080 1.516 . S
C2081 C2082 1.502 . S
C2081 C2083 1.561 . S
C2081 C2084 1.526 . S
C2082 H2066 0.959 . S
C2082 H2067 0.959 . S
C2082 H2068 0.961 . S
C2082 C2081 1.502 . S
C2083 H2069 0.960 . S
C2083 H2070 0.961 . S
C2083 H2071 0.959 . S
C2083 C2081 1.561 . S
C2084 C2081 1.526 . S
C2084 C2085 1.396 . S
C2084 C2089 1.390 1_455 S
C2085 C2079 1.465 . S
C2085 C2084 1.396 . S
C2085 C2086 1.399 . S
C2086 H2072 0.929 . S
C2086 C2085 1.399 . S
C2086 C2087 1.385 1_455 S
C2087 H2073 0.931 . S
C2087 C2086 1.385 1_655 S
C2087 C2088 1.389 . S
C2088 C2087 1.389 . S
C2088 C2089 1.387 . S
C2089 H2074 0.930 . S
C2089 C2084 1.390 1_655 S
C2089 C2088 1.387 . S
H2090 C2102 0.930 . S
H2091 C2104 0.930 . S
H2092 C2105 0.930 . S
H2093 C2109 0.959 . S
H2094 C2109 0.959 . S
H2095 C2109 0.961 . S
H2096 C2110 0.960 . S
H2097 C2110 0.961 . S
H2098 C2110 0.959 . S
H2099 C2113 0.929 . S
H2100 C2114 0.931 . S
H2101 C2116 0.930 . S
C2102 H2090 0.930 . S
C2102 C2103 1.399 . S
C2102 C2107 1.399 . S
C2103 C2102 1.399 . S
C2103 C2104 1.376 . S
C2104 H2091 0.930 . S
C2104 C2103 1.376 . S
C2104 C2105 1.388 . S
C2105 H2092 0.930 . S
C2105 C2104 1.388 . S
C2105 C2106 1.390 . S
C2106 C2105 1.390 . S
C2106 C2107 1.394 . S
C2106 C2112 1.465 . S
C2107 C2102 1.399 . S
C2107 C2106 1.394 . S
C2107 C2108 1.516 . S
C2108 C2107 1.516 . S
C2108 C2109 1.502 . S
C2108 C2110 1.561 . S
C2108 C2111 1.526 . S
C2109 H2093 0.959 . S
C2109 H2094 0.959 . S
C2109 H2095 0.961 . S
C2109 C2108 1.502 . S
C2110 H2096 0.960 . S
C2110 H2097 0.961 . S
C2110 H2098 0.959 . S
C2110 C2108 1.561 . S
C2111 C2108 1.526 . S
C2111 C2112 1.396 . S
C2111 C2116 1.390 . S
C2112 C2106 1.465 . S
C2112 C2111 1.396 . S
C2112 C2113 1.399 . S
C2113 H2099 0.929 . S
C2113 C2112 1.399 . S
C2113 C2114 1.385 . S
C2114 H2100 0.931 . S
C2114 C2113 1.385 . S
C2114 C2115 1.389 . S
C2115 C2114 1.389 . S
C2115 C2116 1.387 . S
C2116 H2101 0.930 . S
C2116 C2111 1.390 . S
C2116 C2115 1.387 . S
H2117 C2129 0.930 . S
H2118 C2131 0.930 . S
H2119 C2132 0.930 . S
H2120 C2136 0.959 . S
H2121 C2136 0.959 . S
H2122 C2136 0.961 . S
H2123 C2137 0.960 . S
H2124 C2137 0.961 . S
H2125 C2137 0.959 . S
H2126 C2140 0.929 . S
H2127 C2141 0.931 . S
H2128 C2143 0.930 . S
C2129 H2117 0.930 . S
C2129 C2130 1.399 . S
C2129 C2134 1.399 . S
C2130 C2129 1.399 . S
C2130 C2131 1.376 . S
C2131 H2118 0.930 . S
C2131 C2130 1.376 . S
C2131 C2132 1.388 . S
C2132 H2119 0.930 . S
C2132 C2131 1.388 . S
C2132 C2133 1.390 . S
C2133 C2132 1.390 . S
C2133 C2134 1.394 . S
C2133 C2139 1.465 . S
C2134 C2129 1.399 . S
C2134 C2133 1.394 . S
C2134 C2135 1.516 . S
C2135 C2134 1.516 . S
C2135 C2136 1.502 . S
C2135 C2137 1.561 . S
C2135 C2138 1.526 . S
C2136 H2120 0.959 . S
C2136 H2121 0.959 . S
C2136 H2122 0.961 . S
C2136 C2135 1.502 . S
C2137 H2123 0.960 . S
C2137 H2124 0.961 . S
C2137 H2125 0.959 . S
C2137 C2135 1.561 . S
C2138 C2135 1.526 . S
C2138 C2139 1.396 . S
C2138 C2143 1.390 . S
C2139 C2133 1.465 . S
C2139 C2138 1.396 . S
C2139 C2140 1.399 . S
C2140 H2126 0.929 . S
C2140 C2139 1.399 . S
C2140 C2141 1.385 . S
C2141 H2127 0.931 . S
C2141 C2140 1.385 . S
C2141 C2142 1.389 . S
C2142 C2141 1.389 . S
C2142 C2143 1.387 . S
C2143 H2128 0.930 . S
C2143 C2138 1.390 . S
C2143 C2142 1.387 . S
C429 C62 1.500 . S
C441 C4 1.501 . S
C456 C69 1.493 . S
C468 C23 1.494 . S
C483 C82 1.499 . S
C495 C30 1.500 . S
C510 C49 1.491 . S
C522 C101 1.492 . S
C537 C108 1.502 . S
C549 C166 1.501 . S
C564 C179 1.499 . S
C576 C121 1.502 . S
C591 C140 1.501 . S
C603 C192 1.497 . S
C618 C199 1.494 . S
C630 C147 1.492 . S
C645 C218 1.498 . S
C657 C264 1.499 . S
C672 C283 1.502 . S
C684 C231 1.501 . S
C699 C296 1.500 . S
C711 C244 1.501 . S
C726 C309 1.491 . S
C738 C257 1.492 . S
C753 C322 1.492 . S
C765 C374 1.496 . S
C780 C335 1.494 . S
C792 C381 1.492 . S
C807 C342 1.492 . S
C819 C400 1.496 . S
C834 C355 1.501 . S
C846 C407 1.497 . S
C861 C10 1.502 . S
C873 C95 1.509 . S
C888 C17 1.511 . S
C900 C56 1.510 . S
C915 C36 1.507 . S
C927 C75 1.513 . S
C942 C88 1.510 . S
C954 C43 1.503 . S
C969 C205 1.506 . S
C981 C114 1.512 . S
C996 C160 1.503 . S
C1008 C127 1.504 . S
C1023 C173 1.508 . S
C1035 C134 1.513 . S
C1050 C153 1.508 . S
C1062 C186 1.503 . S
C1077 C303 1.502 . S
C1089 C212 1.510 . S
C1104 C270 1.502 . S
C1116 C225 1.509 . S
C1131 C277 1.511 . S
C1143 C238 1.510 . S
C1158 C251 1.512 . S
C1170 C290 1.504 . S
C1185 C316 1.503 . S
C1197 C413 1.510 . S
C1212 C329 1.507 . S
C1224 C368 1.512 . S
C1239 C348 1.506 . S
C1251 C387 1.512 . S
C1266 C394 1.509 . S
C1278 C361 1.513 . S
C1293 C5 1.485 . S
C1305 C330 1.486 . S
C1320 C16 1.492 . S
C1332 C135 1.492 . S
C1347 C31 1.488 . S
C1359 C354 1.487 . S
C1374 C107 1.489 . S
C1386 C42 1.488 . S
C1401 C406 1.485 . S
C1413 C55 1.486 . S
C1428 C70 1.490 . S
C1440 C161 1.491 . S
C1455 C83 1.490 . S
C1467 C380 1.489 . S
C1482 C94 1.492 . S
C1494 C187 1.492 . S
C1509 C226 1.485 . S
C1521 C109 1.485 . S
C1536 C29 1.492 . S
C1548 C122 1.492 . S
C1563 C252 1.491 . S
C1575 C133 1.491 . S
C1590 C148 1.484 . S
C1602 C3 1.485 . S
C1617 C304 1.485 . S
C1629 C159 1.486 . S
C1644 C57 1.490 . S
C1656 C172 1.491 . S
C1671 C278 1.486 . S
C1683 C185 1.487 . S
C1698 C81 1.492 . S
C1710 C200 1.492 . S
C1725 C120 1.484 . S
C1737 C211 1.485 . S
C1752 C224 1.492 . S
C1764 C341 1.492 . S
C1779 C237 1.484 . S
C1791 C146 1.485 . S
C1806 C250 1.484 . S
C1818 C317 1.485 . S
C1833 C265 1.486 . S
C1845 C198 1.488 . S
C1860 C369 1.490 . S
C1872 C276 1.491 . S
C1887 C289 1.484 . S
C1899 C174 1.485 . S
C1914 C302 1.485 . S
C1926 C395 1.487 . S
C1941 C315 1.484 . S
C1953 C18 1.485 . S
C1968 C328 1.484 . S
C1980 C239 1.486 . S
C1995 C44 1.486 . S
C2007 C343 1.486 . S
C2022 C213 1.488 . S
C2034 C356 1.489 . S
C2049 C367 1.485 . S
C2061 C96 1.487 . S
C2076 C382 1.490 . S
C2088 C263 1.491 . S
C2103 C68 1.487 . S
C2115 C393 1.487 . S
C2130 C291 1.492 . S
C2142 C408 1.491 . S
