# Generated by pormake.
# Topology whk, (6)-cn, num edge types: 1
# Building blocks:
#     Node 0, Type 0, BuildingBlock: BETDEL_clean_sbu_0, # of connection points: 6
#     Node 1, Type 0, BuildingBlock: BETDEL_clean_sbu_0, # of connection points: 6
#     Node 2, Type 0, BuildingBlock: BETDEL_clean_sbu_0, # of connection points: 6
#     Node 3, Type 0, BuildingBlock: BETDEL_clean_sbu_0, # of connection points: 6
#     Node 4, Type 0, BuildingBlock: BETDEL_clean_sbu_0, # of connection points: 6
#     Node 5, Type 0, BuildingBlock: BETDEL_clean_sbu_0, # of connection points: 6
#     Node 6, Type 0, BuildingBlock: BETDEL_clean_sbu_0, # of connection points: 6
#     Node 7, Type 0, BuildingBlock: BETDEL_clean_sbu_0, # of connection points: 6
#     Node 8, Type 0, BuildingBlock: BETDEL_clean_sbu_0, # of connection points: 6
#     Node 9, Type 0, BuildingBlock: BETDEL_clean_sbu_0, # of connection points: 6
#     Node 10, Type 0, BuildingBlock: BETDEL_clean_sbu_0, # of connection points: 6
#     Node 11, Type 0, BuildingBlock: BETDEL_clean_sbu_0, # of connection points: 6
#     Node 12, Type 0, BuildingBlock: BETDEL_clean_sbu_0, # of connection points: 6
#     Node 13, Type 0, BuildingBlock: BETDEL_clean_sbu_0, # of connection points: 6
#     Node 14, Type 0, BuildingBlock: BETDEL_clean_sbu_0, # of connection points: 6
#     Node 15, Type 0, BuildingBlock: BETDEL_clean_sbu_0, # of connection points: 6
#     Edge 16, Type (0, 0), BuildingBlock: KIFKEQ_clean_linker_1, # of connection points: 2
#     Edge 17, Type (0, 0), BuildingBlock: KIFKEQ_clean_linker_1, # of connection points: 2
#     Edge 18, Type (0, 0), BuildingBlock: KIFKEQ_clean_linker_1, # of connection points: 2
#     Edge 19, Type (0, 0), BuildingBlock: KIFKEQ_clean_linker_1, # of connection points: 2
#     Edge 20, Type (0, 0), BuildingBlock: KIFKEQ_clean_linker_1, # of connection points: 2
#     Edge 21, Type (0, 0), BuildingBlock: KIFKEQ_clean_linker_1, # of connection points: 2
#     Edge 22, Type (0, 0), BuildingBlock: KIFKEQ_clean_linker_1, # of connection points: 2
#     Edge 23, Type (0, 0), BuildingBlock: KIFKEQ_clean_linker_1, # of connection points: 2
#     Edge 24, Type (0, 0), BuildingBlock: KIFKEQ_clean_linker_1, # of connection points: 2
#     Edge 25, Type (0, 0), BuildingBlock: KIFKEQ_clean_linker_1, # of connection points: 2
#     Edge 26, Type (0, 0), BuildingBlock: KIFKEQ_clean_linker_1, # of connection points: 2
#     Edge 27, Type (0, 0), BuildingBlock: KIFKEQ_clean_linker_1, # of connection points: 2
#     Edge 28, Type (0, 0), BuildingBlock: KIFKEQ_clean_linker_1, # of connection points: 2
#     Edge 29, Type (0, 0), BuildingBlock: KIFKEQ_clean_linker_1, # of connection points: 2
#     Edge 30, Type (0, 0), BuildingBlock: KIFKEQ_clean_linker_1, # of connection points: 2
#     Edge 31, Type (0, 0), BuildingBlock: KIFKEQ_clean_linker_1, # of connection points: 2
#     Edge 32, Type (0, 0), BuildingBlock: KIFKEQ_clean_linker_1, # of connection points: 2
#     Edge 33, Type (0, 0), BuildingBlock: KIFKEQ_clean_linker_1, # of connection points: 2
#     Edge 34, Type (0, 0), BuildingBlock: KIFKEQ_clean_linker_1, # of connection points: 2
#     Edge 35, Type (0, 0), BuildingBlock: KIFKEQ_clean_linker_1, # of connection points: 2
#     Edge 36, Type (0, 0), BuildingBlock: KIFKEQ_clean_linker_1, # of connection points: 2
#     Edge 37, Type (0, 0), BuildingBlock: KIFKEQ_clean_linker_1, # of connection points: 2
#     Edge 38, Type (0, 0), BuildingBlock: KIFKEQ_clean_linker_1, # of connection points: 2
#     Edge 39, Type (0, 0), BuildingBlock: KIFKEQ_clean_linker_1, # of connection points: 2
#     Edge 40, Type (0, 0), BuildingBlock: KIFKEQ_clean_linker_1, # of connection points: 2
#     Edge 41, Type (0, 0), BuildingBlock: KIFKEQ_clean_linker_1, # of connection points: 2
#     Edge 42, Type (0, 0), BuildingBlock: KIFKEQ_clean_linker_1, # of connection points: 2
#     Edge 43, Type (0, 0), BuildingBlock: KIFKEQ_clean_linker_1, # of connection points: 2
#     Edge 44, Type (0, 0), BuildingBlock: KIFKEQ_clean_linker_1, # of connection points: 2
#     Edge 45, Type (0, 0), BuildingBlock: KIFKEQ_clean_linker_1, # of connection points: 2
#     Edge 46, Type (0, 0), BuildingBlock: KIFKEQ_clean_linker_1, # of connection points: 2
#     Edge 47, Type (0, 0), BuildingBlock: KIFKEQ_clean_linker_1, # of connection points: 2
#     Edge 48, Type (0, 0), BuildingBlock: KIFKEQ_clean_linker_1, # of connection points: 2
#     Edge 49, Type (0, 0), BuildingBlock: KIFKEQ_clean_linker_1, # of connection points: 2
#     Edge 50, Type (0, 0), BuildingBlock: KIFKEQ_clean_linker_1, # of connection points: 2
#     Edge 51, Type (0, 0), BuildingBlock: KIFKEQ_clean_linker_1, # of connection points: 2
#     Edge 52, Type (0, 0), BuildingBlock: KIFKEQ_clean_linker_1, # of connection points: 2
#     Edge 53, Type (0, 0), BuildingBlock: KIFKEQ_clean_linker_1, # of connection points: 2
#     Edge 54, Type (0, 0), BuildingBlock: KIFKEQ_clean_linker_1, # of connection points: 2
#     Edge 55, Type (0, 0), BuildingBlock: KIFKEQ_clean_linker_1, # of connection points: 2
#     Edge 56, Type (0, 0), BuildingBlock: KIFKEQ_clean_linker_1, # of connection points: 2
#     Edge 57, Type (0, 0), BuildingBlock: KIFKEQ_clean_linker_1, # of connection points: 2
#     Edge 58, Type (0, 0), BuildingBlock: KIFKEQ_clean_linker_1, # of connection points: 2
#     Edge 59, Type (0, 0), BuildingBlock: KIFKEQ_clean_linker_1, # of connection points: 2
#     Edge 60, Type (0, 0), BuildingBlock: KIFKEQ_clean_linker_1, # of connection points: 2
#     Edge 61, Type (0, 0), BuildingBlock: KIFKEQ_clean_linker_1, # of connection points: 2
#     Edge 62, Type (0, 0), BuildingBlock: KIFKEQ_clean_linker_1, # of connection points: 2
#     Edge 63, Type (0, 0), BuildingBlock: KIFKEQ_clean_linker_1, # of connection points: 2
# Relax obj value: 0.451
# Max RMSD: 0.288
# Mean RMSD: 0.288
data_MOF--net-whk--node1-BETDEL_clean_sbu_0--edge1-KIFKEQ_clean_linker_1
_symmetry_space_group_name_H-M    P1
_symmetry_Int_Tables_number       1
_symmetry_cell_setting            triclinic
loop_
_symmetry_equiv_pos_as_xyz
'x, y, z'
_cell_length_a     39.207855
_cell_length_b     39.208055
_cell_length_c     42.652307
_cell_angle_alpha  90.081903
_cell_angle_beta   90.080635
_cell_angle_gamma 89.994556
loop_
_atom_site_label
_atom_site_type_symbol
_atom_site_fract_x
_atom_site_fract_y
_atom_site_fract_z
_atom_type_partial_charge
Dy0 Dy 0.57389 0.20805 0.40367 0.0
C1 C 0.4618 0.13658 0.43865 0.0
C2 C 0.62849 0.23423 0.3729 0.0
Dy3 Dy 0.5223 0.17123 0.43705 0.0
O4 O 0.61441 0.20516 0.36716 0.0
O5 O 0.61338 0.24908 0.39632 0.0
O6 O 0.54435 0.19448 0.36071 0.0
O7 O 0.55162 0.1575 0.39503 0.0
C8 C 0.54132 0.16238 0.36722 0.0
C9 C 0.55482 0.21497 0.47519 0.0
O10 O 0.56588 0.13584 0.44753 0.0
O11 O 0.60624 0.17673 0.43617 0.0
O12 O 0.48217 0.14022 0.46265 0.0
O13 O 0.47484 0.15131 0.4143 0.0
O14 O 0.54139 0.18647 0.48495 0.0
O15 O 0.54676 0.22012 0.44693 0.0
O16 O 0.53605 0.2499 0.40013 0.0
O17 O 0.49221 0.21774 0.42054 0.0
C18 C 0.59784 0.14692 0.44848 0.0
C19 C 0.50362 0.24643 0.40769 0.0
Dy20 Dy 0.28913 0.57749 0.40029 0.0
C21 C 0.36636 0.46239 0.43088 0.0
C22 C 0.26573 0.63595 0.37422 0.0
Dy23 Dy 0.32897 0.5208 0.43395 0.0
O24 O 0.2923 0.61916 0.36513 0.0
O25 O 0.25137 0.62041 0.39768 0.0
O26 O 0.30106 0.54811 0.35695 0.0
O27 O 0.33827 0.55229 0.39171 0.0
C28 C 0.33297 0.54296 0.36359 0.0
C29 C 0.28014 0.54497 0.47257 0.0
O30 O 0.36171 0.56524 0.44866 0.0
O31 O 0.32377 0.6074 0.43216 0.0
O32 O 0.36813 0.48438 0.45388 0.0
O33 O 0.3447 0.47268 0.40988 0.0
O34 O 0.30088 0.5205 0.48094 0.0
O35 O 0.28779 0.55377 0.44515 0.0
O36 O 0.24678 0.54032 0.40324 0.0
O37 O 0.28148 0.49413 0.41557 0.0
C38 C 0.35177 0.59772 0.44735 0.0
C39 C 0.25116 0.50736 0.4084 0.0
Dy40 Dy 0.92139 0.29478 0.40371 0.0
C41 C 0.03931 0.36477 0.43726 0.0
C42 C 0.86373 0.27766 0.37256 0.0
Dy43 Dy 0.9799 0.32883 0.4393 0.0
O44 O 0.87691 0.30784 0.37371 0.0
O45 O 0.88144 0.25645 0.38949 0.0
O46 O 0.95246 0.30718 0.36131 0.0
O47 O 0.94968 0.3424 0.39749 0.0
C48 C 0.95927 0.33832 0.36939 0.0
C49 C 0.95356 0.28002 0.47613 0.0
O50 O 0.93683 0.36208 0.45628 0.0
O51 O 0.89272 0.32709 0.43827 0.0
O52 O 0.01743 0.36633 0.46031 0.0
O53 O 0.02855 0.34381 0.41584 0.0
O54 O 0.97924 0.29909 0.48495 0.0
O55 O 0.94444 0.28889 0.44899 0.0
O56 O 0.95554 0.24973 0.40606 0.0
O57 O 0.004 0.28061 0.41946 0.0
C58 C 0.90395 0.35369 0.45463 0.0
C59 C 0.98874 0.25153 0.41137 0.0
Dy60 Dy 0.21377 0.92186 0.41978 0.0
C61 C 0.12342 0.03281 0.43204 0.0
C62 C 0.26332 0.87654 0.40529 0.0
Dy63 Dy 0.1692 0.98038 0.4373 0.0
O64 O 0.24996 0.89815 0.38584 0.0
O65 O 0.24944 0.8798 0.43282 0.0
O66 O 0.17497 0.901 0.38784 0.0
O67 O 0.17912 0.95469 0.39183 0.0
C68 C 0.16207 0.93007 0.37991 0.0
C69 C 0.21572 0.96288 0.4813 0.0
O70 O 0.13496 0.93503 0.44987 0.0
O71 O 0.17661 0.8927 0.44825 0.0
O72 O 0.12897 0.01564 0.45773 0.0
O73 O 0.14205 0.02059 0.4096 0.0
O74 O 0.20558 0.99424 0.47745 0.0
O75 O 0.19871 0.94371 0.4638 0.0
O76 O 0.2519 0.96387 0.42074 0.0
O77 O 0.21549 0.00998 0.42203 0.0
C78 C 0.14506 0.90279 0.45448 0.0
C79 C 0.24658 0.99702 0.42019 0.0
Dy80 Dy 0.07433 0.7859 0.1541 0.0
C81 C 0.95946 0.86181 0.13137 0.0
C82 C 0.13579 0.75489 0.1604 0.0
Dy83 Dy 0.01908 0.82644 0.12748 0.0
O84 O 0.11802 0.76736 0.18334 0.0
O85 O 0.11829 0.75704 0.13472 0.0
O86 O 0.05755 0.80143 0.20199 0.0
O87 O 0.05549 0.8372 0.16576 0.0
C88 C 0.05049 0.83282 0.19486 0.0
C89 C 0.0457 0.78228 0.08612 0.0
O90 O 0.06095 0.86237 0.11342 0.0
O91 O 0.10334 0.82335 0.12466 0.0
O92 O 0.97718 0.85822 0.10575 0.0
O93 O 0.97466 0.84678 0.15454 0.0
O94 O 0.03198 0.81111 0.07757 0.0
O95 O 0.04052 0.77754 0.11486 0.0
O96 O 0.03557 0.74549 0.16039 0.0
O97 O 0.99035 0.78015 0.14669 0.0
C98 C 0.0933 0.8526 0.11232 0.0
C99 C 0.00248 0.75043 0.15696 0.0
Dy100 Dy 0.71274 0.07436 0.15606 0.0
C101 C 0.63522 0.96265 0.13102 0.0
C102 C 0.74718 0.12999 0.17676 0.0
Dy103 Dy 0.67229 0.02137 0.1268 0.0
O104 O 0.73182 0.10818 0.19447 0.0
O105 O 0.74398 0.12123 0.14755 0.0
O106 O 0.69708 0.05258 0.20207 0.0
O107 O 0.66099 0.05589 0.16626 0.0
C108 C 0.66527 0.04843 0.1949 0.0
C109 C 0.71694 0.04911 0.0867 0.0
O110 O 0.63826 0.06479 0.11245 0.0
O111 O 0.67762 0.10614 0.12636 0.0
O112 O 0.6452 0.97621 0.10464 0.0
O113 O 0.64456 0.98175 0.15429 0.0
O114 O 0.6877 0.03645 0.07772 0.0
O115 O 0.72194 0.04269 0.11531 0.0
O116 O 0.75301 0.03495 0.15884 0.0
O117 O 0.71694 0.99063 0.14658 0.0
C118 C 0.64869 0.09703 0.11259 0.0
C119 C 0.74719 0.00196 0.15613 0.0
Dy120 Dy 0.4311 0.7194 0.15089 0.0
C121 C 0.53464 0.62714 0.13055 0.0
C122 C 0.38103 0.7664 0.15739 0.0
Dy123 Dy 0.48091 0.67092 0.12574 0.0
O124 O 0.3945 0.74938 0.18031 0.0
O125 O 0.39459 0.7572 0.13104 0.0
O126 O 0.44405 0.70341 0.19958 0.0
O127 O 0.44332 0.66653 0.16405 0.0
C128 C 0.44821 0.67133 0.19315 0.0
C129 C 0.45951 0.71706 0.08391 0.0
O130 O 0.43476 0.64115 0.11115 0.0
O131 O 0.39689 0.68492 0.12234 0.0
O132 O 0.52354 0.63994 0.10424 0.0
O133 O 0.51568 0.63739 0.1536 0.0
O134 O 0.46714 0.68582 0.07599 0.0
O135 O 0.46647 0.7221 0.11236 0.0
O136 O 0.47586 0.75271 0.15854 0.0
O137 O 0.51608 0.7125 0.14476 0.0
C138 C 0.40371 0.6546 0.10989 0.0
C139 C 0.50792 0.74319 0.1557 0.0
Dy140 Dy 0.78876 0.42693 0.15848 0.0
C141 C 0.86518 0.53624 0.12829 0.0
C142 C 0.75393 0.37376 0.1836 0.0
Dy143 Dy 0.82836 0.47745 0.12572 0.0
O144 O 0.77642 0.3919 0.19816 0.0
O145 O 0.75069 0.38441 0.15496 0.0
O146 O 0.80792 0.45113 0.2027 0.0
O147 O 0.84137 0.44433 0.16547 0.0
C148 C 0.83942 0.45337 0.19389 0.0
C149 C 0.78196 0.44924 0.08773 0.0
O150 O 0.86121 0.43274 0.11284 0.0
O151 O 0.82065 0.39307 0.12746 0.0
O152 O 0.86177 0.51762 0.10305 0.0
O153 O 0.84927 0.52228 0.15156 0.0
O154 O 0.81075 0.46185 0.07761 0.0
O155 O 0.7779 0.45641 0.1164 0.0
O156 O 0.75016 0.4677 0.1642 0.0
O157 O 0.78395 0.50981 0.14313 0.0
C158 C 0.84963 0.40093 0.11319 0.0
C159 C 0.75534 0.49997 0.15709 0.0
Dy160 Dy 0.47884 0.82924 0.625 0.0
C161 C 0.37458 0.74144 0.66367 0.0
C162 C 0.53431 0.87043 0.63122 0.0
Dy163 Dy 0.42673 0.7843 0.6506 0.0
O164 O 0.52272 0.85919 0.60445 0.0
O165 O 0.51506 0.85995 0.65392 0.0
O166 O 0.46716 0.81316 0.57515 0.0
O167 O 0.46207 0.77828 0.61228 0.0
C168 C 0.45682 0.78283 0.58344 0.0
C169 C 0.44694 0.83286 0.69155 0.0
O170 O 0.46942 0.74836 0.65807 0.0
O171 O 0.51172 0.78684 0.64583 0.0
O172 O 0.38996 0.76049 0.68404 0.0
O173 O 0.38712 0.74649 0.63597 0.0
O174 O 0.4429 0.801 0.69852 0.0
O175 O 0.44101 0.83686 0.66259 0.0
O176 O 0.43417 0.86141 0.61061 0.0
O177 O 0.39507 0.8181 0.61909 0.0
C178 C 0.50194 0.7565 0.65637 0.0
C179 C 0.40305 0.84855 0.60764 0.0
Dy180 Dy 0.66993 0.48034 0.6292 0.0
C181 C 0.76019 0.37745 0.66486 0.0
C182 C 0.62812 0.53581 0.63327 0.0
Dy183 Dy 0.71579 0.42924 0.65518 0.0
O184 O 0.64201 0.52492 0.60738 0.0
O185 O 0.63602 0.51561 0.65619 0.0
O186 O 0.68588 0.46707 0.57968 0.0
O187 O 0.7212 0.46452 0.61679 0.0
C188 C 0.71665 0.45831 0.58813 0.0
C189 C 0.6683 0.44909 0.69682 0.0
O190 O 0.7506 0.47275 0.66319 0.0
O191 O 0.71136 0.5141 0.65009 0.0
O192 O 0.74163 0.39141 0.68646 0.0
O193 O 0.75404 0.39152 0.63798 0.0
O194 O 0.70036 0.44489 0.70321 0.0
O195 O 0.66325 0.44334 0.66785 0.0
O196 O 0.63955 0.4356 0.61239 0.0
O197 O 0.68079 0.39589 0.62628 0.0
C198 C 0.74173 0.50507 0.66108 0.0
C199 C 0.65165 0.40401 0.61228 0.0
Dy200 Dy 0.01709 0.67009 0.62453 0.0
C201 C 0.13089 0.74386 0.66155 0.0
C202 C 0.96 0.63136 0.63145 0.0
Dy203 Dy 0.07043 0.7122 0.65007 0.0
O204 O 0.97143 0.64221 0.60456 0.0
O205 O 0.98031 0.64073 0.65382 0.0
O206 O 0.02652 0.68747 0.57484 0.0
O207 O 0.03434 0.72116 0.61265 0.0
C208 C 0.03801 0.71726 0.58353 0.0
C209 C 0.05063 0.66269 0.68999 0.0
O210 O 0.03043 0.75088 0.65833 0.0
O211 O 0.98688 0.71309 0.64787 0.0
O212 O 0.10986 0.7332 0.68273 0.0
O213 O 0.11714 0.73949 0.63421 0.0
O214 O 0.05509 0.69429 0.69768 0.0
O215 O 0.05575 0.65939 0.66082 0.0
O216 O 0.05993 0.63741 0.60642 0.0
O217 O 0.09954 0.67962 0.61594 0.0
C218 C 0.99765 0.74337 0.65797 0.0
C219 C 0.09106 0.65009 0.60309 0.0
Dy220 Dy 0.82677 0.01707 0.6256 0.0
C221 C 0.75125 0.13174 0.65845 0.0
C222 C 0.86654 0.96048 0.63203 0.0
Dy223 Dy 0.78376 0.07117 0.65013 0.0
O224 O 0.85405 0.97119 0.60547 0.0
O225 O 0.85802 0.98113 0.65444 0.0
O226 O 0.81059 0.02733 0.57559 0.0
O227 O 0.77614 0.03476 0.61277 0.0
C228 C 0.78065 0.03882 0.58378 0.0
C229 C 0.83237 0.05145 0.6911 0.0
O230 O 0.74548 0.03095 0.65846 0.0
O231 O 0.78338 0.9872 0.64848 0.0
O232 O 0.76281 0.11253 0.68073 0.0
O233 O 0.75521 0.11611 0.63194 0.0
O234 O 0.80074 0.05672 0.69829 0.0
O235 O 0.8362 0.05609 0.66191 0.0
O236 O 0.85967 0.05976 0.60794 0.0
O237 O 0.81748 0.0997 0.61668 0.0
C238 C 0.75303 0.99817 0.65821 0.0
C239 C 0.8471 0.09088 0.60427 0.0
Dy240 Dy 0.97966 0.17077 0.93673 0.0
C241 C 0.87331 0.2528 0.89124 0.0
C242 C 0.03566 0.12983 0.93141 0.0
Dy243 Dy 0.92873 0.21546 0.90808 0.0
O244 O 0.02375 0.14133 0.95796 0.0
O245 O 0.01639 0.13986 0.90849 0.0
O246 O 0.96546 0.18619 0.98598 0.0
O247 O 0.96117 0.22132 0.94876 0.0
C248 C 0.95451 0.21623 0.97732 0.0
C249 C 0.95138 0.1665 0.86879 0.0
O250 O 0.97124 0.25254 0.90346 0.0
O251 O 0.01282 0.21436 0.91892 0.0
O252 O 0.8923 0.23551 0.87221 0.0
O253 O 0.88521 0.25031 0.91953 0.0
O254 O 0.94862 0.19844 0.86153 0.0
O255 O 0.94384 0.16291 0.89747 0.0
O256 O 0.93461 0.1394 0.95118 0.0
O257 O 0.89555 0.18129 0.93779 0.0
C258 C 0.00363 0.24471 0.9079 0.0
C259 C 0.90308 0.15175 0.95133 0.0
Dy260 Dy 0.32545 0.9794 0.93799 0.0
C261 C 0.2499 0.87138 0.88804 0.0
C262 C 0.36589 0.03598 0.94245 0.0
Dy263 Dy 0.28555 0.92665 0.90783 0.0
O264 O 0.33763 0.03141 0.95771 0.0
O265 O 0.37259 0.00919 0.92571 0.0
O266 O 0.30891 0.96405 0.98643 0.0
O267 O 0.27515 0.95855 0.94824 0.0
C268 C 0.27951 0.95227 0.97699 0.0
C269 C 0.33375 0.95265 0.86955 0.0
O270 O 0.24656 0.96713 0.90378 0.0
O271 O 0.28509 0.0104 0.91218 0.0
O272 O 0.26636 0.8921 0.87 0.0
O273 O 0.2527 0.88111 0.91701 0.0
O274 O 0.3021 0.94829 0.86189 0.0
O275 O 0.33726 0.9452 0.89828 0.0
O276 O 0.35597 0.93608 0.95757 0.0
O277 O 0.32082 0.89407 0.93702 0.0
C278 C 0.25416 0.99986 0.90393 0.0
C279 C 0.34724 0.9036 0.95438 0.0
Dy280 Dy 0.51829 0.32743 0.93707 0.0
C281 C 0.62501 0.24523 0.89321 0.0
C282 C 0.46212 0.36819 0.93182 0.0
Dy283 Dy 0.5695 0.28273 0.90943 0.0
O284 O 0.47393 0.35644 0.9583 0.0
O285 O 0.48161 0.35858 0.90895 0.0
O286 O 0.53169 0.31177 0.98654 0.0
O287 O 0.53626 0.27674 0.94932 0.0
C288 C 0.54246 0.28164 0.97799 0.0
C289 C 0.54714 0.33065 0.86914 0.0
O290 O 0.52707 0.24558 0.90451 0.0
O291 O 0.48528 0.28433 0.91801 0.0
O292 O 0.60568 0.26173 0.87388 0.0
O293 O 0.61341 0.2486 0.92151 0.0
O294 O 0.55024 0.29856 0.86253 0.0
O295 O 0.55425 0.3352 0.89789 0.0
O296 O 0.56301 0.35894 0.95233 0.0
O297 O 0.60225 0.3171 0.93941 0.0
C298 C 0.49459 0.25375 0.90762 0.0
C299 C 0.59453 0.34663 0.95289 0.0
Dy300 Dy 0.17202 0.5203 0.93706 0.0
C301 C 0.24983 0.62569 0.8848 0.0
C302 C 0.13084 0.46423 0.94187 0.0
Dy303 Dy 0.21337 0.57166 0.90607 0.0
O304 O 0.158 0.46965 0.95863 0.0
O305 O 0.1256 0.48997 0.92343 0.0
O306 O 0.18785 0.53789 0.98524 0.0
O307 O 0.22237 0.54095 0.94745 0.0
C308 C 0.21761 0.54874 0.97586 0.0
C309 C 0.1652 0.54492 0.86799 0.0
O310 O 0.25158 0.53051 0.90269 0.0
O311 O 0.21267 0.48801 0.91296 0.0
O312 O 0.23036 0.60656 0.86776 0.0
O313 O 0.24947 0.61516 0.91361 0.0
O314 O 0.19701 0.54844 0.86058 0.0
O315 O 0.16153 0.55348 0.89645 0.0
O316 O 0.14122 0.56486 0.9538 0.0
O317 O 0.17935 0.60528 0.93546 0.0
C318 C 0.24361 0.49792 0.90414 0.0
C319 C 0.15158 0.59696 0.95146 0.0
H320 H 0.56344 0.09596 0.37212 0.0
H321 H 0.53405 0.17203 0.30427 0.0
H322 H 0.58603 0.06027 0.32995 0.0
H323 H 0.55767 0.13732 0.26241 0.0
H324 H 0.59855 0.06935 0.18778 0.0
H325 H 0.56016 0.08942 0.2291 0.0
H326 H 0.63536 0.06206 0.29887 0.0
H327 H 0.67273 0.0411 0.25786 0.0
C328 C 0.5611 0.10475 0.34815 0.0
C329 C 0.54725 0.13706 0.34168 0.0
C330 C 0.57447 0.08446 0.32391 0.0
C331 C 0.57447 0.09602 0.29257 0.0
C332 C 0.55812 0.1272 0.286 0.0
C333 C 0.54462 0.14732 0.31016 0.0
C334 C 0.60637 0.06677 0.21202 0.0
C335 C 0.63885 0.05388 0.21947 0.0
C336 C 0.58452 0.07864 0.23578 0.0
C337 C 0.59463 0.07797 0.26757 0.0
C338 C 0.62624 0.06286 0.27492 0.0
C339 C 0.64791 0.05093 0.25126 0.0
H340 H 0.42796 0.60437 0.18563 0.0
H341 H 0.45137 0.6795 0.25641 0.0
H342 H 0.40707 0.56564 0.22636 0.0
H343 H 0.42984 0.64162 0.29682 0.0
H344 H 0.39878 0.56691 0.36915 0.0
H345 H 0.43373 0.5916 0.32757 0.0
H346 H 0.35821 0.56151 0.25906 0.0
H347 H 0.32405 0.53605 0.30042 0.0
C348 C 0.42923 0.61239 0.20992 0.0
C349 C 0.44117 0.64516 0.21769 0.0
C350 C 0.41692 0.59031 0.23333 0.0
C351 C 0.41632 0.60039 0.26513 0.0
C352 C 0.43012 0.6325 0.27285 0.0
C353 C 0.44235 0.65446 0.24954 0.0
C354 C 0.39017 0.56461 0.3451 0.0
C355 C 0.35837 0.5497 0.33826 0.0
C356 C 0.41003 0.57922 0.32119 0.0
C357 C 0.39865 0.57935 0.28977 0.0
C358 C 0.36813 0.56196 0.28275 0.0
C359 C 0.34837 0.54732 0.30661 0.0
H360 H 0.98676 0.34382 0.31076 0.0
H361 H 0.91437 0.39125 0.37298 0.0
H362 H 0.96581 0.37876 0.26755 0.0
H363 H 0.89131 0.42393 0.32991 0.0
H364 H 0.85058 0.48367 0.25056 0.0
H365 H 0.88771 0.46387 0.29264 0.0
H366 H 0.92291 0.38187 0.23273 0.0
H367 H 0.88807 0.40381 0.19032 0.0
C368 C 0.96677 0.36225 0.31528 0.0
C369 C 0.95252 0.36494 0.34536 0.0
C370 C 0.95414 0.38194 0.29032 0.0
C371 C 0.92604 0.40407 0.29449 0.0
C372 C 0.91315 0.4079 0.3252 0.0
C373 C 0.92645 0.38896 0.35024 0.0
C374 C 0.86718 0.46208 0.24626 0.0
C375 C 0.86657 0.44549 0.2171 0.0
C376 C 0.88817 0.45019 0.27061 0.0
C377 C 0.90824 0.42051 0.2669 0.0
C378 C 0.90858 0.40498 0.23698 0.0
C379 C 0.88838 0.41753 0.21239 0.0
H380 H 0.10645 0.89139 0.37722 0.0
H381 H 0.16063 0.96782 0.32473 0.0
H382 H 0.07416 0.87584 0.33133 0.0
H383 H 0.12667 0.95354 0.27799 0.0
H384 H 0.10291 0.87859 0.19515 0.0
H385 H 0.12368 0.91148 0.23982 0.0
H386 H 0.035 0.88072 0.29301 0.0
H387 H 0.01616 0.84572 0.249 0.0
C388 C 0.11029 0.90603 0.35596 0.0
C389 C 0.13592 0.93099 0.35473 0.0
C390 C 0.09157 0.89711 0.32931 0.0
C391 C 0.09759 0.91301 0.30024 0.0
C392 C 0.12154 0.94008 0.29961 0.0
C393 C 0.14061 0.9489 0.32657 0.0
C394 C 0.08752 0.87961 0.21621 0.0
C395 C 0.05788 0.85958 0.21861 0.0
C396 C 0.0994 0.89861 0.242 0.0
C397 C 0.08164 0.89854 0.27078 0.0
C398 C 0.05032 0.88071 0.27194 0.0
C399 C 0.03903 0.86096 0.24647 0.0
H400 H 0.342 0.98095 0.81175 0.0
H401 H 0.38256 0.90319 0.87251 0.0
H402 H 0.37621 0.95906 0.76847 0.0
H403 H 0.41452 0.87926 0.82914 0.0
H404 H 0.47505 0.83923 0.74958 0.0
H405 H 0.45545 0.87492 0.79275 0.0
H406 H 0.37785 0.91766 0.73205 0.0
H407 H 0.39975 0.88404 0.68867 0.0
C408 C 0.35877 0.95945 0.81592 0.0
C409 C 0.35989 0.9441 0.84561 0.0
C410 C 0.37801 0.94633 0.79089 0.0
C411 C 0.39806 0.91664 0.79454 0.0
C412 C 0.40017 0.90234 0.82489 0.0
C413 C 0.38168 0.91609 0.85007 0.0
C414 C 0.45449 0.85713 0.74541 0.0
C415 C 0.43917 0.85904 0.71571 0.0
C416 C 0.44269 0.8773 0.77036 0.0
C417 C 0.4143 0.89913 0.76667 0.0
C418 C 0.39999 0.90189 0.73632 0.0
C419 C 0.41251 0.88243 0.71117 0.0
H420 H 0.54019 0.32214 0.80624 0.0
H421 H 0.57075 0.39664 0.87527 0.0
H422 H 0.56327 0.35759 0.76478 0.0
H423 H 0.59292 0.43316 0.83349 0.0
H424 H 0.67735 0.45486 0.7597 0.0
H425 H 0.64132 0.43264 0.8011 0.0
H426 H 0.5645 0.40613 0.73249 0.0
H427 H 0.60158 0.42745 0.69071 0.0
C428 C 0.55102 0.34665 0.8125 0.0
C429 C 0.55397 0.3563 0.84417 0.0
C430 C 0.56417 0.36722 0.78857 0.0
C431 C 0.58056 0.39828 0.79551 0.0
C432 C 0.58122 0.40911 0.82712 0.0
C433 C 0.56814 0.38836 0.85115 0.0
C434 C 0.65247 0.44489 0.75345 0.0
C435 C 0.64258 0.44259 0.7218 0.0
C436 C 0.63157 0.43226 0.77735 0.0
C437 C 0.59991 0.41703 0.77042 0.0
C438 C 0.58896 0.41695 0.73884 0.0
C439 C 0.61004 0.42955 0.71482 0.0
H440 H 0.02097 0.65303 0.74678 0.0
H441 H 0.10029 0.61399 0.68696 0.0
H442 H 0.0413 0.61739 0.78966 0.0
H443 H 0.12276 0.58043 0.73017 0.0
H444 H 0.15961 0.51725 0.80957 0.0
H445 H 0.12537 0.53817 0.76586 0.0
H446 H 0.08185 0.61503 0.82684 0.0
H447 H 0.11401 0.59206 0.87055 0.0
C448 C 0.04254 0.63632 0.74275 0.0
C449 C 0.05877 0.63599 0.71346 0.0
C450 C 0.05474 0.61622 0.76756 0.0
C451 C 0.0844 0.59612 0.76416 0.0
C452 C 0.09966 0.59485 0.73415 0.0
C453 C 0.08679 0.61423 0.70911 0.0
C454 C 0.14176 0.53788 0.81368 0.0
C455 C 0.13929 0.55274 0.84356 0.0
C456 C 0.12246 0.55043 0.78844 0.0
C457 C 0.1009 0.57902 0.79209 0.0
C458 C 0.09744 0.59276 0.82258 0.0
C459 C 0.11605 0.57957 0.84795 0.0
H460 H 0.88209 0.10002 0.68786 0.0
H461 H 0.84072 0.02279 0.74856 0.0
H462 H 0.9156 0.12269 0.73106 0.0
H463 H 0.87633 0.04325 0.79151 0.0
H464 H 0.90293 0.1166 0.87159 0.0
H465 H 0.87945 0.08426 0.82813 0.0
H466 H 0.95744 0.12529 0.7671 0.0
H467 H 0.97883 0.15977 0.81049 0.0
C468 C 0.88131 0.087 0.71024 0.0
C469 C 0.85891 0.05954 0.7148 0.0
C470 C 0.90066 0.09998 0.73529 0.0
C471 C 0.89877 0.08537 0.76553 0.0
C472 C 0.878 0.05621 0.7692 0.0
C473 C 0.85792 0.04392 0.74436 0.0
C474 C 0.91549 0.11807 0.84902 0.0
C475 C 0.9428 0.14068 0.84449 0.0
C476 C 0.90203 0.09935 0.82381 0.0
C477 C 0.91598 0.10205 0.79336 0.0
C478 C 0.945 0.12301 0.78961 0.0
C479 C 0.95781 0.14245 0.81468 0.0
H480 H 0.43504 0.09329 0.48277 0.0
H481 H 0.41349 0.14002 0.39333 0.0
H482 H 0.38112 0.0616 0.47937 0.0
H483 H 0.35975 0.1088 0.39009 0.0
H484 H 0.25092 0.06655 0.41058 0.0
H485 H 0.30157 0.10279 0.41727 0.0
H486 H 0.36091 0.01435 0.44282 0.0
H487 H 0.31113 0.9784 0.43591 0.0
C488 C 0.41865 0.09701 0.4626 0.0
C489 C 0.42852 0.11886 0.43823 0.0
C490 C 0.38788 0.07887 0.46058 0.0
C491 C 0.36624 0.08273 0.43442 0.0
C492 C 0.37569 0.10552 0.41063 0.0
C493 C 0.40659 0.12318 0.41242 0.0
C494 C 0.27485 0.0549 0.4174 0.0
C495 C 0.27697 0.01953 0.42231 0.0
C496 C 0.30379 0.07561 0.4213 0.0
C497 C 0.33513 0.06139 0.43083 0.0
C498 C 0.33707 0.02612 0.43587 0.0
C499 C 0.3085 0.00547 0.43148 0.0
H500 H 0.42315 0.44251 0.46365 0.0
H501 H 0.35222 0.4092 0.39241 0.0
H502 H 0.4555 0.38932 0.45709 0.0
H503 H 0.38404 0.356 0.38634 0.0
H504 H 0.43397 0.25053 0.41426 0.0
H505 H 0.3997 0.30246 0.42068 0.0
H506 H 0.49022 0.36389 0.40998 0.0
H507 H 0.52428 0.31255 0.40301 0.0
C508 C 0.41437 0.42373 0.44683 0.0
C509 C 0.38534 0.42997 0.42845 0.0
C510 C 0.43287 0.39342 0.44299 0.0
C511 C 0.42221 0.36862 0.42118 0.0
C512 C 0.39268 0.37458 0.40343 0.0
C513 C 0.37462 0.40508 0.40682 0.0
C514 C 0.44643 0.27514 0.41283 0.0
C515 C 0.48181 0.27733 0.40793 0.0
C516 C 0.42686 0.3048 0.41659 0.0
C517 C 0.44245 0.33711 0.41619 0.0
C518 C 0.47765 0.33929 0.4108 0.0
C519 C 0.49705 0.30981 0.40645 0.0
H520 H 0.06027 0.41971 0.47217 0.0
H521 H 0.09054 0.35388 0.39591 0.0
H522 H 0.11227 0.45363 0.4647 0.0
H523 H 0.14238 0.3874 0.38867 0.0
H524 H 0.24793 0.43736 0.40953 0.0
H525 H 0.19731 0.40196 0.41784 0.0
H526 H 0.13459 0.49235 0.42113 0.0
H527 H 0.18479 0.52769 0.41265 0.0
C528 C 0.07816 0.41236 0.45405 0.0
C529 C 0.07139 0.38428 0.43458 0.0
C530 C 0.10777 0.43182 0.44965 0.0
C531 C 0.13132 0.42317 0.42603 0.0
C532 C 0.12486 0.39453 0.40717 0.0
C533 C 0.0951 0.37546 0.41125 0.0
C534 C 0.2233 0.44965 0.41168 0.0
C535 C 0.22045 0.48535 0.4102 0.0
C536 C 0.19434 0.42938 0.41648 0.0
C537 C 0.16206 0.44445 0.42043 0.0
C538 C 0.15918 0.48007 0.4186 0.0
C539 C 0.18797 0.50026 0.41334 0.0
H540 H 0.07459 0.05774 0.47225 0.0
H541 H 0.12552 0.0787 0.38471 0.0
H542 H 0.04164 0.11078 0.46651 0.0
H543 H 0.09342 0.13174 0.37944 0.0
H544 H 0.05801 0.24273 0.40585 0.0
H545 H 0.09017 0.18935 0.41106 0.0
H546 H 0.9963 0.13435 0.42591 0.0
H547 H 0.96411 0.18728 0.42015 0.0
C548 C 0.0787 0.07363 0.45185 0.0
C549 C 0.10249 0.06405 0.42889 0.0
C550 C 0.05988 0.10389 0.44853 0.0
C551 C 0.06515 0.12543 0.42258 0.0
C552 C 0.08905 0.11581 0.39978 0.0
C553 C 0.10724 0.08533 0.40274 0.0
C554 C 0.04425 0.2192 0.4099 0.0
C555 C 0.00849 0.21924 0.41222 0.0
C556 C 0.06263 0.18868 0.41291 0.0
C557 C 0.0457 0.15776 0.41905 0.0
C558 C 0.01001 0.15783 0.42143 0.0
C559 C 0.9916 0.18813 0.41777 0.0
H560 H 0.93187 0.90887 0.0916 0.0
H561 H 0.91292 0.85446 0.17778 0.0
H562 H 0.87852 0.94074 0.09892 0.0
H563 H 0.85924 0.88558 0.18453 0.0
H564 H 0.74814 0.93164 0.15523 0.0
H565 H 0.79853 0.89488 0.14874 0.0
H566 H 0.86342 0.98366 0.14923 0.0
H567 H 0.81404 0.02014 0.15656 0.0
C568 C 0.91609 0.90346 0.11181 0.0
C569 C 0.92651 0.87952 0.13425 0.0
C570 C 0.8857 0.92159 0.11599 0.0
C571 C 0.86496 0.9154 0.14224 0.0
C572 C 0.87476 0.89055 0.16404 0.0
C573 C 0.90549 0.873 0.16024 0.0
C574 C 0.77322 0.94319 0.1545 0.0
C575 C 0.777 0.9788 0.15647 0.0
C576 C 0.80191 0.92222 0.15066 0.0
C577 C 0.83457 0.93669 0.14802 0.0
C578 C 0.8384 0.97205 0.15079 0.0
C579 C 0.81003 0.99284 0.15528 0.0
H580 H 0.5055 0.79935 0.19254 0.0
H581 H 0.5673 0.74964 0.12235 0.0
H582 H 0.53884 0.85113 0.18679 0.0
H583 H 0.60138 0.80173 0.11683 0.0
H584 H 0.61661 0.91581 0.08598 0.0
H585 H 0.59088 0.8595 0.09472 0.0
H586 H 0.59365 0.87711 0.19471 0.0
H587 H 0.61827 0.93311 0.18596 0.0
C588 C 0.52694 0.79921 0.17653 0.0
C589 C 0.53383 0.77042 0.15797 0.0
C590 C 0.54608 0.82894 0.17318 0.0
C591 C 0.57259 0.83073 0.15108 0.0
C592 C 0.58079 0.80129 0.13373 0.0
C593 C 0.56168 0.7713 0.13727 0.0
C594 C 0.6115 0.90756 0.10974 0.0
C595 C 0.61902 0.92895 0.13524 0.0
C596 C 0.59719 0.87522 0.1148 0.0
C597 C 0.59019 0.8638 0.14545 0.0
C598 C 0.59826 0.88521 0.17082 0.0
C599 C 0.61238 0.91736 0.16577 0.0
H600 H 0.58249 0.61043 0.08635 0.0
H601 H 0.55965 0.60206 0.18502 0.0
H602 H 0.63765 0.58266 0.09531 0.0
H603 H 0.6147 0.57514 0.19413 0.0
H604 H 0.69628 0.49082 0.1894 0.0
H605 H 0.64324 0.52205 0.18314 0.0
H606 H 0.69334 0.59276 0.12074 0.0
H607 H 0.7466 0.56091 0.12653 0.0
C608 C 0.58921 0.60248 0.10987 0.0
C609 C 0.56676 0.60813 0.13494 0.0
C610 C 0.62091 0.58699 0.1151 0.0
C611 C 0.63066 0.57686 0.14549 0.0
C612 C 0.60791 0.58232 0.17041 0.0
C613 C 0.57634 0.59775 0.16519 0.0
C614 C 0.69622 0.51338 0.17477 0.0
C615 C 0.72567 0.52327 0.15836 0.0
C616 C 0.66575 0.53134 0.1712 0.0
C617 C 0.66392 0.55967 0.15113 0.0
C618 C 0.69379 0.57065 0.13593 0.0
C619 C 0.72442 0.55269 0.1396 0.0
H620 H 0.02236 0.68394 0.15697 0.0
H621 H 0.9323 0.74765 0.15502 0.0
H622 H 0.98729 0.6338 0.14792 0.0
H623 H 0.897 0.69662 0.14673 0.0
H624 H 0.85464 0.58475 0.17219 0.0
H625 H 0.88567 0.6382 0.17961 0.0
H626 H 0.94759 0.61528 0.09872 0.0
H627 H 0.91575 0.5619 0.09069 0.0
C628 C 0.995 0.68729 0.15523 0.0
C629 C 0.98013 0.71995 0.15681 0.0
C630 C 0.97503 0.6585 0.14965 0.0
C631 C 0.93964 0.66151 0.14615 0.0
C632 C 0.92436 0.69379 0.14916 0.0
C633 C 0.9445 0.72288 0.15409 0.0
C634 C 0.87466 0.59128 0.15578 0.0
C635 C 0.88301 0.56921 0.13094 0.0
C636 C 0.89222 0.62192 0.15998 0.0
C637 C 0.91896 0.6307 0.1398 0.0
C638 C 0.92705 0.6089 0.11463 0.0
C639 C 0.90889 0.57852 0.10998 0.0
H640 H 0.74689 0.93455 0.63236 0.0
H641 H 0.69382 0.00823 0.68976 0.0
H642 H 0.69419 0.90162 0.627 0.0
H643 H 0.64136 0.97566 0.68419 0.0
H644 H 0.58387 0.88562 0.58822 0.0
H645 H 0.63919 0.91263 0.59856 0.0
H646 H 0.61319 0.92163 0.69662 0.0
H647 H 0.55811 0.89524 0.68623 0.0
C648 C 0.72426 0.94318 0.64457 0.0
C649 C 0.72443 0.97399 0.66144 0.0
C650 C 0.69399 0.92462 0.64109 0.0
C651 C 0.66355 0.93635 0.65476 0.0
C652 C 0.66439 0.96589 0.67342 0.0
C653 C 0.69447 0.98454 0.67665 0.0
C654 C 0.59 0.89365 0.61187 0.0
C655 C 0.56671 0.88862 0.63637 0.0
C656 C 0.62175 0.90868 0.61789 0.0
C657 C 0.63059 0.91904 0.64847 0.0
C658 C 0.60706 0.91413 0.67282 0.0
C659 C 0.57551 0.89905 0.66684 0.0
H660 H 0.61421 0.58485 0.58925 0.0
H661 H 0.60387 0.5617 0.6877 0.0
H662 H 0.58816 0.64085 0.59825 0.0
H663 H 0.57891 0.61759 0.69688 0.0
H664 H 0.4943 0.69893 0.69062 0.0
H665 H 0.52661 0.64643 0.68574 0.0
H666 H 0.59739 0.69663 0.62343 0.0
H667 H 0.56427 0.74942 0.62787 0.0
C668 C 0.60628 0.59172 0.61274 0.0
C669 C 0.61066 0.56883 0.63769 0.0
C670 C 0.59181 0.62393 0.61801 0.0
C671 C 0.58154 0.63379 0.64834 0.0
C672 C 0.58613 0.61075 0.6732 0.0
C673 C 0.60042 0.57866 0.66792 0.0
C674 C 0.51723 0.69904 0.67646 0.0
C675 C 0.52669 0.72828 0.65958 0.0
C676 C 0.53581 0.66888 0.67365 0.0
C677 C 0.56439 0.66714 0.65386 0.0
C678 C 0.57514 0.697 0.63844 0.0
C679 C 0.55652 0.72737 0.64138 0.0
H680 H 0.93457 0.61165 0.68739 0.0
H681 H 0.91049 0.61465 0.58861 0.0
H682 H 0.87893 0.58709 0.6984 0.0
H683 H 0.85466 0.58913 0.59955 0.0
H684 H 0.74698 0.56666 0.63135 0.0
H685 H 0.79905 0.60049 0.62547 0.0
H686 H 0.85136 0.53287 0.68939 0.0
H687 H 0.79953 0.49966 0.69558 0.0
C688 C 0.91741 0.60677 0.66797 0.0
C689 C 0.9269 0.61473 0.63709 0.0
C690 C 0.88551 0.59274 0.6743 0.0
C691 C 0.86235 0.58622 0.64989 0.0
C692 C 0.87178 0.59434 0.61893 0.0
C693 C 0.90383 0.6085 0.61258 0.0
C694 C 0.7693 0.55978 0.64493 0.0
C695 C 0.76927 0.53049 0.66388 0.0
C696 C 0.79924 0.5788 0.64118 0.0
C697 C 0.82944 0.56903 0.65658 0.0
C698 C 0.82854 0.5412 0.67728 0.0
C699 C 0.79881 0.52214 0.68085 0.0
H700 H 0.87967 0.90973 0.58954 0.0
H701 H 0.89331 0.93777 0.68669 0.0
H702 H 0.90758 0.8549 0.59973 0.0
H703 H 0.92066 0.88311 0.69696 0.0
H704 H 0.00812 0.80358 0.68807 0.0
H705 H 0.97447 0.8554 0.68299 0.0
H706 H 0.89903 0.80035 0.6291 0.0
H707 H 0.93303 0.7483 0.63394 0.0
C708 C 0.8887 0.90417 0.613 0.0
C709 C 0.88461 0.92801 0.63726 0.0
C710 C 0.90429 0.87269 0.61894 0.0
C711 C 0.91616 0.86463 0.64921 0.0
C712 C 0.91202 0.88864 0.67337 0.0
C713 C 0.89637 0.91994 0.66747 0.0
C714 C 0.98395 0.8023 0.67576 0.0
C715 C 0.97329 0.77189 0.66132 0.0
C716 C 0.96466 0.83203 0.67284 0.0
C717 C 0.93432 0.83206 0.65527 0.0
C718 C 0.9226 0.80119 0.64235 0.0
C719 C 0.94182 0.77129 0.64551 0.0
H720 H 0.05983 0.10448 0.87678 0.0
H721 H 0.08527 0.11488 0.97484 0.0
H722 H 0.11466 0.07747 0.86694 0.0
H723 H 0.14043 0.08721 0.96505 0.0
H724 H 0.2485 0.06306 0.93102 0.0
H725 H 0.19602 0.0964 0.93708 0.0
H726 H 0.14206 0.0234 0.87955 0.0
H727 H 0.1942 0.9905 0.87334 0.0
C728 C 0.0771 0.10073 0.89632 0.0
C729 C 0.06819 0.11153 0.92665 0.0
C730 C 0.10855 0.08525 0.89066 0.0
C731 C 0.13197 0.08025 0.91517 0.0
C732 C 0.12311 0.09112 0.94559 0.0
C733 C 0.09142 0.10656 0.95129 0.0
C734 C 0.22564 0.05476 0.91893 0.0
C735 C 0.22547 0.02422 0.90162 0.0
C736 C 0.19548 0.07353 0.92281 0.0
C737 C 0.16478 0.06232 0.90911 0.0
C738 C 0.16525 0.03287 0.8903 0.0
C739 C 0.19518 0.01402 0.88669 0.0
H740 H 0.34089 0.09948 0.95401 0.0
H741 H 0.43081 0.04618 0.9226 0.0
H742 H 0.36771 0.15387 0.94167 0.0
H743 H 0.45886 0.10036 0.91229 0.0
H744 H 0.49457 0.19718 0.8706 0.0
H745 H 0.4611 0.14553 0.87813 0.0
H746 H 0.40785 0.19402 0.95505 0.0
H747 H 0.43969 0.24618 0.94579 0.0
C748 C 0.36678 0.09954 0.94518 0.0
C749 C 0.38388 0.06876 0.93931 0.0
C750 C 0.38225 0.13074 0.93808 0.0
C751 C 0.41548 0.13183 0.92556 0.0
C752 C 0.43291 0.10078 0.9209 0.0
C753 C 0.4171 0.06963 0.9273 0.0
C754 C 0.47494 0.19697 0.88846 0.0
C755 C 0.46959 0.22567 0.90748 0.0
C756 C 0.45612 0.16717 0.89323 0.0
C757 C 0.43221 0.16502 0.9178 0.0
C758 C 0.42571 0.19451 0.93573 0.0
C759 C 0.44395 0.22459 0.9304 0.0
H760 H 0.43707 0.39209 0.877 0.0
H761 H 0.41294 0.38374 0.97541 0.0
H762 H 0.382 0.41857 0.86718 0.0
H763 H 0.35759 0.41105 0.96567 0.0
H764 H 0.24929 0.43562 0.93286 0.0
H765 H 0.30161 0.40199 0.93892 0.0
H766 H 0.35486 0.47256 0.87863 0.0
H767 H 0.30289 0.50559 0.87233 0.0
C768 C 0.42004 0.3962 0.89662 0.0
C769 C 0.42939 0.38614 0.92704 0.0
C770 C 0.38844 0.41138 0.89097 0.0
C771 C 0.36534 0.41691 0.91561 0.0
C772 C 0.37464 0.40673 0.94611 0.0
C773 C 0.40644 0.3915 0.95179 0.0
C774 C 0.27194 0.44327 0.92018 0.0
C775 C 0.27199 0.47319 0.90207 0.0
C776 C 0.30202 0.42435 0.92405 0.0
C777 C 0.33251 0.43482 0.90957 0.0
C778 C 0.33185 0.46361 0.88999 0.0
C779 C 0.30201 0.48257 0.88635 0.0
H780 H 0.15461 0.40118 0.95723 0.0
H781 H 0.06707 0.45332 0.91917 0.0
H782 H 0.12815 0.34636 0.94558 0.0
H783 H 0.03923 0.39885 0.90953 0.0
H784 H 0.00522 0.30018 0.86962 0.0
H785 H 0.03814 0.3522 0.87725 0.0
H786 H 0.08748 0.30665 0.95782 0.0
H787 H 0.05631 0.25405 0.94849 0.0
C788 C 0.12926 0.40081 0.94709 0.0
C789 C 0.11278 0.43138 0.93916 0.0
C790 C 0.11399 0.36935 0.94038 0.0
C791 C 0.08152 0.36778 0.92619 0.0
C792 C 0.06464 0.39869 0.91948 0.0
C793 C 0.0803 0.43005 0.92548 0.0
C794 C 0.02389 0.3011 0.88836 0.0
C795 C 0.02839 0.27306 0.9083 0.0
C796 C 0.04238 0.33115 0.89318 0.0
C797 C 0.06505 0.33428 0.91871 0.0
C798 C 0.07064 0.30544 0.93773 0.0
C799 C 0.05278 0.27508 0.93236 0.0
H800 H 0.66313 0.29318 0.38354 0.0
H801 H 0.66416 0.20084 0.32811 0.0
H802 H 0.72147 0.30524 0.36724 0.0
H803 H 0.7227 0.21276 0.31206 0.0
H804 H 0.82947 0.21732 0.37103 0.0
H805 H 0.77024 0.20942 0.35496 0.0
H806 H 0.76625 0.31378 0.32281 0.0
H807 H 0.82554 0.32165 0.33867 0.0
C808 C 0.67551 0.2761 0.36712 0.0
C809 C 0.65979 0.24574 0.3577 0.0
C810 C 0.70869 0.28311 0.35752 0.0
C811 C 0.72645 0.25963 0.33867 0.0
C812 C 0.70943 0.23104 0.32671 0.0
C813 C 0.67613 0.22422 0.33606 0.0
C814 C 0.81623 0.23815 0.35962 0.0
C815 C 0.83144 0.27027 0.35685 0.0
C816 C 0.78253 0.23359 0.3501 0.0
C817 C 0.76383 0.26121 0.33799 0.0
C818 C 0.78025 0.29228 0.33226 0.0
C819 C 0.81398 0.29675 0.34154 0.0
H820 H 0.29993 0.67287 0.3307 0.0
H821 H 0.22362 0.68045 0.40347 0.0
H822 H 0.30954 0.73444 0.33381 0.0
H823 H 0.23312 0.74178 0.40631 0.0
H824 H 0.28984 0.82735 0.44238 0.0
H825 H 0.29255 0.7675 0.42718 0.0
H826 H 0.27622 0.79524 0.3304 0.0
H827 H 0.274 0.85533 0.34545 0.0
C828 C 0.28435 0.68791 0.34648 0.0
C829 C 0.26161 0.67213 0.36742 0.0
C830 C 0.29011 0.7229 0.34839 0.0
C831 C 0.27308 0.74205 0.37118 0.0
C832 C 0.24731 0.72693 0.38929 0.0
C833 C 0.24148 0.69207 0.38733 0.0
C834 C 0.28849 0.8208 0.41771 0.0
C835 C 0.2805 0.84546 0.39518 0.0
C836 C 0.28969 0.78668 0.40908 0.0
C837 C 0.28305 0.77724 0.37792 0.0
C838 C 0.28076 0.80223 0.35464 0.0
C839 C 0.27968 0.83649 0.36327 0.0
H840 H 0.34616 0.78411 0.21013 0.0
H841 H 0.34195 0.78659 0.10899 0.0
H842 H 0.28443 0.79094 0.2124 0.0
H843 H 0.28097 0.79006 0.11076 0.0
H844 H 0.17054 0.78833 0.11644 0.0
H845 H 0.22837 0.80847 0.1196 0.0
H846 H 0.24258 0.75083 0.20538 0.0
H847 H 0.1824 0.73485 0.20415 0.0
C848 C 0.33203 0.78711 0.18846 0.0
C849 C 0.34824 0.78365 0.15939 0.0
C850 C 0.29669 0.79036 0.18967 0.0
C851 C 0.27743 0.78922 0.16183 0.0
C852 C 0.29452 0.79077 0.13285 0.0
C853 C 0.32976 0.78862 0.13172 0.0
C854 C 0.18616 0.77976 0.13587 0.0
C855 C 0.17255 0.75939 0.15975 0.0
C856 C 0.21943 0.7914 0.13773 0.0
C857 C 0.24057 0.78117 0.16257 0.0
C858 C 0.22697 0.76003 0.18623 0.0
C859 C 0.19288 0.7499 0.18518 0.0
H860 H 0.71008 0.33119 0.15423 0.0
H861 H 0.77351 0.34098 0.23675 0.0
H862 H 0.70947 0.2695 0.16094 0.0
H863 H 0.77316 0.27898 0.24314 0.0
H864 H 0.73657 0.15808 0.23429 0.0
H865 H 0.73267 0.21944 0.24487 0.0
H866 H 0.77238 0.24025 0.15248 0.0
H867 H 0.7761 0.17935 0.14176 0.0
C868 C 0.7227 0.32024 0.17447 0.0
C869 C 0.74271 0.34036 0.19439 0.0
C870 C 0.7225 0.2851 0.17822 0.0
C871 C 0.7423 0.27002 0.20186 0.0
C872 C 0.75817 0.29038 0.22454 0.0
C873 C 0.75827 0.32569 0.22085 0.0
C874 C 0.74556 0.17585 0.21671 0.0
C875 C 0.75593 0.16438 0.18695 0.0
C876 C 0.74308 0.21073 0.22273 0.0
C877 C 0.75102 0.23395 0.19898 0.0
C878 C 0.7652 0.2224 0.1707 0.0
C879 C 0.76767 0.18773 0.1647 0.0
H880 H 0.16508 0.69217 0.63648 0.0
H881 H 0.17623 0.779 0.69793 0.0
H882 H 0.22417 0.67663 0.64506 0.0
H883 H 0.23669 0.76501 0.70501 0.0
H884 H 0.3411 0.73631 0.71913 0.0
H885 H 0.27989 0.72677 0.72442 0.0
H886 H 0.27444 0.70092 0.62581 0.0
H887 H 0.33525 0.70913 0.62107 0.0
C888 C 0.18064 0.70833 0.65136 0.0
C889 C 0.16701 0.73752 0.66564 0.0
C890 C 0.21428 0.69922 0.65653 0.0
C891 C 0.23515 0.71971 0.67542 0.0
C892 C 0.22107 0.74841 0.69063 0.0
C893 C 0.18688 0.75698 0.6861 0.0
C894 C 0.32685 0.72719 0.69902 0.0
C895 C 0.34224 0.72445 0.66947 0.0
C896 C 0.29189 0.72204 0.70197 0.0
C897 C 0.27228 0.71432 0.67534 0.0
C898 C 0.28874 0.70699 0.64683 0.0
C899 C 0.32363 0.71184 0.64398 0.0
H900 H 0.79577 0.16735 0.62485 0.0
H901 H 0.72096 0.17686 0.69842 0.0
H902 H 0.81282 0.22597 0.63232 0.0
H903 H 0.73555 0.23726 0.70415 0.0
H904 H 0.76866 0.3407 0.71834 0.0
H905 H 0.77517 0.27886 0.72 0.0
H906 H 0.79145 0.27815 0.61955 0.0
H907 H 0.78721 0.33938 0.61854 0.0
C908 C 0.78214 0.18257 0.64193 0.0
C909 C 0.7562 0.16835 0.66032 0.0
C910 C 0.79211 0.21609 0.64641 0.0
C911 C 0.77543 0.2365 0.66861 0.0
C912 C 0.74941 0.22209 0.68719 0.0
C913 C 0.74032 0.18791 0.68346 0.0
C914 C 0.77518 0.32721 0.69698 0.0
C915 C 0.77642 0.34426 0.66815 0.0
C916 C 0.7784 0.29186 0.69782 0.0
C917 C 0.78236 0.27347 0.66976 0.0
C918 C 0.78824 0.2913 0.64168 0.0
C919 C 0.7857 0.32655 0.64099 0.0
H920 H 0.83872 0.24006 0.83735 0.0
H921 H 0.82791 0.28277 0.93027 0.0
H922 H 0.77698 0.23378 0.83353 0.0
H923 H 0.76618 0.27738 0.92612 0.0
H924 H 0.67142 0.21769 0.93282 0.0
H925 H 0.73303 0.22312 0.92752 0.0
H926 H 0.72012 0.26183 0.83342 0.0
H927 H 0.65849 0.2555 0.83841 0.0
C928 C 0.82302 0.24935 0.85642 0.0
C929 C 0.83782 0.26119 0.8844 0.0
C930 C 0.78778 0.24552 0.8543 0.0
C931 C 0.76719 0.25381 0.88005 0.0
C932 C 0.7818 0.26959 0.90643 0.0
C933 C 0.81698 0.27323 0.90862 0.0
C934 C 0.68185 0.22617 0.91064 0.0
C935 C 0.66046 0.23682 0.88626 0.0
C936 C 0.71696 0.22983 0.90778 0.0
C937 C 0.73096 0.24426 0.88055 0.0
C938 C 0.7098 0.25115 0.85481 0.0
C939 C 0.67462 0.24729 0.85762 0.0
H940 H 0.21891 0.82404 0.92397 0.0
H941 H 0.2621 0.84061 0.83204 0.0
H942 H 0.22322 0.76266 0.91614 0.0
H943 H 0.26676 0.7789 0.82441 0.0
H944 H 0.28607 0.67066 0.91943 0.0
H945 H 0.28327 0.73236 0.91345 0.0
H946 H 0.23168 0.72022 0.82461 0.0
H947 H 0.23485 0.65825 0.83031 0.0
C948 C 0.22824 0.8145 0.90172 0.0
C949 C 0.24091 0.83671 0.8789 0.0
C950 C 0.2311 0.77954 0.8974 0.0
C951 C 0.24661 0.7666 0.87023 0.0
C952 C 0.25531 0.78863 0.84573 0.0
C953 C 0.25239 0.82375 0.85004 0.0
C954 C 0.27537 0.68114 0.89808 0.0
C955 C 0.25987 0.66007 0.87573 0.0
C956 C 0.27343 0.7163 0.89482 0.0
C957 C 0.25604 0.73052 0.8692 0.0
C958 C 0.24468 0.70952 0.84476 0.0
C959 C 0.24669 0.67422 0.84799 0.0
H960 H 0.66668 0.15789 0.44805 0.0
H961 H 0.59002 0.09157 0.48751 0.0
H962 H 0.71041 0.1295 0.47903 0.0
H963 H 0.63409 0.06283 0.51842 0.0
H964 H 0.71466 0.05391 0.59789 0.0
H965 H 0.67066 0.0769 0.56343 0.0
H966 H 0.74182 0.07598 0.48623 0.0
H967 H 0.78607 0.05309 0.52101 0.0
C968 C 0.65914 0.13698 0.46309 0.0
C969 C 0.62467 0.12715 0.46531 0.0
C970 C 0.68436 0.12053 0.48076 0.0
C971 C 0.67588 0.0939 0.50136 0.0
C972 C 0.64152 0.0835 0.50306 0.0
C973 C 0.61625 0.09982 0.48516 0.0
C974 C 0.72089 0.05842 0.57351 0.0
C975 C 0.75386 0.05166 0.56216 0.0
C976 C 0.69554 0.0714 0.55367 0.0
C977 C 0.70254 0.07824 0.52196 0.0
C978 C 0.73556 0.07126 0.51056 0.0
C979 C 0.76089 0.058 0.53042 0.0
H980 H 0.44289 0.7873 0.52045 0.0
H981 H 0.44232 0.71674 0.59796 0.0
H982 H 0.42102 0.7424 0.48584 0.0
H983 H 0.41992 0.67216 0.56378 0.0
H984 H 0.40497 0.59003 0.48933 0.0
H985 H 0.43292 0.63443 0.52051 0.0
H986 H 0.36944 0.71073 0.47662 0.0
H987 H 0.34216 0.66681 0.44523 0.0
C988 C 0.43816 0.76219 0.53007 0.0
C989 C 0.44431 0.75564 0.56194 0.0
C990 C 0.42544 0.73644 0.51029 0.0
C991 C 0.41863 0.70345 0.5219 0.0
C992 C 0.42527 0.69695 0.55378 0.0
C993 C 0.43787 0.72267 0.57349 0.0
C994 C 0.39726 0.61632 0.48606 0.0
C995 C 0.37116 0.62462 0.46473 0.0
C996 C 0.41312 0.64182 0.50415 0.0
C997 C 0.40342 0.67634 0.5013 0.0
C998 C 0.37798 0.68463 0.47932 0.0
C999 C 0.3621 0.65922 0.46138 0.0
H1000 H 0.90903 0.37841 0.51446 0.0
H1001 H 0.84044 0.37246 0.43567 0.0
H1002 H 0.86411 0.40392 0.54609 0.0
H1003 H 0.79618 0.40066 0.46597 0.0
H1004 H 0.7102 0.42005 0.5348 0.0
H1005 H 0.75562 0.39615 0.50264 0.0
H1006 H 0.8305 0.44715 0.56093 0.0
H1007 H 0.78494 0.46819 0.59429 0.0
C1008 C 0.88452 0.3835 0.50368 0.0
C1009 C 0.87827 0.37347 0.47263 0.0
C1010 C 0.85854 0.39836 0.52179 0.0
C1011 C 0.82578 0.40456 0.50904 0.0
C1012 C 0.82032 0.39563 0.47735 0.0
C1013 C 0.84595 0.37981 0.45965 0.0
C1014 C 0.73645 0.42611 0.54052 0.0
C1015 C 0.74402 0.44596 0.56699 0.0
C1016 C 0.76274 0.41262 0.52192 0.0
C1017 C 0.79742 0.41945 0.52873 0.0
C1018 C 0.80459 0.44024 0.55497 0.0
C1019 C 0.77834 0.45278 0.57406 0.0
H1020 H 0.05375 0.78268 0.59936 0.0
H1021 H 0.0459 0.71517 0.51968 0.0
H1022 H 0.07356 0.82841 0.56531 0.0
H1023 H 0.06534 0.76121 0.4853 0.0
H1024 H 0.1489 0.83425 0.44759 0.0
H1025 H 0.11865 0.79054 0.47652 0.0
H1026 H 0.05896 0.86818 0.52295 0.0
H1027 H 0.09003 0.91247 0.49395 0.0
C1028 C 0.05593 0.77771 0.57446 0.0
C1029 C 0.04842 0.74523 0.56221 0.0
C1030 C 0.067 0.80408 0.55486 0.0
C1031 C 0.07104 0.79864 0.52248 0.0
C1032 C 0.06281 0.76627 0.51015 0.0
C1033 C 0.05159 0.73988 0.5298 0.0
C1034 C 0.129 0.84212 0.46366 0.0
C1035 C 0.1221 0.87693 0.46867 0.0
C1036 C 0.11142 0.81691 0.48013 0.0
C1037 C 0.08644 0.8257 0.50228 0.0
C1038 C 0.07836 0.86052 0.50633 0.0
C1039 C 0.09589 0.8859 0.48953 0.0
H1040 H 0.21529 0.93205 0.96071 0.0
H1041 H 0.28101 0.94635 0.04088 0.0
H1042 H 0.16969 0.91228 0.99505 0.0
H1043 H 0.23515 0.92748 0.07547 0.0
H1044 H 0.16192 0.85071 0.12104 0.0
H1045 H 0.206 0.87664 0.0892 0.0
H1046 H 0.12879 0.9283 0.03462 0.0
H1047 H 0.08428 0.90088 0.06608 0.0
C1048 C 0.2199 0.93119 0.98575 0.0
C1049 C 0.2518 0.94064 0.99809 0.0
C1050 C 0.19361 0.92015 1.00551 0.0
C1051 C 0.19853 0.91829 0.03817 0.0
C1052 C 0.23045 0.92813 0.05046 0.0
C1053 C 0.25677 0.93909 0.03066 0.0
C1054 C 0.15424 0.86766 0.10231 0.0
C1055 C 0.1195 0.8733 0.09586 0.0
C1056 C 0.17966 0.8829 0.08418 0.0
C1057 C 0.17115 0.90449 0.05906 0.0
C1058 C 0.13634 0.91138 0.05343 0.0
C1059 C 0.11079 0.89601 0.07169 0.0
H1060 H 0.59454 0.08931 0.07181 0.0
H1061 H 0.6585 0.16599 0.11478 0.0
H1062 H 0.56619 0.1337 0.04098 0.0
H1063 H 0.63074 0.20992 0.08381 0.0
H1064 H 0.55753 0.21574 0.96316 0.0
H1065 H 0.57991 0.17119 0.99729 0.0
H1066 H 0.57838 0.24139 0.07543 0.0
H1067 H 0.55635 0.28622 0.04093 0.0
C1068 C 0.60235 0.11559 0.07494 0.0
C1069 C 0.62892 0.12391 0.09578 0.0
C1070 C 0.58629 0.14105 0.05706 0.0
C1071 C 0.59622 0.17551 0.05973 0.0
C1072 C 0.62207 0.18384 0.0813 0.0
C1073 C 0.63819 0.15846 0.09898 0.0
C1074 C 0.56184 0.22166 0.98766 0.0
C1075 C 0.5552 0.25456 0.99934 0.0
C1076 C 0.57444 0.19598 1.00733 0.0
C1077 C 0.58093 0.20251 0.03923 0.0
C1078 C 0.57401 0.23545 0.05095 0.0
C1079 C 0.56124 0.26115 0.03124 0.0
H1080 H 0.2121 0.56796 0.03741 0.0
H1081 H 0.28405 0.56176 0.96115 0.0
H1082 H 0.25675 0.59147 0.07138 0.0
H1083 H 0.32857 0.58533 0.99491 0.0
H1084 H 0.33567 0.67048 0.10821 0.0
H1085 H 0.29089 0.64386 0.07697 0.0
H1086 H 0.36363 0.571 0.04109 0.0
H1087 H 0.40865 0.59779 0.07225 0.0
C1088 C 0.23746 0.57157 1.02793 0.0
C1089 C 0.24455 0.56293 0.99663 0.0
C1090 C 0.26303 0.58518 0.04734 0.0
C1091 C 0.29638 0.59021 0.03597 0.0
C1092 C 0.30338 0.58137 1.00464 0.0
C1093 C 0.27778 0.56806 0.9852 0.0
C1094 C 0.34217 0.6486 0.0939 0.0
C1095 C 0.37593 0.63636 0.09281 0.0
C1096 C 0.31636 0.63322 0.07604 0.0
C1097 C 0.32358 0.60532 0.05636 0.0
C1098 C 0.3572 0.59268 0.05569 0.0
C1099 C 0.383 0.6079 0.07377 0.0
H1100 H 0.90451 0.40725 0.07347 0.0
H1101 H 0.83657 0.33231 0.11342 0.0
H1102 H 0.93167 0.3626 0.0422 0.0
H1103 H 0.86337 0.28794 0.08196 0.0
H1104 H 0.93838 0.21067 0.03966 0.0
H1105 H 0.91567 0.25511 0.07428 0.0
H1106 H 0.91716 0.3266 0.99734 0.0
H1107 H 0.94011 0.28241 0.96305 0.0
C1108 C 0.89552 0.38127 0.07582 0.0
C1109 C 0.86825 0.37353 0.09599 0.0
C1110 C 0.91093 0.35566 0.05768 0.0
C1111 C 0.89964 0.32159 0.05937 0.0
C1112 C 0.87301 0.31375 0.08021 0.0
C1113 C 0.85749 0.33934 0.09818 0.0
C1114 C 0.93397 0.23593 1.03025 0.0
C1115 C 0.94109 0.24302 0.99866 0.0
C1116 C 0.9208 0.26138 0.05003 0.0
C1117 C 0.91463 0.29458 0.0387 0.0
C1118 C 0.92204 0.30158 1.00707 0.0
C1119 C 0.93499 0.27613 0.98732 0.0
H1120 H 0.35434 0.82175 0.56997 0.0
H1121 H 0.39218 0.91795 0.60452 0.0
H1122 H 0.3107 0.85106 0.5402 0.0
H1123 H 0.34652 0.94781 0.57643 0.0
H1124 H 0.27585 0.9935 0.49979 0.0
H1125 H 0.32216 0.96733 0.53014 0.0
H1126 H 0.25983 0.87738 0.54333 0.0
H1127 H 0.21551 0.90255 0.5113 0.0
C1128 C 0.35287 0.8493 0.57161 0.0
C1129 C 0.37652 0.86748 0.58983 0.0
C1130 C 0.32749 0.86629 0.55469 0.0
C1131 C 0.3241 0.9021 0.55617 0.0
C1132 C 0.34815 0.92035 0.57429 0.0
C1133 C 0.37429 0.90326 0.59062 0.0
C1134 C 0.27223 0.96826 0.50951 0.0
C1135 C 0.24218 0.95001 0.50315 0.0
C1136 C 0.29874 0.95314 0.52699 0.0
C1137 C 0.29544 0.91969 0.539 0.0
C1138 C 0.26437 0.9025 0.53372 0.0
C1139 C 0.23851 0.91716 0.51566 0.0
H1140 H 0.64145 0.33751 0.62866 0.0
H1141 H 0.62268 0.40958 0.55452 0.0
H1142 H 0.61557 0.29239 0.59748 0.0
H1143 H 0.59978 0.36434 0.5218 0.0
H1144 H 0.54034 0.28276 0.47215 0.0
H1145 H 0.5597 0.32797 0.50677 0.0
H1146 H 0.61956 0.25433 0.55887 0.0
H1147 H 0.59706 0.20896 0.52573 0.0
C1148 C 0.63178 0.34359 0.60552 0.0
C1149 C 0.63367 0.37712 0.59417 0.0
C1150 C 0.61731 0.31754 0.58724 0.0
C1151 C 0.60546 0.32395 0.5565 0.0
C1152 C 0.60752 0.35785 0.54538 0.0
C1153 C 0.6209 0.38407 0.56413 0.0
C1154 C 0.55745 0.27636 0.49123 0.0
C1155 C 0.56714 0.24236 0.49635 0.0
C1156 C 0.56902 0.30245 0.51108 0.0
C1157 C 0.59175 0.29556 0.53602 0.0
C1158 C 0.60156 0.26121 0.54073 0.0
C1159 C 0.58895 0.23497 0.52149 0.0
H1160 H 0.25271 0.51933 0.5267 0.0
H1161 H 0.24197 0.60146 0.46026 0.0
H1162 H 0.2051 0.54261 0.55742 0.0
H1163 H 0.19481 0.62489 0.49097 0.0
H1164 H 0.14715 0.67868 0.57668 0.0
H1165 H 0.19103 0.65189 0.54496 0.0
H1166 H 0.13953 0.55507 0.55303 0.0
H1167 H 0.09475 0.58222 0.58495 0.0
C1168 C 0.24016 0.54233 0.51867 0.0
C1169 C 0.2512 0.5587 0.49117 0.0
C1170 C 0.21275 0.5555 0.53611 0.0
C1171 C 0.19618 0.58564 0.52669 0.0
C1172 C 0.20715 0.60177 0.49901 0.0
C1173 C 0.23414 0.58834 0.48137 0.0
C1174 C 0.14498 0.65163 0.57184 0.0
C1175 C 0.11731 0.63261 0.58352 0.0
C1176 C 0.17014 0.63633 0.55339 0.0
C1177 C 0.16879 0.60138 0.54632 0.0
C1178 C 0.14134 0.58207 0.55816 0.0
C1179 C 0.11563 0.59762 0.5763 0.0
H1180 H 0.91557 0.09579 0.58912 0.0
H1181 H 0.818 0.14424 0.57409 0.0
H1182 H 0.94298 0.1402 0.55708 0.0
H1183 H 0.84506 0.18804 0.54263 0.0
H1184 H 0.89813 0.24112 0.46138 0.0
H1185 H 0.87437 0.19334 0.49101 0.0
H1186 H 0.95386 0.20462 0.5604 0.0
H1187 H 0.97755 0.25257 0.53073 0.0
C1188 C 0.90001 0.11576 0.57897 0.0
C1189 C 0.86467 0.11662 0.58444 0.0
C1190 C 0.91568 0.14126 0.56078 0.0
C1191 C 0.89616 0.16764 0.54723 0.0
C1192 C 0.86082 0.168 0.5524 0.0
C1193 C 0.84536 0.14298 0.57079 0.0
C1194 C 0.91052 0.23338 0.48295 0.0
C1195 C 0.93948 0.25078 0.49391 0.0
C1196 C 0.89693 0.20603 0.49994 0.0
C1197 C 0.91218 0.19519 0.52813 0.0
C1198 C 0.94167 0.21212 0.53867 0.0
C1199 C 0.95506 0.23975 0.52182 0.0
H1200 H 0.8345 0.16504 0.95031 0.0
H1201 H 0.90882 0.09722 0.99158 0.0
H1202 H 0.78975 0.13879 0.98162 0.0
H1203 H 0.8638 0.07069 1.02279 0.0
H1204 H 0.78288 0.06428 0.1015 0.0
H1205 H 0.82741 0.08653 0.06729 0.0
H1206 H 0.75674 0.08627 0.98953 0.0
H1207 H 0.71198 0.06408 1.02402 0.0
C1208 C 0.84132 0.14427 0.96582 0.0
C1209 C 0.87544 0.13336 0.9684 0.0
C1210 C 0.81551 0.12907 0.9837 0.0
C1211 C 0.82306 0.10267 1.00491 0.0
C1212 C 0.85707 0.09124 1.007 0.0
C1213 C 0.88289 0.10628 0.9889 0.0
C1214 C 0.77684 0.06886 0.07707 0.0
C1215 C 0.74387 0.06237 0.06546 0.0
C1216 C 0.80249 0.08141 0.05737 0.0
C1217 C 0.79583 0.08811 1.02554 0.0
C1218 C 0.76276 0.08165 1.01395 0.0
C1219 C 0.73713 0.0688 0.03365 0.0
H1220 H 0.37564 0.90821 1.01267 0.0
H1221 H 0.3613 0.83845 0.93564 0.0
H1222 H 0.4024 0.86328 0.04316 0.0
H1223 H 0.39072 0.79393 0.96474 0.0
H1224 H 0.41659 0.70929 0.03375 0.0
H1225 H 0.38997 0.75403 1.0025 0.0
H1226 H 0.44684 0.83001 0.05468 0.0
H1227 H 0.47064 0.78525 0.08732 0.0
C1228 C 0.37902 0.88336 1.00198 0.0
C1229 C 0.36644 0.87692 0.97174 0.0
C1230 C 0.39468 0.85737 1.01942 0.0
C1231 C 0.39922 0.82433 1.00678 0.0
C1232 C 0.38725 0.81841 0.976 0.0
C1233 C 0.37064 0.84415 0.95898 0.0
C1234 C 0.42336 0.73564 0.03829 0.0
C1235 C 0.44567 0.74381 0.06289 0.0
C1236 C 0.40825 0.76152 1.02022 0.0
C1237 C 0.41584 0.79631 1.02569 0.0
C1238 C 0.43919 0.80402 0.04992 0.0
C1239 C 0.45335 0.77823 0.06854 0.0
H1240 H 0.71619 0.43398 0.10375 0.0
H1241 H 0.78536 0.43434 1.02516 0.0
H1242 H 0.6709 0.41163 0.07003 0.0
H1243 H 0.74004 0.41224 0.9913 0.0
H1244 H 0.66309 0.33373 0.95193 0.0
H1245 H 0.70769 0.35973 0.98365 0.0
H1246 H 0.6334 0.42687 1.02577 0.0
H1247 H 0.58842 0.40051 0.99409 0.0
C1248 C 0.72168 0.42941 0.07921 0.0
C1249 C 0.75438 0.43594 0.06712 0.0
C1250 C 0.69563 0.41682 0.05981 0.0
C1251 C 0.70168 0.41015 1.02784 0.0
C1252 C 0.73447 0.41675 1.01581 0.0
C1253 C 0.76045 0.42957 0.03519 0.0
C1254 C 0.65616 0.35423 0.96774 0.0
C1255 C 0.62199 0.36495 0.97038 0.0
C1256 C 0.68189 0.36929 0.98588 0.0
C1257 C 0.67427 0.3954 1.00741 0.0
C1258 C 0.64019 0.40657 1.0097 0.0
C1259 C 0.61441 0.39165 0.99132 0.0
H1260 H 0.05946 0.78691 1.0231 0.0
H1261 H 0.06293 0.71712 0.10117 0.0
H1262 H 0.08259 0.74232 0.98874 0.0
H1263 H 0.08622 0.67291 0.06723 0.0
H1264 H 0.09849 0.5905 0.99313 0.0
H1265 H 0.0711 0.63535 1.02389 0.0
H1266 H 0.13563 0.71062 0.98003 0.0
H1267 H 0.16269 0.66598 0.94902 0.0
C1268 C 0.0651 0.76206 0.03288 0.0
C1269 C 0.05933 0.75555 0.06482 0.0
C1270 C 0.0785 0.73654 1.01327 0.0
C1271 C 0.08619 0.70386 1.02512 0.0
C1272 C 0.08015 0.69749 0.05709 0.0
C1273 C 0.06701 0.72298 0.07665 0.0
C1274 C 0.10664 0.61663 0.98978 0.0
C1275 C 0.13294 0.62445 0.96857 0.0
C1276 C 0.09107 0.64238 1.00762 0.0
C1277 C 0.10124 0.6767 1.00465 0.0
C1278 C 0.12687 0.6846 0.98279 0.0
C1279 C 0.14255 0.65886 0.96508 0.0
loop_
_geom_bond_atom_site_label_1
_geom_bond_atom_site_label_2
_geom_bond_distance
_geom_bond_site_symmetry_2
_ccdc_geom_bond_type
Dy0 O4 2.398 . S
Dy0 O5 2.491 . S
Dy0 O6 2.403 . S
Dy0 O7 2.664 . S
Dy0 O11 2.326 . S
Dy0 O15 2.310 . S
Dy0 O16 2.351 . S
C1 O12 1.185 . S
C1 O13 1.355 . S
C2 O4 1.185 . S
C2 O5 1.355 . S
Dy3 O7 2.310 . S
Dy3 O10 2.351 . S
Dy3 O12 2.398 . S
Dy3 O13 2.491 . S
Dy3 O14 2.403 . S
Dy3 O15 2.664 . S
Dy3 O17 2.326 . S
O4 Dy0 2.398 . S
O4 C2 1.185 . S
O5 Dy0 2.491 . S
O5 C2 1.355 . S
O6 Dy0 2.403 . S
O6 C8 1.254 . S
O7 Dy0 2.664 . S
O7 Dy3 2.310 . S
O7 C8 1.268 . S
C8 O6 1.254 . S
C8 O7 1.268 . S
C9 O14 1.254 . S
C9 O15 1.268 . S
O10 Dy3 2.351 . S
O10 C18 1.249 . S
O11 Dy0 2.326 . S
O11 C18 1.267 . S
O12 C1 1.185 . S
O12 Dy3 2.398 . S
O13 C1 1.355 . S
O13 Dy3 2.491 . S
O14 Dy3 2.403 . S
O14 C9 1.254 . S
O15 Dy0 2.310 . S
O15 Dy3 2.664 . S
O15 C9 1.268 . S
O16 Dy0 2.351 . S
O16 C19 1.249 . S
O17 Dy3 2.326 . S
O17 C19 1.267 . S
C18 O10 1.249 . S
C18 O11 1.267 . S
C19 O16 1.249 . S
C19 O17 1.267 . S
Dy20 O24 2.398 . S
Dy20 O25 2.491 . S
Dy20 O26 2.403 . S
Dy20 O27 2.664 . S
Dy20 O31 2.326 . S
Dy20 O35 2.310 . S
Dy20 O36 2.351 . S
C21 O32 1.185 . S
C21 O33 1.355 . S
C22 O24 1.185 . S
C22 O25 1.355 . S
Dy23 O27 2.310 . S
Dy23 O30 2.351 . S
Dy23 O32 2.398 . S
Dy23 O33 2.491 . S
Dy23 O34 2.403 . S
Dy23 O35 2.664 . S
Dy23 O37 2.326 . S
O24 Dy20 2.398 . S
O24 C22 1.185 . S
O25 Dy20 2.491 . S
O25 C22 1.355 . S
O26 Dy20 2.403 . S
O26 C28 1.254 . S
O27 Dy20 2.664 . S
O27 Dy23 2.310 . S
O27 C28 1.268 . S
C28 O26 1.254 . S
C28 O27 1.268 . S
C29 O34 1.254 . S
C29 O35 1.268 . S
O30 Dy23 2.351 . S
O30 C38 1.249 . S
O31 Dy20 2.326 . S
O31 C38 1.267 . S
O32 C21 1.185 . S
O32 Dy23 2.398 . S
O33 C21 1.355 . S
O33 Dy23 2.491 . S
O34 Dy23 2.403 . S
O34 C29 1.254 . S
O35 Dy20 2.310 . S
O35 Dy23 2.664 . S
O35 C29 1.268 . S
O36 Dy20 2.351 . S
O36 C39 1.249 . S
O37 Dy23 2.326 . S
O37 C39 1.267 . S
C38 O30 1.249 . S
C38 O31 1.267 . S
C39 O36 1.249 . S
C39 O37 1.267 . S
Dy40 O44 2.398 . S
Dy40 O45 2.491 . S
Dy40 O46 2.403 . S
Dy40 O47 2.664 . S
Dy40 O51 2.326 . S
Dy40 O55 2.310 . S
Dy40 O56 2.351 . S
C41 O52 1.185 . S
C41 O53 1.355 . S
C42 O44 1.185 . S
C42 O45 1.355 . S
Dy43 O47 2.310 . S
Dy43 O50 2.351 . S
Dy43 O52 2.398 1_655 S
Dy43 O53 2.491 1_655 S
Dy43 O54 2.403 . S
Dy43 O55 2.664 . S
Dy43 O57 2.326 1_655 S
O44 Dy40 2.398 . S
O44 C42 1.185 . S
O45 Dy40 2.491 . S
O45 C42 1.355 . S
O46 Dy40 2.403 . S
O46 C48 1.254 . S
O47 Dy40 2.664 . S
O47 Dy43 2.310 . S
O47 C48 1.268 . S
C48 O46 1.254 . S
C48 O47 1.268 . S
C49 O54 1.254 . S
C49 O55 1.268 . S
O50 Dy43 2.351 . S
O50 C58 1.249 . S
O51 Dy40 2.326 . S
O51 C58 1.267 . S
O52 C41 1.185 . S
O52 Dy43 2.398 1_455 S
O53 C41 1.355 . S
O53 Dy43 2.491 1_455 S
O54 Dy43 2.403 . S
O54 C49 1.254 . S
O55 Dy40 2.310 . S
O55 Dy43 2.664 . S
O55 C49 1.268 . S
O56 Dy40 2.351 . S
O56 C59 1.266 . S
O57 Dy43 2.326 1_455 S
O57 C59 1.263 1_455 S
C58 O50 1.249 . S
C58 O51 1.267 . S
C59 O56 1.266 . S
C59 O57 1.263 1_655 S
Dy60 O64 2.398 . S
Dy60 O65 2.491 . S
Dy60 O66 2.403 . S
Dy60 O67 2.664 . S
Dy60 O71 2.326 . S
Dy60 O75 2.310 . S
Dy60 O76 2.351 . S
C61 O72 1.185 . S
C61 O73 1.355 . S
C62 O64 1.185 . S
C62 O65 1.355 . S
Dy63 O67 2.310 . S
Dy63 O70 2.351 . S
Dy63 O72 2.398 1_565 S
Dy63 O73 2.491 1_565 S
Dy63 O74 2.403 . S
Dy63 O75 2.664 . S
Dy63 O77 2.326 1_565 S
O64 Dy60 2.398 . S
O64 C62 1.185 . S
O65 Dy60 2.491 . S
O65 C62 1.355 . S
O66 Dy60 2.403 . S
O66 C68 1.254 . S
O67 Dy60 2.664 . S
O67 Dy63 2.310 . S
O67 C68 1.268 . S
C68 O66 1.254 . S
C68 O67 1.268 . S
C69 O74 1.254 . S
C69 O75 1.268 . S
O70 Dy63 2.351 . S
O70 C78 1.249 . S
O71 Dy60 2.326 . S
O71 C78 1.267 . S
O72 C61 1.185 . S
O72 Dy63 2.398 1_545 S
O73 C61 1.355 . S
O73 Dy63 2.491 1_545 S
O74 Dy63 2.403 . S
O74 C69 1.254 . S
O75 Dy60 2.310 . S
O75 Dy63 2.664 . S
O75 C69 1.268 . S
O76 Dy60 2.351 . S
O76 C79 1.266 . S
O77 Dy63 2.326 1_545 S
O77 C79 1.263 1_545 S
C78 O70 1.249 . S
C78 O71 1.267 . S
C79 O76 1.266 . S
C79 O77 1.263 1_565 S
Dy80 O84 2.398 . S
Dy80 O85 2.491 . S
Dy80 O86 2.403 . S
Dy80 O87 2.664 . S
Dy80 O91 2.326 . S
Dy80 O95 2.310 . S
Dy80 O96 2.351 . S
C81 O92 1.185 . S
C81 O93 1.355 . S
C82 O84 1.185 . S
C82 O85 1.355 . S
Dy83 O87 2.310 . S
Dy83 O90 2.351 . S
Dy83 O92 2.398 1_455 S
Dy83 O93 2.491 1_455 S
Dy83 O94 2.403 . S
Dy83 O95 2.664 . S
Dy83 O97 2.326 1_455 S
O84 Dy80 2.398 . S
O84 C82 1.185 . S
O85 Dy80 2.491 . S
O85 C82 1.355 . S
O86 Dy80 2.403 . S
O86 C88 1.254 . S
O87 Dy80 2.664 . S
O87 Dy83 2.310 . S
O87 C88 1.268 . S
C88 O86 1.254 . S
C88 O87 1.268 . S
C89 O94 1.254 . S
C89 O95 1.268 . S
O90 Dy83 2.351 . S
O90 C98 1.249 . S
O91 Dy80 2.326 . S
O91 C98 1.267 . S
O92 C81 1.185 . S
O92 Dy83 2.398 1_655 S
O93 C81 1.355 . S
O93 Dy83 2.491 1_655 S
O94 Dy83 2.403 . S
O94 C89 1.254 . S
O95 Dy80 2.310 . S
O95 Dy83 2.664 . S
O95 C89 1.268 . S
O96 Dy80 2.351 . S
O96 C99 1.266 . S
O97 Dy83 2.326 1_655 S
O97 C99 1.263 1_655 S
C98 O90 1.249 . S
C98 O91 1.267 . S
C99 O96 1.266 . S
C99 O97 1.263 1_455 S
Dy100 O104 2.398 . S
Dy100 O105 2.491 . S
Dy100 O106 2.403 . S
Dy100 O107 2.664 . S
Dy100 O111 2.326 . S
Dy100 O115 2.310 . S
Dy100 O116 2.351 . S
C101 O112 1.185 . S
C101 O113 1.355 . S
C102 O104 1.185 . S
C102 O105 1.355 . S
Dy103 O107 2.310 . S
Dy103 O110 2.351 . S
Dy103 O112 2.398 1_545 S
Dy103 O113 2.491 1_545 S
Dy103 O114 2.403 . S
Dy103 O115 2.664 . S
Dy103 O117 2.326 1_545 S
O104 Dy100 2.398 . S
O104 C102 1.185 . S
O105 Dy100 2.491 . S
O105 C102 1.355 . S
O106 Dy100 2.403 . S
O106 C108 1.254 . S
O107 Dy100 2.664 . S
O107 Dy103 2.310 . S
O107 C108 1.268 . S
C108 O106 1.254 . S
C108 O107 1.268 . S
C109 O114 1.254 . S
C109 O115 1.268 . S
O110 Dy103 2.351 . S
O110 C118 1.249 . S
O111 Dy100 2.326 . S
O111 C118 1.267 . S
O112 C101 1.185 . S
O112 Dy103 2.398 1_565 S
O113 C101 1.355 . S
O113 Dy103 2.491 1_565 S
O114 Dy103 2.403 . S
O114 C109 1.254 . S
O115 Dy100 2.310 . S
O115 Dy103 2.664 . S
O115 C109 1.268 . S
O116 Dy100 2.351 . S
O116 C119 1.266 . S
O117 Dy103 2.326 1_565 S
O117 C119 1.263 1_565 S
C118 O110 1.249 . S
C118 O111 1.267 . S
C119 O116 1.266 . S
C119 O117 1.263 1_545 S
Dy120 O124 2.398 . S
Dy120 O125 2.491 . S
Dy120 O126 2.403 . S
Dy120 O127 2.664 . S
Dy120 O131 2.326 . S
Dy120 O135 2.310 . S
Dy120 O136 2.351 . S
C121 O132 1.185 . S
C121 O133 1.355 . S
C122 O124 1.185 . S
C122 O125 1.355 . S
Dy123 O127 2.310 . S
Dy123 O130 2.351 . S
Dy123 O132 2.398 . S
Dy123 O133 2.491 . S
Dy123 O134 2.403 . S
Dy123 O135 2.664 . S
Dy123 O137 2.326 . S
O124 Dy120 2.398 . S
O124 C122 1.185 . S
O125 Dy120 2.491 . S
O125 C122 1.355 . S
O126 Dy120 2.403 . S
O126 C128 1.254 . S
O127 Dy120 2.664 . S
O127 Dy123 2.310 . S
O127 C128 1.268 . S
C128 O126 1.254 . S
C128 O127 1.268 . S
C129 O134 1.254 . S
C129 O135 1.268 . S
O130 Dy123 2.351 . S
O130 C138 1.249 . S
O131 Dy120 2.326 . S
O131 C138 1.267 . S
O132 C121 1.185 . S
O132 Dy123 2.398 . S
O133 C121 1.355 . S
O133 Dy123 2.491 . S
O134 Dy123 2.403 . S
O134 C129 1.254 . S
O135 Dy120 2.310 . S
O135 Dy123 2.664 . S
O135 C129 1.268 . S
O136 Dy120 2.351 . S
O136 C139 1.249 . S
O137 Dy123 2.326 . S
O137 C139 1.267 . S
C138 O130 1.249 . S
C138 O131 1.267 . S
C139 O136 1.249 . S
C139 O137 1.267 . S
Dy140 O144 2.398 . S
Dy140 O145 2.491 . S
Dy140 O146 2.403 . S
Dy140 O147 2.664 . S
Dy140 O151 2.326 . S
Dy140 O155 2.310 . S
Dy140 O156 2.351 . S
C141 O152 1.185 . S
C141 O153 1.355 . S
C142 O144 1.185 . S
C142 O145 1.355 . S
Dy143 O147 2.310 . S
Dy143 O150 2.351 . S
Dy143 O152 2.398 . S
Dy143 O153 2.491 . S
Dy143 O154 2.403 . S
Dy143 O155 2.664 . S
Dy143 O157 2.326 . S
O144 Dy140 2.398 . S
O144 C142 1.185 . S
O145 Dy140 2.491 . S
O145 C142 1.355 . S
O146 Dy140 2.403 . S
O146 C148 1.254 . S
O147 Dy140 2.664 . S
O147 Dy143 2.310 . S
O147 C148 1.268 . S
C148 O146 1.254 . S
C148 O147 1.268 . S
C149 O154 1.254 . S
C149 O155 1.268 . S
O150 Dy143 2.351 . S
O150 C158 1.249 . S
O151 Dy140 2.326 . S
O151 C158 1.267 . S
O152 C141 1.185 . S
O152 Dy143 2.398 . S
O153 C141 1.355 . S
O153 Dy143 2.491 . S
O154 Dy143 2.403 . S
O154 C149 1.254 . S
O155 Dy140 2.310 . S
O155 Dy143 2.664 . S
O155 C149 1.268 . S
O156 Dy140 2.351 . S
O156 C159 1.249 . S
O157 Dy143 2.326 . S
O157 C159 1.267 . S
C158 O150 1.249 . S
C158 O151 1.267 . S
C159 O156 1.249 . S
C159 O157 1.267 . S
Dy160 O164 2.398 . S
Dy160 O165 2.491 . S
Dy160 O166 2.403 . S
Dy160 O167 2.664 . S
Dy160 O171 2.326 . S
Dy160 O175 2.310 . S
Dy160 O176 2.351 . S
C161 O172 1.185 . S
C161 O173 1.355 . S
C162 O164 1.185 . S
C162 O165 1.355 . S
Dy163 O167 2.310 . S
Dy163 O170 2.351 . S
Dy163 O172 2.398 . S
Dy163 O173 2.491 . S
Dy163 O174 2.403 . S
Dy163 O175 2.664 . S
Dy163 O177 2.326 . S
O164 Dy160 2.398 . S
O164 C162 1.185 . S
O165 Dy160 2.491 . S
O165 C162 1.355 . S
O166 Dy160 2.403 . S
O166 C168 1.254 . S
O167 Dy160 2.664 . S
O167 Dy163 2.310 . S
O167 C168 1.268 . S
C168 O166 1.254 . S
C168 O167 1.268 . S
C169 O174 1.254 . S
C169 O175 1.268 . S
O170 Dy163 2.351 . S
O170 C178 1.249 . S
O171 Dy160 2.326 . S
O171 C178 1.267 . S
O172 C161 1.185 . S
O172 Dy163 2.398 . S
O173 C161 1.355 . S
O173 Dy163 2.491 . S
O174 Dy163 2.403 . S
O174 C169 1.254 . S
O175 Dy160 2.310 . S
O175 Dy163 2.664 . S
O175 C169 1.268 . S
O176 Dy160 2.351 . S
O176 C179 1.249 . S
O177 Dy163 2.326 . S
O177 C179 1.267 . S
C178 O170 1.249 . S
C178 O171 1.267 . S
C179 O176 1.249 . S
C179 O177 1.267 . S
Dy180 O184 2.398 . S
Dy180 O185 2.491 . S
Dy180 O186 2.403 . S
Dy180 O187 2.664 . S
Dy180 O191 2.326 . S
Dy180 O195 2.310 . S
Dy180 O196 2.351 . S
C181 O192 1.185 . S
C181 O193 1.355 . S
C182 O184 1.185 . S
C182 O185 1.355 . S
Dy183 O187 2.310 . S
Dy183 O190 2.351 . S
Dy183 O192 2.398 . S
Dy183 O193 2.491 . S
Dy183 O194 2.403 . S
Dy183 O195 2.664 . S
Dy183 O197 2.326 . S
O184 Dy180 2.398 . S
O184 C182 1.185 . S
O185 Dy180 2.491 . S
O185 C182 1.355 . S
O186 Dy180 2.403 . S
O186 C188 1.254 . S
O187 Dy180 2.664 . S
O187 Dy183 2.310 . S
O187 C188 1.268 . S
C188 O186 1.254 . S
C188 O187 1.268 . S
C189 O194 1.254 . S
C189 O195 1.268 . S
O190 Dy183 2.351 . S
O190 C198 1.249 . S
O191 Dy180 2.326 . S
O191 C198 1.267 . S
O192 C181 1.185 . S
O192 Dy183 2.398 . S
O193 C181 1.355 . S
O193 Dy183 2.491 . S
O194 Dy183 2.403 . S
O194 C189 1.254 . S
O195 Dy180 2.310 . S
O195 Dy183 2.664 . S
O195 C189 1.268 . S
O196 Dy180 2.351 . S
O196 C199 1.249 . S
O197 Dy183 2.326 . S
O197 C199 1.267 . S
C198 O190 1.249 . S
C198 O191 1.267 . S
C199 O196 1.249 . S
C199 O197 1.267 . S
Dy200 O204 2.398 1_455 S
Dy200 O205 2.491 1_455 S
Dy200 O206 2.403 . S
Dy200 O207 2.664 . S
Dy200 O211 2.326 1_455 S
Dy200 O215 2.310 . S
Dy200 O216 2.351 . S
C201 O212 1.185 . S
C201 O213 1.355 . S
C202 O204 1.185 . S
C202 O205 1.355 . S
Dy203 O207 2.310 . S
Dy203 O210 2.351 . S
Dy203 O212 2.398 . S
Dy203 O213 2.491 . S
Dy203 O214 2.403 . S
Dy203 O215 2.664 . S
Dy203 O217 2.326 . S
O204 Dy200 2.398 1_655 S
O204 C202 1.185 . S
O205 Dy200 2.491 1_655 S
O205 C202 1.355 . S
O206 Dy200 2.403 . S
O206 C208 1.254 . S
O207 Dy200 2.664 . S
O207 Dy203 2.310 . S
O207 C208 1.268 . S
C208 O206 1.254 . S
C208 O207 1.268 . S
C209 O214 1.254 . S
C209 O215 1.268 . S
O210 Dy203 2.351 . S
O210 C218 1.266 . S
O211 Dy200 2.326 1_655 S
O211 C218 1.263 1_655 S
O212 C201 1.185 . S
O212 Dy203 2.398 . S
O213 C201 1.355 . S
O213 Dy203 2.491 . S
O214 Dy203 2.403 . S
O214 C209 1.254 . S
O215 Dy200 2.310 . S
O215 Dy203 2.664 . S
O215 C209 1.268 . S
O216 Dy200 2.351 . S
O216 C219 1.249 . S
O217 Dy203 2.326 . S
O217 C219 1.267 . S
C218 O210 1.266 . S
C218 O211 1.263 1_455 S
C219 O216 1.249 . S
C219 O217 1.267 . S
Dy220 O224 2.398 1_545 S
Dy220 O225 2.491 1_545 S
Dy220 O226 2.403 . S
Dy220 O227 2.664 . S
Dy220 O231 2.326 1_545 S
Dy220 O235 2.310 . S
Dy220 O236 2.351 . S
C221 O232 1.185 . S
C221 O233 1.355 . S
C222 O224 1.185 . S
C222 O225 1.355 . S
Dy223 O227 2.310 . S
Dy223 O230 2.351 . S
Dy223 O232 2.398 . S
Dy223 O233 2.491 . S
Dy223 O234 2.403 . S
Dy223 O235 2.664 . S
Dy223 O237 2.326 . S
O224 Dy220 2.398 1_565 S
O224 C222 1.185 . S
O225 Dy220 2.491 1_565 S
O225 C222 1.355 . S
O226 Dy220 2.403 . S
O226 C228 1.254 . S
O227 Dy220 2.664 . S
O227 Dy223 2.310 . S
O227 C228 1.268 . S
C228 O226 1.254 . S
C228 O227 1.268 . S
C229 O234 1.254 . S
C229 O235 1.268 . S
O230 Dy223 2.351 . S
O230 C238 1.266 . S
O231 Dy220 2.326 1_565 S
O231 C238 1.263 1_565 S
O232 C221 1.185 . S
O232 Dy223 2.398 . S
O233 C221 1.355 . S
O233 Dy223 2.491 . S
O234 Dy223 2.403 . S
O234 C229 1.254 . S
O235 Dy220 2.310 . S
O235 Dy223 2.664 . S
O235 C229 1.268 . S
O236 Dy220 2.351 . S
O236 C239 1.249 . S
O237 Dy223 2.326 . S
O237 C239 1.267 . S
C238 O230 1.266 . S
C238 O231 1.263 1_545 S
C239 O236 1.249 . S
C239 O237 1.267 . S
Dy240 O244 2.398 1_655 S
Dy240 O245 2.491 1_655 S
Dy240 O246 2.403 . S
Dy240 O247 2.664 . S
Dy240 O251 2.326 1_655 S
Dy240 O255 2.310 . S
Dy240 O256 2.351 . S
C241 O252 1.185 . S
C241 O253 1.355 . S
C242 O244 1.185 . S
C242 O245 1.355 . S
Dy243 O247 2.310 . S
Dy243 O250 2.351 . S
Dy243 O252 2.398 . S
Dy243 O253 2.491 . S
Dy243 O254 2.403 . S
Dy243 O255 2.664 . S
Dy243 O257 2.326 . S
O244 Dy240 2.398 1_455 S
O244 C242 1.185 . S
O245 Dy240 2.491 1_455 S
O245 C242 1.355 . S
O246 Dy240 2.403 . S
O246 C248 1.254 . S
O247 Dy240 2.664 . S
O247 Dy243 2.310 . S
O247 C248 1.268 . S
C248 O246 1.254 . S
C248 O247 1.268 . S
C249 O254 1.254 . S
C249 O255 1.268 . S
O250 Dy243 2.351 . S
O250 C258 1.266 . S
O251 Dy240 2.326 1_455 S
O251 C258 1.263 1_455 S
O252 C241 1.185 . S
O252 Dy243 2.398 . S
O253 C241 1.355 . S
O253 Dy243 2.491 . S
O254 Dy243 2.403 . S
O254 C249 1.254 . S
O255 Dy240 2.310 . S
O255 Dy243 2.664 . S
O255 C249 1.268 . S
O256 Dy240 2.351 . S
O256 C259 1.249 . S
O257 Dy243 2.326 . S
O257 C259 1.267 . S
C258 O250 1.266 . S
C258 O251 1.263 1_655 S
C259 O256 1.249 . S
C259 O257 1.267 . S
Dy260 O264 2.398 1_565 S
Dy260 O265 2.491 1_565 S
Dy260 O266 2.403 . S
Dy260 O267 2.664 . S
Dy260 O271 2.326 1_565 S
Dy260 O275 2.310 . S
Dy260 O276 2.351 . S
C261 O272 1.185 . S
C261 O273 1.355 . S
C262 O264 1.185 . S
C262 O265 1.355 . S
Dy263 O267 2.310 . S
Dy263 O270 2.351 . S
Dy263 O272 2.398 . S
Dy263 O273 2.491 . S
Dy263 O274 2.403 . S
Dy263 O275 2.664 . S
Dy263 O277 2.326 . S
O264 Dy260 2.398 1_545 S
O264 C262 1.185 . S
O265 Dy260 2.491 1_545 S
O265 C262 1.355 . S
O266 Dy260 2.403 . S
O266 C268 1.254 . S
O267 Dy260 2.664 . S
O267 Dy263 2.310 . S
O267 C268 1.268 . S
C268 O266 1.254 . S
C268 O267 1.268 . S
C269 O274 1.254 . S
C269 O275 1.268 . S
O270 Dy263 2.351 . S
O270 C278 1.266 . S
O271 Dy260 2.326 1_545 S
O271 C278 1.263 1_545 S
O272 C261 1.185 . S
O272 Dy263 2.398 . S
O273 C261 1.355 . S
O273 Dy263 2.491 . S
O274 Dy263 2.403 . S
O274 C269 1.254 . S
O275 Dy260 2.310 . S
O275 Dy263 2.664 . S
O275 C269 1.268 . S
O276 Dy260 2.351 . S
O276 C279 1.249 . S
O277 Dy263 2.326 . S
O277 C279 1.267 . S
C278 O270 1.266 . S
C278 O271 1.263 1_565 S
C279 O276 1.249 . S
C279 O277 1.267 . S
Dy280 O284 2.398 . S
Dy280 O285 2.491 . S
Dy280 O286 2.403 . S
Dy280 O287 2.664 . S
Dy280 O291 2.326 . S
Dy280 O295 2.310 . S
Dy280 O296 2.351 . S
C281 O292 1.185 . S
C281 O293 1.355 . S
C282 O284 1.185 . S
C282 O285 1.355 . S
Dy283 O287 2.310 . S
Dy283 O290 2.351 . S
Dy283 O292 2.398 . S
Dy283 O293 2.491 . S
Dy283 O294 2.403 . S
Dy283 O295 2.664 . S
Dy283 O297 2.326 . S
O284 Dy280 2.398 . S
O284 C282 1.185 . S
O285 Dy280 2.491 . S
O285 C282 1.355 . S
O286 Dy280 2.403 . S
O286 C288 1.254 . S
O287 Dy280 2.664 . S
O287 Dy283 2.310 . S
O287 C288 1.268 . S
C288 O286 1.254 . S
C288 O287 1.268 . S
C289 O294 1.254 . S
C289 O295 1.268 . S
O290 Dy283 2.351 . S
O290 C298 1.249 . S
O291 Dy280 2.326 . S
O291 C298 1.267 . S
O292 C281 1.185 . S
O292 Dy283 2.398 . S
O293 C281 1.355 . S
O293 Dy283 2.491 . S
O294 Dy283 2.403 . S
O294 C289 1.254 . S
O295 Dy280 2.310 . S
O295 Dy283 2.664 . S
O295 C289 1.268 . S
O296 Dy280 2.351 . S
O296 C299 1.249 . S
O297 Dy283 2.326 . S
O297 C299 1.267 . S
C298 O290 1.249 . S
C298 O291 1.267 . S
C299 O296 1.249 . S
C299 O297 1.267 . S
Dy300 O304 2.398 . S
Dy300 O305 2.491 . S
Dy300 O306 2.403 . S
Dy300 O307 2.664 . S
Dy300 O311 2.326 . S
Dy300 O315 2.310 . S
Dy300 O316 2.351 . S
C301 O312 1.185 . S
C301 O313 1.355 . S
C302 O304 1.185 . S
C302 O305 1.355 . S
Dy303 O307 2.310 . S
Dy303 O310 2.351 . S
Dy303 O312 2.398 . S
Dy303 O313 2.491 . S
Dy303 O314 2.403 . S
Dy303 O315 2.664 . S
Dy303 O317 2.326 . S
O304 Dy300 2.398 . S
O304 C302 1.185 . S
O305 Dy300 2.491 . S
O305 C302 1.355 . S
O306 Dy300 2.403 . S
O306 C308 1.254 . S
O307 Dy300 2.664 . S
O307 Dy303 2.310 . S
O307 C308 1.268 . S
C308 O306 1.254 . S
C308 O307 1.268 . S
C309 O314 1.254 . S
C309 O315 1.268 . S
O310 Dy303 2.351 . S
O310 C318 1.249 . S
O311 Dy300 2.326 . S
O311 C318 1.267 . S
O312 C301 1.185 . S
O312 Dy303 2.398 . S
O313 C301 1.355 . S
O313 Dy303 2.491 . S
O314 Dy303 2.403 . S
O314 C309 1.254 . S
O315 Dy300 2.310 . S
O315 Dy303 2.664 . S
O315 C309 1.268 . S
O316 Dy300 2.351 . S
O316 C319 1.249 . S
O317 Dy303 2.326 . S
O317 C319 1.267 . S
C318 O310 1.249 . S
C318 O311 1.267 . S
C319 O316 1.249 . S
C319 O317 1.267 . S
H320 C328 0.950 . S
H321 C333 0.950 . S
H322 C330 0.950 . S
H323 C332 0.950 . S
H324 C334 0.950 . S
H325 C336 0.950 . S
H326 C338 0.950 . S
H327 C339 0.950 . S
C328 H320 0.950 . S
C328 C329 1.386 . S
C328 C330 1.391 . S
C329 C328 1.386 . S
C329 C333 1.393 . S
C330 H322 0.950 . S
C330 C328 1.391 . S
C330 C331 1.400 . S
C331 C330 1.400 . S
C331 C332 1.398 . S
C331 C337 1.491 . S
C332 H323 0.950 . S
C332 C331 1.398 . S
C332 C333 1.391 . S
C333 H321 0.950 . S
C333 C329 1.393 . S
C333 C332 1.391 . S
C334 H324 0.950 . S
C334 C335 1.386 . S
C334 C336 1.391 . S
C335 C334 1.386 . S
C335 C339 1.393 . S
C336 H325 0.950 . S
C336 C334 1.391 . S
C336 C337 1.400 . S
C337 C331 1.491 . S
C337 C336 1.400 . S
C337 C338 1.398 . S
C338 H326 0.950 . S
C338 C337 1.398 . S
C338 C339 1.391 . S
C339 H327 0.950 . S
C339 C335 1.393 . S
C339 C338 1.391 . S
H340 C348 0.950 . S
H341 C353 0.950 . S
H342 C350 0.950 . S
H343 C352 0.950 . S
H344 C354 0.950 . S
H345 C356 0.950 . S
H346 C358 0.950 . S
H347 C359 0.950 . S
C348 H340 0.950 . S
C348 C349 1.386 . S
C348 C350 1.391 . S
C349 C348 1.386 . S
C349 C353 1.393 . S
C350 H342 0.950 . S
C350 C348 1.391 . S
C350 C351 1.400 . S
C351 C350 1.400 . S
C351 C352 1.398 . S
C351 C357 1.491 . S
C352 H343 0.950 . S
C352 C351 1.398 . S
C352 C353 1.391 . S
C353 H341 0.950 . S
C353 C349 1.393 . S
C353 C352 1.391 . S
C354 H344 0.950 . S
C354 C355 1.386 . S
C354 C356 1.391 . S
C355 C354 1.386 . S
C355 C359 1.393 . S
C356 H345 0.950 . S
C356 C354 1.391 . S
C356 C357 1.400 . S
C357 C351 1.491 . S
C357 C356 1.400 . S
C357 C358 1.398 . S
C358 H346 0.950 . S
C358 C357 1.398 . S
C358 C359 1.391 . S
C359 H347 0.950 . S
C359 C355 1.393 . S
C359 C358 1.391 . S
H360 C368 0.950 . S
H361 C373 0.950 . S
H362 C370 0.950 . S
H363 C372 0.950 . S
H364 C374 0.950 . S
H365 C376 0.950 . S
H366 C378 0.950 . S
H367 C379 0.950 . S
C368 H360 0.950 . S
C368 C369 1.386 . S
C368 C370 1.391 . S
C369 C368 1.386 . S
C369 C373 1.393 . S
C370 H362 0.950 . S
C370 C368 1.391 . S
C370 C371 1.400 . S
C371 C370 1.400 . S
C371 C372 1.398 . S
C371 C377 1.491 . S
C372 H363 0.950 . S
C372 C371 1.398 . S
C372 C373 1.391 . S
C373 H361 0.950 . S
C373 C369 1.393 . S
C373 C372 1.391 . S
C374 H364 0.950 . S
C374 C375 1.386 . S
C374 C376 1.391 . S
C375 C374 1.386 . S
C375 C379 1.393 . S
C376 H365 0.950 . S
C376 C374 1.391 . S
C376 C377 1.400 . S
C377 C371 1.491 . S
C377 C376 1.400 . S
C377 C378 1.398 . S
C378 H366 0.950 . S
C378 C377 1.398 . S
C378 C379 1.391 . S
C379 H367 0.950 . S
C379 C375 1.393 . S
C379 C378 1.391 . S
H380 C388 0.950 . S
H381 C393 0.950 . S
H382 C390 0.950 . S
H383 C392 0.950 . S
H384 C394 0.950 . S
H385 C396 0.950 . S
H386 C398 0.950 . S
H387 C399 0.950 . S
C388 H380 0.950 . S
C388 C389 1.386 . S
C388 C390 1.391 . S
C389 C388 1.386 . S
C389 C393 1.393 . S
C390 H382 0.950 . S
C390 C388 1.391 . S
C390 C391 1.400 . S
C391 C390 1.400 . S
C391 C392 1.398 . S
C391 C397 1.491 . S
C392 H383 0.950 . S
C392 C391 1.398 . S
C392 C393 1.391 . S
C393 H381 0.950 . S
C393 C389 1.393 . S
C393 C392 1.391 . S
C394 H384 0.950 . S
C394 C395 1.386 . S
C394 C396 1.391 . S
C395 C394 1.386 . S
C395 C399 1.393 . S
C396 H385 0.950 . S
C396 C394 1.391 . S
C396 C397 1.400 . S
C397 C391 1.491 . S
C397 C396 1.400 . S
C397 C398 1.398 . S
C398 H386 0.950 . S
C398 C397 1.398 . S
C398 C399 1.391 . S
C399 H387 0.950 . S
C399 C395 1.393 . S
C399 C398 1.391 . S
H400 C408 0.950 . S
H401 C413 0.950 . S
H402 C410 0.950 . S
H403 C412 0.950 . S
H404 C414 0.950 . S
H405 C416 0.950 . S
H406 C418 0.950 . S
H407 C419 0.950 . S
C408 H400 0.950 . S
C408 C409 1.386 . S
C408 C410 1.391 . S
C409 C408 1.386 . S
C409 C413 1.393 . S
C410 H402 0.950 . S
C410 C408 1.391 . S
C410 C411 1.400 . S
C411 C410 1.400 . S
C411 C412 1.398 . S
C411 C417 1.491 . S
C412 H403 0.950 . S
C412 C411 1.398 . S
C412 C413 1.391 . S
C413 H401 0.950 . S
C413 C409 1.393 . S
C413 C412 1.391 . S
C414 H404 0.950 . S
C414 C415 1.386 . S
C414 C416 1.391 . S
C415 C414 1.386 . S
C415 C419 1.393 . S
C416 H405 0.950 . S
C416 C414 1.391 . S
C416 C417 1.400 . S
C417 C411 1.491 . S
C417 C416 1.400 . S
C417 C418 1.398 . S
C418 H406 0.950 . S
C418 C417 1.398 . S
C418 C419 1.391 . S
C419 H407 0.950 . S
C419 C415 1.393 . S
C419 C418 1.391 . S
H420 C428 0.950 . S
H421 C433 0.950 . S
H422 C430 0.950 . S
H423 C432 0.950 . S
H424 C434 0.950 . S
H425 C436 0.950 . S
H426 C438 0.950 . S
H427 C439 0.950 . S
C428 H420 0.950 . S
C428 C429 1.386 . S
C428 C430 1.391 . S
C429 C428 1.386 . S
C429 C433 1.393 . S
C430 H422 0.950 . S
C430 C428 1.391 . S
C430 C431 1.400 . S
C431 C430 1.400 . S
C431 C432 1.398 . S
C431 C437 1.491 . S
C432 H423 0.950 . S
C432 C431 1.398 . S
C432 C433 1.391 . S
C433 H421 0.950 . S
C433 C429 1.393 . S
C433 C432 1.391 . S
C434 H424 0.950 . S
C434 C435 1.386 . S
C434 C436 1.391 . S
C435 C434 1.386 . S
C435 C439 1.393 . S
C436 H425 0.950 . S
C436 C434 1.391 . S
C436 C437 1.400 . S
C437 C431 1.491 . S
C437 C436 1.400 . S
C437 C438 1.398 . S
C438 H426 0.950 . S
C438 C437 1.398 . S
C438 C439 1.391 . S
C439 H427 0.950 . S
C439 C435 1.393 . S
C439 C438 1.391 . S
H440 C448 0.950 . S
H441 C453 0.950 . S
H442 C450 0.950 . S
H443 C452 0.950 . S
H444 C454 0.950 . S
H445 C456 0.950 . S
H446 C458 0.950 . S
H447 C459 0.950 . S
C448 H440 0.950 . S
C448 C449 1.386 . S
C448 C450 1.391 . S
C449 C448 1.386 . S
C449 C453 1.393 . S
C450 H442 0.950 . S
C450 C448 1.391 . S
C450 C451 1.400 . S
C451 C450 1.400 . S
C451 C452 1.398 . S
C451 C457 1.491 . S
C452 H443 0.950 . S
C452 C451 1.398 . S
C452 C453 1.391 . S
C453 H441 0.950 . S
C453 C449 1.393 . S
C453 C452 1.391 . S
C454 H444 0.950 . S
C454 C455 1.386 . S
C454 C456 1.391 . S
C455 C454 1.386 . S
C455 C459 1.393 . S
C456 H445 0.950 . S
C456 C454 1.391 . S
C456 C457 1.400 . S
C457 C451 1.491 . S
C457 C456 1.400 . S
C457 C458 1.398 . S
C458 H446 0.950 . S
C458 C457 1.398 . S
C458 C459 1.391 . S
C459 H447 0.950 . S
C459 C455 1.393 . S
C459 C458 1.391 . S
H460 C468 0.950 . S
H461 C473 0.950 . S
H462 C470 0.950 . S
H463 C472 0.950 . S
H464 C474 0.950 . S
H465 C476 0.950 . S
H466 C478 0.950 . S
H467 C479 0.950 . S
C468 H460 0.950 . S
C468 C469 1.386 . S
C468 C470 1.391 . S
C469 C468 1.386 . S
C469 C473 1.393 . S
C470 H462 0.950 . S
C470 C468 1.391 . S
C470 C471 1.400 . S
C471 C470 1.400 . S
C471 C472 1.398 . S
C471 C477 1.491 . S
C472 H463 0.950 . S
C472 C471 1.398 . S
C472 C473 1.391 . S
C473 H461 0.950 . S
C473 C469 1.393 . S
C473 C472 1.391 . S
C474 H464 0.950 . S
C474 C475 1.386 . S
C474 C476 1.391 . S
C475 C474 1.386 . S
C475 C479 1.393 . S
C476 H465 0.950 . S
C476 C474 1.391 . S
C476 C477 1.400 . S
C477 C471 1.491 . S
C477 C476 1.400 . S
C477 C478 1.398 . S
C478 H466 0.950 . S
C478 C477 1.398 . S
C478 C479 1.391 . S
C479 H467 0.950 . S
C479 C475 1.393 . S
C479 C478 1.391 . S
H480 C488 0.950 . S
H481 C493 0.950 . S
H482 C490 0.950 . S
H483 C492 0.950 . S
H484 C494 0.950 . S
H485 C496 0.950 . S
H486 C498 0.950 . S
H487 C499 0.950 1_565 S
C488 H480 0.950 . S
C488 C489 1.386 . S
C488 C490 1.391 . S
C489 C488 1.386 . S
C489 C493 1.393 . S
C490 H482 0.950 . S
C490 C488 1.391 . S
C490 C491 1.400 . S
C491 C490 1.400 . S
C491 C492 1.398 . S
C491 C497 1.491 . S
C492 H483 0.950 . S
C492 C491 1.398 . S
C492 C493 1.391 . S
C493 H481 0.950 . S
C493 C489 1.393 . S
C493 C492 1.391 . S
C494 H484 0.950 . S
C494 C495 1.386 . S
C494 C496 1.391 . S
C495 C494 1.386 . S
C495 C499 1.393 . S
C496 H485 0.950 . S
C496 C494 1.391 . S
C496 C497 1.400 . S
C497 C491 1.491 . S
C497 C496 1.400 . S
C497 C498 1.398 . S
C498 H486 0.950 . S
C498 C497 1.398 . S
C498 C499 1.391 . S
C499 H487 0.950 1_545 S
C499 C495 1.393 . S
C499 C498 1.391 . S
H500 C508 0.950 . S
H501 C513 0.950 . S
H502 C510 0.950 . S
H503 C512 0.950 . S
H504 C514 0.950 . S
H505 C516 0.950 . S
H506 C518 0.950 . S
H507 C519 0.950 . S
C508 H500 0.950 . S
C508 C509 1.386 . S
C508 C510 1.391 . S
C509 C508 1.386 . S
C509 C513 1.393 . S
C510 H502 0.950 . S
C510 C508 1.391 . S
C510 C511 1.400 . S
C511 C510 1.400 . S
C511 C512 1.398 . S
C511 C517 1.491 . S
C512 H503 0.950 . S
C512 C511 1.398 . S
C512 C513 1.391 . S
C513 H501 0.950 . S
C513 C509 1.393 . S
C513 C512 1.391 . S
C514 H504 0.950 . S
C514 C515 1.386 . S
C514 C516 1.391 . S
C515 C514 1.386 . S
C515 C519 1.393 . S
C516 H505 0.950 . S
C516 C514 1.391 . S
C516 C517 1.400 . S
C517 C511 1.491 . S
C517 C516 1.400 . S
C517 C518 1.398 . S
C518 H506 0.950 . S
C518 C517 1.398 . S
C518 C519 1.391 . S
C519 H507 0.950 . S
C519 C515 1.393 . S
C519 C518 1.391 . S
H520 C528 0.950 . S
H521 C533 0.950 . S
H522 C530 0.950 . S
H523 C532 0.950 . S
H524 C534 0.950 . S
H525 C536 0.950 . S
H526 C538 0.950 . S
H527 C539 0.950 . S
C528 H520 0.950 . S
C528 C529 1.386 . S
C528 C530 1.391 . S
C529 C528 1.386 . S
C529 C533 1.393 . S
C530 H522 0.950 . S
C530 C528 1.391 . S
C530 C531 1.400 . S
C531 C530 1.400 . S
C531 C532 1.398 . S
C531 C537 1.491 . S
C532 H523 0.950 . S
C532 C531 1.398 . S
C532 C533 1.391 . S
C533 H521 0.950 . S
C533 C529 1.393 . S
C533 C532 1.391 . S
C534 H524 0.950 . S
C534 C535 1.386 . S
C534 C536 1.391 . S
C535 C534 1.386 . S
C535 C539 1.393 . S
C536 H525 0.950 . S
C536 C534 1.391 . S
C536 C537 1.400 . S
C537 C531 1.491 . S
C537 C536 1.400 . S
C537 C538 1.398 . S
C538 H526 0.950 . S
C538 C537 1.398 . S
C538 C539 1.391 . S
C539 H527 0.950 . S
C539 C535 1.393 . S
C539 C538 1.391 . S
H540 C548 0.950 . S
H541 C553 0.950 . S
H542 C550 0.950 . S
H543 C552 0.950 . S
H544 C554 0.950 . S
H545 C556 0.950 . S
H546 C558 0.950 . S
H547 C559 0.950 . S
C548 H540 0.950 . S
C548 C549 1.386 . S
C548 C550 1.391 . S
C549 C548 1.386 . S
C549 C553 1.393 . S
C550 H542 0.950 . S
C550 C548 1.391 . S
C550 C551 1.400 . S
C551 C550 1.400 . S
C551 C552 1.398 . S
C551 C557 1.491 . S
C552 H543 0.950 . S
C552 C551 1.398 . S
C552 C553 1.391 . S
C553 H541 0.950 . S
C553 C549 1.393 . S
C553 C552 1.391 . S
C554 H544 0.950 . S
C554 C555 1.386 . S
C554 C556 1.391 . S
C555 C554 1.386 . S
C555 C559 1.393 . S
C556 H545 0.950 . S
C556 C554 1.391 . S
C556 C557 1.400 . S
C557 C551 1.491 . S
C557 C556 1.400 . S
C557 C558 1.398 . S
C558 H546 0.950 . S
C558 C557 1.398 . S
C558 C559 1.391 . S
C559 H547 0.950 . S
C559 C555 1.393 . S
C559 C558 1.391 . S
H560 C568 0.950 . S
H561 C573 0.950 . S
H562 C570 0.950 . S
H563 C572 0.950 . S
H564 C574 0.950 . S
H565 C576 0.950 . S
H566 C578 0.950 . S
H567 C579 0.950 1_545 S
C568 H560 0.950 . S
C568 C569 1.386 . S
C568 C570 1.391 . S
C569 C568 1.386 . S
C569 C573 1.393 . S
C570 H562 0.950 . S
C570 C568 1.391 . S
C570 C571 1.400 . S
C571 C570 1.400 . S
C571 C572 1.398 . S
C571 C577 1.491 . S
C572 H563 0.950 . S
C572 C571 1.398 . S
C572 C573 1.391 . S
C573 H561 0.950 . S
C573 C569 1.393 . S
C573 C572 1.391 . S
C574 H564 0.950 . S
C574 C575 1.386 . S
C574 C576 1.391 . S
C575 C574 1.386 . S
C575 C579 1.393 . S
C576 H565 0.950 . S
C576 C574 1.391 . S
C576 C577 1.400 . S
C577 C571 1.491 . S
C577 C576 1.400 . S
C577 C578 1.398 . S
C578 H566 0.950 . S
C578 C577 1.398 . S
C578 C579 1.391 . S
C579 H567 0.950 1_565 S
C579 C575 1.393 . S
C579 C578 1.391 . S
H580 C588 0.950 . S
H581 C593 0.950 . S
H582 C590 0.950 . S
H583 C592 0.950 . S
H584 C594 0.950 . S
H585 C596 0.950 . S
H586 C598 0.950 . S
H587 C599 0.950 . S
C588 H580 0.950 . S
C588 C589 1.386 . S
C588 C590 1.391 . S
C589 C588 1.386 . S
C589 C593 1.393 . S
C590 H582 0.950 . S
C590 C588 1.391 . S
C590 C591 1.400 . S
C591 C590 1.400 . S
C591 C592 1.398 . S
C591 C597 1.491 . S
C592 H583 0.950 . S
C592 C591 1.398 . S
C592 C593 1.391 . S
C593 H581 0.950 . S
C593 C589 1.393 . S
C593 C592 1.391 . S
C594 H584 0.950 . S
C594 C595 1.386 . S
C594 C596 1.391 . S
C595 C594 1.386 . S
C595 C599 1.393 . S
C596 H585 0.950 . S
C596 C594 1.391 . S
C596 C597 1.400 . S
C597 C591 1.491 . S
C597 C596 1.400 . S
C597 C598 1.398 . S
C598 H586 0.950 . S
C598 C597 1.398 . S
C598 C599 1.391 . S
C599 H587 0.950 . S
C599 C595 1.393 . S
C599 C598 1.391 . S
H600 C608 0.950 . S
H601 C613 0.950 . S
H602 C610 0.950 . S
H603 C612 0.950 . S
H604 C614 0.950 . S
H605 C616 0.950 . S
H606 C618 0.950 . S
H607 C619 0.950 . S
C608 H600 0.950 . S
C608 C609 1.386 . S
C608 C610 1.391 . S
C609 C608 1.386 . S
C609 C613 1.393 . S
C610 H602 0.950 . S
C610 C608 1.391 . S
C610 C611 1.400 . S
C611 C610 1.400 . S
C611 C612 1.398 . S
C611 C617 1.491 . S
C612 H603 0.950 . S
C612 C611 1.398 . S
C612 C613 1.391 . S
C613 H601 0.950 . S
C613 C609 1.393 . S
C613 C612 1.391 . S
C614 H604 0.950 . S
C614 C615 1.386 . S
C614 C616 1.391 . S
C615 C614 1.386 . S
C615 C619 1.393 . S
C616 H605 0.950 . S
C616 C614 1.391 . S
C616 C617 1.400 . S
C617 C611 1.491 . S
C617 C616 1.400 . S
C617 C618 1.398 . S
C618 H606 0.950 . S
C618 C617 1.398 . S
C618 C619 1.391 . S
C619 H607 0.950 . S
C619 C615 1.393 . S
C619 C618 1.391 . S
H620 C628 0.950 1_455 S
H621 C633 0.950 . S
H622 C630 0.950 . S
H623 C632 0.950 . S
H624 C634 0.950 . S
H625 C636 0.950 . S
H626 C638 0.950 . S
H627 C639 0.950 . S
C628 H620 0.950 1_655 S
C628 C629 1.386 . S
C628 C630 1.391 . S
C629 C628 1.386 . S
C629 C633 1.393 . S
C630 H622 0.950 . S
C630 C628 1.391 . S
C630 C631 1.400 . S
C631 C630 1.400 . S
C631 C632 1.398 . S
C631 C637 1.491 . S
C632 H623 0.950 . S
C632 C631 1.398 . S
C632 C633 1.391 . S
C633 H621 0.950 . S
C633 C629 1.393 . S
C633 C632 1.391 . S
C634 H624 0.950 . S
C634 C635 1.386 . S
C634 C636 1.391 . S
C635 C634 1.386 . S
C635 C639 1.393 . S
C636 H625 0.950 . S
C636 C634 1.391 . S
C636 C637 1.400 . S
C637 C631 1.491 . S
C637 C636 1.400 . S
C637 C638 1.398 . S
C638 H626 0.950 . S
C638 C637 1.398 . S
C638 C639 1.391 . S
C639 H627 0.950 . S
C639 C635 1.393 . S
C639 C638 1.391 . S
H640 C648 0.950 . S
H641 C653 0.950 1_545 S
H642 C650 0.950 . S
H643 C652 0.950 . S
H644 C654 0.950 . S
H645 C656 0.950 . S
H646 C658 0.950 . S
H647 C659 0.950 . S
C648 H640 0.950 . S
C648 C649 1.386 . S
C648 C650 1.391 . S
C649 C648 1.386 . S
C649 C653 1.393 . S
C650 H642 0.950 . S
C650 C648 1.391 . S
C650 C651 1.400 . S
C651 C650 1.400 . S
C651 C652 1.398 . S
C651 C657 1.491 . S
C652 H643 0.950 . S
C652 C651 1.398 . S
C652 C653 1.391 . S
C653 H641 0.950 1_565 S
C653 C649 1.393 . S
C653 C652 1.391 . S
C654 H644 0.950 . S
C654 C655 1.386 . S
C654 C656 1.391 . S
C655 C654 1.386 . S
C655 C659 1.393 . S
C656 H645 0.950 . S
C656 C654 1.391 . S
C656 C657 1.400 . S
C657 C651 1.491 . S
C657 C656 1.400 . S
C657 C658 1.398 . S
C658 H646 0.950 . S
C658 C657 1.398 . S
C658 C659 1.391 . S
C659 H647 0.950 . S
C659 C655 1.393 . S
C659 C658 1.391 . S
H660 C668 0.950 . S
H661 C673 0.950 . S
H662 C670 0.950 . S
H663 C672 0.950 . S
H664 C674 0.950 . S
H665 C676 0.950 . S
H666 C678 0.950 . S
H667 C679 0.950 . S
C668 H660 0.950 . S
C668 C669 1.386 . S
C668 C670 1.391 . S
C669 C668 1.386 . S
C669 C673 1.393 . S
C670 H662 0.950 . S
C670 C668 1.391 . S
C670 C671 1.400 . S
C671 C670 1.400 . S
C671 C672 1.398 . S
C671 C677 1.491 . S
C672 H663 0.950 . S
C672 C671 1.398 . S
C672 C673 1.391 . S
C673 H661 0.950 . S
C673 C669 1.393 . S
C673 C672 1.391 . S
C674 H664 0.950 . S
C674 C675 1.386 . S
C674 C676 1.391 . S
C675 C674 1.386 . S
C675 C679 1.393 . S
C676 H665 0.950 . S
C676 C674 1.391 . S
C676 C677 1.400 . S
C677 C671 1.491 . S
C677 C676 1.400 . S
C677 C678 1.398 . S
C678 H666 0.950 . S
C678 C677 1.398 . S
C678 C679 1.391 . S
C679 H667 0.950 . S
C679 C675 1.393 . S
C679 C678 1.391 . S
H680 C688 0.950 . S
H681 C693 0.950 . S
H682 C690 0.950 . S
H683 C692 0.950 . S
H684 C694 0.950 . S
H685 C696 0.950 . S
H686 C698 0.950 . S
H687 C699 0.950 . S
C688 H680 0.950 . S
C688 C689 1.386 . S
C688 C690 1.391 . S
C689 C688 1.386 . S
C689 C693 1.393 . S
C690 H682 0.950 . S
C690 C688 1.391 . S
C690 C691 1.400 . S
C691 C690 1.400 . S
C691 C692 1.398 . S
C691 C697 1.491 . S
C692 H683 0.950 . S
C692 C691 1.398 . S
C692 C693 1.391 . S
C693 H681 0.950 . S
C693 C689 1.393 . S
C693 C692 1.391 . S
C694 H684 0.950 . S
C694 C695 1.386 . S
C694 C696 1.391 . S
C695 C694 1.386 . S
C695 C699 1.393 . S
C696 H685 0.950 . S
C696 C694 1.391 . S
C696 C697 1.400 . S
C697 C691 1.491 . S
C697 C696 1.400 . S
C697 C698 1.398 . S
C698 H686 0.950 . S
C698 C697 1.398 . S
C698 C699 1.391 . S
C699 H687 0.950 . S
C699 C695 1.393 . S
C699 C698 1.391 . S
H700 C708 0.950 . S
H701 C713 0.950 . S
H702 C710 0.950 . S
H703 C712 0.950 . S
H704 C714 0.950 . S
H705 C716 0.950 . S
H706 C718 0.950 . S
H707 C719 0.950 . S
C708 H700 0.950 . S
C708 C709 1.386 . S
C708 C710 1.391 . S
C709 C708 1.386 . S
C709 C713 1.393 . S
C710 H702 0.950 . S
C710 C708 1.391 . S
C710 C711 1.400 . S
C711 C710 1.400 . S
C711 C712 1.398 . S
C711 C717 1.491 . S
C712 H703 0.950 . S
C712 C711 1.398 . S
C712 C713 1.391 . S
C713 H701 0.950 . S
C713 C709 1.393 . S
C713 C712 1.391 . S
C714 H704 0.950 . S
C714 C715 1.386 . S
C714 C716 1.391 . S
C715 C714 1.386 . S
C715 C719 1.393 . S
C716 H705 0.950 . S
C716 C714 1.391 . S
C716 C717 1.400 . S
C717 C711 1.491 . S
C717 C716 1.400 . S
C717 C718 1.398 . S
C718 H706 0.950 . S
C718 C717 1.398 . S
C718 C719 1.391 . S
C719 H707 0.950 . S
C719 C715 1.393 . S
C719 C718 1.391 . S
H720 C728 0.950 . S
H721 C733 0.950 . S
H722 C730 0.950 . S
H723 C732 0.950 . S
H724 C734 0.950 . S
H725 C736 0.950 . S
H726 C738 0.950 . S
H727 C739 0.950 . S
C728 H720 0.950 . S
C728 C729 1.386 . S
C728 C730 1.391 . S
C729 C728 1.386 . S
C729 C733 1.393 . S
C730 H722 0.950 . S
C730 C728 1.391 . S
C730 C731 1.400 . S
C731 C730 1.400 . S
C731 C732 1.398 . S
C731 C737 1.491 . S
C732 H723 0.950 . S
C732 C731 1.398 . S
C732 C733 1.391 . S
C733 H721 0.950 . S
C733 C729 1.393 . S
C733 C732 1.391 . S
C734 H724 0.950 . S
C734 C735 1.386 . S
C734 C736 1.391 . S
C735 C734 1.386 . S
C735 C739 1.393 . S
C736 H725 0.950 . S
C736 C734 1.391 . S
C736 C737 1.400 . S
C737 C731 1.491 . S
C737 C736 1.400 . S
C737 C738 1.398 . S
C738 H726 0.950 . S
C738 C737 1.398 . S
C738 C739 1.391 . S
C739 H727 0.950 . S
C739 C735 1.393 . S
C739 C738 1.391 . S
H740 C748 0.950 . S
H741 C753 0.950 . S
H742 C750 0.950 . S
H743 C752 0.950 . S
H744 C754 0.950 . S
H745 C756 0.950 . S
H746 C758 0.950 . S
H747 C759 0.950 . S
C748 H740 0.950 . S
C748 C749 1.386 . S
C748 C750 1.391 . S
C749 C748 1.386 . S
C749 C753 1.393 . S
C750 H742 0.950 . S
C750 C748 1.391 . S
C750 C751 1.400 . S
C751 C750 1.400 . S
C751 C752 1.398 . S
C751 C757 1.491 . S
C752 H743 0.950 . S
C752 C751 1.398 . S
C752 C753 1.391 . S
C753 H741 0.950 . S
C753 C749 1.393 . S
C753 C752 1.391 . S
C754 H744 0.950 . S
C754 C755 1.386 . S
C754 C756 1.391 . S
C755 C754 1.386 . S
C755 C759 1.393 . S
C756 H745 0.950 . S
C756 C754 1.391 . S
C756 C757 1.400 . S
C757 C751 1.491 . S
C757 C756 1.400 . S
C757 C758 1.398 . S
C758 H746 0.950 . S
C758 C757 1.398 . S
C758 C759 1.391 . S
C759 H747 0.950 . S
C759 C755 1.393 . S
C759 C758 1.391 . S
H760 C768 0.950 . S
H761 C773 0.950 . S
H762 C770 0.950 . S
H763 C772 0.950 . S
H764 C774 0.950 . S
H765 C776 0.950 . S
H766 C778 0.950 . S
H767 C779 0.950 . S
C768 H760 0.950 . S
C768 C769 1.386 . S
C768 C770 1.391 . S
C769 C768 1.386 . S
C769 C773 1.393 . S
C770 H762 0.950 . S
C770 C768 1.391 . S
C770 C771 1.400 . S
C771 C770 1.400 . S
C771 C772 1.398 . S
C771 C777 1.491 . S
C772 H763 0.950 . S
C772 C771 1.398 . S
C772 C773 1.391 . S
C773 H761 0.950 . S
C773 C769 1.393 . S
C773 C772 1.391 . S
C774 H764 0.950 . S
C774 C775 1.386 . S
C774 C776 1.391 . S
C775 C774 1.386 . S
C775 C779 1.393 . S
C776 H765 0.950 . S
C776 C774 1.391 . S
C776 C777 1.400 . S
C777 C771 1.491 . S
C777 C776 1.400 . S
C777 C778 1.398 . S
C778 H766 0.950 . S
C778 C777 1.398 . S
C778 C779 1.391 . S
C779 H767 0.950 . S
C779 C775 1.393 . S
C779 C778 1.391 . S
H780 C788 0.950 . S
H781 C793 0.950 . S
H782 C790 0.950 . S
H783 C792 0.950 . S
H784 C794 0.950 1_655 S
H785 C796 0.950 . S
H786 C798 0.950 . S
H787 C799 0.950 . S
C788 H780 0.950 . S
C788 C789 1.386 . S
C788 C790 1.391 . S
C789 C788 1.386 . S
C789 C793 1.393 . S
C790 H782 0.950 . S
C790 C788 1.391 . S
C790 C791 1.400 . S
C791 C790 1.400 . S
C791 C792 1.398 . S
C791 C797 1.491 . S
C792 H783 0.950 . S
C792 C791 1.398 . S
C792 C793 1.391 . S
C793 H781 0.950 . S
C793 C789 1.393 . S
C793 C792 1.391 . S
C794 H784 0.950 1_455 S
C794 C795 1.386 . S
C794 C796 1.391 . S
C795 C794 1.386 . S
C795 C799 1.393 . S
C796 H785 0.950 . S
C796 C794 1.391 . S
C796 C797 1.400 . S
C797 C791 1.491 . S
C797 C796 1.400 . S
C797 C798 1.398 . S
C798 H786 0.950 . S
C798 C797 1.398 . S
C798 C799 1.391 . S
C799 H787 0.950 . S
C799 C795 1.393 . S
C799 C798 1.391 . S
H800 C808 0.950 . S
H801 C813 0.950 . S
H802 C810 0.950 . S
H803 C812 0.950 . S
H804 C814 0.950 . S
H805 C816 0.950 . S
H806 C818 0.950 . S
H807 C819 0.950 . S
C808 H800 0.950 . S
C808 C809 1.386 . S
C808 C810 1.391 . S
C809 C808 1.386 . S
C809 C813 1.393 . S
C810 H802 0.950 . S
C810 C808 1.391 . S
C810 C811 1.400 . S
C811 C810 1.400 . S
C811 C812 1.398 . S
C811 C817 1.491 . S
C812 H803 0.950 . S
C812 C811 1.398 . S
C812 C813 1.391 . S
C813 H801 0.950 . S
C813 C809 1.393 . S
C813 C812 1.391 . S
C814 H804 0.950 . S
C814 C815 1.386 . S
C814 C816 1.391 . S
C815 C814 1.386 . S
C815 C819 1.393 . S
C816 H805 0.950 . S
C816 C814 1.391 . S
C816 C817 1.400 . S
C817 C811 1.491 . S
C817 C816 1.400 . S
C817 C818 1.398 . S
C818 H806 0.950 . S
C818 C817 1.398 . S
C818 C819 1.391 . S
C819 H807 0.950 . S
C819 C815 1.393 . S
C819 C818 1.391 . S
H820 C828 0.950 . S
H821 C833 0.950 . S
H822 C830 0.950 . S
H823 C832 0.950 . S
H824 C834 0.950 . S
H825 C836 0.950 . S
H826 C838 0.950 . S
H827 C839 0.950 . S
C828 H820 0.950 . S
C828 C829 1.386 . S
C828 C830 1.391 . S
C829 C828 1.386 . S
C829 C833 1.393 . S
C830 H822 0.950 . S
C830 C828 1.391 . S
C830 C831 1.400 . S
C831 C830 1.400 . S
C831 C832 1.398 . S
C831 C837 1.491 . S
C832 H823 0.950 . S
C832 C831 1.398 . S
C832 C833 1.391 . S
C833 H821 0.950 . S
C833 C829 1.393 . S
C833 C832 1.391 . S
C834 H824 0.950 . S
C834 C835 1.386 . S
C834 C836 1.391 . S
C835 C834 1.386 . S
C835 C839 1.393 . S
C836 H825 0.950 . S
C836 C834 1.391 . S
C836 C837 1.400 . S
C837 C831 1.491 . S
C837 C836 1.400 . S
C837 C838 1.398 . S
C838 H826 0.950 . S
C838 C837 1.398 . S
C838 C839 1.391 . S
C839 H827 0.950 . S
C839 C835 1.393 . S
C839 C838 1.391 . S
H840 C848 0.950 . S
H841 C853 0.950 . S
H842 C850 0.950 . S
H843 C852 0.950 . S
H844 C854 0.950 . S
H845 C856 0.950 . S
H846 C858 0.950 . S
H847 C859 0.950 . S
C848 H840 0.950 . S
C848 C849 1.386 . S
C848 C850 1.391 . S
C849 C848 1.386 . S
C849 C853 1.393 . S
C850 H842 0.950 . S
C850 C848 1.391 . S
C850 C851 1.400 . S
C851 C850 1.400 . S
C851 C852 1.398 . S
C851 C857 1.491 . S
C852 H843 0.950 . S
C852 C851 1.398 . S
C852 C853 1.391 . S
C853 H841 0.950 . S
C853 C849 1.393 . S
C853 C852 1.391 . S
C854 H844 0.950 . S
C854 C855 1.386 . S
C854 C856 1.391 . S
C855 C854 1.386 . S
C855 C859 1.393 . S
C856 H845 0.950 . S
C856 C854 1.391 . S
C856 C857 1.400 . S
C857 C851 1.491 . S
C857 C856 1.400 . S
C857 C858 1.398 . S
C858 H846 0.950 . S
C858 C857 1.398 . S
C858 C859 1.391 . S
C859 H847 0.950 . S
C859 C855 1.393 . S
C859 C858 1.391 . S
H860 C868 0.950 . S
H861 C873 0.950 . S
H862 C870 0.950 . S
H863 C872 0.950 . S
H864 C874 0.950 . S
H865 C876 0.950 . S
H866 C878 0.950 . S
H867 C879 0.950 . S
C868 H860 0.950 . S
C868 C869 1.386 . S
C868 C870 1.391 . S
C869 C868 1.386 . S
C869 C873 1.393 . S
C870 H862 0.950 . S
C870 C868 1.391 . S
C870 C871 1.400 . S
C871 C870 1.400 . S
C871 C872 1.398 . S
C871 C877 1.491 . S
C872 H863 0.950 . S
C872 C871 1.398 . S
C872 C873 1.391 . S
C873 H861 0.950 . S
C873 C869 1.393 . S
C873 C872 1.391 . S
C874 H864 0.950 . S
C874 C875 1.386 . S
C874 C876 1.391 . S
C875 C874 1.386 . S
C875 C879 1.393 . S
C876 H865 0.950 . S
C876 C874 1.391 . S
C876 C877 1.400 . S
C877 C871 1.491 . S
C877 C876 1.400 . S
C877 C878 1.398 . S
C878 H866 0.950 . S
C878 C877 1.398 . S
C878 C879 1.391 . S
C879 H867 0.950 . S
C879 C875 1.393 . S
C879 C878 1.391 . S
H880 C888 0.950 . S
H881 C893 0.950 . S
H882 C890 0.950 . S
H883 C892 0.950 . S
H884 C894 0.950 . S
H885 C896 0.950 . S
H886 C898 0.950 . S
H887 C899 0.950 . S
C888 H880 0.950 . S
C888 C889 1.386 . S
C888 C890 1.391 . S
C889 C888 1.386 . S
C889 C893 1.393 . S
C890 H882 0.950 . S
C890 C888 1.391 . S
C890 C891 1.400 . S
C891 C890 1.400 . S
C891 C892 1.398 . S
C891 C897 1.491 . S
C892 H883 0.950 . S
C892 C891 1.398 . S
C892 C893 1.391 . S
C893 H881 0.950 . S
C893 C889 1.393 . S
C893 C892 1.391 . S
C894 H884 0.950 . S
C894 C895 1.386 . S
C894 C896 1.391 . S
C895 C894 1.386 . S
C895 C899 1.393 . S
C896 H885 0.950 . S
C896 C894 1.391 . S
C896 C897 1.400 . S
C897 C891 1.491 . S
C897 C896 1.400 . S
C897 C898 1.398 . S
C898 H886 0.950 . S
C898 C897 1.398 . S
C898 C899 1.391 . S
C899 H887 0.950 . S
C899 C895 1.393 . S
C899 C898 1.391 . S
H900 C908 0.950 . S
H901 C913 0.950 . S
H902 C910 0.950 . S
H903 C912 0.950 . S
H904 C914 0.950 . S
H905 C916 0.950 . S
H906 C918 0.950 . S
H907 C919 0.950 . S
C908 H900 0.950 . S
C908 C909 1.386 . S
C908 C910 1.391 . S
C909 C908 1.386 . S
C909 C913 1.393 . S
C910 H902 0.950 . S
C910 C908 1.391 . S
C910 C911 1.400 . S
C911 C910 1.400 . S
C911 C912 1.398 . S
C911 C917 1.491 . S
C912 H903 0.950 . S
C912 C911 1.398 . S
C912 C913 1.391 . S
C913 H901 0.950 . S
C913 C909 1.393 . S
C913 C912 1.391 . S
C914 H904 0.950 . S
C914 C915 1.386 . S
C914 C916 1.391 . S
C915 C914 1.386 . S
C915 C919 1.393 . S
C916 H905 0.950 . S
C916 C914 1.391 . S
C916 C917 1.400 . S
C917 C911 1.491 . S
C917 C916 1.400 . S
C917 C918 1.398 . S
C918 H906 0.950 . S
C918 C917 1.398 . S
C918 C919 1.391 . S
C919 H907 0.950 . S
C919 C915 1.393 . S
C919 C918 1.391 . S
H920 C928 0.950 . S
H921 C933 0.950 . S
H922 C930 0.950 . S
H923 C932 0.950 . S
H924 C934 0.950 . S
H925 C936 0.950 . S
H926 C938 0.950 . S
H927 C939 0.950 . S
C928 H920 0.950 . S
C928 C929 1.386 . S
C928 C930 1.391 . S
C929 C928 1.386 . S
C929 C933 1.393 . S
C930 H922 0.950 . S
C930 C928 1.391 . S
C930 C931 1.400 . S
C931 C930 1.400 . S
C931 C932 1.398 . S
C931 C937 1.491 . S
C932 H923 0.950 . S
C932 C931 1.398 . S
C932 C933 1.391 . S
C933 H921 0.950 . S
C933 C929 1.393 . S
C933 C932 1.391 . S
C934 H924 0.950 . S
C934 C935 1.386 . S
C934 C936 1.391 . S
C935 C934 1.386 . S
C935 C939 1.393 . S
C936 H925 0.950 . S
C936 C934 1.391 . S
C936 C937 1.400 . S
C937 C931 1.491 . S
C937 C936 1.400 . S
C937 C938 1.398 . S
C938 H926 0.950 . S
C938 C937 1.398 . S
C938 C939 1.391 . S
C939 H927 0.950 . S
C939 C935 1.393 . S
C939 C938 1.391 . S
H940 C948 0.950 . S
H941 C953 0.950 . S
H942 C950 0.950 . S
H943 C952 0.950 . S
H944 C954 0.950 . S
H945 C956 0.950 . S
H946 C958 0.950 . S
H947 C959 0.950 . S
C948 H940 0.950 . S
C948 C949 1.386 . S
C948 C950 1.391 . S
C949 C948 1.386 . S
C949 C953 1.393 . S
C950 H942 0.950 . S
C950 C948 1.391 . S
C950 C951 1.400 . S
C951 C950 1.400 . S
C951 C952 1.398 . S
C951 C957 1.491 . S
C952 H943 0.950 . S
C952 C951 1.398 . S
C952 C953 1.391 . S
C953 H941 0.950 . S
C953 C949 1.393 . S
C953 C952 1.391 . S
C954 H944 0.950 . S
C954 C955 1.386 . S
C954 C956 1.391 . S
C955 C954 1.386 . S
C955 C959 1.393 . S
C956 H945 0.950 . S
C956 C954 1.391 . S
C956 C957 1.400 . S
C957 C951 1.491 . S
C957 C956 1.400 . S
C957 C958 1.398 . S
C958 H946 0.950 . S
C958 C957 1.398 . S
C958 C959 1.391 . S
C959 H947 0.950 . S
C959 C955 1.393 . S
C959 C958 1.391 . S
H960 C968 0.950 . S
H961 C973 0.950 . S
H962 C970 0.950 . S
H963 C972 0.950 . S
H964 C974 0.950 . S
H965 C976 0.950 . S
H966 C978 0.950 . S
H967 C979 0.950 . S
C968 H960 0.950 . S
C968 C969 1.386 . S
C968 C970 1.391 . S
C969 C968 1.386 . S
C969 C973 1.393 . S
C970 H962 0.950 . S
C970 C968 1.391 . S
C970 C971 1.400 . S
C971 C970 1.400 . S
C971 C972 1.398 . S
C971 C977 1.491 . S
C972 H963 0.950 . S
C972 C971 1.398 . S
C972 C973 1.391 . S
C973 H961 0.950 . S
C973 C969 1.393 . S
C973 C972 1.391 . S
C974 H964 0.950 . S
C974 C975 1.386 . S
C974 C976 1.391 . S
C975 C974 1.386 . S
C975 C979 1.393 . S
C976 H965 0.950 . S
C976 C974 1.391 . S
C976 C977 1.400 . S
C977 C971 1.491 . S
C977 C976 1.400 . S
C977 C978 1.398 . S
C978 H966 0.950 . S
C978 C977 1.398 . S
C978 C979 1.391 . S
C979 H967 0.950 . S
C979 C975 1.393 . S
C979 C978 1.391 . S
H980 C988 0.950 . S
H981 C993 0.950 . S
H982 C990 0.950 . S
H983 C992 0.950 . S
H984 C994 0.950 . S
H985 C996 0.950 . S
H986 C998 0.950 . S
H987 C999 0.950 . S
C988 H980 0.950 . S
C988 C989 1.386 . S
C988 C990 1.391 . S
C989 C988 1.386 . S
C989 C993 1.393 . S
C990 H982 0.950 . S
C990 C988 1.391 . S
C990 C991 1.400 . S
C991 C990 1.400 . S
C991 C992 1.398 . S
C991 C997 1.491 . S
C992 H983 0.950 . S
C992 C991 1.398 . S
C992 C993 1.391 . S
C993 H981 0.950 . S
C993 C989 1.393 . S
C993 C992 1.391 . S
C994 H984 0.950 . S
C994 C995 1.386 . S
C994 C996 1.391 . S
C995 C994 1.386 . S
C995 C999 1.393 . S
C996 H985 0.950 . S
C996 C994 1.391 . S
C996 C997 1.400 . S
C997 C991 1.491 . S
C997 C996 1.400 . S
C997 C998 1.398 . S
C998 H986 0.950 . S
C998 C997 1.398 . S
C998 C999 1.391 . S
C999 H987 0.950 . S
C999 C995 1.393 . S
C999 C998 1.391 . S
H1000 C1008 0.950 . S
H1001 C1013 0.950 . S
H1002 C1010 0.950 . S
H1003 C1012 0.950 . S
H1004 C1014 0.950 . S
H1005 C1016 0.950 . S
H1006 C1018 0.950 . S
H1007 C1019 0.950 . S
C1008 H1000 0.950 . S
C1008 C1009 1.386 . S
C1008 C1010 1.391 . S
C1009 C1008 1.386 . S
C1009 C1013 1.393 . S
C1010 H1002 0.950 . S
C1010 C1008 1.391 . S
C1010 C1011 1.400 . S
C1011 C1010 1.400 . S
C1011 C1012 1.398 . S
C1011 C1017 1.491 . S
C1012 H1003 0.950 . S
C1012 C1011 1.398 . S
C1012 C1013 1.391 . S
C1013 H1001 0.950 . S
C1013 C1009 1.393 . S
C1013 C1012 1.391 . S
C1014 H1004 0.950 . S
C1014 C1015 1.386 . S
C1014 C1016 1.391 . S
C1015 C1014 1.386 . S
C1015 C1019 1.393 . S
C1016 H1005 0.950 . S
C1016 C1014 1.391 . S
C1016 C1017 1.400 . S
C1017 C1011 1.491 . S
C1017 C1016 1.400 . S
C1017 C1018 1.398 . S
C1018 H1006 0.950 . S
C1018 C1017 1.398 . S
C1018 C1019 1.391 . S
C1019 H1007 0.950 . S
C1019 C1015 1.393 . S
C1019 C1018 1.391 . S
H1020 C1028 0.950 . S
H1021 C1033 0.950 . S
H1022 C1030 0.950 . S
H1023 C1032 0.950 . S
H1024 C1034 0.950 . S
H1025 C1036 0.950 . S
H1026 C1038 0.950 . S
H1027 C1039 0.950 . S
C1028 H1020 0.950 . S
C1028 C1029 1.386 . S
C1028 C1030 1.391 . S
C1029 C1028 1.386 . S
C1029 C1033 1.393 . S
C1030 H1022 0.950 . S
C1030 C1028 1.391 . S
C1030 C1031 1.400 . S
C1031 C1030 1.400 . S
C1031 C1032 1.398 . S
C1031 C1037 1.491 . S
C1032 H1023 0.950 . S
C1032 C1031 1.398 . S
C1032 C1033 1.391 . S
C1033 H1021 0.950 . S
C1033 C1029 1.393 . S
C1033 C1032 1.391 . S
C1034 H1024 0.950 . S
C1034 C1035 1.386 . S
C1034 C1036 1.391 . S
C1035 C1034 1.386 . S
C1035 C1039 1.393 . S
C1036 H1025 0.950 . S
C1036 C1034 1.391 . S
C1036 C1037 1.400 . S
C1037 C1031 1.491 . S
C1037 C1036 1.400 . S
C1037 C1038 1.398 . S
C1038 H1026 0.950 . S
C1038 C1037 1.398 . S
C1038 C1039 1.391 . S
C1039 H1027 0.950 . S
C1039 C1035 1.393 . S
C1039 C1038 1.391 . S
H1040 C1048 0.950 . S
H1041 C1053 0.950 . S
H1042 C1050 0.950 . S
H1043 C1052 0.950 . S
H1044 C1054 0.950 . S
H1045 C1056 0.950 . S
H1046 C1058 0.950 1_556 S
H1047 C1059 0.950 . S
C1048 H1040 0.950 . S
C1048 C1049 1.386 . S
C1048 C1050 1.391 . S
C1049 C1048 1.386 . S
C1049 C1053 1.393 1_556 S
C1050 H1042 0.950 . S
C1050 C1048 1.391 . S
C1050 C1051 1.400 1_556 S
C1051 C1050 1.400 1_554 S
C1051 C1052 1.398 . S
C1051 C1057 1.491 . S
C1052 H1043 0.950 . S
C1052 C1051 1.398 . S
C1052 C1053 1.391 . S
C1053 H1041 0.950 . S
C1053 C1049 1.393 1_554 S
C1053 C1052 1.391 . S
C1054 H1044 0.950 . S
C1054 C1055 1.386 . S
C1054 C1056 1.391 . S
C1055 C1054 1.386 . S
C1055 C1059 1.393 . S
C1056 H1045 0.950 . S
C1056 C1054 1.391 . S
C1056 C1057 1.400 . S
C1057 C1051 1.491 . S
C1057 C1056 1.400 . S
C1057 C1058 1.398 . S
C1058 H1046 0.950 1_554 S
C1058 C1057 1.398 . S
C1058 C1059 1.391 . S
C1059 H1047 0.950 . S
C1059 C1055 1.393 . S
C1059 C1058 1.391 . S
H1060 C1068 0.950 . S
H1061 C1073 0.950 . S
H1062 C1070 0.950 . S
H1063 C1072 0.950 . S
H1064 C1074 0.950 . S
H1065 C1076 0.950 . S
H1066 C1078 0.950 . S
H1067 C1079 0.951 . S
C1068 H1060 0.950 . S
C1068 C1069 1.386 . S
C1068 C1070 1.391 . S
C1069 C1068 1.386 . S
C1069 C1073 1.393 . S
C1070 H1062 0.950 . S
C1070 C1068 1.391 . S
C1070 C1071 1.400 . S
C1071 C1070 1.400 . S
C1071 C1072 1.398 . S
C1071 C1077 1.491 . S
C1072 H1063 0.950 . S
C1072 C1071 1.398 . S
C1072 C1073 1.391 . S
C1073 H1061 0.950 . S
C1073 C1069 1.393 . S
C1073 C1072 1.391 . S
C1074 H1064 0.950 . S
C1074 C1075 1.386 . S
C1074 C1076 1.391 . S
C1075 C1074 1.386 . S
C1075 C1079 1.393 . S
C1076 H1065 0.950 . S
C1076 C1074 1.391 . S
C1076 C1077 1.400 1_556 S
C1077 C1071 1.491 . S
C1077 C1076 1.400 1_554 S
C1077 C1078 1.398 . S
C1078 H1066 0.950 . S
C1078 C1077 1.398 . S
C1078 C1079 1.391 1_554 S
C1079 H1067 0.951 . S
C1079 C1075 1.393 . S
C1079 C1078 1.391 1_556 S
H1080 C1088 0.950 1_554 S
H1081 C1093 0.950 . S
H1082 C1090 0.950 . S
H1083 C1092 0.950 . S
H1084 C1094 0.950 . S
H1085 C1096 0.950 1_556 S
H1086 C1098 0.950 . S
H1087 C1099 0.950 . S
C1088 H1080 0.950 1_556 S
C1088 C1089 1.386 . S
C1088 C1090 1.391 1_556 S
C1089 C1088 1.386 . S
C1089 C1093 1.393 . S
C1090 H1082 0.950 . S
C1090 C1088 1.391 1_554 S
C1090 C1091 1.400 . S
C1091 C1090 1.400 . S
C1091 C1092 1.398 1_554 S
C1091 C1097 1.491 . S
C1092 H1083 0.950 . S
C1092 C1091 1.398 1_556 S
C1092 C1093 1.391 . S
C1093 H1081 0.950 . S
C1093 C1089 1.393 . S
C1093 C1092 1.391 . S
C1094 H1084 0.950 . S
C1094 C1095 1.386 . S
C1094 C1096 1.391 . S
C1095 C1094 1.386 . S
C1095 C1099 1.393 . S
C1096 H1085 0.950 1_554 S
C1096 C1094 1.391 . S
C1096 C1097 1.400 . S
C1097 C1091 1.491 . S
C1097 C1096 1.400 . S
C1097 C1098 1.398 . S
C1098 H1086 0.950 . S
C1098 C1097 1.398 . S
C1098 C1099 1.391 . S
C1099 H1087 0.950 . S
C1099 C1095 1.393 . S
C1099 C1098 1.391 . S
H1100 C1108 0.950 . S
H1101 C1113 0.950 . S
H1102 C1110 0.950 1_556 S
H1103 C1112 0.950 . S
H1104 C1114 0.950 . S
H1105 C1116 0.950 . S
H1106 C1118 0.950 . S
H1107 C1119 0.950 . S
C1108 H1100 0.950 . S
C1108 C1109 1.386 . S
C1108 C1110 1.391 . S
C1109 C1108 1.386 . S
C1109 C1113 1.393 . S
C1110 H1102 0.950 1_554 S
C1110 C1108 1.391 . S
C1110 C1111 1.400 . S
C1111 C1110 1.400 . S
C1111 C1112 1.398 . S
C1111 C1117 1.491 . S
C1112 H1103 0.950 . S
C1112 C1111 1.398 . S
C1112 C1113 1.391 . S
C1113 H1101 0.950 . S
C1113 C1109 1.393 . S
C1113 C1112 1.391 . S
C1114 H1104 0.950 . S
C1114 C1115 1.386 1_554 S
C1114 C1116 1.391 . S
C1115 C1114 1.386 1_556 S
C1115 C1119 1.393 . S
C1116 H1105 0.950 . S
C1116 C1114 1.391 . S
C1116 C1117 1.400 . S
C1117 C1111 1.491 . S
C1117 C1116 1.400 . S
C1117 C1118 1.398 1_554 S
C1118 H1106 0.950 . S
C1118 C1117 1.398 1_556 S
C1118 C1119 1.391 . S
C1119 H1107 0.950 . S
C1119 C1115 1.393 . S
C1119 C1118 1.391 . S
H1120 C1128 0.950 . S
H1121 C1133 0.950 . S
H1122 C1130 0.950 . S
H1123 C1132 0.950 . S
H1124 C1134 0.950 . S
H1125 C1136 0.950 . S
H1126 C1138 0.950 . S
H1127 C1139 0.950 . S
C1128 H1120 0.950 . S
C1128 C1129 1.386 . S
C1128 C1130 1.391 . S
C1129 C1128 1.386 . S
C1129 C1133 1.393 . S
C1130 H1122 0.950 . S
C1130 C1128 1.391 . S
C1130 C1131 1.400 . S
C1131 C1130 1.400 . S
C1131 C1132 1.398 . S
C1131 C1137 1.491 . S
C1132 H1123 0.950 . S
C1132 C1131 1.398 . S
C1132 C1133 1.391 . S
C1133 H1121 0.950 . S
C1133 C1129 1.393 . S
C1133 C1132 1.391 . S
C1134 H1124 0.950 . S
C1134 C1135 1.386 . S
C1134 C1136 1.391 . S
C1135 C1134 1.386 . S
C1135 C1139 1.393 . S
C1136 H1125 0.950 . S
C1136 C1134 1.391 . S
C1136 C1137 1.400 . S
C1137 C1131 1.491 . S
C1137 C1136 1.400 . S
C1137 C1138 1.398 . S
C1138 H1126 0.950 . S
C1138 C1137 1.398 . S
C1138 C1139 1.391 . S
C1139 H1127 0.950 . S
C1139 C1135 1.393 . S
C1139 C1138 1.391 . S
H1140 C1148 0.950 . S
H1141 C1153 0.950 . S
H1142 C1150 0.950 . S
H1143 C1152 0.950 . S
H1144 C1154 0.950 . S
H1145 C1156 0.950 . S
H1146 C1158 0.950 . S
H1147 C1159 0.950 . S
C1148 H1140 0.950 . S
C1148 C1149 1.386 . S
C1148 C1150 1.391 . S
C1149 C1148 1.386 . S
C1149 C1153 1.393 . S
C1150 H1142 0.950 . S
C1150 C1148 1.391 . S
C1150 C1151 1.400 . S
C1151 C1150 1.400 . S
C1151 C1152 1.398 . S
C1151 C1157 1.491 . S
C1152 H1143 0.950 . S
C1152 C1151 1.398 . S
C1152 C1153 1.391 . S
C1153 H1141 0.950 . S
C1153 C1149 1.393 . S
C1153 C1152 1.391 . S
C1154 H1144 0.950 . S
C1154 C1155 1.386 . S
C1154 C1156 1.391 . S
C1155 C1154 1.386 . S
C1155 C1159 1.393 . S
C1156 H1145 0.950 . S
C1156 C1154 1.391 . S
C1156 C1157 1.400 . S
C1157 C1151 1.491 . S
C1157 C1156 1.400 . S
C1157 C1158 1.398 . S
C1158 H1146 0.950 . S
C1158 C1157 1.398 . S
C1158 C1159 1.391 . S
C1159 H1147 0.950 . S
C1159 C1155 1.393 . S
C1159 C1158 1.391 . S
H1160 C1168 0.950 . S
H1161 C1173 0.950 . S
H1162 C1170 0.950 . S
H1163 C1172 0.950 . S
H1164 C1174 0.950 . S
H1165 C1176 0.950 . S
H1166 C1178 0.950 . S
H1167 C1179 0.950 . S
C1168 H1160 0.950 . S
C1168 C1169 1.386 . S
C1168 C1170 1.391 . S
C1169 C1168 1.386 . S
C1169 C1173 1.393 . S
C1170 H1162 0.950 . S
C1170 C1168 1.391 . S
C1170 C1171 1.400 . S
C1171 C1170 1.400 . S
C1171 C1172 1.398 . S
C1171 C1177 1.491 . S
C1172 H1163 0.950 . S
C1172 C1171 1.398 . S
C1172 C1173 1.391 . S
C1173 H1161 0.950 . S
C1173 C1169 1.393 . S
C1173 C1172 1.391 . S
C1174 H1164 0.950 . S
C1174 C1175 1.386 . S
C1174 C1176 1.391 . S
C1175 C1174 1.386 . S
C1175 C1179 1.393 . S
C1176 H1165 0.950 . S
C1176 C1174 1.391 . S
C1176 C1177 1.400 . S
C1177 C1171 1.491 . S
C1177 C1176 1.400 . S
C1177 C1178 1.398 . S
C1178 H1166 0.950 . S
C1178 C1177 1.398 . S
C1178 C1179 1.391 . S
C1179 H1167 0.950 . S
C1179 C1175 1.393 . S
C1179 C1178 1.391 . S
H1180 C1188 0.950 . S
H1181 C1193 0.950 . S
H1182 C1190 0.950 . S
H1183 C1192 0.950 . S
H1184 C1194 0.950 . S
H1185 C1196 0.950 . S
H1186 C1198 0.950 . S
H1187 C1199 0.950 . S
C1188 H1180 0.950 . S
C1188 C1189 1.386 . S
C1188 C1190 1.391 . S
C1189 C1188 1.386 . S
C1189 C1193 1.393 . S
C1190 H1182 0.950 . S
C1190 C1188 1.391 . S
C1190 C1191 1.400 . S
C1191 C1190 1.400 . S
C1191 C1192 1.398 . S
C1191 C1197 1.491 . S
C1192 H1183 0.950 . S
C1192 C1191 1.398 . S
C1192 C1193 1.391 . S
C1193 H1181 0.950 . S
C1193 C1189 1.393 . S
C1193 C1192 1.391 . S
C1194 H1184 0.950 . S
C1194 C1195 1.386 . S
C1194 C1196 1.391 . S
C1195 C1194 1.386 . S
C1195 C1199 1.393 . S
C1196 H1185 0.950 . S
C1196 C1194 1.391 . S
C1196 C1197 1.400 . S
C1197 C1191 1.491 . S
C1197 C1196 1.400 . S
C1197 C1198 1.398 . S
C1198 H1186 0.950 . S
C1198 C1197 1.398 . S
C1198 C1199 1.391 . S
C1199 H1187 0.950 . S
C1199 C1195 1.393 . S
C1199 C1198 1.391 . S
H1200 C1208 0.950 . S
H1201 C1213 0.950 . S
H1202 C1210 0.950 . S
H1203 C1212 0.950 1_554 S
H1204 C1214 0.950 . S
H1205 C1216 0.950 . S
H1206 C1218 0.950 . S
H1207 C1219 0.950 . S
C1208 H1200 0.950 . S
C1208 C1209 1.386 . S
C1208 C1210 1.391 . S
C1209 C1208 1.386 . S
C1209 C1213 1.393 . S
C1210 H1202 0.950 . S
C1210 C1208 1.391 . S
C1210 C1211 1.400 . S
C1211 C1210 1.400 . S
C1211 C1212 1.398 . S
C1211 C1217 1.491 . S
C1212 H1203 0.950 1_556 S
C1212 C1211 1.398 . S
C1212 C1213 1.391 . S
C1213 H1201 0.950 . S
C1213 C1209 1.393 . S
C1213 C1212 1.391 . S
C1214 H1204 0.950 . S
C1214 C1215 1.386 . S
C1214 C1216 1.391 . S
C1215 C1214 1.386 . S
C1215 C1219 1.393 1_554 S
C1216 H1205 0.950 . S
C1216 C1214 1.391 . S
C1216 C1217 1.400 1_554 S
C1217 C1211 1.491 . S
C1217 C1216 1.400 1_556 S
C1217 C1218 1.398 . S
C1218 H1206 0.950 . S
C1218 C1217 1.398 . S
C1218 C1219 1.391 . S
C1219 H1207 0.950 . S
C1219 C1215 1.393 1_556 S
C1219 C1218 1.391 . S
H1220 C1228 0.950 . S
H1221 C1233 0.950 . S
H1222 C1230 0.950 . S
H1223 C1232 0.950 . S
H1224 C1234 0.950 . S
H1225 C1236 0.950 . S
H1226 C1238 0.950 . S
H1227 C1239 0.950 . S
C1228 H1220 0.950 . S
C1228 C1229 1.386 . S
C1228 C1230 1.391 . S
C1229 C1228 1.386 . S
C1229 C1233 1.393 . S
C1230 H1222 0.950 . S
C1230 C1228 1.391 . S
C1230 C1231 1.400 . S
C1231 C1230 1.400 . S
C1231 C1232 1.398 . S
C1231 C1237 1.491 . S
C1232 H1223 0.950 . S
C1232 C1231 1.398 . S
C1232 C1233 1.391 . S
C1233 H1221 0.950 . S
C1233 C1229 1.393 . S
C1233 C1232 1.391 . S
C1234 H1224 0.950 . S
C1234 C1235 1.386 . S
C1234 C1236 1.391 . S
C1235 C1234 1.386 . S
C1235 C1239 1.393 . S
C1236 H1225 0.950 . S
C1236 C1234 1.391 . S
C1236 C1237 1.400 1_554 S
C1237 C1231 1.491 . S
C1237 C1236 1.400 1_556 S
C1237 C1238 1.398 . S
C1238 H1226 0.950 . S
C1238 C1237 1.398 . S
C1238 C1239 1.391 1_556 S
C1239 H1227 0.950 . S
C1239 C1235 1.393 . S
C1239 C1238 1.391 1_554 S
H1240 C1248 0.950 . S
H1241 C1253 0.950 . S
H1242 C1250 0.950 . S
H1243 C1252 0.950 . S
H1244 C1254 0.950 . S
H1245 C1256 0.950 . S
H1246 C1258 0.950 . S
H1247 C1259 0.950 . S
C1248 H1240 0.950 . S
C1248 C1249 1.386 . S
C1248 C1250 1.391 . S
C1249 C1248 1.386 . S
C1249 C1253 1.393 . S
C1250 H1242 0.950 . S
C1250 C1248 1.391 . S
C1250 C1251 1.400 1_554 S
C1251 C1250 1.400 1_556 S
C1251 C1252 1.398 . S
C1251 C1257 1.491 . S
C1252 H1243 0.950 . S
C1252 C1251 1.398 . S
C1252 C1253 1.391 1_556 S
C1253 H1241 0.950 . S
C1253 C1249 1.393 . S
C1253 C1252 1.391 1_554 S
C1254 H1244 0.950 . S
C1254 C1255 1.386 . S
C1254 C1256 1.391 . S
C1255 C1254 1.386 . S
C1255 C1259 1.393 . S
C1256 H1245 0.950 . S
C1256 C1254 1.391 . S
C1256 C1257 1.400 . S
C1257 C1251 1.491 . S
C1257 C1256 1.400 . S
C1257 C1258 1.398 . S
C1258 H1246 0.950 . S
C1258 C1257 1.398 . S
C1258 C1259 1.391 . S
C1259 H1247 0.950 . S
C1259 C1255 1.393 . S
C1259 C1258 1.391 . S
H1260 C1268 0.950 . S
H1261 C1273 0.950 . S
H1262 C1270 0.951 . S
H1263 C1272 0.950 . S
H1264 C1274 0.950 . S
H1265 C1276 0.950 . S
H1266 C1278 0.950 . S
H1267 C1279 0.950 . S
C1268 H1260 0.950 . S
C1268 C1269 1.386 . S
C1268 C1270 1.389 1_554 S
C1269 C1268 1.386 . S
C1269 C1273 1.393 . S
C1270 H1262 0.951 . S
C1270 C1268 1.389 1_556 S
C1270 C1271 1.401 . S
C1271 C1270 1.401 . S
C1271 C1272 1.398 1_556 S
C1271 C1277 1.491 . S
C1272 H1263 0.950 . S
C1272 C1271 1.398 1_554 S
C1272 C1273 1.391 . S
C1273 H1261 0.950 . S
C1273 C1269 1.393 . S
C1273 C1272 1.391 . S
C1274 H1264 0.950 . S
C1274 C1275 1.386 . S
C1274 C1276 1.391 . S
C1275 C1274 1.386 . S
C1275 C1279 1.393 . S
C1276 H1265 0.950 . S
C1276 C1274 1.391 . S
C1276 C1277 1.400 . S
C1277 C1271 1.491 . S
C1277 C1276 1.400 . S
C1277 C1278 1.398 . S
C1278 H1266 0.950 . S
C1278 C1277 1.398 . S
C1278 C1279 1.391 . S
C1279 H1267 0.950 . S
C1279 C1275 1.393 . S
C1279 C1278 1.391 . S
C329 C8 1.853 . S
C335 C108 1.827 . S
C349 C128 1.838 . S
C355 C28 1.842 . S
C369 C48 1.826 . S
C375 C148 1.853 . S
C389 C68 1.850 . S
C395 C88 1.830 . S
C409 C269 1.844 . S
C415 C169 1.835 . S
C429 C289 1.843 . S
C435 C189 1.835 . S
C449 C209 1.851 . S
C455 C309 1.829 . S
C469 C229 1.826 . S
C475 C249 1.852 . S
C489 C1 1.755 . S
C495 C79 1.635 1_545 S
C509 C21 1.759 . S
C515 C19 1.637 . S
C529 C41 1.748 . S
C535 C39 1.655 . S
C549 C61 1.760 . S
C555 C59 1.621 1_455 S
C569 C81 1.755 . S
C575 C119 1.635 1_565 S
C589 C139 1.654 . S
C595 C101 1.741 . S
C609 C121 1.752 . S
C615 C159 1.622 . S
C629 C99 1.641 1_655 S
C635 C141 1.749 . S
C649 C238 1.639 1_565 S
C655 C162 1.752 . S
C669 C182 1.739 . S
C675 C178 1.648 . S
C689 C202 1.756 . S
C695 C198 1.621 . S
C709 C222 1.742 . S
C715 C218 1.642 1_655 S
C729 C242 1.759 . S
C735 C278 1.612 1_545 S
C749 C262 1.745 . S
C755 C298 1.656 . S
C769 C282 1.755 . S
C775 C318 1.621 . S
C789 C302 1.746 . S
C795 C258 1.643 1_455 S
C809 C2 0.390 . S
C815 C42 0.363 . S
C829 C22 0.347 . S
C835 C62 0.331 . S
C849 C122 0.333 . S
C855 C82 0.356 . S
C869 C142 0.375 . S
C875 C102 0.395 . S
C889 C201 0.364 . S
C895 C161 0.337 . S
C909 C221 0.356 . S
C915 C181 0.333 . S
C929 C241 0.364 . S
C935 C281 0.390 . S
C949 C261 0.354 . S
C955 C301 0.383 . S
C969 C18 1.536 . S
C975 C228 1.535 . S
C989 C168 1.534 . S
C995 C38 1.536 . S
C1009 C58 1.537 . S
C1015 C188 1.532 . S
C1029 C208 1.533 . S
C1035 C78 1.537 . S
C1049 C268 1.532 . S
C1055 C98 1.537 . S
C1069 C118 1.537 . S
C1075 C288 1.536 . S
C1089 C308 1.535 . S
C1095 C138 1.537 . S
C1109 C158 1.537 . S
C1115 C248 1.532 . S
C1129 C179 1.537 . S
C1135 C69 1.534 . S
C1149 C199 1.537 . S
C1155 C9 1.532 . S
C1169 C29 1.533 . S
C1175 C219 1.536 . S
C1189 C239 1.536 . S
C1195 C49 1.535 . S
C1209 C259 1.537 . S
C1215 C109 1.532 . S
C1229 C279 1.536 . S
C1235 C129 1.535 . S
C1249 C149 1.536 . S
C1255 C299 1.536 . S
C1269 C89 1.533 . S
C1275 C319 1.537 . S
