# Generated by pormake.
# Topology wkj, (6)-cn, num edge types: 1
# Building blocks:
#     Node 0, Type 0, BuildingBlock: INOVEN_clean_sbu_0, # of connection points: 6
#     Node 1, Type 0, BuildingBlock: INOVEN_clean_sbu_0, # of connection points: 6
#     Node 2, Type 0, BuildingBlock: INOVEN_clean_sbu_0, # of connection points: 6
#     Node 3, Type 0, BuildingBlock: INOVEN_clean_sbu_0, # of connection points: 6
#     Node 4, Type 0, BuildingBlock: INOVEN_clean_sbu_0, # of connection points: 6
#     Node 5, Type 0, BuildingBlock: INOVEN_clean_sbu_0, # of connection points: 6
#     Node 6, Type 0, BuildingBlock: INOVEN_clean_sbu_0, # of connection points: 6
#     Node 7, Type 0, BuildingBlock: INOVEN_clean_sbu_0, # of connection points: 6
#     Node 8, Type 0, BuildingBlock: INOVEN_clean_sbu_0, # of connection points: 6
#     Node 9, Type 0, BuildingBlock: INOVEN_clean_sbu_0, # of connection points: 6
#     Node 10, Type 0, BuildingBlock: INOVEN_clean_sbu_0, # of connection points: 6
#     Node 11, Type 0, BuildingBlock: INOVEN_clean_sbu_0, # of connection points: 6
#     Edge 12, Type (0, 0), BuildingBlock: CIFDUS_clean_linker_0, # of connection points: 2
#     Edge 13, Type (0, 0), BuildingBlock: CIFDUS_clean_linker_0, # of connection points: 2
#     Edge 14, Type (0, 0), BuildingBlock: CIFDUS_clean_linker_0, # of connection points: 2
#     Edge 15, Type (0, 0), BuildingBlock: CIFDUS_clean_linker_0, # of connection points: 2
#     Edge 16, Type (0, 0), BuildingBlock: CIFDUS_clean_linker_0, # of connection points: 2
#     Edge 17, Type (0, 0), BuildingBlock: CIFDUS_clean_linker_0, # of connection points: 2
#     Edge 18, Type (0, 0), BuildingBlock: CIFDUS_clean_linker_0, # of connection points: 2
#     Edge 19, Type (0, 0), BuildingBlock: CIFDUS_clean_linker_0, # of connection points: 2
#     Edge 20, Type (0, 0), BuildingBlock: CIFDUS_clean_linker_0, # of connection points: 2
#     Edge 21, Type (0, 0), BuildingBlock: CIFDUS_clean_linker_0, # of connection points: 2
#     Edge 22, Type (0, 0), BuildingBlock: CIFDUS_clean_linker_0, # of connection points: 2
#     Edge 23, Type (0, 0), BuildingBlock: CIFDUS_clean_linker_0, # of connection points: 2
#     Edge 24, Type (0, 0), BuildingBlock: CIFDUS_clean_linker_0, # of connection points: 2
#     Edge 25, Type (0, 0), BuildingBlock: CIFDUS_clean_linker_0, # of connection points: 2
#     Edge 26, Type (0, 0), BuildingBlock: CIFDUS_clean_linker_0, # of connection points: 2
#     Edge 27, Type (0, 0), BuildingBlock: CIFDUS_clean_linker_0, # of connection points: 2
#     Edge 28, Type (0, 0), BuildingBlock: CIFDUS_clean_linker_0, # of connection points: 2
#     Edge 29, Type (0, 0), BuildingBlock: CIFDUS_clean_linker_0, # of connection points: 2
#     Edge 30, Type (0, 0), BuildingBlock: CIFDUS_clean_linker_0, # of connection points: 2
#     Edge 31, Type (0, 0), BuildingBlock: CIFDUS_clean_linker_0, # of connection points: 2
#     Edge 32, Type (0, 0), BuildingBlock: CIFDUS_clean_linker_0, # of connection points: 2
#     Edge 33, Type (0, 0), BuildingBlock: CIFDUS_clean_linker_0, # of connection points: 2
#     Edge 34, Type (0, 0), BuildingBlock: CIFDUS_clean_linker_0, # of connection points: 2
#     Edge 35, Type (0, 0), BuildingBlock: CIFDUS_clean_linker_0, # of connection points: 2
#     Edge 36, Type (0, 0), BuildingBlock: CIFDUS_clean_linker_0, # of connection points: 2
#     Edge 37, Type (0, 0), BuildingBlock: CIFDUS_clean_linker_0, # of connection points: 2
#     Edge 38, Type (0, 0), BuildingBlock: CIFDUS_clean_linker_0, # of connection points: 2
#     Edge 39, Type (0, 0), BuildingBlock: CIFDUS_clean_linker_0, # of connection points: 2
#     Edge 40, Type (0, 0), BuildingBlock: CIFDUS_clean_linker_0, # of connection points: 2
#     Edge 41, Type (0, 0), BuildingBlock: CIFDUS_clean_linker_0, # of connection points: 2
#     Edge 42, Type (0, 0), BuildingBlock: CIFDUS_clean_linker_0, # of connection points: 2
#     Edge 43, Type (0, 0), BuildingBlock: CIFDUS_clean_linker_0, # of connection points: 2
#     Edge 44, Type (0, 0), BuildingBlock: CIFDUS_clean_linker_0, # of connection points: 2
#     Edge 45, Type (0, 0), BuildingBlock: CIFDUS_clean_linker_0, # of connection points: 2
#     Edge 46, Type (0, 0), BuildingBlock: CIFDUS_clean_linker_0, # of connection points: 2
#     Edge 47, Type (0, 0), BuildingBlock: CIFDUS_clean_linker_0, # of connection points: 2
# Relax obj value: 0.842
# Max RMSD: 0.170
# Mean RMSD: 0.170
data_MOF--net-wkj--node1-INOVEN_clean_sbu_0--edge1-CIFDUS_clean_linker_0
_symmetry_space_group_name_H-M    P1
_symmetry_Int_Tables_number       1
_symmetry_cell_setting            triclinic
loop_
_symmetry_equiv_pos_as_xyz
'x, y, z'
_cell_length_a     43.130972
_cell_length_b     43.560028
_cell_length_c     26.964122
_cell_angle_alpha  89.748428
_cell_angle_beta   90.503367
_cell_angle_gamma 120.07076
loop_
_atom_site_label
_atom_site_type_symbol
_atom_site_fract_x
_atom_site_fract_y
_atom_site_fract_z
_atom_type_partial_charge
Gd0 Gd 0.47517 0.08426 0.3984 0.0
Gd1 Gd 0.54812 0.10701 0.38255 0.0
C2 C 0.53011 0.10781 0.5031 0.0
C3 C 0.40948 0.06475 0.42084 0.0
C4 C 0.38668 0.05357 0.46454 0.0
C5 C 0.34935 0.03342 0.459 0.0
C6 C 0.40194 0.06428 0.5118 0.0
C7 C 0.34262 0.03539 0.54796 0.0
C8 C 0.3801 0.05537 0.55313 0.0
C9 C 0.32735 0.02413 0.50062 0.0
C10 C 0.50996 0.14977 0.35022 0.0
C11 C 0.48974 0.0517 0.29299 0.0
C12 C 0.61299 0.14551 0.35148 0.0
C13 C 0.62592 0.17373 0.31463 0.0
C14 C 0.66257 0.1968 0.30675 0.0
C15 C 0.60059 0.17961 0.29041 0.0
C16 C 0.6481 0.23131 0.2496 0.0
C17 C 0.61149 0.20808 0.25848 0.0
C18 C 0.67367 0.22535 0.27376 0.0
C19 C 0.51784 0.04816 0.43593 0.0
O20 O 0.49625 0.09408 0.4846 0.0
O21 O 0.55581 0.1177 0.46882 0.0
O22 O 0.43565 0.09754 0.42144 0.0
O23 O 0.4192 0.04282 0.40413 0.0
O24 O 0.48107 0.12195 0.33503 0.0
O25 O 0.5211 0.13961 0.38715 0.0
O26 O 0.52384 0.07641 0.30499 0.0
O27 O 0.46509 0.04834 0.32623 0.0
O28 O 0.59133 0.11347 0.33484 0.0
O29 O 0.60081 0.15283 0.39108 0.0
O30 O 0.55212 0.06987 0.43577 0.0
O31 O 0.50306 0.05474 0.40024 0.0
H32 H 0.33728 0.02499 0.42255 0.0
H33 H 0.43073 0.07965 0.51676 0.0
H34 H 0.39264 0.06339 0.58938 0.0
H35 H 0.29856 0.00823 0.49593 0.0
H36 H 0.6824 0.19273 0.32593 0.0
H37 H 0.5722 0.16207 0.29634 0.0
H38 H 0.59096 0.211 0.23921 0.0
H39 H 0.70198 0.24247 0.26675 0.0
Gd40 Gd 0.37259 0.47343 0.72431 0.0
Gd41 Gd 0.42494 0.54194 0.69864 0.0
C42 C 0.41909 0.5273 0.82253 0.0
C43 C 0.32753 0.41132 0.7574 0.0
C44 C 0.32361 0.38836 0.7992 0.0
C45 C 0.31007 0.35213 0.79056 0.0
C46 C 0.33371 0.40209 0.84726 0.0
C47 C 0.31525 0.34307 0.8782 0.0
C48 C 0.32941 0.37952 0.88656 0.0
C49 C 0.306 0.32957 0.82985 0.0
C50 C 0.34141 0.50899 0.67754 0.0
C51 C 0.40592 0.47658 0.61238 0.0
C52 C 0.45588 0.60925 0.67979 0.0
C53 C 0.44046 0.63204 0.67062 0.0
C54 C 0.45638 0.65882 0.63498 0.0
C55 C 0.40528 0.62072 0.68583 0.0
C56 C 0.3984 0.65316 0.61733 0.0
C57 C 0.38448 0.63176 0.65976 0.0
C58 C 0.43549 0.66958 0.60858 0.0
C59 C 0.45381 0.50145 0.7136 0.0
O60 O 0.39189 0.49564 0.80689 0.0
O61 O 0.43729 0.55051 0.78602 0.0
O62 O 0.32529 0.43962 0.76683 0.0
O63 O 0.35311 0.41714 0.72656 0.0
O64 O 0.3368 0.47836 0.6657 0.0
O65 O 0.36574 0.52089 0.71088 0.0
O66 O 0.41934 0.51193 0.61969 0.0
O67 O 0.38861 0.45633 0.65123 0.0
O68 O 0.44751 0.58505 0.64585 0.0
O69 O 0.4528 0.5966 0.72449 0.0
O70 O 0.46651 0.52704 0.68152 0.0
O71 O 0.4299 0.50199 0.73878 0.0
H72 H 0.30255 0.34132 0.75343 0.0
H73 H 0.34482 0.43013 0.85445 0.0
H74 H 0.33746 0.39062 0.92346 0.0
H75 H 0.29515 0.30156 0.8226 0.0
H76 H 0.48356 0.66795 0.62301 0.0
H77 H 0.39252 0.60009 0.71353 0.0
H78 H 0.35616 0.61928 0.66804 0.0
H79 H 0.44731 0.68644 0.57654 0.0
Gd80 Gd 0.8892 0.3938 1.05827 0.0
Gd81 Gd 0.85047 0.42522 1.02768 0.0
C82 C 0.85923 0.4239 0.15314 0.0
C83 C 0.925 0.364 1.08763 0.0
C84 C 0.93856 0.35326 1.12959 0.0
C85 C 0.96007 0.33833 1.12027 0.0
C86 C 0.92683 0.35357 0.17765 0.0
C87 C 0.95673 0.32218 0.2068 0.0
C88 C 0.93589 0.33808 0.21616 0.0
C89 C 0.96923 0.32291 0.15873 0.0
C90 C 0.82345 0.34542 1.01455 0.0
C91 C 0.91137 0.4247 0.94325 0.0
C92 C 0.79743 0.42687 0.9863 0.0
C93 C 0.77108 0.39962 0.95315 0.0
C94 C 0.78172 0.37977 0.92458 0.0
C95 C 0.73457 0.38888 0.95644 0.0
C96 C 0.71979 0.3391 0.9016 0.0
C97 C 0.70903 0.35891 0.93039 0.0
C98 C 0.75645 0.35 0.89902 0.0
C99 C 0.90851 0.47461 1.07113 0.0
O100 O 0.87658 0.40656 1.1404 0.0
O101 O 0.84419 0.4319 1.11474 0.0
O102 O 0.89026 0.34743 1.08295 0.0
O103 O 0.94026 0.39775 1.0773 0.0
O104 O 0.85465 0.35099 1.00168 0.0
O105 O 0.82928 0.36858 1.04724 0.0
O106 O 0.88277 0.42929 0.95134 0.0
O107 O 0.92081 0.41247 0.98262 0.0
O108 O 0.83021 0.44534 0.96956 0.0
O109 O 0.79621 0.41529 1.03127 0.0
O110 O 0.87963 0.47663 1.06704 0.0
O111 O 0.90731 0.4501 1.04422 0.0
H112 H 0.96891 0.33769 1.08297 0.0
H113 H 0.91004 0.36498 0.18503 0.0
H114 H 0.92677 0.33866 0.25326 0.0
H115 H 0.98551 0.31104 0.15081 0.0
H116 H 0.8096 0.3868 0.92277 0.0
H117 H 0.72586 0.40334 0.97963 0.0
H118 H 0.68103 0.35141 0.93225 0.0
H119 H 0.7659 0.33606 0.87608 0.0
Gd120 Gd 0.52274 0.89242 0.40343 0.0
Gd121 Gd 0.45048 0.85653 0.38206 0.0
C122 C 0.46634 0.85936 0.50466 0.0
C123 C 0.59019 0.92375 0.4268 0.0
C124 C 0.61528 0.933 0.46858 0.0
C125 C 0.62085 0.90711 0.4916 0.0
C126 C 0.63537 0.9684 0.48402 0.0
C127 C 0.66345 0.95131 0.54834 0.0
C128 C 0.65921 0.97749 0.52373 0.0
C129 C 0.64469 0.91621 0.5313 0.0
C130 C 0.49901 0.82712 0.35714 0.0
C131 C 0.50516 0.91787 0.29499 0.0
C132 C 0.39664 0.80776 0.33672 0.0
C133 C 0.3992 0.79077 0.29096 0.0
C134 C 0.40636 0.80849 0.24531 0.0
C135 C 0.39918 0.75852 0.29343 0.0
C136 C 0.40011 0.75625 0.2034 0.0
C137 C 0.40077 0.74194 0.25015 0.0
C138 C 0.40824 0.79193 0.20233 0.0
C139 C 0.4641 0.91242 0.43387 0.0
O140 O 0.50061 0.87771 0.48808 0.0
O141 O 0.441 0.84587 0.46876 0.0
O142 O 0.57085 0.89021 0.41599 0.0
O143 O 0.57237 0.94057 0.42252 0.0
O144 O 0.52394 0.85725 0.34031 0.0
O145 O 0.48602 0.83426 0.39415 0.0
O146 O 0.47335 0.88856 0.30492 0.0
O147 O 0.52951 0.9269 0.33134 0.0
O148 O 0.40476 0.84103 0.33332 0.0
O149 O 0.41021 0.80123 0.37619 0.0
O150 O 0.43223 0.88459 0.43103 0.0
O151 O 0.48512 0.91215 0.40128 0.0
H152 H 0.60638 0.87968 0.47965 0.0
H153 H 0.63208 -0.01108 0.4661 0.0
H154 H 0.67289 0.00468 0.53675 0.0
H155 H 0.64758 0.89564 0.54977 0.0
H156 H 0.40963 0.83477 0.24235 0.0
H157 H 0.3967 0.74543 0.32863 0.0
H158 H 0.39838 0.71608 0.25336 0.0
H159 H 0.4128 0.80617 0.16805 0.0
Gd160 Gd 0.56515 0.47637 0.72953 0.0
Gd161 Gd 0.56642 0.42169 0.70464 0.0
C162 C 0.54723 0.42374 0.82636 0.0
C163 C 0.56889 0.53282 0.76429 0.0
C164 C 0.57096 0.56489 0.78416 0.0
C165 C 0.59131 0.59762 0.76018 0.0
C166 C 0.55542 0.56335 0.82996 0.0
C167 C 0.5842 0.62767 0.83113 0.0
C168 C 0.56182 0.59449 0.85321 0.0
C169 C 0.59812 0.62897 0.78376 0.0
C170 C 0.63393 0.48948 0.70017 0.0
C171 C 0.55077 0.47201 0.6139 0.0
C172 C 0.58947 0.38307 0.66468 0.0
C173 C 0.61779 0.3933 0.62816 0.0
C174 C 0.63328 0.37226 0.61918 0.0
C175 C 0.63032 0.4255 0.60305 0.0
C176 C 0.6714 0.41431 0.55645 0.0
C177 C 0.65713 0.43614 0.56806 0.0
C178 C 0.65977 0.38253 0.58294 0.0
C179 C 0.49951 0.39169 0.73011 0.0
O180 O 0.54451 0.45076 0.80838 0.0
O181 O 0.55906 0.40912 0.7927 0.0
O182 O 0.58666 0.51878 0.78411 0.0
O183 O 0.54804 0.51559 0.72693 0.0
O184 O 0.61618 0.50302 0.68019 0.0
O185 O 0.61345 0.46818 0.73218 0.0
O186 O 0.56101 0.44753 0.62442 0.0
O187 O 0.54632 0.48628 0.65402 0.0
O188 O 0.56099 0.38353 0.64889 0.0
O189 O 0.6007 0.39868 0.70743 0.0
O190 O 0.51929 0.37794 0.73919 0.0
O191 O 0.51634 0.4226 0.70914 0.0
H192 H 0.60349 0.59908 0.72462 0.0
H193 H 0.53973 0.5382 0.84881 0.0
H194 H 0.55142 0.59266 0.89015 0.0
H195 H 0.61556 0.65424 0.76619 0.0
H196 H 0.62418 0.34755 0.639 0.0
H197 H 0.61893 0.44226 0.60997 0.0
H198 H 0.66483 0.46035 0.54758 0.0
H199 H 0.67003 0.36506 0.57408 0.0
Gd200 Gd 0.08873 0.60714 1.05827 0.0
Gd201 Gd 0.1181 0.56815 1.02783 0.0
C202 C 0.11427 0.57229 0.15376 0.0
C203 C 0.06104 0.64412 1.08906 0.0
C204 C 0.03569 0.6463 1.12225 0.0
C205 C 0.00945 0.65269 1.10158 0.0
C206 C 0.03896 0.64511 0.1738 0.0
C207 C -0.00798 0.65985 0.18366 0.0
C208 C 0.01716 0.65177 0.20431 0.0
C209 C -0.01246 0.65924 1.13214 0.0
C210 C 0.15153 0.65008 1.00436 0.0
C211 C 0.05602 0.57001 0.94821 0.0
C212 C 0.1613 0.55063 0.98772 0.0
C213 C 0.1899 0.56737 0.95058 0.0
C214 C 0.18452 0.55258 0.90308 0.0
C215 C 0.22121 0.59991 0.96054 0.0
C216 C 0.23707 0.60599 0.87358 0.0
C217 C 0.24461 0.61903 0.92232 0.0
C218 C 0.20786 0.57174 0.86483 0.0
C219 C 0.05909 0.52613 1.07791 0.0
O220 O 0.09814 0.59087 1.14076 0.0
O221 O 0.12756 0.56309 1.11498 0.0
O222 O 0.09048 0.647 1.10776 0.0
O223 O 0.04724 0.62089 1.05347 0.0
O224 O 0.12045 0.64671 0.99759 0.0
O225 O 0.14716 0.62767 1.03819 0.0
O226 O 0.08427 0.56448 0.95244 0.0
O227 O 0.05006 0.5834 0.98921 0.0
O228 O 0.12849 0.53876 0.97178 0.0
O229 O 0.1676 0.56735 1.02988 0.0
O230 O 0.08563 0.52039 1.07493 0.0
O231 O 0.06275 0.55003 1.04805 0.0
H232 H 0.00665 0.65369 1.06171 0.0
H233 H 0.05874 0.63981 0.19048 0.0
H234 H 0.02028 0.65109 0.24415 0.0
H235 H 0.96809 0.66508 1.11558 0.0
H236 H 0.16091 0.5273 0.89472 0.0
H237 H 0.22658 0.6118 0.99709 0.0
H238 H 0.26711 0.64516 0.9302 0.0
H239 H 0.20106 0.561 0.82762 0.0
Gd240 Gd 0.88383 0.53489 0.5748 0.0
Gd241 Gd 0.87549 0.47151 0.58324 0.0
C242 C 0.86815 0.48407 0.46538 0.0
C243 C 0.89345 0.5977 0.5564 0.0
C244 C 0.89784 0.61946 0.513 0.0
C245 C 0.91537 0.65646 0.51734 0.0
C246 C 0.88627 0.60344 0.46658 0.0
C247 C 0.91357 0.66153 0.42777 0.0
C248 C 0.89402 0.62423 0.42437 0.0
C249 C 0.92316 0.67748 0.47487 0.0
C250 C 0.82107 0.49447 0.62578 0.0
C251 C 0.92504 0.52324 0.67764 0.0
C252 C 0.85201 0.40583 0.60651 0.0
C253 C 0.81906 0.38131 0.63236 0.0
C254 C 0.79645 0.3471 0.61334 0.0
C255 C 0.8069 0.39432 0.67035 0.0
C256 C 0.74896 0.34046 0.66764 0.0
C257 C 0.77236 0.37396 0.68808 0.0
C258 C 0.76151 0.32653 0.63129 0.0
C259 C 0.93766 0.51809 0.53654 0.0
O260 O 0.87679 0.51625 0.48568 0.0
O261 O 0.86408 0.46017 0.4992 0.0
O262 O 0.86216 0.56936 0.56074 0.0
O263 O 0.91954 0.59152 0.56545 0.0
O264 O 0.84762 0.52439 0.64024 0.0
O265 O 0.83093 0.48474 0.58714 0.0
O266 O 0.90814 0.49025 0.65923 0.0
O267 O 0.92052 0.54666 0.64948 0.0
O268 O 0.87654 0.4323 0.63233 0.0
O269 O 0.84623 0.41592 0.56373 0.0
O270 O 0.91667 0.48513 0.52512 0.0
O271 O 0.92606 0.5235 0.57568 0.0
H272 H 0.92426 0.66907 0.55326 0.0
H273 H 0.87265 0.57486 0.46269 0.0
H274 H 0.88696 0.61082 0.38885 0.0
H275 H 0.93823 0.70607 0.47865 0.0
H276 H 0.80536 0.3369 0.58346 0.0
H277 H 0.82359 0.4208 0.68519 0.0
H278 H 0.7638 0.38453 0.71795 0.0
H279 H 0.7442 0.30025 0.61635 0.0
Gd280 Gd 0.40442 0.89812 0.91407 0.0
Gd281 Gd 0.41412 0.84954 0.94579 0.0
C282 C 0.41934 0.85919 0.81941 0.0
C283 C 0.39042 0.94444 0.87704 0.0
C284 C 0.36055 0.94141 0.84708 0.0
C285 C 0.34321 0.95991 0.86106 0.0
C286 C 0.34878 0.91976 0.80486 0.0
C287 C 0.30723 0.94057 0.78554 0.0
C288 C 0.32254 0.91948 0.77426 0.0
C289 C 0.31641 0.95917 0.83082 0.0
C290 C 0.33896 0.83418 0.93239 0.0
C291 C 0.42857 0.91721 1.0275 0.0
C292 C 0.39796 0.79549 1.00199 0.0
C293 C 0.37024 0.78098 1.04052 0.0
C294 C 0.37421 0.80842 1.09589 0.0
C295 C 0.32911 0.73996 1.02512 0.0
C296 C 0.28869 0.75284 1.118 0.0
C297 C 0.2882 0.72382 1.06055 0.0
C298 C 0.33404 0.795 1.13821 0.0
C299 C 0.47782 0.892 0.91324 0.0
O300 O 0.41405 0.88566 0.8325 0.0
O301 O 0.41969 0.83939 0.85833 0.0
O302 O 0.38223 0.93265 0.92227 0.0
O303 O 0.41178 0.93535 0.85574 0.0
O304 O 0.34907 0.86405 0.95453 0.0
O305 O 0.36535 0.83938 0.90731 0.0
O306 O 0.41668 0.88217 1.02134 0.0
O307 O 0.4316 0.93299 0.98455 0.0
O308 O 0.42559 0.8267 1.01047 0.0
O309 O 0.38565 0.79252 0.95693 0.0
O310 O 0.46377 0.85791 0.9133 0.0
O311 O 0.45862 0.90366 0.93343 0.0
H312 H 0.35125 0.97589 0.89447 0.0
H313 H 0.36097 0.90429 0.79414 0.0
H314 H 0.3166 0.90494 0.73974 0.0
H315 H 0.30458 0.97501 0.84128 0.0
H316 H 0.40296 0.83322 1.09758 0.0
H317 H 0.32853 0.72557 0.99223 0.0
H318 H 0.26357 0.70103 1.04803 0.0
H319 H 0.35816 0.80676 1.12239 0.0
Gd320 Gd 0.44485 0.33533 0.25198 0.0
Gd321 Gd 0.49432 0.3957 0.24504 0.0
C322 C 0.48951 0.37113 1.13619 0.0
C323 C 0.38944 0.27277 0.23691 0.0
C324 C 0.37301 0.25404 0.19058 0.0
C325 C 0.33576 0.23713 0.18478 0.0
C326 C 0.39457 0.25933 0.14908 0.0
C327 C 0.34266 0.23923 1.09534 0.0
C328 C 0.37948 0.25192 1.10174 0.0
C329 C 0.32058 0.22949 1.13734 0.0
C330 C 0.49874 0.32875 0.29141 0.0
C331 C 0.45051 0.39181 0.34584 0.0
C332 C 0.55391 0.45244 0.26575 0.0
C333 C 0.59057 0.45884 0.26687 0.0
C334 C 0.61394 0.48143 0.30341 0.0
C335 C 0.59831 0.43495 0.24289 0.0
C336 C 0.64655 0.4492 0.3019 0.0
C337 C 0.62642 0.43042 0.25999 0.0
C338 C 0.64181 0.47671 0.32085 0.0
C339 C 0.42933 0.38562 0.20714 0.0
O340 O 0.45984 0.34525 0.16056 0.0
O341 O 0.51207 0.39588 0.16629 0.0
O342 O 0.42126 0.27813 0.24688 0.0
O343 O 0.38732 0.30113 0.24393 0.0
O344 O 0.4707 0.32322 0.31584 0.0
O345 O 0.5007 0.34623 0.25182 0.0
O346 O 0.4763 0.41321 0.3154 0.0
O347 O 0.43318 0.35756 0.32977 0.0
O348 O 0.53358 0.42936 0.29907 0.0
O349 O 0.53821 0.44707 0.22238 0.0
O350 O 0.4603 0.4027 0.18589 0.0
O351 O 0.43548 0.37792 0.24897 0.0
H352 H 0.31876 0.23283 0.21647 0.0
H353 H 0.42345 0.27229 0.1527 0.0
H354 H 0.39728 0.25994 1.07022 0.0
H355 H 0.29205 0.21928 1.13334 0.0
H356 H 0.60809 0.49973 0.32262 0.0
H357 H 0.58032 0.41704 0.21476 0.0
H358 H 0.62979 0.40955 0.24389 0.0
H359 H 0.65648 0.49169 0.35327 0.0
Gd360 Gd 0.09288 0.46135 0.57938 0.0
Gd361 Gd 0.08614 0.51371 0.57966 0.0
C362 C 0.10425 0.50978 0.46701 0.0
C363 C 0.09577 0.40402 0.56295 0.0
C364 C 0.07786 0.37461 0.52813 0.0
C365 C 0.09624 0.35841 0.50901 0.0
C366 C 0.04397 0.36555 0.5094 0.0
C367 C 0.049 0.32786 0.44783 0.0
C368 C 0.02957 0.34222 0.46979 0.0
C369 C 0.08189 0.33511 0.4689 0.0
C370 C 0.15476 0.50998 0.62443 0.0
C371 C 0.04335 0.46562 0.67717 0.0
C372 C 0.09634 0.57554 0.60172 0.0
C373 C 0.13049 0.60905 0.60004 0.0
C374 C 0.13981 0.63179 0.64072 0.0
C375 C 0.15763 0.61177 0.56866 0.0
C376 C 0.20247 0.64902 0.6294 0.0
C377 C 0.19353 0.63199 0.58304 0.0
C378 C 0.1756 0.65176 0.65536 0.0
C379 C 0.02916 0.45554 0.53372 0.0
O380 O 0.09721 0.47815 0.48839 0.0
O381 O 0.1057 0.53232 0.50054 0.0
O382 O 0.11737 0.43453 0.54291 0.0
O383 O 0.07542 0.40641 0.5961 0.0
O384 O 0.13112 0.48073 0.64422 0.0
O385 O 0.14049 0.51534 0.58582 0.0
O386 O 0.04979 0.49412 0.65111 0.0
O387 O 0.0586 0.44797 0.65658 0.0
O388 O 0.09634 0.55348 0.6348 0.0
O389 O 0.08254 0.56019 0.55929 0.0
O390 O 0.04513 0.48801 0.51814 0.0
O391 O 0.042 0.45646 0.57542 0.0
H392 H 0.12255 0.36535 0.52319 0.0
H393 H 0.0296 0.37817 0.52331 0.0
H394 H 0.0046 0.33797 0.45377 0.0
H395 H 0.0974 0.32451 0.45248 0.0
H396 H 0.11927 0.63018 0.66527 0.0
H397 H 0.15113 0.59478 0.53653 0.0
H398 H 0.21358 0.63038 0.5611 0.0
H399 H 0.18097 0.66487 0.69099 0.0
Gd400 Gd 0.60815 0.0914 0.92616 0.0
Gd401 Gd 0.55236 0.10402 0.94103 0.0
C402 C 0.57099 0.10666 0.82115 0.0
C403 C 0.65991 0.08047 0.9019 0.0
C404 C 0.66737 0.05763 0.87018 0.0
C405 C 0.67596 0.06648 0.8202 0.0
C406 C 0.66732 0.02762 0.88983 0.0
C407 C 0.6823 0.0147 0.80914 0.0
C408 C 0.67428 0.00598 0.85929 0.0
C409 C 0.68323 0.0452 0.79002 0.0
C410 C 0.63499 0.15685 0.97153 0.0
C411 C 0.56199 0.05169 1.02964 0.0
C412 C 0.5152 0.13162 0.97315 0.0
C413 C 0.52585 0.1684 0.98546 0.0
C414 C 0.51238 0.17506 1.02854 0.0
C415 C 0.55471 0.19669 0.96097 0.0
C416 C 0.56277 0.2355 1.03025 0.0
C417 C 0.57274 0.23024 0.98292 0.0
C418 C 0.53063 0.20845 1.05078 0.0
C419 C 0.53079 0.04273 0.89421 0.0
O420 O 0.59229 0.0946 0.83973 0.0
O421 O 0.55536 0.11638 0.85559 0.0
O422 O 0.65319 0.10319 0.87963 0.0
O423 O 0.63947 0.06571 0.94017 0.0
O424 O 0.63961 0.13125 0.98586 0.0
O425 O 0.61181 0.14497 0.93634 0.0
O426 O 0.547 0.07156 1.0169 0.0
O427 O 0.586 0.05315 0.9968 0.0
O428 O 0.52905 0.11751 1.0021 0.0
O429 O 0.51667 0.12475 0.92661 0.0
O430 O 0.51519 0.06112 0.88698 0.0
O431 O 0.55153 0.05467 0.93063 0.0
H432 H 0.67668 0.08964 0.80405 0.0
H433 H 0.66143 0.02062 0.92858 0.0
H434 H 0.67311 0.98239 0.87459 0.0
H435 H 0.68837 0.05203 0.7511 0.0
H436 H 0.49008 0.15355 1.04782 0.0
H437 H 0.56551 0.19215 0.92745 0.0
H438 H 0.59702 0.25074 0.96583 0.0
H439 H 0.52205 0.21138 1.08721 0.0
Gd440 Gd 0.53753 0.61218 0.23972 0.0
Gd441 Gd 0.4686 0.56906 0.24616 0.0
C442 C 0.4876 0.58515 1.12882 0.0
C443 C 0.60345 0.65402 0.21485 0.0
C444 C 0.61719 0.68173 0.1767 0.0
C445 C 0.59992 0.70136 0.16778 0.0
C446 C 0.64049 0.68157 1.14116 0.0
C447 C 0.62103 0.71147 1.08286 0.0
C448 C 0.64238 0.69626 1.09449 0.0
C449 C 0.60218 0.7165 1.12127 0.0
C450 C 0.50532 0.64868 0.27718 0.0
C451 C 0.51633 0.56357 0.34381 0.0
C452 C 0.40131 0.54028 0.26706 0.0
C453 C 0.38349 0.55226 0.30074 0.0
C454 C 0.34632 0.53309 0.30684 0.0
C455 C 0.40419 0.58458 0.32531 0.0
C456 C 0.35112 0.57722 0.3661 0.0
C457 C 0.38816 0.59706 0.35752 0.0
C458 C 0.33013 0.54548 0.33963 0.0
C459 C 0.50216 0.53681 0.20709 0.0
O460 O 0.52005 0.60517 0.15146 0.0
O461 O 0.46089 0.56736 0.1602 0.0
O462 O 0.58902 0.6595 0.25355 0.0
O463 O 0.58397 0.62204 0.1972 0.0
O464 O 0.53144 0.64685 0.29794 0.0
O465 O 0.4952 0.62814 0.23985 0.0
O466 O 0.48438 0.55906 0.32849 0.0
O467 O 0.54292 0.58242 0.31164 0.0
O468 O 0.42236 0.53033 0.28766 0.0
O469 O 0.41637 0.56185 0.23011 0.0
O470 O 0.47262 0.53419 0.19106 0.0
O471 O 0.5119 0.55561 0.24519 0.0
H472 H 0.58175 0.70193 0.19478 0.0
H473 H 0.65392 0.66646 0.14735 0.0
H474 H 0.65722 0.69167 1.06615 0.0
H475 H 0.58618 0.72885 1.11399 0.0
H476 H 0.33008 0.50833 0.28726 0.0
H477 H 0.43296 0.59976 0.32042 0.0
H478 H 0.40529 0.62101 0.3783 0.0
H479 H 0.3016 0.52954 0.34612 0.0
H480 H 0.51871 0.19238 0.26689 0.0
H481 H 0.50688 0.18983 0.4256 0.0
H482 H 0.50436 0.24469 0.42215 0.0
H483 H 0.5017 0.2923 0.37399 0.0
H484 H 0.51764 0.29807 0.21604 0.0
H485 H 0.52298 0.24454 0.2194 0.0
C486 C 0.51611 0.20407 0.30087 0.0
C487 C 0.51309 0.18632 0.34672 0.0
C488 C 0.51546 0.23675 0.29876 0.0
C489 C 0.50968 0.20246 0.38992 0.0
C490 C 0.50805 0.23403 0.3879 0.0
C491 C 0.50717 0.28244 0.34028 0.0
C492 C 0.5095 0.30016 0.29474 0.0
C493 C 0.5105 0.25136 0.34258 0.0
C494 C 0.5162 0.28602 0.25179 0.0
C495 C 0.5189 0.25488 0.25369 0.0
H496 H 0.31023 0.52553 0.59914 0.0
H497 H 0.29688 0.50129 0.75455 0.0
H498 H 0.23985 0.50103 0.75309 0.0
H499 H 0.19113 0.50437 0.70639 0.0
H500 H 0.20671 0.53403 0.55218 0.0
H501 H 0.26415 0.53625 0.5544 0.0
C502 C 0.29539 0.52143 0.63285 0.0
C503 C 0.30893 0.51436 0.6771 0.0
C504 C 0.26254 0.52234 0.63194 0.0
C505 C 0.28821 0.50771 0.72018 0.0
C506 C 0.25521 0.50735 0.71924 0.0
C507 C 0.20759 0.51235 0.67346 0.0
C508 C 0.1939 0.51928 0.62903 0.0
C509 C 0.24179 0.51434 0.67527 0.0
C510 C 0.21602 0.52905 0.58709 0.0
C511 C 0.24933 0.53013 0.58837 0.0
H512 H 0.74994 0.32442 1.00039 0.0
H513 H 0.82065 0.28187 1.01809 0.0
H514 H 0.77014 0.22186 1.0084 0.0
H515 H 0.70589 0.18023 0.99331 0.0
H516 H 0.63505 0.22082 0.96289 0.0
H517 H 0.68466 0.28165 0.97848 0.0
C518 C 0.75442 0.30211 1.0018 0.0
C519 C 0.78996 0.30855 1.01011 0.0
C520 C 0.72479 0.26676 0.99369 0.0
C521 C 0.79429 0.27855 1.01184 0.0
C522 C 0.76515 0.24386 1.00617 0.0
C523 C 0.70099 0.20225 0.98987 0.0
C524 C 0.66582 0.19514 0.97767 0.0
C525 C 0.73027 0.23747 0.99672 0.0
C526 C 0.66116 0.22479 0.9727 0.0
C527 C 0.68984 0.25983 0.98167 0.0
H528 H 0.50527 0.6826 0.36405 0.0
H529 H 0.49384 0.68763 0.20592 0.0
H530 H 0.49141 0.74243 0.2154 0.0
H531 H 0.49506 0.79145 0.26888 0.0
H532 H 0.50004 0.78238 0.42752 0.0
H533 H 0.50227 0.72766 0.4177 0.0
C534 C 0.50195 0.69547 0.33159 0.0
C535 C 0.49998 0.68052 0.2841 0.0
C536 C 0.49964 0.72692 0.33749 0.0
C537 C 0.49532 0.69791 0.2429 0.0
C538 C 0.49413 0.72962 0.24836 0.0
C539 C 0.49656 0.77749 0.30135 0.0
C540 C 0.49793 0.79191 0.34914 0.0
C541 C 0.49669 0.74482 0.29544 0.0
C542 C 0.49911 0.77253 0.3904 0.0
C543 C 0.50047 0.74102 0.38474 0.0
H544 H 0.66646 0.44801 0.7182 0.0
H545 H 0.68329 0.54159 0.64009 0.0
H546 H 0.74051 0.55075 0.60912 0.0
H547 H 0.78765 0.53343 0.60523 0.0
H548 H 0.76818 0.43656 0.67515 0.0
H549 H 0.71048 0.42679 0.70609 0.0
C550 C 0.68236 0.47032 0.69416 0.0
C551 C 0.66981 0.49422 0.68223 0.0
C552 C 0.71511 0.47465 0.6742 0.0
C553 C 0.69161 0.52277 0.65062 0.0
C554 C 0.72458 0.52798 0.63255 0.0
C555 C 0.77058 0.50983 0.6266 0.0
C556 C 0.7828 0.4856 0.63737 0.0
C557 C 0.73685 0.50424 0.64406 0.0
C558 C 0.75985 0.45544 0.66551 0.0
C559 C 0.72677 0.45009 0.68376 0.0
H560 H 0.27152 0.81549 0.97458 0.0
H561 H 0.32771 0.76917 0.90443 0.0
H562 H 0.27907 0.71018 0.92408 0.0
H563 H 0.21788 0.66899 0.959 0.0
H564 H 0.16048 0.71506 1.02624 0.0
H565 H 0.20965 0.77456 1.00737 0.0
C566 C 0.27288 0.7925 0.9625 0.0
C567 C 0.30471 0.79784 0.93907 0.0
C568 C 0.24322 0.75741 0.97208 0.0
C569 C 0.30465 0.76693 0.92336 0.0
C570 C 0.27603 0.73254 0.93376 0.0
C571 C 0.21622 0.69195 0.97027 0.0
C572 C 0.18506 0.68659 0.99569 0.0
C573 C 0.24505 0.72704 0.95849 0.0
C574 C 0.18384 0.71751 1.00784 0.0
C575 C 0.21213 0.75197 0.99655 0.0
H576 H 0.63163 0.25245 1.03822 0.0
H577 H 0.55491 0.27655 1.1012 0.0
H578 H 0.58817 0.29248 0.17954 0.0
H579 H 0.62427 0.2776 0.23455 0.0
H580 H 0.69226 0.24182 0.17202 0.0
H581 H 0.67943 0.25471 1.08908 0.0
C582 C 0.62333 0.26323 1.06787 0.0
C583 C 0.59019 0.26211 1.0644 0.0
C584 C 0.64105 0.26965 1.11358 0.0
C585 C 0.57987 0.2763 1.1034 0.0
C586 C 0.59874 0.28507 0.14837 0.0
C587 C 0.63763 0.27441 0.20271 0.0
C588 C 0.65772 0.25725 0.20885 0.0
C589 C 0.62724 0.27854 0.15495 0.0
C590 C 0.67603 0.25427 0.16808 0.0
C591 C 0.66813 0.26106 1.12042 0.0
H592 H 0.36206 0.64161 0.39668 0.0
H593 H 0.3121 0.53116 0.43748 0.0
H594 H 0.31587 0.54658 0.52319 0.0
H595 H 0.34334 0.5909 0.5872 0.0
H596 H 0.40162 0.70184 0.54854 0.0
H597 H 0.38128 0.68692 0.4624 0.0
C598 C 0.34988 0.62091 0.42448 0.0
C599 C 0.33728 0.58537 0.41089 0.0
C600 C 0.35271 0.63013 0.47479 0.0
C601 C 0.32156 0.55866 0.44675 0.0
C602 C 0.32369 0.56754 0.49642 0.0
C603 C 0.3502 0.61209 0.56072 0.0
C604 C 0.37449 0.6474 0.57417 0.0
C605 C 0.34064 0.60314 0.51104 0.0
C606 C 0.38322 0.6744 0.53898 0.0
C607 C 0.3719 0.66581 0.48963 0.0
H608 H 0.67408 0.34387 0.83774 0.0
H609 H 0.71143 0.27325 0.88433 0.0
H610 H 0.70825 0.25335 0.7998 0.0
H611 H 0.72347 0.27878 0.71644 0.0
H612 H 0.6959 0.35697 0.67129 0.0
H613 H 0.66557 0.35048 0.74954 0.0
C614 C 0.67919 0.3224 0.8298 0.0
C615 C 0.69506 0.31162 0.86637 0.0
C616 C 0.68044 0.31356 0.78027 0.0
C617 C 0.70013 0.28276 0.85637 0.0
C618 C 0.69908 0.27189 0.80757 0.0
C619 C 0.7085 0.29237 0.72246 0.0
C620 C 0.71332 0.31959 0.69001 0.0
C621 C 0.69365 0.29045 0.76914 0.0
C622 C 0.69319 0.33651 0.69687 0.0
C623 C 0.67642 0.33328 0.74211 0.0
H624 H 0.25993 0.71038 0.18355 0.0
H625 H 0.27033 0.79155 1.06525 0.0
H626 H 0.3326 0.80502 1.02812 0.0
H627 H 0.39809 0.76555 1.10218 0.0
H628 H 0.3538 0.68186 0.20117 0.0
H629 H 0.29502 0.6766 0.19832 0.0
C630 C 0.27831 0.72768 0.15446 0.0
C631 C 0.26269 0.75112 1.12616 0.0
C632 C 0.31259 0.72161 0.14989 0.0
C633 C 0.28233 0.77664 1.08006 0.0
C634 C 0.31968 0.78405 1.05584 0.0
C635 C 0.37267 0.7474 1.11906 0.0
C636 C 0.37876 0.73177 0.16145 0.0
C637 C 0.33843 0.74755 1.11023 0.0
C638 C 0.34989 0.69939 0.17669 0.0
C639 C 0.31659 0.69642 0.17606 0.0
H640 H 0.7076 0.48509 0.35821 0.0
H641 H 0.62416 0.37927 0.31911 0.0
H642 H 0.6357 0.35604 0.39421 0.0
H643 H 0.65399 0.3689 0.48076 0.0
H644 H 0.73026 0.47563 0.52545 0.0
H645 H 0.73783 0.49515 0.4391 0.0
C646 C 0.6928 0.45679 0.36539 0.0
C647 C 0.66422 0.43436 0.33379 0.0
C648 C 0.69784 0.44377 0.41063 0.0
C649 C 0.64615 0.39751 0.34266 0.0
C650 C 0.65237 0.38409 0.38624 0.0
C651 C 0.67383 0.39597 0.47126 0.0
C652 C 0.69072 0.42107 0.50915 0.0
C653 C 0.67596 0.40739 0.42215 0.0
C654 C 0.71658 0.45602 0.49662 0.0
C655 C 0.72043 0.46727 0.44733 0.0
H656 H 0.2592 0.59265 0.78598 0.0
H657 H 0.24815 0.67238 0.86465 0.0
H658 H 0.25484 0.70455 0.78861 0.0
H659 H 0.24221 0.69827 0.70025 0.0
H660 H 0.23457 0.608 0.62335 0.0
H661 H 0.25871 0.59338 0.69501 0.0
C662 C 0.25962 0.61777 0.78643 0.0
C663 C 0.25361 0.63033 0.83112 0.0
C664 C 0.25931 0.63402 0.74156 0.0
C665 C 0.25437 0.66297 0.83141 0.0
C666 C 0.25719 0.68092 0.78738 0.0
C667 C 0.24678 0.67597 0.69873 0.0
C668 C 0.23424 0.6531 0.65761 0.0
C669 C 0.25656 0.66506 0.74212 0.0
C670 C 0.24268 0.62573 0.65487 0.0
C671 C 0.25593 0.61675 0.69649 0.0
H672 H 0.46509 -0.00662 1.05654 0.0
H673 H 0.41125 0.89063 1.12602 0.0
H674 H 0.42232 0.91927 0.20751 0.0
H675 H 0.44862 0.97469 0.2647 0.0
H676 H 0.50656 0.0772 0.19512 0.0
H677 H 0.49246 0.04849 1.11349 0.0
C678 C 0.45538 0.97657 1.08902 0.0
C679 C 0.43677 0.93803 1.08106 0.0
C680 C 0.46276 -0.00596 1.1386 0.0
C681 C 0.42558 0.91931 1.12701 0.0
C682 C 0.43203 0.93625 0.17519 0.0
C683 C 0.45844 -0.0086 0.23215 0.0
C684 C 0.47926 0.02996 0.24002 0.0
C685 C 0.45091 0.97383 0.18254 0.0
C686 C 0.49083 0.04853 0.19407 0.0
C687 C 0.48248 0.03157 1.14585 0.0
H688 H 0.4147 0.36629 0.44616 0.0
H689 H 0.4656 0.46099 0.35711 0.0
H690 H 0.45529 0.4935 0.42175 0.0
H691 H 0.43803 0.50038 0.51034 0.0
H692 H 0.38531 0.40555 0.59894 0.0
H693 H 0.39293 0.37191 0.53301 0.0
C694 C 0.42413 0.39417 0.44012 0.0
C695 C 0.44133 0.40962 0.39279 0.0
C696 C 0.41962 0.41483 0.48063 0.0
C697 C 0.45246 0.44649 0.39032 0.0
C698 C 0.44716 0.46611 0.4289 0.0
C699 C 0.42789 0.47235 0.51613 0.0
C700 C 0.41112 0.45722 0.56368 0.0
C701 C 0.43167 0.45143 0.47545 0.0
C702 C 0.39854 0.41995 0.56562 0.0
C703 C 0.40297 0.39989 0.52667 0.0
H704 H 0.98041 0.47019 0.71228 0.0
H705 H 0.05142 0.43482 0.76603 0.0
H706 H 0.02103 0.42079 0.84653 0.0
H707 H 0.97326 0.41806 0.90725 0.0
H708 H 0.901 0.45171 0.85221 0.0
H709 H 0.93108 0.46507 0.77172 0.0
C710 C -0.00998 0.45976 0.74126 0.0
C711 C 0.02039 0.45477 0.72926 0.0
C712 C 0.97118 0.45083 0.78996 0.0
C713 C 0.02937 0.43978 0.77028 0.0
C714 C 0.01148 0.43161 0.81792 0.0
C715 C 0.96364 0.42854 0.87829 0.0
C716 C 0.93306 0.43336 0.8901 0.0
C717 C 0.98215 0.43695 0.8293 0.0
C718 C 0.92328 0.44708 0.84834 0.0
C719 C 0.94122 0.4552 0.80079 0.0
H720 H 0.54473 -0.00565 0.26595 0.0
H721 H 0.48597 0.8915 0.19735 0.0
H722 H 0.4989 0.91983 1.1154 0.0
H723 H 0.52619 0.97492 1.05784 0.0
H724 H 0.57896 0.07775 1.12718 0.0
H725 H 0.56928 0.04934 0.2088 0.0
C726 C 0.53448 0.97749 0.23354 0.0
C727 C 0.51397 0.93903 0.24174 0.0
C728 C 0.54116 -0.00522 0.18388 0.0
C729 C 0.50162 0.92017 0.196 0.0
C730 C 0.50931 0.93689 0.14761 0.0
C731 C 0.53595 -0.00826 1.09034 0.0
C732 C 0.55403 0.03024 1.0825 0.0
C733 C 0.52897 0.97441 1.14004 0.0
C734 C 0.56519 0.04906 1.12835 0.0
C735 C 0.55951 0.03229 0.17651 0.0
H736 H 0.52655 0.52121 0.58113 0.0
H737 H 0.5635 0.45535 0.51603 0.0
H738 H 0.55815 0.47639 0.43322 0.0
H739 H 0.54324 0.5148 0.37423 0.0
H740 H 0.5024 0.57712 0.44042 0.0
H741 H 0.50907 0.55695 0.52282 0.0
C742 C 0.53335 0.51073 0.54936 0.0
C743 C 0.54574 0.48539 0.55887 0.0
C744 C 0.52968 0.52317 0.49937 0.0
C745 C 0.55402 0.4741 0.51377 0.0
C746 C 0.55093 0.48659 0.46493 0.0
C747 C 0.53582 0.52454 0.40625 0.0
C748 C 0.52221 0.54901 0.39729 0.0
C749 C 0.53894 0.51146 0.45628 0.0
C750 C 0.51293 0.55921 0.44246 0.0
C751 C 0.51681 0.54726 0.49105 0.0
H752 H 0.05978 0.55759 0.8382 0.0
H753 H -0.01273 0.56085 0.94404 0.0
H754 H 0.94354 0.54843 0.87788 0.0
H755 H 0.92229 0.53594 0.78656 0.0
H756 H -0.00459 0.53504 0.68025 0.0
H757 H 0.03911 0.54688 0.74614 0.0
C758 C 0.03456 0.55566 0.84785 0.0
C759 C 0.02893 0.56069 0.9001 0.0
C760 C 0.00802 0.54883 0.80726 0.0
C761 C -0.00534 0.55767 0.90696 0.0
C762 C 0.96872 0.55038 0.86785 0.0
C763 C 0.94779 0.53857 0.7767 0.0
C764 C 0.95349 0.53405 0.72433 0.0
C765 C 0.97452 0.54592 0.81711 0.0
C766 C -0.01198 0.53789 0.71721 0.0
C767 C 0.01393 0.54487 0.75633 0.0
H768 H 0.54823 0.03877 0.51677 0.0
H769 H 0.44734 0.02345 0.46511 0.0
H770 H 0.41621 0.97356 0.52084 0.0
H771 H 0.42274 0.92341 0.49486 0.0
H772 H 0.53012 0.94236 0.48156 0.0
H773 H 0.55023 0.98715 0.54519 0.0
C774 C 0.51914 0.02406 0.51822 0.0
C775 C 0.49978 0.03059 0.48197 0.0
C776 C 0.50188 -0.00978 0.53911 0.0
C777 C 0.4628 0.01593 0.48842 0.0
C778 C 0.44527 0.98751 0.52098 0.0
C779 C 0.4507 0.93769 0.50645 0.0
C780 C 0.47551 0.93244 0.48016 0.0
C781 C 0.46385 0.96962 0.53217 0.0
C782 C 0.51079 0.9478 0.49817 0.0
C783 C 0.52201 0.9733 0.53523 0.0
H784 H 0.42525 0.44544 0.77326 0.0
H785 H 0.4763 0.48287 0.63145 0.0
H786 H 0.46579 0.424 0.61142 0.0
H787 H 0.46006 0.37054 0.64532 0.0
H788 H 0.4457 0.35418 0.80061 0.0
H789 H 0.41398 0.38759 0.80349 0.0
C790 C 0.43355 0.44036 0.73777 0.0
C791 C 0.45194 0.468 0.70399 0.0
C792 C 0.42972 0.40746 0.72835 0.0
C793 C 0.46308 0.46182 0.65836 0.0
C794 C 0.45593 0.428 0.64626 0.0
C795 C 0.44848 0.37367 0.67921 0.0
C796 C 0.46084 0.36757 0.7239 0.0
C797 C 0.4411 0.40122 0.682 0.0
C798 C 0.44085 0.3642 0.76631 0.0
C799 C 0.42394 0.38437 0.76825 0.0
H800 H 0.93696 0.44347 1.12659 0.0
H801 H 0.92929 0.538 1.11596 0.0
H802 H 0.98491 0.56986 0.16342 0.0
H803 H 0.03455 0.56533 1.1217 0.0
H804 H 0.03875 0.46895 1.1384 0.0
H805 H 0.98268 0.44265 0.18391 0.0
C806 C 0.94485 0.46987 1.13897 0.0
C807 C 0.93123 0.48917 1.11476 0.0
C808 C 0.97502 0.48731 0.16927 0.0
C809 C 0.94163 0.52355 1.13099 0.0
C810 C 0.97269 0.54138 0.15964 0.0
C811 C 0.02483 0.53952 1.13871 0.0
C812 C 0.03788 0.51744 1.12273 0.0
C813 C -0.0069 0.52472 0.16551 0.0
C814 C 0.02679 0.48503 0.14678 0.0
C815 C -0.00465 0.47049 0.17405 0.0
H816 H 0.97316 0.43371 0.59563 0.0
H817 H -0.01163 0.41997 0.44437 0.0
H818 H 0.97608 0.46786 0.41978 0.0
H819 H 0.97886 0.52515 0.44855 0.0
H820 H -0.0009 0.55335 0.59915 0.0
H821 H -0.00817 0.49468 0.62199 0.0
C822 C 0.97316 0.44122 0.55715 0.0
C823 C -0.00906 0.43206 0.52263 0.0
C824 C 0.97636 0.4741 0.54703 0.0
C825 C 0.98252 0.43392 0.47257 0.0
C826 C 0.97696 0.46188 0.45863 0.0
C827 C 0.98136 0.51774 0.48616 0.0
C828 C 0.97611 0.53461 0.52665 0.0
C829 C 0.97785 0.48455 0.49623 0.0
C830 C -0.00725 0.53347 0.57088 0.0
C831 C -0.01271 0.50006 0.58427 0.0
H832 H 0.48267 0.90762 0.81748 0.0
H833 H 0.54745 0.92462 0.94691 0.0
H834 H 0.59193 0.98235 0.91487 0.0
H835 H 0.58551 0.03145 0.88984 0.0
H836 H 0.49164 0.01206 0.80812 0.0
H837 H 0.48642 0.95755 0.77492 0.0
C838 C 0.50686 0.92365 0.83777 0.0
C839 C 0.51052 0.91395 0.88589 0.0
C840 C 0.52676 0.95918 0.82546 0.0
C841 C 0.54332 0.93293 0.91071 0.0
C842 C 0.56853 0.96597 0.89216 0.0
C843 C 0.5645 0.01552 0.86379 0.0
C844 C 0.53681 0.02295 0.85553 0.0
C845 C 0.55689 0.98116 0.85561 0.0
C846 C 0.51168 0.005 0.81794 0.0
C847 C 0.50883 0.97385 0.79933 0.0
H848 H 0.48375 0.48832 0.2781 0.0
H849 H 0.52116 0.50911 1.12839 0.0
H850 H 0.46326 0.46072 1.09807 0.0
H851 H 0.4066 0.40755 1.12011 0.0
H852 H 0.37314 0.38557 0.26746 0.0
H853 H 0.41804 0.4461 0.29438 0.0
C854 C 0.47886 0.48203 0.2389 0.0
C855 C 0.50351 0.5048 0.20411 0.0
C856 C 0.44418 0.45914 0.22215 0.0
C857 C 0.50019 0.49356 0.15472 0.0
C858 C 0.46657 0.46808 1.1369 0.0
C859 C 0.40921 0.41721 0.15779 0.0
C860 C 0.3994 0.39283 0.19673 0.0
C861 C 0.43829 0.4506 0.1704 0.0
C862 C 0.39076 0.40449 0.24024 0.0
C863 C 0.41654 0.43865 0.25582 0.0
H864 H 0.31406 0.00488 0.76691 0.0
H865 H 0.26135 0.89732 0.71199 0.0
H866 H 0.26 0.91863 0.62864 0.0
H867 H 0.29098 0.96855 0.57053 0.0
H868 H 0.34578 0.07564 0.6267 0.0
H869 H 0.32809 0.05364 0.71095 0.0
C870 C 0.30052 0.98569 0.73756 0.0
C871 C 0.28969 0.94973 0.74511 0.0
C872 C 0.30099 -0.00178 0.68964 0.0
C873 C 0.27147 0.92541 0.70656 0.0
C874 C 0.27083 0.93759 0.65881 0.0
C875 C 0.29753 0.98706 0.60096 0.0
C876 C 0.32059 0.02349 0.59306 0.0
C877 C 0.28829 0.97414 0.64944 0.0
C878 C 0.32876 0.04737 0.63248 0.0
C879 C 0.31876 0.0348 0.68059 0.0
H880 H 0.30271 0.26999 1.08218 0.0
H881 H 0.35634 0.22495 1.00142 0.0
H882 H 0.34936 0.251 0.92442 0.0
H883 H 0.33558 0.29349 0.88341 0.0
H884 H 0.28456 0.34016 0.96661 0.0
H885 H 0.28281 0.30627 1.03982 0.0
C886 C 0.31161 0.26458 1.04749 0.0
C887 C 0.32991 0.24548 1.0474 0.0
C888 C 0.30865 0.28057 1.00416 0.0
C889 C 0.34217 0.2396 1.00227 0.0
C890 C 0.33841 0.25469 0.95843 0.0
C891 C 0.3234 0.29554 0.91733 0.0
C892 C 0.31058 0.31944 0.92012 0.0
C893 C 0.32293 0.27634 0.9594 0.0
C894 C 0.29511 0.32229 0.96415 0.0
C895 C 0.29395 0.30283 1.00582 0.0
H896 H 0.02299 0.3339 0.22745 0.0
H897 H 0.91378 0.27693 0.27834 0.0
H898 H 0.93341 0.26328 0.35646 0.0
H899 H 0.98245 0.27964 0.41564 0.0
H900 H 0.09174 0.34345 0.36713 0.0
H901 H 0.07141 0.3402 0.28191 0.0
C902 C 0.00343 0.31744 0.25498 0.0
C903 C 0.96721 0.30703 0.24803 0.0
C904 C 0.01503 0.31081 0.30021 0.0
C905 C 0.94196 0.28583 0.28377 0.0
C906 C 0.95314 0.27795 0.32822 0.0
C907 C 0.00176 0.29169 0.386 0.0
C908 C 0.03833 0.31254 0.39767 0.0
C909 C -0.01022 0.29207 0.33782 0.0
C910 C 0.06335 0.32737 0.35915 0.0
C911 C 0.05172 0.32609 0.31044 0.0
H912 H 0.7335 0.03198 0.74058 0.0
H913 H 0.63712 0.94373 0.79891 0.0
H914 H 0.62839 0.91071 0.72227 0.0
H915 H 0.63838 0.91496 0.63305 0.0
H916 H 0.72951 0.00723 0.5713 0.0
H917 H 0.75032 0.03089 0.65463 0.0
C918 C 0.71137 0.00498 0.73695 0.0
C919 C 0.68548 -0.00947 0.77433 0.0
C920 C 0.70513 0.9874 0.69161 0.0
C921 C 0.65725 0.95538 0.77028 0.0
C922 C 0.65198 0.93674 0.72619 0.0
C923 C 0.66365 0.93946 0.63799 0.0
C924 C 0.68221 0.9597 0.59648 0.0
C925 C 0.67426 0.95362 0.68557 0.0
C926 C 0.71468 -0.00844 0.60304 0.0
C927 C 0.72645 0.00508 0.65055 0.0
H928 H 0.66443 0.73078 1.00172 0.0
H929 H 0.55506 0.69379 1.04474 0.0
H930 H 0.53454 0.67282 0.96123 0.0
H931 H 0.54546 0.6488 0.88522 0.0
H932 H 0.65361 0.67795 0.84705 0.0
H933 H 0.67655 0.71749 0.91846 0.0
C934 C 0.63619 0.71885 0.9925 0.0
C935 C 0.61138 0.7128 1.03011 0.0
C936 C 0.62408 0.70418 0.94525 0.0
C937 C 0.57503 0.6987 1.01701 0.0
C938 C 0.56303 0.686 0.96919 0.0
C939 C 0.5741 0.66476 0.89186 0.0
C940 C 0.59776 0.65996 0.86184 0.0
C941 C 0.58696 0.68604 0.9344 0.0
C942 C 0.63486 0.68116 0.86981 0.0
C943 C 0.64798 0.70349 0.911 0.0
H944 H 0.01756 0.70729 0.25774 0.0
H945 H 0.9197 0.63332 0.18257 0.0
H946 H 0.88453 0.63868 0.24916 0.0
H947 H 0.88276 0.65237 0.33657 0.0
H948 H 0.98186 0.71672 0.4163 0.0
H949 H 0.01518 0.72943 0.33971 0.0
C950 C -0.0115 0.69295 0.25565 0.0
C951 C 0.97104 0.66919 0.21655 0.0
C952 C 0.96872 0.69478 0.29499 0.0
C953 C 0.93354 0.65144 0.21291 0.0
C954 C 0.91351 0.65442 0.25099 0.0
C955 C 0.91157 0.67002 0.33679 0.0
C956 C 0.92991 0.68223 0.38221 0.0
C957 C 0.93091 0.67426 0.29352 0.0
C958 C 0.96697 0.70642 0.38202 0.0
C959 C 0.98623 0.71318 0.33825 0.0
H960 H 0.49367 0.10112 0.60097 0.0
H961 H 0.5923 0.11362 0.54386 0.0
H962 H 0.61294 0.11294 0.62814 0.0
H963 H 0.6056 0.10965 0.7232 0.0
H964 H 0.50883 0.10123 0.78075 0.0
H965 H 0.48707 0.09956 0.69627 0.0
C966 C 0.51991 0.10394 0.60603 0.0
C967 C 0.54074 0.10774 0.56156 0.0
C968 C 0.53295 0.10433 0.65754 0.0
C969 C 0.57459 0.11104 0.57379 0.0
C970 C 0.58685 0.11055 0.62359 0.0
C971 C 0.57964 0.10748 0.71822 0.0
C972 C 0.55973 0.10571 0.76279 0.0
C973 C 0.56671 0.10738 0.66676 0.0
C974 C 0.52613 0.10302 0.75068 0.0
C975 C 0.51318 0.10198 0.70079 0.0
H976 H 0.48425 0.57902 0.87942 0.0
H977 H 0.37647 0.49422 0.90511 0.0
H978 H 0.38627 0.50371 0.99456 0.0
H979 H 0.4248 0.53604 1.07048 0.0
H980 H 0.53401 0.61799 1.04674 0.0
H981 H 0.52436 0.60879 0.95684 0.0
C982 C 0.46246 0.56236 0.90397 0.0
C983 C 0.42864 0.53558 0.88135 0.0
C984 C 0.46868 0.56757 0.95839 0.0
C985 C 0.40248 0.51505 0.91764 0.0
C986 C 0.40823 0.52061 0.97035 0.0
C987 C 0.44689 0.55255 1.04624 0.0
C988 C 0.48061 0.57879 1.06937 0.0
C989 C 0.44111 0.54688 0.99207 0.0
C990 C 0.50769 0.59816 1.03367 0.0
C991 C 0.50197 0.59284 0.9807 0.0
H992 H 0.88144 0.41105 0.25314 0.0
H993 H 0.83803 0.47161 0.18682 0.0
H994 H 0.83798 0.49638 0.26819 0.0
H995 H 0.84894 0.50204 0.36366 0.0
H996 H 0.89038 0.43925 0.42895 0.0
H997 H 0.89202 0.41632 0.34751 0.0
C998 C 0.87157 0.42947 0.25553 0.0
C999 C 0.8592 0.438 0.20955 0.0
C1000 C 0.87116 0.44426 0.30512 0.0
C1001 C 0.84737 0.46285 0.21824 0.0
C1002 C 0.84745 0.47762 0.26632 0.0
C1003 C 0.85871 0.48356 0.36104 0.0
C1004 C 0.86972 0.47359 0.40721 0.0
C1005 C 0.85912 0.46883 0.31112 0.0
C1006 C 0.88144 0.44869 0.39781 0.0
C1007 C 0.88244 0.43499 0.34961 0.0
H1008 H 0.49356 0.8508 0.60445 0.0
H1009 H 0.41029 0.86642 0.54191 0.0
H1010 H 0.3906 0.87004 0.62525 0.0
H1011 H 0.39499 0.86897 0.72046 0.0
H1012 H 0.47099 0.84305 0.78357 0.0
H1013 H 0.49349 0.84307 0.70016 0.0
C1014 C 0.47096 0.85495 0.60813 0.0
C1015 C 0.45476 0.85919 0.56246 0.0
C1016 C 0.45749 0.85494 0.65893 0.0
C1017 C 0.42486 0.86365 0.57284 0.0
C1018 C 0.41306 0.86559 0.62203 0.0
C1019 C 0.41628 0.86281 0.71688 0.0
C1020 C 0.43037 0.85587 0.7625 0.0
C1021 C 0.42879 0.86128 0.66623 0.0
C1022 C 0.45821 0.84819 0.75245 0.0
C1023 C 0.47162 0.8484 0.70329 0.0
H1024 H 0.53321 0.45313 0.91651 0.0
H1025 H 0.53216 0.35844 0.86903 0.0
H1026 H 0.5127 0.33281 0.952 0.0
H1027 H 0.49642 0.33594 1.04356 0.0
H1028 H 0.50125 0.43249 1.09076 0.0
H1029 H 0.51777 0.45661 1.00718 0.0
C1030 C 0.5289 0.42677 0.92345 0.0
C1031 C 0.53511 0.40867 0.88255 0.0
C1032 C 0.5176 0.4115 0.97379 0.0
C1033 C 0.52862 0.37437 0.89662 0.0
C1034 C 0.51705 0.35922 0.94548 0.0
C1035 C 0.50012 0.362 1.03611 0.0
C1036 C 0.49528 0.38094 1.07727 0.0
C1037 C 0.51127 0.37716 0.98537 0.0
C1038 C 0.50271 0.41554 1.0628 0.0
C1039 C 0.51286 0.42998 1.01364 0.0
H1040 H 0.12242 0.49116 0.36478 0.0
H1041 H 0.08448 0.55649 0.42954 0.0
H1042 H 0.08348 0.58019 0.34827 0.0
H1043 H 0.09358 0.58565 0.25405 0.0
H1044 H 0.13321 0.52248 0.18774 0.0
H1045 H 0.13279 0.49691 0.26906 0.0
C1046 C 0.11362 0.51042 0.36217 0.0
C1047 C 0.10343 0.52079 0.4084 0.0
C1048 C 0.1135 0.52564 0.3121 0.0
C1049 C 0.09283 0.54663 0.39864 0.0
C1050 C 0.09218 0.56082 0.35043 0.0
C1051 C 0.10254 0.56649 0.25637 0.0
C1052 C 0.11402 0.55756 0.2103 0.0
C1053 C 0.10264 0.55116 0.30598 0.0
C1054 C 0.12462 0.53168 0.21911 0.0
C1055 C 0.12427 0.51642 0.26723 0.0
loop_
_geom_bond_atom_site_label_1
_geom_bond_atom_site_label_2
_geom_bond_distance
_geom_bond_site_symmetry_2
_ccdc_geom_bond_type
Gd0 C3 2.818 . S
Gd0 O20 2.377 . S
Gd0 O22 2.448 . S
Gd0 O23 2.506 . S
Gd0 O24 2.435 . S
Gd0 O25 2.717 . S
Gd0 O27 2.395 . S
Gd0 O31 2.327 . S
Gd1 C12 2.818 . S
Gd1 O21 2.395 . S
Gd1 O25 2.327 . S
Gd1 O26 2.377 . S
Gd1 O28 2.448 . S
Gd1 O29 2.506 . S
Gd1 O30 2.435 . S
Gd1 O31 2.717 . S
C2 O20 1.240 . S
C2 O21 1.240 . S
C3 Gd0 2.818 . S
C3 C4 1.510 . S
C3 O22 1.249 . S
C3 O23 1.252 . S
C4 C3 1.510 . S
C4 C5 1.404 . S
C4 C6 1.352 . S
C5 C4 1.404 . S
C5 C9 1.389 . S
C5 H32 0.930 . S
C6 C4 1.352 . S
C6 C8 1.374 . S
C6 H33 0.931 . S
C7 C8 1.359 . S
C7 C9 1.364 . S
C8 C6 1.374 . S
C8 C7 1.359 . S
C8 H34 0.931 . S
C9 C5 1.389 . S
C9 C7 1.364 . S
C9 H35 0.931 . S
C10 O24 1.256 . S
C10 O25 1.257 . S
C11 O26 1.240 . S
C11 O27 1.240 . S
C12 Gd1 2.818 . S
C12 C13 1.510 . S
C12 O28 1.249 . S
C12 O29 1.252 . S
C13 C12 1.510 . S
C13 C14 1.404 . S
C13 C15 1.352 . S
C14 C13 1.404 . S
C14 C18 1.389 . S
C14 H36 0.930 . S
C15 C13 1.352 . S
C15 C17 1.374 . S
C15 H37 0.931 . S
C16 C17 1.359 . S
C16 C18 1.364 . S
C17 C15 1.374 . S
C17 C16 1.359 . S
C17 H38 0.931 . S
C18 C14 1.389 . S
C18 C16 1.364 . S
C18 H39 0.931 . S
C19 O30 1.256 . S
C19 O31 1.257 . S
O20 Gd0 2.377 . S
O20 C2 1.240 . S
O21 Gd1 2.395 . S
O21 C2 1.240 . S
O22 Gd0 2.448 . S
O22 C3 1.249 . S
O23 Gd0 2.506 . S
O23 C3 1.252 . S
O24 Gd0 2.435 . S
O24 C10 1.256 . S
O25 Gd0 2.717 . S
O25 Gd1 2.327 . S
O25 C10 1.257 . S
O26 Gd1 2.377 . S
O26 C11 1.240 . S
O27 Gd0 2.395 . S
O27 C11 1.240 . S
O28 Gd1 2.448 . S
O28 C12 1.249 . S
O29 Gd1 2.506 . S
O29 C12 1.252 . S
O30 Gd1 2.435 . S
O30 C19 1.256 . S
O31 Gd0 2.327 . S
O31 Gd1 2.717 . S
O31 C19 1.257 . S
H32 C5 0.930 . S
H33 C6 0.931 . S
H34 C8 0.931 . S
H35 C9 0.931 . S
H36 C14 0.930 . S
H37 C15 0.931 . S
H38 C17 0.931 . S
H39 C18 0.931 . S
Gd40 C43 2.818 . S
Gd40 O60 2.377 . S
Gd40 O62 2.448 . S
Gd40 O63 2.506 . S
Gd40 O64 2.435 . S
Gd40 O65 2.717 . S
Gd40 O67 2.395 . S
Gd40 O71 2.327 . S
Gd41 C52 2.818 . S
Gd41 O61 2.395 . S
Gd41 O65 2.327 . S
Gd41 O66 2.377 . S
Gd41 O68 2.448 . S
Gd41 O69 2.506 . S
Gd41 O70 2.435 . S
Gd41 O71 2.717 . S
C42 O60 1.240 . S
C42 O61 1.240 . S
C43 Gd40 2.818 . S
C43 C44 1.510 . S
C43 O62 1.249 . S
C43 O63 1.252 . S
C44 C43 1.510 . S
C44 C45 1.404 . S
C44 C46 1.352 . S
C45 C44 1.404 . S
C45 C49 1.389 . S
C45 H72 0.930 . S
C46 C44 1.352 . S
C46 C48 1.374 . S
C46 H73 0.931 . S
C47 C48 1.359 . S
C47 C49 1.364 . S
C48 C46 1.374 . S
C48 C47 1.359 . S
C48 H74 0.931 . S
C49 C45 1.389 . S
C49 C47 1.364 . S
C49 H75 0.931 . S
C50 O64 1.256 . S
C50 O65 1.257 . S
C51 O66 1.240 . S
C51 O67 1.240 . S
C52 Gd41 2.818 . S
C52 C53 1.510 . S
C52 O68 1.249 . S
C52 O69 1.252 . S
C53 C52 1.510 . S
C53 C54 1.404 . S
C53 C55 1.352 . S
C54 C53 1.404 . S
C54 C58 1.389 . S
C54 H76 0.930 . S
C55 C53 1.352 . S
C55 C57 1.374 . S
C55 H77 0.931 . S
C56 C57 1.359 . S
C56 C58 1.364 . S
C57 C55 1.374 . S
C57 C56 1.359 . S
C57 H78 0.931 . S
C58 C54 1.389 . S
C58 C56 1.364 . S
C58 H79 0.931 . S
C59 O70 1.256 . S
C59 O71 1.257 . S
O60 Gd40 2.377 . S
O60 C42 1.240 . S
O61 Gd41 2.395 . S
O61 C42 1.240 . S
O62 Gd40 2.448 . S
O62 C43 1.249 . S
O63 Gd40 2.506 . S
O63 C43 1.252 . S
O64 Gd40 2.435 . S
O64 C50 1.256 . S
O65 Gd40 2.717 . S
O65 Gd41 2.327 . S
O65 C50 1.257 . S
O66 Gd41 2.377 . S
O66 C51 1.240 . S
O67 Gd40 2.395 . S
O67 C51 1.240 . S
O68 Gd41 2.448 . S
O68 C52 1.249 . S
O69 Gd41 2.506 . S
O69 C52 1.252 . S
O70 Gd41 2.435 . S
O70 C59 1.256 . S
O71 Gd40 2.327 . S
O71 Gd41 2.717 . S
O71 C59 1.257 . S
H72 C45 0.930 . S
H73 C46 0.931 . S
H74 C48 0.931 . S
H75 C49 0.931 . S
H76 C54 0.930 . S
H77 C55 0.931 . S
H78 C57 0.931 . S
H79 C58 0.931 . S
Gd80 C83 2.818 1_556 S
Gd80 O100 2.377 . S
Gd80 O102 2.448 . S
Gd80 O103 2.503 . S
Gd80 O104 2.435 . S
Gd80 O105 2.717 . S
Gd80 O107 2.395 . S
Gd80 O111 2.327 . S
Gd81 C92 2.818 . S
Gd81 O101 2.395 . S
Gd81 O105 2.327 . S
Gd81 O106 2.377 . S
Gd81 O108 2.448 . S
Gd81 O109 2.506 . S
Gd81 O110 2.435 . S
Gd81 O111 2.717 . S
C82 O100 1.240 . S
C82 O101 1.240 . S
C83 Gd80 2.818 1_554 S
C83 C84 1.510 . S
C83 O102 1.249 1_554 S
C83 O103 1.253 1_554 S
C84 C83 1.510 . S
C84 C85 1.404 . S
C84 C86 1.352 . S
C85 C84 1.404 . S
C85 C89 1.389 . S
C85 H112 0.930 . S
C86 C84 1.352 . S
C86 C88 1.374 . S
C86 H113 0.931 . S
C87 C88 1.359 . S
C87 C89 1.364 . S
C88 C86 1.374 . S
C88 C87 1.359 . S
C88 H114 0.931 . S
C89 C85 1.389 . S
C89 C87 1.364 . S
C89 H115 0.931 . S
C90 O104 1.256 . S
C90 O105 1.257 . S
C91 O106 1.240 . S
C91 O107 1.240 . S
C92 Gd81 2.818 . S
C92 C93 1.510 . S
C92 O108 1.249 . S
C92 O109 1.252 . S
C93 C92 1.510 . S
C93 C94 1.404 . S
C93 C95 1.352 . S
C94 C93 1.404 . S
C94 C98 1.389 . S
C94 H116 0.930 . S
C95 C93 1.352 . S
C95 C97 1.374 . S
C95 H117 0.931 . S
C96 C97 1.359 . S
C96 C98 1.364 . S
C97 C95 1.374 . S
C97 C96 1.359 . S
C97 H118 0.931 . S
C98 C94 1.389 . S
C98 C96 1.364 . S
C98 H119 0.931 . S
C99 O110 1.256 . S
C99 O111 1.257 . S
O100 Gd80 2.377 . S
O100 C82 1.240 . S
O101 Gd81 2.395 . S
O101 C82 1.240 . S
O102 Gd80 2.448 . S
O102 C83 1.249 1_556 S
O103 Gd80 2.503 . S
O103 C83 1.253 1_556 S
O104 Gd80 2.435 . S
O104 C90 1.256 . S
O105 Gd80 2.717 . S
O105 Gd81 2.327 . S
O105 C90 1.257 . S
O106 Gd81 2.377 . S
O106 C91 1.240 . S
O107 Gd80 2.395 . S
O107 C91 1.240 . S
O108 Gd81 2.448 . S
O108 C92 1.249 . S
O109 Gd81 2.506 . S
O109 C92 1.252 . S
O110 Gd81 2.435 . S
O110 C99 1.256 . S
O111 Gd80 2.327 . S
O111 Gd81 2.717 . S
O111 C99 1.257 . S
H112 C85 0.930 . S
H113 C86 0.931 . S
H114 C88 0.931 . S
H115 C89 0.931 . S
H116 C94 0.930 . S
H117 C95 0.931 . S
H118 C97 0.931 . S
H119 C98 0.931 . S
Gd120 C123 2.818 . S
Gd120 O140 2.377 . S
Gd120 O142 2.448 . S
Gd120 O143 2.506 . S
Gd120 O144 2.435 . S
Gd120 O145 2.717 . S
Gd120 O147 2.395 . S
Gd120 O151 2.327 . S
Gd121 C132 2.818 . S
Gd121 O141 2.395 . S
Gd121 O145 2.327 . S
Gd121 O146 2.377 . S
Gd121 O148 2.448 . S
Gd121 O149 2.506 . S
Gd121 O150 2.435 . S
Gd121 O151 2.717 . S
C122 O140 1.240 . S
C122 O141 1.240 . S
C123 Gd120 2.818 . S
C123 C124 1.510 . S
C123 O142 1.249 . S
C123 O143 1.252 . S
C124 C123 1.510 . S
C124 C125 1.404 . S
C124 C126 1.352 . S
C125 C124 1.404 . S
C125 C129 1.389 . S
C125 H152 0.930 . S
C126 C124 1.352 . S
C126 C128 1.374 . S
C126 H153 0.931 . S
C127 C128 1.359 . S
C127 C129 1.364 . S
C128 C126 1.374 . S
C128 C127 1.359 . S
C128 H154 0.931 . S
C129 C125 1.389 . S
C129 C127 1.364 . S
C129 H155 0.931 . S
C130 O144 1.256 . S
C130 O145 1.257 . S
C131 O146 1.240 . S
C131 O147 1.240 . S
C132 Gd121 2.818 . S
C132 C133 1.510 . S
C132 O148 1.249 . S
C132 O149 1.252 . S
C133 C132 1.510 . S
C133 C134 1.404 . S
C133 C135 1.352 . S
C134 C133 1.404 . S
C134 C138 1.389 . S
C134 H156 0.930 . S
C135 C133 1.352 . S
C135 C137 1.374 . S
C135 H157 0.931 . S
C136 C137 1.359 . S
C136 C138 1.364 . S
C137 C135 1.374 . S
C137 C136 1.359 . S
C137 H158 0.931 . S
C138 C134 1.389 . S
C138 C136 1.364 . S
C138 H159 0.931 . S
C139 O150 1.256 . S
C139 O151 1.257 . S
O140 Gd120 2.377 . S
O140 C122 1.240 . S
O141 Gd121 2.395 . S
O141 C122 1.240 . S
O142 Gd120 2.448 . S
O142 C123 1.249 . S
O143 Gd120 2.506 . S
O143 C123 1.252 . S
O144 Gd120 2.435 . S
O144 C130 1.256 . S
O145 Gd120 2.717 . S
O145 Gd121 2.327 . S
O145 C130 1.257 . S
O146 Gd121 2.377 . S
O146 C131 1.240 . S
O147 Gd120 2.395 . S
O147 C131 1.240 . S
O148 Gd121 2.448 . S
O148 C132 1.249 . S
O149 Gd121 2.506 . S
O149 C132 1.252 . S
O150 Gd121 2.435 . S
O150 C139 1.256 . S
O151 Gd120 2.327 . S
O151 Gd121 2.717 . S
O151 C139 1.257 . S
H152 C125 0.930 . S
H153 C126 0.931 . S
H154 C128 0.931 . S
H155 C129 0.931 . S
H156 C134 0.930 . S
H157 C135 0.931 . S
H158 C137 0.931 . S
H159 C138 0.931 . S
Gd160 C163 2.818 . S
Gd160 O180 2.377 . S
Gd160 O182 2.448 . S
Gd160 O183 2.506 . S
Gd160 O184 2.435 . S
Gd160 O185 2.717 . S
Gd160 O187 2.395 . S
Gd160 O191 2.327 . S
Gd161 C172 2.818 . S
Gd161 O181 2.395 . S
Gd161 O185 2.327 . S
Gd161 O186 2.377 . S
Gd161 O188 2.448 . S
Gd161 O189 2.506 . S
Gd161 O190 2.435 . S
Gd161 O191 2.717 . S
C162 O180 1.240 . S
C162 O181 1.240 . S
C163 Gd160 2.818 . S
C163 C164 1.510 . S
C163 O182 1.249 . S
C163 O183 1.252 . S
C164 C163 1.510 . S
C164 C165 1.404 . S
C164 C166 1.352 . S
C165 C164 1.404 . S
C165 C169 1.389 . S
C165 H192 0.930 . S
C166 C164 1.352 . S
C166 C168 1.374 . S
C166 H193 0.931 . S
C167 C168 1.359 . S
C167 C169 1.364 . S
C168 C166 1.374 . S
C168 C167 1.359 . S
C168 H194 0.931 . S
C169 C165 1.389 . S
C169 C167 1.364 . S
C169 H195 0.931 . S
C170 O184 1.256 . S
C170 O185 1.257 . S
C171 O186 1.240 . S
C171 O187 1.240 . S
C172 Gd161 2.818 . S
C172 C173 1.510 . S
C172 O188 1.249 . S
C172 O189 1.252 . S
C173 C172 1.510 . S
C173 C174 1.404 . S
C173 C175 1.352 . S
C174 C173 1.404 . S
C174 C178 1.389 . S
C174 H196 0.930 . S
C175 C173 1.352 . S
C175 C177 1.374 . S
C175 H197 0.931 . S
C176 C177 1.359 . S
C176 C178 1.364 . S
C177 C175 1.374 . S
C177 C176 1.359 . S
C177 H198 0.931 . S
C178 C174 1.389 . S
C178 C176 1.364 . S
C178 H199 0.931 . S
C179 O190 1.256 . S
C179 O191 1.257 . S
O180 Gd160 2.377 . S
O180 C162 1.240 . S
O181 Gd161 2.395 . S
O181 C162 1.240 . S
O182 Gd160 2.448 . S
O182 C163 1.249 . S
O183 Gd160 2.506 . S
O183 C163 1.252 . S
O184 Gd160 2.435 . S
O184 C170 1.256 . S
O185 Gd160 2.717 . S
O185 Gd161 2.327 . S
O185 C170 1.257 . S
O186 Gd161 2.377 . S
O186 C171 1.240 . S
O187 Gd160 2.395 . S
O187 C171 1.240 . S
O188 Gd161 2.448 . S
O188 C172 1.249 . S
O189 Gd161 2.506 . S
O189 C172 1.252 . S
O190 Gd161 2.435 . S
O190 C179 1.256 . S
O191 Gd160 2.327 . S
O191 Gd161 2.717 . S
O191 C179 1.257 . S
H192 C165 0.930 . S
H193 C166 0.931 . S
H194 C168 0.931 . S
H195 C169 0.931 . S
H196 C174 0.930 . S
H197 C175 0.931 . S
H198 C177 0.931 . S
H199 C178 0.931 . S
Gd200 C203 2.818 1_556 S
Gd200 O220 2.377 . S
Gd200 O222 2.448 . S
Gd200 O223 2.503 . S
Gd200 O224 2.435 . S
Gd200 O225 2.717 . S
Gd200 O227 2.395 . S
Gd200 O231 2.327 . S
Gd201 C212 2.818 . S
Gd201 O221 2.395 . S
Gd201 O225 2.327 . S
Gd201 O226 2.377 . S
Gd201 O228 2.448 . S
Gd201 O229 2.506 . S
Gd201 O230 2.435 . S
Gd201 O231 2.717 . S
C202 O220 1.240 . S
C202 O221 1.240 . S
C203 Gd200 2.818 1_554 S
C203 C204 1.510 . S
C203 O222 1.249 1_554 S
C203 O223 1.253 1_554 S
C204 C203 1.510 . S
C204 C205 1.404 . S
C204 C206 1.352 . S
C205 C204 1.404 . S
C205 C209 1.389 . S
C205 H232 0.930 . S
C206 C204 1.352 . S
C206 C208 1.374 . S
C206 H233 0.931 . S
C207 C208 1.359 . S
C207 C209 1.364 . S
C208 C206 1.374 . S
C208 C207 1.359 . S
C208 H234 0.931 . S
C209 C205 1.389 . S
C209 C207 1.364 . S
C209 H235 0.931 . S
C210 O224 1.256 . S
C210 O225 1.257 . S
C211 O226 1.240 . S
C211 O227 1.240 . S
C212 Gd201 2.818 . S
C212 C213 1.510 . S
C212 O228 1.249 . S
C212 O229 1.252 . S
C213 C212 1.510 . S
C213 C214 1.404 . S
C213 C215 1.352 . S
C214 C213 1.404 . S
C214 C218 1.389 . S
C214 H236 0.930 . S
C215 C213 1.352 . S
C215 C217 1.374 . S
C215 H237 0.931 . S
C216 C217 1.359 . S
C216 C218 1.364 . S
C217 C215 1.374 . S
C217 C216 1.359 . S
C217 H238 0.931 . S
C218 C214 1.389 . S
C218 C216 1.364 . S
C218 H239 0.931 . S
C219 O230 1.256 . S
C219 O231 1.257 . S
O220 Gd200 2.377 . S
O220 C202 1.240 . S
O221 Gd201 2.395 . S
O221 C202 1.240 . S
O222 Gd200 2.448 . S
O222 C203 1.249 1_556 S
O223 Gd200 2.503 . S
O223 C203 1.253 1_556 S
O224 Gd200 2.435 . S
O224 C210 1.256 . S
O225 Gd200 2.717 . S
O225 Gd201 2.327 . S
O225 C210 1.257 . S
O226 Gd201 2.377 . S
O226 C211 1.240 . S
O227 Gd200 2.395 . S
O227 C211 1.240 . S
O228 Gd201 2.448 . S
O228 C212 1.249 . S
O229 Gd201 2.506 . S
O229 C212 1.252 . S
O230 Gd201 2.435 . S
O230 C219 1.256 . S
O231 Gd200 2.327 . S
O231 Gd201 2.717 . S
O231 C219 1.257 . S
H232 C205 0.930 . S
H233 C206 0.931 . S
H234 C208 0.931 . S
H235 C209 0.931 . S
H236 C214 0.930 . S
H237 C215 0.931 . S
H238 C217 0.931 . S
H239 C218 0.931 . S
Gd240 C243 2.818 . S
Gd240 O260 2.377 . S
Gd240 O262 2.448 . S
Gd240 O263 2.506 . S
Gd240 O264 2.435 . S
Gd240 O265 2.717 . S
Gd240 O267 2.395 . S
Gd240 O271 2.327 . S
Gd241 C252 2.818 . S
Gd241 O261 2.395 . S
Gd241 O265 2.327 . S
Gd241 O266 2.377 . S
Gd241 O268 2.448 . S
Gd241 O269 2.506 . S
Gd241 O270 2.435 . S
Gd241 O271 2.717 . S
C242 O260 1.240 . S
C242 O261 1.240 . S
C243 Gd240 2.818 . S
C243 C244 1.510 . S
C243 O262 1.249 . S
C243 O263 1.252 . S
C244 C243 1.510 . S
C244 C245 1.404 . S
C244 C246 1.352 . S
C245 C244 1.404 . S
C245 C249 1.389 . S
C245 H272 0.930 . S
C246 C244 1.352 . S
C246 C248 1.374 . S
C246 H273 0.931 . S
C247 C248 1.359 . S
C247 C249 1.364 . S
C248 C246 1.374 . S
C248 C247 1.359 . S
C248 H274 0.931 . S
C249 C245 1.389 . S
C249 C247 1.364 . S
C249 H275 0.931 . S
C250 O264 1.256 . S
C250 O265 1.257 . S
C251 O266 1.240 . S
C251 O267 1.240 . S
C252 Gd241 2.818 . S
C252 C253 1.510 . S
C252 O268 1.249 . S
C252 O269 1.252 . S
C253 C252 1.510 . S
C253 C254 1.404 . S
C253 C255 1.352 . S
C254 C253 1.404 . S
C254 C258 1.389 . S
C254 H276 0.930 . S
C255 C253 1.352 . S
C255 C257 1.374 . S
C255 H277 0.931 . S
C256 C257 1.359 . S
C256 C258 1.364 . S
C257 C255 1.374 . S
C257 C256 1.359 . S
C257 H278 0.931 . S
C258 C254 1.389 . S
C258 C256 1.364 . S
C258 H279 0.931 . S
C259 O270 1.256 . S
C259 O271 1.257 . S
O260 Gd240 2.377 . S
O260 C242 1.240 . S
O261 Gd241 2.395 . S
O261 C242 1.240 . S
O262 Gd240 2.448 . S
O262 C243 1.249 . S
O263 Gd240 2.506 . S
O263 C243 1.252 . S
O264 Gd240 2.435 . S
O264 C250 1.256 . S
O265 Gd240 2.717 . S
O265 Gd241 2.327 . S
O265 C250 1.257 . S
O266 Gd241 2.377 . S
O266 C251 1.240 . S
O267 Gd240 2.395 . S
O267 C251 1.240 . S
O268 Gd241 2.448 . S
O268 C252 1.249 . S
O269 Gd241 2.506 . S
O269 C252 1.252 . S
O270 Gd241 2.435 . S
O270 C259 1.256 . S
O271 Gd240 2.327 . S
O271 Gd241 2.717 . S
O271 C259 1.257 . S
H272 C245 0.930 . S
H273 C246 0.931 . S
H274 C248 0.931 . S
H275 C249 0.931 . S
H276 C254 0.930 . S
H277 C255 0.931 . S
H278 C257 0.931 . S
H279 C258 0.931 . S
Gd280 C283 2.818 . S
Gd280 O300 2.377 . S
Gd280 O302 2.448 . S
Gd280 O303 2.506 . S
Gd280 O304 2.435 . S
Gd280 O305 2.717 . S
Gd280 O307 2.395 . S
Gd280 O311 2.327 . S
Gd281 C292 2.818 . S
Gd281 O301 2.395 . S
Gd281 O305 2.327 . S
Gd281 O306 2.377 . S
Gd281 O308 2.448 . S
Gd281 O309 2.506 . S
Gd281 O310 2.435 . S
Gd281 O311 2.717 . S
C282 O300 1.240 . S
C282 O301 1.240 . S
C283 Gd280 2.818 . S
C283 C284 1.510 . S
C283 O302 1.249 . S
C283 O303 1.252 . S
C284 C283 1.510 . S
C284 C285 1.404 . S
C284 C286 1.352 . S
C285 C284 1.404 . S
C285 C289 1.389 . S
C285 H312 0.930 . S
C286 C284 1.352 . S
C286 C288 1.374 . S
C286 H313 0.931 . S
C287 C288 1.359 . S
C287 C289 1.364 . S
C288 C286 1.374 . S
C288 C287 1.359 . S
C288 H314 0.931 . S
C289 C285 1.389 . S
C289 C287 1.364 . S
C289 H315 0.931 . S
C290 O304 1.256 . S
C290 O305 1.257 . S
C291 O306 1.240 . S
C291 O307 1.240 . S
C292 Gd281 2.818 . S
C292 C293 1.510 . S
C292 O308 1.249 . S
C292 O309 1.252 . S
C293 C292 1.510 . S
C293 C294 1.404 . S
C293 C295 1.352 . S
C294 C293 1.404 . S
C294 C298 1.389 . S
C294 H316 0.930 . S
C295 C293 1.352 . S
C295 C297 1.374 . S
C295 H317 0.931 . S
C296 C297 1.359 . S
C296 C298 1.364 . S
C297 C295 1.374 . S
C297 C296 1.359 . S
C297 H318 0.931 . S
C298 C294 1.389 . S
C298 C296 1.364 . S
C298 H319 0.931 . S
C299 O310 1.256 . S
C299 O311 1.257 . S
O300 Gd280 2.377 . S
O300 C282 1.240 . S
O301 Gd281 2.395 . S
O301 C282 1.240 . S
O302 Gd280 2.448 . S
O302 C283 1.249 . S
O303 Gd280 2.506 . S
O303 C283 1.252 . S
O304 Gd280 2.435 . S
O304 C290 1.256 . S
O305 Gd280 2.717 . S
O305 Gd281 2.327 . S
O305 C290 1.257 . S
O306 Gd281 2.377 . S
O306 C291 1.240 . S
O307 Gd280 2.395 . S
O307 C291 1.240 . S
O308 Gd281 2.448 . S
O308 C292 1.249 . S
O309 Gd281 2.506 . S
O309 C292 1.252 . S
O310 Gd281 2.435 . S
O310 C299 1.256 . S
O311 Gd280 2.327 . S
O311 Gd281 2.717 . S
O311 C299 1.257 . S
H312 C285 0.930 . S
H313 C286 0.931 . S
H314 C288 0.931 . S
H315 C289 0.931 . S
H316 C294 0.930 . S
H317 C295 0.931 . S
H318 C297 0.931 . S
H319 C298 0.931 . S
Gd320 C323 2.818 1_554 S
Gd320 O340 2.377 . S
Gd320 O342 2.448 . S
Gd320 O343 2.503 . S
Gd320 O344 2.435 . S
Gd320 O345 2.717 . S
Gd320 O347 2.395 . S
Gd320 O351 2.327 . S
Gd321 C332 2.818 . S
Gd321 O341 2.395 . S
Gd321 O345 2.327 . S
Gd321 O346 2.377 . S
Gd321 O348 2.448 . S
Gd321 O349 2.506 . S
Gd321 O350 2.435 . S
Gd321 O351 2.717 . S
C322 O340 1.240 . S
C322 O341 1.240 . S
C323 Gd320 2.818 1_556 S
C323 C324 1.510 . S
C323 O342 1.249 1_556 S
C323 O343 1.253 1_556 S
C324 C323 1.510 . S
C324 C325 1.404 . S
C324 C326 1.352 . S
C325 C324 1.404 . S
C325 C329 1.389 . S
C325 H352 0.930 . S
C326 C324 1.352 . S
C326 C328 1.374 . S
C326 H353 0.931 . S
C327 C328 1.359 . S
C327 C329 1.364 . S
C328 C326 1.374 . S
C328 C327 1.359 . S
C328 H354 0.931 . S
C329 C325 1.389 . S
C329 C327 1.364 . S
C329 H355 0.931 . S
C330 O344 1.256 . S
C330 O345 1.257 . S
C331 O346 1.240 . S
C331 O347 1.240 . S
C332 Gd321 2.818 . S
C332 C333 1.510 . S
C332 O348 1.249 . S
C332 O349 1.252 . S
C333 C332 1.510 . S
C333 C334 1.404 . S
C333 C335 1.352 . S
C334 C333 1.404 . S
C334 C338 1.389 . S
C334 H356 0.930 . S
C335 C333 1.352 . S
C335 C337 1.374 . S
C335 H357 0.931 . S
C336 C337 1.359 . S
C336 C338 1.364 . S
C337 C335 1.374 . S
C337 C336 1.359 . S
C337 H358 0.931 . S
C338 C334 1.389 . S
C338 C336 1.364 . S
C338 H359 0.931 . S
C339 O350 1.256 . S
C339 O351 1.257 . S
O340 Gd320 2.377 . S
O340 C322 1.240 . S
O341 Gd321 2.395 . S
O341 C322 1.240 . S
O342 Gd320 2.448 . S
O342 C323 1.249 1_554 S
O343 Gd320 2.503 . S
O343 C323 1.253 1_554 S
O344 Gd320 2.435 . S
O344 C330 1.256 . S
O345 Gd320 2.717 . S
O345 Gd321 2.327 . S
O345 C330 1.257 . S
O346 Gd321 2.377 . S
O346 C331 1.240 . S
O347 Gd320 2.395 . S
O347 C331 1.240 . S
O348 Gd321 2.448 . S
O348 C332 1.249 . S
O349 Gd321 2.506 . S
O349 C332 1.252 . S
O350 Gd321 2.435 . S
O350 C339 1.256 . S
O351 Gd320 2.327 . S
O351 Gd321 2.717 . S
O351 C339 1.257 . S
H352 C325 0.930 . S
H353 C326 0.931 . S
H354 C328 0.931 . S
H355 C329 0.931 . S
H356 C334 0.930 . S
H357 C335 0.931 . S
H358 C337 0.931 . S
H359 C338 0.931 . S
Gd360 C363 2.818 . S
Gd360 O380 2.377 . S
Gd360 O382 2.448 . S
Gd360 O383 2.506 . S
Gd360 O384 2.435 . S
Gd360 O385 2.717 . S
Gd360 O387 2.395 . S
Gd360 O391 2.327 . S
Gd361 C372 2.818 . S
Gd361 O381 2.395 . S
Gd361 O385 2.327 . S
Gd361 O386 2.377 . S
Gd361 O388 2.448 . S
Gd361 O389 2.506 . S
Gd361 O390 2.435 . S
Gd361 O391 2.717 . S
C362 O380 1.240 . S
C362 O381 1.240 . S
C363 Gd360 2.818 . S
C363 C364 1.510 . S
C363 O382 1.249 . S
C363 O383 1.252 . S
C364 C363 1.510 . S
C364 C365 1.404 . S
C364 C366 1.352 . S
C365 C364 1.404 . S
C365 C369 1.389 . S
C365 H392 0.930 . S
C366 C364 1.352 . S
C366 C368 1.374 . S
C366 H393 0.931 . S
C367 C368 1.359 . S
C367 C369 1.364 . S
C368 C366 1.374 . S
C368 C367 1.359 . S
C368 H394 0.931 . S
C369 C365 1.389 . S
C369 C367 1.364 . S
C369 H395 0.931 . S
C370 O384 1.256 . S
C370 O385 1.257 . S
C371 O386 1.240 . S
C371 O387 1.240 . S
C372 Gd361 2.818 . S
C372 C373 1.510 . S
C372 O388 1.249 . S
C372 O389 1.252 . S
C373 C372 1.510 . S
C373 C374 1.404 . S
C373 C375 1.352 . S
C374 C373 1.404 . S
C374 C378 1.389 . S
C374 H396 0.930 . S
C375 C373 1.352 . S
C375 C377 1.374 . S
C375 H397 0.931 . S
C376 C377 1.359 . S
C376 C378 1.364 . S
C377 C375 1.374 . S
C377 C376 1.359 . S
C377 H398 0.931 . S
C378 C374 1.389 . S
C378 C376 1.364 . S
C378 H399 0.931 . S
C379 O390 1.256 . S
C379 O391 1.257 . S
O380 Gd360 2.377 . S
O380 C362 1.240 . S
O381 Gd361 2.395 . S
O381 C362 1.240 . S
O382 Gd360 2.448 . S
O382 C363 1.249 . S
O383 Gd360 2.506 . S
O383 C363 1.252 . S
O384 Gd360 2.435 . S
O384 C370 1.256 . S
O385 Gd360 2.717 . S
O385 Gd361 2.327 . S
O385 C370 1.257 . S
O386 Gd361 2.377 . S
O386 C371 1.240 . S
O387 Gd360 2.395 . S
O387 C371 1.240 . S
O388 Gd361 2.448 . S
O388 C372 1.249 . S
O389 Gd361 2.506 . S
O389 C372 1.252 . S
O390 Gd361 2.435 . S
O390 C379 1.256 . S
O391 Gd360 2.327 . S
O391 Gd361 2.717 . S
O391 C379 1.257 . S
H392 C365 0.930 . S
H393 C366 0.931 . S
H394 C368 0.931 . S
H395 C369 0.931 . S
H396 C374 0.930 . S
H397 C375 0.931 . S
H398 C377 0.931 . S
H399 C378 0.931 . S
Gd400 C403 2.818 . S
Gd400 O420 2.377 . S
Gd400 O422 2.448 . S
Gd400 O423 2.506 . S
Gd400 O424 2.435 . S
Gd400 O425 2.717 . S
Gd400 O427 2.395 . S
Gd400 O431 2.327 . S
Gd401 C412 2.818 . S
Gd401 O421 2.395 . S
Gd401 O425 2.327 . S
Gd401 O426 2.377 . S
Gd401 O428 2.448 . S
Gd401 O429 2.506 . S
Gd401 O430 2.435 . S
Gd401 O431 2.717 . S
C402 O420 1.240 . S
C402 O421 1.240 . S
C403 Gd400 2.818 . S
C403 C404 1.510 . S
C403 O422 1.249 . S
C403 O423 1.252 . S
C404 C403 1.510 . S
C404 C405 1.404 . S
C404 C406 1.352 . S
C405 C404 1.404 . S
C405 C409 1.389 . S
C405 H432 0.930 . S
C406 C404 1.352 . S
C406 C408 1.374 . S
C406 H433 0.931 . S
C407 C408 1.359 . S
C407 C409 1.364 . S
C408 C406 1.374 . S
C408 C407 1.359 . S
C408 H434 0.931 . S
C409 C405 1.389 . S
C409 C407 1.364 . S
C409 H435 0.931 . S
C410 O424 1.256 . S
C410 O425 1.257 . S
C411 O426 1.240 . S
C411 O427 1.240 . S
C412 Gd401 2.818 . S
C412 C413 1.510 . S
C412 O428 1.249 . S
C412 O429 1.252 . S
C413 C412 1.510 . S
C413 C414 1.404 . S
C413 C415 1.352 . S
C414 C413 1.404 . S
C414 C418 1.389 . S
C414 H436 0.930 . S
C415 C413 1.352 . S
C415 C417 1.374 . S
C415 H437 0.931 . S
C416 C417 1.359 . S
C416 C418 1.364 . S
C417 C415 1.374 . S
C417 C416 1.359 . S
C417 H438 0.931 . S
C418 C414 1.389 . S
C418 C416 1.364 . S
C418 H439 0.931 . S
C419 O430 1.256 . S
C419 O431 1.257 . S
O420 Gd400 2.377 . S
O420 C402 1.240 . S
O421 Gd401 2.395 . S
O421 C402 1.240 . S
O422 Gd400 2.448 . S
O422 C403 1.249 . S
O423 Gd400 2.506 . S
O423 C403 1.252 . S
O424 Gd400 2.435 . S
O424 C410 1.256 . S
O425 Gd400 2.717 . S
O425 Gd401 2.327 . S
O425 C410 1.257 . S
O426 Gd401 2.377 . S
O426 C411 1.240 . S
O427 Gd400 2.395 . S
O427 C411 1.240 . S
O428 Gd401 2.448 . S
O428 C412 1.249 . S
O429 Gd401 2.506 . S
O429 C412 1.252 . S
O430 Gd401 2.435 . S
O430 C419 1.256 . S
O431 Gd400 2.327 . S
O431 Gd401 2.717 . S
O431 C419 1.257 . S
H432 C405 0.930 . S
H433 C406 0.931 . S
H434 C408 0.931 . S
H435 C409 0.931 . S
H436 C414 0.930 . S
H437 C415 0.931 . S
H438 C417 0.931 . S
H439 C418 0.931 . S
Gd440 C443 2.818 1_554 S
Gd440 O460 2.377 . S
Gd440 O462 2.448 . S
Gd440 O463 2.503 . S
Gd440 O464 2.435 . S
Gd440 O465 2.717 . S
Gd440 O467 2.395 . S
Gd440 O471 2.327 . S
Gd441 C452 2.818 . S
Gd441 O461 2.395 . S
Gd441 O465 2.327 . S
Gd441 O466 2.377 . S
Gd441 O468 2.448 . S
Gd441 O469 2.506 . S
Gd441 O470 2.435 . S
Gd441 O471 2.717 . S
C442 O460 1.240 . S
C442 O461 1.240 . S
C443 Gd440 2.818 1_556 S
C443 C444 1.510 . S
C443 O462 1.249 1_556 S
C443 O463 1.253 1_556 S
C444 C443 1.510 . S
C444 C445 1.404 . S
C444 C446 1.352 . S
C445 C444 1.404 . S
C445 C449 1.389 . S
C445 H472 0.930 . S
C446 C444 1.352 . S
C446 C448 1.374 . S
C446 H473 0.931 . S
C447 C448 1.359 . S
C447 C449 1.364 . S
C448 C446 1.374 . S
C448 C447 1.359 . S
C448 H474 0.931 . S
C449 C445 1.389 . S
C449 C447 1.364 . S
C449 H475 0.931 . S
C450 O464 1.256 . S
C450 O465 1.257 . S
C451 O466 1.240 . S
C451 O467 1.240 . S
C452 Gd441 2.818 . S
C452 C453 1.510 . S
C452 O468 1.249 . S
C452 O469 1.252 . S
C453 C452 1.510 . S
C453 C454 1.404 . S
C453 C455 1.352 . S
C454 C453 1.404 . S
C454 C458 1.389 . S
C454 H476 0.930 . S
C455 C453 1.352 . S
C455 C457 1.374 . S
C455 H477 0.931 . S
C456 C457 1.359 . S
C456 C458 1.364 . S
C457 C455 1.374 . S
C457 C456 1.359 . S
C457 H478 0.931 . S
C458 C454 1.389 . S
C458 C456 1.364 . S
C458 H479 0.931 . S
C459 O470 1.256 . S
C459 O471 1.257 . S
O460 Gd440 2.377 . S
O460 C442 1.240 . S
O461 Gd441 2.395 . S
O461 C442 1.240 . S
O462 Gd440 2.448 . S
O462 C443 1.249 1_554 S
O463 Gd440 2.503 . S
O463 C443 1.253 1_554 S
O464 Gd440 2.435 . S
O464 C450 1.256 . S
O465 Gd440 2.717 . S
O465 Gd441 2.327 . S
O465 C450 1.257 . S
O466 Gd441 2.377 . S
O466 C451 1.240 . S
O467 Gd440 2.395 . S
O467 C451 1.240 . S
O468 Gd441 2.448 . S
O468 C452 1.249 . S
O469 Gd441 2.506 . S
O469 C452 1.252 . S
O470 Gd441 2.435 . S
O470 C459 1.256 . S
O471 Gd440 2.327 . S
O471 Gd441 2.717 . S
O471 C459 1.257 . S
H472 C445 0.930 . S
H473 C446 0.931 . S
H474 C448 0.931 . S
H475 C449 0.931 . S
H476 C454 0.930 . S
H477 C455 0.931 . S
H478 C457 0.931 . S
H479 C458 0.931 . S
H480 C486 0.930 . S
H481 C489 0.930 . S
H482 C490 0.930 . S
H483 C491 0.930 . S
H484 C494 0.930 . S
H485 C495 0.930 . S
C486 H480 0.930 . S
C486 C487 1.355 . S
C486 C488 1.415 . S
C487 C486 1.355 . S
C487 C489 1.419 . S
C488 C486 1.415 . S
C488 C493 1.425 . S
C488 C495 1.409 . S
C489 H481 0.930 . S
C489 C487 1.419 . S
C489 C490 1.362 . S
C490 H482 0.930 . S
C490 C489 1.362 . S
C490 C493 1.409 . S
C491 H483 0.930 . S
C491 C492 1.355 . S
C491 C493 1.415 . S
C492 C491 1.355 . S
C492 C494 1.419 . S
C493 C488 1.425 . S
C493 C490 1.409 . S
C493 C491 1.415 . S
C494 H484 0.930 . S
C494 C492 1.419 . S
C494 C495 1.362 . S
C495 H485 0.930 . S
C495 C488 1.409 . S
C495 C494 1.362 . S
H496 C502 0.930 . S
H497 C505 0.930 . S
H498 C506 0.930 . S
H499 C507 0.930 . S
H500 C510 0.930 . S
H501 C511 0.930 . S
C502 H496 0.930 . S
C502 C503 1.355 . S
C502 C504 1.415 . S
C503 C502 1.355 . S
C503 C505 1.419 . S
C504 C502 1.415 . S
C504 C509 1.425 . S
C504 C511 1.409 . S
C505 H497 0.930 . S
C505 C503 1.419 . S
C505 C506 1.362 . S
C506 H498 0.930 . S
C506 C505 1.362 . S
C506 C509 1.409 . S
C507 H499 0.930 . S
C507 C508 1.355 . S
C507 C509 1.415 . S
C508 C507 1.355 . S
C508 C510 1.419 . S
C509 C504 1.425 . S
C509 C506 1.409 . S
C509 C507 1.415 . S
C510 H500 0.930 . S
C510 C508 1.419 . S
C510 C511 1.362 . S
C511 H501 0.930 . S
C511 C504 1.409 . S
C511 C510 1.362 . S
H512 C518 0.930 . S
H513 C521 0.930 . S
H514 C522 0.930 . S
H515 C523 0.930 . S
H516 C526 0.930 . S
H517 C527 0.930 . S
C518 H512 0.930 . S
C518 C519 1.355 . S
C518 C520 1.415 . S
C519 C518 1.355 . S
C519 C521 1.419 . S
C520 C518 1.415 . S
C520 C525 1.425 . S
C520 C527 1.409 . S
C521 H513 0.930 . S
C521 C519 1.419 . S
C521 C522 1.362 . S
C522 H514 0.930 . S
C522 C521 1.362 . S
C522 C525 1.409 . S
C523 H515 0.930 . S
C523 C524 1.355 . S
C523 C525 1.415 . S
C524 C523 1.355 . S
C524 C526 1.419 . S
C525 C520 1.425 . S
C525 C522 1.409 . S
C525 C523 1.415 . S
C526 H516 0.930 . S
C526 C524 1.419 . S
C526 C527 1.362 . S
C527 H517 0.930 . S
C527 C520 1.409 . S
C527 C526 1.362 . S
H528 C534 0.930 . S
H529 C537 0.930 . S
H530 C538 0.930 . S
H531 C539 0.930 . S
H532 C542 0.930 . S
H533 C543 0.930 . S
C534 H528 0.930 . S
C534 C535 1.355 . S
C534 C536 1.415 . S
C535 C534 1.355 . S
C535 C537 1.419 . S
C536 C534 1.415 . S
C536 C541 1.425 . S
C536 C543 1.409 . S
C537 H529 0.930 . S
C537 C535 1.419 . S
C537 C538 1.362 . S
C538 H530 0.930 . S
C538 C537 1.362 . S
C538 C541 1.409 . S
C539 H531 0.930 . S
C539 C540 1.355 . S
C539 C541 1.415 . S
C540 C539 1.355 . S
C540 C542 1.419 . S
C541 C536 1.425 . S
C541 C538 1.409 . S
C541 C539 1.415 . S
C542 H532 0.930 . S
C542 C540 1.419 . S
C542 C543 1.362 . S
C543 H533 0.930 . S
C543 C536 1.409 . S
C543 C542 1.362 . S
H544 C550 0.930 . S
H545 C553 0.930 . S
H546 C554 0.930 . S
H547 C555 0.930 . S
H548 C558 0.930 . S
H549 C559 0.930 . S
C550 H544 0.930 . S
C550 C551 1.355 . S
C550 C552 1.415 . S
C551 C550 1.355 . S
C551 C553 1.419 . S
C552 C550 1.415 . S
C552 C557 1.425 . S
C552 C559 1.409 . S
C553 H545 0.930 . S
C553 C551 1.419 . S
C553 C554 1.362 . S
C554 H546 0.930 . S
C554 C553 1.362 . S
C554 C557 1.409 . S
C555 H547 0.930 . S
C555 C556 1.355 . S
C555 C557 1.415 . S
C556 C555 1.355 . S
C556 C558 1.419 . S
C557 C552 1.425 . S
C557 C554 1.409 . S
C557 C555 1.415 . S
C558 H548 0.930 . S
C558 C556 1.419 . S
C558 C559 1.362 . S
C559 H549 0.930 . S
C559 C552 1.409 . S
C559 C558 1.362 . S
H560 C566 0.930 . S
H561 C569 0.930 . S
H562 C570 0.930 . S
H563 C571 0.930 . S
H564 C574 0.930 . S
H565 C575 0.930 . S
C566 H560 0.930 . S
C566 C567 1.355 . S
C566 C568 1.415 . S
C567 C566 1.355 . S
C567 C569 1.419 . S
C568 C566 1.415 . S
C568 C573 1.425 . S
C568 C575 1.409 . S
C569 H561 0.930 . S
C569 C567 1.419 . S
C569 C570 1.362 . S
C570 H562 0.930 . S
C570 C569 1.362 . S
C570 C573 1.409 . S
C571 H563 0.930 . S
C571 C572 1.355 . S
C571 C573 1.415 . S
C572 C571 1.355 . S
C572 C574 1.419 . S
C573 C568 1.425 . S
C573 C570 1.409 . S
C573 C571 1.415 . S
C574 H564 0.930 . S
C574 C572 1.419 . S
C574 C575 1.362 . S
C575 H565 0.930 . S
C575 C568 1.409 . S
C575 C574 1.362 . S
H576 C582 0.930 . S
H577 C585 0.930 . S
H578 C586 0.930 . S
H579 C587 0.930 . S
H580 C590 0.930 . S
H581 C591 0.930 . S
C582 H576 0.930 . S
C582 C583 1.355 . S
C582 C584 1.415 . S
C583 C582 1.355 . S
C583 C585 1.419 . S
C584 C582 1.415 . S
C584 C589 1.425 1_556 S
C584 C591 1.409 1_556 S
C585 H577 0.930 . S
C585 C583 1.419 . S
C585 C586 1.362 . S
C586 H578 0.930 . S
C586 C585 1.362 . S
C586 C589 1.409 1_556 S
C587 H579 0.930 . S
C587 C588 1.355 . S
C587 C589 1.415 . S
C588 C587 1.355 . S
C588 C590 1.419 . S
C589 C584 1.425 1_554 S
C589 C586 1.409 1_554 S
C589 C587 1.415 . S
C590 H580 0.930 . S
C590 C588 1.419 . S
C590 C591 1.362 . S
C591 H581 0.930 . S
C591 C584 1.409 1_554 S
C591 C590 1.362 . S
H592 C598 0.930 . S
H593 C601 0.930 . S
H594 C602 0.930 . S
H595 C603 0.930 . S
H596 C606 0.930 . S
H597 C607 0.930 . S
C598 H592 0.930 . S
C598 C599 1.355 . S
C598 C600 1.415 . S
C599 C598 1.355 . S
C599 C601 1.419 . S
C600 C598 1.415 . S
C600 C605 1.425 . S
C600 C607 1.409 . S
C601 H593 0.930 . S
C601 C599 1.419 . S
C601 C602 1.362 . S
C602 H594 0.930 . S
C602 C601 1.362 . S
C602 C605 1.409 . S
C603 H595 0.930 . S
C603 C604 1.355 . S
C603 C605 1.415 . S
C604 C603 1.355 . S
C604 C606 1.419 . S
C605 C600 1.425 . S
C605 C602 1.409 . S
C605 C603 1.415 . S
C606 H596 0.930 . S
C606 C604 1.419 . S
C606 C607 1.362 . S
C607 H597 0.930 . S
C607 C600 1.409 . S
C607 C606 1.362 . S
H608 C614 0.930 . S
H609 C617 0.930 . S
H610 C618 0.930 . S
H611 C619 0.930 . S
H612 C622 0.930 . S
H613 C623 0.930 . S
C614 H608 0.930 . S
C614 C615 1.355 . S
C614 C616 1.415 . S
C615 C614 1.355 . S
C615 C617 1.419 . S
C616 C614 1.415 . S
C616 C621 1.425 . S
C616 C623 1.409 . S
C617 H609 0.930 . S
C617 C615 1.419 . S
C617 C618 1.362 . S
C618 H610 0.930 . S
C618 C617 1.362 . S
C618 C621 1.409 . S
C619 H611 0.930 . S
C619 C620 1.355 . S
C619 C621 1.415 . S
C620 C619 1.355 . S
C620 C622 1.419 . S
C621 C616 1.425 . S
C621 C618 1.409 . S
C621 C619 1.415 . S
C622 H612 0.930 . S
C622 C620 1.419 . S
C622 C623 1.362 . S
C623 H613 0.930 . S
C623 C616 1.409 . S
C623 C622 1.362 . S
H624 C630 0.930 . S
H625 C633 0.930 . S
H626 C634 0.930 . S
H627 C635 0.930 . S
H628 C638 0.930 . S
H629 C639 0.930 . S
C630 H624 0.930 . S
C630 C631 1.355 1_554 S
C630 C632 1.415 . S
C631 C630 1.355 1_556 S
C631 C633 1.419 . S
C632 C630 1.415 . S
C632 C637 1.425 1_554 S
C632 C639 1.409 . S
C633 H625 0.930 . S
C633 C631 1.419 . S
C633 C634 1.362 . S
C634 H626 0.930 . S
C634 C633 1.362 . S
C634 C637 1.409 . S
C635 H627 0.930 . S
C635 C636 1.355 1_556 S
C635 C637 1.415 . S
C636 C635 1.355 1_554 S
C636 C638 1.419 . S
C637 C632 1.425 1_556 S
C637 C634 1.409 . S
C637 C635 1.415 . S
C638 H628 0.930 . S
C638 C636 1.419 . S
C638 C639 1.362 . S
C639 H629 0.930 . S
C639 C632 1.409 . S
C639 C638 1.362 . S
H640 C646 0.930 . S
H641 C649 0.930 . S
H642 C650 0.930 . S
H643 C651 0.930 . S
H644 C654 0.930 . S
H645 C655 0.930 . S
C646 H640 0.930 . S
C646 C647 1.355 . S
C646 C648 1.415 . S
C647 C646 1.355 . S
C647 C649 1.419 . S
C648 C646 1.415 . S
C648 C653 1.425 . S
C648 C655 1.409 . S
C649 H641 0.930 . S
C649 C647 1.419 . S
C649 C650 1.362 . S
C650 H642 0.930 . S
C650 C649 1.362 . S
C650 C653 1.409 . S
C651 H643 0.930 . S
C651 C652 1.355 . S
C651 C653 1.415 . S
C652 C651 1.355 . S
C652 C654 1.419 . S
C653 C648 1.425 . S
C653 C650 1.409 . S
C653 C651 1.415 . S
C654 H644 0.930 . S
C654 C652 1.419 . S
C654 C655 1.362 . S
C655 H645 0.930 . S
C655 C648 1.409 . S
C655 C654 1.362 . S
H656 C662 0.930 . S
H657 C665 0.930 . S
H658 C666 0.930 . S
H659 C667 0.930 . S
H660 C670 0.930 . S
H661 C671 0.930 . S
C662 H656 0.930 . S
C662 C663 1.355 . S
C662 C664 1.415 . S
C663 C662 1.355 . S
C663 C665 1.419 . S
C664 C662 1.415 . S
C664 C669 1.425 . S
C664 C671 1.409 . S
C665 H657 0.930 . S
C665 C663 1.419 . S
C665 C666 1.362 . S
C666 H658 0.930 . S
C666 C665 1.362 . S
C666 C669 1.409 . S
C667 H659 0.930 . S
C667 C668 1.355 . S
C667 C669 1.415 . S
C668 C667 1.355 . S
C668 C670 1.419 . S
C669 C664 1.425 . S
C669 C666 1.409 . S
C669 C667 1.415 . S
C670 H660 0.930 . S
C670 C668 1.419 . S
C670 C671 1.362 . S
C671 H661 0.930 . S
C671 C664 1.409 . S
C671 C670 1.362 . S
H672 C678 0.930 . S
H673 C681 0.930 1_545 S
H674 C682 0.930 . S
H675 C683 0.930 . S
H676 C686 0.930 1_565 S
H677 C687 0.930 . S
C678 H672 0.930 . S
C678 C679 1.355 . S
C678 C680 1.394 1_556 S
C679 C678 1.355 . S
C679 C681 1.419 . S
C680 C678 1.394 1_554 S
C680 C685 1.424 1_564 S
C680 C687 1.431 . S
C681 H673 0.930 1_565 S
C681 C679 1.419 . S
C681 C682 1.362 1_565 S
C682 H674 0.930 . S
C682 C681 1.362 1_545 S
C682 C685 1.430 . S
C683 H675 0.930 . S
C683 C684 1.355 . S
C683 C685 1.395 1_554 S
C684 C683 1.355 . S
C684 C686 1.419 . S
C685 C680 1.424 1_546 S
C685 C682 1.430 . S
C685 C683 1.395 1_556 S
C686 H676 0.930 1_545 S
C686 C684 1.419 . S
C686 C687 1.362 1_545 S
C687 H677 0.930 . S
C687 C680 1.431 . S
C687 C686 1.362 1_565 S
H688 C694 0.930 . S
H689 C697 0.930 . S
H690 C698 0.930 . S
H691 C699 0.930 . S
H692 C702 0.930 . S
H693 C703 0.930 . S
C694 H688 0.930 . S
C694 C695 1.355 . S
C694 C696 1.415 . S
C695 C694 1.355 . S
C695 C697 1.419 . S
C696 C694 1.415 . S
C696 C701 1.425 . S
C696 C703 1.409 . S
C697 H689 0.930 . S
C697 C695 1.419 . S
C697 C698 1.362 . S
C698 H690 0.930 . S
C698 C697 1.362 . S
C698 C701 1.409 . S
C699 H691 0.930 . S
C699 C700 1.355 . S
C699 C701 1.415 . S
C700 C699 1.355 . S
C700 C702 1.419 . S
C701 C696 1.425 . S
C701 C698 1.409 . S
C701 C699 1.415 . S
C702 H692 0.930 . S
C702 C700 1.419 . S
C702 C703 1.362 . S
C703 H693 0.930 . S
C703 C696 1.409 . S
C703 C702 1.362 . S
H704 C710 0.930 1_655 S
H705 C713 0.930 . S
H706 C714 0.930 . S
H707 C715 0.930 1_455 S
H708 C718 0.930 . S
H709 C719 0.930 . S
C710 H704 0.930 1_455 S
C710 C711 1.355 . S
C710 C712 1.415 1_455 S
C711 C710 1.355 . S
C711 C713 1.419 . S
C712 C710 1.415 1_655 S
C712 C717 1.425 1_655 S
C712 C719 1.409 . S
C713 H705 0.930 . S
C713 C711 1.419 . S
C713 C714 1.362 . S
C714 H706 0.930 . S
C714 C713 1.362 . S
C714 C717 1.409 . S
C715 H707 0.930 1_655 S
C715 C716 1.355 . S
C715 C717 1.415 1_655 S
C716 C715 1.355 . S
C716 C718 1.419 . S
C717 C712 1.425 1_455 S
C717 C714 1.409 . S
C717 C715 1.415 1_455 S
C718 H708 0.930 . S
C718 C716 1.419 . S
C718 C719 1.362 . S
C719 H709 0.930 . S
C719 C712 1.409 . S
C719 C718 1.362 . S
H720 C726 0.930 1_545 S
H721 C729 0.930 . S
H722 C730 0.930 . S
H723 C731 0.930 1_565 S
H724 C734 0.930 . S
H725 C735 0.930 . S
C726 H720 0.930 1_565 S
C726 C727 1.355 . S
C726 C728 1.415 1_565 S
C727 C726 1.355 . S
C727 C729 1.419 . S
C728 C726 1.415 1_545 S
C728 C733 1.425 1_544 S
C728 C735 1.409 . S
C729 H721 0.930 . S
C729 C727 1.419 . S
C729 C730 1.362 1_554 S
C730 H722 0.930 . S
C730 C729 1.362 1_556 S
C730 C733 1.409 . S
C731 H723 0.930 1_545 S
C731 C732 1.355 . S
C731 C733 1.415 1_545 S
C732 C731 1.355 . S
C732 C734 1.419 . S
C733 C728 1.425 1_566 S
C733 C730 1.409 . S
C733 C731 1.415 1_565 S
C734 H724 0.930 . S
C734 C732 1.419 . S
C734 C735 1.362 1_556 S
C735 H725 0.930 . S
C735 C728 1.409 . S
C735 C734 1.362 1_554 S
H736 C742 0.930 . S
H737 C745 0.930 . S
H738 C746 0.930 . S
H739 C747 0.930 . S
H740 C750 0.930 . S
H741 C751 0.930 . S
C742 H736 0.930 . S
C742 C743 1.355 . S
C742 C744 1.415 . S
C743 C742 1.355 . S
C743 C745 1.419 . S
C744 C742 1.415 . S
C744 C749 1.425 . S
C744 C751 1.409 . S
C745 H737 0.930 . S
C745 C743 1.419 . S
C745 C746 1.362 . S
C746 H738 0.930 . S
C746 C745 1.362 . S
C746 C749 1.409 . S
C747 H739 0.930 . S
C747 C748 1.355 . S
C747 C749 1.415 . S
C748 C747 1.355 . S
C748 C750 1.419 . S
C749 C744 1.425 . S
C749 C746 1.409 . S
C749 C747 1.415 . S
C750 H740 0.930 . S
C750 C748 1.419 . S
C750 C751 1.362 . S
C751 H741 0.930 . S
C751 C744 1.409 . S
C751 C750 1.362 . S
H752 C758 0.930 . S
H753 C761 0.930 . S
H754 C762 0.930 . S
H755 C763 0.930 . S
H756 C766 0.930 . S
H757 C767 0.930 . S
C758 H752 0.930 . S
C758 C759 1.355 . S
C758 C760 1.415 . S
C759 C758 1.355 . S
C759 C761 1.419 1_455 S
C760 C758 1.415 . S
C760 C765 1.425 1_455 S
C760 C767 1.409 . S
C761 H753 0.930 . S
C761 C759 1.419 1_655 S
C761 C762 1.362 . S
C762 H754 0.930 . S
C762 C761 1.362 . S
C762 C765 1.409 . S
C763 H755 0.930 . S
C763 C764 1.355 . S
C763 C765 1.415 . S
C764 C763 1.355 . S
C764 C766 1.419 1_655 S
C765 C760 1.425 1_655 S
C765 C762 1.409 . S
C765 C763 1.415 . S
C766 H756 0.930 . S
C766 C764 1.419 1_455 S
C766 C767 1.362 . S
C767 H757 0.930 . S
C767 C760 1.409 . S
C767 C766 1.362 . S
H768 C774 0.930 . S
H769 C777 0.930 . S
H770 C778 0.930 . S
H771 C779 0.930 . S
H772 C782 0.930 . S
H773 C783 0.930 . S
C774 H768 0.930 . S
C774 C775 1.355 . S
C774 C776 1.412 . S
C775 C774 1.355 . S
C775 C777 1.419 . S
C776 C774 1.412 . S
C776 C781 1.427 1_545 S
C776 C783 1.411 1_545 S
C777 H769 0.930 . S
C777 C775 1.419 . S
C777 C778 1.362 . S
C778 H770 0.930 . S
C778 C777 1.362 . S
C778 C781 1.411 1_545 S
C779 H771 0.930 . S
C779 C780 1.355 . S
C779 C781 1.412 . S
C780 C779 1.355 . S
C780 C782 1.419 . S
C781 C776 1.427 1_565 S
C781 C778 1.411 1_565 S
C781 C779 1.412 . S
C782 H772 0.930 . S
C782 C780 1.419 . S
C782 C783 1.362 . S
C783 H773 0.930 . S
C783 C776 1.411 1_565 S
C783 C782 1.362 . S
H784 C790 0.930 . S
H785 C793 0.930 . S
H786 C794 0.930 . S
H787 C795 0.930 . S
H788 C798 0.930 . S
H789 C799 0.930 . S
C790 H784 0.930 . S
C790 C791 1.355 . S
C790 C792 1.415 . S
C791 C790 1.355 . S
C791 C793 1.419 . S
C792 C790 1.415 . S
C792 C797 1.425 . S
C792 C799 1.409 . S
C793 H785 0.930 . S
C793 C791 1.419 . S
C793 C794 1.362 . S
C794 H786 0.930 . S
C794 C793 1.362 . S
C794 C797 1.409 . S
C795 H787 0.930 . S
C795 C796 1.355 . S
C795 C797 1.415 . S
C796 C795 1.355 . S
C796 C798 1.419 . S
C797 C792 1.425 . S
C797 C794 1.409 . S
C797 C795 1.415 . S
C798 H788 0.930 . S
C798 C796 1.419 . S
C798 C799 1.362 . S
C799 H789 0.930 . S
C799 C792 1.409 . S
C799 C798 1.362 . S
H800 C806 0.930 . S
H801 C809 0.930 . S
H802 C810 0.930 . S
H803 C811 0.930 . S
H804 C814 0.930 . S
H805 C815 0.930 . S
C806 H800 0.930 . S
C806 C807 1.355 . S
C806 C808 1.415 1_655 S
C807 C806 1.355 . S
C807 C809 1.419 . S
C808 C806 1.415 1_455 S
C808 C813 1.425 1_455 S
C808 C815 1.409 . S
C809 H801 0.930 . S
C809 C807 1.419 . S
C809 C810 1.362 . S
C810 H802 0.930 . S
C810 C809 1.362 . S
C810 C813 1.409 . S
C811 H803 0.930 . S
C811 C812 1.355 . S
C811 C813 1.415 1_455 S
C812 C811 1.355 . S
C812 C814 1.419 . S
C813 C808 1.425 1_655 S
C813 C810 1.409 . S
C813 C811 1.415 1_655 S
C814 H804 0.930 . S
C814 C812 1.419 . S
C814 C815 1.362 . S
C815 H805 0.930 . S
C815 C808 1.409 . S
C815 C814 1.362 . S
H816 C822 0.930 . S
H817 C825 0.930 . S
H818 C826 0.930 . S
H819 C827 0.930 . S
H820 C830 0.930 . S
H821 C831 0.930 . S
C822 H816 0.930 . S
C822 C823 1.355 . S
C822 C824 1.415 . S
C823 C822 1.355 . S
C823 C825 1.419 . S
C824 C822 1.415 . S
C824 C829 1.425 1_455 S
C824 C831 1.409 1_455 S
C825 H817 0.930 . S
C825 C823 1.419 . S
C825 C826 1.362 . S
C826 H818 0.930 . S
C826 C825 1.362 . S
C826 C829 1.409 1_455 S
C827 H819 0.930 . S
C827 C828 1.355 . S
C827 C829 1.415 . S
C828 C827 1.355 . S
C828 C830 1.419 . S
C829 C824 1.425 1_655 S
C829 C826 1.409 1_655 S
C829 C827 1.415 . S
C830 H820 0.930 . S
C830 C828 1.419 . S
C830 C831 1.362 . S
C831 H821 0.930 . S
C831 C824 1.409 1_655 S
C831 C830 1.362 . S
H832 C838 0.930 . S
H833 C841 0.930 . S
H834 C842 0.930 . S
H835 C843 0.930 . S
H836 C846 0.930 . S
H837 C847 0.930 . S
C838 H832 0.930 . S
C838 C839 1.355 . S
C838 C840 1.415 . S
C839 C838 1.355 . S
C839 C841 1.419 . S
C840 C838 1.415 . S
C840 C845 1.425 1_565 S
C840 C847 1.409 1_565 S
C841 H833 0.930 . S
C841 C839 1.419 . S
C841 C842 1.362 . S
C842 H834 0.930 . S
C842 C841 1.362 . S
C842 C845 1.409 1_565 S
C843 H835 0.930 . S
C843 C844 1.355 . S
C843 C845 1.415 . S
C844 C843 1.355 . S
C844 C846 1.419 . S
C845 C840 1.425 1_545 S
C845 C842 1.409 1_545 S
C845 C843 1.415 . S
C846 H836 0.930 . S
C846 C844 1.419 . S
C846 C847 1.362 . S
C847 H837 0.930 . S
C847 C840 1.409 1_545 S
C847 C846 1.362 . S
H848 C854 0.930 . S
H849 C857 0.930 . S
H850 C858 0.928 . S
H851 C859 0.930 . S
H852 C862 0.930 . S
H853 C863 0.930 . S
C854 H848 0.930 . S
C854 C855 1.355 . S
C854 C856 1.415 . S
C855 C854 1.355 . S
C855 C857 1.419 . S
C856 C854 1.415 . S
C856 C861 1.425 . S
C856 C863 1.409 . S
C857 H849 0.930 . S
C857 C855 1.419 . S
C857 C858 1.362 . S
C858 H850 0.928 . S
C858 C857 1.362 . S
C858 C861 1.409 . S
C859 H851 0.930 . S
C859 C860 1.355 . S
C859 C861 1.415 . S
C860 C859 1.355 . S
C860 C862 1.419 . S
C861 C856 1.425 . S
C861 C858 1.409 . S
C861 C859 1.415 . S
C862 H852 0.930 . S
C862 C860 1.419 . S
C862 C863 1.362 . S
C863 H853 0.930 . S
C863 C856 1.409 . S
C863 C862 1.362 . S
H864 C870 0.930 . S
H865 C873 0.930 . S
H866 C874 0.930 . S
H867 C875 0.930 . S
H868 C878 0.930 . S
H869 C879 0.930 . S
C870 H864 0.930 . S
C870 C871 1.355 . S
C870 C872 1.415 . S
C871 C870 1.355 . S
C871 C873 1.419 . S
C872 C870 1.415 . S
C872 C877 1.425 1_565 S
C872 C879 1.409 1_565 S
C873 H865 0.930 . S
C873 C871 1.419 . S
C873 C874 1.362 . S
C874 H866 0.930 . S
C874 C873 1.362 . S
C874 C877 1.409 1_565 S
C875 H867 0.930 . S
C875 C876 1.355 . S
C875 C877 1.415 . S
C876 C875 1.355 . S
C876 C878 1.419 . S
C877 C872 1.425 1_545 S
C877 C874 1.409 1_545 S
C877 C875 1.415 . S
C878 H868 0.930 . S
C878 C876 1.419 . S
C878 C879 1.362 . S
C879 H869 0.930 . S
C879 C872 1.409 1_545 S
C879 C878 1.362 . S
H880 C886 0.930 . S
H881 C889 0.930 . S
H882 C890 0.930 . S
H883 C891 0.930 . S
H884 C894 0.930 . S
H885 C895 0.930 . S
C886 H880 0.930 . S
C886 C887 1.355 . S
C886 C888 1.415 . S
C887 C886 1.355 . S
C887 C889 1.419 . S
C888 C886 1.415 . S
C888 C893 1.425 . S
C888 C895 1.409 . S
C889 H881 0.930 . S
C889 C887 1.419 . S
C889 C890 1.362 . S
C890 H882 0.930 . S
C890 C889 1.362 . S
C890 C893 1.409 . S
C891 H883 0.930 . S
C891 C892 1.355 . S
C891 C893 1.415 . S
C892 C891 1.355 . S
C892 C894 1.419 . S
C893 C888 1.425 . S
C893 C890 1.409 . S
C893 C891 1.415 . S
C894 H884 0.930 . S
C894 C892 1.419 . S
C894 C895 1.362 . S
C895 H885 0.930 . S
C895 C888 1.409 . S
C895 C894 1.362 . S
H896 C902 0.930 . S
H897 C905 0.930 . S
H898 C906 0.930 . S
H899 C907 0.930 . S
H900 C910 0.930 . S
H901 C911 0.930 . S
C902 H896 0.930 . S
C902 C903 1.355 . S
C902 C904 1.415 . S
C903 C902 1.355 . S
C903 C905 1.419 . S
C904 C902 1.415 . S
C904 C909 1.425 1_655 S
C904 C911 1.409 1_655 S
C905 H897 0.930 . S
C905 C903 1.419 . S
C905 C906 1.362 . S
C906 H898 0.930 . S
C906 C905 1.362 . S
C906 C909 1.409 1_655 S
C907 H899 0.930 . S
C907 C908 1.355 . S
C907 C909 1.415 . S
C908 C907 1.355 . S
C908 C910 1.419 . S
C909 C904 1.425 1_455 S
C909 C906 1.409 1_455 S
C909 C907 1.415 . S
C910 H900 0.930 . S
C910 C908 1.419 . S
C910 C911 1.362 . S
C911 H901 0.930 . S
C911 C904 1.409 1_455 S
C911 C910 1.362 . S
H912 C918 0.930 . S
H913 C921 0.930 . S
H914 C922 0.930 1_565 S
H915 C923 0.930 . S
H916 C926 0.930 . S
H917 C927 0.930 1_545 S
C918 H912 0.930 . S
C918 C919 1.355 . S
C918 C920 1.415 . S
C919 C918 1.355 . S
C919 C921 1.419 . S
C920 C918 1.415 . S
C920 C925 1.425 1_545 S
C920 C927 1.409 1_545 S
C921 H913 0.930 . S
C921 C919 1.419 . S
C921 C922 1.362 . S
C922 H914 0.930 1_545 S
C922 C921 1.362 . S
C922 C925 1.409 1_545 S
C923 H915 0.930 . S
C923 C924 1.355 . S
C923 C925 1.415 . S
C924 C923 1.355 . S
C924 C926 1.419 . S
C925 C920 1.425 1_565 S
C925 C922 1.409 1_565 S
C925 C923 1.415 . S
C926 H916 0.930 . S
C926 C924 1.419 . S
C926 C927 1.362 . S
C927 H917 0.930 1_565 S
C927 C920 1.409 1_565 S
C927 C926 1.362 . S
H928 C934 0.930 . S
H929 C937 0.930 . S
H930 C938 0.930 . S
H931 C939 0.930 . S
H932 C942 0.930 . S
H933 C943 0.930 . S
C934 H928 0.930 . S
C934 C935 1.355 . S
C934 C936 1.415 . S
C935 C934 1.355 . S
C935 C937 1.419 . S
C936 C934 1.415 . S
C936 C941 1.425 . S
C936 C943 1.409 . S
C937 H929 0.930 . S
C937 C935 1.419 . S
C937 C938 1.362 . S
C938 H930 0.930 . S
C938 C937 1.362 . S
C938 C941 1.409 . S
C939 H931 0.930 . S
C939 C940 1.355 . S
C939 C941 1.415 . S
C940 C939 1.355 . S
C940 C942 1.419 . S
C941 C936 1.425 . S
C941 C938 1.409 . S
C941 C939 1.415 . S
C942 H932 0.930 . S
C942 C940 1.419 . S
C942 C943 1.362 . S
C943 H933 0.930 . S
C943 C936 1.409 . S
C943 C942 1.362 . S
H944 C950 0.930 . S
H945 C953 0.930 . S
H946 C954 0.930 1_655 S
H947 C955 0.930 . S
H948 C958 0.930 . S
H949 C959 0.930 1_455 S
C950 H944 0.930 . S
C950 C951 1.355 . S
C950 C952 1.415 . S
C951 C950 1.355 . S
C951 C953 1.419 . S
C952 C950 1.415 . S
C952 C957 1.425 1_455 S
C952 C959 1.409 1_455 S
C953 H945 0.930 . S
C953 C951 1.419 . S
C953 C954 1.362 . S
C954 H946 0.930 1_455 S
C954 C953 1.362 . S
C954 C957 1.409 1_455 S
C955 H947 0.930 . S
C955 C956 1.355 . S
C955 C957 1.415 . S
C956 C955 1.355 . S
C956 C958 1.419 . S
C957 C952 1.425 1_655 S
C957 C954 1.409 1_655 S
C957 C955 1.415 . S
C958 H948 0.930 . S
C958 C956 1.419 . S
C958 C959 1.362 . S
C959 H949 0.930 1_655 S
C959 C952 1.409 1_655 S
C959 C958 1.362 . S
H960 C966 0.930 . S
H961 C969 0.930 . S
H962 C970 0.930 . S
H963 C971 0.930 . S
H964 C974 0.930 . S
H965 C975 0.930 . S
C966 H960 0.930 . S
C966 C967 1.355 . S
C966 C968 1.415 . S
C967 C966 1.355 . S
C967 C969 1.419 . S
C968 C966 1.415 . S
C968 C973 1.425 . S
C968 C975 1.409 . S
C969 H961 0.930 . S
C969 C967 1.419 . S
C969 C970 1.362 . S
C970 H962 0.930 . S
C970 C969 1.362 . S
C970 C973 1.409 . S
C971 H963 0.930 . S
C971 C972 1.355 . S
C971 C973 1.415 . S
C972 C971 1.355 . S
C972 C974 1.419 . S
C973 C968 1.425 . S
C973 C970 1.409 . S
C973 C971 1.415 . S
C974 H964 0.930 . S
C974 C972 1.419 . S
C974 C975 1.362 . S
C975 H965 0.930 . S
C975 C968 1.409 . S
C975 C974 1.362 . S
H976 C982 0.930 . S
H977 C985 0.930 . S
H978 C986 0.930 . S
H979 C987 0.930 . S
H980 C990 0.930 . S
H981 C991 0.930 . S
C982 H976 0.930 . S
C982 C983 1.355 . S
C982 C984 1.415 . S
C983 C982 1.355 . S
C983 C985 1.419 . S
C984 C982 1.415 . S
C984 C989 1.425 . S
C984 C991 1.409 . S
C985 H977 0.930 . S
C985 C983 1.419 . S
C985 C986 1.362 . S
C986 H978 0.930 . S
C986 C985 1.362 . S
C986 C989 1.409 . S
C987 H979 0.930 . S
C987 C988 1.355 . S
C987 C989 1.415 . S
C988 C987 1.355 . S
C988 C990 1.419 . S
C989 C984 1.425 . S
C989 C986 1.409 . S
C989 C987 1.415 . S
C990 H980 0.930 . S
C990 C988 1.419 . S
C990 C991 1.362 . S
C991 H981 0.930 . S
C991 C984 1.409 . S
C991 C990 1.362 . S
H992 C998 0.930 . S
H993 C1001 0.930 . S
H994 C1002 0.930 . S
H995 C1003 0.930 . S
H996 C1006 0.930 . S
H997 C1007 0.930 . S
C998 H992 0.930 . S
C998 C999 1.355 . S
C998 C1000 1.415 . S
C999 C998 1.355 . S
C999 C1001 1.419 . S
C1000 C998 1.415 . S
C1000 C1005 1.425 . S
C1000 C1007 1.409 . S
C1001 H993 0.930 . S
C1001 C999 1.419 . S
C1001 C1002 1.362 . S
C1002 H994 0.930 . S
C1002 C1001 1.362 . S
C1002 C1005 1.409 . S
C1003 H995 0.930 . S
C1003 C1004 1.355 . S
C1003 C1005 1.415 . S
C1004 C1003 1.355 . S
C1004 C1006 1.419 . S
C1005 C1000 1.425 . S
C1005 C1002 1.409 . S
C1005 C1003 1.415 . S
C1006 H996 0.930 . S
C1006 C1004 1.419 . S
C1006 C1007 1.362 . S
C1007 H997 0.930 . S
C1007 C1000 1.409 . S
C1007 C1006 1.362 . S
H1008 C1014 0.930 . S
H1009 C1017 0.930 . S
H1010 C1018 0.930 . S
H1011 C1019 0.930 . S
H1012 C1022 0.930 . S
H1013 C1023 0.930 . S
C1014 H1008 0.930 . S
C1014 C1015 1.355 . S
C1014 C1016 1.415 . S
C1015 C1014 1.355 . S
C1015 C1017 1.419 . S
C1016 C1014 1.415 . S
C1016 C1021 1.425 . S
C1016 C1023 1.409 . S
C1017 H1009 0.930 . S
C1017 C1015 1.419 . S
C1017 C1018 1.362 . S
C1018 H1010 0.930 . S
C1018 C1017 1.362 . S
C1018 C1021 1.409 . S
C1019 H1011 0.930 . S
C1019 C1020 1.355 . S
C1019 C1021 1.415 . S
C1020 C1019 1.355 . S
C1020 C1022 1.419 . S
C1021 C1016 1.425 . S
C1021 C1018 1.409 . S
C1021 C1019 1.415 . S
C1022 H1012 0.930 . S
C1022 C1020 1.419 . S
C1022 C1023 1.362 . S
C1023 H1013 0.930 . S
C1023 C1016 1.409 . S
C1023 C1022 1.362 . S
H1024 C1030 0.930 . S
H1025 C1033 0.930 . S
H1026 C1034 0.930 . S
H1027 C1035 0.930 . S
H1028 C1038 0.930 . S
H1029 C1039 0.930 . S
C1030 H1024 0.930 . S
C1030 C1031 1.355 . S
C1030 C1032 1.415 . S
C1031 C1030 1.355 . S
C1031 C1033 1.419 . S
C1032 C1030 1.415 . S
C1032 C1037 1.425 . S
C1032 C1039 1.409 . S
C1033 H1025 0.930 . S
C1033 C1031 1.419 . S
C1033 C1034 1.362 . S
C1034 H1026 0.930 . S
C1034 C1033 1.362 . S
C1034 C1037 1.409 . S
C1035 H1027 0.930 . S
C1035 C1036 1.355 . S
C1035 C1037 1.415 . S
C1036 C1035 1.355 . S
C1036 C1038 1.419 . S
C1037 C1032 1.425 . S
C1037 C1034 1.409 . S
C1037 C1035 1.415 . S
C1038 H1028 0.930 . S
C1038 C1036 1.419 . S
C1038 C1039 1.362 . S
C1039 H1029 0.930 . S
C1039 C1032 1.409 . S
C1039 C1038 1.362 . S
H1040 C1046 0.930 . S
H1041 C1049 0.930 . S
H1042 C1050 0.930 . S
H1043 C1051 0.930 . S
H1044 C1054 0.930 . S
H1045 C1055 0.930 . S
C1046 H1040 0.930 . S
C1046 C1047 1.355 . S
C1046 C1048 1.415 . S
C1047 C1046 1.355 . S
C1047 C1049 1.419 . S
C1048 C1046 1.415 . S
C1048 C1053 1.425 . S
C1048 C1055 1.409 . S
C1049 H1041 0.930 . S
C1049 C1047 1.419 . S
C1049 C1050 1.362 . S
C1050 H1042 0.930 . S
C1050 C1049 1.362 . S
C1050 C1053 1.409 . S
C1051 H1043 0.930 . S
C1051 C1052 1.355 . S
C1051 C1053 1.415 . S
C1052 C1051 1.355 . S
C1052 C1054 1.419 . S
C1053 C1048 1.425 . S
C1053 C1050 1.409 . S
C1053 C1051 1.415 . S
C1054 H1044 0.930 . S
C1054 C1052 1.419 . S
C1054 C1055 1.362 . S
C1055 H1045 0.930 . S
C1055 C1048 1.409 . S
C1055 C1054 1.362 . S
C487 C10 1.141 . S
C492 C330 1.113 . S
C503 C50 1.113 . S
C508 C370 1.133 . S
C519 C90 1.123 . S
C524 C410 1.163 . S
C535 C450 1.141 . S
C540 C130 1.182 . S
C551 C170 1.123 . S
C556 C250 1.115 . S
C567 C290 1.130 . S
C572 C210 1.113 . S
C583 C416 1.597 . S
C588 C16 1.571 . S
C599 C456 1.590 . S
C604 C56 1.617 . S
C615 C96 1.632 . S
C620 C256 1.646 . S
C631 C296 1.552 . S
C636 C136 1.572 . S
C647 C336 1.619 . S
C652 C176 1.639 . S
C663 C216 1.636 . S
C668 C376 1.647 . S
C679 C291 4.370 . S
C684 C11 4.356 . S
C695 C331 4.374 . S
C700 C51 4.358 . S
C711 C371 4.375 . S
C716 C91 4.370 . S
C727 C131 4.366 . S
C732 C411 4.376 . S
C743 C171 4.355 . S
C748 C451 4.369 . S
C759 C211 4.364 . S
C764 C251 4.356 . S
C775 C19 0.681 . S
C780 C139 0.767 . S
C791 C59 0.804 . S
C796 C179 0.847 . S
C807 C99 0.678 . S
C812 C219 0.733 . S
C823 C379 0.829 . S
C828 C259 0.730 . S
C839 C299 0.691 . S
C844 C419 0.790 . S
C855 C459 0.833 . S
C860 C339 0.737 . S
C871 C287 0.824 . S
C876 C7 0.897 . S
C887 C327 0.922 . S
C892 C47 0.897 . S
C903 C87 0.842 . S
C908 C367 0.758 . S
C919 C407 0.726 . S
C924 C127 0.799 . S
C935 C447 0.858 . S
C940 C167 0.914 . S
C951 C207 0.709 . S
C956 C247 0.750 . S
C967 C2 4.686 . S
C972 C402 4.684 . S
C983 C42 4.684 . S
C988 C442 4.691 1_556 S
C999 C82 4.687 1_554 S
C1004 C242 4.683 . S
C1015 C122 4.684 . S
C1020 C282 4.686 . S
C1031 C162 4.689 . S
C1036 C322 4.682 1_556 S
C1047 C362 4.683 . S
C1052 C202 4.686 1_554 S
