# Generated by pormake.
# Topology mmt, (4)-cn, num edge types: 1
# Building blocks:
#     Node 0, Type 0, BuildingBlock: UXUYUI_clean_sbu_0, # of connection points: 4
#     Node 1, Type 0, BuildingBlock: UXUYUI_clean_sbu_0, # of connection points: 4
#     Node 2, Type 0, BuildingBlock: UXUYUI_clean_sbu_0, # of connection points: 4
#     Node 3, Type 0, BuildingBlock: UXUYUI_clean_sbu_0, # of connection points: 4
#     Node 4, Type 0, BuildingBlock: UXUYUI_clean_sbu_0, # of connection points: 4
#     Node 5, Type 0, BuildingBlock: UXUYUI_clean_sbu_0, # of connection points: 4
#     Node 6, Type 0, BuildingBlock: UXUYUI_clean_sbu_0, # of connection points: 4
#     Node 7, Type 0, BuildingBlock: UXUYUI_clean_sbu_0, # of connection points: 4
#     Edge 8, Type (0, 0), None
#     Edge 9, Type (0, 0), None
#     Edge 10, Type (0, 0), None
#     Edge 11, Type (0, 0), None
#     Edge 12, Type (0, 0), None
#     Edge 13, Type (0, 0), None
#     Edge 14, Type (0, 0), None
#     Edge 15, Type (0, 0), None
#     Edge 16, Type (0, 0), None
#     Edge 17, Type (0, 0), None
#     Edge 18, Type (0, 0), None
#     Edge 19, Type (0, 0), None
#     Edge 20, Type (0, 0), None
#     Edge 21, Type (0, 0), None
#     Edge 22, Type (0, 0), None
#     Edge 23, Type (0, 0), None
# Relax obj value: 0.161
# Max RMSD: 0.176
# Mean RMSD: 0.176
data_MOF--net-mmt--node1-UXUYUI_clean_sbu_0--edge1-none
_symmetry_space_group_name_H-M    P1
_symmetry_Int_Tables_number       1
_symmetry_cell_setting            triclinic
loop_
_symmetry_equiv_pos_as_xyz
'x, y, z'
_cell_length_a     19.904788
_cell_length_b     35.749528
_cell_length_c     39.548229
_cell_angle_alpha  90.000072
_cell_angle_beta   90.00049
_cell_angle_gamma 90.000022
loop_
_atom_site_label
_atom_site_type_symbol
_atom_site_fract_x
_atom_site_fract_y
_atom_site_fract_z
_atom_type_partial_charge
Li0 Li 0.07356 0.57142 0.3332 0.0
Li1 Li 0.10554 0.56014 0.39096 0.0
Li2 Li 0.14963 0.61732 0.35988 0.0
Li3 Li 0.1881 0.55268 0.34681 0.0
C4 C 0.99997 0.62635 0.36743 0.0
N5 N 0.88868 0.67108 0.35679 0.0
C6 C 0.93714 0.61551 0.37983 0.0
C7 C 0.00627 0.66013 0.34992 0.0
C8 C 0.88146 0.63846 0.37411 0.0
C9 C 0.9494 0.6823 0.34471 0.0
C10 C 0.0777 0.49268 0.36674 0.0
C11 C 0.08609 0.43841 0.40273 0.0
N12 N 0.02061 0.43024 0.39625 0.0
C13 C 0.01055 0.48367 0.36032 0.0
C14 C 0.11592 0.46979 0.38797 0.0
C15 C 0.9826 0.452 0.37551 0.0
C16 C 0.02282 0.53135 0.28011 0.0
N17 N 0.0073 0.56193 0.29897 0.0
C18 C 0.90362 0.56917 0.26905 0.0
C19 C 0.94969 0.58144 0.29339 0.0
C20 C 0.91749 0.53684 0.24994 0.0
C21 C 0.97913 0.5186 0.25517 0.0
H22 H 0.06906 0.51638 0.28492 0.0
H23 H 0.93836 0.60596 0.30813 0.0
C24 C 0.11326 0.53987 0.461 0.0
N25 N 0.07246 0.54186 0.43349 0.0
C26 C 0.08891 0.52564 0.49162 0.0
C27 C 0.98106 0.51592 0.46507 0.0
C28 C 0.0073 0.5306 0.43514 0.0
C29 C 0.02192 0.51318 0.49396 0.0
H30 H 0.16472 0.54935 0.45918 0.0
H31 H 0.97581 0.53247 0.41298 0.0
C32 C 0.14732 0.59683 0.282 0.0
N33 N 0.11981 0.60371 0.21379 0.0
C34 C 0.16773 0.56898 0.2594 0.0
C35 C 0.11328 0.62827 0.26986 0.0
C36 C 0.15327 0.57296 0.22502 0.0
C37 C 0.09974 0.63121 0.23531 0.0
C38 C 0.26488 0.57407 0.396 0.0
C39 C 0.3135 0.60038 0.3868 0.0
C40 C 0.2847 0.53998 0.41012 0.0
C41 C 0.38137 0.59196 0.39162 0.0
C42 C 0.35307 0.53261 0.41451 0.0
N43 N 0.39958 0.55852 0.40522 0.0
C44 C 0.17486 0.68894 0.39023 0.0
C45 C 0.21524 0.68034 0.3344 0.0
C46 C 0.20261 0.72495 0.39134 0.0
N47 N 0.18158 0.66758 0.36198 0.0
C48 C 0.24331 0.71608 0.33432 0.0
C49 C 0.23729 0.73895 0.36304 0.0
H50 H 0.14845 0.6779 0.41196 0.0
H51 H 0.22125 0.66247 0.31257 0.0
C52 C 0.2694 0.48956 0.32726 0.0
N53 N 0.26372 0.52743 0.3285 0.0
C54 C 0.321 0.473 0.30842 0.0
C55 C 0.35976 0.53479 0.29305 0.0
C56 C 0.30818 0.55003 0.3124 0.0
C57 C 0.36632 0.49572 0.29036 0.0
H58 H 0.2326 0.47222 0.33981 0.0
H59 H 0.30137 0.58004 0.31321 0.0
O60 O 0.05518 0.60447 0.37316 0.0
O61 O 0.10577 0.52384 0.35247 0.0
O62 O 0.1598 0.5931 0.31588 0.0
O63 O 0.1983 0.58136 0.39061 0.0
H64 H 0.93129 0.58964 0.39363 0.0
H65 H 0.05445 0.66921 0.34043 0.0
H66 H 0.8325 0.63032 0.38343 0.0
H67 H 0.95356 0.70844 0.33109 0.0
H68 H 0.11497 0.42059 0.41938 0.0
H69 H 0.97999 0.50121 0.3442 0.0
H70 H 0.16786 0.47639 0.39327 0.0
H71 H 0.9306 0.44481 0.37092 0.0
H72 H 0.85664 0.58409 0.26623 0.0
H73 H 0.99317 0.49418 0.2406 0.0
H74 H 0.12212 0.52478 0.51328 0.0
H75 H 0.92954 0.50622 0.46531 0.0
H76 H 0.19346 0.54423 0.26832 0.0
H77 H 0.0972 0.65011 0.28694 0.0
H78 H 0.16839 0.55151 0.2073 0.0
H79 H 0.07319 0.65533 0.2256 0.0
H80 H 0.29907 0.62685 0.37575 0.0
H81 H 0.24772 0.51934 0.41739 0.0
H82 H 0.41956 0.61197 0.38444 0.0
H83 H 0.36916 0.50626 0.42525 0.0
H84 H 0.19641 0.74175 0.4139 0.0
H85 H 0.27054 0.72544 0.31218 0.0
H86 H 0.32439 0.4428 0.30746 0.0
H87 H 0.39203 0.55362 0.27908 0.0
Li88 Li 0.3159 0.96351 0.34682 0.0
Li89 Li 0.35435 0.89886 0.35989 0.0
Li90 Li 0.39845 0.95603 0.39097 0.0
Li91 Li 0.43043 0.94476 0.33321 0.0
C92 C 0.2391 0.94212 0.39601 0.0
N93 N 0.10441 0.95768 0.40523 0.0
C94 C 0.19048 0.9158 0.38682 0.0
C95 C 0.2193 0.97621 0.41011 0.0
C96 C 0.12262 0.92423 0.39164 0.0
C97 C 0.15093 0.98359 0.4145 0.0
C98 C 0.35663 0.91938 0.28201 0.0
C99 C 0.40412 0.88501 0.23528 0.0
N100 N 0.38406 0.91252 0.21379 0.0
C101 C 0.33623 0.94725 0.25943 0.0
C102 C 0.39062 0.88793 0.26984 0.0
C103 C 0.35065 0.94328 0.22504 0.0
C104 C 0.23461 0.02663 0.32727 0.0
N105 N 0.24028 0.98876 0.32852 0.0
C106 C 0.14423 0.98141 0.29308 0.0
C107 C 0.19581 0.96616 0.31242 0.0
C108 C 0.13767 0.02048 0.29038 0.0
C109 C 0.18301 0.04319 0.30843 0.0
H110 H 0.27142 0.04397 0.33981 0.0
H111 H 0.2026 0.93615 0.31324 0.0
C112 C 0.32913 0.82723 0.39023 0.0
N113 N 0.32238 0.8486 0.36199 0.0
C114 C 0.30137 0.79123 0.39133 0.0
C115 C 0.26062 0.80012 0.33433 0.0
C116 C 0.28871 0.83585 0.33441 0.0
C117 C 0.26667 0.77723 0.36304 0.0
H118 H 0.35556 0.83827 0.41195 0.0
H119 H 0.28268 0.85372 0.31258 0.0
C120 C 0.42633 0.02348 0.36677 0.0
N121 N 0.4835 0.08589 0.39628 0.0
C122 C 0.4935 0.03246 0.36036 0.0
C123 C 0.38813 0.04639 0.38799 0.0
C124 C 0.52148 0.06412 0.37555 0.0
C125 C 0.418 0.07775 0.40275 0.0
C126 C 0.50399 0.8898 0.36743 0.0
C127 C 0.56682 0.90059 0.37986 0.0
C128 C 0.49764 0.85604 0.34989 0.0
C129 C 0.62247 0.87763 0.37413 0.0
C130 C 0.55448 0.83385 0.34468 0.0
N131 N 0.61521 0.84503 0.35678 0.0
C132 C 0.39071 0.97633 0.461 0.0
C133 C 0.4967 0.98554 0.43517 0.0
C134 C 0.41506 0.99055 0.49163 0.0
N135 N 0.43153 0.97431 0.43351 0.0
C136 C 0.52295 1.00022 0.4651 0.0
C137 C 0.48206 1.00298 0.49397 0.0
H138 H 0.33924 0.96687 0.45918 0.0
H139 H 0.52821 0.98365 0.41301 0.0
C140 C 0.48118 0.98482 0.28012 0.0
N141 N 0.49669 0.95425 0.29899 0.0
C142 C 0.52488 0.99758 0.25518 0.0
C143 C 0.60039 0.94701 0.26907 0.0
C144 C 0.55431 0.93474 0.29341 0.0
C145 C 0.58652 0.97934 0.24996 0.0
H146 H 0.43494 0.99979 0.28493 0.0
H147 H 0.56564 0.91022 0.30816 0.0
O148 O 0.30569 0.93482 0.39062 0.0
O149 O 0.34418 0.92309 0.31588 0.0
O150 O 0.39823 0.99233 0.35249 0.0
O151 O 0.44881 0.91171 0.37317 0.0
H152 H 0.2049 0.88932 0.37579 0.0
H153 H 0.25628 0.99686 0.41737 0.0
H154 H 0.08441 0.90422 0.38448 0.0
H155 H 0.13485 0.00995 0.42523 0.0
H156 H 0.43063 0.86088 0.22555 0.0
H157 H 0.31054 0.97199 0.26836 0.0
H158 H 0.40669 0.86607 0.2869 0.0
H159 H 0.33554 0.96475 0.20733 0.0
H160 H 0.11194 0.96258 0.27911 0.0
H161 H 0.17964 0.07339 0.30747 0.0
H162 H 0.30759 0.77442 0.41389 0.0
H163 H 0.23338 0.79076 0.31219 0.0
H164 H 0.52405 0.01492 0.34424 0.0
H165 H 0.33618 0.03982 0.39328 0.0
H166 H 0.5735 0.07129 0.37097 0.0
H167 H 0.38913 0.09558 0.4194 0.0
H168 H 0.5727 0.92645 0.39368 0.0
H169 H 0.44946 0.847 0.34038 0.0
H170 H 0.67143 0.88573 0.38348 0.0
H171 H 0.55029 0.80773 0.33104 0.0
H172 H 0.38183 0.99143 0.51328 0.0
H173 H 0.57448 0.00989 0.46534 0.0
H174 H 0.51084 0.02199 0.24062 0.0
H175 H 0.64737 0.93209 0.26626 0.0
Li176 Li 0.6881 0.46351 0.17027 0.0
Li177 Li 0.64964 0.39886 0.1572 0.0
Li178 Li 0.60554 0.45603 0.12611 0.0
Li179 Li 0.57357 0.44477 0.18388 0.0
C180 C 0.76489 0.44211 0.12108 0.0
N181 N 0.89959 0.45766 0.11185 0.0
C182 C 0.8135 0.4158 0.13027 0.0
C183 C 0.7847 0.4762 0.10696 0.0
C184 C 0.88137 0.42422 0.12545 0.0
C185 C 0.85307 0.48357 0.10257 0.0
C186 C 0.64735 0.41937 0.23508 0.0
C187 C 0.59981 0.38501 0.28179 0.0
N188 N 0.61988 0.41252 0.30329 0.0
C189 C 0.66774 0.44724 0.25766 0.0
C190 C 0.61333 0.38793 0.24723 0.0
C191 C 0.65331 0.44327 0.29205 0.0
C192 C 0.7694 0.52662 0.18981 0.0
N193 N 0.76372 0.48876 0.18857 0.0
C194 C 0.85977 0.4814 0.22402 0.0
C195 C 0.80819 0.46615 0.20467 0.0
C196 C 0.86632 0.52047 0.22671 0.0
C197 C 0.821 0.54318 0.20865 0.0
H198 H 0.73259 0.54397 0.17726 0.0
H199 H 0.80139 0.43614 0.20386 0.0
C200 C 0.67487 0.32723 0.12685 0.0
N201 N 0.6816 0.3486 0.1551 0.0
C202 C 0.70262 0.29123 0.12575 0.0
C203 C 0.74334 0.30011 0.18276 0.0
C204 C 0.71526 0.33585 0.18268 0.0
C205 C 0.73731 0.27723 0.15405 0.0
H206 H 0.64845 0.33827 0.10513 0.0
H207 H 0.72127 0.35371 0.20451 0.0
C208 C 0.57769 0.52349 0.15032 0.0
N209 N 0.52056 0.58591 0.1208 0.0
C210 C 0.51053 0.53248 0.15673 0.0
C211 C 0.6159 0.54639 0.12909 0.0
C212 C 0.48256 0.56415 0.14154 0.0
C213 C 0.58605 0.57775 0.11433 0.0
C214 C 0.49999 0.38981 0.14966 0.0
C215 C 0.43716 0.40063 0.13724 0.0
C216 C 0.50632 0.35604 0.16719 0.0
C217 C 0.3815 0.37767 0.14297 0.0
C218 C 0.44947 0.33387 0.1724 0.0
N219 N 0.38874 0.34506 0.16031 0.0
C220 C 0.61327 0.47631 0.05608 0.0
C221 C 0.5073 0.48555 0.08192 0.0
C222 C 0.58892 0.49053 0.02546 0.0
N223 N 0.57247 0.47431 0.08358 0.0
C224 C 0.48105 0.50023 0.05199 0.0
C225 C 0.52193 0.50298 0.02312 0.0
H226 H 0.66474 0.46685 0.0579 0.0
H227 H 0.4758 0.48367 0.10408 0.0
C228 C 0.52282 0.48483 0.23696 0.0
N229 N 0.50731 0.45425 0.2181 0.0
C230 C 0.47912 0.49759 0.2619 0.0
C231 C 0.40362 0.44702 0.24802 0.0
C232 C 0.44969 0.43474 0.22369 0.0
C233 C 0.41749 0.47935 0.26713 0.0
H234 H 0.56905 0.4998 0.23215 0.0
H235 H 0.43837 0.41022 0.20894 0.0
O236 O 0.69831 0.43481 0.12646 0.0
O237 O 0.65981 0.42309 0.2012 0.0
O238 O 0.60577 0.49233 0.1646 0.0
O239 O 0.55518 0.41171 0.14392 0.0
H240 H 0.79908 0.38932 0.14132 0.0
H241 H 0.74772 0.49684 0.09969 0.0
H242 H 0.91957 0.40421 0.13262 0.0
H243 H 0.86916 0.50992 0.09184 0.0
H244 H 0.57329 0.36089 0.29151 0.0
H245 H 0.69346 0.47198 0.24873 0.0
H246 H 0.59726 0.36608 0.23017 0.0
H247 H 0.66842 0.46473 0.30976 0.0
H248 H 0.89205 0.46257 0.23799 0.0
H249 H 0.82438 0.57338 0.20961 0.0
H250 H 0.69641 0.27442 0.10319 0.0
H251 H 0.77057 0.29075 0.20491 0.0
H252 H 0.47997 0.51495 0.17285 0.0
H253 H 0.66785 0.5398 0.1238 0.0
H254 H 0.43056 0.57132 0.14612 0.0
H255 H 0.61493 0.59558 0.09768 0.0
H256 H 0.43129 0.42649 0.12343 0.0
H257 H 0.5545 0.34699 0.17668 0.0
H258 H 0.33253 0.38578 0.13363 0.0
H259 H 0.45364 0.30773 0.18603 0.0
H260 H 0.62214 0.49141 1.0038 0.0
H261 H 0.42953 0.50992 0.05175 0.0
H262 H 0.49316 0.52201 0.27646 0.0
H263 H 0.35664 0.43209 0.25084 0.0
Li264 Li 0.8159 0.05267 0.17028 0.0
Li265 Li 0.85436 0.11732 0.1572 0.0
Li266 Li 0.89846 0.06014 0.12613 0.0
Li267 Li 0.93043 0.07142 0.18389 0.0
C268 C 0.73911 0.07406 0.12109 0.0
N269 N 0.60441 0.0585 0.11187 0.0
C270 C 0.69049 0.10037 0.13028 0.0
C271 C 0.7193 0.03997 0.10698 0.0
C272 C 0.62262 0.09195 0.12547 0.0
C273 C 0.65093 0.03259 0.10259 0.0
C274 C 0.85666 0.09683 0.23509 0.0
C275 C 0.9042 0.13121 0.28179 0.0
N276 N 0.88413 0.10371 0.3033 0.0
C277 C 0.83626 0.06897 0.25768 0.0
C278 C 0.89068 0.12827 0.24723 0.0
C279 C 0.85069 0.07295 0.29206 0.0
C280 C 0.73461 0.98955 0.18983 0.0
N281 N 0.74028 0.02742 0.18859 0.0
C282 C 0.64424 0.03478 0.22403 0.0
C283 C 0.69582 0.05003 0.20469 0.0
C284 C 0.63768 0.99571 0.22673 0.0
C285 C 0.68301 0.973 0.20867 0.0
H286 H 0.77142 0.97221 0.17729 0.0
H287 H 0.70261 0.08004 0.20388 0.0
C288 C 0.82914 0.18894 0.12686 0.0
N289 N 0.8224 0.16758 0.15511 0.0
C290 C 0.80138 0.22495 0.12575 0.0
C291 C 0.76065 0.21607 0.18276 0.0
C292 C 0.78873 0.18033 0.18268 0.0
C293 C 0.76669 0.23895 0.15405 0.0
H294 H 0.85556 0.17791 0.10513 0.0
H295 H 0.78271 0.16246 0.20451 0.0
C296 C 0.92632 0.99269 0.15035 0.0
N297 N 0.98345 0.93026 0.12084 0.0
C298 C 0.99348 0.98369 0.15676 0.0
C299 C 0.88811 0.96979 0.12912 0.0
C300 C 0.02144 0.95202 0.14158 0.0
C301 C 0.91796 0.93842 0.11436 0.0
C302 C 0.00401 0.12636 0.14966 0.0
C303 C 0.06684 0.11554 0.13725 0.0
C304 C 0.99769 0.16014 0.16718 0.0
C305 C 0.12251 0.13849 0.14297 0.0
C306 C 0.05455 0.18231 0.17239 0.0
N307 N 0.11527 0.17111 0.1603 0.0
C308 C 0.89073 0.03985 0.0561 0.0
C309 C 0.9967 0.03061 0.08194 0.0
C310 C 0.91508 0.02563 0.02547 0.0
N311 N 0.93153 0.04186 0.0836 0.0
C312 C 0.02294 0.01593 0.05201 0.0
C313 C 0.98207 0.01318 0.02313 0.0
H314 H 0.83927 0.04932 0.05791 0.0
H315 H 0.02819 0.03249 0.1041 0.0
C316 C 0.98117 0.03136 0.23698 0.0
N317 N 0.99669 0.06194 0.21812 0.0
C318 C 0.02487 0.01861 0.26192 0.0
C319 C 0.10039 0.06917 0.24803 0.0
C320 C 0.05431 0.08145 0.2237 0.0
C321 C 0.08651 0.03685 0.26714 0.0
H322 H 0.93494 0.0164 0.23218 0.0
H323 H 0.06565 0.10596 0.20895 0.0
O324 O 0.80569 0.08136 0.12648 0.0
O325 O 0.84419 0.0931 0.20121 0.0
O326 O 0.89823 0.02384 0.16462 0.0
O327 O 0.94881 0.10447 0.14393 0.0
H328 H 0.70491 0.12685 0.14133 0.0
H329 H 0.75629 0.01933 0.09971 0.0
H330 H 0.58442 0.11195 0.13264 0.0
H331 H 0.63485 1.00624 0.09186 0.0
H332 H 0.93073 0.15533 0.2915 0.0
H333 H 0.81054 0.04423 0.24876 0.0
H334 H 0.90675 0.15012 0.23016 0.0
H335 H 0.83558 0.0515 0.30979 0.0
H336 H 0.61196 0.05361 0.23801 0.0
H337 H 0.67963 0.9428 0.20963 0.0
H338 H 0.8076 0.24176 0.10319 0.0
H339 H 0.73341 0.22543 0.20491 0.0
H340 H 0.02403 1.00123 0.17289 0.0
H341 H 0.83616 0.97637 0.12383 0.0
H342 H 0.07345 0.94485 0.14617 0.0
H343 H 0.88908 0.92059 0.09771 0.0
H344 H 0.0727 0.08967 0.12344 0.0
H345 H 0.94952 0.1692 0.17667 0.0
H346 H 0.17147 0.13037 0.13364 0.0
H347 H 0.05038 0.20845 0.18601 0.0
H348 H 0.88186 0.02476 1.00381 0.0
H349 H 0.07446 1.00624 0.05177 0.0
H350 H 0.01083 0.9942 0.27649 0.0
H351 H 0.14737 0.08409 0.25085 0.0
Li352 Li 0.83604 0.45959 0.6756 0.0
Li353 Li 0.95568 0.43566 0.68635 0.0
Li354 Li 0.91435 0.44836 0.62869 0.0
Li355 Li 0.87069 0.39654 0.65917 0.0
C356 C 0.9406 0.51619 0.65048 0.0
N357 N 0.97478 0.57937 0.61417 0.0
C358 C 0.00806 0.52432 0.64403 0.0
C359 C 0.89051 0.54024 0.63863 0.0
C360 C 0.02431 0.55638 0.62556 0.0
C361 C 0.90883 0.57206 0.62031 0.0
C362 C 0.84007 0.39166 0.72526 0.0
C363 C 0.84682 0.33265 0.75463 0.0
N364 N 0.7811 0.33595 0.76356 0.0
C365 C 0.77279 0.39465 0.73501 0.0
C366 C 0.87762 0.3606 0.73543 0.0
C367 C 0.74383 0.36614 0.75428 0.0
C368 C 0.70309 0.48365 0.69039 0.0
N369 N 0.76949 0.49035 0.69546 0.0
C370 C 0.7445 0.53766 0.73624 0.0
C371 C 0.79086 0.51708 0.71739 0.0
C372 C 0.67546 0.5304 0.73271 0.0
C373 C 0.65493 0.50344 0.70887 0.0
H374 H 0.68773 0.46183 0.67308 0.0
H375 H 0.84413 0.52159 0.72096 0.0
C376 C 0.09008 0.44973 0.70516 0.0
N377 N 0.02742 0.44259 0.71709 0.0
C378 C 0.14024 0.46232 0.72708 0.0
C379 C 0.06113 0.45819 0.77333 0.0
C380 C 0.01245 0.44581 0.75048 0.0
C381 C 0.12559 0.46766 0.76158 0.0
H382 H 0.10008 0.44744 0.67835 0.0
H383 H 0.96181 0.44038 0.75912 0.0
C384 C 0.79599 0.4192 0.60234 0.0
N385 N 0.7522 0.39005 0.54152 0.0
C386 C 0.83546 0.39328 0.5849 0.0
C387 C 0.73425 0.43032 0.58888 0.0
C388 C 0.81245 0.37884 0.5542 0.0
C389 C 0.71299 0.41526 0.55808 0.0
C390 C 0.00739 0.37494 0.64225 0.0
C391 C 0.02343 0.36089 0.61025 0.0
C392 C 0.03495 0.35826 0.67104 0.0
C393 C 0.06569 0.32982 0.60766 0.0
C394 C 0.07703 0.32724 0.66738 0.0
N395 N 0.09132 0.31376 0.63603 0.0
C396 C 0.0097 0.46075 0.57731 0.0
C397 C 0.90368 0.48816 0.56612 0.0
C398 C 0.03583 0.47531 0.54728 0.0
N399 N 0.94476 0.46733 0.58609 0.0
C400 C 0.92787 0.50354 0.53596 0.0
C401 C 0.99492 0.49722 0.5261 0.0
H402 H 0.04151 0.44446 0.59388 0.0
H403 H 0.85245 0.4934 0.57393 0.0
C404 C 0.76593 0.34422 0.66289 0.0
N405 N 0.83281 0.34658 0.65621 0.0
C406 C 0.73318 0.30963 0.66283 0.0
C407 C 0.83768 0.28038 0.64695 0.0
C408 C 0.86874 0.31547 0.6481 0.0
C409 C 0.76893 0.27684 0.65477 0.0
H410 H 0.738 0.36935 0.66873 0.0
H411 H 0.92143 0.31757 0.64235 0.0
O412 O 0.92351 0.4843 0.66749 0.0
O413 O 0.86887 0.41895 0.70581 0.0
O414 O 0.81755 0.43395 0.63234 0.0
O415 O 0.96654 0.40553 0.6452 0.0
H416 H 0.04736 0.50583 0.65282 0.0
H417 H 0.83802 0.53414 0.64317 0.0
H418 H 0.07629 0.56291 0.62017 0.0
H419 H 0.87061 0.59083 0.61082 0.0
H420 H 0.87516 0.30831 0.76243 0.0
H421 H 0.74304 0.41855 0.72752 0.0
H422 H 0.92979 0.35793 0.72837 0.0
H423 H 0.69167 0.36797 0.76179 0.0
H424 H 0.76266 0.55846 0.75392 0.0
H425 H 0.60242 0.4964 0.70564 0.0
H426 H 0.18878 0.46973 0.71671 0.0
H427 H 0.0478 0.46137 0.79972 0.0
H428 H 0.88323 0.38436 0.59498 0.0
H429 H 0.70319 0.45044 0.60208 0.0
H430 H 0.8425 0.35873 0.54046 0.0
H431 H 0.66533 0.42364 0.54733 0.0
H432 H 0.00336 0.37377 0.58764 0.0
H433 H 0.02438 0.36923 0.69591 0.0
H434 H 0.07819 0.31852 0.58307 0.0
H435 H 0.09849 0.31397 0.68946 0.0
H436 H 0.08743 0.46916 0.54067 0.0
H437 H 0.89462 0.52073 0.52087 0.0
H438 H 0.68054 0.30878 0.6696 0.0
H439 H 0.86753 0.2564 0.63969 0.0
Li440 Li 0.54828 0.08053 0.68636 0.0
Li441 Li 0.66794 0.05662 0.67561 0.0
Li442 Li 0.63324 0.11966 0.65916 0.0
Li443 Li 0.58961 0.06782 0.6287 0.0
C444 C 0.66385 0.12462 0.7252 0.0
N445 N 0.72273 0.18048 0.76335 0.0
C446 C 0.73123 0.12178 0.73482 0.0
C447 C 0.62617 0.15561 0.73542 0.0
C448 C 0.76014 0.15037 0.75402 0.0
C449 C 0.65692 0.18364 0.75455 0.0
C450 C 0.5634 0.99999 0.65051 0.0
C451 C 0.59517 0.94411 0.62036 0.0
N452 N 0.52922 0.9368 0.61422 0.0
C453 C 0.49594 0.99187 0.64405 0.0
C454 C 0.61349 0.97594 0.63868 0.0
C455 C 0.47969 0.9598 0.62559 0.0
C456 C 0.41389 0.06645 0.70518 0.0
N457 N 0.47655 0.07359 0.7171 0.0
C458 C 0.44286 0.05798 0.77334 0.0
C459 C 0.49153 0.07037 0.7505 0.0
C460 C 0.3784 0.04851 0.76159 0.0
C461 C 0.36374 0.05385 0.7271 0.0
H462 H 0.40388 0.06874 0.67837 0.0
H463 H 0.54217 0.0758 0.75913 0.0
C464 C 0.8009 0.03259 0.69042 0.0
N465 N 0.73451 0.02588 0.69549 0.0
C466 C 0.84907 0.0128 0.70891 0.0
C467 C 0.7595 0.97856 0.73625 0.0
C468 C 0.71314 0.99914 0.7174 0.0
C469 C 0.82854 0.98583 0.73273 0.0
H470 H 0.81627 0.05442 0.67312 0.0
H471 H 0.65987 0.99461 0.72096 0.0
C472 C 0.49657 0.14124 0.64224 0.0
N473 N 0.41268 0.20244 0.63599 0.0
C474 C 0.48065 0.15532 0.61023 0.0
C475 C 0.4689 0.1579 0.67101 0.0
C476 C 0.43841 0.18639 0.60762 0.0
C477 C 0.42685 0.18892 0.66733 0.0
C478 C 0.70795 0.09696 0.60233 0.0
C479 C 0.66856 0.12293 0.58491 0.0
C480 C 0.76959 0.08573 0.58882 0.0
C481 C 0.69155 0.13732 0.55419 0.0
C482 C 0.79084 0.10074 0.558 0.0
N483 N 0.7517 0.12601 0.54147 0.0
C484 C 0.73806 0.17195 0.66268 0.0
C485 C 0.63508 0.20076 0.64829 0.0
C486 C 0.77081 0.20654 0.66263 0.0
N487 N 0.6711 0.16963 0.6562 0.0
C488 C 0.66613 0.23585 0.64715 0.0
C489 C 0.73498 0.23937 0.65477 0.0
H490 H 0.76605 0.14681 0.66839 0.0
H491 H 0.58231 0.19869 0.6427 0.0
C492 C 0.49429 0.05545 0.57731 0.0
N493 N 0.55922 0.04884 0.5861 0.0
C494 C 0.46817 0.04088 0.54728 0.0
C495 C 0.5761 0.0126 0.53599 0.0
C496 C 0.60028 0.02798 0.56615 0.0
C497 C 0.50906 0.01894 0.52612 0.0
H498 H 0.46249 0.07176 0.59386 0.0
H499 H 0.6515 0.02273 0.57398 0.0
O500 O 0.63509 0.09726 0.70581 0.0
O501 O 0.58049 0.03189 0.66751 0.0
O502 O 0.5374 0.11065 0.64521 0.0
O503 O 0.68641 0.08225 0.63235 0.0
H504 H 0.76108 0.09794 0.72728 0.0
H505 H 0.57392 0.15816 0.72847 0.0
H506 H 0.81237 0.14865 0.76142 0.0
H507 H 0.62847 0.20792 0.7624 0.0
H508 H 0.63339 0.92533 0.61089 0.0
H509 H 0.45664 0.01036 0.65283 0.0
H510 H 0.66598 0.98204 0.64322 0.0
H511 H 0.42772 0.95327 0.6202 0.0
H512 H 0.45619 0.05479 0.79973 0.0
H513 H 0.31519 0.04643 0.71673 0.0
H514 H 0.90158 0.01985 0.70568 0.0
H515 H 0.74135 0.95775 0.75392 0.0
H516 H 0.50079 0.14245 0.58763 0.0
H517 H 0.4794 0.14691 0.69589 0.0
H518 H 0.426 0.19771 0.58304 0.0
H519 H 0.40531 0.20218 0.6894 0.0
H520 H 0.62087 0.13193 0.59502 0.0
H521 H 0.80059 0.06557 0.602 0.0
H522 H 0.66156 0.15747 0.54046 0.0
H523 H 0.83842 0.09228 0.54721 0.0
H524 H 0.82353 0.20737 0.66924 0.0
H525 H 0.6362 0.25986 0.64005 0.0
H526 H 0.41658 0.04705 0.54066 0.0
H527 H 0.60933 0.99539 0.52092 0.0
Li528 Li 0.41436 0.56782 0.88838 0.0
Li529 Li 0.37071 0.61964 0.85792 0.0
Li530 Li 0.33605 0.5566 0.84147 0.0
Li531 Li 0.45569 0.58053 0.83072 0.0
C532 C 0.29601 0.59696 0.91475 0.0
N533 N 0.25224 0.62605 0.97559 0.0
C534 C 0.33544 0.6229 0.93218 0.0
C535 C 0.23432 0.58578 0.92823 0.0
C536 C 0.31244 0.63731 0.96289 0.0
C537 C 0.21307 0.60081 0.95904 0.0
C538 C 0.5074 0.64123 0.87484 0.0
C539 C 0.57707 0.68893 0.84973 0.0
N540 N 0.5913 0.70243 0.88107 0.0
C541 C 0.52338 0.6553 0.90684 0.0
C542 C 0.53501 0.65791 0.84606 0.0
C543 C 0.56562 0.68637 0.90945 0.0
C544 C 0.5097 0.55543 0.93977 0.0
N545 N 0.44476 0.54884 0.93098 0.0
C546 C 0.42788 0.51261 0.98111 0.0
C547 C 0.40369 0.52799 0.95094 0.0
C548 C 0.49493 0.51894 0.99097 0.0
C549 C 0.53583 0.54087 0.9698 0.0
H550 H 0.5415 0.57174 0.92321 0.0
H551 H 0.35247 0.52274 0.94312 0.0
C552 C 0.26591 0.67195 0.8543 0.0
N553 N 0.33284 0.66961 0.86088 0.0
C554 C 0.23316 0.70654 0.85436 0.0
C555 C 0.33776 0.73582 0.87004 0.0
C556 C 0.36881 0.70072 0.8689 0.0
C557 C 0.26895 0.73935 0.86232 0.0
H558 H 0.23795 0.64681 0.84853 0.0
H559 H 0.42154 0.69864 0.87456 0.0
C560 C 0.4406 0.49999 0.86658 0.0
N561 N 0.47478 0.4368 0.90288 0.0
C562 C 0.50805 0.49186 0.87303 0.0
C563 C 0.39051 0.47593 0.87842 0.0
C564 C 0.52431 0.4598 0.8915 0.0
C565 C 0.40883 0.44411 0.89674 0.0
C566 C 0.34009 0.62457 0.79185 0.0
C567 C 0.27276 0.62165 0.78217 0.0
C568 C 0.3777 0.65559 0.78166 0.0
C569 C 0.24381 0.6502 0.76294 0.0
C570 C 0.34691 0.68359 0.7625 0.0
N571 N 0.28115 0.68036 0.75364 0.0
C572 C 0.20309 0.53255 0.82667 0.0
C573 C 0.29085 0.49912 0.79968 0.0
C574 C 0.15492 0.51276 0.80819 0.0
N575 N 0.26949 0.52585 0.8216 0.0
C576 C 0.2445 0.47853 0.78083 0.0
C577 C 0.17546 0.4858 0.78436 0.0
H578 H 0.18772 0.55437 0.84398 0.0
H579 H 0.34413 0.49459 0.79611 0.0
C580 C 0.59008 0.56645 0.81191 0.0
N581 N 0.52742 0.5736 0.79998 0.0
C582 C 0.64024 0.55386 0.78999 0.0
C583 C 0.56113 0.55801 0.74374 0.0
C584 C 0.51246 0.57039 0.76659 0.0
C585 C 0.62559 0.54853 0.7555 0.0
H586 H 0.60009 0.56874 0.83872 0.0
H587 H 0.46182 0.57582 0.75796 0.0
O588 O 0.31756 0.58223 0.88474 0.0
O589 O 0.46655 0.61065 0.87188 0.0
O590 O 0.42351 0.53188 0.84958 0.0
O591 O 0.36888 0.59724 0.81127 0.0
H592 H 0.38317 0.63186 0.92208 0.0
H593 H 0.20329 0.56564 0.91504 0.0
H594 H 0.34246 0.65745 0.97663 0.0
H595 H 0.16545 0.59239 0.96981 0.0
H596 H 0.59857 0.70219 0.82766 0.0
H597 H 0.50328 0.64242 0.92945 0.0
H598 H 0.52447 0.64693 0.82119 0.0
H599 H 0.57808 0.69768 0.93403 0.0
H600 H 0.39464 0.49541 0.99618 0.0
H601 H 0.58742 0.54703 0.97642 0.0
H602 H 0.18048 0.70738 0.84767 0.0
H603 H 0.36765 0.75982 0.87722 0.0
H604 H 0.54736 0.51035 0.86425 0.0
H605 H 0.33802 0.48204 0.87388 0.0
H606 H 0.57628 0.45327 0.89689 0.0
H607 H 0.37061 0.42533 0.90622 0.0
H608 H 0.24296 0.59778 0.78968 0.0
H609 H 0.42991 0.6582 0.78866 0.0
H610 H 0.19162 0.64843 0.75549 0.0
H611 H 0.37531 0.7079 0.75468 0.0
H612 H 0.10241 0.5198 0.81142 0.0
H613 H 0.26266 0.45773 0.76315 0.0
H614 H 0.68879 0.54644 0.80036 0.0
H615 H 0.54781 0.55483 0.71735 0.0
Li616 Li 0.08962 0.94835 0.8884 0.0
Li617 Li 0.13326 0.89652 0.85793 0.0
Li618 Li 0.16794 0.95957 0.84149 0.0
Li619 Li 0.04829 0.93565 0.83074 0.0
C620 C 0.20797 0.91919 0.91476 0.0
N621 N 0.25173 0.89007 0.97559 0.0
C622 C 0.16852 0.89325 0.93218 0.0
C623 C 0.26967 0.93034 0.92824 0.0
C624 C 0.19152 0.87883 0.96289 0.0
C625 C 0.29092 0.9153 0.95905 0.0
C626 C 0.99657 0.87494 0.87483 0.0
C627 C 0.9269 0.82726 0.84971 0.0
N628 N 0.91265 0.81375 0.88105 0.0
C629 C 0.98058 0.86087 0.90683 0.0
C630 C 0.96897 0.85827 0.84605 0.0
C631 C 0.93833 0.8298 0.90943 0.0
C632 C 0.99429 0.96073 0.93978 0.0
N633 N 0.05923 0.96732 0.931 0.0
C634 C 0.07612 1.00354 0.98113 0.0
C635 C 0.1003 0.98817 0.95096 0.0
C636 C 0.00906 0.99722 0.99099 0.0
C637 C 0.96817 0.97529 0.96981 0.0
H638 H 0.96249 0.94443 0.92322 0.0
H639 H 0.15152 0.99341 0.94315 0.0
C640 C 0.23805 0.84422 0.8543 0.0
N641 N 0.17113 0.84656 0.86088 0.0
C642 C 0.2708 0.80962 0.85436 0.0
C643 C 0.1662 0.78035 0.87004 0.0
C644 C 0.13515 0.81544 0.8689 0.0
C645 C 0.235 0.77682 0.86232 0.0
H646 H 0.26601 0.86935 0.84852 0.0
H647 H 0.08242 0.81752 0.87457 0.0
C648 C 0.0634 0.01618 0.86661 0.0
N649 N 0.02922 0.07937 0.90291 0.0
C650 C 0.99594 0.02431 0.87306 0.0
C651 C 0.11349 0.04023 0.87845 0.0
C652 C 0.97969 0.05637 0.89153 0.0
C653 C 0.09516 0.07205 0.89677 0.0
C654 C 0.16389 0.89161 0.79186 0.0
C655 C 0.23122 0.89454 0.78217 0.0
C656 C 0.12628 0.86059 0.78166 0.0
C657 C 0.26016 0.86599 0.76294 0.0
C658 C 0.15706 0.8326 0.76249 0.0
N659 N 0.22283 0.83583 0.75363 0.0
C660 C 0.3009 0.98362 0.82669 0.0
C661 C 0.21314 0.01705 0.7997 0.0
C662 C 0.34907 1.00341 0.80821 0.0
N663 N 0.23451 0.99032 0.82162 0.0
C664 C 0.25949 0.03763 0.78085 0.0
C665 C 0.32853 0.03037 0.78438 0.0
H666 H 0.31627 0.96179 0.844 0.0
H667 H 0.15986 0.02158 0.79614 0.0
C668 C 0.9139 0.94973 0.81193 0.0
N669 N 0.97656 0.9426 0.8 0.0
C670 C 0.86375 0.96234 0.79001 0.0
C671 C 0.94287 0.95823 0.74376 0.0
C672 C 0.99154 0.94583 0.76661 0.0
C673 C 0.87841 0.96769 0.75551 0.0
H674 H 0.90389 0.94743 0.83873 0.0
H675 H 0.04218 0.94041 0.75797 0.0
O676 O 0.18643 0.93393 0.88475 0.0
O677 O 0.03742 0.90552 0.87189 0.0
O678 O 0.08049 0.98429 0.8496 0.0
O679 O 0.1351 0.91893 0.81128 0.0
H680 H 0.12078 0.88431 0.92209 0.0
H681 H 0.30072 0.95048 0.91505 0.0
H682 H 0.16148 0.8587 0.97663 0.0
H683 H 0.33856 0.9237 0.96981 0.0
H684 H 0.9054 0.814 0.82763 0.0
H685 H 1.00067 0.87373 0.92944 0.0
H686 H 0.97951 0.86926 0.82118 0.0
H687 H 0.92586 0.81848 0.93401 0.0
H688 H 0.10936 0.02075 0.9962 0.0
H689 H 0.91657 0.96914 0.97643 0.0
H690 H 0.32347 0.80878 0.84767 0.0
H691 H 0.13631 0.75635 0.87722 0.0
H692 H 0.95664 1.00582 0.86428 0.0
H693 H 0.16598 0.03413 0.87391 0.0
H694 H 0.92771 0.0629 0.89692 0.0
H695 H 0.13339 0.09083 0.90625 0.0
H696 H 0.26102 0.9184 0.78969 0.0
H697 H 0.07407 0.85798 0.78866 0.0
H698 H 0.31235 0.86776 0.75549 0.0
H699 H 0.12867 0.80829 0.75467 0.0
H700 H 0.40158 0.99637 0.81144 0.0
H701 H 0.24133 0.05844 0.76317 0.0
H702 H 0.8152 0.96975 0.80038 0.0
H703 H 0.9562 0.96142 0.71737 0.0
loop_
_geom_bond_atom_site_label_1
_geom_bond_atom_site_label_2
_geom_bond_distance
_geom_bond_site_symmetry_2
_ccdc_geom_bond_type
Li0 N17 1.990 1_455 S
Li0 O60 1.956 . S
Li0 O61 1.970 . S
Li0 O62 1.961 . S
Li1 N25 1.990 . S
Li1 O60 1.970 . S
Li1 O61 1.956 . S
Li1 O63 1.961 . S
Li2 N47 1.990 . S
Li2 O60 1.961 . S
Li2 O62 1.956 . S
Li2 O63 1.970 . S
Li3 N53 1.990 . S
Li3 O61 1.961 . S
Li3 O62 1.970 . S
Li3 O63 1.956 . S
C4 C6 1.348 1_455 S
C4 C7 1.356 1_455 S
C4 O60 1.325 . S
N5 C8 1.314 . S
N5 C9 1.279 . S
C6 C4 1.348 1_655 S
C6 C8 1.353 . S
C6 H64 0.929 . S
C7 C4 1.356 1_655 S
C7 C9 1.358 . S
C7 H65 0.930 . S
C8 N5 1.314 . S
C8 C6 1.353 . S
C8 H66 0.930 . S
C9 N5 1.279 . S
C9 C7 1.358 . S
C9 H67 0.930 . S
C10 C13 1.348 . S
C10 C14 1.356 . S
C10 O61 1.325 . S
C11 N12 1.279 . S
C11 C14 1.358 . S
C11 H68 0.930 . S
N12 C11 1.279 . S
N12 C15 1.314 . S
C13 C10 1.348 . S
C13 C15 1.353 . S
C13 H69 0.929 . S
C14 C10 1.356 . S
C14 C11 1.358 . S
C14 H70 0.930 . S
C15 N12 1.314 . S
C15 C13 1.353 . S
C15 H71 0.930 1_455 S
C16 N17 1.314 . S
C16 C21 1.353 . S
C16 H22 0.930 1_655 S
N17 Li0 1.990 1_655 S
N17 C16 1.314 . S
N17 C19 1.279 . S
C18 C19 1.358 . S
C18 C20 1.356 . S
C18 H72 0.930 . S
C19 N17 1.279 . S
C19 C18 1.358 . S
C19 H23 0.930 . S
C20 C18 1.356 . S
C20 C21 1.348 . S
C21 C16 1.353 . S
C21 C20 1.348 . S
C21 H73 0.929 . S
H22 C16 0.930 1_455 S
H23 C19 0.930 . S
C24 N25 1.314 . S
C24 C26 1.353 . S
C24 H30 0.930 . S
N25 Li1 1.990 . S
N25 C24 1.314 . S
N25 C28 1.279 . S
C26 C24 1.353 . S
C26 C29 1.348 . S
C26 H74 0.929 . S
C27 C28 1.358 . S
C27 C29 1.356 . S
C27 H75 0.930 . S
C28 N25 1.279 . S
C28 C27 1.358 . S
C28 H31 0.930 . S
C29 C26 1.348 . S
C29 C27 1.356 . S
H30 C24 0.930 . S
H31 C28 0.930 . S
C32 C34 1.348 . S
C32 C35 1.356 . S
C32 O62 1.325 . S
N33 C36 1.314 . S
N33 C37 1.279 . S
C34 C32 1.348 . S
C34 C36 1.353 . S
C34 H76 0.929 . S
C35 C32 1.356 . S
C35 C37 1.358 . S
C35 H77 0.930 . S
C36 N33 1.314 . S
C36 C34 1.353 . S
C36 H78 0.930 . S
C37 N33 1.279 . S
C37 C35 1.358 . S
C37 H79 0.930 . S
C38 C39 1.348 . S
C38 C40 1.356 . S
C38 O63 1.325 . S
C39 C38 1.348 . S
C39 C41 1.353 . S
C39 H80 0.929 . S
C40 C38 1.356 . S
C40 C42 1.358 . S
C40 H81 0.930 . S
C41 C39 1.353 . S
C41 N43 1.314 . S
C41 H82 0.930 . S
C42 C40 1.358 . S
C42 N43 1.279 . S
C42 H83 0.930 . S
N43 C41 1.314 . S
N43 C42 1.279 . S
C44 C46 1.353 . S
C44 N47 1.314 . S
C44 H50 0.930 . S
C45 N47 1.279 . S
C45 C48 1.358 . S
C45 H51 0.930 . S
C46 C44 1.353 . S
C46 C49 1.348 . S
C46 H84 0.929 . S
N47 Li2 1.990 . S
N47 C44 1.314 . S
N47 C45 1.279 . S
C48 C45 1.358 . S
C48 C49 1.356 . S
C48 H85 0.930 . S
C49 C46 1.348 . S
C49 C48 1.356 . S
H50 C44 0.930 . S
H51 C45 0.930 . S
C52 N53 1.314 . S
C52 C54 1.353 . S
C52 H58 0.930 . S
N53 Li3 1.990 . S
N53 C52 1.314 . S
N53 C56 1.279 . S
C54 C52 1.353 . S
C54 C57 1.348 . S
C54 H86 0.929 . S
C55 C56 1.358 . S
C55 C57 1.356 . S
C55 H87 0.930 . S
C56 N53 1.279 . S
C56 C55 1.358 . S
C56 H59 0.930 . S
C57 C54 1.348 . S
C57 C55 1.356 . S
H58 C52 0.930 . S
H59 C56 0.930 . S
O60 Li0 1.956 . S
O60 Li1 1.970 . S
O60 Li2 1.961 . S
O60 C4 1.325 . S
O61 Li0 1.970 . S
O61 Li1 1.956 . S
O61 Li3 1.961 . S
O61 C10 1.325 . S
O62 Li0 1.961 . S
O62 Li2 1.956 . S
O62 Li3 1.970 . S
O62 C32 1.325 . S
O63 Li1 1.961 . S
O63 Li2 1.970 . S
O63 Li3 1.956 . S
O63 C38 1.325 . S
H64 C6 0.929 . S
H65 C7 0.930 . S
H66 C8 0.930 . S
H67 C9 0.930 . S
H68 C11 0.930 . S
H69 C13 0.929 . S
H70 C14 0.930 . S
H71 C15 0.930 1_655 S
H72 C18 0.930 . S
H73 C21 0.929 . S
H74 C26 0.929 . S
H75 C27 0.930 . S
H76 C34 0.929 . S
H77 C35 0.930 . S
H78 C36 0.930 . S
H79 C37 0.930 . S
H80 C39 0.929 . S
H81 C40 0.930 . S
H82 C41 0.930 . S
H83 C42 0.930 . S
H84 C46 0.929 . S
H85 C48 0.930 . S
H86 C54 0.929 . S
H87 C55 0.930 . S
Li88 N105 1.990 . S
Li88 O148 1.956 . S
Li88 O149 1.970 . S
Li88 O150 1.961 . S
Li89 N113 1.990 . S
Li89 O148 1.970 . S
Li89 O149 1.956 . S
Li89 O151 1.961 . S
Li90 N135 1.990 . S
Li90 O148 1.961 . S
Li90 O150 1.956 . S
Li90 O151 1.970 . S
Li91 N141 1.990 . S
Li91 O149 1.961 . S
Li91 O150 1.970 . S
Li91 O151 1.956 . S
C92 C94 1.348 . S
C92 C95 1.356 . S
C92 O148 1.325 . S
N93 C96 1.314 . S
N93 C97 1.279 . S
C94 C92 1.348 . S
C94 C96 1.353 . S
C94 H152 0.929 . S
C95 C92 1.356 . S
C95 C97 1.358 . S
C95 H153 0.930 . S
C96 N93 1.314 . S
C96 C94 1.353 . S
C96 H154 0.930 . S
C97 N93 1.279 . S
C97 C95 1.358 . S
C97 H155 0.930 . S
C98 C101 1.348 . S
C98 C102 1.356 . S
C98 O149 1.325 . S
C99 N100 1.279 . S
C99 C102 1.358 . S
C99 H156 0.930 . S
N100 C99 1.279 . S
N100 C103 1.314 . S
C101 C98 1.348 . S
C101 C103 1.353 . S
C101 H157 0.929 . S
C102 C98 1.356 . S
C102 C99 1.358 . S
C102 H158 0.930 . S
C103 N100 1.314 . S
C103 C101 1.353 . S
C103 H159 0.930 . S
C104 N105 1.314 1_545 S
C104 C109 1.353 . S
C104 H110 0.930 . S
N105 Li88 1.990 . S
N105 C104 1.314 1_565 S
N105 C107 1.279 . S
C106 C107 1.358 . S
C106 C108 1.356 1_565 S
C106 H160 0.930 . S
C107 N105 1.279 . S
C107 C106 1.358 . S
C107 H111 0.930 . S
C108 C106 1.356 1_545 S
C108 C109 1.348 . S
C109 C104 1.353 . S
C109 C108 1.348 . S
C109 H161 0.929 . S
H110 C104 0.930 . S
H111 C107 0.930 . S
C112 N113 1.314 . S
C112 C114 1.353 . S
C112 H118 0.930 . S
N113 Li89 1.990 . S
N113 C112 1.314 . S
N113 C116 1.279 . S
C114 C112 1.353 . S
C114 C117 1.348 . S
C114 H162 0.929 . S
C115 C116 1.358 . S
C115 C117 1.356 . S
C115 H163 0.930 . S
C116 N113 1.279 . S
C116 C115 1.358 . S
C116 H119 0.930 . S
C117 C114 1.348 . S
C117 C115 1.356 . S
H118 C112 0.930 . S
H119 C116 0.930 . S
C120 C122 1.348 . S
C120 C123 1.356 . S
C120 O150 1.325 1_545 S
N121 C124 1.314 . S
N121 C125 1.279 . S
C122 C120 1.348 . S
C122 C124 1.353 . S
C122 H164 0.929 . S
C123 C120 1.356 . S
C123 C125 1.358 . S
C123 H165 0.930 . S
C124 N121 1.314 . S
C124 C122 1.353 . S
C124 H166 0.930 . S
C125 N121 1.279 . S
C125 C123 1.358 . S
C125 H167 0.930 . S
C126 C127 1.348 . S
C126 C128 1.356 . S
C126 O151 1.325 . S
C127 C126 1.348 . S
C127 C129 1.353 . S
C127 H168 0.929 . S
C128 C126 1.356 . S
C128 C130 1.358 . S
C128 H169 0.930 . S
C129 C127 1.353 . S
C129 N131 1.314 . S
C129 H170 0.930 . S
C130 C128 1.358 . S
C130 N131 1.279 . S
C130 H171 0.930 . S
N131 C129 1.314 . S
N131 C130 1.279 . S
C132 C134 1.353 . S
C132 N135 1.314 . S
C132 H138 0.930 . S
C133 N135 1.279 1_545 S
C133 C136 1.358 . S
C133 H139 0.930 . S
C134 C132 1.353 . S
C134 C137 1.348 . S
C134 H172 0.929 . S
N135 Li90 1.990 . S
N135 C132 1.314 . S
N135 C133 1.279 1_565 S
C136 C133 1.358 . S
C136 C137 1.356 1_545 S
C136 H173 0.930 . S
C137 C134 1.348 . S
C137 C136 1.356 1_565 S
H138 C132 0.930 . S
H139 C133 0.930 . S
C140 N141 1.314 . S
C140 C142 1.353 . S
C140 H146 0.930 . S
N141 Li91 1.990 . S
N141 C140 1.314 . S
N141 C144 1.279 . S
C142 C140 1.353 . S
C142 C145 1.348 . S
C142 H174 0.929 . S
C143 C144 1.358 . S
C143 C145 1.356 . S
C143 H175 0.930 . S
C144 N141 1.279 . S
C144 C143 1.358 . S
C144 H147 0.930 . S
C145 C142 1.348 . S
C145 C143 1.356 . S
H146 C140 0.930 . S
H147 C144 0.930 . S
O148 Li88 1.956 . S
O148 Li89 1.970 . S
O148 Li90 1.961 . S
O148 C92 1.325 . S
O149 Li88 1.970 . S
O149 Li89 1.956 . S
O149 Li91 1.961 . S
O149 C98 1.325 . S
O150 Li88 1.961 . S
O150 Li90 1.956 . S
O150 Li91 1.970 . S
O150 C120 1.325 1_565 S
O151 Li89 1.961 . S
O151 Li90 1.970 . S
O151 Li91 1.956 . S
O151 C126 1.325 . S
H152 C94 0.929 . S
H153 C95 0.930 . S
H154 C96 0.930 . S
H155 C97 0.930 . S
H156 C99 0.930 . S
H157 C101 0.929 . S
H158 C102 0.930 . S
H159 C103 0.930 . S
H160 C106 0.930 . S
H161 C109 0.929 . S
H162 C114 0.929 . S
H163 C115 0.930 . S
H164 C122 0.929 . S
H165 C123 0.930 . S
H166 C124 0.930 . S
H167 C125 0.930 . S
H168 C127 0.929 . S
H169 C128 0.930 . S
H170 C129 0.930 . S
H171 C130 0.930 . S
H172 C134 0.929 . S
H173 C136 0.930 . S
H174 C142 0.929 . S
H175 C143 0.930 . S
Li176 N193 1.990 . S
Li176 O236 1.956 . S
Li176 O237 1.970 . S
Li176 O238 1.961 . S
Li177 N201 1.990 . S
Li177 O236 1.970 . S
Li177 O237 1.956 . S
Li177 O239 1.961 . S
Li178 N223 1.990 . S
Li178 O236 1.961 . S
Li178 O238 1.956 . S
Li178 O239 1.970 . S
Li179 N229 1.990 . S
Li179 O237 1.961 . S
Li179 O238 1.970 . S
Li179 O239 1.956 . S
C180 C182 1.348 . S
C180 C183 1.356 . S
C180 O236 1.325 . S
N181 C184 1.314 . S
N181 C185 1.279 . S
C182 C180 1.348 . S
C182 C184 1.353 . S
C182 H240 0.929 . S
C183 C180 1.356 . S
C183 C185 1.358 . S
C183 H241 0.930 . S
C184 N181 1.314 . S
C184 C182 1.353 . S
C184 H242 0.930 . S
C185 N181 1.279 . S
C185 C183 1.358 . S
C185 H243 0.930 . S
C186 C189 1.348 . S
C186 C190 1.356 . S
C186 O237 1.325 . S
C187 N188 1.279 . S
C187 C190 1.358 . S
C187 H244 0.930 . S
N188 C187 1.279 . S
N188 C191 1.314 . S
C189 C186 1.348 . S
C189 C191 1.353 . S
C189 H245 0.929 . S
C190 C186 1.356 . S
C190 C187 1.358 . S
C190 H246 0.930 . S
C191 N188 1.314 . S
C191 C189 1.353 . S
C191 H247 0.930 . S
C192 N193 1.314 . S
C192 C197 1.353 . S
C192 H198 0.930 . S
N193 Li176 1.990 . S
N193 C192 1.314 . S
N193 C195 1.279 . S
C194 C195 1.358 . S
C194 C196 1.356 . S
C194 H248 0.930 . S
C195 N193 1.279 . S
C195 C194 1.358 . S
C195 H199 0.930 . S
C196 C194 1.356 . S
C196 C197 1.348 . S
C197 C192 1.353 . S
C197 C196 1.348 . S
C197 H249 0.929 . S
H198 C192 0.930 . S
H199 C195 0.930 . S
C200 N201 1.314 . S
C200 C202 1.353 . S
C200 H206 0.930 . S
N201 Li177 1.990 . S
N201 C200 1.314 . S
N201 C204 1.279 . S
C202 C200 1.353 . S
C202 C205 1.348 . S
C202 H250 0.929 . S
C203 C204 1.358 . S
C203 C205 1.356 . S
C203 H251 0.930 . S
C204 N201 1.279 . S
C204 C203 1.358 . S
C204 H207 0.930 . S
C205 C202 1.348 . S
C205 C203 1.356 . S
H206 C200 0.930 . S
H207 C204 0.930 . S
C208 C210 1.348 . S
C208 C211 1.356 . S
C208 O238 1.325 . S
N209 C212 1.314 . S
N209 C213 1.279 . S
C210 C208 1.348 . S
C210 C212 1.353 . S
C210 H252 0.929 . S
C211 C208 1.356 . S
C211 C213 1.358 . S
C211 H253 0.930 . S
C212 N209 1.314 . S
C212 C210 1.353 . S
C212 H254 0.930 . S
C213 N209 1.279 . S
C213 C211 1.358 . S
C213 H255 0.930 . S
C214 C215 1.348 . S
C214 C216 1.356 . S
C214 O239 1.325 . S
C215 C214 1.348 . S
C215 C217 1.353 . S
C215 H256 0.929 . S
C216 C214 1.356 . S
C216 C218 1.358 . S
C216 H257 0.930 . S
C217 C215 1.353 . S
C217 N219 1.314 . S
C217 H258 0.930 . S
C218 C216 1.358 . S
C218 N219 1.279 . S
C218 H259 0.930 . S
N219 C217 1.314 . S
N219 C218 1.279 . S
C220 C222 1.353 . S
C220 N223 1.314 . S
C220 H226 0.930 . S
C221 N223 1.279 . S
C221 C224 1.358 . S
C221 H227 0.930 . S
C222 C220 1.353 . S
C222 C225 1.348 . S
C222 H260 0.929 1_554 S
N223 Li178 1.990 . S
N223 C220 1.314 . S
N223 C221 1.279 . S
C224 C221 1.358 . S
C224 C225 1.356 . S
C224 H261 0.930 . S
C225 C222 1.348 . S
C225 C224 1.356 . S
H226 C220 0.930 . S
H227 C221 0.930 . S
C228 N229 1.314 . S
C228 C230 1.353 . S
C228 H234 0.930 . S
N229 Li179 1.990 . S
N229 C228 1.314 . S
N229 C232 1.279 . S
C230 C228 1.353 . S
C230 C233 1.348 . S
C230 H262 0.929 . S
C231 C232 1.358 . S
C231 C233 1.356 . S
C231 H263 0.930 . S
C232 N229 1.279 . S
C232 C231 1.358 . S
C232 H235 0.930 . S
C233 C230 1.348 . S
C233 C231 1.356 . S
H234 C228 0.930 . S
H235 C232 0.930 . S
O236 Li176 1.956 . S
O236 Li177 1.970 . S
O236 Li178 1.961 . S
O236 C180 1.325 . S
O237 Li176 1.970 . S
O237 Li177 1.956 . S
O237 Li179 1.961 . S
O237 C186 1.325 . S
O238 Li176 1.961 . S
O238 Li178 1.956 . S
O238 Li179 1.970 . S
O238 C208 1.325 . S
O239 Li177 1.961 . S
O239 Li178 1.970 . S
O239 Li179 1.956 . S
O239 C214 1.325 . S
H240 C182 0.929 . S
H241 C183 0.930 . S
H242 C184 0.930 . S
H243 C185 0.930 . S
H244 C187 0.930 . S
H245 C189 0.929 . S
H246 C190 0.930 . S
H247 C191 0.930 . S
H248 C194 0.930 . S
H249 C197 0.929 . S
H250 C202 0.929 . S
H251 C203 0.930 . S
H252 C210 0.929 . S
H253 C211 0.930 . S
H254 C212 0.930 . S
H255 C213 0.930 . S
H256 C215 0.929 . S
H257 C216 0.930 . S
H258 C217 0.930 . S
H259 C218 0.930 . S
H260 C222 0.929 1_556 S
H261 C224 0.930 . S
H262 C230 0.929 . S
H263 C231 0.930 . S
Li264 N281 1.990 . S
Li264 O324 1.956 . S
Li264 O325 1.970 . S
Li264 O326 1.961 . S
Li265 N289 1.990 . S
Li265 O324 1.970 . S
Li265 O325 1.956 . S
Li265 O327 1.961 . S
Li266 N311 1.990 . S
Li266 O324 1.961 . S
Li266 O326 1.956 . S
Li266 O327 1.970 . S
Li267 N317 1.990 1_655 S
Li267 O325 1.961 . S
Li267 O326 1.970 . S
Li267 O327 1.956 . S
C268 C270 1.348 . S
C268 C271 1.356 . S
C268 O324 1.325 . S
N269 C272 1.314 . S
N269 C273 1.279 . S
C270 C268 1.348 . S
C270 C272 1.353 . S
C270 H328 0.929 . S
C271 C268 1.356 . S
C271 C273 1.358 . S
C271 H329 0.930 . S
C272 N269 1.314 . S
C272 C270 1.353 . S
C272 H330 0.930 . S
C273 N269 1.279 . S
C273 C271 1.358 . S
C273 H331 0.930 . S
C274 C277 1.348 . S
C274 C278 1.356 . S
C274 O325 1.325 . S
C275 N276 1.279 . S
C275 C278 1.358 . S
C275 H332 0.930 . S
N276 C275 1.279 . S
N276 C279 1.314 . S
C277 C274 1.348 . S
C277 C279 1.353 . S
C277 H333 0.929 . S
C278 C274 1.356 . S
C278 C275 1.358 . S
C278 H334 0.930 . S
C279 N276 1.314 . S
C279 C277 1.353 . S
C279 H335 0.930 . S
C280 N281 1.314 1_565 S
C280 C285 1.353 . S
C280 H286 0.930 . S
N281 Li264 1.990 . S
N281 C280 1.314 1_545 S
N281 C283 1.279 . S
C282 C283 1.358 . S
C282 C284 1.356 1_545 S
C282 H336 0.930 . S
C283 N281 1.279 . S
C283 C282 1.358 . S
C283 H287 0.930 . S
C284 C282 1.356 1_565 S
C284 C285 1.348 . S
C285 C280 1.353 . S
C285 C284 1.348 . S
C285 H337 0.929 . S
H286 C280 0.930 . S
H287 C283 0.930 . S
C288 N289 1.314 . S
C288 C290 1.353 . S
C288 H294 0.930 . S
N289 Li265 1.990 . S
N289 C288 1.314 . S
N289 C292 1.279 . S
C290 C288 1.353 . S
C290 C293 1.348 . S
C290 H338 0.929 . S
C291 C292 1.358 . S
C291 C293 1.356 . S
C291 H339 0.930 . S
C292 N289 1.279 . S
C292 C291 1.358 . S
C292 H295 0.930 . S
C293 C290 1.348 . S
C293 C291 1.356 . S
H294 C288 0.930 . S
H295 C292 0.930 . S
C296 C298 1.348 . S
C296 C299 1.356 . S
C296 O326 1.325 1_565 S
N297 C300 1.314 . S
N297 C301 1.279 . S
C298 C296 1.348 . S
C298 C300 1.353 . S
C298 H340 0.929 . S
C299 C296 1.356 . S
C299 C301 1.358 . S
C299 H341 0.930 . S
C300 N297 1.314 . S
C300 C298 1.353 . S
C300 H342 0.930 1_655 S
C301 N297 1.279 . S
C301 C299 1.358 . S
C301 H343 0.930 . S
C302 C303 1.348 1_655 S
C302 C304 1.356 1_655 S
C302 O327 1.325 . S
C303 C302 1.348 1_455 S
C303 C305 1.353 . S
C303 H344 0.929 . S
C304 C302 1.356 1_455 S
C304 C306 1.358 . S
C304 H345 0.930 . S
C305 C303 1.353 . S
C305 N307 1.314 . S
C305 H346 0.930 . S
C306 C304 1.358 . S
C306 N307 1.279 . S
C306 H347 0.930 . S
N307 C305 1.314 . S
N307 C306 1.279 . S
C308 C310 1.353 . S
C308 N311 1.314 . S
C308 H314 0.930 . S
C309 N311 1.279 1_565 S
C309 C312 1.358 . S
C309 H315 0.930 . S
C310 C308 1.353 . S
C310 C313 1.348 . S
C310 H348 0.929 1_554 S
N311 Li266 1.990 . S
N311 C308 1.314 . S
N311 C309 1.279 1_545 S
C312 C309 1.358 . S
C312 C313 1.356 1_565 S
C312 H349 0.930 . S
C313 C310 1.348 . S
C313 C312 1.356 1_545 S
H314 C308 0.930 . S
H315 C309 0.930 . S
C316 N317 1.314 . S
C316 C318 1.353 . S
C316 H322 0.930 1_455 S
N317 Li267 1.990 1_455 S
N317 C316 1.314 . S
N317 C320 1.279 . S
C318 C316 1.353 . S
C318 C321 1.348 . S
C318 H350 0.929 . S
C319 C320 1.358 . S
C319 C321 1.356 . S
C319 H351 0.930 . S
C320 N317 1.279 . S
C320 C319 1.358 . S
C320 H323 0.930 . S
C321 C318 1.348 . S
C321 C319 1.356 . S
H322 C316 0.930 1_655 S
H323 C320 0.930 . S
O324 Li264 1.956 . S
O324 Li265 1.970 . S
O324 Li266 1.961 . S
O324 C268 1.325 . S
O325 Li264 1.970 . S
O325 Li265 1.956 . S
O325 Li267 1.961 . S
O325 C274 1.325 . S
O326 Li264 1.961 . S
O326 Li266 1.956 . S
O326 Li267 1.970 . S
O326 C296 1.325 1_545 S
O327 Li265 1.961 . S
O327 Li266 1.970 . S
O327 Li267 1.956 . S
O327 C302 1.325 . S
H328 C270 0.929 . S
H329 C271 0.930 . S
H330 C272 0.930 . S
H331 C273 0.930 . S
H332 C275 0.930 . S
H333 C277 0.929 . S
H334 C278 0.930 . S
H335 C279 0.930 . S
H336 C282 0.930 . S
H337 C285 0.929 . S
H338 C290 0.929 . S
H339 C291 0.930 . S
H340 C298 0.929 . S
H341 C299 0.930 . S
H342 C300 0.930 1_455 S
H343 C301 0.930 . S
H344 C303 0.929 . S
H345 C304 0.930 . S
H346 C305 0.930 . S
H347 C306 0.930 . S
H348 C310 0.929 1_556 S
H349 C312 0.930 . S
H350 C318 0.929 . S
H351 C319 0.930 . S
Li352 N369 1.990 . S
Li352 O412 1.956 . S
Li352 O413 1.970 . S
Li352 O414 1.961 . S
Li353 N377 1.990 1_655 S
Li353 O412 1.970 . S
Li353 O413 1.956 . S
Li353 O415 1.961 . S
Li354 N399 1.990 . S
Li354 O412 1.961 . S
Li354 O414 1.956 . S
Li354 O415 1.970 . S
Li355 N405 1.990 . S
Li355 O413 1.961 . S
Li355 O414 1.970 . S
Li355 O415 1.956 . S
C356 C358 1.348 . S
C356 C359 1.356 . S
C356 O412 1.325 . S
N357 C360 1.314 . S
N357 C361 1.279 . S
C358 C356 1.348 . S
C358 C360 1.353 . S
C358 H416 0.929 . S
C359 C356 1.356 . S
C359 C361 1.358 . S
C359 H417 0.930 . S
C360 N357 1.314 . S
C360 C358 1.353 . S
C360 H418 0.930 . S
C361 N357 1.279 . S
C361 C359 1.358 . S
C361 H419 0.930 . S
C362 C365 1.348 . S
C362 C366 1.356 . S
C362 O413 1.325 . S
C363 N364 1.279 . S
C363 C366 1.358 . S
C363 H420 0.930 . S
N364 C363 1.279 . S
N364 C367 1.314 . S
C365 C362 1.348 . S
C365 C367 1.353 . S
C365 H421 0.929 . S
C366 C362 1.356 . S
C366 C363 1.358 . S
C366 H422 0.930 . S
C367 N364 1.314 . S
C367 C365 1.353 . S
C367 H423 0.930 . S
C368 N369 1.314 . S
C368 C373 1.353 . S
C368 H374 0.930 . S
N369 Li352 1.990 . S
N369 C368 1.314 . S
N369 C371 1.279 . S
C370 C371 1.358 . S
C370 C372 1.356 . S
C370 H424 0.930 . S
C371 N369 1.279 . S
C371 C370 1.358 . S
C371 H375 0.930 . S
C372 C370 1.356 . S
C372 C373 1.348 . S
C373 C368 1.353 . S
C373 C372 1.348 . S
C373 H425 0.929 . S
H374 C368 0.930 . S
H375 C371 0.930 . S
C376 N377 1.314 . S
C376 C378 1.353 . S
C376 H382 0.930 . S
N377 Li353 1.990 1_455 S
N377 C376 1.314 . S
N377 C380 1.279 . S
C378 C376 1.353 . S
C378 C381 1.348 . S
C378 H426 0.929 . S
C379 C380 1.358 . S
C379 C381 1.356 . S
C379 H427 0.930 . S
C380 N377 1.279 . S
C380 C379 1.358 . S
C380 H383 0.930 1_455 S
C381 C378 1.348 . S
C381 C379 1.356 . S
H382 C376 0.930 . S
H383 C380 0.930 1_655 S
C384 C386 1.348 . S
C384 C387 1.356 . S
C384 O414 1.325 . S
N385 C388 1.314 . S
N385 C389 1.279 . S
C386 C384 1.348 . S
C386 C388 1.353 . S
C386 H428 0.929 . S
C387 C384 1.356 . S
C387 C389 1.358 . S
C387 H429 0.930 . S
C388 N385 1.314 . S
C388 C386 1.353 . S
C388 H430 0.930 . S
C389 N385 1.279 . S
C389 C387 1.358 . S
C389 H431 0.930 . S
C390 C391 1.348 1_655 S
C390 C392 1.356 1_655 S
C390 O415 1.325 . S
C391 C390 1.348 1_455 S
C391 C393 1.353 . S
C391 H432 0.929 1_455 S
C392 C390 1.356 1_455 S
C392 C394 1.358 . S
C392 H433 0.930 . S
C393 C391 1.353 . S
C393 N395 1.314 . S
C393 H434 0.930 . S
C394 C392 1.358 . S
C394 N395 1.279 . S
C394 H435 0.930 . S
N395 C393 1.314 . S
N395 C394 1.279 . S
C396 C398 1.353 . S
C396 N399 1.314 . S
C396 H402 0.930 . S
C397 N399 1.279 . S
C397 C400 1.358 . S
C397 H403 0.930 . S
C398 C396 1.353 . S
C398 C401 1.348 . S
C398 H436 0.919 1_655 S
N399 Li354 1.990 . S
N399 C396 1.314 . S
N399 C397 1.279 . S
C400 C397 1.358 . S
C400 C401 1.356 . S
C400 H437 0.930 . S
C401 C398 1.348 . S
C401 C400 1.356 . S
H402 C396 0.930 . S
H403 C397 0.930 . S
C404 N405 1.314 . S
C404 C406 1.353 . S
C404 H410 0.930 . S
N405 Li355 1.990 . S
N405 C404 1.314 . S
N405 C408 1.279 . S
C406 C404 1.353 . S
C406 C409 1.348 . S
C406 H438 0.929 . S
C407 C408 1.358 . S
C407 C409 1.356 . S
C407 H439 0.930 . S
C408 N405 1.279 . S
C408 C407 1.358 . S
C408 H411 0.930 . S
C409 C406 1.348 . S
C409 C407 1.356 . S
H410 C404 0.930 . S
H411 C408 0.930 . S
O412 Li352 1.956 . S
O412 Li353 1.970 . S
O412 Li354 1.961 . S
O412 C356 1.325 . S
O413 Li352 1.970 . S
O413 Li353 1.956 . S
O413 Li355 1.961 . S
O413 C362 1.325 . S
O414 Li352 1.961 . S
O414 Li354 1.956 . S
O414 Li355 1.970 . S
O414 C384 1.325 . S
O415 Li353 1.961 . S
O415 Li354 1.970 . S
O415 Li355 1.956 . S
O415 C390 1.325 . S
H416 C358 0.929 . S
H417 C359 0.930 . S
H418 C360 0.930 . S
H419 C361 0.930 . S
H420 C363 0.930 . S
H421 C365 0.929 . S
H422 C366 0.930 . S
H423 C367 0.930 . S
H424 C370 0.930 . S
H425 C373 0.929 . S
H426 C378 0.929 . S
H427 C379 0.930 . S
H428 C386 0.929 . S
H429 C387 0.930 . S
H430 C388 0.930 . S
H431 C389 0.930 . S
H432 C391 0.929 1_655 S
H433 C392 0.930 . S
H434 C393 0.930 . S
H435 C394 0.930 . S
H436 C398 0.919 1_455 S
H437 C400 0.930 . S
H438 C406 0.929 . S
H439 C407 0.930 . S
Li440 N457 1.990 . S
Li440 O500 1.956 . S
Li440 O501 1.970 . S
Li440 O502 1.961 . S
Li441 N465 1.990 . S
Li441 O500 1.970 . S
Li441 O501 1.956 . S
Li441 O503 1.961 . S
Li442 N487 1.990 . S
Li442 O500 1.961 . S
Li442 O502 1.956 . S
Li442 O503 1.970 . S
Li443 N493 1.990 . S
Li443 O501 1.961 . S
Li443 O502 1.970 . S
Li443 O503 1.956 . S
C444 C446 1.348 . S
C444 C447 1.356 . S
C444 O500 1.325 . S
N445 C448 1.314 . S
N445 C449 1.279 . S
C446 C444 1.348 . S
C446 C448 1.353 . S
C446 H504 0.929 . S
C447 C444 1.356 . S
C447 C449 1.358 . S
C447 H505 0.930 . S
C448 N445 1.314 . S
C448 C446 1.353 . S
C448 H506 0.930 . S
C449 N445 1.279 . S
C449 C447 1.358 . S
C449 H507 0.930 . S
C450 C453 1.348 . S
C450 C454 1.356 . S
C450 O501 1.325 1_565 S
C451 N452 1.279 . S
C451 C454 1.358 . S
C451 H508 0.930 . S
N452 C451 1.279 . S
N452 C455 1.314 . S
C453 C450 1.348 . S
C453 C455 1.353 . S
C453 H509 0.929 . S
C454 C450 1.356 . S
C454 C451 1.358 . S
C454 H510 0.930 . S
C455 N452 1.314 . S
C455 C453 1.353 . S
C455 H511 0.930 . S
C456 N457 1.314 . S
C456 C461 1.353 . S
C456 H462 0.930 . S
N457 Li440 1.990 . S
N457 C456 1.314 . S
N457 C459 1.279 . S
C458 C459 1.358 . S
C458 C460 1.356 . S
C458 H512 0.930 . S
C459 N457 1.279 . S
C459 C458 1.358 . S
C459 H463 0.930 . S
C460 C458 1.356 . S
C460 C461 1.348 . S
C461 C456 1.353 . S
C461 C460 1.348 . S
C461 H513 0.929 . S
H462 C456 0.930 . S
H463 C459 0.930 . S
C464 N465 1.314 . S
C464 C466 1.353 . S
C464 H470 0.930 . S
N465 Li441 1.990 . S
N465 C464 1.314 . S
N465 C468 1.279 1_545 S
C466 C464 1.353 . S
C466 C469 1.348 1_545 S
C466 H514 0.929 . S
C467 C468 1.358 . S
C467 C469 1.356 . S
C467 H515 0.930 . S
C468 N465 1.279 1_565 S
C468 C467 1.358 . S
C468 H471 0.930 . S
C469 C466 1.348 1_565 S
C469 C467 1.356 . S
H470 C464 0.930 . S
H471 C468 0.930 . S
C472 C474 1.348 . S
C472 C475 1.356 . S
C472 O502 1.325 . S
N473 C476 1.314 . S
N473 C477 1.279 . S
C474 C472 1.348 . S
C474 C476 1.353 . S
C474 H516 0.929 . S
C475 C472 1.356 . S
C475 C477 1.358 . S
C475 H517 0.930 . S
C476 N473 1.314 . S
C476 C474 1.353 . S
C476 H518 0.930 . S
C477 N473 1.279 . S
C477 C475 1.358 . S
C477 H519 0.930 . S
C478 C479 1.348 . S
C478 C480 1.356 . S
C478 O503 1.325 . S
C479 C478 1.348 . S
C479 C481 1.353 . S
C479 H520 0.929 . S
C480 C478 1.356 . S
C480 C482 1.358 . S
C480 H521 0.930 . S
C481 C479 1.353 . S
C481 N483 1.314 . S
C481 H522 0.930 . S
C482 C480 1.358 . S
C482 N483 1.279 . S
C482 H523 0.930 . S
N483 C481 1.314 . S
N483 C482 1.279 . S
C484 C486 1.353 . S
C484 N487 1.314 . S
C484 H490 0.930 . S
C485 N487 1.279 . S
C485 C488 1.358 . S
C485 H491 0.930 . S
C486 C484 1.353 . S
C486 C489 1.348 . S
C486 H524 0.929 . S
N487 Li442 1.990 . S
N487 C484 1.314 . S
N487 C485 1.279 . S
C488 C485 1.358 . S
C488 C489 1.356 . S
C488 H525 0.930 . S
C489 C486 1.348 . S
C489 C488 1.356 . S
H490 C484 0.930 . S
H491 C485 0.930 . S
C492 N493 1.314 . S
C492 C494 1.353 1_545 S
C492 H498 0.929 . S
N493 Li443 1.990 . S
N493 C492 1.314 . S
N493 C496 1.279 . S
C494 C492 1.353 1_565 S
C494 C497 1.348 1_565 S
C494 H526 0.929 . S
C495 C496 1.358 . S
C495 C497 1.356 . S
C495 H527 0.930 . S
C496 N493 1.279 . S
C496 C495 1.358 . S
C496 H499 0.930 . S
C497 C494 1.348 1_545 S
C497 C495 1.356 . S
H498 C492 0.929 . S
H499 C496 0.930 . S
O500 Li440 1.956 . S
O500 Li441 1.970 . S
O500 Li442 1.961 . S
O500 C444 1.325 . S
O501 Li440 1.970 . S
O501 Li441 1.956 . S
O501 Li443 1.961 . S
O501 C450 1.325 1_545 S
O502 Li440 1.961 . S
O502 Li442 1.956 . S
O502 Li443 1.970 . S
O502 C472 1.325 . S
O503 Li441 1.961 . S
O503 Li442 1.970 . S
O503 Li443 1.956 . S
O503 C478 1.325 . S
H504 C446 0.929 . S
H505 C447 0.930 . S
H506 C448 0.930 . S
H507 C449 0.930 . S
H508 C451 0.930 . S
H509 C453 0.929 . S
H510 C454 0.930 . S
H511 C455 0.930 . S
H512 C458 0.930 . S
H513 C461 0.929 . S
H514 C466 0.929 . S
H515 C467 0.930 . S
H516 C474 0.929 . S
H517 C475 0.930 . S
H518 C476 0.930 . S
H519 C477 0.930 . S
H520 C479 0.929 . S
H521 C480 0.930 . S
H522 C481 0.930 . S
H523 C482 0.930 . S
H524 C486 0.929 . S
H525 C488 0.930 . S
H526 C494 0.929 . S
H527 C495 0.930 . S
Li528 N545 1.990 . S
Li528 O588 1.956 . S
Li528 O589 1.970 . S
Li528 O590 1.961 . S
Li529 N553 1.990 . S
Li529 O588 1.970 . S
Li529 O589 1.956 . S
Li529 O591 1.961 . S
Li530 N575 1.990 . S
Li530 O588 1.961 . S
Li530 O590 1.956 . S
Li530 O591 1.970 . S
Li531 N581 1.990 . S
Li531 O589 1.961 . S
Li531 O590 1.970 . S
Li531 O591 1.956 . S
C532 C534 1.348 . S
C532 C535 1.356 . S
C532 O588 1.325 . S
N533 C536 1.314 . S
N533 C537 1.279 . S
C534 C532 1.348 . S
C534 C536 1.353 . S
C534 H592 0.929 . S
C535 C532 1.356 . S
C535 C537 1.358 . S
C535 H593 0.930 . S
C536 N533 1.314 . S
C536 C534 1.353 . S
C536 H594 0.930 . S
C537 N533 1.279 . S
C537 C535 1.358 . S
C537 H595 0.930 . S
C538 C541 1.348 . S
C538 C542 1.356 . S
C538 O589 1.325 . S
C539 N540 1.279 . S
C539 C542 1.358 . S
C539 H596 0.930 . S
N540 C539 1.279 . S
N540 C543 1.314 . S
C541 C538 1.348 . S
C541 C543 1.353 . S
C541 H597 0.929 . S
C542 C538 1.356 . S
C542 C539 1.358 . S
C542 H598 0.930 . S
C543 N540 1.314 . S
C543 C541 1.353 . S
C543 H599 0.930 . S
C544 N545 1.314 . S
C544 C549 1.353 . S
C544 H550 0.930 . S
N545 Li528 1.990 . S
N545 C544 1.314 . S
N545 C547 1.279 . S
C546 C547 1.358 . S
C546 C548 1.356 . S
C546 H600 0.930 1_556 S
C547 N545 1.279 . S
C547 C546 1.358 . S
C547 H551 0.930 . S
C548 C546 1.356 . S
C548 C549 1.348 . S
C549 C544 1.353 . S
C549 C548 1.348 . S
C549 H601 0.929 . S
H550 C544 0.930 . S
H551 C547 0.930 . S
C552 N553 1.314 . S
C552 C554 1.353 . S
C552 H558 0.930 . S
N553 Li529 1.990 . S
N553 C552 1.314 . S
N553 C556 1.279 . S
C554 C552 1.353 . S
C554 C557 1.348 . S
C554 H602 0.929 . S
C555 C556 1.358 . S
C555 C557 1.356 . S
C555 H603 0.930 . S
C556 N553 1.279 . S
C556 C555 1.358 . S
C556 H559 0.930 . S
C557 C554 1.348 . S
C557 C555 1.356 . S
H558 C552 0.930 . S
H559 C556 0.930 . S
C560 C562 1.348 . S
C560 C563 1.356 . S
C560 O590 1.325 . S
N561 C564 1.314 . S
N561 C565 1.279 . S
C562 C560 1.348 . S
C562 C564 1.353 . S
C562 H604 0.929 . S
C563 C560 1.356 . S
C563 C565 1.358 . S
C563 H605 0.930 . S
C564 N561 1.314 . S
C564 C562 1.353 . S
C564 H606 0.930 . S
C565 N561 1.279 . S
C565 C563 1.358 . S
C565 H607 0.930 . S
C566 C567 1.348 . S
C566 C568 1.356 . S
C566 O591 1.325 . S
C567 C566 1.348 . S
C567 C569 1.353 . S
C567 H608 0.929 . S
C568 C566 1.356 . S
C568 C570 1.358 . S
C568 H609 0.930 . S
C569 C567 1.353 . S
C569 N571 1.314 . S
C569 H610 0.930 . S
C570 C568 1.358 . S
C570 N571 1.279 . S
C570 H611 0.930 . S
N571 C569 1.314 . S
N571 C570 1.279 . S
C572 C574 1.353 . S
C572 N575 1.314 . S
C572 H578 0.930 . S
C573 N575 1.279 . S
C573 C576 1.358 . S
C573 H579 0.930 . S
C574 C572 1.353 . S
C574 C577 1.348 . S
C574 H612 0.929 . S
N575 Li530 1.990 . S
N575 C572 1.314 . S
N575 C573 1.279 . S
C576 C573 1.358 . S
C576 C577 1.356 . S
C576 H613 0.930 . S
C577 C574 1.348 . S
C577 C576 1.356 . S
H578 C572 0.930 . S
H579 C573 0.930 . S
C580 N581 1.314 . S
C580 C582 1.353 . S
C580 H586 0.930 . S
N581 Li531 1.990 . S
N581 C580 1.314 . S
N581 C584 1.279 . S
C582 C580 1.353 . S
C582 C585 1.348 . S
C582 H614 0.929 . S
C583 C584 1.358 . S
C583 C585 1.356 . S
C583 H615 0.930 . S
C584 N581 1.279 . S
C584 C583 1.358 . S
C584 H587 0.930 . S
C585 C582 1.348 . S
C585 C583 1.356 . S
H586 C580 0.930 . S
H587 C584 0.930 . S
O588 Li528 1.956 . S
O588 Li529 1.970 . S
O588 Li530 1.961 . S
O588 C532 1.325 . S
O589 Li528 1.970 . S
O589 Li529 1.956 . S
O589 Li531 1.961 . S
O589 C538 1.325 . S
O590 Li528 1.961 . S
O590 Li530 1.956 . S
O590 Li531 1.970 . S
O590 C560 1.325 . S
O591 Li529 1.961 . S
O591 Li530 1.970 . S
O591 Li531 1.956 . S
O591 C566 1.325 . S
H592 C534 0.929 . S
H593 C535 0.930 . S
H594 C536 0.930 . S
H595 C537 0.930 . S
H596 C539 0.930 . S
H597 C541 0.929 . S
H598 C542 0.930 . S
H599 C543 0.930 . S
H600 C546 0.930 1_554 S
H601 C549 0.929 . S
H602 C554 0.929 . S
H603 C555 0.930 . S
H604 C562 0.929 . S
H605 C563 0.930 . S
H606 C564 0.930 . S
H607 C565 0.930 . S
H608 C567 0.929 . S
H609 C568 0.930 . S
H610 C569 0.930 . S
H611 C570 0.930 . S
H612 C574 0.929 . S
H613 C576 0.930 . S
H614 C582 0.929 . S
H615 C583 0.930 . S
Li616 N633 1.990 . S
Li616 O676 1.956 . S
Li616 O677 1.970 . S
Li616 O678 1.961 . S
Li617 N641 1.990 . S
Li617 O676 1.970 . S
Li617 O677 1.956 . S
Li617 O679 1.961 . S
Li618 N663 1.990 . S
Li618 O676 1.961 . S
Li618 O678 1.956 . S
Li618 O679 1.970 . S
Li619 N669 1.990 1_455 S
Li619 O677 1.961 . S
Li619 O678 1.970 . S
Li619 O679 1.956 . S
C620 C622 1.348 . S
C620 C623 1.356 . S
C620 O676 1.325 . S
N621 C624 1.314 . S
N621 C625 1.279 . S
C622 C620 1.348 . S
C622 C624 1.353 . S
C622 H680 0.929 . S
C623 C620 1.356 . S
C623 C625 1.358 . S
C623 H681 0.930 . S
C624 N621 1.314 . S
C624 C622 1.353 . S
C624 H682 0.930 . S
C625 N621 1.279 . S
C625 C623 1.358 . S
C625 H683 0.930 . S
C626 C629 1.348 1_455 S
C626 C630 1.356 1_455 S
C626 O677 1.325 . S
C627 N628 1.279 . S
C627 C630 1.358 . S
C627 H684 0.930 . S
N628 C627 1.279 . S
N628 C631 1.314 . S
C629 C626 1.348 1_655 S
C629 C631 1.353 . S
C629 H685 0.929 1_655 S
C630 C626 1.356 1_655 S
C630 C627 1.358 . S
C630 H686 0.930 . S
C631 N628 1.314 . S
C631 C629 1.353 . S
C631 H687 0.930 . S
C632 N633 1.314 . S
C632 C637 1.353 1_565 S
C632 H638 0.929 . S
N633 Li616 1.990 . S
N633 C632 1.314 . S
N633 C635 1.279 . S
C634 C635 1.358 . S
C634 C636 1.356 . S
C634 H688 0.930 1_556 S
C635 N633 1.279 . S
C635 C634 1.358 . S
C635 H639 0.930 . S
C636 C634 1.356 . S
C636 C637 1.348 1_565 S
C637 C632 1.353 1_545 S
C637 C636 1.348 1_545 S
C637 H689 0.919 1_455 S
H638 C632 0.929 . S
H639 C635 0.930 . S
C640 N641 1.314 . S
C640 C642 1.353 . S
C640 H646 0.930 . S
N641 Li617 1.990 . S
N641 C640 1.314 . S
N641 C644 1.279 . S
C642 C640 1.353 . S
C642 C645 1.348 . S
C642 H690 0.929 . S
C643 C644 1.358 . S
C643 C645 1.356 . S
C643 H691 0.930 . S
C644 N641 1.279 . S
C644 C643 1.358 . S
C644 H647 0.930 . S
C645 C642 1.348 . S
C645 C643 1.356 . S
H646 C640 0.930 . S
H647 C644 0.930 . S
C648 C650 1.348 . S
C648 C651 1.356 . S
C648 O678 1.325 1_545 S
N649 C652 1.314 . S
N649 C653 1.279 . S
C650 C648 1.348 . S
C650 C652 1.353 . S
C650 H692 0.929 . S
C651 C648 1.356 . S
C651 C653 1.358 . S
C651 H693 0.930 . S
C652 N649 1.314 . S
C652 C650 1.353 . S
C652 H694 0.930 . S
C653 N649 1.279 . S
C653 C651 1.358 . S
C653 H695 0.930 . S
C654 C655 1.348 . S
C654 C656 1.356 . S
C654 O679 1.325 . S
C655 C654 1.348 . S
C655 C657 1.353 . S
C655 H696 0.929 . S
C656 C654 1.356 . S
C656 C658 1.358 . S
C656 H697 0.930 . S
C657 C655 1.353 . S
C657 N659 1.314 . S
C657 H698 0.930 . S
C658 C656 1.358 . S
C658 N659 1.279 . S
C658 H699 0.930 . S
N659 C657 1.314 . S
N659 C658 1.279 . S
C660 C662 1.353 . S
C660 N663 1.314 . S
C660 H666 0.930 . S
C661 N663 1.279 1_545 S
C661 C664 1.358 . S
C661 H667 0.930 . S
C662 C660 1.353 . S
C662 C665 1.348 1_565 S
C662 H700 0.929 . S
N663 Li618 1.990 . S
N663 C660 1.314 . S
N663 C661 1.279 1_565 S
C664 C661 1.358 . S
C664 C665 1.356 . S
C664 H701 0.930 . S
C665 C662 1.348 1_545 S
C665 C664 1.356 . S
H666 C660 0.930 . S
H667 C661 0.930 . S
C668 N669 1.314 . S
C668 C670 1.353 . S
C668 H674 0.930 . S
N669 Li619 1.990 1_655 S
N669 C668 1.314 . S
N669 C672 1.279 . S
C670 C668 1.353 . S
C670 C673 1.348 . S
C670 H702 0.929 . S
C671 C672 1.358 . S
C671 C673 1.356 . S
C671 H703 0.930 . S
C672 N669 1.279 . S
C672 C671 1.358 . S
C672 H675 0.930 1_655 S
C673 C670 1.348 . S
C673 C671 1.356 . S
H674 C668 0.930 . S
H675 C672 0.930 1_455 S
O676 Li616 1.956 . S
O676 Li617 1.970 . S
O676 Li618 1.961 . S
O676 C620 1.325 . S
O677 Li616 1.970 . S
O677 Li617 1.956 . S
O677 Li619 1.961 . S
O677 C626 1.325 . S
O678 Li616 1.961 . S
O678 Li618 1.956 . S
O678 Li619 1.970 . S
O678 C648 1.325 1_565 S
O679 Li617 1.961 . S
O679 Li618 1.970 . S
O679 Li619 1.956 . S
O679 C654 1.325 . S
H680 C622 0.929 . S
H681 C623 0.930 . S
H682 C624 0.930 . S
H683 C625 0.930 . S
H684 C627 0.930 . S
H685 C629 0.929 1_455 S
H686 C630 0.930 . S
H687 C631 0.930 . S
H688 C634 0.930 1_554 S
H689 C637 0.919 1_655 S
H690 C642 0.929 . S
H691 C643 0.930 . S
H692 C650 0.929 . S
H693 C651 0.930 . S
H694 C652 0.930 . S
H695 C653 0.930 . S
H696 C655 0.929 . S
H697 C656 0.930 . S
H698 C657 0.930 . S
H699 C658 0.930 . S
H700 C662 0.929 . S
H701 C664 0.930 . S
H702 C670 0.929 . S
H703 C671 0.930 . S
C57 C233 1.568 . S
C321 C108 1.568 . S
C196 C20 1.568 . S
C284 C145 1.568 . S
C585 C372 1.541 . S
C469 C673 1.541 . S
C577 C381 1.541 . S
C665 C460 1.541 . S
C29 C401 2.818 1_455 S
C137 C497 2.818 1_565 S
C225 C548 2.818 1_554 S
C636 C313 2.818 1_466 S
C49 C117 2.769 . S
C293 C205 2.769 . S
C489 C409 2.799 . S
C557 C645 2.799 . S
