# Generated by pormake.
# Topology unl, (4)-cn, num edge types: 1
# Building blocks:
#     Node 0, Type 0, BuildingBlock: QUQFOY_clean_sbu_3, # of connection points: 4
#     Node 1, Type 0, BuildingBlock: QUQFOY_clean_sbu_3, # of connection points: 4
#     Node 2, Type 0, BuildingBlock: QUQFOY_clean_sbu_3, # of connection points: 4
#     Node 3, Type 0, BuildingBlock: QUQFOY_clean_sbu_3, # of connection points: 4
#     Node 4, Type 0, BuildingBlock: QUQFOY_clean_sbu_3, # of connection points: 4
#     Node 5, Type 0, BuildingBlock: QUQFOY_clean_sbu_3, # of connection points: 4
#     Node 6, Type 0, BuildingBlock: QUQFOY_clean_sbu_3, # of connection points: 4
#     Node 7, Type 0, BuildingBlock: QUQFOY_clean_sbu_3, # of connection points: 4
#     Node 8, Type 0, BuildingBlock: QUQFOY_clean_sbu_3, # of connection points: 4
#     Node 9, Type 0, BuildingBlock: QUQFOY_clean_sbu_3, # of connection points: 4
#     Node 10, Type 0, BuildingBlock: QUQFOY_clean_sbu_3, # of connection points: 4
#     Node 11, Type 0, BuildingBlock: QUQFOY_clean_sbu_3, # of connection points: 4
#     Node 12, Type 0, BuildingBlock: QUQFOY_clean_sbu_3, # of connection points: 4
#     Node 13, Type 0, BuildingBlock: QUQFOY_clean_sbu_3, # of connection points: 4
#     Node 14, Type 0, BuildingBlock: QUQFOY_clean_sbu_3, # of connection points: 4
#     Node 15, Type 0, BuildingBlock: QUQFOY_clean_sbu_3, # of connection points: 4
#     Node 16, Type 0, BuildingBlock: QUQFOY_clean_sbu_3, # of connection points: 4
#     Node 17, Type 0, BuildingBlock: QUQFOY_clean_sbu_3, # of connection points: 4
#     Node 18, Type 0, BuildingBlock: QUQFOY_clean_sbu_3, # of connection points: 4
#     Node 19, Type 0, BuildingBlock: QUQFOY_clean_sbu_3, # of connection points: 4
#     Node 20, Type 0, BuildingBlock: QUQFOY_clean_sbu_3, # of connection points: 4
#     Node 21, Type 0, BuildingBlock: QUQFOY_clean_sbu_3, # of connection points: 4
#     Node 22, Type 0, BuildingBlock: QUQFOY_clean_sbu_3, # of connection points: 4
#     Node 23, Type 0, BuildingBlock: QUQFOY_clean_sbu_3, # of connection points: 4
#     Node 24, Type 0, BuildingBlock: QUQFOY_clean_sbu_3, # of connection points: 4
#     Node 25, Type 0, BuildingBlock: QUQFOY_clean_sbu_3, # of connection points: 4
#     Node 26, Type 0, BuildingBlock: QUQFOY_clean_sbu_3, # of connection points: 4
#     Node 27, Type 0, BuildingBlock: QUQFOY_clean_sbu_3, # of connection points: 4
#     Node 28, Type 0, BuildingBlock: QUQFOY_clean_sbu_3, # of connection points: 4
#     Node 29, Type 0, BuildingBlock: QUQFOY_clean_sbu_3, # of connection points: 4
#     Node 30, Type 0, BuildingBlock: QUQFOY_clean_sbu_3, # of connection points: 4
#     Node 31, Type 0, BuildingBlock: QUQFOY_clean_sbu_3, # of connection points: 4
#     Node 32, Type 0, BuildingBlock: QUQFOY_clean_sbu_3, # of connection points: 4
#     Node 33, Type 0, BuildingBlock: QUQFOY_clean_sbu_3, # of connection points: 4
#     Node 34, Type 0, BuildingBlock: QUQFOY_clean_sbu_3, # of connection points: 4
#     Node 35, Type 0, BuildingBlock: QUQFOY_clean_sbu_3, # of connection points: 4
#     Edge 36, Type (0, 0), BuildingBlock: TEMPAE_clean_linker_10, # of connection points: 2
#     Edge 37, Type (0, 0), BuildingBlock: TEMPAE_clean_linker_10, # of connection points: 2
#     Edge 38, Type (0, 0), BuildingBlock: TEMPAE_clean_linker_10, # of connection points: 2
#     Edge 39, Type (0, 0), BuildingBlock: TEMPAE_clean_linker_10, # of connection points: 2
#     Edge 40, Type (0, 0), BuildingBlock: TEMPAE_clean_linker_10, # of connection points: 2
#     Edge 41, Type (0, 0), BuildingBlock: TEMPAE_clean_linker_10, # of connection points: 2
#     Edge 42, Type (0, 0), BuildingBlock: TEMPAE_clean_linker_10, # of connection points: 2
#     Edge 43, Type (0, 0), BuildingBlock: TEMPAE_clean_linker_10, # of connection points: 2
#     Edge 44, Type (0, 0), BuildingBlock: TEMPAE_clean_linker_10, # of connection points: 2
#     Edge 45, Type (0, 0), BuildingBlock: TEMPAE_clean_linker_10, # of connection points: 2
#     Edge 46, Type (0, 0), BuildingBlock: TEMPAE_clean_linker_10, # of connection points: 2
#     Edge 47, Type (0, 0), BuildingBlock: TEMPAE_clean_linker_10, # of connection points: 2
#     Edge 48, Type (0, 0), BuildingBlock: TEMPAE_clean_linker_10, # of connection points: 2
#     Edge 49, Type (0, 0), BuildingBlock: TEMPAE_clean_linker_10, # of connection points: 2
#     Edge 50, Type (0, 0), BuildingBlock: TEMPAE_clean_linker_10, # of connection points: 2
#     Edge 51, Type (0, 0), BuildingBlock: TEMPAE_clean_linker_10, # of connection points: 2
#     Edge 52, Type (0, 0), BuildingBlock: TEMPAE_clean_linker_10, # of connection points: 2
#     Edge 53, Type (0, 0), BuildingBlock: TEMPAE_clean_linker_10, # of connection points: 2
#     Edge 54, Type (0, 0), BuildingBlock: TEMPAE_clean_linker_10, # of connection points: 2
#     Edge 55, Type (0, 0), BuildingBlock: TEMPAE_clean_linker_10, # of connection points: 2
#     Edge 56, Type (0, 0), BuildingBlock: TEMPAE_clean_linker_10, # of connection points: 2
#     Edge 57, Type (0, 0), BuildingBlock: TEMPAE_clean_linker_10, # of connection points: 2
#     Edge 58, Type (0, 0), BuildingBlock: TEMPAE_clean_linker_10, # of connection points: 2
#     Edge 59, Type (0, 0), BuildingBlock: TEMPAE_clean_linker_10, # of connection points: 2
#     Edge 60, Type (0, 0), BuildingBlock: TEMPAE_clean_linker_10, # of connection points: 2
#     Edge 61, Type (0, 0), BuildingBlock: TEMPAE_clean_linker_10, # of connection points: 2
#     Edge 62, Type (0, 0), BuildingBlock: TEMPAE_clean_linker_10, # of connection points: 2
#     Edge 63, Type (0, 0), BuildingBlock: TEMPAE_clean_linker_10, # of connection points: 2
#     Edge 64, Type (0, 0), BuildingBlock: TEMPAE_clean_linker_10, # of connection points: 2
#     Edge 65, Type (0, 0), BuildingBlock: TEMPAE_clean_linker_10, # of connection points: 2
#     Edge 66, Type (0, 0), BuildingBlock: TEMPAE_clean_linker_10, # of connection points: 2
#     Edge 67, Type (0, 0), BuildingBlock: TEMPAE_clean_linker_10, # of connection points: 2
#     Edge 68, Type (0, 0), BuildingBlock: TEMPAE_clean_linker_10, # of connection points: 2
#     Edge 69, Type (0, 0), BuildingBlock: TEMPAE_clean_linker_10, # of connection points: 2
#     Edge 70, Type (0, 0), BuildingBlock: TEMPAE_clean_linker_10, # of connection points: 2
#     Edge 71, Type (0, 0), BuildingBlock: TEMPAE_clean_linker_10, # of connection points: 2
#     Edge 72, Type (0, 0), BuildingBlock: TEMPAE_clean_linker_10, # of connection points: 2
#     Edge 73, Type (0, 0), BuildingBlock: TEMPAE_clean_linker_10, # of connection points: 2
#     Edge 74, Type (0, 0), BuildingBlock: TEMPAE_clean_linker_10, # of connection points: 2
#     Edge 75, Type (0, 0), BuildingBlock: TEMPAE_clean_linker_10, # of connection points: 2
#     Edge 76, Type (0, 0), BuildingBlock: TEMPAE_clean_linker_10, # of connection points: 2
#     Edge 77, Type (0, 0), BuildingBlock: TEMPAE_clean_linker_10, # of connection points: 2
#     Edge 78, Type (0, 0), BuildingBlock: TEMPAE_clean_linker_10, # of connection points: 2
#     Edge 79, Type (0, 0), BuildingBlock: TEMPAE_clean_linker_10, # of connection points: 2
#     Edge 80, Type (0, 0), BuildingBlock: TEMPAE_clean_linker_10, # of connection points: 2
#     Edge 81, Type (0, 0), BuildingBlock: TEMPAE_clean_linker_10, # of connection points: 2
#     Edge 82, Type (0, 0), BuildingBlock: TEMPAE_clean_linker_10, # of connection points: 2
#     Edge 83, Type (0, 0), BuildingBlock: TEMPAE_clean_linker_10, # of connection points: 2
#     Edge 84, Type (0, 0), BuildingBlock: TEMPAE_clean_linker_10, # of connection points: 2
#     Edge 85, Type (0, 0), BuildingBlock: TEMPAE_clean_linker_10, # of connection points: 2
#     Edge 86, Type (0, 0), BuildingBlock: TEMPAE_clean_linker_10, # of connection points: 2
#     Edge 87, Type (0, 0), BuildingBlock: TEMPAE_clean_linker_10, # of connection points: 2
#     Edge 88, Type (0, 0), BuildingBlock: TEMPAE_clean_linker_10, # of connection points: 2
#     Edge 89, Type (0, 0), BuildingBlock: TEMPAE_clean_linker_10, # of connection points: 2
#     Edge 90, Type (0, 0), BuildingBlock: TEMPAE_clean_linker_10, # of connection points: 2
#     Edge 91, Type (0, 0), BuildingBlock: TEMPAE_clean_linker_10, # of connection points: 2
#     Edge 92, Type (0, 0), BuildingBlock: TEMPAE_clean_linker_10, # of connection points: 2
#     Edge 93, Type (0, 0), BuildingBlock: TEMPAE_clean_linker_10, # of connection points: 2
#     Edge 94, Type (0, 0), BuildingBlock: TEMPAE_clean_linker_10, # of connection points: 2
#     Edge 95, Type (0, 0), BuildingBlock: TEMPAE_clean_linker_10, # of connection points: 2
#     Edge 96, Type (0, 0), BuildingBlock: TEMPAE_clean_linker_10, # of connection points: 2
#     Edge 97, Type (0, 0), BuildingBlock: TEMPAE_clean_linker_10, # of connection points: 2
#     Edge 98, Type (0, 0), BuildingBlock: TEMPAE_clean_linker_10, # of connection points: 2
#     Edge 99, Type (0, 0), BuildingBlock: TEMPAE_clean_linker_10, # of connection points: 2
#     Edge 100, Type (0, 0), BuildingBlock: TEMPAE_clean_linker_10, # of connection points: 2
#     Edge 101, Type (0, 0), BuildingBlock: TEMPAE_clean_linker_10, # of connection points: 2
#     Edge 102, Type (0, 0), BuildingBlock: TEMPAE_clean_linker_10, # of connection points: 2
#     Edge 103, Type (0, 0), BuildingBlock: TEMPAE_clean_linker_10, # of connection points: 2
#     Edge 104, Type (0, 0), BuildingBlock: TEMPAE_clean_linker_10, # of connection points: 2
#     Edge 105, Type (0, 0), BuildingBlock: TEMPAE_clean_linker_10, # of connection points: 2
#     Edge 106, Type (0, 0), BuildingBlock: TEMPAE_clean_linker_10, # of connection points: 2
#     Edge 107, Type (0, 0), BuildingBlock: TEMPAE_clean_linker_10, # of connection points: 2
# Relax obj value: 0.040
# Max RMSD: 0.119
# Mean RMSD: 0.119
data_MOF--net-unl--node1-QUQFOY_clean_sbu_3--edge1-TEMPAE_clean_linker_10
_symmetry_space_group_name_H-M    P1
_symmetry_Int_Tables_number       1
_symmetry_cell_setting            triclinic
loop_
_symmetry_equiv_pos_as_xyz
'x, y, z'
_cell_length_a     67.381677
_cell_length_b     67.364921
_cell_length_c     41.841056
_cell_angle_alpha  90.020872
_cell_angle_beta   89.96919
_cell_angle_gamma 119.97669
loop_
_atom_site_label
_atom_site_type_symbol
_atom_site_fract_x
_atom_site_fract_y
_atom_site_fract_z
_atom_type_partial_charge
C0 C 0.15573 0.04546 0.11821 0.0
O1 O 0.13792 0.04519 0.12869 0.0
Cd2 Cd 0.13689 0.07934 0.14146 0.0
O3 O 0.17484 0.06412 0.11765 0.0
Cd4 Cd 0.19041 0.1045 0.1338 0.0
C5 C 0.16208 0.11073 0.07282 0.0
O6 O 0.16614 0.10308 0.17806 0.0
O7 O 0.18384 0.1348 0.15147 0.0
O8 O 0.22091 0.10902 0.16904 0.0
C9 C 0.17154 0.12397 0.17529 0.0
O10 O 0.14456 0.09994 0.09074 0.0
C11 C 0.23706 0.12323 0.15131 0.0
O12 O 0.18158 0.11395 0.08151 0.0
O13 O 0.23159 0.12796 0.12449 0.0
C14 C 0.9413 0.11564 0.1033 0.0
O15 O 0.94148 0.09932 0.11823 0.0
Cd16 Cd 0.9086 0.067 0.14056 0.0
O17 O 0.92305 0.11689 0.10181 0.0
Cd18 Cd 0.88335 0.09522 0.12322 0.0
C19 C 0.87404 0.0523 0.07349 0.0
O20 O 0.8894 0.08069 0.1736 0.0
O21 O 0.85506 0.06358 0.15489 0.0
O22 O 0.88297 0.12991 0.13957 0.0
C23 C 0.86853 0.06557 0.17733 0.0
O24 O 0.88505 0.04734 0.09373 0.0
C25 C 0.86365 0.12381 0.12679 0.0
O26 O 0.87204 0.06997 0.07719 0.0
O27 O 0.85437 0.10521 0.11107 0.0
C28 C 0.87641 0.8131 0.0925 0.0
O29 O 0.89221 0.82889 0.10903 0.0
Cd30 Cd 0.92421 0.82741 0.13052 0.0
O31 O 0.87567 0.79396 0.08866 0.0
Cd32 Cd 0.8975 0.77531 0.10723 0.0
C33 C 0.94093 0.81211 0.06077 0.0
O34 O 0.90981 0.79278 0.15984 0.0
O35 O 0.92847 0.77754 0.13971 0.0
O36 O 0.86234 0.7398 0.11991 0.0
C37 C 0.92503 0.78715 0.16338 0.0
O38 O 0.94503 0.82671 0.08286 0.0
C39 C 0.86878 0.72697 0.10672 0.0
O40 O 0.92357 0.79203 0.06235 0.0
O41 O 0.88789 0.73675 0.09224 0.0
C42 C 0.02346 0.16368 0.38316 0.0
O43 O 0.02582 0.14822 0.36929 0.0
Cd44 Cd 0.06135 0.15237 0.35141 0.0
O45 O 0.04035 0.18405 0.38546 0.0
Cd46 Cd 0.0809 0.20537 0.36717 0.0
C47 C 0.09353 0.17594 0.42014 0.0
O48 O 0.08044 0.18517 0.31859 0.0
O49 O 0.11298 0.20456 0.34251 0.0
O50 O 0.08137 0.23725 0.33921 0.0
C51 C 0.10185 0.19263 0.3186 0.0
O52 O 0.0839 0.15944 0.40026 0.0
C53 C 0.09598 0.25256 0.35763 0.0
O54 O 0.09388 0.19478 0.41527 0.0
O55 O 0.1023 0.24576 0.38184 0.0
C56 C 0.84282 0.87103 0.37405 0.0
O57 O 0.85959 0.88961 0.36387 0.0
Cd58 Cd 0.85706 0.92338 0.35499 0.0
O59 O 0.82296 0.86883 0.37592 0.0
Cd60 Cd 0.80451 0.89167 0.36296 0.0
C61 C 0.8312 0.92453 0.42591 0.0
O62 O 0.82705 0.91701 0.31923 0.0
O63 O 0.80859 0.9284 0.34935 0.0
O64 O 0.77402 0.86522 0.32778 0.0
C65 C 0.82035 0.93132 0.32431 0.0
O66 O 0.84865 0.93341 0.40756 0.0
C67 C 0.75788 0.86218 0.34643 0.0
O68 O 0.81238 0.90748 0.41671 0.0
O69 O 0.76346 0.8719 0.37357 0.0
C70 C 0.10349 0.95076 0.37864 0.0
O71 O 0.08442 0.94752 0.36816 0.0
Cd72 Cd 0.05256 0.91023 0.35808 0.0
O73 O 0.10725 0.93406 0.38082 0.0
Cd74 Cd 0.08704 0.89262 0.36796 0.0
C75 C 0.05205 0.88389 0.42936 0.0
O76 O 0.06299 0.88943 0.32259 0.0
O77 O 0.05213 0.85874 0.35058 0.0
O78 O 0.11618 0.89185 0.33471 0.0
C79 C 0.04967 0.868 0.32566 0.0
O80 O 0.04263 0.8916 0.41048 0.0
C81 C 0.11958 0.87891 0.3532 0.0
O82 O 0.06993 0.88337 0.42091 0.0
O83 O 0.10874 0.87337 0.37953 0.0
C84 C 0.81654 0.93946 0.89622 0.0
O85 O 0.83294 0.94008 0.88041 0.0
Cd86 Cd 0.83292 0.90771 0.85708 0.0
O87 O 0.7974 0.92087 0.89851 0.0
Cd88 Cd 0.78016 0.88112 0.87764 0.0
C89 C 0.81624 0.87328 0.92426 0.0
O90 O 0.79922 0.88754 0.8258 0.0
O91 O 0.78351 0.85332 0.84487 0.0
O92 O 0.74399 0.8791 0.86357 0.0
C93 C 0.79386 0.86678 0.82188 0.0
O94 O 0.83141 0.88454 0.90315 0.0
C95 C 0.73168 0.85976 0.87687 0.0
O96 O 0.79624 0.8707 0.92213 0.0
O97 O 0.742 0.85126 0.89199 0.0
C98 C 0.05365 0.88574 0.88665 0.0
O99 O 0.05208 0.9022 0.87462 0.0
Cd100 Cd 0.08471 0.93765 0.85943 0.0
O101 O 0.07298 0.88662 0.88782 0.0
Cd102 Cd 0.11293 0.91287 0.87 0.0
C103 C 0.11591 0.94746 0.92906 0.0
O104 O 0.10719 0.93048 0.82233 0.0
O105 O 0.14022 0.94892 0.84516 0.0
O106 O 0.1151 0.8804 0.848 0.0
C107 C 0.12762 0.94712 0.82162 0.0
O108 O 0.105 0.95334 0.90998 0.0
C109 C 0.13492 0.88683 0.85925 0.0
O110 O 0.1201 0.93161 0.92159 0.0
O111 O 0.14398 0.90477 0.87638 0.0
C112 C 0.11504 0.16633 0.8876 0.0
O113 O 0.09857 0.1494 0.8736 0.0
Cd114 Cd 0.06488 0.14892 0.85467 0.0
O115 O 0.1155 0.18545 0.88957 0.0
Cd116 Cd 0.09201 0.202 0.8703 0.0
C117 C 0.05174 0.16874 0.92322 0.0
O118 O 0.07588 0.18092 0.82053 0.0
O119 O 0.05845 0.19698 0.84217 0.0
O120 O 0.12549 0.23715 0.85144 0.0
C121 C 0.06017 0.18603 0.81876 0.0
O122 O 0.04641 0.15261 0.90312 0.0
C123 C 0.11939 0.25026 0.86461 0.0
O124 O 0.06896 0.18855 0.91843 0.0
O125 O 0.10141 0.2409 0.88165 0.0
C126 C 0.95744 0.83736 0.61865 0.0
O127 O 0.95625 0.8547 0.62777 0.0
Cd128 Cd 0.92064 0.8538 0.63555 0.0
O129 O 0.93936 0.81779 0.617 0.0
Cd130 Cd 0.89806 0.80103 0.62882 0.0
C131 C 0.89376 0.82799 0.56467 0.0
O132 O 0.89648 0.82458 0.672 0.0
O133 O 0.86634 0.80686 0.64229 0.0
O134 O 0.89233 0.77018 0.66457 0.0
C135 C 0.87563 0.8186 0.66719 0.0
O136 O 0.9027 0.84563 0.58265 0.0
C137 C 0.87908 0.7542 0.64582 0.0
O138 O 0.89114 0.80896 0.57458 0.0
O139 O 0.87556 0.75999 0.61845 0.0
C140 C 0.15832 0.12703 0.59299 0.0
O141 O 0.1421 0.11027 0.60762 0.0
Cd142 Cd 0.14302 0.07672 0.62346 0.0
O143 O 0.17745 0.12781 0.5889 0.0
Cd144 Cd 0.19454 0.10395 0.60469 0.0
C145 C 0.16012 0.06498 0.55162 0.0
O146 O 0.17577 0.08698 0.65584 0.0
O147 O 0.18977 0.06933 0.62945 0.0
O148 O 0.23059 0.13687 0.62272 0.0
C149 C 0.18084 0.07121 0.65507 0.0
O150 O 0.14481 0.05889 0.57323 0.0
C151 C 0.24307 0.13072 0.60779 0.0
O152 O 0.17989 0.0824 0.55561 0.0
O153 O 0.23295 0.11311 0.59015 0.0
C154 C 0.87147 0.02233 0.61378 0.0
O155 O 0.89064 0.02541 0.62351 0.0
Cd156 Cd 0.92264 0.06224 0.6356 0.0
O157 O 0.8675 0.03894 0.61339 0.0
Cd158 Cd 0.88768 0.07984 0.62939 0.0
C159 C 0.92348 0.09209 0.56774 0.0
O160 O 0.91257 0.08205 0.67328 0.0
O161 O 0.92264 0.11326 0.64694 0.0
O162 O 0.85941 0.08054 0.66482 0.0
C163 C 0.92586 0.10353 0.67069 0.0
O164 O 0.93284 0.0835 0.58513 0.0
C165 C 0.85546 0.09341 0.64699 0.0
O166 O 0.90537 0.09187 0.57698 0.0
O167 O 0.86554 0.09891 0.6201 0.0
C168 C 0.82153 0.36822 0.45234 0.0
O169 O 0.80504 0.3697 0.46444 0.0
Cd170 Cd 0.80663 0.40545 0.47457 0.0
O171 O 0.84103 0.38614 0.44861 0.0
Cd172 Cd 0.85945 0.42768 0.46007 0.0
C173 C 0.82798 0.43141 0.40131 0.0
O174 O 0.83877 0.43017 0.50634 0.0
O175 O 0.85557 0.46008 0.47601 0.0
O176 O 0.89227 0.43295 0.49083 0.0
C177 C 0.84466 0.45103 0.50157 0.0
O178 O 0.81168 0.42279 0.42163 0.0
C179 C 0.9071 0.44607 0.47061 0.0
O180 O 0.84756 0.43399 0.40803 0.0
O181 O 0.89971 0.44967 0.44459 0.0
C182 C 0.61806 0.46423 0.44204 0.0
O183 O 0.61766 0.44794 0.45783 0.0
Cd184 Cd 0.58372 0.41459 0.47597 0.0
O185 O 0.59971 0.46498 0.43775 0.0
Cd186 Cd 0.55899 0.44211 0.45456 0.0
C187 C 0.55377 0.40082 0.40477 0.0
O188 O 0.56075 0.42543 0.50592 0.0
O189 O 0.52882 0.40855 0.48017 0.0
O190 O 0.5551 0.47484 0.47127 0.0
C191 C 0.53986 0.40977 0.50525 0.0
O192 O 0.56348 0.39553 0.42667 0.0
C193 C 0.53697 0.46861 0.45505 0.0
O194 O 0.5514 0.41833 0.40758 0.0
O195 O 0.53028 0.45115 0.43727 0.0
C196 C 0.53854 0.15489 0.44192 0.0
O197 O 0.55559 0.17125 0.45589 0.0
Cd198 Cd 0.58926 0.17004 0.47009 0.0
O199 O 0.5375 0.13561 0.43828 0.0
Cd200 Cd 0.56083 0.11794 0.45354 0.0
C201 C 0.59765 0.1509 0.39747 0.0
O202 O 0.57979 0.13778 0.5031 0.0
O203 O 0.5961 0.12272 0.47585 0.0
O204 O 0.5279 0.08297 0.4742 0.0
C205 C 0.59535 0.13245 0.50136 0.0
O206 O 0.60459 0.16669 0.4185 0.0
C207 C 0.53309 0.06968 0.45949 0.0
O208 O 0.58048 0.13119 0.40288 0.0
O209 O 0.55022 0.07888 0.44083 0.0
C210 C 0.70878 0.50024 0.71519 0.0
O211 O 0.70969 0.48477 0.69899 0.0
Cd212 Cd 0.74393 0.48713 0.67849 0.0
O213 O 0.72667 0.51977 0.71917 0.0
Cd214 Cd 0.76734 0.53945 0.70176 0.0
C215 C 0.77469 0.50334 0.74901 0.0
O216 O 0.76477 0.5219 0.64963 0.0
O217 O 0.7978 0.53849 0.6725 0.0
O218 O 0.76888 0.5755 0.68792 0.0
C219 C 0.78591 0.52819 0.64821 0.0
O220 O 0.76513 0.48855 0.72684 0.0
C221 C 0.78713 0.58776 0.70372 0.0
O222 O 0.77636 0.52297 0.74705 0.0
O223 O 0.79505 0.57736 0.71994 0.0
C224 C 0.49207 0.209 0.70136 0.0
O225 O 0.50938 0.22693 0.69069 0.0
Cd226 Cd 0.50933 0.26159 0.67832 0.0
O227 O 0.47255 0.20769 0.70238 0.0
Cd228 Cd 0.45558 0.23149 0.68672 0.0
C229 C 0.48364 0.26676 0.74729 0.0
O230 O 0.47941 0.25515 0.64261 0.0
O231 O 0.46102 0.26811 0.66981 0.0
O232 O 0.42465 0.20534 0.65191 0.0
C233 C 0.47361 0.27031 0.64601 0.0
O234 O 0.50114 0.27391 0.7292 0.0
C235 C 0.4087 0.20296 0.67048 0.0
O236 O 0.46433 0.25004 0.73882 0.0
O237 O 0.41454 0.21293 0.69743 0.0
C238 C 0.78158 0.26703 0.72298 0.0
O239 O 0.76589 0.26779 0.70718 0.0
Cd240 Cd 0.73115 0.23467 0.69104 0.0
O241 O 0.78067 0.24793 0.728 0.0
Cd242 Cd 0.75548 0.20709 0.71319 0.0
C243 C 0.71751 0.20718 0.76438 0.0
O244 O 0.73989 0.20988 0.66168 0.0
O245 O 0.72068 0.17821 0.68762 0.0
O246 O 0.78791 0.20276 0.69698 0.0
C247 C 0.7232 0.18947 0.66224 0.0
O248 O 0.71282 0.21698 0.74193 0.0
C249 C 0.78101 0.184 0.71189 0.0
O250 O 0.7337 0.20275 0.7614 0.0
O251 O 0.76301 0.1768 0.72869 0.0
C252 C 0.49077 0.28222 0.23465 0.0
O253 O 0.50617 0.28053 0.21944 0.0
Cd254 Cd 0.5019 0.24563 0.19878 0.0
O255 O 0.47071 0.2649 0.23767 0.0
Cd256 Cd 0.45012 0.22442 0.2191 0.0
C257 C 0.48291 0.21343 0.26783 0.0
O258 O 0.46809 0.22817 0.16707 0.0
O259 O 0.45072 0.19438 0.18764 0.0
O260 O 0.41561 0.22571 0.20454 0.0
C261 C 0.4609 0.20695 0.1638 0.0
O262 O 0.49834 0.22284 0.24643 0.0
C263 C 0.4021 0.20683 0.21818 0.0
O264 O 0.46387 0.21295 0.26507 0.0
O265 O 0.41111 0.19719 0.23374 0.0
C266 C 0.70184 0.2121 0.21568 0.0
O267 O 0.70299 0.23051 0.20604 0.0
Cd268 Cd 0.73851 0.26483 0.19617 0.0
O269 O 0.71989 0.21054 0.21735 0.0
Cd270 Cd 0.76111 0.23445 0.20491 0.0
C271 C 0.7666 0.26806 0.26686 0.0
O272 O 0.76156 0.25774 0.16016 0.0
O273 O 0.79273 0.27109 0.18783 0.0
O274 O 0.7652 0.20756 0.17085 0.0
C275 C 0.7826 0.27261 0.16321 0.0
O276 O 0.75736 0.27616 0.24834 0.0
C277 C 0.77885 0.20526 0.18932 0.0
O278 O 0.76903 0.25131 0.25806 0.0
O279 O 0.78345 0.21573 0.21592 0.0
C280 C 0.7733 0.47836 0.21562 0.0
O281 O 0.75435 0.46144 0.20686 0.0
Cd282 Cd 0.72142 0.46437 0.19355 0.0
O283 O 0.77637 0.49861 0.21465 0.0
Cd284 Cd 0.75464 0.5174 0.19709 0.0
C285 C 0.7191 0.49449 0.25917 0.0
O286 O 0.7307 0.49285 0.15384 0.0
O287 O 0.71923 0.51391 0.17733 0.0
O288 O 0.78246 0.54575 0.16067 0.0
C289 C 0.71684 0.50042 0.15462 0.0
O290 O 0.71047 0.47606 0.24282 0.0
C291 C 0.78593 0.56293 0.17734 0.0
O292 O 0.73671 0.51258 0.2492 0.0
O293 O 0.77569 0.55891 0.20408 0.0
C294 C 0.60681 0.17041 0.93936 0.0
O295 O 0.60598 0.18787 0.94885 0.0
Cd296 Cd 0.5707 0.18683 0.96051 0.0
O297 O 0.58868 0.15083 0.93858 0.0
Cd298 Cd 0.54773 0.13363 0.95266 0.0
C299 C 0.54092 0.16125 0.89111 0.0
O300 O 0.54871 0.15703 -0.00243 0.0
O301 O 0.51651 0.13854 0.97233 0.0
O302 O 0.54518 0.1033 0.98659 0.0
C303 C 0.52755 0.15068 -0.00384 0.0
O304 O 0.55068 0.17877 0.90924 0.0
C305 C 0.53116 0.08701 0.96889 0.0
O306 O 0.53855 0.1421 0.89997 0.0
O307 O 0.52547 0.09238 0.94274 0.0
C308 C 0.83034 0.44416 0.92455 0.0
O309 O 0.81422 0.42738 0.93932 0.0
Cd310 Cd 0.81688 0.39634 0.9621 0.0
O311 O 0.85025 0.44636 0.92315 0.0
Cd312 Cd 0.86946 0.42586 0.94441 0.0
C313 C 0.83733 0.38196 0.89549 0.0
O314 O 0.84979 0.41203 -0.00447 0.0
O315 O 0.86747 0.39524 0.9772 0.0
O316 O 0.9037 0.46141 0.96025 0.0
C317 C 0.85655 0.39775 -2e-05 0.0
O318 O 0.82135 0.37655 0.91587 0.0
C319 C 0.91745 0.45579 0.94799 0.0
O320 O 0.85655 0.40023 0.89878 0.0
O321 O 0.90876 0.4371 0.93252 0.0
C322 C 0.53068 0.37164 0.92877 0.0
O323 O 0.54714 0.37088 0.94228 0.0
Cd324 Cd 0.58157 0.40379 0.95964 0.0
O325 O 0.53081 0.39058 0.9264 0.0
Cd326 Cd 0.55615 0.43066 0.94469 0.0
C327 C 0.59494 0.43598 0.89061 0.0
O328 O 0.57189 0.42543 0.99476 0.0
O329 O 0.5909 0.45826 0.97163 0.0
O330 O 0.52405 0.43481 0.96372 0.0
C331 C 0.58824 0.44597 -0.00408 0.0
O332 O 0.60029 0.42524 0.91075 0.0
C333 C 0.53144 0.45434 0.95084 0.0
O334 O 0.57801 0.43898 0.89574 0.0
O335 O 0.54932 0.46194 0.93376 0.0
C336 C 0.48137 0.69684 0.78035 0.0
O337 O 0.4648 0.69888 0.79084 0.0
Cd338 Cd 0.46801 0.73529 0.80104 0.0
O339 O 0.50141 0.7143 0.77873 0.0
Cd340 Cd 0.52047 0.75544 0.79325 0.0
C341 C 0.49456 0.76355 0.731 0.0
O342 O 0.49797 0.75734 0.83768 0.0
O343 O 0.51698 0.78809 0.80948 0.0
O344 O 0.55017 0.7576 0.82833 0.0
C345 C 0.50505 0.77857 0.83416 0.0
O346 O 0.477 0.75468 0.74915 0.0
C347 C 0.56672 0.77114 0.81057 0.0
O348 O 0.51327 0.765 0.74007 0.0
O349 O 0.56173 0.7764 0.78379 0.0
C350 C 0.28479 0.78071 0.77333 0.0
O351 O 0.28211 0.76241 0.78605 0.0
Cd352 Cd 0.24635 0.73173 0.80467 0.0
O353 O 0.26823 0.78475 0.7722 0.0
Cd354 Cd 0.22787 0.76637 0.79096 0.0
C355 C 0.21291 0.72398 0.73766 0.0
O356 O 0.22947 0.74706 0.83906 0.0
O357 O 0.19599 0.73454 0.81828 0.0
O358 O 0.22933 0.79857 0.81915 0.0
C359 C 0.20799 0.73375 0.84105 0.0
O360 O 0.22265 0.71668 0.75665 0.0
C361 C 0.21547 0.8005 0.80065 0.0
O362 O 0.21321 0.74271 0.74323 0.0
O363 O 0.20825 0.78729 0.77654 0.0
C364 C 0.20234 0.49923 0.7734 0.0
O365 O 0.22019 0.5164 0.78449 0.0
Cd366 Cd 0.25471 0.51586 0.79561 0.0
O367 O 0.20124 0.47984 0.7712 0.0
Cd368 Cd 0.22526 0.46287 0.78504 0.0
C369 C 0.25981 0.49228 0.72462 0.0
O370 O 0.24745 0.48532 0.83075 0.0
O371 O 0.26184 0.46835 0.80329 0.0
O372 O 0.19803 0.43158 0.81813 0.0
C373 C 0.26272 0.47964 0.82803 0.0
O374 O 0.2672 0.5093 0.74366 0.0
C375 C 0.19646 0.41584 0.79982 0.0
O376 O 0.24317 0.47279 0.73257 0.0
O377 O 0.20742 0.42194 0.7736 0.0
C378 C 0.38243 0.83482 0.063 0.0
O379 O 0.38314 0.81852 0.04883 0.0
Cd380 Cd 0.41702 0.82092 0.0272 0.0
O381 O 0.40007 0.8548 0.06386 0.0
Cd382 Cd 0.43973 0.87417 0.04195 0.0
C383 C 0.45166 0.84372 0.09376 0.0
O384 O 0.43415 0.85297 0.99228 0.0
O385 O 0.4686 0.87151 0.01047 0.0
O386 O 0.43727 0.9075 0.02435 0.0
C387 C 0.45519 0.85958 0.98823 0.0
O388 O 0.44118 0.82714 0.07422 0.0
C389 C 0.45666 0.92193 0.03587 0.0
O390 O 0.45258 0.86282 0.089 0.0
O391 O 0.46735 0.91405 0.05146 0.0
C392 C 0.16229 0.54147 0.05719 0.0
O393 O 0.1797 0.55865 0.0452 0.0
Cd394 Cd 0.18001 0.59318 0.03069 0.0
O395 O 0.14313 0.5409 0.05824 0.0
Cd396 Cd 0.12733 0.56513 0.03981 0.0
C397 C 0.15576 0.60189 0.09844 0.0
O398 O 0.15057 0.58655 0.99377 0.0
O399 O 0.13347 0.60139 0.02002 0.0
O400 O 0.09716 0.53801 0.0054 0.0
C401 C 0.14494 0.60193 -0.00433 0.0
O402 O 0.17304 0.60798 0.08025 0.0
C403 C 0.08085 0.53654 0.02231 0.0
O404 O 0.13621 0.58519 0.09081 0.0
O405 O 0.08606 0.54742 0.04862 0.0
C406 C 0.44282 0.61655 0.05558 0.0
O407 O 0.4246 0.61479 0.04399 0.0
Cd408 Cd 0.39339 0.57988 0.0238 0.0
O409 O 0.44634 0.59965 0.05452 0.0
Cd410 Cd 0.42668 0.56001 0.03339 0.0
C411 C 0.38554 0.54474 0.08856 0.0
O412 O 0.40713 0.56308 0.98635 0.0
O413 O 0.39398 0.52924 0.00631 0.0
O414 O 0.45786 0.56115 0.00292 0.0
C415 C 0.39356 0.54166 0.98387 0.0
O416 O 0.37824 0.55505 0.07068 0.0
C417 C 0.45932 0.54632 0.01987 0.0
O418 O 0.40402 0.54484 0.08184 0.0
O419 O 0.44653 0.53887 0.04436 0.0
C420 C 0.15712 0.61948 0.55503 0.0
O421 O 0.17516 0.62 0.54489 0.0
Cd422 Cd 0.17917 0.58885 0.52576 0.0
O423 O 0.13771 0.60107 0.55358 0.0
Cd424 Cd 0.12282 0.56137 0.53284 0.0
C425 C 0.15347 0.55324 0.59038 0.0
O426 O 0.14927 0.56988 0.48855 0.0
O427 O 0.12781 0.53418 0.49968 0.0
O428 O 0.0875 0.55875 0.5121 0.0
C429 C 0.14339 0.54929 0.48232 0.0
O430 O 0.17122 0.56491 0.57319 0.0
C431 C 0.07469 0.53905 0.52426 0.0
O432 O 0.13408 0.55051 0.58213 0.0
O433 O 0.08426 0.5307 0.54139 0.0
C434 C 0.36187 0.54374 0.54083 0.0
O435 O 0.36356 0.56234 0.53099 0.0
Cd436 Cd 0.39959 0.59638 0.52211 0.0
O437 O 0.37964 0.54172 0.54284 0.0
Cd438 Cd 0.42102 0.56526 0.53064 0.0
C439 C 0.42672 0.5984 0.59316 0.0
O440 O 0.42331 0.59002 0.48641 0.0
O441 O 0.45337 0.602 0.51617 0.0
O442 O 0.42602 0.53924 0.49579 0.0
C443 C 0.44433 0.60447 0.49103 0.0
O444 O 0.41795 0.60698 0.57464 0.0
C445 C 0.43915 0.53647 0.51472 0.0
O446 O 0.42877 0.58146 0.58419 0.0
O447 O 0.44278 0.54603 0.54193 0.0
C448 C 0.45142 0.81919 0.54484 0.0
O449 O 0.43356 0.80238 0.53309 0.0
Cd450 Cd 0.39921 0.80338 0.52203 0.0
O451 O 0.45273 0.83863 0.54776 0.0
Cd452 Cd 0.42901 0.85609 0.5345 0.0
C453 C 0.39323 0.82588 0.59345 0.0
O454 O 0.40591 0.83454 0.48849 0.0
O455 O 0.39255 0.8514 0.51832 0.0
O456 O 0.45552 0.88794 0.5015 0.0
C457 C 0.39089 0.8404 0.49292 0.0
O458 O 0.38606 0.80919 0.57385 0.0
C459 C 0.45769 0.9034 0.52087 0.0
O460 O 0.41023 0.8454 0.58641 0.0
O461 O 0.44751 0.89688 0.54761 0.0
C462 C 0.28674 0.49692 0.27485 0.0
O463 O 0.28719 0.51575 0.28054 0.0
Cd464 Cd 0.26049 0.52732 0.29943 0.0
O465 O 0.2687 0.47755 0.27969 0.0
Cd466 Cd 0.22952 0.46542 0.29938 0.0
C467 C 0.22027 0.49841 0.24181 0.0
O468 O 0.23808 0.49673 0.33199 0.0
O469 O 0.21614 0.46578 0.35633 0.0
O470 O 0.22079 0.42608 0.30772 0.0
C471 C 0.22578 0.48739 0.35599 0.0
O472 O 0.23471 0.5174 0.25461 0.0
C473 C 0.1997 0.41757 0.30046 0.0
O474 O 0.21649 0.47924 0.25323 0.0
O475 O 0.19313 0.43133 0.29116 0.0
C476 C 0.50944 0.79229 0.27285 0.0
O477 O 0.4927 0.7765 0.28811 0.0
Cd478 Cd 0.49096 0.74225 0.30715 0.0
O479 O 0.52797 0.79176 0.2693 0.0
Cd480 Cd 0.5435 0.76689 0.28634 0.0
C481 C 0.50586 0.72704 0.23607 0.0
O482 O 0.52441 0.75261 0.33773 0.0
O483 O 0.53801 0.73324 0.31505 0.0
O484 O 0.58059 0.7994 0.30154 0.0
C485 C 0.52847 0.73618 0.33925 0.0
O486 O 0.49095 0.72248 0.25787 0.0
C487 C 0.5921 0.79196 0.28689 0.0
O488 O 0.52627 0.7436 0.23923 0.0
O489 O 0.58096 0.77369 0.27075 0.0
C490 C 0.20401 0.71239 0.27506 0.0
O491 O 0.22039 0.71226 0.28985 0.0
Cd492 Cd 0.2539 0.74552 0.30895 0.0
O493 O 0.2035 0.73096 0.27187 0.0
Cd494 Cd 0.22688 0.77145 0.2898 0.0
C495 C 0.26832 0.77758 0.23943 0.0
O496 O 0.24199 0.76687 0.34067 0.0
O497 O 0.25963 0.80034 0.31909 0.0
O498 O 0.19319 0.77366 0.30614 0.0
C499 C 0.2576 0.7877 0.34268 0.0
O500 O 0.27324 0.76703 0.26049 0.0
C501 C 0.19965 0.7927 0.29222 0.0
O502 O 0.25103 0.78025 0.24288 0.0
O503 O 0.21794 0.80096 0.27588 0.0
C504 C 0.17083 0.0277 0.08003 0.0
C505 C 0.15319 0.02533 0.10036 0.0
C506 C 0.16642 0.01189 0.05544 0.0
C507 C 0.14394 0.9932 0.05143 0.0
C508 C 0.12694 0.98905 0.07452 0.0
C509 C 0.13176 0.00523 0.09874 0.0
C510 C 0.18513 0.01678 0.03158 0.0
C511 C 0.10289 0.969 0.07157 0.0
C512 C 0.12251 0.97906 0.9663 0.0
C513 C 0.12349 0.9591 0.96035 0.0
C514 C 0.12928 0.99027 -0.00421 0.0
C515 C 0.13707 0.98123 0.02015 0.0
C516 C 0.13816 0.9611 0.01441 0.0
C517 C 0.13143 0.95029 0.98446 0.0
C518 C 0.12802 0.01185 0.00084 0.0
C519 C 0.14617 0.95088 0.03994 0.0
H520 H 0.18758 0.04298 0.08139 0.0
H521 H 0.11814 0.00299 0.11477 0.0
H522 H 0.18475 0.00078 0.0242 0.0
H523 H 0.18242 0.02458 0.00985 0.0
H524 H 0.20238 0.02887 0.04133 0.0
H525 H 0.09331 0.96548 0.09442 0.0
H526 H 0.09352 0.97286 0.05304 0.0
H527 H 0.10307 0.9533 0.06403 0.0
H528 H 0.11651 0.98604 0.9478 0.0
H529 H 0.13213 0.93479 0.98008 0.0
H530 H 0.14517 0.02627 0.00735 0.0
H531 H 0.11623 0.00937 0.02091 0.0
H532 H 0.12192 0.0168 0.97925 0.0
H533 H 0.16345 0.96381 0.04852 0.0
H534 H 0.14681 0.93562 0.03128 0.0
H535 H 0.13445 0.94576 0.0608 0.0
C536 C 0.95921 0.14388 0.05876 0.0
C537 C 0.96137 0.13096 0.08339 0.0
C538 C 0.97598 0.15384 0.03486 0.0
C539 C -0.00465 0.1509 0.03582 0.0
C540 C -0.00128 0.1399 0.06235 0.0
C541 C 0.98166 0.13003 0.08582 0.0
C542 C 0.97188 0.16566 0.0071 0.0
C543 C 0.01932 0.1367 0.06452 0.0
C544 C 0.01772 0.14304 0.9566 0.0
C545 C 0.03753 0.1644 0.95223 0.0
C546 C 0.00387 0.1386 0.98363 0.0
C547 C 0.00998 0.1559 0.00701 0.0
C548 C 0.02993 0.1775 0.00287 0.0
C549 C 0.04349 0.18152 0.97547 0.0
C550 C 0.98268 0.1153 0.98716 0.0
C551 C 0.03697 0.19628 0.0274 0.0
H552 H 0.94368 0.14486 0.0568 0.0
H553 H 0.98365 0.12039 0.10507 0.0
H554 H 0.98782 0.18165 0.00066 0.0
H555 H 0.96655 0.15423 0.98591 0.0
H556 H 0.95826 0.16989 0.01243 0.0
H557 H 0.02132 0.13126 0.08881 0.0
H558 H 0.01738 0.12336 0.04721 0.0
H559 H 0.03523 0.15277 0.05823 0.0
H560 H 0.01293 0.12972 0.93879 0.0
H561 H 0.05877 0.19808 0.97231 0.0
H562 H 0.96728 0.11718 0.98927 0.0
H563 H 0.98382 0.10691 0.00935 0.0
H564 H 0.98022 0.10383 0.96663 0.0
H565 H 0.02306 0.20036 0.03072 0.0
H566 H 0.05288 0.21221 0.02047 0.0
H567 H 0.0398 0.19042 0.05084 0.0
C568 C 0.84366 0.86495 0.95318 0.0
C569 C 0.82197 0.86296 0.95143 0.0
C570 C 0.84944 0.85522 0.9785 0.0
C571 C 0.83314 0.84321 0.00279 0.0
C572 C 0.8112 0.84111 0.00129 0.0
C573 C 0.80585 0.85101 0.97557 0.0
C574 C 0.87307 0.85785 0.97927 0.0
C575 C 0.79346 0.8285 0.02685 0.0
C576 C 0.84762 0.80391 0.049 0.0
C577 C 0.8609 0.81837 0.07394 0.0
C578 C 0.83691 0.81111 0.02681 0.0
C579 C 0.83951 0.83321 0.02979 0.0
C580 C 0.85111 0.847 0.05653 0.0
C581 C 0.86168 0.83941 0.0783 0.0
C582 C 0.82448 0.79582 -0.00126 0.0
C583 C 0.85402 0.87058 0.06076 0.0
H584 H 0.85623 0.8741 0.93467 0.0
H585 H 0.78903 0.84939 0.97444 0.0
H586 H 0.88215 0.86695 0.00137 0.0
H587 H 0.87168 0.84073 0.97967 0.0
H588 H 0.88365 0.86752 0.95836 0.0
H589 H 0.77712 0.82823 0.02202 0.0
H590 H 0.78989 0.81058 0.02866 0.0
H591 H 0.8001 0.83669 0.05042 0.0
H592 H 0.84676 0.78754 0.04557 0.0
H593 H 0.87162 0.85058 0.09778 0.0
H594 H 0.83511 0.80278 0.97691 0.0
H595 H 0.80803 0.79538 0.99435 0.0
H596 H 0.82095 0.77801 0.00243 0.0
H597 H 0.86654 0.88244 0.04295 0.0
H598 H 0.86036 0.8776 0.08502 0.0
H599 H 0.8376 0.87022 0.05655 0.0
C600 C 0.9244 0.11229 0.51674 0.0
C601 C 0.93439 0.1031 0.53704 0.0
C602 C 0.93524 0.12344 0.48818 0.0
C603 C 0.95658 0.12555 0.47995 0.0
C604 C 0.9666 0.11612 0.50021 0.0
C605 C 0.95537 0.10499 0.52837 0.0
C606 C 0.92402 0.13314 0.467 0.0
C607 C 0.98937 0.11798 0.49233 0.0
C608 C 0.98362 0.13444 0.39875 0.0
C609 C 0.00243 0.15665 0.40216 0.0
C610 C 0.96678 0.12478 0.42256 0.0
C611 C 0.96893 0.13763 0.4504 0.0
C612 C 0.98624 0.16098 0.45204 0.0
C613 C 0.00278 0.17028 0.42775 0.0
C614 C 0.94829 0.09998 0.41952 0.0
C615 C 0.98897 0.17537 0.48114 0.0
H616 H 0.90818 0.11089 0.52323 0.0
H617 H 0.96325 0.09799 0.54384 0.0
H618 H 0.935 0.15203 0.46551 0.0
H619 H 0.92215 0.12633 0.44237 0.0
H620 H 0.90686 0.12904 0.47597 0.0
H621 H -0.00519 0.10976 0.51069 0.0
H622 H 0.98832 0.10975 0.46894 0.0
H623 H 0.00283 0.13627 0.49031 0.0
H624 H 0.98296 0.12394 0.37869 0.0
H625 H 0.01709 0.18755 0.43042 0.0
H626 H 0.93169 0.09729 0.42873 0.0
H627 H 0.95308 0.0892 0.43396 0.0
H628 H 0.94599 0.094 0.39433 0.0
H629 H 0.97211 0.17227 0.48985 0.0
H630 H 6e-05 0.19396 0.47617 0.0
H631 H -0.00305 0.1706 0.50064 0.0
C632 C 0.86985 0.85784 0.39115 0.0
C633 C 0.84754 0.85448 0.39085 0.0
C634 C 0.87684 0.84829 0.41536 0.0
C635 C 0.86116 0.83523 0.43975 0.0
C636 C 0.83784 0.82902 0.4368 0.0
C637 C 0.83125 0.83863 0.41217 0.0
C638 C 0.90172 0.85472 0.41705 0.0
C639 C 0.82045 0.81488 0.46202 0.0
C640 C 0.87927 0.8119 0.50992 0.0
C641 C 0.8859 0.82967 0.53228 0.0
C642 C 0.87143 0.81344 0.47938 0.0
C643 C 0.86999 0.83308 0.47131 0.0
C644 C 0.87675 0.85106 0.49379 0.0
C645 C 0.88472 0.84918 0.52385 0.0
C646 C 0.86465 0.79412 0.45584 0.0
C647 C 0.87536 0.87229 0.48628 0.0
H648 H 0.88245 0.86962 0.37427 0.0
H649 H 0.81383 0.83552 0.41178 0.0
H650 H 0.91086 0.86934 0.43377 0.0
H651 H 0.90359 0.84029 0.42619 0.0
H652 H 0.91016 0.85999 0.3933 0.0
H653 H 0.80264 0.80745 0.45297 0.0
H654 H 0.82306 0.80078 0.4706 0.0
H655 H 0.82247 0.82597 0.48282 0.0
H656 H 0.88025 0.79681 0.51622 0.0
H657 H 0.88972 0.86295 0.54098 0.0
H658 H 0.87494 0.80071 0.43366 0.0
H659 H 0.84641 0.78681 0.44901 0.0
H660 H 0.86711 0.78018 0.46567 0.0
H661 H 0.88614 0.88116 0.46517 0.0
H662 H 0.88112 0.88459 0.50654 0.0
H663 H 0.85746 0.86746 0.48028 0.0
C664 C 0.11503 0.9912 0.39239 0.0
C665 C 0.11932 0.97288 0.39417 0.0
C666 C 0.12535 0.00957 0.41391 0.0
C667 C 0.14015 0.00946 0.43779 0.0
C668 C 0.14654 0.99239 0.43734 0.0
C669 C 0.13613 0.97433 0.41535 0.0
C670 C 0.11852 0.02777 0.41311 0.0
C671 C 0.16241 0.99175 0.46225 0.0
C672 C 0.17021 0.05915 0.49599 0.0
C673 C 0.15494 0.05131 0.52195 0.0
C674 C 0.16557 0.04593 0.46809 0.0
C675 C 0.14534 0.02432 0.46637 0.0
C676 C 0.12983 0.01641 0.49241 0.0
C677 C 0.13477 0.03004 0.51977 0.0
C678 C 0.18233 0.05498 0.44063 0.0
C679 C 0.10807 0.99337 0.49158 0.0
H680 H 0.10237 0.99044 0.37568 0.0
H681 H 0.13977 0.96039 0.41668 0.0
H682 H 0.10574 0.02426 0.4322 0.0
H683 H 0.1335 0.04498 0.41768 0.0
H684 H 0.11077 0.02806 0.38982 0.0
H685 H 0.1688 0.98001 0.45534 0.0
H686 H 0.1773 0.00909 0.46636 0.0
H687 H 0.15305 0.98569 0.48524 0.0
H688 H 0.18581 0.07563 0.49743 0.0
H689 H 0.12291 0.0238 0.5397 0.0
H690 H 0.17345 0.05521 0.41842 0.0
H691 H 0.18941 0.04349 0.43624 0.0
H692 H 0.19677 0.07256 0.44522 0.0
H693 H 0.09724 0.99265 0.47115 0.0
H694 H 0.09788 0.98975 0.51389 0.0
H695 H 0.11229 0.97956 0.48806 0.0
C696 C 0.85206 0.04273 0.02198 0.0
C697 C 0.86358 0.03732 0.04533 0.0
C698 C 0.84232 0.02867 0.99509 0.0
C699 C 0.84416 0.00877 0.99154 0.0
C700 C 0.85561 0.00314 0.01512 0.0
C701 C 0.86517 0.01747 0.04167 0.0
C702 C 0.83026 0.03517 0.97037 0.0
C703 C 0.85794 0.98203 0.01221 0.0
C704 C 0.80595 0.9573 0.94062 0.0
C705 C 0.82107 0.95953 0.916 0.0
C706 C 0.81254 0.97425 0.96423 0.0
C707 C 0.83469 0.99384 0.963 0.0
C708 C 0.8491 -0.0028 0.93652 0.0
C709 C 0.84211 0.97999 0.91331 0.0
C710 C 0.79658 0.97018 0.99193 0.0
C711 C 0.87274 0.018 0.93412 0.0
H712 H 0.85073 0.05804 0.0246 0.0
H713 H 0.87397 0.01309 0.05957 0.0
H714 H 0.83915 0.03825 0.94702 0.0
H715 H 0.81248 0.0209 0.9669 0.0
H716 H 0.82969 0.05082 0.97716 0.0
H717 H 0.86704 0.97992 0.03291 0.0
H718 H 0.84075 0.96651 0.01034 0.0
H719 H 0.8675 0.98303 0.9901 0.0
H720 H 0.78957 0.94165 0.94276 0.0
H721 H 0.85377 0.98204 0.89407 0.0
H722 H 0.79628 0.98605 -0.00197 0.0
H723 H 0.80281 0.96515 0.01329 0.0
H724 H 0.77881 0.95634 0.98674 0.0
H725 H 0.87231 0.03384 0.93993 0.0
H726 H 0.88025 0.01985 0.90991 0.0
H727 H 0.88423 0.01645 0.95169 0.0
C728 C 0.97589 0.84072 0.03149 0.0
C729 C 0.95631 0.8189 0.03263 0.0
C730 C 0.99026 0.84792 0.00472 0.0
C731 C 0.98498 0.83295 0.97832 0.0
C732 C 0.9655 0.81073 0.97943 0.0
C733 C 0.95136 0.80395 0.00662 0.0
C734 C 0.01095 0.87177 0.00452 0.0
C735 C 0.9594 0.79434 0.95173 0.0
C736 C 0.01272 0.86705 0.9038 0.0
C737 C 0.03377 0.86751 0.90412 0.0
C738 C -0.00439 0.85405 0.9262 0.0
C739 C -0.00031 0.84122 0.94939 0.0
C740 C 0.01986 0.83969 0.94768 0.0
C741 C 0.03669 0.85285 0.92498 0.0
C742 C 0.97418 0.85589 0.92693 0.0
C743 C 0.02469 0.82593 0.97171 0.0
H744 H 0.97994 0.85237 0.05148 0.0
H745 H 0.93628 0.78704 0.0073 0.0
H746 H 0.02674 0.87087 0.00033 0.0
H747 H 0.00947 0.8819 0.98471 0.0
H748 H 0.01293 0.88106 0.02729 0.0
H749 H 0.9446 0.77715 0.95722 0.0
H750 H 0.95506 0.80132 0.93054 0.0
H751 H 0.97428 0.79239 0.94509 0.0
H752 H 0.01013 0.87802 0.88742 0.0
H753 H 0.05278 0.85286 0.92519 0.0
H754 H 0.97526 0.8671 0.94709 0.0
H755 H 0.9588 0.83885 0.93087 0.0
H756 H 0.97187 0.86328 0.90446 0.0
H757 H 0.02977 0.83532 0.99477 0.0
H758 H 0.03876 0.82303 0.96371 0.0
H759 H 0.00916 0.8091 0.97617 0.0
C760 C 0.14407 0.17767 0.93114 0.0
C761 C 0.13129 0.16241 0.9066 0.0
C762 C 0.15406 0.17109 0.95526 0.0
C763 C 0.15132 0.14884 0.95455 0.0
C764 C 0.14103 0.13458 0.92769 0.0
C765 C 0.13106 0.14152 0.90402 0.0
C766 C 0.16513 0.18693 0.98333 0.0
C767 C 0.1382 0.11093 0.92564 0.0
C768 C 0.17801 0.13091 0.02053 0.0
C769 C 0.15959 0.12007 0.04199 0.0
C770 C 0.17566 0.14023 0.99167 0.0
C771 C 0.15448 0.1388 0.98437 0.0
C772 C 0.13584 0.12775 0.00585 0.0
C773 C 0.13861 0.11849 0.03426 0.0
C774 C 0.19581 0.15173 0.96916 0.0
C775 C 0.11292 0.12586 -0.00099 0.0
H776 H 0.14463 0.19398 0.93313 0.0
H777 H 0.12163 0.1298 0.88475 0.0
H778 H 0.1529 0.18112 0.00364 0.0
H779 H 0.18064 0.18659 0.99134 0.0
H780 H 0.16995 0.20488 0.9775 0.0
H781 H 0.13441 0.10413 0.90085 0.0
H782 H 0.15382 0.11099 0.93415 0.0
H783 H 0.12376 0.09908 0.94121 0.0
H784 H 0.19428 0.13217 0.02629 0.0
H785 H 0.12428 0.11019 0.05064 0.0
H786 H 0.20115 0.17012 0.96668 0.0
H787 H 0.19086 0.14396 0.94502 0.0
H788 H 0.21073 0.15038 0.97758 0.0
H789 H 0.11506 0.1432 -0.00382 0.0
H790 H 0.10022 0.11679 0.0183 0.0
H791 H 0.10583 0.11648 0.97627 0.0
C792 C -0.00215 0.86315 0.60134 0.0
C793 C 0.97866 0.84104 0.60272 0.0
C794 C 0.01436 0.86907 0.57729 0.0
C795 C 0.01151 0.85245 0.55429 0.0
C796 C -0.00574 0.82932 0.55871 0.0
C797 C 0.97801 0.82384 0.58305 0.0
C798 C 0.03299 0.89378 0.57405 0.0
C799 C 0.99102 0.81093 0.53523 0.0
C800 C 0.02084 0.87374 0.469 0.0
C801 C 0.04192 0.87551 0.46136 0.0
C802 C 0.01086 0.86609 0.49907 0.0
C803 C 0.02224 0.86009 0.52232 0.0
C804 C 0.04345 0.86165 0.51482 0.0
C805 C 0.05308 0.86938 0.48436 0.0
C806 C 0.98807 0.86453 0.50593 0.0
C807 C 0.05617 0.85559 0.53904 0.0
H808 H -0.00114 0.87644 0.61703 0.0
H809 H 0.96355 0.80655 0.58439 0.0
H810 H 0.04929 0.89506 0.56612 0.0
H811 H 0.02786 0.90226 0.55572 0.0
H812 H 0.03598 0.90326 0.59691 0.0
H813 H 0.98052 0.79352 0.54556 0.0
H814 H 0.98209 0.81218 0.51369 0.0
H815 H 0.00775 0.81315 0.52744 0.0
H816 H 0.01202 0.87832 0.4514 0.0
H817 H 0.06943 0.87078 0.47869 0.0
H818 H 0.98984 0.87585 0.52629 0.0
H819 H 0.97521 0.84675 0.51278 0.0
H820 H 0.98138 0.86956 0.48505 0.0
H821 H 0.06368 0.8692 0.55751 0.0
H822 H 0.07025 0.85395 0.5279 0.0
H823 H 0.04437 0.83931 0.55138 0.0
C824 C 0.11598 0.19089 0.47113 0.0
C825 C 0.1047 0.17306 0.44889 0.0
C826 C 0.12687 0.18816 0.49807 0.0
C827 C 0.12643 0.16714 0.50276 0.0
C828 C 0.11504 0.14912 0.48042 0.0
C829 C 0.10434 0.1523 0.45386 0.0
C830 C 0.13883 0.2077 0.52144 0.0
C831 C 0.11413 0.12638 0.48454 0.0
C832 C 0.16762 0.15664 0.55071 0.0
C833 C 0.15332 0.14323 0.5757 0.0
C834 C 0.15994 0.16675 0.52822 0.0
C835 C 0.13753 0.1634 0.53099 0.0
C836 C 0.12418 0.15229 0.5583 0.0
C837 C 0.13225 0.14231 0.58036 0.0
C838 C 0.17485 0.17878 0.49968 0.0
C839 C 0.10034 0.14867 0.56247 0.0
H840 H 0.11637 0.207 0.46747 0.0
H841 H 0.09571 0.13841 0.43687 0.0
H842 H 0.13126 0.20216 0.5456 0.0
H843 H 0.15718 0.21276 0.52328 0.0
H844 H 0.13761 0.22294 0.51435 0.0
H845 H 0.10468 0.1142 0.46487 0.0
H846 H 0.13176 0.12904 0.48541 0.0
H847 H 0.10565 0.11838 0.50748 0.0
H848 H 0.18406 0.1577 0.54711 0.0
H849 H 0.12125 0.13235 0.59998 0.0
H850 H 0.17382 0.1942 0.49325 0.0
H851 H 0.16875 0.16703 0.47882 0.0
H852 H 0.19307 0.18396 0.50411 0.0
H853 H 0.09975 0.16431 0.55589 0.0
H854 H 0.09412 0.14387 0.58742 0.0
H855 H 0.08838 0.13465 0.54642 0.0
C856 C 0.84011 0.0005 0.57454 0.0
C857 C 0.85599 0.00087 0.59654 0.0
C858 C 0.83109 0.98389 0.55034 0.0
C859 C 0.83795 0.96719 0.54851 0.0
C860 C 0.85126 0.96553 0.57339 0.0
C861 C 0.86023 0.98249 0.59712 0.0
C862 C 0.81672 0.98614 0.5245 0.0
C863 C 0.85841 0.94757 0.57287 0.0
C864 C 0.81523 0.92387 0.48048 0.0
C865 C 0.83283 0.93474 0.45782 0.0
C866 C 0.81665 0.93395 0.51046 0.0
C867 C 0.83598 0.95548 0.51762 0.0
C868 C 0.8538 0.96643 0.49487 0.0
C869 C 0.85205 0.95588 0.4654 0.0
C870 C 0.79749 0.9217 0.5343 0.0
C871 C 0.87471 0.98949 0.50145 0.0
H872 H 0.83643 0.01443 0.57417 0.0
H873 H 0.87208 0.98234 0.61451 0.0
H874 H 0.82771 0.99476 0.50343 0.0
H875 H 0.80283 0.96909 0.51663 0.0
H876 H 0.809 -0.00351 0.53261 0.0
H877 H 0.86403 0.94524 0.59685 0.0
H878 H 0.84422 0.93085 0.56448 0.0
H879 H 0.87295 0.95297 0.55603 0.0
H880 H 0.80034 0.90747 0.47482 0.0
H881 H 0.8657 0.96446 0.44805 0.0
H882 H 0.78904 0.93194 0.53889 0.0
H883 H 0.80444 0.91986 0.55746 0.0
H884 H 0.78436 0.90442 0.52583 0.0
H885 H 0.86946 0.00239 0.50651 0.0
H886 H 0.88692 -0.00427 0.48107 0.0
H887 H 0.88382 0.98841 0.52287 0.0
C888 C 0.77583 0.29943 0.3059 0.0
C889 C 0.77505 0.27875 0.29856 0.0
C890 C 0.78441 0.31038 0.3352 0.0
C891 C 0.79224 0.30033 0.35803 0.0
C892 C 0.79113 0.27924 0.35114 0.0
C893 C 0.78267 0.26874 0.32133 0.0
C894 C 0.78534 0.33294 0.3415 0.0
C895 C 0.79909 0.26792 0.37505 0.0
C896 C 0.83225 0.34696 0.41364 0.0
C897 C 0.81654 0.34673 0.43588 0.0
C898 C 0.82514 0.33011 0.38984 0.0
C899 C 0.80189 0.31257 0.38863 0.0
C900 C 0.7869 0.31038 0.41381 0.0
C901 C 0.79441 0.32756 0.43719 0.0
C902 C 0.8418 0.33289 0.36372 0.0
C903 C 0.76215 0.29155 0.41392 0.0
H904 H 0.77004 0.30733 0.28848 0.0
H905 H 0.78204 0.2527 0.31589 0.0
H906 H 0.77517 0.33153 0.36312 0.0
H907 H 0.80328 0.34655 0.34609 0.0
H908 H 0.7786 0.33843 0.32117 0.0
H909 H 0.79505 0.25053 0.36728 0.0
H910 H 0.81788 0.27857 0.37839 0.0
H911 H 0.791 0.26657 0.39866 0.0
H912 H 0.84954 0.36147 0.41276 0.0
H913 H 0.78228 0.32692 0.45477 0.0
H914 H 0.83861 0.3408 0.34251 0.0
H915 H 0.83948 0.31607 0.35626 0.0
H916 H 0.85986 0.3441 0.37136 0.0
H917 H 0.75228 0.29611 0.3972 0.0
H918 H 0.75439 0.28909 0.43807 0.0
H919 H 0.7604 0.27508 0.40576 0.0
C920 C 0.6372 0.49116 0.39657 0.0
C921 C 0.63881 0.47933 0.42314 0.0
C922 C 0.65389 0.49904 0.37244 0.0
C923 C 0.6726 0.49513 0.37521 0.0
C924 C 0.67591 0.48615 0.40399 0.0
C925 C 0.65892 0.47831 0.42766 0.0
C926 C 0.64991 0.50891 0.34235 0.0
C927 C 0.69592 0.48221 0.40827 0.0
C928 C 0.68791 0.47517 0.29943 0.0
C929 C 0.70797 0.49485 0.28955 0.0
C930 C 0.67645 0.47517 0.32731 0.0
C931 C 0.68528 0.49534 0.34603 0.0
C932 C 0.70572 0.51522 0.3366 0.0
C933 C 0.71681 0.51477 0.30834 0.0
C934 C 0.65469 0.45353 0.33652 0.0
C935 C 0.71567 0.53697 0.35607 0.0
H936 H 0.62191 0.49237 0.39306 0.0
H937 H 0.66056 0.46966 0.44849 0.0
H938 H 0.66621 0.52323 0.33305 0.0
H939 H 0.64272 0.49541 0.32366 0.0
H940 H 0.63766 0.51516 0.34637 0.0
H941 H 0.69876 0.47995 0.43384 0.0
H942 H 0.69245 0.46647 0.39517 0.0
H943 H 0.71187 0.49668 0.39834 0.0
H944 H 0.68092 0.45969 0.28516 0.0
H945 H 0.73232 0.53007 0.3009 0.0
H946 H 0.64021 0.45694 0.33771 0.0
H947 H 0.65661 0.44777 0.36058 0.0
H948 H 0.65017 0.43932 0.31934 0.0
H949 H 0.70392 0.54403 0.35537 0.0
H950 H 0.73271 0.55024 0.34706 0.0
H951 H 0.71739 0.53335 0.38147 0.0
C952 C 0.50758 0.14439 0.40142 0.0
C953 C 0.52233 0.15981 0.42453 0.0
C954 C 0.49705 0.15134 0.37858 0.0
C955 C 0.50133 0.17416 0.37905 0.0
C956 C 0.51407 0.18892 0.40444 0.0
C957 C 0.5244 0.18155 0.42694 0.0
C958 C 0.48327 0.13496 0.35215 0.0
C959 C 0.51877 0.21329 0.40607 0.0
C960 C 0.50794 0.20295 0.29896 0.0
C961 C 0.48726 0.20305 0.29624 0.0
C962 C 0.51253 0.19341 0.3257 0.0
C963 C 0.49605 0.18373 0.35044 0.0
C964 C 0.47507 0.18361 0.34787 0.0
C965 C 0.4709 0.19328 0.32076 0.0
C966 C 0.53516 0.19386 0.32753 0.0
C967 C 0.45714 0.17344 0.37382 0.0
H968 H 0.50563 0.12746 0.39956 0.0
H969 H 0.53545 0.19347 0.44504 0.0
H970 H 0.46772 0.13603 0.34679 0.0
H971 H 0.49379 0.13967 0.33006 0.0
H972 H 0.47804 0.11695 0.3583 0.0
H973 H 0.52542 0.22114 0.42985 0.0
H974 H 0.53173 0.22374 0.38774 0.0
H975 H 0.50304 0.21407 0.40085 0.0
H976 H 0.52066 0.21039 0.28016 0.0
H977 H 0.45486 0.19327 0.31887 0.0
H978 H 0.53214 0.17616 0.33003 0.0
H979 H 0.54482 0.20363 0.34893 0.0
H980 H 0.54599 0.20179 0.30607 0.0
H981 H 0.45234 0.15534 0.37812 0.0
H982 H 0.44144 0.17411 0.36775 0.0
H983 H 0.46421 0.18284 0.39655 0.0
C984 C 0.62894 0.4444 0.85707 0.0
C985 C 0.609 0.44572 0.86146 0.0
C986 C 0.64303 0.45438 0.8304 0.0
C987 C 0.63701 0.46588 0.80739 0.0
C988 C 0.61672 0.46695 0.81129 0.0
C989 C 0.60296 0.4569 0.83836 0.0
C990 C 0.66457 0.45286 0.82708 0.0
C991 C 0.6097 0.4789 0.78709 0.0
C992 C 0.68865 0.50784 0.7596 0.0
C993 C 0.68784 0.49401 0.73398 0.0
C994 C 0.67115 0.49952 0.78258 0.0
C995 C 0.65238 0.47695 0.77964 0.0
C996 C 0.65033 0.46385 0.75212 0.0
C997 C 0.66812 0.47254 0.72961 0.0
C998 C 0.67385 0.5141 0.81147 0.0
C999 C 0.63037 0.43987 0.74782 0.0
H1000 H 0.63376 0.43582 0.87474 0.0
H1001 H 0.58754 0.45795 0.84149 0.0
H1002 H 0.66423 0.44432 0.80424 0.0
H1003 H 0.67979 0.47033 0.82647 0.0
H1004 H 0.66671 0.44318 0.847 0.0
H1005 H 0.59291 0.47738 0.79294 0.0
H1006 H 0.62284 0.49735 0.78596 0.0
H1007 H 0.60864 0.47163 0.76294 0.0
H1008 H 0.70371 0.52453 0.76306 0.0
H1009 H 0.66718 0.46186 0.7096 0.0
H1010 H 0.67863 0.5073 0.83244 0.0
H1011 H 0.65748 0.51347 0.81725 0.0
H1012 H 0.68733 0.53226 0.80787 0.0
H1013 H 0.6324 0.42806 0.76422 0.0
H1014 H 0.62928 0.43359 0.72297 0.0
H1015 H 0.61399 0.43911 0.75394 0.0
C1016 C 0.479 0.17687 0.74048 0.0
C1017 C 0.49576 0.19208 0.71909 0.0
C1018 C 0.48472 0.16654 0.76515 0.0
C1019 C 0.50765 0.17144 0.76819 0.0
C1020 C 0.52374 0.18405 0.74397 0.0
C1021 C 0.5176 0.19427 0.71966 0.0
C1022 C 0.46692 0.15285 0.79016 0.0
C1023 C 0.54822 0.18918 0.74585 0.0
C1024 C 0.53171 0.18339 0.8521 0.0
C1025 C 0.53221 0.16337 0.85956 0.0
C1026 C 0.52362 0.18601 0.82253 0.0
C1027 C 0.51593 0.1682 0.79959 0.0
C1028 C 0.51633 0.14789 0.80684 0.0
C1029 C 0.52443 0.14568 0.83685 0.0
C1030 C 0.52334 0.20794 0.81589 0.0
C1031 C 0.50846 0.12868 0.78285 0.0
H1032 H 0.46194 0.17471 0.73993 0.0
H1033 H 0.53054 0.20557 0.70277 0.0
H1034 H 0.46847 0.13802 0.79831 0.0
H1035 H 0.46959 0.16391 0.81125 0.0
H1036 H 0.44927 0.14651 0.7811 0.0
H1037 H 0.55701 0.19468 0.72236 0.0
H1038 H 0.55773 0.20323 0.76328 0.0
H1039 H 0.54908 0.17402 0.75425 0.0
H1040 H 0.53756 0.19711 0.8695 0.0
H1041 H 0.52485 0.13017 0.84239 0.0
H1042 H 0.50567 0.204 0.81012 0.0
H1043 H 0.53427 0.21677 0.79488 0.0
H1044 H 0.52962 0.21994 0.8365 0.0
H1045 H 0.49104 0.12363 0.77405 0.0
H1046 H 0.50824 0.11334 0.79304 0.0
H1047 H 0.52007 0.13461 0.76185 0.0
C1048 C 0.8121 0.34682 0.86383 0.0
C1049 C 0.83333 0.36686 0.86762 0.0
C1050 C 0.80776 0.33242 0.83749 0.0
C1051 C 0.82509 0.33814 0.81426 0.0
C1052 C 0.84666 0.3582 0.81798 0.0
C1053 C 0.85053 0.37237 0.84464 0.0
C1054 C 0.78448 0.31113 0.83439 0.0
C1055 C 0.86551 0.36477 0.7937 0.0
C1056 C 0.81163 0.28598 0.76509 0.0
C1057 C 0.79838 0.28775 0.74059 0.0
C1058 C 0.82248 0.30346 0.78785 0.0
C1059 C 0.82003 0.3231 0.78591 0.0
C1060 C 0.80895 0.32612 0.75918 0.0
C1061 C 0.79829 0.3084 0.73677 0.0
C1062 C 0.8345 0.29979 0.81571 0.0
C1063 C 0.80622 0.34696 0.75597 0.0
H1064 H 0.79871 0.34237 0.88143 0.0
H1065 H 0.86702 0.38781 0.84739 0.0
H1066 H 0.77609 0.31189 0.81197 0.0
H1067 H 0.78637 0.29571 0.83303 0.0
H1068 H 0.773 0.30902 0.85476 0.0
H1069 H 0.88164 0.38039 0.80082 0.0
H1070 H 0.86907 0.3505 0.79038 0.0
H1071 H 0.85999 0.36795 0.77021 0.0
H1072 H 0.81208 0.27022 0.76803 0.0
H1073 H 0.78845 0.31012 0.71757 0.0
H1074 H 0.82315 0.29458 0.83698 0.0
H1075 H 0.85047 0.31584 0.82186 0.0
H1076 H 0.8388 0.28618 0.81066 0.0
H1077 H 0.79293 0.34552 0.773 0.0
H1078 H 0.80091 0.34865 0.73146 0.0
H1079 H 0.82241 0.36282 0.76196 0.0
C1080 C 0.5339 0.39143 0.35161 0.0
C1081 C 0.54443 0.38591 0.3763 0.0
C1082 C 0.52414 0.37683 0.32523 0.0
C1083 C 0.52487 0.35623 0.32364 0.0
C1084 C 0.53572 0.35072 0.34825 0.0
C1085 C 0.5454 0.36564 0.37421 0.0
C1086 C 0.51286 0.38329 0.29927 0.0
C1087 C 0.53687 0.32889 0.34739 0.0
C1088 C 0.4832 0.30355 0.27737 0.0
C1089 C 0.49732 0.30348 0.25277 0.0
C1090 C 0.4914 0.32162 0.29943 0.0
C1091 C 0.51416 0.34006 0.2966 0.0
C1092 C 0.52769 0.34112 0.27009 0.0
C1093 C 0.51911 0.32278 0.2485 0.0
C1094 C 0.47639 0.31997 0.32728 0.0
C1095 C 0.55191 0.36067 0.26597 0.0
H1096 H 0.53311 0.40709 0.35298 0.0
H1097 H 0.55349 0.36121 0.39311 0.0
H1098 H 0.52055 0.38352 0.27573 0.0
H1099 H 0.49439 0.37028 0.29785 0.0
H1100 H 0.51452 0.40035 0.30347 0.0
H1101 H 0.54605 0.32723 0.36836 0.0
H1102 H 0.5193 0.31383 0.34685 0.0
H1103 H 0.54574 0.32835 0.32534 0.0
H1104 H 0.46628 0.2888 0.28073 0.0
H1105 H 0.53002 0.32304 0.22925 0.0
H1106 H 0.47713 0.3366 0.33137 0.0
H1107 H 0.48273 0.31578 0.3493 0.0
H1108 H 0.45824 0.30651 0.32355 0.0
H1109 H 0.55286 0.37737 0.2703 0.0
H1110 H 0.55871 0.36087 0.24171 0.0
H1111 H 0.56319 0.35897 0.28375 0.0
C1112 C 0.66121 0.1972 0.23223 0.0
C1113 C 0.68053 0.19448 0.23126 0.0
C1114 C 0.64392 0.18553 0.25496 0.0
C1115 C 0.64612 0.17089 0.27712 0.0
C1116 C 0.66393 0.16573 0.27338 0.0
C1117 C 0.68093 0.17755 0.25032 0.0
C1118 C 0.62485 0.19105 0.25763 0.0
C1119 C 0.66671 0.14995 0.29622 0.0
C1120 C 0.63066 0.17605 0.36239 0.0
C1121 C 0.60979 0.15567 0.3665 0.0
C1122 C 0.64255 0.18103 0.33341 0.0
C1123 C 0.63328 0.16531 0.30771 0.0
C1124 C 0.61219 0.14471 0.31154 0.0
C1125 C 0.60069 0.14008 0.341 0.0
C1126 C 0.66511 0.20317 0.33038 0.0
C1127 C 0.60175 0.12771 0.28453 0.0
H1128 H 0.66048 0.20988 0.21708 0.0
H1129 H 0.69557 0.17498 0.24936 0.0
H1130 H 0.60838 0.17556 0.26376 0.0
H1131 H 0.62896 0.20376 0.27704 0.0
H1132 H 0.62265 0.19846 0.23509 0.0
H1133 H 0.6782 0.14406 0.28634 0.0
H1134 H 0.67428 0.15923 0.31889 0.0
H1135 H 0.64992 0.13475 0.30202 0.0
H1136 H 0.63786 0.18815 0.38196 0.0
H1137 H 0.5845 0.12433 0.34396 0.0
H1138 H 0.66408 0.21378 0.31089 0.0
H1139 H 0.67894 0.19948 0.32407 0.0
H1140 H 0.67002 0.21339 0.35278 0.0
H1141 H 0.59805 0.13583 0.26407 0.0
H1142 H 0.5856 0.11214 0.29173 0.0
H1143 H 0.61402 0.12246 0.27594 0.0
C1144 C 0.84028 0.44561 0.34522 0.0
C1145 C 0.82402 0.43889 0.36987 0.0
C1146 C 0.83654 0.45297 0.31555 0.0
C1147 C 0.81619 0.45379 0.31067 0.0
C1148 C 0.79976 0.44703 0.33548 0.0
C1149 C 0.80384 0.43959 0.36465 0.0
C1150 C 0.85428 0.45984 0.28948 0.0
C1151 C 0.77784 0.44776 0.33135 0.0
C1152 C 0.80629 0.49073 0.25297 0.0
C1153 C 0.7899 0.47391 0.23276 0.0
C1154 C 0.81715 0.48487 0.2767 0.0
C1155 C 0.8116 0.46174 0.27993 0.0
C1156 C 0.79747 0.4454 0.25687 0.0
C1157 C 0.78669 0.45167 0.23356 0.0
C1158 C 0.83232 0.50289 0.3006 0.0
C1159 C 0.79157 0.42067 0.25899 0.0
H1160 H 0.8559 0.44504 0.34905 0.0
H1161 H 0.79122 0.43453 0.38356 0.0
H1162 H 0.84646 0.44909 0.26797 0.0
H1163 H 0.8606 0.47788 0.28236 0.0
H1164 H 0.86912 0.45807 0.29703 0.0
H1165 H 0.76698 0.44214 0.35317 0.0
H1166 H 0.78187 0.46545 0.32542 0.0
H1167 H 0.76773 0.43652 0.31123 0.0
H1168 H 0.80914 0.50805 0.25225 0.0
H1169 H 0.77442 0.43867 0.21756 0.0
H1170 H 0.84723 0.501 0.30714 0.0
H1171 H 0.82238 0.5008 0.32275 0.0
H1172 H 0.83864 0.52049 0.2913 0.0
H1173 H 0.80677 0.41935 0.26581 0.0
H1174 H 0.78468 0.4115 0.23602 0.0
H1175 H 0.77833 0.41188 0.27772 0.0
C1176 C 0.64758 0.19538 0.92265 0.0
C1177 C 0.62792 0.17358 0.92373 0.0
C1178 C 0.66529 0.20019 0.90095 0.0
C1179 C 0.66316 0.18281 0.87985 0.0
C1180 C 0.64464 0.16018 0.88337 0.0
C1181 C 0.62725 0.1558 0.90543 0.0
C1182 C 0.68505 0.22444 0.89843 0.0
C1183 C 0.64183 0.14111 0.8615 0.0
C1184 C 0.68354 0.20181 0.79523 0.0
C1185 C 0.70387 0.20093 0.79416 0.0
C1186 C 0.67023 0.19591 0.82302 0.0
C1187 C 0.67752 0.18915 0.85061 0.0
C1188 C 0.6981 0.18835 0.84988 0.0
C1189 C 0.71101 0.19415 0.82154 0.0
C1190 C 0.64827 0.19684 0.82275 0.0
C1191 C 0.70646 0.18146 0.87897 0.0
H1192 H 0.64846 0.20914 0.93714 0.0
H1193 H 0.61229 0.1388 0.9064 0.0
H1194 H 0.70143 0.22464 0.89454 0.0
H1195 H 0.68228 0.23297 0.87761 0.0
H1196 H 0.68664 0.23461 0.92017 0.0
H1197 H 0.62909 0.12398 0.87093 0.0
H1198 H 0.63586 0.14332 0.83774 0.0
H1199 H 0.65838 0.14162 0.85794 0.0
H1200 H 0.67784 0.20693 0.77418 0.0
H1201 H 0.72678 0.19355 0.82093 0.0
H1202 H 0.64903 0.20903 0.8412 0.0
H1203 H 0.63354 0.17974 0.82866 0.0
H1204 H 0.64497 0.20226 0.79921 0.0
H1205 H 0.70885 0.19313 0.89917 0.0
H1206 H 0.72291 0.18186 0.87453 0.0
H1207 H 0.69348 0.16391 0.88658 0.0
C1208 C 0.84046 0.47378 0.88202 0.0
C1209 C 0.82494 0.45922 0.90516 0.0
C1210 C 0.83369 0.48426 0.85888 0.0
C1211 C 0.81092 0.48012 0.85905 0.0
C1212 C 0.79585 0.46714 0.88403 0.0
C1213 C 0.80304 0.45683 0.90681 0.0
C1214 C 0.85032 0.49818 0.83275 0.0
C1215 C 0.77152 0.46256 0.88526 0.0
C1216 C 0.79373 0.51315 0.80274 0.0
C1217 C 0.78405 0.49761 0.77729 0.0
C1218 C 0.80266 0.50781 0.82958 0.0
C1219 C 0.80192 0.48647 0.83089 0.0
C1220 C 0.79223 0.47076 0.80527 0.0
C1221 C 0.7834 0.47651 0.77883 0.0
C1222 C 0.8128 0.5249 0.85655 0.0
C1223 C 0.79112 0.44779 0.8058 0.0
H1224 H 0.85748 0.47589 0.8807 0.0
H1225 H 0.79102 0.44587 0.92489 0.0
H1226 H 0.84526 0.48817 0.81019 0.0
H1227 H 0.84992 0.51421 0.82833 0.0
H1228 H 0.86816 0.50265 0.83861 0.0
H1229 H 0.76317 0.45515 0.90855 0.0
H1230 H 0.771 0.47855 0.88106 0.0
H1231 H 0.76135 0.45031 0.86605 0.0
H1232 H 0.79429 0.5295 0.80176 0.0
H1233 H 0.776 0.4644 0.7593 0.0
H1234 H 0.83085 0.52946 0.86063 0.0
H1235 H 0.8033 0.51718 0.87901 0.0
H1236 H 0.81228 0.54085 0.85168 0.0
H1237 H 0.80861 0.45028 0.80836 0.0
H1238 H 0.78325 0.43765 0.78379 0.0
H1239 H 0.78097 0.43768 0.82671 0.0
C1240 C 0.51289 0.33024 0.9147 0.0
C1241 C 0.51375 0.35133 0.91064 0.0
C1242 C 0.50262 0.31292 0.89164 0.0
C1243 C 0.49317 0.31694 0.86389 0.0
C1244 C 0.49133 0.33694 0.86178 0.0
C1245 C 0.5016 0.35393 0.88533 0.0
C1246 C 0.5044 0.29157 0.89523 0.0
C1247 C 0.48108 0.34174 0.83278 0.0
C1248 C 0.50693 0.2978 0.78618 0.0
C1249 C 0.48584 0.27873 0.77791 0.0
C1250 C 0.50939 0.31017 0.81416 0.0
C1251 C 0.49031 0.30328 0.83464 0.0
C1252 C 0.46903 0.28381 0.82688 0.0
C1253 C 0.46701 0.27178 0.79846 0.0
C1254 C 0.53245 0.33083 0.82157 0.0
C1255 C 0.44839 0.27593 0.84826 0.0
H1256 H 0.5218 0.32789 0.93463 0.0
H1257 H 0.50189 0.37004 0.88222 0.0
H1258 H 0.48862 0.27624 0.88661 0.0
H1259 H 0.51893 0.29332 0.88058 0.0
H1260 H 0.50748 0.28873 0.92047 0.0
H1261 H 0.47673 0.35535 0.83754 0.0
H1262 H 0.49364 0.34753 0.81287 0.0
H1263 H 0.46542 0.32604 0.82476 0.0
H1264 H 0.52159 0.30332 0.77055 0.0
H1265 H 0.45064 0.25705 0.79226 0.0
H1266 H 0.53877 0.32852 0.84497 0.0
H1267 H 0.53081 0.34639 0.82332 0.0
H1268 H 0.54552 0.33387 0.80309 0.0
H1269 H 0.45282 0.2744 0.87333 0.0
H1270 H 0.43382 0.25918 0.84056 0.0
H1271 H 0.44274 0.28882 0.848 0.0
C1272 C 0.43631 0.62963 0.63257 0.0
C1273 C 0.43516 0.60881 0.625 0.0
C1274 C 0.44489 0.64034 0.662 0.0
C1275 C 0.45235 0.62989 0.68474 0.0
C1276 C 0.45096 0.6087 0.67758 0.0
C1277 C 0.44247 0.59844 0.64765 0.0
C1278 C 0.44617 0.66303 0.66858 0.0
C1279 C 0.45853 0.597 0.70139 0.0
C1280 C 0.49214 0.67574 0.74146 0.0
C1281 C 0.47628 0.67549 0.76345 0.0
C1282 C 0.48511 0.6591 0.71737 0.0
C1283 C 0.4618 0.64176 0.71562 0.0
C1284 C 0.44661 0.63952 0.74053 0.0
C1285 C 0.45403 0.6565 0.76418 0.0
C1286 C 0.50197 0.66195 0.69152 0.0
C1287 C 0.42176 0.6209 0.74006 0.0
H1288 H 0.43078 0.63782 0.61524 0.0
H1289 H 0.44156 0.5823 0.64201 0.0
H1290 H 0.43588 0.6616 0.69005 0.0
H1291 H 0.46415 0.67638 0.67354 0.0
H1292 H 0.43979 0.66887 0.64823 0.0
H1293 H 0.45545 0.58012 0.69266 0.0
H1294 H 0.47706 0.608 0.70649 0.0
H1295 H 0.44929 0.59443 0.72434 0.0
H1296 H 0.5095 0.69013 0.741 0.0
H1297 H 0.44179 0.65588 0.78156 0.0
H1298 H 0.49925 0.67034 0.67048 0.0
H1299 H 0.49943 0.64513 0.68362 0.0
H1300 H 0.51997 0.67278 0.69964 0.0
H1301 H 0.4122 0.62582 0.72329 0.0
H1302 H 0.41378 0.61829 0.76407 0.0
H1303 H 0.41988 0.60444 0.73165 0.0
C1304 C 0.36017 0.80221 0.62934 0.0
C1305 C 0.38085 0.8226 0.624 0.0
C1306 C 0.34737 0.79906 0.65712 0.0
C1307 C 0.35552 0.81664 0.68042 0.0
C1308 C 0.37664 0.83708 0.67566 0.0
C1309 C 0.38903 0.83989 0.64735 0.0
C1310 C 0.32487 0.77699 0.66122 0.0
C1311 C 0.38595 0.85602 0.70021 0.0
C1312 C 0.30624 0.80985 0.73106 0.0
C1313 C 0.30605 0.79526 0.75511 0.0
C1314 C 0.32364 0.81888 0.70795 0.0
C1315 C 0.34134 0.81337 0.70924 0.0
C1316 C 0.34264 0.80089 0.73556 0.0
C1317 C 0.32489 0.79187 0.75814 0.0
C1318 C 0.32168 0.83221 0.68033 0.0
C1319 C 0.36151 0.79509 0.73821 0.0
H1320 H 0.35367 0.78876 0.61148 0.0
H1321 H 0.40505 0.85567 0.64345 0.0
H1322 H 0.3252 0.76818 0.68344 0.0
H1323 H 0.31067 0.78076 0.66353 0.0
H1324 H 0.32101 0.76504 0.64082 0.0
H1325 H 0.40337 0.87013 0.69395 0.0
H1326 H 0.37436 0.86321 0.70235 0.0
H1327 H 0.38665 0.84916 0.72403 0.0
H1328 H 0.29185 0.81273 0.72868 0.0
H1329 H 0.32508 0.78095 0.77702 0.0
H1330 H 0.31549 0.82102 0.6589 0.0
H1331 H 0.33861 0.84715 0.67434 0.0
H1332 H 0.30949 0.83837 0.68554 0.0
H1333 H 0.35803 0.78097 0.72138 0.0
H1334 H 0.3627 0.78944 0.76273 0.0
H1335 H 0.37831 0.81001 0.73164 0.0
C1336 C 0.17574 0.54244 0.62684 0.0
C1337 C 0.15561 0.543 0.62052 0.0
C1338 C 0.17848 0.53333 0.65543 0.0
C1339 C 0.1607 0.52468 0.67849 0.0
C1340 C 0.14021 0.52497 0.67225 0.0
C1341 C 0.13788 0.53409 0.64323 0.0
C1342 C 0.20056 0.53315 0.66101 0.0
C1343 C 0.12101 0.51607 0.6964 0.0
C1344 C 0.17013 0.48672 0.73465 0.0
C1345 C 0.18522 0.50306 0.75659 0.0
C1346 C 0.15963 0.49285 0.71074 0.0
C1347 C 0.1642 0.51574 0.7091 0.0
C1348 C 0.17666 0.53128 0.73393 0.0
C1349 C 0.18709 0.52475 0.75744 0.0
C1350 C 0.14609 0.47563 0.68503 0.0
C1351 C 0.18141 0.55568 0.73354 0.0
H1352 H 0.18946 0.54913 0.60937 0.0
H1353 H 0.12229 0.53456 0.63856 0.0
H1354 H 0.20942 0.54358 0.68238 0.0
H1355 H 0.19684 0.5154 0.66567 0.0
H1356 H 0.21244 0.54006 0.64031 0.0
H1357 H 0.10534 0.51534 0.68659 0.0
H1358 H 0.11662 0.49869 0.70464 0.0
H1359 H 0.12663 0.5274 0.71769 0.0
H1360 H 0.16823 0.46976 0.73413 0.0
H1361 H 0.19828 0.53733 0.77479 0.0
H1362 H 0.15717 0.479 0.66375 0.0
H1363 H 0.13111 0.47712 0.67753 0.0
H1364 H 0.13999 0.45779 0.69311 0.0
H1365 H 0.19526 0.56575 0.71608 0.0
H1366 H 0.18698 0.56393 0.75735 0.0
H1367 H 0.16603 0.55643 0.72597 0.0
C1368 C 0.3634 0.84467 0.10657 0.0
C1369 C 0.36204 0.82953 0.08252 0.0
C1370 C 0.34622 0.83771 0.1299 0.0
C1371 C 0.32723 0.81516 0.12892 0.0
C1372 C 0.32473 0.80059 0.10301 0.0
C1373 C 0.3422 0.80794 0.08013 0.0
C1374 C 0.34941 0.8538 0.15705 0.0
C1375 C 0.30456 0.77653 0.10085 0.0
C1376 C 0.30322 0.78583 0.20822 0.0
C1377 C 0.28315 0.78711 0.21089 0.0
C1378 C 0.31769 0.79502 0.18171 0.0
C1379 C 0.31193 0.80569 0.15713 0.0
C1380 C 0.29169 0.80701 0.15952 0.0
C1381 C 0.27752 0.79773 0.18644 0.0
C1382 C 0.33919 0.7933 0.18004 0.0
C1383 C 0.28499 0.81817 0.13366 0.0
H1384 H 0.3786 0.86144 0.1085 0.0
H1385 H 0.34085 0.79624 0.06134 0.0
H1386 H 0.33321 0.85369 0.1622 0.0
H1387 H 0.35427 0.848 0.17899 0.0
H1388 H 0.36302 0.87167 0.15183 0.0
H1389 H 0.30333 0.76876 0.07699 0.0
H1390 H 0.30639 0.76562 0.11914 0.0
H1391 H 0.28831 0.77636 0.10581 0.0
H1392 H 0.30776 0.77773 0.22697 0.0
H1393 H 0.26203 0.79878 0.18828 0.0
H1394 H 0.35445 0.81067 0.17805 0.0
H1395 H 0.33877 0.78355 0.15843 0.0
H1396 H 0.34131 0.78469 0.20135 0.0
H1397 H 0.29872 0.83623 0.13038 0.0
H1398 H 0.26872 0.81787 0.1392 0.0
H1399 H 0.28299 0.80926 0.11057 0.0
C1400 C 0.14949 0.51116 0.09915 0.0
C1401 C 0.16558 0.52464 0.07579 0.0
C1402 C 0.15545 0.50102 0.12382 0.0
C1403 C 0.1779 0.50433 0.12485 0.0
C1404 C 0.19298 0.51508 0.09887 0.0
C1405 C 0.18666 0.5252 0.07464 0.0
C1406 C 0.13868 0.48927 0.15074 0.0
C1407 C 0.21683 0.51836 0.09856 0.0
C1408 C 0.20784 0.51906 0.2049 0.0
C1409 C 0.20802 0.49894 0.21276 0.0
C1410 C 0.19757 0.52066 0.17675 0.0
C1411 C 0.18729 0.5017 0.15565 0.0
C1412 C 0.18687 0.48109 0.1637 0.0
C1413 C 0.19723 0.47992 0.19229 0.0
C1414 C 0.19814 0.54292 0.16934 0.0
C1415 C 0.17622 0.46058 0.14174 0.0
H1416 H 0.13299 0.51028 0.09998 0.0
H1417 H 0.19901 0.53513 0.05623 0.0
H1418 H 0.13944 0.47409 0.15936 0.0
H1419 H 0.1432 0.50135 0.17109 0.0
H1420 H 0.12083 0.48376 0.14336 0.0
H1421 H 0.22461 0.52281 0.07434 0.0
H1422 H 0.22789 0.5325 0.11511 0.0
H1423 H 0.21669 0.50266 0.10691 0.0
H1424 H 0.21591 0.53374 0.22073 0.0
H1425 H 0.19737 0.46432 0.19818 0.0
H1426 H 0.18051 0.53971 0.1653 0.0
H1427 H 0.20805 0.55049 0.14711 0.0
H1428 H 0.20605 0.5557 0.18888 0.0
H1429 H 0.15946 0.45748 0.13257 0.0
H1430 H 0.1737 0.44481 0.15385 0.0
H1431 H 0.18757 0.46392 0.12081 0.0
C1432 C 0.47842 0.69222 0.20544 0.0
C1433 C 0.49931 0.7129 0.20673 0.0
C1434 C 0.47193 0.67849 0.178 0.0
C1435 C 0.48659 0.68571 0.15102 0.0
C1436 C 0.50762 0.70662 0.15199 0.0
C1437 C 0.51381 0.71994 0.17993 0.0
C1438 C 0.44939 0.65619 0.17796 0.0
C1439 C 0.52351 0.71493 0.12352 0.0
C1440 C 0.47414 0.63647 0.09569 0.0
C1441 C 0.4581 0.63701 0.07486 0.0
C1442 C 0.48489 0.65325 0.11938 0.0
C1443 C 0.47963 0.67106 0.12201 0.0
C1444 C 0.46513 0.67288 0.09919 0.0
C1445 C 0.45447 0.65577 0.07591 0.0
C1446 C 0.50033 0.65077 0.14322 0.0
C1447 C 0.45941 0.69186 0.10089 0.0
H1448 H 0.46716 0.68661 0.22605 0.0
H1449 H 0.52993 0.73597 0.18068 0.0
H1450 H 0.43822 0.65635 0.15862 0.0
H1451 H 0.45239 0.64169 0.17314 0.0
H1452 H 0.44011 0.65297 0.20103 0.0
H1453 H 0.53917 0.7317 0.12805 0.0
H1454 H 0.52873 0.7022 0.11718 0.0
H1455 H 0.51449 0.71668 0.10248 0.0
H1456 H 0.47719 0.62213 0.09495 0.0
H1457 H 0.44234 0.6565 0.05963 0.0
H1458 H 0.49133 0.64507 0.1665 0.0
H1459 H 0.51614 0.66746 0.14724 0.0
H1460 H 0.50523 0.63806 0.13532 0.0
H1461 H 0.44768 0.68869 0.12131 0.0
H1462 H 0.45092 0.69294 0.07873 0.0
H1463 H 0.47508 0.70864 0.10501 0.0
C1464 C 0.18056 0.6601 0.57246 0.0
C1465 C 0.1598 0.63927 0.57383 0.0
C1466 C 0.18661 0.67658 0.59654 0.0
C1467 C 0.17149 0.67208 0.62251 0.0
C1468 C 0.14932 0.65247 0.62182 0.0
C1469 C 0.14368 0.63624 0.59736 0.0
C1470 C 0.21028 0.69745 0.59603 0.0
C1471 C 0.1325 0.64732 0.64871 0.0
C1472 C 0.20147 0.69008 0.70245 0.0
C1473 C 0.20135 0.71046 0.70869 0.0
C1474 C 0.19131 0.67727 0.67485 0.0
C1475 C 0.18064 0.68495 0.65282 0.0
C1476 C 0.17991 0.70519 0.65923 0.0
C1477 C 0.19037 0.71779 0.68708 0.0
C1478 C 0.19246 0.65571 0.66897 0.0
C1479 C 0.16858 0.71381 0.63638 0.0
H1480 H 0.19291 0.66278 0.55392 0.0
H1481 H 0.12747 0.6203 0.5984 0.0
H1482 H 0.20977 0.71295 0.60368 0.0
H1483 H 0.22145 0.6949 0.61306 0.0
H1484 H 0.2182 0.70056 0.57192 0.0
H1485 H 0.11475 0.63455 0.64146 0.0
H1486 H 0.13734 0.64024 0.66928 0.0
H1487 H 0.13281 0.66313 0.65694 0.0
H1488 H 0.20978 0.68417 0.719 0.0
H1489 H 0.1901 0.73348 0.69176 0.0
H1490 H 0.20219 0.65757 0.6467 0.0
H1491 H 0.17496 0.64088 0.66572 0.0
H1492 H 0.20085 0.6518 0.68892 0.0
H1493 H 0.17897 0.72017 0.61427 0.0
H1494 H 0.16674 0.72797 0.64684 0.0
H1495 H 0.15139 0.69971 0.62935 0.0
C1496 C 0.26145 0.47841 0.6694 0.0
C1497 C 0.2711 0.49534 0.69319 0.0
C1498 C 0.27236 0.48138 0.63969 0.0
C1499 C 0.29347 0.50161 0.63392 0.0
C1500 C 0.30323 0.51872 0.65787 0.0
C1501 C 0.29189 0.51541 0.68706 0.0
C1502 C 0.26137 0.46294 0.61455 0.0
C1503 C 0.32582 0.54055 0.65281 0.0
C1504 C 0.34059 0.5105 0.57757 0.0
C1505 C 0.34038 0.52668 0.55668 0.0
C1506 C 0.3236 0.49983 0.60101 0.0
C1507 C 0.30593 0.50534 0.60322 0.0
C1508 C 0.30382 0.51898 0.57925 0.0
C1509 C 0.32114 0.52957 0.55623 0.0
C1510 C 0.32634 0.48513 0.62584 0.0
C1511 C 0.28489 0.52477 0.5802 0.0
H1512 H 0.24532 0.46288 0.67393 0.0
H1513 H 0.29953 0.52855 0.7053 0.0
H1514 H 0.25888 0.47027 0.59219 0.0
H1515 H 0.2728 0.45601 0.60875 0.0
H1516 H 0.24453 0.44858 0.6224 0.0
H1517 H 0.33113 0.55201 0.674 0.0
H1518 H 0.33948 0.5364 0.64748 0.0
H1519 H 0.32457 0.55008 0.63201 0.0
H1520 H 0.35517 0.50781 0.57777 0.0
H1521 H 0.32054 0.54163 0.53967 0.0
H1522 H 0.30952 0.47041 0.63277 0.0
H1523 H 0.33423 0.49554 0.64762 0.0
H1524 H 0.33756 0.47854 0.6172 0.0
H1525 H 0.26842 0.50974 0.58762 0.0
H1526 H 0.28253 0.53087 0.5566 0.0
H1527 H 0.28928 0.53859 0.59796 0.0
C1528 C 0.47323 0.77323 0.6912 0.0
C1529 C 0.49308 0.77261 0.69938 0.0
C1530 C 0.47145 0.78222 0.66193 0.0
C1531 C 0.48992 0.7907 0.63998 0.0
C1532 C 0.50992 0.78985 0.64775 0.0
C1533 C 0.51134 0.78094 0.67752 0.0
C1534 C 0.44975 0.78279 0.65465 0.0
C1535 C 0.5299 0.79863 0.62492 0.0
C1536 C 0.46598 0.79292 0.56008 0.0
C1537 C 0.46814 0.81473 0.56166 0.0
C1538 C 0.47575 0.78565 0.58362 0.0
C1539 C 0.48779 0.80053 0.60927 0.0
C1540 C 0.49282 0.82359 0.60833 0.0
C1541 C 0.48301 0.83048 0.58436 0.0
C1542 C 0.47067 0.76115 0.58314 0.0
C1543 C 0.50598 0.84016 0.63489 0.0
H1544 H 0.45905 0.76689 0.70788 0.0
H1545 H 0.52675 0.78051 0.68364 0.0
H1546 H 0.45385 0.8007 0.65034 0.0
H1547 H 0.44166 0.77285 0.63262 0.0
H1548 H 0.43705 0.77558 0.67439 0.0
H1549 H 0.54257 0.79356 0.63233 0.0
H1550 H 0.52392 0.79218 0.60037 0.0
H1551 H 0.53869 0.81761 0.62395 0.0
H1552 H 0.455 0.7808 0.54211 0.0
H1553 H 0.48519 0.84754 0.58544 0.0
H1554 H 0.45616 0.75076 0.59953 0.0
H1555 H 0.48564 0.75993 0.59153 0.0
H1556 H 0.46585 0.75358 0.55883 0.0
H1557 H 0.49451 0.83645 0.6558 0.0
H1558 H 0.51246 0.85821 0.62753 0.0
H1559 H 0.52066 0.83824 0.64266 0.0
C1560 C 0.30255 0.48047 0.23556 0.0
C1561 C 0.30615 0.49811 0.25675 0.0
C1562 C 0.31811 0.4845 0.21066 0.0
C1563 C 0.33753 0.5066 0.20712 0.0
C1564 C 0.34281 0.5233 0.23114 0.0
C1565 C 0.32702 0.51883 0.25572 0.0
C1566 C 0.3123 0.466 0.18608 0.0
C1567 C 0.36363 0.54692 0.22873 0.0
C1568 C 0.38097 0.52332 0.13978 0.0
C1569 C 0.3726 0.53319 0.11789 0.0
C1570 C 0.3693 0.51362 0.16852 0.0
C1571 C 0.34896 0.51403 0.17552 0.0
C1572 C 0.34005 0.52323 0.15299 0.0
C1573 C 0.35194 0.53263 0.12451 0.0
C1574 C 0.37923 0.50378 0.19176 0.0
C1575 C 0.3183 0.52391 0.15938 0.0
H1576 H 0.28661 0.46427 0.23645 0.0
H1577 H 0.33016 0.53235 0.27254 0.0
H1578 H 0.30427 0.46923 0.16506 0.0
H1579 H 0.32795 0.46606 0.17769 0.0
H1580 H 0.30007 0.44875 0.1957 0.0
H1581 H 0.36741 0.55637 0.25173 0.0
H1582 H 0.37891 0.5459 0.22136 0.0
H1583 H 0.36058 0.55691 0.21025 0.0
H1584 H 0.39688 0.52357 0.1348 0.0
H1585 H 0.34519 0.53999 0.10767 0.0
H1586 H 0.36556 0.48792 0.20307 0.0
H1587 H 0.38833 0.51639 0.21108 0.0
H1588 H 0.39167 0.49989 0.17996 0.0
H1589 H 0.304 0.50644 0.16471 0.0
H1590 H 0.31325 0.53086 0.13883 0.0
H1591 H 0.32068 0.53477 0.18059 0.0
C1592 C 0.48475 0.80849 0.25678 0.0
C1593 C 0.50564 0.80876 0.25414 0.0
C1594 C 0.4779 0.81869 0.23337 0.0
C1595 C 0.49235 0.82945 0.20682 0.0
C1596 C 0.51457 0.83216 0.20604 0.0
C1597 C 0.52099 0.82178 0.22981 0.0
C1598 C 0.45419 0.81573 0.23535 0.0
C1599 C 0.53064 0.84387 0.17841 0.0
C1600 C 0.46172 0.81955 0.12764 0.0
C1601 C 0.46263 0.84054 0.12246 0.0
C1602 C 0.47157 0.81594 0.15484 0.0
C1603 C 0.48266 0.83378 0.17754 0.0
C1604 C 0.4839 0.85512 0.17241 0.0
C1605 C 0.47383 0.85826 0.14489 0.0
C1606 C 0.46988 0.79289 0.15943 0.0
C1607 C 0.4956 0.87448 0.1961 0.0
H1608 H 0.47294 0.79884 0.27585 0.0
H1609 H 0.53732 0.82237 0.22778 0.0
H1610 H 0.45439 0.83169 0.22827 0.0
H1611 H 0.44267 0.80202 0.21858 0.0
H1612 H 0.44688 0.81085 0.2598 0.0
H1613 H 0.54853 0.84852 0.18431 0.0
H1614 H 0.52499 0.83214 0.15753 0.0
H1615 H 0.53039 0.85959 0.17121 0.0
H1616 H 0.45317 0.80578 0.11046 0.0
H1617 H 0.47464 0.87456 0.14109 0.0
H1618 H 0.46045 0.78484 0.18182 0.0
H1619 H 0.48727 0.79507 0.16175 0.0
H1620 H 0.46096 0.78097 0.13929 0.0
H1621 H 0.48649 0.86937 0.21936 0.0
H1622 H 0.49609 0.89038 0.18781 0.0
H1623 H 0.51341 0.87828 0.20044 0.0
C1624 C 0.18755 0.67097 0.26183 0.0
C1625 C 0.18781 0.6917 0.2569 0.0
C1626 C 0.17747 0.65316 0.23943 0.0
C1627 C 0.16758 0.65628 0.21143 0.0
C1628 C 0.16543 0.67604 0.20823 0.0
C1629 C 0.17551 0.69353 0.23114 0.0
C1630 C 0.17968 0.63213 0.24411 0.0
C1631 C 0.15481 0.67994 0.17887 0.0
C1632 C 0.17977 0.63442 0.13492 0.0
C1633 C 0.15854 0.61504 0.12811 0.0
C1634 C 0.18279 0.64781 0.16201 0.0
C1635 C 0.16415 0.64164 0.18308 0.0
C1636 C 0.14273 0.62191 0.17676 0.0
C1637 C 0.14014 0.60885 0.14922 0.0
C1638 C 0.20597 0.66874 0.16786 0.0
C1639 C 0.12258 0.61477 0.19886 0.0
H1640 H 0.19662 0.66922 0.28205 0.0
H1641 H 0.17538 0.70939 0.22732 0.0
H1642 H 0.16387 0.61643 0.23647 0.0
H1643 H 0.194 0.63365 0.2292 0.0
H1644 H 0.18331 0.6301 0.26943 0.0
H1645 H 0.15048 0.69366 0.18272 0.0
H1646 H 0.16713 0.68512 0.15871 0.0
H1647 H 0.13908 0.664 0.17173 0.0
H1648 H 0.1941 0.63939 0.11883 0.0
H1649 H 0.12368 0.59388 0.14416 0.0
H1650 H 0.21281 0.66727 0.1913 0.0
H1651 H 0.20431 0.68431 0.16867 0.0
H1652 H 0.21864 0.67116 0.14906 0.0
H1653 H 0.12734 0.61304 0.22366 0.0
H1654 H 0.10748 0.59828 0.19154 0.0
H1655 H 0.1176 0.62817 0.1992 0.0
C1656 C 0.09974 0.16985 0.2703 0.0
C1657 C 0.11244 0.18394 0.29584 0.0
C1658 C 0.1092 0.16024 0.2499 0.0
C1659 C 0.1318 0.16474 0.25541 0.0
C1660 C 0.14483 0.17925 0.28082 0.0
C1661 C 0.13502 0.18877 0.30065 0.0
C1662 C 0.09494 0.14503 0.22274 0.0
C1663 C 0.16898 0.18436 0.28744 0.0
C1664 C 0.14887 0.12278 0.22323 0.0
C1665 C 0.16154 0.13438 0.19608 0.0
C1666 C 0.13904 0.13247 0.24279 0.0
C1667 C 0.14183 0.15414 0.23476 0.0
C1668 C 0.15453 0.16588 0.20733 0.0
C1669 C 0.16434 0.1559 0.18839 0.0
C1670 C 0.12576 0.1196 0.2721 0.0
C1671 C 0.15772 0.18895 0.19796 0.0
H1672 H 0.08229 0.16612 0.26645 0.0
H1673 H 0.14493 0.19964 0.32038 0.0
H1674 H 0.10407 0.15167 0.19973 0.0
H1675 H 0.09229 0.12752 0.22597 0.0
H1676 H 0.07792 0.14384 0.22111 0.0
H1677 H 0.17688 0.19622 0.30796 0.0
H1678 H 0.16894 0.16819 0.29267 0.0
H1679 H 0.17988 0.1921 0.26604 0.0
H1680 H 0.14671 0.10617 0.22927 0.0
H1681 H 0.17405 0.16491 0.16735 0.0
H1682 H 0.10795 0.11637 0.27069 0.0
H1683 H 0.13366 0.1301 0.29379 0.0
H1684 H 0.12518 0.10292 0.27496 0.0
H1685 H 0.14079 0.1877 0.19466 0.0
H1686 H 0.16774 0.19562 0.17554 0.0
H1687 H 0.1667 0.20156 0.21732 0.0
C1688 C 0.82414 0.96954 0.31427 0.0
C1689 C 0.828 0.95188 0.30424 0.0
C1690 C 0.83122 0.98919 0.29556 0.0
C1691 C 0.84218 0.99106 0.26598 0.0
C1692 C 0.84626 0.97336 0.2558 0.0
C1693 C 0.8392 0.95399 0.27517 0.0
C1694 C 0.82677 0.00783 0.30726 0.0
C1695 C 0.85773 0.97472 0.22421 0.0
C1696 C 0.83907 0.02865 0.20133 0.0
C1697 C 0.86127 0.04769 0.20213 0.0
C1698 C 0.83254 0.01026 0.22238 0.0
C1699 C 0.84852 0.01107 0.24498 0.0
C1700 C 0.87067 0.03062 0.24679 0.0
C1701 C 0.87683 0.04872 0.2252 0.0
C1702 C 0.80877 0.98965 0.2197 0.0
C1703 C 0.88802 0.03215 0.27095 0.0
H1704 H 0.8156 0.96806 0.33684 0.0
H1705 H 0.8422 0.94037 0.26734 0.0
H1706 H 0.84301 0.02449 0.30786 0.0
H1707 H 0.81506 0.00973 0.29052 0.0
H1708 H 0.819 0.0042 0.3315 0.0
H1709 H 0.86008 0.95972 0.22012 0.0
H1710 H 0.84729 0.97565 0.20438 0.0
H1711 H 0.87474 0.99054 0.22319 0.0
H1712 H 0.82694 0.02777 0.1836 0.0
H1713 H 0.89398 0.06344 0.22599 0.0
H1714 H 0.79985 0.98605 0.24307 0.0
H1715 H 0.80996 0.97431 0.21316 0.0
H1716 H 0.79816 0.99206 0.20149 0.0
H1717 H 0.88063 0.02903 0.29537 0.0
H1718 H 0.90398 0.04911 0.27055 0.0
H1719 H 0.89251 0.01869 0.26599 0.0
C1720 C 0.96087 0.7936 0.18994 0.0
C1721 C 0.94136 0.79599 0.19027 0.0
C1722 C 0.97791 0.80412 0.21327 0.0
C1723 C 0.97522 0.81714 0.23765 0.0
C1724 C 0.95507 0.81873 0.239 0.0
C1725 C 0.93837 0.80817 0.21518 0.0
C1726 C -0.00079 0.80211 0.21105 0.0
C1727 C 0.95153 0.83226 0.26493 0.0
C1728 C 0.01369 0.83241 0.31033 0.0
C1729 C 0.03063 0.85497 0.30321 0.0
C1730 C -0.00465 0.81993 0.28937 0.0
C1731 C -0.00588 0.83022 0.26055 0.0
C1732 C 0.0112 0.85296 0.2532 0.0
C1733 C 0.02922 0.86511 0.27471 0.0
C1734 C 0.97733 0.79576 0.29803 0.0
C1735 C 0.01052 0.8644 0.2225 0.0
H1736 H 0.96324 0.78412 0.17081 0.0
H1737 H 0.92325 0.80995 0.21564 0.0
H1738 H 0.0143 0.81923 0.20629 0.0
H1739 H 0.00235 0.79596 0.23405 0.0
H1740 H -0.00197 0.79022 0.19176 0.0
H1741 H 0.93415 0.83026 0.26409 0.0
H1742 H 0.95412 0.82676 0.28881 0.0
H1743 H 0.96438 0.85071 0.26234 0.0
H1744 H 0.01466 0.82452 0.3324 0.0
H1745 H 0.04231 0.88252 0.26909 0.0
H1746 H 0.97677 0.78362 0.27965 0.0
H1747 H 0.96018 0.79429 0.29851 0.0
H1748 H 0.98057 0.79043 0.32168 0.0
H1749 H 0.01088 0.85435 0.20171 0.0
H1750 H 0.02513 0.88219 0.22041 0.0
H1751 H -0.00567 0.86488 0.22109 0.0
C1752 C 0.8417 0.82297 0.67884 0.0
C1753 C 0.86334 0.82666 0.68784 0.0
C1754 C 0.82962 0.83018 0.69843 0.0
C1755 C 0.83936 0.8411 0.7278 0.0
C1756 C 0.86132 0.84515 0.73682 0.0
C1757 C 0.87311 0.83794 0.71663 0.0
C1758 C 0.80631 0.82576 0.68797 0.0
C1759 C 0.87213 0.8566 0.76813 0.0
C1760 C 0.81736 0.87538 0.77214 0.0
C1761 C 0.80364 0.85969 0.79568 0.0
C1762 C 0.82859 0.86935 0.74914 0.0
C1763 C 0.82609 0.84721 0.74999 0.0
C1764 C 0.81164 0.83108 0.77302 0.0
C1765 C 0.80049 0.83748 0.79549 0.0
C1766 C 0.84366 0.88686 0.7246 0.0
C1767 C 0.80861 0.80731 0.77468 0.0
H1768 H 0.83413 0.81437 0.6565 0.0
H1769 H 0.88983 0.84083 0.72365 0.0
H1770 H 0.79306 0.81378 0.70492 0.0
H1771 H 0.80576 0.84194 0.68832 0.0
H1772 H 0.80177 0.81828 0.66359 0.0
H1773 H 0.88964 0.85915 0.7711 0.0
H1774 H 0.87313 0.87351 0.76976 0.0
H1775 H 0.86134 0.84602 0.78831 0.0
H1776 H 0.81976 0.89253 0.77211 0.0
H1777 H 0.78983 0.82524 0.81355 0.0
H1778 H 0.8389 0.87953 0.7002 0.0
H1779 H 0.86177 0.89157 0.72855 0.0
H1780 H 0.84243 0.90269 0.7257 0.0
H1781 H 0.80281 0.79858 0.75125 0.0
H1782 H 0.79601 0.79652 0.79323 0.0
H1783 H 0.82528 0.8085 0.78017 0.0
C1784 C 0.16199 0.05476 0.7076 0.0
C1785 C 0.17356 0.05367 0.6804 0.0
C1786 C 0.1543 0.03762 0.73109 0.0
C1787 C 0.15828 0.01901 0.72714 0.0
C1788 C 0.17011 0.01794 0.69986 0.0
C1789 C 0.17765 0.03531 0.67686 0.0
C1790 C 0.14185 0.03934 0.76003 0.0
C1791 C 0.17466 -0.00164 0.69486 0.0
C1792 C 0.15726 0.98479 0.79955 0.0
C1793 C 0.13542 0.96531 0.79719 0.0
C1794 C 0.16481 0.00253 0.7771 0.0
C1795 C 0.15021 0.00067 0.7516 0.0
C1796 C 0.12816 0.98103 0.749 0.0
C1797 C 0.121 0.96357 0.7719 0.0
C1798 C 0.18843 0.02323 0.78062 0.0
C1799 C 0.1122 0.97844 0.72196 0.0
H1800 H 0.15879 0.06891 0.71045 0.0
H1801 H 0.18661 0.03438 0.6559 0.0
H1802 H 0.1244 0.02413 0.76128 0.0
H1803 H 0.15099 0.03946 0.78214 0.0
H1804 H 0.14032 0.05501 0.75964 0.0
H1805 H 0.18411 0.0001 0.67231 0.0
H1806 H 0.1848 -0.00255 0.71511 0.0
H1807 H 0.15823 0.98188 0.69425 0.0
H1808 H 0.16848 0.98626 0.81908 0.0
H1809 H 0.1041 0.94855 0.76999 0.0
H1810 H 0.18721 0.03903 0.78211 0.0
H1811 H 0.19895 0.02492 0.75928 0.0
H1812 H 0.19748 0.02222 0.8022 0.0
H1813 H 0.10895 0.99305 0.72199 0.0
H1814 H 0.09551 0.96224 0.7236 0.0
H1815 H 0.12029 0.97876 0.69872 0.0
C1816 C 0.9632 0.13832 0.68338 0.0
C1817 C 0.94608 0.11604 0.69146 0.0
C1818 C 0.98271 0.15035 0.7025 0.0
C1819 C 0.98497 0.13994 0.73054 0.0
C1820 C 0.96774 0.11746 0.73885 0.0
C1821 C 0.94852 0.10571 0.71908 0.0
C1822 C 0.00085 0.17424 0.6928 0.0
C1823 C 0.9695 0.10594 0.76882 0.0
C1824 C 0.0431 0.16243 0.76961 0.0
C1825 C 0.04186 0.17566 0.79454 0.0
C1826 C 0.02487 0.15105 0.74807 0.0
C1827 C 0.00495 0.15286 0.75185 0.0
C1828 C 0.00383 0.16661 0.77653 0.0
C1829 C 0.02236 0.17796 0.79747 0.0
C1830 C 0.02671 0.13675 0.7217 0.0
C1831 C 0.98281 0.16885 0.78136 0.0
H1832 H 0.96146 0.14634 0.66193 0.0
H1833 H 0.9353 0.0885 0.7254 0.0
H1834 H 0.00251 0.18671 0.7114 0.0
H1835 H 0.01773 0.1752 0.6908 0.0
H1836 H -0.00312 0.17953 0.66963 0.0
H1837 H 0.95476 0.08828 0.77163 0.0
H1838 H 0.98553 0.10512 0.76845 0.0
H1839 H 0.97027 0.11615 0.79009 0.0
H1840 H 0.05818 0.16068 0.76719 0.0
H1841 H 0.0213 0.18819 0.81668 0.0
H1842 H 0.02345 0.1422 0.69819 0.0
H1843 H 0.01349 0.1185 0.72505 0.0
H1844 H 0.04382 0.13808 0.72104 0.0
H1845 H 0.97889 0.17526 0.7592 0.0
H1846 H 0.98491 0.18066 0.80128 0.0
H1847 H 0.96779 0.15178 0.78659 0.0
C1848 C 0.781 0.50509 0.59899 0.0
C1849 C 0.79509 0.51927 0.62355 0.0
C1850 C 0.78899 0.4946 0.57759 0.0
C1851 C 0.81151 0.49835 0.58105 0.0
C1852 C 0.82604 0.51327 0.60512 0.0
C1853 C 0.81769 0.52363 0.62599 0.0
C1854 C 0.77313 0.479 0.5519 0.0
C1855 C 0.85016 0.51765 0.60954 0.0
C1856 C 0.82457 0.45314 0.55052 0.0
C1857 C 0.83634 0.46316 0.5221 0.0
C1858 C 0.81624 0.46437 0.56985 0.0
C1859 C 0.81966 0.48604 0.56035 0.0
C1860 C 0.83143 0.49619 0.53163 0.0
C1861 C 0.83973 0.48466 0.5129 0.0
C1862 C 0.80392 0.45314 0.60053 0.0
C1863 C 0.83529 0.51923 0.52073 0.0
H1864 H 0.76355 0.50172 0.59695 0.0
H1865 H 0.82871 0.53465 0.64485 0.0
H1866 H 0.78151 0.48424 0.52815 0.0
H1867 H 0.76935 0.46119 0.55624 0.0
H1868 H 0.75669 0.47906 0.55111 0.0
H1869 H 0.85957 0.53047 0.62856 0.0
H1870 H 0.84966 0.50142 0.61593 0.0
H1871 H 0.85992 0.52384 0.58689 0.0
H1872 H 0.82192 0.43653 0.55772 0.0
H1873 H 0.84874 0.49246 0.49087 0.0
H1874 H 0.78644 0.45086 0.60032 0.0
H1875 H 0.81316 0.46433 0.62116 0.0
H1876 H 0.8025 0.43615 0.60432 0.0
H1877 H 0.81864 0.51874 0.5186 0.0
H1878 H 0.84427 0.52448 0.49734 0.0
H1879 H 0.84562 0.53252 0.53873 0.0
C1880 C 0.48036 0.30955 0.6349 0.0
C1881 C 0.48379 0.29133 0.62643 0.0
C1882 C 0.49015 0.32981 0.617 0.0
C1883 C 0.50349 0.3318 0.58981 0.0
C1884 C 0.50714 0.31353 0.58121 0.0
C1885 C 0.49729 0.2935 0.59973 0.0
C1886 C 0.48599 0.34899 0.62695 0.0
C1887 C 0.52112 0.31502 0.55215 0.0
C1888 C 0.50796 0.37231 0.52406 0.0
C1889 C 0.53017 0.39083 0.52863 0.0
C1890 C 0.49903 0.3531 0.54401 0.0
C1891 C 0.51257 0.35247 0.56936 0.0
C1892 C 0.53475 0.37138 0.57478 0.0
C1893 C 0.54335 0.39038 0.55423 0.0
C1894 C 0.47531 0.33323 0.53747 0.0
C1895 C 0.54952 0.37134 0.60187 0.0
H1896 H 0.47005 0.30803 0.65565 0.0
H1897 H 0.50001 0.27948 0.59314 0.0
H1898 H 0.50255 0.36512 0.63001 0.0
H1899 H 0.47634 0.35207 0.60798 0.0
H1900 H 0.47616 0.34516 0.64963 0.0
H1901 H 0.52291 0.29959 0.5493 0.0
H1902 H 0.5129 0.317 0.53034 0.0
H1903 H 0.53846 0.33033 0.55381 0.0
H1904 H 0.49764 0.37256 0.50436 0.0
H1905 H 0.56051 0.40466 0.55788 0.0
H1906 H 0.46435 0.32949 0.55895 0.0
H1907 H 0.47628 0.31761 0.53208 0.0
H1908 H 0.46687 0.33661 0.51707 0.0
H1909 H 0.54021 0.36811 0.62488 0.0
H1910 H 0.56596 0.38779 0.60368 0.0
H1911 H 0.55335 0.35727 0.59839 0.0
C1912 C 0.61403 0.15278 0.55214 0.0
C1913 C 0.61386 0.14026 0.52528 0.0
C1914 C 0.63202 0.16091 0.57433 0.0
C1915 C 0.6502 0.15641 0.5694 0.0
C1916 C 0.65003 0.14367 0.54243 0.0
C1917 C 0.63183 0.13571 0.52072 0.0
C1918 C 0.63163 0.17436 0.60297 0.0
C1919 C 0.66913 0.13853 0.53645 0.0
C1920 C 0.70672 0.19436 0.6113 0.0
C1921 C 0.70517 0.18071 0.63752 0.0
C1922 C 0.68897 0.18661 0.58879 0.0
C1923 C 0.66927 0.16475 0.5927 0.0
C1924 C 0.66777 0.15077 0.61885 0.0
C1925 C 0.68578 0.1589 0.64091 0.0
C1926 C 0.69116 0.2019 0.56102 0.0
C1927 C 0.64703 0.12733 0.62373 0.0
H1928 H 0.60018 0.15634 0.55576 0.0
H1929 H 0.63179 0.12604 0.5 0.0
H1930 H 0.63194 0.16565 0.62531 0.0
H1931 H 0.64714 0.19163 0.603 0.0
H1932 H 0.61624 0.17637 0.60331 0.0
H1933 H 0.66646 0.12849 0.51421 0.0
H1934 H 0.68574 0.15476 0.53462 0.0
H1935 H 0.67048 0.12875 0.55683 0.0
H1936 H 0.72168 0.21122 0.60857 0.0
H1937 H 0.68449 0.14825 0.66111 0.0
H1938 H 0.67704 0.20585 0.56174 0.0
H1939 H 0.68962 0.19292 0.53813 0.0
H1940 H 0.70775 0.21828 0.56116 0.0
H1941 H 0.63147 0.12887 0.62638 0.0
H1942 H 0.64865 0.11853 0.64519 0.0
H1943 H 0.64441 0.11641 0.60251 0.0
C1944 C 0.52872 0.17051 0.04701 0.0
C1945 C 0.5168 0.15885 0.01944 0.0
C1946 C 0.5187 0.1783 0.06942 0.0
C1947 C 0.49634 0.17449 0.0639 0.0
C1948 C 0.4843 0.16292 0.03597 0.0
C1949 C 0.49465 0.15512 0.01411 0.0
C1950 C 0.53196 0.1904 0.09914 0.0
C1951 C 0.46049 0.15874 0.02925 0.0
C1952 C 0.46393 0.17549 0.13714 0.0
C1953 C 0.4681 0.19807 0.13661 0.0
C1954 C 0.47255 0.1674 0.11312 0.0
C1955 C 0.48544 0.1822 0.08786 0.0
C1956 C 0.4889 0.2047 0.08645 0.0
C1957 C 0.48024 0.21242 0.11097 0.0
C1958 C 0.4686 0.14331 0.11545 0.0
C1959 C 0.50234 0.22083 0.05959 0.0
H1960 H 0.54582 0.17338 0.05126 0.0
H1961 H 0.4854 0.14619 0.99274 0.0
H1962 H 0.53401 0.20777 0.10058 0.0
H1963 H 0.52235 0.18084 0.1207 0.0
H1964 H 0.54922 0.19209 0.09973 0.0
H1965 H 0.4537 0.14999 0.00599 0.0
H1966 H 0.44861 0.14805 0.04849 0.0
H1967 H 0.46057 0.17525 0.02909 0.0
H1968 H 0.45448 0.16429 0.15686 0.0
H1969 H 0.48337 0.22984 0.11037 0.0
H1970 H 0.48524 0.14391 0.11864 0.0
H1971 H 0.46088 0.13378 0.09302 0.0
H1972 H 0.45721 0.13362 0.13573 0.0
H1973 H 0.52043 0.22487 0.06066 0.0
H1974 H 0.50201 0.23714 0.06073 0.0
H1975 H 0.49537 0.21258 0.03614 0.0
C1976 C 0.83476 0.38351 0.05109 0.0
C1977 C 0.84809 0.38151 0.02696 0.0
C1978 C 0.8249 0.3669 0.07518 0.0
C1979 C 0.82837 0.34785 0.07485 0.0
C1980 C 0.84245 0.34615 0.05119 0.0
C1981 C 0.85224 0.36309 0.0276 0.0
C1982 C 0.81021 0.36936 0.10036 0.0
C1983 C 0.84646 0.32601 0.05005 0.0
C1984 C 0.81588 0.31053 0.14824 0.0
C1985 C 0.79414 0.29206 0.14094 0.0
C1986 C 0.82707 0.32911 0.12724 0.0
C1987 C 0.81633 0.329 0.09817 0.0
C1988 C 0.79434 0.31045 0.09074 0.0
C1989 C 0.78344 0.29223 0.11232 0.0
C1990 C 0.85044 0.34872 0.13601 0.0
C1991 C 0.78247 0.3097 0.05975 0.0
H1992 H 0.83162 0.39781 0.05079 0.0
H1993 H 0.86261 0.36149 0.00907 0.0
H1994 H 0.79219 0.35538 0.0977 0.0
H1995 H 0.81597 0.36776 0.12458 0.0
H1996 H 0.81067 0.38605 0.0987 0.0
H1997 H 0.85876 0.32785 0.03099 0.0
H1998 H 0.85313 0.32402 0.07333 0.0
H1999 H 0.82999 0.31002 0.04565 0.0
H2000 H 0.82416 0.31053 0.17044 0.0
H2001 H 0.76665 0.27796 0.10658 0.0
H2002 H 0.85033 0.36513 0.13538 0.0
H2003 H 0.8633 0.35007 0.11827 0.0
H2004 H 0.856 0.34661 0.16014 0.0
H2005 H 0.7806 0.3251 0.05763 0.0
H2006 H 0.76523 0.2942 0.05786 0.0
H2007 H 0.79301 0.3099 0.03923 0.0
C2008 C 0.60328 0.44 0.04746 0.0
C2009 C 0.60579 0.454 0.02122 0.0
C2010 C 0.6206 0.44707 0.07056 0.0
C2011 C 0.64087 0.46853 0.06707 0.0
C2012 C 0.64331 0.48289 0.04094 0.0
C2013 C 0.62568 0.47549 0.01841 0.0
C2014 C 0.61738 0.43147 0.09838 0.0
C2015 C 0.66475 0.50586 0.0364 0.0
C2016 C 0.6799 0.49729 0.13776 0.0
C2017 C 0.69723 0.49191 0.13252 0.0
C2018 C 0.66113 0.48932 0.11703 0.0
C2019 C 0.65985 0.47588 0.0903 0.0
C2020 C 0.67722 0.47027 0.08498 0.0
C2021 C 0.69569 0.47829 0.10627 0.0
C2022 C 0.64282 0.4955 0.12353 0.0
C2023 C 0.67647 0.45613 0.0565 0.0
H2024 H 0.58789 0.42342 0.04978 0.0
H2025 H 0.62771 0.48641 -0.00181 0.0
H2026 H 0.63061 0.42627 0.09758 0.0
H2027 H 0.61963 0.4407 0.12126 0.0
H2028 H 0.60021 0.41578 0.09833 0.0
H2029 H 0.66374 0.51512 0.01506 0.0
H2030 H 0.66781 0.51678 0.05776 0.0
H2031 H 0.6798 0.50345 0.03372 0.0
H2032 H 0.68095 0.50771 0.15814 0.0
H2033 H 0.70907 0.47411 0.10214 0.0
H2034 H 0.62576 0.47974 0.12481 0.0
H2035 H 0.64219 0.50604 0.10362 0.0
H2036 H 0.64585 0.50521 0.14617 0.0
H2037 H 0.66024 0.43945 0.05652 0.0
H2038 H 0.69105 0.4528 0.05625 0.0
H2039 H 0.67689 0.46513 0.03409 0.0
C2040 C 0.4852 0.85307 0.96384 0.0
C2041 C 0.46293 0.84973 0.96293 0.0
C2042 C 0.49221 0.84207 0.94195 0.0
C2043 C 0.47665 0.82761 0.91838 0.0
C2044 C 0.45442 0.82483 0.91657 0.0
C2045 C 0.44777 0.83587 0.93901 0.0
C2046 C 0.51602 0.84534 0.94469 0.0
C2047 C 0.43751 0.80978 0.89141 0.0
C2048 C 0.50173 0.8129 0.84731 0.0
C2049 C 0.49762 0.79099 0.85561 0.0
C2050 C 0.49464 0.82489 0.86728 0.0
C2051 C 0.48344 0.81481 0.89636 0.0
C2052 C 0.47924 0.7927 0.90489 0.0
C2053 C 0.4863 0.78099 0.88429 0.0
C2054 C 0.49922 0.84836 0.85733 0.0
C2055 C 0.46753 0.78153 0.93593 0.0
H2056 H 0.49701 0.86379 0.98226 0.0
H2057 H 0.43058 0.83333 0.93815 0.0
H2058 H 0.5149 0.82868 0.95006 0.0
H2059 H 0.52527 0.85151 0.92166 0.0
H2060 H 0.52628 0.85776 0.96373 0.0
H2061 H 0.42141 0.81052 0.89207 0.0
H2062 H 0.44522 0.81501 0.86728 0.0
H2063 H 0.4332 0.79174 0.89502 0.0
H2064 H 0.51039 0.82067 0.82507 0.0
H2065 H 0.48313 0.76408 0.89081 0.0
H2066 H 0.51052 0.86133 0.87509 0.0
H2067 H 0.48293 0.84871 0.85671 0.0
H2068 H 0.50747 0.85346 0.83345 0.0
H2069 H 0.47766 0.79235 0.95637 0.0
H2070 H 0.4654 0.76418 0.93887 0.0
H2071 H 0.4504 0.78006 0.93707 0.0
C2072 C 0.17533 0.6974 0.86198 0.0
C2073 C 0.19807 0.71522 0.86499 0.0
C2074 C 0.16618 0.67881 0.88317 0.0
C2075 C 0.18005 0.67821 0.90809 0.0
C2076 C 0.20283 0.69641 0.91173 0.0
C2077 C 0.21161 0.71469 0.89002 0.0
C2078 C 0.14183 0.65962 0.87853 0.0
C2079 C 0.21799 0.69644 0.93831 0.0
C2080 C 0.1507 0.64 0.97929 0.0
C2081 C 0.15356 0.62114 0.97284 0.0
C2082 C 0.15927 0.65872 0.95841 0.0
C2083 C 0.17076 0.65844 0.93028 0.0
C2084 C 0.17348 0.63935 0.92341 0.0
C2085 C 0.16492 0.62093 0.94491 0.0
C2086 C 0.15622 0.67888 0.9666 0.0
C2087 C 0.18547 0.63843 0.89342 0.0
H2088 H 0.1648 0.6977 0.84263 0.0
H2089 H 0.22917 0.72848 0.89248 0.0
H2090 H 0.14165 0.64328 0.87416 0.0
H2091 H 0.13168 0.6573 0.90051 0.0
H2092 H 0.13324 0.66284 0.85816 0.0
H2093 H 0.23509 0.71223 0.93837 0.0
H2094 H 0.2097 0.69493 0.9618 0.0
H2095 H 0.22044 0.6814 0.93584 0.0
H2096 H 0.14197 0.64028 0.00091 0.0
H2097 H 0.16709 0.60635 0.9398 0.0
H2098 H 0.14665 0.68173 0.94727 0.0
H2099 H 0.1732 0.69468 0.96849 0.0
H2100 H 0.14686 0.67638 0.98946 0.0
H2101 H 0.17677 0.64028 0.87206 0.0
H2102 H 0.18579 0.62215 0.89133 0.0
H2103 H 0.20336 0.65292 0.89316 0.0
C2104 C 0.37525 0.54606 0.93459 0.0
C2105 C 0.37557 0.5321 0.95916 0.0
C2106 C 0.35744 0.53746 0.91212 0.0
C2107 C 0.33952 0.51444 0.91455 0.0
C2108 C 0.34001 0.50012 0.93889 0.0
C2109 C 0.35811 0.50911 0.96084 0.0
C2110 C 0.35756 0.55311 0.88619 0.0
C2111 C 0.32112 0.47549 0.94224 0.0
C2112 C 0.28199 0.49913 0.87878 0.0
C2113 C 0.28221 0.48826 0.85034 0.0
C2114 C 0.30056 0.50769 0.89996 0.0
C2115 C 0.31983 0.50549 0.89228 0.0
C2116 C 0.32018 0.49458 0.86358 0.0
C2117 C 0.30128 0.48596 0.843 0.0
C2118 C 0.29954 0.51905 0.93057 0.0
C2119 C 0.34055 0.49211 0.85456 0.0
H2120 H 0.38878 0.56381 0.9331 0.0
H2121 H 0.35829 0.49822 0.97978 0.0
H2122 H 0.35611 0.54526 0.86237 0.0
H2123 H 0.34252 0.55551 0.88905 0.0
H2124 H 0.37335 0.57021 0.88665 0.0
H2125 H 0.32446 0.46646 0.96189 0.0
H2126 H 0.30462 0.47486 0.94705 0.0
H2127 H 0.31907 0.46607 0.91962 0.0
H2128 H 0.26725 0.50087 0.88457 0.0
H2129 H 0.30156 0.47764 0.82096 0.0
H2130 H 0.31396 0.53697 0.93141 0.0
H2131 H 0.30141 0.50994 0.95143 0.0
H2132 H 0.28322 0.51923 0.93306 0.0
H2133 H 0.3562 0.50925 0.85333 0.0
H2134 H 0.3382 0.48339 0.83118 0.0
H2135 H 0.34355 0.48216 0.87315 0.0
C2136 C 0.1815 0.55499 0.46689 0.0
C2137 C 0.1577 0.54334 0.46268 0.0
C2138 C 0.19507 0.54749 0.45152 0.0
C2139 C 0.18459 0.52849 0.43056 0.0
C2140 C 0.16062 0.51726 0.42532 0.0
C2141 C 0.14738 0.52453 0.44207 0.0
C2142 C 0.22042 0.55932 0.45859 0.0
C2143 C 0.14894 0.49746 0.40226 0.0
C2144 C 0.21927 0.51983 0.36672 0.0
C2145 C 0.21915 0.50016 0.37791 0.0
C2146 C 0.20869 0.52974 0.38414 0.0
C2147 C 0.19854 0.52021 0.41398 0.0
C2148 C 0.2 0.50145 0.42655 0.0
C2149 C 0.20992 0.49132 0.40801 0.0
C2150 C 0.20688 0.54926 0.36947 0.0
C2151 C 0.19016 0.49143 0.45889 0.0
H2152 H 0.18938 0.5693 0.48334 0.0
H2153 H 0.12892 0.51554 0.43906 0.0
H2154 H 0.22476 0.54686 0.46921 0.0
H2155 H 0.23044 0.56573 0.43618 0.0
H2156 H 0.22592 0.57393 0.47535 0.0
H2157 H 0.13047 0.49173 0.39923 0.0
H2158 H 0.1574 0.50241 0.37852 0.0
H2159 H 0.15048 0.48274 0.41094 0.0
H2160 H 0.22621 0.52656 0.34326 0.0
H2161 H 0.20992 0.47615 0.41666 0.0
H2162 H 0.21271 0.56368 0.38657 0.0
H2163 H 0.18868 0.54337 0.36377 0.0
H2164 H 0.2171 0.55573 0.34717 0.0
H2165 H 0.19542 0.50525 0.47693 0.0
H2166 H 0.19569 0.47927 0.46715 0.0
H2167 H 0.17118 0.48214 0.45767 0.0
C2168 C 0.44714 0.62675 0.44188 0.0
C2169 C 0.45711 0.62453 0.47003 0.0
C2170 C 0.45925 0.64568 0.42169 0.0
C2171 C 0.48177 0.66277 0.43001 0.0
C2172 C 0.49183 0.66074 0.45856 0.0
C2173 C 0.47939 0.64159 0.4782 0.0
C2174 C 0.44805 0.64725 0.39126 0.0
C2175 C 0.51579 0.6787 0.46822 0.0
C2176 C 0.52011 0.69867 0.36224 0.0
C2177 C 0.51817 0.71842 0.36426 0.0
C2178 C 0.50865 0.68059 0.38387 0.0
C2179 C 0.49507 0.68239 0.40823 0.0
C2180 C 0.49367 0.70259 0.41112 0.0
C2181 C 0.50523 0.72039 0.389 0.0
C2182 C 0.51054 0.65929 0.38008 0.0
C2183 C 0.47951 0.70514 0.43706 0.0
H2184 H 0.42993 0.61361 0.43547 0.0
H2185 H 0.48717 0.63999 0.50001 0.0
H2186 H 0.44764 0.6635 0.39085 0.0
H2187 H 0.45824 0.64744 0.37031 0.0
H2188 H 0.43027 0.63273 0.38858 0.0
H2189 H 0.52083 0.67492 0.49173 0.0
H2190 H 0.52825 0.67982 0.44995 0.0
H2191 H 0.51711 0.69577 0.46948 0.0
H2192 H 0.53015 0.69707 0.34322 0.0
H2193 H 0.50374 0.73565 0.39072 0.0
H2194 H 0.49341 0.64438 0.37479 0.0
H2195 H 0.51658 0.65548 0.40267 0.0
H2196 H 0.52247 0.66096 0.36056 0.0
H2197 H 0.46118 0.69215 0.43372 0.0
H2198 H 0.48122 0.72242 0.43708 0.0
H2199 H 0.48473 0.70203 0.46083 0.0
C2200 C 0.3695 0.82113 0.4431 0.0
C2201 C 0.3708 0.83243 0.4718 0.0
C2202 C 0.35041 0.81348 0.42299 0.0
C2203 C 0.33221 0.81711 0.432 0.0
C2204 C 0.33334 0.82831 0.4611 0.0
C2205 C 0.35268 0.83593 0.4806 0.0
C2206 C 0.34982 0.80175 0.39195 0.0
C2207 C 0.31418 0.83236 0.47152 0.0
C2208 C 0.29444 0.81798 0.36579 0.0
C2209 C 0.27564 0.79566 0.36732 0.0
C2210 C 0.31285 0.82526 0.387 0.0
C2211 C 0.31233 0.80989 0.41043 0.0
C2212 C 0.29309 0.78757 0.4128 0.0
C2213 C 0.27494 0.78068 0.39112 0.0
C2214 C 0.3331 0.84921 0.38379 0.0
C2215 C 0.29191 0.77084 0.43777 0.0
H2216 H 0.38347 0.8184 0.43622 0.0
H2217 H 0.35355 0.84457 0.50285 0.0
H2218 H 0.33433 0.78448 0.39107 0.0
H2219 H 0.34875 0.81169 0.37154 0.0
H2220 H 0.36519 0.79992 0.38871 0.0
H2221 H 0.3174 0.84066 0.49537 0.0
H2222 H 0.31203 0.84342 0.45387 0.0
H2223 H 0.29777 0.81586 0.47243 0.0
H2224 H 0.29506 0.82967 0.3475 0.0
H2225 H 0.26041 0.76343 0.39243 0.0
H2226 H 0.34874 0.84835 0.37808 0.0
H2227 H 0.33628 0.85856 0.40674 0.0
H2228 H 0.33054 0.85923 0.36479 0.0
H2229 H 0.3059 0.76695 0.43376 0.0
H2230 H 0.27529 0.7545 0.43735 0.0
H2231 H 0.29445 0.77852 0.46194 0.0
C2232 C 0.27903 0.14275 0.14055 0.0
C2233 C 0.26096 0.13496 0.16244 0.0
C2234 C 0.30185 0.15456 0.15103 0.0
C2235 C 0.30657 0.15933 0.18402 0.0
C2236 C 0.28832 0.15177 0.20614 0.0
C2237 C 0.2657 0.13932 0.19511 0.0
C2238 C 0.32089 0.16176 0.12687 0.0
C2239 C 0.2927 0.15712 0.24136 0.0
C2240 C 0.36438 0.17116 0.21439 0.0
C2241 C 0.37716 0.19514 0.21296 0.0
C2242 C 0.34131 0.15929 0.20526 0.0
C2243 C 0.33062 0.17177 0.19542 0.0
C2244 C 0.34314 0.19604 0.19542 0.0
C2245 C 0.36645 0.20747 0.20371 0.0
C2246 C 0.32868 0.1334 0.20481 0.0
C2247 C 0.33206 0.20989 0.18604 0.0
H2248 H 0.27531 0.13933 0.11529 0.0
H2249 H 0.25167 0.13356 0.21199 0.0
H2250 H 0.33189 0.18068 0.12685 0.0
H2251 H 0.33192 0.15449 0.13347 0.0
H2252 H 0.31429 0.15607 0.10226 0.0
H2253 H 0.27657 0.15074 0.25522 0.0
H2254 H 0.30245 0.14928 0.25126 0.0
H2255 H 0.30332 0.17592 0.24489 0.0
H2256 H 0.3727 0.16157 0.22119 0.0
H2257 H 0.37633 0.22602 0.20267 0.0
H2258 H 0.32313 0.12719 0.18005 0.0
H2259 H 0.31302 0.12648 0.21974 0.0
H2260 H 0.33941 0.1263 0.21367 0.0
H2261 H 0.3273 0.20711 0.16039 0.0
H2262 H 0.34358 0.22854 0.19006 0.0
H2263 H 0.31606 0.20419 0.1999 0.0
C2264 C 0.79426 0.19099 0.1467 0.0
C2265 C 0.79019 0.19244 0.17923 0.0
C2266 C 0.80661 0.18045 0.13665 0.0
C2267 C 0.81442 0.17054 0.15965 0.0
C2268 C 0.80983 0.17145 0.1925 0.0
C2269 C 0.79807 0.18276 0.20196 0.0
C2270 C 0.81171 0.18034 0.10151 0.0
C2271 C 0.81731 0.16046 0.21762 0.0
C2272 C 0.82737 0.12469 0.13186 0.0
C2273 C 0.85138 0.13645 0.13256 0.0
C2274 C 0.81512 0.13559 0.14062 0.0
C2275 C 0.82721 0.15901 0.14935 0.0
C2276 C 0.85148 0.17122 0.14891 0.0
C2277 C 0.86331 0.15967 0.14099 0.0
C2278 C 0.78926 0.12186 0.14159 0.0
C2279 C 0.86492 0.19639 0.15716 0.0
H2280 H 0.78842 0.19876 0.12914 0.0
H2281 H 0.79487 0.18387 0.22711 0.0
H2282 H 0.8305 0.1888 0.09775 0.0
H2283 H 0.8042 0.16247 0.0928 0.0
H2284 H 0.80486 0.18928 0.08679 0.0
H2285 H 0.81155 0.16188 0.24197 0.0
H2286 H 0.81034 0.14205 0.21197 0.0
H2287 H 0.83625 0.16867 0.21771 0.0
H2288 H 0.8181 0.10664 0.1257 0.0
H2289 H 0.88188 0.16877 0.14145 0.0
H2290 H 0.7819 0.12978 0.12584 0.0
H2291 H 0.78318 0.12191 0.16623 0.0
H2292 H 0.78248 0.1038 0.13398 0.0
H2293 H 0.85904 0.2061 0.1423 0.0
H2294 H 0.88363 0.20373 0.1535 0.0
H2295 H 0.8619 0.19895 0.1825 0.0
C2296 C 0.81013 0.60502 0.18605 0.0
C2297 C 0.79963 0.58644 0.16499 0.0
C2298 C 0.82181 0.62757 0.1745 0.0
C2299 C 0.82229 0.63155 0.14119 0.0
C2300 C 0.81178 0.61282 0.11981 0.0
C2301 C 0.80085 0.59043 0.13198 0.0
C2302 C 0.83341 0.64713 0.19796 0.0
C2303 C 0.81142 0.61642 0.08424 0.0
C2304 C 0.83275 0.69065 0.11948 0.0
C2305 C 0.85602 0.70194 0.11133 0.0
C2306 C 0.82124 0.66736 0.12779 0.0
C2307 C 0.83353 0.65539 0.12889 0.0
C2308 C 0.85688 0.66657 0.11985 0.0
C2309 C 0.86777 0.68967 0.11073 0.0
C2310 C 0.79613 0.65578 0.13634 0.0
C2311 C 0.87068 0.65452 0.12143 0.0
H2312 H 0.80921 0.6019 0.21158 0.0
H2313 H 0.79245 0.57604 0.11569 0.0
H2314 H 0.85163 0.65836 0.19118 0.0
H2315 H 0.82509 0.65776 0.19733 0.0
H2316 H 0.83268 0.64105 0.22284 0.0
H2317 H 0.80273 0.6 0.07084 0.0
H2318 H 0.8024 0.62608 0.07929 0.0
H2319 H 0.82914 0.62685 0.07501 0.0
H2320 H 0.82364 0.70012 0.11983 0.0
H2321 H 0.88584 0.69843 0.10474 0.0
H2322 H 0.79388 0.65146 0.16216 0.0
H2323 H 0.78642 0.63948 0.12291 0.0
H2324 H 0.78857 0.66679 0.13117 0.0
H2325 H 0.87169 0.64989 0.14658 0.0
H2326 H 0.88837 0.66533 0.11216 0.0
H2327 H 0.86217 0.63836 0.10751 0.0
C2328 C 0.15978 0.38594 0.30981 0.0
C2329 C 0.18303 0.39304 0.30535 0.0
C2330 C 0.14395 0.3632 0.31784 0.0
C2331 C 0.15147 0.34708 0.3207 0.0
C2332 C 0.17477 0.35396 0.31501 0.0
C2333 C 0.19035 0.37697 0.3078 0.0
C2334 C 0.11936 0.35661 0.32439 0.0
C2335 C 0.1833 0.3371 0.31707 0.0
C2336 C 0.11961 0.29391 0.37209 0.0
C2337 C 0.10739 0.27706 0.34904 0.0
C2338 C 0.13327 0.31698 0.36332 0.0
C2339 C 0.13518 0.32317 0.33064 0.0
C2340 C 0.1223 0.30633 0.30741 0.0
C2341 C 0.10832 0.28349 0.31696 0.0
C2342 C 0.14626 0.33459 0.38888 0.0
C2343 C 0.1242 0.31221 0.2723 0.0
H2344 H 0.15408 0.39838 0.30824 0.0
H2345 H 0.2083 0.38242 0.30426 0.0
H2346 H 0.10762 0.34201 0.30901 0.0
H2347 H 0.11499 0.35092 0.34957 0.0
H2348 H 0.11613 0.37104 0.32019 0.0
H2349 H 0.20154 0.34484 0.30985 0.0
H2350 H 0.18149 0.33069 0.34192 0.0
H2351 H 0.1728 0.32208 0.30154 0.0
H2352 H 0.11887 0.28897 0.39691 0.0
H2353 H 0.09907 0.27046 0.29902 0.0
H2354 H 0.14318 0.34924 0.38664 0.0
H2355 H 0.16492 0.34142 0.38584 0.0
H2356 H 0.14131 0.32733 0.41334 0.0
H2357 H 0.12082 0.32652 0.26826 0.0
H2358 H 0.1121 0.29737 0.25747 0.0
H2359 H 0.1419 0.31803 0.26394 0.0
C2360 C 0.63019 0.82556 0.30056 0.0
C2361 C 0.61707 0.80262 0.2911 0.0
C2362 C 0.65358 0.83511 0.30754 0.0
C2363 C 0.66378 0.82115 0.30594 0.0
C2364 C 0.65066 0.79809 0.29588 0.0
C2365 C 0.62751 0.78919 0.28813 0.0
C2366 C 0.66724 0.85999 0.31727 0.0
C2367 C 0.66079 0.78253 0.29464 0.0
C2368 C 0.72856 0.84948 0.30344 0.0
C2369 C 0.73381 0.84979 0.33591 0.0
C2370 C 0.7058 0.8402 0.29328 0.0
C2371 C 0.68792 0.83042 0.31608 0.0
C2372 C 0.69311 0.82987 0.34876 0.0
C2373 C 0.71606 0.83992 0.35836 0.0
C2374 C 0.70095 0.84161 0.25836 0.0
C2375 C 0.67443 0.81897 0.37362 0.0
H2376 H 0.62213 0.83596 0.30275 0.0
H2377 H 0.61732 0.77136 0.28114 0.0
H2378 H 0.67266 0.86127 0.34257 0.0
H2379 H 0.68301 0.86902 0.30257 0.0
H2380 H 0.65727 0.86896 0.31467 0.0
H2381 H 0.64844 0.7652 0.28537 0.0
H2382 H 0.67627 0.7901 0.27928 0.0
H2383 H 0.66622 0.78068 0.31898 0.0
H2384 H 0.74232 0.85739 0.2861 0.0
H2385 H 0.72015 0.84013 0.38347 0.0
H2386 H 0.69247 0.85202 0.25563 0.0
H2387 H 0.68901 0.82428 0.24886 0.0
H2388 H 0.71679 0.84942 0.24362 0.0
H2389 H 0.66512 0.82863 0.37541 0.0
H2390 H 0.68128 0.81857 0.39762 0.0
H2391 H 0.66179 0.80117 0.3665 0.0
C2392 C 0.16464 0.79469 0.30597 0.0
C2393 C 0.18782 0.80582 0.29742 0.0
C2394 C 0.15384 0.8073 0.3135 0.0
C2395 C 0.16679 0.83156 0.31348 0.0
C2396 C 0.19016 0.84286 0.3046 0.0
C2397 C 0.20031 0.82982 0.29619 0.0
C2398 C 0.12868 0.79469 0.32192 0.0
C2399 C 0.20467 0.86867 0.30513 0.0
C2400 C 0.13539 0.86509 0.31055 0.0
C2401 C 0.13358 0.86885 0.3431 0.0
C2402 C 0.14619 0.85298 0.30051 0.0
C2403 C 0.156 0.84511 0.32358 0.0
C2404 C 0.15508 0.84974 0.35641 0.0
C2405 C 0.14352 0.86125 0.36583 0.0
C2406 C 0.14633 0.84786 0.26539 0.0
C2407 C 0.166 0.84222 0.38159 0.0
H2408 H 0.15498 0.77612 0.30684 0.0
H2409 H 0.21834 0.83845 0.28996 0.0
H2410 H 0.12639 0.79803 0.34723 0.0
H2411 H 0.11937 0.801 0.30699 0.0
H2412 H 0.12071 0.77588 0.3185 0.0
H2413 H 0.22252 0.87479 0.29711 0.0
H2414 H 0.19703 0.8764 0.28954 0.0
H2415 H 0.20516 0.87505 0.32974 0.0
H2416 H 0.12744 0.87072 0.29296 0.0
H2417 H 0.14215 0.86422 0.391 0.0
H2418 H 0.13696 0.82904 0.26157 0.0
H2419 H 0.16414 0.85446 0.25695 0.0
H2420 H 0.13824 0.85553 0.25048 0.0
H2421 H 0.15717 0.82324 0.38245 0.0
H2422 H 0.16522 0.84865 0.40575 0.0
H2423 H 0.1842 0.84845 0.37547 0.0
C2424 C 0.69451 0.85746 0.86324 0.0
C2425 C 0.7067 0.84649 0.87191 0.0
C2426 C 0.6712 0.84468 0.85521 0.0
C2427 C 0.66016 0.82044 0.85491 0.0
C2428 C 0.67232 0.8093 0.86421 0.0
C2429 C 0.69539 0.82249 0.87305 0.0
C2430 C 0.65855 0.85711 0.84635 0.0
C2431 C 0.66129 0.78351 0.86344 0.0
C2432 C 0.59525 0.7857 0.85466 0.0
C2433 C 0.59057 0.78202 0.82187 0.0
C2434 C 0.61785 0.79828 0.86579 0.0
C2435 C 0.63614 0.80673 0.84363 0.0
C2436 C 0.63151 0.80232 0.81057 0.0
C2437 C 0.60871 0.79031 0.80002 0.0
C2438 C 0.62212 0.80316 0.90112 0.0
C2439 C 0.65062 0.81049 0.78632 0.0
H2440 H 0.70324 0.87602 0.86245 0.0
H2441 H 0.70487 0.81397 0.87941 0.0
H2442 H 0.65366 0.85417 0.82075 0.0
H2443 H 0.6425 0.85033 0.86044 0.0
H2444 H 0.66904 0.87588 0.85049 0.0
H2445 H 0.67294 0.77752 0.8723 0.0
H2446 H 0.6455 0.77553 0.87818 0.0
H2447 H 0.65618 0.7773 0.83858 0.0
H2448 H 0.5812 0.77955 0.87155 0.0
H2449 H 0.60506 0.78742 0.77467 0.0
H2450 H 0.63125 0.82195 0.90523 0.0
H2451 H 0.63329 0.79671 0.91028 0.0
H2452 H 0.60599 0.7952 0.91522 0.0
H2453 H 0.66055 0.82949 0.78609 0.0
H2454 H 0.64412 0.80439 0.76179 0.0
H2455 H 0.66262 0.8044 0.79296 0.0
C2456 C 0.20445 0.82045 0.84075 0.0
C2457 C 0.20631 0.81567 0.80865 0.0
C2458 C 0.19324 0.83246 0.8493 0.0
C2459 C 0.18437 0.84049 0.82507 0.0
C2460 C 0.18712 0.8366 0.79252 0.0
C2461 C 0.19773 0.82384 0.7847 0.0
C2462 C 0.19009 0.83574 0.88429 0.0
C2463 C 0.17854 0.84557 0.76602 0.0
C2464 C 0.1356 0.85121 0.8452 0.0
C2465 C 0.14745 0.87479 0.85132 0.0
C2466 C 0.14746 0.83975 0.83706 0.0
C2467 C 0.17163 0.85238 0.8339 0.0
C2468 C 0.18361 0.87628 0.83958 0.0
C2469 C 0.17138 0.88714 0.84878 0.0
C2470 C 0.13418 0.81411 0.83212 0.0
C2471 C 0.20927 0.89041 0.83548 0.0
H2472 H 0.21083 0.81387 0.85931 0.0
H2473 H 0.19924 0.82018 0.75987 0.0
H2474 H 0.19755 0.85421 0.88976 0.0
H2475 H 0.17154 0.82725 0.88998 0.0
H2476 H 0.19819 0.82857 0.90015 0.0
H2477 H 0.18372 0.84271 0.74202 0.0
H2478 H 0.15957 0.83695 0.76687 0.0
H2479 H 0.1852 0.8642 0.76925 0.0
H2480 H 0.11709 0.84169 0.84727 0.0
H2481 H 0.1805 0.90546 0.85312 0.0
H2482 H 0.1408 0.80571 0.84832 0.0
H2483 H 0.13652 0.8099 0.80729 0.0
H2484 H 0.11556 0.80674 0.83665 0.0
H2485 H 0.21791 0.88446 0.85231 0.0
H2486 H 0.21587 0.90896 0.83971 0.0
H2487 H 0.2141 0.88817 0.81094 0.0
C2488 C 0.18284 0.38628 0.84244 0.0
C2489 C 0.18409 0.39169 0.80991 0.0
C2490 C 0.17289 0.36346 0.85256 0.0
C2491 C 0.16332 0.34568 0.82961 0.0
C2492 C 0.16399 0.35105 0.79675 0.0
C2493 C 0.17476 0.37408 0.78722 0.0
C2494 C 0.17307 0.35841 0.8877 0.0
C2495 C 0.15331 0.33248 0.77171 0.0
C2496 C 0.15438 0.28673 0.84895 0.0
C2497 C 0.13128 0.27502 0.85795 0.0
C2498 C 0.16526 0.30998 0.84048 0.0
C2499 C 0.15244 0.32143 0.84002 0.0
C2500 C 0.12911 0.30965 0.84916 0.0
C2501 C 0.1189 0.28666 0.85852 0.0
C2502 C 0.19037 0.32224 0.83183 0.0
C2503 C 0.11474 0.32111 0.84814 0.0
H2504 H 0.19037 0.39996 0.85996 0.0
H2505 H 0.17574 0.37832 0.76206 0.0
H2506 H 0.15528 0.34772 0.89656 0.0
H2507 H 0.18197 0.34848 0.89138 0.0
H2508 H 0.18173 0.37426 0.90236 0.0
H2509 H 0.1544 0.33954 0.74737 0.0
H2510 H 0.16199 0.32218 0.77151 0.0
H2511 H 0.13501 0.32066 0.77753 0.0
H2512 H 0.16394 0.2777 0.84858 0.0
H2513 H 0.10093 0.27752 0.86509 0.0
H2514 H 0.19985 0.33793 0.8466 0.0
H2515 H 0.19261 0.32775 0.80648 0.0
H2516 H 0.19819 0.31127 0.83533 0.0
H2517 H 0.12226 0.33639 0.8639 0.0
H2518 H 0.09676 0.30944 0.85573 0.0
H2519 H 0.11461 0.32714 0.8235 0.0
C2520 C 0.86101 0.72485 0.68856 0.0
C2521 C 0.86686 0.73012 0.65629 0.0
C2522 C 0.84756 0.70206 0.69861 0.0
C2523 C 0.84046 0.68418 0.67596 0.0
C2524 C 0.84691 0.68942 0.64347 0.0
C2525 C 0.85972 0.7124 0.63392 0.0
C2526 C 0.84048 0.69714 0.73326 0.0
C2527 C 0.84024 0.67077 0.61881 0.0
C2528 C 0.82398 0.62457 0.70455 0.0
C2529 C 0.80015 0.61289 0.70035 0.0
C2530 C 0.8373 0.64789 0.69712 0.0
C2531 C 0.82642 0.65993 0.68616 0.0
C2532 C 0.80224 0.6485 0.68349 0.0
C2533 C 0.78938 0.62495 0.69013 0.0
C2534 C 0.86307 0.65934 0.6995 0.0
C2535 C 0.79001 0.661 0.67283 0.0
H2536 H 0.86627 0.73861 0.70578 0.0
H2537 H 0.86429 0.71653 0.60898 0.0
H2538 H 0.82151 0.68756 0.73506 0.0
H2539 H 0.84671 0.68614 0.74378 0.0
H2540 H 0.8472 0.71303 0.74774 0.0
H2541 H 0.84757 0.67773 0.59489 0.0
H2542 H 0.84618 0.65882 0.62643 0.0
H2543 H 0.82132 0.66064 0.61665 0.0
H2544 H 0.83238 0.61521 0.71213 0.0
H2545 H 0.77094 0.61593 0.68697 0.0
H2546 H 0.86988 0.67481 0.71482 0.0
H2547 H 0.87076 0.66504 0.67543 0.0
H2548 H 0.86879 0.64773 0.70944 0.0
H2549 H 0.79581 0.67679 0.68721 0.0
H2550 H 0.77111 0.65021 0.67503 0.0
H2551 H 0.79427 0.66631 0.64751 0.0
C2552 C 0.28033 0.16475 0.62356 0.0
C2553 C 0.26796 0.14194 0.61332 0.0
C2554 C 0.30365 0.17482 0.63135 0.0
C2555 C 0.31451 0.16145 0.6299 0.0
C2556 C 0.30208 0.13845 0.61934 0.0
C2557 C 0.27903 0.12908 0.61069 0.0
C2558 C 0.31658 0.19963 0.64155 0.0
C2559 C 0.31288 0.12347 0.61832 0.0
C2560 C 0.37936 0.19076 0.62763 0.0
C2561 C 0.38461 0.19089 0.66005 0.0
C2562 C 0.3566 0.18142 0.61747 0.0
C2563 C 0.3387 0.17132 0.64022 0.0
C2564 C 0.3439 0.17072 0.67288 0.0
C2565 C 0.36687 0.18089 0.6825 0.0
C2566 C 0.35174 0.18293 0.58259 0.0
C2567 C 0.32522 0.15944 0.69766 0.0
H2568 H 0.27176 0.17469 0.62553 0.0
H2569 H 0.26939 0.11132 0.60316 0.0
H2570 H 0.32195 0.20086 0.66687 0.0
H2571 H 0.33238 0.20919 0.62702 0.0
H2572 H 0.30612 0.20809 0.63908 0.0
H2573 H 0.30088 0.10597 0.60928 0.0
H2574 H 0.32829 0.13132 0.60282 0.0
H2575 H 0.31857 0.12201 0.64266 0.0
H2576 H 0.39312 0.19878 0.61031 0.0
H2577 H 0.37098 0.18097 0.70757 0.0
H2578 H 0.3425 0.19262 0.58003 0.0
H2579 H 0.34048 0.16554 0.57274 0.0
H2580 H 0.36764 0.19151 0.56802 0.0
H2581 H 0.31544 0.16863 0.69931 0.0
H2582 H 0.33212 0.15927 0.72171 0.0
H2583 H 0.31297 0.14152 0.69052 0.0
C2584 C 0.83141 0.11127 0.63654 0.0
C2585 C 0.8418 0.10356 0.65838 0.0
C2586 C 0.8205 0.12318 0.64702 0.0
C2587 C 0.82068 0.1281 0.67998 0.0
C2588 C 0.8308 0.11997 0.70218 0.0
C2589 C 0.84096 0.10747 0.69112 0.0
C2590 C 0.80925 0.13098 0.62275 0.0
C2591 C 0.83183 0.12536 0.73738 0.0
C2592 C 0.81492 0.18018 0.69778 0.0
C2593 C 0.79195 0.16999 0.70719 0.0
C2594 C 0.82477 0.16671 0.69014 0.0
C2595 C 0.81106 0.14251 0.69096 0.0
C2596 C 0.78796 0.13216 0.70099 0.0
C2597 C 0.77877 0.14606 0.70945 0.0
C2598 C 0.84969 0.17836 0.68048 0.0
C2599 C 0.77266 0.10643 0.70137 0.0
H2600 H 0.83202 0.10818 0.61123 0.0
H2601 H 0.84925 0.10175 0.708 0.0
H2602 H 0.79142 0.1255 0.63014 0.0
H2603 H 0.81866 0.14996 0.62141 0.0
H2604 H 0.80888 0.12407 0.59851 0.0
H2605 H 0.83954 0.11702 0.75165 0.0
H2606 H 0.84218 0.14417 0.74099 0.0
H2607 H 0.81442 0.11974 0.74675 0.0
H2608 H 0.82513 0.19869 0.69613 0.0
H2609 H 0.7609 0.13814 0.71638 0.0
H2610 H 0.8511 0.17473 0.65498 0.0
H2611 H 0.85884 0.17153 0.69471 0.0
H2612 H 0.85844 0.19724 0.68379 0.0
H2613 H 0.77082 0.09964 0.67672 0.0
H2614 H 0.75532 0.10109 0.71095 0.0
H2615 H 0.78044 0.09839 0.71604 0.0
C2616 C 0.03915 0.50152 0.51734 0.0
C2617 C 0.05003 0.52551 0.51704 0.0
C2618 C 0.01602 0.48808 0.50904 0.0
C2619 C 0.0033 0.49891 0.5012 0.0
C2620 C 0.0141 0.52315 0.50137 0.0
C2621 C 0.03751 0.53621 0.5088 0.0
C2622 C 0.00527 0.46231 0.50827 0.0
C2623 C 0.00088 0.53525 0.49398 0.0
C2624 C 0.94814 0.46637 0.45383 0.0
C2625 C 0.93173 0.45825 0.47826 0.0
C2626 C 0.97159 0.4793 0.46098 0.0
C2627 C 0.97861 0.4848 0.49322 0.0
C2628 C 0.96207 0.47664 0.51794 0.0
C2629 C 0.93882 0.46315 0.51017 0.0
C2630 C 0.98882 0.4871 0.43408 0.0
C2631 C 0.96887 0.48259 0.55253 0.0
H2632 H 0.04892 0.49321 0.5233 0.0
H2633 H 0.04594 0.55477 0.50862 0.0
H2634 H 0.99104 0.45437 0.52578 0.0
H2635 H -0.00213 0.45571 0.48429 0.0
H2636 H 0.01779 0.45664 0.51384 0.0
H2637 H 0.01166 0.55417 0.49605 0.0
H2638 H -0.00616 0.53099 0.46939 0.0
H2639 H 0.98612 0.52929 0.51056 0.0
H2640 H 0.94263 0.46253 0.42915 0.0
H2641 H 0.9261 0.45713 0.52907 0.0
H2642 H 0.00129 0.4812 0.43843 0.0
H2643 H -0.00136 0.50609 0.4331 0.0
H2644 H 0.98057 0.48052 0.41048 0.0
H2645 H 0.98036 0.47606 0.55996 0.0
H2646 H 0.95383 0.47532 0.5688 0.0
H2647 H 0.97855 0.50148 0.55554 0.0
C2648 C 0.45896 0.51445 0.52676 0.0
C2649 C 0.45151 0.52472 0.50434 0.0
C2650 C 0.47239 0.50492 0.51733 0.0
C2651 C 0.47913 0.50647 0.48493 0.0
C2652 C 0.47156 0.51677 0.46219 0.0
C2653 C 0.4575 0.52545 0.47211 0.0
C2654 C 0.47953 0.49338 0.54205 0.0
C2655 C 0.4789 0.51928 0.42762 0.0
C2656 C 0.53232 0.50187 0.4706 0.0
C2657 C 0.52272 0.47931 0.45954 0.0
C2658 C 0.51835 0.51126 0.47781 0.0
C2659 C 0.49425 0.49744 0.47492 0.0
C2660 C 0.48454 0.47474 0.4634 0.0
C2661 C 0.49894 0.46607 0.45536 0.0
C2662 C 0.52934 0.5358 0.48907 0.0
C2663 C 0.4589 0.45928 0.46084 0.0
H2664 H 0.45428 0.51389 0.55168 0.0
H2665 H 0.452 0.5337 0.45483 0.0
H2666 H 0.4746 0.47579 0.53412 0.0
H2667 H 0.49842 0.50298 0.54481 0.0
H2668 H 0.47163 0.49233 0.56576 0.0
H2669 H 0.47149 0.52774 0.41297 0.0
H2670 H 0.49786 0.52957 0.42605 0.0
H2671 H 0.47365 0.50224 0.41712 0.0
H2672 H 0.55071 0.51211 0.47378 0.0
H2673 H 0.49145 0.4485 0.4472 0.0
H2674 H 0.52449 0.53629 0.51427 0.0
H2675 H 0.52306 0.54535 0.47461 0.0
H2676 H 0.54833 0.54477 0.48746 0.0
H2677 H 0.45099 0.4569 0.48484 0.0
H2678 H 0.45413 0.44216 0.45092 0.0
H2679 H 0.45143 0.46725 0.4454 0.0
C2680 C 0.53344 0.03311 0.46347 0.0
C2681 C 0.5213 0.04491 0.46611 0.0
C2682 C 0.52346 0.01007 0.47254 0.0
C2683 C 0.50054 -0.0016 0.48351 0.0
C2684 C 0.48793 0.01004 0.48526 0.0
C2685 C 0.49863 0.03335 0.47705 0.0
C2686 C 0.53764 -0.00158 0.47117 0.0
C2687 C 0.46321 -0.00209 0.4959 0.0
C2688 C 0.46974 0.93356 0.47931 0.0
C2689 C 0.46972 0.9277 0.51144 0.0
C2690 C 0.47934 0.95651 0.46997 0.0
C2691 C 0.48983 0.974 0.49322 0.0
C2692 C 0.49036 0.96819 0.52563 0.0
C2693 C 0.4799 0.94502 0.53446 0.0
C2694 C 0.47785 0.96202 0.43537 0.0
C2695 C 0.50205 0.98642 0.55089 0.0
H2696 H 0.5511 0.04214 0.45543 0.0
H2697 H 0.48926 0.0425 0.47905 0.0
H2698 H 0.5385 0.99199 0.49526 0.0
H2699 H 0.52949 0.98338 0.455 0.0
H2700 H 0.55538 0.01009 0.46266 0.0
H2701 H 0.45548 0.00908 0.49424 0.0
H2702 H 0.453 0.98243 0.48101 0.0
H2703 H 0.46192 0.9921 0.52099 0.0
H2704 H 0.46154 0.92012 0.46157 0.0
H2705 H 0.47986 0.94044 0.55931 0.0
H2706 H 0.49528 0.97262 0.42529 0.0
H2707 H 0.46907 0.97221 0.43355 0.0
H2708 H 0.46841 0.94636 0.4205 0.0
H2709 H 0.52015 -0.00181 0.54403 0.0
H2710 H 0.50174 0.97903 0.57475 0.0
H2711 H 0.49355 -0.00315 0.55283 0.0
C2712 C 0.518 0.05777 0.01198 0.0
C2713 C 0.52085 0.063 0.9793 0.0
C2714 C 0.507 0.03497 0.02249 0.0
C2715 C 0.49936 0.0171 -0.00025 0.0
C2716 C 0.50263 0.02233 0.9667 0.0
C2717 C 0.51302 0.04527 0.95684 0.0
C2718 C 0.50326 0.03002 0.05787 0.0
C2719 C 0.49531 0.00372 0.94182 0.0
C2720 C 0.49126 0.96008 0.02786 0.0
C2721 C 0.46732 0.9466 0.02896 0.0
C2722 C 0.50191 0.98305 0.01826 0.0
C2723 C 0.48827 0.99291 0.01055 0.0
C2724 C 0.46409 0.9796 0.01272 0.0
C2725 C 0.45386 0.95642 0.02141 0.0
C2726 C 0.52771 -0.00346 0.01545 0.0
C2727 C 0.44906 0.98978 0.00561 0.0
H2728 H 0.52381 0.0715 0.02936 0.0
H2729 H 0.51529 0.04937 0.93156 0.0
H2730 H 0.48474 0.01863 0.06279 0.0
H2731 H 0.51222 0.02086 0.06589 0.0
H2732 H 0.50954 0.04587 0.07234 0.0
H2733 H 0.49979 0.01074 0.91719 0.0
H2734 H 0.50362 0.99335 0.94659 0.0
H2735 H 0.47653 0.99198 0.94311 0.0
H2736 H 0.50168 0.95241 0.03333 0.0
H2737 H 0.43535 0.94598 0.02235 0.0
H2738 H 0.53478 0.0119 0.03101 0.0
H2739 H 0.53265 0.00265 0.99051 0.0
H2740 H 0.53579 0.98624 0.02214 0.0
H2741 H 0.45445 0.00535 0.02034 0.0
H2742 H 0.43067 0.97751 0.01035 0.0
H2743 H 0.45098 0.9951 0.98019 0.0
C2744 C 0.95477 0.45738 0.95502 0.0
C2745 C 0.9422 0.46882 0.95471 0.0
C2746 C 0.97755 0.46844 0.96548 0.0
C2747 C 0.98817 0.49169 0.97489 0.0
C2748 C 0.97587 0.50365 0.97322 0.0
C2749 C 0.95284 0.49192 0.96363 0.0
C2750 C 0.98993 0.45498 0.96766 0.0
C2751 C 0.98693 0.52867 0.98208 0.0
C2752 C 0.03867 0.51453 0.03179 0.0
C2753 C 0.05714 0.52435 0.01048 0.0
C2754 C 0.01605 0.50359 0.02048 0.0
C2755 C 0.01197 0.50326 0.98721 0.0
C2756 C 0.03062 0.51351 0.96567 0.0
C2757 C 0.05301 0.5236 0.97756 0.0
C2758 C -0.00345 0.4922 0.04406 0.0
C2759 C 0.02693 0.5141 0.93016 0.0
H2760 H 0.94648 0.43942 0.9485 0.0
H2761 H 0.9431 0.50076 0.96333 0.0
H2762 H 0.00585 0.46334 0.95321 0.0
H2763 H -0.00499 0.45467 0.9928 0.0
H2764 H 0.97922 0.43703 0.95925 0.0
H2765 H 0.97561 0.53589 0.977 0.0
H2766 H 0.9912 0.53087 0.00791 0.0
H2767 H 0.00321 0.53874 0.96873 0.0
H2768 H 0.04194 0.51515 0.05725 0.0
H2769 H 0.06735 0.53154 0.96112 0.0
H2770 H 0.98553 0.47384 0.0378 0.0
H2771 H 0.98569 0.50026 0.04288 0.0
H2772 H 0.00267 0.4934 0.06901 0.0
H2773 H 0.01728 0.4964 0.92058 0.0
H2774 H 0.04332 0.5236 0.91681 0.0
H2775 H 0.01647 0.52233 0.9255 0.0
C2776 C 0.53538 0.49257 0.95962 0.0
C2777 C 0.52125 0.46871 0.95809 0.0
C2778 C 0.52669 0.50658 0.96964 0.0
C2779 C 0.50316 0.4965 0.97722 0.0
C2780 C 0.48864 0.47246 0.97461 0.0
C2781 C 0.49798 0.45877 0.96563 0.0
C2782 C 0.54282 0.53205 0.97311 0.0
C2783 C 0.4633 0.46121 0.98154 0.0
C2784 C 0.48111 0.52624 0.03161 0.0
C2785 C 0.47304 0.53606 0.00938 0.0
C2786 C 0.49186 0.51409 0.02145 0.0
C2787 C 0.49375 0.51105 0.98831 0.0
C2788 C 0.48597 0.52129 0.96579 0.0
C2789 C 0.47604 0.53402 0.97664 0.0
C2790 C 0.50071 0.50408 0.04614 0.0
C2791 C 0.48715 0.51791 0.93029 0.0
H2792 H 0.55348 0.50022 0.95423 0.0
H2793 H 0.4871 0.44031 0.96439 0.0
H2794 H 0.53698 0.54169 0.95806 0.0
H2795 H 0.54279 0.53727 -0.00174 0.0
H2796 H 0.56068 0.53715 0.96625 0.0
H2797 H 0.45416 0.44254 0.97633 0.0
H2798 H 0.46057 0.46366 0.00704 0.0
H2799 H 0.45551 0.46935 0.96705 0.0
H2800 H 0.47881 0.52788 0.05693 0.0
H2801 H 0.46951 0.54137 0.95942 0.0
H2802 H 0.51875 0.50907 0.04082 0.0
H2803 H 0.4905 0.48511 0.04534 0.0
H2804 H 0.49982 0.5098 0.07074 0.0
H2805 H 0.50501 0.52352 0.92301 0.0
H2806 H 0.48085 0.52751 0.91593 0.0
H2807 H 0.47666 0.49942 0.9244 0.0
loop_
_geom_bond_atom_site_label_1
_geom_bond_atom_site_label_2
_geom_bond_distance
_geom_bond_site_symmetry_2
_ccdc_geom_bond_type
C0 O1 1.306 . S
C0 O3 1.160 . S
O1 C0 1.306 . S
O1 Cd2 2.228 . S
Cd2 O1 2.228 . S
Cd2 O6 2.273 . S
Cd2 O10 2.277 . S
O3 C0 1.160 . S
O3 Cd4 2.203 . S
Cd4 O3 2.203 . S
Cd4 O6 2.411 . S
Cd4 O7 2.333 . S
Cd4 O8 2.352 . S
Cd4 O12 2.277 . S
Cd4 O13 2.356 . S
C5 O10 1.209 . S
C5 O12 1.226 . S
O6 Cd2 2.273 . S
O6 Cd4 2.411 . S
O6 C9 1.320 . S
O7 Cd4 2.333 . S
O7 C9 1.214 . S
O8 Cd4 2.352 . S
O8 C11 1.258 . S
C9 O6 1.320 . S
C9 O7 1.214 . S
O10 Cd2 2.277 . S
O10 C5 1.209 . S
C11 O8 1.258 . S
C11 O13 1.282 . S
O12 Cd4 2.277 . S
O12 C5 1.226 . S
O13 Cd4 2.356 . S
O13 C11 1.282 . S
C14 O15 1.306 . S
C14 O17 1.160 . S
O15 C14 1.306 . S
O15 Cd16 2.228 . S
Cd16 O15 2.228 . S
Cd16 O20 2.273 . S
Cd16 O24 2.277 . S
O17 C14 1.160 . S
O17 Cd18 2.203 . S
Cd18 O17 2.203 . S
Cd18 O20 2.411 . S
Cd18 O21 2.333 . S
Cd18 O22 2.352 . S
Cd18 O26 2.277 . S
Cd18 O27 2.356 . S
C19 O24 1.209 . S
C19 O26 1.226 . S
O20 Cd16 2.273 . S
O20 Cd18 2.411 . S
O20 C23 1.320 . S
O21 Cd18 2.333 . S
O21 C23 1.214 . S
O22 Cd18 2.352 . S
O22 C25 1.258 . S
C23 O20 1.320 . S
C23 O21 1.214 . S
O24 Cd16 2.277 . S
O24 C19 1.209 . S
C25 O22 1.258 . S
C25 O27 1.282 . S
O26 Cd18 2.277 . S
O26 C19 1.226 . S
O27 Cd18 2.356 . S
O27 C25 1.282 . S
C28 O29 1.306 . S
C28 O31 1.160 . S
O29 C28 1.306 . S
O29 Cd30 2.228 . S
Cd30 O29 2.228 . S
Cd30 O34 2.273 . S
Cd30 O38 2.277 . S
O31 C28 1.160 . S
O31 Cd32 2.203 . S
Cd32 O31 2.203 . S
Cd32 O34 2.411 . S
Cd32 O35 2.333 . S
Cd32 O36 2.352 . S
Cd32 O40 2.277 . S
Cd32 O41 2.356 . S
C33 O38 1.209 . S
C33 O40 1.226 . S
O34 Cd30 2.273 . S
O34 Cd32 2.411 . S
O34 C37 1.320 . S
O35 Cd32 2.333 . S
O35 C37 1.214 . S
O36 Cd32 2.352 . S
O36 C39 1.258 . S
C37 O34 1.320 . S
C37 O35 1.214 . S
O38 Cd30 2.277 . S
O38 C33 1.209 . S
C39 O36 1.258 . S
C39 O41 1.282 . S
O40 Cd32 2.277 . S
O40 C33 1.226 . S
O41 Cd32 2.356 . S
O41 C39 1.282 . S
C42 O43 1.306 . S
C42 O45 1.160 . S
O43 C42 1.306 . S
O43 Cd44 2.228 . S
Cd44 O43 2.228 . S
Cd44 O48 2.273 . S
Cd44 O52 2.277 . S
O45 C42 1.160 . S
O45 Cd46 2.203 . S
Cd46 O45 2.203 . S
Cd46 O48 2.411 . S
Cd46 O49 2.333 . S
Cd46 O50 2.352 . S
Cd46 O54 2.277 . S
Cd46 O55 2.356 . S
C47 O52 1.209 . S
C47 O54 1.226 . S
O48 Cd44 2.273 . S
O48 Cd46 2.411 . S
O48 C51 1.320 . S
O49 Cd46 2.333 . S
O49 C51 1.214 . S
O50 Cd46 2.352 . S
O50 C53 1.258 . S
C51 O48 1.320 . S
C51 O49 1.214 . S
O52 Cd44 2.277 . S
O52 C47 1.209 . S
C53 O50 1.258 . S
C53 O55 1.282 . S
O54 Cd46 2.277 . S
O54 C47 1.226 . S
O55 Cd46 2.356 . S
O55 C53 1.282 . S
C56 O57 1.306 . S
C56 O59 1.160 . S
O57 C56 1.306 . S
O57 Cd58 2.228 . S
Cd58 O57 2.228 . S
Cd58 O62 2.273 . S
Cd58 O66 2.277 . S
O59 C56 1.160 . S
O59 Cd60 2.203 . S
Cd60 O59 2.203 . S
Cd60 O62 2.411 . S
Cd60 O63 2.333 . S
Cd60 O64 2.352 . S
Cd60 O68 2.277 . S
Cd60 O69 2.356 . S
C61 O66 1.209 . S
C61 O68 1.226 . S
O62 Cd58 2.273 . S
O62 Cd60 2.411 . S
O62 C65 1.320 . S
O63 Cd60 2.333 . S
O63 C65 1.214 . S
O64 Cd60 2.352 . S
O64 C67 1.258 . S
C65 O62 1.320 . S
C65 O63 1.214 . S
O66 Cd58 2.277 . S
O66 C61 1.209 . S
C67 O64 1.258 . S
C67 O69 1.282 . S
O68 Cd60 2.277 . S
O68 C61 1.226 . S
O69 Cd60 2.356 . S
O69 C67 1.282 . S
C70 O71 1.306 . S
C70 O73 1.160 . S
O71 C70 1.306 . S
O71 Cd72 2.228 . S
Cd72 O71 2.228 . S
Cd72 O76 2.273 . S
Cd72 O80 2.277 . S
O73 C70 1.160 . S
O73 Cd74 2.203 . S
Cd74 O73 2.203 . S
Cd74 O76 2.411 . S
Cd74 O77 2.333 . S
Cd74 O78 2.352 . S
Cd74 O82 2.277 . S
Cd74 O83 2.356 . S
C75 O80 1.209 . S
C75 O82 1.226 . S
O76 Cd72 2.273 . S
O76 Cd74 2.411 . S
O76 C79 1.320 . S
O77 Cd74 2.333 . S
O77 C79 1.214 . S
O78 Cd74 2.352 . S
O78 C81 1.258 . S
C79 O76 1.320 . S
C79 O77 1.214 . S
O80 Cd72 2.277 . S
O80 C75 1.209 . S
C81 O78 1.258 . S
C81 O83 1.282 . S
O82 Cd74 2.277 . S
O82 C75 1.226 . S
O83 Cd74 2.356 . S
O83 C81 1.282 . S
C84 O85 1.306 . S
C84 O87 1.160 . S
O85 C84 1.306 . S
O85 Cd86 2.228 . S
Cd86 O85 2.228 . S
Cd86 O90 2.273 . S
Cd86 O94 2.277 . S
O87 C84 1.160 . S
O87 Cd88 2.203 . S
Cd88 O87 2.203 . S
Cd88 O90 2.411 . S
Cd88 O91 2.333 . S
Cd88 O92 2.352 . S
Cd88 O96 2.277 . S
Cd88 O97 2.356 . S
C89 O94 1.209 . S
C89 O96 1.226 . S
O90 Cd86 2.273 . S
O90 Cd88 2.411 . S
O90 C93 1.320 . S
O91 Cd88 2.333 . S
O91 C93 1.214 . S
O92 Cd88 2.352 . S
O92 C95 1.258 . S
C93 O90 1.320 . S
C93 O91 1.214 . S
O94 Cd86 2.277 . S
O94 C89 1.209 . S
C95 O92 1.258 . S
C95 O97 1.282 . S
O96 Cd88 2.277 . S
O96 C89 1.226 . S
O97 Cd88 2.356 . S
O97 C95 1.282 . S
C98 O99 1.306 . S
C98 O101 1.160 . S
O99 C98 1.306 . S
O99 Cd100 2.228 . S
Cd100 O99 2.228 . S
Cd100 O104 2.273 . S
Cd100 O108 2.277 . S
O101 C98 1.160 . S
O101 Cd102 2.203 . S
Cd102 O101 2.203 . S
Cd102 O104 2.411 . S
Cd102 O105 2.333 . S
Cd102 O106 2.352 . S
Cd102 O110 2.277 . S
Cd102 O111 2.356 . S
C103 O108 1.209 . S
C103 O110 1.226 . S
O104 Cd100 2.273 . S
O104 Cd102 2.411 . S
O104 C107 1.320 . S
O105 Cd102 2.333 . S
O105 C107 1.214 . S
O106 Cd102 2.352 . S
O106 C109 1.258 . S
C107 O104 1.320 . S
C107 O105 1.214 . S
O108 Cd100 2.277 . S
O108 C103 1.209 . S
C109 O106 1.258 . S
C109 O111 1.282 . S
O110 Cd102 2.277 . S
O110 C103 1.226 . S
O111 Cd102 2.356 . S
O111 C109 1.282 . S
C112 O113 1.306 . S
C112 O115 1.160 . S
O113 C112 1.306 . S
O113 Cd114 2.228 . S
Cd114 O113 2.228 . S
Cd114 O118 2.273 . S
Cd114 O122 2.277 . S
O115 C112 1.160 . S
O115 Cd116 2.203 . S
Cd116 O115 2.203 . S
Cd116 O118 2.411 . S
Cd116 O119 2.333 . S
Cd116 O120 2.352 . S
Cd116 O124 2.277 . S
Cd116 O125 2.356 . S
C117 O122 1.209 . S
C117 O124 1.226 . S
O118 Cd114 2.273 . S
O118 Cd116 2.411 . S
O118 C121 1.320 . S
O119 Cd116 2.333 . S
O119 C121 1.214 . S
O120 Cd116 2.352 . S
O120 C123 1.258 . S
C121 O118 1.320 . S
C121 O119 1.214 . S
O122 Cd114 2.277 . S
O122 C117 1.209 . S
C123 O120 1.258 . S
C123 O125 1.282 . S
O124 Cd116 2.277 . S
O124 C117 1.226 . S
O125 Cd116 2.356 . S
O125 C123 1.282 . S
C126 O127 1.306 . S
C126 O129 1.160 . S
O127 C126 1.306 . S
O127 Cd128 2.228 . S
Cd128 O127 2.228 . S
Cd128 O132 2.273 . S
Cd128 O136 2.277 . S
O129 C126 1.160 . S
O129 Cd130 2.203 . S
Cd130 O129 2.203 . S
Cd130 O132 2.411 . S
Cd130 O133 2.333 . S
Cd130 O134 2.352 . S
Cd130 O138 2.277 . S
Cd130 O139 2.356 . S
C131 O136 1.209 . S
C131 O138 1.226 . S
O132 Cd128 2.273 . S
O132 Cd130 2.411 . S
O132 C135 1.320 . S
O133 Cd130 2.333 . S
O133 C135 1.214 . S
O134 Cd130 2.352 . S
O134 C137 1.258 . S
C135 O132 1.320 . S
C135 O133 1.214 . S
O136 Cd128 2.277 . S
O136 C131 1.209 . S
C137 O134 1.258 . S
C137 O139 1.282 . S
O138 Cd130 2.277 . S
O138 C131 1.226 . S
O139 Cd130 2.356 . S
O139 C137 1.282 . S
C140 O141 1.306 . S
C140 O143 1.160 . S
O141 C140 1.306 . S
O141 Cd142 2.228 . S
Cd142 O141 2.228 . S
Cd142 O146 2.273 . S
Cd142 O150 2.277 . S
O143 C140 1.160 . S
O143 Cd144 2.203 . S
Cd144 O143 2.203 . S
Cd144 O146 2.411 . S
Cd144 O147 2.333 . S
Cd144 O148 2.352 . S
Cd144 O152 2.277 . S
Cd144 O153 2.356 . S
C145 O150 1.209 . S
C145 O152 1.226 . S
O146 Cd142 2.273 . S
O146 Cd144 2.411 . S
O146 C149 1.320 . S
O147 Cd144 2.333 . S
O147 C149 1.214 . S
O148 Cd144 2.352 . S
O148 C151 1.258 . S
C149 O146 1.320 . S
C149 O147 1.214 . S
O150 Cd142 2.277 . S
O150 C145 1.209 . S
C151 O148 1.258 . S
C151 O153 1.282 . S
O152 Cd144 2.277 . S
O152 C145 1.226 . S
O153 Cd144 2.356 . S
O153 C151 1.282 . S
C154 O155 1.306 . S
C154 O157 1.160 . S
O155 C154 1.306 . S
O155 Cd156 2.228 . S
Cd156 O155 2.228 . S
Cd156 O160 2.273 . S
Cd156 O164 2.277 . S
O157 C154 1.160 . S
O157 Cd158 2.203 . S
Cd158 O157 2.203 . S
Cd158 O160 2.411 . S
Cd158 O161 2.333 . S
Cd158 O162 2.352 . S
Cd158 O166 2.277 . S
Cd158 O167 2.356 . S
C159 O164 1.209 . S
C159 O166 1.226 . S
O160 Cd156 2.273 . S
O160 Cd158 2.411 . S
O160 C163 1.320 . S
O161 Cd158 2.333 . S
O161 C163 1.214 . S
O162 Cd158 2.352 . S
O162 C165 1.258 . S
C163 O160 1.320 . S
C163 O161 1.214 . S
O164 Cd156 2.277 . S
O164 C159 1.209 . S
C165 O162 1.258 . S
C165 O167 1.282 . S
O166 Cd158 2.277 . S
O166 C159 1.226 . S
O167 Cd158 2.356 . S
O167 C165 1.282 . S
C168 O169 1.306 . S
C168 O171 1.160 . S
O169 C168 1.306 . S
O169 Cd170 2.228 . S
Cd170 O169 2.228 . S
Cd170 O174 2.273 . S
Cd170 O178 2.277 . S
O171 C168 1.160 . S
O171 Cd172 2.203 . S
Cd172 O171 2.203 . S
Cd172 O174 2.411 . S
Cd172 O175 2.333 . S
Cd172 O176 2.352 . S
Cd172 O180 2.277 . S
Cd172 O181 2.356 . S
C173 O178 1.209 . S
C173 O180 1.226 . S
O174 Cd170 2.273 . S
O174 Cd172 2.411 . S
O174 C177 1.320 . S
O175 Cd172 2.333 . S
O175 C177 1.214 . S
O176 Cd172 2.352 . S
O176 C179 1.258 . S
C177 O174 1.320 . S
C177 O175 1.214 . S
O178 Cd170 2.277 . S
O178 C173 1.209 . S
C179 O176 1.258 . S
C179 O181 1.282 . S
O180 Cd172 2.277 . S
O180 C173 1.226 . S
O181 Cd172 2.356 . S
O181 C179 1.282 . S
C182 O183 1.306 . S
C182 O185 1.160 . S
O183 C182 1.306 . S
O183 Cd184 2.228 . S
Cd184 O183 2.228 . S
Cd184 O188 2.273 . S
Cd184 O192 2.277 . S
O185 C182 1.160 . S
O185 Cd186 2.203 . S
Cd186 O185 2.203 . S
Cd186 O188 2.411 . S
Cd186 O189 2.333 . S
Cd186 O190 2.352 . S
Cd186 O194 2.277 . S
Cd186 O195 2.356 . S
C187 O192 1.209 . S
C187 O194 1.226 . S
O188 Cd184 2.273 . S
O188 Cd186 2.411 . S
O188 C191 1.320 . S
O189 Cd186 2.333 . S
O189 C191 1.214 . S
O190 Cd186 2.352 . S
O190 C193 1.258 . S
C191 O188 1.320 . S
C191 O189 1.214 . S
O192 Cd184 2.277 . S
O192 C187 1.209 . S
C193 O190 1.258 . S
C193 O195 1.282 . S
O194 Cd186 2.277 . S
O194 C187 1.226 . S
O195 Cd186 2.356 . S
O195 C193 1.282 . S
C196 O197 1.306 . S
C196 O199 1.160 . S
O197 C196 1.306 . S
O197 Cd198 2.228 . S
Cd198 O197 2.228 . S
Cd198 O202 2.273 . S
Cd198 O206 2.277 . S
O199 C196 1.160 . S
O199 Cd200 2.203 . S
Cd200 O199 2.203 . S
Cd200 O202 2.411 . S
Cd200 O203 2.333 . S
Cd200 O204 2.352 . S
Cd200 O208 2.277 . S
Cd200 O209 2.356 . S
C201 O206 1.209 . S
C201 O208 1.226 . S
O202 Cd198 2.273 . S
O202 Cd200 2.411 . S
O202 C205 1.320 . S
O203 Cd200 2.333 . S
O203 C205 1.214 . S
O204 Cd200 2.352 . S
O204 C207 1.258 . S
C205 O202 1.320 . S
C205 O203 1.214 . S
O206 Cd198 2.277 . S
O206 C201 1.209 . S
C207 O204 1.258 . S
C207 O209 1.282 . S
O208 Cd200 2.277 . S
O208 C201 1.226 . S
O209 Cd200 2.356 . S
O209 C207 1.282 . S
C210 O211 1.306 . S
C210 O213 1.160 . S
O211 C210 1.306 . S
O211 Cd212 2.228 . S
Cd212 O211 2.228 . S
Cd212 O216 2.273 . S
Cd212 O220 2.277 . S
O213 C210 1.160 . S
O213 Cd214 2.203 . S
Cd214 O213 2.203 . S
Cd214 O216 2.411 . S
Cd214 O217 2.333 . S
Cd214 O218 2.352 . S
Cd214 O222 2.277 . S
Cd214 O223 2.356 . S
C215 O220 1.209 . S
C215 O222 1.226 . S
O216 Cd212 2.273 . S
O216 Cd214 2.411 . S
O216 C219 1.320 . S
O217 Cd214 2.333 . S
O217 C219 1.214 . S
O218 Cd214 2.352 . S
O218 C221 1.258 . S
C219 O216 1.320 . S
C219 O217 1.214 . S
O220 Cd212 2.277 . S
O220 C215 1.209 . S
C221 O218 1.258 . S
C221 O223 1.282 . S
O222 Cd214 2.277 . S
O222 C215 1.226 . S
O223 Cd214 2.356 . S
O223 C221 1.282 . S
C224 O225 1.306 . S
C224 O227 1.160 . S
O225 C224 1.306 . S
O225 Cd226 2.228 . S
Cd226 O225 2.228 . S
Cd226 O230 2.273 . S
Cd226 O234 2.277 . S
O227 C224 1.160 . S
O227 Cd228 2.203 . S
Cd228 O227 2.203 . S
Cd228 O230 2.411 . S
Cd228 O231 2.333 . S
Cd228 O232 2.352 . S
Cd228 O236 2.277 . S
Cd228 O237 2.356 . S
C229 O234 1.209 . S
C229 O236 1.226 . S
O230 Cd226 2.273 . S
O230 Cd228 2.411 . S
O230 C233 1.320 . S
O231 Cd228 2.333 . S
O231 C233 1.214 . S
O232 Cd228 2.352 . S
O232 C235 1.258 . S
C233 O230 1.320 . S
C233 O231 1.214 . S
O234 Cd226 2.277 . S
O234 C229 1.209 . S
C235 O232 1.258 . S
C235 O237 1.282 . S
O236 Cd228 2.277 . S
O236 C229 1.226 . S
O237 Cd228 2.356 . S
O237 C235 1.282 . S
C238 O239 1.306 . S
C238 O241 1.160 . S
O239 C238 1.306 . S
O239 Cd240 2.228 . S
Cd240 O239 2.228 . S
Cd240 O244 2.273 . S
Cd240 O248 2.277 . S
O241 C238 1.160 . S
O241 Cd242 2.203 . S
Cd242 O241 2.203 . S
Cd242 O244 2.411 . S
Cd242 O245 2.333 . S
Cd242 O246 2.352 . S
Cd242 O250 2.277 . S
Cd242 O251 2.356 . S
C243 O248 1.209 . S
C243 O250 1.226 . S
O244 Cd240 2.273 . S
O244 Cd242 2.411 . S
O244 C247 1.320 . S
O245 Cd242 2.333 . S
O245 C247 1.214 . S
O246 Cd242 2.352 . S
O246 C249 1.258 . S
C247 O244 1.320 . S
C247 O245 1.214 . S
O248 Cd240 2.277 . S
O248 C243 1.209 . S
C249 O246 1.258 . S
C249 O251 1.282 . S
O250 Cd242 2.277 . S
O250 C243 1.226 . S
O251 Cd242 2.356 . S
O251 C249 1.282 . S
C252 O253 1.306 . S
C252 O255 1.160 . S
O253 C252 1.306 . S
O253 Cd254 2.228 . S
Cd254 O253 2.228 . S
Cd254 O258 2.273 . S
Cd254 O262 2.277 . S
O255 C252 1.160 . S
O255 Cd256 2.203 . S
Cd256 O255 2.203 . S
Cd256 O258 2.411 . S
Cd256 O259 2.333 . S
Cd256 O260 2.352 . S
Cd256 O264 2.277 . S
Cd256 O265 2.356 . S
C257 O262 1.209 . S
C257 O264 1.226 . S
O258 Cd254 2.273 . S
O258 Cd256 2.411 . S
O258 C261 1.320 . S
O259 Cd256 2.333 . S
O259 C261 1.214 . S
O260 Cd256 2.352 . S
O260 C263 1.258 . S
C261 O258 1.320 . S
C261 O259 1.214 . S
O262 Cd254 2.277 . S
O262 C257 1.209 . S
C263 O260 1.258 . S
C263 O265 1.282 . S
O264 Cd256 2.277 . S
O264 C257 1.226 . S
O265 Cd256 2.356 . S
O265 C263 1.282 . S
C266 O267 1.306 . S
C266 O269 1.160 . S
O267 C266 1.306 . S
O267 Cd268 2.228 . S
Cd268 O267 2.228 . S
Cd268 O272 2.273 . S
Cd268 O276 2.277 . S
O269 C266 1.160 . S
O269 Cd270 2.203 . S
Cd270 O269 2.203 . S
Cd270 O272 2.411 . S
Cd270 O273 2.333 . S
Cd270 O274 2.352 . S
Cd270 O278 2.277 . S
Cd270 O279 2.356 . S
C271 O276 1.209 . S
C271 O278 1.226 . S
O272 Cd268 2.273 . S
O272 Cd270 2.411 . S
O272 C275 1.320 . S
O273 Cd270 2.333 . S
O273 C275 1.214 . S
O274 Cd270 2.352 . S
O274 C277 1.258 . S
C275 O272 1.320 . S
C275 O273 1.214 . S
O276 Cd268 2.277 . S
O276 C271 1.209 . S
C277 O274 1.258 . S
C277 O279 1.282 . S
O278 Cd270 2.277 . S
O278 C271 1.226 . S
O279 Cd270 2.356 . S
O279 C277 1.282 . S
C280 O281 1.306 . S
C280 O283 1.160 . S
O281 C280 1.306 . S
O281 Cd282 2.228 . S
Cd282 O281 2.228 . S
Cd282 O286 2.273 . S
Cd282 O290 2.277 . S
O283 C280 1.160 . S
O283 Cd284 2.203 . S
Cd284 O283 2.203 . S
Cd284 O286 2.411 . S
Cd284 O287 2.333 . S
Cd284 O288 2.352 . S
Cd284 O292 2.277 . S
Cd284 O293 2.356 . S
C285 O290 1.209 . S
C285 O292 1.226 . S
O286 Cd282 2.273 . S
O286 Cd284 2.411 . S
O286 C289 1.320 . S
O287 Cd284 2.333 . S
O287 C289 1.214 . S
O288 Cd284 2.352 . S
O288 C291 1.258 . S
C289 O286 1.320 . S
C289 O287 1.214 . S
O290 Cd282 2.277 . S
O290 C285 1.209 . S
C291 O288 1.258 . S
C291 O293 1.282 . S
O292 Cd284 2.277 . S
O292 C285 1.226 . S
O293 Cd284 2.356 . S
O293 C291 1.282 . S
C294 O295 1.306 . S
C294 O297 1.160 . S
O295 C294 1.306 . S
O295 Cd296 2.228 . S
Cd296 O295 2.228 . S
Cd296 O300 2.273 . S
Cd296 O304 2.277 . S
O297 C294 1.160 . S
O297 Cd298 2.203 . S
Cd298 O297 2.203 . S
Cd298 O300 2.411 . S
Cd298 O301 2.333 . S
Cd298 O302 2.352 . S
Cd298 O306 2.277 . S
Cd298 O307 2.356 . S
C299 O304 1.209 . S
C299 O306 1.226 . S
O300 Cd296 2.273 . S
O300 Cd298 2.411 . S
O300 C303 1.320 . S
O301 Cd298 2.333 . S
O301 C303 1.214 . S
O302 Cd298 2.352 . S
O302 C305 1.258 . S
C303 O300 1.320 . S
C303 O301 1.214 . S
O304 Cd296 2.277 . S
O304 C299 1.209 . S
C305 O302 1.258 . S
C305 O307 1.282 . S
O306 Cd298 2.277 . S
O306 C299 1.226 . S
O307 Cd298 2.356 . S
O307 C305 1.282 . S
C308 O309 1.306 . S
C308 O311 1.160 . S
O309 C308 1.306 . S
O309 Cd310 2.228 . S
Cd310 O309 2.228 . S
Cd310 O314 2.273 . S
Cd310 O318 2.277 . S
O311 C308 1.160 . S
O311 Cd312 2.203 . S
Cd312 O311 2.203 . S
Cd312 O314 2.411 . S
Cd312 O315 2.333 . S
Cd312 O316 2.352 . S
Cd312 O320 2.277 . S
Cd312 O321 2.356 . S
C313 O318 1.209 . S
C313 O320 1.226 . S
O314 Cd310 2.273 . S
O314 Cd312 2.411 . S
O314 C317 1.320 . S
O315 Cd312 2.333 . S
O315 C317 1.214 . S
O316 Cd312 2.352 . S
O316 C319 1.258 . S
C317 O314 1.320 . S
C317 O315 1.214 . S
O318 Cd310 2.277 . S
O318 C313 1.209 . S
C319 O316 1.258 . S
C319 O321 1.282 . S
O320 Cd312 2.277 . S
O320 C313 1.226 . S
O321 Cd312 2.356 . S
O321 C319 1.282 . S
C322 O323 1.306 . S
C322 O325 1.160 . S
O323 C322 1.306 . S
O323 Cd324 2.228 . S
Cd324 O323 2.228 . S
Cd324 O328 2.273 . S
Cd324 O332 2.277 . S
O325 C322 1.160 . S
O325 Cd326 2.203 . S
Cd326 O325 2.203 . S
Cd326 O328 2.411 . S
Cd326 O329 2.333 . S
Cd326 O330 2.352 . S
Cd326 O334 2.277 . S
Cd326 O335 2.356 . S
C327 O332 1.209 . S
C327 O334 1.226 . S
O328 Cd324 2.273 . S
O328 Cd326 2.411 . S
O328 C331 1.320 . S
O329 Cd326 2.333 . S
O329 C331 1.214 . S
O330 Cd326 2.352 . S
O330 C333 1.258 . S
C331 O328 1.320 . S
C331 O329 1.214 . S
O332 Cd324 2.277 . S
O332 C327 1.209 . S
C333 O330 1.258 . S
C333 O335 1.282 . S
O334 Cd326 2.277 . S
O334 C327 1.226 . S
O335 Cd326 2.356 . S
O335 C333 1.282 . S
C336 O337 1.306 . S
C336 O339 1.160 . S
O337 C336 1.306 . S
O337 Cd338 2.228 . S
Cd338 O337 2.228 . S
Cd338 O342 2.273 . S
Cd338 O346 2.277 . S
O339 C336 1.160 . S
O339 Cd340 2.203 . S
Cd340 O339 2.203 . S
Cd340 O342 2.411 . S
Cd340 O343 2.333 . S
Cd340 O344 2.352 . S
Cd340 O348 2.277 . S
Cd340 O349 2.356 . S
C341 O346 1.209 . S
C341 O348 1.226 . S
O342 Cd338 2.273 . S
O342 Cd340 2.411 . S
O342 C345 1.320 . S
O343 Cd340 2.333 . S
O343 C345 1.214 . S
O344 Cd340 2.352 . S
O344 C347 1.258 . S
C345 O342 1.320 . S
C345 O343 1.214 . S
O346 Cd338 2.277 . S
O346 C341 1.209 . S
C347 O344 1.258 . S
C347 O349 1.282 . S
O348 Cd340 2.277 . S
O348 C341 1.226 . S
O349 Cd340 2.356 . S
O349 C347 1.282 . S
C350 O351 1.306 . S
C350 O353 1.160 . S
O351 C350 1.306 . S
O351 Cd352 2.228 . S
Cd352 O351 2.228 . S
Cd352 O356 2.273 . S
Cd352 O360 2.277 . S
O353 C350 1.160 . S
O353 Cd354 2.203 . S
Cd354 O353 2.203 . S
Cd354 O356 2.411 . S
Cd354 O357 2.333 . S
Cd354 O358 2.352 . S
Cd354 O362 2.277 . S
Cd354 O363 2.356 . S
C355 O360 1.209 . S
C355 O362 1.226 . S
O356 Cd352 2.273 . S
O356 Cd354 2.411 . S
O356 C359 1.320 . S
O357 Cd354 2.333 . S
O357 C359 1.214 . S
O358 Cd354 2.352 . S
O358 C361 1.258 . S
C359 O356 1.320 . S
C359 O357 1.214 . S
O360 Cd352 2.277 . S
O360 C355 1.209 . S
C361 O358 1.258 . S
C361 O363 1.282 . S
O362 Cd354 2.277 . S
O362 C355 1.226 . S
O363 Cd354 2.356 . S
O363 C361 1.282 . S
C364 O365 1.306 . S
C364 O367 1.160 . S
O365 C364 1.306 . S
O365 Cd366 2.228 . S
Cd366 O365 2.228 . S
Cd366 O370 2.273 . S
Cd366 O374 2.277 . S
O367 C364 1.160 . S
O367 Cd368 2.203 . S
Cd368 O367 2.203 . S
Cd368 O370 2.411 . S
Cd368 O371 2.333 . S
Cd368 O372 2.352 . S
Cd368 O376 2.277 . S
Cd368 O377 2.356 . S
C369 O374 1.209 . S
C369 O376 1.226 . S
O370 Cd366 2.273 . S
O370 Cd368 2.411 . S
O370 C373 1.320 . S
O371 Cd368 2.333 . S
O371 C373 1.214 . S
O372 Cd368 2.352 . S
O372 C375 1.258 . S
C373 O370 1.320 . S
C373 O371 1.214 . S
O374 Cd366 2.277 . S
O374 C369 1.209 . S
C375 O372 1.258 . S
C375 O377 1.282 . S
O376 Cd368 2.277 . S
O376 C369 1.226 . S
O377 Cd368 2.356 . S
O377 C375 1.282 . S
C378 O379 1.306 . S
C378 O381 1.160 . S
O379 C378 1.306 . S
O379 Cd380 2.228 . S
Cd380 O379 2.228 . S
Cd380 O384 2.273 . S
Cd380 O388 2.277 . S
O381 C378 1.160 . S
O381 Cd382 2.203 . S
Cd382 O381 2.203 . S
Cd382 O384 2.411 . S
Cd382 O385 2.333 . S
Cd382 O386 2.352 . S
Cd382 O390 2.277 . S
Cd382 O391 2.356 . S
C383 O388 1.209 . S
C383 O390 1.226 . S
O384 Cd380 2.273 . S
O384 Cd382 2.411 . S
O384 C387 1.320 . S
O385 Cd382 2.333 . S
O385 C387 1.214 . S
O386 Cd382 2.352 . S
O386 C389 1.258 . S
C387 O384 1.320 . S
C387 O385 1.214 . S
O388 Cd380 2.277 . S
O388 C383 1.209 . S
C389 O386 1.258 . S
C389 O391 1.282 . S
O390 Cd382 2.277 . S
O390 C383 1.226 . S
O391 Cd382 2.356 . S
O391 C389 1.282 . S
C392 O393 1.306 . S
C392 O395 1.160 . S
O393 C392 1.306 . S
O393 Cd394 2.228 . S
Cd394 O393 2.228 . S
Cd394 O398 2.273 . S
Cd394 O402 2.277 . S
O395 C392 1.160 . S
O395 Cd396 2.203 . S
Cd396 O395 2.203 . S
Cd396 O398 2.411 . S
Cd396 O399 2.333 . S
Cd396 O400 2.352 . S
Cd396 O404 2.277 . S
Cd396 O405 2.356 . S
C397 O402 1.209 . S
C397 O404 1.226 . S
O398 Cd394 2.273 . S
O398 Cd396 2.411 . S
O398 C401 1.320 . S
O399 Cd396 2.333 . S
O399 C401 1.214 . S
O400 Cd396 2.352 . S
O400 C403 1.258 . S
C401 O398 1.320 . S
C401 O399 1.214 . S
O402 Cd394 2.277 . S
O402 C397 1.209 . S
C403 O400 1.258 . S
C403 O405 1.282 . S
O404 Cd396 2.277 . S
O404 C397 1.226 . S
O405 Cd396 2.356 . S
O405 C403 1.282 . S
C406 O407 1.306 . S
C406 O409 1.160 . S
O407 C406 1.306 . S
O407 Cd408 2.228 . S
Cd408 O407 2.228 . S
Cd408 O412 2.273 . S
Cd408 O416 2.277 . S
O409 C406 1.160 . S
O409 Cd410 2.203 . S
Cd410 O409 2.203 . S
Cd410 O412 2.411 . S
Cd410 O413 2.333 . S
Cd410 O414 2.352 . S
Cd410 O418 2.277 . S
Cd410 O419 2.356 . S
C411 O416 1.209 . S
C411 O418 1.226 . S
O412 Cd408 2.273 . S
O412 Cd410 2.411 . S
O412 C415 1.320 . S
O413 Cd410 2.333 . S
O413 C415 1.214 . S
O414 Cd410 2.352 . S
O414 C417 1.258 . S
C415 O412 1.320 . S
C415 O413 1.214 . S
O416 Cd408 2.277 . S
O416 C411 1.209 . S
C417 O414 1.258 . S
C417 O419 1.282 . S
O418 Cd410 2.277 . S
O418 C411 1.226 . S
O419 Cd410 2.356 . S
O419 C417 1.282 . S
C420 O421 1.306 . S
C420 O423 1.160 . S
O421 C420 1.306 . S
O421 Cd422 2.228 . S
Cd422 O421 2.228 . S
Cd422 O426 2.273 . S
Cd422 O430 2.277 . S
O423 C420 1.160 . S
O423 Cd424 2.203 . S
Cd424 O423 2.203 . S
Cd424 O426 2.411 . S
Cd424 O427 2.333 . S
Cd424 O428 2.352 . S
Cd424 O432 2.277 . S
Cd424 O433 2.356 . S
C425 O430 1.209 . S
C425 O432 1.226 . S
O426 Cd422 2.273 . S
O426 Cd424 2.411 . S
O426 C429 1.320 . S
O427 Cd424 2.333 . S
O427 C429 1.214 . S
O428 Cd424 2.352 . S
O428 C431 1.258 . S
C429 O426 1.320 . S
C429 O427 1.214 . S
O430 Cd422 2.277 . S
O430 C425 1.209 . S
C431 O428 1.258 . S
C431 O433 1.282 . S
O432 Cd424 2.277 . S
O432 C425 1.226 . S
O433 Cd424 2.356 . S
O433 C431 1.282 . S
C434 O435 1.306 . S
C434 O437 1.160 . S
O435 C434 1.306 . S
O435 Cd436 2.228 . S
Cd436 O435 2.228 . S
Cd436 O440 2.273 . S
Cd436 O444 2.277 . S
O437 C434 1.160 . S
O437 Cd438 2.203 . S
Cd438 O437 2.203 . S
Cd438 O440 2.411 . S
Cd438 O441 2.333 . S
Cd438 O442 2.352 . S
Cd438 O446 2.277 . S
Cd438 O447 2.356 . S
C439 O444 1.209 . S
C439 O446 1.226 . S
O440 Cd436 2.273 . S
O440 Cd438 2.411 . S
O440 C443 1.320 . S
O441 Cd438 2.333 . S
O441 C443 1.214 . S
O442 Cd438 2.352 . S
O442 C445 1.258 . S
C443 O440 1.320 . S
C443 O441 1.214 . S
O444 Cd436 2.277 . S
O444 C439 1.209 . S
C445 O442 1.258 . S
C445 O447 1.282 . S
O446 Cd438 2.277 . S
O446 C439 1.226 . S
O447 Cd438 2.356 . S
O447 C445 1.282 . S
C448 O449 1.306 . S
C448 O451 1.160 . S
O449 C448 1.306 . S
O449 Cd450 2.228 . S
Cd450 O449 2.228 . S
Cd450 O454 2.273 . S
Cd450 O458 2.277 . S
O451 C448 1.160 . S
O451 Cd452 2.203 . S
Cd452 O451 2.203 . S
Cd452 O454 2.411 . S
Cd452 O455 2.333 . S
Cd452 O456 2.352 . S
Cd452 O460 2.277 . S
Cd452 O461 2.356 . S
C453 O458 1.209 . S
C453 O460 1.226 . S
O454 Cd450 2.273 . S
O454 Cd452 2.411 . S
O454 C457 1.320 . S
O455 Cd452 2.333 . S
O455 C457 1.214 . S
O456 Cd452 2.352 . S
O456 C459 1.258 . S
C457 O454 1.320 . S
C457 O455 1.214 . S
O458 Cd450 2.277 . S
O458 C453 1.209 . S
C459 O456 1.258 . S
C459 O461 1.282 . S
O460 Cd452 2.277 . S
O460 C453 1.226 . S
O461 Cd452 2.356 . S
O461 C459 1.282 . S
C462 O463 1.306 . S
C462 O465 1.160 . S
O463 C462 1.306 . S
O463 Cd464 2.228 . S
Cd464 O463 2.228 . S
Cd464 O468 2.273 . S
Cd464 O472 2.277 . S
O465 C462 1.160 . S
O465 Cd466 2.203 . S
Cd466 O465 2.203 . S
Cd466 O468 2.411 . S
Cd466 O469 2.333 . S
Cd466 O470 2.352 . S
Cd466 O474 2.277 . S
Cd466 O475 2.356 . S
C467 O472 1.209 . S
C467 O474 1.226 . S
O468 Cd464 2.273 . S
O468 Cd466 2.411 . S
O468 C471 1.320 . S
O469 Cd466 2.333 . S
O469 C471 1.214 . S
O470 Cd466 2.352 . S
O470 C473 1.258 . S
C471 O468 1.320 . S
C471 O469 1.214 . S
O472 Cd464 2.277 . S
O472 C467 1.209 . S
C473 O470 1.258 . S
C473 O475 1.282 . S
O474 Cd466 2.277 . S
O474 C467 1.226 . S
O475 Cd466 2.356 . S
O475 C473 1.282 . S
C476 O477 1.306 . S
C476 O479 1.160 . S
O477 C476 1.306 . S
O477 Cd478 2.228 . S
Cd478 O477 2.228 . S
Cd478 O482 2.273 . S
Cd478 O486 2.277 . S
O479 C476 1.160 . S
O479 Cd480 2.203 . S
Cd480 O479 2.203 . S
Cd480 O482 2.411 . S
Cd480 O483 2.333 . S
Cd480 O484 2.352 . S
Cd480 O488 2.277 . S
Cd480 O489 2.356 . S
C481 O486 1.209 . S
C481 O488 1.226 . S
O482 Cd478 2.273 . S
O482 Cd480 2.411 . S
O482 C485 1.320 . S
O483 Cd480 2.333 . S
O483 C485 1.214 . S
O484 Cd480 2.352 . S
O484 C487 1.258 . S
C485 O482 1.320 . S
C485 O483 1.214 . S
O486 Cd478 2.277 . S
O486 C481 1.209 . S
C487 O484 1.258 . S
C487 O489 1.282 . S
O488 Cd480 2.277 . S
O488 C481 1.226 . S
O489 Cd480 2.356 . S
O489 C487 1.282 . S
C490 O491 1.306 . S
C490 O493 1.160 . S
O491 C490 1.306 . S
O491 Cd492 2.228 . S
Cd492 O491 2.228 . S
Cd492 O496 2.273 . S
Cd492 O500 2.277 . S
O493 C490 1.160 . S
O493 Cd494 2.203 . S
Cd494 O493 2.203 . S
Cd494 O496 2.411 . S
Cd494 O497 2.333 . S
Cd494 O498 2.352 . S
Cd494 O502 2.277 . S
Cd494 O503 2.356 . S
C495 O500 1.209 . S
C495 O502 1.226 . S
O496 Cd492 2.273 . S
O496 Cd494 2.411 . S
O496 C499 1.320 . S
O497 Cd494 2.333 . S
O497 C499 1.214 . S
O498 Cd494 2.352 . S
O498 C501 1.258 . S
C499 O496 1.320 . S
C499 O497 1.214 . S
O500 Cd492 2.277 . S
O500 C495 1.209 . S
C501 O498 1.258 . S
C501 O503 1.282 . S
O502 Cd494 2.277 . S
O502 C495 1.226 . S
O503 Cd494 2.356 . S
O503 C501 1.282 . S
C504 C505 1.391 . S
C504 C506 1.394 . S
C504 H520 0.931 . S
C505 C504 1.391 . S
C505 C509 1.376 . S
C506 C504 1.394 . S
C506 C507 1.369 . S
C506 C510 1.531 1_554 S
C507 C506 1.369 . S
C507 C508 1.410 . S
C507 C515 1.503 1_554 S
C508 C507 1.410 . S
C508 C509 1.392 . S
C508 C511 1.511 . S
C509 C505 1.376 . S
C509 C508 1.392 . S
C509 H521 0.929 . S
C510 C506 1.531 1_556 S
C510 H522 0.960 . S
C510 H523 0.962 . S
C510 H524 0.960 . S
C511 C508 1.511 . S
C511 H525 0.961 . S
C511 H526 0.981 . S
C511 H527 0.961 . S
C512 C513 1.370 . S
C512 C514 1.363 1_565 S
C512 H528 0.931 . S
C513 C512 1.370 . S
C513 C517 1.408 . S
C514 C512 1.363 1_545 S
C514 C515 1.370 . S
C514 C518 1.524 . S
C515 C507 1.503 1_556 S
C515 C514 1.370 . S
C515 C516 1.403 1_556 S
C516 C515 1.403 1_554 S
C516 C517 1.404 1_544 S
C516 C519 1.539 . S
C517 C513 1.408 . S
C517 C516 1.404 1_566 S
C517 H529 0.930 . S
C518 C514 1.524 . S
C518 H530 0.956 . S
C518 H531 0.961 . S
C518 H532 0.961 . S
C519 C516 1.539 . S
C519 H533 0.958 . S
C519 H534 0.961 1_545 S
C519 H535 0.960 . S
H520 C504 0.931 . S
H521 C509 0.929 . S
H522 C510 0.960 . S
H523 C510 0.962 . S
H524 C510 0.960 . S
H525 C511 0.961 . S
H526 C511 0.981 . S
H527 C511 0.961 . S
H528 C512 0.931 . S
H529 C517 0.930 . S
H530 C518 0.956 . S
H531 C518 0.961 . S
H532 C518 0.961 . S
H533 C519 0.958 . S
H534 C519 0.961 1_565 S
H535 C519 0.960 . S
C536 C537 1.391 . S
C536 C538 1.394 . S
C536 H552 0.931 . S
C537 C536 1.391 . S
C537 C541 1.376 . S
C538 C536 1.394 . S
C538 C539 1.369 . S
C538 C542 1.518 1_554 S
C539 C538 1.369 . S
C539 C540 1.410 . S
C539 C547 1.507 . S
C540 C539 1.410 . S
C540 C541 1.392 . S
C540 C543 1.511 . S
C541 C537 1.376 . S
C541 C540 1.392 . S
C541 H553 0.929 . S
C542 C538 1.518 1_556 S
C542 H554 0.962 . S
C542 H555 0.981 . S
C542 H556 0.952 1_556 S
C543 C540 1.511 . S
C543 H557 0.961 . S
C543 H558 0.961 . S
C543 H559 0.961 . S
C544 C545 1.370 . S
C544 C546 1.363 1_455 S
C544 H560 0.922 . S
C545 C544 1.370 . S
C545 C549 1.408 . S
C546 C544 1.363 1_655 S
C546 C547 1.365 1_556 S
C546 C550 1.524 . S
C547 C539 1.507 . S
C547 C546 1.365 1_554 S
C547 C548 1.404 1_655 S
C548 C547 1.404 1_455 S
C548 C549 1.404 1_554 S
C548 C551 1.539 . S
C549 C545 1.408 . S
C549 C548 1.404 1_556 S
C549 H561 0.930 . S
C550 C546 1.524 . S
C550 H562 0.956 . S
C550 H563 0.961 . S
C550 H564 0.961 . S
C551 C548 1.539 . S
C551 H565 0.958 1_455 S
C551 H566 0.961 . S
C551 H567 0.960 1_455 S
H552 C536 0.931 . S
H553 C541 0.929 . S
H554 C542 0.962 . S
H555 C542 0.981 . S
H556 C542 0.952 1_554 S
H557 C543 0.961 . S
H558 C543 0.961 . S
H559 C543 0.961 . S
H560 C544 0.922 . S
H561 C549 0.930 . S
H562 C550 0.956 . S
H563 C550 0.961 . S
H564 C550 0.961 . S
H565 C551 0.958 1_655 S
H566 C551 0.961 . S
H567 C551 0.960 1_655 S
C568 C569 1.391 . S
C568 C570 1.394 . S
C568 H584 0.931 . S
C569 C568 1.391 . S
C569 C573 1.376 . S
C570 C568 1.394 . S
C570 C571 1.369 . S
C570 C574 1.531 . S
C571 C570 1.369 . S
C571 C572 1.410 1_556 S
C571 C579 1.503 1_556 S
C572 C571 1.410 1_554 S
C572 C573 1.392 1_554 S
C572 C575 1.511 . S
C573 C569 1.376 . S
C573 C572 1.392 1_556 S
C573 H585 0.929 . S
C574 C570 1.531 . S
C574 H586 0.960 . S
C574 H587 0.962 . S
C574 H588 0.960 . S
C575 C572 1.511 . S
C575 H589 0.961 . S
C575 H590 0.961 . S
C575 H591 0.961 . S
C576 C577 1.370 . S
C576 C578 1.363 . S
C576 H592 0.931 . S
C577 C576 1.370 . S
C577 C581 1.408 . S
C578 C576 1.363 . S
C578 C579 1.370 . S
C578 C582 1.524 . S
C579 C571 1.503 1_554 S
C579 C578 1.370 . S
C579 C580 1.403 . S
C580 C579 1.403 . S
C580 C581 1.404 . S
C580 C583 1.539 . S
C581 C577 1.408 . S
C581 C580 1.404 . S
C581 H593 0.930 . S
C582 C578 1.524 . S
C582 H594 0.956 . S
C582 H595 0.961 . S
C582 H596 0.961 . S
C583 C580 1.539 . S
C583 H597 0.958 1_554 S
C583 H598 0.961 . S
C583 H599 0.960 . S
H584 C568 0.931 . S
H585 C573 0.929 . S
H586 C574 0.960 . S
H587 C574 0.962 . S
H588 C574 0.960 . S
H589 C575 0.961 . S
H590 C575 0.961 . S
H591 C575 0.961 . S
H592 C576 0.931 . S
H593 C581 0.930 . S
H594 C582 0.956 . S
H595 C582 0.961 . S
H596 C582 0.961 . S
H597 C583 0.958 1_556 S
H598 C583 0.961 . S
H599 C583 0.960 . S
C600 C601 1.391 . S
C600 C602 1.394 . S
C600 H616 0.931 . S
C601 C600 1.391 . S
C601 C605 1.376 1_655 S
C602 C600 1.394 . S
C602 C603 1.369 1_655 S
C602 C606 1.531 . S
C603 C602 1.369 1_455 S
C603 C604 1.410 . S
C603 C611 1.503 . S
C604 C603 1.410 . S
C604 C605 1.392 . S
C604 C607 1.511 . S
C605 C601 1.376 1_455 S
C605 C604 1.392 . S
C605 H617 0.929 . S
C606 C602 1.531 . S
C606 H618 0.960 1_655 S
C606 H619 0.962 . S
C606 H620 0.960 . S
C607 C604 1.511 . S
C607 H621 0.961 . S
C607 H622 0.961 . S
C607 H623 0.961 . S
C608 C609 1.370 . S
C608 C610 1.363 . S
C608 H624 0.931 . S
C609 C608 1.370 . S
C609 C613 1.408 . S
C610 C608 1.363 . S
C610 C611 1.370 . S
C610 C614 1.524 . S
C611 C603 1.503 . S
C611 C610 1.370 . S
C611 C612 1.403 . S
C612 C611 1.403 . S
C612 C613 1.404 . S
C612 C615 1.539 . S
C613 C609 1.408 . S
C613 C612 1.404 . S
C613 H625 0.930 . S
C614 C610 1.524 . S
C614 H626 0.956 . S
C614 H627 0.961 . S
C614 H628 0.961 . S
C615 C612 1.539 . S
C615 H629 0.958 . S
C615 H630 0.961 . S
C615 H631 0.960 . S
H616 C600 0.931 . S
H617 C605 0.929 . S
H618 C606 0.960 1_455 S
H619 C606 0.962 . S
H620 C606 0.960 . S
H621 C607 0.961 . S
H622 C607 0.961 . S
H623 C607 0.961 . S
H624 C608 0.931 . S
H625 C613 0.930 . S
H626 C614 0.956 . S
H627 C614 0.961 . S
H628 C614 0.961 . S
H629 C615 0.958 . S
H630 C615 0.961 . S
H631 C615 0.960 . S
C632 C633 1.391 . S
C632 C634 1.394 . S
C632 H648 0.931 . S
C633 C632 1.391 . S
C633 C637 1.376 . S
C634 C632 1.394 . S
C634 C635 1.369 . S
C634 C638 1.531 . S
C635 C634 1.369 . S
C635 C636 1.410 . S
C635 C643 1.503 . S
C636 C635 1.410 . S
C636 C637 1.392 . S
C636 C639 1.511 . S
C637 C633 1.376 . S
C637 C636 1.392 . S
C637 H649 0.929 . S
C638 C634 1.531 . S
C638 H650 0.960 . S
C638 H651 0.962 . S
C638 H652 0.960 . S
C639 C636 1.511 . S
C639 H653 0.961 . S
C639 H654 0.961 . S
C639 H655 0.961 . S
C640 C641 1.370 . S
C640 C642 1.363 . S
C640 H656 0.931 . S
C641 C640 1.370 . S
C641 C645 1.408 . S
C642 C640 1.363 . S
C642 C643 1.370 . S
C642 C646 1.524 . S
C643 C635 1.503 . S
C643 C642 1.370 . S
C643 C644 1.403 . S
C644 C643 1.403 . S
C644 C645 1.404 . S
C644 C647 1.539 . S
C645 C641 1.408 . S
C645 C644 1.404 . S
C645 H657 0.930 . S
C646 C642 1.524 . S
C646 H658 0.956 . S
C646 H659 0.961 . S
C646 H660 0.961 . S
C647 C644 1.539 . S
C647 H661 0.958 . S
C647 H662 0.961 . S
C647 H663 0.960 . S
H648 C632 0.931 . S
H649 C637 0.929 . S
H650 C638 0.960 . S
H651 C638 0.962 . S
H652 C638 0.960 . S
H653 C639 0.961 . S
H654 C639 0.961 . S
H655 C639 0.961 . S
H656 C640 0.931 . S
H657 C645 0.930 . S
H658 C646 0.956 . S
H659 C646 0.961 . S
H660 C646 0.961 . S
H661 C647 0.958 . S
H662 C647 0.961 . S
H663 C647 0.960 . S
C664 C665 1.391 . S
C664 C666 1.394 . S
C664 H680 0.931 . S
C665 C664 1.391 . S
C665 C669 1.376 . S
C666 C664 1.394 . S
C666 C667 1.369 . S
C666 C670 1.531 . S
C667 C666 1.369 . S
C667 C668 1.410 . S
C667 C675 1.503 . S
C668 C667 1.410 . S
C668 C669 1.392 . S
C668 C671 1.511 . S
C669 C665 1.376 . S
C669 C668 1.392 . S
C669 H681 0.929 . S
C670 C666 1.531 . S
C670 H682 0.960 . S
C670 H683 0.962 . S
C670 H684 0.960 . S
C671 C668 1.511 . S
C671 H685 0.961 . S
C671 H686 0.961 . S
C671 H687 0.961 . S
C672 C673 1.370 . S
C672 C674 1.363 . S
C672 H688 0.931 . S
C673 C672 1.370 . S
C673 C677 1.408 1_545 S
C674 C672 1.363 . S
C674 C675 1.370 1_545 S
C674 C678 1.524 . S
C675 C667 1.503 . S
C675 C674 1.370 1_565 S
C675 C676 1.403 . S
C676 C675 1.403 . S
C676 C677 1.404 . S
C676 C679 1.539 . S
C677 C673 1.408 1_565 S
C677 C676 1.404 . S
C677 H689 0.930 . S
C678 C674 1.524 . S
C678 H690 0.956 1_545 S
C678 H691 0.961 1_545 S
C678 H692 0.961 . S
C679 C676 1.539 . S
C679 H693 0.958 . S
C679 H694 0.961 . S
C679 H695 0.960 . S
H680 C664 0.931 . S
H681 C669 0.929 . S
H682 C670 0.960 . S
H683 C670 0.962 . S
H684 C670 0.960 . S
H685 C671 0.961 . S
H686 C671 0.961 . S
H687 C671 0.961 . S
H688 C672 0.931 . S
H689 C677 0.930 . S
H690 C678 0.956 1_565 S
H691 C678 0.961 1_565 S
H692 C678 0.961 . S
H693 C679 0.958 . S
H694 C679 0.961 . S
H695 C679 0.960 . S
C696 C697 1.391 . S
C696 C698 1.394 1_545 S
C696 H712 0.931 . S
C697 C696 1.391 . S
C697 C701 1.376 . S
C698 C696 1.394 1_565 S
C698 C699 1.369 1_554 S
C698 C702 1.531 . S
C699 C698 1.369 1_556 S
C699 C700 1.410 1_565 S
C699 C707 1.503 . S
C700 C699 1.410 1_545 S
C700 C701 1.387 1_556 S
C700 C703 1.515 . S
C701 C697 1.376 . S
C701 C700 1.387 1_554 S
C701 H713 0.929 . S
C702 C698 1.531 . S
C702 H714 0.960 1_554 S
C702 H715 0.962 . S
C702 H716 0.960 . S
C703 C700 1.515 . S
C703 H717 0.961 . S
C703 H718 0.961 1_545 S
C703 H719 0.961 . S
C704 C705 1.370 . S
C704 C706 1.363 . S
C704 H720 0.931 . S
C705 C704 1.370 . S
C705 C709 1.408 . S
C706 C704 1.363 . S
C706 C707 1.370 . S
C706 C710 1.524 1_556 S
C707 C699 1.503 . S
C707 C706 1.370 . S
C707 C708 1.403 . S
C708 C707 1.403 . S
C708 C709 1.404 . S
C708 C711 1.539 . S
C709 C705 1.408 . S
C709 C708 1.404 . S
C709 H721 0.930 . S
C710 C706 1.524 1_554 S
C710 H722 0.956 . S
C710 H723 0.961 . S
C710 H724 0.961 . S
C711 C708 1.539 . S
C711 H725 0.958 . S
C711 H726 0.961 . S
C711 H727 0.960 . S
H712 C696 0.931 . S
H713 C701 0.929 . S
H714 C702 0.960 1_556 S
H715 C702 0.962 . S
H716 C702 0.960 . S
H717 C703 0.961 . S
H718 C703 0.961 1_565 S
H719 C703 0.961 . S
H720 C704 0.931 . S
H721 C709 0.930 . S
H722 C710 0.956 . S
H723 C710 0.961 . S
H724 C710 0.961 . S
H725 C711 0.958 . S
H726 C711 0.961 . S
H727 C711 0.960 . S
C728 C729 1.391 1_455 S
C728 C730 1.394 . S
C728 H744 0.931 . S
C729 C728 1.391 1_655 S
C729 C733 1.376 . S
C730 C728 1.394 . S
C730 C731 1.369 . S
C730 C734 1.531 . S
C731 C730 1.369 . S
C731 C732 1.410 1_454 S
C731 C739 1.503 1_554 S
C732 C731 1.410 1_656 S
C732 C733 1.392 1_556 S
C732 C735 1.511 . S
C733 C729 1.376 . S
C733 C732 1.392 1_554 S
C733 H745 0.929 . S
C734 C730 1.531 . S
C734 H746 0.960 . S
C734 H747 0.962 . S
C734 H748 0.960 . S
C735 C732 1.511 . S
C735 H749 0.961 . S
C735 H750 0.961 1_655 S
C735 H751 0.961 . S
C736 C737 1.370 . S
C736 C738 1.363 . S
C736 H752 0.931 . S
C737 C736 1.370 . S
C737 C741 1.408 . S
C738 C736 1.363 . S
C738 C739 1.370 . S
C738 C742 1.524 1_556 S
C739 C731 1.503 1_556 S
C739 C738 1.370 . S
C739 C740 1.403 . S
C740 C739 1.403 . S
C740 C741 1.404 . S
C740 C743 1.539 . S
C741 C737 1.408 . S
C741 C740 1.404 . S
C741 H753 0.930 . S
C742 C738 1.524 1_554 S
C742 H754 0.956 . S
C742 H755 0.961 . S
C742 H756 0.961 . S
C743 C740 1.539 . S
C743 H757 0.958 . S
C743 H758 0.961 . S
C743 H759 0.960 . S
H744 C728 0.931 . S
H745 C733 0.929 . S
H746 C734 0.960 . S
H747 C734 0.962 . S
H748 C734 0.960 . S
H749 C735 0.961 . S
H750 C735 0.961 1_455 S
H751 C735 0.961 . S
H752 C736 0.931 . S
H753 C741 0.930 . S
H754 C742 0.956 . S
H755 C742 0.961 . S
H756 C742 0.961 . S
H757 C743 0.958 . S
H758 C743 0.961 . S
H759 C743 0.960 . S
C760 C761 1.391 . S
C760 C762 1.394 . S
C760 H776 0.931 . S
C761 C760 1.391 . S
C761 C765 1.376 . S
C762 C760 1.394 . S
C762 C763 1.369 . S
C762 C766 1.531 . S
C763 C762 1.369 . S
C763 C764 1.410 . S
C763 C771 1.503 1_556 S
C764 C763 1.410 . S
C764 C765 1.392 . S
C764 C767 1.511 1_556 S
C765 C761 1.376 . S
C765 C764 1.392 . S
C765 H777 0.929 . S
C766 C762 1.531 . S
C766 H778 0.960 . S
C766 H779 0.962 . S
C766 H780 0.960 . S
C767 C764 1.511 1_554 S
C767 H781 0.961 . S
C767 H782 0.961 . S
C767 H783 0.961 . S
C768 C769 1.370 . S
C768 C770 1.363 1_554 S
C768 H784 0.931 . S
C769 C768 1.370 . S
C769 C773 1.408 . S
C770 C768 1.363 1_556 S
C770 C771 1.370 1_556 S
C770 C774 1.524 . S
C771 C763 1.503 1_554 S
C771 C770 1.370 1_554 S
C771 C772 1.403 . S
C772 C771 1.403 . S
C772 C773 1.404 . S
C772 C775 1.539 . S
C773 C769 1.408 . S
C773 C772 1.404 . S
C773 H785 0.930 . S
C774 C770 1.524 . S
C774 H786 0.956 . S
C774 H787 0.961 . S
C774 H788 0.961 . S
C775 C772 1.539 . S
C775 H789 0.958 . S
C775 H790 0.961 . S
C775 H791 0.960 . S
H776 C760 0.931 . S
H777 C765 0.929 . S
H778 C766 0.960 . S
H779 C766 0.962 . S
H780 C766 0.960 . S
H781 C767 0.961 . S
H782 C767 0.961 . S
H783 C767 0.961 . S
H784 C768 0.931 . S
H785 C773 0.930 . S
H786 C774 0.956 . S
H787 C774 0.961 . S
H788 C774 0.961 . S
H789 C775 0.958 . S
H790 C775 0.961 . S
H791 C775 0.960 . S
C792 C793 1.391 . S
C792 C794 1.394 . S
C792 H808 0.931 . S
C793 C792 1.391 . S
C793 C797 1.376 . S
C794 C792 1.394 . S
C794 C795 1.369 . S
C794 C798 1.531 . S
C795 C794 1.369 . S
C795 C796 1.410 . S
C795 C803 1.503 . S
C796 C795 1.410 . S
C796 C797 1.392 . S
C796 C799 1.511 . S
C797 C793 1.376 . S
C797 C796 1.392 . S
C797 H809 0.929 . S
C798 C794 1.531 . S
C798 H810 0.960 . S
C798 H811 0.962 . S
C798 H812 0.960 . S
C799 C796 1.511 . S
C799 H813 0.961 . S
C799 H814 0.961 . S
C799 H815 0.961 . S
C800 C801 1.370 1_655 S
C800 C802 1.363 . S
C800 H816 0.931 . S
C801 C800 1.370 1_455 S
C801 C805 1.408 . S
C802 C800 1.363 . S
C802 C803 1.370 . S
C802 C806 1.524 . S
C803 C795 1.503 . S
C803 C802 1.370 . S
C803 C804 1.403 1_655 S
C804 C803 1.403 1_455 S
C804 C805 1.404 . S
C804 C807 1.539 . S
C805 C801 1.408 . S
C805 C804 1.404 . S
C805 H817 0.930 . S
C806 C802 1.524 . S
C806 H818 0.956 . S
C806 H819 0.961 . S
C806 H820 0.961 . S
C807 C804 1.539 . S
C807 H821 0.958 . S
C807 H822 0.961 . S
C807 H823 0.960 . S
H808 C792 0.931 . S
H809 C797 0.929 . S
H810 C798 0.960 . S
H811 C798 0.962 . S
H812 C798 0.960 . S
H813 C799 0.961 . S
H814 C799 0.961 . S
H815 C799 0.961 . S
H816 C800 0.931 . S
H817 C805 0.930 . S
H818 C806 0.956 . S
H819 C806 0.961 . S
H820 C806 0.961 . S
H821 C807 0.958 . S
H822 C807 0.961 . S
H823 C807 0.960 . S
C824 C825 1.391 . S
C824 C826 1.394 . S
C824 H840 0.931 . S
C825 C824 1.391 . S
C825 C829 1.376 . S
C826 C824 1.394 . S
C826 C827 1.369 . S
C826 C830 1.531 . S
C827 C826 1.369 . S
C827 C828 1.410 . S
C827 C835 1.503 . S
C828 C827 1.410 . S
C828 C829 1.392 . S
C828 C831 1.511 . S
C829 C825 1.376 . S
C829 C828 1.392 . S
C829 H841 0.929 . S
C830 C826 1.531 . S
C830 H842 0.960 . S
C830 H843 0.962 . S
C830 H844 0.960 . S
C831 C828 1.511 . S
C831 H845 0.961 . S
C831 H846 0.961 . S
C831 H847 0.961 . S
C832 C833 1.370 . S
C832 C834 1.363 . S
C832 H848 0.931 . S
C833 C832 1.370 . S
C833 C837 1.408 . S
C834 C832 1.363 . S
C834 C835 1.370 . S
C834 C838 1.524 . S
C835 C827 1.503 . S
C835 C834 1.370 . S
C835 C836 1.403 . S
C836 C835 1.403 . S
C836 C837 1.404 . S
C836 C839 1.539 . S
C837 C833 1.408 . S
C837 C836 1.404 . S
C837 H849 0.930 . S
C838 C834 1.524 . S
C838 H850 0.956 . S
C838 H851 0.961 . S
C838 H852 0.961 . S
C839 C836 1.539 . S
C839 H853 0.958 . S
C839 H854 0.961 . S
C839 H855 0.960 . S
H840 C824 0.931 . S
H841 C829 0.929 . S
H842 C830 0.960 . S
H843 C830 0.962 . S
H844 C830 0.960 . S
H845 C831 0.961 . S
H846 C831 0.961 . S
H847 C831 0.961 . S
H848 C832 0.931 . S
H849 C837 0.930 . S
H850 C838 0.956 . S
H851 C838 0.961 . S
H852 C838 0.961 . S
H853 C839 0.958 . S
H854 C839 0.961 . S
H855 C839 0.960 . S
C856 C857 1.391 . S
C856 C858 1.394 . S
C856 H872 0.931 . S
C857 C856 1.391 . S
C857 C861 1.376 . S
C858 C856 1.394 . S
C858 C859 1.369 . S
C858 C862 1.531 . S
C859 C858 1.369 . S
C859 C860 1.410 . S
C859 C867 1.503 . S
C860 C859 1.410 . S
C860 C861 1.392 . S
C860 C863 1.511 . S
C861 C857 1.376 . S
C861 C860 1.392 . S
C861 H873 0.929 . S
C862 C858 1.531 . S
C862 H874 0.960 . S
C862 H875 0.962 . S
C862 H876 0.960 . S
C863 C860 1.511 . S
C863 H877 0.961 . S
C863 H878 0.961 . S
C863 H879 0.961 . S
C864 C865 1.370 . S
C864 C866 1.361 1_565 S
C864 H880 0.931 . S
C865 C864 1.370 . S
C865 C869 1.359 1_565 S
C866 C864 1.361 1_545 S
C866 C867 1.374 . S
C866 C870 1.511 1_545 S
C867 C859 1.503 . S
C867 C866 1.374 . S
C867 C868 1.403 . S
C868 C867 1.403 . S
C868 C869 1.437 . S
C868 C871 1.539 . S
C869 C865 1.359 1_545 S
C869 C868 1.437 . S
C869 H881 0.927 . S
C870 C866 1.511 1_565 S
C870 H882 0.931 1_565 S
C870 H883 0.950 1_565 S
C870 H884 0.996 . S
C871 C868 1.539 . S
C871 H885 0.958 . S
C871 H886 0.961 . S
C871 H887 0.960 . S
H872 C856 0.931 . S
H873 C861 0.929 . S
H874 C862 0.960 . S
H875 C862 0.962 . S
H876 C862 0.960 . S
H877 C863 0.961 . S
H878 C863 0.961 . S
H879 C863 0.961 . S
H880 C864 0.931 . S
H881 C869 0.927 . S
H882 C870 0.931 1_545 S
H883 C870 0.950 1_545 S
H884 C870 0.996 . S
H885 C871 0.958 . S
H886 C871 0.961 . S
H887 C871 0.960 . S
C888 C889 1.391 . S
C888 C890 1.394 . S
C888 H904 0.931 . S
C889 C888 1.391 . S
C889 C893 1.376 . S
C890 C888 1.394 . S
C890 C891 1.369 . S
C890 C894 1.531 . S
C891 C890 1.369 . S
C891 C892 1.410 . S
C891 C899 1.503 . S
C892 C891 1.410 . S
C892 C893 1.392 . S
C892 C895 1.511 . S
C893 C889 1.376 . S
C893 C892 1.392 . S
C893 H905 0.929 . S
C894 C890 1.531 . S
C894 H906 0.960 . S
C894 H907 0.962 . S
C894 H908 0.960 . S
C895 C892 1.511 . S
C895 H909 0.961 . S
C895 H910 0.961 . S
C895 H911 0.961 . S
C896 C897 1.370 . S
C896 C898 1.363 . S
C896 H912 0.931 . S
C897 C896 1.370 . S
C897 C901 1.408 . S
C898 C896 1.363 . S
C898 C899 1.370 . S
C898 C902 1.524 . S
C899 C891 1.503 . S
C899 C898 1.370 . S
C899 C900 1.403 . S
C900 C899 1.403 . S
C900 C901 1.404 . S
C900 C903 1.539 . S
C901 C897 1.408 . S
C901 C900 1.404 . S
C901 H913 0.930 . S
C902 C898 1.524 . S
C902 H914 0.956 . S
C902 H915 0.961 . S
C902 H916 0.961 . S
C903 C900 1.539 . S
C903 H917 0.958 . S
C903 H918 0.961 . S
C903 H919 0.960 . S
H904 C888 0.931 . S
H905 C893 0.929 . S
H906 C894 0.960 . S
H907 C894 0.962 . S
H908 C894 0.960 . S
H909 C895 0.961 . S
H910 C895 0.961 . S
H911 C895 0.961 . S
H912 C896 0.931 . S
H913 C901 0.930 . S
H914 C902 0.956 . S
H915 C902 0.961 . S
H916 C902 0.961 . S
H917 C903 0.958 . S
H918 C903 0.961 . S
H919 C903 0.960 . S
C920 C921 1.391 . S
C920 C922 1.394 . S
C920 H936 0.931 . S
C921 C920 1.391 . S
C921 C925 1.376 . S
C922 C920 1.394 . S
C922 C923 1.369 . S
C922 C926 1.531 . S
C923 C922 1.369 . S
C923 C924 1.410 . S
C923 C931 1.503 . S
C924 C923 1.410 . S
C924 C925 1.392 . S
C924 C927 1.511 . S
C925 C921 1.376 . S
C925 C924 1.392 . S
C925 H937 0.929 . S
C926 C922 1.531 . S
C926 H938 0.960 . S
C926 H939 0.962 . S
C926 H940 0.960 . S
C927 C924 1.511 . S
C927 H941 0.961 . S
C927 H942 0.961 . S
C927 H943 0.961 . S
C928 C929 1.370 . S
C928 C930 1.363 . S
C928 H944 0.931 . S
C929 C928 1.370 . S
C929 C933 1.408 . S
C930 C928 1.363 . S
C930 C931 1.370 . S
C930 C934 1.524 . S
C931 C923 1.503 . S
C931 C930 1.370 . S
C931 C932 1.403 . S
C932 C931 1.403 . S
C932 C933 1.404 . S
C932 C935 1.539 . S
C933 C929 1.408 . S
C933 C932 1.404 . S
C933 H945 0.930 . S
C934 C930 1.524 . S
C934 H946 0.956 . S
C934 H947 0.961 . S
C934 H948 0.961 . S
C935 C932 1.539 . S
C935 H949 0.958 . S
C935 H950 0.961 . S
C935 H951 0.960 . S
H936 C920 0.931 . S
H937 C925 0.929 . S
H938 C926 0.960 . S
H939 C926 0.962 . S
H940 C926 0.960 . S
H941 C927 0.961 . S
H942 C927 0.961 . S
H943 C927 0.961 . S
H944 C928 0.931 . S
H945 C933 0.930 . S
H946 C934 0.956 . S
H947 C934 0.961 . S
H948 C934 0.961 . S
H949 C935 0.958 . S
H950 C935 0.961 . S
H951 C935 0.960 . S
C952 C953 1.391 . S
C952 C954 1.394 . S
C952 H968 0.931 . S
C953 C952 1.391 . S
C953 C957 1.376 . S
C954 C952 1.394 . S
C954 C955 1.369 . S
C954 C958 1.531 . S
C955 C954 1.369 . S
C955 C956 1.410 . S
C955 C963 1.503 . S
C956 C955 1.410 . S
C956 C957 1.392 . S
C956 C959 1.511 . S
C957 C953 1.376 . S
C957 C956 1.392 . S
C957 H969 0.929 . S
C958 C954 1.531 . S
C958 H970 0.960 . S
C958 H971 0.962 . S
C958 H972 0.960 . S
C959 C956 1.511 . S
C959 H973 0.961 . S
C959 H974 0.961 . S
C959 H975 0.961 . S
C960 C961 1.370 . S
C960 C962 1.363 . S
C960 H976 0.931 . S
C961 C960 1.370 . S
C961 C965 1.408 . S
C962 C960 1.363 . S
C962 C963 1.370 . S
C962 C966 1.524 . S
C963 C955 1.503 . S
C963 C962 1.370 . S
C963 C964 1.403 . S
C964 C963 1.403 . S
C964 C965 1.404 . S
C964 C967 1.539 . S
C965 C961 1.408 . S
C965 C964 1.404 . S
C965 H977 0.930 . S
C966 C962 1.524 . S
C966 H978 0.956 . S
C966 H979 0.961 . S
C966 H980 0.961 . S
C967 C964 1.539 . S
C967 H981 0.958 . S
C967 H982 0.961 . S
C967 H983 0.960 . S
H968 C952 0.931 . S
H969 C957 0.929 . S
H970 C958 0.960 . S
H971 C958 0.962 . S
H972 C958 0.960 . S
H973 C959 0.961 . S
H974 C959 0.961 . S
H975 C959 0.961 . S
H976 C960 0.931 . S
H977 C965 0.930 . S
H978 C966 0.956 . S
H979 C966 0.961 . S
H980 C966 0.961 . S
H981 C967 0.958 . S
H982 C967 0.961 . S
H983 C967 0.960 . S
C984 C985 1.391 . S
C984 C986 1.394 . S
C984 H1000 0.931 . S
C985 C984 1.391 . S
C985 C989 1.376 . S
C986 C984 1.394 . S
C986 C987 1.369 . S
C986 C990 1.531 . S
C987 C986 1.369 . S
C987 C988 1.410 . S
C987 C995 1.503 . S
C988 C987 1.410 . S
C988 C989 1.392 . S
C988 C991 1.511 . S
C989 C985 1.376 . S
C989 C988 1.392 . S
C989 H1001 0.929 . S
C990 C986 1.531 . S
C990 H1002 0.960 . S
C990 H1003 0.962 . S
C990 H1004 0.960 . S
C991 C988 1.511 . S
C991 H1005 0.961 . S
C991 H1006 0.961 . S
C991 H1007 0.961 . S
C992 C993 1.370 . S
C992 C994 1.363 . S
C992 H1008 0.931 . S
C993 C992 1.370 . S
C993 C997 1.408 . S
C994 C992 1.363 . S
C994 C995 1.370 . S
C994 C998 1.524 . S
C995 C987 1.503 . S
C995 C994 1.370 . S
C995 C996 1.403 . S
C996 C995 1.403 . S
C996 C997 1.404 . S
C996 C999 1.539 . S
C997 C993 1.408 . S
C997 C996 1.404 . S
C997 H1009 0.930 . S
C998 C994 1.524 . S
C998 H1010 0.956 . S
C998 H1011 0.961 . S
C998 H1012 0.961 . S
C999 C996 1.539 . S
C999 H1013 0.958 . S
C999 H1014 0.961 . S
C999 H1015 0.960 . S
H1000 C984 0.931 . S
H1001 C989 0.929 . S
H1002 C990 0.960 . S
H1003 C990 0.962 . S
H1004 C990 0.960 . S
H1005 C991 0.961 . S
H1006 C991 0.961 . S
H1007 C991 0.961 . S
H1008 C992 0.931 . S
H1009 C997 0.930 . S
H1010 C998 0.956 . S
H1011 C998 0.961 . S
H1012 C998 0.961 . S
H1013 C999 0.958 . S
H1014 C999 0.961 . S
H1015 C999 0.960 . S
C1016 C1017 1.391 . S
C1016 C1018 1.394 . S
C1016 H1032 0.931 . S
C1017 C1016 1.391 . S
C1017 C1021 1.376 . S
C1018 C1016 1.394 . S
C1018 C1019 1.369 . S
C1018 C1022 1.531 . S
C1019 C1018 1.369 . S
C1019 C1020 1.410 . S
C1019 C1027 1.503 . S
C1020 C1019 1.410 . S
C1020 C1021 1.392 . S
C1020 C1023 1.511 . S
C1021 C1017 1.376 . S
C1021 C1020 1.392 . S
C1021 H1033 0.929 . S
C1022 C1018 1.531 . S
C1022 H1034 0.960 . S
C1022 H1035 0.962 . S
C1022 H1036 0.960 . S
C1023 C1020 1.511 . S
C1023 H1037 0.961 . S
C1023 H1038 0.961 . S
C1023 H1039 0.961 . S
C1024 C1025 1.370 . S
C1024 C1026 1.363 . S
C1024 H1040 0.931 . S
C1025 C1024 1.370 . S
C1025 C1029 1.408 . S
C1026 C1024 1.363 . S
C1026 C1027 1.370 . S
C1026 C1030 1.524 . S
C1027 C1019 1.503 . S
C1027 C1026 1.370 . S
C1027 C1028 1.403 . S
C1028 C1027 1.403 . S
C1028 C1029 1.404 . S
C1028 C1031 1.539 . S
C1029 C1025 1.408 . S
C1029 C1028 1.404 . S
C1029 H1041 0.930 . S
C1030 C1026 1.524 . S
C1030 H1042 0.956 . S
C1030 H1043 0.961 . S
C1030 H1044 0.961 . S
C1031 C1028 1.539 . S
C1031 H1045 0.958 . S
C1031 H1046 0.961 . S
C1031 H1047 0.960 . S
H1032 C1016 0.931 . S
H1033 C1021 0.929 . S
H1034 C1022 0.960 . S
H1035 C1022 0.962 . S
H1036 C1022 0.960 . S
H1037 C1023 0.961 . S
H1038 C1023 0.961 . S
H1039 C1023 0.961 . S
H1040 C1024 0.931 . S
H1041 C1029 0.930 . S
H1042 C1030 0.956 . S
H1043 C1030 0.961 . S
H1044 C1030 0.961 . S
H1045 C1031 0.958 . S
H1046 C1031 0.961 . S
H1047 C1031 0.960 . S
C1048 C1049 1.391 . S
C1048 C1050 1.394 . S
C1048 H1064 0.931 . S
C1049 C1048 1.391 . S
C1049 C1053 1.376 . S
C1050 C1048 1.394 . S
C1050 C1051 1.369 . S
C1050 C1054 1.531 . S
C1051 C1050 1.369 . S
C1051 C1052 1.410 . S
C1051 C1059 1.503 . S
C1052 C1051 1.410 . S
C1052 C1053 1.392 . S
C1052 C1055 1.511 . S
C1053 C1049 1.376 . S
C1053 C1052 1.392 . S
C1053 H1065 0.929 . S
C1054 C1050 1.531 . S
C1054 H1066 0.960 . S
C1054 H1067 0.962 . S
C1054 H1068 0.960 . S
C1055 C1052 1.511 . S
C1055 H1069 0.961 . S
C1055 H1070 0.961 . S
C1055 H1071 0.961 . S
C1056 C1057 1.370 . S
C1056 C1058 1.363 . S
C1056 H1072 0.931 . S
C1057 C1056 1.370 . S
C1057 C1061 1.408 . S
C1058 C1056 1.363 . S
C1058 C1059 1.370 . S
C1058 C1062 1.524 . S
C1059 C1051 1.503 . S
C1059 C1058 1.370 . S
C1059 C1060 1.403 . S
C1060 C1059 1.403 . S
C1060 C1061 1.404 . S
C1060 C1063 1.539 . S
C1061 C1057 1.408 . S
C1061 C1060 1.404 . S
C1061 H1073 0.930 . S
C1062 C1058 1.524 . S
C1062 H1074 0.956 . S
C1062 H1075 0.961 . S
C1062 H1076 0.961 . S
C1063 C1060 1.539 . S
C1063 H1077 0.958 . S
C1063 H1078 0.961 . S
C1063 H1079 0.960 . S
H1064 C1048 0.931 . S
H1065 C1053 0.929 . S
H1066 C1054 0.960 . S
H1067 C1054 0.962 . S
H1068 C1054 0.960 . S
H1069 C1055 0.961 . S
H1070 C1055 0.961 . S
H1071 C1055 0.961 . S
H1072 C1056 0.931 . S
H1073 C1061 0.930 . S
H1074 C1062 0.956 . S
H1075 C1062 0.961 . S
H1076 C1062 0.961 . S
H1077 C1063 0.958 . S
H1078 C1063 0.961 . S
H1079 C1063 0.960 . S
C1080 C1081 1.391 . S
C1080 C1082 1.394 . S
C1080 H1096 0.931 . S
C1081 C1080 1.391 . S
C1081 C1085 1.376 . S
C1082 C1080 1.394 . S
C1082 C1083 1.369 . S
C1082 C1086 1.531 . S
C1083 C1082 1.369 . S
C1083 C1084 1.410 . S
C1083 C1091 1.503 . S
C1084 C1083 1.410 . S
C1084 C1085 1.392 . S
C1084 C1087 1.511 . S
C1085 C1081 1.376 . S
C1085 C1084 1.392 . S
C1085 H1097 0.929 . S
C1086 C1082 1.531 . S
C1086 H1098 0.960 . S
C1086 H1099 0.962 . S
C1086 H1100 0.960 . S
C1087 C1084 1.511 . S
C1087 H1101 0.961 . S
C1087 H1102 0.961 . S
C1087 H1103 0.961 . S
C1088 C1089 1.370 . S
C1088 C1090 1.363 . S
C1088 H1104 0.931 . S
C1089 C1088 1.370 . S
C1089 C1093 1.408 . S
C1090 C1088 1.363 . S
C1090 C1091 1.370 . S
C1090 C1094 1.524 . S
C1091 C1083 1.503 . S
C1091 C1090 1.370 . S
C1091 C1092 1.403 . S
C1092 C1091 1.403 . S
C1092 C1093 1.404 . S
C1092 C1095 1.539 . S
C1093 C1089 1.408 . S
C1093 C1092 1.404 . S
C1093 H1105 0.930 . S
C1094 C1090 1.524 . S
C1094 H1106 0.956 . S
C1094 H1107 0.961 . S
C1094 H1108 0.961 . S
C1095 C1092 1.539 . S
C1095 H1109 0.958 . S
C1095 H1110 0.961 . S
C1095 H1111 0.960 . S
H1096 C1080 0.931 . S
H1097 C1085 0.929 . S
H1098 C1086 0.960 . S
H1099 C1086 0.962 . S
H1100 C1086 0.960 . S
H1101 C1087 0.961 . S
H1102 C1087 0.961 . S
H1103 C1087 0.961 . S
H1104 C1088 0.931 . S
H1105 C1093 0.930 . S
H1106 C1094 0.956 . S
H1107 C1094 0.961 . S
H1108 C1094 0.961 . S
H1109 C1095 0.958 . S
H1110 C1095 0.961 . S
H1111 C1095 0.960 . S
C1112 C1113 1.391 . S
C1112 C1114 1.394 . S
C1112 H1128 0.931 . S
C1113 C1112 1.391 . S
C1113 C1117 1.376 . S
C1114 C1112 1.394 . S
C1114 C1115 1.369 . S
C1114 C1118 1.531 . S
C1115 C1114 1.369 . S
C1115 C1116 1.410 . S
C1115 C1123 1.503 . S
C1116 C1115 1.410 . S
C1116 C1117 1.392 . S
C1116 C1119 1.511 . S
C1117 C1113 1.376 . S
C1117 C1116 1.392 . S
C1117 H1129 0.929 . S
C1118 C1114 1.531 . S
C1118 H1130 0.960 . S
C1118 H1131 0.962 . S
C1118 H1132 0.960 . S
C1119 C1116 1.511 . S
C1119 H1133 0.961 . S
C1119 H1134 0.961 . S
C1119 H1135 0.961 . S
C1120 C1121 1.370 . S
C1120 C1122 1.363 . S
C1120 H1136 0.931 . S
C1121 C1120 1.370 . S
C1121 C1125 1.408 . S
C1122 C1120 1.363 . S
C1122 C1123 1.370 . S
C1122 C1126 1.524 . S
C1123 C1115 1.503 . S
C1123 C1122 1.370 . S
C1123 C1124 1.403 . S
C1124 C1123 1.403 . S
C1124 C1125 1.404 . S
C1124 C1127 1.539 . S
C1125 C1121 1.408 . S
C1125 C1124 1.404 . S
C1125 H1137 0.930 . S
C1126 C1122 1.524 . S
C1126 H1138 0.956 . S
C1126 H1139 0.961 . S
C1126 H1140 0.961 . S
C1127 C1124 1.539 . S
C1127 H1141 0.958 . S
C1127 H1142 0.961 . S
C1127 H1143 0.960 . S
H1128 C1112 0.931 . S
H1129 C1117 0.929 . S
H1130 C1118 0.960 . S
H1131 C1118 0.962 . S
H1132 C1118 0.960 . S
H1133 C1119 0.961 . S
H1134 C1119 0.961 . S
H1135 C1119 0.961 . S
H1136 C1120 0.931 . S
H1137 C1125 0.930 . S
H1138 C1126 0.956 . S
H1139 C1126 0.961 . S
H1140 C1126 0.961 . S
H1141 C1127 0.958 . S
H1142 C1127 0.961 . S
H1143 C1127 0.960 . S
C1144 C1145 1.391 . S
C1144 C1146 1.394 . S
C1144 H1160 0.931 . S
C1145 C1144 1.391 . S
C1145 C1149 1.376 . S
C1146 C1144 1.394 . S
C1146 C1147 1.369 . S
C1146 C1150 1.531 . S
C1147 C1146 1.369 . S
C1147 C1148 1.410 . S
C1147 C1155 1.503 . S
C1148 C1147 1.410 . S
C1148 C1149 1.392 . S
C1148 C1151 1.511 . S
C1149 C1145 1.376 . S
C1149 C1148 1.392 . S
C1149 H1161 0.929 . S
C1150 C1146 1.531 . S
C1150 H1162 0.960 . S
C1150 H1163 0.962 . S
C1150 H1164 0.960 . S
C1151 C1148 1.511 . S
C1151 H1165 0.961 . S
C1151 H1166 0.961 . S
C1151 H1167 0.961 . S
C1152 C1153 1.370 . S
C1152 C1154 1.363 . S
C1152 H1168 0.931 . S
C1153 C1152 1.370 . S
C1153 C1157 1.408 . S
C1154 C1152 1.363 . S
C1154 C1155 1.370 . S
C1154 C1158 1.524 . S
C1155 C1147 1.503 . S
C1155 C1154 1.370 . S
C1155 C1156 1.403 . S
C1156 C1155 1.403 . S
C1156 C1157 1.404 . S
C1156 C1159 1.539 . S
C1157 C1153 1.408 . S
C1157 C1156 1.404 . S
C1157 H1169 0.930 . S
C1158 C1154 1.524 . S
C1158 H1170 0.956 . S
C1158 H1171 0.961 . S
C1158 H1172 0.961 . S
C1159 C1156 1.539 . S
C1159 H1173 0.958 . S
C1159 H1174 0.961 . S
C1159 H1175 0.960 . S
H1160 C1144 0.931 . S
H1161 C1149 0.929 . S
H1162 C1150 0.960 . S
H1163 C1150 0.962 . S
H1164 C1150 0.960 . S
H1165 C1151 0.961 . S
H1166 C1151 0.961 . S
H1167 C1151 0.961 . S
H1168 C1152 0.931 . S
H1169 C1157 0.930 . S
H1170 C1158 0.956 . S
H1171 C1158 0.961 . S
H1172 C1158 0.961 . S
H1173 C1159 0.958 . S
H1174 C1159 0.961 . S
H1175 C1159 0.960 . S
C1176 C1177 1.391 . S
C1176 C1178 1.394 . S
C1176 H1192 0.931 . S
C1177 C1176 1.391 . S
C1177 C1181 1.376 . S
C1178 C1176 1.394 . S
C1178 C1179 1.369 . S
C1178 C1182 1.531 . S
C1179 C1178 1.369 . S
C1179 C1180 1.410 . S
C1179 C1187 1.503 . S
C1180 C1179 1.410 . S
C1180 C1181 1.392 . S
C1180 C1183 1.511 . S
C1181 C1177 1.376 . S
C1181 C1180 1.392 . S
C1181 H1193 0.929 . S
C1182 C1178 1.531 . S
C1182 H1194 0.960 . S
C1182 H1195 0.962 . S
C1182 H1196 0.960 . S
C1183 C1180 1.511 . S
C1183 H1197 0.961 . S
C1183 H1198 0.961 . S
C1183 H1199 0.961 . S
C1184 C1185 1.370 . S
C1184 C1186 1.363 . S
C1184 H1200 0.931 . S
C1185 C1184 1.370 . S
C1185 C1189 1.408 . S
C1186 C1184 1.363 . S
C1186 C1187 1.370 . S
C1186 C1190 1.524 . S
C1187 C1179 1.503 . S
C1187 C1186 1.370 . S
C1187 C1188 1.403 . S
C1188 C1187 1.403 . S
C1188 C1189 1.404 . S
C1188 C1191 1.539 . S
C1189 C1185 1.408 . S
C1189 C1188 1.404 . S
C1189 H1201 0.930 . S
C1190 C1186 1.524 . S
C1190 H1202 0.956 . S
C1190 H1203 0.961 . S
C1190 H1204 0.961 . S
C1191 C1188 1.539 . S
C1191 H1205 0.958 . S
C1191 H1206 0.961 . S
C1191 H1207 0.960 . S
H1192 C1176 0.931 . S
H1193 C1181 0.929 . S
H1194 C1182 0.960 . S
H1195 C1182 0.962 . S
H1196 C1182 0.960 . S
H1197 C1183 0.961 . S
H1198 C1183 0.961 . S
H1199 C1183 0.961 . S
H1200 C1184 0.931 . S
H1201 C1189 0.930 . S
H1202 C1190 0.956 . S
H1203 C1190 0.961 . S
H1204 C1190 0.961 . S
H1205 C1191 0.958 . S
H1206 C1191 0.961 . S
H1207 C1191 0.960 . S
C1208 C1209 1.391 . S
C1208 C1210 1.394 . S
C1208 H1224 0.931 . S
C1209 C1208 1.391 . S
C1209 C1213 1.376 . S
C1210 C1208 1.394 . S
C1210 C1211 1.369 . S
C1210 C1214 1.531 . S
C1211 C1210 1.369 . S
C1211 C1212 1.410 . S
C1211 C1219 1.503 . S
C1212 C1211 1.410 . S
C1212 C1213 1.392 . S
C1212 C1215 1.511 . S
C1213 C1209 1.376 . S
C1213 C1212 1.392 . S
C1213 H1225 0.929 . S
C1214 C1210 1.531 . S
C1214 H1226 0.960 . S
C1214 H1227 0.962 . S
C1214 H1228 0.960 . S
C1215 C1212 1.511 . S
C1215 H1229 0.961 . S
C1215 H1230 0.961 . S
C1215 H1231 0.961 . S
C1216 C1217 1.370 . S
C1216 C1218 1.363 . S
C1216 H1232 0.931 . S
C1217 C1216 1.370 . S
C1217 C1221 1.408 . S
C1218 C1216 1.363 . S
C1218 C1219 1.370 . S
C1218 C1222 1.524 . S
C1219 C1211 1.503 . S
C1219 C1218 1.370 . S
C1219 C1220 1.403 . S
C1220 C1219 1.403 . S
C1220 C1221 1.404 . S
C1220 C1223 1.539 . S
C1221 C1217 1.408 . S
C1221 C1220 1.404 . S
C1221 H1233 0.930 . S
C1222 C1218 1.524 . S
C1222 H1234 0.956 . S
C1222 H1235 0.961 . S
C1222 H1236 0.961 . S
C1223 C1220 1.539 . S
C1223 H1237 0.958 . S
C1223 H1238 0.961 . S
C1223 H1239 0.960 . S
H1224 C1208 0.931 . S
H1225 C1213 0.929 . S
H1226 C1214 0.960 . S
H1227 C1214 0.962 . S
H1228 C1214 0.960 . S
H1229 C1215 0.961 . S
H1230 C1215 0.961 . S
H1231 C1215 0.961 . S
H1232 C1216 0.931 . S
H1233 C1221 0.930 . S
H1234 C1222 0.956 . S
H1235 C1222 0.961 . S
H1236 C1222 0.961 . S
H1237 C1223 0.958 . S
H1238 C1223 0.961 . S
H1239 C1223 0.960 . S
C1240 C1241 1.391 . S
C1240 C1242 1.394 . S
C1240 H1256 0.931 . S
C1241 C1240 1.391 . S
C1241 C1245 1.376 . S
C1242 C1240 1.394 . S
C1242 C1243 1.369 . S
C1242 C1246 1.531 . S
C1243 C1242 1.369 . S
C1243 C1244 1.410 . S
C1243 C1251 1.503 . S
C1244 C1243 1.410 . S
C1244 C1245 1.392 . S
C1244 C1247 1.511 . S
C1245 C1241 1.376 . S
C1245 C1244 1.392 . S
C1245 H1257 0.929 . S
C1246 C1242 1.531 . S
C1246 H1258 0.960 . S
C1246 H1259 0.962 . S
C1246 H1260 0.960 . S
C1247 C1244 1.511 . S
C1247 H1261 0.961 . S
C1247 H1262 0.961 . S
C1247 H1263 0.961 . S
C1248 C1249 1.370 . S
C1248 C1250 1.363 . S
C1248 H1264 0.931 . S
C1249 C1248 1.370 . S
C1249 C1253 1.408 . S
C1250 C1248 1.363 . S
C1250 C1251 1.370 . S
C1250 C1254 1.524 . S
C1251 C1243 1.503 . S
C1251 C1250 1.370 . S
C1251 C1252 1.403 . S
C1252 C1251 1.403 . S
C1252 C1253 1.404 . S
C1252 C1255 1.539 . S
C1253 C1249 1.408 . S
C1253 C1252 1.404 . S
C1253 H1265 0.930 . S
C1254 C1250 1.524 . S
C1254 H1266 0.956 . S
C1254 H1267 0.961 . S
C1254 H1268 0.961 . S
C1255 C1252 1.539 . S
C1255 H1269 0.958 . S
C1255 H1270 0.961 . S
C1255 H1271 0.960 . S
H1256 C1240 0.931 . S
H1257 C1245 0.929 . S
H1258 C1246 0.960 . S
H1259 C1246 0.962 . S
H1260 C1246 0.960 . S
H1261 C1247 0.961 . S
H1262 C1247 0.961 . S
H1263 C1247 0.961 . S
H1264 C1248 0.931 . S
H1265 C1253 0.930 . S
H1266 C1254 0.956 . S
H1267 C1254 0.961 . S
H1268 C1254 0.961 . S
H1269 C1255 0.958 . S
H1270 C1255 0.961 . S
H1271 C1255 0.960 . S
C1272 C1273 1.391 . S
C1272 C1274 1.394 . S
C1272 H1288 0.931 . S
C1273 C1272 1.391 . S
C1273 C1277 1.376 . S
C1274 C1272 1.394 . S
C1274 C1275 1.369 . S
C1274 C1278 1.531 . S
C1275 C1274 1.369 . S
C1275 C1276 1.410 . S
C1275 C1283 1.503 . S
C1276 C1275 1.410 . S
C1276 C1277 1.392 . S
C1276 C1279 1.511 . S
C1277 C1273 1.376 . S
C1277 C1276 1.392 . S
C1277 H1289 0.929 . S
C1278 C1274 1.531 . S
C1278 H1290 0.960 . S
C1278 H1291 0.962 . S
C1278 H1292 0.960 . S
C1279 C1276 1.511 . S
C1279 H1293 0.961 . S
C1279 H1294 0.961 . S
C1279 H1295 0.961 . S
C1280 C1281 1.370 . S
C1280 C1282 1.363 . S
C1280 H1296 0.931 . S
C1281 C1280 1.370 . S
C1281 C1285 1.408 . S
C1282 C1280 1.363 . S
C1282 C1283 1.370 . S
C1282 C1286 1.524 . S
C1283 C1275 1.503 . S
C1283 C1282 1.370 . S
C1283 C1284 1.403 . S
C1284 C1283 1.403 . S
C1284 C1285 1.404 . S
C1284 C1287 1.539 . S
C1285 C1281 1.408 . S
C1285 C1284 1.404 . S
C1285 H1297 0.930 . S
C1286 C1282 1.524 . S
C1286 H1298 0.956 . S
C1286 H1299 0.961 . S
C1286 H1300 0.961 . S
C1287 C1284 1.539 . S
C1287 H1301 0.958 . S
C1287 H1302 0.961 . S
C1287 H1303 0.960 . S
H1288 C1272 0.931 . S
H1289 C1277 0.929 . S
H1290 C1278 0.960 . S
H1291 C1278 0.962 . S
H1292 C1278 0.960 . S
H1293 C1279 0.961 . S
H1294 C1279 0.961 . S
H1295 C1279 0.961 . S
H1296 C1280 0.931 . S
H1297 C1285 0.930 . S
H1298 C1286 0.956 . S
H1299 C1286 0.961 . S
H1300 C1286 0.961 . S
H1301 C1287 0.958 . S
H1302 C1287 0.961 . S
H1303 C1287 0.960 . S
C1304 C1305 1.391 . S
C1304 C1306 1.394 . S
C1304 H1320 0.931 . S
C1305 C1304 1.391 . S
C1305 C1309 1.376 . S
C1306 C1304 1.394 . S
C1306 C1307 1.369 . S
C1306 C1310 1.531 . S
C1307 C1306 1.369 . S
C1307 C1308 1.410 . S
C1307 C1315 1.503 . S
C1308 C1307 1.410 . S
C1308 C1309 1.392 . S
C1308 C1311 1.511 . S
C1309 C1305 1.376 . S
C1309 C1308 1.392 . S
C1309 H1321 0.929 . S
C1310 C1306 1.531 . S
C1310 H1322 0.960 . S
C1310 H1323 0.962 . S
C1310 H1324 0.960 . S
C1311 C1308 1.511 . S
C1311 H1325 0.961 . S
C1311 H1326 0.961 . S
C1311 H1327 0.961 . S
C1312 C1313 1.370 . S
C1312 C1314 1.363 . S
C1312 H1328 0.931 . S
C1313 C1312 1.370 . S
C1313 C1317 1.408 . S
C1314 C1312 1.363 . S
C1314 C1315 1.370 . S
C1314 C1318 1.524 . S
C1315 C1307 1.503 . S
C1315 C1314 1.370 . S
C1315 C1316 1.403 . S
C1316 C1315 1.403 . S
C1316 C1317 1.404 . S
C1316 C1319 1.539 . S
C1317 C1313 1.408 . S
C1317 C1316 1.404 . S
C1317 H1329 0.930 . S
C1318 C1314 1.524 . S
C1318 H1330 0.956 . S
C1318 H1331 0.961 . S
C1318 H1332 0.961 . S
C1319 C1316 1.539 . S
C1319 H1333 0.958 . S
C1319 H1334 0.961 . S
C1319 H1335 0.960 . S
H1320 C1304 0.931 . S
H1321 C1309 0.929 . S
H1322 C1310 0.960 . S
H1323 C1310 0.962 . S
H1324 C1310 0.960 . S
H1325 C1311 0.961 . S
H1326 C1311 0.961 . S
H1327 C1311 0.961 . S
H1328 C1312 0.931 . S
H1329 C1317 0.930 . S
H1330 C1318 0.956 . S
H1331 C1318 0.961 . S
H1332 C1318 0.961 . S
H1333 C1319 0.958 . S
H1334 C1319 0.961 . S
H1335 C1319 0.960 . S
C1336 C1337 1.391 . S
C1336 C1338 1.394 . S
C1336 H1352 0.931 . S
C1337 C1336 1.391 . S
C1337 C1341 1.376 . S
C1338 C1336 1.394 . S
C1338 C1339 1.369 . S
C1338 C1342 1.531 . S
C1339 C1338 1.369 . S
C1339 C1340 1.410 . S
C1339 C1347 1.503 . S
C1340 C1339 1.410 . S
C1340 C1341 1.392 . S
C1340 C1343 1.511 . S
C1341 C1337 1.376 . S
C1341 C1340 1.392 . S
C1341 H1353 0.929 . S
C1342 C1338 1.531 . S
C1342 H1354 0.960 . S
C1342 H1355 0.962 . S
C1342 H1356 0.960 . S
C1343 C1340 1.511 . S
C1343 H1357 0.961 . S
C1343 H1358 0.961 . S
C1343 H1359 0.961 . S
C1344 C1345 1.370 . S
C1344 C1346 1.363 . S
C1344 H1360 0.931 . S
C1345 C1344 1.370 . S
C1345 C1349 1.408 . S
C1346 C1344 1.363 . S
C1346 C1347 1.370 . S
C1346 C1350 1.524 . S
C1347 C1339 1.503 . S
C1347 C1346 1.370 . S
C1347 C1348 1.403 . S
C1348 C1347 1.403 . S
C1348 C1349 1.404 . S
C1348 C1351 1.539 . S
C1349 C1345 1.408 . S
C1349 C1348 1.404 . S
C1349 H1361 0.930 . S
C1350 C1346 1.524 . S
C1350 H1362 0.956 . S
C1350 H1363 0.961 . S
C1350 H1364 0.961 . S
C1351 C1348 1.539 . S
C1351 H1365 0.958 . S
C1351 H1366 0.961 . S
C1351 H1367 0.960 . S
H1352 C1336 0.931 . S
H1353 C1341 0.929 . S
H1354 C1342 0.960 . S
H1355 C1342 0.962 . S
H1356 C1342 0.960 . S
H1357 C1343 0.961 . S
H1358 C1343 0.961 . S
H1359 C1343 0.961 . S
H1360 C1344 0.931 . S
H1361 C1349 0.930 . S
H1362 C1350 0.956 . S
H1363 C1350 0.961 . S
H1364 C1350 0.961 . S
H1365 C1351 0.958 . S
H1366 C1351 0.961 . S
H1367 C1351 0.960 . S
C1368 C1369 1.391 . S
C1368 C1370 1.394 . S
C1368 H1384 0.931 . S
C1369 C1368 1.391 . S
C1369 C1373 1.376 . S
C1370 C1368 1.394 . S
C1370 C1371 1.369 . S
C1370 C1374 1.531 . S
C1371 C1370 1.369 . S
C1371 C1372 1.410 . S
C1371 C1379 1.503 . S
C1372 C1371 1.410 . S
C1372 C1373 1.392 . S
C1372 C1375 1.511 . S
C1373 C1369 1.376 . S
C1373 C1372 1.392 . S
C1373 H1385 0.929 . S
C1374 C1370 1.531 . S
C1374 H1386 0.960 . S
C1374 H1387 0.962 . S
C1374 H1388 0.960 . S
C1375 C1372 1.511 . S
C1375 H1389 0.961 . S
C1375 H1390 0.961 . S
C1375 H1391 0.961 . S
C1376 C1377 1.370 . S
C1376 C1378 1.363 . S
C1376 H1392 0.931 . S
C1377 C1376 1.370 . S
C1377 C1381 1.408 . S
C1378 C1376 1.363 . S
C1378 C1379 1.370 . S
C1378 C1382 1.524 . S
C1379 C1371 1.503 . S
C1379 C1378 1.370 . S
C1379 C1380 1.403 . S
C1380 C1379 1.403 . S
C1380 C1381 1.404 . S
C1380 C1383 1.539 . S
C1381 C1377 1.408 . S
C1381 C1380 1.404 . S
C1381 H1393 0.930 . S
C1382 C1378 1.524 . S
C1382 H1394 0.956 . S
C1382 H1395 0.961 . S
C1382 H1396 0.961 . S
C1383 C1380 1.539 . S
C1383 H1397 0.958 . S
C1383 H1398 0.961 . S
C1383 H1399 0.960 . S
H1384 C1368 0.931 . S
H1385 C1373 0.929 . S
H1386 C1374 0.960 . S
H1387 C1374 0.962 . S
H1388 C1374 0.960 . S
H1389 C1375 0.961 . S
H1390 C1375 0.961 . S
H1391 C1375 0.961 . S
H1392 C1376 0.931 . S
H1393 C1381 0.930 . S
H1394 C1382 0.956 . S
H1395 C1382 0.961 . S
H1396 C1382 0.961 . S
H1397 C1383 0.958 . S
H1398 C1383 0.961 . S
H1399 C1383 0.960 . S
C1400 C1401 1.391 . S
C1400 C1402 1.394 . S
C1400 H1416 0.931 . S
C1401 C1400 1.391 . S
C1401 C1405 1.376 . S
C1402 C1400 1.394 . S
C1402 C1403 1.369 . S
C1402 C1406 1.531 . S
C1403 C1402 1.369 . S
C1403 C1404 1.410 . S
C1403 C1411 1.503 . S
C1404 C1403 1.410 . S
C1404 C1405 1.392 . S
C1404 C1407 1.511 . S
C1405 C1401 1.376 . S
C1405 C1404 1.392 . S
C1405 H1417 0.929 . S
C1406 C1402 1.531 . S
C1406 H1418 0.960 . S
C1406 H1419 0.962 . S
C1406 H1420 0.960 . S
C1407 C1404 1.511 . S
C1407 H1421 0.961 . S
C1407 H1422 0.961 . S
C1407 H1423 0.961 . S
C1408 C1409 1.370 . S
C1408 C1410 1.363 . S
C1408 H1424 0.931 . S
C1409 C1408 1.370 . S
C1409 C1413 1.408 . S
C1410 C1408 1.363 . S
C1410 C1411 1.370 . S
C1410 C1414 1.524 . S
C1411 C1403 1.503 . S
C1411 C1410 1.370 . S
C1411 C1412 1.403 . S
C1412 C1411 1.403 . S
C1412 C1413 1.404 . S
C1412 C1415 1.539 . S
C1413 C1409 1.408 . S
C1413 C1412 1.404 . S
C1413 H1425 0.930 . S
C1414 C1410 1.524 . S
C1414 H1426 0.956 . S
C1414 H1427 0.961 . S
C1414 H1428 0.961 . S
C1415 C1412 1.539 . S
C1415 H1429 0.958 . S
C1415 H1430 0.961 . S
C1415 H1431 0.960 . S
H1416 C1400 0.931 . S
H1417 C1405 0.929 . S
H1418 C1406 0.960 . S
H1419 C1406 0.962 . S
H1420 C1406 0.960 . S
H1421 C1407 0.961 . S
H1422 C1407 0.961 . S
H1423 C1407 0.961 . S
H1424 C1408 0.931 . S
H1425 C1413 0.930 . S
H1426 C1414 0.956 . S
H1427 C1414 0.961 . S
H1428 C1414 0.961 . S
H1429 C1415 0.958 . S
H1430 C1415 0.961 . S
H1431 C1415 0.960 . S
C1432 C1433 1.391 . S
C1432 C1434 1.394 . S
C1432 H1448 0.931 . S
C1433 C1432 1.391 . S
C1433 C1437 1.376 . S
C1434 C1432 1.394 . S
C1434 C1435 1.369 . S
C1434 C1438 1.531 . S
C1435 C1434 1.369 . S
C1435 C1436 1.410 . S
C1435 C1443 1.503 . S
C1436 C1435 1.410 . S
C1436 C1437 1.392 . S
C1436 C1439 1.511 . S
C1437 C1433 1.376 . S
C1437 C1436 1.392 . S
C1437 H1449 0.929 . S
C1438 C1434 1.531 . S
C1438 H1450 0.960 . S
C1438 H1451 0.962 . S
C1438 H1452 0.960 . S
C1439 C1436 1.511 . S
C1439 H1453 0.961 . S
C1439 H1454 0.961 . S
C1439 H1455 0.961 . S
C1440 C1441 1.370 . S
C1440 C1442 1.363 . S
C1440 H1456 0.931 . S
C1441 C1440 1.370 . S
C1441 C1445 1.408 . S
C1442 C1440 1.363 . S
C1442 C1443 1.370 . S
C1442 C1446 1.524 . S
C1443 C1435 1.503 . S
C1443 C1442 1.370 . S
C1443 C1444 1.403 . S
C1444 C1443 1.403 . S
C1444 C1445 1.404 . S
C1444 C1447 1.539 . S
C1445 C1441 1.408 . S
C1445 C1444 1.404 . S
C1445 H1457 0.930 . S
C1446 C1442 1.524 . S
C1446 H1458 0.956 . S
C1446 H1459 0.961 . S
C1446 H1460 0.961 . S
C1447 C1444 1.539 . S
C1447 H1461 0.958 . S
C1447 H1462 0.961 . S
C1447 H1463 0.960 . S
H1448 C1432 0.931 . S
H1449 C1437 0.929 . S
H1450 C1438 0.960 . S
H1451 C1438 0.962 . S
H1452 C1438 0.960 . S
H1453 C1439 0.961 . S
H1454 C1439 0.961 . S
H1455 C1439 0.961 . S
H1456 C1440 0.931 . S
H1457 C1445 0.930 . S
H1458 C1446 0.956 . S
H1459 C1446 0.961 . S
H1460 C1446 0.961 . S
H1461 C1447 0.958 . S
H1462 C1447 0.961 . S
H1463 C1447 0.960 . S
C1464 C1465 1.391 . S
C1464 C1466 1.394 . S
C1464 H1480 0.931 . S
C1465 C1464 1.391 . S
C1465 C1469 1.376 . S
C1466 C1464 1.394 . S
C1466 C1467 1.369 . S
C1466 C1470 1.531 . S
C1467 C1466 1.369 . S
C1467 C1468 1.410 . S
C1467 C1475 1.503 . S
C1468 C1467 1.410 . S
C1468 C1469 1.392 . S
C1468 C1471 1.511 . S
C1469 C1465 1.376 . S
C1469 C1468 1.392 . S
C1469 H1481 0.929 . S
C1470 C1466 1.531 . S
C1470 H1482 0.960 . S
C1470 H1483 0.962 . S
C1470 H1484 0.960 . S
C1471 C1468 1.511 . S
C1471 H1485 0.961 . S
C1471 H1486 0.961 . S
C1471 H1487 0.961 . S
C1472 C1473 1.370 . S
C1472 C1474 1.363 . S
C1472 H1488 0.931 . S
C1473 C1472 1.370 . S
C1473 C1477 1.408 . S
C1474 C1472 1.363 . S
C1474 C1475 1.370 . S
C1474 C1478 1.524 . S
C1475 C1467 1.503 . S
C1475 C1474 1.370 . S
C1475 C1476 1.403 . S
C1476 C1475 1.403 . S
C1476 C1477 1.404 . S
C1476 C1479 1.539 . S
C1477 C1473 1.408 . S
C1477 C1476 1.404 . S
C1477 H1489 0.930 . S
C1478 C1474 1.524 . S
C1478 H1490 0.956 . S
C1478 H1491 0.961 . S
C1478 H1492 0.961 . S
C1479 C1476 1.539 . S
C1479 H1493 0.958 . S
C1479 H1494 0.961 . S
C1479 H1495 0.960 . S
H1480 C1464 0.931 . S
H1481 C1469 0.929 . S
H1482 C1470 0.960 . S
H1483 C1470 0.962 . S
H1484 C1470 0.960 . S
H1485 C1471 0.961 . S
H1486 C1471 0.961 . S
H1487 C1471 0.961 . S
H1488 C1472 0.931 . S
H1489 C1477 0.930 . S
H1490 C1478 0.956 . S
H1491 C1478 0.961 . S
H1492 C1478 0.961 . S
H1493 C1479 0.958 . S
H1494 C1479 0.961 . S
H1495 C1479 0.960 . S
C1496 C1497 1.391 . S
C1496 C1498 1.394 . S
C1496 H1512 0.931 . S
C1497 C1496 1.391 . S
C1497 C1501 1.376 . S
C1498 C1496 1.394 . S
C1498 C1499 1.369 . S
C1498 C1502 1.531 . S
C1499 C1498 1.369 . S
C1499 C1500 1.410 . S
C1499 C1507 1.503 . S
C1500 C1499 1.410 . S
C1500 C1501 1.392 . S
C1500 C1503 1.511 . S
C1501 C1497 1.376 . S
C1501 C1500 1.392 . S
C1501 H1513 0.929 . S
C1502 C1498 1.531 . S
C1502 H1514 0.960 . S
C1502 H1515 0.962 . S
C1502 H1516 0.960 . S
C1503 C1500 1.511 . S
C1503 H1517 0.961 . S
C1503 H1518 0.961 . S
C1503 H1519 0.961 . S
C1504 C1505 1.370 . S
C1504 C1506 1.363 . S
C1504 H1520 0.931 . S
C1505 C1504 1.370 . S
C1505 C1509 1.408 . S
C1506 C1504 1.363 . S
C1506 C1507 1.370 . S
C1506 C1510 1.524 . S
C1507 C1499 1.503 . S
C1507 C1506 1.370 . S
C1507 C1508 1.403 . S
C1508 C1507 1.403 . S
C1508 C1509 1.404 . S
C1508 C1511 1.539 . S
C1509 C1505 1.408 . S
C1509 C1508 1.404 . S
C1509 H1521 0.930 . S
C1510 C1506 1.524 . S
C1510 H1522 0.956 . S
C1510 H1523 0.961 . S
C1510 H1524 0.961 . S
C1511 C1508 1.539 . S
C1511 H1525 0.958 . S
C1511 H1526 0.961 . S
C1511 H1527 0.960 . S
H1512 C1496 0.931 . S
H1513 C1501 0.929 . S
H1514 C1502 0.960 . S
H1515 C1502 0.962 . S
H1516 C1502 0.960 . S
H1517 C1503 0.961 . S
H1518 C1503 0.961 . S
H1519 C1503 0.961 . S
H1520 C1504 0.931 . S
H1521 C1509 0.930 . S
H1522 C1510 0.956 . S
H1523 C1510 0.961 . S
H1524 C1510 0.961 . S
H1525 C1511 0.958 . S
H1526 C1511 0.961 . S
H1527 C1511 0.960 . S
C1528 C1529 1.391 . S
C1528 C1530 1.394 . S
C1528 H1544 0.931 . S
C1529 C1528 1.391 . S
C1529 C1533 1.376 . S
C1530 C1528 1.394 . S
C1530 C1531 1.369 . S
C1530 C1534 1.531 . S
C1531 C1530 1.369 . S
C1531 C1532 1.410 . S
C1531 C1539 1.503 . S
C1532 C1531 1.410 . S
C1532 C1533 1.392 . S
C1532 C1535 1.511 . S
C1533 C1529 1.376 . S
C1533 C1532 1.392 . S
C1533 H1545 0.929 . S
C1534 C1530 1.531 . S
C1534 H1546 0.960 . S
C1534 H1547 0.962 . S
C1534 H1548 0.960 . S
C1535 C1532 1.511 . S
C1535 H1549 0.961 . S
C1535 H1550 0.961 . S
C1535 H1551 0.961 . S
C1536 C1537 1.370 . S
C1536 C1538 1.363 . S
C1536 H1552 0.931 . S
C1537 C1536 1.370 . S
C1537 C1541 1.408 . S
C1538 C1536 1.363 . S
C1538 C1539 1.370 . S
C1538 C1542 1.524 . S
C1539 C1531 1.503 . S
C1539 C1538 1.370 . S
C1539 C1540 1.403 . S
C1540 C1539 1.403 . S
C1540 C1541 1.404 . S
C1540 C1543 1.539 . S
C1541 C1537 1.408 . S
C1541 C1540 1.404 . S
C1541 H1553 0.930 . S
C1542 C1538 1.524 . S
C1542 H1554 0.956 . S
C1542 H1555 0.961 . S
C1542 H1556 0.961 . S
C1543 C1540 1.539 . S
C1543 H1557 0.958 . S
C1543 H1558 0.961 . S
C1543 H1559 0.960 . S
H1544 C1528 0.931 . S
H1545 C1533 0.929 . S
H1546 C1534 0.960 . S
H1547 C1534 0.962 . S
H1548 C1534 0.960 . S
H1549 C1535 0.961 . S
H1550 C1535 0.961 . S
H1551 C1535 0.961 . S
H1552 C1536 0.931 . S
H1553 C1541 0.930 . S
H1554 C1542 0.956 . S
H1555 C1542 0.961 . S
H1556 C1542 0.961 . S
H1557 C1543 0.958 . S
H1558 C1543 0.961 . S
H1559 C1543 0.960 . S
C1560 C1561 1.391 . S
C1560 C1562 1.394 . S
C1560 H1576 0.931 . S
C1561 C1560 1.391 . S
C1561 C1565 1.376 . S
C1562 C1560 1.394 . S
C1562 C1563 1.369 . S
C1562 C1566 1.531 . S
C1563 C1562 1.369 . S
C1563 C1564 1.410 . S
C1563 C1571 1.503 . S
C1564 C1563 1.410 . S
C1564 C1565 1.392 . S
C1564 C1567 1.511 . S
C1565 C1561 1.376 . S
C1565 C1564 1.392 . S
C1565 H1577 0.929 . S
C1566 C1562 1.531 . S
C1566 H1578 0.960 . S
C1566 H1579 0.962 . S
C1566 H1580 0.960 . S
C1567 C1564 1.511 . S
C1567 H1581 0.961 . S
C1567 H1582 0.961 . S
C1567 H1583 0.961 . S
C1568 C1569 1.370 . S
C1568 C1570 1.363 . S
C1568 H1584 0.931 . S
C1569 C1568 1.370 . S
C1569 C1573 1.408 . S
C1570 C1568 1.363 . S
C1570 C1571 1.370 . S
C1570 C1574 1.524 . S
C1571 C1563 1.503 . S
C1571 C1570 1.370 . S
C1571 C1572 1.403 . S
C1572 C1571 1.403 . S
C1572 C1573 1.404 . S
C1572 C1575 1.539 . S
C1573 C1569 1.408 . S
C1573 C1572 1.404 . S
C1573 H1585 0.930 . S
C1574 C1570 1.524 . S
C1574 H1586 0.956 . S
C1574 H1587 0.961 . S
C1574 H1588 0.961 . S
C1575 C1572 1.539 . S
C1575 H1589 0.958 . S
C1575 H1590 0.961 . S
C1575 H1591 0.960 . S
H1576 C1560 0.931 . S
H1577 C1565 0.929 . S
H1578 C1566 0.960 . S
H1579 C1566 0.962 . S
H1580 C1566 0.960 . S
H1581 C1567 0.961 . S
H1582 C1567 0.961 . S
H1583 C1567 0.961 . S
H1584 C1568 0.931 . S
H1585 C1573 0.930 . S
H1586 C1574 0.956 . S
H1587 C1574 0.961 . S
H1588 C1574 0.961 . S
H1589 C1575 0.958 . S
H1590 C1575 0.961 . S
H1591 C1575 0.960 . S
C1592 C1593 1.391 . S
C1592 C1594 1.394 . S
C1592 H1608 0.931 . S
C1593 C1592 1.391 . S
C1593 C1597 1.376 . S
C1594 C1592 1.394 . S
C1594 C1595 1.369 . S
C1594 C1598 1.531 . S
C1595 C1594 1.369 . S
C1595 C1596 1.410 . S
C1595 C1603 1.503 . S
C1596 C1595 1.410 . S
C1596 C1597 1.392 . S
C1596 C1599 1.511 . S
C1597 C1593 1.376 . S
C1597 C1596 1.392 . S
C1597 H1609 0.929 . S
C1598 C1594 1.531 . S
C1598 H1610 0.960 . S
C1598 H1611 0.962 . S
C1598 H1612 0.960 . S
C1599 C1596 1.511 . S
C1599 H1613 0.961 . S
C1599 H1614 0.961 . S
C1599 H1615 0.961 . S
C1600 C1601 1.370 . S
C1600 C1602 1.363 . S
C1600 H1616 0.931 . S
C1601 C1600 1.370 . S
C1601 C1605 1.408 . S
C1602 C1600 1.363 . S
C1602 C1603 1.370 . S
C1602 C1606 1.524 . S
C1603 C1595 1.503 . S
C1603 C1602 1.370 . S
C1603 C1604 1.403 . S
C1604 C1603 1.403 . S
C1604 C1605 1.404 . S
C1604 C1607 1.539 . S
C1605 C1601 1.408 . S
C1605 C1604 1.404 . S
C1605 H1617 0.930 . S
C1606 C1602 1.524 . S
C1606 H1618 0.956 . S
C1606 H1619 0.961 . S
C1606 H1620 0.961 . S
C1607 C1604 1.539 . S
C1607 H1621 0.958 . S
C1607 H1622 0.961 . S
C1607 H1623 0.960 . S
H1608 C1592 0.931 . S
H1609 C1597 0.929 . S
H1610 C1598 0.960 . S
H1611 C1598 0.962 . S
H1612 C1598 0.960 . S
H1613 C1599 0.961 . S
H1614 C1599 0.961 . S
H1615 C1599 0.961 . S
H1616 C1600 0.931 . S
H1617 C1605 0.930 . S
H1618 C1606 0.956 . S
H1619 C1606 0.961 . S
H1620 C1606 0.961 . S
H1621 C1607 0.958 . S
H1622 C1607 0.961 . S
H1623 C1607 0.960 . S
C1624 C1625 1.391 . S
C1624 C1626 1.394 . S
C1624 H1640 0.931 . S
C1625 C1624 1.391 . S
C1625 C1629 1.376 . S
C1626 C1624 1.394 . S
C1626 C1627 1.369 . S
C1626 C1630 1.531 . S
C1627 C1626 1.369 . S
C1627 C1628 1.410 . S
C1627 C1635 1.503 . S
C1628 C1627 1.410 . S
C1628 C1629 1.392 . S
C1628 C1631 1.511 . S
C1629 C1625 1.376 . S
C1629 C1628 1.392 . S
C1629 H1641 0.929 . S
C1630 C1626 1.531 . S
C1630 H1642 0.960 . S
C1630 H1643 0.962 . S
C1630 H1644 0.960 . S
C1631 C1628 1.511 . S
C1631 H1645 0.961 . S
C1631 H1646 0.961 . S
C1631 H1647 0.961 . S
C1632 C1633 1.370 . S
C1632 C1634 1.363 . S
C1632 H1648 0.931 . S
C1633 C1632 1.370 . S
C1633 C1637 1.408 . S
C1634 C1632 1.363 . S
C1634 C1635 1.370 . S
C1634 C1638 1.524 . S
C1635 C1627 1.503 . S
C1635 C1634 1.370 . S
C1635 C1636 1.403 . S
C1636 C1635 1.403 . S
C1636 C1637 1.404 . S
C1636 C1639 1.539 . S
C1637 C1633 1.408 . S
C1637 C1636 1.404 . S
C1637 H1649 0.930 . S
C1638 C1634 1.524 . S
C1638 H1650 0.956 . S
C1638 H1651 0.961 . S
C1638 H1652 0.961 . S
C1639 C1636 1.539 . S
C1639 H1653 0.958 . S
C1639 H1654 0.961 . S
C1639 H1655 0.960 . S
H1640 C1624 0.931 . S
H1641 C1629 0.929 . S
H1642 C1630 0.960 . S
H1643 C1630 0.962 . S
H1644 C1630 0.960 . S
H1645 C1631 0.961 . S
H1646 C1631 0.961 . S
H1647 C1631 0.961 . S
H1648 C1632 0.931 . S
H1649 C1637 0.930 . S
H1650 C1638 0.956 . S
H1651 C1638 0.961 . S
H1652 C1638 0.961 . S
H1653 C1639 0.958 . S
H1654 C1639 0.961 . S
H1655 C1639 0.960 . S
C1656 C1657 1.391 . S
C1656 C1658 1.394 . S
C1656 H1672 0.931 . S
C1657 C1656 1.391 . S
C1657 C1661 1.376 . S
C1658 C1656 1.394 . S
C1658 C1659 1.369 . S
C1658 C1662 1.531 . S
C1659 C1658 1.369 . S
C1659 C1660 1.410 . S
C1659 C1667 1.503 . S
C1660 C1659 1.410 . S
C1660 C1661 1.392 . S
C1660 C1663 1.511 . S
C1661 C1657 1.376 . S
C1661 C1660 1.392 . S
C1661 H1673 0.929 . S
C1662 C1658 1.531 . S
C1662 H1674 0.960 . S
C1662 H1675 0.962 . S
C1662 H1676 0.960 . S
C1663 C1660 1.511 . S
C1663 H1677 0.961 . S
C1663 H1678 0.961 . S
C1663 H1679 0.961 . S
C1664 C1665 1.370 . S
C1664 C1666 1.363 . S
C1664 H1680 0.931 . S
C1665 C1664 1.370 . S
C1665 C1669 1.408 . S
C1666 C1664 1.363 . S
C1666 C1667 1.370 . S
C1666 C1670 1.524 . S
C1667 C1659 1.503 . S
C1667 C1666 1.370 . S
C1667 C1668 1.403 . S
C1668 C1667 1.403 . S
C1668 C1669 1.404 . S
C1668 C1671 1.539 . S
C1669 C1665 1.408 . S
C1669 C1668 1.404 . S
C1669 H1681 0.930 . S
C1670 C1666 1.524 . S
C1670 H1682 0.956 . S
C1670 H1683 0.961 . S
C1670 H1684 0.961 . S
C1671 C1668 1.539 . S
C1671 H1685 0.958 . S
C1671 H1686 0.961 . S
C1671 H1687 0.960 . S
H1672 C1656 0.931 . S
H1673 C1661 0.929 . S
H1674 C1662 0.960 . S
H1675 C1662 0.962 . S
H1676 C1662 0.960 . S
H1677 C1663 0.961 . S
H1678 C1663 0.961 . S
H1679 C1663 0.961 . S
H1680 C1664 0.931 . S
H1681 C1669 0.930 . S
H1682 C1670 0.956 . S
H1683 C1670 0.961 . S
H1684 C1670 0.961 . S
H1685 C1671 0.958 . S
H1686 C1671 0.961 . S
H1687 C1671 0.960 . S
C1688 C1689 1.391 . S
C1688 C1690 1.399 . S
C1688 H1704 0.931 . S
C1689 C1688 1.391 . S
C1689 C1693 1.376 . S
C1690 C1688 1.399 . S
C1690 C1691 1.372 . S
C1690 C1694 1.522 1_565 S
C1691 C1690 1.372 . S
C1691 C1692 1.410 . S
C1691 C1699 1.503 1_565 S
C1692 C1691 1.410 . S
C1692 C1693 1.392 . S
C1692 C1695 1.511 . S
C1693 C1689 1.376 . S
C1693 C1692 1.392 . S
C1693 H1705 0.929 . S
C1694 C1690 1.522 1_545 S
C1694 H1706 0.960 . S
C1694 H1707 0.962 . S
C1694 H1708 0.960 . S
C1695 C1692 1.511 . S
C1695 H1709 0.961 . S
C1695 H1710 0.961 . S
C1695 H1711 0.961 . S
C1696 C1697 1.370 . S
C1696 C1698 1.363 . S
C1696 H1712 0.931 . S
C1697 C1696 1.370 . S
C1697 C1701 1.408 . S
C1698 C1696 1.363 . S
C1698 C1699 1.370 . S
C1698 C1702 1.524 . S
C1699 C1691 1.503 1_545 S
C1699 C1698 1.370 . S
C1699 C1700 1.403 . S
C1700 C1699 1.403 . S
C1700 C1701 1.404 . S
C1700 C1703 1.539 . S
C1701 C1697 1.408 . S
C1701 C1700 1.404 . S
C1701 H1713 0.930 . S
C1702 C1698 1.524 . S
C1702 H1714 0.956 . S
C1702 H1715 0.961 1_545 S
C1702 H1716 0.961 . S
C1703 C1700 1.539 . S
C1703 H1717 0.958 . S
C1703 H1718 0.961 . S
C1703 H1719 0.960 1_545 S
H1704 C1688 0.931 . S
H1705 C1693 0.929 . S
H1706 C1694 0.960 . S
H1707 C1694 0.962 . S
H1708 C1694 0.960 . S
H1709 C1695 0.961 . S
H1710 C1695 0.961 . S
H1711 C1695 0.961 . S
H1712 C1696 0.931 . S
H1713 C1701 0.930 . S
H1714 C1702 0.956 . S
H1715 C1702 0.961 1_565 S
H1716 C1702 0.961 . S
H1717 C1703 0.958 . S
H1718 C1703 0.961 . S
H1719 C1703 0.960 1_565 S
C1720 C1721 1.391 . S
C1720 C1722 1.382 1_655 S
C1720 H1736 0.931 . S
C1721 C1720 1.391 . S
C1721 C1725 1.376 . S
C1722 C1720 1.382 1_455 S
C1722 C1723 1.360 1_455 S
C1722 C1726 1.552 . S
C1723 C1722 1.360 1_655 S
C1723 C1724 1.410 . S
C1723 C1731 1.503 1_655 S
C1724 C1723 1.410 . S
C1724 C1725 1.392 . S
C1724 C1727 1.511 . S
C1725 C1721 1.376 . S
C1725 C1724 1.392 . S
C1725 H1737 0.929 . S
C1726 C1722 1.552 . S
C1726 H1738 0.960 . S
C1726 H1739 0.962 . S
C1726 H1740 0.960 . S
C1727 C1724 1.511 . S
C1727 H1741 0.961 . S
C1727 H1742 0.961 . S
C1727 H1743 0.961 . S
C1728 C1729 1.370 . S
C1728 C1730 1.363 . S
C1728 H1744 0.931 . S
C1729 C1728 1.370 . S
C1729 C1733 1.408 . S
C1730 C1728 1.363 . S
C1730 C1731 1.370 . S
C1730 C1734 1.524 1_455 S
C1731 C1723 1.503 1_455 S
C1731 C1730 1.370 . S
C1731 C1732 1.403 . S
C1732 C1731 1.403 . S
C1732 C1733 1.404 . S
C1732 C1735 1.539 . S
C1733 C1729 1.408 . S
C1733 C1732 1.404 . S
C1733 H1745 0.930 . S
C1734 C1730 1.524 1_655 S
C1734 H1746 0.956 1_655 S
C1734 H1747 0.961 . S
C1734 H1748 0.933 1_655 S
C1735 C1732 1.539 . S
C1735 H1749 0.958 . S
C1735 H1750 0.961 . S
C1735 H1751 0.960 . S
H1736 C1720 0.931 . S
H1737 C1725 0.929 . S
H1738 C1726 0.960 . S
H1739 C1726 0.962 . S
H1740 C1726 0.960 . S
H1741 C1727 0.961 . S
H1742 C1727 0.961 . S
H1743 C1727 0.961 . S
H1744 C1728 0.931 . S
H1745 C1733 0.930 . S
H1746 C1734 0.956 1_455 S
H1747 C1734 0.961 . S
H1748 C1734 0.933 1_455 S
H1749 C1735 0.958 . S
H1750 C1735 0.961 . S
H1751 C1735 0.960 . S
C1752 C1753 1.391 . S
C1752 C1754 1.394 . S
C1752 H1768 0.931 . S
C1753 C1752 1.391 . S
C1753 C1757 1.376 . S
C1754 C1752 1.394 . S
C1754 C1755 1.369 . S
C1754 C1758 1.531 . S
C1755 C1754 1.369 . S
C1755 C1756 1.410 . S
C1755 C1763 1.503 . S
C1756 C1755 1.410 . S
C1756 C1757 1.392 . S
C1756 C1759 1.511 . S
C1757 C1753 1.376 . S
C1757 C1756 1.392 . S
C1757 H1769 0.929 . S
C1758 C1754 1.531 . S
C1758 H1770 0.960 . S
C1758 H1771 0.962 . S
C1758 H1772 0.960 . S
C1759 C1756 1.511 . S
C1759 H1773 0.961 . S
C1759 H1774 0.961 . S
C1759 H1775 0.961 . S
C1760 C1761 1.370 . S
C1760 C1762 1.363 . S
C1760 H1776 0.931 . S
C1761 C1760 1.370 . S
C1761 C1765 1.408 . S
C1762 C1760 1.363 . S
C1762 C1763 1.370 . S
C1762 C1766 1.524 . S
C1763 C1755 1.503 . S
C1763 C1762 1.370 . S
C1763 C1764 1.403 . S
C1764 C1763 1.403 . S
C1764 C1765 1.404 . S
C1764 C1767 1.539 . S
C1765 C1761 1.408 . S
C1765 C1764 1.404 . S
C1765 H1777 0.930 . S
C1766 C1762 1.524 . S
C1766 H1778 0.956 . S
C1766 H1779 0.961 . S
C1766 H1780 0.961 . S
C1767 C1764 1.539 . S
C1767 H1781 0.958 . S
C1767 H1782 0.961 . S
C1767 H1783 0.960 . S
H1768 C1752 0.931 . S
H1769 C1757 0.929 . S
H1770 C1758 0.960 . S
H1771 C1758 0.962 . S
H1772 C1758 0.960 . S
H1773 C1759 0.961 . S
H1774 C1759 0.961 . S
H1775 C1759 0.961 . S
H1776 C1760 0.931 . S
H1777 C1765 0.930 . S
H1778 C1766 0.956 . S
H1779 C1766 0.961 . S
H1780 C1766 0.961 . S
H1781 C1767 0.958 . S
H1782 C1767 0.961 . S
H1783 C1767 0.960 . S
C1784 C1785 1.391 . S
C1784 C1786 1.394 . S
C1784 H1800 0.931 . S
C1785 C1784 1.391 . S
C1785 C1789 1.376 . S
C1786 C1784 1.394 . S
C1786 C1787 1.369 . S
C1786 C1790 1.531 1_545 S
C1787 C1786 1.369 . S
C1787 C1788 1.410 . S
C1787 C1795 1.503 1_545 S
C1788 C1787 1.410 . S
C1788 C1789 1.392 . S
C1788 C1791 1.511 . S
C1789 C1785 1.376 . S
C1789 C1788 1.392 . S
C1789 H1801 0.929 . S
C1790 C1786 1.531 1_565 S
C1790 H1802 0.960 . S
C1790 H1803 0.962 . S
C1790 H1804 0.960 . S
C1791 C1788 1.511 . S
C1791 H1805 0.961 . S
C1791 H1806 0.961 . S
C1791 H1807 0.961 . S
C1792 C1793 1.370 . S
C1792 C1794 1.363 . S
C1792 H1808 0.931 . S
C1793 C1792 1.370 . S
C1793 C1797 1.408 . S
C1794 C1792 1.363 . S
C1794 C1795 1.370 . S
C1794 C1798 1.524 1_565 S
C1795 C1787 1.503 1_565 S
C1795 C1794 1.370 . S
C1795 C1796 1.403 . S
C1796 C1795 1.403 . S
C1796 C1797 1.404 . S
C1796 C1799 1.539 . S
C1797 C1793 1.408 . S
C1797 C1796 1.404 . S
C1797 H1809 0.930 . S
C1798 C1794 1.524 1_545 S
C1798 H1810 0.956 . S
C1798 H1811 0.961 . S
C1798 H1812 0.961 . S
C1799 C1796 1.539 . S
C1799 H1813 0.958 . S
C1799 H1814 0.961 . S
C1799 H1815 0.960 . S
H1800 C1784 0.931 . S
H1801 C1789 0.929 . S
H1802 C1790 0.960 . S
H1803 C1790 0.962 . S
H1804 C1790 0.960 . S
H1805 C1791 0.961 . S
H1806 C1791 0.961 . S
H1807 C1791 0.961 . S
H1808 C1792 0.931 . S
H1809 C1797 0.930 . S
H1810 C1798 0.956 . S
H1811 C1798 0.961 . S
H1812 C1798 0.961 . S
H1813 C1799 0.958 . S
H1814 C1799 0.961 . S
H1815 C1799 0.960 . S
C1816 C1817 1.391 . S
C1816 C1818 1.394 . S
C1816 H1832 0.931 . S
C1817 C1816 1.391 . S
C1817 C1821 1.376 . S
C1818 C1816 1.394 . S
C1818 C1819 1.369 . S
C1818 C1822 1.531 . S
C1819 C1818 1.369 . S
C1819 C1820 1.410 . S
C1819 C1827 1.503 1_655 S
C1820 C1819 1.410 . S
C1820 C1821 1.392 . S
C1820 C1823 1.511 . S
C1821 C1817 1.376 . S
C1821 C1820 1.392 . S
C1821 H1833 0.929 . S
C1822 C1818 1.531 . S
C1822 H1834 0.960 . S
C1822 H1835 0.962 1_655 S
C1822 H1836 0.960 . S
C1823 C1820 1.511 . S
C1823 H1837 0.961 . S
C1823 H1838 0.961 . S
C1823 H1839 0.961 . S
C1824 C1825 1.370 . S
C1824 C1826 1.363 . S
C1824 H1840 0.931 . S
C1825 C1824 1.370 . S
C1825 C1829 1.408 . S
C1826 C1824 1.363 . S
C1826 C1827 1.370 . S
C1826 C1830 1.524 . S
C1827 C1819 1.503 1_455 S
C1827 C1826 1.370 . S
C1827 C1828 1.403 1_455 S
C1828 C1827 1.403 1_655 S
C1828 C1829 1.404 1_655 S
C1828 C1831 1.539 . S
C1829 C1825 1.408 . S
C1829 C1828 1.404 1_455 S
C1829 H1841 0.930 . S
C1830 C1826 1.524 . S
C1830 H1842 0.956 . S
C1830 H1843 0.961 . S
C1830 H1844 0.961 . S
C1831 C1828 1.539 . S
C1831 H1845 0.958 . S
C1831 H1846 0.961 . S
C1831 H1847 0.960 . S
H1832 C1816 0.931 . S
H1833 C1821 0.929 . S
H1834 C1822 0.960 . S
H1835 C1822 0.962 1_455 S
H1836 C1822 0.960 . S
H1837 C1823 0.961 . S
H1838 C1823 0.961 . S
H1839 C1823 0.961 . S
H1840 C1824 0.931 . S
H1841 C1829 0.930 . S
H1842 C1830 0.956 . S
H1843 C1830 0.961 . S
H1844 C1830 0.961 . S
H1845 C1831 0.958 . S
H1846 C1831 0.961 . S
H1847 C1831 0.960 . S
C1848 C1849 1.391 . S
C1848 C1850 1.394 . S
C1848 H1864 0.931 . S
C1849 C1848 1.391 . S
C1849 C1853 1.376 . S
C1850 C1848 1.394 . S
C1850 C1851 1.369 . S
C1850 C1854 1.531 . S
C1851 C1850 1.369 . S
C1851 C1852 1.410 . S
C1851 C1859 1.503 . S
C1852 C1851 1.410 . S
C1852 C1853 1.392 . S
C1852 C1855 1.511 . S
C1853 C1849 1.376 . S
C1853 C1852 1.392 . S
C1853 H1865 0.929 . S
C1854 C1850 1.531 . S
C1854 H1866 0.960 . S
C1854 H1867 0.962 . S
C1854 H1868 0.960 . S
C1855 C1852 1.511 . S
C1855 H1869 0.961 . S
C1855 H1870 0.961 . S
C1855 H1871 0.961 . S
C1856 C1857 1.370 . S
C1856 C1858 1.363 . S
C1856 H1872 0.931 . S
C1857 C1856 1.370 . S
C1857 C1861 1.408 . S
C1858 C1856 1.363 . S
C1858 C1859 1.370 . S
C1858 C1862 1.524 . S
C1859 C1851 1.503 . S
C1859 C1858 1.370 . S
C1859 C1860 1.403 . S
C1860 C1859 1.403 . S
C1860 C1861 1.404 . S
C1860 C1863 1.539 . S
C1861 C1857 1.408 . S
C1861 C1860 1.404 . S
C1861 H1873 0.930 . S
C1862 C1858 1.524 . S
C1862 H1874 0.956 . S
C1862 H1875 0.961 . S
C1862 H1876 0.961 . S
C1863 C1860 1.539 . S
C1863 H1877 0.958 . S
C1863 H1878 0.961 . S
C1863 H1879 0.960 . S
H1864 C1848 0.931 . S
H1865 C1853 0.929 . S
H1866 C1854 0.960 . S
H1867 C1854 0.962 . S
H1868 C1854 0.960 . S
H1869 C1855 0.961 . S
H1870 C1855 0.961 . S
H1871 C1855 0.961 . S
H1872 C1856 0.931 . S
H1873 C1861 0.930 . S
H1874 C1862 0.956 . S
H1875 C1862 0.961 . S
H1876 C1862 0.961 . S
H1877 C1863 0.958 . S
H1878 C1863 0.961 . S
H1879 C1863 0.960 . S
C1880 C1881 1.391 . S
C1880 C1882 1.394 . S
C1880 H1896 0.931 . S
C1881 C1880 1.391 . S
C1881 C1885 1.376 . S
C1882 C1880 1.394 . S
C1882 C1883 1.369 . S
C1882 C1886 1.531 . S
C1883 C1882 1.369 . S
C1883 C1884 1.410 . S
C1883 C1891 1.503 . S
C1884 C1883 1.410 . S
C1884 C1885 1.392 . S
C1884 C1887 1.511 . S
C1885 C1881 1.376 . S
C1885 C1884 1.392 . S
C1885 H1897 0.929 . S
C1886 C1882 1.531 . S
C1886 H1898 0.960 . S
C1886 H1899 0.962 . S
C1886 H1900 0.960 . S
C1887 C1884 1.511 . S
C1887 H1901 0.961 . S
C1887 H1902 0.961 . S
C1887 H1903 0.961 . S
C1888 C1889 1.370 . S
C1888 C1890 1.363 . S
C1888 H1904 0.931 . S
C1889 C1888 1.370 . S
C1889 C1893 1.408 . S
C1890 C1888 1.363 . S
C1890 C1891 1.370 . S
C1890 C1894 1.524 . S
C1891 C1883 1.503 . S
C1891 C1890 1.370 . S
C1891 C1892 1.403 . S
C1892 C1891 1.403 . S
C1892 C1893 1.404 . S
C1892 C1895 1.539 . S
C1893 C1889 1.408 . S
C1893 C1892 1.404 . S
C1893 H1905 0.930 . S
C1894 C1890 1.524 . S
C1894 H1906 0.956 . S
C1894 H1907 0.961 . S
C1894 H1908 0.961 . S
C1895 C1892 1.539 . S
C1895 H1909 0.958 . S
C1895 H1910 0.961 . S
C1895 H1911 0.960 . S
H1896 C1880 0.931 . S
H1897 C1885 0.929 . S
H1898 C1886 0.960 . S
H1899 C1886 0.962 . S
H1900 C1886 0.960 . S
H1901 C1887 0.961 . S
H1902 C1887 0.961 . S
H1903 C1887 0.961 . S
H1904 C1888 0.931 . S
H1905 C1893 0.930 . S
H1906 C1894 0.956 . S
H1907 C1894 0.961 . S
H1908 C1894 0.961 . S
H1909 C1895 0.958 . S
H1910 C1895 0.961 . S
H1911 C1895 0.960 . S
C1912 C1913 1.391 . S
C1912 C1914 1.394 . S
C1912 H1928 0.931 . S
C1913 C1912 1.391 . S
C1913 C1917 1.376 . S
C1914 C1912 1.394 . S
C1914 C1915 1.369 . S
C1914 C1918 1.531 . S
C1915 C1914 1.369 . S
C1915 C1916 1.410 . S
C1915 C1923 1.503 . S
C1916 C1915 1.410 . S
C1916 C1917 1.392 . S
C1916 C1919 1.511 . S
C1917 C1913 1.376 . S
C1917 C1916 1.392 . S
C1917 H1929 0.929 . S
C1918 C1914 1.531 . S
C1918 H1930 0.960 . S
C1918 H1931 0.962 . S
C1918 H1932 0.960 . S
C1919 C1916 1.511 . S
C1919 H1933 0.961 . S
C1919 H1934 0.961 . S
C1919 H1935 0.961 . S
C1920 C1921 1.370 . S
C1920 C1922 1.363 . S
C1920 H1936 0.931 . S
C1921 C1920 1.370 . S
C1921 C1925 1.408 . S
C1922 C1920 1.363 . S
C1922 C1923 1.370 . S
C1922 C1926 1.524 . S
C1923 C1915 1.503 . S
C1923 C1922 1.370 . S
C1923 C1924 1.403 . S
C1924 C1923 1.403 . S
C1924 C1925 1.404 . S
C1924 C1927 1.539 . S
C1925 C1921 1.408 . S
C1925 C1924 1.404 . S
C1925 H1937 0.930 . S
C1926 C1922 1.524 . S
C1926 H1938 0.956 . S
C1926 H1939 0.961 . S
C1926 H1940 0.961 . S
C1927 C1924 1.539 . S
C1927 H1941 0.958 . S
C1927 H1942 0.961 . S
C1927 H1943 0.960 . S
H1928 C1912 0.931 . S
H1929 C1917 0.929 . S
H1930 C1918 0.960 . S
H1931 C1918 0.962 . S
H1932 C1918 0.960 . S
H1933 C1919 0.961 . S
H1934 C1919 0.961 . S
H1935 C1919 0.961 . S
H1936 C1920 0.931 . S
H1937 C1925 0.930 . S
H1938 C1926 0.956 . S
H1939 C1926 0.961 . S
H1940 C1926 0.961 . S
H1941 C1927 0.958 . S
H1942 C1927 0.961 . S
H1943 C1927 0.960 . S
C1944 C1945 1.391 . S
C1944 C1946 1.394 . S
C1944 H1960 0.931 . S
C1945 C1944 1.391 . S
C1945 C1949 1.376 . S
C1946 C1944 1.394 . S
C1946 C1947 1.369 . S
C1946 C1950 1.531 . S
C1947 C1946 1.369 . S
C1947 C1948 1.410 . S
C1947 C1955 1.503 . S
C1948 C1947 1.410 . S
C1948 C1949 1.392 . S
C1948 C1951 1.511 . S
C1949 C1945 1.376 . S
C1949 C1948 1.392 . S
C1949 H1961 0.929 . S
C1950 C1946 1.531 . S
C1950 H1962 0.960 . S
C1950 H1963 0.962 . S
C1950 H1964 0.960 . S
C1951 C1948 1.511 . S
C1951 H1965 0.961 . S
C1951 H1966 0.961 . S
C1951 H1967 0.961 . S
C1952 C1953 1.370 . S
C1952 C1954 1.363 . S
C1952 H1968 0.931 . S
C1953 C1952 1.370 . S
C1953 C1957 1.408 . S
C1954 C1952 1.363 . S
C1954 C1955 1.370 . S
C1954 C1958 1.524 . S
C1955 C1947 1.503 . S
C1955 C1954 1.370 . S
C1955 C1956 1.403 . S
C1956 C1955 1.403 . S
C1956 C1957 1.404 . S
C1956 C1959 1.539 . S
C1957 C1953 1.408 . S
C1957 C1956 1.404 . S
C1957 H1969 0.930 . S
C1958 C1954 1.524 . S
C1958 H1970 0.956 . S
C1958 H1971 0.961 . S
C1958 H1972 0.961 . S
C1959 C1956 1.539 . S
C1959 H1973 0.958 . S
C1959 H1974 0.961 . S
C1959 H1975 0.960 . S
H1960 C1944 0.931 . S
H1961 C1949 0.929 . S
H1962 C1950 0.960 . S
H1963 C1950 0.962 . S
H1964 C1950 0.960 . S
H1965 C1951 0.961 . S
H1966 C1951 0.961 . S
H1967 C1951 0.961 . S
H1968 C1952 0.931 . S
H1969 C1957 0.930 . S
H1970 C1958 0.956 . S
H1971 C1958 0.961 . S
H1972 C1958 0.961 . S
H1973 C1959 0.958 . S
H1974 C1959 0.961 . S
H1975 C1959 0.960 . S
C1976 C1977 1.391 . S
C1976 C1978 1.394 . S
C1976 H1992 0.931 . S
C1977 C1976 1.391 . S
C1977 C1981 1.376 . S
C1978 C1976 1.394 . S
C1978 C1979 1.369 . S
C1978 C1982 1.531 . S
C1979 C1978 1.369 . S
C1979 C1980 1.410 . S
C1979 C1987 1.503 . S
C1980 C1979 1.410 . S
C1980 C1981 1.392 . S
C1980 C1983 1.511 . S
C1981 C1977 1.376 . S
C1981 C1980 1.392 . S
C1981 H1993 0.929 1_554 S
C1982 C1978 1.531 . S
C1982 H1994 0.960 . S
C1982 H1995 0.962 . S
C1982 H1996 0.960 . S
C1983 C1980 1.511 . S
C1983 H1997 0.961 . S
C1983 H1998 0.961 . S
C1983 H1999 0.961 . S
C1984 C1985 1.370 . S
C1984 C1986 1.363 . S
C1984 H2000 0.931 . S
C1985 C1984 1.370 . S
C1985 C1989 1.408 . S
C1986 C1984 1.363 . S
C1986 C1987 1.370 . S
C1986 C1990 1.524 . S
C1987 C1979 1.503 . S
C1987 C1986 1.370 . S
C1987 C1988 1.403 . S
C1988 C1987 1.403 . S
C1988 C1989 1.404 . S
C1988 C1991 1.539 . S
C1989 C1985 1.408 . S
C1989 C1988 1.404 . S
C1989 H2001 0.930 . S
C1990 C1986 1.524 . S
C1990 H2002 0.956 . S
C1990 H2003 0.961 . S
C1990 H2004 0.961 . S
C1991 C1988 1.539 . S
C1991 H2005 0.958 . S
C1991 H2006 0.961 . S
C1991 H2007 0.960 . S
H1992 C1976 0.931 . S
H1993 C1981 0.929 1_556 S
H1994 C1982 0.960 . S
H1995 C1982 0.962 . S
H1996 C1982 0.960 . S
H1997 C1983 0.961 . S
H1998 C1983 0.961 . S
H1999 C1983 0.961 . S
H2000 C1984 0.931 . S
H2001 C1989 0.930 . S
H2002 C1990 0.956 . S
H2003 C1990 0.961 . S
H2004 C1990 0.961 . S
H2005 C1991 0.958 . S
H2006 C1991 0.961 . S
H2007 C1991 0.960 . S
C2008 C2009 1.391 . S
C2008 C2010 1.394 . S
C2008 H2024 0.931 . S
C2009 C2008 1.391 . S
C2009 C2013 1.376 . S
C2010 C2008 1.394 . S
C2010 C2011 1.369 . S
C2010 C2014 1.531 . S
C2011 C2010 1.369 . S
C2011 C2012 1.410 . S
C2011 C2019 1.503 . S
C2012 C2011 1.410 . S
C2012 C2013 1.392 . S
C2012 C2015 1.511 . S
C2013 C2009 1.376 . S
C2013 C2012 1.392 . S
C2013 H2025 0.929 . S
C2014 C2010 1.531 . S
C2014 H2026 0.960 . S
C2014 H2027 0.962 . S
C2014 H2028 0.960 . S
C2015 C2012 1.511 . S
C2015 H2029 0.961 . S
C2015 H2030 0.961 . S
C2015 H2031 0.961 . S
C2016 C2017 1.370 . S
C2016 C2018 1.363 . S
C2016 H2032 0.931 . S
C2017 C2016 1.370 . S
C2017 C2021 1.408 . S
C2018 C2016 1.363 . S
C2018 C2019 1.370 . S
C2018 C2022 1.524 . S
C2019 C2011 1.503 . S
C2019 C2018 1.370 . S
C2019 C2020 1.403 . S
C2020 C2019 1.403 . S
C2020 C2021 1.404 . S
C2020 C2023 1.539 . S
C2021 C2017 1.408 . S
C2021 C2020 1.404 . S
C2021 H2033 0.930 . S
C2022 C2018 1.524 . S
C2022 H2034 0.956 . S
C2022 H2035 0.961 . S
C2022 H2036 0.961 . S
C2023 C2020 1.539 . S
C2023 H2037 0.958 . S
C2023 H2038 0.961 . S
C2023 H2039 0.960 . S
H2024 C2008 0.931 . S
H2025 C2013 0.929 . S
H2026 C2014 0.960 . S
H2027 C2014 0.962 . S
H2028 C2014 0.960 . S
H2029 C2015 0.961 . S
H2030 C2015 0.961 . S
H2031 C2015 0.961 . S
H2032 C2016 0.931 . S
H2033 C2021 0.930 . S
H2034 C2022 0.956 . S
H2035 C2022 0.961 . S
H2036 C2022 0.961 . S
H2037 C2023 0.958 . S
H2038 C2023 0.961 . S
H2039 C2023 0.960 . S
C2040 C2041 1.391 . S
C2040 C2042 1.394 . S
C2040 H2056 0.952 . S
C2041 C2040 1.391 . S
C2041 C2045 1.376 . S
C2042 C2040 1.394 . S
C2042 C2043 1.369 . S
C2042 C2046 1.531 . S
C2043 C2042 1.369 . S
C2043 C2044 1.410 . S
C2043 C2051 1.503 . S
C2044 C2043 1.410 . S
C2044 C2045 1.392 . S
C2044 C2047 1.511 . S
C2045 C2041 1.376 . S
C2045 C2044 1.392 . S
C2045 H2057 0.929 . S
C2046 C2042 1.531 . S
C2046 H2058 0.960 . S
C2046 H2059 0.962 . S
C2046 H2060 0.960 . S
C2047 C2044 1.511 . S
C2047 H2061 0.961 . S
C2047 H2062 0.961 . S
C2047 H2063 0.961 . S
C2048 C2049 1.370 . S
C2048 C2050 1.363 . S
C2048 H2064 0.931 . S
C2049 C2048 1.370 . S
C2049 C2053 1.408 . S
C2050 C2048 1.363 . S
C2050 C2051 1.370 . S
C2050 C2054 1.524 . S
C2051 C2043 1.503 . S
C2051 C2050 1.370 . S
C2051 C2052 1.403 . S
C2052 C2051 1.403 . S
C2052 C2053 1.404 . S
C2052 C2055 1.539 . S
C2053 C2049 1.408 . S
C2053 C2052 1.404 . S
C2053 H2065 0.930 . S
C2054 C2050 1.524 . S
C2054 H2066 0.956 . S
C2054 H2067 0.961 . S
C2054 H2068 0.961 . S
C2055 C2052 1.539 . S
C2055 H2069 0.958 . S
C2055 H2070 0.961 . S
C2055 H2071 0.960 . S
H2056 C2040 0.952 . S
H2057 C2045 0.929 . S
H2058 C2046 0.960 . S
H2059 C2046 0.962 . S
H2060 C2046 0.960 . S
H2061 C2047 0.961 . S
H2062 C2047 0.961 . S
H2063 C2047 0.961 . S
H2064 C2048 0.931 . S
H2065 C2053 0.930 . S
H2066 C2054 0.956 . S
H2067 C2054 0.961 . S
H2068 C2054 0.961 . S
H2069 C2055 0.958 . S
H2070 C2055 0.961 . S
H2071 C2055 0.960 . S
C2072 C2073 1.391 . S
C2072 C2074 1.394 . S
C2072 H2088 0.931 . S
C2073 C2072 1.391 . S
C2073 C2077 1.376 . S
C2074 C2072 1.394 . S
C2074 C2075 1.369 . S
C2074 C2078 1.531 . S
C2075 C2074 1.369 . S
C2075 C2076 1.410 . S
C2075 C2083 1.503 . S
C2076 C2075 1.410 . S
C2076 C2077 1.392 . S
C2076 C2079 1.511 . S
C2077 C2073 1.376 . S
C2077 C2076 1.392 . S
C2077 H2089 0.929 . S
C2078 C2074 1.531 . S
C2078 H2090 0.960 . S
C2078 H2091 0.962 . S
C2078 H2092 0.960 . S
C2079 C2076 1.511 . S
C2079 H2093 0.961 . S
C2079 H2094 0.961 . S
C2079 H2095 0.961 . S
C2080 C2081 1.370 . S
C2080 C2082 1.363 . S
C2080 H2096 0.935 . S
C2081 C2080 1.370 . S
C2081 C2085 1.408 . S
C2082 C2080 1.363 . S
C2082 C2083 1.370 . S
C2082 C2086 1.524 . S
C2083 C2075 1.503 . S
C2083 C2082 1.370 . S
C2083 C2084 1.403 . S
C2084 C2083 1.403 . S
C2084 C2085 1.404 . S
C2084 C2087 1.539 . S
C2085 C2081 1.408 . S
C2085 C2084 1.404 . S
C2085 H2097 0.930 . S
C2086 C2082 1.524 . S
C2086 H2098 0.956 . S
C2086 H2099 0.961 . S
C2086 H2100 0.961 . S
C2087 C2084 1.539 . S
C2087 H2101 0.958 . S
C2087 H2102 0.961 . S
C2087 H2103 0.960 . S
H2088 C2072 0.931 . S
H2089 C2077 0.929 . S
H2090 C2078 0.960 . S
H2091 C2078 0.962 . S
H2092 C2078 0.960 . S
H2093 C2079 0.961 . S
H2094 C2079 0.961 . S
H2095 C2079 0.961 . S
H2096 C2080 0.935 . S
H2097 C2085 0.930 . S
H2098 C2086 0.956 . S
H2099 C2086 0.961 . S
H2100 C2086 0.961 . S
H2101 C2087 0.958 . S
H2102 C2087 0.961 . S
H2103 C2087 0.960 . S
C2104 C2105 1.391 . S
C2104 C2106 1.394 . S
C2104 H2120 0.931 . S
C2105 C2104 1.391 . S
C2105 C2109 1.376 . S
C2106 C2104 1.394 . S
C2106 C2107 1.369 . S
C2106 C2110 1.531 . S
C2107 C2106 1.369 . S
C2107 C2108 1.410 . S
C2107 C2115 1.503 . S
C2108 C2107 1.410 . S
C2108 C2109 1.392 . S
C2108 C2111 1.511 . S
C2109 C2105 1.376 . S
C2109 C2108 1.392 . S
C2109 H2121 0.929 . S
C2110 C2106 1.531 . S
C2110 H2122 0.960 . S
C2110 H2123 0.962 . S
C2110 H2124 0.960 . S
C2111 C2108 1.511 . S
C2111 H2125 0.961 . S
C2111 H2126 0.961 . S
C2111 H2127 0.961 . S
C2112 C2113 1.370 . S
C2112 C2114 1.363 . S
C2112 H2128 0.931 . S
C2113 C2112 1.370 . S
C2113 C2117 1.408 . S
C2114 C2112 1.363 . S
C2114 C2115 1.370 . S
C2114 C2118 1.524 . S
C2115 C2107 1.503 . S
C2115 C2114 1.370 . S
C2115 C2116 1.403 . S
C2116 C2115 1.403 . S
C2116 C2117 1.404 . S
C2116 C2119 1.539 . S
C2117 C2113 1.408 . S
C2117 C2116 1.404 . S
C2117 H2129 0.930 . S
C2118 C2114 1.524 . S
C2118 H2130 0.956 . S
C2118 H2131 0.961 . S
C2118 H2132 0.961 . S
C2119 C2116 1.539 . S
C2119 H2133 0.958 . S
C2119 H2134 0.961 . S
C2119 H2135 0.960 . S
H2120 C2104 0.931 . S
H2121 C2109 0.929 . S
H2122 C2110 0.960 . S
H2123 C2110 0.962 . S
H2124 C2110 0.960 . S
H2125 C2111 0.961 . S
H2126 C2111 0.961 . S
H2127 C2111 0.961 . S
H2128 C2112 0.931 . S
H2129 C2117 0.930 . S
H2130 C2118 0.956 . S
H2131 C2118 0.961 . S
H2132 C2118 0.961 . S
H2133 C2119 0.958 . S
H2134 C2119 0.961 . S
H2135 C2119 0.960 . S
C2136 C2137 1.391 . S
C2136 C2138 1.394 . S
C2136 H2152 0.931 . S
C2137 C2136 1.391 . S
C2137 C2141 1.376 . S
C2138 C2136 1.394 . S
C2138 C2139 1.369 . S
C2138 C2142 1.531 . S
C2139 C2138 1.369 . S
C2139 C2140 1.410 . S
C2139 C2147 1.503 . S
C2140 C2139 1.410 . S
C2140 C2141 1.392 . S
C2140 C2143 1.511 . S
C2141 C2137 1.376 . S
C2141 C2140 1.392 . S
C2141 H2153 0.929 . S
C2142 C2138 1.531 . S
C2142 H2154 0.960 . S
C2142 H2155 0.962 . S
C2142 H2156 0.960 . S
C2143 C2140 1.511 . S
C2143 H2157 0.961 . S
C2143 H2158 0.961 . S
C2143 H2159 0.961 . S
C2144 C2145 1.370 . S
C2144 C2146 1.363 . S
C2144 H2160 0.931 . S
C2145 C2144 1.370 . S
C2145 C2149 1.408 . S
C2146 C2144 1.363 . S
C2146 C2147 1.370 . S
C2146 C2150 1.524 . S
C2147 C2139 1.503 . S
C2147 C2146 1.370 . S
C2147 C2148 1.403 . S
C2148 C2147 1.403 . S
C2148 C2149 1.404 . S
C2148 C2151 1.539 . S
C2149 C2145 1.408 . S
C2149 C2148 1.404 . S
C2149 H2161 0.930 . S
C2150 C2146 1.524 . S
C2150 H2162 0.956 . S
C2150 H2163 0.961 . S
C2150 H2164 0.961 . S
C2151 C2148 1.539 . S
C2151 H2165 0.958 . S
C2151 H2166 0.961 . S
C2151 H2167 0.960 . S
H2152 C2136 0.931 . S
H2153 C2141 0.929 . S
H2154 C2142 0.960 . S
H2155 C2142 0.962 . S
H2156 C2142 0.960 . S
H2157 C2143 0.961 . S
H2158 C2143 0.961 . S
H2159 C2143 0.961 . S
H2160 C2144 0.931 . S
H2161 C2149 0.930 . S
H2162 C2150 0.956 . S
H2163 C2150 0.961 . S
H2164 C2150 0.961 . S
H2165 C2151 0.958 . S
H2166 C2151 0.961 . S
H2167 C2151 0.960 . S
C2168 C2169 1.391 . S
C2168 C2170 1.394 . S
C2168 H2184 0.931 . S
C2169 C2168 1.391 . S
C2169 C2173 1.376 . S
C2170 C2168 1.394 . S
C2170 C2171 1.369 . S
C2170 C2174 1.531 . S
C2171 C2170 1.369 . S
C2171 C2172 1.410 . S
C2171 C2179 1.503 . S
C2172 C2171 1.410 . S
C2172 C2173 1.392 . S
C2172 C2175 1.511 . S
C2173 C2169 1.376 . S
C2173 C2172 1.392 . S
C2173 H2185 0.929 . S
C2174 C2170 1.531 . S
C2174 H2186 0.960 . S
C2174 H2187 0.962 . S
C2174 H2188 0.960 . S
C2175 C2172 1.511 . S
C2175 H2189 0.961 . S
C2175 H2190 0.961 . S
C2175 H2191 0.961 . S
C2176 C2177 1.370 . S
C2176 C2178 1.363 . S
C2176 H2192 0.931 . S
C2177 C2176 1.370 . S
C2177 C2181 1.408 . S
C2178 C2176 1.363 . S
C2178 C2179 1.370 . S
C2178 C2182 1.524 . S
C2179 C2171 1.503 . S
C2179 C2178 1.370 . S
C2179 C2180 1.403 . S
C2180 C2179 1.403 . S
C2180 C2181 1.404 . S
C2180 C2183 1.539 . S
C2181 C2177 1.408 . S
C2181 C2180 1.404 . S
C2181 H2193 0.930 . S
C2182 C2178 1.524 . S
C2182 H2194 0.956 . S
C2182 H2195 0.961 . S
C2182 H2196 0.961 . S
C2183 C2180 1.539 . S
C2183 H2197 0.958 . S
C2183 H2198 0.961 . S
C2183 H2199 0.960 . S
H2184 C2168 0.931 . S
H2185 C2173 0.929 . S
H2186 C2174 0.960 . S
H2187 C2174 0.962 . S
H2188 C2174 0.960 . S
H2189 C2175 0.961 . S
H2190 C2175 0.961 . S
H2191 C2175 0.961 . S
H2192 C2176 0.931 . S
H2193 C2181 0.930 . S
H2194 C2182 0.956 . S
H2195 C2182 0.961 . S
H2196 C2182 0.961 . S
H2197 C2183 0.958 . S
H2198 C2183 0.961 . S
H2199 C2183 0.960 . S
C2200 C2201 1.391 . S
C2200 C2202 1.394 . S
C2200 H2216 0.931 . S
C2201 C2200 1.391 . S
C2201 C2205 1.376 . S
C2202 C2200 1.394 . S
C2202 C2203 1.369 . S
C2202 C2206 1.531 . S
C2203 C2202 1.369 . S
C2203 C2204 1.410 . S
C2203 C2211 1.503 . S
C2204 C2203 1.410 . S
C2204 C2205 1.392 . S
C2204 C2207 1.511 . S
C2205 C2201 1.376 . S
C2205 C2204 1.392 . S
C2205 H2217 0.929 . S
C2206 C2202 1.531 . S
C2206 H2218 0.960 . S
C2206 H2219 0.962 . S
C2206 H2220 0.960 . S
C2207 C2204 1.511 . S
C2207 H2221 0.961 . S
C2207 H2222 0.961 . S
C2207 H2223 0.961 . S
C2208 C2209 1.370 . S
C2208 C2210 1.363 . S
C2208 H2224 0.931 . S
C2209 C2208 1.370 . S
C2209 C2213 1.408 . S
C2210 C2208 1.363 . S
C2210 C2211 1.370 . S
C2210 C2214 1.524 . S
C2211 C2203 1.503 . S
C2211 C2210 1.370 . S
C2211 C2212 1.403 . S
C2212 C2211 1.403 . S
C2212 C2213 1.404 . S
C2212 C2215 1.539 . S
C2213 C2209 1.408 . S
C2213 C2212 1.404 . S
C2213 H2225 0.930 . S
C2214 C2210 1.524 . S
C2214 H2226 0.956 . S
C2214 H2227 0.961 . S
C2214 H2228 0.961 . S
C2215 C2212 1.539 . S
C2215 H2229 0.958 . S
C2215 H2230 0.961 . S
C2215 H2231 0.960 . S
H2216 C2200 0.931 . S
H2217 C2205 0.929 . S
H2218 C2206 0.960 . S
H2219 C2206 0.962 . S
H2220 C2206 0.960 . S
H2221 C2207 0.961 . S
H2222 C2207 0.961 . S
H2223 C2207 0.961 . S
H2224 C2208 0.931 . S
H2225 C2213 0.930 . S
H2226 C2214 0.956 . S
H2227 C2214 0.961 . S
H2228 C2214 0.961 . S
H2229 C2215 0.958 . S
H2230 C2215 0.961 . S
H2231 C2215 0.960 . S
C2232 C2233 1.391 . S
C2232 C2234 1.394 . S
C2232 H2248 0.931 . S
C2233 C2232 1.391 . S
C2233 C2237 1.376 . S
C2234 C2232 1.394 . S
C2234 C2235 1.369 . S
C2234 C2238 1.531 . S
C2235 C2234 1.369 . S
C2235 C2236 1.410 . S
C2235 C2243 1.503 . S
C2236 C2235 1.410 . S
C2236 C2237 1.392 . S
C2236 C2239 1.511 . S
C2237 C2233 1.376 . S
C2237 C2236 1.392 . S
C2237 H2249 0.929 . S
C2238 C2234 1.531 . S
C2238 H2250 0.960 . S
C2238 H2251 0.962 . S
C2238 H2252 0.960 . S
C2239 C2236 1.511 . S
C2239 H2253 0.961 . S
C2239 H2254 0.961 . S
C2239 H2255 0.961 . S
C2240 C2241 1.370 . S
C2240 C2242 1.363 . S
C2240 H2256 0.931 . S
C2241 C2240 1.370 . S
C2241 C2245 1.408 . S
C2242 C2240 1.363 . S
C2242 C2243 1.370 . S
C2242 C2246 1.524 . S
C2243 C2235 1.503 . S
C2243 C2242 1.370 . S
C2243 C2244 1.403 . S
C2244 C2243 1.403 . S
C2244 C2245 1.404 . S
C2244 C2247 1.539 . S
C2245 C2241 1.408 . S
C2245 C2244 1.404 . S
C2245 H2257 0.930 . S
C2246 C2242 1.524 . S
C2246 H2258 0.956 . S
C2246 H2259 0.961 . S
C2246 H2260 0.961 . S
C2247 C2244 1.539 . S
C2247 H2261 0.958 . S
C2247 H2262 0.961 . S
C2247 H2263 0.960 . S
H2248 C2232 0.931 . S
H2249 C2237 0.929 . S
H2250 C2238 0.960 . S
H2251 C2238 0.962 . S
H2252 C2238 0.960 . S
H2253 C2239 0.961 . S
H2254 C2239 0.961 . S
H2255 C2239 0.961 . S
H2256 C2240 0.931 . S
H2257 C2245 0.930 . S
H2258 C2246 0.956 . S
H2259 C2246 0.961 . S
H2260 C2246 0.961 . S
H2261 C2247 0.958 . S
H2262 C2247 0.961 . S
H2263 C2247 0.960 . S
C2264 C2265 1.391 . S
C2264 C2266 1.394 . S
C2264 H2280 0.931 . S
C2265 C2264 1.391 . S
C2265 C2269 1.376 . S
C2266 C2264 1.394 . S
C2266 C2267 1.369 . S
C2266 C2270 1.531 . S
C2267 C2266 1.369 . S
C2267 C2268 1.410 . S
C2267 C2275 1.503 . S
C2268 C2267 1.410 . S
C2268 C2269 1.392 . S
C2268 C2271 1.511 . S
C2269 C2265 1.376 . S
C2269 C2268 1.392 . S
C2269 H2281 0.929 . S
C2270 C2266 1.531 . S
C2270 H2282 0.960 . S
C2270 H2283 0.962 . S
C2270 H2284 0.960 . S
C2271 C2268 1.511 . S
C2271 H2285 0.961 . S
C2271 H2286 0.961 . S
C2271 H2287 0.961 . S
C2272 C2273 1.370 . S
C2272 C2274 1.363 . S
C2272 H2288 0.931 . S
C2273 C2272 1.370 . S
C2273 C2277 1.408 . S
C2274 C2272 1.363 . S
C2274 C2275 1.370 . S
C2274 C2278 1.524 . S
C2275 C2267 1.503 . S
C2275 C2274 1.370 . S
C2275 C2276 1.403 . S
C2276 C2275 1.403 . S
C2276 C2277 1.404 . S
C2276 C2279 1.539 . S
C2277 C2273 1.408 . S
C2277 C2276 1.404 . S
C2277 H2289 0.930 . S
C2278 C2274 1.524 . S
C2278 H2290 0.956 . S
C2278 H2291 0.961 . S
C2278 H2292 0.961 . S
C2279 C2276 1.539 . S
C2279 H2293 0.958 . S
C2279 H2294 0.961 . S
C2279 H2295 0.960 . S
H2280 C2264 0.931 . S
H2281 C2269 0.929 . S
H2282 C2270 0.960 . S
H2283 C2270 0.962 . S
H2284 C2270 0.960 . S
H2285 C2271 0.961 . S
H2286 C2271 0.961 . S
H2287 C2271 0.961 . S
H2288 C2272 0.931 . S
H2289 C2277 0.930 . S
H2290 C2278 0.956 . S
H2291 C2278 0.961 . S
H2292 C2278 0.961 . S
H2293 C2279 0.958 . S
H2294 C2279 0.961 . S
H2295 C2279 0.960 . S
C2296 C2297 1.391 . S
C2296 C2298 1.394 . S
C2296 H2312 0.931 . S
C2297 C2296 1.391 . S
C2297 C2301 1.376 . S
C2298 C2296 1.394 . S
C2298 C2299 1.369 . S
C2298 C2302 1.531 . S
C2299 C2298 1.369 . S
C2299 C2300 1.410 . S
C2299 C2307 1.503 . S
C2300 C2299 1.410 . S
C2300 C2301 1.392 . S
C2300 C2303 1.511 . S
C2301 C2297 1.376 . S
C2301 C2300 1.392 . S
C2301 H2313 0.929 . S
C2302 C2298 1.531 . S
C2302 H2314 0.960 . S
C2302 H2315 0.962 . S
C2302 H2316 0.960 . S
C2303 C2300 1.511 . S
C2303 H2317 0.961 . S
C2303 H2318 0.961 . S
C2303 H2319 0.961 . S
C2304 C2305 1.370 . S
C2304 C2306 1.363 . S
C2304 H2320 0.931 . S
C2305 C2304 1.370 . S
C2305 C2309 1.408 . S
C2306 C2304 1.363 . S
C2306 C2307 1.370 . S
C2306 C2310 1.524 . S
C2307 C2299 1.503 . S
C2307 C2306 1.370 . S
C2307 C2308 1.403 . S
C2308 C2307 1.403 . S
C2308 C2309 1.404 . S
C2308 C2311 1.539 . S
C2309 C2305 1.408 . S
C2309 C2308 1.404 . S
C2309 H2321 0.930 . S
C2310 C2306 1.524 . S
C2310 H2322 0.956 . S
C2310 H2323 0.961 . S
C2310 H2324 0.961 . S
C2311 C2308 1.539 . S
C2311 H2325 0.958 . S
C2311 H2326 0.961 . S
C2311 H2327 0.960 . S
H2312 C2296 0.931 . S
H2313 C2301 0.929 . S
H2314 C2302 0.960 . S
H2315 C2302 0.962 . S
H2316 C2302 0.960 . S
H2317 C2303 0.961 . S
H2318 C2303 0.961 . S
H2319 C2303 0.961 . S
H2320 C2304 0.931 . S
H2321 C2309 0.930 . S
H2322 C2310 0.956 . S
H2323 C2310 0.961 . S
H2324 C2310 0.961 . S
H2325 C2311 0.958 . S
H2326 C2311 0.961 . S
H2327 C2311 0.960 . S
C2328 C2329 1.391 . S
C2328 C2330 1.394 . S
C2328 H2344 0.931 . S
C2329 C2328 1.391 . S
C2329 C2333 1.376 . S
C2330 C2328 1.394 . S
C2330 C2331 1.369 . S
C2330 C2334 1.531 . S
C2331 C2330 1.369 . S
C2331 C2332 1.410 . S
C2331 C2339 1.503 . S
C2332 C2331 1.410 . S
C2332 C2333 1.392 . S
C2332 C2335 1.511 . S
C2333 C2329 1.376 . S
C2333 C2332 1.392 . S
C2333 H2345 0.929 . S
C2334 C2330 1.531 . S
C2334 H2346 0.960 . S
C2334 H2347 0.962 . S
C2334 H2348 0.960 . S
C2335 C2332 1.511 . S
C2335 H2349 0.961 . S
C2335 H2350 0.961 . S
C2335 H2351 0.961 . S
C2336 C2337 1.370 . S
C2336 C2338 1.363 . S
C2336 H2352 0.931 . S
C2337 C2336 1.370 . S
C2337 C2341 1.408 . S
C2338 C2336 1.363 . S
C2338 C2339 1.370 . S
C2338 C2342 1.524 . S
C2339 C2331 1.503 . S
C2339 C2338 1.370 . S
C2339 C2340 1.403 . S
C2340 C2339 1.403 . S
C2340 C2341 1.404 . S
C2340 C2343 1.539 . S
C2341 C2337 1.408 . S
C2341 C2340 1.404 . S
C2341 H2353 0.930 . S
C2342 C2338 1.524 . S
C2342 H2354 0.956 . S
C2342 H2355 0.961 . S
C2342 H2356 0.961 . S
C2343 C2340 1.539 . S
C2343 H2357 0.958 . S
C2343 H2358 0.961 . S
C2343 H2359 0.960 . S
H2344 C2328 0.931 . S
H2345 C2333 0.929 . S
H2346 C2334 0.960 . S
H2347 C2334 0.962 . S
H2348 C2334 0.960 . S
H2349 C2335 0.961 . S
H2350 C2335 0.961 . S
H2351 C2335 0.961 . S
H2352 C2336 0.931 . S
H2353 C2341 0.930 . S
H2354 C2342 0.956 . S
H2355 C2342 0.961 . S
H2356 C2342 0.961 . S
H2357 C2343 0.958 . S
H2358 C2343 0.961 . S
H2359 C2343 0.960 . S
C2360 C2361 1.391 . S
C2360 C2362 1.394 . S
C2360 H2376 0.931 . S
C2361 C2360 1.391 . S
C2361 C2365 1.376 . S
C2362 C2360 1.394 . S
C2362 C2363 1.369 . S
C2362 C2366 1.531 . S
C2363 C2362 1.369 . S
C2363 C2364 1.410 . S
C2363 C2371 1.503 . S
C2364 C2363 1.410 . S
C2364 C2365 1.392 . S
C2364 C2367 1.511 . S
C2365 C2361 1.376 . S
C2365 C2364 1.392 . S
C2365 H2377 0.929 . S
C2366 C2362 1.531 . S
C2366 H2378 0.960 . S
C2366 H2379 0.962 . S
C2366 H2380 0.960 . S
C2367 C2364 1.511 . S
C2367 H2381 0.961 . S
C2367 H2382 0.961 . S
C2367 H2383 0.961 . S
C2368 C2369 1.370 . S
C2368 C2370 1.363 . S
C2368 H2384 0.931 . S
C2369 C2368 1.370 . S
C2369 C2373 1.408 . S
C2370 C2368 1.363 . S
C2370 C2371 1.370 . S
C2370 C2374 1.524 . S
C2371 C2363 1.503 . S
C2371 C2370 1.370 . S
C2371 C2372 1.403 . S
C2372 C2371 1.403 . S
C2372 C2373 1.404 . S
C2372 C2375 1.539 . S
C2373 C2369 1.408 . S
C2373 C2372 1.404 . S
C2373 H2385 0.930 . S
C2374 C2370 1.524 . S
C2374 H2386 0.956 . S
C2374 H2387 0.961 . S
C2374 H2388 0.961 . S
C2375 C2372 1.539 . S
C2375 H2389 0.958 . S
C2375 H2390 0.961 . S
C2375 H2391 0.960 . S
H2376 C2360 0.931 . S
H2377 C2365 0.929 . S
H2378 C2366 0.960 . S
H2379 C2366 0.962 . S
H2380 C2366 0.960 . S
H2381 C2367 0.961 . S
H2382 C2367 0.961 . S
H2383 C2367 0.961 . S
H2384 C2368 0.931 . S
H2385 C2373 0.930 . S
H2386 C2374 0.956 . S
H2387 C2374 0.961 . S
H2388 C2374 0.961 . S
H2389 C2375 0.958 . S
H2390 C2375 0.961 . S
H2391 C2375 0.960 . S
C2392 C2393 1.391 . S
C2392 C2394 1.394 . S
C2392 H2408 0.931 . S
C2393 C2392 1.391 . S
C2393 C2397 1.376 . S
C2394 C2392 1.394 . S
C2394 C2395 1.369 . S
C2394 C2398 1.531 . S
C2395 C2394 1.369 . S
C2395 C2396 1.410 . S
C2395 C2403 1.503 . S
C2396 C2395 1.410 . S
C2396 C2397 1.392 . S
C2396 C2399 1.511 . S
C2397 C2393 1.376 . S
C2397 C2396 1.392 . S
C2397 H2409 0.929 . S
C2398 C2394 1.531 . S
C2398 H2410 0.960 . S
C2398 H2411 0.962 . S
C2398 H2412 0.960 . S
C2399 C2396 1.511 . S
C2399 H2413 0.961 . S
C2399 H2414 0.961 . S
C2399 H2415 0.961 . S
C2400 C2401 1.370 . S
C2400 C2402 1.363 . S
C2400 H2416 0.931 . S
C2401 C2400 1.370 . S
C2401 C2405 1.408 . S
C2402 C2400 1.363 . S
C2402 C2403 1.370 . S
C2402 C2406 1.524 . S
C2403 C2395 1.503 . S
C2403 C2402 1.370 . S
C2403 C2404 1.403 . S
C2404 C2403 1.403 . S
C2404 C2405 1.404 . S
C2404 C2407 1.539 . S
C2405 C2401 1.408 . S
C2405 C2404 1.404 . S
C2405 H2417 0.930 . S
C2406 C2402 1.524 . S
C2406 H2418 0.956 . S
C2406 H2419 0.961 . S
C2406 H2420 0.961 . S
C2407 C2404 1.539 . S
C2407 H2421 0.958 . S
C2407 H2422 0.961 . S
C2407 H2423 0.960 . S
H2408 C2392 0.931 . S
H2409 C2397 0.929 . S
H2410 C2398 0.960 . S
H2411 C2398 0.962 . S
H2412 C2398 0.960 . S
H2413 C2399 0.961 . S
H2414 C2399 0.961 . S
H2415 C2399 0.961 . S
H2416 C2400 0.931 . S
H2417 C2405 0.930 . S
H2418 C2406 0.956 . S
H2419 C2406 0.961 . S
H2420 C2406 0.961 . S
H2421 C2407 0.958 . S
H2422 C2407 0.961 . S
H2423 C2407 0.960 . S
C2424 C2425 1.391 . S
C2424 C2426 1.394 . S
C2424 H2440 0.931 . S
C2425 C2424 1.391 . S
C2425 C2429 1.376 . S
C2426 C2424 1.394 . S
C2426 C2427 1.369 . S
C2426 C2430 1.531 . S
C2427 C2426 1.369 . S
C2427 C2428 1.410 . S
C2427 C2435 1.503 . S
C2428 C2427 1.410 . S
C2428 C2429 1.392 . S
C2428 C2431 1.511 . S
C2429 C2425 1.376 . S
C2429 C2428 1.392 . S
C2429 H2441 0.929 . S
C2430 C2426 1.531 . S
C2430 H2442 0.960 . S
C2430 H2443 0.962 . S
C2430 H2444 0.960 . S
C2431 C2428 1.511 . S
C2431 H2445 0.961 . S
C2431 H2446 0.961 . S
C2431 H2447 0.961 . S
C2432 C2433 1.370 . S
C2432 C2434 1.363 . S
C2432 H2448 0.931 . S
C2433 C2432 1.370 . S
C2433 C2437 1.408 . S
C2434 C2432 1.363 . S
C2434 C2435 1.370 . S
C2434 C2438 1.524 . S
C2435 C2427 1.503 . S
C2435 C2434 1.370 . S
C2435 C2436 1.403 . S
C2436 C2435 1.403 . S
C2436 C2437 1.404 . S
C2436 C2439 1.539 . S
C2437 C2433 1.408 . S
C2437 C2436 1.404 . S
C2437 H2449 0.930 . S
C2438 C2434 1.524 . S
C2438 H2450 0.956 . S
C2438 H2451 0.961 . S
C2438 H2452 0.961 . S
C2439 C2436 1.539 . S
C2439 H2453 0.958 . S
C2439 H2454 0.961 . S
C2439 H2455 0.960 . S
H2440 C2424 0.931 . S
H2441 C2429 0.929 . S
H2442 C2430 0.960 . S
H2443 C2430 0.962 . S
H2444 C2430 0.960 . S
H2445 C2431 0.961 . S
H2446 C2431 0.961 . S
H2447 C2431 0.961 . S
H2448 C2432 0.931 . S
H2449 C2437 0.930 . S
H2450 C2438 0.956 . S
H2451 C2438 0.961 . S
H2452 C2438 0.961 . S
H2453 C2439 0.958 . S
H2454 C2439 0.961 . S
H2455 C2439 0.960 . S
C2456 C2457 1.391 . S
C2456 C2458 1.394 . S
C2456 H2472 0.931 . S
C2457 C2456 1.391 . S
C2457 C2461 1.376 . S
C2458 C2456 1.394 . S
C2458 C2459 1.369 . S
C2458 C2462 1.531 . S
C2459 C2458 1.369 . S
C2459 C2460 1.410 . S
C2459 C2467 1.503 . S
C2460 C2459 1.410 . S
C2460 C2461 1.392 . S
C2460 C2463 1.511 . S
C2461 C2457 1.376 . S
C2461 C2460 1.392 . S
C2461 H2473 0.929 . S
C2462 C2458 1.531 . S
C2462 H2474 0.960 . S
C2462 H2475 0.962 . S
C2462 H2476 0.960 . S
C2463 C2460 1.511 . S
C2463 H2477 0.961 . S
C2463 H2478 0.961 . S
C2463 H2479 0.961 . S
C2464 C2465 1.370 . S
C2464 C2466 1.363 . S
C2464 H2480 0.931 . S
C2465 C2464 1.370 . S
C2465 C2469 1.408 . S
C2466 C2464 1.363 . S
C2466 C2467 1.370 . S
C2466 C2470 1.524 . S
C2467 C2459 1.503 . S
C2467 C2466 1.370 . S
C2467 C2468 1.403 . S
C2468 C2467 1.403 . S
C2468 C2469 1.404 . S
C2468 C2471 1.539 . S
C2469 C2465 1.408 . S
C2469 C2468 1.404 . S
C2469 H2481 0.930 . S
C2470 C2466 1.524 . S
C2470 H2482 0.956 . S
C2470 H2483 0.961 . S
C2470 H2484 0.961 . S
C2471 C2468 1.539 . S
C2471 H2485 0.958 . S
C2471 H2486 0.961 . S
C2471 H2487 0.960 . S
H2472 C2456 0.931 . S
H2473 C2461 0.929 . S
H2474 C2462 0.960 . S
H2475 C2462 0.962 . S
H2476 C2462 0.960 . S
H2477 C2463 0.961 . S
H2478 C2463 0.961 . S
H2479 C2463 0.961 . S
H2480 C2464 0.931 . S
H2481 C2469 0.930 . S
H2482 C2470 0.956 . S
H2483 C2470 0.961 . S
H2484 C2470 0.961 . S
H2485 C2471 0.958 . S
H2486 C2471 0.961 . S
H2487 C2471 0.960 . S
C2488 C2489 1.391 . S
C2488 C2490 1.394 . S
C2488 H2504 0.931 . S
C2489 C2488 1.391 . S
C2489 C2493 1.376 . S
C2490 C2488 1.394 . S
C2490 C2491 1.369 . S
C2490 C2494 1.531 . S
C2491 C2490 1.369 . S
C2491 C2492 1.410 . S
C2491 C2499 1.503 . S
C2492 C2491 1.410 . S
C2492 C2493 1.392 . S
C2492 C2495 1.511 . S
C2493 C2489 1.376 . S
C2493 C2492 1.392 . S
C2493 H2505 0.929 . S
C2494 C2490 1.531 . S
C2494 H2506 0.960 . S
C2494 H2507 0.962 . S
C2494 H2508 0.960 . S
C2495 C2492 1.511 . S
C2495 H2509 0.961 . S
C2495 H2510 0.961 . S
C2495 H2511 0.961 . S
C2496 C2497 1.370 . S
C2496 C2498 1.363 . S
C2496 H2512 0.931 . S
C2497 C2496 1.370 . S
C2497 C2501 1.408 . S
C2498 C2496 1.363 . S
C2498 C2499 1.370 . S
C2498 C2502 1.524 . S
C2499 C2491 1.503 . S
C2499 C2498 1.370 . S
C2499 C2500 1.403 . S
C2500 C2499 1.403 . S
C2500 C2501 1.404 . S
C2500 C2503 1.539 . S
C2501 C2497 1.408 . S
C2501 C2500 1.404 . S
C2501 H2513 0.930 . S
C2502 C2498 1.524 . S
C2502 H2514 0.956 . S
C2502 H2515 0.961 . S
C2502 H2516 0.961 . S
C2503 C2500 1.539 . S
C2503 H2517 0.958 . S
C2503 H2518 0.961 . S
C2503 H2519 0.960 . S
H2504 C2488 0.931 . S
H2505 C2493 0.929 . S
H2506 C2494 0.960 . S
H2507 C2494 0.962 . S
H2508 C2494 0.960 . S
H2509 C2495 0.961 . S
H2510 C2495 0.961 . S
H2511 C2495 0.961 . S
H2512 C2496 0.931 . S
H2513 C2501 0.930 . S
H2514 C2502 0.956 . S
H2515 C2502 0.961 . S
H2516 C2502 0.961 . S
H2517 C2503 0.958 . S
H2518 C2503 0.961 . S
H2519 C2503 0.960 . S
C2520 C2521 1.391 . S
C2520 C2522 1.394 . S
C2520 H2536 0.931 . S
C2521 C2520 1.391 . S
C2521 C2525 1.376 . S
C2522 C2520 1.394 . S
C2522 C2523 1.369 . S
C2522 C2526 1.531 . S
C2523 C2522 1.369 . S
C2523 C2524 1.410 . S
C2523 C2531 1.503 . S
C2524 C2523 1.410 . S
C2524 C2525 1.392 . S
C2524 C2527 1.511 . S
C2525 C2521 1.376 . S
C2525 C2524 1.392 . S
C2525 H2537 0.929 . S
C2526 C2522 1.531 . S
C2526 H2538 0.960 . S
C2526 H2539 0.962 . S
C2526 H2540 0.960 . S
C2527 C2524 1.511 . S
C2527 H2541 0.961 . S
C2527 H2542 0.961 . S
C2527 H2543 0.961 . S
C2528 C2529 1.370 . S
C2528 C2530 1.363 . S
C2528 H2544 0.931 . S
C2529 C2528 1.370 . S
C2529 C2533 1.408 . S
C2530 C2528 1.363 . S
C2530 C2531 1.370 . S
C2530 C2534 1.524 . S
C2531 C2523 1.503 . S
C2531 C2530 1.370 . S
C2531 C2532 1.403 . S
C2532 C2531 1.403 . S
C2532 C2533 1.404 . S
C2532 C2535 1.539 . S
C2533 C2529 1.408 . S
C2533 C2532 1.404 . S
C2533 H2545 0.930 . S
C2534 C2530 1.524 . S
C2534 H2546 0.956 . S
C2534 H2547 0.961 . S
C2534 H2548 0.961 . S
C2535 C2532 1.539 . S
C2535 H2549 0.958 . S
C2535 H2550 0.961 . S
C2535 H2551 0.960 . S
H2536 C2520 0.931 . S
H2537 C2525 0.929 . S
H2538 C2526 0.960 . S
H2539 C2526 0.962 . S
H2540 C2526 0.960 . S
H2541 C2527 0.961 . S
H2542 C2527 0.961 . S
H2543 C2527 0.961 . S
H2544 C2528 0.931 . S
H2545 C2533 0.930 . S
H2546 C2534 0.956 . S
H2547 C2534 0.961 . S
H2548 C2534 0.961 . S
H2549 C2535 0.958 . S
H2550 C2535 0.961 . S
H2551 C2535 0.960 . S
C2552 C2553 1.391 . S
C2552 C2554 1.394 . S
C2552 H2568 0.931 . S
C2553 C2552 1.391 . S
C2553 C2557 1.376 . S
C2554 C2552 1.394 . S
C2554 C2555 1.369 . S
C2554 C2558 1.531 . S
C2555 C2554 1.369 . S
C2555 C2556 1.410 . S
C2555 C2563 1.503 . S
C2556 C2555 1.410 . S
C2556 C2557 1.392 . S
C2556 C2559 1.511 . S
C2557 C2553 1.376 . S
C2557 C2556 1.392 . S
C2557 H2569 0.929 . S
C2558 C2554 1.531 . S
C2558 H2570 0.960 . S
C2558 H2571 0.962 . S
C2558 H2572 0.960 . S
C2559 C2556 1.511 . S
C2559 H2573 0.961 . S
C2559 H2574 0.961 . S
C2559 H2575 0.961 . S
C2560 C2561 1.370 . S
C2560 C2562 1.363 . S
C2560 H2576 0.931 . S
C2561 C2560 1.370 . S
C2561 C2565 1.408 . S
C2562 C2560 1.363 . S
C2562 C2563 1.370 . S
C2562 C2566 1.524 . S
C2563 C2555 1.503 . S
C2563 C2562 1.370 . S
C2563 C2564 1.403 . S
C2564 C2563 1.403 . S
C2564 C2565 1.404 . S
C2564 C2567 1.539 . S
C2565 C2561 1.408 . S
C2565 C2564 1.404 . S
C2565 H2577 0.930 . S
C2566 C2562 1.524 . S
C2566 H2578 0.956 . S
C2566 H2579 0.961 . S
C2566 H2580 0.961 . S
C2567 C2564 1.539 . S
C2567 H2581 0.958 . S
C2567 H2582 0.961 . S
C2567 H2583 0.960 . S
H2568 C2552 0.931 . S
H2569 C2557 0.929 . S
H2570 C2558 0.960 . S
H2571 C2558 0.962 . S
H2572 C2558 0.960 . S
H2573 C2559 0.961 . S
H2574 C2559 0.961 . S
H2575 C2559 0.961 . S
H2576 C2560 0.931 . S
H2577 C2565 0.930 . S
H2578 C2566 0.956 . S
H2579 C2566 0.961 . S
H2580 C2566 0.961 . S
H2581 C2567 0.958 . S
H2582 C2567 0.961 . S
H2583 C2567 0.960 . S
C2584 C2585 1.391 . S
C2584 C2586 1.394 . S
C2584 H2600 0.931 . S
C2585 C2584 1.391 . S
C2585 C2589 1.376 . S
C2586 C2584 1.394 . S
C2586 C2587 1.369 . S
C2586 C2590 1.531 . S
C2587 C2586 1.369 . S
C2587 C2588 1.410 . S
C2587 C2595 1.503 . S
C2588 C2587 1.410 . S
C2588 C2589 1.392 . S
C2588 C2591 1.511 . S
C2589 C2585 1.376 . S
C2589 C2588 1.392 . S
C2589 H2601 0.929 . S
C2590 C2586 1.531 . S
C2590 H2602 0.960 . S
C2590 H2603 0.962 . S
C2590 H2604 0.960 . S
C2591 C2588 1.511 . S
C2591 H2605 0.961 . S
C2591 H2606 0.961 . S
C2591 H2607 0.961 . S
C2592 C2593 1.370 . S
C2592 C2594 1.363 . S
C2592 H2608 0.931 . S
C2593 C2592 1.370 . S
C2593 C2597 1.408 . S
C2594 C2592 1.363 . S
C2594 C2595 1.370 . S
C2594 C2598 1.524 . S
C2595 C2587 1.503 . S
C2595 C2594 1.370 . S
C2595 C2596 1.403 . S
C2596 C2595 1.403 . S
C2596 C2597 1.404 . S
C2596 C2599 1.539 . S
C2597 C2593 1.408 . S
C2597 C2596 1.404 . S
C2597 H2609 0.930 . S
C2598 C2594 1.524 . S
C2598 H2610 0.956 . S
C2598 H2611 0.961 . S
C2598 H2612 0.961 . S
C2599 C2596 1.539 . S
C2599 H2613 0.958 . S
C2599 H2614 0.961 . S
C2599 H2615 0.960 . S
H2600 C2584 0.931 . S
H2601 C2589 0.929 . S
H2602 C2590 0.960 . S
H2603 C2590 0.962 . S
H2604 C2590 0.960 . S
H2605 C2591 0.961 . S
H2606 C2591 0.961 . S
H2607 C2591 0.961 . S
H2608 C2592 0.931 . S
H2609 C2597 0.930 . S
H2610 C2598 0.956 . S
H2611 C2598 0.961 . S
H2612 C2598 0.961 . S
H2613 C2599 0.958 . S
H2614 C2599 0.961 . S
H2615 C2599 0.960 . S
C2616 C2617 1.391 . S
C2616 C2618 1.394 . S
C2616 H2632 0.931 . S
C2617 C2616 1.391 . S
C2617 C2621 1.376 . S
C2618 C2616 1.394 . S
C2618 C2619 1.369 . S
C2618 C2622 1.531 . S
C2619 C2618 1.369 . S
C2619 C2620 1.410 . S
C2619 C2627 1.503 1_455 S
C2620 C2619 1.410 . S
C2620 C2621 1.392 . S
C2620 C2623 1.511 . S
C2621 C2617 1.376 . S
C2621 C2620 1.392 . S
C2621 H2633 0.929 . S
C2622 C2618 1.531 . S
C2622 H2634 0.960 1_455 S
C2622 H2635 0.962 . S
C2622 H2636 0.960 . S
C2623 C2620 1.511 . S
C2623 H2637 0.961 . S
C2623 H2638 0.961 1_455 S
C2623 H2639 0.961 1_455 S
C2624 C2625 1.370 . S
C2624 C2626 1.363 . S
C2624 H2640 0.931 . S
C2625 C2624 1.370 . S
C2625 C2629 1.408 . S
C2626 C2624 1.363 . S
C2626 C2627 1.370 . S
C2626 C2630 1.524 1_655 S
C2627 C2619 1.503 1_655 S
C2627 C2626 1.370 . S
C2627 C2628 1.403 . S
C2628 C2627 1.403 . S
C2628 C2629 1.404 . S
C2628 C2631 1.539 . S
C2629 C2625 1.408 . S
C2629 C2628 1.404 . S
C2629 H2641 0.930 . S
C2630 C2626 1.524 1_455 S
C2630 H2642 0.956 . S
C2630 H2643 0.961 . S
C2630 H2644 0.961 . S
C2631 C2628 1.539 . S
C2631 H2645 0.958 . S
C2631 H2646 0.961 . S
C2631 H2647 0.960 . S
H2632 C2616 0.931 . S
H2633 C2621 0.929 . S
H2634 C2622 0.960 1_655 S
H2635 C2622 0.962 . S
H2636 C2622 0.960 . S
H2637 C2623 0.961 . S
H2638 C2623 0.961 1_655 S
H2639 C2623 0.961 1_655 S
H2640 C2624 0.931 . S
H2641 C2629 0.930 . S
H2642 C2630 0.956 . S
H2643 C2630 0.961 . S
H2644 C2630 0.961 . S
H2645 C2631 0.958 . S
H2646 C2631 0.961 . S
H2647 C2631 0.960 . S
C2648 C2649 1.391 . S
C2648 C2650 1.394 . S
C2648 H2664 0.931 . S
C2649 C2648 1.391 . S
C2649 C2653 1.376 . S
C2650 C2648 1.394 . S
C2650 C2651 1.369 . S
C2650 C2654 1.531 . S
C2651 C2650 1.369 . S
C2651 C2652 1.410 . S
C2651 C2659 1.503 . S
C2652 C2651 1.410 . S
C2652 C2653 1.392 . S
C2652 C2655 1.511 . S
C2653 C2649 1.376 . S
C2653 C2652 1.392 . S
C2653 H2665 0.929 . S
C2654 C2650 1.531 . S
C2654 H2666 0.960 . S
C2654 H2667 0.962 . S
C2654 H2668 0.960 . S
C2655 C2652 1.511 . S
C2655 H2669 0.961 . S
C2655 H2670 0.961 . S
C2655 H2671 0.961 . S
C2656 C2657 1.370 . S
C2656 C2658 1.363 . S
C2656 H2672 0.931 . S
C2657 C2656 1.370 . S
C2657 C2661 1.408 . S
C2658 C2656 1.363 . S
C2658 C2659 1.370 . S
C2658 C2662 1.524 . S
C2659 C2651 1.503 . S
C2659 C2658 1.370 . S
C2659 C2660 1.403 . S
C2660 C2659 1.403 . S
C2660 C2661 1.404 . S
C2660 C2663 1.539 . S
C2661 C2657 1.408 . S
C2661 C2660 1.404 . S
C2661 H2673 0.930 . S
C2662 C2658 1.524 . S
C2662 H2674 0.956 . S
C2662 H2675 0.961 . S
C2662 H2676 0.961 . S
C2663 C2660 1.539 . S
C2663 H2677 0.958 . S
C2663 H2678 0.961 . S
C2663 H2679 0.960 . S
H2664 C2648 0.931 . S
H2665 C2653 0.929 . S
H2666 C2654 0.960 . S
H2667 C2654 0.962 . S
H2668 C2654 0.960 . S
H2669 C2655 0.961 . S
H2670 C2655 0.961 . S
H2671 C2655 0.961 . S
H2672 C2656 0.931 . S
H2673 C2661 0.930 . S
H2674 C2662 0.956 . S
H2675 C2662 0.961 . S
H2676 C2662 0.961 . S
H2677 C2663 0.958 . S
H2678 C2663 0.961 . S
H2679 C2663 0.960 . S
C2680 C2681 1.391 . S
C2680 C2682 1.394 . S
C2680 H2696 0.931 . S
C2681 C2680 1.391 . S
C2681 C2685 1.376 . S
C2682 C2680 1.394 . S
C2682 C2683 1.369 . S
C2682 C2686 1.527 . S
C2683 C2682 1.369 . S
C2683 C2684 1.410 . S
C2683 C2691 1.503 1_545 S
C2684 C2683 1.410 . S
C2684 C2685 1.392 . S
C2684 C2687 1.511 . S
C2685 C2681 1.376 . S
C2685 C2684 1.392 . S
C2685 H2697 0.929 . S
C2686 C2682 1.527 . S
C2686 H2698 0.961 1_545 S
C2686 H2699 0.964 1_545 S
C2686 H2700 0.961 . S
C2687 C2684 1.511 . S
C2687 H2701 0.961 . S
C2687 H2702 0.961 . S
C2687 H2703 0.961 . S
C2688 C2689 1.370 . S
C2688 C2690 1.363 . S
C2688 H2704 0.931 . S
C2689 C2688 1.370 . S
C2689 C2693 1.408 . S
C2690 C2688 1.363 . S
C2690 C2691 1.370 . S
C2690 C2694 1.524 . S
C2691 C2683 1.503 1_565 S
C2691 C2690 1.370 . S
C2691 C2692 1.403 . S
C2692 C2691 1.403 . S
C2692 C2693 1.404 . S
C2692 C2695 1.539 1_565 S
C2693 C2689 1.408 . S
C2693 C2692 1.404 . S
C2693 H2705 0.930 . S
C2694 C2690 1.524 . S
C2694 H2706 0.956 . S
C2694 H2707 0.961 . S
C2694 H2708 0.961 . S
C2695 C2692 1.539 1_545 S
C2695 H2709 0.958 . S
C2695 H2710 0.961 . S
C2695 H2711 0.960 . S
H2696 C2680 0.931 . S
H2697 C2685 0.929 . S
H2698 C2686 0.961 1_565 S
H2699 C2686 0.964 1_565 S
H2700 C2686 0.961 . S
H2701 C2687 0.961 . S
H2702 C2687 0.961 . S
H2703 C2687 0.961 . S
H2704 C2688 0.931 . S
H2705 C2693 0.930 . S
H2706 C2694 0.956 . S
H2707 C2694 0.961 . S
H2708 C2694 0.961 . S
H2709 C2695 0.958 . S
H2710 C2695 0.961 . S
H2711 C2695 0.960 . S
C2712 C2713 1.391 . S
C2712 C2714 1.394 1_556 S
C2712 H2728 0.931 1_556 S
C2713 C2712 1.391 . S
C2713 C2717 1.376 . S
C2714 C2712 1.394 1_554 S
C2714 C2715 1.369 1_554 S
C2714 C2718 1.531 . S
C2715 C2714 1.369 1_556 S
C2715 C2716 1.410 . S
C2715 C2723 1.503 1_546 S
C2716 C2715 1.410 . S
C2716 C2717 1.392 . S
C2716 C2719 1.511 1_545 S
C2717 C2713 1.376 . S
C2717 C2716 1.392 . S
C2717 H2729 0.929 . S
C2718 C2714 1.531 . S
C2718 H2730 0.960 . S
C2718 H2731 0.962 . S
C2718 H2732 0.960 . S
C2719 C2716 1.511 1_565 S
C2719 H2733 0.961 . S
C2719 H2734 0.961 . S
C2719 H2735 0.961 . S
C2720 C2721 1.370 . S
C2720 C2722 1.363 . S
C2720 H2736 0.931 . S
C2721 C2720 1.370 . S
C2721 C2725 1.408 . S
C2722 C2720 1.363 . S
C2722 C2723 1.370 . S
C2722 C2726 1.524 1_554 S
C2723 C2715 1.503 1_564 S
C2723 C2722 1.370 . S
C2723 C2724 1.403 . S
C2724 C2723 1.403 . S
C2724 C2725 1.404 . S
C2724 C2727 1.539 . S
C2725 C2721 1.408 . S
C2725 C2724 1.404 . S
C2725 H2737 0.930 . S
C2726 C2722 1.524 1_556 S
C2726 H2738 0.956 1_565 S
C2726 H2739 0.961 . S
C2726 H2740 0.961 . S
C2727 C2724 1.539 . S
C2727 H2741 0.958 . S
C2727 H2742 0.961 . S
C2727 H2743 0.960 . S
H2728 C2712 0.931 1_554 S
H2729 C2717 0.929 . S
H2730 C2718 0.960 . S
H2731 C2718 0.962 . S
H2732 C2718 0.960 . S
H2733 C2719 0.961 . S
H2734 C2719 0.961 . S
H2735 C2719 0.961 . S
H2736 C2720 0.931 . S
H2737 C2725 0.930 . S
H2738 C2726 0.956 1_545 S
H2739 C2726 0.961 . S
H2740 C2726 0.961 . S
H2741 C2727 0.958 . S
H2742 C2727 0.961 . S
H2743 C2727 0.960 . S
C2744 C2745 1.391 . S
C2744 C2746 1.394 . S
C2744 H2760 0.931 . S
C2745 C2744 1.391 . S
C2745 C2749 1.376 . S
C2746 C2744 1.394 . S
C2746 C2747 1.369 . S
C2746 C2750 1.531 1_655 S
C2747 C2746 1.369 . S
C2747 C2748 1.410 . S
C2747 C2755 1.503 1_656 S
C2748 C2747 1.410 . S
C2748 C2749 1.392 . S
C2748 C2751 1.514 . S
C2749 C2745 1.376 . S
C2749 C2748 1.392 . S
C2749 H2761 0.929 . S
C2750 C2746 1.531 1_455 S
C2750 H2762 0.960 . S
C2750 H2763 0.962 . S
C2750 H2764 0.960 . S
C2751 C2748 1.514 . S
C2751 H2765 0.958 1_556 S
C2751 H2766 0.956 1_556 S
C2751 H2767 0.965 . S
C2752 C2753 1.370 . S
C2752 C2754 1.363 . S
C2752 H2768 0.931 . S
C2753 C2752 1.370 . S
C2753 C2757 1.400 1_554 S
C2754 C2752 1.363 . S
C2754 C2755 1.370 . S
C2754 C2758 1.524 1_455 S
C2755 C2747 1.503 1_454 S
C2755 C2754 1.370 . S
C2755 C2756 1.403 1_554 S
C2756 C2755 1.403 1_556 S
C2756 C2757 1.408 . S
C2756 C2759 1.539 . S
C2757 C2753 1.400 1_556 S
C2757 C2756 1.408 . S
C2757 H2769 0.934 . S
C2758 C2754 1.524 1_655 S
C2758 H2770 0.956 . S
C2758 H2771 0.961 . S
C2758 H2772 0.961 1_655 S
C2759 C2756 1.539 . S
C2759 H2773 0.958 . S
C2759 H2774 0.961 . S
C2759 H2775 0.960 . S
H2760 C2744 0.931 . S
H2761 C2749 0.929 . S
H2762 C2750 0.960 . S
H2763 C2750 0.962 . S
H2764 C2750 0.960 . S
H2765 C2751 0.958 1_554 S
H2766 C2751 0.956 1_554 S
H2767 C2751 0.965 . S
H2768 C2752 0.931 . S
H2769 C2757 0.934 . S
H2770 C2758 0.956 . S
H2771 C2758 0.961 . S
H2772 C2758 0.961 1_455 S
H2773 C2759 0.958 . S
H2774 C2759 0.961 . S
H2775 C2759 0.960 . S
C2776 C2777 1.391 . S
C2776 C2778 1.394 . S
C2776 H2792 0.931 . S
C2777 C2776 1.391 . S
C2777 C2781 1.376 . S
C2778 C2776 1.394 . S
C2778 C2779 1.369 . S
C2778 C2782 1.531 1_556 S
C2779 C2778 1.369 . S
C2779 C2780 1.410 . S
C2779 C2787 1.503 1_556 S
C2780 C2779 1.410 . S
C2780 C2781 1.392 . S
C2780 C2783 1.511 . S
C2781 C2777 1.376 . S
C2781 C2780 1.392 . S
C2781 H2793 0.929 . S
C2782 C2778 1.531 1_554 S
C2782 H2794 0.960 . S
C2782 H2795 0.962 . S
C2782 H2796 0.960 . S
C2783 C2780 1.511 . S
C2783 H2797 0.961 . S
C2783 H2798 0.961 . S
C2783 H2799 0.961 . S
C2784 C2785 1.370 . S
C2784 C2786 1.363 . S
C2784 H2800 0.931 . S
C2785 C2784 1.370 . S
C2785 C2789 1.408 . S
C2786 C2784 1.363 . S
C2786 C2787 1.370 . S
C2786 C2790 1.524 . S
C2787 C2779 1.503 1_554 S
C2787 C2786 1.370 . S
C2787 C2788 1.403 1_554 S
C2788 C2787 1.403 1_556 S
C2788 C2789 1.404 1_556 S
C2788 C2791 1.539 . S
C2789 C2785 1.408 . S
C2789 C2788 1.404 1_554 S
C2789 H2801 0.930 1_554 S
C2790 C2786 1.524 . S
C2790 H2802 0.956 . S
C2790 H2803 0.961 . S
C2790 H2804 0.961 . S
C2791 C2788 1.539 . S
C2791 H2805 0.958 . S
C2791 H2806 0.961 . S
C2791 H2807 0.960 . S
H2792 C2776 0.931 . S
H2793 C2781 0.929 . S
H2794 C2782 0.960 . S
H2795 C2782 0.962 . S
H2796 C2782 0.960 . S
H2797 C2783 0.961 . S
H2798 C2783 0.961 . S
H2799 C2783 0.961 . S
H2800 C2784 0.931 . S
H2801 C2789 0.930 1_556 S
H2802 C2790 0.956 . S
H2803 C2790 0.961 . S
H2804 C2790 0.961 . S
H2805 C2791 0.958 . S
H2806 C2791 0.961 . S
H2807 C2791 0.960 . S
C505 C0 1.321 . S
C513 C103 1.315 . S
C537 C14 1.321 . S
C545 C117 1.313 . S
C569 C89 1.291 . S
C577 C28 1.307 . S
C601 C159 1.321 . S
C609 C42 1.315 . S
C633 C56 1.301 . S
C641 C131 1.310 . S
C665 C70 1.301 . S
C673 C145 1.309 . S
C697 C19 1.316 . S
C705 C84 1.316 . S
C729 C33 1.321 . S
C737 C98 1.317 . S
C761 C112 1.303 . S
C769 C5 1.309 . S
C793 C126 1.315 . S
C801 C75 1.311 . S
C825 C47 1.315 . S
C833 C140 1.316 . S
C857 C154 1.308 . S
C865 C61 1.311 . S
C889 C271 1.291 . S
C897 C168 1.306 . S
C921 C182 1.307 . S
C929 C285 1.305 . S
C953 C196 1.320 . S
C961 C257 1.316 . S
C985 C327 1.301 . S
C993 C210 1.313 . S
C1017 C224 1.309 . S
C1025 C299 1.306 . S
C1049 C313 1.316 . S
C1057 C238 1.317 . S
C1081 C187 1.299 . S
C1089 C252 1.310 . S
C1113 C266 1.309 . S
C1121 C201 1.308 . S
C1145 C173 1.290 . S
C1153 C280 1.306 . S
C1177 C294 1.310 . S
C1185 C243 1.308 . S
C1209 C308 1.298 . S
C1217 C215 1.303 . S
C1241 C322 1.319 . S
C1249 C229 1.313 . S
C1273 C439 1.290 . S
C1281 C336 1.307 . S
C1305 C453 1.293 . S
C1313 C350 1.306 . S
C1337 C425 1.306 . S
C1345 C364 1.315 . S
C1369 C378 1.318 . S
C1377 C495 1.315 . S
C1401 C392 1.320 . S
C1409 C467 1.312 . S
C1433 C481 1.293 . S
C1441 C406 1.306 . S
C1465 C420 1.317 . S
C1473 C355 1.312 . S
C1497 C369 1.293 . S
C1505 C434 1.306 . S
C1529 C341 1.311 . S
C1537 C448 1.311 . S
C1561 C462 1.296 . S
C1569 C411 1.304 . S
C1593 C476 1.318 . S
C1601 C383 1.313 . S
C1625 C490 1.320 . S
C1633 C397 1.314 . S
C1657 C51 1.358 . S
C1665 C9 1.345 . S
C1689 C65 1.359 . S
C1697 C23 1.351 . S
C1721 C37 1.356 . S
C1729 C79 1.353 . S
C1753 C135 1.360 . S
C1761 C93 1.350 . S
C1785 C149 1.327 . S
C1793 C107 1.344 . S
C1817 C163 1.349 . S
C1825 C121 1.343 . S
C1849 C219 1.343 . S
C1857 C177 1.339 . S
C1881 C233 1.356 . S
C1889 C191 1.353 . S
C1913 C205 1.331 . S
C1921 C247 1.338 . S
C1945 C303 1.336 1_554 S
C1953 C261 1.349 . S
C1977 C317 1.360 1_554 S
C1985 C275 1.353 . S
C2009 C331 1.360 1_554 S
C2017 C289 1.349 . S
C2041 C387 1.346 1_556 S
C2049 C345 1.353 . S
C2073 C359 1.344 . S
C2081 C401 1.353 1_556 S
C2105 C415 1.353 1_556 S
C2113 C373 1.342 . S
C2137 C429 1.327 . S
C2145 C471 1.344 . S
C2169 C443 1.327 . S
C2177 C485 1.344 . S
C2201 C457 1.360 . S
C2209 C499 1.352 . S
C2233 C11 1.428 . S
C2241 C263 1.435 . S
C2265 C277 1.423 . S
C2273 C25 1.436 . S
C2297 C291 1.431 . S
C2305 C39 1.434 . S
C2329 C473 1.433 . S
C2337 C53 1.432 . S
C2361 C487 1.423 . S
C2369 C67 1.437 . S
C2393 C501 1.422 . S
C2401 C81 1.438 . S
C2425 C95 1.421 . S
C2433 C347 1.438 . S
C2457 C361 1.439 . S
C2465 C109 1.430 . S
C2489 C375 1.429 . S
C2497 C123 1.433 . S
C2521 C137 1.421 . S
C2529 C221 1.437 . S
C2553 C151 1.423 . S
C2561 C235 1.437 . S
C2585 C165 1.431 . S
C2593 C249 1.434 . S
C2617 C431 1.436 . S
C2625 C179 1.431 . S
C2649 C445 1.434 . S
C2657 C193 1.433 . S
C2681 C207 1.421 . S
C2689 C459 1.437 . S
C2713 C305 1.425 . S
C2721 C389 1.435 . S
C2745 C319 1.439 . S
C2753 C403 1.430 . S
C2777 C333 1.438 . S
C2785 C417 1.430 . S
