# Generated by pormake.
# Topology vby, (6)-cn, num edge types: 1
# Building blocks:
#     Node 0, Type 0, BuildingBlock: KUMJIN_clean_sbu_0, # of connection points: 6
#     Node 1, Type 0, BuildingBlock: KUMJIN_clean_sbu_0, # of connection points: 6
#     Node 2, Type 0, BuildingBlock: KUMJIN_clean_sbu_0, # of connection points: 6
#     Node 3, Type 0, BuildingBlock: KUMJIN_clean_sbu_0, # of connection points: 6
#     Node 4, Type 0, BuildingBlock: KUMJIN_clean_sbu_0, # of connection points: 6
#     Node 5, Type 0, BuildingBlock: KUMJIN_clean_sbu_0, # of connection points: 6
#     Node 6, Type 0, BuildingBlock: KUMJIN_clean_sbu_0, # of connection points: 6
#     Node 7, Type 0, BuildingBlock: KUMJIN_clean_sbu_0, # of connection points: 6
#     Edge 8, Type (0, 0), BuildingBlock: UVAHIK_clean_linker_0, # of connection points: 2
#     Edge 9, Type (0, 0), BuildingBlock: UVAHIK_clean_linker_0, # of connection points: 2
#     Edge 10, Type (0, 0), BuildingBlock: UVAHIK_clean_linker_0, # of connection points: 2
#     Edge 11, Type (0, 0), BuildingBlock: UVAHIK_clean_linker_0, # of connection points: 2
#     Edge 12, Type (0, 0), BuildingBlock: UVAHIK_clean_linker_0, # of connection points: 2
#     Edge 13, Type (0, 0), BuildingBlock: UVAHIK_clean_linker_0, # of connection points: 2
#     Edge 14, Type (0, 0), BuildingBlock: UVAHIK_clean_linker_0, # of connection points: 2
#     Edge 15, Type (0, 0), BuildingBlock: UVAHIK_clean_linker_0, # of connection points: 2
#     Edge 16, Type (0, 0), BuildingBlock: UVAHIK_clean_linker_0, # of connection points: 2
#     Edge 17, Type (0, 0), BuildingBlock: UVAHIK_clean_linker_0, # of connection points: 2
#     Edge 18, Type (0, 0), BuildingBlock: UVAHIK_clean_linker_0, # of connection points: 2
#     Edge 19, Type (0, 0), BuildingBlock: UVAHIK_clean_linker_0, # of connection points: 2
#     Edge 20, Type (0, 0), BuildingBlock: UVAHIK_clean_linker_0, # of connection points: 2
#     Edge 21, Type (0, 0), BuildingBlock: UVAHIK_clean_linker_0, # of connection points: 2
#     Edge 22, Type (0, 0), BuildingBlock: UVAHIK_clean_linker_0, # of connection points: 2
#     Edge 23, Type (0, 0), BuildingBlock: UVAHIK_clean_linker_0, # of connection points: 2
#     Edge 24, Type (0, 0), BuildingBlock: UVAHIK_clean_linker_0, # of connection points: 2
#     Edge 25, Type (0, 0), BuildingBlock: UVAHIK_clean_linker_0, # of connection points: 2
#     Edge 26, Type (0, 0), BuildingBlock: UVAHIK_clean_linker_0, # of connection points: 2
#     Edge 27, Type (0, 0), BuildingBlock: UVAHIK_clean_linker_0, # of connection points: 2
#     Edge 28, Type (0, 0), BuildingBlock: UVAHIK_clean_linker_0, # of connection points: 2
#     Edge 29, Type (0, 0), BuildingBlock: UVAHIK_clean_linker_0, # of connection points: 2
#     Edge 30, Type (0, 0), BuildingBlock: UVAHIK_clean_linker_0, # of connection points: 2
#     Edge 31, Type (0, 0), BuildingBlock: UVAHIK_clean_linker_0, # of connection points: 2
# Relax obj value: 0.108
# Max RMSD: 0.192
# Mean RMSD: 0.192
data_MOF--net-vby--node1-KUMJIN_clean_sbu_0--edge1-UVAHIK_clean_linker_0
_symmetry_space_group_name_H-M    P1
_symmetry_Int_Tables_number       1
_symmetry_cell_setting            triclinic
loop_
_symmetry_equiv_pos_as_xyz
'x, y, z'
_cell_length_a     18.87564
_cell_length_b     115.79096
_cell_length_c     39.169633
_cell_angle_alpha  115.47638
_cell_angle_beta   89.906008
_cell_angle_gamma 90.472827
loop_
_atom_site_label
_atom_site_type_symbol
_atom_site_fract_x
_atom_site_fract_y
_atom_site_fract_z
_atom_type_partial_charge
Eu0 Eu 0.12428 0.39821 0.02921 0.0
C1 C 0.95015 0.35045 0.94066 0.0
C2 C 0.85532 0.35216 0.98422 0.0
C3 C 0.83212 0.34243 0.91669 0.0
C4 C 0.92632 0.35448 0.9773 0.0
C5 C 0.9039 0.34392 0.90989 0.0
C6 C 0.80789 0.34652 0.95383 0.0
C7 C 1.005 0.33877 0.86834 0.0
N8 N 1.02025 0.35161 0.93512 0.0
C9 C 0.04874 0.34507 0.89981 0.0
C10 C 0.93195 0.33844 0.87332 0.0
Eu11 Eu 0.09119 0.36333 0.98977 0.0
N12 N 0.97348 0.35995 0.00607 0.0
C13 C 0.954 0.36239 0.04219 0.0
C14 C 0.8345 0.35527 0.02139 0.0
C15 C 0.88444 0.36019 0.05039 0.0
H16 H 0.10544 0.34517 0.89582 0.0
H17 H 0.86932 0.36238 0.07918 0.0
H18 H 0.75292 0.34491 0.95869 0.0
H19 H 1.02772 0.3341 0.84034 0.0
H20 H 0.99123 0.36611 0.06516 0.0
H21 H 0.29596 0.39709 0.91423 0.0
H22 H 0.78052 0.35366 0.02786 0.0
H23 H 0.16364 0.41137 0.12401 0.0
H24 H 0.18587 0.3949 0.943 0.0
H25 H 0.26718 0.41841 0.1651 0.0
H26 H 0.79562 0.33763 0.89342 0.0
H27 H 0.40516 0.40414 0.95245 0.0
H28 H 0.46476 0.41122 0.01495 0.0
H29 H 0.89819 0.33338 0.84896 0.0
H30 H 0.45758 0.4165 0.0826 0.0
N31 N 0.23024 0.39973 -0.00228 0.0
C32 C 0.23226 0.39753 0.96046 0.0
C33 C 0.35646 0.40304 0.96548 0.0
C34 C 0.35409 0.40578 0.00383 0.0
C35 C 0.29512 0.39899 0.94381 0.0
C36 C 0.28927 0.40415 0.01954 0.0
H37 H 0.38495 0.41899 0.13844 0.0
N38 N 0.22205 0.40573 0.07238 0.0
C39 C 0.2735 0.41496 0.13484 0.0
C40 C 0.28537 0.40701 0.05766 0.0
C41 C 0.21483 0.4105 0.1109 0.0
C42 C 0.33969 0.41535 0.11973 0.0
C43 C 0.34599 0.41172 0.08095 0.0
O44 O 0.09711 0.41771 0.06866 0.0
O45 O 0.0413 0.38265 0.00737 0.0
O46 O 0.08752 0.3688 0.94088 0.0
O47 O 0.08228 0.39112 0.96895 0.0
O48 O 1.01345 0.39938 0.05334 0.0
O49 O 0.10239 0.4128 0.00897 0.0
O50 O 0.1447 0.34487 0.96189 0.0
O51 O 0.17488 0.37891 0.0131 0.0
O52 O 0.1061 0.3939 0.07922 0.0
O53 O 0.10632 0.37159 0.05351 0.0
O54 O 0.19844 0.36285 0.96348 0.0
O55 O 0.10537 0.3509 0.01846 0.0
C56 C 0.99083 0.38822 0.02983 0.0
C57 C 0.13607 0.43391 0.05112 0.0
C58 C 0.14929 0.45425 0.04643 0.0
C59 C 0.11082 0.44287 0.03866 0.0
C60 C 0.21335 0.45646 0.06667 0.0
C61 C 0.19973 0.43649 0.07168 0.0
C62 C 0.2382 0.44764 0.07915 0.0
C63 C 0.07876 0.37984 0.93922 0.0
C64 C 0.09574 0.42199 0.04286 0.0
C65 C 0.4106 0.41302 0.06516 0.0
C66 C 0.41462 0.41007 0.02671 0.0
C67 C 0.22287 0.37357 0.98859 0.0
C68 C 0.10385 0.32871 0.97904 0.0
C69 C 0.1395 0.3198 0.9884 0.0
C70 C 0.10958 0.30756 0.97907 0.0
C71 C 0.04418 0.30441 0.95989 0.0
C72 C 0.03857 0.32528 0.9602 0.0
C73 C 1.00909 0.31322 0.95062 0.0
C74 C 0.10516 0.38304 0.08242 0.0
C75 C 0.13389 0.34162 0.98944 0.0
H76 H 0.06163 0.44095 0.02285 0.0
H77 H 0.24361 0.46518 0.07366 0.0
H78 H 0.21956 0.43 0.08241 0.0
H79 H 0.28716 0.44951 0.09507 0.0
H80 H 0.18963 0.32245 0.00335 0.0
H81 H 1.02035 0.29505 0.95159 0.0
H82 H 1.01024 0.33189 0.95282 0.0
H83 H 0.9588 0.31068 0.93587 0.0
Eu84 Eu 0.97622 0.65028 0.02564 0.0
C85 C 0.78015 0.60607 0.95716 0.0
C86 C 0.71005 0.60791 0.01121 0.0
C87 C 0.65555 0.59964 0.94916 0.0
C88 C 0.7752 0.60942 -0.00442 0.0
C89 C 0.72035 0.60093 0.93352 0.0
C90 C 0.65041 0.60313 0.9879 0.0
C91 C 0.79413 0.59725 0.87974 0.0
N92 N 0.84371 0.60729 0.94257 0.0
C93 C 0.85201 0.60213 0.90403 0.0
C94 C 0.72769 0.59685 0.89458 0.0
Eu95 Eu 0.94032 0.61531 0.98628 0.0
N96 N 0.83341 0.61427 0.01777 0.0
C97 C 0.8299 0.6173 0.05562 0.0
C98 C 0.70642 0.61127 0.04993 0.0
C99 C 0.7667 0.61593 0.07216 0.0
H100 H 0.90359 0.60128 0.8913 0.0
H101 H 0.76467 0.61846 0.10215 0.0
H102 H 0.60005 0.60203 -0.00045 0.0
H103 H 0.80128 0.59348 0.84944 0.0
H104 H 0.87509 0.6207 0.07379 0.0
H105 H 0.2133 0.65237 0.94739 0.0
H106 H 0.65743 0.61027 0.06291 0.0
H107 H 0.94388 0.66869 0.11757 0.0
H108 H 0.08909 0.64782 0.95527 0.0
H109 H 1.01058 0.68098 0.17675 0.0
H110 H 0.60925 0.59579 0.93142 0.0
H111 H 0.29241 0.6619 0.003 0.0
H112 H 0.30694 0.67131 0.07343 0.0
H113 H 0.68306 0.59288 0.87562 0.0
H114 H 0.25195 0.67882 0.13622 0.0
N115 N 0.0962 0.6544 0.01513 0.0
C116 C 0.12206 0.65198 0.98006 0.0
C117 C 0.23744 0.65994 0.00677 0.0
C118 C 0.20986 0.6631 0.04281 0.0
C119 C 0.19293 0.65459 0.97535 0.0
C120 C 0.1379 0.66031 0.04617 0.0
H121 H 0.14113 0.68271 0.17504 0.0
N122 N 1.03622 0.66293 0.08331 0.0
C123 C 0.03851 0.67631 0.15019 0.0
C124 C 0.10712 0.66452 0.08144 0.0
C125 C 1.00097 0.6694 0.11669 0.0
C126 C 0.1122 0.67721 0.14913 0.0
C127 C 0.14723 0.67163 0.11434 0.0
O128 O 0.91635 0.66818 0.04881 0.0
O129 O 0.8917 0.63478 0.00243 0.0
O130 O 0.95557 0.61961 0.93598 0.0
O131 O 0.97201 0.64177 0.96155 0.0
O132 O 0.86831 0.65095 0.05165 0.0
O133 O 0.96901 0.66228 -0.00473 0.0
O134 O 0.96892 0.59578 0.9477 0.0
O135 O 1.02349 0.63076 0.00695 0.0
O136 O 0.99055 0.64467 0.07387 0.0
O137 O 0.98146 0.62231 0.04669 0.0
O138 O 0.05193 0.61377 0.96242 0.0
O139 O 0.96017 0.6009 0.00744 0.0
C140 C 0.84351 0.64025 0.02665 0.0
C141 C 0.96162 0.68449 0.03341 0.0
C142 C 0.95348 0.70577 0.03453 0.0
C143 C 0.92482 0.69341 0.02452 0.0
C144 C 1.01851 0.70907 0.05403 0.0
C145 C 1.02649 0.68808 0.0526 0.0
C146 C 0.05456 0.70029 0.06296 0.0
C147 C 0.96573 0.63037 0.93276 0.0
C148 C 0.93382 0.67136 0.02179 0.0
C149 C 0.22005 0.67356 0.11124 0.0
C150 C 0.25131 0.66932 0.0755 0.0
C151 C 0.07449 0.62504 0.98515 0.0
C152 C 0.92895 0.57963 0.96529 0.0
C153 C 0.954 0.57077 0.97821 0.0
C154 C 0.91606 0.55933 0.97023 0.0
C155 C 0.85271 0.55694 0.94933 0.0
C156 C 0.86612 0.57686 0.94402 0.0
C157 C 0.82812 0.56565 0.93636 0.0
C158 C 0.99281 0.63356 0.07576 0.0
C159 C 0.96873 0.59163 0.97381 0.0
H160 H 0.87501 0.69065 0.0093 0.0
H161 H 0.04133 0.71854 0.06274 0.0
H162 H 0.05577 0.68145 0.05946 0.0
H163 H 0.10461 0.70293 0.07791 0.0
H164 H 1.00263 0.57282 0.99452 0.0
H165 H 0.82288 0.54817 0.9422 0.0
H166 H 0.84657 0.58325 0.93284 0.0
H167 H 0.77977 0.56364 0.9199 0.0
Eu168 Eu 0.1256 0.61551 0.48095 0.0
C169 C 0.98334 0.66506 0.60007 0.0
C170 C 0.87069 0.66695 0.5735 0.0
C171 C 0.88434 0.67528 0.64166 0.0
C172 C 0.94149 0.66273 0.56884 0.0
C173 C 0.95576 0.67162 0.63688 0.0
C174 C 0.84186 0.67295 0.61001 0.0
C175 C 0.07287 0.67141 0.66145 0.0
N176 N 0.05238 0.66157 0.59443 0.0
C177 C 0.09785 0.66499 0.62441 0.0
C178 C 1.00133 0.67462 0.66775 0.0
Eu179 Eu 0.09041 0.65033 0.53089 0.0
N180 N 0.97123 0.65702 0.53401 0.0
C181 C 0.93456 0.65606 0.50285 0.0
C182 C 0.83167 0.66535 0.54141 0.0
C183 C 0.86412 0.66005 0.50599 0.0
H184 H 0.15312 0.66248 0.61981 0.0
H185 H 0.83481 0.65896 0.48105 0.0
H186 H 0.78735 0.67612 0.61412 0.0
H187 H 0.10876 0.67386 0.68511 0.0
H188 H 0.95873 0.65192 0.47528 0.0
H189 H 0.37981 0.60822 0.53475 0.0
H190 H 0.77708 0.66842 0.54376 0.0
H191 H 0.0666 0.60216 0.39152 0.0
H192 H 0.25444 0.61453 0.53853 0.0
H193 H 0.11456 0.59083 0.32676 0.0
H194 H 0.86197 0.68022 0.6697 0.0
H195 H 0.44164 0.59947 0.47313 0.0
H196 H 0.43544 0.59203 0.40272 0.0
H197 H 0.98217 0.67963 0.69647 0.0
H198 H 0.36323 0.58738 0.34596 0.0
N199 N 0.24582 0.60973 0.47982 0.0
C200 C 0.28074 0.61069 0.51145 0.0
C201 C 0.38658 0.60222 0.47462 0.0
C202 C 0.34923 0.60056 0.44196 0.0
C203 C 0.35182 0.60712 0.50943 0.0
C204 C 0.27773 0.60435 0.44549 0.0
H205 H 0.24311 0.58661 0.31731 0.0
N206 N 0.16736 0.60466 0.41808 0.0
C207 C 0.14974 0.59394 0.35092 0.0
C208 C 0.23736 0.60182 0.41359 0.0
C209 C 0.12275 0.60034 0.38755 0.0
C210 C 0.22239 0.59163 0.34571 0.0
C211 C 0.26699 0.59533 0.37725 0.0
O212 O 0.05905 0.59827 0.4605 0.0
O213 O 0.043 0.63061 0.5062 0.0
O214 O 0.05898 0.64112 0.56899 0.0
O215 O 0.13133 0.62318 0.54557 0.0
O216 O 1.01341 0.61481 0.45811 0.0
O217 O 0.13301 0.60182 0.50587 0.0
O218 O 0.15855 0.66735 0.55048 0.0
O219 O 0.1736 0.63522 0.50529 0.0
O220 O 0.14834 0.62451 0.44077 0.0
O221 O 0.07665 0.64249 0.46712 0.0
O222 O 0.20075 0.65058 0.55493 0.0
O223 O 0.08786 0.66325 0.50334 0.0
C224 C 0.99167 0.62559 0.4837 0.0
C225 C 0.11089 0.58015 0.46344 0.0
C226 C 0.10804 0.55812 0.45715 0.0
C227 C 0.08769 0.57109 0.4764 0.0
C228 C 0.15301 0.55451 0.42562 0.0
C229 C 0.15523 0.57614 0.43174 0.0
C230 C 0.1764 0.56346 0.41313 0.0
C231 C 0.09067 0.63153 0.57239 0.0
C232 C 0.08817 0.59368 0.48222 0.0
C233 C 0.33924 0.59222 0.37363 0.0
C234 C 0.38033 0.59485 0.40595 0.0
C235 C 0.22365 0.64004 0.52883 0.0
C236 C 0.11195 0.68503 0.54302 0.0
C237 C 0.14426 0.6936 0.53069 0.0
C238 C 0.12343 0.70656 0.546 0.0
C239 C 0.07043 0.71075 0.57394 0.0
C240 C 0.05939 0.68952 0.57089 0.0
C241 C 0.03881 0.70228 0.58622 0.0
C242 C 0.11341 0.63405 0.43861 0.0
C243 C 0.13271 0.67144 0.52684 0.0
H244 H 0.05297 0.57405 0.5007 0.0
H245 H 0.17065 0.54472 0.41067 0.0
H246 H 0.17321 0.58276 0.42103 0.0
H247 H 0.21086 0.56054 0.38877 0.0
H248 H 0.1847 0.69016 0.50901 0.0
H249 H 0.05405 0.72065 0.58681 0.0
H250 H 1.0344 0.68319 0.58097 0.0
H251 H 0.99833 0.70564 0.60784 0.0
Eu252 Eu 0.98364 0.36125 0.48256 0.0
C253 C 0.83637 0.40975 0.59952 0.0
C254 C 0.72471 0.41108 0.57107 0.0
C255 C 0.73439 0.41935 0.6394 0.0
C256 C 0.79618 0.40727 0.56759 0.0
C257 C 0.80657 0.41619 0.63584 0.0
C258 C 0.6935 0.41678 0.60705 0.0
C259 C 0.92352 0.41738 0.66232 0.0
N260 N 0.90632 0.40685 0.59511 0.0
C261 C 0.9507 0.41105 0.62572 0.0
C262 C 0.85092 0.41978 0.66744 0.0
Eu263 Eu 0.94827 0.39607 0.53226 0.0
N264 N 0.82816 0.40188 0.53328 0.0
C265 C 0.79332 0.4009 0.50161 0.0
C266 C 0.68748 0.40942 0.53839 0.0
C267 C 0.72229 0.40449 0.50359 0.0
H268 H 1.00681 0.40916 0.62183 0.0
H269 H 0.69437 0.40338 0.47824 0.0
H270 H 0.63841 0.41961 0.61024 0.0
H271 H 0.95851 0.42038 0.68654 0.0
H272 H 0.81967 0.39703 0.47454 0.0
H273 H 0.23858 0.35277 0.53335 0.0
H274 H 0.63245 0.41218 0.53983 0.0
H275 H 0.92211 0.34909 0.39342 0.0
H276 H 0.11453 0.35973 0.53866 0.0
H277 H 0.96741 0.33778 0.32827 0.0
H278 H 0.71028 0.42416 0.66705 0.0
H279 H 0.29718 0.34337 0.47087 0.0
H280 H 0.2879 0.33571 0.40049 0.0
H281 H 0.83007 0.42475 0.69582 0.0
H282 H 0.21406 0.3316 0.34462 0.0
N283 N 0.10286 0.35463 0.4799 0.0
C284 C 0.1391 0.35561 0.51119 0.0
C285 C 0.24254 0.3464 0.47301 0.0
C286 C 0.20396 0.34479 0.44078 0.0
C287 C 0.20961 0.35167 0.50831 0.0
C288 C 0.13308 0.34896 0.44517 0.0
H289 H 0.09421 0.33212 0.3174 0.0
N290 N 1.02254 0.35007 0.41916 0.0
C291 C 1.00298 0.34025 0.35207 0.0
C292 C 0.09167 0.34663 0.41379 0.0
C293 C 0.97746 0.34663 0.38902 0.0
C294 C 0.07464 0.3371 0.34605 0.0
C295 C 0.11978 0.34011 0.37709 0.0
O296 O 0.91592 0.34417 0.46268 0.0
O297 O 0.90027 0.37636 0.50789 0.0
O298 O 0.92387 0.387 0.57203 0.0
O299 O 0.99639 0.36912 0.54647 0.0
O300 O 0.8734 0.36094 0.4583 0.0
O301 O 0.98607 0.3483 0.51004 0.0
O302 O 1.01479 0.4133 0.55288 0.0
O303 O 1.03089 0.38097 0.50731 0.0
O304 O 1.01538 0.37046 0.44449 0.0
O305 O 0.94288 0.38838 0.46765 0.0
O306 O 0.06036 0.39677 0.55533 0.0
O307 O 0.94096 0.40979 0.50745 0.0
C308 C 0.85037 0.37151 0.48428 0.0
C309 C 0.96291 0.3265 0.4701 0.0
C310 C 0.95305 0.30496 0.46725 0.0
C311 C 0.93161 0.3179 0.48263 0.0
C312 C 1.00559 0.30084 0.43906 0.0
C313 C 1.015 0.32206 0.44196 0.0
C314 C 1.03617 0.30934 0.42659 0.0
C315 C 0.95876 0.37754 0.57462 0.0
C316 C 0.94164 0.34008 0.48633 0.0
C317 C 0.19128 0.3365 0.37258 0.0
C318 C 0.23331 0.33884 0.40439 0.0
C319 C 0.08219 0.38599 0.52982 0.0
C320 C 0.963 0.43145 0.55007 0.0
C321 C 0.9858 0.44051 0.53706 0.0
C322 C 0.96553 0.45349 0.55641 0.0
C323 C 0.92098 0.45709 0.58811 0.0
C324 C 0.91916 0.43546 0.58198 0.0
C325 C 0.89801 0.44814 0.60067 0.0
C326 C 0.98377 0.38004 0.44096 0.0
C327 C 0.98573 0.41792 0.5312 0.0
H328 H 0.8915 0.32129 0.50449 0.0
H329 H 1.0224 0.29096 0.42614 0.0
H330 H 0.03917 0.32841 0.43171 0.0
H331 H 0.07628 0.30603 0.40476 0.0
H332 H 1.0202 0.43756 0.51262 0.0
H333 H 0.90338 0.46688 0.60314 0.0
H334 H 0.9016 0.42884 0.59278 0.0
H335 H 0.86392 0.45105 0.62517 0.0
Eu336 Eu 0.63081 0.89896 0.02505 0.0
C337 C 0.47365 0.84858 0.92778 0.0
C338 C 0.36467 0.8501 0.96205 0.0
C339 C 0.36574 0.83864 0.89354 0.0
C340 C 0.43707 0.85318 0.96157 0.0
C341 C 0.43899 0.84086 0.89352 0.0
C342 C 0.32862 0.84325 0.92778 0.0
C343 C 0.5533 0.83636 0.8629 0.0
N344 N 0.54474 0.85052 0.92898 0.0
C345 C 0.58532 0.84394 0.89767 0.0
C346 C 0.47964 0.83502 0.86066 0.0
Eu347 Eu 0.59511 0.86416 0.98849 0.0
N348 N 0.47387 0.85956 0.99419 0.0
C349 C 0.44283 0.86213 0.02823 0.0
C350 C 0.33148 0.8535 -0.00303 0.0
C351 C 0.37114 0.8593 0.03016 0.0
H352 H 0.64232 0.84506 0.89932 0.0
H353 H 0.34644 0.86169 0.0573 0.0
H354 H 0.27273 0.841 0.92758 0.0
H355 H 0.58543 0.83155 0.83791 0.0
H356 H 0.47237 0.86666 0.05424 0.0
H357 H 0.8186 0.89228 0.91077 0.0
H358 H 0.27596 0.85133 -0.00144 0.0
H359 H 0.65207 0.91705 0.11895 0.0
H360 H 0.70563 0.8902 0.93784 0.0
H361 H 0.74753 0.92818 0.16417 0.0
H362 H 0.33795 0.83289 0.86743 0.0
H363 H 0.92022 0.90293 0.95236 0.0
H364 H 0.96943 0.91423 0.01771 0.0
H365 H 0.45499 0.82903 0.83378 0.0
H366 H 0.95103 0.9235 0.08642 0.0
N367 N 0.74013 0.89974 -0.00469 0.0
C368 C 0.7481 0.89504 0.95693 0.0
C369 C 0.86993 0.9022 0.9647 0.0
C370 C 0.86157 0.90721 0.00388 0.0
C371 C 0.81277 0.89617 0.94116 0.0
C372 C 0.79494 0.90598 0.01862 0.0
H373 H 0.86897 0.92868 0.14114 0.0
N374 N 0.71984 0.91006 0.07076 0.0
C375 C 0.75913 0.92324 0.13427 0.0
C376 C 0.78479 0.9111 0.05736 0.0
C377 C 0.7054 0.91673 0.10852 0.0
C378 C 0.82747 0.92354 0.12116 0.0
C379 C 0.8407 0.9177 0.08228 0.0
O380 O 0.58867 0.9181 0.05808 0.0
O381 O 0.54684 0.88362 0.00582 0.0
O382 O 0.57719 0.86902 0.93896 0.0
O383 O 0.59246 0.89124 0.96399 0.0
O384 O 0.52318 0.90038 0.05272 0.0
O385 O 0.61864 0.91238 -0.00022 0.0
O386 O 0.65863 0.84675 0.97086 0.0
O387 O 0.67901 0.87967 0.01065 0.0
O388 O 0.634 0.89463 0.07603 0.0
O389 O 0.59187 0.87354 0.0528 0.0
O390 O 0.70504 0.86308 0.96372 0.0
O391 O 0.59473 0.85281 0.02101 0.0
C392 C 0.49844 0.88934 0.02957 0.0
C393 C 0.52757 0.92761 0.02399 0.0
C394 C 0.47587 0.94551 0.01525 0.0
C395 C 0.53543 0.93918 0.02067 0.0
C396 C 0.40831 0.93999 0.01343 0.0
C397 C 0.4599 0.9222 0.02128 0.0
C398 C 0.40065 0.92842 0.01621 0.0
C399 C 0.57774 0.87994 0.93586 0.0
C400 C 0.59061 0.92128 0.02994 0.0
C401 C 0.90743 0.91859 0.06769 0.0
C402 C 0.91782 0.91337 0.02858 0.0
C403 C 0.72876 0.87401 0.98785 0.0
C404 C 0.60899 0.83057 0.98546 0.0
C405 C 0.64701 0.82175 0.99427 0.0
C406 C 0.61998 0.80925 0.98379 0.0
C407 C 0.55552 0.8057 0.96381 0.0
C408 C 0.54467 0.82673 0.96582 0.0
C409 C 0.51834 0.81438 0.95491 0.0
C410 C 0.61207 0.88453 0.08063 0.0
C411 C 0.63497 0.84383 -0.00256 0.0
H412 H 0.58814 0.9431 0.02178 0.0
H413 H 0.36105 0.94466 0.01019 0.0
H414 H 0.45274 0.91322 0.02315 0.0
H415 H 0.34845 0.92426 0.01453 0.0
H416 H 0.69642 0.82468 0.00981 0.0
H417 H 0.53399 0.79613 0.95475 0.0
H418 H 0.51441 0.83328 0.95908 0.0
H419 H 0.4687 0.81155 0.93962 0.0
Eu420 Eu 0.47289 0.15066 0.03296 0.0
C421 C 0.27385 0.10825 0.97158 0.0
C422 C 0.21075 0.10821 0.02566 0.0
C423 C 0.14914 0.10187 0.96605 0.0
C424 C 0.27391 0.11023 0.00929 0.0
C425 C 0.21092 0.10409 0.94983 0.0
C426 C 0.14897 0.10397 0.00385 0.0
C427 C 0.27331 0.1046 0.89692 0.0
N428 N 0.33384 0.11074 0.95641 0.0
C429 C 0.33445 0.10854 0.91907 0.0
C430 C 0.21124 0.1024 0.91234 0.0
Eu431 Eu 0.43678 0.11565 -0.00442 0.0
N432 N 0.33406 0.11463 0.0304 0.0
C433 C 0.33373 0.11683 0.06777 0.0
C434 C 0.21073 0.11068 0.0638 0.0
C435 C 0.27241 0.11502 0.08488 0.0
H436 H 0.38179 0.10927 0.90492 0.0
H437 H 0.27306 0.11687 0.11443 0.0
H438 H 0.10039 0.1024 0.0161 0.0
H439 H 0.27459 0.103 0.86759 0.0
H440 H 0.37988 0.11978 0.08536 0.0
H441 H 0.72341 0.15429 0.96787 0.0
H442 H 0.16329 0.10929 0.07727 0.0
H443 H 0.4216 0.16835 0.12219 0.0
H444 H 0.59817 0.14849 0.96919 0.0
H445 H 0.4751 0.18179 0.18456 0.0
H446 H 0.10079 0.09866 0.94965 0.0
H447 H 0.7906 0.16513 0.02761 0.0
H448 H 0.79058 0.17529 0.09865 0.0
H449 H 0.16399 0.09928 0.89496 0.0
H450 H 0.72295 0.18265 0.15798 0.0
N451 N 0.59379 0.15578 0.02918 0.0
C452 C 0.62634 0.15325 -0.00444 0.0
C453 C 0.73535 0.16265 0.02841 0.0
C454 C 0.70076 0.16581 0.06285 0.0
C455 C 0.69756 0.15656 0.99465 0.0
C456 C 0.6288 0.16233 0.06229 0.0
H457 H 0.60483 0.18537 0.19026 0.0
N458 N 0.5204 0.16397 0.09344 0.0
C459 C 0.5084 0.17746 0.15982 0.0
C460 C 0.59098 0.16647 0.09559 0.0
C461 C 0.47827 0.16988 0.12451 0.0
C462 C 0.58168 0.17941 0.16294 0.0
C463 C 0.62376 0.17417 0.13044 0.0
O464 O 0.40442 0.16743 0.04917 0.0
O465 O 0.38825 0.13505 0.01036 0.0
O466 O 0.47209 0.11896 0.94525 0.0
O467 O 0.47715 0.14129 0.96848 0.0
O468 O 0.36638 0.15121 0.05995 0.0
O469 O 0.47482 0.16248 0.00188 0.0
O470 O 0.454 0.09689 0.94875 0.0
O471 O 0.51726 0.13117 0.0096 0.0
O472 O 0.49824 0.14481 0.08019 0.0
O473 O 0.47611 0.12265 0.05599 0.0
O474 O 0.5573 0.11329 -0.00487 0.0
O475 O 0.44131 0.09855 0.0058 0.0
C476 C 0.34113 0.14052 0.03527 0.0
C477 C 0.45269 0.18443 0.03801 0.0
C478 C 0.43934 0.20569 0.03966 0.0
C479 C 0.41546 0.19293 0.02753 0.0
C480 C 0.49978 0.20982 0.06291 0.0
C481 C 0.51297 0.18884 0.06099 0.0
C482 C 0.53611 0.20145 0.07349 0.0
C483 C 0.47949 0.12958 0.9406 0.0
C484 C 0.43042 0.17089 0.02417 0.0
C485 C 0.69656 0.1769 0.13142 0.0
C486 C 0.73503 0.17273 0.09765 0.0
C487 C 0.57472 0.12509 0.00548 0.0
C488 C 0.51274 0.08163 0.96436 0.0
C489 C 0.50079 0.07115 0.97294 0.0
C490 C 0.55505 0.0623 0.9683 0.0
C491 C 0.62145 0.06411 0.95492 0.0
C492 C 0.57917 0.0831 0.95043 0.0
C493 C 0.63317 0.0744 0.94593 0.0
C494 C 0.49555 0.13384 0.08332 0.0
C495 C 0.45558 0.09096 0.97061 0.0
H496 H 0.36924 0.18955 0.00942 0.0
H497 H 0.51874 0.2196 0.0732 0.0
H498 H 0.54258 0.18253 0.06908 0.0
H499 H 0.58264 0.20473 0.09132 0.0
H500 H 0.44955 0.06997 0.98365 0.0
H501 H 0.66398 0.05741 0.9507 0.0
H502 H 0.58953 0.09094 0.94301 0.0
H503 H 0.68428 0.07561 0.93527 0.0
Eu504 Eu 0.64667 0.1142 0.4878 0.0
C505 C 0.50271 0.16387 0.60467 0.0
C506 C 0.39011 0.16544 0.57749 0.0
C507 C 0.40333 0.17422 0.64576 0.0
C508 C 0.46102 0.16129 0.57321 0.0
C509 C 0.47486 0.17063 0.64133 0.0
C510 C 0.361 0.17162 0.61389 0.0
C511 C 0.59197 0.17079 0.66639 0.0
N512 N 0.57188 0.16044 0.59936 0.0
C513 C 0.61722 0.16415 0.62947 0.0
C514 C 0.52029 0.17392 0.67238 0.0
Eu515 Eu 0.61044 0.14889 0.53606 0.0
N516 N 0.49102 0.15541 0.53847 0.0
C517 C 0.45445 0.1542 0.50702 0.0
C518 C 0.35124 0.1636 0.54514 0.0
C519 C 0.38392 0.15811 0.50981 0.0
H520 H 0.6726 0.16171 0.62511 0.0
H521 H 0.35472 0.15683 0.48465 0.0
H522 H 0.3064 0.17474 0.61771 0.0
H523 H 0.62777 0.17348 0.69018 0.0
H524 H 0.47874 0.14992 0.4795 0.0
H525 H 0.90313 0.1083 0.54254 0.0
H526 H 0.29658 0.16661 0.54721 0.0
H527 H 0.58552 0.09975 0.39892 0.0
H528 H 0.77779 0.11464 0.54624 0.0
H529 H 0.63177 0.08732 0.33429 0.0
H530 H 0.38075 0.17931 0.6737 0.0
H531 H 0.96297 0.09831 0.48045 0.0
H532 H 0.9544 0.08941 0.40969 0.0
H533 H 0.50093 0.1791 0.701 0.0
H534 H 0.88047 0.08368 0.35292 0.0
N535 N 0.76733 0.10867 0.48696 0.0
C536 C 0.80329 0.11027 0.51896 0.0
C537 C 0.90792 0.10106 0.4819 0.0
C538 C 0.8694 0.09869 0.44901 0.0
C539 C 0.8743 0.10667 0.51699 0.0
C540 C 0.79791 0.1025 0.45249 0.0
H541 H 0.75983 0.08262 0.32455 0.0
N542 N 0.6867 0.10233 0.42509 0.0
C543 C 0.66746 0.09068 0.35828 0.0
C544 C 0.75636 0.09925 0.42056 0.0
C545 C 0.64144 0.0977 0.39485 0.0
C546 C 0.73982 0.08809 0.35289 0.0
C547 C 0.78508 0.09217 0.38427 0.0
O548 O 0.58097 0.09688 0.46913 0.0
O549 O 0.56357 0.12918 0.51257 0.0
O550 O 0.5794 0.14006 0.57539 0.0
O551 O 0.65116 0.12205 0.55255 0.0
O552 O 0.534 0.1131 0.4652 0.0
O553 O 0.66072 0.10062 0.51224 0.0
O554 O 0.67818 0.16596 0.55503 0.0
O555 O 0.69452 0.13391 0.51056 0.0
O556 O 0.66612 0.12245 0.44538 0.0
O557 O 0.59653 0.14073 0.47209 0.0
O558 O 0.72047 0.14932 0.56045 0.0
O559 O 0.60735 0.16162 0.50785 0.0
C560 C 0.51215 0.12395 0.49033 0.0
C561 C 0.56166 0.08834 0.51358 0.0
C562 C 0.5228 0.07096 0.52931 0.0
C563 C 0.56653 0.07558 0.50858 0.0
C564 C 0.47396 0.0794 0.55504 0.0
C565 C 0.51276 0.09655 0.53939 0.0
C566 C 0.46913 0.09207 0.55998 0.0
C567 C 0.61015 0.13043 0.57911 0.0
C568 C 0.60974 0.09303 0.49265 0.0
C569 C 0.85725 0.089 0.38058 0.0
C570 C 0.89934 0.09225 0.41291 0.0
C571 C 0.74417 0.13887 0.53429 0.0
C572 C 0.63113 0.18348 0.5468 0.0
C573 C 0.66295 0.19196 0.53395 0.0
C574 C 0.64174 0.2049 0.54882 0.0
C575 C 0.58895 0.20915 0.57687 0.0
C576 C 0.57875 0.18804 0.57475 0.0
C577 C 0.55785 0.20078 0.58966 0.0
C578 C 0.63137 0.13201 0.44319 0.0
C579 C 0.65214 0.1699 0.53109 0.0
H580 H 0.60541 0.06936 0.48907 0.0
H581 H 0.4388 0.07617 0.57111 0.0
H582 H 0.50862 0.10641 0.54368 0.0
H583 H 0.43138 0.09844 0.57987 0.0
H584 H 0.70328 0.18846 0.51221 0.0
H585 H 0.57231 0.21904 0.58943 0.0
H586 H 0.55412 0.18179 0.58521 0.0
H587 H 0.51752 0.20419 0.61136 0.0
Eu588 Eu 0.47662 0.86233 0.47944 0.0
C589 C 0.33325 0.91215 0.59583 0.0
C590 C 0.2193 0.91283 0.56837 0.0
C591 C 0.23356 0.9225 0.6367 0.0
C592 C 0.2907 0.90895 0.56427 0.0
C593 C 0.3056 0.91924 0.63238 0.0
C594 C 0.19048 0.9193 0.60474 0.0
C595 C 0.42387 0.92047 0.65739 0.0
N596 N 0.40275 0.90897 0.5907 0.0
C597 C 0.44882 0.91345 0.62059 0.0
C598 C 0.35173 0.9232 0.66338 0.0
Eu599 Eu 0.44078 0.89706 0.52764 0.0
N600 N 0.3202 0.90274 0.52953 0.0
C601 C 0.28326 0.90117 0.49785 0.0
C602 C 0.17975 0.91049 0.53582 0.0
C603 C 0.21229 0.90484 0.50044 0.0
H604 H 0.50456 0.91128 0.61609 0.0
H605 H 0.18266 0.90324 0.47514 0.0
H606 H 0.13552 0.92221 0.60844 0.0
H607 H 0.46021 0.92372 0.68109 0.0
H608 H 0.308 0.89677 0.47036 0.0
H609 H 0.73157 0.8543 0.53134 0.0
H610 H 0.12474 0.9133 0.53775 0.0
H611 H 0.41522 0.84964 0.39025 0.0
H612 H 0.6076 0.86125 0.53624 0.0
H613 H 0.4605 0.8379 0.32526 0.0
H614 H 0.21115 0.92782 0.66456 0.0
H615 H 0.79017 0.84453 0.4689 0.0
H616 H 0.78095 0.83643 0.39838 0.0
H617 H 0.33256 0.92867 0.69191 0.0
H618 H 0.70714 0.83193 0.34225 0.0
N619 N 0.59588 0.85577 0.47725 0.0
C620 C 0.63213 0.85697 0.50877 0.0
C621 C 0.73555 0.84755 0.47086 0.0
C622 C 0.697 0.84573 0.43843 0.0
C623 C 0.70261 0.85304 0.50613 0.0
C624 C 0.62613 0.8499 0.44258 0.0
H625 H 0.58729 0.8322 0.3147 0.0
N626 N 0.51563 0.85082 0.41621 0.0
C627 C 0.49608 0.84054 0.34913 0.0
C628 C 0.58476 0.84736 0.41104 0.0
C629 C 0.47057 0.84717 0.386 0.0
C630 C 0.56773 0.83738 0.34329 0.0
C631 C 0.61287 0.84062 0.37443 0.0
O632 O 0.40858 0.8453 0.46032 0.0
O633 O 0.39261 0.87736 0.50474 0.0
O634 O 0.41986 0.88878 0.56971 0.0
O635 O 0.4898 0.87052 0.54347 0.0
O636 O 0.36685 0.86193 0.45482 0.0
O637 O 0.47927 0.84956 0.50754 0.0
O638 O 0.50669 0.91433 0.54542 0.0
O639 O 0.52347 0.88203 0.50328 0.0
O640 O 0.50866 0.87124 0.44048 0.0
O641 O 0.43588 0.8891 0.46296 0.0
O642 O 0.55376 0.89819 0.55001 0.0
O643 O 0.42561 0.91054 0.50291 0.0
C644 C 0.34311 0.8724 0.48091 0.0
C645 C 0.45514 0.82774 0.46843 0.0
C646 C 0.44323 0.80628 0.46597 0.0
C647 C 0.42249 0.81924 0.48095 0.0
C648 C 0.49646 0.80202 0.43816 0.0
C649 C 0.50794 0.82317 0.44072 0.0
C650 C 0.52842 0.81041 0.42571 0.0
C651 C 0.45438 0.87924 0.57212 0.0
C652 C 0.43441 0.84133 0.48422 0.0
C653 C 0.68436 0.837 0.37015 0.0
C654 C 0.72637 0.83956 0.4021 0.0
C655 C 0.57524 0.88726 0.52521 0.0
C656 C 0.52431 0.92271 0.50043 0.0
C657 C 0.51869 0.93539 0.50487 0.0
C658 C 0.56157 0.93992 0.48357 0.0
C659 C 0.61015 0.93144 0.45775 0.0
C660 C 0.5731 0.91447 0.47462 0.0
C661 C 0.6157 0.91884 0.45336 0.0
C662 C 0.47803 0.88087 0.43676 0.0
C663 C 0.47707 0.91812 0.52196 0.0
H664 H 0.38185 0.82274 0.50251 0.0
H665 H 0.51277 0.79211 0.42552 0.0
H666 H 0.53321 0.82943 0.43051 0.0
H667 H 0.56908 0.80699 0.40419 0.0
H668 H 0.47995 0.94164 0.52442 0.0
H669 H 0.64463 0.93459 0.44123 0.0
H670 H 0.5779 0.90467 0.4708 0.0
H671 H 0.65327 0.91243 0.43341 0.0
C672 C 0.33411 0.37887 0.02902 0.0
C673 C 0.30116 0.37557 0.99385 0.0
C674 C 0.40848 0.38002 0.03261 0.0
C675 C 0.57161 0.38361 0.98224 0.0
H676 H 0.67011 0.37391 0.0525 0.0
C677 C 0.88178 0.38136 0.98764 0.0
C678 C 0.91313 0.38562 0.02362 0.0
C679 C 0.80753 0.37999 0.98328 0.0
C680 C 0.6436 0.37679 0.03293 0.0
H681 H 0.32088 0.36992 0.93443 0.0
H682 H 0.4496 0.37186 0.9404 0.0
H683 H 0.54143 0.37189 0.04718 0.0
H684 H 0.8908 0.39267 0.08333 0.0
H685 H 0.76239 0.39012 0.0759 0.0
H686 H 0.67409 0.38843 0.96788 0.0
C687 C 0.41858 0.37404 0.96566 0.0
C688 C 0.56932 0.37565 0.02993 0.0
C689 C 0.34452 0.37286 0.96214 0.0
C690 C 0.86841 0.38897 0.05513 0.0
C691 C 0.79461 0.38747 0.0508 0.0
C692 C 0.64596 0.38469 0.98514 0.0
C693 C 0.45209 0.37772 0.00099 0.0
C694 C 0.53183 0.37906 0.00455 0.0
C695 C 0.76272 0.3829 0.01482 0.0
C696 C 0.68328 0.38135 0.01066 0.0
H697 H 0.30236 0.38061 0.0538 0.0
H698 H 0.4316 0.38292 0.06038 0.0
H699 H 0.54523 0.38658 0.96284 0.0
H700 H 0.91461 0.37913 0.96293 0.0
H701 H 0.78534 0.37645 0.95509 0.0
C702 C 0.19671 0.62414 0.95938 0.0
C703 C 0.15218 0.62779 0.99106 0.0
C704 C 0.27059 0.62561 0.96344 0.0
C705 C 0.41475 0.64206 0.03446 0.0
H706 H 0.53467 0.61754 0.95725 0.0
C707 C 0.72117 0.64152 0.05313 0.0
C708 C 0.76505 0.63827 0.02131 0.0
C709 C 0.64708 0.64035 0.04946 0.0
C710 C 0.50232 0.62458 0.97897 0.0
H711 H 0.15127 0.6349 0.05195 0.0
H712 H 0.28043 0.6374 0.05935 0.0
H713 H 0.40647 0.61506 0.95171 0.0
H714 H 0.76453 0.63226 0.96084 0.0
H715 H 0.63515 0.63011 0.95412 0.0
H716 H 0.51094 0.65149 0.06189 0.0
C717 C 0.25817 0.63385 0.03119 0.0
C718 C 0.42814 0.62317 0.97576 0.0
C719 C 0.18386 0.63246 0.02704 0.0
C720 C 0.73248 0.63438 0.98576 0.0
C721 C 0.6581 0.63318 0.982 0.0
C722 C 0.48902 0.64343 0.03777 0.0
C723 C 0.30299 0.63047 -0.0006 0.0
C724 C 0.38279 0.6319 0.00337 0.0
C725 C 0.61401 0.6361 0.01382 0.0
C726 C 0.53426 0.63471 0.01006 0.0
H727 H 0.17406 0.62024 0.9312 0.0
H728 H 0.30221 0.62302 0.93818 0.0
H729 H 0.3824 0.64915 0.05608 0.0
H730 H 0.74444 0.64483 0.08104 0.0
H731 H 0.61578 0.64259 0.07467 0.0
C732 C 0.86982 0.62561 0.45844 0.0
C733 C 0.91439 0.62857 0.48989 0.0
C734 C 0.79599 0.62706 0.46262 0.0
C735 C 0.65203 0.6423 0.53405 0.0
H736 H 0.53155 0.61764 0.45625 0.0
C737 C 0.3465 0.64072 0.55391 0.0
C738 C 0.3016 0.63772 0.52255 0.0
C739 C 0.42045 0.63959 0.54966 0.0
C740 C 0.56408 0.62474 0.47809 0.0
H741 H 0.9152 0.63481 0.55048 0.0
H742 H 0.78638 0.63741 0.55806 0.0
H743 H 0.66003 0.61582 0.45006 0.0
H744 H 0.30023 0.63188 0.46215 0.0
H745 H 0.42937 0.62982 0.45444 0.0
H746 H 0.55601 0.65119 0.56213 0.0
C747 C 0.80859 0.63427 0.53002 0.0
C748 C 0.63835 0.62369 0.47455 0.0
C749 C 0.88277 0.63283 0.52578 0.0
C750 C 0.33301 0.63387 0.48675 0.0
C751 C 0.40731 0.63274 0.48243 0.0
C752 C 0.57776 0.64334 0.53761 0.0
C753 C 0.76369 0.63132 0.49843 0.0
C754 C 0.68386 0.63245 0.50245 0.0
C755 C 0.45247 0.63561 0.51388 0.0
C756 C 0.53228 0.63457 0.50972 0.0
H757 H 0.89228 0.62212 0.43033 0.0
H758 H 0.76421 0.62486 0.43757 0.0
H759 H 0.68454 0.64939 0.55592 0.0
H760 H 0.32419 0.64391 0.58197 0.0
H761 H 0.4525 0.64176 0.5746 0.0
C762 C 0.74097 0.37773 0.52631 0.0
C763 C 0.7724 0.37383 0.4905 0.0
C764 C 0.66669 0.37889 0.53064 0.0
C765 C 0.49611 0.36829 0.47554 0.0
H766 H 0.41409 0.39583 0.56316 0.0
C767 C 0.19104 0.3788 0.48767 0.0
C768 C 0.15954 0.38305 0.52358 0.0
C769 C 0.26523 0.37738 0.48336 0.0
C770 C 0.4357 0.38795 0.53865 0.0
H771 H 0.7498 0.36758 0.43105 0.0
H772 H 0.62148 0.36978 0.43844 0.0
H773 H 0.54255 0.39399 0.55685 0.0
H774 H 0.18187 0.3895 0.58312 0.0
H775 H 0.30995 0.3868 0.57577 0.0
H776 H 0.38927 0.36225 0.45733 0.0
C777 C 0.65353 0.37196 0.46339 0.0
C778 C 0.50996 0.3869 0.53504 0.0
C779 C 0.72749 0.37081 0.45913 0.0
C780 C 0.20424 0.38602 0.55499 0.0
C781 C 0.27808 0.38458 0.55075 0.0
C782 C 0.42183 0.36934 0.47917 0.0
C783 C 0.62151 0.37599 0.49919 0.0
C784 C 0.54169 0.37706 0.50339 0.0
C785 C 0.31025 0.38032 0.51491 0.0
C786 C 0.39009 0.37919 0.5108 0.0
H787 H 0.77374 0.37974 0.55093 0.0
H788 H 0.64465 0.38184 0.55865 0.0
H789 H 0.51778 0.36043 0.451 0.0
H790 H 0.15853 0.37681 0.46299 0.0
H791 H 0.28733 0.37424 0.4553 0.0
C792 C 0.85235 0.872 0.96237 0.0
C793 C 0.807 0.87641 0.99389 0.0
C794 C 0.92615 0.87363 0.96668 0.0
C795 C 0.07396 0.87942 0.03578 0.0
H796 H 0.18088 0.88772 0.96459 0.0
C797 C 0.37593 0.89138 0.05635 0.0
C798 C 0.42007 0.88718 0.02438 0.0
C799 C 0.30184 0.89013 0.05268 0.0
C800 C 0.15232 0.88523 0.9845 0.0
H801 H 0.80484 0.88511 0.05504 0.0
H802 H 0.93393 0.88809 0.06285 0.0
H803 H 0.05219 0.8857 0.95924 0.0
H804 H 0.42007 0.87919 0.96329 0.0
H805 H 0.29084 0.87678 0.95658 0.0
H806 H 0.17402 0.87888 0.06095 0.0
C807 C 0.91225 0.88352 0.03452 0.0
C808 C 0.07796 0.88408 0.98146 0.0
C809 C 0.83799 0.88196 0.03012 0.0
C810 C 0.3878 0.88216 0.98849 0.0
C811 C 0.31338 0.88096 0.98475 0.0
C812 C 0.14835 0.88054 0.03879 0.0
C813 C 0.95767 0.87947 0.0028 0.0
C814 C 0.03732 0.88111 0.00695 0.0
C815 C 0.26896 0.88483 0.01683 0.0
C816 C 0.18907 0.88347 0.01321 0.0
H817 H 0.83046 0.86737 0.93406 0.0
H818 H 0.95864 0.87008 0.94149 0.0
H819 H 0.04529 0.87693 0.05567 0.0
H820 H 0.39895 0.8956 0.08444 0.0
H821 H 0.27028 0.89354 0.07819 0.0
C822 C 0.22037 0.14113 0.06262 0.0
C823 C 0.26267 0.13871 0.03071 0.0
C824 C 0.14613 0.1403 0.05985 0.0
C825 C 0.99832 0.12646 0.99095 0.0
H826 H 0.88311 0.15087 0.07118 0.0
C827 C 0.69168 0.12594 0.9772 0.0
C828 C 0.64991 0.12938 0.00977 0.0
C829 C 0.7655 0.12773 0.9798 0.0
C830 C 0.91411 0.14382 0.04869 0.0
H831 H 0.25943 0.13467 0.97143 0.0
H832 H 0.12973 0.13298 0.96621 0.0
H833 H 1.01202 0.15266 0.07542 0.0
H834 H 0.65368 0.13637 0.07055 0.0
H835 H 0.78248 0.13947 0.07547 0.0
H836 H 0.90106 0.1174 0.96458 0.0
C837 C 0.15407 0.13514 0.99331 0.0
C838 C 0.98849 0.14489 0.05109 0.0
C839 C 0.22854 0.13604 -0.0038 0.0
C840 C 0.68407 0.13421 0.04508 0.0
C841 C 0.75823 0.13592 0.04777 0.0
C842 C 0.92403 0.1253 0.98874 0.0
C843 C 0.1116 0.13723 0.02512 0.0
C844 C 1.03191 0.13622 0.02227 0.0
C845 C 0.80048 0.13263 0.0151 0.0
C846 C 0.88036 0.13396 0.01755 0.0
H847 H 0.24498 0.14355 0.08985 0.0
H848 H 0.11579 0.14192 0.08496 0.0
H849 H 1.02951 0.11951 0.96834 0.0
H850 H 0.66705 0.12175 0.94949 0.0
H851 H 0.79503 0.12521 0.95391 0.0
C852 C 0.39046 0.12376 0.46471 0.0
C853 C 0.43488 0.12692 0.49632 0.0
C854 C 0.31666 0.12526 0.46875 0.0
C855 C 0.17298 0.14117 0.53946 0.0
H856 H 0.05187 0.11614 0.46299 0.0
C857 C 0.86737 0.14027 0.55968 0.0
C858 C 0.82236 0.13682 0.52815 0.0
C859 C 0.94128 0.13911 0.55548 0.0
C860 C 0.08457 0.12334 0.48443 0.0
H861 H 0.43547 0.1335 0.55704 0.0
H862 H 0.30661 0.13621 0.56438 0.0
H863 H 0.18031 0.11408 0.45703 0.0
H864 H 0.82081 0.13011 0.46738 0.0
H865 H 0.94999 0.12804 0.45977 0.0
H866 H 0.07725 0.15043 0.56687 0.0
C867 C 0.32898 0.13288 0.53632 0.0
C868 C 0.1588 0.12216 0.48103 0.0
C869 C 0.40315 0.13139 0.53222 0.0
C870 C 0.85369 0.13251 0.49218 0.0
C871 C 0.928 0.13135 0.48791 0.0
C872 C 0.09874 0.14236 0.54285 0.0
C873 C 0.28427 0.12978 0.50458 0.0
C874 C 0.20451 0.13105 0.50847 0.0
C875 C 0.97324 0.13464 0.51955 0.0
C876 C 0.05302 0.13346 0.51544 0.0
H877 H 0.41304 0.1201 0.43659 0.0
H878 H 0.28498 0.1229 0.44358 0.0
H879 H 0.2057 0.14836 0.56093 0.0
H880 H 0.84513 0.14378 0.58784 0.0
H881 H 0.97334 0.1416 0.58058 0.0
C882 C 0.68403 0.87974 0.48321 0.0
C883 C 0.65239 0.8842 0.51913 0.0
C884 C 0.75819 0.87823 0.47904 0.0
C885 C 0.92841 0.88896 0.53427 0.0
H886 H 1.01011 0.86077 0.44824 0.0
C887 C 0.23359 0.87872 0.52299 0.0
C888 C 0.26493 0.87444 0.48702 0.0
C889 C 0.15928 0.87986 0.52725 0.0
C890 C 0.98857 0.86882 0.47231 0.0
H891 H 0.67437 0.89099 0.57883 0.0
H892 H 0.8024 0.88815 0.57174 0.0
H893 H 0.88163 0.86279 0.45425 0.0
H894 H 0.24216 0.86752 0.42734 0.0
H895 H 0.11391 0.86967 0.4346 0.0
H896 H 1.03529 0.89501 0.55229 0.0
C897 C 0.77067 0.88581 0.5466 0.0
C898 C 0.91432 0.86997 0.47575 0.0
C899 C 0.69688 0.88732 0.55069 0.0
C900 C 0.21992 0.87101 0.4555 0.0
C901 C 0.14599 0.87215 0.4597 0.0
C902 C 1.00264 0.88781 0.53083 0.0
C903 C 0.80298 0.88131 0.51075 0.0
C904 C 0.88274 0.88007 0.50681 0.0
C905 C 0.11404 0.87658 0.49562 0.0
C906 C 1.03424 0.87772 0.49975 0.0
H907 H 0.65167 0.87766 0.45842 0.0
H908 H 0.78049 0.87491 0.45097 0.0
H909 H 0.90686 0.89701 0.55833 0.0
H910 H 0.26647 0.88111 0.54778 0.0
H911 H 0.1373 0.88314 0.55538 0.0
C912 C 0.89524 0.54321 -0.00368 0.0
C913 C 0.94258 0.54958 0.98233 0.0
C914 C 0.91814 0.53311 0.00399 0.0
C915 C 0.05806 0.50873 0.97786 0.0
H916 H 0.98746 0.50387 0.06383 0.0
C917 C 0.16984 0.47043 0.02052 0.0
C918 C 0.12269 0.46408 0.03468 0.0
C919 C 0.14688 0.48055 0.013 0.0
C920 C 1.00693 0.50498 0.03938 0.0
H921 H 0.05173 0.55056 0.96648 0.0
H922 H 0.09215 0.53304 0.98048 0.0
H923 H 0.95195 0.52264 0.05521 0.0
H924 H 1.01374 0.46318 0.05097 0.0
H925 H 0.97318 0.48072 0.03715 0.0
H926 H 0.11298 0.49106 0.962 0.0
C927 C 0.03695 0.53575 0.98501 0.0
C928 C 0.98674 0.51578 0.0345 0.0
C929 C 1.01403 0.5459 0.97744 0.0
C930 C 0.05133 0.46782 0.0399 0.0
C931 C 1.02832 0.47798 0.03243 0.0
C932 C 0.07823 0.49792 0.98272 0.0
C933 C 0.98903 0.52911 -0.00215 0.0
C934 C 1.01205 0.5178 0.00368 0.0
C935 C 0.07607 0.4846 0.01939 0.0
C936 C 0.05297 0.49591 0.01356 0.0
H937 H 0.83999 0.5459 0.0008 0.0
H938 H 0.87963 0.52819 0.0136 0.0
H939 H 0.07754 0.50984 0.95342 0.0
H940 H 0.225 0.4677 0.01576 0.0
H941 H 0.18528 0.48545 0.00324 0.0
C942 C 0.98405 0.46168 0.50675 0.0
C943 C 0.98971 0.4635 0.54451 0.0
C944 C 0.99774 0.47184 0.49706 0.0
C945 C 1.00388 0.50744 0.54051 0.0
H946 H 0.09552 0.50268 0.44688 0.0
C947 C 0.08899 0.54994 0.50679 0.0
C948 C 0.08357 0.54812 0.46902 0.0
C949 C 0.07516 0.53978 0.51647 0.0
C950 C 0.06899 0.50417 0.47297 0.0
H951 H 1.01877 0.47716 0.60118 0.0
H952 H 0.04353 0.49471 0.58432 0.0
H953 H 0.07957 0.48445 0.46185 0.0
H954 H 0.05476 0.53446 0.41231 0.0
H955 H 1.02968 0.51692 0.42914 0.0
H956 H 0.9933 0.52716 0.55164 0.0
C957 C 1.02648 0.4856 0.56229 0.0
C958 C 0.05991 0.49369 0.48156 0.0
C959 C 1.01269 0.4755 0.57193 0.0
C960 C 0.06064 0.53612 0.44157 0.0
C961 C 0.04668 0.52602 0.4512 0.0
C962 C 1.01295 0.51793 0.53192 0.0
C963 C 1.01764 0.48403 0.5249 0.0
C964 C 1.02733 0.49517 0.51548 0.0
C965 C 0.05532 0.52759 0.4886 0.0
C966 C 0.04554 0.51645 0.498 0.0
H967 H 0.96601 0.45258 0.48504 0.0
H968 H 0.99009 0.47027 0.46799 0.0
H969 H 0.97737 0.50894 0.5666 0.0
H970 H 0.107 0.55904 0.52852 0.0
H971 H 0.08266 0.54135 0.54555 0.0
C972 C 0.43915 0.96041 0.98686 0.0
C973 C 0.48377 0.95775 0.01131 0.0
C974 C 0.44535 0.97193 0.98354 0.0
C975 C 0.52257 1.00488 0.03144 0.0
H976 H 0.48775 1.00504 0.93409 0.0
C977 C 0.59307 0.04766 -0.00297 0.0
C978 C 0.54264 0.05106 0.97665 0.0
C979 C 0.58361 0.03666 0.00298 0.0
C980 C 0.49694 1.00517 0.96156 0.0
H981 H 0.57023 0.96535 0.05152 0.0
H982 H 0.58323 0.98513 0.04442 0.0
H983 H 0.47826 0.98505 0.94035 0.0
H984 H 0.44236 0.04565 0.94688 0.0
H985 H 0.42606 0.02636 0.95701 0.0
H986 H 0.54325 0.02502 0.05218 0.0
C987 C 0.5421 0.97842 0.02842 0.0
C988 C 0.49132 0.99371 0.96524 0.0
C989 C 0.53538 0.96694 0.03205 0.0
C990 C 0.48193 0.04332 0.96287 0.0
C991 C 0.47292 0.03223 0.9684 0.0
C992 C 0.52903 0.01633 0.02761 0.0
C993 C 0.49703 0.98111 0.00417 0.0
C994 C 0.50381 0.99338 0.00026 0.0
C995 C 0.52393 0.02872 0.98827 0.0
C996 C 0.51608 0.01661 0.99265 0.0
H997 H 0.39947 0.95354 0.96991 0.0
H998 H 0.40889 0.97366 0.96498 0.0
H999 H 0.53139 1.00512 0.05903 0.0
H1000 H 0.64014 0.05348 0.00824 0.0
H1001 H 0.62402 0.03418 0.01823 0.0
C1002 C 0.52306 0.05456 0.55573 0.0
C1003 C 0.52814 0.05745 0.52437 0.0
C1004 C 0.52692 0.0419 0.55117 0.0
C1005 C 0.50598 0.00824 0.47943 0.0
H1006 H 0.60759 1.00055 0.55299 0.0
C1007 C 0.56039 0.95619 0.45663 0.0
C1008 C 0.55583 0.95339 0.48817 0.0
C1009 C 0.55647 0.96882 0.46095 0.0
C1010 C 0.57821 1.00253 0.53241 0.0
H1011 H 0.54111 0.04913 0.46348 0.0
H1012 H 0.54905 0.02709 0.45561 0.0
H1013 H 0.60281 0.02254 0.5605 0.0
H1014 H 0.5436 0.96185 0.54912 0.0
H1015 H 0.5354 0.98382 0.55657 0.0
H1016 H 0.48133 0.98823 0.45135 0.0
C1017 C 0.54132 0.03463 0.48376 0.0
C1018 C 0.57552 0.01517 0.53671 0.0
C1019 C 0.53761 0.0473 0.48833 0.0
C1020 C 0.54669 0.96359 0.52413 0.0
C1021 C 0.54286 0.97624 0.52846 0.0
C1022 C 0.50865 0.9956 0.47514 0.0
C1023 C 0.53592 0.03174 0.51512 0.0
C1024 C 0.53931 0.01822 0.51031 0.0
C1025 C 0.54792 0.97904 0.49694 0.0
C1026 C 0.54478 0.99255 0.50158 0.0
H1027 H 0.51661 0.06211 0.58398 0.0
H1028 H 0.52183 0.04007 0.57595 0.0
H1029 H 0.47664 0.01023 0.45885 0.0
H1030 H 0.56657 0.94859 0.42844 0.0
H1031 H 0.56126 0.97059 0.43604 0.0
C1032 C 0.2187 0.29569 0.98285 0.0
C1033 C 0.1456 0.29791 0.98866 0.0
C1034 C 0.25057 0.28574 0.98846 0.0
C1035 C 0.22206 0.26349 0.03353 0.0
H1036 H 0.36171 0.24285 0.9606 0.0
C1037 C 0.32873 0.21646 0.0321 0.0
C1038 C 0.40253 0.21489 0.02853 0.0
C1039 C 0.29588 0.22618 0.02569 0.0
C1040 C 0.32314 0.24856 0.98138 0.0
H1041 H 0.04951 0.29179 0.00682 0.0
H1042 H 0.10441 0.2744 0.01586 0.0
H1043 H 0.30995 0.26113 0.95472 0.0
H1044 H 0.49915 0.22184 0.01353 0.0
H1045 H 0.44222 0.23873 0.00248 0.0
H1046 H 0.23514 0.25087 0.06008 0.0
C1047 C 0.13749 0.28033 0.00712 0.0
C1048 C 0.29365 0.2591 0.97811 0.0
C1049 C 0.10576 0.29024 0.00153 0.0
C1050 C 0.44225 0.22289 0.01688 0.0
C1051 C 0.40949 0.23251 0.01026 0.0
C1052 C 0.25138 0.25292 0.03672 0.0
C1053 C 0.21014 0.2778 0.00017 0.0
C1054 C 0.24279 0.26673 0.00418 0.0
C1055 C 0.33607 0.23444 0.0152 0.0
C1056 C 0.30246 0.24534 0.01075 0.0
H1057 H 0.25089 0.30137 0.97279 0.0
H1058 H 0.30688 0.28421 0.9834 0.0
H1059 H 0.18382 0.26923 0.05446 0.0
H1060 H 0.29677 0.21048 0.04117 0.0
H1061 H 0.23906 0.2273 0.02929 0.0
C1062 C 0.61894 0.79206 0.00657 0.0
C1063 C 0.65753 0.79973 0.99326 0.0
C1064 C 0.65156 0.78209 0.0115 0.0
C1065 C 0.8259 0.76908 0.02052 0.0
H1066 H 0.72007 0.73722 0.98755 0.0
C1067 C 0.95596 0.72302 0.01187 0.0
C1068 C 0.91679 0.7154 0.0252 0.0
C1069 C 0.92394 0.73301 0.00684 0.0
C1070 C 0.75011 0.74608 -0.00272 0.0
H1071 H 0.76148 0.80321 0.97597 0.0
H1072 H 0.81886 0.78574 0.98452 0.0
H1073 H 0.66685 0.75554 0.98253 0.0
H1074 H 0.81245 0.71211 0.04251 0.0
H1075 H 0.75618 0.72961 0.03374 0.0
H1076 H 0.90917 0.75962 0.03527 0.0
C1077 C 0.7632 0.78749 0.99135 0.0
C1078 C 0.71956 0.75661 0.99443 0.0
C1079 C 0.73043 0.79753 0.98649 0.0
C1080 C 0.84397 0.71773 0.03195 0.0
C1081 C 0.81181 0.72778 0.02696 0.0
C1082 C 0.85646 0.75855 0.02336 0.0
C1083 C 0.72379 0.77949 0.00322 0.0
C1084 C 0.75694 0.76827 0.00611 0.0
C1085 C 0.85174 0.7357 0.01498 0.0
C1086 C 0.81899 0.7469 0.01178 0.0
H1087 H 0.56295 0.79366 0.01274 0.0
H1088 H 0.61991 0.77637 0.02162 0.0
H1089 H 0.85591 0.77794 0.03025 0.0
H1090 H 1.0119 0.72133 0.0057 0.0
H1091 H 0.95598 0.73868 -0.00333 0.0
C1092 C 0.11468 0.72501 0.52854 0.0
C1093 C 0.15666 0.71591 0.53376 0.0
C1094 C 0.14568 0.73461 0.52064 0.0
C1095 C 0.31471 0.75221 0.53084 0.0
H1096 H 0.22604 0.76382 0.46205 0.0
C1097 C 0.45151 0.78793 0.48392 0.0
C1098 C 0.40973 0.797 0.47843 0.0
C1099 C 0.4203 0.77839 0.49195 0.0
C1100 C 0.25101 0.76083 0.48177 0.0
H1101 H 0.26439 0.70958 0.53362 0.0
H1102 H 0.31869 0.72623 0.51918 0.0
H1103 H 0.17385 0.746 0.47103 0.0
H1104 H 0.30209 0.80333 0.47825 0.0
H1105 H 0.24741 0.78677 0.49297 0.0
H1106 H 0.39185 0.76705 0.5416 0.0
C1107 C 0.26162 0.72605 0.52179 0.0
C1108 C 0.22115 0.75056 0.48684 0.0
C1109 C 0.23048 0.7164 0.52961 0.0
C1110 C 0.33587 0.79654 0.48247 0.0
C1111 C 0.3045 0.78694 0.49044 0.0
C1112 C 0.34455 0.76249 0.52578 0.0
C1113 C 0.21965 0.73538 0.51769 0.0
C1114 C 0.25258 0.7461 0.51145 0.0
C1115 C 0.34629 0.77763 0.49479 0.0
C1116 C 0.31317 0.76694 0.50114 0.0
H1117 H 0.05757 0.72484 0.53107 0.0
H1118 H 0.11159 0.74165 0.51796 0.0
H1119 H 0.33969 0.74922 0.55054 0.0
H1120 H 0.50864 0.78809 0.48148 0.0
H1121 H 0.45427 0.77136 0.49481 0.0
C1122 C 0.96385 0.28652 0.48464 0.0
C1123 C 0.92094 0.29556 0.47964 0.0
C1124 C 0.93388 0.27684 0.49247 0.0
C1125 C 0.76965 0.26707 0.52591 0.0
H1126 H 0.84872 0.23307 0.47459 0.0
C1127 C 0.63159 0.22315 0.53057 0.0
C1128 C 0.67425 0.21417 0.53604 0.0
C1129 C 0.66185 0.23277 0.52257 0.0
C1130 C 0.82642 0.24252 0.48948 0.0
H1131 H 0.81264 0.30166 0.48006 0.0
H1132 H 0.76007 0.28474 0.49378 0.0
H1133 H 0.90038 0.2507 0.46442 0.0
H1134 H 0.78243 0.20808 0.53611 0.0
H1135 H 0.83553 0.22489 0.52202 0.0
H1136 H 0.69566 0.25889 0.55094 0.0
C1137 C 0.81717 0.2852 0.49186 0.0
C1138 C 0.85611 0.25266 0.48368 0.0
C1139 C 0.84727 0.29493 0.48406 0.0
C1140 C 0.74799 0.21477 0.53179 0.0
C1141 C 0.7784 0.22443 0.52377 0.0
C1142 C 0.73995 0.25693 0.53169 0.0
C1143 C 0.86005 0.27589 0.49556 0.0
C1144 C 0.82819 0.26509 0.50184 0.0
C1145 C 0.73574 0.23371 0.51974 0.0
C1146 C 0.76782 0.2445 0.51351 0.0
H1147 H 1.02091 0.28686 0.48216 0.0
H1148 H 0.96878 0.27006 0.49604 0.0
H1149 H 0.74735 0.27652 0.54083 0.0
H1150 H 0.57449 0.22282 0.53288 0.0
H1151 H 0.62715 0.23952 0.51871 0.0
C1152 C 0.1175 0.3733 0.12802 0.0
C1153 C 0.09751 0.38366 0.1207 0.0
C1154 C 0.10548 0.37354 0.16351 0.0
C1155 C 0.05945 0.39528 0.26327 0.0
H1156 H 1.00721 0.36329 0.26641 0.0
C1157 C 0.9581 0.39043 0.39757 0.0
C1158 C 0.99501 0.38131 0.40532 0.0
C1159 C 0.96893 0.39133 0.3634 0.0
C1160 C 1.02179 0.37228 0.26589 0.0
H1161 H 0.04916 0.40242 0.14474 0.0
H1162 H 1.02624 0.40269 0.2062 0.0
H1163 H 1.03001 0.36368 0.20572 0.0
H1164 H 0.07481 0.36648 0.3839 0.0
H1165 H 0.09104 0.36772 0.32413 0.0
H1166 H 0.04927 0.40386 0.32373 0.0
C1167 C 0.05305 0.39451 0.18502 0.0
C1168 C 1.03551 0.37251 0.23118 0.0
C1169 C 0.06606 0.39435 0.1497 0.0
C1170 C 0.04373 0.37333 0.37852 0.0
C1171 C 0.05348 0.37407 0.34429 0.0
C1172 C 0.0446 0.39508 0.29801 0.0
C1173 C 0.07199 0.38406 0.19231 0.0
C1174 C 0.05552 0.38397 0.22939 0.0
C1175 C 1.01604 0.38303 0.33632 0.0
C1176 C 1.0266 0.38354 0.2996 0.0
H1177 H 0.14226 0.36497 0.10628 0.0
H1178 H 0.1224 0.36545 0.16828 0.0
H1179 H 0.0755 0.40426 0.26313 0.0
H1180 H 0.92063 0.3968 0.41771 0.0
H1181 H 0.93954 0.39833 0.35781 0.0
C1182 C 0.98827 0.64389 0.1462 0.0
C1183 C 1.01028 0.63369 0.11258 0.0
C1184 C 1.00313 0.64394 0.18115 0.0
C1185 C 0.1231 0.63169 0.2303 0.0
H1186 H 0.96706 0.63766 0.3002 0.0
C1187 C 0.151 0.62672 0.3709 0.0
C1188 C 0.10985 0.63477 0.40179 0.0
C1189 C 0.14221 0.62664 0.33534 0.0
C1190 C 1.01162 0.6362 0.28139 0.0
H1191 H 0.06556 0.61561 0.08893 0.0
H1192 H 0.0926 0.61579 0.15039 0.0
H1193 H 0.94567 0.6375 0.23879 0.0
H1194 H 1.03143 0.64985 0.42014 0.0
H1195 H 1.01862 0.65015 0.35906 0.0
H1196 H 0.18959 0.63072 0.27319 0.0
C1197 C 0.06379 0.62372 0.14955 0.0
C1198 C 0.99912 0.63603 0.24609 0.0
C1199 C 0.04796 0.62358 0.1145 0.0
C1200 C 0.06305 0.64331 0.39689 0.0
C1201 C 0.05512 0.6434 0.36161 0.0
C1202 C 0.13591 0.63204 0.26591 0.0
C1203 C 0.04094 0.63385 0.18315 0.0
C1204 C 0.0547 0.63381 0.22027 0.0
C1205 C 0.0932 0.63484 0.33011 0.0
C1206 C 0.0803 0.63435 0.29199 0.0
H1207 H 0.958 0.65168 0.14551 0.0
H1208 H 0.9851 0.65188 0.20667 0.0
H1209 H 0.16691 0.63004 0.2109 0.0
H1210 H 0.18945 0.62036 0.374 0.0
H1211 H 0.17262 0.61993 0.31183 0.0
C1212 C 1.00338 0.61844 0.86544 0.0
C1213 C 0.9756 0.62956 0.89444 0.0
C1214 C 1.018 0.61802 0.82994 0.0
C1215 C 0.04593 0.63958 0.7828 0.0
H1216 H 1.0215 0.60832 0.69083 0.0
C1217 C 1.03212 0.63839 0.63523 0.0
C1218 C 0.08 0.63028 0.60812 0.0
C1219 C 1.0232 0.63773 0.66962 0.0
C1220 C 1.02919 0.61706 0.71639 0.0
H1221 H 0.93902 0.64877 0.90879 0.0
H1222 H 0.96128 0.64788 0.84651 0.0
H1223 H 0.99497 0.60835 0.75197 0.0
H1224 H 0.15347 0.61464 0.59529 0.0
H1225 H 0.13573 0.61323 0.65549 0.0
H1226 H 0.07702 0.64838 0.74685 0.0
C1227 C 0.97439 0.63962 0.85137 0.0
C1228 C 1.01421 0.6171 0.75144 0.0
C1229 C 0.96096 0.64011 0.88702 0.0
C1230 C 0.11669 0.62111 0.61569 0.0
C1231 C 0.10657 0.62028 0.65001 0.0
C1232 C 0.05964 0.63958 0.7478 0.0
C1233 C 1.0042 0.62864 0.8225 0.0
C1234 C 1.02178 0.62841 0.78511 0.0
C1235 C 0.0605 0.62873 0.67741 0.0
C1236 C 0.05089 0.62835 0.71433 0.0
H1237 H 1.01614 0.61021 0.87053 0.0
H1238 H 0.04189 0.60948 0.80872 0.0
H1239 H 0.05436 0.64838 0.80805 0.0
H1240 H 1.00116 0.64528 0.63001 0.0
H1241 H 0.98646 0.6442 0.69008 0.0
C1242 C 0.91651 0.38468 0.64141 0.0
C1243 C 0.96044 0.37686 0.6115 0.0
C1244 C 0.92268 0.38478 0.67709 0.0
C1245 C 0.98315 0.36602 0.72631 0.0
H1246 H 1.01611 0.3988 0.81175 0.0
C1247 C 0.08507 0.36946 0.86872 0.0
C1248 C 0.06134 0.37953 0.90215 0.0
C1249 C 0.06819 0.36908 0.83356 0.0
C1250 C 1.00568 0.38958 0.78842 0.0
H1251 H 0.04218 0.36237 0.59514 0.0
H1252 H 0.05146 0.36233 0.65705 0.0
H1253 H 0.99112 0.39796 0.74967 0.0
H1254 H 1.00095 0.39706 0.92519 0.0
H1255 H 0.96955 0.39624 0.86381 0.0
H1256 H 0.99652 0.35759 0.76481 0.0
C1257 C 1.01317 0.36855 0.65299 0.0
C1258 C 0.99158 0.38911 0.75284 0.0
C1259 C 1.00789 0.36861 0.61754 0.0
C1260 C 1.02041 0.38923 0.89982 0.0
C1261 C 1.00267 0.38877 0.86461 0.0
C1262 C 0.99623 0.36648 0.76197 0.0
C1263 C 0.97155 0.3768 0.68326 0.0
C1264 C 0.98113 0.37732 0.72139 0.0
C1265 C 1.02643 0.37869 0.83099 0.0
C1266 C 1.00872 0.37826 0.79341 0.0
H1267 H 0.87767 0.39081 0.6374 0.0
H1268 H 0.8892 0.39109 0.69987 0.0
H1269 H 0.97453 0.35681 0.70253 0.0
H1270 H 0.11787 0.36198 0.86971 0.0
H1271 H 0.08896 0.36133 0.80843 0.0
C1272 C 0.58482 0.89729 0.14925 0.0
C1273 C 0.60578 0.8857 0.11954 0.0
C1274 C 0.57399 0.8981 0.18557 0.0
C1275 C 0.62407 0.884 0.24887 0.0
H1276 H 0.43989 0.89448 0.29553 0.0
C1277 C 0.53935 0.8742 0.37456 0.0
C1278 C 0.49346 0.88263 0.40213 0.0
C1279 C 0.55491 0.87573 0.34195 0.0
C1280 C 0.49213 0.89178 0.2834 0.0
H1281 H 0.63305 0.86596 0.10451 0.0
H1282 H 0.61626 0.8675 0.16831 0.0
H1283 H 0.46554 0.8953 0.23547 0.0
H1284 H 0.43023 0.89971 0.41758 0.0
H1285 H 0.45966 0.90271 0.36122 0.0
H1286 H 0.65185 0.88072 0.29674 0.0
C1287 C 0.6077 0.87591 0.16338 0.0
C1288 C 0.50659 0.8922 0.24888 0.0
C1289 C 0.61704 0.87502 0.12694 0.0
C1290 C 0.4649 0.89289 0.39666 0.0
C1291 C 0.48157 0.89458 0.36419 0.0
C1292 C 0.61019 0.8838 0.28365 0.0
C1293 C 0.58534 0.88741 0.19292 0.0
C1294 C 0.57218 0.88807 0.23099 0.0
C1295 C 0.52661 0.88596 0.33627 0.0
C1296 C 0.54343 0.88739 0.30102 0.0
H1297 H 0.57455 0.9056 0.14416 0.0
H1298 H 0.55673 0.90707 0.20791 0.0
H1299 H 0.6754 0.88093 0.23584 0.0
H1300 H 0.56379 0.86637 0.37805 0.0
H1301 H 0.58871 0.86873 0.32098 0.0
C1302 C 0.49792 0.14422 0.15404 0.0
C1303 C 0.51659 0.13397 0.11981 0.0
C1304 C 0.51461 0.14404 0.18857 0.0
C1305 C 0.63282 0.12993 0.23451 0.0
H1306 H 0.48172 0.13795 0.30811 0.0
C1307 C 0.66227 0.12396 0.37402 0.0
C1308 C 0.62601 0.13261 0.40611 0.0
C1309 C 0.6522 0.12406 0.33867 0.0
C1310 C 0.52505 0.13589 0.28826 0.0
H1311 H 0.56813 0.11554 0.09468 0.0
H1312 H 0.59821 0.11528 0.15521 0.0
H1313 H 0.45912 0.13851 0.24776 0.0
H1314 H 0.55466 0.14882 0.4264 0.0
H1315 H 0.53955 0.14931 0.36577 0.0
H1316 H 0.69931 0.12756 0.27528 0.0
C1317 C 0.57073 0.12347 0.1553 0.0
C1318 C 0.51185 0.13617 0.25354 0.0
C1319 C 0.55315 0.12358 0.12073 0.0
C1320 C 0.58247 0.1418 0.40233 0.0
C1321 C 0.57321 0.14202 0.36727 0.0
C1322 C 0.64638 0.12981 0.26953 0.0
C1323 C 0.55088 0.13364 0.18959 0.0
C1324 C 0.56557 0.13324 0.22633 0.0
C1325 C 0.60662 0.13298 0.33472 0.0
C1326 C 0.5927 0.13285 0.297 0.0
H1327 H 0.46819 0.15218 0.15419 0.0
H1328 H 0.49882 0.15204 0.21454 0.0
H1329 H 0.67535 0.12769 0.2141 0.0
H1330 H 0.69805 0.11704 0.37604 0.0
H1331 H 0.67901 0.11694 0.31436 0.0
C1332 C 0.52043 0.1171 0.87355 0.0
C1333 C 0.49263 0.1284 0.90191 0.0
C1334 C 0.53327 0.11614 0.83717 0.0
C1335 C 0.47548 0.12878 0.7711 0.0
H1336 H 0.66017 0.11921 0.72432 0.0
C1337 C 0.55042 0.13734 0.64188 0.0
C1338 C 0.59674 0.12896 0.61444 0.0
C1339 C 0.53742 0.13619 0.67534 0.0
C1340 C 0.60784 0.12166 0.73655 0.0
H1341 H 0.45598 0.14749 0.91415 0.0
H1342 H 0.47686 0.14568 0.85056 0.0
H1343 H 0.63777 0.11901 0.78559 0.0
H1344 H 0.6635 0.11237 0.60022 0.0
H1345 H 0.63878 0.11005 0.65823 0.0
H1346 H 0.44445 0.1312 0.72222 0.0
C1347 C 0.48915 0.13762 0.85656 0.0
C1348 C 0.59522 0.1216 0.77175 0.0
C1349 C 0.47756 0.13867 0.89303 0.0
C1350 C 0.62831 0.11912 0.62096 0.0
C1351 C 0.61439 0.11784 0.65438 0.0
C1352 C 0.48762 0.12865 0.73574 0.0
C1353 C 0.51722 0.12636 0.82828 0.0
C1354 C 0.52933 0.1254 0.78968 0.0
C1355 C 0.56889 0.12641 0.68214 0.0
C1356 C 0.55447 0.12537 0.71828 0.0
H1357 H 0.53294 0.10905 0.87956 0.0
H1358 H 0.55476 0.10735 0.81583 0.0
H1359 H 0.42381 0.13155 0.78401 0.0
H1360 H 0.52371 0.14484 0.63764 0.0
H1361 H 0.50309 0.14314 0.6961 0.0
C1362 C 0.42132 0.88737 0.64088 0.0
C1363 C 0.45873 0.87872 0.60929 0.0
C1364 C 0.43051 0.88745 0.67646 0.0
C1365 C 0.55672 0.87626 0.72873 0.0
H1366 H 0.40444 0.88474 0.80188 0.0
C1367 C 0.57865 0.86917 0.86521 0.0
C1368 C 0.5595 0.87965 0.89885 0.0
C1369 C 0.56357 0.86906 0.83017 0.0
C1370 C 0.44748 0.88243 0.78174 0.0
H1371 H 0.5311 0.86268 0.59 0.0
H1372 H 0.5446 0.86245 0.65113 0.0
H1373 H 0.38183 0.88423 0.73982 0.0
H1374 H 0.50892 0.89819 0.92236 0.0
H1375 H 0.48161 0.89792 0.86088 0.0
H1376 H 0.62174 0.87416 0.77042 0.0
C1377 C 0.51075 0.86962 0.64905 0.0
C1378 C 0.43472 0.88218 0.74623 0.0
C1379 C 0.50242 0.86968 0.61373 0.0
C1380 C 0.5243 0.88998 0.89681 0.0
C1381 C 0.50829 0.8898 0.86171 0.0
C1382 C 0.56911 0.87633 0.76395 0.0
C1383 C 0.47622 0.87868 0.68112 0.0
C1384 C 0.48918 0.87906 0.71917 0.0
C1385 C 0.52839 0.87938 0.82805 0.0
C1386 C 0.51467 0.87939 0.79079 0.0
H1387 H 0.3854 0.89418 0.63831 0.0
H1388 H 0.40294 0.89459 0.7004 0.0
H1389 H 0.60057 0.87414 0.70916 0.0
H1390 H 0.60713 0.86121 0.86594 0.0
H1391 H 0.57948 0.86089 0.80467 0.0
loop_
_geom_bond_atom_site_label_1
_geom_bond_atom_site_label_2
_geom_bond_distance
_geom_bond_site_symmetry_2
_ccdc_geom_bond_type
Eu0 N31 2.657 . S
Eu0 N38 2.609 . S
Eu0 O44 2.558 . S
Eu0 O45 2.612 1_455 S
Eu0 O47 2.339 1_554 S
Eu0 O48 2.563 1_455 S
Eu0 O49 2.419 . S
Eu0 O51 2.380 . S
Eu0 O52 2.432 . S
Eu0 C64 2.848 . S
C1 C4 1.429 . S
C1 C5 1.411 . S
C1 N8 1.377 . S
C2 C4 1.420 . S
C2 C6 1.423 . S
C2 C14 1.392 1_556 S
C3 C5 1.420 . S
C3 C6 1.351 . S
C3 H26 0.931 . S
C4 C1 1.429 . S
C4 C2 1.420 . S
C4 N12 1.362 1_556 S
C5 C1 1.411 . S
C5 C3 1.420 . S
C5 C10 1.395 . S
C6 C2 1.423 . S
C6 C3 1.351 . S
C6 H18 0.930 . S
C7 C9 1.400 . S
C7 C10 1.386 . S
C7 H19 0.930 . S
N8 C1 1.377 . S
N8 C9 1.321 . S
N8 Eu11 2.609 1_655 S
C9 C7 1.400 . S
C9 N8 1.321 . S
C9 H16 0.930 1_655 S
C10 C5 1.395 . S
C10 C7 1.386 . S
C10 H29 0.930 . S
Eu11 N8 2.609 1_455 S
Eu11 N12 2.657 1_456 S
Eu11 O45 2.380 1_456 S
Eu11 O46 2.432 . S
Eu11 O50 2.558 . S
Eu11 O51 2.612 1_556 S
Eu11 O53 2.339 1_556 S
Eu11 O54 2.563 . S
Eu11 O55 2.419 1_556 S
Eu11 C75 2.848 . S
N12 C4 1.362 1_554 S
N12 Eu11 2.657 1_654 S
N12 C13 1.334 . S
C13 N12 1.334 . S
C13 C15 1.413 . S
C13 H20 0.929 . S
C14 C2 1.392 1_554 S
C14 C15 1.367 . S
C14 H22 0.930 . S
C15 C13 1.413 . S
C15 C14 1.367 . S
C15 H17 0.930 . S
H16 C9 0.930 1_455 S
H17 C15 0.930 . S
H18 C6 0.930 . S
H19 C7 0.930 . S
H20 C13 0.929 . S
H21 C35 0.930 . S
H22 C14 0.930 . S
H23 C41 0.930 . S
H24 C32 0.929 . S
H25 C39 0.930 . S
H26 C3 0.931 . S
H27 C33 0.930 . S
H28 C66 0.930 . S
H29 C10 0.930 . S
H30 C65 0.931 . S
N31 Eu0 2.657 . S
N31 C32 1.334 1_554 S
N31 C36 1.362 . S
C32 H24 0.929 . S
C32 N31 1.334 1_556 S
C32 C35 1.413 . S
C33 H27 0.930 . S
C33 C34 1.392 1_556 S
C33 C35 1.367 . S
C34 C33 1.392 1_554 S
C34 C36 1.420 . S
C34 C66 1.423 . S
C35 H21 0.930 . S
C35 C32 1.413 . S
C35 C33 1.367 . S
C36 N31 1.362 . S
C36 C34 1.420 . S
C36 C40 1.429 . S
H37 C42 0.930 . S
N38 Eu0 2.609 . S
N38 C40 1.377 . S
N38 C41 1.321 . S
C39 H25 0.930 . S
C39 C41 1.400 . S
C39 C42 1.386 . S
C40 C36 1.429 . S
C40 N38 1.377 . S
C40 C43 1.411 . S
C41 H23 0.930 . S
C41 N38 1.321 . S
C41 C39 1.400 . S
C42 H37 0.930 . S
C42 C39 1.386 . S
C42 C43 1.395 . S
C43 C40 1.411 . S
C43 C42 1.395 . S
C43 C65 1.420 . S
O44 Eu0 2.558 . S
O44 C64 1.257 . S
O45 Eu0 2.612 1_655 S
O45 Eu11 2.380 1_654 S
O45 C56 1.276 . S
O46 Eu11 2.432 . S
O46 C63 1.264 . S
O47 Eu0 2.339 1_556 S
O47 C63 1.254 . S
O48 Eu0 2.563 1_655 S
O48 C56 1.235 . S
O49 Eu0 2.419 . S
O49 C64 1.249 . S
O50 Eu11 2.558 . S
O50 C75 1.257 . S
O51 Eu0 2.380 . S
O51 Eu11 2.612 1_554 S
O51 C67 1.276 . S
O52 Eu0 2.432 . S
O52 C74 1.264 . S
O53 Eu11 2.339 1_554 S
O53 C74 1.254 . S
O54 Eu11 2.563 . S
O54 C67 1.235 1_556 S
O55 Eu11 2.419 1_554 S
O55 C75 1.249 1_554 S
C56 O45 1.276 . S
C56 O48 1.235 . S
C57 C59 1.390 1_455 S
C57 C61 1.395 . S
C57 C64 1.494 . S
C58 C59 1.392 . S
C58 C60 1.386 . S
C59 C57 1.390 1_655 S
C59 C58 1.392 . S
C59 H76 0.941 . S
C60 C58 1.386 . S
C60 C62 1.395 . S
C60 H77 0.930 . S
C61 C57 1.395 . S
C61 C62 1.379 1_455 S
C61 H78 0.930 . S
C62 C60 1.395 . S
C62 C61 1.379 1_655 S
C62 H79 0.930 . S
C63 O46 1.264 . S
C63 O47 1.254 . S
C64 Eu0 2.848 . S
C64 O44 1.257 . S
C64 O49 1.249 . S
C64 C57 1.494 . S
C65 H30 0.931 . S
C65 C43 1.420 . S
C65 C66 1.351 . S
C66 H28 0.930 . S
C66 C34 1.423 . S
C66 C65 1.351 . S
C67 O51 1.276 . S
C67 O54 1.235 1_554 S
C68 C69 1.393 . S
C68 C72 1.395 . S
C68 C75 1.492 . S
C69 C68 1.393 . S
C69 C70 1.392 . S
C69 H80 0.930 1_556 S
C70 C69 1.392 . S
C70 C71 1.386 . S
C71 C70 1.386 . S
C71 C73 1.395 . S
C71 H81 0.930 . S
C72 C68 1.395 . S
C72 C73 1.379 . S
C72 H82 0.930 . S
C73 C71 1.395 . S
C73 C72 1.379 . S
C73 H83 0.930 . S
C74 O52 1.264 . S
C74 O53 1.254 . S
C75 Eu11 2.848 . S
C75 O50 1.257 . S
C75 O55 1.249 1_556 S
C75 C68 1.492 . S
H76 C59 0.941 . S
H77 C60 0.930 . S
H78 C61 0.930 . S
H79 C62 0.930 . S
H80 C69 0.930 1_554 S
H81 C71 0.930 . S
H82 C72 0.930 . S
H83 C73 0.930 . S
Eu84 N115 2.657 1_655 S
Eu84 N122 2.609 1_655 S
Eu84 O128 2.558 . S
Eu84 O129 2.612 . S
Eu84 O131 2.339 1_554 S
Eu84 O132 2.563 . S
Eu84 O133 2.419 . S
Eu84 O135 2.380 1_655 S
Eu84 O136 2.432 . S
Eu84 C148 2.848 . S
C85 C88 1.429 . S
C85 C89 1.411 . S
C85 N92 1.377 . S
C86 C88 1.420 . S
C86 C90 1.423 . S
C86 C98 1.392 1_556 S
C87 C89 1.420 . S
C87 C90 1.351 . S
C87 H110 0.931 . S
C88 C85 1.429 . S
C88 C86 1.420 . S
C88 N96 1.362 1_556 S
C89 C85 1.411 . S
C89 C87 1.420 . S
C89 C94 1.395 . S
C90 C86 1.423 . S
C90 C87 1.351 . S
C90 H102 0.930 . S
C91 C93 1.400 . S
C91 C94 1.386 . S
C91 H103 0.930 . S
N92 C85 1.377 . S
N92 C93 1.321 . S
N92 Eu95 2.609 . S
C93 C91 1.400 . S
C93 N92 1.321 . S
C93 H100 0.930 . S
C94 C89 1.395 . S
C94 C91 1.386 . S
C94 H113 0.930 . S
Eu95 N92 2.609 . S
Eu95 N96 2.657 1_556 S
Eu95 O129 2.380 1_556 S
Eu95 O130 2.432 . S
Eu95 O134 2.558 . S
Eu95 O135 2.612 1_656 S
Eu95 O137 2.339 1_556 S
Eu95 O138 2.563 1_655 S
Eu95 O139 2.419 1_556 S
Eu95 C159 2.848 . S
N96 C88 1.362 1_554 S
N96 Eu95 2.657 1_554 S
N96 C97 1.334 . S
C97 N96 1.334 . S
C97 C99 1.413 . S
C97 H104 0.929 . S
C98 C86 1.392 1_554 S
C98 C99 1.367 . S
C98 H106 0.930 . S
C99 C97 1.413 . S
C99 C98 1.367 . S
C99 H101 0.930 . S
H100 C93 0.930 . S
H101 C99 0.930 . S
H102 C90 0.930 . S
H103 C91 0.930 . S
H104 C97 0.929 . S
H105 C119 0.930 . S
H106 C98 0.930 . S
H107 C125 0.930 1_655 S
H108 C116 0.929 . S
H109 C123 0.930 . S
H110 C87 0.931 . S
H111 C117 0.930 1_556 S
H112 C150 0.930 . S
H113 C94 0.930 . S
H114 C149 0.931 . S
N115 Eu84 2.657 1_455 S
N115 C116 1.334 1_554 S
N115 C120 1.362 . S
C116 H108 0.929 . S
C116 N115 1.334 1_556 S
C116 C119 1.413 . S
C117 H111 0.930 1_554 S
C117 C118 1.392 . S
C117 C119 1.367 1_554 S
C118 C117 1.392 . S
C118 C120 1.420 . S
C118 C150 1.423 . S
C119 H105 0.930 . S
C119 C116 1.413 . S
C119 C117 1.367 1_556 S
C120 N115 1.362 . S
C120 C118 1.420 . S
C120 C124 1.429 . S
H121 C126 0.930 . S
N122 Eu84 2.609 1_455 S
N122 C124 1.377 . S
N122 C125 1.321 . S
C123 H109 0.930 . S
C123 C125 1.400 . S
C123 C126 1.386 . S
C124 C120 1.429 . S
C124 N122 1.377 . S
C124 C127 1.411 . S
C125 H107 0.930 1_455 S
C125 N122 1.321 . S
C125 C123 1.400 . S
C126 H121 0.930 . S
C126 C123 1.386 . S
C126 C127 1.395 . S
C127 C124 1.411 . S
C127 C126 1.395 . S
C127 C149 1.420 . S
O128 Eu84 2.558 . S
O128 C148 1.257 . S
O129 Eu84 2.612 . S
O129 Eu95 2.380 1_554 S
O129 C140 1.276 . S
O130 Eu95 2.432 . S
O130 C147 1.264 . S
O131 Eu84 2.339 1_556 S
O131 C147 1.254 . S
O132 Eu84 2.563 . S
O132 C140 1.235 . S
O133 Eu84 2.419 . S
O133 C148 1.249 . S
O134 Eu95 2.558 . S
O134 C159 1.257 . S
O135 Eu84 2.380 1_455 S
O135 Eu95 2.612 1_454 S
O135 C151 1.276 . S
O136 Eu84 2.432 . S
O136 C158 1.264 . S
O137 Eu95 2.339 1_554 S
O137 C158 1.254 . S
O138 Eu95 2.563 1_455 S
O138 C151 1.235 1_556 S
O139 Eu95 2.419 1_554 S
O139 C159 1.249 1_554 S
C140 O129 1.276 . S
C140 O132 1.235 . S
C141 C143 1.393 . S
C141 C145 1.395 . S
C141 C148 1.492 . S
C142 C143 1.392 . S
C142 C144 1.386 . S
C143 C141 1.393 . S
C143 C142 1.392 . S
C143 H160 0.930 . S
C144 C142 1.386 . S
C144 C146 1.395 . S
C144 H161 0.930 . S
C145 C141 1.395 . S
C145 C146 1.379 . S
C145 H162 0.930 . S
C146 C144 1.395 . S
C146 C145 1.379 . S
C146 H163 0.930 . S
C147 O130 1.264 . S
C147 O131 1.254 . S
C148 Eu84 2.848 . S
C148 O128 1.257 . S
C148 O133 1.249 . S
C148 C141 1.492 . S
C149 H114 0.931 . S
C149 C127 1.420 . S
C149 C150 1.351 . S
C150 H112 0.930 . S
C150 C118 1.423 . S
C150 C149 1.351 . S
C151 O135 1.276 . S
C151 O138 1.235 1_554 S
C152 C153 1.389 1_656 S
C152 C156 1.395 . S
C152 C159 1.495 . S
C153 C152 1.389 1_454 S
C153 C154 1.392 1_554 S
C153 H164 0.930 . S
C154 C153 1.392 1_556 S
C154 C155 1.386 . S
C155 C154 1.386 . S
C155 C157 1.395 . S
C155 H165 0.930 . S
C156 C152 1.395 . S
C156 C157 1.379 1_655 S
C156 H166 0.930 . S
C157 C155 1.395 . S
C157 C156 1.379 1_455 S
C157 H167 0.930 . S
C158 O136 1.264 . S
C158 O137 1.254 . S
C159 Eu95 2.848 . S
C159 O134 1.257 . S
C159 O139 1.249 1_556 S
C159 C152 1.495 . S
H160 C143 0.930 . S
H161 C144 0.930 . S
H162 C145 0.930 . S
H163 C146 0.930 . S
H164 C153 0.930 . S
H165 C155 0.930 . S
H166 C156 0.930 . S
H167 C157 0.930 . S
Eu168 N199 2.657 . S
Eu168 N206 2.609 . S
Eu168 O212 2.558 . S
Eu168 O213 2.612 1_455 S
Eu168 O215 2.339 . S
Eu168 O216 2.563 1_455 S
Eu168 O217 2.419 . S
Eu168 O219 2.380 . S
Eu168 O220 2.432 . S
Eu168 C232 2.848 . S
C169 C172 1.429 . S
C169 C173 1.411 . S
C169 N176 1.377 . S
C170 C172 1.420 . S
C170 C174 1.423 . S
C170 C182 1.392 . S
C171 C173 1.420 . S
C171 C174 1.351 . S
C171 H194 0.931 . S
C172 C169 1.429 . S
C172 C170 1.420 . S
C172 N180 1.362 . S
C173 C169 1.411 . S
C173 C171 1.420 . S
C173 C178 1.395 . S
C174 C170 1.423 . S
C174 C171 1.351 . S
C174 H186 0.930 . S
C175 C177 1.400 . S
C175 C178 1.386 . S
C175 H187 0.930 . S
N176 C169 1.377 . S
N176 C177 1.321 . S
N176 Eu179 2.609 1_655 S
C177 C175 1.400 . S
C177 N176 1.321 . S
C177 H184 0.930 1_655 S
C178 C173 1.395 . S
C178 C175 1.386 . S
C178 H197 0.930 . S
Eu179 N176 2.609 1_455 S
Eu179 N180 2.657 1_455 S
Eu179 O213 2.380 1_455 S
Eu179 O214 2.432 . S
Eu179 O218 2.558 . S
Eu179 O219 2.612 . S
Eu179 O221 2.339 . S
Eu179 O222 2.563 . S
Eu179 O223 2.419 . S
Eu179 C243 2.848 . S
N180 C172 1.362 . S
N180 Eu179 2.657 1_655 S
N180 C181 1.334 . S
C181 N180 1.334 . S
C181 C183 1.413 . S
C181 H188 0.929 . S
C182 C170 1.392 . S
C182 C183 1.367 . S
C182 H190 0.930 . S
C183 C181 1.413 . S
C183 C182 1.367 . S
C183 H185 0.930 . S
H184 C177 0.930 1_455 S
H185 C183 0.930 . S
H186 C174 0.930 . S
H187 C175 0.930 . S
H188 C181 0.929 . S
H189 C203 0.930 . S
H190 C182 0.930 . S
H191 C209 0.930 . S
H192 C200 0.929 . S
H193 C207 0.930 . S
H194 C171 0.931 . S
H195 C201 0.930 . S
H196 C234 0.930 . S
H197 C178 0.930 . S
H198 C233 0.931 . S
N199 Eu168 2.657 . S
N199 C200 1.334 . S
N199 C204 1.362 . S
C200 H192 0.929 . S
C200 N199 1.334 . S
C200 C203 1.413 . S
C201 H195 0.930 . S
C201 C202 1.392 . S
C201 C203 1.367 . S
C202 C201 1.392 . S
C202 C204 1.420 . S
C202 C234 1.423 . S
C203 H189 0.930 . S
C203 C200 1.413 . S
C203 C201 1.367 . S
C204 N199 1.362 . S
C204 C202 1.420 . S
C204 C208 1.429 . S
H205 C210 0.930 . S
N206 Eu168 2.609 . S
N206 C208 1.377 . S
N206 C209 1.321 . S
C207 H193 0.930 . S
C207 C209 1.400 . S
C207 C210 1.386 . S
C208 C204 1.429 . S
C208 N206 1.377 . S
C208 C211 1.411 . S
C209 H191 0.930 . S
C209 N206 1.321 . S
C209 C207 1.400 . S
C210 H205 0.930 . S
C210 C207 1.386 . S
C210 C211 1.395 . S
C211 C208 1.411 . S
C211 C210 1.395 . S
C211 C233 1.420 . S
O212 Eu168 2.558 . S
O212 C232 1.257 . S
O213 Eu168 2.612 1_655 S
O213 Eu179 2.380 1_655 S
O213 C224 1.276 . S
O214 Eu179 2.432 . S
O214 C231 1.264 . S
O215 Eu168 2.339 . S
O215 C231 1.254 . S
O216 Eu168 2.563 1_655 S
O216 C224 1.235 . S
O217 Eu168 2.419 . S
O217 C232 1.249 . S
O218 Eu179 2.558 . S
O218 C243 1.257 . S
O219 Eu168 2.380 . S
O219 Eu179 2.612 . S
O219 C235 1.276 . S
O220 Eu168 2.432 . S
O220 C242 1.264 . S
O221 Eu179 2.339 . S
O221 C242 1.254 . S
O222 Eu179 2.563 . S
O222 C235 1.235 . S
O223 Eu179 2.419 . S
O223 C243 1.249 . S
C224 O213 1.276 . S
C224 O216 1.235 . S
C225 C227 1.390 1_455 S
C225 C229 1.395 . S
C225 C232 1.495 . S
C226 C227 1.392 . S
C226 C228 1.386 . S
C227 C225 1.390 1_655 S
C227 C226 1.392 . S
C227 H244 0.930 . S
C228 C226 1.386 . S
C228 C230 1.395 . S
C228 H245 0.930 . S
C229 C225 1.395 . S
C229 C230 1.379 1_455 S
C229 H246 0.930 . S
C230 C228 1.395 . S
C230 C229 1.379 1_655 S
C230 H247 0.930 . S
C231 O214 1.264 . S
C231 O215 1.254 . S
C232 Eu168 2.848 . S
C232 O212 1.257 . S
C232 O217 1.249 . S
C232 C225 1.495 . S
C233 H198 0.931 . S
C233 C211 1.420 . S
C233 C234 1.351 . S
C234 H196 0.930 . S
C234 C202 1.423 . S
C234 C233 1.351 . S
C235 O219 1.276 . S
C235 O222 1.235 . S
C236 C237 1.393 . S
C236 C240 1.395 . S
C236 C243 1.492 . S
C237 C236 1.393 . S
C237 C238 1.392 . S
C237 H248 0.930 . S
C238 C237 1.392 . S
C238 C239 1.386 . S
C239 C238 1.386 . S
C239 C241 1.395 . S
C239 H249 0.930 . S
C240 C236 1.395 . S
C240 C241 1.379 . S
C240 H250 0.930 . S
C241 C239 1.395 . S
C241 C240 1.379 . S
C241 H251 0.930 . S
C242 O220 1.264 . S
C242 O221 1.254 . S
C243 Eu179 2.848 . S
C243 O218 1.257 . S
C243 O223 1.249 . S
C243 C236 1.492 . S
H244 C227 0.930 . S
H245 C228 0.930 . S
H246 C229 0.930 . S
H247 C230 0.930 . S
H248 C237 0.930 . S
H249 C239 0.930 . S
H250 C240 0.930 . S
H251 C241 0.930 . S
Eu252 N283 2.657 1_655 S
Eu252 N290 2.609 1_655 S
Eu252 O296 2.558 . S
Eu252 O297 2.612 . S
Eu252 O299 2.339 . S
Eu252 O300 2.563 . S
Eu252 O301 2.419 . S
Eu252 O303 2.380 1_655 S
Eu252 O304 2.432 . S
Eu252 C316 2.848 . S
C253 C256 1.429 . S
C253 C257 1.411 . S
C253 N260 1.377 . S
C254 C256 1.420 . S
C254 C258 1.423 . S
C254 C266 1.392 . S
C255 C257 1.420 . S
C255 C258 1.351 . S
C255 H278 0.931 . S
C256 C253 1.429 . S
C256 C254 1.420 . S
C256 N264 1.362 . S
C257 C253 1.411 . S
C257 C255 1.420 . S
C257 C262 1.395 . S
C258 C254 1.423 . S
C258 C255 1.351 . S
C258 H270 0.930 . S
C259 C261 1.400 . S
C259 C262 1.386 . S
C259 H271 0.930 . S
N260 C253 1.377 . S
N260 C261 1.321 . S
N260 Eu263 2.609 . S
C261 C259 1.400 . S
C261 N260 1.321 . S
C261 H268 0.930 . S
C262 C257 1.395 . S
C262 C259 1.386 . S
C262 H281 0.930 . S
Eu263 N260 2.609 . S
Eu263 N264 2.657 . S
Eu263 O297 2.380 . S
Eu263 O298 2.432 . S
Eu263 O302 2.558 . S
Eu263 O303 2.612 1_655 S
Eu263 O305 2.339 . S
Eu263 O306 2.563 1_655 S
Eu263 O307 2.419 . S
Eu263 C327 2.848 . S
N264 C256 1.362 . S
N264 Eu263 2.657 . S
N264 C265 1.334 . S
C265 N264 1.334 . S
C265 C267 1.413 . S
C265 H272 0.929 . S
C266 C254 1.392 . S
C266 C267 1.367 . S
C266 H274 0.930 . S
C267 C265 1.413 . S
C267 C266 1.367 . S
C267 H269 0.930 . S
H268 C261 0.930 . S
H269 C267 0.930 . S
H270 C258 0.930 . S
H271 C259 0.930 . S
H272 C265 0.929 . S
H273 C287 0.930 . S
H274 C266 0.930 . S
H275 C293 0.930 1_655 S
H276 C284 0.929 . S
H277 C291 0.930 . S
H278 C255 0.931 . S
H279 C285 0.930 . S
H280 C318 0.930 . S
H281 C262 0.930 . S
H282 C317 0.931 . S
N283 Eu252 2.657 1_455 S
N283 C284 1.334 . S
N283 C288 1.362 . S
C284 H276 0.929 . S
C284 N283 1.334 . S
C284 C287 1.413 . S
C285 H279 0.930 . S
C285 C286 1.392 . S
C285 C287 1.367 . S
C286 C285 1.392 . S
C286 C288 1.420 . S
C286 C318 1.423 . S
C287 H273 0.930 . S
C287 C284 1.413 . S
C287 C285 1.367 . S
C288 N283 1.362 . S
C288 C286 1.420 . S
C288 C292 1.429 . S
H289 C294 0.930 . S
N290 Eu252 2.609 1_455 S
N290 C292 1.377 . S
N290 C293 1.321 . S
C291 H277 0.930 . S
C291 C293 1.400 . S
C291 C294 1.386 . S
C292 C288 1.429 . S
C292 N290 1.377 . S
C292 C295 1.411 . S
C293 H275 0.930 1_455 S
C293 N290 1.321 . S
C293 C291 1.400 . S
C294 H289 0.930 . S
C294 C291 1.386 . S
C294 C295 1.395 . S
C295 C292 1.411 . S
C295 C294 1.395 . S
C295 C317 1.420 . S
O296 Eu252 2.558 . S
O296 C316 1.257 . S
O297 Eu252 2.612 . S
O297 Eu263 2.380 . S
O297 C308 1.276 . S
O298 Eu263 2.432 . S
O298 C315 1.264 . S
O299 Eu252 2.339 . S
O299 C315 1.254 . S
O300 Eu252 2.563 . S
O300 C308 1.235 . S
O301 Eu252 2.419 . S
O301 C316 1.249 . S
O302 Eu263 2.558 . S
O302 C327 1.257 . S
O303 Eu252 2.380 1_455 S
O303 Eu263 2.612 1_455 S
O303 C319 1.276 . S
O304 Eu252 2.432 . S
O304 C326 1.264 . S
O305 Eu263 2.339 . S
O305 C326 1.254 . S
O306 Eu263 2.563 1_455 S
O306 C319 1.235 . S
O307 Eu263 2.419 . S
O307 C327 1.249 . S
C308 O297 1.276 . S
C308 O300 1.235 . S
C309 C311 1.393 . S
C309 C313 1.395 . S
C309 C316 1.492 . S
C310 C311 1.392 . S
C310 C312 1.386 . S
C311 C309 1.393 . S
C311 C310 1.392 . S
C311 H328 0.930 . S
C312 C310 1.386 . S
C312 C314 1.395 . S
C312 H329 0.930 . S
C313 C309 1.395 . S
C313 C314 1.379 . S
C313 H330 0.930 . S
C314 C312 1.395 . S
C314 C313 1.379 . S
C314 H331 0.930 . S
C315 O298 1.264 . S
C315 O299 1.254 . S
C316 Eu252 2.848 . S
C316 O296 1.257 . S
C316 O301 1.249 . S
C316 C309 1.492 . S
C317 H282 0.931 . S
C317 C295 1.420 . S
C317 C318 1.351 . S
C318 H280 0.930 . S
C318 C286 1.423 . S
C318 C317 1.351 . S
C319 O303 1.276 . S
C319 O306 1.235 . S
C320 C321 1.389 1_655 S
C320 C324 1.395 . S
C320 C327 1.495 . S
C321 C320 1.389 1_455 S
C321 C322 1.392 . S
C321 H332 0.930 . S
C322 C321 1.392 . S
C322 C323 1.386 . S
C323 C322 1.386 . S
C323 C325 1.395 . S
C323 H333 0.930 . S
C324 C320 1.395 . S
C324 C325 1.379 1_655 S
C324 H334 0.930 . S
C325 C323 1.395 . S
C325 C324 1.379 1_455 S
C325 H335 0.930 . S
C326 O304 1.264 . S
C326 O305 1.254 . S
C327 Eu263 2.848 . S
C327 O302 1.257 . S
C327 O307 1.249 . S
C327 C320 1.495 . S
H328 C311 0.930 . S
H329 C312 0.930 . S
H330 C313 0.930 . S
H331 C314 0.930 . S
H332 C321 0.930 . S
H333 C323 0.930 . S
H334 C324 0.930 . S
H335 C325 0.930 . S
Eu336 N367 2.657 . S
Eu336 N374 2.609 . S
Eu336 O380 2.558 . S
Eu336 O381 2.612 . S
Eu336 O383 2.339 1_554 S
Eu336 O384 2.563 . S
Eu336 O385 2.419 . S
Eu336 O387 2.380 . S
Eu336 O388 2.432 . S
Eu336 C400 2.848 . S
C337 C340 1.429 . S
C337 C341 1.411 . S
C337 N344 1.377 . S
C338 C340 1.420 . S
C338 C342 1.423 . S
C338 C350 1.392 1_556 S
C339 C341 1.420 . S
C339 C342 1.351 . S
C339 H362 0.931 . S
C340 C337 1.429 . S
C340 C338 1.420 . S
C340 N348 1.362 1_556 S
C341 C337 1.411 . S
C341 C339 1.420 . S
C341 C346 1.395 . S
C342 C338 1.423 . S
C342 C339 1.351 . S
C342 H354 0.930 . S
C343 C345 1.400 . S
C343 C346 1.386 . S
C343 H355 0.930 . S
N344 C337 1.377 . S
N344 C345 1.321 . S
N344 Eu347 2.609 . S
C345 C343 1.400 . S
C345 N344 1.321 . S
C345 H352 0.930 . S
C346 C341 1.395 . S
C346 C343 1.386 . S
C346 H365 0.930 . S
Eu347 N344 2.609 . S
Eu347 N348 2.657 1_556 S
Eu347 O381 2.380 1_556 S
Eu347 O382 2.432 . S
Eu347 O386 2.558 . S
Eu347 O387 2.612 1_556 S
Eu347 O389 2.339 1_556 S
Eu347 O390 2.563 . S
Eu347 O391 2.419 1_556 S
Eu347 C411 2.848 . S
N348 C340 1.362 1_554 S
N348 Eu347 2.657 1_554 S
N348 C349 1.334 . S
C349 N348 1.334 . S
C349 C351 1.413 . S
C349 H356 0.929 . S
C350 C338 1.392 1_554 S
C350 C351 1.367 . S
C350 H358 0.930 . S
C351 C349 1.413 . S
C351 C350 1.367 . S
C351 H353 0.930 . S
H352 C345 0.930 . S
H353 C351 0.930 . S
H354 C342 0.930 . S
H355 C343 0.930 . S
H356 C349 0.929 . S
H357 C371 0.930 . S
H358 C350 0.930 . S
H359 C377 0.930 . S
H360 C368 0.929 . S
H361 C375 0.930 . S
H362 C339 0.931 . S
H363 C369 0.930 . S
H364 C402 0.930 . S
H365 C346 0.930 . S
H366 C401 0.931 . S
N367 Eu336 2.657 . S
N367 C368 1.334 1_554 S
N367 C372 1.362 . S
C368 H360 0.929 . S
C368 N367 1.334 1_556 S
C368 C371 1.413 . S
C369 H363 0.930 . S
C369 C370 1.392 1_556 S
C369 C371 1.367 . S
C370 C369 1.392 1_554 S
C370 C372 1.420 . S
C370 C402 1.423 . S
C371 H357 0.930 . S
C371 C368 1.413 . S
C371 C369 1.367 . S
C372 N367 1.362 . S
C372 C370 1.420 . S
C372 C376 1.429 . S
H373 C378 0.930 . S
N374 Eu336 2.609 . S
N374 C376 1.377 . S
N374 C377 1.321 . S
C375 H361 0.930 . S
C375 C377 1.400 . S
C375 C378 1.386 . S
C376 C372 1.429 . S
C376 N374 1.377 . S
C376 C379 1.411 . S
C377 H359 0.930 . S
C377 N374 1.321 . S
C377 C375 1.400 . S
C378 H373 0.930 . S
C378 C375 1.386 . S
C378 C379 1.395 . S
C379 C376 1.411 . S
C379 C378 1.395 . S
C379 C401 1.420 . S
O380 Eu336 2.558 . S
O380 C400 1.257 . S
O381 Eu336 2.612 . S
O381 Eu347 2.380 1_554 S
O381 C392 1.276 . S
O382 Eu347 2.432 . S
O382 C399 1.264 . S
O383 Eu336 2.339 1_556 S
O383 C399 1.254 . S
O384 Eu336 2.563 . S
O384 C392 1.235 . S
O385 Eu336 2.419 . S
O385 C400 1.249 . S
O386 Eu347 2.558 . S
O386 C411 1.257 . S
O387 Eu336 2.380 . S
O387 Eu347 2.612 1_554 S
O387 C403 1.276 . S
O388 Eu336 2.432 . S
O388 C410 1.264 . S
O389 Eu347 2.339 1_554 S
O389 C410 1.254 . S
O390 Eu347 2.563 . S
O390 C403 1.235 1_556 S
O391 Eu347 2.419 1_554 S
O391 C411 1.249 1_554 S
C392 O381 1.276 . S
C392 O384 1.235 . S
C393 C395 1.393 . S
C393 C397 1.395 . S
C393 C400 1.492 . S
C394 C395 1.392 . S
C394 C396 1.386 . S
C395 C393 1.393 . S
C395 C394 1.392 . S
C395 H412 0.941 . S
C396 C394 1.386 . S
C396 C398 1.395 . S
C396 H413 0.930 . S
C397 C393 1.395 . S
C397 C398 1.379 . S
C397 H414 0.930 . S
C398 C396 1.395 . S
C398 C397 1.379 . S
C398 H415 0.930 . S
C399 O382 1.264 . S
C399 O383 1.254 . S
C400 Eu336 2.848 . S
C400 O380 1.257 . S
C400 O385 1.249 . S
C400 C393 1.492 . S
C401 H366 0.931 . S
C401 C379 1.420 . S
C401 C402 1.351 . S
C402 H364 0.930 . S
C402 C370 1.423 . S
C402 C401 1.351 . S
C403 O387 1.276 . S
C403 O390 1.235 1_554 S
C404 C405 1.393 . S
C404 C408 1.395 . S
C404 C411 1.492 . S
C405 C404 1.393 . S
C405 C406 1.392 . S
C405 H416 0.930 1_556 S
C406 C405 1.392 . S
C406 C407 1.386 . S
C407 C406 1.386 . S
C407 C409 1.395 . S
C407 H417 0.930 . S
C408 C404 1.395 . S
C408 C409 1.379 . S
C408 H418 0.930 . S
C409 C407 1.395 . S
C409 C408 1.379 . S
C409 H419 0.930 . S
C410 O388 1.264 . S
C410 O389 1.254 . S
C411 Eu347 2.848 . S
C411 O386 1.257 . S
C411 O391 1.249 1_556 S
C411 C404 1.492 . S
H412 C395 0.941 . S
H413 C396 0.930 . S
H414 C397 0.930 . S
H415 C398 0.930 . S
H416 C405 0.930 1_554 S
H417 C407 0.930 . S
H418 C408 0.930 . S
H419 C409 0.930 . S
Eu420 N451 2.657 . S
Eu420 N458 2.609 . S
Eu420 O464 2.558 . S
Eu420 O465 2.612 . S
Eu420 O467 2.339 1_554 S
Eu420 O468 2.563 . S
Eu420 O469 2.419 . S
Eu420 O471 2.380 . S
Eu420 O472 2.432 . S
Eu420 C484 2.848 . S
C421 C424 1.429 . S
C421 C425 1.411 . S
C421 N428 1.377 . S
C422 C424 1.420 . S
C422 C426 1.423 . S
C422 C434 1.392 1_556 S
C423 C425 1.420 . S
C423 C426 1.351 . S
C423 H446 0.931 . S
C424 C421 1.429 . S
C424 C422 1.420 . S
C424 N432 1.362 1_556 S
C425 C421 1.411 . S
C425 C423 1.420 . S
C425 C430 1.395 . S
C426 C422 1.423 . S
C426 C423 1.351 . S
C426 H438 0.930 . S
C427 C429 1.400 . S
C427 C430 1.386 . S
C427 H439 0.930 . S
N428 C421 1.377 . S
N428 C429 1.321 . S
N428 Eu431 2.609 . S
C429 C427 1.400 . S
C429 N428 1.321 . S
C429 H436 0.930 . S
C430 C425 1.395 . S
C430 C427 1.386 . S
C430 H449 0.930 . S
Eu431 N428 2.609 . S
Eu431 N432 2.657 1_556 S
Eu431 O465 2.380 1_556 S
Eu431 O466 2.432 . S
Eu431 O470 2.558 . S
Eu431 O471 2.612 1_556 S
Eu431 O473 2.339 1_556 S
Eu431 O474 2.563 . S
Eu431 O475 2.419 1_556 S
Eu431 C495 2.848 . S
N432 C424 1.362 1_554 S
N432 Eu431 2.657 1_554 S
N432 C433 1.334 . S
C433 N432 1.334 . S
C433 C435 1.413 . S
C433 H440 0.929 . S
C434 C422 1.392 1_554 S
C434 C435 1.367 . S
C434 H442 0.930 . S
C435 C433 1.413 . S
C435 C434 1.367 . S
C435 H437 0.930 . S
H436 C429 0.930 . S
H437 C435 0.930 . S
H438 C426 0.930 . S
H439 C427 0.930 . S
H440 C433 0.929 . S
H441 C455 0.930 . S
H442 C434 0.930 . S
H443 C461 0.930 . S
H444 C452 0.929 . S
H445 C459 0.930 . S
H446 C423 0.931 . S
H447 C453 0.930 1_556 S
H448 C486 0.930 . S
H449 C430 0.930 . S
H450 C485 0.931 . S
N451 Eu420 2.657 . S
N451 C452 1.334 1_554 S
N451 C456 1.362 . S
C452 H444 0.929 . S
C452 N451 1.334 1_556 S
C452 C455 1.413 . S
C453 H447 0.930 1_554 S
C453 C454 1.392 . S
C453 C455 1.367 1_554 S
C454 C453 1.392 . S
C454 C456 1.420 . S
C454 C486 1.423 . S
C455 H441 0.930 . S
C455 C452 1.413 . S
C455 C453 1.367 1_556 S
C456 N451 1.362 . S
C456 C454 1.420 . S
C456 C460 1.429 . S
H457 C462 0.930 . S
N458 Eu420 2.609 . S
N458 C460 1.377 . S
N458 C461 1.321 . S
C459 H445 0.930 . S
C459 C461 1.400 . S
C459 C462 1.386 . S
C460 C456 1.429 . S
C460 N458 1.377 . S
C460 C463 1.411 . S
C461 H443 0.930 . S
C461 N458 1.321 . S
C461 C459 1.400 . S
C462 H457 0.930 . S
C462 C459 1.386 . S
C462 C463 1.395 . S
C463 C460 1.411 . S
C463 C462 1.395 . S
C463 C485 1.420 . S
O464 Eu420 2.558 . S
O464 C484 1.257 . S
O465 Eu420 2.612 . S
O465 Eu431 2.380 1_554 S
O465 C476 1.276 . S
O466 Eu431 2.432 . S
O466 C483 1.264 . S
O467 Eu420 2.339 1_556 S
O467 C483 1.254 . S
O468 Eu420 2.563 . S
O468 C476 1.235 . S
O469 Eu420 2.419 . S
O469 C484 1.249 . S
O470 Eu431 2.558 . S
O470 C495 1.257 . S
O471 Eu420 2.380 . S
O471 Eu431 2.612 1_554 S
O471 C487 1.276 . S
O472 Eu420 2.432 . S
O472 C494 1.264 . S
O473 Eu431 2.339 1_554 S
O473 C494 1.254 . S
O474 Eu431 2.563 . S
O474 C487 1.235 1_556 S
O475 Eu431 2.419 1_554 S
O475 C495 1.249 1_554 S
C476 O465 1.276 . S
C476 O468 1.235 . S
C477 C479 1.393 . S
C477 C481 1.395 . S
C477 C484 1.492 . S
C478 C479 1.392 . S
C478 C480 1.386 . S
C479 C477 1.393 . S
C479 C478 1.392 . S
C479 H496 0.930 . S
C480 C478 1.386 . S
C480 C482 1.395 . S
C480 H497 0.930 . S
C481 C477 1.395 . S
C481 C482 1.379 . S
C481 H498 0.930 . S
C482 C480 1.395 . S
C482 C481 1.379 . S
C482 H499 0.930 . S
C483 O466 1.264 . S
C483 O467 1.254 . S
C484 Eu420 2.848 . S
C484 O464 1.257 . S
C484 O469 1.249 . S
C484 C477 1.492 . S
C485 H450 0.931 . S
C485 C463 1.420 . S
C485 C486 1.351 . S
C486 H448 0.930 . S
C486 C454 1.423 . S
C486 C485 1.351 . S
C487 O471 1.276 . S
C487 O474 1.235 1_554 S
C488 C489 1.393 1_556 S
C488 C492 1.395 . S
C488 C495 1.492 . S
C489 C488 1.393 1_554 S
C489 C490 1.392 1_554 S
C489 H500 0.930 . S
C490 C489 1.392 1_556 S
C490 C491 1.386 . S
C491 C490 1.386 . S
C491 C493 1.395 . S
C491 H501 0.930 . S
C492 C488 1.395 . S
C492 C493 1.379 . S
C492 H502 0.930 . S
C493 C491 1.395 . S
C493 C492 1.379 . S
C493 H503 0.930 . S
C494 O472 1.264 . S
C494 O473 1.254 . S
C495 Eu431 2.848 . S
C495 O470 1.257 . S
C495 O475 1.249 1_556 S
C495 C488 1.492 . S
H496 C479 0.930 . S
H497 C480 0.930 . S
H498 C481 0.930 . S
H499 C482 0.930 . S
H500 C489 0.930 . S
H501 C491 0.930 . S
H502 C492 0.930 . S
H503 C493 0.930 . S
Eu504 N535 2.657 . S
Eu504 N542 2.609 . S
Eu504 O548 2.558 . S
Eu504 O549 2.612 . S
Eu504 O551 2.339 . S
Eu504 O552 2.563 . S
Eu504 O553 2.419 . S
Eu504 O555 2.380 . S
Eu504 O556 2.432 . S
Eu504 C568 2.848 . S
C505 C508 1.429 . S
C505 C509 1.411 . S
C505 N512 1.377 . S
C506 C508 1.420 . S
C506 C510 1.423 . S
C506 C518 1.392 . S
C507 C509 1.420 . S
C507 C510 1.351 . S
C507 H530 0.931 . S
C508 C505 1.429 . S
C508 C506 1.420 . S
C508 N516 1.362 . S
C509 C505 1.411 . S
C509 C507 1.420 . S
C509 C514 1.395 . S
C510 C506 1.423 . S
C510 C507 1.351 . S
C510 H522 0.930 . S
C511 C513 1.400 . S
C511 C514 1.386 . S
C511 H523 0.930 . S
N512 C505 1.377 . S
N512 C513 1.321 . S
N512 Eu515 2.609 . S
C513 C511 1.400 . S
C513 N512 1.321 . S
C513 H520 0.930 . S
C514 C509 1.395 . S
C514 C511 1.386 . S
C514 H533 0.930 . S
Eu515 N512 2.609 . S
Eu515 N516 2.657 . S
Eu515 O549 2.380 . S
Eu515 O550 2.432 . S
Eu515 O554 2.558 . S
Eu515 O555 2.612 . S
Eu515 O557 2.339 . S
Eu515 O558 2.563 . S
Eu515 O559 2.419 . S
Eu515 C579 2.848 . S
N516 C508 1.362 . S
N516 Eu515 2.657 . S
N516 C517 1.334 . S
C517 N516 1.334 . S
C517 C519 1.413 . S
C517 H524 0.929 . S
C518 C506 1.392 . S
C518 C519 1.367 . S
C518 H526 0.930 . S
C519 C517 1.413 . S
C519 C518 1.367 . S
C519 H521 0.930 . S
H520 C513 0.930 . S
H521 C519 0.930 . S
H522 C510 0.930 . S
H523 C511 0.930 . S
H524 C517 0.929 . S
H525 C539 0.930 . S
H526 C518 0.930 . S
H527 C545 0.930 . S
H528 C536 0.929 . S
H529 C543 0.930 . S
H530 C507 0.931 . S
H531 C537 0.930 . S
H532 C570 0.930 . S
H533 C514 0.930 . S
H534 C569 0.931 . S
N535 Eu504 2.657 . S
N535 C536 1.334 . S
N535 C540 1.362 . S
C536 H528 0.929 . S
C536 N535 1.334 . S
C536 C539 1.413 . S
C537 H531 0.930 . S
C537 C538 1.392 . S
C537 C539 1.367 . S
C538 C537 1.392 . S
C538 C540 1.420 . S
C538 C570 1.423 . S
C539 H525 0.930 . S
C539 C536 1.413 . S
C539 C537 1.367 . S
C540 N535 1.362 . S
C540 C538 1.420 . S
C540 C544 1.429 . S
H541 C546 0.930 . S
N542 Eu504 2.609 . S
N542 C544 1.377 . S
N542 C545 1.321 . S
C543 H529 0.930 . S
C543 C545 1.400 . S
C543 C546 1.386 . S
C544 C540 1.429 . S
C544 N542 1.377 . S
C544 C547 1.411 . S
C545 H527 0.930 . S
C545 N542 1.321 . S
C545 C543 1.400 . S
C546 H541 0.930 . S
C546 C543 1.386 . S
C546 C547 1.395 . S
C547 C544 1.411 . S
C547 C546 1.395 . S
C547 C569 1.420 . S
O548 Eu504 2.558 . S
O548 C568 1.257 . S
O549 Eu504 2.612 . S
O549 Eu515 2.380 . S
O549 C560 1.276 . S
O550 Eu515 2.432 . S
O550 C567 1.264 . S
O551 Eu504 2.339 . S
O551 C567 1.254 . S
O552 Eu504 2.563 . S
O552 C560 1.235 . S
O553 Eu504 2.419 . S
O553 C568 1.249 . S
O554 Eu515 2.558 . S
O554 C579 1.257 . S
O555 Eu504 2.380 . S
O555 Eu515 2.612 . S
O555 C571 1.276 . S
O556 Eu504 2.432 . S
O556 C578 1.264 . S
O557 Eu515 2.339 . S
O557 C578 1.254 . S
O558 Eu515 2.563 . S
O558 C571 1.235 . S
O559 Eu515 2.419 . S
O559 C579 1.249 . S
C560 O549 1.276 . S
C560 O552 1.235 . S
C561 C563 1.393 . S
C561 C565 1.395 . S
C561 C568 1.492 . S
C562 C563 1.392 . S
C562 C564 1.386 . S
C563 C561 1.393 . S
C563 C562 1.392 . S
C563 H580 0.930 . S
C564 C562 1.386 . S
C564 C566 1.395 . S
C564 H581 0.930 . S
C565 C561 1.395 . S
C565 C566 1.379 . S
C565 H582 0.930 . S
C566 C564 1.395 . S
C566 C565 1.379 . S
C566 H583 0.930 . S
C567 O550 1.264 . S
C567 O551 1.254 . S
C568 Eu504 2.848 . S
C568 O548 1.257 . S
C568 O553 1.249 . S
C568 C561 1.492 . S
C569 H534 0.931 . S
C569 C547 1.420 . S
C569 C570 1.351 . S
C570 H532 0.930 . S
C570 C538 1.423 . S
C570 C569 1.351 . S
C571 O555 1.276 . S
C571 O558 1.235 . S
C572 C573 1.393 . S
C572 C576 1.395 . S
C572 C579 1.492 . S
C573 C572 1.393 . S
C573 C574 1.392 . S
C573 H584 0.930 . S
C574 C573 1.392 . S
C574 C575 1.386 . S
C575 C574 1.386 . S
C575 C577 1.395 . S
C575 H585 0.930 . S
C576 C572 1.395 . S
C576 C577 1.379 . S
C576 H586 0.930 . S
C577 C575 1.395 . S
C577 C576 1.379 . S
C577 H587 0.930 . S
C578 O556 1.264 . S
C578 O557 1.254 . S
C579 Eu515 2.848 . S
C579 O554 1.257 . S
C579 O559 1.249 . S
C579 C572 1.492 . S
H580 C563 0.930 . S
H581 C564 0.930 . S
H582 C565 0.930 . S
H583 C566 0.930 . S
H584 C573 0.930 . S
H585 C575 0.930 . S
H586 C576 0.930 . S
H587 C577 0.930 . S
Eu588 N619 2.657 . S
Eu588 N626 2.609 . S
Eu588 O632 2.558 . S
Eu588 O633 2.612 . S
Eu588 O635 2.339 . S
Eu588 O636 2.563 . S
Eu588 O637 2.419 . S
Eu588 O639 2.380 . S
Eu588 O640 2.432 . S
Eu588 C652 2.848 . S
C589 C592 1.429 . S
C589 C593 1.411 . S
C589 N596 1.377 . S
C590 C592 1.420 . S
C590 C594 1.423 . S
C590 C602 1.392 . S
C591 C593 1.420 . S
C591 C594 1.351 . S
C591 H614 0.931 . S
C592 C589 1.429 . S
C592 C590 1.420 . S
C592 N600 1.362 . S
C593 C589 1.411 . S
C593 C591 1.420 . S
C593 C598 1.395 . S
C594 C590 1.423 . S
C594 C591 1.351 . S
C594 H606 0.930 . S
C595 C597 1.400 . S
C595 C598 1.386 . S
C595 H607 0.930 . S
N596 C589 1.377 . S
N596 C597 1.321 . S
N596 Eu599 2.609 . S
C597 C595 1.400 . S
C597 N596 1.321 . S
C597 H604 0.930 . S
C598 C593 1.395 . S
C598 C595 1.386 . S
C598 H617 0.930 . S
Eu599 N596 2.609 . S
Eu599 N600 2.657 . S
Eu599 O633 2.380 . S
Eu599 O634 2.432 . S
Eu599 O638 2.558 . S
Eu599 O639 2.612 . S
Eu599 O641 2.339 . S
Eu599 O642 2.563 . S
Eu599 O643 2.419 . S
Eu599 C663 2.848 . S
N600 C592 1.362 . S
N600 Eu599 2.657 . S
N600 C601 1.334 . S
C601 N600 1.334 . S
C601 C603 1.413 . S
C601 H608 0.929 . S
C602 C590 1.392 . S
C602 C603 1.367 . S
C602 H610 0.930 . S
C603 C601 1.413 . S
C603 C602 1.367 . S
C603 H605 0.930 . S
H604 C597 0.930 . S
H605 C603 0.930 . S
H606 C594 0.930 . S
H607 C595 0.930 . S
H608 C601 0.929 . S
H609 C623 0.930 . S
H610 C602 0.930 . S
H611 C629 0.930 . S
H612 C620 0.929 . S
H613 C627 0.930 . S
H614 C591 0.931 . S
H615 C621 0.930 . S
H616 C654 0.930 . S
H617 C598 0.930 . S
H618 C653 0.931 . S
N619 Eu588 2.657 . S
N619 C620 1.334 . S
N619 C624 1.362 . S
C620 H612 0.929 . S
C620 N619 1.334 . S
C620 C623 1.413 . S
C621 H615 0.930 . S
C621 C622 1.392 . S
C621 C623 1.367 . S
C622 C621 1.392 . S
C622 C624 1.420 . S
C622 C654 1.423 . S
C623 H609 0.930 . S
C623 C620 1.413 . S
C623 C621 1.367 . S
C624 N619 1.362 . S
C624 C622 1.420 . S
C624 C628 1.429 . S
H625 C630 0.930 . S
N626 Eu588 2.609 . S
N626 C628 1.377 . S
N626 C629 1.321 . S
C627 H613 0.930 . S
C627 C629 1.400 . S
C627 C630 1.386 . S
C628 C624 1.429 . S
C628 N626 1.377 . S
C628 C631 1.411 . S
C629 H611 0.930 . S
C629 N626 1.321 . S
C629 C627 1.400 . S
C630 H625 0.930 . S
C630 C627 1.386 . S
C630 C631 1.395 . S
C631 C628 1.411 . S
C631 C630 1.395 . S
C631 C653 1.420 . S
O632 Eu588 2.558 . S
O632 C652 1.257 . S
O633 Eu588 2.612 . S
O633 Eu599 2.380 . S
O633 C644 1.276 . S
O634 Eu599 2.432 . S
O634 C651 1.264 . S
O635 Eu588 2.339 . S
O635 C651 1.254 . S
O636 Eu588 2.563 . S
O636 C644 1.235 . S
O637 Eu588 2.419 . S
O637 C652 1.249 . S
O638 Eu599 2.558 . S
O638 C663 1.257 . S
O639 Eu588 2.380 . S
O639 Eu599 2.612 . S
O639 C655 1.276 . S
O640 Eu588 2.432 . S
O640 C662 1.264 . S
O641 Eu599 2.339 . S
O641 C662 1.254 . S
O642 Eu599 2.563 . S
O642 C655 1.235 . S
O643 Eu599 2.419 . S
O643 C663 1.249 . S
C644 O633 1.276 . S
C644 O636 1.235 . S
C645 C647 1.393 . S
C645 C649 1.395 . S
C645 C652 1.492 . S
C646 C647 1.392 . S
C646 C648 1.386 . S
C647 C645 1.393 . S
C647 C646 1.392 . S
C647 H664 0.930 . S
C648 C646 1.386 . S
C648 C650 1.395 . S
C648 H665 0.930 . S
C649 C645 1.395 . S
C649 C650 1.379 . S
C649 H666 0.930 . S
C650 C648 1.395 . S
C650 C649 1.379 . S
C650 H667 0.930 . S
C651 O634 1.264 . S
C651 O635 1.254 . S
C652 Eu588 2.848 . S
C652 O632 1.257 . S
C652 O637 1.249 . S
C652 C645 1.492 . S
C653 H618 0.931 . S
C653 C631 1.420 . S
C653 C654 1.351 . S
C654 H616 0.930 . S
C654 C622 1.423 . S
C654 C653 1.351 . S
C655 O639 1.276 . S
C655 O642 1.235 . S
C656 C657 1.393 . S
C656 C660 1.395 . S
C656 C663 1.492 . S
C657 C656 1.393 . S
C657 C658 1.392 . S
C657 H668 0.930 . S
C658 C657 1.392 . S
C658 C659 1.386 . S
C659 C658 1.386 . S
C659 C661 1.395 . S
C659 H669 0.930 . S
C660 C656 1.395 . S
C660 C661 1.379 . S
C660 H670 0.930 . S
C661 C659 1.395 . S
C661 C660 1.379 . S
C661 H671 0.930 . S
C662 O640 1.264 . S
C662 O641 1.254 . S
C663 Eu599 2.848 . S
C663 O638 1.257 . S
C663 O643 1.249 . S
C663 C656 1.492 . S
H664 C647 0.930 . S
H665 C648 0.930 . S
H666 C649 0.930 . S
H667 C650 0.930 . S
H668 C657 0.930 . S
H669 C659 0.930 . S
H670 C660 0.930 . S
H671 C661 0.930 . S
C672 C673 1.349 . S
C672 C674 1.327 . S
C672 H697 0.950 . S
C673 C672 1.349 . S
C673 C689 1.349 1_554 S
C674 C672 1.327 . S
C674 C693 1.429 . S
C674 H698 0.950 . S
C675 C692 1.574 . S
C675 C694 1.368 1_556 S
C675 H699 0.949 . S
H676 C680 0.949 . S
C677 C678 1.349 1_556 S
C677 C679 1.327 . S
C677 H700 0.950 . S
C678 C677 1.349 1_554 S
C678 C690 1.349 . S
C679 C677 1.327 . S
C679 C695 1.429 1_556 S
C679 H701 0.950 . S
C680 H676 0.949 . S
C680 C688 1.574 . S
C680 C696 1.368 . S
H681 C689 0.950 . S
H682 C687 0.950 . S
H683 C688 0.949 . S
H684 C690 0.950 . S
H685 C691 0.950 . S
H686 C692 0.949 . S
C687 H682 0.950 . S
C687 C689 1.327 . S
C687 C693 1.429 1_556 S
C688 C680 1.574 . S
C688 H683 0.949 . S
C688 C694 1.368 . S
C689 C673 1.349 1_556 S
C689 H681 0.950 . S
C689 C687 1.327 . S
C690 C678 1.349 . S
C690 H684 0.950 . S
C690 C691 1.327 . S
C691 H685 0.950 . S
C691 C690 1.327 . S
C691 C695 1.429 . S
C692 C675 1.574 . S
C692 H686 0.949 . S
C692 C696 1.368 1_556 S
C693 C674 1.429 . S
C693 C687 1.429 1_554 S
C693 C694 1.523 . S
C694 C675 1.368 1_554 S
C694 C688 1.368 . S
C694 C693 1.523 . S
C695 C679 1.429 1_554 S
C695 C691 1.429 . S
C695 C696 1.523 . S
C696 C680 1.368 . S
C696 C692 1.368 1_554 S
C696 C695 1.523 . S
H697 C672 0.950 . S
H698 C674 0.950 . S
H699 C675 0.949 . S
H700 C677 0.950 . S
H701 C679 0.950 . S
C702 C703 1.349 1_556 S
C702 C704 1.327 . S
C702 H727 0.950 . S
C703 C702 1.349 1_554 S
C703 C719 1.349 . S
C704 C702 1.327 . S
C704 C723 1.429 1_556 S
C704 H728 0.950 . S
C705 C722 1.574 . S
C705 C724 1.368 . S
C705 H729 0.949 . S
H706 C710 0.949 . S
C707 C708 1.349 . S
C707 C709 1.327 . S
C707 H730 0.950 . S
C708 C707 1.349 . S
C708 C720 1.349 1_554 S
C709 C707 1.327 . S
C709 C725 1.429 . S
C709 H731 0.950 . S
C710 H706 0.949 . S
C710 C718 1.574 . S
C710 C726 1.368 1_556 S
H711 C719 0.950 . S
H712 C717 0.950 . S
H713 C718 0.949 . S
H714 C720 0.950 . S
H715 C721 0.950 . S
H716 C722 0.949 . S
C717 H712 0.950 . S
C717 C719 1.327 . S
C717 C723 1.429 . S
C718 C710 1.574 . S
C718 H713 0.949 . S
C718 C724 1.368 1_556 S
C719 C703 1.349 . S
C719 H711 0.950 . S
C719 C717 1.327 . S
C720 C708 1.349 1_556 S
C720 H714 0.950 . S
C720 C721 1.327 . S
C721 H715 0.950 . S
C721 C720 1.327 . S
C721 C725 1.429 1_556 S
C722 C705 1.574 . S
C722 H716 0.949 . S
C722 C726 1.368 . S
C723 C704 1.429 1_554 S
C723 C717 1.429 . S
C723 C724 1.523 . S
C724 C705 1.368 . S
C724 C718 1.368 1_554 S
C724 C723 1.523 . S
C725 C709 1.429 . S
C725 C721 1.429 1_554 S
C725 C726 1.523 . S
C726 C710 1.368 1_554 S
C726 C722 1.368 . S
C726 C725 1.523 . S
H727 C702 0.950 . S
H728 C704 0.950 . S
H729 C705 0.949 . S
H730 C707 0.950 . S
H731 C709 0.950 . S
C732 C733 1.349 . S
C732 C734 1.327 . S
C732 H757 0.950 . S
C733 C732 1.349 . S
C733 C749 1.349 . S
C734 C732 1.327 . S
C734 C753 1.429 . S
C734 H758 0.950 . S
C735 C752 1.574 . S
C735 C754 1.368 . S
C735 H759 0.949 . S
H736 C740 0.949 . S
C737 C738 1.349 . S
C737 C739 1.327 . S
C737 H760 0.950 . S
C738 C737 1.349 . S
C738 C750 1.349 . S
C739 C737 1.327 . S
C739 C755 1.429 . S
C739 H761 0.950 . S
C740 H736 0.949 . S
C740 C748 1.574 . S
C740 C756 1.368 . S
H741 C749 0.950 . S
H742 C747 0.950 . S
H743 C748 0.949 . S
H744 C750 0.950 . S
H745 C751 0.950 . S
H746 C752 0.949 . S
C747 H742 0.950 . S
C747 C749 1.327 . S
C747 C753 1.429 . S
C748 C740 1.574 . S
C748 H743 0.949 . S
C748 C754 1.368 . S
C749 C733 1.349 . S
C749 H741 0.950 . S
C749 C747 1.327 . S
C750 C738 1.349 . S
C750 H744 0.950 . S
C750 C751 1.327 . S
C751 H745 0.950 . S
C751 C750 1.327 . S
C751 C755 1.429 . S
C752 C735 1.574 . S
C752 H746 0.949 . S
C752 C756 1.368 . S
C753 C734 1.429 . S
C753 C747 1.429 . S
C753 C754 1.523 . S
C754 C735 1.368 . S
C754 C748 1.368 . S
C754 C753 1.523 . S
C755 C739 1.429 . S
C755 C751 1.429 . S
C755 C756 1.523 . S
C756 C740 1.368 . S
C756 C752 1.368 . S
C756 C755 1.523 . S
H757 C732 0.950 . S
H758 C734 0.950 . S
H759 C735 0.949 . S
H760 C737 0.950 . S
H761 C739 0.950 . S
C762 C763 1.349 . S
C762 C764 1.327 . S
C762 H787 0.950 . S
C763 C762 1.349 . S
C763 C779 1.349 . S
C764 C762 1.327 . S
C764 C783 1.429 . S
C764 H788 0.950 . S
C765 C782 1.574 . S
C765 C784 1.368 . S
C765 H789 0.949 . S
H766 C770 0.949 . S
C767 C768 1.349 . S
C767 C769 1.327 . S
C767 H790 0.950 . S
C768 C767 1.349 . S
C768 C780 1.349 . S
C769 C767 1.327 . S
C769 C785 1.429 . S
C769 H791 0.950 . S
C770 H766 0.949 . S
C770 C778 1.574 . S
C770 C786 1.368 . S
H771 C779 0.950 . S
H772 C777 0.950 . S
H773 C778 0.949 . S
H774 C780 0.950 . S
H775 C781 0.950 . S
H776 C782 0.949 . S
C777 H772 0.950 . S
C777 C779 1.327 . S
C777 C783 1.429 . S
C778 C770 1.574 . S
C778 H773 0.949 . S
C778 C784 1.368 . S
C779 C763 1.349 . S
C779 H771 0.950 . S
C779 C777 1.327 . S
C780 C768 1.349 . S
C780 H774 0.950 . S
C780 C781 1.327 . S
C781 H775 0.950 . S
C781 C780 1.327 . S
C781 C785 1.429 . S
C782 C765 1.574 . S
C782 H776 0.949 . S
C782 C786 1.368 . S
C783 C764 1.429 . S
C783 C777 1.429 . S
C783 C784 1.523 . S
C784 C765 1.368 . S
C784 C778 1.368 . S
C784 C783 1.523 . S
C785 C769 1.429 . S
C785 C781 1.429 . S
C785 C786 1.523 . S
C786 C770 1.368 . S
C786 C782 1.368 . S
C786 C785 1.523 . S
H787 C762 0.950 . S
H788 C764 0.950 . S
H789 C765 0.949 . S
H790 C767 0.950 . S
H791 C769 0.950 . S
C792 C793 1.349 1_556 S
C792 C794 1.327 . S
C792 H817 0.950 . S
C793 C792 1.349 1_554 S
C793 C809 1.349 . S
C794 C792 1.327 . S
C794 C813 1.429 1_556 S
C794 H818 0.950 . S
C795 C812 1.574 . S
C795 C814 1.368 1_455 S
C795 H819 0.949 . S
H796 C800 0.949 . S
C797 C798 1.349 . S
C797 C799 1.327 . S
C797 H820 0.950 . S
C798 C797 1.349 . S
C798 C810 1.349 1_554 S
C799 C797 1.327 . S
C799 C815 1.429 . S
C799 H821 0.950 . S
C800 H796 0.949 . S
C800 C808 1.574 . S
C800 C816 1.368 1_556 S
H801 C809 0.950 . S
H802 C807 0.950 . S
H803 C808 0.949 1_655 S
H804 C810 0.950 . S
H805 C811 0.950 . S
H806 C812 0.949 . S
C807 H802 0.950 . S
C807 C809 1.327 . S
C807 C813 1.429 . S
C808 C800 1.574 . S
C808 H803 0.949 1_455 S
C808 C814 1.368 1_456 S
C809 C793 1.349 . S
C809 H801 0.950 . S
C809 C807 1.327 . S
C810 C798 1.349 1_556 S
C810 H804 0.950 . S
C810 C811 1.327 . S
C811 H805 0.950 . S
C811 C810 1.327 . S
C811 C815 1.429 1_556 S
C812 C795 1.574 . S
C812 H806 0.949 . S
C812 C816 1.368 . S
C813 C794 1.429 1_554 S
C813 C807 1.429 . S
C813 C814 1.523 . S
C814 C795 1.368 1_655 S
C814 C808 1.368 1_654 S
C814 C813 1.523 . S
C815 C799 1.429 . S
C815 C811 1.429 1_554 S
C815 C816 1.523 . S
C816 C800 1.368 1_554 S
C816 C812 1.368 . S
C816 C815 1.523 . S
H817 C792 0.950 . S
H818 C794 0.950 . S
H819 C795 0.949 . S
H820 C797 0.950 . S
H821 C799 0.950 . S
C822 C823 1.349 . S
C822 C824 1.327 . S
C822 H847 0.950 . S
C823 C822 1.349 . S
C823 C839 1.349 1_554 S
C824 C822 1.327 . S
C824 C843 1.429 . S
C824 H848 0.950 . S
C825 C842 1.575 . S
C825 C844 1.368 1_656 S
C825 H849 0.949 1_655 S
H826 C830 0.949 . S
C827 C828 1.349 . S
C827 C829 1.327 . S
C827 H850 0.950 1_554 S
C828 C827 1.349 . S
C828 C840 1.349 . S
C829 C827 1.327 . S
C829 C845 1.429 . S
C829 H851 0.950 1_554 S
C830 H826 0.949 . S
C830 C838 1.574 . S
C830 C846 1.368 . S
H831 C839 0.950 . S
H832 C837 0.950 . S
H833 C838 0.949 . S
H834 C840 0.950 . S
H835 C841 0.950 . S
H836 C842 0.949 . S
C837 H832 0.950 . S
C837 C839 1.327 . S
C837 C843 1.429 1_556 S
C838 C830 1.574 . S
C838 H833 0.949 . S
C838 C844 1.368 1_655 S
C839 C823 1.349 1_556 S
C839 H831 0.950 . S
C839 C837 1.327 . S
C840 C828 1.349 . S
C840 H834 0.950 . S
C840 C841 1.327 . S
C841 H835 0.950 . S
C841 C840 1.327 . S
C841 C845 1.429 . S
C842 C825 1.575 . S
C842 H836 0.949 . S
C842 C846 1.368 1_556 S
C843 C824 1.429 . S
C843 C837 1.429 1_554 S
C843 C844 1.523 . S
C844 C825 1.368 1_454 S
C844 C838 1.368 1_455 S
C844 C843 1.523 . S
C845 C829 1.429 . S
C845 C841 1.429 . S
C845 C846 1.523 . S
C846 C830 1.368 . S
C846 C842 1.368 1_554 S
C846 C845 1.523 . S
H847 C822 0.950 . S
H848 C824 0.950 . S
H849 C825 0.949 1_455 S
H850 C827 0.950 1_556 S
H851 C829 0.950 1_556 S
C852 C853 1.349 . S
C852 C854 1.327 . S
C852 H877 0.950 . S
C853 C852 1.349 . S
C853 C869 1.349 . S
C854 C852 1.327 . S
C854 C873 1.429 . S
C854 H878 0.950 . S
C855 C872 1.574 . S
C855 C874 1.368 . S
C855 H879 0.949 . S
H856 C860 0.949 1_655 S
C857 C858 1.349 . S
C857 C859 1.327 . S
C857 H880 0.950 . S
C858 C857 1.349 . S
C858 C870 1.349 . S
C859 C857 1.327 . S
C859 C875 1.429 . S
C859 H881 0.950 . S
C860 H856 0.949 1_455 S
C860 C868 1.574 . S
C860 C876 1.368 1_455 S
H861 C869 0.950 . S
H862 C867 0.950 . S
H863 C868 0.949 . S
H864 C870 0.950 . S
H865 C871 0.950 . S
H866 C872 0.949 . S
C867 H862 0.950 . S
C867 C869 1.327 . S
C867 C873 1.429 . S
C868 C860 1.574 . S
C868 H863 0.949 . S
C868 C874 1.368 . S
C869 C853 1.349 . S
C869 H861 0.950 . S
C869 C867 1.327 . S
C870 C858 1.349 . S
C870 H864 0.950 . S
C870 C871 1.327 . S
C871 H865 0.950 . S
C871 C870 1.327 . S
C871 C875 1.429 . S
C872 C855 1.574 . S
C872 H866 0.949 . S
C872 C876 1.368 1_455 S
C873 C854 1.429 . S
C873 C867 1.429 . S
C873 C874 1.523 . S
C874 C855 1.368 . S
C874 C868 1.368 . S
C874 C873 1.523 . S
C875 C859 1.429 . S
C875 C871 1.429 . S
C875 C876 1.523 . S
C876 C860 1.368 1_655 S
C876 C872 1.368 1_655 S
C876 C875 1.523 . S
H877 C852 0.950 . S
H878 C854 0.950 . S
H879 C855 0.949 . S
H880 C857 0.950 . S
H881 C859 0.950 . S
C882 C883 1.349 . S
C882 C884 1.327 . S
C882 H907 0.950 . S
C883 C882 1.349 . S
C883 C899 1.349 . S
C884 C882 1.327 . S
C884 C903 1.429 . S
C884 H908 0.950 . S
C885 C902 1.574 . S
C885 C904 1.368 . S
C885 H909 0.949 . S
H886 C890 0.949 1_455 S
C887 C888 1.349 . S
C887 C889 1.327 . S
C887 H910 0.950 . S
C888 C887 1.349 . S
C888 C900 1.349 . S
C889 C887 1.327 . S
C889 C905 1.429 . S
C889 H911 0.950 . S
C890 H886 0.949 1_655 S
C890 C898 1.574 . S
C890 C906 1.368 1_655 S
H891 C899 0.950 . S
H892 C897 0.950 . S
H893 C898 0.949 . S
H894 C900 0.950 . S
H895 C901 0.950 . S
H896 C902 0.949 1_455 S
C897 H892 0.950 . S
C897 C899 1.327 . S
C897 C903 1.429 . S
C898 C890 1.574 . S
C898 H893 0.949 . S
C898 C904 1.368 . S
C899 C883 1.349 . S
C899 H891 0.950 . S
C899 C897 1.327 . S
C900 C888 1.349 . S
C900 H894 0.950 . S
C900 C901 1.327 . S
C901 H895 0.950 . S
C901 C900 1.327 . S
C901 C905 1.429 . S
C902 C885 1.574 . S
C902 H896 0.949 1_655 S
C902 C906 1.368 1_655 S
C903 C884 1.429 . S
C903 C897 1.429 . S
C903 C904 1.523 . S
C904 C885 1.368 . S
C904 C898 1.368 . S
C904 C903 1.523 . S
C905 C889 1.429 . S
C905 C901 1.429 . S
C905 C906 1.523 . S
C906 C890 1.368 1_455 S
C906 C902 1.368 1_455 S
C906 C905 1.523 . S
H907 C882 0.950 . S
H908 C884 0.950 . S
H909 C885 0.949 . S
H910 C887 0.950 . S
H911 C889 0.950 . S
C912 C913 1.349 . S
C912 C914 1.327 . S
C912 H937 0.950 . S
C913 C912 1.349 . S
C913 C929 1.349 1_554 S
C914 C912 1.327 . S
C914 C933 1.429 . S
C914 H938 0.950 1_455 S
C915 C932 1.574 . S
C915 C934 1.368 1_556 S
C915 H939 0.949 . S
H916 C920 0.949 . S
C917 C918 1.349 1_556 S
C917 C919 1.327 . S
C917 H940 0.950 . S
C918 C917 1.349 1_554 S
C918 C930 1.349 . S
C919 C917 1.327 . S
C919 C935 1.429 1_556 S
C919 H941 0.950 1_655 S
C920 H916 0.949 . S
C920 C928 1.574 . S
C920 C936 1.368 . S
H921 C929 0.950 . S
H922 C927 0.950 . S
H923 C928 0.949 . S
H924 C930 0.950 . S
H925 C931 0.950 . S
H926 C932 0.949 . S
C927 H922 0.950 . S
C927 C929 1.327 . S
C927 C933 1.429 1_556 S
C928 C920 1.574 . S
C928 H923 0.949 . S
C928 C934 1.368 1_655 S
C929 C913 1.349 1_556 S
C929 H921 0.950 . S
C929 C927 1.327 . S
C930 C918 1.349 . S
C930 H924 0.950 . S
C930 C931 1.327 . S
C931 H925 0.950 . S
C931 C930 1.327 . S
C931 C935 1.429 . S
C932 C915 1.574 . S
C932 H926 0.949 . S
C932 C936 1.368 1_456 S
C933 C914 1.429 . S
C933 C927 1.429 1_554 S
C933 C934 1.523 . S
C934 C915 1.368 1_554 S
C934 C928 1.368 1_455 S
C934 C933 1.523 . S
C935 C919 1.429 1_554 S
C935 C931 1.429 . S
C935 C936 1.523 . S
C936 C920 1.368 . S
C936 C932 1.368 1_654 S
C936 C935 1.523 . S
H937 C912 0.950 . S
H938 C914 0.950 1_655 S
H939 C915 0.949 . S
H940 C917 0.950 . S
H941 C919 0.950 1_455 S
C942 C943 1.349 . S
C942 C944 1.327 . S
C942 H967 0.950 . S
C943 C942 1.349 . S
C943 C959 1.349 . S
C944 C942 1.327 . S
C944 C963 1.429 . S
C944 H968 0.950 1_455 S
C945 C962 1.574 . S
C945 C964 1.368 . S
C945 H969 0.949 . S
H946 C950 0.949 . S
C947 C948 1.349 . S
C947 C949 1.327 . S
C947 H970 0.950 . S
C948 C947 1.349 . S
C948 C960 1.349 . S
C949 C947 1.327 . S
C949 C965 1.429 . S
C949 H971 0.950 1_655 S
C950 H946 0.949 . S
C950 C958 1.574 . S
C950 C966 1.368 . S
H951 C959 0.950 . S
H952 C957 0.950 . S
H953 C958 0.949 . S
H954 C960 0.950 . S
H955 C961 0.950 . S
H956 C962 0.949 . S
C957 H952 0.950 . S
C957 C959 1.327 . S
C957 C963 1.429 . S
C958 C950 1.574 . S
C958 H953 0.949 . S
C958 C964 1.368 1_655 S
C959 C943 1.349 . S
C959 H951 0.950 . S
C959 C957 1.327 . S
C960 C948 1.349 . S
C960 H954 0.950 . S
C960 C961 1.327 . S
C961 H955 0.950 . S
C961 C960 1.327 . S
C961 C965 1.429 . S
C962 C945 1.574 . S
C962 H956 0.949 . S
C962 C966 1.368 1_455 S
C963 C944 1.429 . S
C963 C957 1.429 . S
C963 C964 1.523 . S
C964 C945 1.368 . S
C964 C958 1.368 1_455 S
C964 C963 1.523 . S
C965 C949 1.429 . S
C965 C961 1.429 . S
C965 C966 1.523 . S
C966 C950 1.368 . S
C966 C962 1.368 1_655 S
C966 C965 1.523 . S
H967 C942 0.950 . S
H968 C944 0.950 1_655 S
H969 C945 0.949 . S
H970 C947 0.950 . S
H971 C949 0.950 1_455 S
C972 C973 1.349 1_556 S
C972 C974 1.327 . S
C972 H997 0.950 . S
C973 C972 1.349 1_554 S
C973 C989 1.349 . S
C974 C972 1.327 . S
C974 C993 1.429 1_556 S
C974 H998 0.950 . S
C975 C992 1.574 1_565 S
C975 C994 1.368 . S
C975 H999 0.949 . S
H976 C980 0.949 . S
C977 C978 1.349 . S
C977 C979 1.327 . S
C977 H1000 0.950 . S
C978 C977 1.349 . S
C978 C990 1.349 1_554 S
C979 C977 1.327 . S
C979 C995 1.429 . S
C979 H1001 0.950 . S
C980 H976 0.949 . S
C980 C988 1.574 1_545 S
C980 C996 1.368 1_556 S
H981 C989 0.950 . S
H982 C987 0.950 . S
H983 C988 0.949 . S
H984 C990 0.950 . S
H985 C991 0.950 . S
H986 C992 0.949 . S
C987 H982 0.950 . S
C987 C989 1.327 . S
C987 C993 1.429 . S
C988 C980 1.574 1_565 S
C988 H983 0.949 . S
C988 C994 1.368 1_556 S
C989 C973 1.349 . S
C989 H981 0.950 . S
C989 C987 1.327 . S
C990 C978 1.349 1_556 S
C990 H984 0.950 . S
C990 C991 1.327 . S
C991 H985 0.950 . S
C991 C990 1.327 . S
C991 C995 1.429 1_556 S
C992 C975 1.574 1_545 S
C992 H986 0.949 . S
C992 C996 1.368 . S
C993 C974 1.429 1_554 S
C993 C987 1.429 . S
C993 C994 1.523 . S
C994 C975 1.368 . S
C994 C988 1.368 1_554 S
C994 C993 1.523 . S
C995 C979 1.429 . S
C995 C991 1.429 1_554 S
C995 C996 1.523 . S
C996 C980 1.368 1_554 S
C996 C992 1.368 . S
C996 C995 1.523 . S
H997 C972 0.950 . S
H998 C974 0.950 . S
H999 C975 0.949 . S
H1000 C977 0.950 . S
H1001 C979 0.950 . S
C1002 C1003 1.349 . S
C1002 C1004 1.327 . S
C1002 H1027 0.950 . S
C1003 C1002 1.349 . S
C1003 C1019 1.349 . S
C1004 C1002 1.327 . S
C1004 C1023 1.429 . S
C1004 H1028 0.950 . S
C1005 C1022 1.574 1_545 S
C1005 C1024 1.368 . S
C1005 H1029 0.949 . S
H1006 C1010 0.949 . S
C1007 C1008 1.349 . S
C1007 C1009 1.327 . S
C1007 H1030 0.950 . S
C1008 C1007 1.349 . S
C1008 C1020 1.349 . S
C1009 C1007 1.327 . S
C1009 C1025 1.429 . S
C1009 H1031 0.950 . S
C1010 H1006 0.949 . S
C1010 C1018 1.574 1_565 S
C1010 C1026 1.368 . S
H1011 C1019 0.950 . S
H1012 C1017 0.950 . S
H1013 C1018 0.949 . S
H1014 C1020 0.950 . S
H1015 C1021 0.950 . S
H1016 C1022 0.949 . S
C1017 H1012 0.950 . S
C1017 C1019 1.327 . S
C1017 C1023 1.429 . S
C1018 C1010 1.574 1_545 S
C1018 H1013 0.949 . S
C1018 C1024 1.368 . S
C1019 C1003 1.349 . S
C1019 H1011 0.950 . S
C1019 C1017 1.327 . S
C1020 C1008 1.349 . S
C1020 H1014 0.950 . S
C1020 C1021 1.327 . S
C1021 H1015 0.950 . S
C1021 C1020 1.327 . S
C1021 C1025 1.429 . S
C1022 C1005 1.574 1_565 S
C1022 H1016 0.949 . S
C1022 C1026 1.368 . S
C1023 C1004 1.429 . S
C1023 C1017 1.429 . S
C1023 C1024 1.523 . S
C1024 C1005 1.368 . S
C1024 C1018 1.368 . S
C1024 C1023 1.523 . S
C1025 C1009 1.429 . S
C1025 C1021 1.429 . S
C1025 C1026 1.523 . S
C1026 C1010 1.368 . S
C1026 C1022 1.368 . S
C1026 C1025 1.523 . S
H1027 C1002 0.950 . S
H1028 C1004 0.950 . S
H1029 C1005 0.949 . S
H1030 C1007 0.950 . S
H1031 C1009 0.950 . S
C1032 C1033 1.349 1_556 S
C1032 C1034 1.327 . S
C1032 H1057 0.950 . S
C1033 C1032 1.349 1_554 S
C1033 C1049 1.349 . S
C1034 C1032 1.327 . S
C1034 C1053 1.429 1_556 S
C1034 H1058 0.950 . S
C1035 C1052 1.574 . S
C1035 C1054 1.368 . S
C1035 H1059 0.949 . S
H1036 C1040 0.949 . S
C1037 C1038 1.349 . S
C1037 C1039 1.327 . S
C1037 H1060 0.950 . S
C1038 C1037 1.349 . S
C1038 C1050 1.349 1_554 S
C1039 C1037 1.327 . S
C1039 C1055 1.429 . S
C1039 H1061 0.950 . S
C1040 H1036 0.949 . S
C1040 C1048 1.574 . S
C1040 C1056 1.368 1_556 S
H1041 C1049 0.950 . S
H1042 C1047 0.950 . S
H1043 C1048 0.949 . S
H1044 C1050 0.950 . S
H1045 C1051 0.950 . S
H1046 C1052 0.949 . S
C1047 H1042 0.950 . S
C1047 C1049 1.327 . S
C1047 C1053 1.429 . S
C1048 C1040 1.574 . S
C1048 H1043 0.949 . S
C1048 C1054 1.368 1_556 S
C1049 C1033 1.349 . S
C1049 H1041 0.950 . S
C1049 C1047 1.327 . S
C1050 C1038 1.349 1_556 S
C1050 H1044 0.950 . S
C1050 C1051 1.327 . S
C1051 H1045 0.950 . S
C1051 C1050 1.327 . S
C1051 C1055 1.429 1_556 S
C1052 C1035 1.574 . S
C1052 H1046 0.949 . S
C1052 C1056 1.368 . S
C1053 C1034 1.429 1_554 S
C1053 C1047 1.429 . S
C1053 C1054 1.523 . S
C1054 C1035 1.368 . S
C1054 C1048 1.368 1_554 S
C1054 C1053 1.523 . S
C1055 C1039 1.429 . S
C1055 C1051 1.429 1_554 S
C1055 C1056 1.523 . S
C1056 C1040 1.368 1_554 S
C1056 C1052 1.368 . S
C1056 C1055 1.523 . S
H1057 C1032 0.950 . S
H1058 C1034 0.950 . S
H1059 C1035 0.949 . S
H1060 C1037 0.950 . S
H1061 C1039 0.950 . S
C1062 C1063 1.349 . S
C1062 C1064 1.327 . S
C1062 H1087 0.950 . S
C1063 C1062 1.349 . S
C1063 C1079 1.349 . S
C1064 C1062 1.327 . S
C1064 C1083 1.429 . S
C1064 H1088 0.950 . S
C1065 C1082 1.574 . S
C1065 C1084 1.368 . S
C1065 H1089 0.949 . S
H1066 C1070 0.949 . S
C1067 C1068 1.349 . S
C1067 C1069 1.327 . S
C1067 H1090 0.950 . S
C1068 C1067 1.349 . S
C1068 C1080 1.349 . S
C1069 C1067 1.327 . S
C1069 C1085 1.429 . S
C1069 H1091 0.950 . S
C1070 H1066 0.949 . S
C1070 C1078 1.574 . S
C1070 C1086 1.368 . S
H1071 C1079 0.950 . S
H1072 C1077 0.950 . S
H1073 C1078 0.949 . S
H1074 C1080 0.950 . S
H1075 C1081 0.950 . S
H1076 C1082 0.949 . S
C1077 H1072 0.950 . S
C1077 C1079 1.327 . S
C1077 C1083 1.429 . S
C1078 C1070 1.574 . S
C1078 H1073 0.949 . S
C1078 C1084 1.368 . S
C1079 C1063 1.349 . S
C1079 H1071 0.950 . S
C1079 C1077 1.327 . S
C1080 C1068 1.349 . S
C1080 H1074 0.950 . S
C1080 C1081 1.327 . S
C1081 H1075 0.950 . S
C1081 C1080 1.327 . S
C1081 C1085 1.429 . S
C1082 C1065 1.574 . S
C1082 H1076 0.949 . S
C1082 C1086 1.368 . S
C1083 C1064 1.429 . S
C1083 C1077 1.429 . S
C1083 C1084 1.523 . S
C1084 C1065 1.368 . S
C1084 C1078 1.368 . S
C1084 C1083 1.523 . S
C1085 C1069 1.429 . S
C1085 C1081 1.429 . S
C1085 C1086 1.523 . S
C1086 C1070 1.368 . S
C1086 C1082 1.368 . S
C1086 C1085 1.523 . S
H1087 C1062 0.950 . S
H1088 C1064 0.950 . S
H1089 C1065 0.949 . S
H1090 C1067 0.950 . S
H1091 C1069 0.950 . S
C1092 C1093 1.349 . S
C1092 C1094 1.327 . S
C1092 H1117 0.950 . S
C1093 C1092 1.349 . S
C1093 C1109 1.349 . S
C1094 C1092 1.327 . S
C1094 C1113 1.429 . S
C1094 H1118 0.950 . S
C1095 C1112 1.574 . S
C1095 C1114 1.368 . S
C1095 H1119 0.949 . S
H1096 C1100 0.949 . S
C1097 C1098 1.349 . S
C1097 C1099 1.327 . S
C1097 H1120 0.950 . S
C1098 C1097 1.349 . S
C1098 C1110 1.349 . S
C1099 C1097 1.327 . S
C1099 C1115 1.429 . S
C1099 H1121 0.950 . S
C1100 H1096 0.949 . S
C1100 C1108 1.574 . S
C1100 C1116 1.368 . S
H1101 C1109 0.950 . S
H1102 C1107 0.950 . S
H1103 C1108 0.949 . S
H1104 C1110 0.950 . S
H1105 C1111 0.950 . S
H1106 C1112 0.949 . S
C1107 H1102 0.950 . S
C1107 C1109 1.327 . S
C1107 C1113 1.429 . S
C1108 C1100 1.574 . S
C1108 H1103 0.949 . S
C1108 C1114 1.368 . S
C1109 C1093 1.349 . S
C1109 H1101 0.950 . S
C1109 C1107 1.327 . S
C1110 C1098 1.349 . S
C1110 H1104 0.950 . S
C1110 C1111 1.327 . S
C1111 H1105 0.950 . S
C1111 C1110 1.327 . S
C1111 C1115 1.429 . S
C1112 C1095 1.574 . S
C1112 H1106 0.949 . S
C1112 C1116 1.368 . S
C1113 C1094 1.429 . S
C1113 C1107 1.429 . S
C1113 C1114 1.523 . S
C1114 C1095 1.368 . S
C1114 C1108 1.368 . S
C1114 C1113 1.523 . S
C1115 C1099 1.429 . S
C1115 C1111 1.429 . S
C1115 C1116 1.523 . S
C1116 C1100 1.368 . S
C1116 C1112 1.368 . S
C1116 C1115 1.523 . S
H1117 C1092 0.950 . S
H1118 C1094 0.950 . S
H1119 C1095 0.949 . S
H1120 C1097 0.950 . S
H1121 C1099 0.950 . S
C1122 C1123 1.349 . S
C1122 C1124 1.327 . S
C1122 H1147 0.950 . S
C1123 C1122 1.349 . S
C1123 C1139 1.349 . S
C1124 C1122 1.327 . S
C1124 C1143 1.429 . S
C1124 H1148 0.950 . S
C1125 C1142 1.574 . S
C1125 C1144 1.368 . S
C1125 H1149 0.949 . S
H1126 C1130 0.949 . S
C1127 C1128 1.349 . S
C1127 C1129 1.327 . S
C1127 H1150 0.950 . S
C1128 C1127 1.349 . S
C1128 C1140 1.349 . S
C1129 C1127 1.327 . S
C1129 C1145 1.429 . S
C1129 H1151 0.950 . S
C1130 H1126 0.949 . S
C1130 C1138 1.574 . S
C1130 C1146 1.368 . S
H1131 C1139 0.950 . S
H1132 C1137 0.950 . S
H1133 C1138 0.949 . S
H1134 C1140 0.950 . S
H1135 C1141 0.950 . S
H1136 C1142 0.949 . S
C1137 H1132 0.950 . S
C1137 C1139 1.327 . S
C1137 C1143 1.429 . S
C1138 C1130 1.574 . S
C1138 H1133 0.949 . S
C1138 C1144 1.368 . S
C1139 C1123 1.349 . S
C1139 H1131 0.950 . S
C1139 C1137 1.327 . S
C1140 C1128 1.349 . S
C1140 H1134 0.950 . S
C1140 C1141 1.327 . S
C1141 H1135 0.950 . S
C1141 C1140 1.327 . S
C1141 C1145 1.429 . S
C1142 C1125 1.574 . S
C1142 H1136 0.949 . S
C1142 C1146 1.368 . S
C1143 C1124 1.429 . S
C1143 C1137 1.429 . S
C1143 C1144 1.523 . S
C1144 C1125 1.368 . S
C1144 C1138 1.368 . S
C1144 C1143 1.523 . S
C1145 C1129 1.429 . S
C1145 C1141 1.429 . S
C1145 C1146 1.523 . S
C1146 C1130 1.368 . S
C1146 C1142 1.368 . S
C1146 C1145 1.523 . S
H1147 C1122 0.950 . S
H1148 C1124 0.950 . S
H1149 C1125 0.949 . S
H1150 C1127 0.950 . S
H1151 C1129 0.950 . S
C1152 C1153 1.349 . S
C1152 C1154 1.327 . S
C1152 H1177 0.950 . S
C1153 C1152 1.349 . S
C1153 C1169 1.349 . S
C1154 C1152 1.327 . S
C1154 C1173 1.429 . S
C1154 H1178 0.950 . S
C1155 C1172 1.574 1_455 S
C1155 C1174 1.368 . S
C1155 H1179 0.949 1_455 S
H1156 C1160 0.949 . S
C1157 C1158 1.349 . S
C1157 C1159 1.327 . S
C1157 H1180 0.950 . S
C1158 C1157 1.349 . S
C1158 C1170 1.349 . S
C1159 C1157 1.327 . S
C1159 C1175 1.429 . S
C1159 H1181 0.950 . S
C1160 H1156 0.949 . S
C1160 C1168 1.574 . S
C1160 C1176 1.368 . S
H1161 C1169 0.950 . S
H1162 C1167 0.950 . S
H1163 C1168 0.949 . S
H1164 C1170 0.950 1_455 S
H1165 C1171 0.950 . S
H1166 C1172 0.949 . S
C1167 H1162 0.950 . S
C1167 C1169 1.327 . S
C1167 C1173 1.429 . S
C1168 C1160 1.574 . S
C1168 H1163 0.949 . S
C1168 C1174 1.368 . S
C1169 C1153 1.349 . S
C1169 H1161 0.950 . S
C1169 C1167 1.327 . S
C1170 C1158 1.349 . S
C1170 H1164 0.950 1_655 S
C1170 C1171 1.327 1_655 S
C1171 H1165 0.950 . S
C1171 C1170 1.327 1_455 S
C1171 C1175 1.429 1_455 S
C1172 C1155 1.574 1_655 S
C1172 H1166 0.949 . S
C1172 C1176 1.368 1_655 S
C1173 C1154 1.429 . S
C1173 C1167 1.429 . S
C1173 C1174 1.523 . S
C1174 C1155 1.368 . S
C1174 C1168 1.368 . S
C1174 C1173 1.523 . S
C1175 C1159 1.429 . S
C1175 C1171 1.429 1_655 S
C1175 C1176 1.523 1_655 S
C1176 C1160 1.368 . S
C1176 C1172 1.368 1_455 S
C1176 C1175 1.523 1_455 S
H1177 C1152 0.950 . S
H1178 C1154 0.950 . S
H1179 C1155 0.949 1_655 S
H1180 C1157 0.950 . S
H1181 C1159 0.950 . S
C1182 C1183 1.349 . S
C1182 C1184 1.327 . S
C1182 H1207 0.950 . S
C1183 C1182 1.349 . S
C1183 C1199 1.349 1_655 S
C1184 C1182 1.327 . S
C1184 C1203 1.429 . S
C1184 H1208 0.950 . S
C1185 C1202 1.574 . S
C1185 C1204 1.368 . S
C1185 H1209 0.949 . S
H1186 C1190 0.949 . S
C1187 C1188 1.349 . S
C1187 C1189 1.327 . S
C1187 H1210 0.950 . S
C1188 C1187 1.349 . S
C1188 C1200 1.349 . S
C1189 C1187 1.327 . S
C1189 C1205 1.429 . S
C1189 H1211 0.950 . S
C1190 H1186 0.949 . S
C1190 C1198 1.574 . S
C1190 C1206 1.368 1_655 S
H1191 C1199 0.950 . S
H1192 C1197 0.950 . S
H1193 C1198 0.949 . S
H1194 C1200 0.950 . S
H1195 C1201 0.950 1_655 S
H1196 C1202 0.949 . S
C1197 H1192 0.950 . S
C1197 C1199 1.327 . S
C1197 C1203 1.429 1_455 S
C1198 C1190 1.574 . S
C1198 H1193 0.949 . S
C1198 C1204 1.368 1_655 S
C1199 C1183 1.349 1_455 S
C1199 H1191 0.950 . S
C1199 C1197 1.327 . S
C1200 C1188 1.349 . S
C1200 H1194 0.950 . S
C1200 C1201 1.327 . S
C1201 H1195 0.950 1_455 S
C1201 C1200 1.327 . S
C1201 C1205 1.429 . S
C1202 C1185 1.574 . S
C1202 H1196 0.949 . S
C1202 C1206 1.368 . S
C1203 C1184 1.429 . S
C1203 C1197 1.429 1_655 S
C1203 C1204 1.523 1_655 S
C1204 C1185 1.368 . S
C1204 C1198 1.368 1_455 S
C1204 C1203 1.523 1_455 S
C1205 C1189 1.429 . S
C1205 C1201 1.429 . S
C1205 C1206 1.523 . S
C1206 C1190 1.368 1_455 S
C1206 C1202 1.368 . S
C1206 C1205 1.523 . S
H1207 C1182 0.950 . S
H1208 C1184 0.950 . S
H1209 C1185 0.949 . S
H1210 C1187 0.950 . S
H1211 C1189 0.950 . S
C1212 C1213 1.349 . S
C1212 C1214 1.327 . S
C1212 H1237 0.950 . S
C1213 C1212 1.349 . S
C1213 C1229 1.349 . S
C1214 C1212 1.327 . S
C1214 C1233 1.429 . S
C1214 H1238 0.950 . S
C1215 C1232 1.574 1_655 S
C1215 C1234 1.368 . S
C1215 H1239 0.949 1_655 S
H1216 C1220 0.949 . S
C1217 C1218 1.349 . S
C1217 C1219 1.327 . S
C1217 H1240 0.950 . S
C1218 C1217 1.349 . S
C1218 C1230 1.349 . S
C1219 C1217 1.327 . S
C1219 C1235 1.429 . S
C1219 H1241 0.950 . S
C1220 H1216 0.949 . S
C1220 C1228 1.574 . S
C1220 C1236 1.368 . S
H1221 C1229 0.950 . S
H1222 C1227 0.950 . S
H1223 C1228 0.949 . S
H1224 C1230 0.950 1_655 S
H1225 C1231 0.950 . S
H1226 C1232 0.949 . S
C1227 H1222 0.950 . S
C1227 C1229 1.327 . S
C1227 C1233 1.429 . S
C1228 C1220 1.574 . S
C1228 H1223 0.949 . S
C1228 C1234 1.368 . S
C1229 C1213 1.349 . S
C1229 H1221 0.950 . S
C1229 C1227 1.327 . S
C1230 C1218 1.349 . S
C1230 H1224 0.950 1_455 S
C1230 C1231 1.327 1_455 S
C1231 H1225 0.950 . S
C1231 C1230 1.327 1_655 S
C1231 C1235 1.429 1_655 S
C1232 C1215 1.574 1_455 S
C1232 H1226 0.949 . S
C1232 C1236 1.368 1_455 S
C1233 C1214 1.429 . S
C1233 C1227 1.429 . S
C1233 C1234 1.523 . S
C1234 C1215 1.368 . S
C1234 C1228 1.368 . S
C1234 C1233 1.523 . S
C1235 C1219 1.429 . S
C1235 C1231 1.429 1_455 S
C1235 C1236 1.523 1_455 S
C1236 C1220 1.368 . S
C1236 C1232 1.368 1_655 S
C1236 C1235 1.523 1_655 S
H1237 C1212 0.950 . S
H1238 C1214 0.950 . S
H1239 C1215 0.949 1_455 S
H1240 C1217 0.950 . S
H1241 C1219 0.950 . S
C1242 C1243 1.349 . S
C1242 C1244 1.327 . S
C1242 H1267 0.950 . S
C1243 C1242 1.349 . S
C1243 C1259 1.349 . S
C1244 C1242 1.327 . S
C1244 C1263 1.429 . S
C1244 H1268 0.950 . S
C1245 C1262 1.574 . S
C1245 C1264 1.368 . S
C1245 H1269 0.949 . S
H1246 C1250 0.949 . S
C1247 C1248 1.349 . S
C1247 C1249 1.327 . S
C1247 H1270 0.950 . S
C1248 C1247 1.349 . S
C1248 C1260 1.349 . S
C1249 C1247 1.327 . S
C1249 C1265 1.429 . S
C1249 H1271 0.950 . S
C1250 H1246 0.949 . S
C1250 C1258 1.574 . S
C1250 C1266 1.368 . S
H1251 C1259 0.950 . S
H1252 C1257 0.950 . S
H1253 C1258 0.949 . S
H1254 C1260 0.950 . S
H1255 C1261 0.947 1_655 S
H1256 C1262 0.949 1_455 S
C1257 H1252 0.950 . S
C1257 C1259 1.327 . S
C1257 C1263 1.429 . S
C1258 C1250 1.574 . S
C1258 H1253 0.949 . S
C1258 C1264 1.368 . S
C1259 C1243 1.349 . S
C1259 H1251 0.950 . S
C1259 C1257 1.327 . S
C1260 C1248 1.349 . S
C1260 H1254 0.950 . S
C1260 C1261 1.327 . S
C1261 H1255 0.947 1_455 S
C1261 C1260 1.327 . S
C1261 C1265 1.429 . S
C1262 C1245 1.574 . S
C1262 H1256 0.949 1_655 S
C1262 C1266 1.368 . S
C1263 C1244 1.429 . S
C1263 C1257 1.429 . S
C1263 C1264 1.523 . S
C1264 C1245 1.368 . S
C1264 C1258 1.368 . S
C1264 C1263 1.523 . S
C1265 C1249 1.429 . S
C1265 C1261 1.429 . S
C1265 C1266 1.523 1_455 S
C1266 C1250 1.368 . S
C1266 C1262 1.368 . S
C1266 C1265 1.523 1_655 S
H1267 C1242 0.950 . S
H1268 C1244 0.950 . S
H1269 C1245 0.949 . S
H1270 C1247 0.950 . S
H1271 C1249 0.950 . S
C1272 C1273 1.349 . S
C1272 C1274 1.327 . S
C1272 H1297 0.950 . S
C1273 C1272 1.349 . S
C1273 C1289 1.349 . S
C1274 C1272 1.327 . S
C1274 C1293 1.429 . S
C1274 H1298 0.950 . S
C1275 C1292 1.574 . S
C1275 C1294 1.368 . S
C1275 H1299 0.949 . S
H1276 C1280 0.949 . S
C1277 C1278 1.349 . S
C1277 C1279 1.327 . S
C1277 H1300 0.950 . S
C1278 C1277 1.349 . S
C1278 C1290 1.349 . S
C1279 C1277 1.327 . S
C1279 C1295 1.429 . S
C1279 H1301 0.950 . S
C1280 H1276 0.949 . S
C1280 C1288 1.574 . S
C1280 C1296 1.368 . S
H1281 C1289 0.950 . S
H1282 C1287 0.950 . S
H1283 C1288 0.949 . S
H1284 C1290 0.950 . S
H1285 C1291 0.950 . S
H1286 C1292 0.949 . S
C1287 H1282 0.950 . S
C1287 C1289 1.327 . S
C1287 C1293 1.429 . S
C1288 C1280 1.574 . S
C1288 H1283 0.949 . S
C1288 C1294 1.368 . S
C1289 C1273 1.349 . S
C1289 H1281 0.950 . S
C1289 C1287 1.327 . S
C1290 C1278 1.349 . S
C1290 H1284 0.950 . S
C1290 C1291 1.327 . S
C1291 H1285 0.950 . S
C1291 C1290 1.327 . S
C1291 C1295 1.429 . S
C1292 C1275 1.574 . S
C1292 H1286 0.949 . S
C1292 C1296 1.368 . S
C1293 C1274 1.429 . S
C1293 C1287 1.429 . S
C1293 C1294 1.523 . S
C1294 C1275 1.368 . S
C1294 C1288 1.368 . S
C1294 C1293 1.523 . S
C1295 C1279 1.429 . S
C1295 C1291 1.429 . S
C1295 C1296 1.523 . S
C1296 C1280 1.368 . S
C1296 C1292 1.368 . S
C1296 C1295 1.523 . S
H1297 C1272 0.950 . S
H1298 C1274 0.950 . S
H1299 C1275 0.949 . S
H1300 C1277 0.950 . S
H1301 C1279 0.950 . S
C1302 C1303 1.349 . S
C1302 C1304 1.327 . S
C1302 H1327 0.950 . S
C1303 C1302 1.349 . S
C1303 C1319 1.349 . S
C1304 C1302 1.327 . S
C1304 C1323 1.429 . S
C1304 H1328 0.950 . S
C1305 C1322 1.574 . S
C1305 C1324 1.368 . S
C1305 H1329 0.949 . S
H1306 C1310 0.949 . S
C1307 C1308 1.349 . S
C1307 C1309 1.327 . S
C1307 H1330 0.950 . S
C1308 C1307 1.349 . S
C1308 C1320 1.349 . S
C1309 C1307 1.327 . S
C1309 C1325 1.429 . S
C1309 H1331 0.950 . S
C1310 H1306 0.949 . S
C1310 C1318 1.574 . S
C1310 C1326 1.368 . S
H1311 C1319 0.950 . S
H1312 C1317 0.950 . S
H1313 C1318 0.949 . S
H1314 C1320 0.950 . S
H1315 C1321 0.950 . S
H1316 C1322 0.949 . S
C1317 H1312 0.950 . S
C1317 C1319 1.327 . S
C1317 C1323 1.429 . S
C1318 C1310 1.574 . S
C1318 H1313 0.949 . S
C1318 C1324 1.368 . S
C1319 C1303 1.349 . S
C1319 H1311 0.950 . S
C1319 C1317 1.327 . S
C1320 C1308 1.349 . S
C1320 H1314 0.950 . S
C1320 C1321 1.327 . S
C1321 H1315 0.950 . S
C1321 C1320 1.327 . S
C1321 C1325 1.429 . S
C1322 C1305 1.574 . S
C1322 H1316 0.949 . S
C1322 C1326 1.368 . S
C1323 C1304 1.429 . S
C1323 C1317 1.429 . S
C1323 C1324 1.523 . S
C1324 C1305 1.368 . S
C1324 C1318 1.368 . S
C1324 C1323 1.523 . S
C1325 C1309 1.429 . S
C1325 C1321 1.429 . S
C1325 C1326 1.523 . S
C1326 C1310 1.368 . S
C1326 C1322 1.368 . S
C1326 C1325 1.523 . S
H1327 C1302 0.950 . S
H1328 C1304 0.950 . S
H1329 C1305 0.949 . S
H1330 C1307 0.950 . S
H1331 C1309 0.950 . S
C1332 C1333 1.349 . S
C1332 C1334 1.327 . S
C1332 H1357 0.950 . S
C1333 C1332 1.349 . S
C1333 C1349 1.349 . S
C1334 C1332 1.327 . S
C1334 C1353 1.429 . S
C1334 H1358 0.950 . S
C1335 C1352 1.574 . S
C1335 C1354 1.368 . S
C1335 H1359 0.949 . S
H1336 C1340 0.949 . S
C1337 C1338 1.349 . S
C1337 C1339 1.327 . S
C1337 H1360 0.950 . S
C1338 C1337 1.349 . S
C1338 C1350 1.349 . S
C1339 C1337 1.327 . S
C1339 C1355 1.429 . S
C1339 H1361 0.950 . S
C1340 H1336 0.949 . S
C1340 C1348 1.574 . S
C1340 C1356 1.368 . S
H1341 C1349 0.950 . S
H1342 C1347 0.950 . S
H1343 C1348 0.949 . S
H1344 C1350 0.950 . S
H1345 C1351 0.950 . S
H1346 C1352 0.949 . S
C1347 H1342 0.950 . S
C1347 C1349 1.327 . S
C1347 C1353 1.429 . S
C1348 C1340 1.574 . S
C1348 H1343 0.949 . S
C1348 C1354 1.368 . S
C1349 C1333 1.349 . S
C1349 H1341 0.950 . S
C1349 C1347 1.327 . S
C1350 C1338 1.349 . S
C1350 H1344 0.950 . S
C1350 C1351 1.327 . S
C1351 H1345 0.950 . S
C1351 C1350 1.327 . S
C1351 C1355 1.429 . S
C1352 C1335 1.574 . S
C1352 H1346 0.949 . S
C1352 C1356 1.368 . S
C1353 C1334 1.429 . S
C1353 C1347 1.429 . S
C1353 C1354 1.523 . S
C1354 C1335 1.368 . S
C1354 C1348 1.368 . S
C1354 C1353 1.523 . S
C1355 C1339 1.429 . S
C1355 C1351 1.429 . S
C1355 C1356 1.523 . S
C1356 C1340 1.368 . S
C1356 C1352 1.368 . S
C1356 C1355 1.523 . S
H1357 C1332 0.950 . S
H1358 C1334 0.950 . S
H1359 C1335 0.949 . S
H1360 C1337 0.950 . S
H1361 C1339 0.950 . S
C1362 C1363 1.349 . S
C1362 C1364 1.327 . S
C1362 H1387 0.950 . S
C1363 C1362 1.349 . S
C1363 C1379 1.349 . S
C1364 C1362 1.327 . S
C1364 C1383 1.429 . S
C1364 H1388 0.950 . S
C1365 C1382 1.574 . S
C1365 C1384 1.368 . S
C1365 H1389 0.949 . S
H1366 C1370 0.949 . S
C1367 C1368 1.349 . S
C1367 C1369 1.327 . S
C1367 H1390 0.950 . S
C1368 C1367 1.349 . S
C1368 C1380 1.349 . S
C1369 C1367 1.327 . S
C1369 C1385 1.429 . S
C1369 H1391 0.950 . S
C1370 H1366 0.949 . S
C1370 C1378 1.574 . S
C1370 C1386 1.368 . S
H1371 C1379 0.950 . S
H1372 C1377 0.950 . S
H1373 C1378 0.949 . S
H1374 C1380 0.950 . S
H1375 C1381 0.950 . S
H1376 C1382 0.949 . S
C1377 H1372 0.950 . S
C1377 C1379 1.327 . S
C1377 C1383 1.429 . S
C1378 C1370 1.574 . S
C1378 H1373 0.949 . S
C1378 C1384 1.368 . S
C1379 C1363 1.349 . S
C1379 H1371 0.950 . S
C1379 C1377 1.327 . S
C1380 C1368 1.349 . S
C1380 H1374 0.950 . S
C1380 C1381 1.327 . S
C1381 H1375 0.950 . S
C1381 C1380 1.327 . S
C1381 C1385 1.429 . S
C1382 C1365 1.574 . S
C1382 H1376 0.949 . S
C1382 C1386 1.368 . S
C1383 C1364 1.429 . S
C1383 C1377 1.429 . S
C1383 C1384 1.523 . S
C1384 C1365 1.368 . S
C1384 C1378 1.368 . S
C1384 C1383 1.523 . S
C1385 C1369 1.429 . S
C1385 C1381 1.429 . S
C1385 C1386 1.523 . S
C1386 C1370 1.368 . S
C1386 C1382 1.368 . S
C1386 C1385 1.523 . S
H1387 C1362 0.950 . S
H1388 C1364 0.950 . S
H1389 C1365 0.949 . S
H1390 C1367 0.950 . S
H1391 C1369 0.950 . S
C673 C67 2.098 . S
C678 C56 2.098 . S
C703 C151 2.098 . S
C708 C140 2.098 . S
C733 C224 2.098 . S
C738 C235 2.098 . S
C763 C308 2.098 . S
C768 C319 2.098 . S
C793 C403 2.098 . S
C798 C392 2.098 . S
C823 C476 2.098 . S
C828 C487 2.098 . S
C853 C560 2.098 . S
C858 C571 2.098 . S
C883 C655 2.098 . S
C888 C644 2.098 . S
C913 C154 1.734 1_554 S
C918 C58 1.734 . S
C943 C322 1.734 . S
C948 C226 1.734 . S
C973 C394 1.734 . S
C978 C490 1.734 1_554 S
C1003 C562 1.734 . S
C1008 C658 1.734 . S
C1033 C70 1.390 1_554 S
C1038 C478 1.390 . S
C1063 C406 1.390 1_554 S
C1068 C142 1.390 . S
C1093 C238 1.390 . S
C1098 C646 1.390 . S
C1123 C310 1.390 . S
C1128 C574 1.390 . S
C1153 C74 1.523 . S
C1158 C326 1.596 . S
C1183 C158 1.595 . S
C1188 C242 1.523 . S
C1213 C147 1.523 . S
C1218 C231 1.596 . S
C1243 C315 1.522 . S
C1248 C63 1.595 . S
C1273 C410 1.523 . S
C1278 C662 1.596 . S
C1303 C494 1.595 . S
C1308 C578 1.523 . S
C1333 C483 1.523 . S
C1338 C567 1.596 . S
C1363 C651 1.523 . S
C1368 C399 1.595 . S
