# Generated by pormake.
# Topology pcl, (4)-cn, num edge types: 1
# Building blocks:
#     Node 0, Type 0, BuildingBlock: QUQFOY_clean_sbu_3, # of connection points: 4
#     Node 1, Type 0, BuildingBlock: QUQFOY_clean_sbu_3, # of connection points: 4
#     Node 2, Type 0, BuildingBlock: QUQFOY_clean_sbu_3, # of connection points: 4
#     Node 3, Type 0, BuildingBlock: QUQFOY_clean_sbu_3, # of connection points: 4
#     Node 4, Type 0, BuildingBlock: QUQFOY_clean_sbu_3, # of connection points: 4
#     Node 5, Type 0, BuildingBlock: QUQFOY_clean_sbu_3, # of connection points: 4
#     Node 6, Type 0, BuildingBlock: QUQFOY_clean_sbu_3, # of connection points: 4
#     Node 7, Type 0, BuildingBlock: QUQFOY_clean_sbu_3, # of connection points: 4
#     Node 8, Type 0, BuildingBlock: QUQFOY_clean_sbu_3, # of connection points: 4
#     Node 9, Type 0, BuildingBlock: QUQFOY_clean_sbu_3, # of connection points: 4
#     Node 10, Type 0, BuildingBlock: QUQFOY_clean_sbu_3, # of connection points: 4
#     Node 11, Type 0, BuildingBlock: QUQFOY_clean_sbu_3, # of connection points: 4
#     Node 12, Type 0, BuildingBlock: QUQFOY_clean_sbu_3, # of connection points: 4
#     Node 13, Type 0, BuildingBlock: QUQFOY_clean_sbu_3, # of connection points: 4
#     Node 14, Type 0, BuildingBlock: QUQFOY_clean_sbu_3, # of connection points: 4
#     Node 15, Type 0, BuildingBlock: QUQFOY_clean_sbu_3, # of connection points: 4
#     Edge 16, Type (0, 0), BuildingBlock: OJICUG_clean_linker_0, # of connection points: 2
#     Edge 17, Type (0, 0), BuildingBlock: OJICUG_clean_linker_0, # of connection points: 2
#     Edge 18, Type (0, 0), BuildingBlock: OJICUG_clean_linker_0, # of connection points: 2
#     Edge 19, Type (0, 0), BuildingBlock: OJICUG_clean_linker_0, # of connection points: 2
#     Edge 20, Type (0, 0), BuildingBlock: OJICUG_clean_linker_0, # of connection points: 2
#     Edge 21, Type (0, 0), BuildingBlock: OJICUG_clean_linker_0, # of connection points: 2
#     Edge 22, Type (0, 0), BuildingBlock: OJICUG_clean_linker_0, # of connection points: 2
#     Edge 23, Type (0, 0), BuildingBlock: OJICUG_clean_linker_0, # of connection points: 2
#     Edge 24, Type (0, 0), BuildingBlock: OJICUG_clean_linker_0, # of connection points: 2
#     Edge 25, Type (0, 0), BuildingBlock: OJICUG_clean_linker_0, # of connection points: 2
#     Edge 26, Type (0, 0), BuildingBlock: OJICUG_clean_linker_0, # of connection points: 2
#     Edge 27, Type (0, 0), BuildingBlock: OJICUG_clean_linker_0, # of connection points: 2
#     Edge 28, Type (0, 0), BuildingBlock: OJICUG_clean_linker_0, # of connection points: 2
#     Edge 29, Type (0, 0), BuildingBlock: OJICUG_clean_linker_0, # of connection points: 2
#     Edge 30, Type (0, 0), BuildingBlock: OJICUG_clean_linker_0, # of connection points: 2
#     Edge 31, Type (0, 0), BuildingBlock: OJICUG_clean_linker_0, # of connection points: 2
#     Edge 32, Type (0, 0), BuildingBlock: OJICUG_clean_linker_0, # of connection points: 2
#     Edge 33, Type (0, 0), BuildingBlock: OJICUG_clean_linker_0, # of connection points: 2
#     Edge 34, Type (0, 0), BuildingBlock: OJICUG_clean_linker_0, # of connection points: 2
#     Edge 35, Type (0, 0), BuildingBlock: OJICUG_clean_linker_0, # of connection points: 2
#     Edge 36, Type (0, 0), BuildingBlock: OJICUG_clean_linker_0, # of connection points: 2
#     Edge 37, Type (0, 0), BuildingBlock: OJICUG_clean_linker_0, # of connection points: 2
#     Edge 38, Type (0, 0), BuildingBlock: OJICUG_clean_linker_0, # of connection points: 2
#     Edge 39, Type (0, 0), BuildingBlock: OJICUG_clean_linker_0, # of connection points: 2
#     Edge 40, Type (0, 0), BuildingBlock: OJICUG_clean_linker_0, # of connection points: 2
#     Edge 41, Type (0, 0), BuildingBlock: OJICUG_clean_linker_0, # of connection points: 2
#     Edge 42, Type (0, 0), BuildingBlock: OJICUG_clean_linker_0, # of connection points: 2
#     Edge 43, Type (0, 0), BuildingBlock: OJICUG_clean_linker_0, # of connection points: 2
#     Edge 44, Type (0, 0), BuildingBlock: OJICUG_clean_linker_0, # of connection points: 2
#     Edge 45, Type (0, 0), BuildingBlock: OJICUG_clean_linker_0, # of connection points: 2
#     Edge 46, Type (0, 0), BuildingBlock: OJICUG_clean_linker_0, # of connection points: 2
#     Edge 47, Type (0, 0), BuildingBlock: OJICUG_clean_linker_0, # of connection points: 2
# Relax obj value: 0.061
# Max RMSD: 0.051
# Mean RMSD: 0.048
data_MOF--net-pcl--node1-QUQFOY_clean_sbu_3--edge1-OJICUG_clean_linker_0
_symmetry_space_group_name_H-M    P1
_symmetry_Int_Tables_number       1
_symmetry_cell_setting            triclinic
loop_
_symmetry_equiv_pos_as_xyz
'x, y, z'
_cell_length_a     40.367409
_cell_length_b     31.930385
_cell_length_c     33.388355
_cell_angle_alpha  90.061708
_cell_angle_beta   90.11785
_cell_angle_gamma 90.14754
loop_
_atom_site_label
_atom_site_type_symbol
_atom_site_fract_x
_atom_site_fract_y
_atom_site_fract_z
_atom_type_partial_charge
C0 C 0.11577 0.42541 0.03612 0.0
O1 O 0.11531 0.43543 0.07294 0.0
Cd2 Cd 0.11882 0.386 0.1257 0.0
O3 O 0.12024 0.38755 0.02521 0.0
Cd4 Cd 0.13186 0.31696 0.05199 0.0
C5 C 0.05525 0.32011 0.09062 0.0
O6 O 0.16314 0.34393 0.10513 0.0
O7 O 0.15027 0.27948 0.11367 0.0
O8 O 0.17672 0.3191 0.00574 0.0
C9 C 0.1651 0.31179 0.12685 0.0
O10 O 0.06802 0.34607 0.11532 0.0
C11 C 0.17348 0.28186 -0.00682 0.0
O12 O 0.07214 0.30509 0.0617 0.0
O13 O 0.14879 0.26095 0.0061 0.0
C14 C 0.852 0.53069 0.54578 0.0
O15 O 0.85478 0.52119 0.58257 0.0
Cd16 Cd 0.85322 0.57202 0.63486 0.0
O17 O 0.84579 0.56816 0.53503 0.0
Cd18 Cd 0.83367 0.63859 0.56147 0.0
C19 C 0.91264 0.64 0.59399 0.0
O20 O 0.8068 0.6132 0.61905 0.0
O21 O 0.81865 0.67865 0.6226 0.0
O22 O 0.7851 0.63651 0.51985 0.0
C23 C 0.80576 0.64673 0.63907 0.0
O24 O 0.90236 0.61373 0.61995 0.0
C25 C 0.78949 0.67216 0.50405 0.0
O26 O 0.89339 0.65373 0.56663 0.0
O27 O 0.81576 0.69199 0.51361 0.0
C28 C 0.11276 0.55468 0.91622 0.0
O29 O 0.11037 0.54494 0.87943 0.0
Cd30 Cd 0.11024 0.5956 0.82747 0.0
O31 O 0.11756 0.59253 0.92705 0.0
Cd32 Cd 0.12733 0.6637 0.90063 0.0
C33 C 0.04831 0.65948 0.86873 0.0
O34 O 0.15559 0.63839 0.84452 0.0
O35 O 0.1417 0.70281 0.83837 0.0
O36 O 0.17527 0.66258 0.94306 0.0
C37 C 0.15616 0.67115 0.82351 0.0
O38 O 0.0596 0.63381 0.84285 0.0
C39 C 0.17138 0.69895 0.95746 0.0
O40 O 0.06709 0.67493 0.89582 0.0
O41 O 0.1454 0.71878 0.94707 0.0
C42 C 0.85902 0.40232 0.42471 0.0
O43 O 0.85893 0.41279 0.38803 0.0
Cd44 Cd 0.86002 0.36345 0.33502 0.0
O45 O 0.85755 0.3639 0.43506 0.0
Cd46 Cd 0.85132 0.29226 0.40733 0.0
C47 C 0.92788 0.30534 0.37067 0.0
O48 O 0.8186 0.316 0.35427 0.0
O49 O 0.83642 0.25376 0.34444 0.0
O50 O 0.8065 0.29184 0.45333 0.0
C51 C 0.8191 0.2842 0.33192 0.0
O52 O 0.91344 0.33008 0.34632 0.0
C53 C 0.81023 0.25456 0.4654 0.0
O54 O 0.91185 0.28752 0.3989 0.0
O55 O 0.83529 0.23459 0.45233 0.0
C56 C 0.81672 0.62089 0.80641 0.0
O57 O 0.82615 0.58376 0.81378 0.0
Cd58 Cd 0.85297 0.56259 0.87338 0.0
O59 O 0.81761 0.64938 0.83317 0.0
Cd60 Cd 0.82741 0.65698 0.90624 0.0
C61 C 0.90809 0.6476 0.8834 0.0
O62 O 0.81508 0.5864 0.92088 0.0
O63 O 0.83441 0.62019 0.97156 0.0
O64 O 0.7713 0.68145 0.90644 0.0
C65 C 0.82379 0.58589 0.95717 0.0
O66 O 0.90047 0.60987 0.87479 0.0
C67 C 0.77697 0.71482 0.92589 0.0
O68 O 0.88655 0.67341 0.89642 0.0
O69 O 0.80695 0.72245 0.93544 0.0
C70 C 0.15593 0.35801 0.28887 0.0
O71 O 0.14506 0.39524 0.29084 0.0
Cd72 Cd 0.11633 0.42171 0.34733 0.0
O73 O 0.1562 0.33423 0.31938 0.0
Cd74 Cd 0.14796 0.33944 0.39209 0.0
C75 C 0.06704 0.33442 0.37083 0.0
O76 O 0.15522 0.4134 0.39895 0.0
O77 O 0.13655 0.38225 0.45169 0.0
O78 O 0.20622 0.32517 0.3967 0.0
C79 C 0.14557 0.41602 0.43485 0.0
O80 O 0.07179 0.3709 0.35643 0.0
C81 C 0.20325 0.29197 0.41713 0.0
O82 O 0.09055 0.31387 0.38703 0.0
O83 O 0.17399 0.28022 0.42605 0.0
C84 C 0.82596 0.34493 0.17545 0.0
O85 O 0.83269 0.38362 0.17841 0.0
Cd86 Cd 0.86271 0.41759 0.12697 0.0
O87 O 0.82943 0.32561 0.14246 0.0
Cd88 Cd 0.83655 0.34659 0.07192 0.0
C89 C 0.9156 0.33787 0.09395 0.0
O90 O 0.82498 0.42201 0.07318 0.0
O91 O 0.85001 0.3974 0.02095 0.0
O92 O 0.78031 0.32121 0.07198 0.0
C93 C 0.83632 0.42812 0.0383 0.0
O94 O 0.90938 0.37136 0.11326 0.0
C95 C 0.78212 0.30325 0.03824 0.0
O96 O 0.89315 0.31944 0.07365 0.0
O97 O 0.80989 0.30389 0.0203 0.0
C98 C 0.14633 0.62899 0.66002 0.0
O99 O 0.13937 0.59032 0.6567 0.0
Cd100 Cd 0.11228 0.56059 0.60045 0.0
O101 O 0.14313 0.65404 0.63065 0.0
Cd102 Cd 0.133 0.65115 0.55775 0.0
C103 C 0.05331 0.63954 0.58295 0.0
O104 O 0.14812 0.57985 0.54881 0.0
O105 O 0.12544 0.60802 0.49692 0.0
O106 O 0.18876 0.67601 0.5548 0.0
C107 C 0.1383 0.57596 0.51306 0.0
O108 O 0.06277 0.60371 0.59521 0.0
C109 C 0.18306 0.70725 0.53249 0.0
O110 O 0.07349 0.66526 0.56679 0.0
O111 O 0.15303 0.71379 0.52244 0.0
C112 C 0.61622 0.94755 0.05143 0.0
O113 O 0.61477 0.95651 0.08846 0.0
Cd114 Cd 0.61442 0.90312 0.13838 0.0
O115 O 0.62032 0.90988 0.03978 0.0
Cd116 Cd 0.62981 0.83745 0.06226 0.0
C117 C 0.55135 0.84113 0.09568 0.0
O118 O 0.65853 0.85908 0.11985 0.0
O119 O 0.64442 0.79428 0.12154 0.0
O120 O 0.67714 0.8395 0.01895 0.0
C121 C 0.65865 0.82489 0.13879 0.0
O122 O 0.56313 0.86595 0.12214 0.0
C123 C 0.67192 0.80427 0.00256 0.0
O124 O 0.56968 0.82646 0.0679 0.0
O125 O 0.64561 0.7848 0.01248 0.0
C126 C 0.3627 0.06448 0.53715 0.0
O127 O 0.36136 0.05474 0.57399 0.0
Cd128 Cd 0.36035 0.10573 0.6257 0.0
O129 O 0.36135 0.10262 0.52598 0.0
Cd130 Cd 0.35395 0.17503 0.55037 0.0
C131 C 0.42919 0.16368 0.59198 0.0
O132 O 0.31982 0.15222 0.60235 0.0
O133 O 0.33574 0.2157 0.61027 0.0
O134 O 0.31111 0.17232 0.50149 0.0
C135 C 0.31886 0.18504 0.6233 0.0
O136 O 0.41397 0.13941 0.6161 0.0
C137 C 0.31431 0.20961 0.48918 0.0
O138 O 0.41412 0.18064 0.56249 0.0
O139 O 0.33851 0.23082 0.50317 0.0
C140 C 0.61609 0.07628 0.93083 0.0
O141 O 0.61476 0.06485 0.89442 0.0
Cd142 Cd 0.61958 0.11 0.83913 0.0
O143 O 0.6208 0.11463 0.94029 0.0
Cd144 Cd 0.63039 0.18405 0.90788 0.0
C145 C 0.55478 0.17692 0.86666 0.0
O146 O 0.66466 0.15069 0.8607 0.0
O147 O 0.65264 0.21323 0.8439 0.0
O148 O 0.6655 0.19153 0.96624 0.0
C149 C 0.66816 0.17985 0.83574 0.0
O150 O 0.56831 0.14955 0.84423 0.0
C151 C 0.66785 0.23102 0.96371 0.0
O152 O 0.57094 0.19431 0.89507 0.0
O153 O 0.65032 0.24917 0.93733 0.0
C154 C 0.35597 0.93559 0.41684 0.0
O155 O 0.35903 0.94534 0.38016 0.0
Cd156 Cd 0.3552 0.89633 0.32686 0.0
O157 O 0.34848 0.89834 0.42727 0.0
Cd158 Cd 0.33428 0.82908 0.39886 0.0
C159 C 0.41307 0.82564 0.36592 0.0
O160 O 0.30731 0.85812 0.34326 0.0
O161 O 0.31753 0.79275 0.33585 0.0
O162 O 0.28604 0.83084 0.44086 0.0
C163 C 0.30489 0.82591 0.32158 0.0
O164 O 0.40335 0.85262 0.34034 0.0
C165 C 0.28966 0.79434 0.45504 0.0
O166 O 0.39357 0.81213 0.39308 0.0
O167 O 0.31542 0.7742 0.44458 0.0
C168 C 0.32385 0.13759 0.78407 0.0
O169 O 0.33291 0.09958 0.78465 0.0
Cd170 Cd 0.36282 0.07131 0.83936 0.0
O171 O 0.3258 0.16043 0.81517 0.0
Cd172 Cd 0.3353 0.15054 0.88721 0.0
C173 C 0.41527 0.15497 0.86371 0.0
O174 O 0.32527 0.07631 0.89292 0.0
O175 O 0.34788 0.10569 0.94462 0.0
O176 O 0.27772 0.16725 0.89396 0.0
C177 C 0.33611 0.07292 0.92834 0.0
O178 O 0.40933 0.11932 0.84804 0.0
C179 C 0.28203 0.19888 0.91633 0.0
O180 O 0.39266 0.17535 0.88172 0.0
O181 O 0.31175 0.20875 0.92518 0.0
C182 C 0.64605 0.85044 0.30524 0.0
O183 O 0.63724 0.88801 0.31166 0.0
Cd184 Cd 0.60974 0.91134 0.36989 0.0
O185 O 0.64406 0.82251 0.33236 0.0
Cd186 Cd 0.63323 0.81723 0.40521 0.0
C187 C 0.55309 0.82804 0.38049 0.0
O188 O 0.64691 0.88783 0.41835 0.0
O189 O 0.62671 0.85586 0.46952 0.0
O190 O 0.68901 0.7921 0.40597 0.0
C191 C 0.63824 0.88937 0.45457 0.0
O192 O 0.56152 0.86529 0.37123 0.0
C193 C 0.68336 0.75964 0.42667 0.0
O194 O 0.57396 0.80198 0.39463 0.0
O195 O 0.65339 0.75258 0.43658 0.0
C196 C 0.31724 0.86777 0.15801 0.0
O197 O 0.32564 0.9059 0.154 0.0
Cd198 Cd 0.3542 0.93252 0.09742 0.0
O199 O 0.31974 0.84185 0.12919 0.0
Cd200 Cd 0.33083 0.84114 0.05663 0.0
C201 C 0.41067 0.84997 0.08339 0.0
O202 O 0.31903 0.91287 0.045 0.0
O203 O 0.34076 0.88106 -0.0055 0.0
O204 O 0.27424 0.81934 0.05285 0.0
C205 C 0.32959 0.91473 0.00946 0.0
O206 O 0.40231 0.88671 0.09436 0.0
C207 C 0.2793 0.78649 0.03247 0.0
O208 O 0.38979 0.8247 0.06769 0.0
O209 O 0.30925 0.77787 0.0237 0.0
C210 C 0.66006 0.11588 0.67944 0.0
O211 O 0.64878 0.07877 0.68069 0.0
Cd212 Cd 0.61775 0.04944 0.62684 0.0
O213 O 0.65937 0.13699 0.64723 0.0
Cd214 Cd 0.64819 0.12553 0.57589 0.0
C215 C 0.56806 0.13417 0.59889 0.0
O216 O 0.65434 0.05022 0.57188 0.0
O217 O 0.63245 0.08074 0.52032 0.0
O218 O 0.7062 0.13874 0.56495 0.0
C219 C 0.6426 0.04731 0.53676 0.0
O220 O 0.57264 0.09888 0.61578 0.0
C221 C 0.70201 0.17094 0.5434 0.0
O222 O 0.59156 0.15293 0.58081 0.0
O223 O 0.67232 0.18239 0.53673 0.0
C224 C 0.00011 0.3029 0.05924 0.0
C225 C 0.01914 0.31281 0.09334 0.0
H226 H 0.9515 0.30279 0.03269 0.0
C227 C 0.00282 0.32298 0.12917 0.0
H228 H 0.01202 0.2949 0.03123 0.0
C229 C 0.96861 0.32785 0.12982 0.0
C230 C 0.94986 0.32214 0.09483 0.0
H231 H 0.0167 0.33004 0.15617 0.0
H232 H 0.95699 0.33851 0.15723 0.0
C233 C 0.96553 0.30744 0.06003 0.0
C234 C 0.96424 0.66591 0.55927 0.0
C235 C 0.9485 0.64998 0.59367 0.0
H236 H 0.01064 0.67567 0.52892 0.0
C237 C 0.96807 0.63795 0.62655 0.0
H238 H 0.94984 0.67555 0.5335 0.0
C239 C 0.00243 0.63768 0.62372 0.0
C240 C 0.01811 0.65004 0.58823 0.0
H241 H 0.95684 0.62626 0.6538 0.0
H242 H 0.01674 0.62566 0.64867 0.0
C243 C -0.00103 0.66608 0.55663 0.0
C244 C 0.96139 0.67987 0.90717 0.0
C245 C 0.94264 0.66055 0.87684 0.0
H246 H 0.01026 0.69485 0.92855 0.0
C247 C 0.95837 0.6476 0.8416 0.0
H248 H 0.94966 0.68995 0.93468 0.0
C249 C -0.00742 0.6508 0.83782 0.0
C250 C 0.01201 0.66631 0.86956 0.0
H251 H 0.94431 0.63299 0.81765 0.0
H252 H 0.00393 0.63865 0.81083 0.0
C253 C -0.00399 0.68258 0.90363 0.0
C254 C 0.01435 0.32532 0.33408 0.0
C255 C 0.03327 0.31704 0.36838 0.0
H256 H 0.96639 0.32652 0.30745 0.0
C257 C 0.01815 0.29769 0.40144 0.0
H258 H 0.02557 0.33969 0.308 0.0
C259 C 0.98379 0.29054 0.40143 0.0
C260 C 0.96443 0.30241 0.36822 0.0
H261 H 0.03234 0.29106 0.42824 0.0
H262 H 0.9722 0.27852 0.4283 0.0
C263 C 0.98041 0.31778 0.33385 0.0
C264 C 0.46401 0.81922 0.05859 0.0
C265 C 0.44551 0.83793 0.08932 0.0
H266 H 0.51269 0.80548 0.0363 0.0
C267 C 0.46167 0.8512 0.1243 0.0
H268 H 0.45199 0.80888 0.03127 0.0
C269 C 0.49597 0.84893 0.12742 0.0
C270 C 0.51506 0.83398 0.09529 0.0
H271 H 0.44783 0.86531 0.1486 0.0
H272 H 0.50761 0.86125 0.15424 0.0
C273 C 0.4987 0.8174 0.06148 0.0
C274 C 0.52029 0.17043 0.56544 0.0
C275 C 0.53434 0.15176 0.59956 0.0
H276 H 0.4753 0.18915 0.53603 0.0
C277 C 0.51441 0.14447 0.63317 0.0
H278 H 0.53525 0.17635 0.53915 0.0
C279 C 0.48053 0.15221 0.63165 0.0
C280 C 0.46565 0.16677 0.59622 0.0
H281 H 0.52476 0.13072 0.66007 0.0
H282 H 0.46571 0.14417 0.65756 0.0
C283 C 0.48602 0.17776 0.5637 0.0
C284 C 0.49917 0.19621 0.89517 0.0
C285 C 0.51857 0.18273 0.86265 0.0
H286 H 0.45041 0.19823 0.92095 0.0
C287 C 0.50261 0.16764 0.82806 0.0
H288 H 0.51077 0.20804 0.9222 0.0
C289 C 0.46847 0.1616 0.82762 0.0
C290 C 0.44943 0.17112 0.86148 0.0
H291 H 0.51673 0.15769 0.8022 0.0
H292 H 0.45718 0.14726 0.80149 0.0
C293 C 0.46468 0.19055 0.89452 0.0
C294 C 0.46415 0.79921 0.40131 0.0
C295 C 0.4488 0.8152 0.36663 0.0
H296 H 0.51014 0.79017 0.43285 0.0
C297 C 0.46876 0.82755 0.33425 0.0
H298 H 0.44945 0.78936 0.42672 0.0
C299 C 0.50308 0.8284 0.338 0.0
C300 C 0.51829 0.81619 0.37386 0.0
H301 H 0.45784 0.83934 0.30683 0.0
H302 H 0.5177 0.84096 0.31358 0.0
C303 C 0.49882 0.79959 0.40485 0.0
C304 C 0.18462 0.35635 0.18265 0.0
C305 C 0.17206 0.31751 0.16973 0.0
H306 H 0.18875 0.39991 0.23102 0.0
C307 C 0.16033 0.28874 0.19818 0.0
H308 H 0.1944 0.37886 0.16145 0.0
C309 C 0.15766 0.30071 0.23832 0.0
C310 C 0.16629 0.34159 0.24995 0.0
H311 H 0.15072 0.2585 0.18904 0.0
H312 H 0.14626 0.27934 0.25941 0.0
C313 C 0.1813 0.36854 0.22237 0.0
C314 C 0.79067 0.60632 0.69962 0.0
C315 C 0.80072 0.64451 0.68264 0.0
H316 H 0.78801 0.56898 0.7525 0.0
C317 C 0.81058 0.67753 0.70787 0.0
H318 H 0.78242 0.5805 0.68099 0.0
C319 C 0.81342 0.67095 0.74913 0.0
C320 C 0.80674 0.63123 0.76531 0.0
H321 H 0.81822 0.70739 0.69556 0.0
H322 H 0.82315 0.69589 0.76781 0.0
C323 C 0.79394 0.59962 0.74054 0.0
C324 C 0.17625 0.62977 0.766 0.0
C325 C 0.16207 0.66702 0.78028 0.0
H326 H 0.18204 0.58838 0.71626 0.0
C327 C 0.14836 0.69554 0.75292 0.0
H328 H 0.18754 0.60754 0.78635 0.0
C329 C 0.14561 0.68466 0.71247 0.0
C330 C 0.15624 0.64509 0.69939 0.0
H331 H 0.13743 0.72459 0.76315 0.0
H332 H 0.13279 0.70564 0.69226 0.0
C333 C 0.17303 0.61868 0.72596 0.0
C334 C 0.79591 0.34172 0.23962 0.0
C335 C 0.81628 0.32206 0.21151 0.0
H336 H 0.77926 0.34307 0.30008 0.0
C337 C 0.83102 0.28347 0.2208 0.0
H338 H 0.78384 0.37112 0.23266 0.0
C339 C 0.8289 0.26761 0.25974 0.0
C340 C 0.81171 0.29017 0.28921 0.0
H341 H 0.84669 0.26774 0.19923 0.0
H342 H 0.84324 0.24017 0.26755 0.0
C343 C 0.79321 0.32552 0.27805 0.0
C344 C 0.64812 0.80015 0.24809 0.0
C345 C 0.65681 0.83905 0.26479 0.0
H346 H 0.64208 0.76471 0.19401 0.0
C347 C 0.6723 0.86931 0.24091 0.0
H348 H 0.63632 0.77626 0.26617 0.0
C349 C 0.67611 0.86251 0.20009 0.0
C350 C 0.66384 0.82568 0.18237 0.0
H351 H 0.67982 0.89921 0.25339 0.0
H352 H 0.68635 0.88753 0.182 0.0
C353 C 0.65147 0.79354 0.2069 0.0
C354 C 0.29652 0.13143 0.71814 0.0
C355 C 0.31382 0.15603 0.74589 0.0
H356 H 0.2829 0.12305 0.65702 0.0
C357 C 0.32565 0.19569 0.73464 0.0
H358 H 0.28665 0.10109 0.72653 0.0
C359 C 0.32408 0.20809 0.69456 0.0
C360 C 0.31031 0.18097 0.66585 0.0
H361 H 0.33888 0.21525 0.75589 0.0
H362 H 0.33632 0.23682 0.68565 0.0
C363 C 0.29432 0.14414 0.67847 0.0
C364 C 0.68723 0.12783 0.78596 0.0
C365 C 0.6764 0.16876 0.79417 0.0
H366 H 0.68994 0.07861 0.74267 0.0
C367 C 0.66703 0.19486 0.76231 0.0
H368 H 0.69523 0.10722 0.80984 0.0
C369 C 0.66456 0.1785 0.7236 0.0
C370 C 0.67105 0.13589 0.71671 0.0
H371 H 0.65889 0.22666 0.76773 0.0
H372 H 0.65476 0.19814 0.69997 0.0
C373 C 0.68409 0.11131 0.7476 0.0
C374 C 0.29232 0.88136 0.22445 0.0
C375 C 0.30663 0.85303 0.19756 0.0
H376 H 0.27913 0.89393 0.28499 0.0
C377 C 0.31406 0.8122 0.21036 0.0
H378 H 0.28573 0.91272 0.21503 0.0
C379 C 0.31064 0.80145 0.25072 0.0
C380 C 0.29946 0.83139 0.27836 0.0
H381 H 0.32489 0.7897 0.18995 0.0
H382 H 0.31909 0.771 0.26064 0.0
C383 C 0.28843 0.87047 0.26443 0.0
C384 C 0.222 0.20277 0.93336 0.0
C385 C 0.25347 0.22178 0.93249 0.0
H386 H 0.17173 0.20692 0.95347 0.0
C387 C 0.25753 0.26205 0.94844 0.0
H388 H 0.21821 0.17167 0.92115 0.0
C389 C 0.23082 0.28248 0.96611 0.0
C390 C 0.19973 0.26264 0.96885 0.0
H391 H 0.28145 0.27751 0.94782 0.0
H392 H 0.23496 0.31313 0.97915 0.0
C393 C 0.19539 0.22289 0.95174 0.0
C394 C 0.7696 0.72827 0.45795 0.0
C395 C 0.76341 0.69122 0.47915 0.0
H396 H 0.74904 0.77855 0.42399 0.0
C397 C 0.73113 0.67448 0.47949 0.0
H398 H 0.79424 0.74174 0.45704 0.0
C399 C 0.7051 0.69584 0.4611 0.0
C400 C 0.71103 0.73392 0.4415 0.0
H401 H 0.72563 0.64589 0.49562 0.0
H402 H 0.68023 0.68321 0.46328 0.0
C403 C 0.74368 0.74926 0.439 0.0
C404 C 0.21891 0.77817 0.01884 0.0
C405 C 0.25114 0.76152 0.01749 0.0
H406 H 0.16823 0.7714 0.00077 0.0
C407 C 0.2562 0.72231 -0.00034 0.0
H408 H 0.21423 0.80836 0.0325 0.0
C409 C 0.22971 0.70089 -0.01791 0.0
C410 C 0.19783 0.71865 -0.01852 0.0
H411 H 0.28072 0.70866 -0.00156 0.0
H412 H 0.23457 0.67125 0.96744 0.0
C413 C 0.19253 0.75707 0.00071 0.0
C414 C 0.76161 0.17369 0.52351 0.0
C415 C 0.73054 0.19336 0.52631 0.0
H416 H 0.81149 0.17766 0.50182 0.0
C417 C 0.72682 0.23425 0.51191 0.0
H418 H 0.76512 0.14211 0.53453 0.0
C419 C 0.75344 0.25477 0.49404 0.0
C420 C 0.78413 0.23452 0.48955 0.0
H421 H 0.70326 0.25025 0.51406 0.0
H422 H 0.7495 0.28603 0.48241 0.0
C423 C 0.78815 0.19399 0.50494 0.0
C424 C 0.69098 0.74727 0.95685 0.0
C425 C 0.69742 0.78494 0.97705 0.0
H426 H 0.7112 0.69587 0.92411 0.0
C427 C 0.72965 0.80182 0.97631 0.0
H428 H 0.66637 0.73367 0.95678 0.0
C429 C 0.75546 0.77992 0.95815 0.0
C430 C 0.74935 0.74111 0.93988 0.0
H431 H 0.73537 0.83091 -0.00842 0.0
H432 H 0.78033 0.79266 0.95964 0.0
C433 C 0.71669 0.72569 0.93816 0.0
C434 C 0.25751 0.20745 0.4603 0.0
C435 C 0.2879 0.22869 0.4648 0.0
H436 H 0.20669 0.21114 0.44229 0.0
C437 C 0.29093 0.26974 0.45035 0.0
H438 H 0.25434 0.17575 0.47119 0.0
C439 C 0.2636 0.28977 0.4333 0.0
C440 C 0.23273 0.26931 0.43118 0.0
H441 H 0.31401 0.28683 0.45347 0.0
H442 H 0.2663 0.32189 0.4234 0.0
C443 C 0.23009 0.22773 0.44404 0.0
C444 C 0.74405 0.29602 0.9804 0.0
C445 C 0.75246 0.28521 0.01976 0.0
H446 H 0.70922 0.28866 0.93247 0.0
C447 C 0.73136 0.25915 0.04199 0.0
H448 H 0.75982 0.31667 0.96308 0.0
C449 C 0.70288 0.24238 0.02426 0.0
C450 C 0.6945 0.25314 -0.01519 0.0
H451 H 0.73741 0.25089 0.07261 0.0
H452 H 0.68763 0.22073 0.04112 0.0
C453 C 0.71493 0.28064 0.96325 0.0
C454 C 0.24327 0.71683 0.51909 0.0
C455 C 0.21073 0.73238 0.51668 0.0
H456 H 0.29386 0.72422 0.50125 0.0
C457 C 0.20497 0.77039 0.49693 0.0
H458 H 0.24848 0.68756 0.53418 0.0
C459 C 0.23113 0.79171 0.47867 0.0
C460 C 0.26333 0.77494 0.47925 0.0
H461 H 0.18019 0.78315 0.49481 0.0
H462 H 0.22581 0.82039 0.46261 0.0
C463 C 0.26928 0.73773 0.50023 0.0
C464 C 0.11158 0.53204 -0.01227 0.0
C465 C 0.11133 0.52156 0.94686 0.0
H466 H 0.11292 0.50988 0.048 0.0
C467 C 0.11083 0.47916 0.9356 0.0
H468 H 0.11176 0.56444 -0.00262 0.0
C469 C 0.1116 0.44785 0.96464 0.0
C470 C 0.11272 0.45836 0.00549 0.0
H471 H 0.11054 0.47007 0.90433 0.0
H472 H 0.11182 0.41544 0.95501 0.0
C473 C 0.11218 0.50075 0.01676 0.0
C474 C 0.85497 0.50857 0.47416 0.0
C475 C 0.85531 0.49787 0.51496 0.0
H476 H 0.85614 0.48687 0.41371 0.0
C477 C 0.85827 0.45557 0.5259 0.0
H478 H 0.85291 0.54091 0.46473 0.0
C479 C 0.86006 0.4245 0.49658 0.0
C480 C 0.85908 0.43518 0.45578 0.0
H481 H 0.8587 0.44633 0.5571 0.0
H482 H 0.86182 0.39211 0.50595 0.0
C483 C 0.85691 0.47757 0.44489 0.0
C484 C 0.8325 0.47036 0.97629 0.0
C485 C 0.8331 0.46877 0.0182 0.0
H486 H 0.82834 0.50865 0.9243 0.0
C487 C 0.83049 0.50605 0.04037 0.0
H488 H 0.83428 0.44201 0.95856 0.0
C489 C 0.82782 0.54455 0.02068 0.0
C490 C 0.82683 0.54595 0.97868 0.0
H491 H 0.831 0.50546 0.07281 0.0
H492 H 0.82614 0.57304 0.03819 0.0
C493 C 0.82897 0.50851 0.95672 0.0
C494 C 0.14276 0.45932 0.49678 0.0
C495 C 0.14294 0.45682 0.45488 0.0
H496 H 0.14163 0.49941 0.54808 0.0
C497 C 0.14091 0.49371 0.43209 0.0
H498 H 0.14435 0.43129 0.51494 0.0
C499 C 0.13872 0.53259 0.45097 0.0
C500 C 0.13931 0.53513 0.49288 0.0
H501 H 0.14079 0.4925 0.39965 0.0
H502 H 0.13722 0.56064 0.43284 0.0
C503 C 0.14133 0.49823 0.51565 0.0
C504 C 0.61086 0.00165 0.95144 0.0
C505 C 0.61381 0.04403 0.96229 0.0
H506 H 0.60928 0.93817 0.97099 0.0
C507 C 0.61595 0.05472 0.00306 0.0
H508 H 0.609 -0.00773 0.92033 0.0
C509 C 0.616 0.02345 0.03231 0.0
C510 C 0.61411 0.98103 0.02121 0.0
H511 H 0.61815 0.08712 0.01235 0.0
H512 H 0.61826 0.03248 0.06348 0.0
C513 C 0.6111 0.97054 0.98053 0.0
C514 C 0.3646 0.01023 0.43671 0.0
C515 C 0.36 0.96818 0.44775 0.0
H516 H 0.36919 0.07365 0.45632 0.0
C517 C 0.3583 0.95777 0.48857 0.0
H518 H 0.36616 0.01926 0.40551 0.0
C519 C 0.36018 0.98896 0.51774 0.0
C520 C 0.36364 0.03116 0.50662 0.0
H521 H 0.35499 0.9256 0.49805 0.0
H522 H 0.35812 0.98003 0.54892 0.0
C523 C 0.36633 0.04142 0.46585 0.0
C524 C 0.33298 -0.00752 0.0106 0.0
C525 C 0.33204 0.955 -0.01147 0.0
H526 H 0.33572 0.05942 0.00865 0.0
C527 C 0.33325 0.95647 0.9466 0.0
H528 H 0.33229 -0.0079 0.04303 0.0
C529 C 0.33456 -0.005 0.92698 0.0
C530 C 0.3355 0.03246 0.94909 0.0
H531 H 0.33255 0.92795 0.92901 0.0
H532 H 0.33502 -0.00453 0.89454 0.0
C533 C 0.3351 0.03092 -0.00898 0.0
C534 C 0.63877 0.00541 0.47425 0.0
C535 C 0.64052 0.00677 0.51614 0.0
H536 H 0.63713 0.96693 0.42199 0.0
C537 C 0.64065 0.96918 0.53802 0.0
H538 H 0.63868 0.03396 0.45674 0.0
C539 C 0.6391 0.93069 0.51814 0.0
C540 C 0.6382 0.92943 0.47618 0.0
H541 H 0.6418 0.96955 0.57044 0.0
H542 H 0.63934 0.90204 0.53548 0.0
C543 C 0.63799 0.96706 0.45442 0.0
loop_
_geom_bond_atom_site_label_1
_geom_bond_atom_site_label_2
_geom_bond_distance
_geom_bond_site_symmetry_2
_ccdc_geom_bond_type
C0 O1 1.306 . S
C0 O3 1.160 . S
O1 C0 1.306 . S
O1 Cd2 2.228 . S
Cd2 O1 2.228 . S
Cd2 O6 2.273 . S
Cd2 O10 2.277 . S
O3 C0 1.160 . S
O3 Cd4 2.203 . S
Cd4 O3 2.203 . S
Cd4 O6 2.411 . S
Cd4 O7 2.333 . S
Cd4 O8 2.352 . S
Cd4 O12 2.277 . S
Cd4 O13 2.356 . S
C5 O10 1.209 . S
C5 O12 1.226 . S
O6 Cd2 2.273 . S
O6 Cd4 2.411 . S
O6 C9 1.320 . S
O7 Cd4 2.333 . S
O7 C9 1.214 . S
O8 Cd4 2.352 . S
O8 C11 1.258 . S
C9 O6 1.320 . S
C9 O7 1.214 . S
O10 Cd2 2.277 . S
O10 C5 1.209 . S
C11 O8 1.258 . S
C11 O13 1.282 . S
O12 Cd4 2.277 . S
O12 C5 1.226 . S
O13 Cd4 2.356 . S
O13 C11 1.282 . S
C14 O15 1.306 . S
C14 O17 1.160 . S
O15 C14 1.306 . S
O15 Cd16 2.228 . S
Cd16 O15 2.228 . S
Cd16 O20 2.273 . S
Cd16 O24 2.277 . S
O17 C14 1.160 . S
O17 Cd18 2.203 . S
Cd18 O17 2.203 . S
Cd18 O20 2.411 . S
Cd18 O21 2.333 . S
Cd18 O22 2.352 . S
Cd18 O26 2.277 . S
Cd18 O27 2.356 . S
C19 O24 1.209 . S
C19 O26 1.226 . S
O20 Cd16 2.273 . S
O20 Cd18 2.411 . S
O20 C23 1.320 . S
O21 Cd18 2.333 . S
O21 C23 1.214 . S
O22 Cd18 2.352 . S
O22 C25 1.258 . S
C23 O20 1.320 . S
C23 O21 1.214 . S
O24 Cd16 2.277 . S
O24 C19 1.209 . S
C25 O22 1.258 . S
C25 O27 1.282 . S
O26 Cd18 2.277 . S
O26 C19 1.226 . S
O27 Cd18 2.356 . S
O27 C25 1.282 . S
C28 O29 1.306 . S
C28 O31 1.160 . S
O29 C28 1.306 . S
O29 Cd30 2.228 . S
Cd30 O29 2.228 . S
Cd30 O34 2.273 . S
Cd30 O38 2.277 . S
O31 C28 1.160 . S
O31 Cd32 2.203 . S
Cd32 O31 2.203 . S
Cd32 O34 2.411 . S
Cd32 O35 2.333 . S
Cd32 O36 2.352 . S
Cd32 O40 2.277 . S
Cd32 O41 2.356 . S
C33 O38 1.209 . S
C33 O40 1.226 . S
O34 Cd30 2.273 . S
O34 Cd32 2.411 . S
O34 C37 1.320 . S
O35 Cd32 2.333 . S
O35 C37 1.214 . S
O36 Cd32 2.352 . S
O36 C39 1.258 . S
C37 O34 1.320 . S
C37 O35 1.214 . S
O38 Cd30 2.277 . S
O38 C33 1.209 . S
C39 O36 1.258 . S
C39 O41 1.282 . S
O40 Cd32 2.277 . S
O40 C33 1.226 . S
O41 Cd32 2.356 . S
O41 C39 1.282 . S
C42 O43 1.306 . S
C42 O45 1.160 . S
O43 C42 1.306 . S
O43 Cd44 2.228 . S
Cd44 O43 2.228 . S
Cd44 O48 2.273 . S
Cd44 O52 2.277 . S
O45 C42 1.160 . S
O45 Cd46 2.203 . S
Cd46 O45 2.203 . S
Cd46 O48 2.411 . S
Cd46 O49 2.333 . S
Cd46 O50 2.352 . S
Cd46 O54 2.277 . S
Cd46 O55 2.356 . S
C47 O52 1.209 . S
C47 O54 1.226 . S
O48 Cd44 2.273 . S
O48 Cd46 2.411 . S
O48 C51 1.320 . S
O49 Cd46 2.333 . S
O49 C51 1.214 . S
O50 Cd46 2.352 . S
O50 C53 1.258 . S
C51 O48 1.320 . S
C51 O49 1.214 . S
O52 Cd44 2.277 . S
O52 C47 1.209 . S
C53 O50 1.258 . S
C53 O55 1.282 . S
O54 Cd46 2.277 . S
O54 C47 1.226 . S
O55 Cd46 2.356 . S
O55 C53 1.282 . S
C56 O57 1.306 . S
C56 O59 1.160 . S
O57 C56 1.306 . S
O57 Cd58 2.228 . S
Cd58 O57 2.228 . S
Cd58 O62 2.273 . S
Cd58 O66 2.277 . S
O59 C56 1.160 . S
O59 Cd60 2.203 . S
Cd60 O59 2.203 . S
Cd60 O62 2.411 . S
Cd60 O63 2.333 . S
Cd60 O64 2.352 . S
Cd60 O68 2.277 . S
Cd60 O69 2.356 . S
C61 O66 1.209 . S
C61 O68 1.226 . S
O62 Cd58 2.273 . S
O62 Cd60 2.411 . S
O62 C65 1.320 . S
O63 Cd60 2.333 . S
O63 C65 1.214 . S
O64 Cd60 2.352 . S
O64 C67 1.258 . S
C65 O62 1.320 . S
C65 O63 1.214 . S
O66 Cd58 2.277 . S
O66 C61 1.209 . S
C67 O64 1.258 . S
C67 O69 1.282 . S
O68 Cd60 2.277 . S
O68 C61 1.226 . S
O69 Cd60 2.356 . S
O69 C67 1.282 . S
C70 O71 1.306 . S
C70 O73 1.160 . S
O71 C70 1.306 . S
O71 Cd72 2.228 . S
Cd72 O71 2.228 . S
Cd72 O76 2.273 . S
Cd72 O80 2.277 . S
O73 C70 1.160 . S
O73 Cd74 2.203 . S
Cd74 O73 2.203 . S
Cd74 O76 2.411 . S
Cd74 O77 2.333 . S
Cd74 O78 2.352 . S
Cd74 O82 2.277 . S
Cd74 O83 2.356 . S
C75 O80 1.209 . S
C75 O82 1.226 . S
O76 Cd72 2.273 . S
O76 Cd74 2.411 . S
O76 C79 1.320 . S
O77 Cd74 2.333 . S
O77 C79 1.214 . S
O78 Cd74 2.352 . S
O78 C81 1.258 . S
C79 O76 1.320 . S
C79 O77 1.214 . S
O80 Cd72 2.277 . S
O80 C75 1.209 . S
C81 O78 1.258 . S
C81 O83 1.282 . S
O82 Cd74 2.277 . S
O82 C75 1.226 . S
O83 Cd74 2.356 . S
O83 C81 1.282 . S
C84 O85 1.306 . S
C84 O87 1.160 . S
O85 C84 1.306 . S
O85 Cd86 2.228 . S
Cd86 O85 2.228 . S
Cd86 O90 2.273 . S
Cd86 O94 2.277 . S
O87 C84 1.160 . S
O87 Cd88 2.203 . S
Cd88 O87 2.203 . S
Cd88 O90 2.411 . S
Cd88 O91 2.333 . S
Cd88 O92 2.352 . S
Cd88 O96 2.277 . S
Cd88 O97 2.356 . S
C89 O94 1.209 . S
C89 O96 1.226 . S
O90 Cd86 2.273 . S
O90 Cd88 2.411 . S
O90 C93 1.320 . S
O91 Cd88 2.333 . S
O91 C93 1.214 . S
O92 Cd88 2.352 . S
O92 C95 1.258 . S
C93 O90 1.320 . S
C93 O91 1.214 . S
O94 Cd86 2.277 . S
O94 C89 1.209 . S
C95 O92 1.258 . S
C95 O97 1.282 . S
O96 Cd88 2.277 . S
O96 C89 1.226 . S
O97 Cd88 2.356 . S
O97 C95 1.282 . S
C98 O99 1.306 . S
C98 O101 1.160 . S
O99 C98 1.306 . S
O99 Cd100 2.228 . S
Cd100 O99 2.228 . S
Cd100 O104 2.273 . S
Cd100 O108 2.277 . S
O101 C98 1.160 . S
O101 Cd102 2.203 . S
Cd102 O101 2.203 . S
Cd102 O104 2.411 . S
Cd102 O105 2.333 . S
Cd102 O106 2.352 . S
Cd102 O110 2.277 . S
Cd102 O111 2.356 . S
C103 O108 1.209 . S
C103 O110 1.226 . S
O104 Cd100 2.273 . S
O104 Cd102 2.411 . S
O104 C107 1.320 . S
O105 Cd102 2.333 . S
O105 C107 1.214 . S
O106 Cd102 2.352 . S
O106 C109 1.258 . S
C107 O104 1.320 . S
C107 O105 1.214 . S
O108 Cd100 2.277 . S
O108 C103 1.209 . S
C109 O106 1.258 . S
C109 O111 1.282 . S
O110 Cd102 2.277 . S
O110 C103 1.226 . S
O111 Cd102 2.356 . S
O111 C109 1.282 . S
C112 O113 1.306 . S
C112 O115 1.160 . S
O113 C112 1.306 . S
O113 Cd114 2.228 . S
Cd114 O113 2.228 . S
Cd114 O118 2.273 . S
Cd114 O122 2.277 . S
O115 C112 1.160 . S
O115 Cd116 2.203 . S
Cd116 O115 2.203 . S
Cd116 O118 2.411 . S
Cd116 O119 2.333 . S
Cd116 O120 2.352 . S
Cd116 O124 2.277 . S
Cd116 O125 2.356 . S
C117 O122 1.209 . S
C117 O124 1.226 . S
O118 Cd114 2.273 . S
O118 Cd116 2.411 . S
O118 C121 1.320 . S
O119 Cd116 2.333 . S
O119 C121 1.214 . S
O120 Cd116 2.352 . S
O120 C123 1.258 . S
C121 O118 1.320 . S
C121 O119 1.214 . S
O122 Cd114 2.277 . S
O122 C117 1.209 . S
C123 O120 1.258 . S
C123 O125 1.282 . S
O124 Cd116 2.277 . S
O124 C117 1.226 . S
O125 Cd116 2.356 . S
O125 C123 1.282 . S
C126 O127 1.306 . S
C126 O129 1.160 . S
O127 C126 1.306 . S
O127 Cd128 2.228 . S
Cd128 O127 2.228 . S
Cd128 O132 2.273 . S
Cd128 O136 2.277 . S
O129 C126 1.160 . S
O129 Cd130 2.203 . S
Cd130 O129 2.203 . S
Cd130 O132 2.411 . S
Cd130 O133 2.333 . S
Cd130 O134 2.352 . S
Cd130 O138 2.277 . S
Cd130 O139 2.356 . S
C131 O136 1.209 . S
C131 O138 1.226 . S
O132 Cd128 2.273 . S
O132 Cd130 2.411 . S
O132 C135 1.320 . S
O133 Cd130 2.333 . S
O133 C135 1.214 . S
O134 Cd130 2.352 . S
O134 C137 1.258 . S
C135 O132 1.320 . S
C135 O133 1.214 . S
O136 Cd128 2.277 . S
O136 C131 1.209 . S
C137 O134 1.258 . S
C137 O139 1.282 . S
O138 Cd130 2.277 . S
O138 C131 1.226 . S
O139 Cd130 2.356 . S
O139 C137 1.282 . S
C140 O141 1.306 . S
C140 O143 1.160 . S
O141 C140 1.306 . S
O141 Cd142 2.228 . S
Cd142 O141 2.228 . S
Cd142 O146 2.273 . S
Cd142 O150 2.277 . S
O143 C140 1.160 . S
O143 Cd144 2.203 . S
Cd144 O143 2.203 . S
Cd144 O146 2.411 . S
Cd144 O147 2.333 . S
Cd144 O148 2.352 . S
Cd144 O152 2.277 . S
Cd144 O153 2.356 . S
C145 O150 1.209 . S
C145 O152 1.226 . S
O146 Cd142 2.273 . S
O146 Cd144 2.411 . S
O146 C149 1.320 . S
O147 Cd144 2.333 . S
O147 C149 1.214 . S
O148 Cd144 2.352 . S
O148 C151 1.258 . S
C149 O146 1.320 . S
C149 O147 1.214 . S
O150 Cd142 2.277 . S
O150 C145 1.209 . S
C151 O148 1.258 . S
C151 O153 1.282 . S
O152 Cd144 2.277 . S
O152 C145 1.226 . S
O153 Cd144 2.356 . S
O153 C151 1.282 . S
C154 O155 1.306 . S
C154 O157 1.160 . S
O155 C154 1.306 . S
O155 Cd156 2.228 . S
Cd156 O155 2.228 . S
Cd156 O160 2.273 . S
Cd156 O164 2.277 . S
O157 C154 1.160 . S
O157 Cd158 2.203 . S
Cd158 O157 2.203 . S
Cd158 O160 2.411 . S
Cd158 O161 2.333 . S
Cd158 O162 2.352 . S
Cd158 O166 2.277 . S
Cd158 O167 2.356 . S
C159 O164 1.209 . S
C159 O166 1.226 . S
O160 Cd156 2.273 . S
O160 Cd158 2.411 . S
O160 C163 1.320 . S
O161 Cd158 2.333 . S
O161 C163 1.214 . S
O162 Cd158 2.352 . S
O162 C165 1.258 . S
C163 O160 1.320 . S
C163 O161 1.214 . S
O164 Cd156 2.277 . S
O164 C159 1.209 . S
C165 O162 1.258 . S
C165 O167 1.282 . S
O166 Cd158 2.277 . S
O166 C159 1.226 . S
O167 Cd158 2.356 . S
O167 C165 1.282 . S
C168 O169 1.306 . S
C168 O171 1.160 . S
O169 C168 1.306 . S
O169 Cd170 2.228 . S
Cd170 O169 2.228 . S
Cd170 O174 2.273 . S
Cd170 O178 2.277 . S
O171 C168 1.160 . S
O171 Cd172 2.203 . S
Cd172 O171 2.203 . S
Cd172 O174 2.411 . S
Cd172 O175 2.333 . S
Cd172 O176 2.352 . S
Cd172 O180 2.277 . S
Cd172 O181 2.356 . S
C173 O178 1.209 . S
C173 O180 1.226 . S
O174 Cd170 2.273 . S
O174 Cd172 2.411 . S
O174 C177 1.320 . S
O175 Cd172 2.333 . S
O175 C177 1.214 . S
O176 Cd172 2.352 . S
O176 C179 1.258 . S
C177 O174 1.320 . S
C177 O175 1.214 . S
O178 Cd170 2.277 . S
O178 C173 1.209 . S
C179 O176 1.258 . S
C179 O181 1.282 . S
O180 Cd172 2.277 . S
O180 C173 1.226 . S
O181 Cd172 2.356 . S
O181 C179 1.282 . S
C182 O183 1.306 . S
C182 O185 1.160 . S
O183 C182 1.306 . S
O183 Cd184 2.228 . S
Cd184 O183 2.228 . S
Cd184 O188 2.273 . S
Cd184 O192 2.277 . S
O185 C182 1.160 . S
O185 Cd186 2.203 . S
Cd186 O185 2.203 . S
Cd186 O188 2.411 . S
Cd186 O189 2.333 . S
Cd186 O190 2.352 . S
Cd186 O194 2.277 . S
Cd186 O195 2.356 . S
C187 O192 1.209 . S
C187 O194 1.226 . S
O188 Cd184 2.273 . S
O188 Cd186 2.411 . S
O188 C191 1.320 . S
O189 Cd186 2.333 . S
O189 C191 1.214 . S
O190 Cd186 2.352 . S
O190 C193 1.258 . S
C191 O188 1.320 . S
C191 O189 1.214 . S
O192 Cd184 2.277 . S
O192 C187 1.209 . S
C193 O190 1.258 . S
C193 O195 1.282 . S
O194 Cd186 2.277 . S
O194 C187 1.226 . S
O195 Cd186 2.356 . S
O195 C193 1.282 . S
C196 O197 1.306 . S
C196 O199 1.160 . S
O197 C196 1.306 . S
O197 Cd198 2.228 . S
Cd198 O197 2.228 . S
Cd198 O202 2.273 . S
Cd198 O206 2.277 . S
O199 C196 1.160 . S
O199 Cd200 2.203 . S
Cd200 O199 2.203 . S
Cd200 O202 2.411 . S
Cd200 O203 2.333 . S
Cd200 O204 2.352 . S
Cd200 O208 2.277 . S
Cd200 O209 2.356 . S
C201 O206 1.209 . S
C201 O208 1.226 . S
O202 Cd198 2.273 . S
O202 Cd200 2.411 . S
O202 C205 1.320 . S
O203 Cd200 2.333 . S
O203 C205 1.214 . S
O204 Cd200 2.352 . S
O204 C207 1.258 . S
C205 O202 1.320 . S
C205 O203 1.214 . S
O206 Cd198 2.277 . S
O206 C201 1.209 . S
C207 O204 1.258 . S
C207 O209 1.282 . S
O208 Cd200 2.277 . S
O208 C201 1.226 . S
O209 Cd200 2.356 . S
O209 C207 1.282 . S
C210 O211 1.306 . S
C210 O213 1.160 . S
O211 C210 1.306 . S
O211 Cd212 2.228 . S
Cd212 O211 2.228 . S
Cd212 O216 2.273 . S
Cd212 O220 2.277 . S
O213 C210 1.160 . S
O213 Cd214 2.203 . S
Cd214 O213 2.203 . S
Cd214 O216 2.411 . S
Cd214 O217 2.333 . S
Cd214 O218 2.352 . S
Cd214 O222 2.277 . S
Cd214 O223 2.356 . S
C215 O220 1.209 . S
C215 O222 1.226 . S
O216 Cd212 2.273 . S
O216 Cd214 2.411 . S
O216 C219 1.320 . S
O217 Cd214 2.333 . S
O217 C219 1.214 . S
O218 Cd214 2.352 . S
O218 C221 1.258 . S
C219 O216 1.320 . S
C219 O217 1.214 . S
O220 Cd212 2.277 . S
O220 C215 1.209 . S
C221 O218 1.258 . S
C221 O223 1.282 . S
O222 Cd214 2.277 . S
O222 C215 1.226 . S
O223 Cd214 2.356 . S
O223 C221 1.282 . S
C224 C225 1.387 . S
C224 H228 0.950 . S
C224 C233 1.390 1_455 S
C225 C224 1.387 . S
C225 C227 1.387 . S
H226 C233 0.950 . S
C227 C225 1.387 . S
C227 C229 1.390 1_455 S
C227 H231 0.950 . S
H228 C224 0.950 . S
C229 C227 1.390 1_655 S
C229 C230 1.387 . S
C229 H232 0.950 . S
C230 C229 1.387 . S
C230 C233 1.387 . S
H231 C227 0.950 . S
H232 C229 0.950 . S
C233 C224 1.390 1_655 S
C233 H226 0.950 . S
C233 C230 1.387 . S
C234 C235 1.387 . S
C234 H238 0.950 . S
C234 C243 1.390 1_655 S
C235 C234 1.387 . S
C235 C237 1.387 . S
H236 C243 0.950 . S
C237 C235 1.387 . S
C237 C239 1.390 1_655 S
C237 H241 0.950 . S
H238 C234 0.950 . S
C239 C237 1.390 1_455 S
C239 C240 1.387 . S
C239 H242 0.950 . S
C240 C239 1.387 . S
C240 C243 1.387 . S
H241 C237 0.950 . S
H242 C239 0.950 . S
C243 C234 1.390 1_455 S
C243 H236 0.950 . S
C243 C240 1.387 . S
C244 C245 1.387 . S
C244 H248 0.950 . S
C244 C253 1.390 1_655 S
C245 C244 1.387 . S
C245 C247 1.387 . S
H246 C253 0.950 . S
C247 C245 1.387 . S
C247 C249 1.390 1_655 S
C247 H251 0.950 . S
H248 C244 0.950 . S
C249 C247 1.390 1_455 S
C249 C250 1.387 . S
C249 H252 0.950 . S
C250 C249 1.387 . S
C250 C253 1.387 . S
H251 C247 0.950 . S
H252 C249 0.950 . S
C253 C244 1.390 1_455 S
C253 H246 0.950 . S
C253 C250 1.387 . S
C254 C255 1.387 . S
C254 H258 0.950 . S
C254 C263 1.390 1_455 S
C255 C254 1.387 . S
C255 C257 1.387 . S
H256 C263 0.950 . S
C257 C255 1.387 . S
C257 C259 1.390 1_455 S
C257 H261 0.950 . S
H258 C254 0.950 . S
C259 C257 1.390 1_655 S
C259 C260 1.387 . S
C259 H262 0.950 . S
C260 C259 1.387 . S
C260 C263 1.387 . S
H261 C257 0.950 . S
H262 C259 0.950 . S
C263 C254 1.390 1_655 S
C263 H256 0.950 . S
C263 C260 1.387 . S
C264 C265 1.387 . S
C264 H268 0.950 . S
C264 C273 1.390 . S
C265 C264 1.387 . S
C265 C267 1.387 . S
H266 C273 0.950 . S
C267 C265 1.387 . S
C267 C269 1.390 . S
C267 H271 0.950 . S
H268 C264 0.950 . S
C269 C267 1.390 . S
C269 C270 1.387 . S
C269 H272 0.950 . S
C270 C269 1.387 . S
C270 C273 1.387 . S
H271 C267 0.950 . S
H272 C269 0.950 . S
C273 C264 1.390 . S
C273 H266 0.950 . S
C273 C270 1.387 . S
C274 C275 1.387 . S
C274 H278 0.950 . S
C274 C283 1.390 . S
C275 C274 1.387 . S
C275 C277 1.387 . S
H276 C283 0.950 . S
C277 C275 1.387 . S
C277 C279 1.390 . S
C277 H281 0.950 . S
H278 C274 0.950 . S
C279 C277 1.390 . S
C279 C280 1.387 . S
C279 H282 0.950 . S
C280 C279 1.387 . S
C280 C283 1.387 . S
H281 C277 0.950 . S
H282 C279 0.950 . S
C283 C274 1.390 . S
C283 H276 0.950 . S
C283 C280 1.387 . S
C284 C285 1.387 . S
C284 H288 0.950 . S
C284 C293 1.390 . S
C285 C284 1.387 . S
C285 C287 1.387 . S
H286 C293 0.950 . S
C287 C285 1.387 . S
C287 C289 1.390 . S
C287 H291 0.950 . S
H288 C284 0.950 . S
C289 C287 1.390 . S
C289 C290 1.387 . S
C289 H292 0.950 . S
C290 C289 1.387 . S
C290 C293 1.387 . S
H291 C287 0.950 . S
H292 C289 0.950 . S
C293 C284 1.390 . S
C293 H286 0.950 . S
C293 C290 1.387 . S
C294 C295 1.387 . S
C294 H298 0.950 . S
C294 C303 1.390 . S
C295 C294 1.387 . S
C295 C297 1.387 . S
H296 C303 0.950 . S
C297 C295 1.387 . S
C297 C299 1.390 . S
C297 H301 0.950 . S
H298 C294 0.950 . S
C299 C297 1.390 . S
C299 C300 1.387 . S
C299 H302 0.950 . S
C300 C299 1.387 . S
C300 C303 1.387 . S
H301 C297 0.950 . S
H302 C299 0.950 . S
C303 C294 1.390 . S
C303 H296 0.950 . S
C303 C300 1.387 . S
C304 C305 1.387 . S
C304 H308 0.950 . S
C304 C313 1.390 . S
C305 C304 1.387 . S
C305 C307 1.387 . S
H306 C313 0.950 . S
C307 C305 1.387 . S
C307 C309 1.390 . S
C307 H311 0.950 . S
H308 C304 0.950 . S
C309 C307 1.390 . S
C309 C310 1.387 . S
C309 H312 0.950 . S
C310 C309 1.387 . S
C310 C313 1.387 . S
H311 C307 0.950 . S
H312 C309 0.950 . S
C313 C304 1.390 . S
C313 H306 0.950 . S
C313 C310 1.387 . S
C314 C315 1.387 . S
C314 H318 0.950 . S
C314 C323 1.390 . S
C315 C314 1.387 . S
C315 C317 1.387 . S
H316 C323 0.950 . S
C317 C315 1.387 . S
C317 C319 1.390 . S
C317 H321 0.950 . S
H318 C314 0.950 . S
C319 C317 1.390 . S
C319 C320 1.387 . S
C319 H322 0.950 . S
C320 C319 1.387 . S
C320 C323 1.387 . S
H321 C317 0.950 . S
H322 C319 0.950 . S
C323 C314 1.390 . S
C323 H316 0.950 . S
C323 C320 1.387 . S
C324 C325 1.387 . S
C324 H328 0.950 . S
C324 C333 1.390 . S
C325 C324 1.387 . S
C325 C327 1.387 . S
H326 C333 0.950 . S
C327 C325 1.387 . S
C327 C329 1.390 . S
C327 H331 0.950 . S
H328 C324 0.950 . S
C329 C327 1.390 . S
C329 C330 1.387 . S
C329 H332 0.950 . S
C330 C329 1.387 . S
C330 C333 1.387 . S
H331 C327 0.950 . S
H332 C329 0.950 . S
C333 C324 1.390 . S
C333 H326 0.950 . S
C333 C330 1.387 . S
C334 C335 1.387 . S
C334 H338 0.950 . S
C334 C343 1.390 . S
C335 C334 1.387 . S
C335 C337 1.387 . S
H336 C343 0.950 . S
C337 C335 1.387 . S
C337 C339 1.390 . S
C337 H341 0.950 . S
H338 C334 0.950 . S
C339 C337 1.390 . S
C339 C340 1.387 . S
C339 H342 0.950 . S
C340 C339 1.387 . S
C340 C343 1.387 . S
H341 C337 0.950 . S
H342 C339 0.950 . S
C343 C334 1.390 . S
C343 H336 0.950 . S
C343 C340 1.387 . S
C344 C345 1.387 . S
C344 H348 0.950 . S
C344 C353 1.390 . S
C345 C344 1.387 . S
C345 C347 1.387 . S
H346 C353 0.950 . S
C347 C345 1.387 . S
C347 C349 1.390 . S
C347 H351 0.950 . S
H348 C344 0.950 . S
C349 C347 1.390 . S
C349 C350 1.387 . S
C349 H352 0.950 . S
C350 C349 1.387 . S
C350 C353 1.387 . S
H351 C347 0.950 . S
H352 C349 0.950 . S
C353 C344 1.390 . S
C353 H346 0.950 . S
C353 C350 1.387 . S
C354 C355 1.387 . S
C354 H358 0.950 . S
C354 C363 1.390 . S
C355 C354 1.387 . S
C355 C357 1.387 . S
H356 C363 0.950 . S
C357 C355 1.387 . S
C357 C359 1.390 . S
C357 H361 0.950 . S
H358 C354 0.950 . S
C359 C357 1.390 . S
C359 C360 1.387 . S
C359 H362 0.950 . S
C360 C359 1.387 . S
C360 C363 1.387 . S
H361 C357 0.950 . S
H362 C359 0.950 . S
C363 C354 1.390 . S
C363 H356 0.950 . S
C363 C360 1.387 . S
C364 C365 1.387 . S
C364 H368 0.950 . S
C364 C373 1.390 . S
C365 C364 1.387 . S
C365 C367 1.387 . S
H366 C373 0.950 . S
C367 C365 1.387 . S
C367 C369 1.390 . S
C367 H371 0.950 . S
H368 C364 0.950 . S
C369 C367 1.390 . S
C369 C370 1.387 . S
C369 H372 0.950 . S
C370 C369 1.387 . S
C370 C373 1.387 . S
H371 C367 0.950 . S
H372 C369 0.950 . S
C373 C364 1.390 . S
C373 H366 0.950 . S
C373 C370 1.387 . S
C374 C375 1.387 . S
C374 H378 0.950 . S
C374 C383 1.390 . S
C375 C374 1.387 . S
C375 C377 1.387 . S
H376 C383 0.950 . S
C377 C375 1.387 . S
C377 C379 1.390 . S
C377 H381 0.950 . S
H378 C374 0.950 . S
C379 C377 1.390 . S
C379 C380 1.387 . S
C379 H382 0.950 . S
C380 C379 1.387 . S
C380 C383 1.387 . S
H381 C377 0.950 . S
H382 C379 0.950 . S
C383 C374 1.390 . S
C383 H376 0.950 . S
C383 C380 1.387 . S
C384 C385 1.387 1_554 S
C384 H388 0.950 . S
C384 C393 1.390 . S
C385 C384 1.387 1_556 S
C385 C387 1.387 . S
H386 C393 0.950 . S
C387 C385 1.387 . S
C387 C389 1.390 . S
C387 H391 0.950 . S
H388 C384 0.950 . S
C389 C387 1.390 . S
C389 C390 1.387 1_556 S
C389 H392 0.950 . S
C390 C389 1.387 1_554 S
C390 C393 1.387 . S
H391 C387 0.950 . S
H392 C389 0.950 . S
C393 C384 1.390 . S
C393 H386 0.950 . S
C393 C390 1.387 . S
C394 C395 1.387 . S
C394 H398 0.950 . S
C394 C403 1.390 . S
C395 C394 1.387 . S
C395 C397 1.387 . S
H396 C403 0.950 . S
C397 C395 1.387 . S
C397 C399 1.390 . S
C397 H401 0.950 . S
H398 C394 0.950 . S
C399 C397 1.390 . S
C399 C400 1.387 . S
C399 H402 0.950 . S
C400 C399 1.387 . S
C400 C403 1.387 . S
H401 C397 0.950 . S
H402 C399 0.950 . S
C403 C394 1.390 . S
C403 H396 0.950 . S
C403 C400 1.387 . S
C404 C405 1.387 . S
C404 H408 0.950 . S
C404 C413 1.390 1_554 S
C405 C404 1.387 . S
C405 C407 1.387 . S
H406 C413 0.950 . S
C407 C405 1.387 . S
C407 C409 1.390 1_554 S
C407 H411 0.950 . S
H408 C404 0.950 . S
C409 C407 1.390 1_556 S
C409 C410 1.387 . S
C409 H412 0.950 . S
C410 C409 1.387 . S
C410 C413 1.387 . S
H411 C407 0.950 . S
H412 C409 0.950 . S
C413 C404 1.390 1_556 S
C413 H406 0.950 . S
C413 C410 1.387 . S
C414 C415 1.387 . S
C414 H418 0.950 . S
C414 C423 1.390 . S
C415 C414 1.387 . S
C415 C417 1.387 . S
H416 C423 0.950 . S
C417 C415 1.387 . S
C417 C419 1.390 . S
C417 H421 0.950 . S
H418 C414 0.950 . S
C419 C417 1.390 . S
C419 C420 1.387 . S
C419 H422 0.950 . S
C420 C419 1.387 . S
C420 C423 1.387 . S
H421 C417 0.950 . S
H422 C419 0.950 . S
C423 C414 1.390 . S
C423 H416 0.950 . S
C423 C420 1.387 . S
C424 C425 1.387 1_556 S
C424 H428 0.950 . S
C424 C433 1.390 . S
C425 C424 1.387 1_554 S
C425 C427 1.387 . S
H426 C433 0.950 . S
C427 C425 1.387 . S
C427 C429 1.390 . S
C427 H431 0.950 . S
H428 C424 0.950 . S
C429 C427 1.390 . S
C429 C430 1.387 1_554 S
C429 H432 0.950 . S
C430 C429 1.387 1_556 S
C430 C433 1.387 . S
H431 C427 0.950 . S
H432 C429 0.950 . S
C433 C424 1.390 . S
C433 H426 0.950 . S
C433 C430 1.387 . S
C434 C435 1.387 . S
C434 H438 0.950 . S
C434 C443 1.390 . S
C435 C434 1.387 . S
C435 C437 1.387 . S
H436 C443 0.950 . S
C437 C435 1.387 . S
C437 C439 1.390 . S
C437 H441 0.950 . S
H438 C434 0.950 . S
C439 C437 1.390 . S
C439 C440 1.387 . S
C439 H442 0.950 . S
C440 C439 1.387 . S
C440 C443 1.387 . S
H441 C437 0.950 . S
H442 C439 0.950 . S
C443 C434 1.390 . S
C443 H436 0.950 . S
C443 C440 1.387 . S
C444 C445 1.387 1_556 S
C444 H448 0.950 . S
C444 C453 1.390 . S
C445 C444 1.387 1_554 S
C445 C447 1.387 . S
H446 C453 0.950 . S
C447 C445 1.387 . S
C447 C449 1.390 . S
C447 H451 0.950 . S
H448 C444 0.950 . S
C449 C447 1.390 . S
C449 C450 1.387 1_554 S
C449 H452 0.950 . S
C450 C449 1.387 1_556 S
C450 C453 1.387 . S
H451 C447 0.950 . S
H452 C449 0.950 . S
C453 C444 1.390 . S
C453 H446 0.950 . S
C453 C450 1.387 . S
C454 C455 1.387 . S
C454 H458 0.950 . S
C454 C463 1.390 . S
C455 C454 1.387 . S
C455 C457 1.387 . S
H456 C463 0.950 . S
C457 C455 1.387 . S
C457 C459 1.390 . S
C457 H461 0.950 . S
H458 C454 0.950 . S
C459 C457 1.390 . S
C459 C460 1.387 . S
C459 H462 0.950 . S
C460 C459 1.387 . S
C460 C463 1.387 . S
H461 C457 0.950 . S
H462 C459 0.950 . S
C463 C454 1.390 . S
C463 H456 0.950 . S
C463 C460 1.387 . S
C464 C465 1.387 . S
C464 H468 0.950 . S
C464 C473 1.390 1_556 S
C465 C464 1.387 . S
C465 C467 1.387 . S
H466 C473 0.950 . S
C467 C465 1.387 . S
C467 C469 1.390 1_556 S
C467 H471 0.950 . S
H468 C464 0.950 . S
C469 C467 1.390 1_554 S
C469 C470 1.387 . S
C469 H472 0.950 . S
C470 C469 1.387 . S
C470 C473 1.387 . S
H471 C467 0.950 . S
H472 C469 0.950 . S
C473 C464 1.390 1_554 S
C473 H466 0.950 . S
C473 C470 1.387 . S
C474 C475 1.387 . S
C474 H478 0.950 . S
C474 C483 1.390 . S
C475 C474 1.387 . S
C475 C477 1.387 . S
H476 C483 0.950 . S
C477 C475 1.387 . S
C477 C479 1.390 . S
C477 H481 0.950 . S
H478 C474 0.950 . S
C479 C477 1.390 . S
C479 C480 1.387 . S
C479 H482 0.950 . S
C480 C479 1.387 . S
C480 C483 1.387 . S
H481 C477 0.950 . S
H482 C479 0.950 . S
C483 C474 1.390 . S
C483 H476 0.950 . S
C483 C480 1.387 . S
C484 C485 1.387 . S
C484 H488 0.950 . S
C484 C493 1.390 1_554 S
C485 C484 1.387 . S
C485 C487 1.387 . S
H486 C493 0.950 . S
C487 C485 1.387 . S
C487 C489 1.390 1_554 S
C487 H491 0.950 . S
H488 C484 0.950 . S
C489 C487 1.390 1_556 S
C489 C490 1.387 . S
C489 H492 0.950 . S
C490 C489 1.387 . S
C490 C493 1.387 . S
H491 C487 0.950 . S
H492 C489 0.950 . S
C493 C484 1.390 1_556 S
C493 H486 0.950 . S
C493 C490 1.387 . S
C494 C495 1.387 . S
C494 H498 0.950 . S
C494 C503 1.390 . S
C495 C494 1.387 . S
C495 C497 1.387 . S
H496 C503 0.950 . S
C497 C495 1.387 . S
C497 C499 1.390 . S
C497 H501 0.950 . S
H498 C494 0.950 . S
C499 C497 1.390 . S
C499 C500 1.387 . S
C499 H502 0.950 . S
C500 C499 1.387 . S
C500 C503 1.387 . S
H501 C497 0.950 . S
H502 C499 0.950 . S
C503 C494 1.390 . S
C503 H496 0.950 . S
C503 C500 1.387 . S
C504 C505 1.387 . S
C504 H508 0.950 . S
C504 C513 1.390 1_546 S
C505 C504 1.387 . S
C505 C507 1.387 . S
H506 C513 0.950 . S
C507 C505 1.387 . S
C507 C509 1.390 1_546 S
C507 H511 0.950 . S
H508 C504 0.950 . S
C509 C507 1.390 1_564 S
C509 C510 1.387 . S
C509 H512 0.950 . S
C510 C509 1.387 . S
C510 C513 1.387 . S
H511 C507 0.950 . S
H512 C509 0.950 . S
C513 C504 1.390 1_564 S
C513 H506 0.950 . S
C513 C510 1.387 . S
C514 C515 1.387 . S
C514 H518 0.950 . S
C514 C523 1.390 1_565 S
C515 C514 1.387 . S
C515 C517 1.387 . S
H516 C523 0.950 . S
C517 C515 1.387 . S
C517 C519 1.390 1_565 S
C517 H521 0.950 . S
H518 C514 0.950 . S
C519 C517 1.390 1_545 S
C519 C520 1.387 . S
C519 H522 0.950 . S
C520 C519 1.387 . S
C520 C523 1.387 . S
H521 C517 0.950 . S
H522 C519 0.950 . S
C523 C514 1.390 1_545 S
C523 H516 0.950 . S
C523 C520 1.387 . S
C524 C525 1.387 . S
C524 H528 0.950 . S
C524 C533 1.390 1_564 S
C525 C524 1.387 . S
C525 C527 1.387 . S
H526 C533 0.950 . S
C527 C525 1.387 . S
C527 C529 1.390 1_564 S
C527 H531 0.950 . S
H528 C524 0.950 . S
C529 C527 1.390 1_546 S
C529 C530 1.387 . S
C529 H532 0.950 . S
C530 C529 1.387 . S
C530 C533 1.387 . S
H531 C527 0.950 . S
H532 C529 0.950 . S
C533 C524 1.390 1_546 S
C533 H526 0.950 . S
C533 C530 1.387 . S
C534 C535 1.387 . S
C534 H538 0.950 . S
C534 C543 1.390 1_545 S
C535 C534 1.387 . S
C535 C537 1.387 . S
H536 C543 0.950 . S
C537 C535 1.387 . S
C537 C539 1.390 1_545 S
C537 H541 0.950 . S
H538 C534 0.950 . S
C539 C537 1.390 1_565 S
C539 C540 1.387 . S
C539 H542 0.950 . S
C540 C539 1.387 . S
C540 C543 1.387 . S
H541 C537 0.950 . S
H542 C539 0.950 . S
C543 C534 1.390 1_565 S
C543 H536 0.950 . S
C543 C540 1.387 . S
C225 C5 1.463 . S
C230 C89 1.464 . S
C235 C19 1.463 . S
C240 C103 1.464 . S
C245 C61 1.464 . S
C250 C33 1.463 . S
C255 C75 1.463 . S
C260 C47 1.463 . S
C265 C201 1.464 . S
C270 C117 1.463 . S
C275 C215 1.464 . S
C280 C131 1.463 . S
C285 C145 1.463 . S
C290 C173 1.464 . S
C295 C159 1.463 . S
C300 C187 1.464 . S
C305 C9 1.503 . S
C310 C70 1.478 . S
C315 C23 1.503 . S
C320 C56 1.479 . S
C325 C37 1.503 . S
C330 C98 1.479 . S
C335 C84 1.479 . S
C340 C51 1.503 . S
C345 C182 1.480 . S
C350 C121 1.503 . S
C355 C168 1.479 . S
C360 C135 1.503 . S
C365 C149 1.503 . S
C370 C210 1.479 . S
C375 C196 1.479 . S
C380 C163 1.503 . S
C385 C179 1.433 . S
C390 C11 1.441 . S
C395 C25 1.441 . S
C400 C193 1.433 . S
C405 C207 1.433 . S
C410 C39 1.441 . S
C415 C221 1.432 . S
C420 C53 1.440 . S
C425 C123 1.440 . S
C430 C67 1.432 . S
C435 C137 1.440 . S
C440 C81 1.432 . S
C445 C95 1.432 . S
C450 C151 1.440 . S
C455 C109 1.433 . S
C460 C165 1.440 . S
C465 C28 1.456 . S
C470 C0 1.456 . S
C475 C14 1.456 . S
C480 C42 1.456 . S
C485 C93 1.518 . S
C490 C65 1.518 . S
C495 C79 1.518 . S
C500 C107 1.518 . S
C505 C140 1.458 . S
C510 C112 1.458 . S
C515 C154 1.458 . S
C520 C126 1.458 . S
C525 C205 1.518 . S
C530 C177 1.518 . S
C535 C219 1.518 . S
C540 C191 1.518 . S
