# Generated by pormake.
# Topology wjq, (5)-cn, num edge types: 1
# Building blocks:
#     Node 0, Type 0, BuildingBlock: XOMCOT_clean_sbu_1, # of connection points: 5
#     Node 1, Type 0, BuildingBlock: XOMCOT_clean_sbu_1, # of connection points: 5
#     Node 2, Type 0, BuildingBlock: XOMCOT_clean_sbu_1, # of connection points: 5
#     Node 3, Type 0, BuildingBlock: XOMCOT_clean_sbu_1, # of connection points: 5
#     Node 4, Type 0, BuildingBlock: XOMCOT_clean_sbu_1, # of connection points: 5
#     Node 5, Type 0, BuildingBlock: XOMCOT_clean_sbu_1, # of connection points: 5
#     Node 6, Type 0, BuildingBlock: XOMCOT_clean_sbu_1, # of connection points: 5
#     Node 7, Type 0, BuildingBlock: XOMCOT_clean_sbu_1, # of connection points: 5
#     Node 8, Type 0, BuildingBlock: XOMCOT_clean_sbu_1, # of connection points: 5
#     Node 9, Type 0, BuildingBlock: XOMCOT_clean_sbu_1, # of connection points: 5
#     Node 10, Type 0, BuildingBlock: XOMCOT_clean_sbu_1, # of connection points: 5
#     Node 11, Type 0, BuildingBlock: XOMCOT_clean_sbu_1, # of connection points: 5
#     Edge 12, Type (0, 0), BuildingBlock: OJICUG_clean_linker_0, # of connection points: 2
#     Edge 13, Type (0, 0), BuildingBlock: OJICUG_clean_linker_0, # of connection points: 2
#     Edge 14, Type (0, 0), BuildingBlock: OJICUG_clean_linker_0, # of connection points: 2
#     Edge 15, Type (0, 0), BuildingBlock: OJICUG_clean_linker_0, # of connection points: 2
#     Edge 16, Type (0, 0), BuildingBlock: OJICUG_clean_linker_0, # of connection points: 2
#     Edge 17, Type (0, 0), BuildingBlock: OJICUG_clean_linker_0, # of connection points: 2
#     Edge 18, Type (0, 0), BuildingBlock: OJICUG_clean_linker_0, # of connection points: 2
#     Edge 19, Type (0, 0), BuildingBlock: OJICUG_clean_linker_0, # of connection points: 2
#     Edge 20, Type (0, 0), BuildingBlock: OJICUG_clean_linker_0, # of connection points: 2
#     Edge 21, Type (0, 0), BuildingBlock: OJICUG_clean_linker_0, # of connection points: 2
#     Edge 22, Type (0, 0), BuildingBlock: OJICUG_clean_linker_0, # of connection points: 2
#     Edge 23, Type (0, 0), BuildingBlock: OJICUG_clean_linker_0, # of connection points: 2
#     Edge 24, Type (0, 0), BuildingBlock: OJICUG_clean_linker_0, # of connection points: 2
#     Edge 25, Type (0, 0), BuildingBlock: OJICUG_clean_linker_0, # of connection points: 2
#     Edge 26, Type (0, 0), BuildingBlock: OJICUG_clean_linker_0, # of connection points: 2
#     Edge 27, Type (0, 0), BuildingBlock: OJICUG_clean_linker_0, # of connection points: 2
#     Edge 28, Type (0, 0), BuildingBlock: OJICUG_clean_linker_0, # of connection points: 2
#     Edge 29, Type (0, 0), BuildingBlock: OJICUG_clean_linker_0, # of connection points: 2
#     Edge 30, Type (0, 0), BuildingBlock: OJICUG_clean_linker_0, # of connection points: 2
#     Edge 31, Type (0, 0), BuildingBlock: OJICUG_clean_linker_0, # of connection points: 2
#     Edge 32, Type (0, 0), BuildingBlock: OJICUG_clean_linker_0, # of connection points: 2
#     Edge 33, Type (0, 0), BuildingBlock: OJICUG_clean_linker_0, # of connection points: 2
#     Edge 34, Type (0, 0), BuildingBlock: OJICUG_clean_linker_0, # of connection points: 2
#     Edge 35, Type (0, 0), BuildingBlock: OJICUG_clean_linker_0, # of connection points: 2
#     Edge 36, Type (0, 0), BuildingBlock: OJICUG_clean_linker_0, # of connection points: 2
#     Edge 37, Type (0, 0), BuildingBlock: OJICUG_clean_linker_0, # of connection points: 2
#     Edge 38, Type (0, 0), BuildingBlock: OJICUG_clean_linker_0, # of connection points: 2
#     Edge 39, Type (0, 0), BuildingBlock: OJICUG_clean_linker_0, # of connection points: 2
#     Edge 40, Type (0, 0), BuildingBlock: OJICUG_clean_linker_0, # of connection points: 2
#     Edge 41, Type (0, 0), BuildingBlock: OJICUG_clean_linker_0, # of connection points: 2
# Relax obj value: 0.573
# Max RMSD: 0.292
# Mean RMSD: 0.292
data_MOF--net-wjq--node1-XOMCOT_clean_sbu_1--edge1-OJICUG_clean_linker_0
_symmetry_space_group_name_H-M    P1
_symmetry_Int_Tables_number       1
_symmetry_cell_setting            triclinic
loop_
_symmetry_equiv_pos_as_xyz
'x, y, z'
_cell_length_a     20.257551
_cell_length_b     20.181115
_cell_length_c     70.933822
_cell_angle_alpha  90.042164
_cell_angle_beta   89.99937
_cell_angle_gamma 120.09589
loop_
_atom_site_label
_atom_site_type_symbol
_atom_site_fract_x
_atom_site_fract_y
_atom_site_fract_z
_atom_type_partial_charge
C0 C 0.31667 0.23156 0.02757 0.0
C1 C 0.29471 0.25805 0.01228 0.0
N2 N 0.22107 0.23846 0.01451 0.0
N3 N 0.25755 0.19596 0.03961 0.0
C4 C 0.1998 0.20076 0.03118 0.0
H5 H 0.37257 0.23851 0.02989 0.0
Co6 Co 0.26186 0.15409 0.06317 0.0
C7 C 0.10673 0.09481 0.07864 0.0
O8 O 0.13631 0.13708 0.09378 0.0
N9 N 0.26411 0.11085 0.08668 0.0
C10 C 0.2343 0.02351 0.10919 0.0
C11 C 0.22084 0.03565 0.09093 0.0
C12 C 0.30367 0.1431 0.10269 0.0
N13 N 0.28642 0.09121 0.11658 0.0
O14 O 0.28117 0.24812 0.07499 0.0
H15 H 0.18089 0.99219 0.08138 0.0
H16 H 0.3428 0.20365 0.10444 0.0
O17 O 0.15046 0.10067 0.06502 0.0
C18 C 0.35458 0.28615 0.07441 0.0
O19 O 0.39003 0.25003 0.06883 0.0
N20 N 0.25814 0.07186 0.05103 0.0
C21 C 0.30432 1.01125 0.02279 0.0
C22 C 0.22899 0.99721 0.02308 0.0
C23 C 0.20697 0.02939 0.0374 0.0
C24 C 0.32663 0.07477 0.05252 0.0
C25 C 0.3512 0.04466 0.0384 0.0
H26 H 0.15385 0.02934 0.03604 0.0
H27 H 0.36678 0.10977 0.0633 0.0
H28 H 0.14383 0.17904 0.03734 0.0
H29 H 0.33022 0.28945 0.0004 0.0
H30 H 0.20772 0.96902 0.11645 0.0
H31 H 0.19202 0.97255 0.01095 0.0
H32 H 0.40981 0.05706 0.03838 0.0
C33 C 0.07097 0.35043 0.35415 0.0
C34 C 0.03009 0.30994 0.33851 0.0
N35 N 1.00498 0.23488 0.34129 0.0
N36 N 0.07205 0.30172 0.36696 0.0
C37 C 0.03109 0.23159 0.35872 0.0
H38 H 0.09993 0.41194 0.35587 0.0
Co39 Co 0.13082 0.33249 0.38948 0.0
C40 C 0.11058 0.18769 0.40557 0.0
O41 O 0.1836 0.2243 0.40979 0.0
N42 N 0.18917 0.36254 0.41215 0.0
C43 C 0.27897 0.41212 0.43437 0.0
C44 C 0.26497 0.40728 0.41533 0.0
C45 C 0.1587 0.342 0.42961 0.0
N46 N 0.212 0.37092 0.44335 0.0
O47 O 0.05705 0.35257 0.40149 0.0
H48 H 0.3085 0.43584 0.4048 0.0
H49 H 0.09825 0.30534 0.43214 0.0
O50 O 0.08082 0.22408 0.39779 0.0
C51 C 0.09045 0.42599 0.40074 0.0
O52 O 0.1571 0.46279 0.39239 0.0
N53 N 0.20739 0.32755 0.37669 0.0
C54 C 0.32189 0.35339 0.35156 0.0
C55 C 0.26835 0.27836 0.35701 0.0
C56 C 0.20986 0.26638 0.36936 0.0
C57 C 0.25918 0.4003 0.37132 0.0
C58 C 0.31803 0.41479 0.35914 0.0
H59 H 0.16437 0.20855 0.37176 0.0
H60 H 0.25355 0.44788 0.37608 0.0
H61 H 1.02313 0.1793 0.36502 0.0
H62 H 1.01989 0.33427 0.32602 0.0
H63 H 0.33413 0.44513 0.44107 0.0
H64 H 0.26761 0.22946 0.35046 0.0
H65 H 0.35677 0.473 0.3546 0.0
C66 C 0.80275 0.12134 0.70129 0.0
C67 C 0.78299 0.07434 0.68575 0.0
N68 N 0.81313 0.02847 0.68757 0.0
N69 N 0.84477 0.10537 0.71317 0.0
C70 C 0.85074 0.04857 0.70434 0.0
H71 H 0.78685 0.16431 0.70386 0.0
Co72 Co 0.87938 0.15726 0.73662 0.0
C73 C 1.00214 0.12595 0.74798 0.0
O74 O 0.04296 0.19852 0.75245 0.0
N75 N 0.91329 0.21074 0.76055 0.0
C76 C 0.97479 0.30116 0.78237 0.0
C77 C 0.97583 0.27976 0.76415 0.0
C78 C 0.87568 0.19185 0.77731 0.0
N79 N 0.91099 0.24652 0.79067 0.0
O80 O 0.78425 0.08291 0.7476 0.0
H81 H 1.02106 0.31368 0.75433 0.0
H82 H 0.82189 0.14002 0.77958 0.0
O83 O 0.93331 0.0991 0.74207 0.0
C84 C 0.74629 0.11826 0.74693 0.0
O85 O 0.78236 0.19056 0.74184 0.0
N86 N 0.9619 0.23471 0.7243 0.0
C87 C 0.0384 0.34315 0.69687 0.0
C88 C 0.05319 0.28285 0.69944 0.0
C89 C 1.01253 0.22757 0.71306 0.0
C90 C 0.95129 0.29611 0.72266 0.0
C91 C 0.99023 0.35205 0.70926 0.0
H92 H 1.01557 0.17568 0.71304 0.0
H93 H 0.90807 0.29891 0.73094 0.0
H94 H 0.88033 0.02122 0.71022 0.0
H95 H 0.74879 0.07385 0.67396 0.0
H96 H 1.01823 0.35349 0.78886 0.0
H97 H 0.08783 0.273 0.68944 0.0
H98 H 0.97615 0.39674 0.70717 0.0
C99 C 0.64737 0.65438 0.02587 0.0
C100 C 0.69324 0.65527 0.0114 0.0
N101 N 0.75721 0.72439 0.01109 0.0
N102 N 0.68242 0.72226 0.03497 0.0
C103 C 0.74918 0.76399 0.02547 0.0
H104 H 0.59221 0.60665 0.02962 0.0
Co105 Co 0.64484 0.74794 0.0566 0.0
C106 C 0.78396 0.86718 0.07718 0.0
O107 O 0.74297 0.896 0.08363 0.0
N108 N 0.60765 0.77316 0.07843 0.0
C109 C 0.56639 0.82424 0.10009 0.0
C110 C 0.57382 0.81585 0.08103 0.0
C111 C 0.61745 0.75434 0.09607 0.0
N112 N 0.59377 0.78517 0.1094 0.0
O113 O 0.62008 0.65093 0.06834 0.0
H114 H 0.55879 0.84273 0.07001 0.0
H115 H 0.64692 0.72333 0.09917 0.0
O116 O 0.7523 0.80695 0.06667 0.0
C117 C 0.54691 0.61127 0.0669 0.0
O118 O 0.51192 0.64278 0.0584 0.0
N119 N 0.65412 0.83206 0.04397 0.0
C120 C 0.63794 0.93134 0.02015 0.0
C121 C 0.70853 0.95347 0.02869 0.0
C122 C 0.71587 0.90226 0.04041 0.0
C123 C 0.58525 0.81049 0.03587 0.0
C124 C 0.57551 0.85957 0.02409 0.0
H125 H 0.77188 0.91793 0.04545 0.0
H126 H 0.53759 0.75385 0.03832 0.0
H127 H 0.79216 0.82163 0.02927 0.0
H128 H 0.68048 0.60863 0.00179 0.0
H129 H 0.54462 0.85798 0.1066 0.0
H130 H 0.75887 1.00747 0.02521 0.0
H131 H 0.52074 0.84023 0.01739 0.0
C132 C 0.95083 0.6646 0.36208 0.0
C133 C 0.99596 0.69557 0.34635 0.0
N134 N 0.04408 0.77086 0.34938 0.0
N135 N 0.96948 0.71966 0.37515 0.0
C136 C 0.02702 0.78386 0.36705 0.0
H137 H 0.90597 0.6057 0.36377 0.0
Co138 Co 0.91531 0.70304 0.39815 0.0
C139 C 0.94158 0.85542 0.40901 0.0
O140 O 0.86851 0.8217 0.41298 0.0
N141 N 0.86119 0.68682 0.42148 0.0
C142 C 0.77376 0.65942 0.44383 0.0
C143 C 0.78628 0.66121 0.42484 0.0
C144 C 0.89256 0.70048 0.43894 0.0
N145 N 0.84057 0.68406 0.45273 0.0
O146 O 0.98896 0.68438 0.41044 0.0
H147 H 0.74227 0.6461 0.41445 0.0
H148 H 0.95276 0.7231 0.44151 0.0
O149 O 0.97046 0.81503 0.40322 0.0
C150 C 0.95382 0.611 0.41183 0.0
O151 O 0.88101 0.5726 0.40753 0.0
N152 N 0.8386 0.70544 0.38478 0.0
C153 C 0.73661 0.66779 0.35546 0.0
C154 C 0.79181 0.74466 0.35876 0.0
C155 C 0.84399 0.76236 0.3734 0.0
C156 C 0.78238 0.63133 0.38214 0.0
C157 C 0.7294 0.61141 0.36788 0.0
H158 H 0.89291 0.81937 0.37407 0.0
H159 H 0.78198 0.58614 0.39034 0.0
H160 H 0.05438 0.83961 0.37372 0.0
H161 H 0.99362 0.66465 0.33366 0.0
H162 H 0.71919 0.64035 0.45056 0.0
H163 H 0.80064 0.78887 0.34873 0.0
H164 H 0.68898 0.55147 0.36525 0.0
C165 C 0.34814 0.9782 0.68822 0.0
C166 C 0.34936 0.01911 0.67254 0.0
N167 N 0.3151 0.05978 0.67681 0.0
N168 N 0.31329 0.99234 0.70254 0.0
C169 C 0.29406 0.04273 0.69518 0.0
H170 H 0.36964 0.93886 0.68898 0.0
Co171 Co 0.29062 0.93963 0.72597 0.0
C172 C 0.16599 0.95913 0.74206 0.0
O173 O 0.13103 0.88637 0.74679 0.0
N174 N 0.26862 0.88785 0.74956 0.0
C175 C 0.23736 0.80614 0.77354 0.0
C176 C 0.24712 0.81482 0.75435 0.0
C177 C 0.27405 0.92257 0.76628 0.0
N178 N 0.25398 0.874 0.78101 0.0
O179 O 0.38572 1.01763 0.73641 0.0
H180 H 0.23859 0.7696 0.74484 0.0
H181 H 0.28967 0.98212 0.7675 0.0
O182 O 0.23172 0.98955 0.73402 0.0
C183 C 0.42579 0.98475 0.73499 0.0
O184 O 0.39517 0.91796 0.72653 0.0
N185 N 0.20679 0.85842 0.71479 0.0
C186 C 0.10962 0.73638 0.69225 0.0
C187 C 0.09338 0.79482 0.69632 0.0
C188 C 0.14428 0.85698 0.7072 0.0
C189 C 0.22312 0.80219 0.71066 0.0
C190 C 0.17444 0.7396 0.69979 0.0
H191 H 0.13616 0.90573 0.70823 0.0
H192 H 0.27668 0.8078 0.71498 0.0
H193 H 0.26276 0.06439 0.70289 0.0
H194 H 0.37376 0.01873 0.65899 0.0
H195 H 0.21933 0.75377 0.78137 0.0
H196 H 0.04612 0.7963 0.68958 0.0
H197 H 0.19048 0.69751 0.69603 0.0
C198 C 0.70753 0.69109 0.61573 0.0
C199 C 0.7004 0.72886 0.6311 0.0
N200 N 0.76422 0.79789 0.63264 0.0
N201 N 0.77523 0.73598 0.60728 0.0
C202 C 0.80885 0.80071 0.61802 0.0
H203 H 0.66574 0.6343 0.611 0.0
Co204 Co 0.81008 0.70812 0.58548 0.0
C205 C 0.9388 0.85466 0.57115 0.0
O206 O 0.97563 0.8181 0.56731 0.0
N207 N 0.84528 0.68136 0.5635 0.0
C208 C 0.8905 0.63371 0.54204 0.0
C209 C 0.87769 0.63747 0.56095 0.0
C210 C 0.83875 0.70292 0.54589 0.0
N211 N 0.8658 0.67491 0.53257 0.0
O212 O 0.71981 0.69016 0.57176 0.0
H213 H 0.89052 0.60857 0.57189 0.0
H214 H 0.81484 0.73922 0.54296 0.0
O215 O 0.87139 0.81797 0.57826 0.0
C216 C 0.68018 0.61669 0.57072 0.0
O217 O 0.7089 0.57694 0.57804 0.0
N218 N 0.88666 0.70973 0.59972 0.0
C219 C 0.96865 0.67463 0.62482 0.0
C220 C 0.99581 0.75094 0.61937 0.0
C221 C 0.95274 0.76773 0.607 0.0
C222 C 0.85976 0.63588 0.60523 0.0
C223 C 0.90046 0.6167 0.61747 0.0
H224 H 0.97043 0.82688 0.60432 0.0
H225 H 0.80519 0.59116 0.6003 0.0
H226 H 0.86435 0.84959 0.61502 0.0
H227 H 0.65193 0.70689 0.64053 0.0
H228 H 0.91389 0.60105 0.53575 0.0
H229 H 0.04654 0.79747 0.62576 0.0
H230 H 0.87678 0.55779 0.62199 0.0
C231 C 0.11284 0.82531 0.94705 0.0
C232 C 0.06645 0.79974 0.96273 0.0
N233 N 1.00832 0.81325 0.96022 0.0
N234 N 0.08396 0.85427 0.93452 0.0
C235 C 1.02026 0.84642 0.94301 0.0
H236 H 0.16386 0.82193 0.94478 0.0
Co237 Co 0.12458 0.89106 0.91022 0.0
C238 C 1.02483 0.94772 0.89559 0.0
O239 O 1.0087 0.90359 0.88067 0.0
N240 N 0.16444 0.92887 0.88598 0.0
C241 C 0.21749 1.01027 0.86211 0.0
C242 C 0.19284 1.00228 0.88042 0.0
C243 C 0.17286 0.89352 0.87073 0.0
N244 N 0.20492 0.94172 0.85601 0.0
O245 O 0.04751 0.7948 0.89991 0.0
H246 H 0.19502 0.04733 0.88914 0.0
H247 H 0.15673 0.8338 0.87037 0.0
O248 O 0.06591 0.94369 0.90865 0.0
C249 C 0.0827 0.75663 0.90078 0.0
O250 O 0.15473 0.79324 0.90596 0.0
N251 N 0.20554 0.97616 0.92082 0.0
C252 C 0.3193 0.04496 0.94721 0.0
C253 C 0.2573 0.05795 0.94745 0.0
C254 C 0.19953 0.02144 0.93413 0.0
C255 C 0.27141 0.97429 0.91855 0.0
C256 C 0.32974 1.00881 0.93169 0.0
H257 H 0.14633 0.02065 0.93617 0.0
H258 H 0.27448 0.93704 0.90807 0.0
H259 H 0.98189 0.86229 0.9365 0.0
H260 H 0.07461 0.77289 0.97503 0.0
H261 H 0.24135 0.06225 0.85384 0.0
H262 H 0.24729 0.08482 0.95949 0.0
H263 H 0.37653 0.99729 0.93128 0.0
C264 C 0.39183 0.05157 0.28527 0.0
C265 C 0.35308 1.01184 0.30117 0.0
N266 N 0.27772 0.9727 0.29734 0.0
N267 N 0.34175 0.03816 0.27126 0.0
C268 C 0.2725 0.98944 0.27903 0.0
H269 H 0.45278 0.08957 0.28413 0.0
Co270 Co 0.36999 0.08959 0.24769 0.0
C271 C 0.22473 0.06778 0.23195 0.0
O272 O 0.26162 0.1404 0.22708 0.0
N273 N 0.39778 0.14016 0.22392 0.0
C274 C 0.44438 0.22093 0.19968 0.0
C275 C 0.44676 0.21355 0.21889 0.0
C276 C 0.36841 0.1041 0.20736 0.0
N277 N 0.39447 0.15201 0.19245 0.0
O278 O 0.38753 1.01149 0.2375 0.0
H279 H 0.48188 0.26006 0.22827 0.0
H280 H 0.32728 0.04357 0.20637 0.0
O281 O 0.26091 0.03824 0.23997 0.0
C282 C 0.46063 0.04483 0.23824 0.0
O283 O 0.49802 0.114 0.24545 0.0
N284 N 0.36689 0.17073 0.25874 0.0
C285 C 0.39215 0.28966 0.28247 0.0
C286 C 0.31743 0.23212 0.27818 0.0
C287 C 0.30595 0.17141 0.26668 0.0
C288 C 0.4395 0.22686 0.26281 0.0
C289 C 0.45358 0.28785 0.27434 0.0
H290 H 0.24912 0.1227 0.26561 0.0
H291 H 0.48736 0.22186 0.25808 0.0
H292 H 0.21898 0.96883 0.27165 0.0
H293 H 0.37876 1.01196 0.31456 0.0
H294 H 0.47516 0.27367 0.19178 0.0
H295 H 0.26892 0.22976 0.28529 0.0
H296 H 0.51175 0.32939 0.27819 0.0
C297 C 0.30141 0.37479 0.61354 0.0
C298 C 0.31511 0.34258 0.62911 0.0
N299 N 0.28715 0.2673 0.62583 0.0
N300 N 0.2646 0.32057 0.60031 0.0
C301 C 0.25713 0.2556 0.60817 0.0
H302 H 0.31601 0.43396 0.61209 0.0
Co303 Co 0.22718 0.33871 0.57746 0.0
C304 C 0.10241 0.18663 0.56591 0.0
O305 O 0.06311 0.22027 0.56175 0.0
N306 N 0.18956 0.35641 0.55429 0.0
C307 C 0.13093 0.38566 0.53193 0.0
C308 C 0.14138 0.38342 0.55095 0.0
C309 C 0.20693 0.34246 0.53683 0.0
N310 N 0.17225 0.35999 0.52303 0.0
O311 O 0.32005 0.35947 0.56503 0.0
H312 H 0.11339 0.39957 0.56136 0.0
H313 H 0.2437 0.31887 0.53427 0.0
O314 O 0.17134 0.22711 0.5719 0.0
C315 C 0.35728 0.43304 0.56434 0.0
O316 O 0.3225 0.46971 0.5699 0.0
N317 N 0.14722 0.33416 0.59091 0.0
C318 C 0.0794 0.36696 0.62035 0.0
C319 C 0.05928 0.29084 0.61655 0.0
C320 C 0.09552 0.27561 0.60189 0.0
C321 C 0.1637 0.4076 0.59404 0.0
C322 C 0.12905 0.42515 0.6084 0.0
H323 H 0.08846 0.21906 0.60089 0.0
H324 H 0.20847 0.4541 0.58617 0.0
H325 H 0.22813 0.20019 0.60134 0.0
H326 H 0.34388 0.37268 0.64186 0.0
H327 H 0.09644 0.40596 0.5252 0.0
H328 H 1.02361 0.24527 0.62624 0.0
H329 H 0.14747 0.48457 0.61145 0.0
C330 C 1.00472 0.38701 0.95062 0.0
C331 C 0.05077 0.38717 0.96495 0.0
N332 N 0.05015 0.32016 0.96458 0.0
N333 N 0.97567 0.32064 0.94095 0.0
C334 C 1.00408 0.28076 0.94994 0.0
H335 H 0.99379 0.43298 0.94739 0.0
Co336 Co 0.91219 0.29523 0.91937 0.0
C337 C 0.9297 0.17508 0.89877 0.0
O338 O 0.85853 0.14536 0.89328 0.0
N339 N 0.84977 0.27062 0.89758 0.0
C340 C 0.75828 0.21978 0.87573 0.0
C341 C 0.77333 0.22915 0.89483 0.0
C342 C 0.87914 0.28805 0.87999 0.0
N343 N 0.82518 0.25713 0.86655 0.0
O344 O 0.98407 0.39227 0.90772 0.0
H345 H 0.73091 0.20336 0.90577 0.0
H346 H 0.93972 0.31754 0.87705 0.0
O347 O 0.96025 0.23631 0.90896 0.0
C348 C 0.95058 0.43187 0.90938 0.0
O349 O 0.88451 0.40033 0.91809 0.0
N350 N 0.83769 0.21072 0.93199 0.0
C351 C 0.72434 0.11065 0.95613 0.0
C352 C 0.77472 0.09044 0.94787 0.0
C353 C 0.83232 0.14216 0.93605 0.0
C354 C 0.78861 0.23051 0.93985 0.0
C355 C 0.73084 0.18098 0.95183 0.0
H356 H 0.8745 0.12839 0.93136 0.0
H357 H 0.79545 0.28616 0.93711 0.0
H358 H 0.99287 0.2247 0.94562 0.0
H359 H 0.08218 0.43303 0.97494 0.0
H360 H 0.70297 0.18611 0.86914 0.0
H361 H 0.77336 0.03778 0.95169 0.0
H362 H 0.69403 0.19894 0.95839 0.0
C363 C 0.71371 0.88722 0.27872 0.0
C364 C 0.74565 0.93221 0.29443 0.0
N365 N 0.81512 0.99092 0.28986 0.0
N366 N 0.76244 0.91631 0.26409 0.0
C367 C 0.82373 0.98016 0.27127 0.0
H368 H 0.65855 0.83554 0.27807 0.0
Co369 Co 0.74136 0.86675 0.24017 0.0
C370 C 0.89412 0.8986 0.2274 0.0
O371 O 0.8624 0.82624 0.2227 0.0
N372 N 0.71845 0.81585 0.21585 0.0
C373 C 0.6898 0.72892 0.1931 0.0
C374 C 0.71332 0.74808 0.21132 0.0
C375 C 0.69749 0.83623 0.19962 0.0
N376 N 0.67866 0.78378 0.18571 0.0
O377 O 0.72012 0.94246 0.2304 0.0
H378 H 0.7267 0.71365 0.22045 0.0
H379 H 0.69419 0.8877 0.19808 0.0
O380 O 0.85248 0.92484 0.23391 0.0
C381 C 0.64734 0.90767 0.23254 0.0
O382 O 0.61306 0.83727 0.23905 0.0
N383 N 0.74744 0.78741 0.25131 0.0
C384 C 0.71678 0.67883 0.2786 0.0
C385 C 0.79177 0.73893 0.27584 0.0
C386 C 0.80577 0.79428 0.26229 0.0
C387 C 0.67585 0.72528 0.25286 0.0
C388 C 0.65953 0.66921 0.26619 0.0
H389 H 0.86042 0.84646 0.26234 0.0
H390 H 0.62934 0.72252 0.24479 0.0
H391 H 0.87437 1.01701 0.26318 0.0
H392 H 0.71912 0.92261 0.30816 0.0
H393 H 0.68228 0.67837 0.18588 0.0
H394 H 0.83649 0.74917 0.2858 0.0
H395 H 0.60087 0.62454 0.26839 0.0
C396 C 0.41884 0.49719 0.07345 0.0
C397 C 0.49915 0.53038 0.07308 0.0
H398 H 0.30956 0.39401 0.07437 0.0
C399 C 0.53028 0.4834 0.0765 0.0
H400 H 0.39269 0.53199 0.07118 0.0
C401 C 0.4821 0.40417 0.07856 0.0
C402 C 0.40187 0.37024 0.07721 0.0
H403 H 0.59151 0.50698 0.07644 0.0
H404 H 0.50813 0.36891 0.08014 0.0
C405 C 0.37072 0.41802 0.07546 0.0
C406 C 0.98059 0.43906 0.41279 0.0
C407 C 0.05751 0.47228 0.40783 0.0
H408 H 0.88796 0.45801 0.41866 0.0
C409 C 0.10325 0.55305 0.40786 0.0
H410 H 0.94421 0.37738 0.41313 0.0
C411 C 0.07129 0.59952 0.41088 0.0
C412 C 0.99293 0.56614 0.41406 0.0
H413 H 0.16346 0.58085 0.4045 0.0
H414 H 0.10687 0.661 0.40939 0.0
C415 C 0.94868 0.48563 0.41595 0.0
C416 C 0.62769 0.12583 0.75019 0.0
C417 C 0.66244 0.0803 0.74875 0.0
H418 H 0.52533 0.13183 0.74692 0.0
C419 C 0.61645 1.00167 0.74568 0.0
H420 H 0.66177 0.18684 0.75278 0.0
C421 C 0.53843 0.9705 0.74237 0.0
C422 C 0.50488 1.01734 0.74203 0.0
H423 H 0.64136 0.96525 0.7445 0.0
H424 H 0.50513 0.90998 0.73913 0.0
C425 C 0.54957 0.09466 0.74683 0.0
C426 C 0.5549 0.6067 0.56242 0.0
C427 C 0.60031 0.57294 0.56398 0.0
H428 H 0.44174 0.58818 0.5607 0.0
C429 C 0.56573 0.49263 0.56186 0.0
H430 H 0.5797 0.6681 0.56384 0.0
C431 C 0.48652 0.44633 0.56041 0.0
C432 C 0.44042 0.47958 0.56081 0.0
H433 H 0.59947 0.46471 0.5626 0.0
H434 H 0.46142 0.38465 0.56029 0.0
C435 C 0.47568 0.56042 0.56074 0.0
C436 C 0.93609 0.54582 0.90301 0.0
C437 C 0.98317 0.51254 0.90311 0.0
H438 H 0.93 0.64904 0.90197 0.0
C439 C 0.06089 0.55918 0.89922 0.0
H440 H 0.8754 0.51124 0.90565 0.0
C441 C 0.09176 0.63826 0.89691 0.0
C442 C 0.04565 0.67235 0.89846 0.0
H443 H 0.09846 0.53549 0.89907 0.0
H444 H 0.15284 0.67334 0.89493 0.0
C445 C 0.96696 0.62484 0.90072 0.0
C446 C 0.63254 0.0232 0.22924 0.0
C447 C 0.60008 0.94365 0.22956 0.0
H448 H 0.61297 0.11739 0.23139 0.0
C449 C 0.5197 0.89722 0.22962 0.0
H450 H 0.69393 0.06031 0.22909 0.0
C451 C 0.47294 0.92961 0.2311 0.0
C452 C 0.50582 1.00903 0.23253 0.0
H453 H 0.49275 0.83535 0.22957 0.0
H454 H 0.41176 0.89246 0.23231 0.0
C455 C 0.58581 0.05556 0.2307 0.0
C456 C 0.32071 0.96578 0.97314 0.0
C457 C 0.34986 0.03961 0.96548 0.0
H458 H 0.28194 0.89799 -0.00174 0.0
C459 C 0.3846 0.10364 0.97728 0.0
H460 H 0.29283 0.91553 0.96419 0.0
C461 C 0.38062 0.09338 -0.00327 0.0
C462 C 0.33972 0.01913 0.00435 0.0
H463 H 0.40644 0.16071 0.9716 0.0
H464 H 0.39992 0.14325 0.0057 0.0
C465 C 0.31424 0.95543 -0.00742 0.0
C466 C 0.41272 0.33137 0.33317 0.0
C467 C 0.36749 0.36537 0.33467 0.0
H468 H 0.4596 0.28331 0.31438 0.0
C469 C 0.35075 0.39486 0.31859 0.0
H470 H 0.42608 0.30867 0.34551 0.0
C471 C 0.36857 0.37934 0.30084 0.0
C472 C 0.40441 0.3358 0.29928 0.0
H473 H 0.31556 0.42118 0.31957 0.0
H474 H 0.3468 0.39348 0.28846 0.0
C475 C 0.43211 0.31745 0.31543 0.0
C476 C 0.1338 0.42124 0.65123 0.0
C477 C 0.06938 0.38702 0.63943 0.0
H478 H 0.17414 0.43397 0.67963 0.0
C479 C 0.9963 0.35677 0.647 0.0
H480 H 0.1907 0.44413 0.64547 0.0
C481 C 0.98725 0.35313 0.66645 0.0
C482 C 0.05116 0.37763 0.67824 0.0
H483 H 0.94638 0.32981 0.638 0.0
H484 H 0.92993 0.32264 0.67216 0.0
C485 C 0.12465 0.41568 0.67067 0.0
C486 C 0.66928 0.05597 0.00596 0.0
C487 C 0.63451 0.97625 0.00439 0.0
H488 H 0.72405 0.16232 -0.00879 0.0
C489 C 0.61161 0.94116 0.98663 0.0
H490 H 0.68668 0.08373 0.01959 0.0
C491 C 0.63328 0.98582 0.97044 0.0
C492 C 0.67705 0.0656 0.97198 0.0
H493 H 0.58476 0.87956 0.98513 0.0
H494 H 0.62245 0.95814 0.95678 0.0
C495 C 0.69013 0.10064 -0.01024 0.0
C496 C 0.73042 0.61 0.30572 0.0
C497 C 0.69526 0.64729 0.29753 0.0
H498 H 0.76876 0.58558 0.33138 0.0
C499 C 0.65706 0.67465 0.30888 0.0
H500 H 0.76078 0.58962 0.29711 0.0
C501 C 0.66341 0.67453 0.32837 0.0
C502 C 0.70596 0.64496 0.33648 0.0
H503 H 0.63055 0.70469 0.30269 0.0
H504 H 0.64134 0.70358 0.33693 0.0
C505 C 0.73494 0.60799 0.32522 0.0
C506 C 0.99258 0.64666 0.67513 0.0
C507 C 0.07224 0.68711 0.67607 0.0
H508 H 0.89599 0.60903 0.65716 0.0
C509 C 0.1157 0.70105 0.65958 0.0
H510 H 0.9586 0.63554 0.68778 0.0
C511 C 0.08037 0.68777 0.64212 0.0
C512 C 1.00166 0.65875 0.64125 0.0
H513 H 0.17751 0.73237 0.66011 0.0
H514 H 0.11511 0.70808 0.62951 0.0
C515 C 0.95711 0.63185 0.65765 0.0
C516 C 0.99471 0.97739 0.06414 0.0
C517 C 1.02469 0.03356 0.07845 0.0
H518 H 0.89568 0.87885 0.05273 0.0
C519 C 0.976 0.02877 0.09314 0.0
H520 H 0.03067 0.97849 0.05272 0.0
C521 C 0.89905 0.97157 0.09317 0.0
C522 C 0.86834 0.91686 0.07861 0.0
H523 H 0.99692 0.07013 0.10453 0.0
H524 H 0.86287 0.97146 0.10444 0.0
C525 C 0.91746 0.91944 0.06426 0.0
C526 C 0.9872 0.06226 0.40667 0.0
C527 C 0.06716 0.10283 0.40705 0.0
H528 H 0.88527 0.95284 0.40727 0.0
C529 C 0.10601 0.06128 0.40823 0.0
H530 H 0.95563 0.09239 0.40568 0.0
C531 C 0.06578 0.98098 0.40879 0.0
C532 C 0.98576 0.9405 0.40859 0.0
H533 H 0.16777 0.09074 0.40836 0.0
H534 H 0.09725 0.95068 0.40947 0.0
C535 C 0.94702 0.98217 0.40763 0.0
C536 C 1.00324 1.00133 0.74661 0.0
C537 C 0.04247 0.08162 0.7466 0.0
H538 H 1.01176 0.89972 0.74554 0.0
C539 C 0.12277 0.12121 0.74504 0.0
H540 H 0.94161 0.96925 0.74771 0.0
C541 C 0.16288 0.08175 0.74347 0.0
C542 C 0.12396 1.00159 0.7438 0.0
H543 H 0.15504 0.18321 0.74476 0.0
H544 H 0.22444 0.11407 0.74215 0.0
C545 C 0.04366 0.96174 0.74544 0.0
C546 C 0.94086 0.97999 0.56872 0.0
C547 C 0.98027 0.93946 0.56944 0.0
H548 H 0.94843 0.08927 0.56671 0.0
C549 C 0.06073 0.9809 0.56876 0.0
H550 H 0.8791 0.94992 0.56924 0.0
C551 C 0.10084 0.06107 0.56762 0.0
C552 C 0.06136 0.10156 0.56671 0.0
H553 H 0.09302 0.95146 0.56944 0.0
H554 H 0.16263 0.09127 0.56738 0.0
C555 C 0.98087 0.05996 0.56718 0.0
C556 C 0.03315 0.06634 0.91015 0.0
C557 C 1.00416 1.00904 0.8961 0.0
H558 H 0.03484 0.16568 0.92175 0.0
C559 C 0.95738 1.01268 0.88201 0.0
H560 H 0.07019 0.06614 0.9211 0.0
C561 C 0.9376 0.06988 0.88236 0.0
C562 C 0.9644 0.12564 0.89671 0.0
H563 H 0.93473 0.97042 0.87083 0.0
H564 H 0.89926 0.06912 0.8716 0.0
C565 C 1.01382 0.12424 0.9104 0.0
C566 C 0.09981 0.94448 0.23069 0.0
C567 C 0.14027 0.02466 0.23049 0.0
H568 H 0.99098 0.8424 0.2296 0.0
C569 C 0.09908 0.0639 0.22929 0.0
H570 H 0.12969 0.91266 0.23167 0.0
C571 C 1.01907 0.02369 0.22845 0.0
C572 C 0.97876 0.9434 0.22834 0.0
H573 H 0.12864 0.12591 0.22931 0.0
H574 H 0.98893 0.0553 0.22772 0.0
C575 C 1.02018 0.9044 0.22943 0.0
C576 C 0.05974 0.22396 0.98461 0.0
C577 C 0.09297 0.29807 0.97687 0.0
H578 H 0.07405 0.1474 0.00317 0.0
C579 C 0.16856 0.3517 0.98183 0.0
H580 H 1.00146 0.18166 0.98114 0.0
C581 C 0.21026 0.33178 -0.00597 0.0
C582 C 0.17694 0.25827 0.00205 0.0
H583 H 0.19575 0.40907 0.97606 0.0
H584 H 0.26852 0.37434 -0.00255 0.0
C585 C 0.10096 0.2046 -0.0027 0.0
C586 C 0.96329 0.1854 0.30855 0.0
C587 C 0.96063 0.17237 0.32817 0.0
H588 H 0.92026 0.1385 0.28103 0.0
C589 C 0.91214 0.09737 0.33469 0.0
H590 H 1.00064 0.2419 0.30287 0.0
C591 C 0.86602 0.03807 0.32212 0.0
C592 C 0.86726 0.05146 0.30255 0.0
H593 H 0.90819 0.08474 0.34961 0.0
H594 H 0.82895 0.98148 0.32779 0.0
C595 C 0.91767 0.1258 0.29593 0.0
C596 C 0.71776 0.86652 0.65272 0.0
C597 C 0.77814 0.85639 0.64657 0.0
H598 H 0.68173 0.92864 0.67042 0.0
C599 C 0.85078 0.9028 0.65468 0.0
H600 H 0.66129 0.83224 0.64675 0.0
C601 C 0.8622 0.95749 0.66868 0.0
C602 C 0.80166 0.96819 0.67449 0.0
H603 H 0.89834 0.89604 0.65037 0.0
H604 H 0.91859 0.99274 0.67461 0.0
C605 C 0.7295 0.92193 0.66627 0.0
C606 C 0.848 0.69763 -0.00591 0.0
C607 C 0.82156 0.74825 -0.00149 0.0
H608 H 0.92863 0.67918 0.97869 0.0
C609 C 0.85755 0.82108 -0.01001 0.0
H610 H 0.82162 0.64134 0.00046 0.0
C611 C 0.91773 0.84204 0.97708 0.0
C612 C 0.9446 0.79148 0.97289 0.0
H613 H 0.83804 0.86103 -0.00695 0.0
H614 H 0.94421 0.89817 0.97062 0.0
C615 C 0.90933 0.71933 0.98168 0.0
C616 C 0.22584 0.93728 0.33001 0.0
C617 C 0.21671 0.92448 0.31036 0.0
H618 H 0.17865 0.89954 0.3577 0.0
C619 C 0.14783 0.86222 0.30386 0.0
H620 H 0.2774 0.98518 0.33562 0.0
C621 C 0.09113 0.8129 0.31659 0.0
C622 C 0.101 0.82471 0.33626 0.0
H623 H 0.1385 0.85028 0.28891 0.0
H624 H 0.03938 0.76521 0.31099 0.0
C625 C 0.16875 0.88848 0.34274 0.0
C626 C 0.29824 0.0973 0.64441 0.0
C627 C 0.30322 0.10955 0.66409 0.0
H628 H 0.28879 0.13675 0.61695 0.0
C629 C 0.29898 0.1728 0.67091 0.0
H630 H 0.30004 0.04871 0.63856 0.0
C631 C 0.29261 0.22353 0.65843 0.0
C632 C 0.28938 0.21224 0.63872 0.0
H633 H 0.30266 0.18436 0.68589 0.0
H634 H 0.29033 0.27188 0.66427 0.0
C635 C 0.29102 0.14754 0.63195 0.0
C636 C 0.388 0.16671 0.13977 0.0
C637 C 0.31482 0.10547 0.13563 0.0
H638 H 0.47155 0.22843 0.16104 0.0
C639 C 0.26921 0.05867 0.15043 0.0
H640 H 0.42488 0.20308 0.12864 0.0
C641 C 0.29573 0.07325 0.16897 0.0
C642 C 0.3687 0.13486 0.17318 0.0
H643 H 0.21211 1.01182 0.14776 0.0
H644 H 0.258 0.03735 0.18003 0.0
C645 C 0.41473 0.18115 0.15834 0.0
C646 C 0.13098 0.35004 0.47127 0.0
C647 C 0.19999 0.36263 0.46343 0.0
H648 H 0.06768 0.33814 0.49638 0.0
C649 C 0.25809 0.36958 0.47556 0.0
H650 H 0.08525 0.34486 0.46237 0.0
C651 C 0.24822 0.36632 0.49511 0.0
C652 C 0.18016 0.35637 0.50294 0.0
H653 H 0.31149 0.37815 0.46996 0.0
H654 H 0.29482 0.37413 0.50408 0.0
C655 C 0.12123 0.34701 0.49079 0.0
C656 C 0.80403 0.18608 0.83675 0.0
C657 C 0.8396 0.25528 0.84682 0.0
H658 H 0.80017 0.12813 0.81117 0.0
C659 C 0.89567 0.32169 0.83795 0.0
H660 H 0.76133 0.13391 0.84348 0.0
C661 C 0.91744 0.31901 0.81947 0.0
C662 C 0.88473 0.24927 0.80947 0.0
H663 H 0.92341 0.37566 0.84549 0.0
H664 H 0.96049 0.37196 0.8132 0.0
C665 C 0.82669 0.18294 0.81826 0.0
C666 C 0.66221 0.85212 0.15854 0.0
C667 C 0.65074 0.78395 0.16696 0.0
H668 H 0.65182 0.90556 0.13338 0.0
C669 C 0.61319 0.71546 0.15649 0.0
H670 H 0.69095 0.90595 0.16607 0.0
C671 C 0.59205 0.71579 0.13783 0.0
C672 C 0.60621 0.78409 0.12926 0.0
H673 H 0.60082 0.66129 0.16254 0.0
H674 H 0.56566 0.66273 0.1299 0.0
C675 C 0.63968 0.85204 0.13986 0.0
C676 C 0.80299 0.69986 0.48472 0.0
C677 C 0.85187 0.68842 0.47283 0.0
H678 H 0.76823 0.70352 0.51288 0.0
C679 C 0.90852 0.6768 0.48094 0.0
H680 H 0.75951 0.71013 0.47892 0.0
C681 C 0.91417 0.67384 0.50055 0.0
C682 C 0.86348 0.68274 0.51242 0.0
H683 H 0.94677 0.66746 0.47215 0.0
H684 H 0.95779 0.6639 0.50639 0.0
C685 C 0.80862 0.69696 0.50425 0.0
C686 C 0.28872 0.96436 0.80765 0.0
C687 C 0.24512 0.88997 0.80033 0.0
H688 H 0.31129 0.03883 0.83119 0.0
C689 C 0.19022 0.83213 0.81193 0.0
H690 H 0.33231 1.00986 0.79917 0.0
C691 C 0.17786 0.84875 0.83027 0.0
C692 C 0.22027 0.92357 0.83745 0.0
H693 H 0.15491 0.77448 0.80664 0.0
H694 H 0.13341 0.80335 0.83857 0.0
C695 C 0.27653 0.98096 0.82599 0.0
loop_
_geom_bond_atom_site_label_1
_geom_bond_atom_site_label_2
_geom_bond_distance
_geom_bond_site_symmetry_2
_ccdc_geom_bond_type
C0 C1 1.351 . S
C0 N3 1.368 . S
C0 H5 0.931 . S
C1 C0 1.351 . S
C1 N2 1.373 . S
C1 H29 0.930 . S
N2 C1 1.373 . S
N2 C4 1.340 . S
N3 C0 1.368 . S
N3 C4 1.321 . S
N3 Co6 2.135 . S
C4 N2 1.340 . S
C4 N3 1.321 . S
C4 H28 0.930 . S
H5 C0 0.931 . S
Co6 N3 2.135 . S
Co6 N9 2.121 . S
Co6 O14 2.055 . S
Co6 O17 2.039 . S
Co6 N20 2.140 . S
C7 O8 1.227 . S
C7 O17 1.265 . S
O8 C7 1.227 . S
N9 Co6 2.121 . S
N9 C11 1.375 . S
N9 C12 1.313 . S
C10 C11 1.338 . S
C10 N13 1.377 . S
C10 H30 0.930 . S
C11 N9 1.375 . S
C11 C10 1.338 . S
C11 H15 0.931 . S
C12 N9 1.313 . S
C12 N13 1.344 . S
C12 H16 0.930 . S
N13 C10 1.377 . S
N13 C12 1.344 . S
O14 Co6 2.055 . S
O14 C18 1.253 . S
H15 C11 0.931 . S
H16 C12 0.930 . S
O17 Co6 2.039 . S
O17 C7 1.265 . S
C18 O14 1.253 . S
C18 O19 1.227 . S
O19 C18 1.227 . S
N20 Co6 2.140 . S
N20 C23 1.346 . S
N20 C24 1.345 . S
C21 C22 1.387 . S
C21 C25 1.391 . S
C22 C21 1.387 . S
C22 C23 1.369 . S
C22 H31 0.929 . S
C23 N20 1.346 . S
C23 C22 1.369 . S
C23 H26 0.928 . S
C24 N20 1.345 . S
C24 C25 1.371 . S
C24 H27 0.931 . S
C25 C21 1.391 . S
C25 C24 1.371 . S
C25 H32 0.930 . S
H26 C23 0.928 . S
H27 C24 0.931 . S
H28 C4 0.930 . S
H29 C1 0.930 . S
H30 C10 0.930 . S
H31 C22 0.929 . S
H32 C25 0.930 . S
C33 C34 1.351 1_455 S
C33 N36 1.368 . S
C33 H38 0.931 . S
C34 C33 1.351 1_655 S
C34 N35 1.373 . S
C34 H62 0.930 . S
N35 C34 1.373 . S
N35 C37 1.340 . S
N36 C33 1.368 . S
N36 C37 1.321 1_455 S
N36 Co39 2.135 . S
C37 N35 1.340 . S
C37 N36 1.321 1_655 S
C37 H61 0.930 . S
H38 C33 0.931 . S
Co39 N36 2.135 . S
Co39 N42 2.121 . S
Co39 O47 2.055 . S
Co39 O50 2.039 . S
Co39 N53 2.140 . S
C40 O41 1.227 . S
C40 O50 1.265 . S
O41 C40 1.227 . S
N42 Co39 2.121 . S
N42 C44 1.375 . S
N42 C45 1.313 . S
C43 C44 1.338 . S
C43 N46 1.377 . S
C43 H63 0.930 . S
C44 N42 1.375 . S
C44 C43 1.338 . S
C44 H48 0.931 . S
C45 N42 1.313 . S
C45 N46 1.344 . S
C45 H49 0.930 . S
N46 C43 1.377 . S
N46 C45 1.344 . S
O47 Co39 2.055 . S
O47 C51 1.253 . S
H48 C44 0.931 . S
H49 C45 0.930 . S
O50 Co39 2.039 . S
O50 C40 1.265 . S
C51 O47 1.253 . S
C51 O52 1.227 . S
O52 C51 1.227 . S
N53 Co39 2.140 . S
N53 C56 1.346 . S
N53 C57 1.345 . S
C54 C55 1.387 . S
C54 C58 1.391 . S
C55 C54 1.387 . S
C55 C56 1.369 . S
C55 H64 0.929 . S
C56 N53 1.346 . S
C56 C55 1.369 . S
C56 H59 0.928 . S
C57 N53 1.345 . S
C57 C58 1.371 . S
C57 H60 0.931 . S
C58 C54 1.391 . S
C58 C57 1.371 . S
C58 H65 0.930 . S
H59 C56 0.928 . S
H60 C57 0.931 . S
H61 C37 0.930 . S
H62 C34 0.930 . S
H63 C43 0.930 . S
H64 C55 0.929 . S
H65 C58 0.930 . S
C66 C67 1.351 1_545 S
C66 N69 1.368 . S
C66 H71 0.931 . S
C67 C66 1.351 1_565 S
C67 N68 1.373 . S
C67 H95 0.930 . S
N68 C67 1.373 . S
N68 C70 1.340 . S
N69 C66 1.368 . S
N69 C70 1.321 1_545 S
N69 Co72 2.135 . S
C70 N68 1.340 . S
C70 N69 1.321 1_565 S
C70 H94 0.930 . S
H71 C66 0.931 . S
Co72 N69 2.135 . S
Co72 N75 2.121 . S
Co72 O80 2.055 . S
Co72 O83 2.039 . S
Co72 N86 2.140 . S
C73 O74 1.227 . S
C73 O83 1.265 . S
O74 C73 1.227 . S
N75 Co72 2.121 . S
N75 C77 1.375 . S
N75 C78 1.313 . S
C76 C77 1.338 . S
C76 N79 1.377 . S
C76 H96 0.930 . S
C77 N75 1.375 . S
C77 C76 1.338 . S
C77 H81 0.931 . S
C78 N75 1.313 . S
C78 N79 1.344 . S
C78 H82 0.930 . S
N79 C76 1.377 . S
N79 C78 1.344 . S
O80 Co72 2.055 . S
O80 C84 1.253 . S
H81 C77 0.931 . S
H82 C78 0.930 . S
O83 Co72 2.039 . S
O83 C73 1.265 . S
C84 O80 1.253 . S
C84 O85 1.227 . S
O85 C84 1.227 . S
N86 Co72 2.140 . S
N86 C89 1.346 . S
N86 C90 1.345 . S
C87 C88 1.387 . S
C87 C91 1.391 . S
C88 C87 1.387 . S
C88 C89 1.369 . S
C88 H97 0.929 . S
C89 N86 1.346 . S
C89 C88 1.369 . S
C89 H92 0.928 . S
C90 N86 1.345 . S
C90 C91 1.371 . S
C90 H93 0.931 . S
C91 C87 1.391 . S
C91 C90 1.371 . S
C91 H98 0.930 . S
H92 C89 0.928 . S
H93 C90 0.931 . S
H94 C70 0.930 . S
H95 C67 0.930 . S
H96 C76 0.930 . S
H97 C88 0.929 . S
H98 C91 0.930 . S
C99 C100 1.351 . S
C99 N102 1.368 . S
C99 H104 0.931 . S
C100 C99 1.351 . S
C100 N101 1.373 . S
C100 H128 0.930 . S
N101 C100 1.373 . S
N101 C103 1.340 . S
N102 C99 1.368 . S
N102 C103 1.321 . S
N102 Co105 2.135 . S
C103 N101 1.340 . S
C103 N102 1.321 . S
C103 H127 0.930 . S
H104 C99 0.931 . S
Co105 N102 2.135 . S
Co105 N108 2.121 . S
Co105 O113 2.055 . S
Co105 O116 2.039 . S
Co105 N119 2.140 . S
C106 O107 1.227 . S
C106 O116 1.265 . S
O107 C106 1.227 . S
N108 Co105 2.121 . S
N108 C110 1.375 . S
N108 C111 1.313 . S
C109 C110 1.338 . S
C109 N112 1.377 . S
C109 H129 0.930 . S
C110 N108 1.375 . S
C110 C109 1.338 . S
C110 H114 0.931 . S
C111 N108 1.313 . S
C111 N112 1.344 . S
C111 H115 0.930 . S
N112 C109 1.377 . S
N112 C111 1.344 . S
O113 Co105 2.055 . S
O113 C117 1.253 . S
H114 C110 0.931 . S
H115 C111 0.930 . S
O116 Co105 2.039 . S
O116 C106 1.265 . S
C117 O113 1.253 . S
C117 O118 1.227 . S
O118 C117 1.227 . S
N119 Co105 2.140 . S
N119 C122 1.346 . S
N119 C123 1.345 . S
C120 C121 1.387 . S
C120 C124 1.391 . S
C121 C120 1.387 . S
C121 C122 1.369 . S
C121 H130 0.929 . S
C122 N119 1.346 . S
C122 C121 1.369 . S
C122 H125 0.928 . S
C123 N119 1.345 . S
C123 C124 1.371 . S
C123 H126 0.931 . S
C124 C120 1.391 . S
C124 C123 1.371 . S
C124 H131 0.930 . S
H125 C122 0.928 . S
H126 C123 0.931 . S
H127 C103 0.930 . S
H128 C100 0.930 . S
H129 C109 0.930 . S
H130 C121 0.929 . S
H131 C124 0.930 . S
C132 C133 1.351 1_655 S
C132 N135 1.368 . S
C132 H137 0.931 . S
C133 C132 1.351 1_455 S
C133 N134 1.373 . S
C133 H161 0.930 . S
N134 C133 1.373 . S
N134 C136 1.340 . S
N135 C132 1.368 . S
N135 C136 1.321 1_655 S
N135 Co138 2.135 . S
C136 N134 1.340 . S
C136 N135 1.321 1_455 S
C136 H160 0.930 . S
H137 C132 0.931 . S
Co138 N135 2.135 . S
Co138 N141 2.121 . S
Co138 O146 2.055 . S
Co138 O149 2.039 . S
Co138 N152 2.140 . S
C139 O140 1.227 . S
C139 O149 1.265 . S
O140 C139 1.227 . S
N141 Co138 2.121 . S
N141 C143 1.375 . S
N141 C144 1.313 . S
C142 C143 1.338 . S
C142 N145 1.377 . S
C142 H162 0.930 . S
C143 N141 1.375 . S
C143 C142 1.338 . S
C143 H147 0.931 . S
C144 N141 1.313 . S
C144 N145 1.344 . S
C144 H148 0.930 . S
N145 C142 1.377 . S
N145 C144 1.344 . S
O146 Co138 2.055 . S
O146 C150 1.253 . S
H147 C143 0.931 . S
H148 C144 0.930 . S
O149 Co138 2.039 . S
O149 C139 1.265 . S
C150 O146 1.253 . S
C150 O151 1.227 . S
O151 C150 1.227 . S
N152 Co138 2.140 . S
N152 C155 1.346 . S
N152 C156 1.345 . S
C153 C154 1.387 . S
C153 C157 1.391 . S
C154 C153 1.387 . S
C154 C155 1.369 . S
C154 H163 0.929 . S
C155 N152 1.346 . S
C155 C154 1.369 . S
C155 H158 0.928 . S
C156 N152 1.345 . S
C156 C157 1.371 . S
C156 H159 0.931 . S
C157 C153 1.391 . S
C157 C156 1.371 . S
C157 H164 0.930 . S
H158 C155 0.928 . S
H159 C156 0.931 . S
H160 C136 0.930 . S
H161 C133 0.930 . S
H162 C142 0.930 . S
H163 C154 0.929 . S
H164 C157 0.930 . S
C165 C166 1.351 1_565 S
C165 N168 1.368 . S
C165 H170 0.931 . S
C166 C165 1.351 1_545 S
C166 N167 1.373 . S
C166 H194 0.930 . S
N167 C166 1.373 . S
N167 C169 1.340 . S
N168 C165 1.368 . S
N168 C169 1.321 1_565 S
N168 Co171 2.135 . S
C169 N167 1.340 . S
C169 N168 1.321 1_545 S
C169 H193 0.930 . S
H170 C165 0.931 . S
Co171 N168 2.135 . S
Co171 N174 2.121 . S
Co171 O179 2.055 . S
Co171 O182 2.039 . S
Co171 N185 2.140 . S
C172 O173 1.227 . S
C172 O182 1.265 . S
O173 C172 1.227 . S
N174 Co171 2.121 . S
N174 C176 1.375 . S
N174 C177 1.313 . S
C175 C176 1.338 . S
C175 N178 1.377 . S
C175 H195 0.930 . S
C176 N174 1.375 . S
C176 C175 1.338 . S
C176 H180 0.931 . S
C177 N174 1.313 . S
C177 N178 1.344 . S
C177 H181 0.930 . S
N178 C175 1.377 . S
N178 C177 1.344 . S
O179 Co171 2.055 . S
O179 C183 1.253 . S
H180 C176 0.931 . S
H181 C177 0.930 . S
O182 Co171 2.039 . S
O182 C172 1.265 . S
C183 O179 1.253 . S
C183 O184 1.227 . S
O184 C183 1.227 . S
N185 Co171 2.140 . S
N185 C188 1.346 . S
N185 C189 1.345 . S
C186 C187 1.387 . S
C186 C190 1.391 . S
C187 C186 1.387 . S
C187 C188 1.369 . S
C187 H196 0.929 . S
C188 N185 1.346 . S
C188 C187 1.369 . S
C188 H191 0.928 . S
C189 N185 1.345 . S
C189 C190 1.371 . S
C189 H192 0.931 . S
C190 C186 1.391 . S
C190 C189 1.371 . S
C190 H197 0.930 . S
H191 C188 0.928 . S
H192 C189 0.931 . S
H193 C169 0.930 . S
H194 C166 0.930 . S
H195 C175 0.930 . S
H196 C187 0.929 . S
H197 C190 0.930 . S
C198 C199 1.351 . S
C198 N201 1.368 . S
C198 H203 0.931 . S
C199 C198 1.351 . S
C199 N200 1.373 . S
C199 H227 0.930 . S
N200 C199 1.373 . S
N200 C202 1.340 . S
N201 C198 1.368 . S
N201 C202 1.321 . S
N201 Co204 2.135 . S
C202 N200 1.340 . S
C202 N201 1.321 . S
C202 H226 0.930 . S
H203 C198 0.931 . S
Co204 N201 2.135 . S
Co204 N207 2.121 . S
Co204 O212 2.055 . S
Co204 O215 2.039 . S
Co204 N218 2.140 . S
C205 O206 1.227 . S
C205 O215 1.265 . S
O206 C205 1.227 . S
N207 Co204 2.121 . S
N207 C209 1.375 . S
N207 C210 1.313 . S
C208 C209 1.338 . S
C208 N211 1.377 . S
C208 H228 0.930 . S
C209 N207 1.375 . S
C209 C208 1.338 . S
C209 H213 0.931 . S
C210 N207 1.313 . S
C210 N211 1.344 . S
C210 H214 0.930 . S
N211 C208 1.377 . S
N211 C210 1.344 . S
O212 Co204 2.055 . S
O212 C216 1.253 . S
H213 C209 0.931 . S
H214 C210 0.930 . S
O215 Co204 2.039 . S
O215 C205 1.265 . S
C216 O212 1.253 . S
C216 O217 1.227 . S
O217 C216 1.227 . S
N218 Co204 2.140 . S
N218 C221 1.346 . S
N218 C222 1.345 . S
C219 C220 1.387 . S
C219 C223 1.391 . S
C220 C219 1.387 . S
C220 C221 1.369 . S
C220 H229 0.929 . S
C221 N218 1.346 . S
C221 C220 1.369 . S
C221 H224 0.928 . S
C222 N218 1.345 . S
C222 C223 1.371 . S
C222 H225 0.931 . S
C223 C219 1.391 . S
C223 C222 1.371 . S
C223 H230 0.930 . S
H224 C221 0.928 . S
H225 C222 0.931 . S
H226 C202 0.930 . S
H227 C199 0.930 . S
H228 C208 0.930 . S
H229 C220 0.929 . S
H230 C223 0.930 . S
C231 C232 1.351 1_455 S
C231 N234 1.368 . S
C231 H236 0.931 . S
C232 C231 1.351 1_655 S
C232 N233 1.373 . S
C232 H260 0.930 . S
N233 C232 1.373 . S
N233 C235 1.340 . S
N234 C231 1.368 . S
N234 C235 1.321 1_455 S
N234 Co237 2.135 . S
C235 N233 1.340 . S
C235 N234 1.321 1_655 S
C235 H259 0.930 . S
H236 C231 0.931 . S
Co237 N234 2.135 . S
Co237 N240 2.121 . S
Co237 O245 2.055 . S
Co237 O248 2.039 . S
Co237 N251 2.140 . S
C238 O239 1.227 . S
C238 O248 1.265 . S
O239 C238 1.227 . S
N240 Co237 2.121 . S
N240 C242 1.375 . S
N240 C243 1.313 . S
C241 C242 1.338 . S
C241 N244 1.377 . S
C241 H261 0.930 . S
C242 N240 1.375 . S
C242 C241 1.338 . S
C242 H246 0.931 . S
C243 N240 1.313 . S
C243 N244 1.344 . S
C243 H247 0.930 . S
N244 C241 1.377 . S
N244 C243 1.344 . S
O245 Co237 2.055 . S
O245 C249 1.253 . S
H246 C242 0.931 . S
H247 C243 0.930 . S
O248 Co237 2.039 . S
O248 C238 1.265 . S
C249 O245 1.253 . S
C249 O250 1.227 . S
O250 C249 1.227 . S
N251 Co237 2.140 . S
N251 C254 1.346 . S
N251 C255 1.345 . S
C252 C253 1.387 . S
C252 C256 1.391 . S
C253 C252 1.387 . S
C253 C254 1.369 . S
C253 H262 0.929 . S
C254 N251 1.346 . S
C254 C253 1.369 . S
C254 H257 0.928 . S
C255 N251 1.345 . S
C255 C256 1.371 . S
C255 H258 0.931 . S
C256 C252 1.391 . S
C256 C255 1.371 . S
C256 H263 0.930 . S
H257 C254 0.928 . S
H258 C255 0.931 . S
H259 C235 0.930 . S
H260 C232 0.930 . S
H261 C241 0.930 . S
H262 C253 0.929 . S
H263 C256 0.930 . S
C264 C265 1.351 1_545 S
C264 N267 1.368 . S
C264 H269 0.931 . S
C265 C264 1.351 1_565 S
C265 N266 1.373 . S
C265 H293 0.930 . S
N266 C265 1.373 . S
N266 C268 1.340 . S
N267 C264 1.368 . S
N267 C268 1.321 1_545 S
N267 Co270 2.135 . S
C268 N266 1.340 . S
C268 N267 1.321 1_565 S
C268 H292 0.930 . S
H269 C264 0.931 . S
Co270 N267 2.135 . S
Co270 N273 2.121 . S
Co270 O278 2.055 . S
Co270 O281 2.039 . S
Co270 N284 2.140 . S
C271 O272 1.227 . S
C271 O281 1.265 . S
O272 C271 1.227 . S
N273 Co270 2.121 . S
N273 C275 1.375 . S
N273 C276 1.313 . S
C274 C275 1.338 . S
C274 N277 1.377 . S
C274 H294 0.930 . S
C275 N273 1.375 . S
C275 C274 1.338 . S
C275 H279 0.931 . S
C276 N273 1.313 . S
C276 N277 1.344 . S
C276 H280 0.930 . S
N277 C274 1.377 . S
N277 C276 1.344 . S
O278 Co270 2.055 . S
O278 C282 1.253 . S
H279 C275 0.931 . S
H280 C276 0.930 . S
O281 Co270 2.039 . S
O281 C271 1.265 . S
C282 O278 1.253 . S
C282 O283 1.227 . S
O283 C282 1.227 . S
N284 Co270 2.140 . S
N284 C287 1.346 . S
N284 C288 1.345 . S
C285 C286 1.387 . S
C285 C289 1.391 . S
C286 C285 1.387 . S
C286 C287 1.369 . S
C286 H295 0.929 . S
C287 N284 1.346 . S
C287 C286 1.369 . S
C287 H290 0.928 . S
C288 N284 1.345 . S
C288 C289 1.371 . S
C288 H291 0.931 . S
C289 C285 1.391 . S
C289 C288 1.371 . S
C289 H296 0.930 . S
H290 C287 0.928 . S
H291 C288 0.931 . S
H292 C268 0.930 . S
H293 C265 0.930 . S
H294 C274 0.930 . S
H295 C286 0.929 . S
H296 C289 0.930 . S
C297 C298 1.351 . S
C297 N300 1.368 . S
C297 H302 0.931 . S
C298 C297 1.351 . S
C298 N299 1.373 . S
C298 H326 0.930 . S
N299 C298 1.373 . S
N299 C301 1.340 . S
N300 C297 1.368 . S
N300 C301 1.321 . S
N300 Co303 2.135 . S
C301 N299 1.340 . S
C301 N300 1.321 . S
C301 H325 0.930 . S
H302 C297 0.931 . S
Co303 N300 2.135 . S
Co303 N306 2.121 . S
Co303 O311 2.055 . S
Co303 O314 2.039 . S
Co303 N317 2.140 . S
C304 O305 1.227 . S
C304 O314 1.265 . S
O305 C304 1.227 . S
N306 Co303 2.121 . S
N306 C308 1.375 . S
N306 C309 1.313 . S
C307 C308 1.338 . S
C307 N310 1.377 . S
C307 H327 0.930 . S
C308 N306 1.375 . S
C308 C307 1.338 . S
C308 H312 0.931 . S
C309 N306 1.313 . S
C309 N310 1.344 . S
C309 H313 0.930 . S
N310 C307 1.377 . S
N310 C309 1.344 . S
O311 Co303 2.055 . S
O311 C315 1.253 . S
H312 C308 0.931 . S
H313 C309 0.930 . S
O314 Co303 2.039 . S
O314 C304 1.265 . S
C315 O311 1.253 . S
C315 O316 1.227 . S
O316 C315 1.227 . S
N317 Co303 2.140 . S
N317 C320 1.346 . S
N317 C321 1.345 . S
C318 C319 1.387 . S
C318 C322 1.391 . S
C319 C318 1.387 . S
C319 C320 1.369 . S
C319 H328 0.929 . S
C320 N317 1.346 . S
C320 C319 1.369 . S
C320 H323 0.928 . S
C321 N317 1.345 . S
C321 C322 1.371 . S
C321 H324 0.931 . S
C322 C318 1.391 . S
C322 C321 1.371 . S
C322 H329 0.930 . S
H323 C320 0.928 . S
H324 C321 0.931 . S
H325 C301 0.930 . S
H326 C298 0.930 . S
H327 C307 0.930 . S
H328 C319 0.929 . S
H329 C322 0.930 . S
C330 C331 1.351 1_655 S
C330 N333 1.368 . S
C330 H335 0.931 . S
C331 C330 1.351 1_455 S
C331 N332 1.373 . S
C331 H359 0.930 . S
N332 C331 1.373 . S
N332 C334 1.340 . S
N333 C330 1.368 . S
N333 C334 1.321 1_655 S
N333 Co336 2.135 . S
C334 N332 1.340 . S
C334 N333 1.321 1_455 S
C334 H358 0.930 . S
H335 C330 0.931 . S
Co336 N333 2.135 . S
Co336 N339 2.121 . S
Co336 O344 2.055 . S
Co336 O347 2.039 . S
Co336 N350 2.140 . S
C337 O338 1.227 . S
C337 O347 1.265 . S
O338 C337 1.227 . S
N339 Co336 2.121 . S
N339 C341 1.375 . S
N339 C342 1.313 . S
C340 C341 1.338 . S
C340 N343 1.377 . S
C340 H360 0.930 . S
C341 N339 1.375 . S
C341 C340 1.338 . S
C341 H345 0.931 . S
C342 N339 1.313 . S
C342 N343 1.344 . S
C342 H346 0.930 . S
N343 C340 1.377 . S
N343 C342 1.344 . S
O344 Co336 2.055 . S
O344 C348 1.253 . S
H345 C341 0.931 . S
H346 C342 0.930 . S
O347 Co336 2.039 . S
O347 C337 1.265 . S
C348 O344 1.253 . S
C348 O349 1.227 . S
O349 C348 1.227 . S
N350 Co336 2.140 . S
N350 C353 1.346 . S
N350 C354 1.345 . S
C351 C352 1.387 . S
C351 C355 1.391 . S
C352 C351 1.387 . S
C352 C353 1.369 . S
C352 H361 0.929 . S
C353 N350 1.346 . S
C353 C352 1.369 . S
C353 H356 0.928 . S
C354 N350 1.345 . S
C354 C355 1.371 . S
C354 H357 0.931 . S
C355 C351 1.391 . S
C355 C354 1.371 . S
C355 H362 0.930 . S
H356 C353 0.928 . S
H357 C354 0.931 . S
H358 C334 0.930 . S
H359 C331 0.930 . S
H360 C340 0.930 . S
H361 C352 0.929 . S
H362 C355 0.930 . S
C363 C364 1.351 1_565 S
C363 N366 1.368 . S
C363 H368 0.931 . S
C364 C363 1.351 1_545 S
C364 N365 1.373 . S
C364 H392 0.930 . S
N365 C364 1.373 . S
N365 C367 1.340 . S
N366 C363 1.368 . S
N366 C367 1.321 1_565 S
N366 Co369 2.135 . S
C367 N365 1.340 . S
C367 N366 1.321 1_545 S
C367 H391 0.930 . S
H368 C363 0.931 . S
Co369 N366 2.135 . S
Co369 N372 2.121 . S
Co369 O377 2.055 . S
Co369 O380 2.039 . S
Co369 N383 2.140 . S
C370 O371 1.227 . S
C370 O380 1.265 . S
O371 C370 1.227 . S
N372 Co369 2.121 . S
N372 C374 1.375 . S
N372 C375 1.313 . S
C373 C374 1.338 . S
C373 N376 1.377 . S
C373 H393 0.930 . S
C374 N372 1.375 . S
C374 C373 1.338 . S
C374 H378 0.931 . S
C375 N372 1.313 . S
C375 N376 1.344 . S
C375 H379 0.930 . S
N376 C373 1.377 . S
N376 C375 1.344 . S
O377 Co369 2.055 . S
O377 C381 1.253 . S
H378 C374 0.931 . S
H379 C375 0.930 . S
O380 Co369 2.039 . S
O380 C370 1.265 . S
C381 O377 1.253 . S
C381 O382 1.227 . S
O382 C381 1.227 . S
N383 Co369 2.140 . S
N383 C386 1.346 . S
N383 C387 1.345 . S
C384 C385 1.387 . S
C384 C388 1.391 . S
C385 C384 1.387 . S
C385 C386 1.369 . S
C385 H394 0.929 . S
C386 N383 1.346 . S
C386 C385 1.369 . S
C386 H389 0.928 . S
C387 N383 1.345 . S
C387 C388 1.371 . S
C387 H390 0.931 . S
C388 C384 1.391 . S
C388 C387 1.371 . S
C388 H395 0.930 . S
H389 C386 0.928 . S
H390 C387 0.931 . S
H391 C367 0.930 . S
H392 C364 0.930 . S
H393 C373 0.930 . S
H394 C385 0.929 . S
H395 C388 0.930 . S
C396 C397 1.387 . S
C396 H400 0.950 . S
C396 C405 1.390 . S
C397 C396 1.387 . S
C397 C399 1.387 . S
H398 C405 0.950 . S
C399 C397 1.387 . S
C399 C401 1.390 . S
C399 H403 0.950 . S
H400 C396 0.950 . S
C401 C399 1.390 . S
C401 C402 1.387 . S
C401 H404 0.950 . S
C402 C401 1.387 . S
C402 C405 1.387 . S
H403 C399 0.950 . S
H404 C401 0.950 . S
C405 C396 1.390 . S
C405 H398 0.950 . S
C405 C402 1.387 . S
C406 C407 1.387 . S
C406 H410 0.950 . S
C406 C415 1.390 1_455 S
C407 C406 1.387 . S
C407 C409 1.387 . S
H408 C415 0.950 . S
C409 C407 1.387 . S
C409 C411 1.390 1_455 S
C409 H413 0.950 . S
H410 C406 0.950 . S
C411 C409 1.390 1_655 S
C411 C412 1.387 . S
C411 H414 0.950 . S
C412 C411 1.387 . S
C412 C415 1.387 . S
H413 C409 0.950 . S
H414 C411 0.950 . S
C415 C406 1.390 1_655 S
C415 H408 0.950 . S
C415 C412 1.387 . S
C416 C417 1.387 . S
C416 H420 0.950 . S
C416 C425 1.390 1_545 S
C417 C416 1.387 . S
C417 C419 1.387 . S
H418 C425 0.950 . S
C419 C417 1.387 . S
C419 C421 1.390 1_545 S
C419 H423 0.950 . S
H420 C416 0.950 . S
C421 C419 1.390 1_565 S
C421 C422 1.387 . S
C421 H424 0.950 . S
C422 C421 1.387 . S
C422 C425 1.387 . S
H423 C419 0.950 . S
H424 C421 0.950 . S
C425 C416 1.390 1_565 S
C425 H418 0.950 . S
C425 C422 1.387 . S
C426 C427 1.387 . S
C426 H430 0.950 . S
C426 C435 1.390 . S
C427 C426 1.387 . S
C427 C429 1.387 . S
H428 C435 0.950 . S
C429 C427 1.387 . S
C429 C431 1.390 . S
C429 H433 0.950 . S
H430 C426 0.950 . S
C431 C429 1.390 . S
C431 C432 1.387 . S
C431 H434 0.950 . S
C432 C431 1.387 . S
C432 C435 1.387 . S
H433 C429 0.950 . S
H434 C431 0.950 . S
C435 C426 1.390 . S
C435 H428 0.950 . S
C435 C432 1.387 . S
C436 C437 1.387 . S
C436 H440 0.950 . S
C436 C445 1.390 1_655 S
C437 C436 1.387 . S
C437 C439 1.387 . S
H438 C445 0.950 . S
C439 C437 1.387 . S
C439 C441 1.390 1_655 S
C439 H443 0.950 . S
H440 C436 0.950 . S
C441 C439 1.390 1_455 S
C441 C442 1.387 . S
C441 H444 0.950 . S
C442 C441 1.387 . S
C442 C445 1.387 . S
H443 C439 0.950 . S
H444 C441 0.950 . S
C445 C436 1.390 1_455 S
C445 H438 0.950 . S
C445 C442 1.387 . S
C446 C447 1.387 . S
C446 H450 0.950 . S
C446 C455 1.390 1_565 S
C447 C446 1.387 . S
C447 C449 1.387 . S
H448 C455 0.950 . S
C449 C447 1.387 . S
C449 C451 1.390 1_565 S
C449 H453 0.950 . S
H450 C446 0.950 . S
C451 C449 1.390 1_545 S
C451 C452 1.387 . S
C451 H454 0.950 . S
C452 C451 1.387 . S
C452 C455 1.387 . S
H453 C449 0.950 . S
H454 C451 0.950 . S
C455 C446 1.390 1_545 S
C455 H448 0.950 . S
C455 C452 1.387 . S
C456 C457 1.387 . S
C456 H460 0.950 . S
C456 C465 1.390 1_566 S
C457 C456 1.387 . S
C457 C459 1.387 . S
H458 C465 0.950 . S
C459 C457 1.387 . S
C459 C461 1.390 1_566 S
C459 H463 0.950 . S
H460 C456 0.950 . S
C461 C459 1.390 1_544 S
C461 C462 1.387 . S
C461 H464 0.950 . S
C462 C461 1.387 . S
C462 C465 1.387 . S
H463 C459 0.950 . S
H464 C461 0.950 . S
C465 C456 1.390 1_544 S
C465 H458 0.950 . S
C465 C462 1.387 . S
C466 C467 1.387 . S
C466 H470 0.950 . S
C466 C475 1.390 . S
C467 C466 1.387 . S
C467 C469 1.387 . S
H468 C475 0.950 . S
C469 C467 1.387 . S
C469 C471 1.390 . S
C469 H473 0.950 . S
H470 C466 0.950 . S
C471 C469 1.390 . S
C471 C472 1.387 . S
C471 H474 0.950 . S
C472 C471 1.387 . S
C472 C475 1.387 . S
H473 C469 0.950 . S
H474 C471 0.950 . S
C475 C466 1.390 . S
C475 H468 0.950 . S
C475 C472 1.387 . S
C476 C477 1.387 . S
C476 H480 0.950 . S
C476 C485 1.390 . S
C477 C476 1.387 . S
C477 C479 1.387 1_455 S
H478 C485 0.950 . S
C479 C477 1.387 1_655 S
C479 C481 1.390 . S
C479 H483 0.950 . S
H480 C476 0.950 . S
C481 C479 1.390 . S
C481 C482 1.387 . S
C481 H484 0.950 . S
C482 C481 1.387 . S
C482 C485 1.387 1_655 S
H483 C479 0.950 . S
H484 C481 0.950 . S
C485 C476 1.390 . S
C485 H478 0.950 . S
C485 C482 1.387 1_455 S
C486 C487 1.387 . S
C486 H490 0.950 . S
C486 C495 1.390 1_564 S
C487 C486 1.387 . S
C487 C489 1.387 . S
H488 C495 0.950 . S
C489 C487 1.387 . S
C489 C491 1.390 1_564 S
C489 H493 0.950 . S
H490 C486 0.950 . S
C491 C489 1.390 1_546 S
C491 C492 1.387 . S
C491 H494 0.950 . S
C492 C491 1.387 . S
C492 C495 1.387 . S
H493 C489 0.950 . S
H494 C491 0.950 . S
C495 C486 1.390 1_546 S
C495 H488 0.950 . S
C495 C492 1.387 . S
C496 C497 1.387 . S
C496 H500 0.950 . S
C496 C505 1.390 . S
C497 C496 1.387 . S
C497 C499 1.387 . S
H498 C505 0.950 . S
C499 C497 1.387 . S
C499 C501 1.390 . S
C499 H503 0.950 . S
H500 C496 0.950 . S
C501 C499 1.390 . S
C501 C502 1.387 . S
C501 H504 0.950 . S
C502 C501 1.387 . S
C502 C505 1.387 . S
H503 C499 0.950 . S
H504 C501 0.950 . S
C505 C496 1.390 . S
C505 H498 0.950 . S
C505 C502 1.387 . S
C506 C507 1.387 1_655 S
C506 H510 0.950 . S
C506 C515 1.390 . S
C507 C506 1.387 1_455 S
C507 C509 1.387 . S
H508 C515 0.950 . S
C509 C507 1.387 . S
C509 C511 1.390 . S
C509 H513 0.950 . S
H510 C506 0.950 . S
C511 C509 1.390 . S
C511 C512 1.387 1_455 S
C511 H514 0.950 . S
C512 C511 1.387 1_655 S
C512 C515 1.387 . S
H513 C509 0.950 . S
H514 C511 0.950 . S
C515 C506 1.390 . S
C515 H508 0.950 . S
C515 C512 1.387 . S
C516 C517 1.387 . S
C516 H520 0.950 . S
C516 C525 1.390 1_445 S
C517 C516 1.387 . S
C517 C519 1.387 . S
H518 C525 0.950 . S
C519 C517 1.387 . S
C519 C521 1.390 1_445 S
C519 H523 0.950 . S
H520 C516 0.950 . S
C521 C519 1.390 1_665 S
C521 C522 1.387 . S
C521 H524 0.950 . S
C522 C521 1.387 . S
C522 C525 1.387 . S
H523 C519 0.950 . S
H524 C521 0.950 . S
C525 C516 1.390 1_665 S
C525 H518 0.950 . S
C525 C522 1.387 . S
C526 C527 1.387 . S
C526 H530 0.950 . S
C526 C535 1.390 1_445 S
C527 C526 1.387 . S
C527 C529 1.387 . S
H528 C535 0.950 . S
C529 C527 1.387 . S
C529 C531 1.390 1_445 S
C529 H533 0.950 . S
H530 C526 0.950 . S
C531 C529 1.390 1_665 S
C531 C532 1.387 . S
C531 H534 0.950 . S
C532 C531 1.387 . S
C532 C535 1.387 . S
H533 C529 0.950 . S
H534 C531 0.950 . S
C535 C526 1.390 1_665 S
C535 H528 0.950 . S
C535 C532 1.387 . S
C536 C537 1.387 . S
C536 H540 0.950 . S
C536 C545 1.390 1_645 S
C537 C536 1.387 . S
C537 C539 1.387 . S
H538 C545 0.950 . S
C539 C537 1.387 . S
C539 C541 1.390 1_645 S
C539 H543 0.950 . S
H540 C536 0.950 . S
C541 C539 1.390 1_465 S
C541 C542 1.387 . S
C541 H544 0.950 . S
C542 C541 1.387 . S
C542 C545 1.387 . S
H543 C539 0.950 . S
H544 C541 0.950 . S
C545 C536 1.390 1_465 S
C545 H538 0.950 . S
C545 C542 1.387 . S
C546 C547 1.387 . S
C546 H550 0.950 . S
C546 C555 1.390 1_665 S
C547 C546 1.387 . S
C547 C549 1.387 . S
H548 C555 0.950 . S
C549 C547 1.387 . S
C549 C551 1.390 1_665 S
C549 H553 0.950 . S
H550 C546 0.950 . S
C551 C549 1.390 1_445 S
C551 C552 1.387 . S
C551 H554 0.950 . S
C552 C551 1.387 . S
C552 C555 1.387 . S
H553 C549 0.950 . S
H554 C551 0.950 . S
C555 C546 1.390 1_445 S
C555 H548 0.950 . S
C555 C552 1.387 . S
C556 C557 1.387 . S
C556 H560 0.950 . S
C556 C565 1.390 1_465 S
C557 C556 1.387 . S
C557 C559 1.387 . S
H558 C565 0.950 . S
C559 C557 1.387 . S
C559 C561 1.390 1_465 S
C559 H563 0.950 . S
H560 C556 0.950 . S
C561 C559 1.390 1_645 S
C561 C562 1.387 . S
C561 H564 0.950 . S
C562 C561 1.387 . S
C562 C565 1.387 . S
H563 C559 0.950 . S
H564 C561 0.950 . S
C565 C556 1.390 1_645 S
C565 H558 0.950 . S
C565 C562 1.387 . S
C566 C567 1.387 . S
C566 H570 0.950 . S
C566 C575 1.390 1_445 S
C567 C566 1.387 . S
C567 C569 1.387 . S
H568 C575 0.950 . S
C569 C567 1.387 . S
C569 C571 1.390 1_445 S
C569 H573 0.950 . S
H570 C566 0.950 . S
C571 C569 1.390 1_665 S
C571 C572 1.387 . S
C571 H574 0.950 . S
C572 C571 1.387 . S
C572 C575 1.387 . S
H573 C569 0.950 . S
H574 C571 0.950 . S
C575 C566 1.390 1_665 S
C575 H568 0.950 . S
C575 C572 1.387 . S
C576 C577 1.387 . S
C576 H580 0.950 . S
C576 C585 1.390 1_556 S
C577 C576 1.387 . S
C577 C579 1.387 . S
H578 C585 0.950 . S
C579 C577 1.387 . S
C579 C581 1.390 1_556 S
C579 H583 0.950 . S
H580 C576 0.950 . S
C581 C579 1.390 1_554 S
C581 C582 1.387 . S
C581 H584 0.950 . S
C582 C581 1.387 . S
C582 C585 1.387 . S
H583 C579 0.950 . S
H584 C581 0.950 . S
C585 C576 1.390 1_554 S
C585 H578 0.950 . S
C585 C582 1.387 . S
C586 C587 1.387 . S
C586 H590 0.950 . S
C586 C595 1.390 . S
C587 C586 1.387 . S
C587 C589 1.387 . S
H588 C595 0.950 . S
C589 C587 1.387 . S
C589 C591 1.390 . S
C589 H593 0.950 . S
H590 C586 0.950 . S
C591 C589 1.390 . S
C591 C592 1.387 . S
C591 H594 0.950 1_545 S
C592 C591 1.387 . S
C592 C595 1.387 . S
H593 C589 0.950 . S
H594 C591 0.950 1_565 S
C595 C586 1.390 . S
C595 H588 0.950 . S
C595 C592 1.387 . S
C596 C597 1.387 . S
C596 H600 0.950 . S
C596 C605 1.390 . S
C597 C596 1.387 . S
C597 C599 1.387 . S
H598 C605 0.950 . S
C599 C597 1.387 . S
C599 C601 1.390 . S
C599 H603 0.950 . S
H600 C596 0.950 . S
C601 C599 1.390 . S
C601 C602 1.387 . S
C601 H604 0.950 . S
C602 C601 1.387 . S
C602 C605 1.387 . S
H603 C599 0.950 . S
H604 C601 0.950 . S
C605 C596 1.390 . S
C605 H598 0.950 . S
C605 C602 1.387 . S
C606 C607 1.387 . S
C606 H610 0.950 . S
C606 C615 1.390 1_554 S
C607 C606 1.387 . S
C607 C609 1.387 . S
H608 C615 0.950 . S
C609 C607 1.387 . S
C609 C611 1.390 1_554 S
C609 H613 0.950 . S
H610 C606 0.950 . S
C611 C609 1.390 1_556 S
C611 C612 1.387 . S
C611 H614 0.950 . S
C612 C611 1.387 . S
C612 C615 1.387 . S
H613 C609 0.950 . S
H614 C611 0.950 . S
C615 C606 1.390 1_556 S
C615 H608 0.950 . S
C615 C612 1.387 . S
C616 C617 1.387 . S
C616 H620 0.950 . S
C616 C625 1.390 . S
C617 C616 1.387 . S
C617 C619 1.387 . S
H618 C625 0.950 . S
C619 C617 1.387 . S
C619 C621 1.390 . S
C619 H623 0.950 . S
H620 C616 0.950 . S
C621 C619 1.390 . S
C621 C622 1.387 . S
C621 H624 0.950 . S
C622 C621 1.387 . S
C622 C625 1.387 . S
H623 C619 0.950 . S
H624 C621 0.950 . S
C625 C616 1.390 . S
C625 H618 0.950 . S
C625 C622 1.387 . S
C626 C627 1.387 . S
C626 H630 0.950 . S
C626 C635 1.390 . S
C627 C626 1.387 . S
C627 C629 1.387 . S
H628 C635 0.950 . S
C629 C627 1.387 . S
C629 C631 1.390 . S
C629 H633 0.950 . S
H630 C626 0.950 . S
C631 C629 1.390 . S
C631 C632 1.387 . S
C631 H634 0.950 . S
C632 C631 1.387 . S
C632 C635 1.387 . S
H633 C629 0.950 . S
H634 C631 0.950 . S
C635 C626 1.390 . S
C635 H628 0.950 . S
C635 C632 1.387 . S
C636 C637 1.387 . S
C636 H640 0.950 . S
C636 C645 1.390 . S
C637 C636 1.387 . S
C637 C639 1.387 . S
H638 C645 0.950 . S
C639 C637 1.387 . S
C639 C641 1.390 . S
C639 H643 0.950 . S
H640 C636 0.950 . S
C641 C639 1.390 . S
C641 C642 1.387 . S
C641 H644 0.950 . S
C642 C641 1.387 . S
C642 C645 1.387 . S
H643 C639 0.950 . S
H644 C641 0.950 . S
C645 C636 1.390 . S
C645 H638 0.950 . S
C645 C642 1.387 . S
C646 C647 1.387 . S
C646 H650 0.950 . S
C646 C655 1.390 . S
C647 C646 1.387 . S
C647 C649 1.387 . S
H648 C655 0.950 . S
C649 C647 1.387 . S
C649 C651 1.390 . S
C649 H653 0.950 . S
H650 C646 0.950 . S
C651 C649 1.390 . S
C651 C652 1.387 . S
C651 H654 0.950 . S
C652 C651 1.387 . S
C652 C655 1.387 . S
H653 C649 0.950 . S
H654 C651 0.950 . S
C655 C646 1.390 . S
C655 H648 0.950 . S
C655 C652 1.387 . S
C656 C657 1.387 . S
C656 H660 0.950 . S
C656 C665 1.390 . S
C657 C656 1.387 . S
C657 C659 1.387 . S
H658 C665 0.950 . S
C659 C657 1.387 . S
C659 C661 1.390 . S
C659 H663 0.950 . S
H660 C656 0.950 . S
C661 C659 1.390 . S
C661 C662 1.387 . S
C661 H664 0.950 . S
C662 C661 1.387 . S
C662 C665 1.387 . S
H663 C659 0.950 . S
H664 C661 0.950 . S
C665 C656 1.390 . S
C665 H658 0.950 . S
C665 C662 1.387 . S
C666 C667 1.387 . S
C666 H670 0.950 . S
C666 C675 1.390 . S
C667 C666 1.387 . S
C667 C669 1.387 . S
H668 C675 0.950 . S
C669 C667 1.387 . S
C669 C671 1.390 . S
C669 H673 0.950 . S
H670 C666 0.950 . S
C671 C669 1.390 . S
C671 C672 1.387 . S
C671 H674 0.950 . S
C672 C671 1.387 . S
C672 C675 1.387 . S
H673 C669 0.950 . S
H674 C671 0.950 . S
C675 C666 1.390 . S
C675 H668 0.950 . S
C675 C672 1.387 . S
C676 C677 1.387 . S
C676 H680 0.950 . S
C676 C685 1.390 . S
C677 C676 1.387 . S
C677 C679 1.387 . S
H678 C685 0.950 . S
C679 C677 1.387 . S
C679 C681 1.390 . S
C679 H683 0.950 . S
H680 C676 0.950 . S
C681 C679 1.390 . S
C681 C682 1.387 . S
C681 H684 0.950 . S
C682 C681 1.387 . S
C682 C685 1.387 . S
H683 C679 0.950 . S
H684 C681 0.950 . S
C685 C676 1.390 . S
C685 H678 0.950 . S
C685 C682 1.387 . S
C686 C687 1.387 . S
C686 H690 0.950 . S
C686 C695 1.390 . S
C687 C686 1.387 . S
C687 C689 1.387 . S
H688 C695 0.950 . S
C689 C687 1.387 . S
C689 C691 1.390 . S
C689 H693 0.950 . S
H690 C686 0.950 . S
C691 C689 1.390 . S
C691 C692 1.387 . S
C691 H694 0.950 . S
C692 C691 1.387 . S
C692 C695 1.387 . S
H693 C689 0.950 . S
H694 C691 0.950 . S
C695 C686 1.390 . S
C695 H688 0.950 . S
C695 C692 1.387 . S
C397 C117 1.539 . S
C402 C18 1.539 . S
C407 C51 1.541 . S
C412 C150 1.541 . S
C417 C84 1.540 . S
C422 C183 1.540 . S
C427 C216 1.540 . S
C432 C315 1.540 . S
C437 C348 1.539 . S
C442 C249 1.539 . S
C447 C381 1.540 . S
C452 C282 1.540 . S
C457 C252 1.188 . S
C462 C21 1.188 . S
C467 C54 1.192 . S
C472 C285 1.190 . S
C477 C318 1.187 . S
C482 C87 1.190 . S
C487 C120 1.188 . S
C492 C351 1.188 . S
C497 C384 1.189 . S
C502 C153 1.187 . S
C507 C186 1.190 . S
C512 C219 1.187 . S
C517 C7 1.369 . S
C522 C106 1.369 . S
C527 C40 1.368 . S
C532 C139 1.368 . S
C537 C73 1.368 . S
C542 C172 1.368 . S
C547 C205 1.368 . S
C552 C304 1.368 . S
C557 C238 1.369 . S
C562 C337 1.369 . S
C567 C271 1.369 . S
C572 C370 1.370 . S
C577 N332 0.964 . S
C582 N2 0.964 . S
C587 N35 0.961 . S
C592 N365 0.962 . S
C597 N200 0.961 . S
C602 N68 0.961 . S
C607 N101 0.961 . S
C612 N233 0.961 . S
C617 N266 0.962 . S
C622 N134 0.964 . S
C627 N167 0.961 . S
C632 N299 0.962 . S
C637 N13 1.840 . S
C642 N277 1.839 . S
C647 N46 1.839 . S
C652 N310 1.839 . S
C657 N343 1.837 . S
C662 N79 1.840 . S
C667 N376 1.839 . S
C672 N112 1.837 . S
C677 N145 1.838 . S
C682 N211 1.838 . S
C687 N178 1.840 . S
C692 N244 1.837 . S
