# Generated by pormake.
# Topology uoc, (4)-cn, num edge types: 1
# Building blocks:
#     Node 0, Type 0, BuildingBlock: CEKHIL_clean_sbu_0, # of connection points: 4
#     Node 1, Type 0, BuildingBlock: CEKHIL_clean_sbu_0, # of connection points: 4
#     Node 2, Type 0, BuildingBlock: CEKHIL_clean_sbu_0, # of connection points: 4
#     Node 3, Type 0, BuildingBlock: CEKHIL_clean_sbu_0, # of connection points: 4
#     Node 4, Type 0, BuildingBlock: CEKHIL_clean_sbu_0, # of connection points: 4
#     Node 5, Type 0, BuildingBlock: CEKHIL_clean_sbu_0, # of connection points: 4
#     Node 6, Type 0, BuildingBlock: CEKHIL_clean_sbu_0, # of connection points: 4
#     Node 7, Type 0, BuildingBlock: CEKHIL_clean_sbu_0, # of connection points: 4
#     Edge 8, Type (0, 0), BuildingBlock: XIVTED_clean_linker_0, # of connection points: 2
#     Edge 9, Type (0, 0), BuildingBlock: XIVTED_clean_linker_0, # of connection points: 2
#     Edge 10, Type (0, 0), BuildingBlock: XIVTED_clean_linker_0, # of connection points: 2
#     Edge 11, Type (0, 0), BuildingBlock: XIVTED_clean_linker_0, # of connection points: 2
#     Edge 12, Type (0, 0), BuildingBlock: XIVTED_clean_linker_0, # of connection points: 2
#     Edge 13, Type (0, 0), BuildingBlock: XIVTED_clean_linker_0, # of connection points: 2
#     Edge 14, Type (0, 0), BuildingBlock: XIVTED_clean_linker_0, # of connection points: 2
#     Edge 15, Type (0, 0), BuildingBlock: XIVTED_clean_linker_0, # of connection points: 2
#     Edge 16, Type (0, 0), BuildingBlock: XIVTED_clean_linker_0, # of connection points: 2
#     Edge 17, Type (0, 0), BuildingBlock: XIVTED_clean_linker_0, # of connection points: 2
#     Edge 18, Type (0, 0), BuildingBlock: XIVTED_clean_linker_0, # of connection points: 2
#     Edge 19, Type (0, 0), BuildingBlock: XIVTED_clean_linker_0, # of connection points: 2
#     Edge 20, Type (0, 0), BuildingBlock: XIVTED_clean_linker_0, # of connection points: 2
#     Edge 21, Type (0, 0), BuildingBlock: XIVTED_clean_linker_0, # of connection points: 2
#     Edge 22, Type (0, 0), BuildingBlock: XIVTED_clean_linker_0, # of connection points: 2
#     Edge 23, Type (0, 0), BuildingBlock: XIVTED_clean_linker_0, # of connection points: 2
# Relax obj value: 0.097
# Max RMSD: 0.108
# Mean RMSD: 0.108
data_MOF--net-uoc--node1-CEKHIL_clean_sbu_0--edge1-XIVTED_clean_linker_0
_symmetry_space_group_name_H-M    P1
_symmetry_Int_Tables_number       1
_symmetry_cell_setting            triclinic
loop_
_symmetry_equiv_pos_as_xyz
'x, y, z'
_cell_length_a     27.122419
_cell_length_b     27.113204
_cell_length_c     54.903079
_cell_angle_alpha  90.097854
_cell_angle_beta   89.985346
_cell_angle_gamma 92.411181
loop_
_atom_site_label
_atom_site_type_symbol
_atom_site_fract_x
_atom_site_fract_y
_atom_site_fract_z
_atom_type_partial_charge
Co0 Co 0.11392 0.27095 0.10878 0.0
O1 O 0.12111 0.34172 0.10896 0.0
O2 O 0.05543 0.2986 0.12242 0.0
C3 C 0.14049 0.25938 0.07066 0.0
O4 O 0.09238 0.19813 0.11053 0.0
Co5 Co 0.20504 0.20688 0.10362 0.0
O6 O 0.15523 0.15196 0.09898 0.0
C7 C 0.18656 0.25589 0.15029 0.0
C8 C 0.07749 0.34148 0.1187 0.0
C9 C 0.11008 0.15637 0.1047 0.0
O10 O 0.14481 0.26911 0.14203 0.0
O11 O 0.21781 0.23333 0.13736 0.0
O12 O 0.09506 0.27055 0.07462 0.0
O13 O 0.16941 0.26045 0.08939 0.0
Co14 Co 0.76558 0.61457 0.37087 0.0
O15 O 0.83608 0.623 0.3682 0.0
O16 O 0.79281 0.55517 0.35775 0.0
C17 C 0.75904 0.64487 0.40882 0.0
O18 O 0.69279 0.5923 0.37203 0.0
Co19 Co 0.70216 0.70701 0.37641 0.0
O20 O 0.64754 0.65719 0.38191 0.0
C21 C 0.74845 0.68565 0.32953 0.0
C22 C 0.8357 0.57822 0.35982 0.0
C23 C 0.65142 0.61127 0.3776 0.0
O24 O 0.75785 0.64221 0.33712 0.0
O25 O 0.73141 0.71917 0.34322 0.0
O26 O 0.7712 0.5995 0.40548 0.0
O27 O 0.75661 0.67137 0.38937 0.0
Co28 Co 0.38338 0.22995 0.60857 0.0
O29 O 0.37459 0.15935 0.61086 0.0
O30 O 0.44297 0.20212 0.62091 0.0
C31 C 0.35189 0.23752 0.57098 0.0
O32 O 0.40651 0.30265 0.60768 0.0
Co33 Co 0.29242 0.29523 0.60453 0.0
O34 O 0.34249 0.34865 0.59756 0.0
C35 C 0.317 0.25186 0.65184 0.0
C36 C 0.41963 0.15939 0.61884 0.0
C37 C 0.38826 0.34421 0.60187 0.0
O38 O 0.35737 0.23687 0.64268 0.0
O39 O 0.28426 0.27298 0.63924 0.0
O40 O 0.3972 0.22493 0.57389 0.0
O41 O 0.32584 0.23993 0.59065 0.0
Co42 Co 0.73195 0.88003 0.87257 0.0
O43 O 0.66122 0.87107 0.87185 0.0
O44 O 0.70324 0.93835 0.85955 0.0
C45 C 0.74305 0.85202 0.91055 0.0
O46 O 0.80431 0.90368 0.87147 0.0
Co47 Co 0.79866 0.79038 0.87715 0.0
O48 O 0.85237 0.84141 0.88172 0.0
C49 C 0.74976 0.80938 0.83051 0.0
C50 C 0.66073 0.91535 0.8629 0.0
C51 C 0.84669 0.88666 0.87665 0.0
O52 O 0.73581 0.85077 0.83898 0.0
O53 O 0.7724 0.77811 0.84336 0.0
O54 O 0.73002 0.89701 0.90698 0.0
O55 O 0.74394 0.8242 0.89141 0.0
Co56 Co 0.61558 0.76454 0.61007 0.0
O57 O 0.62442 0.83518 0.61216 0.0
O58 O 0.55582 0.7927 0.62206 0.0
C59 C 0.64772 0.75608 0.57268 0.0
O60 O 0.59237 0.69184 0.60928 0.0
Co61 Co 0.70664 0.6991 0.60661 0.0
O62 O 0.65657 0.64576 0.59943 0.0
C63 C 0.68153 0.74388 0.65359 0.0
C64 C 0.57924 0.83537 0.61994 0.0
C65 C 0.61072 0.65025 0.60354 0.0
O66 O 0.64108 0.7583 0.6443 0.0
O67 O 0.7145 0.72265 0.64115 0.0
O68 O 0.60239 0.76887 0.57532 0.0
O69 O 0.67339 0.75409 0.59246 0.0
Co70 Co 0.26688 0.11335 0.87101 0.0
O71 O 0.33767 0.12036 0.87171 0.0
O72 O 0.29505 0.05442 0.85811 0.0
C73 C 0.25356 0.14072 0.90887 0.0
O74 O 0.19418 0.09177 0.86849 0.0
Co75 Co 0.20251 0.20453 0.87507 0.0
O76 O 0.14751 0.15473 0.87938 0.0
C77 C 0.25349 0.18513 0.829 0.0
C78 C 0.33778 0.07635 0.86238 0.0
C79 C 0.15221 0.10949 0.87386 0.0
O80 O 0.26658 0.14356 0.83756 0.0
O81 O 0.23036 0.21652 0.8416 0.0
O82 O 0.26491 0.09521 0.90524 0.0
O83 O 0.25551 0.16927 0.89002 0.0
Co84 Co 0.8842 0.73496 0.1125 0.0
O85 O 0.87485 0.66455 0.11514 0.0
O86 O 0.94282 0.70731 0.12591 0.0
C87 C 0.85516 0.74199 0.07441 0.0
O88 O 0.90759 0.80728 0.1115 0.0
Co89 Co 0.7932 0.79992 0.10673 0.0
O90 O 0.84392 0.85392 0.10154 0.0
C91 C 0.81286 0.75343 0.15366 0.0
C92 C 0.91943 0.66464 0.12372 0.0
C93 C 0.88962 0.84906 0.10599 0.0
O94 O 0.85607 0.74317 0.1461 0.0
O95 O 0.77983 0.77115 0.13995 0.0
O96 O 0.90015 0.72906 0.07804 0.0
O97 O 0.82802 0.74481 0.09367 0.0
Co98 Co 0.23057 0.38408 0.37086 0.0
O99 O 0.16007 0.37475 0.36823 0.0
O100 O 0.20244 0.44348 0.35847 0.0
C101 C 0.2378 0.35247 0.40842 0.0
O102 O 0.30312 0.40774 0.37209 0.0
Co103 Co 0.29632 0.29345 0.37501 0.0
O104 O 0.34926 0.34388 0.3823 0.0
C105 C 0.25353 0.31797 0.32758 0.0
C106 C 0.15985 0.41979 0.3603 0.0
C107 C 0.34468 0.38966 0.37804 0.0
O108 O 0.23823 0.35823 0.33675 0.0
O109 O 0.27459 0.28524 0.34021 0.0
O110 O 0.22494 0.3977 0.40554 0.0
O111 O 0.24068 0.32655 0.38872 0.0
H112 H 0.23032 0.27764 0.04983 0.0
H113 H 0.20166 0.08765 0.94305 0.0
H114 H 0.08857 0.20392 0.03734 0.0
H115 H 0.2665 0.2326 0.92849 0.0
H116 H 0.17249 0.1176 0.98262 0.0
H117 H 0.25767 0.24952 0.00958 0.0
C118 C 0.20514 0.25543 0.0386 0.0
C119 C 0.15719 0.24312 0.04665 0.0
C120 C 0.19313 0.14264 0.97067 0.0
C121 C 0.1884 0.21011 0.00142 0.0
C122 C 0.20994 0.12564 0.94829 0.0
C123 C 0.23638 0.15788 0.93266 0.0
C124 C 0.20433 0.19159 0.97763 0.0
C125 C 0.24599 0.20682 0.94009 0.0
C126 C 0.22061 0.23968 0.01575 0.0
C127 C 0.12571 0.2144 0.03155 0.0
N128 N 0.23048 0.22215 0.96228 0.0
N129 N 0.14211 0.19819 0.00969 0.0
H130 H 0.78824 0.77084 0.3103 0.0
H131 H 0.72754 0.71392 0.17309 0.0
H132 H 0.72765 0.6268 0.29027 0.0
H133 H 0.87193 0.77392 0.19271 0.0
H134 H 0.71045 0.69757 0.21646 0.0
H135 H 0.80326 0.78888 0.26696 0.0
C136 C 0.77787 0.74324 0.29674 0.0
C137 C 0.75699 0.69723 0.30368 0.0
C138 C 0.74571 0.71448 0.21113 0.0
C139 C 0.77271 0.71803 0.25459 0.0
C140 C 0.75536 0.72398 0.18657 0.0
C141 C 0.80123 0.74502 0.17951 0.0
C142 C 0.78159 0.72769 0.2286 0.0
C143 C 0.83627 0.75728 0.19754 0.0
C144 C 0.78655 0.75347 0.27218 0.0
C145 C 0.74424 0.66254 0.28554 0.0
N146 N 0.82555 0.7489 0.22138 0.0
N147 N 0.75182 0.67384 0.26169 0.0
H148 H 0.39084 0.21724 0.5265 0.0
H149 H 0.21706 0.39119 0.45293 0.0
H150 H 0.26968 0.2888 0.56075 0.0
H151 H 0.28911 0.27031 0.41864 0.0
H152 H 0.24214 0.36051 0.49278 0.0
H153 H 0.36034 0.24258 0.48667 0.0
C154 C 0.35777 0.23821 0.52562 0.0
C155 C 0.33274 0.25108 0.5469 0.0
C156 C 0.25217 0.34059 0.47652 0.0
C157 C 0.29813 0.28053 0.50156 0.0
C158 C 0.23809 0.35814 0.45381 0.0
C159 C 0.25119 0.33325 0.43251 0.0
C160 C 0.28032 0.29844 0.47786 0.0
C161 C 0.27826 0.29053 0.43464 0.0
C162 C 0.34032 0.25244 0.50291 0.0
C163 C 0.29 0.2781 0.54476 0.0
N164 N 0.2924 0.2747 0.45695 0.0
N165 N 0.27426 0.2924 0.52246 0.0
H166 H 0.78781 0.73624 0.80238 0.0
H167 H 0.62887 0.80023 0.6849 0.0
H168 H 0.6877 0.85589 0.79962 0.0
H169 H 0.75399 0.70683 0.68236 0.0
H170 H 0.64446 0.81466 0.72813 0.0
H171 H 0.77038 0.71874 0.75945 0.0
C172 C 0.76209 0.75875 0.7928 0.0
C173 C 0.73932 0.79772 0.80464 0.0
C174 C 0.66851 0.79103 0.7181 0.0
C175 C 0.71916 0.77774 0.75556 0.0
C176 C 0.65956 0.78262 0.69341 0.0
C177 C 0.69026 0.75236 0.6799 0.0
C178 C 0.70821 0.76877 0.72948 0.0
C179 C 0.7295 0.73064 0.69199 0.0
C180 C 0.7523 0.74883 0.76828 0.0
C181 C 0.70639 0.82569 0.79125 0.0
N182 N 0.7373 0.73921 0.7161 0.0
N183 N 0.69723 0.81508 0.76746 0.0
H184 H 0.2915 0.24526 0.29907 0.0
H185 H 0.14119 0.3197 0.18072 0.0
H186 H 0.19883 0.37085 0.29579 0.0
H187 H 0.2588 0.21718 0.1787 0.0
H188 H 0.1593 0.33584 0.22352 0.0
H189 H 0.27744 0.23127 0.25555 0.0
C190 C 0.26823 0.26991 0.28924 0.0
C191 C 0.24621 0.30923 0.30117 0.0
C192 C 0.18128 0.30994 0.21371 0.0
C193 C 0.22994 0.29329 0.25141 0.0
C194 C 0.17085 0.30054 0.18926 0.0
C195 C 0.1984 0.26687 0.17608 0.0
C196 C 0.21923 0.28516 0.22523 0.0
C197 C 0.23665 0.24348 0.18813 0.0
C198 C 0.26038 0.26198 0.26438 0.0
C199 C 0.21663 0.34008 0.28742 0.0
N200 N 0.24575 0.25283 0.21209 0.0
N201 N 0.20919 0.33129 0.26333 0.0
H202 H 0.72924 0.70313 0.56319 0.0
H203 H 0.71014 0.72831 0.41916 0.0
H204 H 0.61042 0.7763 0.52792 0.0
H205 H 0.77674 0.60423 0.4533 0.0
H206 H 0.68498 0.75733 0.45933 0.0
H207 H 0.75883 0.67718 0.52314 0.0
C208 C 0.70958 0.71395 0.54702 0.0
C209 C 0.66724 0.74168 0.54879 0.0
C210 C 0.70517 0.72379 0.45798 0.0
C211 C 0.70109 0.71275 0.50318 0.0
C212 C 0.71967 0.70731 0.43512 0.0
C213 C 0.74528 0.66367 0.43295 0.0
C214 C 0.71716 0.69692 0.47881 0.0
C215 C 0.75674 0.63791 0.45421 0.0
C216 C 0.72634 0.69899 0.52425 0.0
C217 C 0.64307 0.75468 0.52731 0.0
N218 N 0.74275 0.65504 0.47633 0.0
N219 N 0.66048 0.74029 0.50535 0.0
H220 H 0.245 0.29055 0.68045 0.0
H221 H 0.31677 0.13844 0.79868 0.0
H222 H 0.36892 0.1957 0.68344 0.0
H223 H 0.21634 0.25789 0.80048 0.0
H224 H 0.33338 0.15621 0.75586 0.0
H225 H 0.23084 0.27624 0.72388 0.0
C226 C 0.26924 0.26673 0.69019 0.0
C227 C 0.30817 0.24421 0.67821 0.0
C228 C 0.30784 0.17865 0.76564 0.0
C229 C 0.29202 0.22764 0.72791 0.0
C230 C 0.29819 0.16843 0.7901 0.0
C231 C 0.26496 0.19661 0.80322 0.0
C232 C 0.28374 0.21701 0.75409 0.0
C233 C 0.24228 0.23523 0.79111 0.0
C234 C 0.26122 0.25873 0.71502 0.0
C235 C 0.33849 0.21391 0.69187 0.0
N236 N 0.25187 0.2441 0.76718 0.0
N237 N 0.32962 0.20634 0.71594 0.0
H238 H 0.89647 0.72163 0.03042 0.0
H239 H 0.72464 0.89408 0.95455 0.0
H240 H 0.77403 0.79384 0.06314 0.0
H241 H 0.7953 0.77091 0.92156 0.0
H242 H 0.75054 0.86557 -0.00533 0.0
H243 H 0.86784 0.74688 0.99017 0.0
C244 C 0.86356 0.74276 0.02911 0.0
C245 C 0.83754 0.75575 0.05008 0.0
C246 C 0.76016 0.84474 0.97863 0.0
C247 C 0.80514 0.78511 0.00432 0.0
C248 C 0.74562 0.86105 0.95577 0.0
C249 C 0.75787 0.83474 0.93477 0.0
C250 C 0.78794 0.8024 0.98042 0.0
C251 C 0.78499 0.79213 0.93733 0.0
C252 C 0.8472 0.75695 0.00618 0.0
C253 C 0.79507 0.78301 0.04741 0.0
N254 N 0.79952 0.77746 0.95978 0.0
N255 N 0.7804 0.79721 0.02493 0.0
H256 H 0.00916 0.15018 0.10918 0.0
H257 H 0.99091 0.85483 0.10865 0.0
H258 H 0.13549 0.05991 0.10049 0.0
H259 H 0.86448 0.94555 0.10187 0.0
H260 H 0.04467 0.92953 0.10824 0.0
H261 H 0.95562 0.07538 0.10922 0.0
C262 C 0.0257 0.11469 0.10733 0.0
C263 C 0.07699 0.11144 0.10485 0.0
C264 C 0.00515 0.93301 0.10678 0.0
C265 C 0.01581 0.02561 0.10491 0.0
C266 C 0.9744 0.89037 0.10707 0.0
C267 C 0.923 0.89378 0.10532 0.0
C268 C 0.9844 0.97947 0.10493 0.0
C269 C 0.90383 0.94096 0.10323 0.0
C270 C 0.99507 0.07199 0.10727 0.0
C271 C 0.0962 0.06433 0.10241 0.0
N272 N 0.93449 0.98188 0.10319 0.0
N273 N 0.06564 0.02332 0.10258 0.0
H274 H 0.14502 0.51719 0.35033 0.0
H275 H 0.85007 0.48033 0.35038 0.0
H276 H 0.06763 0.3757 0.3579 0.0
H277 H 0.9279 0.62187 0.35685 0.0
H278 H 0.92943 0.44121 0.34579 0.0
H279 H 0.06563 0.55587 0.34539 0.0
C280 C 0.11139 0.49421 0.3507 0.0
C281 C 0.11288 0.44327 0.35483 0.0
C282 C 0.92905 0.48089 0.34801 0.0
C283 C 0.02201 0.48717 0.34922 0.0
C284 C 0.88377 0.50322 0.35055 0.0
C285 C 0.88244 0.55433 0.3543 0.0
C286 C 0.97319 0.50995 0.3491 0.0
C287 C 0.92723 0.58225 0.35429 0.0
C288 C 0.06608 0.51629 0.34795 0.0
C289 C 0.06816 0.41522 0.35504 0.0
N290 N 0.97075 0.55969 0.3519 0.0
N291 N 0.02456 0.43756 0.35244 0.0
H292 H 0.36153 0.43989 0.59648 0.0
H293 H 0.6376 0.55456 0.59845 0.0
H294 H 0.48961 0.35209 0.60516 0.0
H295 H 0.50921 0.64247 0.60573 0.0
H296 H 0.58394 0.48028 0.59718 0.0
H297 H 0.41518 0.51426 0.5961 0.0
C298 C 0.40096 0.4361 0.59823 0.0
C299 C 0.42099 0.38942 0.60093 0.0
C300 C 0.56749 0.51579 0.59906 0.0
C301 C 0.48272 0.47492 0.60047 0.0
C302 C 0.59809 0.55839 0.59972 0.0
C303 C 0.57797 0.60507 0.60228 0.0
C304 C 0.51621 0.51965 0.60077 0.0
C305 C 0.52644 0.60738 0.60385 0.0
C306 C 0.43155 0.47874 0.59808 0.0
C307 C 0.47243 0.38716 0.60313 0.0
N308 N 0.49735 0.56527 0.60304 0.0
N309 N 0.5015 0.4293 0.60283 0.0
H310 H 0.64652 0.01241 0.85239 0.0
H311 H 0.35158 0.97904 0.85165 0.0
H312 H 0.56801 0.87203 0.86204 0.0
H313 H 0.43066 0.11884 0.86241 0.0
H314 H 0.43066 0.93921 0.84745 0.0
H315 H 0.56743 0.05182 0.84796 0.0
C316 C 0.61268 0.98982 0.85333 0.0
C317 C 0.61376 0.939 0.85788 0.0
C318 C 0.43059 0.97866 0.85056 0.0
C319 C 0.52334 0.98372 0.85279 0.0
C320 C 0.38553 0.0014 0.8529 0.0
C321 C 0.38464 0.05218 0.85767 0.0
C322 C 0.47492 0.00706 0.8528 0.0
C323 C 0.42969 0.07946 0.85902 0.0
C324 C 0.56758 0.01233 0.85088 0.0
C325 C 0.56881 0.91144 0.85883 0.0
N326 N 0.473 0.05654 0.85669 0.0
N327 N 0.5254 0.93418 0.85643 0.0
H328 H 0.0171 0.65016 0.13287 0.0
H329 H 0.98128 0.35529 0.13158 0.0
H330 H 0.87543 0.57252 0.12673 0.0
H331 H 0.1208 0.43399 0.11965 0.0
H332 H 0.94266 0.43438 0.13814 0.0
H333 H 0.05626 0.57075 0.13662 0.0
C334 C 0.99419 0.61646 0.13264 0.0
C335 C 0.94306 0.61784 0.12914 0.0
C336 C 0.98181 0.43423 0.13426 0.0
C337 C 0.98748 0.52709 0.13337 0.0
C338 C 0.00384 0.38915 0.13055 0.0
C339 C 0.05413 0.38818 0.12472 0.0
C340 C 0.01042 0.47849 0.1323 0.0
C341 C 0.08174 0.4331 0.12377 0.0
C342 C 0.01655 0.57118 0.13468 0.0
C343 C 0.91508 0.57308 0.12907 0.0
N344 N 0.05948 0.47643 0.12738 0.0
N345 N 0.93769 0.5295 0.13096 0.0
H346 H 0.44017 0.36317 0.38422 0.0
H347 H 0.55575 0.63902 0.38173 0.0
H348 H 0.35258 0.49108 0.37438 0.0
H349 H 0.6429 0.50984 0.37564 0.0
H350 H 0.48105 0.58574 0.38266 0.0
H351 H 0.51445 0.4168 0.38482 0.0
C352 C 0.4364 0.40258 0.38226 0.0
C353 C 0.3898 0.42254 0.37916 0.0
C354 C 0.51651 0.56906 0.38111 0.0
C355 C 0.47528 0.4843 0.37986 0.0
C356 C 0.55931 0.59944 0.38065 0.0
C357 C 0.60591 0.57897 0.37855 0.0
C358 C 0.5201 0.51769 0.37966 0.0
C359 C 0.6079 0.52736 0.37718 0.0
C360 C 0.47901 0.43317 0.38253 0.0
C361 C 0.3876 0.47396 0.37672 0.0
N362 N 0.56564 0.49853 0.3778 0.0
N363 N 0.42973 0.50306 0.37714 0.0
H364 H 0.51727 0.14507 0.62847 0.0
H365 H 0.48146 0.84996 0.62914 0.0
H366 H 0.3761 0.06694 0.62119 0.0
H367 H 0.62275 0.92788 0.62197 0.0
H368 H 0.44225 0.92932 0.63335 0.0
H369 H 0.55643 0.06584 0.63321 0.0
C370 C 0.49447 0.11131 0.62811 0.0
C371 C 0.44346 0.11254 0.62414 0.0
C372 C 0.48189 0.92899 0.63104 0.0
C373 C 0.4879 0.0219 0.62954 0.0
C374 C 0.50428 0.88371 0.6287 0.0
C375 C 0.55535 0.88237 0.62492 0.0
C376 C 0.51084 0.97315 0.6297 0.0
C377 C 0.58317 0.92722 0.62459 0.0
C378 C 0.51683 0.0661 0.63075 0.0
C379 C 0.41565 0.06767 0.62394 0.0
N380 N 0.56054 0.97077 0.6268 0.0
N381 N 0.43824 0.0242 0.62645 0.0
H382 H 0.85131 0.98777 0.87214 0.0
H383 H 0.14661 0.00845 0.86994 0.0
H384 H 0.94358 0.86271 0.8799 0.0
H385 H 0.05553 0.13453 0.87733 0.0
H386 H 0.0722 0.95443 0.87034 0.0
H387 H 0.92553 0.04221 0.87097 0.0
C388 C 0.88708 0.97171 0.87359 0.0
C389 C 0.89108 0.9205 0.87614 0.0
C390 C 0.06854 0.99393 0.87188 0.0
C391 C 0.97618 0.98265 0.87472 0.0
C392 C 0.11102 0.02484 0.87157 0.0
C393 C 0.10744 0.07619 0.87362 0.0
C394 C 0.02203 0.01445 0.87409 0.0
C395 C 0.0602 0.0952 0.87577 0.0
C396 C 0.92944 0.00284 0.87297 0.0
C397 C 0.93854 0.9019 0.87799 0.0
N398 N 0.0194 0.06435 0.8759 0.0
N399 N 0.97914 0.93291 0.87717 0.0
loop_
_geom_bond_atom_site_label_1
_geom_bond_atom_site_label_2
_geom_bond_distance
_geom_bond_site_symmetry_2
_ccdc_geom_bond_type
Co0 O1 2.216 . S
Co0 O2 2.091 . S
Co0 O4 2.004 . S
Co0 O10 2.021 . S
Co0 O12 2.137 . S
Co0 O13 2.244 . S
O1 Co0 2.216 . S
O1 C8 1.247 . S
O2 Co0 2.091 . S
O2 C8 1.261 . S
C3 O12 1.247 . S
C3 O13 1.272 . S
O4 Co0 2.004 . S
O4 C9 1.259 . S
Co5 O6 2.061 . S
Co5 O11 2.052 . S
Co5 O13 2.135 . S
O6 Co5 2.061 . S
O6 C9 1.235 . S
C7 O10 1.238 . S
C7 O11 1.241 . S
C8 O1 1.247 . S
C8 O2 1.261 . S
C9 O4 1.259 . S
C9 O6 1.235 . S
O10 Co0 2.021 . S
O10 C7 1.238 . S
O11 Co5 2.052 . S
O11 C7 1.241 . S
O12 Co0 2.137 . S
O12 C3 1.247 . S
O13 Co0 2.244 . S
O13 C3 1.272 . S
O13 Co5 2.135 . S
Co14 O15 2.216 . S
Co14 O16 2.091 . S
Co14 O18 2.004 . S
Co14 O24 2.021 . S
Co14 O26 2.137 . S
Co14 O27 2.244 . S
O15 Co14 2.216 . S
O15 C22 1.247 . S
O16 Co14 2.091 . S
O16 C22 1.261 . S
C17 O26 1.247 . S
C17 O27 1.272 . S
O18 Co14 2.004 . S
O18 C23 1.259 . S
Co19 O20 2.061 . S
Co19 O25 2.052 . S
Co19 O27 2.135 . S
O20 Co19 2.061 . S
O20 C23 1.235 . S
C21 O24 1.238 . S
C21 O25 1.241 . S
C22 O15 1.247 . S
C22 O16 1.261 . S
C23 O18 1.259 . S
C23 O20 1.235 . S
O24 Co14 2.021 . S
O24 C21 1.238 . S
O25 Co19 2.052 . S
O25 C21 1.241 . S
O26 Co14 2.137 . S
O26 C17 1.247 . S
O27 Co14 2.244 . S
O27 C17 1.272 . S
O27 Co19 2.135 . S
Co28 O29 2.216 . S
Co28 O30 2.091 . S
Co28 O32 2.004 . S
Co28 O38 2.021 . S
Co28 O40 2.137 . S
Co28 O41 2.244 . S
O29 Co28 2.216 . S
O29 C36 1.247 . S
O30 Co28 2.091 . S
O30 C36 1.261 . S
C31 O40 1.247 . S
C31 O41 1.272 . S
O32 Co28 2.004 . S
O32 C37 1.259 . S
Co33 O34 2.061 . S
Co33 O39 2.052 . S
Co33 O41 2.135 . S
O34 Co33 2.061 . S
O34 C37 1.235 . S
C35 O38 1.238 . S
C35 O39 1.241 . S
C36 O29 1.247 . S
C36 O30 1.261 . S
C37 O32 1.259 . S
C37 O34 1.235 . S
O38 Co28 2.021 . S
O38 C35 1.238 . S
O39 Co33 2.052 . S
O39 C35 1.241 . S
O40 Co28 2.137 . S
O40 C31 1.247 . S
O41 Co28 2.244 . S
O41 C31 1.272 . S
O41 Co33 2.135 . S
Co42 O43 2.216 . S
Co42 O44 2.091 . S
Co42 O46 2.004 . S
Co42 O52 2.021 . S
Co42 O54 2.137 . S
Co42 O55 2.244 . S
O43 Co42 2.216 . S
O43 C50 1.247 . S
O44 Co42 2.091 . S
O44 C50 1.261 . S
C45 O54 1.247 . S
C45 O55 1.272 . S
O46 Co42 2.004 . S
O46 C51 1.259 . S
Co47 O48 2.061 . S
Co47 O53 2.052 . S
Co47 O55 2.135 . S
O48 Co47 2.061 . S
O48 C51 1.235 . S
C49 O52 1.238 . S
C49 O53 1.241 . S
C50 O43 1.247 . S
C50 O44 1.261 . S
C51 O46 1.259 . S
C51 O48 1.235 . S
O52 Co42 2.021 . S
O52 C49 1.238 . S
O53 Co47 2.052 . S
O53 C49 1.241 . S
O54 Co42 2.137 . S
O54 C45 1.247 . S
O55 Co42 2.244 . S
O55 C45 1.272 . S
O55 Co47 2.135 . S
Co56 O57 2.216 . S
Co56 O58 2.091 . S
Co56 O60 2.004 . S
Co56 O66 2.021 . S
Co56 O68 2.137 . S
Co56 O69 2.244 . S
O57 Co56 2.216 . S
O57 C64 1.247 . S
O58 Co56 2.091 . S
O58 C64 1.261 . S
C59 O68 1.247 . S
C59 O69 1.272 . S
O60 Co56 2.004 . S
O60 C65 1.259 . S
Co61 O62 2.061 . S
Co61 O67 2.052 . S
Co61 O69 2.135 . S
O62 Co61 2.061 . S
O62 C65 1.235 . S
C63 O66 1.238 . S
C63 O67 1.241 . S
C64 O57 1.247 . S
C64 O58 1.261 . S
C65 O60 1.259 . S
C65 O62 1.235 . S
O66 Co56 2.021 . S
O66 C63 1.238 . S
O67 Co61 2.052 . S
O67 C63 1.241 . S
O68 Co56 2.137 . S
O68 C59 1.247 . S
O69 Co56 2.244 . S
O69 C59 1.272 . S
O69 Co61 2.135 . S
Co70 O71 2.216 . S
Co70 O72 2.091 . S
Co70 O74 2.004 . S
Co70 O80 2.021 . S
Co70 O82 2.137 . S
Co70 O83 2.244 . S
O71 Co70 2.216 . S
O71 C78 1.247 . S
O72 Co70 2.091 . S
O72 C78 1.261 . S
C73 O82 1.247 . S
C73 O83 1.272 . S
O74 Co70 2.004 . S
O74 C79 1.259 . S
Co75 O76 2.061 . S
Co75 O81 2.052 . S
Co75 O83 2.135 . S
O76 Co75 2.061 . S
O76 C79 1.235 . S
C77 O80 1.238 . S
C77 O81 1.241 . S
C78 O71 1.247 . S
C78 O72 1.261 . S
C79 O74 1.259 . S
C79 O76 1.235 . S
O80 Co70 2.021 . S
O80 C77 1.238 . S
O81 Co75 2.052 . S
O81 C77 1.241 . S
O82 Co70 2.137 . S
O82 C73 1.247 . S
O83 Co70 2.244 . S
O83 C73 1.272 . S
O83 Co75 2.135 . S
Co84 O85 2.216 . S
Co84 O86 2.091 . S
Co84 O88 2.004 . S
Co84 O94 2.021 . S
Co84 O96 2.137 . S
Co84 O97 2.244 . S
O85 Co84 2.216 . S
O85 C92 1.247 . S
O86 Co84 2.091 . S
O86 C92 1.261 . S
C87 O96 1.247 . S
C87 O97 1.272 . S
O88 Co84 2.004 . S
O88 C93 1.259 . S
Co89 O90 2.061 . S
Co89 O95 2.052 . S
Co89 O97 2.135 . S
O90 Co89 2.061 . S
O90 C93 1.235 . S
C91 O94 1.238 . S
C91 O95 1.241 . S
C92 O85 1.247 . S
C92 O86 1.261 . S
C93 O88 1.259 . S
C93 O90 1.235 . S
O94 Co84 2.021 . S
O94 C91 1.238 . S
O95 Co89 2.052 . S
O95 C91 1.241 . S
O96 Co84 2.137 . S
O96 C87 1.247 . S
O97 Co84 2.244 . S
O97 C87 1.272 . S
O97 Co89 2.135 . S
Co98 O99 2.216 . S
Co98 O100 2.091 . S
Co98 O102 2.004 . S
Co98 O108 2.021 . S
Co98 O110 2.137 . S
Co98 O111 2.244 . S
O99 Co98 2.216 . S
O99 C106 1.247 . S
O100 Co98 2.091 . S
O100 C106 1.261 . S
C101 O110 1.247 . S
C101 O111 1.272 . S
O102 Co98 2.004 . S
O102 C107 1.259 . S
Co103 O104 2.061 . S
Co103 O109 2.052 . S
Co103 O111 2.135 . S
O104 Co103 2.061 . S
O104 C107 1.235 . S
C105 O108 1.238 . S
C105 O109 1.241 . S
C106 O99 1.247 . S
C106 O100 1.261 . S
C107 O102 1.259 . S
C107 O104 1.235 . S
O108 Co98 2.021 . S
O108 C105 1.238 . S
O109 Co103 2.052 . S
O109 C105 1.241 . S
O110 Co98 2.137 . S
O110 C101 1.247 . S
O111 Co98 2.244 . S
O111 C101 1.272 . S
O111 Co103 2.135 . S
H112 C118 0.930 . S
H113 C122 0.930 . S
H114 C127 0.929 . S
H115 C125 0.929 . S
H116 C120 0.929 . S
H117 C126 0.929 . S
C118 H112 0.930 . S
C118 C119 1.367 . S
C118 C126 1.378 . S
C119 C118 1.367 . S
C119 C127 1.433 . S
C120 H116 0.929 . S
C120 C122 1.378 . S
C120 C124 1.350 . S
C121 C124 1.463 1_554 S
C121 C126 1.350 . S
C121 N129 1.427 . S
C122 H113 0.930 . S
C122 C120 1.378 . S
C122 C123 1.367 . S
C123 C122 1.367 . S
C123 C125 1.433 . S
C124 C120 1.350 . S
C124 C121 1.463 1_556 S
C124 N128 1.427 . S
C125 H115 0.929 . S
C125 C123 1.433 . S
C125 N128 1.384 . S
C126 H117 0.929 . S
C126 C118 1.378 . S
C126 C121 1.350 . S
C127 H114 0.929 . S
C127 C119 1.433 . S
C127 N129 1.384 . S
N128 C124 1.427 . S
N128 C125 1.384 . S
N129 C121 1.427 . S
N129 C127 1.384 . S
H130 C136 0.930 . S
H131 C140 0.930 . S
H132 C145 0.929 . S
H133 C143 0.929 . S
H134 C138 0.929 . S
H135 C144 0.929 . S
C136 H130 0.930 . S
C136 C137 1.367 . S
C136 C144 1.378 . S
C137 C136 1.367 . S
C137 C145 1.433 . S
C138 H134 0.929 . S
C138 C140 1.378 . S
C138 C142 1.350 . S
C139 C142 1.463 . S
C139 C144 1.350 . S
C139 N147 1.427 . S
C140 H131 0.930 . S
C140 C138 1.378 . S
C140 C141 1.367 . S
C141 C140 1.367 . S
C141 C143 1.433 . S
C142 C138 1.350 . S
C142 C139 1.463 . S
C142 N146 1.427 . S
C143 H133 0.929 . S
C143 C141 1.433 . S
C143 N146 1.384 . S
C144 H135 0.929 . S
C144 C136 1.378 . S
C144 C139 1.350 . S
C145 H132 0.929 . S
C145 C137 1.433 . S
C145 N147 1.384 . S
N146 C142 1.427 . S
N146 C143 1.384 . S
N147 C139 1.427 . S
N147 C145 1.384 . S
H148 C154 0.930 . S
H149 C158 0.930 . S
H150 C163 0.929 . S
H151 C161 0.929 . S
H152 C156 0.929 . S
H153 C162 0.929 . S
C154 H148 0.930 . S
C154 C155 1.367 . S
C154 C162 1.378 . S
C155 C154 1.367 . S
C155 C163 1.433 . S
C156 H152 0.929 . S
C156 C158 1.378 . S
C156 C160 1.350 . S
C157 C160 1.463 . S
C157 C162 1.350 . S
C157 N165 1.427 . S
C158 H149 0.930 . S
C158 C156 1.378 . S
C158 C159 1.367 . S
C159 C158 1.367 . S
C159 C161 1.433 . S
C160 C156 1.350 . S
C160 C157 1.463 . S
C160 N164 1.427 . S
C161 H151 0.929 . S
C161 C159 1.433 . S
C161 N164 1.384 . S
C162 H153 0.929 . S
C162 C154 1.378 . S
C162 C157 1.350 . S
C163 H150 0.929 . S
C163 C155 1.433 . S
C163 N165 1.384 . S
N164 C160 1.427 . S
N164 C161 1.384 . S
N165 C157 1.427 . S
N165 C163 1.384 . S
H166 C172 0.930 . S
H167 C176 0.930 . S
H168 C181 0.929 . S
H169 C179 0.929 . S
H170 C174 0.929 . S
H171 C180 0.929 . S
C172 H166 0.930 . S
C172 C173 1.367 . S
C172 C180 1.378 . S
C173 C172 1.367 . S
C173 C181 1.433 . S
C174 H170 0.929 . S
C174 C176 1.378 . S
C174 C178 1.350 . S
C175 C178 1.463 . S
C175 C180 1.350 . S
C175 N183 1.427 . S
C176 H167 0.930 . S
C176 C174 1.378 . S
C176 C177 1.367 . S
C177 C176 1.367 . S
C177 C179 1.433 . S
C178 C174 1.350 . S
C178 C175 1.463 . S
C178 N182 1.427 . S
C179 H169 0.929 . S
C179 C177 1.433 . S
C179 N182 1.384 . S
C180 H171 0.929 . S
C180 C172 1.378 . S
C180 C175 1.350 . S
C181 H168 0.929 . S
C181 C173 1.433 . S
C181 N183 1.384 . S
N182 C178 1.427 . S
N182 C179 1.384 . S
N183 C175 1.427 . S
N183 C181 1.384 . S
H184 C190 0.930 . S
H185 C194 0.930 . S
H186 C199 0.929 . S
H187 C197 0.929 . S
H188 C192 0.929 . S
H189 C198 0.929 . S
C190 H184 0.930 . S
C190 C191 1.367 . S
C190 C198 1.378 . S
C191 C190 1.367 . S
C191 C199 1.433 . S
C192 H188 0.929 . S
C192 C194 1.378 . S
C192 C196 1.350 . S
C193 C196 1.463 . S
C193 C198 1.350 . S
C193 N201 1.427 . S
C194 H185 0.930 . S
C194 C192 1.378 . S
C194 C195 1.367 . S
C195 C194 1.367 . S
C195 C197 1.433 . S
C196 C192 1.350 . S
C196 C193 1.463 . S
C196 N200 1.427 . S
C197 H187 0.929 . S
C197 C195 1.433 . S
C197 N200 1.384 . S
C198 H189 0.929 . S
C198 C190 1.378 . S
C198 C193 1.350 . S
C199 H186 0.929 . S
C199 C191 1.433 . S
C199 N201 1.384 . S
N200 C196 1.427 . S
N200 C197 1.384 . S
N201 C193 1.427 . S
N201 C199 1.384 . S
H202 C208 0.930 . S
H203 C212 0.930 . S
H204 C217 0.929 . S
H205 C215 0.929 . S
H206 C210 0.929 . S
H207 C216 0.929 . S
C208 H202 0.930 . S
C208 C209 1.367 . S
C208 C216 1.378 . S
C209 C208 1.367 . S
C209 C217 1.433 . S
C210 H206 0.929 . S
C210 C212 1.378 . S
C210 C214 1.350 . S
C211 C214 1.463 . S
C211 C216 1.350 . S
C211 N219 1.427 . S
C212 H203 0.930 . S
C212 C210 1.378 . S
C212 C213 1.367 . S
C213 C212 1.367 . S
C213 C215 1.433 . S
C214 C210 1.350 . S
C214 C211 1.463 . S
C214 N218 1.427 . S
C215 H205 0.929 . S
C215 C213 1.433 . S
C215 N218 1.384 . S
C216 H207 0.929 . S
C216 C208 1.378 . S
C216 C211 1.350 . S
C217 H204 0.929 . S
C217 C209 1.433 . S
C217 N219 1.384 . S
N218 C214 1.427 . S
N218 C215 1.384 . S
N219 C211 1.427 . S
N219 C217 1.384 . S
H220 C226 0.930 . S
H221 C230 0.930 . S
H222 C235 0.929 . S
H223 C233 0.929 . S
H224 C228 0.929 . S
H225 C234 0.929 . S
C226 H220 0.930 . S
C226 C227 1.367 . S
C226 C234 1.378 . S
C227 C226 1.367 . S
C227 C235 1.433 . S
C228 H224 0.929 . S
C228 C230 1.378 . S
C228 C232 1.350 . S
C229 C232 1.463 . S
C229 C234 1.350 . S
C229 N237 1.427 . S
C230 H221 0.930 . S
C230 C228 1.378 . S
C230 C231 1.367 . S
C231 C230 1.367 . S
C231 C233 1.433 . S
C232 C228 1.350 . S
C232 C229 1.463 . S
C232 N236 1.427 . S
C233 H223 0.929 . S
C233 C231 1.433 . S
C233 N236 1.384 . S
C234 H225 0.929 . S
C234 C226 1.378 . S
C234 C229 1.350 . S
C235 H222 0.929 . S
C235 C227 1.433 . S
C235 N237 1.384 . S
N236 C232 1.427 . S
N236 C233 1.384 . S
N237 C229 1.427 . S
N237 C235 1.384 . S
H238 C244 0.930 . S
H239 C248 0.930 . S
H240 C253 0.929 . S
H241 C251 0.929 . S
H242 C246 0.929 . S
H243 C252 0.929 . S
C244 H238 0.930 . S
C244 C245 1.367 . S
C244 C252 1.378 . S
C245 C244 1.367 . S
C245 C253 1.433 . S
C246 H242 0.929 . S
C246 C248 1.378 . S
C246 C250 1.350 . S
C247 C250 1.463 1_554 S
C247 C252 1.350 . S
C247 N255 1.427 . S
C248 H239 0.930 . S
C248 C246 1.378 . S
C248 C249 1.367 . S
C249 C248 1.367 . S
C249 C251 1.433 . S
C250 C246 1.350 . S
C250 C247 1.463 1_556 S
C250 N254 1.427 . S
C251 H241 0.929 . S
C251 C249 1.433 . S
C251 N254 1.384 . S
C252 H243 0.929 . S
C252 C244 1.378 . S
C252 C247 1.350 . S
C253 H240 0.929 . S
C253 C245 1.433 . S
C253 N255 1.384 . S
N254 C250 1.427 . S
N254 C251 1.384 . S
N255 C247 1.427 . S
N255 C253 1.384 . S
H256 C262 0.930 . S
H257 C266 0.930 . S
H258 C271 0.929 . S
H259 C269 0.929 . S
H260 C264 0.929 1_455 S
H261 C270 0.929 1_655 S
C262 H256 0.930 . S
C262 C263 1.367 . S
C262 C270 1.378 . S
C263 C262 1.367 . S
C263 C271 1.433 . S
C264 H260 0.929 1_655 S
C264 C266 1.378 . S
C264 C268 1.350 . S
C265 C268 1.463 1_445 S
C265 C270 1.350 . S
C265 N273 1.427 . S
C266 H257 0.930 . S
C266 C264 1.378 . S
C266 C267 1.367 . S
C267 C266 1.367 . S
C267 C269 1.433 . S
C268 C264 1.350 . S
C268 C265 1.463 1_665 S
C268 N272 1.427 . S
C269 H259 0.929 . S
C269 C267 1.433 . S
C269 N272 1.384 . S
C270 H261 0.929 1_455 S
C270 C262 1.378 . S
C270 C265 1.350 . S
C271 H258 0.929 . S
C271 C263 1.433 . S
C271 N273 1.384 . S
N272 C268 1.427 . S
N272 C269 1.384 . S
N273 C265 1.427 . S
N273 C271 1.384 . S
H274 C280 0.930 . S
H275 C284 0.930 . S
H276 C289 0.929 . S
H277 C287 0.929 . S
H278 C282 0.929 . S
H279 C288 0.929 . S
C280 H274 0.930 . S
C280 C281 1.367 . S
C280 C288 1.378 . S
C281 C280 1.367 . S
C281 C289 1.433 . S
C282 H278 0.929 . S
C282 C284 1.378 . S
C282 C286 1.350 . S
C283 C286 1.463 1_455 S
C283 C288 1.350 . S
C283 N291 1.427 . S
C284 H275 0.930 . S
C284 C282 1.378 . S
C284 C285 1.367 . S
C285 C284 1.367 . S
C285 C287 1.433 . S
C286 C282 1.350 . S
C286 C283 1.463 1_655 S
C286 N290 1.427 . S
C287 H277 0.929 . S
C287 C285 1.433 . S
C287 N290 1.384 . S
C288 H279 0.929 . S
C288 C280 1.378 . S
C288 C283 1.350 . S
C289 H276 0.929 . S
C289 C281 1.433 . S
C289 N291 1.384 . S
N290 C286 1.427 . S
N290 C287 1.384 . S
N291 C283 1.427 . S
N291 C289 1.384 . S
H292 C298 0.930 . S
H293 C302 0.930 . S
H294 C307 0.929 . S
H295 C305 0.929 . S
H296 C300 0.929 . S
H297 C306 0.929 . S
C298 H292 0.930 . S
C298 C299 1.367 . S
C298 C306 1.378 . S
C299 C298 1.367 . S
C299 C307 1.433 . S
C300 H296 0.929 . S
C300 C302 1.378 . S
C300 C304 1.350 . S
C301 C304 1.463 . S
C301 C306 1.350 . S
C301 N309 1.427 . S
C302 H293 0.930 . S
C302 C300 1.378 . S
C302 C303 1.367 . S
C303 C302 1.367 . S
C303 C305 1.433 . S
C304 C300 1.350 . S
C304 C301 1.463 . S
C304 N308 1.427 . S
C305 H295 0.929 . S
C305 C303 1.433 . S
C305 N308 1.384 . S
C306 H297 0.929 . S
C306 C298 1.378 . S
C306 C301 1.350 . S
C307 H294 0.929 . S
C307 C299 1.433 . S
C307 N309 1.384 . S
N308 C304 1.427 . S
N308 C305 1.384 . S
N309 C301 1.427 . S
N309 C307 1.384 . S
H310 C316 0.930 . S
H311 C320 0.930 . S
H312 C325 0.929 . S
H313 C323 0.929 . S
H314 C318 0.929 . S
H315 C324 0.929 . S
C316 H310 0.930 . S
C316 C317 1.367 . S
C316 C324 1.378 . S
C317 C316 1.367 . S
C317 C325 1.433 . S
C318 H314 0.929 . S
C318 C320 1.378 . S
C318 C322 1.350 . S
C319 C322 1.463 1_565 S
C319 C324 1.350 . S
C319 N327 1.427 . S
C320 H311 0.930 . S
C320 C318 1.378 . S
C320 C321 1.367 . S
C321 C320 1.367 . S
C321 C323 1.433 . S
C322 C318 1.350 . S
C322 C319 1.463 1_545 S
C322 N326 1.427 . S
C323 H313 0.929 . S
C323 C321 1.433 . S
C323 N326 1.384 . S
C324 H315 0.929 . S
C324 C316 1.378 . S
C324 C319 1.350 . S
C325 H312 0.929 . S
C325 C317 1.433 . S
C325 N327 1.384 . S
N326 C322 1.427 . S
N326 C323 1.384 . S
N327 C319 1.427 . S
N327 C325 1.384 . S
H328 C334 0.930 . S
H329 C338 0.930 . S
H330 C343 0.929 . S
H331 C341 0.929 . S
H332 C336 0.929 1_655 S
H333 C342 0.929 1_455 S
C334 H328 0.930 . S
C334 C335 1.367 . S
C334 C342 1.378 . S
C335 C334 1.367 . S
C335 C343 1.433 . S
C336 H332 0.929 1_455 S
C336 C338 1.378 . S
C336 C340 1.350 . S
C337 C340 1.463 1_655 S
C337 C342 1.350 . S
C337 N345 1.427 . S
C338 H329 0.930 . S
C338 C336 1.378 . S
C338 C339 1.367 . S
C339 C338 1.367 . S
C339 C341 1.433 . S
C340 C336 1.350 . S
C340 C337 1.463 1_455 S
C340 N344 1.427 . S
C341 H331 0.929 . S
C341 C339 1.433 . S
C341 N344 1.384 . S
C342 H333 0.929 1_655 S
C342 C334 1.378 . S
C342 C337 1.350 . S
C343 H330 0.929 . S
C343 C335 1.433 . S
C343 N345 1.384 . S
N344 C340 1.427 . S
N344 C341 1.384 . S
N345 C337 1.427 . S
N345 C343 1.384 . S
H346 C352 0.930 . S
H347 C356 0.930 . S
H348 C361 0.929 . S
H349 C359 0.929 . S
H350 C354 0.929 . S
H351 C360 0.929 . S
C352 H346 0.930 . S
C352 C353 1.367 . S
C352 C360 1.378 . S
C353 C352 1.367 . S
C353 C361 1.433 . S
C354 H350 0.929 . S
C354 C356 1.378 . S
C354 C358 1.350 . S
C355 C358 1.463 . S
C355 C360 1.350 . S
C355 N363 1.427 . S
C356 H347 0.930 . S
C356 C354 1.378 . S
C356 C357 1.367 . S
C357 C356 1.367 . S
C357 C359 1.433 . S
C358 C354 1.350 . S
C358 C355 1.463 . S
C358 N362 1.427 . S
C359 H349 0.929 . S
C359 C357 1.433 . S
C359 N362 1.384 . S
C360 H351 0.929 . S
C360 C352 1.378 . S
C360 C355 1.350 . S
C361 H348 0.929 . S
C361 C353 1.433 . S
C361 N363 1.384 . S
N362 C358 1.427 . S
N362 C359 1.384 . S
N363 C355 1.427 . S
N363 C361 1.384 . S
H364 C370 0.930 . S
H365 C374 0.930 . S
H366 C379 0.929 . S
H367 C377 0.929 . S
H368 C372 0.929 . S
H369 C378 0.929 . S
C370 H364 0.930 . S
C370 C371 1.367 . S
C370 C378 1.378 . S
C371 C370 1.367 . S
C371 C379 1.433 . S
C372 H368 0.929 . S
C372 C374 1.378 . S
C372 C376 1.350 . S
C373 C376 1.463 1_545 S
C373 C378 1.350 . S
C373 N381 1.427 . S
C374 H365 0.930 . S
C374 C372 1.378 . S
C374 C375 1.367 . S
C375 C374 1.367 . S
C375 C377 1.433 . S
C376 C372 1.350 . S
C376 C373 1.463 1_565 S
C376 N380 1.427 . S
C377 H367 0.929 . S
C377 C375 1.433 . S
C377 N380 1.384 . S
C378 H369 0.929 . S
C378 C370 1.378 . S
C378 C373 1.350 . S
C379 H366 0.929 . S
C379 C371 1.433 . S
C379 N381 1.384 . S
N380 C376 1.427 . S
N380 C377 1.384 . S
N381 C373 1.427 . S
N381 C379 1.384 . S
H382 C388 0.930 . S
H383 C392 0.930 . S
H384 C397 0.929 . S
H385 C395 0.929 . S
H386 C390 0.929 . S
H387 C396 0.929 . S
C388 H382 0.930 . S
C388 C389 1.367 . S
C388 C396 1.378 1_565 S
C389 C388 1.367 . S
C389 C397 1.433 . S
C390 H386 0.929 . S
C390 C392 1.378 1_565 S
C390 C394 1.350 1_565 S
C391 C394 1.463 1_665 S
C391 C396 1.350 1_565 S
C391 N399 1.427 . S
C392 H383 0.930 . S
C392 C390 1.378 1_545 S
C392 C393 1.367 . S
C393 C392 1.367 . S
C393 C395 1.433 . S
C394 C390 1.350 1_545 S
C394 C391 1.463 1_445 S
C394 N398 1.427 . S
C395 H385 0.929 . S
C395 C393 1.433 . S
C395 N398 1.384 . S
C396 H387 0.929 . S
C396 C388 1.378 1_545 S
C396 C391 1.350 1_545 S
C397 H384 0.929 . S
C397 C389 1.433 . S
C397 N399 1.384 . S
N398 C394 1.427 . S
N398 C395 1.384 . S
N399 C391 1.427 . S
N399 C397 1.384 . S
C119 C3 1.219 . S
C123 C73 1.210 . S
C137 C21 1.239 . S
C141 C91 1.239 . S
C155 C31 1.210 . S
C159 C101 1.213 . S
C173 C49 1.231 . S
C177 C63 1.233 . S
C191 C105 1.236 . S
C195 C7 1.240 . S
C209 C59 1.215 . S
C213 C17 1.223 . S
C227 C35 1.231 . S
C231 C77 1.236 . S
C245 C87 1.217 . S
C249 C45 1.209 . S
C263 C9 1.579 . S
C267 C93 1.582 . S
C281 C106 1.577 . S
C285 C22 1.577 . S
C299 C37 1.579 . S
C303 C65 1.579 . S
C317 C50 1.578 . S
C321 C78 1.577 . S
C335 C92 1.577 . S
C339 C8 1.577 . S
C353 C107 1.578 . S
C357 C23 1.580 . S
C371 C36 1.576 . S
C375 C64 1.577 . S
C389 C51 1.582 . S
C393 C79 1.580 . S
