# Generated by pormake.
# Topology uni, (4)-cn, num edge types: 1
# Building blocks:
#     Node 0, Type 0, BuildingBlock: ICAMEG_clean_sbu_1, # of connection points: 4
#     Node 1, Type 0, BuildingBlock: ICAMEG_clean_sbu_1, # of connection points: 4
#     Node 2, Type 0, BuildingBlock: ICAMEG_clean_sbu_1, # of connection points: 4
#     Node 3, Type 0, BuildingBlock: ICAMEG_clean_sbu_1, # of connection points: 4
#     Node 4, Type 0, BuildingBlock: ICAMEG_clean_sbu_1, # of connection points: 4
#     Node 5, Type 0, BuildingBlock: ICAMEG_clean_sbu_1, # of connection points: 4
#     Edge 6, Type (0, 0), BuildingBlock: XIVTED_clean_linker_0, # of connection points: 2
#     Edge 7, Type (0, 0), BuildingBlock: XIVTED_clean_linker_0, # of connection points: 2
#     Edge 8, Type (0, 0), BuildingBlock: XIVTED_clean_linker_0, # of connection points: 2
#     Edge 9, Type (0, 0), BuildingBlock: XIVTED_clean_linker_0, # of connection points: 2
#     Edge 10, Type (0, 0), BuildingBlock: XIVTED_clean_linker_0, # of connection points: 2
#     Edge 11, Type (0, 0), BuildingBlock: XIVTED_clean_linker_0, # of connection points: 2
#     Edge 12, Type (0, 0), BuildingBlock: XIVTED_clean_linker_0, # of connection points: 2
#     Edge 13, Type (0, 0), BuildingBlock: XIVTED_clean_linker_0, # of connection points: 2
#     Edge 14, Type (0, 0), BuildingBlock: XIVTED_clean_linker_0, # of connection points: 2
#     Edge 15, Type (0, 0), BuildingBlock: XIVTED_clean_linker_0, # of connection points: 2
#     Edge 16, Type (0, 0), BuildingBlock: XIVTED_clean_linker_0, # of connection points: 2
#     Edge 17, Type (0, 0), BuildingBlock: XIVTED_clean_linker_0, # of connection points: 2
# Relax obj value: 0.140
# Max RMSD: 0.183
# Mean RMSD: 0.183
data_MOF--net-uni--node1-ICAMEG_clean_sbu_1--edge1-XIVTED_clean_linker_0
_symmetry_space_group_name_H-M    P1
_symmetry_Int_Tables_number       1
_symmetry_cell_setting            triclinic
loop_
_symmetry_equiv_pos_as_xyz
'x, y, z'
_cell_length_a     40.79458
_cell_length_b     40.703678
_cell_length_c     24.763071
_cell_angle_alpha  90.022775
_cell_angle_beta   89.911359
_cell_angle_gamma 120.00303
loop_
_atom_site_label
_atom_site_type_symbol
_atom_site_fract_x
_atom_site_fract_y
_atom_site_fract_z
_atom_type_partial_charge
Co0 Co 0.6299 0.01411 0.02931 0.0
Co1 Co 0.71015 0.07759 0.09632 0.0
O2 O 0.67703 0.06286 0.03306 0.0
C3 C 0.61542 0.07 0.96676 0.0
O4 O 0.64937 0.09825 0.97747 0.0
C5 C 0.78617 0.10765 0.04663 0.0
O6 O 0.79126 0.0844 0.07764 0.0
O7 O 0.71442 0.03131 0.08758 0.0
O8 O 0.6539 0.98838 0.06921 0.0
H9 H 0.75767 0.05451 0.27126 0.0
H10 H 0.67236 0.05887 0.93143 0.0
O11 O 0.60391 0.03721 0.98722 0.0
H12 H 0.64817 0.92927 0.89922 0.0
H13 H 0.50957 0.9126 0.94338 0.0
H14 H 0.58772 0.95234 0.10821 0.0
H15 H 0.62597 0.94462 0.98271 0.0
H16 H 0.57018 0.97294 0.94556 0.0
O17 O 0.75448 0.10678 0.04697 0.0
H18 H 0.71577 0.03694 0.19194 0.0
H19 H 0.77668 0.1503 0.1341 0.0
H20 H 0.52751 0.89151 0.10751 0.0
H21 H 0.69436 0.04462 0.84716 0.0
H22 H 0.48796 0.8713 0.02467 0.0
H23 H 0.68242 0.9794 0.83037 0.0
O24 O 0.6128 0.02597 0.09881 0.0
H25 H 0.71158 0.19536 0.03131 0.0
H26 H 0.69163 0.1131 0.1885 0.0
H27 H 0.6842 0.16919 0.19901 0.0
H28 H 0.69432 0.2109 0.1201 0.0
H29 H 0.71817 0.13864 0.02236 0.0
H30 H 0.81924 0.16908 0.21282 0.0
H31 H 0.80986 0.12101 0.2821 0.0
O32 O 0.66639 0.0492 0.14662 0.0
C33 C 0.68756 0.99709 0.0827 0.0
C34 C 0.76206 0.07571 0.24135 0.0
C35 C 0.7966 0.14002 0.20856 0.0
N36 N 0.74375 0.09251 0.15837 0.0
C37 C 0.73842 0.06592 0.19631 0.0
C38 C 0.7724 0.1292 0.16408 0.0
C39 C 0.79133 0.11303 0.2474 0.0
C40 C 0.66625 0.03028 0.9245 0.0
N41 N 0.64692 1.00248 0.96198 0.0
C42 C 0.67915 0.02243 0.87661 0.0
C43 C 0.67254 0.98587 0.86726 0.0
C44 C 0.65334 0.95776 0.90585 0.0
C45 C 0.64085 0.96668 0.95323 0.0
C46 C 0.52658 0.92107 0.9797 0.0
C47 C 0.57082 0.94361 0.07188 0.0
C48 C 0.56087 0.9553 0.98127 0.0
N49 N 0.58264 0.96607 0.0269 0.0
C50 C 0.53669 0.90919 0.07178 0.0
C51 C 0.51449 0.8979 0.02531 0.0
C52 C 0.6307 0.03565 0.14361 0.0
C53 C 0.70705 0.17739 0.06599 0.0
C54 C 0.6956 0.13075 0.15374 0.0
C55 C 0.69159 0.16266 0.16006 0.0
C56 C 0.69733 0.18607 0.1158 0.0
N57 N 0.70504 0.12232 0.1047 0.0
C58 C 0.71081 0.14524 0.06119 0.0
Co59 Co 0.66301 0.63853 0.20593 0.0
Co60 Co 0.6731 0.71395 0.28283 0.0
O61 O 0.65802 0.68391 0.21563 0.0
C62 C 0.59048 0.62066 0.14678 0.0
O63 O 0.59341 0.65316 0.16042 0.0
C64 C 0.70639 0.77252 0.19523 0.0
O65 O 0.71269 0.74958 0.1655 0.0
O66 O 0.72452 0.72007 0.27828 0.0
O67 O 0.71248 0.66355 0.24581 0.0
H68 H 0.73229 0.75009 0.46692 0.0
H69 H 0.65505 0.68033 0.11142 0.0
O70 O 0.61414 0.61133 0.16412 0.0
H71 H 0.76864 0.67119 0.07304 0.0
H72 H 0.65341 0.52623 0.10547 0.0
H73 H 0.68646 0.59596 0.27806 0.0
H74 H 0.73213 0.64391 0.15639 0.0
H75 H 0.64874 0.584 0.11562 0.0
O76 O 0.69121 0.76234 0.2416 0.0
H77 H 0.71238 0.71272 0.3828 0.0
H78 H 0.66672 0.77953 0.3242 0.0
H79 H 0.69194 0.53853 0.2694 0.0
H80 H 0.68993 0.70695 0.02707 0.0
H81 H 0.67532 0.50323 0.18263 0.0
H82 H 0.74743 0.70277 1.00731 0.0
O83 O 0.6344 0.6161 0.27456 0.0
H84 H 0.56006 0.71728 0.20934 0.0
H85 H 0.61451 0.69064 0.36959 0.0
H86 H 0.55041 0.68218 0.37485 0.0
H87 H 0.52279 0.69565 0.29434 0.0
H88 H 0.62389 0.72484 0.2057 0.0
H89 H 0.68639 0.81778 0.40753 0.0
H90 H 0.7193 0.80305 0.47971 0.0
O91 O 0.65534 0.66727 0.32755 0.0
C92 C 0.7346 0.69579 0.26719 0.0
C93 C 0.71788 0.75672 0.43583 0.0
C94 C 0.69216 0.79473 0.40247 0.0
N95 N 0.68819 0.74374 0.34874 0.0
C96 C 0.70646 0.7356 0.38815 0.0
C97 C 0.68116 0.77302 0.35531 0.0
C98 C 0.71061 0.78645 0.44296 0.0
C99 C 0.67934 0.67744 0.10304 0.0
N100 N 0.69102 0.65996 0.13904 0.0
C101 C 0.69933 0.69302 0.05519 0.0
C102 C 0.73164 0.69079 0.0442 0.0
C103 C 0.74358 0.67315 0.08109 0.0
C104 C 0.72287 0.65792 0.1285 0.0
C105 C 0.66078 0.5414 0.14347 0.0
C106 C 0.67944 0.58092 0.24004 0.0
C107 C 0.65806 0.57407 0.14955 0.0
N108 N 0.66757 0.59352 0.19733 0.0
C109 C 0.68248 0.54834 0.23543 0.0
C110 C 0.67311 0.52852 0.18676 0.0
C111 C 0.63791 0.63146 0.32074 0.0
C112 C 0.57177 0.71129 0.24469 0.0
C113 C 0.60256 0.69611 0.3342 0.0
C114 C 0.56631 0.6915 0.33752 0.0
C115 C 0.55086 0.69911 0.29237 0.0
N116 N 0.62287 0.70796 0.28725 0.0
C117 C 0.60794 0.7156 0.2429 0.0
Co118 Co 0.06405 0.66765 0.38192 0.0
Co119 Co 1.00194 0.67831 0.46351 0.0
O120 O 0.01446 0.66289 0.39504 0.0
C121 C 0.04396 0.59203 0.33801 0.0
O122 O 0.06366 0.58915 0.37778 0.0
C123 C 0.9765 0.71334 0.37985 0.0
O124 O 0.00668 0.7217 0.35099 0.0
O125 O 0.04735 0.72973 0.45691 0.0
O126 O 0.09035 0.71542 0.42568 0.0
H127 H 0.03097 0.73849 0.64739 0.0
H128 H 0.01478 0.65845 0.2884 0.0
O129 O 0.03876 0.62042 0.33614 0.0
H130 H 0.13181 0.78052 0.25816 0.0
H131 H 0.16532 0.66505 0.26783 0.0
H132 H 0.12999 0.68453 0.45064 0.0
H133 H 0.12513 0.7418 0.3383 0.0
H134 H 0.10332 0.65994 0.28445 0.0
O135 O 0.97083 0.69634 0.42487 0.0
H136 H 0.04557 0.71794 0.56141 0.0
H137 H 0.93172 0.67275 0.51004 0.0
H138 H 0.19231 0.68997 0.43578 0.0
H139 H 0.02058 0.69595 0.20713 0.0
H140 H 0.21032 0.68019 0.34383 0.0
H141 H 0.07936 0.75756 0.1917 0.0
O142 O 0.05808 0.63701 0.44834 0.0
H143 H 0.88497 0.56389 0.39383 0.0
H144 H 0.96804 0.6206 0.55168 0.0
H145 H 0.91261 0.5563 0.55887 0.0
H146 H 0.87052 0.52757 0.47959 0.0
H147 H 0.941 0.62799 0.38828 0.0
H148 H 0.91597 0.69308 0.5953 0.0
H149 H 0.96575 0.72607 0.66479 0.0
O150 O 0.03187 0.66029 0.50514 0.0
C151 C 0.08145 0.73858 0.44665 0.0
C152 C 0.009 0.72404 0.6175 0.0
C153 C 0.94447 0.6986 0.58823 0.0
N154 N 0.98949 0.69391 0.53091 0.0
C155 C 0.01708 0.71225 0.56879 0.0
C156 C 0.95359 0.68723 0.53998 0.0
C157 C 0.97241 0.71709 0.62721 0.0
C158 C 0.04065 0.68499 0.28168 0.0
N159 N 0.0696 0.69782 0.31812 0.0
C160 C 0.04368 0.70621 0.2357 0.0
C161 C 0.07663 0.74081 0.22713 0.0
C162 C 0.10604 0.75374 0.26444 0.0
C163 C 0.102 0.73177 0.30996 0.0
C164 C 0.15781 0.66939 0.30808 0.0
C165 C 0.13762 0.68026 0.41051 0.0
C166 C 0.12274 0.66653 0.31775 0.0
N167 N 0.11302 0.67194 0.36851 0.0
C168 C 0.17295 0.68337 0.40233 0.0
C169 C 0.18304 0.67788 0.35073 0.0
C170 C 0.04834 0.64124 0.49577 0.0
C171 C 0.90306 0.57612 0.42868 0.0
C172 C 0.95006 0.60822 0.51691 0.0
C173 C 0.91861 0.57183 0.52128 0.0
C174 C 0.89499 0.55574 0.47679 0.0
N175 N 0.95775 0.62807 0.46963 0.0
C176 C 0.93478 0.61244 0.42582 0.0
Co177 Co 0.45591 0.07833 0.52763 0.0
Co178 Co 0.38172 0.01583 0.60614 0.0
O179 O 0.41084 0.02917 0.5394 0.0
C180 C 0.5103 0.05587 0.48539 0.0
O181 O 0.53354 0.07579 0.52447 0.0
C182 C 0.30321 0.9845 0.565 0.0
O183 O 0.29923 0.00771 0.59766 0.0
O184 O 0.37632 0.06171 0.59938 0.0
O185 O 0.43406 0.10516 0.56952 0.0
H186 H 0.34448 0.04206 0.78763 0.0
H187 H 0.41398 0.02778 0.43597 0.0
O188 O 0.47735 0.05204 0.48337 0.0
H189 H 0.41713 0.1482 0.39783 0.0
H190 H 0.5634 0.17841 0.41685 0.0
H191 H 0.50406 0.14426 0.59709 0.0
H192 H 0.44789 0.14129 0.47915 0.0
H193 H 0.50543 0.11685 0.43189 0.0
O194 O 0.33485 0.98538 0.56204 0.0
H195 H 0.38168 0.05818 0.70338 0.0
H196 H 0.31765 0.94384 0.65061 0.0
H197 H 0.56196 0.20618 0.58379 0.0
H198 H 0.38334 0.03359 0.35368 0.0
H199 H 0.59204 0.22359 0.49314 0.0
H200 H 0.38469 0.09411 0.33422 0.0
O201 O 0.47895 0.07179 0.59552 0.0
H202 H 0.38135 0.89969 0.5361 0.0
H203 H 0.40395 0.98121 0.69508 0.0
H204 H 0.41301 0.9259 0.70254 0.0
H205 H 0.4015 0.88456 0.62272 0.0
H206 H 0.37313 0.95562 0.53021 0.0
H207 H 0.27972 0.92648 0.73429 0.0
H208 H 0.29308 0.97578 0.80352 0.0
O209 O 0.42837 0.04542 0.65054 0.0
C210 C 0.40165 0.09598 0.58946 0.0
C211 C 0.33839 0.02032 0.75778 0.0
C212 C 0.30205 0.95545 0.72785 0.0
N213 N 0.35187 1.00201 0.67212 0.0
C214 C 0.35937 0.02928 0.71 0.0
C215 C 0.32361 0.96545 0.68055 0.0
C216 C 0.30956 0.98313 0.76667 0.0
C217 C 0.41487 0.05429 0.42773 0.0
N218 N 0.43269 0.08417 0.46255 0.0
C219 C 0.39739 0.05737 0.38108 0.0
C220 C 0.39812 0.09132 0.37021 0.0
C221 C 0.41627 0.12165 0.40591 0.0
C222 C 0.43344 0.11751 0.45214 0.0
C223 C 0.55056 0.17116 0.45654 0.0
C224 C 0.51695 0.15166 0.55751 0.0
C225 C 0.51775 0.13634 0.46532 0.0
N226 N 0.50135 0.12698 0.51535 0.0
C227 C 0.54974 0.18675 0.55022 0.0
C228 C 0.56661 0.19649 0.49935 0.0
C229 C 0.46403 0.06172 0.64249 0.0
C230 C 0.38636 0.91744 0.5712 0.0
C231 C 0.39918 0.96359 0.66004 0.0
C232 C 0.4042 0.93219 0.66457 0.0
C233 C 0.39771 0.90899 0.61979 0.0
N234 N 0.38788 0.97162 0.61231 0.0
C235 C 0.38164 0.94909 0.56817 0.0
Co236 Co 0.42916 0.45796 0.70949 0.0
Co237 Co 0.41819 0.38178 0.78366 0.0
O238 O 0.43317 0.4119 0.71656 0.0
C239 C 0.49899 0.47389 0.64394 0.0
O240 O 0.49581 0.44122 0.65716 0.0
C241 C 0.38567 0.32335 0.69577 0.0
O242 O 0.37987 0.3464 0.66555 0.0
O243 O 0.36677 0.37561 0.77871 0.0
O244 O 0.38175 0.43453 0.75431 0.0
H245 H 0.3581 0.34489 0.96737 0.0
H246 H 0.43264 0.41711 0.61054 0.0
O247 O 0.47623 0.48387 0.66317 0.0
H248 H 0.31661 0.42483 0.59095 0.0
H249 H 0.43654 0.57034 0.61248 0.0
H250 H 0.41117 0.50266 0.78623 0.0
H251 H 0.35716 0.45171 0.67091 0.0
H252 H 0.44009 0.5118 0.61986 0.0
O253 O 0.40035 0.33349 0.74237 0.0
H254 H 0.37819 0.38244 0.88336 0.0
H255 H 0.42486 0.31639 0.825 0.0
H256 H 0.40697 0.56092 0.78047 0.0
H257 H 0.39351 0.39076 0.5295 0.0
H258 H 0.41972 0.59519 0.69311 0.0
H259 H 0.33481 0.3943 0.51921 0.0
O260 O 0.46076 0.4798 0.77562 0.0
H261 H 0.53187 0.37967 0.70975 0.0
H262 H 0.47641 0.40462 0.87066 0.0
H263 H 0.54065 0.41345 0.87578 0.0
H264 H 0.56879 0.40085 0.79493 0.0
H265 H 0.46788 0.37168 0.70629 0.0
H266 H 0.40502 0.27797 0.90821 0.0
H267 H 0.37152 0.29223 0.98023 0.0
O268 O 0.43574 0.42845 0.82878 0.0
C269 C 0.35824 0.40151 0.77216 0.0
C270 C 0.37278 0.33847 0.93636 0.0
C271 C 0.39907 0.30089 0.90313 0.0
N272 N 0.40294 0.35184 0.84946 0.0
C273 C 0.3843 0.35969 0.88874 0.0
C274 C 0.41017 0.32271 0.85604 0.0
C275 C 0.38028 0.30891 0.94353 0.0
C276 C 0.40783 0.41972 0.60617 0.0
N277 N 0.39785 0.43674 0.64536 0.0
C278 C 0.38543 0.4043 0.56023 0.0
C279 C 0.35245 0.40618 0.55456 0.0
C280 C 0.34222 0.42326 0.59479 0.0
C281 C 0.3653 0.43836 0.64015 0.0
C282 C 0.43088 0.55564 0.65075 0.0
C283 C 0.41656 0.51729 0.748 0.0
C284 C 0.43297 0.52253 0.65525 0.0
N285 N 0.42564 0.50367 0.7034 0.0
C286 C 0.41423 0.55032 0.74501 0.0
C287 C 0.42142 0.56955 0.696 0.0
C288 C 0.45555 0.46424 0.82197 0.0
C289 C 0.51995 0.3853 0.74524 0.0
C290 C 0.48859 0.39952 0.83514 0.0
C291 C 0.52491 0.40434 0.83837 0.0
C292 C 0.54066 0.39722 0.79302 0.0
N293 N 0.46848 0.38794 0.78808 0.0
C294 C 0.48369 0.38077 0.74355 0.0
Co295 Co 0.01593 0.43255 0.88496 0.0
Co296 Co 0.08291 0.42027 0.94939 0.0
O297 O 0.06557 0.43613 0.88615 0.0
C298 C 0.06785 0.50172 0.8171 0.0
O299 O 0.09723 0.49773 0.82699 0.0
C300 C 0.11317 0.37438 0.89998 0.0
O301 O 0.09106 0.34665 0.93273 0.0
O302 O 0.03767 0.36869 0.94374 0.0
O303 O 0.9933 0.38475 0.92915 0.0
H304 H 0.0664 0.35425 0.12718 0.0
H305 H 0.05693 0.43373 0.78355 0.0
O306 O 0.03586 0.47983 0.83917 0.0
H307 H 0.92981 0.32143 0.76758 0.0
H308 H 0.90848 0.44259 0.80206 0.0
H309 H 0.95687 0.41472 0.9679 0.0
H310 H 0.94708 0.3623 0.84792 0.0
H311 H 0.97011 0.44506 0.80187 0.0
O312 O 0.1119 0.40507 0.89957 0.0
H313 H 0.04569 0.37563 0.04776 0.0
H314 H 0.15741 0.42975 0.98423 0.0
H315 H 0.8949 0.41153 0.96968 0.0
H316 H 0.04065 0.39407 0.70232 0.0
H317 H 0.87033 0.42554 0.88633 0.0
H318 H 0.97666 0.33734 0.69375 0.0
O319 O 0.02929 0.46401 0.95199 0.0
H320 H 0.19624 0.53706 0.87594 0.0
H321 H 0.11928 0.47693 0.03834 0.0
H322 H 0.17407 0.54162 0.04448 0.0
H323 H 0.21309 0.57211 0.96292 0.0
H324 H 0.14088 0.47259 0.87139 0.0
H325 H 0.17933 0.40892 0.06294 0.0
H326 H 0.13367 0.3709 0.13514 0.0
O327 O 0.0547 0.43579 1.00024 0.0
C328 C 1.00315 0.36041 0.94137 0.0
C329 C 0.08657 0.37082 0.09601 0.0
C330 C 0.14995 0.40152 0.05997 0.0
N331 N 0.1003 0.40398 0.01144 0.0
C332 C 0.07501 0.38302 0.05094 0.0
C333 C 0.13738 0.41324 0.01551 0.0
C334 C 0.12432 0.38018 0.10045 0.0
C335 C 0.02882 0.40972 0.78006 0.0
N336 N 1.00274 0.40122 0.82021 0.0
C337 C 0.01984 0.38706 0.73395 0.0
C338 C 0.98397 0.35519 0.72921 0.0
C339 C 0.95769 0.34626 0.77059 0.0
C340 C 0.96768 0.3696 0.81606 0.0
C341 C 0.91886 0.43639 0.83862 0.0
C342 C 0.94629 0.42065 0.93138 0.0
C343 C 0.95382 0.43788 0.83883 0.0
N344 N 0.96701 0.42983 0.88479 0.0
C345 C 0.91121 0.41889 0.93267 0.0
C346 C 0.89746 0.42679 0.88591 0.0
C347 C 0.04018 0.45717 0.99682 0.0
C348 C 0.17944 0.5241 0.91175 0.0
C349 C 0.13578 0.49011 1.00247 0.0
C350 C 0.16695 0.5267 1.0063 0.0
C351 C 0.18886 0.54377 0.96055 0.0
N352 N 0.12664 0.471 0.95441 0.0
C353 C 0.14808 0.48755 0.90945 0.0
H354 H 0.65888 0.04623 0.24614 0.0
H355 H 0.47329 0.02416 0.39028 0.0
H356 H 0.55604 0.01687 0.15938 0.0
H357 H 0.58022 0.06274 0.47074 0.0
H358 H 0.50018 0.01406 0.30791 0.0
H359 H 0.62769 0.04528 0.33012 0.0
C360 C 0.6296 0.03939 0.24458 0.0
C361 C 0.61025 0.03198 0.19511 0.0
C362 C 0.51764 0.02438 0.34372 0.0
C363 C 0.57412 0.0309 0.29232 0.0
C364 C 0.50227 0.03002 0.39099 0.0
C365 C 0.52458 0.04456 0.43771 0.0
C366 C 0.55561 0.03324 0.34298 0.0
C367 C 0.56195 0.05164 0.43585 0.0
C368 C 0.61177 0.03885 0.29287 0.0
C369 C 0.57219 0.02294 0.19635 0.0
N370 N 0.57629 0.04614 0.38927 0.0
N371 N 0.55545 0.02291 0.24412 0.0
H372 H 0.63672 0.65526 0.4236 0.0
H373 H 0.52817 0.45068 0.56165 0.0
H374 H 0.60027 0.55298 0.33052 0.0
H375 H 0.52703 0.54915 0.62376 0.0
H376 H 0.56425 0.48815 0.48275 0.0
H377 H 0.60642 0.61698 0.50287 0.0
C378 C 0.62231 0.6247 0.41953 0.0
C379 C 0.62065 0.60746 0.36957 0.0
C380 C 0.55629 0.5015 0.51395 0.0
C381 C 0.58609 0.56317 0.46166 0.0
C382 C 0.53605 0.4803 0.55919 0.0
C383 C 0.52466 0.49687 0.59948 0.0
C384 C 0.56575 0.53965 0.50954 0.0
C385 C 0.53518 0.5352 0.59377 0.0
C386 C 0.60499 0.60283 0.46516 0.0
C387 C 0.60199 0.56758 0.36787 0.0
N388 N 0.55515 0.55523 0.54982 0.0
N389 N 0.5854 0.54674 0.41328 0.0
H390 H 0.02151 0.53129 0.80202 0.0
H391 H 0.08613 0.60045 0.50004 0.0
H392 H 0.11678 0.52868 0.73079 0.0
H393 H 0.02734 0.64129 0.60053 0.0
H394 H 0.0946 0.56946 0.57998 0.0
H395 H 0.01975 0.56722 0.72424 0.0
C396 C 0.04235 0.53866 0.77025 0.0
C397 C 0.06949 0.52719 0.77312 0.0
C398 C 0.08 0.5854 0.5842 0.0
C399 C 0.0671 0.56767 0.68313 0.0
C400 C 0.07503 0.60296 0.53863 0.0
C401 C 0.05555 0.6232 0.5431 0.0
C402 C 0.06495 0.58771 0.63428 0.0
C403 C 0.04209 0.62568 0.59445 0.0
C404 C 0.04131 0.55914 0.7258 0.0
C405 C 0.09564 0.53734 0.73049 0.0
N406 N 0.04673 0.60793 0.63762 0.0
N407 N 0.09355 0.55665 0.6869 0.0
H408 H 0.53928 0.02664 0.94996 0.0
H409 H 0.54235 0.09736 0.64952 0.0
H410 H 0.64014 0.12072 0.88249 0.0
H411 H 0.44088 0.04045 0.74664 0.0
H412 H 0.57991 0.1034 0.73056 0.0
H413 H 0.50343 0.02804 0.87188 0.0
C414 C 0.55379 0.04791 0.919 0.0
C415 C 0.59271 0.07376 0.923 0.0
C416 C 0.5494 0.08978 0.73384 0.0
C417 C 0.55197 0.07495 0.8326 0.0
C418 C 0.52795 0.08622 0.68761 0.0
C419 C 0.48825 0.06793 0.69076 0.0
C420 C 0.53098 0.0745 0.78327 0.0
C421 C 0.47126 0.05432 0.74156 0.0
C422 C 0.53334 0.04868 0.87436 0.0
C423 C 0.61009 0.10053 0.88135 0.0
N424 N 0.49261 0.05754 0.78537 0.0
N425 N 0.58971 0.10016 0.83753 0.0
H426 H 0.56191 0.64394 0.06413 0.0
H427 H 0.45481 0.43981 0.92499 0.0
H428 H 0.56162 0.54519 0.12791 0.0
H429 H 0.49434 0.54262 0.83197 0.0
H430 H 0.48371 0.47768 1.00506 0.0
H431 H 0.5268 0.60659 0.98473 0.0
C432 C 0.5538 0.61424 0.06199 0.0
C433 C 0.56456 0.59757 0.10281 0.0
C434 C 0.48613 0.49202 0.96718 0.0
C435 C 0.5247 0.55497 0.01229 0.0
C436 C 0.46966 0.4704 0.92111 0.0
C437 C 0.47259 0.48793 0.87099 0.0
C438 C 0.50538 0.5317 0.9639 0.0
C439 C 0.49172 0.52782 0.86945 0.0
C440 C 0.53416 0.59313 0.01645 0.0
C441 C 0.55387 0.55917 0.09748 0.0
N442 N 0.5074 0.5484 0.91527 0.0
N443 N 0.53453 0.53922 0.0532 0.0
H444 H 0.05445 0.44353 0.09976 0.0
H445 H 0.01538 0.59781 0.24008 0.0
H446 H 0.01568 0.50897 0.01102 0.0
H447 H 0.05376 0.53062 0.32483 0.0
H448 H 0.01017 0.56259 0.15733 0.0
H449 H 0.04984 0.47242 0.18305 0.0
C450 C 0.04486 0.46396 0.09761 0.0
C451 C 0.03572 0.47395 0.04783 0.0
C452 C 0.01935 0.5553 0.19416 0.0
C453 C 0.03037 0.50745 0.14421 0.0
C454 C 0.02215 0.57528 0.24161 0.0
C455 C 0.0352 0.56733 0.28969 0.0
C456 C 0.02967 0.52715 0.19464 0.0
C457 C 0.04371 0.53791 0.28888 0.0
C458 C 0.04218 0.48046 0.14551 0.0
C459 C 0.02321 0.50047 0.04826 0.0
N460 N 0.04104 0.51915 0.24216 0.0
N461 N 0.02111 0.51646 0.09564 0.0
H462 H 0.73186 0.83882 0.24982 0.0
H463 H 0.64487 0.92237 0.05386 0.0
H464 H 0.69365 0.78846 0.09269 0.0
H465 H 0.74669 0.99961 0.13993 0.0
H466 H 0.65652 0.87061 0.07472 0.0
H467 H 0.73306 0.89647 0.21769 0.0
C468 C 0.72434 0.84022 0.20827 0.0
C469 C 0.71279 0.80903 0.17366 0.0
C470 C 0.67652 0.899 0.08842 0.0
C471 C 0.71292 0.87409 0.13751 0.0
C472 C 0.66991 0.92866 0.07662 0.0
C473 C 0.69504 0.96567 0.09457 0.0
C474 C 0.70778 0.90596 0.12002 0.0
C475 C 0.72665 0.97164 0.12495 0.0
C476 C 0.72509 0.87304 0.19005 0.0
C477 C 0.70305 0.81207 0.12038 0.0
N478 N 0.73182 0.94194 0.13749 0.0
N479 N 0.70256 0.84378 0.10418 0.0
H480 H 0.95388 0.70979 0.27498 0.0
H481 H 0.78425 0.74817 0.33987 0.0
H482 H 0.93046 0.73092 0.43724 0.0
H483 H 0.77404 0.66343 0.22561 0.0
H484 H 0.84749 0.75946 0.36415 0.0
H485 H 0.89736 0.71117 0.24367 0.0
C486 C 0.93735 0.71558 0.3037 0.0
C487 C 0.94657 0.72004 0.35872 0.0
C488 C 0.83137 0.73878 0.33326 0.0
C489 C 0.88263 0.72205 0.32334 0.0
C490 C 0.79539 0.73233 0.31932 0.0
C491 C 0.77367 0.70478 0.28051 0.0
C492 C 0.84604 0.71827 0.30718 0.0
C493 C 0.78959 0.685 0.25548 0.0
C494 C 0.90509 0.71612 0.28595 0.0
C495 C 0.92405 0.7271 0.39449 0.0
N496 N 0.82482 0.69223 0.26904 0.0
N497 N 0.89306 0.72789 0.3762 0.0
H498 H 0.07753 0.79659 0.4986 0.0
H499 H 0.30238 0.93466 0.49057 0.0
H500 H 0.157 0.76877 0.42614 0.0
H501 H 0.22776 0.96089 0.58094 0.0
H502 H 0.24766 0.87708 0.45761 0.0
H503 H 0.13054 0.8595 0.52171 0.0
C504 C 0.10598 0.80368 0.48726 0.0
C505 C 0.11267 0.77718 0.4603 0.0
C506 C 0.2431 0.89548 0.48435 0.0
C507 C 0.17332 0.84911 0.48642 0.0
C508 C 0.27442 0.92854 0.50308 0.0
C509 C 0.26974 0.95257 0.53898 0.0
C510 C 0.20663 0.88607 0.50167 0.0
C511 C 0.23272 0.94316 0.55339 0.0
C512 C 0.1362 0.8396 0.50048 0.0
C513 C 0.15022 0.78805 0.44679 0.0
N514 N 0.20255 0.91044 0.53507 0.0
N515 N 0.17896 0.82302 0.46001 0.0
H516 H 0.39578 0.30613 0.59246 0.0
H517 H 0.3455 0.09364 0.65426 0.0
H518 H 0.36219 0.25783 0.75176 0.0
H519 H 0.44028 0.16967 0.55439 0.0
H520 H 0.33516 0.14669 0.67639 0.0
H521 H 0.39478 0.24794 0.56266 0.0
C522 C 0.38732 0.28293 0.62071 0.0
C523 C 0.3792 0.28669 0.6746 0.0
C524 C 0.35786 0.15135 0.64909 0.0
C525 C 0.37765 0.22042 0.64089 0.0
C526 C 0.3638 0.1212 0.6364 0.0
C527 C 0.39372 0.12702 0.60208 0.0
C528 C 0.38135 0.18721 0.62618 0.0
C529 C 0.41665 0.16353 0.58047 0.0
C530 C 0.38703 0.24998 0.60386 0.0
C531 C 0.36883 0.25601 0.70989 0.0
N532 N 0.40985 0.19212 0.5926 0.0
N533 N 0.36832 0.22409 0.69244 0.0
H534 H 0.16309 0.42616 0.82803 0.0
H535 H 0.29933 0.33711 0.81812 0.0
H536 H 0.13606 0.3214 0.90825 0.0
H537 H 0.32918 0.44876 0.76009 0.0
H538 H 0.23653 0.3267 0.84283 0.0
H539 H 0.22048 0.4299 0.79235 0.0
C540 C 0.16897 0.40366 0.83768 0.0
C541 C 0.1448 0.37359 0.87166 0.0
C542 C 0.25686 0.35334 0.82438 0.0
C543 C 0.21104 0.37796 0.83123 0.0
C544 C 0.29272 0.35933 0.81027 0.0
C545 C 0.31974 0.39386 0.78685 0.0
C546 C 0.24793 0.38201 0.81475 0.0
C547 C 0.30947 0.42162 0.77781 0.0
C548 C 0.20191 0.4059 0.81742 0.0
C549 C 0.15391 0.34517 0.88237 0.0
N550 N 0.27454 0.41507 0.79176 0.0
N551 N 0.1865 0.34822 0.86262 0.0
H552 H 0.00963 0.29925 0.97559 0.0
H553 H 0.78511 0.15952 0.97796 0.0
H554 H 0.92674 0.33186 0.93575 0.0
H555 H 0.86203 0.13126 0.05712 0.0
H556 H 0.83884 0.21914 0.94812 0.0
H557 H 0.95775 0.23467 0.99443 0.0
C558 C 0.98067 0.29291 0.97058 0.0
C559 C 0.97268 0.32116 0.95378 0.0
C560 C 0.84408 0.19982 0.97167 0.0
C561 C 0.91342 0.24738 0.97465 0.0
C562 C 0.81335 0.1656 0.98853 0.0
C563 C 0.81896 0.14044 0.02066 0.0
C564 C 0.88089 0.20921 0.98694 0.0
C565 C 0.85635 0.14985 0.03259 0.0
C566 C 0.95113 0.25606 0.9813 0.0
C567 C 0.93454 0.31121 0.94819 0.0
N568 N 0.88594 0.1837 0.01614 0.0
N569 N 0.90651 0.27528 0.95845 0.0
loop_
_geom_bond_atom_site_label_1
_geom_bond_atom_site_label_2
_geom_bond_distance
_geom_bond_site_symmetry_2
_ccdc_geom_bond_type
Co0 O2 2.143 . S
Co0 O8 2.074 1_545 S
Co0 O11 2.093 1_554 S
Co0 O24 2.097 . S
Co0 N41 2.151 1_544 S
Co0 N49 2.214 1_545 S
Co1 O2 2.160 . S
Co1 O7 2.058 . S
Co1 O17 2.057 . S
Co1 O32 2.037 . S
Co1 N36 2.145 . S
Co1 N57 2.257 . S
O2 Co0 2.143 . S
O2 Co1 2.160 . S
C3 O4 1.278 . S
C3 O11 1.224 . S
O4 C3 1.278 . S
C5 O6 1.245 1_554 S
C5 O17 1.232 . S
O6 C5 1.245 1_556 S
O7 Co1 2.058 . S
O7 C33 1.269 . S
O8 Co0 2.074 1_565 S
O8 C33 1.257 1_565 S
H9 C34 0.930 . S
H10 C40 0.930 . S
O11 Co0 2.093 1_556 S
O11 C3 1.224 . S
H12 C44 0.929 . S
H13 C46 0.930 1_556 S
H14 C47 0.930 . S
H15 C45 0.929 . S
H16 C48 0.928 1_556 S
O17 Co1 2.057 . S
O17 C5 1.232 . S
H18 C37 0.929 . S
H19 C38 0.929 . S
H20 C50 0.931 . S
H21 C42 0.929 1_545 S
H22 C51 0.930 . S
H23 C43 0.931 . S
O24 Co0 2.097 . S
O24 C52 1.214 . S
H25 C53 0.929 . S
H26 C54 0.929 . S
H27 C55 0.930 . S
H28 C56 0.929 . S
H29 C58 0.930 . S
H30 C35 0.930 . S
H31 C39 0.930 . S
O32 Co1 2.037 . S
O32 C52 1.234 . S
C33 O7 1.269 . S
C33 O8 1.257 1_545 S
C34 H9 0.930 . S
C34 C37 1.388 . S
C34 C39 1.418 . S
C35 H30 0.930 . S
C35 C38 1.404 . S
C35 C39 1.353 . S
N36 Co1 2.145 . S
N36 C37 1.397 . S
N36 C38 1.334 . S
C37 H18 0.929 . S
C37 C34 1.388 . S
C37 N36 1.397 . S
C38 H19 0.929 . S
C38 C35 1.404 . S
C38 N36 1.334 . S
C39 H31 0.930 . S
C39 C34 1.418 . S
C39 C35 1.353 . S
C40 H10 0.930 . S
C40 N41 1.330 1_545 S
C40 C42 1.446 1_545 S
N41 Co0 2.151 1_566 S
N41 C40 1.330 1_565 S
N41 C45 1.418 . S
C42 H21 0.929 1_565 S
C42 C40 1.446 1_565 S
C42 C43 1.332 . S
C43 H23 0.931 . S
C43 C42 1.332 . S
C43 C44 1.267 . S
C44 H12 0.929 . S
C44 C43 1.267 . S
C44 C45 1.251 . S
C45 H15 0.929 . S
C45 N41 1.418 . S
C45 C44 1.251 . S
C46 H13 0.930 1_554 S
C46 C48 1.406 . S
C46 C51 1.261 . S
C47 H14 0.930 . S
C47 N49 1.325 . S
C47 C50 1.357 . S
C48 H16 0.928 1_554 S
C48 C46 1.406 . S
C48 N49 1.261 . S
N49 Co0 2.214 1_565 S
N49 C47 1.325 . S
N49 C48 1.261 . S
C50 H20 0.931 . S
C50 C47 1.357 . S
C50 C51 1.312 . S
C51 H22 0.930 . S
C51 C46 1.261 . S
C51 C50 1.312 . S
C52 O24 1.214 . S
C52 O32 1.234 . S
C53 H25 0.929 . S
C53 C56 1.391 . S
C53 C58 1.391 . S
C54 H26 0.929 . S
C54 C55 1.390 . S
C54 N57 1.391 . S
C55 H27 0.930 . S
C55 C54 1.390 . S
C55 C56 1.392 . S
C56 H28 0.929 . S
C56 C53 1.391 . S
C56 C55 1.392 . S
N57 Co1 2.257 . S
N57 C54 1.391 . S
N57 C58 1.388 . S
C58 H29 0.930 . S
C58 C53 1.391 . S
C58 N57 1.388 . S
Co59 O61 2.143 . S
Co59 O67 2.074 . S
Co59 O70 2.093 . S
Co59 O83 2.097 . S
Co59 N100 2.151 . S
Co59 N108 2.214 . S
Co60 O61 2.160 . S
Co60 O66 2.058 . S
Co60 O76 2.057 . S
Co60 O91 2.037 . S
Co60 N95 2.145 . S
Co60 N116 2.257 . S
O61 Co59 2.143 . S
O61 Co60 2.160 . S
C62 O63 1.278 . S
C62 O70 1.224 . S
O63 C62 1.278 . S
C64 O65 1.245 . S
C64 O76 1.232 . S
O65 C64 1.245 . S
O66 Co60 2.058 . S
O66 C92 1.269 . S
O67 Co59 2.074 . S
O67 C92 1.257 . S
H68 C93 0.930 . S
H69 C99 0.930 . S
O70 Co59 2.093 . S
O70 C62 1.224 . S
H71 C103 0.929 . S
H72 C105 0.930 . S
H73 C106 0.930 . S
H74 C104 0.929 . S
H75 C107 0.928 . S
O76 Co60 2.057 . S
O76 C64 1.232 . S
H77 C96 0.929 . S
H78 C97 0.929 . S
H79 C109 0.931 . S
H80 C101 0.929 . S
H81 C110 0.930 . S
H82 C102 0.931 . S
O83 Co59 2.097 . S
O83 C111 1.214 . S
H84 C112 0.929 . S
H85 C113 0.929 . S
H86 C114 0.930 . S
H87 C115 0.929 . S
H88 C117 0.930 . S
H89 C94 0.930 . S
H90 C98 0.930 . S
O91 Co60 2.037 . S
O91 C111 1.234 . S
C92 O66 1.269 . S
C92 O67 1.257 . S
C93 H68 0.930 . S
C93 C96 1.388 . S
C93 C98 1.418 . S
C94 H89 0.930 . S
C94 C97 1.404 . S
C94 C98 1.353 . S
N95 Co60 2.145 . S
N95 C96 1.397 . S
N95 C97 1.334 . S
C96 H77 0.929 . S
C96 C93 1.388 . S
C96 N95 1.397 . S
C97 H78 0.929 . S
C97 C94 1.404 . S
C97 N95 1.334 . S
C98 H90 0.930 . S
C98 C93 1.418 . S
C98 C94 1.353 . S
C99 H69 0.930 . S
C99 N100 1.330 . S
C99 C101 1.446 . S
N100 Co59 2.151 . S
N100 C99 1.330 . S
N100 C104 1.418 . S
C101 H80 0.929 . S
C101 C99 1.446 . S
C101 C102 1.332 . S
C102 H82 0.931 . S
C102 C101 1.332 . S
C102 C103 1.267 . S
C103 H71 0.929 . S
C103 C102 1.267 . S
C103 C104 1.251 . S
C104 H74 0.929 . S
C104 N100 1.418 . S
C104 C103 1.251 . S
C105 H72 0.930 . S
C105 C107 1.406 . S
C105 C110 1.261 . S
C106 H73 0.930 . S
C106 N108 1.325 . S
C106 C109 1.357 . S
C107 H75 0.928 . S
C107 C105 1.406 . S
C107 N108 1.261 . S
N108 Co59 2.214 . S
N108 C106 1.325 . S
N108 C107 1.261 . S
C109 H79 0.931 . S
C109 C106 1.357 . S
C109 C110 1.312 . S
C110 H81 0.930 . S
C110 C105 1.261 . S
C110 C109 1.312 . S
C111 O83 1.214 . S
C111 O91 1.234 . S
C112 H84 0.929 . S
C112 C115 1.391 . S
C112 C117 1.391 . S
C113 H85 0.929 . S
C113 C114 1.390 . S
C113 N116 1.391 . S
C114 H86 0.930 . S
C114 C113 1.390 . S
C114 C115 1.392 . S
C115 H87 0.929 . S
C115 C112 1.391 . S
C115 C114 1.392 . S
N116 Co60 2.257 . S
N116 C113 1.391 . S
N116 C117 1.388 . S
C117 H88 0.930 . S
C117 C112 1.391 . S
C117 N116 1.388 . S
Co118 O120 2.143 . S
Co118 O126 2.074 . S
Co118 O129 2.093 . S
Co118 O142 2.097 . S
Co118 N159 2.151 . S
Co118 N167 2.214 . S
Co119 O120 2.160 1_655 S
Co119 O125 2.058 1_655 S
Co119 O135 2.057 . S
Co119 O150 2.037 1_655 S
Co119 N154 2.145 . S
Co119 N175 2.257 . S
O120 Co118 2.143 . S
O120 Co119 2.160 1_455 S
C121 O122 1.278 1_455 S
C121 O129 1.224 . S
O122 C121 1.278 1_655 S
C123 O124 1.245 . S
C123 O135 1.232 . S
O124 C123 1.245 . S
O125 Co119 2.058 1_455 S
O125 C151 1.269 . S
O126 Co118 2.074 . S
O126 C151 1.257 . S
H127 C152 0.930 . S
H128 C158 0.930 . S
O129 Co118 2.093 . S
O129 C121 1.224 . S
H130 C162 0.929 . S
H131 C164 0.930 . S
H132 C165 0.930 . S
H133 C163 0.929 . S
H134 C166 0.928 . S
O135 Co119 2.057 . S
O135 C123 1.232 . S
H136 C155 0.929 1_455 S
H137 C156 0.929 . S
H138 C168 0.931 . S
H139 C160 0.929 . S
H140 C169 0.930 . S
H141 C161 0.931 . S
O142 Co118 2.097 . S
O142 C170 1.214 . S
H143 C171 0.929 . S
H144 C172 0.929 . S
H145 C173 0.930 . S
H146 C174 0.929 . S
H147 C176 0.930 . S
H148 C153 0.930 . S
H149 C157 0.930 . S
O150 Co119 2.037 1_455 S
O150 C170 1.234 . S
C151 O125 1.269 . S
C151 O126 1.257 . S
C152 H127 0.930 . S
C152 C155 1.388 . S
C152 C157 1.418 . S
C153 H148 0.930 . S
C153 C156 1.404 . S
C153 C157 1.353 . S
N154 Co119 2.145 . S
N154 C155 1.397 . S
N154 C156 1.334 . S
C155 H136 0.929 1_655 S
C155 C152 1.388 . S
C155 N154 1.397 . S
C156 H137 0.929 . S
C156 C153 1.404 . S
C156 N154 1.334 . S
C157 H149 0.930 . S
C157 C152 1.418 . S
C157 C153 1.353 . S
C158 H128 0.930 . S
C158 N159 1.330 . S
C158 C160 1.446 . S
N159 Co118 2.151 . S
N159 C158 1.330 . S
N159 C163 1.418 . S
C160 H139 0.929 . S
C160 C158 1.446 . S
C160 C161 1.332 . S
C161 H141 0.931 . S
C161 C160 1.332 . S
C161 C162 1.267 . S
C162 H130 0.929 . S
C162 C161 1.267 . S
C162 C163 1.251 . S
C163 H133 0.929 . S
C163 N159 1.418 . S
C163 C162 1.251 . S
C164 H131 0.930 . S
C164 C166 1.406 . S
C164 C169 1.261 . S
C165 H132 0.930 . S
C165 N167 1.325 . S
C165 C168 1.357 . S
C166 H134 0.928 . S
C166 C164 1.406 . S
C166 N167 1.261 . S
N167 Co118 2.214 . S
N167 C165 1.325 . S
N167 C166 1.261 . S
C168 H138 0.931 . S
C168 C165 1.357 . S
C168 C169 1.312 . S
C169 H140 0.930 . S
C169 C164 1.261 . S
C169 C168 1.312 . S
C170 O142 1.214 . S
C170 O150 1.234 . S
C171 H143 0.929 . S
C171 C174 1.391 . S
C171 C176 1.391 . S
C172 H144 0.929 . S
C172 C173 1.390 . S
C172 N175 1.391 . S
C173 H145 0.930 . S
C173 C172 1.390 . S
C173 C174 1.392 . S
C174 H146 0.929 . S
C174 C171 1.391 . S
C174 C173 1.392 . S
N175 Co119 2.257 . S
N175 C172 1.391 . S
N175 C176 1.388 . S
C176 H147 0.930 . S
C176 C171 1.391 . S
C176 N175 1.388 . S
Co177 O179 2.143 . S
Co177 O185 2.074 . S
Co177 O188 2.093 . S
Co177 O201 2.097 . S
Co177 N218 2.151 . S
Co177 N226 2.214 . S
Co178 O179 2.160 . S
Co178 O184 2.059 . S
Co178 O194 2.057 1_545 S
Co178 O209 2.037 . S
Co178 N213 2.144 1_545 S
Co178 N234 2.256 1_545 S
O179 Co177 2.143 . S
O179 Co178 2.160 . S
C180 O181 1.278 1_545 S
C180 O188 1.224 . S
O181 C180 1.278 1_565 S
C182 O183 1.245 . S
C182 O194 1.232 . S
O183 C182 1.245 . S
O184 Co178 2.059 . S
O184 C210 1.269 . S
O185 Co177 2.074 . S
O185 C210 1.257 . S
H186 C211 0.930 . S
H187 C217 0.930 . S
O188 Co177 2.093 . S
O188 C180 1.224 . S
H189 C221 0.929 . S
H190 C223 0.930 . S
H191 C224 0.930 . S
H192 C222 0.929 . S
H193 C225 0.928 . S
O194 Co178 2.057 1_565 S
O194 C182 1.232 . S
H195 C214 0.929 1_545 S
H196 C215 0.929 . S
H197 C227 0.931 . S
H198 C219 0.929 . S
H199 C228 0.930 . S
H200 C220 0.931 . S
O201 Co177 2.097 . S
O201 C229 1.214 . S
H202 C230 0.929 . S
H203 C231 0.929 . S
H204 C232 0.930 . S
H205 C233 0.929 . S
H206 C235 0.930 . S
H207 C212 0.930 . S
H208 C216 0.930 . S
O209 Co178 2.037 . S
O209 C229 1.234 . S
C210 O184 1.269 . S
C210 O185 1.257 . S
C211 H186 0.930 . S
C211 C214 1.388 . S
C211 C216 1.418 . S
C212 H207 0.930 . S
C212 C215 1.404 . S
C212 C216 1.353 . S
N213 Co178 2.144 1_565 S
N213 C214 1.397 . S
N213 C215 1.334 . S
C214 H195 0.929 1_565 S
C214 C211 1.388 . S
C214 N213 1.397 . S
C215 H196 0.929 . S
C215 C212 1.404 . S
C215 N213 1.334 . S
C216 H208 0.930 . S
C216 C211 1.418 . S
C216 C212 1.353 . S
C217 H187 0.930 . S
C217 N218 1.330 . S
C217 C219 1.446 . S
N218 Co177 2.151 . S
N218 C217 1.330 . S
N218 C222 1.418 . S
C219 H198 0.929 . S
C219 C217 1.446 . S
C219 C220 1.332 . S
C220 H200 0.931 . S
C220 C219 1.332 . S
C220 C221 1.267 . S
C221 H189 0.929 . S
C221 C220 1.267 . S
C221 C222 1.251 . S
C222 H192 0.929 . S
C222 N218 1.418 . S
C222 C221 1.251 . S
C223 H190 0.930 . S
C223 C225 1.406 . S
C223 C228 1.261 . S
C224 H191 0.930 . S
C224 N226 1.325 . S
C224 C227 1.357 . S
C225 H193 0.928 . S
C225 C223 1.406 . S
C225 N226 1.261 . S
N226 Co177 2.214 . S
N226 C224 1.325 . S
N226 C225 1.261 . S
C227 H197 0.931 . S
C227 C224 1.357 . S
C227 C228 1.312 . S
C228 H199 0.930 . S
C228 C223 1.261 . S
C228 C227 1.312 . S
C229 O201 1.214 . S
C229 O209 1.234 . S
C230 H202 0.929 . S
C230 C233 1.391 . S
C230 C235 1.391 . S
C231 H203 0.929 . S
C231 C232 1.390 . S
C231 N234 1.391 . S
C232 H204 0.930 . S
C232 C231 1.390 . S
C232 C233 1.392 . S
C233 H205 0.929 . S
C233 C230 1.391 . S
C233 C232 1.392 . S
N234 Co178 2.256 1_565 S
N234 C231 1.391 . S
N234 C235 1.388 . S
C235 H206 0.930 . S
C235 C230 1.391 . S
C235 N234 1.388 . S
Co236 O238 2.143 . S
Co236 O244 2.074 . S
Co236 O247 2.093 . S
Co236 O260 2.097 . S
Co236 N277 2.151 . S
Co236 N285 2.214 . S
Co237 O238 2.160 . S
Co237 O243 2.058 . S
Co237 O253 2.057 . S
Co237 O268 2.037 . S
Co237 N272 2.145 . S
Co237 N293 2.257 . S
O238 Co236 2.143 . S
O238 Co237 2.160 . S
C239 O240 1.278 . S
C239 O247 1.224 . S
O240 C239 1.278 . S
C241 O242 1.245 . S
C241 O253 1.232 . S
O242 C241 1.245 . S
O243 Co237 2.058 . S
O243 C269 1.269 . S
O244 Co236 2.074 . S
O244 C269 1.257 . S
H245 C270 0.930 . S
H246 C276 0.930 . S
O247 Co236 2.093 . S
O247 C239 1.224 . S
H248 C280 0.929 . S
H249 C282 0.930 . S
H250 C283 0.930 . S
H251 C281 0.929 . S
H252 C284 0.928 . S
O253 Co237 2.057 . S
O253 C241 1.232 . S
H254 C273 0.929 . S
H255 C274 0.929 . S
H256 C286 0.931 . S
H257 C278 0.929 . S
H258 C287 0.930 . S
H259 C279 0.931 . S
O260 Co236 2.097 . S
O260 C288 1.214 . S
H261 C289 0.929 . S
H262 C290 0.929 . S
H263 C291 0.930 . S
H264 C292 0.929 . S
H265 C294 0.930 . S
H266 C271 0.930 . S
H267 C275 0.930 . S
O268 Co237 2.037 . S
O268 C288 1.234 . S
C269 O243 1.269 . S
C269 O244 1.257 . S
C270 H245 0.930 . S
C270 C273 1.388 . S
C270 C275 1.418 . S
C271 H266 0.930 . S
C271 C274 1.404 . S
C271 C275 1.353 . S
N272 Co237 2.145 . S
N272 C273 1.397 . S
N272 C274 1.334 . S
C273 H254 0.929 . S
C273 C270 1.388 . S
C273 N272 1.397 . S
C274 H255 0.929 . S
C274 C271 1.404 . S
C274 N272 1.334 . S
C275 H267 0.930 . S
C275 C270 1.418 . S
C275 C271 1.353 . S
C276 H246 0.930 . S
C276 N277 1.330 . S
C276 C278 1.446 . S
N277 Co236 2.151 . S
N277 C276 1.330 . S
N277 C281 1.418 . S
C278 H257 0.929 . S
C278 C276 1.446 . S
C278 C279 1.332 . S
C279 H259 0.931 . S
C279 C278 1.332 . S
C279 C280 1.267 . S
C280 H248 0.929 . S
C280 C279 1.267 . S
C280 C281 1.251 . S
C281 H251 0.929 . S
C281 N277 1.418 . S
C281 C280 1.251 . S
C282 H249 0.930 . S
C282 C284 1.406 . S
C282 C287 1.261 . S
C283 H250 0.930 . S
C283 N285 1.325 . S
C283 C286 1.357 . S
C284 H252 0.928 . S
C284 C282 1.406 . S
C284 N285 1.261 . S
N285 Co236 2.214 . S
N285 C283 1.325 . S
N285 C284 1.261 . S
C286 H256 0.931 . S
C286 C283 1.357 . S
C286 C287 1.312 . S
C287 H258 0.930 . S
C287 C282 1.261 . S
C287 C286 1.312 . S
C288 O260 1.214 . S
C288 O268 1.234 . S
C289 H261 0.929 . S
C289 C292 1.391 . S
C289 C294 1.391 . S
C290 H262 0.929 . S
C290 C291 1.390 . S
C290 N293 1.391 . S
C291 H263 0.930 . S
C291 C290 1.390 . S
C291 C292 1.392 . S
C292 H264 0.929 . S
C292 C289 1.391 . S
C292 C291 1.392 . S
N293 Co237 2.257 . S
N293 C290 1.391 . S
N293 C294 1.388 . S
C294 H265 0.930 . S
C294 C289 1.391 . S
C294 N293 1.388 . S
Co295 O297 2.143 . S
Co295 O303 2.074 1_455 S
Co295 O306 2.093 . S
Co295 O319 2.097 . S
Co295 N336 2.151 1_455 S
Co295 N344 2.214 1_455 S
Co296 O297 2.160 . S
Co296 O302 2.058 . S
Co296 O312 2.057 . S
Co296 O327 2.037 . S
Co296 N331 2.145 1_556 S
Co296 N352 2.257 . S
O297 Co295 2.143 . S
O297 Co296 2.160 . S
C298 O299 1.278 . S
C298 O306 1.224 . S
O299 C298 1.278 . S
C300 O301 1.245 . S
C300 O312 1.232 . S
O301 C300 1.245 . S
O302 Co296 2.058 . S
O302 C328 1.269 . S
O303 Co295 2.074 1_655 S
O303 C328 1.257 1_655 S
H304 C329 0.930 . S
H305 C335 0.930 . S
O306 Co295 2.093 . S
O306 C298 1.224 . S
H307 C339 0.929 . S
H308 C341 0.930 . S
H309 C342 0.930 . S
H310 C340 0.929 . S
H311 C343 0.928 . S
O312 Co296 2.057 . S
O312 C300 1.232 . S
H313 C332 0.929 . S
H314 C333 0.929 1_556 S
H315 C345 0.931 . S
H316 C337 0.929 1_455 S
H317 C346 0.930 . S
H318 C338 0.931 . S
O319 Co295 2.097 . S
O319 C347 1.214 . S
H320 C348 0.929 . S
H321 C349 0.929 1_554 S
H322 C350 0.930 1_554 S
H323 C351 0.929 . S
H324 C353 0.930 . S
H325 C330 0.930 . S
H326 C334 0.930 . S
O327 Co296 2.037 . S
O327 C347 1.234 . S
C328 O302 1.269 . S
C328 O303 1.257 1_455 S
C329 H304 0.930 . S
C329 C332 1.388 . S
C329 C334 1.418 . S
C330 H325 0.930 . S
C330 C333 1.404 . S
C330 C334 1.353 . S
N331 Co296 2.145 1_554 S
N331 C332 1.397 . S
N331 C333 1.334 . S
C332 H313 0.929 . S
C332 C329 1.388 . S
C332 N331 1.397 . S
C333 H314 0.929 1_554 S
C333 C330 1.404 . S
C333 N331 1.334 . S
C334 H326 0.930 . S
C334 C329 1.418 . S
C334 C330 1.353 . S
C335 H305 0.930 . S
C335 N336 1.330 1_455 S
C335 C337 1.446 1_455 S
N336 Co295 2.151 1_655 S
N336 C335 1.330 1_655 S
N336 C340 1.418 . S
C337 H316 0.929 1_655 S
C337 C335 1.446 1_655 S
C337 C338 1.332 . S
C338 H318 0.931 . S
C338 C337 1.332 . S
C338 C339 1.267 . S
C339 H307 0.929 . S
C339 C338 1.267 . S
C339 C340 1.251 . S
C340 H310 0.929 . S
C340 N336 1.418 . S
C340 C339 1.251 . S
C341 H308 0.930 . S
C341 C343 1.406 . S
C341 C346 1.261 . S
C342 H309 0.930 . S
C342 N344 1.325 . S
C342 C345 1.357 . S
C343 H311 0.928 . S
C343 C341 1.406 . S
C343 N344 1.261 . S
N344 Co295 2.214 1_655 S
N344 C342 1.325 . S
N344 C343 1.261 . S
C345 H315 0.931 . S
C345 C342 1.357 . S
C345 C346 1.312 . S
C346 H317 0.930 . S
C346 C341 1.261 . S
C346 C345 1.312 . S
C347 O319 1.214 . S
C347 O327 1.234 . S
C348 H320 0.929 . S
C348 C351 1.391 . S
C348 C353 1.391 . S
C349 H321 0.929 1_556 S
C349 C350 1.390 . S
C349 N352 1.391 . S
C350 H322 0.930 1_556 S
C350 C349 1.390 . S
C350 C351 1.392 . S
C351 H323 0.929 . S
C351 C348 1.391 . S
C351 C350 1.392 . S
N352 Co296 2.257 . S
N352 C349 1.391 . S
N352 C353 1.388 . S
C353 H324 0.930 . S
C353 C348 1.391 . S
C353 N352 1.388 . S
H354 C360 0.930 . S
H355 C364 0.930 . S
H356 C369 0.929 . S
H357 C367 0.929 1_565 S
H358 C362 0.929 . S
H359 C368 0.929 . S
C360 H354 0.930 . S
C360 C361 1.367 . S
C360 C368 1.378 . S
C361 C360 1.367 . S
C361 C369 1.433 . S
C362 H358 0.929 . S
C362 C364 1.378 . S
C362 C366 1.350 . S
C363 C366 1.463 . S
C363 C368 1.350 . S
C363 N371 1.427 . S
C364 H355 0.930 . S
C364 C362 1.378 . S
C364 C365 1.367 . S
C365 C364 1.367 . S
C365 C367 1.433 . S
C366 C362 1.350 . S
C366 C363 1.463 . S
C366 N370 1.427 . S
C367 H357 0.929 1_545 S
C367 C365 1.433 . S
C367 N370 1.384 . S
C368 H359 0.929 . S
C368 C360 1.378 . S
C368 C363 1.350 . S
C369 H356 0.929 . S
C369 C361 1.433 . S
C369 N371 1.384 . S
N370 C366 1.427 . S
N370 C367 1.384 . S
N371 C363 1.427 . S
N371 C369 1.384 . S
H372 C378 0.930 . S
H373 C382 0.930 . S
H374 C387 0.929 . S
H375 C385 0.929 . S
H376 C380 0.929 . S
H377 C386 0.929 . S
C378 H372 0.930 . S
C378 C379 1.367 . S
C378 C386 1.378 . S
C379 C378 1.367 . S
C379 C387 1.433 . S
C380 H376 0.929 . S
C380 C382 1.378 . S
C380 C384 1.350 . S
C381 C384 1.463 . S
C381 C386 1.350 . S
C381 N389 1.427 . S
C382 H373 0.930 . S
C382 C380 1.378 . S
C382 C383 1.367 . S
C383 C382 1.367 . S
C383 C385 1.433 . S
C384 C380 1.350 . S
C384 C381 1.463 . S
C384 N388 1.427 . S
C385 H375 0.929 . S
C385 C383 1.433 . S
C385 N388 1.384 . S
C386 H377 0.929 . S
C386 C378 1.378 . S
C386 C381 1.350 . S
C387 H374 0.929 . S
C387 C379 1.433 . S
C387 N389 1.384 . S
N388 C384 1.427 . S
N388 C385 1.384 . S
N389 C381 1.427 . S
N389 C387 1.384 . S
H390 C396 0.930 . S
H391 C400 0.930 . S
H392 C405 0.929 . S
H393 C403 0.929 . S
H394 C398 0.929 . S
H395 C404 0.929 . S
C396 H390 0.930 . S
C396 C397 1.367 . S
C396 C404 1.378 . S
C397 C396 1.367 . S
C397 C405 1.433 . S
C398 H394 0.929 . S
C398 C400 1.378 . S
C398 C402 1.350 . S
C399 C402 1.463 . S
C399 C404 1.350 . S
C399 N407 1.427 . S
C400 H391 0.930 . S
C400 C398 1.378 . S
C400 C401 1.367 . S
C401 C400 1.367 . S
C401 C403 1.433 . S
C402 C398 1.350 . S
C402 C399 1.463 . S
C402 N406 1.427 . S
C403 H393 0.929 . S
C403 C401 1.433 . S
C403 N406 1.384 . S
C404 H395 0.929 . S
C404 C396 1.378 . S
C404 C399 1.350 . S
C405 H392 0.929 . S
C405 C397 1.433 . S
C405 N407 1.384 . S
N406 C402 1.427 . S
N406 C403 1.384 . S
N407 C399 1.427 . S
N407 C405 1.384 . S
H408 C414 0.930 . S
H409 C418 0.930 . S
H410 C423 0.929 . S
H411 C421 0.929 1_565 S
H412 C416 0.929 . S
H413 C422 0.929 . S
C414 H408 0.930 . S
C414 C415 1.367 . S
C414 C422 1.378 . S
C415 C414 1.367 . S
C415 C423 1.433 . S
C416 H412 0.929 . S
C416 C418 1.378 . S
C416 C420 1.350 . S
C417 C420 1.463 . S
C417 C422 1.350 . S
C417 N425 1.427 . S
C418 H409 0.930 . S
C418 C416 1.378 . S
C418 C419 1.367 . S
C419 C418 1.367 . S
C419 C421 1.433 . S
C420 C416 1.350 . S
C420 C417 1.463 . S
C420 N424 1.427 . S
C421 H411 0.929 1_545 S
C421 C419 1.433 . S
C421 N424 1.384 . S
C422 H413 0.929 . S
C422 C414 1.378 . S
C422 C417 1.350 . S
C423 H410 0.929 . S
C423 C415 1.433 . S
C423 N425 1.384 . S
N424 C420 1.427 . S
N424 C421 1.384 . S
N425 C417 1.427 . S
N425 C423 1.384 . S
H426 C432 0.930 . S
H427 C436 0.930 . S
H428 C441 0.929 . S
H429 C439 0.929 . S
H430 C434 0.929 . S
H431 C440 0.923 1_556 S
C432 H426 0.930 . S
C432 C433 1.367 . S
C432 C440 1.385 . S
C433 C432 1.367 . S
C433 C441 1.433 . S
C434 H430 0.929 . S
C434 C436 1.378 . S
C434 C438 1.350 . S
C435 C438 1.463 . S
C435 C440 1.348 1_556 S
C435 N443 1.427 1_556 S
C436 H427 0.930 . S
C436 C434 1.378 . S
C436 C437 1.367 . S
C437 C436 1.367 . S
C437 C439 1.433 . S
C438 C434 1.350 . S
C438 C435 1.463 . S
C438 N442 1.427 . S
C439 H429 0.929 . S
C439 C437 1.433 . S
C439 N442 1.384 . S
C440 H431 0.923 1_554 S
C440 C432 1.385 . S
C440 C435 1.348 1_554 S
C441 H428 0.929 . S
C441 C433 1.433 . S
C441 N443 1.384 . S
N442 C438 1.427 . S
N442 C439 1.384 . S
N443 C435 1.427 1_554 S
N443 C441 1.384 . S
H444 C450 0.930 . S
H445 C454 0.930 . S
H446 C459 0.929 1_556 S
H447 C457 0.929 1_655 S
H448 C452 0.929 . S
H449 C458 0.929 1_655 S
C450 H444 0.930 . S
C450 C451 1.367 . S
C450 C458 1.378 . S
C451 C450 1.367 . S
C451 C459 1.433 . S
C452 H448 0.929 . S
C452 C454 1.378 . S
C452 C456 1.350 . S
C453 C456 1.463 . S
C453 C458 1.350 . S
C453 N461 1.427 . S
C454 H445 0.930 . S
C454 C452 1.378 . S
C454 C455 1.367 . S
C455 C454 1.367 . S
C455 C457 1.433 . S
C456 C452 1.350 . S
C456 C453 1.463 . S
C456 N460 1.427 . S
C457 H447 0.929 1_455 S
C457 C455 1.433 . S
C457 N460 1.384 . S
C458 H449 0.929 1_455 S
C458 C450 1.378 . S
C458 C453 1.350 . S
C459 H446 0.929 1_554 S
C459 C451 1.433 . S
C459 N461 1.384 . S
N460 C456 1.427 . S
N460 C457 1.384 . S
N461 C453 1.427 . S
N461 C459 1.384 . S
H462 C468 0.930 . S
H463 C472 0.930 . S
H464 C477 0.929 . S
H465 C475 0.929 . S
H466 C470 0.929 . S
H467 C476 0.929 . S
C468 H462 0.930 . S
C468 C469 1.367 . S
C468 C476 1.378 . S
C469 C468 1.367 . S
C469 C477 1.433 . S
C470 H466 0.929 . S
C470 C472 1.378 . S
C470 C474 1.350 . S
C471 C474 1.463 . S
C471 C476 1.350 . S
C471 N479 1.427 . S
C472 H463 0.930 . S
C472 C470 1.378 . S
C472 C473 1.367 . S
C473 C472 1.367 . S
C473 C475 1.433 . S
C474 C470 1.350 . S
C474 C471 1.463 . S
C474 N478 1.427 . S
C475 H465 0.929 . S
C475 C473 1.433 . S
C475 N478 1.384 . S
C476 H467 0.929 . S
C476 C468 1.378 . S
C476 C471 1.350 . S
C477 H464 0.929 . S
C477 C469 1.433 . S
C477 N479 1.384 . S
N478 C474 1.427 . S
N478 C475 1.384 . S
N479 C471 1.427 . S
N479 C477 1.384 . S
H480 C486 0.930 . S
H481 C490 0.930 . S
H482 C495 0.929 . S
H483 C493 0.929 . S
H484 C488 0.929 . S
H485 C494 0.929 . S
C486 H480 0.930 . S
C486 C487 1.367 . S
C486 C494 1.378 . S
C487 C486 1.367 . S
C487 C495 1.433 . S
C488 H484 0.929 . S
C488 C490 1.378 . S
C488 C492 1.350 . S
C489 C492 1.463 . S
C489 C494 1.350 . S
C489 N497 1.427 . S
C490 H481 0.930 . S
C490 C488 1.378 . S
C490 C491 1.367 . S
C491 C490 1.367 . S
C491 C493 1.433 . S
C492 C488 1.350 . S
C492 C489 1.463 . S
C492 N496 1.427 . S
C493 H483 0.929 . S
C493 C491 1.433 . S
C493 N496 1.384 . S
C494 H485 0.929 . S
C494 C486 1.378 . S
C494 C489 1.350 . S
C495 H482 0.929 . S
C495 C487 1.433 . S
C495 N497 1.384 . S
N496 C492 1.427 . S
N496 C493 1.384 . S
N497 C489 1.427 . S
N497 C495 1.384 . S
H498 C504 0.930 . S
H499 C508 0.930 . S
H500 C513 0.929 . S
H501 C511 0.929 . S
H502 C506 0.929 . S
H503 C512 0.929 . S
C504 H498 0.930 . S
C504 C505 1.367 . S
C504 C512 1.378 . S
C505 C504 1.367 . S
C505 C513 1.433 . S
C506 H502 0.929 . S
C506 C508 1.378 . S
C506 C510 1.350 . S
C507 C510 1.463 . S
C507 C512 1.350 . S
C507 N515 1.427 . S
C508 H499 0.930 . S
C508 C506 1.378 . S
C508 C509 1.367 . S
C509 C508 1.367 . S
C509 C511 1.433 . S
C510 C506 1.350 . S
C510 C507 1.463 . S
C510 N514 1.427 . S
C511 H501 0.929 . S
C511 C509 1.433 . S
C511 N514 1.384 . S
C512 H503 0.929 . S
C512 C504 1.378 . S
C512 C507 1.350 . S
C513 H500 0.929 . S
C513 C505 1.433 . S
C513 N515 1.384 . S
N514 C510 1.427 . S
N514 C511 1.384 . S
N515 C507 1.427 . S
N515 C513 1.384 . S
H516 C522 0.930 . S
H517 C526 0.930 . S
H518 C531 0.929 . S
H519 C529 0.929 . S
H520 C524 0.929 . S
H521 C530 0.929 . S
C522 H516 0.930 . S
C522 C523 1.367 . S
C522 C530 1.378 . S
C523 C522 1.367 . S
C523 C531 1.433 . S
C524 H520 0.929 . S
C524 C526 1.378 . S
C524 C528 1.350 . S
C525 C528 1.463 . S
C525 C530 1.350 . S
C525 N533 1.427 . S
C526 H517 0.930 . S
C526 C524 1.378 . S
C526 C527 1.367 . S
C527 C526 1.367 . S
C527 C529 1.433 . S
C528 C524 1.350 . S
C528 C525 1.463 . S
C528 N532 1.427 . S
C529 H519 0.929 . S
C529 C527 1.433 . S
C529 N532 1.384 . S
C530 H521 0.929 . S
C530 C522 1.378 . S
C530 C525 1.350 . S
C531 H518 0.929 . S
C531 C523 1.433 . S
C531 N533 1.384 . S
N532 C528 1.427 . S
N532 C529 1.384 . S
N533 C525 1.427 . S
N533 C531 1.384 . S
H534 C540 0.930 . S
H535 C544 0.930 . S
H536 C549 0.929 . S
H537 C547 0.929 . S
H538 C542 0.929 . S
H539 C548 0.929 . S
C540 H534 0.930 . S
C540 C541 1.367 . S
C540 C548 1.378 . S
C541 C540 1.367 . S
C541 C549 1.433 . S
C542 H538 0.929 . S
C542 C544 1.378 . S
C542 C546 1.350 . S
C543 C546 1.463 . S
C543 C548 1.350 . S
C543 N551 1.427 . S
C544 H535 0.930 . S
C544 C542 1.378 . S
C544 C545 1.367 . S
C545 C544 1.367 . S
C545 C547 1.433 . S
C546 C542 1.350 . S
C546 C543 1.463 . S
C546 N550 1.427 . S
C547 H537 0.929 . S
C547 C545 1.433 . S
C547 N550 1.384 . S
C548 H539 0.929 . S
C548 C540 1.378 . S
C548 C543 1.350 . S
C549 H536 0.929 . S
C549 C541 1.433 . S
C549 N551 1.384 . S
N550 C546 1.427 . S
N550 C547 1.384 . S
N551 C543 1.427 . S
N551 C549 1.384 . S
H552 C558 0.930 . S
H553 C562 0.930 . S
H554 C567 0.929 . S
H555 C565 0.929 . S
H556 C560 0.929 . S
H557 C566 0.929 . S
C558 H552 0.930 . S
C558 C559 1.367 . S
C558 C566 1.378 . S
C559 C558 1.367 . S
C559 C567 1.433 1_556 S
C560 H556 0.929 . S
C560 C562 1.378 . S
C560 C564 1.350 1_554 S
C561 C564 1.463 . S
C561 C566 1.350 . S
C561 N569 1.427 1_556 S
C562 H553 0.930 . S
C562 C560 1.378 . S
C562 C563 1.367 . S
C563 C562 1.367 . S
C563 C565 1.433 1_554 S
C564 C560 1.350 1_556 S
C564 C561 1.463 . S
C564 N568 1.427 . S
C565 H555 0.929 . S
C565 C563 1.433 1_556 S
C565 N568 1.384 . S
C566 H557 0.929 . S
C566 C558 1.378 . S
C566 C561 1.350 . S
C567 H554 0.929 . S
C567 C559 1.433 1_554 S
C567 N569 1.384 . S
N568 C564 1.427 . S
N568 C565 1.384 . S
N569 C561 1.427 1_554 S
N569 C567 1.384 . S
C361 C52 1.837 . S
C365 C180 1.825 . S
C379 C111 1.834 . S
C383 C239 1.828 . S
C397 C298 1.822 . S
C401 C170 1.835 . S
C415 C3 1.822 . S
C419 C229 1.837 . S
C433 C62 1.828 . S
C437 C288 1.834 . S
C451 C347 1.837 1_554 S
C455 C121 1.825 . S
C469 C64 1.422 . S
C473 C33 1.412 1_565 S
C487 C123 1.425 . S
C491 C92 1.417 . S
C505 C151 1.414 . S
C509 C182 1.420 . S
C523 C241 1.424 . S
C527 C210 1.418 . S
C541 C300 1.420 . S
C545 C269 1.418 . S
C559 C328 1.414 1_655 S
C563 C5 1.420 . S
