# Generated by pormake.
# Topology ukk, (4)-cn, num edge types: 1
# Building blocks:
#     Node 0, Type 0, BuildingBlock: GALJAG_clean_sbu_0, # of connection points: 4
#     Node 1, Type 0, BuildingBlock: GALJAG_clean_sbu_0, # of connection points: 4
#     Node 2, Type 0, BuildingBlock: GALJAG_clean_sbu_0, # of connection points: 4
#     Node 3, Type 0, BuildingBlock: GALJAG_clean_sbu_0, # of connection points: 4
#     Node 4, Type 0, BuildingBlock: GALJAG_clean_sbu_0, # of connection points: 4
#     Node 5, Type 0, BuildingBlock: GALJAG_clean_sbu_0, # of connection points: 4
#     Node 6, Type 0, BuildingBlock: GALJAG_clean_sbu_0, # of connection points: 4
#     Node 7, Type 0, BuildingBlock: GALJAG_clean_sbu_0, # of connection points: 4
#     Node 8, Type 0, BuildingBlock: GALJAG_clean_sbu_0, # of connection points: 4
#     Node 9, Type 0, BuildingBlock: GALJAG_clean_sbu_0, # of connection points: 4
#     Node 10, Type 0, BuildingBlock: GALJAG_clean_sbu_0, # of connection points: 4
#     Node 11, Type 0, BuildingBlock: GALJAG_clean_sbu_0, # of connection points: 4
#     Node 12, Type 0, BuildingBlock: GALJAG_clean_sbu_0, # of connection points: 4
#     Node 13, Type 0, BuildingBlock: GALJAG_clean_sbu_0, # of connection points: 4
#     Node 14, Type 0, BuildingBlock: GALJAG_clean_sbu_0, # of connection points: 4
#     Node 15, Type 0, BuildingBlock: GALJAG_clean_sbu_0, # of connection points: 4
#     Edge 16, Type (0, 0), BuildingBlock: TEMPAE_clean_linker_10, # of connection points: 2
#     Edge 17, Type (0, 0), BuildingBlock: TEMPAE_clean_linker_10, # of connection points: 2
#     Edge 18, Type (0, 0), BuildingBlock: TEMPAE_clean_linker_10, # of connection points: 2
#     Edge 19, Type (0, 0), BuildingBlock: TEMPAE_clean_linker_10, # of connection points: 2
#     Edge 20, Type (0, 0), BuildingBlock: TEMPAE_clean_linker_10, # of connection points: 2
#     Edge 21, Type (0, 0), BuildingBlock: TEMPAE_clean_linker_10, # of connection points: 2
#     Edge 22, Type (0, 0), BuildingBlock: TEMPAE_clean_linker_10, # of connection points: 2
#     Edge 23, Type (0, 0), BuildingBlock: TEMPAE_clean_linker_10, # of connection points: 2
#     Edge 24, Type (0, 0), BuildingBlock: TEMPAE_clean_linker_10, # of connection points: 2
#     Edge 25, Type (0, 0), BuildingBlock: TEMPAE_clean_linker_10, # of connection points: 2
#     Edge 26, Type (0, 0), BuildingBlock: TEMPAE_clean_linker_10, # of connection points: 2
#     Edge 27, Type (0, 0), BuildingBlock: TEMPAE_clean_linker_10, # of connection points: 2
#     Edge 28, Type (0, 0), BuildingBlock: TEMPAE_clean_linker_10, # of connection points: 2
#     Edge 29, Type (0, 0), BuildingBlock: TEMPAE_clean_linker_10, # of connection points: 2
#     Edge 30, Type (0, 0), BuildingBlock: TEMPAE_clean_linker_10, # of connection points: 2
#     Edge 31, Type (0, 0), BuildingBlock: TEMPAE_clean_linker_10, # of connection points: 2
#     Edge 32, Type (0, 0), BuildingBlock: TEMPAE_clean_linker_10, # of connection points: 2
#     Edge 33, Type (0, 0), BuildingBlock: TEMPAE_clean_linker_10, # of connection points: 2
#     Edge 34, Type (0, 0), BuildingBlock: TEMPAE_clean_linker_10, # of connection points: 2
#     Edge 35, Type (0, 0), BuildingBlock: TEMPAE_clean_linker_10, # of connection points: 2
#     Edge 36, Type (0, 0), BuildingBlock: TEMPAE_clean_linker_10, # of connection points: 2
#     Edge 37, Type (0, 0), BuildingBlock: TEMPAE_clean_linker_10, # of connection points: 2
#     Edge 38, Type (0, 0), BuildingBlock: TEMPAE_clean_linker_10, # of connection points: 2
#     Edge 39, Type (0, 0), BuildingBlock: TEMPAE_clean_linker_10, # of connection points: 2
#     Edge 40, Type (0, 0), BuildingBlock: TEMPAE_clean_linker_10, # of connection points: 2
#     Edge 41, Type (0, 0), BuildingBlock: TEMPAE_clean_linker_10, # of connection points: 2
#     Edge 42, Type (0, 0), BuildingBlock: TEMPAE_clean_linker_10, # of connection points: 2
#     Edge 43, Type (0, 0), BuildingBlock: TEMPAE_clean_linker_10, # of connection points: 2
#     Edge 44, Type (0, 0), BuildingBlock: TEMPAE_clean_linker_10, # of connection points: 2
#     Edge 45, Type (0, 0), BuildingBlock: TEMPAE_clean_linker_10, # of connection points: 2
#     Edge 46, Type (0, 0), BuildingBlock: TEMPAE_clean_linker_10, # of connection points: 2
#     Edge 47, Type (0, 0), BuildingBlock: TEMPAE_clean_linker_10, # of connection points: 2
# Relax obj value: 0.105
# Max RMSD: 0.246
# Mean RMSD: 0.246
data_MOF--net-ukk--node1-GALJAG_clean_sbu_0--edge1-TEMPAE_clean_linker_10
_symmetry_space_group_name_H-M    P1
_symmetry_Int_Tables_number       1
_symmetry_cell_setting            triclinic
loop_
_symmetry_equiv_pos_as_xyz
'x, y, z'
_cell_length_a     54.10196
_cell_length_b     54.068684
_cell_length_c     18.660387
_cell_angle_alpha  89.9824
_cell_angle_beta   89.968276
_cell_angle_gamma 90.023812
loop_
_atom_site_label
_atom_site_type_symbol
_atom_site_fract_x
_atom_site_fract_y
_atom_site_fract_z
_atom_type_partial_charge
In0 In 0.34638 0.10607 0.13589 0.0
O1 O 0.32941 0.08721 0.03857 0.0
O2 O 0.30546 0.10118 0.12065 0.0
C3 C 0.39493 0.11288 0.11973 0.0
C4 C 0.33661 0.1541 0.11762 0.0
C5 C 0.34886 0.07067 0.23659 0.0
O6 O 0.38296 0.09933 0.07641 0.0
O7 O 0.38248 0.12214 0.17024 0.0
O8 O 0.34393 0.09288 0.25337 0.0
O9 O 0.35196 0.06687 0.17051 0.0
C10 C 0.30747 0.0905 0.06065 0.0
O11 O 0.3326 0.14344 0.1773 0.0
O12 O 0.34479 0.14028 0.06836 0.0
In13 In 0.10626 0.63158 0.88593 0.0
O14 O 0.09101 0.64953 0.98793 0.0
O15 O 0.09277 0.67085 0.89166 0.0
C16 C 0.12273 0.58646 0.92224 0.0
C17 C 0.15157 0.6506 0.869 0.0
C18 C 0.06874 0.6199 0.79717 0.0
O19 O 0.10689 0.59758 0.96058 0.0
O20 O 0.1298 0.5981 0.86742 0.0
O21 O 0.08644 0.63353 0.7768 0.0
O22 O 0.0703 0.61242 0.86098 0.0
C23 C 0.08767 0.67026 0.95765 0.0
O24 O 0.13922 0.64245 0.81623 0.0
O25 O 0.14085 0.64943 0.92905 0.0
In26 In 0.64877 0.88729 0.14098 0.0
O27 O 0.66459 0.85142 0.18923 0.0
O28 O 0.64397 0.84969 0.0921 0.0
C29 C 0.65261 0.92386 0.23687 0.0
C30 C 0.68526 0.90054 0.05178 0.0
C31 C 0.59916 0.88886 0.13877 0.0
O32 O 0.65357 0.90136 0.25592 0.0
O33 O 0.65025 0.92753 0.17032 0.0
O34 O 0.6117 0.89387 0.08318 0.0
O35 O 0.61168 0.88328 0.19341 0.0
C36 C 0.65584 0.83811 0.13946 0.0
O37 O 0.66311 0.89861 0.03042 0.0
O38 O 0.68876 0.89589 0.11728 0.0
In39 In 0.89641 0.36962 0.90235 0.0
O40 O 0.85973 0.36014 0.84768 0.0
O41 O 0.86075 0.36438 0.9616 0.0
C42 C 0.93377 0.37312 0.8093 0.0
C43 C 0.91137 0.32855 0.9691 0.0
C44 C 0.89111 0.41814 0.92376 0.0
O45 O 0.91283 0.36487 0.78997 0.0
O46 O 0.93556 0.37889 0.87477 0.0
O47 O 0.89617 0.40382 0.9756 0.0
O48 O 0.8889 0.40792 0.8633 0.0
C49 C 0.84798 0.35977 0.90662 0.0
O50 O 0.91471 0.34975 0.9967 0.0
O51 O 0.90123 0.32852 0.90813 0.0
In52 In 0.36204 0.38705 0.08969 0.0
O53 O 0.3457 0.353 0.03337 0.0
O54 O 0.36568 0.34821 0.13114 0.0
C55 C 0.35935 0.42668 0.00308 0.0
C56 C 0.32613 0.3978 0.18383 0.0
C57 C 0.41144 0.38375 0.09415 0.0
O58 O 0.35356 0.40529 0.98086 0.0
O59 O 0.36576 0.42769 0.06803 0.0
O60 O 0.39885 0.38757 0.1504 0.0
O61 O 0.39904 0.3818 0.03708 0.0
C62 C 0.3536 0.33826 0.08104 0.0
O63 O 0.34861 0.40233 0.19745 0.0
O64 O 0.32208 0.38828 0.12327 0.0
In65 In 0.38015 0.64094 0.8498 0.0
O66 O 0.34811 0.65016 0.92499 0.0
O67 O 0.34453 0.65878 0.81376 0.0
C68 C 0.41799 0.63032 0.93841 0.0
C69 C 0.398 0.67883 0.77181 0.0
C70 C 0.36635 0.5946 0.81489 0.0
O71 O 0.40056 0.64445 0.9577 0.0
O72 O 0.41612 0.622 0.87557 0.0
O73 O 0.38226 0.60624 0.77815 0.0
O74 O 0.35741 0.60657 0.86666 0.0
C75 C 0.33469 0.65867 0.87509 0.0
O76 O 0.3907 0.65891 0.74295 0.0
O77 O 0.39695 0.67907 0.83939 0.0
In78 In 0.64035 0.60505 0.09667 0.0
O79 O 0.65718 0.64077 0.05239 0.0
O80 O 0.6402 0.64109 0.15602 0.0
C81 C 0.64217 0.56812 0.00076 0.0
C82 C 0.67639 0.59112 0.18604 0.0
C83 C 0.59116 0.61131 0.09672 0.0
O84 O 0.64671 0.59025 0.98253 0.0
O85 O 0.63725 0.56504 0.06629 0.0
O86 O 0.60194 0.60024 0.14791 0.0
O87 O 0.6052 0.61862 0.04697 0.0
C88 C 0.65136 0.65312 0.10778 0.0
O89 O 0.65377 0.58864 0.20264 0.0
O90 O 0.68042 0.59992 0.12437 0.0
In91 In 0.61797 0.36296 0.865 0.0
O92 O 0.64967 0.33947 0.90966 0.0
O93 O 0.6535 0.37849 0.91106 0.0
C94 C 0.58651 0.36063 0.97794 0.0
C95 C 0.60923 0.32863 0.7629 0.0
C96 C 0.61578 0.40706 0.79651 0.0
O97 O 0.59972 0.37925 0.96471 0.0
O98 O 0.59021 0.34258 0.93658 0.0
O99 O 0.63419 0.39287 0.79246 0.0
O100 O 0.59763 0.39794 0.8297 0.0
C101 C 0.6634 0.3578 0.92255 0.0
O102 O 0.59219 0.3418 0.78887 0.0
O103 O 0.6305 0.33362 0.78607 0.0
In104 In 0.84432 0.60928 0.65128 0.0
O105 O 0.83206 0.5909 0.54666 0.0
O106 O 0.80484 0.60763 0.61417 0.0
C107 C 0.89406 0.6105 0.64858 0.0
C108 C 0.83595 0.6579 0.63944 0.0
C109 C 0.83851 0.57628 0.75793 0.0
O110 O 0.88194 0.5996 0.59975 0.0
O111 O 0.88104 0.62014 0.69713 0.0
O112 O 0.84 0.5992 0.77039 0.0
O113 O 0.8392 0.57043 0.69259 0.0
C114 C 0.8095 0.59629 0.55658 0.0
O115 O 0.82714 0.64538 0.69094 0.0
O116 O 0.8487 0.64579 0.59494 0.0
In117 In 0.60419 0.13486 0.38395 0.0
O118 O 0.63523 0.14931 0.31101 0.0
O119 O 0.64463 0.13159 0.40937 0.0
C120 C 0.56316 0.13277 0.30431 0.0
C121 C 0.59508 0.17476 0.46588 0.0
C122 C 0.60691 0.08596 0.406 0.0
O123 O 0.58404 0.13756 0.27677 0.0
O124 O 0.56318 0.12983 0.37155 0.0
O125 O 0.60784 0.10102 0.45799 0.0
O126 O 0.60446 0.09564 0.3449 0.0
C127 C 0.65207 0.14219 0.35327 0.0
O128 O 0.59472 0.15309 0.49169 0.0
O129 O 0.59967 0.1759 0.39974 0.0
In130 In 0.15074 0.38742 0.62612 0.0
O131 O 0.1664 0.35258 0.67849 0.0
O132 O 0.15131 0.35039 0.57253 0.0
C133 C 0.14863 0.42483 0.7204 0.0
C134 C 0.18789 0.40102 0.53974 0.0
C135 C 0.10192 0.37981 0.61814 0.0
O136 O 0.15678 0.40378 0.73866 0.0
O137 O 0.14245 0.4267 0.65543 0.0
O138 O 0.1133 0.39149 0.56918 0.0
O139 O 0.11518 0.37252 0.66964 0.0
C140 C 0.16118 0.3392 0.62465 0.0
O141 O 0.16552 0.4028 0.52022 0.0
O142 O 0.19113 0.3931 0.60268 0.0
In143 In 0.39098 0.86828 0.38038 0.0
O144 O 0.36255 0.84103 0.33461 0.0
O145 O 0.35582 0.87934 0.32212 0.0
C146 C 0.42455 0.86828 0.27255 0.0
C147 C 0.39943 0.83567 0.48775 0.0
C148 C 0.38953 0.91316 0.44498 0.0
O149 O 0.41091 0.88654 0.28634 0.0
O150 O 0.42048 0.84954 0.31108 0.0
O151 O 0.37144 0.89851 0.44401 0.0
O152 O 0.40909 0.90429 0.41866 0.0
C153 C 0.34788 0.85765 0.31384 0.0
O154 O 0.41673 0.84483 0.45094 0.0
O155 O 0.37832 0.84399 0.47286 0.0
In156 In 0.8671 0.88782 0.64361 0.0
O157 O 0.85615 0.89686 0.75901 0.0
O158 O 0.83078 0.90551 0.67528 0.0
C159 C 0.91554 0.87693 0.64249 0.0
C160 C 0.84944 0.84155 0.64067 0.0
C161 C 0.86966 0.9249 0.54847 0.0
O162 O 0.90627 0.89063 0.69061 0.0
O163 O 0.90038 0.86902 0.59651 0.0
O164 O 0.85813 0.90506 0.53444 0.0
O165 O 0.87939 0.92577 0.60995 0.0
C166 C 0.83511 0.90512 0.74165 0.0
O167 O 0.84636 0.8561 0.58811 0.0
O168 O 0.86095 0.85063 0.69319 0.0
In169 In 0.88288 0.13936 0.34576 0.0
O170 O 0.9017 0.15514 0.24567 0.0
O171 O 0.89155 0.17953 0.33111 0.0
C172 C 0.87299 0.09102 0.33823 0.0
C173 C 0.83556 0.15234 0.33351 0.0
C174 C 0.91859 0.13465 0.44387 0.0
O175 O 0.88588 0.10161 0.29023 0.0
O176 O 0.86535 0.10491 0.38797 0.0
O177 O 0.8984 0.14536 0.45911 0.0
O178 O 0.92045 0.12713 0.38006 0.0
C179 C 0.90085 0.17712 0.26942 0.0
O180 O 0.84724 0.15496 0.39208 0.0
O181 O 0.84801 0.14361 0.282 0.0
In182 In 0.13288 0.10844 0.6283 0.0
O183 O 0.14538 0.09083 0.73397 0.0
O184 O 0.17226 0.0987 0.65335 0.0
C185 C 0.08487 0.1201 0.63768 0.0
C186 C 0.1487 0.15525 0.63235 0.0
C187 C 0.12927 0.07253 0.5293 0.0
O188 O 0.09525 0.10689 0.68508 0.0
O189 O 0.09868 0.1269 0.58679 0.0
O190 O 0.13941 0.09306 0.51502 0.0
O191 O 0.12143 0.07043 0.59269 0.0
C192 C 0.16793 0.09069 0.71558 0.0
O193 O 0.15194 0.14181 0.57743 0.0
O194 O 0.13775 0.14491 0.68412 0.0
In195 In 0.11717 0.85989 0.33233 0.0
O196 O 0.15346 0.84732 0.38231 0.0
O197 O 0.15176 0.8528 0.26868 0.0
C198 C 0.08148 0.86464 0.43134 0.0
C199 C 0.09953 0.8215 0.25804 0.0
C200 C 0.12666 0.90816 0.31667 0.0
O201 O 0.10157 0.85365 0.44586 0.0
O202 O 0.07974 0.87255 0.36795 0.0
O203 O 0.11337 0.89668 0.27154 0.0
O204 O 0.13489 0.89519 0.3676 0.0
C205 C 0.16471 0.84697 0.32253 0.0
O206 O 0.09794 0.8434 0.23405 0.0
O207 O 0.10941 0.81939 0.31902 0.0
C208 C 0.40425 0.95664 0.43229 0.0
C209 C 0.38601 0.94006 0.45568 0.0
C210 C 0.39824 0.98128 0.41619 0.0
C211 C 0.37349 0.9894 0.42401 0.0
C212 C 0.35607 0.9738 0.4581 0.0
C213 C 0.36252 0.94921 0.47342 0.0
C214 C 0.41759 0.99751 0.38177 0.0
C215 C 0.32972 0.98197 0.46976 0.0
C216 C 0.35813 0.05485 0.36072 0.0
C217 C 0.35215 0.05036 0.28876 0.0
C218 C 0.36441 0.03518 0.40691 0.0
C219 C 0.36464 0.01064 0.38009 0.0
C220 C 0.35746 0.00609 0.3083 0.0
C221 C 0.35137 0.02596 0.26377 0.0
C222 C 0.37184 0.04083 0.48304 0.0
C223 C 0.35705 0.98024 0.27733 0.0
H224 H 0.42257 0.94982 0.41956 0.0
H225 H 0.34844 0.93662 0.4929 0.0
H226 H 0.41459 0.99787 0.32293 0.0
H227 H 0.41618 0.01678 0.40166 0.0
H228 H 0.43658 0.99055 0.39213 0.0
H229 H 0.32032 0.97044 0.51086 0.0
H230 H 0.32891 0.00164 0.48651 0.0
H231 H 0.31934 0.98019 0.41872 0.0
H232 H 0.35886 0.07373 0.38013 0.0
H233 H 0.34651 0.02237 0.20836 0.0
H234 H 0.3923 0.04089 0.48692 0.0
H235 H 0.36478 0.02657 0.52061 0.0
H236 H 0.365 0.05926 0.50041 0.0
H237 H 0.37595 0.97227 0.27824 0.0
H238 H 0.35022 0.97987 0.2212 0.0
H239 H 0.34502 0.96807 0.31016 0.0
C240 C 0.04067 0.62914 0.69351 0.0
C241 C 0.04661 0.61462 0.75331 0.0
C242 C 0.01735 0.6271 0.66061 0.0
C243 C -0.00023 0.61018 0.68838 0.0
C244 C 0.00663 0.59397 0.74452 0.0
C245 C 0.02993 0.59644 0.77635 0.0
C246 C 0.01088 0.64445 0.60014 0.0
C247 C 0.98859 0.5755 0.77551 0.0
C248 C 0.9324 0.62782 0.70123 0.0
C249 C 0.92135 0.61196 0.65121 0.0
C250 C 0.95803 0.62829 0.71077 0.0
C251 C 0.97315 0.61244 0.6693 0.0
C252 C 0.96228 0.59724 0.61602 0.0
C253 C 0.93639 0.59717 0.60754 0.0
C254 C 0.96876 0.64491 0.768 0.0
C255 C 0.97782 0.58028 0.57035 0.0
H256 H 0.0536 0.64309 0.67515 0.0
H257 H 0.0346 0.58487 0.82184 0.0
H258 H 0.00012 0.63472 0.55812 0.0
H259 H 0.9992 0.65968 0.62109 0.0
H260 H 0.02765 0.65269 0.57538 0.0
H261 H 0.99777 0.56207 0.81184 0.0
H262 H 0.97417 0.58547 0.80646 0.0
H263 H 0.97914 0.56513 0.7322 0.0
H264 H 0.92092 0.63957 0.73452 0.0
H265 H 0.92792 0.58497 0.56854 0.0
H266 H 0.9838 0.65647 0.74537 0.0
H267 H 0.97689 0.63346 0.81137 0.0
H268 H 0.95465 0.65732 0.79205 0.0
H269 H 0.99456 0.59001 0.55064 0.0
H270 H 0.96734 0.57302 0.5237 0.0
H271 H 0.98412 0.56436 0.60312 0.0
C272 C 0.63844 0.94247 0.35229 0.0
C273 C 0.65145 0.94465 0.28764 0.0
C274 C 0.63184 0.96366 0.39164 0.0
C275 C 0.63876 0.98731 0.36576 0.0
C276 C 0.65412 0.98921 0.30449 0.0
C277 C 0.66003 0.96786 0.26577 0.0
C278 C 0.61561 0.96082 0.45686 0.0
C279 C 0.66243 0.01399 0.27577 0.0
C280 C 0.59778 0.04338 0.36689 0.0
C281 C 0.61073 0.05915 0.41285 0.0
C282 C 0.60523 0.01884 0.35717 0.0
C283 C 0.62658 0.0101 0.39307 0.0
C284 C 0.63836 0.0253 0.44465 0.0
C285 C 0.63015 0.04978 0.45433 0.0
C286 C 0.59171 0.00314 0.3029 0.0
C287 C 0.66103 0.01665 0.48436 0.0
H288 H 0.63173 0.92447 0.36907 0.0
H289 H 0.67033 0.96946 0.21607 0.0
H290 H 0.62071 0.97435 0.49901 0.0
H291 H 0.59612 0.96439 0.44161 0.0
H292 H 0.61676 0.94185 0.47949 0.0
H293 H 0.67695 0.01207 0.23402 0.0
H294 H 0.6464 0.02375 0.25176 0.0
H295 H 0.66971 0.02574 0.31963 0.0
H296 H 0.58264 0.0507 0.33522 0.0
H297 H 0.64025 0.0621 0.48958 0.0
H298 H 0.58851 0.98425 0.3242 0.0
H299 H 0.60314 0.00138 0.25375 0.0
H300 H 0.57361 0.01129 0.2877 0.0
H301 H 0.65941 0.99688 0.49957 0.0
H302 H 0.66433 0.02782 0.53341 0.0
H303 H 0.67741 0.01854 0.44896 0.0
C304 C 0.06526 0.35742 0.66375 0.0
C305 C 0.07495 0.37588 0.61919 0.0
C306 C 0.03992 0.35609 0.67794 0.0
C307 C 0.02387 0.37381 0.64714 0.0
C308 C 0.03324 0.39102 0.59663 0.0
C309 C 0.05882 0.39186 0.58308 0.0
C310 C 0.03075 0.3372 0.7314 0.0
C311 C 0.01663 0.40988 0.56163 0.0
C312 C 0.9566 0.36265 0.69598 0.0
C313 C 0.95508 0.37583 0.76051 0.0
C314 C 0.97842 0.3631 0.65484 0.0
C315 C 0.99892 0.37712 0.67908 0.0
C316 C 0.99667 0.39183 0.74147 0.0
C317 C 0.97484 0.39092 0.78144 0.0
C318 C 0.98002 0.34741 0.58819 0.0
C319 C 0.01793 0.4073 0.76898 0.0
H320 H 0.07769 0.34471 0.69062 0.0
H321 H 0.06629 0.40602 0.54809 0.0
H322 H 0.02601 0.34661 0.78244 0.0
H323 H 0.01377 0.32801 0.71147 0.0
H324 H 0.04484 0.32279 0.7429 0.0
H325 H 0.02528 0.41792 0.51286 0.0
H326 H 0.99859 0.40157 0.54691 0.0
H327 H 0.01296 0.42513 0.59996 0.0
H328 H 0.94124 0.35112 0.6794 0.0
H329 H 0.97354 0.40153 0.8306 0.0
H330 H 0.99033 0.3302 0.60047 0.0
H331 H 0.99018 0.35722 0.54503 0.0
H332 H 0.96141 0.34219 0.5681 0.0
H333 H 0.033 0.39498 0.78776 0.0
H334 H 0.01236 0.41946 0.81417 0.0
H335 H 0.02554 0.41903 0.72548 0.0
C336 C 0.36922 0.47108 0.98548 0.0
C337 C 0.35944 0.4491 0.95755 0.0
C338 C 0.36932 0.49294 0.94545 0.0
C339 C 0.35926 0.49299 0.8754 0.0
C340 C 0.34983 0.47075 0.84594 0.0
C341 C 0.35004 0.44897 0.8875 0.0
C342 C 0.37973 0.51616 0.97912 0.0
C343 C 0.33895 0.4701 0.77155 0.0
C344 C 0.33961 0.55823 0.83756 0.0
C345 C 0.36127 0.56791 0.80741 0.0
C346 C 0.33737 0.5329 0.85194 0.0
C347 C 0.35744 0.51698 0.83654 0.0
C348 C 0.37809 0.52623 0.79815 0.0
C349 C 0.37975 0.55172 0.78376 0.0
C350 C 0.31479 0.52383 0.89166 0.0
C351 C 0.39972 0.50982 0.77974 0.0
H352 H 0.37674 0.4713 0.03931 0.0
H353 H 0.34254 0.43199 0.8656 0.0
H354 H 0.3943 0.52417 0.9443 0.0
H355 H 0.36491 0.53021 0.98472 0.0
H356 H 0.38779 0.51269 0.03292 0.0
H357 H 0.33594 0.45088 0.75245 0.0
H358 H 0.32091 0.47985 0.77156 0.0
H359 H 0.35116 0.47986 0.73301 0.0
H360 H 0.32512 0.57073 0.85496 0.0
H361 H 0.39651 0.55916 0.76022 0.0
H362 H 0.3194 0.52152 0.94923 0.0
H363 H 0.30873 0.50559 0.87098 0.0
H364 H 0.29916 0.53706 0.88736 0.0
H365 H 0.41134 0.50722 0.82816 0.0
H366 H 0.41141 0.51809 0.737 0.0
H367 H 0.39337 0.4913 0.76204 0.0
C368 C 0.4464 0.63995 0.04105 0.0
C369 C 0.43998 0.62495 0.98272 0.0
C370 C 0.46946 0.63722 0.07508 0.0
C371 C 0.48625 0.61905 0.05002 0.0
C372 C 0.47889 0.60259 0.99508 0.0
C373 C 0.45589 0.60579 0.96205 0.0
C374 C 0.47651 0.65492 0.13408 0.0
C375 C 0.49608 0.58282 0.967 0.0
C376 C 0.55482 0.6315 0.04083 0.0
C377 C 0.56416 0.61527 0.09274 0.0
C378 C 0.52938 0.63397 0.0297 0.0
C379 C 0.51274 0.61977 0.07137 0.0
C380 C 0.52195 0.60436 0.12672 0.0
C381 C 0.54767 0.60229 0.13686 0.0
C382 C 0.52043 0.65076 0.97037 0.0
C383 C 0.50477 0.58912 0.17263 0.0
H384 H 0.43406 0.65468 0.05753 0.0
H385 H 0.45082 0.59386 0.91772 0.0
H386 H 0.48626 0.6451 0.17795 0.0
H387 H 0.48935 0.66909 0.11243 0.0
H388 H 0.46012 0.66454 0.15663 0.0
H389 H 0.4865 0.56966 0.9307 0.0
H390 H 0.51143 0.59163 0.93685 0.0
H391 H 0.50437 0.57225 0.01189 0.0
H392 H 0.56747 0.64188 0.00725 0.0
H393 H 0.55483 0.58983 0.17735 0.0
H394 H 0.50591 0.66344 0.99064 0.0
H395 H 0.5121 0.63949 0.92695 0.0
H396 H 0.5356 0.66204 0.947 0.0
H397 H 0.48868 0.6003 0.19025 0.0
H398 H 0.51427 0.58159 0.22067 0.0
H399 H 0.49753 0.57339 0.14077 0.0
C400 C 0.59842 0.44966 0.80295 0.0
C401 C 0.61802 0.434 0.78415 0.0
C402 C 0.60268 0.47468 0.81854 0.0
C403 C 0.6271 0.48408 0.81542 0.0
C404 C 0.64613 0.46929 0.78593 0.0
C405 C 0.64134 0.44434 0.77039 0.0
C406 C 0.58167 0.49005 0.84757 0.0
C407 C 0.67228 0.47875 0.77981 0.0
C408 C 0.63729 0.55068 0.87661 0.0
C409 C 0.6413 0.54713 0.95015 0.0
C410 C 0.63338 0.53034 0.83079 0.0
C411 C 0.63363 0.50607 0.85953 0.0
C412 C 0.6389 0.50251 0.9332 0.0
C413 C 0.64255 0.52305 0.97742 0.0
C414 C 0.62784 0.53494 0.75271 0.0
C415 C 0.6398 0.47697 0.96623 0.0
H416 H 0.58022 0.44189 0.81237 0.0
H417 H 0.65653 0.43244 0.75462 0.0
H418 H 0.58304 0.49087 0.90688 0.0
H419 H 0.58264 0.50926 0.82694 0.0
H420 H 0.5634 0.48204 0.83338 0.0
H421 H 0.68331 0.46756 0.74146 0.0
H422 H 0.67259 0.49837 0.76242 0.0
H423 H 0.68132 0.47769 0.83311 0.0
H424 H 0.63621 0.56932 0.85545 0.0
H425 H 0.6459 0.52023 0.03414 0.0
H426 H 0.60761 0.53356 0.74393 0.0
H427 H 0.63687 0.52093 0.71808 0.0
H428 H 0.63394 0.55366 0.73558 0.0
H429 H 0.62136 0.46809 0.96228 0.0
H430 H 0.64529 0.47741 0.02357 0.0
H431 H 0.65313 0.46515 0.93678 0.0
C432 C 0.45131 0.38289 0.02867 0.0
C433 C 0.43861 0.38114 0.09385 0.0
C434 C 0.47686 0.37918 0.0251 0.0
C435 C 0.49011 0.37327 0.08827 0.0
C436 C 0.47748 0.37185 0.15469 0.0
C437 C 0.45179 0.37596 0.15678 0.0
C438 C 0.48961 0.38126 0.9532 0.0
C439 C 0.49094 0.36534 0.22292 0.0
C440 C 0.549 0.34154 0.03279 0.0
C441 C 0.56493 0.36187 0.02644 0.0
C442 C 0.52513 0.34439 0.06107 0.0
C443 C 0.51705 0.36816 0.0827 0.0
C444 C 0.53405 0.38805 0.08405 0.0
C445 C 0.55789 0.38464 0.0561 0.0
C446 C 0.50776 0.32254 0.06035 0.0
C447 C 0.5263 0.41364 0.10724 0.0
H448 H 0.44122 0.38707 0.97998 0.0
H449 H 0.44195 0.37447 0.20721 0.0
H450 H 0.50479 0.39503 0.9561 0.0
H451 H 0.49795 0.36322 0.9385 0.0
H452 H 0.47673 0.38689 0.90979 0.0
H453 H 0.47906 0.36764 0.27103 0.0
H454 H 0.49718 0.34582 0.22036 0.0
H455 H 0.50768 0.37699 0.22922 0.0
H456 H 0.55448 0.3238 0.01087 0.0
H457 H 0.57023 0.40039 0.05211 0.0
H458 H 0.49508 0.32417 0.01385 0.0
H459 H 0.49628 0.32214 0.1096 0.0
H460 H 0.5179 0.30475 0.05575 0.0
H461 H 0.51538 0.42238 0.06372 0.0
H462 H 0.5425 0.42563 0.11874 0.0
H463 H 0.51439 0.41284 0.15558 0.0
C464 C 0.89661 0.46046 0.87823 0.0
C465 C 0.88696 0.44486 0.93099 0.0
C466 C 0.88807 0.48471 0.8707 0.0
C467 C 0.86896 0.49335 0.91621 0.0
C468 C 0.86075 0.47837 0.97389 0.0
C469 C 0.86999 0.45415 0.98085 0.0
C470 C 0.89783 0.50016 0.80937 0.0
C471 C 0.84066 0.48695 0.02405 0.0
C472 C 0.85581 0.56024 0.87263 0.0
C473 C 0.83999 0.55715 0.81386 0.0
C474 C 0.86358 0.53967 0.91294 0.0
C475 C 0.85503 0.51579 0.89401 0.0
C476 C 0.83656 0.51325 0.84072 0.0
C477 C 0.82949 0.53396 0.80069 0.0
C478 C 0.88294 0.54324 0.97011 0.0
C479 C 0.82638 0.48824 0.82 0.0
H480 H 0.90985 0.45316 0.84 0.0
H481 H 0.86244 0.44191 0.02139 0.0
H482 H 0.88346 0.50166 0.76715 0.0
H483 H 0.90226 0.51915 0.82779 0.0
H484 H 0.91469 0.49198 0.78499 0.0
H485 H 0.8412 0.47669 0.07561 0.0
H486 H 0.84219 0.50705 0.03513 0.0
H487 H 0.82239 0.4836 0.99882 0.0
H488 H 0.86395 0.57822 0.88281 0.0
H489 H 0.81702 0.53168 0.75566 0.0
H490 H 0.90145 0.53942 0.94702 0.0
H491 H 0.88005 0.53027 0.01545 0.0
H492 H 0.88291 0.5625 0.99085 0.0
H493 H 0.84057 0.4779 0.78919 0.0
H494 H 0.80953 0.48986 0.7863 0.0
H495 H 0.82181 0.47722 0.86835 0.0
C496 C 0.51908 0.12054 0.29507 0.0
C497 C 0.54043 0.12956 0.26161 0.0
C498 C 0.49713 0.11733 0.25674 0.0
C499 C 0.49639 0.12349 0.18301 0.0
C500 C 0.51802 0.1321 0.14829 0.0
C501 C 0.5399 0.13499 0.18812 0.0
C502 C 0.47451 0.10796 0.2959 0.0
C503 C 0.51786 0.1389 0.06987 0.0
C504 C 0.43803 0.09791 0.1003 0.0
C505 C 0.42168 0.11724 0.11559 0.0
C506 C 0.46337 0.10042 0.11539 0.0
C507 C 0.47222 0.12283 0.14541 0.0
C508 C 0.45607 0.14323 0.15284 0.0
C509 C 0.43091 0.14008 0.13852 0.0
C510 C 0.48006 0.07831 0.10627 0.0
C511 C 0.46476 0.1676 0.18338 0.0
H512 H 0.51946 0.11604 0.35168 0.0
H513 H 0.55645 0.14184 0.162 0.0
H514 H 0.46009 0.12255 0.29672 0.0
H515 H 0.46665 0.0917 0.2677 0.0
H516 H 0.47863 0.10257 0.35209 0.0
H517 H 0.53678 0.14232 0.04891 0.0
H518 H 0.5091 0.12404 0.03773 0.0
H519 H 0.50671 0.15591 0.06201 0.0
H520 H 0.4308 0.08025 0.0825 0.0
H521 H 0.41817 0.15512 0.14933 0.0
H522 H 0.48285 0.06932 0.15913 0.0
H523 H 0.49848 0.08395 0.08587 0.0
H524 H 0.47197 0.06445 0.0691 0.0
H525 H 0.46745 0.16565 0.24207 0.0
H526 H 0.45117 0.18265 0.1739 0.0
H527 H 0.48275 0.17309 0.15971 0.0
C528 C 0.11313 0.54266 0.95348 0.0
C529 C 0.13038 0.56061 0.93292 0.0
C530 C 0.11755 0.51752 0.93904 0.0
C531 C 0.13967 0.51053 0.90365 0.0
C532 C 0.15852 0.5283 0.89298 0.0
C533 C 0.15354 0.55321 0.90722 0.0
C534 C 0.09726 0.49901 0.95314 0.0
C535 C 0.18264 0.52163 0.85717 0.0
C536 C 0.15389 0.44483 0.84147 0.0
C537 C 0.1457 0.44589 0.77021 0.0
C538 C 0.15129 0.46539 0.88726 0.0
C539 C 0.14039 0.48738 0.86067 0.0
C540 C 0.13151 0.48817 0.78931 0.0
C541 C 0.1343 0.46749 0.74522 0.0
C542 C 0.1609 0.46377 0.96297 0.0
C543 C 0.11963 0.51115 0.75844 0.0
H544 H 0.09524 0.54839 0.97378 0.0
H545 H 0.16705 0.56715 0.89244 0.0
H546 H 0.08663 0.49597 0.90307 0.0
H547 H 0.10503 0.48094 0.97005 0.0
H548 H 0.08428 0.50569 0.99502 0.0
H549 H 0.19692 0.53613 0.86548 0.0
H550 H 0.18979 0.50378 0.87775 0.0
H551 H 0.17956 0.51956 0.79866 0.0
H552 H 0.1626 0.4281 0.86114 0.0
H553 H 0.12768 0.46839 0.69046 0.0
H554 H 0.14843 0.47343 0.00097 0.0
H555 H 0.17924 0.47289 0.96591 0.0
H556 H 0.16311 0.44426 0.98055 0.0
H557 H 0.10381 0.51699 0.79226 0.0
H558 H 0.11283 0.5083 0.70289 0.0
H559 H 0.13319 0.52655 0.75781 0.0
C560 C 0.46266 0.85027 0.21798 0.0
C561 C 0.44632 0.87023 0.22481 0.0
C562 C 0.48619 0.85353 0.1877 0.0
C563 C 0.49353 0.87735 0.16415 0.0
C564 C 0.47615 0.89691 0.16416 0.0
C565 C 0.4527 0.89311 0.19449 0.0
C566 C 0.504 0.83205 0.18751 0.0
C567 C 0.48308 0.9225 0.13884 0.0
C568 C 0.56022 0.89174 0.20779 0.0
C569 C 0.5719 0.88872 0.1414 0.0
C570 C 0.53464 0.88904 0.21485 0.0
C571 C 0.52028 0.88278 0.15406 0.0
C572 C 0.53182 0.88057 0.08612 0.0
C573 C 0.55761 0.88374 0.08047 0.0
C574 C 0.52311 0.89206 0.28816 0.0
C575 C 0.51716 0.87381 0.02024 0.0
H576 H 0.45773 0.83245 0.24052 0.0
H577 H 0.44003 0.90857 0.19886 0.0
H578 H 0.51436 0.83127 0.13625 0.0
H579 H 0.51768 0.83454 0.23125 0.0
H580 H 0.49441 0.81411 0.19585 0.0
H581 H 0.46651 0.93415 0.12902 0.0
H582 H 0.49456 0.93166 0.18038 0.0
H583 H 0.4942 0.92162 0.08895 0.0
H584 H 0.57123 0.89586 0.25486 0.0
H585 H 0.56666 0.88127 0.02914 0.0
H586 H 0.51515 0.87417 0.30606 0.0
H587 H 0.50781 0.90568 0.28593 0.0
H588 H 0.53668 0.89832 0.32897 0.0
H589 H 0.51156 0.8541 0.02359 0.0
H590 H 0.52803 0.87647 0.97029 0.0
H591 H 0.50001 0.88498 0.01684 0.0
C592 C 0.8857 0.96657 0.51741 0.0
C593 C 0.87113 0.94614 0.49876 0.0
C594 C 0.8857 0.98807 0.47573 0.0
C595 C 0.87078 0.98921 0.4135 0.0
C596 C 0.85714 0.96813 0.39187 0.0
C597 C 0.85741 0.94678 0.43503 0.0
C598 C 0.90061 0.01008 0.50082 0.0
C599 C 0.84131 0.96853 0.32535 0.0
C600 C 0.85033 0.05501 0.38723 0.0
C601 C 0.86886 0.06408 0.34181 0.0
C602 C 0.84928 0.02995 0.40558 0.0
C603 C 0.86727 0.01355 0.37783 0.0
C604 C 0.88449 0.02214 0.3262 0.0
C605 C 0.88511 0.04745 0.3087 0.0
C606 C 0.83044 0.02161 0.4603 0.0
C607 C 0.90361 0.0051 0.29427 0.0
H608 H 0.89661 0.96609 0.5661 0.0
H609 H 0.84627 0.93093 0.42008 0.0
H610 H 0.91242 0.01714 0.45674 0.0
H611 H 0.88794 0.02525 0.51682 0.0
H612 H 0.91263 0.00554 0.54725 0.0
H613 H 0.83593 0.9496 0.3083 0.0
H614 H 0.82421 0.97922 0.33612 0.0
H615 H 0.85113 0.97778 0.28051 0.0
H616 H 0.83744 0.06779 0.41193 0.0
H617 H 0.89936 0.0544 0.27316 0.0
H618 H 0.83984 0.01806 0.51215 0.0
H619 H 0.82153 0.00411 0.44326 0.0
H620 H 0.81583 0.03572 0.46921 0.0
H621 H 0.91869 0.00217 0.33363 0.0
H622 H 0.91181 0.01297 0.24464 0.0
H623 H 0.89548 0.98676 0.28181 0.0
C624 C 0.9411 0.14546 0.55752 0.0
C625 C 0.93917 0.13133 0.49481 0.0
C626 C 0.9626 0.14436 0.59994 0.0
C627 C 0.98239 0.12885 0.57856 0.0
C628 C 0.9796 0.11324 0.51823 0.0
C629 C 0.95806 0.1147 0.47724 0.0
C630 C 0.96468 0.1609 0.66471 0.0
C631 C 0.0001 0.09623 0.49361 0.0
C632 C 0.0497 0.14471 0.59178 0.0
C633 C 0.05826 0.126 0.63734 0.0
C634 C 0.02446 0.14761 0.5782 0.0
C635 C 0.00736 0.1313 0.61085 0.0
C636 C 0.01569 0.1141 0.66281 0.0
C637 C 0.0412 0.1116 0.67549 0.0
C638 C 0.01642 0.16645 0.52313 0.0
C639 C 0.99794 0.09687 0.70018 0.0
H640 H 0.9264 0.15818 0.57161 0.0
H641 H 0.95642 0.10335 0.42957 0.0
H642 H 0.97473 0.15153 0.70883 0.0
H643 H 0.97523 0.17777 0.65018 0.0
H644 H 0.9462 0.16673 0.68445 0.0
H645 H 0.99415 0.08386 0.44933 0.0
H646 H 0.01601 0.10741 0.47455 0.0
H647 H 0.00668 0.08462 0.53871 0.0
H648 H 0.06286 0.15626 0.56343 0.0
H649 H 0.04778 0.09731 0.71151 0.0
H650 H 7e-05 0.17688 0.54233 0.0
H651 H 0.01105 0.15679 0.473 0.0
H652 H 0.03137 0.17983 0.51024 0.0
H653 H 0.98046 0.10651 0.71383 0.0
H654 H 0.0061 0.08906 0.74991 0.0
H655 H 0.9933 0.0813 0.66387 0.0
C656 C 0.1499 0.94501 0.35692 0.0
C657 C 0.13042 0.93517 0.31653 0.0
C658 C 0.15059 0.97015 0.37442 0.0
C659 C 0.13125 0.98581 0.35105 0.0
C660 C 0.11309 0.97652 0.30339 0.0
C661 C 0.11285 0.95115 0.28661 0.0
C662 C 0.17052 0.97925 0.42461 0.0
C663 C 0.09256 0.99279 0.27577 0.0
C664 C 0.11413 0.03063 0.49758 0.0
C665 C 0.12733 0.05186 0.47779 0.0
C666 C 0.11402 0.00957 0.45415 0.0
C667 C 0.1274 0.00969 0.38891 0.0
C668 C 0.13945 0.0316 0.36621 0.0
C669 C 0.13936 0.0525 0.41122 0.0
C670 C 0.10079 0.98666 0.48053 0.0
C671 C 0.15351 0.03261 0.29644 0.0
H672 H 0.16378 0.93272 0.37901 0.0
H673 H 0.09786 0.94359 0.25489 0.0
H674 H 0.17808 0.99719 0.406 0.0
H675 H 0.16247 0.98221 0.47868 0.0
H676 H 0.18597 0.96582 0.42952 0.0
H677 H 0.08369 0.98474 0.22742 0.0
H678 H 0.07823 0.99482 0.31791 0.0
H679 H 0.09955 0.01155 0.26261 0.0
H680 H 0.10448 0.03014 0.54848 0.0
H681 H 0.1494 0.06897 0.39539 0.0
H682 H 0.1145 0.97196 0.49246 0.0
H683 H 0.08819 0.97946 0.43857 0.0
H684 H 0.08982 0.9902 0.52981 0.0
H685 H 0.17174 0.02354 0.30341 0.0
H686 H 0.15674 0.05197 0.27878 0.0
H687 H 0.14349 0.02255 0.25355 0.0
C688 C 0.95021 0.85393 0.58649 0.0
C689 C 0.94228 0.87188 0.63554 0.0
C690 C 0.97521 0.85159 0.56843 0.0
C691 C 0.99275 0.86761 0.60018 0.0
C692 C 0.98515 0.88428 0.6545 0.0
C693 C 0.95989 0.88626 0.67158 0.0
C694 C 0.98245 0.83342 0.5106 0.0
C695 C 0.00337 0.90134 0.69056 0.0
C696 C 0.05879 0.85312 0.54427 0.0
C697 C 0.06083 0.86769 0.48241 0.0
C698 C 0.03729 0.85402 0.58683 0.0
C699 C 0.0176 0.86985 0.56664 0.0
C700 C 0.02043 0.88579 0.50703 0.0
C701 C 0.04196 0.88448 0.46575 0.0
C702 C 0.0351 0.83703 0.65063 0.0
C703 C 3e-05 0.90311 0.48372 0.0
H704 H 0.9367 0.84246 0.55937 0.0
H705 H 0.95384 0.90001 0.71004 0.0
H706 H 0.98732 0.84367 0.46102 0.0
H707 H 0.99894 0.82266 0.52704 0.0
H708 H 0.96727 0.8203 0.49781 0.0
H709 H 0.99579 0.90911 0.74113 0.0
H710 H 0.0209 0.89155 0.70251 0.0
H711 H 0.00778 0.91693 0.65405 0.0
H712 H 0.07344 0.84024 0.55759 0.0
H713 H 0.04363 0.89612 0.41865 0.0
H714 H 0.02318 0.82107 0.63647 0.0
H715 H 0.02631 0.84668 0.69651 0.0
H716 H 0.0534 0.82983 0.66774 0.0
H717 H 0.98402 0.89218 0.46422 0.0
H718 H 0.00602 0.91577 0.44013 0.0
H719 H 0.99357 0.91442 0.52962 0.0
C720 C 0.36489 0.29573 0.11853 0.0
C721 C 0.34896 0.31137 0.08049 0.0
C722 C 0.36058 0.27024 0.12214 0.0
C723 C 0.33947 0.26015 0.08822 0.0
C724 C 0.32317 0.27587 0.05002 0.0
C725 C 0.32829 0.30135 0.04583 0.0
C726 C 0.37879 0.25407 0.16186 0.0
C727 C 0.30025 0.2658 0.01436 0.0
C728 C 0.34497 0.19195 0.04588 0.0
C729 C 0.33432 0.18109 0.10684 0.0
C730 C 0.34578 0.21768 0.03761 0.0
C731 C 0.33526 0.23298 0.09098 0.0
C732 C 0.3232 0.22211 0.15066 0.0
C733 C 0.3231 0.19623 0.15833 0.0
C734 C 0.35926 0.22848 0.97392 0.0
C735 C 0.31132 0.23784 0.20789 0.0
H736 H 0.38094 0.30346 0.14517 0.0
H737 H 0.31582 0.3135 0.01708 0.0
H738 H 0.36934 0.24433 0.20645 0.0
H739 H 0.38628 0.23973 0.12529 0.0
H740 H 0.39449 0.26481 0.1843 0.0
H741 H 0.2891 0.28056 0.98848 0.0
H742 H 0.30541 0.25197 0.97313 0.0
H743 H 0.28857 0.25617 0.05453 0.0
H744 H 0.3537 0.18036 0.00582 0.0
H745 H 0.3147 0.1879 0.20524 0.0
H746 H 0.37622 0.23808 0.9925 0.0
H747 H 0.34759 0.24242 0.94648 0.0
H748 H 0.36468 0.2141 0.9344 0.0
H749 H 0.32586 0.24747 0.23916 0.0
H750 H 0.29993 0.22667 0.24544 0.0
H751 H 0.29946 0.25226 0.1832 0.0
C752 C 0.18756 0.6749 0.91285 0.0
C753 C 0.17769 0.65798 0.86369 0.0
C754 C 0.21309 0.67929 0.916 0.0
C755 C 0.22909 0.66572 0.87072 0.0
C756 C 0.21908 0.64925 0.81923 0.0
C757 C 0.19339 0.64588 0.81558 0.0
C758 C 0.22299 0.69767 0.96969 0.0
C759 C 0.23554 0.63404 0.77094 0.0
C760 C 0.29654 0.68085 0.83779 0.0
C761 C 0.30825 0.66418 0.88418 0.0
C762 C 0.27069 0.68287 0.83638 0.0
C763 C 0.25632 0.66715 0.8805 0.0
C764 C 0.26815 0.6511 0.92981 0.0
C765 C 0.29405 0.65011 0.93182 0.0
C766 C 0.25879 0.70089 0.78518 0.0
C767 C 0.25349 0.6337 0.97679 0.0
H768 H 0.17531 0.68432 0.9499 0.0
H769 H 0.18573 0.63259 0.77816 0.0
H770 H 0.23248 0.6877 0.01372 0.0
H771 H 0.2368 0.71003 0.9441 0.0
H772 H 0.20806 0.70919 0.99333 0.0
H773 H 0.22481 0.62264 0.73242 0.0
H774 H 0.24818 0.64625 0.74029 0.0
H775 H 0.24719 0.62156 0.80392 0.0
H776 H 0.3076 0.69178 0.80107 0.0
H777 H 0.30313 0.63701 0.96708 0.0
H778 H 0.24374 0.71124 0.81226 0.0
H779 H 0.25042 0.69064 0.73979 0.0
H780 H 0.27236 0.71434 0.7632 0.0
H781 H 0.23948 0.64406 0.00805 0.0
H782 H 0.26544 0.62329 0.01467 0.0
H783 H 0.24343 0.62022 0.94271 0.0
C784 C 0.64215 0.79744 0.09267 0.0
C785 C 0.65833 0.81095 0.13637 0.0
C786 C 0.64351 0.77165 0.08872 0.0
C787 C 0.66186 0.75901 0.12839 0.0
C788 C 0.67869 0.77256 0.17136 0.0
C789 C 0.67653 0.79846 0.17554 0.0
C790 C 0.62485 0.7579 0.04352 0.0
C791 C 0.69876 0.75968 0.21328 0.0
C792 C 0.64491 0.69286 0.17207 0.0
C793 C 0.65613 0.67989 0.11569 0.0
C794 C 0.64754 0.71851 0.17856 0.0
C795 C 0.66207 0.73152 0.12802 0.0
C796 C 0.67443 0.7184 0.07291 0.0
C797 C 0.67113 0.69269 0.06696 0.0
C798 C 0.63367 0.73182 0.23734 0.0
C799 C 0.69042 0.73164 0.01881 0.0
H800 H 0.62797 0.80703 0.06248 0.0
H801 H 0.68919 0.80891 0.20885 0.0
H802 H 0.63444 0.7463 0.00315 0.0
H803 H 0.6138 0.74531 0.07793 0.0
H804 H 0.61199 0.77057 0.01513 0.0
H805 H 0.71147 0.77297 0.23978 0.0
H806 H 0.69037 0.74769 0.25496 0.0
H807 H 0.70969 0.74753 0.1773 0.0
H808 H 0.63332 0.68305 0.21005 0.0
H809 H 0.68002 0.68268 0.02373 0.0
H810 H 0.61928 0.74386 0.2133 0.0
H811 H 0.64637 0.74392 0.26807 0.0
H812 H 0.62456 0.71883 0.27518 0.0
H813 H 0.67864 0.74303 0.98311 0.0
H814 H 0.7012 0.71855 0.9852 0.0
H815 H 0.70343 0.74436 0.04629 0.0
C816 C 0.70182 0.33235 0.93248 0.0
C817 C 0.69016 0.35547 0.93647 0.0
C818 C 0.72771 0.33054 0.93166 0.0
C819 C 0.74214 0.35237 0.93471 0.0
C820 C 0.73044 0.37561 0.9427 0.0
C821 C 0.70458 0.37686 0.94368 0.0
C822 C 0.73958 0.30541 0.92411 0.0
C823 C 0.74518 0.39931 0.9467 0.0
C824 C 0.81034 0.35204 0.97995 0.0
C825 C 0.82113 0.35527 0.91218 0.0
C826 C 0.78467 0.34992 0.98784 0.0
C827 C 0.76943 0.35125 0.92649 0.0
C828 C 0.78026 0.35353 0.8576 0.0
C829 C 0.80606 0.35543 0.85122 0.0
C830 C 0.77385 0.34724 0.06207 0.0
C831 C 0.76454 0.35503 0.79092 0.0
H832 H 0.69074 0.31576 0.92672 0.0
H833 H 0.69566 0.39478 0.94687 0.0
H834 H 0.74846 0.30391 0.87068 0.0
H835 H 0.75429 0.30295 0.96489 0.0
H836 H 0.72596 0.29016 0.92975 0.0
H837 H 0.7333 0.41572 0.95648 0.0
H838 H 0.75911 0.39813 0.99015 0.0
H839 H 0.75536 0.40214 0.89569 0.0
H840 H 0.82194 0.35166 0.02729 0.0
H841 H 0.81436 0.35787 0.79879 0.0
H842 H 0.76049 0.33168 0.06365 0.0
H843 H 0.76356 0.36429 0.07634 0.0
H844 H 0.78829 0.34402 0.10334 0.0
H845 H 0.75152 0.33919 0.78879 0.0
H846 H 0.77583 0.3551 0.74118 0.0
H847 H 0.75329 0.37218 0.7923 0.0
C848 C 0.81452 0.69745 0.67122 0.0
C849 C 0.83295 0.6849 0.63304 0.0
C850 C 0.81285 0.72336 0.66831 0.0
C851 C 0.83047 0.73687 0.628 0.0
C852 C 0.84854 0.72415 0.58743 0.0
C853 C 0.84937 0.6983 0.58982 0.0
C854 C 0.7929 0.7363 0.71061 0.0
C855 C 0.86803 0.73785 0.54504 0.0
C856 C 0.82684 0.80557 0.58639 0.0
C857 C 0.84211 0.81527 0.64011 0.0
C858 C 0.82155 0.78011 0.584 0.0
C859 C 0.83232 0.76413 0.63545 0.0
C860 C 0.84711 0.77404 0.69094 0.0
C861 C 0.85158 0.79948 0.69298 0.0
C862 C 0.80516 0.77022 0.52522 0.0
C863 C 0.85935 0.75763 0.74612 0.0
H864 H 0.80161 0.68705 0.70392 0.0
H865 H 0.86363 0.68863 0.56016 0.0
H866 H 0.80119 0.74547 0.75802 0.0
H867 H 0.78403 0.7509 0.67766 0.0
H868 H 0.77845 0.72324 0.72954 0.0
H869 H 0.87976 0.72519 0.51277 0.0
H870 H 0.8593 0.75144 0.50847 0.0
H871 H 0.88013 0.74833 0.58224 0.0
H872 H 0.81932 0.81779 0.54583 0.0
H873 H 0.86339 0.80688 0.73474 0.0
H874 H 0.79123 0.75727 0.54762 0.0
H875 H 0.81647 0.75971 0.48612 0.0
H876 H 0.79542 0.78526 0.49613 0.0
H877 H 0.84536 0.74598 0.77347 0.0
H878 H 0.86952 0.7684 0.78734 0.0
H879 H 0.87259 0.74499 0.71922 0.0
C880 C 0.79604 0.14754 0.267 0.0
C881 C 0.80874 0.15669 0.32688 0.0
C882 C 0.77019 0.14802 0.26405 0.0
C883 C 0.75678 0.15829 0.32189 0.0
C884 C 0.76957 0.1693 0.37993 0.0
C885 C 0.79548 0.16814 0.38212 0.0
C886 C 0.75726 0.13576 0.20173 0.0
C887 C 0.75587 0.18093 0.44182 0.0
C888 C 0.68725 0.16658 0.30247 0.0
C889 C 0.67859 0.14589 0.34001 0.0
C890 C 0.71276 0.1711 0.29628 0.0
C891 C 0.72972 0.15414 0.3268 0.0
C892 C 0.72091 0.13281 0.36264 0.0
C893 C 0.69545 0.12914 0.36957 0.0
C894 C 0.72155 0.19426 0.259 0.0
C895 C 0.73837 0.11392 0.39431 0.0
H896 H 0.80623 0.13874 0.22395 0.0
H897 H 0.80527 0.17549 0.4281 0.0
H898 H 0.74868 0.11822 0.22011 0.0
H899 H 0.74223 0.1477 0.1809 0.0
H900 H 0.77019 0.13147 0.15715 0.0
H901 H 0.76832 0.192 0.47663 0.0
H902 H 0.74081 0.19304 0.42196 0.0
H903 H 0.74726 0.16622 0.47493 0.0
H904 H 0.67412 0.17964 0.28032 0.0
H905 H 0.68868 0.11305 0.39825 0.0
H906 H 0.73459 0.18951 0.21524 0.0
H907 H 0.73176 0.20607 0.29758 0.0
H908 H 0.70603 0.20516 0.23618 0.0
H909 H 0.75129 0.10712 0.35254 0.0
H910 H 0.72846 0.09781 0.41757 0.0
H911 H 0.74966 0.1226 0.43708 0.0
C912 C 0.14925 0.29805 0.57798 0.0
C913 C 0.16411 0.31213 0.62395 0.0
C914 C 0.14987 0.27221 0.57967 0.0
C915 C 0.16629 0.26013 0.62713 0.0
C916 C 0.18227 0.27424 0.67124 0.0
C917 C 0.1807 0.3002 0.67001 0.0
C918 C 0.13204 0.25788 0.53314 0.0
C919 C 0.20052 0.26194 0.72089 0.0
C920 C 0.14401 0.19705 0.68534 0.0
C921 C 0.1555 0.18163 0.63503 0.0
C922 C 0.14822 0.22258 0.68527 0.0
C923 C 0.16482 0.23285 0.63474 0.0
C924 C 0.17761 0.21718 0.58651 0.0
C925 C 0.1725 0.1917 0.58648 0.0
C926 C 0.13374 0.23868 0.73643 0.0
C927 C 0.19596 0.22744 0.5333 0.0
H928 H 0.1363 0.30725 0.54255 0.0
H929 H 0.19234 0.31112 0.70511 0.0
H930 H 0.1422 0.24451 0.49909 0.0
H931 H 0.1192 0.24709 0.56749 0.0
H932 H 0.12092 0.27012 0.49784 0.0
H933 H 0.21376 0.2754 0.74436 0.0
H934 H 0.19049 0.25268 0.76525 0.0
H935 H 0.21107 0.24747 0.69182 0.0
H936 H 0.13083 0.1893 0.72295 0.0
H937 H 0.18161 0.17972 0.5481 0.0
H938 H 0.12104 0.25081 0.70566 0.0
H939 H 0.14637 0.25086 0.76712 0.0
H940 H 0.12261 0.22765 0.77497 0.0
H941 H 0.18602 0.23784 0.49097 0.0
H942 H 0.20697 0.2126 0.5073 0.0
H943 H 0.20876 0.24055 0.56005 0.0
C944 C 0.20677 0.84311 0.37639 0.0
C945 C 0.19151 0.84242 0.31586 0.0
C946 C 0.23259 0.84253 0.36933 0.0
C947 C 0.2433 0.84094 0.30013 0.0
C948 C 0.22792 0.8386 0.23926 0.0
C949 C 0.20218 0.83953 0.24782 0.0
C950 C 0.24839 0.84511 0.43559 0.0
C951 C 0.23862 0.83644 0.16479 0.0
C952 C 0.30553 0.87246 0.28522 0.0
C953 C 0.32181 0.85262 0.2954 0.0
C954 C 0.27992 0.86872 0.28355 0.0
C955 C 0.27037 0.84448 0.29133 0.0
C956 C 0.28677 0.82415 0.29617 0.0
C957 C 0.31237 0.82847 0.29852 0.0
C958 C 0.26306 0.89092 0.27812 0.0
C959 C 0.27727 0.79801 0.30302 0.0
H960 H 0.19858 0.84531 0.42905 0.0
H961 H 0.19042 0.83875 0.20085 0.0
H962 H 0.26263 0.83036 0.43713 0.0
H963 H 0.25823 0.86312 0.43422 0.0
H964 H 0.23731 0.84418 0.48565 0.0
H965 H 0.22439 0.83127 0.12459 0.0
H966 H 0.24684 0.85441 0.14873 0.0
H967 H 0.25362 0.82245 0.16361 0.0
H968 H 0.31271 0.89117 0.2826 0.0
H969 H 0.32489 0.81305 0.30627 0.0
H970 H 0.25256 0.89306 0.32884 0.0
H971 H 0.24941 0.88825 0.23448 0.0
H972 H 0.27341 0.90831 0.26782 0.0
H973 H 0.26905 0.79537 0.35696 0.0
H974 H 0.29221 0.78414 0.29573 0.0
H975 H 0.26252 0.79441 0.26307 0.0
C976 C 0.1844 0.06977 0.82555 0.0
C977 C 0.18822 0.08469 0.76519 0.0
C978 C 0.20351 0.06596 0.87542 0.0
C979 C 0.22644 0.0782 0.86573 0.0
C980 C 0.23047 0.09275 0.80377 0.0
C981 C 0.21144 0.09545 0.75372 0.0
C982 C 0.19892 0.04953 0.93943 0.0
C983 C 0.25436 0.10672 0.79226 0.0
C984 C 0.26434 0.0992 0.02428 0.0
C985 C 0.28564 0.08475 0.01671 0.0
C986 C 0.24436 0.09645 0.97733 0.0
C987 C 0.24542 0.07817 0.92311 0.0
C988 C 0.26617 0.06227 0.91864 0.0
C989 C 0.28635 0.06611 0.96469 0.0
C990 C 0.22296 0.11431 0.98261 0.0
C991 C 0.26751 0.04195 0.86338 0.0
H992 H 0.16649 0.06127 0.83403 0.0
H993 H 0.21439 0.10711 0.70719 0.0
H994 H 0.21488 0.03701 0.9483 0.0
H995 H 0.19682 0.06104 0.98823 0.0
H996 H 0.18193 0.0382 0.9329 0.0
H997 H 0.25466 0.11684 0.74044 0.0
H998 H 0.25704 0.12027 0.83624 0.0
H999 H 0.27028 0.09383 0.79347 0.0
H1000 H 0.26384 0.1137 0.06442 0.0
H1001 H 0.30275 0.05473 0.9595 0.0
H1002 H 0.20521 0.10412 0.98563 0.0
H1003 H 0.22235 0.12601 0.93375 0.0
H1004 H 0.22441 0.1266 0.03012 0.0
H1005 H 0.24967 0.03185 0.8604 0.0
H1006 H 0.28249 0.02853 0.87539 0.0
H1007 H 0.27108 0.05008 0.8098 0.0
C1008 C 0.10783 0.77841 0.22137 0.0
C1009 C 0.09299 0.79952 0.21569 0.0
C1010 C 0.10335 0.75757 0.17897 0.0
C1011 C 0.08287 0.75746 0.13175 0.0
C1012 C 0.06707 0.77834 0.12831 0.0
C1013 C 0.07268 0.79945 0.16927 0.0
C1014 C 0.12121 0.73611 0.18252 0.0
C1015 C 0.04451 0.77847 0.08079 0.0
C1016 C 0.09202 0.71555 0.97213 0.0
C1017 C 0.08244 0.69315 0.99775 0.0
C1018 C 0.09119 0.73702 0.01393 0.0
C1019 C 0.07963 0.73627 0.08195 0.0
C1020 C 0.06813 0.71416 0.10558 0.0
C1021 C 0.07016 0.69262 0.06379 0.0
C1022 C 0.10449 0.75988 0.98768 0.0
C1023 C 0.05473 0.71295 0.17643 0.0
H1024 H 0.12365 0.77859 0.25705 0.0
H1025 H 0.06109 0.81575 0.16563 0.0
H1026 H 0.11131 0.71893 0.19768 0.0
H1027 H 0.12958 0.73298 0.12896 0.0
H1028 H 0.13631 0.73927 0.22176 0.0
H1029 H 0.03235 0.79459 0.09173 0.0
H1030 H 0.05024 0.77915 0.02376 0.0
H1031 H 0.0337 0.76122 0.08846 0.0
H1032 H 0.10168 0.71596 0.92121 0.0
H1033 H 0.06257 0.67532 0.08329 0.0
H1034 H 0.12062 0.76364 0.02278 0.0
H1035 H 0.0922 0.77624 0.99047 0.0
H1036 H 0.1112 0.75788 0.9317 0.0
H1037 H 0.06837 0.71242 0.22076 0.0
H1038 H 0.04286 0.69624 0.18045 0.0
H1039 H 0.04309 0.72963 0.1842 0.0
C1040 C 0.70767 0.89514 0.93651 0.0
C1041 C 0.70603 0.90635 0.00383 0.0
C1042 C 0.72919 0.89751 0.89497 0.0
C1043 C 0.74902 0.91225 0.92045 0.0
C1044 C 0.74669 0.92488 0.98651 0.0
C1045 C 0.72541 0.92132 0.02825 0.0
C1046 C 0.73121 0.88317 0.82578 0.0
C1047 C 0.76694 0.94158 0.01404 0.0
C1048 C 0.81304 0.89489 0.85442 0.0
C1049 C 0.81542 0.91009 0.79412 0.0
C1050 C 0.79168 0.89578 0.89703 0.0
C1051 C 0.77275 0.91295 0.88026 0.0
C1052 C 0.77594 0.92957 0.82234 0.0
C1053 C 0.79704 0.92756 0.77891 0.0
C1054 C 0.78872 0.87729 0.95711 0.0
C1055 C 0.75668 0.94881 0.80461 0.0
H1056 H 0.69272 0.88336 0.91824 0.0
H1057 H 0.72397 0.93008 0.08036 0.0
H1058 H 0.73542 0.89583 0.78067 0.0
H1059 H 0.74669 0.86976 0.82957 0.0
H1060 H 0.714 0.87287 0.81303 0.0
H1061 H 0.76092 0.9525 0.06136 0.0
H1062 H 0.78321 0.93034 0.0296 0.0
H1063 H 0.77301 0.95453 0.97134 0.0
H1064 H 0.82711 0.88113 0.86542 0.0
H1065 H 0.79895 0.93931 0.73212 0.0
H1066 H 0.77269 0.86508 0.94579 0.0
H1067 H 0.78486 0.88694 0.00831 0.0
H1068 H 0.8054 0.86557 0.96421 0.0
H1069 H 0.74003 0.93968 0.78221 0.0
H1070 H 0.76354 0.96248 0.76483 0.0
H1071 H 0.75089 0.95879 0.85378 0.0
C1072 C 0.9253 0.19753 0.1716 0.0
C1073 C 0.90774 0.19895 0.22659 0.0
C1074 C 0.93075 0.21838 0.12932 0.0
C1075 C 0.91755 0.24067 0.14078 0.0
C1076 C 0.90011 0.24218 0.19716 0.0
C1077 C 0.89575 0.22143 0.24006 0.0
C1078 C 0.95013 0.21641 0.07144 0.0
C1079 C 0.88503 0.2653 0.20993 0.0
C1080 C 0.93227 0.30425 0.0662 0.0
C1081 C 0.91609 0.30523 0.00772 0.0
C1082 C 0.93462 0.28247 0.10683 0.0
C1083 C 0.91973 0.2617 0.08993 0.0
C1084 C 0.90413 0.26239 0.02913 0.0
C1085 C 0.90282 0.28402 0.98816 0.0
C1086 C 0.95216 0.28206 0.16965 0.0
C1087 C 0.88738 0.24098 0.01032 0.0
H1088 H 0.93476 0.18018 0.16174 0.0
H1089 H 0.88206 0.22251 0.28241 0.0
H1090 H 0.9411 0.21613 0.01812 0.0
H1091 H 0.96259 0.23272 0.0728 0.0
H1092 H 0.96141 0.19935 0.077 0.0
H1093 H 0.8725 0.26351 0.25684 0.0
H1094 H 0.89738 0.28137 0.2189 0.0
H1095 H 0.87368 0.26942 0.16185 0.0
H1096 H 0.94276 0.32057 0.08083 0.0
H1097 H 0.89024 0.28473 0.94299 0.0
H1098 H 0.9625 0.26434 0.17131 0.0
H1099 H 0.94153 0.28356 0.2203 0.0
H1100 H 0.96558 0.2976 0.16748 0.0
H1101 H 0.89812 0.22358 0.00641 0.0
H1102 H 0.87748 0.24392 0.95888 0.0
H1103 H 0.87345 0.23843 0.0534 0.0
C1104 C 0.20636 0.41994 0.42946 0.0
C1105 C 0.20891 0.40532 0.49097 0.0
C1106 C 0.22596 0.4223 0.38046 0.0
C1107 C 0.24817 0.40903 0.39232 0.0
C1108 C 0.25097 0.39476 0.45539 0.0
C1109 C 0.23143 0.3934 0.50443 0.0
C1110 C 0.22262 0.43831 0.3149 0.0
C1111 C 0.27403 0.37974 0.46912 0.0
C1112 C 0.28475 0.38708 0.2316 0.0
C1113 C 0.30597 0.40186 0.23557 0.0
C1114 C 0.26565 0.38954 0.2817 0.0
C1115 C 0.26748 0.40779 0.33581 0.0
C1116 C 0.28848 0.42344 0.33847 0.0
C1117 C 0.30775 0.41998 0.2889 0.0
C1118 C 0.24394 0.37198 0.27822 0.0
C1119 C 0.29068 0.44358 0.39407 0.0
H1120 H 0.18901 0.42933 0.41937 0.0
H1121 H 0.23339 0.38196 0.55183 0.0
H1122 H 0.23899 0.45039 0.30706 0.0
H1123 H 0.22094 0.42645 0.26666 0.0
H1124 H 0.20585 0.45008 0.31869 0.0
H1125 H 0.27372 0.37053 0.52235 0.0
H1126 H 0.27593 0.36531 0.42717 0.0
H1127 H 0.29067 0.39166 0.46606 0.0
H1128 H 0.28342 0.37296 0.19053 0.0
H1129 H 0.32409 0.43157 0.29143 0.0
H1130 H 0.22644 0.38249 0.27319 0.0
H1131 H 0.24284 0.36109 0.32856 0.0
H1132 H 0.24531 0.35892 0.23243 0.0
H1133 H 0.27371 0.45511 0.39442 0.0
H1134 H 0.30691 0.45573 0.38439 0.0
H1135 H 0.2925 0.43524 0.44811 0.0
C1136 C 0.38241 0.80457 0.57303 0.0
C1137 C 0.4029 0.81462 0.53739 0.0
C1138 C 0.38442 0.78264 0.61264 0.0
C1139 C 0.40753 0.77043 0.61694 0.0
C1140 C 0.42853 0.78098 0.58344 0.0
C1141 C 0.42596 0.80298 0.54391 0.0
C1142 C 0.36158 0.77209 0.6479 0.0
C1143 C 0.45349 0.76859 0.58733 0.0
C1144 C 0.41105 0.72306 0.76638 0.0
C1145 C 0.40441 0.70127 0.73035 0.0
C1146 C 0.41351 0.74554 0.72947 0.0
C1147 C 0.40921 0.74624 0.65472 0.0
C1148 C 0.40396 0.72402 0.61741 0.0
C1149 C 0.40162 0.70177 0.65572 0.0
C1150 C 0.41926 0.76877 0.77119 0.0
C1151 C 0.39941 0.72398 0.53759 0.0
H1152 H 0.36454 0.81347 0.56821 0.0
H1153 H 0.44185 0.81063 0.51627 0.0
H1154 H 0.35717 0.7538 0.62412 0.0
H1155 H 0.36494 0.76915 0.70592 0.0
H1156 H 0.34523 0.78432 0.64164 0.0
H1157 H 0.46832 0.78008 0.56302 0.0
H1158 H 0.45842 0.76464 0.64388 0.0
H1159 H 0.45279 0.75061 0.55879 0.0
H1160 H 0.41337 0.72279 0.82408 0.0
H1161 H 0.39656 0.68498 0.62757 0.0
H1162 H 0.40261 0.78073 0.77294 0.0
H1163 H 0.43414 0.77946 0.74447 0.0
H1164 H 0.42501 0.76469 0.82709 0.0
H1165 H 0.38189 0.73384 0.52587 0.0
H1166 H 0.39809 0.70494 0.51555 0.0
H1167 H 0.41445 0.73395 0.50929 0.0
C1168 C 0.69329 0.57216 0.29841 0.0
C1169 C 0.6968 0.58653 0.23678 0.0
C1170 C 0.7122 0.56978 0.3496 0.0
C1171 C 0.73472 0.58274 0.3397 0.0
C1172 C 0.73859 0.59657 0.27629 0.0
C1173 C 0.7197 0.59801 0.22521 0.0
C1174 C 0.70773 0.55424 0.41553 0.0
C1175 C 0.76205 0.61119 0.26437 0.0
C1176 C 0.76876 0.60622 0.50315 0.0
C1177 C 0.78998 0.59139 0.50333 0.0
C1178 C 0.75045 0.60322 0.45093 0.0
C1179 C 0.75307 0.5844 0.39876 0.0
C1180 C 0.774 0.56867 0.40037 0.0
C1181 C 0.79249 0.57263 0.45209 0.0
C1182 C 0.72879 0.62086 0.44999 0.0
C1183 C 0.77703 0.54797 0.34686 0.0
H1184 H 0.67568 0.56307 0.30709 0.0
H1185 H 0.72247 0.60921 0.17767 0.0
H1186 H 0.72391 0.54221 0.42641 0.0
H1187 H 0.70524 0.56645 0.46274 0.0
H1188 H 0.69101 0.54246 0.41008 0.0
H1189 H 0.76275 0.61977 0.2103 0.0
H1190 H 0.76339 0.62609 0.3051 0.0
H1191 H 0.77847 0.59915 0.27095 0.0
H1192 H 0.76685 0.62085 0.54252 0.0
H1193 H 0.80882 0.56102 0.45266 0.0
H1194 H 0.71117 0.61045 0.45327 0.0
H1195 H 0.72862 0.6313 0.39876 0.0
H1196 H 0.72941 0.63432 0.49492 0.0
H1197 H 0.75996 0.53662 0.34458 0.0
H1198 H 0.79289 0.53576 0.36019 0.0
H1199 H 0.78005 0.55577 0.29258 0.0
C1200 C 0.59131 0.19622 0.58442 0.0
C1201 C 0.59218 0.19739 0.50946 0.0
C1202 C 0.59148 0.21793 0.62579 0.0
C1203 C 0.59251 0.24125 0.59118 0.0
C1204 C 0.59212 0.2425 0.5155 0.0
C1205 C 0.59198 0.22056 0.47559 0.0
C1206 C 0.59178 0.2159 0.70646 0.0
C1207 C 0.59313 0.26698 0.47655 0.0
C1208 C 0.5805 0.29987 0.69853 0.0
C1209 C 0.60466 0.30742 0.71477 0.0
C1210 C 0.57617 0.27835 0.65818 0.0
C1211 C 0.59648 0.26417 0.63362 0.0
C1212 C 0.62089 0.27201 0.64883 0.0
C1213 C 0.62466 0.29352 0.68919 0.0
C1214 C 0.5499 0.27058 0.64271 0.0
C1215 C 0.64306 0.2575 0.62321 0.0
H1216 H 0.59139 0.17835 0.61079 0.0
H1217 H 0.59246 0.2216 0.41759 0.0
H1218 H 0.61 0.22205 0.72708 0.0
H1219 H 0.57755 0.22817 0.73029 0.0
H1220 H 0.58842 0.19666 0.72505 0.0
H1221 H 0.59028 0.26486 0.41792 0.0
H1222 H 0.5789 0.27978 0.49786 0.0
H1223 H 0.61142 0.27576 0.48548 0.0
H1224 H 0.56498 0.31049 0.71855 0.0
H1225 H 0.64338 0.29924 0.70169 0.0
H1226 H 0.54631 0.2521 0.66641 0.0
H1227 H 0.54705 0.26891 0.58405 0.0
H1228 H 0.53617 0.28387 0.66451 0.0
H1229 H 0.64242 0.23845 0.64528 0.0
H1230 H 0.66081 0.26618 0.63938 0.0
H1231 H 0.64272 0.25592 0.56394 0.0
loop_
_geom_bond_atom_site_label_1
_geom_bond_atom_site_label_2
_geom_bond_distance
_geom_bond_site_symmetry_2
_ccdc_geom_bond_type
In0 O1 2.294 . S
In0 O2 2.326 . S
In0 O6 2.266 . S
In0 O7 2.326 . S
In0 O8 2.266 . S
In0 O9 2.326 . S
In0 O11 2.294 . S
In0 O12 2.326 . S
O1 In0 2.294 . S
O1 C10 1.240 . S
O2 In0 2.326 . S
O2 C10 1.252 . S
C3 O6 1.252 . S
C3 O7 1.260 . S
C4 O11 1.240 . S
C4 O12 1.252 . S
C5 O8 1.252 . S
C5 O9 1.260 . S
O6 In0 2.266 . S
O6 C3 1.252 . S
O7 In0 2.326 . S
O7 C3 1.260 . S
O8 In0 2.266 . S
O8 C5 1.252 . S
O9 In0 2.326 . S
O9 C5 1.260 . S
C10 O1 1.240 . S
C10 O2 1.252 . S
O11 In0 2.294 . S
O11 C4 1.240 . S
O12 In0 2.326 . S
O12 C4 1.252 . S
In13 O14 2.294 . S
In13 O15 2.326 . S
In13 O19 2.266 . S
In13 O20 2.326 . S
In13 O21 2.266 . S
In13 O22 2.326 . S
In13 O24 2.294 . S
In13 O25 2.326 . S
O14 In13 2.294 . S
O14 C23 1.240 . S
O15 In13 2.326 . S
O15 C23 1.252 . S
C16 O19 1.252 . S
C16 O20 1.260 . S
C17 O24 1.240 . S
C17 O25 1.252 . S
C18 O21 1.252 . S
C18 O22 1.260 . S
O19 In13 2.266 . S
O19 C16 1.252 . S
O20 In13 2.326 . S
O20 C16 1.260 . S
O21 In13 2.266 . S
O21 C18 1.252 . S
O22 In13 2.326 . S
O22 C18 1.260 . S
C23 O14 1.240 . S
C23 O15 1.252 . S
O24 In13 2.294 . S
O24 C17 1.240 . S
O25 In13 2.326 . S
O25 C17 1.252 . S
In26 O27 2.294 . S
In26 O28 2.326 . S
In26 O32 2.266 . S
In26 O33 2.326 . S
In26 O34 2.266 . S
In26 O35 2.326 . S
In26 O37 2.294 . S
In26 O38 2.326 . S
O27 In26 2.294 . S
O27 C36 1.240 . S
O28 In26 2.326 . S
O28 C36 1.252 . S
C29 O32 1.252 . S
C29 O33 1.260 . S
C30 O37 1.240 . S
C30 O38 1.252 . S
C31 O34 1.252 . S
C31 O35 1.260 . S
O32 In26 2.266 . S
O32 C29 1.252 . S
O33 In26 2.326 . S
O33 C29 1.260 . S
O34 In26 2.266 . S
O34 C31 1.252 . S
O35 In26 2.326 . S
O35 C31 1.260 . S
C36 O27 1.240 . S
C36 O28 1.252 . S
O37 In26 2.294 . S
O37 C30 1.240 . S
O38 In26 2.326 . S
O38 C30 1.252 . S
In39 O40 2.294 . S
In39 O41 2.326 . S
In39 O45 2.266 . S
In39 O46 2.326 . S
In39 O47 2.266 . S
In39 O48 2.326 . S
In39 O50 2.294 . S
In39 O51 2.326 . S
O40 In39 2.294 . S
O40 C49 1.240 . S
O41 In39 2.326 . S
O41 C49 1.252 . S
C42 O45 1.252 . S
C42 O46 1.260 . S
C43 O50 1.240 . S
C43 O51 1.252 . S
C44 O47 1.252 . S
C44 O48 1.260 . S
O45 In39 2.266 . S
O45 C42 1.252 . S
O46 In39 2.326 . S
O46 C42 1.260 . S
O47 In39 2.266 . S
O47 C44 1.252 . S
O48 In39 2.326 . S
O48 C44 1.260 . S
C49 O40 1.240 . S
C49 O41 1.252 . S
O50 In39 2.294 . S
O50 C43 1.240 . S
O51 In39 2.326 . S
O51 C43 1.252 . S
In52 O53 2.294 . S
In52 O54 2.326 . S
In52 O58 2.266 1_554 S
In52 O59 2.326 . S
In52 O60 2.266 . S
In52 O61 2.326 . S
In52 O63 2.294 . S
In52 O64 2.326 . S
O53 In52 2.294 . S
O53 C62 1.240 . S
O54 In52 2.326 . S
O54 C62 1.252 . S
C55 O58 1.252 1_554 S
C55 O59 1.260 . S
C56 O63 1.240 . S
C56 O64 1.252 . S
C57 O60 1.252 . S
C57 O61 1.260 . S
O58 In52 2.266 1_556 S
O58 C55 1.252 1_556 S
O59 In52 2.326 . S
O59 C55 1.260 . S
O60 In52 2.266 . S
O60 C57 1.252 . S
O61 In52 2.326 . S
O61 C57 1.260 . S
C62 O53 1.240 . S
C62 O54 1.252 . S
O63 In52 2.294 . S
O63 C56 1.240 . S
O64 In52 2.326 . S
O64 C56 1.252 . S
In65 O66 2.294 . S
In65 O67 2.326 . S
In65 O71 2.266 1_556 S
In65 O72 2.326 . S
In65 O73 2.266 . S
In65 O74 2.326 . S
In65 O76 2.294 . S
In65 O77 2.326 . S
O66 In65 2.294 . S
O66 C75 1.240 . S
O67 In65 2.326 . S
O67 C75 1.252 . S
C68 O71 1.252 1_556 S
C68 O72 1.260 . S
C69 O76 1.240 . S
C69 O77 1.252 . S
C70 O73 1.252 . S
C70 O74 1.260 . S
O71 In65 2.266 1_554 S
O71 C68 1.252 1_554 S
O72 In65 2.326 . S
O72 C68 1.260 . S
O73 In65 2.266 . S
O73 C70 1.252 . S
O74 In65 2.326 . S
O74 C70 1.260 . S
C75 O66 1.240 . S
C75 O67 1.252 . S
O76 In65 2.294 . S
O76 C69 1.240 . S
O77 In65 2.326 . S
O77 C69 1.252 . S
In78 O79 2.294 . S
In78 O80 2.326 . S
In78 O84 2.266 1_554 S
In78 O85 2.326 . S
In78 O86 2.266 . S
In78 O87 2.326 . S
In78 O89 2.294 . S
In78 O90 2.326 . S
O79 In78 2.294 . S
O79 C88 1.240 . S
O80 In78 2.326 . S
O80 C88 1.252 . S
C81 O84 1.252 1_554 S
C81 O85 1.260 . S
C82 O89 1.240 . S
C82 O90 1.252 . S
C83 O86 1.252 . S
C83 O87 1.260 . S
O84 In78 2.266 1_556 S
O84 C81 1.252 1_556 S
O85 In78 2.326 . S
O85 C81 1.260 . S
O86 In78 2.266 . S
O86 C83 1.252 . S
O87 In78 2.326 . S
O87 C83 1.260 . S
C88 O79 1.240 . S
C88 O80 1.252 . S
O89 In78 2.294 . S
O89 C82 1.240 . S
O90 In78 2.326 . S
O90 C82 1.252 . S
In91 O92 2.294 . S
In91 O93 2.326 . S
In91 O97 2.266 1_556 S
In91 O98 2.326 . S
In91 O99 2.266 . S
In91 O100 2.326 . S
In91 O102 2.294 . S
In91 O103 2.326 . S
O92 In91 2.294 . S
O92 C101 1.240 . S
O93 In91 2.326 . S
O93 C101 1.252 . S
C94 O97 1.252 1_556 S
C94 O98 1.260 . S
C95 O102 1.240 . S
C95 O103 1.252 . S
C96 O99 1.252 . S
C96 O100 1.260 . S
O97 In91 2.266 1_554 S
O97 C94 1.252 1_554 S
O98 In91 2.326 . S
O98 C94 1.260 . S
O99 In91 2.266 . S
O99 C96 1.252 . S
O100 In91 2.326 . S
O100 C96 1.260 . S
C101 O92 1.240 . S
C101 O93 1.252 . S
O102 In91 2.294 . S
O102 C95 1.240 . S
O103 In91 2.326 . S
O103 C95 1.252 . S
In104 O105 2.294 . S
In104 O106 2.326 . S
In104 O110 2.266 . S
In104 O111 2.326 . S
In104 O112 2.266 . S
In104 O113 2.326 . S
In104 O115 2.294 . S
In104 O116 2.326 . S
O105 In104 2.294 . S
O105 C114 1.240 . S
O106 In104 2.326 . S
O106 C114 1.252 . S
C107 O110 1.252 . S
C107 O111 1.260 . S
C108 O115 1.240 . S
C108 O116 1.252 . S
C109 O112 1.252 . S
C109 O113 1.260 . S
O110 In104 2.266 . S
O110 C107 1.252 . S
O111 In104 2.326 . S
O111 C107 1.260 . S
O112 In104 2.266 . S
O112 C109 1.252 . S
O113 In104 2.326 . S
O113 C109 1.260 . S
C114 O105 1.240 . S
C114 O106 1.252 . S
O115 In104 2.294 . S
O115 C108 1.240 . S
O116 In104 2.326 . S
O116 C108 1.252 . S
In117 O118 2.294 . S
In117 O119 2.326 . S
In117 O123 2.266 . S
In117 O124 2.326 . S
In117 O125 2.266 . S
In117 O126 2.326 . S
In117 O128 2.294 . S
In117 O129 2.326 . S
O118 In117 2.294 . S
O118 C127 1.240 . S
O119 In117 2.326 . S
O119 C127 1.252 . S
C120 O123 1.252 . S
C120 O124 1.260 . S
C121 O128 1.240 . S
C121 O129 1.252 . S
C122 O125 1.252 . S
C122 O126 1.260 . S
O123 In117 2.266 . S
O123 C120 1.252 . S
O124 In117 2.326 . S
O124 C120 1.260 . S
O125 In117 2.266 . S
O125 C122 1.252 . S
O126 In117 2.326 . S
O126 C122 1.260 . S
C127 O118 1.240 . S
C127 O119 1.252 . S
O128 In117 2.294 . S
O128 C121 1.240 . S
O129 In117 2.326 . S
O129 C121 1.252 . S
In130 O131 2.294 . S
In130 O132 2.326 . S
In130 O136 2.266 . S
In130 O137 2.326 . S
In130 O138 2.266 . S
In130 O139 2.326 . S
In130 O141 2.294 . S
In130 O142 2.326 . S
O131 In130 2.294 . S
O131 C140 1.240 . S
O132 In130 2.326 . S
O132 C140 1.252 . S
C133 O136 1.252 . S
C133 O137 1.260 . S
C134 O141 1.240 . S
C134 O142 1.252 . S
C135 O138 1.252 . S
C135 O139 1.260 . S
O136 In130 2.266 . S
O136 C133 1.252 . S
O137 In130 2.326 . S
O137 C133 1.260 . S
O138 In130 2.266 . S
O138 C135 1.252 . S
O139 In130 2.326 . S
O139 C135 1.260 . S
C140 O131 1.240 . S
C140 O132 1.252 . S
O141 In130 2.294 . S
O141 C134 1.240 . S
O142 In130 2.326 . S
O142 C134 1.252 . S
In143 O144 2.294 . S
In143 O145 2.326 . S
In143 O149 2.266 . S
In143 O150 2.326 . S
In143 O151 2.266 . S
In143 O152 2.326 . S
In143 O154 2.294 . S
In143 O155 2.326 . S
O144 In143 2.294 . S
O144 C153 1.240 . S
O145 In143 2.326 . S
O145 C153 1.252 . S
C146 O149 1.252 . S
C146 O150 1.260 . S
C147 O154 1.240 . S
C147 O155 1.252 . S
C148 O151 1.252 . S
C148 O152 1.260 . S
O149 In143 2.266 . S
O149 C146 1.252 . S
O150 In143 2.326 . S
O150 C146 1.260 . S
O151 In143 2.266 . S
O151 C148 1.252 . S
O152 In143 2.326 . S
O152 C148 1.260 . S
C153 O144 1.240 . S
C153 O145 1.252 . S
O154 In143 2.294 . S
O154 C147 1.240 . S
O155 In143 2.326 . S
O155 C147 1.252 . S
In156 O157 2.294 . S
In156 O158 2.326 . S
In156 O162 2.266 . S
In156 O163 2.326 . S
In156 O164 2.266 . S
In156 O165 2.326 . S
In156 O167 2.294 . S
In156 O168 2.326 . S
O157 In156 2.294 . S
O157 C166 1.240 . S
O158 In156 2.326 . S
O158 C166 1.252 . S
C159 O162 1.252 . S
C159 O163 1.260 . S
C160 O167 1.240 . S
C160 O168 1.252 . S
C161 O164 1.252 . S
C161 O165 1.260 . S
O162 In156 2.266 . S
O162 C159 1.252 . S
O163 In156 2.326 . S
O163 C159 1.260 . S
O164 In156 2.266 . S
O164 C161 1.252 . S
O165 In156 2.326 . S
O165 C161 1.260 . S
C166 O157 1.240 . S
C166 O158 1.252 . S
O167 In156 2.294 . S
O167 C160 1.240 . S
O168 In156 2.326 . S
O168 C160 1.252 . S
In169 O170 2.294 . S
In169 O171 2.326 . S
In169 O175 2.266 . S
In169 O176 2.326 . S
In169 O177 2.266 . S
In169 O178 2.326 . S
In169 O180 2.294 . S
In169 O181 2.326 . S
O170 In169 2.294 . S
O170 C179 1.240 . S
O171 In169 2.326 . S
O171 C179 1.252 . S
C172 O175 1.252 . S
C172 O176 1.260 . S
C173 O180 1.240 . S
C173 O181 1.252 . S
C174 O177 1.252 . S
C174 O178 1.260 . S
O175 In169 2.266 . S
O175 C172 1.252 . S
O176 In169 2.326 . S
O176 C172 1.260 . S
O177 In169 2.266 . S
O177 C174 1.252 . S
O178 In169 2.326 . S
O178 C174 1.260 . S
C179 O170 1.240 . S
C179 O171 1.252 . S
O180 In169 2.294 . S
O180 C173 1.240 . S
O181 In169 2.326 . S
O181 C173 1.252 . S
In182 O183 2.294 . S
In182 O184 2.326 . S
In182 O188 2.266 . S
In182 O189 2.326 . S
In182 O190 2.266 . S
In182 O191 2.326 . S
In182 O193 2.294 . S
In182 O194 2.326 . S
O183 In182 2.294 . S
O183 C192 1.240 . S
O184 In182 2.326 . S
O184 C192 1.252 . S
C185 O188 1.252 . S
C185 O189 1.260 . S
C186 O193 1.240 . S
C186 O194 1.252 . S
C187 O190 1.252 . S
C187 O191 1.260 . S
O188 In182 2.266 . S
O188 C185 1.252 . S
O189 In182 2.326 . S
O189 C185 1.260 . S
O190 In182 2.266 . S
O190 C187 1.252 . S
O191 In182 2.326 . S
O191 C187 1.260 . S
C192 O183 1.240 . S
C192 O184 1.252 . S
O193 In182 2.294 . S
O193 C186 1.240 . S
O194 In182 2.326 . S
O194 C186 1.252 . S
In195 O196 2.294 . S
In195 O197 2.326 . S
In195 O201 2.266 . S
In195 O202 2.326 . S
In195 O203 2.266 . S
In195 O204 2.326 . S
In195 O206 2.294 . S
In195 O207 2.326 . S
O196 In195 2.294 . S
O196 C205 1.240 . S
O197 In195 2.326 . S
O197 C205 1.252 . S
C198 O201 1.252 . S
C198 O202 1.260 . S
C199 O206 1.240 . S
C199 O207 1.252 . S
C200 O203 1.252 . S
C200 O204 1.260 . S
O201 In195 2.266 . S
O201 C198 1.252 . S
O202 In195 2.326 . S
O202 C198 1.260 . S
O203 In195 2.266 . S
O203 C200 1.252 . S
O204 In195 2.326 . S
O204 C200 1.260 . S
C205 O196 1.240 . S
C205 O197 1.252 . S
O206 In195 2.294 . S
O206 C199 1.240 . S
O207 In195 2.326 . S
O207 C199 1.252 . S
C208 C209 1.391 . S
C208 C210 1.394 . S
C208 H224 0.931 . S
C209 C208 1.391 . S
C209 C213 1.376 . S
C210 C208 1.394 . S
C210 C211 1.369 . S
C210 C214 1.531 . S
C211 C210 1.369 . S
C211 C212 1.410 . S
C211 C219 1.503 1_565 S
C212 C211 1.410 . S
C212 C213 1.392 . S
C212 C215 1.511 . S
C213 C209 1.376 . S
C213 C212 1.392 . S
C213 H225 0.929 . S
C214 C210 1.531 . S
C214 H226 0.960 . S
C214 H227 0.962 . S
C214 H228 0.960 . S
C215 C212 1.511 . S
C215 H229 0.961 . S
C215 H230 0.961 . S
C215 H231 0.961 . S
C216 C217 1.370 . S
C216 C218 1.363 . S
C216 H232 0.931 . S
C217 C216 1.370 . S
C217 C221 1.408 . S
C218 C216 1.363 . S
C218 C219 1.370 . S
C218 C222 1.524 . S
C219 C211 1.503 1_545 S
C219 C218 1.370 . S
C219 C220 1.403 . S
C220 C219 1.403 . S
C220 C221 1.404 . S
C220 C223 1.539 1_545 S
C221 C217 1.408 . S
C221 C220 1.404 . S
C221 H233 0.930 . S
C222 C218 1.524 . S
C222 H234 0.956 . S
C222 H235 0.961 . S
C222 H236 0.961 . S
C223 C220 1.539 1_565 S
C223 H237 0.958 . S
C223 H238 0.965 . S
C223 H239 0.960 . S
H224 C208 0.931 . S
H225 C213 0.929 . S
H226 C214 0.960 . S
H227 C214 0.962 . S
H228 C214 0.960 . S
H229 C215 0.961 . S
H230 C215 0.961 . S
H231 C215 0.961 . S
H232 C216 0.931 . S
H233 C221 0.930 . S
H234 C222 0.956 . S
H235 C222 0.961 . S
H236 C222 0.961 . S
H237 C223 0.958 . S
H238 C223 0.965 . S
H239 C223 0.960 . S
C240 C241 1.391 . S
C240 C242 1.394 . S
C240 H256 0.931 . S
C241 C240 1.391 . S
C241 C245 1.376 . S
C242 C240 1.394 . S
C242 C243 1.369 . S
C242 C246 1.531 . S
C243 C242 1.369 . S
C243 C244 1.410 . S
C243 C251 1.503 1_455 S
C244 C243 1.410 . S
C244 C245 1.392 . S
C244 C247 1.508 1_455 S
C245 C241 1.376 . S
C245 C244 1.392 . S
C245 H257 0.929 . S
C246 C242 1.531 . S
C246 H258 0.945 1_455 S
C246 H259 0.962 . S
C246 H260 0.960 . S
C247 C244 1.508 1_655 S
C247 H261 0.959 1_655 S
C247 H262 0.967 . S
C247 H263 0.960 1_655 S
C248 C249 1.370 . S
C248 C250 1.363 . S
C248 H264 0.931 . S
C249 C248 1.370 . S
C249 C253 1.408 . S
C250 C248 1.363 . S
C250 C251 1.370 . S
C250 C254 1.524 . S
C251 C243 1.503 1_655 S
C251 C250 1.370 . S
C251 C252 1.403 . S
C252 C251 1.403 . S
C252 C253 1.404 . S
C252 C255 1.539 . S
C253 C249 1.408 . S
C253 C252 1.404 . S
C253 H265 0.930 . S
C254 C250 1.524 . S
C254 H266 0.956 . S
C254 H267 0.961 . S
C254 H268 0.961 . S
C255 C252 1.539 . S
C255 H269 0.958 . S
C255 H270 0.961 . S
C255 H271 0.960 1_655 S
H256 C240 0.931 . S
H257 C245 0.929 . S
H258 C246 0.945 1_655 S
H259 C246 0.962 . S
H260 C246 0.960 . S
H261 C247 0.959 1_455 S
H262 C247 0.967 . S
H263 C247 0.960 1_455 S
H264 C248 0.931 . S
H265 C253 0.930 . S
H266 C254 0.956 . S
H267 C254 0.961 . S
H268 C254 0.961 . S
H269 C255 0.958 . S
H270 C255 0.961 . S
H271 C255 0.960 1_455 S
C272 C273 1.391 . S
C272 C274 1.394 . S
C272 H288 0.931 . S
C273 C272 1.391 . S
C273 C277 1.376 . S
C274 C272 1.394 . S
C274 C275 1.369 . S
C274 C278 1.531 . S
C275 C274 1.369 . S
C275 C276 1.410 . S
C275 C283 1.503 1_565 S
C276 C275 1.410 . S
C276 C277 1.392 . S
C276 C279 1.511 1_565 S
C277 C273 1.376 . S
C277 C276 1.392 . S
C277 H289 0.929 . S
C278 C274 1.531 . S
C278 H290 0.960 . S
C278 H291 0.962 . S
C278 H292 0.960 . S
C279 C276 1.511 1_545 S
C279 H293 0.961 . S
C279 H294 0.961 . S
C279 H295 0.961 . S
C280 C281 1.370 . S
C280 C282 1.363 . S
C280 H296 0.931 . S
C281 C280 1.370 . S
C281 C285 1.408 . S
C282 C280 1.363 . S
C282 C283 1.370 . S
C282 C286 1.524 . S
C283 C275 1.503 1_545 S
C283 C282 1.370 . S
C283 C284 1.403 . S
C284 C283 1.403 . S
C284 C285 1.404 . S
C284 C287 1.539 . S
C285 C281 1.408 . S
C285 C284 1.404 . S
C285 H297 0.930 . S
C286 C282 1.524 . S
C286 H298 0.956 . S
C286 H299 0.961 . S
C286 H300 0.961 . S
C287 C284 1.539 . S
C287 H301 0.958 . S
C287 H302 0.961 . S
C287 H303 0.960 . S
H288 C272 0.931 . S
H289 C277 0.929 . S
H290 C278 0.960 . S
H291 C278 0.962 . S
H292 C278 0.960 . S
H293 C279 0.961 . S
H294 C279 0.961 . S
H295 C279 0.961 . S
H296 C280 0.931 . S
H297 C285 0.930 . S
H298 C286 0.956 . S
H299 C286 0.961 . S
H300 C286 0.961 . S
H301 C287 0.958 . S
H302 C287 0.961 . S
H303 C287 0.960 . S
C304 C305 1.391 . S
C304 C306 1.394 . S
C304 H320 0.931 . S
C305 C304 1.391 . S
C305 C309 1.376 . S
C306 C304 1.394 . S
C306 C307 1.369 . S
C306 C310 1.531 . S
C307 C306 1.369 . S
C307 C308 1.410 . S
C307 C315 1.503 1_455 S
C308 C307 1.410 . S
C308 C309 1.392 . S
C308 C311 1.511 . S
C309 C305 1.376 . S
C309 C308 1.392 . S
C309 H321 0.929 . S
C310 C306 1.531 . S
C310 H322 0.960 . S
C310 H323 0.962 . S
C310 H324 0.960 . S
C311 C308 1.511 . S
C311 H325 0.961 . S
C311 H326 0.961 1_455 S
C311 H327 0.961 . S
C312 C313 1.370 . S
C312 C314 1.363 . S
C312 H328 0.931 . S
C313 C312 1.370 . S
C313 C317 1.408 . S
C314 C312 1.363 . S
C314 C315 1.370 . S
C314 C318 1.524 1_655 S
C315 C307 1.503 1_655 S
C315 C314 1.370 . S
C315 C316 1.403 . S
C316 C315 1.403 . S
C316 C317 1.404 . S
C316 C319 1.539 . S
C317 C313 1.408 . S
C317 C316 1.404 . S
C317 H329 0.930 . S
C318 C314 1.524 1_455 S
C318 H330 0.956 . S
C318 H331 0.961 . S
C318 H332 0.961 1_455 S
C319 C316 1.539 . S
C319 H333 0.958 . S
C319 H334 0.961 . S
C319 H335 0.925 1_655 S
H320 C304 0.931 . S
H321 C309 0.929 . S
H322 C310 0.960 . S
H323 C310 0.962 . S
H324 C310 0.960 . S
H325 C311 0.961 . S
H326 C311 0.961 1_655 S
H327 C311 0.961 . S
H328 C312 0.931 . S
H329 C317 0.930 . S
H330 C318 0.956 . S
H331 C318 0.961 . S
H332 C318 0.961 1_655 S
H333 C319 0.958 . S
H334 C319 0.961 . S
H335 C319 0.925 1_455 S
C336 C337 1.391 1_554 S
C336 C338 1.394 . S
C336 H352 0.931 . S
C337 C336 1.391 1_556 S
C337 C341 1.376 . S
C338 C336 1.394 . S
C338 C339 1.369 1_554 S
C338 C342 1.531 . S
C339 C338 1.369 1_556 S
C339 C340 1.410 . S
C339 C347 1.503 . S
C340 C339 1.410 . S
C340 C341 1.392 . S
C340 C343 1.511 . S
C341 C337 1.376 . S
C341 C340 1.392 . S
C341 H353 0.929 . S
C342 C338 1.531 . S
C342 H354 0.969 . S
C342 H355 0.962 . S
C342 H356 0.960 . S
C343 C340 1.511 . S
C343 H357 0.961 . S
C343 H358 0.961 . S
C343 H359 0.961 . S
C344 C345 1.370 . S
C344 C346 1.363 . S
C344 H360 0.931 1_556 S
C345 C344 1.370 . S
C345 C349 1.408 . S
C346 C344 1.363 . S
C346 C347 1.370 . S
C346 C350 1.524 1_556 S
C347 C339 1.503 . S
C347 C346 1.370 . S
C347 C348 1.403 . S
C348 C347 1.403 . S
C348 C349 1.404 . S
C348 C351 1.539 . S
C349 C345 1.408 . S
C349 C348 1.404 . S
C349 H361 0.930 . S
C350 C346 1.524 1_554 S
C350 H362 0.956 . S
C350 H363 0.961 . S
C350 H364 0.961 . S
C351 C348 1.539 . S
C351 H365 0.958 . S
C351 H366 0.961 . S
C351 H367 0.960 . S
H352 C336 0.931 . S
H353 C341 0.929 . S
H354 C342 0.969 . S
H355 C342 0.962 . S
H356 C342 0.960 . S
H357 C343 0.961 . S
H358 C343 0.961 . S
H359 C343 0.961 . S
H360 C344 0.931 1_554 S
H361 C349 0.930 . S
H362 C350 0.956 . S
H363 C350 0.961 . S
H364 C350 0.961 . S
H365 C351 0.958 . S
H366 C351 0.961 . S
H367 C351 0.960 . S
C368 C369 1.391 . S
C368 C370 1.394 . S
C368 H384 0.931 . S
C369 C368 1.391 . S
C369 C373 1.376 1_554 S
C370 C368 1.394 . S
C370 C371 1.369 . S
C370 C374 1.531 . S
C371 C370 1.369 . S
C371 C372 1.410 1_554 S
C371 C379 1.503 . S
C372 C371 1.410 1_556 S
C372 C373 1.392 . S
C372 C375 1.511 . S
C373 C369 1.376 1_556 S
C373 C372 1.392 . S
C373 H385 0.929 . S
C374 C370 1.531 . S
C374 H386 0.960 . S
C374 H387 0.962 . S
C374 H388 0.960 . S
C375 C372 1.511 . S
C375 H389 0.961 . S
C375 H390 0.961 . S
C375 H391 0.961 . S
C376 C377 1.370 . S
C376 C378 1.363 . S
C376 H392 0.931 . S
C377 C376 1.370 . S
C377 C381 1.408 . S
C378 C376 1.363 . S
C378 C379 1.370 . S
C378 C382 1.524 . S
C379 C371 1.503 . S
C379 C378 1.370 . S
C379 C380 1.403 . S
C380 C379 1.403 . S
C380 C381 1.404 . S
C380 C383 1.539 . S
C381 C377 1.408 . S
C381 C380 1.404 . S
C381 H393 0.930 . S
C382 C378 1.524 . S
C382 H394 0.956 . S
C382 H395 0.961 1_554 S
C382 H396 0.961 . S
C383 C380 1.539 . S
C383 H397 0.958 . S
C383 H398 0.961 . S
C383 H399 0.960 . S
H384 C368 0.931 . S
H385 C373 0.929 . S
H386 C374 0.960 . S
H387 C374 0.962 . S
H388 C374 0.960 . S
H389 C375 0.961 . S
H390 C375 0.961 . S
H391 C375 0.961 . S
H392 C376 0.931 . S
H393 C381 0.930 . S
H394 C382 0.956 . S
H395 C382 0.961 1_556 S
H396 C382 0.961 . S
H397 C383 0.958 . S
H398 C383 0.961 . S
H399 C383 0.960 . S
C400 C401 1.391 . S
C400 C402 1.394 . S
C400 H416 0.931 . S
C401 C400 1.391 . S
C401 C405 1.376 . S
C402 C400 1.394 . S
C402 C403 1.369 . S
C402 C406 1.531 . S
C403 C402 1.369 . S
C403 C404 1.410 . S
C403 C411 1.503 . S
C404 C403 1.410 . S
C404 C405 1.392 . S
C404 C407 1.511 . S
C405 C401 1.376 . S
C405 C404 1.392 . S
C405 H417 0.929 . S
C406 C402 1.531 . S
C406 H418 0.960 1_556 S
C406 H419 0.962 . S
C406 H420 0.960 1_556 S
C407 C404 1.511 . S
C407 H421 0.961 . S
C407 H422 0.961 . S
C407 H423 0.961 1_556 S
C408 C409 1.370 1_556 S
C408 C410 1.363 . S
C408 H424 0.931 . S
C409 C408 1.370 1_554 S
C409 C413 1.408 . S
C410 C408 1.363 . S
C410 C411 1.370 . S
C410 C414 1.524 . S
C411 C403 1.503 . S
C411 C410 1.370 . S
C411 C412 1.403 1_556 S
C412 C411 1.403 1_554 S
C412 C413 1.404 . S
C412 C415 1.539 . S
C413 C409 1.408 . S
C413 C412 1.404 . S
C413 H425 0.930 . S
C414 C410 1.524 . S
C414 H426 0.956 . S
C414 H427 0.961 . S
C414 H428 0.961 . S
C415 C412 1.539 . S
C415 H429 0.958 . S
C415 H430 0.961 . S
C415 H431 0.960 . S
H416 C400 0.931 . S
H417 C405 0.929 . S
H418 C406 0.960 1_554 S
H419 C406 0.962 . S
H420 C406 0.960 1_554 S
H421 C407 0.961 . S
H422 C407 0.961 . S
H423 C407 0.961 1_554 S
H424 C408 0.931 . S
H425 C413 0.930 . S
H426 C414 0.956 . S
H427 C414 0.961 . S
H428 C414 0.961 . S
H429 C415 0.958 . S
H430 C415 0.961 . S
H431 C415 0.960 . S
C432 C433 1.391 . S
C432 C434 1.394 1_554 S
C432 H448 0.931 1_554 S
C433 C432 1.391 . S
C433 C437 1.376 . S
C434 C432 1.394 1_556 S
C434 C435 1.369 1_556 S
C434 C438 1.531 . S
C435 C434 1.369 1_554 S
C435 C436 1.410 . S
C435 C443 1.503 . S
C436 C435 1.410 . S
C436 C437 1.392 . S
C436 C439 1.511 . S
C437 C433 1.376 . S
C437 C436 1.392 . S
C437 H449 0.929 . S
C438 C434 1.531 . S
C438 H450 0.960 . S
C438 H451 0.962 . S
C438 H452 0.960 . S
C439 C436 1.511 . S
C439 H453 0.961 . S
C439 H454 0.961 . S
C439 H455 0.961 . S
C440 C441 1.370 1_556 S
C440 C442 1.363 1_556 S
C440 H456 0.931 . S
C441 C440 1.370 1_554 S
C441 C445 1.408 . S
C442 C440 1.363 1_554 S
C442 C443 1.370 . S
C442 C446 1.524 1_554 S
C443 C435 1.503 . S
C443 C442 1.370 . S
C443 C444 1.403 . S
C444 C443 1.403 . S
C444 C445 1.404 . S
C444 C447 1.539 . S
C445 C441 1.408 . S
C445 C444 1.404 . S
C445 H457 0.930 . S
C446 C442 1.524 1_556 S
C446 H458 0.956 . S
C446 H459 0.961 1_556 S
C446 H460 0.961 . S
C447 C444 1.539 . S
C447 H461 0.958 . S
C447 H462 0.961 . S
C447 H463 0.960 . S
H448 C432 0.931 1_556 S
H449 C437 0.929 . S
H450 C438 0.960 . S
H451 C438 0.962 . S
H452 C438 0.960 . S
H453 C439 0.961 . S
H454 C439 0.961 . S
H455 C439 0.961 . S
H456 C440 0.931 . S
H457 C445 0.930 . S
H458 C446 0.956 . S
H459 C446 0.961 1_554 S
H460 C446 0.961 . S
H461 C447 0.958 . S
H462 C447 0.961 . S
H463 C447 0.960 . S
C464 C465 1.391 . S
C464 C466 1.394 . S
C464 H480 0.931 . S
C465 C464 1.391 . S
C465 C469 1.376 . S
C466 C464 1.394 . S
C466 C467 1.369 . S
C466 C470 1.531 . S
C467 C466 1.369 . S
C467 C468 1.410 . S
C467 C475 1.503 . S
C468 C467 1.410 . S
C468 C469 1.392 . S
C468 C471 1.511 . S
C469 C465 1.376 . S
C469 C468 1.392 . S
C469 H481 0.929 . S
C470 C466 1.531 . S
C470 H482 0.960 . S
C470 H483 0.962 . S
C470 H484 0.960 . S
C471 C468 1.511 . S
C471 H485 0.961 . S
C471 H486 0.961 . S
C471 H487 0.961 . S
C472 C473 1.370 . S
C472 C474 1.363 . S
C472 H488 0.931 . S
C473 C472 1.370 . S
C473 C477 1.408 . S
C474 C472 1.363 . S
C474 C475 1.370 . S
C474 C478 1.524 . S
C475 C467 1.503 . S
C475 C474 1.370 . S
C475 C476 1.403 . S
C476 C475 1.403 . S
C476 C477 1.404 . S
C476 C479 1.539 . S
C477 C473 1.408 . S
C477 C476 1.404 . S
C477 H489 0.930 . S
C478 C474 1.524 . S
C478 H490 0.956 . S
C478 H491 0.961 . S
C478 H492 0.961 . S
C479 C476 1.539 . S
C479 H493 0.958 . S
C479 H494 0.961 . S
C479 H495 0.960 . S
H480 C464 0.931 . S
H481 C469 0.929 . S
H482 C470 0.960 . S
H483 C470 0.962 . S
H484 C470 0.960 . S
H485 C471 0.961 . S
H486 C471 0.961 . S
H487 C471 0.961 . S
H488 C472 0.931 . S
H489 C477 0.930 . S
H490 C478 0.956 . S
H491 C478 0.961 . S
H492 C478 0.961 . S
H493 C479 0.958 . S
H494 C479 0.961 . S
H495 C479 0.960 . S
C496 C497 1.391 . S
C496 C498 1.394 . S
C496 H512 0.931 . S
C497 C496 1.391 . S
C497 C501 1.376 . S
C498 C496 1.394 . S
C498 C499 1.369 . S
C498 C502 1.531 . S
C499 C498 1.369 . S
C499 C500 1.410 . S
C499 C507 1.503 . S
C500 C499 1.410 . S
C500 C501 1.392 . S
C500 C503 1.511 . S
C501 C497 1.376 . S
C501 C500 1.392 . S
C501 H513 0.929 . S
C502 C498 1.531 . S
C502 H514 0.960 . S
C502 H515 0.962 . S
C502 H516 0.960 . S
C503 C500 1.511 . S
C503 H517 0.961 . S
C503 H518 0.961 . S
C503 H519 0.961 . S
C504 C505 1.370 . S
C504 C506 1.363 . S
C504 H520 0.931 . S
C505 C504 1.370 . S
C505 C509 1.408 . S
C506 C504 1.363 . S
C506 C507 1.370 . S
C506 C510 1.524 . S
C507 C499 1.503 . S
C507 C506 1.370 . S
C507 C508 1.403 . S
C508 C507 1.403 . S
C508 C509 1.404 . S
C508 C511 1.539 . S
C509 C505 1.408 . S
C509 C508 1.404 . S
C509 H521 0.930 . S
C510 C506 1.524 . S
C510 H522 0.956 . S
C510 H523 0.961 . S
C510 H524 0.961 . S
C511 C508 1.539 . S
C511 H525 0.958 . S
C511 H526 0.961 . S
C511 H527 0.960 . S
H512 C496 0.931 . S
H513 C501 0.929 . S
H514 C502 0.960 . S
H515 C502 0.962 . S
H516 C502 0.960 . S
H517 C503 0.961 . S
H518 C503 0.961 . S
H519 C503 0.961 . S
H520 C504 0.931 . S
H521 C509 0.930 . S
H522 C510 0.956 . S
H523 C510 0.961 . S
H524 C510 0.961 . S
H525 C511 0.958 . S
H526 C511 0.961 . S
H527 C511 0.960 . S
C528 C529 1.391 . S
C528 C530 1.394 . S
C528 H544 0.931 . S
C529 C528 1.391 . S
C529 C533 1.376 . S
C530 C528 1.394 . S
C530 C531 1.369 . S
C530 C534 1.531 . S
C531 C530 1.369 . S
C531 C532 1.410 . S
C531 C539 1.503 . S
C532 C531 1.410 . S
C532 C533 1.392 . S
C532 C535 1.511 . S
C533 C529 1.376 . S
C533 C532 1.392 . S
C533 H545 0.929 . S
C534 C530 1.531 . S
C534 H546 0.960 . S
C534 H547 0.962 . S
C534 H548 0.960 . S
C535 C532 1.511 . S
C535 H549 0.961 . S
C535 H550 0.961 . S
C535 H551 0.961 . S
C536 C537 1.370 . S
C536 C538 1.363 . S
C536 H552 0.931 . S
C537 C536 1.370 . S
C537 C541 1.408 . S
C538 C536 1.363 . S
C538 C539 1.370 . S
C538 C542 1.524 . S
C539 C531 1.503 . S
C539 C538 1.370 . S
C539 C540 1.403 . S
C540 C539 1.403 . S
C540 C541 1.404 . S
C540 C543 1.539 . S
C541 C537 1.408 . S
C541 C540 1.404 . S
C541 H553 0.930 . S
C542 C538 1.524 . S
C542 H554 0.956 . S
C542 H555 0.961 . S
C542 H556 0.961 . S
C543 C540 1.539 . S
C543 H557 0.958 . S
C543 H558 0.961 . S
C543 H559 0.960 . S
H544 C528 0.931 . S
H545 C533 0.929 . S
H546 C534 0.960 . S
H547 C534 0.962 . S
H548 C534 0.960 . S
H549 C535 0.961 . S
H550 C535 0.961 . S
H551 C535 0.961 . S
H552 C536 0.931 . S
H553 C541 0.930 . S
H554 C542 0.956 . S
H555 C542 0.961 . S
H556 C542 0.961 . S
H557 C543 0.958 . S
H558 C543 0.961 . S
H559 C543 0.960 . S
C560 C561 1.391 . S
C560 C562 1.394 . S
C560 H576 0.931 . S
C561 C560 1.391 . S
C561 C565 1.376 . S
C562 C560 1.394 . S
C562 C563 1.369 . S
C562 C566 1.531 . S
C563 C562 1.369 . S
C563 C564 1.410 . S
C563 C571 1.503 . S
C564 C563 1.410 . S
C564 C565 1.392 . S
C564 C567 1.511 . S
C565 C561 1.376 . S
C565 C564 1.392 . S
C565 H577 0.929 . S
C566 C562 1.531 . S
C566 H578 0.960 . S
C566 H579 0.962 . S
C566 H580 0.960 . S
C567 C564 1.511 . S
C567 H581 0.961 . S
C567 H582 0.961 . S
C567 H583 0.961 . S
C568 C569 1.370 . S
C568 C570 1.363 . S
C568 H584 0.931 . S
C569 C568 1.370 . S
C569 C573 1.408 . S
C570 C568 1.363 . S
C570 C571 1.370 . S
C570 C574 1.524 . S
C571 C563 1.503 . S
C571 C570 1.370 . S
C571 C572 1.403 . S
C572 C571 1.403 . S
C572 C573 1.404 . S
C572 C575 1.539 . S
C573 C569 1.408 . S
C573 C572 1.404 . S
C573 H585 0.930 . S
C574 C570 1.524 . S
C574 H586 0.956 . S
C574 H587 0.961 . S
C574 H588 0.961 . S
C575 C572 1.539 . S
C575 H589 0.958 . S
C575 H590 0.961 . S
C575 H591 0.960 . S
H576 C560 0.931 . S
H577 C565 0.929 . S
H578 C566 0.960 . S
H579 C566 0.962 . S
H580 C566 0.960 . S
H581 C567 0.961 . S
H582 C567 0.961 . S
H583 C567 0.961 . S
H584 C568 0.931 . S
H585 C573 0.930 . S
H586 C574 0.956 . S
H587 C574 0.961 . S
H588 C574 0.961 . S
H589 C575 0.958 . S
H590 C575 0.961 . S
H591 C575 0.960 . S
C592 C593 1.391 . S
C592 C594 1.394 . S
C592 H608 0.931 . S
C593 C592 1.391 . S
C593 C597 1.376 . S
C594 C592 1.394 . S
C594 C595 1.369 . S
C594 C598 1.531 . S
C595 C594 1.369 . S
C595 C596 1.410 . S
C595 C603 1.503 1_565 S
C596 C595 1.410 . S
C596 C597 1.392 . S
C596 C599 1.511 1_565 S
C597 C593 1.376 . S
C597 C596 1.392 . S
C597 H609 0.929 . S
C598 C594 1.531 . S
C598 H610 0.994 . S
C598 H611 0.962 . S
C598 H612 0.960 . S
C599 C596 1.511 1_545 S
C599 H613 0.961 1_545 S
C599 H614 0.961 . S
C599 H615 0.961 . S
C600 C601 1.370 . S
C600 C602 1.363 . S
C600 H616 0.931 . S
C601 C600 1.370 . S
C601 C605 1.408 . S
C602 C600 1.363 . S
C602 C603 1.370 . S
C602 C606 1.524 . S
C603 C595 1.503 1_545 S
C603 C602 1.370 . S
C603 C604 1.403 . S
C604 C603 1.403 . S
C604 C605 1.404 . S
C604 C607 1.539 . S
C605 C601 1.408 . S
C605 C604 1.404 . S
C605 H617 0.930 . S
C606 C602 1.524 . S
C606 H618 0.956 . S
C606 H619 0.961 . S
C606 H620 0.961 . S
C607 C604 1.539 . S
C607 H621 0.958 . S
C607 H622 0.961 . S
C607 H623 0.930 1_545 S
H608 C592 0.931 . S
H609 C597 0.929 . S
H610 C598 0.994 . S
H611 C598 0.962 . S
H612 C598 0.960 . S
H613 C599 0.961 1_565 S
H614 C599 0.961 . S
H615 C599 0.961 . S
H616 C600 0.931 . S
H617 C605 0.930 . S
H618 C606 0.956 . S
H619 C606 0.961 . S
H620 C606 0.961 . S
H621 C607 0.958 . S
H622 C607 0.961 . S
H623 C607 0.930 1_565 S
C624 C625 1.391 . S
C624 C626 1.394 . S
C624 H640 0.931 . S
C625 C624 1.391 . S
C625 C629 1.376 . S
C626 C624 1.394 . S
C626 C627 1.369 . S
C626 C630 1.531 . S
C627 C626 1.369 . S
C627 C628 1.410 . S
C627 C635 1.503 1_655 S
C628 C627 1.410 . S
C628 C629 1.392 . S
C628 C631 1.511 . S
C629 C625 1.376 . S
C629 C628 1.392 . S
C629 H641 0.929 . S
C630 C626 1.531 . S
C630 H642 0.960 1_655 S
C630 H643 0.962 . S
C630 H644 0.960 . S
C631 C628 1.511 . S
C631 H645 0.961 . S
C631 H646 0.961 1_655 S
C631 H647 0.961 . S
C632 C633 1.370 . S
C632 C634 1.363 . S
C632 H648 0.931 . S
C633 C632 1.370 . S
C633 C637 1.408 . S
C634 C632 1.363 . S
C634 C635 1.370 . S
C634 C638 1.524 . S
C635 C627 1.503 1_455 S
C635 C634 1.370 . S
C635 C636 1.403 . S
C636 C635 1.403 . S
C636 C637 1.404 . S
C636 C639 1.539 . S
C637 C633 1.408 . S
C637 C636 1.404 . S
C637 H649 0.930 . S
C638 C634 1.524 . S
C638 H650 0.956 . S
C638 H651 0.961 . S
C638 H652 0.961 . S
C639 C636 1.539 . S
C639 H653 0.958 . S
C639 H654 0.961 . S
C639 H655 0.960 1_455 S
H640 C624 0.931 . S
H641 C629 0.929 . S
H642 C630 0.960 1_455 S
H643 C630 0.962 . S
H644 C630 0.960 . S
H645 C631 0.961 . S
H646 C631 0.961 1_455 S
H647 C631 0.961 . S
H648 C632 0.931 . S
H649 C637 0.930 . S
H650 C638 0.956 . S
H651 C638 0.961 . S
H652 C638 0.961 . S
H653 C639 0.958 . S
H654 C639 0.961 . S
H655 C639 0.960 1_655 S
C656 C657 1.391 . S
C656 C658 1.394 . S
C656 H672 0.931 . S
C657 C656 1.391 . S
C657 C661 1.376 . S
C658 C656 1.394 . S
C658 C659 1.369 . S
C658 C662 1.531 . S
C659 C658 1.369 . S
C659 C660 1.410 . S
C659 C667 1.503 1_565 S
C660 C659 1.410 . S
C660 C661 1.392 . S
C660 C663 1.511 . S
C661 C657 1.376 . S
C661 C660 1.392 . S
C661 H673 0.929 . S
C662 C658 1.531 . S
C662 H674 0.960 . S
C662 H675 0.962 . S
C662 H676 0.960 . S
C663 C660 1.511 . S
C663 H677 0.961 . S
C663 H678 0.961 1_565 S
C663 H679 0.961 . S
C664 C665 1.370 . S
C664 C666 1.363 . S
C664 H680 0.931 . S
C665 C664 1.370 . S
C665 C669 1.408 . S
C666 C664 1.363 . S
C666 C667 1.370 . S
C666 C670 1.524 1_545 S
C667 C659 1.503 1_545 S
C667 C666 1.370 . S
C667 C668 1.403 . S
C668 C667 1.403 . S
C668 C669 1.404 . S
C668 C671 1.539 . S
C669 C665 1.408 . S
C669 C668 1.404 . S
C669 H681 0.930 . S
C670 C666 1.524 1_565 S
C670 H682 0.956 . S
C670 H683 0.961 . S
C670 H684 0.961 1_565 S
C671 C668 1.539 . S
C671 H685 0.958 . S
C671 H686 0.961 . S
C671 H687 0.975 . S
H672 C656 0.931 . S
H673 C661 0.929 . S
H674 C662 0.960 . S
H675 C662 0.962 . S
H676 C662 0.960 . S
H677 C663 0.961 . S
H678 C663 0.961 1_545 S
H679 C663 0.961 . S
H680 C664 0.931 . S
H681 C669 0.930 . S
H682 C670 0.956 . S
H683 C670 0.961 . S
H684 C670 0.961 1_545 S
H685 C671 0.958 . S
H686 C671 0.961 . S
H687 C671 0.975 . S
C688 C689 1.391 . S
C688 C690 1.394 . S
C688 H704 0.931 . S
C689 C688 1.391 . S
C689 C693 1.376 . S
C690 C688 1.394 . S
C690 C691 1.369 . S
C690 C694 1.531 . S
C691 C690 1.369 . S
C691 C692 1.410 . S
C691 C699 1.503 1_655 S
C692 C691 1.410 . S
C692 C693 1.392 . S
C692 C695 1.511 . S
C693 C689 1.376 . S
C693 C692 1.392 . S
C693 H705 0.929 . S
C694 C690 1.531 . S
C694 H706 0.960 . S
C694 H707 0.962 . S
C694 H708 0.960 . S
C695 C692 1.511 . S
C695 H709 0.961 . S
C695 H710 0.981 . S
C695 H711 0.961 . S
C696 C697 1.370 . S
C696 C698 1.363 . S
C696 H712 0.931 . S
C697 C696 1.370 . S
C697 C701 1.408 . S
C698 C696 1.363 . S
C698 C699 1.370 . S
C698 C702 1.524 1_455 S
C699 C691 1.503 1_455 S
C699 C698 1.370 . S
C699 C700 1.403 . S
C700 C699 1.403 . S
C700 C701 1.404 . S
C700 C703 1.539 . S
C701 C697 1.408 . S
C701 C700 1.404 . S
C701 H713 0.930 . S
C702 C698 1.524 1_655 S
C702 H714 0.956 . S
C702 H715 0.961 . S
C702 H716 0.961 . S
C703 C700 1.539 . S
C703 H717 0.958 . S
C703 H718 0.961 . S
C703 H719 0.960 . S
H704 C688 0.931 . S
H705 C693 0.929 . S
H706 C694 0.960 . S
H707 C694 0.962 . S
H708 C694 0.960 . S
H709 C695 0.961 . S
H710 C695 0.981 . S
H711 C695 0.961 . S
H712 C696 0.931 . S
H713 C701 0.930 . S
H714 C702 0.956 . S
H715 C702 0.961 . S
H716 C702 0.961 . S
H717 C703 0.958 . S
H718 C703 0.961 . S
H719 C703 0.960 . S
C720 C721 1.391 . S
C720 C722 1.394 . S
C720 H736 0.931 . S
C721 C720 1.391 . S
C721 C725 1.376 . S
C722 C720 1.394 . S
C722 C723 1.369 . S
C722 C726 1.531 . S
C723 C722 1.369 . S
C723 C724 1.410 . S
C723 C731 1.503 . S
C724 C723 1.410 . S
C724 C725 1.392 . S
C724 C727 1.511 . S
C725 C721 1.376 . S
C725 C724 1.392 . S
C725 H737 0.929 . S
C726 C722 1.531 . S
C726 H738 0.960 . S
C726 H739 0.962 . S
C726 H740 0.960 . S
C727 C724 1.511 . S
C727 H741 0.961 . S
C727 H742 0.961 . S
C727 H743 0.961 . S
C728 C729 1.370 . S
C728 C730 1.363 . S
C728 H744 0.931 . S
C729 C728 1.370 . S
C729 C733 1.408 . S
C730 C728 1.363 . S
C730 C731 1.370 . S
C730 C734 1.524 . S
C731 C723 1.503 . S
C731 C730 1.370 . S
C731 C732 1.403 . S
C732 C731 1.403 . S
C732 C733 1.404 . S
C732 C735 1.539 . S
C733 C729 1.408 . S
C733 C732 1.404 . S
C733 H745 0.930 . S
C734 C730 1.524 . S
C734 H746 0.956 . S
C734 H747 0.961 . S
C734 H748 0.961 1_554 S
C735 C732 1.539 . S
C735 H749 0.958 . S
C735 H750 0.961 . S
C735 H751 0.960 . S
H736 C720 0.931 . S
H737 C725 0.929 . S
H738 C726 0.960 . S
H739 C726 0.962 . S
H740 C726 0.960 . S
H741 C727 0.961 . S
H742 C727 0.961 . S
H743 C727 0.961 . S
H744 C728 0.931 . S
H745 C733 0.930 . S
H746 C734 0.956 . S
H747 C734 0.961 . S
H748 C734 0.961 1_556 S
H749 C735 0.958 . S
H750 C735 0.961 . S
H751 C735 0.960 . S
C752 C753 1.391 . S
C752 C754 1.394 . S
C752 H768 0.931 . S
C753 C752 1.391 . S
C753 C757 1.376 . S
C754 C752 1.394 . S
C754 C755 1.369 . S
C754 C758 1.531 . S
C755 C754 1.369 . S
C755 C756 1.410 . S
C755 C763 1.503 . S
C756 C755 1.410 . S
C756 C757 1.392 . S
C756 C759 1.511 . S
C757 C753 1.376 . S
C757 C756 1.392 . S
C757 H769 0.929 . S
C758 C754 1.531 . S
C758 H770 0.960 1_556 S
C758 H771 0.962 1_556 S
C758 H772 0.960 1_556 S
C759 C756 1.511 . S
C759 H773 0.961 . S
C759 H774 0.961 . S
C759 H775 0.961 . S
C760 C761 1.370 . S
C760 C762 1.363 . S
C760 H776 0.931 . S
C761 C760 1.370 . S
C761 C765 1.408 . S
C762 C760 1.363 . S
C762 C763 1.370 . S
C762 C766 1.524 . S
C763 C755 1.503 . S
C763 C762 1.370 . S
C763 C764 1.403 . S
C764 C763 1.403 . S
C764 C765 1.404 . S
C764 C767 1.539 . S
C765 C761 1.408 . S
C765 C764 1.404 . S
C765 H777 0.930 . S
C766 C762 1.524 . S
C766 H778 0.956 . S
C766 H779 0.961 . S
C766 H780 0.961 . S
C767 C764 1.539 . S
C767 H781 0.958 . S
C767 H782 0.961 . S
C767 H783 0.960 . S
H768 C752 0.931 . S
H769 C757 0.929 . S
H770 C758 0.960 1_554 S
H771 C758 0.962 1_554 S
H772 C758 0.960 1_554 S
H773 C759 0.961 . S
H774 C759 0.961 . S
H775 C759 0.961 . S
H776 C760 0.931 . S
H777 C765 0.930 . S
H778 C766 0.956 . S
H779 C766 0.961 . S
H780 C766 0.961 . S
H781 C767 0.958 . S
H782 C767 0.961 . S
H783 C767 0.960 . S
C784 C785 1.391 . S
C784 C786 1.394 . S
C784 H800 0.931 . S
C785 C784 1.391 . S
C785 C789 1.376 . S
C786 C784 1.394 . S
C786 C787 1.369 . S
C786 C790 1.531 . S
C787 C786 1.369 . S
C787 C788 1.410 . S
C787 C795 1.503 . S
C788 C787 1.410 . S
C788 C789 1.392 . S
C788 C791 1.511 . S
C789 C785 1.376 . S
C789 C788 1.392 . S
C789 H801 0.929 . S
C790 C786 1.531 . S
C790 H802 0.960 . S
C790 H803 0.962 . S
C790 H804 0.960 . S
C791 C788 1.511 . S
C791 H805 0.961 . S
C791 H806 0.961 . S
C791 H807 0.961 . S
C792 C793 1.370 . S
C792 C794 1.363 . S
C792 H808 0.931 . S
C793 C792 1.370 . S
C793 C797 1.408 . S
C794 C792 1.363 . S
C794 C795 1.370 . S
C794 C798 1.524 . S
C795 C787 1.503 . S
C795 C794 1.370 . S
C795 C796 1.403 . S
C796 C795 1.403 . S
C796 C797 1.404 . S
C796 C799 1.539 1_554 S
C797 C793 1.408 . S
C797 C796 1.404 . S
C797 H809 0.930 1_554 S
C798 C794 1.524 . S
C798 H810 0.956 . S
C798 H811 0.961 . S
C798 H812 0.961 . S
C799 C796 1.539 1_556 S
C799 H813 0.958 . S
C799 H814 0.961 . S
C799 H815 0.960 . S
H800 C784 0.931 . S
H801 C789 0.929 . S
H802 C790 0.960 . S
H803 C790 0.962 . S
H804 C790 0.960 . S
H805 C791 0.961 . S
H806 C791 0.961 . S
H807 C791 0.961 . S
H808 C792 0.931 . S
H809 C797 0.930 1_556 S
H810 C798 0.956 . S
H811 C798 0.961 . S
H812 C798 0.961 . S
H813 C799 0.958 . S
H814 C799 0.961 . S
H815 C799 0.960 . S
C816 C817 1.391 . S
C816 C818 1.394 . S
C816 H832 0.931 . S
C817 C816 1.391 . S
C817 C821 1.376 . S
C818 C816 1.394 . S
C818 C819 1.369 . S
C818 C822 1.531 . S
C819 C818 1.369 . S
C819 C820 1.410 . S
C819 C827 1.503 . S
C820 C819 1.410 . S
C820 C821 1.392 . S
C820 C823 1.511 . S
C821 C817 1.376 . S
C821 C820 1.392 . S
C821 H833 0.929 . S
C822 C818 1.531 . S
C822 H834 0.960 . S
C822 H835 0.962 . S
C822 H836 0.960 . S
C823 C820 1.511 . S
C823 H837 0.961 . S
C823 H838 0.961 . S
C823 H839 0.961 . S
C824 C825 1.370 . S
C824 C826 1.363 . S
C824 H840 0.931 . S
C825 C824 1.370 . S
C825 C829 1.408 . S
C826 C824 1.363 . S
C826 C827 1.370 . S
C826 C830 1.524 . S
C827 C819 1.503 . S
C827 C826 1.370 . S
C827 C828 1.403 . S
C828 C827 1.403 . S
C828 C829 1.404 . S
C828 C831 1.539 . S
C829 C825 1.408 . S
C829 C828 1.404 . S
C829 H841 0.930 . S
C830 C826 1.524 . S
C830 H842 0.956 . S
C830 H843 0.961 . S
C830 H844 0.961 1_556 S
C831 C828 1.539 . S
C831 H845 0.958 . S
C831 H846 0.961 . S
C831 H847 0.960 . S
H832 C816 0.931 . S
H833 C821 0.929 . S
H834 C822 0.960 . S
H835 C822 0.962 . S
H836 C822 0.960 . S
H837 C823 0.961 . S
H838 C823 0.961 . S
H839 C823 0.961 . S
H840 C824 0.931 . S
H841 C829 0.930 . S
H842 C830 0.956 . S
H843 C830 0.961 . S
H844 C830 0.961 1_554 S
H845 C831 0.958 . S
H846 C831 0.961 . S
H847 C831 0.960 . S
C848 C849 1.391 . S
C848 C850 1.394 . S
C848 H864 0.931 . S
C849 C848 1.391 . S
C849 C853 1.376 . S
C850 C848 1.394 . S
C850 C851 1.369 . S
C850 C854 1.531 . S
C851 C850 1.369 . S
C851 C852 1.410 . S
C851 C859 1.503 . S
C852 C851 1.410 . S
C852 C853 1.392 . S
C852 C855 1.511 . S
C853 C849 1.376 . S
C853 C852 1.392 . S
C853 H865 0.929 . S
C854 C850 1.531 . S
C854 H866 0.960 . S
C854 H867 0.962 . S
C854 H868 0.960 . S
C855 C852 1.511 . S
C855 H869 0.961 . S
C855 H870 0.961 . S
C855 H871 0.961 . S
C856 C857 1.370 . S
C856 C858 1.363 . S
C856 H872 0.931 . S
C857 C856 1.370 . S
C857 C861 1.408 . S
C858 C856 1.363 . S
C858 C859 1.370 . S
C858 C862 1.524 . S
C859 C851 1.503 . S
C859 C858 1.370 . S
C859 C860 1.403 . S
C860 C859 1.403 . S
C860 C861 1.404 . S
C860 C863 1.539 . S
C861 C857 1.408 . S
C861 C860 1.404 . S
C861 H873 0.930 . S
C862 C858 1.524 . S
C862 H874 0.956 . S
C862 H875 0.961 . S
C862 H876 0.961 . S
C863 C860 1.539 . S
C863 H877 0.958 . S
C863 H878 0.961 . S
C863 H879 0.960 . S
H864 C848 0.931 . S
H865 C853 0.929 . S
H866 C854 0.960 . S
H867 C854 0.962 . S
H868 C854 0.960 . S
H869 C855 0.961 . S
H870 C855 0.961 . S
H871 C855 0.961 . S
H872 C856 0.931 . S
H873 C861 0.930 . S
H874 C862 0.956 . S
H875 C862 0.961 . S
H876 C862 0.961 . S
H877 C863 0.958 . S
H878 C863 0.961 . S
H879 C863 0.960 . S
C880 C881 1.391 . S
C880 C882 1.394 . S
C880 H896 0.931 . S
C881 C880 1.391 . S
C881 C885 1.376 . S
C882 C880 1.394 . S
C882 C883 1.369 . S
C882 C886 1.531 . S
C883 C882 1.369 . S
C883 C884 1.410 . S
C883 C891 1.503 . S
C884 C883 1.410 . S
C884 C885 1.392 . S
C884 C887 1.511 . S
C885 C881 1.376 . S
C885 C884 1.392 . S
C885 H897 0.929 . S
C886 C882 1.531 . S
C886 H898 0.960 . S
C886 H899 0.962 . S
C886 H900 0.960 . S
C887 C884 1.511 . S
C887 H901 0.961 . S
C887 H902 0.961 . S
C887 H903 0.961 . S
C888 C889 1.370 . S
C888 C890 1.363 . S
C888 H904 0.931 . S
C889 C888 1.370 . S
C889 C893 1.408 . S
C890 C888 1.363 . S
C890 C891 1.370 . S
C890 C894 1.524 . S
C891 C883 1.503 . S
C891 C890 1.370 . S
C891 C892 1.403 . S
C892 C891 1.403 . S
C892 C893 1.404 . S
C892 C895 1.539 . S
C893 C889 1.408 . S
C893 C892 1.404 . S
C893 H905 0.930 . S
C894 C890 1.524 . S
C894 H906 0.956 . S
C894 H907 0.961 . S
C894 H908 0.961 . S
C895 C892 1.539 . S
C895 H909 0.958 . S
C895 H910 0.961 . S
C895 H911 0.960 . S
H896 C880 0.931 . S
H897 C885 0.929 . S
H898 C886 0.960 . S
H899 C886 0.962 . S
H900 C886 0.960 . S
H901 C887 0.961 . S
H902 C887 0.961 . S
H903 C887 0.961 . S
H904 C888 0.931 . S
H905 C893 0.930 . S
H906 C894 0.956 . S
H907 C894 0.961 . S
H908 C894 0.961 . S
H909 C895 0.958 . S
H910 C895 0.961 . S
H911 C895 0.960 . S
C912 C913 1.391 . S
C912 C914 1.394 . S
C912 H928 0.931 . S
C913 C912 1.391 . S
C913 C917 1.376 . S
C914 C912 1.394 . S
C914 C915 1.369 . S
C914 C918 1.531 . S
C915 C914 1.369 . S
C915 C916 1.410 . S
C915 C923 1.503 . S
C916 C915 1.410 . S
C916 C917 1.392 . S
C916 C919 1.511 . S
C917 C913 1.376 . S
C917 C916 1.392 . S
C917 H929 0.929 . S
C918 C914 1.531 . S
C918 H930 0.960 . S
C918 H931 0.962 . S
C918 H932 0.960 . S
C919 C916 1.511 . S
C919 H933 0.961 . S
C919 H934 0.961 . S
C919 H935 0.961 . S
C920 C921 1.370 . S
C920 C922 1.363 . S
C920 H936 0.931 . S
C921 C920 1.370 . S
C921 C925 1.408 . S
C922 C920 1.363 . S
C922 C923 1.370 . S
C922 C926 1.524 . S
C923 C915 1.503 . S
C923 C922 1.370 . S
C923 C924 1.403 . S
C924 C923 1.403 . S
C924 C925 1.404 . S
C924 C927 1.539 . S
C925 C921 1.408 . S
C925 C924 1.404 . S
C925 H937 0.930 . S
C926 C922 1.524 . S
C926 H938 0.956 . S
C926 H939 0.961 . S
C926 H940 0.961 . S
C927 C924 1.539 . S
C927 H941 0.958 . S
C927 H942 0.961 . S
C927 H943 0.960 . S
H928 C912 0.931 . S
H929 C917 0.929 . S
H930 C918 0.960 . S
H931 C918 0.962 . S
H932 C918 0.960 . S
H933 C919 0.961 . S
H934 C919 0.961 . S
H935 C919 0.961 . S
H936 C920 0.931 . S
H937 C925 0.930 . S
H938 C926 0.956 . S
H939 C926 0.961 . S
H940 C926 0.961 . S
H941 C927 0.958 . S
H942 C927 0.961 . S
H943 C927 0.960 . S
C944 C945 1.391 . S
C944 C946 1.394 . S
C944 H960 0.931 . S
C945 C944 1.391 . S
C945 C949 1.376 . S
C946 C944 1.394 . S
C946 C947 1.369 . S
C946 C950 1.531 . S
C947 C946 1.369 . S
C947 C948 1.410 . S
C947 C955 1.503 . S
C948 C947 1.410 . S
C948 C949 1.392 . S
C948 C951 1.511 . S
C949 C945 1.376 . S
C949 C948 1.392 . S
C949 H961 0.929 . S
C950 C946 1.531 . S
C950 H962 0.960 . S
C950 H963 0.962 . S
C950 H964 0.960 . S
C951 C948 1.511 . S
C951 H965 0.961 . S
C951 H966 0.961 . S
C951 H967 0.961 . S
C952 C953 1.370 . S
C952 C954 1.363 . S
C952 H968 0.931 . S
C953 C952 1.370 . S
C953 C957 1.408 . S
C954 C952 1.363 . S
C954 C955 1.370 . S
C954 C958 1.524 . S
C955 C947 1.503 . S
C955 C954 1.370 . S
C955 C956 1.403 . S
C956 C955 1.403 . S
C956 C957 1.404 . S
C956 C959 1.539 . S
C957 C953 1.408 . S
C957 C956 1.404 . S
C957 H969 0.930 . S
C958 C954 1.524 . S
C958 H970 0.956 . S
C958 H971 0.961 . S
C958 H972 0.961 . S
C959 C956 1.539 . S
C959 H973 0.958 . S
C959 H974 0.961 . S
C959 H975 0.960 . S
H960 C944 0.931 . S
H961 C949 0.929 . S
H962 C950 0.960 . S
H963 C950 0.962 . S
H964 C950 0.960 . S
H965 C951 0.961 . S
H966 C951 0.961 . S
H967 C951 0.961 . S
H968 C952 0.931 . S
H969 C957 0.930 . S
H970 C958 0.956 . S
H971 C958 0.961 . S
H972 C958 0.961 . S
H973 C959 0.958 . S
H974 C959 0.961 . S
H975 C959 0.960 . S
C976 C977 1.391 . S
C976 C978 1.394 . S
C976 H992 0.931 . S
C977 C976 1.391 . S
C977 C981 1.376 . S
C978 C976 1.394 . S
C978 C979 1.369 . S
C978 C982 1.531 . S
C979 C978 1.369 . S
C979 C980 1.410 . S
C979 C987 1.503 . S
C980 C979 1.410 . S
C980 C981 1.392 . S
C980 C983 1.511 . S
C981 C977 1.376 . S
C981 C980 1.392 . S
C981 H993 0.929 . S
C982 C978 1.531 . S
C982 H994 0.960 . S
C982 H995 0.962 . S
C982 H996 0.960 . S
C983 C980 1.511 . S
C983 H997 0.961 . S
C983 H998 0.961 . S
C983 H999 0.961 . S
C984 C985 1.370 . S
C984 C986 1.363 . S
C984 H1000 0.931 1_556 S
C985 C984 1.370 . S
C985 C989 1.408 . S
C986 C984 1.363 . S
C986 C987 1.370 . S
C986 C990 1.524 . S
C987 C979 1.503 . S
C987 C986 1.370 . S
C987 C988 1.403 . S
C988 C987 1.403 . S
C988 C989 1.404 . S
C988 C991 1.539 . S
C989 C985 1.408 . S
C989 C988 1.404 . S
C989 H1001 0.930 . S
C990 C986 1.524 . S
C990 H1002 0.956 . S
C990 H1003 0.961 . S
C990 H1004 0.961 . S
C991 C988 1.539 . S
C991 H1005 0.958 . S
C991 H1006 0.961 . S
C991 H1007 0.960 . S
H992 C976 0.931 . S
H993 C981 0.929 . S
H994 C982 0.960 . S
H995 C982 0.962 . S
H996 C982 0.960 . S
H997 C983 0.961 . S
H998 C983 0.961 . S
H999 C983 0.961 . S
H1000 C984 0.931 1_554 S
H1001 C989 0.930 . S
H1002 C990 0.956 . S
H1003 C990 0.961 . S
H1004 C990 0.961 . S
H1005 C991 0.958 . S
H1006 C991 0.961 . S
H1007 C991 0.960 . S
C1008 C1009 1.391 . S
C1008 C1010 1.394 . S
C1008 H1024 0.931 . S
C1009 C1008 1.391 . S
C1009 C1013 1.376 . S
C1010 C1008 1.394 . S
C1010 C1011 1.369 . S
C1010 C1014 1.531 . S
C1011 C1010 1.369 . S
C1011 C1012 1.410 . S
C1011 C1019 1.503 . S
C1012 C1011 1.410 . S
C1012 C1013 1.392 . S
C1012 C1015 1.511 . S
C1013 C1009 1.376 . S
C1013 C1012 1.392 . S
C1013 H1025 0.929 . S
C1014 C1010 1.531 . S
C1014 H1026 0.960 . S
C1014 H1027 0.962 . S
C1014 H1028 0.960 . S
C1015 C1012 1.511 . S
C1015 H1029 0.961 . S
C1015 H1030 0.961 . S
C1015 H1031 0.961 . S
C1016 C1017 1.370 . S
C1016 C1018 1.363 . S
C1016 H1032 0.931 1_554 S
C1017 C1016 1.370 . S
C1017 C1021 1.408 . S
C1018 C1016 1.363 . S
C1018 C1019 1.370 . S
C1018 C1022 1.524 . S
C1019 C1011 1.503 . S
C1019 C1018 1.370 . S
C1019 C1020 1.403 . S
C1020 C1019 1.403 . S
C1020 C1021 1.404 . S
C1020 C1023 1.539 . S
C1021 C1017 1.408 . S
C1021 C1020 1.404 . S
C1021 H1033 0.930 . S
C1022 C1018 1.524 . S
C1022 H1034 0.956 . S
C1022 H1035 0.961 . S
C1022 H1036 0.961 . S
C1023 C1020 1.539 . S
C1023 H1037 0.958 . S
C1023 H1038 0.961 . S
C1023 H1039 0.960 . S
H1024 C1008 0.931 . S
H1025 C1013 0.929 . S
H1026 C1014 0.960 . S
H1027 C1014 0.962 . S
H1028 C1014 0.960 . S
H1029 C1015 0.961 . S
H1030 C1015 0.961 . S
H1031 C1015 0.961 . S
H1032 C1016 0.931 1_556 S
H1033 C1021 0.930 . S
H1034 C1022 0.956 . S
H1035 C1022 0.961 . S
H1036 C1022 0.961 . S
H1037 C1023 0.958 . S
H1038 C1023 0.961 . S
H1039 C1023 0.960 . S
C1040 C1041 1.391 . S
C1040 C1042 1.394 . S
C1040 H1056 0.931 . S
C1041 C1040 1.391 . S
C1041 C1045 1.376 1_556 S
C1042 C1040 1.394 . S
C1042 C1043 1.369 . S
C1042 C1046 1.531 . S
C1043 C1042 1.369 . S
C1043 C1044 1.410 . S
C1043 C1051 1.503 . S
C1044 C1043 1.410 . S
C1044 C1045 1.392 1_556 S
C1044 C1047 1.511 . S
C1045 C1041 1.376 1_554 S
C1045 C1044 1.392 1_554 S
C1045 H1057 0.929 . S
C1046 C1042 1.531 . S
C1046 H1058 0.960 . S
C1046 H1059 0.962 . S
C1046 H1060 0.960 . S
C1047 C1044 1.511 . S
C1047 H1061 0.961 1_556 S
C1047 H1062 0.961 . S
C1047 H1063 0.961 . S
C1048 C1049 1.370 . S
C1048 C1050 1.363 . S
C1048 H1064 0.931 . S
C1049 C1048 1.370 . S
C1049 C1053 1.408 . S
C1050 C1048 1.363 . S
C1050 C1051 1.370 . S
C1050 C1054 1.524 . S
C1051 C1043 1.503 . S
C1051 C1050 1.370 . S
C1051 C1052 1.403 . S
C1052 C1051 1.403 . S
C1052 C1053 1.404 . S
C1052 C1055 1.539 . S
C1053 C1049 1.408 . S
C1053 C1052 1.404 . S
C1053 H1065 0.930 . S
C1054 C1050 1.524 . S
C1054 H1066 0.956 . S
C1054 H1067 0.961 . S
C1054 H1068 0.961 . S
C1055 C1052 1.539 . S
C1055 H1069 0.958 . S
C1055 H1070 0.961 . S
C1055 H1071 0.960 . S
H1056 C1040 0.931 . S
H1057 C1045 0.929 . S
H1058 C1046 0.960 . S
H1059 C1046 0.962 . S
H1060 C1046 0.960 . S
H1061 C1047 0.961 1_554 S
H1062 C1047 0.961 . S
H1063 C1047 0.961 . S
H1064 C1048 0.931 . S
H1065 C1053 0.930 . S
H1066 C1054 0.956 . S
H1067 C1054 0.961 . S
H1068 C1054 0.961 . S
H1069 C1055 0.958 . S
H1070 C1055 0.961 . S
H1071 C1055 0.960 . S
C1072 C1073 1.391 . S
C1072 C1074 1.394 . S
C1072 H1088 0.931 . S
C1073 C1072 1.391 . S
C1073 C1077 1.376 . S
C1074 C1072 1.394 . S
C1074 C1075 1.369 . S
C1074 C1078 1.531 . S
C1075 C1074 1.369 . S
C1075 C1076 1.410 . S
C1075 C1083 1.503 . S
C1076 C1075 1.410 . S
C1076 C1077 1.392 . S
C1076 C1079 1.511 . S
C1077 C1073 1.376 . S
C1077 C1076 1.392 . S
C1077 H1089 0.929 . S
C1078 C1074 1.531 . S
C1078 H1090 0.960 . S
C1078 H1091 0.962 . S
C1078 H1092 0.960 . S
C1079 C1076 1.511 . S
C1079 H1093 0.961 . S
C1079 H1094 0.961 . S
C1079 H1095 0.961 . S
C1080 C1081 1.370 . S
C1080 C1082 1.363 . S
C1080 H1096 0.931 . S
C1081 C1080 1.370 . S
C1081 C1085 1.408 1_554 S
C1082 C1080 1.363 . S
C1082 C1083 1.370 . S
C1082 C1086 1.524 . S
C1083 C1075 1.503 . S
C1083 C1082 1.370 . S
C1083 C1084 1.403 . S
C1084 C1083 1.403 . S
C1084 C1085 1.404 1_554 S
C1084 C1087 1.539 1_554 S
C1085 C1081 1.408 1_556 S
C1085 C1084 1.404 1_556 S
C1085 H1097 0.930 . S
C1086 C1082 1.524 . S
C1086 H1098 0.956 . S
C1086 H1099 0.961 . S
C1086 H1100 0.961 . S
C1087 C1084 1.539 1_556 S
C1087 H1101 0.958 . S
C1087 H1102 0.961 . S
C1087 H1103 0.960 1_556 S
H1088 C1072 0.931 . S
H1089 C1077 0.929 . S
H1090 C1078 0.960 . S
H1091 C1078 0.962 . S
H1092 C1078 0.960 . S
H1093 C1079 0.961 . S
H1094 C1079 0.961 . S
H1095 C1079 0.961 . S
H1096 C1080 0.931 . S
H1097 C1085 0.930 . S
H1098 C1086 0.956 . S
H1099 C1086 0.961 . S
H1100 C1086 0.961 . S
H1101 C1087 0.958 . S
H1102 C1087 0.961 . S
H1103 C1087 0.960 1_554 S
C1104 C1105 1.391 . S
C1104 C1106 1.394 . S
C1104 H1120 0.931 . S
C1105 C1104 1.391 . S
C1105 C1109 1.376 . S
C1106 C1104 1.394 . S
C1106 C1107 1.369 . S
C1106 C1110 1.531 . S
C1107 C1106 1.369 . S
C1107 C1108 1.410 . S
C1107 C1115 1.503 . S
C1108 C1107 1.410 . S
C1108 C1109 1.392 . S
C1108 C1111 1.511 . S
C1109 C1105 1.376 . S
C1109 C1108 1.392 . S
C1109 H1121 0.929 . S
C1110 C1106 1.531 . S
C1110 H1122 0.960 . S
C1110 H1123 0.962 . S
C1110 H1124 0.960 . S
C1111 C1108 1.511 . S
C1111 H1125 0.961 . S
C1111 H1126 0.961 . S
C1111 H1127 0.961 . S
C1112 C1113 1.370 . S
C1112 C1114 1.363 . S
C1112 H1128 0.931 . S
C1113 C1112 1.370 . S
C1113 C1117 1.408 . S
C1114 C1112 1.363 . S
C1114 C1115 1.370 . S
C1114 C1118 1.524 . S
C1115 C1107 1.503 . S
C1115 C1114 1.370 . S
C1115 C1116 1.403 . S
C1116 C1115 1.403 . S
C1116 C1117 1.404 . S
C1116 C1119 1.539 . S
C1117 C1113 1.408 . S
C1117 C1116 1.404 . S
C1117 H1129 0.930 . S
C1118 C1114 1.524 . S
C1118 H1130 0.956 . S
C1118 H1131 0.961 . S
C1118 H1132 0.961 . S
C1119 C1116 1.539 . S
C1119 H1133 0.958 . S
C1119 H1134 0.961 . S
C1119 H1135 0.960 . S
H1120 C1104 0.931 . S
H1121 C1109 0.929 . S
H1122 C1110 0.960 . S
H1123 C1110 0.962 . S
H1124 C1110 0.960 . S
H1125 C1111 0.961 . S
H1126 C1111 0.961 . S
H1127 C1111 0.961 . S
H1128 C1112 0.931 . S
H1129 C1117 0.930 . S
H1130 C1118 0.956 . S
H1131 C1118 0.961 . S
H1132 C1118 0.961 . S
H1133 C1119 0.958 . S
H1134 C1119 0.961 . S
H1135 C1119 0.960 . S
C1136 C1137 1.391 . S
C1136 C1138 1.394 . S
C1136 H1152 0.931 . S
C1137 C1136 1.391 . S
C1137 C1141 1.376 . S
C1138 C1136 1.394 . S
C1138 C1139 1.369 . S
C1138 C1142 1.531 . S
C1139 C1138 1.369 . S
C1139 C1140 1.410 . S
C1139 C1147 1.503 . S
C1140 C1139 1.410 . S
C1140 C1141 1.392 . S
C1140 C1143 1.511 . S
C1141 C1137 1.376 . S
C1141 C1140 1.392 . S
C1141 H1153 0.929 . S
C1142 C1138 1.531 . S
C1142 H1154 0.960 . S
C1142 H1155 0.962 . S
C1142 H1156 0.960 . S
C1143 C1140 1.511 . S
C1143 H1157 0.961 . S
C1143 H1158 0.961 . S
C1143 H1159 0.961 . S
C1144 C1145 1.370 . S
C1144 C1146 1.363 . S
C1144 H1160 0.931 . S
C1145 C1144 1.370 . S
C1145 C1149 1.408 . S
C1146 C1144 1.363 . S
C1146 C1147 1.370 . S
C1146 C1150 1.524 . S
C1147 C1139 1.503 . S
C1147 C1146 1.370 . S
C1147 C1148 1.403 . S
C1148 C1147 1.403 . S
C1148 C1149 1.404 . S
C1148 C1151 1.539 . S
C1149 C1145 1.408 . S
C1149 C1148 1.404 . S
C1149 H1161 0.930 . S
C1150 C1146 1.524 . S
C1150 H1162 0.956 . S
C1150 H1163 0.961 . S
C1150 H1164 0.961 . S
C1151 C1148 1.539 . S
C1151 H1165 0.958 . S
C1151 H1166 0.961 . S
C1151 H1167 0.960 . S
H1152 C1136 0.931 . S
H1153 C1141 0.929 . S
H1154 C1142 0.960 . S
H1155 C1142 0.962 . S
H1156 C1142 0.960 . S
H1157 C1143 0.961 . S
H1158 C1143 0.961 . S
H1159 C1143 0.961 . S
H1160 C1144 0.931 . S
H1161 C1149 0.930 . S
H1162 C1150 0.956 . S
H1163 C1150 0.961 . S
H1164 C1150 0.961 . S
H1165 C1151 0.958 . S
H1166 C1151 0.961 . S
H1167 C1151 0.960 . S
C1168 C1169 1.391 . S
C1168 C1170 1.394 . S
C1168 H1184 0.931 . S
C1169 C1168 1.391 . S
C1169 C1173 1.376 . S
C1170 C1168 1.394 . S
C1170 C1171 1.369 . S
C1170 C1174 1.531 . S
C1171 C1170 1.369 . S
C1171 C1172 1.410 . S
C1171 C1179 1.503 . S
C1172 C1171 1.410 . S
C1172 C1173 1.392 . S
C1172 C1175 1.511 . S
C1173 C1169 1.376 . S
C1173 C1172 1.392 . S
C1173 H1185 0.929 . S
C1174 C1170 1.531 . S
C1174 H1186 0.960 . S
C1174 H1187 0.962 . S
C1174 H1188 0.960 . S
C1175 C1172 1.511 . S
C1175 H1189 0.961 . S
C1175 H1190 0.961 . S
C1175 H1191 0.961 . S
C1176 C1177 1.370 . S
C1176 C1178 1.363 . S
C1176 H1192 0.931 . S
C1177 C1176 1.370 . S
C1177 C1181 1.408 . S
C1178 C1176 1.363 . S
C1178 C1179 1.370 . S
C1178 C1182 1.524 . S
C1179 C1171 1.503 . S
C1179 C1178 1.370 . S
C1179 C1180 1.403 . S
C1180 C1179 1.403 . S
C1180 C1181 1.404 . S
C1180 C1183 1.539 . S
C1181 C1177 1.408 . S
C1181 C1180 1.404 . S
C1181 H1193 0.930 . S
C1182 C1178 1.524 . S
C1182 H1194 0.956 . S
C1182 H1195 0.961 . S
C1182 H1196 0.961 . S
C1183 C1180 1.539 . S
C1183 H1197 0.958 . S
C1183 H1198 0.961 . S
C1183 H1199 0.960 . S
H1184 C1168 0.931 . S
H1185 C1173 0.929 . S
H1186 C1174 0.960 . S
H1187 C1174 0.962 . S
H1188 C1174 0.960 . S
H1189 C1175 0.961 . S
H1190 C1175 0.961 . S
H1191 C1175 0.961 . S
H1192 C1176 0.931 . S
H1193 C1181 0.930 . S
H1194 C1182 0.956 . S
H1195 C1182 0.961 . S
H1196 C1182 0.961 . S
H1197 C1183 0.958 . S
H1198 C1183 0.961 . S
H1199 C1183 0.960 . S
C1200 C1201 1.391 . S
C1200 C1202 1.394 . S
C1200 H1216 0.931 . S
C1201 C1200 1.391 . S
C1201 C1205 1.376 . S
C1202 C1200 1.394 . S
C1202 C1203 1.369 . S
C1202 C1206 1.531 . S
C1203 C1202 1.369 . S
C1203 C1204 1.410 . S
C1203 C1211 1.503 . S
C1204 C1203 1.410 . S
C1204 C1205 1.392 . S
C1204 C1207 1.511 . S
C1205 C1201 1.376 . S
C1205 C1204 1.392 . S
C1205 H1217 0.929 . S
C1206 C1202 1.531 . S
C1206 H1218 0.960 . S
C1206 H1219 0.962 . S
C1206 H1220 0.960 . S
C1207 C1204 1.511 . S
C1207 H1221 0.961 . S
C1207 H1222 0.961 . S
C1207 H1223 0.961 . S
C1208 C1209 1.370 . S
C1208 C1210 1.363 . S
C1208 H1224 0.931 . S
C1209 C1208 1.370 . S
C1209 C1213 1.408 . S
C1210 C1208 1.363 . S
C1210 C1211 1.370 . S
C1210 C1214 1.524 . S
C1211 C1203 1.503 . S
C1211 C1210 1.370 . S
C1211 C1212 1.403 . S
C1212 C1211 1.403 . S
C1212 C1213 1.404 . S
C1212 C1215 1.539 . S
C1213 C1209 1.408 . S
C1213 C1212 1.404 . S
C1213 H1225 0.930 . S
C1214 C1210 1.524 . S
C1214 H1226 0.956 . S
C1214 H1227 0.961 . S
C1214 H1228 0.961 . S
C1215 C1212 1.539 . S
C1215 H1229 0.958 . S
C1215 H1230 0.961 . S
C1215 H1231 0.960 . S
H1216 C1200 0.931 . S
H1217 C1205 0.929 . S
H1218 C1206 0.960 . S
H1219 C1206 0.962 . S
H1220 C1206 0.960 . S
H1221 C1207 0.961 . S
H1222 C1207 0.961 . S
H1223 C1207 0.961 . S
H1224 C1208 0.931 . S
H1225 C1213 0.930 . S
H1226 C1214 0.956 . S
H1227 C1214 0.961 . S
H1228 C1214 0.961 . S
H1229 C1215 0.958 . S
H1230 C1215 0.961 . S
H1231 C1215 0.960 . S
C209 C148 1.371 . S
C217 C5 1.372 . S
C241 C18 1.354 . S
C249 C107 1.400 . S
C273 C29 1.395 . S
C281 C122 1.391 . S
C305 C135 1.400 . S
C313 C42 1.360 . S
C337 C55 1.376 1_556 S
C345 C70 1.398 . S
C369 C68 1.355 1_554 S
C377 C83 1.400 . S
C401 C96 1.379 . S
C409 C81 1.364 . S
C433 C57 1.407 . S
C441 C94 1.368 1_554 S
C465 C44 1.371 . S
C473 C109 1.378 . S
C497 C120 1.385 . S
C505 C3 1.386 . S
C529 C16 1.381 . S
C537 C133 1.363 . S
C561 C146 1.384 . S
C569 C31 1.399 . S
C593 C161 1.387 . S
C601 C172 1.396 . S
C625 C174 1.360 . S
C633 C185 1.400 . S
C657 C200 1.392 . S
C665 C187 1.381 . S
C689 C159 1.407 . S
C697 C198 1.368 . S
C721 C62 1.106 . S
C729 C4 1.152 . S
C753 C17 1.108 . S
C761 C75 1.127 . S
C785 C36 1.101 . S
C793 C88 1.152 . S
C817 C101 1.095 . S
C825 C49 1.149 . S
C849 C108 1.156 . S
C857 C160 1.118 . S
C881 C173 1.102 . S
C889 C127 1.130 . S
C913 C140 1.101 . S
C921 C186 1.152 . S
C945 C205 1.138 . S
C953 C153 1.149 . S
C977 C192 1.559 . S
C985 C10 1.571 1_556 S
C1009 C199 1.560 . S
C1017 C23 1.570 1_554 S
C1041 C30 1.573 1_556 S
C1049 C166 1.566 . S
C1073 C179 1.573 . S
C1081 C43 1.561 1_554 S
C1105 C134 1.561 . S
C1113 C56 1.570 . S
C1137 C147 1.549 . S
C1145 C69 1.572 . S
C1169 C82 1.550 . S
C1177 C114 1.572 . S
C1201 C121 1.559 . S
C1209 C95 1.565 . S
