# Generated by pormake.
# Topology wjs, (5)-cn, num edge types: 1
# Building blocks:
#     Node 0, Type 0, BuildingBlock: BEQFEK_clean_sbu_0, # of connection points: 5
#     Node 1, Type 0, BuildingBlock: BEQFEK_clean_sbu_0, # of connection points: 5
#     Node 2, Type 0, BuildingBlock: BEQFEK_clean_sbu_0, # of connection points: 5
#     Node 3, Type 0, BuildingBlock: BEQFEK_clean_sbu_0, # of connection points: 5
#     Node 4, Type 0, BuildingBlock: BEQFEK_clean_sbu_0, # of connection points: 5
#     Node 5, Type 0, BuildingBlock: BEQFEK_clean_sbu_0, # of connection points: 5
#     Node 6, Type 0, BuildingBlock: BEQFEK_clean_sbu_0, # of connection points: 5
#     Node 7, Type 0, BuildingBlock: BEQFEK_clean_sbu_0, # of connection points: 5
#     Node 8, Type 0, BuildingBlock: BEQFEK_clean_sbu_0, # of connection points: 5
#     Node 9, Type 0, BuildingBlock: BEQFEK_clean_sbu_0, # of connection points: 5
#     Node 10, Type 0, BuildingBlock: BEQFEK_clean_sbu_0, # of connection points: 5
#     Node 11, Type 0, BuildingBlock: BEQFEK_clean_sbu_0, # of connection points: 5
#     Edge 12, Type (0, 0), BuildingBlock: OJICUG_clean_linker_0, # of connection points: 2
#     Edge 13, Type (0, 0), BuildingBlock: OJICUG_clean_linker_0, # of connection points: 2
#     Edge 14, Type (0, 0), BuildingBlock: OJICUG_clean_linker_0, # of connection points: 2
#     Edge 15, Type (0, 0), BuildingBlock: OJICUG_clean_linker_0, # of connection points: 2
#     Edge 16, Type (0, 0), BuildingBlock: OJICUG_clean_linker_0, # of connection points: 2
#     Edge 17, Type (0, 0), BuildingBlock: OJICUG_clean_linker_0, # of connection points: 2
#     Edge 18, Type (0, 0), BuildingBlock: OJICUG_clean_linker_0, # of connection points: 2
#     Edge 19, Type (0, 0), BuildingBlock: OJICUG_clean_linker_0, # of connection points: 2
#     Edge 20, Type (0, 0), BuildingBlock: OJICUG_clean_linker_0, # of connection points: 2
#     Edge 21, Type (0, 0), BuildingBlock: OJICUG_clean_linker_0, # of connection points: 2
#     Edge 22, Type (0, 0), BuildingBlock: OJICUG_clean_linker_0, # of connection points: 2
#     Edge 23, Type (0, 0), BuildingBlock: OJICUG_clean_linker_0, # of connection points: 2
#     Edge 24, Type (0, 0), BuildingBlock: OJICUG_clean_linker_0, # of connection points: 2
#     Edge 25, Type (0, 0), BuildingBlock: OJICUG_clean_linker_0, # of connection points: 2
#     Edge 26, Type (0, 0), BuildingBlock: OJICUG_clean_linker_0, # of connection points: 2
#     Edge 27, Type (0, 0), BuildingBlock: OJICUG_clean_linker_0, # of connection points: 2
#     Edge 28, Type (0, 0), BuildingBlock: OJICUG_clean_linker_0, # of connection points: 2
#     Edge 29, Type (0, 0), BuildingBlock: OJICUG_clean_linker_0, # of connection points: 2
#     Edge 30, Type (0, 0), BuildingBlock: OJICUG_clean_linker_0, # of connection points: 2
#     Edge 31, Type (0, 0), BuildingBlock: OJICUG_clean_linker_0, # of connection points: 2
#     Edge 32, Type (0, 0), BuildingBlock: OJICUG_clean_linker_0, # of connection points: 2
#     Edge 33, Type (0, 0), BuildingBlock: OJICUG_clean_linker_0, # of connection points: 2
#     Edge 34, Type (0, 0), BuildingBlock: OJICUG_clean_linker_0, # of connection points: 2
#     Edge 35, Type (0, 0), BuildingBlock: OJICUG_clean_linker_0, # of connection points: 2
#     Edge 36, Type (0, 0), BuildingBlock: OJICUG_clean_linker_0, # of connection points: 2
#     Edge 37, Type (0, 0), BuildingBlock: OJICUG_clean_linker_0, # of connection points: 2
#     Edge 38, Type (0, 0), BuildingBlock: OJICUG_clean_linker_0, # of connection points: 2
#     Edge 39, Type (0, 0), BuildingBlock: OJICUG_clean_linker_0, # of connection points: 2
#     Edge 40, Type (0, 0), BuildingBlock: OJICUG_clean_linker_0, # of connection points: 2
#     Edge 41, Type (0, 0), BuildingBlock: OJICUG_clean_linker_0, # of connection points: 2
# Relax obj value: 0.280
# Max RMSD: 0.228
# Mean RMSD: 0.228
data_MOF--net-wjs--node1-BEQFEK_clean_sbu_0--edge1-OJICUG_clean_linker_0
_symmetry_space_group_name_H-M    P1
_symmetry_Int_Tables_number       1
_symmetry_cell_setting            triclinic
loop_
_symmetry_equiv_pos_as_xyz
'x, y, z'
_cell_length_a     23.180457
_cell_length_b     23.159718
_cell_length_c     56.218981
_cell_angle_alpha  89.970062
_cell_angle_beta   89.798703
_cell_angle_gamma 120.11238
loop_
_atom_site_label
_atom_site_type_symbol
_atom_site_fract_x
_atom_site_fract_y
_atom_site_fract_z
_atom_type_partial_charge
Co0 Co 0.24823 0.31291 0.02319 0.0
Co1 Co 0.20171 0.40018 -0.00365 0.0
C2 C 0.23053 0.31239 0.96882 0.0
O3 O 0.24678 0.29588 0.98828 0.0
O4 O 0.20616 0.35099 0.96859 0.0
C5 C 0.20495 0.18412 0.04024 0.0
O6 O 0.1543 0.17086 0.02635 0.0
C7 C 0.11319 0.44312 0.97423 0.0
C8 C 0.12557 0.52016 0.00015 0.0
C9 C 0.08664 0.48257 0.98127 0.0
N10 N 0.16406 0.45537 0.98893 0.0
N11 N 0.1722 0.50288 0.00387 0.0
C12 C 0.08494 0.38859 0.95608 0.0
H13 H 0.09549 0.34841 0.96091 0.0
H14 H 0.03034 0.36755 0.95423 0.0
H15 H 0.1088 0.40961 0.93863 0.0
C16 C 0.13197 0.28073 0.05261 0.0
N17 N 0.17237 0.31286 0.03412 0.0
N18 N 0.1458 0.33997 0.02091 0.0
C19 C 0.0842 0.32088 0.02968 0.0
C20 C 0.07345 0.28214 0.04992 0.0
C21 C 0.1536 0.26037 0.07461 0.0
H22 H 0.20848 0.28204 0.07482 0.0
H23 H 0.12868 0.2054 0.0757 0.0
H24 H 0.13829 0.2775 0.09062 0.0
O25 O 0.32604 0.39761 0.0293 0.0
O26 O 0.30107 0.45822 0.0053 0.0
H27 H 0.98363 0.30252 0.02525 0.0
H28 H 0.03415 0.32732 -0.00111 0.0
C29 C 0.03474 0.33542 0.01826 0.0
H30 H 0.04907 0.38803 0.02171 0.0
H31 H 0.20599 0.51947 0.01794 0.0
O32 O 0.2549 0.24287 0.04046 0.0
C33 C 0.34288 0.45168 0.01833 0.0
Co34 Co 0.91883 0.18605 0.17653 0.0
Co35 Co 0.79012 0.18471 0.16046 0.0
C36 C 0.8906 0.17797 0.12657 0.0
O37 O 0.92445 0.17107 0.14289 0.0
O38 O 0.84081 0.18528 0.1313 0.0
C39 C 0.02076 0.1565 0.19235 0.0
O40 O 0.99654 0.10609 0.17746 0.0
C41 C 0.65664 0.09306 0.14331 0.0
C42 C 0.60734 0.15341 0.14369 0.0
C43 C 0.59611 0.08964 0.13917 0.0
N44 N 0.70114 0.15545 0.15028 0.0
N45 N 0.67151 0.19151 0.15031 0.0
C46 C 0.67306 0.03883 0.13975 0.0
H47 H 0.72764 0.06036 0.13751 0.0
H48 H 0.65679 0.00545 0.15549 0.0
H49 H 0.64638 0.0083 0.124 0.0
C50 C 0.82412 0.07483 0.20702 0.0
N51 N 0.83833 0.12077 0.18989 0.0
N52 N 0.78464 0.12395 0.18496 0.0
C53 C 0.73503 0.08181 0.19972 0.0
C54 C 0.75799 0.0478 0.21356 0.0
C55 C 0.87482 0.06336 0.21923 0.0
H56 H 0.91491 0.11116 0.22654 0.0
H57 H 0.89688 0.04417 0.20615 0.0
H58 H 0.85269 0.02667 0.23396 0.0
O59 O 0.93007 0.27562 0.18013 0.0
O60 O 0.83929 0.2803 0.17142 0.0
H61 H 0.65451 0.0726 0.22174 0.0
H62 H 0.6306 0.0371 0.19273 0.0
C63 C 0.66989 0.07992 0.20276 0.0
H64 H 0.67356 0.12678 0.19618 0.0
H65 H 0.69465 0.24159 0.15526 0.0
O66 O 0.99483 0.19317 0.19385 0.0
C67 C 0.89992 0.30856 0.17829 0.0
Co68 Co 0.69066 0.926 0.35464 0.0
Co69 Co 0.59299 0.78614 0.3333 0.0
C70 C 0.6809 0.9065 0.30257 0.0
O71 O 0.70488 0.94359 0.32077 0.0
O72 O 0.64021 0.84363 0.30445 0.0
C73 C 0.76295 0.06198 0.37224 0.0
O74 O 0.7417 0.08108 0.35389 0.0
C75 C 0.5673 0.65573 0.31538 0.0
C76 C 0.4654 0.58884 0.32888 0.0
C77 C 0.51919 0.58896 0.31802 0.0
N78 N 0.5434 0.69336 0.32464 0.0
N79 N 0.48191 0.65291 0.33223 0.0
C80 C 0.63742 0.6828 0.3069 0.0
H81 H 0.66841 0.73655 0.31133 0.0
H82 H 0.65912 0.6542 0.31496 0.0
H83 H 0.63724 0.67659 0.28733 0.0
C84 C 0.7411 0.8522 0.38013 0.0
N85 N 0.70024 0.85455 0.36381 0.0
N86 N 0.65475 0.79389 0.35772 0.0
C87 C 0.66368 0.75035 0.37114 0.0
C88 C 0.71906 0.78619 0.38567 0.0
C89 C 0.7985 0.9125 0.39111 0.0
H90 H 0.82537 0.95123 0.3773 0.0
H91 H 0.83384 0.89977 0.39962 0.0
H92 H 0.77942 0.93326 0.40481 0.0
O93 O 0.60296 0.91256 0.36192 0.0
O94 O 0.5304 0.81906 0.34381 0.0
H95 H 0.56381 0.66686 0.36952 0.0
H96 H 0.61706 0.65692 0.39045 0.0
C97 C 0.61517 0.67701 0.37272 0.0
H98 H 0.62814 0.65064 0.35916 0.0
H99 H 0.45281 0.66886 0.34113 0.0
O100 O 0.74944 1.00201 0.37412 0.0
C101 C 0.54381 0.87155 0.3556 0.0
Co102 Co 0.74591 0.67627 0.52356 0.0
Co103 Co 0.80726 0.59844 0.49905 0.0
C104 C 0.78041 0.69295 0.47172 0.0
O105 O 0.75643 0.70427 0.49035 0.0
O106 O 0.80539 0.65478 0.47219 0.0
C107 C 0.72202 0.78139 0.53614 0.0
O108 O 0.74755 0.80537 0.51509 0.0
C109 C 0.92034 0.58792 0.48028 0.0
C110 C 0.88797 0.48223 0.48744 0.0
C111 C 0.94123 0.54149 0.4792 0.0
N112 N 0.8576 0.55763 0.48901 0.0
N113 N 0.83833 0.49421 0.49295 0.0
C114 C 0.96067 0.66063 0.47449 0.0
H115 H 0.93927 0.6886 0.48331 0.0
H116 H 0.01331 0.68085 0.47997 0.0
H117 H 0.96009 0.66719 0.45496 0.0
C118 C 0.86367 0.72644 0.55334 0.0
N119 N 0.82525 0.68752 0.53559 0.0
N120 N 0.84985 0.6515 0.52708 0.0
C121 C 0.90429 0.66494 0.54013 0.0
C122 C 0.91492 0.7133 0.55703 0.0
C123 C 0.85336 0.77813 0.5655 0.0
H124 H 0.84558 0.80824 0.55194 0.0
H125 H 0.89683 0.81245 0.57648 0.0
H126 H 0.8082 0.75311 0.57694 0.0
O127 O 0.67419 0.58472 0.52556 0.0
O128 O 0.70928 0.52844 0.50376 0.0
H129 H 0.90871 0.57636 0.53236 0.0
H130 H 0.96507 0.62817 0.55535 0.0
C131 C 0.94217 0.62851 0.53808 0.0
H132 H 0.98286 0.65416 0.52485 0.0
H133 H 0.79233 0.45977 0.50035 0.0
O134 O 0.71607 0.72647 0.54286 0.0
C135 C 0.66327 0.53139 0.51538 0.0
Co136 Co 0.10104 0.78222 0.68815 0.0
Co137 Co 0.22534 0.82808 0.65512 0.0
C138 C 0.10262 0.80874 0.63457 0.0
O139 O 0.07641 0.78944 0.65509 0.0
O140 O 0.16491 0.83239 0.63129 0.0
C141 C 0.02166 0.82699 0.70898 0.0
O142 O 0.05834 0.87765 0.69481 0.0
C143 C 0.35051 0.91999 0.62939 0.0
C144 C 0.41234 0.87467 0.63716 0.0
C145 C 0.41445 0.92993 0.62673 0.0
N146 N 0.31275 0.86211 0.64124 0.0
N147 N 0.34996 0.83484 0.64542 0.0
C148 C 0.32565 0.96446 0.62056 0.0
H149 H 0.2791 0.95362 0.62997 0.0
H150 H 0.36429 0.01774 0.62268 0.0
H151 H 0.31473 0.95517 0.60129 0.0
C152 C 0.19571 0.89345 0.71707 0.0
N153 N 0.18185 0.8549 0.69769 0.0
N154 N 0.23375 0.8801 0.68335 0.0
C155 C 0.2817 0.93835 0.693 0.0
C156 C 0.25793 0.94911 0.71434 0.0
C157 C 0.15431 0.87374 0.73933 0.0
H158 H 0.11988 0.81904 0.73999 0.0
H159 H 0.12563 0.9001 0.74023 0.0
H160 H 0.18709 0.889 0.75519 0.0
O161 O 0.10447 0.70093 0.68986 0.0
O162 O 0.18011 0.72625 0.6612 0.0
H163 H 0.37213 0.95532 0.67642 0.0
H164 H 0.38158 0.02408 0.69428 0.0
C165 C 0.34802 0.98411 0.68193 0.0
H166 H 0.34076 0.00834 0.66618 0.0
H167 H 0.33365 0.79057 0.65493 0.0
O168 O 0.02944 0.77647 0.70868 0.0
C169 C 0.13504 0.68365 0.67531 0.0
Co170 Co 0.29833 0.08848 0.84218 0.0
Co171 Co 0.42531 0.22427 0.82911 0.0
C172 C 0.32838 0.12351 0.79263 0.0
O173 O 0.28561 0.08563 0.80797 0.0
O174 O 0.38265 0.17548 0.79864 0.0
C175 C 0.16679 0.97802 0.85644 0.0
O176 O 0.13879 0.99804 0.84069 0.0
C177 C 0.46706 0.36119 0.81413 0.0
C178 C 0.57677 0.41132 0.81558 0.0
C179 C 0.52449 0.4226 0.81083 0.0
N180 N 0.4846 0.31614 0.8208 0.0
N181 N 0.55035 0.34649 0.82153 0.0
C182 C 0.39671 0.34443 0.80973 0.0
H183 H 0.36382 0.28974 0.80755 0.0
H184 H 0.37829 0.36088 0.82502 0.0
H185 H 0.39438 0.37103 0.79365 0.0
C186 C 0.27144 0.17407 0.87314 0.0
N187 N 0.30698 0.16582 0.85589 0.0
N188 N 0.36314 0.22217 0.85245 0.0
C189 C 0.36596 0.26753 0.86828 0.0
C190 C 0.30731 0.23855 0.88154 0.0
C191 C 0.20692 0.11974 0.88307 0.0
H192 H 0.21528 0.08164 0.89181 0.0
H193 H 0.17091 0.09631 0.86839 0.0
H194 H 0.18503 0.13901 0.89625 0.0
O195 O 0.37864 0.08321 0.84806 0.0
O196 O 0.47325 0.17771 0.8413 0.0
H197 H 0.43137 0.34388 0.89269 0.0
H198 H 0.4233 0.37358 0.86422 0.0
C199 C 0.42708 0.33316 0.87333 0.0
H200 H 0.47246 0.33322 0.86701 0.0
H201 H 0.57716 0.32313 0.82631 0.0
O202 O 0.22958 0.00878 0.85861 0.0
C203 C 0.44195 0.11653 0.84783 0.0
Co204 Co 0.73915 0.82143 0.80212 0.0
Co205 Co 0.61201 0.82147 0.82024 0.0
C206 C 0.72224 0.82959 0.85244 0.0
O207 O 0.76206 0.83662 0.83563 0.0
O208 O 0.66473 0.82189 0.84843 0.0
C209 C 0.87065 0.85348 0.78504 0.0
O210 O 0.89615 0.90306 0.80028 0.0
C211 C 0.57216 0.91297 0.83916 0.0
C212 C 0.46231 0.85402 0.83905 0.0
C213 C 0.51565 0.91728 0.84372 0.0
N214 N 0.55317 0.85064 0.83176 0.0
N215 N 0.48735 0.81536 0.83196 0.0
C216 C 0.64328 0.96651 0.84251 0.0
H217 H 0.6758 0.94437 0.84435 0.0
H218 H 0.66063 1.00029 0.82688 0.0
H219 H 0.64787 0.99684 0.85844 0.0
C220 C 0.75339 0.93396 0.77297 0.0
N221 N 0.72212 0.88633 0.78965 0.0
N222 N 0.66542 0.88265 0.79548 0.0
C223 C 0.65756 0.92622 0.78176 0.0
C224 C 0.71424 0.96177 0.76773 0.0
C225 C 0.81524 0.94662 0.76001 0.0
H226 H 0.80798 0.89913 0.75257 0.0
H227 H 0.85741 0.96666 0.77265 0.0
H228 H 0.82826 0.98292 0.74526 0.0
O229 O 0.66084 0.73115 0.79933 0.0
O230 O 0.56556 0.72542 0.80949 0.0
H231 H 0.55139 0.88201 0.7867 0.0
H232 H 0.58507 0.9377 0.7615 0.0
C233 C 0.59453 0.92905 0.78012 0.0
H234 H 0.59947 0.97149 0.7908 0.0
H235 H 0.45963 0.76562 0.82668 0.0
O236 O 0.80802 0.81582 0.78371 0.0
C237 C 0.59787 0.69752 0.80208 0.0
Co238 Co 0.93885 0.68477 0.95409 0.0
Co239 Co 0.80409 0.60173 0.98123 0.0
C240 C 0.92102 0.68369 0.00879 0.0
O241 O 0.95412 0.69823 0.98932 0.0
O242 O 0.85747 0.64951 0.00903 0.0
C243 C 0.02777 0.8131 0.93681 0.0
O244 O 0.99142 0.82798 0.95072 0.0
C245 C 0.67082 0.55832 0.00288 0.0
C246 C 0.60751 0.48531 0.97568 0.0
C247 C 0.60518 0.52037 -0.00476 0.0
N248 N 0.71024 0.5476 0.98792 0.0
N249 N 0.67157 0.5025 0.97216 0.0
C250 C 0.6961 0.61002 0.02204 0.0
H251 H 0.74836 0.64923 0.01843 0.0
H252 H 0.66414 0.63292 0.02371 0.0
H253 H 0.69455 0.58572 0.03924 0.0
C254 C 0.85805 0.72196 0.92532 0.0
N255 N 0.86501 0.68892 0.94369 0.0
N256 N 0.81158 0.66375 0.95715 0.0
C257 C 0.77097 0.68537 0.94879 0.0
C258 C 0.79966 0.72351 0.92845 0.0
C259 C 0.89868 0.73932 0.90292 0.0
H260 H 0.93058 0.71622 0.90271 0.0
H261 H 0.93004 0.79401 0.90116 0.0
H262 H 0.86513 0.72151 0.88726 0.0
O263 O 0.92734 0.59899 0.94675 0.0
O264 O 0.84401 0.54238 0.97221 0.0
H265 H 0.66751 0.6225 0.95668 0.0
H266 H 0.69341 0.70985 0.95459 0.0
C267 C 0.70829 0.67368 0.96072 0.0
H268 H 0.71595 0.67915 0.98016 0.0
H269 H 0.68952 0.48749 0.95779 0.0
O270 O 0.01731 0.75377 0.9368 0.0
C271 C 0.89039 0.54635 0.95854 0.0
Co272 Co 0.20194 0.91159 0.13564 0.0
Co273 Co 0.19744 0.77998 0.15079 0.0
C274 C 0.19244 0.87991 0.18552 0.0
O275 O 0.18677 0.91531 0.16944 0.0
O276 O 0.19838 0.82946 0.18043 0.0
C277 C 0.1747 0.01556 0.11968 0.0
O278 O 0.12362 0.99153 0.13438 0.0
C279 C 0.10399 0.64438 0.16684 0.0
C280 C 0.16481 0.5956 0.16661 0.0
C281 C 0.10068 0.58367 0.17087 0.0
N282 N 0.16671 0.68959 0.16022 0.0
N283 N 0.20293 0.66016 0.16025 0.0
C284 C 0.04952 0.66042 0.17034 0.0
H285 H 0.07081 0.71494 0.17276 0.0
H286 H 0.01689 0.64477 0.15449 0.0
H287 H 0.01837 0.63292 0.18597 0.0
C288 C 0.09345 0.82095 0.10395 0.0
N289 N 0.1368 0.8325 0.12168 0.0
N290 N 0.1387 0.77778 0.12619 0.0
C291 C 0.09825 0.73022 0.11059 0.0
C292 C 0.06708 0.75578 0.09655 0.0
C293 C 0.08357 0.87325 0.09213 0.0
H294 H 0.06393 0.89452 0.10534 0.0
H295 H 0.04778 0.85279 0.07718 0.0
H296 H 0.13196 0.91343 0.08514 0.0
O297 O 0.29023 0.92086 0.13161 0.0
O298 O 0.2931 0.82861 0.13978 0.0
H299 H 0.08949 0.65125 0.08795 0.0
H300 H 0.05181 0.62506 0.11669 0.0
C301 C 0.09557 0.66486 0.10707 0.0
H302 H 0.14155 0.66722 0.11385 0.0
H303 H 0.25337 0.68388 0.15562 0.0
O304 O 0.21108 0.98924 0.11859 0.0
C305 C 0.32209 0.88956 0.13302 0.0
Co306 Co 0.31973 0.23127 0.28894 0.0
Co307 Co 0.39588 0.1806 0.32034 0.0
C308 C 0.29774 0.20419 0.34288 0.0
O309 O 0.28998 0.22389 0.32257 0.0
O310 O 0.33592 0.17985 0.34553 0.0
C311 C 0.19565 0.18849 0.26938 0.0
O312 O 0.1817 0.13854 0.28386 0.0
C313 C 0.43043 0.08852 0.34504 0.0
C314 C 0.5203 0.10916 0.3246 0.0
C315 C 0.47492 0.06587 0.34119 0.0
N316 N 0.44811 0.14214 0.33093 0.0
N317 N 0.50291 0.15501 0.31927 0.0
C318 C 0.36853 0.05547 0.35997 0.0
H319 H 0.33021 0.06604 0.35286 0.0
H320 H 0.3484 1.00076 0.3609 0.0
H321 H 0.38106 0.07569 0.37829 0.0
C322 C 0.29592 0.11821 0.25955 0.0
N323 N 0.32352 0.15701 0.27868 0.0
N324 N 0.34603 0.12857 0.29319 0.0
C325 C 0.32898 0.06764 0.28424 0.0
C326 C 0.2957 0.05901 0.26281 0.0
C327 C 0.27894 0.14096 0.23703 0.0
H328 H 0.30192 0.19604 0.2367 0.0
H329 H 0.22423 0.11735 0.23529 0.0
H330 H 0.29704 0.12501 0.22144 0.0
O331 O 0.40581 0.31041 0.28638 0.0
O332 O 0.45642 0.2818 0.31364 0.0
H333 H 0.39437 0.03448 0.29662 0.0
H334 H 0.31369 0.96767 0.28762 0.0
C335 C 0.34026 0.01694 0.2965 0.0
H336 H 0.32203 0.01069 0.31504 0.0
H337 H 0.52541 0.19193 0.30623 0.0
O338 O 0.25419 0.23881 0.26925 0.0
C339 C 0.45505 0.32552 0.29992 0.0
Co340 Co 0.07148 0.32543 0.45756 0.0
Co341 Co 0.21359 0.41243 0.47921 0.0
C342 C 0.09478 0.31496 0.50874 0.0
O343 O 0.05668 0.29687 0.4907 0.0
O344 O 0.1568 0.35838 0.50707 0.0
C345 C 0.93593 0.22939 0.44542 0.0
O346 O 0.92771 0.21179 0.46795 0.0
C347 C 0.3387 0.42537 0.49702 0.0
C348 C 0.41238 0.52757 0.4855 0.0
C349 C 0.40656 0.4702 0.4955 0.0
N350 N 0.30582 0.45459 0.48795 0.0
N351 N 0.35024 0.5161 0.48149 0.0
C352 C 0.30608 0.35388 0.50456 0.0
H353 H 0.25536 0.32498 0.49686 0.0
H354 H 0.33685 0.33172 0.4991 0.0
H355 H 0.3018 0.35124 0.52425 0.0
C356 C 0.13969 0.27775 0.42701 0.0
N357 N 0.14044 0.31724 0.44461 0.0
N358 N 0.20176 0.35644 0.45193 0.0
C359 C 0.24284 0.34427 0.43828 0.0
C360 C 0.20455 0.29367 0.42219 0.0
C361 C 0.07732 0.22382 0.41578 0.0
H362 H 0.03911 0.19659 0.42971 0.0
H363 H 0.08658 0.18765 0.40598 0.0
H364 H 0.0575 0.24665 0.40326 0.0
O365 O 0.08845 0.41591 0.45612 0.0
O366 O 0.18605 0.48198 0.47311 0.0
H367 H 0.33441 0.4366 0.44332 0.0
H368 H 0.33936 0.38177 0.42169 0.0
C369 C 0.31738 0.38382 0.43901 0.0
H370 H 0.33556 0.36268 0.45282 0.0
H371 H 0.33831 0.54895 0.47312 0.0
O372 O 0.99211 0.27533 0.43814 0.0
C373 C 0.13271 0.47312 0.46314 0.0
Co374 Co 0.78895 0.08102 0.62992 0.0
Co375 Co 0.81209 0.22009 0.64577 0.0
C376 C 0.78502 0.10752 0.68048 0.0
O377 O 0.78163 0.06891 0.66381 0.0
O378 O 0.79925 0.16775 0.67651 0.0
C379 C 0.72547 0.95056 0.61067 0.0
O380 O 0.67322 0.9407 0.6231 0.0
C381 C 0.91122 0.35385 0.66203 0.0
C382 C 0.87448 0.41647 0.64619 0.0
C383 C 0.92854 0.4197 0.6579 0.0
N384 N 0.85023 0.31355 0.65281 0.0
N385 N 0.82804 0.35148 0.64381 0.0
C386 C 0.95579 0.32986 0.67142 0.0
H387 H 0.93193 0.27484 0.66975 0.0
H388 H 0.00398 0.35447 0.66162 0.0
H389 H 0.96666 0.34401 0.69042 0.0
C390 C 0.91437 0.1607 0.60535 0.0
N391 N 0.86752 0.15586 0.62063 0.0
N392 N 0.87368 0.21472 0.62392 0.0
C393 C 0.92348 0.25894 0.60958 0.0
C394 C 0.951 0.22595 0.59742 0.0
C395 C 0.92081 0.1027 0.59715 0.0
H396 H 0.91056 0.06765 0.61215 0.0
H397 H 0.97152 0.11973 0.58995 0.0
H398 H 0.88396 0.07584 0.58293 0.0
O399 O 0.71088 0.08518 0.61996 0.0
O400 O 0.71846 0.17991 0.63191 0.0
H401 H 0.95691 0.3442 0.58626 0.0
H402 H 0.97555 0.36335 0.61716 0.0
C403 C 0.93732 0.32825 0.60458 0.0
H404 H 0.89124 0.33098 0.60676 0.0
H405 H 0.78332 0.33308 0.63453 0.0
O406 O 0.78061 0.00435 0.61293 0.0
C407 C 0.68592 0.12274 0.62192 0.0
C408 C 0.25335 0.14683 0.07213 0.0
C409 C 0.19717 0.13805 0.05966 0.0
H410 H 0.2898 0.11466 0.10122 0.0
C411 C 0.13319 0.09007 0.06767 0.0
H412 H 0.30318 0.18366 0.0664 0.0
C413 C 0.12556 0.05282 0.08817 0.0
C414 C 0.18183 0.06149 0.10048 0.0
H415 H 0.08894 0.08285 0.05856 0.0
H416 H 0.07585 0.01584 0.09396 0.0
C417 C 0.24573 0.10817 0.09218 0.0
C418 C 0.10227 0.11596 0.24221 0.0
C419 C 0.14959 0.18021 0.25006 0.0
H420 H 0.026 0.05808 0.21684 0.0
C421 C 0.15627 0.23626 0.23798 0.0
H422 H 0.09681 0.07186 0.25102 0.0
C423 C 0.11546 0.22825 0.21865 0.0
C424 C 0.06874 0.16411 0.21069 0.0
H425 H 0.19264 0.28625 0.2436 0.0
H426 H 0.12016 0.2722 0.20996 0.0
C427 C 0.06275 0.10797 0.22243 0.0
C428 C 0.83573 0.12409 0.43277 0.0
C429 C 0.88455 0.19012 0.42773 0.0
H430 H 0.75898 0.03158 0.41881 0.0
C431 C 0.88835 0.21608 0.40474 0.0
H432 H 0.83167 0.10287 0.45029 0.0
C433 C 0.84617 0.17546 0.38675 0.0
C434 C 0.80072 0.10819 0.39147 0.0
H435 H 0.92546 0.26714 0.40047 0.0
H436 H 0.85152 0.19562 0.36897 0.0
C437 C 0.79455 0.08328 0.41471 0.0
C438 C 0.6785 0.79555 0.57506 0.0
C439 C 0.71435 0.82359 0.55387 0.0
H440 H 0.65331 0.81445 0.60989 0.0
C441 C 0.74926 0.89305 0.55098 0.0
H442 H 0.65098 0.74195 0.57764 0.0
C443 C 0.75169 0.93394 0.56949 0.0
C444 C 0.71838 0.9061 0.59103 0.0
H445 H 0.77731 0.91601 0.53488 0.0
H446 H 0.78018 0.98754 0.56703 0.0
C447 C 0.67988 0.8367 0.59347 0.0
C448 C 0.9994 0.89745 0.73684 0.0
C449 C 0.98223 0.8339 0.72815 0.0
H450 H 0.97879 0.95334 0.76248 0.0
C451 C 0.93003 0.77699 0.739 0.0
H452 H 0.04009 0.94213 0.72897 0.0
C453 C 0.89465 0.78354 0.75791 0.0
C454 C 0.9122 0.84698 0.76671 0.0
H455 H 0.91611 0.72749 0.7327 0.0
H456 H 0.85348 0.73899 0.76567 0.0
C457 C 0.9652 0.9039 0.75621 0.0
C458 C 0.14473 0.8862 0.88438 0.0
C459 C 0.12762 0.93246 0.87574 0.0
H460 H 0.1262 0.81172 0.91063 0.0
C461 C 0.08019 0.94185 0.88798 0.0
H462 H 0.18236 0.87938 0.87542 0.0
C463 C 0.05072 0.90585 0.90876 0.0
C464 C 0.06633 0.85804 0.91708 0.0
H465 H 0.06762 0.9786 0.88195 0.0
H466 H 0.01397 0.91381 0.91781 0.0
C467 C 0.11347 0.84841 0.90465 0.0
C468 C 0.50411 0.52784 0.98564 0.0
C469 C 0.54529 0.52298 0.00288 0.0
H470 H 0.40754 0.51314 0.9775 0.0
C471 C 0.52423 0.51215 0.02669 0.0
H472 H 0.51973 0.53712 0.96717 0.0
C473 C 0.45969 0.49826 0.03263 0.0
C474 C 0.41563 0.4958 0.01489 0.0
H475 H 0.55513 0.50838 0.0403 0.0
H476 H 0.44198 0.4829 0.05067 0.0
C477 C 0.4402 0.51532 0.99164 0.0
C478 C 1.00077 0.40786 0.19432 0.0
C479 C 0.94135 0.38204 0.18117 0.0
H480 H 0.09731 0.4917 0.20129 0.0
C481 C 0.93047 0.4262 0.1673 0.0
H482 H 0.01068 0.37535 0.20529 0.0
C483 C 0.98061 0.49355 0.16508 0.0
C484 C 0.0422 0.51756 0.17672 0.0
H485 H 0.88571 0.40773 0.15671 0.0
H486 H 0.97297 0.52519 0.15287 0.0
C487 C 0.05067 0.47453 0.19197 0.0
C488 C 0.48923 0.99321 0.37057 0.0
C489 C 0.46887 1.00142 0.34802 0.0
H490 H 0.52672 0.94142 0.39121 0.0
C491 C 0.45512 0.95305 0.33046 0.0
H492 H 0.50028 0.03004 0.38432 0.0
C493 C 0.46858 0.90129 0.33454 0.0
C494 C 0.49777 0.89836 0.35603 0.0
H495 H 0.43933 0.95854 0.31291 0.0
H496 H 0.4644 0.86928 0.31981 0.0
C497 C 0.50367 0.94204 0.37455 0.0
C498 C 0.48165 0.45869 0.52438 0.0
C499 C 0.46312 0.45987 0.50077 0.0
H500 H 0.56207 0.47821 0.54786 0.0
C501 C 0.50609 0.46425 0.4823 0.0
H502 H 0.44926 0.45555 0.53887 0.0
C503 C 0.56975 0.47475 0.4874 0.0
C504 C 0.59208 0.48346 0.51104 0.0
H505 H 0.49255 0.46515 0.46393 0.0
H506 H 0.60435 0.48546 0.4728 0.0
C507 C 0.54591 0.47076 0.5295 0.0
C508 C 0.02601 0.52537 0.64282 0.0
C509 C 0.99346 0.48131 0.66183 0.0
H510 H 0.10059 0.62397 0.63216 0.0
C511 C 0.01927 0.50033 0.68485 0.0
H512 H 0.00716 0.51158 0.62487 0.0
C513 C 0.07239 0.56504 0.68909 0.0
C514 C 0.10164 0.61117 0.67029 0.0
H515 H 0.99491 0.46729 0.6998 0.0
H516 H 0.08693 0.58082 0.70729 0.0
C517 C 0.08029 0.58935 0.64695 0.0
C518 C 0.45982 0.97013 0.86494 0.0
C519 C 0.50998 0.97679 0.84931 0.0
H520 H 0.40147 0.01154 0.87766 0.0
C521 C 0.54722 0.03718 0.83671 0.0
H522 H 0.43062 0.92438 0.87495 0.0
C523 C 0.53036 0.08752 0.83817 0.0
C524 C 0.47604 0.07794 0.85225 0.0
H525 H 0.58549 0.04336 0.8242 0.0
H526 H 0.55567 0.1308 0.82668 0.0
C527 C 0.44346 0.02032 0.86657 0.0
C528 C 0.58382 0.53136 0.78944 0.0
C529 C 0.53203 0.48849 0.80475 0.0
H530 H 0.64285 0.63011 0.7757 0.0
C531 C 0.49402 0.5125 0.81617 0.0
H532 H 0.61364 0.5142 0.78028 0.0
C533 C 0.51107 0.57974 0.81368 0.0
C534 C 0.5663 0.62381 0.7997 0.0
H535 H 0.45441 0.4809 0.82839 0.0
H536 H 0.48434 0.59821 0.82409 0.0
C537 C 0.60032 0.59784 0.78678 0.0
C538 C 0.9262 0.4864 0.98582 0.0
C539 C 0.91881 0.50237 0.96234 0.0
H540 H 0.98676 0.46907 0.01022 0.0
C541 C 0.95886 0.49759 0.94439 0.0
H542 H 0.89692 0.49038 0.00011 0.0
C543 C 0.01056 0.48539 0.95022 0.0
C544 C 0.02327 0.47844 0.97409 0.0
H545 H 0.95469 0.51019 0.92615 0.0
H546 H 0.0441 0.48747 0.93634 0.0
C547 C 0.97858 0.4755 0.99168 0.0
C548 C 0.42117 0.98873 0.1159 0.0
C549 C 0.39531 0.92998 0.12962 0.0
H550 H 0.50496 0.08508 0.1083 0.0
C551 C 0.43927 0.91953 0.14367 0.0
H552 H 0.38868 0.99818 0.10479 0.0
C553 C 0.5065 0.96975 0.14559 0.0
C554 C 0.53048 0.03089 0.13346 0.0
H555 H 0.42068 0.8753 0.15469 0.0
H556 H 0.53801 0.96267 0.158 0.0
C557 C 0.48773 0.03874 0.11797 0.0
C558 C 0.51584 0.48542 0.33244 0.0
C559 C 0.52439 0.52877 0.31354 0.0
H560 H 0.49132 0.38664 0.34283 0.0
C561 C 0.52699 0.50883 0.29021 0.0
H562 H 0.51382 0.49996 0.35061 0.0
C563 C 0.51339 0.44361 0.2857 0.0
C564 C 0.49828 0.39785 0.3045 0.0
H565 H 0.53332 0.5414 0.27538 0.0
H566 H 0.50841 0.42704 0.26742 0.0
C567 C 0.50396 0.42084 0.32798 0.0
C568 C 0.05082 0.55656 0.4918 0.0
C569 C 0.00767 0.55129 0.47338 0.0
H570 H 0.12977 0.5395 0.50249 0.0
C571 C 0.02145 0.54004 0.45012 0.0
H572 H 0.04059 0.56476 0.50993 0.0
C573 C 0.0727 0.52605 0.44582 0.0
C574 C 0.11047 0.52259 0.46476 0.0
H575 H 0.98846 0.53531 0.43571 0.0
H576 H 0.07711 0.50958 0.42821 0.0
C577 C 0.10251 0.54303 0.48747 0.0
C578 C 0.50246 0.04907 0.63384 0.0
C579 C 0.47705 0.99105 0.61982 0.0
H580 H 0.59009 0.13886 0.64514 0.0
C581 C 0.51843 0.98662 0.60261 0.0
H582 H 0.4717 0.05313 0.64752 0.0
C583 C 0.58552 0.03615 0.60088 0.0
C584 C 0.61335 0.09031 0.61685 0.0
H585 H 0.50017 0.94231 0.59171 0.0
H586 H 0.61726 0.0283 0.58869 0.0
C587 C 0.57026 0.09846 0.63237 0.0
C588 C 0.26955 0.30756 0.90342 0.0
C589 C 0.29285 0.26226 0.90381 0.0
H590 H 0.22986 0.3581 0.92374 0.0
C591 C 0.29407 0.23243 0.92534 0.0
H592 H 0.26726 0.33008 0.88682 0.0
C593 C 0.27209 0.24744 0.9463 0.0
C594 C 0.24817 0.29251 0.94613 0.0
H595 H 0.31095 0.19647 0.92584 0.0
H596 H 0.27396 0.22365 0.96264 0.0
C597 C 0.24722 0.32256 0.92445 0.0
C598 C 0.98309 0.28337 0.07418 0.0
C599 C 0.01418 0.24885 0.0656 0.0
H600 H 0.91613 0.28551 0.10005 0.0
C601 C 0.99322 0.18423 0.07419 0.0
H602 H 0.9987 0.33343 0.06804 0.0
C603 C 0.94768 0.15773 0.09294 0.0
C604 C 0.92035 0.19436 0.10271 0.0
H605 H 0.0148 0.1556 0.06728 0.0
H606 H 0.93669 0.11041 0.10069 0.0
C607 C 0.93572 0.25582 0.09244 0.0
C608 C 0.69073 0.90574 0.25785 0.0
C609 C 0.69588 0.93993 0.27909 0.0
H610 H 0.70678 0.91405 0.21996 0.0
C611 C 0.71499 0.00801 0.27798 0.0
H612 H 0.67585 0.85331 0.25817 0.0
C613 C 0.73069 0.04174 0.25631 0.0
C614 C 0.72804 0.00837 0.23529 0.0
H615 H 0.71843 0.0357 0.29395 0.0
H616 H 0.74761 0.09468 0.25607 0.0
C617 C 0.70764 0.94011 0.23607 0.0
C618 C 0.75524 0.71282 0.4061 0.0
C619 C 0.73778 0.76271 0.40714 0.0
H620 H 0.78432 0.6521 0.4259 0.0
C621 C 0.73846 0.79158 0.4291 0.0
H622 H 0.755 0.68998 0.38926 0.0
C623 C 0.75589 0.77107 0.44972 0.0
C624 C 0.7723 0.72036 0.44902 0.0
H625 H 0.72416 0.82939 0.43046 0.0
H626 H 0.75479 0.79403 0.46635 0.0
C627 C 0.77273 0.69188 0.42694 0.0
C628 C 0.94309 0.74076 0.59969 0.0
C629 C 0.96458 0.74026 0.5764 0.0
H630 H 0.96983 0.76525 0.63602 0.0
C631 C 0.03295 0.7669 0.5719 0.0
H632 H 0.89056 0.71986 0.60367 0.0
C633 C 0.079 0.793 0.59058 0.0
C634 C 0.05716 0.79253 0.61403 0.0
H635 H 0.05064 0.76742 0.554 0.0
H636 H 0.13124 0.81148 0.58678 0.0
C637 C 0.98872 0.76701 0.61822 0.0
C638 C 0.34757 0.03241 0.74115 0.0
C639 C 0.28575 0.00844 0.72996 0.0
H640 H 0.41087 0.09128 0.76972 0.0
C641 C 0.24449 0.03406 0.73675 0.0
H642 H 0.37962 0.0125 0.7366 0.0
C643 C 0.26118 0.07714 0.75611 0.0
C644 C 0.32069 0.09737 0.76837 0.0
H645 H 0.19686 0.0169 0.72816 0.0
H646 H 0.22577 0.09128 0.7624 0.0
C647 C 0.36533 0.07739 0.76009 0.0
C648 C 0.80177 0.84814 0.88497 0.0
C649 C 0.73678 0.81327 0.87604 0.0
H650 H 0.87126 0.84854 0.90993 0.0
C651 C 0.68945 0.7534 0.88703 0.0
H652 H 0.83899 0.89431 0.87671 0.0
C653 C 0.70872 0.72538 0.90514 0.0
C654 C 0.77508 0.75791 0.91289 0.0
H655 H 0.63922 0.72508 0.8801 0.0
H656 H 0.67296 0.67629 0.91182 0.0
C657 C 0.82037 0.82128 0.90362 0.0
C658 C 0.92455 0.69231 0.05339 0.0
C659 C 0.95781 0.70074 0.03157 0.0
H660 H 0.93377 0.70252 0.09138 0.0
C661 C 0.02634 0.72184 0.03173 0.0
H662 H 0.87178 0.67578 0.0539 0.0
C663 C 0.06099 0.73531 0.05314 0.0
C664 C 0.0279 0.72811 0.07476 0.0
H665 H 0.05342 0.72809 0.01529 0.0
H666 H 0.11416 0.75366 0.0528 0.0
C667 C 0.95956 0.70652 0.07481 0.0
C668 C 0.17204 0.93579 0.21947 0.0
C669 C 0.2082 0.90806 0.20961 0.0
H670 H 0.17023 1.0026 0.24526 0.0
C671 C 0.26881 0.9218 0.22007 0.0
H672 H 0.12542 0.92614 0.2116 0.0
C673 C 0.2961 0.96809 0.2386 0.0
C674 C 0.26221 0.99981 0.2472 0.0
H675 H 0.29815 0.90184 0.21242 0.0
H676 H 0.3456 0.98258 0.24494 0.0
C677 C 0.19828 0.98031 0.23842 0.0
C678 C 0.27197 0.24466 0.40608 0.0
C679 C 0.22698 0.26762 0.40237 0.0
H680 H 0.32874 0.20468 0.39014 0.0
C681 C 0.20214 0.26494 0.37946 0.0
H682 H 0.29134 0.24583 0.42369 0.0
C683 C 0.22246 0.24075 0.36046 0.0
C684 C 0.26867 0.21907 0.36386 0.0
H685 H 0.16784 0.28291 0.3761 0.0
H686 H 0.20325 0.24087 0.34293 0.0
C687 C 0.29254 0.22032 0.38696 0.0
C688 C 0.96444 0.21117 0.55444 0.0
C689 C 0.99139 0.24767 0.57536 0.0
H690 H 0.97681 0.20266 0.51729 0.0
C691 C 0.05532 0.30445 0.57476 0.0
H692 H 0.91475 0.1679 0.55432 0.0
C693 C 0.09137 0.3248 0.55331 0.0
C694 C 0.06336 0.28893 0.53222 0.0
H695 H 0.07686 0.33332 0.59075 0.0
H696 H 0.13975 0.36988 0.55305 0.0
C697 C 1.0 0.23133 0.53318 0.0
C698 C 0.79582 0.10738 0.72506 0.0
C699 C 0.76182 0.07659 0.70407 0.0
H700 H 0.80676 0.09381 0.76232 0.0
C701 C 0.70639 0.01159 0.70513 0.0
H702 H 0.83869 0.15735 0.72462 0.0
C703 C 0.6876 0.97625 0.72646 0.0
C704 C 0.72401 0.00509 0.74713 0.0
H705 H 0.67886 0.98702 0.68918 0.0
H706 H 0.6472 0.92488 0.72647 0.0
C707 C 0.77741 0.07132 0.74651 0.0
loop_
_geom_bond_atom_site_label_1
_geom_bond_atom_site_label_2
_geom_bond_distance
_geom_bond_site_symmetry_2
_ccdc_geom_bond_type
Co0 O3 1.970 1_554 S
Co0 N17 1.989 . S
Co0 O25 1.967 . S
Co0 O32 1.920 . S
Co1 O4 1.966 1_554 S
Co1 N10 2.022 1_554 S
Co1 N18 1.993 . S
Co1 O26 1.941 . S
C2 O3 1.258 . S
C2 O4 1.263 . S
O3 Co0 1.970 1_556 S
O3 C2 1.258 . S
O4 Co1 1.966 1_556 S
O4 C2 1.263 . S
C5 O6 1.235 . S
C5 O32 1.289 . S
O6 C5 1.235 . S
C7 C9 1.400 . S
C7 N10 1.351 . S
C7 C12 1.501 . S
C8 C9 1.387 1_554 S
C8 N11 1.341 . S
C9 C7 1.400 . S
C9 C8 1.387 1_556 S
N10 Co1 2.022 1_556 S
N10 C7 1.351 . S
N10 N11 1.365 1_556 S
N11 C8 1.341 . S
N11 N10 1.365 1_554 S
N11 H31 0.862 . S
C12 C7 1.501 . S
C12 H13 0.961 . S
C12 H14 0.961 . S
C12 H15 0.960 . S
H13 C12 0.961 . S
H14 C12 0.961 . S
H15 C12 0.960 . S
C16 N17 1.342 . S
C16 C20 1.401 . S
C16 C21 1.499 . S
N17 Co0 1.989 . S
N17 C16 1.342 . S
N17 N18 1.388 . S
N18 Co1 1.993 . S
N18 N17 1.388 . S
N18 C19 1.346 . S
C19 N18 1.346 . S
C19 C20 1.396 . S
C19 C29 1.510 . S
C20 C16 1.401 . S
C20 C19 1.396 . S
C21 C16 1.499 . S
C21 H22 0.959 . S
C21 H23 0.960 . S
C21 H24 0.961 . S
H22 C21 0.959 . S
H23 C21 0.960 . S
H24 C21 0.961 . S
O25 Co0 1.967 . S
O25 C33 1.258 . S
O26 Co1 1.941 . S
O26 C33 1.266 . S
H27 C29 0.959 . S
H28 C29 0.961 1_655 S
C29 C19 1.510 . S
C29 H27 0.959 . S
C29 H28 0.961 1_455 S
C29 H30 0.960 . S
H30 C29 0.960 . S
H31 N11 0.862 . S
O32 Co0 1.920 . S
O32 C5 1.289 . S
C33 O25 1.258 . S
C33 O26 1.266 . S
Co34 O37 1.970 . S
Co34 N51 1.989 . S
Co34 O59 1.967 . S
Co34 O66 1.935 . S
Co35 O38 1.966 . S
Co35 N44 2.022 . S
Co35 N52 1.993 . S
Co35 O60 1.941 . S
C36 O37 1.258 . S
C36 O38 1.263 . S
O37 Co34 1.970 . S
O37 C36 1.258 . S
O38 Co35 1.966 . S
O38 C36 1.263 . S
C39 O40 1.235 1_455 S
C39 O66 1.275 1_455 S
O40 C39 1.235 1_655 S
C41 C43 1.400 . S
C41 N44 1.351 . S
C41 C46 1.501 . S
C42 C43 1.387 . S
C42 N45 1.341 . S
C43 C41 1.400 . S
C43 C42 1.387 . S
N44 Co35 2.022 . S
N44 C41 1.351 . S
N44 N45 1.365 . S
N45 C42 1.341 . S
N45 N44 1.365 . S
N45 H65 0.862 . S
C46 C41 1.501 . S
C46 H47 0.961 . S
C46 H48 0.961 . S
C46 H49 0.960 . S
H47 C46 0.961 . S
H48 C46 0.961 . S
H49 C46 0.960 . S
C50 N51 1.342 . S
C50 C54 1.401 . S
C50 C55 1.499 . S
N51 Co34 1.989 . S
N51 C50 1.342 . S
N51 N52 1.388 . S
N52 Co35 1.993 . S
N52 N51 1.388 . S
N52 C53 1.346 . S
C53 N52 1.346 . S
C53 C54 1.396 . S
C53 C63 1.510 . S
C54 C50 1.401 . S
C54 C53 1.396 . S
C55 C50 1.499 . S
C55 H56 0.959 . S
C55 H57 0.960 . S
C55 H58 0.961 . S
H56 C55 0.959 . S
H57 C55 0.960 . S
H58 C55 0.961 . S
O59 Co34 1.967 . S
O59 C67 1.258 . S
O60 Co35 1.941 . S
O60 C67 1.266 . S
H61 C63 0.959 . S
H62 C63 0.961 1_565 S
C63 C53 1.510 . S
C63 H61 0.959 . S
C63 H62 0.961 1_545 S
C63 H64 0.960 . S
H64 C63 0.960 . S
H65 N45 0.862 . S
O66 Co34 1.935 . S
O66 C39 1.275 1_655 S
C67 O59 1.258 . S
C67 O60 1.266 . S
Co68 O71 1.970 . S
Co68 N85 1.989 . S
Co68 O93 1.967 . S
Co68 O100 1.932 . S
Co69 O72 1.966 . S
Co69 N78 2.022 . S
Co69 N86 1.993 . S
Co69 O94 1.941 . S
C70 O71 1.258 . S
C70 O72 1.263 . S
O71 Co68 1.970 . S
O71 C70 1.258 . S
O72 Co69 1.966 . S
O72 C70 1.263 . S
C73 O74 1.235 1_545 S
C73 O100 1.292 1_545 S
O74 C73 1.235 1_565 S
C75 C77 1.400 . S
C75 N78 1.351 . S
C75 C80 1.501 . S
C76 C77 1.387 . S
C76 N79 1.341 . S
C77 C75 1.400 . S
C77 C76 1.387 . S
N78 Co69 2.022 . S
N78 C75 1.351 . S
N78 N79 1.365 . S
N79 C76 1.341 . S
N79 N78 1.365 . S
N79 H99 0.862 . S
C80 C75 1.501 . S
C80 H81 0.961 . S
C80 H82 0.961 . S
C80 H83 0.960 . S
H81 C80 0.961 . S
H82 C80 0.961 . S
H83 C80 0.960 . S
C84 N85 1.342 . S
C84 C88 1.401 . S
C84 C89 1.499 . S
N85 Co68 1.989 . S
N85 C84 1.342 . S
N85 N86 1.388 . S
N86 Co69 1.993 . S
N86 N85 1.388 . S
N86 C87 1.346 . S
C87 N86 1.346 . S
C87 C88 1.396 . S
C87 C97 1.510 . S
C88 C84 1.401 . S
C88 C87 1.396 . S
C89 C84 1.499 . S
C89 H90 0.959 . S
C89 H91 0.960 . S
C89 H92 0.961 . S
H90 C89 0.959 . S
H91 C89 0.960 . S
H92 C89 0.961 . S
O93 Co68 1.967 . S
O93 C101 1.258 . S
O94 Co69 1.941 . S
O94 C101 1.266 . S
H95 C97 0.959 . S
H96 C97 0.961 . S
C97 C87 1.510 . S
C97 H95 0.959 . S
C97 H96 0.961 . S
C97 H98 0.960 . S
H98 C97 0.960 . S
H99 N79 0.862 . S
O100 Co68 1.932 . S
O100 C73 1.292 1_565 S
C101 O93 1.258 . S
C101 O94 1.266 . S
Co102 O105 1.970 . S
Co102 N119 1.989 . S
Co102 O127 1.967 . S
Co102 O134 1.920 . S
Co103 O106 1.966 . S
Co103 N112 2.022 . S
Co103 N120 1.993 . S
Co103 O128 1.941 . S
C104 O105 1.258 . S
C104 O106 1.263 . S
O105 Co102 1.970 . S
O105 C104 1.258 . S
O106 Co103 1.966 . S
O106 C104 1.263 . S
C107 O108 1.235 . S
C107 O134 1.289 . S
O108 C107 1.235 . S
C109 C111 1.400 . S
C109 N112 1.351 . S
C109 C114 1.501 . S
C110 C111 1.387 . S
C110 N113 1.341 . S
C111 C109 1.400 . S
C111 C110 1.387 . S
N112 Co103 2.022 . S
N112 C109 1.351 . S
N112 N113 1.365 . S
N113 C110 1.341 . S
N113 N112 1.365 . S
N113 H133 0.862 . S
C114 C109 1.501 . S
C114 H115 0.961 . S
C114 H116 0.961 . S
C114 H117 0.960 . S
H115 C114 0.961 . S
H116 C114 0.961 . S
H117 C114 0.960 . S
C118 N119 1.342 . S
C118 C122 1.401 . S
C118 C123 1.499 . S
N119 Co102 1.989 . S
N119 C118 1.342 . S
N119 N120 1.388 . S
N120 Co103 1.993 . S
N120 N119 1.388 . S
N120 C121 1.346 . S
C121 N120 1.346 . S
C121 C122 1.396 . S
C121 C131 1.510 . S
C122 C118 1.401 . S
C122 C121 1.396 . S
C123 C118 1.499 . S
C123 H124 0.959 . S
C123 H125 0.960 . S
C123 H126 0.961 . S
H124 C123 0.959 . S
H125 C123 0.960 . S
H126 C123 0.961 . S
O127 Co102 1.967 . S
O127 C135 1.258 . S
O128 Co103 1.941 . S
O128 C135 1.266 . S
H129 C131 0.959 . S
H130 C131 0.961 1_455 S
C131 C121 1.510 . S
C131 H129 0.959 . S
C131 H130 0.961 1_655 S
C131 H132 0.960 . S
H132 C131 0.960 . S
H133 N113 0.862 . S
O134 Co102 1.920 . S
O134 C107 1.289 . S
C135 O127 1.258 . S
C135 O128 1.266 . S
Co136 O139 1.970 . S
Co136 N153 1.989 . S
Co136 O161 1.967 . S
Co136 O168 1.935 . S
Co137 O140 1.966 . S
Co137 N146 2.022 . S
Co137 N154 1.993 . S
Co137 O162 1.941 . S
C138 O139 1.258 . S
C138 O140 1.263 . S
O139 Co136 1.970 . S
O139 C138 1.258 . S
O140 Co137 1.966 . S
O140 C138 1.263 . S
C141 O142 1.235 1_655 S
C141 O168 1.275 1_655 S
O142 C141 1.235 1_455 S
C143 C145 1.400 . S
C143 N146 1.351 . S
C143 C148 1.501 . S
C144 C145 1.387 . S
C144 N147 1.341 . S
C145 C143 1.400 . S
C145 C144 1.387 . S
N146 Co137 2.022 . S
N146 C143 1.351 . S
N146 N147 1.365 . S
N147 C144 1.341 . S
N147 N146 1.365 . S
N147 H167 0.862 . S
C148 C143 1.501 . S
C148 H149 0.961 . S
C148 H150 0.961 . S
C148 H151 0.960 . S
H149 C148 0.961 . S
H150 C148 0.961 . S
H151 C148 0.960 . S
C152 N153 1.342 . S
C152 C156 1.401 . S
C152 C157 1.499 . S
N153 Co136 1.989 . S
N153 C152 1.342 . S
N153 N154 1.388 . S
N154 Co137 1.993 . S
N154 N153 1.388 . S
N154 C155 1.346 . S
C155 N154 1.346 . S
C155 C156 1.396 . S
C155 C165 1.510 . S
C156 C152 1.401 . S
C156 C155 1.396 . S
C157 C152 1.499 . S
C157 H158 0.959 . S
C157 H159 0.960 . S
C157 H160 0.961 . S
H158 C157 0.959 . S
H159 C157 0.960 . S
H160 C157 0.961 . S
O161 Co136 1.967 . S
O161 C169 1.258 . S
O162 Co137 1.941 . S
O162 C169 1.266 . S
H163 C165 0.959 . S
H164 C165 0.961 1_545 S
C165 C155 1.510 . S
C165 H163 0.959 . S
C165 H164 0.961 1_565 S
C165 H166 0.960 . S
H166 C165 0.960 . S
H167 N147 0.862 . S
O168 Co136 1.935 . S
O168 C141 1.275 1_455 S
C169 O161 1.258 . S
C169 O162 1.266 . S
Co170 O173 1.970 . S
Co170 N187 1.989 . S
Co170 O195 1.967 . S
Co170 O202 1.932 . S
Co171 O174 1.966 . S
Co171 N180 2.022 . S
Co171 N188 1.993 . S
Co171 O196 1.941 . S
C172 O173 1.258 . S
C172 O174 1.263 . S
O173 Co170 1.970 . S
O173 C172 1.258 . S
O174 Co171 1.966 . S
O174 C172 1.263 . S
C175 O176 1.235 1_565 S
C175 O202 1.292 1_565 S
O176 C175 1.235 1_545 S
C177 C179 1.400 . S
C177 N180 1.351 . S
C177 C182 1.501 . S
C178 C179 1.387 . S
C178 N181 1.341 . S
C179 C177 1.400 . S
C179 C178 1.387 . S
N180 Co171 2.022 . S
N180 C177 1.351 . S
N180 N181 1.365 . S
N181 C178 1.341 . S
N181 N180 1.365 . S
N181 H201 0.862 . S
C182 C177 1.501 . S
C182 H183 0.961 . S
C182 H184 0.961 . S
C182 H185 0.960 . S
H183 C182 0.961 . S
H184 C182 0.961 . S
H185 C182 0.960 . S
C186 N187 1.342 . S
C186 C190 1.401 . S
C186 C191 1.499 . S
N187 Co170 1.989 . S
N187 C186 1.342 . S
N187 N188 1.388 . S
N188 Co171 1.993 . S
N188 N187 1.388 . S
N188 C189 1.346 . S
C189 N188 1.346 . S
C189 C190 1.396 . S
C189 C199 1.510 . S
C190 C186 1.401 . S
C190 C189 1.396 . S
C191 C186 1.499 . S
C191 H192 0.959 . S
C191 H193 0.960 . S
C191 H194 0.961 . S
H192 C191 0.959 . S
H193 C191 0.960 . S
H194 C191 0.961 . S
O195 Co170 1.967 . S
O195 C203 1.258 . S
O196 Co171 1.941 . S
O196 C203 1.266 . S
H197 C199 0.959 . S
H198 C199 0.961 . S
C199 C189 1.510 . S
C199 H197 0.959 . S
C199 H198 0.961 . S
C199 H200 0.960 . S
H200 C199 0.960 . S
H201 N181 0.862 . S
O202 Co170 1.932 . S
O202 C175 1.292 1_545 S
C203 O195 1.258 . S
C203 O196 1.266 . S
Co204 O207 1.970 . S
Co204 N221 1.989 . S
Co204 O229 1.967 . S
Co204 O236 1.920 . S
Co205 O208 1.966 . S
Co205 N214 2.022 . S
Co205 N222 1.993 . S
Co205 O230 1.941 . S
C206 O207 1.258 . S
C206 O208 1.263 . S
O207 Co204 1.970 . S
O207 C206 1.258 . S
O208 Co205 1.966 . S
O208 C206 1.263 . S
C209 O210 1.235 . S
C209 O236 1.289 . S
O210 C209 1.235 . S
C211 C213 1.400 . S
C211 N214 1.351 . S
C211 C216 1.501 . S
C212 C213 1.387 . S
C212 N215 1.341 . S
C213 C211 1.400 . S
C213 C212 1.387 . S
N214 Co205 2.022 . S
N214 C211 1.351 . S
N214 N215 1.365 . S
N215 C212 1.341 . S
N215 N214 1.365 . S
N215 H235 0.862 . S
C216 C211 1.501 . S
C216 H217 0.961 . S
C216 H218 0.961 . S
C216 H219 0.960 . S
H217 C216 0.961 . S
H218 C216 0.961 . S
H219 C216 0.960 . S
C220 N221 1.342 . S
C220 C224 1.401 . S
C220 C225 1.499 . S
N221 Co204 1.989 . S
N221 C220 1.342 . S
N221 N222 1.388 . S
N222 Co205 1.993 . S
N222 N221 1.388 . S
N222 C223 1.346 . S
C223 N222 1.346 . S
C223 C224 1.396 . S
C223 C233 1.510 . S
C224 C220 1.401 . S
C224 C223 1.396 . S
C225 C220 1.499 . S
C225 H226 0.959 . S
C225 H227 0.960 . S
C225 H228 0.961 . S
H226 C225 0.959 . S
H227 C225 0.960 . S
H228 C225 0.961 . S
O229 Co204 1.967 . S
O229 C237 1.258 . S
O230 Co205 1.941 . S
O230 C237 1.266 . S
H231 C233 0.959 . S
H232 C233 0.961 1_545 S
C233 C223 1.510 . S
C233 H231 0.959 . S
C233 H232 0.961 1_565 S
C233 H234 0.960 . S
H234 C233 0.960 . S
H235 N215 0.862 . S
O236 Co204 1.920 . S
O236 C209 1.289 . S
C237 O229 1.258 . S
C237 O230 1.266 . S
Co238 O241 1.970 . S
Co238 N255 1.989 . S
Co238 O263 1.967 . S
Co238 O270 1.932 . S
Co239 O242 1.966 1_556 S
Co239 N248 2.022 . S
Co239 N256 1.993 . S
Co239 O264 1.941 . S
C240 O241 1.258 1_554 S
C240 O242 1.263 . S
O241 Co238 1.970 . S
O241 C240 1.258 1_556 S
O242 Co239 1.966 1_554 S
O242 C240 1.263 . S
C243 O244 1.235 1_455 S
C243 O270 1.292 1_455 S
O244 C243 1.235 1_655 S
C245 C247 1.400 . S
C245 N248 1.351 1_554 S
C245 C250 1.501 . S
C246 C247 1.387 1_556 S
C246 N249 1.341 . S
C247 C245 1.400 . S
C247 C246 1.387 1_554 S
N248 Co239 2.022 . S
N248 C245 1.351 1_556 S
N248 N249 1.365 . S
N249 C246 1.341 . S
N249 N248 1.365 . S
N249 H269 0.862 . S
C250 C245 1.501 . S
C250 H251 0.961 . S
C250 H252 0.961 . S
C250 H253 0.960 . S
H251 C250 0.961 . S
H252 C250 0.961 . S
H253 C250 0.960 . S
C254 N255 1.342 . S
C254 C258 1.401 . S
C254 C259 1.499 . S
N255 Co238 1.989 . S
N255 C254 1.342 . S
N255 N256 1.388 . S
N256 Co239 1.993 . S
N256 N255 1.388 . S
N256 C257 1.346 . S
C257 N256 1.346 . S
C257 C258 1.396 . S
C257 C267 1.510 . S
C258 C254 1.401 . S
C258 C257 1.396 . S
C259 C254 1.499 . S
C259 H260 0.959 . S
C259 H261 0.960 . S
C259 H262 0.961 . S
H260 C259 0.959 . S
H261 C259 0.960 . S
H262 C259 0.961 . S
O263 Co238 1.967 . S
O263 C271 1.258 . S
O264 Co239 1.941 . S
O264 C271 1.266 . S
H265 C267 0.959 . S
H266 C267 0.961 . S
C267 C257 1.510 . S
C267 H265 0.959 . S
C267 H266 0.961 . S
C267 H268 0.960 . S
H268 C267 0.960 . S
H269 N249 0.862 . S
O270 Co238 1.932 . S
O270 C243 1.292 1_655 S
C271 O263 1.258 . S
C271 O264 1.266 . S
Co272 O275 1.970 . S
Co272 N289 1.989 . S
Co272 O297 1.967 . S
Co272 O304 1.935 . S
Co273 O276 1.966 . S
Co273 N282 2.022 . S
Co273 N290 1.993 . S
Co273 O298 1.941 . S
C274 O275 1.258 . S
C274 O276 1.263 . S
O275 Co272 1.970 . S
O275 C274 1.258 . S
O276 Co273 1.966 . S
O276 C274 1.263 . S
C277 O278 1.235 1_545 S
C277 O304 1.275 1_545 S
O278 C277 1.235 1_565 S
C279 C281 1.400 . S
C279 N282 1.351 . S
C279 C284 1.501 . S
C280 C281 1.387 . S
C280 N283 1.341 . S
C281 C279 1.400 . S
C281 C280 1.387 . S
N282 Co273 2.022 . S
N282 C279 1.351 . S
N282 N283 1.365 . S
N283 C280 1.341 . S
N283 N282 1.365 . S
N283 H303 0.862 . S
C284 C279 1.501 . S
C284 H285 0.961 . S
C284 H286 0.961 . S
C284 H287 0.960 . S
H285 C284 0.961 . S
H286 C284 0.961 . S
H287 C284 0.960 . S
C288 N289 1.342 . S
C288 C292 1.401 . S
C288 C293 1.499 . S
N289 Co272 1.989 . S
N289 C288 1.342 . S
N289 N290 1.388 . S
N290 Co273 1.993 . S
N290 N289 1.388 . S
N290 C291 1.346 . S
C291 N290 1.346 . S
C291 C292 1.396 . S
C291 C301 1.510 . S
C292 C288 1.401 . S
C292 C291 1.396 . S
C293 C288 1.499 . S
C293 H294 0.959 . S
C293 H295 0.960 . S
C293 H296 0.961 . S
H294 C293 0.959 . S
H295 C293 0.960 . S
H296 C293 0.961 . S
O297 Co272 1.967 . S
O297 C305 1.258 . S
O298 Co273 1.941 . S
O298 C305 1.266 . S
H299 C301 0.959 . S
H300 C301 0.961 1_655 S
C301 C291 1.510 . S
C301 H299 0.959 . S
C301 H300 0.961 1_455 S
C301 H302 0.960 . S
H302 C301 0.960 . S
H303 N283 0.862 . S
O304 Co272 1.935 . S
O304 C277 1.275 1_565 S
C305 O297 1.258 . S
C305 O298 1.266 . S
Co306 O309 1.970 . S
Co306 N323 1.989 . S
Co306 O331 1.967 . S
Co306 O338 1.920 . S
Co307 O310 1.966 . S
Co307 N316 2.022 . S
Co307 N324 1.993 . S
Co307 O332 1.941 . S
C308 O309 1.258 . S
C308 O310 1.263 . S
O309 Co306 1.970 . S
O309 C308 1.258 . S
O310 Co307 1.966 . S
O310 C308 1.263 . S
C311 O312 1.235 . S
C311 O338 1.289 . S
O312 C311 1.235 . S
C313 C315 1.400 . S
C313 N316 1.351 . S
C313 C318 1.501 . S
C314 C315 1.387 . S
C314 N317 1.341 . S
C315 C313 1.400 . S
C315 C314 1.387 . S
N316 Co307 2.022 . S
N316 C313 1.351 . S
N316 N317 1.365 . S
N317 C314 1.341 . S
N317 N316 1.365 . S
N317 H337 0.862 . S
C318 C313 1.501 . S
C318 H319 0.961 . S
C318 H320 0.961 . S
C318 H321 0.960 . S
H319 C318 0.961 . S
H320 C318 0.961 . S
H321 C318 0.960 . S
C322 N323 1.342 . S
C322 C326 1.401 . S
C322 C327 1.499 . S
N323 Co306 1.989 . S
N323 C322 1.342 . S
N323 N324 1.388 . S
N324 Co307 1.993 . S
N324 N323 1.388 . S
N324 C325 1.346 . S
C325 N324 1.346 . S
C325 C326 1.396 . S
C325 C335 1.510 . S
C326 C322 1.401 . S
C326 C325 1.396 . S
C327 C322 1.499 . S
C327 H328 0.959 . S
C327 H329 0.960 . S
C327 H330 0.961 . S
H328 C327 0.959 . S
H329 C327 0.960 . S
H330 C327 0.961 . S
O331 Co306 1.967 . S
O331 C339 1.258 . S
O332 Co307 1.941 . S
O332 C339 1.266 . S
H333 C335 0.959 . S
H334 C335 0.961 1_565 S
C335 C325 1.510 . S
C335 H333 0.959 . S
C335 H334 0.961 1_545 S
C335 H336 0.960 . S
H336 C335 0.960 . S
H337 N317 0.862 . S
O338 Co306 1.920 . S
O338 C311 1.289 . S
C339 O331 1.258 . S
C339 O332 1.266 . S
Co340 O343 1.970 . S
Co340 N357 1.989 . S
Co340 O365 1.967 . S
Co340 O372 1.932 . S
Co341 O344 1.966 . S
Co341 N350 2.022 . S
Co341 N358 1.993 . S
Co341 O366 1.941 . S
C342 O343 1.258 . S
C342 O344 1.263 . S
O343 Co340 1.970 . S
O343 C342 1.258 . S
O344 Co341 1.966 . S
O344 C342 1.263 . S
C345 O346 1.235 1_655 S
C345 O372 1.292 1_655 S
O346 C345 1.235 1_455 S
C347 C349 1.400 . S
C347 N350 1.351 . S
C347 C352 1.501 . S
C348 C349 1.387 . S
C348 N351 1.341 . S
C349 C347 1.400 . S
C349 C348 1.387 . S
N350 Co341 2.022 . S
N350 C347 1.351 . S
N350 N351 1.365 . S
N351 C348 1.341 . S
N351 N350 1.365 . S
N351 H371 0.862 . S
C352 C347 1.501 . S
C352 H353 0.961 . S
C352 H354 0.961 . S
C352 H355 0.960 . S
H353 C352 0.961 . S
H354 C352 0.961 . S
H355 C352 0.960 . S
C356 N357 1.342 . S
C356 C360 1.401 . S
C356 C361 1.499 . S
N357 Co340 1.989 . S
N357 C356 1.342 . S
N357 N358 1.388 . S
N358 Co341 1.993 . S
N358 N357 1.388 . S
N358 C359 1.346 . S
C359 N358 1.346 . S
C359 C360 1.396 . S
C359 C369 1.510 . S
C360 C356 1.401 . S
C360 C359 1.396 . S
C361 C356 1.499 . S
C361 H362 0.959 . S
C361 H363 0.960 . S
C361 H364 0.961 . S
H362 C361 0.959 . S
H363 C361 0.960 . S
H364 C361 0.961 . S
O365 Co340 1.967 . S
O365 C373 1.258 . S
O366 Co341 1.941 . S
O366 C373 1.266 . S
H367 C369 0.959 . S
H368 C369 0.961 . S
C369 C359 1.510 . S
C369 H367 0.959 . S
C369 H368 0.961 . S
C369 H370 0.960 . S
H370 C369 0.960 . S
H371 N351 0.862 . S
O372 Co340 1.932 . S
O372 C345 1.292 1_455 S
C373 O365 1.258 . S
C373 O366 1.266 . S
Co374 O377 1.970 . S
Co374 N391 1.989 . S
Co374 O399 1.967 . S
Co374 O406 1.935 . S
Co375 O378 1.966 . S
Co375 N384 2.022 . S
Co375 N392 1.993 . S
Co375 O400 1.941 . S
C376 O377 1.258 . S
C376 O378 1.263 . S
O377 Co374 1.970 . S
O377 C376 1.258 . S
O378 Co375 1.966 . S
O378 C376 1.263 . S
C379 O380 1.235 1_565 S
C379 O406 1.275 1_565 S
O380 C379 1.235 1_545 S
C381 C383 1.400 . S
C381 N384 1.351 . S
C381 C386 1.501 . S
C382 C383 1.387 . S
C382 N385 1.341 . S
C383 C381 1.400 . S
C383 C382 1.387 . S
N384 Co375 2.022 . S
N384 C381 1.351 . S
N384 N385 1.365 . S
N385 C382 1.341 . S
N385 N384 1.365 . S
N385 H405 0.862 . S
C386 C381 1.501 . S
C386 H387 0.961 . S
C386 H388 0.961 . S
C386 H389 0.960 . S
H387 C386 0.961 . S
H388 C386 0.961 . S
H389 C386 0.960 . S
C390 N391 1.342 . S
C390 C394 1.401 . S
C390 C395 1.499 . S
N391 Co374 1.989 . S
N391 C390 1.342 . S
N391 N392 1.388 . S
N392 Co375 1.993 . S
N392 N391 1.388 . S
N392 C393 1.346 . S
C393 N392 1.346 . S
C393 C394 1.396 . S
C393 C403 1.510 . S
C394 C390 1.401 . S
C394 C393 1.396 . S
C395 C390 1.499 . S
C395 H396 0.959 . S
C395 H397 0.960 . S
C395 H398 0.961 . S
H396 C395 0.959 . S
H397 C395 0.960 . S
H398 C395 0.961 . S
O399 Co374 1.967 . S
O399 C407 1.258 . S
O400 Co375 1.941 . S
O400 C407 1.266 . S
H401 C403 0.959 . S
H402 C403 0.961 1_455 S
C403 C393 1.510 . S
C403 H401 0.959 . S
C403 H402 0.961 1_655 S
C403 H404 0.960 . S
H404 C403 0.960 . S
H405 N385 0.862 . S
O406 Co374 1.935 . S
O406 C379 1.275 1_545 S
C407 O399 1.258 . S
C407 O400 1.266 . S
C408 C409 1.387 . S
C408 H412 0.950 . S
C408 C417 1.390 . S
C409 C408 1.387 . S
C409 C411 1.387 . S
H410 C417 0.950 . S
C411 C409 1.387 . S
C411 C413 1.390 . S
C411 H415 0.950 . S
H412 C408 0.950 . S
C413 C411 1.390 . S
C413 C414 1.387 . S
C413 H416 0.950 . S
C414 C413 1.387 . S
C414 C417 1.387 . S
H415 C411 0.950 . S
H416 C413 0.950 . S
C417 C408 1.390 . S
C417 H410 0.950 . S
C417 C414 1.387 . S
C418 C419 1.387 . S
C418 H422 0.950 . S
C418 C427 1.390 . S
C419 C418 1.387 . S
C419 C421 1.387 . S
H420 C427 0.950 . S
C421 C419 1.387 . S
C421 C423 1.390 . S
C421 H425 0.950 . S
H422 C418 0.950 . S
C423 C421 1.390 . S
C423 C424 1.387 . S
C423 H426 0.950 . S
C424 C423 1.387 . S
C424 C427 1.387 . S
H425 C421 0.950 . S
H426 C423 0.950 . S
C427 C418 1.390 . S
C427 H420 0.950 . S
C427 C424 1.387 . S
C428 C429 1.387 . S
C428 H432 0.950 . S
C428 C437 1.390 . S
C429 C428 1.387 . S
C429 C431 1.387 . S
H430 C437 0.950 1_565 S
C431 C429 1.387 . S
C431 C433 1.390 . S
C431 H435 0.950 . S
H432 C428 0.950 . S
C433 C431 1.390 . S
C433 C434 1.387 . S
C433 H436 0.950 . S
C434 C433 1.387 . S
C434 C437 1.387 . S
H435 C431 0.950 . S
H436 C433 0.950 . S
C437 C428 1.390 . S
C437 H430 0.950 1_545 S
C437 C434 1.387 . S
C438 C439 1.387 . S
C438 H442 0.950 . S
C438 C447 1.390 . S
C439 C438 1.387 . S
C439 C441 1.387 . S
H440 C447 0.950 . S
C441 C439 1.387 . S
C441 C443 1.390 . S
C441 H445 0.950 . S
H442 C438 0.950 . S
C443 C441 1.390 . S
C443 C444 1.387 . S
C443 H446 0.950 1_565 S
C444 C443 1.387 . S
C444 C447 1.387 . S
H445 C441 0.950 . S
H446 C443 0.950 1_545 S
C447 C438 1.390 . S
C447 H440 0.950 . S
C447 C444 1.387 . S
C448 C449 1.387 . S
C448 H452 0.950 . S
C448 C457 1.390 . S
C449 C448 1.387 . S
C449 C451 1.387 . S
H450 C457 0.950 . S
C451 C449 1.387 . S
C451 C453 1.390 . S
C451 H455 0.950 . S
H452 C448 0.950 . S
C453 C451 1.390 . S
C453 C454 1.387 . S
C453 H456 0.950 . S
C454 C453 1.387 . S
C454 C457 1.387 . S
H455 C451 0.950 . S
H456 C453 0.950 . S
C457 C448 1.390 . S
C457 H450 0.950 . S
C457 C454 1.387 . S
C458 C459 1.387 . S
C458 H462 0.950 . S
C458 C467 1.390 . S
C459 C458 1.387 . S
C459 C461 1.387 . S
H460 C467 0.950 . S
C461 C459 1.387 . S
C461 C463 1.390 . S
C461 H465 0.950 1_565 S
H462 C458 0.950 . S
C463 C461 1.390 . S
C463 C464 1.387 . S
C463 H466 0.950 . S
C464 C463 1.387 . S
C464 C467 1.387 . S
H465 C461 0.950 1_545 S
H466 C463 0.950 . S
C467 C458 1.390 . S
C467 H460 0.950 . S
C467 C464 1.387 . S
C468 C469 1.387 1_556 S
C468 H472 0.950 . S
C468 C477 1.390 . S
C469 C468 1.387 1_554 S
C469 C471 1.387 . S
H470 C477 0.950 . S
C471 C469 1.387 . S
C471 C473 1.390 . S
C471 H475 0.950 . S
H472 C468 0.950 . S
C473 C471 1.390 . S
C473 C474 1.387 . S
C473 H476 0.950 . S
C474 C473 1.387 . S
C474 C477 1.387 1_554 S
H475 C471 0.950 . S
H476 C473 0.950 . S
C477 C468 1.390 . S
C477 H470 0.950 . S
C477 C474 1.387 1_556 S
C478 C479 1.387 . S
C478 H482 0.950 . S
C478 C487 1.390 1_655 S
C479 C478 1.387 . S
C479 C481 1.387 . S
H480 C487 0.950 . S
C481 C479 1.387 . S
C481 C483 1.390 . S
C481 H485 0.950 . S
H482 C478 0.950 . S
C483 C481 1.390 . S
C483 C484 1.387 1_655 S
C483 H486 0.950 . S
C484 C483 1.387 1_455 S
C484 C487 1.387 . S
H485 C481 0.950 . S
H486 C483 0.950 . S
C487 C478 1.390 1_455 S
C487 H480 0.950 . S
C487 C484 1.387 . S
C488 C489 1.387 1_565 S
C488 H492 0.950 1_565 S
C488 C497 1.390 . S
C489 C488 1.387 1_545 S
C489 C491 1.387 1_545 S
H490 C497 0.950 . S
C491 C489 1.387 1_565 S
C491 C493 1.390 . S
C491 H495 0.950 . S
H492 C488 0.950 1_545 S
C493 C491 1.390 . S
C493 C494 1.387 . S
C493 H496 0.950 . S
C494 C493 1.387 . S
C494 C497 1.387 . S
H495 C491 0.950 . S
H496 C493 0.950 . S
C497 C488 1.390 . S
C497 H490 0.950 . S
C497 C494 1.387 . S
C498 C499 1.387 . S
C498 H502 0.950 . S
C498 C507 1.390 . S
C499 C498 1.387 . S
C499 C501 1.387 . S
H500 C507 0.950 . S
C501 C499 1.387 . S
C501 C503 1.390 . S
C501 H505 0.950 . S
H502 C498 0.950 . S
C503 C501 1.390 . S
C503 C504 1.387 . S
C503 H506 0.950 . S
C504 C503 1.387 . S
C504 C507 1.387 . S
H505 C501 0.950 . S
H506 C503 0.950 . S
C507 C498 1.390 . S
C507 H500 0.950 . S
C507 C504 1.387 . S
C508 C509 1.387 1_455 S
C508 H512 0.950 . S
C508 C517 1.390 . S
C509 C508 1.387 1_655 S
C509 C511 1.387 1_655 S
H510 C517 0.950 . S
C511 C509 1.387 1_455 S
C511 C513 1.390 . S
C511 H515 0.950 1_455 S
H512 C508 0.950 . S
C513 C511 1.390 . S
C513 C514 1.387 . S
C513 H516 0.950 . S
C514 C513 1.387 . S
C514 C517 1.387 . S
H515 C511 0.950 1_655 S
H516 C513 0.950 . S
C517 C508 1.390 . S
C517 H510 0.950 . S
C517 C514 1.387 . S
C518 C519 1.387 1_545 S
C518 H522 0.950 1_545 S
C518 C527 1.390 . S
C519 C518 1.387 1_565 S
C519 C521 1.387 1_565 S
H520 C527 0.950 . S
C521 C519 1.387 1_545 S
C521 C523 1.390 . S
C521 H525 0.950 . S
H522 C518 0.950 1_565 S
C523 C521 1.390 . S
C523 C524 1.387 . S
C523 H526 0.950 . S
C524 C523 1.387 . S
C524 C527 1.387 . S
H525 C521 0.950 . S
H526 C523 0.950 . S
C527 C518 1.390 . S
C527 H520 0.950 . S
C527 C524 1.387 . S
C528 C529 1.387 . S
C528 H532 0.950 . S
C528 C537 1.390 . S
C529 C528 1.387 . S
C529 C531 1.387 . S
H530 C537 0.950 . S
C531 C529 1.387 . S
C531 C533 1.390 . S
C531 H535 0.950 . S
H532 C528 0.950 . S
C533 C531 1.390 . S
C533 C534 1.387 . S
C533 H536 0.950 . S
C534 C533 1.387 . S
C534 C537 1.387 . S
H535 C531 0.950 . S
H536 C533 0.950 . S
C537 C528 1.390 . S
C537 H530 0.950 . S
C537 C534 1.387 . S
C538 C539 1.387 . S
C538 H542 0.950 1_556 S
C538 C547 1.390 . S
C539 C538 1.387 . S
C539 C541 1.387 . S
H540 C547 0.950 1_454 S
C541 C539 1.387 . S
C541 C543 1.390 . S
C541 H545 0.950 . S
H542 C538 0.950 1_554 S
C543 C541 1.390 . S
C543 C544 1.387 1_655 S
C543 H546 0.950 . S
C544 C543 1.387 1_455 S
C544 C547 1.387 1_455 S
H545 C541 0.950 . S
H546 C543 0.950 . S
C547 C538 1.390 . S
C547 H540 0.950 1_656 S
C547 C544 1.387 1_655 S
C548 C549 1.387 . S
C548 H552 0.950 . S
C548 C557 1.388 1_565 S
C549 C548 1.387 . S
C549 C551 1.387 . S
H550 C557 0.954 . S
C551 C549 1.387 . S
C551 C553 1.390 . S
C551 H555 0.950 . S
H552 C548 0.950 . S
C553 C551 1.390 . S
C553 C554 1.387 1_565 S
C553 H556 0.950 . S
C554 C553 1.387 1_545 S
C554 C557 1.386 . S
H555 C551 0.950 . S
H556 C553 0.950 . S
C557 C548 1.388 1_545 S
C557 H550 0.954 . S
C557 C554 1.386 . S
C558 C559 1.387 . S
C558 H562 0.950 . S
C558 C567 1.390 . S
C559 C558 1.387 . S
C559 C561 1.387 . S
H560 C567 0.950 . S
C561 C559 1.387 . S
C561 C563 1.390 . S
C561 H565 0.950 . S
H562 C558 0.950 . S
C563 C561 1.390 . S
C563 C564 1.387 . S
C563 H566 0.950 . S
C564 C563 1.387 . S
C564 C567 1.387 . S
H565 C561 0.950 . S
H566 C563 0.950 . S
C567 C558 1.390 . S
C567 H560 0.950 . S
C567 C564 1.387 . S
C568 C569 1.380 1_455 S
C568 H572 0.941 1_455 S
C568 C577 1.407 . S
C569 C568 1.380 1_655 S
C569 C571 1.387 1_655 S
H570 C577 0.950 . S
C571 C569 1.387 1_455 S
C571 C573 1.390 . S
C571 H575 0.950 . S
H572 C568 0.941 1_655 S
C573 C571 1.390 . S
C573 C574 1.387 . S
C573 H576 0.950 . S
C574 C573 1.387 . S
C574 C577 1.387 . S
H575 C571 0.950 . S
H576 C573 0.950 . S
C577 C568 1.407 . S
C577 H570 0.950 . S
C577 C574 1.387 . S
C578 C579 1.387 1_545 S
C578 H582 0.950 . S
C578 C587 1.390 . S
C579 C578 1.387 1_565 S
C579 C581 1.387 . S
H580 C587 0.950 . S
C581 C579 1.387 . S
C581 C583 1.390 1_565 S
C581 H585 0.950 . S
H582 C578 0.950 . S
C583 C581 1.390 1_545 S
C583 C584 1.387 . S
C583 H586 0.950 . S
C584 C583 1.387 . S
C584 C587 1.387 . S
H585 C581 0.950 . S
H586 C583 0.950 . S
C587 C578 1.390 . S
C587 H580 0.950 . S
C587 C584 1.387 . S
C588 C589 1.387 . S
C588 H592 0.950 . S
C588 C597 1.390 . S
C589 C588 1.387 . S
C589 C591 1.387 . S
H590 C597 0.950 . S
C591 C589 1.387 . S
C591 C593 1.390 . S
C591 H595 0.950 . S
H592 C588 0.950 . S
C593 C591 1.390 . S
C593 C594 1.387 . S
C593 H596 0.950 . S
C594 C593 1.387 . S
C594 C597 1.387 . S
H595 C591 0.950 . S
H596 C593 0.950 . S
C597 C588 1.390 . S
C597 H590 0.950 . S
C597 C594 1.387 . S
C598 C599 1.387 . S
C598 H602 0.950 . S
C598 C607 1.390 1_455 S
C599 C598 1.387 . S
C599 C601 1.387 1_455 S
H600 C607 0.950 . S
C601 C599 1.387 1_655 S
C601 C603 1.390 . S
C601 H605 0.950 . S
H602 C598 0.950 . S
C603 C601 1.390 . S
C603 C604 1.387 . S
C603 H606 0.950 . S
C604 C603 1.387 . S
C604 C607 1.387 . S
H605 C601 0.950 . S
H606 C603 0.950 . S
C607 C598 1.390 1_655 S
C607 H600 0.950 . S
C607 C604 1.387 . S
C608 C609 1.387 . S
C608 H612 0.950 . S
C608 C617 1.390 . S
C609 C608 1.387 . S
C609 C611 1.387 . S
H610 C617 0.950 . S
C611 C609 1.387 . S
C611 C613 1.390 1_565 S
C611 H615 0.950 . S
H612 C608 0.950 . S
C613 C611 1.390 1_545 S
C613 C614 1.387 . S
C613 H616 0.950 . S
C614 C613 1.387 . S
C614 C617 1.387 1_545 S
H615 C611 0.950 . S
H616 C613 0.950 . S
C617 C608 1.390 . S
C617 H610 0.950 . S
C617 C614 1.387 1_565 S
C618 C619 1.387 . S
C618 H622 0.950 . S
C618 C627 1.390 . S
C619 C618 1.387 . S
C619 C621 1.387 . S
H620 C627 0.950 . S
C621 C619 1.387 . S
C621 C623 1.390 . S
C621 H625 0.950 . S
H622 C618 0.950 . S
C623 C621 1.390 . S
C623 C624 1.387 . S
C623 H626 0.950 . S
C624 C623 1.387 . S
C624 C627 1.387 . S
H625 C621 0.950 . S
H626 C623 0.950 . S
C627 C618 1.390 . S
C627 H620 0.950 . S
C627 C624 1.387 . S
C628 C629 1.387 . S
C628 H632 0.950 . S
C628 C637 1.390 1_655 S
C629 C628 1.387 . S
C629 C631 1.387 1_655 S
H630 C637 0.950 . S
C631 C629 1.387 1_455 S
C631 C633 1.390 . S
C631 H635 0.950 . S
H632 C628 0.950 . S
C633 C631 1.390 . S
C633 C634 1.387 . S
C633 H636 0.950 . S
C634 C633 1.387 . S
C634 C637 1.387 . S
H635 C631 0.950 . S
H636 C633 0.950 . S
C637 C628 1.390 1_455 S
C637 H630 0.950 . S
C637 C634 1.387 . S
C638 C639 1.387 1_545 S
C638 H642 0.950 . S
C638 C647 1.390 . S
C639 C638 1.387 1_565 S
C639 C641 1.387 1_565 S
H640 C647 0.950 . S
C641 C639 1.387 1_545 S
C641 C643 1.390 . S
C641 H645 0.950 1_545 S
H642 C638 0.950 . S
C643 C641 1.390 . S
C643 C644 1.387 . S
C643 H646 0.950 . S
C644 C643 1.387 . S
C644 C647 1.387 . S
H645 C641 0.950 1_565 S
H646 C643 0.950 . S
C647 C638 1.390 . S
C647 H640 0.950 . S
C647 C644 1.387 . S
C648 C649 1.387 . S
C648 H652 0.950 . S
C648 C657 1.390 . S
C649 C648 1.387 . S
C649 C651 1.387 . S
H650 C657 0.950 . S
C651 C649 1.387 . S
C651 C653 1.390 . S
C651 H655 0.950 . S
H652 C648 0.950 . S
C653 C651 1.390 . S
C653 C654 1.387 . S
C653 H656 0.950 . S
C654 C653 1.387 . S
C654 C657 1.387 . S
H655 C651 0.950 . S
H656 C653 0.950 . S
C657 C648 1.390 . S
C657 H650 0.950 . S
C657 C654 1.387 . S
C658 C659 1.387 . S
C658 H662 0.950 . S
C658 C667 1.390 . S
C659 C658 1.387 . S
C659 C661 1.387 . S
H660 C667 0.950 . S
C661 C659 1.387 . S
C661 C663 1.390 1_655 S
C661 H665 0.950 . S
H662 C658 0.950 . S
C663 C661 1.390 1_455 S
C663 C664 1.387 . S
C663 H666 0.950 . S
C664 C663 1.387 . S
C664 C667 1.387 1_455 S
H665 C661 0.950 . S
H666 C663 0.950 . S
C667 C658 1.390 . S
C667 H660 0.950 . S
C667 C664 1.387 1_655 S
C668 C669 1.387 . S
C668 H672 0.950 . S
C668 C677 1.390 1_565 S
C669 C668 1.387 . S
C669 C671 1.387 . S
H670 C677 0.950 . S
C671 C669 1.387 . S
C671 C673 1.390 . S
C671 H675 0.950 . S
H672 C668 0.950 . S
C673 C671 1.390 . S
C673 C674 1.387 1_565 S
C673 H676 0.950 . S
C674 C673 1.387 1_545 S
C674 C677 1.387 . S
H675 C671 0.950 . S
H676 C673 0.950 . S
C677 C668 1.390 1_545 S
C677 H670 0.950 . S
C677 C674 1.387 . S
C678 C679 1.387 . S
C678 H682 0.950 . S
C678 C687 1.390 . S
C679 C678 1.387 . S
C679 C681 1.387 . S
H680 C687 0.950 . S
C681 C679 1.387 . S
C681 C683 1.390 . S
C681 H685 0.950 . S
H682 C678 0.950 . S
C683 C681 1.390 . S
C683 C684 1.387 . S
C683 H686 0.950 . S
C684 C683 1.387 . S
C684 C687 1.387 . S
H685 C681 0.950 . S
H686 C683 0.950 . S
C687 C678 1.390 . S
C687 H680 0.950 . S
C687 C684 1.387 . S
C688 C689 1.387 . S
C688 H692 0.950 . S
C688 C697 1.390 1_655 S
C689 C688 1.387 . S
C689 C691 1.387 1_655 S
H690 C697 0.950 . S
C691 C689 1.387 1_455 S
C691 C693 1.390 . S
C691 H695 0.950 . S
H692 C688 0.950 . S
C693 C691 1.390 . S
C693 C694 1.387 . S
C693 H696 0.950 . S
C694 C693 1.387 . S
C694 C697 1.387 . S
H695 C691 0.950 . S
H696 C693 0.950 . S
C697 C688 1.390 1_455 S
C697 H690 0.950 . S
C697 C694 1.387 . S
C698 C699 1.387 . S
C698 H702 0.950 . S
C698 C707 1.390 1_545 S
C699 C698 1.387 . S
C699 C701 1.387 . S
H700 C707 0.950 . S
C701 C699 1.387 . S
C701 C703 1.390 . S
C701 H705 0.950 . S
H702 C698 0.950 . S
C703 C701 1.390 . S
C703 C704 1.387 1_545 S
C703 H706 0.950 . S
C704 C703 1.387 1_565 S
C704 C707 1.387 . S
H705 C701 0.950 . S
H706 C703 0.950 . S
C707 C698 1.390 1_565 S
C707 H700 0.950 . S
C707 C704 1.387 . S
C409 C5 1.098 . S
C414 C277 1.101 . S
C419 C311 1.096 . S
C424 C39 1.096 . S
C429 C345 1.096 . S
C434 C73 1.099 . S
C439 C107 1.100 . S
C444 C379 1.097 . S
C449 C141 1.096 . S
C454 C209 1.096 . S
C459 C175 1.099 . S
C464 C243 1.101 . S
C469 C247 1.564 . S
C474 C33 1.592 . S
C479 C67 1.594 . S
C484 C281 1.563 . S
C489 C315 1.563 . S
C494 C101 1.594 . S
C499 C349 1.564 . S
C504 C135 1.594 . S
C509 C383 1.565 . S
C514 C169 1.592 . S
C519 C213 1.563 . S
C524 C203 1.594 . S
C529 C179 1.563 . S
C534 C237 1.594 . S
C539 C271 1.592 . S
C544 C9 1.565 . S
C549 C305 1.594 . S
C554 C43 1.563 . S
C559 C77 1.565 . S
C564 C339 1.592 . S
C569 C111 1.564 . S
C574 C373 1.592 . S
C579 C145 1.565 . S
C584 C407 1.593 . S
C589 C190 1.430 . S
C594 C2 1.404 . S
C599 C20 1.427 . S
C604 C36 1.400 . S
C609 C70 1.404 . S
C614 C54 1.430 . S
C619 C88 1.430 . S
C624 C104 1.403 . S
C629 C122 1.427 . S
C634 C138 1.401 . S
C639 C156 1.429 . S
C644 C172 1.404 . S
C649 C206 1.402 . S
C654 C258 1.429 . S
C659 C240 1.405 . S
C664 C292 1.430 . S
C669 C274 1.401 . S
C674 C326 1.427 . S
C679 C360 1.430 . S
C684 C308 1.404 . S
C689 C394 1.427 . S
C694 C342 1.400 . S
C699 C376 1.401 . S
C704 C224 1.428 . S
