# Generated by pormake.
# Topology uov, (4)-cn, num edge types: 1
# Building blocks:
#     Node 0, Type 0, BuildingBlock: UXUYUI_clean_sbu_0, # of connection points: 4
#     Node 1, Type 0, BuildingBlock: UXUYUI_clean_sbu_0, # of connection points: 4
#     Node 2, Type 0, BuildingBlock: UXUYUI_clean_sbu_0, # of connection points: 4
#     Node 3, Type 0, BuildingBlock: UXUYUI_clean_sbu_0, # of connection points: 4
#     Node 4, Type 0, BuildingBlock: UXUYUI_clean_sbu_0, # of connection points: 4
#     Node 5, Type 0, BuildingBlock: UXUYUI_clean_sbu_0, # of connection points: 4
#     Node 6, Type 0, BuildingBlock: UXUYUI_clean_sbu_0, # of connection points: 4
#     Node 7, Type 0, BuildingBlock: UXUYUI_clean_sbu_0, # of connection points: 4
#     Edge 8, Type (0, 0), BuildingBlock: CIFDUS_clean_linker_0, # of connection points: 2
#     Edge 9, Type (0, 0), BuildingBlock: CIFDUS_clean_linker_0, # of connection points: 2
#     Edge 10, Type (0, 0), BuildingBlock: CIFDUS_clean_linker_0, # of connection points: 2
#     Edge 11, Type (0, 0), BuildingBlock: CIFDUS_clean_linker_0, # of connection points: 2
#     Edge 12, Type (0, 0), BuildingBlock: CIFDUS_clean_linker_0, # of connection points: 2
#     Edge 13, Type (0, 0), BuildingBlock: CIFDUS_clean_linker_0, # of connection points: 2
#     Edge 14, Type (0, 0), BuildingBlock: CIFDUS_clean_linker_0, # of connection points: 2
#     Edge 15, Type (0, 0), BuildingBlock: CIFDUS_clean_linker_0, # of connection points: 2
#     Edge 16, Type (0, 0), BuildingBlock: CIFDUS_clean_linker_0, # of connection points: 2
#     Edge 17, Type (0, 0), BuildingBlock: CIFDUS_clean_linker_0, # of connection points: 2
#     Edge 18, Type (0, 0), BuildingBlock: CIFDUS_clean_linker_0, # of connection points: 2
#     Edge 19, Type (0, 0), BuildingBlock: CIFDUS_clean_linker_0, # of connection points: 2
#     Edge 20, Type (0, 0), BuildingBlock: CIFDUS_clean_linker_0, # of connection points: 2
#     Edge 21, Type (0, 0), BuildingBlock: CIFDUS_clean_linker_0, # of connection points: 2
#     Edge 22, Type (0, 0), BuildingBlock: CIFDUS_clean_linker_0, # of connection points: 2
#     Edge 23, Type (0, 0), BuildingBlock: CIFDUS_clean_linker_0, # of connection points: 2
# Relax obj value: 0.339
# Max RMSD: 0.266
# Mean RMSD: 0.265
data_MOF--net-uov--node1-UXUYUI_clean_sbu_0--edge1-CIFDUS_clean_linker_0
_symmetry_space_group_name_H-M    P1
_symmetry_Int_Tables_number       1
_symmetry_cell_setting            triclinic
loop_
_symmetry_equiv_pos_as_xyz
'x, y, z'
_cell_length_a     40.029593
_cell_length_b     40.105011
_cell_length_c     57.074513
_cell_angle_alpha  90.028697
_cell_angle_beta   89.965398
_cell_angle_gamma 90.230964
loop_
_atom_site_label
_atom_site_type_symbol
_atom_site_fract_x
_atom_site_fract_y
_atom_site_fract_z
_atom_type_partial_charge
Li0 Li 0.04684 0.23179 0.62079 0.0
Li1 Li 0.03057 0.28576 0.60488 0.0
Li2 Li 0.99686 0.23606 0.59791 0.0
Li3 Li 0.05118 0.24344 0.57884 0.0
C4 C 0.97551 0.25845 0.63767 0.0
N5 N 0.91091 0.25842 0.65468 0.0
C6 C 0.95599 0.28715 0.63595 0.0
C7 C 0.9623 0.2298 0.64815 0.0
C8 C 0.92335 0.28662 0.64464 0.0
C9 C 0.92955 0.23027 0.65659 0.0
C10 C 0.09633 0.28999 0.61142 0.0
C11 C 0.12585 0.3412 0.60319 0.0
N12 N 0.13696 0.342 0.6257 0.0
C13 C 0.10818 0.2912 0.63444 0.0
C14 C 0.10538 0.31505 0.59561 0.0
C15 C 0.12867 0.31774 0.64133 0.0
C16 C 0.09859 0.19581 0.64212 0.0
N17 N 0.06879 0.21084 0.64619 0.0
C18 C 0.0729 0.19937 0.68711 0.0
C19 C 0.05571 0.21287 0.66809 0.0
C20 C 0.10374 0.18341 0.68349 0.0
C21 C 0.11633 0.18147 0.66052 0.0
H22 H 0.10873 0.19529 0.62456 0.0
H23 H 0.03231 0.22564 0.67086 0.0
C24 C 0.01192 0.35091 0.59446 0.0
N25 N 0.02772 0.33202 0.61075 0.0
C26 C 0.00721 0.38483 0.5983 0.0
C27 C 0.03524 0.37936 0.63564 0.0
C28 C 0.03902 0.34533 0.63119 0.0
C29 C 0.01888 0.39937 0.61912 0.0
H30 H 0.0024 0.33953 0.57866 0.0
H31 H 0.05049 0.32947 0.64417 0.0
C32 C 0.04468 0.17264 0.6002 0.0
N33 N 0.07055 0.11179 0.61355 0.0
C34 C 0.07288 0.15988 0.58891 0.0
C35 C 0.02951 0.15436 0.61816 0.0
C36 C 0.08559 0.12907 0.59594 0.0
C37 C 0.04303 0.12368 0.6247 0.0
C38 C 0.00943 0.2766 0.55183 0.0
C39 C 0.98729 0.25856 0.5377 0.0
C40 C 0.03114 0.29978 0.5416 0.0
C41 C 0.9874 0.26389 0.51351 0.0
C42 C 0.03053 0.30435 0.51734 0.0
N43 N 0.00886 0.28645 0.50391 0.0
C44 C 0.92942 0.24372 0.58591 0.0
C45 C 0.94651 0.18758 0.5906 0.0
C46 C 0.89883 0.23341 0.57662 0.0
N47 N 0.95277 0.22082 0.59203 0.0
C48 C 0.91618 0.17615 0.58155 0.0
C49 C 0.89237 0.19922 0.57365 0.0
H50 H 0.93539 0.27002 0.58686 0.0
H51 H 0.96577 0.16996 0.59514 0.0
C52 C 0.10823 0.24282 0.54921 0.0
N53 N 0.07563 0.2337 0.55135 0.0
C54 C 0.12697 0.23175 0.53008 0.0
C55 C 0.07775 0.20349 0.51538 0.0
C56 C 0.06019 0.21458 0.53492 0.0
C57 C 0.11176 0.21144 0.51308 0.0
H58 H 0.12 0.2575 0.5628 0.0
H59 H 0.03457 0.2068 0.53753 0.0
O60 O 0.00726 0.25824 0.62885 0.0
O61 O 0.07609 0.26434 0.60437 0.0
O62 O 0.03203 0.20291 0.59374 0.0
O63 O 0.01003 0.27147 0.57553 0.0
H64 H 0.9658 0.3095 0.62783 0.0
H65 H 0.9771 0.20738 0.64956 0.0
H66 H 0.90789 0.3086 0.64335 0.0
H67 H 0.91892 0.20823 0.66464 0.0
H68 H 0.1329 0.36086 0.59118 0.0
H69 H 0.10144 0.27204 0.64692 0.0
H70 H 0.09656 0.31439 0.57771 0.0
H71 H 0.1379 0.31908 0.65911 0.0
H72 H 0.06248 0.2022 0.7045 0.0
H73 H 0.1397 0.16909 0.65674 0.0
H74 H 0.99462 0.39957 0.58511 0.0
H75 H 0.04422 0.38973 0.652 0.0
H76 H 0.08501 0.17369 0.57502 0.0
H77 H 0.00777 0.16394 0.62715 0.0
H78 H 0.10748 0.11896 0.58742 0.0
H79 H 0.03168 0.10937 0.63868 0.0
H80 H 0.97052 0.24029 0.54524 0.0
H81 H 0.04842 0.31395 0.55227 0.0
H82 H 0.97053 0.24998 0.50235 0.0
H83 H 0.0473 0.3221 0.50919 0.0
H84 H 0.88108 0.25196 0.57082 0.0
H85 H 0.91243 0.14959 0.57923 0.0
H86 H 0.15325 0.23808 0.52895 0.0
H87 H 0.06539 0.18719 0.50294 0.0
Li88 Li 0.23565 0.97867 0.40066 0.0
Li89 Li 0.28496 0.94514 0.38619 0.0
Li90 Li 0.23119 0.93688 0.37111 0.0
Li91 Li 0.24105 0.91663 0.40953 0.0
C92 C 0.25393 0.987 0.34678 0.0
N93 N 0.2447 0.00144 0.29992 0.0
C94 C 0.27345 0.97127 0.32977 0.0
C95 C 0.22987 0.01022 0.33999 0.0
C96 C 0.26834 0.97886 0.30616 0.0
C97 C 0.22556 0.01716 0.3162 0.0
C98 C 0.28805 0.96342 0.43796 0.0
C99 C 0.31538 0.95014 0.47444 0.0
N100 N 0.32333 0.98288 0.47732 0.0
C101 C 0.29634 -0.00303 0.44138 0.0
C102 C 0.29748 0.93982 0.4547 0.0
C103 C 0.31424 0.0063 0.46135 0.0
C104 C 0.21251 0.01519 0.43775 0.0
N105 N 0.22289 0.01869 0.41524 0.0
C106 C 0.21806 0.07794 0.41771 0.0
C107 C 0.22593 0.04918 0.40502 0.0
C108 C 0.20785 0.07498 0.44115 0.0
C109 C 0.20501 0.04316 0.45115 0.0
H110 H 0.21071 0.99057 0.44539 0.0
H111 H 0.23497 0.05119 0.38723 0.0
C112 C 0.34883 0.92829 0.36679 0.0
N113 N 0.33141 0.94988 0.38048 0.0
C114 C 0.38303 0.93315 0.3631 0.0
C115 C 0.38027 0.98279 0.38707 0.0
C116 C 0.34626 0.97702 0.39021 0.0
C117 C 0.39919 0.96068 0.37341 0.0
H118 H 0.3362 0.90739 0.35868 0.0
H119 H 0.3316 0.99432 0.40033 0.0
C120 C 0.17183 0.92968 0.39302 0.0
N121 N 0.1108 0.9031 0.38019 0.0
C122 C 0.16864 0.89548 0.38885 0.0
C123 C 0.14401 0.95036 0.39084 0.0
C124 C 0.13757 0.88252 0.38232 0.0
C125 C 0.11335 0.93643 0.3843 0.0
C126 C 0.28437 0.87554 0.38567 0.0
C127 C 0.28268 0.84516 0.3737 0.0
C128 C 0.30763 0.87962 0.4037 0.0
C129 C 0.30434 0.81942 0.37994 0.0
C130 C 0.32888 0.85332 0.40941 0.0
N131 N 0.32681 0.824 0.39752 0.0
C132 C 0.21831 0.89948 0.3308 0.0
C133 C 0.18066 0.94437 0.33579 0.0
C134 C 0.20179 0.88939 0.31051 0.0
N135 N 0.20743 0.92634 0.34305 0.0
C136 C 0.16349 0.9353 0.31544 0.0
C137 C 0.17392 0.90733 0.30255 0.0
H138 H 0.23973 0.88572 0.33689 0.0
H139 H 0.17265 0.9658 0.34578 0.0
C140 C 0.21775 0.90177 0.4534 0.0
N141 N 0.22992 0.88661 0.43394 0.0
C142 C 0.20543 0.88288 0.47198 0.0
C143 C 0.21902 0.83287 0.45037 0.0
C144 C 0.23102 0.85283 0.4321 0.0
C145 C 0.2055 0.84791 0.47053 0.0
H146 H 0.21674 0.92869 0.45415 0.0
H147 H 0.24024 0.84135 0.41626 0.0
O148 O 0.25818 0.97942 0.36992 0.0
O149 O 0.26982 0.95389 0.41876 0.0
O150 O 0.20214 0.9429 0.39904 0.0
O151 O 0.26283 0.90069 0.37988 0.0
H152 H 0.29208 0.95313 0.33476 0.0
H153 H 0.21429 0.02233 0.35292 0.0
H154 H 0.28312 0.96674 0.29279 0.0
H155 H 0.20687 0.0349 0.31068 0.0
H156 H 0.32287 0.93211 0.4875 0.0
H157 H 0.28914 0.01565 0.4287 0.0
H158 H 0.291 0.91378 0.45257 0.0
H159 H 0.32089 0.03216 0.46416 0.0
H160 H 0.22055 0.10218 0.40952 0.0
H161 H 0.19681 0.03995 0.46911 0.0
H162 H 0.39656 0.91579 0.35213 0.0
H163 H 0.39167 0.00414 0.39556 0.0
H164 H 0.19004 0.87921 0.39035 0.0
H165 H 0.14617 0.9769 0.39401 0.0
H166 H 0.13475 0.85613 0.3789 0.0
H167 H 0.0916 0.95212 0.38244 0.0
H168 H 0.26465 0.84137 0.35983 0.0
H169 H 0.3096 0.90291 0.41302 0.0
H170 H 0.30324 0.79578 0.37083 0.0
H171 H 0.34707 0.85625 0.42329 0.0
H172 H 0.21045 0.86734 0.30144 0.0
H173 H 0.14243 0.95014 0.30983 0.0
H174 H 0.1946 0.89566 0.48686 0.0
H175 H 0.21969 0.80601 0.44854 0.0
Li176 Li 0.94394 0.75822 0.63022 0.0
Li177 Li 0.95913 0.70484 0.61101 0.0
Li178 Li 0.99274 0.75315 0.60549 0.0
Li179 Li 0.9385 0.75052 0.58717 0.0
C180 C 0.01461 0.73243 0.64536 0.0
N181 N 0.07835 0.73886 0.66335 0.0
C182 C 0.03798 0.70709 0.64198 0.0
C183 C 0.0235 0.76087 0.65809 0.0
C184 C 0.07012 0.71085 0.65116 0.0
C185 C 0.0559 0.7637 0.66699 0.0
C186 C 0.89027 0.70606 0.60288 0.0
C187 C 0.87263 0.66725 0.57301 0.0
N188 N 0.8424 0.6644 0.58373 0.0
C189 C 0.85903 0.70279 0.61358 0.0
C190 C 0.89717 0.68819 0.5824 0.0
C191 C 0.83516 0.68159 0.60363 0.0
C192 C 0.89951 0.80213 0.65142 0.0
N193 N 0.92276 0.77844 0.65601 0.0
C194 C 0.91223 0.7824 0.69707 0.0
C195 C 0.92952 0.76844 0.67823 0.0
C196 C 0.8878 0.80682 0.69291 0.0
C197 C 0.88174 0.81683 0.66971 0.0
H198 H 0.89467 0.8094 0.6335 0.0
H199 H 0.94794 0.74926 0.68124 0.0
C200 C 0.98681 0.64261 0.60446 0.0
N201 N 0.96058 0.65837 0.61462 0.0
C202 C 0.99043 0.60828 0.60685 0.0
C203 C 0.9396 0.60698 0.62984 0.0
C204 C 0.93717 0.6415 0.62722 0.0
C205 C 0.96663 0.59008 0.61967 0.0
H206 H 0.00503 0.65686 0.59462 0.0
H207 H 0.91676 0.65486 0.63528 0.0
C208 C 0.96502 0.82101 0.60557 0.0
N209 N 0.9783 0.88867 0.60706 0.0
C210 C 0.9641 0.84 0.58503 0.0
C211 C 0.97231 0.83656 0.62691 0.0
C212 C 0.971 0.87413 0.58614 0.0
C213 C 0.97906 0.87076 0.62728 0.0
C214 C 0.99057 0.72696 0.5594 0.0
C215 C 0.99704 0.75954 0.55195 0.0
C216 C -0.0018 0.70022 0.54467 0.0
C217 C 0.01111 0.76485 0.52986 0.0
C218 C 0.01219 0.70654 0.52267 0.0
N219 N 0.01832 0.73846 0.51579 0.0
C220 C 0.05767 0.74234 0.59005 0.0
C221 C 0.04843 0.79874 0.60047 0.0
C222 C 0.08782 0.7507 0.57928 0.0
N223 N 0.03796 0.76649 0.59939 0.0
C224 C 0.07851 0.80822 0.58997 0.0
C225 C 0.09782 0.78424 0.57826 0.0
H226 H 0.04883 0.71683 0.58951 0.0
H227 H 0.0327 0.81751 0.60816 0.0
C228 C 0.8941 0.79321 0.56776 0.0
N229 N 0.91263 0.76625 0.56182 0.0
C230 C 0.87955 0.81271 0.55045 0.0
C231 C 0.90086 0.77463 0.5212 0.0
C232 C 0.9152 0.7558 0.5392 0.0
C233 C 0.88403 0.80422 0.52682 0.0
H234 H 0.89247 0.80076 0.58592 0.0
H235 H 0.92985 0.73404 0.53497 0.0
O236 O 0.9833 0.72959 0.63601 0.0
O237 O 0.91391 0.72657 0.61257 0.0
O238 O 0.95782 0.78763 0.60488 0.0
O239 O 0.97733 0.72098 0.58112 0.0
H240 H 0.03147 0.6849 0.63219 0.0
H241 H 0.00563 0.78056 0.66101 0.0
H242 H 0.08854 0.69153 0.64856 0.0
H243 H 0.06319 0.78565 0.67678 0.0
H244 H 0.87763 0.65324 0.5572 0.0
H245 H 0.85334 0.71646 0.62945 0.0
H246 H 0.92118 0.69032 0.57386 0.0
H247 H 0.81088 0.67879 0.61175 0.0
H248 H 0.91738 0.77359 0.71462 0.0
H249 H 0.8635 0.83586 0.66571 0.0
H250 H 0.01136 0.59603 0.59849 0.0
H251 H 0.92087 0.59371 0.63992 0.0
H252 H 0.95803 0.82859 0.56839 0.0
H253 H 0.97283 0.82242 0.643 0.0
H254 H 0.97046 0.88907 0.57038 0.0
H255 H 0.98486 0.88306 0.64366 0.0
H256 H 0.99154 0.78045 0.56318 0.0
H257 H 0.99337 0.67483 0.55019 0.0
H258 H 0.01635 0.78994 0.52393 0.0
H259 H 0.01821 0.68608 0.51108 0.0
H260 H 0.10224 0.7314 0.57073 0.0
H261 H 0.08525 0.8344 0.58953 0.0
H262 H 0.86627 0.8351 0.55543 0.0
H263 H 0.90468 0.76734 0.50312 0.0
Li264 Li 0.75642 0.05467 0.36504 0.0
Li265 Li 0.74597 0.06816 0.407 0.0
Li266 Li 0.75297 0.01231 0.39451 0.0
Li267 Li 0.70262 0.0396 0.38462 0.0
C268 C 0.81505 0.03093 0.39431 0.0
N269 N 0.87165 0.99227 0.39911 0.0
C270 C 0.83406 0.03265 0.41481 0.0
C271 C 0.82504 0.00976 0.37616 0.0
C272 C 0.86251 0.01282 0.41694 0.0
C273 C 0.8537 0.99041 0.37892 0.0
C274 C 0.72841 0.1177 0.37394 0.0
C275 C 0.71047 0.1731 0.36364 0.0
N276 N 0.74284 0.18356 0.36385 0.0
C277 C 0.76152 0.12898 0.37407 0.0
C278 C 0.70268 0.13988 0.36867 0.0
C279 C 0.76828 0.16237 0.36891 0.0
C280 C 0.75475 0.07977 0.31913 0.0
N281 N 0.77554 0.07053 0.33674 0.0
C282 C 0.82326 0.0873 0.31451 0.0
C283 C 0.80918 0.07422 0.33489 0.0
C284 C 0.80248 0.0975 0.29601 0.0
C285 C 0.76772 0.09352 0.29855 0.0
H286 H 0.72802 0.07708 0.32131 0.0
H287 H 0.82514 0.06751 0.34937 0.0
C288 C 0.77116 0.08199 0.45052 0.0
N289 N 0.7553 0.09735 0.43252 0.0
C290 C 0.78256 0.10033 0.46965 0.0
C291 C 0.75899 0.14985 0.45224 0.0
C292 C 0.74808 0.13045 0.43333 0.0
C293 C 0.7772 0.13491 0.47049 0.0
H294 H 0.77573 0.05547 0.44966 0.0
H295 H 0.7344 0.14201 0.41924 0.0
C296 C 0.73017 0.98127 0.35475 0.0
N297 N 0.72863 0.91726 0.33695 0.0
C298 C 0.70953 0.95715 0.36496 0.0
C299 C 0.74985 0.97297 0.33539 0.0
C300 C 0.70917 0.92488 0.35574 0.0
C301 C 0.74875 0.94043 0.32667 0.0
C302 C 0.69575 0.0392 0.43252 0.0
C303 C 0.68907 0.01938 0.45211 0.0
C304 C 0.67868 0.06928 0.42959 0.0
C305 C 0.66539 0.02996 0.46847 0.0
C306 C 0.65519 0.07898 0.44634 0.0
N307 N 0.64908 0.05929 0.46527 0.0
C308 C 0.77241 0.9723 0.43019 0.0
C309 C 0.78282 0.94505 0.39407 0.0
C310 C 0.78662 0.9461 0.44251 0.0
N311 N 0.77087 0.97152 0.40644 0.0
C312 C 0.79721 0.91801 0.40579 0.0
C313 C 0.79964 0.91871 0.43032 0.0
H314 H 0.76326 0.9938 0.43959 0.0
H315 H 0.78228 0.94524 0.37517 0.0
C316 C 0.63966 0.05211 0.36388 0.0
N317 N 0.65637 0.03354 0.37992 0.0
C318 C 0.60555 0.04675 0.36017 0.0
C319 C 0.60678 0.00343 0.38963 0.0
C320 C 0.64075 0.00954 0.39269 0.0
C321 C 0.58872 0.02203 0.37312 0.0
H322 H 0.65291 0.07088 0.35388 0.0
H323 H 0.65473 0.99507 0.40526 0.0
O324 O 0.78661 0.0495 0.39207 0.0
O325 O 0.72104 0.08509 0.37874 0.0
O326 O 0.73072 0.01306 0.36333 0.0
O327 O 0.71906 0.02904 0.41648 0.0
H328 H 0.82703 0.04914 0.42893 0.0
H329 H 0.81046 0.00788 0.36025 0.0
H330 H 0.87736 0.0138 0.43276 0.0
H331 H 0.86154 0.97373 0.36509 0.0
H332 H 0.69079 0.19056 0.35955 0.0
H333 H 0.78176 0.11224 0.37823 0.0
H334 H 0.67693 0.13149 0.3685 0.0
H335 H 0.79376 0.17146 0.36895 0.0
H336 H 0.85018 0.08935 0.31333 0.0
H337 H 0.75061 0.10158 0.28503 0.0
H338 H 0.7967 0.08767 0.48312 0.0
H339 H 0.75371 0.17631 0.45238 0.0
H340 H 0.69427 0.96318 0.38 0.0
H341 H 0.76581 0.99149 0.32723 0.0
H342 H 0.69347 0.90588 0.36354 0.0
H343 H 0.7639 0.93359 0.31173 0.0
H344 H 0.70204 0.99603 0.45464 0.0
H345 H 0.6834 0.08504 0.41461 0.0
H346 H 0.65998 0.01485 0.48371 0.0
H347 H 0.64181 0.10218 0.44429 0.0
H348 H 0.78768 0.94743 0.46146 0.0
H349 H 0.80731 0.89741 0.3958 0.0
H350 H 0.59263 0.06146 0.34713 0.0
H351 H 0.59473 0.98458 0.40031 0.0
Li352 Li 0.93463 0.24813 0.08302 0.0
Li353 Li 0.9463 0.23848 0.12495 0.0
Li354 Li 0.95824 0.29287 0.10727 0.0
Li355 Li 0.99323 0.24578 0.09781 0.0
C356 C 0.88877 0.29183 0.10406 0.0
N357 N 0.83871 0.33508 0.09075 0.0
C358 C 0.86255 0.29892 0.11942 0.0
C359 C 0.88953 0.30671 0.08193 0.0
C360 C 0.83747 0.32086 0.11237 0.0
C361 C 0.864 0.32851 0.07553 0.0
C362 C 0.96033 0.17708 0.10024 0.0
C363 C 0.9882 0.12827 0.11507 0.0
N364 N 0.96399 0.10872 0.10543 0.0
C365 C 0.93591 0.15652 0.09026 0.0
C366 C 0.98687 0.16287 0.11255 0.0
C367 C 0.93813 0.12201 0.09317 0.0
C368 C 0.92566 0.23108 0.03669 0.0
N369 N 0.90858 0.23524 0.05702 0.0
C370 C 0.85842 0.21483 0.03943 0.0
C371 C 0.8755 0.2279 0.05874 0.0
C372 C 0.87577 0.20915 0.01838 0.0
C373 C 0.90963 0.21822 0.017 0.0
H374 H 0.95209 0.23671 0.03604 0.0
H375 H 0.86274 0.23107 0.0753 0.0
C376 C 0.93115 0.23457 0.17271 0.0
N377 N 0.92965 0.21713 0.15232 0.0
C378 C 0.91782 0.22113 0.19327 0.0
C379 C 0.90199 0.17185 0.1715 0.0
C380 C 0.91519 0.18645 0.15133 0.0
C381 C 0.90291 0.1893 0.19287 0.0
H382 H 0.9423 0.25919 0.17288 0.0
H383 H 0.91341 0.1734 0.13487 0.0
C384 C 0.99347 0.2998 0.0646 0.0
N385 N 0.03439 0.34561 0.04244 0.0
C386 C 0.01941 0.31528 0.07689 0.0
C387 C 0.98815 0.30781 0.04108 0.0
C388 C 0.03987 0.33832 0.06538 0.0
C389 C 0.00918 0.33096 0.03016 0.0
C390 C 0.0136 0.26132 0.14304 0.0
C391 C 0.03773 0.28623 0.14619 0.0
C392 C 0.01687 0.23098 0.15482 0.0
C393 C 0.06511 0.28008 0.16069 0.0
C394 C 0.0446 0.22579 0.1692 0.0
N395 N 0.06797 0.25023 0.17179 0.0
C396 C 0.9732 0.35062 0.13291 0.0
C397 C 0.9559 0.36024 0.09375 0.0
C398 C 0.98369 0.38372 0.13513 0.0
N399 N 0.96078 0.33941 0.11218 0.0
C400 C 0.96623 0.39336 0.09513 0.0
C401 C 0.98149 0.40502 0.11571 0.0
H402 H 0.9769 0.33337 0.14722 0.0
H403 H 0.94625 0.35064 0.0774 0.0
C404 C 0.0356 0.20503 0.07253 0.0
N405 N 0.0362 0.23145 0.08745 0.0
C406 C 0.06458 0.19496 0.06109 0.0
C407 C 0.09452 0.23986 0.08013 0.0
C408 C 0.06502 0.24855 0.09175 0.0
C409 C 0.09427 0.21294 0.06446 0.0
H410 H 0.01224 0.19261 0.06869 0.0
H411 H 0.06493 0.26986 0.10327 0.0
O412 O 0.91342 0.27034 0.11078 0.0
O413 O 0.95856 0.2109 0.09746 0.0
O414 O 0.97239 0.27804 0.07575 0.0
O415 O 0.98647 0.26709 0.12906 0.0
H416 H 0.86161 0.28756 0.13662 0.0
H417 H 0.90961 0.30155 0.06979 0.0
H418 H 0.81701 0.32657 0.12408 0.0
H419 H 0.86429 0.34022 0.05846 0.0
H420 H 0.00857 0.11694 0.12458 0.0
H421 H 0.91537 0.16715 0.0805 0.0
H422 H 0.00646 0.17834 0.11981 0.0
H423 H 0.91931 0.10579 0.08567 0.0
H424 H 0.83243 0.20773 0.04132 0.0
H425 H 0.92383 0.21449 0.00106 0.0
H426 H 0.91859 0.23586 0.20916 0.0
H427 H 0.8912 0.14711 0.1703 0.0
H428 H 0.02318 0.3101 0.09527 0.0
H429 H 0.9678 0.29652 0.0314 0.0
H430 H 0.05995 0.35059 0.07474 0.0
H431 H 0.00534 0.33741 0.01196 0.0
H432 H 0.03547 0.31002 0.13742 0.0
H433 H -0.00189 0.21171 0.15306 0.0
H434 H 0.08407 0.29906 0.16314 0.0
H435 H 0.04747 0.20238 0.17837 0.0
H436 H 0.99536 0.39191 0.15126 0.0
H437 H 0.96374 0.40927 0.07991 0.0
H438 H 0.0634 0.17447 0.04873 0.0
H439 H 0.11702 0.25442 0.08291 0.0
Li440 Li 0.24642 0.06814 0.90799 0.0
Li441 Li 0.23338 0.01368 0.89204 0.0
Li442 Li 0.28614 0.03854 0.88321 0.0
Li443 Li 0.23384 0.06065 0.8655 0.0
C444 C 0.26505 0.01536 0.93694 0.0
N445 N 0.25594 0.99569 0.9829 0.0
C446 C 0.23299 0.01423 0.94659 0.0
C447 C 0.29251 0.00644 0.95065 0.0
C448 C 0.22888 0.00422 0.96985 0.0
C449 C 0.28739 -0.00342 0.97386 0.0
C450 C 0.17089 0.05073 0.89451 0.0
C451 C 0.11687 0.04202 0.87671 0.0
N452 N 0.10213 0.04592 0.898 0.0
C453 C 0.15512 0.05502 0.91618 0.0
C454 C 0.15155 0.04451 0.87457 0.0
C455 C 0.12038 0.05233 0.91759 0.0
C456 C 0.21317 0.11874 0.93182 0.0
N457 N 0.23919 0.09728 0.93382 0.0
C458 C 0.24533 0.11053 0.97441 0.0
C459 C 0.2563 0.09407 0.95428 0.0
C460 C 0.21709 0.13107 0.97319 0.0
C461 C 0.20173 0.13615 0.95139 0.0
H462 H 0.20009 0.1208 0.9153 0.0
H463 H 0.27739 0.07746 0.95535 0.0
C464 C 0.22988 0.94976 0.9128 0.0
N465 N 0.21234 0.97178 0.89956 0.0
C466 C 0.21368 0.92288 0.92345 0.0
C467 C 0.16277 0.93908 0.90391 0.0
C468 C 0.17994 0.96576 0.89382 0.0
C469 C 0.17924 0.91834 0.91996 0.0
H470 H 0.25604 0.95421 0.91633 0.0
H471 H 0.16695 0.98227 0.88216 0.0
C472 C 0.29602 0.10764 0.88844 0.0
N473 N 0.34537 0.15035 0.90433 0.0
C474 C 0.30125 0.13831 0.87742 0.0
C475 C 0.31586 0.09868 0.90757 0.0
C476 C 0.32634 0.15957 0.88571 0.0
C477 C 0.34068 0.12062 0.91533 0.0
C478 C 0.24645 0.98606 0.85243 0.0
C479 C 0.26631 0.95838 0.8574 0.0
C480 C 0.21697 0.98198 0.83963 0.0
C481 C 0.25614 0.92691 0.84963 0.0
C482 C 0.20767 0.9501 0.83216 0.0
N483 N 0.22727 0.92345 0.83729 0.0
C484 C 0.34369 0.00183 0.88929 0.0
C485 C 0.35158 0.04901 0.86483 0.0
C486 C 0.37729 0.99348 0.8873 0.0
N487 N 0.33168 0.02927 0.87829 0.0
C488 C 0.38553 0.04173 0.86249 0.0
C489 C 0.39884 0.01379 0.87402 0.0
H490 H 0.32708 0.98653 0.89973 0.0
H491 H 0.34121 0.07064 0.85623 0.0
C492 C 0.18946 0.10372 0.84273 0.0
N493 N 0.21379 0.08074 0.83917 0.0
C494 C 0.172 0.11686 0.82374 0.0
C495 C 0.20635 0.08385 0.79774 0.0
C496 C 0.22279 0.07093 0.81727 0.0
C497 C 0.18026 0.1067 0.80094 0.0
H498 H 0.18304 0.11114 0.86039 0.0
H499 H 0.24228 0.05258 0.81505 0.0
O500 O 0.26981 0.02539 0.91426 0.0
O501 O 0.20488 0.05396 0.89269 0.0
O502 O 0.27151 0.08664 0.88048 0.0
O503 O 0.25551 0.01691 0.86045 0.0
H504 H 0.21153 0.02074 0.93617 0.0
H505 H 0.31753 0.0073 0.94346 0.0
H506 H 0.20417 0.00319 0.97751 0.0
H507 H 0.30841 0.98968 0.9847 0.0
H508 H 0.10168 0.03692 0.86144 0.0
H509 H 0.16946 0.06057 0.93176 0.0
H510 H 0.1632 0.04102 0.85766 0.0
H511 H 0.10791 0.05548 0.93426 0.0
H512 H 0.25791 0.10625 0.99093 0.0
H513 H 0.1797 0.15159 0.94983 0.0
H514 H 0.22747 0.90737 0.93555 0.0
H515 H 0.13646 0.93575 0.90011 0.0
H516 H 0.28606 0.1456 0.8626 0.0
H517 H 0.31227 0.07504 0.91631 0.0
H518 H 0.33067 0.18339 0.87734 0.0
H519 H 0.35624 0.11399 0.93009 0.0
H520 H 0.28913 0.96114 0.86737 0.0
H521 H 0.2013 0.00316 0.83569 0.0
H522 H 0.27114 0.90521 0.85347 0.0
H523 H 0.18483 0.94652 0.82234 0.0
H524 H 0.38629 0.97137 0.89611 0.0
H525 H 0.40129 0.05822 0.85227 0.0
H526 H 0.15222 0.13469 0.82682 0.0
H527 H 0.21327 0.07539 0.78038 0.0
Li528 Li 0.00236 0.7526 0.10268 0.0
Li529 Li 0.04211 0.70821 0.11002 0.0
Li530 Li 0.05175 0.76406 0.12504 0.0
Li531 Li 0.05704 0.75197 0.08324 0.0
C532 C 0.9846 0.72935 0.14324 0.0
N533 N 0.92116 0.72209 0.16165 0.0
C534 C 0.96883 0.69819 0.14298 0.0
C535 C 0.9682 0.75677 0.15296 0.0
C536 C 0.93673 0.69504 0.15237 0.0
C537 C 0.93609 0.7526 0.16214 0.0
C538 C 0.01904 0.71307 0.0569 0.0
C539 C 0.04426 0.69051 0.02193 0.0
N540 N 0.01825 0.70221 0.00906 0.0
C541 C 0.99254 0.72485 0.0433 0.0
C542 C 0.04509 0.6957 0.04612 0.0
C543 C 0.9926 0.7191 0.01916 0.0
C544 C 0.94799 0.79377 0.09192 0.0
N545 N 0.95687 0.76185 0.09667 0.0
C546 C 0.90462 0.74142 0.08237 0.0
C547 C 0.9356 0.73591 0.09284 0.0
C548 C 0.89574 0.7739 0.07567 0.0
C549 C 0.91726 0.80043 0.08148 0.0
H550 H 0.96572 0.81378 0.0946 0.0
H551 H 0.94376 0.71069 0.09621 0.0
C552 C 0.04967 0.65045 0.13857 0.0
N553 N 0.04439 0.662 0.11648 0.0
C554 C 0.04647 0.61639 0.14339 0.0
C555 C 0.03311 0.6071 0.10259 0.0
C556 C 0.03652 0.6411 0.09861 0.0
C557 C 0.03765 0.59432 0.12526 0.0
H558 H 0.0551 0.66781 0.15258 0.0
H559 H 0.03137 0.65095 0.08145 0.0
C560 C 0.04184 0.82177 0.10372 0.0
N561 N 0.05995 0.88596 0.11606 0.0
C562 C 0.06878 0.83743 0.09261 0.0
C563 C 0.02394 0.83883 0.12097 0.0
C564 C 0.07756 0.86989 0.09912 0.0
C565 C 0.03356 0.87123 0.12702 0.0
C566 C 0.10624 0.7112 0.11684 0.0
C567 C 0.11417 0.70954 0.14065 0.0
C568 C 0.11991 0.68806 0.10127 0.0
C569 C 0.13555 0.68449 0.14854 0.0
C570 C 0.14114 0.66336 0.10986 0.0
N571 N 0.14845 0.6621 0.13312 0.0
C572 C 0.05771 0.78869 0.17151 0.0
C573 C 0.0997 0.80629 0.1449 0.0
C574 C 0.07329 0.80595 0.18977 0.0
N575 N 0.07116 0.78916 0.14966 0.0
C576 C 0.11583 0.82426 0.16251 0.0
C577 C 0.10291 0.82394 0.18542 0.0
H578 H 0.03532 0.7743 0.17487 0.0
H579 H 0.11009 0.80571 0.12741 0.0
C580 C 0.05947 0.77974 0.03885 0.0
N581 N 0.0789 0.76481 0.05522 0.0
C582 C 0.07358 0.79224 0.01838 0.0
C583 C 0.1278 0.77461 0.03219 0.0
C584 C 0.11241 0.76161 0.05224 0.0
C585 C 0.10835 0.79074 0.01509 0.0
H586 H 0.033 0.7826 0.04197 0.0
H587 H 0.1273 0.75009 0.06578 0.0
O588 O 0.01582 0.73307 0.13385 0.0
O589 O 0.01961 0.71869 0.08058 0.0
O590 O 0.0331 0.78985 0.09782 0.0
O591 O 0.08486 0.73511 0.10884 0.0
H592 H 0.98105 0.67674 0.1354 0.0
H593 H 0.98003 0.78106 0.15324 0.0
H594 H 0.92416 0.67112 0.1522 0.0
H595 H 0.92304 0.77364 0.16962 0.0
H596 H 0.06435 0.67726 0.01337 0.0
H597 H 0.97231 0.73864 0.05119 0.0
H598 H 0.06595 0.68666 0.0563 0.0
H599 H 0.9723 0.72818 0.00844 0.0
H600 H 0.8887 0.72031 0.07826 0.0
H601 H 0.91172 0.82577 0.07628 0.0
H602 H 0.05014 0.60754 0.16112 0.0
H603 H 0.02537 0.59125 0.0882 0.0
H604 H 0.08296 0.82461 0.07925 0.0
H605 H 0.00305 0.82706 0.12975 0.0
H606 H 0.09845 0.88226 0.09074 0.0
H607 H 0.02007 0.88466 0.14045 0.0
H608 H 0.10368 0.72718 0.15294 0.0
H609 H 0.11404 0.68906 0.08279 0.0
H610 H 0.14179 0.68279 0.16694 0.0
H611 H 0.15179 0.64518 0.09804 0.0
H612 H 0.06275 0.80437 0.2072 0.0
H613 H 0.13831 0.83806 0.1582 0.0
H614 H 0.0574 0.80375 0.00555 0.0
H615 H 0.15471 0.77326 0.03064 0.0
Li616 Li 0.75801 0.97568 0.90223 0.0
Li617 Li 0.74737 0.9207 0.91855 0.0
Li618 Li 0.75644 0.9295 0.87481 0.0
Li619 Li 0.70629 0.95027 0.8954 0.0
C620 C 0.82142 0.94102 0.89913 0.0
N621 N 0.88977 0.94898 0.89455 0.0
C622 C 0.84239 0.93609 0.9184 0.0
C623 C 0.83534 0.94955 0.87745 0.0
C624 C 0.87684 0.9404 0.91576 0.0
C625 C 0.8699 0.95357 0.87551 0.0
C626 C 0.73434 0.97143 0.94866 0.0
C627 C 0.72152 0.98736 0.98846 0.0
N628 N 0.7547 0.98782 0.99355 0.0
C629 C 0.76829 0.97196 0.95437 0.0
C630 C 0.71073 0.97912 0.9659 0.0
C631 C 0.7781 0.98036 0.9771 0.0
C632 C 0.76077 0.03902 0.92334 0.0
N633 N 0.77824 0.01833 0.90902 0.0
C634 C 0.82509 0.05542 0.9098 0.0
C635 C 0.8092 0.02688 0.90124 0.0
C636 C 0.80905 0.07523 0.92672 0.0
C637 C 0.77589 0.06738 0.93275 0.0
H638 H 0.73556 0.03264 0.92845 0.0
H639 H 0.82201 0.01128 0.88885 0.0
C640 C 0.78421 0.87258 0.94247 0.0
N641 N 0.75602 0.8912 0.94367 0.0
C642 C 0.79469 0.85434 0.96189 0.0
C643 C 0.74603 0.87355 0.98303 0.0
C644 C 0.73634 0.89121 0.9631 0.0
C645 C 0.77597 0.85544 0.98272 0.0
H646 H 0.79929 0.87306 0.92674 0.0
H647 H 0.71383 0.90598 0.96346 0.0
C648 C 0.73793 0.0051 0.86449 0.0
N649 N 0.74748 0.07072 0.85142 0.0
C650 C 0.71586 0.02966 0.87222 0.0
C651 C 0.7647 0.01379 0.84998 0.0
C652 C 0.72116 0.06274 0.86545 0.0
C653 C 0.76914 0.04715 0.8436 0.0
C654 C 0.69285 0.88489 0.89021 0.0
C655 C 0.68333 0.8706 0.8689 0.0
C656 C 0.67237 0.88126 0.90988 0.0
C657 C 0.65317 0.85303 0.86758 0.0
C658 C 0.64238 0.86357 0.90783 0.0
N659 N 0.63348 0.84994 0.8869 0.0
C660 C 0.79624 0.88346 0.85168 0.0
C661 C 0.76922 0.92146 0.82618 0.0
C662 C 0.81352 0.86935 0.83295 0.0
N663 N 0.77503 0.90928 0.848 0.0
C664 C 0.78584 0.90792 0.80687 0.0
C665 C 0.80871 0.88185 0.81023 0.0
H666 H 0.80036 0.87446 0.86931 0.0
H667 H 0.75231 0.94217 0.82387 0.0
C668 C 0.64528 0.97456 0.91045 0.0
N669 N 0.65989 0.95798 0.89245 0.0
C670 C 0.6111 0.98066 0.91024 0.0
C671 C 0.60759 0.95329 0.87256 0.0
C672 C 0.64203 0.94781 0.87347 0.0
C673 C 0.59169 0.96963 0.89126 0.0
H674 H 0.66026 0.98315 0.92496 0.0
H675 H 0.65447 0.93523 0.85918 0.0
O676 O 0.78765 0.93607 0.90127 0.0
O677 O 0.72401 0.96265 0.92656 0.0
O678 O 0.73363 0.97277 0.87144 0.0
O679 O 0.722 0.90256 0.89177 0.0
H680 H 0.83226 0.9289 0.93524 0.0
H681 H 0.81963 0.95365 0.86236 0.0
H682 H 0.89331 0.93679 0.93055 0.0
H683 H 0.88093 0.96042 0.85888 0.0
H684 H 0.70349 0.9933 0.00194 0.0
H685 H 0.78691 0.96625 0.94138 0.0
H686 H 0.68431 0.97841 0.96204 0.0
H687 H 0.80432 0.98096 0.98166 0.0
H688 H 0.85014 0.06117 0.90386 0.0
H689 H 0.76226 0.08172 0.94563 0.0
H690 H 0.81814 0.84102 0.961 0.0
H691 H 0.7308 0.87478 -0.00131 0.0
H692 H 0.69509 0.02329 0.88354 0.0
H693 H 0.78201 0.99505 0.84387 0.0
H694 H 0.70441 0.08207 0.87142 0.0
H695 H 0.78985 0.0543 0.83248 0.0
H696 H 0.69899 0.87324 0.85353 0.0
H697 H 0.67937 0.89236 0.92646 0.0
H698 H 0.64539 0.84191 0.85118 0.0
H699 H 0.62614 0.86073 0.92286 0.0
H700 H 0.83061 0.84901 0.83623 0.0
H701 H 0.78164 0.9184 0.78964 0.0
H702 H 0.60003 0.9941 0.92475 0.0
H703 H 0.59351 0.94434 0.85761 0.0
H704 H 0.02204 0.5553 0.6314 0.0
H705 H 0.91832 0.54314 0.61267 0.0
H706 H 0.92489 0.48255 0.61242 0.0
H707 H 0.96117 0.43346 0.61468 0.0
H708 H 0.06495 0.44543 0.63317 0.0
H709 H 0.05736 0.5058 0.63654 0.0
C710 C 0.0009 0.5393 0.62735 0.0
C711 C 0.96985 0.55351 0.62182 0.0
C712 C 0.00493 0.50461 0.62711 0.0
C713 C 0.94243 0.53266 0.61704 0.0
C714 C 0.94622 0.49809 0.61676 0.0
C715 C 0.98205 0.44936 0.61952 0.0
C716 C 0.01363 0.43528 0.62339 0.0
C717 C 0.9775 0.48387 0.62131 0.0
C718 C 0.04041 0.45586 0.63012 0.0
C719 C 0.03611 0.49031 0.63193 0.0
H720 H 0.55665 0.96215 0.37188 0.0
H721 H 0.53927 0.06809 0.36704 0.0
H722 H 0.47917 0.0581 0.36459 0.0
H723 H 0.43154 0.01962 0.36641 0.0
H724 H 0.4488 0.91398 0.37394 0.0
H725 H 0.50903 0.92353 0.37255 0.0
C726 C 0.53971 0.98308 0.37039 0.0
C727 C 0.55244 0.01583 0.36986 0.0
C728 C 0.50519 0.97721 0.36948 0.0
C729 C 0.53019 0.04262 0.36732 0.0
C730 C 0.4958 0.03695 0.36608 0.0
C731 C 0.44846 -0.00133 0.36783 0.0
C732 C 0.43564 0.96617 0.3705 0.0
C733 C 0.48303 0.0044 0.36756 0.0
C734 C 0.45794 0.93923 0.37171 0.0
C735 C 0.4924 0.94469 0.3711 0.0
H736 H 0.97593 0.45358 0.14891 0.0
H737 H 0.02394 0.43016 0.08327 0.0
H738 H 0.04927 0.48554 0.08212 0.0
H739 H 0.05465 0.54156 0.09823 0.0
H740 H 0.00381 0.56704 0.16242 0.0
H741 H 0.9839 0.50957 0.16625 0.0
C742 C 0.99217 0.46064 0.13451 0.0
C743 C -0.00235 0.43819 0.116 0.0
C744 C 0.00636 0.49272 0.13381 0.0
C745 C 0.01879 0.44741 0.09743 0.0
C746 C 0.03346 0.47893 0.09684 0.0
C747 C 0.03929 0.53453 0.11311 0.0
C748 C 0.0304 0.55862 0.12983 0.0
C749 C 0.02687 0.50196 0.11468 0.0
C750 C 0.01121 0.54893 0.14934 0.0
C751 C -0.00052 0.51617 0.1514 0.0
H752 H 0.43839 0.99272 0.90953 0.0
H753 H 0.44086 0.01844 0.83613 0.0
H754 H 0.50074 0.0067 0.83484 0.0
H755 H 0.5525 0.98962 0.85482 0.0
H756 H 0.54872 0.962 0.92788 0.0
H757 H 0.48905 0.97364 0.92893 0.0
C758 C 0.45185 0.99529 0.89313 0.0
C759 C 0.4351 0.00633 0.87295 0.0
C760 C 0.48605 0.98819 0.89246 0.0
C761 C 0.4532 0.01031 0.852 0.0
C762 C 0.48739 0.00341 0.85121 0.0
C763 C 0.53852 0.98577 0.87087 0.0
C764 C 0.55509 0.97518 0.89127 0.0
C765 C 0.50409 0.99237 0.87135 0.0
C766 C 0.53669 0.97067 0.91203 0.0
C767 C 0.50253 0.97716 0.91263 0.0
H768 H 0.1643 0.12391 0.42992 0.0
H769 H 0.23169 0.09153 0.48414 0.0
H770 H 0.2111 0.13521 0.51026 0.0
H771 H 0.16886 0.17725 0.51931 0.0
H772 H 0.09848 0.20703 0.46624 0.0
H773 H 0.12553 0.17014 0.43784 0.0
C774 C 0.17492 0.12702 0.44727 0.0
C775 C 0.19921 0.10458 0.45525 0.0
C776 C 0.16223 0.15151 0.4624 0.0
C777 C 0.2127 0.10846 0.4778 0.0
C778 C 0.20095 0.13336 0.4927 0.0
C779 C 0.16009 0.17635 0.50134 0.0
C780 C 0.13179 0.1947 0.49481 0.0
C781 C 0.17498 0.15429 0.48545 0.0
C782 C 0.1202 0.19294 0.47161 0.0
C783 C 0.13557 0.1718 0.45543 0.0
H784 H 0.20702 0.85788 0.51784 0.0
H785 H 0.16587 0.79284 0.46479 0.0
H786 H 0.1321 0.76461 0.4943 0.0
H787 H 0.10907 0.76305 0.53398 0.0
H788 H 0.14737 0.83003 0.58678 0.0
H789 H 0.18704 0.85327 0.55844 0.0
C790 C 0.19077 0.83744 0.51274 0.0
C791 C 0.18884 0.82775 0.48905 0.0
C792 C 0.17059 0.82194 0.5297 0.0
C793 C 0.16818 0.80069 0.48287 0.0
C794 C 0.14856 0.78471 0.49972 0.0
C795 C 0.12671 0.78211 0.53949 0.0
C796 C 0.12531 0.79482 0.56245 0.0
C797 C 0.1489 0.79573 0.52303 0.0
C798 C 0.14783 0.82003 0.56915 0.0
C799 C 0.17049 0.83329 0.55297 0.0
H800 H 0.84591 0.92656 0.46398 0.0
H801 H 0.79136 0.85097 0.42613 0.0
H802 H 0.81482 0.80775 0.45169 0.0
H803 H 0.84712 0.79248 0.48728 0.0
H804 H 0.89943 0.86968 0.52527 0.0
H805 H 0.88038 0.91133 0.49733 0.0
C806 C 0.8392 0.90059 0.46131 0.0
C807 C 0.81659 0.89192 0.44353 0.0
C808 C 0.85213 0.87626 0.47626 0.0
C809 C 0.80873 0.85817 0.43979 0.0
C810 C 0.82195 0.83354 0.45448 0.0
C811 C 0.85451 0.81839 0.4892 0.0
C812 C 0.8741 0.8282 0.50847 0.0
C813 C 0.8431 0.84241 0.47314 0.0
C814 C 0.88375 0.86175 0.51082 0.0
C815 C 0.87301 0.88554 0.49482 0.0
H816 H 0.78365 0.11967 0.51691 0.0
H817 H 0.8073 0.19587 0.46603 0.0
H818 H 0.84133 0.22507 0.49491 0.0
H819 H 0.87057 0.2248 0.53256 0.0
H820 H 0.8501 0.14693 0.58273 0.0
H821 H 0.80901 0.12229 0.55606 0.0
C822 C 0.7961 0.14277 0.51217 0.0
C823 C 0.79317 0.15528 0.48921 0.0
C824 C 0.81658 0.15891 0.52864 0.0
C825 C 0.80883 0.1857 0.48357 0.0
C826 C 0.82862 0.20229 0.50003 0.0
C827 C 0.85646 0.20296 0.53795 0.0
C828 C 0.86345 0.18762 0.55955 0.0
C829 C 0.8335 0.18857 0.52235 0.0
C830 C 0.84537 0.15899 0.56609 0.0
C831 C 0.82191 0.14491 0.55085 0.0
H832 H 0.78567 0.13458 0.94415 0.0
H833 H 0.87476 0.07429 0.93967 0.0
H834 H 0.90387 0.11252 0.96558 0.0
H835 H 0.90243 0.15899 0.99303 0.0
H836 H 0.81285 0.21754 0.00025 0.0
H837 H 0.78522 0.18333 0.97036 0.0
C838 C 0.81145 0.12974 0.94882 0.0
C839 C 0.82778 0.10134 0.93991 0.0
C840 C 0.82783 0.15117 0.96458 0.0
C841 C 0.8615 0.09609 0.9458 0.0
C842 C 0.87816 0.11775 0.96093 0.0
C843 C 0.87709 0.16478 0.98772 0.0
C844 C 0.85972 0.19077 -0.00119 0.0
C845 C 0.86133 0.14483 0.97086 0.0
C846 C 0.82664 0.19745 0.99209 0.0
C847 C 0.8109 0.17798 0.97497 0.0
H848 H 0.19748 0.19449 0.98287 0.0
H849 H 0.1997 0.09502 0.01143 0.0
H850 H 0.1643 0.1125 0.04405 0.0
H851 H 0.12722 0.15439 0.06167 0.0
H852 H 0.12569 0.25418 0.03383 0.0
H853 H 0.1666 0.23855 0.00386 0.0
C854 C 0.19064 0.1769 0.99651 0.0
C855 C 0.20092 0.14354 0.99476 0.0
C856 C 0.17027 0.18714 0.01521 0.0
C857 C 0.19221 0.1209 0.01254 0.0
C858 C 0.17178 0.13081 0.03108 0.0
C859 C 0.1365 0.17278 0.04932 0.0
C860 C 0.12356 0.20524 0.04974 0.0
C861 C 0.15989 0.16359 0.03221 0.0
C862 C 0.1356 0.22907 0.0338 0.0
C863 C 0.15874 0.22008 0.0166 0.0
H864 H 0.08926 0.84947 0.99583 0.0
H865 H 0.16365 0.77232 0.98935 0.0
H866 H 0.19143 0.80411 0.95833 0.0
H867 H 0.19562 0.85517 0.93415 0.0
H868 H 0.11982 0.93091 0.94098 0.0
H869 H 0.09069 0.89735 0.96998 0.0
C870 C 0.11103 0.83898 0.98731 0.0
C871 C 0.12422 0.80843 0.995 0.0
C872 C 0.12652 0.85704 0.96935 0.0
C873 C 0.15313 0.79598 0.98407 0.0
C874 C 0.16893 0.81404 0.9662 0.0
C875 C 0.17259 0.86414 0.94188 0.0
C876 C 0.15991 0.89548 0.93531 0.0
C877 C 0.15605 0.84484 0.9589 0.0
C878 C 0.12989 0.90667 0.94535 0.0
C879 C 0.11335 0.88765 0.96216 0.0
H880 H 0.8041 0.79435 0.98798 0.0
H881 H 0.77889 0.88367 0.02611 0.0
H882 H 0.80995 0.86373 0.06009 0.0
H883 H 0.85053 0.82455 0.07684 0.0
H884 H 0.87799 0.73673 0.03767 0.0
H885 H 0.83939 0.75204 0.00656 0.0
C886 C 0.80509 0.8092 0.00386 0.0
C887 C 0.78958 0.84056 0.00445 0.0
C888 C 0.82354 0.79791 0.02315 0.0
C889 C 0.79051 0.85935 0.02524 0.0
C890 C 0.8085 0.8481 0.04462 0.0
C891 C 0.84765 0.80855 0.06164 0.0
C892 C 0.86732 0.77973 0.05952 0.0
C893 C 0.82605 0.81796 0.04347 0.0
C894 C 0.86297 0.75891 0.0399 0.0
C895 C 0.84115 0.76784 0.02193 0.0
H896 H 0.07943 0.15312 0.72287 0.0
H897 H 0.17174 0.18301 0.68952 0.0
H898 H 0.2034 0.16063 0.7223 0.0
H899 H 0.20504 0.13384 0.76104 0.0
H900 H 0.11279 0.10768 0.79557 0.0
H901 H 0.08092 0.12816 0.762 0.0
C902 C 0.10644 0.15519 0.72283 0.0
C903 C 0.12302 0.16966 0.70357 0.0
C904 C 0.12456 0.14312 0.74206 0.0
C905 C 0.15817 0.17142 0.70379 0.0
C906 C 0.17638 0.15889 0.72266 0.0
C907 C 0.17796 0.13256 0.7611 0.0
C908 C 0.16121 0.11932 0.78063 0.0
C909 C 0.15984 0.14478 0.74191 0.0
C910 C 0.12614 0.11805 0.78073 0.0
C911 C 0.10796 0.12962 0.76154 0.0
H912 H 0.07641 0.85744 0.22275 0.0
H913 H 0.1705 0.82839 0.19192 0.0
H914 H 0.20051 0.85418 0.2243 0.0
H915 H 0.20022 0.88248 0.26221 0.0
H916 H 0.10628 0.90728 0.29494 0.0
H917 H 0.07616 0.88586 0.2609 0.0
C918 C 0.10347 0.85651 0.22317 0.0
C919 C 0.12105 0.84093 0.20483 0.0
C920 C 0.12067 0.87066 0.2422 0.0
C921 C 0.15619 0.84064 0.20551 0.0
C922 C 0.17345 0.85515 0.22416 0.0
C923 C 0.17314 0.88299 0.26203 0.0
C924 C 0.15561 0.89628 0.28124 0.0
C925 C 0.15594 0.86984 0.24272 0.0
C926 C 0.12051 0.89752 0.28035 0.0
C927 C 0.10322 0.88501 0.26096 0.0
H928 H 0.91061 0.82484 0.73605 0.0
H929 H 0.82108 0.82133 0.69397 0.0
H930 H 0.78895 0.84499 0.72625 0.0
H931 H 0.78596 0.86556 0.76678 0.0
H932 H 0.87526 0.86787 0.80905 0.0
H933 H 0.90761 0.8451 0.77652 0.0
C934 C 0.88401 0.82895 0.73399 0.0
C935 C 0.86835 0.82134 0.71258 0.0
C936 C 0.86557 0.84217 0.75272 0.0
C937 C 0.83393 0.82739 0.71013 0.0
C938 C 0.81545 0.84072 0.72863 0.0
C939 C 0.81254 0.86128 0.76878 0.0
C940 C 0.82816 0.86827 0.7903 0.0
C941 C 0.831 0.84816 0.75002 0.0
C942 C 0.86256 0.86226 0.79275 0.0
C943 C 0.88111 0.84942 0.77413 0.0
H944 H 0.85678 0.13867 0.29263 0.0
H945 H 0.7809 0.09049 0.2506 0.0
H946 H 0.80442 0.11562 0.21537 0.0
H947 H 0.84663 0.15087 0.19644 0.0
H948 H 0.92552 0.19466 0.23808 0.0
H949 H 0.90062 0.17145 0.27349 0.0
C950 C 0.8456 0.13313 0.27577 0.0
C951 C 0.81702 0.11261 0.27443 0.0
C952 C 0.85974 0.14696 0.25546 0.0
C953 C 0.80254 0.10657 0.25235 0.0
C954 C 0.81615 0.12074 0.23211 0.0
C955 C 0.85877 0.15497 0.21317 0.0
C956 C 0.88797 0.17462 0.21445 0.0
C957 C 0.84479 0.14088 0.23346 0.0
C958 C 0.90275 0.18018 0.23649 0.0
C959 C 0.88867 0.16669 0.25678 0.0
loop_
_geom_bond_atom_site_label_1
_geom_bond_atom_site_label_2
_geom_bond_distance
_geom_bond_site_symmetry_2
_ccdc_geom_bond_type
Li0 N17 1.990 . S
Li0 O60 1.956 . S
Li0 O61 1.970 . S
Li0 O62 1.961 . S
Li1 N25 1.990 . S
Li1 O60 1.970 . S
Li1 O61 1.956 . S
Li1 O63 1.961 . S
Li2 N47 1.990 1_455 S
Li2 O60 1.961 . S
Li2 O62 1.956 . S
Li2 O63 1.970 . S
Li3 N53 1.990 . S
Li3 O61 1.961 . S
Li3 O62 1.970 . S
Li3 O63 1.956 . S
C4 C6 1.348 . S
C4 C7 1.356 . S
C4 O60 1.325 1_655 S
N5 C8 1.314 . S
N5 C9 1.279 . S
C6 C4 1.348 . S
C6 C8 1.353 . S
C6 H64 0.929 1_655 S
C7 C4 1.356 . S
C7 C9 1.358 . S
C7 H65 0.930 . S
C8 N5 1.314 . S
C8 C6 1.353 . S
C8 H66 0.930 . S
C9 N5 1.279 . S
C9 C7 1.358 . S
C9 H67 0.930 . S
C10 C13 1.348 . S
C10 C14 1.356 . S
C10 O61 1.325 . S
C11 N12 1.279 . S
C11 C14 1.358 . S
C11 H68 0.930 . S
N12 C11 1.279 . S
N12 C15 1.314 . S
C13 C10 1.348 . S
C13 C15 1.353 . S
C13 H69 0.929 . S
C14 C10 1.356 . S
C14 C11 1.358 . S
C14 H70 0.930 . S
C15 N12 1.314 . S
C15 C13 1.353 . S
C15 H71 0.930 . S
C16 N17 1.314 . S
C16 C21 1.353 . S
C16 H22 0.930 . S
N17 Li0 1.990 . S
N17 C16 1.314 . S
N17 C19 1.279 . S
C18 C19 1.358 . S
C18 C20 1.356 . S
C18 H72 0.930 . S
C19 N17 1.279 . S
C19 C18 1.358 . S
C19 H23 0.930 . S
C20 C18 1.356 . S
C20 C21 1.348 . S
C21 C16 1.353 . S
C21 C20 1.348 . S
C21 H73 0.929 . S
H22 C16 0.930 . S
H23 C19 0.930 . S
C24 N25 1.314 . S
C24 C26 1.353 . S
C24 H30 0.930 . S
N25 Li1 1.990 . S
N25 C24 1.314 . S
N25 C28 1.279 . S
C26 C24 1.353 . S
C26 C29 1.348 . S
C26 H74 0.929 1_455 S
C27 C28 1.358 . S
C27 C29 1.356 . S
C27 H75 0.930 . S
C28 N25 1.279 . S
C28 C27 1.358 . S
C28 H31 0.930 . S
C29 C26 1.348 . S
C29 C27 1.356 . S
H30 C24 0.930 . S
H31 C28 0.930 . S
C32 C34 1.348 . S
C32 C35 1.356 . S
C32 O62 1.325 . S
N33 C36 1.314 . S
N33 C37 1.279 . S
C34 C32 1.348 . S
C34 C36 1.353 . S
C34 H76 0.929 . S
C35 C32 1.356 . S
C35 C37 1.358 . S
C35 H77 0.930 . S
C36 N33 1.314 . S
C36 C34 1.353 . S
C36 H78 0.930 . S
C37 N33 1.279 . S
C37 C35 1.358 . S
C37 H79 0.930 . S
C38 C39 1.348 . S
C38 C40 1.356 . S
C38 O63 1.325 . S
C39 C38 1.348 . S
C39 C41 1.350 1_455 S
C39 H80 0.929 1_455 S
C40 C38 1.356 . S
C40 C42 1.358 . S
C40 H81 0.930 . S
C41 C39 1.350 1_655 S
C41 N43 1.303 1_655 S
C41 H82 0.946 . S
C42 C40 1.358 . S
C42 N43 1.279 . S
C42 H83 0.930 . S
N43 C41 1.303 1_455 S
N43 C42 1.279 . S
C44 C46 1.353 . S
C44 N47 1.314 . S
C44 H50 0.930 . S
C45 N47 1.279 . S
C45 C48 1.358 . S
C45 H51 0.930 . S
C46 C44 1.353 . S
C46 C49 1.348 . S
C46 H84 0.929 . S
N47 Li2 1.990 1_655 S
N47 C44 1.314 . S
N47 C45 1.279 . S
C48 C45 1.358 . S
C48 C49 1.356 . S
C48 H85 0.930 . S
C49 C46 1.348 . S
C49 C48 1.356 . S
H50 C44 0.930 . S
H51 C45 0.930 . S
C52 N53 1.314 . S
C52 C54 1.353 . S
C52 H58 0.930 . S
N53 Li3 1.990 . S
N53 C52 1.314 . S
N53 C56 1.279 . S
C54 C52 1.353 . S
C54 C57 1.348 . S
C54 H86 0.929 . S
C55 C56 1.358 . S
C55 C57 1.356 . S
C55 H87 0.930 . S
C56 N53 1.279 . S
C56 C55 1.358 . S
C56 H59 0.930 . S
C57 C54 1.348 . S
C57 C55 1.356 . S
H58 C52 0.930 . S
H59 C56 0.930 . S
O60 Li0 1.956 . S
O60 Li1 1.970 . S
O60 Li2 1.961 . S
O60 C4 1.325 1_455 S
O61 Li0 1.970 . S
O61 Li1 1.956 . S
O61 Li3 1.961 . S
O61 C10 1.325 . S
O62 Li0 1.961 . S
O62 Li2 1.956 . S
O62 Li3 1.970 . S
O62 C32 1.325 . S
O63 Li1 1.961 . S
O63 Li2 1.970 . S
O63 Li3 1.956 . S
O63 C38 1.325 . S
H64 C6 0.929 1_455 S
H65 C7 0.930 . S
H66 C8 0.930 . S
H67 C9 0.930 . S
H68 C11 0.930 . S
H69 C13 0.929 . S
H70 C14 0.930 . S
H71 C15 0.930 . S
H72 C18 0.930 . S
H73 C21 0.929 . S
H74 C26 0.929 1_655 S
H75 C27 0.930 . S
H76 C34 0.929 . S
H77 C35 0.930 . S
H78 C36 0.930 . S
H79 C37 0.930 . S
H80 C39 0.929 1_655 S
H81 C40 0.930 . S
H82 C41 0.946 . S
H83 C42 0.930 . S
H84 C46 0.929 . S
H85 C48 0.930 . S
H86 C54 0.929 . S
H87 C55 0.930 . S
Li88 N105 1.990 1_565 S
Li88 O148 1.956 . S
Li88 O149 1.970 . S
Li88 O150 1.961 . S
Li89 N113 1.990 . S
Li89 O148 1.970 . S
Li89 O149 1.956 . S
Li89 O151 1.961 . S
Li90 N135 1.990 . S
Li90 O148 1.961 . S
Li90 O150 1.956 . S
Li90 O151 1.970 . S
Li91 N141 1.990 . S
Li91 O149 1.961 . S
Li91 O150 1.970 . S
Li91 O151 1.956 . S
C92 C94 1.348 . S
C92 C95 1.356 . S
C92 O148 1.325 1_545 S
N93 C96 1.314 . S
N93 C97 1.279 . S
C94 C92 1.348 . S
C94 C96 1.353 . S
C94 H152 0.929 . S
C95 C92 1.356 . S
C95 C97 1.358 . S
C95 H153 0.930 . S
C96 N93 1.314 . S
C96 C94 1.353 . S
C96 H154 0.930 . S
C97 N93 1.279 . S
C97 C95 1.358 . S
C97 H155 0.930 . S
C98 C101 1.348 1_565 S
C98 C102 1.356 . S
C98 O149 1.325 . S
C99 N100 1.279 . S
C99 C102 1.358 . S
C99 H156 0.930 . S
N100 C99 1.279 . S
N100 C103 1.314 1_565 S
C101 C98 1.348 1_545 S
C101 C103 1.353 . S
C101 H157 0.929 . S
C102 C98 1.356 . S
C102 C99 1.358 . S
C102 H158 0.930 . S
C103 N100 1.314 1_545 S
C103 C101 1.353 . S
C103 H159 0.930 . S
C104 N105 1.314 . S
C104 C109 1.353 . S
C104 H110 0.930 . S
N105 Li88 1.990 1_545 S
N105 C104 1.314 . S
N105 C107 1.279 . S
C106 C107 1.358 . S
C106 C108 1.356 . S
C106 H160 0.930 . S
C107 N105 1.279 . S
C107 C106 1.358 . S
C107 H111 0.930 . S
C108 C106 1.356 . S
C108 C109 1.348 . S
C109 C104 1.353 . S
C109 C108 1.348 . S
C109 H161 0.929 . S
H110 C104 0.930 . S
H111 C107 0.930 . S
C112 N113 1.314 . S
C112 C114 1.353 . S
C112 H118 0.930 . S
N113 Li89 1.990 . S
N113 C112 1.314 . S
N113 C116 1.279 . S
C114 C112 1.353 . S
C114 C117 1.348 . S
C114 H162 0.929 . S
C115 C116 1.358 . S
C115 C117 1.356 . S
C115 H163 0.930 . S
C116 N113 1.279 . S
C116 C115 1.358 . S
C116 H119 0.930 . S
C117 C114 1.348 . S
C117 C115 1.356 . S
H118 C112 0.930 . S
H119 C116 0.930 . S
C120 C122 1.348 . S
C120 C123 1.356 . S
C120 O150 1.325 . S
N121 C124 1.314 . S
N121 C125 1.279 . S
C122 C120 1.348 . S
C122 C124 1.353 . S
C122 H164 0.929 . S
C123 C120 1.356 . S
C123 C125 1.358 . S
C123 H165 0.922 1_565 S
C124 N121 1.314 . S
C124 C122 1.353 . S
C124 H166 0.930 . S
C125 N121 1.279 . S
C125 C123 1.358 . S
C125 H167 0.930 . S
C126 C127 1.348 . S
C126 C128 1.356 . S
C126 O151 1.325 . S
C127 C126 1.348 . S
C127 C129 1.353 . S
C127 H168 0.929 . S
C128 C126 1.356 . S
C128 C130 1.358 . S
C128 H169 0.930 . S
C129 C127 1.353 . S
C129 N131 1.314 . S
C129 H170 0.930 . S
C130 C128 1.358 . S
C130 N131 1.279 . S
C130 H171 0.930 . S
N131 C129 1.314 . S
N131 C130 1.279 . S
C132 C134 1.353 . S
C132 N135 1.314 . S
C132 H138 0.930 . S
C133 N135 1.279 . S
C133 C136 1.358 . S
C133 H139 0.930 . S
C134 C132 1.353 . S
C134 C137 1.348 . S
C134 H172 0.929 . S
N135 Li90 1.990 . S
N135 C132 1.314 . S
N135 C133 1.279 . S
C136 C133 1.358 . S
C136 C137 1.356 . S
C136 H173 0.930 . S
C137 C134 1.348 . S
C137 C136 1.356 . S
H138 C132 0.930 . S
H139 C133 0.930 . S
C140 N141 1.314 . S
C140 C142 1.353 . S
C140 H146 0.930 . S
N141 Li91 1.990 . S
N141 C140 1.314 . S
N141 C144 1.279 . S
C142 C140 1.353 . S
C142 C145 1.348 . S
C142 H174 0.929 . S
C143 C144 1.358 . S
C143 C145 1.356 . S
C143 H175 0.930 . S
C144 N141 1.279 . S
C144 C143 1.358 . S
C144 H147 0.930 . S
C145 C142 1.348 . S
C145 C143 1.356 . S
H146 C140 0.930 . S
H147 C144 0.930 . S
O148 Li88 1.956 . S
O148 Li89 1.970 . S
O148 Li90 1.961 . S
O148 C92 1.325 1_565 S
O149 Li88 1.970 . S
O149 Li89 1.956 . S
O149 Li91 1.961 . S
O149 C98 1.325 . S
O150 Li88 1.961 . S
O150 Li90 1.956 . S
O150 Li91 1.970 . S
O150 C120 1.325 . S
O151 Li89 1.961 . S
O151 Li90 1.970 . S
O151 Li91 1.956 . S
O151 C126 1.325 . S
H152 C94 0.929 . S
H153 C95 0.930 . S
H154 C96 0.930 . S
H155 C97 0.930 . S
H156 C99 0.930 . S
H157 C101 0.929 . S
H158 C102 0.930 . S
H159 C103 0.930 . S
H160 C106 0.930 . S
H161 C109 0.929 . S
H162 C114 0.929 . S
H163 C115 0.930 . S
H164 C122 0.929 . S
H165 C123 0.922 1_545 S
H166 C124 0.930 . S
H167 C125 0.930 . S
H168 C127 0.929 . S
H169 C128 0.930 . S
H170 C129 0.930 . S
H171 C130 0.930 . S
H172 C134 0.929 . S
H173 C136 0.930 . S
H174 C142 0.929 . S
H175 C143 0.930 . S
Li176 N193 1.990 . S
Li176 O236 1.956 . S
Li176 O237 1.970 . S
Li176 O238 1.961 . S
Li177 N201 1.990 . S
Li177 O236 1.970 . S
Li177 O237 1.956 . S
Li177 O239 1.961 . S
Li178 N223 1.990 1_655 S
Li178 O236 1.961 . S
Li178 O238 1.956 . S
Li178 O239 1.970 . S
Li179 N229 1.990 . S
Li179 O237 1.961 . S
Li179 O238 1.970 . S
Li179 O239 1.956 . S
C180 C182 1.348 . S
C180 C183 1.356 . S
C180 O236 1.325 1_455 S
N181 C184 1.314 . S
N181 C185 1.279 . S
C182 C180 1.348 . S
C182 C184 1.353 . S
C182 H240 0.929 1_455 S
C183 C180 1.356 . S
C183 C185 1.358 . S
C183 H241 0.930 . S
C184 N181 1.314 . S
C184 C182 1.353 . S
C184 H242 0.930 . S
C185 N181 1.279 . S
C185 C183 1.358 . S
C185 H243 0.930 . S
C186 C189 1.348 . S
C186 C190 1.356 . S
C186 O237 1.325 . S
C187 N188 1.279 . S
C187 C190 1.358 . S
C187 H244 0.930 . S
N188 C187 1.279 . S
N188 C191 1.314 . S
C189 C186 1.348 . S
C189 C191 1.353 . S
C189 H245 0.929 . S
C190 C186 1.356 . S
C190 C187 1.358 . S
C190 H246 0.930 . S
C191 N188 1.314 . S
C191 C189 1.353 . S
C191 H247 0.930 . S
C192 N193 1.314 . S
C192 C197 1.353 . S
C192 H198 0.930 . S
N193 Li176 1.990 . S
N193 C192 1.314 . S
N193 C195 1.279 . S
C194 C195 1.358 . S
C194 C196 1.356 . S
C194 H248 0.930 . S
C195 N193 1.279 . S
C195 C194 1.358 . S
C195 H199 0.930 . S
C196 C194 1.356 . S
C196 C197 1.348 . S
C197 C192 1.353 . S
C197 C196 1.348 . S
C197 H249 0.929 . S
H198 C192 0.930 . S
H199 C195 0.930 . S
C200 N201 1.314 . S
C200 C202 1.353 . S
C200 H206 0.930 . S
N201 Li177 1.990 . S
N201 C200 1.314 . S
N201 C204 1.279 . S
C202 C200 1.353 . S
C202 C205 1.348 . S
C202 H250 0.929 1_655 S
C203 C204 1.358 . S
C203 C205 1.356 . S
C203 H251 0.930 . S
C204 N201 1.279 . S
C204 C203 1.358 . S
C204 H207 0.930 . S
C205 C202 1.348 . S
C205 C203 1.356 . S
H206 C200 0.930 . S
H207 C204 0.930 . S
C208 C210 1.348 . S
C208 C211 1.356 . S
C208 O238 1.325 . S
N209 C212 1.314 . S
N209 C213 1.279 . S
C210 C208 1.348 . S
C210 C212 1.353 . S
C210 H252 0.929 . S
C211 C208 1.356 . S
C211 C213 1.358 . S
C211 H253 0.930 . S
C212 N209 1.314 . S
C212 C210 1.353 . S
C212 H254 0.930 . S
C213 N209 1.279 . S
C213 C211 1.358 . S
C213 H255 0.930 . S
C214 C215 1.348 . S
C214 C216 1.356 . S
C214 O239 1.325 . S
C215 C214 1.348 . S
C215 C217 1.350 1_655 S
C215 H256 0.929 1_655 S
C216 C214 1.356 . S
C216 C218 1.358 . S
C216 H257 0.930 . S
C217 C215 1.350 1_455 S
C217 N219 1.303 1_455 S
C217 H258 0.946 . S
C218 C216 1.358 . S
C218 N219 1.279 . S
C218 H259 0.930 . S
N219 C217 1.303 1_655 S
N219 C218 1.279 . S
C220 C222 1.353 . S
C220 N223 1.314 . S
C220 H226 0.930 . S
C221 N223 1.279 . S
C221 C224 1.358 . S
C221 H227 0.930 . S
C222 C220 1.353 . S
C222 C225 1.348 . S
C222 H260 0.929 . S
N223 Li178 1.990 1_455 S
N223 C220 1.314 . S
N223 C221 1.279 . S
C224 C221 1.358 . S
C224 C225 1.356 . S
C224 H261 0.930 . S
C225 C222 1.348 . S
C225 C224 1.356 . S
H226 C220 0.930 . S
H227 C221 0.930 . S
C228 N229 1.314 . S
C228 C230 1.353 . S
C228 H234 0.930 . S
N229 Li179 1.990 . S
N229 C228 1.314 . S
N229 C232 1.279 . S
C230 C228 1.353 . S
C230 C233 1.348 . S
C230 H262 0.929 . S
C231 C232 1.358 . S
C231 C233 1.356 . S
C231 H263 0.930 . S
C232 N229 1.279 . S
C232 C231 1.358 . S
C232 H235 0.930 . S
C233 C230 1.348 . S
C233 C231 1.356 . S
H234 C228 0.930 . S
H235 C232 0.930 . S
O236 Li176 1.956 . S
O236 Li177 1.970 . S
O236 Li178 1.961 . S
O236 C180 1.325 1_655 S
O237 Li176 1.970 . S
O237 Li177 1.956 . S
O237 Li179 1.961 . S
O237 C186 1.325 . S
O238 Li176 1.961 . S
O238 Li178 1.956 . S
O238 Li179 1.970 . S
O238 C208 1.325 . S
O239 Li177 1.961 . S
O239 Li178 1.970 . S
O239 Li179 1.956 . S
O239 C214 1.325 . S
H240 C182 0.929 1_655 S
H241 C183 0.930 . S
H242 C184 0.930 . S
H243 C185 0.930 . S
H244 C187 0.930 . S
H245 C189 0.929 . S
H246 C190 0.930 . S
H247 C191 0.930 . S
H248 C194 0.930 . S
H249 C197 0.929 . S
H250 C202 0.929 1_455 S
H251 C203 0.930 . S
H252 C210 0.929 . S
H253 C211 0.930 . S
H254 C212 0.930 . S
H255 C213 0.930 . S
H256 C215 0.929 1_455 S
H257 C216 0.930 . S
H258 C217 0.946 . S
H259 C218 0.930 . S
H260 C222 0.929 . S
H261 C224 0.930 . S
H262 C230 0.929 . S
H263 C231 0.930 . S
Li264 N281 1.990 . S
Li264 O324 1.956 . S
Li264 O325 1.970 . S
Li264 O326 1.961 . S
Li265 N289 1.990 . S
Li265 O324 1.970 . S
Li265 O325 1.956 . S
Li265 O327 1.961 . S
Li266 N311 1.990 1_545 S
Li266 O324 1.961 . S
Li266 O326 1.956 . S
Li266 O327 1.970 . S
Li267 N317 1.990 . S
Li267 O325 1.961 . S
Li267 O326 1.970 . S
Li267 O327 1.956 . S
C268 C270 1.348 . S
C268 C271 1.356 . S
C268 O324 1.325 . S
N269 C272 1.314 . S
N269 C273 1.279 . S
C270 C268 1.348 . S
C270 C272 1.353 . S
C270 H328 0.929 . S
C271 C268 1.356 . S
C271 C273 1.358 . S
C271 H329 0.922 1_545 S
C272 N269 1.314 . S
C272 C270 1.353 . S
C272 H330 0.930 . S
C273 N269 1.279 . S
C273 C271 1.358 . S
C273 H331 0.930 . S
C274 C277 1.348 . S
C274 C278 1.356 . S
C274 O325 1.325 . S
C275 N276 1.279 . S
C275 C278 1.358 . S
C275 H332 0.930 . S
N276 C275 1.279 . S
N276 C279 1.314 . S
C277 C274 1.348 . S
C277 C279 1.353 . S
C277 H333 0.929 . S
C278 C274 1.356 . S
C278 C275 1.358 . S
C278 H334 0.930 . S
C279 N276 1.314 . S
C279 C277 1.353 . S
C279 H335 0.930 . S
C280 N281 1.314 . S
C280 C285 1.353 . S
C280 H286 0.930 . S
N281 Li264 1.990 . S
N281 C280 1.314 . S
N281 C283 1.279 . S
C282 C283 1.358 . S
C282 C284 1.356 . S
C282 H336 0.930 . S
C283 N281 1.279 . S
C283 C282 1.358 . S
C283 H287 0.930 . S
C284 C282 1.356 . S
C284 C285 1.348 . S
C285 C280 1.353 . S
C285 C284 1.348 . S
C285 H337 0.929 . S
H286 C280 0.930 . S
H287 C283 0.930 . S
C288 N289 1.314 . S
C288 C290 1.353 . S
C288 H294 0.930 . S
N289 Li265 1.990 . S
N289 C288 1.314 . S
N289 C292 1.279 . S
C290 C288 1.353 . S
C290 C293 1.348 . S
C290 H338 0.929 . S
C291 C292 1.358 . S
C291 C293 1.356 . S
C291 H339 0.930 . S
C292 N289 1.279 . S
C292 C291 1.358 . S
C292 H295 0.930 . S
C293 C290 1.348 . S
C293 C291 1.356 . S
H294 C288 0.930 . S
H295 C292 0.930 . S
C296 C298 1.348 . S
C296 C299 1.356 . S
C296 O326 1.325 1_565 S
N297 C300 1.314 . S
N297 C301 1.279 . S
C298 C296 1.348 . S
C298 C300 1.353 . S
C298 H340 0.929 . S
C299 C296 1.356 . S
C299 C301 1.358 . S
C299 H341 0.930 . S
C300 N297 1.314 . S
C300 C298 1.353 . S
C300 H342 0.930 . S
C301 N297 1.279 . S
C301 C299 1.358 . S
C301 H343 0.930 . S
C302 C303 1.348 1_545 S
C302 C304 1.356 . S
C302 O327 1.325 . S
C303 C302 1.348 1_565 S
C303 C305 1.353 . S
C303 H344 0.929 . S
C304 C302 1.356 . S
C304 C306 1.358 . S
C304 H345 0.930 . S
C305 C303 1.353 . S
C305 N307 1.314 1_565 S
C305 H346 0.930 . S
C306 C304 1.358 . S
C306 N307 1.279 . S
C306 H347 0.930 . S
N307 C305 1.314 1_545 S
N307 C306 1.279 . S
C308 C310 1.353 . S
C308 N311 1.314 . S
C308 H314 0.930 . S
C309 N311 1.279 . S
C309 C312 1.358 . S
C309 H315 0.930 . S
C310 C308 1.353 . S
C310 C313 1.348 . S
C310 H348 0.929 . S
N311 Li266 1.990 1_565 S
N311 C308 1.314 . S
N311 C309 1.279 . S
C312 C309 1.358 . S
C312 C313 1.356 . S
C312 H349 0.930 . S
C313 C310 1.348 . S
C313 C312 1.356 . S
H314 C308 0.930 . S
H315 C309 0.930 . S
C316 N317 1.314 . S
C316 C318 1.353 . S
C316 H322 0.930 . S
N317 Li267 1.990 . S
N317 C316 1.314 . S
N317 C320 1.279 . S
C318 C316 1.353 . S
C318 C321 1.348 . S
C318 H350 0.929 . S
C319 C320 1.358 . S
C319 C321 1.356 . S
C319 H351 0.930 . S
C320 N317 1.279 . S
C320 C319 1.358 . S
C320 H323 0.930 . S
C321 C318 1.348 . S
C321 C319 1.356 . S
H322 C316 0.930 . S
H323 C320 0.930 . S
O324 Li264 1.956 . S
O324 Li265 1.970 . S
O324 Li266 1.961 . S
O324 C268 1.325 . S
O325 Li264 1.970 . S
O325 Li265 1.956 . S
O325 Li267 1.961 . S
O325 C274 1.325 . S
O326 Li264 1.961 . S
O326 Li266 1.956 . S
O326 Li267 1.970 . S
O326 C296 1.325 1_545 S
O327 Li265 1.961 . S
O327 Li266 1.970 . S
O327 Li267 1.956 . S
O327 C302 1.325 . S
H328 C270 0.929 . S
H329 C271 0.922 1_565 S
H330 C272 0.930 . S
H331 C273 0.930 . S
H332 C275 0.930 . S
H333 C277 0.929 . S
H334 C278 0.930 . S
H335 C279 0.930 . S
H336 C282 0.930 . S
H337 C285 0.929 . S
H338 C290 0.929 . S
H339 C291 0.930 . S
H340 C298 0.929 . S
H341 C299 0.930 . S
H342 C300 0.930 . S
H343 C301 0.930 . S
H344 C303 0.929 . S
H345 C304 0.930 . S
H346 C305 0.930 . S
H347 C306 0.930 . S
H348 C310 0.929 . S
H349 C312 0.930 . S
H350 C318 0.929 . S
H351 C319 0.930 . S
Li352 N369 1.990 . S
Li352 O412 1.956 . S
Li352 O413 1.970 . S
Li352 O414 1.961 . S
Li353 N377 1.990 . S
Li353 O412 1.970 . S
Li353 O413 1.956 . S
Li353 O415 1.961 . S
Li354 N399 1.990 . S
Li354 O412 1.961 . S
Li354 O414 1.956 . S
Li354 O415 1.970 . S
Li355 N405 1.990 1_655 S
Li355 O413 1.961 . S
Li355 O414 1.970 . S
Li355 O415 1.956 . S
C356 C358 1.348 . S
C356 C359 1.356 . S
C356 O412 1.325 . S
N357 C360 1.314 . S
N357 C361 1.279 . S
C358 C356 1.348 . S
C358 C360 1.353 . S
C358 H416 0.929 . S
C359 C356 1.356 . S
C359 C361 1.358 . S
C359 H417 0.930 . S
C360 N357 1.314 . S
C360 C358 1.353 . S
C360 H418 0.930 . S
C361 N357 1.279 . S
C361 C359 1.358 . S
C361 H419 0.930 . S
C362 C365 1.348 . S
C362 C366 1.356 . S
C362 O413 1.325 . S
C363 N364 1.279 . S
C363 C366 1.358 . S
C363 H420 0.930 . S
N364 C363 1.279 . S
N364 C367 1.314 . S
C365 C362 1.348 . S
C365 C367 1.353 . S
C365 H421 0.929 . S
C366 C362 1.356 . S
C366 C363 1.358 . S
C366 H422 0.922 1_655 S
C367 N364 1.314 . S
C367 C365 1.353 . S
C367 H423 0.930 . S
C368 N369 1.314 . S
C368 C373 1.353 . S
C368 H374 0.930 . S
N369 Li352 1.990 . S
N369 C368 1.314 . S
N369 C371 1.279 . S
C370 C371 1.358 . S
C370 C372 1.356 . S
C370 H424 0.930 . S
C371 N369 1.279 . S
C371 C370 1.358 . S
C371 H375 0.930 . S
C372 C370 1.356 . S
C372 C373 1.348 . S
C373 C368 1.353 . S
C373 C372 1.348 . S
C373 H425 0.929 . S
H374 C368 0.930 . S
H375 C371 0.930 . S
C376 N377 1.314 . S
C376 C378 1.353 . S
C376 H382 0.930 . S
N377 Li353 1.990 . S
N377 C376 1.314 . S
N377 C380 1.279 . S
C378 C376 1.353 . S
C378 C381 1.348 . S
C378 H426 0.929 . S
C379 C380 1.358 . S
C379 C381 1.356 . S
C379 H427 0.930 . S
C380 N377 1.279 . S
C380 C379 1.358 . S
C380 H383 0.930 . S
C381 C378 1.348 . S
C381 C379 1.356 . S
H382 C376 0.930 . S
H383 C380 0.930 . S
C384 C386 1.348 1_655 S
C384 C387 1.356 . S
C384 O414 1.325 . S
N385 C388 1.301 1_656 S
N385 C389 1.270 1_556 S
C386 C384 1.348 1_455 S
C386 C388 1.353 . S
C386 H428 0.929 . S
C387 C384 1.356 . S
C387 C389 1.358 . S
C387 H429 0.930 . S
C388 N385 1.301 1_454 S
C388 C386 1.353 . S
C388 H430 0.930 . S
C389 N385 1.270 1_554 S
C389 C387 1.358 . S
C389 H431 0.945 . S
C390 C391 1.348 . S
C390 C392 1.356 . S
C390 O415 1.325 1_455 S
C391 C390 1.348 . S
C391 C393 1.353 . S
C391 H432 0.929 . S
C392 C390 1.356 . S
C392 C394 1.358 . S
C392 H433 0.930 . S
C393 C391 1.353 . S
C393 N395 1.314 . S
C393 H434 0.930 . S
C394 C392 1.358 . S
C394 N395 1.279 . S
C394 H435 0.930 . S
N395 C393 1.314 . S
N395 C394 1.279 . S
C396 C398 1.353 . S
C396 N399 1.314 . S
C396 H402 0.930 . S
C397 N399 1.279 . S
C397 C400 1.358 . S
C397 H403 0.930 . S
C398 C396 1.353 . S
C398 C401 1.348 . S
C398 H436 0.929 . S
N399 Li354 1.990 . S
N399 C396 1.314 . S
N399 C397 1.279 . S
C400 C397 1.358 . S
C400 C401 1.356 . S
C400 H437 0.930 . S
C401 C398 1.348 . S
C401 C400 1.356 . S
H402 C396 0.930 . S
H403 C397 0.930 . S
C404 N405 1.314 . S
C404 C406 1.353 . S
C404 H410 0.930 . S
N405 Li355 1.990 1_455 S
N405 C404 1.314 . S
N405 C408 1.279 . S
C406 C404 1.353 . S
C406 C409 1.348 . S
C406 H438 0.929 . S
C407 C408 1.358 . S
C407 C409 1.356 . S
C407 H439 0.930 . S
C408 N405 1.279 . S
C408 C407 1.358 . S
C408 H411 0.930 . S
C409 C406 1.348 . S
C409 C407 1.356 . S
H410 C404 0.930 . S
H411 C408 0.930 . S
O412 Li352 1.956 . S
O412 Li353 1.970 . S
O412 Li354 1.961 . S
O412 C356 1.325 . S
O413 Li352 1.970 . S
O413 Li353 1.956 . S
O413 Li355 1.961 . S
O413 C362 1.325 . S
O414 Li352 1.961 . S
O414 Li354 1.956 . S
O414 Li355 1.970 . S
O414 C384 1.325 . S
O415 Li353 1.961 . S
O415 Li354 1.970 . S
O415 Li355 1.956 . S
O415 C390 1.325 1_655 S
H416 C358 0.929 . S
H417 C359 0.930 . S
H418 C360 0.930 . S
H419 C361 0.930 . S
H420 C363 0.930 . S
H421 C365 0.929 . S
H422 C366 0.922 1_455 S
H423 C367 0.930 . S
H424 C370 0.930 . S
H425 C373 0.929 . S
H426 C378 0.929 . S
H427 C379 0.930 . S
H428 C386 0.929 . S
H429 C387 0.930 . S
H430 C388 0.930 . S
H431 C389 0.945 . S
H432 C391 0.929 . S
H433 C392 0.930 . S
H434 C393 0.930 . S
H435 C394 0.930 . S
H436 C398 0.929 . S
H437 C400 0.930 . S
H438 C406 0.929 . S
H439 C407 0.930 . S
Li440 N457 1.990 . S
Li440 O500 1.956 . S
Li440 O501 1.970 . S
Li440 O502 1.961 . S
Li441 N465 1.990 1_545 S
Li441 O500 1.970 . S
Li441 O501 1.956 . S
Li441 O503 1.961 . S
Li442 N487 1.990 . S
Li442 O500 1.961 . S
Li442 O502 1.956 . S
Li442 O503 1.970 . S
Li443 N493 1.990 . S
Li443 O501 1.961 . S
Li443 O502 1.970 . S
Li443 O503 1.956 . S
C444 C446 1.348 . S
C444 C447 1.356 . S
C444 O500 1.325 . S
N445 C448 1.303 1_544 S
N445 C449 1.279 1_554 S
C446 C444 1.348 . S
C446 C448 1.350 1_545 S
C446 H504 0.929 1_545 S
C447 C444 1.356 . S
C447 C449 1.358 . S
C447 H505 0.930 . S
C448 N445 1.303 1_566 S
C448 C446 1.350 1_565 S
C448 H506 0.942 1_556 S
C449 N445 1.279 1_556 S
C449 C447 1.358 . S
C449 H507 0.930 . S
C450 C453 1.348 . S
C450 C454 1.356 . S
C450 O501 1.325 . S
C451 N452 1.279 . S
C451 C454 1.358 . S
C451 H508 0.930 . S
N452 C451 1.279 . S
N452 C455 1.314 . S
C453 C450 1.348 . S
C453 C455 1.353 . S
C453 H509 0.929 . S
C454 C450 1.356 . S
C454 C451 1.358 . S
C454 H510 0.930 . S
C455 N452 1.314 . S
C455 C453 1.353 . S
C455 H511 0.930 . S
C456 N457 1.314 . S
C456 C461 1.353 . S
C456 H462 0.930 . S
N457 Li440 1.990 . S
N457 C456 1.314 . S
N457 C459 1.279 . S
C458 C459 1.358 . S
C458 C460 1.356 . S
C458 H512 0.975 . S
C459 N457 1.279 . S
C459 C458 1.358 . S
C459 H463 0.930 . S
C460 C458 1.356 . S
C460 C461 1.348 . S
C461 C456 1.353 . S
C461 C460 1.348 . S
C461 H513 0.929 . S
H462 C456 0.930 . S
H463 C459 0.930 . S
C464 N465 1.314 . S
C464 C466 1.353 . S
C464 H470 0.930 . S
N465 Li441 1.990 1_565 S
N465 C464 1.314 . S
N465 C468 1.279 . S
C466 C464 1.353 . S
C466 C469 1.348 . S
C466 H514 0.929 . S
C467 C468 1.358 . S
C467 C469 1.356 . S
C467 H515 0.930 . S
C468 N465 1.279 . S
C468 C467 1.358 . S
C468 H471 0.930 . S
C469 C466 1.348 . S
C469 C467 1.356 . S
H470 C464 0.930 . S
H471 C468 0.930 . S
C472 C474 1.348 . S
C472 C475 1.356 . S
C472 O502 1.325 . S
N473 C476 1.314 . S
N473 C477 1.279 . S
C474 C472 1.348 . S
C474 C476 1.353 . S
C474 H516 0.929 . S
C475 C472 1.356 . S
C475 C477 1.358 . S
C475 H517 0.930 . S
C476 N473 1.314 . S
C476 C474 1.353 . S
C476 H518 0.930 . S
C477 N473 1.279 . S
C477 C475 1.358 . S
C477 H519 0.930 . S
C478 C479 1.348 . S
C478 C480 1.356 . S
C478 O503 1.325 1_565 S
C479 C478 1.348 . S
C479 C481 1.353 . S
C479 H520 0.929 1_565 S
C480 C478 1.356 . S
C480 C482 1.358 . S
C480 H521 0.930 . S
C481 C479 1.353 . S
C481 N483 1.314 . S
C481 H522 0.930 . S
C482 C480 1.358 . S
C482 N483 1.279 . S
C482 H523 0.930 . S
N483 C481 1.314 . S
N483 C482 1.279 . S
C484 C486 1.353 . S
C484 N487 1.314 . S
C484 H490 0.930 . S
C485 N487 1.279 . S
C485 C488 1.358 . S
C485 H491 0.930 . S
C486 C484 1.353 . S
C486 C489 1.348 . S
C486 H524 0.929 1_545 S
N487 Li442 1.990 . S
N487 C484 1.314 . S
N487 C485 1.279 . S
C488 C485 1.358 . S
C488 C489 1.356 . S
C488 H525 0.930 . S
C489 C486 1.348 . S
C489 C488 1.356 . S
H490 C484 0.930 . S
H491 C485 0.930 . S
C492 N493 1.314 . S
C492 C494 1.353 . S
C492 H498 0.930 . S
N493 Li443 1.990 . S
N493 C492 1.314 . S
N493 C496 1.279 . S
C494 C492 1.353 . S
C494 C497 1.348 . S
C494 H526 0.929 . S
C495 C496 1.358 . S
C495 C497 1.356 . S
C495 H527 0.930 . S
C496 N493 1.279 . S
C496 C495 1.358 . S
C496 H499 0.930 . S
C497 C494 1.348 . S
C497 C495 1.356 . S
H498 C492 0.930 . S
H499 C496 0.930 . S
O500 Li440 1.956 . S
O500 Li441 1.970 . S
O500 Li442 1.961 . S
O500 C444 1.325 . S
O501 Li440 1.970 . S
O501 Li441 1.956 . S
O501 Li443 1.961 . S
O501 C450 1.325 . S
O502 Li440 1.961 . S
O502 Li442 1.956 . S
O502 Li443 1.970 . S
O502 C472 1.325 . S
O503 Li441 1.961 . S
O503 Li442 1.970 . S
O503 Li443 1.956 . S
O503 C478 1.325 1_545 S
H504 C446 0.929 1_565 S
H505 C447 0.930 . S
H506 C448 0.942 1_554 S
H507 C449 0.930 . S
H508 C451 0.930 . S
H509 C453 0.929 . S
H510 C454 0.930 . S
H511 C455 0.930 . S
H512 C458 0.975 . S
H513 C461 0.929 . S
H514 C466 0.929 . S
H515 C467 0.930 . S
H516 C474 0.929 . S
H517 C475 0.930 . S
H518 C476 0.930 . S
H519 C477 0.930 . S
H520 C479 0.929 1_545 S
H521 C480 0.930 . S
H522 C481 0.930 . S
H523 C482 0.930 . S
H524 C486 0.929 1_565 S
H525 C488 0.930 . S
H526 C494 0.929 . S
H527 C495 0.930 . S
Li528 N545 1.990 1_455 S
Li528 O588 1.956 . S
Li528 O589 1.970 . S
Li528 O590 1.961 . S
Li529 N553 1.990 . S
Li529 O588 1.970 . S
Li529 O589 1.956 . S
Li529 O591 1.961 . S
Li530 N575 1.990 . S
Li530 O588 1.961 . S
Li530 O590 1.956 . S
Li530 O591 1.970 . S
Li531 N581 1.990 . S
Li531 O589 1.961 . S
Li531 O590 1.970 . S
Li531 O591 1.956 . S
C532 C534 1.348 . S
C532 C535 1.356 . S
C532 O588 1.325 1_655 S
N533 C536 1.314 . S
N533 C537 1.279 . S
C534 C532 1.348 . S
C534 C536 1.353 . S
C534 H592 0.929 . S
C535 C532 1.356 . S
C535 C537 1.358 . S
C535 H593 0.930 . S
C536 N533 1.314 . S
C536 C534 1.353 . S
C536 H594 0.930 . S
C537 N533 1.279 . S
C537 C535 1.358 . S
C537 H595 0.930 . S
C538 C541 1.348 1_455 S
C538 C542 1.356 . S
C538 O589 1.325 . S
C539 N540 1.270 1_554 S
C539 C542 1.358 . S
C539 H596 0.945 . S
N540 C539 1.270 1_556 S
N540 C543 1.301 1_456 S
C541 C538 1.348 1_655 S
C541 C543 1.353 . S
C541 H597 0.929 . S
C542 C538 1.356 . S
C542 C539 1.358 . S
C542 H598 0.930 . S
C543 N540 1.301 1_654 S
C543 C541 1.353 . S
C543 H599 0.930 . S
C544 N545 1.314 . S
C544 C549 1.353 . S
C544 H550 0.930 . S
N545 Li528 1.990 1_655 S
N545 C544 1.314 . S
N545 C547 1.279 . S
C546 C547 1.358 . S
C546 C548 1.356 . S
C546 H600 0.930 . S
C547 N545 1.279 . S
C547 C546 1.358 . S
C547 H551 0.930 . S
C548 C546 1.356 . S
C548 C549 1.348 . S
C549 C544 1.353 . S
C549 C548 1.348 . S
C549 H601 0.929 . S
H550 C544 0.930 . S
H551 C547 0.930 . S
C552 N553 1.314 . S
C552 C554 1.353 . S
C552 H558 0.930 . S
N553 Li529 1.990 . S
N553 C552 1.314 . S
N553 C556 1.279 . S
C554 C552 1.353 . S
C554 C557 1.348 . S
C554 H602 0.929 . S
C555 C556 1.358 . S
C555 C557 1.356 . S
C555 H603 0.930 . S
C556 N553 1.279 . S
C556 C555 1.358 . S
C556 H559 0.930 . S
C557 C554 1.348 . S
C557 C555 1.356 . S
H558 C552 0.930 . S
H559 C556 0.930 . S
C560 C562 1.348 . S
C560 C563 1.356 . S
C560 O590 1.325 . S
N561 C564 1.314 . S
N561 C565 1.279 . S
C562 C560 1.348 . S
C562 C564 1.353 . S
C562 H604 0.929 . S
C563 C560 1.356 . S
C563 C565 1.358 . S
C563 H605 0.922 1_455 S
C564 N561 1.314 . S
C564 C562 1.353 . S
C564 H606 0.930 . S
C565 N561 1.279 . S
C565 C563 1.358 . S
C565 H607 0.930 . S
C566 C567 1.348 . S
C566 C568 1.356 . S
C566 O591 1.325 . S
C567 C566 1.348 . S
C567 C569 1.353 . S
C567 H608 0.929 . S
C568 C566 1.356 . S
C568 C570 1.358 . S
C568 H609 0.930 . S
C569 C567 1.353 . S
C569 N571 1.314 . S
C569 H610 0.930 . S
C570 C568 1.358 . S
C570 N571 1.279 . S
C570 H611 0.930 . S
N571 C569 1.314 . S
N571 C570 1.279 . S
C572 C574 1.353 . S
C572 N575 1.314 . S
C572 H578 0.930 . S
C573 N575 1.279 . S
C573 C576 1.358 . S
C573 H579 0.930 . S
C574 C572 1.353 . S
C574 C577 1.348 . S
C574 H612 0.929 . S
N575 Li530 1.990 . S
N575 C572 1.314 . S
N575 C573 1.279 . S
C576 C573 1.358 . S
C576 C577 1.356 . S
C576 H613 0.930 . S
C577 C574 1.348 . S
C577 C576 1.356 . S
H578 C572 0.930 . S
H579 C573 0.930 . S
C580 N581 1.314 . S
C580 C582 1.353 . S
C580 H586 0.930 . S
N581 Li531 1.990 . S
N581 C580 1.314 . S
N581 C584 1.279 . S
C582 C580 1.353 . S
C582 C585 1.348 . S
C582 H614 0.929 . S
C583 C584 1.358 . S
C583 C585 1.356 . S
C583 H615 0.930 . S
C584 N581 1.279 . S
C584 C583 1.358 . S
C584 H587 0.930 . S
C585 C582 1.348 . S
C585 C583 1.356 . S
H586 C580 0.930 . S
H587 C584 0.930 . S
O588 Li528 1.956 . S
O588 Li529 1.970 . S
O588 Li530 1.961 . S
O588 C532 1.325 1_455 S
O589 Li528 1.970 . S
O589 Li529 1.956 . S
O589 Li531 1.961 . S
O589 C538 1.325 . S
O590 Li528 1.961 . S
O590 Li530 1.956 . S
O590 Li531 1.970 . S
O590 C560 1.325 . S
O591 Li529 1.961 . S
O591 Li530 1.970 . S
O591 Li531 1.956 . S
O591 C566 1.325 . S
H592 C534 0.929 . S
H593 C535 0.930 . S
H594 C536 0.930 . S
H595 C537 0.930 . S
H596 C539 0.945 . S
H597 C541 0.929 . S
H598 C542 0.930 . S
H599 C543 0.930 . S
H600 C546 0.930 . S
H601 C549 0.929 . S
H602 C554 0.929 . S
H603 C555 0.930 . S
H604 C562 0.929 . S
H605 C563 0.922 1_655 S
H606 C564 0.930 . S
H607 C565 0.930 . S
H608 C567 0.929 . S
H609 C568 0.930 . S
H610 C569 0.930 . S
H611 C570 0.930 . S
H612 C574 0.929 . S
H613 C576 0.930 . S
H614 C582 0.929 . S
H615 C583 0.930 . S
Li616 N633 1.990 1_565 S
Li616 O676 1.956 . S
Li616 O677 1.970 . S
Li616 O678 1.961 . S
Li617 N641 1.990 . S
Li617 O676 1.970 . S
Li617 O677 1.956 . S
Li617 O679 1.961 . S
Li618 N663 1.990 . S
Li618 O676 1.961 . S
Li618 O678 1.956 . S
Li618 O679 1.970 . S
Li619 N669 1.990 . S
Li619 O677 1.961 . S
Li619 O678 1.970 . S
Li619 O679 1.956 . S
C620 C622 1.348 . S
C620 C623 1.356 . S
C620 O676 1.325 . S
N621 C624 1.314 . S
N621 C625 1.279 . S
C622 C620 1.348 . S
C622 C624 1.353 . S
C622 H680 0.929 . S
C623 C620 1.356 . S
C623 C625 1.358 . S
C623 H681 0.930 . S
C624 N621 1.314 . S
C624 C622 1.353 . S
C624 H682 0.930 . S
C625 N621 1.279 . S
C625 C623 1.358 . S
C625 H683 0.930 . S
C626 C629 1.348 . S
C626 C630 1.356 . S
C626 O677 1.325 . S
C627 N628 1.279 1_556 S
C627 C630 1.358 . S
C627 H684 0.930 . S
N628 C627 1.279 1_554 S
N628 C631 1.303 1_564 S
C629 C626 1.348 . S
C629 C631 1.350 1_565 S
C629 H685 0.929 1_565 S
C630 C626 1.356 . S
C630 C627 1.358 . S
C630 H686 0.930 . S
C631 N628 1.303 1_546 S
C631 C629 1.350 1_545 S
C631 H687 0.942 1_556 S
C632 N633 1.314 . S
C632 C637 1.353 . S
C632 H638 0.930 . S
N633 Li616 1.990 1_545 S
N633 C632 1.314 . S
N633 C635 1.279 . S
C634 C635 1.358 . S
C634 C636 1.356 . S
C634 H688 0.930 . S
C635 N633 1.279 . S
C635 C634 1.358 . S
C635 H639 0.930 . S
C636 C634 1.356 . S
C636 C637 1.348 . S
C637 C632 1.353 . S
C637 C636 1.348 . S
C637 H689 0.929 . S
H638 C632 0.930 . S
H639 C635 0.930 . S
C640 N641 1.314 . S
C640 C642 1.353 . S
C640 H646 0.930 . S
N641 Li617 1.990 . S
N641 C640 1.314 . S
N641 C644 1.279 . S
C642 C640 1.353 . S
C642 C645 1.348 . S
C642 H690 0.929 . S
C643 C644 1.358 . S
C643 C645 1.356 . S
C643 H691 0.975 . S
C644 N641 1.279 . S
C644 C643 1.358 . S
C644 H647 0.930 . S
C645 C642 1.348 . S
C645 C643 1.356 . S
H646 C640 0.930 . S
H647 C644 0.930 . S
C648 C650 1.348 . S
C648 C651 1.356 . S
C648 O678 1.325 1_545 S
N649 C652 1.314 . S
N649 C653 1.279 . S
C650 C648 1.348 . S
C650 C652 1.353 . S
C650 H692 0.929 1_545 S
C651 C648 1.356 . S
C651 C653 1.358 . S
C651 H693 0.930 . S
C652 N649 1.314 . S
C652 C650 1.353 . S
C652 H694 0.930 . S
C653 N649 1.279 . S
C653 C651 1.358 . S
C653 H695 0.930 . S
C654 C655 1.348 . S
C654 C656 1.356 . S
C654 O679 1.325 . S
C655 C654 1.348 . S
C655 C657 1.353 . S
C655 H696 0.929 . S
C656 C654 1.356 . S
C656 C658 1.358 . S
C656 H697 0.930 . S
C657 C655 1.353 . S
C657 N659 1.314 . S
C657 H698 0.930 . S
C658 C656 1.358 . S
C658 N659 1.279 . S
C658 H699 0.930 . S
N659 C657 1.314 . S
N659 C658 1.279 . S
C660 C662 1.353 . S
C660 N663 1.314 . S
C660 H666 0.930 . S
C661 N663 1.279 . S
C661 C664 1.358 . S
C661 H667 0.930 . S
C662 C660 1.353 . S
C662 C665 1.348 . S
C662 H700 0.929 . S
N663 Li618 1.990 . S
N663 C660 1.314 . S
N663 C661 1.279 . S
C664 C661 1.358 . S
C664 C665 1.356 . S
C664 H701 0.930 . S
C665 C662 1.348 . S
C665 C664 1.356 . S
H666 C660 0.930 . S
H667 C661 0.930 . S
C668 N669 1.314 . S
C668 C670 1.353 . S
C668 H674 0.930 . S
N669 Li619 1.990 . S
N669 C668 1.314 . S
N669 C672 1.279 . S
C670 C668 1.353 . S
C670 C673 1.348 . S
C670 H702 0.929 1_565 S
C671 C672 1.358 . S
C671 C673 1.356 . S
C671 H703 0.930 . S
C672 N669 1.279 . S
C672 C671 1.358 . S
C672 H675 0.930 . S
C673 C670 1.348 . S
C673 C671 1.356 . S
H674 C668 0.930 . S
H675 C672 0.930 . S
O676 Li616 1.956 . S
O676 Li617 1.970 . S
O676 Li618 1.961 . S
O676 C620 1.325 . S
O677 Li616 1.970 . S
O677 Li617 1.956 . S
O677 Li619 1.961 . S
O677 C626 1.325 . S
O678 Li616 1.961 . S
O678 Li618 1.956 . S
O678 Li619 1.970 . S
O678 C648 1.325 1_565 S
O679 Li617 1.961 . S
O679 Li618 1.970 . S
O679 Li619 1.956 . S
O679 C654 1.325 . S
H680 C622 0.929 . S
H681 C623 0.930 . S
H682 C624 0.930 . S
H683 C625 0.930 . S
H684 C627 0.930 . S
H685 C629 0.929 1_545 S
H686 C630 0.930 . S
H687 C631 0.942 1_554 S
H688 C634 0.930 . S
H689 C637 0.929 . S
H690 C642 0.929 . S
H691 C643 0.975 . S
H692 C650 0.929 1_565 S
H693 C651 0.930 . S
H694 C652 0.930 . S
H695 C653 0.930 . S
H696 C655 0.929 . S
H697 C656 0.930 . S
H698 C657 0.930 . S
H699 C658 0.930 . S
H700 C662 0.929 . S
H701 C664 0.930 . S
H702 C670 0.929 1_545 S
H703 C671 0.930 . S
H704 C710 0.922 1_455 S
H705 C713 0.930 . S
H706 C714 0.930 . S
H707 C715 0.922 1_655 S
H708 C718 0.930 . S
H709 C719 0.930 . S
C710 H704 0.922 1_655 S
C710 C711 1.366 . S
C710 C712 1.411 1_655 S
C711 C710 1.366 . S
C711 C713 1.419 . S
C712 C710 1.411 1_455 S
C712 C717 1.425 1_455 S
C712 C719 1.409 . S
C713 H705 0.930 . S
C713 C711 1.419 . S
C713 C714 1.362 . S
C714 H706 0.930 . S
C714 C713 1.362 . S
C714 C717 1.409 . S
C715 H707 0.922 1_455 S
C715 C716 1.366 . S
C715 C717 1.411 1_455 S
C716 C715 1.366 . S
C716 C718 1.419 . S
C717 C712 1.425 1_655 S
C717 C714 1.409 . S
C717 C715 1.411 1_655 S
C718 H708 0.930 . S
C718 C716 1.419 . S
C718 C719 1.362 . S
C719 H709 0.930 . S
C719 C712 1.409 . S
C719 C718 1.362 . S
H720 C726 0.945 . S
H721 C729 0.930 . S
H722 C730 0.930 . S
H723 C731 0.945 . S
H724 C734 0.930 . S
H725 C735 0.930 . S
C726 H720 0.945 . S
C726 C727 1.332 1_565 S
C726 C728 1.422 . S
C727 C726 1.332 1_545 S
C727 C729 1.419 . S
C728 C726 1.422 . S
C728 C733 1.425 1_565 S
C728 C735 1.409 . S
C729 H721 0.930 . S
C729 C727 1.419 . S
C729 C730 1.362 . S
C730 H722 0.930 . S
C730 C729 1.362 . S
C730 C733 1.409 . S
C731 H723 0.945 . S
C731 C732 1.332 1_545 S
C731 C733 1.422 . S
C732 C731 1.332 1_565 S
C732 C734 1.419 . S
C733 C728 1.425 1_545 S
C733 C730 1.409 . S
C733 C731 1.422 . S
C734 H724 0.930 . S
C734 C732 1.419 . S
C734 C735 1.362 . S
C735 H725 0.930 . S
C735 C728 1.409 . S
C735 C734 1.362 . S
H736 C742 0.930 . S
H737 C745 0.930 . S
H738 C746 0.930 . S
H739 C747 0.930 . S
H740 C750 0.930 . S
H741 C751 0.930 . S
C742 H736 0.930 . S
C742 C743 1.355 . S
C742 C744 1.415 . S
C743 C742 1.355 . S
C743 C745 1.419 1_655 S
C744 C742 1.415 . S
C744 C749 1.425 1_655 S
C744 C751 1.409 . S
C745 H737 0.930 . S
C745 C743 1.419 1_455 S
C745 C746 1.362 . S
C746 H738 0.930 . S
C746 C745 1.362 . S
C746 C749 1.409 . S
C747 H739 0.930 . S
C747 C748 1.355 . S
C747 C749 1.415 . S
C748 C747 1.355 . S
C748 C750 1.419 1_455 S
C749 C744 1.425 1_455 S
C749 C746 1.409 . S
C749 C747 1.415 . S
C750 H740 0.930 . S
C750 C748 1.419 1_655 S
C750 C751 1.362 . S
C751 H741 0.930 . S
C751 C744 1.409 . S
C751 C750 1.362 . S
H752 C758 0.930 . S
H753 C761 0.930 . S
H754 C762 0.930 . S
H755 C763 0.930 . S
H756 C766 0.930 . S
H757 C767 0.930 . S
C758 H752 0.930 . S
C758 C759 1.355 . S
C758 C760 1.415 . S
C759 C758 1.355 . S
C759 C761 1.419 1_545 S
C760 C758 1.415 . S
C760 C765 1.425 1_545 S
C760 C767 1.409 . S
C761 H753 0.930 . S
C761 C759 1.419 1_565 S
C761 C762 1.362 . S
C762 H754 0.930 . S
C762 C761 1.362 . S
C762 C765 1.409 . S
C763 H755 0.930 . S
C763 C764 1.355 . S
C763 C765 1.415 . S
C764 C763 1.355 . S
C764 C766 1.419 1_565 S
C765 C760 1.425 1_565 S
C765 C762 1.409 . S
C765 C763 1.415 . S
C766 H756 0.930 . S
C766 C764 1.419 1_545 S
C766 C767 1.362 . S
C767 H757 0.930 . S
C767 C760 1.409 . S
C767 C766 1.362 . S
H768 C774 0.930 . S
H769 C777 0.930 . S
H770 C778 0.930 . S
H771 C779 0.930 . S
H772 C782 0.930 . S
H773 C783 0.930 . S
C774 H768 0.930 . S
C774 C775 1.355 . S
C774 C776 1.415 . S
C775 C774 1.355 . S
C775 C777 1.419 . S
C776 C774 1.415 . S
C776 C781 1.425 . S
C776 C783 1.409 . S
C777 H769 0.930 . S
C777 C775 1.419 . S
C777 C778 1.362 . S
C778 H770 0.930 . S
C778 C777 1.362 . S
C778 C781 1.409 . S
C779 H771 0.930 . S
C779 C780 1.355 . S
C779 C781 1.415 . S
C780 C779 1.355 . S
C780 C782 1.419 . S
C781 C776 1.425 . S
C781 C778 1.409 . S
C781 C779 1.415 . S
C782 H772 0.930 . S
C782 C780 1.419 . S
C782 C783 1.362 . S
C783 H773 0.930 . S
C783 C776 1.409 . S
C783 C782 1.362 . S
H784 C790 0.930 . S
H785 C793 0.930 . S
H786 C794 0.930 . S
H787 C795 0.930 . S
H788 C798 0.930 . S
H789 C799 0.930 . S
C790 H784 0.930 . S
C790 C791 1.355 . S
C790 C792 1.415 . S
C791 C790 1.355 . S
C791 C793 1.419 . S
C792 C790 1.415 . S
C792 C797 1.425 . S
C792 C799 1.409 . S
C793 H785 0.930 . S
C793 C791 1.419 . S
C793 C794 1.362 . S
C794 H786 0.930 . S
C794 C793 1.362 . S
C794 C797 1.409 . S
C795 H787 0.930 . S
C795 C796 1.355 . S
C795 C797 1.415 . S
C796 C795 1.355 . S
C796 C798 1.419 . S
C797 C792 1.425 . S
C797 C794 1.409 . S
C797 C795 1.415 . S
C798 H788 0.930 . S
C798 C796 1.419 . S
C798 C799 1.362 . S
C799 H789 0.930 . S
C799 C792 1.409 . S
C799 C798 1.362 . S
H800 C806 0.930 . S
H801 C809 0.930 . S
H802 C810 0.930 . S
H803 C811 0.930 . S
H804 C814 0.930 . S
H805 C815 0.930 . S
C806 H800 0.930 . S
C806 C807 1.355 . S
C806 C808 1.415 . S
C807 C806 1.355 . S
C807 C809 1.419 . S
C808 C806 1.415 . S
C808 C813 1.425 . S
C808 C815 1.409 . S
C809 H801 0.930 . S
C809 C807 1.419 . S
C809 C810 1.362 . S
C810 H802 0.930 . S
C810 C809 1.362 . S
C810 C813 1.409 . S
C811 H803 0.930 . S
C811 C812 1.355 . S
C811 C813 1.415 . S
C812 C811 1.355 . S
C812 C814 1.419 . S
C813 C808 1.425 . S
C813 C810 1.409 . S
C813 C811 1.415 . S
C814 H804 0.930 . S
C814 C812 1.419 . S
C814 C815 1.362 . S
C815 H805 0.930 . S
C815 C808 1.409 . S
C815 C814 1.362 . S
H816 C822 0.930 . S
H817 C825 0.930 . S
H818 C826 0.930 . S
H819 C827 0.930 . S
H820 C830 0.930 . S
H821 C831 0.930 . S
C822 H816 0.930 . S
C822 C823 1.355 . S
C822 C824 1.415 . S
C823 C822 1.355 . S
C823 C825 1.419 . S
C824 C822 1.415 . S
C824 C829 1.425 . S
C824 C831 1.409 . S
C825 H817 0.930 . S
C825 C823 1.419 . S
C825 C826 1.362 . S
C826 H818 0.930 . S
C826 C825 1.362 . S
C826 C829 1.409 . S
C827 H819 0.930 . S
C827 C828 1.355 . S
C827 C829 1.415 . S
C828 C827 1.355 . S
C828 C830 1.419 . S
C829 C824 1.425 . S
C829 C826 1.409 . S
C829 C827 1.415 . S
C830 H820 0.930 . S
C830 C828 1.419 . S
C830 C831 1.362 . S
C831 H821 0.930 . S
C831 C824 1.409 . S
C831 C830 1.362 . S
H832 C838 0.930 . S
H833 C841 0.930 . S
H834 C842 0.930 . S
H835 C843 0.930 . S
H836 C846 0.930 . S
H837 C847 0.930 . S
C838 H832 0.930 . S
C838 C839 1.355 . S
C838 C840 1.415 . S
C839 C838 1.355 . S
C839 C841 1.419 . S
C840 C838 1.415 . S
C840 C845 1.425 . S
C840 C847 1.409 . S
C841 H833 0.930 . S
C841 C839 1.419 . S
C841 C842 1.362 . S
C842 H834 0.930 . S
C842 C841 1.362 . S
C842 C845 1.409 . S
C843 H835 0.930 . S
C843 C844 1.355 . S
C843 C845 1.415 1_554 S
C844 C843 1.355 . S
C844 C846 1.419 . S
C845 C840 1.425 . S
C845 C842 1.409 . S
C845 C843 1.415 1_556 S
C846 H836 0.930 . S
C846 C844 1.419 . S
C846 C847 1.362 1_554 S
C847 H837 0.930 . S
C847 C840 1.409 . S
C847 C846 1.362 1_556 S
H848 C854 0.930 . S
H849 C857 0.930 . S
H850 C858 0.930 . S
H851 C859 0.930 . S
H852 C862 0.930 . S
H853 C863 0.930 . S
C854 H848 0.930 . S
C854 C855 1.355 . S
C854 C856 1.415 1_556 S
C855 C854 1.355 . S
C855 C857 1.419 . S
C856 C854 1.415 1_554 S
C856 C861 1.425 . S
C856 C863 1.409 . S
C857 H849 0.930 . S
C857 C855 1.419 . S
C857 C858 1.362 1_556 S
C858 H850 0.930 . S
C858 C857 1.362 1_554 S
C858 C861 1.409 . S
C859 H851 0.930 . S
C859 C860 1.355 . S
C859 C861 1.415 . S
C860 C859 1.355 . S
C860 C862 1.419 . S
C861 C856 1.425 . S
C861 C858 1.409 . S
C861 C859 1.415 . S
C862 H852 0.930 . S
C862 C860 1.419 . S
C862 C863 1.362 . S
C863 H853 0.930 . S
C863 C856 1.409 . S
C863 C862 1.362 . S
H864 C870 0.930 . S
H865 C873 0.928 . S
H866 C874 0.930 . S
H867 C875 0.930 . S
H868 C878 0.930 . S
H869 C879 0.930 . S
C870 H864 0.930 . S
C870 C871 1.355 . S
C870 C872 1.415 1_554 S
C871 C870 1.355 . S
C871 C873 1.416 . S
C872 C870 1.415 1_556 S
C872 C877 1.425 . S
C872 C879 1.409 . S
C873 H865 0.928 . S
C873 C871 1.416 . S
C873 C874 1.366 1_554 S
C874 H866 0.930 . S
C874 C873 1.366 1_556 S
C874 C877 1.409 . S
C875 H867 0.930 . S
C875 C876 1.355 . S
C875 C877 1.415 . S
C876 C875 1.355 . S
C876 C878 1.419 . S
C877 C872 1.425 . S
C877 C874 1.409 . S
C877 C875 1.415 . S
C878 H868 0.930 . S
C878 C876 1.419 . S
C878 C879 1.362 . S
C879 H869 0.930 . S
C879 C872 1.409 . S
C879 C878 1.362 . S
H880 C886 0.930 . S
H881 C889 0.930 . S
H882 C890 0.930 . S
H883 C891 0.930 . S
H884 C894 0.930 . S
H885 C895 0.930 . S
C886 H880 0.930 . S
C886 C887 1.355 . S
C886 C888 1.415 1_556 S
C887 C886 1.355 . S
C887 C889 1.419 . S
C888 C886 1.415 1_554 S
C888 C893 1.425 . S
C888 C895 1.409 . S
C889 H881 0.930 . S
C889 C887 1.419 . S
C889 C890 1.362 1_556 S
C890 H882 0.930 . S
C890 C889 1.362 1_554 S
C890 C893 1.409 . S
C891 H883 0.930 . S
C891 C892 1.355 . S
C891 C893 1.415 . S
C892 C891 1.355 . S
C892 C894 1.419 . S
C893 C888 1.425 . S
C893 C890 1.409 . S
C893 C891 1.415 . S
C894 H884 0.930 . S
C894 C892 1.419 . S
C894 C895 1.362 . S
C895 H885 0.930 . S
C895 C888 1.409 . S
C895 C894 1.362 . S
H896 C902 0.930 . S
H897 C905 0.930 . S
H898 C906 0.930 . S
H899 C907 0.930 . S
H900 C910 0.930 . S
H901 C911 0.930 . S
C902 H896 0.930 . S
C902 C903 1.355 . S
C902 C904 1.415 . S
C903 C902 1.355 . S
C903 C905 1.419 . S
C904 C902 1.415 . S
C904 C909 1.425 . S
C904 C911 1.409 . S
C905 H897 0.930 . S
C905 C903 1.419 . S
C905 C906 1.362 . S
C906 H898 0.930 . S
C906 C905 1.362 . S
C906 C909 1.409 . S
C907 H899 0.930 . S
C907 C908 1.355 . S
C907 C909 1.415 . S
C908 C907 1.355 . S
C908 C910 1.419 . S
C909 C904 1.425 . S
C909 C906 1.409 . S
C909 C907 1.415 . S
C910 H900 0.930 . S
C910 C908 1.419 . S
C910 C911 1.362 . S
C911 H901 0.930 . S
C911 C904 1.409 . S
C911 C910 1.362 . S
H912 C918 0.930 . S
H913 C921 0.930 . S
H914 C922 0.930 . S
H915 C923 0.930 . S
H916 C926 0.930 . S
H917 C927 0.930 . S
C918 H912 0.930 . S
C918 C919 1.355 . S
C918 C920 1.415 . S
C919 C918 1.355 . S
C919 C921 1.419 . S
C920 C918 1.415 . S
C920 C925 1.425 . S
C920 C927 1.409 . S
C921 H913 0.930 . S
C921 C919 1.419 . S
C921 C922 1.362 . S
C922 H914 0.930 . S
C922 C921 1.362 . S
C922 C925 1.409 . S
C923 H915 0.930 . S
C923 C924 1.355 . S
C923 C925 1.415 . S
C924 C923 1.355 . S
C924 C926 1.419 . S
C925 C920 1.425 . S
C925 C922 1.409 . S
C925 C923 1.415 . S
C926 H916 0.930 . S
C926 C924 1.419 . S
C926 C927 1.362 . S
C927 H917 0.930 . S
C927 C920 1.409 . S
C927 C926 1.362 . S
H928 C934 0.930 . S
H929 C937 0.930 . S
H930 C938 0.930 . S
H931 C939 0.930 . S
H932 C942 0.930 . S
H933 C943 0.930 . S
C934 H928 0.930 . S
C934 C935 1.355 . S
C934 C936 1.415 . S
C935 C934 1.355 . S
C935 C937 1.419 . S
C936 C934 1.415 . S
C936 C941 1.425 . S
C936 C943 1.409 . S
C937 H929 0.930 . S
C937 C935 1.419 . S
C937 C938 1.362 . S
C938 H930 0.930 . S
C938 C937 1.362 . S
C938 C941 1.409 . S
C939 H931 0.930 . S
C939 C940 1.355 . S
C939 C941 1.415 . S
C940 C939 1.355 . S
C940 C942 1.419 . S
C941 C936 1.425 . S
C941 C938 1.409 . S
C941 C939 1.415 . S
C942 H932 0.930 . S
C942 C940 1.419 . S
C942 C943 1.362 . S
C943 H933 0.930 . S
C943 C936 1.409 . S
C943 C942 1.362 . S
H944 C950 0.930 . S
H945 C953 0.930 . S
H946 C954 0.930 . S
H947 C955 0.930 . S
H948 C958 0.930 . S
H949 C959 0.930 . S
C950 H944 0.930 . S
C950 C951 1.355 . S
C950 C952 1.415 . S
C951 C950 1.355 . S
C951 C953 1.419 . S
C952 C950 1.415 . S
C952 C957 1.425 . S
C952 C959 1.409 . S
C953 H945 0.930 . S
C953 C951 1.419 . S
C953 C954 1.362 . S
C954 H946 0.930 . S
C954 C953 1.362 . S
C954 C957 1.409 . S
C955 H947 0.930 . S
C955 C956 1.355 . S
C955 C957 1.415 . S
C956 C955 1.355 . S
C956 C958 1.419 . S
C957 C952 1.425 . S
C957 C954 1.409 . S
C957 C955 1.415 . S
C958 H948 0.930 . S
C958 C956 1.419 . S
C958 C959 1.362 . S
C959 H949 0.930 . S
C959 C952 1.409 . S
C959 C958 1.362 . S
C711 C205 1.237 . S
C716 C29 1.236 . S
C727 C321 1.229 . S
C732 C117 1.228 . S
C743 C401 1.175 . S
C748 C557 1.177 . S
C759 C489 1.187 . S
C764 C673 1.187 . S
C775 C108 0.808 . S
C780 C57 0.823 . S
C791 C145 0.931 . S
C796 C225 0.893 . S
C807 C313 0.912 . S
C812 C233 0.830 . S
C823 C293 0.910 . S
C828 C49 0.926 . S
C839 C636 0.877 . S
C844 C372 0.932 . S
C855 C460 0.800 . S
C860 C409 0.834 . S
C871 C585 0.902 . S
C876 C469 0.818 . S
C887 C645 0.811 . S
C892 C548 0.816 . S
C903 C20 2.128 . S
C908 C497 2.132 . S
C919 C577 2.102 . S
C924 C137 2.103 . S
C935 C196 2.122 . S
C940 C665 2.126 . S
C951 C284 2.153 . S
C956 C381 2.155 . S
