# Generated by pormake.
# Topology ukb, (4)-cn, num edge types: 1
# Building blocks:
#     Node 0, Type 0, BuildingBlock: KUFVIS_clean_sbu_0, # of connection points: 4
#     Node 1, Type 0, BuildingBlock: KUFVIS_clean_sbu_0, # of connection points: 4
#     Node 2, Type 0, BuildingBlock: KUFVIS_clean_sbu_0, # of connection points: 4
#     Node 3, Type 0, BuildingBlock: KUFVIS_clean_sbu_0, # of connection points: 4
#     Node 4, Type 0, BuildingBlock: KUFVIS_clean_sbu_0, # of connection points: 4
#     Node 5, Type 0, BuildingBlock: KUFVIS_clean_sbu_0, # of connection points: 4
#     Node 6, Type 0, BuildingBlock: KUFVIS_clean_sbu_0, # of connection points: 4
#     Node 7, Type 0, BuildingBlock: KUFVIS_clean_sbu_0, # of connection points: 4
#     Node 8, Type 0, BuildingBlock: KUFVIS_clean_sbu_0, # of connection points: 4
#     Node 9, Type 0, BuildingBlock: KUFVIS_clean_sbu_0, # of connection points: 4
#     Node 10, Type 0, BuildingBlock: KUFVIS_clean_sbu_0, # of connection points: 4
#     Node 11, Type 0, BuildingBlock: KUFVIS_clean_sbu_0, # of connection points: 4
#     Node 12, Type 0, BuildingBlock: KUFVIS_clean_sbu_0, # of connection points: 4
#     Node 13, Type 0, BuildingBlock: KUFVIS_clean_sbu_0, # of connection points: 4
#     Node 14, Type 0, BuildingBlock: KUFVIS_clean_sbu_0, # of connection points: 4
#     Node 15, Type 0, BuildingBlock: KUFVIS_clean_sbu_0, # of connection points: 4
#     Edge 16, Type (0, 0), BuildingBlock: ZUJKAS_clean_linker_0, # of connection points: 2
#     Edge 17, Type (0, 0), BuildingBlock: ZUJKAS_clean_linker_0, # of connection points: 2
#     Edge 18, Type (0, 0), BuildingBlock: ZUJKAS_clean_linker_0, # of connection points: 2
#     Edge 19, Type (0, 0), BuildingBlock: ZUJKAS_clean_linker_0, # of connection points: 2
#     Edge 20, Type (0, 0), BuildingBlock: ZUJKAS_clean_linker_0, # of connection points: 2
#     Edge 21, Type (0, 0), BuildingBlock: ZUJKAS_clean_linker_0, # of connection points: 2
#     Edge 22, Type (0, 0), BuildingBlock: ZUJKAS_clean_linker_0, # of connection points: 2
#     Edge 23, Type (0, 0), BuildingBlock: ZUJKAS_clean_linker_0, # of connection points: 2
#     Edge 24, Type (0, 0), BuildingBlock: ZUJKAS_clean_linker_0, # of connection points: 2
#     Edge 25, Type (0, 0), BuildingBlock: ZUJKAS_clean_linker_0, # of connection points: 2
#     Edge 26, Type (0, 0), BuildingBlock: ZUJKAS_clean_linker_0, # of connection points: 2
#     Edge 27, Type (0, 0), BuildingBlock: ZUJKAS_clean_linker_0, # of connection points: 2
#     Edge 28, Type (0, 0), BuildingBlock: ZUJKAS_clean_linker_0, # of connection points: 2
#     Edge 29, Type (0, 0), BuildingBlock: ZUJKAS_clean_linker_0, # of connection points: 2
#     Edge 30, Type (0, 0), BuildingBlock: ZUJKAS_clean_linker_0, # of connection points: 2
#     Edge 31, Type (0, 0), BuildingBlock: ZUJKAS_clean_linker_0, # of connection points: 2
#     Edge 32, Type (0, 0), BuildingBlock: ZUJKAS_clean_linker_0, # of connection points: 2
#     Edge 33, Type (0, 0), BuildingBlock: ZUJKAS_clean_linker_0, # of connection points: 2
#     Edge 34, Type (0, 0), BuildingBlock: ZUJKAS_clean_linker_0, # of connection points: 2
#     Edge 35, Type (0, 0), BuildingBlock: ZUJKAS_clean_linker_0, # of connection points: 2
#     Edge 36, Type (0, 0), BuildingBlock: ZUJKAS_clean_linker_0, # of connection points: 2
#     Edge 37, Type (0, 0), BuildingBlock: ZUJKAS_clean_linker_0, # of connection points: 2
#     Edge 38, Type (0, 0), BuildingBlock: ZUJKAS_clean_linker_0, # of connection points: 2
#     Edge 39, Type (0, 0), BuildingBlock: ZUJKAS_clean_linker_0, # of connection points: 2
#     Edge 40, Type (0, 0), BuildingBlock: ZUJKAS_clean_linker_0, # of connection points: 2
#     Edge 41, Type (0, 0), BuildingBlock: ZUJKAS_clean_linker_0, # of connection points: 2
#     Edge 42, Type (0, 0), BuildingBlock: ZUJKAS_clean_linker_0, # of connection points: 2
#     Edge 43, Type (0, 0), BuildingBlock: ZUJKAS_clean_linker_0, # of connection points: 2
#     Edge 44, Type (0, 0), BuildingBlock: ZUJKAS_clean_linker_0, # of connection points: 2
#     Edge 45, Type (0, 0), BuildingBlock: ZUJKAS_clean_linker_0, # of connection points: 2
#     Edge 46, Type (0, 0), BuildingBlock: ZUJKAS_clean_linker_0, # of connection points: 2
#     Edge 47, Type (0, 0), BuildingBlock: ZUJKAS_clean_linker_0, # of connection points: 2
# Relax obj value: 0.090
# Max RMSD: 0.068
# Mean RMSD: 0.068
data_MOF--net-ukb--node1-KUFVIS_clean_sbu_0--edge1-ZUJKAS_clean_linker_0
_symmetry_space_group_name_H-M    P1
_symmetry_Int_Tables_number       1
_symmetry_cell_setting            triclinic
loop_
_symmetry_equiv_pos_as_xyz
'x, y, z'
_cell_length_a     55.970973
_cell_length_b     55.950848
_cell_length_c     49.438627
_cell_angle_alpha  89.997799
_cell_angle_beta   89.995317
_cell_angle_gamma 89.999524
loop_
_atom_site_label
_atom_site_type_symbol
_atom_site_fract_x
_atom_site_fract_y
_atom_site_fract_z
_atom_type_partial_charge
Mn0 Mn 0.52582 0.18932 0.18651 0.0
Mn1 Mn 0.57707 0.18778 0.15046 0.0
C2 C 0.55904 0.17035 0.2042 0.0
C3 C 0.48869 0.17264 0.19654 0.0
C4 C 0.56062 0.23129 0.18211 0.0
O5 O 0.51496 0.19934 0.14884 0.0
O6 O 0.54963 0.19494 0.12642 0.0
C7 C 0.5664 0.14481 0.11771 0.0
N8 N 0.58103 0.15671 0.13511 0.0
C9 C 0.61004 0.12503 0.1338 0.0
C10 C 0.59536 0.11247 0.11573 0.0
C11 C 0.57338 0.12236 0.10777 0.0
C12 C 0.60203 0.14722 0.14321 0.0
H13 H 0.54955 0.15241 0.11144 0.0
C14 C 0.52727 0.19966 0.12715 0.0
O15 O 0.49316 0.195 0.20153 0.0
O16 O 0.50552 0.16035 0.18509 0.0
N17 N 0.60546 0.18091 0.17056 0.0
C18 C 0.6172 0.19501 0.18868 0.0
C19 C 0.6393 0.18747 0.19909 0.0
C20 C 0.64935 0.16581 0.1903 0.0
C21 C 0.63715 0.15183 0.17123 0.0
C22 C 0.61512 0.16017 0.16174 0.0
H23 H 0.60972 0.21184 0.1952 0.0
O24 O 0.54163 0.17694 0.2198 0.0
O25 O 0.55622 0.1743 0.17844 0.0
O26 O 0.54168 0.22204 0.19208 0.0
O27 O 0.57464 0.22019 0.16601 0.0
C28 C 0.64593 0.12989 0.16135 0.0
C29 C 0.63228 0.11639 0.14287 0.0
H30 H 0.60074 0.0952 0.10793 0.0
H31 H 0.56191 0.11275 0.0939 0.0
H32 H 0.64863 0.1984 0.21373 0.0
H33 H 0.6664 0.16007 0.19836 0.0
H34 H 0.66309 0.12313 0.16797 0.0
H35 H 0.63907 0.09938 0.13575 0.0
Mn36 Mn 0.31161 0.52784 0.68366 0.0
Mn37 Mn 0.31284 0.57872 0.64696 0.0
C38 C 0.32998 0.56139 0.7013 0.0
C39 C 0.32828 0.49085 0.69378 0.0
C40 C 0.26911 0.56156 0.67779 0.0
O41 O 0.30206 0.51672 0.64595 0.0
O42 O 0.30762 0.55087 0.62279 0.0
C43 C 0.35741 0.56968 0.61641 0.0
N44 N 0.34427 0.58389 0.63311 0.0
C45 C 0.37519 0.61375 0.63406 0.0
C46 C 0.38902 0.5995 0.61674 0.0
C47 C 0.38012 0.57734 0.60796 0.0
C48 C 0.35275 0.60513 0.64187 0.0
H49 H 0.35061 0.55264 0.60962 0.0
C50 C 0.30277 0.52852 0.6239 0.0
O51 O 0.30596 0.49532 0.69888 0.0
O52 O 0.34067 0.50765 0.68237 0.0
N53 N 0.31781 0.6074 0.66726 0.0
C54 C 0.30249 0.61871 0.68446 0.0
C55 C 0.30866 0.64118 0.69501 0.0
C56 C 0.33036 0.65191 0.68752 0.0
C57 C 0.34579 0.63999 0.66973 0.0
C58 C 0.33857 0.61776 0.65964 0.0
H59 H 0.28564 0.61071 0.69001 0.0
O60 O 0.32364 0.54393 0.71695 0.0
O61 O 0.32621 0.55838 0.67553 0.0
O62 O 0.27879 0.54337 0.6889 0.0
O63 O 0.27998 0.57516 0.66104 0.0
C64 C 0.36814 0.64922 0.66179 0.0
C65 C 0.38289 0.63604 0.64409 0.0
H66 H 0.40653 0.60535 0.61018 0.0
H67 H 0.39072 0.5662 0.59468 0.0
H68 H 0.29667 0.65027 0.70875 0.0
H69 H 0.33498 0.66933 0.6955 0.0
H70 H 0.37427 0.6663 0.66941 0.0
H71 H 0.40016 0.64318 0.63837 0.0
Mn72 Mn 0.97602 0.31135 0.18272 0.0
Mn73 Mn 0.92439 0.31105 0.14741 0.0
C74 C 0.94256 0.32969 0.20067 0.0
C75 C 0.01276 0.32912 0.19185 0.0
C76 C 0.94283 0.26823 0.17898 0.0
O77 O 0.98653 0.30104 0.14498 0.0
O78 O 0.95177 0.30557 0.12268 0.0
C79 C 0.93215 0.35498 0.11524 0.0
N80 N 0.9185 0.34208 0.13275 0.0
C81 C 0.88831 0.37268 0.13368 0.0
C82 C 0.90197 0.38625 0.11551 0.0
C83 C 0.92402 0.37739 0.10633 0.0
C84 C 0.89737 0.35052 0.1419 0.0
H85 H 0.9491 0.34821 0.10814 0.0
C86 C 0.97418 0.30099 0.12329 0.0
O87 O 0.00891 0.30676 0.19746 0.0
O88 O 0.99561 0.34079 0.1802 0.0
N89 N 0.89612 0.31616 0.16839 0.0
C90 C 0.88544 0.30114 0.18641 0.0
C91 C 0.86319 0.30734 0.19751 0.0
C92 C 0.85203 0.32874 0.18972 0.0
C93 C 0.86331 0.34386 0.17107 0.0
C94 C 0.88535 0.33662 0.16047 0.0
H95 H 0.89377 0.28452 0.19223 0.0
O96 O 0.96038 0.32389 0.21606 0.0
O97 O 0.94513 0.32534 0.17496 0.0
O98 O 0.96113 0.27837 0.18931 0.0
O99 O 0.9287 0.27859 0.16237 0.0
C100 C 0.85364 0.36592 0.16274 0.0
C101 C 0.8662 0.38038 0.14417 0.0
H102 H 0.89577 0.40354 0.1086 0.0
H103 H 0.93471 0.3878 0.0924 0.0
H104 H 0.85459 0.29558 0.21191 0.0
H105 H 0.83478 0.33337 0.19814 0.0
H106 H 0.83669 0.37205 0.17073 0.0
H107 H 0.85873 0.39743 0.13817 0.0
Mn108 Mn 0.19027 0.97437 0.68586 0.0
Mn109 Mn 0.18932 0.92138 0.65306 0.0
C110 C 0.17151 0.9419 0.70553 0.0
C111 C 0.17364 0.01189 0.69385 0.0
C112 C 0.23258 0.93975 0.68373 0.0
O113 O 0.20006 0.9835 0.64756 0.0
O114 O 0.19621 0.94773 0.62729 0.0
C115 C 0.14616 0.92995 0.61984 0.0
N116 N 0.1583 0.91629 0.63803 0.0
C117 C 0.12665 0.88721 0.63924 0.0
C118 C 0.11385 0.9009 0.62039 0.0
C119 C 0.12362 0.92241 0.61074 0.0
C120 C 0.14897 0.8957 0.64765 0.0
H121 H 0.15363 0.94648 0.61237 0.0
C122 C 0.20061 0.97018 0.62665 0.0
O123 O 0.19602 0.00762 0.69887 0.0
O124 O 0.16123 0.99459 0.68348 0.0
N125 N 0.18282 0.89391 0.67491 0.0
C126 C 0.19717 0.88314 0.69355 0.0
C127 C 0.19004 0.86136 0.70513 0.0
C128 C 0.16842 0.85074 0.69718 0.0
C129 C 0.154 0.8621 0.67791 0.0
C130 C 0.16214 0.88365 0.66686 0.0
H131 H 0.21396 0.89106 0.69948 0.0
O132 O 0.17806 0.96003 0.72008 0.0
O133 O 0.17551 0.9435 0.67964 0.0
O134 O 0.2231 0.9591 0.69224 0.0
O135 O 0.22168 0.92484 0.6685 0.0
C136 C 0.13177 0.85299 0.6694 0.0
C137 C 0.11803 0.86561 0.6502 0.0
H138 H 0.09647 0.89513 0.61331 0.0
H139 H 0.11382 0.93311 0.59627 0.0
H140 H 0.20126 0.8527 0.72003 0.0
H141 H 0.16306 0.83384 0.70598 0.0
H142 H 0.12494 0.83644 0.67774 0.0
H143 H 0.10084 0.85859 0.64406 0.0
Mn144 Mn 0.52817 0.30931 0.81724 0.0
Mn145 Mn 0.5806 0.30981 0.85109 0.0
C146 C 0.5609 0.32825 0.79848 0.0
C147 C 0.49089 0.32609 0.80884 0.0
C148 C 0.56265 0.26692 0.81942 0.0
O149 O 0.51845 0.29902 0.85513 0.0
O150 O 0.55384 0.30271 0.87626 0.0
C151 C 0.57162 0.35266 0.88471 0.0
N152 N 0.5855 0.34071 0.86658 0.0
C153 C 0.61443 0.37251 0.866 0.0
C154 C 0.60052 0.38511 0.8848 0.0
C155 C 0.57898 0.37517 0.89412 0.0
C156 C 0.60613 0.35019 0.8573 0.0
H157 H 0.55505 0.34507 0.89192 0.0
C158 C 0.53139 0.29829 0.87634 0.0
O159 O 0.4952 0.30381 0.80329 0.0
O160 O 0.50796 0.3383 0.81995 0.0
N161 N 0.60836 0.3165 0.8298 0.0
C162 C 0.61939 0.30231 0.81119 0.0
C163 C 0.64122 0.30965 0.7999 0.0
C164 C 0.65162 0.33131 0.8081 0.0
C165 C 0.64002 0.34554 0.82739 0.0
C166 C 0.61843 0.3372 0.83814 0.0
H167 H 0.61163 0.28551 0.80503 0.0
O168 O 0.54296 0.32195 0.78352 0.0
O169 O 0.55893 0.32396 0.82428 0.0
O170 O 0.5435 0.27657 0.81058 0.0
O171 O 0.5773 0.2776 0.83516 0.0
C172 C 0.64892 0.36777 0.83617 0.0
C173 C 0.63607 0.38131 0.85536 0.0
H174 H 0.60613 0.40247 0.89211 0.0
H175 H 0.5681 0.38482 0.90854 0.0
H176 H 0.65006 0.29858 0.785 0.0
H177 H 0.66852 0.33685 0.79948 0.0
H178 H 0.6655 0.37475 0.82808 0.0
H179 H 0.64295 0.39851 0.86173 0.0
Mn180 Mn 0.1918 0.53268 0.32001 0.0
Mn181 Mn 0.1947 0.58145 0.36005 0.0
C182 C 0.17316 0.56782 0.30675 0.0
C183 C 0.17363 0.4967 0.30826 0.0
C184 C 0.23528 0.56569 0.32342 0.0
O185 O 0.20365 0.51888 0.35575 0.0
O186 O 0.20222 0.55224 0.38101 0.0
C187 C 0.15354 0.57002 0.39536 0.0
N188 N 0.16495 0.58542 0.37839 0.0
C189 C 0.13536 0.61584 0.38595 0.0
C190 C 0.12333 0.60037 0.40364 0.0
C191 C 0.13237 0.57729 0.4082 0.0
C192 C 0.15609 0.60741 0.37332 0.0
H193 H 0.16059 0.55236 0.39911 0.0
C194 C 0.2058 0.5298 0.37825 0.0
O195 O 0.19567 0.50115 0.30175 0.0
O196 O 0.16237 0.51293 0.32201 0.0
N197 N 0.18777 0.61137 0.34315 0.0
C198 C 0.20133 0.62392 0.32519 0.0
C199 C 0.19482 0.6474 0.31847 0.0
C200 C 0.17481 0.65793 0.33079 0.0
C201 C 0.16119 0.64471 0.34932 0.0
C202 C 0.1684 0.62131 0.355 0.0
H203 H 0.21709 0.61613 0.31619 0.0
O204 O 0.17803 0.55123 0.28929 0.0
O205 O 0.17848 0.56305 0.3318 0.0
O206 O 0.22464 0.54767 0.31314 0.0
O207 O 0.22587 0.57909 0.34146 0.0
C208 C 0.14085 0.65389 0.36258 0.0
C209 C 0.12774 0.63935 0.38054 0.0
H210 H 0.10715 0.60602 0.41382 0.0
H211 H 0.12317 0.56522 0.42177 0.0
H212 H 0.2054 0.6575 0.30415 0.0
H213 H 0.17007 0.67619 0.32584 0.0
H214 H 0.13501 0.67206 0.35892 0.0
H215 H 0.11192 0.64649 0.39025 0.0
Mn216 Mn 0.97259 0.18905 0.81527 0.0
Mn217 Mn 0.92169 0.18717 0.85199 0.0
C218 C 0.93945 0.16956 0.79816 0.0
C219 C 0.00996 0.17317 0.80485 0.0
C220 C 0.93718 0.23056 0.81957 0.0
O221 O 0.98371 0.19942 0.85272 0.0
O222 O 0.94926 0.19508 0.87556 0.0
C223 C 0.93344 0.14475 0.88517 0.0
N224 N 0.91843 0.15621 0.86781 0.0
C225 C 0.89005 0.12399 0.86982 0.0
C226 C 0.90514 0.11188 0.88785 0.0
C227 C 0.92699 0.12226 0.89545 0.0
C228 C 0.89755 0.14624 0.86005 0.0
H229 H 0.95019 0.15274 0.89116 0.0
C230 C 0.97158 0.19996 0.87453 0.0
O231 O 0.00491 0.19539 0.79983 0.0
O232 O 0.99353 0.16048 0.81651 0.0
N233 N 0.89318 0.17964 0.83242 0.0
C234 C 0.88092 0.19342 0.81442 0.0
C235 C 0.85882 0.18543 0.80448 0.0
C236 C 0.8493 0.16364 0.81359 0.0
C237 C 0.86201 0.14999 0.83253 0.0
C238 C 0.88402 0.15879 0.84159 0.0
H239 H 0.88799 0.21036 0.80766 0.0
O240 O 0.95663 0.17627 0.7823 0.0
O241 O 0.94246 0.17367 0.82387 0.0
O242 O 0.9562 0.22147 0.80967 0.0
O243 O 0.92339 0.21945 0.83593 0.0
C244 C 0.85378 0.12795 0.84272 0.0
C245 C 0.86789 0.11485 0.86114 0.0
H246 H 0.90016 0.09458 0.89592 0.0
H247 H 0.93876 0.113 0.90929 0.0
H248 H 0.84907 0.1961 0.78994 0.0
H249 H 0.83223 0.15755 0.80589 0.0
H250 H 0.83668 0.12081 0.83641 0.0
H251 H 0.8615 0.09778 0.86852 0.0
Mn252 Mn 0.30714 0.97036 0.3138 0.0
Mn253 Mn 0.3062 0.91825 0.34843 0.0
C254 C 0.32461 0.93668 0.29501 0.0
C255 C 0.32496 0.00715 0.30464 0.0
C256 C 0.26378 0.93706 0.31666 0.0
O257 O 0.29765 0.98094 0.35173 0.0
O258 O 0.29981 0.94553 0.37299 0.0
C259 C 0.34927 0.92685 0.38181 0.0
N260 N 0.33686 0.91281 0.36424 0.0
C261 C 0.36728 0.88247 0.36555 0.0
C262 C 0.38034 0.89653 0.3838 0.0
C263 C 0.37133 0.91886 0.39187 0.0
C264 C 0.34547 0.89143 0.35613 0.0
H265 H 0.34238 0.94401 0.38807 0.0
C266 C 0.29634 0.96812 0.37298 0.0
O267 O 0.30245 0.00346 0.29977 0.0
O268 O 0.33685 0.98968 0.31545 0.0
N269 N 0.3121 0.88981 0.3281 0.0
C270 C 0.29752 0.8787 0.30996 0.0
C271 C 0.30375 0.856 0.30017 0.0
C272 C 0.32485 0.84494 0.30913 0.0
C273 C 0.33951 0.85666 0.32787 0.0
C274 C 0.33214 0.87905 0.33734 0.0
H275 H 0.28115 0.88698 0.30322 0.0
O276 O 0.31872 0.95478 0.28008 0.0
O277 O 0.3209 0.93902 0.32094 0.0
O278 O 0.27381 0.95604 0.30789 0.0
O279 O 0.27415 0.92211 0.3323 0.0
C280 C 0.3612 0.84707 0.33743 0.0
C281 C 0.37516 0.86004 0.35613 0.0
H282 H 0.39736 0.89042 0.39162 0.0
H283 H 0.38135 0.92986 0.40586 0.0
H284 H 0.29228 0.84702 0.28577 0.0
H285 H 0.32967 0.82747 0.30141 0.0
H286 H 0.36743 0.82985 0.33034 0.0
H287 H 0.39194 0.85262 0.36309 0.0
Mn288 Mn 0.47266 0.81194 0.81493 0.0
Mn289 Mn 0.4207 0.81369 0.84971 0.0
C290 C 0.44024 0.83219 0.79714 0.0
C291 C 0.51045 0.82754 0.80599 0.0
C292 C 0.4364 0.77091 0.81648 0.0
O293 O 0.48268 0.80083 0.8525 0.0
O294 O 0.44745 0.80447 0.87387 0.0
C295 C 0.43242 0.85481 0.88496 0.0
N296 N 0.41765 0.84421 0.86665 0.0
C297 C 0.38987 0.87693 0.86905 0.0
C298 C 0.40471 0.88816 0.88804 0.0
C299 C 0.42614 0.87709 0.89593 0.0
C300 C 0.39719 0.85486 0.85862 0.0
H301 H 0.44884 0.84629 0.89118 0.0
C302 C 0.46979 0.79959 0.87371 0.0
O303 O 0.50528 0.80545 0.8004 0.0
O304 O 0.4939 0.84023 0.81745 0.0
N305 N 0.39287 0.82242 0.82955 0.0
C306 C 0.38074 0.80939 0.81073 0.0
C307 C 0.35901 0.81809 0.8005 0.0
C308 C 0.3497 0.83978 0.81016 0.0
C309 C 0.36225 0.85264 0.82993 0.0
C310 C 0.38388 0.84315 0.83925 0.0
H311 H 0.38762 0.79252 0.80355 0.0
O312 O 0.45773 0.82548 0.78173 0.0
O313 O 0.44249 0.82758 0.82285 0.0
O314 O 0.45606 0.77979 0.80801 0.0
O315 O 0.42216 0.78195 0.83239 0.0
C316 C 0.35419 0.87451 0.84074 0.0
C317 C 0.3681 0.88676 0.86007 0.0
H318 H 0.39986 0.90528 0.89666 0.0
H319 H 0.43773 0.88567 0.91052 0.0
H320 H 0.34938 0.80802 0.78532 0.0
H321 H 0.3329 0.8464 0.80225 0.0
H322 H 0.33738 0.88217 0.83421 0.0
H323 H 0.36185 0.90372 0.86794 0.0
Mn324 Mn 0.69201 0.47183 0.31302 0.0
Mn325 Mn 0.69191 0.42025 0.34867 0.0
C326 C 0.67394 0.43822 0.29479 0.0
C327 C 0.67493 0.50888 0.3034 0.0
C328 C 0.73469 0.43776 0.31656 0.0
O329 O 0.70183 0.48274 0.35075 0.0
O330 O 0.69865 0.44778 0.37271 0.0
C331 C 0.64882 0.43004 0.3816 0.0
N332 N 0.6611 0.41554 0.36439 0.0
C333 C 0.63021 0.38569 0.36612 0.0
C334 C 0.61728 0.40023 0.384 0.0
C335 C 0.62659 0.42255 0.39168 0.0
C336 C 0.65219 0.39417 0.35664 0.0
H337 H 0.65597 0.44718 0.38759 0.0
C338 C 0.70273 0.47026 0.37228 0.0
O339 O 0.69733 0.50464 0.29845 0.0
O340 O 0.66271 0.49179 0.3145 0.0
N341 N 0.6857 0.39157 0.32891 0.0
C342 C 0.7003 0.37987 0.31129 0.0
C343 C 0.69385 0.35706 0.30204 0.0
C344 C 0.67248 0.34651 0.31098 0.0
C345 C 0.65783 0.35881 0.32926 0.0
C346 C 0.66545 0.38128 0.33823 0.0
H347 H 0.71689 0.38774 0.30458 0.0
O348 O 0.68005 0.45607 0.27958 0.0
O349 O 0.67768 0.44083 0.32068 0.0
O350 O 0.72501 0.4567 0.30718 0.0
O351 O 0.72406 0.42339 0.33268 0.0
C352 C 0.63594 0.34971 0.33886 0.0
C353 C 0.62206 0.36321 0.35715 0.0
H354 H 0.60014 0.3945 0.39185 0.0
H355 H 0.61668 0.43392 0.40539 0.0
H356 H 0.70535 0.34759 0.28808 0.0
H357 H 0.66747 0.32897 0.30364 0.0
H358 H 0.62952 0.33244 0.33214 0.0
H359 H 0.60514 0.35615 0.36417 0.0
Mn360 Mn 0.02912 0.69038 0.8122 0.0
Mn361 Mn 0.08044 0.69024 0.84822 0.0
C362 C 0.06315 0.67358 0.79357 0.0
C363 C 0.99265 0.67252 0.80174 0.0
C364 C 0.06217 0.73368 0.81777 0.0
O365 O 0.01782 0.69884 0.85019 0.0
O366 O 0.05268 0.69561 0.87236 0.0
C367 C 0.07151 0.64595 0.87939 0.0
N368 N 0.08577 0.65905 0.8627 0.0
C369 C 0.11622 0.62871 0.86323 0.0
C370 C 0.10193 0.61494 0.88056 0.0
C371 C 0.07944 0.62356 0.88858 0.0
C372 C 0.10732 0.65082 0.85465 0.0
H373 H 0.05424 0.65256 0.88563 0.0
C374 C 0.03013 0.69927 0.87186 0.0
O375 O 0.99621 0.69517 0.79757 0.0
O376 O 0.01002 0.66054 0.81257 0.0
N377 N 0.10927 0.68524 0.82829 0.0
C378 C 0.12059 0.70051 0.81107 0.0
C379 C 0.14345 0.6947 0.80142 0.0
C380 C 0.15446 0.67333 0.80964 0.0
C381 C 0.14251 0.65795 0.82744 0.0
C382 C 0.11994 0.6649 0.83678 0.0
H383 H 0.11236 0.7171 0.80495 0.0
O384 O 0.04528 0.67977 0.77845 0.0
O385 O 0.06032 0.67651 0.81956 0.0
O386 O 0.04352 0.72391 0.80773 0.0
O387 O 0.07664 0.72282 0.83355 0.0
C388 C 0.15203 0.63596 0.83618 0.0
C389 C 0.13883 0.62127 0.85393 0.0
H390 H 0.10799 0.59767 0.88772 0.0
H391 H 0.06827 0.613 0.90187 0.0
H392 H 0.1526 0.7067 0.78773 0.0
H393 H 0.17206 0.66886 0.80206 0.0
H394 H 0.16939 0.63006 0.82916 0.0
H395 H 0.14621 0.60427 0.86027 0.0
Mn396 Mn 0.81047 0.03128 0.31586 0.0
Mn397 Mn 0.81023 0.08305 0.35111 0.0
C398 C 0.82838 0.0649 0.29749 0.0
C399 C 0.82774 0.99445 0.30594 0.0
C400 C 0.7676 0.0652 0.31906 0.0
O401 O 0.80082 0.02038 0.35361 0.0
O402 O 0.80326 0.0556 0.37521 0.0
C403 C 0.853 0.07335 0.38459 0.0
N404 N 0.84093 0.08778 0.36712 0.0
C405 C 0.87197 0.11747 0.36882 0.0
C406 C 0.88469 0.103 0.38697 0.0
C407 C 0.8752 0.0808 0.3948 0.0
C408 C 0.85 0.10903 0.35924 0.0
H409 H 0.84573 0.05629 0.39069 0.0
C410 C 0.79953 0.03304 0.37498 0.0
O411 O 0.80532 0.99855 0.30105 0.0
O412 O 0.83987 0.01146 0.31732 0.0
N413 N 0.81668 0.11162 0.33122 0.0
C414 C 0.80233 0.12322 0.31325 0.0
C415 C 0.80903 0.14587 0.30373 0.0
C416 C 0.83039 0.15638 0.31278 0.0
C417 C 0.84479 0.14418 0.33139 0.0
C418 C 0.83694 0.12186 0.34059 0.0
H419 H 0.78578 0.11535 0.30643 0.0
O420 O 0.82225 0.04702 0.28236 0.0
O421 O 0.82469 0.06236 0.32341 0.0
O422 O 0.77736 0.04613 0.31015 0.0
O423 O 0.77819 0.07992 0.3348 0.0
C424 C 0.86666 0.15323 0.34109 0.0
C425 C 0.88032 0.13981 0.35966 0.0
H426 H 0.90181 0.1087 0.3949 0.0
H427 H 0.88495 0.06949 0.40871 0.0
H428 H 0.79774 0.15524 0.28947 0.0
H429 H 0.83558 0.17381 0.30525 0.0
H430 H 0.87325 0.17039 0.33421 0.0
H431 H 0.89724 0.14683 0.36675 0.0
Mn432 Mn 0.47512 0.68965 0.18529 0.0
Mn433 Mn 0.42333 0.6876 0.15027 0.0
C434 C 0.44231 0.67052 0.20376 0.0
C435 C 0.51258 0.67341 0.19471 0.0
C436 C 0.43987 0.73132 0.18143 0.0
O437 O 0.48537 0.69958 0.14734 0.0
O438 O 0.45034 0.69502 0.12573 0.0
C439 C 0.43397 0.64468 0.11743 0.0
N440 N 0.41946 0.65647 0.13506 0.0
C441 C 0.39073 0.62452 0.13432 0.0
C442 C 0.40528 0.61207 0.11604 0.0
C443 C 0.42706 0.62214 0.10767 0.0
C444 C 0.39866 0.6468 0.14356 0.0
H445 H 0.45065 0.65244 0.11084 0.0
C446 C 0.47268 0.69986 0.12592 0.0
O447 O 0.50793 0.69575 0.19965 0.0
O448 O 0.49573 0.66087 0.18366 0.0
N449 N 0.39528 0.68052 0.17086 0.0
C450 C 0.38361 0.6946 0.18907 0.0
C451 C 0.36166 0.68693 0.19978 0.0
C452 C 0.3517 0.66516 0.19121 0.0
C453 C 0.36382 0.6512 0.17207 0.0
C454 C 0.38569 0.65968 0.16225 0.0
H455 H 0.39101 0.71152 0.19541 0.0
O456 O 0.45992 0.6773 0.21895 0.0
O457 O 0.44471 0.67436 0.17791 0.0
O458 O 0.45906 0.72228 0.19101 0.0
O459 O 0.42567 0.72005 0.16569 0.0
C460 C 0.35512 0.62916 0.16239 0.0
C461 C 0.36867 0.61572 0.14376 0.0
H462 H 0.39996 0.59473 0.10836 0.0
H463 H 0.43843 0.61261 0.09362 0.0
H464 H 0.35238 0.69784 0.21449 0.0
H465 H 0.33475 0.65934 0.19949 0.0
H466 H 0.33809 0.62227 0.16929 0.0
H467 H 0.36195 0.59864 0.13679 0.0
Mn468 Mn 0.80952 0.47113 0.68366 0.0
Mn469 Mn 0.80878 0.41955 0.64807 0.0
C470 C 0.82651 0.43712 0.70219 0.0
C471 C 0.82756 0.50767 0.69348 0.0
C472 C 0.76611 0.43804 0.67965 0.0
O473 O 0.80035 0.48226 0.6458 0.0
O474 O 0.80284 0.44719 0.62393 0.0
C475 C 0.85237 0.42843 0.61566 0.0
N476 N 0.83965 0.4142 0.63275 0.0
C477 C 0.87003 0.38381 0.63157 0.0
C478 C 0.88341 0.39807 0.61382 0.0
C479 C 0.87458 0.42052 0.60592 0.0
C480 C 0.84809 0.39271 0.6407 0.0
H481 H 0.8456 0.44568 0.60951 0.0
C482 C 0.79931 0.46977 0.62429 0.0
O483 O 0.80499 0.50411 0.69815 0.0
O484 O 0.83935 0.49024 0.6825 0.0
N485 N 0.81422 0.39076 0.66793 0.0
C486 C 0.79922 0.37936 0.68538 0.0
C487 C 0.80518 0.35647 0.69482 0.0
C488 C 0.82646 0.34552 0.68622 0.0
C489 C 0.84152 0.35752 0.66812 0.0
C490 C 0.8344 0.38009 0.65895 0.0
H491 H 0.7827 0.38754 0.69182 0.0
O492 O 0.82071 0.45514 0.71728 0.0
O493 O 0.82315 0.43979 0.67624 0.0
O494 O 0.77609 0.45681 0.68908 0.0
O495 O 0.77657 0.4234 0.66371 0.0
C496 C 0.86336 0.34801 0.65886 0.0
C497 C 0.87768 0.36122 0.64073 0.0
H498 H 0.90053 0.39201 0.60624 0.0
H499 H 0.88483 0.43167 0.59231 0.0
H500 H 0.79336 0.34726 0.70866 0.0
H501 H 0.83107 0.32792 0.69368 0.0
H502 H 0.86939 0.33065 0.66573 0.0
H503 H 0.89455 0.35384 0.63398 0.0
Mn504 Mn 0.02488 0.80948 0.18273 0.0
Mn505 Mn 0.0775 0.80877 0.14923 0.0
C506 C 0.05753 0.82936 0.20052 0.0
C507 C 0.98754 0.82647 0.19037 0.0
C508 C 0.05985 0.76734 0.18341 0.0
O509 O 0.01519 0.79759 0.14536 0.0
O510 O 0.05092 0.7997 0.12475 0.0
C511 C 0.06774 0.8492 0.11223 0.0
N512 N 0.0818 0.83871 0.13132 0.0
C513 C 0.11049 0.87062 0.12867 0.0
C514 C 0.09639 0.88172 0.10887 0.0
C515 C 0.07486 0.87101 0.10072 0.0
C516 C 0.10237 0.84901 0.13958 0.0
H517 H 0.05123 0.84096 0.10582 0.0
C518 C 0.02845 0.79546 0.12453 0.0
O519 O 0.99194 0.80445 0.19705 0.0
O520 O 0.00453 0.83826 0.17854 0.0
N521 N 0.10516 0.81727 0.16985 0.0
C522 C 0.11644 0.8045 0.18955 0.0
C523 C 0.1381 0.81296 0.20022 0.0
C524 C 0.1482 0.83415 0.19013 0.0
C525 C 0.13651 0.84672 0.16947 0.0
C526 C 0.1149 0.8375 0.15974 0.0
H527 H 0.10892 0.78804 0.19712 0.0
O528 O 0.03962 0.82355 0.21575 0.0
O529 O 0.05561 0.82405 0.17495 0.0
O530 O 0.04035 0.77707 0.19111 0.0
O531 O 0.07476 0.77756 0.16759 0.0
C532 C 0.14538 0.8681 0.15821 0.0
C533 C 0.13227 0.88016 0.13802 0.0
H534 H 0.10188 0.89849 0.09986 0.0
H535 H 0.06384 0.87949 0.08551 0.0
H536 H 0.14705 0.80311 0.2161 0.0
H537 H 0.16492 0.84059 0.1984 0.0
H538 H 0.16219 0.87553 0.16506 0.0
H539 H 0.13912 0.89675 0.1298 0.0
Mn540 Mn 0.68911 0.02691 0.68622 0.0
Mn541 Mn 0.68772 0.07936 0.65233 0.0
C542 C 0.66935 0.05935 0.70466 0.0
C543 C 0.67315 0.98921 0.69489 0.0
C544 C 0.73049 0.06284 0.68499 0.0
O545 O 0.69976 0.01715 0.64841 0.0
O546 O 0.6968 0.05281 0.62779 0.0
C547 C 0.64655 0.06818 0.61694 0.0
N548 N 0.65722 0.08273 0.63544 0.0
C549 C 0.62467 0.11072 0.63337 0.0
C550 C 0.61337 0.09612 0.61419 0.0
C551 C 0.62431 0.07469 0.60606 0.0
C552 C 0.64669 0.10317 0.64372 0.0
H553 H 0.65497 0.05177 0.61052 0.0
C554 C 0.70126 0.03038 0.62749 0.0
O555 O 0.69534 0.99406 0.70025 0.0
O556 O 0.66056 0.00601 0.68378 0.0
N557 N 0.67913 0.10703 0.67286 0.0
C558 C 0.69221 0.11891 0.69183 0.0
C559 C 0.68364 0.1406 0.70232 0.0
C560 C 0.66201 0.15014 0.69275 0.0
C561 C 0.6491 0.13784 0.67283 0.0
C562 C 0.65845 0.11623 0.66326 0.0
H563 H 0.70903 0.11186 0.69894 0.0
O564 O 0.67605 0.04165 0.71978 0.0
O565 O 0.67373 0.05734 0.67889 0.0
O566 O 0.72151 0.04304 0.6929 0.0
O567 O 0.71945 0.07755 0.66965 0.0
C568 C 0.62729 0.14614 0.66209 0.0
C569 C 0.61497 0.13248 0.6426 0.0
H570 H 0.59628 0.10115 0.60564 0.0
H571 H 0.61568 0.06329 0.59132 0.0
H572 H 0.69375 0.15003 0.71762 0.0
H573 H 0.6555 0.1669 0.70085 0.0
H574 H 0.61974 0.16295 0.66881 0.0
H575 H 0.59806 0.1389 0.63479 0.0
H576 H 0.45119 0.1922 0.2248 0.0
H577 H 0.41637 0.17102 0.24323 0.0
H578 H 0.44137 0.10544 0.20712 0.0
H579 H 0.47568 0.1264 0.18831 0.0
H580 H 0.39264 0.11136 0.20204 0.0
H581 H 0.42246 0.1262 0.30819 0.0
H582 H 0.41764 0.15249 0.28803 0.0
H583 H 0.44149 0.13236 0.27958 0.0
C584 C 0.44906 0.17334 0.22053 0.0
C585 C 0.46629 0.16093 0.20531 0.0
C586 C 0.42926 0.16124 0.23121 0.0
C587 C 0.42652 0.13657 0.22694 0.0
C588 C 0.44316 0.12446 0.21075 0.0
H589 H 0.37213 0.01802 0.31 0.0
H590 H 0.39314 0.05283 0.29228 0.0
C591 C 0.46282 0.13649 0.20005 0.0
C592 C 0.40719 0.12272 0.2402 0.0
H593 H 0.38933 0.10126 0.30164 0.0
C594 C 0.3916 0.10941 0.22384 0.0
C595 C 0.40606 0.12013 0.26865 0.0
C596 C 0.42287 0.13338 0.28724 0.0
C597 C 0.3757 0.09271 0.23504 0.0
C598 C 0.37505 0.08962 0.26345 0.0
C599 C 0.38982 0.10377 0.27989 0.0
C600 C 0.36145 0.06984 0.27619 0.0
C601 C 0.36085 0.07749 0.21626 0.0
C602 C 0.33652 0.06811 0.27366 0.0
C603 C 0.32442 0.04805 0.28365 0.0
C604 C 0.33706 0.02953 0.29652 0.0
C605 C 0.36186 0.03191 0.3001 0.0
C606 C 0.3739 0.05184 0.29003 0.0
H607 H 0.36678 0.07903 0.19488 0.0
H608 H 0.3617 0.05839 0.2223 0.0
H609 H 0.34192 0.0833 0.21736 0.0
H610 H 0.32649 0.08203 0.26352 0.0
H611 H 0.30528 0.04681 0.28075 0.0
H612 H 0.36745 0.47001 0.67166 0.0
H613 H 0.39012 0.43622 0.68953 0.0
H614 H 0.33896 0.4286 0.75431 0.0
H615 H 0.31556 0.46163 0.73557 0.0
H616 H 0.41187 0.4371 0.73513 0.0
H617 H 0.35021 0.3599 0.73766 0.0
H618 H 0.34354 0.38682 0.71902 0.0
H619 H 0.33801 0.38532 0.75487 0.0
C620 C 0.36074 0.4607 0.68931 0.0
C621 C 0.33982 0.46841 0.70229 0.0
C622 C 0.37369 0.44141 0.69953 0.0
C623 C 0.36624 0.42971 0.72322 0.0
C624 C 0.34481 0.43686 0.73565 0.0
H625 H 0.47159 0.36677 0.8295 0.0
H626 H 0.43875 0.39019 0.81053 0.0
C627 C 0.33152 0.45586 0.72504 0.0
C628 C 0.38245 0.41228 0.73654 0.0
H629 H 0.38559 0.35667 0.765 0.0
C630 C 0.40611 0.41943 0.74139 0.0
C631 C 0.37506 0.38914 0.74461 0.0
C632 C 0.35039 0.37974 0.73852 0.0
C633 C 0.42251 0.40431 0.75416 0.0
C634 C 0.41483 0.38166 0.76349 0.0
C635 C 0.3913 0.37423 0.75831 0.0
C636 C 0.43138 0.36539 0.77796 0.0
C637 C 0.44807 0.41264 0.75695 0.0
C638 C 0.4369 0.34284 0.76718 0.0
C639 C 0.45531 0.32913 0.77843 0.0
C640 C 0.46857 0.33795 0.80041 0.0
C641 C 0.46187 0.35973 0.81231 0.0
C642 C 0.44321 0.37317 0.8014 0.0
H643 H 0.45245 0.42681 0.742 0.0
H644 H 0.45074 0.42026 0.77745 0.0
H645 H 0.4608 0.39763 0.75418 0.0
H646 H 0.42786 0.33641 0.74923 0.0
H647 H 0.4601 0.31238 0.76889 0.0
H648 H 0.04331 0.31646 0.23256 0.0
H649 H 0.07455 0.34149 0.25275 0.0
H650 H 0.06293 0.39481 0.19111 0.0
H651 H 0.03111 0.37038 0.17158 0.0
H652 H 0.11639 0.36251 0.23741 0.0
H653 H 0.04824 0.43166 0.25915 0.0
H654 H 0.04047 0.40227 0.2471 0.0
H655 H 0.05027 0.42496 0.22376 0.0
C656 C 0.04772 0.33334 0.22307 0.0
C657 C 0.03457 0.34168 0.20078 0.0
C658 C 0.06554 0.34763 0.23464 0.0
C659 C 0.07057 0.37032 0.22389 0.0
C660 C 0.05882 0.3777 0.20024 0.0
H661 H 0.18545 0.46792 0.26571 0.0
H662 H 0.16177 0.43517 0.24687 0.0
C663 C 0.04076 0.36366 0.18899 0.0
C664 C 0.08672 0.387 0.2384 0.0
H665 H 0.08867 0.44284 0.26595 0.0
C666 C 0.11035 0.38004 0.24381 0.0
C667 C 0.07864 0.40963 0.24737 0.0
C668 C 0.05296 0.41749 0.24432 0.0
C669 C 0.1263 0.39539 0.25732 0.0
C670 C 0.11853 0.41853 0.26496 0.0
C671 C 0.09475 0.4252 0.25997 0.0
C672 C 0.1345 0.4364 0.27795 0.0
C673 C 0.15109 0.38645 0.26369 0.0
C674 C 0.12704 0.44824 0.30155 0.0
C675 C 0.14019 0.46738 0.31189 0.0
C676 C 0.16128 0.47486 0.29905 0.0
C677 C 0.16937 0.46237 0.27616 0.0
C678 C 0.15592 0.4435 0.26549 0.0
H679 H 0.15154 0.36662 0.26495 0.0
H680 H 0.16343 0.39194 0.24727 0.0
H681 H 0.15777 0.39391 0.28308 0.0
H682 H 0.11059 0.44313 0.31156 0.0
H683 H 0.1336 0.47662 0.32963 0.0
H684 H 0.12739 0.02498 0.6855 0.0
H685 H 0.10693 0.06012 0.70302 0.0
H686 H 0.173 0.08563 0.73741 0.0
H687 H 0.19367 0.05008 0.72023 0.0
H688 H 0.13729 0.0854 0.77408 0.0
H689 H 0.10517 0.12953 0.68118 0.0
H690 H 0.09712 0.09853 0.68122 0.0
H691 H 0.12821 0.10693 0.68066 0.0
C692 C 0.13772 0.03824 0.69636 0.0
C693 C 0.16216 0.03472 0.70151 0.0
C694 C 0.126 0.05846 0.7062 0.0
C695 C 0.13849 0.07573 0.72117 0.0
C696 C 0.16307 0.07263 0.72571 0.0
H697 H 0.04641 0.1938 0.77601 0.0
H698 H 0.08198 0.17392 0.7577 0.0
C699 C 0.17484 0.05233 0.71586 0.0
C700 C 0.12518 0.09551 0.7343 0.0
H701 H 0.08208 0.13723 0.72194 0.0
C702 C 0.12561 0.09711 0.76264 0.0
C703 C 0.11027 0.11114 0.71942 0.0
C704 C 0.11036 0.11163 0.68892 0.0
C705 C 0.11021 0.11263 0.77654 0.0
C706 C 0.09364 0.12653 0.76173 0.0
C707 C 0.09451 0.12629 0.73335 0.0
C708 C 0.07372 0.13941 0.77512 0.0
C709 C 0.11145 0.11352 0.80701 0.0
C710 C 0.05735 0.12665 0.79103 0.0
C711 C 0.03713 0.13791 0.8015 0.0
C712 C 0.0327 0.16216 0.79606 0.0
C713 C 0.04937 0.17512 0.78063 0.0
C714 C 0.06968 0.16379 0.77013 0.0
H715 H 0.1297 0.10915 0.81432 0.0
H716 H 0.10633 0.1314 0.81484 0.0
H717 H 0.09902 0.10004 0.81555 0.0
H718 H 0.05973 0.10769 0.79458 0.0
H719 H 0.02459 0.12738 0.8132 0.0
H720 H 0.54736 0.80684 0.77801 0.0
H721 H 0.58313 0.82672 0.76024 0.0
H722 H 0.5604 0.89296 0.79672 0.0
H723 H 0.52509 0.87325 0.81486 0.0
H724 H 0.58345 0.86288 0.72438 0.0
H725 H 0.63012 0.89243 0.81672 0.0
H726 H 0.60682 0.87011 0.81742 0.0
H727 H 0.59941 0.90147 0.81762 0.0
C728 C 0.55028 0.82552 0.7827 0.0
C729 C 0.5334 0.83848 0.79784 0.0
C730 C 0.5707 0.83685 0.77251 0.0
C731 C 0.57465 0.86125 0.77748 0.0
C732 C 0.55811 0.874 0.7932 0.0
H733 H 0.62722 0.97515 0.68635 0.0
H734 H 0.60724 0.93994 0.70439 0.0
C735 C 0.53778 0.86272 0.80339 0.0
C736 C 0.59456 0.87419 0.76412 0.0
H737 H 0.63755 0.91606 0.77624 0.0
C738 C 0.59565 0.8741 0.73574 0.0
C739 C 0.61084 0.88847 0.77887 0.0
C740 C 0.61192 0.88792 0.80935 0.0
C741 C 0.6113 0.8893 0.72174 0.0
C742 C 0.62585 0.90534 0.73651 0.0
C743 C 0.62611 0.90406 0.76487 0.0
C744 C 0.63892 0.92519 0.72319 0.0
C745 C 0.61164 0.88843 0.69125 0.0
C746 C 0.66339 0.92883 0.72796 0.0
C747 C 0.67488 0.94918 0.71782 0.0
C748 C 0.66201 0.96631 0.70295 0.0
C749 C 0.63769 0.96226 0.69761 0.0
C750 C 0.62625 0.94199 0.70774 0.0
H751 H 0.60687 0.87032 0.68376 0.0
H752 H 0.59819 0.90115 0.6832 0.0
H753 H 0.62945 0.89337 0.68307 0.0
H754 H 0.67346 0.91619 0.74002 0.0
H755 H 0.69362 0.95185 0.72235 0.0
H756 H 0.5494 0.69315 0.22381 0.0
H757 H 0.58476 0.67247 0.24157 0.0
H758 H 0.5617 0.60727 0.20303 0.0
H759 H 0.52678 0.62773 0.185 0.0
H760 H 0.5842 0.63496 0.27643 0.0
H761 H 0.63176 0.60817 0.18351 0.0
H762 H 0.60873 0.63079 0.18352 0.0
H763 H 0.60094 0.59957 0.1819 0.0
C764 C 0.55216 0.67453 0.21869 0.0
C765 C 0.5353 0.66207 0.20299 0.0
C766 C 0.57233 0.66275 0.22888 0.0
C767 C 0.57607 0.63841 0.2233 0.0
C768 C 0.55955 0.62618 0.20706 0.0
H769 H 0.62845 0.52167 0.31083 0.0
H770 H 0.60812 0.55697 0.29344 0.0
C771 C 0.53945 0.63789 0.19692 0.0
C772 C 0.59577 0.62497 0.23641 0.0
H773 H 0.63885 0.58346 0.22313 0.0
C774 C 0.59651 0.62409 0.26478 0.0
C775 C 0.61218 0.61113 0.2213 0.0
C776 C 0.61355 0.61267 0.19087 0.0
C777 C 0.61198 0.60839 0.27835 0.0
C778 C 0.62671 0.59286 0.26312 0.0
C779 C 0.62728 0.59507 0.23484 0.0
C780 C 0.63984 0.57272 0.2758 0.0
C781 C 0.61196 0.60822 0.30886 0.0
C782 C 0.66443 0.5696 0.27139 0.0
C783 C 0.67612 0.54922 0.28115 0.0
C784 C 0.66334 0.53154 0.29529 0.0
C785 C 0.63885 0.53499 0.30015 0.0
C786 C 0.62721 0.5553 0.29039 0.0
H787 H 0.60687 0.62599 0.31708 0.0
H788 H 0.59859 0.59505 0.31613 0.0
H789 H 0.62973 0.60321 0.31707 0.0
H790 H 0.67447 0.58273 0.25998 0.0
H791 H 0.69499 0.54703 0.27701 0.0
H792 H 0.98145 0.62553 0.80795 0.0
H793 H 0.94716 0.60422 0.78952 0.0
H794 H 0.91919 0.67023 0.75746 0.0
H795 H 0.9539 0.69179 0.77553 0.0
H796 H 0.89828 0.60898 0.79715 0.0
H797 H 0.92422 0.62746 0.69043 0.0
H798 H 0.94412 0.63305 0.71843 0.0
H799 H 0.91973 0.65307 0.71179 0.0
C800 C 0.96795 0.63562 0.79717 0.0
C801 C 0.97051 0.66033 0.79297 0.0
C802 C 0.94831 0.62339 0.78669 0.0
C803 C 0.93081 0.63556 0.77177 0.0
C804 C 0.93273 0.66042 0.7685 0.0
H805 H 0.80849 0.54666 0.71938 0.0
H806 H 0.83018 0.5814 0.73714 0.0
C807 C 0.95248 0.67272 0.77896 0.0
C808 C 0.91134 0.6217 0.75884 0.0
H809 H 0.89155 0.60197 0.69743 0.0
C810 C 0.8965 0.60769 0.77535 0.0
C811 C 0.90924 0.61998 0.73038 0.0
C812 C 0.92524 0.63402 0.71161 0.0
C813 C 0.88034 0.59122 0.7642 0.0
C814 C 0.87869 0.58904 0.73574 0.0
C815 C 0.89278 0.60381 0.71922 0.0
C816 C 0.86477 0.56959 0.72284 0.0
C817 C 0.86624 0.57529 0.78298 0.0
C818 C 0.87685 0.55198 0.70798 0.0
C819 C 0.86455 0.53231 0.69766 0.0
C820 C 0.83985 0.52984 0.70197 0.0
C821 C 0.82754 0.548 0.71588 0.0
C822 C 0.83991 0.56777 0.72617 0.0
H823 H 0.87281 0.5763 0.80416 0.0
H824 H 0.84723 0.58089 0.78282 0.0
H825 H 0.86712 0.55639 0.77619 0.0
H826 H 0.89602 0.55306 0.70511 0.0
H827 H 0.87456 0.51871 0.68695 0.0
H828 H 0.8699 0.97603 0.3238 0.0
H829 H 0.89254 0.94302 0.30399 0.0
H830 H 0.83589 0.93088 0.24644 0.0
H831 H 0.81268 0.96329 0.26697 0.0
H832 H 0.8561 0.88908 0.26212 0.0
H833 H 0.92657 0.95374 0.2334 0.0
H834 H 0.92161 0.95311 0.26922 0.0
H835 H 0.89816 0.96305 0.24693 0.0
C836 C 0.86211 0.96607 0.30721 0.0
C837 C 0.83968 0.9724 0.29668 0.0
C838 C 0.87512 0.94731 0.2958 0.0
C839 C 0.86623 0.93498 0.2732 0.0
C840 C 0.84319 0.9403 0.26371 0.0
H841 H 0.96709 0.86509 0.16641 0.0
H842 H 0.93406 0.88919 0.18373 0.0
C843 C 0.82995 0.95881 0.27546 0.0
C844 C 0.88161 0.91773 0.25847 0.0
H845 H 0.936 0.91267 0.22798 0.0
C846 C 0.87352 0.89422 0.25448 0.0
C847 C 0.90407 0.92462 0.24786 0.0
C848 C 0.91301 0.95006 0.24929 0.0
C849 C 0.88762 0.87725 0.24082 0.0
C850 C 0.91065 0.88383 0.23158 0.0
C851 C 0.91843 0.90749 0.23513 0.0
C852 C 0.92743 0.8667 0.21861 0.0
C853 C 0.87746 0.85263 0.23605 0.0
C854 C 0.93422 0.84554 0.23186 0.0
C855 C 0.95274 0.83141 0.22156 0.0
C856 C 0.96521 0.83859 0.19828 0.0
C857 C 0.95781 0.8592 0.18445 0.0
C858 C 0.93897 0.87299 0.19438 0.0
H859 H 0.85762 0.853 0.23561 0.0
H860 H 0.88401 0.84489 0.21675 0.0
H861 H 0.88294 0.8407 0.25287 0.0
H862 H 0.92612 0.84057 0.25093 0.0
H863 H 0.9583 0.81574 0.23279 0.0
H864 H 0.54668 0.25589 0.22746 0.0
H865 H 0.56301 0.29368 0.2442 0.0
H866 H 0.60683 0.29956 0.17272 0.0
H867 H 0.59114 0.2616 0.15626 0.0
H868 H 0.63262 0.30355 0.21754 0.0
H869 H 0.55421 0.36346 0.22555 0.0
H870 H 0.55023 0.33557 0.24289 0.0
H871 H 0.55351 0.33583 0.20669 0.0
C872 C 0.55942 0.26549 0.21505 0.0
C873 C 0.56772 0.25566 0.19061 0.0
C874 C 0.56865 0.28718 0.22458 0.0
C875 C 0.58599 0.2996 0.20959 0.0
C876 C 0.59346 0.29031 0.18462 0.0
H877 H 0.68537 0.41577 0.24815 0.0
H878 H 0.66352 0.38365 0.22555 0.0
C879 C 0.58448 0.26857 0.17526 0.0
C880 C 0.59839 0.32072 0.22114 0.0
H881 H 0.58981 0.37643 0.24746 0.0
C882 C 0.62328 0.31957 0.22398 0.0
C883 C 0.58619 0.34157 0.22949 0.0
C884 C 0.55959 0.34434 0.22578 0.0
C885 C 0.63636 0.33835 0.23547 0.0
C886 C 0.6242 0.35924 0.24427 0.0
C887 C 0.59922 0.36045 0.24112 0.0
C888 C 0.63681 0.37986 0.25703 0.0
C889 C 0.663 0.33502 0.23813 0.0
C890 C 0.62815 0.38992 0.28122 0.0
C891 C 0.64011 0.40902 0.2935 0.0
C892 C 0.66148 0.41772 0.2825 0.0
C893 C 0.66951 0.40856 0.25769 0.0
C894 C 0.65712 0.39005 0.2449 0.0
H895 H 0.66765 0.31591 0.24128 0.0
H896 H 0.67174 0.34089 0.2191 0.0
H897 H 0.67054 0.34542 0.25502 0.0
H898 H 0.61221 0.3829 0.29078 0.0
H899 H 0.63272 0.41694 0.31164 0.0
H900 H 0.24409 0.547 0.72257 0.0
H901 H 0.20642 0.56336 0.73941 0.0
H902 H 0.20113 0.60832 0.66879 0.0
H903 H 0.23898 0.59252 0.65212 0.0
H904 H 0.19757 0.6334 0.71469 0.0
H905 H 0.13654 0.55566 0.71999 0.0
H906 H 0.1644 0.55078 0.73708 0.0
H907 H 0.16411 0.55511 0.70103 0.0
C908 C 0.23465 0.55997 0.71032 0.0
C909 C 0.24464 0.56855 0.68607 0.0
C910 C 0.21302 0.56922 0.71992 0.0
C911 C 0.20083 0.58691 0.70524 0.0
C912 C 0.21022 0.59466 0.68043 0.0
H913 H 0.08582 0.68641 0.74756 0.0
H914 H 0.11791 0.6651 0.72425 0.0
C915 C 0.23189 0.58561 0.67095 0.0
C916 C 0.17988 0.59934 0.71706 0.0
H917 H 0.12417 0.5908 0.74331 0.0
C918 C 0.18143 0.62412 0.72084 0.0
C919 C 0.15889 0.58721 0.72504 0.0
C920 C 0.15573 0.56075 0.72035 0.0
C921 C 0.16291 0.63713 0.73297 0.0
C922 C 0.1419 0.625 0.74141 0.0
C923 C 0.14027 0.60016 0.73725 0.0
C924 C 0.12155 0.63751 0.75477 0.0
C925 C 0.16664 0.66362 0.73675 0.0
C926 C 0.11153 0.62827 0.7787 0.0
C927 C 0.09248 0.63995 0.79139 0.0
C928 C 0.08379 0.66159 0.78106 0.0
C929 C 0.09302 0.67029 0.75657 0.0
C930 C 0.11149 0.65821 0.74338 0.0
H931 H 0.18583 0.66789 0.7399 0.0
H932 H 0.16076 0.67309 0.71818 0.0
H933 H 0.15647 0.67074 0.75407 0.0
H934 H 0.11849 0.61204 0.78769 0.0
H935 H 0.08453 0.63208 0.80925 0.0
H936 H 0.86967 0.0861 0.31432 0.0
H937 H 0.89064 0.11961 0.2929 0.0
H938 H 0.83939 0.11865 0.22763 0.0
H939 H 0.81714 0.08708 0.25068 0.0
H940 H 0.91318 0.12485 0.24929 0.0
H941 H 0.83655 0.18675 0.2421 0.0
H942 H 0.83324 0.15765 0.25685 0.0
H943 H 0.83163 0.16133 0.22081 0.0
C944 C 0.86239 0.09388 0.29605 0.0
C945 C 0.84096 0.08526 0.2851 0.0
C946 C 0.87461 0.11267 0.28346 0.0
C947 C 0.86613 0.12247 0.25906 0.0
C948 C 0.84568 0.11243 0.24709 0.0
H949 H 0.91312 0.23671 0.15372 0.0
H950 H 0.89748 0.19924 0.17162 0.0
C951 C 0.83306 0.09424 0.26016 0.0
C952 C 0.8791 0.14261 0.24581 0.0
H953 H 0.87153 0.19771 0.21728 0.0
C954 C 0.90403 0.14084 0.24251 0.0
C955 C 0.86728 0.16351 0.2365 0.0
C956 C 0.84075 0.16747 0.23949 0.0
C957 C 0.91733 0.15916 0.23014 0.0
C958 C 0.90544 0.17995 0.22109 0.0
C959 C 0.88061 0.1817 0.22419 0.0
C960 C 0.91811 0.20046 0.2086 0.0
C961 C 0.94387 0.15587 0.22637 0.0
C962 C 0.93539 0.21335 0.22315 0.0
C963 C 0.94456 0.23478 0.21284 0.0
C964 C 0.93629 0.24385 0.18801 0.0
C965 C 0.91976 0.23033 0.173 0.0
C966 C 0.91081 0.20887 0.18318 0.0
H967 H 0.94901 0.1367 0.22718 0.0
H968 H 0.9499 0.16346 0.20677 0.0
H969 H 0.95346 0.1653 0.24286 0.0
H970 H 0.94092 0.20749 0.24307 0.0
H971 H 0.95713 0.24484 0.225 0.0
H972 H 0.2586 0.89995 0.67077 0.0
H973 H 0.29692 0.8875 0.6894 0.0
H974 H 0.30054 0.9523 0.73638 0.0
H975 H 0.26189 0.96492 0.71813 0.0
H976 H 0.34257 0.90926 0.68942 0.0
H977 H 0.30574 0.899 0.79336 0.0
H978 H 0.28681 0.90261 0.76411 0.0
H979 H 0.30207 0.92796 0.7782 0.0
C980 C 0.26754 0.91173 0.68491 0.0
C981 C 0.25696 0.93338 0.69312 0.0
C982 C 0.28951 0.90456 0.69549 0.0
C983 C 0.30137 0.9188 0.71455 0.0
C984 C 0.29144 0.94086 0.72203 0.0
H985 H 0.42457 0.87594 0.81342 0.0
H986 H 0.39283 0.90013 0.79259 0.0
C987 C 0.26939 0.94808 0.71146 0.0
C988 C 0.3236 0.90987 0.72731 0.0
H989 H 0.34618 0.88958 0.78704 0.0
C990 C 0.34344 0.90504 0.71082 0.0
C991 C 0.3247 0.90452 0.75524 0.0
C992 C 0.30368 0.90858 0.77381 0.0
C993 C 0.36422 0.89457 0.72145 0.0
C994 C 0.36496 0.88835 0.74918 0.0
C995 C 0.3455 0.89412 0.76581 0.0
C996 C 0.38496 0.87444 0.76105 0.0
C997 C 0.38517 0.89034 0.70285 0.0
C998 C 0.39089 0.85193 0.75043 0.0
C999 C 0.40889 0.8382 0.76231 0.0
C1000 C 0.42069 0.84639 0.78554 0.0
C1001 C 0.41509 0.86902 0.796 0.0
C1002 C 0.39718 0.88287 0.78398 0.0
H1003 H 0.38506 0.90306 0.68559 0.0
H1004 H 0.40241 0.89212 0.71377 0.0
H1005 H 0.384 0.872 0.69442 0.0
H1006 H 0.38134 0.84477 0.7332 0.0
H1007 H 0.41325 0.82093 0.75372 0.0
H1008 H 0.60246 0.24088 0.83224 0.0
H1009 H 0.61485 0.20254 0.81353 0.0
H1010 H 0.55001 0.19906 0.76663 0.0
H1011 H 0.53747 0.23771 0.78494 0.0
H1012 H 0.59308 0.15691 0.81347 0.0
H1013 H 0.60315 0.19387 0.70958 0.0
H1014 H 0.59955 0.21277 0.73886 0.0
H1015 H 0.5742 0.19753 0.72474 0.0
C1016 C 0.59067 0.23197 0.8181 0.0
C1017 C 0.56903 0.24258 0.80991 0.0
C1018 C 0.5978 0.20999 0.80747 0.0
C1019 C 0.58352 0.19816 0.78842 0.0
C1020 C 0.56148 0.20814 0.78098 0.0
H1021 H 0.62566 0.07535 0.68871 0.0
H1022 H 0.60166 0.10699 0.70995 0.0
C1023 C 0.55431 0.23019 0.79157 0.0
C1024 C 0.5924 0.17594 0.77562 0.0
H1025 H 0.61232 0.15335 0.71575 0.0
C1026 C 0.59722 0.15606 0.79205 0.0
C1027 C 0.59763 0.17485 0.74766 0.0
C1028 C 0.59357 0.19591 0.72913 0.0
C1029 C 0.60757 0.13524 0.78134 0.0
C1030 C 0.61366 0.13451 0.75356 0.0
C1031 C 0.6079 0.15402 0.737 0.0
C1032 C 0.62741 0.11446 0.74155 0.0
C1033 C 0.61177 0.11424 0.79988 0.0
C1034 C 0.64989 0.10831 0.75208 0.0
C1035 C 0.6635 0.09034 0.73998 0.0
C1036 C 0.65524 0.07881 0.7166 0.0
C1037 C 0.63265 0.08461 0.70625 0.0
C1038 C 0.61889 0.10247 0.71851 0.0
H1039 H 0.59908 0.11435 0.81716 0.0
H1040 H 0.60994 0.09701 0.78892 0.0
H1041 H 0.63012 0.11535 0.80829 0.0
H1042 H 0.65712 0.11769 0.7694 0.0
H1043 H 0.68076 0.08582 0.74848 0.0
H1044 H 0.41555 0.68349 0.24676 0.0
H1045 H 0.38332 0.66073 0.26825 0.0
H1046 H 0.39364 0.60365 0.21071 0.0
H1047 H 0.42581 0.62666 0.18903 0.0
H1048 H 0.34668 0.61609 0.21649 0.0
H1049 H 0.38707 0.60283 0.31735 0.0
H1050 H 0.38669 0.63368 0.30749 0.0
H1051 H 0.40423 0.61259 0.28845 0.0
C1052 C 0.41085 0.66608 0.23877 0.0
C1053 C 0.42247 0.65705 0.21582 0.0
C1054 C 0.39267 0.65299 0.25119 0.0
C1055 C 0.38631 0.63032 0.24136 0.0
C1056 C 0.39832 0.62106 0.2187 0.0
H1057 H 0.26304 0.54144 0.28667 0.0
H1058 H 0.30115 0.55424 0.26721 0.0
C1059 C 0.41646 0.63425 0.20618 0.0
C1060 C 0.36621 0.61703 0.25384 0.0
H1061 H 0.3447 0.59657 0.3142 0.0
C1062 C 0.34633 0.61159 0.23773 0.0
C1063 C 0.36589 0.61097 0.28162 0.0
C1064 C 0.38722 0.61509 0.29968 0.0
C1065 C 0.32559 0.60153 0.24884 0.0
C1066 C 0.32498 0.59615 0.2768 0.0
C1067 C 0.34519 0.60078 0.29278 0.0
C1068 C 0.30301 0.58716 0.29008 0.0
C1069 C 0.30416 0.59782 0.23078 0.0
C1070 C 0.29192 0.60096 0.31014 0.0
C1071 C 0.27028 0.59364 0.32148 0.0
C1072 C 0.25925 0.5723 0.31298 0.0
C1073 C 0.27088 0.55807 0.29353 0.0
C1074 C 0.29262 0.56539 0.28228 0.0
H1075 H 0.30578 0.60786 0.21147 0.0
H1076 H 0.30253 0.57855 0.22582 0.0
H1077 H 0.28749 0.60351 0.2411 0.0
H1078 H 0.29968 0.61778 0.31651 0.0
H1079 H 0.26195 0.60506 0.33644 0.0
H1080 H 0.86757 0.41499 0.68627 0.0
H1081 H 0.88721 0.3808 0.70789 0.0
H1082 H 0.83454 0.38243 0.77168 0.0
H1083 H 0.81364 0.41481 0.7484 0.0
H1084 H 0.90857 0.37495 0.75229 0.0
H1085 H 0.83058 0.31447 0.75624 0.0
H1086 H 0.82813 0.34388 0.74208 0.0
H1087 H 0.82591 0.33964 0.77798 0.0
C1088 C 0.8597 0.40725 0.70425 0.0
C1089 C 0.83828 0.41633 0.71471 0.0
C1090 C 0.87116 0.38806 0.71695 0.0
C1091 C 0.86189 0.37825 0.74099 0.0
C1092 C 0.84142 0.38869 0.75249 0.0
H1093 H 0.90523 0.2604 0.84405 0.0
H1094 H 0.88949 0.2981 0.82684 0.0
C1095 C 0.82958 0.40733 0.7393 0.0
C1096 C 0.87413 0.35772 0.75436 0.0
H1097 H 0.86497 0.30222 0.78127 0.0
C1098 C 0.89899 0.35899 0.75843 0.0
C1099 C 0.86173 0.33691 0.76293 0.0
C1100 C 0.83517 0.3336 0.75934 0.0
C1101 C 0.91169 0.34022 0.77072 0.0
C1102 C 0.89928 0.31941 0.77877 0.0
C1103 C 0.87448 0.31821 0.77505 0.0
C1104 C 0.91141 0.29833 0.79077 0.0
C1105 C 0.93816 0.3431 0.77544 0.0
C1106 C 0.9293 0.28608 0.77646 0.0
C1107 C 0.93854 0.26456 0.78641 0.0
C1108 C 0.92973 0.25471 0.81062 0.0
C1109 C 0.91232 0.2674 0.82526 0.0
C1110 C 0.90332 0.28899 0.81547 0.0
H1111 H 0.94343 0.36224 0.77594 0.0
H1112 H 0.94373 0.33457 0.7947 0.0
H1113 H 0.94806 0.33444 0.75863 0.0
H1114 H 0.93541 0.2926 0.75704 0.0
H1115 H 0.95179 0.25514 0.77452 0.0
H1116 H 0.08333 0.8191 0.24517 0.0
H1117 H 0.11508 0.84313 0.26571 0.0
H1118 H 0.10612 0.89654 0.20355 0.0
H1119 H 0.07447 0.8722 0.18277 0.0
H1120 H 0.15269 0.88512 0.21152 0.0
H1121 H 0.11045 0.90346 0.3103 0.0
H1122 H 0.11115 0.87208 0.30291 0.0
H1123 H 0.09389 0.89186 0.28183 0.0
C1124 C 0.08822 0.83597 0.23596 0.0
C1125 C 0.07715 0.84355 0.21201 0.0
C1126 C 0.10613 0.84981 0.24783 0.0
C1127 C 0.11271 0.87184 0.23644 0.0
C1128 C 0.10125 0.87966 0.21275 0.0
H1129 H 0.23595 0.96175 0.28029 0.0
H1130 H 0.19759 0.94929 0.26112 0.0
C1131 C 0.0834 0.8657 0.20076 0.0
C1132 C 0.13252 0.88589 0.24846 0.0
H1133 H 0.1531 0.90894 0.30804 0.0
C1134 C 0.15268 0.89059 0.23248 0.0
C1135 C 0.13236 0.89327 0.27584 0.0
C1136 C 0.11069 0.89014 0.29363 0.0
C1137 C 0.17325 0.90112 0.24346 0.0
C1138 C 0.17343 0.90763 0.2711 0.0
C1139 C 0.15293 0.90384 0.28688 0.0
C1140 C 0.19536 0.91664 0.28443 0.0
C1141 C 0.195 0.90406 0.22571 0.0
C1142 C 0.2063 0.90288 0.30461 0.0
C1143 C 0.2281 0.90996 0.31571 0.0
C1144 C 0.23942 0.93104 0.3069 0.0
C1145 C 0.22785 0.94535 0.28746 0.0
C1146 C 0.20598 0.93822 0.27637 0.0
H1147 H 0.19342 0.89382 0.20653 0.0
H1148 H 0.19721 0.92323 0.22052 0.0
H1149 H 0.21136 0.8981 0.23647 0.0
H1150 H 0.19833 0.8862 0.31117 0.0
H1151 H 0.23636 0.89851 0.3307 0.0
H1152 H 0.37351 0.57876 0.68665 0.0
H1153 H 0.39469 0.61297 0.70648 0.0
H1154 H 0.33728 0.62234 0.76385 0.0
H1155 H 0.31582 0.58876 0.74329 0.0
H1156 H 0.3489 0.66358 0.74096 0.0
H1157 H 0.43171 0.61878 0.77576 0.0
H1158 H 0.42602 0.61479 0.74033 0.0
H1159 H 0.40572 0.60234 0.76478 0.0
C1160 C 0.36542 0.58839 0.70329 0.0
C1161 C 0.34273 0.58193 0.71285 0.0
C1162 C 0.37768 0.60759 0.71496 0.0
C1163 C 0.36768 0.62012 0.73685 0.0
C1164 C 0.34532 0.61301 0.74694 0.0
H1165 H 0.39915 0.74361 0.8344 0.0
H1166 H 0.3841 0.70652 0.815 0.0
C1167 C 0.33306 0.59391 0.73521 0.0
C1168 C 0.37969 0.64147 0.74835 0.0
H1169 H 0.43106 0.66123 0.77834 0.0
C1170 C 0.36693 0.66305 0.74888 0.0
C1171 C 0.40315 0.64075 0.75905 0.0
C1172 C 0.41739 0.61788 0.76023 0.0
C1173 C 0.37701 0.68399 0.75938 0.0
C1174 C 0.40028 0.68321 0.77049 0.0
C1175 C 0.41322 0.66174 0.7698 0.0
C1176 C 0.41099 0.70444 0.78366 0.0
C1177 C 0.3627 0.70685 0.7582 0.0
C1178 C 0.43178 0.71498 0.77322 0.0
C1179 C 0.44063 0.73619 0.78443 0.0
C1180 C 0.4288 0.74716 0.80629 0.0
C1181 C 0.40858 0.73587 0.81739 0.0
C1182 C 0.39986 0.71468 0.80627 0.0
H1183 H 0.34855 0.70599 0.74247 0.0
H1184 H 0.35386 0.70981 0.77801 0.0
H1185 H 0.37437 0.72245 0.75391 0.0
H1186 H 0.4407 0.70722 0.75587 0.0
H1187 H 0.45626 0.74435 0.77541 0.0
H1188 H 0.92484 0.37276 0.18487 0.0
H1189 H 0.89108 0.39452 0.20488 0.0
H1190 H 0.88299 0.33879 0.26457 0.0
H1191 H 0.91609 0.31671 0.24388 0.0
H1192 H 0.84123 0.34988 0.2424 0.0
H1193 H 0.88699 0.4335 0.273 0.0
H1194 H 0.89016 0.42678 0.23769 0.0
H1195 H 0.90312 0.40715 0.2625 0.0
C1196 C 0.91557 0.36514 0.20207 0.0
C1197 C 0.92224 0.34273 0.21228 0.0
C1198 C 0.89664 0.37776 0.21381 0.0
C1199 C 0.88462 0.36841 0.23641 0.0
C1200 C 0.89194 0.34633 0.24711 0.0
H1201 H 0.76358 0.40254 0.33646 0.0
H1202 H 0.80069 0.38756 0.31704 0.0
C1203 C 0.91076 0.33372 0.23531 0.0
C1204 C 0.86357 0.38079 0.24811 0.0
H1205 H 0.84463 0.433 0.27696 0.0
C1206 C 0.84199 0.36811 0.24972 0.0
C1207 C 0.8646 0.40453 0.258 0.0
C1208 C 0.88751 0.41873 0.25798 0.0
C1209 C 0.82136 0.37851 0.26056 0.0
C1210 C 0.82245 0.40206 0.27085 0.0
C1211 C 0.84391 0.41494 0.26905 0.0
C1212 C 0.80155 0.41314 0.28426 0.0
C1213 C 0.79847 0.36422 0.26067 0.0
C1214 C 0.79038 0.43326 0.27299 0.0
C1215 C 0.76914 0.44205 0.28418 0.0
C1216 C 0.75879 0.43083 0.30683 0.0
C1217 C 0.77084 0.41147 0.31884 0.0
C1218 C 0.79204 0.4028 0.30773 0.0
H1219 H 0.79897 0.34947 0.24563 0.0
H1220 H 0.79587 0.35618 0.28097 0.0
H1221 H 0.78282 0.37578 0.2562 0.0
H1222 H 0.79757 0.44157 0.25495 0.0
H1223 H 0.76038 0.45701 0.27444 0.0
H1224 H 0.04439 0.75962 0.77503 0.0
H1225 H 0.05978 0.79762 0.75752 0.0
H1226 H 0.10985 0.80127 0.82364 0.0
H1227 H 0.09495 0.76334 0.84108 0.0
H1228 H 0.06606 0.84476 0.78065 0.0
H1229 H 0.15209 0.80083 0.7553 0.0
H1230 H 0.12556 0.78411 0.7638 0.0
H1231 H 0.14336 0.79745 0.79004 0.0
C1232 C 0.05842 0.76869 0.78609 0.0
C1233 C 0.06866 0.75824 0.80926 0.0
C1234 C 0.06719 0.79038 0.77603 0.0
C1235 C 0.08626 0.80194 0.789 0.0
C1236 C 0.09545 0.79235 0.81304 0.0
H1237 H 0.18345 0.91709 0.75043 0.0
H1238 H 0.16082 0.88486 0.77212 0.0
C1239 C 0.08684 0.77067 0.823 0.0
C1240 C 0.09768 0.82318 0.77667 0.0
H1241 H 0.15087 0.84297 0.75174 0.0
C1242 C 0.08452 0.84439 0.774 0.0
C1243 C 0.12177 0.82258 0.76808 0.0
C1244 C 0.13649 0.79997 0.76918 0.0
C1245 C 0.09505 0.86527 0.76355 0.0
C1246 C 0.11925 0.86469 0.75515 0.0
C1247 C 0.13229 0.8434 0.75787 0.0
C1248 C 0.13162 0.88574 0.74336 0.0
C1249 C 0.0804 0.88788 0.76254 0.0
C1250 C 0.12264 0.89719 0.72019 0.0
C1251 C 0.13554 0.91566 0.70793 0.0
C1252 C 0.15792 0.92241 0.71815 0.0
C1253 C 0.16648 0.91167 0.74185 0.0
C1254 C 0.15355 0.89334 0.75422 0.0
H1255 H 0.06539 0.88735 0.77725 0.0
H1256 H 0.09152 0.90386 0.76686 0.0
H1257 H 0.0726 0.88986 0.74202 0.0
H1258 H 0.10603 0.89141 0.71109 0.0
H1259 H 0.12825 0.9244 0.69021 0.0
H1260 H 0.5753 0.12663 0.18866 0.0
H1261 H 0.60768 0.10336 0.20956 0.0
H1262 H 0.61884 0.1599 0.26758 0.0
H1263 H 0.58642 0.18294 0.24685 0.0
H1264 H 0.6548 0.11564 0.21492 0.0
H1265 H 0.61515 0.1015 0.31602 0.0
H1266 H 0.5978 0.11156 0.28741 0.0
H1267 H 0.61552 0.13244 0.3065 0.0
C1268 C 0.58489 0.13406 0.20573 0.0
C1269 C 0.57906 0.15678 0.21573 0.0
C1270 C 0.60315 0.12072 0.21781 0.0
C1271 C 0.61543 0.12975 0.24039 0.0
C1272 C 0.60928 0.15235 0.25057 0.0
H1273 H 0.74116 0.10463 0.33238 0.0
H1274 H 0.70296 0.11709 0.31341 0.0
C1275 C 0.59098 0.1656 0.23858 0.0
C1276 C 0.63557 0.11625 0.25248 0.0
H1277 H 0.6575 0.09519 0.31237 0.0
C1278 C 0.6553 0.1109 0.23609 0.0
C1279 C 0.63607 0.10991 0.28018 0.0
C1280 C 0.61489 0.11392 0.29849 0.0
C1281 C 0.67607 0.10062 0.24687 0.0
C1282 C 0.67689 0.09502 0.27475 0.0
C1283 C 0.65683 0.09956 0.29101 0.0
C1284 C 0.699 0.08607 0.2877 0.0
C1285 C 0.69734 0.09693 0.22856 0.0
C1286 C 0.70914 0.06416 0.28003 0.0
C1287 C 0.73112 0.05695 0.29078 0.0
C1288 C 0.74326 0.07151 0.30951 0.0
C1289 C 0.73245 0.09298 0.31794 0.0
C1290 C 0.71055 0.10015 0.30716 0.0
H1291 H 0.69545 0.10674 0.20914 0.0
H1292 H 0.71405 0.10289 0.23862 0.0
H1293 H 0.69914 0.07762 0.22389 0.0
H1294 H 0.70027 0.05284 0.26537 0.0
H1295 H 0.7388 0.04024 0.28395 0.0
H1296 H 0.40955 0.76167 0.15541 0.0
H1297 H 0.39354 0.79947 0.17197 0.0
H1298 H 0.43669 0.79331 0.24394 0.0
H1299 H 0.45337 0.75571 0.22707 0.0
H1300 H 0.36725 0.80311 0.21624 0.0
H1301 H 0.44533 0.86319 0.22632 0.0
H1302 H 0.44644 0.83568 0.20728 0.0
H1303 H 0.4492 0.83523 0.24354 0.0
C1304 C 0.416 0.76856 0.17453 0.0
C1305 C 0.43267 0.75564 0.18998 0.0
C1306 C 0.40685 0.79021 0.18396 0.0
C1307 C 0.41402 0.79936 0.20911 0.0
C1308 C 0.43128 0.78692 0.22419 0.0
H1309 H 0.36556 0.91514 0.3122 0.0
H1310 H 0.38638 0.88144 0.29107 0.0
C1311 C 0.44071 0.76534 0.21459 0.0
C1312 C 0.40139 0.82034 0.22068 0.0
H1313 H 0.40943 0.87578 0.24794 0.0
C1314 C 0.37646 0.81909 0.22306 0.0
C1315 C 0.4134 0.84113 0.22953 0.0
C1316 C 0.44004 0.84405 0.22631 0.0
C1317 C 0.36316 0.83771 0.23456 0.0
C1318 C 0.37514 0.85851 0.2439 0.0
C1319 C 0.40015 0.85984 0.2412 0.0
C1320 C 0.3623 0.87892 0.2568 0.0
C1321 C 0.33648 0.83431 0.23667 0.0
C1322 C 0.34216 0.88928 0.24448 0.0
C1323 C 0.32958 0.90759 0.2574 0.0
C1324 C 0.33723 0.91637 0.28253 0.0
C1325 C 0.35843 0.9075 0.29378 0.0
C1326 C 0.37058 0.8886 0.28135 0.0
H1327 H 0.33182 0.81515 0.23941 0.0
H1328 H 0.32866 0.84449 0.25357 0.0
H1329 H 0.32802 0.8404 0.21757 0.0
H1330 H 0.33606 0.88316 0.2249 0.0
H1331 H 0.31386 0.91495 0.2477 0.0
H1332 H 0.74108 0.45693 0.72247 0.0
H1333 H 0.70392 0.44154 0.7421 0.0
H1334 H 0.69924 0.3891 0.67846 0.0
H1335 H 0.73631 0.40404 0.65887 0.0
H1336 H 0.65615 0.43348 0.72073 0.0
H1337 H 0.70269 0.34957 0.74907 0.0
H1338 H 0.71855 0.37617 0.73887 0.0
H1339 H 0.70516 0.35707 0.71386 0.0
C1340 C 0.73195 0.44238 0.71238 0.0
C1341 C 0.74188 0.43151 0.68928 0.0
C1342 C 0.71074 0.43361 0.72366 0.0
C1343 C 0.69917 0.4139 0.71201 0.0
C1344 C 0.70819 0.40403 0.68804 0.0
H1345 H 0.58632 0.31607 0.75419 0.0
H1346 H 0.61854 0.33878 0.73263 0.0
C1347 C 0.72937 0.41267 0.67684 0.0
C1348 C 0.67855 0.40254 0.72565 0.0
H1349 H 0.66057 0.34986 0.7536 0.0
C1350 C 0.65709 0.4153 0.72825 0.0
C1351 C 0.67995 0.37884 0.73544 0.0
C1352 C 0.70288 0.36465 0.73444 0.0
C1353 C 0.63668 0.40464 0.73965 0.0
C1354 C 0.638 0.38076 0.74907 0.0
C1355 C 0.65958 0.36819 0.74663 0.0
C1356 C 0.61728 0.36812 0.76117 0.0
C1357 C 0.61372 0.41875 0.74054 0.0
C1358 C 0.60571 0.37714 0.78425 0.0
C1359 C 0.58726 0.36417 0.79648 0.0
C1360 C 0.58065 0.34173 0.78628 0.0
C1361 C 0.59163 0.33309 0.76276 0.0
C1362 C 0.60995 0.34606 0.75046 0.0
H1363 H 0.61383 0.43365 0.72569 0.0
H1364 H 0.59805 0.40715 0.73635 0.0
H1365 H 0.61152 0.4266 0.76099 0.0
H1366 H 0.61129 0.39389 0.79319 0.0
H1367 H 0.57835 0.37151 0.81406 0.0
H1368 H 0.18425 0.59767 0.26576 0.0
H1369 H 0.15938 0.62943 0.24659 0.0
H1370 H 0.10521 0.61516 0.30661 0.0
H1371 H 0.13068 0.58404 0.32646 0.0
H1372 H 0.11651 0.62444 0.22359 0.0
H1373 H 0.10687 0.68648 0.311 0.0
H1374 H 0.13006 0.66433 0.30889 0.0
H1375 H 0.10009 0.65562 0.31748 0.0
C1376 C 0.16729 0.60182 0.27523 0.0
C1377 C 0.15961 0.589 0.29798 0.0
C1378 C 0.15301 0.61982 0.2642 0.0
C1379 C 0.13048 0.62499 0.27529 0.0
C1380 C 0.12277 0.61211 0.29812 0.0
H1381 H 0.03492 0.73977 0.21982 0.0
H1382 H 0.04769 0.7021 0.24045 0.0
C1383 C 0.13729 0.59432 0.30946 0.0
C1384 C 0.11485 0.64295 0.2618 0.0
H1385 H 0.08769 0.69703 0.27096 0.0
C1386 C 0.11009 0.64023 0.23404 0.0
C1387 C 0.10595 0.66337 0.27541 0.0
C1388 C 0.11099 0.66784 0.30484 0.0
C1389 C 0.09767 0.65779 0.2194 0.0
C1390 C 0.09006 0.67878 0.23278 0.0
C1391 C 0.09356 0.6809 0.26075 0.0
C1392 C 0.08076 0.69984 0.21792 0.0
C1393 C 0.09308 0.65381 0.18968 0.0
C1394 C 0.09507 0.71102 0.19838 0.0
C1395 C 0.08788 0.73251 0.1866 0.0
C1396 C 0.06627 0.74345 0.19427 0.0
C1397 C 0.05165 0.73189 0.2134 0.0
C1398 C 0.0589 0.71033 0.2252 0.0
H1399 H 0.09224 0.63444 0.18481 0.0
H1400 H 0.07615 0.6624 0.18314 0.0
H1401 H 0.10798 0.66167 0.17783 0.0
H1402 H 0.1123 0.70362 0.19297 0.0
H1403 H 0.09968 0.74086 0.17203 0.0
H1404 H 0.92359 0.12568 0.81376 0.0
H1405 H 0.89104 0.10234 0.79328 0.0
H1406 H 0.87877 0.15914 0.73586 0.0
H1407 H 0.91142 0.18218 0.75608 0.0
H1408 H 0.84402 0.1138 0.78901 0.0
H1409 H 0.88174 0.10153 0.68671 0.0
H1410 H 0.89952 0.11164 0.71494 0.0
H1411 H 0.88111 0.13239 0.69647 0.0
C1412 C 0.91374 0.13313 0.79689 0.0
C1413 C 0.91935 0.15591 0.7869 0.0
C1414 C 0.89537 0.11975 0.78506 0.0
C1415 C 0.88271 0.12883 0.76276 0.0
C1416 C 0.88863 0.15152 0.75262 0.0
H1417 H 0.75551 0.10355 0.67317 0.0
H1418 H 0.79356 0.11654 0.69207 0.0
C1419 C 0.90706 0.16477 0.76433 0.0
C1420 C 0.86245 0.1153 0.75095 0.0
H1421 H 0.83944 0.09505 0.69121 0.0
C1422 C 0.84312 0.10945 0.76774 0.0
C1423 C 0.86141 0.10941 0.72313 0.0
C1424 C 0.88218 0.11384 0.70433 0.0
C1425 C 0.82222 0.09915 0.7573 0.0
C1426 C 0.82085 0.09405 0.72932 0.0
C1427 C 0.84051 0.09907 0.71264 0.0
C1428 C 0.79859 0.08503 0.71675 0.0
C1429 C 0.80139 0.09484 0.77607 0.0
C1430 C 0.78904 0.06273 0.72396 0.0
C1431 C 0.76716 0.05519 0.71322 0.0
C1432 C 0.75451 0.06982 0.69499 0.0
C1433 C 0.76463 0.09181 0.6872 0.0
C1434 C 0.78644 0.09929 0.69794 0.0
H1435 H 0.80362 0.10424 0.79572 0.0
H1436 H 0.78442 0.10086 0.76665 0.0
H1437 H 0.79987 0.07542 0.78023 0.0
H1438 H 0.79836 0.05129 0.73813 0.0
H1439 H 0.76001 0.0381 0.71956 0.0
H1440 H 0.48546 0.22474 0.11959 0.0
H1441 H 0.47027 0.24099 0.07673 0.0
H1442 H 0.52866 0.20758 0.03414 0.0
H1443 H 0.54359 0.19116 0.07629 0.0
H1444 H 0.49434 0.27251 0.04568 0.0
H1445 H 0.4743 0.19361 0.98341 0.0
H1446 H 0.47717 0.19185 0.01976 0.0
H1447 H 0.50323 0.19013 0.99837 0.0
C1448 C 0.49467 0.22039 0.10096 0.0
C1449 C 0.51583 0.2068 0.10137 0.0
C1450 C 0.48599 0.2297 0.07652 0.0
C1451 C 0.49811 0.2252 0.05215 0.0
C1452 C 0.51862 0.2108 0.05251 0.0
H1453 H 0.55114 0.30159 0.92658 0.0
H1454 H 0.53524 0.28656 0.96897 0.0
C1455 C 0.52732 0.20165 0.07677 0.0
C1456 C 0.49172 0.23787 0.02681 0.0
H1457 H 0.48986 0.2286 0.95867 0.0
C1458 C 0.49259 0.26294 0.0267 0.0
C1459 C 0.48881 0.22553 0.00204 0.0
C1460 C 0.48555 0.19879 0.00098 0.0
C1461 C 0.49334 0.27576 0.00233 0.0
C1462 C 0.49373 0.26313 0.97754 0.0
C1463 C 0.4901 0.23831 0.97766 0.0
C1464 C 0.50164 0.2746 0.95202 0.0
C1465 C 0.49491 0.30266 0.00341 0.0
C1466 C 0.4882 0.2726 0.92813 0.0
C1467 C 0.49741 0.28104 0.90356 0.0
C1468 C 0.52036 0.2913 0.90245 0.0
C1469 C 0.53345 0.29374 0.92658 0.0
C1470 C 0.52424 0.2854 0.95099 0.0
H1471 H 0.48518 0.30974 0.02129 0.0
H1472 H 0.51392 0.30803 0.00544 0.0
H1473 H 0.48747 0.311 0.98485 0.0
H1474 H 0.47083 0.26406 0.92842 0.0
H1475 H 0.48688 0.27883 0.88535 0.0
H1476 H 0.23006 0.48698 0.38151 0.0
H1477 H 0.24654 0.46849 0.42265 0.0
H1478 H 0.21535 0.52474 0.47077 0.0
H1479 H 0.19879 0.54288 0.43044 0.0
H1480 H 0.2791 0.48922 0.45533 0.0
H1481 H 0.20057 0.46783 0.5172 0.0
H1482 H 0.19842 0.4727 0.48114 0.0
H1483 H 0.19716 0.49756 0.50438 0.0
C1484 C 0.22626 0.495 0.40099 0.0
C1485 C 0.21326 0.51648 0.4027 0.0
C1486 C 0.23569 0.48444 0.42443 0.0
C1487 C 0.23182 0.49498 0.44987 0.0
C1488 C 0.21804 0.51586 0.45154 0.0
H1489 H 0.30832 0.54595 0.57284 0.0
H1490 H 0.29435 0.52861 0.53081 0.0
C1491 C 0.20882 0.52642 0.42832 0.0
C1492 C 0.24456 0.48666 0.47444 0.0
H1493 H 0.23566 0.48328 0.54251 0.0
C1494 C 0.26963 0.48706 0.47432 0.0
C1495 C 0.23238 0.48305 0.49918 0.0
C1496 C 0.20564 0.47998 0.50037 0.0
C1497 C 0.2826 0.48711 0.49861 0.0
C1498 C 0.27011 0.48737 0.5235 0.0
C1499 C 0.24529 0.48374 0.52348 0.0
C1500 C 0.28153 0.49576 0.54889 0.0
C1501 C 0.30949 0.48827 0.49732 0.0
C1502 C 0.27874 0.48326 0.57334 0.0
C1503 C 0.28648 0.49338 0.59776 0.0
C1504 C 0.29687 0.51631 0.59812 0.0
C1505 C 0.30033 0.52832 0.57344 0.0
C1506 C 0.29263 0.51824 0.54921 0.0
H1507 H 0.31629 0.47791 0.47975 0.0
H1508 H 0.31513 0.50712 0.49446 0.0
H1509 H 0.31786 0.48124 0.51607 0.0
H1510 H 0.26997 0.46601 0.57362 0.0
H1511 H 0.28353 0.48364 0.61639 0.0
H1512 H 0.01731 0.2783 0.11527 0.0
H1513 H 0.03297 0.26264 0.07239 0.0
H1514 H 0.9721 0.29191 0.03036 0.0
H1515 H 0.95672 0.30785 0.07252 0.0
H1516 H 0.0114 0.22945 0.04214 0.0
H1517 H 0.02432 0.30882 0.97838 0.0
H1518 H 0.02158 0.3109 0.01472 0.0
H1519 H 0.99532 0.31032 0.99356 0.0
C1520 C 0.00761 0.2819 0.09676 0.0
C1521 C 0.98567 0.2942 0.09737 0.0
C1522 C 0.01657 0.27292 0.07229 0.0
C1523 C 0.00393 0.27642 0.04805 0.0
C1524 C 0.98256 0.28951 0.04859 0.0
H1525 H 0.95438 0.1947 0.92567 0.0
H1526 H 0.97053 0.21101 0.96725 0.0
C1527 C 0.9736 0.29838 0.07288 0.0
C1528 C 0.01087 0.26397 0.02273 0.0
H1529 H 0.01087 0.27248 0.95443 0.0
C1530 C 0.01205 0.23891 0.023 0.0
C1531 C 0.01243 0.27617 0.99772 0.0
C1532 C 0.01363 0.30306 0.99615 0.0
C1533 C 0.01197 0.22575 0.99883 0.0
C1534 C 0.0101 0.23799 0.97387 0.0
C1535 C 0.01174 0.26302 0.97355 0.0
C1536 C 0.00243 0.22562 0.94877 0.0
C1537 C 0.01267 0.19884 0.00037 0.0
C1538 C 0.0148 0.2286 0.92427 0.0
C1539 C 0.0054 0.2194 0.90012 0.0
C1540 C 0.98328 0.20741 0.90009 0.0
C1541 C 0.97139 0.2039 0.92484 0.0
C1542 C 0.98078 0.21299 0.9488 0.0
H1543 H 0.02352 0.19285 0.01792 0.0
H1544 H 0.99426 0.19194 0.00331 0.0
H1545 H 0.02018 0.19087 0.98164 0.0
H1546 H 0.03141 0.23854 0.92374 0.0
H1547 H 0.01498 0.22247 0.88141 0.0
H1548 H 0.27413 0.01138 0.3817 0.0
H1549 H 0.25899 0.02684 0.42497 0.0
H1550 H 0.28775 0.96516 0.46595 0.0
H1551 H 0.30303 0.94989 0.42338 0.0
H1552 H 0.22575 0.00434 0.4562 0.0
H1553 H 0.30691 0.01801 0.51712 0.0
H1554 H 0.3078 0.0156 0.48067 0.0
H1555 H 0.30782 0.98913 0.5015 0.0
C1556 C 0.27767 0.00143 0.40006 0.0
C1557 C 0.28967 0.97933 0.39906 0.0
C1558 C 0.269 0.01027 0.42473 0.0
C1559 C 0.27257 0.99735 0.44877 0.0
C1560 C 0.28528 0.97577 0.44784 0.0
H1561 H 0.19474 0.95038 0.57678 0.0
H1562 H 0.20997 0.96483 0.53381 0.0
C1563 C 0.29379 0.96691 0.42334 0.0
C1564 C 0.26074 0.00441 0.47441 0.0
H1565 H 0.27113 0.00572 0.54236 0.0
C1566 C 0.23569 0.00539 0.475 0.0
C1567 C 0.27363 0.00636 0.49893 0.0
C1568 C 0.30055 0.0075 0.49946 0.0
C1569 C 0.22321 0.00566 0.49962 0.0
C1570 C 0.23615 0.00448 0.52417 0.0
C1571 C 0.26116 0.00615 0.52355 0.0
C1572 C 0.22449 0.99771 0.55001 0.0
C1573 C 0.19628 0.00607 0.49906 0.0
C1574 C 0.22777 0.01126 0.57365 0.0
C1575 C 0.21916 0.00289 0.59854 0.0
C1576 C 0.20749 0.98065 0.60022 0.0
C1577 C 0.20372 0.96753 0.57633 0.0
C1578 C 0.21219 0.97592 0.55159 0.0
H1579 H 0.18964 0.01606 0.48115 0.0
H1580 H 0.1895 0.98748 0.4975 0.0
H1581 H 0.18881 0.01435 0.51764 0.0
H1582 H 0.23746 0.02801 0.57292 0.0
H1583 H 0.22243 0.0134 0.61656 0.0
H1584 H 0.51467 0.78059 0.88259 0.0
H1585 H 0.53035 0.76441 0.92527 0.0
H1586 H 0.46478 0.78384 0.96549 0.0
H1587 H 0.44931 0.80033 0.92365 0.0
H1588 H 0.50521 0.79377 0.99614 0.0
H1589 H 0.50645 0.70063 0.95601 0.0
H1590 H 0.52371 0.72295 0.93857 0.0
H1591 H 0.49168 0.72454 0.93816 0.0
C1592 C 0.50373 0.78163 0.90062 0.0
C1593 C 0.48059 0.79149 0.89955 0.0
C1594 C 0.51267 0.77228 0.92494 0.0
C1595 C 0.49859 0.77263 0.94846 0.0
C1596 C 0.47597 0.78334 0.9476 0.0
H1597 H 0.45355 0.69501 0.07564 0.0
H1598 H 0.46822 0.71153 0.03343 0.0
C1599 C 0.46708 0.79266 0.92351 0.0
C1600 C 0.50616 0.76077 0.97388 0.0
H1601 H 0.5091 0.70546 0.00281 0.0
C1602 C 0.50675 0.77449 0.99765 0.0
C1603 C 0.50818 0.73561 0.97568 0.0
C1604 C 0.50739 0.71993 0.95085 0.0
C1605 C 0.50703 0.76367 0.02327 0.0
C1606 C 0.50724 0.73843 0.02509 0.0
C1607 C 0.50894 0.7248 0.0013 0.0
C1608 C 0.50073 0.726 0.05055 0.0
C1609 C 0.5049 0.77927 0.04807 0.0
C1610 C 0.51448 0.72801 0.07423 0.0
C1611 C 0.50597 0.71867 0.09875 0.0
C1612 C 0.4836 0.70716 0.09985 0.0
C1613 C 0.47067 0.70405 0.07572 0.0
C1614 C 0.47912 0.71336 0.05143 0.0
H1615 H 0.50213 0.79839 0.04287 0.0
H1616 H 0.48976 0.77325 0.06089 0.0
H1617 H 0.5215 0.77785 0.06022 0.0
H1618 H 0.53142 0.73735 0.0739 0.0
H1619 H 0.51645 0.72122 0.11692 0.0
H1620 H 0.78032 0.5147 0.61573 0.0
H1621 H 0.76499 0.53081 0.57286 0.0
H1622 H 0.78741 0.46661 0.53178 0.0
H1623 H 0.80313 0.45077 0.57383 0.0
H1624 H 0.79569 0.50737 0.5016 0.0
H1625 H 0.70249 0.5051 0.54148 0.0
H1626 H 0.72406 0.52321 0.55899 0.0
H1627 H 0.72688 0.49125 0.55943 0.0
C1628 C 0.78231 0.50422 0.59745 0.0
C1629 C 0.79261 0.48126 0.59833 0.0
C1630 C 0.77341 0.5134 0.57302 0.0
C1631 C 0.77469 0.49973 0.54922 0.0
C1632 C 0.78616 0.47747 0.54988 0.0
H1633 H 0.69906 0.45128 0.42276 0.0
H1634 H 0.7152 0.46693 0.46469 0.0
C1635 C 0.79502 0.46835 0.57408 0.0
C1636 C 0.76265 0.50708 0.5238 0.0
H1637 H 0.70734 0.50785 0.49475 0.0
C1638 C 0.77637 0.50818 0.50005 0.0
C1639 C 0.73744 0.50816 0.52194 0.0
C1640 C 0.72173 0.50678 0.54671 0.0
C1641 C 0.76559 0.50797 0.47441 0.0
C1642 C 0.74037 0.50715 0.47255 0.0
C1643 C 0.72666 0.50845 0.49629 0.0
C1644 C 0.72824 0.49988 0.44716 0.0
C1645 C 0.78128 0.50638 0.44964 0.0
C1646 C 0.7296 0.51351 0.42333 0.0
C1647 C 0.72047 0.50444 0.39897 0.0
C1648 C 0.70984 0.48163 0.39816 0.0
C1649 C 0.70741 0.46875 0.42244 0.0
C1650 C 0.71651 0.47776 0.44657 0.0
H1651 H 0.80049 0.50453 0.45487 0.0
H1652 H 0.77597 0.49087 0.43697 0.0
H1653 H 0.77909 0.5228 0.43731 0.0
H1654 H 0.73823 0.53083 0.42343 0.0
H1655 H 0.72248 0.51489 0.38067 0.0
H1656 H 0.98357 0.77662 0.11521 0.0
H1657 H 0.96821 0.76041 0.07238 0.0
H1658 H 0.03429 0.77932 0.03293 0.0
H1659 H 0.04948 0.79577 0.07492 0.0
H1660 H 0.99348 0.78996 0.00218 0.0
H1661 H 0.99259 0.69645 0.04129 0.0
H1662 H 0.97557 0.71882 0.05899 0.0
H1663 H 0.00759 0.72015 0.05928 0.0
C1664 C 0.99469 0.77753 0.09731 0.0
C1665 C 0.01789 0.78723 0.09863 0.0
C1666 C 0.98592 0.76816 0.07292 0.0
C1667 C 1.00023 0.76843 0.04957 0.0
C1668 C 0.02294 0.77893 0.05069 0.0
H1669 H 0.04843 0.69381 0.92245 0.0
H1670 H 0.03247 0.70906 0.9647 0.0
C1671 C 0.03166 0.78821 0.07486 0.0
C1672 C 0.99279 0.75673 0.02402 0.0
H1673 H 0.99105 0.70166 0.99445 0.0
C1674 C 0.99222 0.77067 0.00042 0.0
C1675 C 0.99112 0.73158 0.02193 0.0
C1676 C 0.99182 0.71573 0.04662 0.0
C1677 C 0.99238 0.76008 0.97468 0.0
C1678 C 0.99263 0.73486 0.97258 0.0
C1679 C 0.99085 0.72098 0.99617 0.0
C1680 C 0.99983 0.72283 0.94712 0.0
C1681 C 0.99454 0.77595 0.9501 0.0
C1682 C 0.98643 0.7248 0.9232 0.0
C1683 C 0.99568 0.71619 0.89869 0.0
C1684 C 0.01844 0.70548 0.89784 0.0
C1685 C 0.03102 0.70227 0.9222 0.0
C1686 C 0.02183 0.71085 0.94649 0.0
H1687 H 0.99678 0.79508 0.95556 0.0
H1688 H 0.01004 0.7704 0.93755 0.0
H1689 H 0.9782 0.77424 0.93756 0.0
H1690 H 0.96923 0.73364 0.92333 0.0
H1691 H 0.98546 0.71878 0.88032 0.0
H1692 H 0.72113 0.98598 0.61801 0.0
H1693 H 0.73738 0.97102 0.57503 0.0
H1694 H 0.71581 0.03629 0.53556 0.0
H1695 H 0.69928 0.05106 0.57773 0.0
H1696 H 0.70704 0.99545 0.50457 0.0
H1697 H 0.80027 0.99766 0.54434 0.0
H1698 H 0.7786 0.97959 0.56178 0.0
H1699 H 0.77591 0.01155 0.56232 0.0
C1700 C 0.71961 0.99699 0.60007 0.0
C1701 C 0.7092 0.01988 0.60144 0.0
C1702 C 0.729 0.98845 0.57558 0.0
C1703 C 0.72808 0.00269 0.5522 0.0
C1704 C 0.71674 0.025 0.55335 0.0
H1705 H 0.8028 0.05236 0.42533 0.0
H1706 H 0.7869 0.03664 0.46738 0.0
C1707 C 0.70742 0.03349 0.57761 0.0
C1708 C 0.74013 0.99573 0.52668 0.0
H1709 H 0.7954 0.99549 0.49752 0.0
C1710 C 0.72636 0.99474 0.50297 0.0
C1711 C 0.76533 0.9948 0.52477 0.0
C1712 C 0.78103 0.99604 0.54955 0.0
C1713 C 0.7371 0.99514 0.4773 0.0
C1714 C 0.76231 0.99608 0.4754 0.0
C1715 C 0.77608 0.99477 0.4991 0.0
C1716 C 0.77434 0.00344 0.45 0.0
C1717 C 0.72138 0.99675 0.45257 0.0
C1718 C 0.77315 0.9897 0.42625 0.0
C1719 C 0.78216 0.9988 0.40184 0.0
C1720 C 0.79247 0.02175 0.40092 0.0
C1721 C 0.7947 0.03478 0.42512 0.0
C1722 C 0.78574 0.02573 0.4493 0.0
H1723 H 0.70215 0.99842 0.45784 0.0
H1724 H 0.72655 0.01238 0.44002 0.0
H1725 H 0.72368 0.98043 0.4401 0.0
H1726 H 0.76474 0.97228 0.42644 0.0
H1727 H 0.7803 0.98824 0.3836 0.0
loop_
_geom_bond_atom_site_label_1
_geom_bond_atom_site_label_2
_geom_bond_distance
_geom_bond_site_symmetry_2
_ccdc_geom_bond_type
Mn0 O5 2.095 . S
Mn0 O15 2.162 . S
Mn0 O16 2.297 . S
Mn0 O24 2.385 . S
Mn0 O25 2.209 . S
Mn0 O26 2.094 . S
Mn1 O6 2.121 . S
Mn1 N8 2.257 . S
Mn1 N17 2.282 . S
Mn1 O25 2.215 . S
Mn1 O27 2.117 . S
C2 O24 1.234 . S
C2 O25 1.283 . S
C3 O15 1.281 . S
C3 O16 1.236 . S
C4 O26 1.240 . S
C4 O27 1.264 . S
O5 Mn0 2.095 . S
O5 C14 1.250 . S
O6 Mn1 2.121 . S
O6 C14 1.258 . S
C7 N8 1.326 . S
C7 C11 1.460 . S
C7 H13 0.929 . S
N8 Mn1 2.257 . S
N8 C7 1.326 . S
N8 C12 1.362 . S
C9 C10 1.258 . S
C9 C12 1.431 . S
C9 C29 1.449 . S
C10 C9 1.258 . S
C10 C11 1.477 . S
C10 H30 0.931 . S
C11 C7 1.460 . S
C11 C10 1.477 . S
C11 H31 0.930 . S
C12 N8 1.362 . S
C12 C9 1.431 . S
C12 C22 1.476 . S
H13 C7 0.929 . S
C14 O5 1.250 . S
C14 O6 1.258 . S
O15 Mn0 2.162 . S
O15 C3 1.281 . S
O16 Mn0 2.297 . S
O16 C3 1.236 . S
N17 Mn1 2.282 . S
N17 C18 1.328 . S
N17 C22 1.318 . S
C18 N17 1.328 . S
C18 C19 1.457 . S
C18 H23 0.929 . S
C19 C18 1.457 . S
C19 C20 1.291 . S
C19 H32 0.931 . S
C20 C19 1.291 . S
C20 C21 1.373 . S
C20 H33 0.929 . S
C21 C20 1.373 . S
C21 C22 1.396 . S
C21 C28 1.403 . S
C22 C12 1.476 . S
C22 N17 1.318 . S
C22 C21 1.396 . S
H23 C18 0.929 . S
O24 Mn0 2.385 . S
O24 C2 1.234 . S
O25 Mn0 2.209 . S
O25 Mn1 2.215 . S
O25 C2 1.283 . S
O26 Mn0 2.094 . S
O26 C4 1.240 . S
O27 Mn1 2.117 . S
O27 C4 1.264 . S
C28 C21 1.403 . S
C28 C29 1.399 . S
C28 H34 0.929 . S
C29 C9 1.449 . S
C29 C28 1.399 . S
C29 H35 0.930 . S
H30 C10 0.931 . S
H31 C11 0.930 . S
H32 C19 0.931 . S
H33 C20 0.929 . S
H34 C28 0.929 . S
H35 C29 0.930 . S
Mn36 O41 2.095 . S
Mn36 O51 2.162 . S
Mn36 O52 2.297 . S
Mn36 O60 2.385 . S
Mn36 O61 2.209 . S
Mn36 O62 2.094 . S
Mn37 O42 2.121 . S
Mn37 N44 2.257 . S
Mn37 N53 2.282 . S
Mn37 O61 2.215 . S
Mn37 O63 2.117 . S
C38 O60 1.234 . S
C38 O61 1.283 . S
C39 O51 1.281 . S
C39 O52 1.236 . S
C40 O62 1.240 . S
C40 O63 1.264 . S
O41 Mn36 2.095 . S
O41 C50 1.250 . S
O42 Mn37 2.121 . S
O42 C50 1.258 . S
C43 N44 1.326 . S
C43 C47 1.460 . S
C43 H49 0.929 . S
N44 Mn37 2.257 . S
N44 C43 1.326 . S
N44 C48 1.362 . S
C45 C46 1.258 . S
C45 C48 1.431 . S
C45 C65 1.449 . S
C46 C45 1.258 . S
C46 C47 1.477 . S
C46 H66 0.931 . S
C47 C43 1.460 . S
C47 C46 1.477 . S
C47 H67 0.930 . S
C48 N44 1.362 . S
C48 C45 1.431 . S
C48 C58 1.476 . S
H49 C43 0.929 . S
C50 O41 1.250 . S
C50 O42 1.258 . S
O51 Mn36 2.162 . S
O51 C39 1.281 . S
O52 Mn36 2.297 . S
O52 C39 1.236 . S
N53 Mn37 2.282 . S
N53 C54 1.328 . S
N53 C58 1.318 . S
C54 N53 1.328 . S
C54 C55 1.457 . S
C54 H59 0.929 . S
C55 C54 1.457 . S
C55 C56 1.291 . S
C55 H68 0.931 . S
C56 C55 1.291 . S
C56 C57 1.373 . S
C56 H69 0.929 . S
C57 C56 1.373 . S
C57 C58 1.396 . S
C57 C64 1.403 . S
C58 C48 1.476 . S
C58 N53 1.318 . S
C58 C57 1.396 . S
H59 C54 0.929 . S
O60 Mn36 2.385 . S
O60 C38 1.234 . S
O61 Mn36 2.209 . S
O61 Mn37 2.215 . S
O61 C38 1.283 . S
O62 Mn36 2.094 . S
O62 C40 1.240 . S
O63 Mn37 2.117 . S
O63 C40 1.264 . S
C64 C57 1.403 . S
C64 C65 1.399 . S
C64 H70 0.929 . S
C65 C45 1.449 . S
C65 C64 1.399 . S
C65 H71 0.930 . S
H66 C46 0.931 . S
H67 C47 0.930 . S
H68 C55 0.931 . S
H69 C56 0.929 . S
H70 C64 0.929 . S
H71 C65 0.930 . S
Mn72 O77 2.095 . S
Mn72 O87 2.162 1_655 S
Mn72 O88 2.297 1_655 S
Mn72 O96 2.385 . S
Mn72 O97 2.209 . S
Mn72 O98 2.094 . S
Mn73 O78 2.121 . S
Mn73 N80 2.257 . S
Mn73 N89 2.282 . S
Mn73 O97 2.215 . S
Mn73 O99 2.117 . S
C74 O96 1.234 . S
C74 O97 1.283 . S
C75 O87 1.281 . S
C75 O88 1.236 . S
C76 O98 1.240 . S
C76 O99 1.264 . S
O77 Mn72 2.095 . S
O77 C86 1.250 . S
O78 Mn73 2.121 . S
O78 C86 1.258 . S
C79 N80 1.326 . S
C79 C83 1.460 . S
C79 H85 0.929 . S
N80 Mn73 2.257 . S
N80 C79 1.326 . S
N80 C84 1.362 . S
C81 C82 1.258 . S
C81 C84 1.431 . S
C81 C101 1.449 . S
C82 C81 1.258 . S
C82 C83 1.477 . S
C82 H102 0.931 . S
C83 C79 1.460 . S
C83 C82 1.477 . S
C83 H103 0.930 . S
C84 N80 1.362 . S
C84 C81 1.431 . S
C84 C94 1.476 . S
H85 C79 0.929 . S
C86 O77 1.250 . S
C86 O78 1.258 . S
O87 Mn72 2.162 1_455 S
O87 C75 1.281 . S
O88 Mn72 2.297 1_455 S
O88 C75 1.236 . S
N89 Mn73 2.282 . S
N89 C90 1.328 . S
N89 C94 1.318 . S
C90 N89 1.328 . S
C90 C91 1.457 . S
C90 H95 0.929 . S
C91 C90 1.457 . S
C91 C92 1.291 . S
C91 H104 0.931 . S
C92 C91 1.291 . S
C92 C93 1.373 . S
C92 H105 0.929 . S
C93 C92 1.373 . S
C93 C94 1.396 . S
C93 C100 1.403 . S
C94 C84 1.476 . S
C94 N89 1.318 . S
C94 C93 1.396 . S
H95 C90 0.929 . S
O96 Mn72 2.385 . S
O96 C74 1.234 . S
O97 Mn72 2.209 . S
O97 Mn73 2.215 . S
O97 C74 1.283 . S
O98 Mn72 2.094 . S
O98 C76 1.240 . S
O99 Mn73 2.117 . S
O99 C76 1.264 . S
C100 C93 1.403 . S
C100 C101 1.399 . S
C100 H106 0.929 . S
C101 C81 1.449 . S
C101 C100 1.399 . S
C101 H107 0.930 . S
H102 C82 0.931 . S
H103 C83 0.930 . S
H104 C91 0.931 . S
H105 C92 0.929 . S
H106 C100 0.929 . S
H107 C101 0.930 . S
Mn108 O113 2.095 . S
Mn108 O123 2.162 1_565 S
Mn108 O124 2.297 1_565 S
Mn108 O132 2.385 . S
Mn108 O133 2.209 . S
Mn108 O134 2.094 . S
Mn109 O114 2.121 . S
Mn109 N116 2.257 . S
Mn109 N125 2.282 . S
Mn109 O133 2.215 . S
Mn109 O135 2.117 . S
C110 O132 1.234 . S
C110 O133 1.283 . S
C111 O123 1.281 . S
C111 O124 1.236 . S
C112 O134 1.240 . S
C112 O135 1.264 . S
O113 Mn108 2.095 . S
O113 C122 1.250 . S
O114 Mn109 2.121 . S
O114 C122 1.258 . S
C115 N116 1.326 . S
C115 C119 1.460 . S
C115 H121 0.929 . S
N116 Mn109 2.257 . S
N116 C115 1.326 . S
N116 C120 1.362 . S
C117 C118 1.258 . S
C117 C120 1.431 . S
C117 C137 1.449 . S
C118 C117 1.258 . S
C118 C119 1.477 . S
C118 H138 0.931 . S
C119 C115 1.460 . S
C119 C118 1.477 . S
C119 H139 0.930 . S
C120 N116 1.362 . S
C120 C117 1.431 . S
C120 C130 1.476 . S
H121 C115 0.929 . S
C122 O113 1.250 . S
C122 O114 1.258 . S
O123 Mn108 2.162 1_545 S
O123 C111 1.281 . S
O124 Mn108 2.297 1_545 S
O124 C111 1.236 . S
N125 Mn109 2.282 . S
N125 C126 1.328 . S
N125 C130 1.318 . S
C126 N125 1.328 . S
C126 C127 1.457 . S
C126 H131 0.929 . S
C127 C126 1.457 . S
C127 C128 1.291 . S
C127 H140 0.931 . S
C128 C127 1.291 . S
C128 C129 1.373 . S
C128 H141 0.929 . S
C129 C128 1.373 . S
C129 C130 1.396 . S
C129 C136 1.403 . S
C130 C120 1.476 . S
C130 N125 1.318 . S
C130 C129 1.396 . S
H131 C126 0.929 . S
O132 Mn108 2.385 . S
O132 C110 1.234 . S
O133 Mn108 2.209 . S
O133 Mn109 2.215 . S
O133 C110 1.283 . S
O134 Mn108 2.094 . S
O134 C112 1.240 . S
O135 Mn109 2.117 . S
O135 C112 1.264 . S
C136 C129 1.403 . S
C136 C137 1.399 . S
C136 H142 0.929 . S
C137 C117 1.449 . S
C137 C136 1.399 . S
C137 H143 0.930 . S
H138 C118 0.931 . S
H139 C119 0.930 . S
H140 C127 0.931 . S
H141 C128 0.929 . S
H142 C136 0.929 . S
H143 C137 0.930 . S
Mn144 O149 2.095 . S
Mn144 O159 2.162 . S
Mn144 O160 2.297 . S
Mn144 O168 2.385 . S
Mn144 O169 2.209 . S
Mn144 O170 2.094 . S
Mn145 O150 2.121 . S
Mn145 N152 2.257 . S
Mn145 N161 2.282 . S
Mn145 O169 2.215 . S
Mn145 O171 2.117 . S
C146 O168 1.234 . S
C146 O169 1.283 . S
C147 O159 1.281 . S
C147 O160 1.236 . S
C148 O170 1.240 . S
C148 O171 1.264 . S
O149 Mn144 2.095 . S
O149 C158 1.250 . S
O150 Mn145 2.121 . S
O150 C158 1.258 . S
C151 N152 1.326 . S
C151 C155 1.460 . S
C151 H157 0.929 . S
N152 Mn145 2.257 . S
N152 C151 1.326 . S
N152 C156 1.362 . S
C153 C154 1.258 . S
C153 C156 1.431 . S
C153 C173 1.449 . S
C154 C153 1.258 . S
C154 C155 1.477 . S
C154 H174 0.931 . S
C155 C151 1.460 . S
C155 C154 1.477 . S
C155 H175 0.930 . S
C156 N152 1.362 . S
C156 C153 1.431 . S
C156 C166 1.476 . S
H157 C151 0.929 . S
C158 O149 1.250 . S
C158 O150 1.258 . S
O159 Mn144 2.162 . S
O159 C147 1.281 . S
O160 Mn144 2.297 . S
O160 C147 1.236 . S
N161 Mn145 2.282 . S
N161 C162 1.328 . S
N161 C166 1.318 . S
C162 N161 1.328 . S
C162 C163 1.457 . S
C162 H167 0.929 . S
C163 C162 1.457 . S
C163 C164 1.291 . S
C163 H176 0.931 . S
C164 C163 1.291 . S
C164 C165 1.373 . S
C164 H177 0.929 . S
C165 C164 1.373 . S
C165 C166 1.396 . S
C165 C172 1.403 . S
C166 C156 1.476 . S
C166 N161 1.318 . S
C166 C165 1.396 . S
H167 C162 0.929 . S
O168 Mn144 2.385 . S
O168 C146 1.234 . S
O169 Mn144 2.209 . S
O169 Mn145 2.215 . S
O169 C146 1.283 . S
O170 Mn144 2.094 . S
O170 C148 1.240 . S
O171 Mn145 2.117 . S
O171 C148 1.264 . S
C172 C165 1.403 . S
C172 C173 1.399 . S
C172 H178 0.929 . S
C173 C153 1.449 . S
C173 C172 1.399 . S
C173 H179 0.930 . S
H174 C154 0.931 . S
H175 C155 0.930 . S
H176 C163 0.931 . S
H177 C164 0.929 . S
H178 C172 0.929 . S
H179 C173 0.930 . S
Mn180 O185 2.095 . S
Mn180 O195 2.162 . S
Mn180 O196 2.297 . S
Mn180 O204 2.385 . S
Mn180 O205 2.209 . S
Mn180 O206 2.094 . S
Mn181 O186 2.121 . S
Mn181 N188 2.257 . S
Mn181 N197 2.282 . S
Mn181 O205 2.215 . S
Mn181 O207 2.117 . S
C182 O204 1.234 . S
C182 O205 1.283 . S
C183 O195 1.281 . S
C183 O196 1.236 . S
C184 O206 1.240 . S
C184 O207 1.264 . S
O185 Mn180 2.095 . S
O185 C194 1.250 . S
O186 Mn181 2.121 . S
O186 C194 1.258 . S
C187 N188 1.326 . S
C187 C191 1.460 . S
C187 H193 0.929 . S
N188 Mn181 2.257 . S
N188 C187 1.326 . S
N188 C192 1.362 . S
C189 C190 1.258 . S
C189 C192 1.431 . S
C189 C209 1.449 . S
C190 C189 1.258 . S
C190 C191 1.477 . S
C190 H210 0.931 . S
C191 C187 1.460 . S
C191 C190 1.477 . S
C191 H211 0.930 . S
C192 N188 1.362 . S
C192 C189 1.431 . S
C192 C202 1.476 . S
H193 C187 0.929 . S
C194 O185 1.250 . S
C194 O186 1.258 . S
O195 Mn180 2.162 . S
O195 C183 1.281 . S
O196 Mn180 2.297 . S
O196 C183 1.236 . S
N197 Mn181 2.282 . S
N197 C198 1.328 . S
N197 C202 1.318 . S
C198 N197 1.328 . S
C198 C199 1.457 . S
C198 H203 0.929 . S
C199 C198 1.457 . S
C199 C200 1.291 . S
C199 H212 0.931 . S
C200 C199 1.291 . S
C200 C201 1.373 . S
C200 H213 0.929 . S
C201 C200 1.373 . S
C201 C202 1.396 . S
C201 C208 1.403 . S
C202 C192 1.476 . S
C202 N197 1.318 . S
C202 C201 1.396 . S
H203 C198 0.929 . S
O204 Mn180 2.385 . S
O204 C182 1.234 . S
O205 Mn180 2.209 . S
O205 Mn181 2.215 . S
O205 C182 1.283 . S
O206 Mn180 2.094 . S
O206 C184 1.240 . S
O207 Mn181 2.117 . S
O207 C184 1.264 . S
C208 C201 1.403 . S
C208 C209 1.399 . S
C208 H214 0.929 . S
C209 C189 1.449 . S
C209 C208 1.399 . S
C209 H215 0.930 . S
H210 C190 0.931 . S
H211 C191 0.930 . S
H212 C199 0.931 . S
H213 C200 0.929 . S
H214 C208 0.929 . S
H215 C209 0.930 . S
Mn216 O221 2.095 . S
Mn216 O231 2.162 1_655 S
Mn216 O232 2.297 1_655 S
Mn216 O240 2.385 . S
Mn216 O241 2.209 . S
Mn216 O242 2.094 . S
Mn217 O222 2.121 . S
Mn217 N224 2.257 . S
Mn217 N233 2.282 . S
Mn217 O241 2.215 . S
Mn217 O243 2.117 . S
C218 O240 1.234 . S
C218 O241 1.283 . S
C219 O231 1.281 . S
C219 O232 1.236 . S
C220 O242 1.240 . S
C220 O243 1.264 . S
O221 Mn216 2.095 . S
O221 C230 1.250 . S
O222 Mn217 2.121 . S
O222 C230 1.258 . S
C223 N224 1.326 . S
C223 C227 1.460 . S
C223 H229 0.929 . S
N224 Mn217 2.257 . S
N224 C223 1.326 . S
N224 C228 1.362 . S
C225 C226 1.258 . S
C225 C228 1.431 . S
C225 C245 1.449 . S
C226 C225 1.258 . S
C226 C227 1.477 . S
C226 H246 0.931 . S
C227 C223 1.460 . S
C227 C226 1.477 . S
C227 H247 0.930 . S
C228 N224 1.362 . S
C228 C225 1.431 . S
C228 C238 1.476 . S
H229 C223 0.929 . S
C230 O221 1.250 . S
C230 O222 1.258 . S
O231 Mn216 2.162 1_455 S
O231 C219 1.281 . S
O232 Mn216 2.297 1_455 S
O232 C219 1.236 . S
N233 Mn217 2.282 . S
N233 C234 1.328 . S
N233 C238 1.318 . S
C234 N233 1.328 . S
C234 C235 1.457 . S
C234 H239 0.929 . S
C235 C234 1.457 . S
C235 C236 1.291 . S
C235 H248 0.931 . S
C236 C235 1.291 . S
C236 C237 1.373 . S
C236 H249 0.929 . S
C237 C236 1.373 . S
C237 C238 1.396 . S
C237 C244 1.403 . S
C238 C228 1.476 . S
C238 N233 1.318 . S
C238 C237 1.396 . S
H239 C234 0.929 . S
O240 Mn216 2.385 . S
O240 C218 1.234 . S
O241 Mn216 2.209 . S
O241 Mn217 2.215 . S
O241 C218 1.283 . S
O242 Mn216 2.094 . S
O242 C220 1.240 . S
O243 Mn217 2.117 . S
O243 C220 1.264 . S
C244 C237 1.403 . S
C244 C245 1.399 . S
C244 H250 0.929 . S
C245 C225 1.449 . S
C245 C244 1.399 . S
C245 H251 0.930 . S
H246 C226 0.931 . S
H247 C227 0.930 . S
H248 C235 0.931 . S
H249 C236 0.929 . S
H250 C244 0.929 . S
H251 C245 0.930 . S
Mn252 O257 2.095 . S
Mn252 O267 2.162 1_565 S
Mn252 O268 2.297 1_565 S
Mn252 O276 2.385 . S
Mn252 O277 2.209 . S
Mn252 O278 2.094 . S
Mn253 O258 2.121 . S
Mn253 N260 2.257 . S
Mn253 N269 2.282 . S
Mn253 O277 2.215 . S
Mn253 O279 2.117 . S
C254 O276 1.234 . S
C254 O277 1.283 . S
C255 O267 1.281 . S
C255 O268 1.236 . S
C256 O278 1.240 . S
C256 O279 1.264 . S
O257 Mn252 2.095 . S
O257 C266 1.250 . S
O258 Mn253 2.121 . S
O258 C266 1.258 . S
C259 N260 1.326 . S
C259 C263 1.460 . S
C259 H265 0.929 . S
N260 Mn253 2.257 . S
N260 C259 1.326 . S
N260 C264 1.362 . S
C261 C262 1.258 . S
C261 C264 1.431 . S
C261 C281 1.449 . S
C262 C261 1.258 . S
C262 C263 1.477 . S
C262 H282 0.931 . S
C263 C259 1.460 . S
C263 C262 1.477 . S
C263 H283 0.930 . S
C264 N260 1.362 . S
C264 C261 1.431 . S
C264 C274 1.476 . S
H265 C259 0.929 . S
C266 O257 1.250 . S
C266 O258 1.258 . S
O267 Mn252 2.162 1_545 S
O267 C255 1.281 . S
O268 Mn252 2.297 1_545 S
O268 C255 1.236 . S
N269 Mn253 2.282 . S
N269 C270 1.328 . S
N269 C274 1.318 . S
C270 N269 1.328 . S
C270 C271 1.457 . S
C270 H275 0.929 . S
C271 C270 1.457 . S
C271 C272 1.291 . S
C271 H284 0.931 . S
C272 C271 1.291 . S
C272 C273 1.373 . S
C272 H285 0.929 . S
C273 C272 1.373 . S
C273 C274 1.396 . S
C273 C280 1.403 . S
C274 C264 1.476 . S
C274 N269 1.318 . S
C274 C273 1.396 . S
H275 C270 0.929 . S
O276 Mn252 2.385 . S
O276 C254 1.234 . S
O277 Mn252 2.209 . S
O277 Mn253 2.215 . S
O277 C254 1.283 . S
O278 Mn252 2.094 . S
O278 C256 1.240 . S
O279 Mn253 2.117 . S
O279 C256 1.264 . S
C280 C273 1.403 . S
C280 C281 1.399 . S
C280 H286 0.929 . S
C281 C261 1.449 . S
C281 C280 1.399 . S
C281 H287 0.930 . S
H282 C262 0.931 . S
H283 C263 0.930 . S
H284 C271 0.931 . S
H285 C272 0.929 . S
H286 C280 0.929 . S
H287 C281 0.930 . S
Mn288 O293 2.095 . S
Mn288 O303 2.162 . S
Mn288 O304 2.297 . S
Mn288 O312 2.385 . S
Mn288 O313 2.209 . S
Mn288 O314 2.094 . S
Mn289 O294 2.121 . S
Mn289 N296 2.257 . S
Mn289 N305 2.282 . S
Mn289 O313 2.215 . S
Mn289 O315 2.117 . S
C290 O312 1.234 . S
C290 O313 1.283 . S
C291 O303 1.281 . S
C291 O304 1.236 . S
C292 O314 1.240 . S
C292 O315 1.264 . S
O293 Mn288 2.095 . S
O293 C302 1.250 . S
O294 Mn289 2.121 . S
O294 C302 1.258 . S
C295 N296 1.326 . S
C295 C299 1.460 . S
C295 H301 0.929 . S
N296 Mn289 2.257 . S
N296 C295 1.326 . S
N296 C300 1.362 . S
C297 C298 1.258 . S
C297 C300 1.431 . S
C297 C317 1.449 . S
C298 C297 1.258 . S
C298 C299 1.477 . S
C298 H318 0.931 . S
C299 C295 1.460 . S
C299 C298 1.477 . S
C299 H319 0.930 . S
C300 N296 1.362 . S
C300 C297 1.431 . S
C300 C310 1.476 . S
H301 C295 0.929 . S
C302 O293 1.250 . S
C302 O294 1.258 . S
O303 Mn288 2.162 . S
O303 C291 1.281 . S
O304 Mn288 2.297 . S
O304 C291 1.236 . S
N305 Mn289 2.282 . S
N305 C306 1.328 . S
N305 C310 1.318 . S
C306 N305 1.328 . S
C306 C307 1.457 . S
C306 H311 0.929 . S
C307 C306 1.457 . S
C307 C308 1.291 . S
C307 H320 0.931 . S
C308 C307 1.291 . S
C308 C309 1.373 . S
C308 H321 0.929 . S
C309 C308 1.373 . S
C309 C310 1.396 . S
C309 C316 1.403 . S
C310 C300 1.476 . S
C310 N305 1.318 . S
C310 C309 1.396 . S
H311 C306 0.929 . S
O312 Mn288 2.385 . S
O312 C290 1.234 . S
O313 Mn288 2.209 . S
O313 Mn289 2.215 . S
O313 C290 1.283 . S
O314 Mn288 2.094 . S
O314 C292 1.240 . S
O315 Mn289 2.117 . S
O315 C292 1.264 . S
C316 C309 1.403 . S
C316 C317 1.399 . S
C316 H322 0.929 . S
C317 C297 1.449 . S
C317 C316 1.399 . S
C317 H323 0.930 . S
H318 C298 0.931 . S
H319 C299 0.930 . S
H320 C307 0.931 . S
H321 C308 0.929 . S
H322 C316 0.929 . S
H323 C317 0.930 . S
Mn324 O329 2.095 . S
Mn324 O339 2.162 . S
Mn324 O340 2.297 . S
Mn324 O348 2.385 . S
Mn324 O349 2.209 . S
Mn324 O350 2.094 . S
Mn325 O330 2.121 . S
Mn325 N332 2.257 . S
Mn325 N341 2.282 . S
Mn325 O349 2.215 . S
Mn325 O351 2.117 . S
C326 O348 1.234 . S
C326 O349 1.283 . S
C327 O339 1.281 . S
C327 O340 1.236 . S
C328 O350 1.240 . S
C328 O351 1.264 . S
O329 Mn324 2.095 . S
O329 C338 1.250 . S
O330 Mn325 2.121 . S
O330 C338 1.258 . S
C331 N332 1.326 . S
C331 C335 1.460 . S
C331 H337 0.929 . S
N332 Mn325 2.257 . S
N332 C331 1.326 . S
N332 C336 1.362 . S
C333 C334 1.258 . S
C333 C336 1.431 . S
C333 C353 1.449 . S
C334 C333 1.258 . S
C334 C335 1.477 . S
C334 H354 0.931 . S
C335 C331 1.460 . S
C335 C334 1.477 . S
C335 H355 0.930 . S
C336 N332 1.362 . S
C336 C333 1.431 . S
C336 C346 1.476 . S
H337 C331 0.929 . S
C338 O329 1.250 . S
C338 O330 1.258 . S
O339 Mn324 2.162 . S
O339 C327 1.281 . S
O340 Mn324 2.297 . S
O340 C327 1.236 . S
N341 Mn325 2.282 . S
N341 C342 1.328 . S
N341 C346 1.318 . S
C342 N341 1.328 . S
C342 C343 1.457 . S
C342 H347 0.929 . S
C343 C342 1.457 . S
C343 C344 1.291 . S
C343 H356 0.931 . S
C344 C343 1.291 . S
C344 C345 1.373 . S
C344 H357 0.929 . S
C345 C344 1.373 . S
C345 C346 1.396 . S
C345 C352 1.403 . S
C346 C336 1.476 . S
C346 N341 1.318 . S
C346 C345 1.396 . S
H347 C342 0.929 . S
O348 Mn324 2.385 . S
O348 C326 1.234 . S
O349 Mn324 2.209 . S
O349 Mn325 2.215 . S
O349 C326 1.283 . S
O350 Mn324 2.094 . S
O350 C328 1.240 . S
O351 Mn325 2.117 . S
O351 C328 1.264 . S
C352 C345 1.403 . S
C352 C353 1.399 . S
C352 H358 0.929 . S
C353 C333 1.449 . S
C353 C352 1.399 . S
C353 H359 0.930 . S
H354 C334 0.931 . S
H355 C335 0.930 . S
H356 C343 0.931 . S
H357 C344 0.929 . S
H358 C352 0.929 . S
H359 C353 0.930 . S
Mn360 O365 2.095 . S
Mn360 O375 2.162 1_455 S
Mn360 O376 2.297 1_455 S
Mn360 O384 2.385 . S
Mn360 O385 2.209 . S
Mn360 O386 2.094 . S
Mn361 O366 2.121 . S
Mn361 N368 2.257 . S
Mn361 N377 2.282 . S
Mn361 O385 2.215 . S
Mn361 O387 2.117 . S
C362 O384 1.234 . S
C362 O385 1.283 . S
C363 O375 1.281 . S
C363 O376 1.236 . S
C364 O386 1.240 . S
C364 O387 1.264 . S
O365 Mn360 2.095 . S
O365 C374 1.250 . S
O366 Mn361 2.121 . S
O366 C374 1.258 . S
C367 N368 1.326 . S
C367 C371 1.460 . S
C367 H373 0.929 . S
N368 Mn361 2.257 . S
N368 C367 1.326 . S
N368 C372 1.362 . S
C369 C370 1.258 . S
C369 C372 1.431 . S
C369 C389 1.449 . S
C370 C369 1.258 . S
C370 C371 1.477 . S
C370 H390 0.931 . S
C371 C367 1.460 . S
C371 C370 1.477 . S
C371 H391 0.930 . S
C372 N368 1.362 . S
C372 C369 1.431 . S
C372 C382 1.476 . S
H373 C367 0.929 . S
C374 O365 1.250 . S
C374 O366 1.258 . S
O375 Mn360 2.162 1_655 S
O375 C363 1.281 . S
O376 Mn360 2.297 1_655 S
O376 C363 1.236 . S
N377 Mn361 2.282 . S
N377 C378 1.328 . S
N377 C382 1.318 . S
C378 N377 1.328 . S
C378 C379 1.457 . S
C378 H383 0.929 . S
C379 C378 1.457 . S
C379 C380 1.291 . S
C379 H392 0.931 . S
C380 C379 1.291 . S
C380 C381 1.373 . S
C380 H393 0.929 . S
C381 C380 1.373 . S
C381 C382 1.396 . S
C381 C388 1.403 . S
C382 C372 1.476 . S
C382 N377 1.318 . S
C382 C381 1.396 . S
H383 C378 0.929 . S
O384 Mn360 2.385 . S
O384 C362 1.234 . S
O385 Mn360 2.209 . S
O385 Mn361 2.215 . S
O385 C362 1.283 . S
O386 Mn360 2.094 . S
O386 C364 1.240 . S
O387 Mn361 2.117 . S
O387 C364 1.264 . S
C388 C381 1.403 . S
C388 C389 1.399 . S
C388 H394 0.929 . S
C389 C369 1.449 . S
C389 C388 1.399 . S
C389 H395 0.930 . S
H390 C370 0.931 . S
H391 C371 0.930 . S
H392 C379 0.931 . S
H393 C380 0.929 . S
H394 C388 0.929 . S
H395 C389 0.930 . S
Mn396 O401 2.095 . S
Mn396 O411 2.162 1_545 S
Mn396 O412 2.297 1_545 S
Mn396 O420 2.385 . S
Mn396 O421 2.209 . S
Mn396 O422 2.094 . S
Mn397 O402 2.121 . S
Mn397 N404 2.257 . S
Mn397 N413 2.282 . S
Mn397 O421 2.215 . S
Mn397 O423 2.117 . S
C398 O420 1.234 . S
C398 O421 1.283 . S
C399 O411 1.281 . S
C399 O412 1.236 . S
C400 O422 1.240 . S
C400 O423 1.264 . S
O401 Mn396 2.095 . S
O401 C410 1.250 . S
O402 Mn397 2.121 . S
O402 C410 1.258 . S
C403 N404 1.326 . S
C403 C407 1.460 . S
C403 H409 0.929 . S
N404 Mn397 2.257 . S
N404 C403 1.326 . S
N404 C408 1.362 . S
C405 C406 1.258 . S
C405 C408 1.431 . S
C405 C425 1.449 . S
C406 C405 1.258 . S
C406 C407 1.477 . S
C406 H426 0.931 . S
C407 C403 1.460 . S
C407 C406 1.477 . S
C407 H427 0.930 . S
C408 N404 1.362 . S
C408 C405 1.431 . S
C408 C418 1.476 . S
H409 C403 0.929 . S
C410 O401 1.250 . S
C410 O402 1.258 . S
O411 Mn396 2.162 1_565 S
O411 C399 1.281 . S
O412 Mn396 2.297 1_565 S
O412 C399 1.236 . S
N413 Mn397 2.282 . S
N413 C414 1.328 . S
N413 C418 1.318 . S
C414 N413 1.328 . S
C414 C415 1.457 . S
C414 H419 0.929 . S
C415 C414 1.457 . S
C415 C416 1.291 . S
C415 H428 0.931 . S
C416 C415 1.291 . S
C416 C417 1.373 . S
C416 H429 0.929 . S
C417 C416 1.373 . S
C417 C418 1.396 . S
C417 C424 1.403 . S
C418 C408 1.476 . S
C418 N413 1.318 . S
C418 C417 1.396 . S
H419 C414 0.929 . S
O420 Mn396 2.385 . S
O420 C398 1.234 . S
O421 Mn396 2.209 . S
O421 Mn397 2.215 . S
O421 C398 1.283 . S
O422 Mn396 2.094 . S
O422 C400 1.240 . S
O423 Mn397 2.117 . S
O423 C400 1.264 . S
C424 C417 1.403 . S
C424 C425 1.399 . S
C424 H430 0.929 . S
C425 C405 1.449 . S
C425 C424 1.399 . S
C425 H431 0.930 . S
H426 C406 0.931 . S
H427 C407 0.930 . S
H428 C415 0.931 . S
H429 C416 0.929 . S
H430 C424 0.929 . S
H431 C425 0.930 . S
Mn432 O437 2.095 . S
Mn432 O447 2.162 . S
Mn432 O448 2.297 . S
Mn432 O456 2.385 . S
Mn432 O457 2.209 . S
Mn432 O458 2.094 . S
Mn433 O438 2.121 . S
Mn433 N440 2.257 . S
Mn433 N449 2.282 . S
Mn433 O457 2.215 . S
Mn433 O459 2.117 . S
C434 O456 1.234 . S
C434 O457 1.283 . S
C435 O447 1.281 . S
C435 O448 1.236 . S
C436 O458 1.240 . S
C436 O459 1.264 . S
O437 Mn432 2.095 . S
O437 C446 1.250 . S
O438 Mn433 2.121 . S
O438 C446 1.258 . S
C439 N440 1.326 . S
C439 C443 1.460 . S
C439 H445 0.929 . S
N440 Mn433 2.257 . S
N440 C439 1.326 . S
N440 C444 1.362 . S
C441 C442 1.258 . S
C441 C444 1.431 . S
C441 C461 1.449 . S
C442 C441 1.258 . S
C442 C443 1.477 . S
C442 H462 0.931 . S
C443 C439 1.460 . S
C443 C442 1.477 . S
C443 H463 0.930 . S
C444 N440 1.362 . S
C444 C441 1.431 . S
C444 C454 1.476 . S
H445 C439 0.929 . S
C446 O437 1.250 . S
C446 O438 1.258 . S
O447 Mn432 2.162 . S
O447 C435 1.281 . S
O448 Mn432 2.297 . S
O448 C435 1.236 . S
N449 Mn433 2.282 . S
N449 C450 1.328 . S
N449 C454 1.318 . S
C450 N449 1.328 . S
C450 C451 1.457 . S
C450 H455 0.929 . S
C451 C450 1.457 . S
C451 C452 1.291 . S
C451 H464 0.931 . S
C452 C451 1.291 . S
C452 C453 1.373 . S
C452 H465 0.929 . S
C453 C452 1.373 . S
C453 C454 1.396 . S
C453 C460 1.403 . S
C454 C444 1.476 . S
C454 N449 1.318 . S
C454 C453 1.396 . S
H455 C450 0.929 . S
O456 Mn432 2.385 . S
O456 C434 1.234 . S
O457 Mn432 2.209 . S
O457 Mn433 2.215 . S
O457 C434 1.283 . S
O458 Mn432 2.094 . S
O458 C436 1.240 . S
O459 Mn433 2.117 . S
O459 C436 1.264 . S
C460 C453 1.403 . S
C460 C461 1.399 . S
C460 H466 0.929 . S
C461 C441 1.449 . S
C461 C460 1.399 . S
C461 H467 0.930 . S
H462 C442 0.931 . S
H463 C443 0.930 . S
H464 C451 0.931 . S
H465 C452 0.929 . S
H466 C460 0.929 . S
H467 C461 0.930 . S
Mn468 O473 2.095 . S
Mn468 O483 2.162 . S
Mn468 O484 2.297 . S
Mn468 O492 2.385 . S
Mn468 O493 2.209 . S
Mn468 O494 2.094 . S
Mn469 O474 2.121 . S
Mn469 N476 2.257 . S
Mn469 N485 2.282 . S
Mn469 O493 2.215 . S
Mn469 O495 2.117 . S
C470 O492 1.234 . S
C470 O493 1.283 . S
C471 O483 1.281 . S
C471 O484 1.236 . S
C472 O494 1.240 . S
C472 O495 1.264 . S
O473 Mn468 2.095 . S
O473 C482 1.250 . S
O474 Mn469 2.121 . S
O474 C482 1.258 . S
C475 N476 1.326 . S
C475 C479 1.460 . S
C475 H481 0.929 . S
N476 Mn469 2.257 . S
N476 C475 1.326 . S
N476 C480 1.362 . S
C477 C478 1.258 . S
C477 C480 1.431 . S
C477 C497 1.449 . S
C478 C477 1.258 . S
C478 C479 1.477 . S
C478 H498 0.931 . S
C479 C475 1.460 . S
C479 C478 1.477 . S
C479 H499 0.930 . S
C480 N476 1.362 . S
C480 C477 1.431 . S
C480 C490 1.476 . S
H481 C475 0.929 . S
C482 O473 1.250 . S
C482 O474 1.258 . S
O483 Mn468 2.162 . S
O483 C471 1.281 . S
O484 Mn468 2.297 . S
O484 C471 1.236 . S
N485 Mn469 2.282 . S
N485 C486 1.328 . S
N485 C490 1.318 . S
C486 N485 1.328 . S
C486 C487 1.457 . S
C486 H491 0.929 . S
C487 C486 1.457 . S
C487 C488 1.291 . S
C487 H500 0.931 . S
C488 C487 1.291 . S
C488 C489 1.373 . S
C488 H501 0.929 . S
C489 C488 1.373 . S
C489 C490 1.396 . S
C489 C496 1.403 . S
C490 C480 1.476 . S
C490 N485 1.318 . S
C490 C489 1.396 . S
H491 C486 0.929 . S
O492 Mn468 2.385 . S
O492 C470 1.234 . S
O493 Mn468 2.209 . S
O493 Mn469 2.215 . S
O493 C470 1.283 . S
O494 Mn468 2.094 . S
O494 C472 1.240 . S
O495 Mn469 2.117 . S
O495 C472 1.264 . S
C496 C489 1.403 . S
C496 C497 1.399 . S
C496 H502 0.929 . S
C497 C477 1.449 . S
C497 C496 1.399 . S
C497 H503 0.930 . S
H498 C478 0.931 . S
H499 C479 0.930 . S
H500 C487 0.931 . S
H501 C488 0.929 . S
H502 C496 0.929 . S
H503 C497 0.930 . S
Mn504 O509 2.095 . S
Mn504 O519 2.162 1_455 S
Mn504 O520 2.297 1_455 S
Mn504 O528 2.385 . S
Mn504 O529 2.209 . S
Mn504 O530 2.094 . S
Mn505 O510 2.121 . S
Mn505 N512 2.257 . S
Mn505 N521 2.282 . S
Mn505 O529 2.215 . S
Mn505 O531 2.117 . S
C506 O528 1.234 . S
C506 O529 1.283 . S
C507 O519 1.281 . S
C507 O520 1.236 . S
C508 O530 1.240 . S
C508 O531 1.264 . S
O509 Mn504 2.095 . S
O509 C518 1.250 . S
O510 Mn505 2.121 . S
O510 C518 1.258 . S
C511 N512 1.326 . S
C511 C515 1.460 . S
C511 H517 0.929 . S
N512 Mn505 2.257 . S
N512 C511 1.326 . S
N512 C516 1.362 . S
C513 C514 1.258 . S
C513 C516 1.431 . S
C513 C533 1.449 . S
C514 C513 1.258 . S
C514 C515 1.477 . S
C514 H534 0.931 . S
C515 C511 1.460 . S
C515 C514 1.477 . S
C515 H535 0.930 . S
C516 N512 1.362 . S
C516 C513 1.431 . S
C516 C526 1.476 . S
H517 C511 0.929 . S
C518 O509 1.250 . S
C518 O510 1.258 . S
O519 Mn504 2.162 1_655 S
O519 C507 1.281 . S
O520 Mn504 2.297 1_655 S
O520 C507 1.236 . S
N521 Mn505 2.282 . S
N521 C522 1.328 . S
N521 C526 1.318 . S
C522 N521 1.328 . S
C522 C523 1.457 . S
C522 H527 0.929 . S
C523 C522 1.457 . S
C523 C524 1.291 . S
C523 H536 0.931 . S
C524 C523 1.291 . S
C524 C525 1.373 . S
C524 H537 0.929 . S
C525 C524 1.373 . S
C525 C526 1.396 . S
C525 C532 1.403 . S
C526 C516 1.476 . S
C526 N521 1.318 . S
C526 C525 1.396 . S
H527 C522 0.929 . S
O528 Mn504 2.385 . S
O528 C506 1.234 . S
O529 Mn504 2.209 . S
O529 Mn505 2.215 . S
O529 C506 1.283 . S
O530 Mn504 2.094 . S
O530 C508 1.240 . S
O531 Mn505 2.117 . S
O531 C508 1.264 . S
C532 C525 1.403 . S
C532 C533 1.399 . S
C532 H538 0.929 . S
C533 C513 1.449 . S
C533 C532 1.399 . S
C533 H539 0.930 . S
H534 C514 0.931 . S
H535 C515 0.930 . S
H536 C523 0.931 . S
H537 C524 0.929 . S
H538 C532 0.929 . S
H539 C533 0.930 . S
Mn540 O545 2.095 . S
Mn540 O555 2.162 1_545 S
Mn540 O556 2.297 1_545 S
Mn540 O564 2.385 . S
Mn540 O565 2.209 . S
Mn540 O566 2.094 . S
Mn541 O546 2.121 . S
Mn541 N548 2.257 . S
Mn541 N557 2.282 . S
Mn541 O565 2.215 . S
Mn541 O567 2.117 . S
C542 O564 1.234 . S
C542 O565 1.283 . S
C543 O555 1.281 . S
C543 O556 1.236 . S
C544 O566 1.240 . S
C544 O567 1.264 . S
O545 Mn540 2.095 . S
O545 C554 1.250 . S
O546 Mn541 2.121 . S
O546 C554 1.258 . S
C547 N548 1.326 . S
C547 C551 1.460 . S
C547 H553 0.929 . S
N548 Mn541 2.257 . S
N548 C547 1.326 . S
N548 C552 1.362 . S
C549 C550 1.258 . S
C549 C552 1.431 . S
C549 C569 1.449 . S
C550 C549 1.258 . S
C550 C551 1.477 . S
C550 H570 0.931 . S
C551 C547 1.460 . S
C551 C550 1.477 . S
C551 H571 0.930 . S
C552 N548 1.362 . S
C552 C549 1.431 . S
C552 C562 1.476 . S
H553 C547 0.929 . S
C554 O545 1.250 . S
C554 O546 1.258 . S
O555 Mn540 2.162 1_565 S
O555 C543 1.281 . S
O556 Mn540 2.297 1_565 S
O556 C543 1.236 . S
N557 Mn541 2.282 . S
N557 C558 1.328 . S
N557 C562 1.318 . S
C558 N557 1.328 . S
C558 C559 1.457 . S
C558 H563 0.929 . S
C559 C558 1.457 . S
C559 C560 1.291 . S
C559 H572 0.931 . S
C560 C559 1.291 . S
C560 C561 1.373 . S
C560 H573 0.929 . S
C561 C560 1.373 . S
C561 C562 1.396 . S
C561 C568 1.403 . S
C562 C552 1.476 . S
C562 N557 1.318 . S
C562 C561 1.396 . S
H563 C558 0.929 . S
O564 Mn540 2.385 . S
O564 C542 1.234 . S
O565 Mn540 2.209 . S
O565 Mn541 2.215 . S
O565 C542 1.283 . S
O566 Mn540 2.094 . S
O566 C544 1.240 . S
O567 Mn541 2.117 . S
O567 C544 1.264 . S
C568 C561 1.403 . S
C568 C569 1.399 . S
C568 H574 0.929 . S
C569 C549 1.449 . S
C569 C568 1.399 . S
C569 H575 0.930 . S
H570 C550 0.931 . S
H571 C551 0.930 . S
H572 C559 0.931 . S
H573 C560 0.929 . S
H574 C568 0.929 . S
H575 C569 0.930 . S
H576 C584 0.929 . S
H577 C586 0.930 . S
H578 C588 0.930 . S
H579 C591 0.929 . S
H580 C594 0.930 . S
H581 C596 0.960 . S
H582 C596 0.960 . S
H583 C596 0.960 . S
C584 H576 0.929 . S
C584 C585 1.377 . S
C584 C586 1.384 . S
C585 C584 1.377 . S
C585 C591 1.390 . S
C586 H577 0.930 . S
C586 C584 1.384 . S
C586 C587 1.372 . S
C587 C586 1.372 . S
C587 C588 1.400 . S
C587 C592 1.490 . S
C588 H578 0.930 . S
C588 C587 1.400 . S
C588 C591 1.386 . S
H589 C605 0.930 . S
H590 C606 0.931 . S
C591 H579 0.929 . S
C591 C585 1.390 . S
C591 C588 1.386 . S
C592 C587 1.490 . S
C592 C594 1.395 . S
C592 C595 1.403 . S
H593 C599 0.930 . S
C594 H580 0.930 . S
C594 C592 1.395 . S
C594 C597 1.403 . S
C595 C592 1.403 . S
C595 C596 1.524 . S
C595 C599 1.400 . S
C596 H581 0.960 . S
C596 H582 0.960 . S
C596 H583 0.960 . S
C596 C595 1.524 . S
C597 C594 1.403 . S
C597 C598 1.392 . S
C597 C601 1.495 . S
C598 C597 1.392 . S
C598 C599 1.385 . S
C598 C600 1.478 . S
C599 H593 0.930 . S
C599 C595 1.400 . S
C599 C598 1.385 . S
C600 C598 1.478 . S
C600 C602 1.381 . S
C600 C606 1.383 . S
C601 C597 1.495 . S
C601 H607 0.959 . S
C601 H608 0.961 . S
C601 H609 0.960 . S
C602 C600 1.381 . S
C602 C603 1.394 . S
C602 H610 0.930 . S
C603 C602 1.394 . S
C603 C604 1.383 . S
C603 H611 0.929 . S
C604 C603 1.383 . S
C604 C605 1.377 . S
C605 H589 0.930 . S
C605 C604 1.377 . S
C605 C606 1.379 . S
C606 H590 0.931 . S
C606 C600 1.383 . S
C606 C605 1.379 . S
H607 C601 0.959 . S
H608 C601 0.961 . S
H609 C601 0.960 . S
H610 C602 0.930 . S
H611 C603 0.929 . S
H612 C620 0.929 . S
H613 C622 0.930 . S
H614 C624 0.930 . S
H615 C627 0.929 . S
H616 C630 0.930 . S
H617 C632 0.960 . S
H618 C632 0.960 . S
H619 C632 0.960 . S
C620 H612 0.929 . S
C620 C621 1.377 . S
C620 C622 1.384 . S
C621 C620 1.377 . S
C621 C627 1.390 . S
C622 H613 0.930 . S
C622 C620 1.384 . S
C622 C623 1.372 . S
C623 C622 1.372 . S
C623 C624 1.400 . S
C623 C628 1.490 . S
C624 H614 0.930 . S
C624 C623 1.400 . S
C624 C627 1.386 . S
H625 C641 0.930 . S
H626 C642 0.931 . S
C627 H615 0.929 . S
C627 C621 1.390 . S
C627 C624 1.386 . S
C628 C623 1.490 . S
C628 C630 1.395 . S
C628 C631 1.403 . S
H629 C635 0.930 . S
C630 H616 0.930 . S
C630 C628 1.395 . S
C630 C633 1.403 . S
C631 C628 1.403 . S
C631 C632 1.524 . S
C631 C635 1.400 . S
C632 H617 0.960 . S
C632 H618 0.960 . S
C632 H619 0.960 . S
C632 C631 1.524 . S
C633 C630 1.403 . S
C633 C634 1.392 . S
C633 C637 1.495 . S
C634 C633 1.392 . S
C634 C635 1.385 . S
C634 C636 1.478 . S
C635 H629 0.930 . S
C635 C631 1.400 . S
C635 C634 1.385 . S
C636 C634 1.478 . S
C636 C638 1.381 . S
C636 C642 1.383 . S
C637 C633 1.495 . S
C637 H643 0.959 . S
C637 H644 0.961 . S
C637 H645 0.960 . S
C638 C636 1.381 . S
C638 C639 1.394 . S
C638 H646 0.930 . S
C639 C638 1.394 . S
C639 C640 1.383 . S
C639 H647 0.929 . S
C640 C639 1.383 . S
C640 C641 1.377 . S
C641 H625 0.930 . S
C641 C640 1.377 . S
C641 C642 1.379 . S
C642 H626 0.931 . S
C642 C636 1.383 . S
C642 C641 1.379 . S
H643 C637 0.959 . S
H644 C637 0.961 . S
H645 C637 0.960 . S
H646 C638 0.930 . S
H647 C639 0.929 . S
H648 C656 0.929 . S
H649 C658 0.930 . S
H650 C660 0.930 . S
H651 C663 0.929 . S
H652 C666 0.930 . S
H653 C668 0.960 . S
H654 C668 0.960 . S
H655 C668 0.960 . S
C656 H648 0.929 . S
C656 C657 1.377 . S
C656 C658 1.384 . S
C657 C656 1.377 . S
C657 C663 1.390 . S
C658 H649 0.930 . S
C658 C656 1.384 . S
C658 C659 1.372 . S
C659 C658 1.372 . S
C659 C660 1.400 . S
C659 C664 1.490 . S
C660 H650 0.930 . S
C660 C659 1.400 . S
C660 C663 1.386 . S
H661 C677 0.930 . S
H662 C678 0.931 . S
C663 H651 0.929 . S
C663 C657 1.390 . S
C663 C660 1.386 . S
C664 C659 1.490 . S
C664 C666 1.395 . S
C664 C667 1.403 . S
H665 C671 0.930 . S
C666 H652 0.930 . S
C666 C664 1.395 . S
C666 C669 1.403 . S
C667 C664 1.403 . S
C667 C668 1.524 . S
C667 C671 1.400 . S
C668 H653 0.960 . S
C668 H654 0.960 . S
C668 H655 0.960 . S
C668 C667 1.524 . S
C669 C666 1.403 . S
C669 C670 1.392 . S
C669 C673 1.495 . S
C670 C669 1.392 . S
C670 C671 1.385 . S
C670 C672 1.478 . S
C671 H665 0.930 . S
C671 C667 1.400 . S
C671 C670 1.385 . S
C672 C670 1.478 . S
C672 C674 1.381 . S
C672 C678 1.383 . S
C673 C669 1.495 . S
C673 H679 0.959 . S
C673 H680 0.961 . S
C673 H681 0.960 . S
C674 C672 1.381 . S
C674 C675 1.394 . S
C674 H682 0.930 . S
C675 C674 1.394 . S
C675 C676 1.383 . S
C675 H683 0.929 . S
C676 C675 1.383 . S
C676 C677 1.377 . S
C677 H661 0.930 . S
C677 C676 1.377 . S
C677 C678 1.379 . S
C678 H662 0.931 . S
C678 C672 1.383 . S
C678 C677 1.379 . S
H679 C673 0.959 . S
H680 C673 0.961 . S
H681 C673 0.960 . S
H682 C674 0.930 . S
H683 C675 0.929 . S
H684 C692 0.929 . S
H685 C694 0.930 . S
H686 C696 0.930 . S
H687 C699 0.929 . S
H688 C702 0.930 . S
H689 C704 0.960 . S
H690 C704 0.960 . S
H691 C704 0.960 . S
C692 H684 0.929 . S
C692 C693 1.377 . S
C692 C694 1.384 . S
C693 C692 1.377 . S
C693 C699 1.390 . S
C694 H685 0.930 . S
C694 C692 1.384 . S
C694 C695 1.372 . S
C695 C694 1.372 . S
C695 C696 1.400 . S
C695 C700 1.490 . S
C696 H686 0.930 . S
C696 C695 1.400 . S
C696 C699 1.386 . S
H697 C713 0.930 . S
H698 C714 0.931 . S
C699 H687 0.929 . S
C699 C693 1.390 . S
C699 C696 1.386 . S
C700 C695 1.490 . S
C700 C702 1.395 . S
C700 C703 1.403 . S
H701 C707 0.930 . S
C702 H688 0.930 . S
C702 C700 1.395 . S
C702 C705 1.403 . S
C703 C700 1.403 . S
C703 C704 1.524 . S
C703 C707 1.400 . S
C704 H689 0.960 . S
C704 H690 0.960 . S
C704 H691 0.960 . S
C704 C703 1.524 . S
C705 C702 1.403 . S
C705 C706 1.392 . S
C705 C709 1.495 . S
C706 C705 1.392 . S
C706 C707 1.385 . S
C706 C708 1.478 . S
C707 H701 0.930 . S
C707 C703 1.400 . S
C707 C706 1.385 . S
C708 C706 1.478 . S
C708 C710 1.381 . S
C708 C714 1.383 . S
C709 C705 1.495 . S
C709 H715 0.959 . S
C709 H716 0.961 . S
C709 H717 0.960 . S
C710 C708 1.381 . S
C710 C711 1.394 . S
C710 H718 0.930 . S
C711 C710 1.394 . S
C711 C712 1.383 . S
C711 H719 0.929 . S
C712 C711 1.383 . S
C712 C713 1.377 . S
C713 H697 0.930 . S
C713 C712 1.377 . S
C713 C714 1.379 . S
C714 H698 0.931 . S
C714 C708 1.383 . S
C714 C713 1.379 . S
H715 C709 0.959 . S
H716 C709 0.961 . S
H717 C709 0.960 . S
H718 C710 0.930 . S
H719 C711 0.929 . S
H720 C728 0.929 . S
H721 C730 0.930 . S
H722 C732 0.930 . S
H723 C735 0.929 . S
H724 C738 0.930 . S
H725 C740 0.960 . S
H726 C740 0.960 . S
H727 C740 0.960 . S
C728 H720 0.929 . S
C728 C729 1.377 . S
C728 C730 1.384 . S
C729 C728 1.377 . S
C729 C735 1.390 . S
C730 H721 0.930 . S
C730 C728 1.384 . S
C730 C731 1.372 . S
C731 C730 1.372 . S
C731 C732 1.400 . S
C731 C736 1.490 . S
C732 H722 0.930 . S
C732 C731 1.400 . S
C732 C735 1.386 . S
H733 C749 0.930 . S
H734 C750 0.931 . S
C735 H723 0.929 . S
C735 C729 1.390 . S
C735 C732 1.386 . S
C736 C731 1.490 . S
C736 C738 1.395 . S
C736 C739 1.403 . S
H737 C743 0.930 . S
C738 H724 0.930 . S
C738 C736 1.395 . S
C738 C741 1.403 . S
C739 C736 1.403 . S
C739 C740 1.524 . S
C739 C743 1.400 . S
C740 H725 0.960 . S
C740 H726 0.960 . S
C740 H727 0.960 . S
C740 C739 1.524 . S
C741 C738 1.403 . S
C741 C742 1.392 . S
C741 C745 1.495 . S
C742 C741 1.392 . S
C742 C743 1.385 . S
C742 C744 1.478 . S
C743 H737 0.930 . S
C743 C739 1.400 . S
C743 C742 1.385 . S
C744 C742 1.478 . S
C744 C746 1.381 . S
C744 C750 1.383 . S
C745 C741 1.495 . S
C745 H751 0.959 . S
C745 H752 0.961 . S
C745 H753 0.960 . S
C746 C744 1.381 . S
C746 C747 1.394 . S
C746 H754 0.930 . S
C747 C746 1.394 . S
C747 C748 1.383 . S
C747 H755 0.929 . S
C748 C747 1.383 . S
C748 C749 1.377 . S
C749 H733 0.930 . S
C749 C748 1.377 . S
C749 C750 1.379 . S
C750 H734 0.931 . S
C750 C744 1.383 . S
C750 C749 1.379 . S
H751 C745 0.959 . S
H752 C745 0.961 . S
H753 C745 0.960 . S
H754 C746 0.930 . S
H755 C747 0.929 . S
H756 C764 0.929 . S
H757 C766 0.930 . S
H758 C768 0.930 . S
H759 C771 0.929 . S
H760 C774 0.930 . S
H761 C776 0.960 . S
H762 C776 0.960 . S
H763 C776 0.960 . S
C764 H756 0.929 . S
C764 C765 1.377 . S
C764 C766 1.384 . S
C765 C764 1.377 . S
C765 C771 1.390 . S
C766 H757 0.930 . S
C766 C764 1.384 . S
C766 C767 1.372 . S
C767 C766 1.372 . S
C767 C768 1.400 . S
C767 C772 1.490 . S
C768 H758 0.930 . S
C768 C767 1.400 . S
C768 C771 1.386 . S
H769 C785 0.930 . S
H770 C786 0.931 . S
C771 H759 0.929 . S
C771 C765 1.390 . S
C771 C768 1.386 . S
C772 C767 1.490 . S
C772 C774 1.395 . S
C772 C775 1.403 . S
H773 C779 0.930 . S
C774 H760 0.930 . S
C774 C772 1.395 . S
C774 C777 1.403 . S
C775 C772 1.403 . S
C775 C776 1.524 . S
C775 C779 1.400 . S
C776 H761 0.960 . S
C776 H762 0.960 . S
C776 H763 0.960 . S
C776 C775 1.524 . S
C777 C774 1.403 . S
C777 C778 1.392 . S
C777 C781 1.495 . S
C778 C777 1.392 . S
C778 C779 1.385 . S
C778 C780 1.478 . S
C779 H773 0.930 . S
C779 C775 1.400 . S
C779 C778 1.385 . S
C780 C778 1.478 . S
C780 C782 1.381 . S
C780 C786 1.383 . S
C781 C777 1.495 . S
C781 H787 0.959 . S
C781 H788 0.961 . S
C781 H789 0.960 . S
C782 C780 1.381 . S
C782 C783 1.394 . S
C782 H790 0.930 . S
C783 C782 1.394 . S
C783 C784 1.383 . S
C783 H791 0.929 . S
C784 C783 1.383 . S
C784 C785 1.377 . S
C785 H769 0.930 . S
C785 C784 1.377 . S
C785 C786 1.379 . S
C786 H770 0.931 . S
C786 C780 1.383 . S
C786 C785 1.379 . S
H787 C781 0.959 . S
H788 C781 0.961 . S
H789 C781 0.960 . S
H790 C782 0.930 . S
H791 C783 0.929 . S
H792 C800 0.929 . S
H793 C802 0.930 . S
H794 C804 0.930 . S
H795 C807 0.929 . S
H796 C810 0.930 . S
H797 C812 0.960 . S
H798 C812 0.960 . S
H799 C812 0.960 . S
C800 H792 0.929 . S
C800 C801 1.377 . S
C800 C802 1.384 . S
C801 C800 1.377 . S
C801 C807 1.390 . S
C802 H793 0.930 . S
C802 C800 1.384 . S
C802 C803 1.372 . S
C803 C802 1.372 . S
C803 C804 1.400 . S
C803 C808 1.490 . S
C804 H794 0.930 . S
C804 C803 1.400 . S
C804 C807 1.386 . S
H805 C821 0.930 . S
H806 C822 0.931 . S
C807 H795 0.929 . S
C807 C801 1.390 . S
C807 C804 1.386 . S
C808 C803 1.490 . S
C808 C810 1.395 . S
C808 C811 1.403 . S
H809 C815 0.930 . S
C810 H796 0.930 . S
C810 C808 1.395 . S
C810 C813 1.403 . S
C811 C808 1.403 . S
C811 C812 1.524 . S
C811 C815 1.400 . S
C812 H797 0.960 . S
C812 H798 0.960 . S
C812 H799 0.960 . S
C812 C811 1.524 . S
C813 C810 1.403 . S
C813 C814 1.392 . S
C813 C817 1.495 . S
C814 C813 1.392 . S
C814 C815 1.385 . S
C814 C816 1.478 . S
C815 H809 0.930 . S
C815 C811 1.400 . S
C815 C814 1.385 . S
C816 C814 1.478 . S
C816 C818 1.381 . S
C816 C822 1.383 . S
C817 C813 1.495 . S
C817 H823 0.959 . S
C817 H824 0.961 . S
C817 H825 0.960 . S
C818 C816 1.381 . S
C818 C819 1.394 . S
C818 H826 0.930 . S
C819 C818 1.394 . S
C819 C820 1.383 . S
C819 H827 0.929 . S
C820 C819 1.383 . S
C820 C821 1.377 . S
C821 H805 0.930 . S
C821 C820 1.377 . S
C821 C822 1.379 . S
C822 H806 0.931 . S
C822 C816 1.383 . S
C822 C821 1.379 . S
H823 C817 0.959 . S
H824 C817 0.961 . S
H825 C817 0.960 . S
H826 C818 0.930 . S
H827 C819 0.929 . S
H828 C836 0.929 . S
H829 C838 0.930 . S
H830 C840 0.930 . S
H831 C843 0.929 . S
H832 C846 0.930 . S
H833 C848 0.960 . S
H834 C848 0.960 . S
H835 C848 0.960 . S
C836 H828 0.929 . S
C836 C837 1.377 . S
C836 C838 1.384 . S
C837 C836 1.377 . S
C837 C843 1.390 . S
C838 H829 0.930 . S
C838 C836 1.384 . S
C838 C839 1.372 . S
C839 C838 1.372 . S
C839 C840 1.400 . S
C839 C844 1.490 . S
C840 H830 0.930 . S
C840 C839 1.400 . S
C840 C843 1.386 . S
H841 C857 0.930 . S
H842 C858 0.931 . S
C843 H831 0.929 . S
C843 C837 1.390 . S
C843 C840 1.386 . S
C844 C839 1.490 . S
C844 C846 1.395 . S
C844 C847 1.403 . S
H845 C851 0.930 . S
C846 H832 0.930 . S
C846 C844 1.395 . S
C846 C849 1.403 . S
C847 C844 1.403 . S
C847 C848 1.524 . S
C847 C851 1.400 . S
C848 H833 0.960 . S
C848 H834 0.960 . S
C848 H835 0.960 . S
C848 C847 1.524 . S
C849 C846 1.403 . S
C849 C850 1.392 . S
C849 C853 1.495 . S
C850 C849 1.392 . S
C850 C851 1.385 . S
C850 C852 1.478 . S
C851 H845 0.930 . S
C851 C847 1.400 . S
C851 C850 1.385 . S
C852 C850 1.478 . S
C852 C854 1.381 . S
C852 C858 1.383 . S
C853 C849 1.495 . S
C853 H859 0.959 . S
C853 H860 0.961 . S
C853 H861 0.960 . S
C854 C852 1.381 . S
C854 C855 1.394 . S
C854 H862 0.930 . S
C855 C854 1.394 . S
C855 C856 1.383 . S
C855 H863 0.929 . S
C856 C855 1.383 . S
C856 C857 1.377 . S
C857 H841 0.930 . S
C857 C856 1.377 . S
C857 C858 1.379 . S
C858 H842 0.931 . S
C858 C852 1.383 . S
C858 C857 1.379 . S
H859 C853 0.959 . S
H860 C853 0.961 . S
H861 C853 0.960 . S
H862 C854 0.930 . S
H863 C855 0.929 . S
H864 C872 0.929 . S
H865 C874 0.930 . S
H866 C876 0.930 . S
H867 C879 0.929 . S
H868 C882 0.930 . S
H869 C884 0.960 . S
H870 C884 0.960 . S
H871 C884 0.960 . S
C872 H864 0.929 . S
C872 C873 1.377 . S
C872 C874 1.384 . S
C873 C872 1.377 . S
C873 C879 1.390 . S
C874 H865 0.930 . S
C874 C872 1.384 . S
C874 C875 1.372 . S
C875 C874 1.372 . S
C875 C876 1.400 . S
C875 C880 1.490 . S
C876 H866 0.930 . S
C876 C875 1.400 . S
C876 C879 1.386 . S
H877 C893 0.930 . S
H878 C894 0.931 . S
C879 H867 0.929 . S
C879 C873 1.390 . S
C879 C876 1.386 . S
C880 C875 1.490 . S
C880 C882 1.395 . S
C880 C883 1.403 . S
H881 C887 0.930 . S
C882 H868 0.930 . S
C882 C880 1.395 . S
C882 C885 1.403 . S
C883 C880 1.403 . S
C883 C884 1.524 . S
C883 C887 1.400 . S
C884 H869 0.960 . S
C884 H870 0.960 . S
C884 H871 0.960 . S
C884 C883 1.524 . S
C885 C882 1.403 . S
C885 C886 1.392 . S
C885 C889 1.495 . S
C886 C885 1.392 . S
C886 C887 1.385 . S
C886 C888 1.478 . S
C887 H881 0.930 . S
C887 C883 1.400 . S
C887 C886 1.385 . S
C888 C886 1.478 . S
C888 C890 1.381 . S
C888 C894 1.383 . S
C889 C885 1.495 . S
C889 H895 0.959 . S
C889 H896 0.961 . S
C889 H897 0.960 . S
C890 C888 1.381 . S
C890 C891 1.394 . S
C890 H898 0.930 . S
C891 C890 1.394 . S
C891 C892 1.383 . S
C891 H899 0.929 . S
C892 C891 1.383 . S
C892 C893 1.377 . S
C893 H877 0.930 . S
C893 C892 1.377 . S
C893 C894 1.379 . S
C894 H878 0.931 . S
C894 C888 1.383 . S
C894 C893 1.379 . S
H895 C889 0.959 . S
H896 C889 0.961 . S
H897 C889 0.960 . S
H898 C890 0.930 . S
H899 C891 0.929 . S
H900 C908 0.929 . S
H901 C910 0.930 . S
H902 C912 0.930 . S
H903 C915 0.929 . S
H904 C918 0.930 . S
H905 C920 0.960 . S
H906 C920 0.960 . S
H907 C920 0.960 . S
C908 H900 0.929 . S
C908 C909 1.377 . S
C908 C910 1.384 . S
C909 C908 1.377 . S
C909 C915 1.390 . S
C910 H901 0.930 . S
C910 C908 1.384 . S
C910 C911 1.372 . S
C911 C910 1.372 . S
C911 C912 1.400 . S
C911 C916 1.490 . S
C912 H902 0.930 . S
C912 C911 1.400 . S
C912 C915 1.386 . S
H913 C929 0.930 . S
H914 C930 0.931 . S
C915 H903 0.929 . S
C915 C909 1.390 . S
C915 C912 1.386 . S
C916 C911 1.490 . S
C916 C918 1.395 . S
C916 C919 1.403 . S
H917 C923 0.930 . S
C918 H904 0.930 . S
C918 C916 1.395 . S
C918 C921 1.403 . S
C919 C916 1.403 . S
C919 C920 1.524 . S
C919 C923 1.400 . S
C920 H905 0.960 . S
C920 H906 0.960 . S
C920 H907 0.960 . S
C920 C919 1.524 . S
C921 C918 1.403 . S
C921 C922 1.392 . S
C921 C925 1.495 . S
C922 C921 1.392 . S
C922 C923 1.385 . S
C922 C924 1.478 . S
C923 H917 0.930 . S
C923 C919 1.400 . S
C923 C922 1.385 . S
C924 C922 1.478 . S
C924 C926 1.381 . S
C924 C930 1.383 . S
C925 C921 1.495 . S
C925 H931 0.959 . S
C925 H932 0.961 . S
C925 H933 0.960 . S
C926 C924 1.381 . S
C926 C927 1.394 . S
C926 H934 0.930 . S
C927 C926 1.394 . S
C927 C928 1.383 . S
C927 H935 0.929 . S
C928 C927 1.383 . S
C928 C929 1.377 . S
C929 H913 0.930 . S
C929 C928 1.377 . S
C929 C930 1.379 . S
C930 H914 0.931 . S
C930 C924 1.383 . S
C930 C929 1.379 . S
H931 C925 0.959 . S
H932 C925 0.961 . S
H933 C925 0.960 . S
H934 C926 0.930 . S
H935 C927 0.929 . S
H936 C944 0.929 . S
H937 C946 0.930 . S
H938 C948 0.930 . S
H939 C951 0.929 . S
H940 C954 0.930 . S
H941 C956 0.960 . S
H942 C956 0.960 . S
H943 C956 0.960 . S
C944 H936 0.929 . S
C944 C945 1.377 . S
C944 C946 1.384 . S
C945 C944 1.377 . S
C945 C951 1.390 . S
C946 H937 0.930 . S
C946 C944 1.384 . S
C946 C947 1.372 . S
C947 C946 1.372 . S
C947 C948 1.400 . S
C947 C952 1.490 . S
C948 H938 0.930 . S
C948 C947 1.400 . S
C948 C951 1.386 . S
H949 C965 0.930 . S
H950 C966 0.931 . S
C951 H939 0.929 . S
C951 C945 1.390 . S
C951 C948 1.386 . S
C952 C947 1.490 . S
C952 C954 1.395 . S
C952 C955 1.403 . S
H953 C959 0.930 . S
C954 H940 0.930 . S
C954 C952 1.395 . S
C954 C957 1.403 . S
C955 C952 1.403 . S
C955 C956 1.524 . S
C955 C959 1.400 . S
C956 H941 0.960 . S
C956 H942 0.960 . S
C956 H943 0.960 . S
C956 C955 1.524 . S
C957 C954 1.403 . S
C957 C958 1.392 . S
C957 C961 1.495 . S
C958 C957 1.392 . S
C958 C959 1.385 . S
C958 C960 1.478 . S
C959 H953 0.930 . S
C959 C955 1.400 . S
C959 C958 1.385 . S
C960 C958 1.478 . S
C960 C962 1.381 . S
C960 C966 1.383 . S
C961 C957 1.495 . S
C961 H967 0.959 . S
C961 H968 0.961 . S
C961 H969 0.960 . S
C962 C960 1.381 . S
C962 C963 1.394 . S
C962 H970 0.930 . S
C963 C962 1.394 . S
C963 C964 1.383 . S
C963 H971 0.929 . S
C964 C963 1.383 . S
C964 C965 1.377 . S
C965 H949 0.930 . S
C965 C964 1.377 . S
C965 C966 1.379 . S
C966 H950 0.931 . S
C966 C960 1.383 . S
C966 C965 1.379 . S
H967 C961 0.959 . S
H968 C961 0.961 . S
H969 C961 0.960 . S
H970 C962 0.930 . S
H971 C963 0.929 . S
H972 C980 0.929 . S
H973 C982 0.930 . S
H974 C984 0.930 . S
H975 C987 0.929 . S
H976 C990 0.930 . S
H977 C992 0.960 . S
H978 C992 0.960 . S
H979 C992 0.960 . S
C980 H972 0.929 . S
C980 C981 1.377 . S
C980 C982 1.384 . S
C981 C980 1.377 . S
C981 C987 1.390 . S
C982 H973 0.930 . S
C982 C980 1.384 . S
C982 C983 1.372 . S
C983 C982 1.372 . S
C983 C984 1.400 . S
C983 C988 1.490 . S
C984 H974 0.930 . S
C984 C983 1.400 . S
C984 C987 1.386 . S
H985 C1001 0.930 . S
H986 C1002 0.931 . S
C987 H975 0.929 . S
C987 C981 1.390 . S
C987 C984 1.386 . S
C988 C983 1.490 . S
C988 C990 1.395 . S
C988 C991 1.403 . S
H989 C995 0.930 . S
C990 H976 0.930 . S
C990 C988 1.395 . S
C990 C993 1.403 . S
C991 C988 1.403 . S
C991 C992 1.524 . S
C991 C995 1.400 . S
C992 H977 0.960 . S
C992 H978 0.960 . S
C992 H979 0.960 . S
C992 C991 1.524 . S
C993 C990 1.403 . S
C993 C994 1.392 . S
C993 C997 1.495 . S
C994 C993 1.392 . S
C994 C995 1.385 . S
C994 C996 1.478 . S
C995 H989 0.930 . S
C995 C991 1.400 . S
C995 C994 1.385 . S
C996 C994 1.478 . S
C996 C998 1.381 . S
C996 C1002 1.383 . S
C997 C993 1.495 . S
C997 H1003 0.959 . S
C997 H1004 0.961 . S
C997 H1005 0.960 . S
C998 C996 1.381 . S
C998 C999 1.394 . S
C998 H1006 0.930 . S
C999 C998 1.394 . S
C999 C1000 1.383 . S
C999 H1007 0.929 . S
C1000 C999 1.383 . S
C1000 C1001 1.377 . S
C1001 H985 0.930 . S
C1001 C1000 1.377 . S
C1001 C1002 1.379 . S
C1002 H986 0.931 . S
C1002 C996 1.383 . S
C1002 C1001 1.379 . S
H1003 C997 0.959 . S
H1004 C997 0.961 . S
H1005 C997 0.960 . S
H1006 C998 0.930 . S
H1007 C999 0.929 . S
H1008 C1016 0.929 . S
H1009 C1018 0.930 . S
H1010 C1020 0.930 . S
H1011 C1023 0.929 . S
H1012 C1026 0.930 . S
H1013 C1028 0.960 . S
H1014 C1028 0.960 . S
H1015 C1028 0.960 . S
C1016 H1008 0.929 . S
C1016 C1017 1.377 . S
C1016 C1018 1.384 . S
C1017 C1016 1.377 . S
C1017 C1023 1.390 . S
C1018 H1009 0.930 . S
C1018 C1016 1.384 . S
C1018 C1019 1.372 . S
C1019 C1018 1.372 . S
C1019 C1020 1.400 . S
C1019 C1024 1.490 . S
C1020 H1010 0.930 . S
C1020 C1019 1.400 . S
C1020 C1023 1.386 . S
H1021 C1037 0.930 . S
H1022 C1038 0.931 . S
C1023 H1011 0.929 . S
C1023 C1017 1.390 . S
C1023 C1020 1.386 . S
C1024 C1019 1.490 . S
C1024 C1026 1.395 . S
C1024 C1027 1.403 . S
H1025 C1031 0.930 . S
C1026 H1012 0.930 . S
C1026 C1024 1.395 . S
C1026 C1029 1.403 . S
C1027 C1024 1.403 . S
C1027 C1028 1.524 . S
C1027 C1031 1.400 . S
C1028 H1013 0.960 . S
C1028 H1014 0.960 . S
C1028 H1015 0.960 . S
C1028 C1027 1.524 . S
C1029 C1026 1.403 . S
C1029 C1030 1.392 . S
C1029 C1033 1.495 . S
C1030 C1029 1.392 . S
C1030 C1031 1.385 . S
C1030 C1032 1.478 . S
C1031 H1025 0.930 . S
C1031 C1027 1.400 . S
C1031 C1030 1.385 . S
C1032 C1030 1.478 . S
C1032 C1034 1.381 . S
C1032 C1038 1.383 . S
C1033 C1029 1.495 . S
C1033 H1039 0.959 . S
C1033 H1040 0.961 . S
C1033 H1041 0.960 . S
C1034 C1032 1.381 . S
C1034 C1035 1.394 . S
C1034 H1042 0.930 . S
C1035 C1034 1.394 . S
C1035 C1036 1.383 . S
C1035 H1043 0.929 . S
C1036 C1035 1.383 . S
C1036 C1037 1.377 . S
C1037 H1021 0.930 . S
C1037 C1036 1.377 . S
C1037 C1038 1.379 . S
C1038 H1022 0.931 . S
C1038 C1032 1.383 . S
C1038 C1037 1.379 . S
H1039 C1033 0.959 . S
H1040 C1033 0.961 . S
H1041 C1033 0.960 . S
H1042 C1034 0.930 . S
H1043 C1035 0.929 . S
H1044 C1052 0.929 . S
H1045 C1054 0.930 . S
H1046 C1056 0.930 . S
H1047 C1059 0.929 . S
H1048 C1062 0.930 . S
H1049 C1064 0.960 . S
H1050 C1064 0.960 . S
H1051 C1064 0.960 . S
C1052 H1044 0.929 . S
C1052 C1053 1.377 . S
C1052 C1054 1.384 . S
C1053 C1052 1.377 . S
C1053 C1059 1.390 . S
C1054 H1045 0.930 . S
C1054 C1052 1.384 . S
C1054 C1055 1.372 . S
C1055 C1054 1.372 . S
C1055 C1056 1.400 . S
C1055 C1060 1.490 . S
C1056 H1046 0.930 . S
C1056 C1055 1.400 . S
C1056 C1059 1.386 . S
H1057 C1073 0.930 . S
H1058 C1074 0.931 . S
C1059 H1047 0.929 . S
C1059 C1053 1.390 . S
C1059 C1056 1.386 . S
C1060 C1055 1.490 . S
C1060 C1062 1.395 . S
C1060 C1063 1.403 . S
H1061 C1067 0.930 . S
C1062 H1048 0.930 . S
C1062 C1060 1.395 . S
C1062 C1065 1.403 . S
C1063 C1060 1.403 . S
C1063 C1064 1.524 . S
C1063 C1067 1.400 . S
C1064 H1049 0.960 . S
C1064 H1050 0.960 . S
C1064 H1051 0.960 . S
C1064 C1063 1.524 . S
C1065 C1062 1.403 . S
C1065 C1066 1.392 . S
C1065 C1069 1.495 . S
C1066 C1065 1.392 . S
C1066 C1067 1.385 . S
C1066 C1068 1.478 . S
C1067 H1061 0.930 . S
C1067 C1063 1.400 . S
C1067 C1066 1.385 . S
C1068 C1066 1.478 . S
C1068 C1070 1.381 . S
C1068 C1074 1.383 . S
C1069 C1065 1.495 . S
C1069 H1075 0.959 . S
C1069 H1076 0.961 . S
C1069 H1077 0.960 . S
C1070 C1068 1.381 . S
C1070 C1071 1.394 . S
C1070 H1078 0.930 . S
C1071 C1070 1.394 . S
C1071 C1072 1.383 . S
C1071 H1079 0.929 . S
C1072 C1071 1.383 . S
C1072 C1073 1.377 . S
C1073 H1057 0.930 . S
C1073 C1072 1.377 . S
C1073 C1074 1.379 . S
C1074 H1058 0.931 . S
C1074 C1068 1.383 . S
C1074 C1073 1.379 . S
H1075 C1069 0.959 . S
H1076 C1069 0.961 . S
H1077 C1069 0.960 . S
H1078 C1070 0.930 . S
H1079 C1071 0.929 . S
H1080 C1088 0.929 . S
H1081 C1090 0.930 . S
H1082 C1092 0.930 . S
H1083 C1095 0.929 . S
H1084 C1098 0.930 . S
H1085 C1100 0.960 . S
H1086 C1100 0.960 . S
H1087 C1100 0.960 . S
C1088 H1080 0.929 . S
C1088 C1089 1.377 . S
C1088 C1090 1.384 . S
C1089 C1088 1.377 . S
C1089 C1095 1.390 . S
C1090 H1081 0.930 . S
C1090 C1088 1.384 . S
C1090 C1091 1.372 . S
C1091 C1090 1.372 . S
C1091 C1092 1.400 . S
C1091 C1096 1.490 . S
C1092 H1082 0.930 . S
C1092 C1091 1.400 . S
C1092 C1095 1.386 . S
H1093 C1109 0.930 . S
H1094 C1110 0.931 . S
C1095 H1083 0.929 . S
C1095 C1089 1.390 . S
C1095 C1092 1.386 . S
C1096 C1091 1.490 . S
C1096 C1098 1.395 . S
C1096 C1099 1.403 . S
H1097 C1103 0.930 . S
C1098 H1084 0.930 . S
C1098 C1096 1.395 . S
C1098 C1101 1.403 . S
C1099 C1096 1.403 . S
C1099 C1100 1.524 . S
C1099 C1103 1.400 . S
C1100 H1085 0.960 . S
C1100 H1086 0.960 . S
C1100 H1087 0.960 . S
C1100 C1099 1.524 . S
C1101 C1098 1.403 . S
C1101 C1102 1.392 . S
C1101 C1105 1.495 . S
C1102 C1101 1.392 . S
C1102 C1103 1.385 . S
C1102 C1104 1.478 . S
C1103 H1097 0.930 . S
C1103 C1099 1.400 . S
C1103 C1102 1.385 . S
C1104 C1102 1.478 . S
C1104 C1106 1.381 . S
C1104 C1110 1.383 . S
C1105 C1101 1.495 . S
C1105 H1111 0.959 . S
C1105 H1112 0.961 . S
C1105 H1113 0.960 . S
C1106 C1104 1.381 . S
C1106 C1107 1.394 . S
C1106 H1114 0.930 . S
C1107 C1106 1.394 . S
C1107 C1108 1.383 . S
C1107 H1115 0.929 . S
C1108 C1107 1.383 . S
C1108 C1109 1.377 . S
C1109 H1093 0.930 . S
C1109 C1108 1.377 . S
C1109 C1110 1.379 . S
C1110 H1094 0.931 . S
C1110 C1104 1.383 . S
C1110 C1109 1.379 . S
H1111 C1105 0.959 . S
H1112 C1105 0.961 . S
H1113 C1105 0.960 . S
H1114 C1106 0.930 . S
H1115 C1107 0.929 . S
H1116 C1124 0.929 . S
H1117 C1126 0.930 . S
H1118 C1128 0.930 . S
H1119 C1131 0.929 . S
H1120 C1134 0.930 . S
H1121 C1136 0.960 . S
H1122 C1136 0.960 . S
H1123 C1136 0.960 . S
C1124 H1116 0.929 . S
C1124 C1125 1.377 . S
C1124 C1126 1.384 . S
C1125 C1124 1.377 . S
C1125 C1131 1.390 . S
C1126 H1117 0.930 . S
C1126 C1124 1.384 . S
C1126 C1127 1.372 . S
C1127 C1126 1.372 . S
C1127 C1128 1.400 . S
C1127 C1132 1.490 . S
C1128 H1118 0.930 . S
C1128 C1127 1.400 . S
C1128 C1131 1.386 . S
H1129 C1145 0.930 . S
H1130 C1146 0.931 . S
C1131 H1119 0.929 . S
C1131 C1125 1.390 . S
C1131 C1128 1.386 . S
C1132 C1127 1.490 . S
C1132 C1134 1.395 . S
C1132 C1135 1.403 . S
H1133 C1139 0.930 . S
C1134 H1120 0.930 . S
C1134 C1132 1.395 . S
C1134 C1137 1.403 . S
C1135 C1132 1.403 . S
C1135 C1136 1.524 . S
C1135 C1139 1.400 . S
C1136 H1121 0.960 . S
C1136 H1122 0.960 . S
C1136 H1123 0.960 . S
C1136 C1135 1.524 . S
C1137 C1134 1.403 . S
C1137 C1138 1.392 . S
C1137 C1141 1.495 . S
C1138 C1137 1.392 . S
C1138 C1139 1.385 . S
C1138 C1140 1.478 . S
C1139 H1133 0.930 . S
C1139 C1135 1.400 . S
C1139 C1138 1.385 . S
C1140 C1138 1.478 . S
C1140 C1142 1.381 . S
C1140 C1146 1.383 . S
C1141 C1137 1.495 . S
C1141 H1147 0.959 . S
C1141 H1148 0.961 . S
C1141 H1149 0.960 . S
C1142 C1140 1.381 . S
C1142 C1143 1.394 . S
C1142 H1150 0.930 . S
C1143 C1142 1.394 . S
C1143 C1144 1.383 . S
C1143 H1151 0.929 . S
C1144 C1143 1.383 . S
C1144 C1145 1.377 . S
C1145 H1129 0.930 . S
C1145 C1144 1.377 . S
C1145 C1146 1.379 . S
C1146 H1130 0.931 . S
C1146 C1140 1.383 . S
C1146 C1145 1.379 . S
H1147 C1141 0.959 . S
H1148 C1141 0.961 . S
H1149 C1141 0.960 . S
H1150 C1142 0.930 . S
H1151 C1143 0.929 . S
H1152 C1160 0.929 . S
H1153 C1162 0.930 . S
H1154 C1164 0.930 . S
H1155 C1167 0.929 . S
H1156 C1170 0.930 . S
H1157 C1172 0.960 . S
H1158 C1172 0.960 . S
H1159 C1172 0.960 . S
C1160 H1152 0.929 . S
C1160 C1161 1.377 . S
C1160 C1162 1.384 . S
C1161 C1160 1.377 . S
C1161 C1167 1.390 . S
C1162 H1153 0.930 . S
C1162 C1160 1.384 . S
C1162 C1163 1.372 . S
C1163 C1162 1.372 . S
C1163 C1164 1.400 . S
C1163 C1168 1.490 . S
C1164 H1154 0.930 . S
C1164 C1163 1.400 . S
C1164 C1167 1.386 . S
H1165 C1181 0.930 . S
H1166 C1182 0.931 . S
C1167 H1155 0.929 . S
C1167 C1161 1.390 . S
C1167 C1164 1.386 . S
C1168 C1163 1.490 . S
C1168 C1170 1.395 . S
C1168 C1171 1.403 . S
H1169 C1175 0.930 . S
C1170 H1156 0.930 . S
C1170 C1168 1.395 . S
C1170 C1173 1.403 . S
C1171 C1168 1.403 . S
C1171 C1172 1.524 . S
C1171 C1175 1.400 . S
C1172 H1157 0.960 . S
C1172 H1158 0.960 . S
C1172 H1159 0.960 . S
C1172 C1171 1.524 . S
C1173 C1170 1.403 . S
C1173 C1174 1.392 . S
C1173 C1177 1.495 . S
C1174 C1173 1.392 . S
C1174 C1175 1.385 . S
C1174 C1176 1.478 . S
C1175 H1169 0.930 . S
C1175 C1171 1.400 . S
C1175 C1174 1.385 . S
C1176 C1174 1.478 . S
C1176 C1178 1.381 . S
C1176 C1182 1.383 . S
C1177 C1173 1.495 . S
C1177 H1183 0.959 . S
C1177 H1184 0.961 . S
C1177 H1185 0.960 . S
C1178 C1176 1.381 . S
C1178 C1179 1.394 . S
C1178 H1186 0.930 . S
C1179 C1178 1.394 . S
C1179 C1180 1.383 . S
C1179 H1187 0.929 . S
C1180 C1179 1.383 . S
C1180 C1181 1.377 . S
C1181 H1165 0.930 . S
C1181 C1180 1.377 . S
C1181 C1182 1.379 . S
C1182 H1166 0.931 . S
C1182 C1176 1.383 . S
C1182 C1181 1.379 . S
H1183 C1177 0.959 . S
H1184 C1177 0.961 . S
H1185 C1177 0.960 . S
H1186 C1178 0.930 . S
H1187 C1179 0.929 . S
H1188 C1196 0.929 . S
H1189 C1198 0.930 . S
H1190 C1200 0.930 . S
H1191 C1203 0.929 . S
H1192 C1206 0.930 . S
H1193 C1208 0.960 . S
H1194 C1208 0.960 . S
H1195 C1208 0.960 . S
C1196 H1188 0.929 . S
C1196 C1197 1.377 . S
C1196 C1198 1.384 . S
C1197 C1196 1.377 . S
C1197 C1203 1.390 . S
C1198 H1189 0.930 . S
C1198 C1196 1.384 . S
C1198 C1199 1.372 . S
C1199 C1198 1.372 . S
C1199 C1200 1.400 . S
C1199 C1204 1.490 . S
C1200 H1190 0.930 . S
C1200 C1199 1.400 . S
C1200 C1203 1.386 . S
H1201 C1217 0.930 . S
H1202 C1218 0.931 . S
C1203 H1191 0.929 . S
C1203 C1197 1.390 . S
C1203 C1200 1.386 . S
C1204 C1199 1.490 . S
C1204 C1206 1.395 . S
C1204 C1207 1.403 . S
H1205 C1211 0.930 . S
C1206 H1192 0.930 . S
C1206 C1204 1.395 . S
C1206 C1209 1.403 . S
C1207 C1204 1.403 . S
C1207 C1208 1.524 . S
C1207 C1211 1.400 . S
C1208 H1193 0.960 . S
C1208 H1194 0.960 . S
C1208 H1195 0.960 . S
C1208 C1207 1.524 . S
C1209 C1206 1.403 . S
C1209 C1210 1.392 . S
C1209 C1213 1.495 . S
C1210 C1209 1.392 . S
C1210 C1211 1.385 . S
C1210 C1212 1.478 . S
C1211 H1205 0.930 . S
C1211 C1207 1.400 . S
C1211 C1210 1.385 . S
C1212 C1210 1.478 . S
C1212 C1214 1.381 . S
C1212 C1218 1.383 . S
C1213 C1209 1.495 . S
C1213 H1219 0.959 . S
C1213 H1220 0.961 . S
C1213 H1221 0.960 . S
C1214 C1212 1.381 . S
C1214 C1215 1.394 . S
C1214 H1222 0.930 . S
C1215 C1214 1.394 . S
C1215 C1216 1.383 . S
C1215 H1223 0.929 . S
C1216 C1215 1.383 . S
C1216 C1217 1.377 . S
C1217 H1201 0.930 . S
C1217 C1216 1.377 . S
C1217 C1218 1.379 . S
C1218 H1202 0.931 . S
C1218 C1212 1.383 . S
C1218 C1217 1.379 . S
H1219 C1213 0.959 . S
H1220 C1213 0.961 . S
H1221 C1213 0.960 . S
H1222 C1214 0.930 . S
H1223 C1215 0.929 . S
H1224 C1232 0.929 . S
H1225 C1234 0.930 . S
H1226 C1236 0.930 . S
H1227 C1239 0.929 . S
H1228 C1242 0.930 . S
H1229 C1244 0.960 . S
H1230 C1244 0.960 . S
H1231 C1244 0.960 . S
C1232 H1224 0.929 . S
C1232 C1233 1.377 . S
C1232 C1234 1.384 . S
C1233 C1232 1.377 . S
C1233 C1239 1.390 . S
C1234 H1225 0.930 . S
C1234 C1232 1.384 . S
C1234 C1235 1.372 . S
C1235 C1234 1.372 . S
C1235 C1236 1.400 . S
C1235 C1240 1.490 . S
C1236 H1226 0.930 . S
C1236 C1235 1.400 . S
C1236 C1239 1.386 . S
H1237 C1253 0.930 . S
H1238 C1254 0.931 . S
C1239 H1227 0.929 . S
C1239 C1233 1.390 . S
C1239 C1236 1.386 . S
C1240 C1235 1.490 . S
C1240 C1242 1.395 . S
C1240 C1243 1.403 . S
H1241 C1247 0.930 . S
C1242 H1228 0.930 . S
C1242 C1240 1.395 . S
C1242 C1245 1.403 . S
C1243 C1240 1.403 . S
C1243 C1244 1.524 . S
C1243 C1247 1.400 . S
C1244 H1229 0.960 . S
C1244 H1230 0.960 . S
C1244 H1231 0.960 . S
C1244 C1243 1.524 . S
C1245 C1242 1.403 . S
C1245 C1246 1.392 . S
C1245 C1249 1.495 . S
C1246 C1245 1.392 . S
C1246 C1247 1.385 . S
C1246 C1248 1.478 . S
C1247 H1241 0.930 . S
C1247 C1243 1.400 . S
C1247 C1246 1.385 . S
C1248 C1246 1.478 . S
C1248 C1250 1.381 . S
C1248 C1254 1.383 . S
C1249 C1245 1.495 . S
C1249 H1255 0.959 . S
C1249 H1256 0.961 . S
C1249 H1257 0.960 . S
C1250 C1248 1.381 . S
C1250 C1251 1.394 . S
C1250 H1258 0.930 . S
C1251 C1250 1.394 . S
C1251 C1252 1.383 . S
C1251 H1259 0.929 . S
C1252 C1251 1.383 . S
C1252 C1253 1.377 . S
C1253 H1237 0.930 . S
C1253 C1252 1.377 . S
C1253 C1254 1.379 . S
C1254 H1238 0.931 . S
C1254 C1248 1.383 . S
C1254 C1253 1.379 . S
H1255 C1249 0.959 . S
H1256 C1249 0.961 . S
H1257 C1249 0.960 . S
H1258 C1250 0.930 . S
H1259 C1251 0.929 . S
H1260 C1268 0.929 . S
H1261 C1270 0.930 . S
H1262 C1272 0.930 . S
H1263 C1275 0.929 . S
H1264 C1278 0.930 . S
H1265 C1280 0.960 . S
H1266 C1280 0.960 . S
H1267 C1280 0.960 . S
C1268 H1260 0.929 . S
C1268 C1269 1.377 . S
C1268 C1270 1.384 . S
C1269 C1268 1.377 . S
C1269 C1275 1.390 . S
C1270 H1261 0.930 . S
C1270 C1268 1.384 . S
C1270 C1271 1.372 . S
C1271 C1270 1.372 . S
C1271 C1272 1.400 . S
C1271 C1276 1.490 . S
C1272 H1262 0.930 . S
C1272 C1271 1.400 . S
C1272 C1275 1.386 . S
H1273 C1289 0.930 . S
H1274 C1290 0.931 . S
C1275 H1263 0.929 . S
C1275 C1269 1.390 . S
C1275 C1272 1.386 . S
C1276 C1271 1.490 . S
C1276 C1278 1.395 . S
C1276 C1279 1.403 . S
H1277 C1283 0.930 . S
C1278 H1264 0.930 . S
C1278 C1276 1.395 . S
C1278 C1281 1.403 . S
C1279 C1276 1.403 . S
C1279 C1280 1.524 . S
C1279 C1283 1.400 . S
C1280 H1265 0.960 . S
C1280 H1266 0.960 . S
C1280 H1267 0.960 . S
C1280 C1279 1.524 . S
C1281 C1278 1.403 . S
C1281 C1282 1.392 . S
C1281 C1285 1.495 . S
C1282 C1281 1.392 . S
C1282 C1283 1.385 . S
C1282 C1284 1.478 . S
C1283 H1277 0.930 . S
C1283 C1279 1.400 . S
C1283 C1282 1.385 . S
C1284 C1282 1.478 . S
C1284 C1286 1.381 . S
C1284 C1290 1.383 . S
C1285 C1281 1.495 . S
C1285 H1291 0.959 . S
C1285 H1292 0.961 . S
C1285 H1293 0.960 . S
C1286 C1284 1.381 . S
C1286 C1287 1.394 . S
C1286 H1294 0.930 . S
C1287 C1286 1.394 . S
C1287 C1288 1.383 . S
C1287 H1295 0.929 . S
C1288 C1287 1.383 . S
C1288 C1289 1.377 . S
C1289 H1273 0.930 . S
C1289 C1288 1.377 . S
C1289 C1290 1.379 . S
C1290 H1274 0.931 . S
C1290 C1284 1.383 . S
C1290 C1289 1.379 . S
H1291 C1285 0.959 . S
H1292 C1285 0.961 . S
H1293 C1285 0.960 . S
H1294 C1286 0.930 . S
H1295 C1287 0.929 . S
H1296 C1304 0.929 . S
H1297 C1306 0.930 . S
H1298 C1308 0.930 . S
H1299 C1311 0.929 . S
H1300 C1314 0.930 . S
H1301 C1316 0.960 . S
H1302 C1316 0.960 . S
H1303 C1316 0.960 . S
C1304 H1296 0.929 . S
C1304 C1305 1.377 . S
C1304 C1306 1.384 . S
C1305 C1304 1.377 . S
C1305 C1311 1.390 . S
C1306 H1297 0.930 . S
C1306 C1304 1.384 . S
C1306 C1307 1.372 . S
C1307 C1306 1.372 . S
C1307 C1308 1.400 . S
C1307 C1312 1.490 . S
C1308 H1298 0.930 . S
C1308 C1307 1.400 . S
C1308 C1311 1.386 . S
H1309 C1325 0.930 . S
H1310 C1326 0.931 . S
C1311 H1299 0.929 . S
C1311 C1305 1.390 . S
C1311 C1308 1.386 . S
C1312 C1307 1.490 . S
C1312 C1314 1.395 . S
C1312 C1315 1.403 . S
H1313 C1319 0.930 . S
C1314 H1300 0.930 . S
C1314 C1312 1.395 . S
C1314 C1317 1.403 . S
C1315 C1312 1.403 . S
C1315 C1316 1.524 . S
C1315 C1319 1.400 . S
C1316 H1301 0.960 . S
C1316 H1302 0.960 . S
C1316 H1303 0.960 . S
C1316 C1315 1.524 . S
C1317 C1314 1.403 . S
C1317 C1318 1.392 . S
C1317 C1321 1.495 . S
C1318 C1317 1.392 . S
C1318 C1319 1.385 . S
C1318 C1320 1.478 . S
C1319 H1313 0.930 . S
C1319 C1315 1.400 . S
C1319 C1318 1.385 . S
C1320 C1318 1.478 . S
C1320 C1322 1.381 . S
C1320 C1326 1.383 . S
C1321 C1317 1.495 . S
C1321 H1327 0.959 . S
C1321 H1328 0.961 . S
C1321 H1329 0.960 . S
C1322 C1320 1.381 . S
C1322 C1323 1.394 . S
C1322 H1330 0.930 . S
C1323 C1322 1.394 . S
C1323 C1324 1.383 . S
C1323 H1331 0.929 . S
C1324 C1323 1.383 . S
C1324 C1325 1.377 . S
C1325 H1309 0.930 . S
C1325 C1324 1.377 . S
C1325 C1326 1.379 . S
C1326 H1310 0.931 . S
C1326 C1320 1.383 . S
C1326 C1325 1.379 . S
H1327 C1321 0.959 . S
H1328 C1321 0.961 . S
H1329 C1321 0.960 . S
H1330 C1322 0.930 . S
H1331 C1323 0.929 . S
H1332 C1340 0.929 . S
H1333 C1342 0.930 . S
H1334 C1344 0.930 . S
H1335 C1347 0.929 . S
H1336 C1350 0.930 . S
H1337 C1352 0.960 . S
H1338 C1352 0.960 . S
H1339 C1352 0.960 . S
C1340 H1332 0.929 . S
C1340 C1341 1.377 . S
C1340 C1342 1.384 . S
C1341 C1340 1.377 . S
C1341 C1347 1.390 . S
C1342 H1333 0.930 . S
C1342 C1340 1.384 . S
C1342 C1343 1.372 . S
C1343 C1342 1.372 . S
C1343 C1344 1.400 . S
C1343 C1348 1.490 . S
C1344 H1334 0.930 . S
C1344 C1343 1.400 . S
C1344 C1347 1.386 . S
H1345 C1361 0.930 . S
H1346 C1362 0.931 . S
C1347 H1335 0.929 . S
C1347 C1341 1.390 . S
C1347 C1344 1.386 . S
C1348 C1343 1.490 . S
C1348 C1350 1.395 . S
C1348 C1351 1.403 . S
H1349 C1355 0.930 . S
C1350 H1336 0.930 . S
C1350 C1348 1.395 . S
C1350 C1353 1.403 . S
C1351 C1348 1.403 . S
C1351 C1352 1.524 . S
C1351 C1355 1.400 . S
C1352 H1337 0.960 . S
C1352 H1338 0.960 . S
C1352 H1339 0.960 . S
C1352 C1351 1.524 . S
C1353 C1350 1.403 . S
C1353 C1354 1.392 . S
C1353 C1357 1.495 . S
C1354 C1353 1.392 . S
C1354 C1355 1.385 . S
C1354 C1356 1.478 . S
C1355 H1349 0.930 . S
C1355 C1351 1.400 . S
C1355 C1354 1.385 . S
C1356 C1354 1.478 . S
C1356 C1358 1.381 . S
C1356 C1362 1.383 . S
C1357 C1353 1.495 . S
C1357 H1363 0.959 . S
C1357 H1364 0.961 . S
C1357 H1365 0.960 . S
C1358 C1356 1.381 . S
C1358 C1359 1.394 . S
C1358 H1366 0.930 . S
C1359 C1358 1.394 . S
C1359 C1360 1.383 . S
C1359 H1367 0.929 . S
C1360 C1359 1.383 . S
C1360 C1361 1.377 . S
C1361 H1345 0.930 . S
C1361 C1360 1.377 . S
C1361 C1362 1.379 . S
C1362 H1346 0.931 . S
C1362 C1356 1.383 . S
C1362 C1361 1.379 . S
H1363 C1357 0.959 . S
H1364 C1357 0.961 . S
H1365 C1357 0.960 . S
H1366 C1358 0.930 . S
H1367 C1359 0.929 . S
H1368 C1376 0.929 . S
H1369 C1378 0.930 . S
H1370 C1380 0.930 . S
H1371 C1383 0.929 . S
H1372 C1386 0.930 . S
H1373 C1388 0.960 . S
H1374 C1388 0.960 . S
H1375 C1388 0.960 . S
C1376 H1368 0.929 . S
C1376 C1377 1.377 . S
C1376 C1378 1.384 . S
C1377 C1376 1.377 . S
C1377 C1383 1.390 . S
C1378 H1369 0.930 . S
C1378 C1376 1.384 . S
C1378 C1379 1.372 . S
C1379 C1378 1.372 . S
C1379 C1380 1.400 . S
C1379 C1384 1.490 . S
C1380 H1370 0.930 . S
C1380 C1379 1.400 . S
C1380 C1383 1.386 . S
H1381 C1397 0.930 . S
H1382 C1398 0.931 . S
C1383 H1371 0.929 . S
C1383 C1377 1.390 . S
C1383 C1380 1.386 . S
C1384 C1379 1.490 . S
C1384 C1386 1.395 . S
C1384 C1387 1.403 . S
H1385 C1391 0.930 . S
C1386 H1372 0.930 . S
C1386 C1384 1.395 . S
C1386 C1389 1.403 . S
C1387 C1384 1.403 . S
C1387 C1388 1.524 . S
C1387 C1391 1.400 . S
C1388 H1373 0.960 . S
C1388 H1374 0.960 . S
C1388 H1375 0.960 . S
C1388 C1387 1.524 . S
C1389 C1386 1.403 . S
C1389 C1390 1.392 . S
C1389 C1393 1.495 . S
C1390 C1389 1.392 . S
C1390 C1391 1.385 . S
C1390 C1392 1.478 . S
C1391 H1385 0.930 . S
C1391 C1387 1.400 . S
C1391 C1390 1.385 . S
C1392 C1390 1.478 . S
C1392 C1394 1.381 . S
C1392 C1398 1.383 . S
C1393 C1389 1.495 . S
C1393 H1399 0.959 . S
C1393 H1400 0.961 . S
C1393 H1401 0.960 . S
C1394 C1392 1.381 . S
C1394 C1395 1.394 . S
C1394 H1402 0.930 . S
C1395 C1394 1.394 . S
C1395 C1396 1.383 . S
C1395 H1403 0.929 . S
C1396 C1395 1.383 . S
C1396 C1397 1.377 . S
C1397 H1381 0.930 . S
C1397 C1396 1.377 . S
C1397 C1398 1.379 . S
C1398 H1382 0.931 . S
C1398 C1392 1.383 . S
C1398 C1397 1.379 . S
H1399 C1393 0.959 . S
H1400 C1393 0.961 . S
H1401 C1393 0.960 . S
H1402 C1394 0.930 . S
H1403 C1395 0.929 . S
H1404 C1412 0.929 . S
H1405 C1414 0.930 . S
H1406 C1416 0.930 . S
H1407 C1419 0.929 . S
H1408 C1422 0.930 . S
H1409 C1424 0.960 . S
H1410 C1424 0.960 . S
H1411 C1424 0.960 . S
C1412 H1404 0.929 . S
C1412 C1413 1.377 . S
C1412 C1414 1.384 . S
C1413 C1412 1.377 . S
C1413 C1419 1.390 . S
C1414 H1405 0.930 . S
C1414 C1412 1.384 . S
C1414 C1415 1.372 . S
C1415 C1414 1.372 . S
C1415 C1416 1.400 . S
C1415 C1420 1.490 . S
C1416 H1406 0.930 . S
C1416 C1415 1.400 . S
C1416 C1419 1.386 . S
H1417 C1433 0.930 . S
H1418 C1434 0.931 . S
C1419 H1407 0.929 . S
C1419 C1413 1.390 . S
C1419 C1416 1.386 . S
C1420 C1415 1.490 . S
C1420 C1422 1.395 . S
C1420 C1423 1.403 . S
H1421 C1427 0.930 . S
C1422 H1408 0.930 . S
C1422 C1420 1.395 . S
C1422 C1425 1.403 . S
C1423 C1420 1.403 . S
C1423 C1424 1.524 . S
C1423 C1427 1.400 . S
C1424 H1409 0.960 . S
C1424 H1410 0.960 . S
C1424 H1411 0.960 . S
C1424 C1423 1.524 . S
C1425 C1422 1.403 . S
C1425 C1426 1.392 . S
C1425 C1429 1.495 . S
C1426 C1425 1.392 . S
C1426 C1427 1.385 . S
C1426 C1428 1.478 . S
C1427 H1421 0.930 . S
C1427 C1423 1.400 . S
C1427 C1426 1.385 . S
C1428 C1426 1.478 . S
C1428 C1430 1.381 . S
C1428 C1434 1.383 . S
C1429 C1425 1.495 . S
C1429 H1435 0.959 . S
C1429 H1436 0.961 . S
C1429 H1437 0.960 . S
C1430 C1428 1.381 . S
C1430 C1431 1.394 . S
C1430 H1438 0.930 . S
C1431 C1430 1.394 . S
C1431 C1432 1.383 . S
C1431 H1439 0.929 . S
C1432 C1431 1.383 . S
C1432 C1433 1.377 . S
C1433 H1417 0.930 . S
C1433 C1432 1.377 . S
C1433 C1434 1.379 . S
C1434 H1418 0.931 . S
C1434 C1428 1.383 . S
C1434 C1433 1.379 . S
H1435 C1429 0.959 . S
H1436 C1429 0.961 . S
H1437 C1429 0.960 . S
H1438 C1430 0.930 . S
H1439 C1431 0.929 . S
H1440 C1448 0.929 . S
H1441 C1450 0.930 . S
H1442 C1452 0.930 . S
H1443 C1455 0.929 . S
H1444 C1458 0.930 . S
H1445 C1460 0.960 1_556 S
H1446 C1460 0.960 . S
H1447 C1460 0.960 . S
C1448 H1440 0.929 . S
C1448 C1449 1.377 . S
C1448 C1450 1.384 . S
C1449 C1448 1.377 . S
C1449 C1455 1.390 . S
C1450 H1441 0.930 . S
C1450 C1448 1.384 . S
C1450 C1451 1.372 . S
C1451 C1450 1.372 . S
C1451 C1452 1.400 . S
C1451 C1456 1.490 . S
C1452 H1442 0.930 . S
C1452 C1451 1.400 . S
C1452 C1455 1.386 . S
H1453 C1469 0.930 . S
H1454 C1470 0.931 . S
C1455 H1443 0.929 . S
C1455 C1449 1.390 . S
C1455 C1452 1.386 . S
C1456 C1451 1.490 . S
C1456 C1458 1.395 . S
C1456 C1459 1.403 . S
H1457 C1463 0.930 . S
C1458 H1444 0.930 . S
C1458 C1456 1.395 . S
C1458 C1461 1.403 1_554 S
C1459 C1456 1.403 . S
C1459 C1460 1.524 . S
C1459 C1463 1.400 1_554 S
C1460 H1445 0.960 1_554 S
C1460 H1446 0.960 . S
C1460 H1447 0.960 . S
C1460 C1459 1.524 . S
C1461 C1458 1.403 1_556 S
C1461 C1462 1.392 . S
C1461 C1465 1.495 . S
C1462 C1461 1.392 . S
C1462 C1463 1.385 . S
C1462 C1464 1.478 . S
C1463 H1457 0.930 . S
C1463 C1459 1.400 1_556 S
C1463 C1462 1.385 . S
C1464 C1462 1.478 . S
C1464 C1466 1.381 . S
C1464 C1470 1.383 . S
C1465 C1461 1.495 . S
C1465 H1471 0.959 1_556 S
C1465 H1472 0.961 . S
C1465 H1473 0.960 . S
C1466 C1464 1.381 . S
C1466 C1467 1.394 . S
C1466 H1474 0.930 . S
C1467 C1466 1.394 . S
C1467 C1468 1.383 . S
C1467 H1475 0.929 . S
C1468 C1467 1.383 . S
C1468 C1469 1.377 . S
C1469 H1453 0.930 . S
C1469 C1468 1.377 . S
C1469 C1470 1.379 . S
C1470 H1454 0.931 . S
C1470 C1464 1.383 . S
C1470 C1469 1.379 . S
H1471 C1465 0.959 1_554 S
H1472 C1465 0.961 . S
H1473 C1465 0.960 . S
H1474 C1466 0.930 . S
H1475 C1467 0.929 . S
H1476 C1484 0.929 . S
H1477 C1486 0.930 . S
H1478 C1488 0.930 . S
H1479 C1491 0.929 . S
H1480 C1494 0.930 . S
H1481 C1496 0.960 . S
H1482 C1496 0.960 . S
H1483 C1496 0.960 . S
C1484 H1476 0.929 . S
C1484 C1485 1.377 . S
C1484 C1486 1.384 . S
C1485 C1484 1.377 . S
C1485 C1491 1.390 . S
C1486 H1477 0.930 . S
C1486 C1484 1.384 . S
C1486 C1487 1.372 . S
C1487 C1486 1.372 . S
C1487 C1488 1.400 . S
C1487 C1492 1.490 . S
C1488 H1478 0.930 . S
C1488 C1487 1.400 . S
C1488 C1491 1.386 . S
H1489 C1505 0.930 . S
H1490 C1506 0.931 . S
C1491 H1479 0.929 . S
C1491 C1485 1.390 . S
C1491 C1488 1.386 . S
C1492 C1487 1.490 . S
C1492 C1494 1.395 . S
C1492 C1495 1.403 . S
H1493 C1499 0.930 . S
C1494 H1480 0.930 . S
C1494 C1492 1.395 . S
C1494 C1497 1.403 . S
C1495 C1492 1.403 . S
C1495 C1496 1.524 . S
C1495 C1499 1.400 . S
C1496 H1481 0.960 . S
C1496 H1482 0.960 . S
C1496 H1483 0.960 . S
C1496 C1495 1.524 . S
C1497 C1494 1.403 . S
C1497 C1498 1.392 . S
C1497 C1501 1.495 . S
C1498 C1497 1.392 . S
C1498 C1499 1.385 . S
C1498 C1500 1.478 . S
C1499 H1493 0.930 . S
C1499 C1495 1.400 . S
C1499 C1498 1.385 . S
C1500 C1498 1.478 . S
C1500 C1502 1.381 . S
C1500 C1506 1.383 . S
C1501 C1497 1.495 . S
C1501 H1507 0.959 . S
C1501 H1508 0.961 . S
C1501 H1509 0.960 . S
C1502 C1500 1.381 . S
C1502 C1503 1.394 . S
C1502 H1510 0.930 . S
C1503 C1502 1.394 . S
C1503 C1504 1.383 . S
C1503 H1511 0.929 . S
C1504 C1503 1.383 . S
C1504 C1505 1.377 . S
C1505 H1489 0.930 . S
C1505 C1504 1.377 . S
C1505 C1506 1.379 . S
C1506 H1490 0.931 . S
C1506 C1500 1.383 . S
C1506 C1505 1.379 . S
H1507 C1501 0.959 . S
H1508 C1501 0.961 . S
H1509 C1501 0.960 . S
H1510 C1502 0.930 . S
H1511 C1503 0.929 . S
H1512 C1520 0.943 . S
H1513 C1522 0.944 . S
H1514 C1524 0.930 . S
H1515 C1527 0.929 . S
H1516 C1530 0.930 . S
H1517 C1532 0.960 . S
H1518 C1532 0.960 . S
H1519 C1532 0.960 . S
C1520 H1512 0.943 . S
C1520 C1521 1.365 1_455 S
C1520 C1522 1.384 . S
C1521 C1520 1.365 1_655 S
C1521 C1527 1.390 . S
C1522 H1513 0.944 . S
C1522 C1520 1.384 . S
C1522 C1523 1.359 1_455 S
C1523 C1522 1.359 1_655 S
C1523 C1524 1.400 . S
C1523 C1528 1.490 . S
C1524 H1514 0.930 . S
C1524 C1523 1.400 . S
C1524 C1527 1.386 . S
H1525 C1541 0.930 . S
H1526 C1542 0.931 . S
C1527 H1515 0.929 . S
C1527 C1521 1.390 . S
C1527 C1524 1.386 . S
C1528 C1523 1.490 . S
C1528 C1530 1.395 . S
C1528 C1531 1.403 1_655 S
H1529 C1535 0.930 . S
C1530 H1516 0.930 . S
C1530 C1528 1.395 . S
C1530 C1533 1.403 1_554 S
C1531 C1528 1.403 1_455 S
C1531 C1532 1.524 . S
C1531 C1535 1.400 1_554 S
C1532 H1517 0.960 . S
C1532 H1518 0.960 . S
C1532 H1519 0.960 . S
C1532 C1531 1.524 . S
C1533 C1530 1.403 1_556 S
C1533 C1534 1.392 . S
C1533 C1537 1.495 . S
C1534 C1533 1.392 . S
C1534 C1535 1.385 1_655 S
C1534 C1536 1.478 . S
C1535 H1529 0.930 . S
C1535 C1531 1.400 1_556 S
C1535 C1534 1.385 1_455 S
C1536 C1534 1.478 . S
C1536 C1538 1.385 . S
C1536 C1542 1.383 . S
C1537 C1533 1.495 . S
C1537 H1543 0.959 . S
C1537 H1544 0.961 . S
C1537 H1545 0.960 . S
C1538 C1536 1.385 . S
C1538 C1539 1.393 1_655 S
C1538 H1546 0.926 1_655 S
C1539 C1538 1.393 1_455 S
C1539 C1540 1.367 1_455 S
C1539 H1547 0.948 . S
C1540 C1539 1.367 1_655 S
C1540 C1541 1.377 . S
C1541 H1525 0.930 . S
C1541 C1540 1.377 . S
C1541 C1542 1.379 . S
C1542 H1526 0.931 . S
C1542 C1536 1.383 . S
C1542 C1541 1.379 . S
H1543 C1537 0.959 . S
H1544 C1537 0.961 . S
H1545 C1537 0.960 . S
H1546 C1538 0.926 1_455 S
H1547 C1539 0.948 . S
H1548 C1556 0.929 . S
H1549 C1558 0.930 . S
H1550 C1560 0.930 . S
H1551 C1563 0.929 . S
H1552 C1566 0.930 . S
H1553 C1568 0.960 . S
H1554 C1568 0.960 . S
H1555 C1568 0.960 . S
C1556 H1548 0.929 . S
C1556 C1557 1.377 1_545 S
C1556 C1558 1.384 . S
C1557 C1556 1.377 1_565 S
C1557 C1563 1.390 . S
C1558 H1549 0.930 . S
C1558 C1556 1.384 . S
C1558 C1559 1.372 1_545 S
C1559 C1558 1.372 1_565 S
C1559 C1560 1.400 . S
C1559 C1564 1.490 . S
C1560 H1550 0.930 . S
C1560 C1559 1.400 . S
C1560 C1563 1.386 . S
H1561 C1577 0.930 . S
H1562 C1578 0.931 . S
C1563 H1551 0.929 . S
C1563 C1557 1.390 . S
C1563 C1560 1.386 . S
C1564 C1559 1.490 . S
C1564 C1566 1.395 1_565 S
C1564 C1567 1.403 . S
H1565 C1571 0.930 . S
C1566 H1552 0.930 . S
C1566 C1564 1.395 1_545 S
C1566 C1569 1.403 . S
C1567 C1564 1.403 . S
C1567 C1568 1.524 . S
C1567 C1571 1.400 . S
C1568 H1553 0.960 . S
C1568 H1554 0.960 . S
C1568 H1555 0.960 . S
C1568 C1567 1.524 . S
C1569 C1566 1.403 . S
C1569 C1570 1.392 1_545 S
C1569 C1573 1.495 . S
C1570 C1569 1.392 1_565 S
C1570 C1571 1.385 . S
C1570 C1572 1.478 . S
C1571 H1565 0.930 . S
C1571 C1567 1.400 . S
C1571 C1570 1.385 . S
C1572 C1570 1.478 . S
C1572 C1574 1.381 1_565 S
C1572 C1578 1.383 . S
C1573 C1569 1.495 . S
C1573 H1579 0.959 . S
C1573 H1580 0.956 1_545 S
C1573 H1581 0.960 . S
C1574 C1572 1.381 1_545 S
C1574 C1575 1.394 . S
C1574 H1582 0.930 . S
C1575 C1574 1.394 . S
C1575 C1576 1.383 1_545 S
C1575 H1583 0.929 . S
C1576 C1575 1.383 1_565 S
C1576 C1577 1.377 . S
C1577 H1561 0.930 . S
C1577 C1576 1.377 . S
C1577 C1578 1.379 . S
C1578 H1562 0.931 . S
C1578 C1572 1.383 . S
C1578 C1577 1.379 . S
H1579 C1573 0.959 . S
H1580 C1573 0.956 1_565 S
H1581 C1573 0.960 . S
H1582 C1574 0.930 . S
H1583 C1575 0.929 . S
H1584 C1592 0.929 . S
H1585 C1594 0.930 . S
H1586 C1596 0.930 . S
H1587 C1599 0.929 . S
H1588 C1602 0.930 . S
H1589 C1604 0.960 . S
H1590 C1604 0.960 . S
H1591 C1604 0.960 . S
C1592 H1584 0.929 . S
C1592 C1593 1.377 . S
C1592 C1594 1.384 . S
C1593 C1592 1.377 . S
C1593 C1599 1.390 . S
C1594 H1585 0.930 . S
C1594 C1592 1.384 . S
C1594 C1595 1.372 . S
C1595 C1594 1.372 . S
C1595 C1596 1.400 . S
C1595 C1600 1.490 . S
C1596 H1586 0.930 . S
C1596 C1595 1.400 . S
C1596 C1599 1.386 . S
H1597 C1613 0.930 . S
H1598 C1614 0.931 . S
C1599 H1587 0.929 . S
C1599 C1593 1.390 . S
C1599 C1596 1.386 . S
C1600 C1595 1.490 . S
C1600 C1602 1.395 . S
C1600 C1603 1.403 . S
H1601 C1607 0.930 . S
C1602 H1588 0.930 . S
C1602 C1600 1.395 . S
C1602 C1605 1.403 1_556 S
C1603 C1600 1.403 . S
C1603 C1604 1.524 . S
C1603 C1607 1.400 1_556 S
C1604 H1589 0.960 . S
C1604 H1590 0.960 . S
C1604 H1591 0.960 . S
C1604 C1603 1.524 . S
C1605 C1602 1.403 1_554 S
C1605 C1606 1.392 . S
C1605 C1609 1.495 . S
C1606 C1605 1.392 . S
C1606 C1607 1.385 . S
C1606 C1608 1.478 . S
C1607 H1601 0.930 . S
C1607 C1603 1.400 1_554 S
C1607 C1606 1.385 . S
C1608 C1606 1.478 . S
C1608 C1610 1.381 . S
C1608 C1614 1.383 . S
C1609 C1605 1.495 . S
C1609 H1615 0.959 . S
C1609 H1616 0.961 . S
C1609 H1617 0.960 . S
C1610 C1608 1.381 . S
C1610 C1611 1.394 . S
C1610 H1618 0.930 . S
C1611 C1610 1.394 . S
C1611 C1612 1.383 . S
C1611 H1619 0.929 . S
C1612 C1611 1.383 . S
C1612 C1613 1.377 . S
C1613 H1597 0.930 . S
C1613 C1612 1.377 . S
C1613 C1614 1.379 . S
C1614 H1598 0.931 . S
C1614 C1608 1.383 . S
C1614 C1613 1.379 . S
H1615 C1609 0.959 . S
H1616 C1609 0.961 . S
H1617 C1609 0.960 . S
H1618 C1610 0.930 . S
H1619 C1611 0.929 . S
H1620 C1628 0.929 . S
H1621 C1630 0.930 . S
H1622 C1632 0.930 . S
H1623 C1635 0.929 . S
H1624 C1638 0.930 . S
H1625 C1640 0.960 . S
H1626 C1640 0.960 . S
H1627 C1640 0.960 . S
C1628 H1620 0.929 . S
C1628 C1629 1.377 . S
C1628 C1630 1.384 . S
C1629 C1628 1.377 . S
C1629 C1635 1.390 . S
C1630 H1621 0.930 . S
C1630 C1628 1.384 . S
C1630 C1631 1.372 . S
C1631 C1630 1.372 . S
C1631 C1632 1.400 . S
C1631 C1636 1.490 . S
C1632 H1622 0.930 . S
C1632 C1631 1.400 . S
C1632 C1635 1.386 . S
H1633 C1649 0.930 . S
H1634 C1650 0.931 . S
C1635 H1623 0.929 . S
C1635 C1629 1.390 . S
C1635 C1632 1.386 . S
C1636 C1631 1.490 . S
C1636 C1638 1.395 . S
C1636 C1639 1.403 . S
H1637 C1643 0.930 . S
C1638 H1624 0.930 . S
C1638 C1636 1.395 . S
C1638 C1641 1.403 . S
C1639 C1636 1.403 . S
C1639 C1640 1.524 . S
C1639 C1643 1.400 . S
C1640 H1625 0.960 . S
C1640 H1626 0.960 . S
C1640 H1627 0.960 . S
C1640 C1639 1.524 . S
C1641 C1638 1.403 . S
C1641 C1642 1.392 . S
C1641 C1645 1.495 . S
C1642 C1641 1.392 . S
C1642 C1643 1.385 . S
C1642 C1644 1.478 . S
C1643 H1637 0.930 . S
C1643 C1639 1.400 . S
C1643 C1642 1.385 . S
C1644 C1642 1.478 . S
C1644 C1646 1.381 . S
C1644 C1650 1.383 . S
C1645 C1641 1.495 . S
C1645 H1651 0.959 . S
C1645 H1652 0.961 . S
C1645 H1653 0.960 . S
C1646 C1644 1.381 . S
C1646 C1647 1.394 . S
C1646 H1654 0.930 . S
C1647 C1646 1.394 . S
C1647 C1648 1.383 . S
C1647 H1655 0.929 . S
C1648 C1647 1.383 . S
C1648 C1649 1.377 . S
C1649 H1633 0.930 . S
C1649 C1648 1.377 . S
C1649 C1650 1.379 . S
C1650 H1634 0.931 . S
C1650 C1644 1.383 . S
C1650 C1649 1.379 . S
H1651 C1645 0.959 . S
H1652 C1645 0.961 . S
H1653 C1645 0.960 . S
H1654 C1646 0.930 . S
H1655 C1647 0.929 . S
H1656 C1664 0.929 . S
H1657 C1666 0.930 . S
H1658 C1668 0.930 . S
H1659 C1671 0.929 . S
H1660 C1674 0.930 . S
H1661 C1676 0.960 . S
H1662 C1676 0.960 . S
H1663 C1676 0.960 1_455 S
C1664 H1656 0.929 . S
C1664 C1665 1.377 1_655 S
C1664 C1666 1.384 . S
C1665 C1664 1.377 1_455 S
C1665 C1671 1.390 . S
C1666 H1657 0.930 . S
C1666 C1664 1.384 . S
C1666 C1667 1.372 1_655 S
C1667 C1666 1.372 1_455 S
C1667 C1668 1.400 . S
C1667 C1672 1.490 . S
C1668 H1658 0.930 . S
C1668 C1667 1.400 . S
C1668 C1671 1.386 . S
H1669 C1685 0.930 . S
H1670 C1686 0.931 . S
C1671 H1659 0.929 . S
C1671 C1665 1.390 . S
C1671 C1668 1.386 . S
C1672 C1667 1.490 . S
C1672 C1674 1.395 . S
C1672 C1675 1.403 . S
H1673 C1679 0.930 1_655 S
C1674 H1660 0.930 . S
C1674 C1672 1.395 . S
C1674 C1677 1.403 1_554 S
C1675 C1672 1.403 . S
C1675 C1676 1.524 1_455 S
C1675 C1679 1.400 1_554 S
C1676 H1661 0.960 . S
C1676 H1662 0.960 . S
C1676 H1663 0.960 1_655 S
C1676 C1675 1.524 1_655 S
C1677 C1674 1.403 1_556 S
C1677 C1678 1.392 . S
C1677 C1681 1.495 . S
C1678 C1677 1.392 . S
C1678 C1679 1.385 . S
C1678 C1680 1.478 . S
C1679 H1673 0.930 1_455 S
C1679 C1675 1.400 1_556 S
C1679 C1678 1.385 . S
C1680 C1678 1.478 . S
C1680 C1682 1.381 1_455 S
C1680 C1686 1.383 . S
C1681 C1677 1.495 . S
C1681 H1687 0.959 . S
C1681 H1688 0.961 . S
C1681 H1689 0.960 . S
C1682 C1680 1.381 1_655 S
C1682 C1683 1.394 . S
C1682 H1690 0.930 . S
C1683 C1682 1.394 . S
C1683 C1684 1.383 1_655 S
C1683 H1691 0.929 . S
C1684 C1683 1.383 1_455 S
C1684 C1685 1.377 . S
C1685 H1669 0.930 . S
C1685 C1684 1.377 . S
C1685 C1686 1.379 . S
C1686 H1670 0.931 . S
C1686 C1680 1.383 . S
C1686 C1685 1.379 . S
H1687 C1681 0.959 . S
H1688 C1681 0.961 . S
H1689 C1681 0.960 . S
H1690 C1682 0.930 . S
H1691 C1683 0.929 . S
H1692 C1700 0.929 1_565 S
H1693 C1702 0.930 1_565 S
H1694 C1704 0.930 . S
H1695 C1707 0.929 . S
H1696 C1710 0.930 . S
H1697 C1712 0.960 . S
H1698 C1712 0.960 . S
H1699 C1712 0.960 . S
C1700 H1692 0.929 1_545 S
C1700 C1701 1.377 . S
C1700 C1702 1.384 . S
C1701 C1700 1.377 . S
C1701 C1707 1.390 . S
C1702 H1693 0.930 1_545 S
C1702 C1700 1.384 . S
C1702 C1703 1.372 . S
C1703 C1702 1.372 . S
C1703 C1704 1.400 . S
C1703 C1708 1.490 . S
C1704 H1694 0.930 . S
C1704 C1703 1.400 . S
C1704 C1707 1.386 . S
H1705 C1721 0.930 . S
H1706 C1722 0.931 . S
C1707 H1695 0.929 . S
C1707 C1701 1.390 . S
C1707 C1704 1.386 . S
C1708 C1703 1.490 . S
C1708 C1710 1.395 1_545 S
C1708 C1711 1.403 . S
H1709 C1715 0.930 . S
C1710 H1696 0.930 . S
C1710 C1708 1.395 1_565 S
C1710 C1713 1.403 . S
C1711 C1708 1.403 . S
C1711 C1712 1.524 . S
C1711 C1715 1.400 . S
C1712 H1697 0.960 . S
C1712 H1698 0.960 . S
C1712 H1699 0.960 . S
C1712 C1711 1.524 . S
C1713 C1710 1.403 . S
C1713 C1714 1.392 1_565 S
C1713 C1717 1.495 . S
C1714 C1713 1.392 1_545 S
C1714 C1715 1.385 . S
C1714 C1716 1.478 . S
C1715 H1709 0.930 . S
C1715 C1711 1.400 . S
C1715 C1714 1.385 . S
C1716 C1714 1.478 . S
C1716 C1718 1.374 1_545 S
C1716 C1722 1.383 . S
C1717 C1713 1.495 . S
C1717 H1723 0.959 . S
C1717 H1724 0.961 . S
C1717 H1725 0.960 . S
C1718 C1716 1.374 1_565 S
C1718 C1719 1.391 1_565 S
C1718 H1726 0.941 . S
C1719 C1718 1.391 1_545 S
C1719 C1720 1.394 . S
C1719 H1727 0.923 1_545 S
C1720 C1719 1.394 . S
C1720 C1721 1.377 . S
C1721 H1705 0.930 . S
C1721 C1720 1.377 . S
C1721 C1722 1.379 . S
C1722 H1706 0.931 . S
C1722 C1716 1.383 . S
C1722 C1721 1.379 . S
H1723 C1717 0.959 . S
H1724 C1717 0.961 . S
H1725 C1717 0.960 . S
H1726 C1718 0.941 . S
H1727 C1719 0.923 1_565 S
C585 C3 1.207 . S
C604 C255 1.202 . S
C621 C39 1.207 . S
C640 C147 1.196 . S
C657 C75 1.205 . S
C676 C183 1.212 . S
C693 C111 1.205 . S
C712 C219 1.196 . S
C729 C291 1.205 . S
C748 C543 1.211 . S
C765 C435 1.205 . S
C784 C327 1.212 . S
C801 C363 1.206 . S
C820 C471 1.196 . S
C837 C399 1.204 . S
C856 C507 1.210 . S
C873 C4 1.364 . S
C892 C326 1.392 . S
C909 C40 1.367 . S
C928 C362 1.396 . S
C945 C398 1.405 . S
C964 C76 1.386 . S
C981 C112 1.362 . S
C1000 C290 1.391 . S
C1017 C148 1.359 . S
C1036 C542 1.392 . S
C1053 C434 1.402 . S
C1072 C184 1.368 . S
C1089 C470 1.404 . S
C1108 C220 1.388 . S
C1125 C506 1.401 . S
C1144 C256 1.350 . S
C1161 C38 1.405 . S
C1180 C292 1.336 . S
C1197 C74 1.405 . S
C1216 C328 1.334 . S
C1233 C364 1.361 . S
C1252 C110 1.406 . S
C1269 C2 1.402 . S
C1288 C400 1.385 . S
C1305 C436 1.368 . S
C1324 C254 1.392 . S
C1341 C472 1.359 . S
C1360 C146 1.408 . S
C1377 C182 1.405 . S
C1396 C508 1.344 . S
C1413 C218 1.403 . S
C1432 C544 1.374 . S
C1449 C14 1.515 . S
C1468 C158 1.508 . S
C1485 C194 1.513 . S
C1504 C50 1.484 . S
C1521 C86 1.514 . S
C1540 C230 1.492 . S
C1557 C266 1.514 . S
C1576 C122 1.523 . S
C1593 C302 1.510 . S
C1612 C446 1.516 . S
C1629 C482 1.504 . S
C1648 C338 1.535 . S
C1665 C518 1.514 . S
C1684 C374 1.486 . S
C1701 C554 1.504 . S
C1720 C410 1.535 . S
