# Generated by pormake.
# Topology umf, (4)-cn, num edge types: 1
# Building blocks:
#     Node 0, Type 0, BuildingBlock: MUDLON_clean_sbu_0, # of connection points: 4
#     Node 1, Type 0, BuildingBlock: MUDLON_clean_sbu_0, # of connection points: 4
#     Node 2, Type 0, BuildingBlock: MUDLON_clean_sbu_0, # of connection points: 4
#     Node 3, Type 0, BuildingBlock: MUDLON_clean_sbu_0, # of connection points: 4
#     Node 4, Type 0, BuildingBlock: MUDLON_clean_sbu_0, # of connection points: 4
#     Node 5, Type 0, BuildingBlock: MUDLON_clean_sbu_0, # of connection points: 4
#     Node 6, Type 0, BuildingBlock: MUDLON_clean_sbu_0, # of connection points: 4
#     Node 7, Type 0, BuildingBlock: MUDLON_clean_sbu_0, # of connection points: 4
#     Edge 8, Type (0, 0), BuildingBlock: TEMPAE_clean_linker_10, # of connection points: 2
#     Edge 9, Type (0, 0), BuildingBlock: TEMPAE_clean_linker_10, # of connection points: 2
#     Edge 10, Type (0, 0), BuildingBlock: TEMPAE_clean_linker_10, # of connection points: 2
#     Edge 11, Type (0, 0), BuildingBlock: TEMPAE_clean_linker_10, # of connection points: 2
#     Edge 12, Type (0, 0), BuildingBlock: TEMPAE_clean_linker_10, # of connection points: 2
#     Edge 13, Type (0, 0), BuildingBlock: TEMPAE_clean_linker_10, # of connection points: 2
#     Edge 14, Type (0, 0), BuildingBlock: TEMPAE_clean_linker_10, # of connection points: 2
#     Edge 15, Type (0, 0), BuildingBlock: TEMPAE_clean_linker_10, # of connection points: 2
#     Edge 16, Type (0, 0), BuildingBlock: TEMPAE_clean_linker_10, # of connection points: 2
#     Edge 17, Type (0, 0), BuildingBlock: TEMPAE_clean_linker_10, # of connection points: 2
#     Edge 18, Type (0, 0), BuildingBlock: TEMPAE_clean_linker_10, # of connection points: 2
#     Edge 19, Type (0, 0), BuildingBlock: TEMPAE_clean_linker_10, # of connection points: 2
#     Edge 20, Type (0, 0), BuildingBlock: TEMPAE_clean_linker_10, # of connection points: 2
#     Edge 21, Type (0, 0), BuildingBlock: TEMPAE_clean_linker_10, # of connection points: 2
#     Edge 22, Type (0, 0), BuildingBlock: TEMPAE_clean_linker_10, # of connection points: 2
#     Edge 23, Type (0, 0), BuildingBlock: TEMPAE_clean_linker_10, # of connection points: 2
# Relax obj value: 0.092
# Max RMSD: 0.171
# Mean RMSD: 0.171
data_MOF--net-umf--node1-MUDLON_clean_sbu_0--edge1-TEMPAE_clean_linker_10
_symmetry_space_group_name_H-M    P1
_symmetry_Int_Tables_number       1
_symmetry_cell_setting            triclinic
loop_
_symmetry_equiv_pos_as_xyz
'x, y, z'
_cell_length_a     29.845592
_cell_length_b     30.005254
_cell_length_c     56.833986
_cell_angle_alpha  89.895681
_cell_angle_beta   89.98983
_cell_angle_gamma 89.942316
loop_
_atom_site_label
_atom_site_type_symbol
_atom_site_fract_x
_atom_site_fract_y
_atom_site_fract_z
_atom_type_partial_charge
Mg0 Mg 0.04274 0.23181 0.16571 0.0
C1 C 0.01147 0.21143 0.11668 0.0
O2 O 0.9817 0.1904 0.1296 0.0
C3 C 0.11411 0.25211 0.20181 0.0
O4 O 0.08801 0.28691 0.20479 0.0
C5 C 0.99778 0.32115 0.16113 0.0
O6 O 0.99833 0.30878 0.13898 0.0
O7 O 0.01126 0.29387 0.17676 0.0
O8 O 0.04389 0.23106 0.12698 0.0
O9 O 0.01006 0.17066 0.17701 0.0
C10 C 0.02197 0.15309 0.19644 0.0
O11 O 0.04566 0.17684 0.21128 0.0
O12 O 0.10677 0.22643 0.18439 0.0
Mg13 Mg 0.74183 0.07372 0.65593 0.0
C14 C 0.77963 0.08266 0.60527 0.0
O15 O 0.81874 0.08153 0.61586 0.0
C16 C 0.74145 0.11464 0.70192 0.0
O17 O 0.72439 0.07452 0.7043 0.0
C18 C 0.64389 0.07474 0.65982 0.0
O19 O 0.65422 0.11619 0.65467 0.0
O20 O 0.67548 0.04661 0.66225 0.0
O21 O 0.74415 0.08446 0.61771 0.0
O22 O 0.79662 0.02983 0.66544 0.0
C23 C 0.81384 0.00054 0.6521 0.0
O24 O 0.79425 0.99114 0.63201 0.0
O25 O 0.75114 0.12796 0.68121 0.0
Mg26 Mg 0.98606 0.74562 0.16752 0.0
C27 C 0.01508 0.72746 0.11873 0.0
O28 O 0.04265 0.70397 0.13184 0.0
C29 C 0.94076 0.76801 0.2104 0.0
O30 O 0.9822 0.75723 0.21575 0.0
C31 C 0.96824 0.65203 0.18111 0.0
O32 O 0.92802 0.66987 0.18141 0.0
O33 O 0.00166 0.67693 0.17661 0.0
O34 O 0.98417 0.74964 0.1289 0.0
O35 O 0.03244 0.79584 0.18008 0.0
C36 C 0.04249 0.82837 0.16676 0.0
O37 O 0.035 0.82497 0.14407 0.0
O38 O 0.92821 0.76463 0.18902 0.0
Mg39 Mg 0.23623 0.92926 0.65363 0.0
C40 C 0.21276 0.94954 0.60447 0.0
O41 O 0.19473 0.98187 0.61683 0.0
C42 C 0.25431 0.88919 0.69954 0.0
O43 O 0.26594 0.93126 0.7014 0.0
C44 C 0.32691 0.96459 0.64499 0.0
O45 O 0.32177 0.93502 0.62819 0.0
O46 O 0.29442 0.97181 0.65898 0.0
O47 O 0.23284 0.91815 0.6154 0.0
O48 O 0.17118 0.95764 0.66236 0.0
C49 C 0.14141 0.92858 0.66706 0.0
O50 O 0.15314 0.88639 0.66768 0.0
O51 O 0.24267 0.87488 0.67932 0.0
Mg52 Mg 0.085 0.74213 0.89268 0.0
C53 C 0.06001 0.73002 0.94194 0.0
O54 O 0.02343 0.72374 0.92957 0.0
C55 C 0.12099 0.76877 0.84783 0.0
O56 O 0.07709 0.76853 0.84605 0.0
C57 C 0.01947 0.66357 0.88143 0.0
O58 O 0.98685 0.69082 0.88726 0.0
O59 O 0.05972 0.67734 0.8817 0.0
O60 O 0.09632 0.73843 0.93094 0.0
O61 O 0.04138 0.79979 0.88897 0.0
C62 C 0.05717 0.83302 0.9001 0.0
O63 O 0.09381 0.82744 0.91258 0.0
O64 O 0.13848 0.75752 0.86746 0.0
Mg65 Mg 0.24212 0.04547 0.38186 0.0
C66 C 0.22131 0.00598 0.42874 0.0
O67 O 0.21327 0.97301 0.41415 0.0
C68 C 0.25474 0.12356 0.34808 0.0
O69 O 0.29522 0.10668 0.34654 0.0
C70 C 0.33231 0.0139 0.35813 0.0
O71 O 0.30973 0.00881 0.33848 0.0
O72 O 0.31189 0.02615 0.37667 0.0
O73 O 0.23314 0.04354 0.42022 0.0
O74 O 0.18863 0.00401 0.36761 0.0
C75 C 0.17036 0.01578 0.34832 0.0
O76 O 0.19187 0.04364 0.33453 0.0
O77 O 0.22835 0.10872 0.36388 0.0
Mg78 Mg 0.93685 0.24508 0.8917 0.0
C79 C 0.96305 0.23481 0.94054 0.0
O80 O 0.999 0.22801 0.92768 0.0
C81 C 0.89816 0.22518 0.84634 0.0
O82 O 0.94184 0.22097 0.84444 0.0
C83 C 0.95607 0.33475 0.86936 0.0
O84 O 0.92127 0.32284 0.85673 0.0
O85 O 0.97201 0.3074 0.88435 0.0
O86 O 0.92648 0.24446 0.93003 0.0
O87 O 0.97262 0.18254 0.88655 0.0
C88 C 0.94708 0.15021 0.89211 0.0
O89 O 0.90634 0.15936 0.89946 0.0
O90 O 0.88213 0.23762 0.8661 0.0
Mg91 Mg 0.76055 0.9654 0.38465 0.0
C92 C 0.75722 0.00623 0.43169 0.0
O93 O 0.74415 0.03763 0.41706 0.0
C94 C 0.77262 0.91631 0.34257 0.0
O95 O 0.75347 0.95467 0.33765 0.0
C96 C 0.67063 0.01066 0.36834 0.0
O97 O 0.69432 0.04658 0.3639 0.0
O98 O 0.69 0.97614 0.37642 0.0
O99 O 0.76716 0.96813 0.4232 0.0
O100 O 0.8106 0.00943 0.36909 0.0
C101 C 0.84506 0.01893 0.38125 0.0
O102 O 0.84451 0.01096 0.40396 0.0
O103 O 0.77875 0.90645 0.3642 0.0
C104 C 0.99664 0.38459 0.18987 0.0
C105 C 0.9883 0.36827 0.16716 0.0
C106 C 0.99292 0.43032 0.19486 0.0
C107 C 0.98056 0.4603 0.17672 0.0
C108 C 0.97058 0.44378 0.15401 0.0
C109 C 0.97451 0.39802 0.14952 0.0
C110 C 0.00354 0.44671 0.21933 0.0
C111 C 0.95701 0.47462 0.1342 0.0
C112 C 0.93604 0.5765 0.18864 0.0
C113 C 0.9733 0.60303 0.18307 0.0
C114 C 0.9385 0.52984 0.18776 0.0
C115 C 0.97916 0.50918 0.18107 0.0
C116 C 0.0175 0.53567 0.17654 0.0
C117 C 0.01414 0.58232 0.17764 0.0
C118 C 0.89698 0.50278 0.19287 0.0
C119 C 0.0615 0.51483 0.1694 0.0
H120 H 0.00739 0.36186 0.2036 0.0
H121 H 0.96784 0.38574 0.13195 0.0
H122 H 0.03366 0.46832 0.21878 0.0
H123 H 0.97549 0.46725 0.22616 0.0
H124 H 0.00988 0.41889 0.23182 0.0
H125 H 0.94896 0.4563 0.11777 0.0
H126 H 0.92729 0.49453 0.13941 0.0
H127 H 0.98456 0.49839 0.13043 0.0
H128 H 0.90442 0.5922 0.19305 0.0
H129 H 0.04309 0.60254 0.17336 0.0
H130 H 0.90465 0.47566 0.20553 0.0
H131 H 0.88499 0.48691 0.17642 0.0
H132 H 0.86942 0.52351 0.20015 0.0
H133 H 0.07112 0.48827 0.18203 0.0
H134 H 0.08903 0.53967 0.16845 0.0
H135 H 0.05788 0.49901 0.15187 0.0
C136 C 0.40274 0.98477 0.63016 0.0
C137 C 0.37121 0.98568 0.64844 0.0
C138 C 0.44629 0.00102 0.63343 0.0
C139 C 0.4589 0.01817 0.65564 0.0
C140 C 0.42703 0.01996 0.67409 0.0
C141 C 0.38336 0.00393 0.67022 0.0
C142 C 0.47903 -0.00082 0.61317 0.0
C143 C 0.43938 0.03774 0.69805 0.0
C144 C 0.58445 0.01704 0.66673 0.0
C145 C 0.59625 0.06095 0.66097 0.0
C146 C 0.53952 0.00313 0.6661 0.0
C147 C 0.50569 0.03377 0.65936 0.0
C148 C 0.51724 0.07849 0.65431 0.0
C149 C 0.56232 0.09156 0.65526 0.0
C150 C 0.52843 0.95525 0.67184 0.0
C151 C 0.48224 0.1121 0.64691 0.0
H152 H 0.39347 0.97094 0.61323 0.0
H153 H 0.35921 0.00441 0.68447 0.0
H154 H 0.49259 0.03292 0.60955 0.0
H155 H 0.50778 0.97744 0.61784 0.0
H156 H 0.46346 0.98622 0.5968 0.0
H157 H 0.4104 0.03809 0.71032 0.0
H158 H 0.46633 0.0169 0.70583 0.0
H159 H 0.4527 0.07212 0.69646 0.0
H160 H 0.6104 0.99327 0.67132 0.0
H161 H 0.57104 0.12562 0.65085 0.0
H162 H 0.51635 0.93813 0.65576 0.0
H163 H 0.50106 0.9537 0.68503 0.0
H164 H 0.55785 0.93671 0.67877 0.0
H165 H 0.46798 0.10235 0.62964 0.0
H166 H 0.49618 0.14629 0.64533 0.0
H167 H 0.45426 0.11267 0.65975 0.0
C168 C 0.99531 0.39996 0.88754 0.0
C169 C 0.97157 0.38166 0.86859 0.0
C170 C 0.00452 0.44585 0.88849 0.0
C171 C 0.99029 0.47396 0.86987 0.0
C172 C 0.96825 0.45529 0.85017 0.0
C173 C 0.95885 0.40945 0.84985 0.0
C174 C 0.02783 0.46451 0.90989 0.0
C175 C 0.95334 0.48396 0.82975 0.0
C176 C 0.97011 0.59623 0.88406 0.0
C177 C 0.01045 0.61579 0.87678 0.0
C178 C 0.96299 0.55016 0.88172 0.0
C179 C 0.99672 0.52311 0.87151 0.0
C180 C 0.03689 0.54292 0.86341 0.0
C181 C 0.04341 0.58893 0.8663 0.0
C182 C 0.91984 0.53024 0.89077 0.0
C183 C 0.07329 0.51539 0.85204 0.0
H184 H 0.00502 0.37877 0.90214 0.0
H185 H 0.9407 0.39549 0.83508 0.0
H186 H 0.05785 0.48379 0.90454 0.0
H187 H 0.00502 0.48782 0.91918 0.0
H188 H 0.03835 0.43802 0.92241 0.0
H189 H 0.93988 0.46385 0.81496 0.0
H190 H 0.92689 0.50741 0.83567 0.0
H191 H 0.98175 0.50429 0.82317 0.0
H192 H 0.9446 0.61669 0.89228 0.0
H193 H 0.07459 0.60385 0.8605 0.0
H194 H 0.92727 0.50565 0.90484 0.0
H195 H 0.90245 0.51214 0.87643 0.0
H196 H 0.89671 0.55588 0.89794 0.0
H197 H 0.08673 0.49096 0.86491 0.0
H198 H 0.10143 0.53622 0.84549 0.0
H199 H 0.05936 0.49615 0.83708 0.0
C200 C 0.40565 0.01926 0.37932 0.0
C201 C 0.38202 0.01035 0.35848 0.0
C202 C 0.45264 0.01893 0.37987 0.0
C203 C 0.47691 0.00923 0.3591 0.0
C204 C 0.4534 -0.00048 0.33807 0.0
C205 C 0.40622 0.00027 0.33799 0.0
C206 C 0.47634 0.0294 0.40269 0.0
C207 C 0.47811 0.9887 0.31562 0.0
C208 C 0.59819 0.04875 0.35783 0.0
C209 C 0.62132 0.01007 0.3646 0.0
C210 C 0.55128 0.04869 0.35534 0.0
C211 C 0.52691 0.00898 0.35965 0.0
C212 C 0.55018 0.96959 0.36589 0.0
C213 C 0.59698 0.97062 0.36832 0.0
C214 C 0.52767 0.09141 0.3487 0.0
C215 C 0.52554 0.92654 0.37059 0.0
H216 H 0.38741 0.02713 0.39528 0.0
H217 H 0.38836 0.99339 0.32181 0.0
H218 H 0.4981 0.00105 0.40788 0.0
H219 H 0.49831 0.05889 0.40032 0.0
H220 H 0.45258 0.0363 0.41728 0.0
H221 H 0.45497 0.98132 0.30082 0.0
H222 H 0.49981 0.01712 0.31052 0.0
H223 H 0.5003 0.95948 0.31841 0.0
H224 H 0.61663 0.07935 0.35487 0.0
H225 H 0.61445 0.94043 0.37342 0.0
H226 H 0.50563 0.10217 0.36335 0.0
H227 H 0.50598 0.08594 0.33312 0.0
H228 H 0.55154 0.11878 0.34468 0.0
H229 H 0.50352 0.9305 0.38618 0.0
H230 H 0.54872 0.89821 0.37387 0.0
H231 H 0.50371 0.9181 0.35544 0.0
C232 C 0.00218 0.20586 0.97616 0.0
C233 C 0.96667 0.23066 0.96654 0.0
C234 C 0.00872 0.20285 1.00055 0.0
C235 C 0.97948 0.22582 1.01593 0.0
C236 C 0.94326 0.25072 1.00641 0.0
C237 C 0.93701 0.25251 0.9818 0.0
C238 C 0.04714 0.17512 1.00985 0.0
C239 C 0.91163 0.27606 0.0222 0.0
C240 C 0.97505 0.18541 0.07949 0.0
C241 C 0.00463 0.21476 0.0908 0.0
C242 C 0.96622 0.18895 0.05527 0.0
C243 C 0.98689 0.22314 0.04195 0.0
C244 C 0.01655 0.25314 0.05328 0.0
C245 C 0.02536 0.24837 0.07752 0.0
C246 C 0.93516 0.15566 0.04386 0.0
C247 C 0.03897 0.29032 0.03979 0.0
H248 H 0.02508 0.18851 0.96452 0.0
H249 H 0.9097 0.27194 0.9745 0.0
H250 H 0.07058 0.19649 1.01992 0.0
H251 H 0.03435 0.14929 0.02212 0.0
H252 H 0.06615 0.15837 0.99557 0.0
H253 H 0.88528 0.29398 1.01212 0.0
H254 H 0.8952 0.25287 0.03473 0.0
H255 H 0.93067 0.30064 0.03279 0.0
H256 H 0.95889 0.15929 0.08958 0.0
H257 H 0.04784 0.27151 0.08615 0.0
H258 H 0.95343 0.13691 0.03004 0.0
H259 H 0.90698 0.17324 0.03513 0.0
H260 H 0.9212 0.13146 0.05673 0.0
H261 H 0.0611 0.27617 0.02601 0.0
H262 H 0.05933 0.31218 0.05135 0.0
H263 H 0.01335 0.31098 0.03074 0.0
C264 C 0.73514 0.06463 0.56894 0.0
C265 C 0.77658 0.07432 0.57946 0.0
C266 C 0.73223 0.05246 0.54508 0.0
C267 C 0.77163 0.05033 0.53121 0.0
C268 C 0.81346 0.06082 0.5416 0.0
C269 C 0.81546 0.07247 0.56557 0.0
C270 C 0.68697 0.04141 0.53478 0.0
C271 C 0.8562 0.05958 0.52741 0.0
C272 C 0.76949 0.9832 0.47402 0.0
C273 C 0.76168 0.01664 0.45722 0.0
C274 C 0.77286 0.99358 0.49816 0.0
C275 C 0.76882 0.0385 0.50566 0.0
C276 C 0.76149 0.07234 0.48872 0.0
C277 C 0.75781 0.06102 0.46484 0.0
C278 C 0.78033 0.95646 0.51567 0.0
C279 C 0.75744 0.12067 0.49583 0.0
H280 H 0.70489 0.06556 0.57949 0.0
H281 H 0.84767 0.07974 0.57348 0.0
H282 H 0.67932 0.06435 0.51999 0.0
H283 H 0.68734 0.00708 0.52755 0.0
H284 H 0.65962 0.04388 0.54798 0.0
H285 H 0.88601 0.06885 0.53802 0.0
H286 H 0.86147 0.02567 0.52016 0.0
H287 H 0.85362 0.08278 0.51224 0.0
H288 H 0.77248 0.94886 0.46834 0.0
H289 H 0.75205 0.08725 0.45206 0.0
H290 H 0.75229 0.95558 0.52849 0.0
H291 H 0.8115 0.96261 0.52579 0.0
H292 H 0.78292 0.92334 0.50707 0.0
H293 H 0.72854 0.12501 0.50789 0.0
H294 H 0.75281 0.14314 0.48046 0.0
H295 H 0.7879 0.13119 0.50552 0.0
C296 C 0.0021 0.76189 0.07876 0.0
C297 C 0.02185 0.72875 0.09279 0.0
C298 C 0.0103 0.76382 0.05434 0.0
C299 C 0.03835 0.73147 0.04363 0.0
C300 C 0.05816 0.69789 0.05773 0.0
C301 C 0.04991 0.69712 0.08207 0.0
C302 C 0.98883 0.80039 0.03997 0.0
C303 C 0.08755 0.66224 0.04707 0.0
C304 C 0.02075 0.70676 0.97867 0.0
C305 C 0.057 0.72879 0.96804 0.0
C306 C 0.01455 0.70727 1.00314 0.0
C307 C 0.04496 0.73097 1.01753 0.0
C308 C 0.08189 0.75312 1.00697 0.0
C309 C 0.08771 0.75145 0.98234 0.0
C310 C 0.97526 0.68242 1.01358 0.0
C311 C 0.11481 0.77911 1.02167 0.0
H312 H 0.98073 0.78668 0.0869 0.0
H313 H 0.06528 0.67128 0.0927 0.0
H314 H 0.01485 0.81893 0.03003 0.0
H315 H 0.96558 0.7857 0.02688 0.0
H316 H 0.96983 0.82431 0.05105 0.0
H317 H 0.10124 0.63901 0.06051 0.0
H318 H 0.06805 0.64267 0.03408 0.0
H319 H 0.11594 0.67773 0.03748 0.0
H320 H 0.99695 0.68895 0.96777 0.0
H321 H 0.11552 0.7689 0.97424 0.0
H322 H 0.95312 0.70591 0.02316 0.0
H323 H 0.98734 0.65741 0.02652 0.0
H324 H 0.95507 0.66501 1.0 0.0
H325 H 0.09693 0.80556 0.03156 0.0
H326 H 0.14146 0.79484 1.01083 0.0
H327 H 0.13081 0.75684 0.03482 0.0
C328 C 0.19668 0.95987 0.46311 0.0
C329 C 0.21884 0.99786 0.45454 0.0
C330 C 0.19546 0.95 0.48728 0.0
C331 C 0.21749 0.97842 0.50341 0.0
C332 C 0.24002 0.01683 0.49489 0.0
C333 C 0.24011 0.02629 0.47059 0.0
C334 C 0.1703 0.90925 0.49558 0.0
C335 C 0.26425 0.0478 0.51146 0.0
C336 C 0.17979 0.9796 0.56737 0.0
C337 C 0.21227 0.95288 0.57839 0.0
C338 C 0.18074 0.9875 0.54302 0.0
C339 C 0.21548 0.96883 0.52923 0.0
C340 C 0.24802 0.94115 0.54016 0.0
C341 C 0.24582 0.93319 0.5646 0.0
C342 C 0.14483 0.01642 0.53211 0.0
C343 C 0.28581 0.92093 0.52612 0.0
H344 H 0.17999 0.93774 0.45088 0.0
H345 H 0.25762 0.05548 0.46412 0.0
H346 H 0.19323 0.88662 0.50526 0.0
H347 H 0.14339 0.91921 0.50799 0.0
H348 H 0.15494 0.8905 0.48081 0.0
H349 H 0.2814 0.0754 0.50204 0.0
H350 H 0.24019 0.06235 0.5242 0.0
H351 H 0.28952 0.0289 0.52176 0.0
H352 H 0.15363 0.99481 0.57789 0.0
H353 H 0.27128 0.91292 0.57303 0.0
H354 H 0.12787 0.99815 0.51769 0.0
H355 H 0.1602 0.04664 0.52427 0.0
H356 H 0.11917 0.02702 0.54512 0.0
H357 H 0.27217 0.90035 0.51161 0.0
H358 H 0.30811 0.89979 0.53713 0.0
H359 H 0.30615 0.94779 0.51798 0.0
C360 C 0.15304 0.26668 0.24006 0.0
C361 C 0.14308 0.23723 0.22162 0.0
C362 C 0.1736 0.25161 0.26087 0.0
C363 C 0.18417 0.20585 0.26345 0.0
C364 C 0.17572 0.17622 0.24456 0.0
C365 C 0.1556 0.19231 0.22383 0.0
C366 C 0.18236 0.28438 0.28045 0.0
C367 C 0.18609 0.12709 0.24663 0.0
C368 C 0.26587 0.16682 0.31074 0.0
C369 C 0.23682 0.15051 0.32818 0.0
C370 C 0.24925 0.18595 0.28988 0.0
C371 C 0.20239 0.18863 0.28623 0.0
C372 C 0.17286 0.17364 0.30411 0.0
C373 C 0.19041 0.15506 0.3249 0.0
C374 C 0.28187 0.20183 0.27139 0.0
C375 C 0.12267 0.17557 0.3009 0.0
H376 H 0.14348 0.30143 0.23854 0.0
H377 H 0.14766 0.16916 0.20982 0.0
H378 H 0.1611 0.27602 0.29586 0.0
H379 H 0.21778 0.28218 0.28626 0.0
H380 H 0.17516 0.31928 0.27509 0.0
H381 H 0.17951 0.10886 0.22999 0.0
H382 H 0.22169 0.12215 0.25161 0.0
H383 H 0.16528 0.11209 0.26075 0.0
H384 H 0.30176 0.16346 0.31308 0.0
H385 H 0.1676 0.14224 0.33812 0.0
H386 H 0.27424 0.23674 0.26631 0.0
H387 H 0.27843 0.18113 0.25533 0.0
H388 H 0.31719 0.20002 0.27749 0.0
H389 H 0.11205 0.21003 0.29651 0.0
H390 H 0.10429 0.16448 0.31688 0.0
H391 H 0.11269 0.15392 0.28599 0.0
C392 C 0.82633 0.23138 0.82297 0.0
C393 C 0.8697 0.21412 0.82574 0.0
C394 C 0.80079 0.22147 0.80273 0.0
C395 C 0.81875 0.19288 0.78523 0.0
C396 C 0.86244 0.17531 0.78813 0.0
C397 C 0.88736 0.18644 0.80815 0.0
C398 C 0.75469 0.24148 0.80006 0.0
C399 C 0.8827 0.1439 0.77027 0.0
C400 C 0.74733 0.12058 0.74562 0.0
C401 C 0.75483 0.13972 0.72338 0.0
C402 C 0.76559 0.13919 0.7661 0.0
C403 C 0.79152 0.17852 0.76452 0.0
C404 C 0.79641 0.19997 0.74239 0.0
C405 C 0.77829 0.18013 0.72202 0.0
C406 C 0.75996 0.11471 0.78917 0.0
C407 C 0.82298 0.24248 0.74001 0.0
H408 H 0.81268 0.25312 0.8364 0.0
H409 H 0.92075 0.17271 0.81019 0.0
H410 H 0.75212 0.25925 0.78297 0.0
H411 H 0.72912 0.21469 0.79997 0.0
H412 H 0.74661 0.26517 0.81445 0.0
H413 H 0.91721 0.13339 0.77508 0.0
H414 H 0.86155 0.11366 0.76864 0.0
H415 H 0.88382 0.16007 0.75272 0.0
H416 H 0.72891 0.08957 0.74701 0.0
H417 H 0.78397 0.19542 0.70499 0.0
H418 H 0.74935 0.13795 0.80326 0.0
H419 H 0.79259 0.10014 0.79455 0.0
H420 H 0.735 0.08737 0.78795 0.0
H421 H 0.81404 0.26618 0.75423 0.0
H422 H 0.81737 0.25889 0.72272 0.0
H423 H 0.85923 0.23493 0.74174 0.0
C424 C 0.80938 0.84671 0.32658 0.0
C425 C 0.79136 0.88934 0.32297 0.0
C426 C 0.82987 0.82328 0.30796 0.0
C427 C 0.83317 0.84339 0.2854 0.0
C428 C 0.81408 0.88593 0.28161 0.0
C429 C 0.79313 0.90807 0.3003 0.0
C430 C 0.84926 0.77766 0.31258 0.0
C431 C 0.81774 0.9092 0.25807 0.0
C432 C 0.93204 0.81336 0.24654 0.0
C433 C 0.912 0.7874 0.22896 0.0
C434 C 0.90679 0.83143 0.26499 0.0
C435 C 0.86033 0.82236 0.26634 0.0
C436 C 0.83985 0.79572 0.24875 0.0
C437 C 0.86588 0.77905 0.23001 0.0
C438 C 0.92977 0.86108 0.28274 0.0
C439 C 0.79057 0.78478 0.24982 0.0
H440 H 0.80802 0.83192 0.34398 0.0
H441 H 0.77948 0.94106 0.29723 0.0
H442 H 0.83793 0.75385 0.2989 0.0
H443 H 0.88635 0.77921 0.31165 0.0
H444 H 0.83959 0.76455 0.33016 0.0
H445 H 0.79885 0.94111 0.25761 0.0
H446 H 0.85346 0.91633 0.25416 0.0
H447 H 0.80502 0.88741 0.24383 0.0
H448 H 0.96767 0.8202 0.24566 0.0
H449 H 0.85046 0.75864 0.21654 0.0
H450 H 0.92455 0.84804 0.3008 0.0
H451 H 0.91491 0.89497 0.28206 0.0
H452 H 0.96636 0.86394 0.2795 0.0
H453 H 0.7824 0.7693 0.26704 0.0
H454 H 0.78022 0.76173 0.23554 0.0
H455 H 0.77049 0.81579 0.24838 0.0
C456 C 0.22416 0.82193 0.72104 0.0
C457 C 0.24703 0.86275 0.7214 0.0
C458 C 0.20997 0.80148 0.74211 0.0
C459 C 0.21838 0.82261 0.76399 0.0
C460 C 0.24429 0.86206 0.76447 0.0
C461 C 0.25851 0.88139 0.74324 0.0
C462 C 0.18327 0.75889 0.74083 0.0
C463 C 0.25379 0.88609 0.78726 0.0
C464 C 0.12823 0.81216 0.81079 0.0
C465 C 0.14785 0.78319 0.82722 0.0
C466 C 0.15094 0.82507 0.79031 0.0
C467 C 0.19429 0.80795 0.78573 0.0
C468 C 0.21446 0.77857 0.80223 0.0
C469 C 0.19117 0.7669 0.82298 0.0
C470 C 0.12844 0.85733 0.77359 0.0
C471 C 0.26025 0.75901 0.79777 0.0
H472 H 0.21535 0.80706 0.7043 0.0
H473 H 0.27664 0.91266 0.74381 0.0
H474 H 0.19439 0.73508 0.75461 0.0
H475 H 0.14737 0.76633 0.74406 0.0
H476 H 0.18631 0.74266 0.72335 0.0
H477 H 0.27913 0.91287 0.78503 0.0
H478 H 0.22236 0.90137 0.7939 0.0
H479 H 0.26584 0.86249 0.80089 0.0
H480 H 0.09488 0.82513 0.81403 0.0
H481 H 0.20626 0.74413 0.83551 0.0
H482 H 0.12436 0.84169 0.75606 0.0
H483 H 0.14967 0.88735 0.77123 0.0
H484 H 0.09494 0.86811 0.77994 0.0
H485 H 0.25993 0.73989 0.78108 0.0
H486 H 0.27126 0.73657 0.81223 0.0
H487 H 0.28529 0.78602 0.7957 0.0
C488 C 0.05363 0.08219 0.21231 0.0
C489 C 0.0206 0.10404 0.19899 0.0
C490 C 0.05926 0.03581 0.21092 0.0
C491 C 0.03053 0.01067 0.19625 0.0
C492 C 0.99482 0.03219 0.18432 0.0
C493 C 0.99063 0.07872 0.18559 0.0
C494 C 0.098 0.01434 0.22373 0.0
C495 C 0.96258 0.00639 0.16907 0.0
C496 C 0.06879 0.90696 0.16403 0.0
C497 C 0.04791 0.87323 0.17705 0.0
C498 C 0.06589 0.95167 0.17108 0.0
C499 C 0.04036 0.96297 0.19125 0.0
C500 C 0.02118 0.92878 0.20517 0.0
C501 C 0.02565 0.8842 0.19803 0.0
C502 C 0.088 0.98704 0.15614 0.0
C503 C 0.99307 0.93933 0.22655 0.0
H504 H 0.07715 0.10156 0.22262 0.0
H505 H 0.9649 0.09545 0.1754 0.0
H506 H 0.0871 0.98352 0.23287 0.0
H507 H 0.12412 0.00471 0.2108 0.0
H508 H 0.11333 0.03717 0.23683 0.0
H509 H 0.93358 0.02702 0.16342 0.0
H510 H 0.98024 0.99433 0.15312 0.0
H511 H 0.94988 0.97672 0.17865 0.0
H512 H 0.086 0.89855 0.14783 0.0
H513 H 0.00887 0.85829 0.20801 0.0
H514 H 0.10742 0.01029 0.16735 0.0
H515 H 0.06195 0.00686 0.14691 0.0
H516 H 0.11082 0.9725 0.14275 0.0
H517 H 0.00983 0.96445 0.2378 0.0
H518 H 0.98605 0.90917 0.23729 0.0
H519 H 0.96063 0.95379 0.22079 0.0
C520 C 0.06264 0.90896 0.67733 0.0
C521 C 0.09343 0.94052 0.66891 0.0
C522 C 0.01639 0.91714 0.67662 0.0
C523 C 1.0005 0.95777 0.66711 0.0
C524 C 0.03145 0.99051 0.65941 0.0
C525 C 0.07763 0.98156 0.6605 0.0
C526 C 0.98453 0.88165 0.68529 0.0
C527 C 0.01572 0.03428 0.64918 0.0
C528 C 0.88435 0.96171 0.63984 0.0
C529 C 0.85981 0.98439 0.65713 0.0
C530 C 0.92998 0.95207 0.64308 0.0
C531 C 0.95152 0.9652 0.66417 0.0
C532 C 0.9265 0.98636 0.6821 0.0
C533 C 0.88097 0.99574 0.67837 0.0
C534 C 0.95553 0.92924 0.62358 0.0
C535 C 0.94815 0.00043 0.70493 0.0
H536 H 0.07464 0.87727 0.68403 0.0
H537 H 0.10123 0.00602 0.65391 0.0
H538 H 0.96048 0.89601 0.69809 0.0
H539 H 0.96472 0.86856 0.67031 0.0
H540 H 0.00232 0.85336 0.6938 0.0
H541 H 0.044 0.05707 0.64511 0.0
H542 H 0.99669 0.02806 0.63274 0.0
H543 H 0.9927 0.05121 0.66161 0.0
H544 H 0.86836 0.95291 0.62337 0.0
H545 H 0.86227 0.01315 0.69188 0.0
H546 H 0.97226 0.89882 0.6304 0.0
H547 H 0.98215 0.95172 0.61688 0.0
H548 H 0.93354 0.91971 0.60865 0.0
H549 H 0.96558 0.97173 0.71319 0.0
H550 H 0.92346 0.01406 0.71766 0.0
H551 H 0.97381 0.02632 0.70138 0.0
C552 C 0.0033 0.09142 0.88097 0.0
C553 C 0.96217 0.1032 0.89113 0.0
C554 C 0.01764 0.04673 0.88066 0.0
C555 C 0.9904 0.01331 0.89099 0.0
C556 C 0.94856 0.025 0.90089 0.0
C557 C 0.9349 0.06968 0.90073 0.0
C558 C 0.06231 0.03539 0.86974 0.0
C559 C 0.91878 0.99052 0.91234 0.0
C560 C 0.01149 0.89032 0.87858 0.0
C561 C 0.0375 0.8781 0.89808 0.0
C562 C 0.99636 0.93445 0.87579 0.0
C563 C 0.00694 0.96668 0.89312 0.0
C564 C 0.0324 0.95414 0.91307 0.0
C565 C 0.0476 0.91014 0.9152 0.0
C566 C 0.96963 0.94676 0.85419 0.0
C567 C 0.04364 0.98722 0.93219 0.0
H568 H 0.02437 0.11708 0.87338 0.0
H569 H 0.90302 0.07839 0.90862 0.0
H570 H 0.0856 0.02321 0.88354 0.0
H571 H 0.05829 0.00816 0.85673 0.0
H572 H 0.07783 0.06453 0.86084 0.0
H573 H 0.88626 0.00472 0.9182 0.0
H574 H 0.91202 0.96284 0.89994 0.0
H575 H 0.93605 0.97601 0.92786 0.0
H576 H 0.00404 0.86574 0.86518 0.0
H577 H 0.06756 0.9008 0.93037 0.0
H578 H 0.98695 0.97372 0.84439 0.0
H579 H 0.93629 0.95979 0.85942 0.0
H580 H 0.96473 0.91797 0.8422 0.0
H581 H 0.06308 0.01537 0.9247 0.0
H582 H 0.06345 0.97197 0.94667 0.0
H583 H 0.01239 0.00131 0.93971 0.0
C584 C 0.92264 0.04908 0.38158 0.0
C585 C 0.8889 0.02587 0.3697 0.0
C586 C 0.96721 0.04771 0.37376 0.0
C587 C 0.97856 0.02144 0.35392 0.0
C588 C 0.94418 -0.0001 0.34106 0.0
C589 C 0.8996 0.00273 0.34899 0.0
C590 C 0.00257 0.0723 0.3876 0.0
C591 C 0.95467 0.97115 0.31999 0.0
C592 C 0.09692 0.04051 0.33158 0.0
C593 C 0.12127 0.01013 0.34544 0.0
C594 C 0.04997 0.04286 0.33296 0.0
C595 C 0.02675 0.01364 0.34827 0.0
C596 C 0.05087 0.98023 0.3606 0.0
C597 C 0.09786 0.97915 0.35922 0.0
C598 C 0.02577 0.07903 0.31953 0.0
C599 C 0.0273 0.94748 0.37654 0.0
H600 H 0.91442 0.06691 0.3976 0.0
H601 H 0.8737 0.9841 0.33994 0.0
H602 H 0.02445 0.04797 0.39682 0.0
H603 H 0.02411 0.09215 0.37562 0.0
H604 H 0.98773 0.09499 0.40093 0.0
H605 H 0.92422 0.96409 0.30939 0.0
H606 H 0.98007 0.98712 0.30851 0.0
H607 H 0.96878 0.93892 0.32612 0.0
H608 H 0.11462 0.06469 0.32086 0.0
H609 H 0.11639 0.95535 0.36981 0.0
H610 H 0.0165 0.1062 0.33184 0.0
H611 H 0.99436 0.06618 0.31163 0.0
H612 H 0.04695 0.09341 0.30534 0.0
H613 H 0.01476 0.9651 0.39238 0.0
H614 H 0.04984 0.9201 0.38234 0.0
H615 H 0.99792 0.93277 0.36747 0.0
loop_
_geom_bond_atom_site_label_1
_geom_bond_atom_site_label_2
_geom_bond_distance
_geom_bond_site_symmetry_2
_ccdc_geom_bond_type
Mg0 O7 2.141 . S
Mg0 O8 2.048 . S
Mg0 O9 2.048 . S
Mg0 O12 2.141 . S
C1 O2 1.313 . S
C1 O8 1.195 . S
O2 C1 1.313 . S
C3 O4 1.245 . S
C3 O12 1.289 . S
O4 C3 1.245 . S
C5 O6 1.245 . S
C5 O7 1.289 . S
O6 C5 1.245 . S
O7 Mg0 2.141 . S
O7 C5 1.289 . S
O8 Mg0 2.048 . S
O8 C1 1.195 . S
O9 Mg0 2.048 . S
O9 C10 1.195 . S
C10 O9 1.195 . S
C10 O11 1.313 . S
O11 C10 1.313 . S
O12 Mg0 2.141 . S
O12 C3 1.289 . S
Mg13 O20 2.141 . S
Mg13 O21 2.048 . S
Mg13 O22 2.048 . S
Mg13 O25 2.141 . S
C14 O15 1.313 . S
C14 O21 1.195 . S
O15 C14 1.313 . S
C16 O17 1.245 . S
C16 O25 1.289 . S
O17 C16 1.245 . S
C18 O19 1.245 . S
C18 O20 1.289 . S
O19 C18 1.245 . S
O20 Mg13 2.141 . S
O20 C18 1.289 . S
O21 Mg13 2.048 . S
O21 C14 1.195 . S
O22 Mg13 2.048 . S
O22 C23 1.195 . S
C23 O22 1.195 . S
C23 O24 1.313 . S
O24 C23 1.313 . S
O25 Mg13 2.141 . S
O25 C16 1.289 . S
Mg26 O33 2.141 . S
Mg26 O34 2.048 . S
Mg26 O35 2.048 . S
Mg26 O38 2.141 . S
C27 O28 1.313 . S
C27 O34 1.195 . S
O28 C27 1.313 . S
C29 O30 1.245 . S
C29 O38 1.289 . S
O30 C29 1.245 . S
C31 O32 1.245 . S
C31 O33 1.289 . S
O32 C31 1.245 . S
O33 Mg26 2.141 . S
O33 C31 1.289 . S
O34 Mg26 2.048 . S
O34 C27 1.195 . S
O35 Mg26 2.048 . S
O35 C36 1.195 . S
C36 O35 1.195 . S
C36 O37 1.313 . S
O37 C36 1.313 . S
O38 Mg26 2.141 . S
O38 C29 1.289 . S
Mg39 O46 2.141 . S
Mg39 O47 2.048 . S
Mg39 O48 2.048 . S
Mg39 O51 2.141 . S
C40 O41 1.313 . S
C40 O47 1.195 . S
O41 C40 1.313 . S
C42 O43 1.245 . S
C42 O51 1.289 . S
O43 C42 1.245 . S
C44 O45 1.245 . S
C44 O46 1.289 . S
O45 C44 1.245 . S
O46 Mg39 2.141 . S
O46 C44 1.289 . S
O47 Mg39 2.048 . S
O47 C40 1.195 . S
O48 Mg39 2.048 . S
O48 C49 1.195 . S
C49 O48 1.195 . S
C49 O50 1.313 . S
O50 C49 1.313 . S
O51 Mg39 2.141 . S
O51 C42 1.289 . S
Mg52 O59 2.141 . S
Mg52 O60 2.048 . S
Mg52 O61 2.048 . S
Mg52 O64 2.141 . S
C53 O54 1.313 . S
C53 O60 1.195 . S
O54 C53 1.313 . S
C55 O56 1.245 . S
C55 O64 1.289 . S
O56 C55 1.245 . S
C57 O58 1.245 . S
C57 O59 1.289 . S
O58 C57 1.245 . S
O59 Mg52 2.141 . S
O59 C57 1.289 . S
O60 Mg52 2.048 . S
O60 C53 1.195 . S
O61 Mg52 2.048 . S
O61 C62 1.195 . S
C62 O61 1.195 . S
C62 O63 1.313 . S
O63 C62 1.313 . S
O64 Mg52 2.141 . S
O64 C55 1.289 . S
Mg65 O72 2.141 . S
Mg65 O73 2.048 . S
Mg65 O74 2.048 . S
Mg65 O77 2.141 . S
C66 O67 1.313 . S
C66 O73 1.195 . S
O67 C66 1.313 . S
C68 O69 1.245 . S
C68 O77 1.289 . S
O69 C68 1.245 . S
C70 O71 1.245 . S
C70 O72 1.289 . S
O71 C70 1.245 . S
O72 Mg65 2.141 . S
O72 C70 1.289 . S
O73 Mg65 2.048 . S
O73 C66 1.195 . S
O74 Mg65 2.048 . S
O74 C75 1.195 . S
C75 O74 1.195 . S
C75 O76 1.313 . S
O76 C75 1.313 . S
O77 Mg65 2.141 . S
O77 C68 1.289 . S
Mg78 O85 2.141 . S
Mg78 O86 2.048 . S
Mg78 O87 2.048 . S
Mg78 O90 2.141 . S
C79 O80 1.313 . S
C79 O86 1.195 . S
O80 C79 1.313 . S
C81 O82 1.245 . S
C81 O90 1.289 . S
O82 C81 1.245 . S
C83 O84 1.245 . S
C83 O85 1.289 . S
O84 C83 1.245 . S
O85 Mg78 2.141 . S
O85 C83 1.289 . S
O86 Mg78 2.048 . S
O86 C79 1.195 . S
O87 Mg78 2.048 . S
O87 C88 1.195 . S
C88 O87 1.195 . S
C88 O89 1.313 . S
O89 C88 1.313 . S
O90 Mg78 2.141 . S
O90 C81 1.289 . S
Mg91 O98 2.141 . S
Mg91 O99 2.048 . S
Mg91 O100 2.048 . S
Mg91 O103 2.141 . S
C92 O93 1.313 . S
C92 O99 1.195 . S
O93 C92 1.313 . S
C94 O95 1.245 . S
C94 O103 1.289 . S
O95 C94 1.245 . S
C96 O97 1.245 . S
C96 O98 1.289 . S
O97 C96 1.245 . S
O98 Mg91 2.141 . S
O98 C96 1.289 . S
O99 Mg91 2.048 . S
O99 C92 1.195 . S
O100 Mg91 2.048 . S
O100 C101 1.195 . S
C101 O100 1.195 . S
C101 O102 1.313 . S
O102 C101 1.313 . S
O103 Mg91 2.141 . S
O103 C94 1.289 . S
C104 C105 1.391 . S
C104 C106 1.394 . S
C104 H120 0.931 . S
C105 C104 1.391 . S
C105 C109 1.376 . S
C106 C104 1.394 . S
C106 C107 1.369 . S
C106 C110 1.531 . S
C107 C106 1.369 . S
C107 C108 1.410 . S
C107 C115 1.503 1_455 S
C108 C107 1.410 . S
C108 C109 1.392 . S
C108 C111 1.511 1_455 S
C109 C105 1.376 . S
C109 C108 1.392 . S
C109 H121 0.929 . S
C110 C106 1.531 . S
C110 H122 0.960 . S
C110 H123 0.962 . S
C110 H124 0.960 . S
C111 C108 1.511 1_655 S
C111 H125 0.961 . S
C111 H126 0.961 . S
C111 H127 0.961 . S
C112 C113 1.370 . S
C112 C114 1.363 . S
C112 H128 0.931 . S
C113 C112 1.370 . S
C113 C117 1.408 . S
C114 C112 1.363 . S
C114 C115 1.370 . S
C114 C118 1.524 . S
C115 C107 1.503 1_655 S
C115 C114 1.370 . S
C115 C116 1.403 1_655 S
C116 C115 1.403 1_455 S
C116 C117 1.404 1_455 S
C116 C119 1.539 . S
C117 C113 1.408 . S
C117 C116 1.404 1_655 S
C117 H129 0.930 . S
C118 C114 1.524 . S
C118 H130 0.956 . S
C118 H131 0.961 . S
C118 H132 0.961 . S
C119 C116 1.539 . S
C119 H133 0.958 . S
C119 H134 0.961 . S
C119 H135 0.960 . S
H120 C104 0.931 . S
H121 C109 0.929 . S
H122 C110 0.960 . S
H123 C110 0.962 . S
H124 C110 0.960 . S
H125 C111 0.961 . S
H126 C111 0.961 . S
H127 C111 0.961 . S
H128 C112 0.931 . S
H129 C117 0.930 . S
H130 C118 0.956 . S
H131 C118 0.961 . S
H132 C118 0.961 . S
H133 C119 0.958 . S
H134 C119 0.961 . S
H135 C119 0.960 . S
C136 C137 1.391 . S
C136 C138 1.394 . S
C136 H152 0.931 . S
C137 C136 1.391 . S
C137 C141 1.376 . S
C138 C136 1.394 . S
C138 C139 1.369 . S
C138 C142 1.531 1_565 S
C139 C138 1.369 . S
C139 C140 1.410 . S
C139 C147 1.503 1_565 S
C140 C139 1.410 . S
C140 C141 1.392 . S
C140 C143 1.511 . S
C141 C137 1.376 . S
C141 C140 1.392 . S
C141 H153 0.929 . S
C142 C138 1.531 1_545 S
C142 H154 0.960 . S
C142 H155 0.962 . S
C142 H156 0.960 . S
C143 C140 1.511 . S
C143 H157 0.961 . S
C143 H158 0.961 . S
C143 H159 0.961 . S
C144 C145 1.370 . S
C144 C146 1.363 . S
C144 H160 0.931 . S
C145 C144 1.370 . S
C145 C149 1.408 . S
C146 C144 1.363 . S
C146 C147 1.370 . S
C146 C150 1.524 . S
C147 C139 1.503 1_545 S
C147 C146 1.370 . S
C147 C148 1.403 . S
C148 C147 1.403 . S
C148 C149 1.404 . S
C148 C151 1.539 1_545 S
C149 C145 1.408 . S
C149 C148 1.404 . S
C149 H161 0.930 . S
C150 C146 1.524 . S
C150 H162 0.956 . S
C150 H163 0.961 . S
C150 H164 0.961 . S
C151 C148 1.539 1_565 S
C151 H165 0.958 . S
C151 H166 0.961 . S
C151 H167 0.960 . S
H152 C136 0.931 . S
H153 C141 0.929 . S
H154 C142 0.960 . S
H155 C142 0.962 . S
H156 C142 0.960 . S
H157 C143 0.961 . S
H158 C143 0.961 . S
H159 C143 0.961 . S
H160 C144 0.931 . S
H161 C149 0.930 . S
H162 C150 0.956 . S
H163 C150 0.961 . S
H164 C150 0.961 . S
H165 C151 0.958 . S
H166 C151 0.961 . S
H167 C151 0.960 . S
C168 C169 1.391 . S
C168 C170 1.394 . S
C168 H184 0.931 . S
C169 C168 1.391 . S
C169 C173 1.376 . S
C170 C168 1.394 . S
C170 C171 1.369 . S
C170 C174 1.531 . S
C171 C170 1.369 . S
C171 C172 1.411 . S
C171 C179 1.503 1_655 S
C172 C171 1.411 . S
C172 C173 1.397 . S
C172 C175 1.506 1_655 S
C173 C169 1.376 . S
C173 C172 1.397 . S
C173 H185 0.929 . S
C174 C170 1.531 . S
C174 H186 0.960 . S
C174 H187 0.962 . S
C174 H188 0.960 . S
C175 C172 1.506 1_455 S
C175 H189 0.961 . S
C175 H190 0.961 . S
C175 H191 0.961 . S
C176 C177 1.370 . S
C176 C178 1.367 . S
C176 H192 0.931 . S
C177 C176 1.370 . S
C177 C181 1.408 . S
C178 C176 1.367 . S
C178 C179 1.374 . S
C178 C182 1.517 1_455 S
C179 C171 1.503 1_455 S
C179 C178 1.374 . S
C179 C180 1.403 . S
C180 C179 1.403 . S
C180 C181 1.404 . S
C180 C183 1.539 . S
C181 C177 1.408 . S
C181 C180 1.404 . S
C181 H193 0.930 . S
C182 C178 1.517 1_655 S
C182 H194 0.956 . S
C182 H195 0.961 . S
C182 H196 0.961 . S
C183 C180 1.539 . S
C183 H197 0.958 . S
C183 H198 0.961 . S
C183 H199 0.960 . S
H184 C168 0.931 . S
H185 C173 0.929 . S
H186 C174 0.960 . S
H187 C174 0.962 . S
H188 C174 0.960 . S
H189 C175 0.961 . S
H190 C175 0.961 . S
H191 C175 0.961 . S
H192 C176 0.931 . S
H193 C181 0.930 . S
H194 C182 0.956 . S
H195 C182 0.961 . S
H196 C182 0.961 . S
H197 C183 0.958 . S
H198 C183 0.961 . S
H199 C183 0.960 . S
C200 C201 1.391 . S
C200 C202 1.394 . S
C200 H216 0.931 . S
C201 C200 1.391 . S
C201 C205 1.376 . S
C202 C200 1.394 . S
C202 C203 1.369 . S
C202 C206 1.531 . S
C203 C202 1.369 . S
C203 C204 1.410 . S
C203 C211 1.503 1_545 S
C204 C203 1.410 . S
C204 C205 1.392 . S
C204 C207 1.511 1_545 S
C205 C201 1.376 . S
C205 C204 1.392 . S
C205 H217 0.929 . S
C206 C202 1.531 . S
C206 H218 0.960 . S
C206 H219 0.962 . S
C206 H220 0.960 . S
C207 C204 1.511 1_565 S
C207 H221 0.961 . S
C207 H222 0.961 . S
C207 H223 0.961 . S
C208 C209 1.370 . S
C208 C210 1.363 1_565 S
C208 H224 0.931 . S
C209 C208 1.370 . S
C209 C213 1.408 . S
C210 C208 1.363 1_545 S
C210 C211 1.370 1_545 S
C210 C214 1.524 . S
C211 C203 1.503 1_565 S
C211 C210 1.370 1_565 S
C211 C212 1.403 . S
C212 C211 1.403 . S
C212 C213 1.404 . S
C212 C215 1.539 . S
C213 C209 1.408 . S
C213 C212 1.404 . S
C213 H225 0.930 . S
C214 C210 1.524 . S
C214 H226 0.956 . S
C214 H227 0.961 . S
C214 H228 0.961 . S
C215 C212 1.539 . S
C215 H229 0.958 . S
C215 H230 0.961 . S
C215 H231 0.960 . S
H216 C200 0.931 . S
H217 C205 0.929 . S
H218 C206 0.960 . S
H219 C206 0.962 . S
H220 C206 0.960 . S
H221 C207 0.961 . S
H222 C207 0.961 . S
H223 C207 0.961 . S
H224 C208 0.931 . S
H225 C213 0.930 . S
H226 C214 0.956 . S
H227 C214 0.961 . S
H228 C214 0.961 . S
H229 C215 0.958 . S
H230 C215 0.961 . S
H231 C215 0.960 . S
C232 C233 1.391 1_455 S
C232 C234 1.394 . S
C232 H248 0.931 . S
C233 C232 1.391 1_655 S
C233 C237 1.376 . S
C234 C232 1.394 . S
C234 C235 1.369 1_455 S
C234 C238 1.531 . S
C235 C234 1.369 1_655 S
C235 C236 1.410 . S
C235 C243 1.503 1_656 S
C236 C235 1.410 . S
C236 C237 1.392 . S
C236 C239 1.511 1_556 S
C237 C233 1.376 . S
C237 C236 1.392 . S
C237 H249 0.929 . S
C238 C234 1.531 . S
C238 H250 0.960 . S
C238 H251 0.962 . S
C238 H252 0.960 . S
C239 C236 1.511 1_554 S
C239 H253 0.961 1_554 S
C239 H254 0.961 . S
C239 H255 0.961 . S
C240 C241 1.370 . S
C240 C242 1.363 . S
C240 H256 0.931 . S
C241 C240 1.370 . S
C241 C245 1.408 . S
C242 C240 1.363 . S
C242 C243 1.370 . S
C242 C246 1.524 . S
C243 C235 1.503 1_454 S
C243 C242 1.370 . S
C243 C244 1.403 . S
C244 C243 1.403 . S
C244 C245 1.404 . S
C244 C247 1.539 . S
C245 C241 1.408 . S
C245 C244 1.404 . S
C245 H257 0.930 . S
C246 C242 1.524 . S
C246 H258 0.956 1_554 S
C246 H259 0.961 1_455 S
C246 H260 0.961 . S
C247 C244 1.539 . S
C247 H261 0.958 . S
C247 H262 0.961 1_455 S
C247 H263 0.960 1_455 S
H248 C232 0.931 . S
H249 C237 0.929 . S
H250 C238 0.960 . S
H251 C238 0.962 . S
H252 C238 0.960 . S
H253 C239 0.961 1_556 S
H254 C239 0.961 . S
H255 C239 0.961 . S
H256 C240 0.931 . S
H257 C245 0.930 . S
H258 C246 0.956 1_556 S
H259 C246 0.961 1_655 S
H260 C246 0.961 . S
H261 C247 0.958 . S
H262 C247 0.961 1_655 S
H263 C247 0.960 1_655 S
C264 C265 1.391 . S
C264 C266 1.394 . S
C264 H280 0.931 . S
C265 C264 1.391 . S
C265 C269 1.376 . S
C266 C264 1.394 . S
C266 C267 1.369 . S
C266 C270 1.531 . S
C267 C266 1.369 . S
C267 C268 1.410 . S
C267 C275 1.503 1_545 S
C268 C267 1.410 . S
C268 C269 1.392 . S
C268 C271 1.511 1_545 S
C269 C265 1.376 . S
C269 C268 1.392 . S
C269 H281 0.929 . S
C270 C266 1.531 . S
C270 H282 0.960 . S
C270 H283 0.962 . S
C270 H284 0.960 . S
C271 C268 1.511 1_565 S
C271 H285 0.961 . S
C271 H286 0.961 . S
C271 H287 0.964 . S
C272 C273 1.370 . S
C272 C274 1.363 . S
C272 H288 0.931 . S
C273 C272 1.370 . S
C273 C277 1.408 1_565 S
C274 C272 1.363 . S
C274 C275 1.370 . S
C274 C278 1.524 . S
C275 C267 1.503 1_565 S
C275 C274 1.370 . S
C275 C276 1.403 1_565 S
C276 C275 1.403 1_545 S
C276 C277 1.404 . S
C276 C279 1.539 . S
C277 C273 1.408 1_545 S
C277 C276 1.404 . S
C277 H289 0.930 . S
C278 C274 1.524 . S
C278 H290 0.956 . S
C278 H291 0.961 . S
C278 H292 0.961 . S
C279 C276 1.539 . S
C279 H293 0.958 . S
C279 H294 0.961 . S
C279 H295 0.960 . S
H280 C264 0.931 . S
H281 C269 0.929 . S
H282 C270 0.960 . S
H283 C270 0.962 . S
H284 C270 0.960 . S
H285 C271 0.961 . S
H286 C271 0.961 . S
H287 C271 0.964 . S
H288 C272 0.931 . S
H289 C277 0.930 . S
H290 C278 0.956 . S
H291 C278 0.961 . S
H292 C278 0.961 . S
H293 C279 0.958 . S
H294 C279 0.961 . S
H295 C279 0.960 . S
C296 C297 1.391 . S
C296 C298 1.394 . S
C296 H312 0.931 . S
C297 C296 1.391 . S
C297 C301 1.376 1_655 S
C298 C296 1.394 . S
C298 C299 1.369 . S
C298 C302 1.493 1_554 S
C299 C298 1.369 . S
C299 C300 1.410 1_655 S
C299 C307 1.503 1_654 S
C300 C299 1.410 1_455 S
C300 C301 1.392 . S
C300 C303 1.511 . S
C301 C297 1.376 1_455 S
C301 C300 1.392 . S
C301 H313 0.929 . S
C302 C298 1.493 1_556 S
C302 H314 0.998 . S
C302 H315 0.984 . S
C302 H316 0.941 1_556 S
C303 C300 1.511 . S
C303 H317 0.961 . S
C303 H318 0.961 . S
C303 H319 0.961 . S
C304 C305 1.370 . S
C304 C306 1.363 . S
C304 H320 0.931 . S
C305 C304 1.370 . S
C305 C309 1.408 . S
C306 C304 1.363 . S
C306 C307 1.370 . S
C306 C310 1.524 1_455 S
C307 C299 1.503 1_456 S
C307 C306 1.370 . S
C307 C308 1.403 . S
C308 C307 1.403 . S
C308 C309 1.404 . S
C308 C311 1.539 . S
C309 C305 1.408 . S
C309 C308 1.404 . S
C309 H321 0.930 . S
C310 C306 1.524 1_655 S
C310 H322 0.956 . S
C310 H323 0.961 1_556 S
C310 H324 0.961 . S
C311 C308 1.539 . S
C311 H325 0.958 . S
C311 H326 0.961 . S
C311 H327 0.960 1_556 S
H312 C296 0.931 . S
H313 C301 0.929 . S
H314 C302 0.998 . S
H315 C302 0.984 . S
H316 C302 0.941 1_554 S
H317 C303 0.961 . S
H318 C303 0.961 . S
H319 C303 0.961 . S
H320 C304 0.931 . S
H321 C309 0.930 . S
H322 C310 0.956 . S
H323 C310 0.961 1_554 S
H324 C310 0.961 . S
H325 C311 0.958 . S
H326 C311 0.961 . S
H327 C311 0.960 1_554 S
C328 C329 1.391 . S
C328 C330 1.394 1_545 S
C328 H344 0.931 1_545 S
C329 C328 1.391 . S
C329 C333 1.376 . S
C330 C328 1.394 1_565 S
C330 C331 1.369 . S
C330 C334 1.531 . S
C331 C330 1.369 . S
C331 C332 1.410 1_565 S
C331 C339 1.503 . S
C332 C331 1.410 1_545 S
C332 C333 1.392 . S
C332 C335 1.511 . S
C333 C329 1.376 . S
C333 C332 1.392 . S
C333 H345 0.929 . S
C334 C330 1.531 . S
C334 H346 0.960 . S
C334 H347 0.962 . S
C334 H348 0.960 . S
C335 C332 1.511 . S
C335 H349 0.961 . S
C335 H350 0.961 . S
C335 H351 0.961 . S
C336 C337 1.364 1_545 S
C336 C338 1.365 . S
C336 H352 0.935 . S
C337 C336 1.364 1_565 S
C337 C341 1.408 . S
C338 C336 1.365 . S
C338 C339 1.370 1_545 S
C338 C342 1.524 . S
C339 C331 1.503 . S
C339 C338 1.370 1_565 S
C339 C340 1.403 . S
C340 C339 1.403 . S
C340 C341 1.404 . S
C340 C343 1.539 . S
C341 C337 1.408 . S
C341 C340 1.404 . S
C341 H353 0.930 . S
C342 C338 1.524 . S
C342 H354 0.956 . S
C342 H355 0.961 . S
C342 H356 0.961 . S
C343 C340 1.539 . S
C343 H357 0.958 . S
C343 H358 0.961 . S
C343 H359 0.960 . S
H344 C328 0.931 1_565 S
H345 C333 0.929 . S
H346 C334 0.960 . S
H347 C334 0.962 . S
H348 C334 0.960 . S
H349 C335 0.961 . S
H350 C335 0.961 . S
H351 C335 0.961 . S
H352 C336 0.935 . S
H353 C341 0.930 . S
H354 C342 0.956 . S
H355 C342 0.961 . S
H356 C342 0.961 . S
H357 C343 0.958 . S
H358 C343 0.961 . S
H359 C343 0.960 . S
C360 C361 1.391 . S
C360 C362 1.394 . S
C360 H376 0.931 . S
C361 C360 1.391 . S
C361 C365 1.376 . S
C362 C360 1.394 . S
C362 C363 1.369 . S
C362 C366 1.531 . S
C363 C362 1.369 . S
C363 C364 1.410 . S
C363 C371 1.503 . S
C364 C363 1.410 . S
C364 C365 1.392 . S
C364 C367 1.511 . S
C365 C361 1.376 . S
C365 C364 1.392 . S
C365 H377 0.929 . S
C366 C362 1.531 . S
C366 H378 0.960 . S
C366 H379 0.962 . S
C366 H380 0.960 . S
C367 C364 1.511 . S
C367 H381 0.961 . S
C367 H382 0.961 . S
C367 H383 0.961 . S
C368 C369 1.370 . S
C368 C370 1.363 . S
C368 H384 0.931 . S
C369 C368 1.370 . S
C369 C373 1.408 . S
C370 C368 1.363 . S
C370 C371 1.370 . S
C370 C374 1.524 . S
C371 C363 1.503 . S
C371 C370 1.370 . S
C371 C372 1.403 . S
C372 C371 1.403 . S
C372 C373 1.404 . S
C372 C375 1.539 . S
C373 C369 1.408 . S
C373 C372 1.404 . S
C373 H385 0.930 . S
C374 C370 1.524 . S
C374 H386 0.956 . S
C374 H387 0.961 . S
C374 H388 0.961 . S
C375 C372 1.539 . S
C375 H389 0.958 . S
C375 H390 0.961 . S
C375 H391 0.960 . S
H376 C360 0.931 . S
H377 C365 0.929 . S
H378 C366 0.960 . S
H379 C366 0.962 . S
H380 C366 0.960 . S
H381 C367 0.961 . S
H382 C367 0.961 . S
H383 C367 0.961 . S
H384 C368 0.931 . S
H385 C373 0.930 . S
H386 C374 0.956 . S
H387 C374 0.961 . S
H388 C374 0.961 . S
H389 C375 0.958 . S
H390 C375 0.961 . S
H391 C375 0.960 . S
C392 C393 1.391 . S
C392 C394 1.394 . S
C392 H408 0.931 . S
C393 C392 1.391 . S
C393 C397 1.376 . S
C394 C392 1.394 . S
C394 C395 1.369 . S
C394 C398 1.531 . S
C395 C394 1.369 . S
C395 C396 1.410 . S
C395 C403 1.503 . S
C396 C395 1.410 . S
C396 C397 1.392 . S
C396 C399 1.511 . S
C397 C393 1.376 . S
C397 C396 1.392 . S
C397 H409 0.929 . S
C398 C394 1.531 . S
C398 H410 0.960 . S
C398 H411 0.962 . S
C398 H412 0.960 . S
C399 C396 1.511 . S
C399 H413 0.961 . S
C399 H414 0.961 . S
C399 H415 0.961 . S
C400 C401 1.370 . S
C400 C402 1.363 . S
C400 H416 0.931 . S
C401 C400 1.370 . S
C401 C405 1.408 . S
C402 C400 1.363 . S
C402 C403 1.370 . S
C402 C406 1.524 . S
C403 C395 1.503 . S
C403 C402 1.370 . S
C403 C404 1.403 . S
C404 C403 1.403 . S
C404 C405 1.404 . S
C404 C407 1.539 . S
C405 C401 1.408 . S
C405 C404 1.404 . S
C405 H417 0.930 . S
C406 C402 1.524 . S
C406 H418 0.956 . S
C406 H419 0.961 . S
C406 H420 0.961 . S
C407 C404 1.539 . S
C407 H421 0.958 . S
C407 H422 0.961 . S
C407 H423 0.960 . S
H408 C392 0.931 . S
H409 C397 0.929 . S
H410 C398 0.960 . S
H411 C398 0.962 . S
H412 C398 0.960 . S
H413 C399 0.961 . S
H414 C399 0.961 . S
H415 C399 0.961 . S
H416 C400 0.931 . S
H417 C405 0.930 . S
H418 C406 0.956 . S
H419 C406 0.961 . S
H420 C406 0.961 . S
H421 C407 0.958 . S
H422 C407 0.961 . S
H423 C407 0.960 . S
C424 C425 1.391 . S
C424 C426 1.394 . S
C424 H440 0.931 . S
C425 C424 1.391 . S
C425 C429 1.376 . S
C426 C424 1.394 . S
C426 C427 1.369 . S
C426 C430 1.531 . S
C427 C426 1.369 . S
C427 C428 1.410 . S
C427 C435 1.503 . S
C428 C427 1.410 . S
C428 C429 1.392 . S
C428 C431 1.511 . S
C429 C425 1.376 . S
C429 C428 1.392 . S
C429 H441 0.929 . S
C430 C426 1.531 . S
C430 H442 0.960 . S
C430 H443 0.962 . S
C430 H444 0.960 . S
C431 C428 1.511 . S
C431 H445 0.961 . S
C431 H446 0.961 . S
C431 H447 0.961 . S
C432 C433 1.370 . S
C432 C434 1.363 . S
C432 H448 0.931 . S
C433 C432 1.370 . S
C433 C437 1.408 . S
C434 C432 1.363 . S
C434 C435 1.370 . S
C434 C438 1.524 . S
C435 C427 1.503 . S
C435 C434 1.370 . S
C435 C436 1.403 . S
C436 C435 1.403 . S
C436 C437 1.404 . S
C436 C439 1.539 . S
C437 C433 1.408 . S
C437 C436 1.404 . S
C437 H449 0.930 . S
C438 C434 1.524 . S
C438 H450 0.956 . S
C438 H451 0.961 . S
C438 H452 0.961 . S
C439 C436 1.539 . S
C439 H453 0.958 . S
C439 H454 0.961 . S
C439 H455 0.960 . S
H440 C424 0.931 . S
H441 C429 0.929 . S
H442 C430 0.960 . S
H443 C430 0.962 . S
H444 C430 0.960 . S
H445 C431 0.961 . S
H446 C431 0.961 . S
H447 C431 0.961 . S
H448 C432 0.931 . S
H449 C437 0.930 . S
H450 C438 0.956 . S
H451 C438 0.961 . S
H452 C438 0.961 . S
H453 C439 0.958 . S
H454 C439 0.961 . S
H455 C439 0.960 . S
C456 C457 1.391 . S
C456 C458 1.394 . S
C456 H472 0.931 . S
C457 C456 1.391 . S
C457 C461 1.376 . S
C458 C456 1.394 . S
C458 C459 1.369 . S
C458 C462 1.531 . S
C459 C458 1.369 . S
C459 C460 1.410 . S
C459 C467 1.503 . S
C460 C459 1.410 . S
C460 C461 1.392 . S
C460 C463 1.511 . S
C461 C457 1.376 . S
C461 C460 1.392 . S
C461 H473 0.929 . S
C462 C458 1.531 . S
C462 H474 0.960 . S
C462 H475 0.962 . S
C462 H476 0.960 . S
C463 C460 1.511 . S
C463 H477 0.961 . S
C463 H478 0.961 . S
C463 H479 0.961 . S
C464 C465 1.370 . S
C464 C466 1.363 . S
C464 H480 0.931 . S
C465 C464 1.370 . S
C465 C469 1.408 . S
C466 C464 1.363 . S
C466 C467 1.370 . S
C466 C470 1.524 . S
C467 C459 1.503 . S
C467 C466 1.370 . S
C467 C468 1.403 . S
C468 C467 1.403 . S
C468 C469 1.404 . S
C468 C471 1.539 . S
C469 C465 1.408 . S
C469 C468 1.404 . S
C469 H481 0.930 . S
C470 C466 1.524 . S
C470 H482 0.956 . S
C470 H483 0.961 . S
C470 H484 0.961 . S
C471 C468 1.539 . S
C471 H485 0.958 . S
C471 H486 0.961 . S
C471 H487 0.960 . S
H472 C456 0.931 . S
H473 C461 0.929 . S
H474 C462 0.960 . S
H475 C462 0.962 . S
H476 C462 0.960 . S
H477 C463 0.961 . S
H478 C463 0.961 . S
H479 C463 0.961 . S
H480 C464 0.931 . S
H481 C469 0.930 . S
H482 C470 0.956 . S
H483 C470 0.961 . S
H484 C470 0.961 . S
H485 C471 0.958 . S
H486 C471 0.961 . S
H487 C471 0.960 . S
C488 C489 1.391 . S
C488 C490 1.394 . S
C488 H504 0.931 . S
C489 C488 1.391 . S
C489 C493 1.376 . S
C490 C488 1.394 . S
C490 C491 1.369 . S
C490 C494 1.531 1_545 S
C491 C490 1.369 . S
C491 C492 1.410 1_455 S
C491 C499 1.503 1_445 S
C492 C491 1.410 1_655 S
C492 C493 1.392 1_655 S
C492 C495 1.511 . S
C493 C489 1.376 . S
C493 C492 1.392 1_455 S
C493 H505 0.929 . S
C494 C490 1.531 1_565 S
C494 H506 0.960 . S
C494 H507 0.962 . S
C494 H508 0.960 . S
C495 C492 1.511 . S
C495 H509 0.961 . S
C495 H510 0.961 . S
C495 H511 0.961 . S
C496 C497 1.370 . S
C496 C498 1.363 . S
C496 H512 0.931 . S
C497 C496 1.370 . S
C497 C501 1.408 . S
C498 C496 1.363 . S
C498 C499 1.370 . S
C498 C502 1.524 1_655 S
C499 C491 1.503 1_665 S
C499 C498 1.370 . S
C499 C500 1.403 . S
C500 C499 1.403 . S
C500 C501 1.404 . S
C500 C503 1.539 . S
C501 C497 1.408 . S
C501 C500 1.404 . S
C501 H513 0.930 . S
C502 C498 1.524 1_455 S
C502 H514 0.956 . S
C502 H515 0.961 . S
C502 H516 0.961 . S
C503 C500 1.539 . S
C503 H517 0.958 . S
C503 H518 0.961 . S
C503 H519 0.960 1_565 S
H504 C488 0.931 . S
H505 C493 0.929 . S
H506 C494 0.960 . S
H507 C494 0.962 . S
H508 C494 0.960 . S
H509 C495 0.961 . S
H510 C495 0.961 . S
H511 C495 0.961 . S
H512 C496 0.931 . S
H513 C501 0.930 . S
H514 C502 0.956 . S
H515 C502 0.961 . S
H516 C502 0.961 . S
H517 C503 0.958 . S
H518 C503 0.961 . S
H519 C503 0.960 1_545 S
C520 C521 1.391 . S
C520 C522 1.394 . S
C520 H536 0.931 . S
C521 C520 1.391 . S
C521 C525 1.376 . S
C522 C520 1.394 . S
C522 C523 1.369 . S
C522 C526 1.531 1_565 S
C523 C522 1.369 . S
C523 C524 1.410 . S
C523 C531 1.503 1_465 S
C524 C523 1.410 . S
C524 C525 1.392 . S
C524 C527 1.511 . S
C525 C521 1.376 . S
C525 C524 1.392 . S
C525 H537 0.929 . S
C526 C522 1.531 1_545 S
C526 H538 0.960 . S
C526 H539 0.962 1_545 S
C526 H540 0.960 . S
C527 C524 1.511 . S
C527 H541 0.961 . S
C527 H542 0.961 1_455 S
C527 H543 0.961 1_565 S
C528 C529 1.370 . S
C528 C530 1.363 1_545 S
C528 H544 0.931 . S
C529 C528 1.370 . S
C529 C533 1.408 . S
C530 C528 1.363 1_565 S
C530 C531 1.370 1_565 S
C530 C534 1.524 . S
C531 C523 1.503 1_645 S
C531 C530 1.370 1_545 S
C531 C532 1.403 . S
C532 C531 1.403 . S
C532 C533 1.404 . S
C532 C535 1.539 1_655 S
C533 C529 1.408 . S
C533 C532 1.404 . S
C533 H545 0.930 . S
C534 C530 1.524 . S
C534 H546 0.956 . S
C534 H547 0.961 . S
C534 H548 0.961 . S
C535 C532 1.539 1_455 S
C535 H549 0.958 . S
C535 H550 0.961 . S
C535 H551 0.960 . S
H536 C520 0.931 . S
H537 C525 0.929 . S
H538 C526 0.960 . S
H539 C526 0.962 1_565 S
H540 C526 0.960 . S
H541 C527 0.961 . S
H542 C527 0.961 1_655 S
H543 C527 0.961 1_545 S
H544 C528 0.931 . S
H545 C533 0.930 . S
H546 C534 0.956 . S
H547 C534 0.961 . S
H548 C534 0.961 . S
H549 C535 0.958 . S
H550 C535 0.961 . S
H551 C535 0.960 . S
C552 C553 1.391 . S
C552 C554 1.394 . S
C552 H568 0.931 . S
C553 C552 1.391 . S
C553 C557 1.376 . S
C554 C552 1.394 . S
C554 C555 1.369 . S
C554 C558 1.531 1_655 S
C555 C554 1.369 . S
C555 C556 1.410 . S
C555 C563 1.503 1_645 S
C556 C555 1.410 . S
C556 C557 1.392 . S
C556 C559 1.511 1_545 S
C557 C553 1.376 . S
C557 C556 1.392 . S
C557 H569 0.929 . S
C558 C554 1.531 1_455 S
C558 H570 0.960 1_545 S
C558 H571 0.962 . S
C558 H572 0.960 1_455 S
C559 C556 1.511 1_565 S
C559 H573 0.961 1_565 S
C559 H574 0.961 . S
C559 H575 0.961 . S
C560 C561 1.370 . S
C560 C562 1.363 . S
C560 H576 0.931 . S
C561 C560 1.370 . S
C561 C565 1.408 . S
C562 C560 1.363 . S
C562 C563 1.370 . S
C562 C566 1.524 1_565 S
C563 C555 1.503 1_465 S
C563 C562 1.370 . S
C563 C564 1.403 1_455 S
C564 C563 1.403 1_655 S
C564 C565 1.404 1_655 S
C564 C567 1.539 . S
C565 C561 1.408 . S
C565 C564 1.404 1_455 S
C565 H577 0.930 . S
C566 C562 1.524 1_545 S
C566 H578 0.956 . S
C566 H579 0.961 . S
C566 H580 0.961 . S
C567 C564 1.539 . S
C567 H581 0.958 . S
C567 H582 0.961 . S
C567 H583 0.960 . S
H568 C552 0.931 . S
H569 C557 0.929 . S
H570 C558 0.960 1_565 S
H571 C558 0.962 . S
H572 C558 0.960 1_655 S
H573 C559 0.961 1_545 S
H574 C559 0.961 . S
H575 C559 0.961 . S
H576 C560 0.931 . S
H577 C565 0.930 . S
H578 C566 0.956 . S
H579 C566 0.961 . S
H580 C566 0.961 . S
H581 C567 0.958 . S
H582 C567 0.961 . S
H583 C567 0.960 . S
C584 C585 1.391 . S
C584 C586 1.394 1_565 S
C584 H600 0.931 . S
C585 C584 1.391 . S
C585 C589 1.376 . S
C586 C584 1.394 1_545 S
C586 C587 1.369 1_545 S
C586 C590 1.531 . S
C587 C586 1.369 1_565 S
C587 C588 1.410 . S
C587 C595 1.503 1_665 S
C588 C587 1.410 . S
C588 C589 1.392 . S
C588 C591 1.511 1_655 S
C589 C585 1.376 . S
C589 C588 1.392 . S
C589 H601 0.929 . S
C590 C586 1.531 . S
C590 H602 0.960 . S
C590 H603 0.962 . S
C590 H604 0.960 . S
C591 C588 1.511 1_455 S
C591 H605 0.961 . S
C591 H606 0.961 . S
C591 H607 0.961 . S
C592 C593 1.370 . S
C592 C594 1.363 . S
C592 H608 0.931 . S
C593 C592 1.370 . S
C593 C597 1.408 . S
C594 C592 1.363 . S
C594 C595 1.370 . S
C594 C598 1.524 . S
C595 C587 1.503 1_445 S
C595 C594 1.370 . S
C595 C596 1.403 . S
C596 C595 1.403 . S
C596 C597 1.404 . S
C596 C599 1.539 1_545 S
C597 C593 1.408 . S
C597 C596 1.404 . S
C597 H609 0.930 . S
C598 C594 1.524 . S
C598 H610 0.956 1_455 S
C598 H611 0.961 1_545 S
C598 H612 0.961 . S
C599 C596 1.539 1_565 S
C599 H613 0.958 1_565 S
C599 H614 0.961 . S
C599 H615 0.960 . S
H600 C584 0.931 . S
H601 C589 0.929 . S
H602 C590 0.960 . S
H603 C590 0.962 . S
H604 C590 0.960 . S
H605 C591 0.961 . S
H606 C591 0.961 . S
H607 C591 0.961 . S
H608 C592 0.931 . S
H609 C597 0.930 . S
H610 C598 0.956 1_655 S
H611 C598 0.961 1_565 S
H612 C598 0.961 . S
H613 C599 0.958 1_545 S
H614 C599 0.961 . S
H615 C599 0.960 . S
C105 C5 1.906 . S
C113 C31 1.873 . S
C137 C44 1.895 . S
C145 C18 1.871 . S
C169 C83 1.850 . S
C177 C57 1.896 . S
C201 C70 1.848 . S
C209 C96 1.896 . S
C233 C79 1.558 . S
C241 C1 1.556 . S
C265 C14 1.556 . S
C273 C92 1.548 . S
C297 C27 1.539 . S
C305 C53 1.553 . S
C329 C66 1.545 . S
C337 C40 1.560 . S
C361 C3 1.625 . S
C369 C68 1.636 . S
C393 C81 1.651 . S
C401 C16 1.646 . S
C425 C94 1.650 . S
C433 C29 1.648 . S
C457 C42 1.652 . S
C465 C55 1.648 . S
C489 C10 1.411 . S
C497 C36 1.444 . S
C521 C49 1.391 . S
C529 C23 1.452 . S
C553 C88 1.471 . S
C561 C62 1.419 . S
C585 C101 1.444 . S
C593 C75 1.430 . S
