# Generated by pormake.
# Topology cha, (4)-cn, num edge types: 1
# Building blocks:
#     Node 0, Type 0, BuildingBlock: NAHDIM_clean_sbu_0, # of connection points: 4
#     Node 1, Type 0, BuildingBlock: NAHDIM_clean_sbu_0, # of connection points: 4
#     Node 2, Type 0, BuildingBlock: NAHDIM_clean_sbu_0, # of connection points: 4
#     Node 3, Type 0, BuildingBlock: NAHDIM_clean_sbu_0, # of connection points: 4
#     Node 4, Type 0, BuildingBlock: NAHDIM_clean_sbu_0, # of connection points: 4
#     Node 5, Type 0, BuildingBlock: NAHDIM_clean_sbu_0, # of connection points: 4
#     Node 6, Type 0, BuildingBlock: NAHDIM_clean_sbu_0, # of connection points: 4
#     Node 7, Type 0, BuildingBlock: NAHDIM_clean_sbu_0, # of connection points: 4
#     Node 8, Type 0, BuildingBlock: NAHDIM_clean_sbu_0, # of connection points: 4
#     Node 9, Type 0, BuildingBlock: NAHDIM_clean_sbu_0, # of connection points: 4
#     Node 10, Type 0, BuildingBlock: NAHDIM_clean_sbu_0, # of connection points: 4
#     Node 11, Type 0, BuildingBlock: NAHDIM_clean_sbu_0, # of connection points: 4
#     Node 12, Type 0, BuildingBlock: NAHDIM_clean_sbu_0, # of connection points: 4
#     Node 13, Type 0, BuildingBlock: NAHDIM_clean_sbu_0, # of connection points: 4
#     Node 14, Type 0, BuildingBlock: NAHDIM_clean_sbu_0, # of connection points: 4
#     Node 15, Type 0, BuildingBlock: NAHDIM_clean_sbu_0, # of connection points: 4
#     Node 16, Type 0, BuildingBlock: NAHDIM_clean_sbu_0, # of connection points: 4
#     Node 17, Type 0, BuildingBlock: NAHDIM_clean_sbu_0, # of connection points: 4
#     Node 18, Type 0, BuildingBlock: NAHDIM_clean_sbu_0, # of connection points: 4
#     Node 19, Type 0, BuildingBlock: NAHDIM_clean_sbu_0, # of connection points: 4
#     Node 20, Type 0, BuildingBlock: NAHDIM_clean_sbu_0, # of connection points: 4
#     Node 21, Type 0, BuildingBlock: NAHDIM_clean_sbu_0, # of connection points: 4
#     Node 22, Type 0, BuildingBlock: NAHDIM_clean_sbu_0, # of connection points: 4
#     Node 23, Type 0, BuildingBlock: NAHDIM_clean_sbu_0, # of connection points: 4
#     Node 24, Type 0, BuildingBlock: NAHDIM_clean_sbu_0, # of connection points: 4
#     Node 25, Type 0, BuildingBlock: NAHDIM_clean_sbu_0, # of connection points: 4
#     Node 26, Type 0, BuildingBlock: NAHDIM_clean_sbu_0, # of connection points: 4
#     Node 27, Type 0, BuildingBlock: NAHDIM_clean_sbu_0, # of connection points: 4
#     Node 28, Type 0, BuildingBlock: NAHDIM_clean_sbu_0, # of connection points: 4
#     Node 29, Type 0, BuildingBlock: NAHDIM_clean_sbu_0, # of connection points: 4
#     Node 30, Type 0, BuildingBlock: NAHDIM_clean_sbu_0, # of connection points: 4
#     Node 31, Type 0, BuildingBlock: NAHDIM_clean_sbu_0, # of connection points: 4
#     Node 32, Type 0, BuildingBlock: NAHDIM_clean_sbu_0, # of connection points: 4
#     Node 33, Type 0, BuildingBlock: NAHDIM_clean_sbu_0, # of connection points: 4
#     Node 34, Type 0, BuildingBlock: NAHDIM_clean_sbu_0, # of connection points: 4
#     Node 35, Type 0, BuildingBlock: NAHDIM_clean_sbu_0, # of connection points: 4
#     Edge 36, Type (0, 0), BuildingBlock: ZUJKAS_clean_linker_0, # of connection points: 2
#     Edge 37, Type (0, 0), BuildingBlock: ZUJKAS_clean_linker_0, # of connection points: 2
#     Edge 38, Type (0, 0), BuildingBlock: ZUJKAS_clean_linker_0, # of connection points: 2
#     Edge 39, Type (0, 0), BuildingBlock: ZUJKAS_clean_linker_0, # of connection points: 2
#     Edge 40, Type (0, 0), BuildingBlock: ZUJKAS_clean_linker_0, # of connection points: 2
#     Edge 41, Type (0, 0), BuildingBlock: ZUJKAS_clean_linker_0, # of connection points: 2
#     Edge 42, Type (0, 0), BuildingBlock: ZUJKAS_clean_linker_0, # of connection points: 2
#     Edge 43, Type (0, 0), BuildingBlock: ZUJKAS_clean_linker_0, # of connection points: 2
#     Edge 44, Type (0, 0), BuildingBlock: ZUJKAS_clean_linker_0, # of connection points: 2
#     Edge 45, Type (0, 0), BuildingBlock: ZUJKAS_clean_linker_0, # of connection points: 2
#     Edge 46, Type (0, 0), BuildingBlock: ZUJKAS_clean_linker_0, # of connection points: 2
#     Edge 47, Type (0, 0), BuildingBlock: ZUJKAS_clean_linker_0, # of connection points: 2
#     Edge 48, Type (0, 0), BuildingBlock: ZUJKAS_clean_linker_0, # of connection points: 2
#     Edge 49, Type (0, 0), BuildingBlock: ZUJKAS_clean_linker_0, # of connection points: 2
#     Edge 50, Type (0, 0), BuildingBlock: ZUJKAS_clean_linker_0, # of connection points: 2
#     Edge 51, Type (0, 0), BuildingBlock: ZUJKAS_clean_linker_0, # of connection points: 2
#     Edge 52, Type (0, 0), BuildingBlock: ZUJKAS_clean_linker_0, # of connection points: 2
#     Edge 53, Type (0, 0), BuildingBlock: ZUJKAS_clean_linker_0, # of connection points: 2
#     Edge 54, Type (0, 0), BuildingBlock: ZUJKAS_clean_linker_0, # of connection points: 2
#     Edge 55, Type (0, 0), BuildingBlock: ZUJKAS_clean_linker_0, # of connection points: 2
#     Edge 56, Type (0, 0), BuildingBlock: ZUJKAS_clean_linker_0, # of connection points: 2
#     Edge 57, Type (0, 0), BuildingBlock: ZUJKAS_clean_linker_0, # of connection points: 2
#     Edge 58, Type (0, 0), BuildingBlock: ZUJKAS_clean_linker_0, # of connection points: 2
#     Edge 59, Type (0, 0), BuildingBlock: ZUJKAS_clean_linker_0, # of connection points: 2
#     Edge 60, Type (0, 0), BuildingBlock: ZUJKAS_clean_linker_0, # of connection points: 2
#     Edge 61, Type (0, 0), BuildingBlock: ZUJKAS_clean_linker_0, # of connection points: 2
#     Edge 62, Type (0, 0), BuildingBlock: ZUJKAS_clean_linker_0, # of connection points: 2
#     Edge 63, Type (0, 0), BuildingBlock: ZUJKAS_clean_linker_0, # of connection points: 2
#     Edge 64, Type (0, 0), BuildingBlock: ZUJKAS_clean_linker_0, # of connection points: 2
#     Edge 65, Type (0, 0), BuildingBlock: ZUJKAS_clean_linker_0, # of connection points: 2
#     Edge 66, Type (0, 0), BuildingBlock: ZUJKAS_clean_linker_0, # of connection points: 2
#     Edge 67, Type (0, 0), BuildingBlock: ZUJKAS_clean_linker_0, # of connection points: 2
#     Edge 68, Type (0, 0), BuildingBlock: ZUJKAS_clean_linker_0, # of connection points: 2
#     Edge 69, Type (0, 0), BuildingBlock: ZUJKAS_clean_linker_0, # of connection points: 2
#     Edge 70, Type (0, 0), BuildingBlock: ZUJKAS_clean_linker_0, # of connection points: 2
#     Edge 71, Type (0, 0), BuildingBlock: ZUJKAS_clean_linker_0, # of connection points: 2
#     Edge 72, Type (0, 0), BuildingBlock: ZUJKAS_clean_linker_0, # of connection points: 2
#     Edge 73, Type (0, 0), BuildingBlock: ZUJKAS_clean_linker_0, # of connection points: 2
#     Edge 74, Type (0, 0), BuildingBlock: ZUJKAS_clean_linker_0, # of connection points: 2
#     Edge 75, Type (0, 0), BuildingBlock: ZUJKAS_clean_linker_0, # of connection points: 2
#     Edge 76, Type (0, 0), BuildingBlock: ZUJKAS_clean_linker_0, # of connection points: 2
#     Edge 77, Type (0, 0), BuildingBlock: ZUJKAS_clean_linker_0, # of connection points: 2
#     Edge 78, Type (0, 0), BuildingBlock: ZUJKAS_clean_linker_0, # of connection points: 2
#     Edge 79, Type (0, 0), BuildingBlock: ZUJKAS_clean_linker_0, # of connection points: 2
#     Edge 80, Type (0, 0), BuildingBlock: ZUJKAS_clean_linker_0, # of connection points: 2
#     Edge 81, Type (0, 0), BuildingBlock: ZUJKAS_clean_linker_0, # of connection points: 2
#     Edge 82, Type (0, 0), BuildingBlock: ZUJKAS_clean_linker_0, # of connection points: 2
#     Edge 83, Type (0, 0), BuildingBlock: ZUJKAS_clean_linker_0, # of connection points: 2
#     Edge 84, Type (0, 0), BuildingBlock: ZUJKAS_clean_linker_0, # of connection points: 2
#     Edge 85, Type (0, 0), BuildingBlock: ZUJKAS_clean_linker_0, # of connection points: 2
#     Edge 86, Type (0, 0), BuildingBlock: ZUJKAS_clean_linker_0, # of connection points: 2
#     Edge 87, Type (0, 0), BuildingBlock: ZUJKAS_clean_linker_0, # of connection points: 2
#     Edge 88, Type (0, 0), BuildingBlock: ZUJKAS_clean_linker_0, # of connection points: 2
#     Edge 89, Type (0, 0), BuildingBlock: ZUJKAS_clean_linker_0, # of connection points: 2
#     Edge 90, Type (0, 0), BuildingBlock: ZUJKAS_clean_linker_0, # of connection points: 2
#     Edge 91, Type (0, 0), BuildingBlock: ZUJKAS_clean_linker_0, # of connection points: 2
#     Edge 92, Type (0, 0), BuildingBlock: ZUJKAS_clean_linker_0, # of connection points: 2
#     Edge 93, Type (0, 0), BuildingBlock: ZUJKAS_clean_linker_0, # of connection points: 2
#     Edge 94, Type (0, 0), BuildingBlock: ZUJKAS_clean_linker_0, # of connection points: 2
#     Edge 95, Type (0, 0), BuildingBlock: ZUJKAS_clean_linker_0, # of connection points: 2
#     Edge 96, Type (0, 0), BuildingBlock: ZUJKAS_clean_linker_0, # of connection points: 2
#     Edge 97, Type (0, 0), BuildingBlock: ZUJKAS_clean_linker_0, # of connection points: 2
#     Edge 98, Type (0, 0), BuildingBlock: ZUJKAS_clean_linker_0, # of connection points: 2
#     Edge 99, Type (0, 0), BuildingBlock: ZUJKAS_clean_linker_0, # of connection points: 2
#     Edge 100, Type (0, 0), BuildingBlock: ZUJKAS_clean_linker_0, # of connection points: 2
#     Edge 101, Type (0, 0), BuildingBlock: ZUJKAS_clean_linker_0, # of connection points: 2
#     Edge 102, Type (0, 0), BuildingBlock: ZUJKAS_clean_linker_0, # of connection points: 2
#     Edge 103, Type (0, 0), BuildingBlock: ZUJKAS_clean_linker_0, # of connection points: 2
#     Edge 104, Type (0, 0), BuildingBlock: ZUJKAS_clean_linker_0, # of connection points: 2
#     Edge 105, Type (0, 0), BuildingBlock: ZUJKAS_clean_linker_0, # of connection points: 2
#     Edge 106, Type (0, 0), BuildingBlock: ZUJKAS_clean_linker_0, # of connection points: 2
#     Edge 107, Type (0, 0), BuildingBlock: ZUJKAS_clean_linker_0, # of connection points: 2
# Relax obj value: 0.157
# Max RMSD: 0.151
# Mean RMSD: 0.151
data_MOF--net-cha--node1-NAHDIM_clean_sbu_0--edge1-ZUJKAS_clean_linker_0
_symmetry_space_group_name_H-M    P1
_symmetry_Int_Tables_number       1
_symmetry_cell_setting            triclinic
loop_
_symmetry_equiv_pos_as_xyz
'x, y, z'
_cell_length_a     80.120255
_cell_length_b     80.147277
_cell_length_c     98.89234
_cell_angle_alpha  90.011473
_cell_angle_beta   89.98966
_cell_angle_gamma 120.00599
loop_
_atom_site_label
_atom_site_type_symbol
_atom_site_fract_x
_atom_site_fract_y
_atom_site_fract_z
_atom_type_partial_charge
C0 C 0.03496 0.29036 0.11998 0.0
O1 O 0.03519 0.27485 0.12402 0.0
O2 O 0.05136 0.26723 0.09655 0.0
Zn3 Zn 0.02854 0.2711 0.09494 0.0
O4 O 0.00391 0.24687 0.0997 0.0
C5 C 0.04084 0.29006 0.06895 0.0
O6 O 0.05811 0.29818 0.0744 0.0
O7 O 0.03229 0.29217 0.10754 0.0
C8 C 0.99503 0.23446 0.0905 0.0
O9 O 0.0024 0.23764 0.07826 0.0
C10 C 0.05015 0.25109 0.09897 0.0
O11 O 0.03311 0.23566 0.10039 0.0
O12 O 0.02636 0.27844 0.07594 0.0
C13 C 0.76225 0.76898 0.12142 0.0
O14 O 0.77814 0.78388 0.12592 0.0
O15 O 0.78243 0.81241 0.10052 0.0
Zn16 Zn 0.77982 0.78656 0.09666 0.0
O17 O 0.80512 0.78762 0.09993 0.0
C18 C 0.77644 0.79265 0.06842 0.0
O19 O 0.78375 0.81056 0.07252 0.0
O20 O 0.75948 0.76675 0.10875 0.0
C21 C 0.81996 0.80021 0.09367 0.0
O22 O 0.81833 0.81228 0.08554 0.0
C23 C 0.79489 0.82483 0.1085 0.0
O24 O 0.80677 0.82083 0.11498 0.0
O25 O 0.77286 0.77957 0.07708 0.0
C26 C 0.2816 0.00791 0.11424 0.0
O27 O 0.26506 0.99168 0.11424 0.0
O28 O 0.23715 -0.00142 0.09955 0.0
Zn29 Zn 0.26286 0.02171 0.09566 0.0
O30 O 0.26141 0.04553 0.09935 0.0
C31 C 0.2652 0.00698 0.06941 0.0
O32 O 0.25621 0.99015 0.07546 0.0
O33 O 0.28357 0.02199 0.10713 0.0
C34 C 0.24876 0.04775 0.09315 0.0
O35 O 0.23694 0.03423 0.0848 0.0
C36 C 0.22824 0.9972 0.1105 0.0
O37 O 0.23621 0.01107 0.1195 0.0
O38 O 0.26951 0.02212 0.07612 0.0
C39 C 0.29284 0.03281 0.87459 0.0
O40 O 0.27852 0.03397 0.86911 0.0
O41 O 0.27046 0.05442 0.89531 0.0
Zn42 Zn 0.2723 0.03065 0.89873 0.0
O43 O 0.24701 0.00692 0.8944 0.0
C44 C 0.27391 0.03774 0.92739 0.0
O45 O 0.26678 0.04869 0.92378 0.0
O46 O 0.29333 0.03132 0.88735 0.0
C47 C 0.23186 0.00462 0.90023 0.0
O48 O 0.23318 0.01796 0.90859 0.0
C49 C 0.25876 0.05483 0.88682 0.0
O50 O 0.24755 0.03933 0.87974 0.0
O51 O 0.27792 0.02904 0.91834 0.0
C52 C 0.0036 0.28678 0.88062 0.0
O53 O 0.98765 0.27 0.88109 0.0
O54 O 0.99481 0.24406 0.89743 0.0
Zn55 Zn 0.01871 0.26979 0.89966 0.0
O56 O 0.04173 0.26732 0.89494 0.0
C57 C 0.00783 0.27325 0.92707 0.0
O58 O 0.99018 0.26169 0.92279 0.0
O59 O 0.01805 0.28958 0.88766 0.0
C60 C 0.0442 0.25496 0.90132 0.0
O61 O 0.03146 0.24413 0.91046 0.0
C62 C 0.99267 0.23386 0.88703 0.0
O63 O 0.00622 0.24044 0.87775 0.0
O64 O 0.02183 0.27856 0.91892 0.0
C65 C 0.76922 0.74781 0.88012 0.0
O66 O 0.7851 0.74685 0.88062 0.0
O67 O 0.8145 0.78199 0.89318 0.0
Zn68 Zn 0.78956 0.78048 0.89823 0.0
O69 O 0.79151 0.80619 0.89513 0.0
C70 C 0.79711 0.77909 0.92647 0.0
O71 O 0.81508 0.78852 0.9223 0.0
O72 O 0.76807 0.76071 0.88686 0.0
C73 C 0.80621 0.82167 0.89904 0.0
O74 O 0.82041 0.82078 0.90497 0.0
C75 C 0.8233 0.79014 0.88233 0.0
O76 O 0.81587 0.79771 0.87422 0.0
O77 O 0.78361 0.77369 0.91786 0.0
C78 C 0.01464 0.7523 0.87996 0.0
O79 O 0.99735 0.7499 0.8819 0.0
O80 O 0.00319 0.78692 0.89101 0.0
Zn81 Zn 0.027 0.78634 0.89641 0.0
O82 O 0.05053 0.81209 0.89306 0.0
C83 C 0.01647 0.78474 0.92425 0.0
O84 O 0.00707 0.79293 0.91937 0.0
O85 O 0.02912 0.76656 0.88539 0.0
C86 C 0.05181 0.82753 0.89755 0.0
O87 O 0.03724 0.82665 0.90427 0.0
C88 C 0.00212 0.79549 0.88053 0.0
O89 O 0.01728 0.80467 0.87267 0.0
O90 O 0.02589 0.78015 0.91621 0.0
C91 C 0.28259 0.28349 0.87501 0.0
O92 O 0.26811 0.26831 0.86938 0.0
O93 O 0.25983 0.24055 0.89666 0.0
Zn94 Zn 0.26124 0.26606 0.89914 0.0
O95 O 0.23603 0.26426 0.89437 0.0
C96 C 0.28115 0.27414 0.92448 0.0
O97 O 0.29204 0.26904 0.91775 0.0
O98 O 0.28263 0.28573 0.88772 0.0
C99 C 0.22119 0.25242 0.90099 0.0
O100 O 0.22294 0.24173 0.91033 0.0
C101 C 0.24851 0.22785 0.88833 0.0
O102 O 0.23682 0.23118 0.88098 0.0
O103 O 0.26704 0.27399 0.91851 0.0
C104 C 0.76515 0.03619 0.88511 0.0
O105 O 0.78009 0.05327 0.88752 0.0
O106 O 0.81033 0.04699 0.8985 0.0
Zn107 Zn 0.78571 0.02213 0.90137 0.0
O108 O 0.78931 -0.00019 0.89659 0.0
C109 C 0.78136 0.03401 0.92803 0.0
O110 O 0.79014 0.05128 0.92259 0.0
O111 O 0.76468 0.02129 0.88997 0.0
C112 C 0.80371 -0.00098 0.90118 0.0
O113 O 0.81636 0.01323 0.90873 0.0
C114 C 0.82005 0.05044 0.88768 0.0
O115 O 0.81396 0.03729 0.87813 0.0
O116 O 0.77795 0.01953 0.92083 0.0
C117 C 0.74943 0.01133 0.11675 0.0
O118 O 0.75233 0.99661 0.11736 0.0
O119 O 0.7841 0.00386 0.09999 0.0
Zn120 Zn 0.78119 0.02708 0.09752 0.0
O121 O 0.80602 0.05086 0.10233 0.0
C122 C 0.76378 0.01403 0.07141 0.0
O123 O 0.75483 0.99726 0.07757 0.0
O124 O 0.75986 0.02544 0.10903 0.0
C125 C 0.80882 0.0672 0.09853 0.0
O126 O 0.79516 0.06814 0.09182 0.0
C127 C 0.79478 0.00289 0.10907 0.0
O128 O 0.80422 0.0175 0.11734 0.0
O129 O 0.77554 0.02887 0.07804 0.0
C130 C 0.03898 0.76754 0.11369 0.0
O131 O 0.05558 0.78368 0.11308 0.0
O132 O 0.04846 0.81258 0.10065 0.0
Zn133 Zn 0.0254 0.78717 0.09593 0.0
O134 O 0.00127 0.78836 0.09922 0.0
C135 C 0.03486 0.79557 0.06793 0.0
O136 O 0.0435 0.81331 0.07255 0.0
O137 O 0.02462 0.766 0.10717 0.0
C138 C 0.00032 0.80298 0.09535 0.0
O139 O 0.01541 0.81735 0.08955 0.0
C140 C 0.05036 0.82141 0.11171 0.0
O141 O 0.03683 0.81354 0.12096 0.0
O142 O 0.02631 0.78166 0.07618 0.0
C143 C 0.28439 0.29845 0.11519 0.0
O144 O 0.26666 0.29521 0.11616 0.0
O145 O 0.2432 0.26695 0.09549 0.0
Zn146 Zn 0.26932 0.26949 0.09376 0.0
O147 O 0.26712 0.24389 0.09751 0.0
C148 C 0.27333 0.28617 0.06731 0.0
O149 O 0.26162 0.29163 0.0723 0.0
O150 O 0.28837 0.28927 0.1065 0.0
C151 C 0.25529 0.22951 0.09051 0.0
O152 O 0.24489 0.23195 0.08129 0.0
C153 C 0.23112 0.25633 0.10441 0.0
O154 O 0.23596 0.24705 0.11307 0.0
O155 O 0.27876 0.27686 0.07474 0.0
C156 C 0.68594 0.60253 0.45328 0.0
O157 O 0.67656 0.58373 0.45479 0.0
O158 O 0.7182 0.5888 0.42938 0.0
Zn159 Zn 0.69514 0.59222 0.42785 0.0
O160 O 0.67108 0.56645 0.42937 0.0
C161 C 0.70938 0.61171 0.40214 0.0
O162 O 0.72598 0.61419 0.40643 0.0
O163 O 0.69542 0.60976 0.44248 0.0
C164 C 0.66812 0.55281 0.42141 0.0
O165 O 0.68118 0.55566 0.41226 0.0
C166 C 0.72096 0.5812 0.43979 0.0
O167 O 0.70854 0.57563 0.44979 0.0
O168 O 0.69462 0.60312 0.40968 0.0
C169 C 0.4324 0.10042 0.45356 0.0
O170 O 0.44863 0.1155 0.45746 0.0
O171 O 0.45167 0.14196 0.43179 0.0
Zn172 Zn 0.4486 0.11596 0.42815 0.0
O173 O 0.47396 0.11678 0.43081 0.0
C174 C 0.42822 0.11226 0.40317 0.0
O175 O 0.42132 0.12168 0.40983 0.0
O176 O 0.42899 0.09723 0.44101 0.0
C177 C 0.48512 0.12023 0.42076 0.0
O178 O 0.47985 0.12318 0.40883 0.0
C179 C 0.46438 0.15713 0.42593 0.0
O180 O 0.47613 0.15593 0.41723 0.0
O181 O 0.43964 0.108 0.40912 0.0
C182 C 0.95504 0.3484 0.45606 0.0
O183 O 0.93954 0.3476 0.4612 0.0
O184 O 0.91105 0.32779 0.43701 0.0
Zn185 Zn 0.93697 0.35001 0.43187 0.0
O186 O 0.93741 0.37515 0.43454 0.0
C187 C 0.92862 0.33781 0.40411 0.0
O188 O 0.91099 0.32768 0.40885 0.0
O189 O 0.9573 0.34951 0.44332 0.0
C190 C 0.92672 0.37877 0.42705 0.0
O191 O 0.91566 0.36593 0.41804 0.0
C192 C 0.89862 0.32953 0.44391 0.0
O193 O 0.90273 0.3466 0.44839 0.0
O194 O 0.94229 0.34809 0.4122 0.0
C195 C 0.97088 0.37049 0.21643 0.0
O196 O 0.97225 0.3874 0.21806 0.0
O197 O 0.9359 0.3808 0.22847 0.0
Zn198 Zn 0.93682 0.35691 0.23308 0.0
O199 O 0.91112 0.33341 0.22934 0.0
C200 C 0.93807 0.36567 0.26133 0.0
O201 O 0.92969 0.3752 0.25706 0.0
O202 O 0.95708 0.35572 0.22197 0.0
C203 C 0.89577 0.33229 0.23392 0.0
O204 O 0.89692 0.34681 0.24085 0.0
C205 C 0.92682 0.38184 0.21828 0.0
O206 O 0.91758 0.36678 0.21035 0.0
O207 O 0.94286 0.35697 0.25279 0.0
C208 C 0.68469 0.62281 0.21735 0.0
O209 O 0.66793 0.60712 0.21906 0.0
O210 O 0.67439 0.57861 0.23165 0.0
Zn211 Zn 0.69879 0.60359 0.23489 0.0
O212 O 0.72151 0.60036 0.23069 0.0
C213 C 0.68779 0.61315 0.26039 0.0
O214 O 0.67258 0.61063 0.25363 0.0
O215 O 0.69953 0.62436 0.22319 0.0
C216 C 0.72262 0.58679 0.23647 0.0
O217 O 0.70875 0.57526 0.24472 0.0
C218 C 0.67265 0.5684 0.22134 0.0
O219 O 0.6871 0.57433 0.21281 0.0
O220 O 0.70058 0.61099 0.25438 0.0
C221 C 0.42867 0.10052 0.20801 0.0
O222 O 0.44207 0.11717 0.20321 0.0
O223 O 0.47314 0.11851 0.22981 0.0
Zn224 Zn 0.44789 0.11764 0.23271 0.0
O225 O 0.4505 0.14349 0.22878 0.0
C226 C 0.45177 0.11457 0.26135 0.0
O227 O 0.47004 0.12209 0.25815 0.0
O228 O 0.42808 0.09739 0.22063 0.0
C229 C 0.46401 0.15836 0.23444 0.0
O230 O 0.47611 0.15645 0.24236 0.0
C231 C 0.48543 0.12924 0.22103 0.0
O232 O 0.48171 0.14038 0.21337 0.0
O233 O 0.4395 0.111 0.25205 0.0
C234 C 0.68782 0.09682 0.21007 0.0
O235 O 0.69004 0.11297 0.20504 0.0
O236 O 0.66471 0.11763 0.2319 0.0
Zn237 Zn 0.68849 0.11559 0.23463 0.0
O238 O 0.71232 0.14067 0.23008 0.0
C239 C 0.68267 0.1137 0.26345 0.0
O240 O 0.67228 0.12169 0.26039 0.0
O241 O 0.68685 0.09454 0.22281 0.0
C242 C 0.71506 0.1561 0.2357 0.0
O243 O 0.70199 0.15535 0.24409 0.0
C244 C 0.66376 0.12886 0.22326 0.0
O245 O 0.67886 0.13979 0.21573 0.0
O246 O 0.69064 0.10944 0.25401 0.0
C247 C 0.95625 0.61518 0.20521 0.0
O248 O 0.94036 0.60066 0.20034 0.0
O249 O 0.93734 0.57078 0.22584 0.0
Zn250 Zn 0.93896 0.59615 0.22986 0.0
O251 O 0.91327 0.59429 0.22675 0.0
C252 C 0.94289 0.59073 0.25824 0.0
O253 O 0.93568 0.57269 0.2545 0.0
O254 O 0.95898 0.6165 0.2179 0.0
C255 C 0.89859 0.5813 0.23292 0.0
O256 O 0.90058 0.56919 0.24078 0.0
C257 C 0.92554 0.55867 0.2174 0.0
O258 O 0.9137 0.56262 0.21082 0.0
O259 O 0.94604 0.60341 0.24934 0.0
C260 C 0.43804 0.36936 0.20548 0.0
O261 O 0.45398 0.37181 0.19988 0.0
O262 O 0.48174 0.3903 0.2261 0.0
Zn263 Zn 0.45621 0.36658 0.22973 0.0
O264 O 0.45756 0.34253 0.22619 0.0
C265 C 0.4616 0.37463 0.2583 0.0
O266 O 0.47989 0.38391 0.25489 0.0
O267 O 0.43581 0.36681 0.21817 0.0
C268 C 0.47069 0.34048 0.23181 0.0
O269 O 0.48344 0.35442 0.23948 0.0
C270 C 0.494 0.39106 0.2176 0.0
O271 O 0.49007 0.37567 0.21049 0.0
O272 O 0.44889 0.36632 0.24919 0.0
C273 C 0.42871 0.35978 0.45209 0.0
O274 O 0.44474 0.36069 0.4562 0.0
O275 O 0.4442 0.33177 0.43121 0.0
Zn276 Zn 0.44305 0.35567 0.42688 0.0
O277 O 0.46944 0.3791 0.42861 0.0
C278 C 0.43537 0.34306 0.39921 0.0
O279 O 0.4412 0.33126 0.40339 0.0
O280 O 0.42468 0.35767 0.43957 0.0
C281 C 0.48262 0.38081 0.4206 0.0
O282 O 0.47863 0.36716 0.41169 0.0
C283 C 0.45797 0.3318 0.43759 0.0
O284 O 0.47215 0.34812 0.44223 0.0
O285 O 0.43436 0.35452 0.40762 0.0
C286 C 0.69424 0.09998 0.45581 0.0
O287 O 0.68897 0.11244 0.45944 0.0
O288 O 0.71836 0.14361 0.43284 0.0
Zn289 Zn 0.69591 0.11693 0.43037 0.0
O290 O 0.67117 0.11705 0.43324 0.0
C291 C 0.71119 0.11307 0.40481 0.0
O292 O 0.72791 0.12333 0.41085 0.0
O293 O 0.69802 0.09903 0.44347 0.0
C294 C 0.66676 0.12587 0.42455 0.0
O295 O 0.67862 0.13461 0.41444 0.0
C296 C 0.71809 0.15562 0.4411 0.0
O297 O 0.70253 0.15065 0.44831 0.0
O298 O 0.6958 0.1083 0.41135 0.0
C299 C 0.95357 0.61635 0.45153 0.0
O300 O 0.93897 0.60048 0.45636 0.0
O301 O 0.91114 0.59314 0.42982 0.0
Zn302 Zn 0.93759 0.5968 0.42688 0.0
O303 O 0.93781 0.57233 0.43094 0.0
C304 C 0.94041 0.61399 0.40071 0.0
O305 O 0.93081 0.62125 0.4067 0.0
O306 O 0.95621 0.61815 0.43883 0.0
C307 C 0.92823 0.55807 0.42313 0.0
O308 O 0.91857 0.55993 0.41307 0.0
C309 C 0.89815 0.57951 0.4368 0.0
O310 O 0.90179 0.56684 0.44244 0.0
O311 O 0.94512 0.60351 0.40747 0.0
C312 C 0.36606 0.95466 0.78281 0.0
O313 O 0.38285 0.95996 0.77722 0.0
O314 O 0.37695 0.92076 0.76713 0.0
Zn315 Zn 0.35227 0.92117 0.76545 0.0
O316 O 0.32972 0.89472 0.76841 0.0
C317 C 0.36486 0.94268 0.7406 0.0
O318 O 0.3817 0.95101 0.74667 0.0
O319 O 0.35139 0.93893 0.77923 0.0
C320 C 0.32772 0.88063 0.76131 0.0
O321 O 0.34087 0.88353 0.75222 0.0
C322 C 0.37957 0.91139 0.77644 0.0
O323 O 0.3657 0.90162 0.78519 0.0
O324 O 0.35021 0.92974 0.74681 0.0
C325 C 0.097 0.42612 0.78342 0.0
O326 O 0.11268 0.44075 0.78844 0.0
O327 O 0.12095 0.46863 0.76266 0.0
Zn328 Zn 0.11765 0.44246 0.75938 0.0
O329 O 0.14182 0.44221 0.76434 0.0
C330 C 0.10047 0.43964 0.73342 0.0
O331 O 0.09194 0.44759 0.73996 0.0
O332 O 0.09566 0.42348 0.77072 0.0
C333 C 0.15584 0.44921 0.75609 0.0
O334 O 0.15412 0.45645 0.7446 0.0
C335 C 0.13382 0.48122 0.77032 0.0
O336 O 0.14621 0.47747 0.77631 0.0
O337 O 0.11189 0.43577 0.73978 0.0
C338 C 0.61951 0.68957 0.78808 0.0
O339 O 0.60496 0.69059 0.79328 0.0
O340 O 0.57558 0.66918 0.76795 0.0
Zn341 Zn 0.60172 0.69183 0.76391 0.0
O342 O 0.60185 0.71651 0.76789 0.0
C343 C 0.59454 0.68258 0.73565 0.0
O344 O 0.57667 0.67246 0.73994 0.0
O345 O 0.6214 0.68999 0.77532 0.0
C346 C 0.59001 0.71981 0.76154 0.0
O347 O 0.57811 0.70695 0.75285 0.0
C348 C 0.56367 0.66952 0.77628 0.0
O349 O 0.5684 0.68539 0.78303 0.0
O350 O 0.60794 0.69182 0.74417 0.0
C351 C 0.6138 0.68993 0.54158 0.0
O352 O 0.59605 0.68497 0.53823 0.0
O353 O 0.60257 0.72572 0.5603 0.0
Zn354 Zn 0.60231 0.70132 0.56523 0.0
O355 O 0.57564 0.67842 0.56325 0.0
C356 C 0.60628 0.7117 0.59319 0.0
O357 O 0.59768 0.72108 0.58906 0.0
O358 O 0.62024 0.69771 0.55302 0.0
C359 C 0.56075 0.67787 0.56823 0.0
O360 O 0.56254 0.69294 0.57477 0.0
C361 C 0.59215 0.72672 0.55101 0.0
O362 O 0.58065 0.7112 0.54404 0.0
O363 O 0.61035 0.70246 0.58462 0.0
C364 C 0.34644 0.96017 0.55332 0.0
O365 O 0.32947 0.94461 0.55462 0.0
O366 O 0.33552 0.9151 0.56697 0.0
Zn367 Zn 0.35965 0.94005 0.57081 0.0
O368 O 0.38251 0.93691 0.56695 0.0
C369 C 0.34582 0.94143 0.59762 0.0
O370 O 0.32872 0.93086 0.59216 0.0
O371 O 0.36094 0.96121 0.55933 0.0
C372 C 0.38264 0.9222 0.57158 0.0
O373 O 0.36769 0.90939 0.5785 0.0
C374 C 0.33318 0.90639 0.55579 0.0
O375 O 0.34678 0.91397 0.54657 0.0
O376 O 0.36076 0.94703 0.59035 0.0
C377 C 0.1064 0.42985 0.5464 0.0
O378 O 0.1224 0.42958 0.54878 0.0
O379 O 0.14927 0.46679 0.56156 0.0
Zn380 Zn 0.12302 0.46362 0.56385 0.0
O381 O 0.1239 0.48855 0.5597 0.0
C382 C 0.11841 0.44556 0.58986 0.0
O383 O 0.1283 0.43843 0.58415 0.0
O384 O 0.10395 0.44292 0.55167 0.0
C385 C 0.13098 0.50186 0.56852 0.0
O386 O 0.13791 0.499 0.57977 0.0
C387 C 0.15903 0.47361 0.55081 0.0
O388 O 0.15181 0.47887 0.54086 0.0
O389 O 0.11437 0.45649 0.58304 0.0
C390 C 0.34591 0.42565 0.5486 0.0
O391 O 0.32973 0.42606 0.5483 0.0
O392 O 0.33514 0.45926 0.56422 0.0
Zn393 Zn 0.35847 0.45698 0.5681 0.0
O394 O 0.38205 0.48268 0.56491 0.0
C395 C 0.34339 0.44263 0.5948 0.0
O396 O 0.32682 0.43827 0.58922 0.0
O397 O 0.35953 0.43722 0.55627 0.0
C398 C 0.38337 0.49737 0.57082 0.0
O399 O 0.36917 0.49526 0.57863 0.0
C400 C 0.3337 0.4674 0.55362 0.0
O401 O 0.34768 0.47413 0.54465 0.0
O402 O 0.35856 0.45025 0.58762 0.0
C403 C 0.6352 0.95817 0.55365 0.0
O404 O 0.63654 0.94261 0.55524 0.0
O405 O 0.60045 0.91306 0.5664 0.0
Zn406 Zn 0.60124 0.93793 0.57048 0.0
O407 O 0.5754 0.93511 0.56654 0.0
C408 C 0.62032 0.94354 0.59629 0.0
O409 O 0.63095 0.93795 0.58973 0.0
O410 O 0.62145 0.95919 0.55924 0.0
C411 C 0.56046 0.92074 0.57143 0.0
O412 O 0.56242 0.90808 0.57867 0.0
C413 C 0.59281 0.90401 0.55553 0.0
O414 O 0.58534 0.91109 0.54703 0.0
O415 O 0.60699 0.94454 0.59006 0.0
C416 C 0.09717 0.71872 0.54661 0.0
O417 O 0.11397 0.73448 0.54526 0.0
O418 O 0.14223 0.73079 0.56178 0.0
Zn419 Zn 0.11713 0.70686 0.56559 0.0
O420 O 0.11963 0.68376 0.5611 0.0
C421 C 0.12433 0.70577 0.59318 0.0
O422 O 0.14003 0.70731 0.58778 0.0
O423 O 0.09542 0.7057 0.55478 0.0
C424 C 0.10763 0.66767 0.56632 0.0
O425 O 0.09377 0.66666 0.574 0.0
C426 C 0.15216 0.73263 0.55129 0.0
O427 O 0.14554 0.7187 0.5423 0.0
O428 O 0.11165 0.70574 0.58545 0.0
C429 C 0.08425 0.66931 0.78632 0.0
O430 O 0.09325 0.66073 0.79123 0.0
O431 O 0.11088 0.6524 0.76753 0.0
Zn432 Zn 0.10893 0.67588 0.76327 0.0
O433 O 0.13448 0.69964 0.76675 0.0
C434 C 0.10477 0.66555 0.73494 0.0
O435 O 0.10993 0.65319 0.73903 0.0
O436 O 0.08849 0.67661 0.77455 0.0
C437 C 0.14904 0.70179 0.76015 0.0
O438 O 0.14688 0.68834 0.75156 0.0
C439 C 0.12288 0.65273 0.77609 0.0
O440 O 0.134 0.66871 0.78275 0.0
O441 O 0.10289 0.67623 0.74358 0.0
C442 C 0.38151 0.43464 0.78592 0.0
O443 O 0.39458 0.45257 0.78857 0.0
O444 O 0.39002 0.47782 0.76997 0.0
Zn445 Zn 0.36746 0.45165 0.76625 0.0
O446 O 0.34291 0.45119 0.77119 0.0
C447 C 0.36262 0.45694 0.73882 0.0
O448 O 0.35982 0.47021 0.74443 0.0
O449 O 0.3691 0.43114 0.77672 0.0
C450 C 0.32711 0.43754 0.76667 0.0
O451 O 0.32735 0.42394 0.7594 0.0
C452 C 0.38986 0.48888 0.77911 0.0
O453 O 0.37451 0.48296 0.78675 0.0
O454 O 0.36662 0.44658 0.74634 0.0
C455 C 0.61788 0.95598 0.79129 0.0
O456 O 0.60351 0.93953 0.79557 0.0
O457 O 0.57618 0.93462 0.76758 0.0
Zn458 Zn 0.60281 0.93825 0.76588 0.0
O459 O 0.60222 0.91342 0.76996 0.0
C460 C 0.60612 0.9536 0.73889 0.0
O461 O 0.59321 0.95786 0.74326 0.0
O462 O 0.62061 0.95889 0.77866 0.0
C463 C 0.59193 0.89912 0.76235 0.0
O464 O 0.58207 0.9012 0.75253 0.0
C465 C 0.56346 0.92206 0.77535 0.0
O466 O 0.56763 0.91085 0.78253 0.0
O467 O 0.61242 0.94561 0.74688 0.0
H468 H 0.08735 0.2807 0.09865 0.0
H469 H 0.11669 0.27873 0.10073 0.0
H470 H 0.0826 0.21695 0.10449 0.0
H471 H 0.05304 0.21871 0.10238 0.0
H472 H 0.12717 0.26158 0.12279 0.0
H473 H 0.12123 0.22727 0.07269 0.0
H474 H 0.10808 0.23949 0.07673 0.0
H475 H 0.10043 0.216 0.08354 0.0
C476 C 0.08605 0.26666 0.0999 0.0
C477 C 0.06786 0.24984 0.10029 0.0
C478 C 0.10282 0.26559 0.10112 0.0
C479 C 0.10174 0.2477 0.10266 0.0
C480 C 0.08367 0.23087 0.10317 0.0
H481 H 0.20185 0.23535 0.12227 0.0
H482 H 0.16965 0.23183 0.12256 0.0
C483 C 0.06683 0.23192 0.102 0.0
C484 C 0.11967 0.24683 0.10365 0.0
H485 H 0.14803 0.23372 0.08618 0.0
C486 C 0.1317 0.25535 0.11487 0.0
C487 C 0.12549 0.2388 0.09321 0.0
C488 C 0.11326 0.22996 0.08079 0.0
C489 C 0.14963 0.25632 0.11583 0.0
C490 C 0.15551 0.24843 0.10534 0.0
C491 C 0.14335 0.23964 0.09422 0.0
C492 C 0.17481 0.2503 0.10526 0.0
C493 C 0.16245 0.26637 0.1278 0.0
C494 C 0.18818 0.26164 0.09533 0.0
C495 C 0.2065 0.26367 0.09512 0.0
C496 C 0.21176 0.25429 0.10481 0.0
C497 C 0.19827 0.24282 0.11471 0.0
C498 C 0.17991 0.24083 0.11492 0.0
H499 H 0.15722 0.27459 0.13378 0.0
H500 H 0.16281 0.25549 0.13454 0.0
H501 H 0.17742 0.27641 0.12442 0.0
H502 H 0.18445 0.26903 0.08778 0.0
H503 H 0.21652 0.27257 0.08733 0.0
H504 H 0.81741 0.99629 0.12655 0.0
H505 H 0.8208 0.96756 0.12774 0.0
H506 H 0.77959 0.94154 0.09539 0.0
H507 H 0.77625 0.9701 0.094 0.0
H508 H 0.79221 0.92889 0.13253 0.0
H509 H 0.82595 0.93753 0.08219 0.0
H510 H 0.8245 0.95683 0.09051 0.0
H511 H 0.80401 0.9384 0.08154 0.0
C512 C 0.80911 0.98446 0.11967 0.0
C513 C 0.79667 0.98552 0.11012 0.0
C514 C 0.81107 0.96809 0.12037 0.0
C515 C 0.80072 0.95264 0.11148 0.0
C516 C 0.78804 0.95352 0.10213 0.0
H517 H 0.77403 0.83819 0.0953 0.0
H518 H 0.77712 0.86998 0.09721 0.0
C519 C 0.78608 0.96983 0.10141 0.0
C520 C 0.80271 0.9353 0.11206 0.0
H521 H 0.81262 0.90634 0.09242 0.0
C522 C 0.79696 0.92407 0.12386 0.0
C523 C 0.80903 0.92918 0.10074 0.0
C524 C 0.81641 0.94121 0.08808 0.0
C525 C 0.79636 0.90627 0.12436 0.0
C526 C 0.80183 0.89977 0.11281 0.0
C527 C 0.8083 0.91137 0.10122 0.0
C528 C 0.7998 0.88045 0.11219 0.0
C529 C 0.7891 0.89415 0.13698 0.0
C530 C 0.81159 0.87591 0.12 0.0
C531 C 0.80989 0.85772 0.11893 0.0
C532 C 0.79638 0.84387 0.11002 0.0
C533 C 0.78454 0.84851 0.10228 0.0
C534 C 0.7863 0.86666 0.10334 0.0
H535 H 0.78275 0.89997 0.14428 0.0
H536 H 0.77807 0.87912 0.13438 0.0
H537 H 0.80125 0.89371 0.14203 0.0
H538 H 0.82226 0.8865 0.12677 0.0
H539 H 0.81925 0.8546 0.125 0.0
H540 H 0.06049 0.84398 0.1345 0.0
H541 H 0.08887 0.87612 0.13753 0.0
H542 H 0.10712 0.87407 0.09684 0.0
H543 H 0.07903 0.84225 0.09369 0.0
H544 H 0.12912 0.88701 0.13432 0.0
H545 H 0.10678 0.92558 0.09875 0.0
H546 H 0.08997 0.90236 0.10588 0.0
H547 H 0.10477 0.90401 0.09169 0.0
C548 C 0.07054 0.85042 0.1262 0.0
C549 C 0.06748 0.84061 0.11384 0.0
C550 C 0.0867 0.86874 0.12795 0.0
C551 C 0.09984 0.87752 0.11732 0.0
C552 C 0.09692 0.86766 0.10507 0.0
H553 H 0.20743 0.96722 0.09334 0.0
H554 H 0.17555 0.93934 0.09709 0.0
C555 C 0.0809 0.84941 0.10333 0.0
C556 C 0.11702 0.89679 0.11893 0.0
H557 H 0.14062 0.94093 0.10386 0.0
C558 C 0.13154 0.89899 0.12791 0.0
C559 C 0.11999 0.91235 0.11057 0.0
C560 C 0.10447 0.91106 0.10127 0.0
C561 C 0.14956 0.91598 0.12804 0.0
C562 C 0.1529 0.93106 0.11906 0.0
C563 C 0.13799 0.92925 0.11066 0.0
C564 C 0.17228 0.94797 0.11719 0.0
C565 C 0.16526 0.91731 0.13717 0.0
C566 C 0.18091 0.96205 0.12727 0.0
C567 C 0.19919 0.97809 0.12516 0.0
C568 C 0.20904 0.98022 0.11292 0.0
C569 C 0.20027 0.96602 0.10288 0.0
C570 C 0.18204 0.95009 0.10499 0.0
H571 H 0.16095 0.9035 0.14244 0.0
H572 H 0.17856 0.92151 0.13125 0.0
H573 H 0.16876 0.92862 0.14491 0.0
H574 H 0.17345 0.96072 0.1367 0.0
H575 H 0.20555 0.98881 0.13307 0.0
H576 H 0.2794 0.08897 0.90023 0.0
H577 H 0.2764 0.11772 0.89823 0.0
H578 H 0.23224 0.0895 0.86795 0.0
H579 H 0.23498 0.06052 0.86996 0.0
H580 H 0.28106 0.14028 0.87477 0.0
H581 H 0.20722 0.10781 0.89652 0.0
H582 H 0.22201 0.09681 0.89837 0.0
H583 H 0.21018 0.09509 0.8826 0.0
C584 C 0.26905 0.08884 0.89313 0.0
C585 C 0.25736 0.07242 0.8853 0.0
C586 C 0.26737 0.10529 0.892 0.0
C587 C 0.25394 0.1056 0.88307 0.0
C588 C 0.24247 0.08939 0.87506 0.0
H589 H 0.22605 0.19732 0.87177 0.0
H590 H 0.22719 0.1675 0.86912 0.0
C591 C 0.24413 0.0729 0.87618 0.0
C592 C 0.25208 0.12299 0.88222 0.0
H593 H 0.22177 0.14017 0.88945 0.0
C594 C 0.26808 0.14026 0.87791 0.0
C595 C 0.23506 0.12282 0.88625 0.0
C596 C 0.21765 0.1047 0.8913 0.0
C597 C 0.26762 0.15751 0.87771 0.0
C598 C 0.25083 0.15747 0.88215 0.0
C599 C 0.23461 0.14009 0.88607 0.0
C600 C 0.25022 0.1755 0.88358 0.0
C601 C 0.28511 0.17564 0.87278 0.0
C602 C 0.26259 0.18965 0.89274 0.0
C603 C 0.26198 0.20662 0.8943 0.0
C604 C 0.24889 0.20971 0.88676 0.0
C605 C 0.23634 0.19539 0.87769 0.0
C606 C 0.23695 0.17837 0.87616 0.0
H607 H 0.29438 0.17234 0.86625 0.0
H608 H 0.28088 0.18484 0.86702 0.0
H609 H 0.29383 0.184 0.88161 0.0
H610 H 0.27265 0.1875 0.89877 0.0
H611 H 0.27177 0.21731 0.90142 0.0
H612 H 0.96217 0.21637 0.90436 0.0
H613 H 0.93311 0.18497 0.90175 0.0
H614 H 0.95391 0.17716 0.8634 0.0
H615 H 0.98322 0.20854 0.86596 0.0
H616 H 0.90572 0.17247 0.88046 0.0
H617 H 0.94083 0.12777 0.88469 0.0
H618 H 0.95272 0.15274 0.88981 0.0
H619 H 0.95059 0.14658 0.87219 0.0
C620 C 0.96062 0.20798 0.89537 0.0
C621 C 0.97505 0.21491 0.88539 0.0
C622 C 0.944 0.19006 0.8939 0.0
C623 C 0.9415 0.1787 0.88246 0.0
C624 C 0.95574 0.18561 0.8724 0.0
H625 H 0.84539 0.06223 0.86643 0.0
H626 H 0.87471 0.09361 0.86357 0.0
C627 C 0.97243 0.20356 0.87386 0.0
C628 C 0.92382 0.15972 0.88113 0.0
H629 H 0.90721 0.11133 0.88139 0.0
C630 C 0.90603 0.1591 0.88057 0.0
C631 C 0.92435 0.14235 0.88119 0.0
C632 C 0.94311 0.14225 0.8821 0.0
C633 C 0.88866 0.1415 0.88035 0.0
C634 C 0.88916 0.12413 0.88092 0.0
C635 C 0.90695 0.12472 0.88098 0.0
C636 C 0.87137 0.10529 0.88244 0.0
C637 C 0.86991 0.14163 0.87961 0.0
C638 C 0.86003 0.10147 0.89407 0.0
C639 C 0.84339 0.08364 0.89576 0.0
C640 C 0.8378 0.06924 0.88584 0.0
C641 C 0.84928 0.07305 0.87423 0.0
C642 C 0.86601 0.09093 0.87257 0.0
H643 H 0.87202 0.1554 0.87539 0.0
H644 H 0.85919 0.12954 0.87329 0.0
H645 H 0.86388 0.13994 0.88995 0.0
H646 H 0.86416 0.11227 0.90192 0.0
H647 H 0.83492 0.08116 0.90485 0.0
H648 H 0.84103 0.77399 0.89622 0.0
H649 H 0.87176 0.77602 0.89106 0.0
H650 H 0.87813 0.81035 0.85579 0.0
H651 H 0.84727 0.80848 0.86089 0.0
H652 H 0.88261 0.76452 0.86582 0.0
H653 H 0.92868 0.84238 0.87858 0.0
H654 H 0.90411 0.82839 0.88446 0.0
H655 H 0.90889 0.83548 0.86706 0.0
C656 C 0.84892 0.78198 0.88735 0.0
C657 C 0.84175 0.79114 0.87899 0.0
C658 C 0.86645 0.78308 0.88441 0.0
C659 C 0.8772 0.79343 0.87312 0.0
C660 C 0.87007 0.80245 0.86463 0.0
H661 H 0.99523 0.8148 0.86036 0.0
H662 H 0.9649 0.81433 0.85569 0.0
C663 C 0.85244 0.80131 0.86755 0.0
C664 C 0.89596 0.79476 0.87048 0.0
H665 H 0.94439 0.82493 0.87398 0.0
C666 C 0.89615 0.77778 0.86738 0.0
C667 C 0.91354 0.81213 0.87241 0.0
C668 C 0.91397 0.83068 0.87587 0.0
C669 C 0.91349 0.77753 0.86678 0.0
C670 C 0.93098 0.79462 0.86959 0.0
C671 C 0.9309 0.81186 0.87187 0.0
C672 C 0.94909 0.79438 0.87182 0.0
C673 C 0.9129 0.75886 0.86349 0.0
C674 C 0.95022 0.78352 0.88252 0.0
C675 C 0.96742 0.78381 0.88525 0.0
C676 C 0.98389 0.79505 0.87734 0.0
C677 C 0.98276 0.80594 0.8666 0.0
C678 C 0.96548 0.8057 0.86391 0.0
H679 H 0.8999 0.74914 0.85748 0.0
H680 H 0.92593 0.76147 0.85779 0.0
H681 H 0.91234 0.75134 0.87305 0.0
H682 H 0.93783 0.77504 0.88893 0.0
H683 H 0.9678 0.7753 0.89362 0.0
H684 H 0.74709 0.58766 0.41986 0.0
H685 H 0.77563 0.58416 0.42126 0.0
H686 H 0.76217 0.56586 0.46278 0.0
H687 H 0.73349 0.56931 0.46151 0.0
H688 H 0.80141 0.59619 0.45747 0.0
H689 H 0.77745 0.53308 0.42351 0.0
H690 H 0.77428 0.55212 0.41673 0.0
H691 H 0.76083 0.53915 0.43141 0.0
C692 C 0.75012 0.5828 0.42928 0.0
C693 C 0.73802 0.57874 0.44058 0.0
C694 C 0.76636 0.5807 0.43003 0.0
C695 C 0.7708 0.57452 0.44206 0.0
C696 C 0.75884 0.57051 0.45338 0.0
H697 H 0.86561 0.54998 0.44817 0.0
H698 H 0.83414 0.54777 0.45085 0.0
C699 C 0.74249 0.57249 0.45262 0.0
C700 C 0.78847 0.57315 0.44293 0.0
H701 H 0.81102 0.55084 0.42879 0.0
C702 C 0.80346 0.58613 0.45134 0.0
C703 C 0.79096 0.55987 0.435 0.0
C704 C 0.77498 0.54512 0.42623 0.0
C705 C 0.82126 0.58675 0.45157 0.0
C706 C 0.82407 0.57414 0.44312 0.0
C707 C 0.8088 0.56057 0.43517 0.0
C708 C 0.84309 0.57557 0.44183 0.0
C709 C 0.83704 0.60105 0.46068 0.0
C710 C 0.85836 0.59184 0.43575 0.0
C711 C 0.87625 0.5931 0.43412 0.0
C712 C 0.87918 0.5781 0.43858 0.0
C713 C 0.86382 0.5618 0.44468 0.0
C714 C 0.84585 0.56049 0.44621 0.0
H715 H 0.83127 0.6064 0.46877 0.0
H716 H 0.84498 0.59452 0.46544 0.0
H717 H 0.84746 0.61359 0.45459 0.0
H718 H 0.85637 0.60349 0.43214 0.0
H719 H 0.88777 0.60585 0.42937 0.0
H720 H 0.42963 0.2954 0.43128 0.0
H721 H 0.43177 0.26607 0.43121 0.0
H722 H 0.49031 0.29821 0.44571 0.0
H723 H 0.48818 0.32761 0.4461 0.0
H724 H 0.45682 0.2604 0.41591 0.0
H725 H 0.4669 0.25122 0.4704 0.0
H726 H 0.45866 0.26717 0.46448 0.0
H727 H 0.48382 0.27448 0.46369 0.0
C728 C 0.44289 0.2962 0.43464 0.0
C729 C 0.45875 0.31383 0.43869 0.0
C730 C 0.44408 0.27943 0.43458 0.0
C731 C 0.46113 0.27995 0.43856 0.0
C732 C 0.47688 0.29743 0.44286 0.0
H733 H 0.48958 0.1923 0.41508 0.0
H734 H 0.48999 0.22273 0.41855 0.0
C735 C 0.47567 0.31423 0.44301 0.0
C736 C 0.46274 0.26242 0.43727 0.0
H737 H 0.47087 0.23066 0.45503 0.0
C738 C 0.45988 0.25388 0.42446 0.0
C739 C 0.46661 0.25392 0.44848 0.0
C740 C 0.469 0.26204 0.46257 0.0
C741 C 0.46074 0.23701 0.42253 0.0
C742 C 0.46499 0.22872 0.43367 0.0
C743 C 0.46783 0.23722 0.4465 0.0
C744 C 0.4657 0.21073 0.43227 0.0
C745 C 0.45661 0.22795 0.40865 0.0
C746 C 0.4523 0.19411 0.43919 0.0
C747 C 0.45208 0.17675 0.43729 0.0
C748 C 0.46532 0.17574 0.42847 0.0
C749 C 0.4791 0.19257 0.42186 0.0
C750 C 0.47932 0.20995 0.42379 0.0
H751 H 0.44921 0.23348 0.40208 0.0
H752 H 0.47039 0.23136 0.40372 0.0
H753 H 0.4475 0.21204 0.40934 0.0
H754 H 0.44171 0.19448 0.44581 0.0
H755 H 0.44133 0.16407 0.44258 0.0
H756 H 0.88697 0.29192 0.43846 0.0
H757 H 0.85455 0.26416 0.44069 0.0
H758 H 0.83413 0.30088 0.45645 0.0
H759 H 0.86663 0.32888 0.45432 0.0
H760 H 0.82885 0.25095 0.46571 0.0
H761 H 0.80104 0.27225 0.42114 0.0
H762 H 0.82646 0.2811 0.42354 0.0
H763 H 0.81432 0.29008 0.43391 0.0
C764 C 0.87564 0.29412 0.4425 0.0
C765 C 0.87933 0.31261 0.44615 0.0
C766 C 0.85716 0.27824 0.44379 0.0
C767 C 0.84204 0.28059 0.44864 0.0
C768 C 0.84568 0.29889 0.45262 0.0
H769 H 0.7246 0.18292 0.46025 0.0
H770 H 0.75383 0.21437 0.46322 0.0
C771 C 0.86423 0.31482 0.45142 0.0
C772 C 0.82235 0.26386 0.44895 0.0
H773 H 0.78016 0.24236 0.43122 0.0
C774 C 0.81805 0.24914 0.45834 0.0
C775 C 0.80848 0.26164 0.43921 0.0
C776 C 0.81269 0.27701 0.4288 0.0
C777 C 0.80026 0.23195 0.45802 0.0
C778 C 0.78662 0.22952 0.44805 0.0
C779 C 0.79071 0.24443 0.43889 0.0
C780 C 0.76877 0.21092 0.44619 0.0
C781 C 0.7964 0.21611 0.46794 0.0
C782 C 0.76759 0.19882 0.43557 0.0
C783 C 0.75106 0.18089 0.43388 0.0
C784 C 0.73535 0.17484 0.44274 0.0
C785 C 0.73646 0.18718 0.45326 0.0
C786 C 0.75311 0.2051 0.45499 0.0
H787 H 0.80898 0.21988 0.47458 0.0
H788 H 0.78387 0.21319 0.47438 0.0
H789 H 0.79266 0.20262 0.46241 0.0
H790 H 0.7796 0.20317 0.42869 0.0
H791 H 0.75063 0.17177 0.42565 0.0
H792 H 0.90532 0.38796 0.19948 0.0
H793 H 0.90443 0.41775 0.19565 0.0
H794 H 0.94656 0.44587 0.22719 0.0
H795 H 0.94759 0.41636 0.23108 0.0
H796 H 0.89506 0.43792 0.21578 0.0
H797 H 0.96832 0.48323 0.19453 0.0
H798 H 0.95636 0.45722 0.19491 0.0
H799 H 0.96788 0.47097 0.20985 0.0
C800 C 0.9145 0.40054 0.20552 0.0
C801 C 0.92654 0.39982 0.21557 0.0
C802 C 0.91396 0.4175 0.20332 0.0
C803 C 0.92564 0.43402 0.211 0.0
C804 C 0.93771 0.43335 0.22098 0.0
H805 H 0.94701 0.54565 0.23017 0.0
H806 H 0.94586 0.51492 0.22685 0.0
C807 C 0.93818 0.41643 0.22325 0.0
C808 C 0.92462 0.45177 0.20922 0.0
H809 H 0.95263 0.49987 0.20299 0.0
C810 C 0.9075 0.45144 0.21275 0.0
C811 C 0.9409 0.46929 0.20525 0.0
C812 C 0.95936 0.47024 0.20079 0.0
C813 C 0.90658 0.46846 0.21319 0.0
C814 C 0.92315 0.48613 0.20977 0.0
C815 C 0.93999 0.4863 0.20566 0.0
C816 C 0.9238 0.50478 0.2114 0.0
C817 C 0.88827 0.46757 0.21798 0.0
C818 C 0.91189 0.50929 0.2037 0.0
C819 C 0.91246 0.52685 0.20561 0.0
C820 C 0.92504 0.54019 0.21518 0.0
C821 C 0.93714 0.53569 0.22272 0.0
C822 C 0.93653 0.51816 0.22083 0.0
H823 H 0.87814 0.45344 0.22265 0.0
H824 H 0.89152 0.47913 0.22547 0.0
H825 H 0.8809 0.46977 0.20924 0.0
H826 H 0.9022 0.49925 0.19622 0.0
H827 H 0.90304 0.52994 0.19958 0.0
H828 H 0.66521 0.54127 0.20186 0.0
H829 H 0.63505 0.5109 0.19821 0.0
H830 H 0.60914 0.5239 0.2318 0.0
H831 H 0.63907 0.5542 0.23553 0.0
H832 H 0.61535 0.48035 0.21789 0.0
H833 H 0.57051 0.51085 0.20005 0.0
H834 H 0.59655 0.5244 0.19993 0.0
H835 H 0.58356 0.52151 0.21538 0.0
C836 C 0.65306 0.53771 0.20843 0.0
C837 C 0.65451 0.55015 0.21897 0.0
C838 C 0.63588 0.52037 0.20632 0.0
C839 C 0.61987 0.51536 0.21462 0.0
C840 C 0.62128 0.52771 0.22515 0.0
H841 H 0.50715 0.42443 0.23186 0.0
H842 H 0.53813 0.45402 0.22956 0.0
C843 C 0.63843 0.54496 0.22731 0.0
C844 C 0.60181 0.49688 0.21271 0.0
H845 H 0.55371 0.47788 0.20694 0.0
C846 C 0.60188 0.47971 0.21529 0.0
C847 C 0.58437 0.49622 0.2093 0.0
C848 C 0.58369 0.51421 0.20588 0.0
C849 C 0.5847 0.46188 0.21526 0.0
C850 C 0.56714 0.46129 0.21233 0.0
C851 C 0.56721 0.47841 0.20923 0.0
C852 C 0.54836 0.44329 0.21336 0.0
C853 C 0.58537 0.44397 0.21902 0.0
C854 C 0.54379 0.42752 0.2049 0.0
C855 C 0.52608 0.4105 0.20623 0.0
C856 C 0.51263 0.40907 0.21596 0.0
C857 C 0.51718 0.42503 0.22426 0.0
C858 C 0.53487 0.44197 0.22296 0.0
H859 H 0.59938 0.44744 0.22364 0.0
H860 H 0.57363 0.43498 0.22623 0.0
H861 H 0.5833 0.43528 0.20979 0.0
H862 H 0.5539 0.42839 0.19727 0.0
H863 H 0.52295 0.39849 0.19963 0.0
H864 H 0.5154 0.1511 0.20391 0.0
H865 H 0.54602 0.15136 0.20199 0.0
H866 H 0.52777 0.1082 0.23323 0.0
H867 H 0.49716 0.10769 0.23517 0.0
H868 H 0.57348 0.15982 0.22267 0.0
H869 H 0.5454 0.08595 0.20256 0.0
H870 H 0.53153 0.09809 0.20228 0.0
H871 H 0.53321 0.08683 0.21755 0.0
C872 C 0.51786 0.14157 0.21031 0.0
C873 C 0.50382 0.12932 0.21965 0.0
C874 C 0.53534 0.14176 0.20919 0.0
C875 C 0.53898 0.12958 0.21732 0.0
C876 C 0.52505 0.11741 0.22668 0.0
H877 H 0.63024 0.10839 0.23739 0.0
H878 H 0.60051 0.10954 0.2349 0.0
C879 C 0.50761 0.11723 0.22782 0.0
C880 C 0.55764 0.1301 0.21648 0.0
H881 H 0.57752 0.10165 0.21126 0.0
C882 C 0.57445 0.14721 0.22 0.0
C883 C 0.55878 0.1136 0.21298 0.0
C884 C 0.54129 0.09512 0.2085 0.0
C885 C 0.59233 0.148 0.2207 0.0
C886 C 0.59335 0.13132 0.21759 0.0
C887 C 0.57663 0.11438 0.2137 0.0
C888 C 0.61147 0.13084 0.21893 0.0
C889 C 0.60981 0.16642 0.22527 0.0
C890 C 0.62739 0.14234 0.21069 0.0
C891 C 0.64444 0.14175 0.21209 0.0
C892 C 0.64578 0.12956 0.22173 0.0
C893 C 0.6297 0.11795 0.22989 0.0
C894 C 0.6127 0.11856 0.22847 0.0
H895 H 0.60585 0.17661 0.22988 0.0
H896 H 0.61828 0.16335 0.23274 0.0
H897 H 0.61922 0.17362 0.21643 0.0
H898 H 0.62658 0.15168 0.20312 0.0
H899 H 0.65654 0.1508 0.20561 0.0
H900 H 0.41158 0.93192 0.76085 0.0
H901 H 0.44225 0.93242 0.76232 0.0
H902 H 0.42042 0.89226 0.79556 0.0
H903 H 0.38953 0.89155 0.79415 0.0
H904 H 0.46702 0.94263 0.78583 0.0
H905 H 0.4412 0.86783 0.76773 0.0
H906 H 0.42782 0.88015 0.76488 0.0
H907 H 0.42785 0.87065 0.7813 0.0
C908 C 0.41324 0.92313 0.76846 0.0
C909 C 0.39809 0.91164 0.77736 0.0
C910 C 0.43078 0.92347 0.76929 0.0
C911 C 0.43347 0.91224 0.77895 0.0
C912 C 0.41847 0.90082 0.78791 0.0
H913 H 0.53352 0.89801 0.79178 0.0
H914 H 0.50193 0.89564 0.79369 0.0
C915 C 0.40089 0.9005 0.78712 0.0
C916 C 0.45217 0.91286 0.77971 0.0
H917 H 0.47396 0.88629 0.77379 0.0
C918 C 0.46856 0.93031 0.78325 0.0
C919 C 0.45402 0.89671 0.77642 0.0
C920 C 0.43685 0.87777 0.77227 0.0
C921 C 0.48688 0.9321 0.78349 0.0
C922 C 0.48884 0.91612 0.77979 0.0
C923 C 0.47237 0.89852 0.77657 0.0
C924 C 0.50794 0.9176 0.7787 0.0
C925 C 0.50395 0.95106 0.78775 0.0
C926 C 0.5216 0.93051 0.76948 0.0
C927 C 0.53963 0.93193 0.76838 0.0
C928 C 0.54426 0.92034 0.77641 0.0
C929 C 0.53042 0.90718 0.78548 0.0
C930 C 0.51237 0.9058 0.78659 0.0
H931 H 0.49943 0.95969 0.79394 0.0
H932 H 0.51444 0.94879 0.79366 0.0
H933 H 0.51136 0.95958 0.77861 0.0
H934 H 0.51828 0.93942 0.76307 0.0
H935 H 0.54991 0.9421 0.76122 0.0
H936 H 0.15902 0.51143 0.78621 0.0
H937 H 0.15876 0.54138 0.79075 0.0
H938 H 0.10937 0.52239 0.7647 0.0
H939 H 0.10939 0.49251 0.76017 0.0
H940 H 0.16155 0.56928 0.77174 0.0
H941 H 0.09271 0.53706 0.80005 0.0
H942 H 0.10586 0.52449 0.79726 0.0
H943 H 0.09072 0.52535 0.78417 0.0
C944 C 0.14809 0.51362 0.78148 0.0
C945 C 0.13417 0.49955 0.77289 0.0
C946 C 0.14796 0.53071 0.7841 0.0
C947 C 0.13382 0.53387 0.77826 0.0
C948 C 0.12012 0.52 0.76954 0.0
H949 H 0.10167 0.61751 0.76423 0.0
H950 H 0.10569 0.58942 0.76671 0.0
C951 C 0.12025 0.50298 0.76689 0.0
C952 C 0.13361 0.55192 0.7808 0.0
H953 H 0.10413 0.56879 0.79106 0.0
C954 C 0.14919 0.56931 0.7762 0.0
C955 C 0.11748 0.55181 0.78668 0.0
C956 C 0.10082 0.5337 0.79245 0.0
C957 C 0.14851 0.58646 0.77655 0.0
C958 C 0.13193 0.58613 0.7818 0.0
C959 C 0.11677 0.56892 0.78698 0.0
C960 C 0.12931 0.60306 0.78091 0.0
C961 C 0.16504 0.60457 0.77066 0.0
C962 C 0.14111 0.61989 0.78826 0.0
C963 C 0.13886 0.63602 0.78686 0.0
C964 C 0.12475 0.63548 0.77812 0.0
C965 C 0.11271 0.61842 0.77101 0.0
C966 C 0.11496 0.60234 0.77243 0.0
H967 H 0.17538 0.60167 0.7651 0.0
H968 H 0.15959 0.61159 0.76366 0.0
H969 H 0.17295 0.61487 0.77894 0.0
H970 H 0.15209 0.62058 0.79499 0.0
H971 H 0.1483 0.64893 0.79251 0.0
H972 H 0.42334 0.50513 0.76473 0.0
H973 H 0.45065 0.53775 0.76671 0.0
H974 H 0.42184 0.54977 0.79887 0.0
H975 H 0.3943 0.51693 0.79704 0.0
H976 H 0.44848 0.57254 0.76376 0.0
H977 H 0.47684 0.56656 0.81392 0.0
H978 H 0.46089 0.54561 0.80403 0.0
H979 H 0.45159 0.55891 0.81268 0.0
C980 C 0.42279 0.51462 0.77229 0.0
C981 C 0.40664 0.50844 0.78073 0.0
C982 C 0.43841 0.53326 0.77339 0.0
C983 C 0.43825 0.54606 0.78297 0.0
C984 C 0.42227 0.53998 0.79152 0.0
H985 H 0.53546 0.66401 0.79441 0.0
H986 H 0.50349 0.63527 0.79688 0.0
C987 C 0.40656 0.52126 0.79042 0.0
C988 C 0.45473 0.56592 0.78357 0.0
H989 H 0.49468 0.59571 0.80206 0.0
C990 C 0.45847 0.57772 0.7722 0.0
C991 C 0.46757 0.57262 0.79466 0.0
C992 C 0.4642 0.56031 0.80702 0.0
C993 C 0.47517 0.59582 0.77139 0.0
C994 C 0.48855 0.60208 0.78214 0.0
C995 C 0.48435 0.59075 0.79383 0.0
C996 C 0.50775 0.61943 0.78084 0.0
C997 C 0.47859 0.60792 0.75889 0.0
C998 C 0.52071 0.61979 0.77117 0.0
C999 C 0.5389 0.63603 0.76977 0.0
C1000 C 0.54449 0.65224 0.77804 0.0
C1001 C 0.53154 0.65177 0.78785 0.0
C1002 C 0.51331 0.63541 0.78929 0.0
H1003 H 0.46491 0.60378 0.75348 0.0
H1004 H 0.48571 0.62348 0.76148 0.0
H1005 H 0.48817 0.60577 0.75189 0.0
H1006 H 0.51674 0.60743 0.76472 0.0
H1007 H 0.54853 0.63589 0.76213 0.0
H1008 H 0.57107 0.73397 0.53253 0.0
H1009 H 0.57114 0.76429 0.5291 0.0
H1010 H 0.61375 0.79097 0.56056 0.0
H1011 H 0.61399 0.76098 0.56393 0.0
H1012 H 0.56184 0.78377 0.54809 0.0
H1013 H 0.63657 0.83012 0.53002 0.0
H1014 H 0.62499 0.80415 0.53023 0.0
H1015 H 0.63567 0.81782 0.54539 0.0
C1016 C 0.58061 0.74636 0.53861 0.0
C1017 C 0.59257 0.74509 0.54847 0.0
C1018 C 0.58062 0.76365 0.53663 0.0
C1019 C 0.59271 0.77994 0.5444 0.0
C1020 C 0.60468 0.7787 0.55421 0.0
H1021 H 0.60993 0.88753 0.5698 0.0
H1022 H 0.60903 0.8572 0.56503 0.0
C1023 C 0.60468 0.76149 0.55619 0.0
C1024 C 0.59201 0.79794 0.54302 0.0
H1025 H 0.62086 0.84654 0.53936 0.0
C1026 C 0.57463 0.79747 0.5459 0.0
C1027 C 0.60871 0.81574 0.5401 0.0
C1028 C 0.62749 0.81699 0.53612 0.0
C1029 C 0.5738 0.81451 0.54678 0.0
C1030 C 0.59077 0.83236 0.54462 0.0
C1031 C 0.60793 0.83278 0.54109 0.0
C1032 C 0.59141 0.85082 0.5471 0.0
C1033 C 0.5551 0.81345 0.55071 0.0
C1034 C 0.5819 0.85726 0.5385 0.0
C1035 C 0.5824 0.87464 0.54118 0.0
C1036 C 0.5924 0.88576 0.55252 0.0
C1037 C 0.60204 0.87927 0.56102 0.0
C1038 C 0.60159 0.86199 0.5583 0.0
H1039 H 0.54384 0.79863 0.55358 0.0
H1040 H 0.55745 0.8233 0.55931 0.0
H1041 H 0.54965 0.81819 0.54206 0.0
H1042 H 0.57411 0.84885 0.52974 0.0
H1043 H 0.57488 0.87928 0.53442 0.0
H1044 H 0.17683 0.74234 0.52971 0.0
H1045 H 0.20922 0.77062 0.52766 0.0
H1046 H 0.20304 0.79018 0.56697 0.0
H1047 H 0.17086 0.76218 0.56914 0.0
H1048 H 0.22046 0.81203 0.53034 0.0
H1049 H 0.25384 0.78708 0.56856 0.0
H1050 H 0.2315 0.77092 0.56008 0.0
H1051 H 0.23168 0.78553 0.57392 0.0
C1052 C 0.18237 0.7527 0.5379 0.0
C1053 C 0.17133 0.74997 0.54962 0.0
C1054 C 0.20083 0.7688 0.5367 0.0
C1055 C 0.20852 0.78224 0.54725 0.0
C1056 C 0.1974 0.77976 0.55881 0.0
H1057 H 0.30279 0.8871 0.57293 0.0
H1058 H 0.27342 0.85641 0.56905 0.0
C1059 C 0.17899 0.76379 0.56 0.0
C1060 C 0.22817 0.79901 0.54637 0.0
H1061 H 0.27135 0.8205 0.56281 0.0
C1062 C 0.23176 0.81382 0.53724 0.0
C1063 C 0.24279 0.80113 0.55537 0.0
C1064 C 0.23988 0.78526 0.56497 0.0
C1065 C 0.24934 0.8313 0.53746 0.0
C1066 C 0.2636 0.83376 0.54694 0.0
C1067 C 0.26031 0.81856 0.55561 0.0
C1068 C 0.28138 0.85249 0.54889 0.0
C1069 C 0.25215 0.84734 0.52808 0.0
C1070 C 0.29558 0.86037 0.53882 0.0
C1071 C 0.31245 0.87798 0.541 0.0
C1072 C 0.31534 0.88789 0.5533 0.0
C1073 C 0.30103 0.87987 0.56334 0.0
C1074 C 0.28424 0.86232 0.56115 0.0
H1075 H 0.23859 0.84413 0.52285 0.0
H1076 H 0.25762 0.86106 0.53376 0.0
H1077 H 0.26302 0.84951 0.5203 0.0
H1078 H 0.29371 0.85283 0.52936 0.0
H1079 H 0.32324 0.88376 0.53309 0.0
H1080 H 0.32482 0.48238 0.53166 0.0
H1081 H 0.29679 0.48675 0.52894 0.0
H1082 H 0.27623 0.46195 0.56837 0.0
H1083 H 0.30402 0.45756 0.57121 0.0
H1084 H 0.25611 0.45728 0.53071 0.0
H1085 H 0.27794 0.51473 0.56929 0.0
H1086 H 0.29474 0.50864 0.56174 0.0
H1087 H 0.27896 0.49402 0.57509 0.0
C1088 C 0.31433 0.47788 0.53975 0.0
C1089 C 0.31668 0.46971 0.55168 0.0
C1090 C 0.29836 0.48038 0.53817 0.0
C1091 C 0.28468 0.47494 0.54854 0.0
C1092 C 0.28685 0.46654 0.56035 0.0
H1093 H 0.17743 0.46355 0.5695 0.0
H1094 H 0.20867 0.46549 0.56736 0.0
C1095 C 0.3027 0.46396 0.56192 0.0
C1096 C 0.26783 0.47761 0.54709 0.0
H1097 H 0.24495 0.4988 0.56234 0.0
C1098 C 0.25374 0.46658 0.53744 0.0
C1099 C 0.26493 0.48983 0.55588 0.0
C1100 C 0.28002 0.50263 0.56601 0.0
C1101 C 0.23624 0.46661 0.53689 0.0
C1102 C 0.23301 0.4782 0.54611 0.0
C1103 C 0.24748 0.48987 0.55534 0.0
C1104 C 0.21417 0.47728 0.54712 0.0
C1105 C 0.22098 0.45352 0.52697 0.0
C1106 C 0.20701 0.48343 0.53645 0.0
C1107 C 0.18908 0.48232 0.53762 0.0
C1108 C 0.17811 0.47511 0.54951 0.0
C1109 C 0.18548 0.46916 0.5602 0.0
C1110 C 0.20335 0.47027 0.55901 0.0
H1111 H 0.22447 0.44307 0.52222 0.0
H1112 H 0.20675 0.4454 0.53204 0.0
H1113 H 0.21971 0.46234 0.51883 0.0
H1114 H 0.21532 0.48916 0.52727 0.0
H1115 H 0.18383 0.48709 0.52923 0.0
H1116 H 0.03998 0.32609 0.11488 0.0
H1117 H 0.03858 0.34833 0.13117 0.0
H1118 H 0.03042 0.30884 0.16353 0.0
H1119 H 0.03246 0.28693 0.14743 0.0
H1120 H 0.00794 0.34042 0.14523 0.0
H1121 H 0.06686 0.35856 0.18145 0.0
H1122 H 0.06581 0.34771 0.16523 0.0
H1123 H 0.05268 0.33295 0.17951 0.0
C1124 C 0.03828 0.32235 0.12551 0.0
C1125 C 0.03621 0.30472 0.12988 0.0
C1126 C 0.03755 0.3351 0.1348 0.0
C1127 C 0.03469 0.33041 0.1486 0.0
C1128 C 0.03323 0.31308 0.15301 0.0
H1129 H 0.97542 0.33915 0.21402 0.0
H1130 H 0.99505 0.33403 0.19749 0.0
C1131 C 0.03418 0.30044 0.14376 0.0
C1132 C 0.03045 0.34211 0.1581 0.0
H1133 H 0.03891 0.35971 0.19034 0.0
C1134 C 0.0151 0.34516 0.15494 0.0
C1135 C 0.03983 0.34836 0.17075 0.0
C1136 C 0.05735 0.3469 0.17435 0.0
C1137 C 0.00794 0.35293 0.16446 0.0
C1138 C 0.01637 0.35776 0.17743 0.0
C1139 C 0.03245 0.35585 0.18036 0.0
C1140 C 0.00698 0.36231 0.18849 0.0
C1141 C 0.99059 0.35475 0.16092 0.0
C1142 C 0.00761 0.38009 0.18903 0.0
C1143 C 0.99642 0.3831 0.1985 0.0
C1144 C 0.98435 0.36828 0.20744 0.0
C1145 C 0.98444 0.35079 0.2072 0.0
C1146 C 0.99571 0.34787 0.19782 0.0
H1147 H 0.98514 0.34943 0.15057 0.0
H1148 H 0.97879 0.3465 0.16827 0.0
H1149 H 0.99443 0.37009 0.16158 0.0
H1150 H 0.01626 0.39136 0.18185 0.0
H1151 H 0.99668 0.39674 0.19847 0.0
H1152 H 0.72708 0.73752 0.11573 0.0
H1153 H 0.70526 0.7126 0.13155 0.0
H1154 H 0.74455 0.74271 0.16428 0.0
H1155 H 0.76607 0.76779 0.14871 0.0
H1156 H 0.71359 0.68939 0.14539 0.0
H1157 H 0.69424 0.72888 0.18194 0.0
H1158 H 0.70495 0.73894 0.16573 0.0
H1159 H 0.71988 0.74078 0.17994 0.0
C1160 C 0.73089 0.73897 0.12635 0.0
C1161 C 0.74833 0.75459 0.13097 0.0
C1162 C 0.71839 0.72477 0.13536 0.0
C1163 C 0.72309 0.72598 0.14914 0.0
C1164 C 0.74031 0.74176 0.15379 0.0
H1165 H 0.71566 0.65886 0.2145 0.0
H1166 H 0.72027 0.68303 0.19762 0.0
C1167 C 0.75273 0.756 0.14482 0.0
C1168 C 0.71138 0.70977 0.15842 0.0
H1169 H 0.69365 0.69999 0.19061 0.0
C1170 C 0.7087 0.69155 0.15512 0.0
C1171 C 0.7049 0.71256 0.17108 0.0
C1172 C 0.70596 0.73132 0.1748 0.0
C1173 C 0.70116 0.67651 0.16458 0.0
C1174 C 0.6962 0.67984 0.1776 0.0
C1175 C 0.69764 0.6976 0.18061 0.0
C1176 C 0.69206 0.66598 0.18864 0.0
C1177 C 0.69979 0.65757 0.16095 0.0
C1178 C 0.6745 0.6486 0.18927 0.0
C1179 C 0.67177 0.63473 0.19895 0.0
C1180 C 0.68667 0.63806 0.208 0.0
C1181 C 0.70397 0.65581 0.2076 0.0
C1182 C 0.7066 0.66967 0.19802 0.0
H1183 H 0.70504 0.65761 0.15055 0.0
H1184 H 0.70835 0.6543 0.1682 0.0
H1185 H 0.68457 0.64581 0.1617 0.0
H1186 H 0.66314 0.64559 0.18207 0.0
H1187 H 0.65827 0.6212 0.19903 0.0
H1188 H 0.319 0.03665 0.11334 0.0
H1189 H 0.34414 0.04373 0.12993 0.0
H1190 H 0.30525 0.99272 0.15236 0.0
H1191 H 0.27981 0.98548 0.13571 0.0
H1192 H 0.32151 0.0269 0.16734 0.0
H1193 H 0.37824 0.02086 0.13975 0.0
H1194 H 0.3698 0.03441 0.13044 0.0
H1195 H 0.35352 0.00934 0.13401 0.0
C1196 C 0.31587 0.02671 0.12165 0.0
C1197 C 0.29739 0.01059 0.12329 0.0
C1198 C 0.33032 0.03068 0.13105 0.0
C1199 C 0.32662 0.0186 0.14226 0.0
C1200 C 0.30841 0.00208 0.14368 0.0
H1201 H 0.401 0.0636 0.21427 0.0
H1202 H 0.3762 0.03984 0.19926 0.0
C1203 C 0.29393 0.99799 0.13418 0.0
C1204 C 0.34096 0.02494 0.15327 0.0
H1205 H 0.3889 0.04272 0.1589 0.0
C1206 C 0.33615 0.0299 0.16568 0.0
C1207 C 0.35998 0.02882 0.15101 0.0
C1208 C 0.36565 0.02289 0.13812 0.0
C1209 C 0.35025 0.04013 0.1755 0.0
C1210 C 0.36956 0.04512 0.17287 0.0
C1211 C 0.3741 0.03898 0.16083 0.0
C1212 C 0.3855 0.05852 0.18175 0.0
C1213 C 0.34463 0.0467 0.18814 0.0
C1214 C 0.39929 0.07661 0.17673 0.0
C1215 C 0.41353 0.09014 0.18521 0.0
C1216 C 0.41419 0.08582 0.1989 0.0
C1217 C 0.40071 0.06744 0.20381 0.0
C1218 C 0.38653 0.05386 0.19527 0.0
H1219 H 0.32984 0.04458 0.18746 0.0
H1220 H 0.34507 0.03832 0.19691 0.0
H1221 H 0.35488 0.06218 0.19012 0.0
H1222 H 0.39872 0.08046 0.1663 0.0
H1223 H 0.42375 0.10412 0.1811 0.0
H1224 H 0.32575 0.03323 0.88257 0.0
H1225 H 0.34766 0.02782 0.86843 0.0
H1226 H 0.31394 0.02352 0.83321 0.0
H1227 H 0.2924 0.02946 0.84715 0.0
H1228 H 0.33746 0.99574 0.85536 0.0
H1229 H 0.36708 0.05451 0.81795 0.0
H1230 H 0.35538 0.05566 0.83325 0.0
H1231 H 0.34137 0.04355 0.81845 0.0
C1232 C 0.32324 0.03152 0.87177 0.0
C1233 C 0.30727 0.03164 0.86598 0.0
C1234 C 0.33581 0.0285 0.8637 0.0
C1235 C 0.33263 0.02556 0.84973 0.0
C1236 C 0.31706 0.02633 0.84389 0.0
H1237 H 0.33372 0.94649 0.79695 0.0
H1238 H 0.33005 0.96593 0.81431 0.0
C1239 C 0.3046 0.02951 0.85192 0.0
C1240 C 0.34371 0.01897 0.84153 0.0
H1241 H 0.364 0.02392 0.81038 0.0
C1242 C 0.34372 0.00223 0.84569 0.0
C1243 C 0.35225 0.02757 0.82902 0.0
C1244 C 0.35421 0.04645 0.8245 0.0
C1245 C 0.35048 0.99295 0.83716 0.0
C1246 C 0.357 0.0004 0.82406 0.0
C1247 C 0.35863 0.01804 0.82035 0.0
C1248 C 0.3598 0.98887 0.81361 0.0
C1249 C 0.34982 0.97479 0.84203 0.0
C1250 C 0.37766 0.99561 0.80721 0.0
C1251 C 0.37982 0.9845 0.79718 0.0
C1252 C 0.36407 0.96663 0.79334 0.0
C1253 C 0.34617 0.96013 0.79969 0.0
C1254 C 0.34407 0.97117 0.80969 0.0
H1255 H 0.35078 0.97461 0.85324 0.0
H1256 H 0.33591 0.96214 0.83897 0.0
H1257 H 0.36171 0.97324 0.8376 0.0
H1258 H 0.38991 0.00936 0.81003 0.0
H1259 H 0.39377 0.98993 0.79242 0.0
H1260 H 0.09808 0.42431 0.81088 0.0
H1261 H 0.07349 0.4004 0.82578 0.0
H1262 H 0.03604 0.37373 0.79155 0.0
H1263 H 0.06087 0.39734 0.77647 0.0
H1264 H 0.03549 0.38963 0.83122 0.0
H1265 H 0.04117 0.32971 0.80721 0.0
H1266 H 0.05819 0.35466 0.80373 0.0
H1267 H 0.03459 0.34335 0.79625 0.0
C1268 C 0.08459 0.41343 0.80651 0.0
C1269 C 0.08152 0.41252 0.79248 0.0
C1270 C 0.07051 0.39983 0.81505 0.0
C1271 C 0.05308 0.38514 0.80973 0.0
C1272 C 0.04957 0.38473 0.79581 0.0
H1273 H 0.98086 0.28259 0.85876 0.0
H1274 H 0.98737 0.30652 0.84106 0.0
C1275 C 0.06375 0.39823 0.78722 0.0
C1276 C 0.03934 0.36971 0.81881 0.0
H1277 H 0.02231 0.32247 0.82667 0.0
C1278 C 0.0323 0.37485 0.83012 0.0
C1279 C 0.03511 0.35042 0.81728 0.0
C1280 C 0.04273 0.34413 0.80554 0.0
C1281 C 0.02206 0.36146 0.84033 0.0
C1282 C 0.01895 0.34255 0.8392 0.0
C1283 C 0.02473 0.33702 0.82745 0.0
C1284 C 0.01272 0.32925 0.85085 0.0
C1285 C 0.01532 0.36783 0.85249 0.0
C1286 C 0.02471 0.33423 0.86223 0.0
C1287 C 0.02119 0.32061 0.87222 0.0
C1288 C 0.00559 0.30174 0.87101 0.0
C1289 C 0.99297 0.29704 0.85996 0.0
C1290 C 0.99663 0.31067 0.84987 0.0
H1291 H 0.01296 0.37999 0.84993 0.0
H1292 H 0.00175 0.35578 0.85666 0.0
H1293 H 0.02653 0.37285 0.86048 0.0
H1294 H 0.03743 0.34837 0.86303 0.0
H1295 H 0.03111 0.32468 0.88065 0.0
H1296 H 0.6498 0.68474 0.78078 0.0
H1297 H 0.67479 0.68575 0.79557 0.0
H1298 H 0.64707 0.69441 0.8301 0.0
H1299 H 0.62188 0.69291 0.81553 0.0
H1300 H 0.69942 0.716 0.80993 0.0
H1301 H 0.6595 0.65546 0.84515 0.0
H1302 H 0.6491 0.6576 0.8295 0.0
H1303 H 0.64854 0.6702 0.84445 0.0
C1304 C 0.64888 0.68655 0.79156 0.0
C1305 C 0.6339 0.68882 0.79699 0.0
C1306 C 0.66312 0.68705 0.79999 0.0
C1307 C 0.66261 0.68978 0.81397 0.0
C1308 C 0.64746 0.69168 0.81941 0.0
H1309 H 0.73295 0.74261 0.8795 0.0
H1310 H 0.70772 0.72441 0.86293 0.0
C1311 C 0.63316 0.69104 0.81103 0.0
C1312 C 0.67899 0.69306 0.82269 0.0
H1313 H 0.68946 0.6824 0.85386 0.0
C1314 C 0.69738 0.70829 0.81935 0.0
C1315 C 0.67633 0.68291 0.83495 0.0
C1316 C 0.65731 0.6655 0.83863 0.0
C1317 C 0.71279 0.71465 0.82844 0.0
C1318 C 0.70969 0.70547 0.84112 0.0
C1319 C 0.69169 0.68945 0.84412 0.0
C1320 C 0.72413 0.71406 0.85199 0.0
C1321 C 0.73193 0.73199 0.82483 0.0
C1322 C 0.74149 0.71382 0.85146 0.0
C1323 C 0.75599 0.72421 0.86096 0.0
C1324 C 0.7533 0.73506 0.87101 0.0
C1325 C 0.73553 0.73454 0.87181 0.0
C1326 C 0.72106 0.72408 0.8624 0.0
H1327 H 0.73154 0.73829 0.81491 0.0
H1328 H 0.73628 0.74326 0.83274 0.0
H1329 H 0.74316 0.72776 0.82439 0.0
H1330 H 0.74403 0.70609 0.84348 0.0
H1331 H 0.76951 0.7243 0.86011 0.0
H1332 H 0.04796 0.75191 0.87539 0.0
H1333 H 0.05376 0.73327 0.85845 0.0
H1334 H 0.99411 0.70549 0.84636 0.0
H1335 H 0.98803 0.72401 0.86345 0.0
H1336 H 0.01059 0.68037 0.84825 0.0
H1337 H 0.0547 0.74604 0.81766 0.0
H1338 H 0.06215 0.74857 0.83503 0.0
H1339 H 0.03873 0.74505 0.83093 0.0
C1340 C 0.036 0.74174 0.86922 0.0
C1341 C 0.01758 0.7396 0.87064 0.0
C1342 C 0.03937 0.73114 0.85953 0.0
C1343 C 0.02443 0.71832 0.85103 0.0
C1344 C 0.00581 0.71543 0.85281 0.0
H1345 H 0.06099 0.68351 0.77867 0.0
H1346 H 0.04185 0.69201 0.79335 0.0
C1347 C 0.00239 0.72603 0.86255 0.0
C1348 C 0.02871 0.7087 0.83995 0.0
H1349 H 0.05773 0.71861 0.81244 0.0
C1350 C 0.02068 0.68863 0.84028 0.0
C1351 C 0.04152 0.71951 0.82944 0.0
C1352 C 0.04964 0.74097 0.82812 0.0
C1353 C 0.02606 0.67919 0.83074 0.0
C1354 C 0.04 0.69023 0.82083 0.0
C1355 C 0.04715 0.71016 0.8201 0.0
C1356 C 0.04858 0.68189 0.81172 0.0
C1357 C 0.01691 0.65758 0.83145 0.0
C1358 C 0.0584 0.67303 0.81714 0.0
C1359 C 0.06927 0.66806 0.80876 0.0
C1360 C 0.07075 0.67216 0.79486 0.0
C1361 C 0.06025 0.68029 0.78936 0.0
C1362 C 0.04926 0.68511 0.79773 0.0
H1363 H 0.00236 0.65092 0.83613 0.0
H1364 H 0.01561 0.65121 0.82126 0.0
H1365 H 0.02597 0.65385 0.83784 0.0
H1366 H 0.05849 0.67085 0.82794 0.0
H1367 H 0.07722 0.66185 0.81331 0.0
H1368 H 0.39991 0.43744 0.80985 0.0
H1369 H 0.39197 0.41153 0.82615 0.0
H1370 H 0.35013 0.37045 0.79833 0.0
H1371 H 0.35803 0.39608 0.78201 0.0
H1372 H 0.35513 0.39167 0.83637 0.0
H1373 H 0.37436 0.34039 0.81389 0.0
H1374 H 0.3848 0.36504 0.80818 0.0
H1375 H 0.36143 0.34691 0.80223 0.0
C1376 C 0.3894 0.4228 0.80706 0.0
C1377 C 0.37942 0.41882 0.79471 0.0
C1378 C 0.38492 0.40803 0.81637 0.0
C1379 C 0.37061 0.38907 0.81339 0.0
C1380 C 0.36152 0.3849 0.80073 0.0
H1381 H 0.28399 0.28648 0.84749 0.0
H1382 H 0.30883 0.3124 0.83381 0.0
C1383 C 0.36591 0.39963 0.79146 0.0
C1384 C 0.36276 0.37428 0.82412 0.0
H1385 H 0.34855 0.32719 0.83044 0.0
C1386 C 0.3541 0.37771 0.83529 0.0
C1387 C 0.36137 0.3561 0.8226 0.0
C1388 C 0.37116 0.35195 0.81113 0.0
C1389 C 0.34288 0.36301 0.84447 0.0
C1390 C 0.34067 0.34451 0.84257 0.0
C1391 C 0.35023 0.34137 0.83183 0.0
C1392 C 0.32699 0.32789 0.85083 0.0
C1393 C 0.33244 0.36709 0.85556 0.0
C1394 C 0.32925 0.3278 0.86489 0.0
C1395 C 0.31496 0.31316 0.87275 0.0
C1396 C 0.29831 0.29823 0.86664 0.0
C1397 C 0.29659 0.29784 0.8525 0.0
C1398 C 0.3108 0.31259 0.84466 0.0
H1399 H 0.33261 0.38088 0.85393 0.0
H1400 H 0.31722 0.35531 0.8563 0.0
H1401 H 0.33957 0.36808 0.86539 0.0
H1402 H 0.34184 0.3393 0.8698 0.0
H1403 H 0.31683 0.31369 0.88362 0.0
H1404 H 0.72998 0.0042 0.88178 0.0
H1405 H 0.70488 -0.0005 0.86571 0.0
H1406 H 0.73932 0.05828 0.85223 0.0
H1407 H 0.76466 0.06324 0.86841 0.0
H1408 H 0.68538 0.02443 0.86107 0.0
H1409 H 0.72887 0.01962 0.81873 0.0
H1410 H 0.73306 0.01534 0.83599 0.0
H1411 H 0.73987 0.03927 0.83062 0.0
C1412 C 0.73218 0.01622 0.87551 0.0
C1413 C 0.74937 0.03404 0.87625 0.0
C1414 C 0.71778 0.01353 0.86641 0.0
C1415 C 0.72036 0.02854 0.85783 0.0
C1416 C 0.73716 0.04657 0.85882 0.0
H1417 H 0.64696 0.99266 0.78605 0.0
H1418 H 0.67115 0.01518 0.80195 0.0
C1419 C 0.75158 0.04934 0.86804 0.0
C1420 C 0.70602 0.02444 0.84713 0.0
H1421 H 0.69633 0.00889 0.81452 0.0
C1422 C 0.68782 0.02144 0.85079 0.0
C1423 C 0.70941 0.02076 0.83375 0.0
C1424 C 0.72882 0.02385 0.82942 0.0
C1425 C 0.67252 0.0138 0.84152 0.0
C1426 C 0.67546 0.00852 0.82846 0.0
C1427 C 0.69405 0.01284 0.82455 0.0
C1428 C 0.65924 0.99637 0.81929 0.0
C1429 C 0.65327 0.01101 0.84595 0.0
C1430 C 0.64443 0.97839 0.82378 0.0
C1431 C 0.63056 0.96557 0.81476 0.0
C1432 C 0.63144 0.97033 0.80101 0.0
C1433 C 0.64596 0.98854 0.79658 0.0
C1434 C 0.65975 0.00145 0.80566 0.0
H1435 H 0.65515 0.02214 0.85345 0.0
H1436 H 0.64484 0.01164 0.83725 0.0
H1437 H 0.64487 0.99674 0.85091 0.0
H1438 H 0.64406 0.97388 0.83415 0.0
H1439 H 0.61961 0.95163 0.81848 0.0
H1440 H 0.73096 0.98861 0.13866 0.0
H1441 H 0.71125 0.99363 0.15533 0.0
H1442 H 0.71696 0.04178 0.13213 0.0
H1443 H 0.73649 0.03688 0.11548 0.0
H1444 H 0.72644 0.02792 0.16967 0.0
H1445 H 0.66018 0.01438 0.1431 0.0
H1446 H 0.67521 0.00499 0.13716 0.0
H1447 H 0.68139 0.02939 0.13337 0.0
C1448 C 0.72763 -2e-05 0.13696 0.0
C1449 C 0.73541 0.01247 0.12583 0.0
C1450 C 0.71635 0.00279 0.14647 0.0
C1451 C 0.71244 0.0179 0.14485 0.0
C1452 C 0.71943 0.02976 0.13341 0.0
H1453 H 0.69385 0.09916 0.18284 0.0
H1454 H 0.69604 0.07576 0.16828 0.0
C1455 C 0.73078 0.02707 0.12398 0.0
C1456 C 0.7037 0.02331 0.15593 0.0
H1457 H 0.67033 0.03699 0.16185 0.0
C1458 C 0.71384 0.02942 0.16816 0.0
C1459 C 0.68729 0.02522 0.15387 0.0
C1460 C 0.67528 0.01795 0.1412 0.0
C1461 C 0.70903 0.03897 0.17794 0.0
C1462 C 0.69338 0.04205 0.17548 0.0
C1463 C 0.68239 0.03469 0.16366 0.0
C1464 C 0.6898 0.05492 0.1842 0.0
C1465 C 0.72163 0.04694 0.19032 0.0
C1466 C 0.68512 0.05072 0.19791 0.0
C1467 C 0.68407 0.06419 0.20632 0.0
C1468 C 0.6875 0.08195 0.20108 0.0
C1469 C 0.69126 0.08567 0.1872 0.0
C1470 C 0.69242 0.07227 0.17885 0.0
H1471 H 0.73507 0.04618 0.18949 0.0
H1472 H 0.72563 0.06219 0.19203 0.0
H1473 H 0.71359 0.03849 0.19933 0.0
H1474 H 0.6827 0.03724 0.20216 0.0
H1475 H 0.68091 0.06081 0.21694 0.0
H1476 H 0.00849 0.73095 0.11449 0.0
H1477 H 0.0027 0.70566 0.13069 0.0
H1478 H 0.05771 0.74277 0.1494 0.0
H1479 H 0.06373 0.76832 0.13315 0.0
H1480 H 0.02758 0.68831 0.13831 0.0
H1481 H 0.01414 0.72819 0.17919 0.0
H1482 H 0.01307 0.73339 0.16155 0.0
H1483 H 0.0359 0.7406 0.16932 0.0
C1484 C 0.01948 0.73371 0.12194 0.0
C1485 C 0.03648 0.7517 0.12263 0.0
C1486 C 0.01618 0.71921 0.13114 0.0
C1487 C 0.02974 0.72246 0.14124 0.0
C1488 C 0.04708 0.74009 0.14168 0.0
H1489 H 0.99136 0.64611 0.21173 0.0
H1490 H 0.01361 0.67197 0.19668 0.0
C1491 C 0.05047 0.75463 0.13239 0.0
C1492 C 0.02474 0.70779 0.15184 0.0
H1493 H 0.00571 0.69626 0.18356 0.0
C1494 C 0.02314 0.69011 0.14831 0.0
C1495 C 0.01914 0.71032 0.16487 0.0
C1496 C 0.02053 0.72909 0.16905 0.0
C1497 C 0.0152 0.67451 0.15733 0.0
C1498 C 0.00823 0.67659 0.16999 0.0
C1499 C 0.01099 0.69467 0.17382 0.0
C1500 C 0.99612 0.65987 0.17877 0.0
C1501 C 0.01398 0.65586 0.15306 0.0
C1502 C 0.97893 0.64452 0.17368 0.0
C1503 C 0.96624 0.62974 0.18222 0.0
C1504 C 0.97036 0.63018 0.19606 0.0
C1505 C 0.98775 0.6454 0.20111 0.0
C1506 C 0.00051 0.66014 0.19253 0.0
H1507 H 0.02582 0.65853 0.14597 0.0
H1508 H 0.01466 0.64768 0.16191 0.0
H1509 H 0.00014 0.64682 0.14771 0.0
H1510 H 0.97495 0.64429 0.16319 0.0
H1511 H 0.95294 0.61827 0.17802 0.0
H1512 H 0.32289 0.31136 0.11388 0.0
H1513 H 0.34737 0.33034 0.13071 0.0
H1514 H 0.30473 0.33444 0.15484 0.0
H1515 H 0.27995 0.31531 0.138 0.0
H1516 H 0.35913 0.3686 0.14312 0.0
H1517 H 0.3267 0.30623 0.17872 0.0
H1518 H 0.32102 0.30334 0.16091 0.0
H1519 H 0.31139 0.31449 0.17167 0.0
C1520 C 0.3187 0.31644 0.12269 0.0
C1521 C 0.29944 0.31163 0.1247 0.0
C1522 C 0.33274 0.32737 0.13225 0.0
C1523 C 0.32776 0.33361 0.14401 0.0
C1524 C 0.30875 0.32961 0.14582 0.0
H1525 H 0.40452 0.36717 0.21398 0.0
H1526 H 0.37744 0.36276 0.19999 0.0
C1527 C 0.29466 0.31871 0.1362 0.0
C1528 C 0.34231 0.34279 0.15478 0.0
H1529 H 0.35684 0.33225 0.18434 0.0
C1530 C 0.35853 0.36086 0.15228 0.0
C1531 C 0.34134 0.33265 0.16671 0.0
C1532 C 0.32426 0.31306 0.16973 0.0
C1533 C 0.37427 0.36875 0.16118 0.0
C1534 C 0.37387 0.35799 0.17264 0.0
C1535 C 0.35714 0.34044 0.17553 0.0
C1536 C 0.39119 0.36348 0.18099 0.0
C1537 C 0.39129 0.38832 0.15809 0.0
C1538 C 0.40795 0.36548 0.17494 0.0
C1539 C 0.42346 0.36807 0.18288 0.0
C1540 C 0.42237 0.36839 0.19705 0.0
C1541 C 0.40577 0.36689 0.20308 0.0
C1542 C 0.39031 0.36443 0.19511 0.0
H1543 H 0.38674 0.39732 0.15237 0.0
H1544 H 0.39878 0.39608 0.16746 0.0
H1545 H 0.40167 0.38655 0.15168 0.0
H1546 H 0.40876 0.36424 0.16408 0.0
H1547 H 0.43601 0.36911 0.17793 0.0
H1548 H 0.60204 0.668 0.51879 0.0
H1549 H 0.62073 0.65856 0.50454 0.0
H1550 H 0.67106 0.69248 0.52917 0.0
H1551 H 0.65221 0.70157 0.5438 0.0
H1552 H 0.65282 0.67927 0.48937 0.0
H1553 H 0.66679 0.63995 0.53015 0.0
H1554 H 0.64983 0.64835 0.53214 0.0
H1555 H 0.67528 0.66499 0.53338 0.0
C1556 C 0.61709 0.67352 0.52118 0.0
C1557 C 0.6256 0.68537 0.5325 0.0
C1558 C 0.62778 0.66814 0.513 0.0
C1559 C 0.6472 0.67458 0.51592 0.0
C1560 C 0.65597 0.687 0.52692 0.0
H1561 H 0.70608 0.64195 0.45485 0.0
H1562 H 0.70075 0.66226 0.47077 0.0
C1563 C 0.64521 0.69225 0.53522 0.0
C1564 C 0.65782 0.66766 0.50754 0.0
H1565 H 0.67805 0.63898 0.50843 0.0
C1566 C 0.65856 0.67064 0.49352 0.0
C1567 C 0.6652 0.65635 0.51304 0.0
C1568 C 0.66415 0.65205 0.52798 0.0
C1569 C 0.6656 0.66184 0.48475 0.0
C1570 C 0.67261 0.6502 0.49023 0.0
C1571 C 0.67274 0.648 0.5043 0.0
C1572 C 0.67761 0.63833 0.4815 0.0
C1573 C 0.66435 0.66415 0.46969 0.0
C1574 C 0.66702 0.6182 0.4827 0.0
C1575 C 0.67022 0.6066 0.4738 0.0
C1576 C 0.68401 0.61493 0.46347 0.0
C1577 C 0.69518 0.63512 0.46262 0.0
C1578 C 0.6921 0.64674 0.47165 0.0
H1579 H 0.65494 0.67022 0.46718 0.0
H1580 H 0.67896 0.67412 0.46568 0.0
H1581 H 0.65869 0.6501 0.46444 0.0
H1582 H 0.6558 0.61142 0.49026 0.0
H1583 H 0.66142 0.59111 0.47476 0.0
H1584 H 0.43837 0.09895 0.48056 0.0
H1585 H 0.41641 0.07535 0.49691 0.0
H1586 H 0.37312 0.04852 0.46588 0.0
H1587 H 0.39526 0.07174 0.44932 0.0
H1588 H 0.38014 0.06536 0.50602 0.0
H1589 H 0.37948 0.00414 0.47885 0.0
H1590 H 0.39615 0.0289 0.47461 0.0
H1591 H 0.37145 0.01778 0.46921 0.0
C1592 C 0.42416 0.08808 0.47721 0.0
C1593 C 0.41864 0.08701 0.46362 0.0
C1594 C 0.4116 0.07466 0.48658 0.0
C1595 C 0.39327 0.06001 0.48254 0.0
C1596 C 0.38737 0.05945 0.46912 0.0
H1597 H 0.32232 0.95871 0.53318 0.0
H1598 H 0.32917 0.98344 0.51603 0.0
C1599 C 0.40001 0.07274 0.45969 0.0
C1600 C 0.38096 0.04486 0.49232 0.0
H1601 H 0.3629 0.99722 0.49942 0.0
C1602 C 0.37612 0.0504 0.50451 0.0
C1603 C 0.37566 0.02534 0.49028 0.0
C1604 C 0.38104 0.01863 0.47759 0.0
C1605 C 0.36689 0.03708 0.51497 0.0
C1606 C 0.36251 0.01784 0.51316 0.0
C1607 C 0.36625 0.01203 0.5007 0.0
C1608 C 0.35672 0.00419 0.52456 0.0
C1609 C 0.36245 0.0438 0.52802 0.0
C1610 C 0.36991 0.00782 0.53502 0.0
C1611 C 0.36618 0.99372 0.54468 0.0
C1612 C 0.34916 0.97575 0.54406 0.0
C1613 C 0.33553 0.97246 0.53393 0.0
C1614 C 0.33939 0.98653 0.52415 0.0
H1615 H 0.36126 0.05689 0.52647 0.0
H1616 H 0.34884 0.03232 0.53256 0.0
H1617 H 0.37431 0.04744 0.53533 0.0
H1618 H 0.38353 0.02123 0.53535 0.0
H1619 H 0.37691 0.99671 0.5524 0.0
H1620 H 0.98723 0.34686 0.44886 0.0
H1621 H 0.01388 0.35171 0.46354 0.0
H1622 H 0.98426 0.35796 0.49792 0.0
H1623 H 0.95744 0.35256 0.48345 0.0
H1624 H 0.03625 0.38376 0.47658 0.0
H1625 H 0.00394 0.32566 0.51441 0.0
H1626 H 0.99179 0.32478 0.49881 0.0
H1627 H 0.99005 0.3375 0.51331 0.0
C1628 C 0.98625 0.34889 0.4596 0.0
C1629 C 0.97028 0.34942 0.465 0.0
C1630 C 0.00145 0.35159 0.46797 0.0
C1631 C 0.00094 0.35487 0.48187 0.0
C1632 C 0.98475 0.35486 0.48731 0.0
H1633 H 0.06963 0.42251 0.54325 0.0
H1634 H 0.04557 0.40057 0.52717 0.0
C1635 C 0.96949 0.35198 0.47899 0.0
C1636 C 0.01824 0.36095 0.49039 0.0
H1637 H 0.03188 0.35592 0.52213 0.0
C1638 C 0.03549 0.37728 0.48636 0.0
C1639 C 0.01731 0.35244 0.50311 0.0
C1640 C -0.0002 0.33399 0.50757 0.0
C1641 C 0.05122 0.3863 0.49519 0.0
C1642 C 0.04959 0.37878 0.50833 0.0
C1643 C 0.03295 0.36167 0.51203 0.0
C1644 C 0.06368 0.3902 0.51888 0.0
C1645 C 0.06898 0.40462 0.49083 0.0
C1646 C 0.08169 0.39132 0.5196 0.0
C1647 C 0.09552 0.40385 0.52884 0.0
C1648 C 0.09151 0.4155 0.53733 0.0
C1649 C 0.07322 0.41385 0.53678 0.0
C1650 C 0.05942 0.40126 0.52766 0.0
H1651 H 0.06804 0.40849 0.48018 0.0
H1652 H 0.07109 0.41669 0.49748 0.0
H1653 H 0.08187 0.40297 0.49189 0.0
H1654 H 0.08516 0.38287 0.51282 0.0
H1655 H 0.10949 0.40482 0.52905 0.0
H1656 H 0.32401 0.40552 0.5268 0.0
H1657 H 0.33146 0.38752 0.51013 0.0
H1658 H 0.38227 0.39948 0.53276 0.0
H1659 H 0.375 0.41741 0.5494 0.0
H1660 H 0.36659 0.40536 0.4953 0.0
H1661 H 0.35751 0.34165 0.52351 0.0
H1662 H 0.3464 0.35544 0.52878 0.0
H1663 H 0.37135 0.36391 0.53251 0.0
C1664 C 0.33656 0.404 0.52835 0.0
C1665 C 0.34899 0.41297 0.53936 0.0
C1666 C 0.34077 0.39372 0.51884 0.0
C1667 C 0.35726 0.392 0.52033 0.0
C1668 C 0.36927 0.40033 0.53157 0.0
H1669 H 0.43541 0.36897 0.47886 0.0
H1670 H 0.41511 0.37431 0.49465 0.0
C1671 C 0.36518 0.41072 0.54101 0.0
C1672 C 0.36334 0.38355 0.50946 0.0
H1673 H 0.37755 0.35056 0.50368 0.0
C1674 C 0.36862 0.39312 0.49698 0.0
C1675 C 0.36601 0.36766 0.51178 0.0
C1676 C 0.35985 0.35644 0.52483 0.0
C1677 C 0.37768 0.38798 0.48703 0.0
C1678 C 0.3811 0.37256 0.48956 0.0
C1679 C 0.37496 0.3624 0.5018 0.0
C1680 C 0.39247 0.36786 0.48011 0.0
C1681 C 0.38455 0.39984 0.47425 0.0
C1682 C 0.38627 0.3621 0.46679 0.0
C1683 C 0.39795 0.35923 0.45769 0.0
C1684 C 0.4159 0.36186 0.46183 0.0
C1685 C 0.42171 0.36691 0.47533 0.0
C1686 C 0.4101 0.36991 0.48438 0.0
H1687 H 0.38444 0.4136 0.47517 0.0
H1688 H 0.39939 0.4032 0.47164 0.0
H1689 H 0.3749 0.39153 0.46576 0.0
H1690 H 0.37253 0.36007 0.46338 0.0
H1691 H 0.39297 0.35513 0.44739 0.0
H1692 H 0.66001 0.95732 0.53498 0.0
H1693 H 0.67954 0.98242 0.51845 0.0
H1694 H 0.66012 0.01928 0.53554 0.0
H1695 H 0.64063 0.99443 0.55199 0.0
H1696 H 0.66222 0.99618 0.49996 0.0
H1697 H 0.7184 0.05594 0.53018 0.0
H1698 H 0.70568 0.03131 0.53612 0.0
H1699 H 0.69483 0.04622 0.53748 0.0
C1700 C 0.66022 0.97093 0.53537 0.0
C1701 C 0.6487 0.97389 0.54471 0.0
C1702 C 0.67139 0.98523 0.52595 0.0
C1703 C 0.67146 0.00276 0.52593 0.0
C1704 C 0.66058 0.006 0.53559 0.0
H1705 H 0.68294 0.09564 0.48216 0.0
H1706 H 0.68164 0.07208 0.49835 0.0
C1707 C 0.64929 0.9917 0.54489 0.0
C1708 C 0.68065 0.01676 0.51484 0.0
H1709 H 0.70962 0.06483 0.50905 0.0
C1710 C 0.67299 0.01111 0.5018 0.0
C1711 C 0.69467 0.03615 0.51735 0.0
C1712 C 0.70402 0.04274 0.53102 0.0
C1713 C 0.67772 0.02471 0.49145 0.0
C1714 C 0.6908 0.04436 0.49422 0.0
C1715 C 0.69953 0.04977 0.507 0.0
C1716 C 0.69357 0.05969 0.48463 0.0
C1717 C 0.66757 0.01811 0.478 0.0
C1718 C 0.70109 0.06078 0.47165 0.0
C1719 C 0.70164 0.07412 0.46229 0.0
C1720 C 0.69487 0.08669 0.46586 0.0
C1721 C 0.68816 0.08609 0.47907 0.0
C1722 C 0.68749 0.07269 0.48836 0.0
H1723 H 0.65547 0.00299 0.47835 0.0
H1724 H 0.66181 0.02752 0.47474 0.0
H1725 H 0.67798 0.019 0.47024 0.0
H1726 H 0.70618 0.05109 0.46867 0.0
H1727 H 0.70711 0.07439 0.45223 0.0
H1728 H 0.98212 0.65271 0.44495 0.0
H1729 H 0.00563 0.67726 0.46021 0.0
H1730 H 0.97938 0.63896 0.49407 0.0
H1731 H 0.95553 0.61456 0.47899 0.0
H1732 H 0.98969 0.67684 0.49992 0.0
H1733 H 0.05009 0.6725 0.47557 0.0
H1734 H 0.03629 0.6788 0.46456 0.0
H1735 H 0.02518 0.65527 0.47211 0.0
C1736 C 0.9813 0.64956 0.45566 0.0
C1737 C 0.96713 0.63161 0.46076 0.0
C1738 C 0.99476 0.66359 0.46435 0.0
C1739 C 0.99443 0.65977 0.47821 0.0
C1740 C 0.97989 0.64215 0.48338 0.0
H1741 H 0.05979 0.68999 0.54875 0.0
H1742 H 0.03444 0.6803 0.53187 0.0
C1743 C 0.96632 0.6282 0.47474 0.0
C1744 C 0.0098 0.67355 0.48732 0.0
H1745 H 0.0576 0.69271 0.49438 0.0
C1746 C 0.00459 0.68053 0.49864 0.0
C1747 C 0.02924 0.67839 0.48557 0.0
C1748 C 0.03559 0.67077 0.47387 0.0
C1749 C 0.01822 0.69165 0.50852 0.0
C1750 C 0.03742 0.6957 0.50706 0.0
C1751 C 0.04284 0.68963 0.49541 0.0
C1752 C 0.05155 0.70386 0.5182 0.0
C1753 C 0.01186 0.69858 0.52059 0.0
C1754 C 0.06954 0.72044 0.51616 0.0
C1755 C 0.08414 0.72601 0.5258 0.0
C1756 C 0.08102 0.71487 0.53751 0.0
C1757 C 0.06267 0.69882 0.53981 0.0
C1758 C 0.04809 0.69336 0.53023 0.0
H1759 H -0.001 0.69987 0.51818 0.0
H1760 H 0.0079 0.688 0.52893 0.0
H1761 H 0.02359 0.71275 0.52421 0.0
H1762 H 0.07252 0.72861 0.50687 0.0
H1763 H 0.09813 0.73844 0.52375 0.0
H1764 H 0.06879 0.31135 0.05031 0.0
H1765 H 0.06445 0.31372 0.02601 0.0
H1766 H 0.00297 0.27755 0.03068 0.0
H1767 H 0.00709 0.27526 0.0549 0.0
H1768 H 0.04813 0.28212 0.00883 0.0
H1769 H 0.00715 0.32092 0.00666 0.0
H1770 H 0.02026 0.32094 0.02153 0.0
H1771 H 0.99682 0.30069 0.01797 0.0
C1772 C 0.05433 0.30417 0.0462 0.0
C1773 C 0.03829 0.29308 0.05453 0.0
C1774 C 0.05188 0.30555 0.03233 0.0
C1775 C 0.03338 0.29603 0.0266 0.0
C1776 C 0.01733 0.28537 0.03494 0.0
H1777 H 0.98204 0.26098 0.94802 0.0
H1778 H 0.98915 0.26843 0.97207 0.0
C1779 C 0.01975 0.28396 0.04878 0.0
C1780 C 0.0309 0.29555 0.01176 0.0
H1781 H 0.00696 0.30406 0.98658 0.0
C1782 C 0.03937 0.28717 0.00392 0.0
C1783 C 0.01934 0.30203 0.00544 0.0
C1784 C 0.01051 0.31182 0.01331 0.0
C1785 C 0.03603 0.28445 0.98998 0.0
C1786 C 0.02419 0.29062 0.98369 0.0
C1787 C 0.016 0.29934 0.99147 0.0
C1788 C 0.01973 0.28756 0.96909 0.0
C1789 C 0.0446 0.27432 0.98219 0.0
C1790 C 0.0345 0.29627 0.95948 0.0
C1791 C 0.03052 0.29198 0.94578 0.0
C1792 C 0.01165 0.279 0.94144 0.0
C1793 C 0.99673 0.27096 0.95104 0.0
C1794 C 0.00075 0.27522 0.96477 0.0
H1795 H 0.04953 0.26661 0.98899 0.0
H1796 H 0.03398 0.26379 0.97493 0.0
H1797 H 0.05724 0.28511 0.97636 0.0
H1798 H 0.04917 0.30612 0.96262 0.0
H1799 H 0.04231 0.29858 0.93863 0.0
H1800 H 0.76177 0.75802 0.93848 0.0
H1801 H 0.75439 0.75559 0.96265 0.0
H1802 H 0.81485 0.79179 0.97158 0.0
H1803 H 0.82241 0.7939 0.94751 0.0
H1804 H 0.79697 0.76137 0.98907 0.0
H1805 H 0.7552 0.79936 0.98394 0.0
H1806 H 0.74652 0.77794 0.9739 0.0
H1807 H 0.76981 0.79841 0.97042 0.0
C1808 C 0.77351 0.76535 0.9456 0.0
C1809 C 0.79267 0.77631 0.94108 0.0
C1810 C 0.76925 0.76403 0.9594 0.0
C1811 C 0.78404 0.77383 0.96887 0.0
C1812 C 0.80322 0.78418 0.96442 0.0
H1813 H 0.78715 0.81802 0.04745 0.0
H1814 H 0.78673 0.81113 0.02339 0.0
C1815 C 0.80751 0.78539 0.95065 0.0
C1816 C 0.77967 0.77389 0.98341 0.0
H1817 H 0.75758 0.78905 0.00579 0.0
C1818 C 0.78824 0.76728 0.99275 0.0
C1819 C 0.76841 0.78178 0.98814 0.0
C1820 C 0.75958 0.78994 0.97862 0.0
C1821 C 0.78625 0.76877 0.00672 0.0
C1822 C 0.77501 0.77668 0.01145 0.0
C1823 C 0.76605 0.78285 0.00211 0.0
C1824 C 0.77381 0.78031 0.026 0.0
C1825 C 0.79694 0.76269 0.01627 0.0
C1826 C 0.76624 0.76519 0.03542 0.0
C1827 C 0.7666 0.7691 0.04923 0.0
C1828 C 0.77435 0.78818 0.05381 0.0
C1829 C 0.78114 0.80317 0.04428 0.0
C1830 C 0.78089 0.79926 0.03051 0.0
H1831 H 0.80822 0.76095 0.01099 0.0
H1832 H 0.80386 0.77338 0.02453 0.0
H1833 H 0.7866 0.74864 0.0209 0.0
H1834 H 0.76031 0.75041 0.03211 0.0
H1835 H 0.76111 0.75721 0.05632 0.0
H1836 H 0.28844 0.01627 0.93837 0.0
H1837 H 0.28901 0.00865 0.9623 0.0
H1838 H 0.26393 0.04353 0.97297 0.0
H1839 H 0.26324 0.05122 0.94915 0.0
H1840 H 0.30655 0.03461 0.98529 0.0
H1841 H 0.22701 0.98894 0.98912 0.0
H1842 H 0.23959 0.99533 0.97313 0.0
H1843 H 0.23518 0.01236 0.98193 0.0
C1844 C 0.28314 0.02241 0.94582 0.0
C1845 C 0.27566 0.03425 0.94186 0.0
C1846 C 0.28349 0.01804 0.95946 0.0
C1847 C 0.27624 0.0253 0.96931 0.0
C1848 C 0.26931 0.03756 0.96545 0.0
H1849 H 0.28501 0.03968 0.05437 0.0
H1850 H 0.28925 0.04219 0.02991 0.0
C1851 C 0.26902 0.042 0.95184 0.0
C1852 C 0.27562 0.01993 0.98366 0.0
H1853 H 0.2445 0.9981 0.00985 0.0
C1854 C 0.29302 0.02645 0.99066 0.0
C1855 C 0.25792 0.00899 0.99052 0.0
C1856 C 0.23884 0.00082 0.98329 0.0
C1857 C 0.29315 0.02309 0.00458 0.0
C1858 C 0.27544 0.01315 0.0116 0.0
C1859 C 0.25806 0.00583 0.00445 0.0
C1860 C 0.27453 0.0114 0.0265 0.0
C1861 C 0.31223 0.03039 0.01166 0.0
C1862 C 0.26469 0.99323 0.03269 0.0
C1863 C 0.26213 0.99172 0.04671 0.0
C1864 C 0.2692 0.00838 0.05473 0.0
C1865 C 0.27939 0.02655 0.0485 0.0
C1866 C 0.28198 0.02803 0.03451 0.0
H1867 H 0.32371 0.03226 0.00449 0.0
H1868 H 0.31663 0.04463 0.01626 0.0
H1869 H 0.31116 0.0204 0.01984 0.0
H1870 H 0.25869 0.98023 0.02663 0.0
H1871 H 0.2542 0.97752 0.05121 0.0
H1872 H 0.00158 0.79701 0.94416 0.0
H1873 H 0.00482 0.79503 0.96855 0.0
H1874 H 0.03576 0.76447 0.96221 0.0
H1875 H 0.03297 0.76676 0.93771 0.0
H1876 H 0.99305 0.76415 0.98572 0.0
H1877 H 0.07291 0.80996 0.98552 0.0
H1878 H 0.05834 0.80775 0.97099 0.0
H1879 H 0.06344 0.78889 0.97501 0.0
C1880 C 0.00902 0.78979 0.94792 0.0
C1881 C 0.01719 0.78221 0.939 0.0
C1882 C 0.01082 0.78865 0.96188 0.0
C1883 C 0.0208 0.77989 0.96717 0.0
C1884 C 0.02837 0.77166 0.95831 0.0
H1885 H 0.01926 0.7608 0.05486 0.0
H1886 H 0.01635 0.75513 0.03041 0.0
C1887 C 0.02667 0.7729 0.94433 0.0
C1888 C 0.0236 0.77991 0.98196 0.0
H1889 H 0.05805 0.79785 0.00659 0.0
C1890 C 0.00725 0.77138 0.99031 0.0
C1891 C 0.04217 0.78953 0.98787 0.0
C1892 C 0.06024 0.79971 0.97942 0.0
C1893 C 0.00893 0.77256 0.00444 0.0
C1894 C 0.0275 0.78219 0.01035 0.0
C1895 C 0.04385 0.79035 0.002 0.0
C1896 C 0.03025 0.78535 0.02512 0.0
C1897 C 0.99083 0.76424 0.01289 0.0
C1898 C 0.03965 0.80422 0.0302 0.0
C1899 C 0.04152 0.80751 0.04411 0.0
C1900 C 0.03399 0.79197 0.05322 0.0
C1901 C 0.02506 0.77307 0.0481 0.0
C1902 C 0.02329 0.7698 0.03415 0.0
H1903 H 0.97798 0.76116 0.00675 0.0
H1904 H 0.98819 0.75051 0.0175 0.0
H1905 H 0.99234 0.77425 0.02118 0.0
H1906 H 0.04518 0.81643 0.02338 0.0
H1907 H 0.04852 0.82225 0.0477 0.0
H1908 H 0.25874 0.29891 0.04743 0.0
H1909 H 0.26517 0.30039 0.02315 0.0
H1910 H 0.30681 0.28223 0.03028 0.0
H1911 H 0.30016 0.28025 0.05453 0.0
H1912 H 0.29832 0.32025 0.00744 0.0
H1913 H 0.2686 0.24104 0.00464 0.0
H1914 H 0.26567 0.25263 0.01936 0.0
H1915 H 0.28817 0.25338 0.01634 0.0
C1916 C 0.26939 0.29539 0.04385 0.0
C1917 C 0.27874 0.28919 0.05286 0.0
C1918 C 0.27306 0.29627 0.02998 0.0
C1919 C 0.28617 0.29104 0.02493 0.0
C1920 C 0.29631 0.28589 0.03397 0.0
H1921 H 0.30713 0.27177 0.94117 0.0
H1922 H 0.31124 0.27815 0.96553 0.0
C1923 C 0.29253 0.28484 0.04782 0.0
C1924 C 0.28843 0.29006 0.01016 0.0
H1925 H 0.28092 0.25859 0.98448 0.0
C1926 C 0.29462 0.30681 0.00241 0.0
C1927 C 0.28355 0.27246 0.00365 0.0
C1928 C 0.27596 0.25381 0.01138 0.0
C1929 C 0.29592 0.30639 0.98827 0.0
C1930 C 0.29071 0.28874 0.98178 0.0
C1931 C 0.285 0.27212 0.98954 0.0
C1932 C 0.28967 0.28678 0.96691 0.0
C1933 C 0.30277 0.32479 0.98039 0.0
C1934 C 0.27617 0.28952 0.9597 0.0
C1935 C 0.2737 0.28579 0.94585 0.0
C1936 C 0.28466 0.2792 0.93897 0.0
C1937 C 0.29848 0.27686 0.94618 0.0
C1938 C 0.30087 0.28051 0.96007 0.0
H1939 H 0.31111 0.33771 0.98685 0.0
H1940 H 0.31189 0.3255 0.9717 0.0
H1941 H 0.29009 0.32528 0.97635 0.0
H1942 H 0.26712 0.29398 0.96486 0.0
H1943 H 0.26294 0.28774 0.94059 0.0
H1944 H 0.79126 0.06197 0.94727 0.0
H1945 H 0.78472 0.05736 0.97157 0.0
H1946 H 0.75315 0.99577 0.96583 0.0
H1947 H 0.75994 0.00018 0.94161 0.0
H1948 H 0.75029 0.0388 0.98631 0.0
H1949 H 0.794 0.00326 0.99356 0.0
H1950 H 0.79496 0.01594 0.97825 0.0
H1951 H 0.7753 0.99193 0.98112 0.0
C1952 C 0.78286 0.04744 0.95117 0.0
C1953 C 0.77632 0.03143 0.94255 0.0
C1954 C 0.77911 0.04485 0.96504 0.0
C1955 C 0.76876 0.02623 0.9705 0.0
C1956 C 0.76154 0.01025 0.96184 0.0
H1957 H 0.74396 0.98463 0.05345 0.0
H1958 H 0.74274 0.98708 0.02883 0.0
C1959 C 0.76538 0.01281 0.948 0.0
C1960 C 0.766 0.0235 0.98528 0.0
H1961 H 0.77655 0.00426 0.0125 0.0
C1962 C 0.75601 0.03124 0.99205 0.0
C1963 C 0.77353 0.01366 0.99272 0.0
C1964 C 0.7852 0.00587 0.98608 0.0
C1965 C 0.75324 0.02929 0.00611 0.0
C1966 C 0.76084 0.01952 0.01351 0.0
C1967 C 0.77063 0.01161 0.00673 0.0
C1968 C 0.75977 0.01819 0.02842 0.0
C1969 C 0.74215 0.03758 0.01291 0.0
C1970 C 0.76968 0.0349 0.03628 0.0
C1971 C 0.77049 0.03357 0.05031 0.0
C1972 C 0.76144 0.01547 0.05671 0.0
C1973 C 0.75106 -0.00122 0.04883 0.0
C1974 C 0.75034 0.00013 0.03477 0.0
H1975 H 0.73315 0.04014 0.00559 0.0
H1976 H 0.7327 0.02784 0.02102 0.0
H1977 H 0.75246 0.05159 0.01762 0.0
H1978 H 0.77735 0.04894 0.03153 0.0
H1979 H 0.77861 0.0467 0.05609 0.0
H1980 H 0.71803 0.62037 0.2768 0.0
H1981 H 0.72022 0.62494 0.30125 0.0
H1982 H 0.66426 0.62037 0.30172 0.0
H1983 H 0.66182 0.6156 0.27715 0.0
H1984 H 0.71708 0.65287 0.31817 0.0
H1985 H 0.65939 0.57699 0.32737 0.0
H1986 H 0.67129 0.58495 0.31122 0.0
H1987 H 0.65357 0.59115 0.31629 0.0
C1988 C 0.70621 0.62045 0.28205 0.0
C1989 C 0.68964 0.61741 0.27504 0.0
C1990 C 0.70754 0.62315 0.29602 0.0
C1991 C 0.69233 0.62278 0.30326 0.0
C1992 C 0.67605 0.62046 0.29628 0.0
H1993 H 0.67786 0.61088 0.39082 0.0
H1994 H 0.67345 0.61677 0.3672 0.0
C1995 C 0.67471 0.61779 0.28226 0.0
C1996 C 0.69324 0.62375 0.31818 0.0
H1997 H 0.67473 0.59597 0.34637 0.0
C1998 C 0.7077 0.64053 0.32438 0.0
C1999 C 0.68094 0.60762 0.32621 0.0
C2000 C 0.66548 0.58907 0.32 0.0
C2001 C 0.71044 0.64148 0.33844 0.0
C2002 C 0.69865 0.62507 0.34641 0.0
C2003 C 0.68375 0.60854 0.34023 0.0
C2004 C 0.70222 0.62409 0.36101 0.0
C2005 C 0.72595 0.66001 0.3446 0.0
C2006 C 0.71994 0.62644 0.36539 0.0
C2007 C 0.72255 0.62317 0.3789 0.0
C2008 C 0.70737 0.61721 0.38822 0.0
C2009 C 0.68982 0.61539 0.38388 0.0
C2010 C 0.68727 0.61878 0.37039 0.0
H2011 H 0.72904 0.67261 0.33818 0.0
H2012 H 0.72182 0.66229 0.35486 0.0
H2013 H 0.73944 0.6594 0.34544 0.0
H2014 H 0.73152 0.63005 0.35826 0.0
H2015 H 0.73621 0.62462 0.3819 0.0
H2016 H 0.40828 0.1233 0.38639 0.0
H2017 H 0.40549 0.11996 0.36175 0.0
H2018 H 0.43731 0.08964 0.36232 0.0
H2019 H 0.43999 0.09269 0.38684 0.0
H2020 H 0.43696 0.13579 0.34491 0.0
H2021 H 0.39364 0.05718 0.33616 0.0
H2022 H 0.39419 0.06808 0.35227 0.0
H2023 H 0.41322 0.06343 0.34766 0.0
C2024 C 0.41435 0.11558 0.38129 0.0
C2025 C 0.42444 0.10834 0.38856 0.0
C2026 C 0.41272 0.11368 0.36723 0.0
C2027 C 0.42098 0.10434 0.36025 0.0
C2028 C 0.43045 0.09651 0.36753 0.0
H2029 H 0.4748 0.12381 0.28363 0.0
H2030 H 0.4651 0.12071 0.30732 0.0
C2031 C 0.43211 0.09843 0.38156 0.0
C2032 C 0.42182 0.10475 0.34531 0.0
H2033 H 0.41366 0.07628 0.31758 0.0
C2034 C 0.43156 0.12277 0.33891 0.0
C2035 C 0.41463 0.08775 0.33749 0.0
C2036 C 0.40316 0.06801 0.34373 0.0
C2037 C 0.43522 0.12426 0.32498 0.0
C2038 C 0.42917 0.10731 0.31733 0.0
C2039 C 0.4185 0.08925 0.32356 0.0
C2040 C 0.43469 0.10818 0.303 0.0
C2041 C 0.44587 0.14399 0.3186 0.0
C2042 C 0.42069 0.10163 0.2928 0.0
C2043 C 0.42618 0.10338 0.27922 0.0
C2044 C 0.44574 0.11156 0.27568 0.0
C2045 C 0.45963 0.11753 0.286 0.0
C2046 C 0.45414 0.11585 0.29954 0.0
H2047 H 0.44515 0.15503 0.32498 0.0
H2048 H 0.46126 0.14826 0.31735 0.0
H2049 H 0.4399 0.14393 0.30845 0.0
H2050 H 0.4056 0.09557 0.29533 0.0
H2051 H 0.41512 0.09857 0.27151 0.0
H2052 H 0.96332 0.35582 0.39092 0.0
H2053 H 0.96871 0.36006 0.36649 0.0
H2054 H 0.90736 0.3272 0.35968 0.0
H2055 H 0.90185 0.32247 0.38399 0.0
H2056 H 0.92746 0.3181 0.3417 0.0
H2057 H 0.95878 0.39747 0.34505 0.0
H2058 H 0.97109 0.38806 0.35485 0.0
H2059 H 0.94678 0.38163 0.35912 0.0
C2060 C 0.95099 0.34935 0.38421 0.0
C2061 C 0.93214 0.33896 0.38939 0.0
C2062 C 0.9541 0.35189 0.37027 0.0
C2063 C 0.93841 0.34429 0.36131 0.0
C2064 C 0.91965 0.33327 0.36643 0.0
H2065 H 0.92437 0.37764 0.2822 0.0
H2066 H 0.9264 0.37257 0.30634 0.0
C2067 C 0.91654 0.33059 0.38034 0.0
C2068 C 0.9413 0.34827 0.34663 0.0
H2069 H 0.95709 0.38451 0.32338 0.0
C2070 C 0.93406 0.33261 0.33766 0.0
C2071 C 0.94972 0.36723 0.34145 0.0
C2072 C 0.9569 0.38458 0.35058 0.0
C2073 C 0.93464 0.33536 0.32363 0.0
C2074 C 0.94313 0.35433 0.31845 0.0
C2075 C 0.95073 0.37001 0.32741 0.0
C2076 C 0.94296 0.35817 0.30382 0.0
C2077 C 0.92542 0.31791 0.31453 0.0
C2078 C 0.95197 0.35212 0.29443 0.0
C2079 C 0.95069 0.35485 0.28059 0.0
C2080 C 0.94058 0.3639 0.27596 0.0
C2081 C 0.93222 0.37058 0.28544 0.0
C2082 C 0.93338 0.36772 0.29924 0.0
H2083 H 0.91567 0.30456 0.32021 0.0
H2084 H 0.91703 0.3198 0.30634 0.0
H2085 H 0.93684 0.31589 0.30978 0.0
H2086 H 0.95982 0.34513 0.29779 0.0
H2087 H 0.95745 0.3497 0.27354 0.0
H2088 H 0.6789 0.09244 0.38949 0.0
H2089 H 0.67696 0.0893 0.36495 0.0
H2090 H 0.739 0.12132 0.36231 0.0
H2091 H 0.74112 0.12478 0.38694 0.0
H2092 H 0.72155 0.13622 0.34648 0.0
H2093 H 0.68764 0.05773 0.33768 0.0
H2094 H 0.67462 0.06353 0.34978 0.0
H2095 H 0.69877 0.06885 0.35357 0.0
C2096 C 0.69217 0.09853 0.38373 0.0
C2097 C 0.71017 0.10897 0.39016 0.0
C2098 C 0.69102 0.09657 0.3697 0.0
C2099 C 0.70783 0.10487 0.36183 0.0
C2100 C 0.72586 0.1147 0.36823 0.0
H2101 H 0.70348 0.09772 0.27326 0.0
H2102 H 0.71088 0.09519 0.29694 0.0
C2103 C 0.72704 0.11666 0.3823 0.0
C2104 C 0.70639 0.10519 0.34693 0.0
H2105 H 0.68523 0.07643 0.31946 0.0
C2106 C 0.71388 0.12315 0.34054 0.0
C2107 C 0.69652 0.08812 0.33918 0.0
C2108 C 0.6891 0.06847 0.34538 0.0
C2109 C 0.71096 0.12451 0.32671 0.0
C2110 C 0.70003 0.10745 0.31916 0.0
C2111 C 0.69336 0.08948 0.32536 0.0
C2112 C 0.69483 0.10809 0.30492 0.0
C2113 C 0.71937 0.14419 0.32033 0.0
C2114 C 0.68299 0.11577 0.30165 0.0
C2115 C 0.6787 0.11722 0.28818 0.0
C2116 C 0.68616 0.11096 0.27773 0.0
C2117 C 0.69758 0.10275 0.28107 0.0
C2118 C 0.70182 0.10127 0.29458 0.0
H2119 H 0.73138 0.15538 0.32647 0.0
H2120 H 0.72477 0.14424 0.30998 0.0
H2121 H 0.708 0.14819 0.31957 0.0
H2122 H 0.67721 0.12081 0.30954 0.0
H2123 H 0.66979 0.12351 0.28596 0.0
H2124 H 0.96045 0.60143 0.38557 0.0
H2125 H 0.96396 0.6026 0.36103 0.0
H2126 H 0.93254 0.63316 0.35795 0.0
H2127 H 0.92878 0.63193 0.38256 0.0
H2128 H 0.91801 0.60052 0.34177 0.0
H2129 H 0.99689 0.64623 0.3346 0.0
H2130 H 0.99044 0.62715 0.34661 0.0
H2131 H 0.98494 0.64589 0.35018 0.0
C2132 C 0.95453 0.60867 0.37971 0.0
C2133 C 0.94426 0.61652 0.38602 0.0
C2134 C 0.95669 0.60945 0.36569 0.0
C2135 C 0.94873 0.61818 0.35771 0.0
C2136 C 0.93891 0.62648 0.36397 0.0
H2137 H 0.95762 0.62663 0.26945 0.0
H2138 H 0.95966 0.63468 0.29352 0.0
C2139 C 0.93677 0.62576 0.37802 0.0
C2140 C 0.94901 0.61684 0.3428 0.0
H2141 H 0.97894 0.62655 0.31573 0.0
C2142 C 0.93132 0.60643 0.33605 0.0
C2143 C 0.96639 0.62468 0.33537 0.0
C2144 C 0.98575 0.63678 0.34203 0.0
C2145 C 0.93057 0.60296 0.32211 0.0
C2146 C 0.94797 0.60992 0.31482 0.0
C2147 C 0.96565 0.62104 0.32143 0.0
C2148 C 0.94795 0.60529 0.30036 0.0
C2149 C 0.91118 0.59173 0.31532 0.0
C2150 C 0.94115 0.58619 0.29634 0.0
C2151 C 0.94001 0.58153 0.28265 0.0
C2152 C 0.94566 0.59594 0.27273 0.0
C2153 C 0.95308 0.61519 0.27684 0.0
C2154 C 0.95427 0.61983 0.29056 0.0
H2155 H 0.89949 0.59144 0.32154 0.0
H2156 H 0.91129 0.59796 0.30527 0.0
H2157 H 0.90781 0.57664 0.31377 0.0
H2158 H 0.93647 0.57483 0.30381 0.0
H2159 H 0.93432 0.56659 0.27984 0.0
H2160 H 0.42222 0.36501 0.38705 0.0
H2161 H 0.42041 0.36986 0.36277 0.0
H2162 H 0.44074 0.33025 0.35426 0.0
H2163 H 0.44207 0.32491 0.37838 0.0
H2164 H 0.4499 0.38521 0.3457 0.0
H2165 H 0.39754 0.31231 0.32754 0.0
H2166 H 0.40026 0.31862 0.34525 0.0
H2167 H 0.41619 0.31182 0.33723 0.0
C2168 C 0.42594 0.35705 0.37999 0.0
C2169 C 0.43229 0.34458 0.38463 0.0
C2170 C 0.42491 0.35985 0.36613 0.0
C2171 C 0.43017 0.35021 0.3567 0.0
C2172 C 0.4361 0.33744 0.36133 0.0
H2173 H 0.48501 0.38532 0.28045 0.0
H2174 H 0.47542 0.38063 0.30417 0.0
C2175 C 0.43699 0.33452 0.37515 0.0
C2176 C 0.43134 0.35482 0.3421 0.0
H2177 H 0.4202 0.334 0.31087 0.0
C2178 C 0.44311 0.37405 0.33808 0.0
C2179 C 0.42221 0.34034 0.33215 0.0
C2180 C 0.40817 0.31966 0.33578 0.0
C2181 C 0.44691 0.37904 0.32438 0.0
C2182 C 0.43914 0.36432 0.31449 0.0
C2183 C 0.42643 0.34525 0.31847 0.0
C2184 C 0.44491 0.36816 0.30009 0.0
C2185 C 0.45938 0.40001 0.32068 0.0
C2186 C 0.43092 0.36229 0.28989 0.0
C2187 C 0.43635 0.36468 0.27629 0.0
C2188 C 0.45588 0.37297 0.27266 0.0
C2189 C 0.46986 0.37904 0.2829 0.0
C2190 C 0.46441 0.37651 0.29648 0.0
H2191 H 0.4584 0.40951 0.32844 0.0
H2192 H 0.47465 0.40358 0.32015 0.0
H2193 H 0.45523 0.40324 0.31072 0.0
H2194 H 0.41578 0.3557 0.29246 0.0
H2195 H 0.42522 0.35985 0.26863 0.0
H2196 H 0.3938 0.96662 0.72346 0.0
H2197 H 0.3912 0.97129 0.69926 0.0
H2198 H 0.32971 0.93306 0.70121 0.0
H2199 H 0.33211 0.92841 0.72537 0.0
H2200 H 0.37673 0.94073 0.6807 0.0
H2201 H 0.33478 0.97865 0.67889 0.0
H2202 H 0.34716 0.97786 0.69393 0.0
H2203 H 0.32429 0.95751 0.68936 0.0
C2204 C 0.37968 0.95946 0.71879 0.0
C2205 C 0.36317 0.94708 0.72632 0.0
C2206 C 0.37823 0.96216 0.70497 0.0
C2207 C 0.36025 0.9527 0.69851 0.0
C2208 C 0.34368 0.9408 0.70607 0.0
H2209 H 0.31755 0.92707 0.61692 0.0
H2210 H 0.32173 0.9316 0.64143 0.0
C2211 C 0.34511 0.93804 0.71986 0.0
C2212 C 0.359 0.95361 0.68364 0.0
H2213 H 0.33752 0.96481 0.65819 0.0
C2214 C 0.36837 0.94622 0.67575 0.0
C2215 C 0.34793 0.96062 0.67728 0.0
C2216 C 0.33809 0.96927 0.68528 0.0
C2217 C 0.3665 0.94511 0.66165 0.0
C2218 C 0.35529 0.95197 0.65527 0.0
C2219 C 0.34611 0.9596 0.66314 0.0
C2220 C 0.35257 0.9508 0.64045 0.0
C2221 C 0.37597 0.93595 0.65376 0.0
C2222 C 0.36846 0.96055 0.63181 0.0
C2223 C 0.36616 0.9579 0.61785 0.0
C2224 C 0.34788 0.94558 0.61227 0.0
C2225 C 0.33183 0.93658 0.62091 0.0
C2226 C 0.33417 0.93917 0.6349 0.0
H2227 H 0.37999 0.92729 0.66036 0.0
H2228 H 0.3663 0.92648 0.64564 0.0
H2229 H 0.38933 0.94741 0.64896 0.0
H2230 H 0.38272 0.9699 0.6359 0.0
H2231 H 0.37878 0.96523 0.61146 0.0
H2232 H 0.08044 0.44997 0.71623 0.0
H2233 H 0.07909 0.44759 0.69153 0.0
H2234 H 0.1141 0.42066 0.69251 0.0
H2235 H 0.11546 0.42285 0.71715 0.0
H2236 H 0.11233 0.46525 0.67506 0.0
H2237 H 0.07022 0.38633 0.66625 0.0
H2238 H 0.06984 0.39723 0.68216 0.0
H2239 H 0.08977 0.39382 0.67801 0.0
C2240 C 0.0876 0.44327 0.71121 0.0
C2241 C 0.09811 0.43665 0.71864 0.0
C2242 C 0.08681 0.44192 0.69711 0.0
C2243 C 0.0963 0.43375 0.69024 0.0
C2244 C 0.10636 0.42667 0.69764 0.0
H2245 H 0.12886 0.42706 0.60835 0.0
H2246 H 0.12199 0.42352 0.63263 0.0
C2247 C 0.10723 0.42806 0.71172 0.0
C2248 C 0.09726 0.43425 0.67531 0.0
H2249 H 0.08722 0.40592 0.6473 0.0
C2250 C 0.10664 0.45229 0.66895 0.0
C2251 C 0.08996 0.4173 0.66745 0.0
C2252 C 0.07923 0.39755 0.67378 0.0
C2253 C 0.10946 0.45389 0.65492 0.0
C2254 C 0.10229 0.43695 0.64704 0.0
C2255 C 0.09267 0.41887 0.65339 0.0
C2256 C 0.10513 0.4378 0.63223 0.0
C2257 C 0.12069 0.47373 0.64873 0.0
C2258 C 0.0975 0.44655 0.62395 0.0
C2259 C 0.1015 0.44872 0.61012 0.0
C2260 C 0.11305 0.44198 0.60431 0.0
C2261 C 0.11999 0.43248 0.61254 0.0
C2262 C 0.11606 0.43041 0.6264 0.0
H2263 H 0.12921 0.48489 0.65643 0.0
H2264 H 0.13067 0.47411 0.64078 0.0
H2265 H 0.11051 0.47756 0.64399 0.0
H2266 H 0.08869 0.45198 0.62823 0.0
H2267 H 0.09576 0.45592 0.60404 0.0
H2268 H 0.62985 0.70063 0.72321 0.0
H2269 H 0.63638 0.70556 0.69891 0.0
H2270 H 0.57531 0.67435 0.69077 0.0
H2271 H 0.56866 0.66893 0.71492 0.0
H2272 H 0.59546 0.66459 0.67338 0.0
H2273 H 0.62899 0.74422 0.67696 0.0
H2274 H 0.64026 0.73399 0.68705 0.0
H2275 H 0.61606 0.7284 0.69084 0.0
C2276 C 0.61782 0.69471 0.71623 0.0
C2277 C 0.59873 0.68453 0.72099 0.0
C2278 C 0.62158 0.69764 0.70237 0.0
C2279 C 0.60632 0.69063 0.69307 0.0
C2280 C 0.5873 0.67994 0.69778 0.0
H2281 H 0.59404 0.72488 0.61421 0.0
H2282 H 0.59657 0.7201 0.63831 0.0
C2283 C 0.58353 0.67688 0.7116 0.0
C2284 C 0.6099 0.69474 0.67843 0.0
H2285 H 0.62716 0.73122 0.6553 0.0
C2286 C 0.60254 0.67915 0.6694 0.0
C2287 C 0.61898 0.71377 0.67331 0.0
C2288 C 0.6264 0.73108 0.68251 0.0
C2289 C 0.60352 0.68203 0.65537 0.0
C2290 C 0.61255 0.70106 0.65025 0.0
C2291 C 0.62038 0.71667 0.65928 0.0
C2292 C 0.61247 0.70504 0.63564 0.0
C2293 C 0.59404 0.66466 0.6462 0.0
C2294 C 0.62099 0.69858 0.62615 0.0
C2295 C 0.61941 0.70113 0.61232 0.0
C2296 C 0.60948 0.71041 0.60778 0.0
C2297 C 0.60173 0.71762 0.61735 0.0
C2298 C 0.60318 0.71493 0.63115 0.0
H2299 H 0.58406 0.65133 0.65183 0.0
H2300 H 0.58583 0.66683 0.63802 0.0
H2301 H 0.6053 0.66239 0.64146 0.0
H2302 H 0.62861 0.69131 0.62942 0.0
H2303 H 0.6257 0.69558 0.60519 0.0
H2304 H 0.35162 0.47495 0.72048 0.0
H2305 H 0.34798 0.46981 0.69608 0.0
H2306 H 0.3657 0.42723 0.69923 0.0
H2307 H 0.36907 0.43203 0.72375 0.0
H2308 H 0.37578 0.47511 0.67758 0.0
H2309 H 0.31581 0.39919 0.6773 0.0
H2310 H 0.32245 0.41419 0.6922 0.0
H2311 H 0.33645 0.4034 0.68709 0.0
C2312 C 0.35469 0.46443 0.71601 0.0
C2313 C 0.3606 0.45386 0.72405 0.0
C2314 C 0.35259 0.46151 0.70207 0.0
C2315 C 0.35632 0.44796 0.69589 0.0
C2316 C 0.36236 0.43747 0.70385 0.0
H2317 H 0.37481 0.44789 0.60913 0.0
H2318 H 0.37802 0.44759 0.63368 0.0
C2319 C 0.36441 0.44033 0.71783 0.0
C2320 C 0.35448 0.44541 0.68105 0.0
H2321 H 0.32984 0.41279 0.6561 0.0
C2322 C 0.36577 0.46148 0.67287 0.0
C2323 C 0.34125 0.42765 0.67498 0.0
C2324 C 0.32815 0.41014 0.68332 0.0
C2325 C 0.36416 0.46032 0.65875 0.0
C2326 C 0.35121 0.44248 0.65266 0.0
C2327 C 0.3399 0.42638 0.66083 0.0
C2328 C 0.3487 0.44055 0.63782 0.0
C2329 C 0.37595 0.47836 0.65052 0.0
C2330 C 0.33088 0.4358 0.63204 0.0
C2331 C 0.32892 0.43577 0.618 0.0
C2332 C 0.34478 0.44052 0.60954 0.0
C2333 C 0.36237 0.44439 0.61537 0.0
C2334 C 0.36427 0.4443 0.6294 0.0
H2335 H 0.38147 0.49159 0.65679 0.0
H2336 H 0.38854 0.47804 0.64613 0.0
H2337 H 0.36733 0.4793 0.64207 0.0
H2338 H 0.31866 0.43276 0.6384 0.0
H2339 H 0.31516 0.43265 0.61382 0.0
H2340 H 0.59194 0.96566 0.71827 0.0
H2341 H 0.59953 0.96714 0.69419 0.0
H2342 H 0.64138 0.94978 0.70295 0.0
H2343 H 0.63368 0.94792 0.72701 0.0
H2344 H 0.6343 0.98774 0.6795 0.0
H2345 H 0.60431 0.90847 0.67648 0.0
H2346 H 0.60025 0.91987 0.69084 0.0
H2347 H 0.62297 0.92074 0.68884 0.0
C2348 C 0.60287 0.9623 0.7151 0.0
C2349 C 0.61203 0.95643 0.72453 0.0
C2350 C 0.6072 0.96319 0.70134 0.0
C2351 C 0.62075 0.95824 0.6968 0.0
C2352 C 0.63059 0.95328 0.70624 0.0
H2353 H 0.64471 0.9393 0.61354 0.0
H2354 H 0.64788 0.94496 0.63801 0.0
C2355 C 0.62621 0.95229 0.71999 0.0
C2356 C 0.62388 0.95744 0.68214 0.0
H2357 H 0.61737 0.92623 0.65651 0.0
C2358 C 0.63072 0.97433 0.67446 0.0
C2359 C 0.61922 0.9399 0.67564 0.0
C2360 C 0.61113 0.92116 0.68332 0.0
C2361 C 0.63281 0.97411 0.66039 0.0
C2362 C 0.62766 0.95649 0.65387 0.0
C2363 C 0.62137 0.93972 0.66158 0.0
C2364 C 0.62715 0.95473 0.63897 0.0
C2365 C 0.64041 0.9927 0.65261 0.0
C2366 C 0.61441 0.95829 0.63148 0.0
C2367 C 0.6125 0.955 0.61758 0.0
C2368 C 0.62325 0.94799 0.61089 0.0
C2369 C 0.63626 0.94473 0.61839 0.0
C2370 C 0.6381 0.94797 0.63235 0.0
H2371 H 0.64892 0.00543 0.6592 0.0
H2372 H 0.64959 0.99323 0.64402 0.0
H2373 H 0.62809 0.99376 0.64848 0.0
H2374 H 0.60551 0.96311 0.63646 0.0
H2375 H 0.60233 0.95765 0.61211 0.0
H2376 H 0.11038 0.64698 0.71376 0.0
H2377 H 0.11097 0.65416 0.68969 0.0
H2378 H 0.09608 0.69769 0.69894 0.0
H2379 H 0.09566 0.6908 0.72307 0.0
H2380 H 0.08265 0.65411 0.6723 0.0
H2381 H 0.14733 0.72688 0.67787 0.0
H2382 H 0.1396 0.70877 0.69092 0.0
H2383 H 0.12727 0.72209 0.68856 0.0
C2384 C 0.10707 0.65798 0.71069 0.0
C2385 C 0.10317 0.66846 0.72034 0.0
C2386 C 0.10739 0.66203 0.69693 0.0
C2387 C 0.10387 0.67665 0.6926 0.0
C2388 C 0.09916 0.68658 0.70214 0.0
H2389 H 0.09241 0.69959 0.60746 0.0
H2390 H 0.08649 0.69304 0.63171 0.0
C2391 C 0.09885 0.68256 0.7159 0.0
C2392 C 0.10592 0.68197 0.67814 0.0
H2393 H 0.13363 0.71815 0.6561 0.0
C2394 C 0.0937 0.66813 0.66873 0.0
C2395 C 0.12052 0.70022 0.67357 0.0
C2396 C 0.13456 0.71533 0.68321 0.0
C2397 C 0.09577 0.67204 0.65481 0.0
C2398 C 0.11029 0.69033 0.65026 0.0
C2399 C 0.12241 0.7042 0.65968 0.0
C2400 C 0.11395 0.69497 0.63571 0.0
C2401 C 0.08285 0.65637 0.64506 0.0
C2402 C 0.13155 0.69873 0.63007 0.0
C2403 C 0.13502 0.70257 0.61628 0.0
C2404 C 0.12097 0.70279 0.60789 0.0
C2405 C 0.1035 0.69945 0.61365 0.0
C2406 C 0.10004 0.6956 0.62747 0.0
H2407 H 0.07514 0.64202 0.65001 0.0
H2408 H 0.07192 0.65967 0.64097 0.0
H2409 H 0.0913 0.65562 0.63642 0.0
H2410 H 0.14249 0.69838 0.6363 0.0
H2411 H 0.14864 0.70512 0.61218 0.0
H2412 H 0.83915 0.07069 0.11346 0.0
H2413 H 0.8711 0.09923 0.11584 0.0
H2414 H 0.85333 0.13155 0.09069 0.0
H2415 H 0.82128 0.10329 0.08854 0.0
H2416 H 0.89637 0.11749 0.096 0.0
H2417 H 0.87969 0.16899 0.1212 0.0
H2418 H 0.86254 0.14351 0.12029 0.0
H2419 H 0.86548 0.15904 0.10623 0.0
C2420 C 0.84196 0.08396 0.1086 0.0
C2421 C 0.82769 0.08474 0.1008 0.0
C2422 C 0.86022 0.10024 0.10998 0.0
C2423 C 0.86452 0.1176 0.10361 0.0
C2424 C 0.8502 0.11847 0.09599 0.0
H2425 H 0.97128 0.20687 0.0726 0.0
H2426 H 0.94035 0.17813 0.07721 0.0
C2427 C 0.83191 0.10224 0.09468 0.0
C2428 C 0.88439 0.13429 0.10395 0.0
H2429 H 0.91021 0.18277 0.10959 0.0
C2430 C 0.89944 0.13171 0.09916 0.0
C2431 C 0.88846 0.15278 0.10828 0.0
C2432 C 0.87321 0.15622 0.11443 0.0
C2433 C 0.91828 0.14728 0.09798 0.0
C2434 C 0.92204 0.16599 0.10137 0.0
C2435 C 0.90722 0.16844 0.10679 0.0
C2436 C 0.94101 0.18329 0.09875 0.0
C2437 C 0.93392 0.14353 0.09303 0.0
C2438 C 0.95142 0.19603 0.10927 0.0
C2439 C 0.96907 0.21263 0.10664 0.0
C2440 C 0.97654 0.21679 0.09342 0.0
C2441 C 0.96602 0.20402 0.08291 0.0
C2442 C 0.94838 0.1875 0.08554 0.0
H2443 H 0.93027 0.12845 0.09509 0.0
H2444 H 0.93553 0.14577 0.08193 0.0
H2445 H 0.94798 0.15345 0.09786 0.0
H2446 H 0.9459 0.1931 0.11952 0.0
H2447 H 0.97681 0.22221 0.11495 0.0
H2448 H 0.96674 0.77618 0.10744 0.0
H2449 H 0.93612 0.77604 0.1083 0.0
H2450 H 0.96206 0.83032 0.08713 0.0
H2451 H 0.9927 0.83062 0.08617 0.0
H2452 H 0.92792 0.80539 0.1191 0.0
H2453 H 0.91434 0.79244 0.06391 0.0
H2454 H 0.93145 0.78804 0.07281 0.0
H2455 H 0.9376 0.81221 0.06847 0.0
C2456 C 0.96597 0.78814 0.10301 0.0
C2457 C 0.98212 0.80335 0.09664 0.0
C2458 C 0.94848 0.78803 0.10354 0.0
C2459 C 0.94684 0.80304 0.09762 0.0
C2460 C 0.96303 0.81848 0.09159 0.0
H2461 H 0.85449 0.82643 0.08266 0.0
H2462 H 0.88528 0.82724 0.08456 0.0
C2463 C 0.98053 0.81865 0.09109 0.0
C2464 C 0.92808 0.80238 0.09748 0.0
H2465 H 0.89296 0.79896 0.07625 0.0
C2466 C 0.92019 0.80391 0.10976 0.0
C2467 C 0.91812 0.80042 0.08526 0.0
C2468 C 0.92567 0.79802 0.07185 0.0
C2469 C 0.90272 0.80401 0.11011 0.0
C2470 C 0.8928 0.80216 0.09787 0.0
C2471 C 0.90065 0.80045 0.08561 0.0
C2472 C 0.8743 0.80211 0.09744 0.0
C2473 C 0.8953 0.80661 0.12351 0.0
C2474 C 0.85792 0.78768 0.10405 0.0
C2475 C 0.84029 0.78721 0.10303 0.0
C2476 C 0.83872 0.80106 0.09526 0.0
C2477 C 0.8552 0.81554 0.08872 0.0
C2478 C 0.87281 0.81603 0.08979 0.0
H2479 H 0.90687 0.81279 0.13128 0.0
H2480 H 0.88904 0.81617 0.12247 0.0
H2481 H 0.88382 0.79238 0.12721 0.0
H2482 H 0.85867 0.77656 0.10978 0.0
H2483 H 0.82784 0.77581 0.10814 0.0
H2484 H 0.27116 0.07847 0.10952 0.0
H2485 H 0.27102 0.10884 0.11122 0.0
H2486 H 0.22506 0.08828 0.08193 0.0
H2487 H 0.22488 0.05778 0.0803 0.0
H2488 H 0.27821 0.13446 0.0903 0.0
H2489 H 0.20555 0.10918 0.11189 0.0
H2490 H 0.21699 0.09466 0.1121 0.0
H2491 H 0.20535 0.09626 0.09701 0.0
C2492 C 0.26087 0.08031 0.10355 0.0
C2493 C 0.24802 0.06571 0.09477 0.0
C2494 C 0.26082 0.09767 0.10454 0.0
C2495 C 0.24785 0.10069 0.09684 0.0
C2496 C 0.23489 0.08607 0.08818 0.0
H2497 H 0.23161 0.19609 0.07705 0.0
H2498 H 0.23002 0.16496 0.07944 0.0
C2499 C 0.2349 0.0687 0.0872 0.0
C2500 C 0.24876 0.11958 0.09717 0.0
H2501 H 0.22184 0.14109 0.10287 0.0
C2502 C 0.26596 0.13596 0.09319 0.0
C2503 C 0.23273 0.12145 0.10091 0.0
C2504 C 0.21416 0.10448 0.10585 0.0
C2505 C 0.26741 0.15411 0.09245 0.0
C2506 C 0.25129 0.15592 0.09599 0.0
C2507 C 0.23415 0.1396 0.10015 0.0
C2508 C 0.25179 0.17457 0.09506 0.0
C2509 C 0.28595 0.17108 0.08748 0.0
C2510 C 0.26433 0.19015 0.10323 0.0
C2511 C 0.26531 0.20797 0.10189 0.0
C2512 C 0.2537 0.21047 0.09237 0.0
C2513 C 0.24081 0.19467 0.08443 0.0
C2514 C 0.23984 0.17687 0.0858 0.0
H2515 H 0.29536 0.16648 0.08239 0.0
H2516 H 0.28298 0.17994 0.0803 0.0
H2517 H 0.29399 0.18032 0.09621 0.0
H2518 H 0.27344 0.18854 0.1106 0.0
H2519 H 0.2753 0.21982 0.10821 0.0
H2520 H 0.22443 0.9731 0.885 0.0
H2521 H 0.19348 0.94335 0.88219 0.0
H2522 H 0.16607 0.96637 0.90762 0.0
H2523 H 0.19683 0.99615 0.91042 0.0
H2524 H 0.17102 0.9188 0.90349 0.0
H2525 H 0.13041 0.94611 0.87437 0.0
H2526 H 0.15638 0.95926 0.87571 0.0
H2527 H 0.1418 0.95966 0.88939 0.0
C2528 C 0.21178 0.97191 0.88989 0.0
C2529 C 0.21308 0.98698 0.89794 0.0
C2530 C 0.19413 0.95492 0.88827 0.0
C2531 C 0.17748 0.95281 0.89455 0.0
C2532 C 0.17869 0.96789 0.90247 0.0
H2533 H 0.06059 0.86261 0.90795 0.0
H2534 H 0.09128 0.89284 0.90634 0.0
C2535 C 0.19632 0.98484 0.90413 0.0
C2536 C 0.15907 0.93438 0.89358 0.0
H2537 H 0.11209 0.91466 0.88382 0.0
C2538 C 0.15816 0.91781 0.89906 0.0
C2539 C 0.14237 0.93324 0.88785 0.0
C2540 C 0.14275 0.95047 0.88138 0.0
C2541 C 0.1408 0.90019 0.89936 0.0
C2542 C 0.12402 0.89907 0.89376 0.0
C2543 C 0.12499 0.91559 0.8881 0.0
C2544 C 0.1052 0.88099 0.89406 0.0
C2545 C 0.14042 0.8831 0.90609 0.0
C2546 C 0.10276 0.86445 0.88742 0.0
C2547 C 0.08529 0.84713 0.88837 0.0
C2548 C 0.06989 0.84611 0.89588 0.0
C2549 C 0.07219 0.86289 0.90213 0.0
C2550 C 0.08969 0.88018 0.90121 0.0
H2551 H 0.15317 0.88752 0.91271 0.0
H2552 H 0.12718 0.87492 0.91227 0.0
H2553 H 0.14052 0.87329 0.89822 0.0
H2554 H 0.11443 0.86489 0.88161 0.0
H2555 H 0.08394 0.83451 0.88333 0.0
H2556 H 0.18694 0.22867 0.91347 0.0
H2557 H 0.15639 0.22813 0.91068 0.0
H2558 H 0.18224 0.27289 0.88056 0.0
H2559 H 0.21299 0.2737 0.88338 0.0
H2560 H 0.16277 0.28038 0.90091 0.0
H2561 H 0.11704 0.2071 0.87984 0.0
H2562 H 0.12956 0.2075 0.895 0.0
H2563 H 0.14304 0.21901 0.87996 0.0
C2564 C 0.18611 0.23827 0.90614 0.0
C2565 C 0.20241 0.25125 0.89866 0.0
C2566 C 0.16859 0.23784 0.90449 0.0
C2567 C 0.167 0.25027 0.89527 0.0
C2568 C 0.18316 0.26308 0.88766 0.0
H2569 H 0.07342 0.27531 0.88331 0.0
H2570 H 0.10313 0.27407 0.88053 0.0
C2571 C 0.2007 0.26352 0.88929 0.0
C2572 C 0.14885 0.25083 0.89434 0.0
H2573 H 0.1006 0.22291 0.88835 0.0
C2574 C 0.1492 0.26791 0.89799 0.0
C2575 C 0.13121 0.2345 0.89057 0.0
C2576 C 0.13015 0.21604 0.886 0.0
C2577 C 0.13222 0.26891 0.89847 0.0
C2578 C 0.11451 0.25245 0.89497 0.0
C2579 C 0.11422 0.23548 0.89104 0.0
C2580 C 0.09604 0.25236 0.89593 0.0
C2581 C 0.13328 0.28731 0.90324 0.0
C2582 C 0.08196 0.24009 0.90517 0.0
C2583 C 0.06494 0.24067 0.90674 0.0
C2584 C 0.06168 0.25352 0.89904 0.0
C2585 C 0.07556 0.26537 0.88947 0.0
C2586 C 0.09258 0.26475 0.8879 0.0
H2587 H 0.14717 0.29703 0.90836 0.0
H2588 H 0.13195 0.29509 0.8944 0.0
H2589 H 0.12132 0.28417 0.91033 0.0
H2590 H 0.08435 0.23037 0.91142 0.0
H2591 H 0.0545 0.23129 0.91415 0.0
H2592 H 0.83398 0.85694 0.90823 0.0
H2593 H 0.83409 0.88746 0.90682 0.0
H2594 H 0.78049 0.85938 0.88477 0.0
H2595 H 0.78006 0.82873 0.88631 0.0
H2596 H 0.83329 0.90862 0.88444 0.0
H2597 H 0.76844 0.88398 0.91679 0.0
H2598 H 0.78132 0.87092 0.91555 0.0
H2599 H 0.76494 0.86892 0.90239 0.0
C2600 C 0.82223 0.85725 0.90305 0.0
C2601 C 0.8069 0.84036 0.89751 0.0
C2602 C 0.82234 0.87471 0.90224 0.0
C2603 C 0.80714 0.87558 0.8959 0.0
C2604 C 0.79215 0.85891 0.88996 0.0
H2605 H 0.77898 0.96644 0.88722 0.0
H2606 H 0.78068 0.93698 0.88476 0.0
C2607 C 0.79198 0.84143 0.8908 0.0
C2608 C 0.80681 0.89387 0.89573 0.0
H2609 H 0.78099 0.91463 0.90662 0.0
C2610 C 0.82188 0.90997 0.88929 0.0
C2611 C 0.79191 0.89556 0.9021 0.0
C2612 C 0.77581 0.87899 0.90971 0.0
C2613 C 0.82233 0.9277 0.88891 0.0
C2614 C 0.80744 0.92936 0.8953 0.0
C2615 C 0.79233 0.91324 0.90167 0.0
C2616 C 0.80741 0.94779 0.89583 0.0
C2617 C 0.83856 0.94443 0.88155 0.0
C2618 C 0.82192 0.96362 0.90284 0.0
C2619 C 0.82099 0.98048 0.90429 0.0
C2620 C 0.80546 0.98174 0.89882 0.0
C2621 C 0.79114 0.96595 0.89157 0.0
C2622 C 0.79208 0.9491 0.89014 0.0
H2623 H 0.84595 0.93958 0.87438 0.0
H2624 H 0.83319 0.95277 0.87588 0.0
H2625 H 0.84936 0.95423 0.88902 0.0
H2626 H 0.83369 0.96276 0.90752 0.0
H2627 H 0.83223 0.99236 0.90996 0.0
H2628 H 0.49575 0.41171 0.43772 0.0
H2629 H 0.52787 0.44042 0.43813 0.0
H2630 H 0.54573 0.41727 0.40544 0.0
H2631 H 0.51367 0.38865 0.40483 0.0
H2632 H 0.56433 0.44311 0.44199 0.0
H2633 H 0.55871 0.47096 0.39176 0.0
H2634 H 0.53798 0.45261 0.40069 0.0
H2635 H 0.55367 0.44646 0.39172 0.0
C2636 C 0.5065 0.41274 0.4306 0.0
C2637 C 0.50212 0.39797 0.42117 0.0
C2638 C 0.52483 0.42912 0.43088 0.0
C2639 C 0.53903 0.43105 0.42169 0.0
C2640 C 0.53483 0.41619 0.41244 0.0
H2641 H 0.65652 0.52109 0.40535 0.0
H2642 H 0.62562 0.49093 0.40598 0.0
C2643 C 0.51653 0.39981 0.41216 0.0
C2644 C 0.55828 0.4486 0.42178 0.0
H2645 H 0.58919 0.4871 0.40251 0.0
C2646 C 0.56978 0.45278 0.43339 0.0
C2647 C 0.5653 0.46112 0.41052 0.0
C2648 C 0.55324 0.45771 0.398 0.0
C2649 C 0.58828 0.46907 0.43396 0.0
C2650 C 0.59528 0.4816 0.4227 0.0
C2651 C 0.58379 0.47739 0.41109 0.0
C2652 C 0.61431 0.49944 0.42283 0.0
C2653 C 0.60032 0.47253 0.4465 0.0
C2654 C 0.61811 0.5142 0.43207 0.0
C2655 C 0.63572 0.53143 0.43174 0.0
C2656 C 0.64981 0.53424 0.4221 0.0
C2657 C 0.646 0.51937 0.41291 0.0
C2658 C 0.62836 0.50214 0.41325 0.0
H2659 H 0.59511 0.45918 0.45258 0.0
H2660 H 0.61568 0.47811 0.44386 0.0
H2661 H 0.59944 0.48343 0.45291 0.0
H2662 H 0.6073 0.51256 0.43936 0.0
H2663 H 0.63817 0.54262 0.43894 0.0
H2664 H 0.63994 0.11113 0.44486 0.0
H2665 H 0.60863 0.10964 0.44565 0.0
H2666 H 0.62039 0.13845 0.40709 0.0
H2667 H 0.65164 0.14005 0.40618 0.0
H2668 H 0.60077 0.14235 0.44295 0.0
H2669 H 0.56758 0.08643 0.40292 0.0
H2670 H 0.58868 0.09057 0.41229 0.0
H2671 H 0.59081 0.10668 0.39892 0.0
C2672 C 0.63588 0.1172 0.43656 0.0
C2673 C 0.64822 0.12561 0.42541 0.0
C2674 C 0.61803 0.11635 0.43705 0.0
C2675 C 0.6122 0.12374 0.42635 0.0
C2676 C 0.6246 0.13247 0.41536 0.0
H2677 H 0.51346 0.13081 0.4019 0.0
H2678 H 0.54415 0.1316 0.40433 0.0
C2679 C 0.64247 0.13342 0.41489 0.0
C2680 C 0.59305 0.1222 0.42653 0.0
H2681 H 0.55001 0.10147 0.40991 0.0
C2682 C 0.58956 0.13331 0.43583 0.0
C2683 C 0.57857 0.11036 0.41721 0.0
C2684 C 0.58145 0.09768 0.40732 0.0
C2685 C 0.5721 0.13346 0.4357 0.0
C2686 C 0.5577 0.12185 0.42621 0.0
C2687 C 0.5611 0.1104 0.41714 0.0
C2688 C 0.53927 0.12185 0.42511 0.0
C2689 C 0.56952 0.14656 0.44537 0.0
C2690 C 0.5263 0.11602 0.43599 0.0
C2691 C 0.50874 0.11566 0.43467 0.0
C2692 C 0.50379 0.12091 0.42237 0.0
C2693 C 0.5168 0.12665 0.4115 0.0
C2694 C 0.53436 0.12712 0.41286 0.0
H2695 H 0.5835 0.15786 0.44959 0.0
H2696 H 0.56236 0.15368 0.44031 0.0
H2697 H 0.56029 0.13791 0.45393 0.0
H2698 H 0.52963 0.1115 0.44544 0.0
H2699 H 0.49897 0.11105 0.4432 0.0
H2700 H 0.94768 0.40848 0.44463 0.0
H2701 H 0.94774 0.43901 0.44643 0.0
H2702 H 0.90613 0.42121 0.41413 0.0
H2703 H 0.90577 0.39067 0.41237 0.0
H2704 H 0.9574 0.46687 0.42639 0.0
H2705 H 0.88209 0.43843 0.44348 0.0
H2706 H 0.89397 0.42434 0.44411 0.0
H2707 H 0.8839 0.4268 0.42849 0.0
C2708 C 0.93844 0.41102 0.43798 0.0
C2709 C 0.92666 0.39712 0.42839 0.0
C2710 C 0.9385 0.42845 0.43902 0.0
C2711 C 0.9267 0.43221 0.43057 0.0
C2712 C 0.91501 0.41841 0.42096 0.0
H2713 H 0.90851 0.52488 0.40856 0.0
H2714 H 0.90879 0.49478 0.41157 0.0
C2715 C 0.91493 0.401 0.41991 0.0
C2716 C 0.92719 0.45089 0.4313 0.0
H2717 H 0.89846 0.47078 0.43511 0.0
C2718 C 0.9446 0.4678 0.42848 0.0
C2719 C 0.91045 0.452 0.43405 0.0
C2720 C 0.89159 0.43445 0.43784 0.0
C2721 C 0.94552 0.48573 0.42774 0.0
C2722 C 0.92863 0.48673 0.43007 0.0
C2723 C 0.91135 0.46991 0.43327 0.0
C2724 C 0.92836 0.50496 0.42859 0.0
C2725 C 0.96434 0.50333 0.42394 0.0
C2726 C 0.9391 0.52055 0.43729 0.0
C2727 C 0.93898 0.53782 0.43561 0.0
C2728 C 0.92807 0.53972 0.4252 0.0
C2729 C 0.91712 0.52393 0.41664 0.0
C2730 C 0.91723 0.5067 0.41835 0.0
H2731 H 0.97494 0.4995 0.41992 0.0
H2732 H 0.96198 0.51202 0.41624 0.0
H2733 H 0.97069 0.51248 0.43303 0.0
H2734 H 0.94755 0.51936 0.44539 0.0
H2735 H 0.9475 0.54968 0.44241 0.0
H2736 H 0.72487 0.1916 0.24571 0.0
H2737 H 0.75535 0.22167 0.24281 0.0
H2738 H 0.77648 0.1925 0.21742 0.0
H2739 H 0.74606 0.16225 0.22033 0.0
H2740 H 0.80152 0.21421 0.2386 0.0
H2741 H 0.77693 0.25726 0.20967 0.0
H2742 H 0.76318 0.24631 0.2247 0.0
H2743 H 0.76277 0.23134 0.21102 0.0
C2744 C 0.73591 0.19159 0.2394 0.0
C2745 C 0.73305 0.17452 0.23327 0.0
C2746 C 0.75327 0.20882 0.23768 0.0
C2747 C 0.76804 0.20933 0.22975 0.0
C2748 C 0.76518 0.19239 0.2235 0.0
H2749 H 0.88813 0.30014 0.21942 0.0
H2750 H 0.85724 0.27022 0.21727 0.0
C2751 C 0.7478 0.17514 0.22518 0.0
C2752 C 0.78692 0.22727 0.22879 0.0
H2753 H 0.80842 0.27447 0.21928 0.0
C2754 C 0.80312 0.22735 0.23424 0.0
C2755 C 0.78886 0.24435 0.22313 0.0
C2756 C 0.77205 0.24485 0.21668 0.0
C2757 C 0.82114 0.24427 0.23462 0.0
C2758 C 0.82304 0.26144 0.22915 0.0
C2759 C 0.8069 0.26127 0.22347 0.0
C2760 C 0.8415 0.27989 0.22971 0.0
C2761 C 0.8378 0.24377 0.24134 0.0
C2762 C 0.84271 0.29546 0.23702 0.0
C2763 C 0.86028 0.31262 0.23818 0.0
C2764 C 0.87697 0.31452 0.23203 0.0
C2765 C 0.87559 0.29907 0.22438 0.0
C2766 C 0.85797 0.28194 0.22319 0.0
H2767 H 0.83288 0.23079 0.24779 0.0
H2768 H 0.84751 0.24348 0.23346 0.0
H2769 H 0.84628 0.25679 0.24768 0.0
H2770 H 0.83012 0.29418 0.24207 0.0
H2771 H 0.86083 0.32425 0.2441 0.0
H2772 H 0.88989 0.60521 0.21862 0.0
H2773 H 0.8591 0.60474 0.2181 0.0
H2774 H 0.83391 0.55478 0.24402 0.0
H2775 H 0.86461 0.55523 0.24474 0.0
H2776 H 0.82163 0.57524 0.21009 0.0
H2777 H 0.82469 0.59425 0.26442 0.0
H2778 H 0.84541 0.59693 0.25531 0.0
H2779 H 0.82724 0.57359 0.26116 0.0
C2780 C 0.87778 0.59407 0.22417 0.0
C2781 C 0.87974 0.58037 0.23183 0.0
C2782 C 0.86021 0.59382 0.22384 0.0
C2783 C 0.84437 0.57992 0.2312 0.0
C2784 C 0.84609 0.56584 0.23848 0.0
H2785 H 0.72965 0.5598 0.24775 0.0
H2786 H 0.75871 0.5573 0.24549 0.0
C2787 C 0.86364 0.56609 0.23883 0.0
C2788 C 0.82615 0.58037 0.23151 0.0
H2789 H 0.7958 0.58603 0.25276 0.0
C2790 C 0.81597 0.57765 0.2194 0.0
C2791 C 0.81889 0.58356 0.24367 0.0
C2792 C 0.82968 0.58743 0.25687 0.0
C2793 C 0.79845 0.57766 0.21918 0.0
C2794 C 0.79117 0.58078 0.23137 0.0
C2795 C 0.80139 0.58354 0.24346 0.0
C2796 C 0.7731 0.58153 0.23185 0.0
C2797 C 0.78771 0.57399 0.20599 0.0
C2798 C 0.7716 0.59599 0.22492 0.0
C2799 C 0.75502 0.59747 0.22618 0.0
C2800 C 0.73971 0.58458 0.23449 0.0
C2801 C 0.74118 0.56996 0.24127 0.0
C2802 C 0.75776 0.56849 0.24 0.0
H2803 H 0.79255 0.56704 0.19844 0.0
H2804 H 0.77194 0.5647 0.20755 0.0
H2805 H 0.79039 0.58792 0.20172 0.0
H2806 H 0.78345 0.60643 0.2188 0.0
H2807 H 0.75437 0.60894 0.22086 0.0
H2808 H 0.49648 0.33155 0.24283 0.0
H2809 H 0.49605 0.3009 0.24151 0.0
H2810 H 0.44527 0.27753 0.21644 0.0
H2811 H 0.44566 0.30822 0.21756 0.0
H2812 H 0.46571 0.26548 0.25046 0.0
H2813 H 0.4807 0.26284 0.19588 0.0
H2814 H 0.48543 0.28481 0.20425 0.0
H2815 H 0.46126 0.26727 0.19945 0.0
C2816 C 0.48532 0.31998 0.23691 0.0
C2817 C 0.47109 0.32232 0.23031 0.0
C2818 C 0.48512 0.30248 0.23617 0.0
C2819 C 0.47076 0.28704 0.22876 0.0
C2820 C 0.45668 0.28939 0.222 0.0
H2821 H 0.44023 0.16712 0.21997 0.0
H2822 H 0.44197 0.19844 0.21831 0.0
C2823 C 0.45687 0.30691 0.22272 0.0
C2824 C 0.46985 0.26814 0.22889 0.0
H2825 H 0.47191 0.23462 0.20873 0.0
C2826 C 0.46715 0.25876 0.24135 0.0
C2827 C 0.47159 0.25939 0.21696 0.0
C2828 C 0.47507 0.26912 0.20337 0.0
C2829 C 0.46599 0.24075 0.24221 0.0
C2830 C 0.46794 0.23208 0.23032 0.0
C2831 C 0.47047 0.24136 0.21782 0.0
C2832 C 0.46751 0.21342 0.23072 0.0
C2833 C 0.46233 0.23101 0.25582 0.0
C2834 C 0.48156 0.21162 0.23799 0.0
C2835 C 0.48059 0.19379 0.239 0.0
C2836 C 0.46561 0.17743 0.23267 0.0
C2837 C 0.4519 0.17942 0.22502 0.0
C2838 C 0.45288 0.19729 0.22403 0.0
H2839 H 0.45627 0.23706 0.26317 0.0
H2840 H 0.45224 0.21526 0.25491 0.0
H2841 H 0.47614 0.23319 0.25999 0.0
H2842 H 0.49319 0.22401 0.243 0.0
H2843 H 0.49147 0.1928 0.24487 0.0
H2844 H 0.31819 0.84774 0.74712 0.0
H2845 H 0.28819 0.81676 0.74851 0.0
H2846 H 0.26778 0.83919 0.78008 0.0
H2847 H 0.2976 0.87024 0.77871 0.0
H2848 H 0.27053 0.79139 0.77119 0.0
H2849 H 0.22549 0.82034 0.75063 0.0
H2850 H 0.25144 0.83314 0.74922 0.0
H2851 H 0.24017 0.83312 0.76494 0.0
C2852 C 0.30736 0.84607 0.7544 0.0
C2853 C 0.3102 0.86151 0.76272 0.0
C2854 C 0.29026 0.82836 0.75519 0.0
C2855 C 0.27571 0.82584 0.76424 0.0
C2856 C 0.27873 0.841 0.77286 0.0
H2857 H 0.15842 0.73247 0.77685 0.0
H2858 H 0.18962 0.76209 0.77884 0.0
C2859 C 0.29581 0.85869 0.77209 0.0
C2860 C 0.25717 0.80749 0.76447 0.0
H2861 H 0.20914 0.78802 0.75809 0.0
C2862 C 0.25709 0.7906 0.76833 0.0
C2863 C 0.23971 0.8066 0.76074 0.0
C2864 C 0.23912 0.82421 0.75603 0.0
C2865 C 0.23989 0.77279 0.76867 0.0
C2866 C 0.22245 0.77188 0.76483 0.0
C2867 C 0.22254 0.78881 0.76107 0.0
C2868 C 0.20397 0.75346 0.76423 0.0
C2869 C 0.24048 0.75517 0.77333 0.0
C2870 C 0.20173 0.73886 0.75533 0.0
C2871 C 0.18395 0.72194 0.75417 0.0
C2872 C 0.16804 0.71938 0.76182 0.0
C2873 C 0.17038 0.73399 0.77082 0.0
C2874 C 0.18818 0.75091 0.77197 0.0
H2875 H 0.25361 0.75909 0.7794 0.0
H2876 H 0.22759 0.74561 0.77949 0.0
H2877 H 0.24066 0.74694 0.76437 0.0
H2878 H 0.21362 0.74073 0.74905 0.0
H2879 H 0.18261 0.711 0.74711 0.0
H2880 H 0.32085 0.46153 0.78291 0.0
H2881 H 0.29134 0.46334 0.78475 0.0
H2882 H 0.2633 0.41678 0.7561 0.0
H2883 H 0.29246 0.4145 0.7545 0.0
H2884 H 0.27429 0.47223 0.7653 0.0
H2885 H 0.22246 0.39978 0.78469 0.0
H2886 H 0.24815 0.40909 0.7848 0.0
H2887 H 0.23427 0.39831 0.76972 0.0
C2888 C 0.30829 0.45148 0.77716 0.0
C2889 C 0.30897 0.43784 0.76858 0.0
C2890 C 0.29145 0.45254 0.77822 0.0
C2891 C 0.27501 0.44 0.77073 0.0
C2892 C 0.27561 0.42625 0.76227 0.0
H2893 H 0.18622 0.45832 0.73928 0.0
H2894 H 0.21539 0.45704 0.74425 0.0
C2895 C 0.29237 0.42506 0.76129 0.0
C2896 C 0.25774 0.44225 0.77087 0.0
H2897 H 0.20874 0.41705 0.77373 0.0
C2898 C 0.25998 0.46023 0.76735 0.0
C2899 C 0.23911 0.42671 0.77376 0.0
C2900 C 0.23587 0.40746 0.7786 0.0
C2901 C 0.24401 0.46284 0.76602 0.0
C2902 C 0.22528 0.44691 0.76791 0.0
C2903 C 0.22309 0.42918 0.77207 0.0
C2904 C 0.20775 0.4481 0.76507 0.0
C2905 C 0.2474 0.48265 0.76258 0.0
C2906 C 0.19348 0.44296 0.77501 0.0
C2907 C 0.17663 0.4434 0.77213 0.0
C2908 C 0.17376 0.44899 0.75925 0.0
C2909 C 0.18807 0.45412 0.74933 0.0
C2910 C 0.20482 0.45353 0.75219 0.0
H2911 H 0.26192 0.49407 0.76591 0.0
H2912 H 0.24662 0.48388 0.75145 0.0
H2913 H 0.2364 0.48533 0.76733 0.0
H2914 H 0.1954 0.4386 0.78499 0.0
H2915 H 0.16586 0.43936 0.77999 0.0
H2916 H 0.61242 0.74939 0.77883 0.0
H2917 H 0.61239 0.77973 0.78177 0.0
H2918 H 0.56748 0.76172 0.75184 0.0
H2919 H 0.5672 0.73135 0.74896 0.0
H2920 H 0.62003 0.80743 0.76226 0.0
H2921 H 0.54649 0.77917 0.78294 0.0
H2922 H 0.55825 0.76496 0.78234 0.0
H2923 H 0.54677 0.76756 0.76749 0.0
C2924 C 0.60242 0.75183 0.77296 0.0
C2925 C 0.58977 0.73794 0.76368 0.0
C2926 C 0.60243 0.76915 0.77466 0.0
C2927 C 0.58971 0.77281 0.76719 0.0
C2928 C 0.57709 0.75898 0.75794 0.0
H2929 H 0.57066 0.86577 0.74822 0.0
H2930 H 0.5707 0.83547 0.75073 0.0
C2931 C 0.57705 0.74168 0.75624 0.0
C2932 C 0.5903 0.7915 0.76845 0.0
H2933 H 0.56206 0.81148 0.7744 0.0
C2934 C 0.60746 0.80839 0.76511 0.0
C2935 C 0.57387 0.79265 0.77219 0.0
C2936 C 0.55536 0.77514 0.77658 0.0
C2937 C 0.60837 0.82633 0.76481 0.0
C2938 C 0.59174 0.82737 0.76811 0.0
C2939 C 0.57475 0.81057 0.77183 0.0
C2940 C 0.59141 0.8456 0.76707 0.0
C2941 C 0.62685 0.8439 0.76043 0.0
C2942 C 0.60284 0.8612 0.77559 0.0
C2943 C 0.60286 0.87857 0.77419 0.0
C2944 C 0.59142 0.88057 0.76425 0.0
C2945 C 0.5797 0.86475 0.75593 0.0
C2946 C 0.57967 0.8474 0.75736 0.0
H2947 H 0.63712 0.84006 0.75581 0.0
H2948 H 0.62385 0.85249 0.75303 0.0
H2949 H 0.63391 0.85315 0.76937 0.0
H2950 H 0.61179 0.85996 0.78328 0.0
H2951 H 0.61198 0.89047 0.7808 0.0
H2952 H 0.55211 0.64479 0.5547 0.0
H2953 H 0.52114 0.61485 0.55382 0.0
H2954 H 0.49562 0.64049 0.57859 0.0
H2955 H 0.5265 0.67063 0.57938 0.0
H2956 H 0.50102 0.59249 0.57587 0.0
H2957 H 0.45687 0.61651 0.54764 0.0
H2958 H 0.48288 0.63033 0.54806 0.0
H2959 H 0.46905 0.63099 0.56215 0.0
C2960 C 0.53988 0.64415 0.55986 0.0
C2961 C 0.54177 0.6601 0.56712 0.0
C2962 C 0.5222 0.62703 0.55934 0.0
C2963 C 0.50605 0.62554 0.566 0.0
C2964 C 0.50781 0.64148 0.57314 0.0
H2965 H 0.39098 0.53143 0.58241 0.0
H2966 H 0.42075 0.56257 0.58088 0.0
C2967 C 0.5255 0.65865 0.57365 0.0
C2968 C 0.48772 0.60694 0.56614 0.0
H2969 H 0.4401 0.58536 0.55763 0.0
C2970 C 0.48772 0.59088 0.57181 0.0
C2971 C 0.47041 0.60496 0.56088 0.0
C2972 C 0.46975 0.62156 0.55423 0.0
C2973 C 0.47078 0.57293 0.57255 0.0
C2974 C 0.45347 0.57094 0.56729 0.0
C2975 C 0.45343 0.58698 0.56163 0.0
C2976 C 0.43522 0.5523 0.56768 0.0
C2977 C 0.47145 0.55634 0.57923 0.0
C2978 C 0.43342 0.53636 0.56055 0.0
C2979 C 0.41646 0.51855 0.56141 0.0
C2980 C 0.40098 0.51642 0.56938 0.0
C2981 C 0.40266 0.53257 0.57623 0.0
C2982 C 0.41963 0.55038 0.57535 0.0
H2983 H 0.48458 0.56134 0.58553 0.0
H2984 H 0.45857 0.5479 0.58569 0.0
H2985 H 0.47158 0.54659 0.57132 0.0
H2986 H 0.44519 0.53767 0.55438 0.0
H2987 H 0.41559 0.50643 0.55593 0.0
H2988 H 0.38754 0.89258 0.58031 0.0
H2989 H 0.41665 0.89005 0.57874 0.0
H2990 H 0.44572 0.94437 0.55764 0.0
H2991 H 0.4166 0.94695 0.559 0.0
H2992 H 0.45195 0.91511 0.54648 0.0
H2993 H 0.4648 0.92344 0.60195 0.0
H2994 H 0.44135 0.90443 0.597 0.0
H2995 H 0.44819 0.92905 0.59359 0.0
C2996 C 0.40008 0.90395 0.57528 0.0
C2997 C 0.39982 0.92006 0.5699 0.0
C2998 C 0.41671 0.90251 0.57444 0.0
C2999 C 0.43338 0.91718 0.56828 0.0
C3000 C 0.43299 0.93295 0.56249 0.0
H3001 H 0.55165 0.9452 0.55803 0.0
H3002 H 0.52019 0.94305 0.55638 0.0
C3003 C 0.41636 0.93441 0.56331 0.0
C3004 C 0.45143 0.91639 0.56821 0.0
H3005 H 0.48569 0.91699 0.58902 0.0
C3006 C 0.45936 0.91551 0.55576 0.0
C3007 C 0.46101 0.91694 0.58036 0.0
C3008 C 0.45354 0.91868 0.59399 0.0
C3009 C 0.47659 0.91497 0.55514 0.0
C3010 C 0.48622 0.91565 0.56729 0.0
C3011 C 0.4782 0.91639 0.57973 0.0
C3012 C 0.50495 0.91619 0.56739 0.0
C3013 C 0.4842 0.91343 0.54152 0.0
C3014 C 0.50684 0.90191 0.57427 0.0
C3015 C 0.52481 0.90317 0.57533 0.0
C3016 C 0.54125 0.91881 0.56959 0.0
C3017 C 0.53926 0.93294 0.56252 0.0
C3018 C 0.52127 0.93167 0.56148 0.0
H3019 H 0.47271 0.90776 0.5337 0.0
H3020 H 0.49563 0.92796 0.53827 0.0
H3021 H 0.49057 0.90392 0.54202 0.0
H3022 H 0.49441 0.88991 0.57897 0.0
H3023 H 0.52585 0.89204 0.58084 0.0
H3024 H 0.0884 0.63329 0.57955 0.0
H3025 H 0.09356 0.60584 0.57772 0.0
H3026 H 0.13678 0.63567 0.54707 0.0
H3027 H 0.13209 0.6635 0.54911 0.0
H3028 H 0.08965 0.58247 0.55674 0.0
H3029 H 0.16575 0.6218 0.57416 0.0
H3030 H 0.15005 0.63181 0.57549 0.0
H3031 H 0.16104 0.63212 0.55957 0.0
C3032 C 0.09898 0.63402 0.57239 0.0
C3033 C 0.10995 0.65063 0.56455 0.0
C3034 C 0.1019 0.61831 0.57135 0.0
C3035 C 0.11579 0.61885 0.56244 0.0
C3036 C 0.12632 0.63514 0.55426 0.0
H3037 H 0.12089 0.51396 0.54564 0.0
H3038 H 0.11812 0.54283 0.54294 0.0
C3039 C 0.12354 0.65098 0.55538 0.0
C3040 C 0.11922 0.60233 0.56188 0.0
H3041 H 0.15336 0.58947 0.56736 0.0
C3042 C 0.10359 0.58398 0.559 0.0
C3043 C 0.13739 0.60436 0.56499 0.0
C3044 C 0.15449 0.62354 0.56885 0.0
C3045 C 0.10554 0.56754 0.55934 0.0
C3046 C 0.12376 0.5696 0.56229 0.0
C3047 C 0.13945 0.58798 0.56498 0.0
C3048 C 0.12655 0.55273 0.56351 0.0
C3049 C 0.08789 0.54806 0.55706 0.0
C3050 C 0.13297 0.54915 0.57578 0.0
C3051 C 0.13482 0.53284 0.5773 0.0
C3052 C 0.13024 0.51976 0.56656 0.0
C3053 C 0.12434 0.52366 0.55414 0.0
C3054 C 0.12264 0.54009 0.5526 0.0
H3055 H 0.07436 0.54857 0.55828 0.0
H3056 H 0.08818 0.54319 0.5466 0.0
H3057 H 0.08755 0.5372 0.56419 0.0
H3058 H 0.13614 0.55877 0.58431 0.0
H3059 H 0.13945 0.53028 0.58699 0.0
loop_
_geom_bond_atom_site_label_1
_geom_bond_atom_site_label_2
_geom_bond_distance
_geom_bond_site_symmetry_2
_ccdc_geom_bond_type
C0 O1 1.160 . S
C0 O7 1.185 . S
O1 C0 1.160 . S
O2 Zn3 1.899 . S
O2 C10 1.284 . S
Zn3 O2 1.899 . S
Zn3 O4 2.032 . S
Zn3 O7 2.086 . S
Zn3 O12 1.977 . S
O4 Zn3 2.032 . S
O4 C8 1.277 1_455 S
C5 O6 1.203 . S
C5 O12 1.267 . S
O6 C5 1.203 . S
O7 C0 1.185 . S
O7 Zn3 2.086 . S
C8 O4 1.277 1_655 S
C8 O9 1.208 1_655 S
O9 C8 1.208 1_455 S
C10 O2 1.284 . S
C10 O11 1.273 . S
O11 C10 1.273 . S
O12 Zn3 1.977 . S
O12 C5 1.267 . S
C13 O14 1.160 . S
C13 O20 1.185 . S
O14 C13 1.160 . S
O15 Zn16 1.899 . S
O15 C23 1.284 . S
Zn16 O15 1.899 . S
Zn16 O17 2.032 . S
Zn16 O20 2.086 . S
Zn16 O25 1.977 . S
O17 Zn16 2.032 . S
O17 C21 1.278 . S
C18 O19 1.203 . S
C18 O25 1.267 . S
O19 C18 1.203 . S
O20 C13 1.185 . S
O20 Zn16 2.086 . S
C21 O17 1.278 . S
C21 O22 1.211 . S
O22 C21 1.211 . S
C23 O15 1.284 . S
C23 O24 1.273 . S
O24 C23 1.273 . S
O25 Zn16 1.977 . S
O25 C18 1.267 . S
C26 O27 1.160 . S
C26 O33 1.185 . S
O27 C26 1.160 . S
O28 Zn29 1.899 1_565 S
O28 C36 1.284 . S
Zn29 O28 1.899 1_545 S
Zn29 O30 2.032 . S
Zn29 O33 2.086 . S
Zn29 O38 1.977 . S
O30 Zn29 2.032 . S
O30 C34 1.278 . S
C31 O32 1.203 . S
C31 O38 1.267 . S
O32 C31 1.203 . S
O33 C26 1.185 . S
O33 Zn29 2.086 . S
C34 O30 1.278 . S
C34 O35 1.211 . S
O35 C34 1.211 . S
C36 O28 1.284 . S
C36 O37 1.273 1_565 S
O37 C36 1.273 1_545 S
O38 Zn29 1.977 . S
O38 C31 1.267 . S
C39 O40 1.160 . S
C39 O46 1.185 . S
O40 C39 1.160 . S
O41 Zn42 1.899 . S
O41 C49 1.284 . S
Zn42 O41 1.899 . S
Zn42 O43 2.032 . S
Zn42 O46 2.086 . S
Zn42 O51 1.977 . S
O43 Zn42 2.032 . S
O43 C47 1.277 1_545 S
C44 O45 1.203 . S
C44 O51 1.267 . S
O45 C44 1.203 . S
O46 C39 1.185 . S
O46 Zn42 2.086 . S
C47 O43 1.277 1_565 S
C47 O48 1.208 1_565 S
O48 C47 1.208 1_545 S
C49 O41 1.284 . S
C49 O50 1.273 . S
O50 C49 1.273 . S
O51 Zn42 1.977 . S
O51 C44 1.267 . S
C52 O53 1.160 . S
C52 O59 1.185 . S
O53 C52 1.160 . S
O54 Zn55 1.899 1_655 S
O54 C62 1.284 . S
Zn55 O54 1.899 1_455 S
Zn55 O56 2.032 . S
Zn55 O59 2.086 . S
Zn55 O64 1.977 . S
O56 Zn55 2.032 . S
O56 C60 1.278 . S
C57 O58 1.203 . S
C57 O64 1.267 . S
O58 C57 1.203 . S
O59 C52 1.185 . S
O59 Zn55 2.086 . S
C60 O56 1.278 . S
C60 O61 1.211 . S
O61 C60 1.211 . S
C62 O54 1.284 . S
C62 O63 1.273 1_655 S
O63 C62 1.273 1_455 S
O64 Zn55 1.977 . S
O64 C57 1.267 . S
C65 O66 1.160 . S
C65 O72 1.185 . S
O66 C65 1.160 . S
O67 Zn68 1.899 . S
O67 C75 1.284 . S
Zn68 O67 1.899 . S
Zn68 O69 2.032 . S
Zn68 O72 2.086 . S
Zn68 O77 1.977 . S
O69 Zn68 2.032 . S
O69 C73 1.278 . S
C70 O71 1.203 . S
C70 O77 1.267 . S
O71 C70 1.203 . S
O72 C65 1.185 . S
O72 Zn68 2.086 . S
C73 O69 1.278 . S
C73 O74 1.211 . S
O74 C73 1.211 . S
C75 O67 1.284 . S
C75 O76 1.273 . S
O76 C75 1.273 . S
O77 Zn68 1.977 . S
O77 C70 1.267 . S
C78 O79 1.160 . S
C78 O85 1.185 . S
O79 C78 1.160 . S
O80 Zn81 1.899 1_655 S
O80 C88 1.284 . S
Zn81 O80 1.899 1_455 S
Zn81 O82 2.032 . S
Zn81 O85 2.086 . S
Zn81 O90 1.977 . S
O82 Zn81 2.032 . S
O82 C86 1.278 . S
C83 O84 1.203 . S
C83 O90 1.267 . S
O84 C83 1.203 . S
O85 C78 1.185 . S
O85 Zn81 2.086 . S
C86 O82 1.278 . S
C86 O87 1.211 . S
O87 C86 1.211 . S
C88 O80 1.284 . S
C88 O89 1.273 1_655 S
O89 C88 1.273 1_455 S
O90 Zn81 1.977 . S
O90 C83 1.267 . S
C91 O92 1.160 . S
C91 O98 1.185 . S
O92 C91 1.160 . S
O93 Zn94 1.899 . S
O93 C101 1.284 . S
Zn94 O93 1.899 . S
Zn94 O95 2.032 . S
Zn94 O98 2.086 . S
Zn94 O103 1.977 . S
O95 Zn94 2.032 . S
O95 C99 1.278 . S
C96 O97 1.203 . S
C96 O103 1.267 . S
O97 C96 1.203 . S
O98 C91 1.185 . S
O98 Zn94 2.086 . S
C99 O95 1.278 . S
C99 O100 1.211 . S
O100 C99 1.211 . S
C101 O93 1.284 . S
C101 O102 1.273 . S
O102 C101 1.273 . S
O103 Zn94 1.977 . S
O103 C96 1.267 . S
C104 O105 1.160 . S
C104 O111 1.185 . S
O105 C104 1.160 . S
O106 Zn107 1.899 . S
O106 C114 1.284 . S
Zn107 O106 1.899 . S
Zn107 O108 2.032 . S
Zn107 O111 2.086 . S
Zn107 O116 1.977 . S
O108 Zn107 2.032 . S
O108 C112 1.270 1_545 S
C109 O110 1.203 . S
C109 O116 1.267 . S
O110 C109 1.203 . S
O111 C104 1.185 . S
O111 Zn107 2.086 . S
C112 O108 1.270 1_565 S
C112 O113 1.211 1_565 S
O113 C112 1.211 1_545 S
C114 O106 1.284 . S
C114 O115 1.273 . S
O115 C114 1.273 . S
O116 Zn107 1.977 . S
O116 C109 1.267 . S
C117 O118 1.160 . S
C117 O124 1.185 . S
O118 C117 1.160 . S
O119 Zn120 1.899 1_565 S
O119 C127 1.284 . S
Zn120 O119 1.899 1_545 S
Zn120 O121 2.032 . S
Zn120 O124 2.086 . S
Zn120 O129 1.977 . S
O121 Zn120 2.032 . S
O121 C125 1.278 . S
C122 O123 1.203 . S
C122 O129 1.267 . S
O123 C122 1.203 . S
O124 C117 1.185 . S
O124 Zn120 2.086 . S
C125 O121 1.278 . S
C125 O126 1.211 . S
O126 C125 1.211 . S
C127 O119 1.284 . S
C127 O128 1.273 1_565 S
O128 C127 1.273 1_545 S
O129 Zn120 1.977 . S
O129 C122 1.267 . S
C130 O131 1.160 . S
C130 O137 1.185 . S
O131 C130 1.160 . S
O132 Zn133 1.899 . S
O132 C140 1.284 . S
Zn133 O132 1.899 . S
Zn133 O134 2.032 . S
Zn133 O137 2.086 . S
Zn133 O142 1.977 . S
O134 Zn133 2.032 . S
O134 C138 1.270 1_455 S
C135 O136 1.203 . S
C135 O142 1.267 . S
O136 C135 1.203 . S
O137 C130 1.185 . S
O137 Zn133 2.086 . S
C138 O134 1.270 1_655 S
C138 O139 1.211 1_655 S
O139 C138 1.211 1_455 S
C140 O132 1.284 . S
C140 O141 1.273 . S
O141 C140 1.273 . S
O142 Zn133 1.977 . S
O142 C135 1.267 . S
C143 O144 1.160 . S
C143 O150 1.185 . S
O144 C143 1.160 . S
O145 Zn146 1.899 . S
O145 C153 1.284 . S
Zn146 O145 1.899 . S
Zn146 O147 2.032 . S
Zn146 O150 2.086 . S
Zn146 O155 1.977 . S
O147 Zn146 2.032 . S
O147 C151 1.278 . S
C148 O149 1.203 . S
C148 O155 1.267 . S
O149 C148 1.203 . S
O150 C143 1.185 . S
O150 Zn146 2.086 . S
C151 O147 1.278 . S
C151 O152 1.211 . S
O152 C151 1.211 . S
C153 O145 1.284 . S
C153 O154 1.273 . S
O154 C153 1.273 . S
O155 Zn146 1.977 . S
O155 C148 1.267 . S
C156 O157 1.160 . S
C156 O163 1.185 . S
O157 C156 1.160 . S
O158 Zn159 1.899 . S
O158 C166 1.284 . S
Zn159 O158 1.899 . S
Zn159 O160 2.032 . S
Zn159 O163 2.086 . S
Zn159 O168 1.977 . S
O160 Zn159 2.032 . S
O160 C164 1.278 . S
C161 O162 1.203 . S
C161 O168 1.267 . S
O162 C161 1.203 . S
O163 C156 1.185 . S
O163 Zn159 2.086 . S
C164 O160 1.278 . S
C164 O165 1.211 . S
O165 C164 1.211 . S
C166 O158 1.284 . S
C166 O167 1.273 . S
O167 C166 1.273 . S
O168 Zn159 1.977 . S
O168 C161 1.267 . S
C169 O170 1.160 . S
C169 O176 1.185 . S
O170 C169 1.160 . S
O171 Zn172 1.899 . S
O171 C179 1.284 . S
Zn172 O171 1.899 . S
Zn172 O173 2.032 . S
Zn172 O176 2.086 . S
Zn172 O181 1.977 . S
O173 Zn172 2.032 . S
O173 C177 1.278 . S
C174 O175 1.203 . S
C174 O181 1.267 . S
O175 C174 1.203 . S
O176 C169 1.185 . S
O176 Zn172 2.086 . S
C177 O173 1.278 . S
C177 O178 1.211 . S
O178 C177 1.211 . S
C179 O171 1.284 . S
C179 O180 1.273 . S
O180 C179 1.273 . S
O181 Zn172 1.977 . S
O181 C174 1.267 . S
C182 O183 1.160 . S
C182 O189 1.185 . S
O183 C182 1.160 . S
O184 Zn185 1.899 . S
O184 C192 1.284 . S
Zn185 O184 1.899 . S
Zn185 O186 2.032 . S
Zn185 O189 2.086 . S
Zn185 O194 1.977 . S
O186 Zn185 2.032 . S
O186 C190 1.278 . S
C187 O188 1.203 . S
C187 O194 1.267 . S
O188 C187 1.203 . S
O189 C182 1.185 . S
O189 Zn185 2.086 . S
C190 O186 1.278 . S
C190 O191 1.211 . S
O191 C190 1.211 . S
C192 O184 1.284 . S
C192 O193 1.273 . S
O193 C192 1.273 . S
O194 Zn185 1.977 . S
O194 C187 1.267 . S
C195 O196 1.160 . S
C195 O202 1.185 . S
O196 C195 1.160 . S
O197 Zn198 1.899 . S
O197 C205 1.284 . S
Zn198 O197 1.899 . S
Zn198 O199 2.032 . S
Zn198 O202 2.086 . S
Zn198 O207 1.977 . S
O199 Zn198 2.032 . S
O199 C203 1.278 . S
C200 O201 1.203 . S
C200 O207 1.267 . S
O201 C200 1.203 . S
O202 C195 1.185 . S
O202 Zn198 2.086 . S
C203 O199 1.278 . S
C203 O204 1.211 . S
O204 C203 1.211 . S
C205 O197 1.284 . S
C205 O206 1.273 . S
O206 C205 1.273 . S
O207 Zn198 1.977 . S
O207 C200 1.267 . S
C208 O209 1.160 . S
C208 O215 1.185 . S
O209 C208 1.160 . S
O210 Zn211 1.899 . S
O210 C218 1.284 . S
Zn211 O210 1.899 . S
Zn211 O212 2.032 . S
Zn211 O215 2.086 . S
Zn211 O220 1.977 . S
O212 Zn211 2.032 . S
O212 C216 1.278 . S
C213 O214 1.203 . S
C213 O220 1.267 . S
O214 C213 1.203 . S
O215 C208 1.185 . S
O215 Zn211 2.086 . S
C216 O212 1.278 . S
C216 O217 1.211 . S
O217 C216 1.211 . S
C218 O210 1.284 . S
C218 O219 1.273 . S
O219 C218 1.273 . S
O220 Zn211 1.977 . S
O220 C213 1.267 . S
C221 O222 1.160 . S
C221 O228 1.185 . S
O222 C221 1.160 . S
O223 Zn224 1.899 . S
O223 C231 1.284 . S
Zn224 O223 1.899 . S
Zn224 O225 2.032 . S
Zn224 O228 2.086 . S
Zn224 O233 1.977 . S
O225 Zn224 2.032 . S
O225 C229 1.278 . S
C226 O227 1.203 . S
C226 O233 1.267 . S
O227 C226 1.203 . S
O228 C221 1.185 . S
O228 Zn224 2.086 . S
C229 O225 1.278 . S
C229 O230 1.211 . S
O230 C229 1.211 . S
C231 O223 1.284 . S
C231 O232 1.273 . S
O232 C231 1.273 . S
O233 Zn224 1.977 . S
O233 C226 1.267 . S
C234 O235 1.160 . S
C234 O241 1.185 . S
O235 C234 1.160 . S
O236 Zn237 1.899 . S
O236 C244 1.284 . S
Zn237 O236 1.899 . S
Zn237 O238 2.032 . S
Zn237 O241 2.086 . S
Zn237 O246 1.977 . S
O238 Zn237 2.032 . S
O238 C242 1.278 . S
C239 O240 1.203 . S
C239 O246 1.267 . S
O240 C239 1.203 . S
O241 C234 1.185 . S
O241 Zn237 2.086 . S
C242 O238 1.278 . S
C242 O243 1.211 . S
O243 C242 1.211 . S
C244 O236 1.284 . S
C244 O245 1.273 . S
O245 C244 1.273 . S
O246 Zn237 1.977 . S
O246 C239 1.267 . S
C247 O248 1.160 . S
C247 O254 1.185 . S
O248 C247 1.160 . S
O249 Zn250 1.899 . S
O249 C257 1.284 . S
Zn250 O249 1.899 . S
Zn250 O251 2.032 . S
Zn250 O254 2.086 . S
Zn250 O259 1.977 . S
O251 Zn250 2.032 . S
O251 C255 1.278 . S
C252 O253 1.203 . S
C252 O259 1.267 . S
O253 C252 1.203 . S
O254 C247 1.185 . S
O254 Zn250 2.086 . S
C255 O251 1.278 . S
C255 O256 1.211 . S
O256 C255 1.211 . S
C257 O249 1.284 . S
C257 O258 1.273 . S
O258 C257 1.273 . S
O259 Zn250 1.977 . S
O259 C252 1.267 . S
C260 O261 1.160 . S
C260 O267 1.185 . S
O261 C260 1.160 . S
O262 Zn263 1.899 . S
O262 C270 1.284 . S
Zn263 O262 1.899 . S
Zn263 O264 2.032 . S
Zn263 O267 2.086 . S
Zn263 O272 1.977 . S
O264 Zn263 2.032 . S
O264 C268 1.278 . S
C265 O266 1.203 . S
C265 O272 1.267 . S
O266 C265 1.203 . S
O267 C260 1.185 . S
O267 Zn263 2.086 . S
C268 O264 1.278 . S
C268 O269 1.211 . S
O269 C268 1.211 . S
C270 O262 1.284 . S
C270 O271 1.273 . S
O271 C270 1.273 . S
O272 Zn263 1.977 . S
O272 C265 1.267 . S
C273 O274 1.160 . S
C273 O280 1.185 . S
O274 C273 1.160 . S
O275 Zn276 1.899 . S
O275 C283 1.284 . S
Zn276 O275 1.899 . S
Zn276 O277 2.032 . S
Zn276 O280 2.086 . S
Zn276 O285 1.977 . S
O277 Zn276 2.032 . S
O277 C281 1.278 . S
C278 O279 1.203 . S
C278 O285 1.267 . S
O279 C278 1.203 . S
O280 C273 1.185 . S
O280 Zn276 2.086 . S
C281 O277 1.278 . S
C281 O282 1.211 . S
O282 C281 1.211 . S
C283 O275 1.284 . S
C283 O284 1.273 . S
O284 C283 1.273 . S
O285 Zn276 1.977 . S
O285 C278 1.267 . S
C286 O287 1.160 . S
C286 O293 1.185 . S
O287 C286 1.160 . S
O288 Zn289 1.899 . S
O288 C296 1.284 . S
Zn289 O288 1.899 . S
Zn289 O290 2.032 . S
Zn289 O293 2.086 . S
Zn289 O298 1.977 . S
O290 Zn289 2.032 . S
O290 C294 1.278 . S
C291 O292 1.203 . S
C291 O298 1.267 . S
O292 C291 1.203 . S
O293 C286 1.185 . S
O293 Zn289 2.086 . S
C294 O290 1.278 . S
C294 O295 1.211 . S
O295 C294 1.211 . S
C296 O288 1.284 . S
C296 O297 1.273 . S
O297 C296 1.273 . S
O298 Zn289 1.977 . S
O298 C291 1.267 . S
C299 O300 1.160 . S
C299 O306 1.185 . S
O300 C299 1.160 . S
O301 Zn302 1.899 . S
O301 C309 1.284 . S
Zn302 O301 1.899 . S
Zn302 O303 2.032 . S
Zn302 O306 2.086 . S
Zn302 O311 1.977 . S
O303 Zn302 2.032 . S
O303 C307 1.278 . S
C304 O305 1.203 . S
C304 O311 1.267 . S
O305 C304 1.203 . S
O306 C299 1.185 . S
O306 Zn302 2.086 . S
C307 O303 1.278 . S
C307 O308 1.211 . S
O308 C307 1.211 . S
C309 O301 1.284 . S
C309 O310 1.273 . S
O310 C309 1.273 . S
O311 Zn302 1.977 . S
O311 C304 1.267 . S
C312 O313 1.160 . S
C312 O319 1.185 . S
O313 C312 1.160 . S
O314 Zn315 1.899 . S
O314 C322 1.284 . S
Zn315 O314 1.899 . S
Zn315 O316 2.032 . S
Zn315 O319 2.086 . S
Zn315 O324 1.977 . S
O316 Zn315 2.032 . S
O316 C320 1.278 . S
C317 O318 1.203 . S
C317 O324 1.267 . S
O318 C317 1.203 . S
O319 C312 1.185 . S
O319 Zn315 2.086 . S
C320 O316 1.278 . S
C320 O321 1.211 . S
O321 C320 1.211 . S
C322 O314 1.284 . S
C322 O323 1.273 . S
O323 C322 1.273 . S
O324 Zn315 1.977 . S
O324 C317 1.267 . S
C325 O326 1.160 . S
C325 O332 1.185 . S
O326 C325 1.160 . S
O327 Zn328 1.899 . S
O327 C335 1.284 . S
Zn328 O327 1.899 . S
Zn328 O329 2.032 . S
Zn328 O332 2.086 . S
Zn328 O337 1.977 . S
O329 Zn328 2.032 . S
O329 C333 1.278 . S
C330 O331 1.203 . S
C330 O337 1.267 . S
O331 C330 1.203 . S
O332 C325 1.185 . S
O332 Zn328 2.086 . S
C333 O329 1.278 . S
C333 O334 1.211 . S
O334 C333 1.211 . S
C335 O327 1.284 . S
C335 O336 1.273 . S
O336 C335 1.273 . S
O337 Zn328 1.977 . S
O337 C330 1.267 . S
C338 O339 1.160 . S
C338 O345 1.185 . S
O339 C338 1.160 . S
O340 Zn341 1.899 . S
O340 C348 1.284 . S
Zn341 O340 1.899 . S
Zn341 O342 2.032 . S
Zn341 O345 2.086 . S
Zn341 O350 1.977 . S
O342 Zn341 2.032 . S
O342 C346 1.278 . S
C343 O344 1.203 . S
C343 O350 1.267 . S
O344 C343 1.203 . S
O345 C338 1.185 . S
O345 Zn341 2.086 . S
C346 O342 1.278 . S
C346 O347 1.211 . S
O347 C346 1.211 . S
C348 O340 1.284 . S
C348 O349 1.273 . S
O349 C348 1.273 . S
O350 Zn341 1.977 . S
O350 C343 1.267 . S
C351 O352 1.160 . S
C351 O358 1.185 . S
O352 C351 1.160 . S
O353 Zn354 1.899 . S
O353 C361 1.284 . S
Zn354 O353 1.899 . S
Zn354 O355 2.032 . S
Zn354 O358 2.086 . S
Zn354 O363 1.977 . S
O355 Zn354 2.032 . S
O355 C359 1.278 . S
C356 O357 1.203 . S
C356 O363 1.267 . S
O357 C356 1.203 . S
O358 C351 1.185 . S
O358 Zn354 2.086 . S
C359 O355 1.278 . S
C359 O360 1.211 . S
O360 C359 1.211 . S
C361 O353 1.284 . S
C361 O362 1.273 . S
O362 C361 1.273 . S
O363 Zn354 1.977 . S
O363 C356 1.267 . S
C364 O365 1.160 . S
C364 O371 1.185 . S
O365 C364 1.160 . S
O366 Zn367 1.899 . S
O366 C374 1.284 . S
Zn367 O366 1.899 . S
Zn367 O368 2.032 . S
Zn367 O371 2.086 . S
Zn367 O376 1.977 . S
O368 Zn367 2.032 . S
O368 C372 1.278 . S
C369 O370 1.203 . S
C369 O376 1.267 . S
O370 C369 1.203 . S
O371 C364 1.185 . S
O371 Zn367 2.086 . S
C372 O368 1.278 . S
C372 O373 1.211 . S
O373 C372 1.211 . S
C374 O366 1.284 . S
C374 O375 1.273 . S
O375 C374 1.273 . S
O376 Zn367 1.977 . S
O376 C369 1.267 . S
C377 O378 1.160 . S
C377 O384 1.185 . S
O378 C377 1.160 . S
O379 Zn380 1.899 . S
O379 C387 1.284 . S
Zn380 O379 1.899 . S
Zn380 O381 2.032 . S
Zn380 O384 2.086 . S
Zn380 O389 1.977 . S
O381 Zn380 2.032 . S
O381 C385 1.278 . S
C382 O383 1.203 . S
C382 O389 1.267 . S
O383 C382 1.203 . S
O384 C377 1.185 . S
O384 Zn380 2.086 . S
C385 O381 1.278 . S
C385 O386 1.211 . S
O386 C385 1.211 . S
C387 O379 1.284 . S
C387 O388 1.273 . S
O388 C387 1.273 . S
O389 Zn380 1.977 . S
O389 C382 1.267 . S
C390 O391 1.160 . S
C390 O397 1.185 . S
O391 C390 1.160 . S
O392 Zn393 1.899 . S
O392 C400 1.284 . S
Zn393 O392 1.899 . S
Zn393 O394 2.032 . S
Zn393 O397 2.086 . S
Zn393 O402 1.977 . S
O394 Zn393 2.032 . S
O394 C398 1.278 . S
C395 O396 1.203 . S
C395 O402 1.267 . S
O396 C395 1.203 . S
O397 C390 1.185 . S
O397 Zn393 2.086 . S
C398 O394 1.278 . S
C398 O399 1.211 . S
O399 C398 1.211 . S
C400 O392 1.284 . S
C400 O401 1.273 . S
O401 C400 1.273 . S
O402 Zn393 1.977 . S
O402 C395 1.267 . S
C403 O404 1.160 . S
C403 O410 1.185 . S
O404 C403 1.160 . S
O405 Zn406 1.899 . S
O405 C413 1.284 . S
Zn406 O405 1.899 . S
Zn406 O407 2.032 . S
Zn406 O410 2.086 . S
Zn406 O415 1.977 . S
O407 Zn406 2.032 . S
O407 C411 1.278 . S
C408 O409 1.203 . S
C408 O415 1.267 . S
O409 C408 1.203 . S
O410 C403 1.185 . S
O410 Zn406 2.086 . S
C411 O407 1.278 . S
C411 O412 1.211 . S
O412 C411 1.211 . S
C413 O405 1.284 . S
C413 O414 1.273 . S
O414 C413 1.273 . S
O415 Zn406 1.977 . S
O415 C408 1.267 . S
C416 O417 1.160 . S
C416 O423 1.185 . S
O417 C416 1.160 . S
O418 Zn419 1.899 . S
O418 C426 1.284 . S
Zn419 O418 1.899 . S
Zn419 O420 2.032 . S
Zn419 O423 2.086 . S
Zn419 O428 1.977 . S
O420 Zn419 2.032 . S
O420 C424 1.278 . S
C421 O422 1.203 . S
C421 O428 1.267 . S
O422 C421 1.203 . S
O423 C416 1.185 . S
O423 Zn419 2.086 . S
C424 O420 1.278 . S
C424 O425 1.211 . S
O425 C424 1.211 . S
C426 O418 1.284 . S
C426 O427 1.273 . S
O427 C426 1.273 . S
O428 Zn419 1.977 . S
O428 C421 1.267 . S
C429 O430 1.160 . S
C429 O436 1.185 . S
O430 C429 1.160 . S
O431 Zn432 1.899 . S
O431 C439 1.284 . S
Zn432 O431 1.899 . S
Zn432 O433 2.032 . S
Zn432 O436 2.086 . S
Zn432 O441 1.977 . S
O433 Zn432 2.032 . S
O433 C437 1.278 . S
C434 O435 1.203 . S
C434 O441 1.267 . S
O435 C434 1.203 . S
O436 C429 1.185 . S
O436 Zn432 2.086 . S
C437 O433 1.278 . S
C437 O438 1.211 . S
O438 C437 1.211 . S
C439 O431 1.284 . S
C439 O440 1.273 . S
O440 C439 1.273 . S
O441 Zn432 1.977 . S
O441 C434 1.267 . S
C442 O443 1.160 . S
C442 O449 1.185 . S
O443 C442 1.160 . S
O444 Zn445 1.899 . S
O444 C452 1.284 . S
Zn445 O444 1.899 . S
Zn445 O446 2.032 . S
Zn445 O449 2.086 . S
Zn445 O454 1.977 . S
O446 Zn445 2.032 . S
O446 C450 1.278 . S
C447 O448 1.203 . S
C447 O454 1.267 . S
O448 C447 1.203 . S
O449 C442 1.185 . S
O449 Zn445 2.086 . S
C450 O446 1.278 . S
C450 O451 1.211 . S
O451 C450 1.211 . S
C452 O444 1.284 . S
C452 O453 1.273 . S
O453 C452 1.273 . S
O454 Zn445 1.977 . S
O454 C447 1.267 . S
C455 O456 1.160 . S
C455 O462 1.185 . S
O456 C455 1.160 . S
O457 Zn458 1.899 . S
O457 C465 1.284 . S
Zn458 O457 1.899 . S
Zn458 O459 2.032 . S
Zn458 O462 2.086 . S
Zn458 O467 1.977 . S
O459 Zn458 2.032 . S
O459 C463 1.278 . S
C460 O461 1.203 . S
C460 O467 1.267 . S
O461 C460 1.203 . S
O462 C455 1.185 . S
O462 Zn458 2.086 . S
C463 O459 1.278 . S
C463 O464 1.211 . S
O464 C463 1.211 . S
C465 O457 1.284 . S
C465 O466 1.273 . S
O466 C465 1.273 . S
O467 Zn458 1.977 . S
O467 C460 1.267 . S
H468 C476 0.929 . S
H469 C478 0.930 . S
H470 C480 0.930 . S
H471 C483 0.929 . S
H472 C486 0.930 . S
H473 C488 0.960 . S
H474 C488 0.960 . S
H475 C488 0.960 . S
C476 H468 0.929 . S
C476 C477 1.377 . S
C476 C478 1.384 . S
C477 C476 1.377 . S
C477 C483 1.390 . S
C478 H469 0.930 . S
C478 C476 1.384 . S
C478 C479 1.372 . S
C479 C478 1.372 . S
C479 C480 1.400 . S
C479 C484 1.490 . S
C480 H470 0.930 . S
C480 C479 1.400 . S
C480 C483 1.386 . S
H481 C497 0.930 . S
H482 C498 0.931 . S
C483 H471 0.929 . S
C483 C477 1.390 . S
C483 C480 1.386 . S
C484 C479 1.490 . S
C484 C486 1.395 . S
C484 C487 1.403 . S
H485 C491 0.930 . S
C486 H472 0.930 . S
C486 C484 1.395 . S
C486 C489 1.403 . S
C487 C484 1.403 . S
C487 C488 1.524 . S
C487 C491 1.400 . S
C488 H473 0.960 . S
C488 H474 0.960 . S
C488 H475 0.960 . S
C488 C487 1.524 . S
C489 C486 1.403 . S
C489 C490 1.392 . S
C489 C493 1.495 . S
C490 C489 1.392 . S
C490 C491 1.385 . S
C490 C492 1.478 . S
C491 H485 0.930 . S
C491 C487 1.400 . S
C491 C490 1.385 . S
C492 C490 1.478 . S
C492 C494 1.381 . S
C492 C498 1.383 . S
C493 C489 1.495 . S
C493 H499 0.959 . S
C493 H500 0.961 . S
C493 H501 0.960 . S
C494 C492 1.381 . S
C494 C495 1.394 . S
C494 H502 0.930 . S
C495 C494 1.394 . S
C495 C496 1.383 . S
C495 H503 0.929 . S
C496 C495 1.383 . S
C496 C497 1.377 . S
C497 H481 0.930 . S
C497 C496 1.377 . S
C497 C498 1.379 . S
C498 H482 0.931 . S
C498 C492 1.383 . S
C498 C497 1.379 . S
H499 C493 0.959 . S
H500 C493 0.961 . S
H501 C493 0.960 . S
H502 C494 0.930 . S
H503 C495 0.929 . S
H504 C512 0.929 . S
H505 C514 0.930 . S
H506 C516 0.930 . S
H507 C519 0.929 . S
H508 C522 0.930 . S
H509 C524 0.960 . S
H510 C524 0.960 . S
H511 C524 0.960 . S
C512 H504 0.929 . S
C512 C513 1.377 . S
C512 C514 1.384 . S
C513 C512 1.377 . S
C513 C519 1.390 . S
C514 H505 0.930 . S
C514 C512 1.384 . S
C514 C515 1.372 . S
C515 C514 1.372 . S
C515 C516 1.400 . S
C515 C520 1.490 . S
C516 H506 0.930 . S
C516 C515 1.400 . S
C516 C519 1.386 . S
H517 C533 0.930 . S
H518 C534 0.931 . S
C519 H507 0.929 . S
C519 C513 1.390 . S
C519 C516 1.386 . S
C520 C515 1.490 . S
C520 C522 1.395 . S
C520 C523 1.403 . S
H521 C527 0.930 . S
C522 H508 0.930 . S
C522 C520 1.395 . S
C522 C525 1.403 . S
C523 C520 1.403 . S
C523 C524 1.524 . S
C523 C527 1.400 . S
C524 H509 0.960 . S
C524 H510 0.960 . S
C524 H511 0.960 . S
C524 C523 1.524 . S
C525 C522 1.403 . S
C525 C526 1.392 . S
C525 C529 1.495 . S
C526 C525 1.392 . S
C526 C527 1.385 . S
C526 C528 1.478 . S
C527 H521 0.930 . S
C527 C523 1.400 . S
C527 C526 1.385 . S
C528 C526 1.478 . S
C528 C530 1.381 . S
C528 C534 1.383 . S
C529 C525 1.495 . S
C529 H535 0.959 . S
C529 H536 0.961 . S
C529 H537 0.960 . S
C530 C528 1.381 . S
C530 C531 1.394 . S
C530 H538 0.930 . S
C531 C530 1.394 . S
C531 C532 1.383 . S
C531 H539 0.929 . S
C532 C531 1.383 . S
C532 C533 1.377 . S
C533 H517 0.930 . S
C533 C532 1.377 . S
C533 C534 1.379 . S
C534 H518 0.931 . S
C534 C528 1.383 . S
C534 C533 1.379 . S
H535 C529 0.959 . S
H536 C529 0.961 . S
H537 C529 0.960 . S
H538 C530 0.930 . S
H539 C531 0.929 . S
H540 C548 0.929 . S
H541 C550 0.930 . S
H542 C552 0.930 . S
H543 C555 0.929 . S
H544 C558 0.930 . S
H545 C560 0.960 . S
H546 C560 0.960 . S
H547 C560 0.960 . S
C548 H540 0.929 . S
C548 C549 1.377 . S
C548 C550 1.384 . S
C549 C548 1.377 . S
C549 C555 1.390 . S
C550 H541 0.930 . S
C550 C548 1.384 . S
C550 C551 1.372 . S
C551 C550 1.372 . S
C551 C552 1.400 . S
C551 C556 1.490 . S
C552 H542 0.930 . S
C552 C551 1.400 . S
C552 C555 1.386 . S
H553 C569 0.930 . S
H554 C570 0.931 . S
C555 H543 0.929 . S
C555 C549 1.390 . S
C555 C552 1.386 . S
C556 C551 1.490 . S
C556 C558 1.395 . S
C556 C559 1.403 . S
H557 C563 0.930 . S
C558 H544 0.930 . S
C558 C556 1.395 . S
C558 C561 1.403 . S
C559 C556 1.403 . S
C559 C560 1.524 . S
C559 C563 1.400 . S
C560 H545 0.960 . S
C560 H546 0.960 . S
C560 H547 0.960 . S
C560 C559 1.524 . S
C561 C558 1.403 . S
C561 C562 1.392 . S
C561 C565 1.495 . S
C562 C561 1.392 . S
C562 C563 1.385 . S
C562 C564 1.478 . S
C563 H557 0.930 . S
C563 C559 1.400 . S
C563 C562 1.385 . S
C564 C562 1.478 . S
C564 C566 1.381 . S
C564 C570 1.383 . S
C565 C561 1.495 . S
C565 H571 0.959 . S
C565 H572 0.961 . S
C565 H573 0.960 . S
C566 C564 1.381 . S
C566 C567 1.394 . S
C566 H574 0.930 . S
C567 C566 1.394 . S
C567 C568 1.383 . S
C567 H575 0.929 . S
C568 C567 1.383 . S
C568 C569 1.377 . S
C569 H553 0.930 . S
C569 C568 1.377 . S
C569 C570 1.379 . S
C570 H554 0.931 . S
C570 C564 1.383 . S
C570 C569 1.379 . S
H571 C565 0.959 . S
H572 C565 0.961 . S
H573 C565 0.960 . S
H574 C566 0.930 . S
H575 C567 0.929 . S
H576 C584 0.929 . S
H577 C586 0.930 . S
H578 C588 0.930 . S
H579 C591 0.929 . S
H580 C594 0.930 . S
H581 C596 0.960 . S
H582 C596 0.960 . S
H583 C596 0.960 . S
C584 H576 0.929 . S
C584 C585 1.377 . S
C584 C586 1.384 . S
C585 C584 1.377 . S
C585 C591 1.390 . S
C586 H577 0.930 . S
C586 C584 1.384 . S
C586 C587 1.372 . S
C587 C586 1.372 . S
C587 C588 1.400 . S
C587 C592 1.490 . S
C588 H578 0.930 . S
C588 C587 1.400 . S
C588 C591 1.386 . S
H589 C605 0.930 . S
H590 C606 0.931 . S
C591 H579 0.929 . S
C591 C585 1.390 . S
C591 C588 1.386 . S
C592 C587 1.490 . S
C592 C594 1.395 . S
C592 C595 1.403 . S
H593 C599 0.930 . S
C594 H580 0.930 . S
C594 C592 1.395 . S
C594 C597 1.403 . S
C595 C592 1.403 . S
C595 C596 1.524 . S
C595 C599 1.400 . S
C596 H581 0.960 . S
C596 H582 0.960 . S
C596 H583 0.960 . S
C596 C595 1.524 . S
C597 C594 1.403 . S
C597 C598 1.392 . S
C597 C601 1.495 . S
C598 C597 1.392 . S
C598 C599 1.385 . S
C598 C600 1.478 . S
C599 H593 0.930 . S
C599 C595 1.400 . S
C599 C598 1.385 . S
C600 C598 1.478 . S
C600 C602 1.381 . S
C600 C606 1.383 . S
C601 C597 1.495 . S
C601 H607 0.959 . S
C601 H608 0.961 . S
C601 H609 0.960 . S
C602 C600 1.381 . S
C602 C603 1.394 . S
C602 H610 0.930 . S
C603 C602 1.394 . S
C603 C604 1.383 . S
C603 H611 0.929 . S
C604 C603 1.383 . S
C604 C605 1.377 . S
C605 H589 0.930 . S
C605 C604 1.377 . S
C605 C606 1.379 . S
C606 H590 0.931 . S
C606 C600 1.383 . S
C606 C605 1.379 . S
H607 C601 0.959 . S
H608 C601 0.961 . S
H609 C601 0.960 . S
H610 C602 0.930 . S
H611 C603 0.929 . S
H612 C620 0.929 . S
H613 C622 0.930 . S
H614 C624 0.930 . S
H615 C627 0.929 . S
H616 C630 0.930 . S
H617 C632 0.960 . S
H618 C632 0.960 . S
H619 C632 0.960 . S
C620 H612 0.929 . S
C620 C621 1.377 . S
C620 C622 1.384 . S
C621 C620 1.377 . S
C621 C627 1.390 . S
C622 H613 0.930 . S
C622 C620 1.384 . S
C622 C623 1.372 . S
C623 C622 1.372 . S
C623 C624 1.400 . S
C623 C628 1.490 . S
C624 H614 0.930 . S
C624 C623 1.400 . S
C624 C627 1.386 . S
H625 C641 0.930 . S
H626 C642 0.931 . S
C627 H615 0.929 . S
C627 C621 1.390 . S
C627 C624 1.386 . S
C628 C623 1.490 . S
C628 C630 1.395 . S
C628 C631 1.403 . S
H629 C635 0.930 . S
C630 H616 0.930 . S
C630 C628 1.395 . S
C630 C633 1.403 . S
C631 C628 1.403 . S
C631 C632 1.524 . S
C631 C635 1.400 . S
C632 H617 0.960 . S
C632 H618 0.960 . S
C632 H619 0.960 . S
C632 C631 1.524 . S
C633 C630 1.403 . S
C633 C634 1.392 . S
C633 C637 1.495 . S
C634 C633 1.392 . S
C634 C635 1.385 . S
C634 C636 1.478 . S
C635 H629 0.930 . S
C635 C631 1.400 . S
C635 C634 1.385 . S
C636 C634 1.478 . S
C636 C638 1.381 . S
C636 C642 1.383 . S
C637 C633 1.495 . S
C637 H643 0.959 . S
C637 H644 0.961 . S
C637 H645 0.960 . S
C638 C636 1.381 . S
C638 C639 1.394 . S
C638 H646 0.930 . S
C639 C638 1.394 . S
C639 C640 1.383 . S
C639 H647 0.929 . S
C640 C639 1.383 . S
C640 C641 1.377 . S
C641 H625 0.930 . S
C641 C640 1.377 . S
C641 C642 1.379 . S
C642 H626 0.931 . S
C642 C636 1.383 . S
C642 C641 1.379 . S
H643 C637 0.959 . S
H644 C637 0.961 . S
H645 C637 0.960 . S
H646 C638 0.930 . S
H647 C639 0.929 . S
H648 C656 0.929 . S
H649 C658 0.930 . S
H650 C660 0.930 . S
H651 C663 0.929 . S
H652 C666 0.930 . S
H653 C668 0.960 . S
H654 C668 0.960 . S
H655 C668 0.960 . S
C656 H648 0.929 . S
C656 C657 1.377 . S
C656 C658 1.384 . S
C657 C656 1.377 . S
C657 C663 1.390 . S
C658 H649 0.930 . S
C658 C656 1.384 . S
C658 C659 1.372 . S
C659 C658 1.372 . S
C659 C660 1.400 . S
C659 C664 1.490 . S
C660 H650 0.930 . S
C660 C659 1.400 . S
C660 C663 1.386 . S
H661 C677 0.930 . S
H662 C678 0.931 . S
C663 H651 0.929 . S
C663 C657 1.390 . S
C663 C660 1.386 . S
C664 C659 1.490 . S
C664 C666 1.395 . S
C664 C667 1.403 . S
H665 C671 0.930 . S
C666 H652 0.930 . S
C666 C664 1.395 . S
C666 C669 1.403 . S
C667 C664 1.403 . S
C667 C668 1.524 . S
C667 C671 1.400 . S
C668 H653 0.960 . S
C668 H654 0.960 . S
C668 H655 0.960 . S
C668 C667 1.524 . S
C669 C666 1.403 . S
C669 C670 1.392 . S
C669 C673 1.495 . S
C670 C669 1.392 . S
C670 C671 1.385 . S
C670 C672 1.478 . S
C671 H665 0.930 . S
C671 C667 1.400 . S
C671 C670 1.385 . S
C672 C670 1.478 . S
C672 C674 1.381 . S
C672 C678 1.383 . S
C673 C669 1.495 . S
C673 H679 0.959 . S
C673 H680 0.961 . S
C673 H681 0.960 . S
C674 C672 1.381 . S
C674 C675 1.394 . S
C674 H682 0.930 . S
C675 C674 1.394 . S
C675 C676 1.383 . S
C675 H683 0.929 . S
C676 C675 1.383 . S
C676 C677 1.377 . S
C677 H661 0.930 . S
C677 C676 1.377 . S
C677 C678 1.379 . S
C678 H662 0.931 . S
C678 C672 1.383 . S
C678 C677 1.379 . S
H679 C673 0.959 . S
H680 C673 0.961 . S
H681 C673 0.960 . S
H682 C674 0.930 . S
H683 C675 0.929 . S
H684 C692 0.929 . S
H685 C694 0.930 . S
H686 C696 0.930 . S
H687 C699 0.929 . S
H688 C702 0.930 . S
H689 C704 0.960 . S
H690 C704 0.960 . S
H691 C704 0.960 . S
C692 H684 0.929 . S
C692 C693 1.377 . S
C692 C694 1.384 . S
C693 C692 1.377 . S
C693 C699 1.390 . S
C694 H685 0.930 . S
C694 C692 1.384 . S
C694 C695 1.372 . S
C695 C694 1.372 . S
C695 C696 1.400 . S
C695 C700 1.490 . S
C696 H686 0.930 . S
C696 C695 1.400 . S
C696 C699 1.386 . S
H697 C713 0.930 . S
H698 C714 0.931 . S
C699 H687 0.929 . S
C699 C693 1.390 . S
C699 C696 1.386 . S
C700 C695 1.490 . S
C700 C702 1.395 . S
C700 C703 1.403 . S
H701 C707 0.930 . S
C702 H688 0.930 . S
C702 C700 1.395 . S
C702 C705 1.403 . S
C703 C700 1.403 . S
C703 C704 1.524 . S
C703 C707 1.400 . S
C704 H689 0.960 . S
C704 H690 0.960 . S
C704 H691 0.960 . S
C704 C703 1.524 . S
C705 C702 1.403 . S
C705 C706 1.392 . S
C705 C709 1.495 . S
C706 C705 1.392 . S
C706 C707 1.385 . S
C706 C708 1.478 . S
C707 H701 0.930 . S
C707 C703 1.400 . S
C707 C706 1.385 . S
C708 C706 1.478 . S
C708 C710 1.381 . S
C708 C714 1.383 . S
C709 C705 1.495 . S
C709 H715 0.959 . S
C709 H716 0.961 . S
C709 H717 0.960 . S
C710 C708 1.381 . S
C710 C711 1.394 . S
C710 H718 0.930 . S
C711 C710 1.394 . S
C711 C712 1.383 . S
C711 H719 0.929 . S
C712 C711 1.383 . S
C712 C713 1.377 . S
C713 H697 0.930 . S
C713 C712 1.377 . S
C713 C714 1.379 . S
C714 H698 0.931 . S
C714 C708 1.383 . S
C714 C713 1.379 . S
H715 C709 0.959 . S
H716 C709 0.961 . S
H717 C709 0.960 . S
H718 C710 0.930 . S
H719 C711 0.929 . S
H720 C728 0.929 . S
H721 C730 0.930 . S
H722 C732 0.930 . S
H723 C735 0.929 . S
H724 C738 0.930 . S
H725 C740 0.960 . S
H726 C740 0.960 . S
H727 C740 0.960 . S
C728 H720 0.929 . S
C728 C729 1.377 . S
C728 C730 1.384 . S
C729 C728 1.377 . S
C729 C735 1.390 . S
C730 H721 0.930 . S
C730 C728 1.384 . S
C730 C731 1.372 . S
C731 C730 1.372 . S
C731 C732 1.400 . S
C731 C736 1.490 . S
C732 H722 0.930 . S
C732 C731 1.400 . S
C732 C735 1.386 . S
H733 C749 0.930 . S
H734 C750 0.931 . S
C735 H723 0.929 . S
C735 C729 1.390 . S
C735 C732 1.386 . S
C736 C731 1.490 . S
C736 C738 1.395 . S
C736 C739 1.403 . S
H737 C743 0.930 . S
C738 H724 0.930 . S
C738 C736 1.395 . S
C738 C741 1.403 . S
C739 C736 1.403 . S
C739 C740 1.524 . S
C739 C743 1.400 . S
C740 H725 0.960 . S
C740 H726 0.960 . S
C740 H727 0.960 . S
C740 C739 1.524 . S
C741 C738 1.403 . S
C741 C742 1.392 . S
C741 C745 1.495 . S
C742 C741 1.392 . S
C742 C743 1.385 . S
C742 C744 1.478 . S
C743 H737 0.930 . S
C743 C739 1.400 . S
C743 C742 1.385 . S
C744 C742 1.478 . S
C744 C746 1.381 . S
C744 C750 1.383 . S
C745 C741 1.495 . S
C745 H751 0.959 . S
C745 H752 0.961 . S
C745 H753 0.960 . S
C746 C744 1.381 . S
C746 C747 1.394 . S
C746 H754 0.930 . S
C747 C746 1.394 . S
C747 C748 1.383 . S
C747 H755 0.929 . S
C748 C747 1.383 . S
C748 C749 1.377 . S
C749 H733 0.930 . S
C749 C748 1.377 . S
C749 C750 1.379 . S
C750 H734 0.931 . S
C750 C744 1.383 . S
C750 C749 1.379 . S
H751 C745 0.959 . S
H752 C745 0.961 . S
H753 C745 0.960 . S
H754 C746 0.930 . S
H755 C747 0.929 . S
H756 C764 0.929 . S
H757 C766 0.930 . S
H758 C768 0.930 . S
H759 C771 0.929 . S
H760 C774 0.930 . S
H761 C776 0.960 . S
H762 C776 0.960 . S
H763 C776 0.960 . S
C764 H756 0.929 . S
C764 C765 1.377 . S
C764 C766 1.384 . S
C765 C764 1.377 . S
C765 C771 1.390 . S
C766 H757 0.930 . S
C766 C764 1.384 . S
C766 C767 1.372 . S
C767 C766 1.372 . S
C767 C768 1.400 . S
C767 C772 1.490 . S
C768 H758 0.930 . S
C768 C767 1.400 . S
C768 C771 1.386 . S
H769 C785 0.930 . S
H770 C786 0.931 . S
C771 H759 0.929 . S
C771 C765 1.390 . S
C771 C768 1.386 . S
C772 C767 1.490 . S
C772 C774 1.395 . S
C772 C775 1.403 . S
H773 C779 0.930 . S
C774 H760 0.930 . S
C774 C772 1.395 . S
C774 C777 1.403 . S
C775 C772 1.403 . S
C775 C776 1.524 . S
C775 C779 1.400 . S
C776 H761 0.960 . S
C776 H762 0.960 . S
C776 H763 0.960 . S
C776 C775 1.524 . S
C777 C774 1.403 . S
C777 C778 1.392 . S
C777 C781 1.495 . S
C778 C777 1.392 . S
C778 C779 1.385 . S
C778 C780 1.478 . S
C779 H773 0.930 . S
C779 C775 1.400 . S
C779 C778 1.385 . S
C780 C778 1.478 . S
C780 C782 1.381 . S
C780 C786 1.383 . S
C781 C777 1.495 . S
C781 H787 0.959 . S
C781 H788 0.961 . S
C781 H789 0.960 . S
C782 C780 1.381 . S
C782 C783 1.394 . S
C782 H790 0.930 . S
C783 C782 1.394 . S
C783 C784 1.383 . S
C783 H791 0.929 . S
C784 C783 1.383 . S
C784 C785 1.377 . S
C785 H769 0.930 . S
C785 C784 1.377 . S
C785 C786 1.379 . S
C786 H770 0.931 . S
C786 C780 1.383 . S
C786 C785 1.379 . S
H787 C781 0.959 . S
H788 C781 0.961 . S
H789 C781 0.960 . S
H790 C782 0.930 . S
H791 C783 0.929 . S
H792 C800 0.929 . S
H793 C802 0.930 . S
H794 C804 0.930 . S
H795 C807 0.929 . S
H796 C810 0.930 . S
H797 C812 0.960 . S
H798 C812 0.960 . S
H799 C812 0.960 . S
C800 H792 0.929 . S
C800 C801 1.377 . S
C800 C802 1.384 . S
C801 C800 1.377 . S
C801 C807 1.390 . S
C802 H793 0.930 . S
C802 C800 1.384 . S
C802 C803 1.372 . S
C803 C802 1.372 . S
C803 C804 1.400 . S
C803 C808 1.490 . S
C804 H794 0.930 . S
C804 C803 1.400 . S
C804 C807 1.386 . S
H805 C821 0.930 . S
H806 C822 0.931 . S
C807 H795 0.929 . S
C807 C801 1.390 . S
C807 C804 1.386 . S
C808 C803 1.490 . S
C808 C810 1.395 . S
C808 C811 1.403 . S
H809 C815 0.930 . S
C810 H796 0.930 . S
C810 C808 1.395 . S
C810 C813 1.403 . S
C811 C808 1.403 . S
C811 C812 1.524 . S
C811 C815 1.400 . S
C812 H797 0.960 . S
C812 H798 0.960 . S
C812 H799 0.960 . S
C812 C811 1.524 . S
C813 C810 1.403 . S
C813 C814 1.392 . S
C813 C817 1.495 . S
C814 C813 1.392 . S
C814 C815 1.385 . S
C814 C816 1.478 . S
C815 H809 0.930 . S
C815 C811 1.400 . S
C815 C814 1.385 . S
C816 C814 1.478 . S
C816 C818 1.381 . S
C816 C822 1.383 . S
C817 C813 1.495 . S
C817 H823 0.959 . S
C817 H824 0.961 . S
C817 H825 0.960 . S
C818 C816 1.381 . S
C818 C819 1.394 . S
C818 H826 0.930 . S
C819 C818 1.394 . S
C819 C820 1.383 . S
C819 H827 0.929 . S
C820 C819 1.383 . S
C820 C821 1.377 . S
C821 H805 0.930 . S
C821 C820 1.377 . S
C821 C822 1.379 . S
C822 H806 0.931 . S
C822 C816 1.383 . S
C822 C821 1.379 . S
H823 C817 0.959 . S
H824 C817 0.961 . S
H825 C817 0.960 . S
H826 C818 0.930 . S
H827 C819 0.929 . S
H828 C836 0.929 . S
H829 C838 0.930 . S
H830 C840 0.930 . S
H831 C843 0.929 . S
H832 C846 0.930 . S
H833 C848 0.960 . S
H834 C848 0.960 . S
H835 C848 0.960 . S
C836 H828 0.929 . S
C836 C837 1.377 . S
C836 C838 1.384 . S
C837 C836 1.377 . S
C837 C843 1.390 . S
C838 H829 0.930 . S
C838 C836 1.384 . S
C838 C839 1.372 . S
C839 C838 1.372 . S
C839 C840 1.400 . S
C839 C844 1.490 . S
C840 H830 0.930 . S
C840 C839 1.400 . S
C840 C843 1.386 . S
H841 C857 0.930 . S
H842 C858 0.931 . S
C843 H831 0.929 . S
C843 C837 1.390 . S
C843 C840 1.386 . S
C844 C839 1.490 . S
C844 C846 1.395 . S
C844 C847 1.403 . S
H845 C851 0.930 . S
C846 H832 0.930 . S
C846 C844 1.395 . S
C846 C849 1.403 . S
C847 C844 1.403 . S
C847 C848 1.524 . S
C847 C851 1.400 . S
C848 H833 0.960 . S
C848 H834 0.960 . S
C848 H835 0.960 . S
C848 C847 1.524 . S
C849 C846 1.403 . S
C849 C850 1.392 . S
C849 C853 1.495 . S
C850 C849 1.392 . S
C850 C851 1.385 . S
C850 C852 1.478 . S
C851 H845 0.930 . S
C851 C847 1.400 . S
C851 C850 1.385 . S
C852 C850 1.478 . S
C852 C854 1.381 . S
C852 C858 1.383 . S
C853 C849 1.495 . S
C853 H859 0.959 . S
C853 H860 0.961 . S
C853 H861 0.960 . S
C854 C852 1.381 . S
C854 C855 1.394 . S
C854 H862 0.930 . S
C855 C854 1.394 . S
C855 C856 1.383 . S
C855 H863 0.929 . S
C856 C855 1.383 . S
C856 C857 1.377 . S
C857 H841 0.930 . S
C857 C856 1.377 . S
C857 C858 1.379 . S
C858 H842 0.931 . S
C858 C852 1.383 . S
C858 C857 1.379 . S
H859 C853 0.959 . S
H860 C853 0.961 . S
H861 C853 0.960 . S
H862 C854 0.930 . S
H863 C855 0.929 . S
H864 C872 0.929 . S
H865 C874 0.930 . S
H866 C876 0.930 . S
H867 C879 0.929 . S
H868 C882 0.930 . S
H869 C884 0.960 . S
H870 C884 0.960 . S
H871 C884 0.960 . S
C872 H864 0.929 . S
C872 C873 1.377 . S
C872 C874 1.384 . S
C873 C872 1.377 . S
C873 C879 1.390 . S
C874 H865 0.930 . S
C874 C872 1.384 . S
C874 C875 1.372 . S
C875 C874 1.372 . S
C875 C876 1.400 . S
C875 C880 1.490 . S
C876 H866 0.930 . S
C876 C875 1.400 . S
C876 C879 1.386 . S
H877 C893 0.930 . S
H878 C894 0.931 . S
C879 H867 0.929 . S
C879 C873 1.390 . S
C879 C876 1.386 . S
C880 C875 1.490 . S
C880 C882 1.395 . S
C880 C883 1.403 . S
H881 C887 0.930 . S
C882 H868 0.930 . S
C882 C880 1.395 . S
C882 C885 1.403 . S
C883 C880 1.403 . S
C883 C884 1.524 . S
C883 C887 1.400 . S
C884 H869 0.960 . S
C884 H870 0.960 . S
C884 H871 0.960 . S
C884 C883 1.524 . S
C885 C882 1.403 . S
C885 C886 1.392 . S
C885 C889 1.495 . S
C886 C885 1.392 . S
C886 C887 1.385 . S
C886 C888 1.478 . S
C887 H881 0.930 . S
C887 C883 1.400 . S
C887 C886 1.385 . S
C888 C886 1.478 . S
C888 C890 1.381 . S
C888 C894 1.383 . S
C889 C885 1.495 . S
C889 H895 0.959 . S
C889 H896 0.961 . S
C889 H897 0.960 . S
C890 C888 1.381 . S
C890 C891 1.394 . S
C890 H898 0.930 . S
C891 C890 1.394 . S
C891 C892 1.383 . S
C891 H899 0.929 . S
C892 C891 1.383 . S
C892 C893 1.377 . S
C893 H877 0.930 . S
C893 C892 1.377 . S
C893 C894 1.379 . S
C894 H878 0.931 . S
C894 C888 1.383 . S
C894 C893 1.379 . S
H895 C889 0.959 . S
H896 C889 0.961 . S
H897 C889 0.960 . S
H898 C890 0.930 . S
H899 C891 0.929 . S
H900 C908 0.929 . S
H901 C910 0.930 . S
H902 C912 0.930 . S
H903 C915 0.929 . S
H904 C918 0.930 . S
H905 C920 0.960 . S
H906 C920 0.960 . S
H907 C920 0.960 . S
C908 H900 0.929 . S
C908 C909 1.377 . S
C908 C910 1.384 . S
C909 C908 1.377 . S
C909 C915 1.390 . S
C910 H901 0.930 . S
C910 C908 1.384 . S
C910 C911 1.372 . S
C911 C910 1.372 . S
C911 C912 1.400 . S
C911 C916 1.490 . S
C912 H902 0.930 . S
C912 C911 1.400 . S
C912 C915 1.386 . S
H913 C929 0.930 . S
H914 C930 0.931 . S
C915 H903 0.929 . S
C915 C909 1.390 . S
C915 C912 1.386 . S
C916 C911 1.490 . S
C916 C918 1.395 . S
C916 C919 1.403 . S
H917 C923 0.930 . S
C918 H904 0.930 . S
C918 C916 1.395 . S
C918 C921 1.403 . S
C919 C916 1.403 . S
C919 C920 1.524 . S
C919 C923 1.400 . S
C920 H905 0.960 . S
C920 H906 0.960 . S
C920 H907 0.960 . S
C920 C919 1.524 . S
C921 C918 1.403 . S
C921 C922 1.392 . S
C921 C925 1.495 . S
C922 C921 1.392 . S
C922 C923 1.385 . S
C922 C924 1.478 . S
C923 H917 0.930 . S
C923 C919 1.400 . S
C923 C922 1.385 . S
C924 C922 1.478 . S
C924 C926 1.381 . S
C924 C930 1.383 . S
C925 C921 1.495 . S
C925 H931 0.959 . S
C925 H932 0.961 . S
C925 H933 0.960 . S
C926 C924 1.381 . S
C926 C927 1.394 . S
C926 H934 0.930 . S
C927 C926 1.394 . S
C927 C928 1.383 . S
C927 H935 0.929 . S
C928 C927 1.383 . S
C928 C929 1.377 . S
C929 H913 0.930 . S
C929 C928 1.377 . S
C929 C930 1.379 . S
C930 H914 0.931 . S
C930 C924 1.383 . S
C930 C929 1.379 . S
H931 C925 0.959 . S
H932 C925 0.961 . S
H933 C925 0.960 . S
H934 C926 0.930 . S
H935 C927 0.929 . S
H936 C944 0.929 . S
H937 C946 0.930 . S
H938 C948 0.930 . S
H939 C951 0.929 . S
H940 C954 0.930 . S
H941 C956 0.960 . S
H942 C956 0.960 . S
H943 C956 0.960 . S
C944 H936 0.929 . S
C944 C945 1.377 . S
C944 C946 1.384 . S
C945 C944 1.377 . S
C945 C951 1.390 . S
C946 H937 0.930 . S
C946 C944 1.384 . S
C946 C947 1.372 . S
C947 C946 1.372 . S
C947 C948 1.400 . S
C947 C952 1.490 . S
C948 H938 0.930 . S
C948 C947 1.400 . S
C948 C951 1.386 . S
H949 C965 0.930 . S
H950 C966 0.931 . S
C951 H939 0.929 . S
C951 C945 1.390 . S
C951 C948 1.386 . S
C952 C947 1.490 . S
C952 C954 1.395 . S
C952 C955 1.403 . S
H953 C959 0.930 . S
C954 H940 0.930 . S
C954 C952 1.395 . S
C954 C957 1.403 . S
C955 C952 1.403 . S
C955 C956 1.524 . S
C955 C959 1.400 . S
C956 H941 0.960 . S
C956 H942 0.960 . S
C956 H943 0.960 . S
C956 C955 1.524 . S
C957 C954 1.403 . S
C957 C958 1.392 . S
C957 C961 1.495 . S
C958 C957 1.392 . S
C958 C959 1.385 . S
C958 C960 1.478 . S
C959 H953 0.930 . S
C959 C955 1.400 . S
C959 C958 1.385 . S
C960 C958 1.478 . S
C960 C962 1.381 . S
C960 C966 1.383 . S
C961 C957 1.495 . S
C961 H967 0.959 . S
C961 H968 0.961 . S
C961 H969 0.960 . S
C962 C960 1.381 . S
C962 C963 1.394 . S
C962 H970 0.930 . S
C963 C962 1.394 . S
C963 C964 1.383 . S
C963 H971 0.929 . S
C964 C963 1.383 . S
C964 C965 1.377 . S
C965 H949 0.930 . S
C965 C964 1.377 . S
C965 C966 1.379 . S
C966 H950 0.931 . S
C966 C960 1.383 . S
C966 C965 1.379 . S
H967 C961 0.959 . S
H968 C961 0.961 . S
H969 C961 0.960 . S
H970 C962 0.930 . S
H971 C963 0.929 . S
H972 C980 0.929 . S
H973 C982 0.930 . S
H974 C984 0.930 . S
H975 C987 0.929 . S
H976 C990 0.930 . S
H977 C992 0.960 . S
H978 C992 0.960 . S
H979 C992 0.960 . S
C980 H972 0.929 . S
C980 C981 1.377 . S
C980 C982 1.384 . S
C981 C980 1.377 . S
C981 C987 1.390 . S
C982 H973 0.930 . S
C982 C980 1.384 . S
C982 C983 1.372 . S
C983 C982 1.372 . S
C983 C984 1.400 . S
C983 C988 1.490 . S
C984 H974 0.930 . S
C984 C983 1.400 . S
C984 C987 1.386 . S
H985 C1001 0.930 . S
H986 C1002 0.931 . S
C987 H975 0.929 . S
C987 C981 1.390 . S
C987 C984 1.386 . S
C988 C983 1.490 . S
C988 C990 1.395 . S
C988 C991 1.403 . S
H989 C995 0.930 . S
C990 H976 0.930 . S
C990 C988 1.395 . S
C990 C993 1.403 . S
C991 C988 1.403 . S
C991 C992 1.524 . S
C991 C995 1.400 . S
C992 H977 0.960 . S
C992 H978 0.960 . S
C992 H979 0.960 . S
C992 C991 1.524 . S
C993 C990 1.403 . S
C993 C994 1.392 . S
C993 C997 1.495 . S
C994 C993 1.392 . S
C994 C995 1.385 . S
C994 C996 1.478 . S
C995 H989 0.930 . S
C995 C991 1.400 . S
C995 C994 1.385 . S
C996 C994 1.478 . S
C996 C998 1.381 . S
C996 C1002 1.383 . S
C997 C993 1.495 . S
C997 H1003 0.959 . S
C997 H1004 0.961 . S
C997 H1005 0.960 . S
C998 C996 1.381 . S
C998 C999 1.394 . S
C998 H1006 0.930 . S
C999 C998 1.394 . S
C999 C1000 1.383 . S
C999 H1007 0.929 . S
C1000 C999 1.383 . S
C1000 C1001 1.377 . S
C1001 H985 0.930 . S
C1001 C1000 1.377 . S
C1001 C1002 1.379 . S
C1002 H986 0.931 . S
C1002 C996 1.383 . S
C1002 C1001 1.379 . S
H1003 C997 0.959 . S
H1004 C997 0.961 . S
H1005 C997 0.960 . S
H1006 C998 0.930 . S
H1007 C999 0.929 . S
H1008 C1016 0.929 . S
H1009 C1018 0.930 . S
H1010 C1020 0.930 . S
H1011 C1023 0.929 . S
H1012 C1026 0.930 . S
H1013 C1028 0.960 . S
H1014 C1028 0.960 . S
H1015 C1028 0.960 . S
C1016 H1008 0.929 . S
C1016 C1017 1.377 . S
C1016 C1018 1.384 . S
C1017 C1016 1.377 . S
C1017 C1023 1.390 . S
C1018 H1009 0.930 . S
C1018 C1016 1.384 . S
C1018 C1019 1.372 . S
C1019 C1018 1.372 . S
C1019 C1020 1.400 . S
C1019 C1024 1.490 . S
C1020 H1010 0.930 . S
C1020 C1019 1.400 . S
C1020 C1023 1.386 . S
H1021 C1037 0.930 . S
H1022 C1038 0.931 . S
C1023 H1011 0.929 . S
C1023 C1017 1.390 . S
C1023 C1020 1.386 . S
C1024 C1019 1.490 . S
C1024 C1026 1.395 . S
C1024 C1027 1.403 . S
H1025 C1031 0.930 . S
C1026 H1012 0.930 . S
C1026 C1024 1.395 . S
C1026 C1029 1.403 . S
C1027 C1024 1.403 . S
C1027 C1028 1.524 . S
C1027 C1031 1.400 . S
C1028 H1013 0.960 . S
C1028 H1014 0.960 . S
C1028 H1015 0.960 . S
C1028 C1027 1.524 . S
C1029 C1026 1.403 . S
C1029 C1030 1.392 . S
C1029 C1033 1.495 . S
C1030 C1029 1.392 . S
C1030 C1031 1.385 . S
C1030 C1032 1.478 . S
C1031 H1025 0.930 . S
C1031 C1027 1.400 . S
C1031 C1030 1.385 . S
C1032 C1030 1.478 . S
C1032 C1034 1.381 . S
C1032 C1038 1.383 . S
C1033 C1029 1.495 . S
C1033 H1039 0.959 . S
C1033 H1040 0.961 . S
C1033 H1041 0.960 . S
C1034 C1032 1.381 . S
C1034 C1035 1.394 . S
C1034 H1042 0.930 . S
C1035 C1034 1.394 . S
C1035 C1036 1.383 . S
C1035 H1043 0.929 . S
C1036 C1035 1.383 . S
C1036 C1037 1.377 . S
C1037 H1021 0.930 . S
C1037 C1036 1.377 . S
C1037 C1038 1.379 . S
C1038 H1022 0.931 . S
C1038 C1032 1.383 . S
C1038 C1037 1.379 . S
H1039 C1033 0.959 . S
H1040 C1033 0.961 . S
H1041 C1033 0.960 . S
H1042 C1034 0.930 . S
H1043 C1035 0.929 . S
H1044 C1052 0.929 . S
H1045 C1054 0.930 . S
H1046 C1056 0.930 . S
H1047 C1059 0.929 . S
H1048 C1062 0.930 . S
H1049 C1064 0.960 . S
H1050 C1064 0.960 . S
H1051 C1064 0.960 . S
C1052 H1044 0.929 . S
C1052 C1053 1.377 . S
C1052 C1054 1.384 . S
C1053 C1052 1.377 . S
C1053 C1059 1.390 . S
C1054 H1045 0.930 . S
C1054 C1052 1.384 . S
C1054 C1055 1.372 . S
C1055 C1054 1.372 . S
C1055 C1056 1.400 . S
C1055 C1060 1.490 . S
C1056 H1046 0.930 . S
C1056 C1055 1.400 . S
C1056 C1059 1.386 . S
H1057 C1073 0.930 . S
H1058 C1074 0.931 . S
C1059 H1047 0.929 . S
C1059 C1053 1.390 . S
C1059 C1056 1.386 . S
C1060 C1055 1.490 . S
C1060 C1062 1.395 . S
C1060 C1063 1.403 . S
H1061 C1067 0.930 . S
C1062 H1048 0.930 . S
C1062 C1060 1.395 . S
C1062 C1065 1.403 . S
C1063 C1060 1.403 . S
C1063 C1064 1.524 . S
C1063 C1067 1.400 . S
C1064 H1049 0.960 . S
C1064 H1050 0.960 . S
C1064 H1051 0.960 . S
C1064 C1063 1.524 . S
C1065 C1062 1.403 . S
C1065 C1066 1.392 . S
C1065 C1069 1.495 . S
C1066 C1065 1.392 . S
C1066 C1067 1.385 . S
C1066 C1068 1.478 . S
C1067 H1061 0.930 . S
C1067 C1063 1.400 . S
C1067 C1066 1.385 . S
C1068 C1066 1.478 . S
C1068 C1070 1.381 . S
C1068 C1074 1.383 . S
C1069 C1065 1.495 . S
C1069 H1075 0.959 . S
C1069 H1076 0.961 . S
C1069 H1077 0.960 . S
C1070 C1068 1.381 . S
C1070 C1071 1.394 . S
C1070 H1078 0.930 . S
C1071 C1070 1.394 . S
C1071 C1072 1.383 . S
C1071 H1079 0.929 . S
C1072 C1071 1.383 . S
C1072 C1073 1.377 . S
C1073 H1057 0.930 . S
C1073 C1072 1.377 . S
C1073 C1074 1.379 . S
C1074 H1058 0.931 . S
C1074 C1068 1.383 . S
C1074 C1073 1.379 . S
H1075 C1069 0.959 . S
H1076 C1069 0.961 . S
H1077 C1069 0.960 . S
H1078 C1070 0.930 . S
H1079 C1071 0.929 . S
H1080 C1088 0.929 . S
H1081 C1090 0.930 . S
H1082 C1092 0.930 . S
H1083 C1095 0.929 . S
H1084 C1098 0.930 . S
H1085 C1100 0.960 . S
H1086 C1100 0.960 . S
H1087 C1100 0.960 . S
C1088 H1080 0.929 . S
C1088 C1089 1.377 . S
C1088 C1090 1.384 . S
C1089 C1088 1.377 . S
C1089 C1095 1.390 . S
C1090 H1081 0.930 . S
C1090 C1088 1.384 . S
C1090 C1091 1.372 . S
C1091 C1090 1.372 . S
C1091 C1092 1.400 . S
C1091 C1096 1.490 . S
C1092 H1082 0.930 . S
C1092 C1091 1.400 . S
C1092 C1095 1.386 . S
H1093 C1109 0.930 . S
H1094 C1110 0.931 . S
C1095 H1083 0.929 . S
C1095 C1089 1.390 . S
C1095 C1092 1.386 . S
C1096 C1091 1.490 . S
C1096 C1098 1.395 . S
C1096 C1099 1.403 . S
H1097 C1103 0.930 . S
C1098 H1084 0.930 . S
C1098 C1096 1.395 . S
C1098 C1101 1.403 . S
C1099 C1096 1.403 . S
C1099 C1100 1.524 . S
C1099 C1103 1.400 . S
C1100 H1085 0.960 . S
C1100 H1086 0.960 . S
C1100 H1087 0.960 . S
C1100 C1099 1.524 . S
C1101 C1098 1.403 . S
C1101 C1102 1.392 . S
C1101 C1105 1.495 . S
C1102 C1101 1.392 . S
C1102 C1103 1.385 . S
C1102 C1104 1.478 . S
C1103 H1097 0.930 . S
C1103 C1099 1.400 . S
C1103 C1102 1.385 . S
C1104 C1102 1.478 . S
C1104 C1106 1.381 . S
C1104 C1110 1.383 . S
C1105 C1101 1.495 . S
C1105 H1111 0.959 . S
C1105 H1112 0.961 . S
C1105 H1113 0.960 . S
C1106 C1104 1.381 . S
C1106 C1107 1.394 . S
C1106 H1114 0.930 . S
C1107 C1106 1.394 . S
C1107 C1108 1.383 . S
C1107 H1115 0.929 . S
C1108 C1107 1.383 . S
C1108 C1109 1.377 . S
C1109 H1093 0.930 . S
C1109 C1108 1.377 . S
C1109 C1110 1.379 . S
C1110 H1094 0.931 . S
C1110 C1104 1.383 . S
C1110 C1109 1.379 . S
H1111 C1105 0.959 . S
H1112 C1105 0.961 . S
H1113 C1105 0.960 . S
H1114 C1106 0.930 . S
H1115 C1107 0.929 . S
H1116 C1124 0.929 . S
H1117 C1126 0.937 . S
H1118 C1128 0.930 . S
H1119 C1131 0.929 . S
H1120 C1134 0.930 . S
H1121 C1136 0.960 . S
H1122 C1136 0.960 . S
H1123 C1136 0.960 . S
C1124 H1116 0.929 . S
C1124 C1125 1.377 . S
C1124 C1126 1.384 . S
C1125 C1124 1.377 . S
C1125 C1131 1.390 . S
C1126 H1117 0.937 . S
C1126 C1124 1.384 . S
C1126 C1127 1.372 . S
C1127 C1126 1.372 . S
C1127 C1128 1.400 . S
C1127 C1132 1.490 1_455 S
C1128 H1118 0.930 . S
C1128 C1127 1.400 . S
C1128 C1131 1.386 . S
H1129 C1145 0.930 . S
H1130 C1146 0.931 . S
C1131 H1119 0.929 . S
C1131 C1125 1.390 . S
C1131 C1128 1.386 . S
C1132 C1127 1.490 1_655 S
C1132 C1134 1.395 . S
C1132 C1135 1.403 1_655 S
H1133 C1139 0.923 1_455 S
C1134 H1120 0.930 . S
C1134 C1132 1.395 . S
C1134 C1137 1.403 . S
C1135 C1132 1.403 1_455 S
C1135 C1136 1.524 . S
C1135 C1139 1.383 1_455 S
C1136 H1121 0.960 . S
C1136 H1122 0.960 . S
C1136 H1123 0.960 . S
C1136 C1135 1.524 . S
C1137 C1134 1.403 . S
C1137 C1138 1.392 . S
C1137 C1141 1.495 . S
C1138 C1137 1.392 . S
C1138 C1139 1.409 . S
C1138 C1140 1.478 . S
C1139 H1133 0.923 1_655 S
C1139 C1135 1.383 1_655 S
C1139 C1138 1.409 . S
C1140 C1138 1.478 . S
C1140 C1142 1.381 . S
C1140 C1146 1.383 . S
C1141 C1137 1.495 . S
C1141 H1147 0.959 . S
C1141 H1148 0.961 . S
C1141 H1149 0.960 . S
C1142 C1140 1.381 . S
C1142 C1143 1.394 . S
C1142 H1150 0.930 . S
C1143 C1142 1.394 . S
C1143 C1144 1.383 . S
C1143 H1151 0.929 . S
C1144 C1143 1.383 . S
C1144 C1145 1.377 . S
C1145 H1129 0.930 . S
C1145 C1144 1.377 . S
C1145 C1146 1.379 . S
C1146 H1130 0.931 . S
C1146 C1140 1.383 . S
C1146 C1145 1.379 . S
H1147 C1141 0.959 . S
H1148 C1141 0.961 . S
H1149 C1141 0.960 . S
H1150 C1142 0.930 . S
H1151 C1143 0.929 . S
H1152 C1160 0.929 . S
H1153 C1162 0.930 . S
H1154 C1164 0.930 . S
H1155 C1167 0.929 . S
H1156 C1170 0.930 . S
H1157 C1172 0.960 . S
H1158 C1172 0.960 . S
H1159 C1172 0.960 . S
C1160 H1152 0.929 . S
C1160 C1161 1.377 . S
C1160 C1162 1.384 . S
C1161 C1160 1.377 . S
C1161 C1167 1.390 . S
C1162 H1153 0.930 . S
C1162 C1160 1.384 . S
C1162 C1163 1.372 . S
C1163 C1162 1.372 . S
C1163 C1164 1.400 . S
C1163 C1168 1.490 . S
C1164 H1154 0.930 . S
C1164 C1163 1.400 . S
C1164 C1167 1.386 . S
H1165 C1181 0.930 . S
H1166 C1182 0.931 . S
C1167 H1155 0.929 . S
C1167 C1161 1.390 . S
C1167 C1164 1.386 . S
C1168 C1163 1.490 . S
C1168 C1170 1.395 . S
C1168 C1171 1.403 . S
H1169 C1175 0.930 . S
C1170 H1156 0.930 . S
C1170 C1168 1.395 . S
C1170 C1173 1.403 . S
C1171 C1168 1.403 . S
C1171 C1172 1.524 . S
C1171 C1175 1.400 . S
C1172 H1157 0.960 . S
C1172 H1158 0.960 . S
C1172 H1159 0.960 . S
C1172 C1171 1.524 . S
C1173 C1170 1.403 . S
C1173 C1174 1.392 . S
C1173 C1177 1.495 . S
C1174 C1173 1.392 . S
C1174 C1175 1.385 . S
C1174 C1176 1.478 . S
C1175 H1169 0.930 . S
C1175 C1171 1.400 . S
C1175 C1174 1.385 . S
C1176 C1174 1.478 . S
C1176 C1178 1.381 . S
C1176 C1182 1.383 . S
C1177 C1173 1.495 . S
C1177 H1183 0.959 . S
C1177 H1184 0.961 . S
C1177 H1185 0.960 . S
C1178 C1176 1.381 . S
C1178 C1179 1.394 . S
C1178 H1186 0.930 . S
C1179 C1178 1.394 . S
C1179 C1180 1.383 . S
C1179 H1187 0.929 . S
C1180 C1179 1.383 . S
C1180 C1181 1.377 . S
C1181 H1165 0.930 . S
C1181 C1180 1.377 . S
C1181 C1182 1.379 . S
C1182 H1166 0.931 . S
C1182 C1176 1.383 . S
C1182 C1181 1.379 . S
H1183 C1177 0.959 . S
H1184 C1177 0.961 . S
H1185 C1177 0.960 . S
H1186 C1178 0.930 . S
H1187 C1179 0.929 . S
H1188 C1196 0.929 . S
H1189 C1198 0.930 . S
H1190 C1200 0.930 . S
H1191 C1203 0.929 . S
H1192 C1206 0.930 . S
H1193 C1208 0.960 . S
H1194 C1208 0.960 . S
H1195 C1208 0.960 . S
C1196 H1188 0.929 . S
C1196 C1197 1.377 . S
C1196 C1198 1.384 . S
C1197 C1196 1.377 . S
C1197 C1203 1.390 . S
C1198 H1189 0.930 . S
C1198 C1196 1.384 . S
C1198 C1199 1.372 . S
C1199 C1198 1.372 . S
C1199 C1200 1.400 . S
C1199 C1204 1.490 . S
C1200 H1190 0.930 . S
C1200 C1199 1.400 . S
C1200 C1203 1.386 . S
H1201 C1217 0.930 . S
H1202 C1218 0.931 . S
C1203 H1191 0.929 . S
C1203 C1197 1.390 . S
C1203 C1200 1.386 . S
C1204 C1199 1.490 . S
C1204 C1206 1.395 . S
C1204 C1207 1.403 . S
H1205 C1211 0.930 . S
C1206 H1192 0.930 . S
C1206 C1204 1.395 . S
C1206 C1209 1.403 . S
C1207 C1204 1.403 . S
C1207 C1208 1.524 . S
C1207 C1211 1.400 . S
C1208 H1193 0.960 . S
C1208 H1194 0.960 . S
C1208 H1195 0.960 . S
C1208 C1207 1.524 . S
C1209 C1206 1.403 . S
C1209 C1210 1.392 . S
C1209 C1213 1.495 . S
C1210 C1209 1.392 . S
C1210 C1211 1.385 . S
C1210 C1212 1.478 . S
C1211 H1205 0.930 . S
C1211 C1207 1.400 . S
C1211 C1210 1.385 . S
C1212 C1210 1.478 . S
C1212 C1214 1.381 . S
C1212 C1218 1.383 . S
C1213 C1209 1.495 . S
C1213 H1219 0.959 . S
C1213 H1220 0.961 . S
C1213 H1221 0.960 . S
C1214 C1212 1.381 . S
C1214 C1215 1.394 . S
C1214 H1222 0.930 . S
C1215 C1214 1.394 . S
C1215 C1216 1.383 . S
C1215 H1223 0.929 . S
C1216 C1215 1.383 . S
C1216 C1217 1.377 . S
C1217 H1201 0.930 . S
C1217 C1216 1.377 . S
C1217 C1218 1.379 . S
C1218 H1202 0.931 . S
C1218 C1212 1.383 . S
C1218 C1217 1.379 . S
H1219 C1213 0.959 . S
H1220 C1213 0.961 . S
H1221 C1213 0.960 . S
H1222 C1214 0.930 . S
H1223 C1215 0.929 . S
H1224 C1232 0.929 . S
H1225 C1234 0.930 . S
H1226 C1236 0.930 . S
H1227 C1239 0.929 1_565 S
H1228 C1242 0.930 . S
H1229 C1244 0.960 . S
H1230 C1244 0.960 . S
H1231 C1244 0.960 1_565 S
C1232 H1224 0.929 . S
C1232 C1233 1.377 . S
C1232 C1234 1.384 . S
C1233 C1232 1.377 . S
C1233 C1239 1.390 . S
C1234 H1225 0.930 . S
C1234 C1232 1.384 . S
C1234 C1235 1.372 . S
C1235 C1234 1.372 . S
C1235 C1236 1.400 1_545 S
C1235 C1240 1.490 1_545 S
C1236 H1226 0.930 . S
C1236 C1235 1.400 1_565 S
C1236 C1239 1.386 1_565 S
H1237 C1253 0.930 . S
H1238 C1254 0.931 . S
C1239 H1227 0.929 1_545 S
C1239 C1233 1.390 . S
C1239 C1236 1.386 1_545 S
C1240 C1235 1.490 1_565 S
C1240 C1242 1.395 . S
C1240 C1243 1.403 . S
H1241 C1247 0.930 . S
C1242 H1228 0.930 . S
C1242 C1240 1.395 . S
C1242 C1245 1.403 . S
C1243 C1240 1.403 . S
C1243 C1244 1.524 1_565 S
C1243 C1247 1.400 . S
C1244 H1229 0.960 . S
C1244 H1230 0.960 . S
C1244 H1231 0.960 1_545 S
C1244 C1243 1.524 1_545 S
C1245 C1242 1.403 . S
C1245 C1246 1.392 . S
C1245 C1249 1.495 . S
C1246 C1245 1.392 . S
C1246 C1247 1.385 . S
C1246 C1248 1.478 . S
C1247 H1241 0.930 . S
C1247 C1243 1.400 . S
C1247 C1246 1.385 . S
C1248 C1246 1.478 . S
C1248 C1250 1.381 . S
C1248 C1254 1.383 . S
C1249 C1245 1.495 . S
C1249 H1255 0.959 . S
C1249 H1256 0.961 . S
C1249 H1257 0.960 . S
C1250 C1248 1.381 . S
C1250 C1251 1.394 . S
C1250 H1258 0.930 . S
C1251 C1250 1.394 . S
C1251 C1252 1.383 . S
C1251 H1259 0.929 . S
C1252 C1251 1.383 . S
C1252 C1253 1.377 . S
C1253 H1237 0.930 . S
C1253 C1252 1.377 . S
C1253 C1254 1.379 . S
C1254 H1238 0.931 . S
C1254 C1248 1.383 . S
C1254 C1253 1.379 . S
H1255 C1249 0.959 . S
H1256 C1249 0.961 . S
H1257 C1249 0.960 . S
H1258 C1250 0.930 . S
H1259 C1251 0.929 . S
H1260 C1268 0.929 . S
H1261 C1270 0.930 . S
H1262 C1272 0.930 . S
H1263 C1275 0.929 . S
H1264 C1278 0.930 . S
H1265 C1280 0.960 . S
H1266 C1280 0.960 . S
H1267 C1280 0.960 . S
C1268 H1260 0.929 . S
C1268 C1269 1.377 . S
C1268 C1270 1.384 . S
C1269 C1268 1.377 . S
C1269 C1275 1.390 . S
C1270 H1261 0.930 . S
C1270 C1268 1.384 . S
C1270 C1271 1.372 . S
C1271 C1270 1.372 . S
C1271 C1272 1.400 . S
C1271 C1276 1.490 . S
C1272 H1262 0.930 . S
C1272 C1271 1.400 . S
C1272 C1275 1.386 . S
H1273 C1289 0.930 . S
H1274 C1290 0.931 . S
C1275 H1263 0.929 . S
C1275 C1269 1.390 . S
C1275 C1272 1.386 . S
C1276 C1271 1.490 . S
C1276 C1278 1.395 . S
C1276 C1279 1.403 . S
H1277 C1283 0.930 . S
C1278 H1264 0.930 . S
C1278 C1276 1.395 . S
C1278 C1281 1.403 . S
C1279 C1276 1.403 . S
C1279 C1280 1.524 . S
C1279 C1283 1.400 . S
C1280 H1265 0.960 . S
C1280 H1266 0.960 . S
C1280 H1267 0.960 . S
C1280 C1279 1.524 . S
C1281 C1278 1.403 . S
C1281 C1282 1.392 . S
C1281 C1285 1.495 . S
C1282 C1281 1.392 . S
C1282 C1283 1.385 . S
C1282 C1284 1.478 . S
C1283 H1277 0.930 . S
C1283 C1279 1.400 . S
C1283 C1282 1.385 . S
C1284 C1282 1.478 . S
C1284 C1286 1.381 . S
C1284 C1290 1.383 . S
C1285 C1281 1.495 . S
C1285 H1291 0.959 . S
C1285 H1292 0.961 . S
C1285 H1293 0.960 . S
C1286 C1284 1.381 . S
C1286 C1287 1.394 . S
C1286 H1294 0.930 . S
C1287 C1286 1.394 . S
C1287 C1288 1.383 . S
C1287 H1295 0.929 . S
C1288 C1287 1.383 . S
C1288 C1289 1.377 . S
C1289 H1273 0.930 . S
C1289 C1288 1.377 . S
C1289 C1290 1.379 . S
C1290 H1274 0.931 . S
C1290 C1284 1.383 . S
C1290 C1289 1.379 . S
H1291 C1285 0.959 . S
H1292 C1285 0.961 . S
H1293 C1285 0.960 . S
H1294 C1286 0.930 . S
H1295 C1287 0.929 . S
H1296 C1304 0.929 . S
H1297 C1306 0.930 . S
H1298 C1308 0.930 . S
H1299 C1311 0.929 . S
H1300 C1314 0.930 . S
H1301 C1316 0.960 . S
H1302 C1316 0.960 . S
H1303 C1316 0.960 . S
C1304 H1296 0.929 . S
C1304 C1305 1.377 . S
C1304 C1306 1.384 . S
C1305 C1304 1.377 . S
C1305 C1311 1.390 . S
C1306 H1297 0.930 . S
C1306 C1304 1.384 . S
C1306 C1307 1.372 . S
C1307 C1306 1.372 . S
C1307 C1308 1.400 . S
C1307 C1312 1.490 . S
C1308 H1298 0.930 . S
C1308 C1307 1.400 . S
C1308 C1311 1.386 . S
H1309 C1325 0.930 . S
H1310 C1326 0.931 . S
C1311 H1299 0.929 . S
C1311 C1305 1.390 . S
C1311 C1308 1.386 . S
C1312 C1307 1.490 . S
C1312 C1314 1.395 . S
C1312 C1315 1.403 . S
H1313 C1319 0.930 . S
C1314 H1300 0.930 . S
C1314 C1312 1.395 . S
C1314 C1317 1.403 . S
C1315 C1312 1.403 . S
C1315 C1316 1.524 . S
C1315 C1319 1.400 . S
C1316 H1301 0.960 . S
C1316 H1302 0.960 . S
C1316 H1303 0.960 . S
C1316 C1315 1.524 . S
C1317 C1314 1.403 . S
C1317 C1318 1.392 . S
C1317 C1321 1.495 . S
C1318 C1317 1.392 . S
C1318 C1319 1.385 . S
C1318 C1320 1.478 . S
C1319 H1313 0.930 . S
C1319 C1315 1.400 . S
C1319 C1318 1.385 . S
C1320 C1318 1.478 . S
C1320 C1322 1.381 . S
C1320 C1326 1.383 . S
C1321 C1317 1.495 . S
C1321 H1327 0.959 . S
C1321 H1328 0.961 . S
C1321 H1329 0.960 . S
C1322 C1320 1.381 . S
C1322 C1323 1.394 . S
C1322 H1330 0.930 . S
C1323 C1322 1.394 . S
C1323 C1324 1.383 . S
C1323 H1331 0.929 . S
C1324 C1323 1.383 . S
C1324 C1325 1.377 . S
C1325 H1309 0.930 . S
C1325 C1324 1.377 . S
C1325 C1326 1.379 . S
C1326 H1310 0.931 . S
C1326 C1320 1.383 . S
C1326 C1325 1.379 . S
H1327 C1321 0.959 . S
H1328 C1321 0.961 . S
H1329 C1321 0.960 . S
H1330 C1322 0.930 . S
H1331 C1323 0.929 . S
H1332 C1340 0.929 . S
H1333 C1342 0.930 . S
H1334 C1344 0.930 . S
H1335 C1347 0.929 . S
H1336 C1350 0.930 . S
H1337 C1352 0.960 . S
H1338 C1352 0.960 . S
H1339 C1352 0.960 . S
C1340 H1332 0.929 . S
C1340 C1341 1.377 . S
C1340 C1342 1.384 . S
C1341 C1340 1.377 . S
C1341 C1347 1.390 . S
C1342 H1333 0.930 . S
C1342 C1340 1.384 . S
C1342 C1343 1.372 . S
C1343 C1342 1.372 . S
C1343 C1344 1.400 . S
C1343 C1348 1.490 . S
C1344 H1334 0.930 . S
C1344 C1343 1.400 . S
C1344 C1347 1.386 . S
H1345 C1361 0.930 . S
H1346 C1362 0.931 . S
C1347 H1335 0.929 . S
C1347 C1341 1.390 . S
C1347 C1344 1.386 . S
C1348 C1343 1.490 . S
C1348 C1350 1.395 . S
C1348 C1351 1.403 . S
H1349 C1355 0.930 . S
C1350 H1336 0.930 . S
C1350 C1348 1.395 . S
C1350 C1353 1.403 . S
C1351 C1348 1.403 . S
C1351 C1352 1.524 . S
C1351 C1355 1.400 . S
C1352 H1337 0.960 . S
C1352 H1338 0.960 . S
C1352 H1339 0.960 . S
C1352 C1351 1.524 . S
C1353 C1350 1.403 . S
C1353 C1354 1.392 . S
C1353 C1357 1.495 . S
C1354 C1353 1.392 . S
C1354 C1355 1.385 . S
C1354 C1356 1.478 . S
C1355 H1349 0.930 . S
C1355 C1351 1.400 . S
C1355 C1354 1.385 . S
C1356 C1354 1.478 . S
C1356 C1358 1.381 . S
C1356 C1362 1.383 . S
C1357 C1353 1.495 . S
C1357 H1363 0.959 . S
C1357 H1364 0.961 . S
C1357 H1365 0.960 . S
C1358 C1356 1.381 . S
C1358 C1359 1.394 . S
C1358 H1366 0.930 . S
C1359 C1358 1.394 . S
C1359 C1360 1.383 . S
C1359 H1367 0.929 . S
C1360 C1359 1.383 . S
C1360 C1361 1.377 . S
C1361 H1345 0.930 . S
C1361 C1360 1.377 . S
C1361 C1362 1.379 . S
C1362 H1346 0.931 . S
C1362 C1356 1.383 . S
C1362 C1361 1.379 . S
H1363 C1357 0.959 . S
H1364 C1357 0.961 . S
H1365 C1357 0.960 . S
H1366 C1358 0.930 . S
H1367 C1359 0.929 . S
H1368 C1376 0.929 . S
H1369 C1378 0.930 . S
H1370 C1380 0.930 . S
H1371 C1383 0.929 . S
H1372 C1386 0.930 . S
H1373 C1388 0.960 . S
H1374 C1388 0.960 . S
H1375 C1388 0.960 . S
C1376 H1368 0.929 . S
C1376 C1377 1.377 . S
C1376 C1378 1.384 . S
C1377 C1376 1.377 . S
C1377 C1383 1.390 . S
C1378 H1369 0.930 . S
C1378 C1376 1.384 . S
C1378 C1379 1.372 . S
C1379 C1378 1.372 . S
C1379 C1380 1.400 . S
C1379 C1384 1.490 . S
C1380 H1370 0.930 . S
C1380 C1379 1.400 . S
C1380 C1383 1.386 . S
H1381 C1397 0.930 . S
H1382 C1398 0.931 . S
C1383 H1371 0.929 . S
C1383 C1377 1.390 . S
C1383 C1380 1.386 . S
C1384 C1379 1.490 . S
C1384 C1386 1.395 . S
C1384 C1387 1.403 . S
H1385 C1391 0.930 . S
C1386 H1372 0.930 . S
C1386 C1384 1.395 . S
C1386 C1389 1.403 . S
C1387 C1384 1.403 . S
C1387 C1388 1.524 . S
C1387 C1391 1.400 . S
C1388 H1373 0.960 . S
C1388 H1374 0.960 . S
C1388 H1375 0.960 . S
C1388 C1387 1.524 . S
C1389 C1386 1.403 . S
C1389 C1390 1.392 . S
C1389 C1393 1.495 . S
C1390 C1389 1.392 . S
C1390 C1391 1.385 . S
C1390 C1392 1.478 . S
C1391 H1385 0.930 . S
C1391 C1387 1.400 . S
C1391 C1390 1.385 . S
C1392 C1390 1.478 . S
C1392 C1394 1.381 . S
C1392 C1398 1.383 . S
C1393 C1389 1.495 . S
C1393 H1399 0.959 . S
C1393 H1400 0.961 . S
C1393 H1401 0.960 . S
C1394 C1392 1.381 . S
C1394 C1395 1.394 . S
C1394 H1402 0.930 . S
C1395 C1394 1.394 . S
C1395 C1396 1.383 . S
C1395 H1403 0.929 . S
C1396 C1395 1.383 . S
C1396 C1397 1.377 . S
C1397 H1381 0.930 . S
C1397 C1396 1.377 . S
C1397 C1398 1.379 . S
C1398 H1382 0.931 . S
C1398 C1392 1.383 . S
C1398 C1397 1.379 . S
H1399 C1393 0.959 . S
H1400 C1393 0.961 . S
H1401 C1393 0.960 . S
H1402 C1394 0.930 . S
H1403 C1395 0.929 . S
H1404 C1412 0.943 . S
H1405 C1414 0.930 . S
H1406 C1416 0.930 . S
H1407 C1419 0.929 . S
H1408 C1422 0.930 . S
H1409 C1424 0.960 . S
H1410 C1424 0.960 . S
H1411 C1424 0.960 . S
C1412 H1404 0.943 . S
C1412 C1413 1.364 1_565 S
C1412 C1414 1.384 . S
C1413 C1412 1.364 1_545 S
C1413 C1419 1.390 . S
C1414 H1405 0.930 . S
C1414 C1412 1.384 . S
C1414 C1415 1.372 1_565 S
C1415 C1414 1.372 1_545 S
C1415 C1416 1.400 . S
C1415 C1420 1.490 1_545 S
C1416 H1406 0.930 . S
C1416 C1415 1.400 . S
C1416 C1419 1.386 . S
H1417 C1433 0.930 . S
H1418 C1434 0.903 1_545 S
C1419 H1407 0.929 . S
C1419 C1413 1.390 . S
C1419 C1416 1.386 . S
C1420 C1415 1.490 1_565 S
C1420 C1422 1.395 . S
C1420 C1423 1.404 . S
H1421 C1427 0.930 . S
C1422 H1408 0.930 . S
C1422 C1420 1.395 . S
C1422 C1425 1.403 . S
C1423 C1420 1.404 . S
C1423 C1424 1.523 1_565 S
C1423 C1427 1.400 . S
C1424 H1409 0.960 . S
C1424 H1410 0.960 . S
C1424 H1411 0.960 . S
C1424 C1423 1.523 1_545 S
C1425 C1422 1.403 . S
C1425 C1426 1.392 . S
C1425 C1429 1.495 . S
C1426 C1425 1.392 . S
C1426 C1427 1.385 . S
C1426 C1428 1.478 . S
C1427 H1421 0.930 . S
C1427 C1423 1.400 . S
C1427 C1426 1.385 . S
C1428 C1426 1.478 . S
C1428 C1430 1.381 . S
C1428 C1434 1.383 . S
C1429 C1425 1.495 . S
C1429 H1435 0.959 . S
C1429 H1436 0.961 . S
C1429 H1437 0.960 . S
C1430 C1428 1.381 . S
C1430 C1431 1.394 . S
C1430 H1438 0.930 . S
C1431 C1430 1.394 . S
C1431 C1432 1.383 . S
C1431 H1439 0.929 . S
C1432 C1431 1.383 . S
C1432 C1433 1.377 . S
C1433 H1417 0.930 . S
C1433 C1432 1.377 . S
C1433 C1434 1.379 . S
C1434 H1418 0.903 1_565 S
C1434 C1428 1.383 . S
C1434 C1433 1.379 . S
H1435 C1429 0.959 . S
H1436 C1429 0.961 . S
H1437 C1429 0.960 . S
H1438 C1430 0.930 . S
H1439 C1431 0.929 . S
H1440 C1448 0.929 . S
H1441 C1450 0.930 . S
H1442 C1452 0.930 . S
H1443 C1455 0.929 . S
H1444 C1458 0.930 . S
H1445 C1460 0.960 . S
H1446 C1460 0.960 . S
H1447 C1460 0.960 . S
C1448 H1440 0.929 . S
C1448 C1449 1.377 . S
C1448 C1450 1.384 . S
C1449 C1448 1.377 . S
C1449 C1455 1.390 . S
C1450 H1441 0.930 . S
C1450 C1448 1.384 . S
C1450 C1451 1.372 . S
C1451 C1450 1.372 . S
C1451 C1452 1.400 . S
C1451 C1456 1.490 . S
C1452 H1442 0.930 . S
C1452 C1451 1.400 . S
C1452 C1455 1.386 . S
H1453 C1469 0.930 . S
H1454 C1470 0.931 . S
C1455 H1443 0.929 . S
C1455 C1449 1.390 . S
C1455 C1452 1.386 . S
C1456 C1451 1.490 . S
C1456 C1458 1.395 . S
C1456 C1459 1.403 . S
H1457 C1463 0.930 . S
C1458 H1444 0.930 . S
C1458 C1456 1.395 . S
C1458 C1461 1.403 . S
C1459 C1456 1.403 . S
C1459 C1460 1.524 . S
C1459 C1463 1.400 . S
C1460 H1445 0.960 . S
C1460 H1446 0.960 . S
C1460 H1447 0.960 . S
C1460 C1459 1.524 . S
C1461 C1458 1.403 . S
C1461 C1462 1.392 . S
C1461 C1465 1.495 . S
C1462 C1461 1.392 . S
C1462 C1463 1.385 . S
C1462 C1464 1.478 . S
C1463 H1457 0.930 . S
C1463 C1459 1.400 . S
C1463 C1462 1.385 . S
C1464 C1462 1.478 . S
C1464 C1466 1.381 . S
C1464 C1470 1.383 . S
C1465 C1461 1.495 . S
C1465 H1471 0.959 . S
C1465 H1472 0.961 . S
C1465 H1473 0.960 . S
C1466 C1464 1.381 . S
C1466 C1467 1.394 . S
C1466 H1474 0.930 . S
C1467 C1466 1.394 . S
C1467 C1468 1.383 . S
C1467 H1475 0.929 . S
C1468 C1467 1.383 . S
C1468 C1469 1.377 . S
C1469 H1453 0.930 . S
C1469 C1468 1.377 . S
C1469 C1470 1.379 . S
C1470 H1454 0.931 . S
C1470 C1464 1.383 . S
C1470 C1469 1.379 . S
H1471 C1465 0.959 . S
H1472 C1465 0.961 . S
H1473 C1465 0.960 . S
H1474 C1466 0.930 . S
H1475 C1467 0.929 . S
H1476 C1484 0.894 1_655 S
H1477 C1486 0.930 . S
H1478 C1488 0.930 . S
H1479 C1491 0.929 . S
H1480 C1494 0.930 . S
H1481 C1496 0.960 . S
H1482 C1496 0.960 . S
H1483 C1496 0.960 1_455 S
C1484 H1476 0.894 1_455 S
C1484 C1485 1.414 . S
C1484 C1486 1.385 1_455 S
C1485 C1484 1.414 . S
C1485 C1491 1.390 . S
C1486 H1477 0.930 . S
C1486 C1484 1.385 1_655 S
C1486 C1487 1.372 1_655 S
C1487 C1486 1.372 1_455 S
C1487 C1488 1.400 . S
C1487 C1492 1.490 1_455 S
C1488 H1478 0.930 . S
C1488 C1487 1.400 . S
C1488 C1491 1.386 . S
H1489 C1505 0.930 . S
H1490 C1506 0.899 1_455 S
C1491 H1479 0.929 . S
C1491 C1485 1.390 . S
C1491 C1488 1.386 . S
C1492 C1487 1.490 1_655 S
C1492 C1494 1.395 . S
C1492 C1495 1.403 . S
H1493 C1499 0.930 . S
C1494 H1480 0.930 . S
C1494 C1492 1.395 . S
C1494 C1497 1.403 . S
C1495 C1492 1.403 . S
C1495 C1496 1.524 . S
C1495 C1499 1.400 . S
C1496 H1481 0.960 . S
C1496 H1482 0.960 . S
C1496 H1483 0.960 1_655 S
C1496 C1495 1.524 . S
C1497 C1494 1.403 . S
C1497 C1498 1.392 . S
C1497 C1501 1.495 . S
C1498 C1497 1.392 . S
C1498 C1499 1.385 . S
C1498 C1500 1.478 . S
C1499 H1493 0.930 . S
C1499 C1495 1.400 . S
C1499 C1498 1.385 . S
C1500 C1498 1.478 . S
C1500 C1502 1.381 . S
C1500 C1506 1.383 . S
C1501 C1497 1.495 . S
C1501 H1507 0.959 . S
C1501 H1508 0.961 . S
C1501 H1509 0.960 . S
C1502 C1500 1.381 . S
C1502 C1503 1.394 . S
C1502 H1510 0.930 . S
C1503 C1502 1.394 . S
C1503 C1504 1.383 . S
C1503 H1511 0.929 . S
C1504 C1503 1.383 . S
C1504 C1505 1.377 . S
C1505 H1489 0.930 . S
C1505 C1504 1.377 . S
C1505 C1506 1.379 . S
C1506 H1490 0.899 1_655 S
C1506 C1500 1.383 . S
C1506 C1505 1.379 . S
H1507 C1501 0.959 . S
H1508 C1501 0.961 . S
H1509 C1501 0.960 . S
H1510 C1502 0.930 . S
H1511 C1503 0.929 . S
H1512 C1520 0.929 . S
H1513 C1522 0.930 . S
H1514 C1524 0.930 . S
H1515 C1527 0.929 . S
H1516 C1530 0.930 . S
H1517 C1532 0.960 . S
H1518 C1532 0.960 . S
H1519 C1532 0.960 . S
C1520 H1512 0.929 . S
C1520 C1521 1.377 . S
C1520 C1522 1.384 . S
C1521 C1520 1.377 . S
C1521 C1527 1.390 . S
C1522 H1513 0.930 . S
C1522 C1520 1.384 . S
C1522 C1523 1.372 . S
C1523 C1522 1.372 . S
C1523 C1524 1.400 . S
C1523 C1528 1.490 . S
C1524 H1514 0.930 . S
C1524 C1523 1.400 . S
C1524 C1527 1.386 . S
H1525 C1541 0.930 . S
H1526 C1542 0.931 . S
C1527 H1515 0.929 . S
C1527 C1521 1.390 . S
C1527 C1524 1.386 . S
C1528 C1523 1.490 . S
C1528 C1530 1.395 . S
C1528 C1531 1.403 . S
H1529 C1535 0.930 . S
C1530 H1516 0.930 . S
C1530 C1528 1.395 . S
C1530 C1533 1.403 . S
C1531 C1528 1.403 . S
C1531 C1532 1.524 . S
C1531 C1535 1.400 . S
C1532 H1517 0.960 . S
C1532 H1518 0.960 . S
C1532 H1519 0.960 . S
C1532 C1531 1.524 . S
C1533 C1530 1.403 . S
C1533 C1534 1.392 . S
C1533 C1537 1.495 . S
C1534 C1533 1.392 . S
C1534 C1535 1.385 . S
C1534 C1536 1.478 . S
C1535 H1529 0.930 . S
C1535 C1531 1.400 . S
C1535 C1534 1.385 . S
C1536 C1534 1.478 . S
C1536 C1538 1.381 . S
C1536 C1542 1.383 . S
C1537 C1533 1.495 . S
C1537 H1543 0.959 . S
C1537 H1544 0.961 . S
C1537 H1545 0.960 . S
C1538 C1536 1.381 . S
C1538 C1539 1.394 . S
C1538 H1546 0.930 . S
C1539 C1538 1.394 . S
C1539 C1540 1.383 . S
C1539 H1547 0.929 . S
C1540 C1539 1.383 . S
C1540 C1541 1.377 . S
C1541 H1525 0.930 . S
C1541 C1540 1.377 . S
C1541 C1542 1.379 . S
C1542 H1526 0.931 . S
C1542 C1536 1.383 . S
C1542 C1541 1.379 . S
H1543 C1537 0.959 . S
H1544 C1537 0.961 . S
H1545 C1537 0.960 . S
H1546 C1538 0.930 . S
H1547 C1539 0.929 . S
H1548 C1556 0.929 . S
H1549 C1558 0.930 . S
H1550 C1560 0.930 . S
H1551 C1563 0.929 . S
H1552 C1566 0.930 . S
H1553 C1568 0.960 . S
H1554 C1568 0.960 . S
H1555 C1568 0.960 . S
C1556 H1548 0.929 . S
C1556 C1557 1.377 . S
C1556 C1558 1.384 . S
C1557 C1556 1.377 . S
C1557 C1563 1.390 . S
C1558 H1549 0.930 . S
C1558 C1556 1.384 . S
C1558 C1559 1.372 . S
C1559 C1558 1.372 . S
C1559 C1560 1.400 . S
C1559 C1564 1.490 . S
C1560 H1550 0.930 . S
C1560 C1559 1.400 . S
C1560 C1563 1.386 . S
H1561 C1577 0.930 . S
H1562 C1578 0.931 . S
C1563 H1551 0.929 . S
C1563 C1557 1.390 . S
C1563 C1560 1.386 . S
C1564 C1559 1.490 . S
C1564 C1566 1.395 . S
C1564 C1567 1.403 . S
H1565 C1571 0.930 . S
C1566 H1552 0.930 . S
C1566 C1564 1.395 . S
C1566 C1569 1.403 . S
C1567 C1564 1.403 . S
C1567 C1568 1.524 . S
C1567 C1571 1.400 . S
C1568 H1553 0.960 . S
C1568 H1554 0.960 . S
C1568 H1555 0.960 . S
C1568 C1567 1.524 . S
C1569 C1566 1.403 . S
C1569 C1570 1.392 . S
C1569 C1573 1.495 . S
C1570 C1569 1.392 . S
C1570 C1571 1.385 . S
C1570 C1572 1.478 . S
C1571 H1565 0.930 . S
C1571 C1567 1.400 . S
C1571 C1570 1.385 . S
C1572 C1570 1.478 . S
C1572 C1574 1.381 . S
C1572 C1578 1.383 . S
C1573 C1569 1.495 . S
C1573 H1579 0.959 . S
C1573 H1580 0.961 . S
C1573 H1581 0.960 . S
C1574 C1572 1.381 . S
C1574 C1575 1.394 . S
C1574 H1582 0.930 . S
C1575 C1574 1.394 . S
C1575 C1576 1.383 . S
C1575 H1583 0.929 . S
C1576 C1575 1.383 . S
C1576 C1577 1.377 . S
C1577 H1561 0.930 . S
C1577 C1576 1.377 . S
C1577 C1578 1.379 . S
C1578 H1562 0.931 . S
C1578 C1572 1.383 . S
C1578 C1577 1.379 . S
H1579 C1573 0.959 . S
H1580 C1573 0.961 . S
H1581 C1573 0.960 . S
H1582 C1574 0.930 . S
H1583 C1575 0.929 . S
H1584 C1592 0.929 . S
H1585 C1594 0.930 . S
H1586 C1596 0.930 . S
H1587 C1599 0.929 . S
H1588 C1602 0.930 . S
H1589 C1604 0.960 . S
H1590 C1604 0.960 . S
H1591 C1604 0.960 . S
C1592 H1584 0.929 . S
C1592 C1593 1.377 . S
C1592 C1594 1.384 . S
C1593 C1592 1.377 . S
C1593 C1599 1.390 . S
C1594 H1585 0.930 . S
C1594 C1592 1.384 . S
C1594 C1595 1.372 . S
C1595 C1594 1.372 . S
C1595 C1596 1.400 . S
C1595 C1600 1.490 . S
C1596 H1586 0.930 . S
C1596 C1595 1.400 . S
C1596 C1599 1.386 . S
H1597 C1613 0.930 . S
H1598 C1614 0.931 . S
C1599 H1587 0.929 . S
C1599 C1593 1.390 . S
C1599 C1596 1.386 . S
C1600 C1595 1.490 . S
C1600 C1602 1.395 . S
C1600 C1603 1.403 . S
H1601 C1607 0.930 1_565 S
C1602 H1588 0.930 . S
C1602 C1600 1.395 . S
C1602 C1605 1.403 . S
C1603 C1600 1.403 . S
C1603 C1604 1.524 . S
C1603 C1607 1.400 . S
C1604 H1589 0.960 . S
C1604 H1590 0.960 . S
C1604 H1591 0.960 . S
C1604 C1603 1.524 . S
C1605 C1602 1.403 . S
C1605 C1606 1.392 . S
C1605 C1609 1.495 . S
C1606 C1605 1.392 . S
C1606 C1607 1.385 . S
C1606 C1608 1.518 . S
C1607 H1601 0.930 1_545 S
C1607 C1603 1.400 . S
C1607 C1606 1.385 . S
C1608 C1606 1.518 . S
C1608 C1610 1.334 1_545 S
C1608 C1614 1.389 1_545 S
C1609 C1605 1.495 . S
C1609 H1615 0.959 . S
C1609 H1616 0.961 . S
C1609 H1617 0.960 . S
C1610 C1608 1.334 1_565 S
C1610 C1611 1.394 . S
C1610 H1618 0.929 . S
C1611 C1610 1.394 . S
C1611 C1612 1.383 . S
C1611 H1619 0.929 . S
C1612 C1611 1.383 . S
C1612 C1613 1.377 . S
C1613 H1597 0.930 . S
C1613 C1612 1.377 . S
C1613 C1614 1.379 . S
C1614 H1598 0.931 . S
C1614 C1608 1.389 1_565 S
C1614 C1613 1.379 . S
H1615 C1609 0.959 . S
H1616 C1609 0.961 . S
H1617 C1609 0.960 . S
H1618 C1610 0.929 . S
H1619 C1611 0.929 . S
H1620 C1628 0.929 . S
H1621 C1630 0.880 1_455 S
H1622 C1632 0.930 . S
H1623 C1635 0.929 . S
H1624 C1638 0.930 . S
H1625 C1640 0.960 . S
H1626 C1640 0.960 . S
H1627 C1640 0.960 . S
C1628 H1620 0.929 . S
C1628 C1629 1.377 . S
C1628 C1630 1.416 . S
C1629 C1628 1.377 . S
C1629 C1635 1.390 . S
C1630 H1621 0.880 1_655 S
C1630 C1628 1.416 . S
C1630 C1631 1.390 . S
C1631 C1630 1.390 . S
C1631 C1632 1.400 . S
C1631 C1636 1.490 1_655 S
C1632 H1622 0.930 . S
C1632 C1631 1.400 . S
C1632 C1635 1.386 . S
H1633 C1649 0.930 . S
H1634 C1650 0.931 . S
C1635 H1623 0.929 . S
C1635 C1629 1.390 . S
C1635 C1632 1.386 . S
C1636 C1631 1.490 1_455 S
C1636 C1638 1.395 . S
C1636 C1639 1.403 . S
H1637 C1643 0.930 . S
C1638 H1624 0.930 . S
C1638 C1636 1.395 . S
C1638 C1641 1.403 . S
C1639 C1636 1.403 . S
C1639 C1640 1.524 1_455 S
C1639 C1643 1.400 . S
C1640 H1625 0.960 . S
C1640 H1626 0.960 . S
C1640 H1627 0.960 . S
C1640 C1639 1.524 1_655 S
C1641 C1638 1.403 . S
C1641 C1642 1.392 . S
C1641 C1645 1.495 . S
C1642 C1641 1.392 . S
C1642 C1643 1.385 . S
C1642 C1644 1.478 . S
C1643 H1637 0.930 . S
C1643 C1639 1.400 . S
C1643 C1642 1.385 . S
C1644 C1642 1.478 . S
C1644 C1646 1.381 . S
C1644 C1650 1.383 . S
C1645 C1641 1.495 . S
C1645 H1651 0.959 . S
C1645 H1652 0.961 . S
C1645 H1653 0.960 . S
C1646 C1644 1.381 . S
C1646 C1647 1.394 . S
C1646 H1654 0.930 . S
C1647 C1646 1.394 . S
C1647 C1648 1.383 . S
C1647 H1655 0.929 . S
C1648 C1647 1.383 . S
C1648 C1649 1.377 . S
C1649 H1633 0.930 . S
C1649 C1648 1.377 . S
C1649 C1650 1.379 . S
C1650 H1634 0.931 . S
C1650 C1644 1.383 . S
C1650 C1649 1.379 . S
H1651 C1645 0.959 . S
H1652 C1645 0.961 . S
H1653 C1645 0.960 . S
H1654 C1646 0.930 . S
H1655 C1647 0.929 . S
H1656 C1664 0.929 . S
H1657 C1666 0.930 . S
H1658 C1668 0.930 . S
H1659 C1671 0.929 . S
H1660 C1674 0.930 . S
H1661 C1676 0.960 . S
H1662 C1676 0.960 . S
H1663 C1676 0.960 . S
C1664 H1656 0.929 . S
C1664 C1665 1.377 . S
C1664 C1666 1.384 . S
C1665 C1664 1.377 . S
C1665 C1671 1.390 . S
C1666 H1657 0.930 . S
C1666 C1664 1.384 . S
C1666 C1667 1.372 . S
C1667 C1666 1.372 . S
C1667 C1668 1.400 . S
C1667 C1672 1.490 . S
C1668 H1658 0.930 . S
C1668 C1667 1.400 . S
C1668 C1671 1.386 . S
H1669 C1685 0.930 . S
H1670 C1686 0.931 . S
C1671 H1659 0.929 . S
C1671 C1665 1.390 . S
C1671 C1668 1.386 . S
C1672 C1667 1.490 . S
C1672 C1674 1.395 . S
C1672 C1675 1.403 . S
H1673 C1679 0.930 . S
C1674 H1660 0.930 . S
C1674 C1672 1.395 . S
C1674 C1677 1.403 . S
C1675 C1672 1.403 . S
C1675 C1676 1.524 . S
C1675 C1679 1.400 . S
C1676 H1661 0.960 . S
C1676 H1662 0.960 . S
C1676 H1663 0.960 . S
C1676 C1675 1.524 . S
C1677 C1674 1.403 . S
C1677 C1678 1.392 . S
C1677 C1681 1.495 . S
C1678 C1677 1.392 . S
C1678 C1679 1.385 . S
C1678 C1680 1.478 . S
C1679 H1673 0.930 . S
C1679 C1675 1.400 . S
C1679 C1678 1.385 . S
C1680 C1678 1.478 . S
C1680 C1682 1.381 . S
C1680 C1686 1.383 . S
C1681 C1677 1.495 . S
C1681 H1687 0.959 . S
C1681 H1688 0.961 . S
C1681 H1689 0.960 . S
C1682 C1680 1.381 . S
C1682 C1683 1.394 . S
C1682 H1690 0.930 . S
C1683 C1682 1.394 . S
C1683 C1684 1.383 . S
C1683 H1691 0.929 . S
C1684 C1683 1.383 . S
C1684 C1685 1.377 . S
C1685 H1669 0.930 . S
C1685 C1684 1.377 . S
C1685 C1686 1.379 . S
C1686 H1670 0.931 . S
C1686 C1680 1.383 . S
C1686 C1685 1.379 . S
H1687 C1681 0.959 . S
H1688 C1681 0.961 . S
H1689 C1681 0.960 . S
H1690 C1682 0.930 . S
H1691 C1683 0.929 . S
H1692 C1700 0.929 . S
H1693 C1702 0.930 . S
H1694 C1704 0.930 1_545 S
H1695 C1707 0.929 . S
H1696 C1710 0.930 1_565 S
H1697 C1712 0.960 . S
H1698 C1712 0.960 . S
H1699 C1712 0.960 . S
C1700 H1692 0.929 . S
C1700 C1701 1.377 . S
C1700 C1702 1.384 . S
C1701 C1700 1.377 . S
C1701 C1707 1.390 . S
C1702 H1693 0.930 . S
C1702 C1700 1.384 . S
C1702 C1703 1.372 . S
C1703 C1702 1.372 . S
C1703 C1704 1.400 . S
C1703 C1708 1.490 1_565 S
C1704 H1694 0.930 1_565 S
C1704 C1703 1.400 . S
C1704 C1707 1.386 . S
H1705 C1721 0.930 . S
H1706 C1722 0.931 . S
C1707 H1695 0.929 . S
C1707 C1701 1.390 . S
C1707 C1704 1.386 . S
C1708 C1703 1.490 1_545 S
C1708 C1710 1.395 . S
C1708 C1711 1.403 . S
H1709 C1715 0.930 . S
C1710 H1696 0.930 1_545 S
C1710 C1708 1.395 . S
C1710 C1713 1.403 . S
C1711 C1708 1.403 . S
C1711 C1712 1.524 . S
C1711 C1715 1.400 . S
C1712 H1697 0.960 . S
C1712 H1698 0.960 . S
C1712 H1699 0.960 . S
C1712 C1711 1.524 . S
C1713 C1710 1.403 . S
C1713 C1714 1.392 . S
C1713 C1717 1.495 . S
C1714 C1713 1.392 . S
C1714 C1715 1.385 . S
C1714 C1716 1.478 . S
C1715 H1709 0.930 . S
C1715 C1711 1.400 . S
C1715 C1714 1.385 . S
C1716 C1714 1.478 . S
C1716 C1718 1.381 . S
C1716 C1722 1.383 . S
C1717 C1713 1.495 . S
C1717 H1723 0.959 1_545 S
C1717 H1724 0.961 . S
C1717 H1725 0.960 . S
C1718 C1716 1.381 . S
C1718 C1719 1.394 . S
C1718 H1726 0.930 . S
C1719 C1718 1.394 . S
C1719 C1720 1.383 . S
C1719 H1727 0.929 . S
C1720 C1719 1.383 . S
C1720 C1721 1.377 . S
C1721 H1705 0.930 . S
C1721 C1720 1.377 . S
C1721 C1722 1.379 . S
C1722 H1706 0.931 . S
C1722 C1716 1.383 . S
C1722 C1721 1.379 . S
H1723 C1717 0.959 1_565 S
H1724 C1717 0.961 . S
H1725 C1717 0.960 . S
H1726 C1718 0.930 . S
H1727 C1719 0.929 . S
H1728 C1736 0.929 . S
H1729 C1738 0.930 . S
H1730 C1740 0.930 . S
H1731 C1743 0.929 . S
H1732 C1746 0.930 1_655 S
H1733 C1748 0.960 . S
H1734 C1748 0.960 . S
H1735 C1748 0.960 . S
C1736 H1728 0.929 . S
C1736 C1737 1.377 . S
C1736 C1738 1.384 . S
C1737 C1736 1.377 . S
C1737 C1743 1.390 . S
C1738 H1729 0.930 . S
C1738 C1736 1.384 . S
C1738 C1739 1.372 . S
C1739 C1738 1.372 . S
C1739 C1740 1.400 . S
C1739 C1744 1.490 1_655 S
C1740 H1730 0.930 . S
C1740 C1739 1.400 . S
C1740 C1743 1.386 . S
H1741 C1757 0.930 . S
H1742 C1758 0.931 . S
C1743 H1731 0.929 . S
C1743 C1737 1.390 . S
C1743 C1740 1.386 . S
C1744 C1739 1.490 1_455 S
C1744 C1746 1.395 . S
C1744 C1747 1.403 . S
H1745 C1751 0.930 . S
C1746 H1732 0.930 1_455 S
C1746 C1744 1.395 . S
C1746 C1749 1.403 . S
C1747 C1744 1.403 . S
C1747 C1748 1.524 . S
C1747 C1751 1.400 . S
C1748 H1733 0.960 . S
C1748 H1734 0.960 . S
C1748 H1735 0.960 . S
C1748 C1747 1.524 . S
C1749 C1746 1.403 . S
C1749 C1750 1.392 . S
C1749 C1753 1.495 . S
C1750 C1749 1.392 . S
C1750 C1751 1.385 . S
C1750 C1752 1.478 . S
C1751 H1745 0.930 . S
C1751 C1747 1.400 . S
C1751 C1750 1.385 . S
C1752 C1750 1.478 . S
C1752 C1754 1.381 . S
C1752 C1758 1.383 . S
C1753 C1749 1.495 . S
C1753 H1759 0.959 . S
C1753 H1760 0.961 . S
C1753 H1761 0.960 . S
C1754 C1752 1.381 . S
C1754 C1755 1.394 . S
C1754 H1762 0.930 . S
C1755 C1754 1.394 . S
C1755 C1756 1.383 . S
C1755 H1763 0.929 . S
C1756 C1755 1.383 . S
C1756 C1757 1.377 . S
C1757 H1741 0.930 . S
C1757 C1756 1.377 . S
C1757 C1758 1.379 . S
C1758 H1742 0.931 . S
C1758 C1752 1.383 . S
C1758 C1757 1.379 . S
H1759 C1753 0.959 . S
H1760 C1753 0.961 . S
H1761 C1753 0.960 . S
H1762 C1754 0.930 . S
H1763 C1755 0.929 . S
H1764 C1772 0.929 . S
H1765 C1774 0.930 . S
H1766 C1776 0.930 . S
H1767 C1779 0.929 . S
H1768 C1782 0.930 . S
H1769 C1784 0.960 . S
H1770 C1784 0.958 . S
H1771 C1784 0.960 . S
C1772 H1764 0.929 . S
C1772 C1773 1.377 . S
C1772 C1774 1.384 . S
C1773 C1772 1.377 . S
C1773 C1779 1.390 . S
C1774 H1765 0.930 . S
C1774 C1772 1.384 . S
C1774 C1775 1.372 . S
C1775 C1774 1.372 . S
C1775 C1776 1.400 . S
C1775 C1780 1.490 . S
C1776 H1766 0.930 . S
C1776 C1775 1.400 . S
C1776 C1779 1.386 . S
H1777 C1793 0.930 . S
H1778 C1794 0.931 . S
C1779 H1767 0.929 . S
C1779 C1773 1.390 . S
C1779 C1776 1.386 . S
C1780 C1775 1.490 . S
C1780 C1782 1.395 . S
C1780 C1783 1.403 . S
H1781 C1787 0.930 . S
C1782 H1768 0.930 . S
C1782 C1780 1.395 . S
C1782 C1785 1.403 1_554 S
C1783 C1780 1.403 . S
C1783 C1784 1.524 1_455 S
C1783 C1787 1.400 1_554 S
C1784 H1769 0.960 . S
C1784 H1770 0.958 . S
C1784 H1771 0.960 . S
C1784 C1783 1.524 1_655 S
C1785 C1782 1.403 1_556 S
C1785 C1786 1.392 . S
C1785 C1789 1.495 . S
C1786 C1785 1.392 . S
C1786 C1787 1.385 . S
C1786 C1788 1.478 . S
C1787 H1781 0.930 . S
C1787 C1783 1.400 1_556 S
C1787 C1786 1.385 . S
C1788 C1786 1.478 . S
C1788 C1790 1.381 . S
C1788 C1794 1.383 . S
C1789 C1785 1.495 . S
C1789 H1795 0.959 . S
C1789 H1796 0.961 . S
C1789 H1797 0.960 . S
C1790 C1788 1.381 . S
C1790 C1791 1.394 . S
C1790 H1798 0.930 . S
C1791 C1790 1.394 . S
C1791 C1792 1.383 . S
C1791 H1799 0.929 . S
C1792 C1791 1.383 . S
C1792 C1793 1.377 . S
C1793 H1777 0.930 . S
C1793 C1792 1.377 . S
C1793 C1794 1.379 . S
C1794 H1778 0.931 . S
C1794 C1788 1.383 . S
C1794 C1793 1.379 . S
H1795 C1789 0.959 . S
H1796 C1789 0.961 . S
H1797 C1789 0.960 . S
H1798 C1790 0.930 . S
H1799 C1791 0.929 . S
H1800 C1808 0.929 . S
H1801 C1810 0.930 . S
H1802 C1812 0.930 . S
H1803 C1815 0.929 . S
H1804 C1818 0.930 . S
H1805 C1820 0.960 . S
H1806 C1820 0.960 . S
H1807 C1820 0.960 . S
C1808 H1800 0.929 . S
C1808 C1809 1.377 . S
C1808 C1810 1.384 . S
C1809 C1808 1.377 . S
C1809 C1815 1.390 . S
C1810 H1801 0.930 . S
C1810 C1808 1.384 . S
C1810 C1811 1.372 . S
C1811 C1810 1.372 . S
C1811 C1812 1.400 . S
C1811 C1816 1.490 . S
C1812 H1802 0.930 . S
C1812 C1811 1.400 . S
C1812 C1815 1.386 . S
H1813 C1829 0.930 . S
H1814 C1830 0.931 . S
C1815 H1803 0.929 . S
C1815 C1809 1.390 . S
C1815 C1812 1.386 . S
C1816 C1811 1.490 . S
C1816 C1818 1.395 . S
C1816 C1819 1.403 . S
H1817 C1823 0.930 . S
C1818 H1804 0.930 . S
C1818 C1816 1.395 . S
C1818 C1821 1.403 1_556 S
C1819 C1816 1.403 . S
C1819 C1820 1.524 . S
C1819 C1823 1.400 1_556 S
C1820 H1805 0.960 . S
C1820 H1806 0.960 . S
C1820 H1807 0.960 . S
C1820 C1819 1.524 . S
C1821 C1818 1.403 1_554 S
C1821 C1822 1.392 . S
C1821 C1825 1.495 . S
C1822 C1821 1.392 . S
C1822 C1823 1.385 . S
C1822 C1824 1.478 . S
C1823 H1817 0.930 . S
C1823 C1819 1.400 1_554 S
C1823 C1822 1.385 . S
C1824 C1822 1.478 . S
C1824 C1826 1.381 . S
C1824 C1830 1.383 . S
C1825 C1821 1.495 . S
C1825 H1831 0.959 . S
C1825 H1832 0.961 . S
C1825 H1833 0.960 . S
C1826 C1824 1.381 . S
C1826 C1827 1.394 . S
C1826 H1834 0.930 . S
C1827 C1826 1.394 . S
C1827 C1828 1.383 . S
C1827 H1835 0.929 . S
C1828 C1827 1.383 . S
C1828 C1829 1.377 . S
C1829 H1813 0.930 . S
C1829 C1828 1.377 . S
C1829 C1830 1.379 . S
C1830 H1814 0.931 . S
C1830 C1824 1.383 . S
C1830 C1829 1.379 . S
H1831 C1825 0.959 . S
H1832 C1825 0.961 . S
H1833 C1825 0.960 . S
H1834 C1826 0.930 . S
H1835 C1827 0.929 . S
H1836 C1844 0.929 . S
H1837 C1846 0.930 . S
H1838 C1848 0.930 . S
H1839 C1851 0.929 . S
H1840 C1854 0.930 . S
H1841 C1856 0.960 . S
H1842 C1856 0.960 1_565 S
H1843 C1856 0.960 . S
C1844 H1836 0.929 . S
C1844 C1845 1.377 . S
C1844 C1846 1.384 . S
C1845 C1844 1.377 . S
C1845 C1851 1.390 . S
C1846 H1837 0.930 . S
C1846 C1844 1.384 . S
C1846 C1847 1.372 . S
C1847 C1846 1.372 . S
C1847 C1848 1.400 . S
C1847 C1852 1.490 . S
C1848 H1838 0.930 . S
C1848 C1847 1.400 . S
C1848 C1851 1.386 . S
H1849 C1865 0.930 . S
H1850 C1866 0.931 . S
C1851 H1839 0.929 . S
C1851 C1845 1.390 . S
C1851 C1848 1.386 . S
C1852 C1847 1.490 . S
C1852 C1854 1.395 . S
C1852 C1855 1.403 . S
H1853 C1859 0.930 . S
C1854 H1840 0.930 . S
C1854 C1852 1.395 . S
C1854 C1857 1.403 1_556 S
C1855 C1852 1.403 . S
C1855 C1856 1.524 . S
C1855 C1859 1.400 1_556 S
C1856 H1841 0.960 . S
C1856 H1842 0.960 1_545 S
C1856 H1843 0.960 . S
C1856 C1855 1.524 . S
C1857 C1854 1.403 1_554 S
C1857 C1858 1.392 . S
C1857 C1861 1.495 . S
C1858 C1857 1.392 . S
C1858 C1859 1.385 . S
C1858 C1860 1.478 . S
C1859 H1853 0.930 . S
C1859 C1855 1.400 1_554 S
C1859 C1858 1.385 . S
C1860 C1858 1.478 . S
C1860 C1862 1.381 . S
C1860 C1866 1.383 . S
C1861 C1857 1.495 . S
C1861 H1867 0.959 . S
C1861 H1868 0.961 . S
C1861 H1869 0.960 . S
C1862 C1860 1.381 . S
C1862 C1863 1.394 . S
C1862 H1870 0.930 . S
C1863 C1862 1.394 . S
C1863 C1864 1.383 . S
C1863 H1871 0.929 . S
C1864 C1863 1.383 . S
C1864 C1865 1.377 . S
C1865 H1849 0.930 . S
C1865 C1864 1.377 . S
C1865 C1866 1.379 . S
C1866 H1850 0.931 . S
C1866 C1860 1.383 . S
C1866 C1865 1.379 . S
H1867 C1861 0.959 . S
H1868 C1861 0.961 . S
H1869 C1861 0.960 . S
H1870 C1862 0.930 . S
H1871 C1863 0.929 . S
H1872 C1880 0.929 . S
H1873 C1882 0.930 . S
H1874 C1884 0.930 . S
H1875 C1887 0.929 . S
H1876 C1890 0.930 . S
H1877 C1892 0.960 . S
H1878 C1892 0.960 . S
H1879 C1892 0.960 . S
C1880 H1872 0.929 . S
C1880 C1881 1.377 . S
C1880 C1882 1.384 . S
C1881 C1880 1.377 . S
C1881 C1887 1.390 . S
C1882 H1873 0.930 . S
C1882 C1880 1.384 . S
C1882 C1883 1.372 . S
C1883 C1882 1.372 . S
C1883 C1884 1.400 . S
C1883 C1888 1.490 . S
C1884 H1874 0.930 . S
C1884 C1883 1.400 . S
C1884 C1887 1.386 . S
H1885 C1901 0.930 . S
H1886 C1902 0.931 . S
C1887 H1875 0.929 . S
C1887 C1881 1.390 . S
C1887 C1884 1.386 . S
C1888 C1883 1.490 . S
C1888 C1890 1.395 . S
C1888 C1891 1.403 . S
H1889 C1895 0.930 . S
C1890 H1876 0.930 . S
C1890 C1888 1.395 . S
C1890 C1893 1.403 1_556 S
C1891 C1888 1.403 . S
C1891 C1892 1.524 . S
C1891 C1895 1.400 1_556 S
C1892 H1877 0.960 . S
C1892 H1878 0.960 . S
C1892 H1879 0.960 . S
C1892 C1891 1.524 . S
C1893 C1890 1.403 1_554 S
C1893 C1894 1.392 . S
C1893 C1897 1.495 1_455 S
C1894 C1893 1.392 . S
C1894 C1895 1.385 . S
C1894 C1896 1.478 . S
C1895 H1889 0.930 . S
C1895 C1891 1.400 1_554 S
C1895 C1894 1.385 . S
C1896 C1894 1.478 . S
C1896 C1898 1.381 . S
C1896 C1902 1.383 . S
C1897 C1893 1.495 1_655 S
C1897 H1903 0.959 . S
C1897 H1904 0.961 . S
C1897 H1905 0.960 1_655 S
C1898 C1896 1.381 . S
C1898 C1899 1.394 . S
C1898 H1906 0.930 . S
C1899 C1898 1.394 . S
C1899 C1900 1.383 . S
C1899 H1907 0.929 . S
C1900 C1899 1.383 . S
C1900 C1901 1.377 . S
C1901 H1885 0.930 . S
C1901 C1900 1.377 . S
C1901 C1902 1.379 . S
C1902 H1886 0.931 . S
C1902 C1896 1.383 . S
C1902 C1901 1.379 . S
H1903 C1897 0.959 . S
H1904 C1897 0.961 . S
H1905 C1897 0.960 1_455 S
H1906 C1898 0.930 . S
H1907 C1899 0.929 . S
H1908 C1916 0.929 . S
H1909 C1918 0.930 . S
H1910 C1920 0.930 . S
H1911 C1923 0.929 . S
H1912 C1926 0.930 . S
H1913 C1928 0.960 . S
H1914 C1928 0.960 . S
H1915 C1928 0.960 . S
C1916 H1908 0.929 . S
C1916 C1917 1.377 . S
C1916 C1918 1.384 . S
C1917 C1916 1.377 . S
C1917 C1923 1.390 . S
C1918 H1909 0.930 . S
C1918 C1916 1.384 . S
C1918 C1919 1.372 . S
C1919 C1918 1.372 . S
C1919 C1920 1.400 . S
C1919 C1924 1.490 . S
C1920 H1910 0.930 . S
C1920 C1919 1.400 . S
C1920 C1923 1.386 . S
H1921 C1937 0.930 . S
H1922 C1938 0.931 . S
C1923 H1911 0.929 . S
C1923 C1917 1.390 . S
C1923 C1920 1.386 . S
C1924 C1919 1.490 . S
C1924 C1926 1.395 . S
C1924 C1927 1.403 . S
H1925 C1931 0.930 . S
C1926 H1912 0.930 . S
C1926 C1924 1.395 . S
C1926 C1929 1.403 1_554 S
C1927 C1924 1.403 . S
C1927 C1928 1.524 . S
C1927 C1931 1.400 1_554 S
C1928 H1913 0.960 . S
C1928 H1914 0.960 . S
C1928 H1915 0.960 . S
C1928 C1927 1.524 . S
C1929 C1926 1.403 1_556 S
C1929 C1930 1.392 . S
C1929 C1933 1.495 . S
C1930 C1929 1.392 . S
C1930 C1931 1.385 . S
C1930 C1932 1.478 . S
C1931 H1925 0.930 . S
C1931 C1927 1.400 1_556 S
C1931 C1930 1.385 . S
C1932 C1930 1.478 . S
C1932 C1934 1.381 . S
C1932 C1938 1.383 . S
C1933 C1929 1.495 . S
C1933 H1939 0.959 . S
C1933 H1940 0.961 . S
C1933 H1941 0.960 . S
C1934 C1932 1.381 . S
C1934 C1935 1.394 . S
C1934 H1942 0.930 . S
C1935 C1934 1.394 . S
C1935 C1936 1.383 . S
C1935 H1943 0.929 . S
C1936 C1935 1.383 . S
C1936 C1937 1.377 . S
C1937 H1921 0.930 . S
C1937 C1936 1.377 . S
C1937 C1938 1.379 . S
C1938 H1922 0.931 . S
C1938 C1932 1.383 . S
C1938 C1937 1.379 . S
H1939 C1933 0.959 . S
H1940 C1933 0.961 . S
H1941 C1933 0.960 . S
H1942 C1934 0.930 . S
H1943 C1935 0.929 . S
H1944 C1952 0.929 . S
H1945 C1954 0.930 . S
H1946 C1956 0.930 . S
H1947 C1959 0.929 . S
H1948 C1962 0.930 . S
H1949 C1964 0.960 . S
H1950 C1964 0.960 . S
H1951 C1964 0.960 . S
C1952 H1944 0.929 . S
C1952 C1953 1.377 . S
C1952 C1954 1.384 . S
C1953 C1952 1.377 . S
C1953 C1959 1.390 . S
C1954 H1945 0.930 . S
C1954 C1952 1.384 . S
C1954 C1955 1.372 . S
C1955 C1954 1.372 . S
C1955 C1956 1.400 . S
C1955 C1960 1.490 . S
C1956 H1946 0.930 . S
C1956 C1955 1.400 . S
C1956 C1959 1.386 . S
H1957 C1973 0.930 1_565 S
H1958 C1974 0.931 1_565 S
C1959 H1947 0.929 . S
C1959 C1953 1.390 . S
C1959 C1956 1.386 . S
C1960 C1955 1.490 . S
C1960 C1962 1.395 . S
C1960 C1963 1.403 . S
H1961 C1967 0.930 . S
C1962 H1948 0.930 . S
C1962 C1960 1.395 . S
C1962 C1965 1.403 1_556 S
C1963 C1960 1.403 . S
C1963 C1964 1.524 . S
C1963 C1967 1.400 1_556 S
C1964 H1949 0.960 . S
C1964 H1950 0.960 . S
C1964 H1951 0.960 . S
C1964 C1963 1.524 . S
C1965 C1962 1.403 1_554 S
C1965 C1966 1.392 . S
C1965 C1969 1.495 . S
C1966 C1965 1.392 . S
C1966 C1967 1.385 . S
C1966 C1968 1.478 . S
C1967 H1961 0.930 . S
C1967 C1963 1.400 1_554 S
C1967 C1966 1.385 . S
C1968 C1966 1.478 . S
C1968 C1970 1.381 . S
C1968 C1974 1.383 . S
C1969 C1965 1.495 . S
C1969 H1975 0.959 . S
C1969 H1976 0.961 . S
C1969 H1977 0.960 . S
C1970 C1968 1.381 . S
C1970 C1971 1.394 . S
C1970 H1978 0.930 . S
C1971 C1970 1.394 . S
C1971 C1972 1.383 . S
C1971 H1979 0.929 . S
C1972 C1971 1.383 . S
C1972 C1973 1.377 . S
C1973 H1957 0.930 1_545 S
C1973 C1972 1.377 . S
C1973 C1974 1.379 . S
C1974 H1958 0.931 1_545 S
C1974 C1968 1.383 . S
C1974 C1973 1.379 . S
H1975 C1969 0.959 . S
H1976 C1969 0.961 . S
H1977 C1969 0.960 . S
H1978 C1970 0.930 . S
H1979 C1971 0.929 . S
H1980 C1988 0.929 . S
H1981 C1990 0.930 . S
H1982 C1992 0.930 . S
H1983 C1995 0.929 . S
H1984 C1998 0.930 . S
H1985 C2000 0.960 . S
H1986 C2000 0.960 . S
H1987 C2000 0.960 . S
C1988 H1980 0.929 . S
C1988 C1989 1.377 . S
C1988 C1990 1.384 . S
C1989 C1988 1.377 . S
C1989 C1995 1.390 . S
C1990 H1981 0.930 . S
C1990 C1988 1.384 . S
C1990 C1991 1.372 . S
C1991 C1990 1.372 . S
C1991 C1992 1.400 . S
C1991 C1996 1.490 . S
C1992 H1982 0.930 . S
C1992 C1991 1.400 . S
C1992 C1995 1.386 . S
H1993 C2009 0.930 . S
H1994 C2010 0.931 . S
C1995 H1983 0.929 . S
C1995 C1989 1.390 . S
C1995 C1992 1.386 . S
C1996 C1991 1.490 . S
C1996 C1998 1.395 . S
C1996 C1999 1.403 . S
H1997 C2003 0.930 . S
C1998 H1984 0.930 . S
C1998 C1996 1.395 . S
C1998 C2001 1.403 . S
C1999 C1996 1.403 . S
C1999 C2000 1.524 . S
C1999 C2003 1.400 . S
C2000 H1985 0.960 . S
C2000 H1986 0.960 . S
C2000 H1987 0.960 . S
C2000 C1999 1.524 . S
C2001 C1998 1.403 . S
C2001 C2002 1.392 . S
C2001 C2005 1.495 . S
C2002 C2001 1.392 . S
C2002 C2003 1.385 . S
C2002 C2004 1.478 . S
C2003 H1997 0.930 . S
C2003 C1999 1.400 . S
C2003 C2002 1.385 . S
C2004 C2002 1.478 . S
C2004 C2006 1.381 . S
C2004 C2010 1.383 . S
C2005 C2001 1.495 . S
C2005 H2011 0.959 . S
C2005 H2012 0.961 . S
C2005 H2013 0.960 . S
C2006 C2004 1.381 . S
C2006 C2007 1.394 . S
C2006 H2014 0.930 . S
C2007 C2006 1.394 . S
C2007 C2008 1.383 . S
C2007 H2015 0.929 . S
C2008 C2007 1.383 . S
C2008 C2009 1.377 . S
C2009 H1993 0.930 . S
C2009 C2008 1.377 . S
C2009 C2010 1.379 . S
C2010 H1994 0.931 . S
C2010 C2004 1.383 . S
C2010 C2009 1.379 . S
H2011 C2005 0.959 . S
H2012 C2005 0.961 . S
H2013 C2005 0.960 . S
H2014 C2006 0.930 . S
H2015 C2007 0.929 . S
H2016 C2024 0.929 . S
H2017 C2026 0.930 . S
H2018 C2028 0.930 . S
H2019 C2031 0.929 . S
H2020 C2034 0.930 . S
H2021 C2036 0.960 . S
H2022 C2036 0.960 . S
H2023 C2036 0.960 . S
C2024 H2016 0.929 . S
C2024 C2025 1.377 . S
C2024 C2026 1.384 . S
C2025 C2024 1.377 . S
C2025 C2031 1.390 . S
C2026 H2017 0.930 . S
C2026 C2024 1.384 . S
C2026 C2027 1.372 . S
C2027 C2026 1.372 . S
C2027 C2028 1.400 . S
C2027 C2032 1.490 . S
C2028 H2018 0.930 . S
C2028 C2027 1.400 . S
C2028 C2031 1.386 . S
H2029 C2045 0.930 . S
H2030 C2046 0.931 . S
C2031 H2019 0.929 . S
C2031 C2025 1.390 . S
C2031 C2028 1.386 . S
C2032 C2027 1.490 . S
C2032 C2034 1.395 . S
C2032 C2035 1.403 . S
H2033 C2039 0.930 . S
C2034 H2020 0.930 . S
C2034 C2032 1.395 . S
C2034 C2037 1.403 . S
C2035 C2032 1.403 . S
C2035 C2036 1.524 . S
C2035 C2039 1.400 . S
C2036 H2021 0.960 . S
C2036 H2022 0.960 . S
C2036 H2023 0.960 . S
C2036 C2035 1.524 . S
C2037 C2034 1.403 . S
C2037 C2038 1.392 . S
C2037 C2041 1.495 . S
C2038 C2037 1.392 . S
C2038 C2039 1.385 . S
C2038 C2040 1.478 . S
C2039 H2033 0.930 . S
C2039 C2035 1.400 . S
C2039 C2038 1.385 . S
C2040 C2038 1.478 . S
C2040 C2042 1.381 . S
C2040 C2046 1.383 . S
C2041 C2037 1.495 . S
C2041 H2047 0.959 . S
C2041 H2048 0.961 . S
C2041 H2049 0.960 . S
C2042 C2040 1.381 . S
C2042 C2043 1.394 . S
C2042 H2050 0.930 . S
C2043 C2042 1.394 . S
C2043 C2044 1.383 . S
C2043 H2051 0.929 . S
C2044 C2043 1.383 . S
C2044 C2045 1.377 . S
C2045 H2029 0.930 . S
C2045 C2044 1.377 . S
C2045 C2046 1.379 . S
C2046 H2030 0.931 . S
C2046 C2040 1.383 . S
C2046 C2045 1.379 . S
H2047 C2041 0.959 . S
H2048 C2041 0.961 . S
H2049 C2041 0.960 . S
H2050 C2042 0.930 . S
H2051 C2043 0.929 . S
H2052 C2060 0.929 . S
H2053 C2062 0.930 . S
H2054 C2064 0.930 . S
H2055 C2067 0.929 . S
H2056 C2070 0.930 . S
H2057 C2072 0.960 . S
H2058 C2072 0.960 . S
H2059 C2072 0.960 . S
C2060 H2052 0.929 . S
C2060 C2061 1.377 . S
C2060 C2062 1.384 . S
C2061 C2060 1.377 . S
C2061 C2067 1.390 . S
C2062 H2053 0.930 . S
C2062 C2060 1.384 . S
C2062 C2063 1.372 . S
C2063 C2062 1.372 . S
C2063 C2064 1.400 . S
C2063 C2068 1.490 . S
C2064 H2054 0.930 . S
C2064 C2063 1.400 . S
C2064 C2067 1.386 . S
H2065 C2081 0.930 . S
H2066 C2082 0.931 . S
C2067 H2055 0.929 . S
C2067 C2061 1.390 . S
C2067 C2064 1.386 . S
C2068 C2063 1.490 . S
C2068 C2070 1.395 . S
C2068 C2071 1.403 . S
H2069 C2075 0.930 . S
C2070 H2056 0.930 . S
C2070 C2068 1.395 . S
C2070 C2073 1.403 . S
C2071 C2068 1.403 . S
C2071 C2072 1.524 . S
C2071 C2075 1.400 . S
C2072 H2057 0.960 . S
C2072 H2058 0.960 . S
C2072 H2059 0.960 . S
C2072 C2071 1.524 . S
C2073 C2070 1.403 . S
C2073 C2074 1.392 . S
C2073 C2077 1.495 . S
C2074 C2073 1.392 . S
C2074 C2075 1.385 . S
C2074 C2076 1.478 . S
C2075 H2069 0.930 . S
C2075 C2071 1.400 . S
C2075 C2074 1.385 . S
C2076 C2074 1.478 . S
C2076 C2078 1.381 . S
C2076 C2082 1.383 . S
C2077 C2073 1.495 . S
C2077 H2083 0.959 . S
C2077 H2084 0.961 . S
C2077 H2085 0.960 . S
C2078 C2076 1.381 . S
C2078 C2079 1.394 . S
C2078 H2086 0.930 . S
C2079 C2078 1.394 . S
C2079 C2080 1.383 . S
C2079 H2087 0.929 . S
C2080 C2079 1.383 . S
C2080 C2081 1.377 . S
C2081 H2065 0.930 . S
C2081 C2080 1.377 . S
C2081 C2082 1.379 . S
C2082 H2066 0.931 . S
C2082 C2076 1.383 . S
C2082 C2081 1.379 . S
H2083 C2077 0.959 . S
H2084 C2077 0.961 . S
H2085 C2077 0.960 . S
H2086 C2078 0.930 . S
H2087 C2079 0.929 . S
H2088 C2096 0.929 . S
H2089 C2098 0.930 . S
H2090 C2100 0.930 . S
H2091 C2103 0.929 . S
H2092 C2106 0.930 . S
H2093 C2108 0.960 . S
H2094 C2108 0.960 . S
H2095 C2108 0.960 . S
C2096 H2088 0.929 . S
C2096 C2097 1.377 . S
C2096 C2098 1.384 . S
C2097 C2096 1.377 . S
C2097 C2103 1.390 . S
C2098 H2089 0.930 . S
C2098 C2096 1.384 . S
C2098 C2099 1.372 . S
C2099 C2098 1.372 . S
C2099 C2100 1.400 . S
C2099 C2104 1.490 . S
C2100 H2090 0.930 . S
C2100 C2099 1.400 . S
C2100 C2103 1.386 . S
H2101 C2117 0.930 . S
H2102 C2118 0.931 . S
C2103 H2091 0.929 . S
C2103 C2097 1.390 . S
C2103 C2100 1.386 . S
C2104 C2099 1.490 . S
C2104 C2106 1.395 . S
C2104 C2107 1.403 . S
H2105 C2111 0.930 . S
C2106 H2092 0.930 . S
C2106 C2104 1.395 . S
C2106 C2109 1.403 . S
C2107 C2104 1.403 . S
C2107 C2108 1.524 . S
C2107 C2111 1.400 . S
C2108 H2093 0.960 . S
C2108 H2094 0.960 . S
C2108 H2095 0.960 . S
C2108 C2107 1.524 . S
C2109 C2106 1.403 . S
C2109 C2110 1.392 . S
C2109 C2113 1.495 . S
C2110 C2109 1.392 . S
C2110 C2111 1.385 . S
C2110 C2112 1.478 . S
C2111 H2105 0.930 . S
C2111 C2107 1.400 . S
C2111 C2110 1.385 . S
C2112 C2110 1.478 . S
C2112 C2114 1.381 . S
C2112 C2118 1.383 . S
C2113 C2109 1.495 . S
C2113 H2119 0.959 . S
C2113 H2120 0.961 . S
C2113 H2121 0.960 . S
C2114 C2112 1.381 . S
C2114 C2115 1.394 . S
C2114 H2122 0.930 . S
C2115 C2114 1.394 . S
C2115 C2116 1.383 . S
C2115 H2123 0.929 . S
C2116 C2115 1.383 . S
C2116 C2117 1.377 . S
C2117 H2101 0.930 . S
C2117 C2116 1.377 . S
C2117 C2118 1.379 . S
C2118 H2102 0.931 . S
C2118 C2112 1.383 . S
C2118 C2117 1.379 . S
H2119 C2113 0.959 . S
H2120 C2113 0.961 . S
H2121 C2113 0.960 . S
H2122 C2114 0.930 . S
H2123 C2115 0.929 . S
H2124 C2132 0.929 . S
H2125 C2134 0.930 . S
H2126 C2136 0.930 . S
H2127 C2139 0.929 . S
H2128 C2142 0.930 . S
H2129 C2144 0.960 . S
H2130 C2144 0.960 . S
H2131 C2144 0.960 . S
C2132 H2124 0.929 . S
C2132 C2133 1.377 . S
C2132 C2134 1.384 . S
C2133 C2132 1.377 . S
C2133 C2139 1.390 . S
C2134 H2125 0.930 . S
C2134 C2132 1.384 . S
C2134 C2135 1.372 . S
C2135 C2134 1.372 . S
C2135 C2136 1.400 . S
C2135 C2140 1.490 . S
C2136 H2126 0.930 . S
C2136 C2135 1.400 . S
C2136 C2139 1.386 . S
H2137 C2153 0.930 . S
H2138 C2154 0.931 . S
C2139 H2127 0.929 . S
C2139 C2133 1.390 . S
C2139 C2136 1.386 . S
C2140 C2135 1.490 . S
C2140 C2142 1.395 . S
C2140 C2143 1.403 . S
H2141 C2147 0.930 . S
C2142 H2128 0.930 . S
C2142 C2140 1.395 . S
C2142 C2145 1.403 . S
C2143 C2140 1.403 . S
C2143 C2144 1.524 . S
C2143 C2147 1.400 . S
C2144 H2129 0.960 . S
C2144 H2130 0.960 . S
C2144 H2131 0.960 . S
C2144 C2143 1.524 . S
C2145 C2142 1.403 . S
C2145 C2146 1.392 . S
C2145 C2149 1.495 . S
C2146 C2145 1.392 . S
C2146 C2147 1.385 . S
C2146 C2148 1.478 . S
C2147 H2141 0.930 . S
C2147 C2143 1.400 . S
C2147 C2146 1.385 . S
C2148 C2146 1.478 . S
C2148 C2150 1.381 . S
C2148 C2154 1.383 . S
C2149 C2145 1.495 . S
C2149 H2155 0.959 . S
C2149 H2156 0.961 . S
C2149 H2157 0.960 . S
C2150 C2148 1.381 . S
C2150 C2151 1.394 . S
C2150 H2158 0.930 . S
C2151 C2150 1.394 . S
C2151 C2152 1.383 . S
C2151 H2159 0.929 . S
C2152 C2151 1.383 . S
C2152 C2153 1.377 . S
C2153 H2137 0.930 . S
C2153 C2152 1.377 . S
C2153 C2154 1.379 . S
C2154 H2138 0.931 . S
C2154 C2148 1.383 . S
C2154 C2153 1.379 . S
H2155 C2149 0.959 . S
H2156 C2149 0.961 . S
H2157 C2149 0.960 . S
H2158 C2150 0.930 . S
H2159 C2151 0.929 . S
H2160 C2168 0.929 . S
H2161 C2170 0.930 . S
H2162 C2172 0.930 . S
H2163 C2175 0.929 . S
H2164 C2178 0.930 . S
H2165 C2180 0.960 . S
H2166 C2180 0.960 . S
H2167 C2180 0.960 . S
C2168 H2160 0.929 . S
C2168 C2169 1.377 . S
C2168 C2170 1.384 . S
C2169 C2168 1.377 . S
C2169 C2175 1.390 . S
C2170 H2161 0.930 . S
C2170 C2168 1.384 . S
C2170 C2171 1.372 . S
C2171 C2170 1.372 . S
C2171 C2172 1.400 . S
C2171 C2176 1.490 . S
C2172 H2162 0.930 . S
C2172 C2171 1.400 . S
C2172 C2175 1.386 . S
H2173 C2189 0.930 . S
H2174 C2190 0.931 . S
C2175 H2163 0.929 . S
C2175 C2169 1.390 . S
C2175 C2172 1.386 . S
C2176 C2171 1.490 . S
C2176 C2178 1.395 . S
C2176 C2179 1.403 . S
H2177 C2183 0.930 . S
C2178 H2164 0.930 . S
C2178 C2176 1.395 . S
C2178 C2181 1.403 . S
C2179 C2176 1.403 . S
C2179 C2180 1.524 . S
C2179 C2183 1.400 . S
C2180 H2165 0.960 . S
C2180 H2166 0.960 . S
C2180 H2167 0.960 . S
C2180 C2179 1.524 . S
C2181 C2178 1.403 . S
C2181 C2182 1.392 . S
C2181 C2185 1.495 . S
C2182 C2181 1.392 . S
C2182 C2183 1.385 . S
C2182 C2184 1.478 . S
C2183 H2177 0.930 . S
C2183 C2179 1.400 . S
C2183 C2182 1.385 . S
C2184 C2182 1.478 . S
C2184 C2186 1.381 . S
C2184 C2190 1.383 . S
C2185 C2181 1.495 . S
C2185 H2191 0.959 . S
C2185 H2192 0.961 . S
C2185 H2193 0.960 . S
C2186 C2184 1.381 . S
C2186 C2187 1.394 . S
C2186 H2194 0.930 . S
C2187 C2186 1.394 . S
C2187 C2188 1.383 . S
C2187 H2195 0.929 . S
C2188 C2187 1.383 . S
C2188 C2189 1.377 . S
C2189 H2173 0.930 . S
C2189 C2188 1.377 . S
C2189 C2190 1.379 . S
C2190 H2174 0.931 . S
C2190 C2184 1.383 . S
C2190 C2189 1.379 . S
H2191 C2185 0.959 . S
H2192 C2185 0.961 . S
H2193 C2185 0.960 . S
H2194 C2186 0.930 . S
H2195 C2187 0.929 . S
H2196 C2204 0.929 . S
H2197 C2206 0.930 . S
H2198 C2208 0.930 . S
H2199 C2211 0.929 . S
H2200 C2214 0.930 . S
H2201 C2216 0.960 . S
H2202 C2216 0.960 . S
H2203 C2216 0.960 . S
C2204 H2196 0.929 . S
C2204 C2205 1.377 . S
C2204 C2206 1.384 . S
C2205 C2204 1.377 . S
C2205 C2211 1.390 . S
C2206 H2197 0.930 . S
C2206 C2204 1.384 . S
C2206 C2207 1.372 . S
C2207 C2206 1.372 . S
C2207 C2208 1.400 . S
C2207 C2212 1.490 . S
C2208 H2198 0.930 . S
C2208 C2207 1.400 . S
C2208 C2211 1.386 . S
H2209 C2225 0.930 . S
H2210 C2226 0.931 . S
C2211 H2199 0.929 . S
C2211 C2205 1.390 . S
C2211 C2208 1.386 . S
C2212 C2207 1.490 . S
C2212 C2214 1.395 . S
C2212 C2215 1.403 . S
H2213 C2219 0.930 . S
C2214 H2200 0.930 . S
C2214 C2212 1.395 . S
C2214 C2217 1.403 . S
C2215 C2212 1.403 . S
C2215 C2216 1.524 . S
C2215 C2219 1.400 . S
C2216 H2201 0.960 . S
C2216 H2202 0.960 . S
C2216 H2203 0.960 . S
C2216 C2215 1.524 . S
C2217 C2214 1.403 . S
C2217 C2218 1.392 . S
C2217 C2221 1.495 . S
C2218 C2217 1.392 . S
C2218 C2219 1.385 . S
C2218 C2220 1.478 . S
C2219 H2213 0.930 . S
C2219 C2215 1.400 . S
C2219 C2218 1.385 . S
C2220 C2218 1.478 . S
C2220 C2222 1.381 . S
C2220 C2226 1.383 . S
C2221 C2217 1.495 . S
C2221 H2227 0.959 . S
C2221 H2228 0.961 . S
C2221 H2229 0.960 . S
C2222 C2220 1.381 . S
C2222 C2223 1.394 . S
C2222 H2230 0.930 . S
C2223 C2222 1.394 . S
C2223 C2224 1.383 . S
C2223 H2231 0.929 . S
C2224 C2223 1.383 . S
C2224 C2225 1.377 . S
C2225 H2209 0.930 . S
C2225 C2224 1.377 . S
C2225 C2226 1.379 . S
C2226 H2210 0.931 . S
C2226 C2220 1.383 . S
C2226 C2225 1.379 . S
H2227 C2221 0.959 . S
H2228 C2221 0.961 . S
H2229 C2221 0.960 . S
H2230 C2222 0.930 . S
H2231 C2223 0.929 . S
H2232 C2240 0.929 . S
H2233 C2242 0.930 . S
H2234 C2244 0.930 . S
H2235 C2247 0.929 . S
H2236 C2250 0.930 . S
H2237 C2252 0.960 . S
H2238 C2252 0.960 . S
H2239 C2252 0.960 . S
C2240 H2232 0.929 . S
C2240 C2241 1.377 . S
C2240 C2242 1.384 . S
C2241 C2240 1.377 . S
C2241 C2247 1.390 . S
C2242 H2233 0.930 . S
C2242 C2240 1.384 . S
C2242 C2243 1.372 . S
C2243 C2242 1.372 . S
C2243 C2244 1.400 . S
C2243 C2248 1.490 . S
C2244 H2234 0.930 . S
C2244 C2243 1.400 . S
C2244 C2247 1.386 . S
H2245 C2261 0.930 . S
H2246 C2262 0.931 . S
C2247 H2235 0.929 . S
C2247 C2241 1.390 . S
C2247 C2244 1.386 . S
C2248 C2243 1.490 . S
C2248 C2250 1.395 . S
C2248 C2251 1.403 . S
H2249 C2255 0.930 . S
C2250 H2236 0.930 . S
C2250 C2248 1.395 . S
C2250 C2253 1.403 . S
C2251 C2248 1.403 . S
C2251 C2252 1.524 . S
C2251 C2255 1.400 . S
C2252 H2237 0.960 . S
C2252 H2238 0.960 . S
C2252 H2239 0.960 . S
C2252 C2251 1.524 . S
C2253 C2250 1.403 . S
C2253 C2254 1.392 . S
C2253 C2257 1.495 . S
C2254 C2253 1.392 . S
C2254 C2255 1.385 . S
C2254 C2256 1.478 . S
C2255 H2249 0.930 . S
C2255 C2251 1.400 . S
C2255 C2254 1.385 . S
C2256 C2254 1.478 . S
C2256 C2258 1.381 . S
C2256 C2262 1.383 . S
C2257 C2253 1.495 . S
C2257 H2263 0.959 . S
C2257 H2264 0.961 . S
C2257 H2265 0.960 . S
C2258 C2256 1.381 . S
C2258 C2259 1.394 . S
C2258 H2266 0.930 . S
C2259 C2258 1.394 . S
C2259 C2260 1.383 . S
C2259 H2267 0.929 . S
C2260 C2259 1.383 . S
C2260 C2261 1.377 . S
C2261 H2245 0.930 . S
C2261 C2260 1.377 . S
C2261 C2262 1.379 . S
C2262 H2246 0.931 . S
C2262 C2256 1.383 . S
C2262 C2261 1.379 . S
H2263 C2257 0.959 . S
H2264 C2257 0.961 . S
H2265 C2257 0.960 . S
H2266 C2258 0.930 . S
H2267 C2259 0.929 . S
H2268 C2276 0.929 . S
H2269 C2278 0.930 . S
H2270 C2280 0.930 . S
H2271 C2283 0.929 . S
H2272 C2286 0.930 . S
H2273 C2288 0.960 . S
H2274 C2288 0.960 . S
H2275 C2288 0.960 . S
C2276 H2268 0.929 . S
C2276 C2277 1.377 . S
C2276 C2278 1.384 . S
C2277 C2276 1.377 . S
C2277 C2283 1.390 . S
C2278 H2269 0.930 . S
C2278 C2276 1.384 . S
C2278 C2279 1.372 . S
C2279 C2278 1.372 . S
C2279 C2280 1.400 . S
C2279 C2284 1.490 . S
C2280 H2270 0.930 . S
C2280 C2279 1.400 . S
C2280 C2283 1.386 . S
H2281 C2297 0.930 . S
H2282 C2298 0.931 . S
C2283 H2271 0.929 . S
C2283 C2277 1.390 . S
C2283 C2280 1.386 . S
C2284 C2279 1.490 . S
C2284 C2286 1.395 . S
C2284 C2287 1.403 . S
H2285 C2291 0.930 . S
C2286 H2272 0.930 . S
C2286 C2284 1.395 . S
C2286 C2289 1.403 . S
C2287 C2284 1.403 . S
C2287 C2288 1.524 . S
C2287 C2291 1.400 . S
C2288 H2273 0.960 . S
C2288 H2274 0.960 . S
C2288 H2275 0.960 . S
C2288 C2287 1.524 . S
C2289 C2286 1.403 . S
C2289 C2290 1.392 . S
C2289 C2293 1.495 . S
C2290 C2289 1.392 . S
C2290 C2291 1.385 . S
C2290 C2292 1.478 . S
C2291 H2285 0.930 . S
C2291 C2287 1.400 . S
C2291 C2290 1.385 . S
C2292 C2290 1.478 . S
C2292 C2294 1.381 . S
C2292 C2298 1.383 . S
C2293 C2289 1.495 . S
C2293 H2299 0.959 . S
C2293 H2300 0.961 . S
C2293 H2301 0.960 . S
C2294 C2292 1.381 . S
C2294 C2295 1.394 . S
C2294 H2302 0.930 . S
C2295 C2294 1.394 . S
C2295 C2296 1.383 . S
C2295 H2303 0.929 . S
C2296 C2295 1.383 . S
C2296 C2297 1.377 . S
C2297 H2281 0.930 . S
C2297 C2296 1.377 . S
C2297 C2298 1.379 . S
C2298 H2282 0.931 . S
C2298 C2292 1.383 . S
C2298 C2297 1.379 . S
H2299 C2293 0.959 . S
H2300 C2293 0.961 . S
H2301 C2293 0.960 . S
H2302 C2294 0.930 . S
H2303 C2295 0.929 . S
H2304 C2312 0.929 . S
H2305 C2314 0.930 . S
H2306 C2316 0.930 . S
H2307 C2319 0.929 . S
H2308 C2322 0.930 . S
H2309 C2324 0.960 . S
H2310 C2324 0.960 . S
H2311 C2324 0.960 . S
C2312 H2304 0.929 . S
C2312 C2313 1.377 . S
C2312 C2314 1.384 . S
C2313 C2312 1.377 . S
C2313 C2319 1.390 . S
C2314 H2305 0.930 . S
C2314 C2312 1.384 . S
C2314 C2315 1.372 . S
C2315 C2314 1.372 . S
C2315 C2316 1.400 . S
C2315 C2320 1.490 . S
C2316 H2306 0.930 . S
C2316 C2315 1.400 . S
C2316 C2319 1.386 . S
H2317 C2333 0.930 . S
H2318 C2334 0.931 . S
C2319 H2307 0.929 . S
C2319 C2313 1.390 . S
C2319 C2316 1.386 . S
C2320 C2315 1.490 . S
C2320 C2322 1.395 . S
C2320 C2323 1.403 . S
H2321 C2327 0.930 . S
C2322 H2308 0.930 . S
C2322 C2320 1.395 . S
C2322 C2325 1.403 . S
C2323 C2320 1.403 . S
C2323 C2324 1.524 . S
C2323 C2327 1.400 . S
C2324 H2309 0.960 . S
C2324 H2310 0.960 . S
C2324 H2311 0.960 . S
C2324 C2323 1.524 . S
C2325 C2322 1.403 . S
C2325 C2326 1.392 . S
C2325 C2329 1.495 . S
C2326 C2325 1.392 . S
C2326 C2327 1.385 . S
C2326 C2328 1.478 . S
C2327 H2321 0.930 . S
C2327 C2323 1.400 . S
C2327 C2326 1.385 . S
C2328 C2326 1.478 . S
C2328 C2330 1.381 . S
C2328 C2334 1.383 . S
C2329 C2325 1.495 . S
C2329 H2335 0.959 . S
C2329 H2336 0.961 . S
C2329 H2337 0.960 . S
C2330 C2328 1.381 . S
C2330 C2331 1.394 . S
C2330 H2338 0.930 . S
C2331 C2330 1.394 . S
C2331 C2332 1.383 . S
C2331 H2339 0.929 . S
C2332 C2331 1.383 . S
C2332 C2333 1.377 . S
C2333 H2317 0.930 . S
C2333 C2332 1.377 . S
C2333 C2334 1.379 . S
C2334 H2318 0.931 . S
C2334 C2328 1.383 . S
C2334 C2333 1.379 . S
H2335 C2329 0.959 . S
H2336 C2329 0.961 . S
H2337 C2329 0.960 . S
H2338 C2330 0.930 . S
H2339 C2331 0.929 . S
H2340 C2348 0.929 . S
H2341 C2350 0.930 . S
H2342 C2352 0.930 . S
H2343 C2355 0.929 . S
H2344 C2358 0.930 . S
H2345 C2360 0.960 . S
H2346 C2360 0.960 . S
H2347 C2360 0.960 . S
C2348 H2340 0.929 . S
C2348 C2349 1.377 . S
C2348 C2350 1.384 . S
C2349 C2348 1.377 . S
C2349 C2355 1.390 . S
C2350 H2341 0.930 . S
C2350 C2348 1.384 . S
C2350 C2351 1.372 . S
C2351 C2350 1.372 . S
C2351 C2352 1.400 . S
C2351 C2356 1.490 . S
C2352 H2342 0.930 . S
C2352 C2351 1.400 . S
C2352 C2355 1.386 . S
H2353 C2369 0.930 . S
H2354 C2370 0.931 . S
C2355 H2343 0.929 . S
C2355 C2349 1.390 . S
C2355 C2352 1.386 . S
C2356 C2351 1.490 . S
C2356 C2358 1.395 . S
C2356 C2359 1.403 . S
H2357 C2363 0.930 . S
C2358 H2344 0.930 . S
C2358 C2356 1.395 . S
C2358 C2361 1.403 . S
C2359 C2356 1.403 . S
C2359 C2360 1.524 . S
C2359 C2363 1.400 . S
C2360 H2345 0.960 . S
C2360 H2346 0.960 . S
C2360 H2347 0.960 . S
C2360 C2359 1.524 . S
C2361 C2358 1.403 . S
C2361 C2362 1.392 . S
C2361 C2365 1.495 . S
C2362 C2361 1.392 . S
C2362 C2363 1.385 . S
C2362 C2364 1.478 . S
C2363 H2357 0.930 . S
C2363 C2359 1.400 . S
C2363 C2362 1.385 . S
C2364 C2362 1.478 . S
C2364 C2366 1.381 . S
C2364 C2370 1.383 . S
C2365 C2361 1.495 . S
C2365 H2371 0.959 . S
C2365 H2372 0.961 . S
C2365 H2373 0.960 . S
C2366 C2364 1.381 . S
C2366 C2367 1.394 . S
C2366 H2374 0.930 . S
C2367 C2366 1.394 . S
C2367 C2368 1.383 . S
C2367 H2375 0.929 . S
C2368 C2367 1.383 . S
C2368 C2369 1.377 . S
C2369 H2353 0.930 . S
C2369 C2368 1.377 . S
C2369 C2370 1.379 . S
C2370 H2354 0.931 . S
C2370 C2364 1.383 . S
C2370 C2369 1.379 . S
H2371 C2365 0.959 . S
H2372 C2365 0.961 . S
H2373 C2365 0.960 . S
H2374 C2366 0.930 . S
H2375 C2367 0.929 . S
H2376 C2384 0.929 . S
H2377 C2386 0.930 . S
H2378 C2388 0.930 . S
H2379 C2391 0.929 . S
H2380 C2394 0.930 . S
H2381 C2396 0.960 . S
H2382 C2396 0.960 . S
H2383 C2396 0.960 . S
C2384 H2376 0.929 . S
C2384 C2385 1.377 . S
C2384 C2386 1.384 . S
C2385 C2384 1.377 . S
C2385 C2391 1.390 . S
C2386 H2377 0.930 . S
C2386 C2384 1.384 . S
C2386 C2387 1.372 . S
C2387 C2386 1.372 . S
C2387 C2388 1.400 . S
C2387 C2392 1.490 . S
C2388 H2378 0.930 . S
C2388 C2387 1.400 . S
C2388 C2391 1.386 . S
H2389 C2405 0.930 . S
H2390 C2406 0.931 . S
C2391 H2379 0.929 . S
C2391 C2385 1.390 . S
C2391 C2388 1.386 . S
C2392 C2387 1.490 . S
C2392 C2394 1.395 . S
C2392 C2395 1.403 . S
H2393 C2399 0.930 . S
C2394 H2380 0.930 . S
C2394 C2392 1.395 . S
C2394 C2397 1.403 . S
C2395 C2392 1.403 . S
C2395 C2396 1.524 . S
C2395 C2399 1.400 . S
C2396 H2381 0.960 . S
C2396 H2382 0.960 . S
C2396 H2383 0.960 . S
C2396 C2395 1.524 . S
C2397 C2394 1.403 . S
C2397 C2398 1.392 . S
C2397 C2401 1.495 . S
C2398 C2397 1.392 . S
C2398 C2399 1.385 . S
C2398 C2400 1.478 . S
C2399 H2393 0.930 . S
C2399 C2395 1.400 . S
C2399 C2398 1.385 . S
C2400 C2398 1.478 . S
C2400 C2402 1.381 . S
C2400 C2406 1.383 . S
C2401 C2397 1.495 . S
C2401 H2407 0.959 . S
C2401 H2408 0.961 . S
C2401 H2409 0.960 . S
C2402 C2400 1.381 . S
C2402 C2403 1.394 . S
C2402 H2410 0.930 . S
C2403 C2402 1.394 . S
C2403 C2404 1.383 . S
C2403 H2411 0.929 . S
C2404 C2403 1.383 . S
C2404 C2405 1.377 . S
C2405 H2389 0.930 . S
C2405 C2404 1.377 . S
C2405 C2406 1.379 . S
C2406 H2390 0.931 . S
C2406 C2400 1.383 . S
C2406 C2405 1.379 . S
H2407 C2401 0.959 . S
H2408 C2401 0.961 . S
H2409 C2401 0.960 . S
H2410 C2402 0.930 . S
H2411 C2403 0.929 . S
H2412 C2420 0.929 . S
H2413 C2422 0.930 . S
H2414 C2424 0.930 . S
H2415 C2427 0.929 . S
H2416 C2430 0.930 . S
H2417 C2432 0.960 . S
H2418 C2432 0.960 . S
H2419 C2432 0.960 . S
C2420 H2412 0.929 . S
C2420 C2421 1.377 . S
C2420 C2422 1.384 . S
C2421 C2420 1.377 . S
C2421 C2427 1.390 . S
C2422 H2413 0.930 . S
C2422 C2420 1.384 . S
C2422 C2423 1.372 . S
C2423 C2422 1.372 . S
C2423 C2424 1.400 . S
C2423 C2428 1.490 . S
C2424 H2414 0.930 . S
C2424 C2423 1.400 . S
C2424 C2427 1.386 . S
H2425 C2441 0.930 . S
H2426 C2442 0.931 . S
C2427 H2415 0.929 . S
C2427 C2421 1.390 . S
C2427 C2424 1.386 . S
C2428 C2423 1.490 . S
C2428 C2430 1.395 . S
C2428 C2431 1.403 . S
H2429 C2435 0.930 . S
C2430 H2416 0.930 . S
C2430 C2428 1.395 . S
C2430 C2433 1.403 . S
C2431 C2428 1.403 . S
C2431 C2432 1.524 . S
C2431 C2435 1.400 . S
C2432 H2417 0.960 . S
C2432 H2418 0.960 . S
C2432 H2419 0.960 . S
C2432 C2431 1.524 . S
C2433 C2430 1.403 . S
C2433 C2434 1.392 . S
C2433 C2437 1.495 . S
C2434 C2433 1.392 . S
C2434 C2435 1.385 . S
C2434 C2436 1.478 . S
C2435 H2429 0.930 . S
C2435 C2431 1.400 . S
C2435 C2434 1.385 . S
C2436 C2434 1.478 . S
C2436 C2438 1.381 . S
C2436 C2442 1.383 . S
C2437 C2433 1.495 . S
C2437 H2443 0.959 . S
C2437 H2444 0.961 . S
C2437 H2445 0.960 . S
C2438 C2436 1.381 . S
C2438 C2439 1.394 . S
C2438 H2446 0.930 . S
C2439 C2438 1.394 . S
C2439 C2440 1.383 . S
C2439 H2447 0.929 . S
C2440 C2439 1.383 . S
C2440 C2441 1.377 . S
C2441 H2425 0.930 . S
C2441 C2440 1.377 . S
C2441 C2442 1.379 . S
C2442 H2426 0.931 . S
C2442 C2436 1.383 . S
C2442 C2441 1.379 . S
H2443 C2437 0.959 . S
H2444 C2437 0.961 . S
H2445 C2437 0.960 . S
H2446 C2438 0.930 . S
H2447 C2439 0.929 . S
H2448 C2456 0.929 . S
H2449 C2458 0.930 . S
H2450 C2460 0.930 . S
H2451 C2463 0.929 . S
H2452 C2466 0.930 . S
H2453 C2468 0.960 . S
H2454 C2468 0.960 . S
H2455 C2468 0.960 . S
C2456 H2448 0.929 . S
C2456 C2457 1.377 . S
C2456 C2458 1.384 . S
C2457 C2456 1.377 . S
C2457 C2463 1.390 . S
C2458 H2449 0.930 . S
C2458 C2456 1.384 . S
C2458 C2459 1.372 . S
C2459 C2458 1.372 . S
C2459 C2460 1.400 . S
C2459 C2464 1.490 . S
C2460 H2450 0.930 . S
C2460 C2459 1.400 . S
C2460 C2463 1.386 . S
H2461 C2477 0.930 . S
H2462 C2478 0.931 . S
C2463 H2451 0.929 . S
C2463 C2457 1.390 . S
C2463 C2460 1.386 . S
C2464 C2459 1.490 . S
C2464 C2466 1.395 . S
C2464 C2467 1.403 . S
H2465 C2471 0.930 . S
C2466 H2452 0.930 . S
C2466 C2464 1.395 . S
C2466 C2469 1.403 . S
C2467 C2464 1.403 . S
C2467 C2468 1.524 . S
C2467 C2471 1.400 . S
C2468 H2453 0.960 . S
C2468 H2454 0.960 . S
C2468 H2455 0.960 . S
C2468 C2467 1.524 . S
C2469 C2466 1.403 . S
C2469 C2470 1.392 . S
C2469 C2473 1.495 . S
C2470 C2469 1.392 . S
C2470 C2471 1.385 . S
C2470 C2472 1.478 . S
C2471 H2465 0.930 . S
C2471 C2467 1.400 . S
C2471 C2470 1.385 . S
C2472 C2470 1.478 . S
C2472 C2474 1.381 . S
C2472 C2478 1.383 . S
C2473 C2469 1.495 . S
C2473 H2479 0.959 . S
C2473 H2480 0.961 . S
C2473 H2481 0.960 . S
C2474 C2472 1.381 . S
C2474 C2475 1.394 . S
C2474 H2482 0.930 . S
C2475 C2474 1.394 . S
C2475 C2476 1.383 . S
C2475 H2483 0.929 . S
C2476 C2475 1.383 . S
C2476 C2477 1.377 . S
C2477 H2461 0.930 . S
C2477 C2476 1.377 . S
C2477 C2478 1.379 . S
C2478 H2462 0.931 . S
C2478 C2472 1.383 . S
C2478 C2477 1.379 . S
H2479 C2473 0.959 . S
H2480 C2473 0.961 . S
H2481 C2473 0.960 . S
H2482 C2474 0.930 . S
H2483 C2475 0.929 . S
H2484 C2492 0.929 . S
H2485 C2494 0.930 . S
H2486 C2496 0.930 . S
H2487 C2499 0.929 . S
H2488 C2502 0.930 . S
H2489 C2504 0.960 . S
H2490 C2504 0.960 . S
H2491 C2504 0.960 . S
C2492 H2484 0.929 . S
C2492 C2493 1.377 . S
C2492 C2494 1.384 . S
C2493 C2492 1.377 . S
C2493 C2499 1.390 . S
C2494 H2485 0.930 . S
C2494 C2492 1.384 . S
C2494 C2495 1.372 . S
C2495 C2494 1.372 . S
C2495 C2496 1.400 . S
C2495 C2500 1.490 . S
C2496 H2486 0.930 . S
C2496 C2495 1.400 . S
C2496 C2499 1.386 . S
H2497 C2513 0.930 . S
H2498 C2514 0.931 . S
C2499 H2487 0.929 . S
C2499 C2493 1.390 . S
C2499 C2496 1.386 . S
C2500 C2495 1.490 . S
C2500 C2502 1.395 . S
C2500 C2503 1.403 . S
H2501 C2507 0.930 . S
C2502 H2488 0.930 . S
C2502 C2500 1.395 . S
C2502 C2505 1.403 . S
C2503 C2500 1.403 . S
C2503 C2504 1.524 . S
C2503 C2507 1.400 . S
C2504 H2489 0.960 . S
C2504 H2490 0.960 . S
C2504 H2491 0.960 . S
C2504 C2503 1.524 . S
C2505 C2502 1.403 . S
C2505 C2506 1.392 . S
C2505 C2509 1.495 . S
C2506 C2505 1.392 . S
C2506 C2507 1.385 . S
C2506 C2508 1.478 . S
C2507 H2501 0.930 . S
C2507 C2503 1.400 . S
C2507 C2506 1.385 . S
C2508 C2506 1.478 . S
C2508 C2510 1.381 . S
C2508 C2514 1.383 . S
C2509 C2505 1.495 . S
C2509 H2515 0.959 . S
C2509 H2516 0.961 . S
C2509 H2517 0.960 . S
C2510 C2508 1.381 . S
C2510 C2511 1.394 . S
C2510 H2518 0.930 . S
C2511 C2510 1.394 . S
C2511 C2512 1.383 . S
C2511 H2519 0.929 . S
C2512 C2511 1.383 . S
C2512 C2513 1.377 . S
C2513 H2497 0.930 . S
C2513 C2512 1.377 . S
C2513 C2514 1.379 . S
C2514 H2498 0.931 . S
C2514 C2508 1.383 . S
C2514 C2513 1.379 . S
H2515 C2509 0.959 . S
H2516 C2509 0.961 . S
H2517 C2509 0.960 . S
H2518 C2510 0.930 . S
H2519 C2511 0.929 . S
H2520 C2528 0.929 . S
H2521 C2530 0.930 . S
H2522 C2532 0.930 . S
H2523 C2535 0.929 . S
H2524 C2538 0.930 . S
H2525 C2540 0.960 . S
H2526 C2540 0.960 . S
H2527 C2540 0.960 . S
C2528 H2520 0.929 . S
C2528 C2529 1.377 . S
C2528 C2530 1.384 . S
C2529 C2528 1.377 . S
C2529 C2535 1.390 . S
C2530 H2521 0.930 . S
C2530 C2528 1.384 . S
C2530 C2531 1.372 . S
C2531 C2530 1.372 . S
C2531 C2532 1.400 . S
C2531 C2536 1.490 . S
C2532 H2522 0.930 . S
C2532 C2531 1.400 . S
C2532 C2535 1.386 . S
H2533 C2549 0.930 . S
H2534 C2550 0.931 . S
C2535 H2523 0.929 . S
C2535 C2529 1.390 . S
C2535 C2532 1.386 . S
C2536 C2531 1.490 . S
C2536 C2538 1.395 . S
C2536 C2539 1.403 . S
H2537 C2543 0.930 . S
C2538 H2524 0.930 . S
C2538 C2536 1.395 . S
C2538 C2541 1.403 . S
C2539 C2536 1.403 . S
C2539 C2540 1.524 . S
C2539 C2543 1.400 . S
C2540 H2525 0.960 . S
C2540 H2526 0.960 . S
C2540 H2527 0.960 . S
C2540 C2539 1.524 . S
C2541 C2538 1.403 . S
C2541 C2542 1.392 . S
C2541 C2545 1.495 . S
C2542 C2541 1.392 . S
C2542 C2543 1.385 . S
C2542 C2544 1.478 . S
C2543 H2537 0.930 . S
C2543 C2539 1.400 . S
C2543 C2542 1.385 . S
C2544 C2542 1.478 . S
C2544 C2546 1.381 . S
C2544 C2550 1.383 . S
C2545 C2541 1.495 . S
C2545 H2551 0.959 . S
C2545 H2552 0.961 . S
C2545 H2553 0.960 . S
C2546 C2544 1.381 . S
C2546 C2547 1.394 . S
C2546 H2554 0.930 . S
C2547 C2546 1.394 . S
C2547 C2548 1.383 . S
C2547 H2555 0.929 . S
C2548 C2547 1.383 . S
C2548 C2549 1.377 . S
C2549 H2533 0.930 . S
C2549 C2548 1.377 . S
C2549 C2550 1.379 . S
C2550 H2534 0.931 . S
C2550 C2544 1.383 . S
C2550 C2549 1.379 . S
H2551 C2545 0.959 . S
H2552 C2545 0.961 . S
H2553 C2545 0.960 . S
H2554 C2546 0.930 . S
H2555 C2547 0.929 . S
H2556 C2564 0.929 . S
H2557 C2566 0.930 . S
H2558 C2568 0.930 . S
H2559 C2571 0.929 . S
H2560 C2574 0.930 . S
H2561 C2576 0.960 . S
H2562 C2576 0.960 . S
H2563 C2576 0.960 . S
C2564 H2556 0.929 . S
C2564 C2565 1.377 . S
C2564 C2566 1.384 . S
C2565 C2564 1.377 . S
C2565 C2571 1.390 . S
C2566 H2557 0.930 . S
C2566 C2564 1.384 . S
C2566 C2567 1.372 . S
C2567 C2566 1.372 . S
C2567 C2568 1.400 . S
C2567 C2572 1.490 . S
C2568 H2558 0.930 . S
C2568 C2567 1.400 . S
C2568 C2571 1.386 . S
H2569 C2585 0.930 . S
H2570 C2586 0.931 . S
C2571 H2559 0.929 . S
C2571 C2565 1.390 . S
C2571 C2568 1.386 . S
C2572 C2567 1.490 . S
C2572 C2574 1.395 . S
C2572 C2575 1.403 . S
H2573 C2579 0.930 . S
C2574 H2560 0.930 . S
C2574 C2572 1.395 . S
C2574 C2577 1.403 . S
C2575 C2572 1.403 . S
C2575 C2576 1.524 . S
C2575 C2579 1.400 . S
C2576 H2561 0.960 . S
C2576 H2562 0.960 . S
C2576 H2563 0.960 . S
C2576 C2575 1.524 . S
C2577 C2574 1.403 . S
C2577 C2578 1.392 . S
C2577 C2581 1.495 . S
C2578 C2577 1.392 . S
C2578 C2579 1.385 . S
C2578 C2580 1.478 . S
C2579 H2573 0.930 . S
C2579 C2575 1.400 . S
C2579 C2578 1.385 . S
C2580 C2578 1.478 . S
C2580 C2582 1.381 . S
C2580 C2586 1.383 . S
C2581 C2577 1.495 . S
C2581 H2587 0.959 . S
C2581 H2588 0.961 . S
C2581 H2589 0.960 . S
C2582 C2580 1.381 . S
C2582 C2583 1.394 . S
C2582 H2590 0.930 . S
C2583 C2582 1.394 . S
C2583 C2584 1.383 . S
C2583 H2591 0.929 . S
C2584 C2583 1.383 . S
C2584 C2585 1.377 . S
C2585 H2569 0.930 . S
C2585 C2584 1.377 . S
C2585 C2586 1.379 . S
C2586 H2570 0.931 . S
C2586 C2580 1.383 . S
C2586 C2585 1.379 . S
H2587 C2581 0.959 . S
H2588 C2581 0.961 . S
H2589 C2581 0.960 . S
H2590 C2582 0.930 . S
H2591 C2583 0.929 . S
H2592 C2600 0.929 . S
H2593 C2602 0.930 . S
H2594 C2604 0.930 . S
H2595 C2607 0.929 . S
H2596 C2610 0.930 . S
H2597 C2612 0.960 . S
H2598 C2612 0.960 . S
H2599 C2612 0.960 . S
C2600 H2592 0.929 . S
C2600 C2601 1.377 . S
C2600 C2602 1.384 . S
C2601 C2600 1.377 . S
C2601 C2607 1.390 . S
C2602 H2593 0.930 . S
C2602 C2600 1.384 . S
C2602 C2603 1.372 . S
C2603 C2602 1.372 . S
C2603 C2604 1.400 . S
C2603 C2608 1.490 . S
C2604 H2594 0.930 . S
C2604 C2603 1.400 . S
C2604 C2607 1.386 . S
H2605 C2621 0.930 . S
H2606 C2622 0.931 . S
C2607 H2595 0.929 . S
C2607 C2601 1.390 . S
C2607 C2604 1.386 . S
C2608 C2603 1.490 . S
C2608 C2610 1.395 . S
C2608 C2611 1.403 . S
H2609 C2615 0.930 . S
C2610 H2596 0.930 . S
C2610 C2608 1.395 . S
C2610 C2613 1.403 . S
C2611 C2608 1.403 . S
C2611 C2612 1.524 . S
C2611 C2615 1.400 . S
C2612 H2597 0.960 . S
C2612 H2598 0.960 . S
C2612 H2599 0.960 . S
C2612 C2611 1.524 . S
C2613 C2610 1.403 . S
C2613 C2614 1.392 . S
C2613 C2617 1.495 . S
C2614 C2613 1.392 . S
C2614 C2615 1.385 . S
C2614 C2616 1.478 . S
C2615 H2609 0.930 . S
C2615 C2611 1.400 . S
C2615 C2614 1.385 . S
C2616 C2614 1.478 . S
C2616 C2618 1.381 . S
C2616 C2622 1.383 . S
C2617 C2613 1.495 . S
C2617 H2623 0.959 . S
C2617 H2624 0.961 . S
C2617 H2625 0.960 . S
C2618 C2616 1.381 . S
C2618 C2619 1.394 . S
C2618 H2626 0.930 . S
C2619 C2618 1.394 . S
C2619 C2620 1.383 . S
C2619 H2627 0.929 . S
C2620 C2619 1.383 . S
C2620 C2621 1.377 . S
C2621 H2605 0.930 . S
C2621 C2620 1.377 . S
C2621 C2622 1.379 . S
C2622 H2606 0.931 . S
C2622 C2616 1.383 . S
C2622 C2621 1.379 . S
H2623 C2617 0.959 . S
H2624 C2617 0.961 . S
H2625 C2617 0.960 . S
H2626 C2618 0.930 . S
H2627 C2619 0.929 . S
H2628 C2636 0.929 . S
H2629 C2638 0.930 . S
H2630 C2640 0.930 . S
H2631 C2643 0.929 . S
H2632 C2646 0.930 . S
H2633 C2648 0.960 . S
H2634 C2648 0.960 . S
H2635 C2648 0.960 . S
C2636 H2628 0.929 . S
C2636 C2637 1.377 . S
C2636 C2638 1.384 . S
C2637 C2636 1.377 . S
C2637 C2643 1.390 . S
C2638 H2629 0.930 . S
C2638 C2636 1.384 . S
C2638 C2639 1.372 . S
C2639 C2638 1.372 . S
C2639 C2640 1.400 . S
C2639 C2644 1.490 . S
C2640 H2630 0.930 . S
C2640 C2639 1.400 . S
C2640 C2643 1.386 . S
H2641 C2657 0.930 . S
H2642 C2658 0.931 . S
C2643 H2631 0.929 . S
C2643 C2637 1.390 . S
C2643 C2640 1.386 . S
C2644 C2639 1.490 . S
C2644 C2646 1.395 . S
C2644 C2647 1.403 . S
H2645 C2651 0.930 . S
C2646 H2632 0.930 . S
C2646 C2644 1.395 . S
C2646 C2649 1.403 . S
C2647 C2644 1.403 . S
C2647 C2648 1.524 . S
C2647 C2651 1.400 . S
C2648 H2633 0.960 . S
C2648 H2634 0.960 . S
C2648 H2635 0.960 . S
C2648 C2647 1.524 . S
C2649 C2646 1.403 . S
C2649 C2650 1.392 . S
C2649 C2653 1.495 . S
C2650 C2649 1.392 . S
C2650 C2651 1.385 . S
C2650 C2652 1.478 . S
C2651 H2645 0.930 . S
C2651 C2647 1.400 . S
C2651 C2650 1.385 . S
C2652 C2650 1.478 . S
C2652 C2654 1.381 . S
C2652 C2658 1.383 . S
C2653 C2649 1.495 . S
C2653 H2659 0.959 . S
C2653 H2660 0.961 . S
C2653 H2661 0.960 . S
C2654 C2652 1.381 . S
C2654 C2655 1.394 . S
C2654 H2662 0.930 . S
C2655 C2654 1.394 . S
C2655 C2656 1.383 . S
C2655 H2663 0.929 . S
C2656 C2655 1.383 . S
C2656 C2657 1.377 . S
C2657 H2641 0.930 . S
C2657 C2656 1.377 . S
C2657 C2658 1.379 . S
C2658 H2642 0.931 . S
C2658 C2652 1.383 . S
C2658 C2657 1.379 . S
H2659 C2653 0.959 . S
H2660 C2653 0.961 . S
H2661 C2653 0.960 . S
H2662 C2654 0.930 . S
H2663 C2655 0.929 . S
H2664 C2672 0.929 . S
H2665 C2674 0.930 . S
H2666 C2676 0.930 . S
H2667 C2679 0.929 . S
H2668 C2682 0.930 . S
H2669 C2684 0.960 . S
H2670 C2684 0.960 . S
H2671 C2684 0.960 . S
C2672 H2664 0.929 . S
C2672 C2673 1.377 . S
C2672 C2674 1.384 . S
C2673 C2672 1.377 . S
C2673 C2679 1.390 . S
C2674 H2665 0.930 . S
C2674 C2672 1.384 . S
C2674 C2675 1.372 . S
C2675 C2674 1.372 . S
C2675 C2676 1.400 . S
C2675 C2680 1.490 . S
C2676 H2666 0.930 . S
C2676 C2675 1.400 . S
C2676 C2679 1.386 . S
H2677 C2693 0.930 . S
H2678 C2694 0.931 . S
C2679 H2667 0.929 . S
C2679 C2673 1.390 . S
C2679 C2676 1.386 . S
C2680 C2675 1.490 . S
C2680 C2682 1.395 . S
C2680 C2683 1.403 . S
H2681 C2687 0.930 . S
C2682 H2668 0.930 . S
C2682 C2680 1.395 . S
C2682 C2685 1.403 . S
C2683 C2680 1.403 . S
C2683 C2684 1.524 . S
C2683 C2687 1.400 . S
C2684 H2669 0.960 . S
C2684 H2670 0.960 . S
C2684 H2671 0.960 . S
C2684 C2683 1.524 . S
C2685 C2682 1.403 . S
C2685 C2686 1.392 . S
C2685 C2689 1.495 . S
C2686 C2685 1.392 . S
C2686 C2687 1.385 . S
C2686 C2688 1.478 . S
C2687 H2681 0.930 . S
C2687 C2683 1.400 . S
C2687 C2686 1.385 . S
C2688 C2686 1.478 . S
C2688 C2690 1.381 . S
C2688 C2694 1.383 . S
C2689 C2685 1.495 . S
C2689 H2695 0.959 . S
C2689 H2696 0.961 . S
C2689 H2697 0.960 . S
C2690 C2688 1.381 . S
C2690 C2691 1.394 . S
C2690 H2698 0.930 . S
C2691 C2690 1.394 . S
C2691 C2692 1.383 . S
C2691 H2699 0.929 . S
C2692 C2691 1.383 . S
C2692 C2693 1.377 . S
C2693 H2677 0.930 . S
C2693 C2692 1.377 . S
C2693 C2694 1.379 . S
C2694 H2678 0.931 . S
C2694 C2688 1.383 . S
C2694 C2693 1.379 . S
H2695 C2689 0.959 . S
H2696 C2689 0.961 . S
H2697 C2689 0.960 . S
H2698 C2690 0.930 . S
H2699 C2691 0.929 . S
H2700 C2708 0.929 . S
H2701 C2710 0.930 . S
H2702 C2712 0.930 . S
H2703 C2715 0.929 . S
H2704 C2718 0.930 . S
H2705 C2720 0.960 . S
H2706 C2720 0.960 . S
H2707 C2720 0.960 . S
C2708 H2700 0.929 . S
C2708 C2709 1.377 . S
C2708 C2710 1.384 . S
C2709 C2708 1.377 . S
C2709 C2715 1.390 . S
C2710 H2701 0.930 . S
C2710 C2708 1.384 . S
C2710 C2711 1.372 . S
C2711 C2710 1.372 . S
C2711 C2712 1.400 . S
C2711 C2716 1.490 . S
C2712 H2702 0.930 . S
C2712 C2711 1.400 . S
C2712 C2715 1.386 . S
H2713 C2729 0.930 . S
H2714 C2730 0.931 . S
C2715 H2703 0.929 . S
C2715 C2709 1.390 . S
C2715 C2712 1.386 . S
C2716 C2711 1.490 . S
C2716 C2718 1.395 . S
C2716 C2719 1.403 . S
H2717 C2723 0.930 . S
C2718 H2704 0.930 . S
C2718 C2716 1.395 . S
C2718 C2721 1.403 . S
C2719 C2716 1.403 . S
C2719 C2720 1.524 . S
C2719 C2723 1.400 . S
C2720 H2705 0.960 . S
C2720 H2706 0.960 . S
C2720 H2707 0.960 . S
C2720 C2719 1.524 . S
C2721 C2718 1.403 . S
C2721 C2722 1.392 . S
C2721 C2725 1.495 . S
C2722 C2721 1.392 . S
C2722 C2723 1.385 . S
C2722 C2724 1.478 . S
C2723 H2717 0.930 . S
C2723 C2719 1.400 . S
C2723 C2722 1.385 . S
C2724 C2722 1.478 . S
C2724 C2726 1.381 . S
C2724 C2730 1.383 . S
C2725 C2721 1.495 . S
C2725 H2731 0.959 . S
C2725 H2732 0.961 . S
C2725 H2733 0.960 . S
C2726 C2724 1.381 . S
C2726 C2727 1.394 . S
C2726 H2734 0.930 . S
C2727 C2726 1.394 . S
C2727 C2728 1.383 . S
C2727 H2735 0.929 . S
C2728 C2727 1.383 . S
C2728 C2729 1.377 . S
C2729 H2713 0.930 . S
C2729 C2728 1.377 . S
C2729 C2730 1.379 . S
C2730 H2714 0.931 . S
C2730 C2724 1.383 . S
C2730 C2729 1.379 . S
H2731 C2725 0.959 . S
H2732 C2725 0.961 . S
H2733 C2725 0.960 . S
H2734 C2726 0.930 . S
H2735 C2727 0.929 . S
H2736 C2744 0.929 . S
H2737 C2746 0.930 . S
H2738 C2748 0.930 . S
H2739 C2751 0.929 . S
H2740 C2754 0.930 . S
H2741 C2756 0.960 . S
H2742 C2756 0.960 . S
H2743 C2756 0.960 . S
C2744 H2736 0.929 . S
C2744 C2745 1.377 . S
C2744 C2746 1.384 . S
C2745 C2744 1.377 . S
C2745 C2751 1.390 . S
C2746 H2737 0.930 . S
C2746 C2744 1.384 . S
C2746 C2747 1.372 . S
C2747 C2746 1.372 . S
C2747 C2748 1.400 . S
C2747 C2752 1.490 . S
C2748 H2738 0.930 . S
C2748 C2747 1.400 . S
C2748 C2751 1.386 . S
H2749 C2765 0.930 . S
H2750 C2766 0.931 . S
C2751 H2739 0.929 . S
C2751 C2745 1.390 . S
C2751 C2748 1.386 . S
C2752 C2747 1.490 . S
C2752 C2754 1.395 . S
C2752 C2755 1.403 . S
H2753 C2759 0.930 . S
C2754 H2740 0.930 . S
C2754 C2752 1.395 . S
C2754 C2757 1.403 . S
C2755 C2752 1.403 . S
C2755 C2756 1.524 . S
C2755 C2759 1.400 . S
C2756 H2741 0.960 . S
C2756 H2742 0.960 . S
C2756 H2743 0.960 . S
C2756 C2755 1.524 . S
C2757 C2754 1.403 . S
C2757 C2758 1.392 . S
C2757 C2761 1.495 . S
C2758 C2757 1.392 . S
C2758 C2759 1.385 . S
C2758 C2760 1.478 . S
C2759 H2753 0.930 . S
C2759 C2755 1.400 . S
C2759 C2758 1.385 . S
C2760 C2758 1.478 . S
C2760 C2762 1.381 . S
C2760 C2766 1.383 . S
C2761 C2757 1.495 . S
C2761 H2767 0.959 . S
C2761 H2768 0.961 . S
C2761 H2769 0.960 . S
C2762 C2760 1.381 . S
C2762 C2763 1.394 . S
C2762 H2770 0.930 . S
C2763 C2762 1.394 . S
C2763 C2764 1.383 . S
C2763 H2771 0.929 . S
C2764 C2763 1.383 . S
C2764 C2765 1.377 . S
C2765 H2749 0.930 . S
C2765 C2764 1.377 . S
C2765 C2766 1.379 . S
C2766 H2750 0.931 . S
C2766 C2760 1.383 . S
C2766 C2765 1.379 . S
H2767 C2761 0.959 . S
H2768 C2761 0.961 . S
H2769 C2761 0.960 . S
H2770 C2762 0.930 . S
H2771 C2763 0.929 . S
H2772 C2780 0.929 . S
H2773 C2782 0.930 . S
H2774 C2784 0.930 . S
H2775 C2787 0.929 . S
H2776 C2790 0.930 . S
H2777 C2792 0.960 . S
H2778 C2792 0.960 . S
H2779 C2792 0.960 . S
C2780 H2772 0.929 . S
C2780 C2781 1.377 . S
C2780 C2782 1.384 . S
C2781 C2780 1.377 . S
C2781 C2787 1.390 . S
C2782 H2773 0.930 . S
C2782 C2780 1.384 . S
C2782 C2783 1.372 . S
C2783 C2782 1.372 . S
C2783 C2784 1.400 . S
C2783 C2788 1.490 . S
C2784 H2774 0.930 . S
C2784 C2783 1.400 . S
C2784 C2787 1.386 . S
H2785 C2801 0.930 . S
H2786 C2802 0.931 . S
C2787 H2775 0.929 . S
C2787 C2781 1.390 . S
C2787 C2784 1.386 . S
C2788 C2783 1.490 . S
C2788 C2790 1.395 . S
C2788 C2791 1.403 . S
H2789 C2795 0.930 . S
C2790 H2776 0.930 . S
C2790 C2788 1.395 . S
C2790 C2793 1.403 . S
C2791 C2788 1.403 . S
C2791 C2792 1.524 . S
C2791 C2795 1.400 . S
C2792 H2777 0.960 . S
C2792 H2778 0.960 . S
C2792 H2779 0.960 . S
C2792 C2791 1.524 . S
C2793 C2790 1.403 . S
C2793 C2794 1.392 . S
C2793 C2797 1.495 . S
C2794 C2793 1.392 . S
C2794 C2795 1.385 . S
C2794 C2796 1.478 . S
C2795 H2789 0.930 . S
C2795 C2791 1.400 . S
C2795 C2794 1.385 . S
C2796 C2794 1.478 . S
C2796 C2798 1.381 . S
C2796 C2802 1.383 . S
C2797 C2793 1.495 . S
C2797 H2803 0.959 . S
C2797 H2804 0.961 . S
C2797 H2805 0.960 . S
C2798 C2796 1.381 . S
C2798 C2799 1.394 . S
C2798 H2806 0.930 . S
C2799 C2798 1.394 . S
C2799 C2800 1.383 . S
C2799 H2807 0.929 . S
C2800 C2799 1.383 . S
C2800 C2801 1.377 . S
C2801 H2785 0.930 . S
C2801 C2800 1.377 . S
C2801 C2802 1.379 . S
C2802 H2786 0.931 . S
C2802 C2796 1.383 . S
C2802 C2801 1.379 . S
H2803 C2797 0.959 . S
H2804 C2797 0.961 . S
H2805 C2797 0.960 . S
H2806 C2798 0.930 . S
H2807 C2799 0.929 . S
H2808 C2816 0.929 . S
H2809 C2818 0.930 . S
H2810 C2820 0.930 . S
H2811 C2823 0.929 . S
H2812 C2826 0.930 . S
H2813 C2828 0.960 . S
H2814 C2828 0.960 . S
H2815 C2828 0.960 . S
C2816 H2808 0.929 . S
C2816 C2817 1.377 . S
C2816 C2818 1.384 . S
C2817 C2816 1.377 . S
C2817 C2823 1.390 . S
C2818 H2809 0.930 . S
C2818 C2816 1.384 . S
C2818 C2819 1.372 . S
C2819 C2818 1.372 . S
C2819 C2820 1.400 . S
C2819 C2824 1.490 . S
C2820 H2810 0.930 . S
C2820 C2819 1.400 . S
C2820 C2823 1.386 . S
H2821 C2837 0.930 . S
H2822 C2838 0.931 . S
C2823 H2811 0.929 . S
C2823 C2817 1.390 . S
C2823 C2820 1.386 . S
C2824 C2819 1.490 . S
C2824 C2826 1.395 . S
C2824 C2827 1.403 . S
H2825 C2831 0.930 . S
C2826 H2812 0.930 . S
C2826 C2824 1.395 . S
C2826 C2829 1.403 . S
C2827 C2824 1.403 . S
C2827 C2828 1.524 . S
C2827 C2831 1.400 . S
C2828 H2813 0.960 . S
C2828 H2814 0.960 . S
C2828 H2815 0.960 . S
C2828 C2827 1.524 . S
C2829 C2826 1.403 . S
C2829 C2830 1.392 . S
C2829 C2833 1.495 . S
C2830 C2829 1.392 . S
C2830 C2831 1.385 . S
C2830 C2832 1.478 . S
C2831 H2825 0.930 . S
C2831 C2827 1.400 . S
C2831 C2830 1.385 . S
C2832 C2830 1.478 . S
C2832 C2834 1.381 . S
C2832 C2838 1.383 . S
C2833 C2829 1.495 . S
C2833 H2839 0.959 . S
C2833 H2840 0.961 . S
C2833 H2841 0.960 . S
C2834 C2832 1.381 . S
C2834 C2835 1.394 . S
C2834 H2842 0.930 . S
C2835 C2834 1.394 . S
C2835 C2836 1.383 . S
C2835 H2843 0.929 . S
C2836 C2835 1.383 . S
C2836 C2837 1.377 . S
C2837 H2821 0.930 . S
C2837 C2836 1.377 . S
C2837 C2838 1.379 . S
C2838 H2822 0.931 . S
C2838 C2832 1.383 . S
C2838 C2837 1.379 . S
H2839 C2833 0.959 . S
H2840 C2833 0.961 . S
H2841 C2833 0.960 . S
H2842 C2834 0.930 . S
H2843 C2835 0.929 . S
H2844 C2852 0.929 . S
H2845 C2854 0.930 . S
H2846 C2856 0.930 . S
H2847 C2859 0.929 . S
H2848 C2862 0.930 . S
H2849 C2864 0.960 . S
H2850 C2864 0.960 . S
H2851 C2864 0.960 . S
C2852 H2844 0.929 . S
C2852 C2853 1.377 . S
C2852 C2854 1.384 . S
C2853 C2852 1.377 . S
C2853 C2859 1.390 . S
C2854 H2845 0.930 . S
C2854 C2852 1.384 . S
C2854 C2855 1.372 . S
C2855 C2854 1.372 . S
C2855 C2856 1.400 . S
C2855 C2860 1.490 . S
C2856 H2846 0.930 . S
C2856 C2855 1.400 . S
C2856 C2859 1.386 . S
H2857 C2873 0.930 . S
H2858 C2874 0.931 . S
C2859 H2847 0.929 . S
C2859 C2853 1.390 . S
C2859 C2856 1.386 . S
C2860 C2855 1.490 . S
C2860 C2862 1.395 . S
C2860 C2863 1.403 . S
H2861 C2867 0.930 . S
C2862 H2848 0.930 . S
C2862 C2860 1.395 . S
C2862 C2865 1.403 . S
C2863 C2860 1.403 . S
C2863 C2864 1.524 . S
C2863 C2867 1.400 . S
C2864 H2849 0.960 . S
C2864 H2850 0.960 . S
C2864 H2851 0.960 . S
C2864 C2863 1.524 . S
C2865 C2862 1.403 . S
C2865 C2866 1.392 . S
C2865 C2869 1.495 . S
C2866 C2865 1.392 . S
C2866 C2867 1.385 . S
C2866 C2868 1.478 . S
C2867 H2861 0.930 . S
C2867 C2863 1.400 . S
C2867 C2866 1.385 . S
C2868 C2866 1.478 . S
C2868 C2870 1.381 . S
C2868 C2874 1.383 . S
C2869 C2865 1.495 . S
C2869 H2875 0.959 . S
C2869 H2876 0.961 . S
C2869 H2877 0.960 . S
C2870 C2868 1.381 . S
C2870 C2871 1.394 . S
C2870 H2878 0.930 . S
C2871 C2870 1.394 . S
C2871 C2872 1.383 . S
C2871 H2879 0.929 . S
C2872 C2871 1.383 . S
C2872 C2873 1.377 . S
C2873 H2857 0.930 . S
C2873 C2872 1.377 . S
C2873 C2874 1.379 . S
C2874 H2858 0.931 . S
C2874 C2868 1.383 . S
C2874 C2873 1.379 . S
H2875 C2869 0.959 . S
H2876 C2869 0.961 . S
H2877 C2869 0.960 . S
H2878 C2870 0.930 . S
H2879 C2871 0.929 . S
H2880 C2888 0.929 . S
H2881 C2890 0.930 . S
H2882 C2892 0.930 . S
H2883 C2895 0.929 . S
H2884 C2898 0.930 . S
H2885 C2900 0.960 . S
H2886 C2900 0.960 . S
H2887 C2900 0.960 . S
C2888 H2880 0.929 . S
C2888 C2889 1.377 . S
C2888 C2890 1.384 . S
C2889 C2888 1.377 . S
C2889 C2895 1.390 . S
C2890 H2881 0.930 . S
C2890 C2888 1.384 . S
C2890 C2891 1.372 . S
C2891 C2890 1.372 . S
C2891 C2892 1.400 . S
C2891 C2896 1.490 . S
C2892 H2882 0.930 . S
C2892 C2891 1.400 . S
C2892 C2895 1.386 . S
H2893 C2909 0.930 . S
H2894 C2910 0.931 . S
C2895 H2883 0.929 . S
C2895 C2889 1.390 . S
C2895 C2892 1.386 . S
C2896 C2891 1.490 . S
C2896 C2898 1.395 . S
C2896 C2899 1.403 . S
H2897 C2903 0.930 . S
C2898 H2884 0.930 . S
C2898 C2896 1.395 . S
C2898 C2901 1.403 . S
C2899 C2896 1.403 . S
C2899 C2900 1.524 . S
C2899 C2903 1.400 . S
C2900 H2885 0.960 . S
C2900 H2886 0.960 . S
C2900 H2887 0.960 . S
C2900 C2899 1.524 . S
C2901 C2898 1.403 . S
C2901 C2902 1.392 . S
C2901 C2905 1.495 . S
C2902 C2901 1.392 . S
C2902 C2903 1.385 . S
C2902 C2904 1.478 . S
C2903 H2897 0.930 . S
C2903 C2899 1.400 . S
C2903 C2902 1.385 . S
C2904 C2902 1.478 . S
C2904 C2906 1.381 . S
C2904 C2910 1.383 . S
C2905 C2901 1.495 . S
C2905 H2911 0.959 . S
C2905 H2912 0.961 . S
C2905 H2913 0.960 . S
C2906 C2904 1.381 . S
C2906 C2907 1.394 . S
C2906 H2914 0.930 . S
C2907 C2906 1.394 . S
C2907 C2908 1.383 . S
C2907 H2915 0.929 . S
C2908 C2907 1.383 . S
C2908 C2909 1.377 . S
C2909 H2893 0.930 . S
C2909 C2908 1.377 . S
C2909 C2910 1.379 . S
C2910 H2894 0.931 . S
C2910 C2904 1.383 . S
C2910 C2909 1.379 . S
H2911 C2905 0.959 . S
H2912 C2905 0.961 . S
H2913 C2905 0.960 . S
H2914 C2906 0.930 . S
H2915 C2907 0.929 . S
H2916 C2924 0.929 . S
H2917 C2926 0.930 . S
H2918 C2928 0.930 . S
H2919 C2931 0.929 . S
H2920 C2934 0.930 . S
H2921 C2936 0.960 . S
H2922 C2936 0.960 . S
H2923 C2936 0.960 . S
C2924 H2916 0.929 . S
C2924 C2925 1.377 . S
C2924 C2926 1.384 . S
C2925 C2924 1.377 . S
C2925 C2931 1.390 . S
C2926 H2917 0.930 . S
C2926 C2924 1.384 . S
C2926 C2927 1.372 . S
C2927 C2926 1.372 . S
C2927 C2928 1.400 . S
C2927 C2932 1.490 . S
C2928 H2918 0.930 . S
C2928 C2927 1.400 . S
C2928 C2931 1.386 . S
H2929 C2945 0.930 . S
H2930 C2946 0.931 . S
C2931 H2919 0.929 . S
C2931 C2925 1.390 . S
C2931 C2928 1.386 . S
C2932 C2927 1.490 . S
C2932 C2934 1.395 . S
C2932 C2935 1.403 . S
H2933 C2939 0.930 . S
C2934 H2920 0.930 . S
C2934 C2932 1.395 . S
C2934 C2937 1.403 . S
C2935 C2932 1.403 . S
C2935 C2936 1.524 . S
C2935 C2939 1.400 . S
C2936 H2921 0.960 . S
C2936 H2922 0.960 . S
C2936 H2923 0.960 . S
C2936 C2935 1.524 . S
C2937 C2934 1.403 . S
C2937 C2938 1.392 . S
C2937 C2941 1.495 . S
C2938 C2937 1.392 . S
C2938 C2939 1.385 . S
C2938 C2940 1.478 . S
C2939 H2933 0.930 . S
C2939 C2935 1.400 . S
C2939 C2938 1.385 . S
C2940 C2938 1.478 . S
C2940 C2942 1.381 . S
C2940 C2946 1.383 . S
C2941 C2937 1.495 . S
C2941 H2947 0.959 . S
C2941 H2948 0.961 . S
C2941 H2949 0.960 . S
C2942 C2940 1.381 . S
C2942 C2943 1.394 . S
C2942 H2950 0.930 . S
C2943 C2942 1.394 . S
C2943 C2944 1.383 . S
C2943 H2951 0.929 . S
C2944 C2943 1.383 . S
C2944 C2945 1.377 . S
C2945 H2929 0.930 . S
C2945 C2944 1.377 . S
C2945 C2946 1.379 . S
C2946 H2930 0.931 . S
C2946 C2940 1.383 . S
C2946 C2945 1.379 . S
H2947 C2941 0.959 . S
H2948 C2941 0.961 . S
H2949 C2941 0.960 . S
H2950 C2942 0.930 . S
H2951 C2943 0.929 . S
H2952 C2960 0.929 . S
H2953 C2962 0.930 . S
H2954 C2964 0.930 . S
H2955 C2967 0.929 . S
H2956 C2970 0.930 . S
H2957 C2972 0.960 . S
H2958 C2972 0.960 . S
H2959 C2972 0.960 . S
C2960 H2952 0.929 . S
C2960 C2961 1.377 . S
C2960 C2962 1.384 . S
C2961 C2960 1.377 . S
C2961 C2967 1.390 . S
C2962 H2953 0.930 . S
C2962 C2960 1.384 . S
C2962 C2963 1.372 . S
C2963 C2962 1.372 . S
C2963 C2964 1.400 . S
C2963 C2968 1.490 . S
C2964 H2954 0.930 . S
C2964 C2963 1.400 . S
C2964 C2967 1.386 . S
H2965 C2981 0.930 . S
H2966 C2982 0.931 . S
C2967 H2955 0.929 . S
C2967 C2961 1.390 . S
C2967 C2964 1.386 . S
C2968 C2963 1.490 . S
C2968 C2970 1.395 . S
C2968 C2971 1.403 . S
H2969 C2975 0.930 . S
C2970 H2956 0.930 . S
C2970 C2968 1.395 . S
C2970 C2973 1.403 . S
C2971 C2968 1.403 . S
C2971 C2972 1.524 . S
C2971 C2975 1.400 . S
C2972 H2957 0.960 . S
C2972 H2958 0.960 . S
C2972 H2959 0.960 . S
C2972 C2971 1.524 . S
C2973 C2970 1.403 . S
C2973 C2974 1.392 . S
C2973 C2977 1.495 . S
C2974 C2973 1.392 . S
C2974 C2975 1.385 . S
C2974 C2976 1.478 . S
C2975 H2969 0.930 . S
C2975 C2971 1.400 . S
C2975 C2974 1.385 . S
C2976 C2974 1.478 . S
C2976 C2978 1.381 . S
C2976 C2982 1.383 . S
C2977 C2973 1.495 . S
C2977 H2983 0.959 . S
C2977 H2984 0.961 . S
C2977 H2985 0.960 . S
C2978 C2976 1.381 . S
C2978 C2979 1.394 . S
C2978 H2986 0.930 . S
C2979 C2978 1.394 . S
C2979 C2980 1.383 . S
C2979 H2987 0.929 . S
C2980 C2979 1.383 . S
C2980 C2981 1.377 . S
C2981 H2965 0.930 . S
C2981 C2980 1.377 . S
C2981 C2982 1.379 . S
C2982 H2966 0.931 . S
C2982 C2976 1.383 . S
C2982 C2981 1.379 . S
H2983 C2977 0.959 . S
H2984 C2977 0.961 . S
H2985 C2977 0.960 . S
H2986 C2978 0.930 . S
H2987 C2979 0.929 . S
H2988 C2996 0.929 . S
H2989 C2998 0.930 . S
H2990 C3000 0.930 . S
H2991 C3003 0.929 . S
H2992 C3006 0.930 . S
H2993 C3008 0.960 . S
H2994 C3008 0.960 . S
H2995 C3008 0.960 . S
C2996 H2988 0.929 . S
C2996 C2997 1.377 . S
C2996 C2998 1.384 . S
C2997 C2996 1.377 . S
C2997 C3003 1.390 . S
C2998 H2989 0.930 . S
C2998 C2996 1.384 . S
C2998 C2999 1.372 . S
C2999 C2998 1.372 . S
C2999 C3000 1.400 . S
C2999 C3004 1.490 . S
C3000 H2990 0.930 . S
C3000 C2999 1.400 . S
C3000 C3003 1.386 . S
H3001 C3017 0.930 . S
H3002 C3018 0.931 . S
C3003 H2991 0.929 . S
C3003 C2997 1.390 . S
C3003 C3000 1.386 . S
C3004 C2999 1.490 . S
C3004 C3006 1.395 . S
C3004 C3007 1.403 . S
H3005 C3011 0.930 . S
C3006 H2992 0.930 . S
C3006 C3004 1.395 . S
C3006 C3009 1.403 . S
C3007 C3004 1.403 . S
C3007 C3008 1.524 . S
C3007 C3011 1.400 . S
C3008 H2993 0.960 . S
C3008 H2994 0.960 . S
C3008 H2995 0.960 . S
C3008 C3007 1.524 . S
C3009 C3006 1.403 . S
C3009 C3010 1.392 . S
C3009 C3013 1.495 . S
C3010 C3009 1.392 . S
C3010 C3011 1.385 . S
C3010 C3012 1.478 . S
C3011 H3005 0.930 . S
C3011 C3007 1.400 . S
C3011 C3010 1.385 . S
C3012 C3010 1.478 . S
C3012 C3014 1.381 . S
C3012 C3018 1.383 . S
C3013 C3009 1.495 . S
C3013 H3019 0.959 . S
C3013 H3020 0.961 . S
C3013 H3021 0.960 . S
C3014 C3012 1.381 . S
C3014 C3015 1.394 . S
C3014 H3022 0.930 . S
C3015 C3014 1.394 . S
C3015 C3016 1.383 . S
C3015 H3023 0.929 . S
C3016 C3015 1.383 . S
C3016 C3017 1.377 . S
C3017 H3001 0.930 . S
C3017 C3016 1.377 . S
C3017 C3018 1.379 . S
C3018 H3002 0.931 . S
C3018 C3012 1.383 . S
C3018 C3017 1.379 . S
H3019 C3013 0.959 . S
H3020 C3013 0.961 . S
H3021 C3013 0.960 . S
H3022 C3014 0.930 . S
H3023 C3015 0.929 . S
H3024 C3032 0.929 . S
H3025 C3034 0.930 . S
H3026 C3036 0.930 . S
H3027 C3039 0.929 . S
H3028 C3042 0.930 . S
H3029 C3044 0.960 . S
H3030 C3044 0.960 . S
H3031 C3044 0.960 . S
C3032 H3024 0.929 . S
C3032 C3033 1.377 . S
C3032 C3034 1.384 . S
C3033 C3032 1.377 . S
C3033 C3039 1.390 . S
C3034 H3025 0.930 . S
C3034 C3032 1.384 . S
C3034 C3035 1.372 . S
C3035 C3034 1.372 . S
C3035 C3036 1.400 . S
C3035 C3040 1.490 . S
C3036 H3026 0.930 . S
C3036 C3035 1.400 . S
C3036 C3039 1.386 . S
H3037 C3053 0.930 . S
H3038 C3054 0.931 . S
C3039 H3027 0.929 . S
C3039 C3033 1.390 . S
C3039 C3036 1.386 . S
C3040 C3035 1.490 . S
C3040 C3042 1.395 . S
C3040 C3043 1.403 . S
H3041 C3047 0.930 . S
C3042 H3028 0.930 . S
C3042 C3040 1.395 . S
C3042 C3045 1.403 . S
C3043 C3040 1.403 . S
C3043 C3044 1.524 . S
C3043 C3047 1.400 . S
C3044 H3029 0.960 . S
C3044 H3030 0.960 . S
C3044 H3031 0.960 . S
C3044 C3043 1.524 . S
C3045 C3042 1.403 . S
C3045 C3046 1.392 . S
C3045 C3049 1.495 . S
C3046 C3045 1.392 . S
C3046 C3047 1.385 . S
C3046 C3048 1.478 . S
C3047 H3041 0.930 . S
C3047 C3043 1.400 . S
C3047 C3046 1.385 . S
C3048 C3046 1.478 . S
C3048 C3050 1.381 . S
C3048 C3054 1.383 . S
C3049 C3045 1.495 . S
C3049 H3055 0.959 . S
C3049 H3056 0.961 . S
C3049 H3057 0.960 . S
C3050 C3048 1.381 . S
C3050 C3051 1.394 . S
C3050 H3058 0.930 . S
C3051 C3050 1.394 . S
C3051 C3052 1.383 . S
C3051 H3059 0.929 . S
C3052 C3051 1.383 . S
C3052 C3053 1.377 . S
C3053 H3037 0.930 . S
C3053 C3052 1.377 . S
C3053 C3054 1.379 . S
C3054 H3038 0.931 . S
C3054 C3048 1.383 . S
C3054 C3053 1.379 . S
H3055 C3049 0.959 . S
H3056 C3049 0.961 . S
H3057 C3049 0.960 . S
H3058 C3050 0.930 . S
H3059 C3051 0.929 . S
C477 C10 1.127 . S
C496 C153 1.122 . S
C513 C127 1.121 . S
C532 C23 1.111 . S
C549 C140 1.119 . S
C568 C36 1.129 . S
C585 C49 1.120 . S
C604 C101 1.141 . S
C621 C62 1.119 . S
C640 C114 1.138 . S
C657 C75 1.119 . S
C676 C88 1.135 . S
C693 C166 1.126 . S
C712 C309 1.129 . S
C729 C283 1.124 . S
C748 C179 1.135 . S
C765 C192 1.125 . S
C784 C296 1.135 . S
C801 C205 1.125 . S
C820 C257 1.100 . S
C837 C218 1.126 . S
C856 C270 1.100 . S
C873 C231 1.127 . S
C892 C244 1.104 . S
C909 C322 1.121 . S
C928 C465 1.141 . S
C945 C335 1.125 . S
C964 C439 1.100 . S
C981 C452 1.127 . S
C1000 C348 1.102 . S
C1017 C361 1.126 . S
C1036 C413 1.101 . S
C1053 C426 1.119 . S
C1072 C374 1.130 . S
C1089 C400 1.119 . S
C1108 C387 1.136 . S
C1125 C0 1.023 . S
C1144 C195 1.007 . S
C1161 C13 1.020 . S
C1180 C208 0.997 . S
C1197 C26 1.026 . S
C1216 C221 1.029 . S
C1233 C39 1.018 . S
C1252 C312 0.995 . S
C1269 C325 1.021 . S
C1288 C52 1.039 . S
C1305 C338 1.020 . S
C1324 C65 0.997 . S
C1341 C78 1.025 . S
C1360 C429 1.015 . S
C1377 C442 1.018 . S
C1396 C91 1.035 . S
C1413 C104 1.019 . S
C1432 C455 0.994 . S
C1449 C117 1.022 . S
C1468 C234 1.043 . S
C1485 C130 1.020 . S
C1504 C247 0.996 . S
C1521 C143 1.023 . S
C1540 C260 1.001 . S
C1557 C351 1.024 . S
C1576 C156 1.043 . S
C1593 C169 1.024 . S
C1612 C364 1.043 . S
C1629 C182 1.019 . S
C1648 C377 0.996 . S
C1665 C390 1.018 . S
C1684 C273 1.033 . S
C1701 C403 1.022 . S
C1720 C286 1.043 . S
C1737 C299 1.025 . S
C1756 C416 1.041 . S
C1773 C5 1.289 . S
C1792 C57 1.271 . S
C1809 C70 1.289 . S
C1828 C18 1.287 . S
C1845 C44 1.285 . S
C1864 C31 1.308 . S
C1881 C83 1.281 . S
C1900 C135 1.269 . S
C1917 C148 1.277 . S
C1936 C96 1.298 . S
C1953 C109 1.279 . S
C1972 C122 1.310 . S
C1989 C213 1.277 . S
C2008 C161 1.291 . S
C2025 C174 1.288 . S
C2044 C226 1.262 . S
C2061 C187 1.287 . S
C2080 C200 1.301 . S
C2097 C291 1.285 . S
C2116 C239 1.253 . S
C2133 C304 1.285 . S
C2152 C252 1.255 . S
C2169 C278 1.289 . S
C2188 C265 1.259 . S
C2205 C317 1.286 . S
C2224 C369 1.253 . S
C2241 C330 1.284 . S
C2260 C382 1.250 . S
C2277 C343 1.285 . S
C2296 C356 1.307 . S
C2313 C447 1.280 . S
C2332 C395 1.274 . S
C2349 C460 1.277 . S
C2368 C408 1.310 . S
C2385 C434 1.279 . S
C2404 C421 1.281 . S
C2421 C125 1.335 . S
C2440 C8 1.321 . S
C2457 C138 1.335 . S
C2476 C21 1.354 . S
C2493 C34 1.335 . S
C2512 C151 1.311 . S
C2529 C47 1.338 . S
C2548 C86 1.300 . S
C2565 C99 1.324 . S
C2584 C60 1.325 . S
C2601 C73 1.324 . S
C2620 C112 1.336 . S
C2637 C281 1.325 . S
C2656 C164 1.353 . S
C2673 C294 1.329 . S
C2692 C177 1.351 . S
C2709 C190 1.334 . S
C2728 C307 1.331 . S
C2745 C242 1.326 . S
C2764 C203 1.311 . S
C2781 C255 1.324 . S
C2800 C216 1.352 . S
C2817 C268 1.335 . S
C2836 C229 1.311 . S
C2853 C320 1.325 . S
C2872 C437 1.352 . S
C2889 C450 1.335 . S
C2908 C333 1.323 . S
C2925 C346 1.333 . S
C2944 C463 1.334 . S
C2961 C359 1.334 . S
C2980 C398 1.329 . S
C2997 C372 1.329 . S
C3016 C411 1.351 . S
C3033 C424 1.325 . S
C3052 C385 1.319 . S
