# Generated by pormake.
# Topology wiv, (6)-cn, num edge types: 1
# Building blocks:
#     Node 0, Type 0, BuildingBlock: UKALOJ_clean_sbu_0, # of connection points: 6
#     Node 1, Type 0, BuildingBlock: UKALOJ_clean_sbu_0, # of connection points: 6
#     Node 2, Type 0, BuildingBlock: UKALOJ_clean_sbu_0, # of connection points: 6
#     Node 3, Type 0, BuildingBlock: UKALOJ_clean_sbu_0, # of connection points: 6
#     Node 4, Type 0, BuildingBlock: UKALOJ_clean_sbu_0, # of connection points: 6
#     Node 5, Type 0, BuildingBlock: UKALOJ_clean_sbu_0, # of connection points: 6
#     Node 6, Type 0, BuildingBlock: UKALOJ_clean_sbu_0, # of connection points: 6
#     Node 7, Type 0, BuildingBlock: UKALOJ_clean_sbu_0, # of connection points: 6
#     Node 8, Type 0, BuildingBlock: UKALOJ_clean_sbu_0, # of connection points: 6
#     Node 9, Type 0, BuildingBlock: UKALOJ_clean_sbu_0, # of connection points: 6
#     Node 10, Type 0, BuildingBlock: UKALOJ_clean_sbu_0, # of connection points: 6
#     Node 11, Type 0, BuildingBlock: UKALOJ_clean_sbu_0, # of connection points: 6
#     Node 12, Type 0, BuildingBlock: UKALOJ_clean_sbu_0, # of connection points: 6
#     Node 13, Type 0, BuildingBlock: UKALOJ_clean_sbu_0, # of connection points: 6
#     Node 14, Type 0, BuildingBlock: UKALOJ_clean_sbu_0, # of connection points: 6
#     Node 15, Type 0, BuildingBlock: UKALOJ_clean_sbu_0, # of connection points: 6
#     Edge 16, Type (0, 0), BuildingBlock: CIFDUS_clean_linker_0, # of connection points: 2
#     Edge 17, Type (0, 0), BuildingBlock: CIFDUS_clean_linker_0, # of connection points: 2
#     Edge 18, Type (0, 0), BuildingBlock: CIFDUS_clean_linker_0, # of connection points: 2
#     Edge 19, Type (0, 0), BuildingBlock: CIFDUS_clean_linker_0, # of connection points: 2
#     Edge 20, Type (0, 0), BuildingBlock: CIFDUS_clean_linker_0, # of connection points: 2
#     Edge 21, Type (0, 0), BuildingBlock: CIFDUS_clean_linker_0, # of connection points: 2
#     Edge 22, Type (0, 0), BuildingBlock: CIFDUS_clean_linker_0, # of connection points: 2
#     Edge 23, Type (0, 0), BuildingBlock: CIFDUS_clean_linker_0, # of connection points: 2
#     Edge 24, Type (0, 0), BuildingBlock: CIFDUS_clean_linker_0, # of connection points: 2
#     Edge 25, Type (0, 0), BuildingBlock: CIFDUS_clean_linker_0, # of connection points: 2
#     Edge 26, Type (0, 0), BuildingBlock: CIFDUS_clean_linker_0, # of connection points: 2
#     Edge 27, Type (0, 0), BuildingBlock: CIFDUS_clean_linker_0, # of connection points: 2
#     Edge 28, Type (0, 0), BuildingBlock: CIFDUS_clean_linker_0, # of connection points: 2
#     Edge 29, Type (0, 0), BuildingBlock: CIFDUS_clean_linker_0, # of connection points: 2
#     Edge 30, Type (0, 0), BuildingBlock: CIFDUS_clean_linker_0, # of connection points: 2
#     Edge 31, Type (0, 0), BuildingBlock: CIFDUS_clean_linker_0, # of connection points: 2
#     Edge 32, Type (0, 0), BuildingBlock: CIFDUS_clean_linker_0, # of connection points: 2
#     Edge 33, Type (0, 0), BuildingBlock: CIFDUS_clean_linker_0, # of connection points: 2
#     Edge 34, Type (0, 0), BuildingBlock: CIFDUS_clean_linker_0, # of connection points: 2
#     Edge 35, Type (0, 0), BuildingBlock: CIFDUS_clean_linker_0, # of connection points: 2
#     Edge 36, Type (0, 0), BuildingBlock: CIFDUS_clean_linker_0, # of connection points: 2
#     Edge 37, Type (0, 0), BuildingBlock: CIFDUS_clean_linker_0, # of connection points: 2
#     Edge 38, Type (0, 0), BuildingBlock: CIFDUS_clean_linker_0, # of connection points: 2
#     Edge 39, Type (0, 0), BuildingBlock: CIFDUS_clean_linker_0, # of connection points: 2
#     Edge 40, Type (0, 0), BuildingBlock: CIFDUS_clean_linker_0, # of connection points: 2
#     Edge 41, Type (0, 0), BuildingBlock: CIFDUS_clean_linker_0, # of connection points: 2
#     Edge 42, Type (0, 0), BuildingBlock: CIFDUS_clean_linker_0, # of connection points: 2
#     Edge 43, Type (0, 0), BuildingBlock: CIFDUS_clean_linker_0, # of connection points: 2
#     Edge 44, Type (0, 0), BuildingBlock: CIFDUS_clean_linker_0, # of connection points: 2
#     Edge 45, Type (0, 0), BuildingBlock: CIFDUS_clean_linker_0, # of connection points: 2
#     Edge 46, Type (0, 0), BuildingBlock: CIFDUS_clean_linker_0, # of connection points: 2
#     Edge 47, Type (0, 0), BuildingBlock: CIFDUS_clean_linker_0, # of connection points: 2
#     Edge 48, Type (0, 0), BuildingBlock: CIFDUS_clean_linker_0, # of connection points: 2
#     Edge 49, Type (0, 0), BuildingBlock: CIFDUS_clean_linker_0, # of connection points: 2
#     Edge 50, Type (0, 0), BuildingBlock: CIFDUS_clean_linker_0, # of connection points: 2
#     Edge 51, Type (0, 0), BuildingBlock: CIFDUS_clean_linker_0, # of connection points: 2
#     Edge 52, Type (0, 0), BuildingBlock: CIFDUS_clean_linker_0, # of connection points: 2
#     Edge 53, Type (0, 0), BuildingBlock: CIFDUS_clean_linker_0, # of connection points: 2
#     Edge 54, Type (0, 0), BuildingBlock: CIFDUS_clean_linker_0, # of connection points: 2
#     Edge 55, Type (0, 0), BuildingBlock: CIFDUS_clean_linker_0, # of connection points: 2
#     Edge 56, Type (0, 0), BuildingBlock: CIFDUS_clean_linker_0, # of connection points: 2
#     Edge 57, Type (0, 0), BuildingBlock: CIFDUS_clean_linker_0, # of connection points: 2
#     Edge 58, Type (0, 0), BuildingBlock: CIFDUS_clean_linker_0, # of connection points: 2
#     Edge 59, Type (0, 0), BuildingBlock: CIFDUS_clean_linker_0, # of connection points: 2
#     Edge 60, Type (0, 0), BuildingBlock: CIFDUS_clean_linker_0, # of connection points: 2
#     Edge 61, Type (0, 0), BuildingBlock: CIFDUS_clean_linker_0, # of connection points: 2
#     Edge 62, Type (0, 0), BuildingBlock: CIFDUS_clean_linker_0, # of connection points: 2
#     Edge 63, Type (0, 0), BuildingBlock: CIFDUS_clean_linker_0, # of connection points: 2
# Relax obj value: 0.124
# Max RMSD: 0.129
# Mean RMSD: 0.129
data_MOF--net-wiv--node1-UKALOJ_clean_sbu_0--edge1-CIFDUS_clean_linker_0
_symmetry_space_group_name_H-M    P1
_symmetry_Int_Tables_number       1
_symmetry_cell_setting            triclinic
loop_
_symmetry_equiv_pos_as_xyz
'x, y, z'
_cell_length_a     60.597376
_cell_length_b     60.693887
_cell_length_c     12.913752
_cell_angle_alpha  90.02885
_cell_angle_beta   90.120411
_cell_angle_gamma 89.935208
loop_
_atom_site_label
_atom_site_type_symbol
_atom_site_fract_x
_atom_site_fract_y
_atom_site_fract_z
_atom_type_partial_charge
Zn0 Zn 0.36393 0.13094 0.07454 0.0
O1 O 0.37333 0.136 0.92202 0.0
C2 C 0.32292 0.109 0.00175 0.0
Zn3 Zn 0.36893 0.09439 0.06408 0.0
C4 C 0.37715 0.11889 0.86829 0.0
O5 O 0.3771 0.1 0.91067 0.0
C6 C 0.35549 0.10627 0.27036 0.0
O7 O 0.40283 0.09785 0.10844 0.0
O8 O 0.39726 0.13339 0.12261 0.0
N9 N 0.37315 0.06093 0.04339 0.0
C10 C 0.38155 0.04502 0.10535 0.0
C11 C 0.36942 0.02926 0.96926 0.0
N12 N 0.3658 0.05106 0.95861 0.0
N13 N 0.37947 0.02504 0.06028 0.0
C14 C 0.35345 0.18261 0.05825 0.0
C15 C 0.36439 0.19193 0.20886 0.0
N16 N 0.36048 0.1641 0.10656 0.0
N17 N 0.36715 0.17009 0.20001 0.0
N18 N 0.3558 0.20047 0.12128 0.0
H19 H 0.34879 0.16745 0.90819 0.0
H20 H 0.35209 0.19705 0.90616 0.0
H21 H 0.32673 0.18464 0.95046 0.0
C22 C 0.34496 0.18294 0.94922 0.0
C23 C 0.38969 0.0487 0.21371 0.0
H24 H 0.39504 0.06593 0.2257 0.0
H25 H 0.40366 0.03755 0.2318 0.0
H26 H 0.37615 0.04494 0.2686 0.0
O27 O 0.36034 0.08938 0.21752 0.0
O28 O 0.35482 0.12499 0.22715 0.0
C29 C 0.41014 0.11694 0.13019 0.0
O30 O 0.33069 0.12798 0.02322 0.0
O31 O 0.3349 0.09198 0.01666 0.0
Zn32 Zn 0.13432 0.66801 0.89574 0.0
O33 O 0.134 0.65966 0.05094 0.0
C34 C 0.11801 0.71188 0.95875 0.0
Zn35 Zn 0.09732 0.66868 0.88735 0.0
C36 C 0.11532 0.65661 0.09329 0.0
O37 O 0.09768 0.65817 0.04039 0.0
C38 C 0.11642 0.68046 0.68992 0.0
O39 O 0.09656 0.6352 0.8345 0.0
O40 O 0.13244 0.63446 0.85441 0.0
N41 N 0.0631 0.66978 0.88959 0.0
C42 C 0.04747 0.65978 0.83116 0.0
C43 C 0.03074 0.67965 0.942 0.0
N44 N 0.05259 0.68207 0.95845 0.0
N45 N 0.02702 0.66559 0.86303 0.0
C46 C 0.1866 0.67271 0.93045 0.0
C47 C 0.1968 0.65313 0.80211 0.0
N48 N 0.16813 0.66505 0.8837 0.0
N49 N 0.17469 0.65285 0.80456 0.0
N50 N 0.20492 0.66548 0.87995 0.0
H51 H 0.1904 0.67806 0.09291 0.0
H52 H 0.19914 0.70081 0.0134 0.0
H53 H 0.17008 0.69532 0.03398 0.0
C54 C 0.18648 0.68775 0.02242 0.0
C55 C 0.0522 0.64539 0.73958 0.0
H56 H 0.05262 0.62794 0.76515 0.0
H57 H 0.03912 0.64716 0.6799 0.0
H58 H 0.06834 0.6495 0.70494 0.0
O59 O 0.09776 0.67919 0.73393 0.0
O60 O 0.1339 0.67671 0.74082 0.0
C61 C 0.1147 0.62474 0.82946 0.0
O62 O 0.13565 0.70138 0.93807 0.0
O63 O 0.09939 0.70252 0.94366 0.0
Zn64 Zn 0.66596 0.93889 0.1105 0.0
O65 O 0.63175 0.9372 0.15978 0.0
C66 C 0.67967 0.92214 0.31127 0.0
Zn67 Zn 0.66855 0.90211 0.10771 0.0
C68 C 0.62351 0.91803 0.17195 0.0
O69 O 0.63544 0.90126 0.15401 0.0
C70 C 0.71083 0.9209 0.04127 0.0
O71 O 0.65917 0.9009 0.95182 0.0
O72 O 0.65595 0.93706 0.95747 0.0
N73 N 0.66984 0.86854 0.12467 0.0
C74 C 0.67238 0.85101 0.06151 0.0
C75 C 0.67007 0.83872 0.21584 0.0
N76 N 0.6684 0.86076 0.22024 0.0
N77 N 0.67265 0.83214 0.11721 0.0
C78 C 0.6557 0.98873 0.16089 0.0
C79 C 0.67488 1.00482 0.04548 0.0
N80 N 0.66519 0.97284 0.10244 0.0
N81 N 0.67698 0.98296 0.03061 0.0
N82 N 0.66153 1.00897 0.12652 0.0
H83 H 0.64489 0.96776 0.28599 0.0
H84 H 0.62413 0.9855 0.23219 0.0
H85 H 0.64506 0.99692 0.31526 0.0
C86 C 0.64179 0.98441 0.25445 0.0
C87 C 0.67581 0.8526 0.94705 0.0
H88 H 0.65964 0.8553 0.90864 0.0
H89 H 0.68335 0.83731 0.91593 0.0
H90 H 0.68659 0.86686 0.92914 0.0
O91 O 0.70124 0.90282 0.06138 0.0
O92 O 0.70046 0.93897 0.05624 0.0
C93 C 0.65507 0.91913 0.90708 0.0
O94 O 0.67593 0.9403 0.26593 0.0
O95 O 0.6782 0.90427 0.26143 0.0
Zn96 Zn 0.93704 0.36221 0.86687 0.0
O97 O 0.92961 0.39562 0.8146 0.0
C98 C 0.92405 0.34662 0.66127 0.0
Zn99 Zn 0.90096 0.35412 0.85829 0.0
C100 C 0.90952 0.40071 0.79644 0.0
O101 O 0.89464 0.38633 0.81046 0.0
C102 C 0.9268 0.31575 0.93454 0.0
O103 O 0.89723 0.36277 0.0124 0.0
O104 O 0.93243 0.37158 0.02045 0.0
N105 N 0.86811 0.34642 0.84298 0.0
C106 C 0.84953 0.35814 0.85991 0.0
C107 C 0.83993 0.32767 0.7913 0.0
N108 N 0.86208 0.32749 0.80063 0.0
N109 N 0.83157 0.34681 0.82697 0.0
C110 C 0.98537 0.37565 0.80512 0.0
C111 C 1.00261 0.37307 0.9485 0.0
N112 N 0.97044 0.36956 0.87731 0.0
N113 N 0.98124 0.36808 0.96641 0.0
N114 N 1.0056 0.37785 0.84774 0.0
H115 H 0.96316 0.38708 0.68603 0.0
H116 H 0.99203 0.39241 0.66138 0.0
H117 H 0.98144 0.36493 0.64888 0.0
C118 C 0.98011 0.38041 0.694 0.0
C119 C 0.84907 0.38011 0.91312 0.0
H120 H 0.84943 0.39338 0.85423 0.0
H121 H 0.83386 0.38191 0.96006 0.0
H122 H 0.86358 0.38231 0.96392 0.0
O123 O 0.90758 0.32196 0.90805 0.0
O124 O 0.94305 0.32886 0.92192 0.0
C125 C 0.9138 0.3693 0.06414 0.0
O126 O 0.94083 0.35217 0.71379 0.0
O127 O 0.90532 0.34549 0.7044 0.0
Zn128 Zn 0.36236 0.40055 0.09224 0.0
O129 O 0.37151 0.39948 0.2477 0.0
C130 C 0.3197 0.41953 0.15928 0.0
Zn131 Zn 0.36397 0.43747 0.08674 0.0
C132 C 0.37545 0.41786 0.29142 0.0
O133 O 0.37446 0.43566 0.23992 0.0
C134 C 0.35065 0.42041 0.88748 0.0
O135 O 0.39762 0.43597 0.03441 0.0
O136 O 0.39592 0.39993 0.04726 0.0
N137 N 0.36475 0.4715 0.0947 0.0
C138 C 0.37451 0.48733 0.03706 0.0
C139 C 0.35544 0.50355 0.15267 0.0
N140 N 0.35301 0.4817 0.16661 0.0
N141 N 0.36895 0.50761 0.07216 0.0
C142 C 0.35861 0.34919 0.13795 0.0
C143 C 0.36137 0.337 -0.01641 0.0
N144 N 0.36126 0.3668 0.0753 0.0
N145 N 0.36297 0.35906 -0.02028 0.0
N146 N 0.35856 0.33031 0.0819 0.0
H147 H 0.3709 0.35316 0.29179 0.0
H148 H 0.34698 0.33554 0.28234 0.0
H149 H 0.34419 0.36516 0.26969 0.0
C150 C 0.35482 0.35074 0.25218 0.0
C151 C 0.38843 0.48294 0.94358 0.0
H152 H 0.40607 0.48304 0.96682 0.0
H153 H 0.38589 0.49594 0.88434 0.0
H154 H 0.38461 0.46666 0.90959 0.0
O155 O 0.35354 0.43877 0.93243 0.0
O156 O 0.35294 0.40267 0.9377 0.0
C157 C 0.40686 0.41718 0.02583 0.0
O158 O 0.32926 0.40138 0.13883 0.0
O159 O 0.32997 0.43756 0.14289 0.0
Zn160 Zn 0.43999 0.66355 0.80888 0.0
O161 O 0.43334 0.6301 0.85515 0.0
C162 C 0.4282 0.6776 0.01486 0.0
Zn163 Zn 0.40366 0.67033 0.81821 0.0
C164 C 0.41374 0.62375 0.87469 0.0
O165 O 0.39793 0.63745 0.86596 0.0
C166 C 0.42907 0.70978 0.74396 0.0
O167 O 0.39851 0.66183 0.6649 0.0
O168 O 0.43423 0.65529 0.65532 0.0
N169 N 0.37104 0.67838 0.84115 0.0
C170 C 0.35171 0.66981 0.80821 0.0
C171 C 0.34402 0.69588 0.91287 0.0
N172 N 0.36615 0.69458 0.90596 0.0
N173 N 0.33451 0.68054 0.85222 0.0
C174 C 0.48846 0.64825 0.8585 0.0
C175 C 0.50558 0.65852 0.72313 0.0
N176 N 0.47325 0.65665 0.79253 0.0
N177 N 0.48398 0.66281 0.70814 0.0
N178 N 0.50884 0.64918 0.81655 0.0
H179 H 0.46634 0.6358 -0.02427 0.0
H180 H 0.49475 0.62725 -0.01023 0.0
H181 H 0.48698 0.65499 0.02052 0.0
C182 C 0.48374 0.64103 0.96714 0.0
C183 C 0.34985 0.65025 0.73796 0.0
H184 H 0.36462 0.63958 0.74436 0.0
H185 H 0.33487 0.64052 0.75632 0.0
H186 H 0.3486 0.65607 0.65673 0.0
O187 O 0.40986 0.70297 0.76717 0.0
O188 O 0.44557 0.69711 0.75888 0.0
C189 C 0.41539 0.6566 0.61218 0.0
O190 O 0.44502 0.67233 0.96228 0.0
O191 O 0.40947 0.67872 0.97147 0.0
Zn192 Zn 0.66974 0.63318 0.12327 0.0
O193 O 0.66042 0.63768 0.27673 0.0
C194 C 0.71235 0.61435 0.1988 0.0
Zn195 Zn 0.66749 0.59657 0.13575 0.0
C196 C 0.65724 0.62044 0.33048 0.0
O197 O 0.65811 0.60156 0.28811 0.0
C198 C 0.68015 0.60917 0.92847 0.0
O199 O 0.63335 0.59807 0.08622 0.0
O200 O 0.6364 0.63393 0.07655 0.0
N201 N 0.66515 0.56301 0.15509 0.0
C202 C 0.65508 0.54714 0.09864 0.0
C203 C 0.67216 0.5312 0.22194 0.0
N204 N 0.67562 0.55303 0.23195 0.0
N205 N 0.65916 0.52704 0.13939 0.0
C206 C 0.6786 0.68476 0.13854 0.0
C207 C 0.66574 0.69405 -0.0088 0.0
N208 N 0.67127 0.66625 0.09167 0.0
N209 N 0.66338 0.67218 0.00027 0.0
N210 N 0.67529 0.7026 0.07653 0.0
H211 H 0.68182 0.69928 0.28999 0.0
H212 H 0.70652 0.68653 0.23953 0.0
H213 H 0.68475 0.66965 0.28739 0.0
C214 C 0.68832 0.68508 0.2453 0.0
C215 C 0.64227 0.55111 0.00083 0.0
H216 H 0.64593 0.56733 0.96644 0.0
H217 H 0.62438 0.55051 0.01865 0.0
H218 H 0.64588 0.53804 0.94315 0.0
O219 O 0.67732 0.59202 -0.01739 0.0
O220 O 0.67879 0.62794 0.9707 0.0
C221 C 0.62475 0.61672 0.06575 0.0
O222 O 0.70305 0.63229 0.1718 0.0
O223 O 0.70172 0.5963 0.189 0.0
Zn224 Zn 0.63294 0.36837 0.84212 0.0
O225 O 0.63664 0.37661 0.68804 0.0
C226 C 0.61296 0.32623 0.77343 0.0
Zn227 Zn 0.59622 0.37163 0.83141 0.0
C228 C 0.61946 0.38095 0.63558 0.0
O229 O 0.60063 0.38107 0.67861 0.0
C230 C 0.61009 0.35885 0.03807 0.0
O231 O 0.59855 0.4057 0.88177 0.0
O232 O 0.6344 0.4015 0.88365 0.0
N233 N 0.56237 0.37517 0.81523 0.0
C234 C 0.54664 0.38122 0.88371 0.0
C235 C 0.53067 0.37675 0.73812 0.0
N236 N 0.55236 0.3725 0.72472 0.0
N237 N 0.52673 0.38235 0.83722 0.0
C238 C 0.68336 0.35603 0.82072 0.0
C239 C 0.69699 0.37776 0.93383 0.0
N240 N 0.66641 0.36715 0.86383 0.0
N241 N 0.67499 0.38055 0.93416 0.0
N242 N 0.70269 0.36245 0.86349 0.0
H243 H 0.696 0.34002 0.68423 0.0
H244 H 0.67926 0.32309 0.76688 0.0
H245 H 0.66627 0.34359 0.68646 0.0
C246 C 0.68107 0.33985 0.73389 0.0
C247 C 0.55073 0.38678 -0.00484 0.0
H248 H 0.56709 0.3946 0.00543 0.0
H249 H 0.53777 0.39804 0.02498 0.0
H250 H 0.55023 0.3714 0.04136 0.0
O251 O 0.59276 0.36168 -0.01542 0.0
O252 O 0.62887 0.36032 -0.00427 0.0
C253 C 0.61768 0.41364 0.89824 0.0
O254 O 0.6311 0.33511 0.80025 0.0
O255 O 0.59513 0.33746 0.77898 0.0
Zn256 Zn 0.86617 0.62913 0.58821 0.0
O257 O 0.87527 0.63118 0.43329 0.0
C258 C 0.82589 0.60566 0.52142 0.0
Zn259 Zn 0.8724 0.59278 0.59382 0.0
C260 C 0.88109 0.61333 0.38934 0.0
O261 O 0.88201 0.59548 0.44041 0.0
C262 C 0.85714 0.60865 0.79278 0.0
O263 O 0.9061 0.59759 0.64268 0.0
O264 O 0.89956 0.63301 0.63506 0.0
N265 N 0.87705 0.55908 0.58678 0.0
C266 C 0.88879 0.54472 0.64513 0.0
C267 C 0.87267 0.52615 0.5273 0.0
N268 N 0.86715 0.54745 0.51352 0.0
N269 N 0.88637 0.52389 0.60907 0.0
C270 C 0.85284 0.67955 0.55578 0.0
C271 C 0.86788 0.69236 0.69231 0.0
N272 N 0.86283 0.66257 0.6048 0.0
N273 N 0.87215 0.67071 0.68918 0.0
N274 N 0.85568 0.69859 0.61001 0.0
H275 H 0.83607 0.65951 0.44217 0.0
H276 H 0.85015 0.68284 0.39157 0.0
H277 H 0.82453 0.68678 0.46062 0.0
C278 C 0.83999 0.67699 0.45735 0.0
C279 C 0.90166 0.55099 0.73984 0.0
H280 H 0.89582 0.56679 0.77226 0.0
H281 H 0.91928 0.55292 0.7187 0.0
H282 H 0.90038 0.53796 0.7998 0.0
O283 O 0.86267 0.59081 0.74853 0.0
O284 O 0.8568 0.62647 0.742 0.0
C285 C 0.91283 0.61731 0.65385 0.0
O286 O 0.8332 0.6249 0.54005 0.0
O287 O 0.83824 0.58905 0.5405 0.0
Zn288 Zn 0.63079 0.17133 0.40277 0.0
O289 O 0.63213 0.16202 0.55721 0.0
C290 C 0.60582 0.21154 0.4664 0.0
Zn291 Zn 0.59429 0.1657 0.39534 0.0
C292 C 0.6141 0.15683 0.60082 0.0
O293 O 0.59623 0.15655 0.54948 0.0
C294 C 0.61106 0.1804 0.19725 0.0
O295 O 0.60002 0.13226 0.35008 0.0
O296 O 0.63577 0.13818 0.3536 0.0
N297 N 0.56069 0.1608 0.39901 0.0
C298 C 0.54592 0.15278 0.33014 0.0
C299 C 0.5278 0.16412 0.46104 0.0
N300 N 0.54934 0.16767 0.48045 0.0
N301 N 0.52519 0.15467 0.36751 0.0
C302 C 0.68231 0.16542 0.41104 0.0
C303 C 0.69282 0.19643 0.352 0.0
N304 N 0.66406 0.17779 0.39603 0.0
N305 N 0.67069 0.19706 0.35978 0.0
N306 N 0.70067 0.17669 0.38277 0.0
H307 H 0.68113 0.13037 0.39593 0.0
H308 H 0.69701 0.13999 0.50525 0.0
H309 H 0.66717 0.1408 0.50784 0.0
C310 C 0.68192 0.14288 0.45831 0.0
C311 C 0.55159 0.1451 0.22327 0.0
H312 H 0.54029 0.13179 0.19788 0.0
H313 H 0.54967 0.15911 0.1688 0.0
H314 H 0.56883 0.13911 0.2198 0.0
O315 O 0.59312 0.17486 0.2405 0.0
O316 O 0.62881 0.18092 0.24909 0.0
C317 C 0.61963 0.1252 0.33723 0.0
O318 O 0.62517 0.20394 0.45324 0.0
O319 O 0.58931 0.19946 0.44386 0.0
Zn320 Zn 0.16403 0.43967 0.57632 0.0
O321 O 0.13147 0.43316 0.63079 0.0
C322 C 0.17944 0.42334 0.77449 0.0
Zn323 Zn 0.16931 0.40325 0.5687 0.0
C324 C 0.12396 0.41371 0.64152 0.0
O325 O 0.13616 0.39735 0.6184 0.0
C326 C 0.20912 0.42884 0.49815 0.0
O327 O 0.16003 0.40143 0.41422 0.0
O328 O 0.15345 0.43707 0.42273 0.0
N329 N 0.17689 0.37046 0.57696 0.0
C330 C 0.16802 0.35185 0.53795 0.0
C331 C 0.19446 0.34231 0.63772 0.0
N332 N 0.19335 0.36444 0.63847 0.0
N333 N 0.17876 0.33399 0.57523 0.0
C334 C 0.1508 0.4872 0.64738 0.0
C335 C 0.15286 0.50552 0.50712 0.0
N336 N 0.15722 0.47302 0.57275 0.0
N337 N 0.15838 0.48446 0.48552 0.0
N338 N 0.14797 0.50759 0.60826 0.0
H339 H 0.13484 0.49292 0.7943 0.0
H340 H 0.16209 0.48122 0.80123 0.0
H341 H 0.13908 0.46432 0.76144 0.0
C342 C 0.14632 0.48102 0.75746 0.0
C343 C 0.14827 0.35123 0.46819 0.0
H344 H 0.15393 0.35123 0.38654 0.0
H345 H 0.13771 0.36592 0.48031 0.0
H346 H 0.1385 0.33604 0.48163 0.0
O347 O 0.20185 0.4096 0.51694 0.0
O348 O 0.19704 0.44544 0.51946 0.0
C349 C 0.15429 0.41932 0.37078 0.0
O350 O 0.17475 0.44141 0.73026 0.0
O351 O 0.17891 0.40556 0.72334 0.0
Zn352 Zn 0.40033 0.86281 0.33639 0.0
O353 O 0.3944 0.87026 0.49038 0.0
C354 C 0.42003 0.82061 0.40642 0.0
Zn355 Zn 0.43697 0.86626 0.3509 0.0
C356 C 0.41143 0.87443 0.54461 0.0
O357 O 0.43038 0.87496 0.50266 0.0
C358 C 0.42576 0.85435 0.14261 0.0
O359 O 0.43499 0.90036 0.30438 0.0
O360 O 0.39911 0.89649 0.29742 0.0
N361 N 0.47045 0.86929 0.37769 0.0
C362 C 0.48684 0.87966 0.32607 0.0
C363 C 0.50163 0.86254 0.45232 0.0
N364 N 0.47973 0.85881 0.45644 0.0
N365 N 0.50657 0.87574 0.37171 0.0
C366 C 0.34862 0.85251 0.33756 0.0
C367 C 0.34034 0.86812 0.19489 0.0
N368 N 0.36739 0.8612 0.29869 0.0
N369 N 0.36205 0.87085 0.21027 0.0
N370 N 0.33129 0.85662 0.27318 0.0
H371 H 0.34275 0.85034 0.50021 0.0
H372 H 0.33565 0.82577 0.42861 0.0
H373 H 0.36422 0.83258 0.4551 0.0
C374 C 0.34778 0.83938 0.43563 0.0
C375 C 0.48378 0.89267 0.22839 0.0
H376 H 0.46783 0.88905 0.19057 0.0
H377 H 0.48423 0.91049 0.24745 0.0
H378 H 0.49742 0.88919 0.17349 0.0
O379 O 0.44285 0.85714 0.19775 0.0
O380 O 0.40688 0.85537 0.18397 0.0
C381 C 0.41602 0.90858 0.28682 0.0
O382 O 0.40195 0.82927 0.37679 0.0
O383 O 0.43774 0.83196 0.40142 0.0
Zn384 Zn 0.8676 0.93199 0.6219 0.0
O385 O 0.90067 0.92476 0.57215 0.0
C386 C 0.85057 0.91785 0.42213 0.0
Zn387 Zn 0.85831 0.8964 0.62644 0.0
C388 C 0.90548 0.90455 0.55911 0.0
O389 O 0.89087 0.89011 0.57715 0.0
C390 C 0.82064 0.92275 0.69676 0.0
O391 O 0.86778 0.89309 0.78112 0.0
O392 O 0.87716 0.92815 0.77564 0.0
N393 N 0.85263 0.86346 0.60689 0.0
C394 C 0.84508 0.84612 0.6618 0.0
C395 C 0.85484 0.83412 0.51375 0.0
N396 N 0.85858 0.85584 0.51517 0.0
N397 N 0.84635 0.82732 0.60458 0.0
C398 C 0.88251 0.97931 0.55766 0.0
C399 C 0.8804 0.99707 0.69961 0.0
N400 N 0.87534 0.96503 0.63023 0.0
N401 N 0.87417 0.97611 0.71855 0.0
N402 N 0.88582 0.99941 0.59924 0.0
H403 H 0.8989 0.98535 0.41207 0.0
H404 H 0.87151 0.97415 0.40237 0.0
H405 H 0.89413 0.95668 0.4417 0.0
C406 C 0.88715 0.97351 0.44709 0.0
C407 C 0.83578 0.84819 0.76863 0.0
H408 H 0.82965 0.86516 0.78212 0.0
H409 H 0.84901 0.84489 0.8261 0.0
H410 H 0.82215 0.83626 0.78028 0.0
O411 O 0.82626 0.90293 0.67792 0.0
O412 O 0.83406 0.93838 0.67603 0.0
C413 C 0.87493 0.91034 0.826 0.0
O414 O 0.85787 0.93496 0.46682 0.0
O415 O 0.84847 0.90017 0.47287 0.0
Zn416 Zn 0.90045 0.16101 0.33553 0.0
O417 O 0.89856 0.15256 0.18145 0.0
C418 C 0.91689 0.20434 0.26494 0.0
Zn419 Zn 0.93737 0.1607 0.32862 0.0
C420 C 0.91618 0.14911 0.13082 0.0
O421 O 0.93492 0.15031 0.17527 0.0
C422 C 0.92162 0.17246 0.53376 0.0
O423 O 0.93852 0.12731 0.38342 0.0
O424 O 0.90244 0.12748 0.37507 0.0
N425 N 0.9713 0.16259 0.32203 0.0
C426 C 0.98792 0.1477 0.32403 0.0
C427 C 1.00247 0.17956 0.33311 0.0
N428 N 0.98048 0.18233 0.32733 0.0
N429 N 1.00768 0.15797 0.33198 0.0
C430 C 0.84872 0.1698 0.3226 0.0
C431 C 0.83744 0.14351 0.41818 0.0
N432 N 0.86673 0.15846 0.35401 0.0
N433 N 0.85955 0.14217 0.41321 0.0
N434 N 0.83014 0.16073 0.36224 0.0
H435 H 0.86292 0.1867 0.19273 0.0
H436 H 0.83344 0.19055 0.20734 0.0
H437 H 0.85236 0.20417 0.29408 0.0
C438 C 0.84934 0.18886 0.24935 0.0
C439 C 0.98481 0.12337 0.3116 0.0
H440 H 0.97067 0.12002 0.25922 0.0
H441 H 0.99987 0.11557 0.27937 0.0
H442 H 0.98131 0.11595 0.38832 0.0
O443 O 0.93916 0.17124 0.48091 0.0
O444 O 0.90307 0.16923 0.49075 0.0
C445 C 0.92025 0.11727 0.39358 0.0
O446 O 0.89916 0.19474 0.29259 0.0
O447 O 0.93516 0.1941 0.27344 0.0
Zn448 Zn 0.16676 0.13458 0.60555 0.0
O449 O 0.15759 0.13854 0.75953 0.0
C450 C 0.20971 0.11761 0.67929 0.0
Zn451 Zn 0.16519 0.09792 0.61943 0.0
C452 C 0.1547 0.1213 0.81356 0.0
O453 O 0.15591 0.10239 0.77168 0.0
C454 C 0.17744 0.11132 0.41141 0.0
O455 O 0.13093 0.09762 0.57201 0.0
O456 O 0.13362 0.13351 0.55874 0.0
N457 N 0.16499 0.06423 0.63888 0.0
C458 C 0.1555 0.04772 0.58436 0.0
C459 C 0.17456 0.03295 0.70452 0.0
N460 N 0.17673 0.05496 0.7137 0.0
N461 N 0.1612 0.02793 0.62436 0.0
C462 C 0.17158 0.18628 0.62912 0.0
C463 C 0.15657 0.19614 0.48711 0.0
N464 N 0.16566 0.16779 0.57805 0.0
N465 N 0.15635 0.17405 0.4901 0.0
N466 N 0.16596 0.20445 0.57338 0.0
H467 H 0.17133 0.1887 0.79419 0.0
H468 H 0.19591 0.19954 0.73388 0.0
H469 H 0.19167 0.17016 0.74483 0.0
C470 C 0.18345 0.18617 0.73101 0.0
C471 C 0.1417 0.0509 0.48896 0.0
H472 H 0.14503 0.0669 0.45146 0.0
H473 H 0.12401 0.05047 0.51095 0.0
H474 H 0.14476 0.03745 0.43253 0.0
O475 O 0.17484 0.09413 0.46567 0.0
O476 O 0.17585 0.13013 0.45326 0.0
C477 C 0.12228 0.11609 0.54897 0.0
O478 O 0.20008 0.13532 0.65194 0.0
O479 O 0.19941 0.09936 0.67063 0.0
Zn480 Zn 0.09754 0.87056 0.35436 0.0
O481 O 0.10043 0.90419 0.40058 0.0
C482 C 0.11356 0.85594 0.55371 0.0
Zn483 Zn 0.13417 0.86552 0.34926 0.0
C484 C 0.1198 0.91168 0.41359 0.0
O485 O 0.13614 0.89909 0.39678 0.0
C486 C 0.11231 0.82466 0.28356 0.0
O487 O 0.13633 0.87485 0.19456 0.0
O488 O 0.10025 0.8799 0.2005 0.0
N489 N 0.16783 0.86407 0.37106 0.0
C490 C 0.18616 0.85453 0.33136 0.0
C491 C 0.19595 0.87225 0.46637 0.0
N492 N 0.17417 0.87504 0.4545 0.0
N493 N 0.20409 0.85936 0.39075 0.0
C494 C 0.04889 0.88513 0.40141 0.0
C495 C 0.03086 0.86715 0.28767 0.0
N496 N 0.0637 0.87349 0.34543 0.0
N497 N 0.0524 0.86239 0.27474 0.0
N498 N 0.02817 0.88152 0.36624 0.0
H499 H 0.07019 0.89351 0.52995 0.0
H500 H 0.05666 0.91635 0.46849 0.0
H501 H 0.0412 0.89841 0.55208 0.0
C502 C 0.0546 0.89901 0.49371 0.0
C503 C 0.18612 0.8399 0.23805 0.0
H504 H 0.16936 0.83354 0.22195 0.0
H505 H 0.19143 0.84959 0.16971 0.0
H506 H 0.19778 0.82597 0.24895 0.0
O507 O 0.13153 0.8324 0.29998 0.0
O508 O 0.09547 0.83656 0.3039 0.0
C509 C 0.11823 0.87985 0.15008 0.0
O510 O 0.09561 0.86118 0.50945 0.0
O511 O 0.13138 0.85586 0.50285 0.0
H512 H 0.37796 0.92838 0.22768 0.0
H513 H 0.44772 0.94065 0.26262 0.0
H514 H 0.44255 0.97828 0.19767 0.0
H515 H 0.418 1.00753 0.1263 0.0
H516 H 0.3487 0.99419 0.08901 0.0
H517 H 0.35384 0.95704 0.15878 0.0
C518 C 0.39209 0.93926 0.22177 0.0
C519 C 0.41321 0.93166 0.2505 0.0
C520 C 0.38903 0.96068 0.18352 0.0
C521 C 0.43128 0.94605 0.24136 0.0
C522 C 0.42833 0.96756 0.20409 0.0
C523 C 0.40409 0.99649 0.13507 0.0
C524 C 0.38293 1.00353 0.10421 0.0
C525 C 0.40727 0.97505 0.17455 0.0
C526 C 0.36505 0.98901 0.1129 0.0
C527 C 0.368 0.96785 0.15277 0.0
H528 H 0.92977 0.65748 0.70075 0.0
H529 H 0.94721 0.58856 0.68969 0.0
H530 H 0.98449 0.5974 0.75096 0.0
H531 H 1.01203 0.62493 0.81131 0.0
H532 H 0.99367 0.69344 0.82482 0.0
H533 H 0.95681 0.68456 0.75972 0.0
C534 C 0.9417 0.64432 0.71125 0.0
C535 C 0.93563 0.62236 0.69011 0.0
C536 C 0.96298 0.6495 0.74719 0.0
C537 C 0.95137 0.6056 0.70511 0.0
C538 C 0.97272 0.61066 0.74018 0.0
C539 C 1.00004 0.63788 0.79829 0.0
C540 C 1.00565 0.65989 0.82121 0.0
C541 C 0.97872 0.63257 0.76163 0.0
C542 C 0.98972 0.67645 0.80725 0.0
C543 C 0.96868 0.67136 0.76998 0.0
H544 H 0.62211 0.02554 0.18783 0.0
H545 H 0.69112 0.04106 0.15734 0.0
H546 H 0.68438 0.07836 0.22145 0.0
H547 H 0.65886 0.10674 0.28272 0.0
H548 H 0.58953 0.09189 0.31165 0.0
H549 H 0.59635 0.0542 0.25233 0.0
C550 C 0.63566 0.037 0.19711 0.0
C551 C 0.65716 0.03048 0.16936 0.0
C552 C 0.63158 0.05856 0.23319 0.0
C553 C 0.67448 0.04572 0.17857 0.0
C554 C 0.67063 0.06702 0.21522 0.0
C555 C 0.64523 0.09526 0.27693 0.0
C556 C 0.62373 0.1022 0.30232 0.0
C557 C 0.64924 0.07367 0.24227 0.0
C558 C 0.60627 0.08706 0.29284 0.0
C559 C 0.61015 0.06546 0.25893 0.0
H560 H 0.03309 0.4116 0.88292 0.0
H561 H 0.02456 0.35286 0.70111 0.0
H562 H 0.06088 0.35833 0.62104 0.0
H563 H 0.09545 0.37973 0.60551 0.0
H564 H 0.10253 0.44018 0.77808 0.0
H565 H 0.06657 0.43433 0.85875 0.0
C566 C 0.03928 0.40015 0.8254 0.0
C567 C 0.02639 0.38186 0.79761 0.0
C568 C 0.05991 0.40374 0.77829 0.0
C569 C 0.03431 0.36709 0.72275 0.0
C570 C 0.05504 0.3702 0.67745 0.0
C571 C 0.08906 0.39162 0.66059 0.0
C572 C 0.10168 0.41031 0.68607 0.0
C573 C 0.06806 0.38843 0.70494 0.0
C574 C 0.0931 0.42571 0.75676 0.0
C575 C 0.07256 0.42235 0.80324 0.0
H576 H 0.40889 0.5235 0.01446 0.0
H577 H 0.34011 0.54044 0.04176 0.0
H578 H 0.3478 0.57782 -0.0184 0.0
H579 H 0.37402 0.60586 0.92428 0.0
H580 H 0.44317 0.58968 0.8993 0.0
H581 H 0.43543 0.55189 0.95444 0.0
C582 C 0.3956 0.53531 0.00539 0.0
C583 C 0.37389 0.52916 0.0311 0.0
C584 C 0.40023 0.55694 0.97171 0.0
C585 C 0.35691 0.54481 0.02208 0.0
C586 C 0.3613 0.56616 -0.0123 0.0
C587 C 0.38745 0.5941 0.93063 0.0
C588 C 0.40917 0.6007 0.90752 0.0
C589 C 0.38291 0.57246 0.9629 0.0
C590 C 0.4263 0.58513 0.9165 0.0
C591 C 0.42188 0.56348 0.94805 0.0
H592 H 0.60372 0.65412 0.00676 0.0
H593 H 0.59405 0.58393 0.03378 0.0
H594 H 0.55673 0.58777 0.9621 0.0
H595 H 0.52702 0.61131 0.88638 0.0
H596 H 0.53796 0.68105 0.85617 0.0
H597 H 0.5746 0.67725 0.93445 0.0
C598 C 0.59348 0.6396 -0.00236 0.0
C599 C 0.60175 0.61875 0.02599 0.0
C600 C 0.57222 0.64191 0.9555 0.0
C601 C 0.58815 0.60019 0.0129 0.0
C602 C 0.5668 0.60238 0.97175 0.0
C603 C 0.53746 0.62559 0.89819 0.0
C604 C 0.52992 0.64647 0.86654 0.0
C605 C 0.55868 0.62316 0.94219 0.0
C606 C 0.54357 0.66489 0.88027 0.0
C607 C 0.56444 0.66269 0.92493 0.0
H608 H 0.61972 0.51172 0.07035 0.0
H609 H 0.68791 0.49398 0.11664 0.0
H610 H 0.68097 0.45745 0.04439 0.0
H611 H 0.65593 0.43085 0.96789 0.0
H612 H 0.58726 0.44719 0.92268 0.0
H613 H 0.59398 0.48418 -0.00656 0.0
C614 C 0.63303 0.49989 0.06326 0.0
C615 C 0.6544 0.50557 0.09736 0.0
C616 C 0.62885 0.47879 0.0218 0.0
C617 C 0.67139 0.48992 0.0908 0.0
C618 C 0.66744 0.46911 0.04921 0.0
C619 C 0.64235 0.44246 0.97275 0.0
C620 C 0.62112 0.43626 0.9391 0.0
C621 C 0.64628 0.46341 0.01432 0.0
C622 C 0.60377 0.45154 0.94755 0.0
C623 C 0.60762 0.47267 -0.01189 0.0
H624 H 0.43524 0.38353 0.06212 0.0
H625 H 0.42999 0.44583 0.90345 0.0
H626 H 0.46684 0.44049 0.8294 0.0
H627 H 0.50027 0.41722 0.8052 0.0
H628 H 0.50603 0.35623 0.97244 0.0
H629 H 0.46929 0.36175 0.04782 0.0
C630 C 0.4422 0.396 0.01171 0.0
C631 C 0.42985 0.41499 -0.01217 0.0
C632 C 0.46345 0.39294 0.97066 0.0
C633 C 0.4392 0.43111 0.92336 0.0
C634 C 0.46022 0.428 0.88058 0.0
C635 C 0.49334 0.40528 0.8584 0.0
C636 C 0.50552 0.38628 0.88323 0.0
C637 C 0.47242 0.40887 0.90287 0.0
C638 C 0.49675 0.3709 0.95278 0.0
C639 C 0.47582 0.37408 -0.00446 0.0
H640 H 0.93393 0.43916 0.78653 0.0
H641 H 0.86986 0.41184 0.71515 0.0
H642 H 0.85721 0.44739 0.65376 0.0
H643 H 0.86376 0.48635 0.62016 0.0
H644 H 0.9275 0.51452 0.68409 0.0
H645 H 0.9407 0.4789 0.74908 0.0
C646 C 0.91724 0.44103 0.75741 0.0
C647 C 0.90286 0.42277 0.7569 0.0
C648 C 0.90988 0.46179 0.72144 0.0
C649 C 0.88127 0.42554 0.71839 0.0
C650 C 0.87396 0.44592 0.68263 0.0
C651 C 0.88054 0.48467 0.64843 0.0
C652 C 0.89442 0.50318 0.64945 0.0
C653 C 0.88804 0.46415 0.68411 0.0
C654 C 0.9162 0.50075 0.68567 0.0
C655 C 0.92384 0.48028 0.72173 0.0
H656 H 0.50878 0.11622 0.29688 0.0
H657 H 0.49477 0.18541 0.3282 0.0
H658 H 0.45799 0.17998 0.25361 0.0
H659 H 0.42952 0.15545 0.18573 0.0
H660 H 0.44257 0.08578 0.15759 0.0
H661 H 0.48005 0.09142 0.22377 0.0
C662 C 0.49771 0.13005 0.2854 0.0
C663 C 0.5044 0.15124 0.31632 0.0
C664 C 0.47645 0.12668 0.24378 0.0
C665 C 0.48986 0.16904 0.30406 0.0
C666 C 0.46889 0.16591 0.2617 0.0
C667 C 0.44055 0.14146 0.19344 0.0
C668 C 0.43317 0.12021 0.16664 0.0
C669 C 0.46194 0.14478 0.23225 0.0
C670 C 0.44777 0.10232 0.17754 0.0
C671 C 0.46922 0.10553 0.21548 0.0
H672 H 0.146 0.59425 0.87007 0.0
H673 H 0.08629 0.60456 0.69438 0.0
H674 H 0.09124 0.56878 0.60933 0.0
H675 H 0.11402 0.53531 0.57809 0.0
H676 H 0.17266 0.52481 0.75988 0.0
H677 H 0.16686 0.55995 0.84946 0.0
C678 C 0.13394 0.58856 0.81391 0.0
C679 C 0.11586 0.60204 0.78819 0.0
C680 C 0.13687 0.56803 0.76592 0.0
C681 C 0.10026 0.5944 0.716 0.0
C682 C 0.10319 0.57403 0.66679 0.0
C683 C 0.12535 0.54083 0.63771 0.0
C684 C 0.14376 0.52777 0.66274 0.0
C685 C 0.12164 0.56086 0.68992 0.0
C686 C 0.15838 0.53474 0.74033 0.0
C687 C 0.15507 0.55476 0.79114 0.0
H688 H 0.60525 0.8796 0.23239 0.0
H689 H 0.58991 0.94855 0.19382 0.0
H690 H 0.55187 0.9416 0.25071 0.0
H691 H 0.5229 0.91546 0.31232 0.0
H692 H 0.53975 0.84702 0.35305 0.0
H693 H 0.57734 0.85424 0.29479 0.0
C694 C 0.59365 0.89321 0.23597 0.0
C695 C 0.60046 0.91457 0.20803 0.0
C696 C 0.57203 0.88911 0.26925 0.0
C697 C 0.58514 0.93194 0.2146 0.0
C698 C 0.56338 0.92795 0.24702 0.0
C699 C 0.5348 0.90218 0.30714 0.0
C700 C 0.52853 0.88065 0.3357 0.0
C701 C 0.55659 0.90655 0.27432 0.0
C702 C 0.54423 0.86366 0.33137 0.0
C703 C 0.56568 0.86778 0.29792 0.0
H704 H 0.92071 0.02595 0.62921 0.0
H705 H 0.8609 0.01817 0.45293 0.0
H706 H 0.86698 0.0538 0.36857 0.0
H707 H 0.88833 0.08776 0.35177 0.0
H708 H 0.94929 0.09547 0.52063 0.0
H709 H 0.94411 0.05911 0.6002 0.0
C710 C 0.9092 0.03217 0.57183 0.0
C711 C 0.89035 0.01976 0.547 0.0
C712 C 0.91307 0.05249 0.52251 0.0
C713 C 0.87549 0.02761 0.47231 0.0
C714 C 0.87897 0.0479 0.42449 0.0
C715 C 0.9006 0.08139 0.40528 0.0
C716 C 0.91906 0.0943 0.43108 0.0
C717 C 0.89757 0.06056 0.4498 0.0
C718 C 0.93498 0.08577 0.49942 0.0
C719 C 0.93193 0.06507 0.54539 0.0
H720 H 0.10856 0.14443 0.40343 0.0
H721 H 0.08541 0.09194 0.59948 0.0
H722 H 0.04727 0.09904 0.54263 0.0
H723 H 0.02041 0.12305 0.45014 0.0
H724 H 0.04465 0.17453 0.2507 0.0
H725 H 0.08259 0.165 0.296 0.0
C726 C 0.09517 0.13439 0.43306 0.0
C727 C 0.09965 0.11794 0.5067 0.0
C728 C 0.07354 0.13848 0.39959 0.0
C729 C 0.08229 0.10476 0.54299 0.0
C730 C 0.06052 0.1089 0.51077 0.0
C731 C 0.03399 0.13164 0.41385 0.0
C732 C 0.0297 0.1494 0.34622 0.0
C733 C 0.05589 0.12605 0.44062 0.0
C734 C 0.04756 0.16083 0.30271 0.0
C735 C 0.06923 0.15543 0.3288 0.0
H736 H 0.15873 0.92999 0.47142 0.0
H737 H 0.0894 0.94488 0.43885 0.0
H738 H 0.09605 0.98247 0.50038 0.0
H739 H 0.12174 1.01109 0.56584 0.0
H740 H 0.19071 0.99546 0.60015 0.0
H741 H 0.18402 0.95809 0.53668 0.0
C742 C 0.14503 0.94144 0.4773 0.0
C743 C 0.1236 0.93459 0.45001 0.0
C744 C 0.14893 0.96291 0.51343 0.0
C745 C 0.10607 0.94967 0.45918 0.0
C746 C 0.10986 0.97119 0.49437 0.0
C747 C 0.13528 0.99955 0.55788 0.0
C748 C 0.15677 1.00607 0.58598 0.0
C749 C 0.13124 0.97801 0.52175 0.0
C750 C 0.17409 0.99077 0.57861 0.0
C751 C 0.17027 0.96946 0.54215 0.0
H752 H 0.99182 0.85768 0.39598 0.0
H753 H 0.01757 0.92354 0.41919 0.0
H754 H 0.98179 0.93686 0.48205 0.0
H755 H 0.94278 0.92958 0.52919 0.0
H756 H 0.91778 0.86313 0.50461 0.0
H757 H 0.95341 0.85036 0.4431 0.0
C758 C 0.98953 0.87494 0.41496 0.0
C759 C 1.00734 0.88952 0.40477 0.0
C760 C 0.96896 0.88241 0.45052 0.0
C761 C 1.00424 0.91189 0.42911 0.0
C762 C 0.98373 0.91952 0.46415 0.0
C763 C 0.94516 0.91232 0.51041 0.0
C764 C 0.92753 0.89739 0.52186 0.0
C765 C 0.96592 0.90491 0.47528 0.0
C766 C 0.93097 0.87506 0.4971 0.0
C767 C 0.95139 0.86767 0.46168 0.0
H768 H 0.37698 0.2334 0.21811 0.0
H769 H 0.32557 0.22099 -0.00635 0.0
H770 H 0.32163 0.26034 0.96416 0.0
H771 H 0.33365 0.29861 -0.0017 0.0
H772 H 0.38282 0.31106 0.23202 0.0
H773 H 0.38616 0.27142 0.26512 0.0
C774 C 0.3648 0.2392 0.16288 0.0
C775 C 0.3524 0.22386 0.10461 0.0
C776 C 0.36193 0.26198 0.14956 0.0
C777 C 0.33642 0.23195 0.03511 0.0
C778 C 0.3338 0.25464 0.01967 0.0
C779 C 0.34479 0.29254 0.05765 0.0
C780 C 0.35783 0.30762 0.11353 0.0
C781 C 0.34665 0.26978 0.07559 0.0
C782 C 0.37232 0.29975 0.18986 0.0
C783 C 0.3744 0.27711 0.20769 0.0
H784 H 0.30452 0.67973 0.00458 0.0
H785 H 0.31192 0.6749 0.67373 0.0
H786 H 0.27199 0.67071 0.6537 0.0
H787 H 0.23513 0.66855 0.73021 0.0
H788 H 0.22759 0.67118 0.06197 0.0
H789 H 0.26725 0.67682 0.08193 0.0
C790 C 0.29729 0.67768 0.92833 0.0
C791 C 0.31111 0.67718 0.8408 0.0
C792 C 0.27431 0.67531 0.91766 0.0
C793 C 0.30167 0.67468 0.74222 0.0
C794 C 0.27884 0.67254 0.73081 0.0
C795 C 0.24213 0.67041 0.80704 0.0
C796 C 0.22815 0.67003 0.89419 0.0
C797 C 0.26503 0.67281 0.81799 0.0
C798 C 0.2376 0.67232 -0.00686 0.0
C799 C 0.26042 0.67517 0.00469 0.0
H800 H 0.69862 0.8006 0.19426 0.0
H801 H 0.64708 0.81306 0.97207 0.0
H802 H 0.64348 0.77342 0.93947 0.0
H803 H 0.6531 0.73546 -0.01523 0.0
H804 H 0.70699 0.72303 0.19618 0.0
H805 H 0.71118 0.76237 0.22488 0.0
C806 C 0.68692 0.79452 0.13741 0.0
C807 C 0.67325 0.80954 0.0848 0.0
C808 C 0.68495 0.77179 0.11968 0.0
C809 C 0.65803 0.80172 0.01165 0.0
C810 C 0.65581 0.77911 -0.00584 0.0
C811 C 0.66587 0.74126 0.03693 0.0
C812 C 0.6789 0.72595 0.09223 0.0
C813 C 0.66889 0.764 0.04938 0.0
C814 C 0.69566 0.734 0.15757 0.0
C815 C 0.69842 0.75667 0.17239 0.0
H816 H 0.79673 0.31989 0.84911 0.0
H817 H 0.81433 0.38745 0.78826 0.0
H818 H 0.77566 0.39812 0.79257 0.0
H819 H 0.73668 0.3885 0.82006 0.0
H820 H 0.71829 0.3208 0.86591 0.0
H821 H 0.75726 0.30965 0.85766 0.0
C822 C 0.79205 0.33693 0.83667 0.0
C823 C 0.80857 0.35304 0.8245 0.0
C824 C 0.7696 0.34281 0.83495 0.0
C825 C 0.80221 0.37495 0.80513 0.0
C826 C 0.78 0.381 0.8054 0.0
C827 C 0.74132 0.3713 0.82668 0.0
C828 C 0.72488 0.35543 0.84316 0.0
C829 C 0.7636 0.36514 0.82174 0.0
C830 C 0.73079 0.33316 0.8517 0.0
C831 C 0.75302 0.32688 0.848 0.0
H832 H 0.85008 0.72959 0.75555 0.0
H833 H 0.84647 0.71933 0.42489 0.0
H834 H 0.83839 0.75801 0.39953 0.0
H835 H 0.83712 0.79552 0.46789 0.0
H836 H 0.84871 0.80663 0.79373 0.0
H837 H 0.84848 0.76716 0.82423 0.0
C838 C 0.84733 0.73571 0.67773 0.0
C839 C 0.84847 0.72106 0.59276 0.0
C840 C 0.84417 0.75839 0.66282 0.0
C841 C 0.8449 0.72952 0.49271 0.0
C842 C 0.84063 0.75194 0.47778 0.0
C843 C 0.83931 0.78936 0.54604 0.0
C844 C 0.84251 0.80435 0.62835 0.0
C845 C 0.84084 0.76657 0.56197 0.0
C846 C 0.84538 0.79593 0.72893 0.0
C847 C 0.84569 0.77317 0.74625 0.0
H848 H 0.79512 0.13485 0.33208 0.0
H849 H 0.81433 0.2021 0.38721 0.0
H850 H 0.77547 0.21298 0.40051 0.0
H851 H 0.73607 0.20287 0.40394 0.0
H852 H 0.71709 0.13587 0.33734 0.0
H853 H 0.75567 0.12521 0.32431 0.0
C854 C 0.79069 0.15192 0.34577 0.0
C855 C 0.80747 0.16772 0.35707 0.0
C856 C 0.76838 0.15794 0.35409 0.0
C857 C 0.80167 0.18978 0.3755 0.0
C858 C 0.77948 0.19592 0.38446 0.0
C859 C 0.74039 0.18591 0.38694 0.0
C860 C 0.72356 0.17003 0.37677 0.0
C861 C 0.76271 0.18007 0.37511 0.0
C862 C 0.72949 0.14823 0.35213 0.0
C863 C 0.75165 0.14219 0.34238 0.0
H864 H 0.17462 0.30302 0.72045 0.0
H865 H 0.17514 0.31348 0.3909 0.0
H866 H 0.172 0.27366 0.36144 0.0
H867 H 0.17017 0.23606 0.43031 0.0
H868 H 0.16597 0.22597 0.76046 0.0
H869 H 0.17018 0.26534 0.78935 0.0
C870 C 0.17387 0.29646 0.6424 0.0
C871 C 0.17492 0.31096 0.55777 0.0
C872 C 0.17193 0.27366 0.62653 0.0
C873 C 0.17395 0.30253 0.45679 0.0
C874 C 0.17238 0.27982 0.44021 0.0
C875 C 0.1702 0.24243 0.50875 0.0
C876 C 0.16874 0.22774 0.59306 0.0
C877 C 0.17151 0.26525 0.5246 0.0
C878 C 0.16838 0.23644 0.69402 0.0
C879 C 0.17032 0.25913 0.71063 0.0
H880 H 0.30589 0.85309 0.44673 0.0
H881 H 0.30353 0.85032 0.11317 0.0
H882 H 0.26335 0.84912 0.11807 0.0
H883 H 0.22895 0.85338 0.21696 0.0
H884 H 0.2316 0.85271 0.55068 0.0
H885 H 0.27167 0.85019 0.54563 0.0
C886 C 0.29684 0.8512 0.37515 0.0
C887 C 0.30798 0.8517 0.27978 0.0
C888 C 0.27365 0.85016 0.37836 0.0
C889 C 0.29546 0.85014 0.18789 0.0
C890 C 0.27243 0.84945 0.19046 0.0
C891 C 0.2381 0.85176 0.28851 0.0
C892 C 0.22711 0.85328 0.38405 0.0
C893 C 0.26129 0.85006 0.28527 0.0
C894 C 0.23961 0.85181 0.47593 0.0
C895 C 0.26257 0.85038 0.47327 0.0
H896 H 0.23305 0.08454 0.77564 0.0
H897 H 0.23593 0.1538 0.70049 0.0
H898 H 0.27026 0.15738 0.79721 0.0
H899 H 0.29942 0.14123 0.90505 0.0
H900 H 0.29759 0.07191 -0.02212 0.0
H901 H 0.26295 0.0681 0.88157 0.0
C902 C 0.2413 0.10036 0.77946 0.0
C903 C 0.2318 0.11883 0.73012 0.0
C904 C 0.26116 0.10241 0.83616 0.0
C905 C 0.24275 0.13924 0.73702 0.0
C906 C 0.26241 0.14136 0.79292 0.0
C907 C 0.29135 0.12531 0.9009 0.0
C908 C 0.30104 0.10694 0.94986 0.0
C909 C 0.27167 0.12313 0.84357 0.0
C910 C 0.29048 0.08637 0.9417 0.0
C911 C 0.27069 0.08416 0.88616 0.0
H912 H 0.08543 0.73574 0.05612 0.0
H913 H 0.15466 0.73745 -0.02218 0.0
H914 H 0.1591 0.77157 0.07462 0.0
H915 H 0.14378 0.80075 0.18389 0.0
H916 H 0.07458 0.80006 0.26131 0.0
H917 H 0.06981 0.76576 0.16393 0.0
C918 C 0.10142 0.74371 0.0592 0.0
C919 C 0.11965 0.73393 0.0091 0.0
C920 C 0.10399 0.76343 0.11627 0.0
C921 C 0.14029 0.74449 0.01514 0.0
C922 C 0.14291 0.76402 0.07104 0.0
C923 C 0.12767 0.79303 0.1805 0.0
C924 C 0.10963 0.80294 0.23107 0.0
C925 C 0.12496 0.77353 0.12278 0.0
C926 C 0.08882 0.79278 0.22394 0.0
C927 C 0.08605 0.77318 0.16775 0.0
H928 H 0.73243 0.95257 0.92512 0.0
H929 H 0.73926 0.88661 0.0467 0.0
H930 H 0.77308 0.88148 0.94935 0.0
H931 H 0.79987 0.89457 0.82426 0.0
H932 H 0.79531 0.96063 0.70396 0.0
H933 H 0.76152 0.96681 0.80524 0.0
C934 C 0.74154 0.93725 0.93153 0.0
C935 C 0.73313 0.91998 -0.00687 0.0
C936 C 0.76121 0.93424 0.87408 0.0
C937 C 0.74515 0.90017 -0.00024 0.0
C938 C 0.76452 0.89714 0.94367 0.0
C939 C 0.79143 0.9103 0.81921 0.0
C940 C 0.79987 0.92694 0.75478 0.0
C941 C 0.77246 0.91384 0.87914 0.0
C942 C 0.78902 0.94743 0.75193 0.0
C943 C 0.76973 0.95098 0.81018 0.0
H944 H 0.89451 0.29238 0.02734 0.0
H945 H 0.96472 0.29182 0.97298 0.0
H946 H 0.96811 0.2577 0.07407 0.0
H947 H 0.95077 0.22781 0.17687 0.0
H948 H 0.88062 0.23014 0.23427 0.0
H949 H 0.87768 0.26394 0.13407 0.0
C950 C 0.91059 0.28475 0.03654 0.0
C951 C 0.9293 0.29452 -0.00896 0.0
C952 C 0.91245 0.26554 0.09642 0.0
C953 C 0.95002 0.28458 0.00618 0.0
C954 C 0.95196 0.26511 0.06436 0.0
C955 C 0.93487 0.23583 0.16839 0.0
C956 C 0.91591 0.22626 0.21326 0.0
C957 C 0.93325 0.25544 0.11007 0.0
C958 C 0.89548 0.23695 0.2009 0.0
C959 C 0.89375 0.25631 0.1431 0.0
H960 H 0.29769 0.45315 0.25993 0.0
H961 H 0.29232 0.3844 0.177 0.0
H962 H 0.25851 0.38129 0.27666 0.0
H963 H 0.23093 0.39735 0.39094 0.0
H964 H 0.23462 0.46611 0.47324 0.0
H965 H 0.26859 0.46986 0.37141 0.0
C966 C 0.28895 0.43758 0.26259 0.0
C967 C 0.29769 0.41904 0.21061 0.0
C968 C 0.26935 0.43578 0.32133 0.0
C969 C 0.28614 0.39896 0.21593 0.0
C970 C 0.26678 0.3971 0.27344 0.0
C971 C 0.23921 0.41317 0.38764 0.0
C972 C 0.23034 0.43135 0.44121 0.0
C973 C 0.25839 0.41528 0.32751 0.0
C974 C 0.24115 0.45179 0.43372 0.0
C975 C 0.26054 0.45394 0.37506 0.0
H976 H 0.39769 0.73146 0.63504 0.0
H977 H 0.46623 0.73558 0.72283 0.0
H978 H 0.47003 0.76973 0.62246 0.0
H979 H 0.45344 0.79883 0.51053 0.0
H980 H 0.38509 0.79271 0.41924 0.0
H981 H 0.38185 0.75891 0.51867 0.0
C982 C 0.41345 0.7399 0.63327 0.0
C983 C 0.43155 0.73112 0.68809 0.0
C984 C 0.41563 0.75912 0.57341 0.0
C985 C 0.45196 0.74206 0.68238 0.0
C986 C 0.45415 0.76156 0.62455 0.0
C987 C 0.43793 0.78994 0.51127 0.0
C988 C 0.41954 0.7985 0.45703 0.0
C989 C 0.43608 0.77026 0.56941 0.0
C990 C 0.39956 0.7867 0.45978 0.0
C991 C 0.39761 0.76733 0.51724 0.0
H992 H 0.73596 0.58075 0.29266 0.0
H993 H 0.7386 0.65029 0.22262 0.0
H994 H 0.77291 0.65365 0.3189 0.0
H995 H 0.80192 0.63749 0.42551 0.0
H996 H 0.80115 0.56794 0.49322 0.0
H997 H 0.76641 0.56406 0.39672 0.0
C998 C 0.74417 0.59658 0.29753 0.0
C999 C 0.73452 0.61522 0.24977 0.0
C1000 C 0.76416 0.59851 0.35392 0.0
C1001 C 0.74546 0.63561 0.25791 0.0
C1002 C 0.76513 0.63761 0.31357 0.0
C1003 C 0.79417 0.62145 0.42008 0.0
C1004 C 0.80414 0.60309 0.46797 0.0
C1005 C 0.77452 0.61927 0.36269 0.0
C1006 C 0.79384 0.58241 0.45807 0.0
C1007 C 0.77399 0.58018 0.40241 0.0
H1008 H 0.63579 0.23343 0.58204 0.0
H1009 H 0.56909 0.23841 0.46756 0.0
H1010 H 0.56474 0.27397 0.5561 0.0
H1011 H 0.58049 0.30417 0.66436 0.0
H1012 H 0.64694 0.29721 0.78172 0.0
H1013 H 0.65061 0.26194 0.69482 0.0
C1014 C 0.62031 0.24233 0.57559 0.0
C1015 C 0.60291 0.23339 0.5168 0.0
C1016 C 0.61781 0.26242 0.62818 0.0
C1017 C 0.58282 0.24498 0.51155 0.0
C1018 C 0.58032 0.2653 0.56246 0.0
C1019 C 0.59565 0.29479 0.67188 0.0
C1020 C 0.61346 0.30355 0.72925 0.0
C1021 C 0.59774 0.27423 0.62113 0.0
C1022 C 0.63301 0.29112 0.73763 0.0
C1023 C 0.63517 0.27088 0.68771 0.0
H1024 H 0.36068 0.14023 0.40183 0.0
H1025 H 0.35232 0.06957 0.39114 0.0
H1026 H 0.36083 0.06721 0.57581 0.0
H1027 H 0.37167 0.08506 0.73643 0.0
H1028 H 0.37989 0.15575 0.74773 0.0
H1029 H 0.3713 0.15814 0.56307 0.0
C1030 C 0.36029 0.12433 0.44013 0.0
C1031 C 0.35581 0.10508 0.38346 0.0
C1032 C 0.36588 0.12304 0.54466 0.0
C1033 C 0.35563 0.08459 0.4337 0.0
C1034 C 0.36074 0.08322 0.53865 0.0
C1035 C 0.37198 0.10099 0.69839 0.0
C1036 C 0.37655 0.12021 0.75515 0.0
C1037 C 0.36631 0.1023 0.59403 0.0
C1038 C 0.3766 0.14072 0.70509 0.0
C1039 C 0.37143 0.14212 0.60016 0.0
H1040 H 0.08688 0.66435 0.55531 0.0
H1041 H 0.15007 0.69677 0.57514 0.0
H1042 H 0.1564 0.68996 0.39092 0.0
H1043 H 0.14444 0.67364 0.22771 0.0
H1044 H 0.08148 0.64063 0.20871 0.0
H1045 H 0.07496 0.64791 0.39227 0.0
C1046 C 0.10178 0.67036 0.5187 0.0
C1047 C 0.11789 0.68123 0.5774 0.0
C1048 C 0.10569 0.66553 0.4148 0.0
C1049 C 0.13738 0.68857 0.53021 0.0
C1050 C 0.14112 0.68442 0.42574 0.0
C1051 C 0.12953 0.66759 0.26435 0.0
C1052 C 0.11355 0.65642 0.20591 0.0
C1053 C 0.1256 0.67247 0.36815 0.0
C1054 C 0.09407 0.64908 0.25323 0.0
C1055 C 0.09022 0.65349 0.35737 0.0
H1056 H 0.65805 0.94818 0.44445 0.0
H1057 H 0.70164 0.89208 0.42762 0.0
H1058 H 0.69559 0.88449 0.6114 0.0
H1059 H 0.677 0.89327 0.77413 0.0
H1060 H 0.63319 0.94923 0.79045 0.0
H1061 H 0.63941 0.95692 0.60695 0.0
C1062 C 0.66666 0.93467 0.48183 0.0
C1063 C 0.68052 0.9209 0.42402 0.0
C1064 C 0.66236 0.92989 0.58558 0.0
C1065 C 0.69115 0.90304 0.47194 0.0
C1066 C 0.68744 0.89852 0.57615 0.0
C1067 C 0.66837 0.90677 0.73666 0.0
C1068 C 0.65441 0.92048 0.79431 0.0
C1069 C 0.67269 0.91155 0.63293 0.0
C1070 C 0.64377 0.93832 0.74631 0.0
C1071 C 0.64757 0.9429 0.64225 0.0
H1072 H 0.94698 0.36031 0.19495 0.0
H1073 H 0.87753 0.37607 0.18366 0.0
H1074 H 0.87422 0.36798 0.36852 0.0
H1075 H 0.89094 0.35566 0.53008 0.0
H1076 H 0.96025 0.33928 0.54103 0.0
H1077 H 0.96365 0.34764 0.35649 0.0
C1078 C 0.93123 0.36247 0.23351 0.0
C1079 C 0.91257 0.36906 0.17697 0.0
C1080 C 0.92932 0.357 0.33794 0.0
C1081 C 0.89213 0.37126 0.2267 0.0
C1082 C 0.89019 0.36638 0.3316 0.0
C1083 C 0.9067 0.35346 0.49168 0.0
C1084 C 0.92534 0.34682 0.54831 0.0
C1085 C 0.9086 0.35886 0.38721 0.0
C1086 C 0.94573 0.34439 0.49834 0.0
C1087 C 0.94769 0.34935 0.39348 0.0
H1088 H 0.35462 0.3913 0.4251 0.0
H1089 H 0.39582 0.44911 0.40768 0.0
H1090 H 0.38924 0.45669 0.59104 0.0
H1091 H 0.37104 0.44728 0.75378 0.0
H1092 H 0.33012 0.38931 0.77157 0.0
H1093 H 0.33647 0.38186 0.58786 0.0
C1094 C 0.3626 0.40522 0.46221 0.0
C1095 C 0.37593 0.41946 0.40424 0.0
C1096 C 0.35808 0.4099 0.56587 0.0
C1097 C 0.38573 0.4378 0.45195 0.0
C1098 C 0.38172 0.4423 0.55597 0.0
C1099 C 0.36306 0.43336 0.71664 0.0
C1100 C 0.34987 0.41904 0.77472 0.0
C1101 C 0.36756 0.42871 0.61291 0.0
C1102 C 0.34008 0.40069 0.72707 0.0
C1103 C 0.34397 0.39627 0.62289 0.0
H1104 H 0.39422 0.67227 0.14538 0.0
H1105 H 0.46492 0.68115 0.13621 0.0
H1106 H 0.46726 0.67292 0.32116 0.0
H1107 H 0.44933 0.66224 0.48172 0.0
H1108 H 0.37861 0.65346 0.49108 0.0
H1109 H 0.37626 0.66178 0.30618 0.0
C1110 C 0.41012 0.67283 0.18408 0.0
C1111 C 0.4294 0.67736 0.12786 0.0
C1112 C 0.41139 0.66741 0.28867 0.0
C1113 C 0.44989 0.67775 0.1785 0.0
C1114 C 0.45125 0.67282 0.28358 0.0
C1115 C 0.43342 0.66172 0.44307 0.0
C1116 C 0.41417 0.65708 0.49922 0.0
C1117 C 0.43215 0.66721 0.33858 0.0
C1118 C 0.39365 0.65682 0.44872 0.0
C1119 C 0.39228 0.66182 0.34371 0.0
H1120 H 0.67363 0.64273 0.79587 0.0
H1121 H 0.68419 0.57234 0.8083 0.0
H1122 H 0.67553 0.5695 0.62386 0.0
H1123 H 0.66392 0.58684 0.46286 0.0
H1124 H 0.6532 0.65722 0.45083 0.0
H1125 H 0.66198 0.66005 0.6351 0.0
C1126 C 0.67443 0.62677 0.75812 0.0
C1127 C 0.67966 0.60776 0.81524 0.0
C1128 C 0.66866 0.62518 0.65389 0.0
C1129 C 0.68039 0.58721 0.76546 0.0
C1130 C 0.67516 0.58555 0.66065 0.0
C1131 C 0.66309 0.60279 0.5007 0.0
C1132 C 0.65779 0.62181 0.44371 0.0
C1133 C 0.66886 0.60438 0.60495 0.0
C1134 C 0.65706 0.64234 0.49356 0.0
C1135 C 0.66235 0.644 0.59828 0.0
H1136 H 0.58669 0.3707 0.50456 0.0
H1137 H 0.65544 0.38935 0.5162 0.0
H1138 H 0.65899 0.38176 0.33106 0.0
H1139 H 0.64278 0.36907 0.16964 0.0
H1140 H 0.57419 0.34988 0.15809 0.0
H1141 H 0.57054 0.35767 0.34301 0.0
C1142 C 0.60235 0.37356 0.46619 0.0
C1143 C 0.62074 0.3808 0.52287 0.0
C1144 C 0.60444 0.36842 0.36162 0.0
C1145 C 0.64104 0.38398 0.47316 0.0
C1146 C 0.64313 0.3794 0.36808 0.0
C1147 C 0.62711 0.36619 0.20777 0.0
C1148 C 0.60874 0.35893 0.15092 0.0
C1149 C 0.62503 0.37125 0.31236 0.0
C1150 C 0.5885 0.3555 0.20084 0.0
C1151 C 0.58638 0.36013 0.30593 0.0
H1152 H 0.88018 0.58405 0.92704 0.0
H1153 H 0.83333 0.63747 0.90818 0.0
H1154 H 0.83867 0.64538 0.0923 0.0
H1155 H 0.85758 0.63772 0.25577 0.0
H1156 H 0.90478 0.58455 0.27349 0.0
H1157 H 0.89917 0.57648 0.08984 0.0
C1158 C 0.87075 0.59706 0.96389 0.0
C1159 C 0.85618 0.60999 0.90545 0.0
C1160 C 0.87464 0.60207 0.06775 0.0
C1161 C 0.84443 0.62717 0.9529 0.0
C1162 C 0.84771 0.63188 0.05733 0.0
C1163 C 0.86705 0.62475 0.2186 0.0
C1164 C 0.88179 0.61192 0.27668 0.0
C1165 C 0.86315 0.61974 0.1147 0.0
C1166 C 0.89356 0.59477 0.22906 0.0
C1167 C 0.89013 0.58997 0.1249 0.0
H1168 H 0.63963 0.17903 0.73408 0.0
H1169 H 0.58438 0.13436 0.71653 0.0
H1170 H 0.57691 0.14 0.90061 0.0
H1171 H 0.58562 0.15832 0.0633 0.0
H1172 H 0.64089 0.20291 0.08173 0.0
H1173 H 0.64835 0.19737 0.89744 0.0
C1174 C 0.62631 0.17012 0.77132 0.0
C1175 C 0.61273 0.15609 0.7133 0.0
C1176 C 0.62166 0.17408 0.87534 0.0
C1177 C 0.59516 0.14503 0.76098 0.0
C1178 C 0.59072 0.14848 0.86535 0.0
C1179 C 0.59894 0.16725 0.0264 0.0
C1180 C 0.61252 0.18121 0.0847 0.0
C1181 C 0.6036 0.1633 0.92246 0.0
C1182 C 0.6301 0.19227 0.03714 0.0
C1183 C 0.63454 0.18888 0.93263 0.0
H1184 H 0.1774 0.39434 0.23806 0.0
H1185 H 0.13175 0.44887 0.25331 0.0
H1186 H 0.13783 0.45663 0.0698 0.0
H1187 H 0.15668 0.44827 0.90823 0.0
H1188 H 0.20217 0.39376 0.89136 0.0
H1189 H 0.19634 0.38606 0.07536 0.0
C1190 C 0.16838 0.40756 0.20047 0.0
C1191 C 0.1539 0.42084 0.2579 0.0
C1192 C 0.17258 0.41239 0.09665 0.0
C1193 C 0.14274 0.4383 0.20955 0.0
C1194 C 0.14644 0.44291 0.10544 0.0
C1195 C 0.16579 0.43514 0.94532 0.0
C1196 C 0.18014 0.42188 0.88744 0.0
C1197 C 0.16165 0.43032 0.04906 0.0
C1198 C 0.19131 0.40437 0.93553 0.0
C1199 C 0.18773 0.39979 0.03991 0.0
H1200 H 0.39161 0.85596 0.00969 0.0
H1201 H 0.46291 0.85484 0.02276 0.0
H1202 H 0.46452 0.86338 0.838 0.0
H1203 H 0.44571 0.87238 0.67702 0.0
H1204 H 0.37441 0.87376 0.66474 0.0
H1205 H 0.37283 0.865 0.84914 0.0
C1206 C 0.40756 0.85727 0.97217 0.0
C1207 C 0.42714 0.85477 0.02951 0.0
C1208 C 0.40835 0.86297 0.86791 0.0
C1209 C 0.44763 0.85656 -0.0202 0.0
C1210 C 0.44855 0.86172 0.87483 0.0
C1211 C 0.42978 0.87113 0.71474 0.0
C1212 C 0.41017 0.87379 0.6577 0.0
C1213 C 0.42901 0.86539 0.81903 0.0
C1214 C 0.3897 0.87194 0.70749 0.0
C1215 C 0.3888 0.86665 0.81226 0.0
H1216 H 0.87695 0.93906 0.28929 0.0
H1217 H 0.82361 0.89223 0.30462 0.0
H1218 H 0.82826 0.88377 0.12056 0.0
H1219 H 0.84829 0.88906 0.95787 0.0
H1220 H 0.90175 0.93584 0.94387 0.0
H1221 H 0.89691 0.94439 0.12751 0.0
C1222 C 0.86595 0.92748 0.25167 0.0
C1223 C 0.8497 0.91659 0.30916 0.0
C1224 C 0.86935 0.92208 0.14783 0.0
C1225 C 0.836 0.90104 0.26069 0.0
C1226 C 0.83887 0.89598 0.15628 0.0
C1227 C 0.85925 0.90067 -0.00407 0.0
C1228 C 0.87561 0.91154 0.93888 0.0
C1229 C 0.85581 0.90607 0.09985 0.0
C1230 C 0.88929 0.92706 -0.01247 0.0
C1231 C 0.88632 0.93217 0.09169 0.0
H1232 H 0.94731 0.16328 -0.00019 0.0
H1233 H 0.88172 0.13568 0.01177 0.0
H1234 H 0.87683 0.14287 0.82696 0.0
H1235 H 0.89079 0.15794 0.66561 0.0
H1236 H 0.95637 0.18562 0.65292 0.0
H1237 H 0.96137 0.17827 0.83763 0.0
C1238 C 0.93215 0.15836 0.96137 0.0
C1239 C 0.91497 0.14877 0.01812 0.0
C1240 C 0.92919 0.16326 0.85686 0.0
C1241 C 0.89521 0.1429 0.96856 0.0
C1242 C 0.89232 0.14726 0.86368 0.0
C1243 C 0.90602 0.16278 0.70358 0.0
C1244 C 0.92314 0.17246 0.64661 0.0
C1245 C 0.90903 0.15783 0.8079 0.0
C1246 C 0.94292 0.1783 0.69607 0.0
C1247 C 0.94588 0.17387 0.80095 0.0
H1248 H 0.16224 0.08807 0.94656 0.0
H1249 H 0.1494 0.15807 0.93269 0.0
H1250 H 0.15788 0.16136 0.1171 0.0
H1251 H 0.16992 0.14454 0.27838 0.0
H1252 H 0.18273 0.07453 0.29233 0.0
H1253 H 0.17425 0.07125 0.10791 0.0
C1254 C 0.16089 0.10402 -0.01597 0.0
C1255 C 0.15509 0.12281 0.92659 0.0
C1256 C 0.16651 0.10589 0.08826 0.0
C1257 C 0.15367 0.14337 -0.02413 0.0
C1258 C 0.15878 0.14529 0.08064 0.0
C1259 C 0.17126 0.12859 0.24093 0.0
C1260 C 0.17706 0.1098 0.29838 0.0
C1261 C 0.16563 0.12672 0.13672 0.0
C1262 C 0.17847 0.08924 0.24912 0.0
C1263 C 0.17335 0.08731 0.14435 0.0
H1264 H 0.08887 0.87886 0.68765 0.0
H1265 H 0.14271 0.83247 0.66929 0.0
H1266 H 0.1507 0.83792 0.85329 0.0
H1267 H 0.1429 0.85671 0.01676 0.0
H1268 H 0.08923 0.90333 0.03419 0.0
H1269 H 0.08118 0.89774 0.85045 0.0
C1270 C 0.10198 0.86954 0.72465 0.0
C1271 C 0.115 0.85506 0.66638 0.0
C1272 C 0.10702 0.87347 0.82847 0.0
C1273 C 0.13233 0.84348 0.71391 0.0
C1274 C 0.13709 0.84683 0.81826 0.0
C1275 C 0.12984 0.86607 -0.02056 0.0
C1276 C 0.11687 0.88065 0.03743 0.0
C1277 C 0.12483 0.86214 0.87552 0.0
C1278 C 0.09957 0.89225 -0.01025 0.0
C1279 C 0.09479 0.88883 0.88555 0.0
loop_
_geom_bond_atom_site_label_1
_geom_bond_atom_site_label_2
_geom_bond_distance
_geom_bond_site_symmetry_2
_ccdc_geom_bond_type
Zn0 O1 2.055 1_554 S
Zn0 O8 2.046 . S
Zn0 N16 2.036 . S
Zn0 O28 2.053 . S
Zn0 O30 2.066 . S
O1 Zn0 2.055 1_556 S
O1 C4 1.259 . S
C2 O30 1.256 . S
C2 O31 1.244 . S
Zn3 O5 2.046 1_554 S
Zn3 O7 2.055 . S
Zn3 N9 2.036 . S
Zn3 O27 2.066 . S
Zn3 O31 2.053 . S
C4 O1 1.259 . S
C4 O5 1.254 . S
O5 Zn3 2.046 1_556 S
O5 C4 1.254 . S
C6 O27 1.256 . S
C6 O28 1.244 . S
O7 Zn3 2.055 . S
O7 C29 1.259 . S
O8 Zn0 2.046 . S
O8 C29 1.254 . S
N9 Zn3 2.036 . S
N9 C10 1.298 . S
N9 N12 1.398 . S
C10 N9 1.298 . S
C10 N13 1.367 . S
C10 C23 1.481 . S
C11 N12 1.299 . S
C11 N13 1.379 . S
N12 N9 1.398 . S
N12 C11 1.299 . S
N13 C10 1.367 . S
N13 C11 1.379 . S
C14 N16 1.298 . S
C14 N18 1.367 . S
C14 C22 1.481 1_554 S
C15 N17 1.299 . S
C15 N18 1.379 . S
N16 Zn0 2.036 . S
N16 C14 1.298 . S
N16 N17 1.398 . S
N17 C15 1.299 . S
N17 N16 1.398 . S
N18 C14 1.367 . S
N18 C15 1.379 . S
H19 C22 0.980 . S
H20 C22 0.981 . S
H21 C22 0.981 . S
C22 C14 1.481 1_556 S
C22 H19 0.980 . S
C22 H20 0.981 . S
C22 H21 0.981 . S
C23 C10 1.481 . S
C23 H24 0.980 . S
C23 H25 0.981 . S
C23 H26 0.981 . S
H24 C23 0.980 . S
H25 C23 0.981 . S
H26 C23 0.981 . S
O27 Zn3 2.066 . S
O27 C6 1.256 . S
O28 Zn0 2.053 . S
O28 C6 1.244 . S
C29 O7 1.259 . S
C29 O8 1.254 . S
O30 Zn0 2.066 . S
O30 C2 1.256 . S
O31 C2 1.244 . S
O31 Zn3 2.053 . S
Zn32 O33 2.055 1_556 S
Zn32 O40 2.046 . S
Zn32 N48 2.036 . S
Zn32 O60 2.053 . S
Zn32 O62 2.066 . S
O33 Zn32 2.055 1_554 S
O33 C36 1.259 . S
C34 O62 1.256 . S
C34 O63 1.244 . S
Zn35 O37 2.046 1_556 S
Zn35 O39 2.055 . S
Zn35 N41 2.036 . S
Zn35 O59 2.066 . S
Zn35 O63 2.053 . S
C36 O33 1.259 . S
C36 O37 1.254 . S
O37 Zn35 2.046 1_554 S
O37 C36 1.254 . S
C38 O59 1.256 . S
C38 O60 1.244 . S
O39 Zn35 2.055 . S
O39 C61 1.259 . S
O40 Zn32 2.046 . S
O40 C61 1.254 . S
N41 Zn35 2.036 . S
N41 C42 1.298 . S
N41 N44 1.398 . S
C42 N41 1.298 . S
C42 N45 1.367 . S
C42 C55 1.481 . S
C43 N44 1.299 . S
C43 N45 1.379 . S
N44 N41 1.398 . S
N44 C43 1.299 . S
N45 C42 1.367 . S
N45 C43 1.379 . S
C46 N48 1.298 . S
C46 N50 1.367 . S
C46 C54 1.481 1_556 S
C47 N49 1.299 . S
C47 N50 1.379 . S
N48 Zn32 2.036 . S
N48 C46 1.298 . S
N48 N49 1.398 . S
N49 C47 1.299 . S
N49 N48 1.398 . S
N50 C46 1.367 . S
N50 C47 1.379 . S
H51 C54 0.980 . S
H52 C54 0.981 . S
H53 C54 0.981 . S
C54 C46 1.481 1_554 S
C54 H51 0.980 . S
C54 H52 0.981 . S
C54 H53 0.981 . S
C55 C42 1.481 . S
C55 H56 0.980 . S
C55 H57 0.981 . S
C55 H58 0.981 . S
H56 C55 0.980 . S
H57 C55 0.981 . S
H58 C55 0.981 . S
O59 Zn35 2.066 . S
O59 C38 1.256 . S
O60 Zn32 2.053 . S
O60 C38 1.244 . S
C61 O39 1.259 . S
C61 O40 1.254 . S
O62 Zn32 2.066 . S
O62 C34 1.256 . S
O63 C34 1.244 . S
O63 Zn35 2.053 . S
Zn64 O65 2.055 . S
Zn64 O72 2.046 1_554 S
Zn64 N80 2.036 . S
Zn64 O92 2.053 . S
Zn64 O94 2.066 . S
O65 Zn64 2.055 . S
O65 C68 1.259 . S
C66 O94 1.256 . S
C66 O95 1.244 . S
Zn67 O69 2.046 . S
Zn67 O71 2.055 1_554 S
Zn67 N73 2.036 . S
Zn67 O91 2.066 . S
Zn67 O95 2.053 . S
C68 O65 1.259 . S
C68 O69 1.254 . S
O69 Zn67 2.046 . S
O69 C68 1.254 . S
C70 O91 1.256 . S
C70 O92 1.244 . S
O71 Zn67 2.055 1_556 S
O71 C93 1.259 . S
O72 Zn64 2.046 1_556 S
O72 C93 1.254 . S
N73 Zn67 2.036 . S
N73 C74 1.298 . S
N73 N76 1.398 . S
C74 N73 1.298 . S
C74 N77 1.367 . S
C74 C87 1.481 1_554 S
C75 N76 1.299 . S
C75 N77 1.379 . S
N76 N73 1.398 . S
N76 C75 1.299 . S
N77 C74 1.367 . S
N77 C75 1.379 . S
C78 N80 1.298 . S
C78 N82 1.367 . S
C78 C86 1.481 . S
C79 N81 1.299 . S
C79 N82 1.379 . S
N80 Zn64 2.036 . S
N80 C78 1.298 . S
N80 N81 1.398 . S
N81 C79 1.299 . S
N81 N80 1.398 . S
N82 C78 1.367 . S
N82 C79 1.379 . S
H83 C86 0.980 . S
H84 C86 0.981 . S
H85 C86 0.981 . S
C86 C78 1.481 . S
C86 H83 0.980 . S
C86 H84 0.981 . S
C86 H85 0.981 . S
C87 C74 1.481 1_556 S
C87 H88 0.980 . S
C87 H89 0.981 . S
C87 H90 0.981 . S
H88 C87 0.980 . S
H89 C87 0.981 . S
H90 C87 0.981 . S
O91 Zn67 2.066 . S
O91 C70 1.256 . S
O92 Zn64 2.053 . S
O92 C70 1.244 . S
C93 O71 1.259 . S
C93 O72 1.254 . S
O94 Zn64 2.066 . S
O94 C66 1.256 . S
O95 C66 1.244 . S
O95 Zn67 2.053 . S
Zn96 O97 2.055 . S
Zn96 O104 2.046 1_556 S
Zn96 N112 2.036 . S
Zn96 O124 2.053 . S
Zn96 O126 2.066 . S
O97 Zn96 2.055 . S
O97 C100 1.259 . S
C98 O126 1.256 . S
C98 O127 1.244 . S
Zn99 O101 2.046 . S
Zn99 O103 2.055 1_556 S
Zn99 N105 2.036 . S
Zn99 O123 2.066 . S
Zn99 O127 2.053 . S
C100 O97 1.259 . S
C100 O101 1.254 . S
O101 Zn99 2.046 . S
O101 C100 1.254 . S
C102 O123 1.256 . S
C102 O124 1.244 . S
O103 Zn99 2.055 1_554 S
O103 C125 1.259 . S
O104 Zn96 2.046 1_554 S
O104 C125 1.254 . S
N105 Zn99 2.036 . S
N105 C106 1.298 . S
N105 N108 1.398 . S
C106 N105 1.298 . S
C106 N109 1.367 . S
C106 C119 1.481 1_556 S
C107 N108 1.299 . S
C107 N109 1.379 . S
N108 N105 1.398 . S
N108 C107 1.299 . S
N109 C106 1.367 . S
N109 C107 1.379 . S
C110 N112 1.298 . S
C110 N114 1.367 . S
C110 C118 1.481 . S
C111 N113 1.299 . S
C111 N114 1.379 . S
N112 Zn96 2.036 . S
N112 C110 1.298 . S
N112 N113 1.398 . S
N113 C111 1.299 . S
N113 N112 1.398 . S
N114 C110 1.367 . S
N114 C111 1.379 . S
H115 C118 0.980 . S
H116 C118 0.981 . S
H117 C118 0.981 . S
C118 C110 1.481 . S
C118 H115 0.980 . S
C118 H116 0.981 . S
C118 H117 0.981 . S
C119 C106 1.481 1_554 S
C119 H120 0.980 . S
C119 H121 0.981 . S
C119 H122 0.981 . S
H120 C119 0.980 . S
H121 C119 0.981 . S
H122 C119 0.981 . S
O123 Zn99 2.066 . S
O123 C102 1.256 . S
O124 Zn96 2.053 . S
O124 C102 1.244 . S
C125 O103 1.259 . S
C125 O104 1.254 . S
O126 Zn96 2.066 . S
O126 C98 1.256 . S
O127 C98 1.244 . S
O127 Zn99 2.053 . S
Zn128 O129 2.055 . S
Zn128 O136 2.046 . S
Zn128 N144 2.036 . S
Zn128 O156 2.053 1_554 S
Zn128 O158 2.066 . S
O129 Zn128 2.055 . S
O129 C132 1.259 . S
C130 O158 1.256 . S
C130 O159 1.244 . S
Zn131 O133 2.046 . S
Zn131 O135 2.055 . S
Zn131 N137 2.036 . S
Zn131 O155 2.066 1_554 S
Zn131 O159 2.053 . S
C132 O129 1.259 . S
C132 O133 1.254 . S
O133 Zn131 2.046 . S
O133 C132 1.254 . S
C134 O155 1.256 . S
C134 O156 1.244 . S
O135 Zn131 2.055 . S
O135 C157 1.259 . S
O136 Zn128 2.046 . S
O136 C157 1.254 . S
N137 Zn131 2.036 . S
N137 C138 1.298 . S
N137 N140 1.398 . S
C138 N137 1.298 . S
C138 N141 1.367 . S
C138 C151 1.481 . S
C139 N140 1.299 . S
C139 N141 1.379 . S
N140 N137 1.398 . S
N140 C139 1.299 . S
N141 C138 1.367 . S
N141 C139 1.379 . S
C142 N144 1.298 . S
C142 N146 1.367 . S
C142 C150 1.481 . S
C143 N145 1.299 . S
C143 N146 1.379 . S
N144 Zn128 2.036 . S
N144 C142 1.298 . S
N144 N145 1.398 . S
N145 C143 1.299 . S
N145 N144 1.398 . S
N146 C142 1.367 . S
N146 C143 1.379 . S
H147 C150 0.980 . S
H148 C150 0.981 . S
H149 C150 0.981 . S
C150 C142 1.481 . S
C150 H147 0.980 . S
C150 H148 0.981 . S
C150 H149 0.981 . S
C151 C138 1.481 . S
C151 H152 0.980 . S
C151 H153 0.981 . S
C151 H154 0.981 1_554 S
H152 C151 0.980 . S
H153 C151 0.981 . S
H154 C151 0.981 1_556 S
O155 Zn131 2.066 1_556 S
O155 C134 1.256 . S
O156 Zn128 2.053 1_556 S
O156 C134 1.244 . S
C157 O135 1.259 . S
C157 O136 1.254 . S
O158 Zn128 2.066 . S
O158 C130 1.256 . S
O159 C130 1.244 . S
O159 Zn131 2.053 . S
Zn160 O161 2.055 . S
Zn160 O168 2.046 . S
Zn160 N176 2.036 . S
Zn160 O188 2.053 . S
Zn160 O190 2.066 1_556 S
O161 Zn160 2.055 . S
O161 C164 1.259 . S
C162 O190 1.256 . S
C162 O191 1.244 . S
Zn163 O165 2.046 . S
Zn163 O167 2.055 . S
Zn163 N169 2.036 . S
Zn163 O187 2.066 . S
Zn163 O191 2.053 1_556 S
C164 O161 1.259 . S
C164 O165 1.254 . S
O165 Zn163 2.046 . S
O165 C164 1.254 . S
C166 O187 1.256 . S
C166 O188 1.244 . S
O167 Zn163 2.055 . S
O167 C189 1.259 . S
O168 Zn160 2.046 . S
O168 C189 1.254 . S
N169 Zn163 2.036 . S
N169 C170 1.298 . S
N169 N172 1.398 . S
C170 N169 1.298 . S
C170 N173 1.367 . S
C170 C183 1.481 . S
C171 N172 1.299 . S
C171 N173 1.379 . S
N172 N169 1.398 . S
N172 C171 1.299 . S
N173 C170 1.367 . S
N173 C171 1.379 . S
C174 N176 1.298 . S
C174 N178 1.367 . S
C174 C182 1.481 . S
C175 N177 1.299 . S
C175 N178 1.379 . S
N176 Zn160 2.036 . S
N176 C174 1.298 . S
N176 N177 1.398 . S
N177 C175 1.299 . S
N177 N176 1.398 . S
N178 C174 1.367 . S
N178 C175 1.379 . S
H179 C182 0.980 . S
H180 C182 0.981 . S
H181 C182 0.981 1_554 S
C182 C174 1.481 . S
C182 H179 0.980 . S
C182 H180 0.981 . S
C182 H181 0.981 1_556 S
C183 C170 1.481 . S
C183 H184 0.980 . S
C183 H185 0.981 . S
C183 H186 0.981 . S
H184 C183 0.980 . S
H185 C183 0.981 . S
H186 C183 0.981 . S
O187 Zn163 2.066 . S
O187 C166 1.256 . S
O188 Zn160 2.053 . S
O188 C166 1.244 . S
C189 O167 1.259 . S
C189 O168 1.254 . S
O190 Zn160 2.066 1_554 S
O190 C162 1.256 . S
O191 C162 1.244 . S
O191 Zn163 2.053 1_554 S
Zn192 O193 2.055 . S
Zn192 O200 2.046 . S
Zn192 N208 2.036 . S
Zn192 O220 2.053 1_554 S
Zn192 O222 2.066 . S
O193 Zn192 2.055 . S
O193 C196 1.259 . S
C194 O222 1.256 . S
C194 O223 1.244 . S
Zn195 O197 2.046 . S
Zn195 O199 2.055 . S
Zn195 N201 2.036 . S
Zn195 O219 2.066 1_554 S
Zn195 O223 2.053 . S
C196 O193 1.259 . S
C196 O197 1.254 . S
O197 Zn195 2.046 . S
O197 C196 1.254 . S
C198 O219 1.256 . S
C198 O220 1.244 . S
O199 Zn195 2.055 . S
O199 C221 1.259 . S
O200 Zn192 2.046 . S
O200 C221 1.254 . S
N201 Zn195 2.036 . S
N201 C202 1.298 . S
N201 N204 1.398 . S
C202 N201 1.298 . S
C202 N205 1.367 . S
C202 C215 1.481 . S
C203 N204 1.299 . S
C203 N205 1.379 . S
N204 N201 1.398 . S
N204 C203 1.299 . S
N205 C202 1.367 . S
N205 C203 1.379 . S
C206 N208 1.298 . S
C206 N210 1.367 . S
C206 C214 1.481 . S
C207 N209 1.299 . S
C207 N210 1.379 . S
N208 Zn192 2.036 . S
N208 C206 1.298 . S
N208 N209 1.398 . S
N209 C207 1.299 . S
N209 N208 1.398 . S
N210 C206 1.367 . S
N210 C207 1.379 . S
H211 C214 0.980 . S
H212 C214 0.981 . S
H213 C214 0.981 . S
C214 C206 1.481 . S
C214 H211 0.980 . S
C214 H212 0.981 . S
C214 H213 0.981 . S
C215 C202 1.481 . S
C215 H216 0.980 . S
C215 H217 0.981 . S
C215 H218 0.981 1_554 S
H216 C215 0.980 . S
H217 C215 0.981 . S
H218 C215 0.981 1_556 S
O219 Zn195 2.066 1_556 S
O219 C198 1.256 . S
O220 Zn192 2.053 1_556 S
O220 C198 1.244 . S
C221 O199 1.259 . S
C221 O200 1.254 . S
O222 Zn192 2.066 . S
O222 C194 1.256 . S
O223 C194 1.244 . S
O223 Zn195 2.053 . S
Zn224 O225 2.055 . S
Zn224 O232 2.046 . S
Zn224 N240 2.036 . S
Zn224 O252 2.053 1_556 S
Zn224 O254 2.066 . S
O225 Zn224 2.055 . S
O225 C228 1.259 . S
C226 O254 1.256 . S
C226 O255 1.244 . S
Zn227 O229 2.046 . S
Zn227 O231 2.055 . S
Zn227 N233 2.036 . S
Zn227 O251 2.066 1_556 S
Zn227 O255 2.053 . S
C228 O225 1.259 . S
C228 O229 1.254 . S
O229 Zn227 2.046 . S
O229 C228 1.254 . S
C230 O251 1.256 . S
C230 O252 1.244 . S
O231 Zn227 2.055 . S
O231 C253 1.259 . S
O232 Zn224 2.046 . S
O232 C253 1.254 . S
N233 Zn227 2.036 . S
N233 C234 1.298 . S
N233 N236 1.398 . S
C234 N233 1.298 . S
C234 N237 1.367 . S
C234 C247 1.481 . S
C235 N236 1.299 . S
C235 N237 1.379 . S
N236 N233 1.398 . S
N236 C235 1.299 . S
N237 C234 1.367 . S
N237 C235 1.379 . S
C238 N240 1.298 . S
C238 N242 1.367 . S
C238 C246 1.481 . S
C239 N241 1.299 . S
C239 N242 1.379 . S
N240 Zn224 2.036 . S
N240 C238 1.298 . S
N240 N241 1.398 . S
N241 C239 1.299 . S
N241 N240 1.398 . S
N242 C238 1.367 . S
N242 C239 1.379 . S
H243 C246 0.980 . S
H244 C246 0.981 . S
H245 C246 0.981 . S
C246 C238 1.481 . S
C246 H243 0.980 . S
C246 H244 0.981 . S
C246 H245 0.981 . S
C247 C234 1.481 . S
C247 H248 0.980 . S
C247 H249 0.981 . S
C247 H250 0.981 1_556 S
H248 C247 0.980 . S
H249 C247 0.981 . S
H250 C247 0.981 1_554 S
O251 Zn227 2.066 1_554 S
O251 C230 1.256 . S
O252 Zn224 2.053 1_554 S
O252 C230 1.244 . S
C253 O231 1.259 . S
C253 O232 1.254 . S
O254 Zn224 2.066 . S
O254 C226 1.256 . S
O255 C226 1.244 . S
O255 Zn227 2.053 . S
Zn256 O257 2.055 . S
Zn256 O264 2.046 . S
Zn256 N272 2.036 . S
Zn256 O284 2.053 . S
Zn256 O286 2.066 . S
O257 Zn256 2.055 . S
O257 C260 1.259 . S
C258 O286 1.256 . S
C258 O287 1.244 . S
Zn259 O261 2.046 . S
Zn259 O263 2.055 . S
Zn259 N265 2.036 . S
Zn259 O283 2.066 . S
Zn259 O287 2.053 . S
C260 O257 1.259 . S
C260 O261 1.254 . S
O261 Zn259 2.046 . S
O261 C260 1.254 . S
C262 O283 1.256 . S
C262 O284 1.244 . S
O263 Zn259 2.055 . S
O263 C285 1.259 . S
O264 Zn256 2.046 . S
O264 C285 1.254 . S
N265 Zn259 2.036 . S
N265 C266 1.298 . S
N265 N268 1.398 . S
C266 N265 1.298 . S
C266 N269 1.367 . S
C266 C279 1.481 . S
C267 N268 1.299 . S
C267 N269 1.379 . S
N268 N265 1.398 . S
N268 C267 1.299 . S
N269 C266 1.367 . S
N269 C267 1.379 . S
C270 N272 1.298 . S
C270 N274 1.367 . S
C270 C278 1.481 . S
C271 N273 1.299 . S
C271 N274 1.379 . S
N272 Zn256 2.036 . S
N272 C270 1.298 . S
N272 N273 1.398 . S
N273 C271 1.299 . S
N273 N272 1.398 . S
N274 C270 1.367 . S
N274 C271 1.379 . S
H275 C278 0.980 . S
H276 C278 0.981 . S
H277 C278 0.981 . S
C278 C270 1.481 . S
C278 H275 0.980 . S
C278 H276 0.981 . S
C278 H277 0.981 . S
C279 C266 1.481 . S
C279 H280 0.980 . S
C279 H281 0.981 . S
C279 H282 0.981 . S
H280 C279 0.980 . S
H281 C279 0.981 . S
H282 C279 0.981 . S
O283 Zn259 2.066 . S
O283 C262 1.256 . S
O284 Zn256 2.053 . S
O284 C262 1.244 . S
C285 O263 1.259 . S
C285 O264 1.254 . S
O286 Zn256 2.066 . S
O286 C258 1.256 . S
O287 C258 1.244 . S
O287 Zn259 2.053 . S
Zn288 O289 2.055 . S
Zn288 O296 2.046 . S
Zn288 N304 2.036 . S
Zn288 O316 2.053 . S
Zn288 O318 2.066 . S
O289 Zn288 2.055 . S
O289 C292 1.259 . S
C290 O318 1.256 . S
C290 O319 1.244 . S
Zn291 O293 2.046 . S
Zn291 O295 2.055 . S
Zn291 N297 2.036 . S
Zn291 O315 2.066 . S
Zn291 O319 2.053 . S
C292 O289 1.259 . S
C292 O293 1.254 . S
O293 Zn291 2.046 . S
O293 C292 1.254 . S
C294 O315 1.256 . S
C294 O316 1.244 . S
O295 Zn291 2.055 . S
O295 C317 1.259 . S
O296 Zn288 2.046 . S
O296 C317 1.254 . S
N297 Zn291 2.036 . S
N297 C298 1.298 . S
N297 N300 1.398 . S
C298 N297 1.298 . S
C298 N301 1.367 . S
C298 C311 1.481 . S
C299 N300 1.299 . S
C299 N301 1.379 . S
N300 N297 1.398 . S
N300 C299 1.299 . S
N301 C298 1.367 . S
N301 C299 1.379 . S
C302 N304 1.298 . S
C302 N306 1.367 . S
C302 C310 1.481 . S
C303 N305 1.299 . S
C303 N306 1.379 . S
N304 Zn288 2.036 . S
N304 C302 1.298 . S
N304 N305 1.398 . S
N305 C303 1.299 . S
N305 N304 1.398 . S
N306 C302 1.367 . S
N306 C303 1.379 . S
H307 C310 0.980 . S
H308 C310 0.981 . S
H309 C310 0.981 . S
C310 C302 1.481 . S
C310 H307 0.980 . S
C310 H308 0.981 . S
C310 H309 0.981 . S
C311 C298 1.481 . S
C311 H312 0.980 . S
C311 H313 0.981 . S
C311 H314 0.981 . S
H312 C311 0.980 . S
H313 C311 0.981 . S
H314 C311 0.981 . S
O315 Zn291 2.066 . S
O315 C294 1.256 . S
O316 Zn288 2.053 . S
O316 C294 1.244 . S
C317 O295 1.259 . S
C317 O296 1.254 . S
O318 Zn288 2.066 . S
O318 C290 1.256 . S
O319 C290 1.244 . S
O319 Zn291 2.053 . S
Zn320 O321 2.055 . S
Zn320 O328 2.046 . S
Zn320 N336 2.036 . S
Zn320 O348 2.053 . S
Zn320 O350 2.066 . S
O321 Zn320 2.055 . S
O321 C324 1.259 . S
C322 O350 1.256 . S
C322 O351 1.244 . S
Zn323 O325 2.046 . S
Zn323 O327 2.055 . S
Zn323 N329 2.036 . S
Zn323 O347 2.066 . S
Zn323 O351 2.053 . S
C324 O321 1.259 . S
C324 O325 1.254 . S
O325 Zn323 2.046 . S
O325 C324 1.254 . S
C326 O347 1.256 . S
C326 O348 1.244 . S
O327 Zn323 2.055 . S
O327 C349 1.259 . S
O328 Zn320 2.046 . S
O328 C349 1.254 . S
N329 Zn323 2.036 . S
N329 C330 1.298 . S
N329 N332 1.398 . S
C330 N329 1.298 . S
C330 N333 1.367 . S
C330 C343 1.481 . S
C331 N332 1.299 . S
C331 N333 1.379 . S
N332 N329 1.398 . S
N332 C331 1.299 . S
N333 C330 1.367 . S
N333 C331 1.379 . S
C334 N336 1.298 . S
C334 N338 1.367 . S
C334 C342 1.481 . S
C335 N337 1.299 . S
C335 N338 1.379 . S
N336 Zn320 2.036 . S
N336 C334 1.298 . S
N336 N337 1.398 . S
N337 C335 1.299 . S
N337 N336 1.398 . S
N338 C334 1.367 . S
N338 C335 1.379 . S
H339 C342 0.980 . S
H340 C342 0.981 . S
H341 C342 0.981 . S
C342 C334 1.481 . S
C342 H339 0.980 . S
C342 H340 0.981 . S
C342 H341 0.981 . S
C343 C330 1.481 . S
C343 H344 0.980 . S
C343 H345 0.981 . S
C343 H346 0.981 . S
H344 C343 0.980 . S
H345 C343 0.981 . S
H346 C343 0.981 . S
O347 Zn323 2.066 . S
O347 C326 1.256 . S
O348 Zn320 2.053 . S
O348 C326 1.244 . S
C349 O327 1.259 . S
C349 O328 1.254 . S
O350 Zn320 2.066 . S
O350 C322 1.256 . S
O351 C322 1.244 . S
O351 Zn323 2.053 . S
Zn352 O353 2.055 . S
Zn352 O360 2.046 . S
Zn352 N368 2.036 . S
Zn352 O380 2.053 . S
Zn352 O382 2.066 . S
O353 Zn352 2.055 . S
O353 C356 1.259 . S
C354 O382 1.256 . S
C354 O383 1.244 . S
Zn355 O357 2.046 . S
Zn355 O359 2.055 . S
Zn355 N361 2.036 . S
Zn355 O379 2.066 . S
Zn355 O383 2.053 . S
C356 O353 1.259 . S
C356 O357 1.254 . S
O357 Zn355 2.046 . S
O357 C356 1.254 . S
C358 O379 1.256 . S
C358 O380 1.244 . S
O359 Zn355 2.055 . S
O359 C381 1.259 . S
O360 Zn352 2.046 . S
O360 C381 1.254 . S
N361 Zn355 2.036 . S
N361 C362 1.298 . S
N361 N364 1.398 . S
C362 N361 1.298 . S
C362 N365 1.367 . S
C362 C375 1.481 . S
C363 N364 1.299 . S
C363 N365 1.379 . S
N364 N361 1.398 . S
N364 C363 1.299 . S
N365 C362 1.367 . S
N365 C363 1.379 . S
C366 N368 1.298 . S
C366 N370 1.367 . S
C366 C374 1.481 . S
C367 N369 1.299 . S
C367 N370 1.379 . S
N368 Zn352 2.036 . S
N368 C366 1.298 . S
N368 N369 1.398 . S
N369 C367 1.299 . S
N369 N368 1.398 . S
N370 C366 1.367 . S
N370 C367 1.379 . S
H371 C374 0.980 . S
H372 C374 0.981 . S
H373 C374 0.981 . S
C374 C366 1.481 . S
C374 H371 0.980 . S
C374 H372 0.981 . S
C374 H373 0.981 . S
C375 C362 1.481 . S
C375 H376 0.980 . S
C375 H377 0.981 . S
C375 H378 0.981 . S
H376 C375 0.980 . S
H377 C375 0.981 . S
H378 C375 0.981 . S
O379 Zn355 2.066 . S
O379 C358 1.256 . S
O380 Zn352 2.053 . S
O380 C358 1.244 . S
C381 O359 1.259 . S
C381 O360 1.254 . S
O382 Zn352 2.066 . S
O382 C354 1.256 . S
O383 C354 1.244 . S
O383 Zn355 2.053 . S
Zn384 O385 2.055 . S
Zn384 O392 2.046 . S
Zn384 N400 2.036 . S
Zn384 O412 2.053 . S
Zn384 O414 2.066 . S
O385 Zn384 2.055 . S
O385 C388 1.259 . S
C386 O414 1.256 . S
C386 O415 1.244 . S
Zn387 O389 2.046 . S
Zn387 O391 2.055 . S
Zn387 N393 2.036 . S
Zn387 O411 2.066 . S
Zn387 O415 2.053 . S
C388 O385 1.259 . S
C388 O389 1.254 . S
O389 Zn387 2.046 . S
O389 C388 1.254 . S
C390 O411 1.256 . S
C390 O412 1.244 . S
O391 Zn387 2.055 . S
O391 C413 1.259 . S
O392 Zn384 2.046 . S
O392 C413 1.254 . S
N393 Zn387 2.036 . S
N393 C394 1.298 . S
N393 N396 1.398 . S
C394 N393 1.298 . S
C394 N397 1.367 . S
C394 C407 1.481 . S
C395 N396 1.299 . S
C395 N397 1.379 . S
N396 N393 1.398 . S
N396 C395 1.299 . S
N397 C394 1.367 . S
N397 C395 1.379 . S
C398 N400 1.298 . S
C398 N402 1.367 . S
C398 C406 1.481 . S
C399 N401 1.299 . S
C399 N402 1.379 . S
N400 Zn384 2.036 . S
N400 C398 1.298 . S
N400 N401 1.398 . S
N401 C399 1.299 . S
N401 N400 1.398 . S
N402 C398 1.367 . S
N402 C399 1.379 . S
H403 C406 0.980 . S
H404 C406 0.981 . S
H405 C406 0.981 . S
C406 C398 1.481 . S
C406 H403 0.980 . S
C406 H404 0.981 . S
C406 H405 0.981 . S
C407 C394 1.481 . S
C407 H408 0.980 . S
C407 H409 0.981 . S
C407 H410 0.981 . S
H408 C407 0.980 . S
H409 C407 0.981 . S
H410 C407 0.981 . S
O411 Zn387 2.066 . S
O411 C390 1.256 . S
O412 Zn384 2.053 . S
O412 C390 1.244 . S
C413 O391 1.259 . S
C413 O392 1.254 . S
O414 Zn384 2.066 . S
O414 C386 1.256 . S
O415 C386 1.244 . S
O415 Zn387 2.053 . S
Zn416 O417 2.055 . S
Zn416 O424 2.046 . S
Zn416 N432 2.036 . S
Zn416 O444 2.053 . S
Zn416 O446 2.066 . S
O417 Zn416 2.055 . S
O417 C420 1.259 . S
C418 O446 1.256 . S
C418 O447 1.244 . S
Zn419 O421 2.046 . S
Zn419 O423 2.055 . S
Zn419 N425 2.036 . S
Zn419 O443 2.066 . S
Zn419 O447 2.053 . S
C420 O417 1.259 . S
C420 O421 1.254 . S
O421 Zn419 2.046 . S
O421 C420 1.254 . S
C422 O443 1.256 . S
C422 O444 1.244 . S
O423 Zn419 2.055 . S
O423 C445 1.259 . S
O424 Zn416 2.046 . S
O424 C445 1.254 . S
N425 Zn419 2.036 . S
N425 C426 1.298 . S
N425 N428 1.398 . S
C426 N425 1.298 . S
C426 N429 1.367 . S
C426 C439 1.481 . S
C427 N428 1.299 . S
C427 N429 1.379 . S
N428 N425 1.398 . S
N428 C427 1.299 . S
N429 C426 1.367 . S
N429 C427 1.379 . S
C430 N432 1.298 . S
C430 N434 1.367 . S
C430 C438 1.481 . S
C431 N433 1.299 . S
C431 N434 1.379 . S
N432 Zn416 2.036 . S
N432 C430 1.298 . S
N432 N433 1.398 . S
N433 C431 1.299 . S
N433 N432 1.398 . S
N434 C430 1.367 . S
N434 C431 1.379 . S
H435 C438 0.980 . S
H436 C438 0.981 . S
H437 C438 0.981 . S
C438 C430 1.481 . S
C438 H435 0.980 . S
C438 H436 0.981 . S
C438 H437 0.981 . S
C439 C426 1.481 . S
C439 H440 0.980 . S
C439 H441 0.981 . S
C439 H442 0.981 . S
H440 C439 0.980 . S
H441 C439 0.981 . S
H442 C439 0.981 . S
O443 Zn419 2.066 . S
O443 C422 1.256 . S
O444 Zn416 2.053 . S
O444 C422 1.244 . S
C445 O423 1.259 . S
C445 O424 1.254 . S
O446 Zn416 2.066 . S
O446 C418 1.256 . S
O447 C418 1.244 . S
O447 Zn419 2.053 . S
Zn448 O449 2.055 . S
Zn448 O456 2.046 . S
Zn448 N464 2.036 . S
Zn448 O476 2.053 . S
Zn448 O478 2.066 . S
O449 Zn448 2.055 . S
O449 C452 1.259 . S
C450 O478 1.256 . S
C450 O479 1.244 . S
Zn451 O453 2.046 . S
Zn451 O455 2.055 . S
Zn451 N457 2.036 . S
Zn451 O475 2.066 . S
Zn451 O479 2.053 . S
C452 O449 1.259 . S
C452 O453 1.254 . S
O453 Zn451 2.046 . S
O453 C452 1.254 . S
C454 O475 1.256 . S
C454 O476 1.244 . S
O455 Zn451 2.055 . S
O455 C477 1.259 . S
O456 Zn448 2.046 . S
O456 C477 1.254 . S
N457 Zn451 2.036 . S
N457 C458 1.298 . S
N457 N460 1.398 . S
C458 N457 1.298 . S
C458 N461 1.367 . S
C458 C471 1.481 . S
C459 N460 1.299 . S
C459 N461 1.379 . S
N460 N457 1.398 . S
N460 C459 1.299 . S
N461 C458 1.367 . S
N461 C459 1.379 . S
C462 N464 1.298 . S
C462 N466 1.367 . S
C462 C470 1.481 . S
C463 N465 1.299 . S
C463 N466 1.379 . S
N464 Zn448 2.036 . S
N464 C462 1.298 . S
N464 N465 1.398 . S
N465 C463 1.299 . S
N465 N464 1.398 . S
N466 C462 1.367 . S
N466 C463 1.379 . S
H467 C470 0.980 . S
H468 C470 0.981 . S
H469 C470 0.981 . S
C470 C462 1.481 . S
C470 H467 0.980 . S
C470 H468 0.981 . S
C470 H469 0.981 . S
C471 C458 1.481 . S
C471 H472 0.980 . S
C471 H473 0.981 . S
C471 H474 0.981 . S
H472 C471 0.980 . S
H473 C471 0.981 . S
H474 C471 0.981 . S
O475 Zn451 2.066 . S
O475 C454 1.256 . S
O476 Zn448 2.053 . S
O476 C454 1.244 . S
C477 O455 1.259 . S
C477 O456 1.254 . S
O478 Zn448 2.066 . S
O478 C450 1.256 . S
O479 C450 1.244 . S
O479 Zn451 2.053 . S
Zn480 O481 2.055 . S
Zn480 O488 2.046 . S
Zn480 N496 2.036 . S
Zn480 O508 2.053 . S
Zn480 O510 2.066 . S
O481 Zn480 2.055 . S
O481 C484 1.259 . S
C482 O510 1.256 . S
C482 O511 1.244 . S
Zn483 O485 2.046 . S
Zn483 O487 2.055 . S
Zn483 N489 2.036 . S
Zn483 O507 2.066 . S
Zn483 O511 2.053 . S
C484 O481 1.259 . S
C484 O485 1.254 . S
O485 Zn483 2.046 . S
O485 C484 1.254 . S
C486 O507 1.256 . S
C486 O508 1.244 . S
O487 Zn483 2.055 . S
O487 C509 1.259 . S
O488 Zn480 2.046 . S
O488 C509 1.254 . S
N489 Zn483 2.036 . S
N489 C490 1.298 . S
N489 N492 1.398 . S
C490 N489 1.298 . S
C490 N493 1.367 . S
C490 C503 1.481 . S
C491 N492 1.299 . S
C491 N493 1.379 . S
N492 N489 1.398 . S
N492 C491 1.299 . S
N493 C490 1.367 . S
N493 C491 1.379 . S
C494 N496 1.298 . S
C494 N498 1.367 . S
C494 C502 1.481 . S
C495 N497 1.299 . S
C495 N498 1.379 . S
N496 Zn480 2.036 . S
N496 C494 1.298 . S
N496 N497 1.398 . S
N497 C495 1.299 . S
N497 N496 1.398 . S
N498 C494 1.367 . S
N498 C495 1.379 . S
H499 C502 0.980 . S
H500 C502 0.981 . S
H501 C502 0.981 . S
C502 C494 1.481 . S
C502 H499 0.980 . S
C502 H500 0.981 . S
C502 H501 0.981 . S
C503 C490 1.481 . S
C503 H504 0.980 . S
C503 H505 0.981 . S
C503 H506 0.981 . S
H504 C503 0.980 . S
H505 C503 0.981 . S
H506 C503 0.981 . S
O507 Zn483 2.066 . S
O507 C486 1.256 . S
O508 Zn480 2.053 . S
O508 C486 1.244 . S
C509 O487 1.259 . S
C509 O488 1.254 . S
O510 Zn480 2.066 . S
O510 C482 1.256 . S
O511 C482 1.244 . S
O511 Zn483 2.053 . S
H512 C518 0.930 . S
H513 C521 0.930 . S
H514 C522 0.930 . S
H515 C523 0.930 . S
H516 C526 0.930 . S
H517 C527 0.930 . S
C518 H512 0.930 . S
C518 C519 1.355 . S
C518 C520 1.415 . S
C519 C518 1.355 . S
C519 C521 1.419 . S
C520 C518 1.415 . S
C520 C525 1.425 . S
C520 C527 1.409 . S
C521 H513 0.930 . S
C521 C519 1.419 . S
C521 C522 1.362 . S
C522 H514 0.930 . S
C522 C521 1.362 . S
C522 C525 1.409 . S
C523 H515 0.930 . S
C523 C524 1.355 . S
C523 C525 1.415 . S
C524 C523 1.355 . S
C524 C526 1.419 . S
C525 C520 1.425 . S
C525 C522 1.409 . S
C525 C523 1.415 . S
C526 H516 0.930 . S
C526 C524 1.419 . S
C526 C527 1.362 . S
C527 H517 0.930 . S
C527 C520 1.409 . S
C527 C526 1.362 . S
H528 C534 0.930 . S
H529 C537 0.930 . S
H530 C538 0.930 . S
H531 C539 0.930 . S
H532 C542 0.930 . S
H533 C543 0.930 . S
C534 H528 0.930 . S
C534 C535 1.355 . S
C534 C536 1.415 . S
C535 C534 1.355 . S
C535 C537 1.419 . S
C536 C534 1.415 . S
C536 C541 1.425 . S
C536 C543 1.409 . S
C537 H529 0.930 . S
C537 C535 1.419 . S
C537 C538 1.362 . S
C538 H530 0.930 . S
C538 C537 1.362 . S
C538 C541 1.409 . S
C539 H531 0.930 . S
C539 C540 1.355 . S
C539 C541 1.415 . S
C540 C539 1.355 . S
C540 C542 1.419 . S
C541 C536 1.425 . S
C541 C538 1.409 . S
C541 C539 1.415 . S
C542 H532 0.930 . S
C542 C540 1.419 . S
C542 C543 1.362 . S
C543 H533 0.930 . S
C543 C536 1.409 . S
C543 C542 1.362 . S
H544 C550 0.930 . S
H545 C553 0.930 . S
H546 C554 0.930 . S
H547 C555 0.930 . S
H548 C558 0.930 . S
H549 C559 0.930 . S
C550 H544 0.930 . S
C550 C551 1.355 . S
C550 C552 1.415 . S
C551 C550 1.355 . S
C551 C553 1.419 . S
C552 C550 1.415 . S
C552 C557 1.425 . S
C552 C559 1.409 . S
C553 H545 0.930 . S
C553 C551 1.419 . S
C553 C554 1.362 . S
C554 H546 0.930 . S
C554 C553 1.362 . S
C554 C557 1.409 . S
C555 H547 0.930 . S
C555 C556 1.355 . S
C555 C557 1.415 . S
C556 C555 1.355 . S
C556 C558 1.419 . S
C557 C552 1.425 . S
C557 C554 1.409 . S
C557 C555 1.415 . S
C558 H548 0.930 . S
C558 C556 1.419 . S
C558 C559 1.362 . S
C559 H549 0.930 . S
C559 C552 1.409 . S
C559 C558 1.362 . S
H560 C566 0.930 . S
H561 C569 0.930 . S
H562 C570 0.930 . S
H563 C571 0.930 . S
H564 C574 0.930 . S
H565 C575 0.930 . S
C566 H560 0.930 . S
C566 C567 1.355 . S
C566 C568 1.415 . S
C567 C566 1.355 . S
C567 C569 1.419 . S
C568 C566 1.415 . S
C568 C573 1.425 . S
C568 C575 1.409 . S
C569 H561 0.930 . S
C569 C567 1.419 . S
C569 C570 1.362 . S
C570 H562 0.930 . S
C570 C569 1.362 . S
C570 C573 1.409 . S
C571 H563 0.930 . S
C571 C572 1.355 . S
C571 C573 1.415 . S
C572 C571 1.355 . S
C572 C574 1.419 . S
C573 C568 1.425 . S
C573 C570 1.409 . S
C573 C571 1.415 . S
C574 H564 0.930 . S
C574 C572 1.419 . S
C574 C575 1.362 . S
C575 H565 0.930 . S
C575 C568 1.409 . S
C575 C574 1.362 . S
H576 C582 0.930 . S
H577 C585 0.930 . S
H578 C586 0.930 . S
H579 C587 0.930 . S
H580 C590 0.930 . S
H581 C591 0.930 . S
C582 H576 0.930 . S
C582 C583 1.355 . S
C582 C584 1.415 . S
C583 C582 1.355 . S
C583 C585 1.419 1_554 S
C584 C582 1.415 . S
C584 C589 1.425 1_554 S
C584 C591 1.409 . S
C585 H577 0.930 . S
C585 C583 1.419 1_556 S
C585 C586 1.362 . S
C586 H578 0.930 . S
C586 C585 1.362 . S
C586 C589 1.409 . S
C587 H579 0.930 . S
C587 C588 1.355 . S
C587 C589 1.415 . S
C588 C587 1.355 . S
C588 C590 1.419 1_556 S
C589 C584 1.425 1_556 S
C589 C586 1.409 . S
C589 C587 1.415 . S
C590 H580 0.930 . S
C590 C588 1.419 1_554 S
C590 C591 1.362 . S
C591 H581 0.930 . S
C591 C584 1.409 . S
C591 C590 1.362 . S
H592 C598 0.930 . S
H593 C601 0.930 . S
H594 C602 0.930 . S
H595 C603 0.930 . S
H596 C606 0.930 . S
H597 C607 0.930 . S
C598 H592 0.930 . S
C598 C599 1.355 . S
C598 C600 1.415 . S
C599 C598 1.355 . S
C599 C601 1.419 1_554 S
C600 C598 1.415 . S
C600 C605 1.425 1_554 S
C600 C607 1.409 . S
C601 H593 0.930 . S
C601 C599 1.419 1_556 S
C601 C602 1.362 . S
C602 H594 0.930 . S
C602 C601 1.362 . S
C602 C605 1.409 . S
C603 H595 0.930 . S
C603 C604 1.355 . S
C603 C605 1.415 . S
C604 C603 1.355 . S
C604 C606 1.419 1_556 S
C605 C600 1.425 1_556 S
C605 C602 1.409 . S
C605 C603 1.415 . S
C606 H596 0.930 . S
C606 C604 1.419 1_554 S
C606 C607 1.362 . S
C607 H597 0.930 . S
C607 C600 1.409 . S
C607 C606 1.362 . S
H608 C614 0.930 . S
H609 C617 0.930 . S
H610 C618 0.930 . S
H611 C619 0.930 . S
H612 C622 0.930 . S
H613 C623 0.930 . S
C614 H608 0.930 . S
C614 C615 1.355 1_556 S
C614 C616 1.415 . S
C615 C614 1.355 1_554 S
C615 C617 1.419 . S
C616 C614 1.415 . S
C616 C621 1.425 . S
C616 C623 1.409 . S
C617 H609 0.930 . S
C617 C615 1.419 . S
C617 C618 1.362 . S
C618 H610 0.930 . S
C618 C617 1.362 . S
C618 C621 1.409 1_554 S
C619 H611 0.930 . S
C619 C620 1.355 . S
C619 C621 1.415 . S
C620 C619 1.355 . S
C620 C622 1.419 . S
C621 C616 1.425 . S
C621 C618 1.409 1_556 S
C621 C619 1.415 . S
C622 H612 0.930 . S
C622 C620 1.419 . S
C622 C623 1.362 . S
C623 H613 0.930 . S
C623 C616 1.409 . S
C623 C622 1.362 . S
H624 C630 0.930 . S
H625 C633 0.930 . S
H626 C634 0.930 . S
H627 C635 0.930 . S
H628 C638 0.930 . S
H629 C639 0.930 . S
C630 H624 0.930 . S
C630 C631 1.355 . S
C630 C632 1.415 . S
C631 C630 1.355 . S
C631 C633 1.419 1_554 S
C632 C630 1.415 . S
C632 C637 1.425 1_554 S
C632 C639 1.409 . S
C633 H625 0.930 . S
C633 C631 1.419 1_556 S
C633 C634 1.362 . S
C634 H626 0.930 . S
C634 C633 1.362 . S
C634 C637 1.409 . S
C635 H627 0.930 . S
C635 C636 1.355 . S
C635 C637 1.415 . S
C636 C635 1.355 . S
C636 C638 1.419 1_556 S
C637 C632 1.425 1_556 S
C637 C634 1.409 . S
C637 C635 1.415 . S
C638 H628 0.930 . S
C638 C636 1.419 1_554 S
C638 C639 1.362 . S
C639 H629 0.930 . S
C639 C632 1.409 . S
C639 C638 1.362 . S
H640 C646 0.930 . S
H641 C649 0.930 . S
H642 C650 0.930 . S
H643 C651 0.930 . S
H644 C654 0.930 . S
H645 C655 0.930 . S
C646 H640 0.930 . S
C646 C647 1.355 . S
C646 C648 1.415 . S
C647 C646 1.355 . S
C647 C649 1.419 . S
C648 C646 1.415 . S
C648 C653 1.425 . S
C648 C655 1.409 . S
C649 H641 0.930 . S
C649 C647 1.419 . S
C649 C650 1.362 . S
C650 H642 0.930 . S
C650 C649 1.362 . S
C650 C653 1.409 . S
C651 H643 0.930 . S
C651 C652 1.355 . S
C651 C653 1.415 . S
C652 C651 1.355 . S
C652 C654 1.419 . S
C653 C648 1.425 . S
C653 C650 1.409 . S
C653 C651 1.415 . S
C654 H644 0.930 . S
C654 C652 1.419 . S
C654 C655 1.362 . S
C655 H645 0.930 . S
C655 C648 1.409 . S
C655 C654 1.362 . S
H656 C662 0.930 . S
H657 C665 0.930 . S
H658 C666 0.930 . S
H659 C667 0.930 . S
H660 C670 0.930 . S
H661 C671 0.930 . S
C662 H656 0.930 . S
C662 C663 1.355 . S
C662 C664 1.415 . S
C663 C662 1.355 . S
C663 C665 1.419 . S
C664 C662 1.415 . S
C664 C669 1.425 . S
C664 C671 1.409 . S
C665 H657 0.930 . S
C665 C663 1.419 . S
C665 C666 1.362 . S
C666 H658 0.930 . S
C666 C665 1.362 . S
C666 C669 1.409 . S
C667 H659 0.930 . S
C667 C668 1.355 . S
C667 C669 1.415 . S
C668 C667 1.355 . S
C668 C670 1.419 . S
C669 C664 1.425 . S
C669 C666 1.409 . S
C669 C667 1.415 . S
C670 H660 0.930 . S
C670 C668 1.419 . S
C670 C671 1.362 . S
C671 H661 0.930 . S
C671 C664 1.409 . S
C671 C670 1.362 . S
H672 C678 0.930 . S
H673 C681 0.930 . S
H674 C682 0.930 . S
H675 C683 0.930 . S
H676 C686 0.930 . S
H677 C687 0.930 . S
C678 H672 0.930 . S
C678 C679 1.355 . S
C678 C680 1.415 . S
C679 C678 1.355 . S
C679 C681 1.419 . S
C680 C678 1.415 . S
C680 C685 1.425 . S
C680 C687 1.409 . S
C681 H673 0.930 . S
C681 C679 1.419 . S
C681 C682 1.362 . S
C682 H674 0.930 . S
C682 C681 1.362 . S
C682 C685 1.409 . S
C683 H675 0.930 . S
C683 C684 1.355 . S
C683 C685 1.415 . S
C684 C683 1.355 . S
C684 C686 1.419 . S
C685 C680 1.425 . S
C685 C682 1.409 . S
C685 C683 1.415 . S
C686 H676 0.930 . S
C686 C684 1.419 . S
C686 C687 1.362 . S
C687 H677 0.930 . S
C687 C680 1.409 . S
C687 C686 1.362 . S
H688 C694 0.930 . S
H689 C697 0.930 . S
H690 C698 0.930 . S
H691 C699 0.930 . S
H692 C702 0.930 . S
H693 C703 0.930 . S
C694 H688 0.930 . S
C694 C695 1.355 . S
C694 C696 1.415 . S
C695 C694 1.355 . S
C695 C697 1.419 . S
C696 C694 1.415 . S
C696 C701 1.425 . S
C696 C703 1.409 . S
C697 H689 0.930 . S
C697 C695 1.419 . S
C697 C698 1.362 . S
C698 H690 0.930 . S
C698 C697 1.362 . S
C698 C701 1.409 . S
C699 H691 0.930 . S
C699 C700 1.355 . S
C699 C701 1.415 . S
C700 C699 1.355 . S
C700 C702 1.419 . S
C701 C696 1.425 . S
C701 C698 1.409 . S
C701 C699 1.415 . S
C702 H692 0.930 . S
C702 C700 1.419 . S
C702 C703 1.362 . S
C703 H693 0.930 . S
C703 C696 1.409 . S
C703 C702 1.362 . S
H704 C710 0.930 . S
H705 C713 0.930 . S
H706 C714 0.930 . S
H707 C715 0.930 . S
H708 C718 0.930 . S
H709 C719 0.930 . S
C710 H704 0.930 . S
C710 C711 1.355 . S
C710 C712 1.415 . S
C711 C710 1.355 . S
C711 C713 1.419 . S
C712 C710 1.415 . S
C712 C717 1.425 . S
C712 C719 1.409 . S
C713 H705 0.930 . S
C713 C711 1.419 . S
C713 C714 1.362 . S
C714 H706 0.930 . S
C714 C713 1.362 . S
C714 C717 1.409 . S
C715 H707 0.930 . S
C715 C716 1.355 . S
C715 C717 1.415 . S
C716 C715 1.355 . S
C716 C718 1.419 . S
C717 C712 1.425 . S
C717 C714 1.409 . S
C717 C715 1.415 . S
C718 H708 0.930 . S
C718 C716 1.419 . S
C718 C719 1.362 . S
C719 H709 0.930 . S
C719 C712 1.409 . S
C719 C718 1.362 . S
H720 C726 0.930 . S
H721 C729 0.930 . S
H722 C730 0.930 . S
H723 C731 0.930 . S
H724 C734 0.930 . S
H725 C735 0.930 . S
C726 H720 0.930 . S
C726 C727 1.355 . S
C726 C728 1.415 . S
C727 C726 1.355 . S
C727 C729 1.419 . S
C728 C726 1.415 . S
C728 C733 1.425 . S
C728 C735 1.409 . S
C729 H721 0.930 . S
C729 C727 1.419 . S
C729 C730 1.362 . S
C730 H722 0.930 . S
C730 C729 1.362 . S
C730 C733 1.409 . S
C731 H723 0.930 . S
C731 C732 1.355 . S
C731 C733 1.415 . S
C732 C731 1.355 . S
C732 C734 1.419 . S
C733 C728 1.425 . S
C733 C730 1.409 . S
C733 C731 1.415 . S
C734 H724 0.930 . S
C734 C732 1.419 . S
C734 C735 1.362 . S
C735 H725 0.930 . S
C735 C728 1.409 . S
C735 C734 1.362 . S
H736 C742 0.930 . S
H737 C745 0.930 . S
H738 C746 0.930 . S
H739 C747 0.930 . S
H740 C750 0.930 . S
H741 C751 0.930 . S
C742 H736 0.930 . S
C742 C743 1.355 . S
C742 C744 1.415 . S
C743 C742 1.355 . S
C743 C745 1.419 . S
C744 C742 1.415 . S
C744 C749 1.425 . S
C744 C751 1.409 . S
C745 H737 0.930 . S
C745 C743 1.419 . S
C745 C746 1.362 . S
C746 H738 0.930 . S
C746 C745 1.362 . S
C746 C749 1.409 . S
C747 H739 0.930 . S
C747 C748 1.355 . S
C747 C749 1.415 . S
C748 C747 1.355 . S
C748 C750 1.419 . S
C749 C744 1.425 . S
C749 C746 1.409 . S
C749 C747 1.415 . S
C750 H740 0.930 . S
C750 C748 1.419 . S
C750 C751 1.362 . S
C751 H741 0.930 . S
C751 C744 1.409 . S
C751 C750 1.362 . S
H752 C758 0.930 . S
H753 C761 0.930 1_455 S
H754 C762 0.930 . S
H755 C763 0.930 . S
H756 C766 0.930 . S
H757 C767 0.930 . S
C758 H752 0.930 . S
C758 C759 1.355 . S
C758 C760 1.415 . S
C759 C758 1.355 . S
C759 C761 1.419 . S
C760 C758 1.415 . S
C760 C765 1.425 . S
C760 C767 1.409 . S
C761 H753 0.930 1_655 S
C761 C759 1.419 . S
C761 C762 1.362 . S
C762 H754 0.930 . S
C762 C761 1.362 . S
C762 C765 1.409 . S
C763 H755 0.930 . S
C763 C764 1.355 . S
C763 C765 1.415 . S
C764 C763 1.355 . S
C764 C766 1.419 . S
C765 C760 1.425 . S
C765 C762 1.409 . S
C765 C763 1.415 . S
C766 H756 0.930 . S
C766 C764 1.419 . S
C766 C767 1.362 . S
C767 H757 0.930 . S
C767 C760 1.409 . S
C767 C766 1.362 . S
H768 C774 0.930 . S
H769 C777 0.930 . S
H770 C778 0.930 . S
H771 C779 0.930 . S
H772 C782 0.930 . S
H773 C783 0.930 . S
C774 H768 0.930 . S
C774 C775 1.355 . S
C774 C776 1.415 . S
C775 C774 1.355 . S
C775 C777 1.419 . S
C776 C774 1.415 . S
C776 C781 1.425 . S
C776 C783 1.409 . S
C777 H769 0.930 . S
C777 C775 1.419 . S
C777 C778 1.362 . S
C778 H770 0.930 . S
C778 C777 1.362 . S
C778 C781 1.409 . S
C779 H771 0.930 . S
C779 C780 1.355 . S
C779 C781 1.415 . S
C780 C779 1.355 . S
C780 C782 1.419 . S
C781 C776 1.425 . S
C781 C778 1.409 . S
C781 C779 1.415 . S
C782 H772 0.930 . S
C782 C780 1.419 . S
C782 C783 1.362 . S
C783 H773 0.930 . S
C783 C776 1.409 . S
C783 C782 1.362 . S
H784 C790 0.930 . S
H785 C793 0.930 . S
H786 C794 0.930 1_554 S
H787 C795 0.930 1_554 S
H788 C798 0.930 . S
H789 C799 0.930 . S
C790 H784 0.930 . S
C790 C791 1.355 . S
C790 C792 1.415 . S
C791 C790 1.355 . S
C791 C793 1.419 . S
C792 C790 1.415 . S
C792 C797 1.425 . S
C792 C799 1.409 . S
C793 H785 0.930 . S
C793 C791 1.419 . S
C793 C794 1.362 . S
C794 H786 0.930 1_556 S
C794 C793 1.362 . S
C794 C797 1.409 . S
C795 H787 0.930 1_556 S
C795 C796 1.355 . S
C795 C797 1.415 . S
C796 C795 1.355 . S
C796 C798 1.419 . S
C797 C792 1.425 . S
C797 C794 1.409 . S
C797 C795 1.415 . S
C798 H788 0.930 . S
C798 C796 1.419 . S
C798 C799 1.362 . S
C799 H789 0.930 . S
C799 C792 1.409 . S
C799 C798 1.362 . S
H800 C806 0.930 . S
H801 C809 0.930 . S
H802 C810 0.930 . S
H803 C811 0.930 . S
H804 C814 0.930 . S
H805 C815 0.930 . S
C806 H800 0.930 . S
C806 C807 1.355 . S
C806 C808 1.415 . S
C807 C806 1.355 . S
C807 C809 1.419 . S
C808 C806 1.415 . S
C808 C813 1.425 . S
C808 C815 1.409 . S
C809 H801 0.930 . S
C809 C807 1.419 . S
C809 C810 1.362 . S
C810 H802 0.930 . S
C810 C809 1.362 . S
C810 C813 1.409 . S
C811 H803 0.930 . S
C811 C812 1.355 . S
C811 C813 1.415 . S
C812 C811 1.355 . S
C812 C814 1.419 . S
C813 C808 1.425 . S
C813 C810 1.409 . S
C813 C811 1.415 . S
C814 H804 0.930 . S
C814 C812 1.419 . S
C814 C815 1.362 . S
C815 H805 0.930 . S
C815 C808 1.409 . S
C815 C814 1.362 . S
H816 C822 0.930 1_554 S
H817 C825 0.930 . S
H818 C826 0.930 . S
H819 C827 0.930 . S
H820 C830 0.930 . S
H821 C831 0.930 1_554 S
C822 H816 0.930 1_556 S
C822 C823 1.355 . S
C822 C824 1.415 . S
C823 C822 1.355 . S
C823 C825 1.419 . S
C824 C822 1.415 . S
C824 C829 1.425 . S
C824 C831 1.409 . S
C825 H817 0.930 . S
C825 C823 1.419 . S
C825 C826 1.362 . S
C826 H818 0.930 . S
C826 C825 1.362 . S
C826 C829 1.409 . S
C827 H819 0.930 . S
C827 C828 1.355 . S
C827 C829 1.415 . S
C828 C827 1.355 . S
C828 C830 1.419 . S
C829 C824 1.425 . S
C829 C826 1.409 . S
C829 C827 1.415 . S
C830 H820 0.930 . S
C830 C828 1.419 . S
C830 C831 1.362 . S
C831 H821 0.930 1_556 S
C831 C824 1.409 . S
C831 C830 1.362 . S
H832 C838 0.930 . S
H833 C841 0.930 . S
H834 C842 0.930 . S
H835 C843 0.930 . S
H836 C846 0.930 . S
H837 C847 0.930 . S
C838 H832 0.930 . S
C838 C839 1.355 . S
C838 C840 1.415 . S
C839 C838 1.355 . S
C839 C841 1.419 . S
C840 C838 1.415 . S
C840 C845 1.425 . S
C840 C847 1.409 . S
C841 H833 0.930 . S
C841 C839 1.419 . S
C841 C842 1.362 . S
C842 H834 0.930 . S
C842 C841 1.362 . S
C842 C845 1.409 . S
C843 H835 0.930 . S
C843 C844 1.355 . S
C843 C845 1.415 . S
C844 C843 1.355 . S
C844 C846 1.419 . S
C845 C840 1.425 . S
C845 C842 1.409 . S
C845 C843 1.415 . S
C846 H836 0.930 . S
C846 C844 1.419 . S
C846 C847 1.362 . S
C847 H837 0.930 . S
C847 C840 1.409 . S
C847 C846 1.362 . S
H848 C854 0.930 . S
H849 C857 0.930 . S
H850 C858 0.930 . S
H851 C859 0.930 . S
H852 C862 0.930 . S
H853 C863 0.930 . S
C854 H848 0.930 . S
C854 C855 1.355 . S
C854 C856 1.415 . S
C855 C854 1.355 . S
C855 C857 1.419 . S
C856 C854 1.415 . S
C856 C861 1.425 . S
C856 C863 1.409 . S
C857 H849 0.930 . S
C857 C855 1.419 . S
C857 C858 1.362 . S
C858 H850 0.930 . S
C858 C857 1.362 . S
C858 C861 1.409 . S
C859 H851 0.930 . S
C859 C860 1.355 . S
C859 C861 1.415 . S
C860 C859 1.355 . S
C860 C862 1.419 . S
C861 C856 1.425 . S
C861 C858 1.409 . S
C861 C859 1.415 . S
C862 H852 0.930 . S
C862 C860 1.419 . S
C862 C863 1.362 . S
C863 H853 0.930 . S
C863 C856 1.409 . S
C863 C862 1.362 . S
H864 C870 0.930 . S
H865 C873 0.930 . S
H866 C874 0.930 . S
H867 C875 0.930 . S
H868 C878 0.930 . S
H869 C879 0.930 . S
C870 H864 0.930 . S
C870 C871 1.355 . S
C870 C872 1.415 . S
C871 C870 1.355 . S
C871 C873 1.419 . S
C872 C870 1.415 . S
C872 C877 1.425 . S
C872 C879 1.409 . S
C873 H865 0.930 . S
C873 C871 1.419 . S
C873 C874 1.362 . S
C874 H866 0.930 . S
C874 C873 1.362 . S
C874 C877 1.409 . S
C875 H867 0.930 . S
C875 C876 1.355 . S
C875 C877 1.415 . S
C876 C875 1.355 . S
C876 C878 1.419 . S
C877 C872 1.425 . S
C877 C874 1.409 . S
C877 C875 1.415 . S
C878 H868 0.930 . S
C878 C876 1.419 . S
C878 C879 1.362 . S
C879 H869 0.930 . S
C879 C872 1.409 . S
C879 C878 1.362 . S
H880 C886 0.930 . S
H881 C889 0.930 . S
H882 C890 0.930 . S
H883 C891 0.930 . S
H884 C894 0.930 . S
H885 C895 0.930 . S
C886 H880 0.930 . S
C886 C887 1.355 . S
C886 C888 1.415 . S
C887 C886 1.355 . S
C887 C889 1.419 . S
C888 C886 1.415 . S
C888 C893 1.425 . S
C888 C895 1.409 . S
C889 H881 0.930 . S
C889 C887 1.419 . S
C889 C890 1.362 . S
C890 H882 0.930 . S
C890 C889 1.362 . S
C890 C893 1.409 . S
C891 H883 0.930 . S
C891 C892 1.355 . S
C891 C893 1.415 . S
C892 C891 1.355 . S
C892 C894 1.419 . S
C893 C888 1.425 . S
C893 C890 1.409 . S
C893 C891 1.415 . S
C894 H884 0.930 . S
C894 C892 1.419 . S
C894 C895 1.362 . S
C895 H885 0.930 . S
C895 C888 1.409 . S
C895 C894 1.362 . S
H896 C902 0.930 . S
H897 C905 0.930 . S
H898 C906 0.930 . S
H899 C907 0.930 . S
H900 C910 0.930 . S
H901 C911 0.930 . S
C902 H896 0.930 . S
C902 C903 1.355 . S
C902 C904 1.415 . S
C903 C902 1.355 . S
C903 C905 1.419 . S
C904 C902 1.415 . S
C904 C909 1.425 . S
C904 C911 1.409 1_556 S
C905 H897 0.930 . S
C905 C903 1.419 . S
C905 C906 1.362 . S
C906 H898 0.930 . S
C906 C905 1.362 . S
C906 C909 1.409 . S
C907 H899 0.930 . S
C907 C908 1.357 . S
C907 C909 1.415 . S
C908 C907 1.357 . S
C908 C910 1.418 1_556 S
C909 C904 1.425 . S
C909 C906 1.409 . S
C909 C907 1.415 . S
C910 H900 0.930 . S
C910 C908 1.418 1_554 S
C910 C911 1.362 . S
C911 H901 0.930 . S
C911 C904 1.409 1_554 S
C911 C910 1.362 . S
H912 C918 0.930 1_556 S
H913 C921 0.930 . S
H914 C922 0.930 . S
H915 C923 0.930 . S
H916 C926 0.930 . S
H917 C927 0.930 . S
C918 H912 0.930 1_554 S
C918 C919 1.355 . S
C918 C920 1.415 . S
C919 C918 1.355 . S
C919 C921 1.419 . S
C920 C918 1.415 . S
C920 C925 1.425 . S
C920 C927 1.409 . S
C921 H913 0.930 . S
C921 C919 1.419 . S
C921 C922 1.362 . S
C922 H914 0.930 . S
C922 C921 1.362 . S
C922 C925 1.409 . S
C923 H915 0.930 . S
C923 C924 1.355 . S
C923 C925 1.415 . S
C924 C923 1.355 . S
C924 C926 1.419 . S
C925 C920 1.425 . S
C925 C922 1.409 . S
C925 C923 1.415 . S
C926 H916 0.930 . S
C926 C924 1.419 . S
C926 C927 1.362 . S
C927 H917 0.930 . S
C927 C920 1.409 . S
C927 C926 1.362 . S
H928 C934 0.930 . S
H929 C937 0.930 . S
H930 C938 0.930 . S
H931 C939 0.930 . S
H932 C942 0.930 . S
H933 C943 0.930 1_554 S
C934 H928 0.930 . S
C934 C935 1.355 1_554 S
C934 C936 1.415 1_554 S
C935 C934 1.355 1_556 S
C935 C937 1.419 . S
C936 C934 1.415 1_556 S
C936 C941 1.425 . S
C936 C943 1.409 . S
C937 H929 0.930 . S
C937 C935 1.419 . S
C937 C938 1.362 . S
C938 H930 0.930 . S
C938 C937 1.362 . S
C938 C941 1.409 . S
C939 H931 0.930 . S
C939 C940 1.355 . S
C939 C941 1.415 . S
C940 C939 1.355 . S
C940 C942 1.419 . S
C941 C936 1.425 . S
C941 C938 1.409 . S
C941 C939 1.415 . S
C942 H932 0.930 . S
C942 C940 1.419 . S
C942 C943 1.362 . S
C943 H933 0.930 1_556 S
C943 C936 1.409 . S
C943 C942 1.362 . S
H944 C950 0.930 . S
H945 C953 0.930 . S
H946 C954 0.930 1_556 S
H947 C955 0.930 . S
H948 C958 0.930 . S
H949 C959 0.930 . S
C950 H944 0.930 . S
C950 C951 1.355 . S
C950 C952 1.415 . S
C951 C950 1.355 . S
C951 C953 1.419 1_554 S
C952 C950 1.415 . S
C952 C957 1.425 . S
C952 C959 1.409 . S
C953 H945 0.930 . S
C953 C951 1.419 1_556 S
C953 C954 1.362 1_556 S
C954 H946 0.930 1_554 S
C954 C953 1.362 1_554 S
C954 C957 1.409 . S
C955 H947 0.930 . S
C955 C956 1.355 . S
C955 C957 1.415 . S
C956 C955 1.355 . S
C956 C958 1.419 . S
C957 C952 1.425 . S
C957 C954 1.409 . S
C957 C955 1.415 . S
C958 H948 0.930 . S
C958 C956 1.419 . S
C958 C959 1.362 . S
C959 H949 0.930 . S
C959 C952 1.409 . S
C959 C958 1.362 . S
H960 C966 0.930 . S
H961 C969 0.930 . S
H962 C970 0.930 . S
H963 C971 0.930 . S
H964 C974 0.930 . S
H965 C975 0.930 . S
C966 H960 0.930 . S
C966 C967 1.355 . S
C966 C968 1.415 . S
C967 C966 1.355 . S
C967 C969 1.419 . S
C968 C966 1.415 . S
C968 C973 1.425 . S
C968 C975 1.409 . S
C969 H961 0.930 . S
C969 C967 1.419 . S
C969 C970 1.362 . S
C970 H962 0.930 . S
C970 C969 1.362 . S
C970 C973 1.409 . S
C971 H963 0.930 . S
C971 C972 1.355 . S
C971 C973 1.415 . S
C972 C971 1.355 . S
C972 C974 1.419 . S
C973 C968 1.425 . S
C973 C970 1.409 . S
C973 C971 1.415 . S
C974 H964 0.930 . S
C974 C972 1.419 . S
C974 C975 1.362 . S
C975 H965 0.930 . S
C975 C968 1.409 . S
C975 C974 1.362 . S
H976 C982 0.930 . S
H977 C985 0.930 . S
H978 C986 0.930 . S
H979 C987 0.930 . S
H980 C990 0.930 . S
H981 C991 0.930 . S
C982 H976 0.930 . S
C982 C983 1.355 . S
C982 C984 1.415 . S
C983 C982 1.355 . S
C983 C985 1.419 . S
C984 C982 1.415 . S
C984 C989 1.425 . S
C984 C991 1.409 . S
C985 H977 0.930 . S
C985 C983 1.419 . S
C985 C986 1.362 . S
C986 H978 0.930 . S
C986 C985 1.362 . S
C986 C989 1.409 . S
C987 H979 0.930 . S
C987 C988 1.355 . S
C987 C989 1.415 . S
C988 C987 1.355 . S
C988 C990 1.419 . S
C989 C984 1.425 . S
C989 C986 1.409 . S
C989 C987 1.415 . S
C990 H980 0.930 . S
C990 C988 1.419 . S
C990 C991 1.362 . S
C991 H981 0.930 . S
C991 C984 1.409 . S
C991 C990 1.362 . S
H992 C998 0.930 . S
H993 C1001 0.930 . S
H994 C1002 0.930 . S
H995 C1003 0.930 . S
H996 C1006 0.930 . S
H997 C1007 0.930 . S
C998 H992 0.930 . S
C998 C999 1.355 . S
C998 C1000 1.415 . S
C999 C998 1.355 . S
C999 C1001 1.419 . S
C1000 C998 1.415 . S
C1000 C1005 1.425 . S
C1000 C1007 1.409 . S
C1001 H993 0.930 . S
C1001 C999 1.419 . S
C1001 C1002 1.362 . S
C1002 H994 0.930 . S
C1002 C1001 1.362 . S
C1002 C1005 1.409 . S
C1003 H995 0.930 . S
C1003 C1004 1.355 . S
C1003 C1005 1.415 . S
C1004 C1003 1.355 . S
C1004 C1006 1.419 . S
C1005 C1000 1.425 . S
C1005 C1002 1.409 . S
C1005 C1003 1.415 . S
C1006 H996 0.930 . S
C1006 C1004 1.419 . S
C1006 C1007 1.362 . S
C1007 H997 0.930 . S
C1007 C1000 1.409 . S
C1007 C1006 1.362 . S
H1008 C1014 0.930 . S
H1009 C1017 0.930 . S
H1010 C1018 0.930 . S
H1011 C1019 0.930 . S
H1012 C1022 0.930 . S
H1013 C1023 0.930 . S
C1014 H1008 0.930 . S
C1014 C1015 1.355 . S
C1014 C1016 1.415 . S
C1015 C1014 1.355 . S
C1015 C1017 1.419 . S
C1016 C1014 1.415 . S
C1016 C1021 1.425 . S
C1016 C1023 1.409 . S
C1017 H1009 0.930 . S
C1017 C1015 1.419 . S
C1017 C1018 1.362 . S
C1018 H1010 0.930 . S
C1018 C1017 1.362 . S
C1018 C1021 1.409 . S
C1019 H1011 0.930 . S
C1019 C1020 1.355 . S
C1019 C1021 1.415 . S
C1020 C1019 1.355 . S
C1020 C1022 1.419 . S
C1021 C1016 1.425 . S
C1021 C1018 1.409 . S
C1021 C1019 1.415 . S
C1022 H1012 0.930 . S
C1022 C1020 1.419 . S
C1022 C1023 1.362 . S
C1023 H1013 0.930 . S
C1023 C1016 1.409 . S
C1023 C1022 1.362 . S
H1024 C1030 0.930 . S
H1025 C1033 0.930 . S
H1026 C1034 0.930 . S
H1027 C1035 0.930 . S
H1028 C1038 0.930 . S
H1029 C1039 0.930 . S
C1030 H1024 0.930 . S
C1030 C1031 1.355 . S
C1030 C1032 1.415 . S
C1031 C1030 1.355 . S
C1031 C1033 1.419 . S
C1032 C1030 1.415 . S
C1032 C1037 1.425 . S
C1032 C1039 1.409 . S
C1033 H1025 0.930 . S
C1033 C1031 1.419 . S
C1033 C1034 1.362 . S
C1034 H1026 0.930 . S
C1034 C1033 1.362 . S
C1034 C1037 1.409 . S
C1035 H1027 0.930 . S
C1035 C1036 1.355 . S
C1035 C1037 1.415 . S
C1036 C1035 1.355 . S
C1036 C1038 1.419 . S
C1037 C1032 1.425 . S
C1037 C1034 1.409 . S
C1037 C1035 1.415 . S
C1038 H1028 0.930 . S
C1038 C1036 1.419 . S
C1038 C1039 1.362 . S
C1039 H1029 0.930 . S
C1039 C1032 1.409 . S
C1039 C1038 1.362 . S
H1040 C1046 0.930 . S
H1041 C1049 0.930 . S
H1042 C1050 0.930 . S
H1043 C1051 0.930 . S
H1044 C1054 0.930 . S
H1045 C1055 0.930 . S
C1046 H1040 0.930 . S
C1046 C1047 1.355 . S
C1046 C1048 1.415 . S
C1047 C1046 1.355 . S
C1047 C1049 1.419 . S
C1048 C1046 1.415 . S
C1048 C1053 1.425 . S
C1048 C1055 1.409 . S
C1049 H1041 0.930 . S
C1049 C1047 1.419 . S
C1049 C1050 1.362 . S
C1050 H1042 0.930 . S
C1050 C1049 1.362 . S
C1050 C1053 1.409 . S
C1051 H1043 0.930 . S
C1051 C1052 1.355 . S
C1051 C1053 1.415 . S
C1052 C1051 1.355 . S
C1052 C1054 1.419 . S
C1053 C1048 1.425 . S
C1053 C1050 1.409 . S
C1053 C1051 1.415 . S
C1054 H1044 0.930 . S
C1054 C1052 1.419 . S
C1054 C1055 1.362 . S
C1055 H1045 0.930 . S
C1055 C1048 1.409 . S
C1055 C1054 1.362 . S
H1056 C1062 0.930 . S
H1057 C1065 0.930 . S
H1058 C1066 0.930 . S
H1059 C1067 0.930 . S
H1060 C1070 0.930 . S
H1061 C1071 0.930 . S
C1062 H1056 0.930 . S
C1062 C1063 1.355 . S
C1062 C1064 1.415 . S
C1063 C1062 1.355 . S
C1063 C1065 1.419 . S
C1064 C1062 1.415 . S
C1064 C1069 1.425 . S
C1064 C1071 1.409 . S
C1065 H1057 0.930 . S
C1065 C1063 1.419 . S
C1065 C1066 1.362 . S
C1066 H1058 0.930 . S
C1066 C1065 1.362 . S
C1066 C1069 1.409 . S
C1067 H1059 0.930 . S
C1067 C1068 1.355 . S
C1067 C1069 1.415 . S
C1068 C1067 1.355 . S
C1068 C1070 1.419 . S
C1069 C1064 1.425 . S
C1069 C1066 1.409 . S
C1069 C1067 1.415 . S
C1070 H1060 0.930 . S
C1070 C1068 1.419 . S
C1070 C1071 1.362 . S
C1071 H1061 0.930 . S
C1071 C1064 1.409 . S
C1071 C1070 1.362 . S
H1072 C1078 0.930 . S
H1073 C1081 0.930 . S
H1074 C1082 0.930 . S
H1075 C1083 0.930 . S
H1076 C1086 0.930 . S
H1077 C1087 0.930 . S
C1078 H1072 0.930 . S
C1078 C1079 1.355 . S
C1078 C1080 1.415 . S
C1079 C1078 1.355 . S
C1079 C1081 1.419 . S
C1080 C1078 1.415 . S
C1080 C1085 1.425 . S
C1080 C1087 1.409 . S
C1081 H1073 0.930 . S
C1081 C1079 1.419 . S
C1081 C1082 1.362 . S
C1082 H1074 0.930 . S
C1082 C1081 1.362 . S
C1082 C1085 1.409 . S
C1083 H1075 0.930 . S
C1083 C1084 1.355 . S
C1083 C1085 1.415 . S
C1084 C1083 1.355 . S
C1084 C1086 1.419 . S
C1085 C1080 1.425 . S
C1085 C1082 1.409 . S
C1085 C1083 1.415 . S
C1086 H1076 0.930 . S
C1086 C1084 1.419 . S
C1086 C1087 1.362 . S
C1087 H1077 0.930 . S
C1087 C1080 1.409 . S
C1087 C1086 1.362 . S
H1088 C1094 0.930 . S
H1089 C1097 0.930 . S
H1090 C1098 0.930 . S
H1091 C1099 0.930 . S
H1092 C1102 0.930 . S
H1093 C1103 0.930 . S
C1094 H1088 0.930 . S
C1094 C1095 1.355 . S
C1094 C1096 1.415 . S
C1095 C1094 1.355 . S
C1095 C1097 1.419 . S
C1096 C1094 1.415 . S
C1096 C1101 1.425 . S
C1096 C1103 1.409 . S
C1097 H1089 0.930 . S
C1097 C1095 1.419 . S
C1097 C1098 1.362 . S
C1098 H1090 0.930 . S
C1098 C1097 1.362 . S
C1098 C1101 1.409 . S
C1099 H1091 0.930 . S
C1099 C1100 1.355 . S
C1099 C1101 1.415 . S
C1100 C1099 1.355 . S
C1100 C1102 1.419 . S
C1101 C1096 1.425 . S
C1101 C1098 1.409 . S
C1101 C1099 1.415 . S
C1102 H1092 0.930 . S
C1102 C1100 1.419 . S
C1102 C1103 1.362 . S
C1103 H1093 0.930 . S
C1103 C1096 1.409 . S
C1103 C1102 1.362 . S
H1104 C1110 0.930 . S
H1105 C1113 0.930 . S
H1106 C1114 0.930 . S
H1107 C1115 0.930 . S
H1108 C1118 0.930 . S
H1109 C1119 0.930 . S
C1110 H1104 0.930 . S
C1110 C1111 1.355 . S
C1110 C1112 1.415 . S
C1111 C1110 1.355 . S
C1111 C1113 1.419 . S
C1112 C1110 1.415 . S
C1112 C1117 1.425 . S
C1112 C1119 1.409 . S
C1113 H1105 0.930 . S
C1113 C1111 1.419 . S
C1113 C1114 1.362 . S
C1114 H1106 0.930 . S
C1114 C1113 1.362 . S
C1114 C1117 1.409 . S
C1115 H1107 0.930 . S
C1115 C1116 1.355 . S
C1115 C1117 1.415 . S
C1116 C1115 1.355 . S
C1116 C1118 1.419 . S
C1117 C1112 1.425 . S
C1117 C1114 1.409 . S
C1117 C1115 1.415 . S
C1118 H1108 0.930 . S
C1118 C1116 1.419 . S
C1118 C1119 1.362 . S
C1119 H1109 0.930 . S
C1119 C1112 1.409 . S
C1119 C1118 1.362 . S
H1120 C1126 0.930 . S
H1121 C1129 0.930 . S
H1122 C1130 0.930 . S
H1123 C1131 0.930 . S
H1124 C1134 0.930 . S
H1125 C1135 0.930 . S
C1126 H1120 0.930 . S
C1126 C1127 1.355 . S
C1126 C1128 1.415 . S
C1127 C1126 1.355 . S
C1127 C1129 1.419 . S
C1128 C1126 1.415 . S
C1128 C1133 1.425 . S
C1128 C1135 1.409 . S
C1129 H1121 0.930 . S
C1129 C1127 1.419 . S
C1129 C1130 1.362 . S
C1130 H1122 0.930 . S
C1130 C1129 1.362 . S
C1130 C1133 1.409 . S
C1131 H1123 0.930 . S
C1131 C1132 1.355 . S
C1131 C1133 1.415 . S
C1132 C1131 1.355 . S
C1132 C1134 1.419 . S
C1133 C1128 1.425 . S
C1133 C1130 1.409 . S
C1133 C1131 1.415 . S
C1134 H1124 0.930 . S
C1134 C1132 1.419 . S
C1134 C1135 1.362 . S
C1135 H1125 0.930 . S
C1135 C1128 1.409 . S
C1135 C1134 1.362 . S
H1136 C1142 0.930 . S
H1137 C1145 0.930 . S
H1138 C1146 0.930 . S
H1139 C1147 0.930 . S
H1140 C1150 0.930 . S
H1141 C1151 0.930 . S
C1142 H1136 0.930 . S
C1142 C1143 1.355 . S
C1142 C1144 1.415 . S
C1143 C1142 1.355 . S
C1143 C1145 1.419 . S
C1144 C1142 1.415 . S
C1144 C1149 1.425 . S
C1144 C1151 1.409 . S
C1145 H1137 0.930 . S
C1145 C1143 1.419 . S
C1145 C1146 1.362 . S
C1146 H1138 0.930 . S
C1146 C1145 1.362 . S
C1146 C1149 1.409 . S
C1147 H1139 0.930 . S
C1147 C1148 1.355 . S
C1147 C1149 1.415 . S
C1148 C1147 1.355 . S
C1148 C1150 1.419 . S
C1149 C1144 1.425 . S
C1149 C1146 1.409 . S
C1149 C1147 1.415 . S
C1150 H1140 0.930 . S
C1150 C1148 1.419 . S
C1150 C1151 1.362 . S
C1151 H1141 0.930 . S
C1151 C1144 1.409 . S
C1151 C1150 1.362 . S
H1152 C1158 0.930 . S
H1153 C1161 0.930 . S
H1154 C1162 0.930 . S
H1155 C1163 0.930 . S
H1156 C1166 0.930 . S
H1157 C1167 0.930 . S
C1158 H1152 0.930 . S
C1158 C1159 1.355 . S
C1158 C1160 1.415 1_556 S
C1159 C1158 1.355 . S
C1159 C1161 1.419 . S
C1160 C1158 1.415 1_554 S
C1160 C1165 1.425 . S
C1160 C1167 1.409 . S
C1161 H1153 0.930 . S
C1161 C1159 1.419 . S
C1161 C1162 1.362 1_556 S
C1162 H1154 0.930 . S
C1162 C1161 1.362 1_554 S
C1162 C1165 1.409 . S
C1163 H1155 0.930 . S
C1163 C1164 1.355 . S
C1163 C1165 1.415 . S
C1164 C1163 1.355 . S
C1164 C1166 1.419 . S
C1165 C1160 1.425 . S
C1165 C1162 1.409 . S
C1165 C1163 1.415 . S
C1166 H1156 0.930 . S
C1166 C1164 1.419 . S
C1166 C1167 1.362 . S
C1167 H1157 0.930 . S
C1167 C1160 1.409 . S
C1167 C1166 1.362 . S
H1168 C1174 0.930 . S
H1169 C1177 0.930 . S
H1170 C1178 0.930 . S
H1171 C1179 0.930 . S
H1172 C1182 0.930 . S
H1173 C1183 0.930 . S
C1174 H1168 0.930 . S
C1174 C1175 1.355 . S
C1174 C1176 1.415 . S
C1175 C1174 1.355 . S
C1175 C1177 1.419 . S
C1176 C1174 1.415 . S
C1176 C1181 1.425 . S
C1176 C1183 1.409 . S
C1177 H1169 0.930 . S
C1177 C1175 1.419 . S
C1177 C1178 1.362 . S
C1178 H1170 0.930 . S
C1178 C1177 1.362 . S
C1178 C1181 1.409 . S
C1179 H1171 0.930 . S
C1179 C1180 1.355 . S
C1179 C1181 1.415 1_554 S
C1180 C1179 1.355 . S
C1180 C1182 1.419 . S
C1181 C1176 1.425 . S
C1181 C1178 1.409 . S
C1181 C1179 1.415 1_556 S
C1182 H1172 0.930 . S
C1182 C1180 1.419 . S
C1182 C1183 1.362 1_554 S
C1183 H1173 0.930 . S
C1183 C1176 1.409 . S
C1183 C1182 1.362 1_556 S
H1184 C1190 0.930 . S
H1185 C1193 0.930 . S
H1186 C1194 0.930 . S
H1187 C1195 0.930 . S
H1188 C1198 0.930 . S
H1189 C1199 0.930 . S
C1190 H1184 0.930 . S
C1190 C1191 1.355 . S
C1190 C1192 1.415 . S
C1191 C1190 1.355 . S
C1191 C1193 1.419 . S
C1192 C1190 1.415 . S
C1192 C1197 1.425 . S
C1192 C1199 1.409 . S
C1193 H1185 0.930 . S
C1193 C1191 1.419 . S
C1193 C1194 1.362 . S
C1194 H1186 0.930 . S
C1194 C1193 1.362 . S
C1194 C1197 1.409 . S
C1195 H1187 0.930 . S
C1195 C1196 1.355 . S
C1195 C1197 1.415 1_556 S
C1196 C1195 1.355 . S
C1196 C1198 1.419 . S
C1197 C1192 1.425 . S
C1197 C1194 1.409 . S
C1197 C1195 1.415 1_554 S
C1198 H1188 0.930 . S
C1198 C1196 1.419 . S
C1198 C1199 1.362 1_556 S
C1199 H1189 0.930 . S
C1199 C1192 1.409 . S
C1199 C1198 1.362 1_554 S
H1200 C1206 0.930 . S
H1201 C1209 0.930 . S
H1202 C1210 0.930 . S
H1203 C1211 0.930 . S
H1204 C1214 0.930 . S
H1205 C1215 0.930 . S
C1206 H1200 0.930 . S
C1206 C1207 1.355 . S
C1206 C1208 1.415 1_554 S
C1207 C1206 1.355 . S
C1207 C1209 1.419 . S
C1208 C1206 1.415 1_556 S
C1208 C1213 1.425 . S
C1208 C1215 1.409 . S
C1209 H1201 0.930 . S
C1209 C1207 1.419 . S
C1209 C1210 1.362 1_554 S
C1210 H1202 0.930 . S
C1210 C1209 1.362 1_556 S
C1210 C1213 1.409 . S
C1211 H1203 0.930 . S
C1211 C1212 1.355 . S
C1211 C1213 1.415 . S
C1212 C1211 1.355 . S
C1212 C1214 1.419 . S
C1213 C1208 1.425 . S
C1213 C1210 1.409 . S
C1213 C1211 1.415 . S
C1214 H1204 0.930 . S
C1214 C1212 1.419 . S
C1214 C1215 1.362 . S
C1215 H1205 0.930 . S
C1215 C1208 1.409 . S
C1215 C1214 1.362 . S
H1216 C1222 0.930 . S
H1217 C1225 0.930 . S
H1218 C1226 0.930 . S
H1219 C1227 0.930 1_556 S
H1220 C1230 0.930 . S
H1221 C1231 0.930 . S
C1222 H1216 0.930 . S
C1222 C1223 1.355 . S
C1222 C1224 1.415 . S
C1223 C1222 1.355 . S
C1223 C1225 1.419 . S
C1224 C1222 1.415 . S
C1224 C1229 1.425 . S
C1224 C1231 1.409 . S
C1225 H1217 0.930 . S
C1225 C1223 1.419 . S
C1225 C1226 1.362 . S
C1226 H1218 0.930 . S
C1226 C1225 1.362 . S
C1226 C1229 1.409 . S
C1227 H1219 0.930 1_554 S
C1227 C1228 1.355 1_554 S
C1227 C1229 1.415 . S
C1228 C1227 1.355 1_556 S
C1228 C1230 1.419 . S
C1229 C1224 1.425 . S
C1229 C1226 1.409 . S
C1229 C1227 1.415 . S
C1230 H1220 0.930 . S
C1230 C1228 1.419 . S
C1230 C1231 1.362 1_556 S
C1231 H1221 0.930 . S
C1231 C1224 1.409 . S
C1231 C1230 1.362 1_554 S
H1232 C1238 0.930 . S
H1233 C1241 0.930 . S
H1234 C1242 0.930 . S
H1235 C1243 0.930 . S
H1236 C1246 0.930 . S
H1237 C1247 0.930 . S
C1238 H1232 0.930 . S
C1238 C1239 1.355 . S
C1238 C1240 1.415 1_554 S
C1239 C1238 1.355 . S
C1239 C1241 1.419 . S
C1240 C1238 1.415 1_556 S
C1240 C1245 1.425 . S
C1240 C1247 1.409 . S
C1241 H1233 0.930 . S
C1241 C1239 1.419 . S
C1241 C1242 1.362 1_554 S
C1242 H1234 0.930 . S
C1242 C1241 1.362 1_556 S
C1242 C1245 1.409 . S
C1243 H1235 0.930 . S
C1243 C1244 1.355 . S
C1243 C1245 1.415 . S
C1244 C1243 1.355 . S
C1244 C1246 1.419 . S
C1245 C1240 1.425 . S
C1245 C1242 1.409 . S
C1245 C1243 1.415 . S
C1246 H1236 0.930 . S
C1246 C1244 1.419 . S
C1246 C1247 1.362 . S
C1247 H1237 0.930 . S
C1247 C1240 1.409 . S
C1247 C1246 1.362 . S
H1248 C1254 0.930 1_556 S
H1249 C1257 0.930 . S
H1250 C1258 0.930 . S
H1251 C1259 0.930 . S
H1252 C1262 0.930 . S
H1253 C1263 0.930 . S
C1254 H1248 0.930 1_554 S
C1254 C1255 1.355 1_554 S
C1254 C1256 1.415 . S
C1255 C1254 1.355 1_556 S
C1255 C1257 1.419 . S
C1256 C1254 1.415 . S
C1256 C1261 1.425 . S
C1256 C1263 1.409 . S
C1257 H1249 0.930 . S
C1257 C1255 1.419 . S
C1257 C1258 1.362 1_556 S
C1258 H1250 0.930 . S
C1258 C1257 1.362 1_554 S
C1258 C1261 1.409 . S
C1259 H1251 0.930 . S
C1259 C1260 1.355 . S
C1259 C1261 1.415 . S
C1260 C1259 1.355 . S
C1260 C1262 1.419 . S
C1261 C1256 1.425 . S
C1261 C1258 1.409 . S
C1261 C1259 1.415 . S
C1262 H1252 0.930 . S
C1262 C1260 1.419 . S
C1262 C1263 1.362 . S
C1263 H1253 0.930 . S
C1263 C1256 1.409 . S
C1263 C1262 1.362 . S
H1264 C1270 0.930 . S
H1265 C1273 0.930 . S
H1266 C1274 0.930 . S
H1267 C1275 0.930 . S
H1268 C1278 0.930 . S
H1269 C1279 0.930 . S
C1270 H1264 0.930 . S
C1270 C1271 1.355 . S
C1270 C1272 1.415 . S
C1271 C1270 1.355 . S
C1271 C1273 1.419 . S
C1272 C1270 1.415 . S
C1272 C1277 1.425 . S
C1272 C1279 1.409 . S
C1273 H1265 0.930 . S
C1273 C1271 1.419 . S
C1273 C1274 1.362 . S
C1274 H1266 0.930 . S
C1274 C1273 1.362 . S
C1274 C1277 1.409 . S
C1275 H1267 0.930 . S
C1275 C1276 1.355 . S
C1275 C1277 1.415 1_554 S
C1276 C1275 1.355 . S
C1276 C1278 1.419 . S
C1277 C1272 1.425 . S
C1277 C1274 1.409 . S
C1277 C1275 1.415 1_556 S
C1278 H1268 0.930 . S
C1278 C1276 1.419 . S
C1278 C1279 1.362 1_554 S
C1279 H1269 0.930 . S
C1279 C1272 1.409 . S
C1279 C1278 1.362 1_556 S
C519 C381 1.598 . S
C524 N13 1.600 1_565 S
C535 C285 1.602 . S
C540 N45 1.593 1_655 S
C551 N82 1.560 1_545 S
C556 C317 1.580 . S
C567 N114 1.601 1_455 S
C572 C324 1.593 . S
C583 N141 1.598 . S
C588 C164 1.600 . S
C599 C221 1.595 . S
C604 N178 1.601 . S
C615 N205 1.566 . S
C620 C253 1.587 . S
C631 C157 1.599 . S
C636 N237 1.598 . S
C647 C100 1.563 . S
C652 N269 1.578 . S
C663 N301 1.596 . S
C668 C29 1.579 . S
C679 C61 1.602 . S
C684 N338 1.591 . S
C695 C68 1.595 . S
C700 N365 1.574 . S
C711 N402 1.596 1_545 S
C716 C445 1.601 . S
C727 C477 1.571 . S
C732 N429 1.557 1_455 S
C743 C484 1.580 . S
C748 N461 1.561 1_565 S
C759 N498 1.571 1_655 S
C764 C388 1.560 . S
C775 N18 1.198 . S
C780 N146 1.133 . S
C791 N173 1.188 . S
C796 N50 1.131 . S
C807 N77 1.149 . S
C812 N210 1.226 . S
C823 N109 1.138 . S
C828 N242 1.157 . S
C839 N274 1.247 . S
C844 N397 1.204 . S
C855 N434 1.247 . S
C860 N306 1.203 . S
C871 N333 1.166 . S
C876 N466 1.134 . S
C887 N370 1.158 . S
C892 N493 1.138 . S
C903 C450 2.193 . S
C908 C2 2.196 1_556 S
C919 C34 2.175 1_554 S
C924 C486 2.181 . S
C935 C70 2.170 1_556 S
C940 C390 2.169 . S
C951 C102 2.195 1_554 S
C956 C418 2.189 . S
C967 C130 2.196 . S
C972 C326 2.199 . S
C983 C166 2.189 . S
C988 C354 2.182 . S
C999 C194 2.194 . S
C1004 C258 2.198 . S
C1015 C290 2.169 . S
C1020 C226 2.169 . S
C1031 C6 1.099 . S
C1036 C4 1.105 . S
C1047 C38 1.110 . S
C1052 C36 1.104 . S
C1063 C66 1.112 . S
C1068 C93 1.105 . S
C1079 C125 1.106 . S
C1084 C98 1.108 . S
C1095 C132 1.102 . S
C1100 C134 1.100 . S
C1111 C162 1.092 . S
C1116 C189 1.104 . S
C1127 C198 1.094 . S
C1132 C196 1.104 . S
C1143 C228 1.103 . S
C1148 C230 1.092 . S
C1159 C262 1.108 . S
C1164 C260 1.103 . S
C1175 C292 1.104 . S
C1180 C294 1.112 . S
C1191 C349 1.105 . S
C1196 C322 1.113 . S
C1207 C358 1.099 . S
C1212 C356 1.105 . S
C1223 C386 1.095 . S
C1228 C413 1.102 . S
C1239 C420 1.106 . S
C1244 C422 1.108 . S
C1255 C452 1.105 . S
C1260 C454 1.096 . S
C1271 C482 1.112 . S
C1276 C509 1.104 . S
