# Generated by pormake.
# Topology qtz-e, (6)-cn, num edge types: 1
# Building blocks:
#     Node 0, Type 0, BuildingBlock: UKALOJ_clean_sbu_0, # of connection points: 6
#     Node 1, Type 0, BuildingBlock: UKALOJ_clean_sbu_0, # of connection points: 6
#     Node 2, Type 0, BuildingBlock: UKALOJ_clean_sbu_0, # of connection points: 6
#     Node 3, Type 0, BuildingBlock: UKALOJ_clean_sbu_0, # of connection points: 6
#     Node 4, Type 0, BuildingBlock: UKALOJ_clean_sbu_0, # of connection points: 6
#     Node 5, Type 0, BuildingBlock: UKALOJ_clean_sbu_0, # of connection points: 6
#     Edge 6, Type (0, 0), BuildingBlock: OJICUG_clean_linker_0, # of connection points: 2
#     Edge 7, Type (0, 0), BuildingBlock: OJICUG_clean_linker_0, # of connection points: 2
#     Edge 8, Type (0, 0), BuildingBlock: OJICUG_clean_linker_0, # of connection points: 2
#     Edge 9, Type (0, 0), BuildingBlock: OJICUG_clean_linker_0, # of connection points: 2
#     Edge 10, Type (0, 0), BuildingBlock: OJICUG_clean_linker_0, # of connection points: 2
#     Edge 11, Type (0, 0), BuildingBlock: OJICUG_clean_linker_0, # of connection points: 2
#     Edge 12, Type (0, 0), BuildingBlock: OJICUG_clean_linker_0, # of connection points: 2
#     Edge 13, Type (0, 0), BuildingBlock: OJICUG_clean_linker_0, # of connection points: 2
#     Edge 14, Type (0, 0), BuildingBlock: OJICUG_clean_linker_0, # of connection points: 2
#     Edge 15, Type (0, 0), BuildingBlock: OJICUG_clean_linker_0, # of connection points: 2
#     Edge 16, Type (0, 0), BuildingBlock: OJICUG_clean_linker_0, # of connection points: 2
#     Edge 17, Type (0, 0), BuildingBlock: OJICUG_clean_linker_0, # of connection points: 2
#     Edge 18, Type (0, 0), BuildingBlock: OJICUG_clean_linker_0, # of connection points: 2
#     Edge 19, Type (0, 0), BuildingBlock: OJICUG_clean_linker_0, # of connection points: 2
#     Edge 20, Type (0, 0), BuildingBlock: OJICUG_clean_linker_0, # of connection points: 2
#     Edge 21, Type (0, 0), BuildingBlock: OJICUG_clean_linker_0, # of connection points: 2
#     Edge 22, Type (0, 0), BuildingBlock: OJICUG_clean_linker_0, # of connection points: 2
#     Edge 23, Type (0, 0), BuildingBlock: OJICUG_clean_linker_0, # of connection points: 2
# Relax obj value: 0.489
# Max RMSD: 0.268
# Mean RMSD: 0.268
data_MOF--net-qtz-e--node1-UKALOJ_clean_sbu_0--edge1-OJICUG_clean_linker_0
_symmetry_space_group_name_H-M    P1
_symmetry_Int_Tables_number       1
_symmetry_cell_setting            triclinic
loop_
_symmetry_equiv_pos_as_xyz
'x, y, z'
_cell_length_a     20.568632
_cell_length_b     20.553341
_cell_length_c     29.792285
_cell_angle_alpha  89.803314
_cell_angle_beta   90.215847
_cell_angle_gamma 119.96044
loop_
_atom_site_label
_atom_site_type_symbol
_atom_site_fract_x
_atom_site_fract_y
_atom_site_fract_z
_atom_type_partial_charge
Zn0 Zn 0.22509 0.43866 0.01273 0.0
O1 O 0.14067 0.46374 0.00596 0.0
C2 C 0.12804 0.28946 0.04643 0.0
Zn3 Zn 0.17854 0.36539 0.95548 0.0
C4 C 0.08369 0.4278 0.98103 0.0
O5 O 0.0775 0.3737 0.95677 0.0
C6 C 0.33558 0.40511 -0.01313 0.0
O7 O 0.21911 0.45099 0.90998 0.0
O8 O 0.2882 0.52355 0.96492 0.0
N9 N 0.13886 0.28731 0.90396 0.0
C10 C 0.17598 0.27679 0.87006 0.0
C11 C 0.06301 0.18672 0.86715 0.0
N12 N 0.06843 0.23146 0.90184 0.0
N13 N 0.12986 0.21436 0.84663 0.0
C14 C 0.25402 0.52678 0.10014 0.0
C15 C 0.36933 0.61026 0.09222 0.0
N16 N 0.27638 0.51561 0.06019 0.0
N17 N 0.34809 0.56699 0.05535 0.0
N18 N 0.31165 0.58495 0.1211 0.0
H19 H 0.15941 0.52288 0.13379 0.0
H20 H 0.17075 0.44267 0.14268 0.0
H21 H 0.13441 0.45408 0.09003 0.0
C22 C 0.17492 0.48423 0.1173 0.0
C23 C 0.25772 0.32664 0.85979 0.0
H24 H 0.27693 0.38563 0.86895 0.0
H25 H 0.26857 0.32409 0.82354 0.0
H26 H 0.29084 0.30677 0.87897 0.0
O27 O 0.29194 0.37554 0.95335 0.0
O28 O 0.30825 0.41593 0.02168 0.0
C29 C 0.26913 0.51463 0.92391 0.0
O30 O 0.16375 0.3572 0.0591 0.0
O31 O 0.12946 0.27426 0.00505 0.0
Zn32 Zn 0.806 0.18056 0.28894 0.0
O33 O 0.75969 0.22364 0.246 0.0
C34 C 0.92442 0.33723 0.32023 0.0
Zn35 Zn 0.78246 0.22557 0.34838 0.0
C36 C 0.74662 0.27313 0.26155 0.0
O37 O 0.75791 0.29037 0.30282 0.0
C38 C 0.83601 0.12674 0.37764 0.0
O39 O 0.67277 0.14053 0.34254 0.0
O40 O 0.69699 0.07989 0.29033 0.0
N41 N 0.75814 0.27382 0.39844 0.0
C42 C 0.72475 0.24887 0.43833 0.0
C43 C 0.75767 0.36496 0.43349 0.0
N44 N 0.77907 0.34598 0.39554 0.0
N45 N 0.72481 0.30532 0.46116 0.0
C46 C 0.88941 0.18146 0.20154 0.0
C47 C 0.86716 0.06877 0.19694 0.0
N48 N 0.84234 0.14289 0.23545 0.0
N49 N 0.82812 0.07262 0.23226 0.0
N50 N 0.90587 0.13647 0.1771 0.0
H51 H 0.88083 0.28211 0.20261 0.0
H52 H 0.93276 0.2755 0.1559 0.0
H53 H 0.97403 0.29632 0.21085 0.0
C54 C 0.92053 0.26351 0.19221 0.0
C55 C 0.68774 0.16855 0.45361 0.0
H56 H 0.63249 0.1516 0.46904 0.0
H57 H 0.72355 0.16278 0.47944 0.0
H58 H 0.67956 0.13005 0.42562 0.0
O59 O 0.8055 0.16263 0.39251 0.0
O60 O 0.84965 0.12911 0.33572 0.0
C61 C 0.65033 0.08495 0.31631 0.0
O62 O 0.90893 0.29343 0.28675 0.0
O63 O 0.88877 0.30974 0.35593 0.0
Zn64 Zn 0.55107 0.78099 0.67519 0.0
O65 O 0.5304 0.6724 0.67369 0.0
C66 C 0.70459 0.83701 0.70628 0.0
Zn67 Zn 0.62451 0.80533 0.61661 0.0
C68 C 0.56159 0.64857 0.64702 0.0
O69 O 0.61091 0.69373 0.61924 0.0
C70 C 0.59185 0.92809 0.64447 0.0
O71 O 0.53555 0.76155 0.57304 0.0
O72 O 0.46216 0.74979 0.6295 0.0
N73 N 0.69929 0.83859 0.56348 0.0
C74 C 0.708 0.88412 0.52844 0.0
C75 C 0.79983 0.86381 0.52666 0.0
N76 N 0.75622 0.82555 0.56203 0.0
N77 N 0.77025 0.90055 0.50494 0.0
C78 C 0.46986 0.7275 0.76555 0.0
C79 C 0.3874 0.76106 0.75898 0.0
N80 N 0.47862 0.75927 0.725 0.0
N81 N 0.428 0.78087 0.72107 0.0
N82 N 0.41357 0.72881 0.78767 0.0
H83 H 0.47408 0.63488 0.79649 0.0
H84 H 0.55127 0.72604 0.80981 0.0
H85 H 0.5471 0.6856 0.7558 0.0
C86 C 0.51309 0.69125 0.78245 0.0
C87 C 0.65804 0.916 0.51785 0.0
H88 H 0.60001 0.87875 0.52954 0.0
H89 H 0.6571 0.92488 0.48113 0.0
H90 H 0.68077 0.97151 0.53434 0.0
O91 O 0.62383 0.91267 0.61311 0.0
O92 O 0.56723 0.88501 0.67777 0.0
C93 C 0.47107 0.74279 0.58808 0.0
O94 O 0.638 0.81103 0.72014 0.0
O95 O 0.71755 0.84568 0.6642 0.0
Zn96 Zn 0.76233 0.56049 0.01374 0.0
O97 O 0.8493 0.53816 0.01094 0.0
C98 C 0.86106 0.7145 0.04312 0.0
Zn99 Zn 0.80998 0.63237 0.95435 0.0
C100 C 0.90365 0.56893 0.98369 0.0
O101 O 0.90784 0.61897 0.95632 0.0
C102 C 0.6551 0.59988 0.98323 0.0
O103 O 0.76416 0.54253 0.91187 0.0
O104 O 0.70208 0.47063 0.96895 0.0
N105 N 0.85017 0.70572 0.90027 0.0
C106 C 0.81264 0.71393 0.86544 0.0
C107 C 0.92574 0.80328 0.86097 0.0
N108 N 0.92069 0.7611 0.89717 0.0
N109 N 0.85857 0.77443 0.84048 0.0
C110 C 0.73708 0.47977 0.10467 0.0
C111 C 0.62014 0.39989 0.10017 0.0
N112 N 0.71282 0.48917 0.06463 0.0
N113 N 0.64006 0.44016 0.06203 0.0
N114 N 0.67974 0.42459 0.12775 0.0
H115 H 0.83421 0.48115 0.13284 0.0
H116 H 0.82286 0.55922 0.14816 0.0
H117 H 0.85586 0.55566 0.09303 0.0
C118 C 0.8173 0.52137 0.12013 0.0
C119 C 0.73051 0.6642 0.85586 0.0
H120 H 0.70998 0.60625 0.86789 0.0
H121 H 0.71945 0.6627 0.81927 0.0
H122 H 0.69853 0.68741 0.87275 0.0
O123 O 0.70157 0.63056 0.95124 0.0
O124 O 0.67545 0.57849 0.01732 0.0
C125 C 0.71788 0.47856 0.92749 0.0
O126 O 0.82156 0.64806 0.05767 0.0
O127 O 0.86357 0.72671 0.00095 0.0
Zn128 Zn 0.19811 0.7612 0.34452 0.0
O129 O 0.30645 0.84949 0.34297 0.0
C130 C 0.1426 0.8574 0.37843 0.0
Zn131 Zn 0.17182 0.81219 0.2873 0.0
C132 C 0.32936 0.90511 0.31661 0.0
O133 O 0.28333 0.90984 0.28967 0.0
C134 C 0.05029 0.65573 0.31427 0.0
O135 O 0.21473 0.76855 0.24227 0.0
O136 O 0.22903 0.70597 0.29757 0.0
N137 N 0.13795 0.85561 0.2351 0.0
C138 C 0.09258 0.82014 0.19984 0.0
C139 C 0.11587 0.93337 0.19798 0.0
N140 N 0.15279 0.92624 0.23364 0.0
N141 N 0.07812 0.86749 0.17616 0.0
C142 C 0.25327 0.72969 0.43346 0.0
C143 C 0.22114 0.6144 0.42483 0.0
N144 N 0.22109 0.70849 0.39292 0.0
N145 N 0.20039 0.63671 0.38771 0.0
N146 N 0.25304 0.67137 0.4543 0.0
H147 H 0.29428 0.84912 0.42556 0.0
H148 H 0.34555 0.82527 0.46525 0.0
H149 H 0.25427 0.81002 0.47934 0.0
C150 C 0.28905 0.80827 0.45151 0.0
C151 C 0.05964 0.73838 0.18887 0.0
H152 H 0.09634 0.71656 0.20021 0.0
H153 H 0.05039 0.72927 0.15215 0.0
H154 H 0.00427 0.70597 0.20552 0.0
O155 O 0.06441 0.70445 0.2837 0.0
O156 O 0.09447 0.67292 0.34698 0.0
C157 C 0.23479 0.72309 0.25634 0.0
O158 O 0.1686 0.81589 0.39088 0.0
O159 O 0.13281 0.8635 0.33661 0.0
Zn160 Zn 0.35859 0.1708 0.62612 0.0
O161 O 0.44567 0.21635 0.58191 0.0
C162 C 0.39985 0.05373 0.65632 0.0
Zn163 Zn 0.4312 0.19633 0.68429 0.0
C164 C 0.50939 0.23104 0.59649 0.0
O165 O 0.51797 0.22104 0.63762 0.0
C166 C 0.28041 0.14275 0.71621 0.0
O167 O 0.4544 0.30569 0.67819 0.0
O168 O 0.36695 0.27989 0.6272 0.0
N169 N 0.50648 0.22246 0.73326 0.0
C170 C 0.51643 0.25652 0.77303 0.0
C171 C 0.60066 0.22536 0.7669 0.0
N172 N 0.55838 0.20262 0.72956 0.0
N173 N 0.57444 0.25794 0.795 0.0
C174 C 0.27265 0.08639 0.53937 0.0
C175 C 0.18397 0.11128 0.53466 0.0
N176 N 0.28228 0.13357 0.57343 0.0
N177 N 0.22729 0.14936 0.5702 0.0
N178 N 0.21156 0.07149 0.51479 0.0
H179 H 0.38134 0.09391 0.53968 0.0
H180 H 0.32134 0.04176 0.49339 0.0
H181 H 0.30216 0.0011 0.54852 0.0
C182 C 0.32268 0.05445 0.52968 0.0
C183 C 0.473 0.2929 0.78898 0.0
H184 H 0.51142 0.34859 0.80396 0.0
H185 H 0.43295 0.25714 0.81533 0.0
H186 H 0.44105 0.30017 0.76144 0.0
O187 O 0.34772 0.1733 0.72962 0.0
O188 O 0.26614 0.12826 0.67451 0.0
C189 C 0.41992 0.32737 0.65231 0.0
O190 O 0.36842 0.06783 0.62373 0.0
O191 O 0.41085 0.09049 0.69187 0.0
C192 C 0.2569 0.62031 0.23253 0.0
C193 C 0.26501 0.69131 0.22479 0.0
H194 H 0.26685 0.52999 0.20409 0.0
C195 C 0.29924 0.73088 0.18536 0.0
H196 H 0.231 0.58929 0.26299 0.0
C197 C 0.32064 0.69773 0.15258 0.0
C198 C 0.30689 0.62449 0.15871 0.0
H199 H 0.30716 0.78639 0.17922 0.0
H200 H 0.34301 0.72701 0.12116 0.0
C201 C 0.27743 0.58671 0.19929 0.0
C202 C 0.63035 0.24377 0.57167 0.0
C203 C 0.57217 0.25978 0.56549 0.0
H204 H 0.72689 0.24721 0.542 0.0
C205 C 0.57147 0.30008 0.52763 0.0
H206 H 0.63181 0.21304 0.60092 0.0
C207 C 0.62559 0.31995 0.49475 0.0
C208 C 0.68021 0.29879 0.49909 0.0
H209 H 0.52762 0.31406 0.52273 0.0
H210 H 0.622 0.34752 0.46457 0.0
C211 C 0.68421 0.263 0.53828 0.0
C212 C 0.26408 0.57547 0.85375 0.0
C213 C 0.30392 0.57691 0.89236 0.0
H214 H 0.26887 0.62521 0.78999 0.0
C215 C 0.37764 0.63563 0.89899 0.0
H216 H 0.20661 0.53125 0.84844 0.0
C217 C 0.413 0.68931 0.86546 0.0
C218 C 0.37444 0.68461 0.82562 0.0
H219 H 0.40895 0.63777 0.92882 0.0
H220 H 0.47112 0.73247 0.86965 0.0
C221 C 0.29907 0.62939 0.8207 0.0
C222 C 0.67793 0.27106 0.19335 0.0
C223 C 0.7194 0.31005 0.23129 0.0
H224 H 0.63176 0.27813 0.13052 0.0
C225 C 0.73891 0.38519 0.23782 0.0
H226 H 0.66139 0.21263 0.18811 0.0
C227 C 0.72192 0.42253 0.20471 0.0
C228 C 0.68491 0.38456 0.16539 0.0
H229 H 0.77069 0.41592 0.2671 0.0
H230 H 0.74012 0.48149 0.20884 0.0
C231 C 0.66035 0.30802 0.16074 0.0
C232 C 0.34677 0.72447 0.5654 0.0
C233 C 0.40774 0.71353 0.55724 0.0
H234 H 0.24736 0.71811 0.53769 0.0
C235 C 0.41046 0.67825 0.5177 0.0
H236 H 0.34368 0.75125 0.59594 0.0
C237 C 0.35547 0.65872 0.48519 0.0
C238 C 0.298 0.6753 0.49166 0.0
H239 H 0.45652 0.6682 0.51119 0.0
H240 H 0.36057 0.63547 0.45371 0.0
C241 C 0.2921 0.70571 0.53243 0.0
C242 C 0.72336 0.41569 0.85872 0.0
C243 C 0.68394 0.41461 0.89725 0.0
H244 H 0.71832 0.36404 0.79582 0.0
C245 C 0.61118 0.3548 0.90483 0.0
H246 H 0.78014 0.46083 0.85274 0.0
C247 C 0.57604 0.29959 0.87216 0.0
C248 C 0.61396 0.30386 0.83229 0.0
H249 H 0.58025 0.35303 0.93461 0.0
H250 H 0.51839 0.25566 0.8769 0.0
C251 C 0.68865 0.36021 0.82656 0.0
C252 C 0.45812 0.49524 0.02086 0.0
C253 C 0.41879 0.45314 0.98279 0.0
H254 H 0.5601 0.58111 0.04893 0.0
C255 C 0.45758 0.47005 0.94162 0.0
H256 H 0.43123 0.48539 0.05333 0.0
C257 C 0.5346 0.5252 0.9396 0.0
C258 C 0.57287 0.5661 0.97833 0.0
H259 H 0.42887 0.44049 0.91135 0.0
H260 H 0.56495 0.53286 0.90859 0.0
C261 C 0.53234 0.55205 0.01826 0.0
C262 C 0.9691 0.53397 0.34869 0.0
C263 C -0.00131 0.5743 0.30891 0.0
H264 H 0.93277 0.43313 0.38478 0.0
C265 C 0.00335 0.53563 0.27108 0.0
H266 H 0.9666 0.5623 0.37873 0.0
C267 C 0.98127 0.45858 0.27399 0.0
C268 C 0.95712 0.42016 0.31525 0.0
H269 H 0.02859 0.56591 0.24032 0.0
H270 H 0.98455 0.42979 0.24446 0.0
C271 C 0.95137 0.45962 0.35227 0.0
C272 C 0.49958 0.02986 0.68504 0.0
C273 C 0.45003 0.02139 0.64973 0.0
H274 H 0.58998 0.01645 0.70855 0.0
C275 C 0.45964 0.9946 0.60821 0.0
H276 H 0.49538 0.05053 0.71765 0.0
C277 C 0.51431 0.97251 0.60355 0.0
C278 C 0.56193 0.97975 0.63979 0.0
H279 H 0.42409 0.98913 0.5799 0.0
H280 H 0.51581 0.94516 0.57287 0.0
C281 C 0.5558 0.01202 0.67964 0.0
C282 C 0.5138 0.52885 0.68807 0.0
C283 C 0.53254 0.56705 0.64684 0.0
H284 H 0.46148 0.42291 0.72182 0.0
C285 C 0.50902 0.52547 0.6068 0.0
H286 H 0.52988 0.55965 0.71941 0.0
C287 C 0.46712 0.44662 0.60824 0.0
C288 C 0.44906 0.40881 0.6497 0.0
H289 H 0.52088 0.55388 0.57465 0.0
H290 H 0.45096 0.41528 0.5771 0.0
C291 C 0.4733 0.45075 0.68947 0.0
C292 C 0.00745 0.471 0.02074 0.0
C293 C 0.0297 0.4548 0.97982 0.0
H294 H 0.95203 0.52168 0.05386 0.0
C295 C 0.01423 0.48058 0.93966 0.0
H296 H 0.02052 0.45341 0.05222 0.0
C297 C 0.97707 0.52232 0.94067 0.0
C298 C 0.95465 0.53807 0.98184 0.0
H299 H 0.03325 0.47089 0.90783 0.0
H300 H 0.96423 0.54054 0.90938 0.0
C301 C 0.96976 0.51143 0.02172 0.0
C302 C 0.45132 0.97423 0.3557 0.0
C303 C 0.41085 0.95727 0.3153 0.0
H304 H 0.55905 0.02615 0.3873 0.0
C305 C 0.45014 0.97795 0.27443 0.0
H306 H 0.42235 0.95754 0.38762 0.0
C307 C 0.52896 0.01503 0.27421 0.0
C308 C 0.56902 0.03233 0.31487 0.0
H309 H 0.41998 0.96343 0.24281 0.0
H310 H 0.55852 0.03232 0.24252 0.0
C311 C 0.5294 0.01199 0.3555 0.0
C312 C 0.23601 0.13182 0.79458 0.0
C313 C 0.22367 0.13741 0.74863 0.0
H314 H 0.21466 0.15206 0.86198 0.0
C315 C 0.16914 0.1562 0.73584 0.0
H316 H 0.27783 0.11774 0.80545 0.0
C317 C 0.13327 0.17628 0.76852 0.0
C318 C 0.15138 0.17729 0.81409 0.0
H319 H 0.15937 0.16208 0.70069 0.0
H320 H 0.09589 0.19639 0.75814 0.0
C321 C 0.20027 0.15166 0.82693 0.0
C322 C 0.94833 0.14059 0.09912 0.0
C323 C 0.96477 0.15961 0.1446 0.0
H324 H 0.98905 0.16637 0.03129 0.0
C325 C 0.03878 0.21009 0.15742 0.0
H326 H 0.89127 0.10184 0.08876 0.0
C327 C 0.09432 0.24642 0.12508 0.0
C328 C 0.07691 0.23299 0.07916 0.0
H329 H 0.05235 0.22497 0.19241 0.0
H330 H 0.14972 0.28927 0.13589 0.0
C331 C 0.00428 0.17705 0.06644 0.0
C332 C 0.8346 0.03426 0.4863 0.0
C333 C 0.80675 0.95984 0.47259 0.0
H334 H 0.86791 0.14661 0.46635 0.0
C335 C 0.80341 0.94375 0.42662 0.0
H336 H 0.83713 0.04738 0.52167 0.0
C337 C 0.82177 0.00074 0.39465 0.0
C338 C 0.84272 0.07401 0.40858 0.0
H339 H 0.78125 0.88635 0.41557 0.0
H340 H 0.81274 0.98598 0.35941 0.0
C341 C 0.85228 0.0908 0.45465 0.0
C342 C 0.81548 0.8234 0.72749 0.0
C343 C 0.76167 0.84361 0.73916 0.0
H344 H 0.88922 0.78472 0.75175 0.0
C345 C 0.75124 0.85333 0.78474 0.0
H346 H 0.82392 0.8145 0.69269 0.0
C347 C 0.78828 0.83633 0.81804 0.0
C348 C 0.83645 0.80931 0.80652 0.0
H349 H 0.71012 0.86871 0.79479 0.0
H350 H 0.77539 0.83914 0.85295 0.0
C351 C 0.85252 0.80604 0.76112 0.0
C352 C 0.946 0.80115 0.15394 0.0
C353 C 0.02147 0.84714 0.14224 0.0
H354 H 0.83496 0.72434 0.13108 0.0
C355 C 0.04111 0.86116 0.09672 0.0
H356 H 0.93016 0.78952 0.18893 0.0
C357 C 0.98652 0.82426 0.06328 0.0
C358 C 0.91205 0.77242 0.07526 0.0
H359 H 0.09937 0.89591 0.08723 0.0
H360 H 0.00395 0.8309 0.02851 0.0
C361 C 0.89179 0.7641 0.12082 0.0
C362 C 0.15152 0.93982 0.49178 0.0
C363 C 0.17615 0.01489 0.48084 0.0
H364 H 0.11865 0.82999 0.46752 0.0
C365 C 0.17498 0.03462 0.43581 0.0
H366 H 0.15177 0.92372 0.5264 0.0
C367 C 0.15578 0.98087 0.40173 0.0
C368 C 0.13781 0.90703 0.41257 0.0
H369 H 0.19414 0.09252 0.42689 0.0
H370 H 0.16136 -0.00134 0.36701 0.0
C371 C 0.13235 0.88638 0.45805 0.0
loop_
_geom_bond_atom_site_label_1
_geom_bond_atom_site_label_2
_geom_bond_distance
_geom_bond_site_symmetry_2
_ccdc_geom_bond_type
Zn0 O1 2.055 . S
Zn0 O8 2.046 1_554 S
Zn0 N16 2.036 . S
Zn0 O28 2.053 . S
Zn0 O30 2.066 . S
O1 Zn0 2.055 . S
O1 C4 1.259 1_554 S
C2 O30 1.256 . S
C2 O31 1.244 . S
Zn3 O5 2.046 . S
Zn3 O7 2.055 . S
Zn3 N9 2.036 . S
Zn3 O27 2.066 . S
Zn3 O31 2.053 1_556 S
C4 O1 1.259 1_556 S
C4 O5 1.254 . S
O5 Zn3 2.046 . S
O5 C4 1.254 . S
C6 O27 1.256 1_554 S
C6 O28 1.244 . S
O7 Zn3 2.055 . S
O7 C29 1.259 . S
O8 Zn0 2.046 1_556 S
O8 C29 1.254 . S
N9 Zn3 2.036 . S
N9 C10 1.298 . S
N9 N12 1.398 . S
C10 N9 1.298 . S
C10 N13 1.367 . S
C10 C23 1.481 . S
C11 N12 1.299 . S
C11 N13 1.379 . S
N12 N9 1.398 . S
N12 C11 1.299 . S
N13 C10 1.367 . S
N13 C11 1.379 . S
C14 N16 1.298 . S
C14 N18 1.367 . S
C14 C22 1.481 . S
C15 N17 1.299 . S
C15 N18 1.379 . S
N16 Zn0 2.036 . S
N16 C14 1.298 . S
N16 N17 1.398 . S
N17 C15 1.299 . S
N17 N16 1.398 . S
N18 C14 1.367 . S
N18 C15 1.379 . S
H19 C22 0.980 . S
H20 C22 0.981 . S
H21 C22 0.981 . S
C22 C14 1.481 . S
C22 H19 0.980 . S
C22 H20 0.981 . S
C22 H21 0.981 . S
C23 C10 1.481 . S
C23 H24 0.980 . S
C23 H25 0.981 . S
C23 H26 0.981 . S
H24 C23 0.980 . S
H25 C23 0.981 . S
H26 C23 0.981 . S
O27 Zn3 2.066 . S
O27 C6 1.256 1_556 S
O28 Zn0 2.053 . S
O28 C6 1.244 . S
C29 O7 1.259 . S
C29 O8 1.254 . S
O30 Zn0 2.066 . S
O30 C2 1.256 . S
O31 C2 1.244 . S
O31 Zn3 2.053 1_554 S
Zn32 O33 2.055 . S
Zn32 O40 2.046 . S
Zn32 N48 2.036 . S
Zn32 O60 2.053 . S
Zn32 O62 2.066 . S
O33 Zn32 2.055 . S
O33 C36 1.259 . S
C34 O62 1.256 . S
C34 O63 1.244 . S
Zn35 O37 2.046 . S
Zn35 O39 2.055 . S
Zn35 N41 2.036 . S
Zn35 O59 2.066 . S
Zn35 O63 2.053 . S
C36 O33 1.259 . S
C36 O37 1.254 . S
O37 Zn35 2.046 . S
O37 C36 1.254 . S
C38 O59 1.256 . S
C38 O60 1.244 . S
O39 Zn35 2.055 . S
O39 C61 1.259 . S
O40 Zn32 2.046 . S
O40 C61 1.254 . S
N41 Zn35 2.036 . S
N41 C42 1.298 . S
N41 N44 1.398 . S
C42 N41 1.298 . S
C42 N45 1.367 . S
C42 C55 1.481 . S
C43 N44 1.299 . S
C43 N45 1.379 . S
N44 N41 1.398 . S
N44 C43 1.299 . S
N45 C42 1.367 . S
N45 C43 1.379 . S
C46 N48 1.298 . S
C46 N50 1.367 . S
C46 C54 1.481 . S
C47 N49 1.299 . S
C47 N50 1.379 . S
N48 Zn32 2.036 . S
N48 C46 1.298 . S
N48 N49 1.398 . S
N49 C47 1.299 . S
N49 N48 1.398 . S
N50 C46 1.367 . S
N50 C47 1.379 . S
H51 C54 0.980 . S
H52 C54 0.981 . S
H53 C54 0.981 . S
C54 C46 1.481 . S
C54 H51 0.980 . S
C54 H52 0.981 . S
C54 H53 0.981 . S
C55 C42 1.481 . S
C55 H56 0.980 . S
C55 H57 0.981 . S
C55 H58 0.981 . S
H56 C55 0.980 . S
H57 C55 0.981 . S
H58 C55 0.981 . S
O59 Zn35 2.066 . S
O59 C38 1.256 . S
O60 Zn32 2.053 . S
O60 C38 1.244 . S
C61 O39 1.259 . S
C61 O40 1.254 . S
O62 Zn32 2.066 . S
O62 C34 1.256 . S
O63 C34 1.244 . S
O63 Zn35 2.053 . S
Zn64 O65 2.055 . S
Zn64 O72 2.046 . S
Zn64 N80 2.036 . S
Zn64 O92 2.053 . S
Zn64 O94 2.066 . S
O65 Zn64 2.055 . S
O65 C68 1.259 . S
C66 O94 1.256 . S
C66 O95 1.244 . S
Zn67 O69 2.046 . S
Zn67 O71 2.055 . S
Zn67 N73 2.036 . S
Zn67 O91 2.066 . S
Zn67 O95 2.053 . S
C68 O65 1.259 . S
C68 O69 1.254 . S
O69 Zn67 2.046 . S
O69 C68 1.254 . S
C70 O91 1.256 . S
C70 O92 1.244 . S
O71 Zn67 2.055 . S
O71 C93 1.259 . S
O72 Zn64 2.046 . S
O72 C93 1.254 . S
N73 Zn67 2.036 . S
N73 C74 1.298 . S
N73 N76 1.398 . S
C74 N73 1.298 . S
C74 N77 1.367 . S
C74 C87 1.481 . S
C75 N76 1.299 . S
C75 N77 1.379 . S
N76 N73 1.398 . S
N76 C75 1.299 . S
N77 C74 1.367 . S
N77 C75 1.379 . S
C78 N80 1.298 . S
C78 N82 1.367 . S
C78 C86 1.481 . S
C79 N81 1.299 . S
C79 N82 1.379 . S
N80 Zn64 2.036 . S
N80 C78 1.298 . S
N80 N81 1.398 . S
N81 C79 1.299 . S
N81 N80 1.398 . S
N82 C78 1.367 . S
N82 C79 1.379 . S
H83 C86 0.980 . S
H84 C86 0.981 . S
H85 C86 0.981 . S
C86 C78 1.481 . S
C86 H83 0.980 . S
C86 H84 0.981 . S
C86 H85 0.981 . S
C87 C74 1.481 . S
C87 H88 0.980 . S
C87 H89 0.981 . S
C87 H90 0.981 . S
H88 C87 0.980 . S
H89 C87 0.981 . S
H90 C87 0.981 . S
O91 Zn67 2.066 . S
O91 C70 1.256 . S
O92 Zn64 2.053 . S
O92 C70 1.244 . S
C93 O71 1.259 . S
C93 O72 1.254 . S
O94 Zn64 2.066 . S
O94 C66 1.256 . S
O95 C66 1.244 . S
O95 Zn67 2.053 . S
Zn96 O97 2.055 . S
Zn96 O104 2.046 1_554 S
Zn96 N112 2.036 . S
Zn96 O124 2.053 . S
Zn96 O126 2.066 . S
O97 Zn96 2.055 . S
O97 C100 1.259 1_554 S
C98 O126 1.256 . S
C98 O127 1.244 . S
Zn99 O101 2.046 . S
Zn99 O103 2.055 . S
Zn99 N105 2.036 . S
Zn99 O123 2.066 . S
Zn99 O127 2.053 1_556 S
C100 O97 1.259 1_556 S
C100 O101 1.254 . S
O101 Zn99 2.046 . S
O101 C100 1.254 . S
C102 O123 1.256 1_554 S
C102 O124 1.244 . S
O103 Zn99 2.055 . S
O103 C125 1.259 . S
O104 Zn96 2.046 1_556 S
O104 C125 1.254 . S
N105 Zn99 2.036 . S
N105 C106 1.298 . S
N105 N108 1.398 . S
C106 N105 1.298 . S
C106 N109 1.367 . S
C106 C119 1.481 . S
C107 N108 1.299 . S
C107 N109 1.379 . S
N108 N105 1.398 . S
N108 C107 1.299 . S
N109 C106 1.367 . S
N109 C107 1.379 . S
C110 N112 1.298 . S
C110 N114 1.367 . S
C110 C118 1.481 . S
C111 N113 1.299 . S
C111 N114 1.379 . S
N112 Zn96 2.036 . S
N112 C110 1.298 . S
N112 N113 1.398 . S
N113 C111 1.299 . S
N113 N112 1.398 . S
N114 C110 1.367 . S
N114 C111 1.379 . S
H115 C118 0.980 . S
H116 C118 0.981 . S
H117 C118 0.981 . S
C118 C110 1.481 . S
C118 H115 0.980 . S
C118 H116 0.981 . S
C118 H117 0.981 . S
C119 C106 1.481 . S
C119 H120 0.980 . S
C119 H121 0.981 . S
C119 H122 0.981 . S
H120 C119 0.980 . S
H121 C119 0.981 . S
H122 C119 0.981 . S
O123 Zn99 2.066 . S
O123 C102 1.256 1_556 S
O124 Zn96 2.053 . S
O124 C102 1.244 . S
C125 O103 1.259 . S
C125 O104 1.254 . S
O126 Zn96 2.066 . S
O126 C98 1.256 . S
O127 C98 1.244 . S
O127 Zn99 2.053 1_554 S
Zn128 O129 2.055 . S
Zn128 O136 2.046 . S
Zn128 N144 2.036 . S
Zn128 O156 2.053 . S
Zn128 O158 2.066 . S
O129 Zn128 2.055 . S
O129 C132 1.259 . S
C130 O158 1.256 . S
C130 O159 1.244 . S
Zn131 O133 2.046 . S
Zn131 O135 2.055 . S
Zn131 N137 2.036 . S
Zn131 O155 2.066 . S
Zn131 O159 2.053 . S
C132 O129 1.259 . S
C132 O133 1.254 . S
O133 Zn131 2.046 . S
O133 C132 1.254 . S
C134 O155 1.256 . S
C134 O156 1.244 . S
O135 Zn131 2.055 . S
O135 C157 1.259 . S
O136 Zn128 2.046 . S
O136 C157 1.254 . S
N137 Zn131 2.036 . S
N137 C138 1.298 . S
N137 N140 1.398 . S
C138 N137 1.298 . S
C138 N141 1.367 . S
C138 C151 1.481 . S
C139 N140 1.299 . S
C139 N141 1.379 . S
N140 N137 1.398 . S
N140 C139 1.299 . S
N141 C138 1.367 . S
N141 C139 1.379 . S
C142 N144 1.298 . S
C142 N146 1.367 . S
C142 C150 1.481 . S
C143 N145 1.299 . S
C143 N146 1.379 . S
N144 Zn128 2.036 . S
N144 C142 1.298 . S
N144 N145 1.398 . S
N145 C143 1.299 . S
N145 N144 1.398 . S
N146 C142 1.367 . S
N146 C143 1.379 . S
H147 C150 0.980 . S
H148 C150 0.981 . S
H149 C150 0.981 . S
C150 C142 1.481 . S
C150 H147 0.980 . S
C150 H148 0.981 . S
C150 H149 0.981 . S
C151 C138 1.481 . S
C151 H152 0.980 . S
C151 H153 0.981 . S
C151 H154 0.981 . S
H152 C151 0.980 . S
H153 C151 0.981 . S
H154 C151 0.981 . S
O155 Zn131 2.066 . S
O155 C134 1.256 . S
O156 Zn128 2.053 . S
O156 C134 1.244 . S
C157 O135 1.259 . S
C157 O136 1.254 . S
O158 Zn128 2.066 . S
O158 C130 1.256 . S
O159 C130 1.244 . S
O159 Zn131 2.053 . S
Zn160 O161 2.055 . S
Zn160 O168 2.046 . S
Zn160 N176 2.036 . S
Zn160 O188 2.053 . S
Zn160 O190 2.066 . S
O161 Zn160 2.055 . S
O161 C164 1.259 . S
C162 O190 1.256 . S
C162 O191 1.244 . S
Zn163 O165 2.046 . S
Zn163 O167 2.055 . S
Zn163 N169 2.036 . S
Zn163 O187 2.066 . S
Zn163 O191 2.053 . S
C164 O161 1.259 . S
C164 O165 1.254 . S
O165 Zn163 2.046 . S
O165 C164 1.254 . S
C166 O187 1.256 . S
C166 O188 1.244 . S
O167 Zn163 2.055 . S
O167 C189 1.259 . S
O168 Zn160 2.046 . S
O168 C189 1.254 . S
N169 Zn163 2.036 . S
N169 C170 1.298 . S
N169 N172 1.398 . S
C170 N169 1.298 . S
C170 N173 1.367 . S
C170 C183 1.481 . S
C171 N172 1.299 . S
C171 N173 1.379 . S
N172 N169 1.398 . S
N172 C171 1.299 . S
N173 C170 1.367 . S
N173 C171 1.379 . S
C174 N176 1.298 . S
C174 N178 1.367 . S
C174 C182 1.481 . S
C175 N177 1.299 . S
C175 N178 1.379 . S
N176 Zn160 2.036 . S
N176 C174 1.298 . S
N176 N177 1.398 . S
N177 C175 1.299 . S
N177 N176 1.398 . S
N178 C174 1.367 . S
N178 C175 1.379 . S
H179 C182 0.980 . S
H180 C182 0.981 . S
H181 C182 0.981 . S
C182 C174 1.481 . S
C182 H179 0.980 . S
C182 H180 0.981 . S
C182 H181 0.981 . S
C183 C170 1.481 . S
C183 H184 0.980 . S
C183 H185 0.981 . S
C183 H186 0.981 . S
H184 C183 0.980 . S
H185 C183 0.981 . S
H186 C183 0.981 . S
O187 Zn163 2.066 . S
O187 C166 1.256 . S
O188 Zn160 2.053 . S
O188 C166 1.244 . S
C189 O167 1.259 . S
C189 O168 1.254 . S
O190 Zn160 2.066 . S
O190 C162 1.256 . S
O191 C162 1.244 . S
O191 Zn163 2.053 . S
C192 C193 1.387 . S
C192 H196 0.950 . S
C192 C201 1.390 . S
C193 C192 1.387 . S
C193 C195 1.387 . S
H194 C201 0.950 . S
C195 C193 1.387 . S
C195 C197 1.390 . S
C195 H199 0.950 . S
H196 C192 0.950 . S
C197 C195 1.390 . S
C197 C198 1.387 . S
C197 H200 0.950 . S
C198 C197 1.387 . S
C198 C201 1.387 . S
H199 C195 0.950 . S
H200 C197 0.950 . S
C201 C192 1.390 . S
C201 H194 0.950 . S
C201 C198 1.387 . S
C202 C203 1.387 . S
C202 H206 0.950 . S
C202 C211 1.390 . S
C203 C202 1.387 . S
C203 C205 1.387 . S
H204 C211 0.950 . S
C205 C203 1.387 . S
C205 C207 1.390 . S
C205 H209 0.950 . S
H206 C202 0.950 . S
C207 C205 1.390 . S
C207 C208 1.387 . S
C207 H210 0.950 . S
C208 C207 1.387 . S
C208 C211 1.387 . S
H209 C205 0.950 . S
H210 C207 0.950 . S
C211 C202 1.390 . S
C211 H204 0.950 . S
C211 C208 1.387 . S
C212 C213 1.387 . S
C212 H216 0.950 . S
C212 C221 1.390 . S
C213 C212 1.387 . S
C213 C215 1.387 . S
H214 C221 0.950 . S
C215 C213 1.387 . S
C215 C217 1.390 . S
C215 H219 0.950 . S
H216 C212 0.950 . S
C217 C215 1.390 . S
C217 C218 1.387 . S
C217 H220 0.950 . S
C218 C217 1.387 . S
C218 C221 1.387 . S
H219 C215 0.950 . S
H220 C217 0.950 . S
C221 C212 1.390 . S
C221 H214 0.950 . S
C221 C218 1.387 . S
C222 C223 1.387 . S
C222 H226 0.950 . S
C222 C231 1.390 . S
C223 C222 1.387 . S
C223 C225 1.387 . S
H224 C231 0.950 . S
C225 C223 1.387 . S
C225 C227 1.390 . S
C225 H229 0.950 . S
H226 C222 0.950 . S
C227 C225 1.390 . S
C227 C228 1.387 . S
C227 H230 0.950 . S
C228 C227 1.387 . S
C228 C231 1.387 . S
H229 C225 0.950 . S
H230 C227 0.950 . S
C231 C222 1.390 . S
C231 H224 0.950 . S
C231 C228 1.387 . S
C232 C233 1.387 . S
C232 H236 0.950 . S
C232 C241 1.390 . S
C233 C232 1.387 . S
C233 C235 1.387 . S
H234 C241 0.950 . S
C235 C233 1.387 . S
C235 C237 1.390 . S
C235 H239 0.950 . S
H236 C232 0.950 . S
C237 C235 1.390 . S
C237 C238 1.387 . S
C237 H240 0.950 . S
C238 C237 1.387 . S
C238 C241 1.387 . S
H239 C235 0.950 . S
H240 C237 0.950 . S
C241 C232 1.390 . S
C241 H234 0.950 . S
C241 C238 1.387 . S
C242 C243 1.387 . S
C242 H246 0.950 . S
C242 C251 1.390 . S
C243 C242 1.387 . S
C243 C245 1.387 . S
H244 C251 0.950 . S
C245 C243 1.387 . S
C245 C247 1.390 . S
C245 H249 0.950 . S
H246 C242 0.950 . S
C247 C245 1.390 . S
C247 C248 1.387 . S
C247 H250 0.950 . S
C248 C247 1.387 . S
C248 C251 1.387 . S
H249 C245 0.950 . S
H250 C247 0.950 . S
C251 C242 1.390 . S
C251 H244 0.950 . S
C251 C248 1.387 . S
C252 C253 1.387 . S
C252 H256 0.950 . S
C252 C261 1.390 . S
C253 C252 1.387 . S
C253 C255 1.387 1_554 S
H254 C261 0.950 . S
C255 C253 1.387 1_556 S
C255 C257 1.390 . S
C255 H259 0.950 . S
H256 C252 0.950 . S
C257 C255 1.390 . S
C257 C258 1.387 1_556 S
C257 H260 0.950 . S
C258 C257 1.387 1_554 S
C258 C261 1.387 . S
H259 C255 0.950 . S
H260 C257 0.950 . S
C261 C252 1.390 . S
C261 H254 0.950 . S
C261 C258 1.387 . S
C262 C263 1.387 . S
C262 H266 0.950 . S
C262 C271 1.390 1_455 S
C263 C262 1.387 . S
C263 C265 1.387 . S
H264 C271 0.950 . S
C265 C263 1.387 . S
C265 C267 1.390 1_455 S
C265 H269 0.950 . S
H266 C262 0.950 . S
C267 C265 1.390 1_655 S
C267 C268 1.387 . S
C267 H270 0.950 . S
C268 C267 1.387 . S
C268 C271 1.387 . S
H269 C265 0.950 . S
H270 C267 0.950 . S
C271 C262 1.390 1_655 S
C271 H264 0.950 . S
C271 C268 1.387 . S
C272 C273 1.387 . S
C272 H276 0.950 . S
C272 C281 1.390 1_545 S
C273 C272 1.387 . S
C273 C275 1.387 . S
H274 C281 0.950 . S
C275 C273 1.387 . S
C275 C277 1.390 1_545 S
C275 H279 0.950 . S
H276 C272 0.950 . S
C277 C275 1.390 1_565 S
C277 C278 1.387 . S
C277 H280 0.950 . S
C278 C277 1.387 . S
C278 C281 1.387 . S
H279 C275 0.950 . S
H280 C277 0.950 . S
C281 C272 1.390 1_565 S
C281 H274 0.950 . S
C281 C278 1.387 . S
C282 C283 1.387 . S
C282 H286 0.950 . S
C282 C291 1.390 . S
C283 C282 1.387 . S
C283 C285 1.387 . S
H284 C291 0.950 . S
C285 C283 1.387 . S
C285 C287 1.390 . S
C285 H289 0.950 . S
H286 C282 0.950 . S
C287 C285 1.390 . S
C287 C288 1.387 . S
C287 H290 0.950 . S
C288 C287 1.387 . S
C288 C291 1.387 . S
H289 C285 0.950 . S
H290 C287 0.950 . S
C291 C282 1.390 . S
C291 H284 0.950 . S
C291 C288 1.387 . S
C292 C293 1.387 1_554 S
C292 H296 0.950 . S
C292 C301 1.390 1_455 S
C293 C292 1.387 1_556 S
C293 C295 1.387 . S
H294 C301 0.950 . S
C295 C293 1.387 . S
C295 C297 1.390 1_455 S
C295 H299 0.950 . S
H296 C292 0.950 . S
C297 C295 1.390 1_655 S
C297 C298 1.387 . S
C297 H300 0.950 . S
C298 C297 1.387 . S
C298 C301 1.387 1_556 S
H299 C295 0.950 . S
H300 C297 0.950 . S
C301 C292 1.390 1_655 S
C301 H294 0.950 . S
C301 C298 1.387 1_554 S
C302 C303 1.387 . S
C302 H306 0.950 . S
C302 C311 1.390 1_565 S
C303 C302 1.387 . S
C303 C305 1.387 . S
H304 C311 0.950 . S
C305 C303 1.387 . S
C305 C307 1.390 1_565 S
C305 H309 0.950 . S
H306 C302 0.950 . S
C307 C305 1.390 1_545 S
C307 C308 1.387 . S
C307 H310 0.950 . S
C308 C307 1.387 . S
C308 C311 1.387 . S
H309 C305 0.950 . S
H310 C307 0.950 . S
C311 C302 1.390 1_545 S
C311 H304 0.950 . S
C311 C308 1.387 . S
C312 C313 1.387 . S
C312 H316 0.950 . S
C312 C321 1.390 . S
C313 C312 1.387 . S
C313 C315 1.387 . S
H314 C321 0.950 . S
C315 C313 1.387 . S
C315 C317 1.390 . S
C315 H319 0.950 . S
H316 C312 0.950 . S
C317 C315 1.390 . S
C317 C318 1.387 . S
C317 H320 0.950 . S
C318 C317 1.387 . S
C318 C321 1.387 . S
H319 C315 0.950 . S
H320 C317 0.950 . S
C321 C312 1.390 . S
C321 H314 0.950 . S
C321 C318 1.387 . S
C322 C323 1.387 1_655 S
C322 H326 0.950 . S
C322 C331 1.390 1_655 S
C323 C322 1.387 1_455 S
C323 C325 1.387 . S
H324 C331 0.950 1_655 S
C325 C323 1.387 . S
C325 C327 1.390 . S
C325 H329 0.950 . S
H326 C322 0.950 . S
C327 C325 1.390 . S
C327 C328 1.387 . S
C327 H330 0.950 . S
C328 C327 1.387 . S
C328 C331 1.387 . S
H329 C325 0.950 . S
H330 C327 0.950 . S
C331 C322 1.390 1_455 S
C331 H324 0.950 1_455 S
C331 C328 1.387 . S
C332 C333 1.387 . S
C332 H336 0.950 . S
C332 C341 1.390 . S
C333 C332 1.387 . S
C333 C335 1.387 . S
H334 C341 0.950 . S
C335 C333 1.387 . S
C335 C337 1.390 . S
C335 H339 0.950 . S
H336 C332 0.950 . S
C337 C335 1.390 . S
C337 C338 1.387 . S
C337 H340 0.950 . S
C338 C337 1.387 . S
C338 C341 1.387 . S
H339 C335 0.950 . S
H340 C337 0.950 . S
C341 C332 1.390 . S
C341 H334 0.950 . S
C341 C338 1.387 . S
C342 C343 1.387 . S
C342 H346 0.950 . S
C342 C351 1.390 . S
C343 C342 1.387 . S
C343 C345 1.387 . S
H344 C351 0.950 . S
C345 C343 1.387 . S
C345 C347 1.390 . S
C345 H349 0.950 . S
H346 C342 0.950 . S
C347 C345 1.390 . S
C347 C348 1.387 . S
C347 H350 0.950 . S
C348 C347 1.387 . S
C348 C351 1.387 . S
H349 C345 0.950 . S
H350 C347 0.950 . S
C351 C342 1.390 . S
C351 H344 0.950 . S
C351 C348 1.387 . S
C352 C353 1.387 . S
C352 H356 0.950 1_655 S
C352 C361 1.390 . S
C353 C352 1.387 . S
C353 C355 1.387 . S
H354 C361 0.950 . S
C355 C353 1.387 . S
C355 C357 1.390 . S
C355 H359 0.950 . S
H356 C352 0.950 1_455 S
C357 C355 1.390 . S
C357 C358 1.387 . S
C357 H360 0.950 . S
C358 C357 1.387 . S
C358 C361 1.387 . S
H359 C355 0.950 . S
H360 C357 0.950 . S
C361 C352 1.390 . S
C361 H354 0.950 . S
C361 C358 1.387 . S
C362 C363 1.387 . S
C362 H366 0.950 . S
C362 C371 1.390 . S
C363 C362 1.387 . S
C363 C365 1.387 . S
H364 C371 0.950 . S
C365 C363 1.387 . S
C365 C367 1.390 . S
C365 H369 0.950 1_565 S
H366 C362 0.950 . S
C367 C365 1.390 . S
C367 C368 1.387 . S
C367 H370 0.950 . S
C368 C367 1.387 . S
C368 C371 1.387 . S
H369 C365 0.950 1_545 S
H370 C367 0.950 . S
C371 C362 1.390 . S
C371 H364 0.950 . S
C371 C368 1.387 . S
C193 C157 0.871 . S
C198 N18 0.877 . S
C203 C164 0.872 . S
C208 N45 0.876 . S
C213 C29 0.872 . S
C218 N82 0.876 . S
C223 C36 0.871 . S
C228 N114 0.875 . S
C233 C93 0.869 . S
C238 N146 0.876 . S
C243 C125 0.871 . S
C248 N173 0.876 . S
C253 C6 1.818 . S
C258 C102 1.818 . S
C263 C134 1.818 . S
C268 C34 1.818 . S
C273 C162 1.818 . S
C278 C70 1.818 . S
C283 C68 1.748 . S
C288 C189 1.748 . S
C293 C4 1.748 . S
C298 C100 1.748 . S
C303 C132 1.748 . S
C308 C61 1.748 . S
C313 C166 1.268 . S
C318 N13 1.227 . S
C323 N50 1.229 1_455 S
C328 C2 1.269 . S
C333 N77 1.226 1_545 S
C338 C38 1.268 . S
C343 C66 1.268 . S
C348 N109 1.228 . S
C353 N141 1.227 1_655 S
C358 C98 1.268 . S
C363 N178 1.226 1_565 S
C368 C130 1.269 . S
