# Generated by pormake.
# Topology zni, (4)-cn, num edge types: 1
# Building blocks:
#     Node 0, Type 0, BuildingBlock: QUQFOY_clean_sbu_1, # of connection points: 4
#     Node 1, Type 0, BuildingBlock: QUQFOY_clean_sbu_1, # of connection points: 4
#     Node 2, Type 0, BuildingBlock: QUQFOY_clean_sbu_1, # of connection points: 4
#     Node 3, Type 0, BuildingBlock: QUQFOY_clean_sbu_1, # of connection points: 4
#     Node 4, Type 0, BuildingBlock: QUQFOY_clean_sbu_1, # of connection points: 4
#     Node 5, Type 0, BuildingBlock: QUQFOY_clean_sbu_1, # of connection points: 4
#     Node 6, Type 0, BuildingBlock: QUQFOY_clean_sbu_1, # of connection points: 4
#     Node 7, Type 0, BuildingBlock: QUQFOY_clean_sbu_1, # of connection points: 4
#     Node 8, Type 0, BuildingBlock: QUQFOY_clean_sbu_1, # of connection points: 4
#     Node 9, Type 0, BuildingBlock: QUQFOY_clean_sbu_1, # of connection points: 4
#     Node 10, Type 0, BuildingBlock: QUQFOY_clean_sbu_1, # of connection points: 4
#     Node 11, Type 0, BuildingBlock: QUQFOY_clean_sbu_1, # of connection points: 4
#     Node 12, Type 0, BuildingBlock: QUQFOY_clean_sbu_1, # of connection points: 4
#     Node 13, Type 0, BuildingBlock: QUQFOY_clean_sbu_1, # of connection points: 4
#     Node 14, Type 0, BuildingBlock: QUQFOY_clean_sbu_1, # of connection points: 4
#     Node 15, Type 0, BuildingBlock: QUQFOY_clean_sbu_1, # of connection points: 4
#     Node 16, Type 0, BuildingBlock: QUQFOY_clean_sbu_1, # of connection points: 4
#     Node 17, Type 0, BuildingBlock: QUQFOY_clean_sbu_1, # of connection points: 4
#     Node 18, Type 0, BuildingBlock: QUQFOY_clean_sbu_1, # of connection points: 4
#     Node 19, Type 0, BuildingBlock: QUQFOY_clean_sbu_1, # of connection points: 4
#     Node 20, Type 0, BuildingBlock: QUQFOY_clean_sbu_1, # of connection points: 4
#     Node 21, Type 0, BuildingBlock: QUQFOY_clean_sbu_1, # of connection points: 4
#     Node 22, Type 0, BuildingBlock: QUQFOY_clean_sbu_1, # of connection points: 4
#     Node 23, Type 0, BuildingBlock: QUQFOY_clean_sbu_1, # of connection points: 4
#     Node 24, Type 0, BuildingBlock: QUQFOY_clean_sbu_1, # of connection points: 4
#     Node 25, Type 0, BuildingBlock: QUQFOY_clean_sbu_1, # of connection points: 4
#     Node 26, Type 0, BuildingBlock: QUQFOY_clean_sbu_1, # of connection points: 4
#     Node 27, Type 0, BuildingBlock: QUQFOY_clean_sbu_1, # of connection points: 4
#     Node 28, Type 0, BuildingBlock: QUQFOY_clean_sbu_1, # of connection points: 4
#     Node 29, Type 0, BuildingBlock: QUQFOY_clean_sbu_1, # of connection points: 4
#     Node 30, Type 0, BuildingBlock: QUQFOY_clean_sbu_1, # of connection points: 4
#     Node 31, Type 0, BuildingBlock: QUQFOY_clean_sbu_1, # of connection points: 4
#     Edge 32, Type (0, 0), BuildingBlock: CIFDUS_clean_linker_0, # of connection points: 2
#     Edge 33, Type (0, 0), BuildingBlock: CIFDUS_clean_linker_0, # of connection points: 2
#     Edge 34, Type (0, 0), BuildingBlock: CIFDUS_clean_linker_0, # of connection points: 2
#     Edge 35, Type (0, 0), BuildingBlock: CIFDUS_clean_linker_0, # of connection points: 2
#     Edge 36, Type (0, 0), BuildingBlock: CIFDUS_clean_linker_0, # of connection points: 2
#     Edge 37, Type (0, 0), BuildingBlock: CIFDUS_clean_linker_0, # of connection points: 2
#     Edge 38, Type (0, 0), BuildingBlock: CIFDUS_clean_linker_0, # of connection points: 2
#     Edge 39, Type (0, 0), BuildingBlock: CIFDUS_clean_linker_0, # of connection points: 2
#     Edge 40, Type (0, 0), BuildingBlock: CIFDUS_clean_linker_0, # of connection points: 2
#     Edge 41, Type (0, 0), BuildingBlock: CIFDUS_clean_linker_0, # of connection points: 2
#     Edge 42, Type (0, 0), BuildingBlock: CIFDUS_clean_linker_0, # of connection points: 2
#     Edge 43, Type (0, 0), BuildingBlock: CIFDUS_clean_linker_0, # of connection points: 2
#     Edge 44, Type (0, 0), BuildingBlock: CIFDUS_clean_linker_0, # of connection points: 2
#     Edge 45, Type (0, 0), BuildingBlock: CIFDUS_clean_linker_0, # of connection points: 2
#     Edge 46, Type (0, 0), BuildingBlock: CIFDUS_clean_linker_0, # of connection points: 2
#     Edge 47, Type (0, 0), BuildingBlock: CIFDUS_clean_linker_0, # of connection points: 2
#     Edge 48, Type (0, 0), BuildingBlock: CIFDUS_clean_linker_0, # of connection points: 2
#     Edge 49, Type (0, 0), BuildingBlock: CIFDUS_clean_linker_0, # of connection points: 2
#     Edge 50, Type (0, 0), BuildingBlock: CIFDUS_clean_linker_0, # of connection points: 2
#     Edge 51, Type (0, 0), BuildingBlock: CIFDUS_clean_linker_0, # of connection points: 2
#     Edge 52, Type (0, 0), BuildingBlock: CIFDUS_clean_linker_0, # of connection points: 2
#     Edge 53, Type (0, 0), BuildingBlock: CIFDUS_clean_linker_0, # of connection points: 2
#     Edge 54, Type (0, 0), BuildingBlock: CIFDUS_clean_linker_0, # of connection points: 2
#     Edge 55, Type (0, 0), BuildingBlock: CIFDUS_clean_linker_0, # of connection points: 2
#     Edge 56, Type (0, 0), BuildingBlock: CIFDUS_clean_linker_0, # of connection points: 2
#     Edge 57, Type (0, 0), BuildingBlock: CIFDUS_clean_linker_0, # of connection points: 2
#     Edge 58, Type (0, 0), BuildingBlock: CIFDUS_clean_linker_0, # of connection points: 2
#     Edge 59, Type (0, 0), BuildingBlock: CIFDUS_clean_linker_0, # of connection points: 2
#     Edge 60, Type (0, 0), BuildingBlock: CIFDUS_clean_linker_0, # of connection points: 2
#     Edge 61, Type (0, 0), BuildingBlock: CIFDUS_clean_linker_0, # of connection points: 2
#     Edge 62, Type (0, 0), BuildingBlock: CIFDUS_clean_linker_0, # of connection points: 2
#     Edge 63, Type (0, 0), BuildingBlock: CIFDUS_clean_linker_0, # of connection points: 2
#     Edge 64, Type (0, 0), BuildingBlock: CIFDUS_clean_linker_0, # of connection points: 2
#     Edge 65, Type (0, 0), BuildingBlock: CIFDUS_clean_linker_0, # of connection points: 2
#     Edge 66, Type (0, 0), BuildingBlock: CIFDUS_clean_linker_0, # of connection points: 2
#     Edge 67, Type (0, 0), BuildingBlock: CIFDUS_clean_linker_0, # of connection points: 2
#     Edge 68, Type (0, 0), BuildingBlock: CIFDUS_clean_linker_0, # of connection points: 2
#     Edge 69, Type (0, 0), BuildingBlock: CIFDUS_clean_linker_0, # of connection points: 2
#     Edge 70, Type (0, 0), BuildingBlock: CIFDUS_clean_linker_0, # of connection points: 2
#     Edge 71, Type (0, 0), BuildingBlock: CIFDUS_clean_linker_0, # of connection points: 2
#     Edge 72, Type (0, 0), BuildingBlock: CIFDUS_clean_linker_0, # of connection points: 2
#     Edge 73, Type (0, 0), BuildingBlock: CIFDUS_clean_linker_0, # of connection points: 2
#     Edge 74, Type (0, 0), BuildingBlock: CIFDUS_clean_linker_0, # of connection points: 2
#     Edge 75, Type (0, 0), BuildingBlock: CIFDUS_clean_linker_0, # of connection points: 2
#     Edge 76, Type (0, 0), BuildingBlock: CIFDUS_clean_linker_0, # of connection points: 2
#     Edge 77, Type (0, 0), BuildingBlock: CIFDUS_clean_linker_0, # of connection points: 2
#     Edge 78, Type (0, 0), BuildingBlock: CIFDUS_clean_linker_0, # of connection points: 2
#     Edge 79, Type (0, 0), BuildingBlock: CIFDUS_clean_linker_0, # of connection points: 2
#     Edge 80, Type (0, 0), BuildingBlock: CIFDUS_clean_linker_0, # of connection points: 2
#     Edge 81, Type (0, 0), BuildingBlock: CIFDUS_clean_linker_0, # of connection points: 2
#     Edge 82, Type (0, 0), BuildingBlock: CIFDUS_clean_linker_0, # of connection points: 2
#     Edge 83, Type (0, 0), BuildingBlock: CIFDUS_clean_linker_0, # of connection points: 2
#     Edge 84, Type (0, 0), BuildingBlock: CIFDUS_clean_linker_0, # of connection points: 2
#     Edge 85, Type (0, 0), BuildingBlock: CIFDUS_clean_linker_0, # of connection points: 2
#     Edge 86, Type (0, 0), BuildingBlock: CIFDUS_clean_linker_0, # of connection points: 2
#     Edge 87, Type (0, 0), BuildingBlock: CIFDUS_clean_linker_0, # of connection points: 2
#     Edge 88, Type (0, 0), BuildingBlock: CIFDUS_clean_linker_0, # of connection points: 2
#     Edge 89, Type (0, 0), BuildingBlock: CIFDUS_clean_linker_0, # of connection points: 2
#     Edge 90, Type (0, 0), BuildingBlock: CIFDUS_clean_linker_0, # of connection points: 2
#     Edge 91, Type (0, 0), BuildingBlock: CIFDUS_clean_linker_0, # of connection points: 2
#     Edge 92, Type (0, 0), BuildingBlock: CIFDUS_clean_linker_0, # of connection points: 2
#     Edge 93, Type (0, 0), BuildingBlock: CIFDUS_clean_linker_0, # of connection points: 2
#     Edge 94, Type (0, 0), BuildingBlock: CIFDUS_clean_linker_0, # of connection points: 2
#     Edge 95, Type (0, 0), BuildingBlock: CIFDUS_clean_linker_0, # of connection points: 2
# Relax obj value: 0.190
# Max RMSD: 0.171
# Mean RMSD: 0.171
data_MOF--net-zni--node1-QUQFOY_clean_sbu_1--edge1-CIFDUS_clean_linker_0
_symmetry_space_group_name_H-M    P1
_symmetry_Int_Tables_number       1
_symmetry_cell_setting            triclinic
loop_
_symmetry_equiv_pos_as_xyz
'x, y, z'
_cell_length_a     52.735517
_cell_length_b     52.736253
_cell_length_c     30.496736
_cell_angle_alpha  89.984166
_cell_angle_beta   89.956744
_cell_angle_gamma 89.960784
loop_
_atom_site_label
_atom_site_type_symbol
_atom_site_fract_x
_atom_site_fract_y
_atom_site_fract_z
_atom_type_partial_charge
O0 O 0.05896 0.10256 0.33511 0.0
Cd1 Cd 0.09746 0.10065 0.32314 0.0
Cd2 Cd 0.09835 0.10809 0.41925 0.0
O3 O 0.06022 0.10187 0.40753 0.0
O4 O 0.1016 0.08429 0.2647 0.0
O5 O 0.11448 0.06654 0.3266 0.0
C6 C 0.11174 0.06521 0.28453 0.0
C7 C 0.10882 0.10757 0.4943 0.0
C8 C 0.04767 0.10182 0.37196 0.0
C9 C 0.12174 0.14766 0.35505 0.0
O10 O 0.11548 0.13967 0.39278 0.0
O11 O 0.11704 0.13451 0.32114 0.0
O12 O 0.09378 0.12396 0.47739 0.0
O13 O 0.11741 0.09001 0.46892 0.0
O14 O 0.14566 0.81456 0.62075 0.0
Cd15 Cd 0.14423 0.85325 0.61031 0.0
Cd16 Cd 0.14468 0.85386 0.69897 0.0
O17 O 0.15524 0.81641 0.69097 0.0
O18 O 0.1576 0.85922 0.55009 0.0
O19 O 0.17748 0.87177 0.61026 0.0
C20 C 0.17722 0.86953 0.56802 0.0
C21 C 0.15955 0.8766 0.75937 0.0
C22 C 0.15198 0.80355 0.65621 0.0
C23 C 0.0969 0.87084 0.65218 0.0
O24 O 0.10728 0.86293 0.68718 0.0
O25 O 0.10926 0.87081 0.61637 0.0
O26 O 0.14576 0.8567 0.76377 0.0
O27 O 0.16636 0.88319 0.72036 0.0
O28 O 0.43899 0.89942 0.83865 0.0
Cd29 Cd 0.40013 0.90134 0.83252 0.0
Cd30 Cd 0.40335 0.89045 0.92367 0.0
O31 O 0.44117 0.89793 0.91089 0.0
O32 O 0.3933 0.92272 0.78005 0.0
O33 O 0.38388 0.93458 0.84784 0.0
C34 C 0.38496 0.93994 0.80648 0.0
C35 C 0.39083 0.89209 0.99749 0.0
C36 C 0.45201 0.8994 0.87373 0.0
C37 C 0.37876 0.85233 0.85911 0.0
O38 O 0.38717 0.8586 0.89654 0.0
O39 O 0.38067 0.86747 0.82689 0.0
O40 O 0.40683 0.87577 0.98303 0.0
O41 O 0.38279 0.90911 0.97048 0.0
O42 O 0.36162 0.18705 0.08129 0.0
Cd43 Cd 0.36067 0.14873 0.06842 0.0
Cd44 Cd 0.37182 0.14886 0.16682 0.0
O45 O 0.36327 0.18653 0.1538 0.0
O46 O 0.34251 0.14504 0.01161 0.0
O47 O 0.32679 0.1318 0.075 0.0
C48 C 0.32397 0.13514 0.03328 0.0
C49 C 0.37843 0.14034 0.24152 0.0
C50 C 0.36126 0.19861 0.11788 0.0
C51 C 0.40773 0.12357 0.09677 0.0
O52 O 0.40064 0.13012 0.13487 0.0
O53 O 0.39444 0.12909 0.06342 0.0
O54 O 0.39261 0.15537 0.21941 0.0
O55 O 0.35889 0.13095 0.22201 0.0
O56 O 0.06371 0.8935 0.1298 0.0
Cd57 Cd 0.10206 0.89259 0.143 0.0
Cd58 Cd 0.10453 0.88997 0.0545 0.0
O59 O 0.06665 0.89978 0.05853 0.0
O60 O 0.10634 0.90789 0.20223 0.0
O61 O 0.12027 0.926 0.14123 0.0
C62 C 0.11684 0.92706 0.18319 0.0
C63 C 0.12878 0.90343 0.99482 0.0
C64 C 0.05326 0.89796 0.09304 0.0
C65 C 0.12057 0.84396 0.10768 0.0
O66 O 0.11385 0.85326 0.07107 0.0
O67 O 0.11947 0.85738 0.14225 0.0
O68 O 0.10956 0.88874 0.9901 0.0
O69 O 0.1338 0.9119 0.03352 0.0
O70 O 0.34744 0.81611 0.41074 0.0
Cd71 Cd 0.34699 0.85508 0.41649 0.0
Cd72 Cd 0.35773 0.84932 0.31992 0.0
O73 O 0.34772 0.81299 0.33851 0.0
O74 O 0.33237 0.86136 0.47581 0.0
O75 O 0.3129 0.87241 0.41453 0.0
C76 C 0.31269 0.87081 0.45682 0.0
C77 C 0.35872 0.85401 0.24324 0.0
C78 C 0.34629 0.80274 0.37613 0.0
C79 C 0.3963 0.87485 0.38296 0.0
O80 O 0.3897 0.86589 0.34606 0.0
O81 O 0.38147 0.87367 0.41577 0.0
O82 O 0.37347 0.8388 0.26381 0.0
O83 O 0.34254 0.86677 0.26601 0.0
O84 O 0.4482 0.1107 0.65108 0.0
Cd85 Cd 0.40923 0.1092 0.65722 0.0
Cd86 Cd 0.41057 0.10952 0.56515 0.0
O87 O 0.44799 0.10176 0.58047 0.0
O88 O 0.39969 0.0885 0.70925 0.0
O89 O 0.39308 0.07636 0.6405 0.0
C90 C 0.39201 0.07136 0.68202 0.0
C91 C 0.40131 0.10321 0.4906 0.0
C92 C 0.46008 0.1054 0.61594 0.0
C93 C 0.3872 0.15439 0.61707 0.0
O94 O 0.39508 0.14404 0.58207 0.0
O95 O 0.38959 0.14304 0.65358 0.0
O96 O 0.41779 0.11926 0.504 0.0
O97 O 0.39027 0.08935 0.5197 0.0
O98 O 0.1459 0.19724 0.90019 0.0
Cd99 Cd 0.14617 0.15895 0.91437 0.0
Cd100 Cd 0.13335 0.15563 0.81868 0.0
O101 O 0.14169 0.1935 0.82847 0.0
O102 O 0.1647 0.15503 0.97081 0.0
O103 O 0.17916 0.14025 0.90758 0.0
C104 C 0.18238 0.14362 0.9492 0.0
C105 C 0.13079 0.14736 0.74306 0.0
C106 C 0.1449 0.20719 0.86226 0.0
C107 C 0.09723 0.1343 0.89039 0.0
O108 O 0.1033 0.13883 0.85084 0.0
O109 O 0.11186 0.14059 0.92161 0.0
O110 O 0.11512 0.16187 0.76308 0.0
O111 O 0.14843 0.13682 0.76595 0.0
O112 O 0.93824 0.89989 0.66007 0.0
Cd113 Cd 0.89988 0.90143 0.67363 0.0
Cd114 Cd 0.8985 0.89213 0.57768 0.0
O115 O 0.9367 0.89882 0.58764 0.0
O116 O 0.89687 0.91765 0.73247 0.0
O117 O 0.88228 0.93537 0.67176 0.0
C118 C 0.88599 0.93664 0.71361 0.0
C119 C 0.88587 0.89199 0.50367 0.0
C120 C 0.94938 0.89983 0.62305 0.0
C121 C 0.87658 0.85327 0.64456 0.0
O122 O 0.88251 0.86067 0.60633 0.0
O123 O 0.88096 0.86722 0.67763 0.0
O124 O 0.90143 0.87573 0.51951 0.0
O125 O 0.87817 0.90987 0.52926 0.0
O126 O 0.85126 0.18625 0.3745 0.0
Cd127 Cd 0.85226 0.14747 0.38425 0.0
Cd128 Cd 0.85323 0.14889 0.29445 0.0
O129 O 0.84186 0.18598 0.30407 0.0
O130 O 0.84005 0.1422 0.44552 0.0
O131 O 0.81861 0.12948 0.38721 0.0
C132 C 0.81983 0.13215 0.42931 0.0
C133 C 0.84124 0.12619 0.23207 0.0
C134 C 0.84512 0.19805 0.3397 0.0
C135 C 0.90022 0.13123 0.34275 0.0
O136 O 0.89046 0.14055 0.30827 0.0
O137 O 0.8872 0.12969 0.37779 0.0
O138 O 0.85398 0.14688 0.22941 0.0
O139 O 0.83343 0.11904 0.27022 0.0
O140 O 0.56373 0.09678 0.10251 0.0
Cd141 Cd 0.60162 0.09665 0.11991 0.0
Cd142 Cd 0.60694 0.107 0.03166 0.0
O143 O 0.56834 0.10052 0.03087 0.0
O144 O 0.60395 0.07755 0.17617 0.0
O145 O 0.62073 0.06384 0.11395 0.0
C146 C 0.61596 0.06008 0.15504 0.0
C147 C 0.62998 0.09808 0.96813 0.0
C148 C 0.55416 0.09789 0.06427 0.0
C149 C 0.62304 0.14701 0.09843 0.0
O150 O 0.61882 0.14056 0.05904 0.0
O151 O 0.61877 0.13152 0.12949 0.0
O152 O 0.61357 0.11604 0.96978 0.0
O153 O 0.63285 0.0839 0.00221 0.0
O154 O 0.65001 0.81303 0.90551 0.0
Cd155 Cd 0.64976 0.85166 0.91623 0.0
Cd156 Cd 0.63741 0.84926 0.82158 0.0
O157 O 0.64546 0.81146 0.83348 0.0
O158 O 0.66635 0.85589 0.97446 0.0
O159 O 0.68324 0.86997 0.91269 0.0
C160 C 0.68503 0.86668 0.95458 0.0
C161 C 0.63734 0.86192 0.74773 0.0
C162 C 0.64892 0.80039 0.87004 0.0
C163 C 0.59985 0.87234 0.88927 0.0
O164 O 0.60616 0.86519 0.85107 0.0
O165 O 0.61495 0.8695 0.92134 0.0
O166 O 0.62134 0.84593 0.76321 0.0
O167 O 0.65493 0.86992 0.77361 0.0
O168 O 0.93673 0.10876 0.85516 0.0
Cd169 Cd 0.89771 0.10934 0.85201 0.0
Cd170 Cd 0.90298 0.11131 0.93875 0.0
O171 O 0.94007 0.10087 0.92589 0.0
O172 O 0.88883 0.09443 0.79399 0.0
O173 O 0.88054 0.07551 0.85726 0.0
C174 C 0.88064 0.07477 0.81486 0.0
C175 C 0.87985 0.09611 0.99828 0.0
C176 C 0.95029 0.10349 0.88839 0.0
C177 C 0.88305 0.15783 0.89298 0.0
O178 O 0.89369 0.14853 0.9267 0.0
O179 O 0.88023 0.14437 0.85872 0.0
O180 O 0.90021 0.10918 0.00359 0.0
O181 O 0.87341 0.08987 0.9589 0.0
O182 O 0.65339 0.19092 0.59124 0.0
Cd183 Cd 0.65377 0.15173 0.59068 0.0
Cd184 Cd 0.65455 0.15889 0.67921 0.0
O185 O 0.66216 0.19582 0.66136 0.0
O186 O 0.6661 0.14192 0.5312 0.0
O187 O 0.68805 0.13494 0.59186 0.0
C188 C 0.68672 0.13409 0.54954 0.0
C189 C 0.67147 0.14417 0.74518 0.0
C190 C 0.65856 0.20524 0.62356 0.0
C191 C 0.60754 0.13564 0.63864 0.0
O192 O 0.61785 0.14652 0.67119 0.0
O193 O 0.61956 0.1335 0.60263 0.0
O194 O 0.65579 0.16278 0.7437 0.0
O195 O 0.67866 0.13408 0.70873 0.0
O196 O 0.5587 0.89725 0.33439 0.0
Cd197 Cd 0.59772 0.89927 0.33267 0.0
Cd198 Cd 0.59077 0.89021 0.42663 0.0
O199 O 0.55441 0.89913 0.40632 0.0
O200 O 0.60654 0.91791 0.2779 0.0
O201 O 0.61314 0.93337 0.34446 0.0
C202 C 0.61378 0.9365 0.3024 0.0
C203 C 0.5955 0.89152 0.50324 0.0
C204 C 0.54471 0.89912 0.36819 0.0
C205 C 0.61834 0.85112 0.36735 0.0
O206 O 0.60827 0.85797 0.40328 0.0
O207 O 0.61764 0.86555 0.334 0.0
O208 O 0.58039 0.87605 0.4841 0.0
O209 O 0.60796 0.90721 0.47903 0.0
O210 O 0.86075 0.81108 0.09035 0.0
Cd211 Cd 0.85976 0.85009 0.08621 0.0
Cd212 Cd 0.86594 0.8446 0.18202 0.0
O213 O 0.85853 0.80779 0.16243 0.0
O214 O 0.84379 0.85805 0.02864 0.0
O215 O 0.82563 0.86665 0.09243 0.0
C216 C 0.8244 0.86641 0.05007 0.0
C217 C 0.86184 0.85003 0.25816 0.0
C218 C 0.85874 0.79758 0.12471 0.0
C219 C 0.90662 0.87158 0.12498 0.0
O220 O 0.89838 0.86261 0.16092 0.0
O221 O 0.89372 0.86951 0.08998 0.0
O222 O 0.87838 0.83519 0.2411 0.0
O223 O 0.84676 0.86194 0.23205 0.0
O224 O 0.55648 0.60547 0.86289 0.0
Cd225 Cd 0.59425 0.60439 0.84537 0.0
Cd226 Cd 0.59955 0.61977 0.94056 0.0
O227 O 0.56137 0.61153 0.93414 0.0
O228 O 0.59699 0.58316 0.79154 0.0
O229 O 0.61293 0.57175 0.8558 0.0
C230 C 0.60866 0.56649 0.81505 0.0
C231 C 0.61068 0.62782 0.01407 0.0
C232 C 0.54715 0.60759 0.90119 0.0
C233 C 0.61957 0.65336 0.86323 0.0
O234 O 0.61594 0.64787 0.90326 0.0
O235 O 0.61233 0.63841 0.83312 0.0
O236 O 0.59552 0.64202 0.99233 0.0
O237 O 0.61933 0.60788 0.99469 0.0
O238 O 0.64065 0.31192 0.07298 0.0
Cd239 Cd 0.64314 0.35077 0.07812 0.0
Cd240 Cd 0.6399 0.34079 0.16766 0.0
O241 O 0.64628 0.30468 0.14349 0.0
O242 O 0.66424 0.36344 0.0286 0.0
O243 O 0.67667 0.36408 0.09809 0.0
C244 C 0.68181 0.36789 0.0571 0.0
C245 C 0.64968 0.34595 0.24202 0.0
C246 C 0.644 0.29651 0.1045 0.0
C247 C 0.59721 0.37017 0.1211 0.0
O248 O 0.60601 0.35865 0.15434 0.0
O249 O 0.60969 0.37081 0.08545 0.0
O250 O 0.63263 0.33042 0.22878 0.0
O251 O 0.66223 0.35846 0.21289 0.0
O252 O 0.93402 0.38777 0.34416 0.0
Cd253 Cd 0.89506 0.39028 0.34094 0.0
Cd254 Cd 0.89938 0.38615 0.43309 0.0
O255 O 0.93689 0.39169 0.41592 0.0
O256 O 0.88721 0.40646 0.28352 0.0
O257 O 0.88018 0.42514 0.34745 0.0
C258 C 0.88014 0.4263 0.30507 0.0
C259 C 0.89068 0.39789 0.50557 0.0
C260 C 0.9474 0.39014 0.37855 0.0
C261 C 0.87302 0.34392 0.3809 0.0
O262 O 0.88223 0.35231 0.41656 0.0
O263 O 0.87469 0.35689 0.34587 0.0
O264 O 0.90569 0.37956 0.49605 0.0
O265 O 0.88016 0.41014 0.47384 0.0
O266 O 0.85723 0.69153 0.59114 0.0
Cd267 Cd 0.85715 0.65246 0.58813 0.0
Cd268 Cd 0.86482 0.65762 0.68043 0.0
O269 O 0.85581 0.69439 0.66319 0.0
O270 O 0.84036 0.64389 0.53161 0.0
O271 O 0.82359 0.63512 0.59645 0.0
C272 C 0.82156 0.63522 0.55419 0.0
C273 C 0.85796 0.64972 0.7551 0.0
C274 C 0.85522 0.70483 0.6257 0.0
C275 C 0.90621 0.63342 0.62317 0.0
O276 O 0.89884 0.64244 0.65964 0.0
O277 O 0.89175 0.63409 0.58985 0.0
O278 O 0.84477 0.6377 0.72625 0.0
O279 O 0.87448 0.66572 0.74148 0.0
O280 O 0.56306 0.39755 0.63243 0.0
Cd281 Cd 0.60113 0.40038 0.64751 0.0
Cd282 Cd 0.6052 0.3882 0.55486 0.0
O283 O 0.56646 0.39362 0.5605 0.0
O284 O 0.60363 0.42125 0.70178 0.0
O285 O 0.61759 0.43413 0.63694 0.0
C286 C 0.61366 0.43884 0.67801 0.0
C287 C 0.62123 0.38857 0.48304 0.0
C288 C 0.55286 0.39587 0.59474 0.0
C289 C 0.62692 0.35225 0.62621 0.0
O290 O 0.62158 0.3581 0.58695 0.0
O291 O 0.62119 0.36714 0.65742 0.0
O292 O 0.60608 0.37134 0.49691 0.0
O293 O 0.62649 0.40704 0.50919 0.0
O294 O 0.85615 0.31685 0.89919 0.0
Cd295 Cd 0.85358 0.35535 0.9104 0.0
Cd296 Cd 0.86396 0.35737 0.82064 0.0
O297 O 0.85895 0.31862 0.82705 0.0
O298 O 0.83148 0.36034 0.96266 0.0
O299 O 0.82068 0.37242 0.8956 0.0
C300 C 0.81481 0.37007 0.9366 0.0
C301 C 0.85817 0.37393 0.75004 0.0
C302 C 0.85735 0.30576 0.86221 0.0
C303 C 0.90217 0.37918 0.88726 0.0
O304 O 0.89581 0.37327 0.84846 0.0
O305 O 0.88724 0.37473 0.91906 0.0
O306 O 0.87677 0.35927 0.75973 0.0
O307 O 0.84158 0.3786 0.78005 0.0
O308 O 0.94103 0.59827 0.14682 0.0
Cd309 Cd 0.90322 0.59926 0.16467 0.0
Cd310 Cd 0.8985 0.60884 0.07002 0.0
O311 O 0.93688 0.60157 0.07492 0.0
O312 O 0.9013 0.58285 0.22347 0.0
O313 O 0.88362 0.5665 0.1641 0.0
C314 C 0.88871 0.56468 0.20544 0.0
C315 C 0.88264 0.60787 0.99813 0.0
C316 C 0.95077 0.59885 0.10865 0.0
C317 C 0.88076 0.64858 0.13858 0.0
O318 O 0.88444 0.64091 0.09968 0.0
O319 O 0.88637 0.63451 0.17097 0.0
O320 O 0.89867 0.62448 0.01113 0.0
O321 O 0.87615 0.59034 0.02536 0.0
O322 O 0.64392 0.69106 0.42864 0.0
Cd323 Cd 0.64474 0.65207 0.43351 0.0
Cd324 Cd 0.63861 0.6561 0.34061 0.0
O325 O 0.64685 0.69328 0.3566 0.0
O326 O 0.66157 0.64433 0.49035 0.0
O327 O 0.67847 0.63492 0.42585 0.0
C328 C 0.68043 0.63548 0.46812 0.0
C329 C 0.64408 0.64696 0.26576 0.0
C330 C 0.64632 0.70409 0.39381 0.0
C331 C 0.59661 0.63226 0.3978 0.0
O332 O 0.6047 0.64084 0.3615 0.0
O333 O 0.61037 0.6334 0.43194 0.0
O334 O 0.62782 0.66313 0.27975 0.0
O335 O 0.65829 0.63595 0.2944 0.0
O336 O 0.44032 0.39648 0.14744 0.0
Cd337 Cd 0.40253 0.39626 0.16491 0.0
Cd338 Cd 0.39695 0.38611 0.07197 0.0
O339 O 0.43511 0.39507 0.07558 0.0
O340 O 0.3979 0.41868 0.21681 0.0
O341 O 0.38252 0.42751 0.15086 0.0
C342 C 0.38599 0.43417 0.19125 0.0
C343 C 0.38112 0.38223 0.00035 0.0
C344 C 0.44951 0.39695 0.10886 0.0
C345 C 0.38036 0.34707 0.14371 0.0
O346 O 0.38386 0.35465 0.10472 0.0
O347 O 0.38597 0.36131 0.17582 0.0
O348 O 0.39833 0.36759 0.01575 0.0
O349 O 0.37363 0.40083 0.0245 0.0
O350 O 0.35348 0.69158 0.91259 0.0
Cd351 Cd 0.35267 0.65276 0.92034 0.0
Cd352 Cd 0.35808 0.65628 0.82376 0.0
O353 O 0.35153 0.69384 0.84028 0.0
O354 O 0.3372 0.64644 0.97894 0.0
O355 O 0.31866 0.63572 0.91651 0.0
C356 C 0.3178 0.63715 0.95882 0.0
C357 C 0.35604 0.6473 0.74839 0.0
C358 C 0.35176 0.70459 0.87759 0.0
C359 C 0.39898 0.63025 0.88248 0.0
O360 O 0.3901 0.63818 0.84635 0.0
O361 O 0.38678 0.6335 0.91795 0.0
O362 O 0.37238 0.66255 0.76484 0.0
O363 O 0.33914 0.63805 0.77443 0.0
O364 O 0.06919 0.61244 0.67095 0.0
Cd365 Cd 0.10817 0.60971 0.66899 0.0
Cd366 Cd 0.101 0.61211 0.58001 0.0
O367 O 0.0642 0.6053 0.60035 0.0
O368 O 0.11931 0.58936 0.72048 0.0
O369 O 0.12213 0.57588 0.65174 0.0
C370 C 0.12467 0.57136 0.69324 0.0
C371 C 0.10955 0.60017 0.50755 0.0
C372 C 0.05478 0.60839 0.63833 0.0
C373 C 0.12749 0.65603 0.62727 0.0
O374 O 0.11674 0.64703 0.59342 0.0
O375 O 0.12815 0.64324 0.66261 0.0
O376 O 0.09313 0.61723 0.51715 0.0
O377 O 0.12124 0.589 0.53924 0.0
O378 O 0.14549 0.30684 0.42064 0.0
Cd379 Cd 0.14516 0.34564 0.42946 0.0
Cd380 Cd 0.13508 0.34291 0.33362 0.0
O381 O 0.14585 0.30618 0.34822 0.0
O382 O 0.16266 0.35185 0.48633 0.0
O383 O 0.1784 0.36388 0.42231 0.0
C384 C 0.18096 0.36195 0.46435 0.0
C385 C 0.13247 0.35045 0.25774 0.0
C386 C 0.14718 0.29468 0.38476 0.0
C387 C 0.09572 0.36548 0.39908 0.0
O388 O 0.10294 0.35792 0.36161 0.0
O389 O 0.11027 0.36351 0.4321 0.0
O390 O 0.11856 0.33412 0.27744 0.0
O391 O 0.14906 0.36242 0.28083 0.0
O392 O 0.43556 0.61008 0.33468 0.0
Cd393 Cd 0.39667 0.6071 0.33136 0.0
Cd394 Cd 0.40092 0.61865 0.42425 0.0
O395 O 0.4378 0.60965 0.40691 0.0
O396 O 0.3886 0.58451 0.28099 0.0
O397 O 0.38198 0.57387 0.35041 0.0
C398 C 0.38172 0.56767 0.30936 0.0
C399 C 0.39564 0.62073 0.5007 0.0
C400 C 0.44859 0.60905 0.36966 0.0
C401 C 0.37396 0.65542 0.35955 0.0
O402 O 0.38304 0.64956 0.39675 0.0
O403 O 0.37607 0.64032 0.32728 0.0
O404 O 0.41032 0.63577 0.47962 0.0
O405 O 0.38386 0.60356 0.47859 0.0
O406 O 0.14209 0.68464 0.11305 0.0
Cd407 Cd 0.14424 0.64626 0.10076 0.0
Cd408 Cd 0.13921 0.64529 0.19535 0.0
O409 O 0.14317 0.68399 0.1855 0.0
O410 O 0.16003 0.64277 0.04173 0.0
O411 O 0.17875 0.63008 0.10289 0.0
C412 C 0.17965 0.63323 0.06086 0.0
C413 C 0.14601 0.63026 0.26667 0.0
C414 C 0.14276 0.69626 0.14958 0.0
C415 C 0.09844 0.62112 0.13506 0.0
O416 O 0.10717 0.62761 0.17213 0.0
O417 O 0.11065 0.62609 0.10021 0.0
O418 O 0.12752 0.64503 0.25701 0.0
O419 O 0.16226 0.62503 0.23639 0.0
O420 O 0.06476 0.40205 0.84774 0.0
Cd421 Cd 0.10382 0.40289 0.84556 0.0
Cd422 Cd 0.09711 0.39698 0.93893 0.0
O423 O 0.06024 0.40468 0.91962 0.0
O424 O 0.11381 0.42305 0.79307 0.0
O425 O 0.12027 0.43586 0.86138 0.0
C426 C 0.12143 0.44047 0.81975 0.0
C427 C 0.10469 0.3983 0.01473 0.0
C428 C 0.05065 0.40427 0.88138 0.0
C429 C 0.12399 0.35572 0.88236 0.0
O430 O 0.11462 0.36436 0.91763 0.0
O431 O 0.12279 0.36854 0.84717 0.0
O432 O 0.0889 0.38288 0.99721 0.0
O433 O 0.11512 0.41495 0.98955 0.0
O434 O 0.35984 0.31217 0.5984 0.0
Cd435 Cd 0.35845 0.35063 0.58667 0.0
Cd436 Cd 0.36049 0.35367 0.6791 0.0
O437 O 0.35464 0.31527 0.66991 0.0
O438 O 0.34121 0.35589 0.52933 0.0
O439 O 0.32452 0.36743 0.59303 0.0
C440 C 0.32232 0.36523 0.55094 0.0
C441 C 0.35088 0.36626 0.75103 0.0
C442 C 0.35673 0.30178 0.63562 0.0
C443 C 0.40445 0.37459 0.62316 0.0
O444 O 0.39473 0.36901 0.66002 0.0
O445 O 0.39254 0.36994 0.58785 0.0
O446 O 0.36844 0.35029 0.74207 0.0
O447 O 0.33801 0.37553 0.7189 0.0
H448 H 0.1197 0.01775 0.31697 0.0
H449 H 0.11776 0.06036 0.19622 0.0
H450 H 0.1227 0.02131 0.15411 0.0
H451 H 0.12284 0.97478 0.15126 0.0
H452 H 0.1217 0.93197 0.27179 0.0
H453 H 0.12308 0.97124 0.31419 0.0
C454 C 0.12081 0.01852 0.28148 0.0
C455 C 0.11821 0.04191 0.25979 0.0
C456 C 0.12295 0.99588 0.25735 0.0
C457 C 0.11953 0.04257 0.21375 0.0
C458 C 0.12233 0.02024 0.1896 0.0
C459 C 0.12344 0.97403 0.18679 0.0
C460 C 0.12209 0.95049 0.20832 0.0
C461 C 0.12338 0.99673 0.21099 0.0
C462 C 0.12262 0.94986 0.25441 0.0
C463 C 0.12332 0.97232 0.2787 0.0
H464 H 0.22525 0.87882 0.5962 0.0
H465 H 0.17972 0.87408 0.479 0.0
H466 H 0.21776 0.87752 0.4337 0.0
H467 H 0.26426 0.87659 0.42752 0.0
H468 H 0.30978 0.87854 0.54497 0.0
H469 H 0.27157 0.8818 0.58982 0.0
C470 C 0.2236 0.87906 0.56075 0.0
C471 C 0.19969 0.87601 0.54106 0.0
C472 C 0.24564 0.8803 0.53486 0.0
C473 C 0.19791 0.87623 0.49505 0.0
C474 C 0.21968 0.87813 0.46907 0.0
C475 C 0.26583 0.87826 0.46286 0.0
C476 C 0.28983 0.87715 0.48286 0.0
C477 C 0.24371 0.87938 0.48862 0.0
C478 C 0.29152 0.87917 0.52874 0.0
C479 C 0.26967 0.88098 0.55447 0.0
H480 H 0.38305 0.05673 0.76626 0.0
H481 H 0.3847 0.02852 0.63342 0.0
H482 H 0.3797 0.98521 0.6603 0.0
H483 H 0.38002 0.95509 0.72172 0.0
H484 H 0.37852 0.98317 0.85461 0.0
H485 H 0.3779 0.02675 0.82746 0.0
C486 C 0.38193 0.04115 0.74313 0.0
C487 C 0.38462 0.04585 0.69792 0.0
C488 C 0.37924 0.01623 0.75883 0.0
C489 C 0.38281 0.02547 0.6684 0.0
C490 C 0.38006 1.00065 0.68375 0.0
C491 C 0.37913 0.97073 0.74476 0.0
C492 C 0.37966 0.96587 0.79014 0.0
C493 C 0.37904 0.99575 0.72894 0.0
C494 C 0.37821 0.98635 0.81952 0.0
C495 C 0.378 0.01131 0.80402 0.0
H496 H 0.22799 0.13354 0.9113 0.0
H497 H 0.19056 0.13828 0.03688 0.0
H498 H 0.23107 0.13248 0.07426 0.0
H499 H 0.27758 0.13095 0.07132 0.0
H500 H 0.31528 0.12944 0.94577 0.0
H501 H 0.27433 0.12872 0.90842 0.0
C502 C 0.22865 0.13284 0.94682 0.0
C503 C 0.20633 0.13649 0.97125 0.0
C504 C 0.25214 0.13025 0.96815 0.0
C505 C 0.20751 0.1357 0.01729 0.0
C506 C 0.23068 0.13241 0.03872 0.0
C507 C 0.27682 0.12992 0.03582 0.0
C508 C 0.29942 0.13034 0.01136 0.0
C509 C 0.2532 0.13038 0.01451 0.0
C510 C 0.29814 0.12926 0.96535 0.0
C511 C 0.27472 0.12892 0.94395 0.0
H512 H 0.87457 0.98372 0.68224 0.0
H513 H 0.88385 0.94155 0.80244 0.0
H514 H 0.87939 0.98046 0.84498 0.0
H515 H 0.87772 0.02695 0.84771 0.0
H516 H 0.87115 0.06947 0.72738 0.0
H517 H 0.86925 0.03006 0.68544 0.0
C518 C 0.87518 0.98299 0.71776 0.0
C519 C 0.87975 0.95977 0.73906 0.0
C520 C 0.87322 0.00559 0.74208 0.0
C521 C 0.88057 0.95919 0.78515 0.0
C522 C 0.87804 0.98146 0.80956 0.0
C523 C 0.8753 0.02759 0.81241 0.0
C524 C 0.87469 0.05113 0.79073 0.0
C525 C 0.87505 0.00486 0.78834 0.0
C526 C 0.87177 0.05161 0.7449 0.0
C527 C 0.87079 0.02906 0.72084 0.0
H528 H 0.77103 0.12271 0.40483 0.0
H529 H 0.81914 0.12947 0.51861 0.0
H530 H 0.78212 0.12734 0.56652 0.0
H531 H 0.73582 0.12873 0.57574 0.0
H532 H 0.68764 0.12434 0.4617 0.0
H533 H 0.72481 0.12004 0.41454 0.0
C534 C 0.77347 0.1232 0.44013 0.0
C535 C 0.79784 0.12644 0.45803 0.0
C536 C 0.75199 0.12263 0.46755 0.0
C537 C 0.8006 0.12715 0.50389 0.0
C538 C 0.77941 0.126 0.53137 0.0
C539 C 0.73343 0.12632 0.54067 0.0
C540 C 0.70897 0.12705 0.52231 0.0
C541 C 0.75495 0.12452 0.51353 0.0
C542 C 0.70625 0.12401 0.47673 0.0
C543 C 0.72752 0.12162 0.44967 0.0
H544 H 0.62454 0.94671 0.21696 0.0
H545 H 0.61627 0.98239 0.3435 0.0
H546 H 0.61862 0.02418 0.30918 0.0
H547 H 0.61804 0.05038 0.24246 0.0
H548 H 0.62685 0.01479 0.11598 0.0
H549 H 0.62956 0.9732 0.15109 0.0
C550 C 0.62366 0.96363 0.23712 0.0
C551 C 0.6199 0.96143 0.28267 0.0
C552 C 0.62491 0.98762 0.21713 0.0
C553 C 0.6191 0.98353 0.30837 0.0
C554 C 0.62029 0.00746 0.28873 0.0
C555 C 0.62093 0.03355 0.22262 0.0
C556 C 0.6219 0.03564 0.17664 0.0
C557 C 0.62242 0.0097 0.24302 0.0
C558 C 0.62598 0.01371 0.15142 0.0
C559 C 0.6274 0.9899 0.17147 0.0
H560 H 0.73199 0.8757 0.92087 0.0
H561 H 0.69099 0.87052 0.04303 0.0
H562 H 0.73065 0.8734 0.08387 0.0
H563 H 0.77719 0.8722 0.08468 0.0
H564 H 0.81833 0.87468 0.9624 0.0
H565 H 0.77855 0.87838 0.922 0.0
C566 C 0.73171 0.87572 0.95643 0.0
C567 C 0.70858 0.87271 0.97883 0.0
C568 C 0.75469 0.87666 0.97976 0.0
C569 C 0.70855 0.87263 0.02495 0.0
C570 C 0.73125 0.87422 0.04837 0.0
C571 C 0.77748 0.87406 0.04926 0.0
C572 C 0.8007 0.87297 0.02661 0.0
C573 C 0.75448 0.87546 0.02611 0.0
C574 C 0.80071 0.87529 0.98066 0.0
C575 C 0.77795 0.87734 0.95749 0.0
H576 H 0.61882 0.45139 0.76396 0.0
H577 H 0.61824 0.48358 0.63389 0.0
H578 H 0.61861 0.52629 0.66499 0.0
H579 H 0.61464 0.55432 0.72916 0.0
H580 H 0.61653 0.52221 0.85923 0.0
H581 H 0.62039 0.47965 0.82815 0.0
C582 C 0.61915 0.46776 0.74243 0.0
C583 C 0.61819 0.46433 0.6967 0.0
C584 C 0.61942 0.49226 0.76055 0.0
C585 C 0.61894 0.4857 0.6692 0.0
C586 C 0.61901 0.51014 0.68697 0.0
C587 C 0.61624 0.53802 0.75068 0.0
C588 C 0.61498 0.54137 0.7964 0.0
C589 C 0.61855 0.51363 0.73258 0.0
C590 C 0.61742 0.52014 0.82393 0.0
C591 C 0.61949 0.49578 0.80617 0.0
H592 H 0.79901 0.37284 0.02133 0.0
H593 H 0.77246 0.38039 0.88814 0.0
H594 H 0.72875 0.38332 0.91432 0.0
H595 H 0.69789 0.37873 0.97429 0.0
H596 H 0.72455 0.37081 0.1074 0.0
H597 H 0.76837 0.37341 0.082 0.0
C598 C 0.7837 0.37549 0.99804 0.0
C599 C 0.78899 0.37605 0.9528 0.0
C600 C 0.7586 0.37694 0.01329 0.0
C601 C 0.76894 0.3798 0.92313 0.0
C602 C 0.74391 0.38136 0.93807 0.0
C603 C 0.71326 0.37801 0.99786 0.0
C604 C 0.7079 0.37425 0.04264 0.0
C605 C 0.73847 0.37921 0.98297 0.0
C606 C 0.72808 0.37358 0.07273 0.0
C607 C 0.75318 0.37494 0.05821 0.0
H608 H 0.88011 0.47401 0.33876 0.0
H609 H 0.86929 0.43253 0.21832 0.0
H610 H 0.86795 0.47223 0.17713 0.0
H611 H 0.87477 0.51835 0.17428 0.0
H612 H 0.88845 0.55941 0.2943 0.0
H613 H 0.88353 0.52043 0.33658 0.0
C614 C 0.87692 0.47369 0.30363 0.0
C615 C 0.87491 0.45034 0.28164 0.0
C616 C 0.87698 0.49657 0.27994 0.0
C617 C 0.87101 0.45025 0.23604 0.0
C618 C 0.87032 0.47295 0.21241 0.0
C619 C 0.87623 0.51883 0.20975 0.0
C620 C 0.88214 0.54173 0.23104 0.0
C621 C 0.87405 0.49618 0.23383 0.0
C622 C 0.8841 0.54201 0.27703 0.0
C623 C 0.88131 0.5197 0.30127 0.0
H624 H 0.72663 0.6271 0.43093 0.0
H625 H 0.68825 0.62943 0.55589 0.0
H626 H 0.72879 0.62596 0.59391 0.0
H627 H 0.77531 0.62786 0.59173 0.0
H628 H 0.81372 0.62788 0.46673 0.0
H629 H 0.77313 0.62447 0.42884 0.0
C630 C 0.72709 0.62632 0.46646 0.0
C631 C 0.70445 0.62878 0.49049 0.0
C632 C 0.75056 0.62499 0.4882 0.0
C633 C 0.70541 0.62779 0.53654 0.0
C634 C 0.72861 0.62587 0.55837 0.0
C635 C 0.77484 0.62658 0.55625 0.0
C636 C 0.79751 0.62838 0.53213 0.0
C637 C 0.75136 0.6253 0.53456 0.0
C638 C 0.79654 0.62675 0.48612 0.0
C639 C 0.77331 0.62486 0.46438 0.0
H640 H 0.3821 0.4502 0.27572 0.0
H641 H 0.37403 0.47569 0.14198 0.0
H642 H 0.36925 0.51939 0.16727 0.0
H643 H 0.37238 0.55076 0.22669 0.0
H644 H 0.38002 0.52522 0.36048 0.0
H645 H 0.37956 0.48115 0.33589 0.0
C646 C 0.37891 0.46527 0.25214 0.0
C647 C 0.37877 0.45974 0.207 0.0
C648 C 0.37625 0.49038 0.2669 0.0
C649 C 0.37429 0.47943 0.17691 0.0
C650 C 0.37169 0.50446 0.19133 0.0
C651 C 0.37351 0.53554 0.25054 0.0
C652 C 0.37657 0.54129 0.2953 0.0
C653 C 0.37339 0.51023 0.23615 0.0
C654 C 0.37772 0.52135 0.32583 0.0
C655 C 0.37761 0.49612 0.31177 0.0
H656 H 0.22745 0.62662 0.09247 0.0
H657 H 0.18455 0.62941 0.97215 0.0
H658 H 0.22373 0.6277 0.92956 0.0
H659 H 0.27022 0.63016 0.92658 0.0
H660 H 0.3131 0.63008 0.04702 0.0
H661 H 0.27402 0.6257 0.08931 0.0
C662 C 0.22666 0.62638 0.05694 0.0
C663 C 0.20312 0.62829 0.03555 0.0
C664 C 0.24932 0.6261 0.0326 0.0
C665 C 0.20244 0.62811 0.98946 0.0
C666 C 0.22484 0.62719 0.96504 0.0
C667 C 0.27105 0.62871 0.96202 0.0
C668 C 0.29453 0.6306 0.98359 0.0
C669 C 0.24842 0.62689 0.98626 0.0
C670 C 0.29525 0.62884 0.02958 0.0
C671 C 0.2729 0.62638 0.05384 0.0
H672 H 0.12815 0.45476 0.73476 0.0
H673 H 0.13044 0.48348 0.86722 0.0
H674 H 0.13476 0.52668 0.83939 0.0
H675 H 0.13255 0.55657 0.77768 0.0
H676 H 0.12954 0.52786 0.64524 0.0
H677 H 0.13122 0.48444 0.67286 0.0
C678 C 0.13001 0.47041 0.75758 0.0
C679 C 0.12862 0.46588 0.80303 0.0
C680 C 0.13217 0.49527 0.74135 0.0
C681 C 0.13132 0.48639 0.8321 0.0
C682 C 0.13367 0.51115 0.8162 0.0
C683 C 0.13271 0.54084 0.75478 0.0
C684 C 0.13058 0.54551 0.70946 0.0
C685 C 0.13331 0.51587 0.77091 0.0
C686 C 0.13104 0.52487 0.68028 0.0
C687 C 0.13187 0.49999 0.69607 0.0
H688 H 0.22717 0.36986 0.42697 0.0
H689 H 0.18876 0.36859 0.55192 0.0
H690 H 0.22926 0.37287 0.58989 0.0
H691 H 0.27582 0.3719 0.58787 0.0
H692 H 0.31433 0.37035 0.46302 0.0
H693 H 0.2737 0.37257 0.42488 0.0
C694 C 0.22763 0.37103 0.46247 0.0
C695 C 0.20499 0.36874 0.48656 0.0
C696 C 0.25109 0.37275 0.48419 0.0
C697 C 0.20593 0.37014 0.53258 0.0
C698 C 0.2291 0.37253 0.55435 0.0
C699 C 0.27535 0.37255 0.55233 0.0
C700 C 0.29808 0.37079 0.52836 0.0
C701 C 0.25186 0.37309 0.53056 0.0
C702 C 0.29711 0.37152 0.4823 0.0
C703 C 0.27386 0.37273 0.46042 0.0
H704 H 0.13787 0.17784 0.42126 0.0
H705 H 0.12833 0.17638 0.28069 0.0
H706 H 0.13817 0.22168 0.27709 0.0
H707 H 0.14451 0.26241 0.31493 0.0
H708 H 0.15218 0.2636 0.45596 0.0
H709 H 0.14813 0.21757 0.45814 0.0
C710 C 0.13823 0.18729 0.38967 0.0
C711 C 0.13201 0.17375 0.35134 0.0
C712 C 0.14332 0.21335 0.38798 0.0
C713 C 0.13294 0.18631 0.31072 0.0
C714 C 0.13842 0.21226 0.30869 0.0
C715 C 0.14567 0.25261 0.34613 0.0
C716 C 0.14832 0.26657 0.38531 0.0
C717 C 0.14287 0.22611 0.34727 0.0
C718 C 0.14991 0.25345 0.42535 0.0
C719 C 0.14756 0.22709 0.42665 0.0
H720 H 0.98232 0.89623 0.69141 0.0
H721 H 0.97975 0.90016 0.55007 0.0
H722 H 0.02546 0.8931 0.54652 0.0
H723 H 0.06575 0.88271 0.58337 0.0
H724 H 0.06757 0.87781 0.72472 0.0
H725 H 0.02271 0.88838 0.72821 0.0
C726 C 0.99174 0.89585 0.65979 0.0
C727 C 0.97749 0.89857 0.6211 0.0
C728 C 0.01797 0.89137 0.65789 0.0
C729 C 0.99015 0.89803 0.58045 0.0
C730 C 0.01633 0.89391 0.57834 0.0
C731 C 0.05639 0.88418 0.61494 0.0
C732 C 0.07005 0.87922 0.65364 0.0
C733 C 0.03037 0.89006 0.61682 0.0
C734 C 0.05756 0.88127 0.69429 0.0
C735 C 0.03184 0.88736 0.69641 0.0
H736 H 0.36437 0.82008 0.9233 0.0
H737 H 0.3709 0.82584 0.78258 0.0
H738 H 0.36079 0.78067 0.77554 0.0
H739 H 0.35449 0.73879 0.81019 0.0
H740 H 0.34936 0.73372 0.95135 0.0
H741 H 0.3545 0.77946 0.95722 0.0
C742 C 0.36334 0.81158 0.89095 0.0
C743 C 0.36871 0.82627 0.85353 0.0
C744 C 0.35801 0.78565 0.88726 0.0
C745 C 0.3669 0.81498 0.81192 0.0
C746 C 0.36128 0.78911 0.80792 0.0
C747 C 0.35418 0.74771 0.84222 0.0
C748 C 0.35185 0.73269 0.88031 0.0
C749 C 0.35747 0.77412 0.84548 0.0
C750 C 0.35137 0.74467 0.92149 0.0
C751 C 0.35432 0.77087 0.92493 0.0
H752 H 0.43951 0.1232 0.02563 0.0
H753 H 0.43269 0.09696 0.15922 0.0
H754 H 0.47699 0.08413 0.15924 0.0
H755 H 0.51879 0.08524 0.12501 0.0
H756 H 0.52667 0.11217 0.99209 0.0
H757 H 0.48095 0.11948 0.98797 0.0
C758 C 0.4476 0.11413 0.05431 0.0
C759 C 0.43289 0.11137 0.09252 0.0
C760 C 0.47341 0.1072 0.0545 0.0
C761 C 0.44367 0.09962 0.12952 0.0
C762 C 0.46905 0.0923 0.12966 0.0
C763 C 0.5105 0.0924 0.09491 0.0
C764 C 0.52621 0.0985 0.05921 0.0
C765 C 0.4843 0.09683 0.09292 0.0
C766 C 0.51505 0.10742 0.02022 0.0
C767 C 0.48889 0.11171 0.01787 0.0
H768 H 0.14419 0.72809 0.07962 0.0
H769 H 0.13868 0.72779 0.22086 0.0
H770 H 0.1331 0.77381 0.22085 0.0
H771 H 0.12689 0.81386 0.18015 0.0
H772 H 0.1318 0.81324 0.03877 0.0
H773 H 0.14063 0.76798 0.03964 0.0
C774 C 0.14195 0.73805 0.11051 0.0
C775 C 0.14164 0.72439 0.15012 0.0
C776 C 0.13852 0.76443 0.11027 0.0
C777 C 0.13891 0.73775 0.1898 0.0
C778 C 0.13566 0.7641 0.18984 0.0
C779 C 0.13018 0.80387 0.1496 0.0
C780 C 0.12843 0.81697 0.10947 0.0
C781 C 0.13501 0.7776 0.15019 0.0
C782 C 0.13276 0.80367 0.07016 0.0
C783 C 0.13783 0.77773 0.07056 0.0
H784 H 0.50919 0.90061 0.4333 0.0
H785 H 0.51713 0.8976 0.29237 0.0
H786 H 0.47142 0.89243 0.28473 0.0
H787 H 0.42997 0.8848 0.31797 0.0
H788 H 0.42175 0.88662 0.45881 0.0
H789 H 0.46682 0.89663 0.46642 0.0
C790 C 0.50093 0.89912 0.40085 0.0
C791 C 0.51671 0.89919 0.36349 0.0
C792 C 0.4746 0.89583 0.39665 0.0
C793 C 0.50556 0.89742 0.32173 0.0
C794 C 0.47939 0.89442 0.3173 0.0
C795 C 0.43791 0.88764 0.3504 0.0
C796 C 0.42251 0.88463 0.3878 0.0
C797 C 0.46384 0.89297 0.35455 0.0
C798 C 0.43314 0.88872 0.42946 0.0
C799 C 0.45895 0.89432 0.43384 0.0
H800 H 0.37567 0.18698 0.68432 0.0
H801 H 0.37572 0.18076 0.54307 0.0
H802 H 0.36431 0.22523 0.53646 0.0
H803 H 0.35806 0.26682 0.57006 0.0
H804 H 0.35809 0.2737 0.71111 0.0
H805 H 0.36536 0.22819 0.71829 0.0
C806 C 0.37283 0.19526 0.65215 0.0
C807 C 0.37692 0.18053 0.61434 0.0
C808 C 0.36643 0.2211 0.64838 0.0
C809 C 0.37303 0.19163 0.57286 0.0
C810 C 0.36649 0.21714 0.56892 0.0
C811 C 0.35938 0.25836 0.60241 0.0
C812 C 0.35783 0.27377 0.63988 0.0
C813 C 0.36377 0.2322 0.60638 0.0
C814 C 0.35933 0.26237 0.68157 0.0
C815 C 0.36358 0.2363 0.68577 0.0
H816 H 0.0638 0.11569 0.8312 0.0
H817 H 0.07306 0.12924 0.96987 0.0
H818 H 0.02867 0.11778 0.98236 0.0
H819 H 0.98609 0.10872 0.95247 0.0
H820 H 0.97723 0.09734 0.81311 0.0
H821 H 0.02267 0.10296 0.80248 0.0
C822 C 0.05627 0.11589 0.86432 0.0
C823 C 0.0717 0.12368 0.89945 0.0
C824 C 0.0307 0.10982 0.8711 0.0
C825 C 0.06161 0.12346 0.94215 0.0
C826 C 0.03618 0.11701 0.94929 0.0
C827 C 0.99419 0.107 0.91991 0.0
C828 C 0.97823 0.10287 0.88358 0.0
C829 C 0.02036 0.11086 0.91382 0.0
C830 C 0.98902 0.10076 0.84158 0.0
C831 C 0.01502 0.104 0.83543 0.0
H832 H 0.85635 0.73903 0.69277 0.0
H833 H 0.85165 0.73379 0.55163 0.0
H834 H 0.85471 0.7798 0.54587 0.0
H835 H 0.86285 0.82078 0.58004 0.0
H836 H 0.86955 0.82633 0.72083 0.0
H837 H 0.86102 0.78088 0.72755 0.0
C838 C 0.85568 0.74794 0.66074 0.0
C839 C 0.85407 0.73287 0.62264 0.0
C840 C 0.85786 0.77443 0.65758 0.0
C841 C 0.8531 0.74482 0.58147 0.0
C842 C 0.85486 0.77116 0.57813 0.0
C843 C 0.86216 0.81219 0.61235 0.0
C844 C 0.86717 0.82695 0.64987 0.0
C845 C 0.85789 0.78605 0.61586 0.0
C846 C 0.86587 0.81546 0.69139 0.0
C847 C 0.86114 0.78943 0.69523 0.0
H848 H 0.93114 0.11846 0.41152 0.0
H849 H 0.92976 0.1252 0.27039 0.0
H850 H 0.97461 0.11473 0.26683 0.0
H851 H 0.0149 0.10644 0.30357 0.0
H852 H 0.01714 0.10061 0.44472 0.0
H853 H 0.97142 0.10762 0.44826 0.0
C854 C 0.94061 0.1174 0.37999 0.0
C855 C 0.92707 0.12287 0.34138 0.0
C856 C 0.96666 0.11159 0.37807 0.0
C857 C 0.93969 0.12137 0.30076 0.0
C858 C 0.9654 0.11533 0.2986 0.0
C859 C 0.0054 0.10641 0.33513 0.0
C860 C 0.01956 0.10316 0.37377 0.0
C861 C 0.97917 0.11084 0.33704 0.0
C862 C 0.0068 0.10316 0.41436 0.0
C863 C 0.98062 0.10724 0.41647 0.0
H864 H 0.64349 0.25842 0.16502 0.0
H865 H 0.64375 0.27224 0.02539 0.0
H866 H 0.63956 0.22689 0.01162 0.0
H867 H 0.63278 0.18394 0.0389 0.0
H868 H 0.63081 0.16981 0.17835 0.0
H869 H 0.63907 0.21473 0.19242 0.0
C870 C 0.64289 0.25152 0.13154 0.0
C871 C 0.64375 0.26881 0.09629 0.0
C872 C 0.6401 0.2254 0.12381 0.0
C873 C 0.64295 0.25945 0.05316 0.0
C874 C 0.64055 0.2335 0.04523 0.0
C875 C 0.63437 0.19055 0.07246 0.0
C876 C 0.63096 0.17348 0.10753 0.0
C877 C 0.63863 0.21639 0.08028 0.0
C878 C 0.63327 0.18249 0.15072 0.0
C879 C 0.6379 0.2082 0.15879 0.0
H880 H 0.56754 0.88873 0.82666 0.0
H881 H 0.57332 0.87744 0.96647 0.0
H882 H 0.52809 0.88705 0.97458 0.0
H883 H 0.48618 0.89434 0.94068 0.0
H884 H 0.48112 0.90437 0.80032 0.0
H885 H 0.52687 0.89959 0.79387 0.0
C886 C 0.55903 0.88861 0.85906 0.0
C887 C 0.57374 0.88204 0.89585 0.0
C888 C 0.53307 0.89369 0.86333 0.0
C889 C 0.56243 0.88237 0.93759 0.0
C890 C 0.53653 0.88771 0.94219 0.0
C891 C 0.49511 0.89578 0.90874 0.0
C892 C 0.4801 0.89939 0.87098 0.0
C893 C 0.52153 0.89272 0.9051 0.0
C894 C 0.49207 0.90136 0.82991 0.0
C895 C 0.51828 0.89862 0.82613 0.0
H896 H 0.85979 0.27285 0.93065 0.0
H897 H 0.85791 0.27543 0.7892 0.0
H898 H 0.86375 0.22951 0.78607 0.0
H899 H 0.87235 0.1889 0.82356 0.0
H900 H 0.8757 0.18724 0.96499 0.0
H901 H 0.86618 0.23238 0.96791 0.0
C902 C 0.8604 0.2634 0.89908 0.0
C903 C 0.85856 0.27767 0.86026 0.0
C904 C 0.86417 0.23707 0.89747 0.0
C905 C 0.85939 0.26499 0.81968 0.0
C906 C 0.86277 0.23869 0.81782 0.0
C907 C 0.87069 0.19838 0.85499 0.0
C908 C 0.87491 0.18471 0.89395 0.0
C909 C 0.86562 0.22458 0.85651 0.0
C910 C 0.87279 0.19731 0.93444 0.0
C911 C 0.86733 0.22316 0.9362 0.0
H912 H 0.57686 0.11612 0.57464 0.0
H913 H 0.578 0.13589 0.71205 0.0
H914 H 0.53302 0.12625 0.71805 0.0
H915 H 0.49254 0.11557 0.68327 0.0
H916 H 0.49104 0.09627 0.54571 0.0
H917 H 0.53681 0.10207 0.54115 0.0
C918 C 0.56735 0.11805 0.606 0.0
C919 C 0.58084 0.12701 0.64264 0.0
C920 C 0.54128 0.11267 0.60929 0.0
C921 C 0.56814 0.12926 0.6831 0.0
C922 C 0.54234 0.12376 0.68665 0.0
C923 C 0.50223 0.11232 0.6524 0.0
C924 C 0.48823 0.10574 0.61487 0.0
C925 C 0.52859 0.11597 0.64978 0.0
C926 C 0.50123 0.1015 0.57518 0.0
C927 C 0.52746 0.10488 0.57244 0.0
H928 H 0.64724 0.73778 0.32581 0.0
H929 H 0.64475 0.7337 0.46725 0.0
H930 H 0.63856 0.77943 0.47122 0.0
H931 H 0.62961 0.81966 0.43474 0.0
H932 H 0.63084 0.8241 0.29342 0.0
H933 H 0.64219 0.77914 0.28931 0.0
C934 C 0.64568 0.7469 0.35756 0.0
C935 C 0.64614 0.73218 0.39617 0.0
C936 C 0.64176 0.77325 0.35965 0.0
C937 C 0.64426 0.74444 0.43699 0.0
C938 C 0.64067 0.77062 0.43931 0.0
C939 C 0.6326 0.81091 0.40296 0.0
C940 C 0.62902 0.82517 0.36441 0.0
C941 C 0.63871 0.78507 0.40086 0.0
C942 C 0.63338 0.81357 0.3236 0.0
C943 C 0.63974 0.78783 0.32124 0.0
H944 H 0.93725 0.88065 0.05403 0.0
H945 H 0.93421 0.88715 0.19511 0.0
H946 H 0.97884 0.8986 0.19704 0.0
H947 H 0.01971 0.90198 0.16003 0.0
H948 H 0.02374 0.89484 0.01925 0.0
H949 H 0.97781 0.88885 0.01588 0.0
C950 C 0.94625 0.88504 0.08507 0.0
C951 C 0.93245 0.88264 0.12438 0.0
C952 C 0.9722 0.89128 0.08612 0.0
C953 C 0.94442 0.88847 0.16436 0.0
C954 C 0.96999 0.89502 0.16557 0.0
C955 C 0.01054 0.89944 0.12851 0.0
C956 C 0.02521 0.89849 0.09007 0.0
C957 C 0.98424 0.89569 0.12685 0.0
C958 C 0.01293 0.89553 0.04944 0.0
C959 C 0.98665 0.89199 0.04748 0.0
H960 H 0.63752 0.7664 0.80513 0.0
H961 H 0.66242 0.77114 0.93982 0.0
H962 H 0.65879 0.72534 0.9472 0.0
H963 H 0.64416 0.68486 0.91851 0.0
H964 H 0.61739 0.67947 0.78517 0.0
H965 H 0.62675 0.72451 0.77387 0.0
C966 C 0.64252 0.75738 0.83589 0.0
C967 C 0.64989 0.77231 0.87206 0.0
C968 C 0.63999 0.73092 0.84022 0.0
C969 C 0.65639 0.76023 0.91161 0.0
C970 C 0.65433 0.734 0.91589 0.0
C971 C 0.64067 0.69339 0.8867 0.0
C972 C 0.62974 0.67888 0.85292 0.0
C973 C 0.64546 0.71929 0.88087 0.0
C974 C 0.62573 0.69019 0.81177 0.0
C975 C 0.6309 0.716 0.80542 0.0
H976 H 0.48588 0.40008 0.17177 0.0
H977 H 0.47603 0.39412 0.03164 0.0
H978 H 0.52164 0.38832 0.02227 0.0
H979 H 0.56376 0.38011 0.05474 0.0
H980 H 0.57269 0.38458 0.19521 0.0
H981 H 0.52821 0.39605 0.20336 0.0
C982 C 0.49369 0.39785 0.13909 0.0
C983 C 0.47743 0.39721 0.1026 0.0
C984 C 0.51987 0.39408 0.13394 0.0
C985 C 0.48802 0.39452 0.06045 0.0
C986 C 0.51415 0.39112 0.05501 0.0
C987 C 0.55606 0.38409 0.087 0.0
C988 C 0.57146 0.38121 0.12431 0.0
C989 C 0.53019 0.39016 0.09164 0.0
C990 C 0.56118 0.38636 0.16595 0.0
C991 C 0.53571 0.39291 0.1707 0.0
H992 H 0.84595 0.22921 0.41055 0.0
H993 H 0.84321 0.23022 0.26913 0.0
H994 H 0.849 0.27618 0.26934 0.0
H995 H 0.85959 0.31538 0.30955 0.0
H996 H 0.8629 0.3136 0.45104 0.0
H997 H 0.85194 0.26881 0.45076 0.0
C998 C 0.84629 0.23948 0.37974 0.0
C999 C 0.84449 0.22618 0.3399 0.0
C1000 C 0.84994 0.26584 0.38005 0.0
C1001 C 0.84465 0.23991 0.30033 0.0
C1002 C 0.84808 0.26622 0.30039 0.0
C1003 C 0.8575 0.3053 0.34034 0.0
C1004 C 0.86245 0.31785 0.38019 0.0
C1005 C 0.85147 0.2793 0.34003 0.0
C1006 C 0.85953 0.30444 0.41979 0.0
C1007 C 0.85327 0.27876 0.41974 0.0
H1008 H 0.94059 0.62757 0.68867 0.0
H1009 H 0.93135 0.61807 0.54894 0.0
H1010 H 0.97627 0.60733 0.54196 0.0
H1011 H 0.01875 0.60425 0.57464 0.0
H1012 H 0.02787 0.61492 0.71418 0.0
H1013 H 0.9823 0.62141 0.72201 0.0
C1014 C 0.94828 0.62293 0.65666 0.0
C1015 C 0.9326 0.62391 0.61931 0.0
C1016 C 0.97415 0.61711 0.65279 0.0
C1017 C 0.94295 0.61758 0.57823 0.0
C1018 C 0.96867 0.61151 0.57419 0.0
C1019 C 0.01078 0.60771 0.60688 0.0
C1020 C 0.02683 0.60933 0.64371 0.0
C1021 C 0.98455 0.61177 0.61111 0.0
C1022 C 0.01606 0.61372 0.68521 0.0
C1023 C 0.98998 0.61748 0.68973 0.0
H1024 H 0.65487 0.24145 0.68715 0.0
H1025 H 0.66085 0.23168 0.54692 0.0
H1026 H 0.65455 0.27707 0.53624 0.0
H1027 H 0.64323 0.3184 0.56579 0.0
H1028 H 0.63467 0.32848 0.70553 0.0
H1029 H 0.64657 0.28409 0.71735 0.0
C1030 C 0.6552 0.24931 0.65429 0.0
C1031 C 0.65813 0.23313 0.61783 0.0
C1032 C 0.65096 0.27542 0.64828 0.0
C1033 C 0.65843 0.24364 0.5755 0.0
C1034 C 0.65481 0.2696 0.56935 0.0
C1035 C 0.64419 0.31107 0.59899 0.0
C1036 C 0.63775 0.32674 0.63471 0.0
C1037 C 0.65039 0.2855 0.6054 0.0
C1038 C 0.63943 0.31686 0.67742 0.0
C1039 C 0.64611 0.29144 0.68416 0.0
H1040 H 0.01454 0.40176 0.94558 0.0
H1041 H 0.02375 0.40717 0.80511 0.0
H1042 H 0.97813 0.40271 0.79531 0.0
H1043 H 0.9364 0.39339 0.82573 0.0
H1044 H 0.92677 0.38626 0.96579 0.0
H1045 H 0.97176 0.39576 0.97659 0.0
C1046 C 0.00656 0.40229 0.91283 0.0
C1047 C 0.02268 0.40453 0.87611 0.0
C1048 C 0.98025 0.39932 0.90731 0.0
C1049 C 0.01192 0.40525 0.83396 0.0
C1050 C 0.98579 0.40268 0.82828 0.0
C1051 C 0.944 0.39418 0.85875 0.0
C1052 C 0.92823 0.38882 0.89488 0.0
C1053 C 0.96989 0.3991 0.86462 0.0
C1054 C 0.93844 0.39023 0.93737 0.0
C1055 C 0.96422 0.39552 0.94355 0.0
H1056 H 0.86225 0.76281 0.19081 0.0
H1057 H 0.85436 0.76918 0.05024 0.0
H1058 H 0.85778 0.72326 0.04313 0.0
H1059 H 0.86648 0.68199 0.07574 0.0
H1060 H 0.87631 0.6752 0.21582 0.0
H1061 H 0.86818 0.72065 0.22418 0.0
C1062 C 0.86099 0.75416 0.15864 0.0
C1063 C 0.85828 0.76953 0.12106 0.0
C1064 C 0.86337 0.7277 0.15466 0.0
C1065 C 0.85665 0.75791 0.07968 0.0
C1066 C 0.85859 0.73163 0.07556 0.0
C1067 C 0.8666 0.6903 0.10827 0.0
C1068 C 0.87226 0.67516 0.14508 0.0
C1069 C 0.8625 0.71643 0.1127 0.0
C1070 C 0.87209 0.68635 0.1869 0.0
C1071 C 0.86756 0.71239 0.19167 0.0
H1072 H 0.56484 0.62296 0.32981 0.0
H1073 H 0.56865 0.62092 0.47119 0.0
H1074 H 0.52331 0.6114 0.4747 0.0
H1075 H 0.48204 0.60763 0.43779 0.0
H1076 H 0.47846 0.61072 0.29636 0.0
H1077 H 0.52438 0.61574 0.29284 0.0
C1078 C 0.55587 0.62019 0.36147 0.0
C1079 C 0.57012 0.62296 0.40022 0.0
C1080 C 0.52979 0.6151 0.36325 0.0
C1081 C 0.55817 0.61899 0.44086 0.0
C1082 C 0.5322 0.61366 0.44288 0.0
C1083 C 0.49129 0.60913 0.40613 0.0
C1084 C 0.4767 0.60909 0.3674 0.0
C1085 C 0.51772 0.61229 0.40431 0.0
C1086 C 0.48912 0.61086 0.32671 0.0
C1087 C 0.51541 0.61377 0.32465 0.0
H1088 H 0.36043 0.31596 0.08259 0.0
H1089 H 0.38261 0.31796 0.21874 0.0
H1090 H 0.37648 0.27196 0.22386 0.0
H1091 H 0.36935 0.23075 0.18703 0.0
H1092 H 0.34929 0.22972 0.04969 0.0
H1093 H 0.35022 0.27584 0.04775 0.0
C1094 C 0.36367 0.30647 0.11366 0.0
C1095 C 0.37228 0.32039 0.15011 0.0
C1096 C 0.36082 0.28011 0.11595 0.0
C1097 C 0.376 0.30774 0.19016 0.0
C1098 C 0.37269 0.2814 0.19298 0.0
C1099 C 0.3649 0.24062 0.15681 0.0
C1100 C 0.35956 0.22669 0.1184 0.0
C1101 C 0.36583 0.2673 0.15569 0.0
C1102 C 0.35377 0.23985 0.07959 0.0
C1103 C 0.35424 0.26627 0.07844 0.0
H1104 H 0.43257 0.62696 0.95058 0.0
H1105 H 0.42362 0.60929 0.81326 0.0
H1106 H 0.46835 0.5983 0.80793 0.0
H1107 H 0.51086 0.59836 0.8398 0.0
H1108 H 0.52052 0.61706 0.97659 0.0
H1109 H 0.47483 0.62269 0.98454 0.0
C1110 C 0.44032 0.62018 0.91978 0.0
C1111 C 0.42482 0.61924 0.88231 0.0
C1112 C 0.46632 0.61437 0.9166 0.0
C1113 C 0.43518 0.61048 0.84255 0.0
C1114 C 0.4608 0.60423 0.83938 0.0
C1115 C 0.50299 0.60337 0.87151 0.0
C1116 C 0.51922 0.60762 0.9073 0.0
C1117 C 0.47671 0.60689 0.87581 0.0
C1118 C 0.50856 0.61384 0.94828 0.0
C1119 C 0.48238 0.61713 0.9529 0.0
H1120 H 0.14158 0.68662 0.69565 0.0
H1121 H 0.13498 0.6849 0.55452 0.0
H1122 H 0.14442 0.72997 0.55085 0.0
H1123 H 0.1501 0.77068 0.58773 0.0
H1124 H 0.15611 0.77318 0.7288 0.0
H1125 H 0.15172 0.72711 0.73227 0.0
C1126 C 0.14264 0.69602 0.66407 0.0
C1127 C 0.13721 0.68239 0.62553 0.0
C1128 C 0.14777 0.7222 0.6621 0.0
C1129 C 0.13874 0.69491 0.58483 0.0
C1130 C 0.14413 0.72076 0.58262 0.0
C1131 C 0.15076 0.76116 0.61924 0.0
C1132 C 0.15309 0.77546 0.65793 0.0
C1133 C 0.14793 0.73472 0.62108 0.0
C1134 C 0.1542 0.7627 0.69843 0.0
C1135 C 0.15159 0.73633 0.7005 0.0
H1136 H 0.063 0.37662 0.33357 0.0
H1137 H 0.06879 0.37479 0.47475 0.0
H1138 H 0.02345 0.38431 0.48082 0.0
H1139 H 0.98163 0.38931 0.44572 0.0
H1140 H 0.97636 0.38955 0.30433 0.0
H1141 H 0.02219 0.38449 0.29881 0.0
C1142 C 0.05448 0.3785 0.3658 0.0
C1143 C 0.06927 0.37469 0.40368 0.0
C1144 C 0.02845 0.38348 0.36898 0.0
C1145 C 0.05788 0.37755 0.44506 0.0
C1146 C 0.03192 0.38287 0.44852 0.0
C1147 C 0.9905 0.38852 0.41366 0.0
C1148 C 0.97546 0.38956 0.37547 0.0
C1149 C 0.01692 0.38527 0.41067 0.0
C1150 C 0.98737 0.3886 0.33426 0.0
C1151 C 0.0136 0.3857 0.33105 0.0
H1152 H 0.35917 0.68759 0.42374 0.0
H1153 H 0.36468 0.68125 0.28295 0.0
H1154 H 0.35384 0.7262 0.27545 0.0
H1155 H 0.34779 0.76813 0.30951 0.0
H1156 H 0.3437 0.77409 0.45065 0.0
H1157 H 0.34889 0.72834 0.45724 0.0
C1158 C 0.35772 0.69591 0.3913 0.0
C1159 C 0.3631 0.68114 0.35397 0.0
C1160 C 0.35197 0.72176 0.38733 0.0
C1161 C 0.36071 0.69218 0.31223 0.0
C1162 C 0.35467 0.71793 0.30796 0.0
C1163 C 0.34767 0.75942 0.34172 0.0
C1164 C 0.34572 0.77467 0.37957 0.0
C1165 C 0.35103 0.73306 0.34537 0.0
C1166 C 0.34541 0.76294 0.42097 0.0
C1167 C 0.34842 0.73674 0.4248 0.0
H1168 H 0.98604 0.58867 0.17121 0.0
H1169 H 0.9785 0.6088 0.03464 0.0
H1170 H 0.02432 0.61447 0.02901 0.0
H1171 H 0.06597 0.61853 0.06521 0.0
H1172 H 0.07279 0.59909 0.20224 0.0
H1173 H 0.02803 0.58806 0.20501 0.0
C1174 C 0.99441 0.594 0.14004 0.0
C1175 C 0.97875 0.59866 0.10365 0.0
C1176 C 0.02074 0.5975 0.1371 0.0
C1177 C 0.99003 0.60523 0.06336 0.0
C1178 C 0.01627 0.60857 0.06009 0.0
C1179 C 0.05777 0.61137 0.09539 0.0
C1180 C 0.07267 0.60999 0.13355 0.0
C1181 C 0.03176 0.60544 0.09707 0.0
C1182 C 0.06171 0.60066 0.17245 0.0
C1183 C 0.03607 0.59437 0.17416 0.0
H1184 H 0.1518 0.2428 0.9259 0.0
H1185 H 0.13893 0.23468 0.78682 0.0
H1186 H 0.13436 0.28049 0.77948 0.0
H1187 H 0.12944 0.32257 0.81391 0.0
H1188 H 0.1414 0.33006 0.9533 0.0
H1189 H 0.15121 0.28509 0.95884 0.0
C1190 C 0.14829 0.25103 0.89387 0.0
C1191 C 0.14538 0.23519 0.85717 0.0
C1192 C 0.1454 0.27742 0.88985 0.0
C1193 C 0.14107 0.24632 0.81583 0.0
C1194 C 0.13841 0.27258 0.81153 0.0
C1195 C 0.13473 0.31444 0.84527 0.0
C1196 C 0.13439 0.32962 0.88314 0.0
C1197 C 0.13989 0.28829 0.8485 0.0
C1198 C 0.14121 0.31876 0.92364 0.0
C1199 C 0.14679 0.29299 0.92693 0.0
H1200 H 0.4371 0.37667 0.55346 0.0
H1201 H 0.43126 0.39405 0.69147 0.0
H1202 H 0.4763 0.40393 0.69404 0.0
H1203 H 0.51804 0.40389 0.65912 0.0
H1204 H 0.52453 0.38587 0.52149 0.0
H1205 H 0.47867 0.38023 0.51684 0.0
C1206 C 0.4456 0.38305 0.58389 0.0
C1207 C 0.43081 0.38435 0.62227 0.0
C1208 C 0.47174 0.38835 0.58542 0.0
C1209 C 0.44218 0.39263 0.66147 0.0
C1210 C 0.468 0.39825 0.66306 0.0
C1211 C 0.50945 0.39893 0.62797 0.0
C1212 C 0.52482 0.39502 0.59089 0.0
C1213 C 0.48309 0.39552 0.62555 0.0
C1214 C 0.51323 0.38887 0.5507 0.0
C1215 C 0.48696 0.38559 0.54798 0.0
H1216 H 0.10037 0.14795 0.54519 0.0
H1217 H 0.13503 0.07386 0.54719 0.0
H1218 H 0.14675 0.08005 0.62457 0.0
H1219 H 0.14537 0.10653 0.69263 0.0
H1220 H 0.10975 0.18023 0.68672 0.0
H1221 H 0.10047 0.17425 0.60956 0.0
C1222 C 0.11043 0.133 0.56237 0.0
C1223 C 0.11652 0.11034 0.54066 0.0
C1224 C 0.11706 0.13673 0.60616 0.0
C1225 C 0.12995 0.09143 0.56336 0.0
C1226 C 0.13668 0.095 0.60751 0.0
C1227 C 0.13587 0.1213 0.67414 0.0
C1228 C 0.12808 0.14371 0.69538 0.0
C1229 C 0.13015 0.11758 0.6294 0.0
C1230 C 0.11568 0.16271 0.67124 0.0
C1231 C 0.11034 0.15933 0.6271 0.0
H1232 H 0.18596 0.86672 0.83321 0.0
H1233 H 0.13823 0.92241 0.77127 0.0
H1234 H 0.12753 0.94049 0.84275 0.0
H1235 H 0.12355 0.93273 0.92247 0.0
H1236 H 0.1722 0.87777 0.98424 0.0
H1237 H 0.19142 0.86748 0.91351 0.0
C1238 C 0.17431 0.88364 0.83541 0.0
C1239 C 0.16279 0.89325 0.79744 0.0
C1240 C 0.1681 0.89373 0.87665 0.0
C1241 C 0.14748 0.91496 0.80027 0.0
C1242 C 0.14108 0.92505 0.84118 0.0
C1243 C 0.13928 0.91951 0.92056 0.0
C1244 C 0.14654 0.90596 0.95811 0.0
C1245 C 0.15006 0.91356 0.87965 0.0
C1246 C 0.16662 0.88857 0.95558 0.0
C1247 C 0.17736 0.88245 0.91508 0.0
H1248 H 0.39289 0.85046 0.04732 0.0
H1249 H 0.36621 0.92776 0.04854 0.0
H1250 H 0.3514 0.9223 0.1245 0.0
H1251 H 0.34857 0.89569 0.19211 0.0
H1252 H 0.376 0.81857 0.18746 0.0
H1253 H 0.38761 0.82372 0.1109 0.0
C1254 C 0.38391 0.86623 0.06411 0.0
C1255 C 0.38107 0.88962 0.04271 0.0
C1256 C 0.3754 0.86287 0.10708 0.0
C1257 C 0.36882 0.90963 0.06459 0.0
C1258 C 0.36034 0.90648 0.10792 0.0
C1259 C 0.35665 0.87997 0.17394 0.0
C1260 C 0.36158 0.85683 0.19541 0.0
C1261 C 0.36379 0.8832 0.12971 0.0
C1262 C 0.37222 0.83661 0.17174 0.0
C1263 C 0.37894 0.83954 0.12799 0.0
H1264 H 0.42854 0.1229 0.42515 0.0
H1265 H 0.35841 0.08367 0.45106 0.0
H1266 H 0.34492 0.09091 0.37486 0.0
H1267 H 0.35215 0.11177 0.3023 0.0
H1268 H 0.42218 0.15271 0.28168 0.0
H1269 H 0.43634 0.14172 0.3546 0.0
C1270 C 0.41034 0.11569 0.41418 0.0
C1271 C 0.39441 0.10297 0.44369 0.0
C1272 C 0.4025 0.12064 0.37137 0.0
C1273 C 0.37107 0.09346 0.42879 0.0
C1274 C 0.36327 0.09783 0.3854 0.0
C1275 C 0.37045 0.11825 0.31393 0.0
C1276 C 0.38589 0.13332 0.28662 0.0
C1277 C 0.37861 0.112 0.35664 0.0
C1278 C 0.40968 0.1414 0.302 0.0
C1279 C 0.41795 0.13502 0.34372 0.0
H1280 H 0.85107 0.8931 0.30498 0.0
H1281 H 0.87291 0.81458 0.31832 0.0
H1282 H 0.88071 0.82067 0.39618 0.0
H1283 H 0.88537 0.8487 0.45831 0.0
H1284 H 0.86486 0.92762 0.44796 0.0
H1285 H 0.85239 0.92107 0.37103 0.0
C1286 C 0.85697 0.87729 0.32531 0.0
C1287 C 0.86154 0.85345 0.30607 0.0
C1288 C 0.86208 0.8811 0.37022 0.0
C1289 C 0.86943 0.83312 0.33246 0.0
C1290 C 0.87399 0.83659 0.37691 0.0
C1291 C 0.87815 0.86455 0.43933 0.0
C1292 C 0.87651 0.88871 0.45839 0.0
C1293 C 0.87113 0.86061 0.39573 0.0
C1294 C 0.86651 0.90887 0.43374 0.0
C1295 C 0.85941 0.90511 0.38984 0.0
H1296 H 0.88726 0.07086 0.07462 0.0
H1297 H 0.83411 0.11813 0.00532 0.0
H1298 H 0.81296 0.12892 0.07421 0.0
H1299 H 0.81652 0.13239 0.15488 0.0
H1300 H 0.86801 0.08324 0.22398 0.0
H1301 H 0.88252 0.06505 0.15465 0.0
C1302 C 0.87029 0.08251 0.07457 0.0
C1303 C 0.86221 0.09379 0.03533 0.0
C1304 C 0.85821 0.08855 0.11432 0.0
C1305 C 0.84041 0.10907 0.0353 0.0
C1306 C 0.82852 0.11549 0.07474 0.0
C1307 C 0.82995 0.1168 0.15468 0.0
C1308 C 0.84125 0.10909 0.19413 0.0
C1309 C 0.83817 0.10643 0.11463 0.0
C1310 C 0.85889 0.08916 0.19383 0.0
C1311 C 0.86743 0.07901 0.15417 0.0
H1312 H 0.66153 0.09677 0.77334 0.0
H1313 H 0.69311 0.16843 0.81325 0.0
H1314 H 0.68814 0.15676 0.89027 0.0
H1315 H 0.6652 0.13117 0.94401 0.0
H1316 H 0.62919 0.06166 0.90456 0.0
H1317 H 0.64564 0.06701 0.82975 0.0
C1318 C 0.66842 0.10919 0.79906 0.0
C1319 C 0.67778 0.13332 0.78807 0.0
C1320 C 0.66405 0.10292 0.84326 0.0
C1321 C 0.68607 0.14969 0.8213 0.0
C1322 C 0.68294 0.14313 0.86524 0.0
C1323 C 0.66191 0.11672 0.91932 0.0
C1324 C 0.64618 0.09609 0.92925 0.0
C1325 C 0.67053 0.12054 0.8764 0.0
C1326 C 0.64154 0.07754 0.89737 0.0
C1327 C 0.65072 0.08077 0.8546 0.0
H1328 H 0.63789 0.90221 0.55192 0.0
H1329 H 0.56054 0.87604 0.56152 0.0
H1330 H 0.56675 0.86554 0.63838 0.0
H1331 H 0.5946 0.86044 0.70068 0.0
H1332 H 0.67224 0.88572 0.69415 0.0
H1333 H 0.66557 0.89993 0.61817 0.0
C1334 C 0.62234 0.89471 0.57124 0.0
C1335 C 0.59882 0.88977 0.55112 0.0
C1336 C 0.62621 0.88815 0.61556 0.0
C1337 C 0.57884 0.87984 0.57625 0.0
C1338 C 0.58239 0.87374 0.62014 0.0
C1339 C 0.61016 0.86902 0.68272 0.0
C1340 C 0.63401 0.87159 0.70262 0.0
C1341 C 0.60612 0.87715 0.6397 0.0
C1342 C 0.65376 0.88332 0.67927 0.0
C1343 C 0.64991 0.89145 0.63593 0.0
H1344 H 0.63861 0.60084 0.07473 0.0
H1345 H 0.59901 0.67171 0.05467 0.0
H1346 H 0.60843 0.68459 0.12901 0.0
H1347 H 0.62516 0.67519 0.20076 0.0
H1348 H 0.66386 0.60456 0.2251 0.0
H1349 H 0.65809 0.59239 0.1479 0.0
C1350 C 0.63218 0.6191 0.0867 0.0
C1351 C 0.61783 0.63509 0.05923 0.0
C1352 C 0.63756 0.62652 0.13016 0.0
C1353 C 0.60979 0.65882 0.0751 0.0
C1354 C 0.61524 0.66632 0.11767 0.0
C1355 C 0.63256 0.65718 0.18922 0.0
C1356 C 0.64467 0.64069 0.21858 0.0
C1357 C 0.6287 0.65021 0.14558 0.0
C1358 C 0.65447 0.6176 0.20298 0.0
C1359 C 0.65099 0.61058 0.15898 0.0
H1360 H 0.6322 0.34499 0.443 0.0
H1361 H 0.63633 0.42596 0.42544 0.0
H1362 H 0.65014 0.41983 0.34906 0.0
H1363 H 0.65531 0.39095 0.28496 0.0
H1364 H 0.64915 0.3102 0.30469 0.0
H1365 H 0.64248 0.31663 0.38296 0.0
C1366 C 0.63633 0.36133 0.42256 0.0
C1367 C 0.63275 0.38587 0.43923 0.0
C1368 C 0.64402 0.35761 0.3792 0.0
C1369 C 0.63876 0.40688 0.41297 0.0
C1370 C 0.64659 0.40335 0.36938 0.0
C1371 C 0.65333 0.37484 0.3068 0.0
C1372 C 0.65266 0.35014 0.28938 0.0
C1373 C 0.64856 0.37876 0.35176 0.0
C1374 C 0.64969 0.32934 0.3176 0.0
C1375 C 0.6457 0.33301 0.36222 0.0
H1376 H 0.89726 0.39411 0.70753 0.0
H1377 H 0.81735 0.37918 0.69469 0.0
H1378 H 0.81931 0.39035 0.61639 0.0
H1379 H 0.84582 0.39731 0.54973 0.0
H1380 H 0.92608 0.40995 0.56474 0.0
H1381 H 0.92197 0.40748 0.64428 0.0
C1382 C 0.88017 0.39382 0.68769 0.0
C1383 C 0.85731 0.38551 0.70621 0.0
C1384 C 0.88161 0.39988 0.64315 0.0
C1385 C 0.83516 0.38549 0.68077 0.0
C1386 C 0.83636 0.39173 0.63606 0.0
C1387 C 0.86211 0.40046 0.57071 0.0
C1388 C 0.88621 0.40389 0.55187 0.0
C1389 C 0.85972 0.398 0.61654 0.0
C1390 C 0.90739 0.40742 0.5789 0.0
C1391 C 0.90508 0.40579 0.62425 0.0
H1392 H 0.87303 0.65123 0.95694 0.0
H1393 H 0.86742 0.57028 0.94094 0.0
H1394 H 0.85516 0.57615 0.86368 0.0
H1395 H 0.85168 0.60476 0.79864 0.0
H1396 H 0.85936 0.68548 0.81737 0.0
H1397 H 0.8647 0.67936 0.89591 0.0
C1398 C 0.86888 0.63484 0.93664 0.0
C1399 C 0.87158 0.61038 0.95401 0.0
C1400 C 0.8622 0.63841 0.8928 0.0
C1401 C 0.86559 0.5893 0.92792 0.0
C1402 C 0.8587 0.59269 0.88383 0.0
C1403 C 0.85382 0.62093 0.82028 0.0
C1404 C 0.8553 0.64552 0.80252 0.0
C1405 C 0.85769 0.61719 0.86555 0.0
C1406 C 0.85834 0.6664 0.8305 0.0
C1407 C 0.86149 0.66292 0.87531 0.0
H1408 H 0.35263 0.33535 0.81958 0.0
H1409 H 0.34157 0.41371 0.78498 0.0
H1410 H 0.34702 0.4261 0.86222 0.0
H1411 H 0.36169 0.41454 0.93766 0.0
H1412 H 0.37469 0.3356 0.96785 0.0
H1413 H 0.36158 0.32348 0.89457 0.0
C1414 C 0.35082 0.3551 0.82918 0.0
C1415 C 0.34698 0.37363 0.79702 0.0
C1416 C 0.35476 0.36196 0.87283 0.0
C1417 C 0.34441 0.39913 0.80951 0.0
C1418 C 0.34784 0.40619 0.85352 0.0
C1419 C 0.36119 0.39474 0.92818 0.0
C1420 C 0.36966 0.37602 0.95766 0.0
C1421 C 0.35408 0.38782 0.88522 0.0
C1422 C 0.36882 0.35038 0.94532 0.0
C1423 C 0.36123 0.34338 0.9035 0.0
H1424 H 0.39576 0.65638 0.69607 0.0
H1425 H 0.32256 0.61995 0.69707 0.0
H1426 H 0.32887 0.60665 0.62051 0.0
H1427 H 0.3553 0.60669 0.5525 0.0
H1428 H 0.42847 0.64343 0.55543 0.0
H1429 H 0.42217 0.65492 0.63168 0.0
C1430 C 0.38101 0.64564 0.67968 0.0
C1431 C 0.35857 0.63946 0.70203 0.0
C1432 C 0.38492 0.63789 0.63645 0.0
C1433 C 0.33993 0.62514 0.68038 0.0
C1434 C 0.34359 0.61747 0.63672 0.0
C1435 C 0.36994 0.61687 0.57017 0.0
C1436 C 0.39228 0.6243 0.54831 0.0
C1437 C 0.36605 0.62381 0.61433 0.0
C1438 C 0.41105 0.63765 0.57139 0.0
C1439 C 0.40746 0.6443 0.615 0.0
H1440 H 0.15517 0.60285 0.46619 0.0
H1441 H 0.07565 0.5883 0.44548 0.0
H1442 H 0.08125 0.59285 0.36648 0.0
H1443 H 0.10677 0.60841 0.30576 0.0
H1444 H 0.18588 0.62534 0.32438 0.0
H1445 H 0.18272 0.61231 0.40176 0.0
C1446 C 0.13939 0.59974 0.44404 0.0
C1447 C 0.11505 0.59517 0.4612 0.0
C1448 C 0.1426 0.60345 0.39861 0.0
C1449 C 0.09453 0.59169 0.43265 0.0
C1450 C 0.09768 0.59452 0.38763 0.0
C1451 C 0.12343 0.60878 0.32666 0.0
C1452 C 0.14638 0.61815 0.31009 0.0
C1453 C 0.1213 0.6016 0.37061 0.0
C1454 C 0.168 0.61825 0.33683 0.0
C1455 C 0.16612 0.61092 0.38098 0.0
H1456 H 0.14712 0.39195 0.2091 0.0
H1457 H 0.10708 0.32061 0.20125 0.0
H1458 H 0.09437 0.32999 0.12666 0.0
H1459 H 0.09329 0.35826 0.06481 0.0
H1460 H 0.1337 0.42933 0.06797 0.0
H1461 H 0.14737 0.42038 0.14355 0.0
C1462 C 0.13591 0.37839 0.19074 0.0
C1463 C 0.12798 0.35566 0.21082 0.0
C1464 C 0.1284 0.38397 0.14741 0.0
C1465 C 0.11334 0.3383 0.18676 0.0
C1466 C 0.10596 0.34365 0.14408 0.0
C1467 C 0.10494 0.37201 0.08193 0.0
C1468 C 0.11219 0.39459 0.061 0.0
C1469 C 0.11306 0.36651 0.12441 0.0
C1470 C 0.12766 0.4119 0.08358 0.0
C1471 C 0.13557 0.40671 0.12665 0.0
loop_
_geom_bond_atom_site_label_1
_geom_bond_atom_site_label_2
_geom_bond_distance
_geom_bond_site_symmetry_2
_ccdc_geom_bond_type
O0 Cd1 2.223 . S
O0 C8 1.315 . S
Cd1 O0 2.223 . S
Cd1 O4 2.297 . S
Cd1 O5 2.439 . S
Cd1 O11 2.240 . S
Cd2 O3 2.240 . S
Cd2 O10 2.223 . S
Cd2 O12 2.297 . S
Cd2 O13 2.439 . S
O3 Cd2 2.240 . S
O3 C8 1.279 . S
O4 Cd1 2.297 . S
O4 C6 1.247 . S
O5 Cd1 2.439 . S
O5 C6 1.208 . S
C6 O4 1.247 . S
C6 O5 1.208 . S
C7 O12 1.247 . S
C7 O13 1.208 . S
C8 O0 1.315 . S
C8 O3 1.279 . S
C9 O10 1.315 . S
C9 O11 1.279 . S
O10 Cd2 2.223 . S
O10 C9 1.315 . S
O11 Cd1 2.240 . S
O11 C9 1.279 . S
O12 Cd2 2.297 . S
O12 C7 1.247 . S
O13 Cd2 2.439 . S
O13 C7 1.208 . S
O14 Cd15 2.223 . S
O14 C22 1.315 . S
Cd15 O14 2.223 . S
Cd15 O18 2.297 . S
Cd15 O19 2.439 . S
Cd15 O25 2.240 . S
Cd16 O17 2.240 . S
Cd16 O24 2.223 . S
Cd16 O26 2.297 . S
Cd16 O27 2.439 . S
O17 Cd16 2.240 . S
O17 C22 1.279 . S
O18 Cd15 2.297 . S
O18 C20 1.247 . S
O19 Cd15 2.439 . S
O19 C20 1.208 . S
C20 O18 1.247 . S
C20 O19 1.208 . S
C21 O26 1.247 . S
C21 O27 1.208 . S
C22 O14 1.315 . S
C22 O17 1.279 . S
C23 O24 1.315 . S
C23 O25 1.279 . S
O24 Cd16 2.223 . S
O24 C23 1.315 . S
O25 Cd15 2.240 . S
O25 C23 1.279 . S
O26 Cd16 2.297 . S
O26 C21 1.247 . S
O27 Cd16 2.439 . S
O27 C21 1.208 . S
O28 Cd29 2.223 . S
O28 C36 1.315 . S
Cd29 O28 2.223 . S
Cd29 O32 2.297 . S
Cd29 O33 2.439 . S
Cd29 O39 2.240 . S
Cd30 O31 2.240 . S
Cd30 O38 2.223 . S
Cd30 O40 2.297 1_556 S
Cd30 O41 2.439 . S
O31 Cd30 2.240 . S
O31 C36 1.279 . S
O32 Cd29 2.297 . S
O32 C34 1.247 . S
O33 Cd29 2.439 . S
O33 C34 1.208 . S
C34 O32 1.247 . S
C34 O33 1.208 . S
C35 O40 1.247 . S
C35 O41 1.208 1_554 S
C36 O28 1.315 . S
C36 O31 1.279 . S
C37 O38 1.315 . S
C37 O39 1.279 . S
O38 Cd30 2.223 . S
O38 C37 1.315 . S
O39 Cd29 2.240 . S
O39 C37 1.279 . S
O40 Cd30 2.297 1_554 S
O40 C35 1.247 . S
O41 Cd30 2.439 . S
O41 C35 1.208 1_556 S
O42 Cd43 2.223 . S
O42 C50 1.315 . S
Cd43 O42 2.223 . S
Cd43 O46 2.297 . S
Cd43 O47 2.439 . S
Cd43 O53 2.240 . S
Cd44 O45 2.240 . S
Cd44 O52 2.223 . S
Cd44 O54 2.297 . S
Cd44 O55 2.439 . S
O45 Cd44 2.240 . S
O45 C50 1.279 . S
O46 Cd43 2.297 . S
O46 C48 1.247 . S
O47 Cd43 2.439 . S
O47 C48 1.208 . S
C48 O46 1.247 . S
C48 O47 1.208 . S
C49 O54 1.247 . S
C49 O55 1.208 . S
C50 O42 1.315 . S
C50 O45 1.279 . S
C51 O52 1.315 . S
C51 O53 1.279 . S
O52 Cd44 2.223 . S
O52 C51 1.315 . S
O53 Cd43 2.240 . S
O53 C51 1.279 . S
O54 Cd44 2.297 . S
O54 C49 1.247 . S
O55 Cd44 2.439 . S
O55 C49 1.208 . S
O56 Cd57 2.223 . S
O56 C64 1.315 . S
Cd57 O56 2.223 . S
Cd57 O60 2.297 . S
Cd57 O61 2.439 . S
Cd57 O67 2.240 . S
Cd58 O59 2.240 . S
Cd58 O66 2.223 . S
Cd58 O68 2.297 1_554 S
Cd58 O69 2.439 . S
O59 Cd58 2.240 . S
O59 C64 1.279 . S
O60 Cd57 2.297 . S
O60 C62 1.247 . S
O61 Cd57 2.439 . S
O61 C62 1.208 . S
C62 O60 1.247 . S
C62 O61 1.208 . S
C63 O68 1.247 . S
C63 O69 1.208 1_556 S
C64 O56 1.315 . S
C64 O59 1.279 . S
C65 O66 1.315 . S
C65 O67 1.279 . S
O66 Cd58 2.223 . S
O66 C65 1.315 . S
O67 Cd57 2.240 . S
O67 C65 1.279 . S
O68 Cd58 2.297 1_556 S
O68 C63 1.247 . S
O69 Cd58 2.439 . S
O69 C63 1.208 1_554 S
O70 Cd71 2.223 . S
O70 C78 1.315 . S
Cd71 O70 2.223 . S
Cd71 O74 2.297 . S
Cd71 O75 2.439 . S
Cd71 O81 2.240 . S
Cd72 O73 2.240 . S
Cd72 O80 2.223 . S
Cd72 O82 2.297 . S
Cd72 O83 2.439 . S
O73 Cd72 2.240 . S
O73 C78 1.279 . S
O74 Cd71 2.297 . S
O74 C76 1.247 . S
O75 Cd71 2.439 . S
O75 C76 1.208 . S
C76 O74 1.247 . S
C76 O75 1.208 . S
C77 O82 1.247 . S
C77 O83 1.208 . S
C78 O70 1.315 . S
C78 O73 1.279 . S
C79 O80 1.315 . S
C79 O81 1.279 . S
O80 Cd72 2.223 . S
O80 C79 1.315 . S
O81 Cd71 2.240 . S
O81 C79 1.279 . S
O82 Cd72 2.297 . S
O82 C77 1.247 . S
O83 Cd72 2.439 . S
O83 C77 1.208 . S
O84 Cd85 2.223 . S
O84 C92 1.315 . S
Cd85 O84 2.223 . S
Cd85 O88 2.297 . S
Cd85 O89 2.439 . S
Cd85 O95 2.240 . S
Cd86 O87 2.240 . S
Cd86 O94 2.223 . S
Cd86 O96 2.297 . S
Cd86 O97 2.439 . S
O87 Cd86 2.240 . S
O87 C92 1.279 . S
O88 Cd85 2.297 . S
O88 C90 1.247 . S
O89 Cd85 2.439 . S
O89 C90 1.208 . S
C90 O88 1.247 . S
C90 O89 1.208 . S
C91 O96 1.247 . S
C91 O97 1.208 . S
C92 O84 1.315 . S
C92 O87 1.279 . S
C93 O94 1.315 . S
C93 O95 1.279 . S
O94 Cd86 2.223 . S
O94 C93 1.315 . S
O95 Cd85 2.240 . S
O95 C93 1.279 . S
O96 Cd86 2.297 . S
O96 C91 1.247 . S
O97 Cd86 2.439 . S
O97 C91 1.208 . S
O98 Cd99 2.223 . S
O98 C106 1.315 . S
Cd99 O98 2.223 . S
Cd99 O102 2.297 . S
Cd99 O103 2.439 . S
Cd99 O109 2.240 . S
Cd100 O101 2.240 . S
Cd100 O108 2.223 . S
Cd100 O110 2.297 . S
Cd100 O111 2.439 . S
O101 Cd100 2.240 . S
O101 C106 1.279 . S
O102 Cd99 2.297 . S
O102 C104 1.247 . S
O103 Cd99 2.439 . S
O103 C104 1.208 . S
C104 O102 1.247 . S
C104 O103 1.208 . S
C105 O110 1.247 . S
C105 O111 1.208 . S
C106 O98 1.315 . S
C106 O101 1.279 . S
C107 O108 1.315 . S
C107 O109 1.279 . S
O108 Cd100 2.223 . S
O108 C107 1.315 . S
O109 Cd99 2.240 . S
O109 C107 1.279 . S
O110 Cd100 2.297 . S
O110 C105 1.247 . S
O111 Cd100 2.439 . S
O111 C105 1.208 . S
O112 Cd113 2.223 . S
O112 C120 1.315 . S
Cd113 O112 2.223 . S
Cd113 O116 2.297 . S
Cd113 O117 2.439 . S
Cd113 O123 2.240 . S
Cd114 O115 2.240 . S
Cd114 O122 2.223 . S
Cd114 O124 2.297 . S
Cd114 O125 2.439 . S
O115 Cd114 2.240 . S
O115 C120 1.279 . S
O116 Cd113 2.297 . S
O116 C118 1.247 . S
O117 Cd113 2.439 . S
O117 C118 1.208 . S
C118 O116 1.247 . S
C118 O117 1.208 . S
C119 O124 1.247 . S
C119 O125 1.208 . S
C120 O112 1.315 . S
C120 O115 1.279 . S
C121 O122 1.315 . S
C121 O123 1.279 . S
O122 Cd114 2.223 . S
O122 C121 1.315 . S
O123 Cd113 2.240 . S
O123 C121 1.279 . S
O124 Cd114 2.297 . S
O124 C119 1.247 . S
O125 Cd114 2.439 . S
O125 C119 1.208 . S
O126 Cd127 2.223 . S
O126 C134 1.315 . S
Cd127 O126 2.223 . S
Cd127 O130 2.297 . S
Cd127 O131 2.439 . S
Cd127 O137 2.240 . S
Cd128 O129 2.240 . S
Cd128 O136 2.223 . S
Cd128 O138 2.297 . S
Cd128 O139 2.439 . S
O129 Cd128 2.240 . S
O129 C134 1.279 . S
O130 Cd127 2.297 . S
O130 C132 1.247 . S
O131 Cd127 2.439 . S
O131 C132 1.208 . S
C132 O130 1.247 . S
C132 O131 1.208 . S
C133 O138 1.247 . S
C133 O139 1.208 . S
C134 O126 1.315 . S
C134 O129 1.279 . S
C135 O136 1.315 . S
C135 O137 1.279 . S
O136 Cd128 2.223 . S
O136 C135 1.315 . S
O137 Cd127 2.240 . S
O137 C135 1.279 . S
O138 Cd128 2.297 . S
O138 C133 1.247 . S
O139 Cd128 2.439 . S
O139 C133 1.208 . S
O140 Cd141 2.223 . S
O140 C148 1.315 . S
Cd141 O140 2.223 . S
Cd141 O144 2.297 . S
Cd141 O145 2.439 . S
Cd141 O151 2.240 . S
Cd142 O143 2.240 . S
Cd142 O150 2.223 . S
Cd142 O152 2.297 1_554 S
Cd142 O153 2.439 . S
O143 Cd142 2.240 . S
O143 C148 1.279 . S
O144 Cd141 2.297 . S
O144 C146 1.247 . S
O145 Cd141 2.439 . S
O145 C146 1.208 . S
C146 O144 1.247 . S
C146 O145 1.208 . S
C147 O152 1.247 . S
C147 O153 1.208 1_556 S
C148 O140 1.315 . S
C148 O143 1.279 . S
C149 O150 1.315 . S
C149 O151 1.279 . S
O150 Cd142 2.223 . S
O150 C149 1.315 . S
O151 Cd141 2.240 . S
O151 C149 1.279 . S
O152 Cd142 2.297 1_556 S
O152 C147 1.247 . S
O153 Cd142 2.439 . S
O153 C147 1.208 1_554 S
O154 Cd155 2.223 . S
O154 C162 1.315 . S
Cd155 O154 2.223 . S
Cd155 O158 2.297 . S
Cd155 O159 2.439 . S
Cd155 O165 2.240 . S
Cd156 O157 2.240 . S
Cd156 O164 2.223 . S
Cd156 O166 2.297 . S
Cd156 O167 2.439 . S
O157 Cd156 2.240 . S
O157 C162 1.279 . S
O158 Cd155 2.297 . S
O158 C160 1.247 . S
O159 Cd155 2.439 . S
O159 C160 1.208 . S
C160 O158 1.247 . S
C160 O159 1.208 . S
C161 O166 1.247 . S
C161 O167 1.208 . S
C162 O154 1.315 . S
C162 O157 1.279 . S
C163 O164 1.315 . S
C163 O165 1.279 . S
O164 Cd156 2.223 . S
O164 C163 1.315 . S
O165 Cd155 2.240 . S
O165 C163 1.279 . S
O166 Cd156 2.297 . S
O166 C161 1.247 . S
O167 Cd156 2.439 . S
O167 C161 1.208 . S
O168 Cd169 2.223 . S
O168 C176 1.315 . S
Cd169 O168 2.223 . S
Cd169 O172 2.297 . S
Cd169 O173 2.439 . S
Cd169 O179 2.240 . S
Cd170 O171 2.240 . S
Cd170 O178 2.223 . S
Cd170 O180 2.297 1_556 S
Cd170 O181 2.439 . S
O171 Cd170 2.240 . S
O171 C176 1.279 . S
O172 Cd169 2.297 . S
O172 C174 1.247 . S
O173 Cd169 2.439 . S
O173 C174 1.208 . S
C174 O172 1.247 . S
C174 O173 1.208 . S
C175 O180 1.247 . S
C175 O181 1.208 1_554 S
C176 O168 1.315 . S
C176 O171 1.279 . S
C177 O178 1.315 . S
C177 O179 1.279 . S
O178 Cd170 2.223 . S
O178 C177 1.315 . S
O179 Cd169 2.240 . S
O179 C177 1.279 . S
O180 Cd170 2.297 1_554 S
O180 C175 1.247 . S
O181 Cd170 2.439 . S
O181 C175 1.208 1_556 S
O182 Cd183 2.223 . S
O182 C190 1.315 . S
Cd183 O182 2.223 . S
Cd183 O186 2.297 . S
Cd183 O187 2.439 . S
Cd183 O193 2.240 . S
Cd184 O185 2.240 . S
Cd184 O192 2.223 . S
Cd184 O194 2.297 . S
Cd184 O195 2.439 . S
O185 Cd184 2.240 . S
O185 C190 1.279 . S
O186 Cd183 2.297 . S
O186 C188 1.247 . S
O187 Cd183 2.439 . S
O187 C188 1.208 . S
C188 O186 1.247 . S
C188 O187 1.208 . S
C189 O194 1.247 . S
C189 O195 1.208 . S
C190 O182 1.315 . S
C190 O185 1.279 . S
C191 O192 1.315 . S
C191 O193 1.279 . S
O192 Cd184 2.223 . S
O192 C191 1.315 . S
O193 Cd183 2.240 . S
O193 C191 1.279 . S
O194 Cd184 2.297 . S
O194 C189 1.247 . S
O195 Cd184 2.439 . S
O195 C189 1.208 . S
O196 Cd197 2.223 . S
O196 C204 1.315 . S
Cd197 O196 2.223 . S
Cd197 O200 2.297 . S
Cd197 O201 2.439 . S
Cd197 O207 2.240 . S
Cd198 O199 2.240 . S
Cd198 O206 2.223 . S
Cd198 O208 2.297 . S
Cd198 O209 2.439 . S
O199 Cd198 2.240 . S
O199 C204 1.279 . S
O200 Cd197 2.297 . S
O200 C202 1.247 . S
O201 Cd197 2.439 . S
O201 C202 1.208 . S
C202 O200 1.247 . S
C202 O201 1.208 . S
C203 O208 1.247 . S
C203 O209 1.208 . S
C204 O196 1.315 . S
C204 O199 1.279 . S
C205 O206 1.315 . S
C205 O207 1.279 . S
O206 Cd198 2.223 . S
O206 C205 1.315 . S
O207 Cd197 2.240 . S
O207 C205 1.279 . S
O208 Cd198 2.297 . S
O208 C203 1.247 . S
O209 Cd198 2.439 . S
O209 C203 1.208 . S
O210 Cd211 2.223 . S
O210 C218 1.315 . S
Cd211 O210 2.223 . S
Cd211 O214 2.297 . S
Cd211 O215 2.439 . S
Cd211 O221 2.240 . S
Cd212 O213 2.240 . S
Cd212 O220 2.223 . S
Cd212 O222 2.297 . S
Cd212 O223 2.439 . S
O213 Cd212 2.240 . S
O213 C218 1.279 . S
O214 Cd211 2.297 . S
O214 C216 1.247 . S
O215 Cd211 2.439 . S
O215 C216 1.208 . S
C216 O214 1.247 . S
C216 O215 1.208 . S
C217 O222 1.247 . S
C217 O223 1.208 . S
C218 O210 1.315 . S
C218 O213 1.279 . S
C219 O220 1.315 . S
C219 O221 1.279 . S
O220 Cd212 2.223 . S
O220 C219 1.315 . S
O221 Cd211 2.240 . S
O221 C219 1.279 . S
O222 Cd212 2.297 . S
O222 C217 1.247 . S
O223 Cd212 2.439 . S
O223 C217 1.208 . S
O224 Cd225 2.223 . S
O224 C232 1.315 . S
Cd225 O224 2.223 . S
Cd225 O228 2.297 . S
Cd225 O229 2.439 . S
Cd225 O235 2.240 . S
Cd226 O227 2.240 . S
Cd226 O234 2.223 . S
Cd226 O236 2.297 1_556 S
Cd226 O237 2.439 . S
O227 Cd226 2.240 . S
O227 C232 1.279 . S
O228 Cd225 2.297 . S
O228 C230 1.247 . S
O229 Cd225 2.439 . S
O229 C230 1.208 . S
C230 O228 1.247 . S
C230 O229 1.208 . S
C231 O236 1.247 . S
C231 O237 1.208 1_554 S
C232 O224 1.315 . S
C232 O227 1.279 . S
C233 O234 1.315 . S
C233 O235 1.279 . S
O234 Cd226 2.223 . S
O234 C233 1.315 . S
O235 Cd225 2.240 . S
O235 C233 1.279 . S
O236 Cd226 2.297 1_554 S
O236 C231 1.247 . S
O237 Cd226 2.439 . S
O237 C231 1.208 1_556 S
O238 Cd239 2.223 . S
O238 C246 1.315 . S
Cd239 O238 2.223 . S
Cd239 O242 2.297 . S
Cd239 O243 2.439 . S
Cd239 O249 2.240 . S
Cd240 O241 2.240 . S
Cd240 O248 2.223 . S
Cd240 O250 2.297 . S
Cd240 O251 2.439 . S
O241 Cd240 2.240 . S
O241 C246 1.279 . S
O242 Cd239 2.297 . S
O242 C244 1.247 . S
O243 Cd239 2.439 . S
O243 C244 1.208 . S
C244 O242 1.247 . S
C244 O243 1.208 . S
C245 O250 1.247 . S
C245 O251 1.208 . S
C246 O238 1.315 . S
C246 O241 1.279 . S
C247 O248 1.315 . S
C247 O249 1.279 . S
O248 Cd240 2.223 . S
O248 C247 1.315 . S
O249 Cd239 2.240 . S
O249 C247 1.279 . S
O250 Cd240 2.297 . S
O250 C245 1.247 . S
O251 Cd240 2.439 . S
O251 C245 1.208 . S
O252 Cd253 2.223 . S
O252 C260 1.315 . S
Cd253 O252 2.223 . S
Cd253 O256 2.297 . S
Cd253 O257 2.439 . S
Cd253 O263 2.240 . S
Cd254 O255 2.240 . S
Cd254 O262 2.223 . S
Cd254 O264 2.297 . S
Cd254 O265 2.439 . S
O255 Cd254 2.240 . S
O255 C260 1.279 . S
O256 Cd253 2.297 . S
O256 C258 1.247 . S
O257 Cd253 2.439 . S
O257 C258 1.208 . S
C258 O256 1.247 . S
C258 O257 1.208 . S
C259 O264 1.247 . S
C259 O265 1.208 . S
C260 O252 1.315 . S
C260 O255 1.279 . S
C261 O262 1.315 . S
C261 O263 1.279 . S
O262 Cd254 2.223 . S
O262 C261 1.315 . S
O263 Cd253 2.240 . S
O263 C261 1.279 . S
O264 Cd254 2.297 . S
O264 C259 1.247 . S
O265 Cd254 2.439 . S
O265 C259 1.208 . S
O266 Cd267 2.223 . S
O266 C274 1.315 . S
Cd267 O266 2.223 . S
Cd267 O270 2.297 . S
Cd267 O271 2.439 . S
Cd267 O277 2.240 . S
Cd268 O269 2.240 . S
Cd268 O276 2.223 . S
Cd268 O278 2.297 . S
Cd268 O279 2.439 . S
O269 Cd268 2.240 . S
O269 C274 1.279 . S
O270 Cd267 2.297 . S
O270 C272 1.247 . S
O271 Cd267 2.439 . S
O271 C272 1.208 . S
C272 O270 1.247 . S
C272 O271 1.208 . S
C273 O278 1.247 . S
C273 O279 1.208 . S
C274 O266 1.315 . S
C274 O269 1.279 . S
C275 O276 1.315 . S
C275 O277 1.279 . S
O276 Cd268 2.223 . S
O276 C275 1.315 . S
O277 Cd267 2.240 . S
O277 C275 1.279 . S
O278 Cd268 2.297 . S
O278 C273 1.247 . S
O279 Cd268 2.439 . S
O279 C273 1.208 . S
O280 Cd281 2.223 . S
O280 C288 1.315 . S
Cd281 O280 2.223 . S
Cd281 O284 2.297 . S
Cd281 O285 2.439 . S
Cd281 O291 2.240 . S
Cd282 O283 2.240 . S
Cd282 O290 2.223 . S
Cd282 O292 2.297 . S
Cd282 O293 2.439 . S
O283 Cd282 2.240 . S
O283 C288 1.279 . S
O284 Cd281 2.297 . S
O284 C286 1.247 . S
O285 Cd281 2.439 . S
O285 C286 1.208 . S
C286 O284 1.247 . S
C286 O285 1.208 . S
C287 O292 1.247 . S
C287 O293 1.208 . S
C288 O280 1.315 . S
C288 O283 1.279 . S
C289 O290 1.315 . S
C289 O291 1.279 . S
O290 Cd282 2.223 . S
O290 C289 1.315 . S
O291 Cd281 2.240 . S
O291 C289 1.279 . S
O292 Cd282 2.297 . S
O292 C287 1.247 . S
O293 Cd282 2.439 . S
O293 C287 1.208 . S
O294 Cd295 2.223 . S
O294 C302 1.315 . S
Cd295 O294 2.223 . S
Cd295 O298 2.297 . S
Cd295 O299 2.439 . S
Cd295 O305 2.240 . S
Cd296 O297 2.240 . S
Cd296 O304 2.223 . S
Cd296 O306 2.297 . S
Cd296 O307 2.439 . S
O297 Cd296 2.240 . S
O297 C302 1.279 . S
O298 Cd295 2.297 . S
O298 C300 1.247 . S
O299 Cd295 2.439 . S
O299 C300 1.208 . S
C300 O298 1.247 . S
C300 O299 1.208 . S
C301 O306 1.247 . S
C301 O307 1.208 . S
C302 O294 1.315 . S
C302 O297 1.279 . S
C303 O304 1.315 . S
C303 O305 1.279 . S
O304 Cd296 2.223 . S
O304 C303 1.315 . S
O305 Cd295 2.240 . S
O305 C303 1.279 . S
O306 Cd296 2.297 . S
O306 C301 1.247 . S
O307 Cd296 2.439 . S
O307 C301 1.208 . S
O308 Cd309 2.223 . S
O308 C316 1.315 . S
Cd309 O308 2.223 . S
Cd309 O312 2.297 . S
Cd309 O313 2.439 . S
Cd309 O319 2.240 . S
Cd310 O311 2.240 . S
Cd310 O318 2.223 . S
Cd310 O320 2.297 1_554 S
Cd310 O321 2.439 . S
O311 Cd310 2.240 . S
O311 C316 1.279 . S
O312 Cd309 2.297 . S
O312 C314 1.247 . S
O313 Cd309 2.439 . S
O313 C314 1.208 . S
C314 O312 1.247 . S
C314 O313 1.208 . S
C315 O320 1.247 . S
C315 O321 1.208 1_556 S
C316 O308 1.315 . S
C316 O311 1.279 . S
C317 O318 1.315 . S
C317 O319 1.279 . S
O318 Cd310 2.223 . S
O318 C317 1.315 . S
O319 Cd309 2.240 . S
O319 C317 1.279 . S
O320 Cd310 2.297 1_556 S
O320 C315 1.247 . S
O321 Cd310 2.439 . S
O321 C315 1.208 1_554 S
O322 Cd323 2.223 . S
O322 C330 1.315 . S
Cd323 O322 2.223 . S
Cd323 O326 2.297 . S
Cd323 O327 2.439 . S
Cd323 O333 2.240 . S
Cd324 O325 2.240 . S
Cd324 O332 2.223 . S
Cd324 O334 2.297 . S
Cd324 O335 2.439 . S
O325 Cd324 2.240 . S
O325 C330 1.279 . S
O326 Cd323 2.297 . S
O326 C328 1.247 . S
O327 Cd323 2.439 . S
O327 C328 1.208 . S
C328 O326 1.247 . S
C328 O327 1.208 . S
C329 O334 1.247 . S
C329 O335 1.208 . S
C330 O322 1.315 . S
C330 O325 1.279 . S
C331 O332 1.315 . S
C331 O333 1.279 . S
O332 Cd324 2.223 . S
O332 C331 1.315 . S
O333 Cd323 2.240 . S
O333 C331 1.279 . S
O334 Cd324 2.297 . S
O334 C329 1.247 . S
O335 Cd324 2.439 . S
O335 C329 1.208 . S
O336 Cd337 2.223 . S
O336 C344 1.315 . S
Cd337 O336 2.223 . S
Cd337 O340 2.297 . S
Cd337 O341 2.439 . S
Cd337 O347 2.240 . S
Cd338 O339 2.240 . S
Cd338 O346 2.223 . S
Cd338 O348 2.297 1_554 S
Cd338 O349 2.439 . S
O339 Cd338 2.240 . S
O339 C344 1.279 . S
O340 Cd337 2.297 . S
O340 C342 1.247 . S
O341 Cd337 2.439 . S
O341 C342 1.208 . S
C342 O340 1.247 . S
C342 O341 1.208 . S
C343 O348 1.247 . S
C343 O349 1.208 1_556 S
C344 O336 1.315 . S
C344 O339 1.279 . S
C345 O346 1.315 . S
C345 O347 1.279 . S
O346 Cd338 2.223 . S
O346 C345 1.315 . S
O347 Cd337 2.240 . S
O347 C345 1.279 . S
O348 Cd338 2.297 1_556 S
O348 C343 1.247 . S
O349 Cd338 2.439 . S
O349 C343 1.208 1_554 S
O350 Cd351 2.223 . S
O350 C358 1.315 . S
Cd351 O350 2.223 . S
Cd351 O354 2.297 . S
Cd351 O355 2.439 . S
Cd351 O361 2.240 . S
Cd352 O353 2.240 . S
Cd352 O360 2.223 . S
Cd352 O362 2.297 . S
Cd352 O363 2.439 . S
O353 Cd352 2.240 . S
O353 C358 1.279 . S
O354 Cd351 2.297 . S
O354 C356 1.247 . S
O355 Cd351 2.439 . S
O355 C356 1.208 . S
C356 O354 1.247 . S
C356 O355 1.208 . S
C357 O362 1.247 . S
C357 O363 1.208 . S
C358 O350 1.315 . S
C358 O353 1.279 . S
C359 O360 1.315 . S
C359 O361 1.279 . S
O360 Cd352 2.223 . S
O360 C359 1.315 . S
O361 Cd351 2.240 . S
O361 C359 1.279 . S
O362 Cd352 2.297 . S
O362 C357 1.247 . S
O363 Cd352 2.439 . S
O363 C357 1.208 . S
O364 Cd365 2.223 . S
O364 C372 1.315 . S
Cd365 O364 2.223 . S
Cd365 O368 2.297 . S
Cd365 O369 2.439 . S
Cd365 O375 2.240 . S
Cd366 O367 2.240 . S
Cd366 O374 2.223 . S
Cd366 O376 2.297 . S
Cd366 O377 2.439 . S
O367 Cd366 2.240 . S
O367 C372 1.279 . S
O368 Cd365 2.297 . S
O368 C370 1.247 . S
O369 Cd365 2.439 . S
O369 C370 1.208 . S
C370 O368 1.247 . S
C370 O369 1.208 . S
C371 O376 1.247 . S
C371 O377 1.208 . S
C372 O364 1.315 . S
C372 O367 1.279 . S
C373 O374 1.315 . S
C373 O375 1.279 . S
O374 Cd366 2.223 . S
O374 C373 1.315 . S
O375 Cd365 2.240 . S
O375 C373 1.279 . S
O376 Cd366 2.297 . S
O376 C371 1.247 . S
O377 Cd366 2.439 . S
O377 C371 1.208 . S
O378 Cd379 2.223 . S
O378 C386 1.315 . S
Cd379 O378 2.223 . S
Cd379 O382 2.297 . S
Cd379 O383 2.439 . S
Cd379 O389 2.240 . S
Cd380 O381 2.240 . S
Cd380 O388 2.223 . S
Cd380 O390 2.297 . S
Cd380 O391 2.439 . S
O381 Cd380 2.240 . S
O381 C386 1.279 . S
O382 Cd379 2.297 . S
O382 C384 1.247 . S
O383 Cd379 2.439 . S
O383 C384 1.208 . S
C384 O382 1.247 . S
C384 O383 1.208 . S
C385 O390 1.247 . S
C385 O391 1.208 . S
C386 O378 1.315 . S
C386 O381 1.279 . S
C387 O388 1.315 . S
C387 O389 1.279 . S
O388 Cd380 2.223 . S
O388 C387 1.315 . S
O389 Cd379 2.240 . S
O389 C387 1.279 . S
O390 Cd380 2.297 . S
O390 C385 1.247 . S
O391 Cd380 2.439 . S
O391 C385 1.208 . S
O392 Cd393 2.223 . S
O392 C400 1.315 . S
Cd393 O392 2.223 . S
Cd393 O396 2.297 . S
Cd393 O397 2.439 . S
Cd393 O403 2.240 . S
Cd394 O395 2.240 . S
Cd394 O402 2.223 . S
Cd394 O404 2.297 . S
Cd394 O405 2.439 . S
O395 Cd394 2.240 . S
O395 C400 1.279 . S
O396 Cd393 2.297 . S
O396 C398 1.247 . S
O397 Cd393 2.439 . S
O397 C398 1.208 . S
C398 O396 1.247 . S
C398 O397 1.208 . S
C399 O404 1.247 . S
C399 O405 1.208 . S
C400 O392 1.315 . S
C400 O395 1.279 . S
C401 O402 1.315 . S
C401 O403 1.279 . S
O402 Cd394 2.223 . S
O402 C401 1.315 . S
O403 Cd393 2.240 . S
O403 C401 1.279 . S
O404 Cd394 2.297 . S
O404 C399 1.247 . S
O405 Cd394 2.439 . S
O405 C399 1.208 . S
O406 Cd407 2.223 . S
O406 C414 1.315 . S
Cd407 O406 2.223 . S
Cd407 O410 2.297 . S
Cd407 O411 2.439 . S
Cd407 O417 2.240 . S
Cd408 O409 2.240 . S
Cd408 O416 2.223 . S
Cd408 O418 2.297 . S
Cd408 O419 2.439 . S
O409 Cd408 2.240 . S
O409 C414 1.279 . S
O410 Cd407 2.297 . S
O410 C412 1.247 . S
O411 Cd407 2.439 . S
O411 C412 1.208 . S
C412 O410 1.247 . S
C412 O411 1.208 . S
C413 O418 1.247 . S
C413 O419 1.208 . S
C414 O406 1.315 . S
C414 O409 1.279 . S
C415 O416 1.315 . S
C415 O417 1.279 . S
O416 Cd408 2.223 . S
O416 C415 1.315 . S
O417 Cd407 2.240 . S
O417 C415 1.279 . S
O418 Cd408 2.297 . S
O418 C413 1.247 . S
O419 Cd408 2.439 . S
O419 C413 1.208 . S
O420 Cd421 2.223 . S
O420 C428 1.315 . S
Cd421 O420 2.223 . S
Cd421 O424 2.297 . S
Cd421 O425 2.439 . S
Cd421 O431 2.240 . S
Cd422 O423 2.240 . S
Cd422 O430 2.223 . S
Cd422 O432 2.297 1_556 S
Cd422 O433 2.439 . S
O423 Cd422 2.240 . S
O423 C428 1.279 . S
O424 Cd421 2.297 . S
O424 C426 1.247 . S
O425 Cd421 2.439 . S
O425 C426 1.208 . S
C426 O424 1.247 . S
C426 O425 1.208 . S
C427 O432 1.247 . S
C427 O433 1.208 1_554 S
C428 O420 1.315 . S
C428 O423 1.279 . S
C429 O430 1.315 . S
C429 O431 1.279 . S
O430 Cd422 2.223 . S
O430 C429 1.315 . S
O431 Cd421 2.240 . S
O431 C429 1.279 . S
O432 Cd422 2.297 1_554 S
O432 C427 1.247 . S
O433 Cd422 2.439 . S
O433 C427 1.208 1_556 S
O434 Cd435 2.223 . S
O434 C442 1.315 . S
Cd435 O434 2.223 . S
Cd435 O438 2.297 . S
Cd435 O439 2.439 . S
Cd435 O445 2.240 . S
Cd436 O437 2.240 . S
Cd436 O444 2.223 . S
Cd436 O446 2.297 . S
Cd436 O447 2.439 . S
O437 Cd436 2.240 . S
O437 C442 1.279 . S
O438 Cd435 2.297 . S
O438 C440 1.247 . S
O439 Cd435 2.439 . S
O439 C440 1.208 . S
C440 O438 1.247 . S
C440 O439 1.208 . S
C441 O446 1.247 . S
C441 O447 1.208 . S
C442 O434 1.315 . S
C442 O437 1.279 . S
C443 O444 1.315 . S
C443 O445 1.279 . S
O444 Cd436 2.223 . S
O444 C443 1.315 . S
O445 Cd435 2.240 . S
O445 C443 1.279 . S
O446 Cd436 2.297 . S
O446 C441 1.247 . S
O447 Cd436 2.439 . S
O447 C441 1.208 . S
H448 C454 0.930 . S
H449 C457 0.930 . S
H450 C458 0.930 . S
H451 C459 0.930 . S
H452 C462 0.930 . S
H453 C463 0.930 . S
C454 H448 0.930 . S
C454 C455 1.355 . S
C454 C456 1.415 1_545 S
C455 C454 1.355 . S
C455 C457 1.419 . S
C456 C454 1.415 1_565 S
C456 C461 1.425 1_565 S
C456 C463 1.409 . S
C457 H449 0.930 . S
C457 C455 1.419 . S
C457 C458 1.362 . S
C458 H450 0.930 . S
C458 C457 1.362 . S
C458 C461 1.409 . S
C459 H451 0.930 . S
C459 C460 1.355 . S
C459 C461 1.415 1_565 S
C460 C459 1.355 . S
C460 C462 1.419 . S
C461 C456 1.425 1_545 S
C461 C458 1.409 . S
C461 C459 1.415 1_545 S
C462 H452 0.930 . S
C462 C460 1.419 . S
C462 C463 1.362 . S
C463 H453 0.930 . S
C463 C456 1.409 . S
C463 C462 1.362 . S
H464 C470 0.930 . S
H465 C473 0.930 . S
H466 C474 0.930 . S
H467 C475 0.930 . S
H468 C478 0.930 . S
H469 C479 0.930 . S
C470 H464 0.930 . S
C470 C471 1.355 . S
C470 C472 1.415 . S
C471 C470 1.355 . S
C471 C473 1.419 . S
C472 C470 1.415 . S
C472 C477 1.425 . S
C472 C479 1.409 . S
C473 H465 0.930 . S
C473 C471 1.419 . S
C473 C474 1.362 . S
C474 H466 0.930 . S
C474 C473 1.362 . S
C474 C477 1.409 . S
C475 H467 0.930 . S
C475 C476 1.355 . S
C475 C477 1.415 . S
C476 C475 1.355 . S
C476 C478 1.419 . S
C477 C472 1.425 . S
C477 C474 1.409 . S
C477 C475 1.415 . S
C478 H468 0.930 . S
C478 C476 1.419 . S
C478 C479 1.362 . S
C479 H469 0.930 . S
C479 C472 1.409 . S
C479 C478 1.362 . S
H480 C486 0.930 . S
H481 C489 0.930 . S
H482 C490 0.914 1_565 S
H483 C491 0.930 . S
H484 C494 0.930 . S
H485 C495 0.914 1_545 S
C486 H480 0.930 . S
C486 C487 1.355 . S
C486 C488 1.415 . S
C487 C486 1.355 . S
C487 C489 1.419 . S
C488 C486 1.415 . S
C488 C493 1.425 1_545 S
C488 C495 1.400 1_545 S
C489 H481 0.930 . S
C489 C487 1.419 . S
C489 C490 1.389 . S
C490 H482 0.914 1_545 S
C490 C489 1.389 . S
C490 C493 1.400 1_545 S
C491 H483 0.930 . S
C491 C492 1.355 . S
C491 C493 1.415 . S
C492 C491 1.355 . S
C492 C494 1.419 . S
C493 C488 1.425 1_565 S
C493 C490 1.400 1_565 S
C493 C491 1.415 . S
C494 H484 0.930 . S
C494 C492 1.419 . S
C494 C495 1.389 . S
C495 H485 0.914 1_565 S
C495 C488 1.400 1_565 S
C495 C494 1.389 . S
H496 C502 0.930 . S
H497 C505 0.930 . S
H498 C506 0.930 . S
H499 C507 0.930 . S
H500 C510 0.930 . S
H501 C511 0.930 . S
C502 H496 0.930 . S
C502 C503 1.355 . S
C502 C504 1.415 . S
C503 C502 1.355 . S
C503 C505 1.419 . S
C504 C502 1.415 . S
C504 C509 1.425 1_556 S
C504 C511 1.409 . S
C505 H497 0.930 . S
C505 C503 1.419 . S
C505 C506 1.362 1_556 S
C506 H498 0.930 . S
C506 C505 1.362 1_554 S
C506 C509 1.409 . S
C507 H499 0.930 . S
C507 C508 1.355 . S
C507 C509 1.415 . S
C508 C507 1.355 . S
C508 C510 1.419 . S
C509 C504 1.425 1_554 S
C509 C506 1.409 . S
C509 C507 1.415 . S
C510 H500 0.930 . S
C510 C508 1.419 . S
C510 C511 1.362 1_554 S
C511 H501 0.930 . S
C511 C504 1.409 . S
C511 C510 1.362 1_556 S
H512 C518 0.930 1_545 S
H513 C521 0.930 . S
H514 C522 0.930 . S
H515 C523 0.930 1_565 S
H516 C526 0.930 . S
H517 C527 0.930 . S
C518 H512 0.930 1_565 S
C518 C519 1.355 . S
C518 C520 1.415 1_565 S
C519 C518 1.355 . S
C519 C521 1.419 . S
C520 C518 1.415 1_545 S
C520 C525 1.425 1_545 S
C520 C527 1.409 . S
C521 H513 0.930 . S
C521 C519 1.419 . S
C521 C522 1.362 . S
C522 H514 0.930 . S
C522 C521 1.362 . S
C522 C525 1.409 . S
C523 H515 0.930 1_545 S
C523 C524 1.355 . S
C523 C525 1.415 1_545 S
C524 C523 1.355 . S
C524 C526 1.419 . S
C525 C520 1.425 1_565 S
C525 C522 1.409 . S
C525 C523 1.415 1_565 S
C526 H516 0.930 . S
C526 C524 1.419 . S
C526 C527 1.362 . S
C527 H517 0.930 . S
C527 C520 1.409 . S
C527 C526 1.362 . S
H528 C534 0.930 . S
H529 C537 0.930 . S
H530 C538 0.930 . S
H531 C539 0.930 . S
H532 C542 0.930 . S
H533 C543 0.930 . S
C534 H528 0.930 . S
C534 C535 1.355 . S
C534 C536 1.415 . S
C535 C534 1.355 . S
C535 C537 1.419 . S
C536 C534 1.415 . S
C536 C541 1.425 . S
C536 C543 1.409 . S
C537 H529 0.930 . S
C537 C535 1.419 . S
C537 C538 1.362 . S
C538 H530 0.930 . S
C538 C537 1.362 . S
C538 C541 1.409 . S
C539 H531 0.930 . S
C539 C540 1.355 . S
C539 C541 1.415 . S
C540 C539 1.355 . S
C540 C542 1.419 . S
C541 C536 1.425 . S
C541 C538 1.409 . S
C541 C539 1.415 . S
C542 H532 0.930 . S
C542 C540 1.419 . S
C542 C543 1.362 . S
C543 H533 0.930 . S
C543 C536 1.409 . S
C543 C542 1.362 . S
H544 C550 0.930 . S
H545 C553 0.930 . S
H546 C554 0.930 . S
H547 C555 0.930 . S
H548 C558 0.930 . S
H549 C559 0.930 . S
C550 H544 0.930 . S
C550 C551 1.355 . S
C550 C552 1.415 . S
C551 C550 1.355 . S
C551 C553 1.419 . S
C552 C550 1.415 . S
C552 C557 1.425 1_565 S
C552 C559 1.409 . S
C553 H545 0.930 . S
C553 C551 1.419 . S
C553 C554 1.362 1_565 S
C554 H546 0.930 . S
C554 C553 1.362 1_545 S
C554 C557 1.409 . S
C555 H547 0.930 . S
C555 C556 1.355 . S
C555 C557 1.415 . S
C556 C555 1.355 . S
C556 C558 1.419 . S
C557 C552 1.425 1_545 S
C557 C554 1.409 . S
C557 C555 1.415 . S
C558 H548 0.930 . S
C558 C556 1.419 . S
C558 C559 1.362 1_545 S
C559 H549 0.930 . S
C559 C552 1.409 . S
C559 C558 1.362 1_565 S
H560 C566 0.930 . S
H561 C569 0.930 . S
H562 C570 0.930 1_554 S
H563 C571 0.930 . S
H564 C574 0.930 . S
H565 C575 0.930 1_556 S
C566 H560 0.930 . S
C566 C567 1.355 . S
C566 C568 1.415 . S
C567 C566 1.355 . S
C567 C569 1.419 . S
C568 C566 1.415 . S
C568 C573 1.425 1_556 S
C568 C575 1.409 1_556 S
C569 H561 0.930 . S
C569 C567 1.419 . S
C569 C570 1.362 . S
C570 H562 0.930 1_556 S
C570 C569 1.362 . S
C570 C573 1.409 1_556 S
C571 H563 0.930 . S
C571 C572 1.355 . S
C571 C573 1.415 . S
C572 C571 1.355 . S
C572 C574 1.419 . S
C573 C568 1.425 1_554 S
C573 C570 1.409 1_554 S
C573 C571 1.415 . S
C574 H564 0.930 . S
C574 C572 1.419 . S
C574 C575 1.362 . S
C575 H565 0.930 1_554 S
C575 C568 1.409 1_554 S
C575 C574 1.362 . S
H576 C582 0.930 . S
H577 C585 0.930 . S
H578 C586 0.930 . S
H579 C587 0.930 . S
H580 C590 0.930 . S
H581 C591 0.930 . S
C582 H576 0.930 . S
C582 C583 1.355 . S
C582 C584 1.415 . S
C583 C582 1.355 . S
C583 C585 1.419 . S
C584 C582 1.415 . S
C584 C589 1.425 . S
C584 C591 1.409 . S
C585 H577 0.930 . S
C585 C583 1.419 . S
C585 C586 1.362 . S
C586 H578 0.930 . S
C586 C585 1.362 . S
C586 C589 1.409 . S
C587 H579 0.930 . S
C587 C588 1.355 . S
C587 C589 1.415 . S
C588 C587 1.355 . S
C588 C590 1.419 . S
C589 C584 1.425 . S
C589 C586 1.409 . S
C589 C587 1.415 . S
C590 H580 0.930 . S
C590 C588 1.419 . S
C590 C591 1.362 . S
C591 H581 0.930 . S
C591 C584 1.409 . S
C591 C590 1.362 . S
H592 C598 0.930 . S
H593 C601 0.930 . S
H594 C602 0.930 . S
H595 C603 0.930 . S
H596 C606 0.930 . S
H597 C607 0.930 . S
C598 H592 0.930 . S
C598 C599 1.355 . S
C598 C600 1.415 1_556 S
C599 C598 1.355 . S
C599 C601 1.419 . S
C600 C598 1.415 1_554 S
C600 C605 1.425 1_554 S
C600 C607 1.409 . S
C601 H593 0.930 . S
C601 C599 1.419 . S
C601 C602 1.362 . S
C602 H594 0.930 . S
C602 C601 1.362 . S
C602 C605 1.409 . S
C603 H595 0.930 . S
C603 C604 1.355 . S
C603 C605 1.415 1_554 S
C604 C603 1.355 . S
C604 C606 1.419 . S
C605 C600 1.425 1_556 S
C605 C602 1.409 . S
C605 C603 1.415 1_556 S
C606 H596 0.930 . S
C606 C604 1.419 . S
C606 C607 1.362 . S
C607 H597 0.930 . S
C607 C600 1.409 . S
C607 C606 1.362 . S
H608 C614 0.930 . S
H609 C617 0.930 . S
H610 C618 0.930 . S
H611 C619 0.930 . S
H612 C622 0.930 . S
H613 C623 0.930 . S
C614 H608 0.930 . S
C614 C615 1.355 . S
C614 C616 1.415 . S
C615 C614 1.355 . S
C615 C617 1.419 . S
C616 C614 1.415 . S
C616 C621 1.425 . S
C616 C623 1.409 . S
C617 H609 0.930 . S
C617 C615 1.419 . S
C617 C618 1.362 . S
C618 H610 0.930 . S
C618 C617 1.362 . S
C618 C621 1.409 . S
C619 H611 0.930 . S
C619 C620 1.355 . S
C619 C621 1.415 . S
C620 C619 1.355 . S
C620 C622 1.419 . S
C621 C616 1.425 . S
C621 C618 1.409 . S
C621 C619 1.415 . S
C622 H612 0.930 . S
C622 C620 1.419 . S
C622 C623 1.362 . S
C623 H613 0.930 . S
C623 C616 1.409 . S
C623 C622 1.362 . S
H624 C630 0.930 . S
H625 C633 0.930 . S
H626 C634 0.930 . S
H627 C635 0.930 . S
H628 C638 0.930 . S
H629 C639 0.930 . S
C630 H624 0.930 . S
C630 C631 1.355 . S
C630 C632 1.415 . S
C631 C630 1.355 . S
C631 C633 1.419 . S
C632 C630 1.415 . S
C632 C637 1.425 . S
C632 C639 1.409 . S
C633 H625 0.930 . S
C633 C631 1.419 . S
C633 C634 1.362 . S
C634 H626 0.930 . S
C634 C633 1.362 . S
C634 C637 1.409 . S
C635 H627 0.930 . S
C635 C636 1.355 . S
C635 C637 1.415 . S
C636 C635 1.355 . S
C636 C638 1.419 . S
C637 C632 1.425 . S
C637 C634 1.409 . S
C637 C635 1.415 . S
C638 H628 0.930 . S
C638 C636 1.419 . S
C638 C639 1.362 . S
C639 H629 0.930 . S
C639 C632 1.409 . S
C639 C638 1.362 . S
H640 C646 0.930 . S
H641 C649 0.930 . S
H642 C650 0.930 . S
H643 C651 0.930 . S
H644 C654 0.930 . S
H645 C655 0.930 . S
C646 H640 0.930 . S
C646 C647 1.355 . S
C646 C648 1.415 . S
C647 C646 1.355 . S
C647 C649 1.419 . S
C648 C646 1.415 . S
C648 C653 1.425 . S
C648 C655 1.409 . S
C649 H641 0.930 . S
C649 C647 1.419 . S
C649 C650 1.362 . S
C650 H642 0.930 . S
C650 C649 1.362 . S
C650 C653 1.409 . S
C651 H643 0.930 . S
C651 C652 1.355 . S
C651 C653 1.415 . S
C652 C651 1.355 . S
C652 C654 1.419 . S
C653 C648 1.425 . S
C653 C650 1.409 . S
C653 C651 1.415 . S
C654 H644 0.930 . S
C654 C652 1.419 . S
C654 C655 1.362 . S
C655 H645 0.930 . S
C655 C648 1.409 . S
C655 C654 1.362 . S
H656 C662 0.930 . S
H657 C665 0.930 . S
H658 C666 0.930 1_556 S
H659 C667 0.930 . S
H660 C670 0.930 . S
H661 C671 0.930 1_554 S
C662 H656 0.930 . S
C662 C663 1.355 . S
C662 C664 1.415 . S
C663 C662 1.355 . S
C663 C665 1.419 . S
C664 C662 1.415 . S
C664 C669 1.425 1_554 S
C664 C671 1.409 1_554 S
C665 H657 0.930 . S
C665 C663 1.419 . S
C665 C666 1.362 . S
C666 H658 0.930 1_554 S
C666 C665 1.362 . S
C666 C669 1.409 1_554 S
C667 H659 0.930 . S
C667 C668 1.355 . S
C667 C669 1.415 . S
C668 C667 1.355 . S
C668 C670 1.419 . S
C669 C664 1.425 1_556 S
C669 C666 1.409 1_556 S
C669 C667 1.415 . S
C670 H660 0.930 . S
C670 C668 1.419 . S
C670 C671 1.362 . S
C671 H661 0.930 1_556 S
C671 C664 1.409 1_556 S
C671 C670 1.362 . S
H672 C678 0.930 . S
H673 C681 0.930 . S
H674 C682 0.930 . S
H675 C683 0.930 . S
H676 C686 0.930 . S
H677 C687 0.930 . S
C678 H672 0.930 . S
C678 C679 1.355 . S
C678 C680 1.415 . S
C679 C678 1.355 . S
C679 C681 1.419 . S
C680 C678 1.415 . S
C680 C685 1.425 . S
C680 C687 1.409 . S
C681 H673 0.930 . S
C681 C679 1.419 . S
C681 C682 1.362 . S
C682 H674 0.930 . S
C682 C681 1.362 . S
C682 C685 1.409 . S
C683 H675 0.930 . S
C683 C684 1.355 . S
C683 C685 1.415 . S
C684 C683 1.355 . S
C684 C686 1.419 . S
C685 C680 1.425 . S
C685 C682 1.409 . S
C685 C683 1.415 . S
C686 H676 0.930 . S
C686 C684 1.419 . S
C686 C687 1.362 . S
C687 H677 0.930 . S
C687 C680 1.409 . S
C687 C686 1.362 . S
H688 C694 0.930 . S
H689 C697 0.930 . S
H690 C698 0.930 . S
H691 C699 0.930 . S
H692 C702 0.930 . S
H693 C703 0.930 . S
C694 H688 0.930 . S
C694 C695 1.355 . S
C694 C696 1.415 . S
C695 C694 1.355 . S
C695 C697 1.419 . S
C696 C694 1.415 . S
C696 C701 1.425 . S
C696 C703 1.409 . S
C697 H689 0.930 . S
C697 C695 1.419 . S
C697 C698 1.362 . S
C698 H690 0.930 . S
C698 C697 1.362 . S
C698 C701 1.409 . S
C699 H691 0.930 . S
C699 C700 1.355 . S
C699 C701 1.415 . S
C700 C699 1.355 . S
C700 C702 1.419 . S
C701 C696 1.425 . S
C701 C698 1.409 . S
C701 C699 1.415 . S
C702 H692 0.930 . S
C702 C700 1.419 . S
C702 C703 1.362 . S
C703 H693 0.930 . S
C703 C696 1.409 . S
C703 C702 1.362 . S
H704 C710 0.930 . S
H705 C713 0.930 . S
H706 C714 0.930 . S
H707 C715 0.930 . S
H708 C718 0.930 . S
H709 C719 0.930 . S
C710 H704 0.930 . S
C710 C711 1.355 . S
C710 C712 1.415 . S
C711 C710 1.355 . S
C711 C713 1.419 . S
C712 C710 1.415 . S
C712 C717 1.425 . S
C712 C719 1.409 . S
C713 H705 0.930 . S
C713 C711 1.419 . S
C713 C714 1.362 . S
C714 H706 0.930 . S
C714 C713 1.362 . S
C714 C717 1.409 . S
C715 H707 0.930 . S
C715 C716 1.355 . S
C715 C717 1.415 . S
C716 C715 1.355 . S
C716 C718 1.419 . S
C717 C712 1.425 . S
C717 C714 1.409 . S
C717 C715 1.415 . S
C718 H708 0.930 . S
C718 C716 1.419 . S
C718 C719 1.362 . S
C719 H709 0.930 . S
C719 C712 1.409 . S
C719 C718 1.362 . S
H720 C726 0.930 . S
H721 C729 0.930 . S
H722 C730 0.930 . S
H723 C731 0.930 . S
H724 C734 0.930 . S
H725 C735 0.930 . S
C726 H720 0.930 . S
C726 C727 1.355 . S
C726 C728 1.415 1_655 S
C727 C726 1.355 . S
C727 C729 1.419 . S
C728 C726 1.415 1_455 S
C728 C733 1.425 . S
C728 C735 1.409 . S
C729 H721 0.930 . S
C729 C727 1.419 . S
C729 C730 1.362 1_655 S
C730 H722 0.930 . S
C730 C729 1.362 1_455 S
C730 C733 1.409 . S
C731 H723 0.930 . S
C731 C732 1.355 . S
C731 C733 1.415 . S
C732 C731 1.355 . S
C732 C734 1.419 . S
C733 C728 1.425 . S
C733 C730 1.409 . S
C733 C731 1.415 . S
C734 H724 0.930 . S
C734 C732 1.419 . S
C734 C735 1.362 . S
C735 H725 0.930 . S
C735 C728 1.409 . S
C735 C734 1.362 . S
H736 C742 0.930 . S
H737 C745 0.930 . S
H738 C746 0.930 . S
H739 C747 0.930 . S
H740 C750 0.930 . S
H741 C751 0.930 . S
C742 H736 0.930 . S
C742 C743 1.355 . S
C742 C744 1.415 . S
C743 C742 1.355 . S
C743 C745 1.419 . S
C744 C742 1.415 . S
C744 C749 1.425 . S
C744 C751 1.409 . S
C745 H737 0.930 . S
C745 C743 1.419 . S
C745 C746 1.362 . S
C746 H738 0.930 . S
C746 C745 1.362 . S
C746 C749 1.409 . S
C747 H739 0.930 . S
C747 C748 1.355 . S
C747 C749 1.415 . S
C748 C747 1.355 . S
C748 C750 1.419 . S
C749 C744 1.425 . S
C749 C746 1.409 . S
C749 C747 1.415 . S
C750 H740 0.930 . S
C750 C748 1.419 . S
C750 C751 1.362 . S
C751 H741 0.930 . S
C751 C744 1.409 . S
C751 C750 1.362 . S
H752 C758 0.930 . S
H753 C761 0.930 . S
H754 C762 0.930 . S
H755 C763 0.930 . S
H756 C766 0.930 . S
H757 C767 0.930 . S
C758 H752 0.930 . S
C758 C759 1.355 . S
C758 C760 1.415 . S
C759 C758 1.355 . S
C759 C761 1.419 . S
C760 C758 1.415 . S
C760 C765 1.425 . S
C760 C767 1.409 . S
C761 H753 0.930 . S
C761 C759 1.419 . S
C761 C762 1.362 . S
C762 H754 0.930 . S
C762 C761 1.362 . S
C762 C765 1.409 . S
C763 H755 0.930 . S
C763 C764 1.355 . S
C763 C765 1.415 . S
C764 C763 1.355 . S
C764 C766 1.419 . S
C765 C760 1.425 . S
C765 C762 1.409 . S
C765 C763 1.415 . S
C766 H756 0.930 . S
C766 C764 1.419 . S
C766 C767 1.362 . S
C767 H757 0.930 . S
C767 C760 1.409 . S
C767 C766 1.362 . S
H768 C774 0.930 . S
H769 C777 0.930 . S
H770 C778 0.930 . S
H771 C779 0.930 . S
H772 C782 0.930 . S
H773 C783 0.930 . S
C774 H768 0.930 . S
C774 C775 1.355 . S
C774 C776 1.415 . S
C775 C774 1.355 . S
C775 C777 1.419 . S
C776 C774 1.415 . S
C776 C781 1.425 . S
C776 C783 1.409 . S
C777 H769 0.930 . S
C777 C775 1.419 . S
C777 C778 1.362 . S
C778 H770 0.930 . S
C778 C777 1.362 . S
C778 C781 1.409 . S
C779 H771 0.930 . S
C779 C780 1.355 . S
C779 C781 1.415 . S
C780 C779 1.355 . S
C780 C782 1.419 . S
C781 C776 1.425 . S
C781 C778 1.409 . S
C781 C779 1.415 . S
C782 H772 0.930 . S
C782 C780 1.419 . S
C782 C783 1.362 . S
C783 H773 0.930 . S
C783 C776 1.409 . S
C783 C782 1.362 . S
H784 C790 0.930 . S
H785 C793 0.930 . S
H786 C794 0.930 . S
H787 C795 0.930 . S
H788 C798 0.930 . S
H789 C799 0.930 . S
C790 H784 0.930 . S
C790 C791 1.355 . S
C790 C792 1.415 . S
C791 C790 1.355 . S
C791 C793 1.419 . S
C792 C790 1.415 . S
C792 C797 1.425 . S
C792 C799 1.409 . S
C793 H785 0.930 . S
C793 C791 1.419 . S
C793 C794 1.362 . S
C794 H786 0.930 . S
C794 C793 1.362 . S
C794 C797 1.409 . S
C795 H787 0.930 . S
C795 C796 1.355 . S
C795 C797 1.415 . S
C796 C795 1.355 . S
C796 C798 1.419 . S
C797 C792 1.425 . S
C797 C794 1.409 . S
C797 C795 1.415 . S
C798 H788 0.930 . S
C798 C796 1.419 . S
C798 C799 1.362 . S
C799 H789 0.930 . S
C799 C792 1.409 . S
C799 C798 1.362 . S
H800 C806 0.930 . S
H801 C809 0.930 . S
H802 C810 0.930 . S
H803 C811 0.930 . S
H804 C814 0.930 . S
H805 C815 0.930 . S
C806 H800 0.930 . S
C806 C807 1.355 . S
C806 C808 1.415 . S
C807 C806 1.355 . S
C807 C809 1.419 . S
C808 C806 1.415 . S
C808 C813 1.425 . S
C808 C815 1.409 . S
C809 H801 0.930 . S
C809 C807 1.419 . S
C809 C810 1.362 . S
C810 H802 0.930 . S
C810 C809 1.362 . S
C810 C813 1.409 . S
C811 H803 0.930 . S
C811 C812 1.355 . S
C811 C813 1.415 . S
C812 C811 1.355 . S
C812 C814 1.419 . S
C813 C808 1.425 . S
C813 C810 1.409 . S
C813 C811 1.415 . S
C814 H804 0.930 . S
C814 C812 1.419 . S
C814 C815 1.362 . S
C815 H805 0.930 . S
C815 C808 1.409 . S
C815 C814 1.362 . S
H816 C822 0.930 . S
H817 C825 0.930 . S
H818 C826 0.930 . S
H819 C827 0.930 . S
H820 C830 0.930 . S
H821 C831 0.930 . S
C822 H816 0.930 . S
C822 C823 1.355 . S
C822 C824 1.415 . S
C823 C822 1.355 . S
C823 C825 1.419 . S
C824 C822 1.415 . S
C824 C829 1.425 . S
C824 C831 1.409 . S
C825 H817 0.930 . S
C825 C823 1.419 . S
C825 C826 1.362 . S
C826 H818 0.930 . S
C826 C825 1.362 . S
C826 C829 1.409 . S
C827 H819 0.930 . S
C827 C828 1.355 . S
C827 C829 1.415 1_655 S
C828 C827 1.355 . S
C828 C830 1.419 . S
C829 C824 1.425 . S
C829 C826 1.409 . S
C829 C827 1.415 1_455 S
C830 H820 0.930 . S
C830 C828 1.419 . S
C830 C831 1.362 1_655 S
C831 H821 0.930 . S
C831 C824 1.409 . S
C831 C830 1.362 1_455 S
H832 C838 0.930 . S
H833 C841 0.930 . S
H834 C842 0.930 . S
H835 C843 0.930 . S
H836 C846 0.930 . S
H837 C847 0.930 . S
C838 H832 0.930 . S
C838 C839 1.355 . S
C838 C840 1.415 . S
C839 C838 1.355 . S
C839 C841 1.419 . S
C840 C838 1.415 . S
C840 C845 1.425 . S
C840 C847 1.409 . S
C841 H833 0.930 . S
C841 C839 1.419 . S
C841 C842 1.362 . S
C842 H834 0.930 . S
C842 C841 1.362 . S
C842 C845 1.409 . S
C843 H835 0.930 . S
C843 C844 1.355 . S
C843 C845 1.415 . S
C844 C843 1.355 . S
C844 C846 1.419 . S
C845 C840 1.425 . S
C845 C842 1.409 . S
C845 C843 1.415 . S
C846 H836 0.930 . S
C846 C844 1.419 . S
C846 C847 1.362 . S
C847 H837 0.930 . S
C847 C840 1.409 . S
C847 C846 1.362 . S
H848 C854 0.930 . S
H849 C857 0.930 . S
H850 C858 0.930 . S
H851 C859 0.930 . S
H852 C862 0.930 . S
H853 C863 0.930 . S
C854 H848 0.930 . S
C854 C855 1.355 . S
C854 C856 1.415 . S
C855 C854 1.355 . S
C855 C857 1.419 . S
C856 C854 1.415 . S
C856 C861 1.425 . S
C856 C863 1.409 . S
C857 H849 0.930 . S
C857 C855 1.419 . S
C857 C858 1.362 . S
C858 H850 0.930 . S
C858 C857 1.362 . S
C858 C861 1.409 . S
C859 H851 0.930 . S
C859 C860 1.355 . S
C859 C861 1.415 1_455 S
C860 C859 1.355 . S
C860 C862 1.419 . S
C861 C856 1.425 . S
C861 C858 1.409 . S
C861 C859 1.415 1_655 S
C862 H852 0.930 . S
C862 C860 1.419 . S
C862 C863 1.362 1_455 S
C863 H853 0.930 . S
C863 C856 1.409 . S
C863 C862 1.362 1_655 S
H864 C870 0.930 . S
H865 C873 0.930 . S
H866 C874 0.930 . S
H867 C875 0.930 . S
H868 C878 0.930 . S
H869 C879 0.930 . S
C870 H864 0.930 . S
C870 C871 1.355 . S
C870 C872 1.415 . S
C871 C870 1.355 . S
C871 C873 1.419 . S
C872 C870 1.415 . S
C872 C877 1.425 . S
C872 C879 1.409 . S
C873 H865 0.930 . S
C873 C871 1.419 . S
C873 C874 1.362 . S
C874 H866 0.930 . S
C874 C873 1.362 . S
C874 C877 1.409 . S
C875 H867 0.930 . S
C875 C876 1.355 . S
C875 C877 1.415 . S
C876 C875 1.355 . S
C876 C878 1.419 . S
C877 C872 1.425 . S
C877 C874 1.409 . S
C877 C875 1.415 . S
C878 H868 0.930 . S
C878 C876 1.419 . S
C878 C879 1.362 . S
C879 H869 0.930 . S
C879 C872 1.409 . S
C879 C878 1.362 . S
H880 C886 0.930 . S
H881 C889 0.930 . S
H882 C890 0.930 . S
H883 C891 0.930 . S
H884 C894 0.930 . S
H885 C895 0.930 . S
C886 H880 0.930 . S
C886 C887 1.355 . S
C886 C888 1.415 . S
C887 C886 1.355 . S
C887 C889 1.419 . S
C888 C886 1.415 . S
C888 C893 1.425 . S
C888 C895 1.409 . S
C889 H881 0.930 . S
C889 C887 1.419 . S
C889 C890 1.362 . S
C890 H882 0.930 . S
C890 C889 1.362 . S
C890 C893 1.409 . S
C891 H883 0.930 . S
C891 C892 1.355 . S
C891 C893 1.415 . S
C892 C891 1.355 . S
C892 C894 1.419 . S
C893 C888 1.425 . S
C893 C890 1.409 . S
C893 C891 1.415 . S
C894 H884 0.930 . S
C894 C892 1.419 . S
C894 C895 1.362 . S
C895 H885 0.930 . S
C895 C888 1.409 . S
C895 C894 1.362 . S
H896 C902 0.930 . S
H897 C905 0.930 . S
H898 C906 0.930 . S
H899 C907 0.930 . S
H900 C910 0.930 . S
H901 C911 0.930 . S
C902 H896 0.930 . S
C902 C903 1.355 . S
C902 C904 1.415 . S
C903 C902 1.355 . S
C903 C905 1.419 . S
C904 C902 1.415 . S
C904 C909 1.425 . S
C904 C911 1.409 . S
C905 H897 0.930 . S
C905 C903 1.419 . S
C905 C906 1.362 . S
C906 H898 0.930 . S
C906 C905 1.362 . S
C906 C909 1.409 . S
C907 H899 0.930 . S
C907 C908 1.355 . S
C907 C909 1.415 . S
C908 C907 1.355 . S
C908 C910 1.419 . S
C909 C904 1.425 . S
C909 C906 1.409 . S
C909 C907 1.415 . S
C910 H900 0.930 . S
C910 C908 1.419 . S
C910 C911 1.362 . S
C911 H901 0.930 . S
C911 C904 1.409 . S
C911 C910 1.362 . S
H912 C918 0.930 . S
H913 C921 0.930 . S
H914 C922 0.930 . S
H915 C923 0.930 . S
H916 C926 0.930 . S
H917 C927 0.930 . S
C918 H912 0.930 . S
C918 C919 1.355 . S
C918 C920 1.415 . S
C919 C918 1.355 . S
C919 C921 1.419 . S
C920 C918 1.415 . S
C920 C925 1.425 . S
C920 C927 1.409 . S
C921 H913 0.930 . S
C921 C919 1.419 . S
C921 C922 1.362 . S
C922 H914 0.930 . S
C922 C921 1.362 . S
C922 C925 1.409 . S
C923 H915 0.930 . S
C923 C924 1.355 . S
C923 C925 1.415 . S
C924 C923 1.355 . S
C924 C926 1.419 . S
C925 C920 1.425 . S
C925 C922 1.409 . S
C925 C923 1.415 . S
C926 H916 0.930 . S
C926 C924 1.419 . S
C926 C927 1.362 . S
C927 H917 0.930 . S
C927 C920 1.409 . S
C927 C926 1.362 . S
H928 C934 0.930 . S
H929 C937 0.930 . S
H930 C938 0.930 . S
H931 C939 0.930 . S
H932 C942 0.930 . S
H933 C943 0.930 . S
C934 H928 0.930 . S
C934 C935 1.355 . S
C934 C936 1.415 . S
C935 C934 1.355 . S
C935 C937 1.419 . S
C936 C934 1.415 . S
C936 C941 1.425 . S
C936 C943 1.409 . S
C937 H929 0.930 . S
C937 C935 1.419 . S
C937 C938 1.362 . S
C938 H930 0.930 . S
C938 C937 1.362 . S
C938 C941 1.409 . S
C939 H931 0.930 . S
C939 C940 1.355 . S
C939 C941 1.415 . S
C940 C939 1.355 . S
C940 C942 1.419 . S
C941 C936 1.425 . S
C941 C938 1.409 . S
C941 C939 1.415 . S
C942 H932 0.930 . S
C942 C940 1.419 . S
C942 C943 1.362 . S
C943 H933 0.930 . S
C943 C936 1.409 . S
C943 C942 1.362 . S
H944 C950 0.930 . S
H945 C953 0.930 . S
H946 C954 0.930 . S
H947 C955 0.930 . S
H948 C958 0.930 . S
H949 C959 0.930 . S
C950 H944 0.930 . S
C950 C951 1.355 . S
C950 C952 1.415 . S
C951 C950 1.355 . S
C951 C953 1.419 . S
C952 C950 1.415 . S
C952 C957 1.425 . S
C952 C959 1.409 . S
C953 H945 0.930 . S
C953 C951 1.419 . S
C953 C954 1.362 . S
C954 H946 0.930 . S
C954 C953 1.362 . S
C954 C957 1.409 . S
C955 H947 0.930 . S
C955 C956 1.355 . S
C955 C957 1.415 1_455 S
C956 C955 1.355 . S
C956 C958 1.419 . S
C957 C952 1.425 . S
C957 C954 1.409 . S
C957 C955 1.415 1_655 S
C958 H948 0.930 . S
C958 C956 1.419 . S
C958 C959 1.362 1_455 S
C959 H949 0.930 . S
C959 C952 1.409 . S
C959 C958 1.362 1_655 S
H960 C966 0.930 . S
H961 C969 0.930 . S
H962 C970 0.930 . S
H963 C971 0.930 . S
H964 C974 0.930 . S
H965 C975 0.930 . S
C966 H960 0.930 . S
C966 C967 1.355 . S
C966 C968 1.415 . S
C967 C966 1.355 . S
C967 C969 1.419 . S
C968 C966 1.415 . S
C968 C973 1.425 . S
C968 C975 1.409 . S
C969 H961 0.930 . S
C969 C967 1.419 . S
C969 C970 1.362 . S
C970 H962 0.930 . S
C970 C969 1.362 . S
C970 C973 1.409 . S
C971 H963 0.930 . S
C971 C972 1.355 . S
C971 C973 1.415 . S
C972 C971 1.355 . S
C972 C974 1.419 . S
C973 C968 1.425 . S
C973 C970 1.409 . S
C973 C971 1.415 . S
C974 H964 0.930 . S
C974 C972 1.419 . S
C974 C975 1.362 . S
C975 H965 0.930 . S
C975 C968 1.409 . S
C975 C974 1.362 . S
H976 C982 0.930 . S
H977 C985 0.930 . S
H978 C986 0.930 . S
H979 C987 0.930 . S
H980 C990 0.930 . S
H981 C991 0.930 . S
C982 H976 0.930 . S
C982 C983 1.355 . S
C982 C984 1.415 . S
C983 C982 1.355 . S
C983 C985 1.419 . S
C984 C982 1.415 . S
C984 C989 1.425 . S
C984 C991 1.409 . S
C985 H977 0.930 . S
C985 C983 1.419 . S
C985 C986 1.362 . S
C986 H978 0.930 . S
C986 C985 1.362 . S
C986 C989 1.409 . S
C987 H979 0.930 . S
C987 C988 1.355 . S
C987 C989 1.415 . S
C988 C987 1.355 . S
C988 C990 1.419 . S
C989 C984 1.425 . S
C989 C986 1.409 . S
C989 C987 1.415 . S
C990 H980 0.930 . S
C990 C988 1.419 . S
C990 C991 1.362 . S
C991 H981 0.930 . S
C991 C984 1.409 . S
C991 C990 1.362 . S
H992 C998 0.930 . S
H993 C1001 0.930 . S
H994 C1002 0.930 . S
H995 C1003 0.930 . S
H996 C1006 0.930 . S
H997 C1007 0.930 . S
C998 H992 0.930 . S
C998 C999 1.355 . S
C998 C1000 1.415 . S
C999 C998 1.355 . S
C999 C1001 1.419 . S
C1000 C998 1.415 . S
C1000 C1005 1.425 . S
C1000 C1007 1.409 . S
C1001 H993 0.930 . S
C1001 C999 1.419 . S
C1001 C1002 1.362 . S
C1002 H994 0.930 . S
C1002 C1001 1.362 . S
C1002 C1005 1.409 . S
C1003 H995 0.930 . S
C1003 C1004 1.355 . S
C1003 C1005 1.415 . S
C1004 C1003 1.355 . S
C1004 C1006 1.419 . S
C1005 C1000 1.425 . S
C1005 C1002 1.409 . S
C1005 C1003 1.415 . S
C1006 H996 0.930 . S
C1006 C1004 1.419 . S
C1006 C1007 1.362 . S
C1007 H997 0.930 . S
C1007 C1000 1.409 . S
C1007 C1006 1.362 . S
H1008 C1014 0.930 . S
H1009 C1017 0.930 . S
H1010 C1018 0.930 . S
H1011 C1019 0.930 . S
H1012 C1022 0.930 . S
H1013 C1023 0.937 . S
C1014 H1008 0.930 . S
C1014 C1015 1.355 . S
C1014 C1016 1.415 . S
C1015 C1014 1.355 . S
C1015 C1017 1.419 . S
C1016 C1014 1.415 . S
C1016 C1021 1.425 . S
C1016 C1023 1.433 . S
C1017 H1009 0.930 . S
C1017 C1015 1.419 . S
C1017 C1018 1.362 . S
C1018 H1010 0.930 . S
C1018 C1017 1.362 . S
C1018 C1021 1.409 . S
C1019 H1011 0.930 . S
C1019 C1020 1.355 . S
C1019 C1021 1.415 1_455 S
C1020 C1019 1.355 . S
C1020 C1022 1.419 . S
C1021 C1016 1.425 . S
C1021 C1018 1.409 . S
C1021 C1019 1.415 1_655 S
C1022 H1012 0.930 . S
C1022 C1020 1.419 . S
C1022 C1023 1.333 1_455 S
C1023 H1013 0.937 . S
C1023 C1016 1.433 . S
C1023 C1022 1.333 1_655 S
H1024 C1030 0.930 . S
H1025 C1033 0.930 . S
H1026 C1034 0.930 . S
H1027 C1035 0.930 . S
H1028 C1038 0.930 . S
H1029 C1039 0.930 . S
C1030 H1024 0.930 . S
C1030 C1031 1.355 . S
C1030 C1032 1.415 . S
C1031 C1030 1.355 . S
C1031 C1033 1.419 . S
C1032 C1030 1.415 . S
C1032 C1037 1.425 . S
C1032 C1039 1.409 . S
C1033 H1025 0.930 . S
C1033 C1031 1.419 . S
C1033 C1034 1.362 . S
C1034 H1026 0.930 . S
C1034 C1033 1.362 . S
C1034 C1037 1.409 . S
C1035 H1027 0.930 . S
C1035 C1036 1.355 . S
C1035 C1037 1.415 . S
C1036 C1035 1.355 . S
C1036 C1038 1.419 . S
C1037 C1032 1.425 . S
C1037 C1034 1.409 . S
C1037 C1035 1.415 . S
C1038 H1028 0.930 . S
C1038 C1036 1.419 . S
C1038 C1039 1.362 . S
C1039 H1029 0.930 . S
C1039 C1032 1.409 . S
C1039 C1038 1.362 . S
H1040 C1046 0.930 . S
H1041 C1049 0.930 . S
H1042 C1050 0.930 . S
H1043 C1051 0.930 . S
H1044 C1054 0.930 . S
H1045 C1055 0.930 . S
C1046 H1040 0.930 . S
C1046 C1047 1.355 . S
C1046 C1048 1.415 1_455 S
C1047 C1046 1.355 . S
C1047 C1049 1.419 . S
C1048 C1046 1.415 1_655 S
C1048 C1053 1.425 . S
C1048 C1055 1.409 . S
C1049 H1041 0.930 . S
C1049 C1047 1.419 . S
C1049 C1050 1.362 1_455 S
C1050 H1042 0.930 . S
C1050 C1049 1.362 1_655 S
C1050 C1053 1.409 . S
C1051 H1043 0.930 . S
C1051 C1052 1.355 . S
C1051 C1053 1.415 . S
C1052 C1051 1.355 . S
C1052 C1054 1.419 . S
C1053 C1048 1.425 . S
C1053 C1050 1.409 . S
C1053 C1051 1.415 . S
C1054 H1044 0.930 . S
C1054 C1052 1.419 . S
C1054 C1055 1.362 . S
C1055 H1045 0.930 . S
C1055 C1048 1.409 . S
C1055 C1054 1.362 . S
H1056 C1062 0.930 . S
H1057 C1065 0.930 . S
H1058 C1066 0.930 . S
H1059 C1067 0.930 . S
H1060 C1070 0.930 . S
H1061 C1071 0.930 . S
C1062 H1056 0.930 . S
C1062 C1063 1.355 . S
C1062 C1064 1.415 . S
C1063 C1062 1.355 . S
C1063 C1065 1.419 . S
C1064 C1062 1.415 . S
C1064 C1069 1.425 . S
C1064 C1071 1.409 . S
C1065 H1057 0.930 . S
C1065 C1063 1.419 . S
C1065 C1066 1.362 . S
C1066 H1058 0.930 . S
C1066 C1065 1.362 . S
C1066 C1069 1.409 . S
C1067 H1059 0.930 . S
C1067 C1068 1.355 . S
C1067 C1069 1.415 . S
C1068 C1067 1.355 . S
C1068 C1070 1.419 . S
C1069 C1064 1.425 . S
C1069 C1066 1.409 . S
C1069 C1067 1.415 . S
C1070 H1060 0.930 . S
C1070 C1068 1.419 . S
C1070 C1071 1.362 . S
C1071 H1061 0.930 . S
C1071 C1064 1.409 . S
C1071 C1070 1.362 . S
H1072 C1078 0.930 . S
H1073 C1081 0.930 . S
H1074 C1082 0.930 . S
H1075 C1083 0.930 . S
H1076 C1086 0.930 . S
H1077 C1087 0.930 . S
C1078 H1072 0.930 . S
C1078 C1079 1.355 . S
C1078 C1080 1.415 . S
C1079 C1078 1.355 . S
C1079 C1081 1.419 . S
C1080 C1078 1.415 . S
C1080 C1085 1.425 . S
C1080 C1087 1.409 . S
C1081 H1073 0.930 . S
C1081 C1079 1.419 . S
C1081 C1082 1.362 . S
C1082 H1074 0.930 . S
C1082 C1081 1.362 . S
C1082 C1085 1.409 . S
C1083 H1075 0.930 . S
C1083 C1084 1.355 . S
C1083 C1085 1.415 . S
C1084 C1083 1.355 . S
C1084 C1086 1.419 . S
C1085 C1080 1.425 . S
C1085 C1082 1.409 . S
C1085 C1083 1.415 . S
C1086 H1076 0.930 . S
C1086 C1084 1.419 . S
C1086 C1087 1.362 . S
C1087 H1077 0.930 . S
C1087 C1080 1.409 . S
C1087 C1086 1.362 . S
H1088 C1094 0.930 . S
H1089 C1097 0.930 . S
H1090 C1098 0.930 . S
H1091 C1099 0.930 . S
H1092 C1102 0.930 . S
H1093 C1103 0.930 . S
C1094 H1088 0.930 . S
C1094 C1095 1.355 . S
C1094 C1096 1.415 . S
C1095 C1094 1.355 . S
C1095 C1097 1.419 . S
C1096 C1094 1.415 . S
C1096 C1101 1.425 . S
C1096 C1103 1.409 . S
C1097 H1089 0.930 . S
C1097 C1095 1.419 . S
C1097 C1098 1.362 . S
C1098 H1090 0.930 . S
C1098 C1097 1.362 . S
C1098 C1101 1.409 . S
C1099 H1091 0.930 . S
C1099 C1100 1.355 . S
C1099 C1101 1.415 . S
C1100 C1099 1.355 . S
C1100 C1102 1.419 . S
C1101 C1096 1.425 . S
C1101 C1098 1.409 . S
C1101 C1099 1.415 . S
C1102 H1092 0.930 . S
C1102 C1100 1.419 . S
C1102 C1103 1.362 . S
C1103 H1093 0.930 . S
C1103 C1096 1.409 . S
C1103 C1102 1.362 . S
H1104 C1110 0.930 . S
H1105 C1113 0.930 . S
H1106 C1114 0.930 . S
H1107 C1115 0.930 . S
H1108 C1118 0.930 . S
H1109 C1119 0.930 . S
C1110 H1104 0.930 . S
C1110 C1111 1.355 . S
C1110 C1112 1.415 . S
C1111 C1110 1.355 . S
C1111 C1113 1.419 . S
C1112 C1110 1.415 . S
C1112 C1117 1.425 . S
C1112 C1119 1.409 . S
C1113 H1105 0.930 . S
C1113 C1111 1.419 . S
C1113 C1114 1.362 . S
C1114 H1106 0.930 . S
C1114 C1113 1.362 . S
C1114 C1117 1.409 . S
C1115 H1107 0.930 . S
C1115 C1116 1.355 . S
C1115 C1117 1.415 . S
C1116 C1115 1.355 . S
C1116 C1118 1.419 . S
C1117 C1112 1.425 . S
C1117 C1114 1.409 . S
C1117 C1115 1.415 . S
C1118 H1108 0.930 . S
C1118 C1116 1.419 . S
C1118 C1119 1.362 . S
C1119 H1109 0.930 . S
C1119 C1112 1.409 . S
C1119 C1118 1.362 . S
H1120 C1126 0.930 . S
H1121 C1129 0.930 . S
H1122 C1130 0.930 . S
H1123 C1131 0.930 . S
H1124 C1134 0.930 . S
H1125 C1135 0.930 . S
C1126 H1120 0.930 . S
C1126 C1127 1.355 . S
C1126 C1128 1.415 . S
C1127 C1126 1.355 . S
C1127 C1129 1.419 . S
C1128 C1126 1.415 . S
C1128 C1133 1.425 . S
C1128 C1135 1.409 . S
C1129 H1121 0.930 . S
C1129 C1127 1.419 . S
C1129 C1130 1.362 . S
C1130 H1122 0.930 . S
C1130 C1129 1.362 . S
C1130 C1133 1.409 . S
C1131 H1123 0.930 . S
C1131 C1132 1.355 . S
C1131 C1133 1.415 . S
C1132 C1131 1.355 . S
C1132 C1134 1.419 . S
C1133 C1128 1.425 . S
C1133 C1130 1.409 . S
C1133 C1131 1.415 . S
C1134 H1124 0.930 . S
C1134 C1132 1.419 . S
C1134 C1135 1.362 . S
C1135 H1125 0.930 . S
C1135 C1128 1.409 . S
C1135 C1134 1.362 . S
H1136 C1142 0.930 . S
H1137 C1145 0.930 . S
H1138 C1146 0.930 . S
H1139 C1147 0.930 . S
H1140 C1150 0.930 . S
H1141 C1151 0.930 . S
C1142 H1136 0.930 . S
C1142 C1143 1.355 . S
C1142 C1144 1.415 . S
C1143 C1142 1.355 . S
C1143 C1145 1.419 . S
C1144 C1142 1.415 . S
C1144 C1149 1.425 . S
C1144 C1151 1.409 . S
C1145 H1137 0.930 . S
C1145 C1143 1.419 . S
C1145 C1146 1.362 . S
C1146 H1138 0.930 . S
C1146 C1145 1.362 . S
C1146 C1149 1.409 . S
C1147 H1139 0.930 . S
C1147 C1148 1.355 . S
C1147 C1149 1.415 1_655 S
C1148 C1147 1.355 . S
C1148 C1150 1.419 . S
C1149 C1144 1.425 . S
C1149 C1146 1.409 . S
C1149 C1147 1.415 1_455 S
C1150 H1140 0.930 . S
C1150 C1148 1.419 . S
C1150 C1151 1.362 1_655 S
C1151 H1141 0.930 . S
C1151 C1144 1.409 . S
C1151 C1150 1.362 1_455 S
H1152 C1158 0.930 . S
H1153 C1161 0.930 . S
H1154 C1162 0.930 . S
H1155 C1163 0.930 . S
H1156 C1166 0.930 . S
H1157 C1167 0.930 . S
C1158 H1152 0.930 . S
C1158 C1159 1.355 . S
C1158 C1160 1.415 . S
C1159 C1158 1.355 . S
C1159 C1161 1.419 . S
C1160 C1158 1.415 . S
C1160 C1165 1.425 . S
C1160 C1167 1.409 . S
C1161 H1153 0.930 . S
C1161 C1159 1.419 . S
C1161 C1162 1.362 . S
C1162 H1154 0.930 . S
C1162 C1161 1.362 . S
C1162 C1165 1.409 . S
C1163 H1155 0.930 . S
C1163 C1164 1.355 . S
C1163 C1165 1.415 . S
C1164 C1163 1.355 . S
C1164 C1166 1.419 . S
C1165 C1160 1.425 . S
C1165 C1162 1.409 . S
C1165 C1163 1.415 . S
C1166 H1156 0.930 . S
C1166 C1164 1.419 . S
C1166 C1167 1.362 . S
C1167 H1157 0.930 . S
C1167 C1160 1.409 . S
C1167 C1166 1.362 . S
H1168 C1174 0.930 . S
H1169 C1177 0.930 . S
H1170 C1178 0.930 . S
H1171 C1179 0.930 . S
H1172 C1182 0.930 . S
H1173 C1183 0.930 . S
C1174 H1168 0.930 . S
C1174 C1175 1.355 . S
C1174 C1176 1.415 1_655 S
C1175 C1174 1.355 . S
C1175 C1177 1.419 . S
C1176 C1174 1.415 1_455 S
C1176 C1181 1.425 . S
C1176 C1183 1.409 . S
C1177 H1169 0.930 . S
C1177 C1175 1.419 . S
C1177 C1178 1.362 1_655 S
C1178 H1170 0.930 . S
C1178 C1177 1.362 1_455 S
C1178 C1181 1.409 . S
C1179 H1171 0.930 . S
C1179 C1180 1.355 . S
C1179 C1181 1.415 . S
C1180 C1179 1.355 . S
C1180 C1182 1.419 . S
C1181 C1176 1.425 . S
C1181 C1178 1.409 . S
C1181 C1179 1.415 . S
C1182 H1172 0.930 . S
C1182 C1180 1.419 . S
C1182 C1183 1.362 . S
C1183 H1173 0.930 . S
C1183 C1176 1.409 . S
C1183 C1182 1.362 . S
H1184 C1190 0.930 . S
H1185 C1193 0.930 . S
H1186 C1194 0.930 . S
H1187 C1195 0.930 . S
H1188 C1198 0.930 . S
H1189 C1199 0.930 . S
C1190 H1184 0.930 . S
C1190 C1191 1.355 . S
C1190 C1192 1.415 . S
C1191 C1190 1.355 . S
C1191 C1193 1.419 . S
C1192 C1190 1.415 . S
C1192 C1197 1.425 . S
C1192 C1199 1.409 . S
C1193 H1185 0.930 . S
C1193 C1191 1.419 . S
C1193 C1194 1.362 . S
C1194 H1186 0.930 . S
C1194 C1193 1.362 . S
C1194 C1197 1.409 . S
C1195 H1187 0.930 . S
C1195 C1196 1.355 . S
C1195 C1197 1.415 . S
C1196 C1195 1.355 . S
C1196 C1198 1.419 . S
C1197 C1192 1.425 . S
C1197 C1194 1.409 . S
C1197 C1195 1.415 . S
C1198 H1188 0.930 . S
C1198 C1196 1.419 . S
C1198 C1199 1.362 . S
C1199 H1189 0.930 . S
C1199 C1192 1.409 . S
C1199 C1198 1.362 . S
H1200 C1206 0.930 . S
H1201 C1209 0.930 . S
H1202 C1210 0.930 . S
H1203 C1211 0.930 . S
H1204 C1214 0.930 . S
H1205 C1215 0.930 . S
C1206 H1200 0.930 . S
C1206 C1207 1.355 . S
C1206 C1208 1.415 . S
C1207 C1206 1.355 . S
C1207 C1209 1.419 . S
C1208 C1206 1.415 . S
C1208 C1213 1.425 . S
C1208 C1215 1.409 . S
C1209 H1201 0.930 . S
C1209 C1207 1.419 . S
C1209 C1210 1.362 . S
C1210 H1202 0.930 . S
C1210 C1209 1.362 . S
C1210 C1213 1.409 . S
C1211 H1203 0.930 . S
C1211 C1212 1.355 . S
C1211 C1213 1.415 . S
C1212 C1211 1.355 . S
C1212 C1214 1.419 . S
C1213 C1208 1.425 . S
C1213 C1210 1.409 . S
C1213 C1211 1.415 . S
C1214 H1204 0.930 . S
C1214 C1212 1.419 . S
C1214 C1215 1.362 . S
C1215 H1205 0.930 . S
C1215 C1208 1.409 . S
C1215 C1214 1.362 . S
H1216 C1222 0.930 . S
H1217 C1225 0.930 . S
H1218 C1226 0.930 . S
H1219 C1227 0.930 . S
H1220 C1230 0.930 . S
H1221 C1231 0.930 . S
C1222 H1216 0.930 . S
C1222 C1223 1.355 . S
C1222 C1224 1.415 . S
C1223 C1222 1.355 . S
C1223 C1225 1.419 . S
C1224 C1222 1.415 . S
C1224 C1229 1.425 . S
C1224 C1231 1.409 . S
C1225 H1217 0.930 . S
C1225 C1223 1.419 . S
C1225 C1226 1.362 . S
C1226 H1218 0.930 . S
C1226 C1225 1.362 . S
C1226 C1229 1.409 . S
C1227 H1219 0.930 . S
C1227 C1228 1.355 . S
C1227 C1229 1.415 . S
C1228 C1227 1.355 . S
C1228 C1230 1.419 . S
C1229 C1224 1.425 . S
C1229 C1226 1.409 . S
C1229 C1227 1.415 . S
C1230 H1220 0.930 . S
C1230 C1228 1.419 . S
C1230 C1231 1.362 . S
C1231 H1221 0.930 . S
C1231 C1224 1.409 . S
C1231 C1230 1.362 . S
H1232 C1238 0.930 . S
H1233 C1241 0.930 . S
H1234 C1242 0.930 . S
H1235 C1243 0.930 . S
H1236 C1246 0.930 . S
H1237 C1247 0.930 . S
C1238 H1232 0.930 . S
C1238 C1239 1.355 . S
C1238 C1240 1.415 . S
C1239 C1238 1.355 . S
C1239 C1241 1.419 . S
C1240 C1238 1.415 . S
C1240 C1245 1.425 . S
C1240 C1247 1.409 . S
C1241 H1233 0.930 . S
C1241 C1239 1.419 . S
C1241 C1242 1.362 . S
C1242 H1234 0.930 . S
C1242 C1241 1.362 . S
C1242 C1245 1.409 . S
C1243 H1235 0.930 . S
C1243 C1244 1.355 . S
C1243 C1245 1.415 . S
C1244 C1243 1.355 . S
C1244 C1246 1.419 . S
C1245 C1240 1.425 . S
C1245 C1242 1.409 . S
C1245 C1243 1.415 . S
C1246 H1236 0.930 . S
C1246 C1244 1.419 . S
C1246 C1247 1.362 . S
C1247 H1237 0.930 . S
C1247 C1240 1.409 . S
C1247 C1246 1.362 . S
H1248 C1254 0.930 . S
H1249 C1257 0.930 . S
H1250 C1258 0.930 . S
H1251 C1259 0.930 . S
H1252 C1262 0.930 . S
H1253 C1263 0.930 . S
C1254 H1248 0.930 . S
C1254 C1255 1.355 . S
C1254 C1256 1.415 . S
C1255 C1254 1.355 . S
C1255 C1257 1.419 . S
C1256 C1254 1.415 . S
C1256 C1261 1.425 . S
C1256 C1263 1.409 . S
C1257 H1249 0.930 . S
C1257 C1255 1.419 . S
C1257 C1258 1.362 . S
C1258 H1250 0.930 . S
C1258 C1257 1.362 . S
C1258 C1261 1.409 . S
C1259 H1251 0.930 . S
C1259 C1260 1.355 . S
C1259 C1261 1.415 . S
C1260 C1259 1.355 . S
C1260 C1262 1.419 . S
C1261 C1256 1.425 . S
C1261 C1258 1.409 . S
C1261 C1259 1.415 . S
C1262 H1252 0.930 . S
C1262 C1260 1.419 . S
C1262 C1263 1.362 . S
C1263 H1253 0.930 . S
C1263 C1256 1.409 . S
C1263 C1262 1.362 . S
H1264 C1270 0.930 . S
H1265 C1273 0.930 . S
H1266 C1274 0.930 . S
H1267 C1275 0.930 . S
H1268 C1278 0.930 . S
H1269 C1279 0.930 . S
C1270 H1264 0.930 . S
C1270 C1271 1.355 . S
C1270 C1272 1.415 . S
C1271 C1270 1.355 . S
C1271 C1273 1.419 . S
C1272 C1270 1.415 . S
C1272 C1277 1.425 . S
C1272 C1279 1.409 . S
C1273 H1265 0.930 . S
C1273 C1271 1.419 . S
C1273 C1274 1.362 . S
C1274 H1266 0.930 . S
C1274 C1273 1.362 . S
C1274 C1277 1.409 . S
C1275 H1267 0.930 . S
C1275 C1276 1.355 . S
C1275 C1277 1.415 . S
C1276 C1275 1.355 . S
C1276 C1278 1.419 . S
C1277 C1272 1.425 . S
C1277 C1274 1.409 . S
C1277 C1275 1.415 . S
C1278 H1268 0.930 . S
C1278 C1276 1.419 . S
C1278 C1279 1.362 . S
C1279 H1269 0.930 . S
C1279 C1272 1.409 . S
C1279 C1278 1.362 . S
H1280 C1286 0.930 . S
H1281 C1289 0.930 . S
H1282 C1290 0.930 . S
H1283 C1291 0.930 . S
H1284 C1294 0.930 . S
H1285 C1295 0.930 . S
C1286 H1280 0.930 . S
C1286 C1287 1.355 . S
C1286 C1288 1.415 . S
C1287 C1286 1.355 . S
C1287 C1289 1.419 . S
C1288 C1286 1.415 . S
C1288 C1293 1.425 . S
C1288 C1295 1.409 . S
C1289 H1281 0.930 . S
C1289 C1287 1.419 . S
C1289 C1290 1.362 . S
C1290 H1282 0.930 . S
C1290 C1289 1.362 . S
C1290 C1293 1.409 . S
C1291 H1283 0.930 . S
C1291 C1292 1.355 . S
C1291 C1293 1.415 . S
C1292 C1291 1.355 . S
C1292 C1294 1.419 . S
C1293 C1288 1.425 . S
C1293 C1290 1.409 . S
C1293 C1291 1.415 . S
C1294 H1284 0.930 . S
C1294 C1292 1.419 . S
C1294 C1295 1.362 . S
C1295 H1285 0.930 . S
C1295 C1288 1.409 . S
C1295 C1294 1.362 . S
H1296 C1302 0.930 . S
H1297 C1305 0.930 . S
H1298 C1306 0.930 . S
H1299 C1307 0.930 . S
H1300 C1310 0.930 . S
H1301 C1311 0.930 . S
C1302 H1296 0.930 . S
C1302 C1303 1.355 . S
C1302 C1304 1.415 . S
C1303 C1302 1.355 . S
C1303 C1305 1.419 . S
C1304 C1302 1.415 . S
C1304 C1309 1.425 . S
C1304 C1311 1.409 . S
C1305 H1297 0.930 . S
C1305 C1303 1.419 . S
C1305 C1306 1.362 . S
C1306 H1298 0.930 . S
C1306 C1305 1.362 . S
C1306 C1309 1.409 . S
C1307 H1299 0.930 . S
C1307 C1308 1.355 . S
C1307 C1309 1.415 . S
C1308 C1307 1.355 . S
C1308 C1310 1.419 . S
C1309 C1304 1.425 . S
C1309 C1306 1.409 . S
C1309 C1307 1.415 . S
C1310 H1300 0.930 . S
C1310 C1308 1.419 . S
C1310 C1311 1.362 . S
C1311 H1301 0.930 . S
C1311 C1304 1.409 . S
C1311 C1310 1.362 . S
H1312 C1318 0.930 . S
H1313 C1321 0.930 . S
H1314 C1322 0.930 . S
H1315 C1323 0.930 . S
H1316 C1326 0.930 . S
H1317 C1327 0.930 . S
C1318 H1312 0.930 . S
C1318 C1319 1.355 . S
C1318 C1320 1.415 . S
C1319 C1318 1.355 . S
C1319 C1321 1.419 . S
C1320 C1318 1.415 . S
C1320 C1325 1.425 . S
C1320 C1327 1.409 . S
C1321 H1313 0.930 . S
C1321 C1319 1.419 . S
C1321 C1322 1.362 . S
C1322 H1314 0.930 . S
C1322 C1321 1.362 . S
C1322 C1325 1.409 . S
C1323 H1315 0.930 . S
C1323 C1324 1.355 . S
C1323 C1325 1.415 . S
C1324 C1323 1.355 . S
C1324 C1326 1.419 . S
C1325 C1320 1.425 . S
C1325 C1322 1.409 . S
C1325 C1323 1.415 . S
C1326 H1316 0.930 . S
C1326 C1324 1.419 . S
C1326 C1327 1.362 . S
C1327 H1317 0.930 . S
C1327 C1320 1.409 . S
C1327 C1326 1.362 . S
H1328 C1334 0.930 . S
H1329 C1337 0.930 . S
H1330 C1338 0.930 . S
H1331 C1339 0.930 . S
H1332 C1342 0.930 . S
H1333 C1343 0.930 . S
C1334 H1328 0.930 . S
C1334 C1335 1.355 . S
C1334 C1336 1.415 . S
C1335 C1334 1.355 . S
C1335 C1337 1.419 . S
C1336 C1334 1.415 . S
C1336 C1341 1.425 . S
C1336 C1343 1.409 . S
C1337 H1329 0.930 . S
C1337 C1335 1.419 . S
C1337 C1338 1.362 . S
C1338 H1330 0.930 . S
C1338 C1337 1.362 . S
C1338 C1341 1.409 . S
C1339 H1331 0.930 . S
C1339 C1340 1.355 . S
C1339 C1341 1.415 . S
C1340 C1339 1.355 . S
C1340 C1342 1.419 . S
C1341 C1336 1.425 . S
C1341 C1338 1.409 . S
C1341 C1339 1.415 . S
C1342 H1332 0.930 . S
C1342 C1340 1.419 . S
C1342 C1343 1.362 . S
C1343 H1333 0.930 . S
C1343 C1336 1.409 . S
C1343 C1342 1.362 . S
H1344 C1350 0.930 . S
H1345 C1353 0.930 . S
H1346 C1354 0.930 . S
H1347 C1355 0.930 . S
H1348 C1358 0.930 . S
H1349 C1359 0.930 . S
C1350 H1344 0.930 . S
C1350 C1351 1.355 . S
C1350 C1352 1.415 . S
C1351 C1350 1.355 . S
C1351 C1353 1.419 . S
C1352 C1350 1.415 . S
C1352 C1357 1.425 . S
C1352 C1359 1.409 . S
C1353 H1345 0.930 . S
C1353 C1351 1.419 . S
C1353 C1354 1.362 . S
C1354 H1346 0.930 . S
C1354 C1353 1.362 . S
C1354 C1357 1.409 . S
C1355 H1347 0.930 . S
C1355 C1356 1.355 . S
C1355 C1357 1.415 . S
C1356 C1355 1.355 . S
C1356 C1358 1.419 . S
C1357 C1352 1.425 . S
C1357 C1354 1.409 . S
C1357 C1355 1.415 . S
C1358 H1348 0.930 . S
C1358 C1356 1.419 . S
C1358 C1359 1.362 . S
C1359 H1349 0.930 . S
C1359 C1352 1.409 . S
C1359 C1358 1.362 . S
H1360 C1366 0.930 . S
H1361 C1369 0.930 . S
H1362 C1370 0.930 . S
H1363 C1371 0.930 . S
H1364 C1374 0.930 . S
H1365 C1375 0.930 . S
C1366 H1360 0.930 . S
C1366 C1367 1.355 . S
C1366 C1368 1.415 . S
C1367 C1366 1.355 . S
C1367 C1369 1.419 . S
C1368 C1366 1.415 . S
C1368 C1373 1.425 . S
C1368 C1375 1.409 . S
C1369 H1361 0.930 . S
C1369 C1367 1.419 . S
C1369 C1370 1.362 . S
C1370 H1362 0.930 . S
C1370 C1369 1.362 . S
C1370 C1373 1.409 . S
C1371 H1363 0.930 . S
C1371 C1372 1.355 . S
C1371 C1373 1.415 . S
C1372 C1371 1.355 . S
C1372 C1374 1.419 . S
C1373 C1368 1.425 . S
C1373 C1370 1.409 . S
C1373 C1371 1.415 . S
C1374 H1364 0.930 . S
C1374 C1372 1.419 . S
C1374 C1375 1.362 . S
C1375 H1365 0.930 . S
C1375 C1368 1.409 . S
C1375 C1374 1.362 . S
H1376 C1382 0.930 . S
H1377 C1385 0.930 . S
H1378 C1386 0.930 . S
H1379 C1387 0.930 . S
H1380 C1390 0.930 . S
H1381 C1391 0.930 . S
C1382 H1376 0.930 . S
C1382 C1383 1.355 . S
C1382 C1384 1.415 . S
C1383 C1382 1.355 . S
C1383 C1385 1.419 . S
C1384 C1382 1.415 . S
C1384 C1389 1.425 . S
C1384 C1391 1.409 . S
C1385 H1377 0.930 . S
C1385 C1383 1.419 . S
C1385 C1386 1.362 . S
C1386 H1378 0.930 . S
C1386 C1385 1.362 . S
C1386 C1389 1.409 . S
C1387 H1379 0.930 . S
C1387 C1388 1.355 . S
C1387 C1389 1.415 . S
C1388 C1387 1.355 . S
C1388 C1390 1.419 . S
C1389 C1384 1.425 . S
C1389 C1386 1.409 . S
C1389 C1387 1.415 . S
C1390 H1380 0.930 . S
C1390 C1388 1.419 . S
C1390 C1391 1.362 . S
C1391 H1381 0.930 . S
C1391 C1384 1.409 . S
C1391 C1390 1.362 . S
H1392 C1398 0.930 . S
H1393 C1401 0.930 . S
H1394 C1402 0.930 . S
H1395 C1403 0.930 . S
H1396 C1406 0.930 . S
H1397 C1407 0.930 . S
C1398 H1392 0.930 . S
C1398 C1399 1.355 . S
C1398 C1400 1.415 . S
C1399 C1398 1.355 . S
C1399 C1401 1.419 . S
C1400 C1398 1.415 . S
C1400 C1405 1.425 . S
C1400 C1407 1.409 . S
C1401 H1393 0.930 . S
C1401 C1399 1.419 . S
C1401 C1402 1.362 . S
C1402 H1394 0.930 . S
C1402 C1401 1.362 . S
C1402 C1405 1.409 . S
C1403 H1395 0.930 . S
C1403 C1404 1.355 . S
C1403 C1405 1.415 . S
C1404 C1403 1.355 . S
C1404 C1406 1.419 . S
C1405 C1400 1.425 . S
C1405 C1402 1.409 . S
C1405 C1403 1.415 . S
C1406 H1396 0.930 . S
C1406 C1404 1.419 . S
C1406 C1407 1.362 . S
C1407 H1397 0.930 . S
C1407 C1400 1.409 . S
C1407 C1406 1.362 . S
H1408 C1414 0.930 . S
H1409 C1417 0.930 . S
H1410 C1418 0.930 . S
H1411 C1419 0.930 . S
H1412 C1422 0.930 . S
H1413 C1423 0.930 . S
C1414 H1408 0.930 . S
C1414 C1415 1.355 . S
C1414 C1416 1.415 . S
C1415 C1414 1.355 . S
C1415 C1417 1.419 . S
C1416 C1414 1.415 . S
C1416 C1421 1.425 . S
C1416 C1423 1.409 . S
C1417 H1409 0.930 . S
C1417 C1415 1.419 . S
C1417 C1418 1.362 . S
C1418 H1410 0.930 . S
C1418 C1417 1.362 . S
C1418 C1421 1.409 . S
C1419 H1411 0.930 . S
C1419 C1420 1.355 . S
C1419 C1421 1.415 . S
C1420 C1419 1.355 . S
C1420 C1422 1.419 . S
C1421 C1416 1.425 . S
C1421 C1418 1.409 . S
C1421 C1419 1.415 . S
C1422 H1412 0.930 . S
C1422 C1420 1.419 . S
C1422 C1423 1.362 . S
C1423 H1413 0.930 . S
C1423 C1416 1.409 . S
C1423 C1422 1.362 . S
H1424 C1430 0.930 . S
H1425 C1433 0.930 . S
H1426 C1434 0.930 . S
H1427 C1435 0.930 . S
H1428 C1438 0.930 . S
H1429 C1439 0.930 . S
C1430 H1424 0.930 . S
C1430 C1431 1.355 . S
C1430 C1432 1.415 . S
C1431 C1430 1.355 . S
C1431 C1433 1.419 . S
C1432 C1430 1.415 . S
C1432 C1437 1.425 . S
C1432 C1439 1.409 . S
C1433 H1425 0.930 . S
C1433 C1431 1.419 . S
C1433 C1434 1.362 . S
C1434 H1426 0.930 . S
C1434 C1433 1.362 . S
C1434 C1437 1.409 . S
C1435 H1427 0.930 . S
C1435 C1436 1.355 . S
C1435 C1437 1.415 . S
C1436 C1435 1.355 . S
C1436 C1438 1.419 . S
C1437 C1432 1.425 . S
C1437 C1434 1.409 . S
C1437 C1435 1.415 . S
C1438 H1428 0.930 . S
C1438 C1436 1.419 . S
C1438 C1439 1.362 . S
C1439 H1429 0.930 . S
C1439 C1432 1.409 . S
C1439 C1438 1.362 . S
H1440 C1446 0.930 . S
H1441 C1449 0.930 . S
H1442 C1450 0.930 . S
H1443 C1451 0.930 . S
H1444 C1454 0.930 . S
H1445 C1455 0.930 . S
C1446 H1440 0.930 . S
C1446 C1447 1.355 . S
C1446 C1448 1.415 . S
C1447 C1446 1.355 . S
C1447 C1449 1.419 . S
C1448 C1446 1.415 . S
C1448 C1453 1.425 . S
C1448 C1455 1.409 . S
C1449 H1441 0.930 . S
C1449 C1447 1.419 . S
C1449 C1450 1.362 . S
C1450 H1442 0.930 . S
C1450 C1449 1.362 . S
C1450 C1453 1.409 . S
C1451 H1443 0.930 . S
C1451 C1452 1.355 . S
C1451 C1453 1.415 . S
C1452 C1451 1.355 . S
C1452 C1454 1.419 . S
C1453 C1448 1.425 . S
C1453 C1450 1.409 . S
C1453 C1451 1.415 . S
C1454 H1444 0.930 . S
C1454 C1452 1.419 . S
C1454 C1455 1.362 . S
C1455 H1445 0.930 . S
C1455 C1448 1.409 . S
C1455 C1454 1.362 . S
H1456 C1462 0.930 . S
H1457 C1465 0.930 . S
H1458 C1466 0.930 . S
H1459 C1467 0.930 . S
H1460 C1470 0.930 . S
H1461 C1471 0.930 . S
C1462 H1456 0.930 . S
C1462 C1463 1.355 . S
C1462 C1464 1.415 . S
C1463 C1462 1.355 . S
C1463 C1465 1.419 . S
C1464 C1462 1.415 . S
C1464 C1469 1.425 . S
C1464 C1471 1.409 . S
C1465 H1457 0.930 . S
C1465 C1463 1.419 . S
C1465 C1466 1.362 . S
C1466 H1458 0.930 . S
C1466 C1465 1.362 . S
C1466 C1469 1.409 . S
C1467 H1459 0.930 . S
C1467 C1468 1.355 . S
C1467 C1469 1.415 . S
C1468 C1467 1.355 . S
C1468 C1470 1.419 . S
C1469 C1464 1.425 . S
C1469 C1466 1.409 . S
C1469 C1467 1.415 . S
C1470 H1460 0.930 . S
C1470 C1468 1.419 . S
C1470 C1471 1.362 . S
C1471 H1461 0.930 . S
C1471 C1464 1.409 . S
C1471 C1470 1.362 . S
C455 C6 1.477 . S
C460 C62 1.480 . S
C471 C20 1.484 . S
C476 C76 1.492 . S
C487 C90 1.549 . S
C492 C34 1.541 . S
C503 C104 1.490 . S
C508 C48 1.483 . S
C519 C118 1.476 . S
C524 C174 1.479 . S
C535 C132 1.499 . S
C540 C188 1.509 . S
C551 C202 1.552 . S
C556 C146 1.545 . S
C567 C160 1.501 . S
C572 C216 1.492 . S
C583 C286 1.546 . S
C588 C230 1.553 . S
C599 C300 1.533 . S
C604 C244 1.542 . S
C615 C258 1.476 . S
C620 C314 1.478 . S
C631 C328 1.480 . S
C636 C272 1.476 . S
C647 C342 1.534 . S
C652 C398 1.524 . S
C663 C412 1.494 . S
C668 C356 1.486 . S
C679 C426 1.537 . S
C684 C370 1.527 . S
C695 C384 1.482 . S
C700 C440 1.489 . S
C711 C9 1.625 . S
C716 C386 1.653 . S
C727 C120 1.642 . S
C732 C23 1.587 . S
C743 C37 1.631 . S
C748 C358 1.650 . S
C759 C51 1.581 . S
C764 C148 1.643 . S
C775 C414 1.653 . S
C780 C65 1.578 . S
C791 C204 1.656 . S
C796 C79 1.600 . S
C807 C93 1.579 . S
C812 C442 1.653 . S
C823 C107 1.595 . S
C828 C176 1.641 . S
C839 C274 1.641 . S
C844 C121 1.596 . S
C855 C135 1.578 . S
C860 C8 1.644 . S
C871 C246 1.652 . S
C876 C149 1.629 . S
C887 C163 1.632 . S
C892 C36 1.648 . S
C903 C302 1.644 . S
C908 C177 1.577 . S
C919 C191 1.596 . S
C924 C92 1.641 . S
C935 C330 1.650 . S
C940 C205 1.631 . S
C951 C219 1.573 . S
C956 C64 1.650 . S
C967 C162 1.651 . S
C972 C233 1.631 . S
C983 C344 1.641 . S
C988 C247 1.603 . S
C999 C134 1.641 . S
C1004 C261 1.593 . S
C1015 C275 1.615 . S
C1020 C372 1.655 . S
C1031 C190 1.656 . S
C1036 C289 1.608 . S
C1047 C428 1.648 . S
C1052 C303 1.632 . S
C1063 C218 1.644 . S
C1068 C317 1.625 . S
C1079 C331 1.631 . S
C1084 C400 1.651 . S
C1095 C345 1.629 . S
C1100 C50 1.652 . S
C1111 C359 1.588 . S
C1116 C232 1.655 . S
C1127 C373 1.606 . S
C1132 C22 1.641 . S
C1143 C387 1.632 . S
C1148 C260 1.648 . S
C1159 C401 1.629 . S
C1164 C78 1.645 . S
C1175 C316 1.645 . S
C1180 C415 1.575 . S
C1191 C106 1.656 . S
C1196 C429 1.607 . S
C1207 C443 1.573 . S
C1212 C288 1.646 . S
C1223 C7 1.195 . S
C1228 C105 1.078 . S
C1239 C21 1.164 . S
C1244 C63 1.165 . S
C1255 C35 1.176 . S
C1260 C77 1.074 . S
C1271 C91 1.198 . S
C1276 C49 1.112 . S
C1287 C217 1.125 . S
C1292 C119 1.193 . S
C1303 C175 1.200 . S
C1308 C133 1.105 . S
C1319 C189 1.143 . S
C1324 C147 1.089 . S
C1335 C203 1.098 . S
C1340 C161 1.201 . S
C1351 C231 1.082 . S
C1356 C329 1.198 . S
C1367 C287 1.200 . S
C1372 C245 1.105 . S
C1383 C301 1.103 . S
C1388 C259 1.124 . S
C1399 C315 1.200 . S
C1404 C273 1.086 . S
C1415 C441 1.200 . S
C1420 C343 1.106 . S
C1431 C357 1.190 . S
C1436 C399 1.075 . S
C1447 C371 1.075 . S
C1452 C413 1.172 . S
C1463 C385 1.096 . S
C1468 C427 1.201 . S
