# Generated by pormake.
# Topology ana, (4)-cn, num edge types: 1
# Building blocks:
#     Node 0, Type 0, BuildingBlock: QUQFOY_clean_sbu_1, # of connection points: 4
#     Node 1, Type 0, BuildingBlock: QUQFOY_clean_sbu_1, # of connection points: 4
#     Node 2, Type 0, BuildingBlock: QUQFOY_clean_sbu_1, # of connection points: 4
#     Node 3, Type 0, BuildingBlock: QUQFOY_clean_sbu_1, # of connection points: 4
#     Node 4, Type 0, BuildingBlock: QUQFOY_clean_sbu_1, # of connection points: 4
#     Node 5, Type 0, BuildingBlock: QUQFOY_clean_sbu_1, # of connection points: 4
#     Node 6, Type 0, BuildingBlock: QUQFOY_clean_sbu_1, # of connection points: 4
#     Node 7, Type 0, BuildingBlock: QUQFOY_clean_sbu_1, # of connection points: 4
#     Node 8, Type 0, BuildingBlock: QUQFOY_clean_sbu_1, # of connection points: 4
#     Node 9, Type 0, BuildingBlock: QUQFOY_clean_sbu_1, # of connection points: 4
#     Node 10, Type 0, BuildingBlock: QUQFOY_clean_sbu_1, # of connection points: 4
#     Node 11, Type 0, BuildingBlock: QUQFOY_clean_sbu_1, # of connection points: 4
#     Node 12, Type 0, BuildingBlock: QUQFOY_clean_sbu_1, # of connection points: 4
#     Node 13, Type 0, BuildingBlock: QUQFOY_clean_sbu_1, # of connection points: 4
#     Node 14, Type 0, BuildingBlock: QUQFOY_clean_sbu_1, # of connection points: 4
#     Node 15, Type 0, BuildingBlock: QUQFOY_clean_sbu_1, # of connection points: 4
#     Node 16, Type 0, BuildingBlock: QUQFOY_clean_sbu_1, # of connection points: 4
#     Node 17, Type 0, BuildingBlock: QUQFOY_clean_sbu_1, # of connection points: 4
#     Node 18, Type 0, BuildingBlock: QUQFOY_clean_sbu_1, # of connection points: 4
#     Node 19, Type 0, BuildingBlock: QUQFOY_clean_sbu_1, # of connection points: 4
#     Node 20, Type 0, BuildingBlock: QUQFOY_clean_sbu_1, # of connection points: 4
#     Node 21, Type 0, BuildingBlock: QUQFOY_clean_sbu_1, # of connection points: 4
#     Node 22, Type 0, BuildingBlock: QUQFOY_clean_sbu_1, # of connection points: 4
#     Node 23, Type 0, BuildingBlock: QUQFOY_clean_sbu_1, # of connection points: 4
#     Node 24, Type 0, BuildingBlock: QUQFOY_clean_sbu_1, # of connection points: 4
#     Node 25, Type 0, BuildingBlock: QUQFOY_clean_sbu_1, # of connection points: 4
#     Node 26, Type 0, BuildingBlock: QUQFOY_clean_sbu_1, # of connection points: 4
#     Node 27, Type 0, BuildingBlock: QUQFOY_clean_sbu_1, # of connection points: 4
#     Node 28, Type 0, BuildingBlock: QUQFOY_clean_sbu_1, # of connection points: 4
#     Node 29, Type 0, BuildingBlock: QUQFOY_clean_sbu_1, # of connection points: 4
#     Node 30, Type 0, BuildingBlock: QUQFOY_clean_sbu_1, # of connection points: 4
#     Node 31, Type 0, BuildingBlock: QUQFOY_clean_sbu_1, # of connection points: 4
#     Node 32, Type 0, BuildingBlock: QUQFOY_clean_sbu_1, # of connection points: 4
#     Node 33, Type 0, BuildingBlock: QUQFOY_clean_sbu_1, # of connection points: 4
#     Node 34, Type 0, BuildingBlock: QUQFOY_clean_sbu_1, # of connection points: 4
#     Node 35, Type 0, BuildingBlock: QUQFOY_clean_sbu_1, # of connection points: 4
#     Node 36, Type 0, BuildingBlock: QUQFOY_clean_sbu_1, # of connection points: 4
#     Node 37, Type 0, BuildingBlock: QUQFOY_clean_sbu_1, # of connection points: 4
#     Node 38, Type 0, BuildingBlock: QUQFOY_clean_sbu_1, # of connection points: 4
#     Node 39, Type 0, BuildingBlock: QUQFOY_clean_sbu_1, # of connection points: 4
#     Node 40, Type 0, BuildingBlock: QUQFOY_clean_sbu_1, # of connection points: 4
#     Node 41, Type 0, BuildingBlock: QUQFOY_clean_sbu_1, # of connection points: 4
#     Node 42, Type 0, BuildingBlock: QUQFOY_clean_sbu_1, # of connection points: 4
#     Node 43, Type 0, BuildingBlock: QUQFOY_clean_sbu_1, # of connection points: 4
#     Node 44, Type 0, BuildingBlock: QUQFOY_clean_sbu_1, # of connection points: 4
#     Node 45, Type 0, BuildingBlock: QUQFOY_clean_sbu_1, # of connection points: 4
#     Node 46, Type 0, BuildingBlock: QUQFOY_clean_sbu_1, # of connection points: 4
#     Node 47, Type 0, BuildingBlock: QUQFOY_clean_sbu_1, # of connection points: 4
#     Edge 48, Type (0, 0), BuildingBlock: AJUNOK_clean_linker_0, # of connection points: 2
#     Edge 49, Type (0, 0), BuildingBlock: AJUNOK_clean_linker_0, # of connection points: 2
#     Edge 50, Type (0, 0), BuildingBlock: AJUNOK_clean_linker_0, # of connection points: 2
#     Edge 51, Type (0, 0), BuildingBlock: AJUNOK_clean_linker_0, # of connection points: 2
#     Edge 52, Type (0, 0), BuildingBlock: AJUNOK_clean_linker_0, # of connection points: 2
#     Edge 53, Type (0, 0), BuildingBlock: AJUNOK_clean_linker_0, # of connection points: 2
#     Edge 54, Type (0, 0), BuildingBlock: AJUNOK_clean_linker_0, # of connection points: 2
#     Edge 55, Type (0, 0), BuildingBlock: AJUNOK_clean_linker_0, # of connection points: 2
#     Edge 56, Type (0, 0), BuildingBlock: AJUNOK_clean_linker_0, # of connection points: 2
#     Edge 57, Type (0, 0), BuildingBlock: AJUNOK_clean_linker_0, # of connection points: 2
#     Edge 58, Type (0, 0), BuildingBlock: AJUNOK_clean_linker_0, # of connection points: 2
#     Edge 59, Type (0, 0), BuildingBlock: AJUNOK_clean_linker_0, # of connection points: 2
#     Edge 60, Type (0, 0), BuildingBlock: AJUNOK_clean_linker_0, # of connection points: 2
#     Edge 61, Type (0, 0), BuildingBlock: AJUNOK_clean_linker_0, # of connection points: 2
#     Edge 62, Type (0, 0), BuildingBlock: AJUNOK_clean_linker_0, # of connection points: 2
#     Edge 63, Type (0, 0), BuildingBlock: AJUNOK_clean_linker_0, # of connection points: 2
#     Edge 64, Type (0, 0), BuildingBlock: AJUNOK_clean_linker_0, # of connection points: 2
#     Edge 65, Type (0, 0), BuildingBlock: AJUNOK_clean_linker_0, # of connection points: 2
#     Edge 66, Type (0, 0), BuildingBlock: AJUNOK_clean_linker_0, # of connection points: 2
#     Edge 67, Type (0, 0), BuildingBlock: AJUNOK_clean_linker_0, # of connection points: 2
#     Edge 68, Type (0, 0), BuildingBlock: AJUNOK_clean_linker_0, # of connection points: 2
#     Edge 69, Type (0, 0), BuildingBlock: AJUNOK_clean_linker_0, # of connection points: 2
#     Edge 70, Type (0, 0), BuildingBlock: AJUNOK_clean_linker_0, # of connection points: 2
#     Edge 71, Type (0, 0), BuildingBlock: AJUNOK_clean_linker_0, # of connection points: 2
#     Edge 72, Type (0, 0), BuildingBlock: AJUNOK_clean_linker_0, # of connection points: 2
#     Edge 73, Type (0, 0), BuildingBlock: AJUNOK_clean_linker_0, # of connection points: 2
#     Edge 74, Type (0, 0), BuildingBlock: AJUNOK_clean_linker_0, # of connection points: 2
#     Edge 75, Type (0, 0), BuildingBlock: AJUNOK_clean_linker_0, # of connection points: 2
#     Edge 76, Type (0, 0), BuildingBlock: AJUNOK_clean_linker_0, # of connection points: 2
#     Edge 77, Type (0, 0), BuildingBlock: AJUNOK_clean_linker_0, # of connection points: 2
#     Edge 78, Type (0, 0), BuildingBlock: AJUNOK_clean_linker_0, # of connection points: 2
#     Edge 79, Type (0, 0), BuildingBlock: AJUNOK_clean_linker_0, # of connection points: 2
#     Edge 80, Type (0, 0), BuildingBlock: AJUNOK_clean_linker_0, # of connection points: 2
#     Edge 81, Type (0, 0), BuildingBlock: AJUNOK_clean_linker_0, # of connection points: 2
#     Edge 82, Type (0, 0), BuildingBlock: AJUNOK_clean_linker_0, # of connection points: 2
#     Edge 83, Type (0, 0), BuildingBlock: AJUNOK_clean_linker_0, # of connection points: 2
#     Edge 84, Type (0, 0), BuildingBlock: AJUNOK_clean_linker_0, # of connection points: 2
#     Edge 85, Type (0, 0), BuildingBlock: AJUNOK_clean_linker_0, # of connection points: 2
#     Edge 86, Type (0, 0), BuildingBlock: AJUNOK_clean_linker_0, # of connection points: 2
#     Edge 87, Type (0, 0), BuildingBlock: AJUNOK_clean_linker_0, # of connection points: 2
#     Edge 88, Type (0, 0), BuildingBlock: AJUNOK_clean_linker_0, # of connection points: 2
#     Edge 89, Type (0, 0), BuildingBlock: AJUNOK_clean_linker_0, # of connection points: 2
#     Edge 90, Type (0, 0), BuildingBlock: AJUNOK_clean_linker_0, # of connection points: 2
#     Edge 91, Type (0, 0), BuildingBlock: AJUNOK_clean_linker_0, # of connection points: 2
#     Edge 92, Type (0, 0), BuildingBlock: AJUNOK_clean_linker_0, # of connection points: 2
#     Edge 93, Type (0, 0), BuildingBlock: AJUNOK_clean_linker_0, # of connection points: 2
#     Edge 94, Type (0, 0), BuildingBlock: AJUNOK_clean_linker_0, # of connection points: 2
#     Edge 95, Type (0, 0), BuildingBlock: AJUNOK_clean_linker_0, # of connection points: 2
#     Edge 96, Type (0, 0), BuildingBlock: AJUNOK_clean_linker_0, # of connection points: 2
#     Edge 97, Type (0, 0), BuildingBlock: AJUNOK_clean_linker_0, # of connection points: 2
#     Edge 98, Type (0, 0), BuildingBlock: AJUNOK_clean_linker_0, # of connection points: 2
#     Edge 99, Type (0, 0), BuildingBlock: AJUNOK_clean_linker_0, # of connection points: 2
#     Edge 100, Type (0, 0), BuildingBlock: AJUNOK_clean_linker_0, # of connection points: 2
#     Edge 101, Type (0, 0), BuildingBlock: AJUNOK_clean_linker_0, # of connection points: 2
#     Edge 102, Type (0, 0), BuildingBlock: AJUNOK_clean_linker_0, # of connection points: 2
#     Edge 103, Type (0, 0), BuildingBlock: AJUNOK_clean_linker_0, # of connection points: 2
#     Edge 104, Type (0, 0), BuildingBlock: AJUNOK_clean_linker_0, # of connection points: 2
#     Edge 105, Type (0, 0), BuildingBlock: AJUNOK_clean_linker_0, # of connection points: 2
#     Edge 106, Type (0, 0), BuildingBlock: AJUNOK_clean_linker_0, # of connection points: 2
#     Edge 107, Type (0, 0), BuildingBlock: AJUNOK_clean_linker_0, # of connection points: 2
#     Edge 108, Type (0, 0), BuildingBlock: AJUNOK_clean_linker_0, # of connection points: 2
#     Edge 109, Type (0, 0), BuildingBlock: AJUNOK_clean_linker_0, # of connection points: 2
#     Edge 110, Type (0, 0), BuildingBlock: AJUNOK_clean_linker_0, # of connection points: 2
#     Edge 111, Type (0, 0), BuildingBlock: AJUNOK_clean_linker_0, # of connection points: 2
#     Edge 112, Type (0, 0), BuildingBlock: AJUNOK_clean_linker_0, # of connection points: 2
#     Edge 113, Type (0, 0), BuildingBlock: AJUNOK_clean_linker_0, # of connection points: 2
#     Edge 114, Type (0, 0), BuildingBlock: AJUNOK_clean_linker_0, # of connection points: 2
#     Edge 115, Type (0, 0), BuildingBlock: AJUNOK_clean_linker_0, # of connection points: 2
#     Edge 116, Type (0, 0), BuildingBlock: AJUNOK_clean_linker_0, # of connection points: 2
#     Edge 117, Type (0, 0), BuildingBlock: AJUNOK_clean_linker_0, # of connection points: 2
#     Edge 118, Type (0, 0), BuildingBlock: AJUNOK_clean_linker_0, # of connection points: 2
#     Edge 119, Type (0, 0), BuildingBlock: AJUNOK_clean_linker_0, # of connection points: 2
#     Edge 120, Type (0, 0), BuildingBlock: AJUNOK_clean_linker_0, # of connection points: 2
#     Edge 121, Type (0, 0), BuildingBlock: AJUNOK_clean_linker_0, # of connection points: 2
#     Edge 122, Type (0, 0), BuildingBlock: AJUNOK_clean_linker_0, # of connection points: 2
#     Edge 123, Type (0, 0), BuildingBlock: AJUNOK_clean_linker_0, # of connection points: 2
#     Edge 124, Type (0, 0), BuildingBlock: AJUNOK_clean_linker_0, # of connection points: 2
#     Edge 125, Type (0, 0), BuildingBlock: AJUNOK_clean_linker_0, # of connection points: 2
#     Edge 126, Type (0, 0), BuildingBlock: AJUNOK_clean_linker_0, # of connection points: 2
#     Edge 127, Type (0, 0), BuildingBlock: AJUNOK_clean_linker_0, # of connection points: 2
#     Edge 128, Type (0, 0), BuildingBlock: AJUNOK_clean_linker_0, # of connection points: 2
#     Edge 129, Type (0, 0), BuildingBlock: AJUNOK_clean_linker_0, # of connection points: 2
#     Edge 130, Type (0, 0), BuildingBlock: AJUNOK_clean_linker_0, # of connection points: 2
#     Edge 131, Type (0, 0), BuildingBlock: AJUNOK_clean_linker_0, # of connection points: 2
#     Edge 132, Type (0, 0), BuildingBlock: AJUNOK_clean_linker_0, # of connection points: 2
#     Edge 133, Type (0, 0), BuildingBlock: AJUNOK_clean_linker_0, # of connection points: 2
#     Edge 134, Type (0, 0), BuildingBlock: AJUNOK_clean_linker_0, # of connection points: 2
#     Edge 135, Type (0, 0), BuildingBlock: AJUNOK_clean_linker_0, # of connection points: 2
#     Edge 136, Type (0, 0), BuildingBlock: AJUNOK_clean_linker_0, # of connection points: 2
#     Edge 137, Type (0, 0), BuildingBlock: AJUNOK_clean_linker_0, # of connection points: 2
#     Edge 138, Type (0, 0), BuildingBlock: AJUNOK_clean_linker_0, # of connection points: 2
#     Edge 139, Type (0, 0), BuildingBlock: AJUNOK_clean_linker_0, # of connection points: 2
#     Edge 140, Type (0, 0), BuildingBlock: AJUNOK_clean_linker_0, # of connection points: 2
#     Edge 141, Type (0, 0), BuildingBlock: AJUNOK_clean_linker_0, # of connection points: 2
#     Edge 142, Type (0, 0), BuildingBlock: AJUNOK_clean_linker_0, # of connection points: 2
#     Edge 143, Type (0, 0), BuildingBlock: AJUNOK_clean_linker_0, # of connection points: 2
# Relax obj value: 0.115
# Max RMSD: 0.186
# Mean RMSD: 0.142
data_MOF--net-ana--node1-QUQFOY_clean_sbu_1--edge1-AJUNOK_clean_linker_0
_symmetry_space_group_name_H-M    P1
_symmetry_Int_Tables_number       1
_symmetry_cell_setting            triclinic
loop_
_symmetry_equiv_pos_as_xyz
'x, y, z'
_cell_length_a     50.059742
_cell_length_b     51.468524
_cell_length_c     50.485996
_cell_angle_alpha  91.277143
_cell_angle_beta   91.931825
_cell_angle_gamma 95.712148
loop_
_atom_site_label
_atom_site_type_symbol
_atom_site_fract_x
_atom_site_fract_y
_atom_site_fract_z
_atom_type_partial_charge
O0 O 0.1295 0.12701 0.45738 0.0
Cd1 Cd 0.13105 0.13077 0.41663 0.0
Cd2 Cd 0.1234 0.18207 0.43106 0.0
O3 O 0.13282 0.16896 0.46819 0.0
O4 O 0.14889 0.09995 0.40414 0.0
O5 O 0.16709 0.14056 0.40083 0.0
C6 C 0.1691 0.11582 0.39779 0.0
C7 C 0.13348 0.22642 0.42185 0.0
C8 C 0.13179 0.14525 0.47497 0.0
C9 C 0.0787 0.1485 0.40036 0.0
O10 O 0.08639 0.16843 0.41492 0.0
O11 O 0.09466 0.1313 0.39582 0.0
O12 O 0.11706 0.21884 0.43979 0.0
O13 O 0.14551 0.20886 0.40969 0.0
O14 O 0.09112 0.92617 0.65441 0.0
Cd15 Cd 0.07576 0.89473 0.67511 0.0
Cd16 Cd 0.09224 0.86865 0.63123 0.0
O17 O 0.11352 0.9047 0.62569 0.0
O18 O 0.07543 0.90876 0.71196 0.0
O19 O 0.0999 0.87715 0.70013 0.0
C20 C 0.09303 0.89309 0.71824 0.0
C21 C 0.11189 0.83118 0.61766 0.0
C22 C 0.10765 0.92606 0.63594 0.0
C23 C 0.03201 0.86866 0.64189 0.0
O24 O 0.05058 0.86437 0.62623 0.0
O25 O 0.03765 0.87954 0.66444 0.0
O26 O 0.10294 0.84703 0.60096 0.0
O27 O 0.11054 0.83708 0.64255 0.0
O28 O 0.42345 0.83514 0.91754 0.0
Cd29 Cd 0.38739 0.82214 0.93335 0.0
Cd30 Cd 0.3777 0.87115 0.91867 0.0
O31 O 0.41249 0.87041 0.89764 0.0
O32 O 0.39425 0.78613 0.94316 0.0
O33 O 0.36417 0.79387 0.91214 0.0
C34 C 0.37671 0.77724 0.92519 0.0
C35 C 0.33547 0.87634 0.8998 0.0
C36 C 0.4294 0.85407 0.90242 0.0
C37 C 0.3792 0.86153 0.97647 0.0
O38 O 0.38142 0.87891 0.95899 0.0
O39 O 0.37843 0.83752 0.96967 0.0
O40 O 0.35342 0.89602 0.90362 0.0
O41 O 0.34224 0.8534 0.90532 0.0
O42 O 0.44409 0.137 0.12374 0.0
Cd43 Cd 0.40356 0.13309 0.13057 0.0
Cd44 Cd 0.4242 0.11847 0.18028 0.0
O45 O 0.46073 0.1293 0.16354 0.0
O46 O 0.38744 0.15208 0.10112 0.0
O47 O 0.38643 0.16476 0.14313 0.0
C48 C 0.38092 0.16887 0.11847 0.0
C49 C 0.41762 0.12643 0.22524 0.0
C50 C 0.46414 0.13547 0.13956 0.0
C51 C 0.38668 0.07919 0.14722 0.0
O52 O 0.40239 0.08441 0.1673 0.0
O53 O 0.38348 0.09612 0.1298 0.0
O54 O 0.43397 0.11027 0.21748 0.0
O55 O 0.40616 0.13961 0.20741 0.0
O56 O 0.10681 0.79503 0.11343 0.0
Cd57 Cd 0.11193 0.83485 0.10711 0.0
Cd58 Cd 0.12869 0.81655 0.05981 0.0
O59 O 0.11567 0.7804 0.07356 0.0
O60 O 0.09395 0.84994 0.1376 0.0
O61 O 0.0801 0.85398 0.09613 0.0
C62 C 0.07693 0.85842 0.12106 0.0
C63 C 0.12118 0.82793 0.01592 0.0
C64 C 0.109 0.77613 0.09723 0.0
C65 C 0.16974 0.84741 0.09557 0.0
O66 O 0.16508 0.83236 0.07537 0.0
O67 O 0.1507 0.85282 0.11009 0.0
O68 O 0.13626 0.80996 0.02205 0.0
O69 O 0.10889 0.83864 0.03475 0.0
O70 O 0.37214 0.88056 0.30943 0.0
Cd71 Cd 0.38056 0.88323 0.34945 0.0
Cd72 Cd 0.43025 0.87072 0.3335 0.0
O73 O 0.41387 0.87972 0.29709 0.0
O74 O 0.35555 0.90742 0.36384 0.0
O75 O 0.39954 0.91734 0.36271 0.0
C76 C 0.3761 0.92457 0.36744 0.0
C77 C 0.47668 0.87797 0.34065 0.0
C78 C 0.38916 0.88112 0.29132 0.0
C79 C 0.39608 0.83214 0.36635 0.0
O80 O 0.41593 0.83705 0.35165 0.0
O81 O 0.37938 0.84883 0.36997 0.0
O82 O 0.46594 0.86127 0.32315 0.0
O83 O 0.46108 0.8919 0.35346 0.0
O84 O 0.32684 0.17394 0.58281 0.0
Cd85 Cd 0.36179 0.18926 0.56667 0.0
Cd86 Cd 0.38325 0.17188 0.61101 0.0
O87 O 0.34518 0.15384 0.61575 0.0
O88 O 0.35205 0.19089 0.52846 0.0
O89 O 0.38228 0.16602 0.54422 0.0
C90 C 0.36837 0.17349 0.52426 0.0
C91 C 0.41965 0.14799 0.6203 0.0
C92 C 0.32451 0.15908 0.60247 0.0
C93 C 0.38623 0.23056 0.60337 0.0
O94 O 0.38962 0.21179 0.61873 0.0
O95 O 0.37654 0.22593 0.57999 0.0
O96 O 0.40552 0.15665 0.6388 0.0
O97 O 0.41276 0.15257 0.5961 0.0
O98 O 0.1204 0.10934 0.80732 0.0
Cd99 Cd 0.1131 0.10967 0.84747 0.0
Cd100 Cd 0.06442 0.12088 0.82668 0.0
O101 O 0.07871 0.10787 0.79156 0.0
O102 O 0.14447 0.09337 0.86289 0.0
O103 O 0.10287 0.07475 0.86379 0.0
C104 C 0.12822 0.0734 0.86851 0.0
C105 C 0.01945 0.11229 0.83713 0.0
C106 C 0.10354 0.10687 0.7878 0.0
C107 C 0.09751 0.16292 0.85869 0.0
O108 O 0.0796 0.15733 0.84051 0.0
O109 O 0.1119 0.1455 0.86692 0.0
O110 O 0.02662 0.12643 0.81739 0.0
O111 O 0.03778 0.10141 0.85018 0.0
O112 O 0.12265 0.45358 0.1218 0.0
Cd113 Cd 0.12373 0.41379 0.12458 0.0
Cd114 Cd 0.17777 0.42739 0.11061 0.0
O115 O 0.16591 0.46458 0.11705 0.0
O116 O 0.09308 0.40165 0.1468 0.0
O117 O 0.1355 0.39951 0.15941 0.0
C118 C 0.11033 0.39592 0.16475 0.0
C119 C 0.22232 0.41877 0.11953 0.0
C120 C 0.14225 0.47105 0.11985 0.0
C121 C 0.13979 0.3912 0.07392 0.0
O122 O 0.16206 0.40493 0.07843 0.0
O123 O 0.12104 0.39117 0.09023 0.0
O124 O 0.21618 0.43423 0.10109 0.0
O125 O 0.20335 0.40947 0.13438 0.0
O126 O 0.6563 0.08637 0.81984 0.0
Cd127 Cd 0.6735 0.07462 0.85473 0.0
Cd128 Cd 0.65793 0.12045 0.87202 0.0
O129 O 0.63902 0.12136 0.83522 0.0
O130 O 0.67828 0.03714 0.84854 0.0
O131 O 0.64961 0.05101 0.87688 0.0
C132 C 0.65977 0.03184 0.86528 0.0
C133 C 0.63775 0.12489 0.9124 0.0
C134 C 0.64228 0.10536 0.81635 0.0
C135 C 0.71664 0.11558 0.87419 0.0
O136 O 0.69838 0.13095 0.87484 0.0
O137 O 0.71084 0.09161 0.86786 0.0
O138 O 0.64265 0.14461 0.89731 0.0
O139 O 0.64235 0.10212 0.90336 0.0
O140 O 0.84973 0.9103 0.32497 0.0
Cd141 Cd 0.8318 0.92389 0.35797 0.0
Cd142 Cd 0.84425 0.87511 0.37359 0.0
O143 O 0.86446 0.87368 0.33873 0.0
O144 O 0.82459 0.95865 0.34521 0.0
O145 O 0.85248 0.95354 0.37906 0.0
C146 C 0.84193 0.96892 0.36274 0.0
C147 C 0.86142 0.86813 0.41583 0.0
C148 C 0.86255 0.89059 0.32099 0.0
C149 C 0.78657 0.88423 0.37147 0.0
O150 O 0.80344 0.86741 0.37164 0.0
O151 O 0.79413 0.90818 0.36813 0.0
O152 O 0.85622 0.84914 0.39871 0.0
O153 O 0.85916 0.89161 0.40798 0.0
O154 O 0.79504 0.11937 0.12209 0.0
Cd155 Cd 0.83576 0.11471 0.12286 0.0
Cd156 Cd 0.81543 0.06767 0.14326 0.0
O157 O 0.7789 0.07899 0.12983 0.0
O158 O 0.85073 0.14593 0.10368 0.0
O159 O 0.85282 0.10576 0.08847 0.0
C160 C 0.85757 0.13059 0.08518 0.0
C161 C 0.82753 0.02534 0.13501 0.0
C162 C 0.77507 0.10228 0.12394 0.0
C163 C 0.85027 0.10511 0.17927 0.0
O164 O 0.83233 0.08579 0.17768 0.0
O165 O 0.85693 0.11776 0.15881 0.0
O166 O 0.80918 0.02974 0.15139 0.0
O167 O 0.83843 0.04497 0.12234 0.0
O168 O 0.29417 0.62352 0.62558 0.0
Cd169 Cd 0.33496 0.62058 0.62682 0.0
Cd170 Cd 0.31765 0.56943 0.63902 0.0
O171 O 0.28041 0.58171 0.62859 0.0
O172 O 0.35051 0.65152 0.60775 0.0
O173 O 0.35257 0.61102 0.59315 0.0
C174 C 0.35763 0.63581 0.58967 0.0
C175 C 0.32833 0.5272 0.6283 0.0
C176 C 0.27519 0.6052 0.62546 0.0
C177 C 0.35166 0.60373 0.67995 0.0
O178 O 0.33665 0.58282 0.67433 0.0
O179 O 0.35482 0.6217 0.6632 0.0
O180 O 0.31025 0.53125 0.64504 0.0
O181 O 0.33925 0.54711 0.61609 0.0
O182 O 0.16496 0.58433 0.32444 0.0
Cd183 Cd 0.17852 0.56992 0.35953 0.0
Cd184 Cd 0.15948 0.61352 0.37751 0.0
O185 O 0.14105 0.61433 0.34037 0.0
O186 O 0.18537 0.53411 0.34847 0.0
O187 O 0.1551 0.54215 0.37767 0.0
C188 C 0.16641 0.52542 0.36352 0.0
C189 C 0.13761 0.61971 0.41669 0.0
C190 C 0.14872 0.60144 0.32076 0.0
C191 C 0.21895 0.61063 0.38198 0.0
O192 O 0.19994 0.62523 0.38151 0.0
O193 O 0.21441 0.58655 0.37571 0.0
O194 O 0.14327 0.63866 0.40089 0.0
O195 O 0.14272 0.59659 0.40918 0.0
O196 O 0.34337 0.41884 0.82613 0.0
Cd197 Cd 0.32392 0.42898 0.8597 0.0
Cd198 Cd 0.34177 0.38327 0.87462 0.0
O199 O 0.3633 0.38517 0.84051 0.0
O200 O 0.31532 0.46461 0.85109 0.0
O201 O 0.34342 0.45687 0.88393 0.0
C202 C 0.33223 0.47358 0.86964 0.0
C203 C 0.35852 0.37645 0.91713 0.0
C204 C 0.35927 0.40143 0.82259 0.0
C205 C 0.28268 0.38499 0.87099 0.0
O206 O 0.30185 0.37065 0.87094 0.0
O207 O 0.28724 0.40952 0.86843 0.0
O208 O 0.35609 0.35802 0.89919 0.0
O209 O 0.35373 0.39959 0.91006 0.0
O210 O 0.87026 0.8662 0.54531 0.0
Cd211 Cd 0.86846 0.86468 0.5862 0.0
Cd212 Cd 0.87604 0.81285 0.57486 0.0
O213 O 0.86697 0.82381 0.53685 0.0
O214 O 0.85153 0.89671 0.59669 0.0
O215 O 0.83232 0.85686 0.6025 0.0
C216 C 0.83102 0.88181 0.60406 0.0
C217 C 0.86553 0.76928 0.58675 0.0
C218 C 0.86814 0.84708 0.52873 0.0
C219 C 0.92081 0.84771 0.60376 0.0
O220 O 0.91316 0.827 0.59037 0.0
O221 O 0.9048 0.8651 0.60714 0.0
O222 O 0.88201 0.77562 0.56846 0.0
O223 O 0.85354 0.78763 0.59761 0.0
O224 O 0.90523 0.07846 0.33622 0.0
Cd225 Cd 0.92345 0.11268 0.32253 0.0
Cd226 Cd 0.9082 0.13027 0.37085 0.0
O227 O 0.88776 0.09352 0.37243 0.0
O228 O 0.92521 0.10622 0.2837 0.0
O229 O 0.89876 0.13343 0.30157 0.0
C230 C 0.90644 0.12145 0.28082 0.0
C231 C 0.88785 0.16725 0.38395 0.0
C232 C 0.89058 0.07495 0.35612 0.0
C233 C 0.96775 0.13222 0.36036 0.0
O234 O 0.94934 0.13404 0.37684 0.0
O235 O 0.96188 0.1252 0.33642 0.0
O236 O 0.89555 0.1509 0.40085 0.0
O237 O 0.89062 0.16193 0.35911 0.0
O238 O 0.57781 0.17032 0.0833 0.0
Cd239 Cd 0.61422 0.18425 0.06875 0.0
Cd240 Cd 0.62359 0.13485 0.08175 0.0
O241 O 0.58867 0.13482 0.1028 0.0
O242 O 0.60767 0.221 0.06158 0.0
O243 O 0.63716 0.21098 0.09214 0.0
C244 C 0.62463 0.22857 0.08057 0.0
C245 C 0.66556 0.1275 0.10008 0.0
C246 C 0.57167 0.15106 0.09794 0.0
C247 C 0.62212 0.14675 0.02417 0.0
O248 O 0.61965 0.12888 0.04115 0.0
O249 O 0.62342 0.17061 0.0317 0.0
O250 O 0.64702 0.1085 0.09536 0.0
O251 O 0.65956 0.15096 0.09581 0.0
O252 O 0.55605 0.8665 0.8727 0.0
Cd253 Cd 0.59653 0.86955 0.86445 0.0
Cd254 Cd 0.57444 0.89042 0.81985 0.0
O255 O 0.53816 0.8758 0.83398 0.0
O256 O 0.6116 0.84955 0.89382 0.0
O257 O 0.61238 0.83699 0.85184 0.0
C258 C 0.6173 0.83241 0.87648 0.0
C259 C 0.58427 0.88553 0.77517 0.0
C260 C 0.53548 0.86845 0.85766 0.0
C261 C 0.61065 0.92619 0.85608 0.0
O262 O 0.59198 0.92414 0.83828 0.0
O263 O 0.61802 0.9061 0.86732 0.0
O264 O 0.56667 0.90049 0.78276 0.0
O265 O 0.59574 0.87234 0.79299 0.0
O266 O 0.89131 0.2035 0.88371 0.0
Cd267 Cd 0.88499 0.16382 0.89017 0.0
Cd268 Cd 0.87015 0.18284 0.93761 0.0
O269 O 0.88545 0.21853 0.92409 0.0
O270 O 0.90188 0.14815 0.85934 0.0
O271 O 0.91628 0.14381 0.90061 0.0
C272 C 0.91891 0.13928 0.87561 0.0
C273 C 0.8779 0.1708 0.98128 0.0
C274 C 0.89137 0.22258 0.90016 0.0
C275 C 0.82733 0.15364 0.90235 0.0
O276 O 0.83289 0.16893 0.92227 0.0
O277 O 0.84586 0.14703 0.88781 0.0
O278 O 0.86375 0.18963 0.97563 0.0
O279 O 0.88885 0.15926 0.96206 0.0
O280 O 0.58272 0.16416 0.64802 0.0
Cd281 Cd 0.56982 0.12794 0.66254 0.0
Cd282 Cd 0.62257 0.12362 0.65238 0.0
O283 O 0.62154 0.15717 0.63118 0.0
O284 O 0.53296 0.13477 0.67185 0.0
O285 O 0.54084 0.10773 0.63914 0.0
C286 C 0.52389 0.11987 0.65213 0.0
C287 C 0.63004 0.08265 0.6354 0.0
C288 C 0.60277 0.1717 0.6344 0.0
C289 C 0.60821 0.12057 0.70795 0.0
O290 O 0.62702 0.12802 0.69281 0.0
O291 O 0.58422 0.11568 0.69882 0.0
O292 O 0.64968 0.10061 0.64005 0.0
O293 O 0.60589 0.08869 0.63891 0.0
O294 O 0.67354 0.83354 0.41629 0.0
Cd295 Cd 0.63764 0.81865 0.43155 0.0
Cd296 Cd 0.62063 0.83325 0.38432 0.0
O297 O 0.65735 0.85419 0.3826 0.0
O298 O 0.64742 0.81683 0.46985 0.0
O299 O 0.61745 0.84205 0.45449 0.0
C300 C 0.63138 0.83439 0.47433 0.0
C301 C 0.58265 0.85357 0.3719 0.0
C302 C 0.67713 0.84894 0.39713 0.0
C303 C 0.61978 0.77559 0.39436 0.0
O304 O 0.61978 0.79337 0.37729 0.0
O305 O 0.62329 0.7814 0.41889 0.0
O306 O 0.59884 0.84603 0.35467 0.0
O307 O 0.58821 0.8497 0.3966 0.0
O308 O 0.87565 0.87723 0.19545 0.0
Cd309 Cd 0.87846 0.88245 0.15514 0.0
Cd310 Cd 0.93022 0.87742 0.16875 0.0
O311 O 0.91821 0.89011 0.20522 0.0
O312 O 0.84733 0.90182 0.14445 0.0
O313 O 0.8896 0.91871 0.14261 0.0
C314 C 0.86429 0.92168 0.13998 0.0
C315 C 0.97547 0.88516 0.15805 0.0
C316 C 0.8944 0.8841 0.21249 0.0
C317 C 0.89607 0.83278 0.13938 0.0
O318 O 0.91536 0.84039 0.15558 0.0
O319 O 0.87927 0.84858 0.13253 0.0
O320 O 0.96798 0.87109 0.17768 0.0
O321 O 0.95736 0.89638 0.14507 0.0
O322 O 0.87291 0.54491 0.87899 0.0
Cd323 Cd 0.87159 0.5846 0.87623 0.0
Cd324 Cd 0.81853 0.57216 0.88871 0.0
O325 O 0.82942 0.53447 0.88222 0.0
O326 O 0.90143 0.59671 0.85305 0.0
O327 O 0.85856 0.59817 0.84157 0.0
C328 C 0.88351 0.60176 0.83544 0.0
C329 C 0.77521 0.58248 0.87638 0.0
C330 C 0.85303 0.52763 0.88009 0.0
C331 C 0.85591 0.60683 0.92714 0.0
O332 O 0.83342 0.59358 0.92212 0.0
O333 O 0.87463 0.60702 0.91076 0.0
O334 O 0.77926 0.56667 0.89518 0.0
O335 O 0.79571 0.59146 0.8633 0.0
O336 O 0.33378 0.91501 0.18132 0.0
Cd337 Cd 0.31953 0.93019 0.14696 0.0
Cd338 Cd 0.33855 0.8882 0.12706 0.0
O339 O 0.35828 0.88653 0.16348 0.0
O340 O 0.31475 0.96648 0.15803 0.0
O341 O 0.34354 0.95665 0.1279 0.0
C342 C 0.33359 0.97408 0.14236 0.0
C343 C 0.35955 0.88432 0.08701 0.0
C344 C 0.35085 0.8985 0.1838 0.0
C345 C 0.2788 0.89032 0.12439 0.0
O346 O 0.29807 0.87605 0.12381 0.0
O347 O 0.28316 0.91423 0.13138 0.0
O348 O 0.35464 0.86454 0.10196 0.0
O349 O 0.35417 0.90692 0.09584 0.0
O350 O 0.16586 0.08155 0.6804 0.0
Cd351 Cd 0.18011 0.06972 0.64478 0.0
Cd352 Cd 0.15948 0.11157 0.62845 0.0
O353 O 0.13809 0.10756 0.66285 0.0
O354 O 0.18311 0.03164 0.64665 0.0
O355 O 0.15322 0.04892 0.62074 0.0
C356 C 0.16272 0.02843 0.63014 0.0
C357 C 0.14144 0.11891 0.58644 0.0
C358 C 0.14653 0.09558 0.68277 0.0
C359 C 0.21901 0.11245 0.62963 0.0
O360 O 0.19927 0.12601 0.6313 0.0
O361 O 0.21552 0.08787 0.63203 0.0
O362 O 0.14341 0.13682 0.60489 0.0
O363 O 0.14746 0.09594 0.5927 0.0
O364 O 0.20547 0.87747 0.87499 0.0
Cd365 Cd 0.16472 0.8805 0.87386 0.0
Cd366 Cd 0.18128 0.93185 0.86443 0.0
O367 O 0.21868 0.91956 0.87435 0.0
O368 O 0.14869 0.8501 0.89347 0.0
O369 O 0.14778 0.89102 0.90748 0.0
C370 C 0.1423 0.86636 0.91144 0.0
C371 C 0.16983 0.97316 0.8776 0.0
C372 C 0.22423 0.89603 0.87628 0.0
C373 C 0.14784 0.89945 0.82174 0.0
O374 O 0.16259 0.92025 0.82842 0.0
O375 O 0.14487 0.88062 0.83753 0.0
O376 O 0.18819 0.97041 0.86079 0.0
O377 O 0.15906 0.9524 0.88853 0.0
O378 O 0.70747 0.38527 0.37831 0.0
Cd379 Cd 0.66642 0.38847 0.3773 0.0
Cd380 Cd 0.68473 0.43524 0.35424 0.0
O381 O 0.72175 0.42542 0.36767 0.0
O382 O 0.6523 0.35787 0.3978 0.0
O383 O 0.64891 0.39849 0.41106 0.0
C384 C 0.6447 0.3738 0.41539 0.0
C385 C 0.67271 0.47789 0.36001 0.0
C386 C 0.72669 0.40291 0.37516 0.0
C387 C 0.6499 0.39578 0.32071 0.0
O388 O 0.66727 0.41554 0.32096 0.0
O389 O 0.64472 0.38358 0.34179 0.0
O390 O 0.69066 0.47243 0.34361 0.0
O391 O 0.66216 0.45917 0.37413 0.0
O392 O 0.84111 0.41344 0.67782 0.0
Cd393 Cd 0.82527 0.42552 0.64254 0.0
Cd394 Cd 0.83801 0.37841 0.62602 0.0
O395 O 0.85557 0.37667 0.66338 0.0
O396 O 0.8212 0.46303 0.64917 0.0
O397 O 0.85001 0.44905 0.62104 0.0
C398 C 0.84001 0.46825 0.63276 0.0
C399 C 0.85973 0.37286 0.58667 0.0
C400 C 0.85321 0.39328 0.68194 0.0
C401 C 0.78009 0.38655 0.62321 0.0
O402 O 0.79724 0.37003 0.62217 0.0
O403 O 0.7874 0.41026 0.62953 0.0
O404 O 0.85301 0.35337 0.60152 0.0
O405 O 0.85569 0.39597 0.59522 0.0
O406 O 0.65789 0.58943 0.07412 0.0
Cd407 Cd 0.66981 0.57765 0.11104 0.0
Cd408 Cd 0.62022 0.58812 0.11892 0.0
O409 O 0.62321 0.60986 0.08499 0.0
O410 O 0.70744 0.5725 0.10355 0.0
O411 O 0.69664 0.60234 0.13232 0.0
C412 C 0.7149 0.59192 0.11946 0.0
C413 C 0.61437 0.60469 0.16129 0.0
C414 C 0.64003 0.6043 0.06798 0.0
C415 C 0.63046 0.53279 0.12075 0.0
O416 O 0.61278 0.54799 0.11482 0.0
O417 O 0.65492 0.54174 0.12399 0.0
O418 O 0.59439 0.60048 0.14435 0.0
O419 O 0.63806 0.60098 0.15339 0.0
O420 O 0.63443 0.63032 0.94234 0.0
Cd421 Cd 0.63379 0.6368 0.90216 0.0
Cd422 Cd 0.62257 0.68468 0.92247 0.0
O423 O 0.63451 0.67052 0.95841 0.0
O424 O 0.65071 0.60596 0.88822 0.0
O425 O 0.6695 0.64639 0.88546 0.0
C426 C 0.67113 0.62164 0.88208 0.0
C427 C 0.63226 0.72855 0.91164 0.0
C428 C 0.63611 0.64636 0.96197 0.0
C429 C 0.57865 0.65083 0.89149 0.0
O430 O 0.58535 0.66947 0.90805 0.0
O431 O 0.59609 0.63629 0.8836 0.0
O432 O 0.61683 0.72167 0.93069 0.0
O433 O 0.64371 0.71052 0.89951 0.0
O434 O 0.58592 0.42185 0.164 0.0
Cd435 Cd 0.57148 0.38725 0.17997 0.0
Cd436 Cd 0.58575 0.36751 0.13249 0.0
O437 O 0.60188 0.40555 0.12752 0.0
O438 O 0.57112 0.3942 0.21874 0.0
O439 O 0.59834 0.36819 0.2001 0.0
C440 C 0.5905 0.37959 0.22113 0.0
C441 C 0.60839 0.33208 0.11865 0.0
C442 C 0.59837 0.42487 0.14266 0.0
C443 C 0.52664 0.36321 0.14528 0.0
O444 O 0.54456 0.36042 0.1285 0.0
O445 O 0.53304 0.37265 0.16832 0.0
O446 O 0.59808 0.34719 0.10198 0.0
O447 O 0.60708 0.33791 0.14356 0.0
O448 O 0.92307 0.33158 0.41371 0.0
Cd449 Cd 0.88729 0.31714 0.42924 0.0
Cd450 Cd 0.87691 0.3676 0.41866 0.0
O451 O 0.91162 0.36837 0.39724 0.0
O452 O 0.89431 0.28054 0.43632 0.0
O453 O 0.86373 0.29019 0.40662 0.0
C454 C 0.87638 0.27276 0.4183 0.0
C455 C 0.8358 0.37757 0.40034 0.0
C456 C 0.9286 0.35173 0.40009 0.0
C457 C 0.87931 0.35307 0.47553 0.0
O458 O 0.88067 0.37182 0.4595 0.0
O459 O 0.87891 0.32969 0.46682 0.0
O460 O 0.85494 0.39561 0.40644 0.0
O461 O 0.84057 0.35356 0.40353 0.0
O462 O 0.9435 0.63457 0.62977 0.0
Cd463 Cd 0.90287 0.63049 0.63731 0.0
Cd464 Cd 0.92463 0.60924 0.68189 0.0
O465 O 0.96098 0.62415 0.66829 0.0
O466 O 0.88788 0.64981 0.60744 0.0
O467 O 0.88572 0.66258 0.6492 0.0
C468 C 0.88118 0.66681 0.62441 0.0
C469 C 0.91442 0.61438 0.7264 0.0
C470 C 0.9639 0.6323 0.64492 0.0
C471 C 0.88934 0.57353 0.64491 0.0
O472 O 0.9075 0.5755 0.66321 0.0
O473 O 0.88219 0.59367 0.63363 0.0
O474 O 0.93208 0.59937 0.71907 0.0
O475 O 0.90296 0.62735 0.70839 0.0
O476 O 0.61009 0.29578 0.61553 0.0
Cd477 Cd 0.61248 0.33563 0.6094 0.0
Cd478 Cd 0.62681 0.31926 0.56165 0.0
O479 O 0.61136 0.283 0.57359 0.0
O480 O 0.59367 0.35043 0.63939 0.0
O481 O 0.57999 0.3531 0.59758 0.0
C482 C 0.57657 0.35811 0.62236 0.0
C483 C 0.62046 0.33258 0.51823 0.0
C484 C 0.60844 0.27771 0.59781 0.0
C485 C 0.66899 0.34923 0.59685 0.0
O486 O 0.66406 0.33308 0.57751 0.0
O487 O 0.65015 0.35536 0.61118 0.0
O488 O 0.63434 0.31353 0.52377 0.0
O489 O 0.60862 0.34332 0.53734 0.0
O490 O 0.87328 0.37223 0.80699 0.0
Cd491 Cd 0.88162 0.37776 0.84716 0.0
Cd492 Cd 0.93062 0.37245 0.83145 0.0
O493 O 0.91449 0.38691 0.79727 0.0
O494 O 0.85467 0.39994 0.8615 0.0
O495 O 0.89784 0.41353 0.8587 0.0
C496 C 0.87381 0.4187 0.86417 0.0
C497 C 0.97659 0.38085 0.84138 0.0
C498 C 0.89009 0.38068 0.79017 0.0
C499 C 0.90111 0.3284 0.86028 0.0
O500 O 0.91757 0.33501 0.84245 0.0
O501 O 0.88595 0.34482 0.86895 0.0
O502 O 0.96751 0.3673 0.82072 0.0
O503 O 0.95953 0.39123 0.85588 0.0
O504 O 0.82392 0.65653 0.08762 0.0
Cd505 Cd 0.85668 0.6772 0.07183 0.0
Cd506 Cd 0.87712 0.66617 0.12202 0.0
O507 O 0.83942 0.64786 0.12757 0.0
O508 O 0.84476 0.67821 0.03397 0.0
O509 O 0.8791 0.6574 0.04745 0.0
C510 C 0.86305 0.66323 0.0284 0.0
C511 C 0.91424 0.64466 0.13465 0.0
C512 C 0.82055 0.64628 0.11006 0.0
C513 C 0.87776 0.72297 0.10669 0.0
O514 O 0.88269 0.70632 0.12393 0.0
O515 O 0.86729 0.71563 0.08411 0.0
O516 O 0.89977 0.65502 0.15183 0.0
O517 O 0.90725 0.64611 0.10989 0.0
O518 O 0.61871 0.61965 0.29006 0.0
Cd519 Cd 0.61987 0.61854 0.33086 0.0
Cd520 Cd 0.5655 0.63074 0.32216 0.0
O521 O 0.57535 0.62258 0.28344 0.0
O522 O 0.65154 0.59926 0.33972 0.0
O523 O 0.60992 0.58391 0.34784 0.0
C524 C 0.63517 0.5805 0.34803 0.0
C525 C 0.5205 0.62441 0.3339 0.0
C526 C 0.59841 0.62023 0.27435 0.0
C527 C 0.60635 0.66968 0.35249 0.0
O528 O 0.58334 0.66394 0.34143 0.0
O529 O 0.62433 0.65392 0.35161 0.0
O530 O 0.52856 0.64116 0.31665 0.0
O531 O 0.53769 0.60965 0.34339 0.0
O532 O 0.62814 0.9562 0.62254 0.0
Cd533 Cd 0.62812 0.91637 0.62543 0.0
Cd534 Cd 0.68203 0.92801 0.60984 0.0
O535 O 0.6714 0.9657 0.6165 0.0
O536 O 0.59807 0.90544 0.64888 0.0
O537 O 0.64067 0.9022 0.66005 0.0
C538 C 0.61574 0.89953 0.66634 0.0
C539 C 0.72696 0.91969 0.61746 0.0
C540 C 0.64819 0.97303 0.62001 0.0
C541 C 0.64165 0.89288 0.57418 0.0
O542 O 0.66466 0.90543 0.57825 0.0
O543 O 0.62347 0.89378 0.59102 0.0
O544 O 0.72 0.93454 0.59881 0.0
O545 O 0.70854 0.91029 0.63288 0.0
O546 O 0.36715 0.37028 0.0466 0.0
Cd547 Cd 0.3648 0.36684 0.08733 0.0
Cd548 Cd 0.37107 0.31521 0.07373 0.0
O549 O 0.36266 0.32819 0.03633 0.0
O550 O 0.34672 0.39757 0.09964 0.0
O551 O 0.32865 0.3568 0.10258 0.0
C552 C 0.32657 0.3815 0.10585 0.0
C553 C 0.36078 0.27103 0.08334 0.0
C554 C 0.3646 0.35182 0.02924 0.0
C555 C 0.41601 0.3478 0.105 0.0
O556 O 0.40802 0.32799 0.09042 0.0
O557 O 0.4006 0.36561 0.1089 0.0
O558 O 0.37719 0.27836 0.06531 0.0
O559 O 0.34848 0.28871 0.09498 0.0
O560 O 0.39286 0.58275 0.84616 0.0
Cd561 Cd 0.41555 0.61324 0.82967 0.0
Cd562 Cd 0.4069 0.63225 0.88208 0.0
O563 O 0.3852 0.5965 0.88668 0.0
O564 O 0.41814 0.59761 0.79374 0.0
O565 O 0.39704 0.6326 0.80113 0.0
C566 C 0.40335 0.61472 0.7848 0.0
C567 C 0.38869 0.67051 0.89482 0.0
C568 C 0.38221 0.57908 0.86837 0.0
C569 C 0.46427 0.63033 0.86458 0.0
O570 O 0.4483 0.63454 0.88291 0.0
O571 O 0.45525 0.62245 0.84167 0.0
O572 O 0.39796 0.65521 0.91198 0.0
O573 O 0.38904 0.6636 0.87007 0.0
O574 O 0.07658 0.66831 0.5874 0.0
Cd575 Cd 0.11276 0.68159 0.57209 0.0
Cd576 Cd 0.1219 0.63204 0.58444 0.0
O577 O 0.08721 0.63213 0.60571 0.0
O578 O 0.10657 0.71824 0.56425 0.0
O579 O 0.1364 0.7085 0.59467 0.0
C580 C 0.12415 0.72599 0.58261 0.0
C581 C 0.16416 0.62607 0.60273 0.0
C582 C 0.07045 0.64877 0.60166 0.0
C583 C 0.11971 0.64396 0.52714 0.0
O584 O 0.11778 0.62588 0.54391 0.0
O585 O 0.121 0.66772 0.53492 0.0
O586 O 0.14614 0.60655 0.59829 0.0
O587 O 0.15745 0.64924 0.59813 0.0
O588 O 0.05546 0.3631 0.37564 0.0
Cd589 Cd 0.09634 0.36566 0.37101 0.0
Cd590 Cd 0.07822 0.38254 0.31944 0.0
O591 O 0.04112 0.37317 0.33564 0.0
O592 O 0.10975 0.34686 0.40204 0.0
O593 O 0.11329 0.33302 0.36077 0.0
C594 C 0.1169 0.32937 0.38583 0.0
C595 C 0.08236 0.37738 0.27356 0.0
C596 C 0.03636 0.36646 0.35924 0.0
C597 C 0.11634 0.41935 0.35526 0.0
O598 O 0.10198 0.41483 0.33414 0.0
O599 O 0.11739 0.40226 0.37291 0.0
O600 O 0.06798 0.39426 0.2835 0.0
O601 O 0.09371 0.36234 0.28965 0.0
O602 O 0.385 0.70885 0.38665 0.0
Cd603 Cd 0.3839 0.66905 0.39224 0.0
Cd604 Cd 0.3713 0.68513 0.4416 0.0
O605 O 0.38534 0.72147 0.42878 0.0
O606 O 0.40154 0.65558 0.36071 0.0
O607 O 0.41763 0.65241 0.40166 0.0
C608 C 0.41996 0.64831 0.37654 0.0
C609 C 0.37932 0.674 0.48553 0.0
C610 C 0.38698 0.72683 0.40446 0.0
C611 C 0.32831 0.6544 0.40752 0.0
O612 O 0.3339 0.6702 0.42704 0.0
O613 O 0.34656 0.64868 0.39219 0.0
O614 O 0.36458 0.69223 0.47946 0.0
O615 O 0.39067 0.66249 0.46659 0.0
O616 O 0.08123 0.6681 0.15934 0.0
Cd617 Cd 0.06708 0.63299 0.17487 0.0
Cd618 Cd 0.11379 0.61989 0.15501 0.0
O619 O 0.11236 0.65417 0.1344 0.0
O620 O 0.03056 0.63982 0.18525 0.0
O621 O 0.0377 0.61185 0.15299 0.0
C622 C 0.02102 0.62387 0.1665 0.0
C623 C 0.12086 0.57964 0.13573 0.0
C624 C 0.09828 0.67221 0.14146 0.0
C625 C 0.10911 0.62015 0.21388 0.0
O626 O 0.1249 0.62206 0.1947 0.0
O627 O 0.08414 0.62158 0.20986 0.0
O628 O 0.14014 0.59815 0.13892 0.0
O629 O 0.09698 0.58481 0.14168 0.0
O630 O 0.17154 0.32907 0.91586 0.0
Cd631 Cd 0.13626 0.31488 0.93218 0.0
Cd632 Cd 0.11655 0.32893 0.88516 0.0
O633 O 0.15482 0.34651 0.88035 0.0
O634 O 0.14726 0.31332 0.97012 0.0
O635 O 0.11715 0.33875 0.95555 0.0
C636 C 0.13174 0.33122 0.97496 0.0
C637 C 0.08055 0.35258 0.87369 0.0
C638 C 0.17485 0.34223 0.89508 0.0
C639 C 0.11328 0.27111 0.89726 0.0
O640 O 0.11044 0.28859 0.88023 0.0
O641 O 0.12171 0.27756 0.92071 0.0
O642 O 0.09474 0.34261 0.85602 0.0
O643 O 0.08697 0.34925 0.8983 0.0
O644 O 0.37799 0.38567 0.69841 0.0
Cd645 Cd 0.38273 0.38843 0.65793 0.0
Cd646 Cd 0.43284 0.38203 0.67452 0.0
O647 O 0.42046 0.39759 0.70954 0.0
O648 O 0.35133 0.40587 0.6444 0.0
O649 O 0.39321 0.42399 0.64344 0.0
C650 C 0.36785 0.42583 0.63922 0.0
C651 C 0.47728 0.38884 0.66176 0.0
C652 C 0.39614 0.39317 0.71587 0.0
C653 C 0.40028 0.33753 0.64549 0.0
O654 O 0.41793 0.34443 0.66359 0.0
O655 O 0.38514 0.35404 0.63671 0.0
O656 O 0.47084 0.37657 0.6829 0.0
O657 O 0.45865 0.39943 0.64885 0.0
O658 O 0.37632 0.05203 0.37676 0.0
Cd659 Cd 0.37436 0.09162 0.37381 0.0
Cd660 Cd 0.32078 0.07708 0.39016 0.0
O661 O 0.33372 0.04016 0.3842 0.0
O662 O 0.40433 0.10409 0.35085 0.0
O663 O 0.36156 0.10582 0.33931 0.0
C664 C 0.38655 0.10977 0.33341 0.0
C665 C 0.27512 0.08298 0.38294 0.0
C666 C 0.35741 0.03423 0.38029 0.0
C667 C 0.3599 0.11426 0.42509 0.0
O668 O 0.33734 0.10081 0.42124 0.0
O669 O 0.37809 0.11403 0.40821 0.0
O670 O 0.28315 0.06878 0.40168 0.0
O671 O 0.29288 0.09303 0.36717 0.0
C672 C 0.13235 0.28492 0.37789 0.0
C673 C 0.12646 0.30479 0.39581 0.0
C674 C 0.13695 0.25996 0.3867 0.0
C675 C 0.1355 0.25395 0.41368 0.0
H676 H 0.13217 0.28822 0.35678 0.0
H677 H 0.13982 0.24485 0.37208 0.0
S678 S 0.12511 0.29986 0.46913 0.0
N679 N 0.12297 0.3174 0.4423 0.0
N680 N 0.131 0.27048 0.45853 0.0
C681 C 0.13158 0.27406 0.43194 0.0
C682 C 0.12723 0.29949 0.42309 0.0
C683 C 0.98346 0.87635 0.64307 0.0
C684 C 0.00359 0.86192 0.63322 0.0
C685 C 0.95669 0.87154 0.63365 0.0
C686 C 0.94899 0.85182 0.61435 0.0
H687 H 0.98852 0.89199 0.65766 0.0
H688 H 0.94199 0.88346 0.64146 0.0
S689 S 0.994 0.80735 0.58348 0.0
N690 N 0.01394 0.82642 0.60399 0.0
N691 N 0.96379 0.81706 0.58647 0.0
C692 C 0.9689 0.83673 0.60494 0.0
C693 C 0.99615 0.84187 0.6143 0.0
C694 C 0.37069 0.74049 0.89159 0.0
C695 C 0.37364 0.74903 0.91827 0.0
C696 C 0.3741 0.71456 0.88418 0.0
C697 C 0.38032 0.69628 0.90325 0.0
H698 H 0.36754 0.75429 0.87617 0.0
H699 H 0.37317 0.70924 0.86327 0.0
S700 S 0.38507 0.70808 0.97625 0.0
N701 N 0.37965 0.73664 0.96402 0.0
N702 N 0.3855 0.68795 0.95039 0.0
C703 C 0.38099 0.70418 0.9302 0.0
C704 C 0.37781 0.73056 0.93763 0.0
C705 C 0.51306 0.1282 0.14087 0.0
C706 C 0.49165 0.14045 0.12954 0.0
C707 C 0.53887 0.13153 0.13051 0.0
C708 C 0.54431 0.14761 0.10874 0.0
H709 H 0.50974 0.11548 0.1575 0.0
H710 H 0.55466 0.12152 0.13971 0.0
S711 S 0.49528 0.18499 0.07267 0.0
N712 N 0.47776 0.16982 0.09584 0.0
N713 N 0.52599 0.17633 0.07656 0.0
C714 C 0.5231 0.16035 0.09758 0.0
C715 C 0.49686 0.1567 0.10792 0.0
C716 C 0.08508 0.71765 0.13746 0.0
C717 C 0.10116 0.69824 0.12901 0.0
C718 C 0.08741 0.74258 0.12672 0.0
C719 C 0.10558 0.74908 0.10678 0.0
H720 H 0.07066 0.71374 0.15275 0.0
H721 H 0.07487 0.75691 0.13415 0.0
S722 S 0.15287 0.706 0.07795 0.0
N723 N 0.13635 0.68766 0.09965 0.0
N724 N 0.14038 0.73449 0.07923 0.0
C725 C 0.12162 0.72994 0.09787 0.0
C726 C 0.11951 0.70456 0.10905 0.0
C727 C 0.51403 0.87898 0.37469 0.0
C728 C 0.50547 0.87813 0.34787 0.0
C729 C 0.53962 0.8722 0.38233 0.0
C730 C 0.55755 0.86464 0.36336 0.0
H731 H 0.50025 0.88307 0.38998 0.0
H732 H 0.54484 0.87176 0.4033 0.0
S733 S 0.54596 0.86385 0.2902 0.0
N734 N 0.5177 0.87227 0.3022 0.0
N735 N 0.56592 0.86013 0.31625 0.0
C736 C 0.54989 0.86592 0.33632 0.0
C737 C 0.5238 0.87251 0.32866 0.0
C738 C 0.3788 0.27785 0.60119 0.0
C739 C 0.39159 0.25789 0.6135 0.0
C740 C 0.38167 0.30348 0.61166 0.0
C741 C 0.39766 0.31026 0.6347 0.0
H742 H 0.36591 0.27356 0.58367 0.0
H743 H 0.37116 0.31805 0.60159 0.0
S744 S 0.43667 0.26545 0.67365 0.0
N745 N 0.42167 0.24683 0.64941 0.0
N746 N 0.42724 0.29488 0.66904 0.0
C747 C 0.41109 0.29057 0.64687 0.0
C748 C 0.408 0.26446 0.63629 0.0
C749 C 0.98744 0.11369 0.87386 0.0
C750 C 0.99181 0.11222 0.84652 0.0
C751 C 0.96306 0.12088 0.88325 0.0
C752 C 0.94217 0.12664 0.86561 0.0
H753 H 0.00362 0.11122 0.8881 0.0
H754 H 0.96121 0.12338 0.90445 0.0
S755 S 0.94201 0.12034 0.7921 0.0
N756 N 0.97219 0.11342 0.802 0.0
N757 N 0.92624 0.12638 0.81942 0.0
C758 C 0.9455 0.12275 0.83823 0.0
C759 C 0.97037 0.1157 0.82875 0.0
C760 C 0.42875 0.11969 0.27286 0.0
C761 C 0.41052 0.12735 0.25347 0.0
C762 C 0.42114 0.1155 0.29897 0.0
C763 C 0.3948 0.11834 0.30672 0.0
H764 H 0.44886 0.11598 0.26762 0.0
H765 H 0.43576 0.10874 0.31283 0.0
S766 S 0.34003 0.14038 0.26399 0.0
N767 N 0.36555 0.13961 0.24418 0.0
N768 N 0.35103 0.13134 0.29325 0.0
C769 C 0.37673 0.12732 0.28785 0.0
C770 C 0.38465 0.13196 0.26125 0.0
C771 C 0.1365 0.11317 0.5112 0.0
C772 C 0.13267 0.13874 0.50356 0.0
C773 C 0.13806 0.10664 0.53801 0.0
C774 C 0.13574 0.12536 0.55836 0.0
H775 H 0.13889 0.09812 0.49637 0.0
H776 H 0.14189 0.0869 0.54276 0.0
S777 S 0.12293 0.19452 0.54904 0.0
N778 N 0.12475 0.18248 0.51867 0.0
N779 N 0.1276 0.17022 0.5689 0.0
C780 C 0.13085 0.15075 0.551 0.0
C781 C 0.12938 0.15744 0.52369 0.0
C782 C 0.12943 0.87406 0.7811 0.0
C783 C 0.13329 0.8978 0.79573 0.0
C784 C 0.11637 0.87258 0.75595 0.0
C785 C 0.10607 0.8946 0.74503 0.0
H786 H 0.13706 0.85669 0.78886 0.0
H787 H 0.1142 0.85406 0.74508 0.0
S788 S 0.11009 0.96107 0.77601 0.0
N789 N 0.1254 0.94363 0.79777 0.0
N790 N 0.10032 0.94075 0.751 0.0
C791 C 0.10933 0.91829 0.75978 0.0
C792 C 0.12309 0.91992 0.78502 0.0
C793 C 0.37664 0.84936 0.02401 0.0
C794 C 0.3769 0.86886 0.00489 0.0
C795 C 0.37246 0.85495 0.05069 0.0
C796 C 0.36826 0.88029 0.05953 0.0
H797 H 0.37912 0.82934 0.01832 0.0
H798 H 0.37166 0.83895 0.06432 0.0
S799 S 0.36939 0.93905 0.01804 0.0
N800 N 0.37444 0.91511 0.99706 0.0
N801 N 0.36646 0.92557 0.0473 0.0
C802 C 0.36971 0.90032 0.04092 0.0
C803 C 0.37402 0.89462 0.01361 0.0
C804 C 0.35559 0.89519 0.25857 0.0
C805 C 0.38002 0.88458 0.26355 0.0
C806 C 0.3465 0.89951 0.23274 0.0
C807 C 0.36124 0.89308 0.2107 0.0
H808 H 0.34347 0.90065 0.27478 0.0
H809 H 0.32761 0.9079 0.23009 0.0
S810 S 0.42622 0.86409 0.21282 0.0
N811 N 0.41875 0.86733 0.24426 0.0
N812 N 0.40138 0.87517 0.19549 0.0
C813 C 0.38554 0.88207 0.21528 0.0
C814 C 0.39502 0.87795 0.24174 0.0
C815 C 0.34524 0.15956 0.48128 0.0
C816 C 0.36848 0.16046 0.49789 0.0
C817 C 0.34297 0.14486 0.45758 0.0
C818 C 0.36409 0.13104 0.44919 0.0
H819 H 0.32815 0.16943 0.48711 0.0
H820 H 0.32438 0.14411 0.44582 0.0
S821 S 0.42987 0.12826 0.4844 0.0
N822 N 0.41345 0.14694 0.50383 0.0
N823 N 0.40945 0.11994 0.45853 0.0
C824 C 0.38791 0.1326 0.46491 0.0
C825 C 0.39001 0.14712 0.48949 0.0
C826 C 0.13865 0.09453 0.75724 0.0
C827 C 0.11326 0.10337 0.76063 0.0
C828 C 0.14896 0.09185 0.73201 0.0
C829 C 0.13451 0.09824 0.70906 0.0
H830 H 0.15076 0.08958 0.77424 0.0
H831 H 0.16867 0.08505 0.73059 0.0
S832 S 0.06687 0.12202 0.70696 0.0
N833 N 0.07364 0.11821 0.73879 0.0
N834 N 0.0932 0.11345 0.69132 0.0
C835 C 0.10901 0.107 0.71209 0.0
C836 C 0.09833 0.10944 0.73785 0.0
C837 C 0.12674 0.82056 0.96769 0.0
C838 C 0.12061 0.83736 0.98845 0.0
C839 C 0.13195 0.82993 0.94239 0.0
C840 C 0.13167 0.85661 0.93688 0.0
H841 H 0.12865 0.80014 0.97127 0.0
H842 H 0.13765 0.81628 0.92748 0.0
S843 S 0.11365 0.9082 0.98367 0.0
N844 N 0.11197 0.88147 0.00129 0.0
N845 N 0.12214 0.89927 0.95373 0.0
C846 C 0.12385 0.87335 0.95701 0.0
C847 C 0.11819 0.86368 0.9828 0.0
C848 C 0.29657 0.41743 0.10847 0.0
C849 C 0.30104 0.39145 0.11385 0.0
C850 C 0.27139 0.42651 0.11183 0.0
C851 C 0.24974 0.4102 0.12125 0.0
H852 H 0.31223 0.43059 0.10027 0.0
H853 H 0.26861 0.44626 0.10611 0.0
S854 S 0.25154 0.34138 0.14105 0.0
N855 N 0.28213 0.35007 0.131 0.0
N856 N 0.23492 0.36736 0.13782 0.0
C857 C 0.25434 0.3847 0.12838 0.0
C858 C 0.27993 0.37526 0.12452 0.0
C859 C 0.76609 0.11235 0.87272 0.0
C860 C 0.74466 0.12558 0.88155 0.0
C861 C 0.7928 0.12158 0.87945 0.0
C862 C 0.799 0.14412 0.89566 0.0
H863 H 0.76225 0.09487 0.86025 0.0
H864 H 0.80865 0.11085 0.87207 0.0
S865 S 0.75011 0.18561 0.92441 0.0
N866 N 0.7314 0.16225 0.90758 0.0
N867 N 0.78146 0.17945 0.92041 0.0
C868 C 0.77772 0.1574 0.90482 0.0
C869 C 0.75059 0.1482 0.89771 0.0
C870 C 0.11105 0.50588 0.12568 0.0
C871 C 0.13723 0.49913 0.12151 0.0
C872 C 0.10578 0.53199 0.12899 0.0
C873 C 0.12642 0.55259 0.12829 0.0
H874 H 0.09443 0.49086 0.12701 0.0
H875 H 0.08541 0.53592 0.13296 0.0
S876 S 0.19816 0.54586 0.11565 0.0
N877 N 0.18382 0.51556 0.11515 0.0
N878 N 0.17392 0.56454 0.12136 0.0
C879 C 0.15253 0.54626 0.12305 0.0
C880 C 0.15792 0.51961 0.11969 0.0
C881 C 0.72621 0.84507 0.39861 0.0
C882 C 0.7047 0.85903 0.39068 0.0
C883 C 0.75248 0.85321 0.39186 0.0
C884 C 0.75837 0.8759 0.37727 0.0
H885 H 0.72274 0.82739 0.40979 0.0
H886 H 0.76835 0.84177 0.39848 0.0
S887 S 0.7093 0.91976 0.35211 0.0
N888 N 0.69092 0.89675 0.36753 0.0
N889 N 0.7406 0.9124 0.35521 0.0
C890 C 0.73712 0.89027 0.36942 0.0
C891 C 0.71021 0.88173 0.37599 0.0
C892 C 0.82823 0.952 0.14085 0.0
C893 C 0.85472 0.94767 0.13481 0.0
C894 C 0.81943 0.977 0.13988 0.0
C895 C 0.83653 0.99874 0.13237 0.0
H896 H 0.8144 0.93617 0.14753 0.0
H897 H 0.79915 0.97937 0.14569 0.0
S898 S 0.90704 0.99769 0.11217 0.0
N899 N 0.89753 0.9671 0.11942 0.0
N900 N 0.88077 0.01401 0.11709 0.0
C901 C 0.86263 0.99452 0.12488 0.0
C902 C 0.87177 0.96904 0.12626 0.0
C903 C 0.19922 0.59592 0.61336 0.0
C904 C 0.19219 0.62162 0.61086 0.0
C905 C 0.22592 0.59086 0.61847 0.0
C906 C 0.24683 0.61125 0.62127 0.0
H907 H 0.18408 0.57943 0.6108 0.0
H908 H 0.23018 0.57069 0.61975 0.0
S909 S 0.23896 0.68225 0.61826 0.0
N910 N 0.20826 0.66783 0.61288 0.0
N911 N 0.25831 0.65842 0.62247 0.0
C912 C 0.23997 0.63713 0.61958 0.0
C913 C 0.21273 0.64227 0.61441 0.0
C914 C 0.13057 0.46012 0.38205 0.0
C915 C 0.132 0.445 0.35872 0.0
C916 C 0.14233 0.48609 0.38384 0.0
C917 C 0.15643 0.49739 0.3626 0.0
H918 H 0.11927 0.45226 0.39849 0.0
H919 H 0.13997 0.4975 0.40175 0.0
S920 S 0.16739 0.46484 0.298 0.0
N921 N 0.14939 0.44247 0.31455 0.0
N922 N 0.17215 0.4908 0.31802 0.0
C923 C 0.159 0.48189 0.33968 0.0
C924 C 0.14658 0.45579 0.3377 0.0
C925 C 0.37111 0.53778 0.89265 0.0
C926 C 0.36557 0.55429 0.87183 0.0
C927 C 0.35906 0.51191 0.8927 0.0
C928 C 0.34084 0.50198 0.87214 0.0
H929 H 0.38605 0.54433 0.90801 0.0
H930 H 0.36497 0.49932 0.90831 0.0
S931 S 0.31723 0.53924 0.8151 0.0
N932 N 0.33916 0.56013 0.83165 0.0
N933 N 0.31592 0.51203 0.8319 0.0
C934 C 0.33373 0.51918 0.85234 0.0
C935 C 0.3463 0.54521 0.85212 0.0
C936 C 0.87232 0.69705 0.58797 0.0
C937 C 0.87153 0.69157 0.61515 0.0
C938 C 0.86842 0.72188 0.57877 0.0
C939 C 0.8631 0.74218 0.59626 0.0
H940 H 0.8775 0.68252 0.57369 0.0
H941 H 0.8708 0.7255 0.55788 0.0
S942 S 0.85507 0.73722 0.66879 0.0
N943 N 0.86226 0.70791 0.65917 0.0
N944 N 0.85452 0.75459 0.64169 0.0
C945 C 0.86005 0.73651 0.62318 0.0
C946 C 0.86439 0.7112 0.63268 0.0
C947 C 0.01631 0.12448 0.35801 0.0
C948 C 0.99615 0.13768 0.3696 0.0
C949 C 0.043 0.12801 0.36799 0.0
C950 C 0.05055 0.14524 0.3896 0.0
H951 H 0.01131 0.11078 0.34156 0.0
H952 H 0.05779 0.11715 0.35871 0.0
S953 S 0.00537 0.18554 0.42602 0.0
N954 N 0.98564 0.16927 0.40319 0.0
N955 N 0.03555 0.1762 0.42179 0.0
C956 C 0.03059 0.15904 0.40091 0.0
C957 C 0.00347 0.15518 0.39096 0.0
C958 C 0.61932 0.27533 0.07271 0.0
C959 C 0.62693 0.25619 0.09008 0.0
C960 C 0.61533 0.30041 0.08199 0.0
C961 C 0.6184 0.30738 0.10914 0.0
H962 H 0.61518 0.27055 0.05187 0.0
H963 H 0.60829 0.31394 0.06783 0.0
S964 S 0.64161 0.2654 0.16238 0.0
N965 N 0.64026 0.24665 0.13529 0.0
N966 N 0.63243 0.29382 0.15291 0.0
C967 C 0.62795 0.28903 0.12648 0.0
C968 C 0.63231 0.26343 0.11691 0.0
C969 C 0.4613 0.87287 0.8688 0.0
C970 C 0.45638 0.85698 0.8908 0.0
C971 C 0.48672 0.87587 0.85768 0.0
C972 C 0.50831 0.86343 0.8684 0.0
H973 H 0.4454 0.88304 0.86005 0.0
H974 H 0.48963 0.88854 0.84095 0.0
S975 S 0.50598 0.8192 0.92551 0.0
N976 N 0.47531 0.82816 0.92251 0.0
N977 N 0.52292 0.83406 0.90176 0.0
C978 C 0.50362 0.8473 0.8902 0.0
C979 C 0.47772 0.84401 0.90134 0.0
C980 C 0.88504 0.27018 0.90429 0.0
C981 C 0.89596 0.24971 0.89075 0.0
C982 C 0.88674 0.29552 0.89433 0.0
C983 C 0.89976 0.30149 0.87063 0.0
H984 H 0.87437 0.26648 0.92236 0.0
H985 H 0.87771 0.3105 0.9053 0.0
S986 S 0.93303 0.2551 0.82835 0.0
N987 N 0.9211 0.23732 0.8529 0.0
N988 N 0.92458 0.28481 0.83429 0.0
C989 C 0.9114 0.2813 0.85726 0.0
C990 C 0.90942 0.25548 0.86727 0.0
C991 C 0.45139 0.1326 0.6542 0.0
C992 C 0.4442 0.13526 0.62726 0.0
C993 C 0.47659 0.12531 0.662 0.0
C994 C 0.49551 0.12003 0.64321 0.0
H995 H 0.43808 0.13756 0.66959 0.0
H996 H 0.48182 0.12519 0.683 0.0
S997 S 0.48545 0.12044 0.57012 0.0
N998 N 0.4571 0.12922 0.58163 0.0
N999 N 0.50452 0.11528 0.59644 0.0
C1000 C 0.48786 0.12038 0.61618 0.0
C1001 C 0.46218 0.12808 0.60816 0.0
C1002 C 0.59689 0.73023 0.39354 0.0
C1003 C 0.61779 0.74811 0.38529 0.0
C1004 C 0.59378 0.70447 0.38337 0.0
C1005 C 0.61204 0.69562 0.36545 0.0
H1006 H 0.58235 0.73647 0.40713 0.0
H1007 H 0.57677 0.69146 0.38926 0.0
S1008 S 0.67098 0.7346 0.33906 0.0
N1009 N 0.65735 0.75524 0.3588 0.0
N1010 N 0.65215 0.70646 0.34061 0.0
C1011 C 0.63362 0.71305 0.35795 0.0
C1012 C 0.63632 0.73944 0.36765 0.0
C1013 C 0.03249 0.87616 0.11268 0.0
C1014 C 0.05324 0.87068 0.13064 0.0
C1015 C 0.00791 0.88331 0.12168 0.0
C1016 C 0.0032 0.88501 0.14894 0.0
H1017 H 0.03465 0.87357 0.09153 0.0
H1018 H 0.99189 0.88563 0.10722 0.0
S1019 S 0.05238 0.87744 0.20407 0.0
N1020 N 0.06854 0.87129 0.17703 0.0
N1021 N 0.02227 0.88415 0.1937 0.0
C1022 C 0.02444 0.88169 0.16701 0.0
C1023 C 0.04949 0.87469 0.15793 0.0
C1024 C 0.58151 0.89638 0.70125 0.0
C1025 C 0.60751 0.89223 0.69343 0.0
C1026 C 0.57393 0.89309 0.7275 0.0
C1027 C 0.59185 0.88511 0.74702 0.0
H1028 H 0.56709 0.90328 0.68727 0.0
H1029 H 0.554 0.89748 0.73264 0.0
S1030 S 0.66147 0.86921 0.73651 0.0
N1031 N 0.6507 0.87801 0.70708 0.0
N1032 N 0.63624 0.87143 0.75642 0.0
C1033 C 0.61744 0.87948 0.73926 0.0
C1034 C 0.62533 0.88317 0.71249 0.0
C1035 C 0.86601 0.87755 0.49073 0.0
C1036 C 0.86786 0.85207 0.49979 0.0
C1037 C 0.86529 0.88279 0.46358 0.0
C1038 C 0.86642 0.8628 0.44429 0.0
H1039 H 0.86462 0.89361 0.50469 0.0
H1040 H 0.86298 0.90259 0.45771 0.0
S1041 S 0.87393 0.7931 0.45743 0.0
N1042 N 0.87265 0.80688 0.48712 0.0
N1043 N 0.87132 0.81674 0.43624 0.0
C1044 C 0.86929 0.8374 0.45305 0.0
C1045 C 0.86996 0.83203 0.48071 0.0
C1046 C 0.89207 0.11812 0.20674 0.0
C1047 C 0.86399 0.11239 0.20508 0.0
C1048 C 0.90578 0.12228 0.23142 0.0
C1049 C 0.89174 0.12184 0.25508 0.0
H1050 H 0.90362 0.11812 0.18897 0.0
H1051 H 0.92753 0.12521 0.23204 0.0
S1052 S 0.818 0.10954 0.26119 0.0
N1053 N 0.82256 0.10747 0.22899 0.0
N1054 N 0.84823 0.11637 0.27527 0.0
C1055 C 0.86358 0.11748 0.25356 0.0
C1056 C 0.84972 0.11245 0.22855 0.0
C1057 C 0.62826 0.15467 0.94991 0.0
C1058 C 0.63018 0.12907 0.94027 0.0
C1059 C 0.62516 0.16001 0.97688 0.0
C1060 C 0.62377 0.13999 0.99549 0.0
H1061 H 0.63001 0.17098 0.93668 0.0
H1062 H 0.62437 0.18017 0.98318 0.0
S1063 S 0.62547 0.06919 0.98025 0.0
N1064 N 0.62876 0.08318 0.95128 0.0
N1065 N 0.62284 0.09316 0.00199 0.0
C1066 C 0.6245 0.11411 0.98599 0.0
C1067 C 0.6277 0.10867 0.95842 0.0
C1068 C 0.63604 0.13397 0.77799 0.0
C1069 C 0.63107 0.1095 0.78965 0.0
C1070 C 0.6283 0.1375 0.75147 0.0
C1071 C 0.61456 0.11693 0.73616 0.0
H1072 H 0.64694 0.15015 0.7891 0.0
H1073 H 0.63322 0.15638 0.74281 0.0
S1074 S 0.59551 0.04959 0.75796 0.0
N1075 N 0.61122 0.06459 0.78419 0.0
N1076 N 0.59548 0.07164 0.73466 0.0
C1077 C 0.60856 0.09269 0.74789 0.0
C1078 C 0.61716 0.08887 0.7746 0.0
C1079 C 0.65503 0.84777 0.51724 0.0
C1080 C 0.63169 0.84733 0.50083 0.0
C1081 C 0.65772 0.86224 0.5411 0.0
C1082 C 0.63695 0.87633 0.54989 0.0
H1083 H 0.67189 0.83768 0.51116 0.0
H1084 H 0.67639 0.86259 0.55268 0.0
S1085 S 0.57102 0.8803 0.51534 0.0
N1086 N 0.58697 0.86157 0.49552 0.0
N1087 N 0.59175 0.88813 0.54109 0.0
C1088 C 0.61302 0.87524 0.53435 0.0
C1089 C 0.61049 0.86094 0.50961 0.0
C1090 C 0.88878 0.90822 0.28322 0.0
C1091 C 0.87373 0.88711 0.29471 0.0
C1092 C 0.89647 0.90674 0.25681 0.0
C1093 C 0.88843 0.88447 0.24084 0.0
H1094 H 0.89421 0.92618 0.29461 0.0
H1095 H 0.90774 0.92351 0.24851 0.0
S1096 S 0.84954 0.82374 0.26171 0.0
N1097 N 0.85212 0.84293 0.28854 0.0
N1098 N 0.86552 0.84053 0.2385 0.0
C1099 C 0.87381 0.86307 0.25222 0.0
C1100 C 0.86673 0.86428 0.27931 0.0
C1101 C 0.87734 0.13426 0.01317 0.0
C1102 C 0.87876 0.16122 0.00865 0.0
C1103 C 0.87195 0.12446 0.03841 0.0
C1104 C 0.86807 0.14131 0.06003 0.0
H1105 H 0.87862 0.12055 0.99678 0.0
H1106 H 0.86952 0.10348 0.04063 0.0
S1107 S 0.87478 0.21389 0.05921 0.0
N1108 N 0.87928 0.20474 0.02827 0.0
N1109 N 0.86978 0.18661 0.07571 0.0
C1110 C 0.87175 0.16845 0.05609 0.0
C1111 C 0.87691 0.17833 0.03039 0.0
C1112 C 0.72544 0.57547 0.87948 0.0
C1113 C 0.7482 0.59155 0.87213 0.0
C1114 C 0.70021 0.58495 0.88068 0.0
C1115 C 0.69673 0.61114 0.87513 0.0
H1116 H 0.72731 0.55559 0.88537 0.0
H1117 H 0.68367 0.57196 0.88756 0.0
S1118 S 0.74944 0.66062 0.85226 0.0
N1119 N 0.76523 0.6343 0.85684 0.0
N1120 N 0.71789 0.65238 0.85968 0.0
C1121 C 0.71901 0.62705 0.86624 0.0
C1122 C 0.74471 0.61719 0.86457 0.0
C1123 C 0.22903 0.89115 0.12557 0.0
C1124 C 0.25124 0.87907 0.11676 0.0
C1125 C 0.20271 0.88073 0.11876 0.0
C1126 C 0.19767 0.85811 0.1025 0.0
H1127 H 0.23195 0.90865 0.1381 0.0
H1128 H 0.18623 0.89062 0.1261 0.0
S1129 S 0.24891 0.81925 0.07392 0.0
N1130 N 0.26649 0.84333 0.0908 0.0
N1131 N 0.21712 0.82387 0.07781 0.0
C1132 C 0.21972 0.84594 0.0934 0.0
C1133 C 0.24648 0.85636 0.10059 0.0
C1134 C 0.88391 0.49248 0.8746 0.0
C1135 C 0.8577 0.49946 0.8781 0.0
C1136 C 0.88899 0.46633 0.87113 0.0
C1137 C 0.86812 0.44588 0.87103 0.0
H1138 H 0.90076 0.50736 0.87399 0.0
H1139 H 0.90946 0.46224 0.86785 0.0
S1140 S 0.79604 0.45322 0.88129 0.0
N1141 N 0.81073 0.48341 0.88265 0.0
N1142 N 0.82025 0.43434 0.87616 0.0
C1143 C 0.8419 0.45243 0.87541 0.0
C1144 C 0.83671 0.47914 0.87893 0.0
C1145 C 0.26902 0.11331 0.63047 0.0
C1146 C 0.24574 0.12519 0.62353 0.0
C1147 C 0.29451 0.12463 0.624 0.0
C1148 C 0.29754 0.14795 0.6099 0.0
H1149 H 0.26756 0.09515 0.64101 0.0
H1150 H 0.31189 0.11477 0.62963 0.0
S1151 S 0.24289 0.18685 0.5872 0.0
N1152 N 0.22735 0.16171 0.60204 0.0
N1153 N 0.27516 0.1828 0.58962 0.0
C1154 C 0.27442 0.16008 0.60294 0.0
C1155 C 0.24855 0.14876 0.60985 0.0
C1156 C 0.17658 0.02173 0.87605 0.0
C1157 C 0.15976 0.99909 0.88149 0.0
C1158 C 0.16645 0.04603 0.87391 0.0
C1159 C 0.13893 0.04869 0.87663 0.0
H1160 H 0.1976 0.02049 0.87225 0.0
H1161 H 0.18014 0.06254 0.8685 0.0
S1162 S 0.08694 0.99594 0.89417 0.0
N1163 N 0.11473 0.98128 0.89226 0.0
N1164 N 0.09551 0.02693 0.88776 0.0
C1165 C 0.12219 0.02653 0.88385 0.0
C1166 C 0.13265 0.00176 0.88642 0.0
C1167 C 0.7866 0.36501 0.39127 0.0
C1168 C 0.80862 0.38429 0.39183 0.0
C1169 C 0.76036 0.37121 0.38571 0.0
C1170 C 0.75494 0.39696 0.38027 0.0
H1171 H 0.78949 0.34499 0.39579 0.0
H1172 H 0.74416 0.35561 0.3859 0.0
S1173 S 0.80578 0.45455 0.37779 0.0
N1174 N 0.82339 0.43014 0.38541 0.0
N1175 N 0.77422 0.44178 0.37487 0.0
C1176 C 0.7769 0.41635 0.38008 0.0
C1177 C 0.80364 0.41003 0.38587 0.0
C1178 C 0.87998 0.50071 0.6314 0.0
C1179 C 0.8519 0.49535 0.63038 0.0
C1180 C 0.89199 0.52633 0.63522 0.0
C1181 C 0.8763 0.54742 0.63733 0.0
H1182 H 0.89274 0.4849 0.63102 0.0
H1183 H 0.91369 0.5296 0.63728 0.0
S1184 S 0.80201 0.54386 0.63292 0.0
N1185 N 0.80873 0.51317 0.62998 0.0
N1186 N 0.8314 0.56155 0.63601 0.0
C1187 C 0.84826 0.5425 0.63448 0.0
C1188 C 0.83602 0.51635 0.63132 0.0
C1189 C 0.63744 0.49131 0.14328 0.0
C1190 C 0.62266 0.50482 0.12484 0.0
C1191 C 0.62981 0.46507 0.14856 0.0
C1192 C 0.60765 0.4514 0.13503 0.0
H1193 H 0.65455 0.50127 0.1543 0.0
H1194 H 0.64108 0.4555 0.16351 0.0
S1195 S 0.56312 0.47714 0.08407 0.0
N1196 N 0.58517 0.50222 0.09259 0.0
N1197 N 0.57137 0.45258 0.10214 0.0
C1198 C 0.59314 0.46432 0.11609 0.0
C1199 C 0.60052 0.49117 0.11107 0.0
C1200 C 0.62852 0.77575 0.92071 0.0
C1201 C 0.63421 0.75592 0.90279 0.0
C1202 C 0.62486 0.80087 0.91215 0.0
C1203 C 0.6263 0.80717 0.88519 0.0
H1204 H 0.6258 0.77157 0.94144 0.0
H1205 H 0.61945 0.81503 0.92671 0.0
S1206 S 0.64366 0.76301 0.83064 0.0
N1207 N 0.64363 0.74484 0.8572 0.0
N1208 N 0.63633 0.79205 0.84095 0.0
C1209 C 0.63362 0.78797 0.86726 0.0
C1210 C 0.63771 0.76237 0.87611 0.0
C1211 C 0.47851 0.37221 0.14691 0.0
C1212 C 0.49809 0.35717 0.13696 0.0
C1213 C 0.45191 0.36894 0.13673 0.0
C1214 C 0.44387 0.35021 0.11653 0.0
H1215 H 0.48398 0.38732 0.16197 0.0
H1216 H 0.43766 0.38137 0.14454 0.0
S1217 S 0.48732 0.30435 0.08543 0.0
N1218 N 0.50747 0.32194 0.10698 0.0
N1219 N 0.45767 0.3154 0.08801 0.0
C1220 C 0.46316 0.33433 0.1072 0.0
C1221 C 0.49022 0.33791 0.11736 0.0
C1222 C 0.87418 0.21194 0.37459 0.0
C1223 C 0.87902 0.19262 0.39304 0.0
C1224 C 0.87096 0.23765 0.38295 0.0
C1225 C 0.87277 0.24491 0.41 0.0
H1226 H 0.87431 0.20759 0.35351 0.0
H1227 H 0.86897 0.25227 0.3681 0.0
S1228 S 0.88027 0.20107 0.46642 0.0
N1229 N 0.88151 0.18202 0.43983 0.0
N1230 N 0.87615 0.23035 0.45524 0.0
C1231 C 0.87546 0.22545 0.42864 0.0
C1232 C 0.87838 0.19928 0.42024 0.0
C1233 C 0.01266 0.62503 0.64499 0.0
C1234 C 0.9912 0.63788 0.63468 0.0
C1235 C 0.03823 0.62857 0.63423 0.0
C1236 C 0.04339 0.64544 0.61304 0.0
H1237 H 0.00955 0.6116 0.66108 0.0
H1238 H 0.05403 0.61801 0.64261 0.0
S1239 S 0.99417 0.6847 0.57977 0.0
N1240 N 0.97695 0.66872 0.60264 0.0
N1241 N 0.02483 0.67566 0.58258 0.0
C1242 C 0.02217 0.65886 0.60296 0.0
C1243 C 0.99613 0.65501 0.61371 0.0
C1244 C 0.62949 0.24037 0.61693 0.0
C1245 C 0.60662 0.25037 0.60583 0.0
C1246 C 0.62842 0.21445 0.62518 0.0
C1247 C 0.60427 0.19798 0.62314 0.0
H1248 H 0.64829 0.25272 0.61931 0.0
H1249 H 0.64634 0.20754 0.63401 0.0
S1250 S 0.53918 0.21473 0.59436 0.0
N1251 N 0.55965 0.24176 0.59202 0.0
N1252 N 0.55723 0.19324 0.60837 0.0
C1253 C 0.58136 0.20775 0.61176 0.0
C1254 C 0.58264 0.23394 0.60285 0.0
C1255 C 0.03736 0.37066 0.88462 0.0
C1256 C 0.05636 0.36545 0.86574 0.0
C1257 C 0.01214 0.37824 0.87679 0.0
C1258 C 0.00509 0.38071 0.84983 0.0
H1259 H 0.04132 0.36739 0.90544 0.0
H1260 H 0.99742 0.3802 0.89176 0.0
S1261 S 0.04938 0.37464 0.79313 0.0
N1262 N 0.06774 0.36747 0.81923 0.0
N1263 N 0.02027 0.38122 0.80468 0.0
C1264 C 0.02469 0.37787 0.83105 0.0
C1265 C 0.05037 0.37037 0.83896 0.0
C1266 C 0.86825 0.76976 0.10259 0.0
C1267 C 0.88391 0.75113 0.11348 0.0
C1268 C 0.87248 0.7962 0.11071 0.0
C1269 C 0.89279 0.80504 0.12976 0.0
H1270 H 0.85204 0.76375 0.0883 0.0
H1271 H 0.85951 0.8097 0.10225 0.0
S1272 S 0.94101 0.76413 0.16232 0.0
N1273 N 0.92156 0.74349 0.14293 0.0
N1274 N 0.92984 0.79288 0.15799 0.0
C1275 C 0.90925 0.78661 0.13998 0.0
C1276 C 0.90473 0.75976 0.13191 0.0
C1277 C 0.44883 0.64018 0.33851 0.0
C1278 C 0.44397 0.63768 0.36569 0.0
C1279 C 0.47304 0.63408 0.32807 0.0
C1280 C 0.49323 0.62479 0.34423 0.0
H1281 H 0.43441 0.64818 0.32531 0.0
H1282 H 0.4764 0.6377 0.30732 0.0
S1283 S 0.48933 0.61159 0.41599 0.0
N1284 N 0.46049 0.62302 0.40814 0.0
N1285 N 0.50595 0.61118 0.3883 0.0
C1286 C 0.48796 0.62037 0.37103 0.0
C1287 C 0.46336 0.62696 0.38182 0.0
C1288 C 0.91771 0.60526 0.80054 0.0
C1289 C 0.89155 0.60891 0.80827 0.0
C1290 C 0.92513 0.60815 0.77422 0.0
C1291 C 0.90689 0.61524 0.75453 0.0
H1292 H 0.93236 0.599 0.81467 0.0
H1293 H 0.9452 0.60413 0.76914 0.0
S1294 S 0.83675 0.62965 0.7647 0.0
N1295 N 0.84785 0.62176 0.79434 0.0
N1296 N 0.86204 0.62763 0.74482 0.0
C1297 C 0.88114 0.62043 0.76216 0.0
C1298 C 0.8734 0.61712 0.78902 0.0
C1299 C 0.62747 0.63816 0.03597 0.0
C1300 C 0.6393 0.61497 0.04093 0.0
C1301 C 0.62731 0.64876 0.01056 0.0
C1302 C 0.63853 0.63628 0.98911 0.0
H1303 H 0.61845 0.64832 0.05186 0.0
H1304 H 0.61774 0.66649 0.00757 0.0
S1305 S 0.67221 0.57528 0.99156 0.0
N1306 N 0.66285 0.58007 0.02217 0.0
N1307 N 0.66223 0.59981 0.9746 0.0
C1308 C 0.65051 0.61318 0.99383 0.0
C1309 C 0.65097 0.60258 0.01967 0.0
C1310 C 0.6335 0.38286 0.2476 0.0
C1311 C 0.60529 0.37888 0.24675 0.0
C1312 C 0.64794 0.38772 0.27177 0.0
C1313 C 0.63467 0.3879 0.29587 0.0
H1314 H 0.64437 0.38381 0.22939 0.0
H1315 H 0.66958 0.39188 0.27159 0.0
S1316 S 0.56122 0.37631 0.30434 0.0
N1317 N 0.5647 0.37424 0.27196 0.0
N1318 N 0.59194 0.38215 0.31754 0.0
C1319 C 0.60661 0.38242 0.29536 0.0
C1320 C 0.59187 0.37824 0.27072 0.0
C1321 C 0.86806 0.38827 0.5407 0.0
C1322 C 0.86876 0.36842 0.55937 0.0
C1323 C 0.87225 0.38335 0.51378 0.0
C1324 C 0.87731 0.35838 0.50445 0.0
H1325 H 0.86313 0.40752 0.54665 0.0
H1326 H 0.87062 0.39908 0.50011 0.0
S1327 S 0.88487 0.30059 0.54589 0.0
N1328 N 0.87754 0.3235 0.56705 0.0
N1329 N 0.88545 0.31425 0.51663 0.0
C1330 C 0.87953 0.33874 0.52318 0.0
C1331 C 0.87527 0.34376 0.55057 0.0
C1332 C 0.8879 0.40661 0.74926 0.0
C1333 C 0.88134 0.38315 0.76233 0.0
C1334 C 0.87884 0.40968 0.72305 0.0
C1335 C 0.86383 0.38906 0.70884 0.0
H1336 H 0.89947 0.4229 0.75959 0.0
H1337 H 0.88364 0.42829 0.7138 0.0
S1338 S 0.84253 0.32337 0.73386 0.0
N1339 N 0.85929 0.3389 0.75922 0.0
N1340 N 0.84333 0.34428 0.70946 0.0
C1341 C 0.85785 0.36527 0.72145 0.0
C1342 C 0.86633 0.36242 0.74838 0.0
C1343 C 0.83737 0.63425 0.96178 0.0
C1344 C 0.85947 0.62274 0.95199 0.0
C1345 C 0.83928 0.64827 0.98591 0.0
C1346 C 0.86321 0.65088 0.00162 0.0
H1347 H 0.8183 0.63228 0.95074 0.0
H1348 H 0.82146 0.65632 0.99273 0.0
S1349 S 0.92724 0.62508 0.98451 0.0
N1350 N 0.90643 0.6157 0.95922 0.0
N1351 N 0.90983 0.64144 0.00523 0.0
C1352 C 0.88568 0.63986 0.99188 0.0
C1353 C 0.88388 0.62599 0.96689 0.0
C1354 C 0.62754 0.61488 0.23551 0.0
C1355 C 0.60193 0.61795 0.24521 0.0
C1356 C 0.63149 0.61164 0.20833 0.0
C1357 C 0.61003 0.61128 0.18956 0.0
H1358 H 0.64476 0.61455 0.24903 0.0
H1359 H 0.65151 0.60873 0.20211 0.0
S1360 S 0.53923 0.62036 0.20415 0.0
N1361 N 0.55493 0.6218 0.2335 0.0
N1362 N 0.56236 0.61568 0.18249 0.0
C1363 C 0.58444 0.61515 0.19882 0.0
C1364 C 0.58039 0.61847 0.22657 0.0
C1365 C 0.62685 0.32667 0.46998 0.0
C1366 C 0.62084 0.34302 0.49115 0.0
C1367 C 0.63295 0.33672 0.44517 0.0
C1368 C 0.63367 0.36366 0.44052 0.0
H1369 H 0.62794 0.306 0.47287 0.0
H1370 H 0.63841 0.3233 0.42991 0.0
S1371 S 0.61642 0.41445 0.48863 0.0
N1372 N 0.61346 0.38712 0.5053 0.0
N1373 N 0.62524 0.40621 0.45859 0.0
C1374 C 0.62599 0.38005 0.46103 0.0
C1375 C 0.61947 0.36968 0.48636 0.0
C1376 C 0.75911 0.88603 0.62509 0.0
C1377 C 0.75465 0.91181 0.61896 0.0
C1378 C 0.78423 0.87671 0.62134 0.0
C1379 C 0.80594 0.89297 0.61173 0.0
H1380 H 0.74267 0.8725 0.63132 0.0
H1381 H 0.78634 0.85637 0.6251 0.0
S1382 S 0.80536 0.96323 0.59635 0.0
N1383 N 0.77448 0.95411 0.60524 0.0
N1384 N 0.82172 0.93703 0.59877 0.0
C1385 C 0.80212 0.91934 0.60734 0.0
C1386 C 0.77648 0.92863 0.61078 0.0
C1387 C 0.26858 0.60939 0.38074 0.0
C1388 C 0.24655 0.6218 0.38944 0.0
C1389 C 0.29496 0.62002 0.38677 0.0
C1390 C 0.30028 0.64322 0.40211 0.0
H1391 H 0.26546 0.59155 0.36875 0.0
H1392 H 0.31129 0.60993 0.37939 0.0
S1393 S 0.2496 0.68284 0.4305 0.0
N1394 N 0.23173 0.65826 0.41464 0.0
N1395 N 0.28132 0.67812 0.42623 0.0
C1396 C 0.27843 0.65559 0.41136 0.0
C1397 C 0.25156 0.64494 0.40493 0.0
C1398 C 0.61374 0.03533 0.62811 0.0
C1399 C 0.63511 0.0553 0.6286 0.0
C1400 C 0.61819 0.009 0.62484 0.0
C1401 C 0.64422 0.00137 0.62182 0.0
H1402 H 0.59338 0.03994 0.63102 0.0
H1403 H 0.60098 0.9945 0.62515 0.0
S1404 S 0.70702 0.04619 0.61967 0.0
N1405 N 0.68326 0.06571 0.6243 0.0
N1406 N 0.6916 0.01629 0.6181 0.0
C1407 C 0.66571 0.02121 0.62131 0.0
C1408 C 0.66118 0.0481 0.62471 0.0
C1409 C 0.20663 0.37508 0.8733 0.0
C1410 C 0.2023 0.35231 0.8881 0.0
C1411 C 0.23271 0.38551 0.86761 0.0
C1412 C 0.25526 0.37318 0.87602 0.0
H1413 H 0.18983 0.38527 0.8666 0.0
H1414 H 0.23522 0.40335 0.85657 0.0
S1415 S 0.25454 0.31243 0.91449 0.0
N1416 N 0.22262 0.31737 0.91047 0.0
N1417 N 0.27147 0.3367 0.89954 0.0
C1418 C 0.2511 0.35005 0.89032 0.0
C1419 C 0.22466 0.33969 0.89643 0.0
C1420 C 0.3304 0.45437 0.63538 0.0
C1421 C 0.35757 0.45087 0.63156 0.0
C1422 C 0.3208 0.47888 0.63273 0.0
C1423 C 0.33779 0.50086 0.62568 0.0
H1424 H 0.31663 0.43838 0.64185 0.0
H1425 H 0.30006 0.48079 0.63722 0.0
S1426 S 0.40984 0.50164 0.61029 0.0
N1427 N 0.40084 0.47111 0.61814 0.0
N1428 N 0.38261 0.51711 0.61271 0.0
C1429 C 0.36455 0.49732 0.61999 0.0
C1430 C 0.37448 0.47237 0.62307 0.0
C1431 C 0.72531 0.09009 0.11785 0.0
C1432 C 0.74722 0.10955 0.11911 0.0
C1433 C 0.699 0.09622 0.11248 0.0
C1434 C 0.69333 0.12211 0.10824 0.0
H1435 H 0.72848 0.0698 0.12061 0.0
H1436 H 0.68304 0.08037 0.11122 0.0
S1437 S 0.74318 0.18069 0.11081 0.0
N1438 N 0.76117 0.15613 0.1167 0.0
N1439 N 0.71183 0.16756 0.10669 0.0
C1440 C 0.71491 0.14189 0.11013 0.0
C1441 C 0.74177 0.13565 0.1155 0.0
C1442 C 0.62029 0.99908 0.86897 0.0
C1443 C 0.6483 0.00463 0.86823 0.0
C1444 C 0.60829 0.97337 0.86601 0.0
C1445 C 0.62395 0.95235 0.86305 0.0
H1446 H 0.60745 0.01479 0.8701 0.0
H1447 H 0.58656 0.96997 0.86527 0.0
S1448 S 0.69822 0.95635 0.86284 0.0
N1449 N 0.69148 0.98702 0.86606 0.0
N1450 N 0.66887 0.93849 0.86163 0.0
C1451 C 0.65202 0.95746 0.86413 0.0
C1452 C 0.66423 0.98371 0.86641 0.0
C1453 C 0.87719 0.03564 0.38265 0.0
C1454 C 0.87555 0.04925 0.35895 0.0
C1455 C 0.86553 0.00975 0.38412 0.0
C1456 C 0.85138 0.99704 0.36213 0.0
H1457 H 0.88851 0.04462 0.39971 0.0
H1458 H 0.86809 0.99947 0.40238 0.0
S1459 S 0.83956 0.02576 0.29633 0.0
N1460 N 0.85769 0.04915 0.31368 0.0
N1461 N 0.83515 0.00096 0.31642 0.0
C1462 C 0.84853 0.01116 0.33877 0.0
C1463 C 0.86082 0.03717 0.33718 0.0
C1464 C 0.36535 0.2241 0.0741 0.0
C1465 C 0.35921 0.24368 0.09209 0.0
C1466 C 0.37049 0.19937 0.08272 0.0
C1467 C 0.37015 0.1933 0.10977 0.0
H1468 H 0.3675 0.2283 0.0533 0.0
H1469 H 0.37629 0.18546 0.06811 0.0
S1470 S 0.35187 0.23678 0.16452 0.0
N1471 N 0.35033 0.25463 0.13782 0.0
N1472 N 0.36036 0.20815 0.15419 0.0
C1473 C 0.36218 0.21212 0.12777 0.0
C1474 C 0.35658 0.2373 0.11888 0.0
C1475 C 0.53052 0.65678 0.89806 0.0
C1476 C 0.54987 0.64548 0.88314 0.0
C1477 C 0.50308 0.65169 0.89182 0.0
C1478 C 0.49364 0.63531 0.87016 0.0
H1479 H 0.5365 0.66944 0.9151 0.0
H1480 H 0.48916 0.66083 0.90411 0.0
S1481 S 0.5358 0.60121 0.82423 0.0
N1482 N 0.55763 0.61729 0.84544 0.0
N1483 N 0.50584 0.60794 0.83342 0.0
C1484 C 0.51269 0.62411 0.85474 0.0
C1485 C 0.5408 0.62909 0.86132 0.0
C1486 C 0.12941 0.76095 0.61814 0.0
C1487 C 0.12756 0.75382 0.59104 0.0
C1488 C 0.12594 0.78655 0.62669 0.0
C1489 C 0.12075 0.80589 0.60839 0.0
H1490 H 0.13166 0.74628 0.6329 0.0
H1491 H 0.12589 0.79078 0.6478 0.0
S1492 S 0.11922 0.79789 0.53496 0.0
N1493 N 0.12376 0.76862 0.54592 0.0
N1494 N 0.11787 0.81672 0.56168 0.0
C1495 C 0.12129 0.79939 0.58115 0.0
C1496 C 0.12451 0.77335 0.57255 0.0
C1497 C 0.0025 0.34639 0.38974 0.0
C1498 C 0.00836 0.36258 0.3682 0.0
C1499 C 0.97664 0.34292 0.39955 0.0
C1500 C 0.95553 0.35582 0.38855 0.0
H1501 H 0.01804 0.33619 0.39916 0.0
H1502 H 0.97334 0.33028 0.41625 0.0
S1503 S 0.96015 0.4003 0.33168 0.0
N1504 N 0.99081 0.39145 0.33583 0.0
N1505 N 0.94213 0.38523 0.35462 0.0
C1506 C 0.96101 0.37205 0.36693 0.0
C1507 C 0.98739 0.3753 0.35664 0.0
C1508 C 0.41534 0.79531 0.38886 0.0
C1509 C 0.39264 0.80633 0.37856 0.0
C1510 C 0.41331 0.7697 0.39803 0.0
C1511 C 0.38864 0.75418 0.39656 0.0
H1512 H 0.43488 0.8065 0.38954 0.0
H1513 H 0.43122 0.76176 0.40561 0.0
S1514 S 0.32341 0.77349 0.37113 0.0
N1515 N 0.34473 0.79977 0.36779 0.0
N1516 N 0.3411 0.75128 0.38433 0.0
C1517 C 0.36578 0.76493 0.38659 0.0
C1518 C 0.36771 0.79116 0.37778 0.0
C1519 C 0.98393 0.6218 0.132 0.0
C1520 C 0.99218 0.62245 0.15892 0.0
C1521 C 0.95797 0.62743 0.12422 0.0
C1522 C 0.9394 0.63371 0.14314 0.0
H1523 H 0.99817 0.61885 0.1168 0.0
H1524 H 0.95301 0.62832 0.10323 0.0
S1525 S 0.94984 0.63259 0.21632 0.0
N1526 N 0.97887 0.6261 0.20452 0.0
N1527 N 0.93001 0.63614 0.19014 0.0
C1528 C 0.94675 0.63193 0.17018 0.0
C1529 C 0.97318 0.62645 0.17801 0.0
C1530 C 0.09367 0.23604 0.8653 0.0
C1531 C 0.10833 0.24312 0.88903 0.0
C1532 C 0.09017 0.21009 0.85593 0.0
C1533 C 0.10143 0.19007 0.86972 0.0
H1534 H 0.08491 0.25069 0.85365 0.0
H1535 H 0.07884 0.20583 0.83743 0.0
S1536 S 0.14116 0.19808 0.9333 0.0
N1537 N 0.1338 0.22784 0.92654 0.0
N1538 N 0.12735 0.17904 0.90877 0.0
C1539 C 0.11591 0.19677 0.89367 0.0
C1540 C 0.11927 0.22326 0.90339 0.0
C1541 C 0.54901 0.37301 0.65894 0.0
C1542 C 0.55293 0.37065 0.63154 0.0
C1543 C 0.52517 0.38099 0.66856 0.0
C1544 C 0.50432 0.3872 0.65122 0.0
H1545 H 0.56392 0.36748 0.67323 0.0
H1546 H 0.52258 0.38107 0.68978 0.0
S1547 S 0.50583 0.38778 0.5778 0.0
N1548 N 0.53498 0.37785 0.58719 0.0
N1549 N 0.49012 0.393 0.60537 0.0
C1550 C 0.50872 0.38693 0.62384 0.0
C1551 C 0.53302 0.37857 0.61397 0.0
C1552 C 0.11317 0.37329 0.236 0.0
C1553 C 0.08759 0.37747 0.24489 0.0
C1554 C 0.12013 0.37837 0.20973 0.0
C1555 C 0.1016 0.38739 0.19133 0.0
H1556 H 0.12842 0.36751 0.24977 0.0
H1557 H 0.14044 0.37598 0.20408 0.0
S1558 S 0.0308 0.39819 0.20419 0.0
N1559 N 0.04298 0.38897 0.23288 0.0
N1560 N 0.05565 0.39797 0.18353 0.0
C1561 C 0.07537 0.38998 0.19966 0.0
C1562 C 0.06848 0.38518 0.22644 0.0
C1563 C 0.36073 0.38957 0.96537 0.0
C1564 C 0.36334 0.37046 0.94548 0.0
C1565 C 0.36141 0.38345 0.99233 0.0
C1566 C 0.3646 0.35793 0.00055 0.0
H1567 H 0.35733 0.40929 0.96011 0.0
H1568 H 0.35884 0.39879 0.00679 0.0
S1569 S 0.37487 0.30123 0.9565 0.0
N1570 N 0.37115 0.32529 0.93607 0.0
N1571 N 0.37231 0.31381 0.98654 0.0
C1572 C 0.36818 0.33884 0.9809 0.0
C1573 C 0.36763 0.3451 0.95347 0.0
C1574 C 0.37081 0.63124 0.71898 0.0
C1575 C 0.36602 0.60664 0.70604 0.0
C1576 C 0.38323 0.63391 0.74441 0.0
C1577 C 0.39193 0.61217 0.75736 0.0
H1578 H 0.36425 0.64842 0.70973 0.0
H1579 H 0.38595 0.65307 0.75401 0.0
S1580 S 0.38526 0.54366 0.7312 0.0
N1581 N 0.37161 0.56031 0.70764 0.0
N1582 N 0.39537 0.5653 0.75497 0.0
C1583 C 0.38791 0.58759 0.74422 0.0
C1584 C 0.37484 0.58483 0.71868 0.0
C1585 C 0.12673 0.61221 0.49021 0.0
C1586 C 0.12121 0.63738 0.49847 0.0
C1587 C 0.13047 0.60617 0.46344 0.0
C1588 C 0.12879 0.62504 0.44386 0.0
H1589 H 0.12914 0.59725 0.50461 0.0
H1590 H 0.13587 0.58688 0.45829 0.0
S1591 S 0.11086 0.69272 0.45451 0.0
N1592 N 0.11142 0.68049 0.48444 0.0
N1593 N 0.1184 0.66914 0.43426 0.0
C1594 C 0.12169 0.64981 0.45164 0.0
C1595 C 0.11795 0.65598 0.47888 0.0
C1596 C 0.10575 0.62275 0.26324 0.0
C1597 C 0.11977 0.61566 0.24092 0.0
C1598 C 0.11539 0.61842 0.28903 0.0
C1599 C 0.13914 0.60641 0.29342 0.0
H1600 H 0.08727 0.63188 0.26081 0.0
H1601 H 0.10393 0.62421 0.3056 0.0
S1602 S 0.18321 0.58392 0.24159 0.0
N1603 N 0.15862 0.59603 0.22488 0.0
N1604 N 0.17658 0.58766 0.27316 0.0
C1605 C 0.15332 0.59918 0.27122 0.0
C1606 C 0.14369 0.60389 0.24503 0.0
C1607 C 0.11317 0.37246 0.03377 0.0
C1608 C 0.13671 0.37414 0.04995 0.0
C1609 C 0.11136 0.35808 0.00965 0.0
C1610 C 0.13274 0.34438 0.00141 0.0
H1611 H 0.0965 0.38309 0.03929 0.0
H1612 H 0.09324 0.35794 0.99726 0.0
S1613 S 0.19796 0.34121 0.03803 0.0
N1614 N 0.18127 0.36014 0.05685 0.0
N1615 N 0.17776 0.33264 0.01213 0.0
C1616 C 0.15593 0.34513 0.01809 0.0
C1617 C 0.15796 0.36015 0.04222 0.0
C1618 C 0.36936 0.3751 0.78283 0.0
C1619 C 0.37151 0.39929 0.7966 0.0
C1620 C 0.37759 0.37328 0.75663 0.0
C1621 C 0.38897 0.39543 0.74375 0.0
H1622 H 0.36021 0.35771 0.79195 0.0
H1623 H 0.37488 0.35448 0.74629 0.0
S1624 S 0.40041 0.46288 0.77171 0.0
N1625 N 0.38631 0.44569 0.79572 0.0
N1626 N 0.40299 0.44194 0.74685 0.0
C1627 C 0.39221 0.41949 0.75762 0.0
C1628 C 0.38314 0.4215 0.784 0.0
C1629 C 0.37872 0.63811 0.51807 0.0
C1630 C 0.38027 0.66496 0.51306 0.0
C1631 C 0.37293 0.62879 0.54341 0.0
C1632 C 0.36878 0.64605 0.5646 0.0
H1633 H 0.38009 0.6241 0.50196 0.0
H1634 H 0.37033 0.60786 0.54599 0.0
S1635 S 0.37591 0.71856 0.56248 0.0
N1636 N 0.38078 0.70883 0.5318 0.0
N1637 N 0.37054 0.69161 0.57945 0.0
C1638 C 0.37271 0.6731 0.56023 0.0
C1639 C 0.37828 0.68248 0.53443 0.0
C1640 C 0.21556 0.12313 0.38 0.0
C1641 C 0.19468 0.10592 0.38972 0.0
C1642 C 0.24116 0.11502 0.37587 0.0
C1643 C 0.24694 0.08954 0.38176 0.0
H1644 H 0.21242 0.1433 0.37642 0.0
H1645 H 0.25693 0.12926 0.36955 0.0
S1646 S 0.19884 0.03602 0.40477 0.0
N1647 N 0.18113 0.06134 0.40265 0.0
N1648 N 0.22926 0.04652 0.39552 0.0
C1649 C 0.22595 0.07179 0.39011 0.0
C1650 C 0.19982 0.07985 0.39389 0.0
C1651 C 0.74488 0.35486 0.60138 0.0
C1652 C 0.75157 0.37801 0.61651 0.0
C1653 C 0.71815 0.34605 0.59476 0.0
C1654 C 0.697 0.35981 0.60332 0.0
H1655 H 0.76043 0.34345 0.59444 0.0
H1656 H 0.71405 0.328 0.5832 0.0
S1657 S 0.70368 0.42179 0.64308 0.0
N1658 N 0.73488 0.41484 0.63954 0.0
N1659 N 0.68446 0.39803 0.62732 0.0
C1660 C 0.70334 0.38308 0.61836 0.0
C1661 C 0.73066 0.39225 0.62486 0.0
C1662 C 0.34616 0.95991 0.37593 0.0
C1663 C 0.37231 0.95229 0.37401 0.0
C1664 C 0.3416 0.9863 0.37855 0.0
C1665 C 0.36298 0.00629 0.3793 0.0
H1666 H 0.32887 0.94544 0.37461 0.0
H1667 H 0.32103 0.99102 0.3793 0.0
S1668 S 0.43558 0.99672 0.37764 0.0
N1669 N 0.42007 0.9669 0.37495 0.0
N1670 N 0.4116 0.01637 0.37988 0.0
C1671 C 0.38935 0.99889 0.3785 0.0
C1672 C 0.39398 0.97197 0.37589 0.0
C1673 C 0.78311 0.61425 0.09427 0.0
C1674 C 0.79481 0.63101 0.11466 0.0
C1675 C 0.75783 0.60067 0.09684 0.0
C1676 C 0.74295 0.60386 0.11963 0.0
H1677 H 0.79347 0.6118 0.07601 0.0
H1678 H 0.74946 0.58845 0.08024 0.0
S1679 S 0.7653 0.64478 0.17918 0.0
N1680 N 0.79056 0.6492 0.15896 0.0
N1681 N 0.74222 0.62431 0.16347 0.0
C1682 C 0.75467 0.62015 0.14049 0.0
C1683 C 0.78086 0.63354 0.1381 0.0
C1684 C 0.67123 0.55023 0.34824 0.0
C1685 C 0.64508 0.55509 0.35499 0.0
C1686 C 0.68025 0.5255 0.351 0.0
C1687 C 0.6637 0.50455 0.36099 0.0
H1688 H 0.68462 0.56537 0.33968 0.0
H1689 H 0.7002 0.52264 0.34457 0.0
S1690 S 0.59443 0.50742 0.38413 0.0
N1691 N 0.60332 0.53719 0.3739 0.0
N1692 N 0.62048 0.49074 0.37946 0.0
C1693 C 0.63803 0.50941 0.36925 0.0
C1694 C 0.62867 0.53463 0.36612 0.0
C1695 C 0.27341 0.9108 0.88325 0.0
C1696 C 0.25267 0.89024 0.88055 0.0
C1697 C 0.30016 0.90602 0.88853 0.0
C1698 C 0.30743 0.88045 0.89138 0.0
H1699 H 0.26897 0.93091 0.88172 0.0
H1700 H 0.31515 0.92265 0.89101 0.0
S1701 S 0.2612 0.81942 0.88445 0.0
N1702 N 0.24162 0.84302 0.87985 0.0
N1703 N 0.29177 0.83414 0.8898 0.0
C1704 C 0.28706 0.85961 0.88794 0.0
C1705 C 0.25977 0.86446 0.88255 0.0
C1706 C 0.35733 0.01265 0.1205 0.0
C1707 C 0.34501 0.00166 0.14287 0.0
C1708 C 0.3699 0.03833 0.12154 0.0
C1709 C 0.37117 0.05338 0.1452 0.0
H1710 H 0.35743 0.00128 0.10219 0.0
H1711 H 0.37952 0.04608 0.10409 0.0
S1712 S 0.34167 0.03397 0.20903 0.0
N1713 N 0.33421 0.00825 0.18906 0.0
N1714 N 0.3585 0.05602 0.1911 0.0
C1715 C 0.35863 0.04277 0.1675 0.0
C1716 C 0.34536 0.017 0.16631 0.0
C1717 C 0.14956 0.95484 0.62874 0.0
C1718 C 0.12138 0.95116 0.62817 0.0
C1719 C 0.16304 0.98 0.6276 0.0
C1720 C 0.14873 0.00208 0.62516 0.0
H1721 H 0.1612 0.93848 0.63203 0.0
H1722 H 0.18475 0.98229 0.62988 0.0
S1723 S 0.07465 0.002 0.61927 0.0
N1724 N 0.0796 0.97099 0.62273 0.0
N1725 N 0.10485 0.01819 0.6196 0.0
C1726 C 0.12057 0.99828 0.62233 0.0
C1727 C 0.10689 0.97279 0.62414 0.0
loop_
_geom_bond_atom_site_label_1
_geom_bond_atom_site_label_2
_geom_bond_distance
_geom_bond_site_symmetry_2
_ccdc_geom_bond_type
O0 Cd1 2.223 . S
O0 C8 1.315 . S
Cd1 O0 2.223 . S
Cd1 O4 2.297 . S
Cd1 O5 2.439 . S
Cd1 O11 2.240 . S
Cd2 O3 2.240 . S
Cd2 O10 2.223 . S
Cd2 O12 2.297 . S
Cd2 O13 2.439 . S
O3 Cd2 2.240 . S
O3 C8 1.279 . S
O4 Cd1 2.297 . S
O4 C6 1.247 . S
O5 Cd1 2.439 . S
O5 C6 1.208 . S
C6 O4 1.247 . S
C6 O5 1.208 . S
C7 O12 1.247 . S
C7 O13 1.208 . S
C8 O0 1.315 . S
C8 O3 1.279 . S
C9 O10 1.315 . S
C9 O11 1.279 . S
O10 Cd2 2.223 . S
O10 C9 1.315 . S
O11 Cd1 2.240 . S
O11 C9 1.279 . S
O12 Cd2 2.297 . S
O12 C7 1.247 . S
O13 Cd2 2.439 . S
O13 C7 1.208 . S
O14 Cd15 2.223 . S
O14 C22 1.315 . S
Cd15 O14 2.223 . S
Cd15 O18 2.297 . S
Cd15 O19 2.439 . S
Cd15 O25 2.240 . S
Cd16 O17 2.240 . S
Cd16 O24 2.223 . S
Cd16 O26 2.297 . S
Cd16 O27 2.439 . S
O17 Cd16 2.240 . S
O17 C22 1.279 . S
O18 Cd15 2.297 . S
O18 C20 1.247 . S
O19 Cd15 2.439 . S
O19 C20 1.208 . S
C20 O18 1.247 . S
C20 O19 1.208 . S
C21 O26 1.247 . S
C21 O27 1.208 . S
C22 O14 1.315 . S
C22 O17 1.279 . S
C23 O24 1.315 . S
C23 O25 1.279 . S
O24 Cd16 2.223 . S
O24 C23 1.315 . S
O25 Cd15 2.240 . S
O25 C23 1.279 . S
O26 Cd16 2.297 . S
O26 C21 1.247 . S
O27 Cd16 2.439 . S
O27 C21 1.208 . S
O28 Cd29 2.223 . S
O28 C36 1.315 . S
Cd29 O28 2.223 . S
Cd29 O32 2.297 . S
Cd29 O33 2.439 . S
Cd29 O39 2.240 . S
Cd30 O31 2.240 . S
Cd30 O38 2.223 . S
Cd30 O40 2.297 . S
Cd30 O41 2.439 . S
O31 Cd30 2.240 . S
O31 C36 1.279 . S
O32 Cd29 2.297 . S
O32 C34 1.247 . S
O33 Cd29 2.439 . S
O33 C34 1.208 . S
C34 O32 1.247 . S
C34 O33 1.208 . S
C35 O40 1.247 . S
C35 O41 1.208 . S
C36 O28 1.315 . S
C36 O31 1.279 . S
C37 O38 1.315 . S
C37 O39 1.279 . S
O38 Cd30 2.223 . S
O38 C37 1.315 . S
O39 Cd29 2.240 . S
O39 C37 1.279 . S
O40 Cd30 2.297 . S
O40 C35 1.247 . S
O41 Cd30 2.439 . S
O41 C35 1.208 . S
O42 Cd43 2.223 . S
O42 C50 1.315 . S
Cd43 O42 2.223 . S
Cd43 O46 2.297 . S
Cd43 O47 2.439 . S
Cd43 O53 2.240 . S
Cd44 O45 2.240 . S
Cd44 O52 2.223 . S
Cd44 O54 2.297 . S
Cd44 O55 2.439 . S
O45 Cd44 2.240 . S
O45 C50 1.279 . S
O46 Cd43 2.297 . S
O46 C48 1.247 . S
O47 Cd43 2.439 . S
O47 C48 1.208 . S
C48 O46 1.247 . S
C48 O47 1.208 . S
C49 O54 1.247 . S
C49 O55 1.208 . S
C50 O42 1.315 . S
C50 O45 1.279 . S
C51 O52 1.315 . S
C51 O53 1.279 . S
O52 Cd44 2.223 . S
O52 C51 1.315 . S
O53 Cd43 2.240 . S
O53 C51 1.279 . S
O54 Cd44 2.297 . S
O54 C49 1.247 . S
O55 Cd44 2.439 . S
O55 C49 1.208 . S
O56 Cd57 2.223 . S
O56 C64 1.315 . S
Cd57 O56 2.223 . S
Cd57 O60 2.297 . S
Cd57 O61 2.439 . S
Cd57 O67 2.240 . S
Cd58 O59 2.240 . S
Cd58 O66 2.223 . S
Cd58 O68 2.297 . S
Cd58 O69 2.439 . S
O59 Cd58 2.240 . S
O59 C64 1.279 . S
O60 Cd57 2.297 . S
O60 C62 1.247 . S
O61 Cd57 2.439 . S
O61 C62 1.208 . S
C62 O60 1.247 . S
C62 O61 1.208 . S
C63 O68 1.247 . S
C63 O69 1.208 . S
C64 O56 1.315 . S
C64 O59 1.279 . S
C65 O66 1.315 . S
C65 O67 1.279 . S
O66 Cd58 2.223 . S
O66 C65 1.315 . S
O67 Cd57 2.240 . S
O67 C65 1.279 . S
O68 Cd58 2.297 . S
O68 C63 1.247 . S
O69 Cd58 2.439 . S
O69 C63 1.208 . S
O70 Cd71 2.223 . S
O70 C78 1.315 . S
Cd71 O70 2.223 . S
Cd71 O74 2.297 . S
Cd71 O75 2.439 . S
Cd71 O81 2.240 . S
Cd72 O73 2.240 . S
Cd72 O80 2.223 . S
Cd72 O82 2.297 . S
Cd72 O83 2.439 . S
O73 Cd72 2.240 . S
O73 C78 1.279 . S
O74 Cd71 2.297 . S
O74 C76 1.247 . S
O75 Cd71 2.439 . S
O75 C76 1.208 . S
C76 O74 1.247 . S
C76 O75 1.208 . S
C77 O82 1.247 . S
C77 O83 1.208 . S
C78 O70 1.315 . S
C78 O73 1.279 . S
C79 O80 1.315 . S
C79 O81 1.279 . S
O80 Cd72 2.223 . S
O80 C79 1.315 . S
O81 Cd71 2.240 . S
O81 C79 1.279 . S
O82 Cd72 2.297 . S
O82 C77 1.247 . S
O83 Cd72 2.439 . S
O83 C77 1.208 . S
O84 Cd85 2.223 . S
O84 C92 1.315 . S
Cd85 O84 2.223 . S
Cd85 O88 2.297 . S
Cd85 O89 2.439 . S
Cd85 O95 2.240 . S
Cd86 O87 2.240 . S
Cd86 O94 2.223 . S
Cd86 O96 2.297 . S
Cd86 O97 2.439 . S
O87 Cd86 2.240 . S
O87 C92 1.279 . S
O88 Cd85 2.297 . S
O88 C90 1.247 . S
O89 Cd85 2.439 . S
O89 C90 1.208 . S
C90 O88 1.247 . S
C90 O89 1.208 . S
C91 O96 1.247 . S
C91 O97 1.208 . S
C92 O84 1.315 . S
C92 O87 1.279 . S
C93 O94 1.315 . S
C93 O95 1.279 . S
O94 Cd86 2.223 . S
O94 C93 1.315 . S
O95 Cd85 2.240 . S
O95 C93 1.279 . S
O96 Cd86 2.297 . S
O96 C91 1.247 . S
O97 Cd86 2.439 . S
O97 C91 1.208 . S
O98 Cd99 2.223 . S
O98 C106 1.315 . S
Cd99 O98 2.223 . S
Cd99 O102 2.297 . S
Cd99 O103 2.439 . S
Cd99 O109 2.240 . S
Cd100 O101 2.240 . S
Cd100 O108 2.223 . S
Cd100 O110 2.297 . S
Cd100 O111 2.439 . S
O101 Cd100 2.240 . S
O101 C106 1.279 . S
O102 Cd99 2.297 . S
O102 C104 1.247 . S
O103 Cd99 2.439 . S
O103 C104 1.208 . S
C104 O102 1.247 . S
C104 O103 1.208 . S
C105 O110 1.247 . S
C105 O111 1.208 . S
C106 O98 1.315 . S
C106 O101 1.279 . S
C107 O108 1.315 . S
C107 O109 1.279 . S
O108 Cd100 2.223 . S
O108 C107 1.315 . S
O109 Cd99 2.240 . S
O109 C107 1.279 . S
O110 Cd100 2.297 . S
O110 C105 1.247 . S
O111 Cd100 2.439 . S
O111 C105 1.208 . S
O112 Cd113 2.223 . S
O112 C120 1.315 . S
Cd113 O112 2.223 . S
Cd113 O116 2.297 . S
Cd113 O117 2.439 . S
Cd113 O123 2.240 . S
Cd114 O115 2.240 . S
Cd114 O122 2.223 . S
Cd114 O124 2.297 . S
Cd114 O125 2.439 . S
O115 Cd114 2.240 . S
O115 C120 1.279 . S
O116 Cd113 2.297 . S
O116 C118 1.247 . S
O117 Cd113 2.439 . S
O117 C118 1.208 . S
C118 O116 1.247 . S
C118 O117 1.208 . S
C119 O124 1.247 . S
C119 O125 1.208 . S
C120 O112 1.315 . S
C120 O115 1.279 . S
C121 O122 1.315 . S
C121 O123 1.279 . S
O122 Cd114 2.223 . S
O122 C121 1.315 . S
O123 Cd113 2.240 . S
O123 C121 1.279 . S
O124 Cd114 2.297 . S
O124 C119 1.247 . S
O125 Cd114 2.439 . S
O125 C119 1.208 . S
O126 Cd127 2.223 . S
O126 C134 1.315 . S
Cd127 O126 2.223 . S
Cd127 O130 2.297 . S
Cd127 O131 2.439 . S
Cd127 O137 2.240 . S
Cd128 O129 2.240 . S
Cd128 O136 2.223 . S
Cd128 O138 2.297 . S
Cd128 O139 2.439 . S
O129 Cd128 2.240 . S
O129 C134 1.279 . S
O130 Cd127 2.297 . S
O130 C132 1.247 . S
O131 Cd127 2.439 . S
O131 C132 1.208 . S
C132 O130 1.247 . S
C132 O131 1.208 . S
C133 O138 1.247 . S
C133 O139 1.208 . S
C134 O126 1.315 . S
C134 O129 1.279 . S
C135 O136 1.315 . S
C135 O137 1.279 . S
O136 Cd128 2.223 . S
O136 C135 1.315 . S
O137 Cd127 2.240 . S
O137 C135 1.279 . S
O138 Cd128 2.297 . S
O138 C133 1.247 . S
O139 Cd128 2.439 . S
O139 C133 1.208 . S
O140 Cd141 2.223 . S
O140 C148 1.315 . S
Cd141 O140 2.223 . S
Cd141 O144 2.297 . S
Cd141 O145 2.439 . S
Cd141 O151 2.240 . S
Cd142 O143 2.240 . S
Cd142 O150 2.223 . S
Cd142 O152 2.297 . S
Cd142 O153 2.439 . S
O143 Cd142 2.240 . S
O143 C148 1.279 . S
O144 Cd141 2.297 . S
O144 C146 1.247 . S
O145 Cd141 2.439 . S
O145 C146 1.208 . S
C146 O144 1.247 . S
C146 O145 1.208 . S
C147 O152 1.247 . S
C147 O153 1.208 . S
C148 O140 1.315 . S
C148 O143 1.279 . S
C149 O150 1.315 . S
C149 O151 1.279 . S
O150 Cd142 2.223 . S
O150 C149 1.315 . S
O151 Cd141 2.240 . S
O151 C149 1.279 . S
O152 Cd142 2.297 . S
O152 C147 1.247 . S
O153 Cd142 2.439 . S
O153 C147 1.208 . S
O154 Cd155 2.223 . S
O154 C162 1.315 . S
Cd155 O154 2.223 . S
Cd155 O158 2.297 . S
Cd155 O159 2.439 . S
Cd155 O165 2.240 . S
Cd156 O157 2.240 . S
Cd156 O164 2.223 . S
Cd156 O166 2.297 . S
Cd156 O167 2.439 . S
O157 Cd156 2.240 . S
O157 C162 1.279 . S
O158 Cd155 2.297 . S
O158 C160 1.247 . S
O159 Cd155 2.439 . S
O159 C160 1.208 . S
C160 O158 1.247 . S
C160 O159 1.208 . S
C161 O166 1.247 . S
C161 O167 1.208 . S
C162 O154 1.315 . S
C162 O157 1.279 . S
C163 O164 1.315 . S
C163 O165 1.279 . S
O164 Cd156 2.223 . S
O164 C163 1.315 . S
O165 Cd155 2.240 . S
O165 C163 1.279 . S
O166 Cd156 2.297 . S
O166 C161 1.247 . S
O167 Cd156 2.439 . S
O167 C161 1.208 . S
O168 Cd169 2.223 . S
O168 C176 1.315 . S
Cd169 O168 2.223 . S
Cd169 O172 2.297 . S
Cd169 O173 2.439 . S
Cd169 O179 2.240 . S
Cd170 O171 2.240 . S
Cd170 O178 2.223 . S
Cd170 O180 2.297 . S
Cd170 O181 2.439 . S
O171 Cd170 2.240 . S
O171 C176 1.279 . S
O172 Cd169 2.297 . S
O172 C174 1.247 . S
O173 Cd169 2.439 . S
O173 C174 1.208 . S
C174 O172 1.247 . S
C174 O173 1.208 . S
C175 O180 1.247 . S
C175 O181 1.208 . S
C176 O168 1.315 . S
C176 O171 1.279 . S
C177 O178 1.315 . S
C177 O179 1.279 . S
O178 Cd170 2.223 . S
O178 C177 1.315 . S
O179 Cd169 2.240 . S
O179 C177 1.279 . S
O180 Cd170 2.297 . S
O180 C175 1.247 . S
O181 Cd170 2.439 . S
O181 C175 1.208 . S
O182 Cd183 2.223 . S
O182 C190 1.315 . S
Cd183 O182 2.223 . S
Cd183 O186 2.297 . S
Cd183 O187 2.439 . S
Cd183 O193 2.240 . S
Cd184 O185 2.240 . S
Cd184 O192 2.223 . S
Cd184 O194 2.297 . S
Cd184 O195 2.439 . S
O185 Cd184 2.240 . S
O185 C190 1.279 . S
O186 Cd183 2.297 . S
O186 C188 1.247 . S
O187 Cd183 2.439 . S
O187 C188 1.208 . S
C188 O186 1.247 . S
C188 O187 1.208 . S
C189 O194 1.247 . S
C189 O195 1.208 . S
C190 O182 1.315 . S
C190 O185 1.279 . S
C191 O192 1.315 . S
C191 O193 1.279 . S
O192 Cd184 2.223 . S
O192 C191 1.315 . S
O193 Cd183 2.240 . S
O193 C191 1.279 . S
O194 Cd184 2.297 . S
O194 C189 1.247 . S
O195 Cd184 2.439 . S
O195 C189 1.208 . S
O196 Cd197 2.223 . S
O196 C204 1.315 . S
Cd197 O196 2.223 . S
Cd197 O200 2.297 . S
Cd197 O201 2.439 . S
Cd197 O207 2.240 . S
Cd198 O199 2.240 . S
Cd198 O206 2.223 . S
Cd198 O208 2.297 . S
Cd198 O209 2.439 . S
O199 Cd198 2.240 . S
O199 C204 1.279 . S
O200 Cd197 2.297 . S
O200 C202 1.247 . S
O201 Cd197 2.439 . S
O201 C202 1.208 . S
C202 O200 1.247 . S
C202 O201 1.208 . S
C203 O208 1.247 . S
C203 O209 1.208 . S
C204 O196 1.315 . S
C204 O199 1.279 . S
C205 O206 1.315 . S
C205 O207 1.279 . S
O206 Cd198 2.223 . S
O206 C205 1.315 . S
O207 Cd197 2.240 . S
O207 C205 1.279 . S
O208 Cd198 2.297 . S
O208 C203 1.247 . S
O209 Cd198 2.439 . S
O209 C203 1.208 . S
O210 Cd211 2.223 . S
O210 C218 1.315 . S
Cd211 O210 2.223 . S
Cd211 O214 2.297 . S
Cd211 O215 2.439 . S
Cd211 O221 2.240 . S
Cd212 O213 2.240 . S
Cd212 O220 2.223 . S
Cd212 O222 2.297 . S
Cd212 O223 2.439 . S
O213 Cd212 2.240 . S
O213 C218 1.279 . S
O214 Cd211 2.297 . S
O214 C216 1.247 . S
O215 Cd211 2.439 . S
O215 C216 1.208 . S
C216 O214 1.247 . S
C216 O215 1.208 . S
C217 O222 1.247 . S
C217 O223 1.208 . S
C218 O210 1.315 . S
C218 O213 1.279 . S
C219 O220 1.315 . S
C219 O221 1.279 . S
O220 Cd212 2.223 . S
O220 C219 1.315 . S
O221 Cd211 2.240 . S
O221 C219 1.279 . S
O222 Cd212 2.297 . S
O222 C217 1.247 . S
O223 Cd212 2.439 . S
O223 C217 1.208 . S
O224 Cd225 2.223 . S
O224 C232 1.315 . S
Cd225 O224 2.223 . S
Cd225 O228 2.297 . S
Cd225 O229 2.439 . S
Cd225 O235 2.240 . S
Cd226 O227 2.240 . S
Cd226 O234 2.223 . S
Cd226 O236 2.297 . S
Cd226 O237 2.439 . S
O227 Cd226 2.240 . S
O227 C232 1.279 . S
O228 Cd225 2.297 . S
O228 C230 1.247 . S
O229 Cd225 2.439 . S
O229 C230 1.208 . S
C230 O228 1.247 . S
C230 O229 1.208 . S
C231 O236 1.247 . S
C231 O237 1.208 . S
C232 O224 1.315 . S
C232 O227 1.279 . S
C233 O234 1.315 . S
C233 O235 1.279 . S
O234 Cd226 2.223 . S
O234 C233 1.315 . S
O235 Cd225 2.240 . S
O235 C233 1.279 . S
O236 Cd226 2.297 . S
O236 C231 1.247 . S
O237 Cd226 2.439 . S
O237 C231 1.208 . S
O238 Cd239 2.223 . S
O238 C246 1.315 . S
Cd239 O238 2.223 . S
Cd239 O242 2.297 . S
Cd239 O243 2.439 . S
Cd239 O249 2.240 . S
Cd240 O241 2.240 . S
Cd240 O248 2.223 . S
Cd240 O250 2.297 . S
Cd240 O251 2.439 . S
O241 Cd240 2.240 . S
O241 C246 1.279 . S
O242 Cd239 2.297 . S
O242 C244 1.247 . S
O243 Cd239 2.439 . S
O243 C244 1.208 . S
C244 O242 1.247 . S
C244 O243 1.208 . S
C245 O250 1.247 . S
C245 O251 1.208 . S
C246 O238 1.315 . S
C246 O241 1.279 . S
C247 O248 1.315 . S
C247 O249 1.279 . S
O248 Cd240 2.223 . S
O248 C247 1.315 . S
O249 Cd239 2.240 . S
O249 C247 1.279 . S
O250 Cd240 2.297 . S
O250 C245 1.247 . S
O251 Cd240 2.439 . S
O251 C245 1.208 . S
O252 Cd253 2.223 . S
O252 C260 1.315 . S
Cd253 O252 2.223 . S
Cd253 O256 2.297 . S
Cd253 O257 2.439 . S
Cd253 O263 2.240 . S
Cd254 O255 2.240 . S
Cd254 O262 2.223 . S
Cd254 O264 2.297 . S
Cd254 O265 2.439 . S
O255 Cd254 2.240 . S
O255 C260 1.279 . S
O256 Cd253 2.297 . S
O256 C258 1.247 . S
O257 Cd253 2.439 . S
O257 C258 1.208 . S
C258 O256 1.247 . S
C258 O257 1.208 . S
C259 O264 1.247 . S
C259 O265 1.208 . S
C260 O252 1.315 . S
C260 O255 1.279 . S
C261 O262 1.315 . S
C261 O263 1.279 . S
O262 Cd254 2.223 . S
O262 C261 1.315 . S
O263 Cd253 2.240 . S
O263 C261 1.279 . S
O264 Cd254 2.297 . S
O264 C259 1.247 . S
O265 Cd254 2.439 . S
O265 C259 1.208 . S
O266 Cd267 2.223 . S
O266 C274 1.315 . S
Cd267 O266 2.223 . S
Cd267 O270 2.297 . S
Cd267 O271 2.439 . S
Cd267 O277 2.240 . S
Cd268 O269 2.240 . S
Cd268 O276 2.223 . S
Cd268 O278 2.297 . S
Cd268 O279 2.439 . S
O269 Cd268 2.240 . S
O269 C274 1.279 . S
O270 Cd267 2.297 . S
O270 C272 1.247 . S
O271 Cd267 2.439 . S
O271 C272 1.208 . S
C272 O270 1.247 . S
C272 O271 1.208 . S
C273 O278 1.247 . S
C273 O279 1.208 . S
C274 O266 1.315 . S
C274 O269 1.279 . S
C275 O276 1.315 . S
C275 O277 1.279 . S
O276 Cd268 2.223 . S
O276 C275 1.315 . S
O277 Cd267 2.240 . S
O277 C275 1.279 . S
O278 Cd268 2.297 . S
O278 C273 1.247 . S
O279 Cd268 2.439 . S
O279 C273 1.208 . S
O280 Cd281 2.223 . S
O280 C288 1.315 . S
Cd281 O280 2.223 . S
Cd281 O284 2.297 . S
Cd281 O285 2.439 . S
Cd281 O291 2.240 . S
Cd282 O283 2.240 . S
Cd282 O290 2.223 . S
Cd282 O292 2.297 . S
Cd282 O293 2.439 . S
O283 Cd282 2.240 . S
O283 C288 1.279 . S
O284 Cd281 2.297 . S
O284 C286 1.247 . S
O285 Cd281 2.439 . S
O285 C286 1.208 . S
C286 O284 1.247 . S
C286 O285 1.208 . S
C287 O292 1.247 . S
C287 O293 1.208 . S
C288 O280 1.315 . S
C288 O283 1.279 . S
C289 O290 1.315 . S
C289 O291 1.279 . S
O290 Cd282 2.223 . S
O290 C289 1.315 . S
O291 Cd281 2.240 . S
O291 C289 1.279 . S
O292 Cd282 2.297 . S
O292 C287 1.247 . S
O293 Cd282 2.439 . S
O293 C287 1.208 . S
O294 Cd295 2.223 . S
O294 C302 1.315 . S
Cd295 O294 2.223 . S
Cd295 O298 2.297 . S
Cd295 O299 2.439 . S
Cd295 O305 2.240 . S
Cd296 O297 2.240 . S
Cd296 O304 2.223 . S
Cd296 O306 2.297 . S
Cd296 O307 2.439 . S
O297 Cd296 2.240 . S
O297 C302 1.279 . S
O298 Cd295 2.297 . S
O298 C300 1.247 . S
O299 Cd295 2.439 . S
O299 C300 1.208 . S
C300 O298 1.247 . S
C300 O299 1.208 . S
C301 O306 1.247 . S
C301 O307 1.208 . S
C302 O294 1.315 . S
C302 O297 1.279 . S
C303 O304 1.315 . S
C303 O305 1.279 . S
O304 Cd296 2.223 . S
O304 C303 1.315 . S
O305 Cd295 2.240 . S
O305 C303 1.279 . S
O306 Cd296 2.297 . S
O306 C301 1.247 . S
O307 Cd296 2.439 . S
O307 C301 1.208 . S
O308 Cd309 2.223 . S
O308 C316 1.315 . S
Cd309 O308 2.223 . S
Cd309 O312 2.297 . S
Cd309 O313 2.439 . S
Cd309 O319 2.240 . S
Cd310 O311 2.240 . S
Cd310 O318 2.223 . S
Cd310 O320 2.297 . S
Cd310 O321 2.439 . S
O311 Cd310 2.240 . S
O311 C316 1.279 . S
O312 Cd309 2.297 . S
O312 C314 1.247 . S
O313 Cd309 2.439 . S
O313 C314 1.208 . S
C314 O312 1.247 . S
C314 O313 1.208 . S
C315 O320 1.247 . S
C315 O321 1.208 . S
C316 O308 1.315 . S
C316 O311 1.279 . S
C317 O318 1.315 . S
C317 O319 1.279 . S
O318 Cd310 2.223 . S
O318 C317 1.315 . S
O319 Cd309 2.240 . S
O319 C317 1.279 . S
O320 Cd310 2.297 . S
O320 C315 1.247 . S
O321 Cd310 2.439 . S
O321 C315 1.208 . S
O322 Cd323 2.223 . S
O322 C330 1.315 . S
Cd323 O322 2.223 . S
Cd323 O326 2.297 . S
Cd323 O327 2.439 . S
Cd323 O333 2.240 . S
Cd324 O325 2.240 . S
Cd324 O332 2.223 . S
Cd324 O334 2.297 . S
Cd324 O335 2.439 . S
O325 Cd324 2.240 . S
O325 C330 1.279 . S
O326 Cd323 2.297 . S
O326 C328 1.247 . S
O327 Cd323 2.439 . S
O327 C328 1.208 . S
C328 O326 1.247 . S
C328 O327 1.208 . S
C329 O334 1.247 . S
C329 O335 1.208 . S
C330 O322 1.315 . S
C330 O325 1.279 . S
C331 O332 1.315 . S
C331 O333 1.279 . S
O332 Cd324 2.223 . S
O332 C331 1.315 . S
O333 Cd323 2.240 . S
O333 C331 1.279 . S
O334 Cd324 2.297 . S
O334 C329 1.247 . S
O335 Cd324 2.439 . S
O335 C329 1.208 . S
O336 Cd337 2.223 . S
O336 C344 1.315 . S
Cd337 O336 2.223 . S
Cd337 O340 2.297 . S
Cd337 O341 2.439 . S
Cd337 O347 2.240 . S
Cd338 O339 2.240 . S
Cd338 O346 2.223 . S
Cd338 O348 2.297 . S
Cd338 O349 2.439 . S
O339 Cd338 2.240 . S
O339 C344 1.279 . S
O340 Cd337 2.297 . S
O340 C342 1.247 . S
O341 Cd337 2.439 . S
O341 C342 1.208 . S
C342 O340 1.247 . S
C342 O341 1.208 . S
C343 O348 1.247 . S
C343 O349 1.208 . S
C344 O336 1.315 . S
C344 O339 1.279 . S
C345 O346 1.315 . S
C345 O347 1.279 . S
O346 Cd338 2.223 . S
O346 C345 1.315 . S
O347 Cd337 2.240 . S
O347 C345 1.279 . S
O348 Cd338 2.297 . S
O348 C343 1.247 . S
O349 Cd338 2.439 . S
O349 C343 1.208 . S
O350 Cd351 2.223 . S
O350 C358 1.315 . S
Cd351 O350 2.223 . S
Cd351 O354 2.297 . S
Cd351 O355 2.439 . S
Cd351 O361 2.240 . S
Cd352 O353 2.240 . S
Cd352 O360 2.223 . S
Cd352 O362 2.297 . S
Cd352 O363 2.439 . S
O353 Cd352 2.240 . S
O353 C358 1.279 . S
O354 Cd351 2.297 . S
O354 C356 1.247 . S
O355 Cd351 2.439 . S
O355 C356 1.208 . S
C356 O354 1.247 . S
C356 O355 1.208 . S
C357 O362 1.247 . S
C357 O363 1.208 . S
C358 O350 1.315 . S
C358 O353 1.279 . S
C359 O360 1.315 . S
C359 O361 1.279 . S
O360 Cd352 2.223 . S
O360 C359 1.315 . S
O361 Cd351 2.240 . S
O361 C359 1.279 . S
O362 Cd352 2.297 . S
O362 C357 1.247 . S
O363 Cd352 2.439 . S
O363 C357 1.208 . S
O364 Cd365 2.223 . S
O364 C372 1.315 . S
Cd365 O364 2.223 . S
Cd365 O368 2.297 . S
Cd365 O369 2.439 . S
Cd365 O375 2.240 . S
Cd366 O367 2.240 . S
Cd366 O374 2.223 . S
Cd366 O376 2.297 . S
Cd366 O377 2.439 . S
O367 Cd366 2.240 . S
O367 C372 1.279 . S
O368 Cd365 2.297 . S
O368 C370 1.247 . S
O369 Cd365 2.439 . S
O369 C370 1.208 . S
C370 O368 1.247 . S
C370 O369 1.208 . S
C371 O376 1.247 . S
C371 O377 1.208 . S
C372 O364 1.315 . S
C372 O367 1.279 . S
C373 O374 1.315 . S
C373 O375 1.279 . S
O374 Cd366 2.223 . S
O374 C373 1.315 . S
O375 Cd365 2.240 . S
O375 C373 1.279 . S
O376 Cd366 2.297 . S
O376 C371 1.247 . S
O377 Cd366 2.439 . S
O377 C371 1.208 . S
O378 Cd379 2.223 . S
O378 C386 1.315 . S
Cd379 O378 2.223 . S
Cd379 O382 2.297 . S
Cd379 O383 2.439 . S
Cd379 O389 2.240 . S
Cd380 O381 2.240 . S
Cd380 O388 2.223 . S
Cd380 O390 2.297 . S
Cd380 O391 2.439 . S
O381 Cd380 2.240 . S
O381 C386 1.279 . S
O382 Cd379 2.297 . S
O382 C384 1.247 . S
O383 Cd379 2.439 . S
O383 C384 1.208 . S
C384 O382 1.247 . S
C384 O383 1.208 . S
C385 O390 1.247 . S
C385 O391 1.208 . S
C386 O378 1.315 . S
C386 O381 1.279 . S
C387 O388 1.315 . S
C387 O389 1.279 . S
O388 Cd380 2.223 . S
O388 C387 1.315 . S
O389 Cd379 2.240 . S
O389 C387 1.279 . S
O390 Cd380 2.297 . S
O390 C385 1.247 . S
O391 Cd380 2.439 . S
O391 C385 1.208 . S
O392 Cd393 2.223 . S
O392 C400 1.315 . S
Cd393 O392 2.223 . S
Cd393 O396 2.297 . S
Cd393 O397 2.439 . S
Cd393 O403 2.240 . S
Cd394 O395 2.240 . S
Cd394 O402 2.223 . S
Cd394 O404 2.297 . S
Cd394 O405 2.439 . S
O395 Cd394 2.240 . S
O395 C400 1.279 . S
O396 Cd393 2.297 . S
O396 C398 1.247 . S
O397 Cd393 2.439 . S
O397 C398 1.208 . S
C398 O396 1.247 . S
C398 O397 1.208 . S
C399 O404 1.247 . S
C399 O405 1.208 . S
C400 O392 1.315 . S
C400 O395 1.279 . S
C401 O402 1.315 . S
C401 O403 1.279 . S
O402 Cd394 2.223 . S
O402 C401 1.315 . S
O403 Cd393 2.240 . S
O403 C401 1.279 . S
O404 Cd394 2.297 . S
O404 C399 1.247 . S
O405 Cd394 2.439 . S
O405 C399 1.208 . S
O406 Cd407 2.223 . S
O406 C414 1.315 . S
Cd407 O406 2.223 . S
Cd407 O410 2.297 . S
Cd407 O411 2.439 . S
Cd407 O417 2.240 . S
Cd408 O409 2.240 . S
Cd408 O416 2.223 . S
Cd408 O418 2.297 . S
Cd408 O419 2.439 . S
O409 Cd408 2.240 . S
O409 C414 1.279 . S
O410 Cd407 2.297 . S
O410 C412 1.247 . S
O411 Cd407 2.439 . S
O411 C412 1.208 . S
C412 O410 1.247 . S
C412 O411 1.208 . S
C413 O418 1.247 . S
C413 O419 1.208 . S
C414 O406 1.315 . S
C414 O409 1.279 . S
C415 O416 1.315 . S
C415 O417 1.279 . S
O416 Cd408 2.223 . S
O416 C415 1.315 . S
O417 Cd407 2.240 . S
O417 C415 1.279 . S
O418 Cd408 2.297 . S
O418 C413 1.247 . S
O419 Cd408 2.439 . S
O419 C413 1.208 . S
O420 Cd421 2.223 . S
O420 C428 1.315 . S
Cd421 O420 2.223 . S
Cd421 O424 2.297 . S
Cd421 O425 2.439 . S
Cd421 O431 2.240 . S
Cd422 O423 2.240 . S
Cd422 O430 2.223 . S
Cd422 O432 2.297 . S
Cd422 O433 2.439 . S
O423 Cd422 2.240 . S
O423 C428 1.279 . S
O424 Cd421 2.297 . S
O424 C426 1.247 . S
O425 Cd421 2.439 . S
O425 C426 1.208 . S
C426 O424 1.247 . S
C426 O425 1.208 . S
C427 O432 1.247 . S
C427 O433 1.208 . S
C428 O420 1.315 . S
C428 O423 1.279 . S
C429 O430 1.315 . S
C429 O431 1.279 . S
O430 Cd422 2.223 . S
O430 C429 1.315 . S
O431 Cd421 2.240 . S
O431 C429 1.279 . S
O432 Cd422 2.297 . S
O432 C427 1.247 . S
O433 Cd422 2.439 . S
O433 C427 1.208 . S
O434 Cd435 2.223 . S
O434 C442 1.315 . S
Cd435 O434 2.223 . S
Cd435 O438 2.297 . S
Cd435 O439 2.439 . S
Cd435 O445 2.240 . S
Cd436 O437 2.240 . S
Cd436 O444 2.223 . S
Cd436 O446 2.297 . S
Cd436 O447 2.439 . S
O437 Cd436 2.240 . S
O437 C442 1.279 . S
O438 Cd435 2.297 . S
O438 C440 1.247 . S
O439 Cd435 2.439 . S
O439 C440 1.208 . S
C440 O438 1.247 . S
C440 O439 1.208 . S
C441 O446 1.247 . S
C441 O447 1.208 . S
C442 O434 1.315 . S
C442 O437 1.279 . S
C443 O444 1.315 . S
C443 O445 1.279 . S
O444 Cd436 2.223 . S
O444 C443 1.315 . S
O445 Cd435 2.240 . S
O445 C443 1.279 . S
O446 Cd436 2.297 . S
O446 C441 1.247 . S
O447 Cd436 2.439 . S
O447 C441 1.208 . S
O448 Cd449 2.223 . S
O448 C456 1.315 . S
Cd449 O448 2.223 . S
Cd449 O452 2.297 . S
Cd449 O453 2.439 . S
Cd449 O459 2.240 . S
Cd450 O451 2.240 . S
Cd450 O458 2.223 . S
Cd450 O460 2.297 . S
Cd450 O461 2.439 . S
O451 Cd450 2.240 . S
O451 C456 1.279 . S
O452 Cd449 2.297 . S
O452 C454 1.247 . S
O453 Cd449 2.439 . S
O453 C454 1.208 . S
C454 O452 1.247 . S
C454 O453 1.208 . S
C455 O460 1.247 . S
C455 O461 1.208 . S
C456 O448 1.315 . S
C456 O451 1.279 . S
C457 O458 1.315 . S
C457 O459 1.279 . S
O458 Cd450 2.223 . S
O458 C457 1.315 . S
O459 Cd449 2.240 . S
O459 C457 1.279 . S
O460 Cd450 2.297 . S
O460 C455 1.247 . S
O461 Cd450 2.439 . S
O461 C455 1.208 . S
O462 Cd463 2.223 . S
O462 C470 1.315 . S
Cd463 O462 2.223 . S
Cd463 O466 2.297 . S
Cd463 O467 2.439 . S
Cd463 O473 2.240 . S
Cd464 O465 2.240 . S
Cd464 O472 2.223 . S
Cd464 O474 2.297 . S
Cd464 O475 2.439 . S
O465 Cd464 2.240 . S
O465 C470 1.279 . S
O466 Cd463 2.297 . S
O466 C468 1.247 . S
O467 Cd463 2.439 . S
O467 C468 1.208 . S
C468 O466 1.247 . S
C468 O467 1.208 . S
C469 O474 1.247 . S
C469 O475 1.208 . S
C470 O462 1.315 . S
C470 O465 1.279 . S
C471 O472 1.315 . S
C471 O473 1.279 . S
O472 Cd464 2.223 . S
O472 C471 1.315 . S
O473 Cd463 2.240 . S
O473 C471 1.279 . S
O474 Cd464 2.297 . S
O474 C469 1.247 . S
O475 Cd464 2.439 . S
O475 C469 1.208 . S
O476 Cd477 2.223 . S
O476 C484 1.315 . S
Cd477 O476 2.223 . S
Cd477 O480 2.297 . S
Cd477 O481 2.439 . S
Cd477 O487 2.240 . S
Cd478 O479 2.240 . S
Cd478 O486 2.223 . S
Cd478 O488 2.297 . S
Cd478 O489 2.439 . S
O479 Cd478 2.240 . S
O479 C484 1.279 . S
O480 Cd477 2.297 . S
O480 C482 1.247 . S
O481 Cd477 2.439 . S
O481 C482 1.208 . S
C482 O480 1.247 . S
C482 O481 1.208 . S
C483 O488 1.247 . S
C483 O489 1.208 . S
C484 O476 1.315 . S
C484 O479 1.279 . S
C485 O486 1.315 . S
C485 O487 1.279 . S
O486 Cd478 2.223 . S
O486 C485 1.315 . S
O487 Cd477 2.240 . S
O487 C485 1.279 . S
O488 Cd478 2.297 . S
O488 C483 1.247 . S
O489 Cd478 2.439 . S
O489 C483 1.208 . S
O490 Cd491 2.223 . S
O490 C498 1.315 . S
Cd491 O490 2.223 . S
Cd491 O494 2.297 . S
Cd491 O495 2.439 . S
Cd491 O501 2.240 . S
Cd492 O493 2.240 . S
Cd492 O500 2.223 . S
Cd492 O502 2.297 . S
Cd492 O503 2.439 . S
O493 Cd492 2.240 . S
O493 C498 1.279 . S
O494 Cd491 2.297 . S
O494 C496 1.247 . S
O495 Cd491 2.439 . S
O495 C496 1.208 . S
C496 O494 1.247 . S
C496 O495 1.208 . S
C497 O502 1.247 . S
C497 O503 1.208 . S
C498 O490 1.315 . S
C498 O493 1.279 . S
C499 O500 1.315 . S
C499 O501 1.279 . S
O500 Cd492 2.223 . S
O500 C499 1.315 . S
O501 Cd491 2.240 . S
O501 C499 1.279 . S
O502 Cd492 2.297 . S
O502 C497 1.247 . S
O503 Cd492 2.439 . S
O503 C497 1.208 . S
O504 Cd505 2.223 . S
O504 C512 1.315 . S
Cd505 O504 2.223 . S
Cd505 O508 2.297 . S
Cd505 O509 2.439 . S
Cd505 O515 2.240 . S
Cd506 O507 2.240 . S
Cd506 O514 2.223 . S
Cd506 O516 2.297 . S
Cd506 O517 2.439 . S
O507 Cd506 2.240 . S
O507 C512 1.279 . S
O508 Cd505 2.297 . S
O508 C510 1.247 . S
O509 Cd505 2.439 . S
O509 C510 1.208 . S
C510 O508 1.247 . S
C510 O509 1.208 . S
C511 O516 1.247 . S
C511 O517 1.208 . S
C512 O504 1.315 . S
C512 O507 1.279 . S
C513 O514 1.315 . S
C513 O515 1.279 . S
O514 Cd506 2.223 . S
O514 C513 1.315 . S
O515 Cd505 2.240 . S
O515 C513 1.279 . S
O516 Cd506 2.297 . S
O516 C511 1.247 . S
O517 Cd506 2.439 . S
O517 C511 1.208 . S
O518 Cd519 2.223 . S
O518 C526 1.315 . S
Cd519 O518 2.223 . S
Cd519 O522 2.297 . S
Cd519 O523 2.439 . S
Cd519 O529 2.240 . S
Cd520 O521 2.240 . S
Cd520 O528 2.223 . S
Cd520 O530 2.297 . S
Cd520 O531 2.439 . S
O521 Cd520 2.240 . S
O521 C526 1.279 . S
O522 Cd519 2.297 . S
O522 C524 1.247 . S
O523 Cd519 2.439 . S
O523 C524 1.208 . S
C524 O522 1.247 . S
C524 O523 1.208 . S
C525 O530 1.247 . S
C525 O531 1.208 . S
C526 O518 1.315 . S
C526 O521 1.279 . S
C527 O528 1.315 . S
C527 O529 1.279 . S
O528 Cd520 2.223 . S
O528 C527 1.315 . S
O529 Cd519 2.240 . S
O529 C527 1.279 . S
O530 Cd520 2.297 . S
O530 C525 1.247 . S
O531 Cd520 2.439 . S
O531 C525 1.208 . S
O532 Cd533 2.223 . S
O532 C540 1.315 . S
Cd533 O532 2.223 . S
Cd533 O536 2.297 . S
Cd533 O537 2.439 . S
Cd533 O543 2.240 . S
Cd534 O535 2.240 . S
Cd534 O542 2.223 . S
Cd534 O544 2.297 . S
Cd534 O545 2.439 . S
O535 Cd534 2.240 . S
O535 C540 1.279 . S
O536 Cd533 2.297 . S
O536 C538 1.247 . S
O537 Cd533 2.439 . S
O537 C538 1.208 . S
C538 O536 1.247 . S
C538 O537 1.208 . S
C539 O544 1.247 . S
C539 O545 1.208 . S
C540 O532 1.315 . S
C540 O535 1.279 . S
C541 O542 1.315 . S
C541 O543 1.279 . S
O542 Cd534 2.223 . S
O542 C541 1.315 . S
O543 Cd533 2.240 . S
O543 C541 1.279 . S
O544 Cd534 2.297 . S
O544 C539 1.247 . S
O545 Cd534 2.439 . S
O545 C539 1.208 . S
O546 Cd547 2.223 . S
O546 C554 1.315 . S
Cd547 O546 2.223 . S
Cd547 O550 2.297 . S
Cd547 O551 2.439 . S
Cd547 O557 2.240 . S
Cd548 O549 2.240 . S
Cd548 O556 2.223 . S
Cd548 O558 2.297 . S
Cd548 O559 2.439 . S
O549 Cd548 2.240 . S
O549 C554 1.279 . S
O550 Cd547 2.297 . S
O550 C552 1.247 . S
O551 Cd547 2.439 . S
O551 C552 1.208 . S
C552 O550 1.247 . S
C552 O551 1.208 . S
C553 O558 1.247 . S
C553 O559 1.208 . S
C554 O546 1.315 . S
C554 O549 1.279 . S
C555 O556 1.315 . S
C555 O557 1.279 . S
O556 Cd548 2.223 . S
O556 C555 1.315 . S
O557 Cd547 2.240 . S
O557 C555 1.279 . S
O558 Cd548 2.297 . S
O558 C553 1.247 . S
O559 Cd548 2.439 . S
O559 C553 1.208 . S
O560 Cd561 2.223 . S
O560 C568 1.315 . S
Cd561 O560 2.223 . S
Cd561 O564 2.297 . S
Cd561 O565 2.439 . S
Cd561 O571 2.240 . S
Cd562 O563 2.240 . S
Cd562 O570 2.223 . S
Cd562 O572 2.297 . S
Cd562 O573 2.439 . S
O563 Cd562 2.240 . S
O563 C568 1.279 . S
O564 Cd561 2.297 . S
O564 C566 1.247 . S
O565 Cd561 2.439 . S
O565 C566 1.208 . S
C566 O564 1.247 . S
C566 O565 1.208 . S
C567 O572 1.247 . S
C567 O573 1.208 . S
C568 O560 1.315 . S
C568 O563 1.279 . S
C569 O570 1.315 . S
C569 O571 1.279 . S
O570 Cd562 2.223 . S
O570 C569 1.315 . S
O571 Cd561 2.240 . S
O571 C569 1.279 . S
O572 Cd562 2.297 . S
O572 C567 1.247 . S
O573 Cd562 2.439 . S
O573 C567 1.208 . S
O574 Cd575 2.223 . S
O574 C582 1.315 . S
Cd575 O574 2.223 . S
Cd575 O578 2.297 . S
Cd575 O579 2.439 . S
Cd575 O585 2.240 . S
Cd576 O577 2.240 . S
Cd576 O584 2.223 . S
Cd576 O586 2.297 . S
Cd576 O587 2.439 . S
O577 Cd576 2.240 . S
O577 C582 1.279 . S
O578 Cd575 2.297 . S
O578 C580 1.247 . S
O579 Cd575 2.439 . S
O579 C580 1.208 . S
C580 O578 1.247 . S
C580 O579 1.208 . S
C581 O586 1.247 . S
C581 O587 1.208 . S
C582 O574 1.315 . S
C582 O577 1.279 . S
C583 O584 1.315 . S
C583 O585 1.279 . S
O584 Cd576 2.223 . S
O584 C583 1.315 . S
O585 Cd575 2.240 . S
O585 C583 1.279 . S
O586 Cd576 2.297 . S
O586 C581 1.247 . S
O587 Cd576 2.439 . S
O587 C581 1.208 . S
O588 Cd589 2.223 . S
O588 C596 1.315 . S
Cd589 O588 2.223 . S
Cd589 O592 2.297 . S
Cd589 O593 2.439 . S
Cd589 O599 2.240 . S
Cd590 O591 2.240 . S
Cd590 O598 2.223 . S
Cd590 O600 2.297 . S
Cd590 O601 2.439 . S
O591 Cd590 2.240 . S
O591 C596 1.279 . S
O592 Cd589 2.297 . S
O592 C594 1.247 . S
O593 Cd589 2.439 . S
O593 C594 1.208 . S
C594 O592 1.247 . S
C594 O593 1.208 . S
C595 O600 1.247 . S
C595 O601 1.208 . S
C596 O588 1.315 . S
C596 O591 1.279 . S
C597 O598 1.315 . S
C597 O599 1.279 . S
O598 Cd590 2.223 . S
O598 C597 1.315 . S
O599 Cd589 2.240 . S
O599 C597 1.279 . S
O600 Cd590 2.297 . S
O600 C595 1.247 . S
O601 Cd590 2.439 . S
O601 C595 1.208 . S
O602 Cd603 2.223 . S
O602 C610 1.315 . S
Cd603 O602 2.223 . S
Cd603 O606 2.297 . S
Cd603 O607 2.439 . S
Cd603 O613 2.240 . S
Cd604 O605 2.240 . S
Cd604 O612 2.223 . S
Cd604 O614 2.297 . S
Cd604 O615 2.439 . S
O605 Cd604 2.240 . S
O605 C610 1.279 . S
O606 Cd603 2.297 . S
O606 C608 1.247 . S
O607 Cd603 2.439 . S
O607 C608 1.208 . S
C608 O606 1.247 . S
C608 O607 1.208 . S
C609 O614 1.247 . S
C609 O615 1.208 . S
C610 O602 1.315 . S
C610 O605 1.279 . S
C611 O612 1.315 . S
C611 O613 1.279 . S
O612 Cd604 2.223 . S
O612 C611 1.315 . S
O613 Cd603 2.240 . S
O613 C611 1.279 . S
O614 Cd604 2.297 . S
O614 C609 1.247 . S
O615 Cd604 2.439 . S
O615 C609 1.208 . S
O616 Cd617 2.223 . S
O616 C624 1.315 . S
Cd617 O616 2.223 . S
Cd617 O620 2.297 . S
Cd617 O621 2.439 . S
Cd617 O627 2.240 . S
Cd618 O619 2.240 . S
Cd618 O626 2.223 . S
Cd618 O628 2.297 . S
Cd618 O629 2.439 . S
O619 Cd618 2.240 . S
O619 C624 1.279 . S
O620 Cd617 2.297 . S
O620 C622 1.247 . S
O621 Cd617 2.439 . S
O621 C622 1.208 . S
C622 O620 1.247 . S
C622 O621 1.208 . S
C623 O628 1.247 . S
C623 O629 1.208 . S
C624 O616 1.315 . S
C624 O619 1.279 . S
C625 O626 1.315 . S
C625 O627 1.279 . S
O626 Cd618 2.223 . S
O626 C625 1.315 . S
O627 Cd617 2.240 . S
O627 C625 1.279 . S
O628 Cd618 2.297 . S
O628 C623 1.247 . S
O629 Cd618 2.439 . S
O629 C623 1.208 . S
O630 Cd631 2.223 . S
O630 C638 1.315 . S
Cd631 O630 2.223 . S
Cd631 O634 2.297 . S
Cd631 O635 2.439 . S
Cd631 O641 2.240 . S
Cd632 O633 2.240 . S
Cd632 O640 2.223 . S
Cd632 O642 2.297 . S
Cd632 O643 2.439 . S
O633 Cd632 2.240 . S
O633 C638 1.279 . S
O634 Cd631 2.297 . S
O634 C636 1.247 . S
O635 Cd631 2.439 . S
O635 C636 1.208 . S
C636 O634 1.247 . S
C636 O635 1.208 . S
C637 O642 1.247 . S
C637 O643 1.208 . S
C638 O630 1.315 . S
C638 O633 1.279 . S
C639 O640 1.315 . S
C639 O641 1.279 . S
O640 Cd632 2.223 . S
O640 C639 1.315 . S
O641 Cd631 2.240 . S
O641 C639 1.279 . S
O642 Cd632 2.297 . S
O642 C637 1.247 . S
O643 Cd632 2.439 . S
O643 C637 1.208 . S
O644 Cd645 2.223 . S
O644 C652 1.315 . S
Cd645 O644 2.223 . S
Cd645 O648 2.297 . S
Cd645 O649 2.439 . S
Cd645 O655 2.240 . S
Cd646 O647 2.240 . S
Cd646 O654 2.223 . S
Cd646 O656 2.297 . S
Cd646 O657 2.439 . S
O647 Cd646 2.240 . S
O647 C652 1.279 . S
O648 Cd645 2.297 . S
O648 C650 1.247 . S
O649 Cd645 2.439 . S
O649 C650 1.208 . S
C650 O648 1.247 . S
C650 O649 1.208 . S
C651 O656 1.247 . S
C651 O657 1.208 . S
C652 O644 1.315 . S
C652 O647 1.279 . S
C653 O654 1.315 . S
C653 O655 1.279 . S
O654 Cd646 2.223 . S
O654 C653 1.315 . S
O655 Cd645 2.240 . S
O655 C653 1.279 . S
O656 Cd646 2.297 . S
O656 C651 1.247 . S
O657 Cd646 2.439 . S
O657 C651 1.208 . S
O658 Cd659 2.223 . S
O658 C666 1.315 . S
Cd659 O658 2.223 . S
Cd659 O662 2.297 . S
Cd659 O663 2.439 . S
Cd659 O669 2.240 . S
Cd660 O661 2.240 . S
Cd660 O668 2.223 . S
Cd660 O670 2.297 . S
Cd660 O671 2.439 . S
O661 Cd660 2.240 . S
O661 C666 1.279 . S
O662 Cd659 2.297 . S
O662 C664 1.247 . S
O663 Cd659 2.439 . S
O663 C664 1.208 . S
C664 O662 1.247 . S
C664 O663 1.208 . S
C665 O670 1.247 . S
C665 O671 1.208 . S
C666 O658 1.315 . S
C666 O661 1.279 . S
C667 O668 1.315 . S
C667 O669 1.279 . S
O668 Cd660 2.223 . S
O668 C667 1.315 . S
O669 Cd659 2.240 . S
O669 C667 1.279 . S
O670 Cd660 2.297 . S
O670 C665 1.247 . S
O671 Cd660 2.439 . S
O671 C665 1.208 . S
C672 C673 1.369 . S
C672 C674 1.419 . S
C672 H676 0.930 . S
C673 C672 1.369 . S
C673 C682 1.429 . S
C674 C672 1.419 . S
C674 C675 1.363 . S
C674 H677 0.929 . S
C675 C674 1.363 . S
C675 C681 1.428 . S
H676 C672 0.930 . S
H677 C674 0.929 . S
S678 N679 1.613 . S
S678 N680 1.610 . S
N679 S678 1.613 . S
N679 C682 1.350 . S
N680 S678 1.610 . S
N680 C681 1.351 . S
C681 C675 1.428 . S
C681 N680 1.351 . S
C681 C682 1.434 . S
C682 C673 1.429 . S
C682 N679 1.350 . S
C682 C681 1.434 . S
C683 C684 1.369 . S
C683 C685 1.419 1_455 S
C683 H687 0.930 . S
C684 C683 1.369 . S
C684 C693 1.429 . S
C685 C683 1.419 1_655 S
C685 C686 1.363 . S
C685 H688 0.929 . S
C686 C685 1.363 . S
C686 C692 1.428 . S
H687 C683 0.930 . S
H688 C685 0.929 . S
S689 N690 1.640 . S
S689 N691 1.578 1_455 S
N690 S689 1.640 . S
N690 C693 1.350 . S
N691 S689 1.578 1_655 S
N691 C692 1.351 . S
C692 C686 1.428 . S
C692 N691 1.351 . S
C692 C693 1.434 1_655 S
C693 C684 1.429 . S
C693 N690 1.350 . S
C693 C692 1.434 1_455 S
C694 C695 1.369 . S
C694 C696 1.419 . S
C694 H698 0.930 . S
C695 C694 1.369 . S
C695 C704 1.429 . S
C696 C694 1.419 . S
C696 C697 1.363 . S
C696 H699 0.929 . S
C697 C696 1.363 . S
C697 C703 1.428 . S
H698 C694 0.930 . S
H699 C696 0.929 . S
S700 N701 1.613 . S
S700 N702 1.610 . S
N701 S700 1.613 . S
N701 C704 1.350 . S
N702 S700 1.610 . S
N702 C703 1.351 . S
C703 C697 1.428 . S
C703 N702 1.351 . S
C703 C704 1.434 . S
C704 C695 1.429 . S
C704 N701 1.350 . S
C704 C703 1.434 . S
C705 C706 1.369 . S
C705 C707 1.419 . S
C705 H709 0.930 . S
C706 C705 1.369 . S
C706 C715 1.429 . S
C707 C705 1.419 . S
C707 C708 1.363 . S
C707 H710 0.929 . S
C708 C707 1.363 . S
C708 C714 1.428 . S
H709 C705 0.930 . S
H710 C707 0.929 . S
S711 N712 1.613 . S
S711 N713 1.610 . S
N712 S711 1.613 . S
N712 C715 1.350 . S
N713 S711 1.610 . S
N713 C714 1.351 . S
C714 C708 1.428 . S
C714 N713 1.351 . S
C714 C715 1.434 . S
C715 C706 1.429 . S
C715 N712 1.350 . S
C715 C714 1.434 . S
C716 C717 1.369 . S
C716 C718 1.419 . S
C716 H720 0.930 . S
C717 C716 1.369 . S
C717 C726 1.429 . S
C718 C716 1.419 . S
C718 C719 1.363 . S
C718 H721 0.929 . S
C719 C718 1.363 . S
C719 C725 1.428 . S
H720 C716 0.930 . S
H721 C718 0.929 . S
S722 N723 1.613 . S
S722 N724 1.610 . S
N723 S722 1.613 . S
N723 C726 1.350 . S
N724 S722 1.610 . S
N724 C725 1.351 . S
C725 C719 1.428 . S
C725 N724 1.351 . S
C725 C726 1.434 . S
C726 C717 1.429 . S
C726 N723 1.350 . S
C726 C725 1.434 . S
C727 C728 1.369 . S
C727 C729 1.419 . S
C727 H731 0.930 . S
C728 C727 1.369 . S
C728 C737 1.429 . S
C729 C727 1.419 . S
C729 C730 1.363 . S
C729 H732 0.929 . S
C730 C729 1.363 . S
C730 C736 1.428 . S
H731 C727 0.930 . S
H732 C729 0.929 . S
S733 N734 1.613 . S
S733 N735 1.610 . S
N734 S733 1.613 . S
N734 C737 1.350 . S
N735 S733 1.610 . S
N735 C736 1.351 . S
C736 C730 1.428 . S
C736 N735 1.351 . S
C736 C737 1.434 . S
C737 C728 1.429 . S
C737 N734 1.350 . S
C737 C736 1.434 . S
C738 C739 1.369 . S
C738 C740 1.419 . S
C738 H742 0.930 . S
C739 C738 1.369 . S
C739 C748 1.429 . S
C740 C738 1.419 . S
C740 C741 1.363 . S
C740 H743 0.929 . S
C741 C740 1.363 . S
C741 C747 1.428 . S
H742 C738 0.930 . S
H743 C740 0.929 . S
S744 N745 1.613 . S
S744 N746 1.610 . S
N745 S744 1.613 . S
N745 C748 1.350 . S
N746 S744 1.610 . S
N746 C747 1.351 . S
C747 C741 1.428 . S
C747 N746 1.351 . S
C747 C748 1.434 . S
C748 C739 1.429 . S
C748 N745 1.350 . S
C748 C747 1.434 . S
C749 C750 1.369 1_655 S
C749 C751 1.419 . S
C749 H753 0.944 . S
C750 C749 1.369 1_455 S
C750 C759 1.429 1_455 S
C751 C749 1.419 . S
C751 C752 1.363 . S
C751 H754 0.929 . S
C752 C751 1.363 . S
C752 C758 1.428 . S
H753 C749 0.944 . S
H754 C751 0.929 . S
S755 N756 1.613 1_655 S
S755 N757 1.610 . S
N756 S755 1.613 1_455 S
N756 C759 1.350 1_455 S
N757 S755 1.610 . S
N757 C758 1.351 . S
C758 C752 1.428 . S
C758 N757 1.351 . S
C758 C759 1.434 . S
C759 C750 1.429 1_655 S
C759 N756 1.350 1_655 S
C759 C758 1.434 . S
C760 C761 1.369 . S
C760 C762 1.419 . S
C760 H764 0.930 . S
C761 C760 1.369 . S
C761 C770 1.429 . S
C762 C760 1.419 . S
C762 C763 1.363 . S
C762 H765 0.929 . S
C763 C762 1.363 . S
C763 C769 1.428 . S
H764 C760 0.930 . S
H765 C762 0.929 . S
S766 N767 1.613 . S
S766 N768 1.610 . S
N767 S766 1.613 . S
N767 C770 1.350 . S
N768 S766 1.610 . S
N768 C769 1.351 . S
C769 C763 1.428 . S
C769 N768 1.351 . S
C769 C770 1.434 . S
C770 C761 1.429 . S
C770 N767 1.350 . S
C770 C769 1.434 . S
C771 C772 1.369 . S
C771 C773 1.419 . S
C771 H775 0.930 . S
C772 C771 1.369 . S
C772 C781 1.429 . S
C773 C771 1.419 . S
C773 C774 1.363 . S
C773 H776 0.929 . S
C774 C773 1.363 . S
C774 C780 1.428 . S
H775 C771 0.930 . S
H776 C773 0.929 . S
S777 N778 1.613 . S
S777 N779 1.610 . S
N778 S777 1.613 . S
N778 C781 1.350 . S
N779 S777 1.610 . S
N779 C780 1.351 . S
C780 C774 1.428 . S
C780 N779 1.351 . S
C780 C781 1.434 . S
C781 C772 1.429 . S
C781 N778 1.350 . S
C781 C780 1.434 . S
C782 C783 1.369 . S
C782 C784 1.419 . S
C782 H786 0.930 . S
C783 C782 1.369 . S
C783 C792 1.429 . S
C784 C782 1.419 . S
C784 C785 1.363 . S
C784 H787 0.929 . S
C785 C784 1.363 . S
C785 C791 1.428 . S
H786 C782 0.930 . S
H787 C784 0.929 . S
S788 N789 1.613 . S
S788 N790 1.610 . S
N789 S788 1.613 . S
N789 C792 1.350 . S
N790 S788 1.610 . S
N790 C791 1.351 . S
C791 C785 1.428 . S
C791 N790 1.351 . S
C791 C792 1.434 . S
C792 C783 1.429 . S
C792 N789 1.350 . S
C792 C791 1.434 . S
C793 C794 1.369 . S
C793 C795 1.419 1_556 S
C793 H797 0.930 . S
C794 C793 1.369 . S
C794 C803 1.429 . S
C795 C793 1.419 1_554 S
C795 C796 1.363 . S
C795 H798 0.929 . S
C796 C795 1.363 . S
C796 C802 1.428 . S
H797 C793 0.930 . S
H798 C795 0.929 . S
S799 N800 1.613 1_554 S
S799 N801 1.610 . S
N800 S799 1.613 1_556 S
N800 C803 1.350 . S
N801 S799 1.610 . S
N801 C802 1.351 . S
C802 C796 1.428 . S
C802 N801 1.351 . S
C802 C803 1.434 1_554 S
C803 C794 1.429 . S
C803 N800 1.350 . S
C803 C802 1.434 1_556 S
C804 C805 1.369 . S
C804 C806 1.419 . S
C804 H808 0.930 . S
C805 C804 1.369 . S
C805 C814 1.429 . S
C806 C804 1.419 . S
C806 C807 1.363 . S
C806 H809 0.929 . S
C807 C806 1.363 . S
C807 C813 1.428 . S
H808 C804 0.930 . S
H809 C806 0.929 . S
S810 N811 1.613 . S
S810 N812 1.610 . S
N811 S810 1.613 . S
N811 C814 1.350 . S
N812 S810 1.610 . S
N812 C813 1.351 . S
C813 C807 1.428 . S
C813 N812 1.351 . S
C813 C814 1.434 . S
C814 C805 1.429 . S
C814 N811 1.350 . S
C814 C813 1.434 . S
C815 C816 1.369 . S
C815 C817 1.419 . S
C815 H819 0.930 . S
C816 C815 1.369 . S
C816 C825 1.429 . S
C817 C815 1.419 . S
C817 C818 1.363 . S
C817 H820 0.929 . S
C818 C817 1.363 . S
C818 C824 1.428 . S
H819 C815 0.930 . S
H820 C817 0.929 . S
S821 N822 1.613 . S
S821 N823 1.610 . S
N822 S821 1.613 . S
N822 C825 1.350 . S
N823 S821 1.610 . S
N823 C824 1.351 . S
C824 C818 1.428 . S
C824 N823 1.351 . S
C824 C825 1.434 . S
C825 C816 1.429 . S
C825 N822 1.350 . S
C825 C824 1.434 . S
C826 C827 1.369 . S
C826 C828 1.419 . S
C826 H830 0.930 . S
C827 C826 1.369 . S
C827 C836 1.429 . S
C828 C826 1.419 . S
C828 C829 1.363 . S
C828 H831 0.929 . S
C829 C828 1.363 . S
C829 C835 1.428 . S
H830 C826 0.930 . S
H831 C828 0.929 . S
S832 N833 1.613 . S
S832 N834 1.610 . S
N833 S832 1.613 . S
N833 C836 1.350 . S
N834 S832 1.610 . S
N834 C835 1.351 . S
C835 C829 1.428 . S
C835 N834 1.351 . S
C835 C836 1.434 . S
C836 C827 1.429 . S
C836 N833 1.350 . S
C836 C835 1.434 . S
C837 C838 1.369 . S
C837 C839 1.419 1_554 S
C837 H841 0.930 . S
C838 C837 1.369 . S
C838 C847 1.429 . S
C839 C837 1.419 1_556 S
C839 C840 1.363 . S
C839 H842 0.929 . S
C840 C839 1.363 . S
C840 C846 1.428 . S
H841 C837 0.930 . S
H842 C839 0.929 . S
S843 N844 1.613 . S
S843 N845 1.610 1_554 S
N844 S843 1.613 . S
N844 C847 1.350 . S
N845 S843 1.610 1_556 S
N845 C846 1.351 . S
C846 C840 1.428 . S
C846 N845 1.351 . S
C846 C847 1.434 1_556 S
C847 C838 1.429 . S
C847 N844 1.350 . S
C847 C846 1.434 1_554 S
C848 C849 1.369 . S
C848 C850 1.419 . S
C848 H852 0.930 . S
C849 C848 1.369 . S
C849 C858 1.429 . S
C850 C848 1.419 . S
C850 C851 1.363 . S
C850 H853 0.929 . S
C851 C850 1.363 . S
C851 C857 1.428 . S
H852 C848 0.930 . S
H853 C850 0.929 . S
S854 N855 1.613 . S
S854 N856 1.610 . S
N855 S854 1.613 . S
N855 C858 1.350 . S
N856 S854 1.610 . S
N856 C857 1.351 . S
C857 C851 1.428 . S
C857 N856 1.351 . S
C857 C858 1.434 . S
C858 C849 1.429 . S
C858 N855 1.350 . S
C858 C857 1.434 . S
C859 C860 1.369 . S
C859 C861 1.419 . S
C859 H863 0.930 . S
C860 C859 1.369 . S
C860 C869 1.429 . S
C861 C859 1.419 . S
C861 C862 1.363 . S
C861 H864 0.929 . S
C862 C861 1.363 . S
C862 C868 1.428 . S
H863 C859 0.930 . S
H864 C861 0.929 . S
S865 N866 1.613 . S
S865 N867 1.610 . S
N866 S865 1.613 . S
N866 C869 1.350 . S
N867 S865 1.610 . S
N867 C868 1.351 . S
C868 C862 1.428 . S
C868 N867 1.351 . S
C868 C869 1.434 . S
C869 C860 1.429 . S
C869 N866 1.350 . S
C869 C868 1.434 . S
C870 C871 1.369 . S
C870 C872 1.419 . S
C870 H874 0.930 . S
C871 C870 1.369 . S
C871 C880 1.429 . S
C872 C870 1.419 . S
C872 C873 1.363 . S
C872 H875 0.929 . S
C873 C872 1.363 . S
C873 C879 1.428 . S
H874 C870 0.930 . S
H875 C872 0.929 . S
S876 N877 1.613 . S
S876 N878 1.610 . S
N877 S876 1.613 . S
N877 C880 1.350 . S
N878 S876 1.610 . S
N878 C879 1.351 . S
C879 C873 1.428 . S
C879 N878 1.351 . S
C879 C880 1.434 . S
C880 C871 1.429 . S
C880 N877 1.350 . S
C880 C879 1.434 . S
C881 C882 1.369 . S
C881 C883 1.419 . S
C881 H885 0.930 . S
C882 C881 1.369 . S
C882 C891 1.429 . S
C883 C881 1.419 . S
C883 C884 1.363 . S
C883 H886 0.929 . S
C884 C883 1.363 . S
C884 C890 1.428 . S
H885 C881 0.930 . S
H886 C883 0.929 . S
S887 N888 1.613 . S
S887 N889 1.610 . S
N888 S887 1.613 . S
N888 C891 1.350 . S
N889 S887 1.610 . S
N889 C890 1.351 . S
C890 C884 1.428 . S
C890 N889 1.351 . S
C890 C891 1.434 . S
C891 C882 1.429 . S
C891 N888 1.350 . S
C891 C890 1.434 . S
C892 C893 1.369 . S
C892 C894 1.419 . S
C892 H896 0.930 . S
C893 C892 1.369 . S
C893 C902 1.429 . S
C894 C892 1.419 . S
C894 C895 1.363 . S
C894 H897 0.929 . S
C895 C894 1.363 . S
C895 C901 1.428 . S
H896 C892 0.930 . S
H897 C894 0.929 . S
S898 N899 1.613 . S
S898 N900 1.610 1_565 S
N899 S898 1.613 . S
N899 C902 1.350 . S
N900 S898 1.610 1_545 S
N900 C901 1.351 1_545 S
C901 C895 1.428 . S
C901 N900 1.351 1_565 S
C901 C902 1.434 . S
C902 C893 1.429 . S
C902 N899 1.350 . S
C902 C901 1.434 . S
C903 C904 1.369 . S
C903 C905 1.419 . S
C903 H907 0.930 . S
C904 C903 1.369 . S
C904 C913 1.429 . S
C905 C903 1.419 . S
C905 C906 1.363 . S
C905 H908 0.929 . S
C906 C905 1.363 . S
C906 C912 1.428 . S
H907 C903 0.930 . S
H908 C905 0.929 . S
S909 N910 1.613 . S
S909 N911 1.610 . S
N910 S909 1.613 . S
N910 C913 1.350 . S
N911 S909 1.610 . S
N911 C912 1.351 . S
C912 C906 1.428 . S
C912 N911 1.351 . S
C912 C913 1.434 . S
C913 C904 1.429 . S
C913 N910 1.350 . S
C913 C912 1.434 . S
C914 C915 1.369 . S
C914 C916 1.419 . S
C914 H918 0.930 . S
C915 C914 1.369 . S
C915 C924 1.429 . S
C916 C914 1.419 . S
C916 C917 1.363 . S
C916 H919 0.929 . S
C917 C916 1.363 . S
C917 C923 1.428 . S
H918 C914 0.930 . S
H919 C916 0.929 . S
S920 N921 1.613 . S
S920 N922 1.610 . S
N921 S920 1.613 . S
N921 C924 1.350 . S
N922 S920 1.610 . S
N922 C923 1.351 . S
C923 C917 1.428 . S
C923 N922 1.351 . S
C923 C924 1.434 . S
C924 C915 1.429 . S
C924 N921 1.350 . S
C924 C923 1.434 . S
C925 C926 1.369 . S
C925 C927 1.419 . S
C925 H929 0.930 . S
C926 C925 1.369 . S
C926 C935 1.429 . S
C927 C925 1.419 . S
C927 C928 1.363 . S
C927 H930 0.929 . S
C928 C927 1.363 . S
C928 C934 1.428 . S
H929 C925 0.930 . S
H930 C927 0.929 . S
S931 N932 1.613 . S
S931 N933 1.610 . S
N932 S931 1.613 . S
N932 C935 1.350 . S
N933 S931 1.610 . S
N933 C934 1.351 . S
C934 C928 1.428 . S
C934 N933 1.351 . S
C934 C935 1.434 . S
C935 C926 1.429 . S
C935 N932 1.350 . S
C935 C934 1.434 . S
C936 C937 1.369 . S
C936 C938 1.419 . S
C936 H940 0.930 . S
C937 C936 1.369 . S
C937 C946 1.429 . S
C938 C936 1.419 . S
C938 C939 1.363 . S
C938 H941 0.929 . S
C939 C938 1.363 . S
C939 C945 1.428 . S
H940 C936 0.930 . S
H941 C938 0.929 . S
S942 N943 1.613 . S
S942 N944 1.610 . S
N943 S942 1.613 . S
N943 C946 1.350 . S
N944 S942 1.610 . S
N944 C945 1.351 . S
C945 C939 1.428 . S
C945 N944 1.351 . S
C945 C946 1.434 . S
C946 C937 1.429 . S
C946 N943 1.350 . S
C946 C945 1.434 . S
C947 C948 1.369 . S
C947 C949 1.419 1_655 S
C947 H951 0.930 . S
C948 C947 1.369 . S
C948 C957 1.429 . S
C949 C947 1.419 1_455 S
C949 C950 1.363 . S
C949 H952 0.929 . S
C950 C949 1.363 . S
C950 C956 1.428 . S
H951 C947 0.930 . S
H952 C949 0.929 . S
S953 N954 1.613 . S
S953 N955 1.610 1_655 S
N954 S953 1.613 . S
N954 C957 1.350 . S
N955 S953 1.610 1_455 S
N955 C956 1.351 . S
C956 C950 1.428 . S
C956 N955 1.351 . S
C956 C957 1.434 1_455 S
C957 C948 1.429 . S
C957 N954 1.350 . S
C957 C956 1.434 1_655 S
C958 C959 1.369 . S
C958 C960 1.419 . S
C958 H962 0.930 . S
C959 C958 1.369 . S
C959 C968 1.429 . S
C960 C958 1.419 . S
C960 C961 1.363 . S
C960 H963 0.929 . S
C961 C960 1.363 . S
C961 C967 1.428 . S
H962 C958 0.930 . S
H963 C960 0.929 . S
S964 N965 1.613 . S
S964 N966 1.610 . S
N965 S964 1.613 . S
N965 C968 1.350 . S
N966 S964 1.610 . S
N966 C967 1.351 . S
C967 C961 1.428 . S
C967 N966 1.351 . S
C967 C968 1.434 . S
C968 C959 1.429 . S
C968 N965 1.350 . S
C968 C967 1.434 . S
C969 C970 1.369 . S
C969 C971 1.419 . S
C969 H973 0.930 . S
C970 C969 1.369 . S
C970 C979 1.429 . S
C971 C969 1.419 . S
C971 C972 1.363 . S
C971 H974 0.929 . S
C972 C971 1.363 . S
C972 C978 1.428 . S
H973 C969 0.930 . S
H974 C971 0.929 . S
S975 N976 1.613 . S
S975 N977 1.610 . S
N976 S975 1.613 . S
N976 C979 1.350 . S
N977 S975 1.610 . S
N977 C978 1.351 . S
C978 C972 1.428 . S
C978 N977 1.351 . S
C978 C979 1.434 . S
C979 C970 1.429 . S
C979 N976 1.350 . S
C979 C978 1.434 . S
C980 C981 1.369 . S
C980 C982 1.419 . S
C980 H984 0.930 . S
C981 C980 1.369 . S
C981 C990 1.429 . S
C982 C980 1.419 . S
C982 C983 1.363 . S
C982 H985 0.929 . S
C983 C982 1.363 . S
C983 C989 1.428 . S
H984 C980 0.930 . S
H985 C982 0.929 . S
S986 N987 1.613 . S
S986 N988 1.610 . S
N987 S986 1.613 . S
N987 C990 1.350 . S
N988 S986 1.610 . S
N988 C989 1.351 . S
C989 C983 1.428 . S
C989 N988 1.351 . S
C989 C990 1.434 . S
C990 C981 1.429 . S
C990 N987 1.350 . S
C990 C989 1.434 . S
C991 C992 1.369 . S
C991 C993 1.419 . S
C991 H995 0.930 . S
C992 C991 1.369 . S
C992 C1001 1.429 . S
C993 C991 1.419 . S
C993 C994 1.363 . S
C993 H996 0.929 . S
C994 C993 1.363 . S
C994 C1000 1.428 . S
H995 C991 0.930 . S
H996 C993 0.929 . S
S997 N998 1.613 . S
S997 N999 1.610 . S
N998 S997 1.613 . S
N998 C1001 1.350 . S
N999 S997 1.610 . S
N999 C1000 1.351 . S
C1000 C994 1.428 . S
C1000 N999 1.351 . S
C1000 C1001 1.434 . S
C1001 C992 1.429 . S
C1001 N998 1.350 . S
C1001 C1000 1.434 . S
C1002 C1003 1.369 . S
C1002 C1004 1.419 . S
C1002 H1006 0.930 . S
C1003 C1002 1.369 . S
C1003 C1012 1.429 . S
C1004 C1002 1.419 . S
C1004 C1005 1.363 . S
C1004 H1007 0.929 . S
C1005 C1004 1.363 . S
C1005 C1011 1.428 . S
H1006 C1002 0.930 . S
H1007 C1004 0.929 . S
S1008 N1009 1.613 . S
S1008 N1010 1.610 . S
N1009 S1008 1.613 . S
N1009 C1012 1.350 . S
N1010 S1008 1.610 . S
N1010 C1011 1.351 . S
C1011 C1005 1.428 . S
C1011 N1010 1.351 . S
C1011 C1012 1.434 . S
C1012 C1003 1.429 . S
C1012 N1009 1.350 . S
C1012 C1011 1.434 . S
C1013 C1014 1.369 . S
C1013 C1015 1.419 . S
C1013 H1017 0.930 . S
C1014 C1013 1.369 . S
C1014 C1023 1.429 . S
C1015 C1013 1.419 . S
C1015 C1016 1.363 1_455 S
C1015 H1018 0.929 1_455 S
C1016 C1015 1.363 1_655 S
C1016 C1022 1.428 1_655 S
H1017 C1013 0.930 . S
H1018 C1015 0.929 1_655 S
S1019 N1020 1.613 . S
S1019 N1021 1.610 . S
N1020 S1019 1.613 . S
N1020 C1023 1.350 . S
N1021 S1019 1.610 . S
N1021 C1022 1.351 . S
C1022 C1016 1.428 1_455 S
C1022 N1021 1.351 . S
C1022 C1023 1.434 . S
C1023 C1014 1.429 . S
C1023 N1020 1.350 . S
C1023 C1022 1.434 . S
C1024 C1025 1.369 . S
C1024 C1026 1.419 . S
C1024 H1028 0.930 . S
C1025 C1024 1.369 . S
C1025 C1034 1.429 . S
C1026 C1024 1.419 . S
C1026 C1027 1.363 . S
C1026 H1029 0.929 . S
C1027 C1026 1.363 . S
C1027 C1033 1.428 . S
H1028 C1024 0.930 . S
H1029 C1026 0.929 . S
S1030 N1031 1.613 . S
S1030 N1032 1.610 . S
N1031 S1030 1.613 . S
N1031 C1034 1.350 . S
N1032 S1030 1.610 . S
N1032 C1033 1.351 . S
C1033 C1027 1.428 . S
C1033 N1032 1.351 . S
C1033 C1034 1.434 . S
C1034 C1025 1.429 . S
C1034 N1031 1.350 . S
C1034 C1033 1.434 . S
C1035 C1036 1.369 . S
C1035 C1037 1.419 . S
C1035 H1039 0.930 . S
C1036 C1035 1.369 . S
C1036 C1045 1.429 . S
C1037 C1035 1.419 . S
C1037 C1038 1.363 . S
C1037 H1040 0.929 . S
C1038 C1037 1.363 . S
C1038 C1044 1.428 . S
H1039 C1035 0.930 . S
H1040 C1037 0.929 . S
S1041 N1042 1.613 . S
S1041 N1043 1.610 . S
N1042 S1041 1.613 . S
N1042 C1045 1.350 . S
N1043 S1041 1.610 . S
N1043 C1044 1.351 . S
C1044 C1038 1.428 . S
C1044 N1043 1.351 . S
C1044 C1045 1.434 . S
C1045 C1036 1.429 . S
C1045 N1042 1.350 . S
C1045 C1044 1.434 . S
C1046 C1047 1.369 . S
C1046 C1048 1.419 . S
C1046 H1050 0.930 . S
C1047 C1046 1.369 . S
C1047 C1056 1.429 . S
C1048 C1046 1.419 . S
C1048 C1049 1.363 . S
C1048 H1051 0.929 . S
C1049 C1048 1.363 . S
C1049 C1055 1.428 . S
H1050 C1046 0.930 . S
H1051 C1048 0.929 . S
S1052 N1053 1.613 . S
S1052 N1054 1.610 . S
N1053 S1052 1.613 . S
N1053 C1056 1.350 . S
N1054 S1052 1.610 . S
N1054 C1055 1.351 . S
C1055 C1049 1.428 . S
C1055 N1054 1.351 . S
C1055 C1056 1.434 . S
C1056 C1047 1.429 . S
C1056 N1053 1.350 . S
C1056 C1055 1.434 . S
C1057 C1058 1.369 . S
C1057 C1059 1.419 1_556 S
C1057 H1061 0.930 . S
C1058 C1057 1.369 . S
C1058 C1067 1.429 . S
C1059 C1057 1.419 1_554 S
C1059 C1060 1.363 . S
C1059 H1062 0.929 . S
C1060 C1059 1.363 . S
C1060 C1066 1.428 . S
H1061 C1057 0.930 . S
H1062 C1059 0.929 . S
S1063 N1064 1.613 . S
S1063 N1065 1.610 1_556 S
N1064 S1063 1.613 . S
N1064 C1067 1.350 . S
N1065 S1063 1.610 1_554 S
N1065 C1066 1.351 . S
C1066 C1060 1.428 . S
C1066 N1065 1.351 . S
C1066 C1067 1.434 1_554 S
C1067 C1058 1.429 . S
C1067 N1064 1.350 . S
C1067 C1066 1.434 1_556 S
C1068 C1069 1.369 . S
C1068 C1070 1.419 . S
C1068 H1072 0.930 . S
C1069 C1068 1.369 . S
C1069 C1078 1.429 . S
C1070 C1068 1.419 . S
C1070 C1071 1.363 . S
C1070 H1073 0.929 . S
C1071 C1070 1.363 . S
C1071 C1077 1.428 . S
H1072 C1068 0.930 . S
H1073 C1070 0.929 . S
S1074 N1075 1.613 . S
S1074 N1076 1.610 . S
N1075 S1074 1.613 . S
N1075 C1078 1.350 . S
N1076 S1074 1.610 . S
N1076 C1077 1.351 . S
C1077 C1071 1.428 . S
C1077 N1076 1.351 . S
C1077 C1078 1.434 . S
C1078 C1069 1.429 . S
C1078 N1075 1.350 . S
C1078 C1077 1.434 . S
C1079 C1080 1.369 . S
C1079 C1081 1.419 . S
C1079 H1083 0.930 . S
C1080 C1079 1.369 . S
C1080 C1089 1.429 . S
C1081 C1079 1.419 . S
C1081 C1082 1.363 . S
C1081 H1084 0.929 . S
C1082 C1081 1.363 . S
C1082 C1088 1.428 . S
H1083 C1079 0.930 . S
H1084 C1081 0.929 . S
S1085 N1086 1.613 . S
S1085 N1087 1.610 . S
N1086 S1085 1.613 . S
N1086 C1089 1.350 . S
N1087 S1085 1.610 . S
N1087 C1088 1.351 . S
C1088 C1082 1.428 . S
C1088 N1087 1.351 . S
C1088 C1089 1.434 . S
C1089 C1080 1.429 . S
C1089 N1086 1.350 . S
C1089 C1088 1.434 . S
C1090 C1091 1.369 . S
C1090 C1092 1.419 . S
C1090 H1094 0.930 . S
C1091 C1090 1.369 . S
C1091 C1100 1.429 . S
C1092 C1090 1.419 . S
C1092 C1093 1.363 . S
C1092 H1095 0.929 . S
C1093 C1092 1.363 . S
C1093 C1099 1.428 . S
H1094 C1090 0.930 . S
H1095 C1092 0.929 . S
S1096 N1097 1.613 . S
S1096 N1098 1.610 . S
N1097 S1096 1.613 . S
N1097 C1100 1.350 . S
N1098 S1096 1.610 . S
N1098 C1099 1.351 . S
C1099 C1093 1.428 . S
C1099 N1098 1.351 . S
C1099 C1100 1.434 . S
C1100 C1091 1.429 . S
C1100 N1097 1.350 . S
C1100 C1099 1.434 . S
C1101 C1102 1.369 . S
C1101 C1103 1.419 1_556 S
C1101 H1105 0.930 . S
C1102 C1101 1.369 . S
C1102 C1111 1.429 . S
C1103 C1101 1.419 1_554 S
C1103 C1104 1.363 . S
C1103 H1106 0.929 . S
C1104 C1103 1.363 . S
C1104 C1110 1.428 . S
H1105 C1101 0.930 . S
H1106 C1103 0.929 . S
S1107 N1108 1.613 1_554 S
S1107 N1109 1.610 . S
N1108 S1107 1.613 1_556 S
N1108 C1111 1.350 . S
N1109 S1107 1.610 . S
N1109 C1110 1.351 . S
C1110 C1104 1.428 . S
C1110 N1109 1.351 . S
C1110 C1111 1.434 1_554 S
C1111 C1102 1.429 . S
C1111 N1108 1.350 . S
C1111 C1110 1.434 1_556 S
C1112 C1113 1.369 . S
C1112 C1114 1.419 . S
C1112 H1116 0.930 . S
C1113 C1112 1.369 . S
C1113 C1122 1.429 . S
C1114 C1112 1.419 . S
C1114 C1115 1.363 . S
C1114 H1117 0.929 . S
C1115 C1114 1.363 . S
C1115 C1121 1.428 . S
H1116 C1112 0.930 . S
H1117 C1114 0.929 . S
S1118 N1119 1.613 . S
S1118 N1120 1.610 . S
N1119 S1118 1.613 . S
N1119 C1122 1.350 . S
N1120 S1118 1.610 . S
N1120 C1121 1.351 . S
C1121 C1115 1.428 . S
C1121 N1120 1.351 . S
C1121 C1122 1.434 . S
C1122 C1113 1.429 . S
C1122 N1119 1.350 . S
C1122 C1121 1.434 . S
C1123 C1124 1.369 . S
C1123 C1125 1.419 . S
C1123 H1127 0.930 . S
C1124 C1123 1.369 . S
C1124 C1133 1.429 . S
C1125 C1123 1.419 . S
C1125 C1126 1.363 . S
C1125 H1128 0.929 . S
C1126 C1125 1.363 . S
C1126 C1132 1.428 . S
H1127 C1123 0.930 . S
H1128 C1125 0.929 . S
S1129 N1130 1.613 . S
S1129 N1131 1.610 . S
N1130 S1129 1.613 . S
N1130 C1133 1.350 . S
N1131 S1129 1.610 . S
N1131 C1132 1.351 . S
C1132 C1126 1.428 . S
C1132 N1131 1.351 . S
C1132 C1133 1.434 . S
C1133 C1124 1.429 . S
C1133 N1130 1.350 . S
C1133 C1132 1.434 . S
C1134 C1135 1.369 . S
C1134 C1136 1.419 . S
C1134 H1138 0.930 . S
C1135 C1134 1.369 . S
C1135 C1144 1.429 . S
C1136 C1134 1.419 . S
C1136 C1137 1.363 . S
C1136 H1139 0.929 . S
C1137 C1136 1.363 . S
C1137 C1143 1.428 . S
H1138 C1134 0.930 . S
H1139 C1136 0.929 . S
S1140 N1141 1.613 . S
S1140 N1142 1.610 . S
N1141 S1140 1.613 . S
N1141 C1144 1.350 . S
N1142 S1140 1.610 . S
N1142 C1143 1.351 . S
C1143 C1137 1.428 . S
C1143 N1142 1.351 . S
C1143 C1144 1.434 . S
C1144 C1135 1.429 . S
C1144 N1141 1.350 . S
C1144 C1143 1.434 . S
C1145 C1146 1.369 . S
C1145 C1147 1.419 . S
C1145 H1149 0.930 . S
C1146 C1145 1.369 . S
C1146 C1155 1.429 . S
C1147 C1145 1.419 . S
C1147 C1148 1.363 . S
C1147 H1150 0.929 . S
C1148 C1147 1.363 . S
C1148 C1154 1.428 . S
H1149 C1145 0.930 . S
H1150 C1147 0.929 . S
S1151 N1152 1.613 . S
S1151 N1153 1.610 . S
N1152 S1151 1.613 . S
N1152 C1155 1.350 . S
N1153 S1151 1.610 . S
N1153 C1154 1.351 . S
C1154 C1148 1.428 . S
C1154 N1153 1.351 . S
C1154 C1155 1.434 . S
C1155 C1146 1.429 . S
C1155 N1152 1.350 . S
C1155 C1154 1.434 . S
C1156 C1157 1.369 . S
C1156 C1158 1.419 . S
C1156 H1160 0.930 . S
C1157 C1156 1.369 . S
C1157 C1166 1.429 . S
C1158 C1156 1.419 . S
C1158 C1159 1.363 . S
C1158 H1161 0.929 . S
C1159 C1158 1.363 . S
C1159 C1165 1.428 . S
H1160 C1156 0.930 . S
H1161 C1158 0.929 . S
S1162 N1163 1.613 . S
S1162 N1164 1.610 . S
N1163 S1162 1.613 . S
N1163 C1166 1.350 . S
N1164 S1162 1.610 . S
N1164 C1165 1.351 . S
C1165 C1159 1.428 . S
C1165 N1164 1.351 . S
C1165 C1166 1.434 . S
C1166 C1157 1.429 . S
C1166 N1163 1.350 . S
C1166 C1165 1.434 . S
C1167 C1168 1.369 . S
C1167 C1169 1.419 . S
C1167 H1171 0.930 . S
C1168 C1167 1.369 . S
C1168 C1177 1.429 . S
C1169 C1167 1.419 . S
C1169 C1170 1.363 . S
C1169 H1172 0.929 . S
C1170 C1169 1.363 . S
C1170 C1176 1.428 . S
H1171 C1167 0.930 . S
H1172 C1169 0.929 . S
S1173 N1174 1.613 . S
S1173 N1175 1.610 . S
N1174 S1173 1.613 . S
N1174 C1177 1.350 . S
N1175 S1173 1.610 . S
N1175 C1176 1.351 . S
C1176 C1170 1.428 . S
C1176 N1175 1.351 . S
C1176 C1177 1.434 . S
C1177 C1168 1.429 . S
C1177 N1174 1.350 . S
C1177 C1176 1.434 . S
C1178 C1179 1.369 . S
C1178 C1180 1.419 . S
C1178 H1182 0.930 . S
C1179 C1178 1.369 . S
C1179 C1188 1.429 . S
C1180 C1178 1.419 . S
C1180 C1181 1.363 . S
C1180 H1183 0.929 . S
C1181 C1180 1.363 . S
C1181 C1187 1.428 . S
H1182 C1178 0.930 . S
H1183 C1180 0.929 . S
S1184 N1185 1.613 . S
S1184 N1186 1.610 . S
N1185 S1184 1.613 . S
N1185 C1188 1.350 . S
N1186 S1184 1.610 . S
N1186 C1187 1.351 . S
C1187 C1181 1.428 . S
C1187 N1186 1.351 . S
C1187 C1188 1.434 . S
C1188 C1179 1.429 . S
C1188 N1185 1.350 . S
C1188 C1187 1.434 . S
C1189 C1190 1.369 . S
C1189 C1191 1.419 . S
C1189 H1193 0.930 . S
C1190 C1189 1.369 . S
C1190 C1199 1.429 . S
C1191 C1189 1.419 . S
C1191 C1192 1.363 . S
C1191 H1194 0.929 . S
C1192 C1191 1.363 . S
C1192 C1198 1.428 . S
H1193 C1189 0.930 . S
H1194 C1191 0.929 . S
S1195 N1196 1.613 . S
S1195 N1197 1.610 . S
N1196 S1195 1.613 . S
N1196 C1199 1.350 . S
N1197 S1195 1.610 . S
N1197 C1198 1.351 . S
C1198 C1192 1.428 . S
C1198 N1197 1.351 . S
C1198 C1199 1.434 . S
C1199 C1190 1.429 . S
C1199 N1196 1.350 . S
C1199 C1198 1.434 . S
C1200 C1201 1.369 . S
C1200 C1202 1.419 . S
C1200 H1204 0.930 . S
C1201 C1200 1.369 . S
C1201 C1210 1.429 . S
C1202 C1200 1.419 . S
C1202 C1203 1.363 . S
C1202 H1205 0.929 . S
C1203 C1202 1.363 . S
C1203 C1209 1.428 . S
H1204 C1200 0.930 . S
H1205 C1202 0.929 . S
S1206 N1207 1.613 . S
S1206 N1208 1.610 . S
N1207 S1206 1.613 . S
N1207 C1210 1.350 . S
N1208 S1206 1.610 . S
N1208 C1209 1.351 . S
C1209 C1203 1.428 . S
C1209 N1208 1.351 . S
C1209 C1210 1.434 . S
C1210 C1201 1.429 . S
C1210 N1207 1.350 . S
C1210 C1209 1.434 . S
C1211 C1212 1.369 . S
C1211 C1213 1.419 . S
C1211 H1215 0.930 . S
C1212 C1211 1.369 . S
C1212 C1221 1.429 . S
C1213 C1211 1.419 . S
C1213 C1214 1.363 . S
C1213 H1216 0.929 . S
C1214 C1213 1.363 . S
C1214 C1220 1.428 . S
H1215 C1211 0.930 . S
H1216 C1213 0.929 . S
S1217 N1218 1.613 . S
S1217 N1219 1.610 . S
N1218 S1217 1.613 . S
N1218 C1221 1.350 . S
N1219 S1217 1.610 . S
N1219 C1220 1.351 . S
C1220 C1214 1.428 . S
C1220 N1219 1.351 . S
C1220 C1221 1.434 . S
C1221 C1212 1.429 . S
C1221 N1218 1.350 . S
C1221 C1220 1.434 . S
C1222 C1223 1.369 . S
C1222 C1224 1.419 . S
C1222 H1226 0.930 . S
C1223 C1222 1.369 . S
C1223 C1232 1.429 . S
C1224 C1222 1.419 . S
C1224 C1225 1.363 . S
C1224 H1227 0.929 . S
C1225 C1224 1.363 . S
C1225 C1231 1.428 . S
H1226 C1222 0.930 . S
H1227 C1224 0.929 . S
S1228 N1229 1.613 . S
S1228 N1230 1.610 . S
N1229 S1228 1.613 . S
N1229 C1232 1.350 . S
N1230 S1228 1.610 . S
N1230 C1231 1.351 . S
C1231 C1225 1.428 . S
C1231 N1230 1.351 . S
C1231 C1232 1.434 . S
C1232 C1223 1.429 . S
C1232 N1229 1.350 . S
C1232 C1231 1.434 . S
C1233 C1234 1.369 1_455 S
C1233 C1235 1.419 . S
C1233 H1237 0.930 . S
C1234 C1233 1.369 1_655 S
C1234 C1243 1.427 1_655 S
C1235 C1233 1.419 . S
C1235 C1236 1.363 . S
C1235 H1238 0.929 . S
C1236 C1235 1.363 . S
C1236 C1242 1.428 . S
H1237 C1233 0.930 . S
H1238 C1235 0.929 . S
S1239 N1240 1.613 1_455 S
S1239 N1241 1.610 . S
N1240 S1239 1.613 1_655 S
N1240 C1243 1.346 1_655 S
N1241 S1239 1.610 . S
N1241 C1242 1.351 . S
C1242 C1236 1.428 . S
C1242 N1241 1.351 . S
C1242 C1243 1.440 . S
C1243 C1234 1.427 1_455 S
C1243 N1240 1.346 1_455 S
C1243 C1242 1.440 . S
C1244 C1245 1.369 . S
C1244 C1246 1.419 . S
C1244 H1248 0.930 . S
C1245 C1244 1.369 . S
C1245 C1254 1.429 . S
C1246 C1244 1.419 . S
C1246 C1247 1.363 . S
C1246 H1249 0.929 . S
C1247 C1246 1.363 . S
C1247 C1253 1.428 . S
H1248 C1244 0.930 . S
H1249 C1246 0.929 . S
S1250 N1251 1.613 . S
S1250 N1252 1.610 . S
N1251 S1250 1.613 . S
N1251 C1254 1.350 . S
N1252 S1250 1.610 . S
N1252 C1253 1.351 . S
C1253 C1247 1.428 . S
C1253 N1252 1.351 . S
C1253 C1254 1.434 . S
C1254 C1245 1.429 . S
C1254 N1251 1.350 . S
C1254 C1253 1.434 . S
C1255 C1256 1.369 . S
C1255 C1257 1.419 . S
C1255 H1259 0.930 . S
C1256 C1255 1.369 . S
C1256 C1265 1.429 . S
C1257 C1255 1.419 . S
C1257 C1258 1.363 1_455 S
C1257 H1260 0.929 1_455 S
C1258 C1257 1.363 1_655 S
C1258 C1264 1.428 . S
H1259 C1255 0.930 . S
H1260 C1257 0.929 1_655 S
S1261 N1262 1.613 . S
S1261 N1263 1.610 1_455 S
N1262 S1261 1.613 . S
N1262 C1265 1.350 . S
N1263 S1261 1.610 1_655 S
N1263 C1264 1.351 . S
C1264 C1258 1.428 . S
C1264 N1263 1.351 . S
C1264 C1265 1.434 1_655 S
C1265 C1256 1.429 . S
C1265 N1262 1.350 . S
C1265 C1264 1.434 1_455 S
C1266 C1267 1.369 . S
C1266 C1268 1.419 . S
C1266 H1270 0.930 . S
C1267 C1266 1.369 . S
C1267 C1276 1.429 . S
C1268 C1266 1.419 . S
C1268 C1269 1.363 . S
C1268 H1271 0.929 . S
C1269 C1268 1.363 . S
C1269 C1275 1.428 . S
H1270 C1266 0.930 . S
H1271 C1268 0.929 . S
S1272 N1273 1.613 . S
S1272 N1274 1.610 . S
N1273 S1272 1.613 . S
N1273 C1276 1.350 . S
N1274 S1272 1.610 . S
N1274 C1275 1.351 . S
C1275 C1269 1.428 . S
C1275 N1274 1.351 . S
C1275 C1276 1.434 . S
C1276 C1267 1.429 . S
C1276 N1273 1.350 . S
C1276 C1275 1.434 . S
C1277 C1278 1.369 . S
C1277 C1279 1.419 . S
C1277 H1281 0.930 . S
C1278 C1277 1.369 . S
C1278 C1287 1.429 . S
C1279 C1277 1.419 . S
C1279 C1280 1.363 . S
C1279 H1282 0.929 . S
C1280 C1279 1.363 . S
C1280 C1286 1.428 . S
H1281 C1277 0.930 . S
H1282 C1279 0.929 . S
S1283 N1284 1.613 . S
S1283 N1285 1.610 . S
N1284 S1283 1.613 . S
N1284 C1287 1.350 . S
N1285 S1283 1.610 . S
N1285 C1286 1.351 . S
C1286 C1280 1.428 . S
C1286 N1285 1.351 . S
C1286 C1287 1.434 . S
C1287 C1278 1.429 . S
C1287 N1284 1.350 . S
C1287 C1286 1.434 . S
C1288 C1289 1.369 . S
C1288 C1290 1.419 . S
C1288 H1292 0.930 . S
C1289 C1288 1.369 . S
C1289 C1298 1.429 . S
C1290 C1288 1.419 . S
C1290 C1291 1.363 . S
C1290 H1293 0.929 . S
C1291 C1290 1.363 . S
C1291 C1297 1.428 . S
H1292 C1288 0.930 . S
H1293 C1290 0.929 . S
S1294 N1295 1.613 . S
S1294 N1296 1.610 . S
N1295 S1294 1.613 . S
N1295 C1298 1.350 . S
N1296 S1294 1.610 . S
N1296 C1297 1.351 . S
C1297 C1291 1.428 . S
C1297 N1296 1.351 . S
C1297 C1298 1.434 . S
C1298 C1289 1.429 . S
C1298 N1295 1.350 . S
C1298 C1297 1.434 . S
C1299 C1300 1.369 . S
C1299 C1301 1.419 . S
C1299 H1303 0.930 . S
C1300 C1299 1.369 . S
C1300 C1309 1.429 . S
C1301 C1299 1.419 . S
C1301 C1302 1.363 1_554 S
C1301 H1304 0.929 . S
C1302 C1301 1.363 1_556 S
C1302 C1308 1.428 1_556 S
H1303 C1299 0.930 . S
H1304 C1301 0.929 . S
S1305 N1306 1.613 . S
S1305 N1307 1.610 1_554 S
N1306 S1305 1.613 . S
N1306 C1309 1.350 . S
N1307 S1305 1.610 1_556 S
N1307 C1308 1.351 1_556 S
C1308 C1302 1.428 1_554 S
C1308 N1307 1.351 1_554 S
C1308 C1309 1.434 . S
C1309 C1300 1.429 . S
C1309 N1306 1.350 . S
C1309 C1308 1.434 . S
C1310 C1311 1.369 . S
C1310 C1312 1.419 . S
C1310 H1314 0.930 . S
C1311 C1310 1.369 . S
C1311 C1320 1.429 . S
C1312 C1310 1.419 . S
C1312 C1313 1.363 . S
C1312 H1315 0.929 . S
C1313 C1312 1.363 . S
C1313 C1319 1.428 . S
H1314 C1310 0.930 . S
H1315 C1312 0.929 . S
S1316 N1317 1.613 . S
S1316 N1318 1.610 . S
N1317 S1316 1.613 . S
N1317 C1320 1.350 . S
N1318 S1316 1.610 . S
N1318 C1319 1.351 . S
C1319 C1313 1.428 . S
C1319 N1318 1.351 . S
C1319 C1320 1.434 . S
C1320 C1311 1.429 . S
C1320 N1317 1.350 . S
C1320 C1319 1.434 . S
C1321 C1322 1.369 . S
C1321 C1323 1.419 . S
C1321 H1325 0.930 . S
C1322 C1321 1.369 . S
C1322 C1331 1.429 . S
C1323 C1321 1.419 . S
C1323 C1324 1.363 . S
C1323 H1326 0.929 . S
C1324 C1323 1.363 . S
C1324 C1330 1.428 . S
H1325 C1321 0.930 . S
H1326 C1323 0.929 . S
S1327 N1328 1.613 . S
S1327 N1329 1.610 . S
N1328 S1327 1.613 . S
N1328 C1331 1.350 . S
N1329 S1327 1.610 . S
N1329 C1330 1.351 . S
C1330 C1324 1.428 . S
C1330 N1329 1.351 . S
C1330 C1331 1.434 . S
C1331 C1322 1.429 . S
C1331 N1328 1.350 . S
C1331 C1330 1.434 . S
C1332 C1333 1.369 . S
C1332 C1334 1.419 . S
C1332 H1336 0.930 . S
C1333 C1332 1.369 . S
C1333 C1342 1.429 . S
C1334 C1332 1.419 . S
C1334 C1335 1.363 . S
C1334 H1337 0.929 . S
C1335 C1334 1.363 . S
C1335 C1341 1.428 . S
H1336 C1332 0.930 . S
H1337 C1334 0.929 . S
S1338 N1339 1.613 . S
S1338 N1340 1.610 . S
N1339 S1338 1.613 . S
N1339 C1342 1.350 . S
N1340 S1338 1.610 . S
N1340 C1341 1.351 . S
C1341 C1335 1.428 . S
C1341 N1340 1.351 . S
C1341 C1342 1.434 . S
C1342 C1333 1.429 . S
C1342 N1339 1.350 . S
C1342 C1341 1.434 . S
C1343 C1344 1.369 . S
C1343 C1345 1.419 . S
C1343 H1347 0.930 . S
C1344 C1343 1.369 . S
C1344 C1353 1.429 . S
C1345 C1343 1.419 . S
C1345 C1346 1.363 . S
C1345 H1348 0.929 . S
C1346 C1345 1.363 . S
C1346 C1352 1.428 . S
H1347 C1343 0.930 . S
H1348 C1345 0.929 . S
S1349 N1350 1.613 . S
S1349 N1351 1.610 1_556 S
N1350 S1349 1.613 . S
N1350 C1353 1.350 . S
N1351 S1349 1.610 1_554 S
N1351 C1352 1.351 1_554 S
C1352 C1346 1.428 . S
C1352 N1351 1.351 1_556 S
C1352 C1353 1.434 . S
C1353 C1344 1.429 . S
C1353 N1350 1.350 . S
C1353 C1352 1.434 . S
C1354 C1355 1.369 . S
C1354 C1356 1.419 . S
C1354 H1358 0.930 . S
C1355 C1354 1.369 . S
C1355 C1364 1.429 . S
C1356 C1354 1.419 . S
C1356 C1357 1.363 . S
C1356 H1359 0.929 . S
C1357 C1356 1.363 . S
C1357 C1363 1.428 . S
H1358 C1354 0.930 . S
H1359 C1356 0.929 . S
S1360 N1361 1.613 . S
S1360 N1362 1.610 . S
N1361 S1360 1.613 . S
N1361 C1364 1.350 . S
N1362 S1360 1.610 . S
N1362 C1363 1.351 . S
C1363 C1357 1.428 . S
C1363 N1362 1.351 . S
C1363 C1364 1.434 . S
C1364 C1355 1.429 . S
C1364 N1361 1.350 . S
C1364 C1363 1.434 . S
C1365 C1366 1.369 . S
C1365 C1367 1.419 . S
C1365 H1369 0.930 . S
C1366 C1365 1.369 . S
C1366 C1375 1.429 . S
C1367 C1365 1.419 . S
C1367 C1368 1.363 . S
C1367 H1370 0.929 . S
C1368 C1367 1.363 . S
C1368 C1374 1.428 . S
H1369 C1365 0.930 . S
H1370 C1367 0.929 . S
S1371 N1372 1.613 . S
S1371 N1373 1.610 . S
N1372 S1371 1.613 . S
N1372 C1375 1.350 . S
N1373 S1371 1.610 . S
N1373 C1374 1.351 . S
C1374 C1368 1.428 . S
C1374 N1373 1.351 . S
C1374 C1375 1.434 . S
C1375 C1366 1.429 . S
C1375 N1372 1.350 . S
C1375 C1374 1.434 . S
C1376 C1377 1.369 . S
C1376 C1378 1.419 . S
C1376 H1380 0.930 . S
C1377 C1376 1.369 . S
C1377 C1386 1.429 . S
C1378 C1376 1.419 . S
C1378 C1379 1.363 . S
C1378 H1381 0.929 . S
C1379 C1378 1.363 . S
C1379 C1385 1.428 . S
H1380 C1376 0.930 . S
H1381 C1378 0.929 . S
S1382 N1383 1.613 . S
S1382 N1384 1.610 . S
N1383 S1382 1.613 . S
N1383 C1386 1.350 . S
N1384 S1382 1.610 . S
N1384 C1385 1.351 . S
C1385 C1379 1.428 . S
C1385 N1384 1.351 . S
C1385 C1386 1.434 . S
C1386 C1377 1.429 . S
C1386 N1383 1.350 . S
C1386 C1385 1.434 . S
C1387 C1388 1.369 . S
C1387 C1389 1.419 . S
C1387 H1391 0.930 . S
C1388 C1387 1.369 . S
C1388 C1397 1.429 . S
C1389 C1387 1.419 . S
C1389 C1390 1.363 . S
C1389 H1392 0.929 . S
C1390 C1389 1.363 . S
C1390 C1396 1.428 . S
H1391 C1387 0.930 . S
H1392 C1389 0.929 . S
S1393 N1394 1.613 . S
S1393 N1395 1.610 . S
N1394 S1393 1.613 . S
N1394 C1397 1.350 . S
N1395 S1393 1.610 . S
N1395 C1396 1.351 . S
C1396 C1390 1.428 . S
C1396 N1395 1.351 . S
C1396 C1397 1.434 . S
C1397 C1388 1.429 . S
C1397 N1394 1.350 . S
C1397 C1396 1.434 . S
C1398 C1399 1.369 . S
C1398 C1400 1.419 1_545 S
C1398 H1402 0.930 . S
C1399 C1398 1.369 . S
C1399 C1408 1.429 . S
C1400 C1398 1.419 1_565 S
C1400 C1401 1.363 . S
C1400 H1403 0.929 . S
C1401 C1400 1.363 . S
C1401 C1407 1.428 1_565 S
H1402 C1398 0.930 . S
H1403 C1400 0.929 . S
S1404 N1405 1.613 . S
S1404 N1406 1.610 . S
N1405 S1404 1.613 . S
N1405 C1408 1.350 . S
N1406 S1404 1.610 . S
N1406 C1407 1.351 . S
C1407 C1401 1.428 1_545 S
C1407 N1406 1.351 . S
C1407 C1408 1.434 . S
C1408 C1399 1.429 . S
C1408 N1405 1.350 . S
C1408 C1407 1.434 . S
C1409 C1410 1.369 . S
C1409 C1411 1.419 . S
C1409 H1413 0.930 . S
C1410 C1409 1.369 . S
C1410 C1419 1.429 . S
C1411 C1409 1.419 . S
C1411 C1412 1.363 . S
C1411 H1414 0.929 . S
C1412 C1411 1.363 . S
C1412 C1418 1.428 . S
H1413 C1409 0.930 . S
H1414 C1411 0.929 . S
S1415 N1416 1.613 . S
S1415 N1417 1.610 . S
N1416 S1415 1.613 . S
N1416 C1419 1.350 . S
N1417 S1415 1.610 . S
N1417 C1418 1.351 . S
C1418 C1412 1.428 . S
C1418 N1417 1.351 . S
C1418 C1419 1.434 . S
C1419 C1410 1.429 . S
C1419 N1416 1.350 . S
C1419 C1418 1.434 . S
C1420 C1421 1.369 . S
C1420 C1422 1.419 . S
C1420 H1424 0.930 . S
C1421 C1420 1.369 . S
C1421 C1430 1.429 . S
C1422 C1420 1.419 . S
C1422 C1423 1.363 . S
C1422 H1425 0.929 . S
C1423 C1422 1.363 . S
C1423 C1429 1.428 . S
H1424 C1420 0.930 . S
H1425 C1422 0.929 . S
S1426 N1427 1.613 . S
S1426 N1428 1.610 . S
N1427 S1426 1.613 . S
N1427 C1430 1.350 . S
N1428 S1426 1.610 . S
N1428 C1429 1.351 . S
C1429 C1423 1.428 . S
C1429 N1428 1.351 . S
C1429 C1430 1.434 . S
C1430 C1421 1.429 . S
C1430 N1427 1.350 . S
C1430 C1429 1.434 . S
C1431 C1432 1.369 . S
C1431 C1433 1.419 . S
C1431 H1435 0.930 . S
C1432 C1431 1.369 . S
C1432 C1441 1.429 . S
C1433 C1431 1.419 . S
C1433 C1434 1.363 . S
C1433 H1436 0.929 . S
C1434 C1433 1.363 . S
C1434 C1440 1.428 . S
H1435 C1431 0.930 . S
H1436 C1433 0.929 . S
S1437 N1438 1.613 . S
S1437 N1439 1.610 . S
N1438 S1437 1.613 . S
N1438 C1441 1.350 . S
N1439 S1437 1.610 . S
N1439 C1440 1.351 . S
C1440 C1434 1.428 . S
C1440 N1439 1.351 . S
C1440 C1441 1.434 . S
C1441 C1432 1.429 . S
C1441 N1438 1.350 . S
C1441 C1440 1.434 . S
C1442 C1443 1.369 1_565 S
C1442 C1444 1.419 . S
C1442 H1446 0.930 1_565 S
C1443 C1442 1.369 1_545 S
C1443 C1452 1.429 1_545 S
C1444 C1442 1.419 . S
C1444 C1445 1.363 . S
C1444 H1447 0.929 . S
C1445 C1444 1.363 . S
C1445 C1451 1.428 . S
H1446 C1442 0.930 1_545 S
H1447 C1444 0.929 . S
S1448 N1449 1.613 1_565 S
S1448 N1450 1.610 . S
N1449 S1448 1.613 1_545 S
N1449 C1452 1.350 1_545 S
N1450 S1448 1.610 . S
N1450 C1451 1.351 . S
C1451 C1445 1.428 . S
C1451 N1450 1.351 . S
C1451 C1452 1.434 . S
C1452 C1443 1.429 1_565 S
C1452 N1449 1.350 1_565 S
C1452 C1451 1.434 . S
C1453 C1454 1.369 . S
C1453 C1455 1.419 . S
C1453 H1457 0.930 . S
C1454 C1453 1.369 . S
C1454 C1463 1.429 . S
C1455 C1453 1.419 . S
C1455 C1456 1.363 1_545 S
C1455 H1458 0.929 1_545 S
C1456 C1455 1.363 1_565 S
C1456 C1462 1.428 1_565 S
H1457 C1453 0.930 . S
H1458 C1455 0.929 1_565 S
S1459 N1460 1.613 . S
S1459 N1461 1.610 1_545 S
N1460 S1459 1.613 . S
N1460 C1463 1.350 . S
N1461 S1459 1.610 1_565 S
N1461 C1462 1.351 1_565 S
C1462 C1456 1.428 1_545 S
C1462 N1461 1.351 1_545 S
C1462 C1463 1.434 . S
C1463 C1454 1.429 . S
C1463 N1460 1.350 . S
C1463 C1462 1.434 . S
C1464 C1465 1.369 . S
C1464 C1466 1.419 . S
C1464 H1468 0.930 . S
C1465 C1464 1.369 . S
C1465 C1474 1.429 . S
C1466 C1464 1.419 . S
C1466 C1467 1.363 . S
C1466 H1469 0.929 . S
C1467 C1466 1.363 . S
C1467 C1473 1.428 . S
H1468 C1464 0.930 . S
H1469 C1466 0.929 . S
S1470 N1471 1.613 . S
S1470 N1472 1.610 . S
N1471 S1470 1.613 . S
N1471 C1474 1.350 . S
N1472 S1470 1.610 . S
N1472 C1473 1.351 . S
C1473 C1467 1.428 . S
C1473 N1472 1.351 . S
C1473 C1474 1.434 . S
C1474 C1465 1.429 . S
C1474 N1471 1.350 . S
C1474 C1473 1.434 . S
C1475 C1476 1.369 . S
C1475 C1477 1.419 . S
C1475 H1479 0.930 . S
C1476 C1475 1.369 . S
C1476 C1485 1.429 . S
C1477 C1475 1.419 . S
C1477 C1478 1.363 . S
C1477 H1480 0.929 . S
C1478 C1477 1.363 . S
C1478 C1484 1.428 . S
H1479 C1475 0.930 . S
H1480 C1477 0.929 . S
S1481 N1482 1.613 . S
S1481 N1483 1.610 . S
N1482 S1481 1.613 . S
N1482 C1485 1.350 . S
N1483 S1481 1.610 . S
N1483 C1484 1.351 . S
C1484 C1478 1.428 . S
C1484 N1483 1.351 . S
C1484 C1485 1.434 . S
C1485 C1476 1.429 . S
C1485 N1482 1.350 . S
C1485 C1484 1.434 . S
C1486 C1487 1.369 . S
C1486 C1488 1.419 . S
C1486 H1490 0.930 . S
C1487 C1486 1.369 . S
C1487 C1496 1.429 . S
C1488 C1486 1.419 . S
C1488 C1489 1.363 . S
C1488 H1491 0.929 . S
C1489 C1488 1.363 . S
C1489 C1495 1.428 . S
H1490 C1486 0.930 . S
H1491 C1488 0.929 . S
S1492 N1493 1.613 . S
S1492 N1494 1.610 . S
N1493 S1492 1.613 . S
N1493 C1496 1.350 . S
N1494 S1492 1.610 . S
N1494 C1495 1.351 . S
C1495 C1489 1.428 . S
C1495 N1494 1.351 . S
C1495 C1496 1.434 . S
C1496 C1487 1.429 . S
C1496 N1493 1.350 . S
C1496 C1495 1.434 . S
C1497 C1498 1.369 1_655 S
C1497 C1499 1.419 . S
C1497 H1501 0.930 1_655 S
C1498 C1497 1.369 1_455 S
C1498 C1507 1.429 1_455 S
C1499 C1497 1.419 . S
C1499 C1500 1.363 . S
C1499 H1502 0.929 . S
C1500 C1499 1.363 . S
C1500 C1506 1.428 . S
H1501 C1497 0.930 1_455 S
H1502 C1499 0.929 . S
S1503 N1504 1.613 . S
S1503 N1505 1.610 . S
N1504 S1503 1.613 . S
N1504 C1507 1.350 . S
N1505 S1503 1.610 . S
N1505 C1506 1.351 . S
C1506 C1500 1.428 . S
C1506 N1505 1.351 . S
C1506 C1507 1.434 . S
C1507 C1498 1.429 1_655 S
C1507 N1504 1.350 . S
C1507 C1506 1.434 . S
C1508 C1509 1.369 . S
C1508 C1510 1.419 . S
C1508 H1512 0.930 . S
C1509 C1508 1.369 . S
C1509 C1518 1.429 . S
C1510 C1508 1.419 . S
C1510 C1511 1.363 . S
C1510 H1513 0.929 . S
C1511 C1510 1.363 . S
C1511 C1517 1.428 . S
H1512 C1508 0.930 . S
H1513 C1510 0.929 . S
S1514 N1515 1.613 . S
S1514 N1516 1.610 . S
N1515 S1514 1.613 . S
N1515 C1518 1.350 . S
N1516 S1514 1.610 . S
N1516 C1517 1.351 . S
C1517 C1511 1.428 . S
C1517 N1516 1.351 . S
C1517 C1518 1.434 . S
C1518 C1509 1.429 . S
C1518 N1515 1.350 . S
C1518 C1517 1.434 . S
C1519 C1520 1.369 . S
C1519 C1521 1.419 1_455 S
C1519 H1523 0.930 . S
C1520 C1519 1.369 . S
C1520 C1529 1.429 . S
C1521 C1519 1.419 1_655 S
C1521 C1522 1.363 . S
C1521 H1524 0.929 . S
C1522 C1521 1.363 . S
C1522 C1528 1.428 . S
H1523 C1519 0.930 . S
H1524 C1521 0.929 . S
S1525 N1526 1.613 1_655 S
S1525 N1527 1.610 . S
N1526 S1525 1.613 1_455 S
N1526 C1529 1.350 . S
N1527 S1525 1.610 . S
N1527 C1528 1.351 . S
C1528 C1522 1.428 . S
C1528 N1527 1.351 . S
C1528 C1529 1.434 1_655 S
C1529 C1520 1.429 . S
C1529 N1526 1.350 . S
C1529 C1528 1.434 1_455 S
C1530 C1531 1.369 . S
C1530 C1532 1.419 . S
C1530 H1534 0.930 . S
C1531 C1530 1.369 . S
C1531 C1540 1.429 . S
C1532 C1530 1.419 . S
C1532 C1533 1.363 . S
C1532 H1535 0.929 . S
C1533 C1532 1.363 . S
C1533 C1539 1.428 . S
H1534 C1530 0.930 . S
H1535 C1532 0.929 . S
S1536 N1537 1.613 . S
S1536 N1538 1.610 . S
N1537 S1536 1.613 . S
N1537 C1540 1.350 . S
N1538 S1536 1.610 . S
N1538 C1539 1.351 . S
C1539 C1533 1.428 . S
C1539 N1538 1.351 . S
C1539 C1540 1.434 . S
C1540 C1531 1.429 . S
C1540 N1537 1.350 . S
C1540 C1539 1.434 . S
C1541 C1542 1.369 . S
C1541 C1543 1.419 . S
C1541 H1545 0.930 . S
C1542 C1541 1.369 . S
C1542 C1551 1.429 . S
C1543 C1541 1.419 . S
C1543 C1544 1.363 . S
C1543 H1546 0.929 . S
C1544 C1543 1.363 . S
C1544 C1550 1.428 . S
H1545 C1541 0.930 . S
H1546 C1543 0.929 . S
S1547 N1548 1.613 . S
S1547 N1549 1.610 . S
N1548 S1547 1.613 . S
N1548 C1551 1.350 . S
N1549 S1547 1.610 . S
N1549 C1550 1.351 . S
C1550 C1544 1.428 . S
C1550 N1549 1.351 . S
C1550 C1551 1.434 . S
C1551 C1542 1.429 . S
C1551 N1548 1.350 . S
C1551 C1550 1.434 . S
C1552 C1553 1.369 . S
C1552 C1554 1.419 . S
C1552 H1556 0.930 . S
C1553 C1552 1.369 . S
C1553 C1562 1.429 . S
C1554 C1552 1.419 . S
C1554 C1555 1.363 . S
C1554 H1557 0.929 . S
C1555 C1554 1.363 . S
C1555 C1561 1.428 . S
H1556 C1552 0.930 . S
H1557 C1554 0.929 . S
S1558 N1559 1.613 . S
S1558 N1560 1.610 . S
N1559 S1558 1.613 . S
N1559 C1562 1.350 . S
N1560 S1558 1.610 . S
N1560 C1561 1.351 . S
C1561 C1555 1.428 . S
C1561 N1560 1.351 . S
C1561 C1562 1.434 . S
C1562 C1553 1.429 . S
C1562 N1559 1.350 . S
C1562 C1561 1.434 . S
C1563 C1564 1.369 . S
C1563 C1565 1.419 1_556 S
C1563 H1567 0.930 . S
C1564 C1563 1.369 . S
C1564 C1573 1.429 . S
C1565 C1563 1.419 1_554 S
C1565 C1566 1.363 . S
C1565 H1568 0.929 . S
C1566 C1565 1.363 . S
C1566 C1572 1.428 1_554 S
H1567 C1563 0.930 . S
H1568 C1565 0.929 . S
S1569 N1570 1.613 . S
S1569 N1571 1.610 1_556 S
N1570 S1569 1.613 . S
N1570 C1573 1.350 . S
N1571 S1569 1.610 1_554 S
N1571 C1572 1.351 1_554 S
C1572 C1566 1.428 1_556 S
C1572 N1571 1.351 1_556 S
C1572 C1573 1.434 . S
C1573 C1564 1.429 . S
C1573 N1570 1.350 . S
C1573 C1572 1.434 . S
C1574 C1575 1.369 . S
C1574 C1576 1.419 . S
C1574 H1578 0.930 . S
C1575 C1574 1.369 . S
C1575 C1584 1.429 . S
C1576 C1574 1.419 . S
C1576 C1577 1.363 . S
C1576 H1579 0.929 . S
C1577 C1576 1.363 . S
C1577 C1583 1.428 . S
H1578 C1574 0.930 . S
H1579 C1576 0.929 . S
S1580 N1581 1.613 . S
S1580 N1582 1.610 . S
N1581 S1580 1.613 . S
N1581 C1584 1.350 . S
N1582 S1580 1.610 . S
N1582 C1583 1.351 . S
C1583 C1577 1.428 . S
C1583 N1582 1.351 . S
C1583 C1584 1.434 . S
C1584 C1575 1.429 . S
C1584 N1581 1.350 . S
C1584 C1583 1.434 . S
C1585 C1586 1.369 . S
C1585 C1587 1.419 . S
C1585 H1589 0.930 . S
C1586 C1585 1.369 . S
C1586 C1595 1.429 . S
C1587 C1585 1.419 . S
C1587 C1588 1.363 . S
C1587 H1590 0.929 . S
C1588 C1587 1.363 . S
C1588 C1594 1.428 . S
H1589 C1585 0.930 . S
H1590 C1587 0.929 . S
S1591 N1592 1.613 . S
S1591 N1593 1.610 . S
N1592 S1591 1.613 . S
N1592 C1595 1.350 . S
N1593 S1591 1.610 . S
N1593 C1594 1.351 . S
C1594 C1588 1.428 . S
C1594 N1593 1.351 . S
C1594 C1595 1.434 . S
C1595 C1586 1.429 . S
C1595 N1592 1.350 . S
C1595 C1594 1.434 . S
C1596 C1597 1.369 . S
C1596 C1598 1.419 . S
C1596 H1600 0.930 . S
C1597 C1596 1.369 . S
C1597 C1606 1.429 . S
C1598 C1596 1.419 . S
C1598 C1599 1.363 . S
C1598 H1601 0.929 . S
C1599 C1598 1.363 . S
C1599 C1605 1.428 . S
H1600 C1596 0.930 . S
H1601 C1598 0.929 . S
S1602 N1603 1.613 . S
S1602 N1604 1.610 . S
N1603 S1602 1.613 . S
N1603 C1606 1.350 . S
N1604 S1602 1.610 . S
N1604 C1605 1.351 . S
C1605 C1599 1.428 . S
C1605 N1604 1.351 . S
C1605 C1606 1.434 . S
C1606 C1597 1.429 . S
C1606 N1603 1.350 . S
C1606 C1605 1.434 . S
C1607 C1608 1.369 . S
C1607 C1609 1.419 . S
C1607 H1611 0.930 . S
C1608 C1607 1.369 . S
C1608 C1617 1.429 . S
C1609 C1607 1.419 . S
C1609 C1610 1.363 1_554 S
C1609 H1612 0.945 . S
C1610 C1609 1.363 1_556 S
C1610 C1616 1.428 1_556 S
H1611 C1607 0.930 . S
H1612 C1609 0.945 . S
S1613 N1614 1.613 . S
S1613 N1615 1.610 1_554 S
N1614 S1613 1.613 . S
N1614 C1617 1.350 . S
N1615 S1613 1.610 1_556 S
N1615 C1616 1.351 1_556 S
C1616 C1610 1.428 1_554 S
C1616 N1615 1.351 1_554 S
C1616 C1617 1.434 . S
C1617 C1608 1.429 . S
C1617 N1614 1.350 . S
C1617 C1616 1.434 . S
C1618 C1619 1.369 . S
C1618 C1620 1.419 . S
C1618 H1622 0.930 . S
C1619 C1618 1.369 . S
C1619 C1628 1.429 . S
C1620 C1618 1.419 . S
C1620 C1621 1.363 . S
C1620 H1623 0.929 . S
C1621 C1620 1.363 . S
C1621 C1627 1.428 . S
H1622 C1618 0.930 . S
H1623 C1620 0.929 . S
S1624 N1625 1.613 . S
S1624 N1626 1.610 . S
N1625 S1624 1.613 . S
N1625 C1628 1.350 . S
N1626 S1624 1.610 . S
N1626 C1627 1.351 . S
C1627 C1621 1.428 . S
C1627 N1626 1.351 . S
C1627 C1628 1.434 . S
C1628 C1619 1.429 . S
C1628 N1625 1.350 . S
C1628 C1627 1.434 . S
C1629 C1630 1.369 . S
C1629 C1631 1.419 . S
C1629 H1633 0.930 . S
C1630 C1629 1.369 . S
C1630 C1639 1.429 . S
C1631 C1629 1.419 . S
C1631 C1632 1.363 . S
C1631 H1634 0.929 . S
C1632 C1631 1.363 . S
C1632 C1638 1.428 . S
H1633 C1629 0.930 . S
H1634 C1631 0.929 . S
S1635 N1636 1.613 . S
S1635 N1637 1.610 . S
N1636 S1635 1.613 . S
N1636 C1639 1.350 . S
N1637 S1635 1.610 . S
N1637 C1638 1.351 . S
C1638 C1632 1.428 . S
C1638 N1637 1.351 . S
C1638 C1639 1.434 . S
C1639 C1630 1.429 . S
C1639 N1636 1.350 . S
C1639 C1638 1.434 . S
C1640 C1641 1.369 . S
C1640 C1642 1.419 . S
C1640 H1644 0.930 . S
C1641 C1640 1.369 . S
C1641 C1650 1.429 . S
C1642 C1640 1.419 . S
C1642 C1643 1.363 . S
C1642 H1645 0.929 . S
C1643 C1642 1.363 . S
C1643 C1649 1.428 . S
H1644 C1640 0.930 . S
H1645 C1642 0.929 . S
S1646 N1647 1.613 . S
S1646 N1648 1.610 . S
N1647 S1646 1.613 . S
N1647 C1650 1.350 . S
N1648 S1646 1.610 . S
N1648 C1649 1.351 . S
C1649 C1643 1.428 . S
C1649 N1648 1.351 . S
C1649 C1650 1.434 . S
C1650 C1641 1.429 . S
C1650 N1647 1.350 . S
C1650 C1649 1.434 . S
C1651 C1652 1.369 . S
C1651 C1653 1.419 . S
C1651 H1655 0.930 . S
C1652 C1651 1.369 . S
C1652 C1661 1.429 . S
C1653 C1651 1.419 . S
C1653 C1654 1.363 . S
C1653 H1656 0.929 . S
C1654 C1653 1.363 . S
C1654 C1660 1.428 . S
H1655 C1651 0.930 . S
H1656 C1653 0.929 . S
S1657 N1658 1.613 . S
S1657 N1659 1.610 . S
N1658 S1657 1.613 . S
N1658 C1661 1.350 . S
N1659 S1657 1.610 . S
N1659 C1660 1.351 . S
C1660 C1654 1.428 . S
C1660 N1659 1.351 . S
C1660 C1661 1.434 . S
C1661 C1652 1.429 . S
C1661 N1658 1.350 . S
C1661 C1660 1.434 . S
C1662 C1663 1.369 . S
C1662 C1664 1.419 . S
C1662 H1666 0.930 . S
C1663 C1662 1.369 . S
C1663 C1672 1.429 . S
C1664 C1662 1.419 . S
C1664 C1665 1.363 1_565 S
C1664 H1667 0.929 . S
C1665 C1664 1.363 1_545 S
C1665 C1671 1.428 . S
H1666 C1662 0.930 . S
H1667 C1664 0.929 . S
S1668 N1669 1.613 1_545 S
S1668 N1670 1.610 . S
N1669 S1668 1.613 1_565 S
N1669 C1672 1.350 . S
N1670 S1668 1.610 . S
N1670 C1671 1.351 . S
C1671 C1665 1.428 . S
C1671 N1670 1.351 . S
C1671 C1672 1.434 1_545 S
C1672 C1663 1.429 . S
C1672 N1669 1.350 . S
C1672 C1671 1.434 1_565 S
C1673 C1674 1.369 . S
C1673 C1675 1.419 . S
C1673 H1677 0.930 . S
C1674 C1673 1.369 . S
C1674 C1683 1.429 . S
C1675 C1673 1.419 . S
C1675 C1676 1.363 . S
C1675 H1678 0.929 . S
C1676 C1675 1.363 . S
C1676 C1682 1.428 . S
H1677 C1673 0.930 . S
H1678 C1675 0.929 . S
S1679 N1680 1.613 . S
S1679 N1681 1.610 . S
N1680 S1679 1.613 . S
N1680 C1683 1.350 . S
N1681 S1679 1.610 . S
N1681 C1682 1.351 . S
C1682 C1676 1.428 . S
C1682 N1681 1.351 . S
C1682 C1683 1.434 . S
C1683 C1674 1.429 . S
C1683 N1680 1.350 . S
C1683 C1682 1.434 . S
C1684 C1685 1.369 . S
C1684 C1686 1.419 . S
C1684 H1688 0.930 . S
C1685 C1684 1.369 . S
C1685 C1694 1.429 . S
C1686 C1684 1.419 . S
C1686 C1687 1.363 . S
C1686 H1689 0.929 . S
C1687 C1686 1.363 . S
C1687 C1693 1.428 . S
H1688 C1684 0.930 . S
H1689 C1686 0.929 . S
S1690 N1691 1.613 . S
S1690 N1692 1.610 . S
N1691 S1690 1.613 . S
N1691 C1694 1.350 . S
N1692 S1690 1.610 . S
N1692 C1693 1.351 . S
C1693 C1687 1.428 . S
C1693 N1692 1.351 . S
C1693 C1694 1.434 . S
C1694 C1685 1.429 . S
C1694 N1691 1.350 . S
C1694 C1693 1.434 . S
C1695 C1696 1.369 . S
C1695 C1697 1.419 . S
C1695 H1699 0.930 . S
C1696 C1695 1.369 . S
C1696 C1705 1.429 . S
C1697 C1695 1.419 . S
C1697 C1698 1.363 . S
C1697 H1700 0.929 . S
C1698 C1697 1.363 . S
C1698 C1704 1.428 . S
H1699 C1695 0.930 . S
H1700 C1697 0.929 . S
S1701 N1702 1.613 . S
S1701 N1703 1.610 . S
N1702 S1701 1.613 . S
N1702 C1705 1.350 . S
N1703 S1701 1.610 . S
N1703 C1704 1.351 . S
C1704 C1698 1.428 . S
C1704 N1703 1.351 . S
C1704 C1705 1.434 . S
C1705 C1696 1.429 . S
C1705 N1702 1.350 . S
C1705 C1704 1.434 . S
C1706 C1707 1.369 1_545 S
C1706 C1708 1.419 . S
C1706 H1710 0.930 1_545 S
C1707 C1706 1.369 1_565 S
C1707 C1716 1.429 1_565 S
C1708 C1706 1.419 . S
C1708 C1709 1.363 . S
C1708 H1711 0.929 . S
C1709 C1708 1.363 . S
C1709 C1715 1.428 . S
H1710 C1706 0.930 1_565 S
H1711 C1708 0.929 . S
S1712 N1713 1.613 1_545 S
S1712 N1714 1.610 . S
N1713 S1712 1.613 1_565 S
N1713 C1716 1.350 1_565 S
N1714 S1712 1.610 . S
N1714 C1715 1.351 . S
C1715 C1709 1.428 . S
C1715 N1714 1.351 . S
C1715 C1716 1.434 . S
C1716 C1707 1.429 1_545 S
C1716 N1713 1.350 1_545 S
C1716 C1715 1.434 . S
C1717 C1718 1.369 . S
C1717 C1719 1.419 . S
C1717 H1721 0.930 . S
C1718 C1717 1.369 . S
C1718 C1727 1.429 . S
C1719 C1717 1.419 . S
C1719 C1720 1.363 1_565 S
C1719 H1722 0.929 1_565 S
C1720 C1719 1.363 1_545 S
C1720 C1726 1.428 1_545 S
H1721 C1717 0.930 . S
H1722 C1719 0.929 1_545 S
S1723 N1724 1.613 . S
S1723 N1725 1.610 . S
N1724 S1723 1.613 . S
N1724 C1727 1.350 . S
N1725 S1723 1.610 . S
N1725 C1726 1.351 . S
C1726 C1720 1.428 1_565 S
C1726 N1725 1.351 . S
C1726 C1727 1.434 . S
C1727 C1718 1.429 . S
C1727 N1724 1.350 . S
C1727 C1726 1.434 . S
C673 C594 1.338 . S
C675 C7 1.265 . S
C684 C23 1.538 . S
C686 C219 1.508 . S
C695 C34 1.283 . S
C697 C567 1.387 . S
C706 C50 1.517 . S
C708 C246 1.517 . S
C717 C624 1.600 . S
C719 C64 1.642 . S
C728 C77 1.430 . S
C730 C301 1.565 . S
C739 C93 1.662 . S
C741 C653 1.620 . S
C750 C105 1.454 . S
C752 C272 1.553 . S
C761 C49 1.244 . S
C763 C664 1.237 . S
C772 C8 1.484 . S
C774 C357 1.513 . S
C783 C373 1.357 . S
C785 C20 1.371 . S
C794 C37 1.607 . S
C796 C343 1.628 . S
C805 C78 1.756 . S
C807 C344 1.699 . S
C816 C90 1.543 . S
C818 C667 1.520 . S
C827 C106 1.654 . S
C829 C358 1.659 . S
C838 C63 1.400 . S
C840 C370 1.398 . S
C849 C552 1.215 . S
C851 C119 1.198 . S
C860 C135 1.706 . S
C862 C275 1.612 . S
C871 C120 1.492 . S
C873 C623 1.513 . S
C882 C302 1.749 . S
C884 C149 1.791 . S
C893 C314 1.403 . S
C895 C161 1.361 1_565 S
C904 C581 1.289 . S
C906 C176 1.281 . S
C915 C597 1.429 . S
C917 C188 1.451 . S
C926 C568 1.437 . S
C928 C202 1.413 . S
C937 C468 1.333 . S
C939 C217 1.263 . S
C948 C233 1.544 . S
C950 C9 1.508 . S
C959 C244 1.370 . S
C961 C441 1.484 . S
C970 C36 1.474 . S
C972 C260 1.499 . S
C981 C274 1.628 . S
C983 C499 1.602 . S
C992 C91 1.576 . S
C994 C286 1.451 . S
C1003 C303 1.636 . S
C1005 C527 1.615 . S
C1014 C62 1.543 . S
C1016 C315 1.447 . S
C1025 C538 1.289 . S
C1027 C259 1.275 . S
C1036 C218 1.502 . S
C1038 C147 1.538 . S
C1047 C163 1.332 . S
C1049 C230 1.341 . S
C1058 C133 1.606 . S
C1060 C247 1.583 . S
C1069 C134 1.701 . S
C1071 C289 1.749 . S
C1080 C300 1.554 . S
C1082 C541 1.527 . S
C1091 C148 1.713 . S
C1093 C316 1.707 . S
C1102 C273 1.375 . S
C1104 C160 1.374 . S
C1113 C329 1.258 . S
C1115 C426 1.295 . S
C1124 C345 1.678 . S
C1126 C65 1.582 . S
C1135 C330 1.455 . S
C1137 C496 1.481 . S
C1146 C359 1.738 . S
C1148 C92 1.678 . S
C1157 C371 1.333 1_545 S
C1159 C104 1.368 . S
C1168 C455 1.326 . S
C1170 C386 1.332 . S
C1179 C398 1.444 . S
C1181 C471 1.417 . S
C1190 C415 1.774 . S
C1192 C442 1.719 . S
C1201 C427 1.391 . S
C1203 C258 1.458 . S
C1212 C443 1.550 . S
C1214 C555 1.534 . S
C1223 C231 1.400 . S
C1225 C454 1.290 . S
C1234 C470 1.504 . S
C1236 C582 1.487 . S
C1245 C484 1.643 . S
C1247 C288 1.613 . S
C1256 C637 1.553 . S
C1258 C497 1.429 . S
C1267 C513 1.669 . S
C1269 C317 1.619 . S
C1278 C608 1.435 . S
C1280 C525 1.340 . S
C1289 C328 1.224 . S
C1291 C469 1.227 . S
C1300 C414 1.680 . S
C1302 C428 1.668 . S
C1311 C440 1.489 . S
C1313 C387 1.473 . S
C1322 C399 1.650 . S
C1324 C457 1.625 . S
C1333 C498 1.749 . S
C1335 C400 1.687 . S
C1344 C331 1.421 . S
C1346 C510 1.445 1_556 S
C1355 C526 1.471 . S
C1357 C413 1.499 . S
C1366 C483 1.420 . S
C1368 C384 1.418 . S
C1377 C539 1.208 . S
C1379 C216 1.228 . S
C1388 C191 1.649 . S
C1390 C611 1.565 . S
C1399 C287 1.515 . S
C1401 C540 1.501 . S
C1410 C638 1.657 . S
C1412 C205 1.716 . S
C1421 C650 1.379 . S
C1423 C175 1.336 . S
C1432 C162 1.314 . S
C1434 C245 1.314 . S
C1443 C132 1.496 . S
C1445 C261 1.466 . S
C1454 C232 1.501 . S
C1456 C146 1.476 . S
C1465 C553 1.269 . S
C1467 C48 1.345 . S
C1476 C429 1.539 . S
C1478 C569 1.587 . S
C1487 C580 1.271 . S
C1489 C21 1.377 . S
C1498 C596 1.520 . S
C1500 C456 1.498 . S
C1509 C79 1.633 . S
C1511 C610 1.650 . S
C1520 C622 1.360 . S
C1522 C511 1.468 . S
C1531 C639 1.665 . S
C1533 C107 1.625 . S
C1542 C482 1.553 . S
C1544 C651 1.459 . S
C1553 C595 1.257 . S
C1555 C118 1.252 . S
C1564 C203 1.477 . S
C1566 C554 1.448 . S
C1575 C177 1.352 . S
C1577 C566 1.368 . S
C1586 C583 1.626 . S
C1588 C189 1.647 . S
C1597 C625 1.784 . S
C1599 C190 1.711 . S
C1608 C121 1.546 . S
C1610 C636 1.581 . S
C1619 C204 1.638 . S
C1621 C652 1.633 . S
C1630 C609 1.373 . S
C1632 C174 1.355 . S
C1641 C6 1.235 . S
C1643 C665 1.216 . S
C1652 C401 1.710 . S
C1654 C485 1.625 . S
C1663 C76 1.505 . S
C1665 C666 1.484 . S
C1674 C512 1.462 . S
C1676 C412 1.429 . S
C1685 C524 1.313 . S
C1687 C385 1.294 . S
C1696 C372 1.298 . S
C1698 C35 1.304 . S
C1707 C342 1.481 . S
C1709 C51 1.451 . S
C1718 C22 1.491 . S
C1720 C356 1.459 . S
