# Generated by pormake.
# Topology uot, (4)-cn, num edge types: 1
# Building blocks:
#     Node 0, Type 0, BuildingBlock: NAHDIM_clean_sbu_0, # of connection points: 4
#     Node 1, Type 0, BuildingBlock: NAHDIM_clean_sbu_0, # of connection points: 4
#     Node 2, Type 0, BuildingBlock: NAHDIM_clean_sbu_0, # of connection points: 4
#     Node 3, Type 0, BuildingBlock: NAHDIM_clean_sbu_0, # of connection points: 4
#     Node 4, Type 0, BuildingBlock: NAHDIM_clean_sbu_0, # of connection points: 4
#     Node 5, Type 0, BuildingBlock: NAHDIM_clean_sbu_0, # of connection points: 4
#     Node 6, Type 0, BuildingBlock: NAHDIM_clean_sbu_0, # of connection points: 4
#     Node 7, Type 0, BuildingBlock: NAHDIM_clean_sbu_0, # of connection points: 4
#     Node 8, Type 0, BuildingBlock: NAHDIM_clean_sbu_0, # of connection points: 4
#     Node 9, Type 0, BuildingBlock: NAHDIM_clean_sbu_0, # of connection points: 4
#     Node 10, Type 0, BuildingBlock: NAHDIM_clean_sbu_0, # of connection points: 4
#     Node 11, Type 0, BuildingBlock: NAHDIM_clean_sbu_0, # of connection points: 4
#     Node 12, Type 0, BuildingBlock: NAHDIM_clean_sbu_0, # of connection points: 4
#     Node 13, Type 0, BuildingBlock: NAHDIM_clean_sbu_0, # of connection points: 4
#     Node 14, Type 0, BuildingBlock: NAHDIM_clean_sbu_0, # of connection points: 4
#     Node 15, Type 0, BuildingBlock: NAHDIM_clean_sbu_0, # of connection points: 4
#     Edge 16, Type (0, 0), BuildingBlock: KIFKEQ_clean_linker_1, # of connection points: 2
#     Edge 17, Type (0, 0), BuildingBlock: KIFKEQ_clean_linker_1, # of connection points: 2
#     Edge 18, Type (0, 0), BuildingBlock: KIFKEQ_clean_linker_1, # of connection points: 2
#     Edge 19, Type (0, 0), BuildingBlock: KIFKEQ_clean_linker_1, # of connection points: 2
#     Edge 20, Type (0, 0), BuildingBlock: KIFKEQ_clean_linker_1, # of connection points: 2
#     Edge 21, Type (0, 0), BuildingBlock: KIFKEQ_clean_linker_1, # of connection points: 2
#     Edge 22, Type (0, 0), BuildingBlock: KIFKEQ_clean_linker_1, # of connection points: 2
#     Edge 23, Type (0, 0), BuildingBlock: KIFKEQ_clean_linker_1, # of connection points: 2
#     Edge 24, Type (0, 0), BuildingBlock: KIFKEQ_clean_linker_1, # of connection points: 2
#     Edge 25, Type (0, 0), BuildingBlock: KIFKEQ_clean_linker_1, # of connection points: 2
#     Edge 26, Type (0, 0), BuildingBlock: KIFKEQ_clean_linker_1, # of connection points: 2
#     Edge 27, Type (0, 0), BuildingBlock: KIFKEQ_clean_linker_1, # of connection points: 2
#     Edge 28, Type (0, 0), BuildingBlock: KIFKEQ_clean_linker_1, # of connection points: 2
#     Edge 29, Type (0, 0), BuildingBlock: KIFKEQ_clean_linker_1, # of connection points: 2
#     Edge 30, Type (0, 0), BuildingBlock: KIFKEQ_clean_linker_1, # of connection points: 2
#     Edge 31, Type (0, 0), BuildingBlock: KIFKEQ_clean_linker_1, # of connection points: 2
#     Edge 32, Type (0, 0), BuildingBlock: KIFKEQ_clean_linker_1, # of connection points: 2
#     Edge 33, Type (0, 0), BuildingBlock: KIFKEQ_clean_linker_1, # of connection points: 2
#     Edge 34, Type (0, 0), BuildingBlock: KIFKEQ_clean_linker_1, # of connection points: 2
#     Edge 35, Type (0, 0), BuildingBlock: KIFKEQ_clean_linker_1, # of connection points: 2
#     Edge 36, Type (0, 0), BuildingBlock: KIFKEQ_clean_linker_1, # of connection points: 2
#     Edge 37, Type (0, 0), BuildingBlock: KIFKEQ_clean_linker_1, # of connection points: 2
#     Edge 38, Type (0, 0), BuildingBlock: KIFKEQ_clean_linker_1, # of connection points: 2
#     Edge 39, Type (0, 0), BuildingBlock: KIFKEQ_clean_linker_1, # of connection points: 2
#     Edge 40, Type (0, 0), BuildingBlock: KIFKEQ_clean_linker_1, # of connection points: 2
#     Edge 41, Type (0, 0), BuildingBlock: KIFKEQ_clean_linker_1, # of connection points: 2
#     Edge 42, Type (0, 0), BuildingBlock: KIFKEQ_clean_linker_1, # of connection points: 2
#     Edge 43, Type (0, 0), BuildingBlock: KIFKEQ_clean_linker_1, # of connection points: 2
#     Edge 44, Type (0, 0), BuildingBlock: KIFKEQ_clean_linker_1, # of connection points: 2
#     Edge 45, Type (0, 0), BuildingBlock: KIFKEQ_clean_linker_1, # of connection points: 2
#     Edge 46, Type (0, 0), BuildingBlock: KIFKEQ_clean_linker_1, # of connection points: 2
#     Edge 47, Type (0, 0), BuildingBlock: KIFKEQ_clean_linker_1, # of connection points: 2
# Relax obj value: 0.173
# Max RMSD: 0.206
# Mean RMSD: 0.206
data_MOF--net-uot--node1-NAHDIM_clean_sbu_0--edge1-KIFKEQ_clean_linker_1
_symmetry_space_group_name_H-M    P1
_symmetry_Int_Tables_number       1
_symmetry_cell_setting            triclinic
loop_
_symmetry_equiv_pos_as_xyz
'x, y, z'
_cell_length_a     44.82996
_cell_length_b     44.8057
_cell_length_c     39.924096
_cell_angle_alpha  89.99643
_cell_angle_beta   89.966051
_cell_angle_gamma 90.027667
loop_
_atom_site_label
_atom_site_type_symbol
_atom_site_fract_x
_atom_site_fract_y
_atom_site_fract_z
_atom_type_partial_charge
C0 C 0.26196 0.41556 0.27778 0.0
O1 O 0.23757 0.41013 0.26059 0.0
O2 O 0.18853 0.42281 0.30635 0.0
Zn3 Zn 0.2216 0.4518 0.31619 0.0
O4 O 0.22186 0.45932 0.36587 0.0
C5 C 0.20146 0.49075 0.26306 0.0
O6 O 0.19793 0.46544 0.24691 0.0
O7 O 0.26083 0.4338 0.30214 0.0
C8 C 0.23014 0.48424 0.37791 0.0
O9 O 0.23944 0.50527 0.35747 0.0
C10 C 0.16187 0.43034 0.31299 0.0
O11 O 0.15686 0.4566 0.32652 0.0
O12 O 0.21249 0.49035 0.29237 0.0
C13 C 0.42821 0.73393 0.73035 0.0
O14 O 0.42719 0.75611 0.75182 0.0
O15 O 0.42844 0.80913 0.69957 0.0
Zn16 Zn 0.4585 0.77727 0.6886 0.0
O17 O 0.46571 0.77613 0.63899 0.0
C18 C 0.49675 0.80126 0.73971 0.0
O19 O 0.47109 0.8056 0.75485 0.0
O20 O 0.44171 0.73758 0.70264 0.0
C21 C 0.47899 0.79742 0.62416 0.0
O22 O 0.48789 0.82059 0.64168 0.0
C23 C 0.40952 0.81983 0.67916 0.0
O24 O 0.40873 0.80985 0.64823 0.0
O25 O 0.49707 0.78791 0.71162 0.0
C26 C 0.70758 0.56308 0.31729 0.0
O27 O 0.70684 0.54475 0.34296 0.0
O28 O 0.80492 0.56978 0.30577 0.0
Zn29 Zn 0.76899 0.54361 0.31322 0.0
O30 O 0.76833 0.53216 0.36187 0.0
C31 C 0.78455 0.50798 0.25619 0.0
O32 O 0.78878 0.53436 0.24261 0.0
O33 O 0.7315 0.56551 0.30041 0.0
C34 C 0.79167 0.52024 0.37395 0.0
O35 O 0.81478 0.51596 0.35427 0.0
C36 C 0.80391 0.59756 0.29942 0.0
O37 O 0.77791 0.61095 0.29743 0.0
O38 O 0.77466 0.50643 0.28597 0.0
C39 C 0.5601 0.27451 0.68496 0.0
O40 O 0.54078 0.27489 0.66024 0.0
O41 O 0.57099 0.17729 0.69444 0.0
Zn42 Zn 0.54366 0.21236 0.68736 0.0
O43 O 0.53231 0.21378 0.63861 0.0
C44 C 0.50736 0.19176 0.74195 0.0
O45 O 0.53343 0.18389 0.75411 0.0
O46 O 0.56443 0.25032 0.70087 0.0
C47 C 0.53029 0.18965 0.62204 0.0
O48 O 0.53593 0.16419 0.63707 0.0
C49 C 0.59896 0.17784 0.68935 0.0
O50 O 0.61166 0.20279 0.67956 0.0
O51 O 0.50633 0.20553 0.71415 0.0
C52 C 0.26555 0.58293 0.73079 0.0
O53 O 0.24006 0.59028 0.74476 0.0
O54 O 0.19272 0.57035 0.70215 0.0
Zn55 Zn 0.22792 0.54397 0.69151 0.0
O56 O 0.23134 0.53806 0.64174 0.0
C57 C 0.21013 0.50178 0.74213 0.0
O58 O 0.20614 0.52614 0.75989 0.0
O59 O 0.26587 0.56289 0.70825 0.0
C60 C 0.2116 0.52315 0.62619 0.0
O61 O 0.18889 0.51221 0.64302 0.0
C62 C 0.18054 0.58828 0.68162 0.0
O63 O 0.19116 0.59051 0.65105 0.0
O64 O 0.22056 0.50395 0.71263 0.0
C65 C 0.55826 0.72847 0.30627 0.0
O66 O 0.53102 0.72597 0.31809 0.0
O67 O 0.57475 0.82665 0.29942 0.0
Zn68 Zn 0.54829 0.79252 0.31303 0.0
O69 O 0.54104 0.79418 0.36278 0.0
C70 C 0.50722 0.80643 0.25932 0.0
O71 O 0.53184 0.81134 0.24231 0.0
O72 O 0.56921 0.75429 0.30151 0.0
C73 C 0.51636 0.78557 0.37515 0.0
O74 O 0.49558 0.7752 0.35509 0.0
C75 C 0.59342 0.83881 0.3191 0.0
O76 O 0.59582 0.82896 0.34997 0.0
O77 O 0.50904 0.79703 0.28927 0.0
C78 C 0.72005 0.42926 0.69076 0.0
O79 O 0.71686 0.45534 0.67615 0.0
O80 O 0.81802 0.41244 0.69039 0.0
Zn81 Zn 0.78354 0.43986 0.68123 0.0
O82 O 0.78099 0.44906 0.6321 0.0
C83 C 0.80216 0.47721 0.73549 0.0
O84 O 0.80487 0.45129 0.75058 0.0
O85 O 0.74612 0.41929 0.69619 0.0
C86 C 0.80223 0.46318 0.6182 0.0
O87 O 0.82544 0.47096 0.6363 0.0
C88 C 0.82957 0.39443 0.66951 0.0
O89 O 0.81877 0.39282 0.63899 0.0
O90 O 0.79154 0.47801 0.70601 0.0
C91 C 0.42094 0.25969 0.27649 0.0
O92 O 0.42612 0.24259 0.25041 0.0
O93 O 0.42019 0.17806 0.30889 0.0
Zn94 Zn 0.44925 0.21192 0.31535 0.0
O95 O 0.46273 0.2123 0.36345 0.0
C96 C 0.48292 0.18977 0.25907 0.0
O97 O 0.45626 0.18249 0.24813 0.0
O98 O 0.42948 0.25122 0.30531 0.0
C99 C 0.46114 0.18896 0.38146 0.0
O100 O 0.45044 0.16427 0.36841 0.0
C101 C 0.39197 0.18034 0.30733 0.0
O102 O 0.37948 0.20677 0.30973 0.0
O103 O 0.48527 0.20393 0.28654 0.0
C104 C 0.78854 0.93227 0.82057 0.0
O105 O 0.7825 0.94291 0.85046 0.0
O106 O 0.69724 0.92418 0.79784 0.0
Zn107 Zn 0.72943 0.95469 0.80595 0.0
O108 O 0.72612 0.96839 0.85388 0.0
C109 C 0.70657 0.98948 0.75001 0.0
O110 O 0.6971 0.96349 0.7391 0.0
O111 O 0.76956 0.93556 0.79719 0.0
C112 C 0.73446 0.99446 0.86225 0.0
O113 O 0.74583 0.01222 0.83937 0.0
C114 C 0.67047 0.93059 0.80542 0.0
O115 O 0.66466 0.9569 0.81842 0.0
O116 O 0.722 0.99057 0.77666 0.0
C117 C 0.9222 0.24616 0.21095 0.0
O118 O 0.92416 0.2656 0.23547 0.0
O119 O 0.91921 0.3241 0.18495 0.0
Zn120 Zn 0.95004 0.29338 0.1729 0.0
O121 O 0.95985 0.29625 0.12386 0.0
C122 C 0.98571 0.31454 0.22807 0.0
O123 O 0.95939 0.31982 0.24126 0.0
O124 O 0.93293 0.2528 0.18244 0.0
C125 C 0.98391 0.2849 0.11289 0.0
O126 O 0.00192 0.2714 0.13396 0.0
C127 C 0.90081 0.33563 0.1645 0.0
O128 O 0.90131 0.32741 0.13292 0.0
O129 O 0.98725 0.30211 0.19949 0.0
C130 C 0.22055 0.0497 0.80587 0.0
O131 O 0.21567 0.02292 0.81812 0.0
O132 O 0.31961 0.06109 0.81279 0.0
Zn133 Zn 0.28278 0.03616 0.8193 0.0
O134 O 0.27861 0.02698 0.86825 0.0
C135 C 0.29796 0.99806 0.76419 0.0
O136 O 0.30231 0.02381 0.7492 0.0
O137 O 0.24717 0.05916 0.80339 0.0
C138 C 0.30093 0.01588 0.88335 0.0
O139 O 0.32552 0.01075 0.86637 0.0
C140 C 0.3193 0.0894 0.81458 0.0
O141 O 0.29408 0.10318 0.821 0.0
O142 O 0.28826 0.99784 0.7941 0.0
C143 C 0.05334 0.778 0.18995 0.0
O144 O 0.03488 0.77773 0.1644 0.0
O145 O 0.06841 0.68141 0.20247 0.0
Zn146 Zn 0.04084 0.71506 0.18968 0.0
O147 O 0.03609 0.71641 0.13964 0.0
C148 C 0.99825 0.69588 0.23911 0.0
O149 O 0.02258 0.69023 0.25632 0.0
O150 O 0.05854 0.7538 0.20549 0.0
C151 C 0.02092 0.69663 0.12449 0.0
O152 O 0.00874 0.67493 0.1419 0.0
C153 C 0.08812 0.67087 0.18287 0.0
O154 O 0.09106 0.68221 0.1527 0.0
O155 O 0.00059 0.70761 0.21026 0.0
C156 C 0.76003 0.09417 0.21131 0.0
O157 O 0.73521 0.10099 0.22704 0.0
O158 O 0.68678 0.08371 0.18145 0.0
Zn159 Zn 0.72088 0.05511 0.17465 0.0
O160 O 0.72352 0.04375 0.12611 0.0
C161 C 0.70177 0.01858 0.23032 0.0
O162 O 0.69759 0.04453 0.24491 0.0
O163 O 0.75943 0.0744 0.1885 0.0
C164 C 0.71796 0.06211 0.10269 0.0
O165 O 0.71031 0.0896 0.11027 0.0
C166 C 0.66027 0.07483 0.17625 0.0
O167 O 0.65589 0.04736 0.1658 0.0
O168 O 0.71259 0.01782 0.20092 0.0
C169 C 0.06604 0.20947 0.80374 0.0
O170 O 0.04579 0.20979 0.82754 0.0
O171 O 0.08134 0.30617 0.79137 0.0
Zn172 Zn 0.0535 0.27235 0.80254 0.0
O173 O 0.04561 0.27173 0.85211 0.0
C174 C 0.01389 0.28888 0.74893 0.0
O175 O 0.03906 0.29268 0.73259 0.0
O176 O 0.07237 0.23364 0.78867 0.0
C177 C 0.03321 0.29387 0.86629 0.0
O178 O 0.026 0.31728 0.8482 0.0
C179 C 0.10107 0.31575 0.81154 0.0
O180 O 0.1039 0.30309 0.84105 0.0
O181 O 0.01466 0.27925 0.77885 0.0
C182 C 0.20812 0.93738 0.20108 0.0
O183 O 0.20433 0.96392 0.18774 0.0
O184 O 0.30698 0.92508 0.20458 0.0
Zn185 Zn 0.2713 0.95043 0.19339 0.0
O186 O 0.27084 0.95859 0.14396 0.0
C187 C 0.2868 0.99077 0.24649 0.0
O188 O 0.29378 0.96572 0.2617 0.0
O189 O 0.23441 0.92795 0.20638 0.0
C190 C 0.29291 0.97227 0.13117 0.0
O191 O 0.31506 0.98046 0.15067 0.0
C192 C 0.31788 0.90589 0.18457 0.0
O193 O 0.30556 0.90208 0.15503 0.0
O194 O 0.27526 0.98963 0.21746 0.0
C195 C 0.94326 0.77234 0.81251 0.0
O196 O 0.96691 0.773 0.83192 0.0
O197 O 0.92382 0.67566 0.80276 0.0
Zn198 Zn 0.95305 0.70826 0.81348 0.0
O199 O 0.9608 0.70725 0.86317 0.0
C200 C 0.99244 0.68896 0.75989 0.0
O201 O 0.96734 0.68351 0.74406 0.0
O202 O 0.93432 0.74746 0.80098 0.0
C203 C 0.98658 0.71215 0.87523 0.0
O204 O 0.00866 0.71866 0.85485 0.0
C205 C 0.92969 0.64887 0.81079 0.0
O206 O 0.95508 0.64295 0.82582 0.0
O207 O 0.99153 0.70048 0.78895 0.0
H208 H 0.31667 0.42194 0.30732 0.0
H209 H 0.26877 0.36837 0.23516 0.0
H210 H 0.35923 0.38831 0.30305 0.0
H211 H 0.31086 0.33432 0.23168 0.0
H212 H 0.39632 0.28336 0.21951 0.0
H213 H 0.36178 0.32534 0.21555 0.0
H214 H 0.3685 0.33868 0.3225 0.0
H215 H 0.40345 0.29751 0.32629 0.0
C216 C 0.31532 0.40316 0.29031 0.0
C217 C 0.28919 0.39764 0.27189 0.0
C218 C 0.33966 0.38379 0.28799 0.0
C219 C 0.33835 0.35837 0.26736 0.0
C220 C 0.3128 0.35379 0.2476 0.0
C221 C 0.28854 0.37325 0.24976 0.0
C222 C 0.39074 0.29556 0.24207 0.0
C223 C 0.40246 0.28692 0.27324 0.0
C224 C 0.37082 0.31952 0.23983 0.0
C225 C 0.3622 0.33531 0.26872 0.0
C226 C 0.37491 0.32735 0.29964 0.0
C227 C 0.39482 0.30352 0.30186 0.0
H228 H 0.41762 0.68857 0.68627 0.0
H229 H 0.39708 0.71817 0.78668 0.0
H230 H 0.38142 0.64862 0.69168 0.0
H231 H 0.36147 0.67733 0.79261 0.0
H232 H 0.27003 0.63472 0.7664 0.0
H233 H 0.31314 0.66733 0.77091 0.0
H234 H 0.36631 0.60304 0.71654 0.0
H235 H 0.32272 0.57088 0.71094 0.0
C236 C 0.40587 0.68614 0.70983 0.0
C237 C 0.40995 0.70683 0.73587 0.0
C238 C 0.38519 0.66302 0.71304 0.0
C239 C 0.36824 0.65984 0.7425 0.0
C240 C 0.37368 0.67947 0.76932 0.0
C241 C 0.39424 0.70278 0.76601 0.0
C242 C 0.29101 0.62732 0.75582 0.0
C243 C 0.29283 0.60041 0.73789 0.0
C244 C 0.31587 0.64597 0.75861 0.0
C245 C 0.34322 0.638 0.7438 0.0
C246 C 0.34545 0.61019 0.72763 0.0
C247 C 0.3205 0.59167 0.72457 0.0
H248 H 0.54374 0.66985 0.31755 0.0
H249 H 0.61605 0.72676 0.28502 0.0
H250 H 0.57695 0.6267 0.31512 0.0
H251 H 0.64923 0.68405 0.28349 0.0
H252 H 0.70053 0.60099 0.26425 0.0
H253 H 0.66147 0.63808 0.25626 0.0
H254 H 0.61863 0.60847 0.34741 0.0
H255 H 0.65716 0.5708 0.35483 0.0
C256 C 0.56662 0.67314 0.30963 0.0
C257 C 0.57729 0.70179 0.30172 0.0
C258 C 0.58569 0.64844 0.30841 0.0
C259 C 0.61581 0.6519 0.29927 0.0
C260 C 0.6261 0.68042 0.29019 0.0
C261 C 0.60707 0.70503 0.29132 0.0
C262 C 0.68254 0.60211 0.28233 0.0
C263 C 0.68213 0.58316 0.31038 0.0
C264 C 0.66022 0.62348 0.27784 0.0
C265 C 0.63709 0.62653 0.3014 0.0
C266 C 0.63593 0.60659 0.32859 0.0
C267 C 0.65816 0.58509 0.33297 0.0
H268 H 0.59788 0.2834 0.73775 0.0
H269 H 0.56537 0.32511 0.64729 0.0
H270 H 0.63328 0.32412 0.74533 0.0
H271 H 0.60143 0.3652 0.65413 0.0
H272 H 0.66093 0.44196 0.6803 0.0
H273 H 0.61877 0.40766 0.68473 0.0
H274 H 0.67839 0.33808 0.71846 0.0
H275 H 0.72005 0.37242 0.71514 0.0
C276 C 0.59815 0.30137 0.7196 0.0
C277 C 0.57906 0.30085 0.69171 0.0
C278 C 0.61854 0.32465 0.72385 0.0
C279 C 0.62052 0.34778 0.70012 0.0
C280 C 0.60038 0.34796 0.67311 0.0
C281 C 0.57979 0.32483 0.66904 0.0
C282 C 0.6649 0.41947 0.68918 0.0
C283 C 0.6939 0.40986 0.69706 0.0
C284 C 0.64077 0.39976 0.69153 0.0
C285 C 0.64516 0.37001 0.7017 0.0
C286 C 0.67401 0.36089 0.71097 0.0
C287 C 0.69803 0.38059 0.7088 0.0
H288 H 0.83068 0.91719 0.86684 0.0
H289 H 0.80732 0.90523 0.76268 0.0
H290 H 0.87136 0.88186 0.8605 0.0
H291 H 0.84868 0.87031 0.75612 0.0
H292 H 0.89183 0.77766 0.77637 0.0
H293 H 0.85797 0.81995 0.77479 0.0
H294 H 0.91921 0.87102 0.83564 0.0
H295 H 0.95288 0.8283 0.83793 0.0
C296 C 0.83455 0.90744 0.8424 0.0
C297 C 0.81551 0.91378 0.81537 0.0
C298 C 0.85807 0.8873 0.8387 0.0
C299 C 0.86322 0.87309 0.80783 0.0
C300 C 0.84504 0.88052 0.78036 0.0
C301 C 0.82142 0.90064 0.78409 0.0
C302 C 0.89831 0.79802 0.78907 0.0
C303 C 0.9249 0.79945 0.80764 0.0
C304 C 0.87895 0.8224 0.78795 0.0
C305 C 0.88575 0.84884 0.8053 0.0
C306 C 0.91308 0.8508 0.82245 0.0
C307 C 0.93246 0.82637 0.82361 0.0
H308 H 0.81562 0.08445 0.18521 0.0
H309 H 0.76653 0.14373 0.25041 0.0
H310 H 0.85919 0.1168 0.18953 0.0
H311 H 0.80966 0.17648 0.2539 0.0
H312 H 0.89528 0.22546 0.26795 0.0
H313 H 0.85988 0.18431 0.27267 0.0
H314 H 0.87167 0.16485 0.16745 0.0
H315 H 0.90757 0.20524 0.163 0.0
C316 C 0.8142 0.10425 0.20069 0.0
C317 C 0.7875 0.11171 0.21716 0.0
C318 C 0.83913 0.12286 0.20304 0.0
C319 C 0.83786 0.14942 0.22176 0.0
C320 C 0.81159 0.15606 0.23955 0.0
C321 C 0.78674 0.13736 0.23736 0.0
C322 C 0.89068 0.21205 0.24597 0.0
C323 C 0.90399 0.21884 0.21501 0.0
C324 C 0.87026 0.18858 0.24864 0.0
C325 C 0.86265 0.17146 0.22037 0.0
C326 C 0.87719 0.17732 0.18984 0.0
C327 C 0.89768 0.20067 0.18722 0.0
H328 H 0.10598 0.19972 0.7532 0.0
H329 H 0.06697 0.15803 0.84046 0.0
H330 H 0.14033 0.15791 0.74739 0.0
H331 H 0.10192 0.11676 0.83534 0.0
H332 H 0.16059 0.03849 0.81133 0.0
H333 H 0.11978 0.0741 0.80465 0.0
H334 H 0.18334 0.14275 0.77822 0.0
H335 H 0.22376 0.10721 0.78391 0.0
C336 C 0.10456 0.1815 0.77097 0.0
C337 C 0.08402 0.18237 0.79755 0.0
C338 C 0.12434 0.1576 0.76774 0.0
C339 C 0.1242 0.13417 0.79118 0.0
C340 C 0.10252 0.13427 0.81666 0.0
C341 C 0.08257 0.15807 0.81974 0.0
C342 C 0.16575 0.06108 0.8036 0.0
C343 C 0.19545 0.07007 0.79844 0.0
C344 C 0.14239 0.08152 0.79994 0.0
C345 C 0.14826 0.11134 0.79107 0.0
C346 C 0.17788 0.1199 0.7846 0.0
C347 C 0.20116 0.09952 0.78814 0.0
H348 H 0.20937 0.88013 0.22411 0.0
H349 H 0.14882 0.94867 0.18987 0.0
H350 H 0.16854 0.84472 0.22633 0.0
H351 H 0.1075 0.91324 0.1931 0.0
H352 H 0.05715 0.82934 0.1533 0.0
H353 H 0.09173 0.87054 0.16143 0.0
H354 H 0.12338 0.8296 0.25278 0.0
H355 H 0.08945 0.78783 0.24398 0.0
C356 C 0.1872 0.88782 0.21763 0.0
C357 C 0.18243 0.91717 0.20644 0.0
C358 C 0.16366 0.86751 0.21918 0.0
C359 C 0.13468 0.87605 0.20978 0.0
C360 C 0.12963 0.90581 0.20004 0.0
C361 C 0.15328 0.92616 0.19836 0.0
C362 C 0.07116 0.82933 0.17539 0.0
C363 C 0.07089 0.80509 0.19771 0.0
C364 C 0.0909 0.8531 0.18018 0.0
C365 C 0.11063 0.85325 0.20757 0.0
C366 C 0.10896 0.82988 0.23103 0.0
C367 C 0.08941 0.806 0.22608 0.0
H368 H 0.19911 0.54547 0.29322 0.0
H369 H 0.17581 0.49954 0.20168 0.0
H370 H 0.17423 0.5903 0.27286 0.0
H371 H 0.1507 0.54438 0.18151 0.0
H372 H 0.12835 0.63907 0.14555 0.0
H373 H 0.15897 0.59697 0.1637 0.0
H374 H 0.12144 0.60373 0.26307 0.0
H375 H 0.09108 0.64584 0.24513 0.0
C376 C 0.18895 0.545 0.26861 0.0
C377 C 0.18927 0.51884 0.24916 0.0
C378 C 0.17454 0.57065 0.25706 0.0
C379 C 0.16027 0.57077 0.22573 0.0
C380 C 0.16165 0.54503 0.20567 0.0
C381 C 0.17594 0.5193 0.2173 0.0
C382 C 0.12674 0.63166 0.17131 0.0
C383 C 0.10724 0.64578 0.19388 0.0
C384 C 0.14419 0.60747 0.18164 0.0
C385 C 0.14267 0.59709 0.21482 0.0
C386 C 0.12343 0.61147 0.23746 0.0
C387 C 0.10586 0.63548 0.2271 0.0
H388 H 0.55138 0.80514 0.70939 0.0
H389 H 0.50401 0.83008 0.79943 0.0
H390 H 0.59422 0.83437 0.72758 0.0
H391 H 0.54715 0.85869 0.81803 0.0
H392 H 0.61078 0.93904 0.81492 0.0
H393 H 0.5703 0.90492 0.80154 0.0
H394 H 0.63422 0.83932 0.76774 0.0
H395 H 0.6748 0.87383 0.78039 0.0
C396 C 0.55031 0.81638 0.73337 0.0
C397 C 0.52416 0.8155 0.75281 0.0
C398 C 0.57494 0.83308 0.74388 0.0
C399 C 0.57402 0.84915 0.77412 0.0
C400 C 0.54837 0.84708 0.79428 0.0
C401 C 0.52371 0.83049 0.78372 0.0
C402 C 0.61625 0.91729 0.80479 0.0
C403 C 0.64602 0.90922 0.79861 0.0
C404 C 0.59302 0.89761 0.79734 0.0
C405 C 0.59899 0.86932 0.78363 0.0
C406 C 0.62882 0.86106 0.77792 0.0
C407 C 0.65208 0.8808 0.78531 0.0
H408 H 0.86264 0.36982 0.127 0.0
H409 H 0.8914 0.35383 0.22876 0.0
H410 H 0.82966 0.40957 0.14681 0.0
H411 H 0.85889 0.39354 0.24831 0.0
H412 H 0.78212 0.45052 0.27901 0.0
H413 H 0.80615 0.40681 0.25477 0.0
H414 H 0.83617 0.46004 0.17107 0.0
H415 H 0.81175 0.50373 0.19501 0.0
C416 C 0.86181 0.37465 0.15357 0.0
C417 C 0.87973 0.35875 0.17628 0.0
C418 C 0.84302 0.39747 0.16487 0.0
C419 C 0.84162 0.40464 0.19912 0.0
C420 C 0.85909 0.38828 0.22183 0.0
C421 C 0.87794 0.36565 0.21056 0.0
C422 C 0.79343 0.45284 0.25517 0.0
C423 C 0.79532 0.48071 0.23914 0.0
C424 C 0.80733 0.42781 0.24138 0.0
C425 C 0.82339 0.43008 0.21125 0.0
C426 C 0.82384 0.45754 0.19424 0.0
C427 C 0.80995 0.48262 0.20806 0.0
H428 H 0.50172 0.15486 0.7961 0.0
H429 H 0.44996 0.20448 0.72373 0.0
H430 H 0.45606 0.13244 0.81785 0.0
H431 H 0.40439 0.18183 0.74535 0.0
H432 H 0.32541 0.14992 0.80792 0.0
H433 H 0.37087 0.17776 0.79491 0.0
H434 H 0.42093 0.09542 0.79391 0.0
H435 H 0.37575 0.06766 0.80711 0.0
C436 C 0.4806 0.16129 0.78511 0.0
C437 C 0.4795 0.18123 0.75796 0.0
C438 C 0.45447 0.14832 0.79747 0.0
C439 C 0.4267 0.15516 0.78309 0.0
C440 C 0.42545 0.17625 0.75708 0.0
C441 C 0.45158 0.18911 0.74459 0.0
C442 C 0.34617 0.1378 0.80518 0.0
C443 C 0.34695 0.10657 0.80838 0.0
C444 C 0.37215 0.15374 0.79762 0.0
C445 C 0.39945 0.13878 0.79343 0.0
C446 C 0.40031 0.10764 0.79743 0.0
C447 C 0.37435 0.0917 0.80473 0.0
H448 H 0.20967 0.44842 0.70895 0.0
H449 H 0.18519 0.48927 0.80313 0.0
H450 H 0.18631 0.40193 0.72675 0.0
H451 H 0.16155 0.44277 0.82071 0.0
H452 H 0.14087 0.34618 0.85082 0.0
H453 H 0.17091 0.38959 0.83532 0.0
H454 H 0.1339 0.38685 0.73551 0.0
H455 H 0.10415 0.34348 0.75078 0.0
C456 C 0.19959 0.44742 0.7336 0.0
C457 C 0.19908 0.47266 0.75452 0.0
C458 C 0.18606 0.42082 0.74369 0.0
C459 C 0.17183 0.4188 0.77497 0.0
C460 C 0.17249 0.44359 0.79653 0.0
C461 C 0.18592 0.47027 0.78638 0.0
C462 C 0.13929 0.35475 0.82552 0.0
C463 C 0.12007 0.34141 0.80205 0.0
C464 C 0.1564 0.37967 0.81671 0.0
C465 C 0.15482 0.39158 0.78419 0.0
C466 C 0.13593 0.37794 0.76063 0.0
C467 C 0.11872 0.3532 0.76947 0.0
H468 H 0.3511 0.86795 0.14577 0.0
H469 H 0.34478 0.90431 0.24581 0.0
H470 H 0.39561 0.84002 0.16221 0.0
H471 H 0.38917 0.87665 0.26201 0.0
H472 H 0.45293 0.8036 0.29026 0.0
H473 H 0.40592 0.82462 0.27086 0.0
H474 H 0.44815 0.85182 0.17852 0.0
H475 H 0.49525 0.83054 0.19773 0.0
C476 C 0.35912 0.86991 0.17126 0.0
C477 C 0.34442 0.88838 0.19447 0.0
C478 C 0.38465 0.854 0.1806 0.0
C479 C 0.39579 0.85605 0.21342 0.0
C480 C 0.38087 0.87426 0.23668 0.0
C481 C 0.35554 0.89029 0.2273 0.0
C482 C 0.45216 0.8137 0.26562 0.0
C483 C 0.47795 0.81567 0.24568 0.0
C484 C 0.42524 0.82589 0.25461 0.0
C485 C 0.42345 0.84019 0.22336 0.0
C486 C 0.44882 0.84082 0.20267 0.0
C487 C 0.47583 0.82873 0.21374 0.0
H488 H 0.82801 0.48316 0.79716 0.0
H489 H 0.80749 0.53242 0.707 0.0
H490 H 0.85608 0.52578 0.81834 0.0
H491 H 0.83615 0.57464 0.72775 0.0
H492 H 0.87403 0.65392 0.78332 0.0
H493 H 0.83961 0.61383 0.76879 0.0
H494 H 0.90321 0.5489 0.80486 0.0
H495 H 0.93724 0.58896 0.82017 0.0
C496 C 0.82923 0.50317 0.782 0.0
C497 C 0.8157 0.5043 0.75028 0.0
C498 C 0.84552 0.52752 0.79403 0.0
C499 C 0.84868 0.55351 0.77458 0.0
C500 C 0.83398 0.5551 0.74353 0.0
C501 C 0.81762 0.5308 0.73156 0.0
C502 C 0.8806 0.63109 0.78831 0.0
C503 C 0.90844 0.62462 0.80278 0.0
C504 C 0.8609 0.60811 0.77987 0.0
C505 C 0.86863 0.57813 0.78561 0.0
C506 C 0.89631 0.57174 0.80057 0.0
C507 C 0.91596 0.59472 0.8091 0.0
H508 H 0.60106 0.06079 0.17376 0.0
H509 H 0.66145 0.13331 0.19607 0.0
H510 H 0.55901 0.09179 0.19015 0.0
H511 H 0.61921 0.16468 0.21162 0.0
H512 H 0.54079 0.19309 0.2804 0.0
H513 H 0.58391 0.16769 0.25685 0.0
H514 H 0.52937 0.13454 0.17573 0.0
H515 H 0.48598 0.15929 0.19985 0.0
C516 C 0.60534 0.0835 0.18173 0.0
C517 C 0.63463 0.0945 0.18382 0.0
C518 C 0.58117 0.10138 0.1909 0.0
C519 C 0.58569 0.13076 0.20225 0.0
C520 C 0.61496 0.14203 0.20345 0.0
C521 C 0.63916 0.12409 0.19438 0.0
C522 C 0.53805 0.18072 0.25729 0.0
C523 C 0.50986 0.17796 0.2422 0.0
C524 C 0.56285 0.16625 0.24367 0.0
C525 C 0.56008 0.14882 0.21454 0.0
C526 C 0.53217 0.1473 0.19856 0.0
C527 C 0.50733 0.16166 0.21227 0.0
H528 H 0.72208 0.04678 0.76607 0.0
H529 H 0.66533 0.99556 0.70005 0.0
H530 H 0.69802 0.09262 0.74733 0.0
H531 H 0.64149 0.0415 0.68118 0.0
H532 H 0.57835 0.12151 0.70075 0.0
H533 H 0.60729 0.07644 0.71047 0.0
H534 H 0.6889 0.12661 0.69867 0.0
H535 H 0.65985 0.17204 0.68905 0.0
C536 C 0.70485 0.04533 0.74711 0.0
C537 C 0.69539 0.01747 0.73482 0.0
C538 C 0.69117 0.07163 0.73628 0.0
C539 C 0.66765 0.07061 0.71307 0.0
C540 C 0.65926 0.04291 0.69948 0.0
C541 C 0.67306 0.01662 0.71016 0.0
C542 C 0.60246 0.12299 0.70008 0.0
C543 C 0.6168 0.15041 0.69429 0.0
C544 C 0.61905 0.09707 0.70536 0.0
C545 C 0.65037 0.09796 0.70517 0.0
C546 C 0.66478 0.1253 0.6991 0.0
C547 C 0.64815 0.15127 0.69352 0.0
H548 H 0.16448 0.37405 0.28649 0.0
H549 H 0.10235 0.44176 0.31927 0.0
H550 H 0.12287 0.34236 0.2696 0.0
H551 H 0.06089 0.4105 0.30161 0.0
H552 H 0.99049 0.34048 0.28974 0.0
H553 H 0.03392 0.36533 0.31356 0.0
H554 H 0.08557 0.34147 0.22614 0.0
H555 H 0.04241 0.31593 0.20276 0.0
C556 C 0.14195 0.38215 0.29016 0.0
C557 C 0.13672 0.41048 0.30413 0.0
C558 C 0.11811 0.36404 0.28034 0.0
C559 C 0.08853 0.37388 0.28419 0.0
C560 C 0.08336 0.40199 0.29875 0.0
C561 C 0.10716 0.42004 0.30867 0.0
C562 C 0.01123 0.34019 0.2758 0.0
C563 C 0.01292 0.32645 0.24422 0.0
C564 C 0.03608 0.3546 0.28937 0.0
C565 C 0.06314 0.35572 0.27159 0.0
C566 C 0.06517 0.34084 0.24066 0.0
C567 C 0.04035 0.32629 0.22716 0.0
H568 H 0.29523 0.94167 0.79009 0.0
H569 H 0.32423 0.99092 0.70282 0.0
H570 H 0.31824 0.89665 0.76769 0.0
H571 H 0.3476 0.94589 0.68069 0.0
H572 H 0.37123 0.85315 0.64084 0.0
H573 H 0.33954 0.89444 0.65928 0.0
H574 H 0.37079 0.88236 0.7607 0.0
H575 H 0.40206 0.84114 0.74252 0.0
C576 C 0.30619 0.94284 0.76594 0.0
C577 C 0.30821 0.96998 0.74843 0.0
C578 C 0.3195 0.91706 0.7532 0.0
C579 C 0.33506 0.91783 0.72265 0.0
C580 C 0.33564 0.94455 0.70422 0.0
C581 C 0.32236 0.97039 0.717 0.0
C582 C 0.37112 0.85918 0.6671 0.0
C583 C 0.38924 0.84394 0.69019 0.0
C584 C 0.35307 0.88288 0.67761 0.0
C585 C 0.35261 0.89159 0.71144 0.0
C586 C 0.37029 0.87592 0.73456 0.0
C587 C 0.38841 0.85242 0.72406 0.0
H588 H 0.86096 0.57704 0.30539 0.0
H589 H 0.81024 0.65593 0.28019 0.0
H590 H 0.90706 0.6037 0.29362 0.0
H591 H 0.85661 0.68277 0.26879 0.0
H592 H 0.94393 0.7026 0.20888 0.0
H593 H 0.89644 0.68102 0.22616 0.0
H594 H 0.93835 0.6446 0.31455 0.0
H595 H 0.98599 0.66581 0.2971 0.0
C596 C 0.85963 0.60016 0.29757 0.0
C597 C 0.83189 0.61432 0.29359 0.0
C598 C 0.88611 0.61551 0.29107 0.0
C599 C 0.88549 0.64537 0.28035 0.0
C600 C 0.85778 0.6597 0.27676 0.0
C601 C 0.83124 0.64435 0.28341 0.0
C602 C 0.94297 0.69028 0.2322 0.0
C603 C 0.96882 0.68571 0.25146 0.0
C604 C 0.9157 0.67804 0.24218 0.0
C605 C 0.9137 0.66091 0.27159 0.0
C606 C 0.9393 0.65731 0.2915 0.0
C607 C 0.96655 0.66962 0.28158 0.0
H608 H 0.70262 0.96222 0.20427 0.0
H609 H 0.67529 0.01215 0.29171 0.0
H610 H 0.67921 0.9176 0.22717 0.0
H611 H 0.6516 0.96744 0.31442 0.0
H612 H 0.63154 0.87372 0.35573 0.0
H613 H 0.66124 0.91599 0.33595 0.0
H614 H 0.62658 0.90316 0.23607 0.0
H615 H 0.59718 0.86095 0.2556 0.0
C616 C 0.69189 0.96364 0.22854 0.0
C617 C 0.69059 0.99083 0.24604 0.0
C618 C 0.67834 0.93809 0.24155 0.0
C619 C 0.6633 0.93911 0.27241 0.0
C620 C 0.66317 0.96594 0.29065 0.0
C621 C 0.67663 0.99157 0.27757 0.0
C622 C 0.63038 0.87986 0.32953 0.0
C623 C 0.61197 0.86401 0.30725 0.0
C624 C 0.6473 0.90412 0.31826 0.0
C625 C 0.64631 0.91281 0.28446 0.0
C626 C 0.62815 0.89673 0.26216 0.0
C627 C 0.61113 0.87266 0.27343 0.0
H628 H 0.85372 0.38957 0.73187 0.0
H629 H 0.8636 0.35732 0.63041 0.0
H630 H 0.89681 0.36046 0.74888 0.0
H631 H 0.90682 0.32776 0.64772 0.0
H632 H 0.00464 0.3149 0.68776 0.0
H633 H 0.95866 0.33745 0.66708 0.0
H634 H 0.91256 0.30842 0.75637 0.0
H635 H 0.9585 0.28627 0.77729 0.0
C636 C 0.86497 0.3761 0.7132 0.0
C637 C 0.85525 0.37582 0.67974 0.0
C638 C 0.88956 0.35921 0.72304 0.0
C639 C 0.90512 0.34168 0.69968 0.0
C640 C 0.89535 0.3412 0.66623 0.0
C641 C 0.87055 0.35803 0.65637 0.0
C642 C 0.98461 0.31299 0.70278 0.0
C643 C 0.98533 0.2991 0.73435 0.0
C644 C 0.95823 0.32579 0.69085 0.0
C645 C 0.93209 0.32499 0.71028 0.0
C646 C 0.93249 0.30985 0.7411 0.0
C647 C 0.9588 0.29703 0.75299 0.0
H648 H 0.33208 0.17689 0.29388 0.0
H649 H 0.41042 0.12244 0.30951 0.0
H650 H 0.30261 0.13183 0.28354 0.0
H651 H 0.38114 0.07775 0.29897 0.0
H652 H 0.31805 0.00067 0.30419 0.0
H653 H 0.34033 0.04744 0.32283 0.0
H654 H 0.30054 0.09317 0.23877 0.0
H655 H 0.27795 0.0465 0.22026 0.0
C656 C 0.34296 0.15535 0.29531 0.0
C657 C 0.37361 0.15325 0.30237 0.0
C658 C 0.32611 0.12959 0.28928 0.0
C659 C 0.33954 0.10126 0.29055 0.0
C660 C 0.37003 0.09921 0.2983 0.0
C661 C 0.38687 0.12488 0.30405 0.0
C662 C 0.31362 0.02077 0.28997 0.0
C663 C 0.29651 0.01977 0.26051 0.0
C664 C 0.32653 0.04753 0.30057 0.0
C665 C 0.32249 0.07389 0.28203 0.0
C666 C 0.30395 0.07326 0.25368 0.0
C667 C 0.29112 0.04647 0.24299 0.0
H668 H 0.14477 0.62369 0.64265 0.0
H669 H 0.15661 0.5926 0.74427 0.0
H670 H 0.10041 0.6514 0.66001 0.0
H671 H 0.1123 0.61997 0.7614 0.0
H672 H 0.04762 0.69293 0.78861 0.0
H673 H 0.09417 0.67145 0.76839 0.0
H674 H 0.04913 0.63962 0.67971 0.0
H675 H 0.00251 0.6614 0.69972 0.0
C676 C 0.138 0.62285 0.66868 0.0
C677 C 0.15419 0.60589 0.69206 0.0
C678 C 0.11252 0.63861 0.67856 0.0
C679 C 0.10289 0.63792 0.71207 0.0
C680 C 0.11936 0.6213 0.73549 0.0
C681 C 0.14466 0.60542 0.7256 0.0
C682 C 0.04766 0.68166 0.76461 0.0
C683 C 0.02126 0.67868 0.7459 0.0
C684 C 0.07433 0.66921 0.75313 0.0
C685 C 0.07526 0.65359 0.72262 0.0
C686 C 0.04916 0.65168 0.70322 0.0
C687 C 0.02242 0.66405 0.71477 0.0
H688 H 0.17308 0.4929 0.58544 0.0
H689 H 0.25649 0.54132 0.58446 0.0
H690 H 0.17788 0.48375 0.52552 0.0
H691 H 0.26157 0.53161 0.52466 0.0
H692 H 0.24382 0.53562 0.41153 0.0
H693 H 0.23919 0.54527 0.47139 0.0
H694 H 0.20817 0.45499 0.48676 0.0
H695 H 0.21218 0.4455 0.42685 0.0
C696 C 0.19248 0.50152 0.57248 0.0
C697 C 0.2144 0.51783 0.58974 0.0
C698 C 0.19533 0.49611 0.53816 0.0
C699 C 0.22016 0.50687 0.52032 0.0
C700 C 0.242 0.52331 0.53757 0.0
C701 C 0.23915 0.52873 0.5719 0.0
C702 C 0.23607 0.5178 0.42768 0.0
C703 C 0.22832 0.48981 0.41439 0.0
C704 C 0.23356 0.5233 0.46203 0.0
C705 C 0.22325 0.50092 0.48386 0.0
C706 C 0.21575 0.47285 0.47058 0.0
C707 C 0.21825 0.46735 0.43624 0.0
H708 H 0.5545 0.80574 0.42362 0.0
H709 H 0.46596 0.76974 0.40925 0.0
H710 H 0.5455 0.80865 0.48377 0.0
H711 H 0.4568 0.77321 0.46926 0.0
H712 H 0.46361 0.75259 0.58111 0.0
H713 H 0.47296 0.74983 0.52112 0.0
H714 H 0.51548 0.83634 0.52432 0.0
H715 H 0.50664 0.83889 0.58455 0.0
C716 C 0.53309 0.79854 0.43326 0.0
C717 C 0.51097 0.78745 0.41165 0.0
C718 C 0.52787 0.80039 0.46772 0.0
C719 C 0.50044 0.79117 0.4813 0.0
C720 C 0.47832 0.78012 0.45965 0.0
C721 C 0.48352 0.77828 0.42521 0.0
C722 C 0.47496 0.77105 0.56906 0.0
C723 C 0.4844 0.79597 0.58763 0.0
C724 C 0.48017 0.76952 0.53462 0.0
C725 C 0.49493 0.79288 0.51794 0.0
C726 C 0.50437 0.81781 0.53651 0.0
C727 C 0.49915 0.81935 0.57099 0.0
H728 H 0.83884 0.49608 0.4076 0.0
H729 H 0.74752 0.52459 0.42107 0.0
H730 H 0.84122 0.48176 0.46641 0.0
H731 H 0.7501 0.51064 0.48007 0.0
H732 H 0.75655 0.45241 0.57444 0.0
H733 H 0.75395 0.46578 0.5153 0.0
H734 H 0.84155 0.50559 0.52169 0.0
H735 H 0.84438 0.49187 0.58067 0.0
C736 C 0.81928 0.49935 0.42311 0.0
C737 C 0.79299 0.51149 0.40965 0.0
C738 C 0.82072 0.4913 0.45686 0.0
C739 C 0.79587 0.49512 0.4779 0.0
C740 C 0.76952 0.50712 0.46441 0.0
C741 C 0.7681 0.51526 0.43065 0.0
C742 C 0.77528 0.46397 0.56322 0.0
C743 C 0.80068 0.47107 0.58227 0.0
C744 C 0.77371 0.47178 0.52938 0.0
C745 C 0.79753 0.48676 0.51383 0.0
C746 C 0.82297 0.49374 0.53285 0.0
C747 C 0.82451 0.48602 0.56671 0.0
H748 H 0.49154 0.23344 0.41368 0.0
H749 H 0.45393 0.14564 0.4288 0.0
H750 H 0.50917 0.23376 0.47141 0.0
H751 H 0.47065 0.14636 0.48676 0.0
H752 H 0.53086 0.1433 0.57776 0.0
H753 H 0.51497 0.14356 0.51951 0.0
H754 H 0.4919 0.23693 0.52799 0.0
H755 H 0.50879 0.23689 0.586 0.0
C756 C 0.48685 0.21429 0.4294 0.0
C757 C 0.47141 0.18948 0.41664 0.0
C758 C 0.49682 0.21455 0.46256 0.0
C759 C 0.49138 0.19007 0.48377 0.0
C760 C 0.47571 0.16536 0.471 0.0
C761 C 0.46595 0.16502 0.43779 0.0
C762 C 0.52247 0.16391 0.56718 0.0
C763 C 0.52104 0.19006 0.58651 0.0
C764 C 0.51317 0.16402 0.53381 0.0
C765 C 0.50197 0.19022 0.51906 0.0
C766 C 0.50075 0.21645 0.53839 0.0
C767 C 0.51028 0.21639 0.57171 0.0
H768 H 0.70588 0.09485 0.04643 0.0
H769 H 0.73479 0.0075 0.07894 0.0
H770 H 0.70912 0.07863 0.9882 0.0
H771 H 0.73859 0.99156 0.02083 0.0
H772 H 0.71161 0.96352 0.91541 0.0
H773 H 0.70687 0.98026 0.97322 0.0
H774 H 0.74645 0.06492 0.94648 0.0
H775 H 0.75067 0.04843 0.8885 0.0
C776 C 0.71303 0.07224 0.04117 0.0
C777 C 0.72006 0.05247 0.06733 0.0
C778 C 0.71503 0.063 0.0078 0.0
C779 C 0.72409 0.03379 -0.00011 0.0
C780 C 0.73112 0.01406 0.02608 0.0
C781 C 0.72911 0.02328 0.0594 0.0
C782 C 0.71928 0.98572 0.92184 0.0
C783 C 0.73157 0.00462 0.89736 0.0
C784 C 0.7167 0.99526 0.95502 0.0
C785 C 0.72635 0.0239 0.96447 0.0
C786 C 0.73849 0.04286 0.93994 0.0
C787 C 0.74107 0.03332 0.90674 0.0
H788 H 0.04327 0.24807 0.91005 0.0
H789 H 0.0082 0.33779 0.90467 0.0
H790 H 0.03143 0.24627 0.96955 0.0
H791 H 0.99695 0.33619 0.9644 0.0
H792 H 0.95069 0.30937 0.06243 0.0
H793 H 0.96294 0.31172 0.00301 0.0
H794 H 0.04685 0.26762 0.02255 0.0
H795 H 0.03433 0.26466 0.08185 0.0
C796 C 0.0332 0.26749 0.9216 0.0
C797 C 0.02663 0.29306 0.9026 0.0
C798 C 0.02656 0.26651 0.95577 0.0
C799 C 0.01325 0.29109 0.97175 0.0
C800 C 0.00683 0.31673 0.95277 0.0
C801 C 0.01345 0.3177 0.91856 0.0
C802 C 0.97176 0.30018 0.05406 0.0
C803 C 0.9915 0.28676 0.07687 0.0
C804 C 0.97886 0.30169 0.02001 0.0
C805 C 0.00588 0.28986 0.00802 0.0
C806 C 0.02567 0.27658 0.03089 0.0
C807 C 0.01856 0.27503 0.06493 0.0
H808 H 0.25329 0.02273 0.92553 0.0
H809 H 0.34524 0.99378 0.92316 0.0
H810 H 0.25125 0.01227 0.98545 0.0
H811 H 0.343 0.98294 0.98291 0.0
H812 H 0.33753 -0.00056 0.09593 0.0
H813 H 0.33912 0.00998 0.03608 0.0
H814 H 0.25222 0.96965 0.0242 0.0
H815 H 0.25038 0.95948 0.08419 0.0
C816 C 0.27302 0.01403 0.93775 0.0
C817 C 0.29945 0.00913 0.91958 0.0
C818 C 0.27179 0.0079 0.97204 0.0
C819 C 0.29697 0.99681 0.98891 0.0
C820 C 0.32334 0.99183 0.97071 0.0
C821 C 0.32456 0.99789 0.93642 0.0
C822 C 0.31874 0.99283 0.08059 0.0
C823 C 0.29383 0.97862 0.09483 0.0
C824 C 0.31974 0.99872 0.04625 0.0
C825 C 0.29582 0.9906 0.02541 0.0
C826 C 0.27086 0.97648 0.03967 0.0
C827 C 0.26988 0.97051 0.07401 0.0
H828 H 0.03878 0.72133 0.90907 0.0
H829 H 0.94613 0.69806 0.92404 0.0
H830 H 0.0475 0.71698 0.96913 0.0
H831 H 0.95479 0.69423 0.98415 0.0
H832 H 0.98885 0.65884 0.08458 0.0
H833 H 0.98097 0.66239 0.02428 0.0
H834 H 0.03464 0.74246 0.02129 0.0
H835 H 0.04296 0.73867 0.08145 0.0
C836 C 0.02024 0.71541 0.92517 0.0
C837 C 0.99176 0.71004 0.91176 0.0
C838 C 0.02522 0.71306 0.95962 0.0
C839 C 0.00185 0.70524 0.9814 0.0
C840 C 0.97336 0.69991 0.96798 0.0
C841 C 0.96836 0.7023 0.93355 0.0
C842 C -0.00096 0.67716 0.07105 0.0
C843 C 0.01652 0.69847 0.08783 0.0
C844 C 0.99437 0.67929 0.03653 0.0
C845 C 0.00712 0.70275 0.01802 0.0
C846 C 0.02479 0.72393 0.03477 0.0
C847 C 0.02942 0.72183 0.06929 0.0
loop_
_geom_bond_atom_site_label_1
_geom_bond_atom_site_label_2
_geom_bond_distance
_geom_bond_site_symmetry_2
_ccdc_geom_bond_type
C0 O1 1.160 . S
C0 O7 1.185 . S
O1 C0 1.160 . S
O2 Zn3 1.899 . S
O2 C10 1.284 . S
Zn3 O2 1.899 . S
Zn3 O4 2.032 . S
Zn3 O7 2.086 . S
Zn3 O12 1.977 . S
O4 Zn3 2.032 . S
O4 C8 1.278 . S
C5 O6 1.203 . S
C5 O12 1.267 . S
O6 C5 1.203 . S
O7 C0 1.185 . S
O7 Zn3 2.086 . S
C8 O4 1.278 . S
C8 O9 1.211 . S
O9 C8 1.211 . S
C10 O2 1.284 . S
C10 O11 1.273 . S
O11 C10 1.273 . S
O12 Zn3 1.977 . S
O12 C5 1.267 . S
C13 O14 1.160 . S
C13 O20 1.185 . S
O14 C13 1.160 . S
O15 Zn16 1.899 . S
O15 C23 1.284 . S
Zn16 O15 1.899 . S
Zn16 O17 2.032 . S
Zn16 O20 2.086 . S
Zn16 O25 1.977 . S
O17 Zn16 2.032 . S
O17 C21 1.278 . S
C18 O19 1.203 . S
C18 O25 1.267 . S
O19 C18 1.203 . S
O20 C13 1.185 . S
O20 Zn16 2.086 . S
C21 O17 1.278 . S
C21 O22 1.211 . S
O22 C21 1.211 . S
C23 O15 1.284 . S
C23 O24 1.273 . S
O24 C23 1.273 . S
O25 Zn16 1.977 . S
O25 C18 1.267 . S
C26 O27 1.160 . S
C26 O33 1.185 . S
O27 C26 1.160 . S
O28 Zn29 1.899 . S
O28 C36 1.284 . S
Zn29 O28 1.899 . S
Zn29 O30 2.032 . S
Zn29 O33 2.086 . S
Zn29 O38 1.977 . S
O30 Zn29 2.032 . S
O30 C34 1.278 . S
C31 O32 1.203 . S
C31 O38 1.267 . S
O32 C31 1.203 . S
O33 C26 1.185 . S
O33 Zn29 2.086 . S
C34 O30 1.278 . S
C34 O35 1.211 . S
O35 C34 1.211 . S
C36 O28 1.284 . S
C36 O37 1.273 . S
O37 C36 1.273 . S
O38 Zn29 1.977 . S
O38 C31 1.267 . S
C39 O40 1.160 . S
C39 O46 1.185 . S
O40 C39 1.160 . S
O41 Zn42 1.899 . S
O41 C49 1.284 . S
Zn42 O41 1.899 . S
Zn42 O43 2.032 . S
Zn42 O46 2.086 . S
Zn42 O51 1.977 . S
O43 Zn42 2.032 . S
O43 C47 1.278 . S
C44 O45 1.203 . S
C44 O51 1.267 . S
O45 C44 1.203 . S
O46 C39 1.185 . S
O46 Zn42 2.086 . S
C47 O43 1.278 . S
C47 O48 1.211 . S
O48 C47 1.211 . S
C49 O41 1.284 . S
C49 O50 1.273 . S
O50 C49 1.273 . S
O51 Zn42 1.977 . S
O51 C44 1.267 . S
C52 O53 1.160 . S
C52 O59 1.185 . S
O53 C52 1.160 . S
O54 Zn55 1.899 . S
O54 C62 1.284 . S
Zn55 O54 1.899 . S
Zn55 O56 2.032 . S
Zn55 O59 2.086 . S
Zn55 O64 1.977 . S
O56 Zn55 2.032 . S
O56 C60 1.278 . S
C57 O58 1.203 . S
C57 O64 1.267 . S
O58 C57 1.203 . S
O59 C52 1.185 . S
O59 Zn55 2.086 . S
C60 O56 1.278 . S
C60 O61 1.211 . S
O61 C60 1.211 . S
C62 O54 1.284 . S
C62 O63 1.273 . S
O63 C62 1.273 . S
O64 Zn55 1.977 . S
O64 C57 1.267 . S
C65 O66 1.160 . S
C65 O72 1.185 . S
O66 C65 1.160 . S
O67 Zn68 1.899 . S
O67 C75 1.284 . S
Zn68 O67 1.899 . S
Zn68 O69 2.032 . S
Zn68 O72 2.086 . S
Zn68 O77 1.977 . S
O69 Zn68 2.032 . S
O69 C73 1.278 . S
C70 O71 1.203 . S
C70 O77 1.267 . S
O71 C70 1.203 . S
O72 C65 1.185 . S
O72 Zn68 2.086 . S
C73 O69 1.278 . S
C73 O74 1.211 . S
O74 C73 1.211 . S
C75 O67 1.284 . S
C75 O76 1.273 . S
O76 C75 1.273 . S
O77 Zn68 1.977 . S
O77 C70 1.267 . S
C78 O79 1.160 . S
C78 O85 1.185 . S
O79 C78 1.160 . S
O80 Zn81 1.899 . S
O80 C88 1.284 . S
Zn81 O80 1.899 . S
Zn81 O82 2.032 . S
Zn81 O85 2.086 . S
Zn81 O90 1.977 . S
O82 Zn81 2.032 . S
O82 C86 1.278 . S
C83 O84 1.203 . S
C83 O90 1.267 . S
O84 C83 1.203 . S
O85 C78 1.185 . S
O85 Zn81 2.086 . S
C86 O82 1.278 . S
C86 O87 1.211 . S
O87 C86 1.211 . S
C88 O80 1.284 . S
C88 O89 1.273 . S
O89 C88 1.273 . S
O90 Zn81 1.977 . S
O90 C83 1.267 . S
C91 O92 1.160 . S
C91 O98 1.185 . S
O92 C91 1.160 . S
O93 Zn94 1.899 . S
O93 C101 1.284 . S
Zn94 O93 1.899 . S
Zn94 O95 2.032 . S
Zn94 O98 2.086 . S
Zn94 O103 1.977 . S
O95 Zn94 2.032 . S
O95 C99 1.278 . S
C96 O97 1.203 . S
C96 O103 1.267 . S
O97 C96 1.203 . S
O98 C91 1.185 . S
O98 Zn94 2.086 . S
C99 O95 1.278 . S
C99 O100 1.211 . S
O100 C99 1.211 . S
C101 O93 1.284 . S
C101 O102 1.273 . S
O102 C101 1.273 . S
O103 Zn94 1.977 . S
O103 C96 1.267 . S
C104 O105 1.160 . S
C104 O111 1.185 . S
O105 C104 1.160 . S
O106 Zn107 1.899 . S
O106 C114 1.284 . S
Zn107 O106 1.899 . S
Zn107 O108 2.032 . S
Zn107 O111 2.086 . S
Zn107 O116 1.977 . S
O108 Zn107 2.032 . S
O108 C112 1.278 . S
C109 O110 1.193 1_545 S
C109 O116 1.248 1_545 S
O110 C109 1.193 1_565 S
O111 C104 1.185 . S
O111 Zn107 2.086 . S
C112 O108 1.278 . S
C112 O113 1.211 . S
O113 C112 1.211 . S
C114 O106 1.284 . S
C114 O115 1.273 . S
O115 C114 1.273 . S
O116 Zn107 1.977 . S
O116 C109 1.248 1_565 S
C117 O118 1.160 . S
C117 O124 1.185 . S
O118 C117 1.160 . S
O119 Zn120 1.899 . S
O119 C127 1.284 . S
Zn120 O119 1.899 . S
Zn120 O121 2.032 . S
Zn120 O124 2.086 . S
Zn120 O129 1.977 . S
O121 Zn120 2.032 . S
O121 C125 1.278 . S
C122 O123 1.193 1_455 S
C122 O129 1.248 1_455 S
O123 C122 1.193 1_655 S
O124 C117 1.185 . S
O124 Zn120 2.086 . S
C125 O121 1.278 . S
C125 O126 1.211 . S
O126 C125 1.211 . S
C127 O119 1.284 . S
C127 O128 1.273 . S
O128 C127 1.273 . S
O129 Zn120 1.977 . S
O129 C122 1.248 1_655 S
C130 O131 1.160 . S
C130 O137 1.185 . S
O131 C130 1.160 . S
O132 Zn133 1.899 . S
O132 C140 1.284 . S
Zn133 O132 1.899 . S
Zn133 O134 2.032 . S
Zn133 O137 2.086 . S
Zn133 O142 1.977 . S
O134 Zn133 2.032 . S
O134 C138 1.278 . S
C135 O136 1.193 1_565 S
C135 O142 1.248 1_565 S
O136 C135 1.193 1_545 S
O137 C130 1.185 . S
O137 Zn133 2.086 . S
C138 O134 1.278 . S
C138 O139 1.211 . S
O139 C138 1.211 . S
C140 O132 1.284 . S
C140 O141 1.273 . S
O141 C140 1.273 . S
O142 Zn133 1.977 . S
O142 C135 1.248 1_545 S
C143 O144 1.160 . S
C143 O150 1.185 . S
O144 C143 1.160 . S
O145 Zn146 1.899 . S
O145 C153 1.284 . S
Zn146 O145 1.899 . S
Zn146 O147 2.032 . S
Zn146 O150 2.086 . S
Zn146 O155 1.977 . S
O147 Zn146 2.032 . S
O147 C151 1.278 . S
C148 O149 1.193 1_655 S
C148 O155 1.248 1_655 S
O149 C148 1.193 1_455 S
O150 C143 1.185 . S
O150 Zn146 2.086 . S
C151 O147 1.278 . S
C151 O152 1.211 . S
O152 C151 1.211 . S
C153 O145 1.284 . S
C153 O154 1.273 . S
O154 C153 1.273 . S
O155 Zn146 1.977 . S
O155 C148 1.248 1_455 S
C156 O157 1.160 . S
C156 O163 1.185 . S
O157 C156 1.160 . S
O158 Zn159 1.899 . S
O158 C166 1.284 . S
Zn159 O158 1.899 . S
Zn159 O160 2.032 . S
Zn159 O163 2.086 . S
Zn159 O168 1.977 . S
O160 Zn159 2.032 . S
O160 C164 1.278 . S
C161 O162 1.193 1_565 S
C161 O168 1.248 1_565 S
O162 C161 1.193 1_545 S
O163 C156 1.185 . S
O163 Zn159 2.086 . S
C164 O160 1.278 . S
C164 O165 1.211 . S
O165 C164 1.211 . S
C166 O158 1.284 . S
C166 O167 1.273 . S
O167 C166 1.273 . S
O168 Zn159 1.977 . S
O168 C161 1.248 1_545 S
C169 O170 1.160 . S
C169 O176 1.185 . S
O170 C169 1.160 . S
O171 Zn172 1.899 . S
O171 C179 1.284 . S
Zn172 O171 1.899 . S
Zn172 O173 2.032 . S
Zn172 O176 2.086 . S
Zn172 O181 1.977 . S
O173 Zn172 2.032 . S
O173 C177 1.278 . S
C174 O175 1.193 1_655 S
C174 O181 1.248 1_655 S
O175 C174 1.193 1_455 S
O176 C169 1.185 . S
O176 Zn172 2.086 . S
C177 O173 1.278 . S
C177 O178 1.211 . S
O178 C177 1.211 . S
C179 O171 1.284 . S
C179 O180 1.273 . S
O180 C179 1.273 . S
O181 Zn172 1.977 . S
O181 C174 1.248 1_455 S
C182 O183 1.160 . S
C182 O189 1.185 . S
O183 C182 1.160 . S
O184 Zn185 1.899 . S
O184 C192 1.284 . S
Zn185 O184 1.899 . S
Zn185 O186 2.032 . S
Zn185 O189 2.086 . S
Zn185 O194 1.977 . S
O186 Zn185 2.032 . S
O186 C190 1.278 . S
C187 O188 1.193 1_545 S
C187 O194 1.248 1_545 S
O188 C187 1.193 1_565 S
O189 C182 1.185 . S
O189 Zn185 2.086 . S
C190 O186 1.278 . S
C190 O191 1.211 . S
O191 C190 1.211 . S
C192 O184 1.284 . S
C192 O193 1.273 . S
O193 C192 1.273 . S
O194 Zn185 1.977 . S
O194 C187 1.248 1_565 S
C195 O196 1.160 . S
C195 O202 1.185 . S
O196 C195 1.160 . S
O197 Zn198 1.899 . S
O197 C205 1.284 . S
Zn198 O197 1.899 . S
Zn198 O199 2.032 . S
Zn198 O202 2.086 . S
Zn198 O207 1.977 . S
O199 Zn198 2.032 . S
O199 C203 1.278 . S
C200 O201 1.193 1_455 S
C200 O207 1.248 1_455 S
O201 C200 1.193 1_655 S
O202 C195 1.185 . S
O202 Zn198 2.086 . S
C203 O199 1.278 . S
C203 O204 1.211 . S
O204 C203 1.211 . S
C205 O197 1.284 . S
C205 O206 1.273 . S
O206 C205 1.273 . S
O207 Zn198 1.977 . S
O207 C200 1.248 1_655 S
H208 C216 0.950 . S
H209 C221 0.950 . S
H210 C218 0.950 . S
H211 C220 0.950 . S
H212 C222 0.950 . S
H213 C224 0.950 . S
H214 C226 0.950 . S
H215 C227 0.950 . S
C216 H208 0.950 . S
C216 C217 1.386 . S
C216 C218 1.391 . S
C217 C216 1.386 . S
C217 C221 1.393 . S
C218 H210 0.950 . S
C218 C216 1.391 . S
C218 C219 1.400 . S
C219 C218 1.400 . S
C219 C220 1.398 . S
C219 C225 1.491 . S
C220 H211 0.950 . S
C220 C219 1.398 . S
C220 C221 1.391 . S
C221 H209 0.950 . S
C221 C217 1.393 . S
C221 C220 1.391 . S
C222 H212 0.950 . S
C222 C223 1.386 . S
C222 C224 1.391 . S
C223 C222 1.386 . S
C223 C227 1.393 . S
C224 H213 0.950 . S
C224 C222 1.391 . S
C224 C225 1.400 . S
C225 C219 1.491 . S
C225 C224 1.400 . S
C225 C226 1.398 . S
C226 H214 0.950 . S
C226 C225 1.398 . S
C226 C227 1.391 . S
C227 H215 0.950 . S
C227 C223 1.393 . S
C227 C226 1.391 . S
H228 C236 0.950 . S
H229 C241 0.950 . S
H230 C238 0.950 . S
H231 C240 0.950 . S
H232 C242 0.950 . S
H233 C244 0.950 . S
H234 C246 0.950 . S
H235 C247 0.950 . S
C236 H228 0.950 . S
C236 C237 1.386 . S
C236 C238 1.391 . S
C237 C236 1.386 . S
C237 C241 1.393 . S
C238 H230 0.950 . S
C238 C236 1.391 . S
C238 C239 1.400 . S
C239 C238 1.400 . S
C239 C240 1.398 . S
C239 C245 1.491 . S
C240 H231 0.950 . S
C240 C239 1.398 . S
C240 C241 1.391 . S
C241 H229 0.950 . S
C241 C237 1.393 . S
C241 C240 1.391 . S
C242 H232 0.950 . S
C242 C243 1.386 . S
C242 C244 1.391 . S
C243 C242 1.386 . S
C243 C247 1.393 . S
C244 H233 0.950 . S
C244 C242 1.391 . S
C244 C245 1.400 . S
C245 C239 1.491 . S
C245 C244 1.400 . S
C245 C246 1.398 . S
C246 H234 0.950 . S
C246 C245 1.398 . S
C246 C247 1.391 . S
C247 H235 0.950 . S
C247 C243 1.393 . S
C247 C246 1.391 . S
H248 C256 0.950 . S
H249 C261 0.950 . S
H250 C258 0.950 . S
H251 C260 0.950 . S
H252 C262 0.950 . S
H253 C264 0.950 . S
H254 C266 0.950 . S
H255 C267 0.950 . S
C256 H248 0.950 . S
C256 C257 1.386 . S
C256 C258 1.391 . S
C257 C256 1.386 . S
C257 C261 1.393 . S
C258 H250 0.950 . S
C258 C256 1.391 . S
C258 C259 1.400 . S
C259 C258 1.400 . S
C259 C260 1.398 . S
C259 C265 1.491 . S
C260 H251 0.950 . S
C260 C259 1.398 . S
C260 C261 1.391 . S
C261 H249 0.950 . S
C261 C257 1.393 . S
C261 C260 1.391 . S
C262 H252 0.950 . S
C262 C263 1.386 . S
C262 C264 1.391 . S
C263 C262 1.386 . S
C263 C267 1.393 . S
C264 H253 0.950 . S
C264 C262 1.391 . S
C264 C265 1.400 . S
C265 C259 1.491 . S
C265 C264 1.400 . S
C265 C266 1.398 . S
C266 H254 0.950 . S
C266 C265 1.398 . S
C266 C267 1.391 . S
C267 H255 0.950 . S
C267 C263 1.393 . S
C267 C266 1.391 . S
H268 C276 0.950 . S
H269 C281 0.950 . S
H270 C278 0.950 . S
H271 C280 0.950 . S
H272 C282 0.950 . S
H273 C284 0.950 . S
H274 C286 0.950 . S
H275 C287 0.950 . S
C276 H268 0.950 . S
C276 C277 1.386 . S
C276 C278 1.391 . S
C277 C276 1.386 . S
C277 C281 1.393 . S
C278 H270 0.950 . S
C278 C276 1.391 . S
C278 C279 1.400 . S
C279 C278 1.400 . S
C279 C280 1.398 . S
C279 C285 1.491 . S
C280 H271 0.950 . S
C280 C279 1.398 . S
C280 C281 1.391 . S
C281 H269 0.950 . S
C281 C277 1.393 . S
C281 C280 1.391 . S
C282 H272 0.950 . S
C282 C283 1.386 . S
C282 C284 1.391 . S
C283 C282 1.386 . S
C283 C287 1.393 . S
C284 H273 0.950 . S
C284 C282 1.391 . S
C284 C285 1.400 . S
C285 C279 1.491 . S
C285 C284 1.400 . S
C285 C286 1.398 . S
C286 H274 0.950 . S
C286 C285 1.398 . S
C286 C287 1.391 . S
C287 H275 0.950 . S
C287 C283 1.393 . S
C287 C286 1.391 . S
H288 C296 0.950 . S
H289 C301 0.950 . S
H290 C298 0.950 . S
H291 C300 0.950 . S
H292 C302 0.950 . S
H293 C304 0.950 . S
H294 C306 0.950 . S
H295 C307 0.950 . S
C296 H288 0.950 . S
C296 C297 1.386 . S
C296 C298 1.391 . S
C297 C296 1.386 . S
C297 C301 1.393 . S
C298 H290 0.950 . S
C298 C296 1.391 . S
C298 C299 1.400 . S
C299 C298 1.400 . S
C299 C300 1.398 . S
C299 C305 1.491 . S
C300 H291 0.950 . S
C300 C299 1.398 . S
C300 C301 1.391 . S
C301 H289 0.950 . S
C301 C297 1.393 . S
C301 C300 1.391 . S
C302 H292 0.950 . S
C302 C303 1.386 . S
C302 C304 1.391 . S
C303 C302 1.386 . S
C303 C307 1.393 . S
C304 H293 0.950 . S
C304 C302 1.391 . S
C304 C305 1.400 . S
C305 C299 1.491 . S
C305 C304 1.400 . S
C305 C306 1.398 . S
C306 H294 0.950 . S
C306 C305 1.398 . S
C306 C307 1.391 . S
C307 H295 0.950 . S
C307 C303 1.393 . S
C307 C306 1.391 . S
H308 C316 0.950 . S
H309 C321 0.950 . S
H310 C318 0.950 . S
H311 C320 0.950 . S
H312 C322 0.950 . S
H313 C324 0.950 . S
H314 C326 0.950 . S
H315 C327 0.950 . S
C316 H308 0.950 . S
C316 C317 1.386 . S
C316 C318 1.391 . S
C317 C316 1.386 . S
C317 C321 1.393 . S
C318 H310 0.950 . S
C318 C316 1.391 . S
C318 C319 1.400 . S
C319 C318 1.400 . S
C319 C320 1.398 . S
C319 C325 1.491 . S
C320 H311 0.950 . S
C320 C319 1.398 . S
C320 C321 1.391 . S
C321 H309 0.950 . S
C321 C317 1.393 . S
C321 C320 1.391 . S
C322 H312 0.950 . S
C322 C323 1.386 . S
C322 C324 1.391 . S
C323 C322 1.386 . S
C323 C327 1.393 . S
C324 H313 0.950 . S
C324 C322 1.391 . S
C324 C325 1.400 . S
C325 C319 1.491 . S
C325 C324 1.400 . S
C325 C326 1.398 . S
C326 H314 0.950 . S
C326 C325 1.398 . S
C326 C327 1.391 . S
C327 H315 0.950 . S
C327 C323 1.393 . S
C327 C326 1.391 . S
H328 C336 0.950 . S
H329 C341 0.950 . S
H330 C338 0.950 . S
H331 C340 0.950 . S
H332 C342 0.950 . S
H333 C344 0.950 . S
H334 C346 0.950 . S
H335 C347 0.950 . S
C336 H328 0.950 . S
C336 C337 1.386 . S
C336 C338 1.391 . S
C337 C336 1.386 . S
C337 C341 1.393 . S
C338 H330 0.950 . S
C338 C336 1.391 . S
C338 C339 1.400 . S
C339 C338 1.400 . S
C339 C340 1.398 . S
C339 C345 1.491 . S
C340 H331 0.950 . S
C340 C339 1.398 . S
C340 C341 1.391 . S
C341 H329 0.950 . S
C341 C337 1.393 . S
C341 C340 1.391 . S
C342 H332 0.950 . S
C342 C343 1.386 . S
C342 C344 1.391 . S
C343 C342 1.386 . S
C343 C347 1.393 . S
C344 H333 0.950 . S
C344 C342 1.391 . S
C344 C345 1.400 . S
C345 C339 1.491 . S
C345 C344 1.400 . S
C345 C346 1.398 . S
C346 H334 0.950 . S
C346 C345 1.398 . S
C346 C347 1.391 . S
C347 H335 0.950 . S
C347 C343 1.393 . S
C347 C346 1.391 . S
H348 C356 0.950 . S
H349 C361 0.950 . S
H350 C358 0.950 . S
H351 C360 0.950 . S
H352 C362 0.950 . S
H353 C364 0.950 . S
H354 C366 0.950 . S
H355 C367 0.950 . S
C356 H348 0.950 . S
C356 C357 1.386 . S
C356 C358 1.391 . S
C357 C356 1.386 . S
C357 C361 1.393 . S
C358 H350 0.950 . S
C358 C356 1.391 . S
C358 C359 1.400 . S
C359 C358 1.400 . S
C359 C360 1.398 . S
C359 C365 1.491 . S
C360 H351 0.950 . S
C360 C359 1.398 . S
C360 C361 1.391 . S
C361 H349 0.950 . S
C361 C357 1.393 . S
C361 C360 1.391 . S
C362 H352 0.950 . S
C362 C363 1.386 . S
C362 C364 1.391 . S
C363 C362 1.386 . S
C363 C367 1.393 . S
C364 H353 0.950 . S
C364 C362 1.391 . S
C364 C365 1.400 . S
C365 C359 1.491 . S
C365 C364 1.400 . S
C365 C366 1.398 . S
C366 H354 0.950 . S
C366 C365 1.398 . S
C366 C367 1.391 . S
C367 H355 0.950 . S
C367 C363 1.393 . S
C367 C366 1.391 . S
H368 C376 0.950 . S
H369 C381 0.950 . S
H370 C378 0.950 . S
H371 C380 0.950 . S
H372 C382 0.950 . S
H373 C384 0.950 . S
H374 C386 0.950 . S
H375 C387 0.950 . S
C376 H368 0.950 . S
C376 C377 1.386 . S
C376 C378 1.391 . S
C377 C376 1.386 . S
C377 C381 1.393 . S
C378 H370 0.950 . S
C378 C376 1.391 . S
C378 C379 1.400 . S
C379 C378 1.400 . S
C379 C380 1.398 . S
C379 C385 1.491 . S
C380 H371 0.950 . S
C380 C379 1.398 . S
C380 C381 1.391 . S
C381 H369 0.950 . S
C381 C377 1.393 . S
C381 C380 1.391 . S
C382 H372 0.950 . S
C382 C383 1.386 . S
C382 C384 1.391 . S
C383 C382 1.386 . S
C383 C387 1.393 . S
C384 H373 0.950 . S
C384 C382 1.391 . S
C384 C385 1.400 . S
C385 C379 1.491 . S
C385 C384 1.400 . S
C385 C386 1.398 . S
C386 H374 0.950 . S
C386 C385 1.398 . S
C386 C387 1.391 . S
C387 H375 0.950 . S
C387 C383 1.393 . S
C387 C386 1.391 . S
H388 C396 0.950 . S
H389 C401 0.950 . S
H390 C398 0.950 . S
H391 C400 0.950 . S
H392 C402 0.950 . S
H393 C404 0.950 . S
H394 C406 0.950 . S
H395 C407 0.950 . S
C396 H388 0.950 . S
C396 C397 1.386 . S
C396 C398 1.391 . S
C397 C396 1.386 . S
C397 C401 1.393 . S
C398 H390 0.950 . S
C398 C396 1.391 . S
C398 C399 1.400 . S
C399 C398 1.400 . S
C399 C400 1.398 . S
C399 C405 1.491 . S
C400 H391 0.950 . S
C400 C399 1.398 . S
C400 C401 1.391 . S
C401 H389 0.950 . S
C401 C397 1.393 . S
C401 C400 1.391 . S
C402 H392 0.950 . S
C402 C403 1.386 . S
C402 C404 1.391 . S
C403 C402 1.386 . S
C403 C407 1.393 . S
C404 H393 0.950 . S
C404 C402 1.391 . S
C404 C405 1.400 . S
C405 C399 1.491 . S
C405 C404 1.400 . S
C405 C406 1.398 . S
C406 H394 0.950 . S
C406 C405 1.398 . S
C406 C407 1.391 . S
C407 H395 0.950 . S
C407 C403 1.393 . S
C407 C406 1.391 . S
H408 C416 0.950 . S
H409 C421 0.950 . S
H410 C418 0.950 . S
H411 C420 0.950 . S
H412 C422 0.950 . S
H413 C424 0.950 . S
H414 C426 0.950 . S
H415 C427 0.950 . S
C416 H408 0.950 . S
C416 C417 1.386 . S
C416 C418 1.391 . S
C417 C416 1.386 . S
C417 C421 1.393 . S
C418 H410 0.950 . S
C418 C416 1.391 . S
C418 C419 1.400 . S
C419 C418 1.400 . S
C419 C420 1.398 . S
C419 C425 1.491 . S
C420 H411 0.950 . S
C420 C419 1.398 . S
C420 C421 1.391 . S
C421 H409 0.950 . S
C421 C417 1.393 . S
C421 C420 1.391 . S
C422 H412 0.950 . S
C422 C423 1.386 . S
C422 C424 1.391 . S
C423 C422 1.386 . S
C423 C427 1.393 . S
C424 H413 0.950 . S
C424 C422 1.391 . S
C424 C425 1.400 . S
C425 C419 1.491 . S
C425 C424 1.400 . S
C425 C426 1.398 . S
C426 H414 0.950 . S
C426 C425 1.398 . S
C426 C427 1.391 . S
C427 H415 0.950 . S
C427 C423 1.393 . S
C427 C426 1.391 . S
H428 C436 0.950 . S
H429 C441 0.950 . S
H430 C438 0.950 . S
H431 C440 0.950 . S
H432 C442 0.950 . S
H433 C444 0.950 . S
H434 C446 0.950 . S
H435 C447 0.950 . S
C436 H428 0.950 . S
C436 C437 1.386 . S
C436 C438 1.391 . S
C437 C436 1.386 . S
C437 C441 1.393 . S
C438 H430 0.950 . S
C438 C436 1.391 . S
C438 C439 1.400 . S
C439 C438 1.400 . S
C439 C440 1.398 . S
C439 C445 1.491 . S
C440 H431 0.950 . S
C440 C439 1.398 . S
C440 C441 1.391 . S
C441 H429 0.950 . S
C441 C437 1.393 . S
C441 C440 1.391 . S
C442 H432 0.950 . S
C442 C443 1.386 . S
C442 C444 1.391 . S
C443 C442 1.386 . S
C443 C447 1.393 . S
C444 H433 0.950 . S
C444 C442 1.391 . S
C444 C445 1.400 . S
C445 C439 1.491 . S
C445 C444 1.400 . S
C445 C446 1.398 . S
C446 H434 0.950 . S
C446 C445 1.398 . S
C446 C447 1.391 . S
C447 H435 0.950 . S
C447 C443 1.393 . S
C447 C446 1.391 . S
H448 C456 0.950 . S
H449 C461 0.950 . S
H450 C458 0.950 . S
H451 C460 0.950 . S
H452 C462 0.950 . S
H453 C464 0.950 . S
H454 C466 0.950 . S
H455 C467 0.950 . S
C456 H448 0.950 . S
C456 C457 1.386 . S
C456 C458 1.391 . S
C457 C456 1.386 . S
C457 C461 1.393 . S
C458 H450 0.950 . S
C458 C456 1.391 . S
C458 C459 1.400 . S
C459 C458 1.400 . S
C459 C460 1.398 . S
C459 C465 1.491 . S
C460 H451 0.950 . S
C460 C459 1.398 . S
C460 C461 1.391 . S
C461 H449 0.950 . S
C461 C457 1.393 . S
C461 C460 1.391 . S
C462 H452 0.950 . S
C462 C463 1.386 . S
C462 C464 1.391 . S
C463 C462 1.386 . S
C463 C467 1.393 . S
C464 H453 0.950 . S
C464 C462 1.391 . S
C464 C465 1.400 . S
C465 C459 1.491 . S
C465 C464 1.400 . S
C465 C466 1.398 . S
C466 H454 0.950 . S
C466 C465 1.398 . S
C466 C467 1.391 . S
C467 H455 0.950 . S
C467 C463 1.393 . S
C467 C466 1.391 . S
H468 C476 0.950 . S
H469 C481 0.950 . S
H470 C478 0.950 . S
H471 C480 0.950 . S
H472 C482 0.950 . S
H473 C484 0.950 . S
H474 C486 0.950 . S
H475 C487 0.950 . S
C476 H468 0.950 . S
C476 C477 1.386 . S
C476 C478 1.391 . S
C477 C476 1.386 . S
C477 C481 1.393 . S
C478 H470 0.950 . S
C478 C476 1.391 . S
C478 C479 1.400 . S
C479 C478 1.400 . S
C479 C480 1.398 . S
C479 C485 1.491 . S
C480 H471 0.950 . S
C480 C479 1.398 . S
C480 C481 1.391 . S
C481 H469 0.950 . S
C481 C477 1.393 . S
C481 C480 1.391 . S
C482 H472 0.950 . S
C482 C483 1.386 . S
C482 C484 1.391 . S
C483 C482 1.386 . S
C483 C487 1.393 . S
C484 H473 0.950 . S
C484 C482 1.391 . S
C484 C485 1.400 . S
C485 C479 1.491 . S
C485 C484 1.400 . S
C485 C486 1.398 . S
C486 H474 0.950 . S
C486 C485 1.398 . S
C486 C487 1.391 . S
C487 H475 0.950 . S
C487 C483 1.393 . S
C487 C486 1.391 . S
H488 C496 0.950 . S
H489 C501 0.950 . S
H490 C498 0.950 . S
H491 C500 0.950 . S
H492 C502 0.950 . S
H493 C504 0.950 . S
H494 C506 0.950 . S
H495 C507 0.950 . S
C496 H488 0.950 . S
C496 C497 1.386 . S
C496 C498 1.391 . S
C497 C496 1.386 . S
C497 C501 1.393 . S
C498 H490 0.950 . S
C498 C496 1.391 . S
C498 C499 1.400 . S
C499 C498 1.400 . S
C499 C500 1.398 . S
C499 C505 1.491 . S
C500 H491 0.950 . S
C500 C499 1.398 . S
C500 C501 1.391 . S
C501 H489 0.950 . S
C501 C497 1.393 . S
C501 C500 1.391 . S
C502 H492 0.950 . S
C502 C503 1.386 . S
C502 C504 1.391 . S
C503 C502 1.386 . S
C503 C507 1.393 . S
C504 H493 0.950 . S
C504 C502 1.391 . S
C504 C505 1.400 . S
C505 C499 1.491 . S
C505 C504 1.400 . S
C505 C506 1.398 . S
C506 H494 0.950 . S
C506 C505 1.398 . S
C506 C507 1.391 . S
C507 H495 0.950 . S
C507 C503 1.393 . S
C507 C506 1.391 . S
H508 C516 0.950 . S
H509 C521 0.950 . S
H510 C518 0.950 . S
H511 C520 0.950 . S
H512 C522 0.950 . S
H513 C524 0.950 . S
H514 C526 0.950 . S
H515 C527 0.950 . S
C516 H508 0.950 . S
C516 C517 1.386 . S
C516 C518 1.391 . S
C517 C516 1.386 . S
C517 C521 1.393 . S
C518 H510 0.950 . S
C518 C516 1.391 . S
C518 C519 1.400 . S
C519 C518 1.400 . S
C519 C520 1.398 . S
C519 C525 1.491 . S
C520 H511 0.950 . S
C520 C519 1.398 . S
C520 C521 1.391 . S
C521 H509 0.950 . S
C521 C517 1.393 . S
C521 C520 1.391 . S
C522 H512 0.950 . S
C522 C523 1.386 . S
C522 C524 1.391 . S
C523 C522 1.386 . S
C523 C527 1.393 . S
C524 H513 0.950 . S
C524 C522 1.391 . S
C524 C525 1.400 . S
C525 C519 1.491 . S
C525 C524 1.400 . S
C525 C526 1.398 . S
C526 H514 0.950 . S
C526 C525 1.398 . S
C526 C527 1.391 . S
C527 H515 0.950 . S
C527 C523 1.393 . S
C527 C526 1.391 . S
H528 C536 0.950 . S
H529 C541 0.925 1_565 S
H530 C538 0.950 . S
H531 C540 0.950 . S
H532 C542 0.950 . S
H533 C544 0.950 . S
H534 C546 0.950 . S
H535 C547 0.950 . S
C536 H528 0.950 . S
C536 C537 1.386 . S
C536 C538 1.391 . S
C537 C536 1.386 . S
C537 C541 1.393 . S
C538 H530 0.950 . S
C538 C536 1.391 . S
C538 C539 1.400 . S
C539 C538 1.400 . S
C539 C540 1.398 . S
C539 C545 1.491 . S
C540 H531 0.950 . S
C540 C539 1.398 . S
C540 C541 1.391 . S
C541 H529 0.925 1_545 S
C541 C537 1.393 . S
C541 C540 1.391 . S
C542 H532 0.950 . S
C542 C543 1.386 . S
C542 C544 1.391 . S
C543 C542 1.386 . S
C543 C547 1.393 . S
C544 H533 0.950 . S
C544 C542 1.391 . S
C544 C545 1.400 . S
C545 C539 1.491 . S
C545 C544 1.400 . S
C545 C546 1.398 . S
C546 H534 0.950 . S
C546 C545 1.398 . S
C546 C547 1.391 . S
C547 H535 0.950 . S
C547 C543 1.393 . S
C547 C546 1.391 . S
H548 C556 0.950 . S
H549 C561 0.950 . S
H550 C558 0.950 . S
H551 C560 0.950 . S
H552 C562 0.950 1_655 S
H553 C564 0.950 . S
H554 C566 0.950 . S
H555 C567 0.950 . S
C556 H548 0.950 . S
C556 C557 1.386 . S
C556 C558 1.391 . S
C557 C556 1.386 . S
C557 C561 1.393 . S
C558 H550 0.950 . S
C558 C556 1.391 . S
C558 C559 1.400 . S
C559 C558 1.400 . S
C559 C560 1.398 . S
C559 C565 1.491 . S
C560 H551 0.950 . S
C560 C559 1.398 . S
C560 C561 1.391 . S
C561 H549 0.950 . S
C561 C557 1.393 . S
C561 C560 1.391 . S
C562 H552 0.950 1_455 S
C562 C563 1.386 . S
C562 C564 1.391 . S
C563 C562 1.386 . S
C563 C567 1.393 . S
C564 H553 0.950 . S
C564 C562 1.391 . S
C564 C565 1.400 . S
C565 C559 1.491 . S
C565 C564 1.400 . S
C565 C566 1.398 . S
C566 H554 0.950 . S
C566 C565 1.398 . S
C566 C567 1.391 . S
C567 H555 0.950 . S
C567 C563 1.393 . S
C567 C566 1.391 . S
H568 C576 0.950 . S
H569 C581 0.950 . S
H570 C578 0.950 . S
H571 C580 0.950 . S
H572 C582 0.950 . S
H573 C584 0.950 . S
H574 C586 0.950 . S
H575 C587 0.950 . S
C576 H568 0.950 . S
C576 C577 1.386 . S
C576 C578 1.391 . S
C577 C576 1.386 . S
C577 C581 1.393 . S
C578 H570 0.950 . S
C578 C576 1.391 . S
C578 C579 1.400 . S
C579 C578 1.400 . S
C579 C580 1.398 . S
C579 C585 1.491 . S
C580 H571 0.950 . S
C580 C579 1.398 . S
C580 C581 1.391 . S
C581 H569 0.950 . S
C581 C577 1.393 . S
C581 C580 1.391 . S
C582 H572 0.950 . S
C582 C583 1.386 . S
C582 C584 1.391 . S
C583 C582 1.386 . S
C583 C587 1.393 . S
C584 H573 0.950 . S
C584 C582 1.391 . S
C584 C585 1.400 . S
C585 C579 1.491 . S
C585 C584 1.400 . S
C585 C586 1.398 . S
C586 H574 0.950 . S
C586 C585 1.398 . S
C586 C587 1.391 . S
C587 H575 0.950 . S
C587 C583 1.393 . S
C587 C586 1.391 . S
H588 C596 0.950 . S
H589 C601 0.950 . S
H590 C598 0.950 . S
H591 C600 0.950 . S
H592 C602 0.950 . S
H593 C604 0.950 . S
H594 C606 0.950 . S
H595 C607 0.950 1_455 S
C596 H588 0.950 . S
C596 C597 1.386 . S
C596 C598 1.391 . S
C597 C596 1.386 . S
C597 C601 1.393 . S
C598 H590 0.950 . S
C598 C596 1.391 . S
C598 C599 1.400 . S
C599 C598 1.400 . S
C599 C600 1.398 . S
C599 C605 1.491 . S
C600 H591 0.950 . S
C600 C599 1.398 . S
C600 C601 1.391 . S
C601 H589 0.950 . S
C601 C597 1.393 . S
C601 C600 1.391 . S
C602 H592 0.950 . S
C602 C603 1.386 . S
C602 C604 1.391 . S
C603 C602 1.386 . S
C603 C607 1.393 . S
C604 H593 0.950 . S
C604 C602 1.391 . S
C604 C605 1.400 . S
C605 C599 1.491 . S
C605 C604 1.400 . S
C605 C606 1.398 . S
C606 H594 0.950 . S
C606 C605 1.398 . S
C606 C607 1.391 . S
C607 H595 0.950 1_655 S
C607 C603 1.393 . S
C607 C606 1.391 . S
H608 C616 0.950 . S
H609 C621 0.950 . S
H610 C618 0.950 . S
H611 C620 0.950 . S
H612 C622 0.950 . S
H613 C624 0.950 . S
H614 C626 0.950 . S
H615 C627 0.950 . S
C616 H608 0.950 . S
C616 C617 1.386 . S
C616 C618 1.391 . S
C617 C616 1.386 . S
C617 C621 1.393 . S
C618 H610 0.950 . S
C618 C616 1.391 . S
C618 C619 1.400 . S
C619 C618 1.400 . S
C619 C620 1.398 . S
C619 C625 1.491 . S
C620 H611 0.950 . S
C620 C619 1.398 . S
C620 C621 1.391 . S
C621 H609 0.950 . S
C621 C617 1.393 . S
C621 C620 1.391 . S
C622 H612 0.950 . S
C622 C623 1.386 . S
C622 C624 1.391 . S
C623 C622 1.386 . S
C623 C627 1.393 . S
C624 H613 0.950 . S
C624 C622 1.391 . S
C624 C625 1.400 . S
C625 C619 1.491 . S
C625 C624 1.400 . S
C625 C626 1.398 . S
C626 H614 0.950 . S
C626 C625 1.398 . S
C626 C627 1.391 . S
C627 H615 0.950 . S
C627 C623 1.393 . S
C627 C626 1.391 . S
H628 C636 0.950 . S
H629 C641 0.950 . S
H630 C638 0.950 . S
H631 C640 0.950 . S
H632 C642 0.950 . S
H633 C644 0.950 . S
H634 C646 0.950 . S
H635 C647 0.950 . S
C636 H628 0.950 . S
C636 C637 1.386 . S
C636 C638 1.391 . S
C637 C636 1.386 . S
C637 C641 1.393 . S
C638 H630 0.950 . S
C638 C636 1.391 . S
C638 C639 1.400 . S
C639 C638 1.400 . S
C639 C640 1.398 . S
C639 C645 1.491 . S
C640 H631 0.950 . S
C640 C639 1.398 . S
C640 C641 1.391 . S
C641 H629 0.950 . S
C641 C637 1.393 . S
C641 C640 1.391 . S
C642 H632 0.950 . S
C642 C643 1.386 . S
C642 C644 1.391 . S
C643 C642 1.386 . S
C643 C647 1.393 . S
C644 H633 0.950 . S
C644 C642 1.391 . S
C644 C645 1.400 . S
C645 C639 1.491 . S
C645 C644 1.400 . S
C645 C646 1.398 . S
C646 H634 0.950 . S
C646 C645 1.398 . S
C646 C647 1.391 . S
C647 H635 0.950 . S
C647 C643 1.393 . S
C647 C646 1.391 . S
H648 C656 0.950 . S
H649 C661 0.950 . S
H650 C658 0.950 . S
H651 C660 0.950 . S
H652 C662 0.931 1_565 S
H653 C664 0.950 . S
H654 C666 0.950 . S
H655 C667 0.950 . S
C656 H648 0.950 . S
C656 C657 1.386 . S
C656 C658 1.391 . S
C657 C656 1.386 . S
C657 C661 1.393 . S
C658 H650 0.950 . S
C658 C656 1.391 . S
C658 C659 1.400 . S
C659 C658 1.400 . S
C659 C660 1.398 . S
C659 C665 1.491 . S
C660 H651 0.950 . S
C660 C659 1.398 . S
C660 C661 1.391 . S
C661 H649 0.950 . S
C661 C657 1.393 . S
C661 C660 1.391 . S
C662 H652 0.931 1_545 S
C662 C663 1.386 . S
C662 C664 1.391 . S
C663 C662 1.386 . S
C663 C667 1.393 . S
C664 H653 0.950 . S
C664 C662 1.391 . S
C664 C665 1.400 . S
C665 C659 1.491 . S
C665 C664 1.400 . S
C665 C666 1.398 . S
C666 H654 0.950 . S
C666 C665 1.398 . S
C666 C667 1.391 . S
C667 H655 0.950 . S
C667 C663 1.393 . S
C667 C666 1.391 . S
H668 C676 0.950 . S
H669 C681 0.950 . S
H670 C678 0.950 . S
H671 C680 0.950 . S
H672 C682 0.950 . S
H673 C684 0.950 . S
H674 C686 0.950 . S
H675 C687 0.950 . S
C676 H668 0.950 . S
C676 C677 1.386 . S
C676 C678 1.391 . S
C677 C676 1.386 . S
C677 C681 1.393 . S
C678 H670 0.950 . S
C678 C676 1.391 . S
C678 C679 1.400 . S
C679 C678 1.400 . S
C679 C680 1.398 . S
C679 C685 1.491 . S
C680 H671 0.950 . S
C680 C679 1.398 . S
C680 C681 1.391 . S
C681 H669 0.950 . S
C681 C677 1.393 . S
C681 C680 1.391 . S
C682 H672 0.950 . S
C682 C683 1.386 . S
C682 C684 1.391 . S
C683 C682 1.386 . S
C683 C687 1.393 . S
C684 H673 0.950 . S
C684 C682 1.391 . S
C684 C685 1.400 . S
C685 C679 1.491 . S
C685 C684 1.400 . S
C685 C686 1.398 . S
C686 H674 0.950 . S
C686 C685 1.398 . S
C686 C687 1.391 . S
C687 H675 0.950 . S
C687 C683 1.393 . S
C687 C686 1.391 . S
H688 C696 0.950 . S
H689 C701 0.950 . S
H690 C698 0.950 . S
H691 C700 0.950 . S
H692 C702 0.950 . S
H693 C704 0.950 . S
H694 C706 0.950 . S
H695 C707 0.950 . S
C696 H688 0.950 . S
C696 C697 1.386 . S
C696 C698 1.391 . S
C697 C696 1.386 . S
C697 C701 1.393 . S
C698 H690 0.950 . S
C698 C696 1.391 . S
C698 C699 1.400 . S
C699 C698 1.400 . S
C699 C700 1.398 . S
C699 C705 1.491 . S
C700 H691 0.950 . S
C700 C699 1.398 . S
C700 C701 1.391 . S
C701 H689 0.950 . S
C701 C697 1.393 . S
C701 C700 1.391 . S
C702 H692 0.950 . S
C702 C703 1.386 . S
C702 C704 1.391 . S
C703 C702 1.386 . S
C703 C707 1.393 . S
C704 H693 0.950 . S
C704 C702 1.391 . S
C704 C705 1.400 . S
C705 C699 1.491 . S
C705 C704 1.400 . S
C705 C706 1.398 . S
C706 H694 0.950 . S
C706 C705 1.398 . S
C706 C707 1.391 . S
C707 H695 0.950 . S
C707 C703 1.393 . S
C707 C706 1.391 . S
H708 C716 0.950 . S
H709 C721 0.950 . S
H710 C718 0.950 . S
H711 C720 0.950 . S
H712 C722 0.950 . S
H713 C724 0.950 . S
H714 C726 0.950 . S
H715 C727 0.950 . S
C716 H708 0.950 . S
C716 C717 1.386 . S
C716 C718 1.391 . S
C717 C716 1.386 . S
C717 C721 1.393 . S
C718 H710 0.950 . S
C718 C716 1.391 . S
C718 C719 1.400 . S
C719 C718 1.400 . S
C719 C720 1.398 . S
C719 C725 1.491 . S
C720 H711 0.950 . S
C720 C719 1.398 . S
C720 C721 1.391 . S
C721 H709 0.950 . S
C721 C717 1.393 . S
C721 C720 1.391 . S
C722 H712 0.950 . S
C722 C723 1.386 . S
C722 C724 1.391 . S
C723 C722 1.386 . S
C723 C727 1.393 . S
C724 H713 0.950 . S
C724 C722 1.391 . S
C724 C725 1.400 . S
C725 C719 1.491 . S
C725 C724 1.400 . S
C725 C726 1.398 . S
C726 H714 0.950 . S
C726 C725 1.398 . S
C726 C727 1.391 . S
C727 H715 0.950 . S
C727 C723 1.393 . S
C727 C726 1.391 . S
H728 C736 0.950 . S
H729 C741 0.950 . S
H730 C738 0.950 . S
H731 C740 0.950 . S
H732 C742 0.950 . S
H733 C744 0.950 . S
H734 C746 0.950 . S
H735 C747 0.950 . S
C736 H728 0.950 . S
C736 C737 1.386 . S
C736 C738 1.391 . S
C737 C736 1.386 . S
C737 C741 1.393 . S
C738 H730 0.950 . S
C738 C736 1.391 . S
C738 C739 1.400 . S
C739 C738 1.400 . S
C739 C740 1.398 . S
C739 C745 1.491 . S
C740 H731 0.950 . S
C740 C739 1.398 . S
C740 C741 1.391 . S
C741 H729 0.950 . S
C741 C737 1.393 . S
C741 C740 1.391 . S
C742 H732 0.950 . S
C742 C743 1.386 . S
C742 C744 1.391 . S
C743 C742 1.386 . S
C743 C747 1.393 . S
C744 H733 0.950 . S
C744 C742 1.391 . S
C744 C745 1.400 . S
C745 C739 1.491 . S
C745 C744 1.400 . S
C745 C746 1.398 . S
C746 H734 0.950 . S
C746 C745 1.398 . S
C746 C747 1.391 . S
C747 H735 0.950 . S
C747 C743 1.393 . S
C747 C746 1.391 . S
H748 C756 0.950 . S
H749 C761 0.950 . S
H750 C758 0.950 . S
H751 C760 0.950 . S
H752 C762 0.950 . S
H753 C764 0.950 . S
H754 C766 0.950 . S
H755 C767 0.950 . S
C756 H748 0.950 . S
C756 C757 1.386 . S
C756 C758 1.391 . S
C757 C756 1.386 . S
C757 C761 1.393 . S
C758 H750 0.950 . S
C758 C756 1.391 . S
C758 C759 1.400 . S
C759 C758 1.400 . S
C759 C760 1.398 . S
C759 C765 1.491 . S
C760 H751 0.950 . S
C760 C759 1.398 . S
C760 C761 1.391 . S
C761 H749 0.950 . S
C761 C757 1.393 . S
C761 C760 1.391 . S
C762 H752 0.950 . S
C762 C763 1.386 . S
C762 C764 1.391 . S
C763 C762 1.386 . S
C763 C767 1.393 . S
C764 H753 0.950 . S
C764 C762 1.391 . S
C764 C765 1.400 . S
C765 C759 1.491 . S
C765 C764 1.400 . S
C765 C766 1.398 . S
C766 H754 0.950 . S
C766 C765 1.398 . S
C766 C767 1.391 . S
C767 H755 0.950 . S
C767 C763 1.393 . S
C767 C766 1.391 . S
H768 C776 0.950 . S
H769 C781 0.950 . S
H770 C778 0.950 . S
H771 C780 0.950 . S
H772 C782 0.950 . S
H773 C784 0.950 . S
H774 C786 0.950 . S
H775 C787 0.950 . S
C776 H768 0.950 . S
C776 C777 1.386 . S
C776 C778 1.391 . S
C777 C776 1.386 . S
C777 C781 1.393 . S
C778 H770 0.950 . S
C778 C776 1.391 . S
C778 C779 1.400 . S
C779 C778 1.400 . S
C779 C780 1.398 . S
C779 C785 1.491 1_544 S
C780 H771 0.950 . S
C780 C779 1.398 . S
C780 C781 1.391 . S
C781 H769 0.950 . S
C781 C777 1.393 . S
C781 C780 1.391 . S
C782 H772 0.950 . S
C782 C783 1.386 . S
C782 C784 1.391 . S
C783 C782 1.386 . S
C783 C787 1.393 . S
C784 H773 0.950 . S
C784 C782 1.391 . S
C784 C785 1.400 . S
C785 C779 1.491 1_566 S
C785 C784 1.400 . S
C785 C786 1.398 . S
C786 H774 0.950 . S
C786 C785 1.398 . S
C786 C787 1.391 . S
C787 H775 0.950 . S
C787 C783 1.393 . S
C787 C786 1.391 . S
H788 C796 0.950 . S
H789 C801 0.950 . S
H790 C798 0.950 . S
H791 C800 0.950 . S
H792 C802 0.950 . S
H793 C804 0.950 . S
H794 C806 0.950 . S
H795 C807 0.950 . S
C796 H788 0.950 . S
C796 C797 1.386 . S
C796 C798 1.391 . S
C797 C796 1.386 . S
C797 C801 1.393 1_455 S
C798 H790 0.950 . S
C798 C796 1.391 . S
C798 C799 1.400 . S
C799 C798 1.400 . S
C799 C800 1.398 1_455 S
C799 C805 1.491 1_456 S
C800 H791 0.950 . S
C800 C799 1.398 1_655 S
C800 C801 1.391 . S
C801 H789 0.950 . S
C801 C797 1.393 1_655 S
C801 C800 1.391 . S
C802 H792 0.950 . S
C802 C803 1.386 . S
C802 C804 1.391 . S
C803 C802 1.386 . S
C803 C807 1.393 1_655 S
C804 H793 0.950 . S
C804 C802 1.391 . S
C804 C805 1.400 . S
C805 C799 1.491 1_654 S
C805 C804 1.400 . S
C805 C806 1.398 1_655 S
C806 H794 0.950 . S
C806 C805 1.398 1_455 S
C806 C807 1.391 . S
C807 H795 0.950 . S
C807 C803 1.393 1_455 S
C807 C806 1.391 . S
H808 C816 0.950 . S
H809 C821 0.950 . S
H810 C818 0.965 . S
H811 C820 0.950 . S
H812 C822 0.950 . S
H813 C824 0.965 . S
H814 C826 0.950 . S
H815 C827 0.950 . S
C816 H808 0.950 . S
C816 C817 1.386 . S
C816 C818 1.382 1_545 S
C817 C816 1.386 . S
C817 C821 1.393 . S
C818 H810 0.965 . S
C818 C816 1.382 1_565 S
C818 C819 1.395 1_565 S
C819 C818 1.395 1_545 S
C819 C820 1.398 . S
C819 C825 1.491 1_546 S
C820 H811 0.950 . S
C820 C819 1.398 . S
C820 C821 1.391 . S
C821 H809 0.950 . S
C821 C817 1.393 . S
C821 C820 1.391 . S
C822 H812 0.950 . S
C822 C823 1.386 . S
C822 C824 1.382 1_565 S
C823 C822 1.386 . S
C823 C827 1.393 . S
C824 H813 0.965 . S
C824 C822 1.382 1_545 S
C824 C825 1.395 1_545 S
C825 C819 1.491 1_564 S
C825 C824 1.395 1_565 S
C825 C826 1.398 . S
C826 H814 0.950 . S
C826 C825 1.398 . S
C826 C827 1.391 . S
C827 H815 0.950 . S
C827 C823 1.393 . S
C827 C826 1.391 . S
H828 C836 0.950 1_455 S
H829 C841 0.950 . S
H830 C838 0.950 . S
H831 C840 0.950 . S
H832 C842 0.950 1_655 S
H833 C844 0.950 . S
H834 C846 0.950 . S
H835 C847 0.950 . S
C836 H828 0.950 1_655 S
C836 C837 1.386 . S
C836 C838 1.391 1_655 S
C837 C836 1.386 . S
C837 C841 1.393 . S
C838 H830 0.950 . S
C838 C836 1.391 1_455 S
C838 C839 1.400 1_455 S
C839 C838 1.400 1_655 S
C839 C840 1.398 . S
C839 C845 1.491 1_656 S
C840 H831 0.950 . S
C840 C839 1.398 . S
C840 C841 1.391 . S
C841 H829 0.950 . S
C841 C837 1.393 . S
C841 C840 1.391 . S
C842 H832 0.950 1_455 S
C842 C843 1.386 . S
C842 C844 1.391 1_455 S
C843 C842 1.386 . S
C843 C847 1.393 . S
C844 H833 0.950 . S
C844 C842 1.391 1_655 S
C844 C845 1.400 1_655 S
C845 C839 1.491 1_454 S
C845 C844 1.400 1_455 S
C845 C846 1.398 . S
C846 H834 0.950 . S
C846 C845 1.398 . S
C846 C847 1.391 . S
C847 H835 0.950 . S
C847 C843 1.393 . S
C847 C846 1.391 . S
C217 C0 1.139 . S
C223 C91 1.141 . S
C237 C13 1.148 . S
C243 C52 1.132 . S
C257 C65 1.158 . S
C263 C26 1.122 . S
C277 C39 1.127 . S
C283 C78 1.153 . S
C297 C104 1.139 . S
C303 C195 1.141 . S
C317 C156 1.139 . S
C323 C117 1.141 . S
C337 C169 1.122 . S
C343 C130 1.158 . S
C357 C182 1.156 . S
C363 C143 1.124 . S
C377 C5 1.118 . S
C383 C153 1.197 . S
C397 C18 1.077 . S
C403 C114 1.198 . S
C417 C127 1.200 . S
C423 C31 1.079 . S
C437 C44 1.113 . S
C443 C140 1.204 . S
C457 C57 1.119 . S
C463 C179 1.197 . S
C477 C192 1.196 . S
C483 C70 1.116 . S
C497 C83 1.086 . S
C503 C205 1.195 . S
C517 C166 1.204 . S
C523 C96 1.122 . S
C537 C109 1.138 . S
C543 C49 1.205 . S
C557 C10 1.195 . S
C563 C122 1.124 . S
C577 C135 1.158 . S
C583 C23 1.199 . S
C597 C36 1.204 . S
C603 C148 1.146 . S
C617 C161 1.148 . S
C623 C75 1.196 . S
C637 C88 1.203 . S
C643 C174 1.120 . S
C657 C101 1.204 . S
C663 C187 1.144 . S
C677 C62 1.196 . S
C683 C200 1.143 . S
C697 C60 1.537 . S
C703 C8 1.540 . S
C717 C73 1.526 . S
C723 C21 1.531 . S
C737 C34 1.542 . S
C743 C86 1.540 . S
C757 C99 1.541 . S
C763 C47 1.542 . S
C777 C164 1.542 . S
C783 C112 1.541 . S
C797 C177 1.527 . S
C803 C125 1.532 . S
C817 C138 1.519 . S
C823 C190 1.522 . S
C837 C203 1.526 . S
C843 C151 1.522 . S
