# Generated by pormake.
# Topology fcp, (5)-cn, num edge types: 1
# Building blocks:
#     Node 0, Type 0, BuildingBlock: BEQFEK_clean_sbu_0, # of connection points: 5
#     Node 1, Type 0, BuildingBlock: BEQFEK_clean_sbu_0, # of connection points: 5
#     Node 2, Type 0, BuildingBlock: BEQFEK_clean_sbu_0, # of connection points: 5
#     Node 3, Type 0, BuildingBlock: BEQFEK_clean_sbu_0, # of connection points: 5
#     Node 4, Type 0, BuildingBlock: BEQFEK_clean_sbu_0, # of connection points: 5
#     Node 5, Type 0, BuildingBlock: BEQFEK_clean_sbu_0, # of connection points: 5
#     Node 6, Type 0, BuildingBlock: BEQFEK_clean_sbu_0, # of connection points: 5
#     Node 7, Type 0, BuildingBlock: BEQFEK_clean_sbu_0, # of connection points: 5
#     Node 8, Type 0, BuildingBlock: BEQFEK_clean_sbu_0, # of connection points: 5
#     Node 9, Type 0, BuildingBlock: BEQFEK_clean_sbu_0, # of connection points: 5
#     Node 10, Type 0, BuildingBlock: BEQFEK_clean_sbu_0, # of connection points: 5
#     Node 11, Type 0, BuildingBlock: BEQFEK_clean_sbu_0, # of connection points: 5
#     Node 12, Type 0, BuildingBlock: BEQFEK_clean_sbu_0, # of connection points: 5
#     Node 13, Type 0, BuildingBlock: BEQFEK_clean_sbu_0, # of connection points: 5
#     Node 14, Type 0, BuildingBlock: BEQFEK_clean_sbu_0, # of connection points: 5
#     Node 15, Type 0, BuildingBlock: BEQFEK_clean_sbu_0, # of connection points: 5
#     Node 16, Type 0, BuildingBlock: BEQFEK_clean_sbu_0, # of connection points: 5
#     Node 17, Type 0, BuildingBlock: BEQFEK_clean_sbu_0, # of connection points: 5
#     Node 18, Type 0, BuildingBlock: BEQFEK_clean_sbu_0, # of connection points: 5
#     Node 19, Type 0, BuildingBlock: BEQFEK_clean_sbu_0, # of connection points: 5
#     Node 20, Type 0, BuildingBlock: BEQFEK_clean_sbu_0, # of connection points: 5
#     Node 21, Type 0, BuildingBlock: BEQFEK_clean_sbu_0, # of connection points: 5
#     Node 22, Type 0, BuildingBlock: BEQFEK_clean_sbu_0, # of connection points: 5
#     Node 23, Type 0, BuildingBlock: BEQFEK_clean_sbu_0, # of connection points: 5
#     Edge 24, Type (0, 0), BuildingBlock: XIVTED_clean_linker_0, # of connection points: 2
#     Edge 25, Type (0, 0), BuildingBlock: XIVTED_clean_linker_0, # of connection points: 2
#     Edge 26, Type (0, 0), BuildingBlock: XIVTED_clean_linker_0, # of connection points: 2
#     Edge 27, Type (0, 0), BuildingBlock: XIVTED_clean_linker_0, # of connection points: 2
#     Edge 28, Type (0, 0), BuildingBlock: XIVTED_clean_linker_0, # of connection points: 2
#     Edge 29, Type (0, 0), BuildingBlock: XIVTED_clean_linker_0, # of connection points: 2
#     Edge 30, Type (0, 0), BuildingBlock: XIVTED_clean_linker_0, # of connection points: 2
#     Edge 31, Type (0, 0), BuildingBlock: XIVTED_clean_linker_0, # of connection points: 2
#     Edge 32, Type (0, 0), BuildingBlock: XIVTED_clean_linker_0, # of connection points: 2
#     Edge 33, Type (0, 0), BuildingBlock: XIVTED_clean_linker_0, # of connection points: 2
#     Edge 34, Type (0, 0), BuildingBlock: XIVTED_clean_linker_0, # of connection points: 2
#     Edge 35, Type (0, 0), BuildingBlock: XIVTED_clean_linker_0, # of connection points: 2
#     Edge 36, Type (0, 0), BuildingBlock: XIVTED_clean_linker_0, # of connection points: 2
#     Edge 37, Type (0, 0), BuildingBlock: XIVTED_clean_linker_0, # of connection points: 2
#     Edge 38, Type (0, 0), BuildingBlock: XIVTED_clean_linker_0, # of connection points: 2
#     Edge 39, Type (0, 0), BuildingBlock: XIVTED_clean_linker_0, # of connection points: 2
#     Edge 40, Type (0, 0), BuildingBlock: XIVTED_clean_linker_0, # of connection points: 2
#     Edge 41, Type (0, 0), BuildingBlock: XIVTED_clean_linker_0, # of connection points: 2
#     Edge 42, Type (0, 0), BuildingBlock: XIVTED_clean_linker_0, # of connection points: 2
#     Edge 43, Type (0, 0), BuildingBlock: XIVTED_clean_linker_0, # of connection points: 2
#     Edge 44, Type (0, 0), BuildingBlock: XIVTED_clean_linker_0, # of connection points: 2
#     Edge 45, Type (0, 0), BuildingBlock: XIVTED_clean_linker_0, # of connection points: 2
#     Edge 46, Type (0, 0), BuildingBlock: XIVTED_clean_linker_0, # of connection points: 2
#     Edge 47, Type (0, 0), BuildingBlock: XIVTED_clean_linker_0, # of connection points: 2
#     Edge 48, Type (0, 0), BuildingBlock: XIVTED_clean_linker_0, # of connection points: 2
#     Edge 49, Type (0, 0), BuildingBlock: XIVTED_clean_linker_0, # of connection points: 2
#     Edge 50, Type (0, 0), BuildingBlock: XIVTED_clean_linker_0, # of connection points: 2
#     Edge 51, Type (0, 0), BuildingBlock: XIVTED_clean_linker_0, # of connection points: 2
#     Edge 52, Type (0, 0), BuildingBlock: XIVTED_clean_linker_0, # of connection points: 2
#     Edge 53, Type (0, 0), BuildingBlock: XIVTED_clean_linker_0, # of connection points: 2
#     Edge 54, Type (0, 0), BuildingBlock: XIVTED_clean_linker_0, # of connection points: 2
#     Edge 55, Type (0, 0), BuildingBlock: XIVTED_clean_linker_0, # of connection points: 2
#     Edge 56, Type (0, 0), BuildingBlock: XIVTED_clean_linker_0, # of connection points: 2
#     Edge 57, Type (0, 0), BuildingBlock: XIVTED_clean_linker_0, # of connection points: 2
#     Edge 58, Type (0, 0), BuildingBlock: XIVTED_clean_linker_0, # of connection points: 2
#     Edge 59, Type (0, 0), BuildingBlock: XIVTED_clean_linker_0, # of connection points: 2
#     Edge 60, Type (0, 0), BuildingBlock: XIVTED_clean_linker_0, # of connection points: 2
#     Edge 61, Type (0, 0), BuildingBlock: XIVTED_clean_linker_0, # of connection points: 2
#     Edge 62, Type (0, 0), BuildingBlock: XIVTED_clean_linker_0, # of connection points: 2
#     Edge 63, Type (0, 0), BuildingBlock: XIVTED_clean_linker_0, # of connection points: 2
#     Edge 64, Type (0, 0), BuildingBlock: XIVTED_clean_linker_0, # of connection points: 2
#     Edge 65, Type (0, 0), BuildingBlock: XIVTED_clean_linker_0, # of connection points: 2
#     Edge 66, Type (0, 0), BuildingBlock: XIVTED_clean_linker_0, # of connection points: 2
#     Edge 67, Type (0, 0), BuildingBlock: XIVTED_clean_linker_0, # of connection points: 2
#     Edge 68, Type (0, 0), BuildingBlock: XIVTED_clean_linker_0, # of connection points: 2
#     Edge 69, Type (0, 0), BuildingBlock: XIVTED_clean_linker_0, # of connection points: 2
#     Edge 70, Type (0, 0), BuildingBlock: XIVTED_clean_linker_0, # of connection points: 2
#     Edge 71, Type (0, 0), BuildingBlock: XIVTED_clean_linker_0, # of connection points: 2
#     Edge 72, Type (0, 0), BuildingBlock: XIVTED_clean_linker_0, # of connection points: 2
#     Edge 73, Type (0, 0), BuildingBlock: XIVTED_clean_linker_0, # of connection points: 2
#     Edge 74, Type (0, 0), BuildingBlock: XIVTED_clean_linker_0, # of connection points: 2
#     Edge 75, Type (0, 0), BuildingBlock: XIVTED_clean_linker_0, # of connection points: 2
#     Edge 76, Type (0, 0), BuildingBlock: XIVTED_clean_linker_0, # of connection points: 2
#     Edge 77, Type (0, 0), BuildingBlock: XIVTED_clean_linker_0, # of connection points: 2
#     Edge 78, Type (0, 0), BuildingBlock: XIVTED_clean_linker_0, # of connection points: 2
#     Edge 79, Type (0, 0), BuildingBlock: XIVTED_clean_linker_0, # of connection points: 2
#     Edge 80, Type (0, 0), BuildingBlock: XIVTED_clean_linker_0, # of connection points: 2
#     Edge 81, Type (0, 0), BuildingBlock: XIVTED_clean_linker_0, # of connection points: 2
#     Edge 82, Type (0, 0), BuildingBlock: XIVTED_clean_linker_0, # of connection points: 2
#     Edge 83, Type (0, 0), BuildingBlock: XIVTED_clean_linker_0, # of connection points: 2
# Relax obj value: 0.276
# Max RMSD: 0.212
# Mean RMSD: 0.212
data_MOF--net-fcp--node1-BEQFEK_clean_sbu_0--edge1-XIVTED_clean_linker_0
_symmetry_space_group_name_H-M    P1
_symmetry_Int_Tables_number       1
_symmetry_cell_setting            triclinic
loop_
_symmetry_equiv_pos_as_xyz
'x, y, z'
_cell_length_a     52.020895
_cell_length_b     52.030885
_cell_length_c     52.05786
_cell_angle_alpha  89.939268
_cell_angle_beta   90.012308
_cell_angle_gamma 90.000367
loop_
_atom_site_label
_atom_site_type_symbol
_atom_site_fract_x
_atom_site_fract_y
_atom_site_fract_z
_atom_type_partial_charge
Co0 Co 0.02769 0.32605 0.16616 0.0
Co1 Co 0.0817 0.31509 0.14187 0.0
C2 C 0.05378 0.27628 0.17472 0.0
O3 O 0.03436 0.29071 0.17806 0.0
O4 O 0.07286 0.28359 0.16128 0.0
C5 C 0.97884 0.32259 0.19148 0.0
O6 O 0.98571 0.29866 0.19557 0.0
C7 C 0.11596 0.28453 0.11066 0.0
C8 C 0.15015 0.30931 0.10641 0.0
C9 C 0.14052 0.2852 0.10038 0.0
N10 N 0.11142 0.307 0.12242 0.0
N11 N 0.13183 0.32186 0.11971 0.0
C12 C 0.09644 0.26352 0.10839 0.0
H13 H 0.07672 0.27162 0.10925 0.0
H14 H 0.09906 0.25275 0.09019 0.0
H15 H 0.09875 0.25 0.12468 0.0
C16 C 0.0146 0.3335 0.11095 0.0
N17 N 0.03141 0.32873 0.13006 0.0
N18 N 0.05443 0.32536 0.12016 0.0
C19 C 0.0532 0.32858 0.09456 0.0
C20 C 0.02787 0.33348 0.08775 0.0
C21 C 0.98624 0.33619 0.11487 0.0
H22 H 0.98187 0.35637 0.12022 0.0
H23 H 0.97985 0.32355 0.1308 0.0
H24 H 0.97545 0.33128 0.09716 0.0
O25 O 0.05217 0.34907 0.18428 0.0
O26 O 0.09045 0.34208 0.16681 0.0
H27 H 0.09264 0.33771 0.08673 0.0
H28 H 0.0721 0.33863 0.05889 0.0
C29 C 0.07611 0.32834 0.07714 0.0
H30 H 0.08136 0.30818 0.07268 0.0
H31 H 0.13343 0.34033 0.12734 0.0
O32 O 0.99321 0.33706 0.178 0.0
C33 C 0.07622 0.35355 0.18302 0.0
Co34 Co 0.83115 0.45578 0.32802 0.0
Co35 Co 0.81762 0.40387 0.3557 0.0
C36 C 0.77922 0.43156 0.32296 0.0
O37 O 0.79488 0.4497 0.31808 0.0
O38 O 0.78559 0.41276 0.33726 0.0
C39 C 0.82786 0.50363 0.30054 0.0
O40 O 0.80359 0.49736 0.29756 0.0
C41 C 0.78861 0.3669 0.38654 0.0
C42 C 0.81828 0.33839 0.39697 0.0
C43 C 0.79228 0.34377 0.39931 0.0
N44 N 0.81126 0.37464 0.37686 0.0
N45 N 0.82897 0.3576 0.38329 0.0
C46 C 0.76445 0.38241 0.38495 0.0
H47 H 0.769 0.40318 0.38335 0.0
H48 H 0.7522 0.37911 0.40209 0.0
H49 H 0.7536 0.37654 0.36761 0.0
C50 C 0.84451 0.47038 0.38156 0.0
N51 N 0.83593 0.45344 0.364 0.0
N52 N 0.8294 0.43198 0.37568 0.0
C53 C 0.83291 0.43478 0.40115 0.0
C54 C 0.8429 0.45915 0.40578 0.0
C55 C 0.85486 0.49638 0.3749 0.0
H56 H 0.86674 0.49514 0.35726 0.0
H57 H 0.83857 0.50958 0.37094 0.0
H58 H 0.86672 0.50435 0.39072 0.0
O59 O 0.85245 0.4302 0.31029 0.0
O60 O 0.84368 0.39333 0.32982 0.0
H61 H 0.838 0.39896 0.42069 0.0
H62 H 0.82315 0.42357 0.44024 0.0
C63 C 0.8244 0.41537 0.42066 0.0
H64 H 0.80511 0.40811 0.4155 0.0
H65 H 0.84828 0.35891 0.37803 0.0
O66 O 0.84237 0.48937 0.31408 0.0
C67 C 0.85562 0.40609 0.31268 0.0
Co68 Co 0.95828 0.65143 0.16101 0.0
Co69 Co 0.90492 0.66954 0.13879 0.0
C70 C 0.93603 0.70287 0.17366 0.0
O71 O 0.95328 0.68575 0.17619 0.0
O72 O 0.91652 0.69942 0.15931 0.0
C73 C 0.00917 0.65327 0.18184 0.0
O74 O 0.00534 0.67822 0.18162 0.0
C75 C 0.86148 0.7004 0.11883 0.0
C76 C 0.8415 0.67184 0.09461 0.0
C77 C 0.84092 0.69743 0.10197 0.0
N78 N 0.87411 0.67788 0.12042 0.0
N79 N 0.86171 0.66079 0.10634 0.0
C80 C 0.86728 0.72306 0.13559 0.0
H81 H 0.87261 0.71639 0.15508 0.0
H82 H 0.8837 0.73391 0.12736 0.0
H83 H 0.85044 0.73594 0.13759 0.0
C84 C 0.97071 0.64903 0.10555 0.0
N85 N 0.95396 0.65255 0.12495 0.0
N86 N 0.93171 0.66016 0.11555 0.0
C87 C 0.93373 0.66202 0.08979 0.0
C88 C 0.95846 0.65499 0.08261 0.0
C89 C -0.00155 0.64251 0.1094 0.0
H90 H 0.00726 0.65677 0.12258 0.0
H91 H 0.00923 0.64235 0.09102 0.0
H92 H -7e-05 0.62339 0.11874 0.0
O93 O 0.9335 0.62807 0.17725 0.0
O94 O 0.89572 0.64113 0.16256 0.0
H95 H 0.89755 0.65529 0.07184 0.0
H96 H 0.91887 0.67373 0.05242 0.0
C97 C 0.9124 0.67052 0.07241 0.0
H98 H 0.90362 0.68842 0.07991 0.0
H99 H 0.8672 0.64158 0.10458 0.0
O100 O 0.99243 0.63854 0.17183 0.0
C101 C 0.90914 0.62635 0.1767 0.0
Co102 Co 0.15456 0.52609 0.3282 0.0
Co103 Co 0.16764 0.58009 0.35139 0.0
C104 C 0.20415 0.55153 0.31647 0.0
O105 O 0.18928 0.53226 0.31427 0.0
O106 O 0.19796 0.57082 0.33018 0.0
C107 C 0.15765 0.47522 0.30717 0.0
O108 O 0.18246 0.47982 0.30627 0.0
C109 C 0.19991 0.61671 0.37859 0.0
C110 C 0.17314 0.64848 0.38718 0.0
C111 C 0.19863 0.64101 0.38936 0.0
N112 N 0.1764 0.61023 0.37014 0.0
N113 N 0.16041 0.62922 0.37546 0.0
C114 C 0.22269 0.59918 0.37762 0.0
H115 H 0.21638 0.57881 0.37744 0.0
H116 H 0.23553 0.60259 0.39431 0.0
H117 H 0.23367 0.603 0.35981 0.0
C118 C 0.14947 0.51334 0.38346 0.0
N119 N 0.15369 0.53013 0.36424 0.0
N120 N 0.15844 0.55296 0.37401 0.0
C121 C 0.15702 0.5515 0.39982 0.0
C122 C 0.15133 0.52634 0.40666 0.0
C123 C 0.14393 0.48542 0.37946 0.0
H124 H 0.12738 0.48335 0.36619 0.0
H125 H 0.1608 0.4762 0.37023 0.0
H126 H 0.13953 0.4755 0.39782 0.0
O127 O 0.13097 0.55036 0.31102 0.0
O128 O 0.13931 0.58878 0.32746 0.0
H129 H 0.15102 0.59018 0.41237 0.0
H130 H 0.15972 0.5683 0.43794 0.0
C131 C 0.16304 0.57335 0.41753 0.0
H132 H 0.18348 0.57884 0.41519 0.0
H133 H 0.14092 0.62921 0.3707 0.0
O134 O 0.14278 0.49169 0.31734 0.0
C135 C 0.12685 0.57444 0.31205 0.0
Co136 Co 0.02286 0.66751 0.82341 0.0
Co137 Co 0.0763 0.6806 0.84799 0.0
C138 C 0.04939 0.71705 0.81234 0.0
O139 O 0.03053 0.70182 0.80932 0.0
O140 O 0.06809 0.71144 0.8271 0.0
C141 C 0.97356 0.67136 0.79875 0.0
O142 O 0.98003 0.69549 0.7951 0.0
C143 C 0.11307 0.71101 0.87698 0.0
C144 C 0.14345 0.68282 0.88622 0.0
C145 C 0.13679 0.70849 0.88888 0.0
N146 N 0.10618 0.68803 0.86757 0.0
N147 N 0.12434 0.67119 0.87321 0.0
C148 C 0.09632 0.73436 0.8758 0.0
H149 H 0.07577 0.72867 0.87509 0.0
H150 H 0.09969 0.74696 0.89266 0.0
H151 H 0.10083 0.74529 0.85807 0.0
C152 C 0.00916 0.66122 0.87841 0.0
N153 N 0.02607 0.66658 0.85957 0.0
N154 N 0.04871 0.67128 0.86982 0.0
C155 C 0.04704 0.66864 0.8955 0.0
C156 C 0.02198 0.66217 0.90177 0.0
C157 C 0.98149 0.65488 0.87388 0.0
H158 H 0.98019 0.63782 0.86117 0.0
H159 H 0.97212 0.67115 0.86374 0.0
H160 H 0.97121 0.6509 0.89213 0.0
O161 O 0.04697 0.64317 0.80705 0.0
O162 O 0.08497 0.65247 0.82401 0.0
H163 H 0.08524 0.66088 0.90859 0.0
H164 H 0.06323 0.66963 0.93397 0.0
C165 C 0.06878 0.67338 0.91375 0.0
H166 H 0.07504 0.69366 0.91208 0.0
H167 H 0.12381 0.65185 0.86795 0.0
O168 O 0.98829 0.65682 0.81175 0.0
C169 C 0.0711 0.63948 0.80862 0.0
Co170 Co 0.15725 0.46692 0.66714 0.0
Co171 Co 0.17666 0.41382 0.64633 0.0
C172 C 0.20819 0.44569 0.6825 0.0
O173 O 0.19105 0.46305 0.68376 0.0
O174 O 0.20533 0.4259 0.66843 0.0
C175 C 0.15673 0.51823 0.68667 0.0
O176 O 0.1818 0.51525 0.68724 0.0
C177 C 0.2118 0.37815 0.62108 0.0
C178 C 0.18639 0.34543 0.6118 0.0
C179 C 0.2116 0.35387 0.61013 0.0
N180 N 0.18787 0.38372 0.62897 0.0
N181 N 0.17274 0.3641 0.62338 0.0
C182 C 0.23392 0.39641 0.62291 0.0
H183 H 0.22692 0.41655 0.62224 0.0
H184 H 0.24783 0.3931 0.60709 0.0
H185 H 0.2439 0.39337 0.64149 0.0
C186 C 0.15445 0.47786 0.61116 0.0
N187 N 0.15932 0.46217 0.63116 0.0
N188 N 0.16668 0.43961 0.62245 0.0
C189 C 0.16635 0.44007 0.59659 0.0
C190 C 0.15876 0.46438 0.58851 0.0
C191 C 0.14725 0.50556 0.61393 0.0
H192 H 0.15852 0.51436 0.62971 0.0
H193 H 0.1507 0.51643 0.59592 0.0
H194 H 0.12658 0.50688 0.61905 0.0
O195 O 0.13415 0.44147 0.68307 0.0
O196 O 0.1478 0.40367 0.66898 0.0
H197 H 0.16167 0.40017 0.58785 0.0
H198 H 0.16534 0.4202 0.55996 0.0
C199 C 0.17179 0.41719 0.58004 0.0
H200 H 0.19274 0.41322 0.58018 0.0
H201 H 0.15314 0.36343 0.62757 0.0
O202 O 0.14284 0.50068 0.67691 0.0
C203 C 0.13265 0.41708 0.68269 0.0
Co204 Co 0.96003 0.33836 0.82966 0.0
Co205 Co 0.90687 0.32265 0.85398 0.0
C206 C 0.93654 0.2866 0.82064 0.0
O207 O 0.95413 0.30317 0.81694 0.0
O208 O 0.91735 0.29129 0.83506 0.0
C209 C 0.00991 0.33556 0.80618 0.0
O210 O 0.00482 0.31092 0.80421 0.0
C211 C 0.86249 0.29432 0.87486 0.0
C212 C 0.84622 0.3225 0.9021 0.0
C213 C 0.8434 0.29753 0.89328 0.0
N214 N 0.8765 0.316 0.87367 0.0
N215 N 0.86634 0.33294 0.88962 0.0
C216 C 0.86576 0.27228 0.85667 0.0
H217 H 0.87115 0.27955 0.8374 0.0
H218 H 0.88133 0.25956 0.86379 0.0
H219 H 0.84777 0.26104 0.85466 0.0
C220 C 0.97321 0.34586 0.88426 0.0
N221 N 0.95623 0.34022 0.8656 0.0
N222 N 0.93429 0.33309 0.87604 0.0
C223 C 0.93694 0.33335 0.90182 0.0
C224 C 0.96148 0.34185 0.90784 0.0
C225 C 0.00022 0.35442 0.87935 0.0
H226 H 0.00028 0.36966 0.86443 0.0
H227 H 0.01152 0.33794 0.87191 0.0
H228 H 0.00944 0.36186 0.89707 0.0
O229 O 0.93545 0.36088 0.8124 0.0
O230 O 0.8976 0.34978 0.82848 0.0
H231 H 0.90398 0.33725 0.92599 0.0
H232 H 0.92758 0.31514 0.938 0.0
C233 C 0.91792 0.32217 0.92033 0.0
H234 H 0.90752 0.3059 0.91139 0.0
H235 H 0.87337 0.35154 0.89223 0.0
O236 O 0.99418 0.35014 0.81786 0.0
C237 C 0.91117 0.36325 0.8132 0.0
Co238 Co 0.83346 0.5314 0.66114 0.0
Co239 Co 0.81673 0.58282 0.63415 0.0
C240 C 0.7805 0.55417 0.66739 0.0
O241 O 0.79754 0.53731 0.67225 0.0
O242 O 0.78493 0.57282 0.6522 0.0
C243 C 0.82977 0.4821 0.68584 0.0
O244 O 0.80499 0.48691 0.6863 0.0
C245 C 0.78936 0.62609 0.60973 0.0
C246 C 0.81916 0.64112 0.58346 0.0
C247 C 0.79375 0.64439 0.59073 0.0
N248 N 0.81091 0.61214 0.61278 0.0
N249 N 0.82876 0.62153 0.59734 0.0
C250 C 0.76621 0.62347 0.62663 0.0
H251 H 0.77225 0.61871 0.64649 0.0
H252 H 0.75391 0.60766 0.61933 0.0
H253 H 0.75491 0.64152 0.62728 0.0
C254 C 0.84606 0.51753 0.60736 0.0
N255 N 0.83722 0.53405 0.62518 0.0
N256 N 0.82853 0.55485 0.61373 0.0
C257 C 0.83021 0.55161 0.58811 0.0
C258 C 0.84197 0.52813 0.58316 0.0
C259 C 0.85883 0.49255 0.61372 0.0
H260 H 0.87015 0.4945 0.63166 0.0
H261 H 0.84388 0.47767 0.61687 0.0
H262 H 0.87174 0.48626 0.59796 0.0
O263 O 0.85469 0.55696 0.67844 0.0
O264 O 0.84269 0.59364 0.66035 0.0
H265 H 0.83125 0.58342 0.56201 0.0
H266 H 0.81075 0.55753 0.55194 0.0
C267 C 0.81738 0.56874 0.56882 0.0
H268 H 0.80053 0.57844 0.57748 0.0
H269 H 0.84743 0.61431 0.59606 0.0
O270 O 0.84484 0.49776 0.67466 0.0
C271 C 0.85612 0.58126 0.67668 0.0
Co272 Co 0.17033 0.03828 0.35337 0.0
Co273 Co 0.14649 0.09095 0.33681 0.0
C274 C 0.18013 0.06012 0.30141 0.0
O275 O 0.18351 0.04249 0.318 0.0
O276 O 0.16611 0.07961 0.30615 0.0
C277 C 0.18701 0.98616 0.35075 0.0
O278 O 0.18241 0.98909 0.32611 0.0
C279 C 0.11696 0.12508 0.30404 0.0
C280 C 0.10873 0.15804 0.32946 0.0
C281 C 0.10506 0.14888 0.30473 0.0
N282 N 0.12732 0.12044 0.32719 0.0
N283 N 0.12233 0.14016 0.34236 0.0
C284 C 0.11717 0.10621 0.28238 0.0
H285 H 0.11867 0.08629 0.28986 0.0
H286 H 0.09952 0.1081 0.27053 0.0
H287 H 0.13409 0.11005 0.27004 0.0
C288 C 0.11485 0.02522 0.35863 0.0
N289 N 0.13409 0.04212 0.35462 0.0
N290 N 0.12421 0.06457 0.34841 0.0
C291 C 0.09839 0.06272 0.34864 0.0
C292 C 0.0916 0.03777 0.35489 0.0
C293 C 0.11882 -0.0029 0.36302 0.0
H294 H 0.13199 0.99427 0.37954 0.0
H295 H 0.1281 0.98859 0.34582 0.0
H296 H 0.10037 0.98707 0.36677 0.0
O297 O 0.18813 0.06393 0.37499 0.0
O298 O 0.17137 0.10141 0.36348 0.0
H299 H 0.08639 0.10207 0.351 0.0
H300 H 0.06034 0.07944 0.34768 0.0
C301 C 0.0803 0.08397 0.34162 0.0
H302 H 0.08047 0.08674 0.32052 0.0
H303 H 0.12826 0.14144 0.36146 0.0
O304 O 0.18165 0.00435 0.3661 0.0
C305 C 0.1871 0.08829 0.37686 0.0
Co306 Co 0.52444 0.31975 0.16507 0.0
Co307 Co 0.57774 0.3448 0.17767 0.0
C308 C 0.55156 0.30917 0.21451 0.0
O309 O 0.53271 0.30595 0.19933 0.0
O310 O 0.57014 0.32402 0.20879 0.0
C311 C 0.47469 0.2964 0.17103 0.0
O312 O 0.48145 0.29383 0.1952 0.0
C313 C 0.61502 0.37412 0.20722 0.0
C314 C 0.6444 0.38403 0.17823 0.0
C315 C 0.63844 0.38646 0.20407 0.0
N316 N 0.60762 0.36468 0.1844 0.0
N317 N 0.6252 0.37071 0.1671 0.0
C318 C 0.59888 0.37267 0.23097 0.0
H319 H 0.5782 0.37158 0.22582 0.0
H320 H 0.60224 0.38962 0.24345 0.0
H321 H 0.60399 0.35503 0.2418 0.0
C322 C 0.51026 0.37452 0.15822 0.0
N323 N 0.52734 0.35593 0.16389 0.0
N324 N 0.5498 0.36648 0.16879 0.0
C325 C 0.54778 0.39217 0.16622 0.0
C326 C 0.52268 0.39811 0.15939 0.0
C327 C 0.48289 0.36948 0.15098 0.0
H328 H 0.48226 0.35503 0.13533 0.0
H329 H 0.47262 0.36124 0.16775 0.0
H330 H 0.47298 0.38724 0.14456 0.0
O331 O 0.54813 0.30356 0.14031 0.0
O332 O 0.58608 0.32085 0.14929 0.0
H333 H 0.58543 0.4067 0.15836 0.0
H334 H 0.56308 0.43095 0.16929 0.0
C335 C 0.56918 0.41067 0.17155 0.0
H336 H 0.57601 0.40793 0.19151 0.0
H337 H 0.62417 0.36557 0.14775 0.0
O338 O 0.4896 0.30802 0.15553 0.0
C339 C 0.5722 0.30541 0.13634 0.0
Co340 Co 0.83632 0.96589 0.31814 0.0
Co341 Co 0.86353 0.91256 0.30977 0.0
C342 C 0.82572 0.93452 0.27168 0.0
O343 O 0.82303 0.95544 0.28403 0.0
O344 O 0.8405 0.91677 0.27976 0.0
C345 C 0.80491 0.0109 0.31459 0.0
O346 O 0.79638 -0.00012 0.29357 0.0
C347 C 0.88932 0.86961 0.28369 0.0
C348 C 0.91226 0.8526 0.31517 0.0
C349 C 0.90705 0.85039 0.28917 0.0
N350 N 0.88495 0.88304 0.30529 0.0
N351 N 0.89849 0.8726 0.32408 0.0
C352 C 0.87423 0.87336 0.25947 0.0
H353 H 0.85351 0.87345 0.26426 0.0
H354 H 0.87918 0.89223 0.25084 0.0
H355 H 0.87729 0.85784 0.2453 0.0
C356 C 0.89042 0.98259 0.32419 0.0
N357 N 0.87256 0.96447 0.31943 0.0
N358 N 0.88408 0.9424 0.3149 0.0
C359 C 0.90973 0.94601 0.31591 0.0
C360 C 0.91452 0.97146 0.32206 0.0
C361 C 0.88435 0.00998 0.33037 0.0
H362 H 0.87293 0.01072 0.34836 0.0
H363 H 0.87234 0.01824 0.3148 0.0
H364 H 0.90208 0.02163 0.33266 0.0
O365 O 0.821 0.94282 0.3441 0.0
O366 O 0.8412 0.90556 0.33966 0.0
H367 H 0.93 0.91288 0.32905 0.0
H368 H 0.94887 0.93352 0.3089 0.0
C369 C 0.92939 0.92541 0.31184 0.0
H370 H 0.92414 0.91364 0.2949 0.0
H371 H 0.89836 0.87918 0.34301 0.0
O372 O 0.82317 0.00043 0.32703 0.0
C373 C 0.82452 0.91956 0.35077 0.0
Co374 Co 0.45139 0.65562 0.14792 0.0
Co375 Co 0.39681 0.63128 0.15543 0.0
C376 C 0.42125 0.66699 0.19432 0.0
O377 O 0.44233 0.66898 0.18215 0.0
O378 O 0.40278 0.65359 0.18558 0.0
C379 C 0.50024 0.68046 0.15424 0.0
O380 O 0.49321 0.68217 0.1784 0.0
C381 C 0.36113 0.60291 0.18682 0.0
C382 C 0.32872 0.59467 0.1607 0.0
C383 C 0.33687 0.59194 0.18593 0.0
N384 N 0.36691 0.61194 0.16339 0.0
N385 N 0.34757 0.60685 0.14774 0.0
C386 C 0.37924 0.60395 0.20915 0.0
H387 H 0.39944 0.60361 0.20228 0.0
H388 H 0.3759 0.58757 0.22242 0.0
H389 H 0.37622 0.62216 0.21979 0.0
C390 C 0.46572 0.60021 0.1457 0.0
N391 N 0.44833 0.61935 0.14708 0.0
N392 N 0.4252 0.60935 0.14928 0.0
C393 C 0.42703 0.58357 0.14876 0.0
C394 C 0.45277 0.57684 0.14683 0.0
C395 C 0.49417 0.60441 0.14549 0.0
H396 H 0.4991 0.62147 0.15726 0.0
H397 H 0.50459 0.58735 0.15293 0.0
H398 H 0.50046 0.60816 0.12547 0.0
O399 O 0.42813 0.67225 0.1225 0.0
O400 O 0.3898 0.65388 0.12606 0.0
H401 H 0.40957 0.5465 0.1417 0.0
H402 H 0.39768 0.56355 0.16941 0.0
C403 C 0.40446 0.56573 0.14933 0.0
H404 H 0.38858 0.57376 0.13763 0.0
H405 H 0.34703 0.61215 0.12841 0.0
O406 O 0.48619 0.66803 0.13857 0.0
C407 C 0.40474 0.67015 0.11557 0.0
Co408 Co 0.17093 0.95731 0.63821 0.0
Co409 Co 0.14578 0.90497 0.65493 0.0
C410 C 0.17864 0.93553 0.69087 0.0
O411 O 0.18295 0.95263 0.67393 0.0
O412 O 0.16412 0.91637 0.6863 0.0
C413 C 0.18884 0.00907 0.64156 0.0
O414 O 0.18454 0.0059 0.66622 0.0
C415 C 0.12182 0.86336 0.68484 0.0
C416 C 0.09647 0.84539 0.65592 0.0
C417 C 0.10295 0.84471 0.68173 0.0
N418 N 0.12546 0.8752 0.66217 0.0
N419 N 0.11067 0.86399 0.64485 0.0
C420 C 0.13783 0.86841 0.70819 0.0
H421 H 0.15803 0.87199 0.70246 0.0
H422 H 0.13038 0.88571 0.71816 0.0
H423 H 0.13769 0.85184 0.72159 0.0
C424 C 0.1163 0.97112 0.63051 0.0
N425 N 0.13487 0.95388 0.63582 0.0
N426 N 0.1242 0.93208 0.64303 0.0
C427 C 0.09843 0.93496 0.64287 0.0
C428 C 0.09261 0.9596 0.63456 0.0
C429 C 0.12128 -0.00151 0.62326 0.0
H430 H 0.13586 -0.00076 0.60773 0.0
H431 H 0.12919 0.00883 0.64014 0.0
H432 H 0.10344 0.00821 0.61676 0.0
O433 O 0.1889 0.93176 0.61712 0.0
O434 O 0.17189 0.89456 0.6291 0.0
H435 H 0.07522 0.90122 0.63999 0.0
H436 H 0.06163 0.92568 0.66011 0.0
C437 C 0.07984 0.9162 0.65438 0.0
H438 H 0.08835 0.90704 0.6716 0.0
H439 H 0.10975 0.86952 0.6256 0.0
O440 O 0.18299 0.99118 0.62604 0.0
C441 C 0.18791 0.90739 0.61577 0.0
Co442 Co 0.45433 0.33483 0.84471 0.0
Co443 Co 0.40072 0.36154 0.83536 0.0
C444 C 0.42494 0.32547 0.7969 0.0
O445 O 0.44528 0.32249 0.81009 0.0
O446 O 0.40661 0.33966 0.80472 0.0
C447 C 0.5024 0.30841 0.83851 0.0
O448 O 0.49515 0.30637 0.81444 0.0
C449 C 0.35943 0.38798 0.80739 0.0
C450 C 0.34155 0.41166 0.83773 0.0
C451 C 0.34081 0.40661 0.81161 0.0
N452 N 0.37127 0.38296 0.82979 0.0
N453 N 0.36023 0.39689 0.84792 0.0
C454 C 0.36431 0.37317 0.78324 0.0
H455 H 0.36377 0.3524 0.78775 0.0
H456 H 0.38368 0.37798 0.77572 0.0
H457 H 0.3496 0.37676 0.76829 0.0
C458 C 0.47076 0.3891 0.84929 0.0
N459 N 0.45248 0.37101 0.84631 0.0
N460 N 0.43016 0.38226 0.84225 0.0
C461 C 0.43363 0.40794 0.84243 0.0
C462 C 0.45933 0.41309 0.84718 0.0
C463 C 0.4986 0.38328 0.8534 0.0
H464 H 0.50067 0.36971 0.86973 0.0
H465 H 0.50638 0.37367 0.83604 0.0
H466 H 0.50983 0.40097 0.85738 0.0
O467 O 0.43037 0.31857 0.8693 0.0
O468 O 0.3928 0.33809 0.86416 0.0
H469 H 0.39994 0.42955 0.85154 0.0
H470 H 0.4219 0.44624 0.83069 0.0
C471 C 0.41345 0.4272 0.83526 0.0
H472 H 0.40268 0.42041 0.81822 0.0
H473 H 0.3658 0.3967 0.86718 0.0
O474 O 0.4887 0.32135 0.85406 0.0
C475 C 0.40679 0.32132 0.87519 0.0
Co476 Co 0.83535 0.02298 0.66814 0.0
Co477 Co 0.8596 0.07685 0.68131 0.0
C478 C 0.82562 0.04843 0.71853 0.0
O479 O 0.82243 0.02969 0.70319 0.0
O480 O 0.83965 0.06757 0.71251 0.0
C481 C 0.80711 0.97582 0.66899 0.0
O482 O 0.79994 0.98387 0.69178 0.0
C483 C 0.88289 0.12033 0.70928 0.0
C484 C 0.90389 0.14026 0.6782 0.0
C485 C 0.89927 0.14089 0.7044 0.0
N486 N 0.87897 0.10759 0.68716 0.0
N487 N 0.89115 0.11993 0.6686 0.0
C488 C 0.86822 0.1149 0.73341 0.0
H489 H 0.84777 0.11152 0.72855 0.0
H490 H 0.87603 0.09732 0.74264 0.0
H491 H 0.86882 0.13116 0.7471 0.0
C492 C 0.89029 0.00993 0.66064 0.0
N493 N 0.87149 0.02672 0.66649 0.0
N494 N 0.88178 0.04916 0.67205 0.0
C495 C 0.90757 0.04726 0.67012 0.0
C496 C 0.9138 0.02236 0.66276 0.0
C497 C 0.88564 0.98231 0.65417 0.0
H498 H 0.87173 0.97395 0.66801 0.0
H499 H 0.9037 0.97098 0.65457 0.0
H500 H 0.87696 0.9811 0.63473 0.0
O501 O 0.81818 0.04708 0.64451 0.0
O502 O 0.83511 0.0851 0.65344 0.0
H503 H 0.92336 0.08288 0.65756 0.0
H504 H 0.9461 0.06331 0.67402 0.0
C505 C 0.92572 0.06931 0.67378 0.0
H506 H 0.92122 0.07942 0.69196 0.0
H507 H 0.89078 0.11442 0.64933 0.0
O508 O 0.82369 0.98869 0.65645 0.0
C509 C 0.8196 0.07117 0.64069 0.0
Co510 Co 0.52746 0.67018 0.82306 0.0
Co511 Co 0.5816 0.64612 0.81101 0.0
C512 C 0.55516 0.68149 0.7741 0.0
O513 O 0.53615 0.6845 0.78912 0.0
O514 O 0.57386 0.66683 0.77994 0.0
C515 C 0.47769 0.69323 0.81652 0.0
O516 O 0.48499 0.69626 0.79257 0.0
C517 C 0.62399 0.62061 0.78351 0.0
C518 C 0.64405 0.60071 0.81524 0.0
C519 C 0.64401 0.6037 0.78879 0.0
N520 N 0.61217 0.62642 0.80573 0.0
N521 N 0.62458 0.61488 0.82465 0.0
C522 C 0.61782 0.63342 0.75849 0.0
H523 H 0.61576 0.65436 0.76165 0.0
H524 H 0.59931 0.62588 0.75103 0.0
H525 H 0.63316 0.63076 0.744 0.0
C526 C 0.51374 0.61508 0.8277 0.0
N527 N 0.53088 0.63401 0.82344 0.0
N528 N 0.5535 0.62384 0.81845 0.0
C529 C 0.55141 0.59801 0.8192 0.0
C530 C 0.52617 0.59162 0.8251 0.0
C531 C 0.48584 0.61961 0.83295 0.0
H532 H 0.47797 0.63306 0.81838 0.0
H533 H 0.47464 0.60147 0.83257 0.0
H534 H 0.48374 0.62885 0.85204 0.0
O535 O 0.55034 0.68639 0.84852 0.0
O536 O 0.58871 0.66997 0.83984 0.0
H537 H 0.58725 0.5826 0.83168 0.0
H538 H 0.56748 0.55948 0.81588 0.0
C539 C 0.57349 0.57988 0.81569 0.0
H540 H 0.58339 0.58412 0.79732 0.0
H541 H 0.61943 0.61629 0.84397 0.0
O542 O 0.49228 0.68134 0.83214 0.0
C543 C 0.57438 0.68494 0.85282 0.0
Co544 Co 0.33052 0.15938 0.03619 0.0
Co545 Co 0.31534 0.13161 0.08779 0.0
C546 C 0.2772 0.16267 0.05833 0.0
O547 O 0.29378 0.16799 0.04116 0.0
O548 O 0.2828 0.14847 0.07747 0.0
C549 C 0.32802 0.18761 0.98897 0.0
O550 O 0.3035 0.18949 0.99461 0.0
C551 C 0.28916 0.10843 0.13232 0.0
C552 C 0.31838 0.08105 0.14649 0.0
C553 C 0.29355 0.08965 0.15083 0.0
N554 N 0.31005 0.11011 0.11721 0.0
N555 N 0.32759 0.094 0.12607 0.0
C556 C 0.26693 0.12663 0.13074 0.0
H557 H 0.27366 0.14586 0.1245 0.0
H558 H 0.25291 0.1193 0.11646 0.0
H559 H 0.25724 0.12875 0.1496 0.0
C560 C 0.34493 0.10633 0.02195 0.0
N561 N 0.33616 0.12369 0.03896 0.0
N562 N 0.32804 0.11174 0.05972 0.0
C563 C 0.33004 0.08619 0.05596 0.0
C564 C 0.34134 0.08186 0.03213 0.0
C565 C 0.35669 0.11336 -0.00332 0.0
H566 H 0.36809 0.13126 -0.00132 0.0
H567 H 0.34117 0.11694 0.9825 0.0
H568 H 0.36936 0.0978 0.98946 0.0
O569 O 0.35013 0.17782 0.06216 0.0
O570 O 0.34022 0.1587 0.09888 0.0
H571 H 0.33168 0.05901 0.08681 0.0
H572 H 0.31051 0.04993 0.06112 0.0
C573 C 0.3175 0.0664 0.07272 0.0
H574 H 0.30093 0.07481 0.0831 0.0
H575 H 0.34589 0.09184 0.11814 0.0
O576 O 0.34253 0.17395 0.00312 0.0
C577 C 0.35225 0.17597 0.08637 0.0
Co578 Co 0.33225 0.82949 0.95048 0.0
Co579 Co 0.31777 0.85781 0.89901 0.0
C580 C 0.27914 0.8268 0.92804 0.0
O581 O 0.29547 0.82105 0.94531 0.0
O582 O 0.28512 0.84113 0.90912 0.0
C583 C 0.32886 0.80275 -0.00145 0.0
O584 O 0.30408 0.80269 0.99375 0.0
C585 C 0.29124 0.88209 0.85534 0.0
C586 C 0.32044 0.90953 0.8413 0.0
C587 C 0.29539 0.90139 0.83735 0.0
N588 N 0.31246 0.87969 0.86987 0.0
N589 N 0.33001 0.89583 0.86106 0.0
C590 C 0.26874 0.86424 0.85697 0.0
H591 H 0.27526 0.84474 0.86251 0.0
H592 H 0.25521 0.87147 0.87175 0.0
H593 H 0.25857 0.86281 0.8383 0.0
C594 C 0.34659 0.88239 0.96544 0.0
N595 N 0.33809 0.8652 0.94811 0.0
N596 N 0.33035 0.87737 0.92734 0.0
C597 C 0.33233 0.90287 0.93138 0.0
C598 C 0.34323 0.90696 0.95543 0.0
C599 C 0.35778 0.87513 0.99092 0.0
H600 H 0.36938 0.85735 0.98896 0.0
H601 H 0.34194 0.87121 0.00464 0.0
H602 H 0.37013 0.89069 -0.00134 0.0
O603 O 0.35192 0.81117 0.92447 0.0
O604 O 0.34259 0.83071 0.8878 0.0
H605 H 0.33429 0.93021 0.90068 0.0
H606 H 0.31304 0.9393 0.9263 0.0
C607 C 0.31999 0.92285 0.91466 0.0
H608 H 0.30341 0.9146 0.90417 0.0
H609 H 0.34848 0.89762 0.86869 0.0
O610 O 0.34395 0.8147 0.9835 0.0
C611 C 0.35433 0.81322 0.90029 0.0
Co612 Co 0.34166 0.1673 0.5388 0.0
Co613 Co 0.36182 0.17286 0.59516 0.0
C614 C 0.33434 0.21592 0.56783 0.0
O615 O 0.33195 0.203 0.54725 0.0
O616 O 0.3454 0.20648 0.58751 0.0
C617 C 0.31543 0.17302 0.4912 0.0
O618 O 0.30835 0.19497 0.50139 0.0
C619 C 0.39072 0.19668 0.63653 0.0
C620 C 0.38495 0.16914 0.6683 0.0
C621 C 0.39517 0.19303 0.66248 0.0
N622 N 0.37844 0.17593 0.62741 0.0
N623 N 0.37555 0.15925 0.64634 0.0
C624 C 0.39487 0.22081 0.62145 0.0
H625 H 0.38022 0.23523 0.6271 0.0
H626 H 0.39328 0.21696 0.60055 0.0
H627 H 0.4141 0.22897 0.6257 0.0
C628 C 0.39699 0.15606 0.52977 0.0
N629 N 0.37703 0.16157 0.54528 0.0
N630 N 0.38529 0.16316 0.56911 0.0
C631 C 0.41067 0.15817 0.56966 0.0
C632 C 0.41904 0.1537 0.54472 0.0
C633 C 0.39508 0.15491 0.50112 0.0
H634 H 0.38037 0.16871 0.49419 0.0
H635 H 0.41381 0.15933 0.49193 0.0
H636 H 0.38903 0.13529 0.49537 0.0
O637 O 0.32001 0.14376 0.55948 0.0
O638 O 0.33448 0.1471 0.59935 0.0
H639 H 0.44451 0.146 0.59065 0.0
H640 H 0.43071 0.17627 0.60057 0.0
C641 C 0.42626 0.15656 0.59378 0.0
H642 H 0.41512 0.14657 0.60894 0.0
H643 H 0.36575 0.14183 0.64463 0.0
O644 O 0.33167 0.15909 0.50302 0.0
C645 C 0.31897 0.13755 0.58309 0.0
Co646 Co 0.65283 0.16365 0.95988 0.0
Co647 Co 0.66532 0.13957 0.90618 0.0
C648 C 0.70215 0.17491 0.93369 0.0
O649 O 0.6873 0.1777 0.95287 0.0
O650 O 0.696 0.16066 0.91481 0.0
C651 C 0.65574 0.1876 0.00942 0.0
O652 O 0.6802 0.19024 0.00378 0.0
C653 C 0.69716 0.10905 0.87236 0.0
C654 C 0.6725 0.10311 0.83836 0.0
C655 C 0.69682 0.09811 0.84808 0.0
N656 N 0.6743 0.12017 0.87664 0.0
N657 N 0.65953 0.11649 0.85632 0.0
C658 C 0.71818 0.1079 0.89196 0.0
H659 H 0.71004 0.10928 0.91162 0.0
H660 H 0.72934 0.08982 0.89002 0.0
H661 H 0.73134 0.12439 0.88906 0.0
C662 C 0.64803 0.10834 0.97361 0.0
N663 N 0.65214 0.12742 0.95658 0.0
N664 N 0.65626 0.11741 0.93375 0.0
C665 C 0.65435 0.09165 0.9354 0.0
C666 C 0.64935 0.08496 0.96075 0.0
C667 C 0.64455 0.11258 0.00182 0.0
H668 H 0.65691 0.12868 0.0083 0.0
H669 H 0.64933 0.09505 0.01299 0.0
H670 H 0.62424 0.11789 0.00557 0.0
O671 O 0.62891 0.18011 0.93542 0.0
O672 O 0.63692 0.16326 0.89713 0.0
H673 H 0.64655 0.05515 0.91709 0.0
H674 H 0.67635 0.07036 0.90803 0.0
C675 C 0.65589 0.07385 0.91286 0.0
H676 H 0.64629 0.08263 0.89601 0.0
H677 H 0.64077 0.12338 0.85459 0.0
O678 O 0.64117 0.17536 0.99411 0.0
C679 C 0.62452 0.17876 0.91141 0.0
Co680 Co 0.67252 0.84081 0.52102 0.0
Co681 Co 0.6427 0.82483 0.57111 0.0
C682 C 0.67753 0.78816 0.54405 0.0
O683 O 0.68351 0.80491 0.52726 0.0
O684 O 0.66142 0.79307 0.56178 0.0
C685 C 0.7006 0.83833 0.47366 0.0
O686 O 0.70199 0.81367 0.47887 0.0
C687 C 0.61779 0.79672 0.61332 0.0
C688 C 0.58998 0.82534 0.6278 0.0
C689 C 0.59816 0.80021 0.63107 0.0
N690 N 0.6203 0.81842 0.59952 0.0
N691 N 0.60397 0.83561 0.60862 0.0
C692 C 0.63591 0.77445 0.61142 0.0
H693 H 0.65564 0.78145 0.60752 0.0
H694 H 0.62979 0.76184 0.59538 0.0
H695 H 0.63643 0.76314 0.62947 0.0
C696 C 0.6193 0.85047 0.50299 0.0
N697 N 0.63626 0.84385 0.52141 0.0
N698 N 0.62366 0.83666 0.54215 0.0
C699 C 0.59823 0.83794 0.53732 0.0
C700 C 0.59464 0.84718 0.51259 0.0
C701 C 0.62676 0.85922 0.47666 0.0
H702 H 0.6417 0.87436 0.47813 0.0
H703 H 0.63521 0.8428 0.46601 0.0
H704 H 0.60999 0.8668 0.46586 0.0
O705 O 0.68849 0.86213 0.54773 0.0
O706 O 0.66809 0.85058 0.58327 0.0
H707 H 0.57129 0.84213 0.56802 0.0
H708 H 0.5608 0.8208 0.54309 0.0
C709 C 0.57775 0.82709 0.55441 0.0
H710 H 0.5852 0.81036 0.56526 0.0
H711 H 0.60228 0.85433 0.60161 0.0
O712 O 0.68765 0.85295 0.4883 0.0
C713 C 0.68527 0.86374 0.57187 0.0
Co714 Co 0.64882 0.82713 0.03161 0.0
Co715 Co 0.66003 0.85135 0.08564 0.0
C716 C 0.69823 0.81734 0.0589 0.0
O717 O 0.68352 0.81418 0.03965 0.0
O718 O 0.69167 0.83144 0.07777 0.0
C719 C 0.65385 0.80295 0.98224 0.0
O720 O 0.67799 0.8 0.989 0.0
C721 C 0.68872 0.8813 0.12335 0.0
C722 C 0.66169 0.8827 0.156 0.0
C723 C 0.68634 0.88943 0.14852 0.0
N724 N 0.66644 0.87041 0.11614 0.0
N725 N 0.65019 0.87171 0.1356 0.0
C726 C 0.71268 0.88108 0.10748 0.0
H727 H 0.72536 0.8653 0.11422 0.0
H728 H 0.70803 0.87807 0.0869 0.0
H729 H 0.72329 0.89943 0.10976 0.0
C730 C 0.64256 0.8821 0.01805 0.0
N731 N 0.64686 0.86323 0.03522 0.0
N732 N 0.65095 0.87346 0.05796 0.0
C733 C 0.64908 0.89924 0.05605 0.0
C734 C 0.64376 0.90558 0.03065 0.0
C735 C 0.63758 0.87749 0.99012 0.0
H736 H 0.62188 0.86324 0.988 0.0
H737 H 0.65509 0.86921 0.98119 0.0
H738 H 0.6322 0.89547 0.97997 0.0
O739 O 0.62472 0.80971 0.05498 0.0
O740 O 0.63224 0.82632 0.09345 0.0
H741 H 0.64306 0.91177 0.09474 0.0
H742 H 0.65015 0.93758 0.07257 0.0
C743 C 0.65452 0.91738 0.07768 0.0
H744 H 0.67515 0.9161 0.08282 0.0
H745 H 0.6317 0.86392 0.13539 0.0
O746 O 0.63876 0.81542 -0.00315 0.0
C747 C 0.62022 0.8107 0.07896 0.0
Co748 Co 0.33781 0.8254 0.45453 0.0
Co749 Co 0.35563 0.8189 0.39756 0.0
C750 C 0.32657 0.77747 0.42561 0.0
O751 O 0.32538 0.79053 0.4462 0.0
O752 O 0.33781 0.78616 0.4057 0.0
C753 C 0.3161 0.81878 0.50464 0.0
O754 O 0.311 0.79546 0.49649 0.0
C755 C 0.38272 0.79408 0.35561 0.0
C756 C 0.37615 0.82111 0.32354 0.0
C757 C 0.38649 0.79732 0.32952 0.0
N758 N 0.37077 0.81502 0.36471 0.0
N759 N 0.36733 0.83136 0.34557 0.0
C760 C 0.38732 0.77021 0.37098 0.0
H761 H 0.37282 0.75552 0.36563 0.0
H762 H 0.38584 0.77431 0.39184 0.0
H763 H 0.40662 0.76226 0.36664 0.0
C764 C 0.39397 0.83374 0.46164 0.0
N765 N 0.37325 0.82911 0.44685 0.0
N766 N 0.38057 0.82723 0.42274 0.0
C767 C 0.40611 0.83116 0.4213 0.0
C768 C 0.41557 0.83522 0.44593 0.0
C769 C 0.3931 0.83516 0.49033 0.0
H770 H 0.3782 0.82189 0.49786 0.0
H771 H 0.41199 0.83018 0.49891 0.0
H772 H 0.38788 0.855 0.49613 0.0
O773 O 0.3168 0.85035 0.43481 0.0
O774 O 0.32949 0.84602 0.39443 0.0
H775 H 0.40935 0.84253 0.38181 0.0
H776 H 0.43936 0.84274 0.3991 0.0
C777 C 0.42085 0.83244 0.39663 0.0
H778 H 0.42481 0.81264 0.38982 0.0
H779 H 0.35767 0.84886 0.34727 0.0
O780 O 0.32954 0.83366 0.49067 0.0
C781 C 0.31517 0.85649 0.41121 0.0
Co782 Co 0.67296 0.14717 0.46393 0.0
Co783 Co 0.64287 0.1629 0.41385 0.0
C784 C 0.67603 0.2004 0.44247 0.0
O785 O 0.68241 0.18369 0.45917 0.0
O786 O 0.66063 0.19496 0.42425 0.0
C787 C 0.69903 0.14927 0.51259 0.0
O788 O 0.69938 0.17418 0.50851 0.0
C789 C 0.61735 0.19136 0.37214 0.0
C790 C 0.58982 0.16267 0.35731 0.0
C791 C 0.59761 0.18798 0.35448 0.0
N792 N 0.62031 0.16944 0.38549 0.0
N793 N 0.60415 0.1522 0.37616 0.0
C794 C 0.63507 0.2139 0.3744 0.0
H795 H 0.65484 0.20725 0.3787 0.0
H796 H 0.62834 0.22641 0.39026 0.0
H797 H 0.6357 0.22521 0.35634 0.0
C798 C 0.62015 0.13556 0.48147 0.0
N799 N 0.63689 0.14272 0.46307 0.0
N800 N 0.62409 0.14989 0.44245 0.0
C801 C 0.5987 0.1481 0.44737 0.0
C802 C 0.5954 0.13854 0.47203 0.0
C803 C 0.62788 0.12693 0.50777 0.0
H804 H 0.64314 0.11212 0.50624 0.0
H805 H 0.63598 0.14352 0.51845 0.0
H806 H 0.61133 0.11892 0.51858 0.0
O807 O 0.68998 0.12728 0.43677 0.0
O808 O 0.66897 0.13805 0.40131 0.0
H809 H 0.57157 0.14435 0.41676 0.0
H810 H 0.56109 0.1651 0.44218 0.0
C811 C 0.578 0.15915 0.43065 0.0
H812 H 0.58525 0.17615 0.42009 0.0
H813 H 0.60275 0.13334 0.38283 0.0
O814 O 0.68782 0.13465 0.49658 0.0
C815 C 0.68674 0.12561 0.41263 0.0
H816 H 0.18271 0.44097 0.27604 0.0
H817 H 0.05219 0.38144 0.22061 0.0
H818 H 0.10715 0.46089 0.30403 0.0
H819 H 0.12726 0.36532 0.18902 0.0
H820 H 0.07229 0.40847 0.25315 0.0
H821 H 0.16307 0.41006 0.2467 0.0
C822 C 0.16202 0.4386 0.27629 0.0
C823 C 0.14653 0.45373 0.29234 0.0
C824 C 0.08437 0.39903 0.23909 0.0
C825 C 0.12393 0.41863 0.25859 0.0
C826 C 0.0729 0.38366 0.22042 0.0
C827 C 0.08804 0.37114 0.20195 0.0
C828 C 0.1112 0.40193 0.23939 0.0
C829 C 0.1148 0.37468 0.20278 0.0
C830 C 0.15081 0.42106 0.2594 0.0
C831 C 0.11984 0.4498 0.29184 0.0
N832 N 0.12552 0.38974 0.2212 0.0
N833 N 0.10938 0.43278 0.27508 0.0
H834 H 0.96028 0.37174 0.18895 0.0
H835 H 0.86734 0.35458 0.31031 0.0
H836 H 0.94834 0.29915 0.22743 0.0
H837 H 0.88251 0.42712 0.27279 0.0
H838 H 0.89473 0.33319 0.27864 0.0
H839 H 0.92871 0.39144 0.21737 0.0
C840 C 0.95081 0.35986 0.20318 0.0
C841 C 0.95716 0.3338 0.20597 0.0
C842 C 0.892 0.35378 0.27736 0.0
C843 C 0.92117 0.35633 0.23882 0.0
C844 C 0.87645 0.36602 0.29549 0.0
C845 C 0.87268 0.39272 0.29431 0.0
C846 C 0.90383 0.36834 0.25793 0.0
C847 C 0.88489 0.40653 0.27458 0.0
C848 C 0.93284 0.37115 0.2195 0.0
C849 C 0.94414 0.31934 0.22468 0.0
N850 N 0.8999 0.39419 0.25722 0.0
N851 N 0.92692 0.33086 0.24056 0.0
H852 H 0.87793 0.51962 0.29961 0.0
H853 H 0.85739 0.61725 0.18243 0.0
H854 H 0.80376 0.5348 0.26554 0.0
H855 H 0.93164 0.59435 0.21178 0.0
H856 H 0.83688 0.58922 0.21416 0.0
H857 H 0.89733 0.55007 0.26976 0.0
C858 C 0.86566 0.52955 0.28602 0.0
C859 C 0.8392 0.52448 0.28494 0.0
C860 C 0.85766 0.59032 0.21357 0.0
C861 C 0.86137 0.55922 0.25049 0.0
C862 C 0.86939 0.60624 0.1954 0.0
C863 C 0.89629 0.60816 0.19438 0.0
C864 C 0.87295 0.57633 0.23089 0.0
C865 C 0.91084 0.59349 0.21177 0.0
C866 C 0.87679 0.54685 0.26888 0.0
C867 C 0.82426 0.53802 0.26698 0.0
N868 N 0.89898 0.57829 0.22931 0.0
N869 N 0.83559 0.55467 0.25034 0.0
H870 H 0.09599 0.54963 0.27752 0.0
H871 H 0.04384 0.67874 0.21219 0.0
H872 H 0.11716 0.62564 0.30327 0.0
H873 H 0.02083 0.60246 0.18903 0.0
H874 H 0.07294 0.65978 0.2438 0.0
H875 H 0.06945 0.56884 0.24412 0.0
C876 C 0.09494 0.57039 0.27629 0.0
C877 C 0.10886 0.58603 0.2933 0.0
C878 C 0.06166 0.6472 0.23167 0.0
C879 C 0.0786 0.6082 0.25475 0.0
C880 C 0.04515 0.658 0.21348 0.0
C881 C 0.02971 0.64217 0.19804 0.0
C882 C 0.06273 0.62037 0.23445 0.0
C883 C 0.03225 0.61543 0.2006 0.0
C884 C 0.07983 0.58135 0.25709 0.0
C885 C 0.10672 0.61281 0.29067 0.0
N886 N 0.04828 0.6054 0.21859 0.0
N887 N 0.09192 0.62305 0.2717 0.0
H888 H 0.18022 0.55503 0.71601 0.0
H889 H 0.04781 0.60787 0.7736 0.0
H890 H 0.10539 0.52871 0.69154 0.0
H891 H 0.12257 0.62992 0.80223 0.0
H892 H 0.06862 0.58039 0.74192 0.0
H893 H 0.15943 0.5852 0.74529 0.0
C894 C 0.15942 0.55581 0.71653 0.0
C895 C 0.14453 0.53916 0.70144 0.0
C896 C 0.08048 0.5912 0.75516 0.0
C897 C 0.12063 0.57343 0.73515 0.0
C898 C 0.0686 0.60684 0.77336 0.0
C899 C 0.08345 0.62123 0.79068 0.0
C900 C 0.10742 0.58995 0.75418 0.0
C901 C 0.11033 0.61913 0.78935 0.0
C902 C 0.14757 0.57294 0.73339 0.0
C903 C 0.11765 0.54107 0.70292 0.0
N904 N 0.12144 0.60383 0.77137 0.0
N905 N 0.10658 0.55775 0.71962 0.0
H906 H 0.02445 0.38602 0.80422 0.0
H907 H 0.12463 0.36527 0.6894 0.0
H908 H 0.04304 0.31138 0.77314 0.0
H909 H 0.09951 0.43954 0.71666 0.0
H910 H 0.09677 0.34478 0.72128 0.0
H911 H 0.05494 0.40551 0.7745 0.0
C912 C 0.03515 0.37367 0.79134 0.0
C913 C 0.031 0.34704 0.79102 0.0
C914 C 0.09734 0.36556 0.7202 0.0
C915 C 0.06577 0.3693 0.75667 0.0
C916 C 0.11314 0.37728 0.70193 0.0
C917 C 0.11441 0.40419 0.70029 0.0
C918 C 0.08279 0.38087 0.73699 0.0
C919 C 0.09917 0.41874 0.71713 0.0
C920 C 0.05248 0.38484 0.77426 0.0
C921 C 0.04554 0.33201 0.77398 0.0
N922 N 0.08408 0.4069 0.73478 0.0
N923 N 0.06216 0.34338 0.75733 0.0
H924 H 0.93458 0.39459 0.77829 0.0
H925 H 0.8042 0.44947 0.71846 0.0
H926 H 0.85946 0.37159 0.80524 0.0
H927 H 0.8801 0.46783 0.69029 0.0
H928 H 0.82346 0.41959 0.74928 0.0
H929 H 0.91436 0.42117 0.74573 0.0
C930 C 0.91378 0.3952 0.77748 0.0
C931 C 0.89871 0.38079 0.79461 0.0
C932 C 0.83584 0.43002 0.73621 0.0
C933 C 0.87533 0.41126 0.757 0.0
C934 C 0.82488 0.44698 0.71851 0.0
C935 C 0.84059 0.46134 0.70191 0.0
C936 C 0.86269 0.42748 0.7373 0.0
C937 C 0.86724 0.45733 0.70283 0.0
C938 C 0.90223 0.41035 0.75873 0.0
C939 C 0.87184 0.38242 0.79249 0.0
N940 N 0.87743 0.44093 0.72036 0.0
N941 N 0.86099 0.3974 0.77399 0.0
H942 H 0.94274 0.69465 0.76282 0.0
H943 H 0.88447 0.56085 0.71577 0.0
H944 H 0.95608 0.62188 0.8005 0.0
H945 H 0.86491 0.63338 0.68033 0.0
H946 H 0.90991 0.5836 0.7475 0.0
H947 H 0.91241 0.67349 0.73382 0.0
C948 C 0.93903 0.67431 0.76526 0.0
C949 C 0.9522 0.65995 0.78394 0.0
C950 C 0.90007 0.59462 0.73284 0.0
C951 C 0.9178 0.63562 0.75064 0.0
C952 C 0.88559 0.5816 0.71455 0.0
C953 C 0.87256 0.5952 0.69521 0.0
C954 C 0.90174 0.62151 0.73185 0.0
C955 C 0.8747 0.62211 0.69482 0.0
C956 C 0.9218 0.66223 0.7486 0.0
C957 C 0.94657 0.63368 0.78624 0.0
N958 N 0.88909 0.6344 0.71286 0.0
N959 N 0.93 0.62235 0.76963 0.0
H960 H 0.19087 0.13997 0.38677 0.0
H961 H 0.31906 0.12478 0.47045 0.0
H962 H 0.22726 0.06722 0.40353 0.0
H963 H 0.277 0.19603 0.46361 0.0
H964 H 0.28865 0.10464 0.441 0.0
H965 H 0.2245 0.16176 0.41129 0.0
C966 C 0.20581 0.12855 0.39571 0.0
C967 C 0.20614 0.10169 0.39317 0.0
C968 C 0.2862 0.12474 0.44577 0.0
C969 C 0.24486 0.12656 0.42092 0.0
C970 C 0.30368 0.13632 0.46244 0.0
C971 C 0.30038 0.16206 0.46978 0.0
C972 C 0.26529 0.139 0.43634 0.0
C973 C 0.28014 0.17607 0.45869 0.0
C974 C 0.22507 0.14103 0.4096 0.0
C975 C 0.22609 0.08793 0.40507 0.0
N976 N 0.26321 0.16429 0.4427 0.0
N977 N 0.24465 0.10053 0.41838 0.0
H978 H 0.5489 0.26955 0.10575 0.0
H979 H 0.68017 0.22002 0.04291 0.0
H980 H 0.62341 0.30118 0.12426 0.0
H981 H 0.60537 0.1891 0.02451 0.0
H982 H 0.66011 0.24834 0.07447 0.0
H983 H 0.56954 0.23919 0.07675 0.0
C984 C 0.5696 0.27022 0.10364 0.0
C985 C 0.58443 0.28801 0.11748 0.0
C986 C 0.64811 0.23524 0.06365 0.0
C987 C 0.60824 0.25305 0.08436 0.0
C988 C 0.65957 0.21896 0.0457 0.0
C989 C 0.64441 0.20227 0.0309 0.0
C990 C 0.6213 0.23486 0.06679 0.0
C991 C 0.61781 0.20173 0.03538 0.0
C992 C 0.58139 0.25277 0.08713 0.0
C993 C 0.61119 0.28787 0.11396 0.0
N994 N 0.6071 0.21792 0.0528 0.0
N995 N 0.62224 0.27064 0.09776 0.0
H996 H 0.73518 0.81363 0.44266 0.0
H997 H 0.78756 0.94367 0.37938 0.0
H998 H 0.7041 0.88879 0.45913 0.0
H999 H 0.82158 0.86914 0.36601 0.0
H1000 H 0.75644 0.92375 0.40816 0.0
H1001 H 0.76577 0.83335 0.41304 0.0
C1002 C 0.7346 0.83425 0.43987 0.0
C1003 C 0.71712 0.84959 0.4535 0.0
C1004 C 0.77077 0.91175 0.39902 0.0
C1005 C 0.75229 0.87231 0.41983 0.0
C1006 C 0.78864 0.92313 0.38263 0.0
C1007 C 0.80724 0.90806 0.3702 0.0
C1008 C 0.77139 0.88507 0.40299 0.0
C1009 C 0.80764 0.88154 0.37519 0.0
C1010 C 0.75219 0.84551 0.42305 0.0
C1011 C 0.71729 0.87621 0.4491 0.0
N1012 N 0.7899 0.87088 0.39112 0.0
N1013 N 0.73468 0.88673 0.43273 0.0
H1014 H 0.30282 0.76926 0.02966 0.0
H1015 H 0.43067 0.70713 0.08846 0.0
H1016 H 0.37935 0.79612 0.01194 0.0
H1017 H 0.35456 0.67621 0.10063 0.0
H1018 H 0.41217 0.74063 0.06135 0.0
H1019 H 0.32134 0.73667 0.0579 0.0
C1020 C 0.32351 0.76851 0.03193 0.0
C1021 C 0.33956 0.78536 0.01829 0.0
C1022 C 0.39953 0.72645 0.06986 0.0
C1023 C 0.3609 0.74788 0.05035 0.0
C1024 C 0.41009 0.70722 0.08527 0.0
C1025 C 0.39415 0.6888 0.09689 0.0
C1026 C 0.37282 0.72737 0.06611 0.0
C1027 C 0.36762 0.68996 0.09205 0.0
C1028 C 0.33408 0.74978 0.04793 0.0
C1029 C 0.36623 0.78347 0.02199 0.0
N1030 N 0.35778 0.709 0.07713 0.0
N1031 N 0.37606 0.76497 0.03757 0.0
H1032 H 0.27963 0.79499 0.53436 0.0
H1033 H 0.22762 0.92844 0.58864 0.0
H1034 H 0.318 0.8678 0.52348 0.0
H1035 H 0.19306 0.85538 0.60776 0.0
H1036 H 0.26133 0.90597 0.56543 0.0
H1037 H 0.24922 0.81591 0.56336 0.0
C1038 C 0.28197 0.81527 0.53841 0.0
C1039 C 0.30119 0.82974 0.52616 0.0
C1040 C 0.24641 0.8948 0.5747 0.0
C1041 C 0.2662 0.85383 0.55897 0.0
C1042 C 0.22699 0.90765 0.58783 0.0
C1043 C 0.20734 0.8938 0.60011 0.0
C1044 C 0.24623 0.86785 0.57363 0.0
C1045 C 0.20774 0.86685 0.5985 0.0
C1046 C 0.26449 0.82722 0.55486 0.0
C1047 C 0.30333 0.85592 0.53225 0.0
N1048 N 0.22686 0.85475 0.58544 0.0
N1049 N 0.28584 0.86717 0.54796 0.0
H1050 H 0.35599 0.31708 0.88886 0.0
H1051 H 0.37851 0.19116 0.97446 0.0
H1052 H 0.43048 0.28285 0.90218 0.0
H1053 H 0.3037 0.22409 0.95988 0.0
H1054 H 0.39773 0.22399 0.94701 0.0
H1055 H 0.33645 0.28337 0.91507 0.0
C1056 C 0.36829 0.30265 0.89748 0.0
C1057 C 0.39494 0.30282 0.89326 0.0
C1058 C 0.37709 0.22394 0.94969 0.0
C1059 C 0.37263 0.26398 0.92301 0.0
C1060 C 0.36608 0.2051 0.96526 0.0
C1061 C 0.33946 0.20495 0.96961 0.0
C1062 C 0.3614 0.24283 0.93843 0.0
C1063 C 0.32432 0.2235 0.95714 0.0
C1064 C 0.35709 0.2833 0.91231 0.0
C1065 C 0.40986 0.28352 0.90486 0.0
N1066 N 0.33553 0.2418 0.94226 0.0
N1067 N 0.39849 0.26486 0.91912 0.0
H1068 H 0.81452 0.12239 0.62897 0.0
H1069 H 0.70224 0.0987 0.52659 0.0
H1070 H 0.78402 0.04753 0.61005 0.0
H1071 H 0.73103 0.174 0.54627 0.0
H1072 H 0.73109 0.07986 0.55837 0.0
H1073 H 0.78368 0.14184 0.59935 0.0
C1074 C 0.80144 0.11002 0.61853 0.0
C1075 C 0.80192 0.08326 0.622 0.0
C1076 C 0.73102 0.10052 0.55585 0.0
C1077 C 0.76647 0.10544 0.5882 0.0
C1078 C 0.71449 0.11131 0.53774 0.0
C1079 C 0.71434 0.13796 0.53365 0.0
C1080 C 0.74761 0.11647 0.56993 0.0
C1081 C 0.73055 0.15334 0.54874 0.0
C1082 C 0.78376 0.12116 0.60169 0.0
C1083 C 0.78441 0.06823 0.608 0.0
N1084 N 0.74667 0.14235 0.56611 0.0
N1085 N 0.76743 0.07953 0.59175 0.0
H1086 H 0.67933 0.77018 0.94989 0.0
H1087 H 0.5501 0.72048 0.88303 0.0
H1088 H 0.6041 0.80173 0.96515 0.0
H1089 H 0.62526 0.68948 0.86616 0.0
H1090 H 0.56983 0.75087 0.91263 0.0
H1091 H 0.6603 0.74178 0.91774 0.0
C1092 C 0.65886 0.77137 0.94628 0.0
C1093 C 0.64326 0.78825 0.96038 0.0
C1094 C 0.58203 0.73742 0.90248 0.0
C1095 C 0.62132 0.75557 0.92383 0.0
C1096 C 0.57076 0.71994 0.88563 0.0
C1097 C 0.58603 0.70233 0.87206 0.0
C1098 C 0.6088 0.73734 0.90589 0.0
C1099 C 0.6127 0.70266 0.87622 0.0
C1100 C 0.64799 0.75504 0.928 0.0
C1101 C 0.61686 0.78894 0.95485 0.0
N1102 N 0.62324 0.7199 0.89276 0.0
N1103 N 0.60671 0.7727 0.93715 0.0
H1104 H 0.44444 0.2611 0.19595 0.0
H1105 H 0.37635 0.21759 0.06568 0.0
H1106 H 0.45435 0.29896 0.12277 0.0
H1107 H 0.36447 0.17837 0.1379 0.0
H1108 H 0.40248 0.24933 0.08754 0.0
H1109 H 0.41206 0.23307 0.17651 0.0
C1110 C 0.43954 0.26379 0.17591 0.0
C1111 C 0.45235 0.28218 0.16086 0.0
C1112 C 0.39416 0.23385 0.0987 0.0
C1113 C 0.41558 0.25007 0.13852 0.0
C1114 C 0.37927 0.21557 0.08618 0.0
C1115 C 0.36832 0.19508 0.09993 0.0
C1116 C 0.39839 0.2317 0.12522 0.0
C1117 C 0.37266 0.19375 0.12652 0.0
C1118 C 0.42115 0.24769 0.16481 0.0
C1119 C 0.4452 0.28485 0.13503 0.0
N1120 N 0.3875 0.21177 0.13832 0.0
N1121 N 0.42748 0.26882 0.12465 0.0
H1122 H 0.37758 0.77106 0.92087 0.0
H1123 H 0.4479 0.7288 0.79142 0.0
H1124 H 0.36743 0.81134 0.84896 0.0
H1125 H 0.45641 0.69011 0.86436 0.0
H1126 H 0.41522 0.75667 0.81056 0.0
H1127 H 0.40386 0.73939 0.89911 0.0
C1128 C 0.38091 0.77333 0.90045 0.0
C1129 C 0.37042 0.7941 0.88678 0.0
C1130 C 0.42406 0.7419 0.82227 0.0
C1131 C 0.40066 0.75755 0.86159 0.0
C1132 C 0.44263 0.72589 0.81134 0.0
C1133 C 0.45514 0.70731 0.82642 0.0
C1134 C 0.41802 0.73925 0.84842 0.0
C1135 C 0.4475 0.70437 0.85208 0.0
C1136 C 0.39589 0.75508 0.88799 0.0
C1137 C 0.37526 0.79573 0.86029 0.0
N1138 N 0.42962 0.72032 0.8623 0.0
N1139 N 0.39018 0.77774 0.84855 0.0
H1140 H 0.19952 0.02261 0.59188 0.0
H1141 H 0.30685 0.12424 0.63255 0.0
H1142 H 0.21352 0.04547 0.67036 0.0
H1143 H 0.28463 0.11043 0.5538 0.0
H1144 H 0.27263 0.09546 0.64672 0.0
H1145 H 0.22982 0.0554 0.57743 0.0
C1146 C 0.20874 0.03472 0.60607 0.0
C1147 C 0.20415 0.03114 0.63239 0.0
C1148 C 0.27519 0.09879 0.62634 0.0
C1149 C 0.23909 0.06849 0.61599 0.0
C1150 C 0.29484 0.11511 0.61822 0.0
C1151 C 0.29872 0.11969 0.59192 0.0
C1152 C 0.2594 0.08679 0.60806 0.0
C1153 C 0.28241 0.10744 0.57426 0.0
C1154 C 0.22608 0.05342 0.5978 0.0
C1155 C 0.21654 0.04748 0.64989 0.0
N1156 N 0.26353 0.09147 0.58265 0.0
N1157 N 0.23365 0.06527 0.64139 0.0
H1158 H 0.52084 0.30596 0.88768 0.0
H1159 H 0.61168 0.18472 0.86046 0.0
H1160 H 0.53134 0.27311 0.81225 0.0
H1161 H 0.59595 0.21532 0.93596 0.0
H1162 H 0.58386 0.21785 0.84191 0.0
H1163 H 0.55104 0.2746 0.90502 0.0
C1164 C 0.52971 0.29233 0.87469 0.0
C1165 C 0.52338 0.29205 0.8485 0.0
C1166 C 0.58649 0.21723 0.86254 0.0
C1167 C 0.55778 0.25581 0.86831 0.0
C1168 C 0.60226 0.19825 0.87316 0.0
C1169 C 0.60617 0.19718 0.89983 0.0
C1170 C 0.57462 0.2353 0.8787 0.0
C1171 C 0.59354 0.21532 0.9153 0.0
C1172 C 0.54687 0.27432 0.88464 0.0
C1173 C 0.53557 0.27398 0.83259 0.0
N1174 N 0.57842 0.23362 0.90451 0.0
N1175 N 0.55206 0.25645 0.84279 0.0
H1176 H 0.81303 0.95794 0.61989 0.0
H1177 H 0.68519 0.87239 0.62394 0.0
H1178 H 0.76723 0.9474 0.68828 0.0
H1179 H 0.72669 0.89107 0.55451 0.0
H1180 H 0.71682 0.89681 0.64867 0.0
H1181 H 0.78407 0.92928 0.59674 0.0
C1182 C 0.79709 0.94933 0.63015 0.0
C1183 C 0.79239 0.95531 0.656 0.0
C1184 C 0.71895 0.89556 0.62802 0.0
C1185 C 0.75895 0.92272 0.6295 0.0
C1186 C 0.70084 0.88172 0.61387 0.0
C1187 C 0.70319 0.87974 0.58707 0.0
C1188 C 0.73961 0.90742 0.6153 0.0
C1189 C 0.72398 0.89213 0.5751 0.0
C1190 C 0.78045 0.93309 0.61686 0.0
C1191 C 0.77148 0.94348 0.66831 0.0
N1192 N 0.74137 0.90539 0.5893 0.0
N1193 N 0.7554 0.92792 0.65488 0.0
H1194 H 0.5305 0.71419 0.18111 0.0
H1195 H 0.59177 0.77449 0.05375 0.0
H1196 H 0.51733 0.68473 0.1047 0.0
H1197 H 0.60796 0.80328 0.12986 0.0
H1198 H 0.56484 0.74122 0.0725 0.0
H1199 H 0.56035 0.74577 0.16323 0.0
C1200 C 0.53413 0.71411 0.16062 0.0
C1201 C 0.52122 0.69689 0.14435 0.0
C1202 C 0.57423 0.7548 0.08515 0.0
C1203 C 0.5551 0.73322 0.12377 0.0
C1204 C 0.58956 0.77395 0.07443 0.0
C1205 C 0.60219 0.7918 0.09024 0.0
C1206 C 0.57139 0.75338 0.11192 0.0
C1207 C 0.59855 0.79 0.11692 0.0
C1208 C 0.55108 0.73226 0.15042 0.0
C1209 C 0.52672 0.6977 0.11798 0.0
N1210 N 0.5835 0.7711 0.12693 0.0
N1211 N 0.54307 0.71569 0.1085 0.0
H1212 H 0.20886 0.94786 0.32215 0.0
H1213 H 0.28326 0.88551 0.44146 0.0
H1214 H 0.20011 0.97421 0.4003 0.0
H1215 H 0.3015 0.86954 0.36211 0.0
H1216 H 0.24947 0.91486 0.42721 0.0
H1217 H 0.23883 0.915 0.33714 0.0
C1218 C 0.21297 0.94654 0.3425 0.0
C1219 C 0.20215 0.96398 0.35996 0.0
C1220 C 0.26089 0.90493 0.41294 0.0
C1221 C 0.23663 0.92657 0.3772 0.0
C1222 C 0.28023 0.88821 0.42104 0.0
C1223 C 0.29534 0.87511 0.40295 0.0
C1224 C 0.25651 0.90847 0.38655 0.0
C1225 C 0.29045 0.87932 0.37676 0.0
C1226 C 0.23022 0.92787 0.35103 0.0
C1227 C 0.20816 0.9613 0.38613 0.0
N1228 N 0.27144 0.8956 0.36936 0.0
N1229 N 0.22513 0.94305 0.39394 0.0
H1230 H 0.76283 0.03596 0.29515 0.0
H1231 H 0.73045 0.10185 0.42944 0.0
H1232 H 0.81327 0.034 0.36104 0.0
H1233 H 0.68497 0.11417 0.36109 0.0
H1234 H 0.76116 0.07734 0.40415 0.0
H1235 H 0.73489 0.06597 0.31802 0.0
C1236 C 0.76824 0.0421 0.31428 0.0
C1237 C 0.79027 0.0322 0.32632 0.0
C1238 C 0.74451 0.08545 0.39463 0.0
C1239 C 0.7582 0.06624 0.35268 0.0
C1240 C 0.72683 0.09933 0.40911 0.0
C1241 C 0.70497 0.10999 0.39742 0.0
C1242 C 0.7403 0.08197 0.36823 0.0
C1243 C 0.7015 0.10623 0.37093 0.0
C1244 C 0.75222 0.05918 0.32735 0.0
C1245 C 0.79637 0.04095 0.35107 0.0
N1246 N 0.71893 0.09241 0.35724 0.0
N1247 N 0.78026 0.05723 0.36352 0.0
H1248 H 0.00533 0.31856 0.92443 0.0
H1249 H 0.99388 0.36917 0.06902 0.0
H1250 H 0.94329 0.36724 0.9497 0.0
H1251 H 0.03824 0.3028 0.04683 0.0
H1252 H 0.97831 0.37296 0.0246 0.0
H1253 H 0.022 0.3176 0.96843 0.0
C1254 C 0.99549 0.32935 0.93925 0.0
C1255 C 0.97305 0.34307 0.93364 0.0
C1256 C 0.99148 0.3576 0.02952 0.0
C1257 C 0.99163 0.34183 0.98384 0.0
C1258 C 0.00022 0.35537 0.05481 0.0
C1259 C 0.01747 0.33577 0.06144 0.0
C1260 C 0.00028 0.34022 0.01085 0.0
C1261 C 0.02533 0.31849 0.04236 0.0
C1262 C 0.00482 0.32862 0.96434 0.0
C1263 C 0.96068 0.35643 0.95346 0.0
N1264 N 0.01678 0.32119 0.0179 0.0
N1265 N 0.97013 0.35549 0.97777 0.0
H1266 H 0.83002 0.50727 0.42254 0.0
H1267 H 0.83555 0.47827 0.56701 0.0
H1268 H 0.86803 0.43758 0.4466 0.0
H1269 H 0.86104 0.55283 0.541 0.0
H1270 H 0.8415 0.46172 0.52332 0.0
H1271 H 0.83526 0.52445 0.46604 0.0
C1272 C 0.83985 0.49576 0.43683 0.0
C1273 C 0.84842 0.47089 0.43107 0.0
C1274 C 0.84604 0.48163 0.5274 0.0
C1275 C 0.85348 0.48997 0.4808 0.0
C1276 C 0.84281 0.49105 0.55228 0.0
C1277 C 0.84764 0.51702 0.5576 0.0
C1278 C 0.85342 0.49849 0.50771 0.0
C1279 C 0.85645 0.53284 0.53758 0.0
C1280 C 0.84269 0.50551 0.4616 0.0
C1281 C 0.86063 0.45663 0.45046 0.0
N1282 N 0.85857 0.52347 0.51335 0.0
N1283 N 0.86231 0.46614 0.4747 0.0
H1284 H 0.03374 0.62521 0.93682 0.0
H1285 H 0.96081 0.69642 0.05091 0.0
H1286 H 0.98693 0.69256 0.92554 0.0
H1287 H 0.98157 0.61639 0.0556 0.0
H1288 H 0.9755 0.69732 0.00626 0.0
H1289 H 0.01904 0.62293 0.98165 0.0
C1290 C 0.02013 0.6393 0.94384 0.0
C1291 C 0.01134 0.65902 0.92774 0.0
C1292 C 0.97684 0.67954 0.01702 0.0
C1293 C 0.995 0.65696 0.97867 0.0
C1294 C 0.96854 0.67905 0.04243 0.0
C1295 C 0.96964 0.65619 0.0566 0.0
C1296 C 0.98674 0.65708 0.00585 0.0
C1297 C 0.98033 0.63433 0.04511 0.0
C1298 C 0.01182 0.63806 0.9693 0.0
C1299 C 0.99393 0.67701 0.93749 0.0
N1300 N 0.98846 0.63527 0.02029 0.0
N1301 N 0.98646 0.67569 0.96246 0.0
H1302 H 0.11915 0.49097 0.56631 0.0
H1303 H 0.18259 0.4894 0.42622 0.0
H1304 H 0.19393 0.45917 0.55015 0.0
H1305 H 0.1193 0.53891 0.44613 0.0
H1306 H 0.18383 0.47373 0.47062 0.0
H1307 H 0.1161 0.50536 0.52148 0.0
C1308 C 0.13495 0.48716 0.55332 0.0
C1309 C 0.15678 0.47382 0.56179 0.0
C1310 C 0.16961 0.48796 0.4653 0.0
C1311 C 0.1533 0.48973 0.51065 0.0
C1312 C 0.16881 0.49673 0.43999 0.0
C1313 C 0.15087 0.51542 0.43278 0.0
C1314 C 0.1522 0.49788 0.4834 0.0
C1315 C 0.13348 0.52453 0.45118 0.0
C1316 C 0.13317 0.49523 0.52778 0.0
C1317 C 0.17662 0.46909 0.54422 0.0
N1318 N 0.13456 0.51567 0.47573 0.0
N1319 N 0.17438 0.47694 0.51945 0.0
H1320 H 0.95129 0.98178 0.28669 0.0
H1321 H 0.0588 0.01767 0.39068 0.0
H1322 H 0.93503 0.98673 0.36763 0.0
H1323 H 0.06676 0.03259 0.30968 0.0
H1324 H 0.01469 0.00222 0.38298 0.0
H1325 H 0.99502 -0.00272 0.29487 0.0
C1326 C 0.957 0.98647 0.30615 0.0
C1327 C 0.93981 0.98325 0.32654 0.0
C1328 C 0.02614 0.0088 0.36691 0.0
C1329 C 0.98963 0.00039 0.3362 0.0
C1330 C 0.05125 0.01737 0.37129 0.0
C1331 C 0.06614 0.0262 0.35073 0.0
C1332 C 0.0162 0.00895 0.34177 0.0
C1333 C 0.0557 0.02579 0.32595 0.0
C1334 C 0.98188 0.99519 0.31086 0.0
C1335 C 0.94789 0.98924 0.35148 0.0
N1336 N 0.03136 0.01728 0.32213 0.0
N1337 N 0.97237 -0.0026 0.35569 0.0
H1338 H 0.53832 0.43524 0.12592 0.0
H1339 H 0.4411 0.54019 0.18211 0.0
H1340 H 0.48223 0.41933 0.18469 0.0
H1341 H 0.48919 0.55434 0.11618 0.0
H1342 H 0.45724 0.49622 0.18413 0.0
H1343 H 0.52161 0.47922 0.12237 0.0
C1344 C 0.52237 0.44109 0.13795 0.0
C1345 C 0.5116 0.4239 0.15566 0.0
C1346 C 0.46428 0.50885 0.16916 0.0
C1347 C 0.49252 0.47387 0.15189 0.0
C1348 C 0.45502 0.53392 0.16798 0.0
C1349 C 0.46365 0.5507 0.14877 0.0
C1350 C 0.48248 0.50052 0.1511 0.0
C1351 C 0.48213 0.5419 0.1313 0.0
C1352 C 0.51286 0.46609 0.13595 0.0
C1353 C 0.49093 0.43211 0.17075 0.0
N1354 N 0.49094 0.51732 0.13283 0.0
N1355 N 0.48213 0.45659 0.16863 0.0
H1356 H 0.07762 3e-05 0.66397 0.0
H1357 H 0.93091 -0.00186 0.61951 0.0
H1358 H 0.04978 0.94573 0.60808 0.0
H1359 H 0.95523 0.02281 0.69469 0.0
H1360 H 0.97511 0.98401 0.61047 0.0
H1361 H 0.03351 0.01557 0.67013 0.0
C1362 C 0.06221 0.99182 0.65263 0.0
C1363 C 0.06709 0.97178 0.63541 0.0
C1364 C 0.9707 0.99253 0.62892 0.0
C1365 C 0.01691 0.98901 0.64252 0.0
C1366 C 0.94557 0.00043 0.63411 0.0
C1367 C 0.93969 0.01193 0.65772 0.0
C1368 C 0.98997 -0.0035 0.6474 0.0
C1369 C 0.95922 0.01452 0.67605 0.0
C1370 C 0.03711 0.00043 0.65633 0.0
C1371 C 0.04658 0.96134 0.62143 0.0
N1372 N 0.98359 0.00711 0.67042 0.0
N1373 N 0.02227 0.97009 0.62528 0.0
H1374 H 0.52757 0.55232 0.79072 0.0
H1375 H 0.44885 0.4539 0.87787 0.0
H1376 H 0.50038 0.57203 0.86635 0.0
H1377 H 0.4966 0.4301 0.81463 0.0
H1378 H 0.46505 0.49792 0.87302 0.0
H1379 H 0.51299 0.50807 0.79744 0.0
C1380 C 0.51846 0.54723 0.80874 0.0
C1381 C 0.51538 0.56557 0.82816 0.0
C1382 C 0.47223 0.48303 0.86041 0.0
C1383 C 0.49848 0.51529 0.83593 0.0
C1384 C 0.46308 0.45799 0.86324 0.0
C1385 C 0.47163 0.43857 0.84671 0.0
C1386 C 0.4897 0.48864 0.84062 0.0
C1387 C 0.48983 0.44463 0.82787 0.0
C1388 C 0.51023 0.52204 0.8126 0.0
C1389 C 0.50307 0.55831 0.85096 0.0
N1390 N 0.49812 0.46925 0.82516 0.0
N1391 N 0.49505 0.53366 0.85426 0.0
H1392 H 0.33256 0.06764 0.98212 0.0
H1393 H 0.33314 0.92077 0.00532 0.0
H1394 H 0.36069 0.03851 0.05451 0.0
H1395 H 0.36307 0.95047 0.9339 0.0
H1396 H 0.33744 0.96363 0.02423 0.0
H1397 H 0.33789 0.02478 0.96351 0.0
C1398 C 0.34028 0.05239 0.99399 0.0
C1399 C 0.34621 0.05664 0.01992 0.0
C1400 C 0.34332 0.96058 0.0045 0.0
C1401 C 0.35123 0.00757 -0.00094 0.0
C1402 C 0.34106 0.93614 0.99375 0.0
C1403 C 0.34775 0.93207 0.96798 0.0
C1404 C 0.35161 0.98111 0.98913 0.0
C1405 C 0.35723 0.95291 0.95369 0.0
C1406 C 0.34313 0.02795 0.9834 0.0
C1407 C 0.35542 0.03593 0.03458 0.0
N1408 N 0.35846 0.9767 0.96432 0.0
N1409 N 0.35726 0.01213 0.02407 0.0
H1410 H 0.46204 0.18001 0.55886 0.0
H1411 H 0.55332 0.1115 0.45722 0.0
H1412 H 0.43652 0.11767 0.51068 0.0
H1413 H 0.58152 0.16094 0.51729 0.0
H1414 H 0.51051 0.11268 0.47679 0.0
H1415 H 0.50603 0.17298 0.5441 0.0
C1416 C 0.46579 0.16465 0.54534 0.0
C1417 C 0.44571 0.14933 0.536 0.0
C1418 C 0.52611 0.12297 0.48594 0.0
C1419 C 0.49588 0.14144 0.51866 0.0
C1420 C 0.55048 0.12225 0.47481 0.0
C1421 C 0.57078 0.13607 0.4858 0.0
C1422 C 0.52204 0.13796 0.50798 0.0
C1423 C 0.56631 0.14983 0.50845 0.0
C1424 C 0.49088 0.16068 0.53687 0.0
C1425 C 0.45148 0.13006 0.51812 0.0
N1426 N 0.5423 0.15067 0.51868 0.0
N1427 N 0.47605 0.12673 0.5099 0.0
H1428 H 0.61307 0.06537 0.99354 0.0
H1429 H 0.67455 0.92402 0.99278 0.0
H1430 H 0.68213 0.04508 0.95255 0.0
H1431 H 0.61215 0.94573 0.04263 0.0
H1432 H 0.67542 0.96775 0.97542 0.0
H1433 H 0.61065 0.02127 0.01024 0.0
C1434 C 0.62776 0.05163 0.98818 0.0
C1435 C 0.64776 0.05873 0.97159 0.0
C1436 C 0.66148 0.96301 0.99012 0.0
C1437 C 0.64501 0.0084 0.99023 0.0
C1438 C 0.66091 0.93805 -0.00012 0.0
C1439 C 0.64332 0.93149 0.01913 0.0
C1440 C 0.64425 0.9815 -0.00034 0.0
C1441 C 0.62611 0.95026 0.02788 0.0
C1442 C 0.62632 0.02649 -0.00242 0.0
C1443 C 0.66619 0.04023 0.965 0.0
N1444 N 0.62701 0.97449 0.01811 0.0
N1445 N 0.66434 0.01592 0.97428 0.0
H1446 H 0.45751 0.80803 0.43019 0.0
H1447 H 0.55366 0.87523 0.52828 0.0
H1448 H 0.43511 0.87092 0.47918 0.0
H1449 H 0.57904 0.8249 0.46772 0.0
H1450 H 0.51026 0.87475 0.51008 0.0
H1451 H 0.50222 0.81423 0.44327 0.0
C1452 C 0.46209 0.82331 0.44354 0.0
C1453 C 0.44267 0.83902 0.45363 0.0
C1454 C 0.52536 0.8641 0.50051 0.0
C1455 C 0.49366 0.84598 0.469 0.0
C1456 C 0.55007 0.86443 0.51085 0.0
C1457 C 0.56975 0.85013 0.49936 0.0
C1458 C 0.52027 0.84902 0.47874 0.0
C1459 C 0.56431 0.83633 0.47694 0.0
C1460 C 0.48758 0.82681 0.45104 0.0
C1461 C 0.44952 0.85821 0.47121 0.0
N1462 N 0.53994 0.83586 0.46749 0.0
N1463 N 0.47446 0.86108 0.47846 0.0
H1464 H 0.08856 0.23748 0.1681 0.0
H1465 H 0.06283 0.17982 0.30678 0.0
H1466 H 0.02414 0.26019 0.21518 0.0
H1467 H 0.12051 0.15129 0.25458 0.0
H1468 H 0.04531 0.20637 0.27202 0.0
H1469 H 0.09692 0.20199 0.19736 0.0
C1470 C 0.07588 0.23476 0.18435 0.0
C1471 C 0.05585 0.25207 0.18937 0.0
C1472 C 0.06149 0.19389 0.26806 0.0
C1473 C 0.06564 0.21172 0.22335 0.0
C1474 C 0.07152 0.17886 0.28789 0.0
C1475 C 0.09289 0.16308 0.28343 0.0
C1476 C 0.07326 0.19344 0.24377 0.0
C1477 C 0.10358 0.16258 0.25872 0.0
C1478 C 0.0807 0.21448 0.20114 0.0
C1479 C 0.03994 0.24743 0.21067 0.0
N1480 N 0.09379 0.1777 0.2399 0.0
N1481 N 0.04546 0.22794 0.22716 0.0
H1482 H 0.73736 0.402 0.33446 0.0
H1483 H 0.67026 0.42784 0.19921 0.0
H1484 H 0.76425 0.45892 0.28045 0.0
H1485 H 0.64618 0.36993 0.25348 0.0
H1486 H 0.70112 0.4439 0.23095 0.0
H1487 H 0.69956 0.39512 0.30784 0.0
C1488 C 0.73519 0.41326 0.31714 0.0
C1489 C 0.75425 0.43069 0.30947 0.0
C1490 C 0.68872 0.42799 0.23605 0.0
C1491 C 0.71105 0.42276 0.27862 0.0
C1492 C 0.67117 0.4188 0.21795 0.0
C1493 C 0.6553 0.39782 0.22387 0.0
C1494 C 0.69059 0.41586 0.2601 0.0
C1495 C 0.65735 0.38666 0.24831 0.0
C1496 C 0.71356 0.40933 0.3019 0.0
C1497 C 0.75014 0.44512 0.28702 0.0
N1498 N 0.67477 0.39571 0.26543 0.0
N1499 N 0.72915 0.44054 0.27216 0.0
H1500 H 0.92142 0.85527 0.23862 0.0
H1501 H 0.95967 0.70862 0.22 0.0
H1502 H 0.91793 0.8005 0.3008 0.0
H1503 H 0.91582 0.75025 0.16316 0.0
H1504 H 0.95783 0.74627 0.24821 0.0
H1505 H 0.93278 0.82033 0.20917 0.0
C1506 C 0.92282 0.83587 0.24602 0.0
C1507 C 0.91734 0.83044 0.27185 0.0
C1508 C 0.94895 0.74716 0.2294 0.0
C1509 C 0.93187 0.791 0.23878 0.0
C1510 C 0.95005 0.72583 0.21328 0.0
C1511 C 0.93764 0.72633 0.18935 0.0
C1512 C 0.93589 0.76925 0.22122 0.0
C1513 C 0.92536 0.74904 0.1816 0.0
C1514 C 0.9296 0.8161 0.22931 0.0
C1515 C 0.92132 0.80534 0.28086 0.0
N1516 N 0.92478 0.76968 0.19753 0.0
N1517 N 0.92816 0.78642 0.26426 0.0
H1518 H 0.33372 0.61158 0.23454 0.0
H1519 H 0.21954 0.51876 0.2781 0.0
H1520 H 0.30298 0.55185 0.18602 0.0
H1521 H 0.24221 0.58773 0.31822 0.0
H1522 H 0.25512 0.52531 0.24805 0.0
H1523 H 0.30553 0.59765 0.26902 0.0
C1524 C 0.32154 0.59506 0.23133 0.0
C1525 C 0.3211 0.58248 0.20753 0.0
C1526 C 0.25244 0.5388 0.26365 0.0
C1527 C 0.28791 0.56701 0.24676 0.0
C1528 C 0.23222 0.53503 0.2809 0.0
C1529 C 0.22771 0.55287 0.30064 0.0
C1530 C 0.26831 0.56045 0.26629 0.0
C1531 C 0.2448 0.57355 0.30329 0.0
C1532 C 0.30515 0.58731 0.25097 0.0
C1533 C 0.30395 0.56196 0.20416 0.0
N1534 N 0.2642 0.57686 0.28621 0.0
N1535 N 0.28793 0.55487 0.22357 0.0
H1536 H 0.07701 0.76109 0.82061 0.0
H1537 H 0.08331 0.79666 0.67492 0.0
H1538 H 0.02722 0.72425 0.76547 0.0
H1539 H 0.09358 0.85512 0.73278 0.0
H1540 H 0.06516 0.76822 0.70775 0.0
H1541 H 0.0861 0.79484 0.78902 0.0
C1542 C 0.06771 0.76033 0.80202 0.0
C1543 C 0.0515 0.73979 0.79557 0.0
C1544 C 0.07144 0.78731 0.71318 0.0
C1545 C 0.06222 0.77781 0.75935 0.0
C1546 C 0.08188 0.80348 0.69453 0.0
C1547 C 0.09108 0.82787 0.70134 0.0
C1548 C 0.07041 0.79554 0.73882 0.0
C1549 C 0.08821 0.83594 0.72692 0.0
C1550 C 0.07285 0.77957 0.78407 0.0
C1551 C 0.03983 0.73976 0.77125 0.0
N1552 N 0.07854 0.81964 0.74486 0.0
N1553 N 0.04582 0.75822 0.7538 0.0
H1554 H 0.35198 0.42161 0.76234 0.0
H1555 H 0.21042 0.46907 0.72925 0.0
H1556 H 0.29085 0.42108 0.81831 0.0
H1557 H 0.25601 0.42483 0.67599 0.0
H1558 H 0.24486 0.46515 0.76115 0.0
H1559 H 0.32137 0.43631 0.72972 0.0
C1560 C 0.33206 0.42439 0.7677 0.0
C1561 C 0.32353 0.41878 0.79265 0.0
C1562 C 0.24739 0.45669 0.74231 0.0
C1563 C 0.28903 0.43702 0.75598 0.0
C1564 C 0.2279 0.45902 0.72407 0.0
C1565 C 0.23034 0.447 0.70006 0.0
C1566 C 0.26962 0.44277 0.73622 0.0
C1567 C 0.2533 0.43409 0.69439 0.0
C1568 C 0.31477 0.43306 0.74919 0.0
C1569 C 0.29799 0.42452 0.79908 0.0
N1570 N 0.2721 0.43226 0.7124 0.0
N1571 N 0.2815 0.43312 0.78074 0.0
H1572 H 0.95992 0.27859 0.77456 0.0
H1573 H 0.91246 0.13501 0.7554 0.0
H1574 H 0.91359 0.24054 0.83194 0.0
H1575 H 0.91109 0.19081 0.69399 0.0
H1576 H 0.92518 0.16903 0.78531 0.0
H1577 H 0.95504 0.24114 0.74656 0.0
C1578 C 0.94916 0.26216 0.78148 0.0
C1579 C 0.9369 0.2627 0.80549 0.0
C1580 C 0.92205 0.17368 0.76526 0.0
C1581 C 0.93157 0.21998 0.77373 0.0
C1582 C 0.91441 0.15445 0.74826 0.0
C1583 C 0.90931 0.16041 0.72244 0.0
C1584 C 0.92565 0.19873 0.75609 0.0
C1585 C 0.91419 0.18551 0.71387 0.0
C1586 C 0.94629 0.24094 0.76544 0.0
C1587 C 0.92308 0.24095 0.81344 0.0
N1588 N 0.92199 0.20383 0.7307 0.0
N1589 N 0.92074 0.22039 0.79754 0.0
H1590 H 0.69376 0.59031 0.79785 0.0
H1591 H 0.73454 0.57712 0.6557 0.0
H1592 H 0.63495 0.58662 0.73947 0.0
H1593 H 0.77264 0.53237 0.71432 0.0
H1594 H 0.69844 0.58396 0.68522 0.0
H1595 H 0.72443 0.57194 0.76733 0.0
C1596 C 0.68731 0.58573 0.7786 0.0
C1597 C 0.6621 0.5912 0.7708 0.0
C1598 C 0.71452 0.57222 0.69133 0.0
C1599 C 0.69699 0.57035 0.73594 0.0
C1600 C 0.73509 0.56836 0.67457 0.0
C1601 C 0.75665 0.55433 0.68267 0.0
C1602 C 0.71598 0.56259 0.71647 0.0
C1603 C 0.75639 0.54333 0.70731 0.0
C1604 C 0.70476 0.57518 0.76128 0.0
C1605 C 0.65461 0.58429 0.74581 0.0
N1606 N 0.73661 0.54818 0.72359 0.0
N1607 N 0.67216 0.57473 0.72902 0.0
H1608 H 0.1673 0.08211 0.25549 0.0
H1609 H 0.30705 0.0723 0.19842 0.0
H1610 H 0.22606 0.03648 0.29212 0.0
H1611 H 0.24084 0.08513 0.15013 0.0
H1612 H 0.27827 0.06027 0.23366 0.0
H1613 H 0.19419 0.08514 0.21711 0.0
C1614 C 0.18576 0.07257 0.25536 0.0
C1615 C 0.19457 0.05925 0.27706 0.0
C1616 C 0.27009 0.06569 0.2153 0.0
C1617 C 0.22554 0.06287 0.23344 0.0
C1618 C 0.28647 0.07261 0.19523 0.0
C1619 C 0.2763 0.0808 0.17164 0.0
C1620 C 0.24338 0.06709 0.21175 0.0
C1621 C 0.24951 0.08033 0.16839 0.0
C1622 C 0.20105 0.07419 0.23343 0.0
C1623 C 0.21856 0.04695 0.27578 0.0
N1624 N 0.23395 0.07402 0.18836 0.0
N1625 N 0.23343 0.04941 0.25446 0.0
H1626 H 0.592 0.24026 0.36046 0.0
H1627 H 0.52773 0.26338 0.22371 0.0
H1628 H 0.57678 0.17847 0.30734 0.0
H1629 H 0.57949 0.31825 0.2582 0.0
H1630 H 0.53526 0.23426 0.25988 0.0
H1631 H 0.57752 0.27108 0.32811 0.0
C1632 C 0.58602 0.23316 0.34187 0.0
C1633 C 0.58685 0.20682 0.33609 0.0
C1634 C 0.54471 0.25281 0.25959 0.0
C1635 C 0.5688 0.24188 0.29972 0.0
C1636 C 0.54033 0.26951 0.2391 0.0
C1637 C 0.55323 0.29318 0.23787 0.0
C1638 C 0.5617 0.26007 0.27918 0.0
C1639 C 0.56941 0.30007 0.25828 0.0
C1640 C 0.57742 0.25076 0.3236 0.0
C1641 C 0.57702 0.19865 0.31237 0.0
N1642 N 0.57324 0.28354 0.27814 0.0
N1643 N 0.56852 0.21615 0.29494 0.0
H1644 H 0.79993 0.96898 0.24091 0.0
H1645 H 0.70307 0.86397 0.1905 0.0
H1646 H 0.81141 0.88773 0.2533 0.0
H1647 H 0.71695 0.93212 0.14547 0.0
H1648 H 0.73929 0.87542 0.21827 0.0
H1649 H 0.76661 0.95871 0.20898 0.0
C1650 C 0.79577 0.94904 0.23663 0.0
C1651 C 0.80855 0.92917 0.24971 0.0
C1652 C 0.73445 0.88786 0.20229 0.0
C1653 C 0.77026 0.91747 0.21398 0.0
C1654 C 0.71373 0.88145 0.18665 0.0
C1655 C 0.70727 0.89715 0.1658 0.0
C1656 C 0.74843 0.9104 0.19733 0.0
C1657 C 0.72162 0.91953 0.16137 0.0
C1658 C 0.77681 0.94324 0.21848 0.0
C1659 C 0.80234 0.90367 0.24352 0.0
N1660 N 0.74153 0.92567 0.17719 0.0
N1661 N 0.78339 0.89857 0.2264 0.0
H1662 H 0.37581 0.67617 0.21879 0.0
H1663 H 0.43135 0.77019 0.3257 0.0
H1664 H 0.45691 0.69368 0.2227 0.0
H1665 H 0.35636 0.7789 0.29157 0.0
H1666 H 0.44082 0.73556 0.29481 0.0
H1667 H 0.36807 0.70661 0.25351 0.0
C1668 C 0.39207 0.68613 0.22716 0.0
C1669 C 0.41704 0.68261 0.2176 0.0
C1670 C 0.42233 0.74511 0.29418 0.0
C1671 C 0.4082 0.7174 0.25733 0.0
C1672 C 0.41695 0.76471 0.31171 0.0
C1673 C 0.39314 0.77724 0.31091 0.0
C1674 C 0.40347 0.73783 0.27633 0.0
C1675 C 0.37503 0.76973 0.29252 0.0
C1676 C 0.38757 0.7036 0.24686 0.0
C1677 C 0.43733 0.69603 0.22931 0.0
N1678 N 0.38049 0.75034 0.27604 0.0
N1679 N 0.43246 0.71296 0.24858 0.0
H1680 H 0.30747 0.9203 0.78998 0.0
H1681 H 0.16654 0.91235 0.73653 0.0
H1682 H 0.24283 0.90675 0.84013 0.0
H1683 H 0.22407 0.95997 0.70037 0.0
H1684 H 0.19421 0.90854 0.77434 0.0
H1685 H 0.27764 0.93386 0.7562 0.0
C1686 C 0.28702 0.92016 0.79389 0.0
C1687 C 0.27756 0.91129 0.81752 0.0
C1688 C 0.20058 0.92013 0.75826 0.0
C1689 C 0.24345 0.92672 0.77908 0.0
C1690 C 0.18485 0.92223 0.73667 0.0
C1691 C 0.19313 0.93628 0.71522 0.0
C1692 C 0.22496 0.93169 0.75812 0.0
C1693 C 0.21695 0.94892 0.7165 0.0
C1694 C 0.27004 0.92795 0.77465 0.0
C1695 C 0.25092 0.91203 0.82174 0.0
N1696 N 0.23226 0.94595 0.73743 0.0
N1697 N 0.23474 0.91916 0.80255 0.0
H1698 H 0.3796 0.31218 0.77432 0.0
H1699 H 0.43892 0.22214 0.66595 0.0
H1700 H 0.46166 0.30192 0.76723 0.0
H1701 H 0.36505 0.20949 0.70127 0.0
H1702 H 0.44701 0.25727 0.69666 0.0
H1703 H 0.37315 0.28129 0.73985 0.0
C1704 C 0.39631 0.30389 0.76515 0.0
C1705 C 0.42121 0.30966 0.77368 0.0
C1706 C 0.42909 0.24672 0.69762 0.0
C1707 C 0.41389 0.27391 0.73449 0.0
C1708 C 0.42449 0.22682 0.68019 0.0
C1709 C 0.40136 0.21308 0.68131 0.0
C1710 C 0.41013 0.25304 0.71573 0.0
C1711 C 0.38321 0.21959 0.70004 0.0
C1712 C 0.39258 0.28601 0.74568 0.0
C1713 C 0.44212 0.29788 0.76132 0.0
N1714 N 0.3879 0.23926 0.71642 0.0
N1715 N 0.438 0.28044 0.74231 0.0
H1716 H 0.78314 0.01993 0.73101 0.0
H1717 H 0.74791 0.11124 0.84866 0.0
H1718 H 0.83275 0.07958 0.76034 0.0
H1719 H 0.69412 0.05871 0.81372 0.0
H1720 H 0.78195 0.09375 0.82192 0.0
H1721 H 0.75362 0.02758 0.76666 0.0
C1722 C 0.78809 0.03434 0.74517 0.0
C1723 C 0.81022 0.04955 0.74236 0.0
C1724 C 0.76281 0.08572 0.82036 0.0
C1725 C 0.77638 0.05851 0.78305 0.0
C1726 C 0.74335 0.09549 0.83592 0.0
C1727 C 0.71818 0.08609 0.83377 0.0
C1728 C 0.75702 0.06661 0.80225 0.0
C1729 C 0.7133 0.06646 0.81598 0.0
C1730 C 0.77112 0.03879 0.76544 0.0
C1731 C 0.81563 0.06785 0.76137 0.0
N1732 N 0.73253 0.05744 0.80079 0.0
N1733 N 0.79869 0.07202 0.78074 0.0
H1734 H 0.53158 0.72735 0.76482 0.0
H1735 H 0.593 0.74779 0.62633 0.0
H1736 H 0.58231 0.67165 0.73012 0.0
H1737 H 0.57815 0.8106 0.67833 0.0
H1738 H 0.57936 0.71756 0.65961 0.0
H1739 H 0.53839 0.75581 0.72798 0.0
C1740 C 0.54384 0.72093 0.74927 0.0
C1741 C 0.55666 0.69723 0.75061 0.0
C1742 C 0.57915 0.73797 0.66367 0.0
C1743 C 0.5643 0.72956 0.70856 0.0
C1744 C 0.58726 0.75523 0.64486 0.0
C1745 C 0.58794 0.78169 0.65005 0.0
C1746 C 0.5709 0.74732 0.6875 0.0
C1747 C 0.57848 0.79032 0.67375 0.0
C1748 C 0.5478 0.73724 0.7284 0.0
C1749 C 0.57237 0.68992 0.72998 0.0
N1750 N 0.57047 0.77314 0.69172 0.0
N1751 N 0.5758 0.70607 0.70976 0.0
H1752 H 0.26209 0.20203 0.02674 0.0
H1753 H 0.14019 0.23414 0.11344 0.0
H1754 H 0.23518 0.15421 0.08902 0.0
H1755 H 0.17574 0.28844 0.06181 0.0
H1756 H 0.16853 0.20067 0.09728 0.0
H1757 H 0.22427 0.22922 0.03188 0.0
C1758 C 0.24803 0.19691 0.04119 0.0
C1759 C 0.25212 0.17605 0.05784 0.0
C1760 C 0.16983 0.21978 0.08912 0.0
C1761 C 0.20889 0.20729 0.06391 0.0
C1762 C 0.1534 0.23889 0.09812 0.0
C1763 C 0.15535 0.26407 0.08866 0.0
C1764 C 0.18855 0.22594 0.07072 0.0
C1765 C 0.17365 0.26925 0.06959 0.0
C1766 C 0.22649 0.21257 0.04418 0.0
C1767 C 0.2331 0.17035 0.07608 0.0
N1768 N 0.18968 0.25037 0.06133 0.0
N1769 N 0.21246 0.18608 0.07884 0.0
H1770 H 0.23687 0.83837 0.89887 0.0
H1771 H 0.16931 0.70458 0.92973 0.0
H1772 H 0.26355 0.78595 0.95741 0.0
H1773 H 0.14324 0.75795 0.87185 0.0
H1774 H 0.20029 0.73673 0.94458 0.0
H1775 H 0.19833 0.8123 0.89372 0.0
C1776 C 0.23451 0.82155 0.91086 0.0
C1777 C 0.25374 0.81407 0.9282 0.0
C1778 C 0.18742 0.74157 0.92895 0.0
C1779 C 0.2097 0.78394 0.92229 0.0
C1780 C 0.1698 0.72322 0.92046 0.0
C1781 C 0.15342 0.72873 0.89979 0.0
C1782 C 0.1889 0.76544 0.91639 0.0
C1783 C 0.15491 0.75308 0.88832 0.0
C1784 C 0.21245 0.80665 0.90793 0.0
C1785 C 0.24935 0.79233 0.9436 0.0
N1786 N 0.17248 0.77044 0.89665 0.0
N1787 N 0.22797 0.77779 0.93999 0.0
H1788 H 0.30156 0.23855 0.53336 0.0
H1789 H 0.25995 0.34961 0.63063 0.0
H1790 H 0.33724 0.25071 0.60728 0.0
H1791 H 0.21235 0.32239 0.5685 0.0
H1792 H 0.29408 0.32046 0.61677 0.0
H1793 H 0.27485 0.27642 0.54053 0.0
C1794 C 0.30412 0.24939 0.55092 0.0
C1795 C 0.32141 0.24115 0.56994 0.0
C1796 C 0.27631 0.32117 0.60594 0.0
C1797 C 0.29079 0.28448 0.57824 0.0
C1798 C 0.25692 0.33799 0.61367 0.0
C1799 C 0.23341 0.33856 0.60049 0.0
C1800 C 0.27212 0.30484 0.5849 0.0
C1801 C 0.23023 0.32246 0.57916 0.0
C1802 C 0.28876 0.27095 0.55502 0.0
C1803 C 0.32395 0.25613 0.59223 0.0
N1804 N 0.24934 0.30618 0.57205 0.0
N1805 N 0.30861 0.27694 0.59587 0.0
H1806 H 0.79549 0.30779 0.91183 0.0
H1807 H 0.74536 0.16566 0.90518 0.0
H1808 H 0.84755 0.24485 0.89738 0.0
H1809 H 0.71208 0.22043 0.95775 0.0
H1810 H 0.78164 0.19488 0.8985 0.0
H1811 H 0.76284 0.2768 0.92561 0.0
C1812 C 0.80002 0.28748 0.91141 0.0
C1813 C 0.82392 0.27886 0.90236 0.0
C1814 C 0.76653 0.2003 0.91175 0.0
C1815 C 0.78675 0.24345 0.91804 0.0
C1816 C 0.74584 0.18368 0.91552 0.0
C1817 C 0.72568 0.19066 0.93198 0.0
C1818 C 0.76669 0.2243 0.92401 0.0
C1819 C 0.72727 0.21426 0.94495 0.0
C1820 C 0.78144 0.26985 0.91935 0.0
C1821 C 0.82893 0.25234 0.90275 0.0
N1822 N 0.74723 0.23046 0.94036 0.0
N1823 N 0.81035 0.23552 0.91005 0.0
H1824 H 0.66392 0.74317 0.56784 0.0
H1825 H 0.80588 0.69151 0.57148 0.0
H1826 H 0.72452 0.77796 0.5231 0.0
H1827 H 0.74129 0.64088 0.58365 0.0
H1828 H 0.77642 0.72423 0.55508 0.0
H1829 H 0.69159 0.70588 0.57537 0.0
C1830 C 0.6829 0.74281 0.55934 0.0
C1831 C 0.69203 0.7638 0.54507 0.0
C1832 C 0.76873 0.70593 0.56136 0.0
C1833 C 0.72382 0.7215 0.55391 0.0
C1834 C 0.7855 0.68729 0.57081 0.0
C1835 C 0.77594 0.66381 0.57998 0.0
C1836 C 0.74219 0.70111 0.56122 0.0
C1837 C 0.7494 0.6592 0.57816 0.0
C1838 C 0.69864 0.72152 0.56358 0.0
C1839 C 0.71671 0.76223 0.53426 0.0
N1840 N 0.73337 0.67786 0.56936 0.0
N1841 N 0.73193 0.74164 0.53929 0.0
H1842 H 0.84677 0.74991 0.09539 0.0
H1843 H 0.70885 0.77216 0.0347 0.0
H1844 H 0.79185 0.68837 0.08625 0.0
H1845 H 0.74128 0.82704 0.08775 0.0
H1846 H 0.74541 0.74367 0.04264 0.0
H1847 H 0.81355 0.78072 0.08272 0.0
C1848 C 0.82765 0.74286 0.09131 0.0
C1849 C 0.82173 0.71658 0.09319 0.0
C1850 C 0.74459 0.7621 0.05227 0.0
C1851 C 0.78441 0.75155 0.07684 0.0
C1852 C 0.72389 0.77845 0.04764 0.0
C1853 C 0.72196 0.80192 0.06076 0.0
C1854 C 0.76373 0.76952 0.06969 0.0
C1855 C 0.74195 0.80901 0.07744 0.0
C1856 C 0.80888 0.76045 0.08366 0.0
C1857 C 0.79713 0.70848 0.08561 0.0
N1858 N 0.76208 0.79283 0.08146 0.0
N1859 N 0.77935 0.7259 0.07778 0.0
H1860 H 0.19869 0.67404 0.42998 0.0
H1861 H 0.32928 0.74101 0.38781 0.0
H1862 H 0.24652 0.64628 0.3683 0.0
H1863 H 0.29048 0.75861 0.45898 0.0
H1864 H 0.30053 0.70444 0.38184 0.0
H1865 H 0.23294 0.70398 0.44223 0.0
C1866 C 0.21656 0.67399 0.41929 0.0
C1867 C 0.21996 0.65738 0.3984 0.0
C1868 C 0.29851 0.7161 0.39894 0.0
C1869 C 0.25898 0.69169 0.41195 0.0
C1870 C 0.31494 0.73699 0.40236 0.0
C1871 C 0.31212 0.75307 0.42379 0.0
C1872 C 0.27888 0.71145 0.41688 0.0
C1873 C 0.2933 0.74681 0.44211 0.0
C1874 C 0.23611 0.69099 0.42631 0.0
C1875 C 0.24334 0.65818 0.385 0.0
N1876 N 0.27714 0.7267 0.43804 0.0
N1877 N 0.26187 0.67521 0.39187 0.0
H1878 H 0.66269 0.24362 0.41564 0.0
H1879 H 0.79766 0.31205 0.44076 0.0
H1880 H 0.71927 0.21468 0.46898 0.0
H1881 H 0.74307 0.33488 0.38265 0.0
H1882 H 0.76649 0.28048 0.45672 0.0
H1883 H 0.68867 0.28204 0.40953 0.0
C1884 C 0.68046 0.24544 0.42626 0.0
C1885 C 0.68907 0.22562 0.44238 0.0
C1886 C 0.7612 0.2928 0.44079 0.0
C1887 C 0.7191 0.26956 0.43537 0.0
C1888 C 0.77897 0.31075 0.43166 0.0
C1889 C 0.77279 0.3265 0.41067 0.0
C1890 C 0.73721 0.29045 0.42861 0.0
C1891 C 0.74842 0.3239 0.39943 0.0
C1892 C 0.69532 0.26742 0.42279 0.0
C1893 C 0.712 0.22936 0.45614 0.0
N1894 N 0.73162 0.30615 0.40845 0.0
N1895 N 0.72645 0.25073 0.45201 0.0
loop_
_geom_bond_atom_site_label_1
_geom_bond_atom_site_label_2
_geom_bond_distance
_geom_bond_site_symmetry_2
_ccdc_geom_bond_type
Co0 O3 1.970 . S
Co0 N17 1.989 . S
Co0 O25 1.967 . S
Co0 O32 1.920 . S
Co1 O4 1.966 . S
Co1 N10 2.022 . S
Co1 N18 1.993 . S
Co1 O26 1.941 . S
C2 O3 1.258 . S
C2 O4 1.263 . S
O3 Co0 1.970 . S
O3 C2 1.258 . S
O4 Co1 1.966 . S
O4 C2 1.263 . S
C5 O6 1.235 . S
C5 O32 1.289 1_655 S
O6 C5 1.235 . S
C7 C9 1.400 . S
C7 N10 1.351 . S
C7 C12 1.501 . S
C8 C9 1.387 . S
C8 N11 1.341 . S
C9 C7 1.400 . S
C9 C8 1.387 . S
N10 Co1 2.022 . S
N10 C7 1.351 . S
N10 N11 1.365 . S
N11 C8 1.341 . S
N11 N10 1.365 . S
N11 H31 0.862 . S
C12 C7 1.501 . S
C12 H13 0.961 . S
C12 H14 0.961 . S
C12 H15 0.960 . S
H13 C12 0.961 . S
H14 C12 0.961 . S
H15 C12 0.960 . S
C16 N17 1.342 . S
C16 C20 1.401 . S
C16 C21 1.499 . S
N17 Co0 1.989 . S
N17 C16 1.342 . S
N17 N18 1.388 . S
N18 Co1 1.993 . S
N18 N17 1.388 . S
N18 C19 1.346 . S
C19 N18 1.346 . S
C19 C20 1.396 . S
C19 C29 1.510 . S
C20 C16 1.401 . S
C20 C19 1.396 . S
C21 C16 1.499 . S
C21 H22 0.959 . S
C21 H23 0.960 1_455 S
C21 H24 0.961 . S
H22 C21 0.959 . S
H23 C21 0.960 1_655 S
H24 C21 0.961 . S
O25 Co0 1.967 . S
O25 C33 1.258 . S
O26 Co1 1.941 . S
O26 C33 1.266 . S
H27 C29 0.959 . S
H28 C29 0.961 . S
C29 C19 1.510 . S
C29 H27 0.959 . S
C29 H28 0.961 . S
C29 H30 0.960 . S
H30 C29 0.960 . S
H31 N11 0.862 . S
O32 Co0 1.920 . S
O32 C5 1.289 1_455 S
C33 O25 1.258 . S
C33 O26 1.266 . S
Co34 O37 1.970 . S
Co34 N51 1.989 . S
Co34 O59 1.967 . S
Co34 O66 1.920 . S
Co35 O38 1.966 . S
Co35 N44 2.022 . S
Co35 N52 1.993 . S
Co35 O60 1.941 . S
C36 O37 1.258 . S
C36 O38 1.263 . S
O37 Co34 1.970 . S
O37 C36 1.258 . S
O38 Co35 1.966 . S
O38 C36 1.263 . S
C39 O40 1.235 . S
C39 O66 1.289 . S
O40 C39 1.235 . S
C41 C43 1.400 . S
C41 N44 1.351 . S
C41 C46 1.501 . S
C42 C43 1.387 . S
C42 N45 1.341 . S
C43 C41 1.400 . S
C43 C42 1.387 . S
N44 Co35 2.022 . S
N44 C41 1.351 . S
N44 N45 1.365 . S
N45 C42 1.341 . S
N45 N44 1.365 . S
N45 H65 0.862 . S
C46 C41 1.501 . S
C46 H47 0.961 . S
C46 H48 0.961 . S
C46 H49 0.960 . S
H47 C46 0.961 . S
H48 C46 0.961 . S
H49 C46 0.960 . S
C50 N51 1.342 . S
C50 C54 1.401 . S
C50 C55 1.499 . S
N51 Co34 1.989 . S
N51 C50 1.342 . S
N51 N52 1.388 . S
N52 Co35 1.993 . S
N52 N51 1.388 . S
N52 C53 1.346 . S
C53 N52 1.346 . S
C53 C54 1.396 . S
C53 C63 1.510 . S
C54 C50 1.401 . S
C54 C53 1.396 . S
C55 C50 1.499 . S
C55 H56 0.959 . S
C55 H57 0.960 . S
C55 H58 0.961 . S
H56 C55 0.959 . S
H57 C55 0.960 . S
H58 C55 0.961 . S
O59 Co34 1.967 . S
O59 C67 1.258 . S
O60 Co35 1.941 . S
O60 C67 1.266 . S
H61 C63 0.959 . S
H62 C63 0.961 . S
C63 C53 1.510 . S
C63 H61 0.959 . S
C63 H62 0.961 . S
C63 H64 0.960 . S
H64 C63 0.960 . S
H65 N45 0.862 . S
O66 Co34 1.920 . S
O66 C39 1.289 . S
C67 O59 1.258 . S
C67 O60 1.266 . S
Co68 O71 1.970 . S
Co68 N85 1.989 . S
Co68 O93 1.967 . S
Co68 O100 1.920 . S
Co69 O72 1.966 . S
Co69 N78 2.022 . S
Co69 N86 1.993 . S
Co69 O94 1.941 . S
C70 O71 1.258 . S
C70 O72 1.263 . S
O71 Co68 1.970 . S
O71 C70 1.258 . S
O72 Co69 1.966 . S
O72 C70 1.263 . S
C73 O74 1.235 . S
C73 O100 1.289 1_455 S
O74 C73 1.235 . S
C75 C77 1.400 . S
C75 N78 1.351 . S
C75 C80 1.501 . S
C76 C77 1.387 . S
C76 N79 1.341 . S
C77 C75 1.400 . S
C77 C76 1.387 . S
N78 Co69 2.022 . S
N78 C75 1.351 . S
N78 N79 1.365 . S
N79 C76 1.341 . S
N79 N78 1.365 . S
N79 H99 0.862 . S
C80 C75 1.501 . S
C80 H81 0.961 . S
C80 H82 0.961 . S
C80 H83 0.960 . S
H81 C80 0.961 . S
H82 C80 0.961 . S
H83 C80 0.960 . S
C84 N85 1.342 . S
C84 C88 1.401 . S
C84 C89 1.499 . S
N85 Co68 1.989 . S
N85 C84 1.342 . S
N85 N86 1.388 . S
N86 Co69 1.993 . S
N86 N85 1.388 . S
N86 C87 1.346 . S
C87 N86 1.346 . S
C87 C88 1.396 . S
C87 C97 1.510 . S
C88 C84 1.401 . S
C88 C87 1.396 . S
C89 C84 1.499 . S
C89 H90 0.959 . S
C89 H91 0.960 1_655 S
C89 H92 0.961 . S
H90 C89 0.959 . S
H91 C89 0.960 1_455 S
H92 C89 0.961 . S
O93 Co68 1.967 . S
O93 C101 1.258 . S
O94 Co69 1.941 . S
O94 C101 1.266 . S
H95 C97 0.959 . S
H96 C97 0.961 . S
C97 C87 1.510 . S
C97 H95 0.959 . S
C97 H96 0.961 . S
C97 H98 0.960 . S
H98 C97 0.960 . S
H99 N79 0.862 . S
O100 Co68 1.920 . S
O100 C73 1.289 1_655 S
C101 O93 1.258 . S
C101 O94 1.266 . S
Co102 O105 1.970 . S
Co102 N119 1.989 . S
Co102 O127 1.967 . S
Co102 O134 1.920 . S
Co103 O106 1.966 . S
Co103 N112 2.022 . S
Co103 N120 1.993 . S
Co103 O128 1.941 . S
C104 O105 1.258 . S
C104 O106 1.263 . S
O105 Co102 1.970 . S
O105 C104 1.258 . S
O106 Co103 1.966 . S
O106 C104 1.263 . S
C107 O108 1.235 . S
C107 O134 1.289 . S
O108 C107 1.235 . S
C109 C111 1.400 . S
C109 N112 1.351 . S
C109 C114 1.501 . S
C110 C111 1.387 . S
C110 N113 1.341 . S
C111 C109 1.400 . S
C111 C110 1.387 . S
N112 Co103 2.022 . S
N112 C109 1.351 . S
N112 N113 1.365 . S
N113 C110 1.341 . S
N113 N112 1.365 . S
N113 H133 0.862 . S
C114 C109 1.501 . S
C114 H115 0.961 . S
C114 H116 0.961 . S
C114 H117 0.960 . S
H115 C114 0.961 . S
H116 C114 0.961 . S
H117 C114 0.960 . S
C118 N119 1.342 . S
C118 C122 1.401 . S
C118 C123 1.499 . S
N119 Co102 1.989 . S
N119 C118 1.342 . S
N119 N120 1.388 . S
N120 Co103 1.993 . S
N120 N119 1.388 . S
N120 C121 1.346 . S
C121 N120 1.346 . S
C121 C122 1.396 . S
C121 C131 1.510 . S
C122 C118 1.401 . S
C122 C121 1.396 . S
C123 C118 1.499 . S
C123 H124 0.959 . S
C123 H125 0.960 . S
C123 H126 0.961 . S
H124 C123 0.959 . S
H125 C123 0.960 . S
H126 C123 0.961 . S
O127 Co102 1.967 . S
O127 C135 1.258 . S
O128 Co103 1.941 . S
O128 C135 1.266 . S
H129 C131 0.959 . S
H130 C131 0.961 . S
C131 C121 1.510 . S
C131 H129 0.959 . S
C131 H130 0.961 . S
C131 H132 0.960 . S
H132 C131 0.960 . S
H133 N113 0.862 . S
O134 Co102 1.920 . S
O134 C107 1.289 . S
C135 O127 1.258 . S
C135 O128 1.266 . S
Co136 O139 1.970 . S
Co136 N153 1.989 . S
Co136 O161 1.967 . S
Co136 O168 1.920 . S
Co137 O140 1.966 . S
Co137 N146 2.022 . S
Co137 N154 1.993 . S
Co137 O162 1.941 . S
C138 O139 1.258 . S
C138 O140 1.263 . S
O139 Co136 1.970 . S
O139 C138 1.258 . S
O140 Co137 1.966 . S
O140 C138 1.263 . S
C141 O142 1.235 . S
C141 O168 1.289 1_655 S
O142 C141 1.235 . S
C143 C145 1.400 . S
C143 N146 1.351 . S
C143 C148 1.501 . S
C144 C145 1.387 . S
C144 N147 1.341 . S
C145 C143 1.400 . S
C145 C144 1.387 . S
N146 Co137 2.022 . S
N146 C143 1.351 . S
N146 N147 1.365 . S
N147 C144 1.341 . S
N147 N146 1.365 . S
N147 H167 0.862 . S
C148 C143 1.501 . S
C148 H149 0.961 . S
C148 H150 0.961 . S
C148 H151 0.960 . S
H149 C148 0.961 . S
H150 C148 0.961 . S
H151 C148 0.960 . S
C152 N153 1.342 . S
C152 C156 1.401 . S
C152 C157 1.499 . S
N153 Co136 1.989 . S
N153 C152 1.342 . S
N153 N154 1.388 . S
N154 Co137 1.993 . S
N154 N153 1.388 . S
N154 C155 1.346 . S
C155 N154 1.346 . S
C155 C156 1.396 . S
C155 C165 1.510 . S
C156 C152 1.401 . S
C156 C155 1.396 . S
C157 C152 1.499 . S
C157 H158 0.959 . S
C157 H159 0.960 1_455 S
C157 H160 0.961 . S
H158 C157 0.959 . S
H159 C157 0.960 1_655 S
H160 C157 0.961 . S
O161 Co136 1.967 . S
O161 C169 1.258 . S
O162 Co137 1.941 . S
O162 C169 1.266 . S
H163 C165 0.959 . S
H164 C165 0.961 . S
C165 C155 1.510 . S
C165 H163 0.959 . S
C165 H164 0.961 . S
C165 H166 0.960 . S
H166 C165 0.960 . S
H167 N147 0.862 . S
O168 Co136 1.920 . S
O168 C141 1.289 1_455 S
C169 O161 1.258 . S
C169 O162 1.266 . S
Co170 O173 1.970 . S
Co170 N187 1.989 . S
Co170 O195 1.967 . S
Co170 O202 1.920 . S
Co171 O174 1.966 . S
Co171 N180 2.022 . S
Co171 N188 1.993 . S
Co171 O196 1.941 . S
C172 O173 1.258 . S
C172 O174 1.263 . S
O173 Co170 1.970 . S
O173 C172 1.258 . S
O174 Co171 1.966 . S
O174 C172 1.263 . S
C175 O176 1.235 . S
C175 O202 1.289 . S
O176 C175 1.235 . S
C177 C179 1.400 . S
C177 N180 1.351 . S
C177 C182 1.501 . S
C178 C179 1.387 . S
C178 N181 1.341 . S
C179 C177 1.400 . S
C179 C178 1.387 . S
N180 Co171 2.022 . S
N180 C177 1.351 . S
N180 N181 1.365 . S
N181 C178 1.341 . S
N181 N180 1.365 . S
N181 H201 0.862 . S
C182 C177 1.501 . S
C182 H183 0.961 . S
C182 H184 0.961 . S
C182 H185 0.960 . S
H183 C182 0.961 . S
H184 C182 0.961 . S
H185 C182 0.960 . S
C186 N187 1.342 . S
C186 C190 1.401 . S
C186 C191 1.499 . S
N187 Co170 1.989 . S
N187 C186 1.342 . S
N187 N188 1.388 . S
N188 Co171 1.993 . S
N188 N187 1.388 . S
N188 C189 1.346 . S
C189 N188 1.346 . S
C189 C190 1.396 . S
C189 C199 1.510 . S
C190 C186 1.401 . S
C190 C189 1.396 . S
C191 C186 1.499 . S
C191 H192 0.959 . S
C191 H193 0.960 . S
C191 H194 0.961 . S
H192 C191 0.959 . S
H193 C191 0.960 . S
H194 C191 0.961 . S
O195 Co170 1.967 . S
O195 C203 1.258 . S
O196 Co171 1.941 . S
O196 C203 1.266 . S
H197 C199 0.959 . S
H198 C199 0.961 . S
C199 C189 1.510 . S
C199 H197 0.959 . S
C199 H198 0.961 . S
C199 H200 0.960 . S
H200 C199 0.960 . S
H201 N181 0.862 . S
O202 Co170 1.920 . S
O202 C175 1.289 . S
C203 O195 1.258 . S
C203 O196 1.266 . S
Co204 O207 1.970 . S
Co204 N221 1.989 . S
Co204 O229 1.967 . S
Co204 O236 1.920 . S
Co205 O208 1.966 . S
Co205 N214 2.022 . S
Co205 N222 1.993 . S
Co205 O230 1.941 . S
C206 O207 1.258 . S
C206 O208 1.263 . S
O207 Co204 1.970 . S
O207 C206 1.258 . S
O208 Co205 1.966 . S
O208 C206 1.263 . S
C209 O210 1.235 . S
C209 O236 1.289 1_455 S
O210 C209 1.235 . S
C211 C213 1.400 . S
C211 N214 1.351 . S
C211 C216 1.501 . S
C212 C213 1.387 . S
C212 N215 1.341 . S
C213 C211 1.400 . S
C213 C212 1.387 . S
N214 Co205 2.022 . S
N214 C211 1.351 . S
N214 N215 1.365 . S
N215 C212 1.341 . S
N215 N214 1.365 . S
N215 H235 0.862 . S
C216 C211 1.501 . S
C216 H217 0.961 . S
C216 H218 0.961 . S
C216 H219 0.960 . S
H217 C216 0.961 . S
H218 C216 0.961 . S
H219 C216 0.960 . S
C220 N221 1.342 . S
C220 C224 1.401 . S
C220 C225 1.499 . S
N221 Co204 1.989 . S
N221 C220 1.342 . S
N221 N222 1.388 . S
N222 Co205 1.993 . S
N222 N221 1.388 . S
N222 C223 1.346 . S
C223 N222 1.346 . S
C223 C224 1.396 . S
C223 C233 1.510 . S
C224 C220 1.401 . S
C224 C223 1.396 . S
C225 C220 1.499 . S
C225 H226 0.959 . S
C225 H227 0.960 1_655 S
C225 H228 0.961 . S
H226 C225 0.959 . S
H227 C225 0.960 1_455 S
H228 C225 0.961 . S
O229 Co204 1.967 . S
O229 C237 1.258 . S
O230 Co205 1.941 . S
O230 C237 1.266 . S
H231 C233 0.959 . S
H232 C233 0.961 . S
C233 C223 1.510 . S
C233 H231 0.959 . S
C233 H232 0.961 . S
C233 H234 0.960 . S
H234 C233 0.960 . S
H235 N215 0.862 . S
O236 Co204 1.920 . S
O236 C209 1.289 1_655 S
C237 O229 1.258 . S
C237 O230 1.266 . S
Co238 O241 1.970 . S
Co238 N255 1.989 . S
Co238 O263 1.967 . S
Co238 O270 1.920 . S
Co239 O242 1.966 . S
Co239 N248 2.022 . S
Co239 N256 1.993 . S
Co239 O264 1.941 . S
C240 O241 1.258 . S
C240 O242 1.263 . S
O241 Co238 1.970 . S
O241 C240 1.258 . S
O242 Co239 1.966 . S
O242 C240 1.263 . S
C243 O244 1.235 . S
C243 O270 1.289 . S
O244 C243 1.235 . S
C245 C247 1.400 . S
C245 N248 1.351 . S
C245 C250 1.501 . S
C246 C247 1.387 . S
C246 N249 1.341 . S
C247 C245 1.400 . S
C247 C246 1.387 . S
N248 Co239 2.022 . S
N248 C245 1.351 . S
N248 N249 1.365 . S
N249 C246 1.341 . S
N249 N248 1.365 . S
N249 H269 0.862 . S
C250 C245 1.501 . S
C250 H251 0.961 . S
C250 H252 0.961 . S
C250 H253 0.960 . S
H251 C250 0.961 . S
H252 C250 0.961 . S
H253 C250 0.960 . S
C254 N255 1.342 . S
C254 C258 1.401 . S
C254 C259 1.499 . S
N255 Co238 1.989 . S
N255 C254 1.342 . S
N255 N256 1.388 . S
N256 Co239 1.993 . S
N256 N255 1.388 . S
N256 C257 1.346 . S
C257 N256 1.346 . S
C257 C258 1.396 . S
C257 C267 1.510 . S
C258 C254 1.401 . S
C258 C257 1.396 . S
C259 C254 1.499 . S
C259 H260 0.959 . S
C259 H261 0.960 . S
C259 H262 0.961 . S
H260 C259 0.959 . S
H261 C259 0.960 . S
H262 C259 0.961 . S
O263 Co238 1.967 . S
O263 C271 1.258 . S
O264 Co239 1.941 . S
O264 C271 1.266 . S
H265 C267 0.959 . S
H266 C267 0.961 . S
C267 C257 1.510 . S
C267 H265 0.959 . S
C267 H266 0.961 . S
C267 H268 0.960 . S
H268 C267 0.960 . S
H269 N249 0.862 . S
O270 Co238 1.920 . S
O270 C243 1.289 . S
C271 O263 1.258 . S
C271 O264 1.266 . S
Co272 O275 1.970 . S
Co272 N289 1.989 . S
Co272 O297 1.967 . S
Co272 O304 1.920 . S
Co273 O276 1.966 . S
Co273 N282 2.022 . S
Co273 N290 1.993 . S
Co273 O298 1.941 . S
C274 O275 1.258 . S
C274 O276 1.263 . S
O275 Co272 1.970 . S
O275 C274 1.258 . S
O276 Co273 1.966 . S
O276 C274 1.263 . S
C277 O278 1.235 . S
C277 O304 1.289 1_565 S
O278 C277 1.235 . S
C279 C281 1.400 . S
C279 N282 1.351 . S
C279 C284 1.501 . S
C280 C281 1.387 . S
C280 N283 1.341 . S
C281 C279 1.400 . S
C281 C280 1.387 . S
N282 Co273 2.022 . S
N282 C279 1.351 . S
N282 N283 1.365 . S
N283 C280 1.341 . S
N283 N282 1.365 . S
N283 H303 0.862 . S
C284 C279 1.501 . S
C284 H285 0.961 . S
C284 H286 0.961 . S
C284 H287 0.960 . S
H285 C284 0.961 . S
H286 C284 0.961 . S
H287 C284 0.960 . S
C288 N289 1.342 . S
C288 C292 1.401 . S
C288 C293 1.499 . S
N289 Co272 1.989 . S
N289 C288 1.342 . S
N289 N290 1.388 . S
N290 Co273 1.993 . S
N290 N289 1.388 . S
N290 C291 1.346 . S
C291 N290 1.346 . S
C291 C292 1.396 . S
C291 C301 1.510 . S
C292 C288 1.401 . S
C292 C291 1.396 . S
C293 C288 1.499 . S
C293 H294 0.959 . S
C293 H295 0.960 1_545 S
C293 H296 0.961 . S
H294 C293 0.959 . S
H295 C293 0.960 1_565 S
H296 C293 0.961 . S
O297 Co272 1.967 . S
O297 C305 1.258 . S
O298 Co273 1.941 . S
O298 C305 1.266 . S
H299 C301 0.959 . S
H300 C301 0.961 . S
C301 C291 1.510 . S
C301 H299 0.959 . S
C301 H300 0.961 . S
C301 H302 0.960 . S
H302 C301 0.960 . S
H303 N283 0.862 . S
O304 Co272 1.920 . S
O304 C277 1.289 1_545 S
C305 O297 1.258 . S
C305 O298 1.266 . S
Co306 O309 1.970 . S
Co306 N323 1.989 . S
Co306 O331 1.967 . S
Co306 O338 1.920 . S
Co307 O310 1.966 . S
Co307 N316 2.022 . S
Co307 N324 1.993 . S
Co307 O332 1.941 . S
C308 O309 1.258 . S
C308 O310 1.263 . S
O309 Co306 1.970 . S
O309 C308 1.258 . S
O310 Co307 1.966 . S
O310 C308 1.263 . S
C311 O312 1.235 . S
C311 O338 1.289 . S
O312 C311 1.235 . S
C313 C315 1.400 . S
C313 N316 1.351 . S
C313 C318 1.501 . S
C314 C315 1.387 . S
C314 N317 1.341 . S
C315 C313 1.400 . S
C315 C314 1.387 . S
N316 Co307 2.022 . S
N316 C313 1.351 . S
N316 N317 1.365 . S
N317 C314 1.341 . S
N317 N316 1.365 . S
N317 H337 0.862 . S
C318 C313 1.501 . S
C318 H319 0.961 . S
C318 H320 0.961 . S
C318 H321 0.960 . S
H319 C318 0.961 . S
H320 C318 0.961 . S
H321 C318 0.960 . S
C322 N323 1.342 . S
C322 C326 1.401 . S
C322 C327 1.499 . S
N323 Co306 1.989 . S
N323 C322 1.342 . S
N323 N324 1.388 . S
N324 Co307 1.993 . S
N324 N323 1.388 . S
N324 C325 1.346 . S
C325 N324 1.346 . S
C325 C326 1.396 . S
C325 C335 1.510 . S
C326 C322 1.401 . S
C326 C325 1.396 . S
C327 C322 1.499 . S
C327 H328 0.959 . S
C327 H329 0.960 . S
C327 H330 0.961 . S
H328 C327 0.959 . S
H329 C327 0.960 . S
H330 C327 0.961 . S
O331 Co306 1.967 . S
O331 C339 1.258 . S
O332 Co307 1.941 . S
O332 C339 1.266 . S
H333 C335 0.959 . S
H334 C335 0.961 . S
C335 C325 1.510 . S
C335 H333 0.959 . S
C335 H334 0.961 . S
C335 H336 0.960 . S
H336 C335 0.960 . S
H337 N317 0.862 . S
O338 Co306 1.920 . S
O338 C311 1.289 . S
C339 O331 1.258 . S
C339 O332 1.266 . S
Co340 O343 1.970 . S
Co340 N357 1.989 . S
Co340 O365 1.967 . S
Co340 O372 1.920 . S
Co341 O344 1.966 . S
Co341 N350 2.022 . S
Co341 N358 1.993 . S
Co341 O366 1.941 . S
C342 O343 1.258 . S
C342 O344 1.263 . S
O343 Co340 1.970 . S
O343 C342 1.258 . S
O344 Co341 1.966 . S
O344 C342 1.263 . S
C345 O346 1.235 . S
C345 O372 1.289 1_545 S
O346 C345 1.235 . S
C347 C349 1.400 . S
C347 N350 1.351 . S
C347 C352 1.501 . S
C348 C349 1.387 . S
C348 N351 1.341 . S
C349 C347 1.400 . S
C349 C348 1.387 . S
N350 Co341 2.022 . S
N350 C347 1.351 . S
N350 N351 1.365 . S
N351 C348 1.341 . S
N351 N350 1.365 . S
N351 H371 0.862 . S
C352 C347 1.501 . S
C352 H353 0.961 . S
C352 H354 0.961 . S
C352 H355 0.960 . S
H353 C352 0.961 . S
H354 C352 0.961 . S
H355 C352 0.960 . S
C356 N357 1.342 . S
C356 C360 1.401 . S
C356 C361 1.499 . S
N357 Co340 1.989 . S
N357 C356 1.342 . S
N357 N358 1.388 . S
N358 Co341 1.993 . S
N358 N357 1.388 . S
N358 C359 1.346 . S
C359 N358 1.346 . S
C359 C360 1.396 . S
C359 C369 1.510 . S
C360 C356 1.401 . S
C360 C359 1.396 . S
C361 C356 1.499 . S
C361 H362 0.959 . S
C361 H363 0.960 1_565 S
C361 H364 0.961 . S
H362 C361 0.959 . S
H363 C361 0.960 1_545 S
H364 C361 0.961 . S
O365 Co340 1.967 . S
O365 C373 1.258 . S
O366 Co341 1.941 . S
O366 C373 1.266 . S
H367 C369 0.959 . S
H368 C369 0.961 . S
C369 C359 1.510 . S
C369 H367 0.959 . S
C369 H368 0.961 . S
C369 H370 0.960 . S
H370 C369 0.960 . S
H371 N351 0.862 . S
O372 Co340 1.920 . S
O372 C345 1.289 1_565 S
C373 O365 1.258 . S
C373 O366 1.266 . S
Co374 O377 1.970 . S
Co374 N391 1.989 . S
Co374 O399 1.967 . S
Co374 O406 1.920 . S
Co375 O378 1.966 . S
Co375 N384 2.022 . S
Co375 N392 1.993 . S
Co375 O400 1.941 . S
C376 O377 1.258 . S
C376 O378 1.263 . S
O377 Co374 1.970 . S
O377 C376 1.258 . S
O378 Co375 1.966 . S
O378 C376 1.263 . S
C379 O380 1.235 . S
C379 O406 1.289 . S
O380 C379 1.235 . S
C381 C383 1.400 . S
C381 N384 1.351 . S
C381 C386 1.501 . S
C382 C383 1.387 . S
C382 N385 1.341 . S
C383 C381 1.400 . S
C383 C382 1.387 . S
N384 Co375 2.022 . S
N384 C381 1.351 . S
N384 N385 1.365 . S
N385 C382 1.341 . S
N385 N384 1.365 . S
N385 H405 0.862 . S
C386 C381 1.501 . S
C386 H387 0.961 . S
C386 H388 0.961 . S
C386 H389 0.960 . S
H387 C386 0.961 . S
H388 C386 0.961 . S
H389 C386 0.960 . S
C390 N391 1.342 . S
C390 C394 1.401 . S
C390 C395 1.499 . S
N391 Co374 1.989 . S
N391 C390 1.342 . S
N391 N392 1.388 . S
N392 Co375 1.993 . S
N392 N391 1.388 . S
N392 C393 1.346 . S
C393 N392 1.346 . S
C393 C394 1.396 . S
C393 C403 1.510 . S
C394 C390 1.401 . S
C394 C393 1.396 . S
C395 C390 1.499 . S
C395 H396 0.959 . S
C395 H397 0.960 . S
C395 H398 0.961 . S
H396 C395 0.959 . S
H397 C395 0.960 . S
H398 C395 0.961 . S
O399 Co374 1.967 . S
O399 C407 1.258 . S
O400 Co375 1.941 . S
O400 C407 1.266 . S
H401 C403 0.959 . S
H402 C403 0.961 . S
C403 C393 1.510 . S
C403 H401 0.959 . S
C403 H402 0.961 . S
C403 H404 0.960 . S
H404 C403 0.960 . S
H405 N385 0.862 . S
O406 Co374 1.920 . S
O406 C379 1.289 . S
C407 O399 1.258 . S
C407 O400 1.266 . S
Co408 O411 1.970 . S
Co408 N425 1.989 . S
Co408 O433 1.967 . S
Co408 O440 1.920 . S
Co409 O412 1.966 . S
Co409 N418 2.022 . S
Co409 N426 1.993 . S
Co409 O434 1.941 . S
C410 O411 1.258 . S
C410 O412 1.263 . S
O411 Co408 1.970 . S
O411 C410 1.258 . S
O412 Co409 1.966 . S
O412 C410 1.263 . S
C413 O414 1.235 . S
C413 O440 1.289 1_545 S
O414 C413 1.235 . S
C415 C417 1.400 . S
C415 N418 1.351 . S
C415 C420 1.501 . S
C416 C417 1.387 . S
C416 N419 1.341 . S
C417 C415 1.400 . S
C417 C416 1.387 . S
N418 Co409 2.022 . S
N418 C415 1.351 . S
N418 N419 1.365 . S
N419 C416 1.341 . S
N419 N418 1.365 . S
N419 H439 0.862 . S
C420 C415 1.501 . S
C420 H421 0.961 . S
C420 H422 0.961 . S
C420 H423 0.960 . S
H421 C420 0.961 . S
H422 C420 0.961 . S
H423 C420 0.960 . S
C424 N425 1.342 . S
C424 C428 1.401 . S
C424 C429 1.499 . S
N425 Co408 1.989 . S
N425 C424 1.342 . S
N425 N426 1.388 . S
N426 Co409 1.993 . S
N426 N425 1.388 . S
N426 C427 1.346 . S
C427 N426 1.346 . S
C427 C428 1.396 . S
C427 C437 1.510 . S
C428 C424 1.401 . S
C428 C427 1.396 . S
C429 C424 1.499 . S
C429 H430 0.959 . S
C429 H431 0.960 1_565 S
C429 H432 0.961 . S
H430 C429 0.959 . S
H431 C429 0.960 1_545 S
H432 C429 0.961 . S
O433 Co408 1.967 . S
O433 C441 1.258 . S
O434 Co409 1.941 . S
O434 C441 1.266 . S
H435 C437 0.959 . S
H436 C437 0.961 . S
C437 C427 1.510 . S
C437 H435 0.959 . S
C437 H436 0.961 . S
C437 H438 0.960 . S
H438 C437 0.960 . S
H439 N419 0.862 . S
O440 Co408 1.920 . S
O440 C413 1.289 1_565 S
C441 O433 1.258 . S
C441 O434 1.266 . S
Co442 O445 1.970 . S
Co442 N459 1.989 . S
Co442 O467 1.967 . S
Co442 O474 1.920 . S
Co443 O446 1.966 . S
Co443 N452 2.022 . S
Co443 N460 1.993 . S
Co443 O468 1.941 . S
C444 O445 1.258 . S
C444 O446 1.263 . S
O445 Co442 1.970 . S
O445 C444 1.258 . S
O446 Co443 1.966 . S
O446 C444 1.263 . S
C447 O448 1.235 . S
C447 O474 1.289 . S
O448 C447 1.235 . S
C449 C451 1.400 . S
C449 N452 1.351 . S
C449 C454 1.501 . S
C450 C451 1.387 . S
C450 N453 1.341 . S
C451 C449 1.400 . S
C451 C450 1.387 . S
N452 Co443 2.022 . S
N452 C449 1.351 . S
N452 N453 1.365 . S
N453 C450 1.341 . S
N453 N452 1.365 . S
N453 H473 0.862 . S
C454 C449 1.501 . S
C454 H455 0.961 . S
C454 H456 0.961 . S
C454 H457 0.960 . S
H455 C454 0.961 . S
H456 C454 0.961 . S
H457 C454 0.960 . S
C458 N459 1.342 . S
C458 C462 1.401 . S
C458 C463 1.499 . S
N459 Co442 1.989 . S
N459 C458 1.342 . S
N459 N460 1.388 . S
N460 Co443 1.993 . S
N460 N459 1.388 . S
N460 C461 1.346 . S
C461 N460 1.346 . S
C461 C462 1.396 . S
C461 C471 1.510 . S
C462 C458 1.401 . S
C462 C461 1.396 . S
C463 C458 1.499 . S
C463 H464 0.959 . S
C463 H465 0.960 . S
C463 H466 0.961 . S
H464 C463 0.959 . S
H465 C463 0.960 . S
H466 C463 0.961 . S
O467 Co442 1.967 . S
O467 C475 1.258 . S
O468 Co443 1.941 . S
O468 C475 1.266 . S
H469 C471 0.959 . S
H470 C471 0.961 . S
C471 C461 1.510 . S
C471 H469 0.959 . S
C471 H470 0.961 . S
C471 H472 0.960 . S
H472 C471 0.960 . S
H473 N453 0.862 . S
O474 Co442 1.920 . S
O474 C447 1.289 . S
C475 O467 1.258 . S
C475 O468 1.266 . S
Co476 O479 1.970 . S
Co476 N493 1.989 . S
Co476 O501 1.967 . S
Co476 O508 1.920 . S
Co477 O480 1.966 . S
Co477 N486 2.022 . S
Co477 N494 1.993 . S
Co477 O502 1.941 . S
C478 O479 1.258 . S
C478 O480 1.263 . S
O479 Co476 1.970 . S
O479 C478 1.258 . S
O480 Co477 1.966 . S
O480 C478 1.263 . S
C481 O482 1.235 . S
C481 O508 1.289 1_565 S
O482 C481 1.235 . S
C483 C485 1.400 . S
C483 N486 1.351 . S
C483 C488 1.501 . S
C484 C485 1.387 . S
C484 N487 1.341 . S
C485 C483 1.400 . S
C485 C484 1.387 . S
N486 Co477 2.022 . S
N486 C483 1.351 . S
N486 N487 1.365 . S
N487 C484 1.341 . S
N487 N486 1.365 . S
N487 H507 0.862 . S
C488 C483 1.501 . S
C488 H489 0.961 . S
C488 H490 0.961 . S
C488 H491 0.960 . S
H489 C488 0.961 . S
H490 C488 0.961 . S
H491 C488 0.960 . S
C492 N493 1.342 . S
C492 C496 1.401 . S
C492 C497 1.499 . S
N493 Co476 1.989 . S
N493 C492 1.342 . S
N493 N494 1.388 . S
N494 Co477 1.993 . S
N494 N493 1.388 . S
N494 C495 1.346 . S
C495 N494 1.346 . S
C495 C496 1.396 . S
C495 C505 1.510 . S
C496 C492 1.401 . S
C496 C495 1.396 . S
C497 C492 1.499 . S
C497 H498 0.959 . S
C497 H499 0.960 1_545 S
C497 H500 0.961 . S
H498 C497 0.959 . S
H499 C497 0.960 1_565 S
H500 C497 0.961 . S
O501 Co476 1.967 . S
O501 C509 1.258 . S
O502 Co477 1.941 . S
O502 C509 1.266 . S
H503 C505 0.959 . S
H504 C505 0.961 . S
C505 C495 1.510 . S
C505 H503 0.959 . S
C505 H504 0.961 . S
C505 H506 0.960 . S
H506 C505 0.960 . S
H507 N487 0.862 . S
O508 Co476 1.920 . S
O508 C481 1.289 1_545 S
C509 O501 1.258 . S
C509 O502 1.266 . S
Co510 O513 1.970 . S
Co510 N527 1.989 . S
Co510 O535 1.967 . S
Co510 O542 1.920 . S
Co511 O514 1.966 . S
Co511 N520 2.022 . S
Co511 N528 1.993 . S
Co511 O536 1.941 . S
C512 O513 1.258 . S
C512 O514 1.263 . S
O513 Co510 1.970 . S
O513 C512 1.258 . S
O514 Co511 1.966 . S
O514 C512 1.263 . S
C515 O516 1.235 . S
C515 O542 1.289 . S
O516 C515 1.235 . S
C517 C519 1.400 . S
C517 N520 1.351 . S
C517 C522 1.501 . S
C518 C519 1.387 . S
C518 N521 1.341 . S
C519 C517 1.400 . S
C519 C518 1.387 . S
N520 Co511 2.022 . S
N520 C517 1.351 . S
N520 N521 1.365 . S
N521 C518 1.341 . S
N521 N520 1.365 . S
N521 H541 0.862 . S
C522 C517 1.501 . S
C522 H523 0.961 . S
C522 H524 0.961 . S
C522 H525 0.960 . S
H523 C522 0.961 . S
H524 C522 0.961 . S
H525 C522 0.960 . S
C526 N527 1.342 . S
C526 C530 1.401 . S
C526 C531 1.499 . S
N527 Co510 1.989 . S
N527 C526 1.342 . S
N527 N528 1.388 . S
N528 Co511 1.993 . S
N528 N527 1.388 . S
N528 C529 1.346 . S
C529 N528 1.346 . S
C529 C530 1.396 . S
C529 C539 1.510 . S
C530 C526 1.401 . S
C530 C529 1.396 . S
C531 C526 1.499 . S
C531 H532 0.959 . S
C531 H533 0.960 . S
C531 H534 0.961 . S
H532 C531 0.959 . S
H533 C531 0.960 . S
H534 C531 0.961 . S
O535 Co510 1.967 . S
O535 C543 1.258 . S
O536 Co511 1.941 . S
O536 C543 1.266 . S
H537 C539 0.959 . S
H538 C539 0.961 . S
C539 C529 1.510 . S
C539 H537 0.959 . S
C539 H538 0.961 . S
C539 H540 0.960 . S
H540 C539 0.960 . S
H541 N521 0.862 . S
O542 Co510 1.920 . S
O542 C515 1.289 . S
C543 O535 1.258 . S
C543 O536 1.266 . S
Co544 O547 1.970 . S
Co544 N561 1.989 . S
Co544 O569 1.967 . S
Co544 O576 1.920 . S
Co545 O548 1.966 . S
Co545 N554 2.022 . S
Co545 N562 1.993 . S
Co545 O570 1.941 . S
C546 O547 1.258 . S
C546 O548 1.263 . S
O547 Co544 1.970 . S
O547 C546 1.258 . S
O548 Co545 1.966 . S
O548 C546 1.263 . S
C549 O550 1.235 . S
C549 O576 1.289 1_556 S
O550 C549 1.235 . S
C551 C553 1.400 . S
C551 N554 1.351 . S
C551 C556 1.501 . S
C552 C553 1.387 . S
C552 N555 1.341 . S
C553 C551 1.400 . S
C553 C552 1.387 . S
N554 Co545 2.022 . S
N554 C551 1.351 . S
N554 N555 1.365 . S
N555 C552 1.341 . S
N555 N554 1.365 . S
N555 H575 0.862 . S
C556 C551 1.501 . S
C556 H557 0.961 . S
C556 H558 0.961 . S
C556 H559 0.960 . S
H557 C556 0.961 . S
H558 C556 0.961 . S
H559 C556 0.960 . S
C560 N561 1.342 . S
C560 C564 1.401 . S
C560 C565 1.499 . S
N561 Co544 1.989 . S
N561 C560 1.342 . S
N561 N562 1.388 . S
N562 Co545 1.993 . S
N562 N561 1.388 . S
N562 C563 1.346 . S
C563 N562 1.346 . S
C563 C564 1.396 . S
C563 C573 1.510 . S
C564 C560 1.401 . S
C564 C563 1.396 . S
C565 C560 1.499 . S
C565 H566 0.959 . S
C565 H567 0.960 1_554 S
C565 H568 0.961 . S
H566 C565 0.959 . S
H567 C565 0.960 1_556 S
H568 C565 0.961 . S
O569 Co544 1.967 . S
O569 C577 1.258 . S
O570 Co545 1.941 . S
O570 C577 1.266 . S
H571 C573 0.959 . S
H572 C573 0.961 . S
C573 C563 1.510 . S
C573 H571 0.959 . S
C573 H572 0.961 . S
C573 H574 0.960 . S
H574 C573 0.960 . S
H575 N555 0.862 . S
O576 Co544 1.920 . S
O576 C549 1.289 1_554 S
C577 O569 1.258 . S
C577 O570 1.266 . S
Co578 O581 1.970 . S
Co578 N595 1.989 . S
Co578 O603 1.967 . S
Co578 O610 1.920 . S
Co579 O582 1.966 . S
Co579 N588 2.022 . S
Co579 N596 1.993 . S
Co579 O604 1.941 . S
C580 O581 1.258 . S
C580 O582 1.263 . S
O581 Co578 1.970 . S
O581 C580 1.258 . S
O582 Co579 1.966 . S
O582 C580 1.263 . S
C583 O584 1.235 . S
C583 O610 1.289 1_554 S
O584 C583 1.235 . S
C585 C587 1.400 . S
C585 N588 1.351 . S
C585 C590 1.501 . S
C586 C587 1.387 . S
C586 N589 1.341 . S
C587 C585 1.400 . S
C587 C586 1.387 . S
N588 Co579 2.022 . S
N588 C585 1.351 . S
N588 N589 1.365 . S
N589 C586 1.341 . S
N589 N588 1.365 . S
N589 H609 0.862 . S
C590 C585 1.501 . S
C590 H591 0.961 . S
C590 H592 0.961 . S
C590 H593 0.960 . S
H591 C590 0.961 . S
H592 C590 0.961 . S
H593 C590 0.960 . S
C594 N595 1.342 . S
C594 C598 1.401 . S
C594 C599 1.499 . S
N595 Co578 1.989 . S
N595 C594 1.342 . S
N595 N596 1.388 . S
N596 Co579 1.993 . S
N596 N595 1.388 . S
N596 C597 1.346 . S
C597 N596 1.346 . S
C597 C598 1.396 . S
C597 C607 1.510 . S
C598 C594 1.401 . S
C598 C597 1.396 . S
C599 C594 1.499 . S
C599 H600 0.959 . S
C599 H601 0.960 1_556 S
C599 H602 0.961 . S
H600 C599 0.959 . S
H601 C599 0.960 1_554 S
H602 C599 0.961 . S
O603 Co578 1.967 . S
O603 C611 1.258 . S
O604 Co579 1.941 . S
O604 C611 1.266 . S
H605 C607 0.959 . S
H606 C607 0.961 . S
C607 C597 1.510 . S
C607 H605 0.959 . S
C607 H606 0.961 . S
C607 H608 0.960 . S
H608 C607 0.960 . S
H609 N589 0.862 . S
O610 Co578 1.920 . S
O610 C583 1.289 1_556 S
C611 O603 1.258 . S
C611 O604 1.266 . S
Co612 O615 1.970 . S
Co612 N629 1.989 . S
Co612 O637 1.967 . S
Co612 O644 1.920 . S
Co613 O616 1.966 . S
Co613 N622 2.022 . S
Co613 N630 1.993 . S
Co613 O638 1.941 . S
C614 O615 1.258 . S
C614 O616 1.263 . S
O615 Co612 1.970 . S
O615 C614 1.258 . S
O616 Co613 1.966 . S
O616 C614 1.263 . S
C617 O618 1.235 . S
C617 O644 1.289 . S
O618 C617 1.235 . S
C619 C621 1.400 . S
C619 N622 1.351 . S
C619 C624 1.501 . S
C620 C621 1.387 . S
C620 N623 1.341 . S
C621 C619 1.400 . S
C621 C620 1.387 . S
N622 Co613 2.022 . S
N622 C619 1.351 . S
N622 N623 1.365 . S
N623 C620 1.341 . S
N623 N622 1.365 . S
N623 H643 0.862 . S
C624 C619 1.501 . S
C624 H625 0.961 . S
C624 H626 0.961 . S
C624 H627 0.960 . S
H625 C624 0.961 . S
H626 C624 0.961 . S
H627 C624 0.960 . S
C628 N629 1.342 . S
C628 C632 1.401 . S
C628 C633 1.499 . S
N629 Co612 1.989 . S
N629 C628 1.342 . S
N629 N630 1.388 . S
N630 Co613 1.993 . S
N630 N629 1.388 . S
N630 C631 1.346 . S
C631 N630 1.346 . S
C631 C632 1.396 . S
C631 C641 1.510 . S
C632 C628 1.401 . S
C632 C631 1.396 . S
C633 C628 1.499 . S
C633 H634 0.959 . S
C633 H635 0.960 . S
C633 H636 0.961 . S
H634 C633 0.959 . S
H635 C633 0.960 . S
H636 C633 0.961 . S
O637 Co612 1.967 . S
O637 C645 1.258 . S
O638 Co613 1.941 . S
O638 C645 1.266 . S
H639 C641 0.959 . S
H640 C641 0.961 . S
C641 C631 1.510 . S
C641 H639 0.959 . S
C641 H640 0.961 . S
C641 H642 0.960 . S
H642 C641 0.960 . S
H643 N623 0.862 . S
O644 Co612 1.920 . S
O644 C617 1.289 . S
C645 O637 1.258 . S
C645 O638 1.266 . S
Co646 O649 1.970 . S
Co646 N663 1.989 . S
Co646 O671 1.967 . S
Co646 O678 1.920 . S
Co647 O650 1.966 . S
Co647 N656 2.022 . S
Co647 N664 1.993 . S
Co647 O672 1.941 . S
C648 O649 1.258 . S
C648 O650 1.263 . S
O649 Co646 1.970 . S
O649 C648 1.258 . S
O650 Co647 1.966 . S
O650 C648 1.263 . S
C651 O652 1.235 . S
C651 O678 1.289 1_554 S
O652 C651 1.235 . S
C653 C655 1.400 . S
C653 N656 1.351 . S
C653 C658 1.501 . S
C654 C655 1.387 . S
C654 N657 1.341 . S
C655 C653 1.400 . S
C655 C654 1.387 . S
N656 Co647 2.022 . S
N656 C653 1.351 . S
N656 N657 1.365 . S
N657 C654 1.341 . S
N657 N656 1.365 . S
N657 H677 0.862 . S
C658 C653 1.501 . S
C658 H659 0.961 . S
C658 H660 0.961 . S
C658 H661 0.960 . S
H659 C658 0.961 . S
H660 C658 0.961 . S
H661 C658 0.960 . S
C662 N663 1.342 . S
C662 C666 1.401 . S
C662 C667 1.499 . S
N663 Co646 1.989 . S
N663 C662 1.342 . S
N663 N664 1.388 . S
N664 Co647 1.993 . S
N664 N663 1.388 . S
N664 C665 1.346 . S
C665 N664 1.346 . S
C665 C666 1.396 . S
C665 C675 1.510 . S
C666 C662 1.401 . S
C666 C665 1.396 . S
C667 C662 1.499 . S
C667 H668 0.959 . S
C667 H669 0.960 1_556 S
C667 H670 0.961 . S
H668 C667 0.959 . S
H669 C667 0.960 1_554 S
H670 C667 0.961 . S
O671 Co646 1.967 . S
O671 C679 1.258 . S
O672 Co647 1.941 . S
O672 C679 1.266 . S
H673 C675 0.959 . S
H674 C675 0.961 . S
C675 C665 1.510 . S
C675 H673 0.959 . S
C675 H674 0.961 . S
C675 H676 0.960 . S
H676 C675 0.960 . S
H677 N657 0.862 . S
O678 Co646 1.920 . S
O678 C651 1.289 1_556 S
C679 O671 1.258 . S
C679 O672 1.266 . S
Co680 O683 1.970 . S
Co680 N697 1.989 . S
Co680 O705 1.967 . S
Co680 O712 1.920 . S
Co681 O684 1.966 . S
Co681 N690 2.022 . S
Co681 N698 1.993 . S
Co681 O706 1.941 . S
C682 O683 1.258 . S
C682 O684 1.263 . S
O683 Co680 1.970 . S
O683 C682 1.258 . S
O684 Co681 1.966 . S
O684 C682 1.263 . S
C685 O686 1.235 . S
C685 O712 1.289 . S
O686 C685 1.235 . S
C687 C689 1.400 . S
C687 N690 1.351 . S
C687 C692 1.501 . S
C688 C689 1.387 . S
C688 N691 1.341 . S
C689 C687 1.400 . S
C689 C688 1.387 . S
N690 Co681 2.022 . S
N690 C687 1.351 . S
N690 N691 1.365 . S
N691 C688 1.341 . S
N691 N690 1.365 . S
N691 H711 0.862 . S
C692 C687 1.501 . S
C692 H693 0.961 . S
C692 H694 0.961 . S
C692 H695 0.960 . S
H693 C692 0.961 . S
H694 C692 0.961 . S
H695 C692 0.960 . S
C696 N697 1.342 . S
C696 C700 1.401 . S
C696 C701 1.499 . S
N697 Co680 1.989 . S
N697 C696 1.342 . S
N697 N698 1.388 . S
N698 Co681 1.993 . S
N698 N697 1.388 . S
N698 C699 1.346 . S
C699 N698 1.346 . S
C699 C700 1.396 . S
C699 C709 1.510 . S
C700 C696 1.401 . S
C700 C699 1.396 . S
C701 C696 1.499 . S
C701 H702 0.959 . S
C701 H703 0.960 . S
C701 H704 0.961 . S
H702 C701 0.959 . S
H703 C701 0.960 . S
H704 C701 0.961 . S
O705 Co680 1.967 . S
O705 C713 1.258 . S
O706 Co681 1.941 . S
O706 C713 1.266 . S
H707 C709 0.959 . S
H708 C709 0.961 . S
C709 C699 1.510 . S
C709 H707 0.959 . S
C709 H708 0.961 . S
C709 H710 0.960 . S
H710 C709 0.960 . S
H711 N691 0.862 . S
O712 Co680 1.920 . S
O712 C685 1.289 . S
C713 O705 1.258 . S
C713 O706 1.266 . S
Co714 O717 1.970 . S
Co714 N731 1.989 . S
Co714 O739 1.967 . S
Co714 O746 1.920 . S
Co715 O718 1.966 . S
Co715 N724 2.022 . S
Co715 N732 1.993 . S
Co715 O740 1.941 . S
C716 O717 1.258 . S
C716 O718 1.263 . S
O717 Co714 1.970 . S
O717 C716 1.258 . S
O718 Co715 1.966 . S
O718 C716 1.263 . S
C719 O720 1.235 . S
C719 O746 1.289 1_556 S
O720 C719 1.235 . S
C721 C723 1.400 . S
C721 N724 1.351 . S
C721 C726 1.501 . S
C722 C723 1.387 . S
C722 N725 1.341 . S
C723 C721 1.400 . S
C723 C722 1.387 . S
N724 Co715 2.022 . S
N724 C721 1.351 . S
N724 N725 1.365 . S
N725 C722 1.341 . S
N725 N724 1.365 . S
N725 H745 0.862 . S
C726 C721 1.501 . S
C726 H727 0.961 . S
C726 H728 0.961 . S
C726 H729 0.960 . S
H727 C726 0.961 . S
H728 C726 0.961 . S
H729 C726 0.960 . S
C730 N731 1.342 . S
C730 C734 1.401 . S
C730 C735 1.499 . S
N731 Co714 1.989 . S
N731 C730 1.342 . S
N731 N732 1.388 . S
N732 Co715 1.993 . S
N732 N731 1.388 . S
N732 C733 1.346 . S
C733 N732 1.346 . S
C733 C734 1.396 . S
C733 C743 1.510 . S
C734 C730 1.401 . S
C734 C733 1.396 . S
C735 C730 1.499 . S
C735 H736 0.959 . S
C735 H737 0.960 1_554 S
C735 H738 0.961 . S
H736 C735 0.959 . S
H737 C735 0.960 1_556 S
H738 C735 0.961 . S
O739 Co714 1.967 . S
O739 C747 1.258 . S
O740 Co715 1.941 . S
O740 C747 1.266 . S
H741 C743 0.959 . S
H742 C743 0.961 . S
C743 C733 1.510 . S
C743 H741 0.959 . S
C743 H742 0.961 . S
C743 H744 0.960 . S
H744 C743 0.960 . S
H745 N725 0.862 . S
O746 Co714 1.920 . S
O746 C719 1.289 1_554 S
C747 O739 1.258 . S
C747 O740 1.266 . S
Co748 O751 1.970 . S
Co748 N765 1.989 . S
Co748 O773 1.967 . S
Co748 O780 1.920 . S
Co749 O752 1.966 . S
Co749 N758 2.022 . S
Co749 N766 1.993 . S
Co749 O774 1.941 . S
C750 O751 1.258 . S
C750 O752 1.263 . S
O751 Co748 1.970 . S
O751 C750 1.258 . S
O752 Co749 1.966 . S
O752 C750 1.263 . S
C753 O754 1.235 . S
C753 O780 1.289 . S
O754 C753 1.235 . S
C755 C757 1.400 . S
C755 N758 1.351 . S
C755 C760 1.501 . S
C756 C757 1.387 . S
C756 N759 1.341 . S
C757 C755 1.400 . S
C757 C756 1.387 . S
N758 Co749 2.022 . S
N758 C755 1.351 . S
N758 N759 1.365 . S
N759 C756 1.341 . S
N759 N758 1.365 . S
N759 H779 0.862 . S
C760 C755 1.501 . S
C760 H761 0.961 . S
C760 H762 0.961 . S
C760 H763 0.960 . S
H761 C760 0.961 . S
H762 C760 0.961 . S
H763 C760 0.960 . S
C764 N765 1.342 . S
C764 C768 1.401 . S
C764 C769 1.499 . S
N765 Co748 1.989 . S
N765 C764 1.342 . S
N765 N766 1.388 . S
N766 Co749 1.993 . S
N766 N765 1.388 . S
N766 C767 1.346 . S
C767 N766 1.346 . S
C767 C768 1.396 . S
C767 C777 1.510 . S
C768 C764 1.401 . S
C768 C767 1.396 . S
C769 C764 1.499 . S
C769 H770 0.959 . S
C769 H771 0.960 . S
C769 H772 0.961 . S
H770 C769 0.959 . S
H771 C769 0.960 . S
H772 C769 0.961 . S
O773 Co748 1.967 . S
O773 C781 1.258 . S
O774 Co749 1.941 . S
O774 C781 1.266 . S
H775 C777 0.959 . S
H776 C777 0.961 . S
C777 C767 1.510 . S
C777 H775 0.959 . S
C777 H776 0.961 . S
C777 H778 0.960 . S
H778 C777 0.960 . S
H779 N759 0.862 . S
O780 Co748 1.920 . S
O780 C753 1.289 . S
C781 O773 1.258 . S
C781 O774 1.266 . S
Co782 O785 1.970 . S
Co782 N799 1.989 . S
Co782 O807 1.967 . S
Co782 O814 1.920 . S
Co783 O786 1.966 . S
Co783 N792 2.022 . S
Co783 N800 1.993 . S
Co783 O808 1.941 . S
C784 O785 1.258 . S
C784 O786 1.263 . S
O785 Co782 1.970 . S
O785 C784 1.258 . S
O786 Co783 1.966 . S
O786 C784 1.263 . S
C787 O788 1.235 . S
C787 O814 1.289 . S
O788 C787 1.235 . S
C789 C791 1.400 . S
C789 N792 1.351 . S
C789 C794 1.501 . S
C790 C791 1.387 . S
C790 N793 1.341 . S
C791 C789 1.400 . S
C791 C790 1.387 . S
N792 Co783 2.022 . S
N792 C789 1.351 . S
N792 N793 1.365 . S
N793 C790 1.341 . S
N793 N792 1.365 . S
N793 H813 0.862 . S
C794 C789 1.501 . S
C794 H795 0.961 . S
C794 H796 0.961 . S
C794 H797 0.960 . S
H795 C794 0.961 . S
H796 C794 0.961 . S
H797 C794 0.960 . S
C798 N799 1.342 . S
C798 C802 1.401 . S
C798 C803 1.499 . S
N799 Co782 1.989 . S
N799 C798 1.342 . S
N799 N800 1.388 . S
N800 Co783 1.993 . S
N800 N799 1.388 . S
N800 C801 1.346 . S
C801 N800 1.346 . S
C801 C802 1.396 . S
C801 C811 1.510 . S
C802 C798 1.401 . S
C802 C801 1.396 . S
C803 C798 1.499 . S
C803 H804 0.959 . S
C803 H805 0.960 . S
C803 H806 0.961 . S
H804 C803 0.959 . S
H805 C803 0.960 . S
H806 C803 0.961 . S
O807 Co782 1.967 . S
O807 C815 1.258 . S
O808 Co783 1.941 . S
O808 C815 1.266 . S
H809 C811 0.959 . S
H810 C811 0.961 . S
C811 C801 1.510 . S
C811 H809 0.959 . S
C811 H810 0.961 . S
C811 H812 0.960 . S
H812 C811 0.960 . S
H813 N793 0.862 . S
O814 Co782 1.920 . S
O814 C787 1.289 . S
C815 O807 1.258 . S
C815 O808 1.266 . S
H816 C822 0.930 . S
H817 C826 0.930 . S
H818 C831 0.929 . S
H819 C829 0.929 . S
H820 C824 0.929 . S
H821 C830 0.929 . S
C822 H816 0.930 . S
C822 C823 1.367 . S
C822 C830 1.378 . S
C823 C822 1.367 . S
C823 C831 1.433 . S
C824 H820 0.929 . S
C824 C826 1.378 . S
C824 C828 1.350 . S
C825 C828 1.463 . S
C825 C830 1.350 . S
C825 N833 1.427 . S
C826 H817 0.930 . S
C826 C824 1.378 . S
C826 C827 1.367 . S
C827 C826 1.367 . S
C827 C829 1.433 . S
C828 C824 1.350 . S
C828 C825 1.463 . S
C828 N832 1.427 . S
C829 H819 0.929 . S
C829 C827 1.433 . S
C829 N832 1.384 . S
C830 H821 0.929 . S
C830 C822 1.378 . S
C830 C825 1.350 . S
C831 H818 0.929 . S
C831 C823 1.433 . S
C831 N833 1.384 . S
N832 C828 1.427 . S
N832 C829 1.384 . S
N833 C825 1.427 . S
N833 C831 1.384 . S
H834 C840 0.930 . S
H835 C844 0.930 . S
H836 C849 0.929 . S
H837 C847 0.929 . S
H838 C842 0.929 . S
H839 C848 0.929 . S
C840 H834 0.930 . S
C840 C841 1.367 . S
C840 C848 1.378 . S
C841 C840 1.367 . S
C841 C849 1.433 . S
C842 H838 0.929 . S
C842 C844 1.378 . S
C842 C846 1.350 . S
C843 C846 1.463 . S
C843 C848 1.350 . S
C843 N851 1.427 . S
C844 H835 0.930 . S
C844 C842 1.378 . S
C844 C845 1.367 . S
C845 C844 1.367 . S
C845 C847 1.433 . S
C846 C842 1.350 . S
C846 C843 1.463 . S
C846 N850 1.427 . S
C847 H837 0.929 . S
C847 C845 1.433 . S
C847 N850 1.384 . S
C848 H839 0.929 . S
C848 C840 1.378 . S
C848 C843 1.350 . S
C849 H836 0.929 . S
C849 C841 1.433 . S
C849 N851 1.384 . S
N850 C846 1.427 . S
N850 C847 1.384 . S
N851 C843 1.427 . S
N851 C849 1.384 . S
H852 C858 0.930 . S
H853 C862 0.930 . S
H854 C867 0.929 . S
H855 C865 0.929 . S
H856 C860 0.929 . S
H857 C866 0.929 . S
C858 H852 0.930 . S
C858 C859 1.367 . S
C858 C866 1.378 . S
C859 C858 1.367 . S
C859 C867 1.433 . S
C860 H856 0.929 . S
C860 C862 1.378 . S
C860 C864 1.350 . S
C861 C864 1.463 . S
C861 C866 1.350 . S
C861 N869 1.427 . S
C862 H853 0.930 . S
C862 C860 1.378 . S
C862 C863 1.367 . S
C863 C862 1.367 . S
C863 C865 1.433 . S
C864 C860 1.350 . S
C864 C861 1.463 . S
C864 N868 1.427 . S
C865 H855 0.929 . S
C865 C863 1.433 . S
C865 N868 1.384 . S
C866 H857 0.929 . S
C866 C858 1.378 . S
C866 C861 1.350 . S
C867 H854 0.929 . S
C867 C859 1.433 . S
C867 N869 1.384 . S
N868 C864 1.427 . S
N868 C865 1.384 . S
N869 C861 1.427 . S
N869 C867 1.384 . S
H870 C876 0.930 . S
H871 C880 0.930 . S
H872 C885 0.929 . S
H873 C883 0.929 . S
H874 C878 0.929 . S
H875 C884 0.929 . S
C876 H870 0.930 . S
C876 C877 1.367 . S
C876 C884 1.378 . S
C877 C876 1.367 . S
C877 C885 1.433 . S
C878 H874 0.929 . S
C878 C880 1.378 . S
C878 C882 1.350 . S
C879 C882 1.463 . S
C879 C884 1.350 . S
C879 N887 1.427 . S
C880 H871 0.930 . S
C880 C878 1.378 . S
C880 C881 1.367 . S
C881 C880 1.367 . S
C881 C883 1.433 . S
C882 C878 1.350 . S
C882 C879 1.463 . S
C882 N886 1.427 . S
C883 H873 0.929 . S
C883 C881 1.433 . S
C883 N886 1.384 . S
C884 H875 0.929 . S
C884 C876 1.378 . S
C884 C879 1.350 . S
C885 H872 0.929 . S
C885 C877 1.433 . S
C885 N887 1.384 . S
N886 C882 1.427 . S
N886 C883 1.384 . S
N887 C879 1.427 . S
N887 C885 1.384 . S
H888 C894 0.930 . S
H889 C898 0.930 . S
H890 C903 0.929 . S
H891 C901 0.929 . S
H892 C896 0.929 . S
H893 C902 0.929 . S
C894 H888 0.930 . S
C894 C895 1.367 . S
C894 C902 1.378 . S
C895 C894 1.367 . S
C895 C903 1.433 . S
C896 H892 0.929 . S
C896 C898 1.378 . S
C896 C900 1.350 . S
C897 C900 1.463 . S
C897 C902 1.350 . S
C897 N905 1.427 . S
C898 H889 0.930 . S
C898 C896 1.378 . S
C898 C899 1.367 . S
C899 C898 1.367 . S
C899 C901 1.433 . S
C900 C896 1.350 . S
C900 C897 1.463 . S
C900 N904 1.427 . S
C901 H891 0.929 . S
C901 C899 1.433 . S
C901 N904 1.384 . S
C902 H893 0.929 . S
C902 C894 1.378 . S
C902 C897 1.350 . S
C903 H890 0.929 . S
C903 C895 1.433 . S
C903 N905 1.384 . S
N904 C900 1.427 . S
N904 C901 1.384 . S
N905 C897 1.427 . S
N905 C903 1.384 . S
H906 C912 0.930 . S
H907 C916 0.930 . S
H908 C921 0.929 . S
H909 C919 0.929 . S
H910 C914 0.929 . S
H911 C920 0.929 . S
C912 H906 0.930 . S
C912 C913 1.367 . S
C912 C920 1.378 . S
C913 C912 1.367 . S
C913 C921 1.433 . S
C914 H910 0.929 . S
C914 C916 1.378 . S
C914 C918 1.350 . S
C915 C918 1.463 . S
C915 C920 1.350 . S
C915 N923 1.427 . S
C916 H907 0.930 . S
C916 C914 1.378 . S
C916 C917 1.367 . S
C917 C916 1.367 . S
C917 C919 1.433 . S
C918 C914 1.350 . S
C918 C915 1.463 . S
C918 N922 1.427 . S
C919 H909 0.929 . S
C919 C917 1.433 . S
C919 N922 1.384 . S
C920 H911 0.929 . S
C920 C912 1.378 . S
C920 C915 1.350 . S
C921 H908 0.929 . S
C921 C913 1.433 . S
C921 N923 1.384 . S
N922 C918 1.427 . S
N922 C919 1.384 . S
N923 C915 1.427 . S
N923 C921 1.384 . S
H924 C930 0.930 . S
H925 C934 0.930 . S
H926 C939 0.929 . S
H927 C937 0.929 . S
H928 C932 0.929 . S
H929 C938 0.929 . S
C930 H924 0.930 . S
C930 C931 1.367 . S
C930 C938 1.378 . S
C931 C930 1.367 . S
C931 C939 1.433 . S
C932 H928 0.929 . S
C932 C934 1.378 . S
C932 C936 1.350 . S
C933 C936 1.463 . S
C933 C938 1.350 . S
C933 N941 1.427 . S
C934 H925 0.930 . S
C934 C932 1.378 . S
C934 C935 1.367 . S
C935 C934 1.367 . S
C935 C937 1.433 . S
C936 C932 1.350 . S
C936 C933 1.463 . S
C936 N940 1.427 . S
C937 H927 0.929 . S
C937 C935 1.433 . S
C937 N940 1.384 . S
C938 H929 0.929 . S
C938 C930 1.378 . S
C938 C933 1.350 . S
C939 H926 0.929 . S
C939 C931 1.433 . S
C939 N941 1.384 . S
N940 C936 1.427 . S
N940 C937 1.384 . S
N941 C933 1.427 . S
N941 C939 1.384 . S
H942 C948 0.930 . S
H943 C952 0.930 . S
H944 C957 0.929 . S
H945 C955 0.929 . S
H946 C950 0.929 . S
H947 C956 0.929 . S
C948 H942 0.930 . S
C948 C949 1.367 . S
C948 C956 1.378 . S
C949 C948 1.367 . S
C949 C957 1.433 . S
C950 H946 0.929 . S
C950 C952 1.378 . S
C950 C954 1.350 . S
C951 C954 1.463 . S
C951 C956 1.350 . S
C951 N959 1.427 . S
C952 H943 0.930 . S
C952 C950 1.378 . S
C952 C953 1.367 . S
C953 C952 1.367 . S
C953 C955 1.433 . S
C954 C950 1.350 . S
C954 C951 1.463 . S
C954 N958 1.427 . S
C955 H945 0.929 . S
C955 C953 1.433 . S
C955 N958 1.384 . S
C956 H947 0.929 . S
C956 C948 1.378 . S
C956 C951 1.350 . S
C957 H944 0.929 . S
C957 C949 1.433 . S
C957 N959 1.384 . S
N958 C954 1.427 . S
N958 C955 1.384 . S
N959 C951 1.427 . S
N959 C957 1.384 . S
H960 C966 0.930 . S
H961 C970 0.930 . S
H962 C975 0.929 . S
H963 C973 0.929 . S
H964 C968 0.929 . S
H965 C974 0.929 . S
C966 H960 0.930 . S
C966 C967 1.367 . S
C966 C974 1.378 . S
C967 C966 1.367 . S
C967 C975 1.433 . S
C968 H964 0.929 . S
C968 C970 1.378 . S
C968 C972 1.350 . S
C969 C972 1.463 . S
C969 C974 1.350 . S
C969 N977 1.427 . S
C970 H961 0.930 . S
C970 C968 1.378 . S
C970 C971 1.367 . S
C971 C970 1.367 . S
C971 C973 1.433 . S
C972 C968 1.350 . S
C972 C969 1.463 . S
C972 N976 1.427 . S
C973 H963 0.929 . S
C973 C971 1.433 . S
C973 N976 1.384 . S
C974 H965 0.929 . S
C974 C966 1.378 . S
C974 C969 1.350 . S
C975 H962 0.929 . S
C975 C967 1.433 . S
C975 N977 1.384 . S
N976 C972 1.427 . S
N976 C973 1.384 . S
N977 C969 1.427 . S
N977 C975 1.384 . S
H978 C984 0.930 . S
H979 C988 0.930 . S
H980 C993 0.929 . S
H981 C991 0.929 1_556 S
H982 C986 0.929 . S
H983 C992 0.929 . S
C984 H978 0.930 . S
C984 C985 1.367 . S
C984 C992 1.378 . S
C985 C984 1.367 . S
C985 C993 1.433 . S
C986 H982 0.929 . S
C986 C988 1.378 . S
C986 C990 1.350 . S
C987 C990 1.463 . S
C987 C992 1.350 . S
C987 N995 1.427 . S
C988 H979 0.930 . S
C988 C986 1.378 . S
C988 C989 1.367 . S
C989 C988 1.367 . S
C989 C991 1.433 . S
C990 C986 1.350 . S
C990 C987 1.463 . S
C990 N994 1.427 . S
C991 H981 0.929 1_554 S
C991 C989 1.433 . S
C991 N994 1.384 . S
C992 H983 0.929 . S
C992 C984 1.378 . S
C992 C987 1.350 . S
C993 H980 0.929 . S
C993 C985 1.433 . S
C993 N995 1.384 . S
N994 C990 1.427 . S
N994 C991 1.384 . S
N995 C987 1.427 . S
N995 C993 1.384 . S
H996 C1002 0.930 . S
H997 C1006 0.930 . S
H998 C1011 0.929 . S
H999 C1009 0.929 . S
H1000 C1004 0.929 . S
H1001 C1010 0.929 . S
C1002 H996 0.930 . S
C1002 C1003 1.367 . S
C1002 C1010 1.378 . S
C1003 C1002 1.367 . S
C1003 C1011 1.433 . S
C1004 H1000 0.929 . S
C1004 C1006 1.378 . S
C1004 C1008 1.350 . S
C1005 C1008 1.463 . S
C1005 C1010 1.350 . S
C1005 N1013 1.427 . S
C1006 H997 0.930 . S
C1006 C1004 1.378 . S
C1006 C1007 1.367 . S
C1007 C1006 1.367 . S
C1007 C1009 1.433 . S
C1008 C1004 1.350 . S
C1008 C1005 1.463 . S
C1008 N1012 1.427 . S
C1009 H999 0.929 . S
C1009 C1007 1.433 . S
C1009 N1012 1.384 . S
C1010 H1001 0.929 . S
C1010 C1002 1.378 . S
C1010 C1005 1.350 . S
C1011 H998 0.929 . S
C1011 C1003 1.433 . S
C1011 N1013 1.384 . S
N1012 C1008 1.427 . S
N1012 C1009 1.384 . S
N1013 C1005 1.427 . S
N1013 C1011 1.384 . S
H1014 C1020 0.956 . S
H1015 C1024 0.930 . S
H1016 C1029 0.929 . S
H1017 C1027 0.929 . S
H1018 C1022 0.929 . S
H1019 C1028 0.929 . S
C1020 H1014 0.956 . S
C1020 C1021 1.367 . S
C1020 C1028 1.378 . S
C1021 C1020 1.367 . S
C1021 C1029 1.433 . S
C1022 H1018 0.929 . S
C1022 C1024 1.378 . S
C1022 C1026 1.350 . S
C1023 C1026 1.463 . S
C1023 C1028 1.350 . S
C1023 N1031 1.427 . S
C1024 H1015 0.930 . S
C1024 C1022 1.378 . S
C1024 C1025 1.367 . S
C1025 C1024 1.367 . S
C1025 C1027 1.433 . S
C1026 C1022 1.350 . S
C1026 C1023 1.463 . S
C1026 N1030 1.427 . S
C1027 H1017 0.929 . S
C1027 C1025 1.433 . S
C1027 N1030 1.384 . S
C1028 H1019 0.929 . S
C1028 C1020 1.378 . S
C1028 C1023 1.350 . S
C1029 H1016 0.929 . S
C1029 C1021 1.433 . S
C1029 N1031 1.384 . S
N1030 C1026 1.427 . S
N1030 C1027 1.384 . S
N1031 C1023 1.427 . S
N1031 C1029 1.384 . S
H1032 C1038 0.930 . S
H1033 C1042 0.930 . S
H1034 C1047 0.929 . S
H1035 C1045 0.929 . S
H1036 C1040 0.929 . S
H1037 C1046 0.929 . S
C1038 H1032 0.930 . S
C1038 C1039 1.367 . S
C1038 C1046 1.378 . S
C1039 C1038 1.367 . S
C1039 C1047 1.433 . S
C1040 H1036 0.929 . S
C1040 C1042 1.378 . S
C1040 C1044 1.350 . S
C1041 C1044 1.463 . S
C1041 C1046 1.350 . S
C1041 N1049 1.427 . S
C1042 H1033 0.930 . S
C1042 C1040 1.378 . S
C1042 C1043 1.367 . S
C1043 C1042 1.367 . S
C1043 C1045 1.433 . S
C1044 C1040 1.350 . S
C1044 C1041 1.463 . S
C1044 N1048 1.427 . S
C1045 H1035 0.929 . S
C1045 C1043 1.433 . S
C1045 N1048 1.384 . S
C1046 H1037 0.929 . S
C1046 C1038 1.378 . S
C1046 C1041 1.350 . S
C1047 H1034 0.929 . S
C1047 C1039 1.433 . S
C1047 N1049 1.384 . S
N1048 C1044 1.427 . S
N1048 C1045 1.384 . S
N1049 C1041 1.427 . S
N1049 C1047 1.384 . S
H1050 C1056 0.930 . S
H1051 C1060 0.930 . S
H1052 C1065 0.929 . S
H1053 C1063 0.929 . S
H1054 C1058 0.929 . S
H1055 C1064 0.929 . S
C1056 H1050 0.930 . S
C1056 C1057 1.367 . S
C1056 C1064 1.378 . S
C1057 C1056 1.367 . S
C1057 C1065 1.433 . S
C1058 H1054 0.929 . S
C1058 C1060 1.378 . S
C1058 C1062 1.350 . S
C1059 C1062 1.463 . S
C1059 C1064 1.350 . S
C1059 N1067 1.427 . S
C1060 H1051 0.930 . S
C1060 C1058 1.378 . S
C1060 C1061 1.367 . S
C1061 C1060 1.367 . S
C1061 C1063 1.433 . S
C1062 C1058 1.350 . S
C1062 C1059 1.463 . S
C1062 N1066 1.427 . S
C1063 H1053 0.929 . S
C1063 C1061 1.433 . S
C1063 N1066 1.384 . S
C1064 H1055 0.929 . S
C1064 C1056 1.378 . S
C1064 C1059 1.350 . S
C1065 H1052 0.929 . S
C1065 C1057 1.433 . S
C1065 N1067 1.384 . S
N1066 C1062 1.427 . S
N1066 C1063 1.384 . S
N1067 C1059 1.427 . S
N1067 C1065 1.384 . S
H1068 C1074 0.930 . S
H1069 C1078 0.930 . S
H1070 C1083 0.929 . S
H1071 C1081 0.929 . S
H1072 C1076 0.929 . S
H1073 C1082 0.929 . S
C1074 H1068 0.930 . S
C1074 C1075 1.367 . S
C1074 C1082 1.378 . S
C1075 C1074 1.367 . S
C1075 C1083 1.433 . S
C1076 H1072 0.929 . S
C1076 C1078 1.378 . S
C1076 C1080 1.350 . S
C1077 C1080 1.463 . S
C1077 C1082 1.350 . S
C1077 N1085 1.427 . S
C1078 H1069 0.930 . S
C1078 C1076 1.378 . S
C1078 C1079 1.367 . S
C1079 C1078 1.367 . S
C1079 C1081 1.433 . S
C1080 C1076 1.350 . S
C1080 C1077 1.463 . S
C1080 N1084 1.427 . S
C1081 H1071 0.929 . S
C1081 C1079 1.433 . S
C1081 N1084 1.384 . S
C1082 H1073 0.929 . S
C1082 C1074 1.378 . S
C1082 C1077 1.350 . S
C1083 H1070 0.929 . S
C1083 C1075 1.433 . S
C1083 N1085 1.384 . S
N1084 C1080 1.427 . S
N1084 C1081 1.384 . S
N1085 C1077 1.427 . S
N1085 C1083 1.384 . S
H1086 C1092 0.930 . S
H1087 C1096 0.930 . S
H1088 C1101 0.929 1_554 S
H1089 C1099 0.929 . S
H1090 C1094 0.929 . S
H1091 C1100 0.929 . S
C1092 H1086 0.930 . S
C1092 C1093 1.367 . S
C1092 C1100 1.378 . S
C1093 C1092 1.367 . S
C1093 C1101 1.433 . S
C1094 H1090 0.929 . S
C1094 C1096 1.378 . S
C1094 C1098 1.350 . S
C1095 C1098 1.463 . S
C1095 C1100 1.350 . S
C1095 N1103 1.427 . S
C1096 H1087 0.930 . S
C1096 C1094 1.378 . S
C1096 C1097 1.367 . S
C1097 C1096 1.367 . S
C1097 C1099 1.433 . S
C1098 C1094 1.350 . S
C1098 C1095 1.463 . S
C1098 N1102 1.427 . S
C1099 H1089 0.929 . S
C1099 C1097 1.433 . S
C1099 N1102 1.384 . S
C1100 H1091 0.929 . S
C1100 C1092 1.378 . S
C1100 C1095 1.350 . S
C1101 H1088 0.929 1_556 S
C1101 C1093 1.433 . S
C1101 N1103 1.384 . S
N1102 C1098 1.427 . S
N1102 C1099 1.384 . S
N1103 C1095 1.427 . S
N1103 C1101 1.384 . S
H1104 C1110 0.930 . S
H1105 C1114 0.930 . S
H1106 C1119 0.929 . S
H1107 C1117 0.929 . S
H1108 C1112 0.929 . S
H1109 C1118 0.929 . S
C1110 H1104 0.930 . S
C1110 C1111 1.367 . S
C1110 C1118 1.378 . S
C1111 C1110 1.367 . S
C1111 C1119 1.433 . S
C1112 H1108 0.929 . S
C1112 C1114 1.378 . S
C1112 C1116 1.350 . S
C1113 C1116 1.463 . S
C1113 C1118 1.350 . S
C1113 N1121 1.427 . S
C1114 H1105 0.930 . S
C1114 C1112 1.378 . S
C1114 C1115 1.367 . S
C1115 C1114 1.367 . S
C1115 C1117 1.433 . S
C1116 C1112 1.350 . S
C1116 C1113 1.463 . S
C1116 N1120 1.427 . S
C1117 H1107 0.929 . S
C1117 C1115 1.433 . S
C1117 N1120 1.384 . S
C1118 H1109 0.929 . S
C1118 C1110 1.378 . S
C1118 C1113 1.350 . S
C1119 H1106 0.929 . S
C1119 C1111 1.433 . S
C1119 N1121 1.384 . S
N1120 C1116 1.427 . S
N1120 C1117 1.384 . S
N1121 C1113 1.427 . S
N1121 C1119 1.384 . S
H1122 C1128 0.930 . S
H1123 C1132 0.930 . S
H1124 C1137 0.929 . S
H1125 C1135 0.929 . S
H1126 C1130 0.929 . S
H1127 C1136 0.929 . S
C1128 H1122 0.930 . S
C1128 C1129 1.367 . S
C1128 C1136 1.378 . S
C1129 C1128 1.367 . S
C1129 C1137 1.433 . S
C1130 H1126 0.929 . S
C1130 C1132 1.378 . S
C1130 C1134 1.350 . S
C1131 C1134 1.463 . S
C1131 C1136 1.350 . S
C1131 N1139 1.427 . S
C1132 H1123 0.930 . S
C1132 C1130 1.378 . S
C1132 C1133 1.367 . S
C1133 C1132 1.367 . S
C1133 C1135 1.433 . S
C1134 C1130 1.350 . S
C1134 C1131 1.463 . S
C1134 N1138 1.427 . S
C1135 H1125 0.929 . S
C1135 C1133 1.433 . S
C1135 N1138 1.384 . S
C1136 H1127 0.929 . S
C1136 C1128 1.378 . S
C1136 C1131 1.350 . S
C1137 H1124 0.929 . S
C1137 C1129 1.433 . S
C1137 N1139 1.384 . S
N1138 C1134 1.427 . S
N1138 C1135 1.384 . S
N1139 C1131 1.427 . S
N1139 C1137 1.384 . S
H1140 C1146 0.930 . S
H1141 C1150 0.930 . S
H1142 C1155 0.929 . S
H1143 C1153 0.929 . S
H1144 C1148 0.929 . S
H1145 C1154 0.929 . S
C1146 H1140 0.930 . S
C1146 C1147 1.367 . S
C1146 C1154 1.378 . S
C1147 C1146 1.367 . S
C1147 C1155 1.433 . S
C1148 H1144 0.929 . S
C1148 C1150 1.378 . S
C1148 C1152 1.350 . S
C1149 C1152 1.463 . S
C1149 C1154 1.350 . S
C1149 N1157 1.427 . S
C1150 H1141 0.930 . S
C1150 C1148 1.378 . S
C1150 C1151 1.367 . S
C1151 C1150 1.367 . S
C1151 C1153 1.433 . S
C1152 C1148 1.350 . S
C1152 C1149 1.463 . S
C1152 N1156 1.427 . S
C1153 H1143 0.929 . S
C1153 C1151 1.433 . S
C1153 N1156 1.384 . S
C1154 H1145 0.929 . S
C1154 C1146 1.378 . S
C1154 C1149 1.350 . S
C1155 H1142 0.929 . S
C1155 C1147 1.433 . S
C1155 N1157 1.384 . S
N1156 C1152 1.427 . S
N1156 C1153 1.384 . S
N1157 C1149 1.427 . S
N1157 C1155 1.384 . S
H1158 C1164 0.930 . S
H1159 C1168 0.930 . S
H1160 C1173 0.929 . S
H1161 C1171 0.929 . S
H1162 C1166 0.929 . S
H1163 C1172 0.929 . S
C1164 H1158 0.930 . S
C1164 C1165 1.367 . S
C1164 C1172 1.378 . S
C1165 C1164 1.367 . S
C1165 C1173 1.433 . S
C1166 H1162 0.929 . S
C1166 C1168 1.378 . S
C1166 C1170 1.350 . S
C1167 C1170 1.463 . S
C1167 C1172 1.350 . S
C1167 N1175 1.427 . S
C1168 H1159 0.930 . S
C1168 C1166 1.378 . S
C1168 C1169 1.367 . S
C1169 C1168 1.367 . S
C1169 C1171 1.433 . S
C1170 C1166 1.350 . S
C1170 C1167 1.463 . S
C1170 N1174 1.427 . S
C1171 H1161 0.929 . S
C1171 C1169 1.433 . S
C1171 N1174 1.384 . S
C1172 H1163 0.929 . S
C1172 C1164 1.378 . S
C1172 C1167 1.350 . S
C1173 H1160 0.929 . S
C1173 C1165 1.433 . S
C1173 N1175 1.384 . S
N1174 C1170 1.427 . S
N1174 C1171 1.384 . S
N1175 C1167 1.427 . S
N1175 C1173 1.384 . S
H1176 C1182 0.930 1_545 S
H1177 C1186 0.930 . S
H1178 C1191 0.929 . S
H1179 C1189 0.929 . S
H1180 C1184 0.929 . S
H1181 C1190 0.929 . S
C1182 H1176 0.930 1_565 S
C1182 C1183 1.367 . S
C1182 C1190 1.378 . S
C1183 C1182 1.367 . S
C1183 C1191 1.433 . S
C1184 H1180 0.929 . S
C1184 C1186 1.378 . S
C1184 C1188 1.350 . S
C1185 C1188 1.463 . S
C1185 C1190 1.350 . S
C1185 N1193 1.427 . S
C1186 H1177 0.930 . S
C1186 C1184 1.378 . S
C1186 C1187 1.367 . S
C1187 C1186 1.367 . S
C1187 C1189 1.433 . S
C1188 C1184 1.350 . S
C1188 C1185 1.463 . S
C1188 N1192 1.427 . S
C1189 H1179 0.929 . S
C1189 C1187 1.433 . S
C1189 N1192 1.384 . S
C1190 H1181 0.929 . S
C1190 C1182 1.378 . S
C1190 C1185 1.350 . S
C1191 H1178 0.929 . S
C1191 C1183 1.433 . S
C1191 N1193 1.384 . S
N1192 C1188 1.427 . S
N1192 C1189 1.384 . S
N1193 C1185 1.427 . S
N1193 C1191 1.384 . S
H1194 C1200 0.930 . S
H1195 C1204 0.930 . S
H1196 C1209 0.929 . S
H1197 C1207 0.929 . S
H1198 C1202 0.929 . S
H1199 C1208 0.929 . S
C1200 H1194 0.930 . S
C1200 C1201 1.367 . S
C1200 C1208 1.378 . S
C1201 C1200 1.367 . S
C1201 C1209 1.433 . S
C1202 H1198 0.929 . S
C1202 C1204 1.378 . S
C1202 C1206 1.350 . S
C1203 C1206 1.463 . S
C1203 C1208 1.350 . S
C1203 N1211 1.427 . S
C1204 H1195 0.930 . S
C1204 C1202 1.378 . S
C1204 C1205 1.367 . S
C1205 C1204 1.367 . S
C1205 C1207 1.433 . S
C1206 C1202 1.350 . S
C1206 C1203 1.463 . S
C1206 N1210 1.427 . S
C1207 H1197 0.929 . S
C1207 C1205 1.433 . S
C1207 N1210 1.384 . S
C1208 H1199 0.929 . S
C1208 C1200 1.378 . S
C1208 C1203 1.350 . S
C1209 H1196 0.929 . S
C1209 C1201 1.433 . S
C1209 N1211 1.384 . S
N1210 C1206 1.427 . S
N1210 C1207 1.384 . S
N1211 C1203 1.427 . S
N1211 C1209 1.384 . S
H1212 C1218 0.930 . S
H1213 C1222 0.930 . S
H1214 C1227 0.929 . S
H1215 C1225 0.929 . S
H1216 C1220 0.929 . S
H1217 C1226 0.929 . S
C1218 H1212 0.930 . S
C1218 C1219 1.367 . S
C1218 C1226 1.378 . S
C1219 C1218 1.367 . S
C1219 C1227 1.433 . S
C1220 H1216 0.929 . S
C1220 C1222 1.378 . S
C1220 C1224 1.350 . S
C1221 C1224 1.463 . S
C1221 C1226 1.350 . S
C1221 N1229 1.427 . S
C1222 H1213 0.930 . S
C1222 C1220 1.378 . S
C1222 C1223 1.367 . S
C1223 C1222 1.367 . S
C1223 C1225 1.433 . S
C1224 C1220 1.350 . S
C1224 C1221 1.463 . S
C1224 N1228 1.427 . S
C1225 H1215 0.929 . S
C1225 C1223 1.433 . S
C1225 N1228 1.384 . S
C1226 H1217 0.929 . S
C1226 C1218 1.378 . S
C1226 C1221 1.350 . S
C1227 H1214 0.929 . S
C1227 C1219 1.433 . S
C1227 N1229 1.384 . S
N1228 C1224 1.427 . S
N1228 C1225 1.384 . S
N1229 C1221 1.427 . S
N1229 C1227 1.384 . S
H1230 C1236 0.930 . S
H1231 C1240 0.930 . S
H1232 C1245 0.929 . S
H1233 C1243 0.929 . S
H1234 C1238 0.929 . S
H1235 C1244 0.929 . S
C1236 H1230 0.930 . S
C1236 C1237 1.367 . S
C1236 C1244 1.378 . S
C1237 C1236 1.367 . S
C1237 C1245 1.433 . S
C1238 H1234 0.929 . S
C1238 C1240 1.378 . S
C1238 C1242 1.350 . S
C1239 C1242 1.463 . S
C1239 C1244 1.350 . S
C1239 N1247 1.427 . S
C1240 H1231 0.930 . S
C1240 C1238 1.378 . S
C1240 C1241 1.367 . S
C1241 C1240 1.367 . S
C1241 C1243 1.433 . S
C1242 C1238 1.350 . S
C1242 C1239 1.463 . S
C1242 N1246 1.427 . S
C1243 H1233 0.929 . S
C1243 C1241 1.433 . S
C1243 N1246 1.384 . S
C1244 H1235 0.929 . S
C1244 C1236 1.378 . S
C1244 C1239 1.350 . S
C1245 H1232 0.929 . S
C1245 C1237 1.433 . S
C1245 N1247 1.384 . S
N1246 C1242 1.427 . S
N1246 C1243 1.384 . S
N1247 C1239 1.427 . S
N1247 C1245 1.384 . S
H1248 C1254 0.930 . S
H1249 C1258 0.930 . S
H1250 C1263 0.929 . S
H1251 C1261 0.929 . S
H1252 C1256 0.929 . S
H1253 C1262 0.929 . S
C1254 H1248 0.930 . S
C1254 C1255 1.367 . S
C1254 C1262 1.378 . S
C1255 C1254 1.367 . S
C1255 C1263 1.433 . S
C1256 H1252 0.929 . S
C1256 C1258 1.378 . S
C1256 C1260 1.350 . S
C1257 C1260 1.463 1_656 S
C1257 C1262 1.350 . S
C1257 N1265 1.427 . S
C1258 H1249 0.930 . S
C1258 C1256 1.378 . S
C1258 C1259 1.367 . S
C1259 C1258 1.367 . S
C1259 C1261 1.433 . S
C1260 C1256 1.350 . S
C1260 C1257 1.463 1_454 S
C1260 N1264 1.427 . S
C1261 H1251 0.929 . S
C1261 C1259 1.433 . S
C1261 N1264 1.384 . S
C1262 H1253 0.929 . S
C1262 C1254 1.378 . S
C1262 C1257 1.350 . S
C1263 H1250 0.929 . S
C1263 C1255 1.433 . S
C1263 N1265 1.384 . S
N1264 C1260 1.427 . S
N1264 C1261 1.384 . S
N1265 C1257 1.427 . S
N1265 C1263 1.384 . S
H1266 C1272 0.930 . S
H1267 C1276 0.930 . S
H1268 C1281 0.929 . S
H1269 C1279 0.929 . S
H1270 C1274 0.929 . S
H1271 C1280 0.929 . S
C1272 H1266 0.930 . S
C1272 C1273 1.367 . S
C1272 C1280 1.378 . S
C1273 C1272 1.367 . S
C1273 C1281 1.433 . S
C1274 H1270 0.929 . S
C1274 C1276 1.378 . S
C1274 C1278 1.350 . S
C1275 C1278 1.463 . S
C1275 C1280 1.350 . S
C1275 N1283 1.427 . S
C1276 H1267 0.930 . S
C1276 C1274 1.378 . S
C1276 C1277 1.367 . S
C1277 C1276 1.367 . S
C1277 C1279 1.433 . S
C1278 C1274 1.350 . S
C1278 C1275 1.463 . S
C1278 N1282 1.427 . S
C1279 H1269 0.929 . S
C1279 C1277 1.433 . S
C1279 N1282 1.384 . S
C1280 H1271 0.929 . S
C1280 C1272 1.378 . S
C1280 C1275 1.350 . S
C1281 H1268 0.929 . S
C1281 C1273 1.433 . S
C1281 N1283 1.384 . S
N1282 C1278 1.427 . S
N1282 C1279 1.384 . S
N1283 C1275 1.427 . S
N1283 C1281 1.384 . S
H1284 C1290 0.930 . S
H1285 C1294 0.930 . S
H1286 C1299 0.929 . S
H1287 C1297 0.929 . S
H1288 C1292 0.929 . S
H1289 C1298 0.929 . S
C1290 H1284 0.930 . S
C1290 C1291 1.367 . S
C1290 C1298 1.378 . S
C1291 C1290 1.367 . S
C1291 C1299 1.433 . S
C1292 H1288 0.929 . S
C1292 C1294 1.378 . S
C1292 C1296 1.350 . S
C1293 C1296 1.463 1_456 S
C1293 C1298 1.350 . S
C1293 N1301 1.427 . S
C1294 H1285 0.930 . S
C1294 C1292 1.378 . S
C1294 C1295 1.367 . S
C1295 C1294 1.367 . S
C1295 C1297 1.433 . S
C1296 C1292 1.350 . S
C1296 C1293 1.463 1_654 S
C1296 N1300 1.427 . S
C1297 H1287 0.929 . S
C1297 C1295 1.433 . S
C1297 N1300 1.384 . S
C1298 H1289 0.929 . S
C1298 C1290 1.378 . S
C1298 C1293 1.350 . S
C1299 H1286 0.929 . S
C1299 C1291 1.433 . S
C1299 N1301 1.384 . S
N1300 C1296 1.427 . S
N1300 C1297 1.384 . S
N1301 C1293 1.427 . S
N1301 C1299 1.384 . S
H1302 C1308 0.930 . S
H1303 C1312 0.930 . S
H1304 C1317 0.929 . S
H1305 C1315 0.929 . S
H1306 C1310 0.929 . S
H1307 C1316 0.929 . S
C1308 H1302 0.930 . S
C1308 C1309 1.367 . S
C1308 C1316 1.378 . S
C1309 C1308 1.367 . S
C1309 C1317 1.433 . S
C1310 H1306 0.929 . S
C1310 C1312 1.378 . S
C1310 C1314 1.350 . S
C1311 C1314 1.463 . S
C1311 C1316 1.350 . S
C1311 N1319 1.427 . S
C1312 H1303 0.930 . S
C1312 C1310 1.378 . S
C1312 C1313 1.367 . S
C1313 C1312 1.367 . S
C1313 C1315 1.433 . S
C1314 C1310 1.350 . S
C1314 C1311 1.463 . S
C1314 N1318 1.427 . S
C1315 H1305 0.929 . S
C1315 C1313 1.433 . S
C1315 N1318 1.384 . S
C1316 H1307 0.929 . S
C1316 C1308 1.378 . S
C1316 C1311 1.350 . S
C1317 H1304 0.929 . S
C1317 C1309 1.433 . S
C1317 N1319 1.384 . S
N1318 C1314 1.427 . S
N1318 C1315 1.384 . S
N1319 C1311 1.427 . S
N1319 C1317 1.384 . S
H1320 C1326 0.930 . S
H1321 C1330 0.930 . S
H1322 C1335 0.929 . S
H1323 C1333 0.929 . S
H1324 C1328 0.929 . S
H1325 C1334 0.929 . S
C1326 H1320 0.930 . S
C1326 C1327 1.367 . S
C1326 C1334 1.378 . S
C1327 C1326 1.367 . S
C1327 C1335 1.433 . S
C1328 H1324 0.929 . S
C1328 C1330 1.378 . S
C1328 C1332 1.350 . S
C1329 C1332 1.463 1_665 S
C1329 C1334 1.350 . S
C1329 N1337 1.427 . S
C1330 H1321 0.930 . S
C1330 C1328 1.378 . S
C1330 C1331 1.367 . S
C1331 C1330 1.367 . S
C1331 C1333 1.433 . S
C1332 C1328 1.350 . S
C1332 C1329 1.463 1_445 S
C1332 N1336 1.427 . S
C1333 H1323 0.929 . S
C1333 C1331 1.433 . S
C1333 N1336 1.384 . S
C1334 H1325 0.929 . S
C1334 C1326 1.378 . S
C1334 C1329 1.350 . S
C1335 H1322 0.929 . S
C1335 C1327 1.433 . S
C1335 N1337 1.384 . S
N1336 C1332 1.427 . S
N1336 C1333 1.384 . S
N1337 C1329 1.427 . S
N1337 C1335 1.384 . S
H1338 C1344 0.930 . S
H1339 C1348 0.930 . S
H1340 C1353 0.929 . S
H1341 C1351 0.929 . S
H1342 C1346 0.929 . S
H1343 C1352 0.929 . S
C1344 H1338 0.930 . S
C1344 C1345 1.367 . S
C1344 C1352 1.378 . S
C1345 C1344 1.367 . S
C1345 C1353 1.433 . S
C1346 H1342 0.929 . S
C1346 C1348 1.378 . S
C1346 C1350 1.350 . S
C1347 C1350 1.463 . S
C1347 C1352 1.350 . S
C1347 N1355 1.427 . S
C1348 H1339 0.930 . S
C1348 C1346 1.378 . S
C1348 C1349 1.367 . S
C1349 C1348 1.367 . S
C1349 C1351 1.433 . S
C1350 C1346 1.350 . S
C1350 C1347 1.463 . S
C1350 N1354 1.427 . S
C1351 H1341 0.929 . S
C1351 C1349 1.433 . S
C1351 N1354 1.384 . S
C1352 H1343 0.929 . S
C1352 C1344 1.378 . S
C1352 C1347 1.350 . S
C1353 H1340 0.929 . S
C1353 C1345 1.433 . S
C1353 N1355 1.384 . S
N1354 C1350 1.427 . S
N1354 C1351 1.384 . S
N1355 C1347 1.427 . S
N1355 C1353 1.384 . S
H1356 C1362 0.930 . S
H1357 C1366 0.930 . S
H1358 C1371 0.929 . S
H1359 C1369 0.929 . S
H1360 C1364 0.929 1_565 S
H1361 C1370 0.929 1_545 S
C1362 H1356 0.930 . S
C1362 C1363 1.367 . S
C1362 C1370 1.378 . S
C1363 C1362 1.367 . S
C1363 C1371 1.433 . S
C1364 H1360 0.929 1_545 S
C1364 C1366 1.378 . S
C1364 C1368 1.350 . S
C1365 C1368 1.463 1_465 S
C1365 C1370 1.350 . S
C1365 N1373 1.427 . S
C1366 H1357 0.930 . S
C1366 C1364 1.378 . S
C1366 C1367 1.367 . S
C1367 C1366 1.367 . S
C1367 C1369 1.433 . S
C1368 C1364 1.350 . S
C1368 C1365 1.463 1_645 S
C1368 N1372 1.427 . S
C1369 H1359 0.929 . S
C1369 C1367 1.433 . S
C1369 N1372 1.384 . S
C1370 H1361 0.929 1_565 S
C1370 C1362 1.378 . S
C1370 C1365 1.350 . S
C1371 H1358 0.929 . S
C1371 C1363 1.433 . S
C1371 N1373 1.384 . S
N1372 C1368 1.427 . S
N1372 C1369 1.384 . S
N1373 C1365 1.427 . S
N1373 C1371 1.384 . S
H1374 C1380 0.930 . S
H1375 C1384 0.930 . S
H1376 C1389 0.929 . S
H1377 C1387 0.929 . S
H1378 C1382 0.929 . S
H1379 C1388 0.929 . S
C1380 H1374 0.930 . S
C1380 C1381 1.367 . S
C1380 C1388 1.378 . S
C1381 C1380 1.367 . S
C1381 C1389 1.433 . S
C1382 H1378 0.929 . S
C1382 C1384 1.378 . S
C1382 C1386 1.350 . S
C1383 C1386 1.463 . S
C1383 C1388 1.350 . S
C1383 N1391 1.427 . S
C1384 H1375 0.930 . S
C1384 C1382 1.378 . S
C1384 C1385 1.367 . S
C1385 C1384 1.367 . S
C1385 C1387 1.433 . S
C1386 C1382 1.350 . S
C1386 C1383 1.463 . S
C1386 N1390 1.427 . S
C1387 H1377 0.929 . S
C1387 C1385 1.433 . S
C1387 N1390 1.384 . S
C1388 H1379 0.929 . S
C1388 C1380 1.378 . S
C1388 C1383 1.350 . S
C1389 H1376 0.929 . S
C1389 C1381 1.433 . S
C1389 N1391 1.384 . S
N1390 C1386 1.427 . S
N1390 C1387 1.384 . S
N1391 C1383 1.427 . S
N1391 C1389 1.384 . S
H1392 C1398 0.930 1_556 S
H1393 C1402 0.930 1_554 S
H1394 C1407 0.929 . S
H1395 C1405 0.929 . S
H1396 C1400 0.929 . S
H1397 C1406 0.929 . S
C1398 H1392 0.930 1_554 S
C1398 C1399 1.367 . S
C1398 C1406 1.378 1_554 S
C1399 C1398 1.367 . S
C1399 C1407 1.433 . S
C1400 H1396 0.929 . S
C1400 C1402 1.378 1_554 S
C1400 C1404 1.350 1_554 S
C1401 C1404 1.463 1_544 S
C1401 C1406 1.350 1_554 S
C1401 N1409 1.427 . S
C1402 H1393 0.930 1_556 S
C1402 C1400 1.378 1_556 S
C1402 C1403 1.367 . S
C1403 C1402 1.367 . S
C1403 C1405 1.433 . S
C1404 C1400 1.350 1_556 S
C1404 C1401 1.463 1_566 S
C1404 N1408 1.427 . S
C1405 H1395 0.929 . S
C1405 C1403 1.433 . S
C1405 N1408 1.384 . S
C1406 H1397 0.929 . S
C1406 C1398 1.378 1_556 S
C1406 C1401 1.350 1_556 S
C1407 H1394 0.929 . S
C1407 C1399 1.433 . S
C1407 N1409 1.384 . S
N1408 C1404 1.427 . S
N1408 C1405 1.384 . S
N1409 C1401 1.427 . S
N1409 C1407 1.384 . S
H1410 C1416 0.930 . S
H1411 C1420 0.930 . S
H1412 C1425 0.929 . S
H1413 C1423 0.929 . S
H1414 C1418 0.929 . S
H1415 C1424 0.929 . S
C1416 H1410 0.930 . S
C1416 C1417 1.367 . S
C1416 C1424 1.378 . S
C1417 C1416 1.367 . S
C1417 C1425 1.433 . S
C1418 H1414 0.929 . S
C1418 C1420 1.378 . S
C1418 C1422 1.350 . S
C1419 C1422 1.463 . S
C1419 C1424 1.350 . S
C1419 N1427 1.427 . S
C1420 H1411 0.930 . S
C1420 C1418 1.378 . S
C1420 C1421 1.367 . S
C1421 C1420 1.367 . S
C1421 C1423 1.433 . S
C1422 C1418 1.350 . S
C1422 C1419 1.463 . S
C1422 N1426 1.427 . S
C1423 H1413 0.929 . S
C1423 C1421 1.433 . S
C1423 N1426 1.384 . S
C1424 H1415 0.929 . S
C1424 C1416 1.378 . S
C1424 C1419 1.350 . S
C1425 H1412 0.929 . S
C1425 C1417 1.433 . S
C1425 N1427 1.384 . S
N1426 C1422 1.427 . S
N1426 C1423 1.384 . S
N1427 C1419 1.427 . S
N1427 C1425 1.384 . S
H1428 C1434 0.920 1_554 S
H1429 C1438 0.920 1_556 S
H1430 C1443 0.929 . S
H1431 C1441 0.929 . S
H1432 C1436 0.929 . S
H1433 C1442 0.929 . S
C1434 H1428 0.920 1_556 S
C1434 C1435 1.367 . S
C1434 C1442 1.378 1_556 S
C1435 C1434 1.367 . S
C1435 C1443 1.433 . S
C1436 H1432 0.929 . S
C1436 C1438 1.378 1_556 S
C1436 C1440 1.350 1_556 S
C1437 C1440 1.463 1_546 S
C1437 C1442 1.350 1_556 S
C1437 N1445 1.427 . S
C1438 H1429 0.920 1_554 S
C1438 C1436 1.378 1_554 S
C1438 C1439 1.367 . S
C1439 C1438 1.367 . S
C1439 C1441 1.433 . S
C1440 C1436 1.350 1_554 S
C1440 C1437 1.463 1_564 S
C1440 N1444 1.427 . S
C1441 H1431 0.929 . S
C1441 C1439 1.433 . S
C1441 N1444 1.384 . S
C1442 H1433 0.929 . S
C1442 C1434 1.378 1_554 S
C1442 C1437 1.350 1_554 S
C1443 H1430 0.929 . S
C1443 C1435 1.433 . S
C1443 N1445 1.384 . S
N1444 C1440 1.427 . S
N1444 C1441 1.384 . S
N1445 C1437 1.427 . S
N1445 C1443 1.384 . S
H1446 C1452 0.930 . S
H1447 C1456 0.930 . S
H1448 C1461 0.929 . S
H1449 C1459 0.929 . S
H1450 C1454 0.929 . S
H1451 C1460 0.929 . S
C1452 H1446 0.930 . S
C1452 C1453 1.367 . S
C1452 C1460 1.378 . S
C1453 C1452 1.367 . S
C1453 C1461 1.433 . S
C1454 H1450 0.929 . S
C1454 C1456 1.378 . S
C1454 C1458 1.350 . S
C1455 C1458 1.463 . S
C1455 C1460 1.350 . S
C1455 N1463 1.427 . S
C1456 H1447 0.930 . S
C1456 C1454 1.378 . S
C1456 C1457 1.367 . S
C1457 C1456 1.367 . S
C1457 C1459 1.433 . S
C1458 C1454 1.350 . S
C1458 C1455 1.463 . S
C1458 N1462 1.427 . S
C1459 H1449 0.929 . S
C1459 C1457 1.433 . S
C1459 N1462 1.384 . S
C1460 H1451 0.929 . S
C1460 C1452 1.378 . S
C1460 C1455 1.350 . S
C1461 H1448 0.929 . S
C1461 C1453 1.433 . S
C1461 N1463 1.384 . S
N1462 C1458 1.427 . S
N1462 C1459 1.384 . S
N1463 C1455 1.427 . S
N1463 C1461 1.384 . S
H1464 C1470 0.930 . S
H1465 C1474 0.930 . S
H1466 C1479 0.929 . S
H1467 C1477 0.929 . S
H1468 C1472 0.929 . S
H1469 C1478 0.929 . S
C1470 H1464 0.930 . S
C1470 C1471 1.367 . S
C1470 C1478 1.378 . S
C1471 C1470 1.367 . S
C1471 C1479 1.433 . S
C1472 H1468 0.929 . S
C1472 C1474 1.378 . S
C1472 C1476 1.350 . S
C1473 C1476 1.463 . S
C1473 C1478 1.350 . S
C1473 N1481 1.427 . S
C1474 H1465 0.930 . S
C1474 C1472 1.378 . S
C1474 C1475 1.367 . S
C1475 C1474 1.367 . S
C1475 C1477 1.433 . S
C1476 C1472 1.350 . S
C1476 C1473 1.463 . S
C1476 N1480 1.427 . S
C1477 H1467 0.929 . S
C1477 C1475 1.433 . S
C1477 N1480 1.384 . S
C1478 H1469 0.929 . S
C1478 C1470 1.378 . S
C1478 C1473 1.350 . S
C1479 H1466 0.929 . S
C1479 C1471 1.433 . S
C1479 N1481 1.384 . S
N1480 C1476 1.427 . S
N1480 C1477 1.384 . S
N1481 C1473 1.427 . S
N1481 C1479 1.384 . S
H1482 C1488 0.930 . S
H1483 C1492 0.930 . S
H1484 C1497 0.929 . S
H1485 C1495 0.929 . S
H1486 C1490 0.929 . S
H1487 C1496 0.929 . S
C1488 H1482 0.930 . S
C1488 C1489 1.367 . S
C1488 C1496 1.378 . S
C1489 C1488 1.367 . S
C1489 C1497 1.433 . S
C1490 H1486 0.929 . S
C1490 C1492 1.378 . S
C1490 C1494 1.350 . S
C1491 C1494 1.463 . S
C1491 C1496 1.350 . S
C1491 N1499 1.427 . S
C1492 H1483 0.930 . S
C1492 C1490 1.378 . S
C1492 C1493 1.367 . S
C1493 C1492 1.367 . S
C1493 C1495 1.433 . S
C1494 C1490 1.350 . S
C1494 C1491 1.463 . S
C1494 N1498 1.427 . S
C1495 H1485 0.929 . S
C1495 C1493 1.433 . S
C1495 N1498 1.384 . S
C1496 H1487 0.929 . S
C1496 C1488 1.378 . S
C1496 C1491 1.350 . S
C1497 H1484 0.929 . S
C1497 C1489 1.433 . S
C1497 N1499 1.384 . S
N1498 C1494 1.427 . S
N1498 C1495 1.384 . S
N1499 C1491 1.427 . S
N1499 C1497 1.384 . S
H1500 C1506 0.930 . S
H1501 C1510 0.930 . S
H1502 C1515 0.929 . S
H1503 C1513 0.929 . S
H1504 C1508 0.929 . S
H1505 C1514 0.929 . S
C1506 H1500 0.930 . S
C1506 C1507 1.367 . S
C1506 C1514 1.378 . S
C1507 C1506 1.367 . S
C1507 C1515 1.433 . S
C1508 H1504 0.929 . S
C1508 C1510 1.378 . S
C1508 C1512 1.350 . S
C1509 C1512 1.463 . S
C1509 C1514 1.350 . S
C1509 N1517 1.427 . S
C1510 H1501 0.930 . S
C1510 C1508 1.378 . S
C1510 C1511 1.367 . S
C1511 C1510 1.367 . S
C1511 C1513 1.433 . S
C1512 C1508 1.350 . S
C1512 C1509 1.463 . S
C1512 N1516 1.427 . S
C1513 H1503 0.929 . S
C1513 C1511 1.433 . S
C1513 N1516 1.384 . S
C1514 H1505 0.929 . S
C1514 C1506 1.378 . S
C1514 C1509 1.350 . S
C1515 H1502 0.929 . S
C1515 C1507 1.433 . S
C1515 N1517 1.384 . S
N1516 C1512 1.427 . S
N1516 C1513 1.384 . S
N1517 C1509 1.427 . S
N1517 C1515 1.384 . S
H1518 C1524 0.930 . S
H1519 C1528 0.930 . S
H1520 C1533 0.929 . S
H1521 C1531 0.929 . S
H1522 C1526 0.929 . S
H1523 C1532 0.929 . S
C1524 H1518 0.930 . S
C1524 C1525 1.367 . S
C1524 C1532 1.378 . S
C1525 C1524 1.367 . S
C1525 C1533 1.433 . S
C1526 H1522 0.929 . S
C1526 C1528 1.378 . S
C1526 C1530 1.350 . S
C1527 C1530 1.463 . S
C1527 C1532 1.350 . S
C1527 N1535 1.427 . S
C1528 H1519 0.930 . S
C1528 C1526 1.378 . S
C1528 C1529 1.367 . S
C1529 C1528 1.367 . S
C1529 C1531 1.433 . S
C1530 C1526 1.350 . S
C1530 C1527 1.463 . S
C1530 N1534 1.427 . S
C1531 H1521 0.929 . S
C1531 C1529 1.433 . S
C1531 N1534 1.384 . S
C1532 H1523 0.929 . S
C1532 C1524 1.378 . S
C1532 C1527 1.350 . S
C1533 H1520 0.929 . S
C1533 C1525 1.433 . S
C1533 N1535 1.384 . S
N1534 C1530 1.427 . S
N1534 C1531 1.384 . S
N1535 C1527 1.427 . S
N1535 C1533 1.384 . S
H1536 C1542 0.930 . S
H1537 C1546 0.930 . S
H1538 C1551 0.929 . S
H1539 C1549 0.929 . S
H1540 C1544 0.929 . S
H1541 C1550 0.929 . S
C1542 H1536 0.930 . S
C1542 C1543 1.367 . S
C1542 C1550 1.378 . S
C1543 C1542 1.367 . S
C1543 C1551 1.433 . S
C1544 H1540 0.929 . S
C1544 C1546 1.378 . S
C1544 C1548 1.350 . S
C1545 C1548 1.463 . S
C1545 C1550 1.350 . S
C1545 N1553 1.427 . S
C1546 H1537 0.930 . S
C1546 C1544 1.378 . S
C1546 C1547 1.367 . S
C1547 C1546 1.367 . S
C1547 C1549 1.433 . S
C1548 C1544 1.350 . S
C1548 C1545 1.463 . S
C1548 N1552 1.427 . S
C1549 H1539 0.929 . S
C1549 C1547 1.433 . S
C1549 N1552 1.384 . S
C1550 H1541 0.929 . S
C1550 C1542 1.378 . S
C1550 C1545 1.350 . S
C1551 H1538 0.929 . S
C1551 C1543 1.433 . S
C1551 N1553 1.384 . S
N1552 C1548 1.427 . S
N1552 C1549 1.384 . S
N1553 C1545 1.427 . S
N1553 C1551 1.384 . S
H1554 C1560 0.930 . S
H1555 C1564 0.930 . S
H1556 C1569 0.929 . S
H1557 C1567 0.929 . S
H1558 C1562 0.929 . S
H1559 C1568 0.929 . S
C1560 H1554 0.930 . S
C1560 C1561 1.367 . S
C1560 C1568 1.378 . S
C1561 C1560 1.367 . S
C1561 C1569 1.433 . S
C1562 H1558 0.929 . S
C1562 C1564 1.378 . S
C1562 C1566 1.350 . S
C1563 C1566 1.463 . S
C1563 C1568 1.350 . S
C1563 N1571 1.427 . S
C1564 H1555 0.930 . S
C1564 C1562 1.378 . S
C1564 C1565 1.367 . S
C1565 C1564 1.367 . S
C1565 C1567 1.433 . S
C1566 C1562 1.350 . S
C1566 C1563 1.463 . S
C1566 N1570 1.427 . S
C1567 H1557 0.929 . S
C1567 C1565 1.433 . S
C1567 N1570 1.384 . S
C1568 H1559 0.929 . S
C1568 C1560 1.378 . S
C1568 C1563 1.350 . S
C1569 H1556 0.929 . S
C1569 C1561 1.433 . S
C1569 N1571 1.384 . S
N1570 C1566 1.427 . S
N1570 C1567 1.384 . S
N1571 C1563 1.427 . S
N1571 C1569 1.384 . S
H1572 C1578 0.930 . S
H1573 C1582 0.930 . S
H1574 C1587 0.929 . S
H1575 C1585 0.929 . S
H1576 C1580 0.929 . S
H1577 C1586 0.929 . S
C1578 H1572 0.930 . S
C1578 C1579 1.367 . S
C1578 C1586 1.378 . S
C1579 C1578 1.367 . S
C1579 C1587 1.433 . S
C1580 H1576 0.929 . S
C1580 C1582 1.378 . S
C1580 C1584 1.350 . S
C1581 C1584 1.463 . S
C1581 C1586 1.350 . S
C1581 N1589 1.427 . S
C1582 H1573 0.930 . S
C1582 C1580 1.378 . S
C1582 C1583 1.367 . S
C1583 C1582 1.367 . S
C1583 C1585 1.433 . S
C1584 C1580 1.350 . S
C1584 C1581 1.463 . S
C1584 N1588 1.427 . S
C1585 H1575 0.929 . S
C1585 C1583 1.433 . S
C1585 N1588 1.384 . S
C1586 H1577 0.929 . S
C1586 C1578 1.378 . S
C1586 C1581 1.350 . S
C1587 H1574 0.929 . S
C1587 C1579 1.433 . S
C1587 N1589 1.384 . S
N1588 C1584 1.427 . S
N1588 C1585 1.384 . S
N1589 C1581 1.427 . S
N1589 C1587 1.384 . S
H1590 C1596 0.930 . S
H1591 C1600 0.930 . S
H1592 C1605 0.929 . S
H1593 C1603 0.929 . S
H1594 C1598 0.929 . S
H1595 C1604 0.929 . S
C1596 H1590 0.930 . S
C1596 C1597 1.367 . S
C1596 C1604 1.378 . S
C1597 C1596 1.367 . S
C1597 C1605 1.433 . S
C1598 H1594 0.929 . S
C1598 C1600 1.378 . S
C1598 C1602 1.350 . S
C1599 C1602 1.463 . S
C1599 C1604 1.350 . S
C1599 N1607 1.427 . S
C1600 H1591 0.930 . S
C1600 C1598 1.378 . S
C1600 C1601 1.367 . S
C1601 C1600 1.367 . S
C1601 C1603 1.433 . S
C1602 C1598 1.350 . S
C1602 C1599 1.463 . S
C1602 N1606 1.427 . S
C1603 H1593 0.929 . S
C1603 C1601 1.433 . S
C1603 N1606 1.384 . S
C1604 H1595 0.929 . S
C1604 C1596 1.378 . S
C1604 C1599 1.350 . S
C1605 H1592 0.929 . S
C1605 C1597 1.433 . S
C1605 N1607 1.384 . S
N1606 C1602 1.427 . S
N1606 C1603 1.384 . S
N1607 C1599 1.427 . S
N1607 C1605 1.384 . S
H1608 C1614 0.930 . S
H1609 C1618 0.930 . S
H1610 C1623 0.929 . S
H1611 C1621 0.929 . S
H1612 C1616 0.929 . S
H1613 C1622 0.929 . S
C1614 H1608 0.930 . S
C1614 C1615 1.367 . S
C1614 C1622 1.378 . S
C1615 C1614 1.367 . S
C1615 C1623 1.433 . S
C1616 H1612 0.929 . S
C1616 C1618 1.378 . S
C1616 C1620 1.350 . S
C1617 C1620 1.463 . S
C1617 C1622 1.350 . S
C1617 N1625 1.427 . S
C1618 H1609 0.930 . S
C1618 C1616 1.378 . S
C1618 C1619 1.367 . S
C1619 C1618 1.367 . S
C1619 C1621 1.433 . S
C1620 C1616 1.350 . S
C1620 C1617 1.463 . S
C1620 N1624 1.427 . S
C1621 H1611 0.929 . S
C1621 C1619 1.433 . S
C1621 N1624 1.384 . S
C1622 H1613 0.929 . S
C1622 C1614 1.378 . S
C1622 C1617 1.350 . S
C1623 H1610 0.929 . S
C1623 C1615 1.433 . S
C1623 N1625 1.384 . S
N1624 C1620 1.427 . S
N1624 C1621 1.384 . S
N1625 C1617 1.427 . S
N1625 C1623 1.384 . S
H1626 C1632 0.930 . S
H1627 C1636 0.930 . S
H1628 C1641 0.929 . S
H1629 C1639 0.929 . S
H1630 C1634 0.929 . S
H1631 C1640 0.929 . S
C1632 H1626 0.930 . S
C1632 C1633 1.367 . S
C1632 C1640 1.378 . S
C1633 C1632 1.367 . S
C1633 C1641 1.433 . S
C1634 H1630 0.929 . S
C1634 C1636 1.378 . S
C1634 C1638 1.350 . S
C1635 C1638 1.463 . S
C1635 C1640 1.350 . S
C1635 N1643 1.427 . S
C1636 H1627 0.930 . S
C1636 C1634 1.378 . S
C1636 C1637 1.367 . S
C1637 C1636 1.367 . S
C1637 C1639 1.433 . S
C1638 C1634 1.350 . S
C1638 C1635 1.463 . S
C1638 N1642 1.427 . S
C1639 H1629 0.929 . S
C1639 C1637 1.433 . S
C1639 N1642 1.384 . S
C1640 H1631 0.929 . S
C1640 C1632 1.378 . S
C1640 C1635 1.350 . S
C1641 H1628 0.929 . S
C1641 C1633 1.433 . S
C1641 N1643 1.384 . S
N1642 C1638 1.427 . S
N1642 C1639 1.384 . S
N1643 C1635 1.427 . S
N1643 C1641 1.384 . S
H1644 C1650 0.930 . S
H1645 C1654 0.930 . S
H1646 C1659 0.929 . S
H1647 C1657 0.929 . S
H1648 C1652 0.929 . S
H1649 C1658 0.929 . S
C1650 H1644 0.930 . S
C1650 C1651 1.367 . S
C1650 C1658 1.378 . S
C1651 C1650 1.367 . S
C1651 C1659 1.433 . S
C1652 H1648 0.929 . S
C1652 C1654 1.378 . S
C1652 C1656 1.350 . S
C1653 C1656 1.463 . S
C1653 C1658 1.350 . S
C1653 N1661 1.427 . S
C1654 H1645 0.930 . S
C1654 C1652 1.378 . S
C1654 C1655 1.367 . S
C1655 C1654 1.367 . S
C1655 C1657 1.433 . S
C1656 C1652 1.350 . S
C1656 C1653 1.463 . S
C1656 N1660 1.427 . S
C1657 H1647 0.929 . S
C1657 C1655 1.433 . S
C1657 N1660 1.384 . S
C1658 H1649 0.929 . S
C1658 C1650 1.378 . S
C1658 C1653 1.350 . S
C1659 H1646 0.929 . S
C1659 C1651 1.433 . S
C1659 N1661 1.384 . S
N1660 C1656 1.427 . S
N1660 C1657 1.384 . S
N1661 C1653 1.427 . S
N1661 C1659 1.384 . S
H1662 C1668 0.930 . S
H1663 C1672 0.930 . S
H1664 C1677 0.929 . S
H1665 C1675 0.929 . S
H1666 C1670 0.929 . S
H1667 C1676 0.929 . S
C1668 H1662 0.930 . S
C1668 C1669 1.367 . S
C1668 C1676 1.378 . S
C1669 C1668 1.367 . S
C1669 C1677 1.433 . S
C1670 H1666 0.929 . S
C1670 C1672 1.378 . S
C1670 C1674 1.350 . S
C1671 C1674 1.463 . S
C1671 C1676 1.350 . S
C1671 N1679 1.427 . S
C1672 H1663 0.930 . S
C1672 C1670 1.378 . S
C1672 C1673 1.367 . S
C1673 C1672 1.367 . S
C1673 C1675 1.433 . S
C1674 C1670 1.350 . S
C1674 C1671 1.463 . S
C1674 N1678 1.427 . S
C1675 H1665 0.929 . S
C1675 C1673 1.433 . S
C1675 N1678 1.384 . S
C1676 H1667 0.929 . S
C1676 C1668 1.378 . S
C1676 C1671 1.350 . S
C1677 H1664 0.929 . S
C1677 C1669 1.433 . S
C1677 N1679 1.384 . S
N1678 C1674 1.427 . S
N1678 C1675 1.384 . S
N1679 C1671 1.427 . S
N1679 C1677 1.384 . S
H1680 C1686 0.930 . S
H1681 C1690 0.930 . S
H1682 C1695 0.929 . S
H1683 C1693 0.929 . S
H1684 C1688 0.929 . S
H1685 C1694 0.929 . S
C1686 H1680 0.930 . S
C1686 C1687 1.367 . S
C1686 C1694 1.378 . S
C1687 C1686 1.367 . S
C1687 C1695 1.433 . S
C1688 H1684 0.929 . S
C1688 C1690 1.378 . S
C1688 C1692 1.350 . S
C1689 C1692 1.463 . S
C1689 C1694 1.350 . S
C1689 N1697 1.427 . S
C1690 H1681 0.930 . S
C1690 C1688 1.378 . S
C1690 C1691 1.367 . S
C1691 C1690 1.367 . S
C1691 C1693 1.433 . S
C1692 C1688 1.350 . S
C1692 C1689 1.463 . S
C1692 N1696 1.427 . S
C1693 H1683 0.929 . S
C1693 C1691 1.433 . S
C1693 N1696 1.384 . S
C1694 H1685 0.929 . S
C1694 C1686 1.378 . S
C1694 C1689 1.350 . S
C1695 H1682 0.929 . S
C1695 C1687 1.433 . S
C1695 N1697 1.384 . S
N1696 C1692 1.427 . S
N1696 C1693 1.384 . S
N1697 C1689 1.427 . S
N1697 C1695 1.384 . S
H1698 C1704 0.930 . S
H1699 C1708 0.930 . S
H1700 C1713 0.929 . S
H1701 C1711 0.929 . S
H1702 C1706 0.929 . S
H1703 C1712 0.929 . S
C1704 H1698 0.930 . S
C1704 C1705 1.367 . S
C1704 C1712 1.378 . S
C1705 C1704 1.367 . S
C1705 C1713 1.433 . S
C1706 H1702 0.929 . S
C1706 C1708 1.378 . S
C1706 C1710 1.350 . S
C1707 C1710 1.463 . S
C1707 C1712 1.350 . S
C1707 N1715 1.427 . S
C1708 H1699 0.930 . S
C1708 C1706 1.378 . S
C1708 C1709 1.367 . S
C1709 C1708 1.367 . S
C1709 C1711 1.433 . S
C1710 C1706 1.350 . S
C1710 C1707 1.463 . S
C1710 N1714 1.427 . S
C1711 H1701 0.929 . S
C1711 C1709 1.433 . S
C1711 N1714 1.384 . S
C1712 H1703 0.929 . S
C1712 C1704 1.378 . S
C1712 C1707 1.350 . S
C1713 H1700 0.929 . S
C1713 C1705 1.433 . S
C1713 N1715 1.384 . S
N1714 C1710 1.427 . S
N1714 C1711 1.384 . S
N1715 C1707 1.427 . S
N1715 C1713 1.384 . S
H1716 C1722 0.930 . S
H1717 C1726 0.930 . S
H1718 C1731 0.929 . S
H1719 C1729 0.929 . S
H1720 C1724 0.929 . S
H1721 C1730 0.929 . S
C1722 H1716 0.930 . S
C1722 C1723 1.367 . S
C1722 C1730 1.378 . S
C1723 C1722 1.367 . S
C1723 C1731 1.433 . S
C1724 H1720 0.929 . S
C1724 C1726 1.378 . S
C1724 C1728 1.350 . S
C1725 C1728 1.463 . S
C1725 C1730 1.350 . S
C1725 N1733 1.427 . S
C1726 H1717 0.930 . S
C1726 C1724 1.378 . S
C1726 C1727 1.367 . S
C1727 C1726 1.367 . S
C1727 C1729 1.433 . S
C1728 C1724 1.350 . S
C1728 C1725 1.463 . S
C1728 N1732 1.427 . S
C1729 H1719 0.929 . S
C1729 C1727 1.433 . S
C1729 N1732 1.384 . S
C1730 H1721 0.929 . S
C1730 C1722 1.378 . S
C1730 C1725 1.350 . S
C1731 H1718 0.929 . S
C1731 C1723 1.433 . S
C1731 N1733 1.384 . S
N1732 C1728 1.427 . S
N1732 C1729 1.384 . S
N1733 C1725 1.427 . S
N1733 C1731 1.384 . S
H1734 C1740 0.930 . S
H1735 C1744 0.930 . S
H1736 C1749 0.929 . S
H1737 C1747 0.929 . S
H1738 C1742 0.929 . S
H1739 C1748 0.929 . S
C1740 H1734 0.930 . S
C1740 C1741 1.367 . S
C1740 C1748 1.378 . S
C1741 C1740 1.367 . S
C1741 C1749 1.433 . S
C1742 H1738 0.929 . S
C1742 C1744 1.378 . S
C1742 C1746 1.350 . S
C1743 C1746 1.463 . S
C1743 C1748 1.350 . S
C1743 N1751 1.427 . S
C1744 H1735 0.930 . S
C1744 C1742 1.378 . S
C1744 C1745 1.367 . S
C1745 C1744 1.367 . S
C1745 C1747 1.433 . S
C1746 C1742 1.350 . S
C1746 C1743 1.463 . S
C1746 N1750 1.427 . S
C1747 H1737 0.929 . S
C1747 C1745 1.433 . S
C1747 N1750 1.384 . S
C1748 H1739 0.929 . S
C1748 C1740 1.378 . S
C1748 C1743 1.350 . S
C1749 H1736 0.929 . S
C1749 C1741 1.433 . S
C1749 N1751 1.384 . S
N1750 C1746 1.427 . S
N1750 C1747 1.384 . S
N1751 C1743 1.427 . S
N1751 C1749 1.384 . S
H1752 C1758 0.930 . S
H1753 C1762 0.930 . S
H1754 C1767 0.929 . S
H1755 C1765 0.929 . S
H1756 C1760 0.929 . S
H1757 C1766 0.929 . S
C1758 H1752 0.930 . S
C1758 C1759 1.367 . S
C1758 C1766 1.378 . S
C1759 C1758 1.367 . S
C1759 C1767 1.433 . S
C1760 H1756 0.929 . S
C1760 C1762 1.378 . S
C1760 C1764 1.350 . S
C1761 C1764 1.463 . S
C1761 C1766 1.350 . S
C1761 N1769 1.427 . S
C1762 H1753 0.930 . S
C1762 C1760 1.378 . S
C1762 C1763 1.367 . S
C1763 C1762 1.367 . S
C1763 C1765 1.433 . S
C1764 C1760 1.350 . S
C1764 C1761 1.463 . S
C1764 N1768 1.427 . S
C1765 H1755 0.929 . S
C1765 C1763 1.433 . S
C1765 N1768 1.384 . S
C1766 H1757 0.929 . S
C1766 C1758 1.378 . S
C1766 C1761 1.350 . S
C1767 H1754 0.929 . S
C1767 C1759 1.433 . S
C1767 N1769 1.384 . S
N1768 C1764 1.427 . S
N1768 C1765 1.384 . S
N1769 C1761 1.427 . S
N1769 C1767 1.384 . S
H1770 C1776 0.930 . S
H1771 C1780 0.930 . S
H1772 C1785 0.929 . S
H1773 C1783 0.929 . S
H1774 C1778 0.929 . S
H1775 C1784 0.929 . S
C1776 H1770 0.930 . S
C1776 C1777 1.367 . S
C1776 C1784 1.378 . S
C1777 C1776 1.367 . S
C1777 C1785 1.433 . S
C1778 H1774 0.929 . S
C1778 C1780 1.378 . S
C1778 C1782 1.350 . S
C1779 C1782 1.463 . S
C1779 C1784 1.350 . S
C1779 N1787 1.427 . S
C1780 H1771 0.930 . S
C1780 C1778 1.378 . S
C1780 C1781 1.367 . S
C1781 C1780 1.367 . S
C1781 C1783 1.433 . S
C1782 C1778 1.350 . S
C1782 C1779 1.463 . S
C1782 N1786 1.427 . S
C1783 H1773 0.929 . S
C1783 C1781 1.433 . S
C1783 N1786 1.384 . S
C1784 H1775 0.929 . S
C1784 C1776 1.378 . S
C1784 C1779 1.350 . S
C1785 H1772 0.929 . S
C1785 C1777 1.433 . S
C1785 N1787 1.384 . S
N1786 C1782 1.427 . S
N1786 C1783 1.384 . S
N1787 C1779 1.427 . S
N1787 C1785 1.384 . S
H1788 C1794 0.930 . S
H1789 C1798 0.930 . S
H1790 C1803 0.929 . S
H1791 C1801 0.929 . S
H1792 C1796 0.929 . S
H1793 C1802 0.929 . S
C1794 H1788 0.930 . S
C1794 C1795 1.367 . S
C1794 C1802 1.378 . S
C1795 C1794 1.367 . S
C1795 C1803 1.433 . S
C1796 H1792 0.929 . S
C1796 C1798 1.378 . S
C1796 C1800 1.350 . S
C1797 C1800 1.463 . S
C1797 C1802 1.350 . S
C1797 N1805 1.427 . S
C1798 H1789 0.930 . S
C1798 C1796 1.378 . S
C1798 C1799 1.367 . S
C1799 C1798 1.367 . S
C1799 C1801 1.433 . S
C1800 C1796 1.350 . S
C1800 C1797 1.463 . S
C1800 N1804 1.427 . S
C1801 H1791 0.929 . S
C1801 C1799 1.433 . S
C1801 N1804 1.384 . S
C1802 H1793 0.929 . S
C1802 C1794 1.378 . S
C1802 C1797 1.350 . S
C1803 H1790 0.929 . S
C1803 C1795 1.433 . S
C1803 N1805 1.384 . S
N1804 C1800 1.427 . S
N1804 C1801 1.384 . S
N1805 C1797 1.427 . S
N1805 C1803 1.384 . S
H1806 C1812 0.930 . S
H1807 C1816 0.930 . S
H1808 C1821 0.929 . S
H1809 C1819 0.929 . S
H1810 C1814 0.929 . S
H1811 C1820 0.929 . S
C1812 H1806 0.930 . S
C1812 C1813 1.367 . S
C1812 C1820 1.378 . S
C1813 C1812 1.367 . S
C1813 C1821 1.433 . S
C1814 H1810 0.929 . S
C1814 C1816 1.378 . S
C1814 C1818 1.350 . S
C1815 C1818 1.463 . S
C1815 C1820 1.350 . S
C1815 N1823 1.427 . S
C1816 H1807 0.930 . S
C1816 C1814 1.378 . S
C1816 C1817 1.367 . S
C1817 C1816 1.367 . S
C1817 C1819 1.433 . S
C1818 C1814 1.350 . S
C1818 C1815 1.463 . S
C1818 N1822 1.427 . S
C1819 H1809 0.929 . S
C1819 C1817 1.433 . S
C1819 N1822 1.384 . S
C1820 H1811 0.929 . S
C1820 C1812 1.378 . S
C1820 C1815 1.350 . S
C1821 H1808 0.929 . S
C1821 C1813 1.433 . S
C1821 N1823 1.384 . S
N1822 C1818 1.427 . S
N1822 C1819 1.384 . S
N1823 C1815 1.427 . S
N1823 C1821 1.384 . S
H1824 C1830 0.930 . S
H1825 C1834 0.930 . S
H1826 C1839 0.929 . S
H1827 C1837 0.929 . S
H1828 C1832 0.929 . S
H1829 C1838 0.929 . S
C1830 H1824 0.930 . S
C1830 C1831 1.367 . S
C1830 C1838 1.378 . S
C1831 C1830 1.367 . S
C1831 C1839 1.433 . S
C1832 H1828 0.929 . S
C1832 C1834 1.378 . S
C1832 C1836 1.350 . S
C1833 C1836 1.463 . S
C1833 C1838 1.350 . S
C1833 N1841 1.427 . S
C1834 H1825 0.930 . S
C1834 C1832 1.378 . S
C1834 C1835 1.367 . S
C1835 C1834 1.367 . S
C1835 C1837 1.433 . S
C1836 C1832 1.350 . S
C1836 C1833 1.463 . S
C1836 N1840 1.427 . S
C1837 H1827 0.929 . S
C1837 C1835 1.433 . S
C1837 N1840 1.384 . S
C1838 H1829 0.929 . S
C1838 C1830 1.378 . S
C1838 C1833 1.350 . S
C1839 H1826 0.929 . S
C1839 C1831 1.433 . S
C1839 N1841 1.384 . S
N1840 C1836 1.427 . S
N1840 C1837 1.384 . S
N1841 C1833 1.427 . S
N1841 C1839 1.384 . S
H1842 C1848 0.930 . S
H1843 C1852 0.930 . S
H1844 C1857 0.929 . S
H1845 C1855 0.929 . S
H1846 C1850 0.929 . S
H1847 C1856 0.929 . S
C1848 H1842 0.930 . S
C1848 C1849 1.367 . S
C1848 C1856 1.378 . S
C1849 C1848 1.367 . S
C1849 C1857 1.433 . S
C1850 H1846 0.929 . S
C1850 C1852 1.378 . S
C1850 C1854 1.350 . S
C1851 C1854 1.463 . S
C1851 C1856 1.350 . S
C1851 N1859 1.427 . S
C1852 H1843 0.930 . S
C1852 C1850 1.378 . S
C1852 C1853 1.367 . S
C1853 C1852 1.367 . S
C1853 C1855 1.433 . S
C1854 C1850 1.350 . S
C1854 C1851 1.463 . S
C1854 N1858 1.427 . S
C1855 H1845 0.929 . S
C1855 C1853 1.433 . S
C1855 N1858 1.384 . S
C1856 H1847 0.929 . S
C1856 C1848 1.378 . S
C1856 C1851 1.350 . S
C1857 H1844 0.929 . S
C1857 C1849 1.433 . S
C1857 N1859 1.384 . S
N1858 C1854 1.427 . S
N1858 C1855 1.384 . S
N1859 C1851 1.427 . S
N1859 C1857 1.384 . S
H1860 C1866 0.930 . S
H1861 C1870 0.930 . S
H1862 C1875 0.929 . S
H1863 C1873 0.929 . S
H1864 C1868 0.929 . S
H1865 C1874 0.929 . S
C1866 H1860 0.930 . S
C1866 C1867 1.367 . S
C1866 C1874 1.378 . S
C1867 C1866 1.367 . S
C1867 C1875 1.433 . S
C1868 H1864 0.929 . S
C1868 C1870 1.378 . S
C1868 C1872 1.350 . S
C1869 C1872 1.463 . S
C1869 C1874 1.350 . S
C1869 N1877 1.427 . S
C1870 H1861 0.930 . S
C1870 C1868 1.378 . S
C1870 C1871 1.367 . S
C1871 C1870 1.367 . S
C1871 C1873 1.433 . S
C1872 C1868 1.350 . S
C1872 C1869 1.463 . S
C1872 N1876 1.427 . S
C1873 H1863 0.929 . S
C1873 C1871 1.433 . S
C1873 N1876 1.384 . S
C1874 H1865 0.929 . S
C1874 C1866 1.378 . S
C1874 C1869 1.350 . S
C1875 H1862 0.929 . S
C1875 C1867 1.433 . S
C1875 N1877 1.384 . S
N1876 C1872 1.427 . S
N1876 C1873 1.384 . S
N1877 C1869 1.427 . S
N1877 C1875 1.384 . S
H1878 C1884 0.930 . S
H1879 C1888 0.930 . S
H1880 C1893 0.929 . S
H1881 C1891 0.929 . S
H1882 C1886 0.929 . S
H1883 C1892 0.929 . S
C1884 H1878 0.930 . S
C1884 C1885 1.367 . S
C1884 C1892 1.378 . S
C1885 C1884 1.367 . S
C1885 C1893 1.433 . S
C1886 H1882 0.929 . S
C1886 C1888 1.378 . S
C1886 C1890 1.350 . S
C1887 C1890 1.463 . S
C1887 C1892 1.350 . S
C1887 N1895 1.427 . S
C1888 H1879 0.930 . S
C1888 C1886 1.378 . S
C1888 C1889 1.367 . S
C1889 C1888 1.367 . S
C1889 C1891 1.433 . S
C1890 C1886 1.350 . S
C1890 C1887 1.463 . S
C1890 N1894 1.427 . S
C1891 H1881 0.929 . S
C1891 C1889 1.433 . S
C1891 N1894 1.384 . S
C1892 H1883 0.929 . S
C1892 C1884 1.378 . S
C1892 C1887 1.350 . S
C1893 H1880 0.929 . S
C1893 C1885 1.433 . S
C1893 N1895 1.384 . S
N1894 C1890 1.427 . S
N1894 C1891 1.384 . S
N1895 C1887 1.427 . S
N1895 C1893 1.384 . S
C823 C107 1.252 . S
C827 C33 1.255 . S
C841 C5 1.259 . S
C845 C67 1.259 . S
C859 C39 1.254 . S
C863 C101 1.255 . S
C877 C135 1.258 . S
C881 C73 1.254 . S
C895 C175 1.253 . S
C899 C169 1.257 . S
C913 C209 1.263 . S
C917 C203 1.264 . S
C931 C237 1.255 . S
C935 C243 1.252 . S
C949 C141 1.252 . S
C953 C271 1.255 . S
C967 C305 1.254 . S
C971 C617 1.253 . S
C985 C339 1.263 . S
C989 C651 1.260 . S
C1003 C685 1.254 . S
C1007 C373 1.257 . S
C1021 C583 1.252 . S
C1025 C407 1.254 . S
C1039 C753 1.256 . S
C1043 C441 1.259 . S
C1057 C475 1.262 . S
C1061 C549 1.261 . S
C1075 C509 1.260 . S
C1079 C787 1.260 . S
C1093 C719 1.258 . S
C1097 C543 1.262 . S
C1111 C311 1.262 . S
C1115 C577 1.265 . S
C1129 C611 1.256 . S
C1133 C515 1.253 . S
C1147 C413 1.259 . S
C1151 C645 1.259 . S
C1165 C447 1.261 . S
C1169 C679 1.262 . S
C1183 C481 1.255 . S
C1187 C713 1.256 . S
C1201 C379 1.260 . S
C1205 C747 1.263 . S
C1219 C277 1.254 . S
C1223 C781 1.257 . S
C1237 C345 1.257 . S
C1241 C815 1.261 . S
C1255 C224 2.011 . S
C1259 C20 2.016 . S
C1273 C54 2.012 . S
C1277 C258 2.014 . S
C1291 C156 2.016 . S
C1295 C88 2.012 . S
C1309 C190 2.015 . S
C1313 C122 2.011 . S
C1327 C360 2.011 . S
C1331 C292 2.015 . S
C1345 C326 2.015 . S
C1349 C394 2.013 . S
C1363 C428 2.011 . S
C1367 C496 2.015 . S
C1381 C530 2.012 . S
C1385 C462 2.016 . S
C1399 C564 2.013 . S
C1403 C598 2.012 . S
C1417 C632 2.013 . S
C1421 C802 2.015 . S
C1435 C666 2.014 . S
C1439 C734 2.012 . S
C1453 C768 2.012 . S
C1457 C700 2.016 . S
C1471 C2 1.213 . S
C1475 C281 1.171 . S
C1489 C36 1.213 . S
C1493 C315 1.172 . S
C1507 C349 1.175 . S
C1511 C70 1.214 . S
C1525 C383 1.159 . S
C1529 C104 1.208 . S
C1543 C138 1.209 . S
C1547 C417 1.162 . S
C1561 C451 1.177 . S
C1565 C172 1.215 . S
C1579 C206 1.214 . S
C1583 C485 1.174 . S
C1597 C519 1.160 . S
C1601 C240 1.208 . S
C1615 C274 1.209 . S
C1619 C553 1.163 . S
C1633 C791 1.176 . S
C1637 C308 1.215 . S
C1651 C342 1.207 . S
C1655 C723 1.157 . S
C1669 C376 1.215 . S
C1673 C757 1.177 . S
C1687 C587 1.163 . S
C1691 C410 1.209 . S
C1705 C444 1.215 . S
C1709 C621 1.178 . S
C1723 C478 1.209 . S
C1727 C655 1.162 . S
C1741 C512 1.215 . S
C1745 C689 1.177 . S
C1759 C546 1.209 . S
C1763 C9 1.162 . S
C1777 C580 1.213 . S
C1781 C145 1.172 . S
C1795 C614 1.208 . S
C1799 C179 1.160 . S
C1813 C213 1.166 . S
C1817 C648 1.210 . S
C1831 C682 1.207 . S
C1835 C247 1.158 . S
C1849 C77 1.171 . S
C1853 C716 1.213 . S
C1867 C111 1.174 . S
C1871 C750 1.214 . S
C1885 C784 1.213 . S
C1889 C43 1.172 . S
