# Generated by pormake.
# Topology unn, (4)-cn, num edge types: 1
# Building blocks:
#     Node 0, Type 0, BuildingBlock: KOZSID_clean_sbu_0, # of connection points: 4
#     Node 1, Type 0, BuildingBlock: KOZSID_clean_sbu_0, # of connection points: 4
#     Node 2, Type 0, BuildingBlock: KOZSID_clean_sbu_0, # of connection points: 4
#     Node 3, Type 0, BuildingBlock: KOZSID_clean_sbu_0, # of connection points: 4
#     Node 4, Type 0, BuildingBlock: KOZSID_clean_sbu_0, # of connection points: 4
#     Node 5, Type 0, BuildingBlock: KOZSID_clean_sbu_0, # of connection points: 4
#     Node 6, Type 0, BuildingBlock: KOZSID_clean_sbu_0, # of connection points: 4
#     Node 7, Type 0, BuildingBlock: KOZSID_clean_sbu_0, # of connection points: 4
#     Node 8, Type 0, BuildingBlock: KOZSID_clean_sbu_0, # of connection points: 4
#     Node 9, Type 0, BuildingBlock: KOZSID_clean_sbu_0, # of connection points: 4
#     Node 10, Type 0, BuildingBlock: KOZSID_clean_sbu_0, # of connection points: 4
#     Node 11, Type 0, BuildingBlock: KOZSID_clean_sbu_0, # of connection points: 4
#     Node 12, Type 0, BuildingBlock: KOZSID_clean_sbu_0, # of connection points: 4
#     Node 13, Type 0, BuildingBlock: KOZSID_clean_sbu_0, # of connection points: 4
#     Node 14, Type 0, BuildingBlock: KOZSID_clean_sbu_0, # of connection points: 4
#     Node 15, Type 0, BuildingBlock: KOZSID_clean_sbu_0, # of connection points: 4
#     Node 16, Type 0, BuildingBlock: KOZSID_clean_sbu_0, # of connection points: 4
#     Node 17, Type 0, BuildingBlock: KOZSID_clean_sbu_0, # of connection points: 4
#     Edge 18, Type (0, 0), BuildingBlock: EZIPEK_clean_linker_0, # of connection points: 2
#     Edge 19, Type (0, 0), BuildingBlock: EZIPEK_clean_linker_0, # of connection points: 2
#     Edge 20, Type (0, 0), BuildingBlock: EZIPEK_clean_linker_0, # of connection points: 2
#     Edge 21, Type (0, 0), BuildingBlock: EZIPEK_clean_linker_0, # of connection points: 2
#     Edge 22, Type (0, 0), BuildingBlock: EZIPEK_clean_linker_0, # of connection points: 2
#     Edge 23, Type (0, 0), BuildingBlock: EZIPEK_clean_linker_0, # of connection points: 2
#     Edge 24, Type (0, 0), BuildingBlock: EZIPEK_clean_linker_0, # of connection points: 2
#     Edge 25, Type (0, 0), BuildingBlock: EZIPEK_clean_linker_0, # of connection points: 2
#     Edge 26, Type (0, 0), BuildingBlock: EZIPEK_clean_linker_0, # of connection points: 2
#     Edge 27, Type (0, 0), BuildingBlock: EZIPEK_clean_linker_0, # of connection points: 2
#     Edge 28, Type (0, 0), BuildingBlock: EZIPEK_clean_linker_0, # of connection points: 2
#     Edge 29, Type (0, 0), BuildingBlock: EZIPEK_clean_linker_0, # of connection points: 2
#     Edge 30, Type (0, 0), BuildingBlock: EZIPEK_clean_linker_0, # of connection points: 2
#     Edge 31, Type (0, 0), BuildingBlock: EZIPEK_clean_linker_0, # of connection points: 2
#     Edge 32, Type (0, 0), BuildingBlock: EZIPEK_clean_linker_0, # of connection points: 2
#     Edge 33, Type (0, 0), BuildingBlock: EZIPEK_clean_linker_0, # of connection points: 2
#     Edge 34, Type (0, 0), BuildingBlock: EZIPEK_clean_linker_0, # of connection points: 2
#     Edge 35, Type (0, 0), BuildingBlock: EZIPEK_clean_linker_0, # of connection points: 2
#     Edge 36, Type (0, 0), BuildingBlock: EZIPEK_clean_linker_0, # of connection points: 2
#     Edge 37, Type (0, 0), BuildingBlock: EZIPEK_clean_linker_0, # of connection points: 2
#     Edge 38, Type (0, 0), BuildingBlock: EZIPEK_clean_linker_0, # of connection points: 2
#     Edge 39, Type (0, 0), BuildingBlock: EZIPEK_clean_linker_0, # of connection points: 2
#     Edge 40, Type (0, 0), BuildingBlock: EZIPEK_clean_linker_0, # of connection points: 2
#     Edge 41, Type (0, 0), BuildingBlock: EZIPEK_clean_linker_0, # of connection points: 2
#     Edge 42, Type (0, 0), BuildingBlock: EZIPEK_clean_linker_0, # of connection points: 2
#     Edge 43, Type (0, 0), BuildingBlock: EZIPEK_clean_linker_0, # of connection points: 2
#     Edge 44, Type (0, 0), BuildingBlock: EZIPEK_clean_linker_0, # of connection points: 2
#     Edge 45, Type (0, 0), BuildingBlock: EZIPEK_clean_linker_0, # of connection points: 2
#     Edge 46, Type (0, 0), BuildingBlock: EZIPEK_clean_linker_0, # of connection points: 2
#     Edge 47, Type (0, 0), BuildingBlock: EZIPEK_clean_linker_0, # of connection points: 2
#     Edge 48, Type (0, 0), BuildingBlock: EZIPEK_clean_linker_0, # of connection points: 2
#     Edge 49, Type (0, 0), BuildingBlock: EZIPEK_clean_linker_0, # of connection points: 2
#     Edge 50, Type (0, 0), BuildingBlock: EZIPEK_clean_linker_0, # of connection points: 2
#     Edge 51, Type (0, 0), BuildingBlock: EZIPEK_clean_linker_0, # of connection points: 2
#     Edge 52, Type (0, 0), BuildingBlock: EZIPEK_clean_linker_0, # of connection points: 2
#     Edge 53, Type (0, 0), BuildingBlock: EZIPEK_clean_linker_0, # of connection points: 2
# Relax obj value: 0.053
# Max RMSD: 0.234
# Mean RMSD: 0.202
data_MOF--net-unn--node1-KOZSID_clean_sbu_0--edge1-EZIPEK_clean_linker_0
_symmetry_space_group_name_H-M    P1
_symmetry_Int_Tables_number       1
_symmetry_cell_setting            triclinic
loop_
_symmetry_equiv_pos_as_xyz
'x, y, z'
_cell_length_a     42.743949
_cell_length_b     42.738508
_cell_length_c     39.278106
_cell_angle_alpha  89.995967
_cell_angle_beta   90.022466
_cell_angle_gamma 120.0782
loop_
_atom_site_label
_atom_site_type_symbol
_atom_site_fract_x
_atom_site_fract_y
_atom_site_fract_z
_atom_type_partial_charge
C0 C 0.99427 0.71877 0.35088 0.0
C1 C 0.9989 0.74902 0.36833 0.0
C2 C 0.01291 0.77724 0.34564 0.0
C3 C 0.01659 0.76315 0.3155 0.0
N4 N 1.00488 0.72746 0.31726 0.0
Co5 Co 0.01325 0.7002 0.27958 0.0
N6 N 0.02817 0.73931 0.24454 0.0
C7 C 0.03508 0.77295 0.25153 0.0
C8 C 0.04272 0.79401 0.22286 0.0
C9 C 0.04067 0.77233 0.19606 0.0
C10 C 0.0322 0.73909 0.20971 0.0
N11 N 0.02279 0.67295 0.24304 0.0
C12 C 0.02982 0.67916 0.20894 0.0
C13 C 0.036 0.65319 0.19431 0.0
C14 C 0.03195 0.62949 0.21955 0.0
C15 C 0.02391 0.64238 0.24822 0.0
N16 N 0.99705 0.65977 0.31388 0.0
C17 C 0.99712 0.62869 0.30842 0.0
C18 C 0.98206 0.60408 0.33432 0.0
C19 C 0.9724 0.62071 0.35836 0.0
C20 C 0.98293 0.65507 0.34613 0.0
N21 N 0.9625 0.68034 0.2633 0.0
C22 C 0.8956 0.66018 0.23087 0.0
C23 C 0.90965 0.63661 0.23162 0.0
C24 C 0.94292 0.64704 0.24819 0.0
C25 C 0.91504 0.69318 0.24773 0.0
C26 C 0.94803 0.70268 0.26345 0.0
N27 N 0.06462 0.72306 0.29544 0.0
C28 C 0.10498 0.75244 0.343 0.0
C29 C 0.13463 0.77246 0.32168 0.0
C30 C 0.12876 0.76547 0.28641 0.0
C31 C 0.09353 0.74117 0.27382 0.0
C32 C 0.07136 0.72738 0.32959 0.0
H33 H 0.08956 0.73814 0.24661 0.0
H34 H 0.05028 0.7134 0.34725 0.0
H35 H 0.95317 0.62858 0.24777 0.0
H36 H 0.96231 0.72913 0.27441 0.0
C37 C 0.03026 0.78214 0.28474 0.0
C38 C 0.98446 0.68379 0.36848 0.0
C39 C 0.03086 0.70897 0.18909 0.0
C40 C 0.01127 0.62334 0.27854 0.0
H41 H 0.99416 0.75093 0.3951 0.0
H42 H 0.02042 0.80501 0.35081 0.0
H43 H 0.04827 0.82162 0.22144 0.0
H44 H 0.04536 0.78022 0.16955 0.0
H45 H 0.04215 0.65115 0.16796 0.0
H46 H 0.03306 0.60485 0.21693 0.0
H47 H 0.97894 0.57737 0.33579 0.0
H48 H 0.96075 0.60953 0.38295 0.0
H49 H 0.89543 0.61069 0.21887 0.0
H50 H 0.90536 0.71226 0.24775 0.0
H51 H 0.10762 0.75613 0.37035 0.0
H52 H 0.15089 0.77944 0.26866 0.0
C53 C 0.28662 0.29721 0.20572 0.0
C54 C 0.26089 0.26649 0.18895 0.0
C55 C 0.24472 0.23983 0.21301 0.0
C56 C 0.26147 0.25545 0.24321 0.0
N57 N 0.28678 0.29067 0.24008 0.0
Co58 Co 0.32102 0.32 0.27779 0.0
N59 N 0.29506 0.28264 0.31423 0.0
C60 C 0.26606 0.24979 0.30858 0.0
C61 C 0.25217 0.23007 0.3379 0.0
C62 C 0.27376 0.25173 0.36381 0.0
C63 C 0.30006 0.28353 0.34896 0.0
N64 N 0.35741 0.34863 0.31426 0.0
C65 C 0.35911 0.34238 0.34821 0.0
C66 C 0.39119 0.36901 0.36255 0.0
C67 C 0.40987 0.39317 0.33732 0.0
C68 C 0.38854 0.37988 0.30894 0.0
N69 N 0.34558 0.35926 0.2424 0.0
C70 C 0.3758 0.39132 0.24778 0.0
C71 C 0.38675 0.41388 0.22011 0.0
C72 C 0.36235 0.3949 0.19511 0.0
C73 C 0.33801 0.36143 0.20879 0.0
N74 N 0.28978 0.34052 0.29136 0.0
C75 C 0.24205 0.35972 0.32324 0.0
C76 C 0.27975 0.38291 0.3243 0.0
C77 C 0.30306 0.37294 0.30811 0.0
C78 C 0.22894 0.32798 0.30433 0.0
C79 C 0.25289 0.31914 0.28858 0.0
N80 N 0.35012 0.2967 0.26441 0.0
C81 C 0.38025 0.28343 0.21883 0.0
C82 C 0.36806 0.24852 0.23151 0.0
C83 C 0.35091 0.24022 0.26323 0.0
C84 C 0.34367 0.26505 0.27973 0.0
C85 C 0.37118 0.307 0.2356 0.0
H86 H 0.33166 0.25723 0.30447 0.0
H87 H 0.38057 0.33297 0.22419 0.0
H88 H 0.33174 0.39105 0.31031 0.0
H89 H 0.24076 0.2938 0.27557 0.0
C90 C 0.25313 0.23868 0.27533 0.0
C91 C 0.31109 0.3315 0.18751 0.0
C92 C 0.3308 0.31261 0.36849 0.0
C93 C 0.39472 0.39823 0.27823 0.0
H94 H 0.25483 0.26357 0.16199 0.0
H95 H 0.22338 0.21222 0.2089 0.0
H96 H 0.22918 0.20302 0.34021 0.0
H97 H 0.27107 0.2446 0.39051 0.0
H98 H 0.39991 0.37121 0.38874 0.0
H99 H 0.43542 0.41814 0.33969 0.0
H100 H 0.4104 0.44052 0.218 0.0
H101 H 0.36335 0.4041 0.16925 0.0
H102 H 0.29115 0.40799 0.33847 0.0
H103 H 0.2001 0.30937 0.30256 0.0
H104 H 0.39538 0.2919 0.19524 0.0
H105 H 0.34252 0.21431 0.27508 0.0
C106 C 0.7274 1.00256 0.20523 0.0
C107 C 0.75874 0.00991 0.18823 0.0
C108 C 0.78596 0.02337 0.2119 0.0
C109 C 0.76992 0.02355 0.24213 0.0
N110 N 0.73402 0.01032 0.23948 0.0
Co111 Co 0.70326 0.01222 0.27751 0.0
N112 N 0.74183 0.02739 0.3135 0.0
C113 C 0.77656 0.03762 0.30679 0.0
C114 C 0.7984 0.04981 0.335 0.0
C115 C 0.7762 0.04727 0.36134 0.0
C116 C 0.74162 0.03311 0.34803 0.0
N117 N 0.67242 0.01532 0.31472 0.0
C118 C 0.67654 0.01824 0.34942 0.0
C119 C 0.64492 0.0125 0.36506 0.0
C120 C 0.62118 0.00807 0.33985 0.0
C121 C 0.63882 0.01009 0.31015 0.0
N122 N 0.66363 0.99513 0.24202 0.0
C123 C 0.63093 0.99176 0.24718 0.0
C124 C 0.60876 0.98003 0.21923 0.0
C125 C 0.6287 0.97625 0.19418 0.0
C126 C 0.66218 0.98614 0.2082 0.0
N127 N 0.68676 0.96102 0.29075 0.0
C128 C 0.6701 0.89476 0.3229 0.0
C129 C 0.64399 0.90533 0.3195 0.0
C130 C 0.65269 0.93819 0.30313 0.0
C131 C 0.70396 0.91707 0.30819 0.0
C132 C 0.71164 0.94968 0.29234 0.0
N133 N 0.72247 0.06445 0.26478 0.0
C134 C 0.73888 0.10773 0.21848 0.0
C135 C 0.77085 0.13269 0.23506 0.0
C136 C 0.77506 0.12475 0.26878 0.0
C137 C 0.74971 0.09161 0.28356 0.0
C138 C 0.71525 0.074 0.23363 0.0
H139 H 0.75371 0.08801 0.3099 0.0
H140 H 0.69194 0.0556 0.21924 0.0
H141 H 0.63197 0.94536 0.30157 0.0
H142 H 0.73849 0.96628 0.28267 0.0
C143 C 0.78751 0.0359 0.27354 0.0
C144 C 0.6927 0.99066 0.18703 0.0
C145 C 0.71011 0.02815 0.36875 0.0
C146 C 0.62194 0.99984 0.27861 0.0
H147 H 0.76176 0.00688 0.16127 0.0
H148 H 0.81426 0.03262 0.20744 0.0
H149 H 0.82721 0.06 0.33621 0.0
H150 H 0.78478 0.05574 0.38727 0.0
H151 H 0.63909 0.01104 0.39197 0.0
H152 H 0.59344 1.00174 0.3429 0.0
H153 H 0.58151 0.97541 0.21714 0.0
H154 H 0.62004 0.96843 0.16812 0.0
H155 H 0.61717 0.88859 0.32995 0.0
H156 H 0.72485 0.90984 0.30974 0.0
H157 H 0.73308 0.11356 0.19318 0.0
H158 H 0.79817 0.14384 0.28363 0.0
C159 C 0.94781 0.18616 0.74642 0.0
C160 C 0.93339 0.14946 0.74004 0.0
C161 C 0.95532 0.13936 0.75583 0.0
C162 C 0.98164 0.17018 0.77106 0.0
N163 N 0.9781 0.19945 0.76592 0.0
Co164 Co 0.0094 0.24836 0.78651 0.0
N165 N 0.04686 0.23582 0.80092 0.0
C166 C 0.04305 0.20257 0.80014 0.0
C167 C 0.07277 0.20142 0.81144 0.0
C168 C 0.09702 0.23609 0.82048 0.0
C169 C 0.08059 0.25654 0.81422 0.0
N170 N 0.04032 0.29651 0.80867 0.0
C171 C 0.07402 0.31162 0.82283 0.0
C172 C 0.08374 0.34478 0.83747 0.0
C173 C 0.05503 0.35031 0.83305 0.0
C174 C 0.02937 0.32036 0.81592 0.0
N175 N 0.97229 0.26072 0.77078 0.0
C176 C 0.97012 0.28957 0.7812 0.0
C177 C 0.94218 0.29162 0.76614 0.0
C178 C 0.92535 0.26192 0.74523 0.0
C179 C 0.94378 0.24312 0.74884 0.0
N180 N 0.98349 0.23117 0.83058 0.0
C181 C 0.95438 0.23938 0.89205 0.0
C182 C 0.93301 0.22638 0.86265 0.0
C183 C 0.94764 0.22106 0.83264 0.0
C184 C 0.98871 0.24263 0.89118 0.0
C185 C 1.00271 0.23845 0.86027 0.0
N186 N 0.03501 0.2679 0.74279 0.0
C187 C 0.0587 0.31748 0.70261 0.0
C188 C 0.06667 0.29805 0.67922 0.0
C189 C 0.0591 0.26307 0.68839 0.0
C190 C 0.04338 0.24852 0.72048 0.0
C191 C 0.04294 0.30209 0.73374 0.0
H192 H 0.0375 0.22156 0.72696 0.0
H193 H 0.03643 0.31807 0.75 0.0
H194 H 0.93073 0.21194 0.81039 0.0
H195 H 0.03013 0.24412 0.8601 0.0
C196 C 0.01197 0.17333 0.78716 0.0
C197 C 0.93075 0.20656 0.73448 0.0
C198 C 0.09624 0.29411 0.82572 0.0
C199 C 0.99653 0.31538 0.80297 0.0
H200 H 0.90932 0.13161 0.7257 0.0
H201 H 0.95276 0.11285 0.75566 0.0
H202 H 0.07631 0.1781 0.81305 0.0
H203 H 0.12331 0.24496 0.83163 0.0
H204 H 0.10865 0.36263 0.85072 0.0
H205 H 0.05325 0.37359 0.8411 0.0
H206 H 0.93499 0.31233 0.76975 0.0
H207 H 0.90146 0.25424 0.73002 0.0
H208 H 0.90579 0.22209 0.86231 0.0
H209 H 0.00575 0.25124 0.91362 0.0
H210 H 0.06387 0.3444 0.69649 0.0
H211 H 0.06481 0.24706 0.67082 0.0
C212 C 0.83475 0.76933 0.73937 0.0
C213 C 0.87138 0.79051 0.7323 0.0
C214 C 0.88176 0.82441 0.74373 0.0
C215 C 0.85107 0.82206 0.7571 0.0
N216 N 0.82159 0.78884 0.7551 0.0
Co217 Co 0.77214 0.77433 0.77351 0.0
N218 N 0.7883 0.8247 0.79041 0.0
C219 C 0.82157 0.85374 0.78663 0.0
C220 C 0.82523 0.88512 0.79966 0.0
C221 C 0.79217 0.87569 0.81275 0.0
C222 C 0.77013 0.8389 0.80687 0.0
N223 N 0.72339 0.75996 0.79349 0.0
C224 C 0.7116 0.77931 0.81192 0.0
C225 C 0.67573 0.75786 0.82129 0.0
C226 C 0.66455 0.72404 0.80848 0.0
C227 C 0.69412 0.72667 0.79199 0.0
N228 N 0.75609 0.72458 0.75496 0.0
C229 C 0.7224 0.69604 0.75717 0.0
C230 C 0.71846 0.66566 0.7412 0.0
C231 C 0.75181 0.67552 0.72796 0.0
C232 C 0.77431 0.71144 0.73657 0.0
N233 N 0.78492 0.7606 0.81781 0.0
C234 C 0.77818 0.72253 0.87889 0.0
C235 C 0.78885 0.7135 0.84851 0.0
C236 C 0.79321 0.73355 0.81883 0.0
C237 C 0.77536 0.75387 0.87887 0.0
C238 C 0.77871 0.77233 0.8482 0.0
N239 N 0.75696 0.78567 0.72926 0.0
C240 C 0.70979 0.79 0.69896 0.0
C241 C 0.7171 0.77709 0.66907 0.0
C242 C 0.74725 0.77241 0.66888 0.0
C243 C 0.76698 0.77731 0.69901 0.0
C244 C 0.73043 0.79476 0.72839 0.0
H245 H 0.78903 0.7723 0.69796 0.0
H246 H 0.72324 0.80376 0.75081 0.0
H247 H 0.80135 0.72559 0.7964 0.0
H248 H 0.77442 0.79488 0.84919 0.0
C249 C 0.84907 0.85056 0.77148 0.0
C250 C 0.81337 0.73148 0.72847 0.0
C251 C 0.73288 0.81844 0.81953 0.0
C252 C 0.69546 0.6988 0.7747 0.0
H253 H 0.88875 0.78248 0.71964 0.0
H254 H 0.90847 0.84805 0.74226 0.0
H255 H 0.84924 0.91163 0.79999 0.0
H256 H 0.78531 0.89378 0.82573 0.0
H257 H 0.65933 0.76601 0.83555 0.0
H258 H 0.63794 0.70038 0.81077 0.0
H259 H 0.69426 0.63938 0.73955 0.0
H260 H 0.75898 0.6582 0.71396 0.0
H261 H 0.79264 0.69029 0.84736 0.0
H262 H 0.76842 0.76277 0.90202 0.0
H263 H 0.6873 0.79493 0.70002 0.0
H264 H 0.75448 0.76331 0.64603 0.0
C265 C 0.18845 0.94579 0.80773 0.0
C266 C 0.15195 0.9316 0.81482 0.0
C267 C 0.14161 0.95337 0.79905 0.0
C268 C 0.17215 0.97945 0.78322 0.0
N269 N 0.20142 0.97587 0.78795 0.0
Co270 Co 0.25048 0.00777 0.76787 0.0
N271 N 0.23777 0.04518 0.75377 0.0
C272 C 0.20428 0.04084 0.75402 0.0
C273 C 0.20271 0.07019 0.74229 0.0
C274 C 0.23733 0.09476 0.73347 0.0
C275 C 0.25819 0.0789 0.7403 0.0
N276 N 0.29928 0.0399 0.74717 0.0
C277 C 0.3147 0.0743 0.7344 0.0
C278 C 0.34872 0.08512 0.72125 0.0
C279 C 0.35436 0.05638 0.72484 0.0
C280 C 0.32368 0.02963 0.74016 0.0
N281 N 0.26257 0.97008 0.78212 0.0
C282 C 0.2912 0.96795 0.77091 0.0
C283 C 0.29268 0.93903 0.78435 0.0
C284 C 0.26288 0.92158 0.80505 0.0
C285 C 0.24467 0.94073 0.80301 0.0
N286 N 0.23402 0.98289 0.72338 0.0
C287 C 0.23954 0.94962 0.66356 0.0
C288 C 0.25119 0.98667 0.66434 0.0
C289 C 0.247 1.00241 0.69403 0.0
C290 C 0.22021 0.92882 0.69187 0.0
C291 C 0.21778 0.94599 0.7215 0.0
N292 N 0.26911 0.03206 0.81232 0.0
C293 C 0.31651 0.05196 0.85462 0.0
C294 C 0.29746 0.06143 0.87709 0.0
C295 C 0.26389 0.05664 0.8663 0.0
C296 C 0.25013 0.04182 0.83373 0.0
C297 C 0.3021 0.03759 0.82279 0.0
H298 H 0.22411 0.03781 0.82611 0.0
H299 H 0.31783 0.03026 0.80703 0.0
H300 H 0.25725 0.03097 0.69409 0.0
H301 H 0.20545 0.92962 0.74368 0.0
C302 C 0.17516 0.00967 0.76704 0.0
C303 C 0.20874 0.9282 0.81848 0.0
C304 C 0.29627 0.0956 0.73008 0.0
C305 C 0.31793 0.99579 0.75096 0.0
H306 H 0.1344 0.90773 0.82954 0.0
H307 H 0.11514 0.95091 0.79965 0.0
H308 H 0.17916 0.07332 0.74032 0.0
H309 H 0.24595 0.12098 0.72228 0.0
H310 H 0.36685 0.11061 0.70903 0.0
H311 H 0.37806 0.05518 0.71718 0.0
H312 H 0.31326 0.93178 0.78008 0.0
H313 H 0.25493 0.89707 0.81934 0.0
H314 H 0.26506 1.00375 0.64269 0.0
H315 H 0.20942 0.89986 0.69199 0.0
H316 H 0.34245 0.05523 0.86185 0.0
H317 H 0.24827 0.06371 0.88303 0.0
C318 C 0.67393 0.05828 0.68433 0.0
C319 C 0.68127 0.08954 0.70152 0.0
C320 C 0.69471 0.11689 0.67798 0.0
C321 C 0.69493 0.10105 0.64763 0.0
N322 N 0.68172 0.06513 0.65011 0.0
Co323 Co 0.68378 0.03466 0.61187 0.0
N324 N 0.69871 0.07329 0.57602 0.0
C325 C 0.70884 0.10797 0.58288 0.0
C326 C 0.72089 0.12987 0.5547 0.0
C327 C 0.7183 0.10774 0.52824 0.0
C328 C 0.70425 0.07313 0.54144 0.0
N329 N 0.68704 0.00404 0.57451 0.0
C330 C 0.68934 0.00804 0.5398 0.0
C331 C 0.68332 0.97636 0.52405 0.0
C332 C 0.67949 0.95276 0.54915 0.0
C333 C 0.682 0.97049 0.57892 0.0
N334 N 0.6669 0.99488 0.64718 0.0
C335 C 0.66369 0.96227 0.64184 0.0
C336 C 0.65186 0.93986 0.66961 0.0
C337 C 0.64782 0.95953 0.69475 0.0
C338 C 0.65773 0.99312 0.68096 0.0
N339 N 0.63256 0.01804 0.59864 0.0
C340 C 0.56693 1.0022 0.56567 0.0
C341 C 0.58883 0.03559 0.58137 0.0
C342 C 0.62112 0.04287 0.5976 0.0
C343 C 0.57745 0.976 0.56864 0.0
C344 C 0.60999 0.98428 0.58546 0.0
N345 N 0.73611 0.0543 0.62462 0.0
C346 C 0.77871 0.07172 0.67163 0.0
C347 C 0.8033 0.10411 0.65538 0.0
C348 C 0.79573 0.10808 0.62145 0.0
C349 C 0.76314 0.08205 0.60618 0.0
C350 C 0.74558 0.04731 0.65589 0.0
H351 H 0.75969 0.08598 0.57977 0.0
H352 H 0.72746 0.02357 0.66988 0.0
H353 H 0.63748 0.06948 0.60788 0.0
H354 H 0.6172 0.96356 0.58662 0.0
C355 C 0.70717 0.11877 0.61624 0.0
C356 C 0.66204 0.02342 0.70233 0.0
C357 C 0.69897 0.04157 0.52053 0.0
C358 C 0.67185 0.95349 0.61038 0.0
H359 H 0.67824 0.0924 0.7285 0.0
H360 H 0.70392 0.14517 0.68261 0.0
H361 H 0.73098 0.15867 0.55359 0.0
H362 H 0.72656 0.11634 0.50228 0.0
H363 H 0.68122 0.97036 0.49714 0.0
H364 H 0.67304 0.92499 0.54602 0.0
H365 H 0.64727 0.9126 0.6715 0.0
H366 H 0.63981 0.95061 0.72071 0.0
H367 H 0.58161 0.05651 0.58017 0.0
H368 H 0.56101 0.9495 0.55742 0.0
H369 H 0.78433 0.06613 0.69709 0.0
H370 H 0.8146 0.13154 0.60688 0.0
C371 C 0.94915 0.62799 0.54019 0.0
C372 C 0.92278 0.59719 0.52402 0.0
C373 C 0.90829 0.57036 0.5481 0.0
C374 C 0.92651 0.58603 0.57773 0.0
N375 N 0.95117 0.62141 0.57423 0.0
Co376 Co 0.98656 0.65116 0.61094 0.0
N377 N 0.96166 0.61428 0.648 0.0
C378 C 0.93361 0.58075 0.64278 0.0
C379 C 0.9202 0.56153 0.67243 0.0
C380 C 0.94115 0.58426 0.69809 0.0
C381 C 0.96664 0.6162 0.6828 0.0
N382 N 0.02365 0.6803 0.6467 0.0
C383 C 0.02523 0.67539 0.68101 0.0
C384 C 0.05762 0.70211 0.69473 0.0
C385 C 0.07669 0.72489 0.6687 0.0
C386 C 0.05522 0.71078 0.64048 0.0
N387 N 0.01038 0.68983 0.57492 0.0
C388 C 0.04191 0.72098 0.57901 0.0
C389 C 0.0527 0.74279 0.55079 0.0
C390 C 0.02678 0.7242 0.52679 0.0
C391 C 1.00157 0.69179 0.54164 0.0
N392 N 0.95588 0.67194 0.625 0.0
C393 C 0.90957 0.69347 0.65577 0.0
C394 C 0.94721 0.71703 0.65448 0.0
C395 C 0.96985 0.70581 0.6389 0.0
C396 C 0.89575 0.65985 0.64006 0.0
C397 C 0.919 0.64983 0.62485 0.0
N398 N 0.01528 0.6276 0.59686 0.0
C399 C 0.04134 0.61048 0.55033 0.0
C400 C 0.03235 0.57759 0.56608 0.0
C401 C 0.01875 0.57252 0.59934 0.0
C402 C 0.01207 0.59839 0.61465 0.0
C403 C 0.03243 0.63475 0.56583 0.0
H404 H 1.00294 0.59336 0.64058 0.0
H405 H 0.03841 0.65838 0.55144 0.0
H406 H 0.99861 0.72421 0.63907 0.0
H407 H 0.90655 0.62321 0.6143 0.0
C408 C 0.91988 0.56924 0.6098 0.0
C409 C 0.97293 0.66209 0.52145 0.0
C410 C 0.99681 0.64644 0.70201 0.0
C411 C 0.06149 0.72805 0.60911 0.0
H412 H 0.91538 0.59429 0.49737 0.0
H413 H 0.88703 0.54264 0.54438 0.0
H414 H 0.89766 0.53429 0.67516 0.0
H415 H 0.93848 0.5778 0.72495 0.0
H416 H 0.06635 0.70522 0.72099 0.0
H417 H 0.10256 0.7496 0.67041 0.0
H418 H 0.07716 0.76866 0.54766 0.0
H419 H 0.02731 0.73274 0.50075 0.0
H420 H 0.95909 0.7435 0.66615 0.0
H421 H 0.86692 0.64089 0.64023 0.0
H422 H 0.05356 0.61661 0.52528 0.0
H423 H 0.01285 0.54838 0.61343 0.0
C424 C 0.4063 0.36703 0.6812 0.0
C425 C 0.44086 0.38051 0.69434 0.0
C426 C 0.46281 0.38296 0.66777 0.0
C427 C 0.44086 0.37138 0.6396 0.0
N428 N 0.40632 0.36169 0.64656 0.0
Co429 Co 0.36768 0.34732 0.61081 0.0
N430 N 0.39774 0.34485 0.57241 0.0
C431 C 0.43359 0.35766 0.57478 0.0
C432 C 0.4492 0.35726 0.54435 0.0
C433 C 0.42176 0.34413 0.52089 0.0
C434 C 0.39068 0.33712 0.53819 0.0
N435 N 0.32781 0.33092 0.57563 0.0
C436 C 0.32576 0.32165 0.54185 0.0
C437 C 0.29217 0.31205 0.52823 0.0
C438 C 0.27283 0.31644 0.55348 0.0
C439 C 0.29541 0.32813 0.58114 0.0
N440 N 0.33748 0.35099 0.64836 0.0
C441 C 0.30411 0.34647 0.64407 0.0
C442 C 0.28656 0.34413 0.6739 0.0
C443 C 0.31007 0.34749 0.69893 0.0
C444 C 0.34154 0.35307 0.68308 0.0
N445 N 0.38795 0.3998 0.59811 0.0
C446 C 0.43798 0.46678 0.56698 0.0
C447 C 0.40525 0.4424 0.55108 0.0
C448 C 0.38074 0.40942 0.56701 0.0
C449 C 0.44229 0.45911 0.60079 0.0
C450 C 0.41623 0.42663 0.61625 0.0
N451 N 0.35048 0.29593 0.62388 0.0
C452 C 0.30789 0.24067 0.65336 0.0
C453 C 0.33369 0.22958 0.65592 0.0
C454 C 0.3672 0.25139 0.64044 0.0
C455 C 0.37494 0.28403 0.62466 0.0
C456 C 0.31664 0.27358 0.63702 0.0
H457 H 0.4016 0.30021 0.61445 0.0
H458 H 0.29622 0.2812 0.6361 0.0
H459 H 0.35666 0.39154 0.55331 0.0
H460 H 0.42053 0.42312 0.64255 0.0
C461 C 0.45146 0.36964 0.60616 0.0
C462 C 0.37493 0.36199 0.70229 0.0
C463 C 0.3558 0.32556 0.52032 0.0
C464 C 0.28698 0.33651 0.61266 0.0
H465 H 0.44955 0.38845 0.72035 0.0
H466 H 0.49153 0.39261 0.66882 0.0
H467 H 0.47739 0.36615 0.53963 0.0
H468 H 0.42447 0.34106 0.49388 0.0
H469 H 0.28303 0.30399 0.50233 0.0
H470 H 0.24568 0.31214 0.55173 0.0
H471 H 0.25891 0.33804 0.67712 0.0
H472 H 0.30411 0.34532 0.72584 0.0
H473 H 0.39941 0.44808 0.52574 0.0
H474 H 0.46604 0.47782 0.61512 0.0
H475 H 0.28132 0.22433 0.66443 0.0
H476 H 0.38782 0.24374 0.64134 0.0
C477 C 0.74622 0.58519 0.14486 0.0
C478 C 0.76038 0.56337 0.15401 0.0
C479 C 0.73821 0.53014 0.14034 0.0
C480 C 0.71189 0.53347 0.12366 0.0
N481 N 0.71563 0.56666 0.12591 0.0
Co482 Co 0.68344 0.58233 0.10375 0.0
N483 N 0.6463 0.53129 0.09163 0.0
C484 C 0.65016 0.50204 0.09509 0.0
C485 C 0.62031 0.47023 0.08564 0.0
C486 C 0.59589 0.47974 0.07496 0.0
C487 C 0.61243 0.51706 0.0783 0.0
N488 N 0.65155 0.59757 0.08024 0.0
C489 C 0.61805 0.5777 0.06588 0.0
C490 C 0.60771 0.59991 0.04968 0.0
C491 C 0.63576 0.63468 0.05338 0.0
C492 C 0.6617 0.63188 0.07157 0.0
N493 N 0.72034 0.63299 0.11712 0.0
C494 C 0.72174 0.66314 0.10503 0.0
C495 C 0.7503 0.69431 0.11785 0.0
C496 C 0.76841 0.68319 0.13904 0.0
C497 C 0.74995 0.64575 0.13794 0.0
N498 N 0.70873 0.58909 0.0596 0.0
C499 C 0.73622 0.62544 0.99743 0.0
C500 C 0.75818 0.63473 1.02648 0.0
C501 C 0.74435 0.61516 0.05679 0.0
C502 C 0.70234 0.5937 0.99894 0.0
C503 C 0.6892 0.57592 0.03024 0.0
N504 N 0.65833 0.57809 0.14743 0.0
C505 C 0.63465 0.60517 0.1862 0.0
C506 C 0.62673 0.57851 0.21048 0.0
C507 C 0.63437 0.55091 0.20248 0.0
C508 C 0.65006 0.55111 0.17068 0.0
C509 C 0.65036 0.60457 0.1553 0.0
H510 H 0.65592 0.52985 0.16517 0.0
H511 H 0.65667 0.62641 0.13817 0.0
H512 H 0.76149 0.62358 0.07874 0.0
H513 H 0.66216 0.55348 0.03106 0.0
C514 C 0.68135 0.50502 0.10901 0.0
C515 C 0.76394 0.62365 0.15355 0.0
C516 C 0.5966 0.53784 0.06429 0.0
C517 C 0.69456 0.66079 0.08331 0.0
H518 H 0.78439 0.57068 0.1689 0.0
H519 H 0.74053 0.50616 0.14291 0.0
H520 H 0.61672 0.4433 0.08643 0.0
H521 H 0.56932 0.46136 0.0648 0.0
H522 H 0.58285 0.59166 0.03587 0.0
H523 H 0.63707 0.65909 0.04391 0.0
H524 H 0.75722 0.72187 0.11241 0.0
H525 H 0.7931 0.70061 0.15278 0.0
H526 H 0.78516 0.6581 1.02633 0.0
H527 H 0.68497 0.58442 0.97674 0.0
H528 H 0.62938 0.62702 0.19139 0.0
H529 H 0.62867 0.52973 0.22074 0.0
C530 C 0.43305 0.17011 0.13966 0.0
C531 C 0.45401 0.20715 0.14484 0.0
C532 C 0.48724 0.21751 0.1316 0.0
C533 C 0.48471 0.18641 0.11908 0.0
N534 N 0.45199 0.1567 0.1233 0.0
Co535 Co 0.43726 0.10655 0.10677 0.0
N536 N 0.48692 0.12244 0.08809 0.0
C537 C 0.51575 0.15609 0.08989 0.0
C538 C 0.54685 0.15933 0.07659 0.0
C539 C 0.53744 0.12559 0.06539 0.0
C540 C 0.50087 0.10363 0.07237 0.0
N541 N 0.42268 0.05691 0.08889 0.0
C542 C 0.4416 0.04441 0.07074 0.0
C543 C 0.42002 0.00818 0.06268 0.0
C544 C 0.38655 0.99744 0.07612 0.0
C545 C 0.3895 0.02763 0.09158 0.0
N546 N 0.3882 0.09089 0.12678 0.0
C547 C 0.35961 0.05715 0.12564 0.0
C548 C 0.32972 0.05365 0.14219 0.0
C549 C 0.33994 0.08737 0.15471 0.0
C550 C 0.37558 0.10961 0.14507 0.0
N551 N 0.42119 0.11688 0.06254 0.0
C552 C 0.38163 0.10871 1.00221 0.0
C553 C 0.37438 0.12174 0.0321 0.0
C554 C 0.39487 0.12628 0.06162 0.0
C555 C 0.41145 0.10351 1.00219 0.0
C556 C 0.43099 0.10817 0.03237 0.0
N557 N 0.45109 0.09395 0.15108 0.0
C558 C 0.43924 0.08547 0.21168 0.0
C559 C 0.44618 0.05679 0.21209 0.0
C560 C 0.45976 0.04994 0.18237 0.0
C561 C 0.46253 0.0692 0.15243 0.0
C562 C 0.44258 0.10406 0.18118 0.0
H563 H 0.47217 0.06251 0.1301 0.0
H564 H 0.43642 0.1253 0.18186 0.0
H565 H 0.38795 0.13568 0.084 0.0
H566 H 0.45283 0.1029 0.03145 0.0
C567 C 0.51275 0.18416 0.10397 0.0
C568 C 0.39603 0.14873 0.15272 0.0
C569 C 0.48037 0.06559 0.06179 0.0
C570 C 0.36201 0.0296 0.1089 0.0
H571 H 0.4463 0.22481 0.15739 0.0
H572 H 0.51061 0.24447 0.13144 0.0
H573 H 0.57323 0.18344 0.07508 0.0
H574 H 0.55542 0.11815 0.05308 0.0
H575 H 0.42784 0.99128 0.04884 0.0
H576 H 0.3629 0.97072 0.07485 0.0
H577 H 0.30355 0.02946 0.14482 0.0
H578 H 0.32308 0.0949 0.16903 0.0
H579 H 0.35215 0.12707 0.03301 0.0
H580 H 0.41861 0.09429 0.97938 0.0
H581 H 0.42984 0.0925 0.23446 0.0
H582 H 0.46658 0.02872 0.18184 0.0
C583 C 0.85161 0.28108 0.14991 0.0
C584 C 0.81464 0.2651 0.15546 0.0
C585 C 0.80449 0.28856 0.14343 0.0
C586 C 0.83559 0.3173 0.13108 0.0
N587 N 0.86512 0.31387 0.13428 0.0
Co588 Co 0.91486 0.34879 0.11641 0.0
N589 N 0.89921 0.38329 0.09928 0.0
C590 C 0.86587 0.37896 0.10236 0.0
C591 C 0.8626 0.40696 0.08946 0.0
C592 C 0.89599 0.43084 0.07715 0.0
C593 C 0.9178 0.41594 0.08327 0.0
N594 N 0.96381 0.38305 0.09667 0.0
C595 C 0.97595 0.41431 0.07824 0.0
C596 C 0.01175 0.42838 0.06885 0.0
C597 C 0.02253 0.40543 0.08165 0.0
C598 C 0.99281 0.37865 0.09816 0.0
N599 N 0.9304 0.31489 0.13537 0.0
C600 C 0.96398 0.31981 0.13334 0.0
C601 C 0.96766 0.29349 0.14984 0.0
C602 C 0.93426 0.27031 0.16325 0.0
C603 C 0.91195 0.28376 0.15415 0.0
N604 N 0.90237 0.32228 0.07211 0.0
C605 C 0.90989 0.2917 1.01087 0.0
C606 C 0.89946 0.27179 0.04118 0.0
C607 C 0.89467 0.28706 0.07097 0.0
C608 C 0.91204 0.32556 1.01106 0.0
C609 C 0.90835 0.34031 0.04179 0.0
N610 N 0.92985 0.37529 0.16072 0.0
C611 C 0.97814 0.42554 0.1915 0.0
C612 C 0.96969 0.40494 0.22128 0.0
C613 C 0.9384 0.37083 0.2212 0.0
C614 C 0.91871 0.35684 0.19089 0.0
C615 C 0.95746 0.41053 0.1619 0.0
H616 H 0.89576 0.33028 0.19171 0.0
H617 H 0.96548 0.427 0.13962 0.0
H618 H 0.88668 0.2707 0.09336 0.0
H619 H 0.9123 0.36705 0.04092 0.0
C620 C 0.83793 0.34793 0.11667 0.0
C621 C 0.87285 0.26496 0.16213 0.0
C622 C 0.95512 0.43265 0.07082 0.0
C623 C 0.9911 0.34934 0.11564 0.0
H624 H 0.79685 0.23936 0.16741 0.0
H625 H 0.77764 0.28516 0.14379 0.0
H626 H 0.83862 0.40945 0.08866 0.0
H627 H 0.90317 0.456 0.06437 0.0
H628 H 0.02839 0.45295 0.05464 0.0
H629 H 0.04901 0.40813 0.0794 0.0
H630 H 0.99175 0.29129 0.15177 0.0
H631 H 0.92692 0.24599 0.17763 0.0
H632 H 0.89618 0.24498 0.04219 0.0
H633 H 0.91879 0.34153 0.98798 0.0
H634 H 1.00149 0.45252 0.19068 0.0
H635 H 0.93024 0.35433 0.24398 0.0
C636 C 0.33611 0.39042 1.01748 0.0
C637 C 0.34356 0.42183 0.03441 0.0
C638 C 0.35827 0.44922 1.01094 0.0
C639 C 0.35902 0.4332 0.98089 0.0
N640 N 0.34501 0.39718 0.98348 0.0
Co641 Co 0.34712 0.3662 0.94584 0.0
N642 N 0.36338 0.40489 0.90984 0.0
C643 C 0.37454 0.43984 0.91654 0.0
C644 C 0.38716 0.46159 0.88831 0.0
C645 C 0.38391 0.43909 0.86197 0.0
C646 C 0.36896 0.40444 0.87531 0.0
N647 N 0.35018 0.33513 0.90884 0.0
C648 C 0.35294 0.33902 0.8741 0.0
C649 C 0.34695 0.30723 0.85864 0.0
C650 C 0.34255 0.28363 0.88399 0.0
C651 C 0.3448 0.30151 0.9136 0.0
N652 N 0.32913 0.32651 0.98126 0.0
C653 C 0.32616 0.29393 0.97647 0.0
C654 C 0.3139 0.27177 1.00441 0.0
C655 C 0.30932 0.29161 0.02904 0.0
C656 C 0.31923 0.325 1.01477 0.0
N657 N 0.29642 0.35035 0.932 0.0
C658 C 0.23019 0.33359 0.90019 0.0
C659 C 0.23979 0.30694 0.90526 0.0
C660 C 0.27282 0.31579 0.92128 0.0
C661 C 0.25355 0.36818 0.91291 0.0
C662 C 0.28604 0.37584 0.92883 0.0
N663 N 0.39894 0.38475 0.95945 0.0
C664 C 0.44113 0.40213 1.00679 0.0
C665 C 0.46643 0.43372 0.98997 0.0
C666 C 0.45933 0.43709 0.95571 0.0
C667 C 0.42657 0.41132 0.94059 0.0
C668 C 0.40768 0.37831 0.99133 0.0
H669 H 0.42342 0.4146 0.91395 0.0
H670 H 0.38876 0.35574 1.00623 0.0
H671 H 0.27949 0.29479 0.924 0.0
H672 H 0.30332 0.40307 0.93734 0.0
C673 C 0.37249 0.4509 0.94969 0.0
C674 C 0.32322 0.35552 0.03561 0.0
C675 C 0.363 0.37255 0.85459 0.0
C676 C 0.33454 0.28481 0.94523 0.0
H677 H 0.3398 0.42476 0.06124 0.0
H678 H 0.36792 0.47761 1.01544 0.0
H679 H 0.39788 0.4905 0.88705 0.0
H680 H 0.39236 0.44747 0.836 0.0
H681 H 0.34531 0.30119 0.83176 0.0
H682 H 0.33606 0.25582 0.88108 0.0
H683 H 0.30935 0.24456 1.00675 0.0
H684 H 0.30099 0.28299 0.05501 0.0
H685 H 0.22225 0.27964 0.89622 0.0
H686 H 0.24704 0.38949 0.90998 0.0
H687 H 0.44633 0.39695 0.03256 0.0
H688 H 0.47874 0.45986 0.94073 0.0
C689 C 0.62037 0.96832 0.87376 0.0
C690 C 0.58893 0.94144 0.85887 0.0
C691 C 0.56743 0.91976 0.8848 0.0
C692 C 0.58689 0.93421 0.91417 0.0
N693 N 0.6194 0.96364 0.90853 0.0
Co694 Co 0.65642 0.99048 0.945 0.0
N695 N 0.62779 0.95576 0.98262 0.0
C696 C 0.59285 0.9297 0.97948 0.0
C697 C 0.5778 0.91214 1.00952 0.0
C698 C 0.60456 0.92851 0.03349 0.0
C699 C 0.63474 0.95519 1.01681 0.0
N700 N 0.69539 0.01602 0.98048 0.0
C701 C 0.698 0.00838 1.01399 0.0
C702 C 0.73081 0.03396 0.02795 0.0
C703 C 0.74891 0.05905 1.0032 0.0
C704 C 0.7265 0.04734 0.9754 0.0
N705 N 0.68419 0.02728 0.90859 0.0
C706 C 0.71455 0.0592 0.91406 0.0
C707 C 0.72748 0.08044 0.88559 0.0
C708 C 0.70399 0.06086 0.86018 0.0
C709 C 0.6781 0.02841 0.87451 0.0
N710 N 0.63168 0.01824 0.95824 0.0
C711 C 0.58198 0.03574 0.98856 0.0
C712 C 0.5756 0.01976 0.95632 0.0
C713 C 0.60118 0.01267 0.94118 0.0
C714 C 0.61574 0.04666 1.00341 0.0
C715 C 0.64003 0.03777 0.98795 0.0
N716 N 0.67849 0.96067 0.93139 0.0
C717 C 0.72048 0.95209 0.89632 0.0
C718 C 0.69873 0.91429 0.89849 0.0
C719 C 0.66813 0.90045 0.91912 0.0
C720 C 0.65862 0.92376 0.93518 0.0
C721 C 0.71015 0.97473 0.91323 0.0
H722 H 0.63388 0.91099 0.9492 0.0
H723 H 0.72728 1.0035 0.91037 0.0
H724 H 0.59494 1.00157 0.91597 0.0
H725 H 0.66495 0.04613 1.00106 0.0
C726 C 0.57607 0.92107 0.94738 0.0
C727 C 0.64908 0.99933 0.85421 0.0
C728 C 0.66884 0.98013 0.035 0.0
C729 C 0.73275 0.06617 0.94496 0.0
H730 H 0.58192 0.9384 0.83212 0.0
H731 H 0.54072 0.89626 0.88247 0.0
H732 H 0.55057 0.89001 1.01356 0.0
H733 H 0.60208 0.92191 0.06032 0.0
H734 H 0.74005 0.03523 0.05384 0.0
H735 H 0.77486 0.08356 1.00554 0.0
H736 H 0.75184 0.10653 0.88329 0.0
H737 H 0.70615 0.06927 0.83389 0.0
H738 H 0.55063 0.01226 0.94296 0.0
H739 H 0.62272 0.06069 0.02762 0.0
H740 H 0.74475 0.96403 0.88091 0.0
H741 H 0.6507 0.87148 0.92181 0.0
C742 C 0.05364 0.66856 0.87287 0.0
C743 C 0.08342 0.67115 0.85623 0.0
C744 C 0.10964 0.67962 0.88043 0.0
C745 C 0.09475 0.68207 0.91058 0.0
N746 N 0.06041 0.67496 0.90727 0.0
Co747 Co 0.03265 0.68199 0.9451 0.0
N748 N 0.0692 0.69085 0.98167 0.0
C749 C 0.10059 0.69153 0.97612 0.0
C750 C 0.11949 0.69508 1.00555 0.0
C751 C 0.09873 0.69667 0.03145 0.0
C752 C 0.0683 0.69444 1.01652 0.0
N753 N 0.0059 0.69228 0.98166 0.0
C754 C 0.01221 0.69958 1.01576 0.0
C755 C 0.98704 0.70714 0.03006 0.0
C756 C 0.9636 0.70351 1.00473 0.0
C757 C 0.97589 0.69444 0.9763 0.0
N758 N 0.9938 0.66957 0.90969 0.0
C759 C 0.96281 0.6698 0.91521 0.0
C760 C 0.94022 0.65945 0.88756 0.0
C761 C 0.95807 0.65269 0.86243 0.0
C762 C 0.99096 0.65978 0.876 0.0
N763 N 0.00913 0.62974 0.95884 0.0
C764 C 0.98887 0.56312 0.99229 0.0
C765 C 0.96878 0.5807 0.99651 0.0
C766 C 0.97906 0.61361 0.97937 0.0
C767 C 0.01752 0.57825 0.96923 0.0
C768 C 0.02696 0.61096 0.95286 0.0
N769 N 0.05909 0.73468 0.93156 0.0
C770 C 0.07417 0.77901 0.88634 0.0
C771 C 0.10933 0.8007 0.899 0.0
C772 C 0.11727 0.7906 0.93028 0.0
C773 C 0.09166 0.75851 0.94651 0.0
C774 C 0.04961 0.74657 0.90296 0.0
H775 H 0.09953 0.75319 0.97076 0.0
H776 H 0.02343 0.73107 0.8916 0.0
H777 H 0.96319 0.62631 0.98397 0.0
H778 H 0.05009 0.62129 0.93668 0.0
C779 C 0.11104 0.68871 0.94288 0.0
C780 C 0.0199 0.66081 0.85459 0.0
C781 C 0.04036 0.69802 0.03625 0.0
C782 C 0.95722 0.68284 0.94567 0.0
H783 H 0.08599 0.66756 0.8293 0.0
H784 H 0.13642 0.68353 0.87646 0.0
H785 H 0.14531 0.69631 1.00796 0.0
H786 H 0.10552 0.69978 0.05825 0.0
H787 H 0.98515 0.71362 0.05633 0.0
H788 H 0.93956 0.70574 1.0071 0.0
H789 H 0.91438 0.65825 0.88553 0.0
H790 H 0.94861 0.64499 0.83656 0.0
H791 H 0.94591 0.56965 1.01371 0.0
H792 H 0.03352 0.56545 0.96471 0.0
H793 H 0.0661 0.78644 0.86296 0.0
H794 H 0.14352 0.80715 0.94197 0.0
C795 C 0.29452 0.85683 0.39849 0.0
C796 C 0.28731 0.82409 0.38428 0.0
C797 C 0.31001 0.81468 0.39949 0.0
C798 C 0.33046 0.84246 0.42138 0.0
N799 N 0.32253 0.86929 0.42095 0.0
Co800 Co 0.35062 0.91724 0.44447 0.0
N801 N 0.39042 0.90755 0.45772 0.0
C802 C 0.38936 0.87562 0.45455 0.0
C803 C 0.4196 0.87583 0.46633 0.0
C804 C 0.44132 0.90995 0.47829 0.0
C805 C 0.42299 0.92875 0.47308 0.0
N806 N 0.37909 0.96503 0.46826 0.0
C807 C 0.41283 0.98152 0.48267 0.0
C808 C 0.42063 0.01392 0.49786 0.0
C809 C 0.39057 0.01732 0.49393 0.0
C810 C 0.36614 0.98704 0.47637 0.0
N811 N 0.31052 0.92625 0.43091 0.0
C812 C 0.30556 0.95259 0.44394 0.0
C813 C 0.27445 0.95107 0.43256 0.0
C814 C 0.25848 0.9217 0.41125 0.0
C815 C 0.28083 0.90685 0.41058 0.0
N816 N 0.32511 0.89662 0.48815 0.0
C817 C 0.29085 0.89986 0.54825 0.0
C818 C 0.32784 0.91126 0.54787 0.0
C819 C 0.34404 0.90809 0.51801 0.0
C820 C 0.27053 0.88143 0.51941 0.0
C821 C 0.28821 0.88011 0.4897 0.0
N822 N 0.37554 0.94004 0.40121 0.0
C823 C 0.39325 0.98939 0.36147 0.0
C824 C 0.40396 0.9726 0.33753 0.0
C825 C 0.40116 0.93939 0.34633 0.0
C826 C 0.38711 0.92367 0.37845 0.0
C827 C 0.37917 0.97282 0.39273 0.0
H828 H 0.38497 0.89808 0.38449 0.0
H829 H 0.3703 0.9865 0.40957 0.0
H830 H 0.37257 0.91834 0.51835 0.0
H831 H 0.27235 0.86909 0.46715 0.0
C832 C 0.36089 0.84675 0.43808 0.0
C833 C 0.27115 0.8725 0.39282 0.0
C834 C 0.43621 0.96532 0.48648 0.0
C835 C 0.33178 0.97926 0.46518 0.0
H836 H 0.26737 0.80827 0.36515 0.0
H837 H 0.31242 0.79113 0.3941 0.0
H838 H 0.42525 0.85381 0.46611 0.0
H839 H 0.46734 0.91952 0.49032 0.0
H840 H 0.44492 0.0323 0.51168 0.0
H841 H 0.38692 0.0392 0.50299 0.0
H842 H 0.2645 0.96915 0.439 0.0
H843 H 0.2329 0.91184 0.39827 0.0
H844 H 0.34457 0.92433 0.56993 0.0
H845 H 0.2416 0.87081 0.51889 0.0
H846 H 0.39485 0.01495 0.35566 0.0
H847 H 0.40923 0.92552 0.32839 0.0
C848 C 0.16661 0.43168 0.41204 0.0
C849 C 0.20292 0.4538 0.404 0.0
C850 C 0.21375 0.48639 0.41902 0.0
C851 C 0.18366 0.48239 0.43534 0.0
N852 N 0.15416 0.4494 0.43157 0.0
Co853 Co 0.10571 0.43274 0.45283 0.0
N854 N 0.11931 0.48321 0.46673 0.0
C855 C 0.15269 0.51248 0.46499 0.0
C856 C 0.15452 0.54385 0.47568 0.0
C857 C 0.12019 0.53401 0.48533 0.0
C858 C 0.0993 0.49693 0.48017 0.0
N859 N 0.05778 0.41659 0.47517 0.0
C860 C 0.04341 0.43591 0.48926 0.0
C861 C 0.01027 0.41309 0.50425 0.0
C862 C 1.00391 0.37851 0.50009 0.0
C863 C 0.03341 0.382 0.48278 0.0
N864 N 0.09243 0.38268 0.43823 0.0
C865 C 0.06346 0.35207 0.44935 0.0
C866 C 0.06094 0.32146 0.43529 0.0
C867 C 0.09044 0.33344 0.4143 0.0
C868 C 0.10956 0.37082 0.41684 0.0
N869 N 0.12326 0.42436 0.49676 0.0
C870 C 0.11762 0.38633 0.55703 0.0
C871 C 0.10932 0.41414 0.55674 0.0
C872 C 0.11318 0.43336 0.52656 0.0
C873 C 0.13361 0.38152 0.52787 0.0
C874 C 0.13685 0.40139 0.49822 0.0
N875 N 0.08597 0.43843 0.40902 0.0
C876 C 0.03688 0.41156 0.36831 0.0
C877 C 0.05604 0.43929 0.34508 0.0
C878 C 0.09056 0.46739 0.35467 0.0
C879 C 0.10506 0.46646 0.38685 0.0
C880 C 0.05208 0.41164 0.39972 0.0
H881 H 0.13175 0.48797 0.39352 0.0
H882 H 0.03622 0.38911 0.41606 0.0
H883 H 0.10501 0.45327 0.52662 0.0
H884 H 0.14742 0.39575 0.47572 0.0
C885 C 0.18128 0.51009 0.45121 0.0
C886 C 0.14593 0.3936 0.40196 0.0
C887 C 0.06184 0.47573 0.49215 0.0
C888 C 0.03786 0.35358 0.47062 0.0
H889 H 0.22 0.44707 0.38905 0.0
H890 H 0.24022 0.51038 0.41762 0.0
H891 H 0.17801 0.57072 0.47625 0.0
H892 H 0.11176 0.552 0.49589 0.0
H893 H 0.99305 0.4208 0.51766 0.0
H894 H 0.98048 0.35376 0.50858 0.0
H895 H 0.04002 0.29371 0.43959 0.0
H896 H 0.0978 0.31661 0.39972 0.0
H897 H 0.09793 0.41954 0.57908 0.0
H898 H 0.14143 0.36102 0.52732 0.0
H899 H 0.01023 0.3894 0.36198 0.0
H900 H 0.10632 0.48945 0.33729 0.0
C901 C 0.52094 0.61168 0.47563 0.0
C902 C 0.48423 0.59755 0.48164 0.0
C903 C 0.47453 0.61962 0.46551 0.0
C904 C 0.5056 0.64575 0.45047 0.0
N905 N 0.53463 0.64195 0.45604 0.0
Co906 Co 0.58402 0.67335 0.43638 0.0
N907 N 0.57197 0.71105 0.42154 0.0
C908 C 0.53869 0.70721 0.42149 0.0
C909 C 0.5377 0.73685 0.40971 0.0
C910 C 0.57251 0.76111 0.40118 0.0
C911 C 0.59288 0.74476 0.4082 0.0
N912 N 0.63293 0.70474 0.41565 0.0
C913 C 0.64863 0.73886 0.4022 0.0
C914 C 0.68246 0.74898 0.38898 0.0
C915 C 0.68774 0.72009 0.39336 0.0
C916 C 0.65703 0.69394 0.40915 0.0
N917 N 0.59557 0.63562 0.45189 0.0
C918 C 0.62441 0.6333 0.44171 0.0
C919 C 0.6258 0.60484 0.45639 0.0
C920 C 0.59571 0.58784 0.47679 0.0
C921 C 0.57735 0.60673 0.47331 0.0
N922 N 0.56784 0.64804 0.39198 0.0
C923 C 0.57464 0.61615 0.33185 0.0
C924 C 0.58355 0.65244 0.33239 0.0
C925 C 0.57919 0.66759 0.36245 0.0
C926 C 0.55767 0.595 0.36063 0.0
C927 C 0.55389 0.61137 0.39021 0.0
N928 N 0.60253 0.69816 0.48067 0.0
C929 C 0.65029 0.71907 0.52269 0.0
C930 C 0.63104 0.72819 0.5452 0.0
C931 C 0.59714 0.7227 0.53461 0.0
C932 C 0.58332 0.70759 0.50212 0.0
C933 C 0.6358 0.70433 0.49101 0.0
H934 H 0.55708 0.70306 0.49461 0.0
H935 H 0.65171 0.69722 0.47534 0.0
H936 H 0.58806 0.69589 0.36247 0.0
H937 H 0.54257 0.5948 0.41248 0.0
C938 C 0.50919 0.67616 0.43417 0.0
C939 C 0.54087 0.59415 0.48766 0.0
C940 C 0.63086 0.76077 0.39786 0.0
C941 C 0.6512 0.66047 0.42124 0.0
H942 H 0.46611 0.57355 0.49593 0.0
H943 H 0.44812 0.61729 0.46532 0.0
H944 H 0.51439 0.74036 0.40748 0.0
H945 H 0.58157 0.78741 0.38997 0.0
H946 H 0.7008 0.77416 0.3764 0.0
H947 H 0.71129 0.71846 0.38604 0.0
H948 H 0.64648 0.59755 0.45305 0.0
H949 H 0.5876 0.5637 0.49173 0.0
H950 H 0.59579 0.66952 0.31035 0.0
H951 H 0.54945 0.56656 0.36096 0.0
H952 H 0.67646 0.72283 0.52979 0.0
H953 H 0.58134 0.72947 0.55141 0.0
C954 C 1.00473 0.67999 0.1303 0.0
C955 C 0.03332 0.7084 0.14942 0.0
C956 C 0.06658 0.73134 0.09431 0.0
C957 C 0.03971 0.70075 0.07591 0.0
N958 N 0.98622 0.64207 0.07956 0.0
N959 N 0.0955 0.75635 0.14891 0.0
C960 C 0.00972 0.67401 0.09498 0.0
C961 C 0.06536 0.73274 0.13113 0.0
N962 N 0.97213 0.65886 0.14576 0.0
N963 N 0.09283 0.75997 0.07664 0.0
H964 H 0.09609 0.75764 0.17543 0.0
H965 H 0.12066 0.77212 0.13751 0.0
H966 H 0.09442 0.76031 0.05014 0.0
H967 H 0.11088 0.7845 0.0881 0.0
H968 H 0.94902 0.64027 0.13266 0.0
H969 H 0.96732 0.66243 0.17111 0.0
H970 H 0.96603 0.61995 0.09264 0.0
H971 H 0.98922 0.63646 0.05433 0.0
C972 C 0.34881 0.35363 0.09477 0.0
C973 C 0.31998 0.35183 0.07512 0.0
C974 C 0.28465 0.33788 0.12935 0.0
C975 C 0.31218 0.33552 0.14796 0.0
N976 N 0.36673 0.33246 0.14423 0.0
N977 N 0.25814 0.33802 0.07415 0.0
C978 C 0.34307 0.3408 0.12929 0.0
C979 C 0.28719 0.34267 0.09264 0.0
N980 N 0.38253 0.3693 0.08096 0.0
N981 N 0.2565 0.33671 0.14683 0.0
H982 H 0.25951 0.34251 0.04794 0.0
H983 H 0.23232 0.32757 0.08435 0.0
H984 H 0.25367 0.33296 0.17313 0.0
H985 H 0.23755 0.34204 0.13572 0.0
H986 H 0.40545 0.37424 0.09467 0.0
H987 H 0.38803 0.38187 0.05732 0.0
H988 H 0.388 0.33254 0.13117 0.0
H989 H 0.36225 0.32122 0.16843 0.0
C990 C 0.68707 0.01551 0.12856 0.0
C991 C 0.68901 0.98805 0.14742 0.0
C992 C 0.67894 0.9549 0.09223 0.0
C993 C 0.67288 0.98063 0.0745 0.0
N994 N 0.66224 0.03055 0.07987 0.0
N995 N 0.68264 0.92891 0.14658 0.0
C996 C 0.67428 0.0094 0.09401 0.0
C997 C 0.68375 0.95695 0.12896 0.0
N998 N 0.69926 0.0485 0.14314 0.0
N999 N 0.68106 0.92892 0.07388 0.0
H1000 H 0.68701 0.92999 0.17281 0.0
H1001 H 0.67512 0.9039 0.13569 0.0
H1002 H 0.67701 0.92627 0.0476 0.0
H1003 H 0.6892 0.91171 0.08425 0.0
H1004 H 0.70139 0.07072 0.13009 0.0
H1005 H 0.71207 0.05468 0.16666 0.0
H1006 H 0.65951 0.04993 0.09356 0.0
H1007 H 0.65076 0.02539 0.05572 0.0
C1008 C 0.69048 0.05638 0.45735 0.0
C1009 C 0.70655 0.04356 0.48138 0.0
C1010 C 0.72536 0.02037 0.43188 0.0
C1011 C 0.71231 0.03616 0.40781 0.0
N1012 N 0.69603 0.08241 0.40118 0.0
N1013 N 0.7527 0.0271 0.48755 0.0
C1014 C 0.69945 0.05859 0.42173 0.0
C1015 C 0.72851 0.03024 0.4673 0.0
N1016 N 0.66516 0.06479 0.46773 0.0
N1017 N 0.73304 0.99445 0.42177 0.0
H1018 H 0.757 0.03567 0.51288 0.0
H1019 H 0.77081 0.01966 0.47799 0.0
H1020 H 0.72892 0.98467 0.3969 0.0
H1021 H 0.73984 0.98025 0.43902 0.0
H1022 H 0.65066 0.07136 0.45061 0.0
H1023 H 0.65619 0.0616 0.49282 0.0
H1024 H 0.689 0.10089 0.41057 0.0
H1025 H 0.70401 0.08608 0.3757 0.0
C1026 C 0.95307 0.67855 0.46434 0.0
C1027 C 0.97308 0.665 0.48189 0.0
C1028 C 1.00334 0.66788 0.42686 0.0
C1029 C 0.98118 0.6785 0.40821 0.0
N1030 N 0.92873 0.68561 0.41049 0.0
N1031 N 0.0099 0.63756 0.47637 0.0
C1032 C 0.95435 0.68156 0.42747 0.0
C1033 C 0.99598 0.65704 0.46202 0.0
N1034 N 0.93291 0.689 0.48293 0.0
N1035 N 0.03244 0.66885 0.41154 0.0
H1036 H 1.00367 0.62775 0.50114 0.0
H1037 H 0.02364 0.62736 0.46258 0.0
H1038 H 0.03871 0.67493 0.38608 0.0
H1039 H 0.05209 0.66628 0.42494 0.0
H1040 H 0.92093 0.70286 0.4725 0.0
H1041 H 0.93032 0.68595 0.50932 0.0
H1042 H 0.90636 0.68433 0.4224 0.0
H1043 H 0.92807 0.68691 0.38401 0.0
C1044 C 0.34771 0.2917 0.46253 0.0
C1045 C 0.35133 0.32228 0.48075 0.0
C1046 C 0.33471 0.34169 0.42702 0.0
C1047 C 0.33458 0.31328 0.40794 0.0
N1048 N 0.34796 0.26485 0.4077 0.0
N1049 N 0.3578 0.38126 0.4761 0.0
C1050 C 0.34295 0.28922 0.42584 0.0
C1051 C 0.34735 0.34851 0.46168 0.0
N1052 N 0.34813 0.26449 0.48031 0.0
N1053 N 0.32253 0.36242 0.41203 0.0
H1054 H 0.37033 0.38809 0.49972 0.0
H1055 H 0.35871 0.40289 0.46298 0.0
H1056 H 0.31335 0.35852 0.38693 0.0
H1057 H 0.3183 0.38103 0.42543 0.0
H1058 H 0.34175 0.23975 0.46947 0.0
H1059 H 0.35235 0.26577 0.50656 0.0
H1060 H 0.35785 0.24921 0.4184 0.0
H1061 H 0.34502 0.26241 0.38131 0.0
C1062 C 0.96399 0.2887 0.93397 0.0
C1063 C 0.94237 0.25244 0.9224 0.0
C1064 C 0.8966 0.24381 0.96537 0.0
C1065 C 0.92064 0.27819 0.97994 0.0
N1066 N 0.98172 0.32898 0.98233 0.0
N1067 N 0.89079 0.19321 0.93232 0.0
C1068 C 0.95564 0.29941 0.96544 0.0
C1069 C 0.90937 0.22932 0.93958 0.0
N1070 N 0.99169 0.3136 0.91432 0.0
N1071 N 0.86118 0.22548 0.97514 0.0
H1072 H 0.89987 0.18136 0.91463 0.0
H1073 H 0.86846 0.1746 0.94633 0.0
H1074 H 0.85047 0.23578 0.99281 0.0
H1075 H 0.84176 0.20198 0.96309 0.0
H1076 H 0.00603 0.34106 0.92029 0.0
H1077 H 0.99756 0.30772 0.89022 0.0
H1078 H 0.00853 0.34323 0.97421 0.0
H1079 H 0.97773 0.33679 1.00634 0.0
C1080 C 0.72494 0.66409 0.95554 0.0
C1081 C 0.74728 0.65022 0.96688 0.0
C1082 C 0.79259 0.68851 0.92402 0.0
C1083 C 0.76797 0.69816 0.90971 0.0
N1084 N 0.7064 0.68633 0.90755 0.0
N1085 N 0.79967 0.6442 0.95653 0.0
C1086 C 0.73289 0.68343 0.92424 0.0
C1087 C 0.7804 0.66103 0.94957 0.0
N1088 N 0.69697 0.66037 0.9753 0.0
N1089 N 0.82801 0.70647 0.91423 0.0
H1090 H 0.791 0.62309 0.97402 0.0
H1091 H 0.82217 0.64862 0.94243 0.0
H1092 H 0.83831 0.72768 0.89673 0.0
H1093 H 0.8478 0.70289 0.92612 0.0
H1094 H 0.6821 0.67296 0.96955 0.0
H1095 H 0.69132 0.64837 0.99929 0.0
H1096 H 0.67957 0.67308 0.91566 0.0
H1097 H 0.71015 0.69838 0.88369 0.0
C1098 C 0.36136 0.12379 0.94679 0.0
C1099 C 0.3567 0.09788 0.97193 0.0
C1100 C 0.30597 0.05046 0.9387 0.0
C1101 C 0.31353 0.0754 0.91173 0.0
N1102 N 0.34861 0.13563 0.88927 0.0
N1103 N 0.32539 0.03625 0.99186 0.0
C1104 C 0.34106 0.11216 0.91576 0.0
C1105 C 0.32897 0.06116 0.968 0.0
N1106 N 0.38511 0.15958 0.95275 0.0
N1107 N 0.27656 0.01648 0.93624 0.0
H1108 H 0.34048 0.04317 1.01429 0.0
H1109 H 0.30893 0.00845 0.98881 0.0
H1110 H 0.2595 0.0079 0.9151 0.0
H1111 H 0.26717 0.99775 0.956 0.0
H1112 H 0.38738 0.18041 0.93733 0.0
H1113 H 0.40104 0.16878 0.97463 0.0
H1114 H 0.37099 0.16159 0.88848 0.0
H1115 H 0.3331 0.12849 0.86708 0.0
C1116 C 0.24071 0.93786 0.60021 0.0
C1117 C 0.24954 0.93357 0.63412 0.0
C1118 C 0.27806 0.89998 0.61154 0.0
C1119 C 0.27446 0.90949 0.57768 0.0
N1120 N 0.25902 0.94542 0.54116 0.0
N1121 N 0.28446 0.91711 0.67092 0.0
C1122 C 0.25742 0.93048 0.57232 0.0
C1123 C 0.27024 0.91624 0.63954 0.0
N1124 N 0.21579 0.94835 0.59447 0.0
N1125 N 0.2883 0.87485 0.6171 0.0
H1126 H 0.28149 0.93048 0.69175 0.0
H1127 H 0.30261 0.90796 0.67526 0.0
H1128 H 0.29308 0.8615 0.5973 0.0
H1129 H 0.28817 0.86454 0.64116 0.0
H1130 H 0.20596 0.94872 0.57029 0.0
H1131 H 0.20212 0.95283 0.61416 0.0
H1132 H 0.25011 0.96379 0.53697 0.0
H1133 H 0.27277 0.94284 0.52046 0.0
C1134 C 0.05681 0.30985 0.61818 0.0
C1135 C 0.08121 0.31491 0.64502 0.0
C1136 C 0.13055 0.36536 0.61321 0.0
C1137 C 0.10611 0.36027 0.5864 0.0
N1138 N 0.04803 0.32319 0.55996 0.0
N1139 N 0.14228 0.34245 0.66564 0.0
C1140 C 0.06988 0.331 0.58785 0.0
C1141 C 0.11848 0.34107 0.64162 0.0
N1142 N 0.02074 0.2859 0.62236 0.0
N1143 N 0.16494 0.39425 0.61205 0.0
H1144 H 0.13409 0.32508 0.68657 0.0
H1145 H 0.17021 0.35849 0.66354 0.0
H1146 H 0.17477 0.41186 0.59133 0.0
H1147 H 0.18312 0.40212 0.63223 0.0
H1148 H 1.00077 0.28413 0.60597 0.0
H1149 H 0.01042 0.2689 0.64345 0.0
H1150 H 0.02268 0.30012 0.55783 0.0
H1151 H 0.05641 0.33835 0.53761 0.0
C1152 C 0.64109 0.71748 0.6064 0.0
C1153 C 0.64728 0.74239 0.57973 0.0
C1154 C 0.69497 0.79141 0.61435 0.0
C1155 C 0.69174 0.76567 0.63909 0.0
N1156 N 0.66238 0.70397 0.6588 0.0
N1157 N 0.68029 0.80287 0.55746 0.0
C1158 C 0.66472 0.72866 0.63525 0.0
C1159 C 0.67403 0.77943 0.5837 0.0
N1160 N 0.61235 0.68307 0.60406 0.0
N1161 N 0.71801 0.82736 0.62031 0.0
H1162 H 0.66426 0.79539 0.5356 0.0
H1163 H 0.70208 0.82916 0.55654 0.0
H1164 H 0.7345 0.83685 0.64181 0.0
H1165 H 0.71918 0.84797 0.60528 0.0
H1166 H 0.6039 0.66421 0.62367 0.0
H1167 H 0.59487 0.67415 0.58322 0.0
H1168 H 0.64652 0.67612 0.65573 0.0
H1169 H 0.67789 0.7112 0.68097 0.0
C1170 C 0.35472 0.38803 0.79169 0.0
C1171 C 0.37037 0.37446 0.81538 0.0
C1172 C 0.38953 0.35237 0.76522 0.0
C1173 C 0.37703 0.36908 0.74157 0.0
N1174 N 0.36146 0.41596 0.73633 0.0
N1175 N 0.41597 0.35717 0.82105 0.0
C1176 C 0.36427 0.39132 0.75616 0.0
C1177 C 0.39218 0.36111 0.80094 0.0
N1178 N 0.32925 0.39616 0.80229 0.0
N1179 N 0.39722 0.32668 0.75436 0.0
H1180 H 0.42006 0.36507 0.84657 0.0
H1181 H 0.43403 0.34978 0.81128 0.0
H1182 H 0.3936 0.31781 0.7292 0.0
H1183 H 0.40358 0.3118 0.77119 0.0
H1184 H 0.31516 0.4034 0.78533 0.0
H1185 H 0.31964 0.39193 0.82723 0.0
H1186 H 0.35446 0.43426 0.74627 0.0
H1187 H 0.36986 0.4204 0.71096 0.0
C1188 C 0.68523 0.0158 0.76115 0.0
C1189 C 0.65875 0.01919 0.7419 0.0
C1190 C 0.62541 0.01059 0.79664 0.0
C1191 C 0.64979 1.00284 0.81475 0.0
N1192 N 0.69959 0.99175 0.81111 0.0
N1193 N 0.60059 0.01514 0.74198 0.0
C1194 C 0.67851 1.00338 0.79587 0.0
C1195 C 0.62794 0.01519 0.75995 0.0
N1196 N 0.71809 0.02662 0.74683 0.0
N1197 N 0.60065 0.01515 0.81459 0.0
H1198 H 0.60194 0.01932 0.71572 0.0
H1199 H 0.57572 0.00846 0.75268 0.0
H1200 H 0.59812 0.01224 0.84098 0.0
H1201 H 0.58471 0.0246 0.80374 0.0
H1202 H 0.73985 0.02793 0.76005 0.0
H1203 H 0.72481 0.03907 0.72317 0.0
H1204 H 0.71848 0.98784 0.79789 0.0
H1205 H 0.69569 0.98267 0.83624 0.0
C1206 C 0.0119 0.62637 0.79711 0.0
C1207 C 0.01547 0.65714 0.81498 0.0
C1208 C 1.00102 0.67699 0.76015 0.0
C1209 C 1.00075 0.64813 0.74161 0.0
N1210 N 0.01404 0.59964 0.74286 0.0
N1211 N 0.02148 0.71599 0.80999 0.0
C1212 C 0.00839 0.62399 0.76031 0.0
C1213 C 0.01224 0.68355 0.79536 0.0
N1214 N 0.01087 0.59868 0.81533 0.0
N1215 N 0.98998 0.69819 0.7442 0.0
H1216 H 0.03116 0.72223 0.8348 0.0
H1217 H 0.02342 0.73789 0.79654 0.0
H1218 H 0.9819 0.69456 0.71876 0.0
H1219 H 0.98564 0.71706 0.75694 0.0
H1220 H 1.00441 0.57388 0.80457 0.0
H1221 H 0.0136 0.5995 0.84176 0.0
H1222 H 0.02346 0.58395 0.75431 0.0
H1223 H 0.01239 0.59747 0.7164 0.0
C1224 C 0.56231 0.58245 0.2756 0.0
C1225 C 0.58646 0.60172 0.30264 0.0
C1226 C 0.63613 0.60098 0.27129 0.0
C1227 C 0.61197 0.58154 0.2443 0.0
N1228 N 0.55106 0.54785 0.22322 0.0
N1229 N 0.64431 0.62288 0.32956 0.0
C1230 C 0.57466 0.57033 0.24736 0.0
C1231 C 0.62274 0.60889 0.30149 0.0
N1232 N 0.52794 0.57695 0.27637 0.0
N1233 N 0.67226 0.61333 0.26739 0.0
H1234 H 0.63566 0.62945 0.35187 0.0
H1235 H 0.66967 0.62528 0.3319 0.0
H1236 H 0.68285 0.60686 0.24638 0.0
H1237 H 0.69205 0.63158 0.28392 0.0
H1238 H 0.51002 0.56672 0.25598 0.0
H1239 H 0.51789 0.58466 0.29694 0.0
H1240 H 0.52311 0.53583 0.22514 0.0
H1241 H 0.55942 0.53875 0.20236 0.0
C1242 C 0.40074 1.00303 0.24632 0.0
C1243 C 0.43662 0.03253 0.24269 0.0
C1244 C 0.45285 0.01658 0.29774 0.0
C1245 C 0.4161 0.98977 0.30305 0.0
N1246 N 0.35435 0.95852 0.28359 0.0
N1247 N 0.49666 0.06886 0.26525 0.0
C1248 C 0.38992 0.98308 0.27747 0.0
C1249 C 0.46273 0.03951 0.26841 0.0
N1250 N 0.37708 0.99382 0.21969 0.0
N1251 N 0.47831 0.01988 0.32079 0.0
H1252 H 0.50497 0.08548 0.2438 0.0
H1253 H 0.51598 0.07811 0.28452 0.0
H1254 H 0.47179 1.00378 0.34255 0.0
H1255 H 0.506 0.03637 0.31723 0.0
H1256 H 0.35187 0.97041 0.21905 0.0
H1257 H 0.38365 0.00823 0.19687 0.0
H1258 H 0.33317 0.95554 0.26823 0.0
H1259 H 0.34563 0.94222 0.30526 0.0
C1260 C 0.04381 0.4169 0.28436 0.0
C1261 C 0.03927 0.43698 0.31078 0.0
C1262 C 0.99333 0.44123 0.27598 0.0
C1263 C 0.99491 0.41763 0.25141 0.0
N1264 N 0.02082 0.38197 0.23219 0.0
N1265 N 0.00925 0.46759 0.33275 0.0
C1266 C 0.02016 0.40542 0.25551 0.0
C1267 C 0.01414 0.44929 0.30666 0.0
N1268 N 0.07109 0.40909 0.28686 0.0
N1269 N 0.97202 0.45606 0.26984 0.0
H1270 H 0.02518 0.4754 0.35467 0.0
H1271 H 0.98853 0.47366 0.33353 0.0
H1272 H 0.95558 0.44975 0.24836 0.0
H1273 H 0.97229 0.47635 0.28469 0.0
H1274 H 0.07846 0.39761 0.26737 0.0
H1275 H 0.08853 0.41684 0.3077 0.0
H1276 H 0.03516 0.36844 0.2355 0.0
H1277 H 0.00536 0.37435 0.20998 0.0
C1278 C 0.21061 0.8137 0.38765 0.0
C1279 C 0.23455 0.84915 0.37525 0.0
C1280 C 0.19127 0.83624 0.32797 0.0
C1281 C 0.17097 0.79902 0.33762 0.0
N1282 N 0.17039 0.75163 0.3716 0.0
N1283 N 0.24963 0.8918 0.32931 0.0
C1284 C 0.18338 0.78761 0.366 0.0
C1285 C 0.22544 0.85977 0.3441 0.0
N1286 N 0.21379 0.80457 0.4202 0.0
N1287 N 0.17743 0.84979 0.30474 0.0
H1288 H 0.27464 0.90951 0.34022 0.0
H1289 H 0.24598 0.89922 0.30501 0.0
H1290 H 0.15208 0.83423 0.2936 0.0
H1291 H 0.18954 0.8773 0.29924 0.0
H1292 H 0.19507 0.77997 0.43117 0.0
H1293 H 0.23283 0.82293 0.43712 0.0
H1294 H 0.18085 0.74216 0.39036 0.0
H1295 H 0.15249 0.73163 0.35494 0.0
C1296 C 0.19443 0.37893 0.32616 0.0
C1297 C 0.216 0.36696 0.34314 0.0
C1298 C 0.18467 0.36377 0.39719 0.0
C1299 C 0.16527 0.37859 0.38078 0.0
N1300 N 0.15197 0.40117 0.33005 0.0
N1301 N 0.23203 0.34791 0.39473 0.0
C1302 C 0.17001 0.386 0.34524 0.0
C1303 C 0.21105 0.35924 0.37865 0.0
N1304 N 0.19721 0.38334 0.29159 0.0
N1305 N 0.17752 0.35369 0.43059 0.0
H1306 H 0.2496 0.34185 0.38177 0.0
H1307 H 0.23347 0.34584 0.42099 0.0
H1308 H 0.15887 0.35692 0.4449 0.0
H1309 H 0.18784 0.33976 0.44376 0.0
H1310 H 0.17977 0.38799 0.27679 0.0
H1311 H 0.21619 0.38064 0.27716 0.0
H1312 H 0.15697 0.41154 0.30544 0.0
H1313 H 0.13251 0.40469 0.34276 0.0
C1314 C 0.64963 0.82758 0.32427 0.0
C1315 C 0.66251 0.86082 0.34199 0.0
C1316 C 0.66008 0.82954 0.39593 0.0
C1317 C 0.64782 0.79638 0.3781 0.0
N1318 N 0.63815 0.76582 0.3243 0.0
N1319 N 0.6854 0.89485 0.39385 0.0
C1320 C 0.64491 0.79611 0.34194 0.0
C1321 C 0.66943 0.86216 0.3776 0.0
N1322 N 0.6408 0.82581 0.29059 0.0
N1323 N 0.6616 0.82949 0.43069 0.0
H1324 H 0.69137 0.91887 0.38161 0.0
H1325 H 0.69488 0.89871 0.41877 0.0
H1326 H 0.65701 0.80678 0.44464 0.0
H1327 H 0.66574 0.85122 0.44585 0.0
H1328 H 0.62718 0.80174 0.27694 0.0
H1329 H 0.64471 0.84828 0.27669 0.0
H1330 H 0.63909 0.76464 0.29789 0.0
H1331 H 0.63519 0.74274 0.33613 0.0
C1332 C 0.81557 0.16373 0.18614 0.0
C1333 C 0.79979 0.16643 0.21725 0.0
C1334 C 0.84304 0.23206 0.21691 0.0
C1335 C 0.85363 0.23029 0.18307 0.0
N1336 N 0.84795 0.1936 0.1344 0.0
N1337 N 0.79513 0.20563 0.25876 0.0
C1338 C 0.83939 0.19581 0.16743 0.0
C1339 C 0.81279 0.2013 0.23181 0.0
N1340 N 0.80914 0.13071 0.17508 0.0
N1341 N 0.86232 0.26315 0.23509 0.0
H1342 H 0.77161 0.18439 0.26915 0.0
H1343 H 0.80152 0.23093 0.26825 0.0
H1344 H 0.8861 0.28477 0.22562 0.0
H1345 H 0.8576 0.26542 0.26076 0.0
H1346 H 0.82244 0.12743 0.15437 0.0
H1347 H 0.79346 0.10688 0.18867 0.0
H1348 H 0.83493 0.16985 0.12017 0.0
H1349 H 0.86684 0.21606 0.12074 0.0
C1350 C 0.83279 0.65283 0.15695 0.0
C1351 C 0.79901 0.63965 0.1739 0.0
C1352 C 0.82815 0.63839 0.22798 0.0
C1353 C 0.86198 0.65207 0.21108 0.0
N1354 N 0.89797 0.67875 0.16086 0.0
N1355 N 0.76591 0.62608 0.22635 0.0
C1356 C 0.86466 0.66116 0.17595 0.0
C1357 C 0.79727 0.63448 0.20975 0.0
N1358 N 0.83421 0.6562 0.12236 0.0
N1359 N 0.82535 0.62813 0.26131 0.0
H1360 H 0.74317 0.62319 0.21362 0.0
H1361 H 0.76321 0.62495 0.25271 0.0
H1362 H 0.84735 0.63095 0.27536 0.0
H1363 H 0.80101 0.61457 0.27447 0.0
H1364 H 0.85631 0.66043 0.10774 0.0
H1365 H 0.81247 0.65323 0.10799 0.0
H1366 H 0.90257 0.68995 0.13658 0.0
H1367 H 0.92172 0.68458 0.17356 0.0
C1368 C 0.35681 0.20931 0.17873 0.0
C1369 C 0.37253 0.22059 0.2117 0.0
C1370 C 0.39064 0.17418 0.20927 0.0
C1371 C 0.38104 0.16773 0.17437 0.0
N1372 N 0.35619 0.18079 0.12503 0.0
N1373 N 0.41012 0.21711 0.25575 0.0
C1374 C 0.36432 0.18571 0.1589 0.0
C1375 C 0.39087 0.20377 0.22634 0.0
N1376 N 0.33346 0.21986 0.16683 0.0
N1377 N 0.39877 0.15142 0.2264 0.0
H1378 H 0.41255 0.23977 0.26819 0.0
H1379 H 0.42678 0.20806 0.26573 0.0
H1380 H 0.39572 0.12798 0.21518 0.0
H1381 H 0.40347 0.15305 0.25254 0.0
H1382 H 0.31856 0.2098 0.1445 0.0
H1383 H 0.32611 0.23586 0.1809 0.0
H1384 H 0.34841 0.19657 0.11119 0.0
H1385 H 0.35894 0.16195 0.11046 0.0
C1386 C 0.83124 0.14834 0.70499 0.0
C1387 C 0.83596 0.13373 0.67406 0.0
C1388 C 0.90164 0.17705 0.67831 0.0
C1389 C 0.89739 0.18676 0.71189 0.0
N1390 N 0.85731 0.17671 0.75911 0.0
N1391 N 0.87767 0.13102 0.63434 0.0
C1392 C 0.86191 0.17122 0.72569 0.0
C1393 C 0.87173 0.14755 0.66131 0.0
N1394 N 0.79753 0.14138 0.71424 0.0
N1395 N 0.93463 0.19569 0.6629 0.0
H1396 H 0.85706 0.10816 0.62244 0.0
H1397 H 0.9034 0.1376 0.62609 0.0
H1398 H 0.95689 0.21711 0.67482 0.0
H1399 H 0.93888 0.19226 0.63737 0.0
H1400 H 0.79297 0.15399 0.73482 0.0
H1401 H 0.77464 0.12618 0.69927 0.0
H1402 H 0.8325 0.16263 0.77152 0.0
H1403 H 0.87873 0.1932 0.77513 0.0
C1404 C 0.87944 0.69746 0.71006 0.0
C1405 C 0.8841 0.70257 0.67421 0.0
C1406 C 0.8364 0.71929 0.67293 0.0
C1407 C 0.83238 0.71499 0.70886 0.0
N1408 N 0.84353 0.69177 0.76023 0.0
N1409 N 0.86447 0.71434 0.62071 0.0
C1410 C 0.85209 0.70168 0.72697 0.0
C1411 C 0.86173 0.71228 0.65543 0.0
N1412 N 0.90145 0.68878 0.72802 0.0
N1413 N 0.81613 0.7306 0.65564 0.0
H1414 H 0.88399 0.71151 0.60734 0.0
H1415 H 0.84682 0.71751 0.60478 0.0
H1416 H 0.79454 0.73142 0.66695 0.0
H1417 H 0.82041 0.73914 0.63043 0.0
H1418 H 0.90282 0.68888 0.75445 0.0
H1419 H 0.92013 0.68335 0.71641 0.0
H1420 H 0.85445 0.67919 0.77471 0.0
H1421 H 0.82242 0.69271 0.77242 0.0
C1422 C 0.32402 0.16421 0.72868 0.0
C1423 C 0.31277 0.13137 0.71061 0.0
C1424 C 0.31427 0.16268 0.65696 0.0
C1425 C 0.32622 0.19563 0.67491 0.0
N1426 N 0.34795 0.22931 0.72709 0.0
N1427 N 0.30468 0.10164 0.65652 0.0
C1428 C 0.33278 0.1968 0.71058 0.0
C1429 C 0.31027 0.1314 0.67441 0.0
N1430 N 0.32516 0.16387 0.76345 0.0
N1431 N 0.30555 0.16095 0.62325 0.0
H1432 H 0.30244 0.07878 0.66817 0.0
H1433 H 0.30603 0.10085 0.63012 0.0
H1434 H 0.30877 0.18328 0.60953 0.0
H1435 H 0.29257 0.13696 0.60942 0.0
H1436 H 0.32854 0.18524 0.77872 0.0
H1437 H 0.32103 0.14124 0.77726 0.0
H1438 H 0.35721 0.23313 0.75209 0.0
H1439 H 0.35348 0.25326 0.71499 0.0
C1440 C 0.18255 0.89847 0.87533 0.0
C1441 C 0.18922 0.89451 0.8406 0.0
C1442 C 0.14873 0.82847 0.84637 0.0
C1443 C 0.13776 0.83315 0.87934 0.0
N1444 N 0.14123 0.87433 0.92319 0.0
N1445 N 0.17464 0.85547 0.79172 0.0
C1446 C 0.15417 0.86863 0.89343 0.0
C1447 C 0.17137 0.85937 0.82582 0.0
N1448 N 0.20332 0.93107 0.89093 0.0
N1449 N 0.13848 0.79444 0.83498 0.0
H1450 H 0.19142 0.87702 0.77595 0.0
H1451 H 0.15879 0.83133 0.7787 0.0
H1452 H 0.12284 0.77125 0.84943 0.0
H1453 H 0.14852 0.78947 0.81271 0.0
H1454 H 0.20235 0.93508 0.91699 0.0
H1455 H 0.22406 0.95324 0.87826 0.0
H1456 H 0.14945 0.89994 0.93295 0.0
H1457 H 0.1197 0.85367 0.93653 0.0
C1458 C 0.13153 0.30816 0.88172 0.0
C1459 C 0.13168 0.31078 0.84554 0.0
C1460 C 0.19639 0.32842 0.84517 0.0
C1461 C 0.19619 0.32583 0.88133 0.0
N1462 N 0.16541 0.31908 0.93447 0.0
N1463 N 0.1655 0.32983 0.79344 0.0
C1464 C 0.16427 0.31752 0.89968 0.0
C1465 C 0.16464 0.32301 0.82753 0.0
N1466 N 0.09967 0.29538 0.89894 0.0
N1467 N 0.22681 0.33527 0.82762 0.0
H1468 H 0.1428 0.32624 0.78011 0.0
H1469 H 0.18898 0.34177 0.77888 0.0
H1470 H 0.25073 0.34047 0.83961 0.0
H1471 H 0.22798 0.33378 0.80126 0.0
H1472 H 0.09619 0.2876 0.92439 0.0
H1473 H 0.07605 0.29132 0.88737 0.0
H1474 H 0.14472 0.31771 0.9495 0.0
H1475 H 0.1882 0.32412 0.94849 0.0
C1476 C 0.7218 0.84029 0.87618 0.0
C1477 C 0.7181 0.83839 0.84015 0.0
C1478 C 0.6979 0.88345 0.84288 0.0
C1479 C 0.70633 0.88879 0.87819 0.0
N1480 N 0.72982 0.87475 0.92797 0.0
N1481 N 0.70461 0.86009 0.78875 0.0
C1482 C 0.71909 0.86771 0.89472 0.0
C1483 C 0.70651 0.86043 0.82344 0.0
N1484 N 0.72725 0.81537 0.89281 0.0
N1485 N 0.68044 0.89941 0.82808 0.0
H1486 H 0.70832 0.84208 0.77388 0.0
H1487 H 0.70125 0.87883 0.77465 0.0
H1488 H 0.67362 0.91626 0.84136 0.0
H1489 H 0.66997 0.89362 0.80348 0.0
H1490 H 0.72697 0.81301 0.91921 0.0
H1491 H 0.72818 0.79445 0.88015 0.0
H1492 H 0.74304 0.86326 0.94057 0.0
H1493 H 0.72826 0.8945 0.94225 0.0
C1494 C 0.48161 0.5352 0.56091 0.0
C1495 C 0.46752 0.49939 0.54812 0.0
C1496 C 0.50477 0.52525 0.49631 0.0
C1497 C 0.52064 0.56075 0.51018 0.0
N1498 N 0.52993 0.59803 0.55923 0.0
N1499 N 0.47445 0.46079 0.50757 0.0
C1500 C 0.51108 0.56505 0.54381 0.0
C1501 C 0.4818 0.49459 0.517 0.0
N1502 N 0.46537 0.54122 0.58807 0.0
N1503 N 0.51006 0.52064 0.46283 0.0
H1504 H 0.45913 0.43789 0.52249 0.0
H1505 H 0.48681 0.45611 0.48687 0.0
H1506 H 0.5266 0.54206 0.44682 0.0
H1507 H 0.49578 0.49588 0.45037 0.0
H1508 H 0.4721 0.56699 0.59637 0.0
H1509 H 0.44259 0.52066 0.6001 0.0
H1510 H 0.52666 0.60231 0.58479 0.0
H1511 H 0.55135 0.62025 0.54727 0.0
C1512 C 0.4995 0.98023 0.56208 0.0
C1513 C 0.5337 0.99537 0.54573 0.0
C1514 C 0.5049 0.99701 0.49148 0.0
C1515 C 0.47071 0.98216 0.50792 0.0
N1516 N 0.43734 0.96744 0.5605 0.0
N1517 N 0.57017 0.02343 0.49611 0.0
C1518 C 0.46867 0.97623 0.54376 0.0
C1519 C 0.53671 0.00545 0.51079 0.0
N1520 N 0.49627 0.9687 0.59503 0.0
N1521 N 0.50662 1.00176 0.45697 0.0
H1522 H 0.59364 0.02862 0.50896 0.0
H1523 H 0.57513 0.03515 0.47206 0.0
H1524 H 0.48446 0.99792 0.44254 0.0
H1525 H 0.52932 0.00793 0.44239 0.0
H1526 H 0.4716 0.95345 0.60738 0.0
H1527 H 0.51826 0.97213 0.60948 0.0
H1528 H 0.43471 0.96592 0.58687 0.0
H1529 H 0.41485 0.96544 0.54825 0.0
C1530 C 0.05744 0.50414 0.54747 0.0
C1531 C 0.04667 0.49518 0.513 0.0
C1532 C 0.01997 0.53474 0.51568 0.0
C1533 C 0.03687 0.54872 0.54786 0.0
N1534 N 0.07821 0.55051 0.59083 0.0
N1535 N 0.01952 0.50429 0.46317 0.0
C1536 C 0.05725 0.53428 0.56288 0.0
C1537 C 0.02834 0.51112 0.49681 0.0
N1538 N 0.06738 0.48344 0.5658 0.0
N1539 N 0.99477 0.54272 0.50368 0.0
H1540 H 0.02368 0.48591 0.4492 0.0
H1541 H 0.01009 0.51837 0.4488 0.0
H1542 H 0.98648 0.55822 0.51733 0.0
H1543 H 0.97935 0.53086 0.48196 0.0
H1544 H 0.07307 0.48707 0.59177 0.0
H1545 H 0.06483 0.45965 0.55604 0.0
H1546 H 0.09619 0.5431 0.60076 0.0
H1547 H 0.08076 0.57391 0.60173 0.0
C1548 C 0.49613 0.47886 0.03895 0.0
C1549 C 0.49962 0.46308 1.00813 0.0
C1550 C 0.56498 0.5071 1.00924 0.0
C1551 C 0.56243 0.51771 0.04288 0.0
N1552 N 0.525 0.51145 0.09102 0.0
N1553 N 0.54004 0.45859 0.96797 0.0
C1554 C 0.52776 0.50297 0.05807 0.0
C1555 C 0.53481 0.47638 0.99426 0.0
N1556 N 0.46282 0.4722 0.04929 0.0
N1557 N 0.59612 0.52681 0.99127 0.0
H1558 H 0.5193 0.43465 0.9577 0.0
H1559 H 0.56564 0.46535 0.95908 0.0
H1560 H 0.6172 0.55105 1.00057 0.0
H1561 H 0.59879 0.52188 0.96575 0.0
H1562 H 0.45903 0.48537 0.06982 0.0
H1563 H 0.43933 0.45652 0.03523 0.0
H1564 H 0.50102 0.49834 0.10487 0.0
H1565 H 0.54733 0.5302 0.10505 0.0
C1566 C 0.53981 0.02401 0.03905 0.0
C1567 C 0.55332 0.04044 1.0067 0.0
C1568 C 0.50833 0.06044 1.0067 0.0
C1569 C 0.49979 0.05019 0.04129 0.0
N1570 N 0.50878 0.02297 0.09121 0.0
N1571 N 0.55372 0.07994 0.96249 0.0
C1572 C 0.51585 0.03203 0.05766 0.0
C1573 C 0.5383 0.06004 0.99117 0.0
N1574 N 0.54859 0.99951 0.05147 0.0
N1575 N 0.48725 0.06992 0.98841 0.0
H1576 H 0.57677 0.082 0.95124 0.0
H1577 H 0.54597 0.09744 0.95205 0.0
H1578 H 0.46361 0.06751 0.99848 0.0
H1579 H 0.49041 0.07516 0.96235 0.0
H1580 H 0.53692 0.98413 0.07326 0.0
H1581 H 0.56474 0.99176 0.0382 0.0
H1582 H 0.52321 0.01416 0.10584 0.0
H1583 H 0.48944 0.02584 0.10476 0.0
C1584 C 0.96799 0.49589 0.99604 0.0
C1585 C 0.98147 0.52992 1.01254 0.0
C1586 C 0.98238 0.50126 0.06698 0.0
C1587 C 0.97014 0.46752 0.05022 0.0
N1588 N 0.95955 0.43523 0.99745 0.0
N1589 N 0.00872 0.56645 0.06242 0.0
C1590 C 0.9656 0.46572 1.01429 0.0
C1591 C 0.99073 0.53298 0.04768 0.0
N1592 N 0.95608 0.49199 0.96318 0.0
N1593 N 0.98517 0.50285 0.10163 0.0
H1594 H 0.01531 0.59019 0.04933 0.0
H1595 H 0.0198 0.5711 0.08679 0.0
H1596 H 0.98168 0.48105 0.11629 0.0
H1597 H 0.98909 0.52504 0.11592 0.0
H1598 H 0.94238 0.46717 0.95077 0.0
H1599 H 0.95704 0.51321 0.94919 0.0
H1600 H 0.95921 0.43312 0.97103 0.0
H1601 H 0.95881 0.41336 1.0099 0.0
loop_
_geom_bond_atom_site_label_1
_geom_bond_atom_site_label_2
_geom_bond_distance
_geom_bond_site_symmetry_2
_ccdc_geom_bond_type
C0 C1 1.443 . S
C0 N4 1.375 1_655 S
C0 C38 1.389 . S
C1 C0 1.443 . S
C1 C2 1.340 1_655 S
C1 H41 0.951 . S
C2 C1 1.340 1_455 S
C2 C3 1.439 . S
C2 H42 0.950 . S
C3 C2 1.439 . S
C3 N4 1.362 . S
C3 C37 1.395 . S
N4 C0 1.375 1_455 S
N4 C3 1.362 . S
N4 Co5 2.024 . S
Co5 N4 2.024 . S
Co5 N6 1.995 . S
Co5 N11 2.008 . S
Co5 N16 1.995 1_455 S
Co5 N21 2.282 1_455 S
Co5 N27 2.282 . S
N6 Co5 1.995 . S
N6 C7 1.376 . S
N6 C10 1.383 . S
C7 N6 1.376 . S
C7 C8 1.446 . S
C7 C37 1.391 . S
C8 C7 1.446 . S
C8 C9 1.339 . S
C8 H43 0.949 . S
C9 C8 1.339 . S
C9 C10 1.439 . S
C9 H44 0.950 . S
C10 N6 1.383 . S
C10 C9 1.439 . S
C10 C39 1.392 . S
N11 Co5 2.008 . S
N11 C12 1.376 . S
N11 C15 1.374 . S
C12 N11 1.376 . S
C12 C13 1.443 . S
C12 C39 1.389 . S
C13 C12 1.443 . S
C13 C14 1.340 . S
C13 H45 0.951 . S
C14 C13 1.340 . S
C14 C15 1.439 . S
C14 H46 0.950 . S
C15 N11 1.374 . S
C15 C14 1.439 . S
C15 C40 1.395 1_455 S
N16 Co5 1.995 1_655 S
N16 C17 1.376 . S
N16 C20 1.383 . S
C17 N16 1.376 . S
C17 C18 1.446 . S
C17 C40 1.391 . S
C18 C17 1.446 . S
C18 C19 1.339 . S
C18 H47 0.949 . S
C19 C18 1.339 . S
C19 C20 1.439 . S
C19 H48 0.950 . S
C20 N16 1.383 . S
C20 C19 1.439 . S
C20 C38 1.392 . S
N21 Co5 2.282 1_655 S
N21 C24 1.332 . S
N21 C26 1.332 . S
C22 C23 1.386 . S
C22 C25 1.388 . S
C23 C22 1.386 . S
C23 C24 1.382 . S
C23 H49 0.950 . S
C24 N21 1.332 . S
C24 C23 1.382 . S
C24 H35 0.952 . S
C25 C22 1.388 . S
C25 C26 1.382 . S
C25 H50 0.950 . S
C26 N21 1.332 . S
C26 C25 1.382 . S
C26 H36 0.948 . S
N27 Co5 2.282 . S
N27 C31 1.332 . S
N27 C32 1.332 . S
C28 C29 1.388 . S
C28 C32 1.382 . S
C28 H51 0.950 . S
C29 C28 1.388 . S
C29 C30 1.386 . S
C30 C29 1.386 . S
C30 C31 1.382 . S
C30 H52 0.950 . S
C31 N27 1.332 . S
C31 C30 1.382 . S
C31 H33 0.952 . S
C32 N27 1.332 . S
C32 C28 1.382 . S
C32 H34 0.948 . S
H33 C31 0.952 . S
H34 C32 0.948 . S
H35 C24 0.952 . S
H36 C26 0.948 . S
C37 C3 1.395 . S
C37 C7 1.391 . S
C38 C0 1.389 . S
C38 C20 1.392 . S
C39 C10 1.392 . S
C39 C12 1.389 . S
C40 C15 1.395 1_655 S
C40 C17 1.391 . S
H41 C1 0.951 . S
H42 C2 0.950 . S
H43 C8 0.949 . S
H44 C9 0.950 . S
H45 C13 0.951 . S
H46 C14 0.950 . S
H47 C18 0.949 . S
H48 C19 0.950 . S
H49 C23 0.950 . S
H50 C25 0.950 . S
H51 C28 0.950 . S
H52 C30 0.950 . S
C53 C54 1.443 . S
C53 N57 1.376 . S
C53 C91 1.389 . S
C54 C53 1.443 . S
C54 C55 1.340 . S
C54 H94 0.951 . S
C55 C54 1.340 . S
C55 C56 1.439 . S
C55 H95 0.950 . S
C56 C55 1.439 . S
C56 N57 1.374 . S
C56 C90 1.395 . S
N57 C53 1.376 . S
N57 C56 1.374 . S
N57 Co58 2.008 . S
Co58 N57 2.008 . S
Co58 N59 1.995 . S
Co58 N64 2.008 . S
Co58 N69 1.995 . S
Co58 N74 2.282 . S
Co58 N80 2.282 . S
N59 Co58 1.995 . S
N59 C60 1.376 . S
N59 C63 1.383 . S
C60 N59 1.376 . S
C60 C61 1.446 . S
C60 C90 1.391 . S
C61 C60 1.446 . S
C61 C62 1.339 . S
C61 H96 0.949 . S
C62 C61 1.339 . S
C62 C63 1.439 . S
C62 H97 0.950 . S
C63 N59 1.383 . S
C63 C62 1.439 . S
C63 C92 1.392 . S
N64 Co58 2.008 . S
N64 C65 1.376 . S
N64 C68 1.374 . S
C65 N64 1.376 . S
C65 C66 1.443 . S
C65 C92 1.389 . S
C66 C65 1.443 . S
C66 C67 1.340 . S
C66 H98 0.951 . S
C67 C66 1.340 . S
C67 C68 1.439 . S
C67 H99 0.950 . S
C68 N64 1.374 . S
C68 C67 1.439 . S
C68 C93 1.395 . S
N69 Co58 1.995 . S
N69 C70 1.376 . S
N69 C73 1.383 . S
C70 N69 1.376 . S
C70 C71 1.446 . S
C70 C93 1.391 . S
C71 C70 1.446 . S
C71 C72 1.339 . S
C71 H100 0.949 . S
C72 C71 1.339 . S
C72 C73 1.439 . S
C72 H101 0.950 . S
C73 N69 1.383 . S
C73 C72 1.439 . S
C73 C91 1.392 . S
N74 Co58 2.282 . S
N74 C77 1.332 . S
N74 C79 1.332 . S
C75 C76 1.386 . S
C75 C78 1.388 . S
C76 C75 1.386 . S
C76 C77 1.382 . S
C76 H102 0.950 . S
C77 N74 1.332 . S
C77 C76 1.382 . S
C77 H88 0.952 . S
C78 C75 1.388 . S
C78 C79 1.382 . S
C78 H103 0.950 . S
C79 N74 1.332 . S
C79 C78 1.382 . S
C79 H89 0.948 . S
N80 Co58 2.282 . S
N80 C84 1.332 . S
N80 C85 1.332 . S
C81 C82 1.388 . S
C81 C85 1.382 . S
C81 H104 0.950 . S
C82 C81 1.388 . S
C82 C83 1.386 . S
C83 C82 1.386 . S
C83 C84 1.382 . S
C83 H105 0.950 . S
C84 N80 1.332 . S
C84 C83 1.382 . S
C84 H86 0.952 . S
C85 N80 1.332 . S
C85 C81 1.382 . S
C85 H87 0.948 . S
H86 C84 0.952 . S
H87 C85 0.948 . S
H88 C77 0.952 . S
H89 C79 0.948 . S
C90 C56 1.395 . S
C90 C60 1.391 . S
C91 C53 1.389 . S
C91 C73 1.392 . S
C92 C63 1.392 . S
C92 C65 1.389 . S
C93 C68 1.395 . S
C93 C70 1.391 . S
H94 C54 0.951 . S
H95 C55 0.950 . S
H96 C61 0.949 . S
H97 C62 0.950 . S
H98 C66 0.951 . S
H99 C67 0.950 . S
H100 C71 0.949 . S
H101 C72 0.950 . S
H102 C76 0.950 . S
H103 C78 0.950 . S
H104 C81 0.950 . S
H105 C83 0.950 . S
C106 C107 1.443 . S
C106 N110 1.375 1_565 S
C106 C144 1.389 . S
C107 C106 1.443 . S
C107 C108 1.340 1_565 S
C107 H147 0.951 . S
C108 C107 1.340 1_545 S
C108 C109 1.439 . S
C108 H148 0.950 . S
C109 C108 1.439 . S
C109 N110 1.362 . S
C109 C143 1.395 . S
N110 C106 1.375 1_545 S
N110 C109 1.362 . S
N110 Co111 2.024 . S
Co111 N110 2.024 . S
Co111 N112 1.995 . S
Co111 N117 2.008 . S
Co111 N122 1.995 1_545 S
Co111 N127 2.282 1_545 S
Co111 N133 2.282 . S
N112 Co111 1.995 . S
N112 C113 1.376 . S
N112 C116 1.383 . S
C113 N112 1.376 . S
C113 C114 1.446 . S
C113 C143 1.391 . S
C114 C113 1.446 . S
C114 C115 1.339 . S
C114 H149 0.949 . S
C115 C114 1.339 . S
C115 C116 1.439 . S
C115 H150 0.950 . S
C116 N112 1.383 . S
C116 C115 1.439 . S
C116 C145 1.392 . S
N117 Co111 2.008 . S
N117 C118 1.376 . S
N117 C121 1.374 . S
C118 N117 1.376 . S
C118 C119 1.443 . S
C118 C145 1.389 . S
C119 C118 1.443 . S
C119 C120 1.340 . S
C119 H151 0.951 . S
C120 C119 1.340 . S
C120 C121 1.439 . S
C120 H152 0.950 . S
C121 N117 1.374 . S
C121 C120 1.439 . S
C121 C146 1.395 1_545 S
N122 Co111 1.995 1_565 S
N122 C123 1.376 . S
N122 C126 1.383 . S
C123 N122 1.376 . S
C123 C124 1.446 . S
C123 C146 1.391 . S
C124 C123 1.446 . S
C124 C125 1.339 . S
C124 H153 0.949 . S
C125 C124 1.339 . S
C125 C126 1.439 . S
C125 H154 0.950 . S
C126 N122 1.383 . S
C126 C125 1.439 . S
C126 C144 1.392 . S
N127 Co111 2.282 1_565 S
N127 C130 1.332 . S
N127 C132 1.332 . S
C128 C129 1.386 . S
C128 C131 1.388 . S
C129 C128 1.386 . S
C129 C130 1.382 . S
C129 H155 0.950 . S
C130 N127 1.332 . S
C130 C129 1.382 . S
C130 H141 0.952 . S
C131 C128 1.388 . S
C131 C132 1.382 . S
C131 H156 0.950 . S
C132 N127 1.332 . S
C132 C131 1.382 . S
C132 H142 0.948 . S
N133 Co111 2.282 . S
N133 C137 1.332 . S
N133 C138 1.332 . S
C134 C135 1.388 . S
C134 C138 1.382 . S
C134 H157 0.950 . S
C135 C134 1.388 . S
C135 C136 1.386 . S
C136 C135 1.386 . S
C136 C137 1.382 . S
C136 H158 0.950 . S
C137 N133 1.332 . S
C137 C136 1.382 . S
C137 H139 0.952 . S
C138 N133 1.332 . S
C138 C134 1.382 . S
C138 H140 0.948 . S
H139 C137 0.952 . S
H140 C138 0.948 . S
H141 C130 0.952 . S
H142 C132 0.948 . S
C143 C109 1.395 . S
C143 C113 1.391 . S
C144 C106 1.389 . S
C144 C126 1.392 . S
C145 C116 1.392 . S
C145 C118 1.389 . S
C146 C121 1.395 1_565 S
C146 C123 1.391 . S
H147 C107 0.951 . S
H148 C108 0.950 . S
H149 C114 0.949 . S
H150 C115 0.950 . S
H151 C119 0.951 . S
H152 C120 0.950 . S
H153 C124 0.949 . S
H154 C125 0.950 . S
H155 C129 0.950 . S
H156 C131 0.950 . S
H157 C134 0.950 . S
H158 C136 0.950 . S
C159 C160 1.443 . S
C159 N163 1.376 . S
C159 C197 1.389 . S
C160 C159 1.443 . S
C160 C161 1.340 . S
C160 H200 0.951 . S
C161 C160 1.340 . S
C161 C162 1.439 . S
C161 H201 0.950 . S
C162 C161 1.439 . S
C162 N163 1.374 . S
C162 C196 1.395 1_655 S
N163 C159 1.376 . S
N163 C162 1.374 . S
N163 Co164 2.008 1_655 S
Co164 N163 2.008 1_455 S
Co164 N165 1.995 . S
Co164 N170 2.008 . S
Co164 N175 1.995 1_455 S
Co164 N180 2.282 1_455 S
Co164 N186 2.282 . S
N165 Co164 1.995 . S
N165 C166 1.376 . S
N165 C169 1.383 . S
C166 N165 1.376 . S
C166 C167 1.446 . S
C166 C196 1.391 . S
C167 C166 1.446 . S
C167 C168 1.339 . S
C167 H202 0.949 . S
C168 C167 1.339 . S
C168 C169 1.439 . S
C168 H203 0.950 . S
C169 N165 1.383 . S
C169 C168 1.439 . S
C169 C198 1.392 . S
N170 Co164 2.008 . S
N170 C171 1.376 . S
N170 C174 1.374 . S
C171 N170 1.376 . S
C171 C172 1.443 . S
C171 C198 1.389 . S
C172 C171 1.443 . S
C172 C173 1.340 . S
C172 H204 0.951 . S
C173 C172 1.340 . S
C173 C174 1.439 . S
C173 H205 0.950 . S
C174 N170 1.374 . S
C174 C173 1.439 . S
C174 C199 1.395 . S
N175 Co164 1.995 1_655 S
N175 C176 1.376 . S
N175 C179 1.383 . S
C176 N175 1.376 . S
C176 C177 1.446 . S
C176 C199 1.391 1_655 S
C177 C176 1.446 . S
C177 C178 1.339 . S
C177 H206 0.949 . S
C178 C177 1.339 . S
C178 C179 1.439 . S
C178 H207 0.950 . S
C179 N175 1.383 . S
C179 C178 1.439 . S
C179 C197 1.392 . S
N180 Co164 2.282 1_655 S
N180 C183 1.332 . S
N180 C185 1.332 . S
C181 C182 1.386 . S
C181 C184 1.388 . S
C182 C181 1.386 . S
C182 C183 1.382 . S
C182 H208 0.950 . S
C183 N180 1.332 . S
C183 C182 1.382 . S
C183 H194 0.952 . S
C184 C181 1.388 . S
C184 C185 1.382 . S
C184 H209 0.950 . S
C185 N180 1.332 . S
C185 C184 1.382 . S
C185 H195 0.933 1_655 S
N186 Co164 2.282 . S
N186 C190 1.332 . S
N186 C191 1.332 . S
C187 C188 1.388 . S
C187 C191 1.382 . S
C187 H210 0.950 . S
C188 C187 1.388 . S
C188 C189 1.386 . S
C189 C188 1.386 . S
C189 C190 1.382 . S
C189 H211 0.950 . S
C190 N186 1.332 . S
C190 C189 1.382 . S
C190 H192 0.952 . S
C191 N186 1.332 . S
C191 C187 1.382 . S
C191 H193 0.948 . S
H192 C190 0.952 . S
H193 C191 0.948 . S
H194 C183 0.952 . S
H195 C185 0.933 1_455 S
C196 C162 1.395 1_455 S
C196 C166 1.391 . S
C197 C159 1.389 . S
C197 C179 1.392 . S
C198 C169 1.392 . S
C198 C171 1.389 . S
C199 C174 1.395 . S
C199 C176 1.391 1_455 S
H200 C160 0.951 . S
H201 C161 0.950 . S
H202 C167 0.949 . S
H203 C168 0.950 . S
H204 C172 0.951 . S
H205 C173 0.950 . S
H206 C177 0.949 . S
H207 C178 0.950 . S
H208 C182 0.950 . S
H209 C184 0.950 . S
H210 C187 0.950 . S
H211 C189 0.950 . S
C212 C213 1.443 . S
C212 N216 1.376 . S
C212 C250 1.389 . S
C213 C212 1.443 . S
C213 C214 1.340 . S
C213 H253 0.951 . S
C214 C213 1.340 . S
C214 C215 1.439 . S
C214 H254 0.950 . S
C215 C214 1.439 . S
C215 N216 1.374 . S
C215 C249 1.395 . S
N216 C212 1.376 . S
N216 C215 1.374 . S
N216 Co217 2.008 . S
Co217 N216 2.008 . S
Co217 N218 1.995 . S
Co217 N223 2.008 . S
Co217 N228 1.995 . S
Co217 N233 2.282 . S
Co217 N239 2.282 . S
N218 Co217 1.995 . S
N218 C219 1.376 . S
N218 C222 1.383 . S
C219 N218 1.376 . S
C219 C220 1.446 . S
C219 C249 1.391 . S
C220 C219 1.446 . S
C220 C221 1.339 . S
C220 H255 0.949 . S
C221 C220 1.339 . S
C221 C222 1.439 . S
C221 H256 0.950 . S
C222 N218 1.383 . S
C222 C221 1.439 . S
C222 C251 1.392 . S
N223 Co217 2.008 . S
N223 C224 1.376 . S
N223 C227 1.374 . S
C224 N223 1.376 . S
C224 C225 1.443 . S
C224 C251 1.389 . S
C225 C224 1.443 . S
C225 C226 1.340 . S
C225 H257 0.951 . S
C226 C225 1.340 . S
C226 C227 1.439 . S
C226 H258 0.950 . S
C227 N223 1.374 . S
C227 C226 1.439 . S
C227 C252 1.395 . S
N228 Co217 1.995 . S
N228 C229 1.376 . S
N228 C232 1.383 . S
C229 N228 1.376 . S
C229 C230 1.446 . S
C229 C252 1.391 . S
C230 C229 1.446 . S
C230 C231 1.339 . S
C230 H259 0.949 . S
C231 C230 1.339 . S
C231 C232 1.439 . S
C231 H260 0.950 . S
C232 N228 1.383 . S
C232 C231 1.439 . S
C232 C250 1.392 . S
N233 Co217 2.282 . S
N233 C236 1.332 . S
N233 C238 1.332 . S
C234 C235 1.386 . S
C234 C237 1.388 . S
C235 C234 1.386 . S
C235 C236 1.382 . S
C235 H261 0.950 . S
C236 N233 1.332 . S
C236 C235 1.382 . S
C236 H247 0.952 . S
C237 C234 1.388 . S
C237 C238 1.382 . S
C237 H262 0.950 . S
C238 N233 1.332 . S
C238 C237 1.382 . S
C238 H248 0.948 . S
N239 Co217 2.282 . S
N239 C243 1.332 . S
N239 C244 1.332 . S
C240 C241 1.388 . S
C240 C244 1.382 . S
C240 H263 0.950 . S
C241 C240 1.388 . S
C241 C242 1.386 . S
C242 C241 1.386 . S
C242 C243 1.382 . S
C242 H264 0.950 . S
C243 N239 1.332 . S
C243 C242 1.382 . S
C243 H245 0.952 . S
C244 N239 1.332 . S
C244 C240 1.382 . S
C244 H246 0.948 . S
H245 C243 0.952 . S
H246 C244 0.948 . S
H247 C236 0.952 . S
H248 C238 0.948 . S
C249 C215 1.395 . S
C249 C219 1.391 . S
C250 C212 1.389 . S
C250 C232 1.392 . S
C251 C222 1.392 . S
C251 C224 1.389 . S
C252 C227 1.395 . S
C252 C229 1.391 . S
H253 C213 0.951 . S
H254 C214 0.950 . S
H255 C220 0.949 . S
H256 C221 0.950 . S
H257 C225 0.951 . S
H258 C226 0.950 . S
H259 C230 0.949 . S
H260 C231 0.950 . S
H261 C235 0.950 . S
H262 C237 0.950 . S
H263 C240 0.950 . S
H264 C242 0.950 . S
C265 C266 1.443 . S
C265 N269 1.376 . S
C265 C303 1.389 . S
C266 C265 1.443 . S
C266 C267 1.340 . S
C266 H306 0.951 . S
C267 C266 1.340 . S
C267 C268 1.439 . S
C267 H307 0.950 . S
C268 C267 1.439 . S
C268 N269 1.374 . S
C268 C302 1.395 1_565 S
N269 C265 1.376 . S
N269 C268 1.374 . S
N269 Co270 2.008 1_565 S
Co270 N269 2.008 1_545 S
Co270 N271 1.995 . S
Co270 N276 2.008 . S
Co270 N281 1.995 1_545 S
Co270 N286 2.282 1_545 S
Co270 N292 2.282 . S
N271 Co270 1.995 . S
N271 C272 1.376 . S
N271 C275 1.383 . S
C272 N271 1.376 . S
C272 C273 1.446 . S
C272 C302 1.391 . S
C273 C272 1.446 . S
C273 C274 1.339 . S
C273 H308 0.949 . S
C274 C273 1.339 . S
C274 C275 1.439 . S
C274 H309 0.950 . S
C275 N271 1.383 . S
C275 C274 1.439 . S
C275 C304 1.392 . S
N276 Co270 2.008 . S
N276 C277 1.376 . S
N276 C280 1.374 . S
C277 N276 1.376 . S
C277 C278 1.443 . S
C277 C304 1.389 . S
C278 C277 1.443 . S
C278 C279 1.340 . S
C278 H310 0.951 . S
C279 C278 1.340 . S
C279 C280 1.439 . S
C279 H311 0.950 . S
C280 N276 1.374 . S
C280 C279 1.439 . S
C280 C305 1.395 . S
N281 Co270 1.995 1_565 S
N281 C282 1.376 . S
N281 C285 1.383 . S
C282 N281 1.376 . S
C282 C283 1.446 . S
C282 C305 1.391 1_565 S
C283 C282 1.446 . S
C283 C284 1.339 . S
C283 H312 0.949 . S
C284 C283 1.339 . S
C284 C285 1.439 . S
C284 H313 0.950 . S
C285 N281 1.383 . S
C285 C284 1.439 . S
C285 C303 1.392 . S
N286 Co270 2.282 1_565 S
N286 C289 1.332 . S
N286 C291 1.332 . S
C287 C288 1.386 . S
C287 C290 1.388 . S
C288 C287 1.386 . S
C288 C289 1.382 . S
C288 H314 0.950 . S
C289 N286 1.332 . S
C289 C288 1.382 . S
C289 H300 0.952 . S
C290 C287 1.388 . S
C290 C291 1.382 . S
C290 H315 0.950 . S
C291 N286 1.332 . S
C291 C290 1.382 . S
C291 H301 0.933 1_565 S
N292 Co270 2.282 . S
N292 C296 1.332 . S
N292 C297 1.332 . S
C293 C294 1.388 . S
C293 C297 1.382 . S
C293 H316 0.950 . S
C294 C293 1.388 . S
C294 C295 1.386 . S
C295 C294 1.386 . S
C295 C296 1.382 . S
C295 H317 0.950 . S
C296 N292 1.332 . S
C296 C295 1.382 . S
C296 H298 0.952 . S
C297 N292 1.332 . S
C297 C293 1.382 . S
C297 H299 0.948 . S
H298 C296 0.952 . S
H299 C297 0.948 . S
H300 C289 0.952 . S
H301 C291 0.933 1_545 S
C302 C268 1.395 1_545 S
C302 C272 1.391 . S
C303 C265 1.389 . S
C303 C285 1.392 . S
C304 C275 1.392 . S
C304 C277 1.389 . S
C305 C280 1.395 . S
C305 C282 1.391 1_545 S
H306 C266 0.951 . S
H307 C267 0.950 . S
H308 C273 0.949 . S
H309 C274 0.950 . S
H310 C278 0.951 . S
H311 C279 0.950 . S
H312 C283 0.949 . S
H313 C284 0.950 . S
H314 C288 0.950 . S
H315 C290 0.950 . S
H316 C293 0.950 . S
H317 C295 0.950 . S
C318 C319 1.443 . S
C318 N322 1.376 . S
C318 C356 1.389 . S
C319 C318 1.443 . S
C319 C320 1.340 . S
C319 H359 0.951 . S
C320 C319 1.340 . S
C320 C321 1.439 . S
C320 H360 0.950 . S
C321 C320 1.439 . S
C321 N322 1.374 . S
C321 C355 1.395 . S
N322 C318 1.376 . S
N322 C321 1.374 . S
N322 Co323 2.008 . S
Co323 N322 2.008 . S
Co323 N324 1.995 . S
Co323 N329 2.008 . S
Co323 N334 1.995 . S
Co323 N339 2.282 . S
Co323 N345 2.282 . S
N324 Co323 1.995 . S
N324 C325 1.376 . S
N324 C328 1.383 . S
C325 N324 1.376 . S
C325 C326 1.446 . S
C325 C355 1.391 . S
C326 C325 1.446 . S
C326 C327 1.339 . S
C326 H361 0.949 . S
C327 C326 1.339 . S
C327 C328 1.439 . S
C327 H362 0.950 . S
C328 N324 1.383 . S
C328 C327 1.439 . S
C328 C357 1.392 . S
N329 Co323 2.008 . S
N329 C330 1.376 . S
N329 C333 1.374 1_545 S
C330 N329 1.376 . S
C330 C331 1.443 . S
C330 C357 1.389 . S
C331 C330 1.443 . S
C331 C332 1.340 1_545 S
C331 H363 0.951 . S
C332 C331 1.340 1_565 S
C332 C333 1.439 . S
C332 H364 0.950 . S
C333 N329 1.374 1_565 S
C333 C332 1.439 . S
C333 C358 1.395 . S
N334 Co323 1.995 . S
N334 C335 1.376 1_545 S
N334 C338 1.383 . S
C335 N334 1.376 1_565 S
C335 C336 1.446 . S
C335 C358 1.391 . S
C336 C335 1.446 . S
C336 C337 1.339 . S
C336 H365 0.949 . S
C337 C336 1.339 . S
C337 C338 1.439 1_565 S
C337 H366 0.950 . S
C338 N334 1.383 . S
C338 C337 1.439 1_545 S
C338 C356 1.392 . S
N339 Co323 2.282 . S
N339 C342 1.332 1_545 S
N339 C344 1.332 . S
C340 C341 1.386 . S
C340 C343 1.388 1_565 S
C341 C340 1.386 . S
C341 C342 1.382 . S
C341 H367 0.950 . S
C342 N339 1.332 1_565 S
C342 C341 1.382 . S
C342 H353 0.952 . S
C343 C340 1.388 1_545 S
C343 C344 1.382 . S
C343 H368 0.950 . S
C344 N339 1.332 . S
C344 C343 1.382 . S
C344 H354 0.948 . S
N345 Co323 2.282 . S
N345 C349 1.332 . S
N345 C350 1.332 . S
C346 C347 1.388 . S
C346 C350 1.382 . S
C346 H369 0.950 . S
C347 C346 1.388 . S
C347 C348 1.386 . S
C348 C347 1.386 . S
C348 C349 1.382 . S
C348 H370 0.950 . S
C349 N345 1.332 . S
C349 C348 1.382 . S
C349 H351 0.952 . S
C350 N345 1.332 . S
C350 C346 1.382 . S
C350 H352 0.948 . S
H351 C349 0.952 . S
H352 C350 0.948 . S
H353 C342 0.952 . S
H354 C344 0.948 . S
C355 C321 1.395 . S
C355 C325 1.391 . S
C356 C318 1.389 . S
C356 C338 1.392 . S
C357 C328 1.392 . S
C357 C330 1.389 . S
C358 C333 1.395 . S
C358 C335 1.391 . S
H359 C319 0.951 . S
H360 C320 0.950 . S
H361 C326 0.949 . S
H362 C327 0.950 . S
H363 C331 0.951 . S
H364 C332 0.950 . S
H365 C336 0.949 . S
H366 C337 0.950 . S
H367 C341 0.950 . S
H368 C343 0.950 . S
H369 C346 0.950 . S
H370 C348 0.950 . S
C371 C372 1.443 . S
C371 N375 1.376 . S
C371 C409 1.389 . S
C372 C371 1.443 . S
C372 C373 1.340 . S
C372 H412 0.951 . S
C373 C372 1.340 . S
C373 C374 1.439 . S
C373 H413 0.950 . S
C374 C373 1.439 . S
C374 N375 1.374 . S
C374 C408 1.395 . S
N375 C371 1.376 . S
N375 C374 1.374 . S
N375 Co376 2.008 . S
Co376 N375 2.008 . S
Co376 N377 1.995 . S
Co376 N382 2.008 . S
Co376 N387 1.995 . S
Co376 N392 2.282 . S
Co376 N398 2.282 . S
N377 Co376 1.995 . S
N377 C378 1.376 . S
N377 C381 1.383 . S
C378 N377 1.376 . S
C378 C379 1.446 . S
C378 C408 1.391 . S
C379 C378 1.446 . S
C379 C380 1.339 . S
C379 H414 0.949 . S
C380 C379 1.339 . S
C380 C381 1.439 . S
C380 H415 0.950 . S
C381 N377 1.383 . S
C381 C380 1.439 . S
C381 C410 1.392 . S
N382 Co376 2.008 . S
N382 C383 1.376 . S
N382 C386 1.374 1_655 S
C383 N382 1.376 . S
C383 C384 1.443 1_655 S
C383 C410 1.389 . S
C384 C383 1.443 1_455 S
C384 C385 1.340 . S
C384 H416 0.951 . S
C385 C384 1.340 . S
C385 C386 1.439 . S
C385 H417 0.950 . S
C386 N382 1.374 1_455 S
C386 C385 1.439 . S
C386 C411 1.395 . S
N387 Co376 1.995 . S
N387 C388 1.376 1_655 S
N387 C391 1.383 . S
C388 N387 1.376 1_455 S
C388 C389 1.446 . S
C388 C411 1.391 . S
C389 C388 1.446 . S
C389 C390 1.339 . S
C389 H418 0.949 . S
C390 C389 1.339 . S
C390 C391 1.439 1_455 S
C390 H419 0.950 . S
C391 N387 1.383 . S
C391 C390 1.439 1_655 S
C391 C409 1.392 . S
N392 Co376 2.282 . S
N392 C395 1.332 . S
N392 C397 1.332 . S
C393 C394 1.386 . S
C393 C396 1.388 . S
C394 C393 1.386 . S
C394 C395 1.382 . S
C394 H420 0.950 . S
C395 N392 1.332 . S
C395 C394 1.382 . S
C395 H406 0.952 . S
C396 C393 1.388 . S
C396 C397 1.382 . S
C396 H421 0.950 . S
C397 N392 1.332 . S
C397 C396 1.382 . S
C397 H407 0.948 . S
N398 Co376 2.282 . S
N398 C402 1.332 . S
N398 C403 1.332 1_655 S
C399 C400 1.388 . S
C399 C403 1.382 . S
C399 H422 0.950 . S
C400 C399 1.388 . S
C400 C401 1.386 1_455 S
C401 C400 1.386 1_655 S
C401 C402 1.382 . S
C401 H423 0.950 . S
C402 N398 1.332 . S
C402 C401 1.382 . S
C402 H404 0.952 . S
C403 N398 1.332 1_455 S
C403 C399 1.382 . S
C403 H405 0.948 . S
H404 C402 0.952 . S
H405 C403 0.948 . S
H406 C395 0.952 . S
H407 C397 0.948 . S
C408 C374 1.395 . S
C408 C378 1.391 . S
C409 C371 1.389 . S
C409 C391 1.392 . S
C410 C381 1.392 . S
C410 C383 1.389 . S
C411 C386 1.395 . S
C411 C388 1.391 . S
H412 C372 0.951 . S
H413 C373 0.950 . S
H414 C379 0.949 . S
H415 C380 0.950 . S
H416 C384 0.951 . S
H417 C385 0.950 . S
H418 C389 0.949 . S
H419 C390 0.950 . S
H420 C394 0.950 . S
H421 C396 0.950 . S
H422 C399 0.950 . S
H423 C401 0.950 . S
C424 C425 1.443 . S
C424 N428 1.376 . S
C424 C462 1.389 . S
C425 C424 1.443 . S
C425 C426 1.340 . S
C425 H465 0.951 . S
C426 C425 1.340 . S
C426 C427 1.439 . S
C426 H466 0.950 . S
C427 C426 1.439 . S
C427 N428 1.374 . S
C427 C461 1.395 . S
N428 C424 1.376 . S
N428 C427 1.374 . S
N428 Co429 2.008 . S
Co429 N428 2.008 . S
Co429 N430 1.995 . S
Co429 N435 2.008 . S
Co429 N440 1.995 . S
Co429 N445 2.282 . S
Co429 N451 2.282 . S
N430 Co429 1.995 . S
N430 C431 1.376 . S
N430 C434 1.383 . S
C431 N430 1.376 . S
C431 C432 1.446 . S
C431 C461 1.391 . S
C432 C431 1.446 . S
C432 C433 1.339 . S
C432 H467 0.949 . S
C433 C432 1.339 . S
C433 C434 1.439 . S
C433 H468 0.950 . S
C434 N430 1.383 . S
C434 C433 1.439 . S
C434 C463 1.392 . S
N435 Co429 2.008 . S
N435 C436 1.376 . S
N435 C439 1.374 . S
C436 N435 1.376 . S
C436 C437 1.443 . S
C436 C463 1.389 . S
C437 C436 1.443 . S
C437 C438 1.340 . S
C437 H469 0.951 . S
C438 C437 1.340 . S
C438 C439 1.439 . S
C438 H470 0.950 . S
C439 N435 1.374 . S
C439 C438 1.439 . S
C439 C464 1.395 . S
N440 Co429 1.995 . S
N440 C441 1.376 . S
N440 C444 1.383 . S
C441 N440 1.376 . S
C441 C442 1.446 . S
C441 C464 1.391 . S
C442 C441 1.446 . S
C442 C443 1.339 . S
C442 H471 0.949 . S
C443 C442 1.339 . S
C443 C444 1.439 . S
C443 H472 0.950 . S
C444 N440 1.383 . S
C444 C443 1.439 . S
C444 C462 1.392 . S
N445 Co429 2.282 . S
N445 C448 1.332 . S
N445 C450 1.332 . S
C446 C447 1.386 . S
C446 C449 1.388 . S
C447 C446 1.386 . S
C447 C448 1.382 . S
C447 H473 0.950 . S
C448 N445 1.332 . S
C448 C447 1.382 . S
C448 H459 0.952 . S
C449 C446 1.388 . S
C449 C450 1.382 . S
C449 H474 0.950 . S
C450 N445 1.332 . S
C450 C449 1.382 . S
C450 H460 0.948 . S
N451 Co429 2.282 . S
N451 C455 1.332 . S
N451 C456 1.332 . S
C452 C453 1.388 . S
C452 C456 1.382 . S
C452 H475 0.950 . S
C453 C452 1.388 . S
C453 C454 1.386 . S
C454 C453 1.386 . S
C454 C455 1.382 . S
C454 H476 0.950 . S
C455 N451 1.332 . S
C455 C454 1.382 . S
C455 H457 0.952 . S
C456 N451 1.332 . S
C456 C452 1.382 . S
C456 H458 0.948 . S
H457 C455 0.952 . S
H458 C456 0.948 . S
H459 C448 0.952 . S
H460 C450 0.948 . S
C461 C427 1.395 . S
C461 C431 1.391 . S
C462 C424 1.389 . S
C462 C444 1.392 . S
C463 C434 1.392 . S
C463 C436 1.389 . S
C464 C439 1.395 . S
C464 C441 1.391 . S
H465 C425 0.951 . S
H466 C426 0.950 . S
H467 C432 0.949 . S
H468 C433 0.950 . S
H469 C437 0.951 . S
H470 C438 0.950 . S
H471 C442 0.949 . S
H472 C443 0.950 . S
H473 C447 0.950 . S
H474 C449 0.950 . S
H475 C452 0.950 . S
H476 C454 0.950 . S
C477 C478 1.443 . S
C477 N481 1.376 . S
C477 C515 1.389 . S
C478 C477 1.443 . S
C478 C479 1.340 . S
C478 H518 0.951 . S
C479 C478 1.340 . S
C479 C480 1.439 . S
C479 H519 0.950 . S
C480 C479 1.439 . S
C480 N481 1.374 . S
C480 C514 1.395 . S
N481 C477 1.376 . S
N481 C480 1.374 . S
N481 Co482 2.008 . S
Co482 N481 2.008 . S
Co482 N483 1.995 . S
Co482 N488 2.008 . S
Co482 N493 1.995 . S
Co482 N498 2.282 . S
Co482 N504 2.282 . S
N483 Co482 1.995 . S
N483 C484 1.376 . S
N483 C487 1.383 . S
C484 N483 1.376 . S
C484 C485 1.446 . S
C484 C514 1.391 . S
C485 C484 1.446 . S
C485 C486 1.339 . S
C485 H520 0.949 . S
C486 C485 1.339 . S
C486 C487 1.439 . S
C486 H521 0.950 . S
C487 N483 1.383 . S
C487 C486 1.439 . S
C487 C516 1.392 . S
N488 Co482 2.008 . S
N488 C489 1.376 . S
N488 C492 1.374 . S
C489 N488 1.376 . S
C489 C490 1.443 . S
C489 C516 1.389 . S
C490 C489 1.443 . S
C490 C491 1.340 . S
C490 H522 0.951 . S
C491 C490 1.340 . S
C491 C492 1.439 . S
C491 H523 0.950 . S
C492 N488 1.374 . S
C492 C491 1.439 . S
C492 C517 1.395 . S
N493 Co482 1.995 . S
N493 C494 1.376 . S
N493 C497 1.383 . S
C494 N493 1.376 . S
C494 C495 1.446 . S
C494 C517 1.391 . S
C495 C494 1.446 . S
C495 C496 1.339 . S
C495 H524 0.949 . S
C496 C495 1.339 . S
C496 C497 1.439 . S
C496 H525 0.950 . S
C497 N493 1.383 . S
C497 C496 1.439 . S
C497 C515 1.392 . S
N498 Co482 2.282 . S
N498 C501 1.332 . S
N498 C503 1.332 . S
C499 C500 1.386 . S
C499 C502 1.388 . S
C500 C499 1.386 . S
C500 C501 1.382 1_556 S
C500 H526 0.950 . S
C501 N498 1.332 . S
C501 C500 1.382 1_554 S
C501 H512 0.952 . S
C502 C499 1.388 . S
C502 C503 1.382 1_556 S
C502 H527 0.950 . S
C503 N498 1.332 . S
C503 C502 1.382 1_554 S
C503 H513 0.948 . S
N504 Co482 2.282 . S
N504 C508 1.332 . S
N504 C509 1.332 . S
C505 C506 1.388 . S
C505 C509 1.382 . S
C505 H528 0.950 . S
C506 C505 1.388 . S
C506 C507 1.386 . S
C507 C506 1.386 . S
C507 C508 1.382 . S
C507 H529 0.950 . S
C508 N504 1.332 . S
C508 C507 1.382 . S
C508 H510 0.952 . S
C509 N504 1.332 . S
C509 C505 1.382 . S
C509 H511 0.948 . S
H510 C508 0.952 . S
H511 C509 0.948 . S
H512 C501 0.952 . S
H513 C503 0.948 . S
C514 C480 1.395 . S
C514 C484 1.391 . S
C515 C477 1.389 . S
C515 C497 1.392 . S
C516 C487 1.392 . S
C516 C489 1.389 . S
C517 C492 1.395 . S
C517 C494 1.391 . S
H518 C478 0.951 . S
H519 C479 0.950 . S
H520 C485 0.949 . S
H521 C486 0.950 . S
H522 C490 0.951 . S
H523 C491 0.950 . S
H524 C495 0.949 . S
H525 C496 0.950 . S
H526 C500 0.950 . S
H527 C502 0.950 . S
H528 C505 0.950 . S
H529 C507 0.950 . S
C530 C531 1.443 . S
C530 N534 1.376 . S
C530 C568 1.389 . S
C531 C530 1.443 . S
C531 C532 1.340 . S
C531 H571 0.951 . S
C532 C531 1.340 . S
C532 C533 1.439 . S
C532 H572 0.950 . S
C533 C532 1.439 . S
C533 N534 1.374 . S
C533 C567 1.395 . S
N534 C530 1.376 . S
N534 C533 1.374 . S
N534 Co535 2.008 . S
Co535 N534 2.008 . S
Co535 N536 1.995 . S
Co535 N541 2.008 . S
Co535 N546 1.995 . S
Co535 N551 2.282 . S
Co535 N557 2.282 . S
N536 Co535 1.995 . S
N536 C537 1.376 . S
N536 C540 1.383 . S
C537 N536 1.376 . S
C537 C538 1.446 . S
C537 C567 1.391 . S
C538 C537 1.446 . S
C538 C539 1.339 . S
C538 H573 0.949 . S
C539 C538 1.339 . S
C539 C540 1.439 . S
C539 H574 0.950 . S
C540 N536 1.383 . S
C540 C539 1.439 . S
C540 C569 1.392 . S
N541 Co535 2.008 . S
N541 C542 1.376 . S
N541 C545 1.374 . S
C542 N541 1.376 . S
C542 C543 1.443 1_545 S
C542 C569 1.389 . S
C543 C542 1.443 1_565 S
C543 C544 1.340 . S
C543 H575 0.951 . S
C544 C543 1.340 . S
C544 C545 1.439 1_565 S
C544 H576 0.950 . S
C545 N541 1.374 . S
C545 C544 1.439 1_545 S
C545 C570 1.395 . S
N546 Co535 1.995 . S
N546 C547 1.376 . S
N546 C550 1.383 . S
C547 N546 1.376 . S
C547 C548 1.446 . S
C547 C570 1.391 . S
C548 C547 1.446 . S
C548 C549 1.339 . S
C548 H577 0.949 . S
C549 C548 1.339 . S
C549 C550 1.439 . S
C549 H578 0.950 . S
C550 N546 1.383 . S
C550 C549 1.439 . S
C550 C568 1.392 . S
N551 Co535 2.282 . S
N551 C554 1.332 . S
N551 C556 1.332 . S
C552 C553 1.386 . S
C552 C555 1.388 . S
C553 C552 1.386 . S
C553 C554 1.382 1_556 S
C553 H579 0.950 . S
C554 N551 1.332 . S
C554 C553 1.382 1_554 S
C554 H565 0.952 . S
C555 C552 1.388 . S
C555 C556 1.382 1_556 S
C555 H580 0.950 . S
C556 N551 1.332 . S
C556 C555 1.382 1_554 S
C556 H566 0.948 . S
N557 Co535 2.282 . S
N557 C561 1.332 . S
N557 C562 1.332 . S
C558 C559 1.388 . S
C558 C562 1.382 . S
C558 H581 0.950 . S
C559 C558 1.388 . S
C559 C560 1.386 . S
C560 C559 1.386 . S
C560 C561 1.382 . S
C560 H582 0.950 . S
C561 N557 1.332 . S
C561 C560 1.382 . S
C561 H563 0.952 . S
C562 N557 1.332 . S
C562 C558 1.382 . S
C562 H564 0.948 . S
H563 C561 0.952 . S
H564 C562 0.948 . S
H565 C554 0.952 . S
H566 C556 0.948 . S
C567 C533 1.395 . S
C567 C537 1.391 . S
C568 C530 1.389 . S
C568 C550 1.392 . S
C569 C540 1.392 . S
C569 C542 1.389 . S
C570 C545 1.395 . S
C570 C547 1.391 . S
H571 C531 0.951 . S
H572 C532 0.950 . S
H573 C538 0.949 . S
H574 C539 0.950 . S
H575 C543 0.951 . S
H576 C544 0.950 . S
H577 C548 0.949 . S
H578 C549 0.950 . S
H579 C553 0.950 . S
H580 C555 0.950 . S
H581 C558 0.950 . S
H582 C560 0.950 . S
C583 C584 1.443 . S
C583 N587 1.376 . S
C583 C621 1.389 . S
C584 C583 1.443 . S
C584 C585 1.340 . S
C584 H624 0.951 . S
C585 C584 1.340 . S
C585 C586 1.439 . S
C585 H625 0.950 . S
C586 C585 1.439 . S
C586 N587 1.374 . S
C586 C620 1.395 . S
N587 C583 1.376 . S
N587 C586 1.374 . S
N587 Co588 2.008 . S
Co588 N587 2.008 . S
Co588 N589 1.995 . S
Co588 N594 2.008 . S
Co588 N599 1.995 . S
Co588 N604 2.282 . S
Co588 N610 2.282 . S
N589 Co588 1.995 . S
N589 C590 1.376 . S
N589 C593 1.383 . S
C590 N589 1.376 . S
C590 C591 1.446 . S
C590 C620 1.391 . S
C591 C590 1.446 . S
C591 C592 1.339 . S
C591 H626 0.949 . S
C592 C591 1.339 . S
C592 C593 1.439 . S
C592 H627 0.950 . S
C593 N589 1.383 . S
C593 C592 1.439 . S
C593 C622 1.392 . S
N594 Co588 2.008 . S
N594 C595 1.376 . S
N594 C598 1.374 1_655 S
C595 N594 1.376 . S
C595 C596 1.443 1_655 S
C595 C622 1.389 . S
C596 C595 1.443 1_455 S
C596 C597 1.340 . S
C596 H628 0.951 . S
C597 C596 1.340 . S
C597 C598 1.439 . S
C597 H629 0.950 . S
C598 N594 1.374 1_455 S
C598 C597 1.439 . S
C598 C623 1.395 . S
N599 Co588 1.995 . S
N599 C600 1.376 . S
N599 C603 1.383 . S
C600 N599 1.376 . S
C600 C601 1.446 . S
C600 C623 1.391 1_655 S
C601 C600 1.446 . S
C601 C602 1.339 . S
C601 H630 0.949 . S
C602 C601 1.339 . S
C602 C603 1.439 . S
C602 H631 0.950 . S
C603 N599 1.383 . S
C603 C602 1.439 . S
C603 C621 1.392 . S
N604 Co588 2.282 . S
N604 C607 1.332 . S
N604 C609 1.332 . S
C605 C606 1.386 . S
C605 C608 1.388 . S
C606 C605 1.386 . S
C606 C607 1.382 1_556 S
C606 H632 0.950 . S
C607 N604 1.332 . S
C607 C606 1.382 1_554 S
C607 H618 0.952 . S
C608 C605 1.388 . S
C608 C609 1.382 1_556 S
C608 H633 0.950 . S
C609 N604 1.332 . S
C609 C608 1.382 1_554 S
C609 H619 0.948 . S
N610 Co588 2.282 . S
N610 C614 1.332 . S
N610 C615 1.332 . S
C611 C612 1.388 . S
C611 C615 1.382 . S
C611 H634 0.950 . S
C612 C611 1.388 . S
C612 C613 1.386 . S
C613 C612 1.386 . S
C613 C614 1.382 . S
C613 H635 0.950 . S
C614 N610 1.332 . S
C614 C613 1.382 . S
C614 H616 0.952 . S
C615 N610 1.332 . S
C615 C611 1.382 . S
C615 H617 0.948 . S
H616 C614 0.952 . S
H617 C615 0.948 . S
H618 C607 0.952 . S
H619 C609 0.948 . S
C620 C586 1.395 . S
C620 C590 1.391 . S
C621 C583 1.389 . S
C621 C603 1.392 . S
C622 C593 1.392 . S
C622 C595 1.389 . S
C623 C598 1.395 . S
C623 C600 1.391 1_455 S
H624 C584 0.951 . S
H625 C585 0.950 . S
H626 C591 0.949 . S
H627 C592 0.950 . S
H628 C596 0.951 . S
H629 C597 0.950 . S
H630 C601 0.949 . S
H631 C602 0.950 . S
H632 C606 0.950 . S
H633 C608 0.950 . S
H634 C611 0.950 . S
H635 C613 0.950 . S
C636 C637 1.452 . S
C636 N640 1.376 . S
C636 C674 1.389 . S
C637 C636 1.452 . S
C637 C638 1.352 . S
C637 H677 0.934 1_556 S
C638 C637 1.352 . S
C638 C639 1.439 . S
C638 H678 0.950 . S
C639 C638 1.439 . S
C639 N640 1.374 . S
C639 C673 1.395 . S
N640 C636 1.376 . S
N640 C639 1.374 . S
N640 Co641 2.008 . S
Co641 N640 2.008 . S
Co641 N642 1.995 . S
Co641 N647 2.008 . S
Co641 N652 1.995 . S
Co641 N657 2.282 . S
Co641 N663 2.282 . S
N642 Co641 1.995 . S
N642 C643 1.376 . S
N642 C646 1.383 . S
C643 N642 1.376 . S
C643 C644 1.446 . S
C643 C673 1.391 . S
C644 C643 1.446 . S
C644 C645 1.339 . S
C644 H679 0.949 . S
C645 C644 1.339 . S
C645 C646 1.439 . S
C645 H680 0.950 . S
C646 N642 1.383 . S
C646 C645 1.439 . S
C646 C675 1.392 . S
N647 Co641 2.008 . S
N647 C648 1.376 . S
N647 C651 1.374 . S
C648 N647 1.376 . S
C648 C649 1.443 . S
C648 C675 1.389 . S
C649 C648 1.443 . S
C649 C650 1.340 . S
C649 H681 0.951 . S
C650 C649 1.340 . S
C650 C651 1.439 . S
C650 H682 0.950 . S
C651 N647 1.374 . S
C651 C650 1.439 . S
C651 C676 1.395 . S
N652 Co641 1.995 . S
N652 C653 1.376 . S
N652 C656 1.383 . S
C653 N652 1.376 . S
C653 C654 1.446 . S
C653 C676 1.391 . S
C654 C653 1.446 . S
C654 C655 1.339 . S
C654 H683 0.949 . S
C655 C654 1.339 . S
C655 C656 1.439 . S
C655 H684 0.950 1_556 S
C656 N652 1.383 . S
C656 C655 1.439 . S
C656 C674 1.392 . S
N657 Co641 2.282 . S
N657 C660 1.332 . S
N657 C662 1.332 . S
C658 C659 1.386 . S
C658 C661 1.388 . S
C659 C658 1.386 . S
C659 C660 1.382 . S
C659 H685 0.950 . S
C660 N657 1.332 . S
C660 C659 1.382 . S
C660 H671 0.952 . S
C661 C658 1.388 . S
C661 C662 1.382 . S
C661 H686 0.950 . S
C662 N657 1.332 . S
C662 C661 1.382 . S
C662 H672 0.948 . S
N663 Co641 2.282 . S
N663 C667 1.332 . S
N663 C668 1.332 . S
C664 C665 1.388 . S
C664 C668 1.382 . S
C664 H687 0.950 . S
C665 C664 1.388 . S
C665 C666 1.386 . S
C666 C665 1.386 . S
C666 C667 1.382 . S
C666 H688 0.950 . S
C667 N663 1.332 . S
C667 C666 1.382 . S
C667 H669 0.952 . S
C668 N663 1.332 . S
C668 C664 1.382 . S
C668 H670 0.948 . S
H669 C667 0.952 . S
H670 C668 0.948 . S
H671 C660 0.952 . S
H672 C662 0.948 . S
C673 C639 1.395 . S
C673 C643 1.391 . S
C674 C636 1.389 . S
C674 C656 1.392 . S
C675 C646 1.392 . S
C675 C648 1.389 . S
C676 C651 1.395 . S
C676 C653 1.391 . S
H677 C637 0.934 1_554 S
H678 C638 0.950 . S
H679 C644 0.949 . S
H680 C645 0.950 . S
H681 C649 0.951 . S
H682 C650 0.950 . S
H683 C654 0.949 . S
H684 C655 0.950 1_554 S
H685 C659 0.950 . S
H686 C661 0.950 . S
H687 C664 0.950 . S
H688 C666 0.950 . S
C689 C690 1.443 . S
C689 N693 1.376 . S
C689 C727 1.389 . S
C690 C689 1.443 . S
C690 C691 1.340 . S
C690 H730 0.951 . S
C691 C690 1.340 . S
C691 C692 1.439 . S
C691 H731 0.950 . S
C692 C691 1.439 . S
C692 N693 1.374 . S
C692 C726 1.395 . S
N693 C689 1.376 . S
N693 C692 1.374 . S
N693 Co694 2.008 . S
Co694 N693 2.008 . S
Co694 N695 1.995 . S
Co694 N700 2.008 . S
Co694 N705 1.995 . S
Co694 N710 2.282 . S
Co694 N716 2.282 . S
N695 Co694 1.995 . S
N695 C696 1.376 . S
N695 C699 1.383 . S
C696 N695 1.376 . S
C696 C697 1.446 . S
C696 C726 1.391 . S
C697 C696 1.446 . S
C697 C698 1.339 . S
C697 H732 0.949 . S
C698 C697 1.339 . S
C698 C699 1.439 . S
C698 H733 0.950 1_556 S
C699 N695 1.383 . S
C699 C698 1.439 . S
C699 C728 1.392 . S
N700 Co694 2.008 . S
N700 C701 1.376 . S
N700 C704 1.374 1_565 S
C701 N700 1.376 . S
C701 C702 1.452 1_565 S
C701 C728 1.389 . S
C702 C701 1.452 1_545 S
C702 C703 1.352 . S
C702 H734 0.934 1_556 S
C703 C702 1.352 . S
C703 C704 1.439 . S
C703 H735 0.950 . S
C704 N700 1.374 1_545 S
C704 C703 1.439 . S
C704 C729 1.395 . S
N705 Co694 1.995 . S
N705 C706 1.376 1_565 S
N705 C709 1.383 . S
C706 N705 1.376 1_545 S
C706 C707 1.446 . S
C706 C729 1.391 . S
C707 C706 1.446 . S
C707 C708 1.339 . S
C707 H736 0.949 . S
C708 C707 1.339 . S
C708 C709 1.439 1_545 S
C708 H737 0.950 . S
C709 N705 1.383 . S
C709 C708 1.439 1_565 S
C709 C727 1.392 . S
N710 Co694 2.282 . S
N710 C713 1.332 1_565 S
N710 C715 1.332 . S
C711 C712 1.386 . S
C711 C714 1.388 1_545 S
C712 C711 1.386 . S
C712 C713 1.382 . S
C712 H738 0.950 . S
C713 N710 1.332 1_545 S
C713 C712 1.382 . S
C713 H724 0.952 . S
C714 C711 1.388 1_565 S
C714 C715 1.382 . S
C714 H739 0.950 . S
C715 N710 1.332 . S
C715 C714 1.382 . S
C715 H725 0.948 . S
N716 Co694 2.282 . S
N716 C720 1.332 . S
N716 C721 1.332 . S
C717 C718 1.388 . S
C717 C721 1.382 . S
C717 H740 0.950 . S
C718 C717 1.388 . S
C718 C719 1.386 . S
C719 C718 1.386 . S
C719 C720 1.382 . S
C719 H741 0.950 . S
C720 N716 1.332 . S
C720 C719 1.382 . S
C720 H722 0.952 . S
C721 N716 1.332 . S
C721 C717 1.382 . S
C721 H723 0.948 . S
H722 C720 0.952 . S
H723 C721 0.948 . S
H724 C713 0.952 . S
H725 C715 0.948 . S
C726 C692 1.395 . S
C726 C696 1.391 . S
C727 C689 1.389 . S
C727 C709 1.392 . S
C728 C699 1.392 . S
C728 C701 1.389 . S
C729 C704 1.395 . S
C729 C706 1.391 . S
H730 C690 0.951 . S
H731 C691 0.950 . S
H732 C697 0.949 . S
H733 C698 0.950 1_554 S
H734 C702 0.934 1_554 S
H735 C703 0.950 . S
H736 C707 0.949 . S
H737 C708 0.950 . S
H738 C712 0.950 . S
H739 C714 0.950 . S
H740 C717 0.950 . S
H741 C719 0.950 . S
C742 C743 1.443 . S
C742 N746 1.376 . S
C742 C780 1.389 . S
C743 C742 1.443 . S
C743 C744 1.340 . S
C743 H783 0.951 . S
C744 C743 1.340 . S
C744 C745 1.439 . S
C744 H784 0.950 . S
C745 C744 1.439 . S
C745 N746 1.374 . S
C745 C779 1.395 . S
N746 C742 1.376 . S
N746 C745 1.374 . S
N746 Co747 2.008 . S
Co747 N746 2.008 . S
Co747 N748 1.995 . S
Co747 N753 2.008 . S
Co747 N758 1.995 . S
Co747 N763 2.282 . S
Co747 N769 2.282 . S
N748 Co747 1.995 . S
N748 C749 1.376 . S
N748 C752 1.383 . S
C749 N748 1.376 . S
C749 C750 1.446 . S
C749 C779 1.391 . S
C750 C749 1.446 . S
C750 C751 1.339 . S
C750 H785 0.949 . S
C751 C750 1.339 . S
C751 C752 1.439 . S
C751 H786 0.950 1_556 S
C752 N748 1.383 . S
C752 C751 1.439 . S
C752 C781 1.392 . S
N753 Co747 2.008 . S
N753 C754 1.376 . S
N753 C757 1.374 1_455 S
C754 N753 1.376 . S
C754 C755 1.452 . S
C754 C781 1.389 . S
C755 C754 1.452 . S
C755 C756 1.352 1_455 S
C755 H787 0.934 1_556 S
C756 C755 1.352 1_655 S
C756 C757 1.439 . S
C756 H788 0.950 . S
C757 N753 1.374 1_655 S
C757 C756 1.439 . S
C757 C782 1.395 . S
N758 Co747 1.995 . S
N758 C759 1.376 1_455 S
N758 C762 1.383 . S
C759 N758 1.376 1_655 S
C759 C760 1.446 . S
C759 C782 1.391 . S
C760 C759 1.446 . S
C760 C761 1.339 . S
C760 H789 0.949 . S
C761 C760 1.339 . S
C761 C762 1.439 1_655 S
C761 H790 0.950 . S
C762 N758 1.383 . S
C762 C761 1.439 1_455 S
C762 C780 1.392 . S
N763 Co747 2.282 . S
N763 C766 1.332 1_455 S
N763 C768 1.332 . S
C764 C765 1.386 . S
C764 C767 1.388 1_655 S
C765 C764 1.386 . S
C765 C766 1.382 . S
C765 H791 0.950 . S
C766 N763 1.332 1_655 S
C766 C765 1.382 . S
C766 H777 0.952 . S
C767 C764 1.388 1_455 S
C767 C768 1.382 . S
C767 H792 0.950 . S
C768 N763 1.332 . S
C768 C767 1.382 . S
C768 H778 0.948 . S
N769 Co747 2.282 . S
N769 C773 1.332 . S
N769 C774 1.332 . S
C770 C771 1.388 . S
C770 C774 1.382 . S
C770 H793 0.950 . S
C771 C770 1.388 . S
C771 C772 1.386 . S
C772 C771 1.386 . S
C772 C773 1.382 . S
C772 H794 0.950 . S
C773 N769 1.332 . S
C773 C772 1.382 . S
C773 H775 0.952 . S
C774 N769 1.332 . S
C774 C770 1.382 . S
C774 H776 0.948 . S
H775 C773 0.952 . S
H776 C774 0.948 . S
H777 C766 0.952 . S
H778 C768 0.948 . S
C779 C745 1.395 . S
C779 C749 1.391 . S
C780 C742 1.389 . S
C780 C762 1.392 . S
C781 C752 1.392 . S
C781 C754 1.389 . S
C782 C757 1.395 . S
C782 C759 1.391 . S
H783 C743 0.951 . S
H784 C744 0.950 . S
H785 C750 0.949 . S
H786 C751 0.950 1_554 S
H787 C755 0.934 1_554 S
H788 C756 0.950 . S
H789 C760 0.949 . S
H790 C761 0.950 . S
H791 C765 0.950 . S
H792 C767 0.950 . S
H793 C770 0.950 . S
H794 C772 0.950 . S
C795 C796 1.443 . S
C795 N799 1.376 . S
C795 C833 1.389 . S
C796 C795 1.443 . S
C796 C797 1.340 . S
C796 H836 0.951 . S
C797 C796 1.340 . S
C797 C798 1.439 . S
C797 H837 0.950 . S
C798 C797 1.439 . S
C798 N799 1.374 . S
C798 C832 1.395 . S
N799 C795 1.376 . S
N799 C798 1.374 . S
N799 Co800 2.008 . S
Co800 N799 2.008 . S
Co800 N801 1.995 . S
Co800 N806 2.008 . S
Co800 N811 1.995 . S
Co800 N816 2.282 . S
Co800 N822 2.282 . S
N801 Co800 1.995 . S
N801 C802 1.376 . S
N801 C805 1.383 . S
C802 N801 1.376 . S
C802 C803 1.446 . S
C802 C832 1.391 . S
C803 C802 1.446 . S
C803 C804 1.339 . S
C803 H838 0.949 . S
C804 C803 1.339 . S
C804 C805 1.439 . S
C804 H839 0.950 . S
C805 N801 1.383 . S
C805 C804 1.439 . S
C805 C834 1.392 . S
N806 Co800 2.008 . S
N806 C807 1.376 . S
N806 C810 1.374 1_565 S
C807 N806 1.376 . S
C807 C808 1.443 1_565 S
C807 C834 1.389 . S
C808 C807 1.443 1_545 S
C808 C809 1.340 . S
C808 H840 0.951 . S
C809 C808 1.340 . S
C809 C810 1.439 . S
C809 H841 0.950 . S
C810 N806 1.374 1_545 S
C810 C809 1.439 . S
C810 C835 1.395 . S
N811 Co800 1.995 . S
N811 C812 1.376 . S
N811 C815 1.383 . S
C812 N811 1.376 . S
C812 C813 1.446 . S
C812 C835 1.391 1_565 S
C813 C812 1.446 . S
C813 C814 1.339 . S
C813 H842 0.949 . S
C814 C813 1.339 . S
C814 C815 1.439 . S
C814 H843 0.950 . S
C815 N811 1.383 . S
C815 C814 1.439 . S
C815 C833 1.392 . S
N816 Co800 2.282 . S
N816 C819 1.332 . S
N816 C821 1.332 . S
C817 C818 1.386 . S
C817 C820 1.388 . S
C818 C817 1.386 . S
C818 C819 1.382 . S
C818 H844 0.950 . S
C819 N816 1.332 . S
C819 C818 1.382 . S
C819 H830 0.952 . S
C820 C817 1.388 . S
C820 C821 1.382 . S
C820 H845 0.950 . S
C821 N816 1.332 . S
C821 C820 1.382 . S
C821 H831 0.948 . S
N822 Co800 2.282 . S
N822 C826 1.332 . S
N822 C827 1.332 . S
C823 C824 1.388 . S
C823 C827 1.382 . S
C823 H846 0.950 . S
C824 C823 1.388 . S
C824 C825 1.386 . S
C825 C824 1.386 . S
C825 C826 1.382 . S
C825 H847 0.950 . S
C826 N822 1.332 . S
C826 C825 1.382 . S
C826 H828 0.952 . S
C827 N822 1.332 . S
C827 C823 1.382 . S
C827 H829 0.948 . S
H828 C826 0.952 . S
H829 C827 0.948 . S
H830 C819 0.952 . S
H831 C821 0.948 . S
C832 C798 1.395 . S
C832 C802 1.391 . S
C833 C795 1.389 . S
C833 C815 1.392 . S
C834 C805 1.392 . S
C834 C807 1.389 . S
C835 C810 1.395 . S
C835 C812 1.391 1_545 S
H836 C796 0.951 . S
H837 C797 0.950 . S
H838 C803 0.949 . S
H839 C804 0.950 . S
H840 C808 0.951 . S
H841 C809 0.950 . S
H842 C813 0.949 . S
H843 C814 0.950 . S
H844 C818 0.950 . S
H845 C820 0.950 . S
H846 C823 0.950 . S
H847 C825 0.950 . S
C848 C849 1.443 . S
C848 N852 1.376 . S
C848 C886 1.389 . S
C849 C848 1.443 . S
C849 C850 1.340 . S
C849 H889 0.951 . S
C850 C849 1.340 . S
C850 C851 1.439 . S
C850 H890 0.950 . S
C851 C850 1.439 . S
C851 N852 1.374 . S
C851 C885 1.395 . S
N852 C848 1.376 . S
N852 C851 1.374 . S
N852 Co853 2.008 . S
Co853 N852 2.008 . S
Co853 N854 1.995 . S
Co853 N859 2.008 . S
Co853 N864 1.995 . S
Co853 N869 2.282 . S
Co853 N875 2.282 . S
N854 Co853 1.995 . S
N854 C855 1.376 . S
N854 C858 1.383 . S
C855 N854 1.376 . S
C855 C856 1.446 . S
C855 C885 1.391 . S
C856 C855 1.446 . S
C856 C857 1.339 . S
C856 H891 0.949 . S
C857 C856 1.339 . S
C857 C858 1.439 . S
C857 H892 0.950 . S
C858 N854 1.383 . S
C858 C857 1.439 . S
C858 C887 1.392 . S
N859 Co853 2.008 . S
N859 C860 1.376 . S
N859 C863 1.374 . S
C860 N859 1.376 . S
C860 C861 1.443 1_455 S
C860 C887 1.389 . S
C861 C860 1.443 1_655 S
C861 C862 1.340 . S
C861 H893 0.951 . S
C862 C861 1.340 . S
C862 C863 1.439 1_655 S
C862 H894 0.950 . S
C863 N859 1.374 . S
C863 C862 1.439 1_455 S
C863 C888 1.395 . S
N864 Co853 1.995 . S
N864 C865 1.376 . S
N864 C868 1.383 . S
C865 N864 1.376 . S
C865 C866 1.446 . S
C865 C888 1.391 . S
C866 C865 1.446 . S
C866 C867 1.339 . S
C866 H895 0.949 . S
C867 C866 1.339 . S
C867 C868 1.439 . S
C867 H896 0.950 . S
C868 N864 1.383 . S
C868 C867 1.439 . S
C868 C886 1.392 . S
N869 Co853 2.282 . S
N869 C872 1.332 . S
N869 C874 1.332 . S
C870 C871 1.386 . S
C870 C873 1.388 . S
C871 C870 1.386 . S
C871 C872 1.382 . S
C871 H897 0.950 . S
C872 N869 1.332 . S
C872 C871 1.382 . S
C872 H883 0.952 . S
C873 C870 1.388 . S
C873 C874 1.382 . S
C873 H898 0.950 . S
C874 N869 1.332 . S
C874 C873 1.382 . S
C874 H884 0.948 . S
N875 Co853 2.282 . S
N875 C879 1.332 . S
N875 C880 1.332 . S
C876 C877 1.388 . S
C876 C880 1.382 . S
C876 H899 0.950 . S
C877 C876 1.388 . S
C877 C878 1.386 . S
C878 C877 1.386 . S
C878 C879 1.382 . S
C878 H900 0.950 . S
C879 N875 1.332 . S
C879 C878 1.382 . S
C879 H881 0.952 . S
C880 N875 1.332 . S
C880 C876 1.382 . S
C880 H882 0.948 . S
H881 C879 0.952 . S
H882 C880 0.948 . S
H883 C872 0.952 . S
H884 C874 0.948 . S
C885 C851 1.395 . S
C885 C855 1.391 . S
C886 C848 1.389 . S
C886 C868 1.392 . S
C887 C858 1.392 . S
C887 C860 1.389 . S
C888 C863 1.395 . S
C888 C865 1.391 . S
H889 C849 0.951 . S
H890 C850 0.950 . S
H891 C856 0.949 . S
H892 C857 0.950 . S
H893 C861 0.951 . S
H894 C862 0.950 . S
H895 C866 0.949 . S
H896 C867 0.950 . S
H897 C871 0.950 . S
H898 C873 0.950 . S
H899 C876 0.950 . S
H900 C878 0.950 . S
C901 C902 1.443 . S
C901 N905 1.376 . S
C901 C939 1.389 . S
C902 C901 1.443 . S
C902 C903 1.340 . S
C902 H942 0.951 . S
C903 C902 1.340 . S
C903 C904 1.439 . S
C903 H943 0.950 . S
C904 C903 1.439 . S
C904 N905 1.374 . S
C904 C938 1.395 . S
N905 C901 1.376 . S
N905 C904 1.374 . S
N905 Co906 2.008 . S
Co906 N905 2.008 . S
Co906 N907 1.995 . S
Co906 N912 2.008 . S
Co906 N917 1.995 . S
Co906 N922 2.282 . S
Co906 N928 2.282 . S
N907 Co906 1.995 . S
N907 C908 1.376 . S
N907 C911 1.383 . S
C908 N907 1.376 . S
C908 C909 1.446 . S
C908 C938 1.391 . S
C909 C908 1.446 . S
C909 C910 1.339 . S
C909 H944 0.949 . S
C910 C909 1.339 . S
C910 C911 1.439 . S
C910 H945 0.950 . S
C911 N907 1.383 . S
C911 C910 1.439 . S
C911 C940 1.392 . S
N912 Co906 2.008 . S
N912 C913 1.376 . S
N912 C916 1.374 . S
C913 N912 1.376 . S
C913 C914 1.443 . S
C913 C940 1.389 . S
C914 C913 1.443 . S
C914 C915 1.340 . S
C914 H946 0.951 . S
C915 C914 1.340 . S
C915 C916 1.439 . S
C915 H947 0.950 . S
C916 N912 1.374 . S
C916 C915 1.439 . S
C916 C941 1.395 . S
N917 Co906 1.995 . S
N917 C918 1.376 . S
N917 C921 1.383 . S
C918 N917 1.376 . S
C918 C919 1.446 . S
C918 C941 1.391 . S
C919 C918 1.446 . S
C919 C920 1.339 . S
C919 H948 0.949 . S
C920 C919 1.339 . S
C920 C921 1.439 . S
C920 H949 0.950 . S
C921 N917 1.383 . S
C921 C920 1.439 . S
C921 C939 1.392 . S
N922 Co906 2.282 . S
N922 C925 1.332 . S
N922 C927 1.332 . S
C923 C924 1.386 . S
C923 C926 1.388 . S
C924 C923 1.386 . S
C924 C925 1.382 . S
C924 H950 0.950 . S
C925 N922 1.332 . S
C925 C924 1.382 . S
C925 H936 0.952 . S
C926 C923 1.388 . S
C926 C927 1.382 . S
C926 H951 0.950 . S
C927 N922 1.332 . S
C927 C926 1.382 . S
C927 H937 0.948 . S
N928 Co906 2.282 . S
N928 C932 1.332 . S
N928 C933 1.332 . S
C929 C930 1.388 . S
C929 C933 1.382 . S
C929 H952 0.950 . S
C930 C929 1.388 . S
C930 C931 1.386 . S
C931 C930 1.386 . S
C931 C932 1.382 . S
C931 H953 0.950 . S
C932 N928 1.332 . S
C932 C931 1.382 . S
C932 H934 0.952 . S
C933 N928 1.332 . S
C933 C929 1.382 . S
C933 H935 0.948 . S
H934 C932 0.952 . S
H935 C933 0.948 . S
H936 C925 0.952 . S
H937 C927 0.948 . S
C938 C904 1.395 . S
C938 C908 1.391 . S
C939 C901 1.389 . S
C939 C921 1.392 . S
C940 C911 1.392 . S
C940 C913 1.389 . S
C941 C916 1.395 . S
C941 C918 1.391 . S
H942 C902 0.951 . S
H943 C903 0.950 . S
H944 C909 0.949 . S
H945 C910 0.950 . S
H946 C914 0.951 . S
H947 C915 0.950 . S
H948 C919 0.949 . S
H949 C920 0.950 . S
H950 C924 0.950 . S
H951 C926 0.950 . S
H952 C929 0.950 . S
H953 C931 0.950 . S
C954 C955 1.363 . S
C954 C960 1.379 . S
C954 N962 1.356 . S
C955 C954 1.363 . S
C955 C961 1.363 . S
C956 C957 1.363 . S
C956 C961 1.379 . S
C956 N963 1.356 . S
C957 C956 1.363 . S
C957 C960 1.363 . S
N958 C960 1.356 . S
N958 H970 0.984 . S
N958 H971 0.985 . S
N959 C961 1.356 . S
N959 H964 0.984 . S
N959 H965 0.985 . S
C960 C954 1.379 . S
C960 C957 1.363 . S
C960 N958 1.356 . S
C961 C955 1.363 . S
C961 C956 1.379 . S
C961 N959 1.356 . S
N962 C954 1.356 . S
N962 H968 0.984 . S
N962 H969 0.984 . S
N963 C956 1.356 . S
N963 H966 0.984 . S
N963 H967 0.985 . S
H964 N959 0.984 . S
H965 N959 0.985 . S
H966 N963 0.984 . S
H967 N963 0.985 . S
H968 N962 0.984 . S
H969 N962 0.984 . S
H970 N958 0.984 . S
H971 N958 0.985 . S
C972 C973 1.363 . S
C972 C978 1.379 . S
C972 N980 1.356 . S
C973 C972 1.363 . S
C973 C979 1.363 . S
C974 C975 1.363 . S
C974 C979 1.379 . S
C974 N981 1.356 . S
C975 C974 1.363 . S
C975 C978 1.363 . S
N976 C978 1.356 . S
N976 H988 0.984 . S
N976 H989 0.985 . S
N977 C979 1.356 . S
N977 H982 0.984 . S
N977 H983 0.985 . S
C978 C972 1.379 . S
C978 C975 1.363 . S
C978 N976 1.356 . S
C979 C973 1.363 . S
C979 C974 1.379 . S
C979 N977 1.356 . S
N980 C972 1.356 . S
N980 H986 0.984 . S
N980 H987 0.984 . S
N981 C974 1.356 . S
N981 H984 0.984 . S
N981 H985 0.985 . S
H982 N977 0.984 . S
H983 N977 0.985 . S
H984 N981 0.984 . S
H985 N981 0.985 . S
H986 N980 0.984 . S
H987 N980 0.984 . S
H988 N976 0.984 . S
H989 N976 0.985 . S
C990 C991 1.363 . S
C990 C996 1.379 . S
C990 N998 1.356 1_565 S
C991 C990 1.363 . S
C991 C997 1.363 . S
C992 C993 1.363 . S
C992 C997 1.379 . S
C992 N999 1.356 . S
C993 C992 1.363 . S
C993 C996 1.363 . S
N994 C996 1.356 . S
N994 H1006 0.984 . S
N994 H1007 0.985 . S
N995 C997 1.356 . S
N995 H1000 0.984 . S
N995 H1001 0.985 . S
C996 C990 1.379 . S
C996 C993 1.363 . S
C996 N994 1.356 . S
C997 C991 1.363 . S
C997 C992 1.379 . S
C997 N995 1.356 . S
N998 C990 1.356 1_545 S
N998 H1004 0.984 . S
N998 H1005 0.984 . S
N999 C992 1.356 . S
N999 H1002 0.984 . S
N999 H1003 0.985 . S
H1000 N995 0.984 . S
H1001 N995 0.985 . S
H1002 N999 0.984 . S
H1003 N999 0.985 . S
H1004 N998 0.984 . S
H1005 N998 0.984 . S
H1006 N994 0.984 . S
H1007 N994 0.985 . S
C1008 C1009 1.363 . S
C1008 C1014 1.379 . S
C1008 N1016 1.356 . S
C1009 C1008 1.363 . S
C1009 C1015 1.363 . S
C1010 C1011 1.363 . S
C1010 C1015 1.379 . S
C1010 N1017 1.351 1_545 S
C1011 C1010 1.363 . S
C1011 C1014 1.363 . S
N1012 C1014 1.356 . S
N1012 H1024 0.984 . S
N1012 H1025 0.985 . S
N1013 C1015 1.356 . S
N1013 H1018 0.984 . S
N1013 H1019 0.985 . S
C1014 C1008 1.379 . S
C1014 C1011 1.363 . S
C1014 N1012 1.356 . S
C1015 C1009 1.363 . S
C1015 C1010 1.379 . S
C1015 N1013 1.356 . S
N1016 C1008 1.356 . S
N1016 H1022 0.984 . S
N1016 H1023 0.984 . S
N1017 C1010 1.351 1_565 S
N1017 H1020 0.985 . S
N1017 H1021 0.989 . S
H1018 N1013 0.984 . S
H1019 N1013 0.985 . S
H1020 N1017 0.985 . S
H1021 N1017 0.989 . S
H1022 N1016 0.984 . S
H1023 N1016 0.984 . S
H1024 N1012 0.984 . S
H1025 N1012 0.985 . S
C1026 C1027 1.363 . S
C1026 C1032 1.379 . S
C1026 N1034 1.356 . S
C1027 C1026 1.363 . S
C1027 C1033 1.363 . S
C1028 C1029 1.363 . S
C1028 C1033 1.379 . S
C1028 N1035 1.356 . S
C1029 C1028 1.363 . S
C1029 C1032 1.363 . S
N1030 C1032 1.356 . S
N1030 H1042 0.984 . S
N1030 H1043 0.985 . S
N1031 C1033 1.356 . S
N1031 H1036 0.984 . S
N1031 H1037 0.985 . S
C1032 C1026 1.379 . S
C1032 C1029 1.363 . S
C1032 N1030 1.356 . S
C1033 C1027 1.363 . S
C1033 C1028 1.379 . S
C1033 N1031 1.356 . S
N1034 C1026 1.356 . S
N1034 H1040 0.984 . S
N1034 H1041 0.984 . S
N1035 C1028 1.356 . S
N1035 H1038 0.984 . S
N1035 H1039 0.985 . S
H1036 N1031 0.984 . S
H1037 N1031 0.985 . S
H1038 N1035 0.984 . S
H1039 N1035 0.985 . S
H1040 N1034 0.984 . S
H1041 N1034 0.984 . S
H1042 N1030 0.984 . S
H1043 N1030 0.985 . S
C1044 C1045 1.363 . S
C1044 C1050 1.379 . S
C1044 N1052 1.356 . S
C1045 C1044 1.363 . S
C1045 C1051 1.363 . S
C1046 C1047 1.363 . S
C1046 C1051 1.379 . S
C1046 N1053 1.356 . S
C1047 C1046 1.363 . S
C1047 C1050 1.363 . S
N1048 C1050 1.356 . S
N1048 H1060 0.984 . S
N1048 H1061 0.985 . S
N1049 C1051 1.356 . S
N1049 H1054 0.984 . S
N1049 H1055 0.985 . S
C1050 C1044 1.379 . S
C1050 C1047 1.363 . S
C1050 N1048 1.356 . S
C1051 C1045 1.363 . S
C1051 C1046 1.379 . S
C1051 N1049 1.356 . S
N1052 C1044 1.356 . S
N1052 H1058 0.984 . S
N1052 H1059 0.984 . S
N1053 C1046 1.356 . S
N1053 H1056 0.984 . S
N1053 H1057 0.985 . S
H1054 N1049 0.984 . S
H1055 N1049 0.985 . S
H1056 N1053 0.984 . S
H1057 N1053 0.985 . S
H1058 N1052 0.984 . S
H1059 N1052 0.984 . S
H1060 N1048 0.984 . S
H1061 N1048 0.985 . S
C1062 C1063 1.363 . S
C1062 C1068 1.379 . S
C1062 N1070 1.350 1_655 S
C1063 C1062 1.363 . S
C1063 C1069 1.363 . S
C1064 C1065 1.363 . S
C1064 C1069 1.379 . S
C1064 N1071 1.356 . S
C1065 C1064 1.363 . S
C1065 C1068 1.363 . S
N1066 C1068 1.356 . S
N1066 H1078 0.984 . S
N1066 H1079 0.985 . S
N1067 C1069 1.356 . S
N1067 H1072 0.984 . S
N1067 H1073 0.985 . S
C1068 C1062 1.379 . S
C1068 C1065 1.363 . S
C1068 N1066 1.356 . S
C1069 C1063 1.363 . S
C1069 C1064 1.379 . S
C1069 N1067 1.356 . S
N1070 C1062 1.350 1_455 S
N1070 H1076 0.986 . S
N1070 H1077 0.990 . S
N1071 C1064 1.356 . S
N1071 H1074 0.984 . S
N1071 H1075 0.985 . S
H1072 N1067 0.984 . S
H1073 N1067 0.985 . S
H1074 N1071 0.984 . S
H1075 N1071 0.985 . S
H1076 N1070 0.986 . S
H1077 N1070 0.990 . S
H1078 N1066 0.984 . S
H1079 N1066 0.985 . S
C1080 C1081 1.363 . S
C1080 C1086 1.379 . S
C1080 N1088 1.356 . S
C1081 C1080 1.363 . S
C1081 C1087 1.363 . S
C1082 C1083 1.363 . S
C1082 C1087 1.379 . S
C1082 N1089 1.356 . S
C1083 C1082 1.363 . S
C1083 C1086 1.363 . S
N1084 C1086 1.356 . S
N1084 H1096 0.984 . S
N1084 H1097 0.985 . S
N1085 C1087 1.356 . S
N1085 H1090 0.984 . S
N1085 H1091 0.985 . S
C1086 C1080 1.379 . S
C1086 C1083 1.363 . S
C1086 N1084 1.356 . S
C1087 C1081 1.363 . S
C1087 C1082 1.379 . S
C1087 N1085 1.356 . S
N1088 C1080 1.356 . S
N1088 H1094 0.984 . S
N1088 H1095 0.984 . S
N1089 C1082 1.356 . S
N1089 H1092 0.984 . S
N1089 H1093 0.985 . S
H1090 N1085 0.984 . S
H1091 N1085 0.985 . S
H1092 N1089 0.984 . S
H1093 N1089 0.985 . S
H1094 N1088 0.984 . S
H1095 N1088 0.984 . S
H1096 N1084 0.984 . S
H1097 N1084 0.985 . S
C1098 C1099 1.363 . S
C1098 C1104 1.379 . S
C1098 N1106 1.356 . S
C1099 C1098 1.363 . S
C1099 C1105 1.363 . S
C1100 C1101 1.363 . S
C1100 C1105 1.379 . S
C1100 N1107 1.356 . S
C1101 C1100 1.363 . S
C1101 C1104 1.363 . S
N1102 C1104 1.356 . S
N1102 H1114 0.984 . S
N1102 H1115 0.985 . S
N1103 C1105 1.356 . S
N1103 H1108 0.984 . S
N1103 H1109 0.985 . S
C1104 C1098 1.379 . S
C1104 C1101 1.363 . S
C1104 N1102 1.356 . S
C1105 C1099 1.363 . S
C1105 C1100 1.379 . S
C1105 N1103 1.356 . S
N1106 C1098 1.356 . S
N1106 H1112 0.984 . S
N1106 H1113 0.984 . S
N1107 C1100 1.356 . S
N1107 H1110 0.984 . S
N1107 H1111 0.985 1_545 S
H1108 N1103 0.984 . S
H1109 N1103 0.985 . S
H1110 N1107 0.984 . S
H1111 N1107 0.985 1_565 S
H1112 N1106 0.984 . S
H1113 N1106 0.984 . S
H1114 N1102 0.984 . S
H1115 N1102 0.985 . S
C1116 C1117 1.363 . S
C1116 C1122 1.379 . S
C1116 N1124 1.356 . S
C1117 C1116 1.363 . S
C1117 C1123 1.363 . S
C1118 C1119 1.363 . S
C1118 C1123 1.379 . S
C1118 N1125 1.356 . S
C1119 C1118 1.363 . S
C1119 C1122 1.363 . S
N1120 C1122 1.356 . S
N1120 H1132 0.984 . S
N1120 H1133 0.985 . S
N1121 C1123 1.356 . S
N1121 H1126 0.984 . S
N1121 H1127 0.985 . S
C1122 C1116 1.379 . S
C1122 C1119 1.363 . S
C1122 N1120 1.356 . S
C1123 C1117 1.363 . S
C1123 C1118 1.379 . S
C1123 N1121 1.356 . S
N1124 C1116 1.356 . S
N1124 H1130 0.984 . S
N1124 H1131 0.984 . S
N1125 C1118 1.356 . S
N1125 H1128 0.984 . S
N1125 H1129 0.985 . S
H1126 N1121 0.984 . S
H1127 N1121 0.985 . S
H1128 N1125 0.984 . S
H1129 N1125 0.985 . S
H1130 N1124 0.984 . S
H1131 N1124 0.984 . S
H1132 N1120 0.984 . S
H1133 N1120 0.985 . S
C1134 C1135 1.363 . S
C1134 C1140 1.379 . S
C1134 N1142 1.356 . S
C1135 C1134 1.363 . S
C1135 C1141 1.363 . S
C1136 C1137 1.363 . S
C1136 C1141 1.379 . S
C1136 N1143 1.356 . S
C1137 C1136 1.363 . S
C1137 C1140 1.363 . S
N1138 C1140 1.356 . S
N1138 H1150 0.984 . S
N1138 H1151 0.985 . S
N1139 C1141 1.356 . S
N1139 H1144 0.984 . S
N1139 H1145 0.985 . S
C1140 C1134 1.379 . S
C1140 C1137 1.363 . S
C1140 N1138 1.356 . S
C1141 C1135 1.363 . S
C1141 C1136 1.379 . S
C1141 N1139 1.356 . S
N1142 C1134 1.356 . S
N1142 H1148 0.984 . S
N1142 H1149 0.984 . S
N1143 C1136 1.356 . S
N1143 H1146 0.984 . S
N1143 H1147 0.985 . S
H1144 N1139 0.984 . S
H1145 N1139 0.985 . S
H1146 N1143 0.984 . S
H1147 N1143 0.985 . S
H1148 N1142 0.984 . S
H1149 N1142 0.984 . S
H1150 N1138 0.984 . S
H1151 N1138 0.985 . S
C1152 C1153 1.363 . S
C1152 C1158 1.379 . S
C1152 N1160 1.356 . S
C1153 C1152 1.363 . S
C1153 C1159 1.363 . S
C1154 C1155 1.363 . S
C1154 C1159 1.379 . S
C1154 N1161 1.356 . S
C1155 C1154 1.363 . S
C1155 C1158 1.363 . S
N1156 C1158 1.356 . S
N1156 H1168 0.984 . S
N1156 H1169 0.985 . S
N1157 C1159 1.356 . S
N1157 H1162 0.984 . S
N1157 H1163 0.985 . S
C1158 C1152 1.379 . S
C1158 C1155 1.363 . S
C1158 N1156 1.356 . S
C1159 C1153 1.363 . S
C1159 C1154 1.379 . S
C1159 N1157 1.356 . S
N1160 C1152 1.356 . S
N1160 H1166 0.984 . S
N1160 H1167 0.984 . S
N1161 C1154 1.356 . S
N1161 H1164 0.984 . S
N1161 H1165 0.985 . S
H1162 N1157 0.984 . S
H1163 N1157 0.985 . S
H1164 N1161 0.984 . S
H1165 N1161 0.985 . S
H1166 N1160 0.984 . S
H1167 N1160 0.984 . S
H1168 N1156 0.984 . S
H1169 N1156 0.985 . S
C1170 C1171 1.363 . S
C1170 C1176 1.379 . S
C1170 N1178 1.356 . S
C1171 C1170 1.363 . S
C1171 C1177 1.363 . S
C1172 C1173 1.363 . S
C1172 C1177 1.379 . S
C1172 N1179 1.356 . S
C1173 C1172 1.363 . S
C1173 C1176 1.363 . S
N1174 C1176 1.356 . S
N1174 H1186 0.984 . S
N1174 H1187 0.985 . S
N1175 C1177 1.356 . S
N1175 H1180 0.984 . S
N1175 H1181 0.985 . S
C1176 C1170 1.379 . S
C1176 C1173 1.363 . S
C1176 N1174 1.356 . S
C1177 C1171 1.363 . S
C1177 C1172 1.379 . S
C1177 N1175 1.356 . S
N1178 C1170 1.356 . S
N1178 H1184 0.984 . S
N1178 H1185 0.984 . S
N1179 C1172 1.356 . S
N1179 H1182 0.984 . S
N1179 H1183 0.985 . S
H1180 N1175 0.984 . S
H1181 N1175 0.985 . S
H1182 N1179 0.984 . S
H1183 N1179 0.985 . S
H1184 N1178 0.984 . S
H1185 N1178 0.984 . S
H1186 N1174 0.984 . S
H1187 N1174 0.985 . S
C1188 C1189 1.363 . S
C1188 C1194 1.379 . S
C1188 N1196 1.356 . S
C1189 C1188 1.363 . S
C1189 C1195 1.363 1_545 S
C1190 C1191 1.363 . S
C1190 C1195 1.379 . S
C1190 N1197 1.356 . S
C1191 C1190 1.363 . S
C1191 C1194 1.363 1_565 S
N1192 C1194 1.356 . S
N1192 H1204 0.984 . S
N1192 H1205 0.985 . S
N1193 C1195 1.356 . S
N1193 H1198 0.984 1_565 S
N1193 H1199 0.985 . S
C1194 C1188 1.379 . S
C1194 C1191 1.363 1_545 S
C1194 N1192 1.356 . S
C1195 C1189 1.363 1_565 S
C1195 C1190 1.379 . S
C1195 N1193 1.356 . S
N1196 C1188 1.356 . S
N1196 H1202 0.984 . S
N1196 H1203 0.984 . S
N1197 C1190 1.356 . S
N1197 H1200 0.984 . S
N1197 H1201 0.985 . S
H1198 N1193 0.984 1_545 S
H1199 N1193 0.985 . S
H1200 N1197 0.984 . S
H1201 N1197 0.985 . S
H1202 N1196 0.984 . S
H1203 N1196 0.984 . S
H1204 N1192 0.984 . S
H1205 N1192 0.985 . S
C1206 C1207 1.363 . S
C1206 C1212 1.379 1_455 S
C1206 N1214 1.356 . S
C1207 C1206 1.363 . S
C1207 C1213 1.363 . S
C1208 C1209 1.363 . S
C1208 C1213 1.379 1_655 S
C1208 N1215 1.356 . S
C1209 C1208 1.363 . S
C1209 C1212 1.363 . S
N1210 C1212 1.356 . S
N1210 H1222 0.984 . S
N1210 H1223 0.985 . S
N1211 C1213 1.356 . S
N1211 H1216 0.984 . S
N1211 H1217 0.985 . S
C1212 C1206 1.379 1_655 S
C1212 C1209 1.363 . S
C1212 N1210 1.356 . S
C1213 C1207 1.363 . S
C1213 C1208 1.379 1_455 S
C1213 N1211 1.356 . S
N1214 C1206 1.356 . S
N1214 H1220 0.984 . S
N1214 H1221 0.984 . S
N1215 C1208 1.356 . S
N1215 H1218 0.984 . S
N1215 H1219 0.985 . S
H1216 N1211 0.984 . S
H1217 N1211 0.985 . S
H1218 N1215 0.984 . S
H1219 N1215 0.985 . S
H1220 N1214 0.984 . S
H1221 N1214 0.984 . S
H1222 N1210 0.984 . S
H1223 N1210 0.985 . S
C1224 C1225 1.363 . S
C1224 C1230 1.379 . S
C1224 N1232 1.356 . S
C1225 C1224 1.363 . S
C1225 C1231 1.363 . S
C1226 C1227 1.363 . S
C1226 C1231 1.379 . S
C1226 N1233 1.356 . S
C1227 C1226 1.363 . S
C1227 C1230 1.363 . S
N1228 C1230 1.356 . S
N1228 H1240 0.984 . S
N1228 H1241 0.985 . S
N1229 C1231 1.356 . S
N1229 H1234 0.984 . S
N1229 H1235 0.985 . S
C1230 C1224 1.379 . S
C1230 C1227 1.363 . S
C1230 N1228 1.356 . S
C1231 C1225 1.363 . S
C1231 C1226 1.379 . S
C1231 N1229 1.356 . S
N1232 C1224 1.356 . S
N1232 H1238 0.984 . S
N1232 H1239 0.984 . S
N1233 C1226 1.356 . S
N1233 H1236 0.984 . S
N1233 H1237 0.985 . S
H1234 N1229 0.984 . S
H1235 N1229 0.985 . S
H1236 N1233 0.984 . S
H1237 N1233 0.985 . S
H1238 N1232 0.984 . S
H1239 N1232 0.984 . S
H1240 N1228 0.984 . S
H1241 N1228 0.985 . S
C1242 C1243 1.363 . S
C1242 C1248 1.379 1_545 S
C1242 N1250 1.356 . S
C1243 C1242 1.363 . S
C1243 C1249 1.363 . S
C1244 C1245 1.363 1_545 S
C1244 C1249 1.379 . S
C1244 N1251 1.356 1_545 S
C1245 C1244 1.363 1_565 S
C1245 C1248 1.363 . S
N1246 C1248 1.356 . S
N1246 H1258 0.984 . S
N1246 H1259 0.985 . S
N1247 C1249 1.356 . S
N1247 H1252 0.984 . S
N1247 H1253 0.985 . S
C1248 C1242 1.379 1_565 S
C1248 C1245 1.363 . S
C1248 N1246 1.356 . S
C1249 C1243 1.363 . S
C1249 C1244 1.379 . S
C1249 N1247 1.356 . S
N1250 C1242 1.356 . S
N1250 H1256 0.984 . S
N1250 H1257 0.984 . S
N1251 C1244 1.356 1_565 S
N1251 H1254 0.984 . S
N1251 H1255 0.985 1_565 S
H1252 N1247 0.984 . S
H1253 N1247 0.985 . S
H1254 N1251 0.984 . S
H1255 N1251 0.985 1_545 S
H1256 N1250 0.984 . S
H1257 N1250 0.984 . S
H1258 N1246 0.984 . S
H1259 N1246 0.985 . S
C1260 C1261 1.363 . S
C1260 C1266 1.379 1_455 S
C1260 N1268 1.356 . S
C1261 C1260 1.363 . S
C1261 C1267 1.363 . S
C1262 C1263 1.369 . S
C1262 C1267 1.363 1_655 S
C1262 N1269 1.370 . S
C1263 C1262 1.369 . S
C1263 C1266 1.363 . S
N1264 C1266 1.356 . S
N1264 H1276 0.984 . S
N1264 H1277 0.985 . S
N1265 C1267 1.356 . S
N1265 H1270 0.984 . S
N1265 H1271 0.985 . S
C1266 C1260 1.379 1_655 S
C1266 C1263 1.363 . S
C1266 N1264 1.356 . S
C1267 C1261 1.363 . S
C1267 C1262 1.363 1_455 S
C1267 N1265 1.356 . S
N1268 C1260 1.356 . S
N1268 H1274 0.984 . S
N1268 H1275 0.984 . S
N1269 C1262 1.370 . S
N1269 H1272 0.984 . S
N1269 H1273 0.985 . S
H1270 N1265 0.984 . S
H1271 N1265 0.985 . S
H1272 N1269 0.984 . S
H1273 N1269 0.985 . S
H1274 N1268 0.984 . S
H1275 N1268 0.984 . S
H1276 N1264 0.984 . S
H1277 N1264 0.985 . S
C1278 C1279 1.363 . S
C1278 C1284 1.379 . S
C1278 N1286 1.356 . S
C1279 C1278 1.363 . S
C1279 C1285 1.363 . S
C1280 C1281 1.363 . S
C1280 C1285 1.379 . S
C1280 N1287 1.356 . S
C1281 C1280 1.363 . S
C1281 C1284 1.363 . S
N1282 C1284 1.356 . S
N1282 H1294 0.984 . S
N1282 H1295 0.985 . S
N1283 C1285 1.356 . S
N1283 H1288 0.984 . S
N1283 H1289 0.985 . S
C1284 C1278 1.379 . S
C1284 C1281 1.363 . S
C1284 N1282 1.356 . S
C1285 C1279 1.363 . S
C1285 C1280 1.379 . S
C1285 N1283 1.356 . S
N1286 C1278 1.356 . S
N1286 H1292 0.984 . S
N1286 H1293 0.984 . S
N1287 C1280 1.356 . S
N1287 H1290 0.984 . S
N1287 H1291 0.985 . S
H1288 N1283 0.984 . S
H1289 N1283 0.985 . S
H1290 N1287 0.984 . S
H1291 N1287 0.985 . S
H1292 N1286 0.984 . S
H1293 N1286 0.984 . S
H1294 N1282 0.984 . S
H1295 N1282 0.985 . S
C1296 C1297 1.363 . S
C1296 C1302 1.379 . S
C1296 N1304 1.356 . S
C1297 C1296 1.363 . S
C1297 C1303 1.363 . S
C1298 C1299 1.363 . S
C1298 C1303 1.379 . S
C1298 N1305 1.356 . S
C1299 C1298 1.363 . S
C1299 C1302 1.363 . S
N1300 C1302 1.356 . S
N1300 H1312 0.984 . S
N1300 H1313 0.985 . S
N1301 C1303 1.356 . S
N1301 H1306 0.984 . S
N1301 H1307 0.985 . S
C1302 C1296 1.379 . S
C1302 C1299 1.363 . S
C1302 N1300 1.356 . S
C1303 C1297 1.363 . S
C1303 C1298 1.379 . S
C1303 N1301 1.356 . S
N1304 C1296 1.356 . S
N1304 H1310 0.984 . S
N1304 H1311 0.984 . S
N1305 C1298 1.356 . S
N1305 H1308 0.984 . S
N1305 H1309 0.985 . S
H1306 N1301 0.984 . S
H1307 N1301 0.985 . S
H1308 N1305 0.984 . S
H1309 N1305 0.985 . S
H1310 N1304 0.984 . S
H1311 N1304 0.984 . S
H1312 N1300 0.984 . S
H1313 N1300 0.985 . S
C1314 C1315 1.363 . S
C1314 C1320 1.379 . S
C1314 N1322 1.356 . S
C1315 C1314 1.363 . S
C1315 C1321 1.363 . S
C1316 C1317 1.363 . S
C1316 C1321 1.379 . S
C1316 N1323 1.356 . S
C1317 C1316 1.363 . S
C1317 C1320 1.363 . S
N1318 C1320 1.356 . S
N1318 H1330 0.984 . S
N1318 H1331 0.985 . S
N1319 C1321 1.356 . S
N1319 H1324 0.984 . S
N1319 H1325 0.985 . S
C1320 C1314 1.379 . S
C1320 C1317 1.363 . S
C1320 N1318 1.356 . S
C1321 C1315 1.363 . S
C1321 C1316 1.379 . S
C1321 N1319 1.356 . S
N1322 C1314 1.356 . S
N1322 H1328 0.984 . S
N1322 H1329 0.984 . S
N1323 C1316 1.356 . S
N1323 H1326 0.984 . S
N1323 H1327 0.985 . S
H1324 N1319 0.984 . S
H1325 N1319 0.985 . S
H1326 N1323 0.984 . S
H1327 N1323 0.985 . S
H1328 N1322 0.984 . S
H1329 N1322 0.984 . S
H1330 N1318 0.984 . S
H1331 N1318 0.985 . S
C1332 C1333 1.363 . S
C1332 C1338 1.379 . S
C1332 N1340 1.356 . S
C1333 C1332 1.363 . S
C1333 C1339 1.363 . S
C1334 C1335 1.363 . S
C1334 C1339 1.379 . S
C1334 N1341 1.356 . S
C1335 C1334 1.363 . S
C1335 C1338 1.363 . S
N1336 C1338 1.356 . S
N1336 H1348 0.984 . S
N1336 H1349 0.985 . S
N1337 C1339 1.356 . S
N1337 H1342 0.984 . S
N1337 H1343 0.985 . S
C1338 C1332 1.379 . S
C1338 C1335 1.363 . S
C1338 N1336 1.356 . S
C1339 C1333 1.363 . S
C1339 C1334 1.379 . S
C1339 N1337 1.356 . S
N1340 C1332 1.356 . S
N1340 H1346 0.984 . S
N1340 H1347 0.984 . S
N1341 C1334 1.356 . S
N1341 H1344 0.984 . S
N1341 H1345 0.985 . S
H1342 N1337 0.984 . S
H1343 N1337 0.985 . S
H1344 N1341 0.984 . S
H1345 N1341 0.985 . S
H1346 N1340 0.984 . S
H1347 N1340 0.984 . S
H1348 N1336 0.984 . S
H1349 N1336 0.985 . S
C1350 C1351 1.363 . S
C1350 C1356 1.379 . S
C1350 N1358 1.356 . S
C1351 C1350 1.363 . S
C1351 C1357 1.363 . S
C1352 C1353 1.363 . S
C1352 C1357 1.379 . S
C1352 N1359 1.356 . S
C1353 C1352 1.363 . S
C1353 C1356 1.363 . S
N1354 C1356 1.356 . S
N1354 H1366 0.984 . S
N1354 H1367 0.985 . S
N1355 C1357 1.356 . S
N1355 H1360 0.984 . S
N1355 H1361 0.985 . S
C1356 C1350 1.379 . S
C1356 C1353 1.363 . S
C1356 N1354 1.356 . S
C1357 C1351 1.363 . S
C1357 C1352 1.379 . S
C1357 N1355 1.356 . S
N1358 C1350 1.356 . S
N1358 H1364 0.984 . S
N1358 H1365 0.984 . S
N1359 C1352 1.356 . S
N1359 H1362 0.984 . S
N1359 H1363 0.985 . S
H1360 N1355 0.984 . S
H1361 N1355 0.985 . S
H1362 N1359 0.984 . S
H1363 N1359 0.985 . S
H1364 N1358 0.984 . S
H1365 N1358 0.984 . S
H1366 N1354 0.984 . S
H1367 N1354 0.985 . S
C1368 C1369 1.363 . S
C1368 C1374 1.379 . S
C1368 N1376 1.356 . S
C1369 C1368 1.363 . S
C1369 C1375 1.363 . S
C1370 C1371 1.363 . S
C1370 C1375 1.379 . S
C1370 N1377 1.356 . S
C1371 C1370 1.363 . S
C1371 C1374 1.363 . S
N1372 C1374 1.356 . S
N1372 H1384 0.984 . S
N1372 H1385 0.985 . S
N1373 C1375 1.356 . S
N1373 H1378 0.984 . S
N1373 H1379 0.985 . S
C1374 C1368 1.379 . S
C1374 C1371 1.363 . S
C1374 N1372 1.356 . S
C1375 C1369 1.363 . S
C1375 C1370 1.379 . S
C1375 N1373 1.356 . S
N1376 C1368 1.356 . S
N1376 H1382 0.984 . S
N1376 H1383 0.984 . S
N1377 C1370 1.356 . S
N1377 H1380 0.984 . S
N1377 H1381 0.985 . S
H1378 N1373 0.984 . S
H1379 N1373 0.985 . S
H1380 N1377 0.984 . S
H1381 N1377 0.985 . S
H1382 N1376 0.984 . S
H1383 N1376 0.984 . S
H1384 N1372 0.984 . S
H1385 N1372 0.985 . S
C1386 C1387 1.363 . S
C1386 C1392 1.379 . S
C1386 N1394 1.356 . S
C1387 C1386 1.363 . S
C1387 C1393 1.363 . S
C1388 C1389 1.363 . S
C1388 C1393 1.379 . S
C1388 N1395 1.356 . S
C1389 C1388 1.363 . S
C1389 C1392 1.363 . S
N1390 C1392 1.356 . S
N1390 H1402 0.984 . S
N1390 H1403 0.985 . S
N1391 C1393 1.356 . S
N1391 H1396 0.984 . S
N1391 H1397 0.985 . S
C1392 C1386 1.379 . S
C1392 C1389 1.363 . S
C1392 N1390 1.356 . S
C1393 C1387 1.363 . S
C1393 C1388 1.379 . S
C1393 N1391 1.356 . S
N1394 C1386 1.356 . S
N1394 H1400 0.984 . S
N1394 H1401 0.984 . S
N1395 C1388 1.356 . S
N1395 H1398 0.984 . S
N1395 H1399 0.985 . S
H1396 N1391 0.984 . S
H1397 N1391 0.985 . S
H1398 N1395 0.984 . S
H1399 N1395 0.985 . S
H1400 N1394 0.984 . S
H1401 N1394 0.984 . S
H1402 N1390 0.984 . S
H1403 N1390 0.985 . S
C1404 C1405 1.363 . S
C1404 C1410 1.379 . S
C1404 N1412 1.356 . S
C1405 C1404 1.363 . S
C1405 C1411 1.363 . S
C1406 C1407 1.363 . S
C1406 C1411 1.379 . S
C1406 N1413 1.356 . S
C1407 C1406 1.363 . S
C1407 C1410 1.363 . S
N1408 C1410 1.356 . S
N1408 H1420 0.984 . S
N1408 H1421 0.985 . S
N1409 C1411 1.356 . S
N1409 H1414 0.984 . S
N1409 H1415 0.985 . S
C1410 C1404 1.379 . S
C1410 C1407 1.363 . S
C1410 N1408 1.356 . S
C1411 C1405 1.363 . S
C1411 C1406 1.379 . S
C1411 N1409 1.356 . S
N1412 C1404 1.356 . S
N1412 H1418 0.984 . S
N1412 H1419 0.984 . S
N1413 C1406 1.356 . S
N1413 H1416 0.984 . S
N1413 H1417 0.985 . S
H1414 N1409 0.984 . S
H1415 N1409 0.985 . S
H1416 N1413 0.984 . S
H1417 N1413 0.985 . S
H1418 N1412 0.984 . S
H1419 N1412 0.984 . S
H1420 N1408 0.984 . S
H1421 N1408 0.985 . S
C1422 C1423 1.363 . S
C1422 C1428 1.379 . S
C1422 N1430 1.356 . S
C1423 C1422 1.363 . S
C1423 C1429 1.363 . S
C1424 C1425 1.363 . S
C1424 C1429 1.379 . S
C1424 N1431 1.356 . S
C1425 C1424 1.363 . S
C1425 C1428 1.363 . S
N1426 C1428 1.356 . S
N1426 H1438 0.984 . S
N1426 H1439 0.985 . S
N1427 C1429 1.356 . S
N1427 H1432 0.984 . S
N1427 H1433 0.985 . S
C1428 C1422 1.379 . S
C1428 C1425 1.363 . S
C1428 N1426 1.356 . S
C1429 C1423 1.363 . S
C1429 C1424 1.379 . S
C1429 N1427 1.356 . S
N1430 C1422 1.356 . S
N1430 H1436 0.984 . S
N1430 H1437 0.984 . S
N1431 C1424 1.356 . S
N1431 H1434 0.984 . S
N1431 H1435 0.985 . S
H1432 N1427 0.984 . S
H1433 N1427 0.985 . S
H1434 N1431 0.984 . S
H1435 N1431 0.985 . S
H1436 N1430 0.984 . S
H1437 N1430 0.984 . S
H1438 N1426 0.984 . S
H1439 N1426 0.985 . S
C1440 C1441 1.363 . S
C1440 C1446 1.379 . S
C1440 N1448 1.356 . S
C1441 C1440 1.363 . S
C1441 C1447 1.363 . S
C1442 C1443 1.363 . S
C1442 C1447 1.379 . S
C1442 N1449 1.356 . S
C1443 C1442 1.363 . S
C1443 C1446 1.363 . S
N1444 C1446 1.356 . S
N1444 H1456 0.984 . S
N1444 H1457 0.985 . S
N1445 C1447 1.356 . S
N1445 H1450 0.984 . S
N1445 H1451 0.985 . S
C1446 C1440 1.379 . S
C1446 C1443 1.363 . S
C1446 N1444 1.356 . S
C1447 C1441 1.363 . S
C1447 C1442 1.379 . S
C1447 N1445 1.356 . S
N1448 C1440 1.356 . S
N1448 H1454 0.984 . S
N1448 H1455 0.984 . S
N1449 C1442 1.356 . S
N1449 H1452 0.984 . S
N1449 H1453 0.985 . S
H1450 N1445 0.984 . S
H1451 N1445 0.985 . S
H1452 N1449 0.984 . S
H1453 N1449 0.985 . S
H1454 N1448 0.984 . S
H1455 N1448 0.984 . S
H1456 N1444 0.984 . S
H1457 N1444 0.985 . S
C1458 C1459 1.363 . S
C1458 C1464 1.379 . S
C1458 N1466 1.356 . S
C1459 C1458 1.363 . S
C1459 C1465 1.363 . S
C1460 C1461 1.363 . S
C1460 C1465 1.379 . S
C1460 N1467 1.356 . S
C1461 C1460 1.363 . S
C1461 C1464 1.363 . S
N1462 C1464 1.356 . S
N1462 H1474 0.984 . S
N1462 H1475 0.985 . S
N1463 C1465 1.356 . S
N1463 H1468 0.984 . S
N1463 H1469 0.985 . S
C1464 C1458 1.379 . S
C1464 C1461 1.363 . S
C1464 N1462 1.356 . S
C1465 C1459 1.363 . S
C1465 C1460 1.379 . S
C1465 N1463 1.356 . S
N1466 C1458 1.356 . S
N1466 H1472 0.984 . S
N1466 H1473 0.984 . S
N1467 C1460 1.356 . S
N1467 H1470 0.984 . S
N1467 H1471 0.985 . S
H1468 N1463 0.984 . S
H1469 N1463 0.985 . S
H1470 N1467 0.984 . S
H1471 N1467 0.985 . S
H1472 N1466 0.984 . S
H1473 N1466 0.984 . S
H1474 N1462 0.984 . S
H1475 N1462 0.985 . S
C1476 C1477 1.363 . S
C1476 C1482 1.379 . S
C1476 N1484 1.356 . S
C1477 C1476 1.363 . S
C1477 C1483 1.363 . S
C1478 C1479 1.363 . S
C1478 C1483 1.379 . S
C1478 N1485 1.356 . S
C1479 C1478 1.363 . S
C1479 C1482 1.363 . S
N1480 C1482 1.356 . S
N1480 H1492 0.984 . S
N1480 H1493 0.985 . S
N1481 C1483 1.356 . S
N1481 H1486 0.984 . S
N1481 H1487 0.985 . S
C1482 C1476 1.379 . S
C1482 C1479 1.363 . S
C1482 N1480 1.356 . S
C1483 C1477 1.363 . S
C1483 C1478 1.379 . S
C1483 N1481 1.356 . S
N1484 C1476 1.356 . S
N1484 H1490 0.984 . S
N1484 H1491 0.984 . S
N1485 C1478 1.356 . S
N1485 H1488 0.984 . S
N1485 H1489 0.985 . S
H1486 N1481 0.984 . S
H1487 N1481 0.985 . S
H1488 N1485 0.984 . S
H1489 N1485 0.985 . S
H1490 N1484 0.984 . S
H1491 N1484 0.984 . S
H1492 N1480 0.984 . S
H1493 N1480 0.985 . S
C1494 C1495 1.363 . S
C1494 C1500 1.379 . S
C1494 N1502 1.356 . S
C1495 C1494 1.363 . S
C1495 C1501 1.363 . S
C1496 C1497 1.363 . S
C1496 C1501 1.379 . S
C1496 N1503 1.356 . S
C1497 C1496 1.363 . S
C1497 C1500 1.363 . S
N1498 C1500 1.356 . S
N1498 H1510 0.984 . S
N1498 H1511 0.985 . S
N1499 C1501 1.356 . S
N1499 H1504 0.984 . S
N1499 H1505 0.985 . S
C1500 C1494 1.379 . S
C1500 C1497 1.363 . S
C1500 N1498 1.356 . S
C1501 C1495 1.363 . S
C1501 C1496 1.379 . S
C1501 N1499 1.356 . S
N1502 C1494 1.356 . S
N1502 H1508 0.984 . S
N1502 H1509 0.984 . S
N1503 C1496 1.356 . S
N1503 H1506 0.984 . S
N1503 H1507 0.985 . S
H1504 N1499 0.984 . S
H1505 N1499 0.985 . S
H1506 N1503 0.984 . S
H1507 N1503 0.985 . S
H1508 N1502 0.984 . S
H1509 N1502 0.984 . S
H1510 N1498 0.984 . S
H1511 N1498 0.985 . S
C1512 C1513 1.363 . S
C1512 C1518 1.379 . S
C1512 N1520 1.356 . S
C1513 C1512 1.363 . S
C1513 C1519 1.363 1_565 S
C1514 C1515 1.363 1_545 S
C1514 C1519 1.379 . S
C1514 N1521 1.356 . S
C1515 C1514 1.363 1_565 S
C1515 C1518 1.363 . S
N1516 C1518 1.356 . S
N1516 H1528 0.984 . S
N1516 H1529 0.985 . S
N1517 C1519 1.356 . S
N1517 H1522 0.984 . S
N1517 H1523 0.985 . S
C1518 C1512 1.379 . S
C1518 C1515 1.363 . S
C1518 N1516 1.356 . S
C1519 C1513 1.363 1_545 S
C1519 C1514 1.379 . S
C1519 N1517 1.356 . S
N1520 C1512 1.356 . S
N1520 H1526 0.984 . S
N1520 H1527 0.984 . S
N1521 C1514 1.356 . S
N1521 H1524 0.984 . S
N1521 H1525 0.985 . S
H1522 N1517 0.984 . S
H1523 N1517 0.985 . S
H1524 N1521 0.984 . S
H1525 N1521 0.985 . S
H1526 N1520 0.984 . S
H1527 N1520 0.984 . S
H1528 N1516 0.984 . S
H1529 N1516 0.985 . S
C1530 C1531 1.363 . S
C1530 C1536 1.379 . S
C1530 N1538 1.356 . S
C1531 C1530 1.363 . S
C1531 C1537 1.363 . S
C1532 C1533 1.368 . S
C1532 C1537 1.385 . S
C1532 N1539 1.345 1_455 S
C1533 C1532 1.368 . S
C1533 C1536 1.363 . S
N1534 C1536 1.356 . S
N1534 H1546 0.984 . S
N1534 H1547 0.985 . S
N1535 C1537 1.356 1_655 S
N1535 H1540 0.984 . S
N1535 H1541 0.985 . S
C1536 C1530 1.379 . S
C1536 C1533 1.363 . S
C1536 N1534 1.356 . S
C1537 C1531 1.363 . S
C1537 C1532 1.385 . S
C1537 N1535 1.356 1_455 S
N1538 C1530 1.356 . S
N1538 H1544 0.984 . S
N1538 H1545 0.984 . S
N1539 C1532 1.345 1_655 S
N1539 H1542 0.984 . S
N1539 H1543 0.985 . S
H1540 N1535 0.984 . S
H1541 N1535 0.985 . S
H1542 N1539 0.984 . S
H1543 N1539 0.985 . S
H1544 N1538 0.984 . S
H1545 N1538 0.984 . S
H1546 N1534 0.984 . S
H1547 N1534 0.985 . S
C1548 C1549 1.363 1_554 S
C1548 C1554 1.379 . S
C1548 N1556 1.356 . S
C1549 C1548 1.363 1_556 S
C1549 C1555 1.363 . S
C1550 C1551 1.363 1_556 S
C1550 C1555 1.379 . S
C1550 N1557 1.356 . S
C1551 C1550 1.363 1_554 S
C1551 C1554 1.363 . S
N1552 C1554 1.356 . S
N1552 H1564 0.984 . S
N1552 H1565 0.985 . S
N1553 C1555 1.356 . S
N1553 H1558 0.984 . S
N1553 H1559 0.985 . S
C1554 C1548 1.379 . S
C1554 C1551 1.363 . S
C1554 N1552 1.356 . S
C1555 C1549 1.363 . S
C1555 C1550 1.379 . S
C1555 N1553 1.356 . S
N1556 C1548 1.356 . S
N1556 H1562 0.984 . S
N1556 H1563 0.984 . S
N1557 C1550 1.356 . S
N1557 H1560 0.984 1_556 S
N1557 H1561 0.985 . S
H1558 N1553 0.984 . S
H1559 N1553 0.985 . S
H1560 N1557 0.984 1_554 S
H1561 N1557 0.985 . S
H1562 N1556 0.984 . S
H1563 N1556 0.984 . S
H1564 N1552 0.984 . S
H1565 N1552 0.985 . S
C1566 C1567 1.363 . S
C1566 C1572 1.379 1_556 S
C1566 N1574 1.356 1_545 S
C1567 C1566 1.363 . S
C1567 C1573 1.363 1_556 S
C1568 C1569 1.363 . S
C1568 C1573 1.379 . S
C1568 N1575 1.356 . S
C1569 C1568 1.363 . S
C1569 C1572 1.363 . S
N1570 C1572 1.356 1_565 S
N1570 H1582 0.984 . S
N1570 H1583 0.985 . S
N1571 C1573 1.356 1_556 S
N1571 H1576 0.984 . S
N1571 H1577 0.985 1_556 S
C1572 C1566 1.379 1_554 S
C1572 C1569 1.363 . S
C1572 N1570 1.356 1_545 S
C1573 C1567 1.363 1_554 S
C1573 C1568 1.379 . S
C1573 N1571 1.356 1_554 S
N1574 C1566 1.356 1_565 S
N1574 H1580 0.984 . S
N1574 H1581 0.984 . S
N1575 C1568 1.356 . S
N1575 H1578 0.984 . S
N1575 H1579 0.985 . S
H1576 N1571 0.984 . S
H1577 N1571 0.985 1_554 S
H1578 N1575 0.984 . S
H1579 N1575 0.985 . S
H1580 N1574 0.984 . S
H1581 N1574 0.984 . S
H1582 N1570 0.984 . S
H1583 N1570 0.985 . S
C1584 C1585 1.363 . S
C1584 C1590 1.379 . S
C1584 N1592 1.356 . S
C1585 C1584 1.363 . S
C1585 C1591 1.363 1_656 S
C1586 C1587 1.363 . S
C1586 C1591 1.379 1_655 S
C1586 N1593 1.356 1_655 S
C1587 C1586 1.363 . S
C1587 C1590 1.363 1_554 S
N1588 C1590 1.356 . S
N1588 H1600 0.984 . S
N1588 H1601 0.985 1_556 S
N1589 C1591 1.356 . S
N1589 H1594 0.984 . S
N1589 H1595 0.985 . S
C1590 C1584 1.379 . S
C1590 C1587 1.363 1_556 S
C1590 N1588 1.356 . S
C1591 C1585 1.363 1_454 S
C1591 C1586 1.379 1_455 S
C1591 N1589 1.356 . S
N1592 C1584 1.356 . S
N1592 H1598 0.984 . S
N1592 H1599 0.984 . S
N1593 C1586 1.356 1_455 S
N1593 H1596 0.984 . S
N1593 H1597 0.985 . S
H1594 N1589 0.984 . S
H1595 N1589 0.985 . S
H1596 N1593 0.984 . S
H1597 N1593 0.985 . S
H1598 N1592 0.984 . S
H1599 N1592 0.984 . S
H1600 N1588 0.984 . S
H1601 N1588 0.985 1_554 S
C955 C39 2.489 . S
C957 C781 2.489 1_554 S
C973 C674 2.499 1_554 S
C975 C91 2.499 . S
C991 C144 2.499 . S
C993 C728 2.489 1_554 S
C1009 C357 2.489 . S
C1011 C145 2.489 . S
C1027 C409 2.499 . S
C1029 C38 2.499 . S
C1045 C463 2.489 . S
C1047 C92 2.489 . S
C1063 C181 1.835 . S
C1065 C605 1.835 . S
C1081 C499 1.835 . S
C1083 C234 1.835 . S
C1099 C552 1.835 . S
C1101 C294 1.820 . S
C1117 C287 1.835 . S
C1119 C817 1.835 . S
C1135 C188 1.820 . S
C1137 C870 1.835 . S
C1153 C930 1.820 . S
C1155 C241 1.820 . S
C1171 C675 2.489 . S
C1173 C462 2.499 . S
C1189 C356 2.499 . S
C1191 C727 2.499 . S
C1207 C780 2.499 . S
C1209 C410 2.489 . S
C1225 C923 1.835 . S
C1227 C506 1.820 . S
C1243 C559 1.820 . S
C1245 C824 1.820 . S
C1261 C877 1.820 . S
C1263 C612 1.820 . S
C1279 C833 1.577 . S
C1281 C29 1.582 . S
C1297 C75 1.577 . S
C1299 C886 1.577 . S
C1315 C128 1.577 . S
C1317 C940 1.582 . S
C1333 C135 1.582 . S
C1335 C621 1.577 . S
C1351 C515 1.577 . S
C1353 C22 1.577 . S
C1369 C82 1.582 . S
C1371 C568 1.577 . S
C1387 C347 1.582 . S
C1389 C197 1.577 . S
C1405 C393 1.577 . S
C1407 C250 1.577 . S
C1423 C304 1.583 . S
C1425 C453 1.582 . S
C1441 C303 1.577 . S
C1443 C771 1.582 . S
C1459 C198 1.583 . S
C1461 C658 1.577 . S
C1477 C251 1.582 . S
C1479 C718 1.582 . S
C1495 C446 1.577 . S
C1497 C939 1.577 . S
C1513 C340 1.577 . S
C1515 C834 1.582 . S
C1531 C887 1.583 . S
C1533 C400 1.582 . S
C1549 C665 1.582 . S
C1551 C516 1.583 . S
C1567 C711 1.577 . S
C1569 C569 1.583 . S
C1585 C764 1.577 . S
C1587 C622 1.582 . S
