# Generated by pormake.
# Topology snv-x, (7)-cn, num edge types: 1
# Building blocks:
#     Node 0, Type 0, BuildingBlock: NUHQUE_clean_sbu_2, # of connection points: 7
#     Node 1, Type 0, BuildingBlock: NUHQUE_clean_sbu_2, # of connection points: 7
#     Node 2, Type 0, BuildingBlock: NUHQUE_clean_sbu_2, # of connection points: 7
#     Node 3, Type 0, BuildingBlock: NUHQUE_clean_sbu_2, # of connection points: 7
#     Node 4, Type 0, BuildingBlock: NUHQUE_clean_sbu_2, # of connection points: 7
#     Node 5, Type 0, BuildingBlock: NUHQUE_clean_sbu_2, # of connection points: 7
#     Node 6, Type 0, BuildingBlock: NUHQUE_clean_sbu_2, # of connection points: 7
#     Node 7, Type 0, BuildingBlock: NUHQUE_clean_sbu_2, # of connection points: 7
#     Node 8, Type 0, BuildingBlock: NUHQUE_clean_sbu_2, # of connection points: 7
#     Node 9, Type 0, BuildingBlock: NUHQUE_clean_sbu_2, # of connection points: 7
#     Node 10, Type 0, BuildingBlock: NUHQUE_clean_sbu_2, # of connection points: 7
#     Node 11, Type 0, BuildingBlock: NUHQUE_clean_sbu_2, # of connection points: 7
#     Node 12, Type 0, BuildingBlock: NUHQUE_clean_sbu_2, # of connection points: 7
#     Node 13, Type 0, BuildingBlock: NUHQUE_clean_sbu_2, # of connection points: 7
#     Node 14, Type 0, BuildingBlock: NUHQUE_clean_sbu_2, # of connection points: 7
#     Node 15, Type 0, BuildingBlock: NUHQUE_clean_sbu_2, # of connection points: 7
#     Node 16, Type 0, BuildingBlock: NUHQUE_clean_sbu_2, # of connection points: 7
#     Node 17, Type 0, BuildingBlock: NUHQUE_clean_sbu_2, # of connection points: 7
#     Node 18, Type 0, BuildingBlock: NUHQUE_clean_sbu_2, # of connection points: 7
#     Node 19, Type 0, BuildingBlock: NUHQUE_clean_sbu_2, # of connection points: 7
#     Node 20, Type 0, BuildingBlock: NUHQUE_clean_sbu_2, # of connection points: 7
#     Node 21, Type 0, BuildingBlock: NUHQUE_clean_sbu_2, # of connection points: 7
#     Node 22, Type 0, BuildingBlock: NUHQUE_clean_sbu_2, # of connection points: 7
#     Node 23, Type 0, BuildingBlock: NUHQUE_clean_sbu_2, # of connection points: 7
#     Edge 24, Type (0, 0), BuildingBlock: KIFKEQ_clean_linker_1, # of connection points: 2
#     Edge 25, Type (0, 0), BuildingBlock: KIFKEQ_clean_linker_1, # of connection points: 2
#     Edge 26, Type (0, 0), BuildingBlock: KIFKEQ_clean_linker_1, # of connection points: 2
#     Edge 27, Type (0, 0), BuildingBlock: KIFKEQ_clean_linker_1, # of connection points: 2
#     Edge 28, Type (0, 0), BuildingBlock: KIFKEQ_clean_linker_1, # of connection points: 2
#     Edge 29, Type (0, 0), BuildingBlock: KIFKEQ_clean_linker_1, # of connection points: 2
#     Edge 30, Type (0, 0), BuildingBlock: KIFKEQ_clean_linker_1, # of connection points: 2
#     Edge 31, Type (0, 0), BuildingBlock: KIFKEQ_clean_linker_1, # of connection points: 2
#     Edge 32, Type (0, 0), BuildingBlock: KIFKEQ_clean_linker_1, # of connection points: 2
#     Edge 33, Type (0, 0), BuildingBlock: KIFKEQ_clean_linker_1, # of connection points: 2
#     Edge 34, Type (0, 0), BuildingBlock: KIFKEQ_clean_linker_1, # of connection points: 2
#     Edge 35, Type (0, 0), BuildingBlock: KIFKEQ_clean_linker_1, # of connection points: 2
#     Edge 36, Type (0, 0), BuildingBlock: KIFKEQ_clean_linker_1, # of connection points: 2
#     Edge 37, Type (0, 0), BuildingBlock: KIFKEQ_clean_linker_1, # of connection points: 2
#     Edge 38, Type (0, 0), BuildingBlock: KIFKEQ_clean_linker_1, # of connection points: 2
#     Edge 39, Type (0, 0), BuildingBlock: KIFKEQ_clean_linker_1, # of connection points: 2
#     Edge 40, Type (0, 0), BuildingBlock: KIFKEQ_clean_linker_1, # of connection points: 2
#     Edge 41, Type (0, 0), BuildingBlock: KIFKEQ_clean_linker_1, # of connection points: 2
#     Edge 42, Type (0, 0), BuildingBlock: KIFKEQ_clean_linker_1, # of connection points: 2
#     Edge 43, Type (0, 0), BuildingBlock: KIFKEQ_clean_linker_1, # of connection points: 2
#     Edge 44, Type (0, 0), BuildingBlock: KIFKEQ_clean_linker_1, # of connection points: 2
#     Edge 45, Type (0, 0), BuildingBlock: KIFKEQ_clean_linker_1, # of connection points: 2
#     Edge 46, Type (0, 0), BuildingBlock: KIFKEQ_clean_linker_1, # of connection points: 2
#     Edge 47, Type (0, 0), BuildingBlock: KIFKEQ_clean_linker_1, # of connection points: 2
#     Edge 48, Type (0, 0), BuildingBlock: KIFKEQ_clean_linker_1, # of connection points: 2
#     Edge 49, Type (0, 0), BuildingBlock: KIFKEQ_clean_linker_1, # of connection points: 2
#     Edge 50, Type (0, 0), BuildingBlock: KIFKEQ_clean_linker_1, # of connection points: 2
#     Edge 51, Type (0, 0), BuildingBlock: KIFKEQ_clean_linker_1, # of connection points: 2
#     Edge 52, Type (0, 0), BuildingBlock: KIFKEQ_clean_linker_1, # of connection points: 2
#     Edge 53, Type (0, 0), BuildingBlock: KIFKEQ_clean_linker_1, # of connection points: 2
#     Edge 54, Type (0, 0), BuildingBlock: KIFKEQ_clean_linker_1, # of connection points: 2
#     Edge 55, Type (0, 0), BuildingBlock: KIFKEQ_clean_linker_1, # of connection points: 2
#     Edge 56, Type (0, 0), BuildingBlock: KIFKEQ_clean_linker_1, # of connection points: 2
#     Edge 57, Type (0, 0), BuildingBlock: KIFKEQ_clean_linker_1, # of connection points: 2
#     Edge 58, Type (0, 0), BuildingBlock: KIFKEQ_clean_linker_1, # of connection points: 2
#     Edge 59, Type (0, 0), BuildingBlock: KIFKEQ_clean_linker_1, # of connection points: 2
#     Edge 60, Type (0, 0), BuildingBlock: KIFKEQ_clean_linker_1, # of connection points: 2
#     Edge 61, Type (0, 0), BuildingBlock: KIFKEQ_clean_linker_1, # of connection points: 2
#     Edge 62, Type (0, 0), BuildingBlock: KIFKEQ_clean_linker_1, # of connection points: 2
#     Edge 63, Type (0, 0), BuildingBlock: KIFKEQ_clean_linker_1, # of connection points: 2
#     Edge 64, Type (0, 0), BuildingBlock: KIFKEQ_clean_linker_1, # of connection points: 2
#     Edge 65, Type (0, 0), BuildingBlock: KIFKEQ_clean_linker_1, # of connection points: 2
#     Edge 66, Type (0, 0), BuildingBlock: KIFKEQ_clean_linker_1, # of connection points: 2
#     Edge 67, Type (0, 0), BuildingBlock: KIFKEQ_clean_linker_1, # of connection points: 2
#     Edge 68, Type (0, 0), BuildingBlock: KIFKEQ_clean_linker_1, # of connection points: 2
#     Edge 69, Type (0, 0), BuildingBlock: KIFKEQ_clean_linker_1, # of connection points: 2
#     Edge 70, Type (0, 0), BuildingBlock: KIFKEQ_clean_linker_1, # of connection points: 2
#     Edge 71, Type (0, 0), BuildingBlock: KIFKEQ_clean_linker_1, # of connection points: 2
#     Edge 72, Type (0, 0), BuildingBlock: KIFKEQ_clean_linker_1, # of connection points: 2
#     Edge 73, Type (0, 0), BuildingBlock: KIFKEQ_clean_linker_1, # of connection points: 2
#     Edge 74, Type (0, 0), BuildingBlock: KIFKEQ_clean_linker_1, # of connection points: 2
#     Edge 75, Type (0, 0), BuildingBlock: KIFKEQ_clean_linker_1, # of connection points: 2
#     Edge 76, Type (0, 0), BuildingBlock: KIFKEQ_clean_linker_1, # of connection points: 2
#     Edge 77, Type (0, 0), BuildingBlock: KIFKEQ_clean_linker_1, # of connection points: 2
#     Edge 78, Type (0, 0), BuildingBlock: KIFKEQ_clean_linker_1, # of connection points: 2
#     Edge 79, Type (0, 0), BuildingBlock: KIFKEQ_clean_linker_1, # of connection points: 2
#     Edge 80, Type (0, 0), BuildingBlock: KIFKEQ_clean_linker_1, # of connection points: 2
#     Edge 81, Type (0, 0), BuildingBlock: KIFKEQ_clean_linker_1, # of connection points: 2
#     Edge 82, Type (0, 0), BuildingBlock: KIFKEQ_clean_linker_1, # of connection points: 2
#     Edge 83, Type (0, 0), BuildingBlock: KIFKEQ_clean_linker_1, # of connection points: 2
#     Edge 84, Type (0, 0), BuildingBlock: KIFKEQ_clean_linker_1, # of connection points: 2
#     Edge 85, Type (0, 0), BuildingBlock: KIFKEQ_clean_linker_1, # of connection points: 2
#     Edge 86, Type (0, 0), BuildingBlock: KIFKEQ_clean_linker_1, # of connection points: 2
#     Edge 87, Type (0, 0), BuildingBlock: KIFKEQ_clean_linker_1, # of connection points: 2
#     Edge 88, Type (0, 0), BuildingBlock: KIFKEQ_clean_linker_1, # of connection points: 2
#     Edge 89, Type (0, 0), BuildingBlock: KIFKEQ_clean_linker_1, # of connection points: 2
#     Edge 90, Type (0, 0), BuildingBlock: KIFKEQ_clean_linker_1, # of connection points: 2
#     Edge 91, Type (0, 0), BuildingBlock: KIFKEQ_clean_linker_1, # of connection points: 2
#     Edge 92, Type (0, 0), BuildingBlock: KIFKEQ_clean_linker_1, # of connection points: 2
#     Edge 93, Type (0, 0), BuildingBlock: KIFKEQ_clean_linker_1, # of connection points: 2
#     Edge 94, Type (0, 0), BuildingBlock: KIFKEQ_clean_linker_1, # of connection points: 2
#     Edge 95, Type (0, 0), BuildingBlock: KIFKEQ_clean_linker_1, # of connection points: 2
#     Edge 96, Type (0, 0), BuildingBlock: KIFKEQ_clean_linker_1, # of connection points: 2
#     Edge 97, Type (0, 0), BuildingBlock: KIFKEQ_clean_linker_1, # of connection points: 2
#     Edge 98, Type (0, 0), BuildingBlock: KIFKEQ_clean_linker_1, # of connection points: 2
#     Edge 99, Type (0, 0), BuildingBlock: KIFKEQ_clean_linker_1, # of connection points: 2
#     Edge 100, Type (0, 0), BuildingBlock: KIFKEQ_clean_linker_1, # of connection points: 2
#     Edge 101, Type (0, 0), BuildingBlock: KIFKEQ_clean_linker_1, # of connection points: 2
#     Edge 102, Type (0, 0), BuildingBlock: KIFKEQ_clean_linker_1, # of connection points: 2
#     Edge 103, Type (0, 0), BuildingBlock: KIFKEQ_clean_linker_1, # of connection points: 2
#     Edge 104, Type (0, 0), BuildingBlock: KIFKEQ_clean_linker_1, # of connection points: 2
#     Edge 105, Type (0, 0), BuildingBlock: KIFKEQ_clean_linker_1, # of connection points: 2
#     Edge 106, Type (0, 0), BuildingBlock: KIFKEQ_clean_linker_1, # of connection points: 2
#     Edge 107, Type (0, 0), BuildingBlock: KIFKEQ_clean_linker_1, # of connection points: 2
# Relax obj value: 0.187
# Max RMSD: 0.251
# Mean RMSD: 0.251
data_MOF--net-snv-x--node1-NUHQUE_clean_sbu_2--edge1-KIFKEQ_clean_linker_1
_symmetry_space_group_name_H-M    P1
_symmetry_Int_Tables_number       1
_symmetry_cell_setting            triclinic
loop_
_symmetry_equiv_pos_as_xyz
'x, y, z'
_cell_length_a     54.598129
_cell_length_b     54.534901
_cell_length_c     54.666421
_cell_angle_alpha  89.921847
_cell_angle_beta   90.016805
_cell_angle_gamma 90.077717
loop_
_atom_site_label
_atom_site_type_symbol
_atom_site_fract_x
_atom_site_fract_y
_atom_site_fract_z
_atom_type_partial_charge
O0 O 0.14201 0.46987 0.26882 0.0
Tb1 Tb 0.12176 0.45318 0.30023 0.0
Eu2 Eu 0.13982 0.40314 0.36363 0.0
C3 C 0.1663 0.47103 0.26791 0.0
O4 O 0.17881 0.4586 0.28429 0.0
C5 C 0.15832 0.45214 0.34559 0.0
O6 O 0.13724 0.39353 0.40356 0.0
C7 C 0.15853 0.36713 0.33937 0.0
C8 C 0.15177 0.37616 0.41182 0.0
O9 O 0.16692 0.36554 0.39649 0.0
C10 C 0.09661 0.40905 0.32557 0.0
C11 C 0.16105 0.35427 0.31586 0.0
C12 C 0.17042 0.36576 0.29484 0.0
C13 C 0.17631 0.35175 0.27404 0.0
C14 C 0.1709 0.32647 0.2741 0.0
C15 C 0.16324 0.31444 0.29556 0.0
C16 C 0.1577 0.32881 0.31611 0.0
O17 O 0.14911 0.44093 0.32628 0.0
O18 O 0.16178 0.43801 0.36468 0.0
O19 O 0.08809 0.47348 0.29513 0.0
O20 O 0.10799 0.4781 0.32833 0.0
C21 C 0.08833 0.4842 0.31636 0.0
O22 O 0.10767 0.42008 0.34387 0.0
O23 O 0.09972 0.41879 0.30334 0.0
O24 O 0.13705 0.36586 0.35021 0.0
O25 O 0.17012 0.38806 0.34267 0.0
H26 H 0.17465 0.38517 0.29523 0.0
H27 H 0.17527 0.31564 0.25816 0.0
H28 H 0.15275 0.32015 0.33326 0.0
O29 O 0.56798 0.1344 0.27052 0.0
Tb30 Tb 0.58489 0.12269 0.30559 0.0
Eu31 Eu 0.62595 0.14777 0.34866 0.0
C32 C 0.57099 0.15667 0.26114 0.0
O33 O 0.5886 0.17061 0.26979 0.0
C34 C 0.57337 0.16246 0.34156 0.0
O35 O 0.65004 0.1531 0.38159 0.0
C36 C 0.64132 0.17018 0.30984 0.0
C37 C 0.64855 0.13666 0.39913 0.0
O38 O 0.63418 0.11759 0.39588 0.0
C39 C 0.63135 0.09282 0.32666 0.0
C40 C 0.6641 0.17243 0.29599 0.0
C41 C 0.66333 0.18258 0.27256 0.0
C42 C 0.68506 0.18809 0.26015 0.0
C43 C 0.70763 0.18331 0.27151 0.0
C44 C 0.70875 0.17321 0.29526 0.0
C45 C 0.68665 0.16687 0.30692 0.0
O46 O 0.58288 0.15963 0.31977 0.0
O47 O 0.58785 0.15718 0.35976 0.0
O48 O 0.55087 0.10215 0.30654 0.0
O49 O 0.57013 0.10818 0.3399 0.0
C50 C 0.55059 0.09889 0.33007 0.0
O51 O 0.63258 0.10733 0.34591 0.0
O52 O 0.61782 0.09812 0.3068 0.0
O53 O 0.64127 0.18028 0.33169 0.0
O54 O 0.6307 0.14861 0.30915 0.0
H55 H 0.64582 0.18733 0.26446 0.0
H56 H 0.72414 0.18979 0.26261 0.0
H57 H 0.68675 0.15887 0.32507 0.0
O58 O 0.90541 0.5689 0.2759 0.0
Tb59 Tb 0.91426 0.58795 0.31066 0.0
Eu60 Eu 0.8862 0.6309 0.34948 0.0
C61 C 0.88457 0.57245 0.26388 0.0
O62 O 0.87112 0.59157 0.26954 0.0
C63 C 0.87072 0.57823 0.34238 0.0
O64 O 0.87508 0.65303 0.38238 0.0
C65 C 0.86716 0.64643 0.30885 0.0
C66 C 0.888 0.67134 0.39119 0.0
O67 O 0.90729 0.67917 0.37913 0.0
C68 C 0.94329 0.63439 0.33251 0.0
C69 C 0.86683 0.66928 0.29467 0.0
C70 C 0.86269 0.66831 0.26939 0.0
C71 C 0.85923 0.68996 0.25579 0.0
C72 C 0.86209 0.7126 0.26792 0.0
C73 C 0.8655 0.71391 0.29341 0.0
C74 C 0.86831 0.69199 0.30657 0.0
O75 O 0.87599 0.58672 0.32063 0.0
O76 O 0.87499 0.59318 0.3604 0.0
O77 O 0.93529 0.55464 0.31577 0.0
O78 O 0.92526 0.57538 0.34711 0.0
C79 C 0.93619 0.5557 0.3395 0.0
O80 O 0.92703 0.63668 0.35034 0.0
O81 O 0.93885 0.62086 0.31244 0.0
O82 O 0.85556 0.64685 0.32991 0.0
O83 O 0.88821 0.63493 0.30983 0.0
H84 H 0.86107 0.65055 0.26068 0.0
H85 H 0.85975 0.72946 0.25786 0.0
H86 H 0.87017 0.69236 0.3263 0.0
O87 O 0.4567 0.89919 0.26517 0.0
Tb88 Tb 0.44248 0.91081 0.30156 0.0
Eu89 Eu 0.41152 0.88141 0.34621 0.0
C90 C 0.45695 0.87587 0.25803 0.0
O91 O 0.4441 0.85984 0.27057 0.0
C92 C 0.46739 0.87484 0.33854 0.0
O93 O 0.3944 0.86797 0.38114 0.0
C94 C 0.39572 0.85887 0.30775 0.0
C95 C 0.37303 0.87599 0.38871 0.0
O96 O 0.36048 0.89107 0.37478 0.0
C97 C 0.3948 0.93363 0.32766 0.0
C98 C 0.37308 0.86045 0.29325 0.0
C99 C 0.37443 0.86014 0.26764 0.0
C100 C 0.35298 0.85942 0.25328 0.0
C101 C 0.33027 0.86177 0.26541 0.0
C102 C 0.32853 0.86147 0.29108 0.0
C103 C 0.3502 0.86114 0.30484 0.0
O104 O 0.46182 0.87844 0.31543 0.0
O105 O 0.45091 0.87804 0.35552 0.0
O106 O 0.46292 0.94404 0.29431 0.0
O107 O 0.46001 0.93101 0.33113 0.0
C108 C 0.46845 0.94835 0.31709 0.0
O109 O 0.39781 0.91973 0.34704 0.0
O110 O 0.40541 0.92813 0.30624 0.0
O111 O 0.39376 0.84972 0.32996 0.0
O112 O 0.41002 0.87814 0.3066 0.0
H113 H 0.39232 0.85946 0.2592 0.0
H114 H 0.31348 0.86193 0.25506 0.0
H115 H 0.34936 0.86023 0.3246 0.0
O116 O 0.13349 0.56825 0.76675 0.0
Tb117 Tb 0.1218 0.58643 0.73223 0.0
Eu118 Eu 0.14683 0.62952 0.69093 0.0
C119 C 0.15526 0.57194 0.77702 0.0
O120 O 0.16827 0.59097 0.77001 0.0
C121 C 0.16316 0.5773 0.69792 0.0
O122 O 0.1571 0.65297 0.65869 0.0
C123 C 0.16745 0.64478 0.73082 0.0
C124 C 0.14181 0.66777 0.64749 0.0
O125 O 0.11981 0.6712 0.65657 0.0
C126 C 0.0907 0.63226 0.71073 0.0
C127 C 0.17019 0.66827 0.74337 0.0
C128 C 0.18186 0.6688 0.76606 0.0
C129 C 0.188 0.69121 0.77687 0.0
C130 C 0.18232 0.71317 0.76469 0.0
C131 C 0.17072 0.71301 0.7416 0.0
C132 C 0.16393 0.69024 0.73153 0.0
O133 O 0.15927 0.5865 0.71965 0.0
O134 O 0.15728 0.59163 0.6798 0.0
O135 O 0.10239 0.55183 0.72953 0.0
O136 O 0.10957 0.57201 0.69692 0.0
C137 C 0.1004 0.55196 0.70585 0.0
O138 O 0.106 0.63506 0.69215 0.0
O139 O 0.09591 0.61838 0.73045 0.0
O140 O 0.17903 0.64297 0.70986 0.0
O141 O 0.1453 0.63553 0.7303 0.0
H142 H 0.18729 0.65175 0.77476 0.0
H143 H 0.18913 0.73017 0.77233 0.0
H144 H 0.15495 0.68933 0.71388 0.0
O145 O 0.4778 0.1311 0.76535 0.0
Tb146 Tb 0.45977 0.11711 0.73162 0.0
Eu147 Eu 0.39589 0.13422 0.67993 0.0
C148 C 0.47347 0.15296 0.77506 0.0
O149 O 0.45479 0.16573 0.76688 0.0
C150 C 0.44465 0.15998 0.6975 0.0
O151 O 0.39195 0.12638 0.63977 0.0
C152 C 0.3558 0.1491 0.7 0.0
C153 C 0.37051 0.12117 0.63011 0.0
O154 O 0.3516 0.11763 0.64454 0.0
C155 C 0.41739 0.08771 0.71385 0.0
C156 C 0.34417 0.15518 0.72345 0.0
C157 C 0.35707 0.16666 0.74249 0.0
C158 C 0.3446 0.17454 0.76358 0.0
C159 C 0.31948 0.16915 0.76591 0.0
C160 C 0.30588 0.15977 0.74612 0.0
C161 C 0.31878 0.15213 0.72521 0.0
O162 O 0.43914 0.14858 0.71808 0.0
O163 O 0.4274 0.16158 0.68059 0.0
O164 O 0.49785 0.10867 0.72291 0.0
O165 O 0.47206 0.10953 0.69422 0.0
C166 C 0.49492 0.10619 0.69949 0.0
O167 O 0.41737 0.11004 0.705 0.0
O168 O 0.43467 0.08479 0.73062 0.0
O169 O 0.36046 0.12576 0.69597 0.0
O170 O 0.3727 0.1642 0.69165 0.0
H171 H 0.37639 0.17072 0.74029 0.0
H172 H 0.31003 0.17482 0.78231 0.0
H173 H 0.3091 0.14545 0.70928 0.0
O174 O 0.90267 0.46075 0.77285 0.0
Tb175 Tb 0.91536 0.44504 0.73755 0.0
Eu176 Eu 0.89036 0.4166 0.6898 0.0
C177 C 0.87917 0.45992 0.77908 0.0
O178 O 0.86489 0.44459 0.76724 0.0
C179 C 0.88012 0.47044 0.70101 0.0
O180 O 0.88319 0.39892 0.65351 0.0
C181 C 0.86352 0.39872 0.72448 0.0
C182 C 0.89529 0.40755 0.63462 0.0
O183 O 0.91078 0.42567 0.63811 0.0
C184 C 0.94006 0.39811 0.71296 0.0
C185 C 0.86168 0.37517 0.73725 0.0
C186 C 0.85333 0.37474 0.76141 0.0
C187 C 0.84956 0.35236 0.77341 0.0
C188 C 0.854 0.33039 0.76087 0.0
C189 C 0.86211 0.33042 0.73639 0.0
C190 C 0.86692 0.35313 0.7251 0.0
O191 O 0.88172 0.46168 0.72331 0.0
O192 O 0.88635 0.45653 0.68265 0.0
O193 O 0.94807 0.4667 0.74339 0.0
O194 O 0.93462 0.46186 0.70696 0.0
C195 C 0.95189 0.47137 0.72032 0.0
O196 O 0.92864 0.40304 0.69242 0.0
O197 O 0.93282 0.40795 0.73421 0.0
O198 O 0.85662 0.39902 0.70141 0.0
O199 O 0.88363 0.41115 0.72861 0.0
H200 H 0.84891 0.3918 0.77059 0.0
H201 H 0.84876 0.31336 0.76964 0.0
H202 H 0.8736 0.35381 0.70646 0.0
O203 O 0.57656 0.91247 0.77149 0.0
Tb204 Tb 0.59081 0.92243 0.73474 0.0
Eu205 Eu 0.61735 0.89194 0.68927 0.0
C206 C 0.57923 0.8901 0.78077 0.0
O207 O 0.5953 0.87535 0.77071 0.0
C208 C 0.56384 0.88406 0.70299 0.0
O209 O 0.63486 0.87939 0.65431 0.0
C210 C 0.6348 0.86875 0.72682 0.0
C211 C 0.65696 0.88657 0.64803 0.0
O212 O 0.66943 0.90082 0.66286 0.0
C213 C 0.63596 0.94487 0.70546 0.0
C214 C 0.65898 0.86622 0.73805 0.0
C215 C 0.66097 0.85747 0.76206 0.0
C216 C 0.68412 0.85313 0.77242 0.0
C217 C 0.7052 0.85856 0.75859 0.0
C218 C 0.70332 0.86712 0.73445 0.0
C219 C 0.68012 0.87119 0.72437 0.0
O220 O 0.57344 0.88771 0.72467 0.0
O221 O 0.57719 0.88821 0.68363 0.0
O222 O 0.56985 0.95579 0.73893 0.0
O223 O 0.57299 0.93961 0.70347 0.0
C224 C 0.56452 0.95815 0.7158 0.0
O225 O 0.6306 0.9306 0.68684 0.0
O226 O 0.62745 0.93981 0.72789 0.0
O227 O 0.6321 0.85858 0.7052 0.0
O228 O 0.6251 0.89064 0.72826 0.0
H229 H 0.64451 0.85313 0.77228 0.0
H230 H 0.72314 0.85381 0.76567 0.0
H231 H 0.67851 0.87716 0.70552 0.0
O232 O 0.26751 0.13254 0.46429 0.0
Tb233 Tb 0.30128 0.11778 0.44643 0.0
Eu234 Eu 0.34536 0.14281 0.39964 0.0
C235 C 0.26094 0.15594 0.4621 0.0
O236 O 0.27192 0.16926 0.44534 0.0
C237 C 0.3396 0.15752 0.45188 0.0
O238 O 0.37854 0.14542 0.37524 0.0
C239 C 0.30633 0.16329 0.38212 0.0
C240 C 0.39642 0.12982 0.37939 0.0
O241 O 0.393 0.11267 0.39596 0.0
C242 C 0.32204 0.08748 0.40037 0.0
C243 C 0.29321 0.16318 0.35873 0.0
C244 C 0.26874 0.17073 0.35795 0.0
C245 C 0.25701 0.17444 0.33539 0.0
C246 C 0.27038 0.17055 0.31375 0.0
C247 C 0.2949 0.16246 0.31415 0.0
C248 C 0.30576 0.15781 0.33702 0.0
O249 O 0.31788 0.15343 0.44261 0.0
O250 O 0.35751 0.15577 0.43636 0.0
O251 O 0.30445 0.09617 0.47994 0.0
O252 O 0.33639 0.10359 0.45904 0.0
C253 C 0.32802 0.093 0.47854 0.0
O254 O 0.34167 0.10166 0.39867 0.0
O255 O 0.30202 0.09336 0.41351 0.0
O256 O 0.32801 0.17388 0.38198 0.0
O257 O 0.30578 0.14271 0.39452 0.0
H258 H 0.25922 0.17462 0.3749 0.0
H259 H 0.26216 0.1761 0.29664 0.0
H260 H 0.32447 0.15139 0.33821 0.0
O261 O 0.90043 0.26894 0.45493 0.0
Tb262 Tb 0.91731 0.30364 0.44103 0.0
Eu263 Eu 0.89345 0.3506 0.40743 0.0
C264 C 0.87644 0.26451 0.45413 0.0
O265 O 0.86263 0.27873 0.44052 0.0
C266 C 0.88531 0.34547 0.46272 0.0
O267 O 0.8863 0.38491 0.38573 0.0
C268 C 0.8672 0.31328 0.39449 0.0
C269 C 0.90169 0.40315 0.38908 0.0
O270 O 0.92029 0.39978 0.40397 0.0
C271 C 0.94532 0.3275 0.39433 0.0
C272 C 0.86404 0.29912 0.37205 0.0
C273 C 0.85224 0.27638 0.37299 0.0
C274 C 0.84725 0.26359 0.35137 0.0
C275 C 0.85371 0.27405 0.3288 0.0
C276 C 0.86521 0.2972 0.3275 0.0
C277 C 0.87138 0.30898 0.34953 0.0
O278 O 0.88545 0.32208 0.45696 0.0
O279 O 0.89111 0.36179 0.44627 0.0
O280 O 0.94748 0.29289 0.46442 0.0
O281 O 0.93908 0.33095 0.46031 0.0
C282 C 0.95378 0.31514 0.47038 0.0
O283 O 0.93214 0.34755 0.39547 0.0
O284 O 0.93837 0.30673 0.40561 0.0
O285 O 0.85901 0.33597 0.39392 0.0
O286 O 0.88868 0.31116 0.40495 0.0
H287 H 0.84625 0.26901 0.39043 0.0
H288 H 0.84753 0.26499 0.3123 0.0
H289 H 0.88073 0.32651 0.34932 0.0
O290 O 0.77188 0.9081 0.46363 0.0
Tb291 Tb 0.73642 0.91957 0.44722 0.0
Eu292 Eu 0.69156 0.88989 0.41624 0.0
C293 C 0.78018 0.88522 0.46251 0.0
O294 O 0.77016 0.87008 0.44674 0.0
C295 C 0.70053 0.88288 0.47086 0.0
O296 O 0.65695 0.87954 0.3966 0.0
C297 C 0.72967 0.86537 0.40231 0.0
C298 C 0.63649 0.88792 0.40599 0.0
O299 O 0.63776 0.90152 0.42578 0.0
C300 C 0.71087 0.94231 0.39932 0.0
C301 C 0.74402 0.86231 0.37992 0.0
C302 C 0.76776 0.85273 0.38152 0.0
C303 C 0.7813 0.8483 0.36024 0.0
C304 C 0.77061 0.85317 0.33738 0.0
C305 C 0.74673 0.86267 0.33535 0.0
C306 C 0.73381 0.86789 0.35699 0.0
O307 O 0.72305 0.88518 0.46289 0.0
O308 O 0.6825 0.88717 0.45582 0.0
O309 O 0.74231 0.95212 0.46902 0.0
O310 O 0.70586 0.93848 0.46461 0.0
C311 C 0.71931 0.95577 0.47408 0.0
O312 O 0.6916 0.92818 0.40218 0.0
O313 O 0.73225 0.93736 0.41036 0.0
O314 O 0.70734 0.85624 0.40209 0.0
O315 O 0.73107 0.88706 0.4125 0.0
H316 H 0.77544 0.84816 0.39924 0.0
H317 H 0.78036 0.84751 0.3211 0.0
H318 H 0.71549 0.87544 0.35616 0.0
O319 O 0.14915 0.77001 0.44588 0.0
Tb320 Tb 0.13258 0.73366 0.43717 0.0
Eu321 Eu 0.15744 0.6795 0.4145 0.0
C322 C 0.17306 0.77364 0.44898 0.0
O323 O 0.18839 0.75691 0.44109 0.0
C324 C 0.1616 0.69564 0.46811 0.0
O325 O 0.16689 0.64203 0.39985 0.0
C326 C 0.18398 0.71489 0.39704 0.0
C327 C 0.1582 0.63441 0.37873 0.0
O328 O 0.14504 0.64949 0.36539 0.0
C329 C 0.10645 0.70075 0.39504 0.0
C330 C 0.18611 0.72888 0.37434 0.0
C331 C 0.19551 0.75274 0.37535 0.0
C332 C 0.198 0.7666 0.35395 0.0
C333 C 0.19135 0.75606 0.33149 0.0
C334 C 0.18179 0.73208 0.33008 0.0
C335 C 0.17853 0.71888 0.35196 0.0
O336 O 0.16308 0.71699 0.45711 0.0
O337 O 0.1581 0.67586 0.45508 0.0
O338 O 0.10211 0.75145 0.45482 0.0
O339 O 0.10934 0.7136 0.46253 0.0
C340 C 0.09514 0.7322 0.467 0.0
O341 O 0.11902 0.68106 0.40094 0.0
O342 O 0.11353 0.72326 0.40206 0.0
O343 O 0.19098 0.69182 0.39665 0.0
O344 O 0.16349 0.71832 0.40881 0.0
H345 H 0.20118 0.7604 0.39274 0.0
H346 H 0.19558 0.76607 0.31491 0.0
H347 H 0.17078 0.70059 0.3517 0.0
O348 O 0.2734 0.90386 0.56844 0.0
Tb349 Tb 0.30897 0.91374 0.5858 0.0
Eu350 Eu 0.34932 0.88195 0.62202 0.0
C351 C 0.26259 0.88224 0.57178 0.0
O352 O 0.26961 0.86859 0.5903 0.0
C353 C 0.34035 0.87115 0.56887 0.0
O354 O 0.38128 0.86854 0.6441 0.0
C355 C 0.30808 0.86272 0.6359 0.0
C356 C 0.38635 0.87705 0.66599 0.0
O357 O 0.37144 0.89288 0.67624 0.0
C358 C 0.33572 0.93876 0.63206 0.0
C359 C 0.29345 0.86028 0.65824 0.0
C360 C 0.26893 0.85299 0.65634 0.0
C361 C 0.25476 0.84954 0.67743 0.0
C362 C 0.26515 0.85455 0.70036 0.0
C363 C 0.29036 0.85968 0.70278 0.0
C364 C 0.30423 0.86328 0.68136 0.0
O365 O 0.31871 0.8759 0.57794 0.0
O366 O 0.3591 0.87492 0.58308 0.0
O367 O 0.30947 0.94065 0.55654 0.0
O368 O 0.34336 0.92626 0.5697 0.0
C369 C 0.33318 0.94121 0.55421 0.0
O370 O 0.35286 0.92173 0.63155 0.0
O371 O 0.3143 0.93583 0.62023 0.0
O372 O 0.3288 0.85049 0.6353 0.0
O373 O 0.30988 0.88495 0.62693 0.0
H374 H 0.26119 0.84888 0.63854 0.0
H375 H 0.25395 0.85204 0.71651 0.0
H376 H 0.32369 0.86695 0.6824 0.0
O377 O 0.14081 0.26488 0.58496 0.0
Tb378 Tb 0.126 0.30039 0.59908 0.0
Eu379 Eu 0.14615 0.34723 0.64338 0.0
C380 C 0.16464 0.25973 0.58534 0.0
O381 O 0.17893 0.27338 0.59903 0.0
C382 C 0.16442 0.34003 0.59218 0.0
O383 O 0.148 0.3814 0.66643 0.0
C384 C 0.16581 0.3088 0.66297 0.0
C385 C 0.13316 0.39942 0.66051 0.0
O386 O 0.11704 0.39562 0.64305 0.0
C387 C 0.09203 0.32291 0.64216 0.0
C388 C 0.16342 0.29562 0.68623 0.0
C389 C 0.16916 0.27069 0.68723 0.0
C390 C 0.17107 0.25865 0.70985 0.0
C391 C 0.16714 0.27225 0.73138 0.0
C392 C 0.16043 0.29727 0.73076 0.0
C393 C 0.15746 0.30833 0.70767 0.0
O394 O 0.16127 0.31819 0.60167 0.0
O395 O 0.16006 0.3583 0.60676 0.0
O396 O 0.10808 0.29806 0.5637 0.0
O397 O 0.11078 0.33282 0.58107 0.0
C398 C 0.10337 0.32129 0.5617 0.0
O399 O 0.10528 0.34317 0.64329 0.0
O400 O 0.09926 0.30253 0.63029 0.0
O401 O 0.17578 0.33077 0.66406 0.0
O402 O 0.1468 0.30762 0.6484 0.0
H403 H 0.17306 0.26101 0.67038 0.0
H404 H 0.17152 0.2636 0.74858 0.0
H405 H 0.15191 0.32727 0.706 0.0
O406 O 0.7573 0.14676 0.57037 0.0
Tb407 Tb 0.72118 0.13496 0.5855 0.0
Eu408 Eu 0.67403 0.1585 0.62613 0.0
C409 C 0.76605 0.16948 0.57223 0.0
O410 O 0.75541 0.18465 0.58752 0.0
C411 C 0.68421 0.1745 0.57418 0.0
O412 O 0.63869 0.16212 0.64746 0.0
C413 C 0.71225 0.18016 0.64409 0.0
C414 C 0.62007 0.14855 0.64024 0.0
O415 O 0.6236 0.13325 0.62203 0.0
C416 C 0.69754 0.10403 0.63024 0.0
C417 C 0.7281 0.18016 0.66561 0.0
C418 C 0.75076 0.19191 0.66399 0.0
C419 C 0.76556 0.19439 0.68471 0.0
C420 C 0.75735 0.185 0.70717 0.0
C421 C 0.7344 0.17314 0.70922 0.0
C422 C 0.72036 0.16993 0.68782 0.0
O423 O 0.70567 0.17145 0.58443 0.0
O424 O 0.66527 0.17034 0.58812 0.0
O425 O 0.72258 0.11472 0.55138 0.0
O426 O 0.68815 0.11935 0.56886 0.0
C427 C 0.69924 0.11044 0.54988 0.0
O428 O 0.67754 0.11766 0.6295 0.0
O429 O 0.7183 0.11028 0.61844 0.0
O430 O 0.68984 0.18857 0.6469 0.0
O431 O 0.71351 0.16052 0.63043 0.0
H432 H 0.75651 0.19995 0.64675 0.0
H433 H 0.76802 0.18915 0.72332 0.0
H434 H 0.70287 0.16059 0.68841 0.0
O435 O 0.89438 0.77867 0.5922 0.0
Tb436 Tb 0.90952 0.74201 0.60191 0.0
Eu437 Eu 0.88143 0.69159 0.62586 0.0
C438 C 0.87058 0.78294 0.58916 0.0
O439 O 0.85475 0.76691 0.59763 0.0
C440 C 0.87895 0.70491 0.57125 0.0
O441 O 0.86858 0.65573 0.64151 0.0
C442 C 0.85626 0.72875 0.64135 0.0
C443 C 0.87397 0.64933 0.66405 0.0
O444 O 0.88618 0.66468 0.678 0.0
C445 C 0.93341 0.70936 0.64575 0.0
C446 C 0.85308 0.74272 0.66399 0.0
C447 C 0.84657 0.76748 0.66238 0.0
C448 C 0.84226 0.78135 0.68356 0.0
C449 C 0.84653 0.77021 0.70644 0.0
C450 C 0.85267 0.74518 0.70847 0.0
C451 C 0.85608 0.73159 0.68691 0.0
O452 O 0.87892 0.72693 0.58086 0.0
O453 O 0.88185 0.68587 0.58547 0.0
O454 O 0.94122 0.7579 0.58444 0.0
O455 O 0.93236 0.72016 0.57785 0.0
C456 C 0.94762 0.73791 0.57323 0.0
O457 O 0.91913 0.69045 0.64139 0.0
O458 O 0.92814 0.73186 0.63731 0.0
O459 O 0.84754 0.70626 0.64086 0.0
O460 O 0.87784 0.73081 0.63121 0.0
H461 H 0.84426 0.77568 0.64449 0.0
H462 H 0.8437 0.78066 0.72293 0.0
H463 H 0.8602 0.71219 0.68778 0.0
O464 O 0.44728 0.26483 0.14234 0.0
Tb465 Tb 0.43513 0.30024 0.1263 0.0
Eu466 Eu 0.40788 0.35224 0.14446 0.0
C467 C 0.44834 0.26078 0.16629 0.0
O468 O 0.43735 0.27624 0.18104 0.0
C469 C 0.46209 0.34151 0.15434 0.0
O470 O 0.39025 0.3891 0.14822 0.0
C471 C 0.39118 0.32183 0.17665 0.0
C472 C 0.39553 0.40603 0.132 0.0
O473 O 0.41044 0.40052 0.11396 0.0
C474 C 0.38977 0.32374 0.09704 0.0
C475 C 0.36775 0.31028 0.18297 0.0
C476 C 0.36762 0.28523 0.18854 0.0
C477 C 0.34608 0.27376 0.19632 0.0
C478 C 0.3245 0.28749 0.19852 0.0
C479 C 0.32449 0.31268 0.19327 0.0
C480 C 0.34604 0.32399 0.18506 0.0
O481 O 0.45323 0.31919 0.15671 0.0
O482 O 0.44803 0.35881 0.14566 0.0
O483 O 0.45804 0.28708 0.09686 0.0
O484 O 0.45387 0.32572 0.10201 0.0
C485 C 0.46389 0.30873 0.08874 0.0
O486 O 0.39351 0.3453 0.10702 0.0
O487 O 0.3992 0.30318 0.10661 0.0
O488 O 0.39329 0.3455 0.18074 0.0
O489 O 0.40107 0.3147 0.15599 0.0
H490 H 0.38453 0.27483 0.18782 0.0
H491 H 0.30819 0.27897 0.20605 0.0
H492 H 0.34617 0.34358 0.18164 0.0
O493 O 0.45847 0.78094 0.90162 0.0
Tb494 Tb 0.44363 0.74542 0.91503 0.0
Eu495 Eu 0.41354 0.69607 0.89235 0.0
C496 C 0.45738 0.78762 0.87827 0.0
O497 O 0.44328 0.775 0.86342 0.0
C498 C 0.46783 0.70624 0.88223 0.0
O499 O 0.39529 0.6594 0.88628 0.0
C500 C 0.39843 0.73015 0.86293 0.0
C501 C 0.40205 0.64097 0.90028 0.0
O502 O 0.41863 0.64505 0.91723 0.0
C503 C 0.3961 0.72296 0.941 0.0
C504 C 0.3757 0.74375 0.85895 0.0
C505 C 0.37659 0.76678 0.84759 0.0
C506 C 0.35489 0.77943 0.84242 0.0
C507 C 0.33233 0.76846 0.84828 0.0
C508 C 0.33109 0.74529 0.85961 0.0
C509 C 0.35312 0.73346 0.86566 0.0
O510 O 0.45963 0.72889 0.88225 0.0
O511 O 0.45352 0.68854 0.88976 0.0
O512 O 0.46604 0.75313 0.94684 0.0
O513 O 0.46038 0.71591 0.9361 0.0
C514 C 0.47053 0.73029 0.95212 0.0
O515 O 0.39935 0.70169 0.93019 0.0
O516 O 0.40678 0.7435 0.9328 0.0
O517 O 0.398 0.70669 0.85734 0.0
O518 O 0.4096 0.73476 0.88361 0.0
H519 H 0.3941 0.77459 0.84234 0.0
H520 H 0.3157 0.7773 0.84209 0.0
H521 H 0.35284 0.7158 0.87474 0.0
O522 O 0.26828 0.44708 0.89057 0.0
Tb523 Tb 0.30328 0.43709 0.90893 0.0
Eu524 Eu 0.35615 0.40927 0.88976 0.0
C525 C 0.26612 0.45092 0.86664 0.0
O526 O 0.28393 0.44381 0.85217 0.0
C527 C 0.34695 0.46509 0.88451 0.0
O528 O 0.39246 0.39066 0.88472 0.0
C529 C 0.3247 0.39457 0.85771 0.0
C530 C 0.41015 0.39562 0.90022 0.0
O531 O 0.40575 0.41094 0.91823 0.0
C532 C 0.32819 0.39095 0.93755 0.0
C533 C 0.31243 0.37148 0.85133 0.0
C534 C 0.28702 0.37177 0.84792 0.0
C535 C 0.27462 0.35047 0.84089 0.0
C536 C 0.28781 0.32878 0.83708 0.0
C537 C 0.31333 0.32833 0.84003 0.0
C538 C 0.32559 0.3496 0.84765 0.0
O539 O 0.32411 0.45786 0.88135 0.0
O540 O 0.36364 0.44927 0.89117 0.0
O541 O 0.32382 0.46001 0.93414 0.0
O542 O 0.28492 0.45708 0.93778 0.0
C543 C 0.30473 0.46698 0.94648 0.0
O544 O 0.34948 0.39378 0.92677 0.0
O545 O 0.30766 0.40127 0.92895 0.0
O546 O 0.34829 0.3962 0.85311 0.0
O547 O 0.31828 0.40422 0.87872 0.0
H548 H 0.27693 0.38877 0.85 0.0
H549 H 0.2784 0.31262 0.83027 0.0
H550 H 0.34535 0.34936 0.84953 0.0
O551 O 0.59088 0.26368 0.89838 0.0
Tb552 Tb 0.60141 0.29995 0.91377 0.0
Eu553 Eu 0.63871 0.34603 0.89298 0.0
C554 C 0.5914 0.25871 0.87458 0.0
O555 O 0.60344 0.27358 0.85998 0.0
C556 C 0.58465 0.34146 0.88039 0.0
O557 O 0.65908 0.38029 0.88214 0.0
C558 C 0.65162 0.30749 0.86863 0.0
C559 C 0.67405 0.39193 0.89696 0.0
O560 O 0.67961 0.38211 0.91819 0.0
C561 C 0.6467 0.32269 0.94616 0.0
C562 C 0.67382 0.2927 0.86676 0.0
C563 C 0.67245 0.26943 0.85636 0.0
C564 C 0.69386 0.25637 0.85116 0.0
C565 C 0.71672 0.26706 0.85635 0.0
C566 C 0.71845 0.2906 0.86704 0.0
C567 C 0.69654 0.3026 0.87337 0.0
O568 O 0.59179 0.31852 0.87974 0.0
O569 O 0.6001 0.35771 0.88851 0.0
O570 O 0.5696 0.29012 0.93526 0.0
O571 O 0.58002 0.32781 0.93272 0.0
C572 C 0.56405 0.31243 0.94137 0.0
O573 O 0.64894 0.34228 0.9322 0.0
O574 O 0.63347 0.30293 0.93966 0.0
O575 O 0.65307 0.32984 0.85971 0.0
O576 O 0.64032 0.30634 0.88968 0.0
H577 H 0.65473 0.26195 0.85132 0.0
H578 H 0.73296 0.25775 0.84992 0.0
H579 H 0.69685 0.32035 0.88219 0.0
O580 O 0.777 0.59508 0.89025 0.0
Tb581 Tb 0.74131 0.60409 0.90796 0.0
Eu582 Eu 0.68904 0.62786 0.88131 0.0
C583 C 0.77886 0.59079 0.86637 0.0
O584 O 0.76103 0.59819 0.85206 0.0
C585 C 0.70228 0.57312 0.87984 0.0
O586 O 0.65248 0.64278 0.86979 0.0
C587 C 0.72521 0.64382 0.85492 0.0
C588 C 0.64617 0.6654 0.87506 0.0
O589 O 0.66195 0.6797 0.88629 0.0
C590 C 0.7091 0.64801 0.9324 0.0
C591 C 0.74059 0.66578 0.85267 0.0
C592 C 0.76564 0.66267 0.84805 0.0
C593 C 0.78115 0.683 0.84576 0.0
C594 C 0.77136 0.70653 0.84938 0.0
C595 C 0.74601 0.71018 0.85239 0.0
C596 C 0.73075 0.68947 0.85461 0.0
O597 O 0.72415 0.58298 0.87852 0.0
O598 O 0.68321 0.58735 0.88209 0.0
O599 O 0.75906 0.58626 0.93853 0.0
O600 O 0.72111 0.57912 0.9314 0.0
C601 C 0.73967 0.57428 0.9455 0.0
O602 O 0.68971 0.64299 0.91906 0.0
O603 O 0.73146 0.63973 0.92641 0.0
O604 O 0.70223 0.64527 0.84784 0.0
O605 O 0.72804 0.63167 0.87534 0.0
H606 H 0.77296 0.64443 0.84538 0.0
H607 H 0.78332 0.72228 0.84779 0.0
H608 H 0.71116 0.69162 0.85678 0.0
O609 O 0.58075 0.77488 0.13348 0.0
Tb610 Tb 0.59643 0.73874 0.12306 0.0
Eu611 Eu 0.63334 0.69381 0.14861 0.0
C612 C 0.58357 0.78474 0.15553 0.0
O613 O 0.60107 0.77633 0.16974 0.0
C614 C 0.58217 0.70624 0.16541 0.0
O615 O 0.65138 0.65811 0.1585 0.0
C616 C 0.65272 0.73129 0.17041 0.0
C617 C 0.67147 0.64993 0.14817 0.0
O618 O 0.6828 0.66351 0.13184 0.0
C619 C 0.64066 0.71321 0.09314 0.0
C620 C 0.67621 0.74412 0.17201 0.0
C621 C 0.67682 0.7673 0.18285 0.0
C622 C 0.69924 0.77858 0.18834 0.0
C623 C 0.72117 0.76686 0.18174 0.0
C624 C 0.72076 0.74338 0.17113 0.0
C625 C 0.69814 0.73227 0.16591 0.0
O626 O 0.5923 0.72753 0.16092 0.0
O627 O 0.59456 0.68691 0.15905 0.0
O628 O 0.56364 0.74009 0.10086 0.0
O629 O 0.57808 0.70514 0.11092 0.0
C630 C 0.5605 0.71652 0.09965 0.0
O631 O 0.64041 0.69424 0.10822 0.0
O632 O 0.62916 0.73435 0.09845 0.0
O633 O 0.65199 0.70921 0.18003 0.0
O634 O 0.641 0.73304 0.14955 0.0
H635 H 0.65982 0.77583 0.1886 0.0
H636 H 0.73851 0.77474 0.18742 0.0
H637 H 0.69762 0.71379 0.15862 0.0
O638 O 0.26865 0.60057 0.14558 0.0
Tb639 Tb 0.30233 0.61183 0.12524 0.0
Eu640 Eu 0.35655 0.63828 0.14327 0.0
C641 C 0.26932 0.59447 0.16915 0.0
O642 O 0.28856 0.60088 0.18206 0.0
C643 C 0.34638 0.58254 0.14779 0.0
O644 O 0.39532 0.6504 0.15015 0.0
C645 C 0.32504 0.65375 0.17487 0.0
C646 C 0.40163 0.67344 0.15337 0.0
O647 O 0.38479 0.6906 0.15299 0.0
C648 C 0.32756 0.65816 0.09744 0.0
C649 C 0.30977 0.67573 0.17663 0.0
C650 C 0.28619 0.67376 0.18625 0.0
C651 C 0.27192 0.69478 0.19011 0.0
C652 C 0.28134 0.71789 0.18346 0.0
C653 C 0.30512 0.72001 0.17376 0.0
C654 C 0.31887 0.6987 0.16968 0.0
O655 O 0.32368 0.58975 0.15125 0.0
O656 O 0.36323 0.59828 0.14142 0.0
O657 O 0.32277 0.59037 0.09892 0.0
O658 O 0.28385 0.59352 0.09525 0.0
C659 C 0.30374 0.5842 0.08606 0.0
O660 O 0.34932 0.65424 0.10679 0.0
O661 O 0.30709 0.6487 0.10726 0.0
O662 O 0.34878 0.65685 0.17753 0.0
O663 O 0.31928 0.63886 0.15704 0.0
H664 H 0.27934 0.6559 0.19177 0.0
H665 H 0.27116 0.73432 0.18803 0.0
H666 H 0.33722 0.7002 0.1623 0.0
O667 O 0.77803 0.44564 0.14691 0.0
Tb668 Tb 0.74237 0.43626 0.12957 0.0
Eu669 Eu 0.68788 0.41474 0.15081 0.0
C670 C 0.78079 0.44844 0.17091 0.0
O671 O 0.76354 0.44026 0.18553 0.0
C672 C 0.70358 0.46911 0.15607 0.0
O673 O 0.64939 0.40279 0.15953 0.0
C674 C 0.72004 0.39642 0.18041 0.0
C675 C 0.64198 0.38038 0.15464 0.0
O676 O 0.65748 0.36479 0.14488 0.0
C677 C 0.71262 0.39204 0.10378 0.0
C678 C 0.73389 0.37353 0.18188 0.0
C679 C 0.75722 0.3739 0.19231 0.0
C680 C 0.77048 0.35216 0.19507 0.0
C681 C 0.75994 0.32991 0.18761 0.0
C682 C 0.73633 0.32912 0.17706 0.0
C683 C 0.72394 0.35143 0.17332 0.0
O684 O 0.72548 0.45925 0.15783 0.0
O685 O 0.68463 0.45544 0.15067 0.0
O686 O 0.76 0.45291 0.09826 0.0
O687 O 0.72166 0.4588 0.10426 0.0
C688 C 0.74024 0.46338 0.09009 0.0
O689 O 0.69179 0.39871 0.1137 0.0
O690 O 0.73422 0.39956 0.11274 0.0
O691 O 0.69634 0.39509 0.18443 0.0
O692 O 0.72575 0.41045 0.1619 0.0
H693 H 0.76484 0.39106 0.19884 0.0
H694 H 0.76952 0.31313 0.19204 0.0
H695 H 0.70614 0.35173 0.16461 0.0
H696 H 0.18045 0.34171 0.43386 0.0
H697 H 0.12353 0.39459 0.4489 0.0
H698 H 0.18289 0.33177 0.4772 0.0
H699 H 0.12566 0.38422 0.49233 0.0
H700 H 0.16032 0.38378 0.5685 0.0
H701 H 0.15561 0.39096 0.52492 0.0
H702 H 0.16063 0.31307 0.51156 0.0
H703 H 0.16583 0.30585 0.55542 0.0
C704 C 0.16828 0.35107 0.44639 0.0
C705 C 0.15197 0.36915 0.43797 0.0
C706 C 0.16958 0.34522 0.47122 0.0
C707 C 0.1546 0.35732 0.48821 0.0
C708 C 0.13774 0.37487 0.47971 0.0
C709 C 0.13644 0.38074 0.45483 0.0
C710 C 0.16055 0.36814 0.55632 0.0
C711 C 0.16336 0.3442 0.56545 0.0
C712 C 0.15757 0.37226 0.53133 0.0
C713 C 0.15745 0.35258 0.51481 0.0
C714 C 0.16075 0.32863 0.52384 0.0
C715 C 0.16373 0.32449 0.54894 0.0
H716 H 0.64544 0.10744 0.43937 0.0
H717 H 0.67628 0.17601 0.41404 0.0
H718 H 0.65709 0.11764 0.48109 0.0
H719 H 0.68824 0.18598 0.45615 0.0
H720 H 0.71979 0.17714 0.53878 0.0
H721 H 0.71522 0.16744 0.49512 0.0
H722 H 0.6379 0.15522 0.506 0.0
H723 H 0.64214 0.16518 0.54908 0.0
C724 C 0.65509 0.1245 0.4426 0.0
C725 C 0.65953 0.14114 0.42344 0.0
C726 C 0.66175 0.13029 0.4665 0.0
C727 C 0.67324 0.15269 0.47173 0.0
C728 C 0.67937 0.16859 0.45246 0.0
C729 C 0.67246 0.1629 0.42845 0.0
C730 C 0.70178 0.17273 0.53173 0.0
C731 C 0.68136 0.17176 0.54742 0.0
C732 C 0.69922 0.16717 0.50683 0.0
C733 C 0.67629 0.16028 0.49745 0.0
C734 C 0.65583 0.16013 0.51295 0.0
C735 C 0.65828 0.166 0.53759 0.0
H736 H 0.85138 0.6564 0.42178 0.0
H737 H 0.91294 0.70616 0.41757 0.0
H738 H 0.84613 0.66647 0.46482 0.0
H739 H 0.90765 0.71614 0.46082 0.0
H740 H 0.88016 0.74054 0.53606 0.0
H741 H 0.87944 0.73507 0.49171 0.0
H742 H 0.87114 0.65692 0.50161 0.0
H743 H 0.87179 0.66233 0.54587 0.0
C744 C 0.86362 0.66974 0.42992 0.0
C745 C 0.88277 0.68029 0.41625 0.0
C746 C 0.86066 0.67539 0.45465 0.0
C747 C 0.87664 0.69186 0.46628 0.0
C748 C 0.89497 0.70345 0.45233 0.0
C749 C 0.89804 0.69768 0.42757 0.0
C750 C 0.87783 0.72222 0.52878 0.0
C751 C 0.876 0.70184 0.5445 0.0
C752 C 0.8776 0.7191 0.50338 0.0
C753 C 0.87526 0.69559 0.49317 0.0
C754 C 0.87268 0.67532 0.50891 0.0
C755 C 0.87316 0.6784 0.53429 0.0
H756 H 0.33463 0.89623 0.41376 0.0
H757 H 0.39334 0.84365 0.42098 0.0
H758 H 0.3252 0.89152 0.45711 0.0
H759 H 0.38353 0.8385 0.46412 0.0
H760 H 0.38323 0.86594 0.54387 0.0
H761 H 0.38886 0.86377 0.49981 0.0
H762 H 0.31036 0.86492 0.48959 0.0
H763 H 0.30476 0.86762 0.53381 0.0
C764 C 0.34521 0.88331 0.42447 0.0
C765 C 0.36493 0.87056 0.41399 0.0
C766 C 0.33973 0.88052 0.44932 0.0
C767 C 0.35381 0.86484 0.46417 0.0
C768 C 0.37266 0.85111 0.45332 0.0
C769 C 0.37819 0.85397 0.42854 0.0
C770 C 0.36716 0.86545 0.53226 0.0
C771 C 0.34357 0.86708 0.54233 0.0
C772 C 0.37037 0.86405 0.50697 0.0
C773 C 0.35006 0.8642 0.49112 0.0
C774 C 0.3264 0.86507 0.50125 0.0
C775 C 0.32319 0.86647 0.5266 0.0
H776 H 0.18332 0.65841 0.62141 0.0
H777 H 0.11464 0.69764 0.61751 0.0
H778 H 0.1911 0.66779 0.57857 0.0
H779 H 0.12269 0.70714 0.5745 0.0
H780 H 0.15519 0.73275 0.50086 0.0
H781 H 0.15295 0.72949 0.54545 0.0
H782 H 0.16849 0.65204 0.54063 0.0
H783 H 0.17047 0.65516 0.49613 0.0
C784 C 0.17005 0.66939 0.61157 0.0
C785 C 0.14817 0.67701 0.62282 0.0
C786 C 0.17452 0.67466 0.587 0.0
C787 C 0.15738 0.68793 0.57321 0.0
C788 C 0.13624 0.69692 0.58478 0.0
C789 C 0.13161 0.69142 0.60937 0.0
C790 C 0.15851 0.7151 0.50936 0.0
C791 C 0.16305 0.69418 0.49504 0.0
C792 C 0.15705 0.71324 0.53483 0.0
C793 C 0.16057 0.69054 0.54643 0.0
C794 C 0.16596 0.66982 0.53215 0.0
C795 C 0.167 0.67159 0.50669 0.0
H796 H 0.40248 0.14008 0.59681 0.0
H797 H 0.33037 0.10795 0.60307 0.0
H798 H 0.39491 0.14907 0.55405 0.0
H799 H 0.32312 0.11596 0.55971 0.0
H800 H 0.30748 0.16005 0.49011 0.0
H801 H 0.31518 0.14943 0.53284 0.0
H802 H 0.39043 0.13255 0.51491 0.0
H803 H 0.383 0.14421 0.47277 0.0
C804 C 0.38517 0.13444 0.58892 0.0
C805 C 0.36698 0.1234 0.60338 0.0
C806 C 0.38083 0.13954 0.56428 0.0
C807 C 0.35832 0.1334 0.55336 0.0
C808 C 0.34046 0.12144 0.56762 0.0
C809 C 0.3447 0.11661 0.59241 0.0
C810 C 0.32569 0.15432 0.49544 0.0
C811 C 0.3446 0.15305 0.4781 0.0
C812 C 0.33007 0.14794 0.51985 0.0
C813 C 0.35343 0.14 0.52738 0.0
C814 C 0.37233 0.13896 0.50996 0.0
C815 C 0.36805 0.14565 0.48571 0.0
H816 H 0.86595 0.36903 0.6209 0.0
H817 H 0.91594 0.42348 0.59224 0.0
H818 H 0.85946 0.35326 0.57945 0.0
H819 H 0.90967 0.40765 0.55124 0.0
H820 H 0.87718 0.39193 0.47868 0.0
H821 H 0.87659 0.40627 0.52076 0.0
H822 H 0.88318 0.33164 0.54646 0.0
H823 H 0.88341 0.31711 0.50412 0.0
C824 C 0.87554 0.37761 0.6058 0.0
C825 C 0.89138 0.39757 0.60982 0.0
C826 C 0.87187 0.36854 0.58213 0.0
C827 C 0.88384 0.3794 0.5621 0.0
C828 C 0.89979 0.39921 0.56623 0.0
C829 C 0.90352 0.40817 0.58979 0.0
C830 C 0.8781 0.3785 0.49327 0.0
C831 C 0.88064 0.35342 0.48809 0.0
C832 C 0.87789 0.38674 0.51738 0.0
C833 C 0.88032 0.37012 0.53687 0.0
C834 C 0.88125 0.34487 0.53179 0.0
C835 C 0.8814 0.33657 0.50756 0.0
H836 H 0.69766 0.90528 0.6255 0.0
H837 H 0.63747 0.8549 0.61469 0.0
H838 H 0.7098 0.89992 0.58294 0.0
H839 H 0.64999 0.84904 0.57237 0.0
H840 H 0.65612 0.87783 0.49304 0.0
H841 H 0.64782 0.87466 0.53657 0.0
H842 H 0.72556 0.87278 0.55143 0.0
H843 H 0.73391 0.87653 0.50771 0.0
C844 C 0.6873 0.89269 0.61418 0.0
C845 C 0.66639 0.8808 0.62336 0.0
C846 C 0.69435 0.88949 0.58981 0.0
C847 C 0.68069 0.87424 0.57416 0.0
C848 C 0.6606 0.86129 0.58379 0.0
C849 C 0.65349 0.86458 0.60809 0.0
C850 C 0.67148 0.87638 0.50554 0.0
C851 C 0.69567 0.87758 0.49693 0.0
C852 C 0.66671 0.87442 0.53053 0.0
C853 C 0.68603 0.87354 0.54752 0.0
C854 C 0.71028 0.87373 0.53883 0.0
C855 C 0.71506 0.87571 0.51377 0.0
H856 H 0.41248 0.16685 0.34902 0.0
H857 H 0.43659 0.10116 0.38621 0.0
H858 H 0.45501 0.17569 0.33737 0.0
H859 H 0.47868 0.11014 0.37477 0.0
H860 H 0.54908 0.15423 0.38434 0.0
H861 H 0.50573 0.14576 0.38993 0.0
H862 H 0.49308 0.15741 0.31286 0.0
H863 H 0.53691 0.16571 0.30702 0.0
C864 C 0.42672 0.15411 0.35435 0.0
C865 C 0.42118 0.1335 0.36886 0.0
C866 C 0.45102 0.15917 0.34765 0.0
C867 C 0.47011 0.1438 0.35554 0.0
C868 C 0.46435 0.12251 0.36881 0.0
C869 C 0.44019 0.11736 0.37529 0.0
C870 C 0.53713 0.15524 0.36855 0.0
C871 C 0.54653 0.16048 0.34519 0.0
C872 C 0.51231 0.15021 0.37175 0.0
C873 C 0.49614 0.15062 0.35178 0.0
C874 C 0.5052 0.15696 0.32855 0.0
C875 C 0.53024 0.16171 0.32525 0.0
H876 H 0.9278 0.44478 0.39736 0.0
H877 H 0.86538 0.41729 0.35711 0.0
H878 H 0.91838 0.48622 0.38391 0.0
H879 H 0.85614 0.45921 0.34338 0.0
H880 H 0.87124 0.54039 0.30919 0.0
H881 H 0.87824 0.49677 0.31792 0.0
H882 H 0.87929 0.5125 0.39524 0.0
H883 H 0.87204 0.55565 0.38679 0.0
C884 C 0.9122 0.4475 0.38543 0.0
C885 C 0.89714 0.42775 0.37856 0.0
C886 C 0.90681 0.47127 0.37778 0.0
C887 C 0.8864 0.47584 0.36288 0.0
C888 C 0.87198 0.45606 0.35491 0.0
C889 C 0.87722 0.43216 0.36282 0.0
C890 C 0.87257 0.53443 0.32805 0.0
C891 C 0.87136 0.55153 0.34728 0.0
C892 C 0.87656 0.50953 0.333 0.0
C893 C 0.87961 0.50147 0.35722 0.0
C894 C 0.87733 0.51837 0.37639 0.0
C895 C 0.87307 0.54307 0.37151 0.0
H896 H 0.59174 0.89966 0.42406 0.0
H897 H 0.62673 0.86384 0.36288 0.0
H898 H 0.55192 0.89161 0.40619 0.0
H899 H 0.58636 0.85551 0.34492 0.0
H900 H 0.50925 0.88024 0.31139 0.0
H901 H 0.55134 0.87965 0.32678 0.0
H902 H 0.52494 0.8566 0.39765 0.0
H903 H 0.48306 0.85759 0.38252 0.0
C904 C 0.59094 0.88991 0.40683 0.0
C905 C 0.61241 0.88237 0.39491 0.0
C906 C 0.56805 0.8851 0.39667 0.0
C907 C 0.56598 0.87265 0.37429 0.0
C908 C 0.58743 0.86514 0.36221 0.0
C909 C 0.61048 0.86984 0.37251 0.0
C910 C 0.51252 0.87446 0.33008 0.0
C911 C 0.49284 0.86935 0.34587 0.0
C912 C 0.53662 0.87411 0.33887 0.0
C913 C 0.54136 0.86856 0.36355 0.0
C914 C 0.52179 0.8615 0.3787 0.0
C915 C 0.49781 0.86197 0.36999 0.0
H916 H 0.18971 0.60038 0.3976 0.0
H917 H 0.13319 0.60965 0.34312 0.0
H918 H 0.19232 0.55696 0.38758 0.0
H919 H 0.13497 0.56604 0.33378 0.0
H920 H 0.15357 0.48874 0.31086 0.0
H921 H 0.15687 0.53284 0.31663 0.0
H922 H 0.16936 0.52109 0.39384 0.0
H923 H 0.16752 0.47722 0.38757 0.0
C924 C 0.17786 0.59314 0.38345 0.0
C925 C 0.16116 0.60845 0.37127 0.0
C926 C 0.17921 0.56817 0.3778 0.0
C927 C 0.16366 0.55778 0.36004 0.0
C928 C 0.14746 0.57333 0.34734 0.0
C929 C 0.14633 0.59837 0.3528 0.0
C930 C 0.15768 0.49551 0.32882 0.0
C931 C 0.16049 0.47923 0.3485 0.0
C932 C 0.15916 0.52092 0.33232 0.0
C933 C 0.16342 0.53073 0.35575 0.0
C934 C 0.16654 0.51438 0.37542 0.0
C935 C 0.16525 0.48906 0.37182 0.0
H936 H 0.53954 0.8722 0.66112 0.0
H937 H 0.52936 0.87988 0.73914 0.0
H938 H 0.49585 0.86562 0.65603 0.0
H939 H 0.48541 0.8729 0.73404 0.0
H940 H 0.40885 0.90042 0.70424 0.0
H941 H 0.45177 0.89704 0.71617 0.0
H942 H 0.46162 0.83833 0.66413 0.0
H943 H 0.41893 0.84204 0.65184 0.0
C944 C 0.52803 0.87203 0.67725 0.0
C945 C 0.5379 0.87673 0.70049 0.0
C946 C 0.50295 0.86808 0.67436 0.0
C947 C 0.48712 0.86877 0.69464 0.0
C948 C 0.49712 0.87248 0.71805 0.0
C949 C 0.52229 0.87634 0.72096 0.0
C950 C 0.42004 0.88645 0.69573 0.0
C951 C 0.41063 0.87183 0.67677 0.0
C952 C 0.44463 0.88443 0.70264 0.0
C953 C 0.4602 0.86769 0.69079 0.0
C954 C 0.45023 0.85178 0.67321 0.0
C955 C 0.42573 0.85386 0.66625 0.0
H956 H 0.10628 0.44001 0.64985 0.0
H957 H 0.16807 0.41582 0.69301 0.0
H958 H 0.11511 0.48228 0.66071 0.0
H959 H 0.1768 0.45856 0.70405 0.0
H960 H 0.1659 0.54066 0.73239 0.0
H961 H 0.15844 0.49675 0.72612 0.0
H962 H 0.15061 0.5095 0.64857 0.0
H963 H 0.15805 0.553 0.65467 0.0
C964 C 0.1216 0.44365 0.6619 0.0
C965 C 0.13668 0.42452 0.67028 0.0
C966 C 0.12671 0.46793 0.66804 0.0
C967 C 0.14689 0.47373 0.68288 0.0
C968 C 0.16116 0.45458 0.69252 0.0
C969 C 0.15616 0.43015 0.68618 0.0
C970 C 0.1629 0.534 0.71399 0.0
C971 C 0.16227 0.55039 0.69408 0.0
C972 C 0.15866 0.50889 0.71042 0.0
C973 C 0.15354 0.49982 0.68691 0.0
C974 C 0.15402 0.51606 0.66696 0.0
C975 C 0.15847 0.54099 0.67046 0.0
H976 H 0.57911 0.12284 0.62811 0.0
H977 H 0.60427 0.18047 0.67612 0.0
H978 H 0.53756 0.12854 0.64266 0.0
H979 H 0.56215 0.18628 0.69075 0.0
H980 H 0.48518 0.16674 0.72657 0.0
H981 H 0.52826 0.16548 0.71406 0.0
H982 H 0.50573 0.15976 0.63857 0.0
H983 H 0.46303 0.16062 0.65105 0.0
C984 C 0.57581 0.13677 0.64181 0.0
C985 C 0.59509 0.15135 0.65076 0.0
C986 C 0.55186 0.14016 0.65004 0.0
C987 C 0.54639 0.15817 0.66757 0.0
C988 C 0.56574 0.17227 0.67721 0.0
C989 C 0.58985 0.16897 0.6688 0.0
C990 C 0.48949 0.16546 0.70734 0.0
C991 C 0.47063 0.16326 0.68993 0.0
C992 C 0.51417 0.1649 0.70013 0.0
C993 C 0.52047 0.16202 0.67534 0.0
C994 C 0.50155 0.16139 0.65787 0.0
C995 C 0.477 0.16213 0.66504 0.0
H996 H 0.89085 0.62659 0.70539 0.0
H997 H 0.84589 0.61472 0.64142 0.0
H998 H 0.8875 0.58322 0.71573 0.0
H999 H 0.84197 0.57154 0.65211 0.0
H1000 H 0.87602 0.49417 0.65731 0.0
H1001 H 0.87 0.53773 0.65047 0.0
H1002 H 0.86204 0.54898 0.72831 0.0
H1003 H 0.86867 0.50524 0.73524 0.0
C1004 C 0.87982 0.61483 0.69381 0.0
C1005 C 0.86895 0.624 0.67238 0.0
C1006 C 0.87777 0.58998 0.69981 0.0
C1007 C 0.8647 0.57382 0.68457 0.0
C1008 C 0.8526 0.58337 0.66395 0.0
C1009 C 0.85476 0.60816 0.65789 0.0
C1010 C 0.87262 0.50584 0.67298 0.0
C1011 C 0.87299 0.49626 0.69682 0.0
C1012 C 0.86901 0.53085 0.66904 0.0
C1013 C 0.86561 0.54691 0.68886 0.0
C1014 C 0.86492 0.53716 0.71268 0.0
C1015 C 0.86857 0.51207 0.71664 0.0
H1016 H 0.36412 0.42354 0.16692 0.0
H1017 H 0.40609 0.44568 0.10355 0.0
H1018 H 0.3513 0.46607 0.17304 0.0
H1019 H 0.39317 0.48791 0.10962 0.0
H1020 H 0.39182 0.5625 0.14428 0.0
H1021 H 0.4023 0.51935 0.14152 0.0
H1022 H 0.3264 0.49978 0.1523 0.0
H1023 H 0.31572 0.54329 0.15522 0.0
C1024 C 0.37047 0.43742 0.15422 0.0
C1025 C 0.38629 0.4313 0.13487 0.0
C1026 C 0.36306 0.46171 0.1577 0.0
C1027 C 0.37151 0.48027 0.142 0.0
C1028 C 0.38675 0.47401 0.12228 0.0
C1029 C 0.39403 0.44979 0.11873 0.0
C1030 C 0.37734 0.54908 0.14637 0.0
C1031 C 0.3529 0.55634 0.14977 0.0
C1032 C 0.38335 0.52434 0.14462 0.0
C1033 C 0.3651 0.50628 0.14627 0.0
C1034 C 0.34081 0.51338 0.15095 0.0
C1035 C 0.33474 0.53825 0.15263 0.0
H1036 H 0.36684 0.62531 0.86764 0.0
H1037 H 0.41503 0.59956 0.92485 0.0
H1038 H 0.35241 0.58315 0.86113 0.0
H1039 H 0.40061 0.55794 0.91848 0.0
H1040 H 0.393 0.4842 0.88386 0.0
H1041 H 0.40497 0.52704 0.88592 0.0
H1042 H 0.32902 0.54869 0.88253 0.0
H1043 H 0.31685 0.50541 0.88026 0.0
C1044 C 0.37428 0.61073 0.87886 0.0
C1045 C 0.39223 0.61582 0.89665 0.0
C1046 C 0.36594 0.58663 0.87519 0.0
C1047 C 0.37559 0.56716 0.88907 0.0
C1048 C 0.39315 0.57242 0.90713 0.0
C1049 C 0.40132 0.59638 0.91088 0.0
C1050 C 0.37877 0.49802 0.88325 0.0
C1051 C 0.35393 0.49131 0.88208 0.0
C1052 C 0.38567 0.52262 0.88458 0.0
C1053 C 0.36794 0.54127 0.88482 0.0
C1054 C 0.34311 0.53473 0.88236 0.0
C1055 C 0.33615 0.50995 0.88105 0.0
H1056 H 0.45134 0.40661 0.92609 0.0
H1057 H 0.4252 0.3616 0.86648 0.0
H1058 H 0.49282 0.39205 0.91895 0.0
H1059 H 0.46704 0.347 0.85938 0.0
H1060 H 0.54477 0.31069 0.87752 0.0
H1061 H 0.50155 0.32233 0.88144 0.0
H1062 H 0.52248 0.39865 0.88387 0.0
H1063 H 0.56531 0.38723 0.87994 0.0
C1064 C 0.4544 0.39352 0.91153 0.0
C1065 C 0.435 0.38544 0.89671 0.0
C1066 C 0.4782 0.38527 0.90738 0.0
C1067 C 0.48315 0.36864 0.88842 0.0
C1068 C 0.46368 0.35982 0.87411 0.0
C1069 C 0.4398 0.36827 0.87813 0.0
C1070 C 0.54006 0.32996 0.87838 0.0
C1071 C 0.55845 0.34805 0.87862 0.0
C1072 C 0.51536 0.33659 0.88068 0.0
C1073 C 0.50878 0.36135 0.88336 0.0
C1074 C 0.5271 0.3794 0.88232 0.0
C1075 C 0.55162 0.37284 0.87992 0.0
H1076 H 0.70622 0.42124 0.922 0.0
H1077 H 0.65839 0.42049 0.85898 0.0
H1078 H 0.71443 0.46477 0.9151 0.0
H1079 H 0.66661 0.46392 0.85221 0.0
H1080 H 0.66003 0.5466 0.8742 0.0
H1081 H 0.65539 0.50206 0.87584 0.0
H1082 H 0.73356 0.49418 0.88473 0.0
H1083 H 0.73828 0.53867 0.88303 0.0
C1084 C 0.69773 0.43024 0.9065 0.0
C1085 C 0.68154 0.41741 0.89114 0.0
C1086 C 0.7025 0.45515 0.90251 0.0
C1087 C 0.69099 0.46776 0.88323 0.0
C1088 C 0.67549 0.45473 0.86738 0.0
C1089 C 0.67093 0.4298 0.87121 0.0
C1090 C 0.67625 0.53536 0.87619 0.0
C1091 C 0.6995 0.54616 0.87843 0.0
C1092 C 0.67361 0.50986 0.87704 0.0
C1093 C 0.69412 0.49467 0.88046 0.0
C1094 C 0.71742 0.50545 0.88226 0.0
C1095 C 0.7201 0.53092 0.88111 0.0
H1096 H 0.61021 0.64153 0.84979 0.0
H1097 H 0.62446 0.70775 0.89076 0.0
H1098 H 0.56714 0.65267 0.84666 0.0
H1099 H 0.58125 0.71856 0.88819 0.0
H1100 H 0.50356 0.739 0.86895 0.0
H1101 H 0.54702 0.73059 0.86257 0.0
H1102 H 0.53375 0.65347 0.87529 0.0
H1103 H 0.49046 0.66174 0.88105 0.0
C1104 C 0.60419 0.65857 0.85799 0.0
C1105 C 0.62071 0.67362 0.87077 0.0
C1106 C 0.57947 0.66489 0.85629 0.0
C1107 C 0.57066 0.68636 0.86743 0.0
C1108 C 0.58742 0.70201 0.87921 0.0
C1109 C 0.6122 0.69573 0.88081 0.0
C1110 C 0.50989 0.72019 0.86998 0.0
C1111 C 0.49356 0.70103 0.8756 0.0
C1112 C 0.53481 0.71541 0.86649 0.0
C1113 C 0.54391 0.69137 0.86852 0.0
C1114 C 0.52737 0.67215 0.87324 0.0
C1115 C 0.50251 0.67692 0.87671 0.0
H1116 H 0.70866 0.62406 0.12637 0.0
H1117 H 0.65223 0.61808 0.1815 0.0
H1118 H 0.71811 0.58055 0.13165 0.0
H1119 H 0.66186 0.57489 0.18689 0.0
H1120 H 0.66073 0.49452 0.15989 0.0
H1121 H 0.65534 0.53878 0.16084 0.0
H1122 H 0.73384 0.5487 0.16052 0.0
H1123 H 0.73931 0.50423 0.15938 0.0
C1124 C 0.69855 0.6136 0.13987 0.0
C1125 C 0.67949 0.62448 0.15328 0.0
C1126 C 0.70403 0.5887 0.14297 0.0
C1127 C 0.69053 0.57423 0.15951 0.0
C1128 C 0.67229 0.58544 0.17371 0.0
C1129 C 0.66685 0.61025 0.17065 0.0
C1130 C 0.67687 0.50608 0.16035 0.0
C1131 C 0.70044 0.49583 0.15956 0.0
C1132 C 0.67378 0.53148 0.161 0.0
C1133 C 0.69417 0.54726 0.16073 0.0
C1134 C 0.71778 0.53702 0.16054 0.0
C1135 C 0.72089 0.51154 0.16008 0.0
H1136 H 0.44094 0.64378 0.14641 0.0
H1137 H 0.42139 0.71721 0.16856 0.0
H1138 H 0.48387 0.65342 0.15202 0.0
H1139 H 0.46471 0.72671 0.17514 0.0
H1140 H 0.54676 0.74033 0.15515 0.0
H1141 H 0.50261 0.73349 0.15388 0.0
H1142 H 0.51321 0.66043 0.18283 0.0
H1143 H 0.55731 0.66693 0.18286 0.0
C1144 C 0.4458 0.66195 0.15276 0.0
C1145 C 0.42773 0.6797 0.15712 0.0
C1146 C 0.47049 0.66744 0.15618 0.0
C1147 C 0.47783 0.69076 0.16439 0.0
C1148 C 0.45974 0.70861 0.16868 0.0
C1149 C 0.43493 0.70315 0.165 0.0
C1150 C 0.53958 0.72297 0.16159 0.0
C1151 C 0.55545 0.70402 0.16882 0.0
C1152 C 0.51425 0.71905 0.16092 0.0
C1153 C 0.50433 0.69623 0.16783 0.0
C1154 C 0.52023 0.67796 0.17666 0.0
C1155 C 0.54549 0.68174 0.17693 0.0
H1156 H 0.60632 0.40691 0.17752 0.0
H1157 H 0.61905 0.33783 0.14109 0.0
H1158 H 0.56312 0.39661 0.18181 0.0
H1159 H 0.57567 0.32783 0.14475 0.0
H1160 H 0.4982 0.30924 0.16791 0.0
H1161 H 0.54202 0.31768 0.17176 0.0
H1162 H 0.52876 0.39396 0.15488 0.0
H1163 H 0.48522 0.38571 0.1517 0.0
C1164 C 0.59992 0.38949 0.17048 0.0
C1165 C 0.6161 0.3733 0.15876 0.0
C1166 C 0.5751 0.38362 0.17285 0.0
C1167 C 0.56582 0.36148 0.16343 0.0
C1168 C 0.58219 0.34492 0.15245 0.0
C1169 C 0.60706 0.35074 0.15019 0.0
C1170 C 0.50464 0.32787 0.16544 0.0
C1171 C 0.48821 0.34678 0.15946 0.0
C1172 C 0.52978 0.33268 0.16745 0.0
C1173 C 0.53898 0.35649 0.16354 0.0
C1174 C 0.52237 0.37548 0.15837 0.0
C1175 C 0.49733 0.37069 0.15639 0.0
H1176 H 0.15019 0.49605 0.22609 0.0
H1177 H 0.21327 0.48721 0.27267 0.0
H1178 H 0.17347 0.52489 0.20038 0.0
H1179 H 0.23574 0.51652 0.24847 0.0
H1180 H 0.28232 0.55345 0.1934 0.0
H1181 H 0.25715 0.52352 0.21426 0.0
H1182 H 0.19212 0.56316 0.19264 0.0
H1183 H 0.21797 0.59258 0.17007 0.0
C1184 C 0.16897 0.50021 0.23091 0.0
C1185 C 0.17981 0.48874 0.25138 0.0
C1186 C 0.18239 0.51701 0.21622 0.0
C1187 C 0.20702 0.52316 0.22169 0.0
C1188 C 0.21737 0.51199 0.24261 0.0
C1189 C 0.20422 0.49505 0.25686 0.0
C1190 C 0.26261 0.55577 0.19291 0.0
C1191 C 0.25233 0.57564 0.18012 0.0
C1192 C 0.24796 0.53861 0.20527 0.0
C1193 C 0.2222 0.54084 0.20614 0.0
C1194 C 0.21174 0.56045 0.19264 0.0
C1195 C 0.22659 0.57748 0.17965 0.0
H1196 H 0.57862 0.19352 0.22781 0.0
H1197 H 0.52186 0.1459 0.25531 0.0
H1198 H 0.54842 0.21546 0.20302 0.0
H1199 H 0.49143 0.16823 0.2308 0.0
H1200 H 0.44422 0.23871 0.21122 0.0
H1201 H 0.473 0.21101 0.23153 0.0
H1202 H 0.51883 0.21161 0.16731 0.0
H1203 H 0.48966 0.23903 0.14674 0.0
C1204 C 0.55973 0.18744 0.2283 0.0
C1205 C 0.55286 0.16768 0.24349 0.0
C1206 C 0.54234 0.20007 0.21399 0.0
C1207 C 0.5173 0.19379 0.21479 0.0
C1208 C 0.51046 0.17374 0.22969 0.0
C1209 C 0.52799 0.16073 0.24361 0.0
C1210 C 0.46019 0.2326 0.20119 0.0
C1211 C 0.46439 0.24112 0.17717 0.0
C1212 C 0.47675 0.21661 0.21289 0.0
C1213 C 0.49845 0.20897 0.20122 0.0
C1214 C 0.50245 0.21711 0.17701 0.0
C1215 C 0.48556 0.23271 0.16508 0.0
H1216 H 0.80642 0.48678 0.14977 0.0
H1217 H 0.80003 0.44612 0.21714 0.0
H1218 H 0.83418 0.51591 0.16997 0.0
H1219 H 0.82797 0.47486 0.23717 0.0
H1220 H 0.89296 0.52247 0.26276 0.0
H1221 H 0.8711 0.4913 0.23876 0.0
H1222 H 0.82989 0.54823 0.20264 0.0
H1223 H 0.85138 0.57921 0.22684 0.0
C1224 C 0.81138 0.48366 0.1687 0.0
C1225 C 0.80097 0.46389 0.18169 0.0
C1226 C 0.82714 0.50056 0.18041 0.0
C1227 C 0.83343 0.49795 0.20536 0.0
C1228 C 0.82386 0.47751 0.21797 0.0
C1229 C 0.80773 0.46097 0.20643 0.0
C1230 C 0.8796 0.52839 0.24935 0.0
C1231 C 0.87416 0.55351 0.24672 0.0
C1232 C 0.86684 0.51045 0.23571 0.0
C1233 C 0.84857 0.51707 0.21862 0.0
C1234 C 0.84391 0.54227 0.21534 0.0
C1235 C 0.85626 0.56012 0.22932 0.0
H1236 H 0.58985 0.81664 0.19381 0.0
H1237 H 0.53509 0.79213 0.14252 0.0
H1238 H 0.55905 0.84092 0.21526 0.0
H1239 H 0.50406 0.81637 0.16416 0.0
H1240 H 0.45248 0.8339 0.23093 0.0
H1241 H 0.48239 0.81488 0.20377 0.0
H1242 H 0.53093 0.87647 0.21409 0.0
H1243 H 0.5007 0.89566 0.24128 0.0
C1244 C 0.57129 0.81674 0.18679 0.0
C1245 C 0.56519 0.80242 0.16618 0.0
C1246 C 0.55353 0.8308 0.19915 0.0
C1247 C 0.5288 0.83076 0.19169 0.0
C1248 C 0.52278 0.81686 0.1707 0.0
C1249 C 0.54069 0.8031 0.15805 0.0
C1250 C 0.46932 0.84369 0.2271 0.0
C1251 C 0.47394 0.8665 0.23837 0.0
C1252 C 0.48657 0.83272 0.21137 0.0
C1253 C 0.50937 0.84391 0.20659 0.0
C1254 C 0.51376 0.86707 0.21737 0.0
C1255 C 0.49626 0.87827 0.23282 0.0
H1256 H 0.149 0.5216 0.77789 0.0
H1257 H 0.18943 0.57966 0.81299 0.0
H1258 H 0.17304 0.4911 0.80072 0.0
H1259 H 0.21293 0.54933 0.83621 0.0
H1260 H 0.23871 0.48744 0.88852 0.0
H1261 H 0.20964 0.51575 0.86901 0.0
H1262 H 0.21803 0.47725 0.80072 0.0
H1263 H 0.24747 0.44943 0.82001 0.0
C1264 C 0.16255 0.52793 0.79092 0.0
C1265 C 0.16699 0.55325 0.79367 0.0
C1266 C 0.17656 0.51039 0.80388 0.0
C1267 C 0.19507 0.51758 0.82046 0.0
C1268 C 0.19878 0.54293 0.82387 0.0
C1269 C 0.18524 0.56041 0.81049 0.0
C1270 C 0.23404 0.48472 0.86946 0.0
C1271 C 0.24549 0.46593 0.85597 0.0
C1272 C 0.21748 0.50114 0.85816 0.0
C1273 C 0.21135 0.49897 0.83315 0.0
C1274 C 0.22203 0.47952 0.81999 0.0
C1275 C 0.23901 0.46351 0.8311 0.0
H1276 H 0.52245 0.14278 0.78328 0.0
H1277 H 0.46438 0.19061 0.80711 0.0
H1278 H 0.55156 0.16541 0.80906 0.0
H1279 H 0.49327 0.21291 0.83307 0.0
H1280 H 0.54853 0.23783 0.89192 0.0
H1281 H 0.52045 0.21019 0.87014 0.0
H1282 H 0.57069 0.20733 0.80936 0.0
H1283 H 0.59844 0.23512 0.8309 0.0
C1284 C 0.51574 0.1578 0.79433 0.0
C1285 C 0.49089 0.16467 0.79304 0.0
C1286 C 0.53252 0.17097 0.80902 0.0
C1287 C 0.52495 0.19115 0.82331 0.0
C1288 C 0.49991 0.19742 0.82263 0.0
C1289 C 0.48328 0.1846 0.8076 0.0
C1290 C 0.55382 0.23093 0.87412 0.0
C1291 C 0.57594 0.23875 0.86334 0.0
C1292 C 0.53756 0.21523 0.86147 0.0
C1293 C 0.54309 0.20641 0.8378 0.0
C1294 C 0.56572 0.21343 0.82754 0.0
C1295 C 0.5817 0.22949 0.83995 0.0
H1296 H 0.78469 0.5786 0.81834 0.0
H1297 H 0.81665 0.56464 0.88924 0.0
H1298 H 0.81081 0.54749 0.8003 0.0
H1299 H 0.84366 0.5335 0.87057 0.0
H1300 H 0.90068 0.49727 0.80695 0.0
H1301 H 0.87959 0.52986 0.83018 0.0
H1302 H 0.8099 0.49815 0.81106 0.0
H1303 H 0.83047 0.46566 0.78875 0.0
C1304 C 0.79758 0.56925 0.83016 0.0
C1305 C 0.79823 0.57432 0.85547 0.0
C1306 C 0.81262 0.55127 0.81967 0.0
C1307 C 0.82931 0.53782 0.8339 0.0
C1308 C 0.83108 0.54358 0.85902 0.0
C1309 C 0.81559 0.56148 0.86972 0.0
C1310 C 0.88089 0.49698 0.8081 0.0
C1311 C 0.86746 0.47859 0.7958 0.0
C1312 C 0.86879 0.51569 0.82145 0.0
C1313 C 0.84298 0.51673 0.82244 0.0
C1314 C 0.82974 0.49804 0.81066 0.0
C1315 C 0.84169 0.47927 0.79783 0.0
H1316 H 0.45136 0.81352 0.83569 0.0
H1317 H 0.50165 0.80505 0.89592 0.0
H1318 H 0.4803 0.84088 0.8152 0.0
H1319 H 0.53089 0.83234 0.87521 0.0
H1320 H 0.58718 0.85201 0.81247 0.0
H1321 H 0.55758 0.83043 0.83821 0.0
H1322 H 0.50143 0.88147 0.81621 0.0
H1323 H 0.5313 0.90332 0.79057 0.0
C1324 C 0.46847 0.81777 0.84479 0.0
C1325 C 0.47396 0.80702 0.86763 0.0
C1326 C 0.48512 0.83361 0.833 0.0
C1327 C 0.50815 0.83896 0.84336 0.0
C1328 C 0.51347 0.82862 0.86648 0.0
C1329 C 0.49656 0.81309 0.87852 0.0
C1330 C 0.56865 0.85901 0.81348 0.0
C1331 C 0.56183 0.87965 0.79948 0.0
C1332 C 0.55159 0.84658 0.82835 0.0
C1333 C 0.5269 0.85399 0.82941 0.0
C1334 C 0.52018 0.87502 0.81585 0.0
C1335 C 0.53741 0.88778 0.8013 0.0
H1336 H 0.21347 0.25348 0.57672 0.0
H1337 H 0.14338 0.2241 0.55483 0.0
H1338 H 0.23394 0.227 0.54751 0.0
H1339 H 0.16447 0.19669 0.52561 0.0
H1340 H 0.22871 0.13627 0.49711 0.0
H1341 H 0.20317 0.15893 0.52684 0.0
H1342 H 0.22995 0.22727 0.49766 0.0
H1343 H 0.25455 0.20518 0.46795 0.0
C1344 C 0.20227 0.24113 0.56597 0.0
C1345 C 0.17651 0.2412 0.56843 0.0
C1346 C 0.21419 0.22586 0.54907 0.0
C1347 C 0.20101 0.20957 0.53411 0.0
C1348 C 0.17528 0.20886 0.53694 0.0
C1349 C 0.16317 0.22465 0.55368 0.0
C1350 C 0.2289 0.15612 0.49683 0.0
C1351 C 0.24386 0.16869 0.47984 0.0
C1352 C 0.21416 0.16913 0.51385 0.0
C1353 C 0.21443 0.19504 0.51472 0.0
C1354 C 0.2292 0.20742 0.49763 0.0
C1355 C 0.24337 0.19458 0.48045 0.0
H1356 H 0.79771 0.20772 0.58059 0.0
H1357 H 0.77893 0.15446 0.5255 0.0
H1358 H 0.82638 0.22732 0.55227 0.0
H1359 H 0.8074 0.17443 0.49685 0.0
H1360 H 0.83343 0.23994 0.4458 0.0
H1361 H 0.80955 0.21457 0.47399 0.0
H1362 H 0.86588 0.22259 0.52869 0.0
H1363 H 0.8901 0.24771 0.50012 0.0
C1364 C 0.79992 0.19991 0.56252 0.0
C1365 C 0.78595 0.17925 0.55558 0.0
C1366 C 0.81651 0.21121 0.5462 0.0
C1367 C 0.81942 0.20267 0.52203 0.0
C1368 C 0.80573 0.18174 0.51518 0.0
C1369 C 0.78949 0.17008 0.53174 0.0
C1370 C 0.84105 0.23591 0.46366 0.0
C1371 C 0.86396 0.24585 0.47043 0.0
C1372 C 0.82727 0.22125 0.47991 0.0
C1373 C 0.83553 0.21639 0.50387 0.0
C1374 C 0.8587 0.22593 0.51052 0.0
C1375 C 0.87279 0.24019 0.494 0.0
H1376 H 0.89191 0.80325 0.548 0.0
H1377 H 0.82697 0.80745 0.59259 0.0
H1378 H 0.87277 0.83056 0.51774 0.0
H1379 H 0.80811 0.8351 0.56275 0.0
H1380 H 0.78685 0.89873 0.51079 0.0
H1381 H 0.81071 0.87726 0.54237 0.0
H1382 H 0.83679 0.82628 0.48811 0.0
H1383 H 0.81257 0.84732 0.45681 0.0
C1384 C 0.87385 0.81053 0.55173 0.0
C1385 C 0.86115 0.80321 0.57297 0.0
C1386 C 0.86272 0.82602 0.53421 0.0
C1387 C 0.83875 0.83515 0.53761 0.0
C1388 C 0.82659 0.82873 0.55944 0.0
C1389 C 0.83746 0.81281 0.57663 0.0
C1390 C 0.79809 0.88327 0.50548 0.0
C1391 C 0.79786 0.87499 0.48107 0.0
C1392 C 0.81162 0.87076 0.52368 0.0
C1393 C 0.82582 0.8499 0.51796 0.0
C1394 C 0.82637 0.84233 0.49332 0.0
C1395 C 0.81241 0.85444 0.4753 0.0
H1396 H 0.15122 0.79799 0.48764 0.0
H1397 H 0.21829 0.7954 0.44619 0.0
H1398 H 0.1704 0.82671 0.51651 0.0
H1399 H 0.23727 0.82435 0.47463 0.0
H1400 H 0.26004 0.89083 0.52189 0.0
H1401 H 0.23682 0.86762 0.4911 0.0
H1402 H 0.20383 0.82433 0.54837 0.0
H1403 H 0.22731 0.84712 0.57894 0.0
C1404 C 0.16983 0.80399 0.48428 0.0
C1405 C 0.18304 0.79437 0.46433 0.0
C1406 C 0.18098 0.82032 0.50103 0.0
C1407 C 0.20555 0.82802 0.49812 0.0
C1408 C 0.21833 0.81918 0.47754 0.0
C1409 C 0.20739 0.80247 0.46115 0.0
C1410 C 0.24745 0.87673 0.52797 0.0
C1411 C 0.24551 0.87113 0.55308 0.0
C1412 C 0.23427 0.86318 0.51024 0.0
C1413 C 0.21829 0.84391 0.51704 0.0
C1414 C 0.21565 0.83907 0.54225 0.0
C1415 C 0.2292 0.85221 0.55987 0.0
H1416 H 0.97198 0.57251 0.36917 0.0
H1417 H 0.93991 0.5065 0.33982 0.0
H1418 H 1.01145 0.55178 0.37277 0.0
H1419 H 0.97901 0.48545 0.3444 0.0
H1420 H 0.04629 0.49455 0.29311 0.0
H1421 H 1.00784 0.50714 0.31124 0.0
H1422 H 0.04241 0.51242 0.38211 0.0
H1423 H 0.08153 0.49931 0.36375 0.0
C1424 C 0.97297 0.55306 0.36523 0.0
C1425 C 0.95339 0.54107 0.35368 0.0
C1426 C 0.99555 0.54122 0.36729 0.0
C1427 C 0.99824 0.51738 0.35809 0.0
C1428 C 0.97732 0.50403 0.3512 0.0
C1429 C 0.95498 0.516 0.34862 0.0
C1430 C 0.04583 0.49854 0.31252 0.0
C1431 C 0.06673 0.49587 0.32708 0.0
C1432 C 0.02376 0.50537 0.32297 0.0
C1433 C 0.0221 0.5098 0.34821 0.0
C1434 C 0.04326 0.50851 0.36271 0.0
C1435 C 0.06554 0.50134 0.35219 0.0
H1436 H 0.47983 0.96138 0.36411 0.0
H1437 H 0.47894 0.98782 0.28956 0.0
H1438 H 0.49377 1.00199 0.37808 0.0
H1439 H 0.49242 0.02778 0.30331 0.0
H1440 H 0.50183 0.09863 0.32319 0.0
H1441 H 0.4757 0.06294 0.32962 0.0
H1442 H 0.53424 0.02714 0.36897 0.0
H1443 H 0.55993 0.06349 0.36355 0.0
C1444 C 0.48264 0.97585 0.3508 0.0
C1445 C 0.47848 0.97163 0.32578 0.0
C1446 C 0.49033 0.99898 0.3588 0.0
C1447 C 0.4934 1.01809 0.34185 0.0
C1448 C 0.48938 1.01359 0.31688 0.0
C1449 C 0.48207 0.99061 0.30893 0.0
C1450 C 0.50853 0.08365 0.33438 0.0
C1451 C 0.53286 0.08321 0.34237 0.0
C1452 C 0.49364 0.0633 0.33809 0.0
C1453 C 0.5034 0.04211 0.34896 0.0
C1454 C 0.52641 0.04325 0.36039 0.0
C1455 C 0.54113 0.06396 0.35721 0.0
H1456 H 0.96399 0.48059 0.67257 0.0
H1457 H 0.9916 0.48365 0.74661 0.0
H1458 H 1.00434 0.4938 0.65717 0.0
H1459 H 0.03131 0.49629 0.73145 0.0
H1460 H 0.10106 0.50298 0.71137 0.0
H1461 H 0.06568 0.4767 0.7042 0.0
H1462 H 0.02994 0.53568 0.66542 0.0
H1463 H 0.06602 0.56153 0.67149 0.0
C1464 C 0.97865 0.48413 0.68546 0.0
C1465 C 0.97486 0.48126 0.71074 0.0
C1466 C 1.00163 0.49136 0.67665 0.0
C1467 C 0.02098 0.4952 0.69308 0.0
C1468 C 1.01689 0.49259 0.71832 0.0
C1469 C 0.99406 0.48578 0.72706 0.0
C1470 C 0.08626 0.50971 0.69998 0.0
C1471 C 0.08566 0.53423 0.69248 0.0
C1472 C 0.06609 0.49472 0.69582 0.0
C1473 C 0.04491 0.50463 0.68512 0.0
C1474 C 0.04605 0.52776 0.67388 0.0
C1475 C 0.06661 0.54258 0.67745 0.0
H1476 H 0.55461 0.99994 0.73977 0.0
H1477 H 0.55746 0.96868 0.66723 0.0
H1478 H 0.54654 0.03991 0.7224 0.0
H1479 H 0.5488 1.00937 0.64955 0.0
H1480 H 0.48467 0.07501 0.66232 0.0
H1481 H 0.50931 0.03858 0.65523 0.0
H1482 H 0.56952 0.07181 0.69418 0.0
H1483 H 0.54441 0.10775 0.70238 0.0
C1484 C 0.55339 1.00164 0.72006 0.0
C1485 C 0.55652 0.9813 0.70483 0.0
C1486 C 0.54927 0.02462 0.71005 0.0
C1487 C 0.548 0.02782 0.68457 0.0
C1488 C 0.55035 1.00737 0.66921 0.0
C1489 C 0.55489 0.98419 0.67931 0.0
C1490 C 0.50367 0.07515 0.66806 0.0
C1491 C 0.51244 0.09336 0.68392 0.0
C1492 C 0.51785 0.0543 0.66384 0.0
C1493 C 0.54075 0.0521 0.67527 0.0
C1494 C 0.55155 0.07297 0.68584 0.0
C1495 C 0.53718 0.09347 0.69062 0.0
H1496 H 0.36909 0.9705 0.57174 0.0
H1497 H 0.32429 0.9565 0.50823 0.0
H1498 H 0.37991 1.01101 0.55521 0.0
H1499 H 0.33613 0.99622 0.49117 0.0
H1500 H 0.319 0.07938 0.52538 0.0
H1501 H 0.33376 0.04176 0.54482 0.0
H1502 H 0.38121 0.02838 0.4832 0.0
H1503 H 0.36734 0.06661 0.46424 0.0
C1504 C 0.36274 0.97556 0.55364 0.0
C1505 C 0.34594 0.96068 0.54108 0.0
C1506 C 0.3689 0.99862 0.54429 0.0
C1507 C 0.35897 1.00637 0.52195 0.0
C1508 C 0.34428 0.99031 0.50827 0.0
C1509 C 0.33747 0.96771 0.51798 0.0
C1510 C 0.33344 0.06898 0.51662 0.0
C1511 C 0.34179 0.07541 0.49327 0.0
C1512 C 0.34202 0.04767 0.52777 0.0
C1513 C 0.35852 0.0324 0.51534 0.0
C1514 C 0.36872 0.04014 0.49313 0.0
C1515 C 0.36067 0.06187 0.4823 0.0
H1516 H 0.98759 0.28341 0.48707 0.0
H1517 H 0.97176 0.36077 0.48071 0.0
H1518 H 0.02769 0.29292 0.50361 0.0
H1519 H 1.01242 0.37043 0.49756 0.0
H1520 H 0.0697 0.35751 0.56631 0.0
H1521 H 0.03408 0.36234 0.53958 0.0
H1522 H 0.06678 0.31277 0.48743 0.0
H1523 H 0.10184 0.3073 0.51455 0.0
C1524 C 0.99271 0.30247 0.48932 0.0
C1525 C 0.97673 0.32137 0.48267 0.0
C1526 C 1.01578 0.30794 0.49843 0.0
C1527 C 0.02331 0.33242 0.50114 0.0
C1528 C 1.00706 0.35144 0.49524 0.0
C1529 C 0.98388 0.34592 0.48585 0.0
C1530 C 0.06967 0.34857 0.54862 0.0
C1531 C 0.08785 0.33149 0.54257 0.0
C1532 C 0.04937 0.35137 0.53333 0.0
C1533 C 0.04752 0.33729 0.51193 0.0
C1534 C 0.06766 0.32333 0.50419 0.0
C1535 C 0.08765 0.32021 0.51961 0.0
H1536 H 0.67147 0.96924 0.48125 0.0
H1537 H 0.74623 0.99411 0.48931 0.0
H1538 H 0.65679 1.01003 0.4939 0.0
H1539 H 0.73176 0.03426 0.50145 0.0
H1540 H 0.71069 0.10665 0.50219 0.0
H1541 H 0.70736 0.06888 0.47859 0.0
H1542 H 0.6627 0.03691 0.53549 0.0
H1543 H 0.6653 0.07516 0.55871 0.0
C1544 C 0.68467 0.98334 0.48589 0.0
C1545 C 0.70995 0.9787 0.48433 0.0
C1546 C 0.67629 1.00658 0.49285 0.0
C1547 C 0.69318 0.02533 0.49782 0.0
C1548 C 0.71837 0.0203 0.49691 0.0
C1549 C 0.72666 0.99722 0.4903 0.0
C1550 C 0.69909 0.09199 0.50896 0.0
C1551 C 0.68875 0.09328 0.53234 0.0
C1552 C 0.69716 0.07046 0.49552 0.0
C1553 C 0.68546 0.04991 0.50573 0.0
C1554 C 0.6719 0.05253 0.52737 0.0
C1555 C 0.67343 0.07436 0.54064 0.0
H1556 H 0.98319 0.77172 0.56833 0.0
H1557 H 0.96149 0.69901 0.54548 0.0
H1558 H 0.01999 0.76875 0.54354 0.0
H1559 H 0.99825 0.69625 0.51996 0.0
H1560 H 0.0801 0.69488 0.49649 0.0
H1561 H 0.04424 0.69495 0.52346 0.0
H1562 H 0.02654 0.76832 0.49914 0.0
H1563 H 0.06238 0.76844 0.47289 0.0
C1564 C 0.98631 0.75515 0.55787 0.0
C1565 C 0.96961 0.73567 0.55846 0.0
C1566 C 1.00728 0.75347 0.54371 0.0
C1567 C 1.01169 0.73237 0.52976 0.0
C1568 C 0.99522 0.71261 0.53075 0.0
C1569 C 0.97423 0.71425 0.54511 0.0
C1570 C 0.06846 0.71094 0.49706 0.0
C1571 C 0.07384 0.73171 0.48292 0.0
C1572 C 0.04801 0.71094 0.51229 0.0
C1573 C 0.0329 0.73171 0.5134 0.0
C1574 C 0.03822 0.75227 0.49891 0.0
C1575 C 0.05862 0.7523 0.48385 0.0
H1576 H 0.56138 0.35086 0.97277 0.0
H1577 H 0.52181 0.28764 0.94631 0.0
H1578 H 0.53304 0.35402 1.00731 0.0
H1579 H 0.49291 0.29137 0.98003 0.0
H1580 H 0.48631 0.27462 0.06131 0.0
H1581 H 0.50589 0.28043 0.02194 0.0
H1582 H 0.49045 0.35812 0.0251 0.0
H1583 H 0.47097 0.35225 0.06517 0.0
C1584 C 0.54604 0.33829 0.9739 0.0
C1585 C 0.54393 0.3186 0.95761 0.0
C1586 C 0.52981 0.34015 0.99351 0.0
C1587 C 0.51133 0.32248 0.99655 0.0
C1588 C 0.50749 0.30477 0.97835 0.0
C1589 C 0.52392 0.30264 0.95913 0.0
C1590 C 0.48715 0.29294 0.05364 0.0
C1591 C 0.47721 0.31299 0.06605 0.0
C1592 C 0.49805 0.29624 0.031 0.0
C1593 C 0.49906 0.31965 0.02029 0.0
C1594 C 0.48964 0.33989 0.03297 0.0
C1595 C 0.47868 0.33656 0.0558 0.0
H1596 H 0.48077 0.6833 0.96644 0.0
H1597 H 0.48522 0.759 0.98929 0.0
H1598 H 0.49721 0.67032 1.00636 0.0
H1599 H 0.5012 0.7462 0.02865 0.0
H1600 H 0.51248 0.72667 0.10054 0.0
H1601 H 0.48505 0.72193 0.06565 0.0
H1602 H 0.53976 0.67849 0.02869 0.0
H1603 H 0.56683 0.68248 0.06418 0.0
C1604 C 0.4853 0.69707 0.97997 0.0
C1605 C 0.48186 0.72212 0.97496 0.0
C1606 C 0.49446 0.68965 1.00272 0.0
C1607 C 0.49976 0.70723 0.02067 0.0
C1608 C 0.49653 0.73222 1.01537 0.0
C1609 C 0.48773 0.73959 0.99273 0.0
C1610 C 0.518 0.71499 0.0855 0.0
C1611 C 0.54166 0.70527 0.08455 0.0
C1612 C 0.5024 0.7123 0.06558 0.0
C1613 C 0.51073 0.70052 0.04434 0.0
C1614 C 0.53302 0.68772 0.04488 0.0
C1615 C 0.54849 0.69001 0.06512 0.0
H1616 H 0.34242 0.49636 0.95994 0.0
H1617 H 0.26808 0.47623 0.97823 0.0
H1618 H 0.34255 0.52638 0.99303 0.0
H1619 H 0.26844 0.50539 1.01188 0.0
H1620 H 0.26752 0.57654 0.0532 0.0
H1621 H 0.26843 0.54888 1.01822 0.0
H1622 H 0.34245 0.52772 0.03704 0.0
H1623 H 0.34178 0.55619 0.07136 0.0
C1624 C 0.32624 0.49825 0.97126 0.0
C1625 C 0.30524 0.48421 0.96676 0.0
C1626 C 0.32632 0.5153 0.99017 0.0
C1627 C 0.30546 0.51824 1.00492 0.0
C1628 C 0.28458 0.50385 1.00048 0.0
C1629 C 0.28442 0.48707 0.98141 0.0
C1630 C 0.28397 0.56604 0.04966 0.0
C1631 C 0.30455 0.56826 0.06477 0.0
C1632 C 0.28448 0.55016 0.02981 0.0
C1633 C 0.30546 0.53606 0.02507 0.0
C1634 C 0.32616 0.53861 0.0401 0.0
C1635 C 0.32575 0.55474 0.05976 0.0
H1636 H 0.70245 0.54401 0.95856 0.0
H1637 H 0.77551 0.56702 0.97866 0.0
H1638 H 0.70191 0.51542 0.99304 0.0
H1639 H 0.77477 0.53909 1.01338 0.0
H1640 H 0.77609 0.46911 0.05661 0.0
H1641 H 0.77509 0.49492 0.02025 0.0
H1642 H 0.70125 0.51729 0.0381 0.0
H1643 H 0.70205 0.4908 0.07416 0.0
C1644 C 0.71828 0.54299 0.97048 0.0
C1645 C 0.73903 0.55751 0.96617 0.0
C1646 C 0.71795 0.52678 0.99015 0.0
C1647 C 0.73834 0.52506 1.00569 0.0
C1648 C 0.759 0.53978 1.00137 0.0
C1649 C 0.75937 0.55583 0.98166 0.0
C1650 C 0.75965 0.47948 0.05264 0.0
C1651 C 0.7392 0.47827 0.06804 0.0
C1652 C 0.7591 0.49426 0.03196 0.0
C1653 C 0.73817 0.50817 0.02659 0.0
C1654 C 0.71751 0.50653 0.04178 0.0
C1655 C 0.71801 0.49157 0.0624 0.0
H1656 H 0.22038 0.16585 0.30203 0.0
H1657 H 0.23822 0.2106 0.36485 0.0
H1658 H 0.18755 0.19433 0.29136 0.0
H1659 H 0.20448 0.23786 0.3549 0.0
H1660 H 0.19587 0.28417 0.27168 0.0
H1661 H 0.20749 0.24318 0.28263 0.0
H1662 H 0.15235 0.24158 0.33894 0.0
H1663 H 0.1383 0.28226 0.32634 0.0
C1664 C 0.21675 0.18116 0.31409 0.0
C1665 C 0.23249 0.18633 0.33386 0.0
C1666 C 0.19775 0.19721 0.30812 0.0
C1667 C 0.19365 0.21818 0.32231 0.0
C1668 C 0.20717 0.22158 0.34387 0.0
C1669 C 0.22656 0.20589 0.34954 0.0
C1670 C 0.18493 0.275 0.2854 0.0
C1671 C 0.16619 0.28723 0.29828 0.0
C1672 C 0.19189 0.25132 0.2918 0.0
C1673 C 0.18088 0.23942 0.31165 0.0
C1674 C 0.16106 0.25054 0.32353 0.0
C1675 C 0.15336 0.274 0.31648 0.0
H1676 H 0.75593 0.1679 0.27778 0.0
H1677 H 0.7157 0.17978 0.34494 0.0
H1678 H 0.79268 0.18279 0.29729 0.0
H1679 H 0.75305 0.19133 0.36525 0.0
H1680 H 0.80278 0.2592 0.37261 0.0
H1681 H 0.77228 0.22821 0.36445 0.0
H1682 H 0.82551 0.18675 0.32283 0.0
H1683 H 0.85564 0.21913 0.32992 0.0
C1684 C 0.75494 0.17302 0.29687 0.0
C1685 C 0.73233 0.17379 0.3092 0.0
C1686 C 0.77633 0.18114 0.30834 0.0
C1687 C 0.7758 0.18938 0.33274 0.0
C1688 C 0.75401 0.18633 0.34611 0.0
C1689 C 0.73246 0.17912 0.33442 0.0
C1690 C 0.80813 0.24309 0.36233 0.0
C1691 C 0.83139 0.24163 0.35165 0.0
C1692 C 0.79063 0.22507 0.35769 0.0
C1693 C 0.79611 0.2049 0.34254 0.0
C1694 C 0.82029 0.2023 0.33393 0.0
C1695 C 0.83766 0.22069 0.33816 0.0
H1696 H 0.88671 0.72972 0.3369 0.0
H1697 H 0.83543 0.75204 0.28057 0.0
H1698 H 0.87564 0.76629 0.3606 0.0
H1699 H 0.82666 0.78882 0.30299 0.0
H1700 H 0.79211 0.80673 0.3859 0.0
H1701 H 0.82344 0.77701 0.37443 0.0
H1702 H 0.85416 0.82907 0.32354 0.0
H1703 H 0.82318 0.85906 0.3353 0.0
C1704 C 0.87361 0.74248 0.32922 0.0
C1705 C 0.86221 0.73772 0.30652 0.0
C1706 C 0.86758 0.76349 0.34271 0.0
C1707 C 0.85074 0.78043 0.33328 0.0
C1708 C 0.84023 0.7763 0.3103 0.0
C1709 C 0.84555 0.75513 0.29729 0.0
C1710 C 0.80641 0.81238 0.37336 0.0
C1711 C 0.80489 0.83493 0.36097 0.0
C1712 C 0.82441 0.79537 0.36688 0.0
C1713 C 0.8409 0.80078 0.34794 0.0
C1714 C 0.8416 0.82459 0.33823 0.0
C1715 C 0.82377 0.84163 0.34481 0.0
H1716 H 0.1852 0.80809 0.32908 0.0
H1717 H 0.23976 0.77922 0.37855 0.0
H1718 H 0.21293 0.8415 0.31811 0.0
H1719 H 0.26714 0.81292 0.36792 0.0
H1720 H 0.28923 0.83554 0.27343 0.0
H1721 H 0.25261 0.82367 0.29457 0.0
H1722 H 0.27649 0.86242 0.35902 0.0
H1723 H 0.3129 0.87675 0.33697 0.0
C1724 C 0.2027 0.80945 0.33834 0.0
C1725 C 0.21065 0.79067 0.35407 0.0
C1726 C 0.21842 0.82868 0.33224 0.0
C1727 C 0.2422 0.82949 0.34195 0.0
C1728 C 0.24882 0.81274 0.36031 0.0
C1729 C 0.23314 0.79337 0.36631 0.0
C1730 C 0.28644 0.84292 0.29157 0.0
C1731 C 0.30435 0.85737 0.30325 0.0
C1732 C 0.2653 0.83585 0.3038 0.0
C1733 C 0.26168 0.84231 0.32832 0.0
C1734 C 0.27889 0.8574 0.34001 0.0
C1735 C 0.29985 0.86527 0.32742 0.0
H1736 H 0.17361 0.71804 0.69128 0.0
H1737 H 0.16551 0.76082 0.75738 0.0
H1738 H 0.18219 0.7549 0.66854 0.0
H1739 H 0.17745 0.79719 0.73526 0.0
H1740 H 0.21057 0.85934 0.69945 0.0
H1741 H 0.17879 0.82918 0.70867 0.0
H1742 H 0.2176 0.77581 0.66477 0.0
H1743 H 0.24788 0.80621 0.65461 0.0
C1744 C 0.17321 0.73524 0.70109 0.0
C1745 C 0.1698 0.73603 0.72663 0.0
C1746 C 0.1787 0.75654 0.68795 0.0
C1747 C 0.18189 0.77908 0.70008 0.0
C1748 C 0.17559 0.78032 0.72504 0.0
C1749 C 0.16921 0.75916 0.738 0.0
C1750 C 0.21155 0.8414 0.69103 0.0
C1751 C 0.23181 0.83501 0.67656 0.0
C1752 C 0.19354 0.82395 0.69655 0.0
C1753 C 0.19584 0.79958 0.68826 0.0
C1754 C 0.21477 0.7942 0.67158 0.0
C1755 C 0.23238 0.81176 0.66566 0.0
H1756 H 0.27726 0.1934 0.77105 0.0
H1757 H 0.27135 0.13408 0.71847 0.0
H1758 H 0.23626 0.20558 0.76183 0.0
H1759 H 0.23067 0.14894 0.70731 0.0
H1760 H 0.15999 0.22275 0.74359 0.0
H1761 H 0.18602 0.18795 0.7543 0.0
H1762 H 0.23011 0.20121 0.69027 0.0
H1763 H 0.20571 0.23693 0.68043 0.0
C1764 C 0.26731 0.18217 0.75818 0.0
C1765 C 0.27856 0.16288 0.74514 0.0
C1766 C 0.24352 0.18946 0.7528 0.0
C1767 C 0.23053 0.17832 0.73377 0.0
C1768 C 0.2405 0.1578 0.72208 0.0
C1769 C 0.26406 0.14969 0.72822 0.0
C1770 C 0.17493 0.218 0.73147 0.0
C1771 C 0.1812 0.2333 0.71162 0.0
C1772 C 0.1895 0.19781 0.73743 0.0
C1773 C 0.20995 0.19205 0.72307 0.0
C1774 C 0.21418 0.20516 0.7014 0.0
C1775 C 0.2001 0.22575 0.69582 0.0
H1776 H 0.76816 0.24039 0.66642 0.0
H1777 H 0.81166 0.18496 0.70218 0.0
H1778 H 0.80034 0.27005 0.67243 0.0
H1779 H 0.84507 0.21444 0.70715 0.0
H1780 H 0.87012 0.28276 0.75168 0.0
H1781 H 0.85298 0.24657 0.73288 0.0
H1782 H 0.83746 0.28822 0.66732 0.0
H1783 H 0.85135 0.32501 0.6873 0.0
C1784 C 0.78513 0.23434 0.67474 0.0
C1785 C 0.78737 0.21049 0.68403 0.0
C1786 C 0.80384 0.25136 0.67809 0.0
C1787 C 0.82551 0.2449 0.69054 0.0
C1788 C 0.8285 0.22035 0.69803 0.0
C1789 C 0.80947 0.20338 0.69507 0.0
C1790 C 0.86301 0.28429 0.73325 0.0
C1791 C 0.86084 0.30731 0.72176 0.0
C1792 C 0.85356 0.26325 0.72217 0.0
C1793 C 0.8426 0.26458 0.69889 0.0
C1794 C 0.84451 0.28671 0.68578 0.0
C1795 C 0.85305 0.30792 0.6972 0.0
H1796 H 0.7474 0.89019 0.74145 0.0
H1797 H 0.70868 0.84211 0.69227 0.0
H1798 H 0.78578 0.88088 0.7206 0.0
H1799 H 0.74653 0.83107 0.67279 0.0
H1800 H 0.81072 0.79859 0.64772 0.0
H1801 H 0.78139 0.83111 0.65185 0.0
H1802 H 0.81286 0.85029 0.72194 0.0
H1803 H 0.84466 0.82053 0.71583 0.0
C1804 C 0.74714 0.87797 0.72585 0.0
C1805 C 0.72524 0.86664 0.71859 0.0
C1806 C 0.76916 0.87232 0.71403 0.0
C1807 C 0.76981 0.85447 0.69537 0.0
C1808 C 0.74731 0.845 0.68681 0.0
C1809 C 0.72533 0.85121 0.69814 0.0
C1810 C 0.81232 0.81037 0.66353 0.0
C1811 C 0.82944 0.80562 0.68224 0.0
C1812 C 0.79489 0.82889 0.66618 0.0
C1813 C 0.79331 0.84233 0.6881 0.0
C1814 C 0.81266 0.84006 0.70502 0.0
C1815 C 0.8308 0.82233 0.7018 0.0
H1816 H 0.32447 0.23173 0.17954 0.0
H1817 H 0.36976 0.26069 0.23718 0.0
H1818 H 0.32093 0.19288 0.20152 0.0
H1819 H 0.3647 0.22356 0.26033 0.0
H1820 H 0.34515 0.16994 0.30932 0.0
H1821 H 0.36572 0.18559 0.2739 0.0
H1822 H 0.29918 0.17697 0.23172 0.0
H1823 H 0.28012 0.15696 0.26589 0.0
C1824 C 0.33386 0.22952 0.19686 0.0
C1825 C 0.34715 0.24901 0.20694 0.0
C1826 C 0.33168 0.20739 0.20968 0.0
C1827 C 0.34186 0.20482 0.23331 0.0
C1828 C 0.35668 0.22407 0.24227 0.0
C1829 C 0.35946 0.24574 0.22911 0.0
C1830 C 0.33503 0.17014 0.29234 0.0
C1831 C 0.31001 0.16383 0.29128 0.0
C1832 C 0.34685 0.17986 0.27188 0.0
C1833 C 0.33359 0.18494 0.25037 0.0
C1834 C 0.31005 0.17459 0.24807 0.0
C1835 C 0.2987 0.16352 0.26813 0.0
H1836 H 0.81382 0.32971 0.18354 0.0
H1837 H 0.77869 0.37361 0.23892 0.0
H1838 H 0.84862 0.32295 0.21087 0.0
H1839 H 0.81222 0.36607 0.26651 0.0
H1840 H 0.86258 0.34727 0.3195 0.0
H1841 H 0.85085 0.36724 0.2821 0.0
H1842 H 0.85488 0.29792 0.24403 0.0
H1843 H 0.87014 0.27854 0.28068 0.0
C1844 C 0.8138 0.33823 0.20144 0.0
C1845 C 0.79353 0.35195 0.20928 0.0
C1846 C 0.83364 0.3343 0.21716 0.0
C1847 C 0.83326 0.34354 0.2412 0.0
C1848 C 0.81369 0.35886 0.24814 0.0
C1849 C 0.79418 0.36312 0.23232 0.0
C1850 C 0.8623 0.33629 0.30305 0.0
C1851 C 0.86606 0.31073 0.30369 0.0
C1852 C 0.85502 0.34784 0.28148 0.0
C1853 C 0.85026 0.334 0.26033 0.0
C1854 C 0.85765 0.30928 0.26 0.0
C1855 C 0.86595 0.29792 0.28135 0.0
H1856 H 0.67662 0.78076 0.23207 0.0
H1857 H 0.72395 0.82237 0.18439 0.0
H1858 H 0.68322 0.8098 0.26444 0.0
H1859 H 0.72948 0.85307 0.2165 0.0
H1860 H 0.76732 0.87145 0.29003 0.0
H1861 H 0.75124 0.85761 0.25137 0.0
H1862 H 0.68066 0.84515 0.28518 0.0
H1863 H 0.69781 0.8554 0.3245 0.0
C1864 C 0.68772 0.7968 0.22824 0.0
C1865 C 0.69985 0.79929 0.20578 0.0
C1866 C 0.69143 0.81377 0.24687 0.0
C1867 C 0.7071 0.83404 0.24347 0.0
C1868 C 0.71779 0.83747 0.2202 0.0
C1869 C 0.7145 0.82003 0.20166 0.0
C1870 C 0.74839 0.86557 0.28933 0.0
C1871 C 0.73446 0.86314 0.31088 0.0
C1872 C 0.7389 0.85807 0.26683 0.0
C1873 C 0.71483 0.84894 0.26512 0.0
C1874 C 0.6997 0.85063 0.28592 0.0
C1875 C 0.7095 0.85712 0.30861 0.0
H1876 H 0.26711 0.67003 0.23262 0.0
H1877 H 0.22682 0.7159 0.18243 0.0
H1878 H 0.23439 0.67236 0.26167 0.0
H1879 H 0.19265 0.71738 0.21134 0.0
H1880 H 0.17015 0.75296 0.28542 0.0
H1881 H 0.18415 0.73783 0.24647 0.0
H1882 H 0.19737 0.6667 0.27893 0.0
H1883 H 0.18722 0.68294 0.31856 0.0
C1884 C 0.25069 0.67988 0.22742 0.0
C1885 C 0.2496 0.69297 0.20536 0.0
C1886 C 0.23157 0.68109 0.24412 0.0
C1887 C 0.21057 0.69526 0.23921 0.0
C1888 C 0.20867 0.70676 0.21615 0.0
C1889 C 0.22817 0.70589 0.1995 0.0
C1890 C 0.1762 0.73409 0.28436 0.0
C1891 C 0.17945 0.71994 0.30568 0.0
C1892 C 0.18376 0.72514 0.26168 0.0
C1893 C 0.19359 0.70139 0.25972 0.0
C1894 C 0.19156 0.68564 0.28004 0.0
C1895 C 0.18518 0.69493 0.30293 0.0
H1896 H 0.33298 0.882 0.72004 0.0
H1897 H 0.2766 0.82993 0.74095 0.0
H1898 H 0.3556 0.87155 0.75743 0.0
H1899 H 0.29786 0.8219 0.77846 0.0
H1900 H 0.38076 0.78896 0.80065 0.0
H1901 H 0.36952 0.81908 0.76953 0.0
H1902 H 0.31674 0.85066 0.81889 0.0
H1903 H 0.32828 0.82096 0.8503 0.0
C1904 C 0.32503 0.86887 0.73259 0.0
C1905 C 0.30262 0.85706 0.72715 0.0
C1906 C 0.33791 0.86318 0.7541 0.0
C1907 C 0.32814 0.84632 0.77085 0.0
C1908 C 0.30542 0.83547 0.76605 0.0
C1909 C 0.29305 0.84041 0.74444 0.0
C1910 C 0.36778 0.80319 0.80538 0.0
C1911 C 0.35491 0.80226 0.82764 0.0
C1912 C 0.36143 0.8205 0.78758 0.0
C1913 C 0.34217 0.83694 0.79188 0.0
C1914 C 0.33172 0.83817 0.81528 0.0
C1915 C 0.33816 0.82102 0.83311 0.0
H1916 H 0.16495 0.34833 0.73604 0.0
H1917 H 0.15616 0.28246 0.77955 0.0
H1918 H 0.18038 0.36932 0.77096 0.0
H1919 H 0.17634 0.30216 0.81297 0.0
H1920 H 0.23502 0.32681 0.86046 0.0
H1921 H 0.19464 0.32285 0.84189 0.0
H1922 H 0.21817 0.37144 0.78339 0.0
H1923 H 0.25683 0.37683 0.80348 0.0
C1924 C 0.16631 0.33788 0.75276 0.0
C1925 C 0.16148 0.31247 0.75373 0.0
C1926 C 0.17591 0.3501 0.77301 0.0
C1927 C 0.18248 0.33698 0.7942 0.0
C1928 C 0.17319 0.31298 0.79672 0.0
C1929 C 0.1621 0.3012 0.77694 0.0
C1930 C 0.23089 0.33716 0.84405 0.0
C1931 C 0.24889 0.3518 0.83308 0.0
C1932 C 0.20785 0.33471 0.8331 0.0
C1933 C 0.20288 0.3459 0.8103 0.0
C1934 C 0.22052 0.36236 0.8008 0.0
C1935 C 0.2431 0.3654 0.8122 0.0
H1936 H 0.68533 0.17249 0.72258 0.0
H1937 H 0.75792 0.16309 0.75308 0.0
H1938 H 0.66938 0.17984 0.76278 0.0
H1939 H 0.74246 0.17443 0.79276 0.0
H1940 H 0.71823 0.21291 0.85805 0.0
H1941 H 0.72186 0.17932 0.82871 0.0
H1942 H 0.67144 0.2172 0.78053 0.0
H1943 H 0.66714 0.2494 0.81006 0.0
C1944 C 0.69805 0.17152 0.73769 0.0
C1945 C 0.72346 0.16885 0.73398 0.0
C1946 C 0.6888 0.17628 0.76097 0.0
C1947 C 0.7048 0.17974 0.78083 0.0
C1948 C 0.72946 0.17285 0.77791 0.0
C1949 C 0.73854 0.16688 0.7548 0.0
C1950 C 0.70748 0.21348 0.8414 0.0
C1951 C 0.69262 0.23382 0.83617 0.0
C1952 C 0.7096 0.19433 0.82451 0.0
C1953 C 0.69735 0.19551 0.80184 0.0
C1954 C 0.68098 0.21506 0.79774 0.0
C1955 C 0.67857 0.23385 0.81472 0.0
H1956 H 0.87972 0.70494 0.72427 0.0
H1957 H 0.82435 0.75646 0.74835 0.0
H1958 H 0.87462 0.68223 0.76276 0.0
H1959 H 0.82155 0.73543 0.7868 0.0
H1960 H 0.79414 0.65333 0.80769 0.0
H1961 H 0.825 0.6639 0.77759 0.0
H1962 H 0.85391 0.71915 0.82594 0.0
H1963 H 0.82358 0.70799 0.85678 0.0
C1964 C 0.86697 0.71185 0.73775 0.0
C1965 C 0.85262 0.73286 0.73293 0.0
C1966 C 0.86443 0.69902 0.75989 0.0
C1967 C 0.84823 0.70755 0.77785 0.0
C1968 C 0.8348 0.72898 0.77352 0.0
C1969 C 0.83662 0.74119 0.75131 0.0
C1970 C 0.80804 0.66658 0.81275 0.0
C1971 C 0.8057 0.68066 0.83419 0.0
C1972 C 0.82585 0.67255 0.79541 0.0
C1973 C 0.84129 0.69273 0.7993 0.0
C1974 C 0.842 0.70361 0.82254 0.0
C1975 C 0.82442 0.69741 0.84005 0.0
H1976 H 0.31254 0.32426 0.23931 0.0
H1977 H 0.28925 0.33428 0.16463 0.0
H1978 H 0.27591 0.34486 0.25376 0.0
H1979 H 0.25205 0.35536 0.17902 0.0
H1980 H 0.17761 0.34223 0.22445 0.0
H1981 H 0.21511 0.34104 0.20044 0.0
H1982 H 0.25249 0.38228 0.25656 0.0
H1983 H 0.2157 0.382 0.28127 0.0
C1984 C 0.29964 0.3314 0.22601 0.0
C1985 C 0.30344 0.32766 0.20098 0.0
C1986 C 0.27877 0.34347 0.23421 0.0
C1987 C 0.26106 0.35201 0.21754 0.0
C1988 C 0.26534 0.34902 0.1923 0.0
C1989 C 0.28652 0.33702 0.18406 0.0
C1990 C 0.19363 0.35168 0.23136 0.0
C1991 C 0.19388 0.36115 0.25532 0.0
C1992 C 0.21514 0.35117 0.21746 0.0
C1993 C 0.23706 0.36064 0.22711 0.0
C1994 C 0.23607 0.37404 0.24904 0.0
C1995 C 0.21473 0.37418 0.2631 0.0
H1996 H 0.18191 0.71594 0.81999 0.0
H1997 H 0.23162 0.66849 0.78126 0.0
H1998 H 0.21295 0.7228 0.85147 0.0
H1999 H 0.26307 0.67643 0.81113 0.0
H2000 H 0.32202 0.69557 0.85602 0.0
H2001 H 0.28331 0.67632 0.84704 0.0
H2002 H 0.24698 0.74635 0.85465 0.0
H2003 H 0.2851 0.76481 0.86715 0.0
C2004 C 0.1994 0.70671 0.81851 0.0
C2005 C 0.20452 0.69182 0.79825 0.0
C2006 C 0.21731 0.71076 0.83638 0.0
C2007 C 0.24093 0.70064 0.83384 0.0
C2008 C 0.2452 0.68435 0.81429 0.0
C2009 C 0.22715 0.67987 0.79687 0.0
C2010 C 0.30571 0.70676 0.85701 0.0
C2011 C 0.30708 0.7322 0.86117 0.0
C2012 C 0.28337 0.6957 0.85128 0.0
C2013 C 0.26206 0.70994 0.84853 0.0
C2014 C 0.26288 0.73463 0.85599 0.0
C2015 C 0.28505 0.74547 0.86271 0.0
H2016 H 0.34003 0.1794 0.81358 0.0
H2017 H 0.37223 0.21408 0.75015 0.0
H2018 H 0.34086 0.21851 0.83509 0.0
H2019 H 0.37414 0.2527 0.77205 0.0
H2020 H 0.31724 0.31295 0.79358 0.0
H2021 H 0.3359 0.27544 0.77858 0.0
H2022 H 0.35898 0.2572 0.85203 0.0
H2023 H 0.34007 0.29536 0.86701 0.0
C2024 C 0.34831 0.19507 0.80461 0.0
C2025 C 0.3552 0.19376 0.77982 0.0
C2026 C 0.34892 0.2175 0.81702 0.0
C2027 C 0.35675 0.23887 0.80491 0.0
C2028 C 0.36736 0.23664 0.78159 0.0
C2029 C 0.36655 0.21432 0.76913 0.0
C2030 C 0.3267 0.30111 0.80641 0.0
C2031 C 0.32717 0.3068 0.83138 0.0
C2032 C 0.33764 0.27974 0.79784 0.0
C2033 C 0.34915 0.26337 0.81408 0.0
C2034 C 0.3503 0.26948 0.83908 0.0
C2035 C 0.33955 0.29121 0.84765 0.0
H2036 H 0.72663 0.341 0.86622 0.0
H2037 H 0.76577 0.27194 0.86879 0.0
H2038 H 0.7637 0.36173 0.85549 0.0
H2039 H 0.80198 0.2924 0.85401 0.0
H2040 H 0.86197 0.32677 0.81471 0.0
H2041 H 0.83504 0.31739 0.84916 0.0
H2042 H 0.77974 0.36484 0.81767 0.0
H2043 H 0.80713 0.37506 0.78473 0.0
C2044 C 0.74298 0.32996 0.8649 0.0
C2045 C 0.74239 0.30417 0.86717 0.0
C2046 C 0.76443 0.34206 0.85812 0.0
C2047 C 0.7856 0.32872 0.8522 0.0
C2048 C 0.78601 0.30349 0.85773 0.0
C2049 C 0.76481 0.2915 0.86566 0.0
C2050 C 0.84433 0.33577 0.81586 0.0
C2051 C 0.83647 0.35144 0.79704 0.0
C2052 C 0.82876 0.33024 0.83543 0.0
C2053 C 0.8048 0.33977 0.83614 0.0
C2054 C 0.798 0.3572 0.81829 0.0
C2055 C 0.81373 0.36308 0.79912 0.0
H2056 H 0.70398 0.72981 0.87336 0.0
H2057 H 0.76329 0.7477 0.82374 0.0
H2058 H 0.68457 0.76911 0.8633 0.0
H2059 H 0.74511 0.78693 0.81584 0.0
H2060 H 0.65688 0.81368 0.78732 0.0
H2061 H 0.66938 0.78285 0.81695 0.0
H2062 H 0.73043 0.82822 0.83845 0.0
H2063 H 0.71759 0.85963 0.80927 0.0
C2064 C 0.71322 0.74212 0.86085 0.0
C2065 C 0.73547 0.73532 0.84961 0.0
C2066 C 0.70221 0.76471 0.85538 0.0
C2067 C 0.71366 0.78116 0.83924 0.0
C2068 C 0.73627 0.7749 0.82896 0.0
C2069 C 0.74682 0.75224 0.83372 0.0
C2070 C 0.67221 0.81777 0.79922 0.0
C2071 C 0.68666 0.83885 0.79546 0.0
C2072 C 0.67932 0.80005 0.81626 0.0
C2073 C 0.70104 0.80307 0.82963 0.0
C2074 C 0.71367 0.82547 0.82818 0.0
C2075 C 0.70644 0.8433 0.81133 0.0
H2076 H 0.72724 0.69966 0.19318 0.0
H2077 H 0.76532 0.75402 0.15031 0.0
H2078 H 0.76534 0.68039 0.2034 0.0
H2079 H 0.80411 0.73348 0.15865 0.0
H2080 H 0.86318 0.72387 0.21801 0.0
H2081 H 0.83174 0.73174 0.18831 0.0
H2082 H 0.80032 0.66029 0.20283 0.0
H2083 H 0.82909 0.65438 0.23553 0.0
C2084 C 0.74386 0.70681 0.185 0.0
C2085 C 0.7434 0.72849 0.17125 0.0
C2086 C 0.76604 0.6956 0.19073 0.0
C2087 C 0.78847 0.70547 0.18243 0.0
C2088 C 0.78757 0.72573 0.16632 0.0
C2089 C 0.7653 0.73741 0.16121 0.0
C2090 C 0.84937 0.7099 0.2152 0.0
C2091 C 0.8477 0.68945 0.23087 0.0
C2092 C 0.8314 0.71419 0.1975 0.0
C2093 C 0.81203 0.69743 0.19412 0.0
C2094 C 0.81365 0.6746 0.20611 0.0
C2095 C 0.83083 0.67089 0.2247 0.0
H2096 H 0.28866 0.76332 0.15355 0.0
H2097 H 0.34936 0.73128 0.19263 0.0
H2098 H 0.30684 0.80394 0.15864 0.0
H2099 H 0.36663 0.77094 0.19924 0.0
H2100 H 0.39036 0.83494 0.22818 0.0
H2101 H 0.38421 0.80707 0.19503 0.0
H2102 H 0.3101 0.83348 0.18638 0.0
H2103 H 0.3179 0.86477 0.21615 0.0
C2104 C 0.30604 0.765 0.16296 0.0
C2105 C 0.31749 0.74421 0.17285 0.0
C2106 C 0.31648 0.78831 0.16608 0.0
C2107 C 0.33816 0.79134 0.17988 0.0
C2108 C 0.35027 0.77004 0.18814 0.0
C2109 C 0.34018 0.74692 0.18454 0.0
C2110 C 0.373 0.83586 0.21877 0.0
C2111 C 0.35358 0.85068 0.22716 0.0
C2112 C 0.36927 0.81917 0.19979 0.0
C2113 C 0.34572 0.81584 0.18981 0.0
C2114 C 0.32815 0.83411 0.19447 0.0
C2115 C 0.33243 0.85189 0.21236 0.0
H2116 H 0.75603 0.28322 0.16791 0.0
H2117 H 0.68641 0.31952 0.17889 0.0
H2118 H 0.73768 0.24483 0.17966 0.0
H2119 H 0.66738 0.2806 0.18664 0.0
H2120 H 0.66045 0.23051 0.25383 0.0
H2121 H 0.66721 0.26089 0.22269 0.0
H2122 H 0.71478 0.21056 0.18399 0.0
H2123 H 0.709 0.18057 0.21673 0.0
C2124 C 0.73669 0.28307 0.17222 0.0
C2125 C 0.72336 0.30506 0.17422 0.0
C2126 C 0.72588 0.26069 0.17842 0.0
C2127 C 0.70115 0.25963 0.18566 0.0
C2128 C 0.68682 0.28085 0.18277 0.0
C2129 C 0.69784 0.30339 0.17774 0.0
C2130 C 0.67177 0.22567 0.23829 0.0
C2131 C 0.68447 0.20338 0.23782 0.0
C2132 C 0.67561 0.24314 0.22011 0.0
C2133 C 0.69202 0.23863 0.20071 0.0
C2134 C 0.70267 0.21515 0.19896 0.0
C2135 C 0.69923 0.19783 0.21757 0.0
H2136 H 0.9927 0.31135 0.40441 0.0
H2137 H 0.95067 0.35179 0.35132 0.0
H2138 H 0.03067 0.32604 0.38519 0.0
H2139 H 0.98798 0.3671 0.33274 0.0
H2140 H 0.05846 0.39064 0.29681 0.0
H2141 H 0.02379 0.36531 0.31012 0.0
H2142 H 0.05499 0.361 0.3826 0.0
H2143 H 0.08962 0.38528 0.36907 0.0
C2144 C 0.9915 0.3227 0.38818 0.0
C2145 C 0.96841 0.33005 0.37937 0.0
C2146 C 1.01337 0.33165 0.37733 0.0
C2147 C 1.0129 0.3483 0.35732 0.0
C2148 C 0.98968 0.35428 0.34776 0.0
C2149 C 0.96801 0.3454 0.35855 0.0
C2150 C 0.05819 0.38381 0.31541 0.0
C2151 C 0.07709 0.39027 0.33172 0.0
C2152 C 0.03802 0.36942 0.32327 0.0
C2153 C 0.03595 0.361 0.34776 0.0
C2154 C 0.05555 0.36659 0.36361 0.0
C2155 C 0.0756 0.38084 0.35577 0.0
H2156 H 0.68768 0.94344 0.35536 0.0
H2157 H 0.72223 0.99111 0.40777 0.0
H2158 H 0.67105 0.97875 0.33373 0.0
H2159 H 0.70491 0.02676 0.3867 0.0
H2160 H 0.67896 0.09 0.3404 0.0
H2161 H 0.70171 0.05429 0.35443 0.0
H2162 H 0.64025 1.00807 0.33552 0.0
H2163 H 0.61791 0.04409 0.32067 0.0
C2164 C 0.69224 0.9616 0.36197 0.0
C2165 C 0.70677 0.96428 0.38315 0.0
C2166 C 0.68225 0.98201 0.34973 0.0
C2167 C 0.68604 1.00606 0.35837 0.0
C2168 C 0.70159 1.0088 0.37901 0.0
C2169 C 0.71181 0.98826 0.39115 0.0
C2170 C 0.67057 0.07208 0.33851 0.0
C2171 C 0.64667 0.07002 0.32889 0.0
C2172 C 0.68354 0.05148 0.34704 0.0
C2173 C 0.67302 0.02787 0.34669 0.0
C2174 C 0.64942 0.02566 0.33601 0.0
C2175 C 0.63649 0.04639 0.32723 0.0
H2176 H 0.9537 0.66902 0.36719 0.0
H2177 H 0.98822 0.62995 0.30797 0.0
H2178 H 0.9923 0.68747 0.37817 0.0
H2179 H 0.02746 0.6493 0.31865 0.0
H2180 H 0.06322 0.72802 0.39103 0.0
H2181 H 0.02451 0.71502 0.3721 0.0
H2182 H 0.05902 0.64826 0.34752 0.0
H2183 H 0.09724 0.66152 0.36548 0.0
C2184 C 0.96946 0.66453 0.35611 0.0
C2185 C 0.96741 0.64763 0.3366 0.0
C2186 C 0.9919 0.67548 0.36242 0.0
C2187 C 1.01355 0.67015 0.34954 0.0
C2188 C 1.01147 0.65381 0.32944 0.0
C2189 C 0.9888 0.64278 0.32306 0.0
C2190 C 0.06268 0.7109 0.38103 0.0
C2191 C 0.08366 0.69596 0.38 0.0
C2192 C 0.04028 0.70315 0.37038 0.0
C2193 C 0.03809 0.68021 0.35829 0.0
C2194 C 0.05951 0.66604 0.35627 0.0
C2195 C 0.08169 0.67372 0.36686 0.0
H2196 H 0.40271 0.98192 0.31391 0.0
H2197 H 0.35147 0.93563 0.35211 0.0
H2198 H 0.38165 1.01824 0.32972 0.0
H2199 H 0.32991 0.97153 0.36732 0.0
H2200 H 0.3171 0.03962 0.41676 0.0
H2201 H 0.33209 1.0026 0.39632 0.0
H2202 H 0.34897 0.0454 0.33191 0.0
H2203 H 0.33479 0.08217 0.35278 0.0
C2204 C 0.38639 0.97946 0.3249 0.0
C2205 C 0.37874 0.9557 0.33143 0.0
C2206 C 0.37425 1.00039 0.33423 0.0
C2207 C 0.35395 0.99826 0.35031 0.0
C2208 C 0.34567 0.97435 0.35564 0.0
C2209 C 0.35789 0.95358 0.34653 0.0
C2210 C 0.32321 0.04091 0.39796 0.0
C2211 C 0.32423 0.06391 0.38634 0.0
C2212 C 0.33208 1.01962 0.38612 0.0
C2213 C 0.34223 0.0206 0.36224 0.0
C2214 C 0.34197 0.04355 0.35034 0.0
C2215 C 0.33335 0.06473 0.36222 0.0
H2216 H 0.98131 0.72442 0.63817 0.0
H2217 H 0.93717 0.67974 0.68589 0.0
H2218 H 1.01837 0.70714 0.65636 0.0
H2219 H 0.97383 0.66335 0.70512 0.0
H2220 H 0.04286 0.61582 0.71634 0.0
H2221 H 1.00537 0.63643 0.70305 0.0
H2222 H 0.0475 0.70121 0.68524 0.0
H2223 H 0.08472 0.67995 0.69728 0.0
C2224 C 0.97948 0.7116 0.65322 0.0
C2225 C 0.95605 0.70382 0.66063 0.0
C2226 C 1.0009 0.70143 0.66377 0.0
C2227 C 0.99975 0.68328 0.6824 0.0
C2228 C 0.97611 0.67658 0.69054 0.0
C2229 C 0.95482 0.6864 0.67971 0.0
C2230 C 0.04397 0.63466 0.71015 0.0
C2231 C 0.06695 0.64619 0.70822 0.0
C2232 C 0.02232 0.64668 0.70234 0.0
C2233 C 0.02277 0.67084 0.69256 0.0
C2234 C 0.04583 0.68259 0.69184 0.0
C2235 C 0.06739 0.67044 0.69922 0.0
H2236 H 0.37004 0.9423 0.668 0.0
H2237 H 0.31796 0.98736 0.62936 0.0
H2238 H 0.38686 0.97778 0.68776 0.0
H2239 H 0.3344 0.02377 0.65046 0.0
H2240 H 0.38881 0.08685 0.67217 0.0
H2241 H 0.36634 0.05253 0.65421 0.0
H2242 H 0.38611 1.00763 0.71631 0.0
H2243 H 0.40943 0.04168 0.73339 0.0
C2244 C 0.36168 0.95982 0.66396 0.0
C2245 C 0.34238 0.96147 0.64679 0.0
C2246 C 0.37139 0.98055 0.67572 0.0
C2247 C 0.36227 1.00429 0.67121 0.0
C2248 C 0.34238 1.00607 0.65451 0.0
C2249 C 0.33259 0.98503 0.64253 0.0
C2250 C 0.38815 0.06972 0.68213 0.0
C2251 C 0.40114 0.06728 0.70434 0.0
C2252 C 0.37508 0.04983 0.67178 0.0
C2253 C 0.37431 0.02661 0.68331 0.0
C2254 C 0.38655 0.02464 0.70612 0.0
C2255 C 0.39985 0.04443 0.71625 0.0
H2256 H 0.94076 0.35449 0.68928 0.0
H2257 H 0.988 0.40409 0.72837 0.0
H2258 H 0.97618 0.33167 0.67472 0.0
H2259 H 0.02384 0.38176 0.71323 0.0
H2260 H 0.08656 0.33342 0.69021 0.0
H2261 H 0.04989 0.34779 0.71118 0.0
H2262 H 1.00758 0.33419 0.64579 0.0
H2263 H 0.04446 0.3191 0.62521 0.0
C2264 C 0.9588 0.36015 0.69534 0.0
C2265 C 0.96137 0.38092 0.71047 0.0
C2266 C 0.97929 0.34725 0.68656 0.0
C2267 C 1.00332 0.3548 0.69226 0.0
C2268 C 1.00585 0.37494 0.70847 0.0
C2269 C 0.9852 0.38777 0.71744 0.0
C2270 C 0.06921 0.33264 0.6806 0.0
C2271 C 0.06846 0.32445 0.65615 0.0
C2272 C 0.04813 0.34139 0.69253 0.0
C2273 C 0.0254 0.34267 0.68036 0.0
C2274 C 0.02444 0.33335 0.65616 0.0
C2275 C 0.04564 0.32441 0.64426 0.0
H2276 H 0.64107 0.98922 0.73077 0.0
H2277 H 0.66471 0.95216 0.66528 0.0
H2278 H 0.6606 0.02702 0.71604 0.0
H2279 H 0.68305 0.98954 0.65021 0.0
H2280 H 0.66599 0.09621 0.66793 0.0
H2281 H 0.65519 0.05852 0.68837 0.0
H2282 H 0.71201 0.02065 0.64856 0.0
H2283 H 0.7222 0.05892 0.62697 0.0
C2284 C 0.65071 0.98892 0.71347 0.0
C2285 C 0.65106 0.96736 0.69936 0.0
C2286 C 0.66172 1.01081 0.70471 0.0
C2287 C 0.67341 1.01191 0.68151 0.0
C2288 C 0.67468 0.98991 0.66814 0.0
C2289 C 0.66382 0.96822 0.67687 0.0
C2290 C 0.67647 0.07996 0.66349 0.0
C2291 C 0.69492 0.0809 0.64535 0.0
C2292 C 0.67032 0.05809 0.67561 0.0
C2293 C 0.68239 0.03594 0.67035 0.0
C2294 C 0.70177 0.03702 0.65302 0.0
C2295 C 0.70795 0.05914 0.64074 0.0
H2296 H 0.31227 0.40234 0.984 0.0
H2297 H 0.34788 0.34539 0.94291 0.0
H2298 H 0.32421 0.38221 0.02211 0.0
H2299 H 0.35869 0.3243 0.98065 0.0
H2300 H 0.40398 0.3105 0.05076 0.0
H2301 H 0.3855 0.32387 1.01238 0.0
H2302 H 0.32407 0.35359 0.05242 0.0
H2303 H 0.34355 0.34134 0.09064 0.0
C2304 C 0.32169 0.3849 0.98308 0.0
C2305 C 0.3287 0.37537 0.96024 0.0
C2306 C 0.32879 0.37322 1.0051 0.0
C2307 C 0.34294 0.35142 1.00508 0.0
C2308 C 0.34852 0.34124 0.982 0.0
C2309 C 0.34183 0.35315 0.96011 0.0
C2310 C 0.38608 0.31904 0.05125 0.0
C2311 C 0.37503 0.32422 0.07388 0.0
C2312 C 0.37537 0.32701 0.02907 0.0
C2313 C 0.35306 0.34031 0.02868 0.0
C2314 C 0.34141 0.34408 0.05144 0.0
C2315 C 0.35235 0.33651 0.07355 0.0
H2316 H 0.35008 0.7043 0.94507 0.0
H2317 H 0.40733 0.73751 0.98786 0.0
H2318 H 0.3282 0.69305 0.98226 0.0
H2319 H 0.38638 0.72514 0.02538 0.0
H2320 H 0.34446 0.7049 0.09268 0.0
H2321 H 0.35694 0.72549 0.05507 0.0
H2322 H 0.32752 0.66504 1.01318 0.0
H2323 H 0.31397 0.64542 0.05094 0.0
C2324 C 0.35771 0.70974 0.96254 0.0
C2325 C 0.38024 0.72232 0.96336 0.0
C2326 C 0.34536 0.70282 0.98408 0.0
C2327 C 0.35538 0.7076 1.0074 0.0
C2328 C 0.37752 0.72123 1.00812 0.0
C2329 C 0.38966 0.72856 0.98647 0.0
C2330 C 0.3397 0.69659 0.07532 0.0
C2331 C 0.32754 0.67379 0.07492 0.0
C2332 C 0.34741 0.70816 0.05359 0.0
C2333 C 0.34386 0.69704 0.03054 0.0
C2334 C 0.33051 0.67472 0.03018 0.0
C2335 C 0.32243 0.66337 0.05198 0.0
H2336 H 0.6942 0.33591 0.95354 0.0
H2337 H 0.62908 0.31545 0.99294 0.0
H2338 H 0.71388 0.34821 0.99154 0.0
H2339 H 0.648 0.32903 0.03111 0.0
H2340 H 0.687 0.34933 0.10047 0.0
H2341 H 0.67397 0.32787 0.06365 0.0
H2342 H 0.71665 0.37842 0.01997 0.0
H2343 H 0.7306 0.3988 0.0572 0.0
C2344 C 0.68422 0.33356 0.97052 0.0
C2345 C 0.66015 0.32419 0.9701 0.0
C2346 C 0.69539 0.34112 0.99247 0.0
C2347 C 0.68272 0.34026 1.01497 0.0
C2348 C 0.65887 0.32988 1.0146 0.0
C2349 C 0.64786 0.32186 0.99257 0.0
C2350 C 0.69429 0.35528 0.08301 0.0
C2351 C 0.71034 0.37551 0.08197 0.0
C2352 C 0.68638 0.34322 0.06164 0.0
C2353 C 0.69368 0.35131 0.03819 0.0
C2354 C 0.71064 0.37103 0.03732 0.0
C2355 C 0.7189 0.38282 0.05883 0.0
H2356 H 0.73542 0.65169 0.97619 0.0
H2357 H 0.67059 0.67895 0.94028 0.0
H2358 H 0.7222 0.67145 1.01428 0.0
H2359 H 0.65703 0.69769 0.978 0.0
H2360 H 0.63795 0.73802 0.04813 0.0
H2361 H 0.65787 0.72667 1.00944 0.0
H2362 H 0.69424 0.66664 0.04595 0.0
H2363 H 0.67531 0.67835 0.08402 0.0
C2364 C 0.71861 0.66221 0.9762 0.0
C2365 C 0.70419 0.66345 0.95488 0.0
C2366 C 0.71071 0.67335 0.99826 0.0
C2367 C 0.68813 0.68615 0.9998 0.0
C2368 C 0.67452 0.68838 0.97803 0.0
C2369 C 0.68236 0.67732 0.95616 0.0
C2370 C 0.65057 0.72272 0.04796 0.0
C2371 C 0.65469 0.70918 0.06953 0.0
C2372 C 0.6619 0.71592 0.0256 0.0
C2373 C 0.67783 0.69541 0.02404 0.0
C2374 C 0.68256 0.68265 0.04592 0.0
C2375 C 0.67132 0.68937 0.06804 0.0
loop_
_geom_bond_atom_site_label_1
_geom_bond_atom_site_label_2
_geom_bond_distance
_geom_bond_site_symmetry_2
_ccdc_geom_bond_type
O0 Tb1 2.292 . S
O0 C3 1.255 . S
Tb1 O0 2.292 . S
Tb1 O17 2.326 . S
Tb1 O19 2.500 . S
Tb1 O20 2.473 . S
Tb1 O23 2.324 . S
Eu2 O6 2.292 . S
Eu2 C7 2.852 . S
Eu2 O18 2.324 . S
Eu2 O22 2.326 . S
Eu2 O24 2.500 . S
Eu2 O25 2.473 . S
C3 O0 1.255 . S
C3 O4 1.247 . S
O4 C3 1.247 . S
C5 O17 1.242 . S
C5 O18 1.258 . S
O6 Eu2 2.292 . S
O6 C8 1.255 . S
C7 Eu2 2.852 . S
C7 C11 1.503 . S
C7 O24 1.273 . S
C7 O25 1.257 . S
C8 O6 1.255 . S
C8 O9 1.247 . S
O9 C8 1.247 . S
C10 O22 1.242 . S
C10 O23 1.258 . S
C11 C7 1.503 . S
C11 C12 1.379 . S
C11 C16 1.392 . S
C12 C11 1.379 . S
C12 C13 1.404 . S
C12 H26 0.929 . S
C13 C12 1.404 . S
C13 C14 1.389 . S
C14 C13 1.389 . S
C14 C15 1.399 . S
C14 H27 0.931 . S
C15 C14 1.399 . S
C15 C16 1.390 . S
C16 C11 1.392 . S
C16 C15 1.390 . S
C16 H28 0.929 . S
O17 Tb1 2.326 . S
O17 C5 1.242 . S
O18 Eu2 2.324 . S
O18 C5 1.258 . S
O19 Tb1 2.500 . S
O19 C21 1.273 . S
O20 Tb1 2.473 . S
O20 C21 1.257 . S
C21 O19 1.273 . S
C21 O20 1.257 . S
O22 Eu2 2.326 . S
O22 C10 1.242 . S
O23 Tb1 2.324 . S
O23 C10 1.258 . S
O24 Eu2 2.500 . S
O24 C7 1.273 . S
O25 Eu2 2.473 . S
O25 C7 1.257 . S
H26 C12 0.929 . S
H27 C14 0.931 . S
H28 C16 0.929 . S
O29 Tb30 2.292 . S
O29 C32 1.255 . S
Tb30 O29 2.292 . S
Tb30 O46 2.326 . S
Tb30 O48 2.500 . S
Tb30 O49 2.473 . S
Tb30 O52 2.324 . S
Eu31 O35 2.292 . S
Eu31 C36 2.852 . S
Eu31 O47 2.324 . S
Eu31 O51 2.326 . S
Eu31 O53 2.500 . S
Eu31 O54 2.473 . S
C32 O29 1.255 . S
C32 O33 1.247 . S
O33 C32 1.247 . S
C34 O46 1.242 . S
C34 O47 1.258 . S
O35 Eu31 2.292 . S
O35 C37 1.255 . S
C36 Eu31 2.852 . S
C36 C40 1.503 . S
C36 O53 1.273 . S
C36 O54 1.257 . S
C37 O35 1.255 . S
C37 O38 1.247 . S
O38 C37 1.247 . S
C39 O51 1.242 . S
C39 O52 1.258 . S
C40 C36 1.503 . S
C40 C41 1.379 . S
C40 C45 1.392 . S
C41 C40 1.379 . S
C41 C42 1.404 . S
C41 H55 0.929 . S
C42 C41 1.404 . S
C42 C43 1.389 . S
C43 C42 1.389 . S
C43 C44 1.399 . S
C43 H56 0.931 . S
C44 C43 1.399 . S
C44 C45 1.390 . S
C45 C40 1.392 . S
C45 C44 1.390 . S
C45 H57 0.929 . S
O46 Tb30 2.326 . S
O46 C34 1.242 . S
O47 Eu31 2.324 . S
O47 C34 1.258 . S
O48 Tb30 2.500 . S
O48 C50 1.273 . S
O49 Tb30 2.473 . S
O49 C50 1.257 . S
C50 O48 1.273 . S
C50 O49 1.257 . S
O51 Eu31 2.326 . S
O51 C39 1.242 . S
O52 Tb30 2.324 . S
O52 C39 1.258 . S
O53 Eu31 2.500 . S
O53 C36 1.273 . S
O54 Eu31 2.473 . S
O54 C36 1.257 . S
H55 C41 0.929 . S
H56 C43 0.931 . S
H57 C45 0.929 . S
O58 Tb59 2.292 . S
O58 C61 1.255 . S
Tb59 O58 2.292 . S
Tb59 O75 2.326 . S
Tb59 O77 2.500 . S
Tb59 O78 2.473 . S
Tb59 O81 2.324 . S
Eu60 O64 2.292 . S
Eu60 C65 2.852 . S
Eu60 O76 2.324 . S
Eu60 O80 2.326 . S
Eu60 O82 2.500 . S
Eu60 O83 2.473 . S
C61 O58 1.255 . S
C61 O62 1.247 . S
O62 C61 1.247 . S
C63 O75 1.242 . S
C63 O76 1.258 . S
O64 Eu60 2.292 . S
O64 C66 1.255 . S
C65 Eu60 2.852 . S
C65 C69 1.503 . S
C65 O82 1.273 . S
C65 O83 1.257 . S
C66 O64 1.255 . S
C66 O67 1.247 . S
O67 C66 1.247 . S
C68 O80 1.242 . S
C68 O81 1.258 . S
C69 C65 1.503 . S
C69 C70 1.379 . S
C69 C74 1.392 . S
C70 C69 1.379 . S
C70 C71 1.404 . S
C70 H84 0.929 . S
C71 C70 1.404 . S
C71 C72 1.389 . S
C72 C71 1.389 . S
C72 C73 1.399 . S
C72 H85 0.931 . S
C73 C72 1.399 . S
C73 C74 1.390 . S
C74 C69 1.392 . S
C74 C73 1.390 . S
C74 H86 0.929 . S
O75 Tb59 2.326 . S
O75 C63 1.242 . S
O76 Eu60 2.324 . S
O76 C63 1.258 . S
O77 Tb59 2.500 . S
O77 C79 1.273 . S
O78 Tb59 2.473 . S
O78 C79 1.257 . S
C79 O77 1.273 . S
C79 O78 1.257 . S
O80 Eu60 2.326 . S
O80 C68 1.242 . S
O81 Tb59 2.324 . S
O81 C68 1.258 . S
O82 Eu60 2.500 . S
O82 C65 1.273 . S
O83 Eu60 2.473 . S
O83 C65 1.257 . S
H84 C70 0.929 . S
H85 C72 0.931 . S
H86 C74 0.929 . S
O87 Tb88 2.292 . S
O87 C90 1.255 . S
Tb88 O87 2.292 . S
Tb88 O104 2.326 . S
Tb88 O106 2.500 . S
Tb88 O107 2.473 . S
Tb88 O110 2.324 . S
Eu89 O93 2.292 . S
Eu89 C94 2.852 . S
Eu89 O105 2.324 . S
Eu89 O109 2.326 . S
Eu89 O111 2.500 . S
Eu89 O112 2.473 . S
C90 O87 1.255 . S
C90 O91 1.247 . S
O91 C90 1.247 . S
C92 O104 1.242 . S
C92 O105 1.258 . S
O93 Eu89 2.292 . S
O93 C95 1.255 . S
C94 Eu89 2.852 . S
C94 C98 1.503 . S
C94 O111 1.273 . S
C94 O112 1.257 . S
C95 O93 1.255 . S
C95 O96 1.247 . S
O96 C95 1.247 . S
C97 O109 1.242 . S
C97 O110 1.258 . S
C98 C94 1.503 . S
C98 C99 1.379 . S
C98 C103 1.392 . S
C99 C98 1.379 . S
C99 C100 1.404 . S
C99 H113 0.929 . S
C100 C99 1.404 . S
C100 C101 1.389 . S
C101 C100 1.389 . S
C101 C102 1.399 . S
C101 H114 0.931 . S
C102 C101 1.399 . S
C102 C103 1.390 . S
C103 C98 1.392 . S
C103 C102 1.390 . S
C103 H115 0.929 . S
O104 Tb88 2.326 . S
O104 C92 1.242 . S
O105 Eu89 2.324 . S
O105 C92 1.258 . S
O106 Tb88 2.500 . S
O106 C108 1.273 . S
O107 Tb88 2.473 . S
O107 C108 1.257 . S
C108 O106 1.273 . S
C108 O107 1.257 . S
O109 Eu89 2.326 . S
O109 C97 1.242 . S
O110 Tb88 2.324 . S
O110 C97 1.258 . S
O111 Eu89 2.500 . S
O111 C94 1.273 . S
O112 Eu89 2.473 . S
O112 C94 1.257 . S
H113 C99 0.929 . S
H114 C101 0.931 . S
H115 C103 0.929 . S
O116 Tb117 2.292 . S
O116 C119 1.255 . S
Tb117 O116 2.292 . S
Tb117 O133 2.326 . S
Tb117 O135 2.500 . S
Tb117 O136 2.473 . S
Tb117 O139 2.324 . S
Eu118 O122 2.292 . S
Eu118 C123 2.852 . S
Eu118 O134 2.324 . S
Eu118 O138 2.326 . S
Eu118 O140 2.500 . S
Eu118 O141 2.473 . S
C119 O116 1.255 . S
C119 O120 1.247 . S
O120 C119 1.247 . S
C121 O133 1.242 . S
C121 O134 1.258 . S
O122 Eu118 2.292 . S
O122 C124 1.255 . S
C123 Eu118 2.852 . S
C123 C127 1.503 . S
C123 O140 1.273 . S
C123 O141 1.257 . S
C124 O122 1.255 . S
C124 O125 1.247 . S
O125 C124 1.247 . S
C126 O138 1.242 . S
C126 O139 1.258 . S
C127 C123 1.503 . S
C127 C128 1.379 . S
C127 C132 1.392 . S
C128 C127 1.379 . S
C128 C129 1.404 . S
C128 H142 0.929 . S
C129 C128 1.404 . S
C129 C130 1.389 . S
C130 C129 1.389 . S
C130 C131 1.399 . S
C130 H143 0.931 . S
C131 C130 1.399 . S
C131 C132 1.390 . S
C132 C127 1.392 . S
C132 C131 1.390 . S
C132 H144 0.929 . S
O133 Tb117 2.326 . S
O133 C121 1.242 . S
O134 Eu118 2.324 . S
O134 C121 1.258 . S
O135 Tb117 2.500 . S
O135 C137 1.273 . S
O136 Tb117 2.473 . S
O136 C137 1.257 . S
C137 O135 1.273 . S
C137 O136 1.257 . S
O138 Eu118 2.326 . S
O138 C126 1.242 . S
O139 Tb117 2.324 . S
O139 C126 1.258 . S
O140 Eu118 2.500 . S
O140 C123 1.273 . S
O141 Eu118 2.473 . S
O141 C123 1.257 . S
H142 C128 0.929 . S
H143 C130 0.931 . S
H144 C132 0.929 . S
O145 Tb146 2.292 . S
O145 C148 1.255 . S
Tb146 O145 2.292 . S
Tb146 O162 2.326 . S
Tb146 O164 2.500 . S
Tb146 O165 2.473 . S
Tb146 O168 2.324 . S
Eu147 O151 2.292 . S
Eu147 C152 2.852 . S
Eu147 O163 2.324 . S
Eu147 O167 2.326 . S
Eu147 O169 2.500 . S
Eu147 O170 2.473 . S
C148 O145 1.255 . S
C148 O149 1.247 . S
O149 C148 1.247 . S
C150 O162 1.242 . S
C150 O163 1.258 . S
O151 Eu147 2.292 . S
O151 C153 1.255 . S
C152 Eu147 2.852 . S
C152 C156 1.503 . S
C152 O169 1.273 . S
C152 O170 1.257 . S
C153 O151 1.255 . S
C153 O154 1.247 . S
O154 C153 1.247 . S
C155 O167 1.242 . S
C155 O168 1.258 . S
C156 C152 1.503 . S
C156 C157 1.379 . S
C156 C161 1.392 . S
C157 C156 1.379 . S
C157 C158 1.404 . S
C157 H171 0.929 . S
C158 C157 1.404 . S
C158 C159 1.389 . S
C159 C158 1.389 . S
C159 C160 1.399 . S
C159 H172 0.931 . S
C160 C159 1.399 . S
C160 C161 1.390 . S
C161 C156 1.392 . S
C161 C160 1.390 . S
C161 H173 0.929 . S
O162 Tb146 2.326 . S
O162 C150 1.242 . S
O163 Eu147 2.324 . S
O163 C150 1.258 . S
O164 Tb146 2.500 . S
O164 C166 1.273 . S
O165 Tb146 2.473 . S
O165 C166 1.257 . S
C166 O164 1.273 . S
C166 O165 1.257 . S
O167 Eu147 2.326 . S
O167 C155 1.242 . S
O168 Tb146 2.324 . S
O168 C155 1.258 . S
O169 Eu147 2.500 . S
O169 C152 1.273 . S
O170 Eu147 2.473 . S
O170 C152 1.257 . S
H171 C157 0.929 . S
H172 C159 0.931 . S
H173 C161 0.929 . S
O174 Tb175 2.292 . S
O174 C177 1.255 . S
Tb175 O174 2.292 . S
Tb175 O191 2.326 . S
Tb175 O193 2.500 . S
Tb175 O194 2.473 . S
Tb175 O197 2.324 . S
Eu176 O180 2.292 . S
Eu176 C181 2.852 . S
Eu176 O192 2.324 . S
Eu176 O196 2.326 . S
Eu176 O198 2.500 . S
Eu176 O199 2.473 . S
C177 O174 1.255 . S
C177 O178 1.247 . S
O178 C177 1.247 . S
C179 O191 1.242 . S
C179 O192 1.258 . S
O180 Eu176 2.292 . S
O180 C182 1.255 . S
C181 Eu176 2.852 . S
C181 C185 1.503 . S
C181 O198 1.273 . S
C181 O199 1.257 . S
C182 O180 1.255 . S
C182 O183 1.247 . S
O183 C182 1.247 . S
C184 O196 1.242 . S
C184 O197 1.258 . S
C185 C181 1.503 . S
C185 C186 1.379 . S
C185 C190 1.392 . S
C186 C185 1.379 . S
C186 C187 1.404 . S
C186 H200 0.929 . S
C187 C186 1.404 . S
C187 C188 1.389 . S
C188 C187 1.389 . S
C188 C189 1.399 . S
C188 H201 0.931 . S
C189 C188 1.399 . S
C189 C190 1.390 . S
C190 C185 1.392 . S
C190 C189 1.390 . S
C190 H202 0.929 . S
O191 Tb175 2.326 . S
O191 C179 1.242 . S
O192 Eu176 2.324 . S
O192 C179 1.258 . S
O193 Tb175 2.500 . S
O193 C195 1.273 . S
O194 Tb175 2.473 . S
O194 C195 1.257 . S
C195 O193 1.273 . S
C195 O194 1.257 . S
O196 Eu176 2.326 . S
O196 C184 1.242 . S
O197 Tb175 2.324 . S
O197 C184 1.258 . S
O198 Eu176 2.500 . S
O198 C181 1.273 . S
O199 Eu176 2.473 . S
O199 C181 1.257 . S
H200 C186 0.929 . S
H201 C188 0.931 . S
H202 C190 0.929 . S
O203 Tb204 2.292 . S
O203 C206 1.255 . S
Tb204 O203 2.292 . S
Tb204 O220 2.326 . S
Tb204 O222 2.500 . S
Tb204 O223 2.473 . S
Tb204 O226 2.324 . S
Eu205 O209 2.292 . S
Eu205 C210 2.852 . S
Eu205 O221 2.324 . S
Eu205 O225 2.326 . S
Eu205 O227 2.500 . S
Eu205 O228 2.473 . S
C206 O203 1.255 . S
C206 O207 1.247 . S
O207 C206 1.247 . S
C208 O220 1.242 . S
C208 O221 1.258 . S
O209 Eu205 2.292 . S
O209 C211 1.255 . S
C210 Eu205 2.852 . S
C210 C214 1.503 . S
C210 O227 1.273 . S
C210 O228 1.257 . S
C211 O209 1.255 . S
C211 O212 1.247 . S
O212 C211 1.247 . S
C213 O225 1.242 . S
C213 O226 1.258 . S
C214 C210 1.503 . S
C214 C215 1.379 . S
C214 C219 1.392 . S
C215 C214 1.379 . S
C215 C216 1.404 . S
C215 H229 0.929 . S
C216 C215 1.404 . S
C216 C217 1.389 . S
C217 C216 1.389 . S
C217 C218 1.399 . S
C217 H230 0.931 . S
C218 C217 1.399 . S
C218 C219 1.390 . S
C219 C214 1.392 . S
C219 C218 1.390 . S
C219 H231 0.929 . S
O220 Tb204 2.326 . S
O220 C208 1.242 . S
O221 Eu205 2.324 . S
O221 C208 1.258 . S
O222 Tb204 2.500 . S
O222 C224 1.273 . S
O223 Tb204 2.473 . S
O223 C224 1.257 . S
C224 O222 1.273 . S
C224 O223 1.257 . S
O225 Eu205 2.326 . S
O225 C213 1.242 . S
O226 Tb204 2.324 . S
O226 C213 1.258 . S
O227 Eu205 2.500 . S
O227 C210 1.273 . S
O228 Eu205 2.473 . S
O228 C210 1.257 . S
H229 C215 0.929 . S
H230 C217 0.931 . S
H231 C219 0.929 . S
O232 Tb233 2.292 . S
O232 C235 1.255 . S
Tb233 O232 2.292 . S
Tb233 O249 2.326 . S
Tb233 O251 2.500 . S
Tb233 O252 2.473 . S
Tb233 O255 2.324 . S
Eu234 O238 2.292 . S
Eu234 C239 2.852 . S
Eu234 O250 2.324 . S
Eu234 O254 2.326 . S
Eu234 O256 2.500 . S
Eu234 O257 2.473 . S
C235 O232 1.255 . S
C235 O236 1.247 . S
O236 C235 1.247 . S
C237 O249 1.242 . S
C237 O250 1.258 . S
O238 Eu234 2.292 . S
O238 C240 1.255 . S
C239 Eu234 2.852 . S
C239 C243 1.503 . S
C239 O256 1.273 . S
C239 O257 1.257 . S
C240 O238 1.255 . S
C240 O241 1.247 . S
O241 C240 1.247 . S
C242 O254 1.242 . S
C242 O255 1.258 . S
C243 C239 1.503 . S
C243 C244 1.379 . S
C243 C248 1.392 . S
C244 C243 1.379 . S
C244 C245 1.404 . S
C244 H258 0.929 . S
C245 C244 1.404 . S
C245 C246 1.389 . S
C246 C245 1.389 . S
C246 C247 1.399 . S
C246 H259 0.931 . S
C247 C246 1.399 . S
C247 C248 1.390 . S
C248 C243 1.392 . S
C248 C247 1.390 . S
C248 H260 0.929 . S
O249 Tb233 2.326 . S
O249 C237 1.242 . S
O250 Eu234 2.324 . S
O250 C237 1.258 . S
O251 Tb233 2.500 . S
O251 C253 1.273 . S
O252 Tb233 2.473 . S
O252 C253 1.257 . S
C253 O251 1.273 . S
C253 O252 1.257 . S
O254 Eu234 2.326 . S
O254 C242 1.242 . S
O255 Tb233 2.324 . S
O255 C242 1.258 . S
O256 Eu234 2.500 . S
O256 C239 1.273 . S
O257 Eu234 2.473 . S
O257 C239 1.257 . S
H258 C244 0.929 . S
H259 C246 0.931 . S
H260 C248 0.929 . S
O261 Tb262 2.292 . S
O261 C264 1.255 . S
Tb262 O261 2.292 . S
Tb262 O278 2.326 . S
Tb262 O280 2.500 . S
Tb262 O281 2.473 . S
Tb262 O284 2.324 . S
Eu263 O267 2.292 . S
Eu263 C268 2.852 . S
Eu263 O279 2.324 . S
Eu263 O283 2.326 . S
Eu263 O285 2.500 . S
Eu263 O286 2.473 . S
C264 O261 1.255 . S
C264 O265 1.247 . S
O265 C264 1.247 . S
C266 O278 1.242 . S
C266 O279 1.258 . S
O267 Eu263 2.292 . S
O267 C269 1.255 . S
C268 Eu263 2.852 . S
C268 C272 1.503 . S
C268 O285 1.273 . S
C268 O286 1.257 . S
C269 O267 1.255 . S
C269 O270 1.247 . S
O270 C269 1.247 . S
C271 O283 1.242 . S
C271 O284 1.258 . S
C272 C268 1.503 . S
C272 C273 1.379 . S
C272 C277 1.392 . S
C273 C272 1.379 . S
C273 C274 1.404 . S
C273 H287 0.929 . S
C274 C273 1.404 . S
C274 C275 1.389 . S
C275 C274 1.389 . S
C275 C276 1.399 . S
C275 H288 0.931 . S
C276 C275 1.399 . S
C276 C277 1.390 . S
C277 C272 1.392 . S
C277 C276 1.390 . S
C277 H289 0.929 . S
O278 Tb262 2.326 . S
O278 C266 1.242 . S
O279 Eu263 2.324 . S
O279 C266 1.258 . S
O280 Tb262 2.500 . S
O280 C282 1.273 . S
O281 Tb262 2.473 . S
O281 C282 1.257 . S
C282 O280 1.273 . S
C282 O281 1.257 . S
O283 Eu263 2.326 . S
O283 C271 1.242 . S
O284 Tb262 2.324 . S
O284 C271 1.258 . S
O285 Eu263 2.500 . S
O285 C268 1.273 . S
O286 Eu263 2.473 . S
O286 C268 1.257 . S
H287 C273 0.929 . S
H288 C275 0.931 . S
H289 C277 0.929 . S
O290 Tb291 2.292 . S
O290 C293 1.255 . S
Tb291 O290 2.292 . S
Tb291 O307 2.326 . S
Tb291 O309 2.500 . S
Tb291 O310 2.473 . S
Tb291 O313 2.324 . S
Eu292 O296 2.292 . S
Eu292 C297 2.852 . S
Eu292 O308 2.324 . S
Eu292 O312 2.326 . S
Eu292 O314 2.500 . S
Eu292 O315 2.473 . S
C293 O290 1.255 . S
C293 O294 1.247 . S
O294 C293 1.247 . S
C295 O307 1.242 . S
C295 O308 1.258 . S
O296 Eu292 2.292 . S
O296 C298 1.255 . S
C297 Eu292 2.852 . S
C297 C301 1.503 . S
C297 O314 1.273 . S
C297 O315 1.257 . S
C298 O296 1.255 . S
C298 O299 1.247 . S
O299 C298 1.247 . S
C300 O312 1.242 . S
C300 O313 1.258 . S
C301 C297 1.503 . S
C301 C302 1.379 . S
C301 C306 1.392 . S
C302 C301 1.379 . S
C302 C303 1.404 . S
C302 H316 0.929 . S
C303 C302 1.404 . S
C303 C304 1.389 . S
C304 C303 1.389 . S
C304 C305 1.399 . S
C304 H317 0.931 . S
C305 C304 1.399 . S
C305 C306 1.390 . S
C306 C301 1.392 . S
C306 C305 1.390 . S
C306 H318 0.929 . S
O307 Tb291 2.326 . S
O307 C295 1.242 . S
O308 Eu292 2.324 . S
O308 C295 1.258 . S
O309 Tb291 2.500 . S
O309 C311 1.273 . S
O310 Tb291 2.473 . S
O310 C311 1.257 . S
C311 O309 1.273 . S
C311 O310 1.257 . S
O312 Eu292 2.326 . S
O312 C300 1.242 . S
O313 Tb291 2.324 . S
O313 C300 1.258 . S
O314 Eu292 2.500 . S
O314 C297 1.273 . S
O315 Eu292 2.473 . S
O315 C297 1.257 . S
H316 C302 0.929 . S
H317 C304 0.931 . S
H318 C306 0.929 . S
O319 Tb320 2.292 . S
O319 C322 1.255 . S
Tb320 O319 2.292 . S
Tb320 O336 2.326 . S
Tb320 O338 2.500 . S
Tb320 O339 2.473 . S
Tb320 O342 2.324 . S
Eu321 O325 2.292 . S
Eu321 C326 2.852 . S
Eu321 O337 2.324 . S
Eu321 O341 2.326 . S
Eu321 O343 2.500 . S
Eu321 O344 2.473 . S
C322 O319 1.255 . S
C322 O323 1.247 . S
O323 C322 1.247 . S
C324 O336 1.242 . S
C324 O337 1.258 . S
O325 Eu321 2.292 . S
O325 C327 1.255 . S
C326 Eu321 2.852 . S
C326 C330 1.503 . S
C326 O343 1.273 . S
C326 O344 1.257 . S
C327 O325 1.255 . S
C327 O328 1.247 . S
O328 C327 1.247 . S
C329 O341 1.242 . S
C329 O342 1.258 . S
C330 C326 1.503 . S
C330 C331 1.379 . S
C330 C335 1.392 . S
C331 C330 1.379 . S
C331 C332 1.404 . S
C331 H345 0.929 . S
C332 C331 1.404 . S
C332 C333 1.389 . S
C333 C332 1.389 . S
C333 C334 1.399 . S
C333 H346 0.931 . S
C334 C333 1.399 . S
C334 C335 1.390 . S
C335 C330 1.392 . S
C335 C334 1.390 . S
C335 H347 0.929 . S
O336 Tb320 2.326 . S
O336 C324 1.242 . S
O337 Eu321 2.324 . S
O337 C324 1.258 . S
O338 Tb320 2.500 . S
O338 C340 1.273 . S
O339 Tb320 2.473 . S
O339 C340 1.257 . S
C340 O338 1.273 . S
C340 O339 1.257 . S
O341 Eu321 2.326 . S
O341 C329 1.242 . S
O342 Tb320 2.324 . S
O342 C329 1.258 . S
O343 Eu321 2.500 . S
O343 C326 1.273 . S
O344 Eu321 2.473 . S
O344 C326 1.257 . S
H345 C331 0.929 . S
H346 C333 0.931 . S
H347 C335 0.929 . S
O348 Tb349 2.292 . S
O348 C351 1.255 . S
Tb349 O348 2.292 . S
Tb349 O365 2.326 . S
Tb349 O367 2.500 . S
Tb349 O368 2.473 . S
Tb349 O371 2.324 . S
Eu350 O354 2.292 . S
Eu350 C355 2.852 . S
Eu350 O366 2.324 . S
Eu350 O370 2.326 . S
Eu350 O372 2.500 . S
Eu350 O373 2.473 . S
C351 O348 1.255 . S
C351 O352 1.247 . S
O352 C351 1.247 . S
C353 O365 1.242 . S
C353 O366 1.258 . S
O354 Eu350 2.292 . S
O354 C356 1.255 . S
C355 Eu350 2.852 . S
C355 C359 1.503 . S
C355 O372 1.273 . S
C355 O373 1.257 . S
C356 O354 1.255 . S
C356 O357 1.247 . S
O357 C356 1.247 . S
C358 O370 1.242 . S
C358 O371 1.258 . S
C359 C355 1.503 . S
C359 C360 1.379 . S
C359 C364 1.392 . S
C360 C359 1.379 . S
C360 C361 1.404 . S
C360 H374 0.929 . S
C361 C360 1.404 . S
C361 C362 1.389 . S
C362 C361 1.389 . S
C362 C363 1.399 . S
C362 H375 0.931 . S
C363 C362 1.399 . S
C363 C364 1.390 . S
C364 C359 1.392 . S
C364 C363 1.390 . S
C364 H376 0.929 . S
O365 Tb349 2.326 . S
O365 C353 1.242 . S
O366 Eu350 2.324 . S
O366 C353 1.258 . S
O367 Tb349 2.500 . S
O367 C369 1.273 . S
O368 Tb349 2.473 . S
O368 C369 1.257 . S
C369 O367 1.273 . S
C369 O368 1.257 . S
O370 Eu350 2.326 . S
O370 C358 1.242 . S
O371 Tb349 2.324 . S
O371 C358 1.258 . S
O372 Eu350 2.500 . S
O372 C355 1.273 . S
O373 Eu350 2.473 . S
O373 C355 1.257 . S
H374 C360 0.929 . S
H375 C362 0.931 . S
H376 C364 0.929 . S
O377 Tb378 2.292 . S
O377 C380 1.255 . S
Tb378 O377 2.292 . S
Tb378 O394 2.326 . S
Tb378 O396 2.500 . S
Tb378 O397 2.473 . S
Tb378 O400 2.324 . S
Eu379 O383 2.292 . S
Eu379 C384 2.852 . S
Eu379 O395 2.324 . S
Eu379 O399 2.326 . S
Eu379 O401 2.500 . S
Eu379 O402 2.473 . S
C380 O377 1.255 . S
C380 O381 1.247 . S
O381 C380 1.247 . S
C382 O394 1.242 . S
C382 O395 1.258 . S
O383 Eu379 2.292 . S
O383 C385 1.255 . S
C384 Eu379 2.852 . S
C384 C388 1.503 . S
C384 O401 1.273 . S
C384 O402 1.257 . S
C385 O383 1.255 . S
C385 O386 1.247 . S
O386 C385 1.247 . S
C387 O399 1.242 . S
C387 O400 1.258 . S
C388 C384 1.503 . S
C388 C389 1.379 . S
C388 C393 1.392 . S
C389 C388 1.379 . S
C389 C390 1.404 . S
C389 H403 0.929 . S
C390 C389 1.404 . S
C390 C391 1.389 . S
C391 C390 1.389 . S
C391 C392 1.399 . S
C391 H404 0.931 . S
C392 C391 1.399 . S
C392 C393 1.390 . S
C393 C388 1.392 . S
C393 C392 1.390 . S
C393 H405 0.929 . S
O394 Tb378 2.326 . S
O394 C382 1.242 . S
O395 Eu379 2.324 . S
O395 C382 1.258 . S
O396 Tb378 2.500 . S
O396 C398 1.273 . S
O397 Tb378 2.473 . S
O397 C398 1.257 . S
C398 O396 1.273 . S
C398 O397 1.257 . S
O399 Eu379 2.326 . S
O399 C387 1.242 . S
O400 Tb378 2.324 . S
O400 C387 1.258 . S
O401 Eu379 2.500 . S
O401 C384 1.273 . S
O402 Eu379 2.473 . S
O402 C384 1.257 . S
H403 C389 0.929 . S
H404 C391 0.931 . S
H405 C393 0.929 . S
O406 Tb407 2.292 . S
O406 C409 1.255 . S
Tb407 O406 2.292 . S
Tb407 O423 2.326 . S
Tb407 O425 2.500 . S
Tb407 O426 2.473 . S
Tb407 O429 2.324 . S
Eu408 O412 2.292 . S
Eu408 C413 2.852 . S
Eu408 O424 2.324 . S
Eu408 O428 2.326 . S
Eu408 O430 2.500 . S
Eu408 O431 2.473 . S
C409 O406 1.255 . S
C409 O410 1.247 . S
O410 C409 1.247 . S
C411 O423 1.242 . S
C411 O424 1.258 . S
O412 Eu408 2.292 . S
O412 C414 1.255 . S
C413 Eu408 2.852 . S
C413 C417 1.503 . S
C413 O430 1.273 . S
C413 O431 1.257 . S
C414 O412 1.255 . S
C414 O415 1.247 . S
O415 C414 1.247 . S
C416 O428 1.242 . S
C416 O429 1.258 . S
C417 C413 1.503 . S
C417 C418 1.379 . S
C417 C422 1.392 . S
C418 C417 1.379 . S
C418 C419 1.404 . S
C418 H432 0.929 . S
C419 C418 1.404 . S
C419 C420 1.389 . S
C420 C419 1.389 . S
C420 C421 1.399 . S
C420 H433 0.931 . S
C421 C420 1.399 . S
C421 C422 1.390 . S
C422 C417 1.392 . S
C422 C421 1.390 . S
C422 H434 0.929 . S
O423 Tb407 2.326 . S
O423 C411 1.242 . S
O424 Eu408 2.324 . S
O424 C411 1.258 . S
O425 Tb407 2.500 . S
O425 C427 1.273 . S
O426 Tb407 2.473 . S
O426 C427 1.257 . S
C427 O425 1.273 . S
C427 O426 1.257 . S
O428 Eu408 2.326 . S
O428 C416 1.242 . S
O429 Tb407 2.324 . S
O429 C416 1.258 . S
O430 Eu408 2.500 . S
O430 C413 1.273 . S
O431 Eu408 2.473 . S
O431 C413 1.257 . S
H432 C418 0.929 . S
H433 C420 0.931 . S
H434 C422 0.929 . S
O435 Tb436 2.292 . S
O435 C438 1.255 . S
Tb436 O435 2.292 . S
Tb436 O452 2.326 . S
Tb436 O454 2.500 . S
Tb436 O455 2.473 . S
Tb436 O458 2.324 . S
Eu437 O441 2.292 . S
Eu437 C442 2.852 . S
Eu437 O453 2.324 . S
Eu437 O457 2.326 . S
Eu437 O459 2.500 . S
Eu437 O460 2.473 . S
C438 O435 1.255 . S
C438 O439 1.247 . S
O439 C438 1.247 . S
C440 O452 1.242 . S
C440 O453 1.258 . S
O441 Eu437 2.292 . S
O441 C443 1.255 . S
C442 Eu437 2.852 . S
C442 C446 1.503 . S
C442 O459 1.273 . S
C442 O460 1.257 . S
C443 O441 1.255 . S
C443 O444 1.247 . S
O444 C443 1.247 . S
C445 O457 1.242 . S
C445 O458 1.258 . S
C446 C442 1.503 . S
C446 C447 1.379 . S
C446 C451 1.392 . S
C447 C446 1.379 . S
C447 C448 1.404 . S
C447 H461 0.929 . S
C448 C447 1.404 . S
C448 C449 1.389 . S
C449 C448 1.389 . S
C449 C450 1.399 . S
C449 H462 0.931 . S
C450 C449 1.399 . S
C450 C451 1.390 . S
C451 C446 1.392 . S
C451 C450 1.390 . S
C451 H463 0.929 . S
O452 Tb436 2.326 . S
O452 C440 1.242 . S
O453 Eu437 2.324 . S
O453 C440 1.258 . S
O454 Tb436 2.500 . S
O454 C456 1.273 . S
O455 Tb436 2.473 . S
O455 C456 1.257 . S
C456 O454 1.273 . S
C456 O455 1.257 . S
O457 Eu437 2.326 . S
O457 C445 1.242 . S
O458 Tb436 2.324 . S
O458 C445 1.258 . S
O459 Eu437 2.500 . S
O459 C442 1.273 . S
O460 Eu437 2.473 . S
O460 C442 1.257 . S
H461 C447 0.929 . S
H462 C449 0.931 . S
H463 C451 0.929 . S
O464 Tb465 2.292 . S
O464 C467 1.255 . S
Tb465 O464 2.292 . S
Tb465 O481 2.326 . S
Tb465 O483 2.500 . S
Tb465 O484 2.473 . S
Tb465 O487 2.324 . S
Eu466 O470 2.292 . S
Eu466 C471 2.852 . S
Eu466 O482 2.324 . S
Eu466 O486 2.326 . S
Eu466 O488 2.500 . S
Eu466 O489 2.473 . S
C467 O464 1.255 . S
C467 O468 1.247 . S
O468 C467 1.247 . S
C469 O481 1.242 . S
C469 O482 1.258 . S
O470 Eu466 2.292 . S
O470 C472 1.255 . S
C471 Eu466 2.852 . S
C471 C475 1.503 . S
C471 O488 1.273 . S
C471 O489 1.257 . S
C472 O470 1.255 . S
C472 O473 1.247 . S
O473 C472 1.247 . S
C474 O486 1.242 . S
C474 O487 1.258 . S
C475 C471 1.503 . S
C475 C476 1.379 . S
C475 C480 1.392 . S
C476 C475 1.379 . S
C476 C477 1.404 . S
C476 H490 0.929 . S
C477 C476 1.404 . S
C477 C478 1.389 . S
C478 C477 1.389 . S
C478 C479 1.399 . S
C478 H491 0.931 . S
C479 C478 1.399 . S
C479 C480 1.390 . S
C480 C475 1.392 . S
C480 C479 1.390 . S
C480 H492 0.929 . S
O481 Tb465 2.326 . S
O481 C469 1.242 . S
O482 Eu466 2.324 . S
O482 C469 1.258 . S
O483 Tb465 2.500 . S
O483 C485 1.273 . S
O484 Tb465 2.473 . S
O484 C485 1.257 . S
C485 O483 1.273 . S
C485 O484 1.257 . S
O486 Eu466 2.326 . S
O486 C474 1.242 . S
O487 Tb465 2.324 . S
O487 C474 1.258 . S
O488 Eu466 2.500 . S
O488 C471 1.273 . S
O489 Eu466 2.473 . S
O489 C471 1.257 . S
H490 C476 0.929 . S
H491 C478 0.931 . S
H492 C480 0.929 . S
O493 Tb494 2.292 . S
O493 C496 1.255 . S
Tb494 O493 2.292 . S
Tb494 O510 2.326 . S
Tb494 O512 2.500 . S
Tb494 O513 2.473 . S
Tb494 O516 2.324 . S
Eu495 O499 2.292 . S
Eu495 C500 2.852 . S
Eu495 O511 2.324 . S
Eu495 O515 2.326 . S
Eu495 O517 2.500 . S
Eu495 O518 2.473 . S
C496 O493 1.255 . S
C496 O497 1.247 . S
O497 C496 1.247 . S
C498 O510 1.242 . S
C498 O511 1.258 . S
O499 Eu495 2.292 . S
O499 C501 1.255 . S
C500 Eu495 2.852 . S
C500 C504 1.503 . S
C500 O517 1.273 . S
C500 O518 1.257 . S
C501 O499 1.255 . S
C501 O502 1.247 . S
O502 C501 1.247 . S
C503 O515 1.242 . S
C503 O516 1.258 . S
C504 C500 1.503 . S
C504 C505 1.379 . S
C504 C509 1.392 . S
C505 C504 1.379 . S
C505 C506 1.404 . S
C505 H519 0.929 . S
C506 C505 1.404 . S
C506 C507 1.389 . S
C507 C506 1.389 . S
C507 C508 1.399 . S
C507 H520 0.931 . S
C508 C507 1.399 . S
C508 C509 1.390 . S
C509 C504 1.392 . S
C509 C508 1.390 . S
C509 H521 0.929 . S
O510 Tb494 2.326 . S
O510 C498 1.242 . S
O511 Eu495 2.324 . S
O511 C498 1.258 . S
O512 Tb494 2.500 . S
O512 C514 1.273 . S
O513 Tb494 2.473 . S
O513 C514 1.257 . S
C514 O512 1.273 . S
C514 O513 1.257 . S
O515 Eu495 2.326 . S
O515 C503 1.242 . S
O516 Tb494 2.324 . S
O516 C503 1.258 . S
O517 Eu495 2.500 . S
O517 C500 1.273 . S
O518 Eu495 2.473 . S
O518 C500 1.257 . S
H519 C505 0.929 . S
H520 C507 0.931 . S
H521 C509 0.929 . S
O522 Tb523 2.292 . S
O522 C525 1.255 . S
Tb523 O522 2.292 . S
Tb523 O539 2.326 . S
Tb523 O541 2.500 . S
Tb523 O542 2.473 . S
Tb523 O545 2.324 . S
Eu524 O528 2.292 . S
Eu524 C529 2.852 . S
Eu524 O540 2.324 . S
Eu524 O544 2.326 . S
Eu524 O546 2.500 . S
Eu524 O547 2.473 . S
C525 O522 1.255 . S
C525 O526 1.247 . S
O526 C525 1.247 . S
C527 O539 1.242 . S
C527 O540 1.258 . S
O528 Eu524 2.292 . S
O528 C530 1.255 . S
C529 Eu524 2.852 . S
C529 C533 1.503 . S
C529 O546 1.273 . S
C529 O547 1.257 . S
C530 O528 1.255 . S
C530 O531 1.247 . S
O531 C530 1.247 . S
C532 O544 1.242 . S
C532 O545 1.258 . S
C533 C529 1.503 . S
C533 C534 1.379 . S
C533 C538 1.392 . S
C534 C533 1.379 . S
C534 C535 1.404 . S
C534 H548 0.929 . S
C535 C534 1.404 . S
C535 C536 1.389 . S
C536 C535 1.389 . S
C536 C537 1.399 . S
C536 H549 0.931 . S
C537 C536 1.399 . S
C537 C538 1.390 . S
C538 C533 1.392 . S
C538 C537 1.390 . S
C538 H550 0.929 . S
O539 Tb523 2.326 . S
O539 C527 1.242 . S
O540 Eu524 2.324 . S
O540 C527 1.258 . S
O541 Tb523 2.500 . S
O541 C543 1.273 . S
O542 Tb523 2.473 . S
O542 C543 1.257 . S
C543 O541 1.273 . S
C543 O542 1.257 . S
O544 Eu524 2.326 . S
O544 C532 1.242 . S
O545 Tb523 2.324 . S
O545 C532 1.258 . S
O546 Eu524 2.500 . S
O546 C529 1.273 . S
O547 Eu524 2.473 . S
O547 C529 1.257 . S
H548 C534 0.929 . S
H549 C536 0.931 . S
H550 C538 0.929 . S
O551 Tb552 2.292 . S
O551 C554 1.255 . S
Tb552 O551 2.292 . S
Tb552 O568 2.326 . S
Tb552 O570 2.500 . S
Tb552 O571 2.473 . S
Tb552 O574 2.324 . S
Eu553 O557 2.292 . S
Eu553 C558 2.852 . S
Eu553 O569 2.324 . S
Eu553 O573 2.326 . S
Eu553 O575 2.500 . S
Eu553 O576 2.473 . S
C554 O551 1.255 . S
C554 O555 1.247 . S
O555 C554 1.247 . S
C556 O568 1.242 . S
C556 O569 1.258 . S
O557 Eu553 2.292 . S
O557 C559 1.255 . S
C558 Eu553 2.852 . S
C558 C562 1.503 . S
C558 O575 1.273 . S
C558 O576 1.257 . S
C559 O557 1.255 . S
C559 O560 1.247 . S
O560 C559 1.247 . S
C561 O573 1.242 . S
C561 O574 1.258 . S
C562 C558 1.503 . S
C562 C563 1.379 . S
C562 C567 1.392 . S
C563 C562 1.379 . S
C563 C564 1.404 . S
C563 H577 0.929 . S
C564 C563 1.404 . S
C564 C565 1.389 . S
C565 C564 1.389 . S
C565 C566 1.399 . S
C565 H578 0.931 . S
C566 C565 1.399 . S
C566 C567 1.390 . S
C567 C562 1.392 . S
C567 C566 1.390 . S
C567 H579 0.929 . S
O568 Tb552 2.326 . S
O568 C556 1.242 . S
O569 Eu553 2.324 . S
O569 C556 1.258 . S
O570 Tb552 2.500 . S
O570 C572 1.273 . S
O571 Tb552 2.473 . S
O571 C572 1.257 . S
C572 O570 1.273 . S
C572 O571 1.257 . S
O573 Eu553 2.326 . S
O573 C561 1.242 . S
O574 Tb552 2.324 . S
O574 C561 1.258 . S
O575 Eu553 2.500 . S
O575 C558 1.273 . S
O576 Eu553 2.473 . S
O576 C558 1.257 . S
H577 C563 0.929 . S
H578 C565 0.931 . S
H579 C567 0.929 . S
O580 Tb581 2.292 . S
O580 C583 1.255 . S
Tb581 O580 2.292 . S
Tb581 O597 2.326 . S
Tb581 O599 2.500 . S
Tb581 O600 2.473 . S
Tb581 O603 2.324 . S
Eu582 O586 2.292 . S
Eu582 C587 2.852 . S
Eu582 O598 2.324 . S
Eu582 O602 2.326 . S
Eu582 O604 2.500 . S
Eu582 O605 2.473 . S
C583 O580 1.255 . S
C583 O584 1.247 . S
O584 C583 1.247 . S
C585 O597 1.242 . S
C585 O598 1.258 . S
O586 Eu582 2.292 . S
O586 C588 1.255 . S
C587 Eu582 2.852 . S
C587 C591 1.503 . S
C587 O604 1.273 . S
C587 O605 1.257 . S
C588 O586 1.255 . S
C588 O589 1.247 . S
O589 C588 1.247 . S
C590 O602 1.242 . S
C590 O603 1.258 . S
C591 C587 1.503 . S
C591 C592 1.379 . S
C591 C596 1.392 . S
C592 C591 1.379 . S
C592 C593 1.404 . S
C592 H606 0.929 . S
C593 C592 1.404 . S
C593 C594 1.389 . S
C594 C593 1.389 . S
C594 C595 1.399 . S
C594 H607 0.931 . S
C595 C594 1.399 . S
C595 C596 1.390 . S
C596 C591 1.392 . S
C596 C595 1.390 . S
C596 H608 0.929 . S
O597 Tb581 2.326 . S
O597 C585 1.242 . S
O598 Eu582 2.324 . S
O598 C585 1.258 . S
O599 Tb581 2.500 . S
O599 C601 1.273 . S
O600 Tb581 2.473 . S
O600 C601 1.257 . S
C601 O599 1.273 . S
C601 O600 1.257 . S
O602 Eu582 2.326 . S
O602 C590 1.242 . S
O603 Tb581 2.324 . S
O603 C590 1.258 . S
O604 Eu582 2.500 . S
O604 C587 1.273 . S
O605 Eu582 2.473 . S
O605 C587 1.257 . S
H606 C592 0.929 . S
H607 C594 0.931 . S
H608 C596 0.929 . S
O609 Tb610 2.292 . S
O609 C612 1.255 . S
Tb610 O609 2.292 . S
Tb610 O626 2.326 . S
Tb610 O628 2.500 . S
Tb610 O629 2.473 . S
Tb610 O632 2.324 . S
Eu611 O615 2.292 . S
Eu611 C616 2.852 . S
Eu611 O627 2.324 . S
Eu611 O631 2.326 . S
Eu611 O633 2.500 . S
Eu611 O634 2.473 . S
C612 O609 1.255 . S
C612 O613 1.247 . S
O613 C612 1.247 . S
C614 O626 1.242 . S
C614 O627 1.258 . S
O615 Eu611 2.292 . S
O615 C617 1.255 . S
C616 Eu611 2.852 . S
C616 C620 1.503 . S
C616 O633 1.273 . S
C616 O634 1.257 . S
C617 O615 1.255 . S
C617 O618 1.247 . S
O618 C617 1.247 . S
C619 O631 1.242 . S
C619 O632 1.258 . S
C620 C616 1.503 . S
C620 C621 1.379 . S
C620 C625 1.392 . S
C621 C620 1.379 . S
C621 C622 1.404 . S
C621 H635 0.929 . S
C622 C621 1.404 . S
C622 C623 1.389 . S
C623 C622 1.389 . S
C623 C624 1.399 . S
C623 H636 0.931 . S
C624 C623 1.399 . S
C624 C625 1.390 . S
C625 C620 1.392 . S
C625 C624 1.390 . S
C625 H637 0.929 . S
O626 Tb610 2.326 . S
O626 C614 1.242 . S
O627 Eu611 2.324 . S
O627 C614 1.258 . S
O628 Tb610 2.500 . S
O628 C630 1.273 . S
O629 Tb610 2.473 . S
O629 C630 1.257 . S
C630 O628 1.273 . S
C630 O629 1.257 . S
O631 Eu611 2.326 . S
O631 C619 1.242 . S
O632 Tb610 2.324 . S
O632 C619 1.258 . S
O633 Eu611 2.500 . S
O633 C616 1.273 . S
O634 Eu611 2.473 . S
O634 C616 1.257 . S
H635 C621 0.929 . S
H636 C623 0.931 . S
H637 C625 0.929 . S
O638 Tb639 2.292 . S
O638 C641 1.255 . S
Tb639 O638 2.292 . S
Tb639 O655 2.326 . S
Tb639 O657 2.500 . S
Tb639 O658 2.473 . S
Tb639 O661 2.324 . S
Eu640 O644 2.292 . S
Eu640 C645 2.852 . S
Eu640 O656 2.324 . S
Eu640 O660 2.326 . S
Eu640 O662 2.500 . S
Eu640 O663 2.473 . S
C641 O638 1.255 . S
C641 O642 1.247 . S
O642 C641 1.247 . S
C643 O655 1.242 . S
C643 O656 1.258 . S
O644 Eu640 2.292 . S
O644 C646 1.255 . S
C645 Eu640 2.852 . S
C645 C649 1.503 . S
C645 O662 1.273 . S
C645 O663 1.257 . S
C646 O644 1.255 . S
C646 O647 1.247 . S
O647 C646 1.247 . S
C648 O660 1.242 . S
C648 O661 1.258 . S
C649 C645 1.503 . S
C649 C650 1.379 . S
C649 C654 1.392 . S
C650 C649 1.379 . S
C650 C651 1.404 . S
C650 H664 0.929 . S
C651 C650 1.404 . S
C651 C652 1.389 . S
C652 C651 1.389 . S
C652 C653 1.399 . S
C652 H665 0.931 . S
C653 C652 1.399 . S
C653 C654 1.390 . S
C654 C649 1.392 . S
C654 C653 1.390 . S
C654 H666 0.929 . S
O655 Tb639 2.326 . S
O655 C643 1.242 . S
O656 Eu640 2.324 . S
O656 C643 1.258 . S
O657 Tb639 2.500 . S
O657 C659 1.273 . S
O658 Tb639 2.473 . S
O658 C659 1.257 . S
C659 O657 1.273 . S
C659 O658 1.257 . S
O660 Eu640 2.326 . S
O660 C648 1.242 . S
O661 Tb639 2.324 . S
O661 C648 1.258 . S
O662 Eu640 2.500 . S
O662 C645 1.273 . S
O663 Eu640 2.473 . S
O663 C645 1.257 . S
H664 C650 0.929 . S
H665 C652 0.931 . S
H666 C654 0.929 . S
O667 Tb668 2.292 . S
O667 C670 1.255 . S
Tb668 O667 2.292 . S
Tb668 O684 2.326 . S
Tb668 O686 2.500 . S
Tb668 O687 2.473 . S
Tb668 O690 2.324 . S
Eu669 O673 2.292 . S
Eu669 C674 2.852 . S
Eu669 O685 2.324 . S
Eu669 O689 2.326 . S
Eu669 O691 2.500 . S
Eu669 O692 2.473 . S
C670 O667 1.255 . S
C670 O671 1.247 . S
O671 C670 1.247 . S
C672 O684 1.242 . S
C672 O685 1.258 . S
O673 Eu669 2.292 . S
O673 C675 1.255 . S
C674 Eu669 2.852 . S
C674 C678 1.503 . S
C674 O691 1.273 . S
C674 O692 1.257 . S
C675 O673 1.255 . S
C675 O676 1.247 . S
O676 C675 1.247 . S
C677 O689 1.242 . S
C677 O690 1.258 . S
C678 C674 1.503 . S
C678 C679 1.379 . S
C678 C683 1.392 . S
C679 C678 1.379 . S
C679 C680 1.404 . S
C679 H693 0.929 . S
C680 C679 1.404 . S
C680 C681 1.389 . S
C681 C680 1.389 . S
C681 C682 1.399 . S
C681 H694 0.931 . S
C682 C681 1.399 . S
C682 C683 1.390 . S
C683 C678 1.392 . S
C683 C682 1.390 . S
C683 H695 0.929 . S
O684 Tb668 2.326 . S
O684 C672 1.242 . S
O685 Eu669 2.324 . S
O685 C672 1.258 . S
O686 Tb668 2.500 . S
O686 C688 1.273 . S
O687 Tb668 2.473 . S
O687 C688 1.257 . S
C688 O686 1.273 . S
C688 O687 1.257 . S
O689 Eu669 2.326 . S
O689 C677 1.242 . S
O690 Tb668 2.324 . S
O690 C677 1.258 . S
O691 Eu669 2.500 . S
O691 C674 1.273 . S
O692 Eu669 2.473 . S
O692 C674 1.257 . S
H693 C679 0.929 . S
H694 C681 0.931 . S
H695 C683 0.929 . S
H696 C704 0.950 . S
H697 C709 0.950 . S
H698 C706 0.950 . S
H699 C708 0.950 . S
H700 C710 0.950 . S
H701 C712 0.950 . S
H702 C714 0.950 . S
H703 C715 0.950 . S
C704 H696 0.950 . S
C704 C705 1.386 . S
C704 C706 1.391 . S
C705 C704 1.386 . S
C705 C709 1.393 . S
C706 H698 0.950 . S
C706 C704 1.391 . S
C706 C707 1.400 . S
C707 C706 1.400 . S
C707 C708 1.398 . S
C707 C713 1.491 . S
C708 H699 0.950 . S
C708 C707 1.398 . S
C708 C709 1.391 . S
C709 H697 0.950 . S
C709 C705 1.393 . S
C709 C708 1.391 . S
C710 H700 0.950 . S
C710 C711 1.386 . S
C710 C712 1.391 . S
C711 C710 1.386 . S
C711 C715 1.393 . S
C712 H701 0.950 . S
C712 C710 1.391 . S
C712 C713 1.400 . S
C713 C707 1.491 . S
C713 C712 1.400 . S
C713 C714 1.398 . S
C714 H702 0.950 . S
C714 C713 1.398 . S
C714 C715 1.391 . S
C715 H703 0.950 . S
C715 C711 1.393 . S
C715 C714 1.391 . S
H716 C724 0.950 . S
H717 C729 0.950 . S
H718 C726 0.950 . S
H719 C728 0.950 . S
H720 C730 0.950 . S
H721 C732 0.950 . S
H722 C734 0.950 . S
H723 C735 0.950 . S
C724 H716 0.950 . S
C724 C725 1.386 . S
C724 C726 1.391 . S
C725 C724 1.386 . S
C725 C729 1.393 . S
C726 H718 0.950 . S
C726 C724 1.391 . S
C726 C727 1.400 . S
C727 C726 1.400 . S
C727 C728 1.398 . S
C727 C733 1.491 . S
C728 H719 0.950 . S
C728 C727 1.398 . S
C728 C729 1.391 . S
C729 H717 0.950 . S
C729 C725 1.393 . S
C729 C728 1.391 . S
C730 H720 0.950 . S
C730 C731 1.386 . S
C730 C732 1.391 . S
C731 C730 1.386 . S
C731 C735 1.393 . S
C732 H721 0.950 . S
C732 C730 1.391 . S
C732 C733 1.400 . S
C733 C727 1.491 . S
C733 C732 1.400 . S
C733 C734 1.398 . S
C734 H722 0.950 . S
C734 C733 1.398 . S
C734 C735 1.391 . S
C735 H723 0.950 . S
C735 C731 1.393 . S
C735 C734 1.391 . S
H736 C744 0.950 . S
H737 C749 0.950 . S
H738 C746 0.950 . S
H739 C748 0.950 . S
H740 C750 0.950 . S
H741 C752 0.950 . S
H742 C754 0.950 . S
H743 C755 0.950 . S
C744 H736 0.950 . S
C744 C745 1.386 . S
C744 C746 1.391 . S
C745 C744 1.386 . S
C745 C749 1.393 . S
C746 H738 0.950 . S
C746 C744 1.391 . S
C746 C747 1.400 . S
C747 C746 1.400 . S
C747 C748 1.398 . S
C747 C753 1.491 . S
C748 H739 0.950 . S
C748 C747 1.398 . S
C748 C749 1.391 . S
C749 H737 0.950 . S
C749 C745 1.393 . S
C749 C748 1.391 . S
C750 H740 0.950 . S
C750 C751 1.386 . S
C750 C752 1.391 . S
C751 C750 1.386 . S
C751 C755 1.393 . S
C752 H741 0.950 . S
C752 C750 1.391 . S
C752 C753 1.400 . S
C753 C747 1.491 . S
C753 C752 1.400 . S
C753 C754 1.398 . S
C754 H742 0.950 . S
C754 C753 1.398 . S
C754 C755 1.391 . S
C755 H743 0.950 . S
C755 C751 1.393 . S
C755 C754 1.391 . S
H756 C764 0.950 . S
H757 C769 0.950 . S
H758 C766 0.950 . S
H759 C768 0.950 . S
H760 C770 0.950 . S
H761 C772 0.950 . S
H762 C774 0.950 . S
H763 C775 0.950 . S
C764 H756 0.950 . S
C764 C765 1.386 . S
C764 C766 1.391 . S
C765 C764 1.386 . S
C765 C769 1.393 . S
C766 H758 0.950 . S
C766 C764 1.391 . S
C766 C767 1.400 . S
C767 C766 1.400 . S
C767 C768 1.398 . S
C767 C773 1.491 . S
C768 H759 0.950 . S
C768 C767 1.398 . S
C768 C769 1.391 . S
C769 H757 0.950 . S
C769 C765 1.393 . S
C769 C768 1.391 . S
C770 H760 0.950 . S
C770 C771 1.386 . S
C770 C772 1.391 . S
C771 C770 1.386 . S
C771 C775 1.393 . S
C772 H761 0.950 . S
C772 C770 1.391 . S
C772 C773 1.400 . S
C773 C767 1.491 . S
C773 C772 1.400 . S
C773 C774 1.398 . S
C774 H762 0.950 . S
C774 C773 1.398 . S
C774 C775 1.391 . S
C775 H763 0.950 . S
C775 C771 1.393 . S
C775 C774 1.391 . S
H776 C784 0.950 . S
H777 C789 0.950 . S
H778 C786 0.950 . S
H779 C788 0.950 . S
H780 C790 0.950 . S
H781 C792 0.950 . S
H782 C794 0.950 . S
H783 C795 0.950 . S
C784 H776 0.950 . S
C784 C785 1.386 . S
C784 C786 1.391 . S
C785 C784 1.386 . S
C785 C789 1.393 . S
C786 H778 0.950 . S
C786 C784 1.391 . S
C786 C787 1.400 . S
C787 C786 1.400 . S
C787 C788 1.398 . S
C787 C793 1.491 . S
C788 H779 0.950 . S
C788 C787 1.398 . S
C788 C789 1.391 . S
C789 H777 0.950 . S
C789 C785 1.393 . S
C789 C788 1.391 . S
C790 H780 0.950 . S
C790 C791 1.386 . S
C790 C792 1.391 . S
C791 C790 1.386 . S
C791 C795 1.393 . S
C792 H781 0.950 . S
C792 C790 1.391 . S
C792 C793 1.400 . S
C793 C787 1.491 . S
C793 C792 1.400 . S
C793 C794 1.398 . S
C794 H782 0.950 . S
C794 C793 1.398 . S
C794 C795 1.391 . S
C795 H783 0.950 . S
C795 C791 1.393 . S
C795 C794 1.391 . S
H796 C804 0.950 . S
H797 C809 0.950 . S
H798 C806 0.950 . S
H799 C808 0.950 . S
H800 C810 0.950 . S
H801 C812 0.950 . S
H802 C814 0.950 . S
H803 C815 0.950 . S
C804 H796 0.950 . S
C804 C805 1.386 . S
C804 C806 1.391 . S
C805 C804 1.386 . S
C805 C809 1.393 . S
C806 H798 0.950 . S
C806 C804 1.391 . S
C806 C807 1.400 . S
C807 C806 1.400 . S
C807 C808 1.398 . S
C807 C813 1.491 . S
C808 H799 0.950 . S
C808 C807 1.398 . S
C808 C809 1.391 . S
C809 H797 0.950 . S
C809 C805 1.393 . S
C809 C808 1.391 . S
C810 H800 0.950 . S
C810 C811 1.386 . S
C810 C812 1.391 . S
C811 C810 1.386 . S
C811 C815 1.393 . S
C812 H801 0.950 . S
C812 C810 1.391 . S
C812 C813 1.400 . S
C813 C807 1.491 . S
C813 C812 1.400 . S
C813 C814 1.398 . S
C814 H802 0.950 . S
C814 C813 1.398 . S
C814 C815 1.391 . S
C815 H803 0.950 . S
C815 C811 1.393 . S
C815 C814 1.391 . S
H816 C824 0.950 . S
H817 C829 0.950 . S
H818 C826 0.950 . S
H819 C828 0.950 . S
H820 C830 0.950 . S
H821 C832 0.950 . S
H822 C834 0.950 . S
H823 C835 0.950 . S
C824 H816 0.950 . S
C824 C825 1.386 . S
C824 C826 1.391 . S
C825 C824 1.386 . S
C825 C829 1.393 . S
C826 H818 0.950 . S
C826 C824 1.391 . S
C826 C827 1.400 . S
C827 C826 1.400 . S
C827 C828 1.398 . S
C827 C833 1.491 . S
C828 H819 0.950 . S
C828 C827 1.398 . S
C828 C829 1.391 . S
C829 H817 0.950 . S
C829 C825 1.393 . S
C829 C828 1.391 . S
C830 H820 0.950 . S
C830 C831 1.386 . S
C830 C832 1.391 . S
C831 C830 1.386 . S
C831 C835 1.393 . S
C832 H821 0.950 . S
C832 C830 1.391 . S
C832 C833 1.400 . S
C833 C827 1.491 . S
C833 C832 1.400 . S
C833 C834 1.398 . S
C834 H822 0.950 . S
C834 C833 1.398 . S
C834 C835 1.391 . S
C835 H823 0.950 . S
C835 C831 1.393 . S
C835 C834 1.391 . S
H836 C844 0.950 . S
H837 C849 0.950 . S
H838 C846 0.950 . S
H839 C848 0.950 . S
H840 C850 0.950 . S
H841 C852 0.950 . S
H842 C854 0.950 . S
H843 C855 0.950 . S
C844 H836 0.950 . S
C844 C845 1.386 . S
C844 C846 1.391 . S
C845 C844 1.386 . S
C845 C849 1.393 . S
C846 H838 0.950 . S
C846 C844 1.391 . S
C846 C847 1.400 . S
C847 C846 1.400 . S
C847 C848 1.398 . S
C847 C853 1.491 . S
C848 H839 0.950 . S
C848 C847 1.398 . S
C848 C849 1.391 . S
C849 H837 0.950 . S
C849 C845 1.393 . S
C849 C848 1.391 . S
C850 H840 0.950 . S
C850 C851 1.386 . S
C850 C852 1.391 . S
C851 C850 1.386 . S
C851 C855 1.393 . S
C852 H841 0.950 . S
C852 C850 1.391 . S
C852 C853 1.400 . S
C853 C847 1.491 . S
C853 C852 1.400 . S
C853 C854 1.398 . S
C854 H842 0.950 . S
C854 C853 1.398 . S
C854 C855 1.391 . S
C855 H843 0.950 . S
C855 C851 1.393 . S
C855 C854 1.391 . S
H856 C864 0.950 . S
H857 C869 0.950 . S
H858 C866 0.950 . S
H859 C868 0.950 . S
H860 C870 0.950 . S
H861 C872 0.950 . S
H862 C874 0.950 . S
H863 C875 0.950 . S
C864 H856 0.950 . S
C864 C865 1.386 . S
C864 C866 1.391 . S
C865 C864 1.386 . S
C865 C869 1.393 . S
C866 H858 0.950 . S
C866 C864 1.391 . S
C866 C867 1.400 . S
C867 C866 1.400 . S
C867 C868 1.398 . S
C867 C873 1.491 . S
C868 H859 0.950 . S
C868 C867 1.398 . S
C868 C869 1.391 . S
C869 H857 0.950 . S
C869 C865 1.393 . S
C869 C868 1.391 . S
C870 H860 0.950 . S
C870 C871 1.386 . S
C870 C872 1.391 . S
C871 C870 1.386 . S
C871 C875 1.393 . S
C872 H861 0.950 . S
C872 C870 1.391 . S
C872 C873 1.400 . S
C873 C867 1.491 . S
C873 C872 1.400 . S
C873 C874 1.398 . S
C874 H862 0.950 . S
C874 C873 1.398 . S
C874 C875 1.391 . S
C875 H863 0.950 . S
C875 C871 1.393 . S
C875 C874 1.391 . S
H876 C884 0.950 . S
H877 C889 0.950 . S
H878 C886 0.950 . S
H879 C888 0.950 . S
H880 C890 0.950 . S
H881 C892 0.950 . S
H882 C894 0.950 . S
H883 C895 0.950 . S
C884 H876 0.950 . S
C884 C885 1.386 . S
C884 C886 1.391 . S
C885 C884 1.386 . S
C885 C889 1.393 . S
C886 H878 0.950 . S
C886 C884 1.391 . S
C886 C887 1.400 . S
C887 C886 1.400 . S
C887 C888 1.398 . S
C887 C893 1.491 . S
C888 H879 0.950 . S
C888 C887 1.398 . S
C888 C889 1.391 . S
C889 H877 0.950 . S
C889 C885 1.393 . S
C889 C888 1.391 . S
C890 H880 0.950 . S
C890 C891 1.386 . S
C890 C892 1.391 . S
C891 C890 1.386 . S
C891 C895 1.393 . S
C892 H881 0.950 . S
C892 C890 1.391 . S
C892 C893 1.400 . S
C893 C887 1.491 . S
C893 C892 1.400 . S
C893 C894 1.398 . S
C894 H882 0.950 . S
C894 C893 1.398 . S
C894 C895 1.391 . S
C895 H883 0.950 . S
C895 C891 1.393 . S
C895 C894 1.391 . S
H896 C904 0.950 . S
H897 C909 0.950 . S
H898 C906 0.950 . S
H899 C908 0.950 . S
H900 C910 0.950 . S
H901 C912 0.950 . S
H902 C914 0.950 . S
H903 C915 0.950 . S
C904 H896 0.950 . S
C904 C905 1.386 . S
C904 C906 1.391 . S
C905 C904 1.386 . S
C905 C909 1.393 . S
C906 H898 0.950 . S
C906 C904 1.391 . S
C906 C907 1.400 . S
C907 C906 1.400 . S
C907 C908 1.398 . S
C907 C913 1.491 . S
C908 H899 0.950 . S
C908 C907 1.398 . S
C908 C909 1.391 . S
C909 H897 0.950 . S
C909 C905 1.393 . S
C909 C908 1.391 . S
C910 H900 0.950 . S
C910 C911 1.386 . S
C910 C912 1.391 . S
C911 C910 1.386 . S
C911 C915 1.393 . S
C912 H901 0.950 . S
C912 C910 1.391 . S
C912 C913 1.400 . S
C913 C907 1.491 . S
C913 C912 1.400 . S
C913 C914 1.398 . S
C914 H902 0.950 . S
C914 C913 1.398 . S
C914 C915 1.391 . S
C915 H903 0.950 . S
C915 C911 1.393 . S
C915 C914 1.391 . S
H916 C924 0.950 . S
H917 C929 0.950 . S
H918 C926 0.950 . S
H919 C928 0.950 . S
H920 C930 0.950 . S
H921 C932 0.950 . S
H922 C934 0.950 . S
H923 C935 0.950 . S
C924 H916 0.950 . S
C924 C925 1.386 . S
C924 C926 1.391 . S
C925 C924 1.386 . S
C925 C929 1.393 . S
C926 H918 0.950 . S
C926 C924 1.391 . S
C926 C927 1.400 . S
C927 C926 1.400 . S
C927 C928 1.398 . S
C927 C933 1.491 . S
C928 H919 0.950 . S
C928 C927 1.398 . S
C928 C929 1.391 . S
C929 H917 0.950 . S
C929 C925 1.393 . S
C929 C928 1.391 . S
C930 H920 0.950 . S
C930 C931 1.386 . S
C930 C932 1.391 . S
C931 C930 1.386 . S
C931 C935 1.393 . S
C932 H921 0.950 . S
C932 C930 1.391 . S
C932 C933 1.400 . S
C933 C927 1.491 . S
C933 C932 1.400 . S
C933 C934 1.398 . S
C934 H922 0.950 . S
C934 C933 1.398 . S
C934 C935 1.391 . S
C935 H923 0.950 . S
C935 C931 1.393 . S
C935 C934 1.391 . S
H936 C944 0.950 . S
H937 C949 0.950 . S
H938 C946 0.950 . S
H939 C948 0.950 . S
H940 C950 0.950 . S
H941 C952 0.950 . S
H942 C954 0.950 . S
H943 C955 0.950 . S
C944 H936 0.950 . S
C944 C945 1.386 . S
C944 C946 1.391 . S
C945 C944 1.386 . S
C945 C949 1.393 . S
C946 H938 0.950 . S
C946 C944 1.391 . S
C946 C947 1.400 . S
C947 C946 1.400 . S
C947 C948 1.398 . S
C947 C953 1.491 . S
C948 H939 0.950 . S
C948 C947 1.398 . S
C948 C949 1.391 . S
C949 H937 0.950 . S
C949 C945 1.393 . S
C949 C948 1.391 . S
C950 H940 0.950 . S
C950 C951 1.386 . S
C950 C952 1.391 . S
C951 C950 1.386 . S
C951 C955 1.393 . S
C952 H941 0.950 . S
C952 C950 1.391 . S
C952 C953 1.400 . S
C953 C947 1.491 . S
C953 C952 1.400 . S
C953 C954 1.398 . S
C954 H942 0.950 . S
C954 C953 1.398 . S
C954 C955 1.391 . S
C955 H943 0.950 . S
C955 C951 1.393 . S
C955 C954 1.391 . S
H956 C964 0.950 . S
H957 C969 0.950 . S
H958 C966 0.950 . S
H959 C968 0.950 . S
H960 C970 0.950 . S
H961 C972 0.950 . S
H962 C974 0.950 . S
H963 C975 0.950 . S
C964 H956 0.950 . S
C964 C965 1.386 . S
C964 C966 1.391 . S
C965 C964 1.386 . S
C965 C969 1.393 . S
C966 H958 0.950 . S
C966 C964 1.391 . S
C966 C967 1.400 . S
C967 C966 1.400 . S
C967 C968 1.398 . S
C967 C973 1.491 . S
C968 H959 0.950 . S
C968 C967 1.398 . S
C968 C969 1.391 . S
C969 H957 0.950 . S
C969 C965 1.393 . S
C969 C968 1.391 . S
C970 H960 0.950 . S
C970 C971 1.386 . S
C970 C972 1.391 . S
C971 C970 1.386 . S
C971 C975 1.393 . S
C972 H961 0.950 . S
C972 C970 1.391 . S
C972 C973 1.400 . S
C973 C967 1.491 . S
C973 C972 1.400 . S
C973 C974 1.398 . S
C974 H962 0.950 . S
C974 C973 1.398 . S
C974 C975 1.391 . S
C975 H963 0.950 . S
C975 C971 1.393 . S
C975 C974 1.391 . S
H976 C984 0.950 . S
H977 C989 0.950 . S
H978 C986 0.950 . S
H979 C988 0.950 . S
H980 C990 0.950 . S
H981 C992 0.950 . S
H982 C994 0.950 . S
H983 C995 0.950 . S
C984 H976 0.950 . S
C984 C985 1.386 . S
C984 C986 1.391 . S
C985 C984 1.386 . S
C985 C989 1.393 . S
C986 H978 0.950 . S
C986 C984 1.391 . S
C986 C987 1.400 . S
C987 C986 1.400 . S
C987 C988 1.398 . S
C987 C993 1.491 . S
C988 H979 0.950 . S
C988 C987 1.398 . S
C988 C989 1.391 . S
C989 H977 0.950 . S
C989 C985 1.393 . S
C989 C988 1.391 . S
C990 H980 0.950 . S
C990 C991 1.386 . S
C990 C992 1.391 . S
C991 C990 1.386 . S
C991 C995 1.393 . S
C992 H981 0.950 . S
C992 C990 1.391 . S
C992 C993 1.400 . S
C993 C987 1.491 . S
C993 C992 1.400 . S
C993 C994 1.398 . S
C994 H982 0.950 . S
C994 C993 1.398 . S
C994 C995 1.391 . S
C995 H983 0.950 . S
C995 C991 1.393 . S
C995 C994 1.391 . S
H996 C1004 0.950 . S
H997 C1009 0.950 . S
H998 C1006 0.950 . S
H999 C1008 0.950 . S
H1000 C1010 0.950 . S
H1001 C1012 0.950 . S
H1002 C1014 0.950 . S
H1003 C1015 0.950 . S
C1004 H996 0.950 . S
C1004 C1005 1.386 . S
C1004 C1006 1.391 . S
C1005 C1004 1.386 . S
C1005 C1009 1.393 . S
C1006 H998 0.950 . S
C1006 C1004 1.391 . S
C1006 C1007 1.400 . S
C1007 C1006 1.400 . S
C1007 C1008 1.398 . S
C1007 C1013 1.491 . S
C1008 H999 0.950 . S
C1008 C1007 1.398 . S
C1008 C1009 1.391 . S
C1009 H997 0.950 . S
C1009 C1005 1.393 . S
C1009 C1008 1.391 . S
C1010 H1000 0.950 . S
C1010 C1011 1.386 . S
C1010 C1012 1.391 . S
C1011 C1010 1.386 . S
C1011 C1015 1.393 . S
C1012 H1001 0.950 . S
C1012 C1010 1.391 . S
C1012 C1013 1.400 . S
C1013 C1007 1.491 . S
C1013 C1012 1.400 . S
C1013 C1014 1.398 . S
C1014 H1002 0.950 . S
C1014 C1013 1.398 . S
C1014 C1015 1.391 . S
C1015 H1003 0.950 . S
C1015 C1011 1.393 . S
C1015 C1014 1.391 . S
H1016 C1024 0.950 . S
H1017 C1029 0.950 . S
H1018 C1026 0.950 . S
H1019 C1028 0.950 . S
H1020 C1030 0.950 . S
H1021 C1032 0.950 . S
H1022 C1034 0.950 . S
H1023 C1035 0.950 . S
C1024 H1016 0.950 . S
C1024 C1025 1.386 . S
C1024 C1026 1.391 . S
C1025 C1024 1.386 . S
C1025 C1029 1.393 . S
C1026 H1018 0.950 . S
C1026 C1024 1.391 . S
C1026 C1027 1.400 . S
C1027 C1026 1.400 . S
C1027 C1028 1.398 . S
C1027 C1033 1.491 . S
C1028 H1019 0.950 . S
C1028 C1027 1.398 . S
C1028 C1029 1.391 . S
C1029 H1017 0.950 . S
C1029 C1025 1.393 . S
C1029 C1028 1.391 . S
C1030 H1020 0.950 . S
C1030 C1031 1.386 . S
C1030 C1032 1.391 . S
C1031 C1030 1.386 . S
C1031 C1035 1.393 . S
C1032 H1021 0.950 . S
C1032 C1030 1.391 . S
C1032 C1033 1.400 . S
C1033 C1027 1.491 . S
C1033 C1032 1.400 . S
C1033 C1034 1.398 . S
C1034 H1022 0.950 . S
C1034 C1033 1.398 . S
C1034 C1035 1.391 . S
C1035 H1023 0.950 . S
C1035 C1031 1.393 . S
C1035 C1034 1.391 . S
H1036 C1044 0.950 . S
H1037 C1049 0.950 . S
H1038 C1046 0.950 . S
H1039 C1048 0.950 . S
H1040 C1050 0.950 . S
H1041 C1052 0.950 . S
H1042 C1054 0.950 . S
H1043 C1055 0.950 . S
C1044 H1036 0.950 . S
C1044 C1045 1.386 . S
C1044 C1046 1.391 . S
C1045 C1044 1.386 . S
C1045 C1049 1.393 . S
C1046 H1038 0.950 . S
C1046 C1044 1.391 . S
C1046 C1047 1.400 . S
C1047 C1046 1.400 . S
C1047 C1048 1.398 . S
C1047 C1053 1.491 . S
C1048 H1039 0.950 . S
C1048 C1047 1.398 . S
C1048 C1049 1.391 . S
C1049 H1037 0.950 . S
C1049 C1045 1.393 . S
C1049 C1048 1.391 . S
C1050 H1040 0.950 . S
C1050 C1051 1.386 . S
C1050 C1052 1.391 . S
C1051 C1050 1.386 . S
C1051 C1055 1.393 . S
C1052 H1041 0.950 . S
C1052 C1050 1.391 . S
C1052 C1053 1.400 . S
C1053 C1047 1.491 . S
C1053 C1052 1.400 . S
C1053 C1054 1.398 . S
C1054 H1042 0.950 . S
C1054 C1053 1.398 . S
C1054 C1055 1.391 . S
C1055 H1043 0.950 . S
C1055 C1051 1.393 . S
C1055 C1054 1.391 . S
H1056 C1064 0.950 . S
H1057 C1069 0.950 . S
H1058 C1066 0.950 . S
H1059 C1068 0.950 . S
H1060 C1070 0.950 . S
H1061 C1072 0.950 . S
H1062 C1074 0.950 . S
H1063 C1075 0.950 . S
C1064 H1056 0.950 . S
C1064 C1065 1.386 . S
C1064 C1066 1.391 . S
C1065 C1064 1.386 . S
C1065 C1069 1.393 . S
C1066 H1058 0.950 . S
C1066 C1064 1.391 . S
C1066 C1067 1.400 . S
C1067 C1066 1.400 . S
C1067 C1068 1.398 . S
C1067 C1073 1.491 . S
C1068 H1059 0.950 . S
C1068 C1067 1.398 . S
C1068 C1069 1.391 . S
C1069 H1057 0.950 . S
C1069 C1065 1.393 . S
C1069 C1068 1.391 . S
C1070 H1060 0.950 . S
C1070 C1071 1.386 . S
C1070 C1072 1.391 . S
C1071 C1070 1.386 . S
C1071 C1075 1.393 . S
C1072 H1061 0.950 . S
C1072 C1070 1.391 . S
C1072 C1073 1.400 . S
C1073 C1067 1.491 . S
C1073 C1072 1.400 . S
C1073 C1074 1.398 . S
C1074 H1062 0.950 . S
C1074 C1073 1.398 . S
C1074 C1075 1.391 . S
C1075 H1063 0.950 . S
C1075 C1071 1.393 . S
C1075 C1074 1.391 . S
H1076 C1084 0.950 . S
H1077 C1089 0.950 . S
H1078 C1086 0.950 . S
H1079 C1088 0.950 . S
H1080 C1090 0.950 . S
H1081 C1092 0.950 . S
H1082 C1094 0.950 . S
H1083 C1095 0.950 . S
C1084 H1076 0.950 . S
C1084 C1085 1.386 . S
C1084 C1086 1.391 . S
C1085 C1084 1.386 . S
C1085 C1089 1.393 . S
C1086 H1078 0.950 . S
C1086 C1084 1.391 . S
C1086 C1087 1.400 . S
C1087 C1086 1.400 . S
C1087 C1088 1.398 . S
C1087 C1093 1.491 . S
C1088 H1079 0.950 . S
C1088 C1087 1.398 . S
C1088 C1089 1.391 . S
C1089 H1077 0.950 . S
C1089 C1085 1.393 . S
C1089 C1088 1.391 . S
C1090 H1080 0.950 . S
C1090 C1091 1.386 . S
C1090 C1092 1.391 . S
C1091 C1090 1.386 . S
C1091 C1095 1.393 . S
C1092 H1081 0.950 . S
C1092 C1090 1.391 . S
C1092 C1093 1.400 . S
C1093 C1087 1.491 . S
C1093 C1092 1.400 . S
C1093 C1094 1.398 . S
C1094 H1082 0.950 . S
C1094 C1093 1.398 . S
C1094 C1095 1.391 . S
C1095 H1083 0.950 . S
C1095 C1091 1.393 . S
C1095 C1094 1.391 . S
H1096 C1104 0.950 . S
H1097 C1109 0.950 . S
H1098 C1106 0.950 . S
H1099 C1108 0.950 . S
H1100 C1110 0.950 . S
H1101 C1112 0.950 . S
H1102 C1114 0.950 . S
H1103 C1115 0.950 . S
C1104 H1096 0.950 . S
C1104 C1105 1.386 . S
C1104 C1106 1.391 . S
C1105 C1104 1.386 . S
C1105 C1109 1.393 . S
C1106 H1098 0.950 . S
C1106 C1104 1.391 . S
C1106 C1107 1.400 . S
C1107 C1106 1.400 . S
C1107 C1108 1.398 . S
C1107 C1113 1.491 . S
C1108 H1099 0.950 . S
C1108 C1107 1.398 . S
C1108 C1109 1.391 . S
C1109 H1097 0.950 . S
C1109 C1105 1.393 . S
C1109 C1108 1.391 . S
C1110 H1100 0.950 . S
C1110 C1111 1.386 . S
C1110 C1112 1.391 . S
C1111 C1110 1.386 . S
C1111 C1115 1.393 . S
C1112 H1101 0.950 . S
C1112 C1110 1.391 . S
C1112 C1113 1.400 . S
C1113 C1107 1.491 . S
C1113 C1112 1.400 . S
C1113 C1114 1.398 . S
C1114 H1102 0.950 . S
C1114 C1113 1.398 . S
C1114 C1115 1.391 . S
C1115 H1103 0.950 . S
C1115 C1111 1.393 . S
C1115 C1114 1.391 . S
H1116 C1124 0.950 . S
H1117 C1129 0.950 . S
H1118 C1126 0.950 . S
H1119 C1128 0.950 . S
H1120 C1130 0.950 . S
H1121 C1132 0.950 . S
H1122 C1134 0.950 . S
H1123 C1135 0.950 . S
C1124 H1116 0.950 . S
C1124 C1125 1.386 . S
C1124 C1126 1.391 . S
C1125 C1124 1.386 . S
C1125 C1129 1.393 . S
C1126 H1118 0.950 . S
C1126 C1124 1.391 . S
C1126 C1127 1.400 . S
C1127 C1126 1.400 . S
C1127 C1128 1.398 . S
C1127 C1133 1.491 . S
C1128 H1119 0.950 . S
C1128 C1127 1.398 . S
C1128 C1129 1.391 . S
C1129 H1117 0.950 . S
C1129 C1125 1.393 . S
C1129 C1128 1.391 . S
C1130 H1120 0.950 . S
C1130 C1131 1.386 . S
C1130 C1132 1.391 . S
C1131 C1130 1.386 . S
C1131 C1135 1.393 . S
C1132 H1121 0.950 . S
C1132 C1130 1.391 . S
C1132 C1133 1.400 . S
C1133 C1127 1.491 . S
C1133 C1132 1.400 . S
C1133 C1134 1.398 . S
C1134 H1122 0.950 . S
C1134 C1133 1.398 . S
C1134 C1135 1.391 . S
C1135 H1123 0.950 . S
C1135 C1131 1.393 . S
C1135 C1134 1.391 . S
H1136 C1144 0.950 . S
H1137 C1149 0.950 . S
H1138 C1146 0.950 . S
H1139 C1148 0.950 . S
H1140 C1150 0.950 . S
H1141 C1152 0.950 . S
H1142 C1154 0.950 . S
H1143 C1155 0.950 . S
C1144 H1136 0.950 . S
C1144 C1145 1.386 . S
C1144 C1146 1.391 . S
C1145 C1144 1.386 . S
C1145 C1149 1.393 . S
C1146 H1138 0.950 . S
C1146 C1144 1.391 . S
C1146 C1147 1.400 . S
C1147 C1146 1.400 . S
C1147 C1148 1.398 . S
C1147 C1153 1.491 . S
C1148 H1139 0.950 . S
C1148 C1147 1.398 . S
C1148 C1149 1.391 . S
C1149 H1137 0.950 . S
C1149 C1145 1.393 . S
C1149 C1148 1.391 . S
C1150 H1140 0.950 . S
C1150 C1151 1.386 . S
C1150 C1152 1.391 . S
C1151 C1150 1.386 . S
C1151 C1155 1.393 . S
C1152 H1141 0.950 . S
C1152 C1150 1.391 . S
C1152 C1153 1.400 . S
C1153 C1147 1.491 . S
C1153 C1152 1.400 . S
C1153 C1154 1.398 . S
C1154 H1142 0.950 . S
C1154 C1153 1.398 . S
C1154 C1155 1.391 . S
C1155 H1143 0.950 . S
C1155 C1151 1.393 . S
C1155 C1154 1.391 . S
H1156 C1164 0.950 . S
H1157 C1169 0.950 . S
H1158 C1166 0.950 . S
H1159 C1168 0.950 . S
H1160 C1170 0.950 . S
H1161 C1172 0.950 . S
H1162 C1174 0.950 . S
H1163 C1175 0.950 . S
C1164 H1156 0.950 . S
C1164 C1165 1.386 . S
C1164 C1166 1.391 . S
C1165 C1164 1.386 . S
C1165 C1169 1.393 . S
C1166 H1158 0.950 . S
C1166 C1164 1.391 . S
C1166 C1167 1.400 . S
C1167 C1166 1.400 . S
C1167 C1168 1.398 . S
C1167 C1173 1.491 . S
C1168 H1159 0.950 . S
C1168 C1167 1.398 . S
C1168 C1169 1.391 . S
C1169 H1157 0.950 . S
C1169 C1165 1.393 . S
C1169 C1168 1.391 . S
C1170 H1160 0.950 . S
C1170 C1171 1.386 . S
C1170 C1172 1.391 . S
C1171 C1170 1.386 . S
C1171 C1175 1.393 . S
C1172 H1161 0.950 . S
C1172 C1170 1.391 . S
C1172 C1173 1.400 . S
C1173 C1167 1.491 . S
C1173 C1172 1.400 . S
C1173 C1174 1.398 . S
C1174 H1162 0.950 . S
C1174 C1173 1.398 . S
C1174 C1175 1.391 . S
C1175 H1163 0.950 . S
C1175 C1171 1.393 . S
C1175 C1174 1.391 . S
H1176 C1184 0.950 . S
H1177 C1189 0.950 . S
H1178 C1186 0.950 . S
H1179 C1188 0.950 . S
H1180 C1190 0.950 . S
H1181 C1192 0.950 . S
H1182 C1194 0.950 . S
H1183 C1195 0.950 . S
C1184 H1176 0.950 . S
C1184 C1185 1.386 . S
C1184 C1186 1.391 . S
C1185 C1184 1.386 . S
C1185 C1189 1.393 . S
C1186 H1178 0.950 . S
C1186 C1184 1.391 . S
C1186 C1187 1.400 . S
C1187 C1186 1.400 . S
C1187 C1188 1.398 . S
C1187 C1193 1.491 . S
C1188 H1179 0.950 . S
C1188 C1187 1.398 . S
C1188 C1189 1.391 . S
C1189 H1177 0.950 . S
C1189 C1185 1.393 . S
C1189 C1188 1.391 . S
C1190 H1180 0.950 . S
C1190 C1191 1.386 . S
C1190 C1192 1.391 . S
C1191 C1190 1.386 . S
C1191 C1195 1.393 . S
C1192 H1181 0.950 . S
C1192 C1190 1.391 . S
C1192 C1193 1.400 . S
C1193 C1187 1.491 . S
C1193 C1192 1.400 . S
C1193 C1194 1.398 . S
C1194 H1182 0.950 . S
C1194 C1193 1.398 . S
C1194 C1195 1.391 . S
C1195 H1183 0.950 . S
C1195 C1191 1.393 . S
C1195 C1194 1.391 . S
H1196 C1204 0.950 . S
H1197 C1209 0.950 . S
H1198 C1206 0.950 . S
H1199 C1208 0.950 . S
H1200 C1210 0.950 . S
H1201 C1212 0.950 . S
H1202 C1214 0.950 . S
H1203 C1215 0.950 . S
C1204 H1196 0.950 . S
C1204 C1205 1.386 . S
C1204 C1206 1.391 . S
C1205 C1204 1.386 . S
C1205 C1209 1.393 . S
C1206 H1198 0.950 . S
C1206 C1204 1.391 . S
C1206 C1207 1.400 . S
C1207 C1206 1.400 . S
C1207 C1208 1.398 . S
C1207 C1213 1.491 . S
C1208 H1199 0.950 . S
C1208 C1207 1.398 . S
C1208 C1209 1.391 . S
C1209 H1197 0.950 . S
C1209 C1205 1.393 . S
C1209 C1208 1.391 . S
C1210 H1200 0.950 . S
C1210 C1211 1.386 . S
C1210 C1212 1.391 . S
C1211 C1210 1.386 . S
C1211 C1215 1.393 . S
C1212 H1201 0.950 . S
C1212 C1210 1.391 . S
C1212 C1213 1.400 . S
C1213 C1207 1.491 . S
C1213 C1212 1.400 . S
C1213 C1214 1.398 . S
C1214 H1202 0.950 . S
C1214 C1213 1.398 . S
C1214 C1215 1.391 . S
C1215 H1203 0.950 . S
C1215 C1211 1.393 . S
C1215 C1214 1.391 . S
H1216 C1224 0.950 . S
H1217 C1229 0.950 . S
H1218 C1226 0.950 . S
H1219 C1228 0.950 . S
H1220 C1230 0.950 . S
H1221 C1232 0.950 . S
H1222 C1234 0.950 . S
H1223 C1235 0.950 . S
C1224 H1216 0.950 . S
C1224 C1225 1.386 . S
C1224 C1226 1.391 . S
C1225 C1224 1.386 . S
C1225 C1229 1.393 . S
C1226 H1218 0.950 . S
C1226 C1224 1.391 . S
C1226 C1227 1.400 . S
C1227 C1226 1.400 . S
C1227 C1228 1.398 . S
C1227 C1233 1.491 . S
C1228 H1219 0.950 . S
C1228 C1227 1.398 . S
C1228 C1229 1.391 . S
C1229 H1217 0.950 . S
C1229 C1225 1.393 . S
C1229 C1228 1.391 . S
C1230 H1220 0.950 . S
C1230 C1231 1.386 . S
C1230 C1232 1.391 . S
C1231 C1230 1.386 . S
C1231 C1235 1.393 . S
C1232 H1221 0.950 . S
C1232 C1230 1.391 . S
C1232 C1233 1.400 . S
C1233 C1227 1.491 . S
C1233 C1232 1.400 . S
C1233 C1234 1.398 . S
C1234 H1222 0.950 . S
C1234 C1233 1.398 . S
C1234 C1235 1.391 . S
C1235 H1223 0.950 . S
C1235 C1231 1.393 . S
C1235 C1234 1.391 . S
H1236 C1244 0.950 . S
H1237 C1249 0.950 . S
H1238 C1246 0.950 . S
H1239 C1248 0.950 . S
H1240 C1250 0.950 . S
H1241 C1252 0.950 . S
H1242 C1254 0.950 . S
H1243 C1255 0.950 . S
C1244 H1236 0.950 . S
C1244 C1245 1.386 . S
C1244 C1246 1.391 . S
C1245 C1244 1.386 . S
C1245 C1249 1.393 . S
C1246 H1238 0.950 . S
C1246 C1244 1.391 . S
C1246 C1247 1.400 . S
C1247 C1246 1.400 . S
C1247 C1248 1.398 . S
C1247 C1253 1.491 . S
C1248 H1239 0.950 . S
C1248 C1247 1.398 . S
C1248 C1249 1.391 . S
C1249 H1237 0.950 . S
C1249 C1245 1.393 . S
C1249 C1248 1.391 . S
C1250 H1240 0.950 . S
C1250 C1251 1.386 . S
C1250 C1252 1.391 . S
C1251 C1250 1.386 . S
C1251 C1255 1.393 . S
C1252 H1241 0.950 . S
C1252 C1250 1.391 . S
C1252 C1253 1.400 . S
C1253 C1247 1.491 . S
C1253 C1252 1.400 . S
C1253 C1254 1.398 . S
C1254 H1242 0.950 . S
C1254 C1253 1.398 . S
C1254 C1255 1.391 . S
C1255 H1243 0.950 . S
C1255 C1251 1.393 . S
C1255 C1254 1.391 . S
H1256 C1264 0.950 . S
H1257 C1269 0.950 . S
H1258 C1266 0.950 . S
H1259 C1268 0.950 . S
H1260 C1270 0.950 . S
H1261 C1272 0.950 . S
H1262 C1274 0.950 . S
H1263 C1275 0.950 . S
C1264 H1256 0.950 . S
C1264 C1265 1.386 . S
C1264 C1266 1.391 . S
C1265 C1264 1.386 . S
C1265 C1269 1.393 . S
C1266 H1258 0.950 . S
C1266 C1264 1.391 . S
C1266 C1267 1.400 . S
C1267 C1266 1.400 . S
C1267 C1268 1.398 . S
C1267 C1273 1.491 . S
C1268 H1259 0.950 . S
C1268 C1267 1.398 . S
C1268 C1269 1.391 . S
C1269 H1257 0.950 . S
C1269 C1265 1.393 . S
C1269 C1268 1.391 . S
C1270 H1260 0.950 . S
C1270 C1271 1.386 . S
C1270 C1272 1.391 . S
C1271 C1270 1.386 . S
C1271 C1275 1.393 . S
C1272 H1261 0.950 . S
C1272 C1270 1.391 . S
C1272 C1273 1.400 . S
C1273 C1267 1.491 . S
C1273 C1272 1.400 . S
C1273 C1274 1.398 . S
C1274 H1262 0.950 . S
C1274 C1273 1.398 . S
C1274 C1275 1.391 . S
C1275 H1263 0.950 . S
C1275 C1271 1.393 . S
C1275 C1274 1.391 . S
H1276 C1284 0.950 . S
H1277 C1289 0.950 . S
H1278 C1286 0.950 . S
H1279 C1288 0.950 . S
H1280 C1290 0.950 . S
H1281 C1292 0.950 . S
H1282 C1294 0.950 . S
H1283 C1295 0.950 . S
C1284 H1276 0.950 . S
C1284 C1285 1.386 . S
C1284 C1286 1.391 . S
C1285 C1284 1.386 . S
C1285 C1289 1.393 . S
C1286 H1278 0.950 . S
C1286 C1284 1.391 . S
C1286 C1287 1.400 . S
C1287 C1286 1.400 . S
C1287 C1288 1.398 . S
C1287 C1293 1.491 . S
C1288 H1279 0.950 . S
C1288 C1287 1.398 . S
C1288 C1289 1.391 . S
C1289 H1277 0.950 . S
C1289 C1285 1.393 . S
C1289 C1288 1.391 . S
C1290 H1280 0.950 . S
C1290 C1291 1.386 . S
C1290 C1292 1.391 . S
C1291 C1290 1.386 . S
C1291 C1295 1.393 . S
C1292 H1281 0.950 . S
C1292 C1290 1.391 . S
C1292 C1293 1.400 . S
C1293 C1287 1.491 . S
C1293 C1292 1.400 . S
C1293 C1294 1.398 . S
C1294 H1282 0.950 . S
C1294 C1293 1.398 . S
C1294 C1295 1.391 . S
C1295 H1283 0.950 . S
C1295 C1291 1.393 . S
C1295 C1294 1.391 . S
H1296 C1304 0.950 . S
H1297 C1309 0.950 . S
H1298 C1306 0.950 . S
H1299 C1308 0.950 . S
H1300 C1310 0.950 . S
H1301 C1312 0.950 . S
H1302 C1314 0.950 . S
H1303 C1315 0.950 . S
C1304 H1296 0.950 . S
C1304 C1305 1.386 . S
C1304 C1306 1.391 . S
C1305 C1304 1.386 . S
C1305 C1309 1.393 . S
C1306 H1298 0.950 . S
C1306 C1304 1.391 . S
C1306 C1307 1.400 . S
C1307 C1306 1.400 . S
C1307 C1308 1.398 . S
C1307 C1313 1.491 . S
C1308 H1299 0.950 . S
C1308 C1307 1.398 . S
C1308 C1309 1.391 . S
C1309 H1297 0.950 . S
C1309 C1305 1.393 . S
C1309 C1308 1.391 . S
C1310 H1300 0.950 . S
C1310 C1311 1.386 . S
C1310 C1312 1.391 . S
C1311 C1310 1.386 . S
C1311 C1315 1.393 . S
C1312 H1301 0.950 . S
C1312 C1310 1.391 . S
C1312 C1313 1.400 . S
C1313 C1307 1.491 . S
C1313 C1312 1.400 . S
C1313 C1314 1.398 . S
C1314 H1302 0.950 . S
C1314 C1313 1.398 . S
C1314 C1315 1.391 . S
C1315 H1303 0.950 . S
C1315 C1311 1.393 . S
C1315 C1314 1.391 . S
H1316 C1324 0.950 . S
H1317 C1329 0.950 . S
H1318 C1326 0.950 . S
H1319 C1328 0.950 . S
H1320 C1330 0.950 . S
H1321 C1332 0.950 . S
H1322 C1334 0.950 . S
H1323 C1335 0.950 . S
C1324 H1316 0.950 . S
C1324 C1325 1.386 . S
C1324 C1326 1.391 . S
C1325 C1324 1.386 . S
C1325 C1329 1.393 . S
C1326 H1318 0.950 . S
C1326 C1324 1.391 . S
C1326 C1327 1.400 . S
C1327 C1326 1.400 . S
C1327 C1328 1.398 . S
C1327 C1333 1.491 . S
C1328 H1319 0.950 . S
C1328 C1327 1.398 . S
C1328 C1329 1.391 . S
C1329 H1317 0.950 . S
C1329 C1325 1.393 . S
C1329 C1328 1.391 . S
C1330 H1320 0.950 . S
C1330 C1331 1.386 . S
C1330 C1332 1.391 . S
C1331 C1330 1.386 . S
C1331 C1335 1.393 . S
C1332 H1321 0.950 . S
C1332 C1330 1.391 . S
C1332 C1333 1.400 . S
C1333 C1327 1.491 . S
C1333 C1332 1.400 . S
C1333 C1334 1.398 . S
C1334 H1322 0.950 . S
C1334 C1333 1.398 . S
C1334 C1335 1.391 . S
C1335 H1323 0.950 . S
C1335 C1331 1.393 . S
C1335 C1334 1.391 . S
H1336 C1344 0.950 . S
H1337 C1349 0.950 . S
H1338 C1346 0.950 . S
H1339 C1348 0.950 . S
H1340 C1350 0.950 . S
H1341 C1352 0.950 . S
H1342 C1354 0.950 . S
H1343 C1355 0.950 . S
C1344 H1336 0.950 . S
C1344 C1345 1.386 . S
C1344 C1346 1.391 . S
C1345 C1344 1.386 . S
C1345 C1349 1.393 . S
C1346 H1338 0.950 . S
C1346 C1344 1.391 . S
C1346 C1347 1.400 . S
C1347 C1346 1.400 . S
C1347 C1348 1.398 . S
C1347 C1353 1.491 . S
C1348 H1339 0.950 . S
C1348 C1347 1.398 . S
C1348 C1349 1.391 . S
C1349 H1337 0.950 . S
C1349 C1345 1.393 . S
C1349 C1348 1.391 . S
C1350 H1340 0.950 . S
C1350 C1351 1.386 . S
C1350 C1352 1.391 . S
C1351 C1350 1.386 . S
C1351 C1355 1.393 . S
C1352 H1341 0.950 . S
C1352 C1350 1.391 . S
C1352 C1353 1.400 . S
C1353 C1347 1.491 . S
C1353 C1352 1.400 . S
C1353 C1354 1.398 . S
C1354 H1342 0.950 . S
C1354 C1353 1.398 . S
C1354 C1355 1.391 . S
C1355 H1343 0.950 . S
C1355 C1351 1.393 . S
C1355 C1354 1.391 . S
H1356 C1364 0.950 . S
H1357 C1369 0.950 . S
H1358 C1366 0.950 . S
H1359 C1368 0.950 . S
H1360 C1370 0.950 . S
H1361 C1372 0.950 . S
H1362 C1374 0.950 . S
H1363 C1375 0.950 . S
C1364 H1356 0.950 . S
C1364 C1365 1.386 . S
C1364 C1366 1.391 . S
C1365 C1364 1.386 . S
C1365 C1369 1.393 . S
C1366 H1358 0.950 . S
C1366 C1364 1.391 . S
C1366 C1367 1.400 . S
C1367 C1366 1.400 . S
C1367 C1368 1.398 . S
C1367 C1373 1.491 . S
C1368 H1359 0.950 . S
C1368 C1367 1.398 . S
C1368 C1369 1.391 . S
C1369 H1357 0.950 . S
C1369 C1365 1.393 . S
C1369 C1368 1.391 . S
C1370 H1360 0.950 . S
C1370 C1371 1.386 . S
C1370 C1372 1.391 . S
C1371 C1370 1.386 . S
C1371 C1375 1.393 . S
C1372 H1361 0.950 . S
C1372 C1370 1.391 . S
C1372 C1373 1.400 . S
C1373 C1367 1.491 . S
C1373 C1372 1.400 . S
C1373 C1374 1.398 . S
C1374 H1362 0.950 . S
C1374 C1373 1.398 . S
C1374 C1375 1.391 . S
C1375 H1363 0.950 . S
C1375 C1371 1.393 . S
C1375 C1374 1.391 . S
H1376 C1384 0.950 . S
H1377 C1389 0.950 . S
H1378 C1386 0.950 . S
H1379 C1388 0.950 . S
H1380 C1390 0.950 . S
H1381 C1392 0.950 . S
H1382 C1394 0.950 . S
H1383 C1395 0.950 . S
C1384 H1376 0.950 . S
C1384 C1385 1.386 . S
C1384 C1386 1.391 . S
C1385 C1384 1.386 . S
C1385 C1389 1.393 . S
C1386 H1378 0.950 . S
C1386 C1384 1.391 . S
C1386 C1387 1.400 . S
C1387 C1386 1.400 . S
C1387 C1388 1.398 . S
C1387 C1393 1.491 . S
C1388 H1379 0.950 . S
C1388 C1387 1.398 . S
C1388 C1389 1.391 . S
C1389 H1377 0.950 . S
C1389 C1385 1.393 . S
C1389 C1388 1.391 . S
C1390 H1380 0.950 . S
C1390 C1391 1.386 . S
C1390 C1392 1.391 . S
C1391 C1390 1.386 . S
C1391 C1395 1.393 . S
C1392 H1381 0.950 . S
C1392 C1390 1.391 . S
C1392 C1393 1.400 . S
C1393 C1387 1.491 . S
C1393 C1392 1.400 . S
C1393 C1394 1.398 . S
C1394 H1382 0.950 . S
C1394 C1393 1.398 . S
C1394 C1395 1.391 . S
C1395 H1383 0.950 . S
C1395 C1391 1.393 . S
C1395 C1394 1.391 . S
H1396 C1404 0.950 . S
H1397 C1409 0.950 . S
H1398 C1406 0.950 . S
H1399 C1408 0.950 . S
H1400 C1410 0.950 . S
H1401 C1412 0.950 . S
H1402 C1414 0.950 . S
H1403 C1415 0.950 . S
C1404 H1396 0.950 . S
C1404 C1405 1.386 . S
C1404 C1406 1.391 . S
C1405 C1404 1.386 . S
C1405 C1409 1.393 . S
C1406 H1398 0.950 . S
C1406 C1404 1.391 . S
C1406 C1407 1.400 . S
C1407 C1406 1.400 . S
C1407 C1408 1.398 . S
C1407 C1413 1.491 . S
C1408 H1399 0.950 . S
C1408 C1407 1.398 . S
C1408 C1409 1.391 . S
C1409 H1397 0.950 . S
C1409 C1405 1.393 . S
C1409 C1408 1.391 . S
C1410 H1400 0.950 . S
C1410 C1411 1.386 . S
C1410 C1412 1.391 . S
C1411 C1410 1.386 . S
C1411 C1415 1.393 . S
C1412 H1401 0.950 . S
C1412 C1410 1.391 . S
C1412 C1413 1.400 . S
C1413 C1407 1.491 . S
C1413 C1412 1.400 . S
C1413 C1414 1.398 . S
C1414 H1402 0.950 . S
C1414 C1413 1.398 . S
C1414 C1415 1.391 . S
C1415 H1403 0.950 . S
C1415 C1411 1.393 . S
C1415 C1414 1.391 . S
H1416 C1424 0.950 . S
H1417 C1429 0.950 . S
H1418 C1426 0.950 . S
H1419 C1428 0.950 . S
H1420 C1430 0.950 . S
H1421 C1432 0.950 . S
H1422 C1434 0.950 . S
H1423 C1435 0.950 . S
C1424 H1416 0.950 . S
C1424 C1425 1.386 . S
C1424 C1426 1.391 1_655 S
C1425 C1424 1.386 . S
C1425 C1429 1.393 . S
C1426 H1418 0.950 . S
C1426 C1424 1.391 1_455 S
C1426 C1427 1.400 1_455 S
C1427 C1426 1.400 1_655 S
C1427 C1428 1.398 . S
C1427 C1433 1.491 1_655 S
C1428 H1419 0.950 . S
C1428 C1427 1.398 . S
C1428 C1429 1.391 . S
C1429 H1417 0.950 . S
C1429 C1425 1.393 . S
C1429 C1428 1.391 . S
C1430 H1420 0.950 . S
C1430 C1431 1.386 . S
C1430 C1432 1.391 1_455 S
C1431 C1430 1.386 . S
C1431 C1435 1.393 . S
C1432 H1421 0.950 . S
C1432 C1430 1.391 1_655 S
C1432 C1433 1.400 1_655 S
C1433 C1427 1.491 1_455 S
C1433 C1432 1.400 1_455 S
C1433 C1434 1.398 . S
C1434 H1422 0.950 . S
C1434 C1433 1.398 . S
C1434 C1435 1.391 . S
C1435 H1423 0.950 . S
C1435 C1431 1.393 . S
C1435 C1434 1.391 . S
H1436 C1444 0.950 . S
H1437 C1449 0.950 . S
H1438 C1446 0.950 . S
H1439 C1448 0.922 1_545 S
H1440 C1450 0.950 . S
H1441 C1452 0.950 . S
H1442 C1454 0.922 1_565 S
H1443 C1455 0.950 . S
C1444 H1436 0.950 . S
C1444 C1445 1.386 . S
C1444 C1446 1.391 . S
C1445 C1444 1.386 . S
C1445 C1449 1.393 . S
C1446 H1438 0.950 . S
C1446 C1444 1.391 . S
C1446 C1447 1.400 . S
C1447 C1446 1.400 . S
C1447 C1448 1.408 . S
C1447 C1453 1.491 1_565 S
C1448 H1439 0.922 1_565 S
C1448 C1447 1.408 . S
C1448 C1449 1.409 . S
C1449 H1437 0.950 . S
C1449 C1445 1.393 . S
C1449 C1448 1.409 . S
C1450 H1440 0.950 . S
C1450 C1451 1.386 . S
C1450 C1452 1.391 . S
C1451 C1450 1.386 . S
C1451 C1455 1.393 . S
C1452 H1441 0.950 . S
C1452 C1450 1.391 . S
C1452 C1453 1.400 . S
C1453 C1447 1.491 1_545 S
C1453 C1452 1.400 . S
C1453 C1454 1.408 . S
C1454 H1442 0.922 1_545 S
C1454 C1453 1.408 . S
C1454 C1455 1.409 . S
C1455 H1443 0.950 . S
C1455 C1451 1.393 . S
C1455 C1454 1.409 . S
H1456 C1464 0.950 . S
H1457 C1469 0.950 . S
H1458 C1466 0.950 . S
H1459 C1468 0.950 1_455 S
H1460 C1470 0.950 . S
H1461 C1472 0.950 . S
H1462 C1474 0.950 1_655 S
H1463 C1475 0.950 . S
C1464 H1456 0.950 . S
C1464 C1465 1.386 . S
C1464 C1466 1.391 . S
C1465 C1464 1.386 . S
C1465 C1469 1.393 . S
C1466 H1458 0.950 . S
C1466 C1464 1.391 . S
C1466 C1467 1.400 . S
C1467 C1466 1.400 . S
C1467 C1468 1.398 . S
C1467 C1473 1.491 1_655 S
C1468 H1459 0.950 1_655 S
C1468 C1467 1.398 . S
C1468 C1469 1.391 . S
C1469 H1457 0.950 . S
C1469 C1465 1.393 . S
C1469 C1468 1.391 . S
C1470 H1460 0.950 . S
C1470 C1471 1.386 . S
C1470 C1472 1.391 . S
C1471 C1470 1.386 . S
C1471 C1475 1.393 . S
C1472 H1461 0.950 . S
C1472 C1470 1.391 . S
C1472 C1473 1.400 . S
C1473 C1467 1.491 1_455 S
C1473 C1472 1.400 . S
C1473 C1474 1.398 . S
C1474 H1462 0.950 1_455 S
C1474 C1473 1.398 . S
C1474 C1475 1.391 . S
C1475 H1463 0.950 . S
C1475 C1471 1.393 . S
C1475 C1474 1.391 . S
H1476 C1484 0.950 . S
H1477 C1489 0.950 . S
H1478 C1486 0.954 . S
H1479 C1488 0.950 . S
H1480 C1490 0.950 . S
H1481 C1492 0.954 . S
H1482 C1494 0.950 . S
H1483 C1495 0.950 . S
C1484 H1476 0.950 . S
C1484 C1485 1.386 . S
C1484 C1486 1.389 1_565 S
C1485 C1484 1.386 . S
C1485 C1489 1.393 . S
C1486 H1478 0.954 . S
C1486 C1484 1.389 1_545 S
C1486 C1487 1.399 1_545 S
C1487 C1486 1.399 1_565 S
C1487 C1488 1.398 . S
C1487 C1493 1.491 1_565 S
C1488 H1479 0.950 . S
C1488 C1487 1.398 . S
C1488 C1489 1.391 . S
C1489 H1477 0.950 . S
C1489 C1485 1.393 . S
C1489 C1488 1.391 . S
C1490 H1480 0.950 . S
C1490 C1491 1.386 . S
C1490 C1492 1.389 1_545 S
C1491 C1490 1.386 . S
C1491 C1495 1.393 . S
C1492 H1481 0.954 . S
C1492 C1490 1.389 1_565 S
C1492 C1493 1.399 1_565 S
C1493 C1487 1.491 1_545 S
C1493 C1492 1.399 1_545 S
C1493 C1494 1.398 . S
C1494 H1482 0.950 . S
C1494 C1493 1.398 . S
C1494 C1495 1.391 . S
C1495 H1483 0.950 . S
C1495 C1491 1.393 . S
C1495 C1494 1.391 . S
H1496 C1504 0.950 . S
H1497 C1509 0.950 . S
H1498 C1506 0.950 . S
H1499 C1508 0.950 . S
H1500 C1510 0.950 . S
H1501 C1512 0.950 . S
H1502 C1514 0.950 . S
H1503 C1515 0.950 . S
C1504 H1496 0.950 . S
C1504 C1505 1.386 . S
C1504 C1506 1.391 . S
C1505 C1504 1.386 . S
C1505 C1509 1.393 . S
C1506 H1498 0.950 . S
C1506 C1504 1.391 . S
C1506 C1507 1.400 . S
C1507 C1506 1.400 . S
C1507 C1508 1.398 1_565 S
C1507 C1513 1.491 1_565 S
C1508 H1499 0.950 . S
C1508 C1507 1.398 1_545 S
C1508 C1509 1.391 1_545 S
C1509 H1497 0.950 . S
C1509 C1505 1.393 . S
C1509 C1508 1.391 1_565 S
C1510 H1500 0.950 . S
C1510 C1511 1.386 . S
C1510 C1512 1.391 . S
C1511 C1510 1.386 . S
C1511 C1515 1.393 . S
C1512 H1501 0.950 . S
C1512 C1510 1.391 . S
C1512 C1513 1.400 . S
C1513 C1507 1.491 1_545 S
C1513 C1512 1.400 . S
C1513 C1514 1.398 1_545 S
C1514 H1502 0.950 . S
C1514 C1513 1.398 1_565 S
C1514 C1515 1.391 1_565 S
C1515 H1503 0.950 . S
C1515 C1511 1.393 . S
C1515 C1514 1.391 1_545 S
H1516 C1524 0.950 . S
H1517 C1529 0.950 . S
H1518 C1526 0.950 1_455 S
H1519 C1528 0.950 . S
H1520 C1530 0.950 . S
H1521 C1532 0.950 1_655 S
H1522 C1534 0.950 . S
H1523 C1535 0.950 . S
C1524 H1516 0.950 . S
C1524 C1525 1.386 . S
C1524 C1526 1.391 . S
C1525 C1524 1.386 . S
C1525 C1529 1.393 . S
C1526 H1518 0.950 1_655 S
C1526 C1524 1.391 . S
C1526 C1527 1.400 . S
C1527 C1526 1.400 . S
C1527 C1528 1.398 . S
C1527 C1533 1.491 1_655 S
C1528 H1519 0.950 . S
C1528 C1527 1.398 . S
C1528 C1529 1.391 . S
C1529 H1517 0.950 . S
C1529 C1525 1.393 . S
C1529 C1528 1.391 . S
C1530 H1520 0.950 . S
C1530 C1531 1.386 . S
C1530 C1532 1.391 . S
C1531 C1530 1.386 . S
C1531 C1535 1.393 . S
C1532 H1521 0.950 1_455 S
C1532 C1530 1.391 . S
C1532 C1533 1.400 . S
C1533 C1527 1.491 1_455 S
C1533 C1532 1.400 . S
C1533 C1534 1.398 . S
C1534 H1522 0.950 . S
C1534 C1533 1.398 . S
C1534 C1535 1.391 . S
C1535 H1523 0.950 . S
C1535 C1531 1.393 . S
C1535 C1534 1.391 . S
H1536 C1544 0.950 . S
H1537 C1549 0.950 . S
H1538 C1546 0.950 . S
H1539 C1548 0.950 . S
H1540 C1550 0.950 . S
H1541 C1552 0.950 . S
H1542 C1554 0.950 . S
H1543 C1555 0.950 . S
C1544 H1536 0.950 . S
C1544 C1545 1.386 . S
C1544 C1546 1.391 . S
C1545 C1544 1.386 . S
C1545 C1549 1.393 . S
C1546 H1538 0.950 . S
C1546 C1544 1.391 . S
C1546 C1547 1.400 . S
C1547 C1546 1.400 . S
C1547 C1548 1.398 1_565 S
C1547 C1553 1.491 1_565 S
C1548 H1539 0.950 . S
C1548 C1547 1.398 1_545 S
C1548 C1549 1.391 1_545 S
C1549 H1537 0.950 . S
C1549 C1545 1.393 . S
C1549 C1548 1.391 1_565 S
C1550 H1540 0.950 . S
C1550 C1551 1.386 . S
C1550 C1552 1.391 . S
C1551 C1550 1.386 . S
C1551 C1555 1.393 . S
C1552 H1541 0.950 . S
C1552 C1550 1.391 . S
C1552 C1553 1.400 . S
C1553 C1547 1.491 1_545 S
C1553 C1552 1.400 . S
C1553 C1554 1.398 1_545 S
C1554 H1542 0.950 . S
C1554 C1553 1.398 1_565 S
C1554 C1555 1.391 1_565 S
C1555 H1543 0.950 . S
C1555 C1551 1.393 . S
C1555 C1554 1.391 1_545 S
H1556 C1564 0.950 . S
H1557 C1569 0.950 . S
H1558 C1566 0.950 1_455 S
H1559 C1568 0.950 . S
H1560 C1570 0.950 . S
H1561 C1572 0.950 1_655 S
H1562 C1574 0.950 . S
H1563 C1575 0.950 . S
C1564 H1556 0.950 . S
C1564 C1565 1.386 . S
C1564 C1566 1.391 . S
C1565 C1564 1.386 . S
C1565 C1569 1.393 . S
C1566 H1558 0.950 1_655 S
C1566 C1564 1.391 . S
C1566 C1567 1.400 . S
C1567 C1566 1.400 . S
C1567 C1568 1.398 . S
C1567 C1573 1.491 1_655 S
C1568 H1559 0.950 . S
C1568 C1567 1.398 . S
C1568 C1569 1.391 . S
C1569 H1557 0.950 . S
C1569 C1565 1.393 . S
C1569 C1568 1.391 . S
C1570 H1560 0.950 . S
C1570 C1571 1.386 . S
C1570 C1572 1.391 . S
C1571 C1570 1.386 . S
C1571 C1575 1.393 . S
C1572 H1561 0.950 1_455 S
C1572 C1570 1.391 . S
C1572 C1573 1.400 . S
C1573 C1567 1.491 1_455 S
C1573 C1572 1.400 . S
C1573 C1574 1.398 . S
C1574 H1562 0.950 . S
C1574 C1573 1.398 . S
C1574 C1575 1.391 . S
C1575 H1563 0.950 . S
C1575 C1571 1.393 . S
C1575 C1574 1.391 . S
H1576 C1584 0.950 . S
H1577 C1589 0.950 . S
H1578 C1586 0.950 1_554 S
H1579 C1588 0.950 . S
H1580 C1590 0.950 . S
H1581 C1592 0.950 1_556 S
H1582 C1594 0.950 . S
H1583 C1595 0.950 . S
C1584 H1576 0.950 . S
C1584 C1585 1.386 . S
C1584 C1586 1.391 . S
C1585 C1584 1.386 . S
C1585 C1589 1.393 . S
C1586 H1578 0.950 1_556 S
C1586 C1584 1.391 . S
C1586 C1587 1.400 . S
C1587 C1586 1.400 . S
C1587 C1588 1.398 . S
C1587 C1593 1.491 1_556 S
C1588 H1579 0.950 . S
C1588 C1587 1.398 . S
C1588 C1589 1.391 . S
C1589 H1577 0.950 . S
C1589 C1585 1.393 . S
C1589 C1588 1.391 . S
C1590 H1580 0.950 . S
C1590 C1591 1.386 . S
C1590 C1592 1.391 . S
C1591 C1590 1.386 . S
C1591 C1595 1.393 . S
C1592 H1581 0.950 1_554 S
C1592 C1590 1.391 . S
C1592 C1593 1.400 . S
C1593 C1587 1.491 1_554 S
C1593 C1592 1.400 . S
C1593 C1594 1.398 . S
C1594 H1582 0.950 . S
C1594 C1593 1.398 . S
C1594 C1595 1.391 . S
C1595 H1583 0.950 . S
C1595 C1591 1.393 . S
C1595 C1594 1.391 . S
H1596 C1604 0.950 . S
H1597 C1609 0.950 . S
H1598 C1606 0.950 . S
H1599 C1608 0.950 1_554 S
H1600 C1610 0.950 . S
H1601 C1612 0.950 . S
H1602 C1614 0.950 1_556 S
H1603 C1615 0.950 . S
C1604 H1596 0.950 . S
C1604 C1605 1.386 . S
C1604 C1606 1.391 . S
C1605 C1604 1.386 . S
C1605 C1609 1.393 . S
C1606 H1598 0.950 . S
C1606 C1604 1.391 . S
C1606 C1607 1.400 . S
C1607 C1606 1.400 . S
C1607 C1608 1.398 . S
C1607 C1613 1.491 1_556 S
C1608 H1599 0.950 1_556 S
C1608 C1607 1.398 . S
C1608 C1609 1.391 . S
C1609 H1597 0.950 . S
C1609 C1605 1.393 . S
C1609 C1608 1.391 . S
C1610 H1600 0.950 . S
C1610 C1611 1.386 . S
C1610 C1612 1.391 . S
C1611 C1610 1.386 . S
C1611 C1615 1.393 . S
C1612 H1601 0.950 . S
C1612 C1610 1.391 . S
C1612 C1613 1.400 . S
C1613 C1607 1.491 1_554 S
C1613 C1612 1.400 . S
C1613 C1614 1.398 . S
C1614 H1602 0.950 1_554 S
C1614 C1613 1.398 . S
C1614 C1615 1.391 . S
C1615 H1603 0.950 . S
C1615 C1611 1.393 . S
C1615 C1614 1.391 . S
H1616 C1624 0.950 . S
H1617 C1629 0.950 . S
H1618 C1626 0.950 . S
H1619 C1628 0.950 . S
H1620 C1630 0.950 . S
H1621 C1632 0.950 . S
H1622 C1634 0.950 . S
H1623 C1635 0.950 . S
C1624 H1616 0.950 . S
C1624 C1625 1.386 . S
C1624 C1626 1.391 . S
C1625 C1624 1.386 . S
C1625 C1629 1.393 . S
C1626 H1618 0.950 . S
C1626 C1624 1.391 . S
C1626 C1627 1.400 . S
C1627 C1626 1.400 . S
C1627 C1628 1.398 . S
C1627 C1633 1.491 1_556 S
C1628 H1619 0.950 . S
C1628 C1627 1.398 . S
C1628 C1629 1.391 . S
C1629 H1617 0.950 . S
C1629 C1625 1.393 . S
C1629 C1628 1.391 . S
C1630 H1620 0.950 . S
C1630 C1631 1.386 . S
C1630 C1632 1.391 . S
C1631 C1630 1.386 . S
C1631 C1635 1.393 . S
C1632 H1621 0.950 . S
C1632 C1630 1.391 . S
C1632 C1633 1.400 . S
C1633 C1627 1.491 1_554 S
C1633 C1632 1.400 . S
C1633 C1634 1.398 . S
C1634 H1622 0.950 . S
C1634 C1633 1.398 . S
C1634 C1635 1.391 . S
C1635 H1623 0.950 . S
C1635 C1631 1.393 . S
C1635 C1634 1.391 . S
H1636 C1644 0.950 . S
H1637 C1649 0.950 . S
H1638 C1646 0.950 . S
H1639 C1648 0.950 1_554 S
H1640 C1650 0.950 . S
H1641 C1652 0.950 . S
H1642 C1654 0.950 1_556 S
H1643 C1655 0.950 . S
C1644 H1636 0.950 . S
C1644 C1645 1.386 . S
C1644 C1646 1.391 . S
C1645 C1644 1.386 . S
C1645 C1649 1.393 . S
C1646 H1638 0.950 . S
C1646 C1644 1.391 . S
C1646 C1647 1.400 . S
C1647 C1646 1.400 . S
C1647 C1648 1.398 . S
C1647 C1653 1.491 1_556 S
C1648 H1639 0.950 1_556 S
C1648 C1647 1.398 . S
C1648 C1649 1.391 . S
C1649 H1637 0.950 . S
C1649 C1645 1.393 . S
C1649 C1648 1.391 . S
C1650 H1640 0.950 . S
C1650 C1651 1.386 . S
C1650 C1652 1.391 . S
C1651 C1650 1.386 . S
C1651 C1655 1.393 . S
C1652 H1641 0.950 . S
C1652 C1650 1.391 . S
C1652 C1653 1.400 . S
C1653 C1647 1.491 1_554 S
C1653 C1652 1.400 . S
C1653 C1654 1.398 . S
C1654 H1642 0.950 1_554 S
C1654 C1653 1.398 . S
C1654 C1655 1.391 . S
C1655 H1643 0.950 . S
C1655 C1651 1.393 . S
C1655 C1654 1.391 . S
H1656 C1664 0.950 . S
H1657 C1669 0.950 . S
H1658 C1666 0.950 . S
H1659 C1668 0.950 . S
H1660 C1670 0.950 . S
H1661 C1672 0.950 . S
H1662 C1674 0.950 . S
H1663 C1675 0.950 . S
C1664 H1656 0.950 . S
C1664 C1665 1.386 . S
C1664 C1666 1.391 . S
C1665 C1664 1.386 . S
C1665 C1669 1.393 . S
C1666 H1658 0.950 . S
C1666 C1664 1.391 . S
C1666 C1667 1.400 . S
C1667 C1666 1.400 . S
C1667 C1668 1.398 . S
C1667 C1673 1.491 . S
C1668 H1659 0.950 . S
C1668 C1667 1.398 . S
C1668 C1669 1.391 . S
C1669 H1657 0.950 . S
C1669 C1665 1.393 . S
C1669 C1668 1.391 . S
C1670 H1660 0.950 . S
C1670 C1671 1.386 . S
C1670 C1672 1.391 . S
C1671 C1670 1.386 . S
C1671 C1675 1.393 . S
C1672 H1661 0.950 . S
C1672 C1670 1.391 . S
C1672 C1673 1.400 . S
C1673 C1667 1.491 . S
C1673 C1672 1.400 . S
C1673 C1674 1.398 . S
C1674 H1662 0.950 . S
C1674 C1673 1.398 . S
C1674 C1675 1.391 . S
C1675 H1663 0.950 . S
C1675 C1671 1.393 . S
C1675 C1674 1.391 . S
H1676 C1684 0.950 . S
H1677 C1689 0.950 . S
H1678 C1686 0.950 . S
H1679 C1688 0.950 . S
H1680 C1690 0.950 . S
H1681 C1692 0.950 . S
H1682 C1694 0.950 . S
H1683 C1695 0.950 . S
C1684 H1676 0.950 . S
C1684 C1685 1.386 . S
C1684 C1686 1.391 . S
C1685 C1684 1.386 . S
C1685 C1689 1.393 . S
C1686 H1678 0.950 . S
C1686 C1684 1.391 . S
C1686 C1687 1.400 . S
C1687 C1686 1.400 . S
C1687 C1688 1.398 . S
C1687 C1693 1.491 . S
C1688 H1679 0.950 . S
C1688 C1687 1.398 . S
C1688 C1689 1.391 . S
C1689 H1677 0.950 . S
C1689 C1685 1.393 . S
C1689 C1688 1.391 . S
C1690 H1680 0.950 . S
C1690 C1691 1.386 . S
C1690 C1692 1.391 . S
C1691 C1690 1.386 . S
C1691 C1695 1.393 . S
C1692 H1681 0.950 . S
C1692 C1690 1.391 . S
C1692 C1693 1.400 . S
C1693 C1687 1.491 . S
C1693 C1692 1.400 . S
C1693 C1694 1.398 . S
C1694 H1682 0.950 . S
C1694 C1693 1.398 . S
C1694 C1695 1.391 . S
C1695 H1683 0.950 . S
C1695 C1691 1.393 . S
C1695 C1694 1.391 . S
H1696 C1704 0.950 . S
H1697 C1709 0.950 . S
H1698 C1706 0.950 . S
H1699 C1708 0.950 . S
H1700 C1710 0.950 . S
H1701 C1712 0.950 . S
H1702 C1714 0.950 . S
H1703 C1715 0.950 . S
C1704 H1696 0.950 . S
C1704 C1705 1.386 . S
C1704 C1706 1.391 . S
C1705 C1704 1.386 . S
C1705 C1709 1.393 . S
C1706 H1698 0.950 . S
C1706 C1704 1.391 . S
C1706 C1707 1.400 . S
C1707 C1706 1.400 . S
C1707 C1708 1.398 . S
C1707 C1713 1.491 . S
C1708 H1699 0.950 . S
C1708 C1707 1.398 . S
C1708 C1709 1.391 . S
C1709 H1697 0.950 . S
C1709 C1705 1.393 . S
C1709 C1708 1.391 . S
C1710 H1700 0.950 . S
C1710 C1711 1.386 . S
C1710 C1712 1.391 . S
C1711 C1710 1.386 . S
C1711 C1715 1.393 . S
C1712 H1701 0.950 . S
C1712 C1710 1.391 . S
C1712 C1713 1.400 . S
C1713 C1707 1.491 . S
C1713 C1712 1.400 . S
C1713 C1714 1.398 . S
C1714 H1702 0.950 . S
C1714 C1713 1.398 . S
C1714 C1715 1.391 . S
C1715 H1703 0.950 . S
C1715 C1711 1.393 . S
C1715 C1714 1.391 . S
H1716 C1724 0.950 . S
H1717 C1729 0.950 . S
H1718 C1726 0.950 . S
H1719 C1728 0.950 . S
H1720 C1730 0.950 . S
H1721 C1732 0.950 . S
H1722 C1734 0.950 . S
H1723 C1735 0.950 . S
C1724 H1716 0.950 . S
C1724 C1725 1.386 . S
C1724 C1726 1.391 . S
C1725 C1724 1.386 . S
C1725 C1729 1.393 . S
C1726 H1718 0.950 . S
C1726 C1724 1.391 . S
C1726 C1727 1.400 . S
C1727 C1726 1.400 . S
C1727 C1728 1.398 . S
C1727 C1733 1.491 . S
C1728 H1719 0.950 . S
C1728 C1727 1.398 . S
C1728 C1729 1.391 . S
C1729 H1717 0.950 . S
C1729 C1725 1.393 . S
C1729 C1728 1.391 . S
C1730 H1720 0.950 . S
C1730 C1731 1.386 . S
C1730 C1732 1.391 . S
C1731 C1730 1.386 . S
C1731 C1735 1.393 . S
C1732 H1721 0.950 . S
C1732 C1730 1.391 . S
C1732 C1733 1.400 . S
C1733 C1727 1.491 . S
C1733 C1732 1.400 . S
C1733 C1734 1.398 . S
C1734 H1722 0.950 . S
C1734 C1733 1.398 . S
C1734 C1735 1.391 . S
C1735 H1723 0.950 . S
C1735 C1731 1.393 . S
C1735 C1734 1.391 . S
H1736 C1744 0.950 . S
H1737 C1749 0.950 . S
H1738 C1746 0.950 . S
H1739 C1748 0.950 . S
H1740 C1750 0.950 . S
H1741 C1752 0.950 . S
H1742 C1754 0.950 . S
H1743 C1755 0.950 . S
C1744 H1736 0.950 . S
C1744 C1745 1.386 . S
C1744 C1746 1.391 . S
C1745 C1744 1.386 . S
C1745 C1749 1.393 . S
C1746 H1738 0.950 . S
C1746 C1744 1.391 . S
C1746 C1747 1.400 . S
C1747 C1746 1.400 . S
C1747 C1748 1.398 . S
C1747 C1753 1.491 . S
C1748 H1739 0.950 . S
C1748 C1747 1.398 . S
C1748 C1749 1.391 . S
C1749 H1737 0.950 . S
C1749 C1745 1.393 . S
C1749 C1748 1.391 . S
C1750 H1740 0.950 . S
C1750 C1751 1.386 . S
C1750 C1752 1.391 . S
C1751 C1750 1.386 . S
C1751 C1755 1.393 . S
C1752 H1741 0.950 . S
C1752 C1750 1.391 . S
C1752 C1753 1.400 . S
C1753 C1747 1.491 . S
C1753 C1752 1.400 . S
C1753 C1754 1.398 . S
C1754 H1742 0.950 . S
C1754 C1753 1.398 . S
C1754 C1755 1.391 . S
C1755 H1743 0.950 . S
C1755 C1751 1.393 . S
C1755 C1754 1.391 . S
H1756 C1764 0.950 . S
H1757 C1769 0.950 . S
H1758 C1766 0.950 . S
H1759 C1768 0.950 . S
H1760 C1770 0.950 . S
H1761 C1772 0.950 . S
H1762 C1774 0.950 . S
H1763 C1775 0.950 . S
C1764 H1756 0.950 . S
C1764 C1765 1.386 . S
C1764 C1766 1.391 . S
C1765 C1764 1.386 . S
C1765 C1769 1.393 . S
C1766 H1758 0.950 . S
C1766 C1764 1.391 . S
C1766 C1767 1.400 . S
C1767 C1766 1.400 . S
C1767 C1768 1.398 . S
C1767 C1773 1.491 . S
C1768 H1759 0.950 . S
C1768 C1767 1.398 . S
C1768 C1769 1.391 . S
C1769 H1757 0.950 . S
C1769 C1765 1.393 . S
C1769 C1768 1.391 . S
C1770 H1760 0.950 . S
C1770 C1771 1.386 . S
C1770 C1772 1.391 . S
C1771 C1770 1.386 . S
C1771 C1775 1.393 . S
C1772 H1761 0.950 . S
C1772 C1770 1.391 . S
C1772 C1773 1.400 . S
C1773 C1767 1.491 . S
C1773 C1772 1.400 . S
C1773 C1774 1.398 . S
C1774 H1762 0.950 . S
C1774 C1773 1.398 . S
C1774 C1775 1.391 . S
C1775 H1763 0.950 . S
C1775 C1771 1.393 . S
C1775 C1774 1.391 . S
H1776 C1784 0.950 . S
H1777 C1789 0.950 . S
H1778 C1786 0.950 . S
H1779 C1788 0.950 . S
H1780 C1790 0.950 . S
H1781 C1792 0.950 . S
H1782 C1794 0.950 . S
H1783 C1795 0.950 . S
C1784 H1776 0.950 . S
C1784 C1785 1.386 . S
C1784 C1786 1.391 . S
C1785 C1784 1.386 . S
C1785 C1789 1.393 . S
C1786 H1778 0.950 . S
C1786 C1784 1.391 . S
C1786 C1787 1.400 . S
C1787 C1786 1.400 . S
C1787 C1788 1.398 . S
C1787 C1793 1.491 . S
C1788 H1779 0.950 . S
C1788 C1787 1.398 . S
C1788 C1789 1.391 . S
C1789 H1777 0.950 . S
C1789 C1785 1.393 . S
C1789 C1788 1.391 . S
C1790 H1780 0.950 . S
C1790 C1791 1.386 . S
C1790 C1792 1.391 . S
C1791 C1790 1.386 . S
C1791 C1795 1.393 . S
C1792 H1781 0.950 . S
C1792 C1790 1.391 . S
C1792 C1793 1.400 . S
C1793 C1787 1.491 . S
C1793 C1792 1.400 . S
C1793 C1794 1.398 . S
C1794 H1782 0.950 . S
C1794 C1793 1.398 . S
C1794 C1795 1.391 . S
C1795 H1783 0.950 . S
C1795 C1791 1.393 . S
C1795 C1794 1.391 . S
H1796 C1804 0.950 . S
H1797 C1809 0.950 . S
H1798 C1806 0.950 . S
H1799 C1808 0.950 . S
H1800 C1810 0.950 . S
H1801 C1812 0.950 . S
H1802 C1814 0.950 . S
H1803 C1815 0.950 . S
C1804 H1796 0.950 . S
C1804 C1805 1.386 . S
C1804 C1806 1.391 . S
C1805 C1804 1.386 . S
C1805 C1809 1.393 . S
C1806 H1798 0.950 . S
C1806 C1804 1.391 . S
C1806 C1807 1.400 . S
C1807 C1806 1.400 . S
C1807 C1808 1.398 . S
C1807 C1813 1.491 . S
C1808 H1799 0.950 . S
C1808 C1807 1.398 . S
C1808 C1809 1.391 . S
C1809 H1797 0.950 . S
C1809 C1805 1.393 . S
C1809 C1808 1.391 . S
C1810 H1800 0.950 . S
C1810 C1811 1.386 . S
C1810 C1812 1.391 . S
C1811 C1810 1.386 . S
C1811 C1815 1.393 . S
C1812 H1801 0.950 . S
C1812 C1810 1.391 . S
C1812 C1813 1.400 . S
C1813 C1807 1.491 . S
C1813 C1812 1.400 . S
C1813 C1814 1.398 . S
C1814 H1802 0.950 . S
C1814 C1813 1.398 . S
C1814 C1815 1.391 . S
C1815 H1803 0.950 . S
C1815 C1811 1.393 . S
C1815 C1814 1.391 . S
H1816 C1824 0.950 . S
H1817 C1829 0.950 . S
H1818 C1826 0.950 . S
H1819 C1828 0.950 . S
H1820 C1830 0.950 . S
H1821 C1832 0.950 . S
H1822 C1834 0.950 . S
H1823 C1835 0.950 . S
C1824 H1816 0.950 . S
C1824 C1825 1.386 . S
C1824 C1826 1.391 . S
C1825 C1824 1.386 . S
C1825 C1829 1.393 . S
C1826 H1818 0.950 . S
C1826 C1824 1.391 . S
C1826 C1827 1.400 . S
C1827 C1826 1.400 . S
C1827 C1828 1.398 . S
C1827 C1833 1.491 . S
C1828 H1819 0.950 . S
C1828 C1827 1.398 . S
C1828 C1829 1.391 . S
C1829 H1817 0.950 . S
C1829 C1825 1.393 . S
C1829 C1828 1.391 . S
C1830 H1820 0.950 . S
C1830 C1831 1.386 . S
C1830 C1832 1.391 . S
C1831 C1830 1.386 . S
C1831 C1835 1.393 . S
C1832 H1821 0.950 . S
C1832 C1830 1.391 . S
C1832 C1833 1.400 . S
C1833 C1827 1.491 . S
C1833 C1832 1.400 . S
C1833 C1834 1.398 . S
C1834 H1822 0.950 . S
C1834 C1833 1.398 . S
C1834 C1835 1.391 . S
C1835 H1823 0.950 . S
C1835 C1831 1.393 . S
C1835 C1834 1.391 . S
H1836 C1844 0.950 . S
H1837 C1849 0.950 . S
H1838 C1846 0.950 . S
H1839 C1848 0.950 . S
H1840 C1850 0.950 . S
H1841 C1852 0.950 . S
H1842 C1854 0.950 . S
H1843 C1855 0.950 . S
C1844 H1836 0.950 . S
C1844 C1845 1.386 . S
C1844 C1846 1.391 . S
C1845 C1844 1.386 . S
C1845 C1849 1.393 . S
C1846 H1838 0.950 . S
C1846 C1844 1.391 . S
C1846 C1847 1.400 . S
C1847 C1846 1.400 . S
C1847 C1848 1.398 . S
C1847 C1853 1.491 . S
C1848 H1839 0.950 . S
C1848 C1847 1.398 . S
C1848 C1849 1.391 . S
C1849 H1837 0.950 . S
C1849 C1845 1.393 . S
C1849 C1848 1.391 . S
C1850 H1840 0.950 . S
C1850 C1851 1.386 . S
C1850 C1852 1.391 . S
C1851 C1850 1.386 . S
C1851 C1855 1.393 . S
C1852 H1841 0.950 . S
C1852 C1850 1.391 . S
C1852 C1853 1.400 . S
C1853 C1847 1.491 . S
C1853 C1852 1.400 . S
C1853 C1854 1.398 . S
C1854 H1842 0.950 . S
C1854 C1853 1.398 . S
C1854 C1855 1.391 . S
C1855 H1843 0.950 . S
C1855 C1851 1.393 . S
C1855 C1854 1.391 . S
H1856 C1864 0.950 . S
H1857 C1869 0.950 . S
H1858 C1866 0.950 . S
H1859 C1868 0.950 . S
H1860 C1870 0.950 . S
H1861 C1872 0.950 . S
H1862 C1874 0.950 . S
H1863 C1875 0.950 . S
C1864 H1856 0.950 . S
C1864 C1865 1.386 . S
C1864 C1866 1.391 . S
C1865 C1864 1.386 . S
C1865 C1869 1.393 . S
C1866 H1858 0.950 . S
C1866 C1864 1.391 . S
C1866 C1867 1.400 . S
C1867 C1866 1.400 . S
C1867 C1868 1.398 . S
C1867 C1873 1.491 . S
C1868 H1859 0.950 . S
C1868 C1867 1.398 . S
C1868 C1869 1.391 . S
C1869 H1857 0.950 . S
C1869 C1865 1.393 . S
C1869 C1868 1.391 . S
C1870 H1860 0.950 . S
C1870 C1871 1.386 . S
C1870 C1872 1.391 . S
C1871 C1870 1.386 . S
C1871 C1875 1.393 . S
C1872 H1861 0.950 . S
C1872 C1870 1.391 . S
C1872 C1873 1.400 . S
C1873 C1867 1.491 . S
C1873 C1872 1.400 . S
C1873 C1874 1.398 . S
C1874 H1862 0.950 . S
C1874 C1873 1.398 . S
C1874 C1875 1.391 . S
C1875 H1863 0.950 . S
C1875 C1871 1.393 . S
C1875 C1874 1.391 . S
H1876 C1884 0.950 . S
H1877 C1889 0.950 . S
H1878 C1886 0.950 . S
H1879 C1888 0.950 . S
H1880 C1890 0.950 . S
H1881 C1892 0.950 . S
H1882 C1894 0.950 . S
H1883 C1895 0.950 . S
C1884 H1876 0.950 . S
C1884 C1885 1.386 . S
C1884 C1886 1.391 . S
C1885 C1884 1.386 . S
C1885 C1889 1.393 . S
C1886 H1878 0.950 . S
C1886 C1884 1.391 . S
C1886 C1887 1.400 . S
C1887 C1886 1.400 . S
C1887 C1888 1.398 . S
C1887 C1893 1.491 . S
C1888 H1879 0.950 . S
C1888 C1887 1.398 . S
C1888 C1889 1.391 . S
C1889 H1877 0.950 . S
C1889 C1885 1.393 . S
C1889 C1888 1.391 . S
C1890 H1880 0.950 . S
C1890 C1891 1.386 . S
C1890 C1892 1.391 . S
C1891 C1890 1.386 . S
C1891 C1895 1.393 . S
C1892 H1881 0.950 . S
C1892 C1890 1.391 . S
C1892 C1893 1.400 . S
C1893 C1887 1.491 . S
C1893 C1892 1.400 . S
C1893 C1894 1.398 . S
C1894 H1882 0.950 . S
C1894 C1893 1.398 . S
C1894 C1895 1.391 . S
C1895 H1883 0.950 . S
C1895 C1891 1.393 . S
C1895 C1894 1.391 . S
H1896 C1904 0.950 . S
H1897 C1909 0.950 . S
H1898 C1906 0.950 . S
H1899 C1908 0.950 . S
H1900 C1910 0.950 . S
H1901 C1912 0.950 . S
H1902 C1914 0.950 . S
H1903 C1915 0.950 . S
C1904 H1896 0.950 . S
C1904 C1905 1.386 . S
C1904 C1906 1.391 . S
C1905 C1904 1.386 . S
C1905 C1909 1.393 . S
C1906 H1898 0.950 . S
C1906 C1904 1.391 . S
C1906 C1907 1.400 . S
C1907 C1906 1.400 . S
C1907 C1908 1.398 . S
C1907 C1913 1.491 . S
C1908 H1899 0.950 . S
C1908 C1907 1.398 . S
C1908 C1909 1.391 . S
C1909 H1897 0.950 . S
C1909 C1905 1.393 . S
C1909 C1908 1.391 . S
C1910 H1900 0.950 . S
C1910 C1911 1.386 . S
C1910 C1912 1.391 . S
C1911 C1910 1.386 . S
C1911 C1915 1.393 . S
C1912 H1901 0.950 . S
C1912 C1910 1.391 . S
C1912 C1913 1.400 . S
C1913 C1907 1.491 . S
C1913 C1912 1.400 . S
C1913 C1914 1.398 . S
C1914 H1902 0.950 . S
C1914 C1913 1.398 . S
C1914 C1915 1.391 . S
C1915 H1903 0.950 . S
C1915 C1911 1.393 . S
C1915 C1914 1.391 . S
H1916 C1924 0.950 . S
H1917 C1929 0.950 . S
H1918 C1926 0.950 . S
H1919 C1928 0.950 . S
H1920 C1930 0.950 . S
H1921 C1932 0.950 . S
H1922 C1934 0.950 . S
H1923 C1935 0.950 . S
C1924 H1916 0.950 . S
C1924 C1925 1.386 . S
C1924 C1926 1.391 . S
C1925 C1924 1.386 . S
C1925 C1929 1.393 . S
C1926 H1918 0.950 . S
C1926 C1924 1.391 . S
C1926 C1927 1.400 . S
C1927 C1926 1.400 . S
C1927 C1928 1.398 . S
C1927 C1933 1.491 . S
C1928 H1919 0.950 . S
C1928 C1927 1.398 . S
C1928 C1929 1.391 . S
C1929 H1917 0.950 . S
C1929 C1925 1.393 . S
C1929 C1928 1.391 . S
C1930 H1920 0.950 . S
C1930 C1931 1.386 . S
C1930 C1932 1.391 . S
C1931 C1930 1.386 . S
C1931 C1935 1.393 . S
C1932 H1921 0.950 . S
C1932 C1930 1.391 . S
C1932 C1933 1.400 . S
C1933 C1927 1.491 . S
C1933 C1932 1.400 . S
C1933 C1934 1.398 . S
C1934 H1922 0.950 . S
C1934 C1933 1.398 . S
C1934 C1935 1.391 . S
C1935 H1923 0.950 . S
C1935 C1931 1.393 . S
C1935 C1934 1.391 . S
H1936 C1944 0.950 . S
H1937 C1949 0.950 . S
H1938 C1946 0.950 . S
H1939 C1948 0.950 . S
H1940 C1950 0.950 . S
H1941 C1952 0.950 . S
H1942 C1954 0.950 . S
H1943 C1955 0.950 . S
C1944 H1936 0.950 . S
C1944 C1945 1.386 . S
C1944 C1946 1.391 . S
C1945 C1944 1.386 . S
C1945 C1949 1.393 . S
C1946 H1938 0.950 . S
C1946 C1944 1.391 . S
C1946 C1947 1.400 . S
C1947 C1946 1.400 . S
C1947 C1948 1.398 . S
C1947 C1953 1.491 . S
C1948 H1939 0.950 . S
C1948 C1947 1.398 . S
C1948 C1949 1.391 . S
C1949 H1937 0.950 . S
C1949 C1945 1.393 . S
C1949 C1948 1.391 . S
C1950 H1940 0.950 . S
C1950 C1951 1.386 . S
C1950 C1952 1.391 . S
C1951 C1950 1.386 . S
C1951 C1955 1.393 . S
C1952 H1941 0.950 . S
C1952 C1950 1.391 . S
C1952 C1953 1.400 . S
C1953 C1947 1.491 . S
C1953 C1952 1.400 . S
C1953 C1954 1.398 . S
C1954 H1942 0.950 . S
C1954 C1953 1.398 . S
C1954 C1955 1.391 . S
C1955 H1943 0.950 . S
C1955 C1951 1.393 . S
C1955 C1954 1.391 . S
H1956 C1964 0.950 . S
H1957 C1969 0.950 . S
H1958 C1966 0.950 . S
H1959 C1968 0.950 . S
H1960 C1970 0.950 . S
H1961 C1972 0.950 . S
H1962 C1974 0.950 . S
H1963 C1975 0.950 . S
C1964 H1956 0.950 . S
C1964 C1965 1.386 . S
C1964 C1966 1.391 . S
C1965 C1964 1.386 . S
C1965 C1969 1.393 . S
C1966 H1958 0.950 . S
C1966 C1964 1.391 . S
C1966 C1967 1.400 . S
C1967 C1966 1.400 . S
C1967 C1968 1.398 . S
C1967 C1973 1.491 . S
C1968 H1959 0.950 . S
C1968 C1967 1.398 . S
C1968 C1969 1.391 . S
C1969 H1957 0.950 . S
C1969 C1965 1.393 . S
C1969 C1968 1.391 . S
C1970 H1960 0.950 . S
C1970 C1971 1.386 . S
C1970 C1972 1.391 . S
C1971 C1970 1.386 . S
C1971 C1975 1.393 . S
C1972 H1961 0.950 . S
C1972 C1970 1.391 . S
C1972 C1973 1.400 . S
C1973 C1967 1.491 . S
C1973 C1972 1.400 . S
C1973 C1974 1.398 . S
C1974 H1962 0.950 . S
C1974 C1973 1.398 . S
C1974 C1975 1.391 . S
C1975 H1963 0.950 . S
C1975 C1971 1.393 . S
C1975 C1974 1.391 . S
H1976 C1984 0.950 . S
H1977 C1989 0.950 . S
H1978 C1986 0.950 . S
H1979 C1988 0.950 . S
H1980 C1990 0.950 . S
H1981 C1992 0.950 . S
H1982 C1994 0.950 . S
H1983 C1995 0.950 . S
C1984 H1976 0.950 . S
C1984 C1985 1.386 . S
C1984 C1986 1.391 . S
C1985 C1984 1.386 . S
C1985 C1989 1.393 . S
C1986 H1978 0.950 . S
C1986 C1984 1.391 . S
C1986 C1987 1.400 . S
C1987 C1986 1.400 . S
C1987 C1988 1.398 . S
C1987 C1993 1.491 . S
C1988 H1979 0.950 . S
C1988 C1987 1.398 . S
C1988 C1989 1.391 . S
C1989 H1977 0.950 . S
C1989 C1985 1.393 . S
C1989 C1988 1.391 . S
C1990 H1980 0.950 . S
C1990 C1991 1.386 . S
C1990 C1992 1.391 . S
C1991 C1990 1.386 . S
C1991 C1995 1.393 . S
C1992 H1981 0.950 . S
C1992 C1990 1.391 . S
C1992 C1993 1.400 . S
C1993 C1987 1.491 . S
C1993 C1992 1.400 . S
C1993 C1994 1.398 . S
C1994 H1982 0.950 . S
C1994 C1993 1.398 . S
C1994 C1995 1.391 . S
C1995 H1983 0.950 . S
C1995 C1991 1.393 . S
C1995 C1994 1.391 . S
H1996 C2004 0.950 . S
H1997 C2009 0.950 . S
H1998 C2006 0.950 . S
H1999 C2008 0.950 . S
H2000 C2010 0.950 . S
H2001 C2012 0.950 . S
H2002 C2014 0.950 . S
H2003 C2015 0.950 . S
C2004 H1996 0.950 . S
C2004 C2005 1.386 . S
C2004 C2006 1.391 . S
C2005 C2004 1.386 . S
C2005 C2009 1.393 . S
C2006 H1998 0.950 . S
C2006 C2004 1.391 . S
C2006 C2007 1.400 . S
C2007 C2006 1.400 . S
C2007 C2008 1.398 . S
C2007 C2013 1.491 . S
C2008 H1999 0.950 . S
C2008 C2007 1.398 . S
C2008 C2009 1.391 . S
C2009 H1997 0.950 . S
C2009 C2005 1.393 . S
C2009 C2008 1.391 . S
C2010 H2000 0.950 . S
C2010 C2011 1.386 . S
C2010 C2012 1.391 . S
C2011 C2010 1.386 . S
C2011 C2015 1.393 . S
C2012 H2001 0.950 . S
C2012 C2010 1.391 . S
C2012 C2013 1.400 . S
C2013 C2007 1.491 . S
C2013 C2012 1.400 . S
C2013 C2014 1.398 . S
C2014 H2002 0.950 . S
C2014 C2013 1.398 . S
C2014 C2015 1.391 . S
C2015 H2003 0.950 . S
C2015 C2011 1.393 . S
C2015 C2014 1.391 . S
H2016 C2024 0.950 . S
H2017 C2029 0.950 . S
H2018 C2026 0.950 . S
H2019 C2028 0.950 . S
H2020 C2030 0.950 . S
H2021 C2032 0.950 . S
H2022 C2034 0.950 . S
H2023 C2035 0.950 . S
C2024 H2016 0.950 . S
C2024 C2025 1.386 . S
C2024 C2026 1.391 . S
C2025 C2024 1.386 . S
C2025 C2029 1.393 . S
C2026 H2018 0.950 . S
C2026 C2024 1.391 . S
C2026 C2027 1.400 . S
C2027 C2026 1.400 . S
C2027 C2028 1.398 . S
C2027 C2033 1.491 . S
C2028 H2019 0.950 . S
C2028 C2027 1.398 . S
C2028 C2029 1.391 . S
C2029 H2017 0.950 . S
C2029 C2025 1.393 . S
C2029 C2028 1.391 . S
C2030 H2020 0.950 . S
C2030 C2031 1.386 . S
C2030 C2032 1.391 . S
C2031 C2030 1.386 . S
C2031 C2035 1.393 . S
C2032 H2021 0.950 . S
C2032 C2030 1.391 . S
C2032 C2033 1.400 . S
C2033 C2027 1.491 . S
C2033 C2032 1.400 . S
C2033 C2034 1.398 . S
C2034 H2022 0.950 . S
C2034 C2033 1.398 . S
C2034 C2035 1.391 . S
C2035 H2023 0.950 . S
C2035 C2031 1.393 . S
C2035 C2034 1.391 . S
H2036 C2044 0.950 . S
H2037 C2049 0.950 . S
H2038 C2046 0.950 . S
H2039 C2048 0.950 . S
H2040 C2050 0.950 . S
H2041 C2052 0.950 . S
H2042 C2054 0.950 . S
H2043 C2055 0.950 . S
C2044 H2036 0.950 . S
C2044 C2045 1.386 . S
C2044 C2046 1.391 . S
C2045 C2044 1.386 . S
C2045 C2049 1.393 . S
C2046 H2038 0.950 . S
C2046 C2044 1.391 . S
C2046 C2047 1.400 . S
C2047 C2046 1.400 . S
C2047 C2048 1.398 . S
C2047 C2053 1.491 . S
C2048 H2039 0.950 . S
C2048 C2047 1.398 . S
C2048 C2049 1.391 . S
C2049 H2037 0.950 . S
C2049 C2045 1.393 . S
C2049 C2048 1.391 . S
C2050 H2040 0.950 . S
C2050 C2051 1.386 . S
C2050 C2052 1.391 . S
C2051 C2050 1.386 . S
C2051 C2055 1.393 . S
C2052 H2041 0.950 . S
C2052 C2050 1.391 . S
C2052 C2053 1.400 . S
C2053 C2047 1.491 . S
C2053 C2052 1.400 . S
C2053 C2054 1.398 . S
C2054 H2042 0.950 . S
C2054 C2053 1.398 . S
C2054 C2055 1.391 . S
C2055 H2043 0.950 . S
C2055 C2051 1.393 . S
C2055 C2054 1.391 . S
H2056 C2064 0.950 . S
H2057 C2069 0.950 . S
H2058 C2066 0.950 . S
H2059 C2068 0.950 . S
H2060 C2070 0.950 . S
H2061 C2072 0.950 . S
H2062 C2074 0.950 . S
H2063 C2075 0.950 . S
C2064 H2056 0.950 . S
C2064 C2065 1.386 . S
C2064 C2066 1.391 . S
C2065 C2064 1.386 . S
C2065 C2069 1.393 . S
C2066 H2058 0.950 . S
C2066 C2064 1.391 . S
C2066 C2067 1.400 . S
C2067 C2066 1.400 . S
C2067 C2068 1.398 . S
C2067 C2073 1.491 . S
C2068 H2059 0.950 . S
C2068 C2067 1.398 . S
C2068 C2069 1.391 . S
C2069 H2057 0.950 . S
C2069 C2065 1.393 . S
C2069 C2068 1.391 . S
C2070 H2060 0.950 . S
C2070 C2071 1.386 . S
C2070 C2072 1.391 . S
C2071 C2070 1.386 . S
C2071 C2075 1.393 . S
C2072 H2061 0.950 . S
C2072 C2070 1.391 . S
C2072 C2073 1.400 . S
C2073 C2067 1.491 . S
C2073 C2072 1.400 . S
C2073 C2074 1.398 . S
C2074 H2062 0.950 . S
C2074 C2073 1.398 . S
C2074 C2075 1.391 . S
C2075 H2063 0.950 . S
C2075 C2071 1.393 . S
C2075 C2074 1.391 . S
H2076 C2084 0.950 . S
H2077 C2089 0.950 . S
H2078 C2086 0.950 . S
H2079 C2088 0.950 . S
H2080 C2090 0.950 . S
H2081 C2092 0.950 . S
H2082 C2094 0.950 . S
H2083 C2095 0.950 . S
C2084 H2076 0.950 . S
C2084 C2085 1.386 . S
C2084 C2086 1.391 . S
C2085 C2084 1.386 . S
C2085 C2089 1.393 . S
C2086 H2078 0.950 . S
C2086 C2084 1.391 . S
C2086 C2087 1.400 . S
C2087 C2086 1.400 . S
C2087 C2088 1.398 . S
C2087 C2093 1.491 . S
C2088 H2079 0.950 . S
C2088 C2087 1.398 . S
C2088 C2089 1.391 . S
C2089 H2077 0.950 . S
C2089 C2085 1.393 . S
C2089 C2088 1.391 . S
C2090 H2080 0.950 . S
C2090 C2091 1.386 . S
C2090 C2092 1.391 . S
C2091 C2090 1.386 . S
C2091 C2095 1.393 . S
C2092 H2081 0.950 . S
C2092 C2090 1.391 . S
C2092 C2093 1.400 . S
C2093 C2087 1.491 . S
C2093 C2092 1.400 . S
C2093 C2094 1.398 . S
C2094 H2082 0.950 . S
C2094 C2093 1.398 . S
C2094 C2095 1.391 . S
C2095 H2083 0.950 . S
C2095 C2091 1.393 . S
C2095 C2094 1.391 . S
H2096 C2104 0.950 . S
H2097 C2109 0.950 . S
H2098 C2106 0.950 . S
H2099 C2108 0.950 . S
H2100 C2110 0.950 . S
H2101 C2112 0.950 . S
H2102 C2114 0.950 . S
H2103 C2115 0.950 . S
C2104 H2096 0.950 . S
C2104 C2105 1.386 . S
C2104 C2106 1.391 . S
C2105 C2104 1.386 . S
C2105 C2109 1.393 . S
C2106 H2098 0.950 . S
C2106 C2104 1.391 . S
C2106 C2107 1.400 . S
C2107 C2106 1.400 . S
C2107 C2108 1.398 . S
C2107 C2113 1.491 . S
C2108 H2099 0.950 . S
C2108 C2107 1.398 . S
C2108 C2109 1.391 . S
C2109 H2097 0.950 . S
C2109 C2105 1.393 . S
C2109 C2108 1.391 . S
C2110 H2100 0.950 . S
C2110 C2111 1.386 . S
C2110 C2112 1.391 . S
C2111 C2110 1.386 . S
C2111 C2115 1.393 . S
C2112 H2101 0.950 . S
C2112 C2110 1.391 . S
C2112 C2113 1.400 . S
C2113 C2107 1.491 . S
C2113 C2112 1.400 . S
C2113 C2114 1.398 . S
C2114 H2102 0.950 . S
C2114 C2113 1.398 . S
C2114 C2115 1.391 . S
C2115 H2103 0.950 . S
C2115 C2111 1.393 . S
C2115 C2114 1.391 . S
H2116 C2124 0.950 . S
H2117 C2129 0.950 . S
H2118 C2126 0.950 . S
H2119 C2128 0.950 . S
H2120 C2130 0.950 . S
H2121 C2132 0.950 . S
H2122 C2134 0.950 . S
H2123 C2135 0.950 . S
C2124 H2116 0.950 . S
C2124 C2125 1.386 . S
C2124 C2126 1.391 . S
C2125 C2124 1.386 . S
C2125 C2129 1.393 . S
C2126 H2118 0.950 . S
C2126 C2124 1.391 . S
C2126 C2127 1.400 . S
C2127 C2126 1.400 . S
C2127 C2128 1.398 . S
C2127 C2133 1.491 . S
C2128 H2119 0.950 . S
C2128 C2127 1.398 . S
C2128 C2129 1.391 . S
C2129 H2117 0.950 . S
C2129 C2125 1.393 . S
C2129 C2128 1.391 . S
C2130 H2120 0.950 . S
C2130 C2131 1.386 . S
C2130 C2132 1.391 . S
C2131 C2130 1.386 . S
C2131 C2135 1.393 . S
C2132 H2121 0.950 . S
C2132 C2130 1.391 . S
C2132 C2133 1.400 . S
C2133 C2127 1.491 . S
C2133 C2132 1.400 . S
C2133 C2134 1.398 . S
C2134 H2122 0.950 . S
C2134 C2133 1.398 . S
C2134 C2135 1.391 . S
C2135 H2123 0.950 . S
C2135 C2131 1.393 . S
C2135 C2134 1.391 . S
H2136 C2144 0.950 . S
H2137 C2149 0.950 . S
H2138 C2146 0.950 1_455 S
H2139 C2148 0.950 . S
H2140 C2150 0.950 . S
H2141 C2152 0.950 1_655 S
H2142 C2154 0.950 . S
H2143 C2155 0.950 . S
C2144 H2136 0.950 . S
C2144 C2145 1.386 . S
C2144 C2146 1.391 . S
C2145 C2144 1.386 . S
C2145 C2149 1.393 . S
C2146 H2138 0.950 1_655 S
C2146 C2144 1.391 . S
C2146 C2147 1.400 . S
C2147 C2146 1.400 . S
C2147 C2148 1.398 . S
C2147 C2153 1.491 1_655 S
C2148 H2139 0.950 . S
C2148 C2147 1.398 . S
C2148 C2149 1.391 . S
C2149 H2137 0.950 . S
C2149 C2145 1.393 . S
C2149 C2148 1.391 . S
C2150 H2140 0.950 . S
C2150 C2151 1.386 . S
C2150 C2152 1.391 . S
C2151 C2150 1.386 . S
C2151 C2155 1.393 . S
C2152 H2141 0.950 1_455 S
C2152 C2150 1.391 . S
C2152 C2153 1.400 . S
C2153 C2147 1.491 1_455 S
C2153 C2152 1.400 . S
C2153 C2154 1.398 . S
C2154 H2142 0.950 . S
C2154 C2153 1.398 . S
C2154 C2155 1.391 . S
C2155 H2143 0.950 . S
C2155 C2151 1.393 . S
C2155 C2154 1.391 . S
H2156 C2164 0.950 . S
H2157 C2169 0.950 . S
H2158 C2166 0.950 . S
H2159 C2168 0.950 . S
H2160 C2170 0.950 . S
H2161 C2172 0.950 . S
H2162 C2174 0.950 . S
H2163 C2175 0.950 . S
C2164 H2156 0.950 . S
C2164 C2165 1.386 . S
C2164 C2166 1.391 . S
C2165 C2164 1.386 . S
C2165 C2169 1.393 . S
C2166 H2158 0.950 . S
C2166 C2164 1.391 . S
C2166 C2167 1.400 . S
C2167 C2166 1.400 . S
C2167 C2168 1.398 . S
C2167 C2173 1.491 1_565 S
C2168 H2159 0.950 . S
C2168 C2167 1.398 . S
C2168 C2169 1.391 . S
C2169 H2157 0.950 . S
C2169 C2165 1.393 . S
C2169 C2168 1.391 . S
C2170 H2160 0.950 . S
C2170 C2171 1.386 . S
C2170 C2172 1.391 . S
C2171 C2170 1.386 . S
C2171 C2175 1.393 . S
C2172 H2161 0.950 . S
C2172 C2170 1.391 . S
C2172 C2173 1.400 . S
C2173 C2167 1.491 1_545 S
C2173 C2172 1.400 . S
C2173 C2174 1.398 . S
C2174 H2162 0.950 . S
C2174 C2173 1.398 . S
C2174 C2175 1.391 . S
C2175 H2163 0.950 . S
C2175 C2171 1.393 . S
C2175 C2174 1.391 . S
H2176 C2184 0.950 . S
H2177 C2189 0.950 . S
H2178 C2186 0.950 . S
H2179 C2188 0.950 . S
H2180 C2190 0.950 . S
H2181 C2192 0.950 . S
H2182 C2194 0.950 . S
H2183 C2195 0.950 . S
C2184 H2176 0.950 . S
C2184 C2185 1.386 . S
C2184 C2186 1.391 . S
C2185 C2184 1.386 . S
C2185 C2189 1.393 . S
C2186 H2178 0.950 . S
C2186 C2184 1.391 . S
C2186 C2187 1.400 . S
C2187 C2186 1.400 . S
C2187 C2188 1.398 . S
C2187 C2193 1.491 1_655 S
C2188 H2179 0.950 . S
C2188 C2187 1.398 . S
C2188 C2189 1.391 . S
C2189 H2177 0.950 . S
C2189 C2185 1.393 . S
C2189 C2188 1.391 . S
C2190 H2180 0.950 . S
C2190 C2191 1.386 . S
C2190 C2192 1.391 . S
C2191 C2190 1.386 . S
C2191 C2195 1.393 . S
C2192 H2181 0.950 . S
C2192 C2190 1.391 . S
C2192 C2193 1.400 . S
C2193 C2187 1.491 1_455 S
C2193 C2192 1.400 . S
C2193 C2194 1.398 . S
C2194 H2182 0.950 . S
C2194 C2193 1.398 . S
C2194 C2195 1.391 . S
C2195 H2183 0.950 . S
C2195 C2191 1.393 . S
C2195 C2194 1.391 . S
H2196 C2204 0.950 . S
H2197 C2209 0.950 . S
H2198 C2206 0.936 1_545 S
H2199 C2208 0.950 . S
H2200 C2210 0.950 . S
H2201 C2212 0.936 1_565 S
H2202 C2214 0.950 . S
H2203 C2215 0.950 . S
C2204 H2196 0.950 . S
C2204 C2205 1.386 . S
C2204 C2206 1.391 . S
C2205 C2204 1.386 . S
C2205 C2209 1.393 . S
C2206 H2198 0.936 1_565 S
C2206 C2204 1.391 . S
C2206 C2207 1.400 . S
C2207 C2206 1.400 . S
C2207 C2208 1.398 . S
C2207 C2213 1.491 1_565 S
C2208 H2199 0.950 . S
C2208 C2207 1.398 . S
C2208 C2209 1.391 . S
C2209 H2197 0.950 . S
C2209 C2205 1.393 . S
C2209 C2208 1.391 . S
C2210 H2200 0.950 . S
C2210 C2211 1.386 . S
C2210 C2212 1.391 . S
C2211 C2210 1.386 . S
C2211 C2215 1.393 . S
C2212 H2201 0.936 1_545 S
C2212 C2210 1.391 . S
C2212 C2213 1.400 . S
C2213 C2207 1.491 1_545 S
C2213 C2212 1.400 . S
C2213 C2214 1.398 . S
C2214 H2202 0.950 . S
C2214 C2213 1.398 . S
C2214 C2215 1.391 . S
C2215 H2203 0.950 . S
C2215 C2211 1.393 . S
C2215 C2214 1.391 . S
H2216 C2224 0.950 . S
H2217 C2229 0.950 . S
H2218 C2226 0.930 1_455 S
H2219 C2228 0.950 . S
H2220 C2230 0.950 . S
H2221 C2232 0.930 1_655 S
H2222 C2234 0.950 . S
H2223 C2235 0.950 . S
C2224 H2216 0.950 . S
C2224 C2225 1.386 . S
C2224 C2226 1.391 . S
C2225 C2224 1.386 . S
C2225 C2229 1.393 . S
C2226 H2218 0.930 1_655 S
C2226 C2224 1.391 . S
C2226 C2227 1.400 . S
C2227 C2226 1.400 . S
C2227 C2228 1.398 . S
C2227 C2233 1.491 1_655 S
C2228 H2219 0.950 . S
C2228 C2227 1.398 . S
C2228 C2229 1.391 . S
C2229 H2217 0.950 . S
C2229 C2225 1.393 . S
C2229 C2228 1.391 . S
C2230 H2220 0.950 . S
C2230 C2231 1.386 . S
C2230 C2232 1.391 . S
C2231 C2230 1.386 . S
C2231 C2235 1.393 . S
C2232 H2221 0.930 1_455 S
C2232 C2230 1.391 . S
C2232 C2233 1.400 . S
C2233 C2227 1.491 1_455 S
C2233 C2232 1.400 . S
C2233 C2234 1.398 . S
C2234 H2222 0.950 . S
C2234 C2233 1.398 . S
C2234 C2235 1.391 . S
C2235 H2223 0.950 . S
C2235 C2231 1.393 . S
C2235 C2234 1.391 . S
H2236 C2244 0.950 . S
H2237 C2249 0.950 . S
H2238 C2246 0.950 . S
H2239 C2248 0.950 1_545 S
H2240 C2250 0.950 . S
H2241 C2252 0.950 . S
H2242 C2254 0.950 1_565 S
H2243 C2255 0.950 . S
C2244 H2236 0.950 . S
C2244 C2245 1.386 . S
C2244 C2246 1.391 . S
C2245 C2244 1.386 . S
C2245 C2249 1.393 . S
C2246 H2238 0.950 . S
C2246 C2244 1.391 . S
C2246 C2247 1.400 . S
C2247 C2246 1.400 . S
C2247 C2248 1.398 . S
C2247 C2253 1.491 1_565 S
C2248 H2239 0.950 1_565 S
C2248 C2247 1.398 . S
C2248 C2249 1.391 . S
C2249 H2237 0.950 . S
C2249 C2245 1.393 . S
C2249 C2248 1.391 . S
C2250 H2240 0.950 . S
C2250 C2251 1.386 . S
C2250 C2252 1.391 . S
C2251 C2250 1.386 . S
C2251 C2255 1.393 . S
C2252 H2241 0.950 . S
C2252 C2250 1.391 . S
C2252 C2253 1.400 . S
C2253 C2247 1.491 1_545 S
C2253 C2252 1.400 . S
C2253 C2254 1.398 . S
C2254 H2242 0.950 1_545 S
C2254 C2253 1.398 . S
C2254 C2255 1.391 . S
C2255 H2243 0.950 . S
C2255 C2251 1.393 . S
C2255 C2254 1.391 . S
H2256 C2264 0.950 . S
H2257 C2269 0.950 . S
H2258 C2266 0.950 . S
H2259 C2268 0.950 . S
H2260 C2270 0.950 . S
H2261 C2272 0.950 . S
H2262 C2274 0.950 . S
H2263 C2275 0.950 . S
C2264 H2256 0.950 . S
C2264 C2265 1.386 . S
C2264 C2266 1.391 . S
C2265 C2264 1.386 . S
C2265 C2269 1.393 . S
C2266 H2258 0.950 . S
C2266 C2264 1.391 . S
C2266 C2267 1.400 . S
C2267 C2266 1.400 . S
C2267 C2268 1.398 . S
C2267 C2273 1.491 1_655 S
C2268 H2259 0.950 . S
C2268 C2267 1.398 . S
C2268 C2269 1.391 . S
C2269 H2257 0.950 . S
C2269 C2265 1.393 . S
C2269 C2268 1.391 . S
C2270 H2260 0.950 . S
C2270 C2271 1.386 . S
C2270 C2272 1.391 . S
C2271 C2270 1.386 . S
C2271 C2275 1.393 . S
C2272 H2261 0.950 . S
C2272 C2270 1.391 . S
C2272 C2273 1.400 . S
C2273 C2267 1.491 1_455 S
C2273 C2272 1.400 . S
C2273 C2274 1.398 . S
C2274 H2262 0.950 . S
C2274 C2273 1.398 . S
C2274 C2275 1.391 . S
C2275 H2263 0.950 . S
C2275 C2271 1.393 . S
C2275 C2274 1.391 . S
H2276 C2284 0.950 . S
H2277 C2289 0.950 . S
H2278 C2286 0.950 . S
H2279 C2288 0.950 . S
H2280 C2290 0.950 . S
H2281 C2292 0.950 . S
H2282 C2294 0.950 . S
H2283 C2295 0.950 . S
C2284 H2276 0.950 . S
C2284 C2285 1.386 . S
C2284 C2286 1.391 . S
C2285 C2284 1.386 . S
C2285 C2289 1.393 . S
C2286 H2278 0.950 . S
C2286 C2284 1.391 . S
C2286 C2287 1.400 . S
C2287 C2286 1.400 . S
C2287 C2288 1.398 . S
C2287 C2293 1.491 1_565 S
C2288 H2279 0.950 . S
C2288 C2287 1.398 . S
C2288 C2289 1.391 . S
C2289 H2277 0.950 . S
C2289 C2285 1.393 . S
C2289 C2288 1.391 . S
C2290 H2280 0.950 . S
C2290 C2291 1.386 . S
C2290 C2292 1.391 . S
C2291 C2290 1.386 . S
C2291 C2295 1.393 . S
C2292 H2281 0.950 . S
C2292 C2290 1.391 . S
C2292 C2293 1.400 . S
C2293 C2287 1.491 1_545 S
C2293 C2292 1.400 . S
C2293 C2294 1.398 . S
C2294 H2282 0.950 . S
C2294 C2293 1.398 . S
C2294 C2295 1.391 . S
C2295 H2283 0.950 . S
C2295 C2291 1.393 . S
C2295 C2294 1.391 . S
H2296 C2304 0.950 . S
H2297 C2309 0.950 . S
H2298 C2306 0.950 . S
H2299 C2308 0.950 . S
H2300 C2310 0.950 . S
H2301 C2312 0.950 . S
H2302 C2314 0.950 . S
H2303 C2315 0.950 . S
C2304 H2296 0.950 . S
C2304 C2305 1.386 . S
C2304 C2306 1.391 . S
C2305 C2304 1.386 . S
C2305 C2309 1.393 . S
C2306 H2298 0.950 . S
C2306 C2304 1.391 . S
C2306 C2307 1.400 . S
C2307 C2306 1.400 . S
C2307 C2308 1.398 . S
C2307 C2313 1.491 1_556 S
C2308 H2299 0.950 . S
C2308 C2307 1.398 . S
C2308 C2309 1.391 . S
C2309 H2297 0.950 . S
C2309 C2305 1.393 . S
C2309 C2308 1.391 . S
C2310 H2300 0.950 . S
C2310 C2311 1.386 . S
C2310 C2312 1.391 . S
C2311 C2310 1.386 . S
C2311 C2315 1.393 . S
C2312 H2301 0.950 . S
C2312 C2310 1.391 . S
C2312 C2313 1.400 . S
C2313 C2307 1.491 1_554 S
C2313 C2312 1.400 . S
C2313 C2314 1.398 . S
C2314 H2302 0.950 . S
C2314 C2313 1.398 . S
C2314 C2315 1.391 . S
C2315 H2303 0.950 . S
C2315 C2311 1.393 . S
C2315 C2314 1.391 . S
H2316 C2324 0.950 . S
H2317 C2329 0.950 . S
H2318 C2326 0.950 . S
H2319 C2328 0.957 . S
H2320 C2330 0.950 . S
H2321 C2332 0.950 . S
H2322 C2334 0.957 . S
H2323 C2335 0.950 . S
C2324 H2316 0.950 . S
C2324 C2325 1.386 . S
C2324 C2326 1.391 . S
C2325 C2324 1.386 . S
C2325 C2329 1.393 . S
C2326 H2318 0.950 . S
C2326 C2324 1.391 . S
C2326 C2327 1.400 . S
C2327 C2326 1.400 . S
C2327 C2328 1.398 . S
C2327 C2333 1.491 1_556 S
C2328 H2319 0.957 . S
C2328 C2327 1.398 . S
C2328 C2329 1.391 . S
C2329 H2317 0.950 . S
C2329 C2325 1.393 . S
C2329 C2328 1.391 . S
C2330 H2320 0.950 . S
C2330 C2331 1.386 . S
C2330 C2332 1.391 . S
C2331 C2330 1.386 . S
C2331 C2335 1.393 . S
C2332 H2321 0.950 . S
C2332 C2330 1.391 . S
C2332 C2333 1.400 . S
C2333 C2327 1.491 1_554 S
C2333 C2332 1.400 . S
C2333 C2334 1.398 . S
C2334 H2322 0.957 . S
C2334 C2333 1.398 . S
C2334 C2335 1.391 . S
C2335 H2323 0.950 . S
C2335 C2331 1.393 . S
C2335 C2334 1.391 . S
H2336 C2344 0.950 . S
H2337 C2349 0.950 . S
H2338 C2346 0.950 . S
H2339 C2348 0.950 . S
H2340 C2350 0.950 . S
H2341 C2352 0.950 . S
H2342 C2354 0.950 . S
H2343 C2355 0.950 . S
C2344 H2336 0.950 . S
C2344 C2345 1.386 . S
C2344 C2346 1.391 . S
C2345 C2344 1.386 . S
C2345 C2349 1.393 . S
C2346 H2338 0.950 . S
C2346 C2344 1.391 . S
C2346 C2347 1.400 . S
C2347 C2346 1.400 . S
C2347 C2348 1.398 . S
C2347 C2353 1.491 1_556 S
C2348 H2339 0.950 . S
C2348 C2347 1.398 . S
C2348 C2349 1.391 . S
C2349 H2337 0.950 . S
C2349 C2345 1.393 . S
C2349 C2348 1.391 . S
C2350 H2340 0.950 . S
C2350 C2351 1.386 . S
C2350 C2352 1.391 . S
C2351 C2350 1.386 . S
C2351 C2355 1.393 . S
C2352 H2341 0.950 . S
C2352 C2350 1.391 . S
C2352 C2353 1.400 . S
C2353 C2347 1.491 1_554 S
C2353 C2352 1.400 . S
C2353 C2354 1.398 . S
C2354 H2342 0.950 . S
C2354 C2353 1.398 . S
C2354 C2355 1.391 . S
C2355 H2343 0.950 . S
C2355 C2351 1.393 . S
C2355 C2354 1.391 . S
H2356 C2364 0.950 . S
H2357 C2369 0.950 . S
H2358 C2366 0.950 1_554 S
H2359 C2368 0.950 . S
H2360 C2370 0.950 . S
H2361 C2372 0.950 1_556 S
H2362 C2374 0.950 . S
H2363 C2375 0.950 . S
C2364 H2356 0.950 . S
C2364 C2365 1.386 . S
C2364 C2366 1.391 . S
C2365 C2364 1.386 . S
C2365 C2369 1.393 . S
C2366 H2358 0.950 1_556 S
C2366 C2364 1.391 . S
C2366 C2367 1.400 . S
C2367 C2366 1.400 . S
C2367 C2368 1.398 . S
C2367 C2373 1.491 1_556 S
C2368 H2359 0.950 . S
C2368 C2367 1.398 . S
C2368 C2369 1.391 . S
C2369 H2357 0.950 . S
C2369 C2365 1.393 . S
C2369 C2368 1.391 . S
C2370 H2360 0.950 . S
C2370 C2371 1.386 . S
C2370 C2372 1.391 . S
C2371 C2370 1.386 . S
C2371 C2375 1.393 . S
C2372 H2361 0.950 1_554 S
C2372 C2370 1.391 . S
C2372 C2373 1.400 . S
C2373 C2367 1.491 1_554 S
C2373 C2372 1.400 . S
C2373 C2374 1.398 . S
C2374 H2362 0.950 . S
C2374 C2373 1.398 . S
C2374 C2375 1.391 . S
C2375 H2363 0.950 . S
C2375 C2371 1.393 . S
C2375 C2374 1.391 . S
C705 C8 2.682 . S
C711 C382 2.651 . S
C725 C37 2.699 . S
C731 C411 2.650 . S
C745 C66 2.686 . S
C751 C440 2.661 . S
C765 C95 2.695 . S
C771 C353 2.643 . S
C785 C124 2.688 . S
C791 C324 2.661 . S
C805 C153 2.696 . S
C811 C237 2.658 . S
C825 C182 2.682 . S
C831 C266 2.655 . S
C845 C211 2.693 . S
C851 C295 2.642 . S
C865 C240 2.682 . S
C871 C34 2.655 . S
C885 C269 2.698 . S
C891 C63 2.646 . S
C905 C298 2.699 . S
C911 C92 2.649 . S
C925 C327 2.685 . S
C931 C5 2.661 . S
C945 C208 2.660 . S
C951 C356 2.684 . S
C965 C385 2.699 . S
C971 C121 2.653 . S
C985 C414 2.699 . S
C991 C150 2.650 . S
C1005 C443 2.696 . S
C1011 C179 2.643 . S
C1025 C472 2.681 . S
C1031 C643 2.653 . S
C1045 C501 2.682 . S
C1051 C527 2.652 . S
C1065 C530 2.698 . S
C1071 C556 2.646 . S
C1085 C559 2.689 . S
C1091 C585 2.642 . S
C1105 C588 2.687 . S
C1111 C498 2.661 . S
C1125 C617 2.696 . S
C1131 C672 2.643 . S
C1145 C646 2.694 . S
C1151 C614 2.660 . S
C1165 C675 2.683 . S
C1171 C469 2.659 . S
C1185 C3 2.242 . S
C1191 C641 2.246 . S
C1205 C32 2.244 . S
C1211 C467 2.244 . S
C1225 C670 2.242 . S
C1231 C61 2.246 . S
C1245 C612 2.245 . S
C1251 C90 2.232 . S
C1265 C119 2.233 . S
C1271 C525 2.245 . S
C1285 C148 2.234 . S
C1291 C554 2.246 . S
C1305 C583 2.232 . S
C1311 C177 2.238 . S
C1325 C496 2.247 . S
C1331 C206 2.239 . S
C1345 C380 2.237 . S
C1351 C235 2.233 . S
C1365 C409 2.245 . S
C1371 C264 2.233 . S
C1385 C438 2.242 . S
C1391 C293 2.246 . S
C1405 C322 2.233 . S
C1411 C351 2.246 . S
C1425 C79 0.763 . S
C1431 C21 0.709 . S
C1445 C108 0.712 . S
C1451 C50 0.759 . S
C1465 C195 0.715 . S
C1471 C137 0.755 . S
C1485 C224 0.763 . S
C1491 C166 0.715 . S
C1505 C369 0.710 . S
C1511 C253 0.762 . S
C1525 C282 0.760 . S
C1531 C398 0.719 . S
C1545 C311 0.709 . S
C1551 C427 0.765 . S
C1565 C456 0.756 . S
C1571 C340 0.725 . S
C1585 C572 0.749 . S
C1591 C485 0.720 . S
C1605 C514 0.719 . S
C1611 C630 0.750 . S
C1625 C543 0.730 . S
C1631 C659 0.738 . S
C1645 C601 0.718 . S
C1651 C688 0.751 . S
C1665 C245 0.928 . S
C1671 C15 0.988 . S
C1685 C44 0.961 . S
C1691 C274 0.965 . S
C1705 C73 0.986 . S
C1711 C303 0.932 . S
C1725 C332 0.935 . S
C1731 C102 0.985 . S
C1745 C131 0.989 . S
C1751 C361 0.908 . S
C1765 C160 0.972 . S
C1771 C390 0.929 . S
C1785 C419 0.913 . S
C1791 C189 0.993 . S
C1805 C218 0.972 . S
C1811 C448 0.954 . S
C1825 C477 0.963 . S
C1831 C247 0.964 . S
C1845 C680 0.965 . S
C1851 C276 0.960 . S
C1865 C622 0.908 . S
C1871 C305 0.989 . S
C1885 C651 0.908 . S
C1891 C334 0.993 . S
C1905 C363 0.985 . S
C1911 C506 0.935 . S
C1925 C392 0.993 . S
C1931 C535 0.912 . S
C1945 C421 0.988 . S
C1951 C564 0.909 . S
C1965 C450 0.987 . S
C1971 C593 0.931 . S
C1985 C479 0.968 . S
C1991 C13 0.936 . S
C2005 C129 0.962 . S
C2011 C508 0.966 . S
C2025 C158 0.950 . S
C2031 C537 0.976 . S
C2045 C566 0.992 . S
C2051 C187 0.918 . S
C2065 C595 0.982 . S
C2071 C216 0.940 . S
C2085 C624 0.981 . S
C2091 C71 0.916 . S
C2105 C653 0.971 . S
C2111 C100 0.956 . S
C2125 C682 0.961 . S
C2131 C42 0.951 . S
C2145 C271 1.366 . S
C2151 C10 1.338 . S
C2165 C300 1.336 . S
C2171 C39 1.344 . S
C2185 C68 1.342 . S
C2191 C329 1.338 . S
C2205 C97 1.358 . S
C2211 C242 1.333 . S
C2225 C445 1.370 . S
C2231 C126 1.349 . S
C2245 C358 1.339 . S
C2251 C155 1.366 . S
C2265 C184 1.355 . S
C2271 C387 1.368 . S
C2285 C213 1.361 . S
C2291 C416 1.365 . S
C2305 C532 1.354 . S
C2311 C474 1.333 . S
C2325 C503 1.346 . S
C2331 C648 1.369 . S
C2345 C561 1.334 . S
C2351 C677 1.349 . S
C2365 C590 1.363 . S
C2371 C619 1.336 . S
