# Generated by pormake.
# Topology nfb, (4)-cn, num edge types: 1
# Building blocks:
#     Node 0, Type 0, BuildingBlock: CEKHIL_clean_sbu_0, # of connection points: 4
#     Node 1, Type 0, BuildingBlock: CEKHIL_clean_sbu_0, # of connection points: 4
#     Node 2, Type 0, BuildingBlock: CEKHIL_clean_sbu_0, # of connection points: 4
#     Node 3, Type 0, BuildingBlock: CEKHIL_clean_sbu_0, # of connection points: 4
#     Node 4, Type 0, BuildingBlock: CEKHIL_clean_sbu_0, # of connection points: 4
#     Node 5, Type 0, BuildingBlock: CEKHIL_clean_sbu_0, # of connection points: 4
#     Node 6, Type 0, BuildingBlock: CEKHIL_clean_sbu_0, # of connection points: 4
#     Node 7, Type 0, BuildingBlock: CEKHIL_clean_sbu_0, # of connection points: 4
#     Node 8, Type 0, BuildingBlock: CEKHIL_clean_sbu_0, # of connection points: 4
#     Node 9, Type 0, BuildingBlock: CEKHIL_clean_sbu_0, # of connection points: 4
#     Node 10, Type 0, BuildingBlock: CEKHIL_clean_sbu_0, # of connection points: 4
#     Node 11, Type 0, BuildingBlock: CEKHIL_clean_sbu_0, # of connection points: 4
#     Node 12, Type 0, BuildingBlock: CEKHIL_clean_sbu_0, # of connection points: 4
#     Node 13, Type 0, BuildingBlock: CEKHIL_clean_sbu_0, # of connection points: 4
#     Node 14, Type 0, BuildingBlock: CEKHIL_clean_sbu_0, # of connection points: 4
#     Node 15, Type 0, BuildingBlock: CEKHIL_clean_sbu_0, # of connection points: 4
#     Node 16, Type 0, BuildingBlock: CEKHIL_clean_sbu_0, # of connection points: 4
#     Node 17, Type 0, BuildingBlock: CEKHIL_clean_sbu_0, # of connection points: 4
#     Node 18, Type 0, BuildingBlock: CEKHIL_clean_sbu_0, # of connection points: 4
#     Node 19, Type 0, BuildingBlock: CEKHIL_clean_sbu_0, # of connection points: 4
#     Node 20, Type 0, BuildingBlock: CEKHIL_clean_sbu_0, # of connection points: 4
#     Node 21, Type 0, BuildingBlock: CEKHIL_clean_sbu_0, # of connection points: 4
#     Node 22, Type 0, BuildingBlock: CEKHIL_clean_sbu_0, # of connection points: 4
#     Node 23, Type 0, BuildingBlock: CEKHIL_clean_sbu_0, # of connection points: 4
#     Node 24, Type 0, BuildingBlock: CEKHIL_clean_sbu_0, # of connection points: 4
#     Node 25, Type 0, BuildingBlock: CEKHIL_clean_sbu_0, # of connection points: 4
#     Node 26, Type 0, BuildingBlock: CEKHIL_clean_sbu_0, # of connection points: 4
#     Node 27, Type 0, BuildingBlock: CEKHIL_clean_sbu_0, # of connection points: 4
#     Node 28, Type 0, BuildingBlock: CEKHIL_clean_sbu_0, # of connection points: 4
#     Node 29, Type 0, BuildingBlock: CEKHIL_clean_sbu_0, # of connection points: 4
#     Node 30, Type 0, BuildingBlock: CEKHIL_clean_sbu_0, # of connection points: 4
#     Node 31, Type 0, BuildingBlock: CEKHIL_clean_sbu_0, # of connection points: 4
#     Node 32, Type 0, BuildingBlock: CEKHIL_clean_sbu_0, # of connection points: 4
#     Node 33, Type 0, BuildingBlock: CEKHIL_clean_sbu_0, # of connection points: 4
#     Node 34, Type 0, BuildingBlock: CEKHIL_clean_sbu_0, # of connection points: 4
#     Node 35, Type 0, BuildingBlock: CEKHIL_clean_sbu_0, # of connection points: 4
#     Node 36, Type 0, BuildingBlock: CEKHIL_clean_sbu_0, # of connection points: 4
#     Node 37, Type 0, BuildingBlock: CEKHIL_clean_sbu_0, # of connection points: 4
#     Node 38, Type 0, BuildingBlock: CEKHIL_clean_sbu_0, # of connection points: 4
#     Node 39, Type 0, BuildingBlock: CEKHIL_clean_sbu_0, # of connection points: 4
#     Node 40, Type 0, BuildingBlock: CEKHIL_clean_sbu_0, # of connection points: 4
#     Node 41, Type 0, BuildingBlock: CEKHIL_clean_sbu_0, # of connection points: 4
#     Node 42, Type 0, BuildingBlock: CEKHIL_clean_sbu_0, # of connection points: 4
#     Node 43, Type 0, BuildingBlock: CEKHIL_clean_sbu_0, # of connection points: 4
#     Node 44, Type 0, BuildingBlock: CEKHIL_clean_sbu_0, # of connection points: 4
#     Node 45, Type 0, BuildingBlock: CEKHIL_clean_sbu_0, # of connection points: 4
#     Node 46, Type 0, BuildingBlock: CEKHIL_clean_sbu_0, # of connection points: 4
#     Node 47, Type 0, BuildingBlock: CEKHIL_clean_sbu_0, # of connection points: 4
#     Edge 48, Type (0, 0), BuildingBlock: XIVTED_clean_linker_0, # of connection points: 2
#     Edge 49, Type (0, 0), BuildingBlock: XIVTED_clean_linker_0, # of connection points: 2
#     Edge 50, Type (0, 0), BuildingBlock: XIVTED_clean_linker_0, # of connection points: 2
#     Edge 51, Type (0, 0), BuildingBlock: XIVTED_clean_linker_0, # of connection points: 2
#     Edge 52, Type (0, 0), BuildingBlock: XIVTED_clean_linker_0, # of connection points: 2
#     Edge 53, Type (0, 0), BuildingBlock: XIVTED_clean_linker_0, # of connection points: 2
#     Edge 54, Type (0, 0), BuildingBlock: XIVTED_clean_linker_0, # of connection points: 2
#     Edge 55, Type (0, 0), BuildingBlock: XIVTED_clean_linker_0, # of connection points: 2
#     Edge 56, Type (0, 0), BuildingBlock: XIVTED_clean_linker_0, # of connection points: 2
#     Edge 57, Type (0, 0), BuildingBlock: XIVTED_clean_linker_0, # of connection points: 2
#     Edge 58, Type (0, 0), BuildingBlock: XIVTED_clean_linker_0, # of connection points: 2
#     Edge 59, Type (0, 0), BuildingBlock: XIVTED_clean_linker_0, # of connection points: 2
#     Edge 60, Type (0, 0), BuildingBlock: XIVTED_clean_linker_0, # of connection points: 2
#     Edge 61, Type (0, 0), BuildingBlock: XIVTED_clean_linker_0, # of connection points: 2
#     Edge 62, Type (0, 0), BuildingBlock: XIVTED_clean_linker_0, # of connection points: 2
#     Edge 63, Type (0, 0), BuildingBlock: XIVTED_clean_linker_0, # of connection points: 2
#     Edge 64, Type (0, 0), BuildingBlock: XIVTED_clean_linker_0, # of connection points: 2
#     Edge 65, Type (0, 0), BuildingBlock: XIVTED_clean_linker_0, # of connection points: 2
#     Edge 66, Type (0, 0), BuildingBlock: XIVTED_clean_linker_0, # of connection points: 2
#     Edge 67, Type (0, 0), BuildingBlock: XIVTED_clean_linker_0, # of connection points: 2
#     Edge 68, Type (0, 0), BuildingBlock: XIVTED_clean_linker_0, # of connection points: 2
#     Edge 69, Type (0, 0), BuildingBlock: XIVTED_clean_linker_0, # of connection points: 2
#     Edge 70, Type (0, 0), BuildingBlock: XIVTED_clean_linker_0, # of connection points: 2
#     Edge 71, Type (0, 0), BuildingBlock: XIVTED_clean_linker_0, # of connection points: 2
#     Edge 72, Type (0, 0), BuildingBlock: XIVTED_clean_linker_0, # of connection points: 2
#     Edge 73, Type (0, 0), BuildingBlock: XIVTED_clean_linker_0, # of connection points: 2
#     Edge 74, Type (0, 0), BuildingBlock: XIVTED_clean_linker_0, # of connection points: 2
#     Edge 75, Type (0, 0), BuildingBlock: XIVTED_clean_linker_0, # of connection points: 2
#     Edge 76, Type (0, 0), BuildingBlock: XIVTED_clean_linker_0, # of connection points: 2
#     Edge 77, Type (0, 0), BuildingBlock: XIVTED_clean_linker_0, # of connection points: 2
#     Edge 78, Type (0, 0), BuildingBlock: XIVTED_clean_linker_0, # of connection points: 2
#     Edge 79, Type (0, 0), BuildingBlock: XIVTED_clean_linker_0, # of connection points: 2
#     Edge 80, Type (0, 0), BuildingBlock: XIVTED_clean_linker_0, # of connection points: 2
#     Edge 81, Type (0, 0), BuildingBlock: XIVTED_clean_linker_0, # of connection points: 2
#     Edge 82, Type (0, 0), BuildingBlock: XIVTED_clean_linker_0, # of connection points: 2
#     Edge 83, Type (0, 0), BuildingBlock: XIVTED_clean_linker_0, # of connection points: 2
#     Edge 84, Type (0, 0), BuildingBlock: XIVTED_clean_linker_0, # of connection points: 2
#     Edge 85, Type (0, 0), BuildingBlock: XIVTED_clean_linker_0, # of connection points: 2
#     Edge 86, Type (0, 0), BuildingBlock: XIVTED_clean_linker_0, # of connection points: 2
#     Edge 87, Type (0, 0), BuildingBlock: XIVTED_clean_linker_0, # of connection points: 2
#     Edge 88, Type (0, 0), BuildingBlock: XIVTED_clean_linker_0, # of connection points: 2
#     Edge 89, Type (0, 0), BuildingBlock: XIVTED_clean_linker_0, # of connection points: 2
#     Edge 90, Type (0, 0), BuildingBlock: XIVTED_clean_linker_0, # of connection points: 2
#     Edge 91, Type (0, 0), BuildingBlock: XIVTED_clean_linker_0, # of connection points: 2
#     Edge 92, Type (0, 0), BuildingBlock: XIVTED_clean_linker_0, # of connection points: 2
#     Edge 93, Type (0, 0), BuildingBlock: XIVTED_clean_linker_0, # of connection points: 2
#     Edge 94, Type (0, 0), BuildingBlock: XIVTED_clean_linker_0, # of connection points: 2
#     Edge 95, Type (0, 0), BuildingBlock: XIVTED_clean_linker_0, # of connection points: 2
#     Edge 96, Type (0, 0), BuildingBlock: XIVTED_clean_linker_0, # of connection points: 2
#     Edge 97, Type (0, 0), BuildingBlock: XIVTED_clean_linker_0, # of connection points: 2
#     Edge 98, Type (0, 0), BuildingBlock: XIVTED_clean_linker_0, # of connection points: 2
#     Edge 99, Type (0, 0), BuildingBlock: XIVTED_clean_linker_0, # of connection points: 2
#     Edge 100, Type (0, 0), BuildingBlock: XIVTED_clean_linker_0, # of connection points: 2
#     Edge 101, Type (0, 0), BuildingBlock: XIVTED_clean_linker_0, # of connection points: 2
#     Edge 102, Type (0, 0), BuildingBlock: XIVTED_clean_linker_0, # of connection points: 2
#     Edge 103, Type (0, 0), BuildingBlock: XIVTED_clean_linker_0, # of connection points: 2
#     Edge 104, Type (0, 0), BuildingBlock: XIVTED_clean_linker_0, # of connection points: 2
#     Edge 105, Type (0, 0), BuildingBlock: XIVTED_clean_linker_0, # of connection points: 2
#     Edge 106, Type (0, 0), BuildingBlock: XIVTED_clean_linker_0, # of connection points: 2
#     Edge 107, Type (0, 0), BuildingBlock: XIVTED_clean_linker_0, # of connection points: 2
#     Edge 108, Type (0, 0), BuildingBlock: XIVTED_clean_linker_0, # of connection points: 2
#     Edge 109, Type (0, 0), BuildingBlock: XIVTED_clean_linker_0, # of connection points: 2
#     Edge 110, Type (0, 0), BuildingBlock: XIVTED_clean_linker_0, # of connection points: 2
#     Edge 111, Type (0, 0), BuildingBlock: XIVTED_clean_linker_0, # of connection points: 2
#     Edge 112, Type (0, 0), BuildingBlock: XIVTED_clean_linker_0, # of connection points: 2
#     Edge 113, Type (0, 0), BuildingBlock: XIVTED_clean_linker_0, # of connection points: 2
#     Edge 114, Type (0, 0), BuildingBlock: XIVTED_clean_linker_0, # of connection points: 2
#     Edge 115, Type (0, 0), BuildingBlock: XIVTED_clean_linker_0, # of connection points: 2
#     Edge 116, Type (0, 0), BuildingBlock: XIVTED_clean_linker_0, # of connection points: 2
#     Edge 117, Type (0, 0), BuildingBlock: XIVTED_clean_linker_0, # of connection points: 2
#     Edge 118, Type (0, 0), BuildingBlock: XIVTED_clean_linker_0, # of connection points: 2
#     Edge 119, Type (0, 0), BuildingBlock: XIVTED_clean_linker_0, # of connection points: 2
#     Edge 120, Type (0, 0), BuildingBlock: XIVTED_clean_linker_0, # of connection points: 2
#     Edge 121, Type (0, 0), BuildingBlock: XIVTED_clean_linker_0, # of connection points: 2
#     Edge 122, Type (0, 0), BuildingBlock: XIVTED_clean_linker_0, # of connection points: 2
#     Edge 123, Type (0, 0), BuildingBlock: XIVTED_clean_linker_0, # of connection points: 2
#     Edge 124, Type (0, 0), BuildingBlock: XIVTED_clean_linker_0, # of connection points: 2
#     Edge 125, Type (0, 0), BuildingBlock: XIVTED_clean_linker_0, # of connection points: 2
#     Edge 126, Type (0, 0), BuildingBlock: XIVTED_clean_linker_0, # of connection points: 2
#     Edge 127, Type (0, 0), BuildingBlock: XIVTED_clean_linker_0, # of connection points: 2
#     Edge 128, Type (0, 0), BuildingBlock: XIVTED_clean_linker_0, # of connection points: 2
#     Edge 129, Type (0, 0), BuildingBlock: XIVTED_clean_linker_0, # of connection points: 2
#     Edge 130, Type (0, 0), BuildingBlock: XIVTED_clean_linker_0, # of connection points: 2
#     Edge 131, Type (0, 0), BuildingBlock: XIVTED_clean_linker_0, # of connection points: 2
#     Edge 132, Type (0, 0), BuildingBlock: XIVTED_clean_linker_0, # of connection points: 2
#     Edge 133, Type (0, 0), BuildingBlock: XIVTED_clean_linker_0, # of connection points: 2
#     Edge 134, Type (0, 0), BuildingBlock: XIVTED_clean_linker_0, # of connection points: 2
#     Edge 135, Type (0, 0), BuildingBlock: XIVTED_clean_linker_0, # of connection points: 2
#     Edge 136, Type (0, 0), BuildingBlock: XIVTED_clean_linker_0, # of connection points: 2
#     Edge 137, Type (0, 0), BuildingBlock: XIVTED_clean_linker_0, # of connection points: 2
#     Edge 138, Type (0, 0), BuildingBlock: XIVTED_clean_linker_0, # of connection points: 2
#     Edge 139, Type (0, 0), BuildingBlock: XIVTED_clean_linker_0, # of connection points: 2
#     Edge 140, Type (0, 0), BuildingBlock: XIVTED_clean_linker_0, # of connection points: 2
#     Edge 141, Type (0, 0), BuildingBlock: XIVTED_clean_linker_0, # of connection points: 2
#     Edge 142, Type (0, 0), BuildingBlock: XIVTED_clean_linker_0, # of connection points: 2
#     Edge 143, Type (0, 0), BuildingBlock: XIVTED_clean_linker_0, # of connection points: 2
# Relax obj value: 0.256
# Max RMSD: 0.067
# Mean RMSD: 0.061
data_MOF--net-nfb--node1-CEKHIL_clean_sbu_0--edge1-XIVTED_clean_linker_0
_symmetry_space_group_name_H-M    P1
_symmetry_Int_Tables_number       1
_symmetry_cell_setting            triclinic
loop_
_symmetry_equiv_pos_as_xyz
'x, y, z'
_cell_length_a     59.531568
_cell_length_b     59.536585
_cell_length_c     59.591413
_cell_angle_alpha  90.056625
_cell_angle_beta   90.288892
_cell_angle_gamma 90.601468
loop_
_atom_site_label
_atom_site_type_symbol
_atom_site_fract_x
_atom_site_fract_y
_atom_site_fract_z
_atom_type_partial_charge
Co0 Co 0.14198 0.13647 0.40757 0.0
O1 O 0.1722 0.14221 0.41814 0.0
O2 O 0.16383 0.11701 0.3924 0.0
C3 C 0.13435 0.17339 0.40344 0.0
O4 O 0.11152 0.12692 0.39278 0.0
Co5 Co 0.10186 0.15554 0.43493 0.0
O6 O 0.08506 0.14978 0.40692 0.0
C7 C 0.12368 0.11304 0.44893 0.0
C8 C 0.17933 0.12723 0.40431 0.0
C9 C 0.09126 0.13487 0.39303 0.0
O10 O 0.13727 0.11371 0.43221 0.0
O11 O 0.10931 0.12834 0.45312 0.0
O12 O 0.14436 0.16248 0.38756 0.0
O13 O 0.13045 0.16208 0.42144 0.0
Co14 Co 0.3855 0.60942 0.90338 0.0
O15 O 0.38362 0.5771 0.90557 0.0
O16 O 0.38664 0.59529 0.87352 0.0
C17 C 0.41143 0.61311 0.93072 0.0
O18 O 0.38853 0.64347 0.89597 0.0
Co19 Co 0.37205 0.63726 0.94587 0.0
O20 O 0.38459 0.66265 0.92856 0.0
C21 C 0.33678 0.61712 0.91695 0.0
C22 C 0.38531 0.57611 0.88402 0.0
C23 C 0.38878 0.66195 0.90764 0.0
O24 O 0.35151 0.61111 0.90234 0.0
O25 O 0.34191 0.62601 0.93588 0.0
O26 O 0.41783 0.60841 0.9105 0.0
O27 O 0.3901 0.61349 0.93393 0.0
Co28 Co 0.85717 0.86881 0.40071 0.0
O29 O 0.82718 0.86179 0.41101 0.0
O30 O 0.83446 0.88845 0.38666 0.0
C31 C 0.86592 0.83248 0.39452 0.0
O32 O 0.88742 0.87964 0.38646 0.0
Co33 Co 0.89775 0.84925 0.4275 0.0
O34 O 0.91424 0.85656 0.3998 0.0
C35 C 0.87572 0.89101 0.44292 0.0
C36 C 0.8194 0.8773 0.39814 0.0
C37 C 0.90779 0.8719 0.38647 0.0
O38 O 0.86162 0.89052 0.42648 0.0
O39 O 0.89053 0.87596 0.44643 0.0
O40 O 0.85546 0.8439 0.37923 0.0
O41 O 0.86937 0.84277 0.41325 0.0
Co42 Co 0.63237 0.4042 0.89701 0.0
O43 O 0.63001 0.43643 0.8993 0.0
O44 O 0.63154 0.41848 0.86707 0.0
C45 C 0.60546 0.39702 0.92247 0.0
O46 O 0.63429 0.36982 0.89004 0.0
Co47 Co 0.64793 0.38012 0.94102 0.0
O48 O 0.6411 0.35281 0.92334 0.0
C49 C 0.68131 0.40371 0.91325 0.0
C50 C 0.62996 0.43758 0.87773 0.0
C51 C 0.63722 0.35192 0.90228 0.0
O52 O 0.66628 0.40695 0.89799 0.0
O53 O 0.67694 0.39495 0.93236 0.0
O54 O 0.5998 0.40103 0.90182 0.0
O55 O 0.62642 0.39973 0.92721 0.0
Co56 Co 0.11787 0.89176 0.60443 0.0
O57 O 0.08548 0.89178 0.60322 0.0
O58 O 0.10473 0.89365 0.63478 0.0
C59 C 0.12187 0.91757 0.577 0.0
O60 O 0.15252 0.89254 0.61009 0.0
Co61 Co 0.14126 0.87555 0.56046 0.0
O62 O 0.16795 0.88833 0.57577 0.0
C63 C 0.12206 0.84213 0.59147 0.0
C64 C 0.08517 0.89339 0.62475 0.0
C65 C 0.16979 0.89229 0.59674 0.0
O66 O 0.11766 0.85779 0.6057 0.0
O67 O 0.12992 0.84597 0.57188 0.0
O68 O 0.11835 0.92407 0.59745 0.0
O69 O 0.1206 0.89622 0.57373 0.0
Co70 Co 0.63524 0.64274 0.09925 0.0
O71 O 0.64241 0.67295 0.08988 0.0
O72 O 0.61514 0.66491 0.11326 0.0
C73 C 0.67156 0.63436 0.10618 0.0
O74 O 0.62407 0.61215 0.11242 0.0
Co75 Co 0.65533 0.60297 0.07241 0.0
O76 O 0.64784 0.58582 0.0997 0.0
C77 C 0.61453 0.62594 0.05559 0.0
C78 C 0.62653 0.68029 0.10246 0.0
C79 C 0.63198 0.59186 0.1125 0.0
O80 O 0.61431 0.63907 0.07275 0.0
O81 O 0.62975 0.6113 0.05217 0.0
O82 O 0.65955 0.64403 0.12145 0.0
O83 O 0.66171 0.63113 0.08712 0.0
Co84 Co 0.9014 0.12165 0.60843 0.0
O85 O 0.93376 0.12053 0.60793 0.0
O86 O 0.91412 0.12055 0.63911 0.0
C87 C 0.89678 0.09512 0.5818 0.0
O88 O 0.86674 0.12234 0.61338 0.0
Co89 Co 0.87931 0.13679 0.56297 0.0
O90 O 0.85132 0.12953 0.57935 0.0
C91 C 0.9013 0.17015 0.59226 0.0
C92 C 0.93378 0.11983 0.62951 0.0
C93 C 0.84943 0.12527 0.60026 0.0
O94 O 0.90261 0.15567 0.60828 0.0
O95 O 0.89518 0.16512 0.57225 0.0
O96 O 0.8997 0.08898 0.60248 0.0
O97 O 0.89884 0.11624 0.578 0.0
Co98 Co 0.37357 0.36638 0.1074 0.0
O99 O 0.36703 0.33638 0.09673 0.0
O100 O 0.39452 0.34421 0.1202 0.0
C101 C 0.33722 0.37356 0.11529 0.0
O102 O 0.38418 0.39674 0.12174 0.0
Co103 Co 0.35154 0.40664 0.08237 0.0
O104 O 0.35963 0.42298 0.11006 0.0
C105 C 0.39316 0.38611 0.06467 0.0
C106 C 0.38326 0.32895 0.10894 0.0
C107 C 0.37593 0.41688 0.12243 0.0
O108 O 0.39387 0.37192 0.08093 0.0
O109 O 0.37746 0.40043 0.06204 0.0
O110 O 0.3498 0.36327 0.12975 0.0
O111 O 0.34652 0.37791 0.09627 0.0
Co112 Co 0.39586 0.12238 0.13441 0.0
O113 O 0.40707 0.15239 0.14025 0.0
O114 O 0.38262 0.14455 0.11364 0.0
C115 C 0.38953 0.11564 0.1712 0.0
O116 O 0.38084 0.09207 0.12451 0.0
Co117 Co 0.42071 0.08186 0.15574 0.0
O118 O 0.39229 0.0659 0.14928 0.0
C119 C 0.43854 0.10355 0.11455 0.0
C120 C 0.39447 0.15981 0.12429 0.0
C121 C 0.37975 0.07201 0.13313 0.0
O122 O 0.42173 0.11694 0.11354 0.0
O123 O 0.44145 0.08931 0.13037 0.0
O124 O 0.37449 0.12562 0.15903 0.0
O125 O 0.40796 0.11094 0.16106 0.0
Co126 Co 0.38628 0.90451 0.62925 0.0
O127 O 0.41859 0.90789 0.62942 0.0
O128 O 0.40112 0.87533 0.62535 0.0
C129 C 0.38002 0.93309 0.60538 0.0
O130 O 0.35222 0.8962 0.62789 0.0
Co131 Co 0.35941 0.94503 0.64861 0.0
O132 O 0.33311 0.92704 0.63887 0.0
C133 C 0.38259 0.91443 0.67945 0.0
C134 C 0.42008 0.8865 0.62649 0.0
C135 C 0.33365 0.90688 0.63172 0.0
O136 O 0.38676 0.90106 0.663 0.0
O137 O 0.37359 0.93369 0.67686 0.0
O138 O 0.38525 0.91348 0.59759 0.0
O139 O 0.38111 0.9352 0.62688 0.0
Co140 Co 0.61013 0.88616 0.13166 0.0
O141 O 0.59867 0.85616 0.13672 0.0
O142 O 0.6243 0.86408 0.11153 0.0
C143 C 0.61486 0.89269 0.16882 0.0
O144 O 0.62573 0.91644 0.12283 0.0
Co145 Co 0.58414 0.92644 0.1519 0.0
O146 O 0.61224 0.94301 0.14609 0.0
C147 C 0.56799 0.9046 0.10992 0.0
C148 C 0.612 0.8488 0.12146 0.0
C149 C 0.62593 0.93667 0.13112 0.0
O150 O 0.58514 0.89162 0.10945 0.0
O151 O 0.56427 0.91859 0.12578 0.0
O152 O 0.63041 0.88281 0.15737 0.0
O153 O 0.59688 0.89743 0.15774 0.0
Co154 Co 0.63382 0.09934 0.62448 0.0
O155 O 0.6017 0.09567 0.62138 0.0
O156 O 0.61878 0.12863 0.62149 0.0
C157 C 0.64221 0.07224 0.59951 0.0
O158 O 0.66788 0.10785 0.62666 0.0
Co159 Co 0.65908 0.05773 0.64379 0.0
O160 O 0.68592 0.07601 0.63653 0.0
C161 C 0.63383 0.08668 0.67432 0.0
C162 C 0.59999 0.11718 0.62003 0.0
C163 C 0.68612 0.09668 0.63095 0.0
O164 O 0.63067 0.10074 0.65822 0.0
O165 O 0.64317 0.06762 0.67156 0.0
O166 O 0.63744 0.09227 0.59247 0.0
O167 O 0.63943 0.06893 0.62067 0.0
Co168 Co 0.41515 0.87777 0.88766 0.0
O169 O 0.41758 0.91012 0.88757 0.0
O170 O 0.38561 0.89174 0.89201 0.0
C171 C 0.44462 0.87286 0.91102 0.0
O172 O 0.40786 0.84347 0.88915 0.0
Co173 Co 0.45604 0.85168 0.86815 0.0
O174 O 0.44094 0.82617 0.88315 0.0
C175 C 0.42407 0.8734 0.83737 0.0
C176 C 0.39623 0.911 0.89087 0.0
C177 C 0.42029 0.82563 0.8887 0.0
O178 O 0.41103 0.87793 0.85395 0.0
O179 O 0.44341 0.8645 0.8398 0.0
O180 O 0.42499 0.8773 0.9192 0.0
O181 O 0.44602 0.87365 0.88948 0.0
Co182 Co 0.61247 0.89445 0.37297 0.0
O183 O 0.64261 0.90516 0.367 0.0
O184 O 0.63488 0.88068 0.39334 0.0
C185 C 0.60532 0.88848 0.33609 0.0
O186 O 0.58189 0.87993 0.38285 0.0
Co187 Co 0.57234 0.9203 0.3521 0.0
O188 O 0.55557 0.89245 0.35863 0.0
C189 C 0.59512 0.93768 0.39315 0.0
C190 C 0.65015 0.89233 0.38265 0.0
C191 C 0.56163 0.87953 0.37447 0.0
O192 O 0.60786 0.92036 0.39415 0.0
O193 O 0.5809 0.94101 0.37732 0.0
O194 O 0.61502 0.87316 0.34809 0.0
O195 O 0.60105 0.90693 0.34647 0.0
Co196 Co 0.60769 0.13707 0.87934 0.0
O197 O 0.60423 0.105 0.88298 0.0
O198 O 0.63711 0.1221 0.88192 0.0
C199 C 0.58112 0.14553 0.9048 0.0
O200 O 0.616 0.17118 0.87646 0.0
Co201 Co 0.56547 0.16186 0.8608 0.0
O202 O 0.5837 0.18891 0.86755 0.0
C203 C 0.59331 0.13571 0.82998 0.0
C204 C 0.62576 0.10333 0.88391 0.0
C205 C 0.60459 0.18933 0.87241 0.0
O206 O 0.60806 0.13315 0.84564 0.0
O207 O 0.57433 0.14505 0.83317 0.0
O208 O 0.60142 0.14123 0.91144 0.0
O209 O 0.57735 0.14248 0.88373 0.0
Co210 Co 0.38506 0.11076 0.37572 0.0
O211 O 0.35473 0.10046 0.37 0.0
O212 O 0.36345 0.12506 0.39617 0.0
C213 C 0.39209 0.11632 0.33887 0.0
O214 O 0.41576 0.12511 0.38535 0.0
Co215 Co 0.4245 0.08379 0.35525 0.0
O216 O 0.44189 0.11131 0.36187 0.0
C217 C 0.40151 0.0672 0.39614 0.0
C218 C 0.34781 0.11352 0.38573 0.0
C219 C 0.43596 0.12491 0.37715 0.0
O220 O 0.38953 0.08503 0.39714 0.0
O221 O 0.41538 0.06324 0.38028 0.0
O222 O 0.38254 0.13184 0.35068 0.0
O223 O 0.39609 0.09787 0.34937 0.0
Co224 Co 0.13562 0.40231 0.14193 0.0
O225 O 0.14232 0.41301 0.17187 0.0
O226 O 0.11469 0.3895 0.16433 0.0
C227 C 0.17191 0.39448 0.13446 0.0
O228 O 0.12481 0.38797 0.11167 0.0
Co229 Co 0.15758 0.42712 0.10136 0.0
O230 O 0.14978 0.39906 0.08543 0.0
C231 C 0.11616 0.44497 0.12226 0.0
C232 C 0.12606 0.40079 0.17947 0.0
C233 C 0.1332 0.38694 0.09156 0.0
O234 O 0.11544 0.42879 0.13655 0.0
O235 O 0.13178 0.44748 0.10773 0.0
O236 O 0.15933 0.37997 0.14486 0.0
O237 O 0.16265 0.41348 0.13014 0.0
Co238 Co 0.12365 0.60196 0.89734 0.0
O239 O 0.12344 0.59926 0.92952 0.0
O240 O 0.12299 0.63177 0.9121 0.0
C241 C 0.09687 0.57538 0.89232 0.0
O242 O 0.12288 0.60925 0.86308 0.0
Co243 Co 0.13739 0.55841 0.87121 0.0
O244 O 0.1249 0.57549 0.84575 0.0
C245 C 0.17246 0.58728 0.89172 0.0
C246 C 0.12247 0.62079 0.93106 0.0
C247 C 0.12191 0.59666 0.84519 0.0
O248 O 0.15774 0.60205 0.89724 0.0
O249 O 0.16737 0.56827 0.8829 0.0
O250 O 0.09096 0.59582 0.8967 0.0
O251 O 0.11806 0.57161 0.89311 0.0
Co252 Co 0.90822 0.62379 0.38232 0.0
O253 O 0.91137 0.62413 0.41458 0.0
O254 O 0.8789 0.61982 0.3972 0.0
C255 C 0.93693 0.60005 0.37677 0.0
O256 O 0.90021 0.62203 0.34822 0.0
Co257 Co 0.94898 0.6427 0.35496 0.0
O258 O 0.93304 0.62765 0.32994 0.0
C259 C 0.91703 0.6741 0.3754 0.0
C260 C 0.88999 0.62093 0.41613 0.0
C261 C 0.91225 0.62234 0.33004 0.0
O262 O 0.90468 0.65753 0.38208 0.0
O263 O 0.93585 0.67167 0.36544 0.0
O264 O 0.91721 0.59216 0.38187 0.0
O265 O 0.93901 0.62161 0.37738 0.0
Co266 Co 0.89013 0.4193 0.873 0.0
O267 O 0.89394 0.42345 0.90488 0.0
O268 O 0.89033 0.39025 0.88897 0.0
C269 C 0.91744 0.4441 0.86369 0.0
O270 O 0.88677 0.41015 0.83935 0.0
Co271 Co 0.87488 0.46186 0.84631 0.0
O272 O 0.8803 0.44231 0.82018 0.0
C273 C 0.84177 0.43643 0.87276 0.0
C274 C 0.89321 0.40195 0.90733 0.0
C275 C 0.88363 0.42119 0.82076 0.0
O276 O 0.85636 0.421 0.87641 0.0
O277 O 0.84644 0.45489 0.86275 0.0
O278 O 0.92273 0.42366 0.86895 0.0
O279 O 0.89666 0.44908 0.8664 0.0
Co280 Co 0.11208 0.37665 0.38629 0.0
O281 O 0.10165 0.37022 0.3562 0.0
O282 O 0.12586 0.39715 0.36399 0.0
C283 C 0.11843 0.3401 0.39415 0.0
O284 O 0.12632 0.38697 0.4168 0.0
Co285 Co 0.08526 0.3558 0.42614 0.0
O286 O 0.11267 0.3634 0.44326 0.0
C287 C 0.06859 0.39668 0.40333 0.0
C288 C 0.11434 0.38619 0.34873 0.0
C289 C 0.12608 0.37897 0.43713 0.0
O290 O 0.0861 0.39759 0.39077 0.0
O291 O 0.06484 0.3809 0.41747 0.0
O292 O 0.13363 0.35213 0.38406 0.0
O293 O 0.09975 0.35011 0.39794 0.0
Co294 Co 0.88467 0.61263 0.11323 0.0
O295 O 0.88219 0.61109 0.08098 0.0
O296 O 0.88777 0.64265 0.09957 0.0
C297 C 0.90893 0.58404 0.11571 0.0
O298 O 0.88841 0.61903 0.14748 0.0
Co299 Co 0.86869 0.57022 0.14001 0.0
O300 O 0.88425 0.58555 0.16507 0.0
C301 C 0.83523 0.60209 0.12245 0.0
C302 C 0.88541 0.63251 0.08027 0.0
C303 C 0.88911 0.60643 0.16531 0.0
O304 O 0.85089 0.61547 0.11551 0.0
O305 O 0.83893 0.58292 0.13136 0.0
O306 O 0.91642 0.6041 0.11147 0.0
O307 O 0.88742 0.58171 0.11634 0.0
Co308 Co 0.89864 0.37357 0.61929 0.0
O309 O 0.90862 0.36888 0.64983 0.0
O310 O 0.88199 0.39243 0.64053 0.0
C311 C 0.89658 0.3364 0.61169 0.0
O312 O 0.8841 0.38185 0.58848 0.0
Co313 Co 0.92796 0.35597 0.5799 0.0
O314 O 0.90009 0.35964 0.56246 0.0
C315 C 0.94057 0.39822 0.60358 0.0
C316 C 0.89394 0.38322 0.65641 0.0
C317 C 0.88519 0.37361 0.56829 0.0
O318 O 0.92252 0.39752 0.61539 0.0
O319 O 0.946 0.38284 0.58963 0.0
O320 O 0.87988 0.34641 0.62127 0.0
O321 O 0.91407 0.34877 0.60812 0.0
Co322 Co 0.10649 0.63215 0.62986 0.0
O323 O 0.1031 0.63326 0.59761 0.0
O324 O 0.13566 0.62923 0.61481 0.0
C325 C 0.0781 0.60743 0.63517 0.0
O326 O 0.11518 0.62979 0.66367 0.0
Co327 Co 0.06606 0.64873 0.65871 0.0
O328 O 0.08425 0.63779 0.68409 0.0
C329 C 0.09523 0.68163 0.63572 0.0
C330 C 0.12452 0.63062 0.59596 0.0
C331 C 0.10467 0.63183 0.68264 0.0
O332 O 0.10924 0.66609 0.63059 0.0
O333 O 0.07633 0.67772 0.64515 0.0
O334 O 0.09781 0.60023 0.62965 0.0
O335 O 0.07583 0.62891 0.63521 0.0
Co336 Co 0.87141 0.88624 0.61877 0.0
O337 O 0.8404 0.8808 0.61097 0.0
O338 O 0.85188 0.88717 0.64552 0.0
C339 C 0.87756 0.91102 0.59082 0.0
O340 O 0.9037 0.8922 0.6312 0.0
Co341 Co 0.90545 0.87177 0.58136 0.0
O342 O 0.9273 0.88654 0.60194 0.0
C343 C 0.88167 0.83786 0.60826 0.0
C344 C 0.83519 0.88281 0.63182 0.0
C345 C 0.92362 0.89231 0.62221 0.0
O346 O 0.87578 0.85298 0.6224 0.0
O347 O 0.89109 0.84223 0.58948 0.0
O348 O 0.86874 0.91792 0.60944 0.0
O349 O 0.88009 0.88969 0.58926 0.0
Co350 Co 0.62904 0.39839 0.11291 0.0
O351 O 0.62998 0.43038 0.10792 0.0
O352 O 0.60612 0.41383 0.13086 0.0
C353 C 0.66629 0.39505 0.11795 0.0
O354 O 0.62504 0.36466 0.12158 0.0
Co355 Co 0.65502 0.3683 0.0786 0.0
O356 O 0.65275 0.3465 0.10334 0.0
C357 C 0.60932 0.38444 0.06772 0.0
C358 C 0.61392 0.43244 0.12215 0.0
C359 C 0.63721 0.347 0.1179 0.0
O360 O 0.60757 0.39451 0.08675 0.0
O361 O 0.62691 0.37413 0.06129 0.0
O362 O 0.65371 0.40113 0.13454 0.0
O363 O 0.65639 0.39349 0.09873 0.0
Co364 Co 0.14573 0.123 0.61909 0.0
O365 O 0.17622 0.12782 0.6094 0.0
O366 O 0.16674 0.12483 0.64486 0.0
C367 C 0.13827 0.0956 0.59396 0.0
O368 O 0.11424 0.11808 0.63367 0.0
Co369 Co 0.10872 0.13306 0.58291 0.0
O370 O 0.08911 0.11788 0.60495 0.0
C371 C 0.13105 0.17041 0.60713 0.0
C372 C 0.18261 0.12799 0.63008 0.0
C373 C 0.094 0.11533 0.62563 0.0
O374 O 0.14133 0.15643 0.6199 0.0
O375 O 0.1186 0.16445 0.59053 0.0
O376 O 0.14817 0.09064 0.61273 0.0
O377 O 0.13537 0.11667 0.59036 0.0
Co378 Co 0.37263 0.61001 0.12351 0.0
O379 O 0.37168 0.57786 0.1196 0.0
O380 O 0.39776 0.59547 0.1394 0.0
C381 C 0.33602 0.61267 0.13212 0.0
O382 O 0.37705 0.64406 0.13065 0.0
Co383 Co 0.34261 0.63832 0.09094 0.0
O384 O 0.34784 0.6616 0.11393 0.0
C385 C 0.3876 0.62321 0.07652 0.0
C386 C 0.3893 0.57648 0.13211 0.0
C387 C 0.36478 0.66169 0.12704 0.0
O388 O 0.39116 0.61344 0.09543 0.0
O389 O 0.36929 0.63311 0.07141 0.0
O390 O 0.35053 0.60752 0.14752 0.0
O391 O 0.34371 0.61391 0.11197 0.0
Co392 Co 0.89824 0.13584 0.39034 0.0
O393 O 0.93036 0.13748 0.39415 0.0
O394 O 0.91317 0.11156 0.37377 0.0
C395 C 0.89431 0.17256 0.38261 0.0
O396 O 0.86429 0.13088 0.3831 0.0
Co397 Co 0.86937 0.16402 0.4238 0.0
O398 O 0.84666 0.15981 0.39995 0.0
C399 C 0.8853 0.11886 0.43678 0.0
C400 C 0.93202 0.12028 0.38115 0.0
C401 C 0.84668 0.14318 0.38652 0.0
O402 O 0.8954 0.11633 0.41793 0.0
O403 O 0.87482 0.13665 0.44239 0.0
O404 O 0.89992 0.15866 0.36689 0.0
O405 O 0.89361 0.16429 0.4026 0.0
Co406 Co 0.38496 0.36302 0.89294 0.0
O407 O 0.38143 0.33224 0.90209 0.0
O408 O 0.38419 0.34258 0.86678 0.0
C409 C 0.41176 0.3714 0.91849 0.0
O410 O 0.38859 0.39493 0.87916 0.0
Co411 Co 0.37209 0.39783 0.93038 0.0
O412 O 0.3846 0.41929 0.90819 0.0
C413 C 0.33711 0.37179 0.90685 0.0
C414 C 0.38155 0.32633 0.88129 0.0
C415 C 0.38885 0.41509 0.88766 0.0
O416 O 0.35136 0.36595 0.89187 0.0
O417 O 0.34253 0.38218 0.92494 0.0
O418 O 0.41746 0.36198 0.89974 0.0
O419 O 0.39054 0.37306 0.92173 0.0
Co420 Co 0.09811 0.87358 0.39335 0.0
O421 O 0.0658 0.8733 0.39345 0.0
O422 O 0.0858 0.8946 0.37079 0.0
C423 C 0.10097 0.83589 0.39355 0.0
O424 O 0.13294 0.876 0.39017 0.0
Co425 Co 0.11884 0.85205 0.43675 0.0
O426 O 0.14704 0.8568 0.41987 0.0
C427 C 0.09839 0.89665 0.43849 0.0
C428 C 0.066 0.88792 0.37761 0.0
C429 C 0.14966 0.8679 0.40172 0.0
O430 O 0.09846 0.89792 0.41697 0.0
O431 O 0.10309 0.87876 0.44935 0.0
O432 O 0.09826 0.8464 0.37467 0.0
O433 O 0.09953 0.8482 0.41119 0.0
Co434 Co 0.63262 0.65087 0.88955 0.0
O435 O 0.63783 0.68171 0.89834 0.0
O436 O 0.63784 0.67047 0.86323 0.0
C437 C 0.60238 0.64623 0.91177 0.0
O438 O 0.6278 0.61887 0.87587 0.0
Co439 Co 0.63604 0.61538 0.92845 0.0
O440 O 0.62331 0.5951 0.90526 0.0
C441 C 0.67726 0.63461 0.90815 0.0
C442 C 0.63993 0.68704 0.87751 0.0
C443 C 0.62345 0.59909 0.88425 0.0
O444 O 0.66573 0.64461 0.89285 0.0
O445 O 0.66836 0.62412 0.92469 0.0
O446 O 0.59984 0.65512 0.89208 0.0
O447 O 0.62274 0.64251 0.91777 0.0
Co448 Co 0.617 0.88967 0.88138 0.0
O449 O 0.60898 0.85872 0.87534 0.0
O450 O 0.64387 0.871 0.87654 0.0
C451 C 0.59363 0.89265 0.91103 0.0
O452 O 0.63005 0.92188 0.8872 0.0
Co453 Co 0.57786 0.92436 0.87734 0.0
O454 O 0.60018 0.94477 0.8914 0.0
C455 C 0.59948 0.90649 0.83653 0.0
C456 C 0.62999 0.85409 0.87367 0.0
C457 C 0.62126 0.94131 0.89172 0.0
O458 O 0.61453 0.89659 0.8484 0.0
O459 O 0.58266 0.91667 0.845 0.0
O460 O 0.61351 0.88432 0.9138 0.0
O461 O 0.5882 0.89699 0.8906 0.0
Co462 Co 0.62975 0.12926 0.37237 0.0
O463 O 0.59759 0.12736 0.36884 0.0
O464 O 0.61433 0.14509 0.39687 0.0
C465 C 0.63634 0.13848 0.33638 0.0
O466 O 0.66367 0.13436 0.37958 0.0
Co467 Co 0.65817 0.09545 0.34405 0.0
O468 O 0.68259 0.11662 0.35194 0.0
C469 C 0.63725 0.08071 0.38658 0.0
C470 C 0.59563 0.13916 0.38685 0.0
C471 C 0.68201 0.12974 0.3688 0.0
O472 O 0.62952 0.10047 0.39023 0.0
O473 O 0.64799 0.07529 0.36886 0.0
O474 O 0.63087 0.15392 0.35068 0.0
O475 O 0.63544 0.11816 0.34375 0.0
Co476 Co 0.40548 0.12398 0.88522 0.0
O477 O 0.41306 0.15477 0.87867 0.0
O478 O 0.37836 0.14279 0.88341 0.0
C479 C 0.43224 0.12046 0.91203 0.0
O480 O 0.39311 0.09193 0.89198 0.0
Co481 Co 0.44381 0.08982 0.87515 0.0
O482 O 0.42307 0.06878 0.89062 0.0
C483 C 0.41835 0.11025 0.83825 0.0
C484 C 0.39201 0.15953 0.87904 0.0
C485 C 0.40233 0.07235 0.89432 0.0
O486 O 0.40374 0.11746 0.85222 0.0
O487 O 0.43684 0.10111 0.84412 0.0
O488 O 0.41289 0.1289 0.91707 0.0
O489 O 0.4351 0.1164 0.89104 0.0
Co490 Co 0.36678 0.87801 0.37399 0.0
O491 O 0.39898 0.88109 0.37124 0.0
O492 O 0.3827 0.86086 0.3975 0.0
C493 C 0.36125 0.87111 0.33725 0.0
O494 O 0.33269 0.87164 0.38008 0.0
Co495 Co 0.33741 0.91239 0.34757 0.0
O496 O 0.3144 0.88876 0.35164 0.0
C497 C 0.35789 0.92526 0.39117 0.0
C498 C 0.40129 0.86806 0.3883 0.0
C499 C 0.31459 0.8754 0.3683 0.0
O500 O 0.36619 0.90556 0.39368 0.0
O501 O 0.34682 0.93136 0.37377 0.0
O502 O 0.36664 0.85488 0.35068 0.0
O503 O 0.36126 0.89091 0.34603 0.0
Co504 Co 0.63064 0.1306 0.1368 0.0
O505 O 0.62893 0.09852 0.14076 0.0
O506 O 0.64684 0.11474 0.11278 0.0
C507 C 0.63928 0.13777 0.17292 0.0
O508 O 0.63552 0.16447 0.12929 0.0
Co509 Co 0.5964 0.15945 0.16403 0.0
O510 O 0.61826 0.18348 0.15712 0.0
C511 C 0.58263 0.13849 0.12098 0.0
C512 C 0.64095 0.09622 0.123 0.0
C513 C 0.63117 0.18286 0.14019 0.0
O514 O 0.60216 0.12991 0.11833 0.0
O515 O 0.57696 0.14995 0.13819 0.0
O516 O 0.65497 0.13226 0.15897 0.0
O517 O 0.61906 0.13668 0.16514 0.0
Co518 Co 0.38604 0.10991 0.62723 0.0
O519 O 0.35524 0.10177 0.63319 0.0
O520 O 0.36673 0.13672 0.62928 0.0
C521 C 0.39036 0.08399 0.59994 0.0
O522 O 0.41816 0.12261 0.62111 0.0
Co523 Co 0.42013 0.07127 0.63733 0.0
O524 O 0.44136 0.09263 0.62299 0.0
C525 C 0.39901 0.09583 0.6742 0.0
C526 C 0.35013 0.12273 0.63311 0.0
C527 C 0.43782 0.1134 0.61925 0.0
O528 O 0.3922 0.11088 0.6604 0.0
O529 O 0.40807 0.0774 0.66813 0.0
O530 O 0.38156 0.10325 0.59512 0.0
O531 O 0.39403 0.08062 0.62093 0.0
Co532 Co 0.37811 0.87879 0.13602 0.0
O533 O 0.38103 0.91103 0.1379 0.0
O534 O 0.36162 0.89364 0.11143 0.0
C535 C 0.36999 0.87422 0.17256 0.0
O536 O 0.372 0.84465 0.13065 0.0
Co537 Co 0.41192 0.85061 0.16464 0.0
O538 O 0.38899 0.82701 0.15966 0.0
C539 C 0.42569 0.86893 0.12053 0.0
C540 C 0.36846 0.91258 0.12033 0.0
C541 C 0.37585 0.82688 0.14274 0.0
O542 O 0.40617 0.87741 0.11726 0.0
O543 O 0.43136 0.85863 0.13851 0.0
O544 O 0.35424 0.87934 0.1584 0.0
O545 O 0.39009 0.87418 0.16461 0.0
Co546 Co 0.63224 0.90309 0.62622 0.0
O547 O 0.66284 0.91245 0.63197 0.0
O548 O 0.65172 0.87715 0.63256 0.0
C549 C 0.62861 0.92501 0.59547 0.0
O550 O 0.60059 0.88861 0.62106 0.0
Co551 Co 0.59588 0.94061 0.62802 0.0
O552 O 0.57686 0.91716 0.61381 0.0
C553 C 0.61467 0.92193 0.67004 0.0
C554 C 0.66814 0.89171 0.63481 0.0
C555 C 0.58101 0.89627 0.61523 0.0
O556 O 0.62523 0.90681 0.65897 0.0
O557 O 0.60365 0.93777 0.66068 0.0
O558 O 0.63752 0.90529 0.59372 0.0
O559 O 0.6239 0.93114 0.61558 0.0
Co560 Co 0.88557 0.6143 0.87016 0.0
O561 O 0.87931 0.60408 0.84005 0.0
O562 O 0.88134 0.63976 0.84938 0.0
C563 C 0.91468 0.59074 0.87529 0.0
O564 O 0.89161 0.62965 0.90105 0.0
Co565 Co 0.88054 0.57852 0.90824 0.0
O566 O 0.89687 0.60157 0.926 0.0
C567 C 0.84022 0.60045 0.88938 0.0
C568 C 0.8781 0.62472 0.83369 0.0
C569 C 0.89691 0.62235 0.92094 0.0
O570 O 0.85257 0.61333 0.87716 0.0
O571 O 0.84808 0.58463 0.90159 0.0
O572 O 0.91786 0.60986 0.86533 0.0
O573 O 0.8941 0.58594 0.88001 0.0
Co574 Co 0.86699 0.39198 0.10622 0.0
O575 O 0.8641 0.39671 0.07437 0.0
O576 O 0.89016 0.37548 0.08951 0.0
C577 C 0.83015 0.38542 0.11141 0.0
O578 O 0.87302 0.38364 0.13967 0.0
Co579 Co 0.84129 0.42524 0.13767 0.0
O580 O 0.84528 0.40042 0.15913 0.0
C581 C 0.88615 0.43759 0.11994 0.0
C582 C 0.88085 0.38355 0.07137 0.0
C583 C 0.86148 0.3867 0.1579 0.0
O584 O 0.88764 0.41898 0.1091 0.0
O585 O 0.86901 0.44328 0.13141 0.0
O586 O 0.843 0.36928 0.10475 0.0
O587 O 0.83948 0.40501 0.11259 0.0
Co588 Co 0.12524 0.37297 0.62991 0.0
O589 O 0.12177 0.37295 0.5977 0.0
O590 O 0.14371 0.39683 0.61584 0.0
C591 C 0.13001 0.33552 0.63166 0.0
O592 O 0.13226 0.3762 0.66413 0.0
Co593 Co 0.09039 0.34556 0.6579 0.0
O594 O 0.11445 0.34699 0.68069 0.0
C595 C 0.07955 0.39152 0.64222 0.0
C596 C 0.13589 0.38943 0.59667 0.0
C597 C 0.12839 0.36331 0.68135 0.0
O598 O 0.09886 0.39376 0.63283 0.0
O599 O 0.07299 0.37359 0.65219 0.0
O600 O 0.14699 0.34874 0.62771 0.0
O601 O 0.11076 0.34515 0.63296 0.0
Co602 Co 0.12368 0.61744 0.14485 0.0
O603 O 0.12704 0.60884 0.17578 0.0
O604 O 0.12431 0.64398 0.16483 0.0
C605 C 0.097 0.59154 0.13685 0.0
O606 O 0.1202 0.63062 0.11268 0.0
Co607 Co 0.13702 0.57937 0.11091 0.0
O608 O 0.12502 0.60119 0.08894 0.0
C609 C 0.17144 0.60312 0.13735 0.0
C610 C 0.1269 0.62975 0.1813 0.0
C611 C 0.12041 0.62174 0.09269 0.0
O612 O 0.15732 0.61858 0.14206 0.0
O613 O 0.16599 0.58471 0.12752 0.0
O614 O 0.09117 0.61042 0.14593 0.0
O615 O 0.11824 0.58844 0.13532 0.0
Co616 Co 0.8967 0.62713 0.63021 0.0
O617 O 0.90447 0.63246 0.66116 0.0
O618 O 0.86997 0.62528 0.64976 0.0
C619 C 0.92514 0.60318 0.62395 0.0
O620 O 0.8844 0.62113 0.59798 0.0
Co621 Co 0.93365 0.64358 0.59645 0.0
O622 O 0.91367 0.62802 0.57459 0.0
C623 C 0.90586 0.6761 0.62032 0.0
C624 C 0.88363 0.62997 0.66639 0.0
C625 C 0.89353 0.62146 0.57816 0.0
O626 O 0.89226 0.66026 0.62603 0.0
O627 O 0.92475 0.67272 0.61079 0.0
O628 O 0.90659 0.59578 0.63275 0.0
O629 O 0.92639 0.62461 0.62151 0.0
Co630 Co 0.1354 0.38377 0.8981 0.0
O631 O 0.1362 0.3888 0.9301 0.0
O632 O 0.1104 0.36798 0.91327 0.0
C633 C 0.1721 0.37546 0.89584 0.0
O634 O 0.13103 0.37555 0.8643 0.0
Co635 Co 0.16527 0.41545 0.8685 0.0
O636 O 0.16043 0.39148 0.84614 0.0
C637 C 0.1201 0.42999 0.8831 0.0
C638 C 0.11871 0.37604 0.93197 0.0
C639 C 0.14332 0.3785 0.84651 0.0
O640 O 0.11672 0.41153 0.89381 0.0
O641 O 0.13833 0.43484 0.87278 0.0
O642 O 0.15757 0.36009 0.90135 0.0
O643 O 0.16434 0.39551 0.89384 0.0
Co644 Co 0.10952 0.6235 0.38478 0.0
O645 O 0.09971 0.62819 0.35429 0.0
O646 O 0.13526 0.62791 0.36442 0.0
C647 C 0.08604 0.59405 0.39054 0.0
O648 O 0.12449 0.61931 0.41615 0.0
Co649 Co 0.07338 0.62906 0.42223 0.0
O650 O 0.09615 0.61367 0.44068 0.0
C651 C 0.09429 0.66909 0.40134 0.0
C652 C 0.12043 0.63022 0.34839 0.0
C653 C 0.117 0.61427 0.43601 0.0
O654 O 0.10783 0.65665 0.39027 0.0
O655 O 0.0786 0.66134 0.41386 0.0
O656 O 0.10535 0.59089 0.38108 0.0
O657 O 0.08116 0.61467 0.39449 0.0
Co658 Co 0.88129 0.3728 0.37373 0.0
O659 O 0.88463 0.36934 0.40568 0.0
O660 O 0.86311 0.39492 0.39019 0.0
C661 C 0.87635 0.3358 0.3676 0.0
O662 O 0.87421 0.37934 0.34009 0.0
Co663 Co 0.9167 0.34913 0.34331 0.0
O664 O 0.89312 0.3531 0.32045 0.0
C665 C 0.92741 0.39313 0.36428 0.0
C666 C 0.87068 0.38549 0.40846 0.0
C667 C 0.87865 0.36862 0.32161 0.0
O668 O 0.90779 0.3942 0.37315 0.0
O669 O 0.93422 0.37639 0.35276 0.0
O670 O 0.85943 0.34804 0.37342 0.0
O671 O 0.89562 0.34585 0.36746 0.0
H672 H 0.08997 0.31228 0.41689 0.0
H673 H 0.11103 0.19867 0.43326 0.0
H674 H 0.1519 0.31253 0.37957 0.0
H675 H 0.14811 0.20344 0.37138 0.0
H676 H 0.10681 0.2393 0.43325 0.0
H677 H 0.09181 0.27153 0.41967 0.0
C678 C 0.10419 0.30376 0.40962 0.0
C679 C 0.12089 0.3158 0.39811 0.0
C680 C 0.11543 0.23151 0.41939 0.0
C681 C 0.12327 0.26907 0.40141 0.0
C682 C 0.11797 0.20827 0.41945 0.0
C683 C 0.12981 0.19767 0.40221 0.0
C684 C 0.12483 0.24428 0.40193 0.0
C685 C 0.13868 0.21095 0.38489 0.0
C686 C 0.1053 0.28045 0.41132 0.0
C687 C 0.13878 0.30389 0.38877 0.0
N688 N 0.13616 0.23362 0.38528 0.0
N689 N 0.1394 0.28112 0.39046 0.0
H690 H 0.30151 0.63707 0.93783 0.0
H691 H 0.20794 0.56481 0.87391 0.0
H692 H 0.31673 0.59025 0.88476 0.0
H693 H 0.19237 0.62158 0.91608 0.0
H694 H 0.24775 0.57307 0.87871 0.0
H695 H 0.26161 0.63089 0.93092 0.0
C696 C 0.29649 0.62547 0.92468 0.0
C697 C 0.31257 0.61402 0.91195 0.0
C698 C 0.23566 0.58377 0.88687 0.0
C699 C 0.2667 0.60688 0.90401 0.0
C700 C 0.21285 0.57901 0.88427 0.0
C701 C 0.19668 0.59245 0.89475 0.0
C702 C 0.24251 0.60199 0.90022 0.0
C703 C 0.2042 0.61074 0.90772 0.0
C704 C 0.27365 0.62204 0.92071 0.0
C705 C 0.30496 0.59942 0.89499 0.0
N706 N 0.2266 0.61489 0.9102 0.0
N707 N 0.28254 0.59613 0.89163 0.0
H708 H 0.87394 0.81092 0.3548 0.0
H709 H 0.88994 0.69018 0.40872 0.0
H710 H 0.87424 0.80112 0.42653 0.0
H711 H 0.92535 0.71046 0.34892 0.0
H712 H 0.87701 0.72899 0.4133 0.0
H713 H 0.88604 0.77186 0.34997 0.0
C714 C 0.87648 0.80051 0.36948 0.0
C715 C 0.8732 0.80917 0.39108 0.0
C716 C 0.88762 0.72484 0.39921 0.0
C717 C 0.88652 0.7647 0.38569 0.0
C718 C 0.89491 0.70277 0.39655 0.0
C719 C 0.90884 0.6972 0.37852 0.0
C720 C 0.89385 0.74121 0.3834 0.0
C721 C 0.91482 0.71413 0.3632 0.0
C722 C 0.88342 0.77834 0.36673 0.0
C723 C 0.87675 0.79507 0.40959 0.0
N724 N 0.90715 0.73535 0.36589 0.0
N725 N 0.88305 0.77344 0.40648 0.0
H726 H 0.80456 0.45963 0.85957 0.0
H727 H 0.71894 0.39013 0.93585 0.0
H728 H 0.82503 0.40422 0.90143 0.0
H729 H 0.69789 0.43018 0.87927 0.0
H730 H 0.75804 0.39856 0.92674 0.0
H731 H 0.7656 0.45241 0.86998 0.0
C732 C 0.80091 0.446 0.87105 0.0
C733 C 0.81816 0.43248 0.87961 0.0
C734 C 0.74486 0.40551 0.91634 0.0
C735 C 0.77346 0.42419 0.8916 0.0
C736 C 0.7225 0.40081 0.92158 0.0
C737 C 0.70504 0.40944 0.90828 0.0
C738 C 0.74987 0.41914 0.89782 0.0
C739 C 0.71077 0.42308 0.88993 0.0
C740 C 0.77862 0.44184 0.87689 0.0
C741 C 0.8123 0.41501 0.89433 0.0
N742 N 0.7327 0.42756 0.88528 0.0
N743 N 0.79043 0.4114 0.89992 0.0
H744 H 0.07688 0.71913 0.65408 0.0
H745 H 0.13685 0.80439 0.57003 0.0
H746 H 0.12602 0.69823 0.60547 0.0
H747 H 0.09986 0.82563 0.62837 0.0
H748 H 0.13177 0.7654 0.58159 0.0
H749 H 0.0841 0.75811 0.64393 0.0
C750 C 0.08927 0.72273 0.64128 0.0
C751 C 0.10079 0.70533 0.63051 0.0
C752 C 0.12482 0.77859 0.59189 0.0
C753 C 0.10905 0.75011 0.61874 0.0
C754 C 0.12758 0.8009 0.58525 0.0
C755 C 0.11869 0.8184 0.59821 0.0
C756 C 0.1129 0.77365 0.61154 0.0
C757 C 0.10701 0.81275 0.61785 0.0
C758 C 0.09342 0.74504 0.63555 0.0
C759 C 0.11678 0.71109 0.61422 0.0
N760 N 0.10437 0.79086 0.62385 0.0
N761 N 0.12031 0.73302 0.60869 0.0
H762 H 0.69458 0.62937 0.14571 0.0
H763 H 0.81556 0.62747 0.08949 0.0
H764 H 0.70318 0.6291 0.07385 0.0
H765 H 0.80119 0.5922 0.15108 0.0
H766 H 0.77536 0.63607 0.08577 0.0
H767 H 0.73506 0.62296 0.15023 0.0
C768 C 0.70499 0.62793 0.13093 0.0
C769 C 0.69559 0.6296 0.10939 0.0
C770 C 0.78114 0.62654 0.10011 0.0
C771 C 0.74167 0.62289 0.11443 0.0
C772 C 0.80399 0.62177 0.1023 0.0
C773 C 0.81158 0.60899 0.12051 0.0
C774 C 0.76602 0.61892 0.11654 0.0
C775 C 0.79594 0.60191 0.13665 0.0
C776 C 0.728 0.6243 0.13351 0.0
C777 C 0.70978 0.6277 0.09076 0.0
N778 N 0.7739 0.60704 0.13435 0.0
N779 N 0.73217 0.62462 0.09369 0.0
H780 H 0.89107 0.19257 0.63094 0.0
H781 H 0.92373 0.31356 0.58328 0.0
H782 H 0.91776 0.20252 0.56446 0.0
H783 H 0.87122 0.30378 0.63205 0.0
H784 H 0.92716 0.27278 0.57982 0.0
H785 H 0.89008 0.23353 0.63595 0.0
C786 C 0.8972 0.20336 0.61763 0.0
C787 C 0.90449 0.19423 0.59725 0.0
C788 C 0.91482 0.27958 0.5912 0.0
C789 C 0.90324 0.24078 0.60278 0.0
C790 C 0.91281 0.3028 0.59313 0.0
C791 C 0.89706 0.31197 0.60786 0.0
C792 C 0.90132 0.26546 0.60443 0.0
C793 C 0.8834 0.29732 0.62033 0.0
C794 C 0.89635 0.22666 0.62038 0.0
C795 C 0.91194 0.20893 0.5804 0.0
N796 N 0.88597 0.27471 0.61848 0.0
N797 N 0.91112 0.23149 0.58353 0.0
H798 H 0.31086 0.35722 0.14909 0.0
H799 H 0.19991 0.41921 0.10785 0.0
H800 H 0.30893 0.39922 0.09015 0.0
H801 H 0.19857 0.36144 0.1515 0.0
H802 H 0.24044 0.41473 0.10347 0.0
H803 H 0.27026 0.3618 0.15323 0.0
C804 C 0.30193 0.36758 0.13716 0.0
C805 C 0.31322 0.37783 0.11923 0.0
C806 C 0.23125 0.40295 0.11389 0.0
C807 C 0.26689 0.38305 0.1238 0.0
C808 C 0.20813 0.40548 0.11637 0.0
C809 C 0.19591 0.39065 0.13004 0.0
C810 C 0.24225 0.38568 0.12543 0.0
C811 C 0.20738 0.37317 0.14073 0.0
C812 C 0.27875 0.37004 0.13943 0.0
C813 C 0.30083 0.39098 0.10418 0.0
N814 N 0.22997 0.37127 0.13835 0.0
N815 N 0.27832 0.39325 0.10682 0.0
H816 H 0.35957 0.13621 0.19903 0.0
H817 H 0.4155 0.08869 0.31131 0.0
H818 H 0.41627 0.09165 0.19933 0.0
H819 H 0.37201 0.14621 0.31044 0.0
H820 H 0.41403 0.08755 0.27034 0.0
H821 H 0.36091 0.13718 0.24015 0.0
C822 C 0.37206 0.12636 0.20776 0.0
C823 C 0.38786 0.11385 0.19581 0.0
C824 C 0.40495 0.10054 0.27909 0.0
C825 C 0.38965 0.1151 0.24266 0.0
C826 C 0.40586 0.10125 0.30245 0.0
C827 C 0.39388 0.11758 0.31424 0.0
C828 C 0.39173 0.11609 0.26742 0.0
C829 C 0.3816 0.13342 0.30197 0.0
C830 C 0.37297 0.12711 0.23119 0.0
C831 C 0.40382 0.10155 0.20791 0.0
N832 N 0.38066 0.13215 0.2792 0.0
N833 N 0.40433 0.10251 0.23067 0.0
H834 H 0.40917 0.87942 0.69287 0.0
H835 H 0.3893 0.90041 0.82403 0.0
H836 H 0.36839 0.93301 0.71885 0.0
H837 H 0.44171 0.85823 0.79796 0.0
H838 H 0.37826 0.90954 0.7855 0.0
H839 H 0.41823 0.86843 0.73139 0.0
C840 C 0.40206 0.88883 0.70664 0.0
C841 C 0.38808 0.90724 0.70259 0.0
C842 C 0.39215 0.89826 0.78827 0.0
C843 C 0.3983 0.8947 0.74667 0.0
C844 C 0.39841 0.89298 0.81025 0.0
C845 C 0.41653 0.87862 0.81427 0.0
C846 C 0.40396 0.88895 0.7702 0.0
C847 C 0.42775 0.86953 0.79571 0.0
C848 C 0.40728 0.88259 0.72862 0.0
C849 C 0.37938 0.91882 0.72113 0.0
N850 N 0.42127 0.87483 0.77451 0.0
N851 N 0.38461 0.91234 0.74234 0.0
H852 H 0.64384 0.87197 0.19781 0.0
H853 H 0.58192 0.91569 0.30793 0.0
H854 H 0.58639 0.91555 0.19599 0.0
H855 H 0.62697 0.85938 0.30814 0.0
H856 H 0.58493 0.91761 0.26711 0.0
H857 H 0.64056 0.8699 0.23873 0.0
C858 C 0.63076 0.88138 0.20605 0.0
C859 C 0.61534 0.89393 0.19353 0.0
C860 C 0.594 0.90469 0.27605 0.0
C861 C 0.61132 0.8914 0.24017 0.0
C862 C 0.5922 0.90352 0.29933 0.0
C863 C 0.60419 0.88734 0.31139 0.0
C864 C 0.60814 0.88976 0.26476 0.0
C865 C 0.61733 0.87204 0.29944 0.0
C866 C 0.62875 0.87999 0.22936 0.0
C867 C 0.5986 0.90563 0.20503 0.0
N868 N 0.61914 0.87376 0.27676 0.0
N869 N 0.59701 0.90406 0.22769 0.0
H870 H 0.57198 0.1467 0.79076 0.0
H871 H 0.64631 0.06703 0.71393 0.0
H872 H 0.62672 0.10719 0.81672 0.0
H873 H 0.6062 0.12095 0.68728 0.0
H874 H 0.63609 0.07845 0.75183 0.0
H875 H 0.58122 0.13433 0.7529 0.0
C876 C 0.5859 0.13536 0.78854 0.0
C877 C 0.59863 0.12801 0.807 0.0
C878 C 0.62953 0.08777 0.73769 0.0
C879 C 0.60921 0.11375 0.7636 0.0
C880 C 0.63526 0.08121 0.71601 0.0
C881 C 0.62714 0.09308 0.69734 0.0
C882 C 0.61537 0.10618 0.74078 0.0
C883 C 0.61295 0.11137 0.70115 0.0
C884 C 0.59121 0.12839 0.76688 0.0
C885 C 0.61653 0.11339 0.803 0.0
N886 N 0.60748 0.11733 0.72245 0.0
N887 N 0.62124 0.10668 0.78174 0.0
H888 H 0.89546 0.81858 0.64714 0.0
H889 H 0.86448 0.69334 0.61235 0.0
H890 H 0.86401 0.80366 0.58344 0.0
H891 H 0.93114 0.71154 0.63505 0.0
H892 H 0.85414 0.73324 0.61337 0.0
H893 H 0.89824 0.77801 0.6545 0.0
C894 C 0.88857 0.80673 0.63505 0.0
C895 C 0.87958 0.8142 0.61465 0.0
C896 C 0.87086 0.72831 0.61852 0.0
C897 C 0.88232 0.76843 0.62307 0.0
C898 C 0.87674 0.70571 0.61799 0.0
C899 C 0.89872 0.69939 0.62343 0.0
C900 C 0.88689 0.74439 0.6252 0.0
C901 C 0.9141 0.71592 0.63052 0.0
C902 C 0.89027 0.78376 0.6392 0.0
C903 C 0.87113 0.79837 0.59931 0.0
N904 N 0.90788 0.73778 0.63124 0.0
N905 N 0.8727 0.77611 0.60382 0.0
H906 H 0.80228 0.35126 0.09795 0.0
H907 H 0.6937 0.40537 0.15339 0.0
H908 H 0.80425 0.41181 0.13781 0.0
H909 H 0.69266 0.3713 0.08941 0.0
H910 H 0.73414 0.39825 0.15631 0.0
H911 H 0.76146 0.34899 0.10359 0.0
C912 C 0.79418 0.36379 0.10823 0.0
C913 C 0.80645 0.38193 0.11716 0.0
C914 C 0.72488 0.39208 0.14183 0.0
C915 C 0.76033 0.37926 0.12388 0.0
C916 C 0.70191 0.39613 0.14014 0.0
C917 C 0.69 0.38918 0.12098 0.0
C918 C 0.73573 0.38069 0.12442 0.0
C919 C 0.70132 0.37718 0.10432 0.0
C920 C 0.77101 0.36251 0.11139 0.0
C921 C 0.7953 0.39773 0.13039 0.0
N922 N 0.72364 0.37337 0.10638 0.0
N923 N 0.77279 0.3961 0.13328 0.0
H924 H 0.16379 0.19221 0.63166 0.0
H925 H 0.16841 0.31055 0.63196 0.0
H926 H 0.10214 0.20346 0.59503 0.0
H927 H 0.09608 0.30466 0.63185 0.0
H928 H 0.17081 0.26965 0.62808 0.0
H929 H 0.16551 0.23236 0.64088 0.0
C930 C 0.1507 0.20313 0.62548 0.0
C931 C 0.13289 0.19456 0.6124 0.0
C932 C 0.15446 0.2773 0.62941 0.0
C933 C 0.13478 0.24022 0.62283 0.0
C934 C 0.15308 0.30061 0.63149 0.0
C935 C 0.13202 0.31093 0.63215 0.0
C936 C 0.13461 0.26444 0.62774 0.0
C937 C 0.11265 0.29736 0.63139 0.0
C938 C 0.15179 0.22601 0.63062 0.0
C939 C 0.11632 0.20939 0.60491 0.0
N940 N 0.11442 0.27483 0.62888 0.0
N941 N 0.11759 0.23146 0.61039 0.0
H942 H 0.20198 0.57305 0.15242 0.0
H943 H 0.30552 0.63697 0.10837 0.0
H944 H 0.19499 0.64228 0.13254 0.0
H945 H 0.31233 0.59485 0.16684 0.0
H946 H 0.2649 0.63811 0.11454 0.0
H947 H 0.24266 0.57893 0.15588 0.0
C948 C 0.20905 0.58954 0.14905 0.0
C949 C 0.19533 0.6072 0.14208 0.0
C950 C 0.27539 0.62897 0.12621 0.0
C951 C 0.24149 0.61385 0.14553 0.0
C952 C 0.29847 0.62819 0.12264 0.0
C953 C 0.31213 0.61567 0.13705 0.0
C954 C 0.26599 0.61656 0.14387 0.0
C955 C 0.30226 0.60466 0.15536 0.0
C956 C 0.23214 0.59291 0.15115 0.0
C957 C 0.20514 0.62829 0.13799 0.0
N958 N 0.27963 0.60494 0.158 0.0
N959 N 0.2278 0.63095 0.13929 0.0
H960 H 0.87138 0.20136 0.40957 0.0
H961 H 0.90408 0.30916 0.34345 0.0
H962 H 0.90264 0.19654 0.34457 0.0
H963 H 0.84478 0.30725 0.38475 0.0
H964 H 0.90472 0.2681 0.34369 0.0
H965 H 0.8624 0.24053 0.40172 0.0
C966 C 0.87623 0.20851 0.3936 0.0
C967 C 0.88789 0.19581 0.37774 0.0
C968 C 0.89132 0.27667 0.35232 0.0
C969 C 0.8779 0.2405 0.3688 0.0
C970 C 0.89098 0.30004 0.35224 0.0
C971 C 0.87446 0.31145 0.36425 0.0
C972 C 0.87539 0.26478 0.36503 0.0
C973 C 0.8578 0.29897 0.3753 0.0
C974 C 0.87095 0.23078 0.38908 0.0
C975 C 0.8937 0.20584 0.35727 0.0
N976 N 0.85895 0.27621 0.37585 0.0
N977 N 0.88896 0.22778 0.3535 0.0
H978 H 0.19518 0.34165 0.9157 0.0
H979 H 0.31471 0.3759 0.86713 0.0
H980 H 0.2035 0.39861 0.87169 0.0
H981 H 0.30526 0.35869 0.93677 0.0
H982 H 0.27382 0.37325 0.86135 0.0
H983 H 0.23607 0.33674 0.91596 0.0
C984 C 0.20559 0.35284 0.90577 0.0
C985 C 0.19614 0.3707 0.89383 0.0
C986 C 0.28085 0.36974 0.87776 0.0
C987 C 0.24242 0.3649 0.89375 0.0
C988 C 0.30404 0.37114 0.88105 0.0
C989 C 0.31315 0.36766 0.90249 0.0
C990 C 0.26697 0.3642 0.8959 0.0
C991 C 0.29874 0.36169 0.92006 0.0
C992 C 0.2288 0.35006 0.906 0.0
C993 C 0.21027 0.38479 0.88128 0.0
N994 N 0.27627 0.3601 0.91638 0.0
N995 N 0.23282 0.3816 0.88155 0.0
H996 H 0.10081 0.81026 0.43123 0.0
H997 H 0.1145 0.69334 0.3679 0.0
H998 H 0.10709 0.80604 0.3592 0.0
H999 H 0.08104 0.70056 0.43161 0.0
H1000 H 0.11903 0.73429 0.36606 0.0
H1001 H 0.10143 0.76936 0.4333 0.0
C1002 C 0.10254 0.80071 0.41586 0.0
C1003 C 0.10366 0.81145 0.39497 0.0
C1004 C 0.11074 0.72681 0.38041 0.0
C1005 C 0.10438 0.76479 0.39727 0.0
C1006 C 0.10819 0.70353 0.38152 0.0
C1007 C 0.09725 0.69361 0.39989 0.0
C1008 C 0.10265 0.74011 0.39798 0.0
C1009 C 0.08936 0.70754 0.41704 0.0
C1010 C 0.10279 0.7774 0.41706 0.0
C1011 C 0.10599 0.79831 0.3756 0.0
N1012 N 0.09229 0.7301 0.41571 0.0
N1013 N 0.10621 0.77555 0.37719 0.0
H1014 H 0.80963 0.58157 0.9179 0.0
H1015 H 0.70382 0.64938 0.8732 0.0
H1016 H 0.81538 0.63029 0.86446 0.0
H1017 H 0.70701 0.61577 0.93739 0.0
H1018 H 0.74381 0.64151 0.86779 0.0
H1019 H 0.77053 0.59167 0.92253 0.0
C1020 C 0.80266 0.59429 0.90699 0.0
C1021 C 0.81592 0.60514 0.89081 0.0
C1022 C 0.73569 0.63608 0.8831 0.0
C1023 C 0.77097 0.61696 0.89622 0.0
C1024 C 0.71292 0.64062 0.88626 0.0
C1025 C 0.70192 0.63304 0.90569 0.0
C1026 C 0.74738 0.62373 0.8994 0.0
C1027 C 0.7146 0.62178 0.92202 0.0
C1028 C 0.78032 0.60018 0.90978 0.0
C1029 C 0.80583 0.62153 0.87721 0.0
N1030 N 0.73654 0.6173 0.9184 0.0
N1031 N 0.7839 0.62696 0.88022 0.0
H1032 H 0.63038 0.88466 0.81028 0.0
H1033 H 0.59182 0.94867 0.69915 0.0
H1034 H 0.57487 0.93075 0.80658 0.0
H1035 H 0.63609 0.89162 0.69744 0.0
H1036 H 0.58879 0.94451 0.73953 0.0
H1037 H 0.63539 0.88858 0.76964 0.0
C1038 C 0.61921 0.89551 0.80097 0.0
C1039 C 0.60219 0.90741 0.81191 0.0
C1040 C 0.59918 0.93288 0.73035 0.0
C1041 C 0.608 0.91209 0.76565 0.0
C1042 C 0.60102 0.93531 0.70724 0.0
C1043 C 0.61412 0.92037 0.69479 0.0
C1044 C 0.61057 0.91546 0.74123 0.0
C1045 C 0.62569 0.90344 0.70634 0.0
C1046 C 0.62209 0.89773 0.77782 0.0
C1047 C 0.5882 0.9212 0.79897 0.0
N1048 N 0.62361 0.9014 0.72897 0.0
N1049 N 0.5915 0.92322 0.7766 0.0
H1050 H 0.67581 0.12658 0.19817 0.0
H1051 H 0.62462 0.17512 0.31168 0.0
H1052 H 0.61308 0.1621 0.20104 0.0
H1053 H 0.66131 0.11312 0.30808 0.0
H1054 H 0.63004 0.18017 0.27114 0.0
H1055 H 0.68011 0.13159 0.23889 0.0
C1056 C 0.66322 0.13585 0.2073 0.0
C1057 C 0.64391 0.14366 0.19643 0.0
C1058 C 0.63723 0.16571 0.27941 0.0
C1059 C 0.64886 0.14966 0.24251 0.0
C1060 C 0.63421 0.16285 0.30244 0.0
C1061 C 0.64226 0.14352 0.31303 0.0
C1062 C 0.64875 0.14934 0.26719 0.0
C1063 C 0.65457 0.12809 0.30042 0.0
C1064 C 0.66566 0.13863 0.23043 0.0
C1065 C 0.62806 0.15555 0.20892 0.0
N1066 N 0.65736 0.13127 0.27807 0.0
N1067 N 0.63082 0.1581 0.23139 0.0
H1068 H 0.4112 0.13462 0.69513 0.0
H1069 H 0.3787 0.09926 0.81815 0.0
H1070 H 0.38524 0.06791 0.70763 0.0
H1071 H 0.4458 0.12326 0.80417 0.0
H1072 H 0.37098 0.09787 0.77755 0.0
H1073 H 0.4139 0.14088 0.7359 0.0
C1074 C 0.40565 0.12152 0.7065 0.0
C1075 C 0.39808 0.10071 0.69826 0.0
C1076 C 0.38723 0.10371 0.78353 0.0
C1077 C 0.40064 0.10791 0.74425 0.0
C1078 C 0.39163 0.10458 0.80651 0.0
C1079 C 0.41293 0.11125 0.81427 0.0
C1080 C 0.40405 0.11028 0.76848 0.0
C1081 C 0.42924 0.11786 0.79868 0.0
C1082 C 0.40729 0.12506 0.72957 0.0
C1083 C 0.39127 0.08412 0.7135 0.0
N1084 N 0.42442 0.11733 0.77639 0.0
N1085 N 0.39261 0.0881 0.7359 0.0
H1086 H 0.39652 0.85159 0.20207 0.0
H1087 H 0.33838 0.89819 0.30852 0.0
H1088 H 0.33311 0.8857 0.19677 0.0
H1089 H 0.37563 0.83647 0.31128 0.0
H1090 H 0.33663 0.89493 0.26763 0.0
H1091 H 0.39019 0.8466 0.24227 0.0
C1092 C 0.38117 0.85783 0.20935 0.0
C1093 C 0.36537 0.86922 0.19622 0.0
C1094 C 0.34483 0.88191 0.27723 0.0
C1095 C 0.35822 0.86387 0.24204 0.0
C1096 C 0.34591 0.8838 0.30051 0.0
C1097 C 0.35731 0.86765 0.31315 0.0
C1098 C 0.35576 0.86408 0.26661 0.0
C1099 C 0.36671 0.84927 0.30205 0.0
C1100 C 0.37751 0.85486 0.23222 0.0
C1101 C 0.3457 0.87687 0.20641 0.0
N1102 N 0.36613 0.8482 0.27929 0.0
N1103 N 0.34285 0.87443 0.22887 0.0
H1104 H 0.09879 0.08158 0.57582 0.0
H1105 H 0.16158 0.09198 0.46409 0.0
H1106 H 0.17043 0.07537 0.56955 0.0
H1107 H 0.08962 0.0929 0.47162 0.0
H1108 H 0.16454 0.07145 0.49956 0.0
H1109 H 0.09432 0.07014 0.53675 0.0
C1110 C 0.1135 0.07681 0.56639 0.0
C1111 C 0.13498 0.07961 0.57561 0.0
C1112 C 0.14803 0.07548 0.49312 0.0
C1113 C 0.13028 0.0681 0.5306 0.0
C1114 C 0.14637 0.08715 0.47282 0.0
C1115 C 0.1254 0.0948 0.46549 0.0
C1116 C 0.12859 0.07175 0.50603 0.0
C1117 C 0.10618 0.08792 0.47721 0.0
C1118 C 0.11104 0.07047 0.544 0.0
C1119 C 0.15359 0.07342 0.56282 0.0
N1120 N 0.10826 0.07724 0.49716 0.0
N1121 N 0.1509 0.06869 0.54065 0.0
H1122 H 0.42681 0.65191 0.94913 0.0
H1123 H 0.41385 0.58817 0.06299 0.0
H1124 H 0.42836 0.58005 0.95646 0.0
H1125 H 0.4011 0.65829 0.05105 0.0
H1126 H 0.43543 0.58684 0.02796 0.0
H1127 H 0.43536 0.65598 0.98909 0.0
C1128 C 0.43009 0.63701 0.95901 0.0
C1129 C 0.42672 0.61564 0.9498 0.0
C1130 C 0.4285 0.60268 0.03338 0.0
C1131 C 0.43509 0.62001 0.9955 0.0
C1132 C 0.41622 0.60341 0.05333 0.0
C1133 C 0.40521 0.62319 0.05935 0.0
C1134 C 0.42967 0.62188 0.01965 0.0
C1135 C 0.40886 0.64256 0.04652 0.0
C1136 C 0.43472 0.63928 0.98186 0.0
C1137 C 0.43082 0.59681 0.96318 0.0
N1138 N 0.42047 0.64133 0.02707 0.0
N1139 N 0.43414 0.59938 0.9856 0.0
H1140 H 0.90969 0.91867 0.45594 0.0
H1141 H 0.91506 0.91725 0.56635 0.0
H1142 H 0.83988 0.90373 0.46812 0.0
H1143 H 0.84508 0.93433 0.56923 0.0
H1144 H 0.91536 0.92625 0.52671 0.0
H1145 H 0.91162 0.93931 0.49137 0.0
C1146 C 0.89462 0.92026 0.46593 0.0
C1147 C 0.87474 0.90913 0.45956 0.0
C1148 C 0.9001 0.92923 0.53597 0.0
C1149 C 0.87718 0.93118 0.50068 0.0
C1150 C 0.90002 0.92404 0.55873 0.0
C1151 C 0.88005 0.92506 0.57085 0.0
C1152 C 0.87979 0.9347 0.52516 0.0
C1153 C 0.86084 0.9335 0.56029 0.0
C1154 C 0.89578 0.93177 0.48627 0.0
C1155 C 0.85558 0.91189 0.47272 0.0
N1156 N 0.86096 0.93726 0.53778 0.0
N1157 N 0.85742 0.92213 0.49307 0.0
H1158 H 0.57968 0.42781 0.94312 0.0
H1159 H 0.58826 0.34941 0.04756 0.0
H1160 H 0.59619 0.3576 0.94316 0.0
H1161 H 0.59008 0.4217 0.0497 0.0
H1162 H 0.57118 0.35096 0.01029 0.0
H1163 H 0.56462 0.42381 0.98118 0.0
C1164 C 0.5791 0.41132 0.95081 0.0
C1165 C 0.58922 0.39299 0.94033 0.0
C1166 C 0.57451 0.36652 0.01919 0.0
C1167 C 0.57266 0.3884 0.98365 0.0
C1168 C 0.58412 0.36563 0.0405 0.0
C1169 C 0.59096 0.38547 0.0513 0.0
C1170 C 0.57248 0.38738 0.00845 0.0
C1171 C 0.58522 0.40606 0.04166 0.0
C1172 C 0.57065 0.40907 0.97251 0.0
C1173 C 0.58854 0.37208 0.95089 0.0
N1174 N 0.57694 0.40653 0.02035 0.0
N1175 N 0.58077 0.37041 0.97219 0.0
H1176 H 0.15421 0.92349 0.54575 0.0
H1177 H 0.12777 0.93163 0.43985 0.0
H1178 H 0.08777 0.94433 0.56408 0.0
H1179 H 0.06627 0.90678 0.46885 0.0
H1180 H 0.13468 0.95413 0.47375 0.0
H1181 H 0.14706 0.9355 0.50735 0.0
C1182 C 0.13851 0.93169 0.54183 0.0
C1183 C 0.12148 0.93286 0.55783 0.0
C1184 C 0.1192 0.94451 0.47227 0.0
C1185 C 0.11269 0.94574 0.51386 0.0
C1186 C 0.11511 0.93191 0.45286 0.0
C1187 C 0.09666 0.91712 0.45195 0.0
C1188 C 0.10474 0.94195 0.49068 0.0
C1189 C 0.08084 0.91782 0.4692 0.0
C1190 C 0.13438 0.93866 0.51989 0.0
C1191 C 0.10127 0.94323 0.55203 0.0
N1192 N 0.08549 0.92964 0.48815 0.0
N1193 N 0.09705 0.94846 0.53022 0.0
H1194 H 0.58257 0.6076 0.92565 0.0
H1195 H 0.59338 0.66442 0.04213 0.0
H1196 H 0.58371 0.67905 0.93654 0.0
H1197 H 0.59683 0.59338 0.02864 0.0
H1198 H 0.57369 0.66954 0.00631 0.0
H1199 H 0.57 0.60209 0.96417 0.0
C1200 C 0.57903 0.62219 0.93588 0.0
C1201 C 0.58442 0.64375 0.92821 0.0
C1202 C 0.57815 0.65273 0.0115 0.0
C1203 C 0.57161 0.63765 0.97259 0.0
C1204 C 0.58936 0.64982 0.03195 0.0
C1205 C 0.59742 0.62858 0.03785 0.0
C1206 C 0.57515 0.63426 0.99699 0.0
C1207 C 0.59155 0.61017 0.02427 0.0
C1208 C 0.57212 0.61908 0.95798 0.0
C1209 C 0.57978 0.66213 0.94204 0.0
N1210 N 0.58118 0.6135 1.00427 0.0
N1211 N 0.57439 0.65866 0.9639 0.0
H1212 H 0.84953 0.10079 0.45806 0.0
H1213 H 0.92872 0.07416 0.55785 0.0
H1214 H 0.92149 0.09605 0.45326 0.0
H1215 H 0.8573 0.08348 0.56218 0.0
H1216 H 0.92465 0.06575 0.51785 0.0
H1217 H 0.85052 0.07869 0.49248 0.0
C1218 C 0.86551 0.09455 0.46406 0.0
C1219 C 0.88552 0.10062 0.45331 0.0
C1220 C 0.9097 0.06866 0.52768 0.0
C1221 C 0.88695 0.07612 0.49304 0.0
C1222 C 0.91201 0.07318 0.55057 0.0
C1223 C 0.8933 0.07964 0.56306 0.0
C1224 C 0.8886 0.07118 0.51737 0.0
C1225 C 0.8721 0.0786 0.55295 0.0
C1226 C 0.8661 0.08193 0.48369 0.0
C1227 C 0.90576 0.09191 0.46137 0.0
N1228 N 0.87035 0.07505 0.53051 0.0
N1229 N 0.90605 0.08062 0.48121 0.0
H1230 H 0.43574 0.34115 0.94227 0.0
H1231 H 0.41147 0.42152 0.04245 0.0
H1232 H 0.421 0.41161 0.93766 0.0
H1233 H 0.41416 0.34934 0.04708 0.0
H1234 H 0.43209 0.41994 0.00726 0.0
H1235 H 0.44532 0.34619 0.98201 0.0
C1236 C 0.43575 0.35792 0.94936 0.0
C1237 C 0.42734 0.37598 0.93699 0.0
C1238 C 0.42868 0.40444 0.01619 0.0
C1239 C 0.43746 0.38174 0.98223 0.0
C1240 C 0.41685 0.40535 0.03623 0.0
C1241 C 0.4105 0.38546 0.04718 0.0
C1242 C 0.43355 0.38347 0.00668 0.0
C1243 C 0.41838 0.36501 0.03883 0.0
C1244 C 0.44095 0.36075 0.97209 0.0
C1245 C 0.42724 0.39728 0.94685 0.0
N1246 N 0.42894 0.36446 0.01865 0.0
N1247 N 0.43172 0.39951 0.96907 0.0
H1248 H 0.55333 0.16835 0.10354 0.0
H1249 H 0.46859 0.07221 0.10069 0.0
H1250 H 0.57186 0.09865 0.10066 0.0
H1251 H 0.45117 0.14184 0.0924 0.0
H1252 H 0.50597 0.0805 0.0863 0.0
H1253 H 0.51769 0.15906 0.08535 0.0
C1254 C 0.55004 0.15113 0.09848 0.0
C1255 C 0.56505 0.13409 0.10417 0.0
C1256 C 0.49383 0.0939 0.08694 0.0
C1257 C 0.52405 0.12314 0.08423 0.0
C1258 C 0.47246 0.08915 0.0952 0.0
C1259 C 0.45718 0.10658 0.09863 0.0
C1260 C 0.50007 0.11633 0.08282 0.0
C1261 C 0.46272 0.12803 0.09062 0.0
C1262 C 0.52971 0.14579 0.08806 0.0
C1263 C 0.5604 0.11216 0.0969 0.0
N1264 N 0.48402 0.13249 0.08377 0.0
N1265 N 0.53991 0.10715 0.08794 0.0
H1266 H 0.40843 0.94727 0.57278 0.0
H1267 H 0.35461 0.06861 0.57609 0.0
H1268 H 0.34701 0.96408 0.60652 0.0
H1269 H 0.42408 0.05516 0.59084 0.0
H1270 H 0.34939 0.02927 0.56465 0.0
H1271 H 0.41041 0.98567 0.55766 0.0
C1272 C 0.39485 0.95876 0.57613 0.0
C1273 C 0.37765 0.95284 0.59102 0.0
C1274 C 0.36601 0.03529 0.5693 0.0
C1275 C 0.37957 0.99611 0.5736 0.0
C1276 C 0.36904 0.05769 0.57567 0.0
C1277 C 0.38975 0.06485 0.58454 0.0
C1278 C 0.38394 0.02035 0.57154 0.0
C1279 C 0.40786 0.05007 0.58416 0.0
C1280 C 0.39602 0.98056 0.56755 0.0
C1281 C 0.3606 0.96825 0.59521 0.0
N1282 N 0.40446 0.02831 0.57812 0.0
N1283 N 0.3621 0.98934 0.58671 0.0
H1284 H 0.43147 0.90429 0.09144 0.0
H1285 H 0.53782 0.93534 0.09497 0.0
H1286 H 0.45972 0.84069 0.11059 0.0
H1287 H 0.55614 0.86585 0.08791 0.0
H1288 H 0.50036 0.92625 0.08161 0.0
H1289 H 0.46622 0.91345 0.07143 0.0
C1290 C 0.44482 0.89208 0.09102 0.0
C1291 C 0.44326 0.87218 0.10351 0.0
C1292 C 0.51264 0.913 0.08193 0.0
C1293 C 0.48312 0.88273 0.08146 0.0
C1294 C 0.53415 0.91826 0.08973 0.0
C1295 C 0.54972 0.90114 0.09347 0.0
C1296 C 0.50663 0.89036 0.07838 0.0
C1297 C 0.54437 0.87945 0.08587 0.0
C1298 C 0.46476 0.89738 0.07979 0.0
C1299 C 0.4607 0.85665 0.10194 0.0
N1300 N 0.52297 0.8745 0.07944 0.0
N1301 N 0.48008 0.86246 0.09156 0.0
H1302 H 0.61551 0.0594 0.56467 0.0
H1303 H 0.66649 0.93746 0.57369 0.0
H1304 H 0.67527 0.04133 0.60117 0.0
H1305 H 0.5963 0.9529 0.58005 0.0
H1306 H 0.6737 0.97598 0.56093 0.0
H1307 H 0.61384 0.02133 0.54863 0.0
C1308 C 0.62887 0.04774 0.5684 0.0
C1309 C 0.64544 0.05319 0.58435 0.0
C1310 C 0.65656 0.97054 0.56396 0.0
C1311 C 0.64378 0.0102 0.56603 0.0
C1312 C 0.6524 0.94854 0.57104 0.0
C1313 C 0.63082 0.94228 0.57812 0.0
C1314 C 0.63893 0.986 0.56378 0.0
C1315 C 0.61318 0.9573 0.57484 0.0
C1316 C 0.62787 0.0261 0.55932 0.0
C1317 C 0.66218 0.03755 0.58902 0.0
N1318 N 0.61768 0.97871 0.56831 0.0
N1319 N 0.66079 0.01659 0.58011 0.0
H1320 H 0.45698 0.89923 0.94647 0.0
H1321 H 0.56515 0.92526 0.9241 0.0
H1322 H 0.47868 0.84347 0.90616 0.0
H1323 H 0.58084 0.85553 0.93401 0.0
H1324 H 0.52731 0.91808 0.93815 0.0
H1325 H 0.49559 0.9037 0.96092 0.0
C1326 C 0.46968 0.88738 0.9414 0.0
C1327 C 0.46495 0.8712 0.92488 0.0
C1328 C 0.53932 0.90454 0.93842 0.0
C1329 C 0.50861 0.87615 0.94115 0.0
C1330 C 0.56093 0.90868 0.9304 0.0
C1331 C 0.57594 0.89093 0.92793 0.0
C1332 C 0.53257 0.88234 0.94301 0.0
C1333 C 0.56965 0.86964 0.93582 0.0
C1334 C 0.49163 0.89002 0.94952 0.0
C1335 C 0.48186 0.85634 0.91865 0.0
N1336 N 0.54806 0.86569 0.94215 0.0
N1337 N 0.50307 0.85933 0.92662 0.0
H1338 H 0.56533 0.96957 0.40616 0.0
H1339 H 0.60034 0.07516 0.4136 0.0
H1340 H 0.63381 0.94864 0.41587 0.0
H1341 H 0.66366 0.04521 0.39657 0.0
H1342 H 0.5889 0.03996 0.43171 0.0
H1343 H 0.57537 0.00665 0.41983 0.0
C1344 C 0.58237 0.97261 0.41197 0.0
C1345 C 0.59898 0.95635 0.40901 0.0
C1346 C 0.60539 0.04113 0.42423 0.0
C1347 C 0.61082 0.99898 0.42462 0.0
C1348 C 0.612 0.06131 0.41411 0.0
C1349 C 0.63253 0.06261 0.40274 0.0
C1350 C 0.61941 0.02229 0.42259 0.0
C1351 C 0.64728 0.0445 0.40437 0.0
C1352 C 0.58815 0.99388 0.41999 0.0
C1353 C 0.62061 0.96092 0.41733 0.0
N1354 N 0.64024 0.02493 0.41365 0.0
N1355 N 0.6261 0.98209 0.42404 0.0
H1356 H 0.46454 0.08945 0.91899 0.0
H1357 H 0.54853 0.17693 0.90499 0.0
H1358 H 0.44517 0.15663 0.93677 0.0
H1359 H 0.57005 0.11652 0.93805 0.0
H1360 H 0.51111 0.17171 0.92104 0.0
H1361 H 0.50299 0.09814 0.93104 0.0
C1362 C 0.46824 0.10572 0.92639 0.0
C1363 C 0.45188 0.1224 0.92684 0.0
C1364 C 0.52424 0.16009 0.92559 0.0
C1365 C 0.49579 0.13282 0.93951 0.0
C1366 C 0.54555 0.1631 0.91643 0.0
C1367 C 0.56218 0.14712 0.92028 0.0
C1368 C 0.51939 0.1404 0.93769 0.0
C1369 C 0.55755 0.12923 0.93487 0.0
C1370 C 0.49016 0.11071 0.93324 0.0
C1371 C 0.45744 0.14334 0.93624 0.0
N1372 N 0.53628 0.12586 0.94244 0.0
N1373 N 0.4792 0.14829 0.94144 0.0
H1374 H 0.39701 0.93208 0.41453 0.0
H1375 H 0.36286 0.05854 0.41947 0.0
H1376 H 0.33037 0.95836 0.40551 0.0
H1377 H 0.4298 0.03367 0.4089 0.0
H1378 H 0.35177 0.02176 0.4341 0.0
H1379 H 0.40866 0.96777 0.43177 0.0
C1380 C 0.38463 0.94505 0.41699 0.0
C1381 C 0.36295 0.94273 0.40796 0.0
C1382 C 0.36909 0.02459 0.4293 0.0
C1383 C 0.37608 0.98333 0.42738 0.0
C1384 C 0.37546 0.04562 0.421 0.0
C1385 C 0.39702 0.04878 0.41208 0.0
C1386 C 0.38439 0.00678 0.42847 0.0
C1387 C 0.41274 0.0316 0.41482 0.0
C1388 C 0.39128 0.96541 0.42676 0.0
C1389 C 0.34746 0.95987 0.41169 0.0
N1390 N 0.40597 0.0111 0.42224 0.0
N1391 N 0.35445 0.97967 0.42069 0.0
H1392 H 0.09803 0.46725 0.08697 0.0
H1393 H 0.07334 0.56746 0.16732 0.0
H1394 H 0.09524 0.4626 0.15909 0.0
H1395 H 0.08775 0.57223 0.09677 0.0
H1396 H 0.06415 0.52754 0.16242 0.0
H1397 H 0.07747 0.50241 0.08864 0.0
C1398 C 0.09265 0.47346 0.10315 0.0
C1399 C 0.09893 0.46251 0.12298 0.0
C1400 C 0.06836 0.53751 0.14782 0.0
C1401 C 0.07593 0.50295 0.12508 0.0
C1402 C 0.07332 0.56034 0.15057 0.0
C1403 C 0.08152 0.57284 0.13243 0.0
C1404 C 0.07187 0.52739 0.12682 0.0
C1405 C 0.08164 0.56295 0.11116 0.0
C1406 C 0.08085 0.49349 0.1041 0.0
C1407 C 0.09106 0.47085 0.14345 0.0
N1408 N 0.0774 0.54063 0.109 0.0
N1409 N 0.08051 0.491 0.14405 0.0
H1410 H 0.07628 0.55133 0.92474 0.0
H1411 H 0.1048 0.45237 0.84678 0.0
H1412 H 0.08402 0.55592 0.85314 0.0
H1413 H 0.09553 0.4462 0.91817 0.0
H1414 H 0.08284 0.48668 0.84701 0.0
H1415 H 0.06791 0.51122 0.92097 0.0
C1416 C 0.07498 0.54407 0.90809 0.0
C1417 C 0.08114 0.55665 0.88923 0.0
C1418 C 0.08509 0.47765 0.86261 0.0
C1419 C 0.07276 0.51084 0.88483 0.0
C1420 C 0.09768 0.4581 0.86246 0.0
C1421 C 0.1024 0.44697 0.88259 0.0
C1422 C 0.07797 0.48658 0.88318 0.0
C1423 C 0.09249 0.45464 0.90238 0.0
C1424 C 0.0705 0.5211 0.90594 0.0
C1425 C 0.07961 0.54658 0.86809 0.0
N1426 N 0.08126 0.47443 0.90231 0.0
N1427 N 0.07616 0.52407 0.86648 0.0
H1428 H 0.05787 0.5826 0.42428 0.0
H1429 H 0.9686 0.60222 0.3443 0.0
H1430 H 0.07177 0.56986 0.35462 0.0
H1431 H 0.95037 0.56646 0.40443 0.0
H1432 H 0.00591 0.58563 0.34611 0.0
H1433 H 0.01905 0.57028 0.41823 0.0
C1434 C 0.05298 0.57606 0.40798 0.0
C1435 C 0.06781 0.57737 0.38987 0.0
C1436 C 0.99353 0.58072 0.35848 0.0
C1437 C 0.02338 0.56455 0.38252 0.0
C1438 C 0.97231 0.59029 0.35749 0.0
C1439 C 0.95665 0.58575 0.37433 0.0
C1440 C 0.99937 0.56743 0.37704 0.0
C1441 C 0.96216 0.5703 0.39116 0.0
C1442 C 0.0308 0.56912 0.40447 0.0
C1443 C 0.06071 0.56906 0.36897 0.0
N1444 N 0.98342 0.56225 0.39257 0.0
N1445 N 0.03867 0.56384 0.3656 0.0
H1446 H 0.92418 0.56222 0.90937 0.0
H1447 H 0.92161 0.47202 0.82813 0.0
H1448 H 0.94189 0.57811 0.84118 0.0
H1449 H 0.94882 0.4582 0.89368 0.0
H1450 H 0.93646 0.51032 0.8306 0.0
H1451 H 0.94063 0.52513 0.90479 0.0
C1452 C 0.93241 0.55816 0.89373 0.0
C1453 C 0.93153 0.57296 0.87554 0.0
C1454 C 0.94015 0.49869 0.84406 0.0
C1455 C 0.94932 0.53035 0.86978 0.0
C1456 C 0.93172 0.4768 0.84257 0.0
C1457 C 0.93399 0.46217 0.86076 0.0
C1458 C 0.94984 0.50613 0.86434 0.0
C1459 C 0.94683 0.46914 0.87931 0.0
C1460 C 0.94182 0.53699 0.89107 0.0
C1461 C 0.94224 0.567 0.85555 0.0
N1462 N 0.95359 0.49096 0.88102 0.0
N1463 N 0.94998 0.54576 0.85288 0.0
H1464 H 0.05935 0.42083 0.3653 0.0
H1465 H 0.93475 0.41514 0.40396 0.0
H1466 H 0.03631 0.40952 0.43292 0.0
H1467 H 0.95842 0.41076 0.33588 0.0
H1468 H 0.97055 0.4327 0.4149 0.0
H1469 H 0.02284 0.4368 0.35592 0.0
C1470 C 0.04689 0.42241 0.37839 0.0
C1471 C 0.05041 0.41293 0.39963 0.0
C1472 C 0.96759 0.42867 0.3974 0.0
C1473 C 0.0087 0.43083 0.38897 0.0
C1474 C 0.94713 0.41874 0.39115 0.0
C1475 C 0.94414 0.4108 0.3692 0.0
C1476 C 0.98496 0.4304 0.38154 0.0
C1477 C 0.96051 0.41603 0.35317 0.0
C1478 C 0.02603 0.43151 0.37302 0.0
C1479 C 0.03388 0.41582 0.41605 0.0
N1480 N 0.98049 0.42501 0.35976 0.0
N1481 N 0.01349 0.42397 0.41022 0.0
H1482 H 0.90851 0.45361 0.08313 0.0
H1483 H 0.92471 0.56287 0.1527 0.0
H1484 H 0.90544 0.45893 0.15516 0.0
H1485 H 0.92368 0.55991 0.08054 0.0
H1486 H 0.93445 0.52312 0.15389 0.0
H1487 H 0.92992 0.48905 0.08204 0.0
C1488 C 0.9131 0.46184 0.09874 0.0
C1489 C 0.90474 0.45393 0.1192 0.0
C1490 C 0.9329 0.53126 0.13772 0.0
C1491 C 0.92871 0.49427 0.11817 0.0
C1492 C 0.9275 0.55398 0.1371 0.0
C1493 C 0.92323 0.56432 0.11652 0.0
C1494 C 0.93302 0.51881 0.11761 0.0
C1495 C 0.92681 0.55226 0.09672 0.0
C1496 C 0.92524 0.48208 0.09816 0.0
C1497 C 0.91115 0.46498 0.139 0.0
N1498 N 0.93088 0.52989 0.09773 0.0
N1499 N 0.92237 0.48485 0.13798 0.0
H1500 H 0.94681 0.42269 0.64232 0.0
H1501 H 0.04959 0.4051 0.67341 0.0
H1502 H 0.9738 0.41346 0.57597 0.0
H1503 H 0.07146 0.4184 0.60588 0.0
H1504 H 0.01478 0.42421 0.66567 0.0
H1505 H 0.98272 0.43888 0.65432 0.0
C1506 C 0.96011 0.4246 0.63011 0.0
C1507 C 0.95781 0.41556 0.60846 0.0
C1508 C 0.0273 0.42392 0.65261 0.0
C1509 C 0.99926 0.43269 0.62237 0.0
C1510 C 0.04726 0.41279 0.6571 0.0
C1511 C 0.06294 0.40951 0.63999 0.0
C1512 C 0.02274 0.43119 0.6306 0.0
C1513 C 0.05948 0.42017 0.61936 0.0
C1514 C 0.98082 0.43352 0.63707 0.0
C1515 C 0.97529 0.41921 0.59316 0.0
N1516 N 0.03936 0.4299 0.61498 0.0
N1517 N 0.99553 0.42685 0.60058 0.0
H1518 H 0.04829 0.60417 0.66919 0.0
H1519 H 0.95494 0.60209 0.58976 0.0
H1520 H 0.06234 0.57925 0.60292 0.0
H1521 H 0.94195 0.57509 0.65552 0.0
H1522 H 0.99397 0.58997 0.59291 0.0
H1523 H 0.00974 0.58984 0.66571 0.0
C1524 C 0.04341 0.59486 0.65428 0.0
C1525 C 0.05826 0.59279 0.63631 0.0
C1526 C 0.98238 0.58588 0.6063 0.0
C1527 C 0.01424 0.5774 0.63177 0.0
C1528 C 0.96017 0.59281 0.60449 0.0
C1529 C 0.94545 0.58961 0.62245 0.0
C1530 C 0.99 0.57668 0.62661 0.0
C1531 C 0.95293 0.57776 0.64132 0.0
C1532 C 0.02148 0.58667 0.65227 0.0
C1533 C 0.05124 0.58098 0.61714 0.0
N1534 N 0.97499 0.57241 0.64329 0.0
N1535 N 0.0294 0.57437 0.61501 0.0
H1536 H 0.95872 0.08797 0.39979 0.0
H1537 H 0.06736 0.15326 0.35878 0.0
H1538 H 0.95771 0.13883 0.34858 0.0
H1539 H 0.07063 0.09464 0.40075 0.0
H1540 H 0.02822 0.14393 0.3497 0.0
H1541 H 0.99976 0.08571 0.39596 0.0
C1542 C 0.96705 0.09795 0.38706 0.0
C1543 C 0.95473 0.1132 0.37408 0.0
C1544 C 0.03762 0.13262 0.36032 0.0
C1545 C 1.00188 0.11157 0.3703 0.0
C1546 C 0.06015 0.13778 0.3652 0.0
C1547 C 0.07251 0.12443 0.38011 0.0
C1548 C 0.027 0.11431 0.37099 0.0
C1549 C 0.06194 0.10507 0.38871 0.0
C1550 C 0.99054 0.09688 0.38504 0.0
C1551 C 0.96651 0.12647 0.35853 0.0
N1552 N 0.03972 0.10086 0.38443 0.0
N1553 N 0.98934 0.12557 0.35728 0.0
H1554 H 0.35745 0.43596 0.86214 0.0
H1555 H 0.42358 0.55342 0.87496 0.0
H1556 H 0.42594 0.44211 0.88487 0.0
H1557 H 0.35159 0.54728 0.87105 0.0
H1558 H 0.42663 0.51295 0.86759 0.0
H1559 H 0.35734 0.47637 0.85388 0.0
C1560 C 0.37287 0.44559 0.86424 0.0
C1561 C 0.39192 0.43548 0.87367 0.0
C1562 C 0.41017 0.52052 0.86772 0.0
C1563 C 0.39166 0.48207 0.8652 0.0
C1564 C 0.40845 0.54368 0.87165 0.0
C1565 C 0.38732 0.55381 0.87309 0.0
C1566 C 0.3906 0.50725 0.86534 0.0
C1567 C 0.36821 0.54023 0.86956 0.0
C1568 C 0.37266 0.46878 0.85995 0.0
C1569 C 0.41109 0.44906 0.87706 0.0
N1570 N 0.37028 0.51768 0.86599 0.0
N1571 N 0.41041 0.47162 0.87307 0.0
H1572 H 0.03957 0.92203 0.39222 0.0
H1573 H 0.93161 0.85373 0.35227 0.0
H1574 H 0.04141 0.86779 0.34458 0.0
H1575 H 0.92819 0.91246 0.39415 0.0
H1576 H 0.97056 0.86341 0.34313 0.0
H1577 H 0.99863 0.92381 0.38742 0.0
C1578 C 0.03148 0.91124 0.37989 0.0
C1579 C 0.04407 0.89518 0.36829 0.0
C1580 C 0.96117 0.87467 0.35374 0.0
C1581 C 0.99685 0.89619 0.36358 0.0
C1582 C 0.93872 0.86931 0.35866 0.0
C1583 C 0.92635 0.88258 0.37356 0.0
C1584 C 0.97172 0.89315 0.36429 0.0
C1585 C 0.93685 0.90208 0.3821 0.0
C1586 C 0.008 0.912 0.3774 0.0
C1587 C 0.03248 0.88086 0.35337 0.0
N1588 N 0.95898 0.90652 0.37773 0.0
N1589 N 0.00961 0.88147 0.3517 0.0
H1590 H 0.59128 0.46057 0.87213 0.0
H1591 H 0.65604 0.57864 0.85965 0.0
H1592 H 0.66258 0.4663 0.86188 0.0
H1593 H 0.58714 0.57126 0.88004 0.0
H1594 H 0.65686 0.53828 0.85081 0.0
H1595 H 0.58777 0.50104 0.86567 0.0
C1596 C 0.6061 0.47024 0.86762 0.0
C1597 C 0.62716 0.4599 0.86694 0.0
C1598 C 0.64132 0.5456 0.85651 0.0
C1599 C 0.62348 0.50671 0.86048 0.0
C1600 C 0.64072 0.56879 0.86114 0.0
C1601 C 0.62132 0.57855 0.8701 0.0
C1602 C 0.62237 0.53197 0.86095 0.0
C1603 C 0.60229 0.56462 0.87268 0.0
C1604 C 0.60415 0.49345 0.86422 0.0
C1605 C 0.64594 0.47347 0.86194 0.0
N1606 N 0.60336 0.54214 0.86838 0.0
N1607 N 0.64371 0.49615 0.85912 0.0
H1608 H 0.94612 0.86405 0.65008 0.0
H1609 H 0.06093 0.93151 0.62718 0.0
H1610 H 0.94985 0.93003 0.62092 0.0
H1611 H 0.05833 0.86151 0.64487 0.0
H1612 H 0.02054 0.93419 0.63433 0.0
H1613 H 0.98667 0.86597 0.65792 0.0
C1614 C 0.95524 0.87944 0.64641 0.0
C1615 C 0.94437 0.89717 0.63538 0.0
C1616 C 0.02882 0.91834 0.63728 0.0
C1617 C 0.99117 0.89913 0.64336 0.0
C1618 C 0.05199 0.9169 0.63348 0.0
C1619 C 0.06317 0.89641 0.63602 0.0
C1620 C 0.01645 0.89903 0.64333 0.0
C1621 C 0.05052 0.87777 0.64331 0.0
C1622 C 0.97853 0.88036 0.65049 0.0
C1623 C 0.95736 0.91624 0.63 0.0
N1624 N 0.02785 0.87946 0.6465 0.0
N1625 N 0.97999 0.91662 0.63382 0.0
H1626 H 0.62723 0.4564 0.15889 0.0
H1627 H 0.59118 0.57318 0.10264 0.0
H1628 H 0.58739 0.46132 0.0987 0.0
H1629 H 0.64851 0.56572 0.14614 0.0
H1630 H 0.58056 0.53387 0.10999 0.0
H1631 H 0.62607 0.49749 0.16289 0.0
C1632 C 0.61738 0.46606 0.14708 0.0
C1633 C 0.60692 0.45537 0.12874 0.0
C1634 C 0.59503 0.54105 0.11855 0.0
C1635 C 0.60606 0.50254 0.13279 0.0
C1636 C 0.60085 0.56365 0.1147 0.0
C1637 C 0.62051 0.57296 0.12417 0.0
C1638 C 0.60891 0.5276 0.13207 0.0
C1639 C 0.63297 0.55941 0.13888 0.0
C1640 C 0.61698 0.48955 0.14919 0.0
C1641 C 0.59521 0.46883 0.11337 0.0
N1642 N 0.62712 0.53744 0.1422 0.0
N1643 N 0.5952 0.49166 0.11566 0.0
H1644 H 0.95631 0.08108 0.63631 0.0
H1645 H 0.07372 0.14636 0.65209 0.0
H1646 H 0.96192 0.15245 0.64657 0.0
H1647 H 0.06708 0.07823 0.6287 0.0
H1648 H 0.03341 0.1464 0.6608 0.0
H1649 H 0.99665 0.07757 0.64391 0.0
C1650 C 0.96589 0.09591 0.64112 0.0
C1651 C 0.95558 0.117 0.6414 0.0
C1652 C 0.04089 0.13116 0.6545 0.0
C1653 C 1.00221 0.11331 0.64919 0.0
C1654 C 0.06406 0.13098 0.64996 0.0
C1655 C 0.074 0.11206 0.64015 0.0
C1656 C 0.02745 0.11229 0.64914 0.0
C1657 C 0.0603 0.09298 0.63676 0.0
C1658 C 0.98903 0.09395 0.64516 0.0
C1659 C 0.96905 0.13579 0.64679 0.0
N1660 N 0.0378 0.09366 0.64097 0.0
N1661 N 0.99164 0.13355 0.65025 0.0
H1662 H 0.41962 0.55001 0.11044 0.0
H1663 H 0.36053 0.4406 0.15814 0.0
H1664 H 0.37457 0.55068 0.16663 0.0
H1665 H 0.41499 0.43803 0.11109 0.0
H1666 H 0.36997 0.47995 0.16603 0.0
H1667 H 0.42276 0.50904 0.11422 0.0
C1668 C 0.41116 0.54163 0.12418 0.0
C1669 C 0.39731 0.55386 0.13863 0.0
C1670 C 0.38041 0.47067 0.15451 0.0
C1671 C 0.39984 0.50671 0.14242 0.0
C1672 C 0.37522 0.44801 0.15031 0.0
C1673 C 0.38732 0.43575 0.13435 0.0
C1674 C 0.39744 0.48153 0.14216 0.0
C1675 C 0.4056 0.44662 0.12397 0.0
C1676 C 0.41272 0.51816 0.1262 0.0
C1677 C 0.3859 0.54198 0.15552 0.0
N1678 N 0.40979 0.46893 0.12767 0.0
N1679 N 0.38717 0.51914 0.15675 0.0
H1680 H 0.38889 0.05259 0.09285 0.0
H1681 H 0.33328 0.93699 0.13508 0.0
H1682 H 0.34551 0.04666 0.15011 0.0
H1683 H 0.39004 0.94051 0.09078 0.0
H1684 H 0.32941 0.97791 0.13236 0.0
H1685 H 0.38096 0.01305 0.08355 0.0
C1686 C 0.37671 0.04334 0.10276 0.0
C1687 C 0.36748 0.05316 0.12204 0.0
C1688 C 0.34232 0.96972 0.12268 0.0
C1689 C 0.35898 0.00751 0.11202 0.0
C1690 C 0.34433 0.9463 0.12399 0.0
C1691 C 0.36163 0.93525 0.11268 0.0
C1692 C 0.35791 0.98236 0.11013 0.0
C1693 C 0.3761 0.94829 0.0993 0.0
C1694 C 0.37254 0.02059 0.09771 0.0
C1695 C 0.35261 0.03996 0.13484 0.0
N1696 N 0.37404 0.97112 0.09854 0.0
N1697 N 0.34903 0.01786 0.12977 0.0
H1698 H 0.44148 0.87567 0.58765 0.0
H1699 H 0.56205 0.8713 0.64864 0.0
H1700 H 0.45072 0.87724 0.65929 0.0
H1701 H 0.55221 0.89104 0.57987 0.0
H1702 H 0.5219 0.86154 0.65102 0.0
H1703 H 0.48207 0.86985 0.58314 0.0
C1704 C 0.45194 0.87387 0.60245 0.0
C1705 C 0.44265 0.87643 0.62389 0.0
C1706 C 0.52866 0.8673 0.63517 0.0
C1707 C 0.48929 0.8704 0.6189 0.0
C1708 C 0.55171 0.87245 0.63368 0.0
C1709 C 0.56067 0.88161 0.61389 0.0
C1710 C 0.5144 0.87123 0.61669 0.0
C1711 C 0.54615 0.88364 0.59532 0.0
C1712 C 0.47516 0.87083 0.59989 0.0
C1713 C 0.45714 0.87487 0.64249 0.0
N1714 N 0.5238 0.87874 0.59722 0.0
N1715 N 0.47968 0.87208 0.63959 0.0
H1716 H 0.62787 0.07109 0.0862 0.0
H1717 H 0.66126 0.95858 0.15049 0.0
H1718 H 0.66794 0.06852 0.14642 0.0
H1719 H 0.61887 0.95895 0.09183 0.0
H1720 H 0.67137 0.99785 0.14345 0.0
H1721 H 0.63109 0.02997 0.08256 0.0
C1722 C 0.6381 0.06199 0.09813 0.0
C1723 C 0.64799 0.07327 0.11643 0.0
C1724 C 0.6604 0.98925 0.13163 0.0
C1725 C 0.65122 0.02616 0.11284 0.0
C1726 C 0.65497 0.96661 0.13544 0.0
C1727 C 0.63959 0.95523 0.12146 0.0
C1728 C 0.64995 1.00095 0.11398 0.0
C1729 C 0.63123 0.96688 0.10272 0.0
C1730 C 0.63973 0.03847 0.09622 0.0
C1731 C 0.66034 0.06052 0.13188 0.0
N1732 N 0.63613 0.98916 0.09977 0.0
N1733 N 0.66144 0.03777 0.12985 0.0
H1734 H 0.57408 0.11235 0.58296 0.0
H1735 H 0.46087 0.14159 0.64756 0.0
H1736 H 0.57381 0.14192 0.64887 0.0
H1737 H 0.46345 0.11204 0.58174 0.0
H1738 H 0.50151 0.14926 0.64569 0.0
H1739 H 0.53378 0.1192 0.57958 0.0
C1740 C 0.56561 0.12099 0.59646 0.0
C1741 C 0.57745 0.127 0.61601 0.0
C1742 C 0.49309 0.14179 0.63132 0.0
C1743 C 0.53072 0.13405 0.61275 0.0
C1744 C 0.46976 0.1378 0.63222 0.0
C1745 C 0.45856 0.12665 0.61454 0.0
C1746 C 0.50543 0.13436 0.61267 0.0
C1747 C 0.47123 0.12115 0.59552 0.0
C1748 C 0.54248 0.12472 0.59463 0.0
C1749 C 0.56544 0.13751 0.63328 0.0
N1750 N 0.49388 0.12478 0.59522 0.0
N1751 N 0.54272 0.14043 0.63138 0.0
H1752 H 0.37301 0.05097 0.86601 0.0
H1753 H 0.39398 0.93445 0.9298 0.0
H1754 H 0.40416 0.04529 0.93103 0.0
H1755 H 0.37757 0.93896 0.85957 0.0
H1756 H 0.38758 0.97491 0.93369 0.0
H1757 H 0.36422 0.01053 0.86685 0.0
C1758 C 0.37695 0.04145 0.88098 0.0
C1759 C 0.3889 0.05167 0.8987 0.0
C1760 C 0.38476 0.96702 0.91752 0.0
C1761 C 0.37971 0.0051 0.89944 0.0
C1762 C 0.38815 0.94384 0.91538 0.0
C1763 C 0.38576 0.93323 0.89446 0.0
C1764 C 0.37922 0.97988 0.89853 0.0
C1765 C 0.37904 0.94639 0.87611 0.0
C1766 C 0.37232 0.01824 0.88127 0.0
C1767 C 0.39449 0.03823 0.91723 0.0
N1768 N 0.37619 0.96902 0.87851 0.0
N1769 N 0.39007 0.01571 0.91702 0.0
H1770 H 0.54214 0.88858 0.41474 0.0
H1771 H 0.42596 0.83404 0.37122 0.0
H1772 H 0.5359 0.8457 0.35686 0.0
H1773 H 0.4298 0.88876 0.41831 0.0
H1774 H 0.46696 0.83046 0.37321 0.0
H1775 H 0.50253 0.88084 0.42371 0.0
C1776 C 0.5328 0.87655 0.40461 0.0
C1777 C 0.5426 0.86736 0.38529 0.0
C1778 C 0.45886 0.84286 0.38363 0.0
C1779 C 0.49681 0.85912 0.39491 0.0
C1780 C 0.43537 0.84469 0.38272 0.0
C1781 C 0.42434 0.8613 0.3951 0.0
C1782 C 0.47162 0.85795 0.39682 0.0
C1783 C 0.43754 0.87531 0.40898 0.0
C1784 C 0.51001 0.8725 0.40947 0.0
C1785 C 0.52926 0.85273 0.37219 0.0
N1786 N 0.46043 0.87345 0.40934 0.0
N1787 N 0.50711 0.84927 0.37708 0.0
H1788 H 0.65081 0.07716 0.8553 0.0
H1789 H 0.62422 0.96745 0.92896 0.0
H1790 H 0.62098 0.0775 0.92092 0.0
H1791 H 0.64622 0.96398 0.86041 0.0
H1792 H 0.63222 0.00782 0.92914 0.0
H1793 H 0.6576 0.0365 0.85931 0.0
C1794 C 0.64649 0.06886 0.87088 0.0
C1795 C 0.63572 0.08084 0.888 0.0
C1796 C 0.63597 0.99823 0.91419 0.0
C1797 C 0.64286 0.0342 0.89253 0.0
C1798 C 0.63179 0.97502 0.91425 0.0
C1799 C 0.63503 0.9621 0.89482 0.0
C1800 C 0.64305 0.00896 0.89437 0.0
C1801 C 0.64404 0.97311 0.87595 0.0
C1802 C 0.65011 0.04558 0.87308 0.0
C1803 C 0.62967 0.06902 0.90748 0.0
N1804 N 0.64735 0.9959 0.87605 0.0
N1805 N 0.63321 0.0465 0.90915 0.0
H1806 H 0.4567 0.11751 0.41728 0.0
H1807 H 0.56983 0.17106 0.36779 0.0
H1808 H 0.4601 0.1589 0.35824 0.0
H1809 H 0.56891 0.121 0.4198 0.0
H1810 H 0.52902 0.17458 0.371 0.0
H1811 H 0.49631 0.1266 0.42534 0.0
C1812 C 0.46542 0.1295 0.40668 0.0
C1813 C 0.45488 0.13785 0.3873 0.0
C1814 C 0.53771 0.16323 0.38218 0.0
C1815 C 0.5006 0.14758 0.39586 0.0
C1816 C 0.56109 0.16143 0.38052 0.0
C1817 C 0.57285 0.1461 0.3939 0.0
C1818 C 0.52577 0.14927 0.39706 0.0
C1819 C 0.56056 0.13343 0.40956 0.0
C1820 C 0.4882 0.13433 0.41104 0.0
C1821 C 0.46737 0.15249 0.37361 0.0
N1822 N 0.53769 0.13509 0.41054 0.0
N1823 N 0.48953 0.15665 0.37798 0.0
H1824 H 0.12964 0.3393 0.95662 0.0
H1825 H 0.09347 0.39819 0.07204 0.0
H1826 H 0.09257 0.40083 0.96006 0.0
H1827 H 0.14834 0.35213 0.0662 0.0
H1828 H 0.08357 0.39096 0.03257 0.0
H1829 H 0.12723 0.3359 0.99766 0.0
C1830 C 0.12011 0.35157 0.96593 0.0
C1831 C 0.11077 0.37007 0.95482 0.0
C1832 C 0.0973 0.38182 0.04013 0.0
C1833 C 0.10855 0.36671 1.00199 0.0
C1834 C 0.10267 0.3856 0.06284 0.0
C1835 C 0.12147 0.37537 0.07267 0.0
C1836 C 0.11075 0.3676 0.0271 0.0
C1837 C 0.13342 0.35999 0.0595 0.0
C1838 C 0.11901 0.34979 0.98941 0.0
C1839 C 0.09949 0.38601 0.96788 0.0
N1840 N 0.12803 0.35675 0.03744 0.0
N1841 N 0.0988 0.38405 0.99071 0.0
H1842 H 0.14657 0.65463 0.95313 0.0
H1843 H 0.1495 0.65001 0.07098 0.0
H1844 H 0.09081 0.60871 0.96085 0.0
H1845 H 0.08357 0.6202 0.06585 0.0
H1846 H 0.14897 0.6571 0.0305 0.0
H1847 H 0.14425 0.66377 0.99342 0.0
C1848 C 0.1335 0.64693 0.96319 0.0
C1849 C 0.11882 0.63093 0.95361 0.0
C1850 C 0.13415 0.6499 0.03819 0.0
C1851 C 0.11638 0.64066 0.99994 0.0
C1852 C 0.13435 0.64614 0.06152 0.0
C1853 C 0.1163 0.63502 0.07201 0.0
C1854 C 0.11582 0.64216 0.02512 0.0
C1855 C 0.09761 0.62932 0.05863 0.0
C1856 C 0.13235 0.65185 0.98634 0.0
C1857 C 0.10246 0.62115 0.96752 0.0
N1858 N 0.09803 0.63259 0.036 0.0
N1859 N 0.10176 0.62607 0.9898 0.0
H1860 H 0.8929 0.58332 0.44135 0.0
H1861 H 0.86429 0.64809 0.55535 0.0
H1862 H 0.86713 0.65054 0.44296 0.0
H1863 H 0.89686 0.58402 0.55226 0.0
H1864 H 0.85674 0.64579 0.51481 0.0
H1865 H 0.88627 0.57998 0.48175 0.0
C1866 C 0.88508 0.59712 0.45013 0.0
C1867 C 0.88007 0.61703 0.43866 0.0
C1868 C 0.86488 0.63187 0.52309 0.0
C1869 C 0.87324 0.61375 0.48538 0.0
C1870 C 0.8688 0.63298 0.54636 0.0
C1871 C 0.8807 0.61593 0.5574 0.0
C1872 C 0.87309 0.61363 0.51063 0.0
C1873 C 0.88712 0.59726 0.54461 0.0
C1874 C 0.88152 0.59531 0.47329 0.0
C1875 C 0.87071 0.63469 0.45104 0.0
N1876 N 0.88347 0.59672 0.52199 0.0
N1877 N 0.86781 0.63273 0.47373 0.0
H1878 H 0.86993 0.36655 0.92699 0.0
H1879 H 0.92087 0.39278 0.05011 0.0
H1880 H 0.92125 0.41641 0.94037 0.0
H1881 H 0.85511 0.36395 0.03914 0.0
H1882 H 0.92701 0.39256 0.00922 0.0
H1883 H 0.86997 0.35674 0.96727 0.0
C1884 C 0.88161 0.37499 0.93826 0.0
C1885 C 0.8956 0.39232 0.93031 0.0
C1886 C 0.91144 0.38577 0.01581 0.0
C1887 C 0.89578 0.38124 0.97632 0.0
C1888 C 0.90809 0.38564 0.03916 0.0
C1889 C 0.88759 0.37807 0.04803 0.0
C1890 C 0.89424 0.37814 1.00123 0.0
C1891 C 0.87127 0.36968 0.03298 0.0
C1892 C 0.88151 0.36954 0.96126 0.0
C1893 C 0.91013 0.40297 0.94578 0.0
N1894 N 0.87488 0.37 0.0104 0.0
N1895 N 0.90982 0.39733 0.96792 0.0
H1896 H 0.11629 0.42136 0.57033 0.0
H1897 H 0.16127 0.36196 0.46069 0.0
H1898 H 0.16967 0.37324 0.571 0.0
H1899 H 0.11642 0.41809 0.45854 0.0
H1900 H 0.16953 0.37035 0.50013 0.0
H1901 H 0.12035 0.42495 0.52946 0.0
C1902 C 0.12954 0.41229 0.56198 0.0
C1903 C 0.1431 0.39747 0.5742 0.0
C1904 C 0.15845 0.38136 0.49093 0.0
C1905 C 0.14714 0.40054 0.52711 0.0
C1906 C 0.15405 0.37678 0.46821 0.0
C1907 C 0.13857 0.38967 0.45603 0.0
C1908 C 0.14679 0.39861 0.50191 0.0
C1909 C 0.12893 0.40808 0.46705 0.0
C1910 C 0.13169 0.41412 0.53856 0.0
C1911 C 0.15929 0.38533 0.56233 0.0
N1912 N 0.13281 0.41171 0.4894 0.0
N1913 N 0.16066 0.38689 0.53952 0.0
H1914 H 0.86437 0.64869 0.93864 0.0
H1915 H 0.92407 0.64602 0.05974 0.0
H1916 H 0.9324 0.62745 0.94969 0.0
H1917 H 0.85261 0.64094 0.04944 0.0
H1918 H 0.92894 0.65212 0.0192 0.0
H1919 H 0.86193 0.65918 0.97845 0.0
C1920 C 0.87921 0.6474 0.94913 0.0
C1921 C 0.89877 0.63755 0.94066 0.0
C1922 C 0.91214 0.65038 0.02589 0.0
C1923 C 0.89587 0.64884 0.98651 0.0
C1924 C 0.90934 0.64721 0.04908 0.0
C1925 C 0.88786 0.64349 0.05804 0.0
C1926 C 0.8933 0.64988 0.01151 0.0
C1927 C 0.86941 0.64424 0.04329 0.0
C1928 C 0.87767 0.65298 0.97199 0.0
C1929 C 0.91716 0.63538 0.95538 0.0
N1930 N 0.87254 0.64722 0.0208 0.0
N1931 N 0.91521 0.64072 0.97755 0.0
H1932 H 0.87746 0.42411 0.43352 0.0
H1933 H 0.88499 0.41601 0.55045 0.0
H1934 H 0.84886 0.35753 0.43658 0.0
H1935 H 0.85686 0.34976 0.54141 0.0
H1936 H 0.87555 0.42482 0.51145 0.0
H1937 H 0.87426 0.42705 0.47445 0.0
C1938 C 0.86972 0.41045 0.44278 0.0
C1939 C 0.86313 0.39067 0.43161 0.0
C1940 C 0.87082 0.40852 0.51794 0.0
C1941 C 0.86002 0.39339 0.4788 0.0
C1942 C 0.87582 0.40367 0.54054 0.0
C1943 C 0.87142 0.38221 0.54937 0.0
C1944 C 0.86151 0.39163 0.50396 0.0
C1945 C 0.86027 0.36662 0.53544 0.0
C1946 C 0.86812 0.41195 0.46633 0.0
C1947 C 0.85391 0.37319 0.44449 0.0
N1948 N 0.85603 0.37152 0.51352 0.0
N1949 N 0.85283 0.37489 0.46724 0.0
H1950 H 0.13989 0.59238 0.57611 0.0
H1951 H 0.14168 0.64872 0.45366 0.0
H1952 H 0.1297 0.66277 0.56385 0.0
H1953 H 0.12287 0.57978 0.46551 0.0
H1954 H 0.15089 0.65285 0.4937 0.0
H1955 H 0.14654 0.5868 0.53571 0.0
C1956 C 0.13994 0.6068 0.56503 0.0
C1957 C 0.13465 0.62814 0.57338 0.0
C1958 C 0.14551 0.63659 0.4874 0.0
C1959 C 0.14189 0.62187 0.52711 0.0
C1960 C 0.14069 0.63409 0.46442 0.0
C1961 C 0.13187 0.61374 0.45607 0.0
C1962 C 0.14169 0.61854 0.50217 0.0
C1963 C 0.13002 0.59563 0.47111 0.0
C1964 C 0.14348 0.60357 0.54196 0.0
C1965 C 0.13411 0.64612 0.55815 0.0
N1966 N 0.13463 0.59849 0.49339 0.0
N1967 N 0.1376 0.64259 0.53581 0.0
H1968 H 0.32523 0.14064 0.4161 0.0
H1969 H 0.20205 0.09881 0.37537 0.0
H1970 H 0.31387 0.08988 0.36549 0.0
H1971 H 0.21323 0.14714 0.42834 0.0
H1972 H 0.243 0.09489 0.37181 0.0
H1973 H 0.28429 0.14303 0.42127 0.0
C1974 C 0.31422 0.12995 0.40617 0.0
C1975 C 0.32316 0.11507 0.39033 0.0
C1976 C 0.23646 0.1063 0.38427 0.0
C1977 C 0.27616 0.11775 0.39604 0.0
C1978 C 0.21304 0.10849 0.38632 0.0
C1979 C 0.20403 0.12333 0.40215 0.0
C1980 C 0.25107 0.11907 0.39812 0.0
C1981 C 0.21926 0.13549 0.41584 0.0
C1982 C 0.2908 0.13131 0.40908 0.0
C1983 C 0.3079 0.10165 0.3779 0.0
N1984 N 0.24186 0.13316 0.41347 0.0
N1985 N 0.28533 0.10335 0.38096 0.0
H1986 H 0.42885 0.68368 0.90806 0.0
H1987 H 0.38037 0.80489 0.87479 0.0
H1988 H 0.35996 0.6914 0.88757 0.0
H1989 H 0.44106 0.79348 0.91263 0.0
H1990 H 0.37237 0.76401 0.87587 0.0
H1991 H 0.43471 0.72417 0.9039 0.0
C1992 C 0.4152 0.69383 0.90174 0.0
C1993 C 0.39411 0.68405 0.89745 0.0
C1994 C 0.38727 0.77058 0.88417 0.0
C1995 C 0.40024 0.73088 0.89382 0.0
C1996 C 0.39164 0.79395 0.88386 0.0
C1997 C 0.41136 0.80269 0.89376 0.0
C1998 C 0.40288 0.75597 0.89421 0.0
C1999 C 0.42565 0.78756 0.90478 0.0
C2000 C 0.41837 0.71707 0.89982 0.0
C2001 C 0.37668 0.69821 0.89035 0.0
N2002 N 0.42127 0.76513 0.9045 0.0
N2003 N 0.38007 0.72092 0.88885 0.0
H2004 H 0.68298 0.91753 0.36283 0.0
H2005 H 0.78666 0.85567 0.42194 0.0
H2006 H 0.67452 0.86438 0.41127 0.0
H2007 H 0.7949 0.90679 0.37133 0.0
H2008 H 0.74603 0.85974 0.41939 0.0
H2009 H 0.72359 0.91489 0.36701 0.0
C2010 C 0.68961 0.9053 0.37449 0.0
C2011 C 0.67503 0.89111 0.3867 0.0
C2012 C 0.75663 0.87014 0.40885 0.0
C2013 C 0.72223 0.88799 0.39151 0.0
C2014 C 0.77999 0.86787 0.41028 0.0
C2015 C 0.7945 0.8809 0.39679 0.0
C2016 C 0.74731 0.88561 0.3938 0.0
C2017 C 0.78455 0.89638 0.38208 0.0
C2018 C 0.71296 0.90382 0.37681 0.0
C2019 C 0.68493 0.8757 0.40152 0.0
N2020 N 0.76165 0.89825 0.38096 0.0
N2021 N 0.70784 0.87452 0.40345 0.0
H2022 H 0.59373 0.22421 0.84538 0.0
H2023 H 0.66209 0.31663 0.91625 0.0
H2024 H 0.63832 0.20761 0.89998 0.0
H2025 H 0.61144 0.33342 0.86727 0.0
H2026 H 0.65776 0.2771 0.90654 0.0
H2027 H 0.60429 0.26366 0.84928 0.0
C2028 C 0.60606 0.2288 0.85806 0.0
C2029 C 0.61501 0.21236 0.8725 0.0
C2030 C 0.64772 0.28933 0.8977 0.0
C2031 C 0.62712 0.25817 0.87715 0.0
C2032 C 0.65018 0.31206 0.90317 0.0
C2033 C 0.63696 0.32861 0.89271 0.0
C2034 C 0.63183 0.28267 0.88154 0.0
C2035 C 0.62206 0.32143 0.87575 0.0
C2036 C 0.61201 0.25147 0.86028 0.0
C2037 C 0.63104 0.21952 0.8884 0.0
N2038 N 0.61974 0.29901 0.87088 0.0
N2039 N 0.63638 0.24188 0.89045 0.0
H2040 H 0.31459 0.89383 0.59181 0.0
H2041 H 0.18829 0.88575 0.63962 0.0
H2042 H 0.30092 0.89931 0.66245 0.0
H2043 H 0.20606 0.9045 0.57199 0.0
H2044 H 0.22882 0.88488 0.64913 0.0
H2045 H 0.27411 0.88937 0.58465 0.0
C2046 C 0.30316 0.89314 0.60588 0.0
C2047 C 0.31118 0.8965 0.62777 0.0
C2048 C 0.22368 0.88923 0.63225 0.0
C2049 C 0.26465 0.89234 0.61974 0.0
C2050 C 0.20054 0.88998 0.62689 0.0
C2051 C 0.19354 0.89509 0.60492 0.0
C2052 C 0.23985 0.89332 0.61544 0.0
C2053 C 0.2104 0.90017 0.5891 0.0
C2054 C 0.27998 0.89104 0.6018 0.0
C2055 C 0.29543 0.89636 0.64534 0.0
N2056 N 0.23251 0.89895 0.59458 0.0
N2057 N 0.27296 0.89447 0.64098 0.0
H2058 H 0.64838 0.71355 0.07967 0.0
H2059 H 0.58612 0.81572 0.14003 0.0
H2060 H 0.59666 0.70399 0.1293 0.0
H2061 H 0.64031 0.82507 0.09307 0.0
H2062 H 0.58853 0.77521 0.13495 0.0
H2063 H 0.64436 0.75406 0.08311 0.0
C2064 C 0.63605 0.71991 0.0913 0.0
C2065 C 0.62285 0.70509 0.10427 0.0
C2066 C 0.59988 0.78603 0.12567 0.0
C2067 C 0.6182 0.75211 0.10828 0.0
C2068 C 0.59853 0.80931 0.12851 0.0
C2069 C 0.61308 0.82407 0.11698 0.0
C2070 C 0.61592 0.77708 0.11113 0.0
C2071 C 0.62872 0.81449 0.10231 0.0
C2072 C 0.63381 0.7432 0.09324 0.0
C2073 C 0.6072 0.71462 0.11895 0.0
N2074 N 0.62975 0.79166 0.09986 0.0
N2075 N 0.60536 0.73747 0.12058 0.0
H2076 H 0.83158 0.10467 0.63855 0.0
H2077 H 0.70339 0.12812 0.60086 0.0
H2078 H 0.81271 0.14438 0.58105 0.0
H2079 H 0.72159 0.08804 0.65821 0.0
H2080 H 0.7434 0.13795 0.5959 0.0
H2081 H 0.79148 0.10153 0.64854 0.0
C2082 C 0.81916 0.1129 0.62818 0.0
C2083 C 0.82573 0.12453 0.60875 0.0
C2084 C 0.73858 0.12723 0.60977 0.0
C2085 C 0.7797 0.12103 0.62002 0.0
C2086 C 0.71566 0.12184 0.6127 0.0
C2087 C 0.70904 0.10715 0.62988 0.0
C2088 C 0.75499 0.11789 0.62413 0.0
C2089 C 0.72588 0.09927 0.64457 0.0
C2090 C 0.79621 0.11107 0.63382 0.0
C2091 C 0.80865 0.13487 0.59598 0.0
N2092 N 0.74792 0.10453 0.64126 0.0
N2093 N 0.78665 0.13276 0.60172 0.0
H2094 H 0.36754 0.18355 0.09442 0.0
H2095 H 0.41302 0.30518 0.13593 0.0
H2096 H 0.4196 0.19285 0.14427 0.0
H2097 H 0.36221 0.29587 0.08482 0.0
H2098 H 0.4166 0.26407 0.13843 0.0
H2099 H 0.36608 0.22462 0.08975 0.0
C2100 C 0.37873 0.19414 0.10427 0.0
C2101 C 0.39366 0.18456 0.11978 0.0
C2102 C 0.40474 0.27106 0.12659 0.0
C2103 C 0.39205 0.23175 0.11465 0.0
C2104 C 0.40275 0.29458 0.12514 0.0
C2105 C 0.38728 0.30416 0.11019 0.0
C2106 C 0.39114 0.25693 0.11302 0.0
C2107 C 0.37435 0.2894 0.09667 0.0
C2108 C 0.37789 0.21763 0.10165 0.0
C2109 C 0.40774 0.19931 0.13212 0.0
N2110 N 0.37651 0.26671 0.09846 0.0
N2111 N 0.40654 0.22198 0.12935 0.0
H2112 H 0.09619 0.37384 0.20352 0.0
H2113 H 0.14147 0.41608 0.32479 0.0
H2114 H 0.14737 0.42493 0.21236 0.0
H2115 H 0.08962 0.36569 0.31578 0.0
H2116 H 0.14316 0.4205 0.28371 0.0
H2117 H 0.09262 0.37145 0.24462 0.0
C2118 C 0.10655 0.38465 0.21402 0.0
C2119 C 0.12211 0.39957 0.20429 0.0
C2120 C 0.13135 0.40853 0.29076 0.0
C2121 C 0.11826 0.39686 0.25154 0.0
C2122 C 0.13038 0.40605 0.31427 0.0
C2123 C 0.11543 0.39046 0.32394 0.0
C2124 C 0.11729 0.39533 0.27673 0.0
C2125 C 0.1015 0.37789 0.30926 0.0
C2126 C 0.10458 0.38325 0.23753 0.0
C2127 C 0.13515 0.4131 0.21893 0.0
N2128 N 0.10281 0.38055 0.28659 0.0
N2129 N 0.13299 0.41138 0.24163 0.0
H2130 H 0.11098 0.59104 0.70195 0.0
H2131 H 0.1358 0.63762 0.82645 0.0
H2132 H 0.11976 0.66189 0.71393 0.0
H2133 H 0.10063 0.57583 0.81074 0.0
H2134 H 0.13586 0.64687 0.78589 0.0
H2135 H 0.11566 0.58418 0.74226 0.0
C2136 C 0.11491 0.60505 0.71296 0.0
C2137 C 0.11561 0.62698 0.70448 0.0
C2138 C 0.12801 0.63139 0.79149 0.0
C2139 C 0.11991 0.61947 0.75095 0.0
C2140 C 0.12769 0.62627 0.81465 0.0
C2141 C 0.11825 0.60588 0.82213 0.0
C2142 C 0.11912 0.61585 0.77582 0.0
C2143 C 0.10832 0.59165 0.80589 0.0
C2144 C 0.11711 0.60123 0.73606 0.0
C2145 C 0.11971 0.64466 0.71974 0.0
N2146 N 0.10926 0.59675 0.78371 0.0
N2147 N 0.1216 0.64058 0.74223 0.0
H2148 H 0.92516 0.59587 0.19052 0.0
H2149 H 0.8782 0.64387 0.30702 0.0
H2150 H 0.86444 0.63441 0.19233 0.0
H2151 H 0.92706 0.59147 0.30073 0.0
H2152 H 0.87293 0.64324 0.26583 0.0
H2153 H 0.92821 0.5989 0.23126 0.0
C2154 C 0.91293 0.60577 0.19947 0.0
C2155 C 0.89489 0.61542 0.18788 0.0
C2156 C 0.88444 0.63157 0.27356 0.0
C2157 C 0.8975 0.61798 0.23508 0.0
C2158 C 0.88711 0.63162 0.29711 0.0
C2159 C 0.90276 0.61735 0.30742 0.0
C2160 C 0.8978 0.61742 0.26028 0.0
C2161 C 0.91455 0.60249 0.29359 0.0
C2162 C 0.91438 0.60711 0.22285 0.0
C2163 C 0.879 0.62731 0.20052 0.0
N2164 N 0.91202 0.60308 0.27091 0.0
N2165 N 0.88058 0.62814 0.22345 0.0
H2166 H 0.91213 0.38935 0.80226 0.0
H2167 H 0.86258 0.40983 0.67768 0.0
H2168 H 0.85361 0.42882 0.78762 0.0
H2169 H 0.91888 0.36684 0.6913 0.0
H2170 H 0.85847 0.41591 0.71823 0.0
H2171 H 0.91385 0.37874 0.76222 0.0
C2172 C 0.89933 0.39528 0.7908 0.0
C2173 C 0.88269 0.40997 0.79836 0.0
C2174 C 0.87172 0.4051 0.71236 0.0
C2175 C 0.88484 0.39847 0.75245 0.0
C2176 C 0.8741 0.40172 0.68914 0.0
C2177 C 0.89112 0.38787 0.68092 0.0
C2178 C 0.8865 0.39463 0.7276 0.0
C2179 C 0.90549 0.37771 0.69674 0.0
C2180 C 0.90045 0.38947 0.76787 0.0
C2181 C 0.86679 0.41751 0.78257 0.0
N2182 N 0.90291 0.38131 0.71918 0.0
N2183 N 0.86836 0.41187 0.76052 0.0
H2184 H 0.69189 0.85343 0.62366 0.0
H2185 H 0.81113 0.90547 0.66445 0.0
H2186 H 0.69915 0.91758 0.65662 0.0
H2187 H 0.80424 0.8546 0.61332 0.0
H2188 H 0.76994 0.90479 0.66912 0.0
H2189 H 0.73285 0.84833 0.62704 0.0
C2190 C 0.70198 0.86619 0.63202 0.0
C2191 C 0.69204 0.886 0.63974 0.0
C2192 C 0.77753 0.89353 0.65713 0.0
C2193 C 0.7389 0.88033 0.64371 0.0
C2194 C 0.80105 0.8938 0.65463 0.0
C2195 C 0.81116 0.88014 0.63843 0.0
C2196 C 0.76407 0.87925 0.64359 0.0
C2197 C 0.79716 0.86553 0.62593 0.0
C2198 C 0.72538 0.86338 0.63381 0.0
C2199 C 0.70607 0.9021 0.65026 0.0
N2200 N 0.77447 0.86552 0.6287 0.0
N2201 N 0.72866 0.89896 0.65186 0.0
H2202 H 0.66328 0.2105 0.15779 0.0
H2203 H 0.60176 0.31929 0.1085 0.0
H2204 H 0.61157 0.2072 0.10717 0.0
H2205 H 0.66332 0.32322 0.14652 0.0
H2206 H 0.60249 0.27816 0.11164 0.0
H2207 H 0.66306 0.25163 0.15535 0.0
C2208 C 0.65265 0.21844 0.14536 0.0
C2209 C 0.63803 0.20535 0.13206 0.0
C2210 C 0.61558 0.28802 0.11977 0.0
C2211 C 0.63641 0.25257 0.13033 0.0
C2212 C 0.61482 0.31155 0.11849 0.0
C2213 C 0.63213 0.32477 0.12785 0.0
C2214 C 0.63385 0.27759 0.13046 0.0
C2215 C 0.64929 0.31372 0.13962 0.0
C2216 C 0.65214 0.24195 0.14434 0.0
C2217 C 0.62371 0.2166 0.11712 0.0
N2218 N 0.6498 0.29085 0.14048 0.0
N2219 N 0.62304 0.2395 0.11686 0.0
H2220 H 0.20801 0.11201 0.66584 0.0
H2221 H 0.32538 0.1575 0.61459 0.0
H2222 H 0.21284 0.15208 0.60583 0.0
H2223 H 0.32025 0.10161 0.66023 0.0
H2224 H 0.28431 0.16218 0.61706 0.0
H2225 H 0.24927 0.11439 0.66984 0.0
C2226 C 0.21765 0.12166 0.65379 0.0
C2227 C 0.20692 0.13172 0.63541 0.0
C2228 C 0.29226 0.14911 0.6268 0.0
C2229 C 0.2541 0.13458 0.63983 0.0
C2230 C 0.31574 0.14659 0.62552 0.0
C2231 C 0.3263 0.12911 0.63715 0.0
C2232 C 0.27931 0.13425 0.64005 0.0
C2233 C 0.31282 0.11525 0.65085 0.0
C2234 C 0.24122 0.1229 0.65596 0.0
C2235 C 0.22038 0.14386 0.62017 0.0
N2236 N 0.29017 0.11805 0.65187 0.0
N2237 N 0.24312 0.1449 0.62267 0.0
H2238 H 0.38867 0.80223 0.10649 0.0
H2239 H 0.34477 0.68603 0.15976 0.0
H2240 H 0.34852 0.79894 0.16626 0.0
H2241 H 0.39642 0.68973 0.10964 0.0
H2242 H 0.34471 0.72718 0.16185 0.0
H2243 H 0.38832 0.76096 0.10476 0.0
C2244 C 0.37886 0.79285 0.11861 0.0
C2245 C 0.36804 0.80409 0.13616 0.0
C2246 C 0.35648 0.71905 0.15078 0.0
C2247 C 0.36856 0.75677 0.13506 0.0
C2248 C 0.35687 0.69552 0.14997 0.0
C2249 C 0.37123 0.68437 0.13513 0.0
C2250 C 0.37013 0.73167 0.13616 0.0
C2251 C 0.38569 0.6976 0.12191 0.0
C2252 C 0.37914 0.76926 0.11798 0.0
C2253 C 0.35654 0.79098 0.15209 0.0
N2254 N 0.38459 0.72048 0.12252 0.0
N2255 N 0.35719 0.76812 0.15124 0.0
H2256 H 0.70762 0.16379 0.35217 0.0
H2257 H 0.82092 0.10651 0.39688 0.0
H2258 H 0.70829 0.10977 0.40005 0.0
H2259 H 0.82036 0.16821 0.35931 0.0
H2260 H 0.77967 0.10519 0.39499 0.0
H2261 H 0.74879 0.16543 0.35368 0.0
C2262 C 0.71643 0.15301 0.36383 0.0
C2263 C 0.70446 0.1372 0.37664 0.0
C2264 C 0.78857 0.11877 0.38671 0.0
C2265 C 0.75175 0.13779 0.37727 0.0
C2266 C 0.81216 0.11919 0.38729 0.0
C2267 C 0.82414 0.13716 0.37769 0.0
C2268 C 0.77685 0.13649 0.37649 0.0
C2269 C 0.81181 0.15375 0.36642 0.0
C2270 C 0.73997 0.15357 0.36431 0.0
C2271 C 0.71681 0.12276 0.39053 0.0
N2272 N 0.78893 0.1531 0.36625 0.0
N2273 N 0.73973 0.12321 0.39029 0.0
H2274 H 0.39959 0.30173 0.84617 0.0
H2275 H 0.35591 0.18312 0.89618 0.0
H2276 H 0.35695 0.29552 0.90412 0.0
H2277 H 0.41307 0.19005 0.85253 0.0
H2278 H 0.34983 0.22394 0.89308 0.0
H2279 H 0.3985 0.26046 0.84209 0.0
C2280 C 0.38963 0.29177 0.85771 0.0
C2281 C 0.37848 0.3021 0.87558 0.0
C2282 C 0.36351 0.21642 0.88392 0.0
C2283 C 0.37712 0.25495 0.8711 0.0
C2284 C 0.36685 0.1931 0.88558 0.0
C2285 C 0.3851 0.18315 0.87473 0.0
C2286 C 0.37833 0.22982 0.87109 0.0
C2287 C 0.39889 0.19702 0.86136 0.0
C2288 C 0.38913 0.26821 0.85551 0.0
C2289 C 0.36599 0.28827 0.89019 0.0
N2290 N 0.39531 0.21952 0.86 0.0
N2291 N 0.36571 0.26554 0.8877 0.0
H2292 H 0.16956 0.86511 0.35955 0.0
H2293 H 0.29543 0.8746 0.41042 0.0
H2294 H 0.18476 0.87694 0.42939 0.0
H2295 H 0.28117 0.86026 0.34089 0.0
H2296 H 0.25487 0.87335 0.41806 0.0
H2297 H 0.21027 0.86345 0.352 0.0
C2298 C 0.18139 0.86786 0.37316 0.0
C2299 C 0.17365 0.87127 0.3951 0.0
C2300 C 0.26062 0.87007 0.40118 0.0
C2301 C 0.22025 0.86876 0.3868 0.0
C2302 C 0.28386 0.87034 0.39694 0.0
C2303 C 0.29181 0.8673 0.37504 0.0
C2304 C 0.24516 0.86686 0.38337 0.0
C2305 C 0.27583 0.86256 0.35808 0.0
C2306 C 0.20465 0.86658 0.36895 0.0
C2307 C 0.18988 0.87424 0.41219 0.0
N2308 N 0.2534 0.86273 0.36252 0.0
N2309 N 0.21221 0.87284 0.40772 0.0
H2310 H 0.62303 0.71118 0.84149 0.0
H2311 H 0.66701 0.83082 0.88951 0.0
H2312 H 0.66443 0.71815 0.90065 0.0
H2313 H 0.60751 0.82288 0.84869 0.0
H2314 H 0.673 0.78992 0.88696 0.0
H2315 H 0.62398 0.75242 0.8371 0.0
C2316 C 0.6328 0.72129 0.85318 0.0
C2317 C 0.64366 0.71115 0.87146 0.0
C2318 C 0.65883 0.79723 0.87827 0.0
C2319 C 0.6448 0.75835 0.86662 0.0
C2320 C 0.65554 0.82061 0.87958 0.0
C2321 C 0.63671 0.83034 0.86934 0.0
C2322 C 0.64342 0.78353 0.86631 0.0
C2323 C 0.62221 0.81613 0.85694 0.0
C2324 C 0.63317 0.74485 0.85082 0.0
C2325 C 0.65575 0.72522 0.88633 0.0
N2326 N 0.62581 0.79358 0.85581 0.0
N2327 N 0.65596 0.74795 0.88364 0.0
H2328 H 0.89103 0.66196 0.80871 0.0
H2329 H 0.85065 0.60751 0.69081 0.0
H2330 H 0.85606 0.59841 0.80327 0.0
H2331 H 0.90222 0.65853 0.69676 0.0
H2332 H 0.84558 0.609 0.73189 0.0
H2333 H 0.88844 0.666 0.76759 0.0
C2334 C 0.88243 0.64911 0.79896 0.0
C2335 C 0.87389 0.62977 0.80949 0.0
C2336 C 0.85777 0.6201 0.72411 0.0
C2337 C 0.87083 0.63422 0.76243 0.0
C2338 C 0.86052 0.61936 0.70064 0.0
C2339 C 0.87694 0.63283 0.69032 0.0
C2340 C 0.87131 0.63466 0.73727 0.0
C2341 C 0.88946 0.6477 0.70401 0.0
C2342 C 0.88108 0.65131 0.77547 0.0
C2343 C 0.86307 0.61353 0.7959 0.0
N2344 N 0.88646 0.64817 0.72664 0.0
N2345 N 0.86192 0.61607 0.7732 0.0
H2346 H 0.84607 0.34809 0.29664 0.0
H2347 H 0.89816 0.39804 0.18301 0.0
H2348 H 0.89451 0.4022 0.29527 0.0
H2349 H 0.83789 0.35752 0.18387 0.0
H2350 H 0.90004 0.39571 0.22413 0.0
H2351 H 0.84358 0.3495 0.25553 0.0
C2352 C 0.85536 0.36101 0.28772 0.0
C2353 C 0.86987 0.37562 0.29948 0.0
C2354 C 0.88668 0.38687 0.21531 0.0
C2355 C 0.86846 0.37623 0.25224 0.0
C2356 C 0.88597 0.3877 0.19177 0.0
C2357 C 0.86822 0.3774 0.17991 0.0
C2358 C 0.86949 0.37566 0.22713 0.0
C2359 C 0.85221 0.36517 0.1923 0.0
C2360 C 0.85435 0.36147 0.26421 0.0
C2361 C 0.88249 0.3912 0.28695 0.0
N2362 N 0.85313 0.36473 0.21515 0.0
N2363 N 0.88172 0.3909 0.26406 0.0
H2364 H 0.16239 0.34535 0.82179 0.0
H2365 H 0.11926 0.4003 0.70672 0.0
H2366 H 0.11154 0.3961 0.81913 0.0
H2367 H 0.15318 0.33685 0.70886 0.0
H2368 H 0.12059 0.40182 0.74796 0.0
H2369 H 0.1614 0.34288 0.78066 0.0
C2370 C 0.15025 0.35522 0.81258 0.0
C2371 C 0.13639 0.37031 0.824 0.0
C2372 C 0.12818 0.38778 0.7394 0.0
C2373 C 0.13637 0.36887 0.77671 0.0
C2374 C 0.12792 0.3872 0.71582 0.0
C2375 C 0.13669 0.36873 0.70426 0.0
C2376 C 0.13734 0.36976 0.75157 0.0
C2377 C 0.14675 0.35168 0.71705 0.0
C2378 C 0.15003 0.35417 0.78905 0.0
C2379 C 0.12188 0.38362 0.81108 0.0
N2380 N 0.14675 0.35257 0.73992 0.0
N2381 N 0.12245 0.38282 0.78819 0.0
H2382 H 0.15789 0.61833 0.32363 0.0
H2383 H 0.10602 0.66271 0.20649 0.0
H2384 H 0.0947 0.65264 0.31827 0.0
H2385 H 0.15464 0.6098 0.21114 0.0
H2386 H 0.10741 0.66654 0.24775 0.0
H2387 H 0.16258 0.62227 0.28269 0.0
C2388 C 0.14525 0.62704 0.31395 0.0
C2389 C 0.12581 0.635 0.3244 0.0
C2390 C 0.11804 0.65434 0.23966 0.0
C2391 C 0.13105 0.63969 0.27761 0.0
C2392 C 0.11738 0.65232 0.21611 0.0
C2393 C 0.13018 0.63588 0.20536 0.0
C2394 C 0.13186 0.64006 0.25248 0.0
C2395 C 0.14439 0.62262 0.21874 0.0
C2396 C 0.14784 0.62918 0.29057 0.0
C2397 C 0.10987 0.64604 0.31092 0.0
N2398 N 0.1448 0.62494 0.24147 0.0
N2399 N 0.11279 0.648 0.28835 0.0
loop_
_geom_bond_atom_site_label_1
_geom_bond_atom_site_label_2
_geom_bond_distance
_geom_bond_site_symmetry_2
_ccdc_geom_bond_type
Co0 O1 2.216 . S
Co0 O2 2.091 . S
Co0 O4 2.004 . S
Co0 O10 2.021 . S
Co0 O12 2.137 . S
Co0 O13 2.244 . S
O1 Co0 2.216 . S
O1 C8 1.247 . S
O2 Co0 2.091 . S
O2 C8 1.261 . S
C3 O12 1.247 . S
C3 O13 1.272 . S
O4 Co0 2.004 . S
O4 C9 1.259 . S
Co5 O6 2.061 . S
Co5 O11 2.052 . S
Co5 O13 2.135 . S
O6 Co5 2.061 . S
O6 C9 1.235 . S
C7 O10 1.238 . S
C7 O11 1.241 . S
C8 O1 1.247 . S
C8 O2 1.261 . S
C9 O4 1.259 . S
C9 O6 1.235 . S
O10 Co0 2.021 . S
O10 C7 1.238 . S
O11 Co5 2.052 . S
O11 C7 1.241 . S
O12 Co0 2.137 . S
O12 C3 1.247 . S
O13 Co0 2.244 . S
O13 C3 1.272 . S
O13 Co5 2.135 . S
Co14 O15 2.216 . S
Co14 O16 2.091 . S
Co14 O18 2.004 . S
Co14 O24 2.021 . S
Co14 O26 2.137 . S
Co14 O27 2.244 . S
O15 Co14 2.216 . S
O15 C22 1.247 . S
O16 Co14 2.091 . S
O16 C22 1.261 . S
C17 O26 1.247 . S
C17 O27 1.272 . S
O18 Co14 2.004 . S
O18 C23 1.259 . S
Co19 O20 2.061 . S
Co19 O25 2.052 . S
Co19 O27 2.135 . S
O20 Co19 2.061 . S
O20 C23 1.235 . S
C21 O24 1.238 . S
C21 O25 1.241 . S
C22 O15 1.247 . S
C22 O16 1.261 . S
C23 O18 1.259 . S
C23 O20 1.235 . S
O24 Co14 2.021 . S
O24 C21 1.238 . S
O25 Co19 2.052 . S
O25 C21 1.241 . S
O26 Co14 2.137 . S
O26 C17 1.247 . S
O27 Co14 2.244 . S
O27 C17 1.272 . S
O27 Co19 2.135 . S
Co28 O29 2.216 . S
Co28 O30 2.091 . S
Co28 O32 2.004 . S
Co28 O38 2.021 . S
Co28 O40 2.137 . S
Co28 O41 2.244 . S
O29 Co28 2.216 . S
O29 C36 1.247 . S
O30 Co28 2.091 . S
O30 C36 1.261 . S
C31 O40 1.247 . S
C31 O41 1.272 . S
O32 Co28 2.004 . S
O32 C37 1.259 . S
Co33 O34 2.061 . S
Co33 O39 2.052 . S
Co33 O41 2.135 . S
O34 Co33 2.061 . S
O34 C37 1.235 . S
C35 O38 1.238 . S
C35 O39 1.241 . S
C36 O29 1.247 . S
C36 O30 1.261 . S
C37 O32 1.259 . S
C37 O34 1.235 . S
O38 Co28 2.021 . S
O38 C35 1.238 . S
O39 Co33 2.052 . S
O39 C35 1.241 . S
O40 Co28 2.137 . S
O40 C31 1.247 . S
O41 Co28 2.244 . S
O41 C31 1.272 . S
O41 Co33 2.135 . S
Co42 O43 2.216 . S
Co42 O44 2.091 . S
Co42 O46 2.004 . S
Co42 O52 2.021 . S
Co42 O54 2.137 . S
Co42 O55 2.244 . S
O43 Co42 2.216 . S
O43 C50 1.247 . S
O44 Co42 2.091 . S
O44 C50 1.261 . S
C45 O54 1.247 . S
C45 O55 1.272 . S
O46 Co42 2.004 . S
O46 C51 1.259 . S
Co47 O48 2.061 . S
Co47 O53 2.052 . S
Co47 O55 2.135 . S
O48 Co47 2.061 . S
O48 C51 1.235 . S
C49 O52 1.238 . S
C49 O53 1.241 . S
C50 O43 1.247 . S
C50 O44 1.261 . S
C51 O46 1.259 . S
C51 O48 1.235 . S
O52 Co42 2.021 . S
O52 C49 1.238 . S
O53 Co47 2.052 . S
O53 C49 1.241 . S
O54 Co42 2.137 . S
O54 C45 1.247 . S
O55 Co42 2.244 . S
O55 C45 1.272 . S
O55 Co47 2.135 . S
Co56 O57 2.216 . S
Co56 O58 2.091 . S
Co56 O60 2.004 . S
Co56 O66 2.021 . S
Co56 O68 2.137 . S
Co56 O69 2.244 . S
O57 Co56 2.216 . S
O57 C64 1.247 . S
O58 Co56 2.091 . S
O58 C64 1.261 . S
C59 O68 1.247 . S
C59 O69 1.272 . S
O60 Co56 2.004 . S
O60 C65 1.259 . S
Co61 O62 2.061 . S
Co61 O67 2.052 . S
Co61 O69 2.135 . S
O62 Co61 2.061 . S
O62 C65 1.235 . S
C63 O66 1.238 . S
C63 O67 1.241 . S
C64 O57 1.247 . S
C64 O58 1.261 . S
C65 O60 1.259 . S
C65 O62 1.235 . S
O66 Co56 2.021 . S
O66 C63 1.238 . S
O67 Co61 2.052 . S
O67 C63 1.241 . S
O68 Co56 2.137 . S
O68 C59 1.247 . S
O69 Co56 2.244 . S
O69 C59 1.272 . S
O69 Co61 2.135 . S
Co70 O71 2.216 . S
Co70 O72 2.091 . S
Co70 O74 2.004 . S
Co70 O80 2.021 . S
Co70 O82 2.137 . S
Co70 O83 2.244 . S
O71 Co70 2.216 . S
O71 C78 1.247 . S
O72 Co70 2.091 . S
O72 C78 1.261 . S
C73 O82 1.247 . S
C73 O83 1.272 . S
O74 Co70 2.004 . S
O74 C79 1.259 . S
Co75 O76 2.061 . S
Co75 O81 2.052 . S
Co75 O83 2.135 . S
O76 Co75 2.061 . S
O76 C79 1.235 . S
C77 O80 1.238 . S
C77 O81 1.241 . S
C78 O71 1.247 . S
C78 O72 1.261 . S
C79 O74 1.259 . S
C79 O76 1.235 . S
O80 Co70 2.021 . S
O80 C77 1.238 . S
O81 Co75 2.052 . S
O81 C77 1.241 . S
O82 Co70 2.137 . S
O82 C73 1.247 . S
O83 Co70 2.244 . S
O83 C73 1.272 . S
O83 Co75 2.135 . S
Co84 O85 2.216 . S
Co84 O86 2.091 . S
Co84 O88 2.004 . S
Co84 O94 2.021 . S
Co84 O96 2.137 . S
Co84 O97 2.244 . S
O85 Co84 2.216 . S
O85 C92 1.247 . S
O86 Co84 2.091 . S
O86 C92 1.261 . S
C87 O96 1.247 . S
C87 O97 1.272 . S
O88 Co84 2.004 . S
O88 C93 1.259 . S
Co89 O90 2.061 . S
Co89 O95 2.052 . S
Co89 O97 2.135 . S
O90 Co89 2.061 . S
O90 C93 1.235 . S
C91 O94 1.238 . S
C91 O95 1.241 . S
C92 O85 1.247 . S
C92 O86 1.261 . S
C93 O88 1.259 . S
C93 O90 1.235 . S
O94 Co84 2.021 . S
O94 C91 1.238 . S
O95 Co89 2.052 . S
O95 C91 1.241 . S
O96 Co84 2.137 . S
O96 C87 1.247 . S
O97 Co84 2.244 . S
O97 C87 1.272 . S
O97 Co89 2.135 . S
Co98 O99 2.216 . S
Co98 O100 2.091 . S
Co98 O102 2.004 . S
Co98 O108 2.021 . S
Co98 O110 2.137 . S
Co98 O111 2.244 . S
O99 Co98 2.216 . S
O99 C106 1.247 . S
O100 Co98 2.091 . S
O100 C106 1.261 . S
C101 O110 1.247 . S
C101 O111 1.272 . S
O102 Co98 2.004 . S
O102 C107 1.259 . S
Co103 O104 2.061 . S
Co103 O109 2.052 . S
Co103 O111 2.135 . S
O104 Co103 2.061 . S
O104 C107 1.235 . S
C105 O108 1.238 . S
C105 O109 1.241 . S
C106 O99 1.247 . S
C106 O100 1.261 . S
C107 O102 1.259 . S
C107 O104 1.235 . S
O108 Co98 2.021 . S
O108 C105 1.238 . S
O109 Co103 2.052 . S
O109 C105 1.241 . S
O110 Co98 2.137 . S
O110 C101 1.247 . S
O111 Co98 2.244 . S
O111 C101 1.272 . S
O111 Co103 2.135 . S
Co112 O113 2.216 . S
Co112 O114 2.091 . S
Co112 O116 2.004 . S
Co112 O122 2.021 . S
Co112 O124 2.137 . S
Co112 O125 2.244 . S
O113 Co112 2.216 . S
O113 C120 1.247 . S
O114 Co112 2.091 . S
O114 C120 1.261 . S
C115 O124 1.247 . S
C115 O125 1.272 . S
O116 Co112 2.004 . S
O116 C121 1.259 . S
Co117 O118 2.061 . S
Co117 O123 2.052 . S
Co117 O125 2.135 . S
O118 Co117 2.061 . S
O118 C121 1.235 . S
C119 O122 1.238 . S
C119 O123 1.241 . S
C120 O113 1.247 . S
C120 O114 1.261 . S
C121 O116 1.259 . S
C121 O118 1.235 . S
O122 Co112 2.021 . S
O122 C119 1.238 . S
O123 Co117 2.052 . S
O123 C119 1.241 . S
O124 Co112 2.137 . S
O124 C115 1.247 . S
O125 Co112 2.244 . S
O125 C115 1.272 . S
O125 Co117 2.135 . S
Co126 O127 2.216 . S
Co126 O128 2.091 . S
Co126 O130 2.004 . S
Co126 O136 2.021 . S
Co126 O138 2.137 . S
Co126 O139 2.244 . S
O127 Co126 2.216 . S
O127 C134 1.247 . S
O128 Co126 2.091 . S
O128 C134 1.261 . S
C129 O138 1.247 . S
C129 O139 1.272 . S
O130 Co126 2.004 . S
O130 C135 1.259 . S
Co131 O132 2.061 . S
Co131 O137 2.052 . S
Co131 O139 2.135 . S
O132 Co131 2.061 . S
O132 C135 1.235 . S
C133 O136 1.238 . S
C133 O137 1.241 . S
C134 O127 1.247 . S
C134 O128 1.261 . S
C135 O130 1.259 . S
C135 O132 1.235 . S
O136 Co126 2.021 . S
O136 C133 1.238 . S
O137 Co131 2.052 . S
O137 C133 1.241 . S
O138 Co126 2.137 . S
O138 C129 1.247 . S
O139 Co126 2.244 . S
O139 C129 1.272 . S
O139 Co131 2.135 . S
Co140 O141 2.216 . S
Co140 O142 2.091 . S
Co140 O144 2.004 . S
Co140 O150 2.021 . S
Co140 O152 2.137 . S
Co140 O153 2.244 . S
O141 Co140 2.216 . S
O141 C148 1.247 . S
O142 Co140 2.091 . S
O142 C148 1.261 . S
C143 O152 1.247 . S
C143 O153 1.272 . S
O144 Co140 2.004 . S
O144 C149 1.259 . S
Co145 O146 2.061 . S
Co145 O151 2.052 . S
Co145 O153 2.135 . S
O146 Co145 2.061 . S
O146 C149 1.235 . S
C147 O150 1.238 . S
C147 O151 1.241 . S
C148 O141 1.247 . S
C148 O142 1.261 . S
C149 O144 1.259 . S
C149 O146 1.235 . S
O150 Co140 2.021 . S
O150 C147 1.238 . S
O151 Co145 2.052 . S
O151 C147 1.241 . S
O152 Co140 2.137 . S
O152 C143 1.247 . S
O153 Co140 2.244 . S
O153 C143 1.272 . S
O153 Co145 2.135 . S
Co154 O155 2.216 . S
Co154 O156 2.091 . S
Co154 O158 2.004 . S
Co154 O164 2.021 . S
Co154 O166 2.137 . S
Co154 O167 2.244 . S
O155 Co154 2.216 . S
O155 C162 1.247 . S
O156 Co154 2.091 . S
O156 C162 1.261 . S
C157 O166 1.247 . S
C157 O167 1.272 . S
O158 Co154 2.004 . S
O158 C163 1.259 . S
Co159 O160 2.061 . S
Co159 O165 2.052 . S
Co159 O167 2.135 . S
O160 Co159 2.061 . S
O160 C163 1.235 . S
C161 O164 1.238 . S
C161 O165 1.241 . S
C162 O155 1.247 . S
C162 O156 1.261 . S
C163 O158 1.259 . S
C163 O160 1.235 . S
O164 Co154 2.021 . S
O164 C161 1.238 . S
O165 Co159 2.052 . S
O165 C161 1.241 . S
O166 Co154 2.137 . S
O166 C157 1.247 . S
O167 Co154 2.244 . S
O167 C157 1.272 . S
O167 Co159 2.135 . S
Co168 O169 2.216 . S
Co168 O170 2.091 . S
Co168 O172 2.004 . S
Co168 O178 2.021 . S
Co168 O180 2.137 . S
Co168 O181 2.244 . S
O169 Co168 2.216 . S
O169 C176 1.247 . S
O170 Co168 2.091 . S
O170 C176 1.261 . S
C171 O180 1.247 . S
C171 O181 1.272 . S
O172 Co168 2.004 . S
O172 C177 1.259 . S
Co173 O174 2.061 . S
Co173 O179 2.052 . S
Co173 O181 2.135 . S
O174 Co173 2.061 . S
O174 C177 1.235 . S
C175 O178 1.238 . S
C175 O179 1.241 . S
C176 O169 1.247 . S
C176 O170 1.261 . S
C177 O172 1.259 . S
C177 O174 1.235 . S
O178 Co168 2.021 . S
O178 C175 1.238 . S
O179 Co173 2.052 . S
O179 C175 1.241 . S
O180 Co168 2.137 . S
O180 C171 1.247 . S
O181 Co168 2.244 . S
O181 C171 1.272 . S
O181 Co173 2.135 . S
Co182 O183 2.216 . S
Co182 O184 2.091 . S
Co182 O186 2.004 . S
Co182 O192 2.021 . S
Co182 O194 2.137 . S
Co182 O195 2.244 . S
O183 Co182 2.216 . S
O183 C190 1.247 . S
O184 Co182 2.091 . S
O184 C190 1.261 . S
C185 O194 1.247 . S
C185 O195 1.272 . S
O186 Co182 2.004 . S
O186 C191 1.259 . S
Co187 O188 2.061 . S
Co187 O193 2.052 . S
Co187 O195 2.135 . S
O188 Co187 2.061 . S
O188 C191 1.235 . S
C189 O192 1.238 . S
C189 O193 1.241 . S
C190 O183 1.247 . S
C190 O184 1.261 . S
C191 O186 1.259 . S
C191 O188 1.235 . S
O192 Co182 2.021 . S
O192 C189 1.238 . S
O193 Co187 2.052 . S
O193 C189 1.241 . S
O194 Co182 2.137 . S
O194 C185 1.247 . S
O195 Co182 2.244 . S
O195 C185 1.272 . S
O195 Co187 2.135 . S
Co196 O197 2.216 . S
Co196 O198 2.091 . S
Co196 O200 2.004 . S
Co196 O206 2.021 . S
Co196 O208 2.137 . S
Co196 O209 2.244 . S
O197 Co196 2.216 . S
O197 C204 1.247 . S
O198 Co196 2.091 . S
O198 C204 1.261 . S
C199 O208 1.247 . S
C199 O209 1.272 . S
O200 Co196 2.004 . S
O200 C205 1.259 . S
Co201 O202 2.061 . S
Co201 O207 2.052 . S
Co201 O209 2.135 . S
O202 Co201 2.061 . S
O202 C205 1.235 . S
C203 O206 1.238 . S
C203 O207 1.241 . S
C204 O197 1.247 . S
C204 O198 1.261 . S
C205 O200 1.259 . S
C205 O202 1.235 . S
O206 Co196 2.021 . S
O206 C203 1.238 . S
O207 Co201 2.052 . S
O207 C203 1.241 . S
O208 Co196 2.137 . S
O208 C199 1.247 . S
O209 Co196 2.244 . S
O209 C199 1.272 . S
O209 Co201 2.135 . S
Co210 O211 2.216 . S
Co210 O212 2.091 . S
Co210 O214 2.004 . S
Co210 O220 2.021 . S
Co210 O222 2.137 . S
Co210 O223 2.244 . S
O211 Co210 2.216 . S
O211 C218 1.247 . S
O212 Co210 2.091 . S
O212 C218 1.261 . S
C213 O222 1.247 . S
C213 O223 1.272 . S
O214 Co210 2.004 . S
O214 C219 1.259 . S
Co215 O216 2.061 . S
Co215 O221 2.052 . S
Co215 O223 2.135 . S
O216 Co215 2.061 . S
O216 C219 1.235 . S
C217 O220 1.238 . S
C217 O221 1.241 . S
C218 O211 1.247 . S
C218 O212 1.261 . S
C219 O214 1.259 . S
C219 O216 1.235 . S
O220 Co210 2.021 . S
O220 C217 1.238 . S
O221 Co215 2.052 . S
O221 C217 1.241 . S
O222 Co210 2.137 . S
O222 C213 1.247 . S
O223 Co210 2.244 . S
O223 C213 1.272 . S
O223 Co215 2.135 . S
Co224 O225 2.216 . S
Co224 O226 2.091 . S
Co224 O228 2.004 . S
Co224 O234 2.021 . S
Co224 O236 2.137 . S
Co224 O237 2.244 . S
O225 Co224 2.216 . S
O225 C232 1.247 . S
O226 Co224 2.091 . S
O226 C232 1.261 . S
C227 O236 1.247 . S
C227 O237 1.272 . S
O228 Co224 2.004 . S
O228 C233 1.259 . S
Co229 O230 2.061 . S
Co229 O235 2.052 . S
Co229 O237 2.135 . S
O230 Co229 2.061 . S
O230 C233 1.235 . S
C231 O234 1.238 . S
C231 O235 1.241 . S
C232 O225 1.247 . S
C232 O226 1.261 . S
C233 O228 1.259 . S
C233 O230 1.235 . S
O234 Co224 2.021 . S
O234 C231 1.238 . S
O235 Co229 2.052 . S
O235 C231 1.241 . S
O236 Co224 2.137 . S
O236 C227 1.247 . S
O237 Co224 2.244 . S
O237 C227 1.272 . S
O237 Co229 2.135 . S
Co238 O239 2.216 . S
Co238 O240 2.091 . S
Co238 O242 2.004 . S
Co238 O248 2.021 . S
Co238 O250 2.137 . S
Co238 O251 2.244 . S
O239 Co238 2.216 . S
O239 C246 1.247 . S
O240 Co238 2.091 . S
O240 C246 1.261 . S
C241 O250 1.247 . S
C241 O251 1.272 . S
O242 Co238 2.004 . S
O242 C247 1.259 . S
Co243 O244 2.061 . S
Co243 O249 2.052 . S
Co243 O251 2.135 . S
O244 Co243 2.061 . S
O244 C247 1.235 . S
C245 O248 1.238 . S
C245 O249 1.241 . S
C246 O239 1.247 . S
C246 O240 1.261 . S
C247 O242 1.259 . S
C247 O244 1.235 . S
O248 Co238 2.021 . S
O248 C245 1.238 . S
O249 Co243 2.052 . S
O249 C245 1.241 . S
O250 Co238 2.137 . S
O250 C241 1.247 . S
O251 Co238 2.244 . S
O251 C241 1.272 . S
O251 Co243 2.135 . S
Co252 O253 2.216 . S
Co252 O254 2.091 . S
Co252 O256 2.004 . S
Co252 O262 2.021 . S
Co252 O264 2.137 . S
Co252 O265 2.244 . S
O253 Co252 2.216 . S
O253 C260 1.247 . S
O254 Co252 2.091 . S
O254 C260 1.261 . S
C255 O264 1.247 . S
C255 O265 1.272 . S
O256 Co252 2.004 . S
O256 C261 1.259 . S
Co257 O258 2.061 . S
Co257 O263 2.052 . S
Co257 O265 2.135 . S
O258 Co257 2.061 . S
O258 C261 1.235 . S
C259 O262 1.238 . S
C259 O263 1.241 . S
C260 O253 1.247 . S
C260 O254 1.261 . S
C261 O256 1.259 . S
C261 O258 1.235 . S
O262 Co252 2.021 . S
O262 C259 1.238 . S
O263 Co257 2.052 . S
O263 C259 1.241 . S
O264 Co252 2.137 . S
O264 C255 1.247 . S
O265 Co252 2.244 . S
O265 C255 1.272 . S
O265 Co257 2.135 . S
Co266 O267 2.216 . S
Co266 O268 2.091 . S
Co266 O270 2.004 . S
Co266 O276 2.021 . S
Co266 O278 2.137 . S
Co266 O279 2.244 . S
O267 Co266 2.216 . S
O267 C274 1.247 . S
O268 Co266 2.091 . S
O268 C274 1.261 . S
C269 O278 1.247 . S
C269 O279 1.272 . S
O270 Co266 2.004 . S
O270 C275 1.259 . S
Co271 O272 2.061 . S
Co271 O277 2.052 . S
Co271 O279 2.135 . S
O272 Co271 2.061 . S
O272 C275 1.235 . S
C273 O276 1.238 . S
C273 O277 1.241 . S
C274 O267 1.247 . S
C274 O268 1.261 . S
C275 O270 1.259 . S
C275 O272 1.235 . S
O276 Co266 2.021 . S
O276 C273 1.238 . S
O277 Co271 2.052 . S
O277 C273 1.241 . S
O278 Co266 2.137 . S
O278 C269 1.247 . S
O279 Co266 2.244 . S
O279 C269 1.272 . S
O279 Co271 2.135 . S
Co280 O281 2.216 . S
Co280 O282 2.091 . S
Co280 O284 2.004 . S
Co280 O290 2.021 . S
Co280 O292 2.137 . S
Co280 O293 2.244 . S
O281 Co280 2.216 . S
O281 C288 1.247 . S
O282 Co280 2.091 . S
O282 C288 1.261 . S
C283 O292 1.247 . S
C283 O293 1.272 . S
O284 Co280 2.004 . S
O284 C289 1.259 . S
Co285 O286 2.061 . S
Co285 O291 2.052 . S
Co285 O293 2.135 . S
O286 Co285 2.061 . S
O286 C289 1.235 . S
C287 O290 1.238 . S
C287 O291 1.241 . S
C288 O281 1.247 . S
C288 O282 1.261 . S
C289 O284 1.259 . S
C289 O286 1.235 . S
O290 Co280 2.021 . S
O290 C287 1.238 . S
O291 Co285 2.052 . S
O291 C287 1.241 . S
O292 Co280 2.137 . S
O292 C283 1.247 . S
O293 Co280 2.244 . S
O293 C283 1.272 . S
O293 Co285 2.135 . S
Co294 O295 2.216 . S
Co294 O296 2.091 . S
Co294 O298 2.004 . S
Co294 O304 2.021 . S
Co294 O306 2.137 . S
Co294 O307 2.244 . S
O295 Co294 2.216 . S
O295 C302 1.247 . S
O296 Co294 2.091 . S
O296 C302 1.261 . S
C297 O306 1.247 . S
C297 O307 1.272 . S
O298 Co294 2.004 . S
O298 C303 1.259 . S
Co299 O300 2.061 . S
Co299 O305 2.052 . S
Co299 O307 2.135 . S
O300 Co299 2.061 . S
O300 C303 1.235 . S
C301 O304 1.238 . S
C301 O305 1.241 . S
C302 O295 1.247 . S
C302 O296 1.261 . S
C303 O298 1.259 . S
C303 O300 1.235 . S
O304 Co294 2.021 . S
O304 C301 1.238 . S
O305 Co299 2.052 . S
O305 C301 1.241 . S
O306 Co294 2.137 . S
O306 C297 1.247 . S
O307 Co294 2.244 . S
O307 C297 1.272 . S
O307 Co299 2.135 . S
Co308 O309 2.216 . S
Co308 O310 2.091 . S
Co308 O312 2.004 . S
Co308 O318 2.021 . S
Co308 O320 2.137 . S
Co308 O321 2.244 . S
O309 Co308 2.216 . S
O309 C316 1.247 . S
O310 Co308 2.091 . S
O310 C316 1.261 . S
C311 O320 1.247 . S
C311 O321 1.272 . S
O312 Co308 2.004 . S
O312 C317 1.259 . S
Co313 O314 2.061 . S
Co313 O319 2.052 . S
Co313 O321 2.135 . S
O314 Co313 2.061 . S
O314 C317 1.235 . S
C315 O318 1.238 . S
C315 O319 1.241 . S
C316 O309 1.247 . S
C316 O310 1.261 . S
C317 O312 1.259 . S
C317 O314 1.235 . S
O318 Co308 2.021 . S
O318 C315 1.238 . S
O319 Co313 2.052 . S
O319 C315 1.241 . S
O320 Co308 2.137 . S
O320 C311 1.247 . S
O321 Co308 2.244 . S
O321 C311 1.272 . S
O321 Co313 2.135 . S
Co322 O323 2.216 . S
Co322 O324 2.091 . S
Co322 O326 2.004 . S
Co322 O332 2.021 . S
Co322 O334 2.137 . S
Co322 O335 2.244 . S
O323 Co322 2.216 . S
O323 C330 1.247 . S
O324 Co322 2.091 . S
O324 C330 1.261 . S
C325 O334 1.247 . S
C325 O335 1.272 . S
O326 Co322 2.004 . S
O326 C331 1.259 . S
Co327 O328 2.061 . S
Co327 O333 2.052 . S
Co327 O335 2.135 . S
O328 Co327 2.061 . S
O328 C331 1.235 . S
C329 O332 1.238 . S
C329 O333 1.241 . S
C330 O323 1.247 . S
C330 O324 1.261 . S
C331 O326 1.259 . S
C331 O328 1.235 . S
O332 Co322 2.021 . S
O332 C329 1.238 . S
O333 Co327 2.052 . S
O333 C329 1.241 . S
O334 Co322 2.137 . S
O334 C325 1.247 . S
O335 Co322 2.244 . S
O335 C325 1.272 . S
O335 Co327 2.135 . S
Co336 O337 2.216 . S
Co336 O338 2.091 . S
Co336 O340 2.004 . S
Co336 O346 2.021 . S
Co336 O348 2.137 . S
Co336 O349 2.244 . S
O337 Co336 2.216 . S
O337 C344 1.247 . S
O338 Co336 2.091 . S
O338 C344 1.261 . S
C339 O348 1.247 . S
C339 O349 1.272 . S
O340 Co336 2.004 . S
O340 C345 1.259 . S
Co341 O342 2.061 . S
Co341 O347 2.052 . S
Co341 O349 2.135 . S
O342 Co341 2.061 . S
O342 C345 1.235 . S
C343 O346 1.238 . S
C343 O347 1.241 . S
C344 O337 1.247 . S
C344 O338 1.261 . S
C345 O340 1.259 . S
C345 O342 1.235 . S
O346 Co336 2.021 . S
O346 C343 1.238 . S
O347 Co341 2.052 . S
O347 C343 1.241 . S
O348 Co336 2.137 . S
O348 C339 1.247 . S
O349 Co336 2.244 . S
O349 C339 1.272 . S
O349 Co341 2.135 . S
Co350 O351 2.216 . S
Co350 O352 2.091 . S
Co350 O354 2.004 . S
Co350 O360 2.021 . S
Co350 O362 2.137 . S
Co350 O363 2.244 . S
O351 Co350 2.216 . S
O351 C358 1.247 . S
O352 Co350 2.091 . S
O352 C358 1.261 . S
C353 O362 1.247 . S
C353 O363 1.272 . S
O354 Co350 2.004 . S
O354 C359 1.259 . S
Co355 O356 2.061 . S
Co355 O361 2.052 . S
Co355 O363 2.135 . S
O356 Co355 2.061 . S
O356 C359 1.235 . S
C357 O360 1.238 . S
C357 O361 1.241 . S
C358 O351 1.247 . S
C358 O352 1.261 . S
C359 O354 1.259 . S
C359 O356 1.235 . S
O360 Co350 2.021 . S
O360 C357 1.238 . S
O361 Co355 2.052 . S
O361 C357 1.241 . S
O362 Co350 2.137 . S
O362 C353 1.247 . S
O363 Co350 2.244 . S
O363 C353 1.272 . S
O363 Co355 2.135 . S
Co364 O365 2.216 . S
Co364 O366 2.091 . S
Co364 O368 2.004 . S
Co364 O374 2.021 . S
Co364 O376 2.137 . S
Co364 O377 2.244 . S
O365 Co364 2.216 . S
O365 C372 1.247 . S
O366 Co364 2.091 . S
O366 C372 1.261 . S
C367 O376 1.247 . S
C367 O377 1.272 . S
O368 Co364 2.004 . S
O368 C373 1.259 . S
Co369 O370 2.061 . S
Co369 O375 2.052 . S
Co369 O377 2.135 . S
O370 Co369 2.061 . S
O370 C373 1.235 . S
C371 O374 1.238 . S
C371 O375 1.241 . S
C372 O365 1.247 . S
C372 O366 1.261 . S
C373 O368 1.259 . S
C373 O370 1.235 . S
O374 Co364 2.021 . S
O374 C371 1.238 . S
O375 Co369 2.052 . S
O375 C371 1.241 . S
O376 Co364 2.137 . S
O376 C367 1.247 . S
O377 Co364 2.244 . S
O377 C367 1.272 . S
O377 Co369 2.135 . S
Co378 O379 2.216 . S
Co378 O380 2.091 . S
Co378 O382 2.004 . S
Co378 O388 2.021 . S
Co378 O390 2.137 . S
Co378 O391 2.244 . S
O379 Co378 2.216 . S
O379 C386 1.247 . S
O380 Co378 2.091 . S
O380 C386 1.261 . S
C381 O390 1.247 . S
C381 O391 1.272 . S
O382 Co378 2.004 . S
O382 C387 1.259 . S
Co383 O384 2.061 . S
Co383 O389 2.052 . S
Co383 O391 2.135 . S
O384 Co383 2.061 . S
O384 C387 1.235 . S
C385 O388 1.238 . S
C385 O389 1.241 . S
C386 O379 1.247 . S
C386 O380 1.261 . S
C387 O382 1.259 . S
C387 O384 1.235 . S
O388 Co378 2.021 . S
O388 C385 1.238 . S
O389 Co383 2.052 . S
O389 C385 1.241 . S
O390 Co378 2.137 . S
O390 C381 1.247 . S
O391 Co378 2.244 . S
O391 C381 1.272 . S
O391 Co383 2.135 . S
Co392 O393 2.216 . S
Co392 O394 2.091 . S
Co392 O396 2.004 . S
Co392 O402 2.021 . S
Co392 O404 2.137 . S
Co392 O405 2.244 . S
O393 Co392 2.216 . S
O393 C400 1.247 . S
O394 Co392 2.091 . S
O394 C400 1.261 . S
C395 O404 1.247 . S
C395 O405 1.272 . S
O396 Co392 2.004 . S
O396 C401 1.259 . S
Co397 O398 2.061 . S
Co397 O403 2.052 . S
Co397 O405 2.135 . S
O398 Co397 2.061 . S
O398 C401 1.235 . S
C399 O402 1.238 . S
C399 O403 1.241 . S
C400 O393 1.247 . S
C400 O394 1.261 . S
C401 O396 1.259 . S
C401 O398 1.235 . S
O402 Co392 2.021 . S
O402 C399 1.238 . S
O403 Co397 2.052 . S
O403 C399 1.241 . S
O404 Co392 2.137 . S
O404 C395 1.247 . S
O405 Co392 2.244 . S
O405 C395 1.272 . S
O405 Co397 2.135 . S
Co406 O407 2.216 . S
Co406 O408 2.091 . S
Co406 O410 2.004 . S
Co406 O416 2.021 . S
Co406 O418 2.137 . S
Co406 O419 2.244 . S
O407 Co406 2.216 . S
O407 C414 1.247 . S
O408 Co406 2.091 . S
O408 C414 1.261 . S
C409 O418 1.247 . S
C409 O419 1.272 . S
O410 Co406 2.004 . S
O410 C415 1.259 . S
Co411 O412 2.061 . S
Co411 O417 2.052 . S
Co411 O419 2.135 . S
O412 Co411 2.061 . S
O412 C415 1.235 . S
C413 O416 1.238 . S
C413 O417 1.241 . S
C414 O407 1.247 . S
C414 O408 1.261 . S
C415 O410 1.259 . S
C415 O412 1.235 . S
O416 Co406 2.021 . S
O416 C413 1.238 . S
O417 Co411 2.052 . S
O417 C413 1.241 . S
O418 Co406 2.137 . S
O418 C409 1.247 . S
O419 Co406 2.244 . S
O419 C409 1.272 . S
O419 Co411 2.135 . S
Co420 O421 2.216 . S
Co420 O422 2.091 . S
Co420 O424 2.004 . S
Co420 O430 2.021 . S
Co420 O432 2.137 . S
Co420 O433 2.244 . S
O421 Co420 2.216 . S
O421 C428 1.247 . S
O422 Co420 2.091 . S
O422 C428 1.261 . S
C423 O432 1.247 . S
C423 O433 1.272 . S
O424 Co420 2.004 . S
O424 C429 1.259 . S
Co425 O426 2.061 . S
Co425 O431 2.052 . S
Co425 O433 2.135 . S
O426 Co425 2.061 . S
O426 C429 1.235 . S
C427 O430 1.238 . S
C427 O431 1.241 . S
C428 O421 1.247 . S
C428 O422 1.261 . S
C429 O424 1.259 . S
C429 O426 1.235 . S
O430 Co420 2.021 . S
O430 C427 1.238 . S
O431 Co425 2.052 . S
O431 C427 1.241 . S
O432 Co420 2.137 . S
O432 C423 1.247 . S
O433 Co420 2.244 . S
O433 C423 1.272 . S
O433 Co425 2.135 . S
Co434 O435 2.216 . S
Co434 O436 2.091 . S
Co434 O438 2.004 . S
Co434 O444 2.021 . S
Co434 O446 2.137 . S
Co434 O447 2.244 . S
O435 Co434 2.216 . S
O435 C442 1.247 . S
O436 Co434 2.091 . S
O436 C442 1.261 . S
C437 O446 1.247 . S
C437 O447 1.272 . S
O438 Co434 2.004 . S
O438 C443 1.259 . S
Co439 O440 2.061 . S
Co439 O445 2.052 . S
Co439 O447 2.135 . S
O440 Co439 2.061 . S
O440 C443 1.235 . S
C441 O444 1.238 . S
C441 O445 1.241 . S
C442 O435 1.247 . S
C442 O436 1.261 . S
C443 O438 1.259 . S
C443 O440 1.235 . S
O444 Co434 2.021 . S
O444 C441 1.238 . S
O445 Co439 2.052 . S
O445 C441 1.241 . S
O446 Co434 2.137 . S
O446 C437 1.247 . S
O447 Co434 2.244 . S
O447 C437 1.272 . S
O447 Co439 2.135 . S
Co448 O449 2.216 . S
Co448 O450 2.091 . S
Co448 O452 2.004 . S
Co448 O458 2.021 . S
Co448 O460 2.137 . S
Co448 O461 2.244 . S
O449 Co448 2.216 . S
O449 C456 1.247 . S
O450 Co448 2.091 . S
O450 C456 1.261 . S
C451 O460 1.247 . S
C451 O461 1.272 . S
O452 Co448 2.004 . S
O452 C457 1.259 . S
Co453 O454 2.061 . S
Co453 O459 2.052 . S
Co453 O461 2.135 . S
O454 Co453 2.061 . S
O454 C457 1.235 . S
C455 O458 1.238 . S
C455 O459 1.241 . S
C456 O449 1.247 . S
C456 O450 1.261 . S
C457 O452 1.259 . S
C457 O454 1.235 . S
O458 Co448 2.021 . S
O458 C455 1.238 . S
O459 Co453 2.052 . S
O459 C455 1.241 . S
O460 Co448 2.137 . S
O460 C451 1.247 . S
O461 Co448 2.244 . S
O461 C451 1.272 . S
O461 Co453 2.135 . S
Co462 O463 2.216 . S
Co462 O464 2.091 . S
Co462 O466 2.004 . S
Co462 O472 2.021 . S
Co462 O474 2.137 . S
Co462 O475 2.244 . S
O463 Co462 2.216 . S
O463 C470 1.247 . S
O464 Co462 2.091 . S
O464 C470 1.261 . S
C465 O474 1.247 . S
C465 O475 1.272 . S
O466 Co462 2.004 . S
O466 C471 1.259 . S
Co467 O468 2.061 . S
Co467 O473 2.052 . S
Co467 O475 2.135 . S
O468 Co467 2.061 . S
O468 C471 1.235 . S
C469 O472 1.238 . S
C469 O473 1.241 . S
C470 O463 1.247 . S
C470 O464 1.261 . S
C471 O466 1.259 . S
C471 O468 1.235 . S
O472 Co462 2.021 . S
O472 C469 1.238 . S
O473 Co467 2.052 . S
O473 C469 1.241 . S
O474 Co462 2.137 . S
O474 C465 1.247 . S
O475 Co462 2.244 . S
O475 C465 1.272 . S
O475 Co467 2.135 . S
Co476 O477 2.216 . S
Co476 O478 2.091 . S
Co476 O480 2.004 . S
Co476 O486 2.021 . S
Co476 O488 2.137 . S
Co476 O489 2.244 . S
O477 Co476 2.216 . S
O477 C484 1.247 . S
O478 Co476 2.091 . S
O478 C484 1.261 . S
C479 O488 1.247 . S
C479 O489 1.272 . S
O480 Co476 2.004 . S
O480 C485 1.259 . S
Co481 O482 2.061 . S
Co481 O487 2.052 . S
Co481 O489 2.135 . S
O482 Co481 2.061 . S
O482 C485 1.235 . S
C483 O486 1.238 . S
C483 O487 1.241 . S
C484 O477 1.247 . S
C484 O478 1.261 . S
C485 O480 1.259 . S
C485 O482 1.235 . S
O486 Co476 2.021 . S
O486 C483 1.238 . S
O487 Co481 2.052 . S
O487 C483 1.241 . S
O488 Co476 2.137 . S
O488 C479 1.247 . S
O489 Co476 2.244 . S
O489 C479 1.272 . S
O489 Co481 2.135 . S
Co490 O491 2.216 . S
Co490 O492 2.091 . S
Co490 O494 2.004 . S
Co490 O500 2.021 . S
Co490 O502 2.137 . S
Co490 O503 2.244 . S
O491 Co490 2.216 . S
O491 C498 1.247 . S
O492 Co490 2.091 . S
O492 C498 1.261 . S
C493 O502 1.247 . S
C493 O503 1.272 . S
O494 Co490 2.004 . S
O494 C499 1.259 . S
Co495 O496 2.061 . S
Co495 O501 2.052 . S
Co495 O503 2.135 . S
O496 Co495 2.061 . S
O496 C499 1.235 . S
C497 O500 1.238 . S
C497 O501 1.241 . S
C498 O491 1.247 . S
C498 O492 1.261 . S
C499 O494 1.259 . S
C499 O496 1.235 . S
O500 Co490 2.021 . S
O500 C497 1.238 . S
O501 Co495 2.052 . S
O501 C497 1.241 . S
O502 Co490 2.137 . S
O502 C493 1.247 . S
O503 Co490 2.244 . S
O503 C493 1.272 . S
O503 Co495 2.135 . S
Co504 O505 2.216 . S
Co504 O506 2.091 . S
Co504 O508 2.004 . S
Co504 O514 2.021 . S
Co504 O516 2.137 . S
Co504 O517 2.244 . S
O505 Co504 2.216 . S
O505 C512 1.247 . S
O506 Co504 2.091 . S
O506 C512 1.261 . S
C507 O516 1.247 . S
C507 O517 1.272 . S
O508 Co504 2.004 . S
O508 C513 1.259 . S
Co509 O510 2.061 . S
Co509 O515 2.052 . S
Co509 O517 2.135 . S
O510 Co509 2.061 . S
O510 C513 1.235 . S
C511 O514 1.238 . S
C511 O515 1.241 . S
C512 O505 1.247 . S
C512 O506 1.261 . S
C513 O508 1.259 . S
C513 O510 1.235 . S
O514 Co504 2.021 . S
O514 C511 1.238 . S
O515 Co509 2.052 . S
O515 C511 1.241 . S
O516 Co504 2.137 . S
O516 C507 1.247 . S
O517 Co504 2.244 . S
O517 C507 1.272 . S
O517 Co509 2.135 . S
Co518 O519 2.216 . S
Co518 O520 2.091 . S
Co518 O522 2.004 . S
Co518 O528 2.021 . S
Co518 O530 2.137 . S
Co518 O531 2.244 . S
O519 Co518 2.216 . S
O519 C526 1.247 . S
O520 Co518 2.091 . S
O520 C526 1.261 . S
C521 O530 1.247 . S
C521 O531 1.272 . S
O522 Co518 2.004 . S
O522 C527 1.259 . S
Co523 O524 2.061 . S
Co523 O529 2.052 . S
Co523 O531 2.135 . S
O524 Co523 2.061 . S
O524 C527 1.235 . S
C525 O528 1.238 . S
C525 O529 1.241 . S
C526 O519 1.247 . S
C526 O520 1.261 . S
C527 O522 1.259 . S
C527 O524 1.235 . S
O528 Co518 2.021 . S
O528 C525 1.238 . S
O529 Co523 2.052 . S
O529 C525 1.241 . S
O530 Co518 2.137 . S
O530 C521 1.247 . S
O531 Co518 2.244 . S
O531 C521 1.272 . S
O531 Co523 2.135 . S
Co532 O533 2.216 . S
Co532 O534 2.091 . S
Co532 O536 2.004 . S
Co532 O542 2.021 . S
Co532 O544 2.137 . S
Co532 O545 2.244 . S
O533 Co532 2.216 . S
O533 C540 1.247 . S
O534 Co532 2.091 . S
O534 C540 1.261 . S
C535 O544 1.247 . S
C535 O545 1.272 . S
O536 Co532 2.004 . S
O536 C541 1.259 . S
Co537 O538 2.061 . S
Co537 O543 2.052 . S
Co537 O545 2.135 . S
O538 Co537 2.061 . S
O538 C541 1.235 . S
C539 O542 1.238 . S
C539 O543 1.241 . S
C540 O533 1.247 . S
C540 O534 1.261 . S
C541 O536 1.259 . S
C541 O538 1.235 . S
O542 Co532 2.021 . S
O542 C539 1.238 . S
O543 Co537 2.052 . S
O543 C539 1.241 . S
O544 Co532 2.137 . S
O544 C535 1.247 . S
O545 Co532 2.244 . S
O545 C535 1.272 . S
O545 Co537 2.135 . S
Co546 O547 2.216 . S
Co546 O548 2.091 . S
Co546 O550 2.004 . S
Co546 O556 2.021 . S
Co546 O558 2.137 . S
Co546 O559 2.244 . S
O547 Co546 2.216 . S
O547 C554 1.247 . S
O548 Co546 2.091 . S
O548 C554 1.261 . S
C549 O558 1.247 . S
C549 O559 1.272 . S
O550 Co546 2.004 . S
O550 C555 1.259 . S
Co551 O552 2.061 . S
Co551 O557 2.052 . S
Co551 O559 2.135 . S
O552 Co551 2.061 . S
O552 C555 1.235 . S
C553 O556 1.238 . S
C553 O557 1.241 . S
C554 O547 1.247 . S
C554 O548 1.261 . S
C555 O550 1.259 . S
C555 O552 1.235 . S
O556 Co546 2.021 . S
O556 C553 1.238 . S
O557 Co551 2.052 . S
O557 C553 1.241 . S
O558 Co546 2.137 . S
O558 C549 1.247 . S
O559 Co546 2.244 . S
O559 C549 1.272 . S
O559 Co551 2.135 . S
Co560 O561 2.216 . S
Co560 O562 2.091 . S
Co560 O564 2.004 . S
Co560 O570 2.021 . S
Co560 O572 2.137 . S
Co560 O573 2.244 . S
O561 Co560 2.216 . S
O561 C568 1.247 . S
O562 Co560 2.091 . S
O562 C568 1.261 . S
C563 O572 1.247 . S
C563 O573 1.272 . S
O564 Co560 2.004 . S
O564 C569 1.259 . S
Co565 O566 2.061 . S
Co565 O571 2.052 . S
Co565 O573 2.135 . S
O566 Co565 2.061 . S
O566 C569 1.235 . S
C567 O570 1.238 . S
C567 O571 1.241 . S
C568 O561 1.247 . S
C568 O562 1.261 . S
C569 O564 1.259 . S
C569 O566 1.235 . S
O570 Co560 2.021 . S
O570 C567 1.238 . S
O571 Co565 2.052 . S
O571 C567 1.241 . S
O572 Co560 2.137 . S
O572 C563 1.247 . S
O573 Co560 2.244 . S
O573 C563 1.272 . S
O573 Co565 2.135 . S
Co574 O575 2.216 . S
Co574 O576 2.091 . S
Co574 O578 2.004 . S
Co574 O584 2.021 . S
Co574 O586 2.137 . S
Co574 O587 2.244 . S
O575 Co574 2.216 . S
O575 C582 1.247 . S
O576 Co574 2.091 . S
O576 C582 1.261 . S
C577 O586 1.247 . S
C577 O587 1.272 . S
O578 Co574 2.004 . S
O578 C583 1.259 . S
Co579 O580 2.061 . S
Co579 O585 2.052 . S
Co579 O587 2.135 . S
O580 Co579 2.061 . S
O580 C583 1.235 . S
C581 O584 1.238 . S
C581 O585 1.241 . S
C582 O575 1.247 . S
C582 O576 1.261 . S
C583 O578 1.259 . S
C583 O580 1.235 . S
O584 Co574 2.021 . S
O584 C581 1.238 . S
O585 Co579 2.052 . S
O585 C581 1.241 . S
O586 Co574 2.137 . S
O586 C577 1.247 . S
O587 Co574 2.244 . S
O587 C577 1.272 . S
O587 Co579 2.135 . S
Co588 O589 2.216 . S
Co588 O590 2.091 . S
Co588 O592 2.004 . S
Co588 O598 2.021 . S
Co588 O600 2.137 . S
Co588 O601 2.244 . S
O589 Co588 2.216 . S
O589 C596 1.247 . S
O590 Co588 2.091 . S
O590 C596 1.261 . S
C591 O600 1.247 . S
C591 O601 1.272 . S
O592 Co588 2.004 . S
O592 C597 1.259 . S
Co593 O594 2.061 . S
Co593 O599 2.052 . S
Co593 O601 2.135 . S
O594 Co593 2.061 . S
O594 C597 1.235 . S
C595 O598 1.238 . S
C595 O599 1.241 . S
C596 O589 1.247 . S
C596 O590 1.261 . S
C597 O592 1.259 . S
C597 O594 1.235 . S
O598 Co588 2.021 . S
O598 C595 1.238 . S
O599 Co593 2.052 . S
O599 C595 1.241 . S
O600 Co588 2.137 . S
O600 C591 1.247 . S
O601 Co588 2.244 . S
O601 C591 1.272 . S
O601 Co593 2.135 . S
Co602 O603 2.216 . S
Co602 O604 2.091 . S
Co602 O606 2.004 . S
Co602 O612 2.021 . S
Co602 O614 2.137 . S
Co602 O615 2.244 . S
O603 Co602 2.216 . S
O603 C610 1.247 . S
O604 Co602 2.091 . S
O604 C610 1.261 . S
C605 O614 1.247 . S
C605 O615 1.272 . S
O606 Co602 2.004 . S
O606 C611 1.259 . S
Co607 O608 2.061 . S
Co607 O613 2.052 . S
Co607 O615 2.135 . S
O608 Co607 2.061 . S
O608 C611 1.235 . S
C609 O612 1.238 . S
C609 O613 1.241 . S
C610 O603 1.247 . S
C610 O604 1.261 . S
C611 O606 1.259 . S
C611 O608 1.235 . S
O612 Co602 2.021 . S
O612 C609 1.238 . S
O613 Co607 2.052 . S
O613 C609 1.241 . S
O614 Co602 2.137 . S
O614 C605 1.247 . S
O615 Co602 2.244 . S
O615 C605 1.272 . S
O615 Co607 2.135 . S
Co616 O617 2.216 . S
Co616 O618 2.091 . S
Co616 O620 2.004 . S
Co616 O626 2.021 . S
Co616 O628 2.137 . S
Co616 O629 2.244 . S
O617 Co616 2.216 . S
O617 C624 1.247 . S
O618 Co616 2.091 . S
O618 C624 1.261 . S
C619 O628 1.247 . S
C619 O629 1.272 . S
O620 Co616 2.004 . S
O620 C625 1.259 . S
Co621 O622 2.061 . S
Co621 O627 2.052 . S
Co621 O629 2.135 . S
O622 Co621 2.061 . S
O622 C625 1.235 . S
C623 O626 1.238 . S
C623 O627 1.241 . S
C624 O617 1.247 . S
C624 O618 1.261 . S
C625 O620 1.259 . S
C625 O622 1.235 . S
O626 Co616 2.021 . S
O626 C623 1.238 . S
O627 Co621 2.052 . S
O627 C623 1.241 . S
O628 Co616 2.137 . S
O628 C619 1.247 . S
O629 Co616 2.244 . S
O629 C619 1.272 . S
O629 Co621 2.135 . S
Co630 O631 2.216 . S
Co630 O632 2.091 . S
Co630 O634 2.004 . S
Co630 O640 2.021 . S
Co630 O642 2.137 . S
Co630 O643 2.244 . S
O631 Co630 2.216 . S
O631 C638 1.247 . S
O632 Co630 2.091 . S
O632 C638 1.261 . S
C633 O642 1.247 . S
C633 O643 1.272 . S
O634 Co630 2.004 . S
O634 C639 1.259 . S
Co635 O636 2.061 . S
Co635 O641 2.052 . S
Co635 O643 2.135 . S
O636 Co635 2.061 . S
O636 C639 1.235 . S
C637 O640 1.238 . S
C637 O641 1.241 . S
C638 O631 1.247 . S
C638 O632 1.261 . S
C639 O634 1.259 . S
C639 O636 1.235 . S
O640 Co630 2.021 . S
O640 C637 1.238 . S
O641 Co635 2.052 . S
O641 C637 1.241 . S
O642 Co630 2.137 . S
O642 C633 1.247 . S
O643 Co630 2.244 . S
O643 C633 1.272 . S
O643 Co635 2.135 . S
Co644 O645 2.216 . S
Co644 O646 2.091 . S
Co644 O648 2.004 . S
Co644 O654 2.021 . S
Co644 O656 2.137 . S
Co644 O657 2.244 . S
O645 Co644 2.216 . S
O645 C652 1.247 . S
O646 Co644 2.091 . S
O646 C652 1.261 . S
C647 O656 1.247 . S
C647 O657 1.272 . S
O648 Co644 2.004 . S
O648 C653 1.259 . S
Co649 O650 2.061 . S
Co649 O655 2.052 . S
Co649 O657 2.135 . S
O650 Co649 2.061 . S
O650 C653 1.235 . S
C651 O654 1.238 . S
C651 O655 1.241 . S
C652 O645 1.247 . S
C652 O646 1.261 . S
C653 O648 1.259 . S
C653 O650 1.235 . S
O654 Co644 2.021 . S
O654 C651 1.238 . S
O655 Co649 2.052 . S
O655 C651 1.241 . S
O656 Co644 2.137 . S
O656 C647 1.247 . S
O657 Co644 2.244 . S
O657 C647 1.272 . S
O657 Co649 2.135 . S
Co658 O659 2.216 . S
Co658 O660 2.091 . S
Co658 O662 2.004 . S
Co658 O668 2.021 . S
Co658 O670 2.137 . S
Co658 O671 2.244 . S
O659 Co658 2.216 . S
O659 C666 1.247 . S
O660 Co658 2.091 . S
O660 C666 1.261 . S
C661 O670 1.247 . S
C661 O671 1.272 . S
O662 Co658 2.004 . S
O662 C667 1.259 . S
Co663 O664 2.061 . S
Co663 O669 2.052 . S
Co663 O671 2.135 . S
O664 Co663 2.061 . S
O664 C667 1.235 . S
C665 O668 1.238 . S
C665 O669 1.241 . S
C666 O659 1.247 . S
C666 O660 1.261 . S
C667 O662 1.259 . S
C667 O664 1.235 . S
O668 Co658 2.021 . S
O668 C665 1.238 . S
O669 Co663 2.052 . S
O669 C665 1.241 . S
O670 Co658 2.137 . S
O670 C661 1.247 . S
O671 Co658 2.244 . S
O671 C661 1.272 . S
O671 Co663 2.135 . S
H672 C678 0.930 . S
H673 C682 0.930 . S
H674 C687 0.929 . S
H675 C685 0.929 . S
H676 C680 0.929 . S
H677 C686 0.929 . S
C678 H672 0.930 . S
C678 C679 1.367 . S
C678 C686 1.378 . S
C679 C678 1.367 . S
C679 C687 1.433 . S
C680 H676 0.929 . S
C680 C682 1.378 . S
C680 C684 1.350 . S
C681 C684 1.463 . S
C681 C686 1.350 . S
C681 N689 1.427 . S
C682 H673 0.930 . S
C682 C680 1.378 . S
C682 C683 1.367 . S
C683 C682 1.367 . S
C683 C685 1.433 . S
C684 C680 1.350 . S
C684 C681 1.463 . S
C684 N688 1.427 . S
C685 H675 0.929 . S
C685 C683 1.433 . S
C685 N688 1.384 . S
C686 H677 0.929 . S
C686 C678 1.378 . S
C686 C681 1.350 . S
C687 H674 0.929 . S
C687 C679 1.433 . S
C687 N689 1.384 . S
N688 C684 1.427 . S
N688 C685 1.384 . S
N689 C681 1.427 . S
N689 C687 1.384 . S
H690 C696 0.930 . S
H691 C700 0.930 . S
H692 C705 0.929 . S
H693 C703 0.929 . S
H694 C698 0.929 . S
H695 C704 0.929 . S
C696 H690 0.930 . S
C696 C697 1.367 . S
C696 C704 1.378 . S
C697 C696 1.367 . S
C697 C705 1.433 . S
C698 H694 0.929 . S
C698 C700 1.378 . S
C698 C702 1.350 . S
C699 C702 1.463 . S
C699 C704 1.350 . S
C699 N707 1.427 . S
C700 H691 0.930 . S
C700 C698 1.378 . S
C700 C701 1.367 . S
C701 C700 1.367 . S
C701 C703 1.433 . S
C702 C698 1.350 . S
C702 C699 1.463 . S
C702 N706 1.427 . S
C703 H693 0.929 . S
C703 C701 1.433 . S
C703 N706 1.384 . S
C704 H695 0.929 . S
C704 C696 1.378 . S
C704 C699 1.350 . S
C705 H692 0.929 . S
C705 C697 1.433 . S
C705 N707 1.384 . S
N706 C702 1.427 . S
N706 C703 1.384 . S
N707 C699 1.427 . S
N707 C705 1.384 . S
H708 C714 0.930 . S
H709 C718 0.930 . S
H710 C723 0.929 . S
H711 C721 0.929 . S
H712 C716 0.929 . S
H713 C722 0.929 . S
C714 H708 0.930 . S
C714 C715 1.367 . S
C714 C722 1.378 . S
C715 C714 1.367 . S
C715 C723 1.433 . S
C716 H712 0.929 . S
C716 C718 1.378 . S
C716 C720 1.350 . S
C717 C720 1.463 . S
C717 C722 1.350 . S
C717 N725 1.427 . S
C718 H709 0.930 . S
C718 C716 1.378 . S
C718 C719 1.367 . S
C719 C718 1.367 . S
C719 C721 1.433 . S
C720 C716 1.350 . S
C720 C717 1.463 . S
C720 N724 1.427 . S
C721 H711 0.929 . S
C721 C719 1.433 . S
C721 N724 1.384 . S
C722 H713 0.929 . S
C722 C714 1.378 . S
C722 C717 1.350 . S
C723 H710 0.929 . S
C723 C715 1.433 . S
C723 N725 1.384 . S
N724 C720 1.427 . S
N724 C721 1.384 . S
N725 C717 1.427 . S
N725 C723 1.384 . S
H726 C732 0.930 . S
H727 C736 0.930 . S
H728 C741 0.929 . S
H729 C739 0.929 . S
H730 C734 0.929 . S
H731 C740 0.929 . S
C732 H726 0.930 . S
C732 C733 1.367 . S
C732 C740 1.378 . S
C733 C732 1.367 . S
C733 C741 1.433 . S
C734 H730 0.929 . S
C734 C736 1.378 . S
C734 C738 1.350 . S
C735 C738 1.463 . S
C735 C740 1.350 . S
C735 N743 1.427 . S
C736 H727 0.930 . S
C736 C734 1.378 . S
C736 C737 1.367 . S
C737 C736 1.367 . S
C737 C739 1.433 . S
C738 C734 1.350 . S
C738 C735 1.463 . S
C738 N742 1.427 . S
C739 H729 0.929 . S
C739 C737 1.433 . S
C739 N742 1.384 . S
C740 H731 0.929 . S
C740 C732 1.378 . S
C740 C735 1.350 . S
C741 H728 0.929 . S
C741 C733 1.433 . S
C741 N743 1.384 . S
N742 C738 1.427 . S
N742 C739 1.384 . S
N743 C735 1.427 . S
N743 C741 1.384 . S
H744 C750 0.930 . S
H745 C754 0.930 . S
H746 C759 0.929 . S
H747 C757 0.929 . S
H748 C752 0.929 . S
H749 C758 0.929 . S
C750 H744 0.930 . S
C750 C751 1.367 . S
C750 C758 1.378 . S
C751 C750 1.367 . S
C751 C759 1.433 . S
C752 H748 0.929 . S
C752 C754 1.378 . S
C752 C756 1.350 . S
C753 C756 1.463 . S
C753 C758 1.350 . S
C753 N761 1.427 . S
C754 H745 0.930 . S
C754 C752 1.378 . S
C754 C755 1.367 . S
C755 C754 1.367 . S
C755 C757 1.433 . S
C756 C752 1.350 . S
C756 C753 1.463 . S
C756 N760 1.427 . S
C757 H747 0.929 . S
C757 C755 1.433 . S
C757 N760 1.384 . S
C758 H749 0.929 . S
C758 C750 1.378 . S
C758 C753 1.350 . S
C759 H746 0.929 . S
C759 C751 1.433 . S
C759 N761 1.384 . S
N760 C756 1.427 . S
N760 C757 1.384 . S
N761 C753 1.427 . S
N761 C759 1.384 . S
H762 C768 0.930 . S
H763 C772 0.930 . S
H764 C777 0.929 . S
H765 C775 0.929 . S
H766 C770 0.929 . S
H767 C776 0.929 . S
C768 H762 0.930 . S
C768 C769 1.367 . S
C768 C776 1.378 . S
C769 C768 1.367 . S
C769 C777 1.433 . S
C770 H766 0.929 . S
C770 C772 1.378 . S
C770 C774 1.350 . S
C771 C774 1.463 . S
C771 C776 1.350 . S
C771 N779 1.427 . S
C772 H763 0.930 . S
C772 C770 1.378 . S
C772 C773 1.367 . S
C773 C772 1.367 . S
C773 C775 1.433 . S
C774 C770 1.350 . S
C774 C771 1.463 . S
C774 N778 1.427 . S
C775 H765 0.929 . S
C775 C773 1.433 . S
C775 N778 1.384 . S
C776 H767 0.929 . S
C776 C768 1.378 . S
C776 C771 1.350 . S
C777 H764 0.929 . S
C777 C769 1.433 . S
C777 N779 1.384 . S
N778 C774 1.427 . S
N778 C775 1.384 . S
N779 C771 1.427 . S
N779 C777 1.384 . S
H780 C786 0.930 . S
H781 C790 0.930 . S
H782 C795 0.929 . S
H783 C793 0.929 . S
H784 C788 0.929 . S
H785 C794 0.929 . S
C786 H780 0.930 . S
C786 C787 1.367 . S
C786 C794 1.378 . S
C787 C786 1.367 . S
C787 C795 1.433 . S
C788 H784 0.929 . S
C788 C790 1.378 . S
C788 C792 1.350 . S
C789 C792 1.463 . S
C789 C794 1.350 . S
C789 N797 1.427 . S
C790 H781 0.930 . S
C790 C788 1.378 . S
C790 C791 1.367 . S
C791 C790 1.367 . S
C791 C793 1.433 . S
C792 C788 1.350 . S
C792 C789 1.463 . S
C792 N796 1.427 . S
C793 H783 0.929 . S
C793 C791 1.433 . S
C793 N796 1.384 . S
C794 H785 0.929 . S
C794 C786 1.378 . S
C794 C789 1.350 . S
C795 H782 0.929 . S
C795 C787 1.433 . S
C795 N797 1.384 . S
N796 C792 1.427 . S
N796 C793 1.384 . S
N797 C789 1.427 . S
N797 C795 1.384 . S
H798 C804 0.930 . S
H799 C808 0.930 . S
H800 C813 0.929 . S
H801 C811 0.929 . S
H802 C806 0.929 . S
H803 C812 0.929 . S
C804 H798 0.930 . S
C804 C805 1.367 . S
C804 C812 1.378 . S
C805 C804 1.367 . S
C805 C813 1.433 . S
C806 H802 0.929 . S
C806 C808 1.378 . S
C806 C810 1.350 . S
C807 C810 1.463 . S
C807 C812 1.350 . S
C807 N815 1.427 . S
C808 H799 0.930 . S
C808 C806 1.378 . S
C808 C809 1.367 . S
C809 C808 1.367 . S
C809 C811 1.433 . S
C810 C806 1.350 . S
C810 C807 1.463 . S
C810 N814 1.427 . S
C811 H801 0.929 . S
C811 C809 1.433 . S
C811 N814 1.384 . S
C812 H803 0.929 . S
C812 C804 1.378 . S
C812 C807 1.350 . S
C813 H800 0.929 . S
C813 C805 1.433 . S
C813 N815 1.384 . S
N814 C810 1.427 . S
N814 C811 1.384 . S
N815 C807 1.427 . S
N815 C813 1.384 . S
H816 C822 0.930 . S
H817 C826 0.930 . S
H818 C831 0.929 . S
H819 C829 0.929 . S
H820 C824 0.929 . S
H821 C830 0.929 . S
C822 H816 0.930 . S
C822 C823 1.367 . S
C822 C830 1.378 . S
C823 C822 1.367 . S
C823 C831 1.433 . S
C824 H820 0.929 . S
C824 C826 1.378 . S
C824 C828 1.350 . S
C825 C828 1.463 . S
C825 C830 1.350 . S
C825 N833 1.427 . S
C826 H817 0.930 . S
C826 C824 1.378 . S
C826 C827 1.367 . S
C827 C826 1.367 . S
C827 C829 1.433 . S
C828 C824 1.350 . S
C828 C825 1.463 . S
C828 N832 1.427 . S
C829 H819 0.929 . S
C829 C827 1.433 . S
C829 N832 1.384 . S
C830 H821 0.929 . S
C830 C822 1.378 . S
C830 C825 1.350 . S
C831 H818 0.929 . S
C831 C823 1.433 . S
C831 N833 1.384 . S
N832 C828 1.427 . S
N832 C829 1.384 . S
N833 C825 1.427 . S
N833 C831 1.384 . S
H834 C840 0.930 . S
H835 C844 0.930 . S
H836 C849 0.929 . S
H837 C847 0.929 . S
H838 C842 0.929 . S
H839 C848 0.929 . S
C840 H834 0.930 . S
C840 C841 1.367 . S
C840 C848 1.378 . S
C841 C840 1.367 . S
C841 C849 1.433 . S
C842 H838 0.929 . S
C842 C844 1.378 . S
C842 C846 1.350 . S
C843 C846 1.463 . S
C843 C848 1.350 . S
C843 N851 1.427 . S
C844 H835 0.930 . S
C844 C842 1.378 . S
C844 C845 1.367 . S
C845 C844 1.367 . S
C845 C847 1.433 . S
C846 C842 1.350 . S
C846 C843 1.463 . S
C846 N850 1.427 . S
C847 H837 0.929 . S
C847 C845 1.433 . S
C847 N850 1.384 . S
C848 H839 0.929 . S
C848 C840 1.378 . S
C848 C843 1.350 . S
C849 H836 0.929 . S
C849 C841 1.433 . S
C849 N851 1.384 . S
N850 C846 1.427 . S
N850 C847 1.384 . S
N851 C843 1.427 . S
N851 C849 1.384 . S
H852 C858 0.930 . S
H853 C862 0.930 . S
H854 C867 0.929 . S
H855 C865 0.929 . S
H856 C860 0.929 . S
H857 C866 0.929 . S
C858 H852 0.930 . S
C858 C859 1.367 . S
C858 C866 1.378 . S
C859 C858 1.367 . S
C859 C867 1.433 . S
C860 H856 0.929 . S
C860 C862 1.378 . S
C860 C864 1.350 . S
C861 C864 1.463 . S
C861 C866 1.350 . S
C861 N869 1.427 . S
C862 H853 0.930 . S
C862 C860 1.378 . S
C862 C863 1.367 . S
C863 C862 1.367 . S
C863 C865 1.433 . S
C864 C860 1.350 . S
C864 C861 1.463 . S
C864 N868 1.427 . S
C865 H855 0.929 . S
C865 C863 1.433 . S
C865 N868 1.384 . S
C866 H857 0.929 . S
C866 C858 1.378 . S
C866 C861 1.350 . S
C867 H854 0.929 . S
C867 C859 1.433 . S
C867 N869 1.384 . S
N868 C864 1.427 . S
N868 C865 1.384 . S
N869 C861 1.427 . S
N869 C867 1.384 . S
H870 C876 0.930 . S
H871 C880 0.930 . S
H872 C885 0.929 . S
H873 C883 0.929 . S
H874 C878 0.929 . S
H875 C884 0.929 . S
C876 H870 0.930 . S
C876 C877 1.367 . S
C876 C884 1.378 . S
C877 C876 1.367 . S
C877 C885 1.433 . S
C878 H874 0.929 . S
C878 C880 1.378 . S
C878 C882 1.350 . S
C879 C882 1.463 . S
C879 C884 1.350 . S
C879 N887 1.427 . S
C880 H871 0.930 . S
C880 C878 1.378 . S
C880 C881 1.367 . S
C881 C880 1.367 . S
C881 C883 1.433 . S
C882 C878 1.350 . S
C882 C879 1.463 . S
C882 N886 1.427 . S
C883 H873 0.929 . S
C883 C881 1.433 . S
C883 N886 1.384 . S
C884 H875 0.929 . S
C884 C876 1.378 . S
C884 C879 1.350 . S
C885 H872 0.929 . S
C885 C877 1.433 . S
C885 N887 1.384 . S
N886 C882 1.427 . S
N886 C883 1.384 . S
N887 C879 1.427 . S
N887 C885 1.384 . S
H888 C894 0.930 . S
H889 C898 0.930 . S
H890 C903 0.929 . S
H891 C901 0.929 . S
H892 C896 0.929 . S
H893 C902 0.929 . S
C894 H888 0.930 . S
C894 C895 1.367 . S
C894 C902 1.378 . S
C895 C894 1.367 . S
C895 C903 1.433 . S
C896 H892 0.929 . S
C896 C898 1.378 . S
C896 C900 1.350 . S
C897 C900 1.463 . S
C897 C902 1.350 . S
C897 N905 1.427 . S
C898 H889 0.930 . S
C898 C896 1.378 . S
C898 C899 1.367 . S
C899 C898 1.367 . S
C899 C901 1.433 . S
C900 C896 1.350 . S
C900 C897 1.463 . S
C900 N904 1.427 . S
C901 H891 0.929 . S
C901 C899 1.433 . S
C901 N904 1.384 . S
C902 H893 0.929 . S
C902 C894 1.378 . S
C902 C897 1.350 . S
C903 H890 0.929 . S
C903 C895 1.433 . S
C903 N905 1.384 . S
N904 C900 1.427 . S
N904 C901 1.384 . S
N905 C897 1.427 . S
N905 C903 1.384 . S
H906 C912 0.930 . S
H907 C916 0.930 . S
H908 C921 0.929 . S
H909 C919 0.929 . S
H910 C914 0.929 . S
H911 C920 0.929 . S
C912 H906 0.930 . S
C912 C913 1.367 . S
C912 C920 1.378 . S
C913 C912 1.367 . S
C913 C921 1.433 . S
C914 H910 0.929 . S
C914 C916 1.378 . S
C914 C918 1.350 . S
C915 C918 1.463 . S
C915 C920 1.350 . S
C915 N923 1.427 . S
C916 H907 0.930 . S
C916 C914 1.378 . S
C916 C917 1.367 . S
C917 C916 1.367 . S
C917 C919 1.433 . S
C918 C914 1.350 . S
C918 C915 1.463 . S
C918 N922 1.427 . S
C919 H909 0.929 . S
C919 C917 1.433 . S
C919 N922 1.384 . S
C920 H911 0.929 . S
C920 C912 1.378 . S
C920 C915 1.350 . S
C921 H908 0.929 . S
C921 C913 1.433 . S
C921 N923 1.384 . S
N922 C918 1.427 . S
N922 C919 1.384 . S
N923 C915 1.427 . S
N923 C921 1.384 . S
H924 C930 0.930 . S
H925 C934 0.930 . S
H926 C939 0.929 . S
H927 C937 0.929 . S
H928 C932 0.929 . S
H929 C938 0.929 . S
C930 H924 0.930 . S
C930 C931 1.367 . S
C930 C938 1.378 . S
C931 C930 1.367 . S
C931 C939 1.433 . S
C932 H928 0.929 . S
C932 C934 1.378 . S
C932 C936 1.350 . S
C933 C936 1.463 . S
C933 C938 1.350 . S
C933 N941 1.427 . S
C934 H925 0.930 . S
C934 C932 1.378 . S
C934 C935 1.367 . S
C935 C934 1.367 . S
C935 C937 1.433 . S
C936 C932 1.350 . S
C936 C933 1.463 . S
C936 N940 1.427 . S
C937 H927 0.929 . S
C937 C935 1.433 . S
C937 N940 1.384 . S
C938 H929 0.929 . S
C938 C930 1.378 . S
C938 C933 1.350 . S
C939 H926 0.929 . S
C939 C931 1.433 . S
C939 N941 1.384 . S
N940 C936 1.427 . S
N940 C937 1.384 . S
N941 C933 1.427 . S
N941 C939 1.384 . S
H942 C948 0.930 . S
H943 C952 0.930 . S
H944 C957 0.929 . S
H945 C955 0.929 . S
H946 C950 0.929 . S
H947 C956 0.929 . S
C948 H942 0.930 . S
C948 C949 1.367 . S
C948 C956 1.378 . S
C949 C948 1.367 . S
C949 C957 1.433 . S
C950 H946 0.929 . S
C950 C952 1.378 . S
C950 C954 1.350 . S
C951 C954 1.463 . S
C951 C956 1.350 . S
C951 N959 1.427 . S
C952 H943 0.930 . S
C952 C950 1.378 . S
C952 C953 1.367 . S
C953 C952 1.367 . S
C953 C955 1.433 . S
C954 C950 1.350 . S
C954 C951 1.463 . S
C954 N958 1.427 . S
C955 H945 0.929 . S
C955 C953 1.433 . S
C955 N958 1.384 . S
C956 H947 0.929 . S
C956 C948 1.378 . S
C956 C951 1.350 . S
C957 H944 0.929 . S
C957 C949 1.433 . S
C957 N959 1.384 . S
N958 C954 1.427 . S
N958 C955 1.384 . S
N959 C951 1.427 . S
N959 C957 1.384 . S
H960 C966 0.930 . S
H961 C970 0.930 . S
H962 C975 0.929 . S
H963 C973 0.929 . S
H964 C968 0.929 . S
H965 C974 0.929 . S
C966 H960 0.930 . S
C966 C967 1.367 . S
C966 C974 1.378 . S
C967 C966 1.367 . S
C967 C975 1.433 . S
C968 H964 0.929 . S
C968 C970 1.378 . S
C968 C972 1.350 . S
C969 C972 1.463 . S
C969 C974 1.350 . S
C969 N977 1.427 . S
C970 H961 0.930 . S
C970 C968 1.378 . S
C970 C971 1.367 . S
C971 C970 1.367 . S
C971 C973 1.433 . S
C972 C968 1.350 . S
C972 C969 1.463 . S
C972 N976 1.427 . S
C973 H963 0.929 . S
C973 C971 1.433 . S
C973 N976 1.384 . S
C974 H965 0.929 . S
C974 C966 1.378 . S
C974 C969 1.350 . S
C975 H962 0.929 . S
C975 C967 1.433 . S
C975 N977 1.384 . S
N976 C972 1.427 . S
N976 C973 1.384 . S
N977 C969 1.427 . S
N977 C975 1.384 . S
H978 C984 0.930 . S
H979 C988 0.930 . S
H980 C993 0.929 . S
H981 C991 0.929 . S
H982 C986 0.929 . S
H983 C992 0.929 . S
C984 H978 0.930 . S
C984 C985 1.367 . S
C984 C992 1.378 . S
C985 C984 1.367 . S
C985 C993 1.433 . S
C986 H982 0.929 . S
C986 C988 1.378 . S
C986 C990 1.350 . S
C987 C990 1.463 . S
C987 C992 1.350 . S
C987 N995 1.427 . S
C988 H979 0.930 . S
C988 C986 1.378 . S
C988 C989 1.367 . S
C989 C988 1.367 . S
C989 C991 1.433 . S
C990 C986 1.350 . S
C990 C987 1.463 . S
C990 N994 1.427 . S
C991 H981 0.929 . S
C991 C989 1.433 . S
C991 N994 1.384 . S
C992 H983 0.929 . S
C992 C984 1.378 . S
C992 C987 1.350 . S
C993 H980 0.929 . S
C993 C985 1.433 . S
C993 N995 1.384 . S
N994 C990 1.427 . S
N994 C991 1.384 . S
N995 C987 1.427 . S
N995 C993 1.384 . S
H996 C1002 0.930 . S
H997 C1006 0.930 . S
H998 C1011 0.929 . S
H999 C1009 0.929 . S
H1000 C1004 0.929 . S
H1001 C1010 0.929 . S
C1002 H996 0.930 . S
C1002 C1003 1.367 . S
C1002 C1010 1.378 . S
C1003 C1002 1.367 . S
C1003 C1011 1.433 . S
C1004 H1000 0.929 . S
C1004 C1006 1.378 . S
C1004 C1008 1.350 . S
C1005 C1008 1.463 . S
C1005 C1010 1.350 . S
C1005 N1013 1.427 . S
C1006 H997 0.930 . S
C1006 C1004 1.378 . S
C1006 C1007 1.367 . S
C1007 C1006 1.367 . S
C1007 C1009 1.433 . S
C1008 C1004 1.350 . S
C1008 C1005 1.463 . S
C1008 N1012 1.427 . S
C1009 H999 0.929 . S
C1009 C1007 1.433 . S
C1009 N1012 1.384 . S
C1010 H1001 0.929 . S
C1010 C1002 1.378 . S
C1010 C1005 1.350 . S
C1011 H998 0.929 . S
C1011 C1003 1.433 . S
C1011 N1013 1.384 . S
N1012 C1008 1.427 . S
N1012 C1009 1.384 . S
N1013 C1005 1.427 . S
N1013 C1011 1.384 . S
H1014 C1020 0.930 . S
H1015 C1024 0.930 . S
H1016 C1029 0.929 . S
H1017 C1027 0.929 . S
H1018 C1022 0.929 . S
H1019 C1028 0.929 . S
C1020 H1014 0.930 . S
C1020 C1021 1.367 . S
C1020 C1028 1.378 . S
C1021 C1020 1.367 . S
C1021 C1029 1.433 . S
C1022 H1018 0.929 . S
C1022 C1024 1.378 . S
C1022 C1026 1.350 . S
C1023 C1026 1.463 . S
C1023 C1028 1.350 . S
C1023 N1031 1.427 . S
C1024 H1015 0.930 . S
C1024 C1022 1.378 . S
C1024 C1025 1.367 . S
C1025 C1024 1.367 . S
C1025 C1027 1.433 . S
C1026 C1022 1.350 . S
C1026 C1023 1.463 . S
C1026 N1030 1.427 . S
C1027 H1017 0.929 . S
C1027 C1025 1.433 . S
C1027 N1030 1.384 . S
C1028 H1019 0.929 . S
C1028 C1020 1.378 . S
C1028 C1023 1.350 . S
C1029 H1016 0.929 . S
C1029 C1021 1.433 . S
C1029 N1031 1.384 . S
N1030 C1026 1.427 . S
N1030 C1027 1.384 . S
N1031 C1023 1.427 . S
N1031 C1029 1.384 . S
H1032 C1038 0.930 . S
H1033 C1042 0.930 . S
H1034 C1047 0.929 . S
H1035 C1045 0.929 . S
H1036 C1040 0.929 . S
H1037 C1046 0.929 . S
C1038 H1032 0.930 . S
C1038 C1039 1.367 . S
C1038 C1046 1.378 . S
C1039 C1038 1.367 . S
C1039 C1047 1.433 . S
C1040 H1036 0.929 . S
C1040 C1042 1.378 . S
C1040 C1044 1.350 . S
C1041 C1044 1.463 . S
C1041 C1046 1.350 . S
C1041 N1049 1.427 . S
C1042 H1033 0.930 . S
C1042 C1040 1.378 . S
C1042 C1043 1.367 . S
C1043 C1042 1.367 . S
C1043 C1045 1.433 . S
C1044 C1040 1.350 . S
C1044 C1041 1.463 . S
C1044 N1048 1.427 . S
C1045 H1035 0.929 . S
C1045 C1043 1.433 . S
C1045 N1048 1.384 . S
C1046 H1037 0.929 . S
C1046 C1038 1.378 . S
C1046 C1041 1.350 . S
C1047 H1034 0.929 . S
C1047 C1039 1.433 . S
C1047 N1049 1.384 . S
N1048 C1044 1.427 . S
N1048 C1045 1.384 . S
N1049 C1041 1.427 . S
N1049 C1047 1.384 . S
H1050 C1056 0.930 . S
H1051 C1060 0.930 . S
H1052 C1065 0.929 . S
H1053 C1063 0.929 . S
H1054 C1058 0.929 . S
H1055 C1064 0.929 . S
C1056 H1050 0.930 . S
C1056 C1057 1.367 . S
C1056 C1064 1.378 . S
C1057 C1056 1.367 . S
C1057 C1065 1.433 . S
C1058 H1054 0.929 . S
C1058 C1060 1.378 . S
C1058 C1062 1.350 . S
C1059 C1062 1.463 . S
C1059 C1064 1.350 . S
C1059 N1067 1.427 . S
C1060 H1051 0.930 . S
C1060 C1058 1.378 . S
C1060 C1061 1.367 . S
C1061 C1060 1.367 . S
C1061 C1063 1.433 . S
C1062 C1058 1.350 . S
C1062 C1059 1.463 . S
C1062 N1066 1.427 . S
C1063 H1053 0.929 . S
C1063 C1061 1.433 . S
C1063 N1066 1.384 . S
C1064 H1055 0.929 . S
C1064 C1056 1.378 . S
C1064 C1059 1.350 . S
C1065 H1052 0.929 . S
C1065 C1057 1.433 . S
C1065 N1067 1.384 . S
N1066 C1062 1.427 . S
N1066 C1063 1.384 . S
N1067 C1059 1.427 . S
N1067 C1065 1.384 . S
H1068 C1074 0.930 . S
H1069 C1078 0.930 . S
H1070 C1083 0.929 . S
H1071 C1081 0.929 . S
H1072 C1076 0.929 . S
H1073 C1082 0.929 . S
C1074 H1068 0.930 . S
C1074 C1075 1.367 . S
C1074 C1082 1.378 . S
C1075 C1074 1.367 . S
C1075 C1083 1.433 . S
C1076 H1072 0.929 . S
C1076 C1078 1.378 . S
C1076 C1080 1.350 . S
C1077 C1080 1.463 . S
C1077 C1082 1.350 . S
C1077 N1085 1.427 . S
C1078 H1069 0.930 . S
C1078 C1076 1.378 . S
C1078 C1079 1.367 . S
C1079 C1078 1.367 . S
C1079 C1081 1.433 . S
C1080 C1076 1.350 . S
C1080 C1077 1.463 . S
C1080 N1084 1.427 . S
C1081 H1071 0.929 . S
C1081 C1079 1.433 . S
C1081 N1084 1.384 . S
C1082 H1073 0.929 . S
C1082 C1074 1.378 . S
C1082 C1077 1.350 . S
C1083 H1070 0.929 . S
C1083 C1075 1.433 . S
C1083 N1085 1.384 . S
N1084 C1080 1.427 . S
N1084 C1081 1.384 . S
N1085 C1077 1.427 . S
N1085 C1083 1.384 . S
H1086 C1092 0.930 . S
H1087 C1096 0.930 . S
H1088 C1101 0.929 . S
H1089 C1099 0.929 . S
H1090 C1094 0.929 . S
H1091 C1100 0.929 . S
C1092 H1086 0.930 . S
C1092 C1093 1.367 . S
C1092 C1100 1.378 . S
C1093 C1092 1.367 . S
C1093 C1101 1.433 . S
C1094 H1090 0.929 . S
C1094 C1096 1.378 . S
C1094 C1098 1.350 . S
C1095 C1098 1.463 . S
C1095 C1100 1.350 . S
C1095 N1103 1.427 . S
C1096 H1087 0.930 . S
C1096 C1094 1.378 . S
C1096 C1097 1.367 . S
C1097 C1096 1.367 . S
C1097 C1099 1.433 . S
C1098 C1094 1.350 . S
C1098 C1095 1.463 . S
C1098 N1102 1.427 . S
C1099 H1089 0.929 . S
C1099 C1097 1.433 . S
C1099 N1102 1.384 . S
C1100 H1091 0.929 . S
C1100 C1092 1.378 . S
C1100 C1095 1.350 . S
C1101 H1088 0.929 . S
C1101 C1093 1.433 . S
C1101 N1103 1.384 . S
N1102 C1098 1.427 . S
N1102 C1099 1.384 . S
N1103 C1095 1.427 . S
N1103 C1101 1.384 . S
H1104 C1110 0.930 . S
H1105 C1114 0.930 . S
H1106 C1119 0.929 . S
H1107 C1117 0.929 . S
H1108 C1112 0.929 . S
H1109 C1118 0.929 . S
C1110 H1104 0.930 . S
C1110 C1111 1.367 . S
C1110 C1118 1.378 . S
C1111 C1110 1.367 . S
C1111 C1119 1.433 . S
C1112 H1108 0.929 . S
C1112 C1114 1.378 . S
C1112 C1116 1.350 . S
C1113 C1116 1.463 . S
C1113 C1118 1.350 . S
C1113 N1121 1.427 . S
C1114 H1105 0.930 . S
C1114 C1112 1.378 . S
C1114 C1115 1.367 . S
C1115 C1114 1.367 . S
C1115 C1117 1.433 . S
C1116 C1112 1.350 . S
C1116 C1113 1.463 . S
C1116 N1120 1.427 . S
C1117 H1107 0.929 . S
C1117 C1115 1.433 . S
C1117 N1120 1.384 . S
C1118 H1109 0.929 . S
C1118 C1110 1.378 . S
C1118 C1113 1.350 . S
C1119 H1106 0.929 . S
C1119 C1111 1.433 . S
C1119 N1121 1.384 . S
N1120 C1116 1.427 . S
N1120 C1117 1.384 . S
N1121 C1113 1.427 . S
N1121 C1119 1.384 . S
H1122 C1128 0.930 . S
H1123 C1132 0.930 . S
H1124 C1137 0.929 . S
H1125 C1135 0.929 . S
H1126 C1130 0.929 . S
H1127 C1136 0.929 . S
C1128 H1122 0.930 . S
C1128 C1129 1.367 . S
C1128 C1136 1.378 . S
C1129 C1128 1.367 . S
C1129 C1137 1.433 . S
C1130 H1126 0.929 . S
C1130 C1132 1.378 . S
C1130 C1134 1.350 . S
C1131 C1134 1.463 1_556 S
C1131 C1136 1.350 . S
C1131 N1139 1.427 . S
C1132 H1123 0.930 . S
C1132 C1130 1.378 . S
C1132 C1133 1.367 . S
C1133 C1132 1.367 . S
C1133 C1135 1.433 . S
C1134 C1130 1.350 . S
C1134 C1131 1.463 1_554 S
C1134 N1138 1.427 . S
C1135 H1125 0.929 . S
C1135 C1133 1.433 . S
C1135 N1138 1.384 . S
C1136 H1127 0.929 . S
C1136 C1128 1.378 . S
C1136 C1131 1.350 . S
C1137 H1124 0.929 . S
C1137 C1129 1.433 . S
C1137 N1139 1.384 . S
N1138 C1134 1.427 . S
N1138 C1135 1.384 . S
N1139 C1131 1.427 . S
N1139 C1137 1.384 . S
H1140 C1146 0.930 . S
H1141 C1150 0.930 . S
H1142 C1155 0.929 . S
H1143 C1153 0.929 . S
H1144 C1148 0.929 . S
H1145 C1154 0.929 . S
C1146 H1140 0.930 . S
C1146 C1147 1.367 . S
C1146 C1154 1.378 . S
C1147 C1146 1.367 . S
C1147 C1155 1.433 . S
C1148 H1144 0.929 . S
C1148 C1150 1.378 . S
C1148 C1152 1.350 . S
C1149 C1152 1.463 . S
C1149 C1154 1.350 . S
C1149 N1157 1.427 . S
C1150 H1141 0.930 . S
C1150 C1148 1.378 . S
C1150 C1151 1.367 . S
C1151 C1150 1.367 . S
C1151 C1153 1.433 . S
C1152 C1148 1.350 . S
C1152 C1149 1.463 . S
C1152 N1156 1.427 . S
C1153 H1143 0.929 . S
C1153 C1151 1.433 . S
C1153 N1156 1.384 . S
C1154 H1145 0.929 . S
C1154 C1146 1.378 . S
C1154 C1149 1.350 . S
C1155 H1142 0.929 . S
C1155 C1147 1.433 . S
C1155 N1157 1.384 . S
N1156 C1152 1.427 . S
N1156 C1153 1.384 . S
N1157 C1149 1.427 . S
N1157 C1155 1.384 . S
H1158 C1164 0.930 . S
H1159 C1168 0.930 . S
H1160 C1173 0.929 . S
H1161 C1171 0.929 . S
H1162 C1166 0.929 . S
H1163 C1172 0.929 . S
C1164 H1158 0.930 . S
C1164 C1165 1.367 . S
C1164 C1172 1.378 . S
C1165 C1164 1.367 . S
C1165 C1173 1.433 . S
C1166 H1162 0.929 . S
C1166 C1168 1.378 . S
C1166 C1170 1.350 . S
C1167 C1170 1.463 1_556 S
C1167 C1172 1.350 . S
C1167 N1175 1.427 . S
C1168 H1159 0.930 . S
C1168 C1166 1.378 . S
C1168 C1169 1.367 . S
C1169 C1168 1.367 . S
C1169 C1171 1.433 . S
C1170 C1166 1.350 . S
C1170 C1167 1.463 1_554 S
C1170 N1174 1.427 . S
C1171 H1161 0.929 . S
C1171 C1169 1.433 . S
C1171 N1174 1.384 . S
C1172 H1163 0.929 . S
C1172 C1164 1.378 . S
C1172 C1167 1.350 . S
C1173 H1160 0.929 . S
C1173 C1165 1.433 . S
C1173 N1175 1.384 . S
N1174 C1170 1.427 . S
N1174 C1171 1.384 . S
N1175 C1167 1.427 . S
N1175 C1173 1.384 . S
H1176 C1182 0.930 . S
H1177 C1186 0.930 . S
H1178 C1191 0.929 . S
H1179 C1189 0.929 . S
H1180 C1184 0.929 . S
H1181 C1190 0.929 . S
C1182 H1176 0.930 . S
C1182 C1183 1.367 . S
C1182 C1190 1.378 . S
C1183 C1182 1.367 . S
C1183 C1191 1.433 . S
C1184 H1180 0.929 . S
C1184 C1186 1.378 . S
C1184 C1188 1.350 . S
C1185 C1188 1.463 . S
C1185 C1190 1.350 . S
C1185 N1193 1.427 . S
C1186 H1177 0.930 . S
C1186 C1184 1.378 . S
C1186 C1187 1.367 . S
C1187 C1186 1.367 . S
C1187 C1189 1.433 . S
C1188 C1184 1.350 . S
C1188 C1185 1.463 . S
C1188 N1192 1.427 . S
C1189 H1179 0.929 . S
C1189 C1187 1.433 . S
C1189 N1192 1.384 . S
C1190 H1181 0.929 . S
C1190 C1182 1.378 . S
C1190 C1185 1.350 . S
C1191 H1178 0.929 . S
C1191 C1183 1.433 . S
C1191 N1193 1.384 . S
N1192 C1188 1.427 . S
N1192 C1189 1.384 . S
N1193 C1185 1.427 . S
N1193 C1191 1.384 . S
H1194 C1200 0.930 . S
H1195 C1204 0.930 . S
H1196 C1209 0.929 . S
H1197 C1207 0.929 . S
H1198 C1202 0.929 . S
H1199 C1208 0.929 . S
C1200 H1194 0.930 . S
C1200 C1201 1.367 . S
C1200 C1208 1.378 . S
C1201 C1200 1.367 . S
C1201 C1209 1.433 . S
C1202 H1198 0.929 . S
C1202 C1204 1.378 . S
C1202 C1206 1.350 . S
C1203 C1206 1.463 1_556 S
C1203 C1208 1.350 . S
C1203 N1211 1.427 . S
C1204 H1195 0.930 . S
C1204 C1202 1.378 . S
C1204 C1205 1.367 . S
C1205 C1204 1.367 . S
C1205 C1207 1.433 . S
C1206 C1202 1.350 . S
C1206 C1203 1.463 1_554 S
C1206 N1210 1.427 . S
C1207 H1197 0.929 . S
C1207 C1205 1.433 . S
C1207 N1210 1.384 . S
C1208 H1199 0.929 . S
C1208 C1200 1.378 . S
C1208 C1203 1.350 . S
C1209 H1196 0.929 . S
C1209 C1201 1.433 . S
C1209 N1211 1.384 . S
N1210 C1206 1.427 . S
N1210 C1207 1.384 . S
N1211 C1203 1.427 . S
N1211 C1209 1.384 . S
H1212 C1218 0.930 . S
H1213 C1222 0.930 . S
H1214 C1227 0.929 . S
H1215 C1225 0.929 . S
H1216 C1220 0.929 . S
H1217 C1226 0.929 . S
C1218 H1212 0.930 . S
C1218 C1219 1.367 . S
C1218 C1226 1.378 . S
C1219 C1218 1.367 . S
C1219 C1227 1.433 . S
C1220 H1216 0.929 . S
C1220 C1222 1.378 . S
C1220 C1224 1.350 . S
C1221 C1224 1.463 . S
C1221 C1226 1.350 . S
C1221 N1229 1.427 . S
C1222 H1213 0.930 . S
C1222 C1220 1.378 . S
C1222 C1223 1.367 . S
C1223 C1222 1.367 . S
C1223 C1225 1.433 . S
C1224 C1220 1.350 . S
C1224 C1221 1.463 . S
C1224 N1228 1.427 . S
C1225 H1215 0.929 . S
C1225 C1223 1.433 . S
C1225 N1228 1.384 . S
C1226 H1217 0.929 . S
C1226 C1218 1.378 . S
C1226 C1221 1.350 . S
C1227 H1214 0.929 . S
C1227 C1219 1.433 . S
C1227 N1229 1.384 . S
N1228 C1224 1.427 . S
N1228 C1225 1.384 . S
N1229 C1221 1.427 . S
N1229 C1227 1.384 . S
H1230 C1236 0.930 . S
H1231 C1240 0.930 . S
H1232 C1245 0.929 . S
H1233 C1243 0.929 . S
H1234 C1238 0.929 . S
H1235 C1244 0.929 . S
C1236 H1230 0.930 . S
C1236 C1237 1.367 . S
C1236 C1244 1.378 . S
C1237 C1236 1.367 . S
C1237 C1245 1.433 . S
C1238 H1234 0.929 . S
C1238 C1240 1.378 . S
C1238 C1242 1.350 . S
C1239 C1242 1.463 1_556 S
C1239 C1244 1.350 . S
C1239 N1247 1.427 . S
C1240 H1231 0.930 . S
C1240 C1238 1.378 . S
C1240 C1241 1.367 . S
C1241 C1240 1.367 . S
C1241 C1243 1.433 . S
C1242 C1238 1.350 . S
C1242 C1239 1.463 1_554 S
C1242 N1246 1.427 . S
C1243 H1233 0.929 . S
C1243 C1241 1.433 . S
C1243 N1246 1.384 . S
C1244 H1235 0.929 . S
C1244 C1236 1.378 . S
C1244 C1239 1.350 . S
C1245 H1232 0.929 . S
C1245 C1237 1.433 . S
C1245 N1247 1.384 . S
N1246 C1242 1.427 . S
N1246 C1243 1.384 . S
N1247 C1239 1.427 . S
N1247 C1245 1.384 . S
H1248 C1254 0.930 . S
H1249 C1258 0.930 . S
H1250 C1263 0.929 . S
H1251 C1261 0.929 . S
H1252 C1256 0.929 . S
H1253 C1262 0.929 . S
C1254 H1248 0.930 . S
C1254 C1255 1.367 . S
C1254 C1262 1.378 . S
C1255 C1254 1.367 . S
C1255 C1263 1.433 . S
C1256 H1252 0.929 . S
C1256 C1258 1.378 . S
C1256 C1260 1.350 . S
C1257 C1260 1.463 . S
C1257 C1262 1.350 . S
C1257 N1265 1.427 . S
C1258 H1249 0.930 . S
C1258 C1256 1.378 . S
C1258 C1259 1.367 . S
C1259 C1258 1.367 . S
C1259 C1261 1.433 . S
C1260 C1256 1.350 . S
C1260 C1257 1.463 . S
C1260 N1264 1.427 . S
C1261 H1251 0.929 . S
C1261 C1259 1.433 . S
C1261 N1264 1.384 . S
C1262 H1253 0.929 . S
C1262 C1254 1.378 . S
C1262 C1257 1.350 . S
C1263 H1250 0.929 . S
C1263 C1255 1.433 . S
C1263 N1265 1.384 . S
N1264 C1260 1.427 . S
N1264 C1261 1.384 . S
N1265 C1257 1.427 . S
N1265 C1263 1.384 . S
H1266 C1272 0.930 . S
H1267 C1276 0.930 . S
H1268 C1281 0.929 . S
H1269 C1279 0.929 . S
H1270 C1274 0.929 . S
H1271 C1280 0.929 . S
C1272 H1266 0.930 . S
C1272 C1273 1.367 . S
C1272 C1280 1.378 . S
C1273 C1272 1.367 . S
C1273 C1281 1.433 . S
C1274 H1270 0.929 . S
C1274 C1276 1.378 . S
C1274 C1278 1.350 . S
C1275 C1278 1.463 1_565 S
C1275 C1280 1.350 . S
C1275 N1283 1.427 . S
C1276 H1267 0.930 . S
C1276 C1274 1.378 . S
C1276 C1277 1.367 . S
C1277 C1276 1.367 . S
C1277 C1279 1.433 . S
C1278 C1274 1.350 . S
C1278 C1275 1.463 1_545 S
C1278 N1282 1.427 . S
C1279 H1269 0.929 . S
C1279 C1277 1.433 . S
C1279 N1282 1.384 . S
C1280 H1271 0.929 . S
C1280 C1272 1.378 . S
C1280 C1275 1.350 . S
C1281 H1268 0.929 . S
C1281 C1273 1.433 . S
C1281 N1283 1.384 . S
N1282 C1278 1.427 . S
N1282 C1279 1.384 . S
N1283 C1275 1.427 . S
N1283 C1281 1.384 . S
H1284 C1290 0.930 . S
H1285 C1294 0.930 . S
H1286 C1299 0.929 . S
H1287 C1297 0.929 . S
H1288 C1292 0.929 . S
H1289 C1298 0.929 . S
C1290 H1284 0.930 . S
C1290 C1291 1.367 . S
C1290 C1298 1.378 . S
C1291 C1290 1.367 . S
C1291 C1299 1.433 . S
C1292 H1288 0.929 . S
C1292 C1294 1.378 . S
C1292 C1296 1.350 . S
C1293 C1296 1.463 . S
C1293 C1298 1.350 . S
C1293 N1301 1.427 . S
C1294 H1285 0.930 . S
C1294 C1292 1.378 . S
C1294 C1295 1.367 . S
C1295 C1294 1.367 . S
C1295 C1297 1.433 . S
C1296 C1292 1.350 . S
C1296 C1293 1.463 . S
C1296 N1300 1.427 . S
C1297 H1287 0.929 . S
C1297 C1295 1.433 . S
C1297 N1300 1.384 . S
C1298 H1289 0.929 . S
C1298 C1290 1.378 . S
C1298 C1293 1.350 . S
C1299 H1286 0.929 . S
C1299 C1291 1.433 . S
C1299 N1301 1.384 . S
N1300 C1296 1.427 . S
N1300 C1297 1.384 . S
N1301 C1293 1.427 . S
N1301 C1299 1.384 . S
H1302 C1308 0.930 . S
H1303 C1312 0.930 . S
H1304 C1317 0.929 . S
H1305 C1315 0.929 . S
H1306 C1310 0.929 . S
H1307 C1316 0.929 . S
C1308 H1302 0.930 . S
C1308 C1309 1.367 . S
C1308 C1316 1.378 . S
C1309 C1308 1.367 . S
C1309 C1317 1.433 . S
C1310 H1306 0.929 . S
C1310 C1312 1.378 . S
C1310 C1314 1.350 . S
C1311 C1314 1.463 1_545 S
C1311 C1316 1.350 . S
C1311 N1319 1.427 . S
C1312 H1303 0.930 . S
C1312 C1310 1.378 . S
C1312 C1313 1.367 . S
C1313 C1312 1.367 . S
C1313 C1315 1.433 . S
C1314 C1310 1.350 . S
C1314 C1311 1.463 1_565 S
C1314 N1318 1.427 . S
C1315 H1305 0.929 . S
C1315 C1313 1.433 . S
C1315 N1318 1.384 . S
C1316 H1307 0.929 . S
C1316 C1308 1.378 . S
C1316 C1311 1.350 . S
C1317 H1304 0.929 . S
C1317 C1309 1.433 . S
C1317 N1319 1.384 . S
N1318 C1314 1.427 . S
N1318 C1315 1.384 . S
N1319 C1311 1.427 . S
N1319 C1317 1.384 . S
H1320 C1326 0.930 . S
H1321 C1330 0.930 . S
H1322 C1335 0.929 . S
H1323 C1333 0.929 . S
H1324 C1328 0.929 . S
H1325 C1334 0.929 . S
C1326 H1320 0.930 . S
C1326 C1327 1.367 . S
C1326 C1334 1.378 . S
C1327 C1326 1.367 . S
C1327 C1335 1.433 . S
C1328 H1324 0.929 . S
C1328 C1330 1.378 . S
C1328 C1332 1.350 . S
C1329 C1332 1.463 . S
C1329 C1334 1.350 . S
C1329 N1337 1.427 . S
C1330 H1321 0.930 . S
C1330 C1328 1.378 . S
C1330 C1331 1.367 . S
C1331 C1330 1.367 . S
C1331 C1333 1.433 . S
C1332 C1328 1.350 . S
C1332 C1329 1.463 . S
C1332 N1336 1.427 . S
C1333 H1323 0.929 . S
C1333 C1331 1.433 . S
C1333 N1336 1.384 . S
C1334 H1325 0.929 . S
C1334 C1326 1.378 . S
C1334 C1329 1.350 . S
C1335 H1322 0.929 . S
C1335 C1327 1.433 . S
C1335 N1337 1.384 . S
N1336 C1332 1.427 . S
N1336 C1333 1.384 . S
N1337 C1329 1.427 . S
N1337 C1335 1.384 . S
H1338 C1344 0.930 . S
H1339 C1348 0.930 . S
H1340 C1353 0.929 . S
H1341 C1351 0.929 . S
H1342 C1346 0.929 . S
H1343 C1352 0.929 . S
C1344 H1338 0.930 . S
C1344 C1345 1.367 . S
C1344 C1352 1.378 . S
C1345 C1344 1.367 . S
C1345 C1353 1.433 . S
C1346 H1342 0.929 . S
C1346 C1348 1.378 . S
C1346 C1350 1.350 . S
C1347 C1350 1.463 1_565 S
C1347 C1352 1.350 . S
C1347 N1355 1.427 . S
C1348 H1339 0.930 . S
C1348 C1346 1.378 . S
C1348 C1349 1.367 . S
C1349 C1348 1.367 . S
C1349 C1351 1.433 . S
C1350 C1346 1.350 . S
C1350 C1347 1.463 1_545 S
C1350 N1354 1.427 . S
C1351 H1341 0.929 . S
C1351 C1349 1.433 . S
C1351 N1354 1.384 . S
C1352 H1343 0.929 . S
C1352 C1344 1.378 . S
C1352 C1347 1.350 . S
C1353 H1340 0.929 . S
C1353 C1345 1.433 . S
C1353 N1355 1.384 . S
N1354 C1350 1.427 . S
N1354 C1351 1.384 . S
N1355 C1347 1.427 . S
N1355 C1353 1.384 . S
H1356 C1362 0.930 . S
H1357 C1366 0.930 . S
H1358 C1371 0.929 . S
H1359 C1369 0.929 . S
H1360 C1364 0.929 . S
H1361 C1370 0.929 . S
C1362 H1356 0.930 . S
C1362 C1363 1.367 . S
C1362 C1370 1.378 . S
C1363 C1362 1.367 . S
C1363 C1371 1.433 . S
C1364 H1360 0.929 . S
C1364 C1366 1.378 . S
C1364 C1368 1.350 . S
C1365 C1368 1.463 . S
C1365 C1370 1.350 . S
C1365 N1373 1.427 . S
C1366 H1357 0.930 . S
C1366 C1364 1.378 . S
C1366 C1367 1.367 . S
C1367 C1366 1.367 . S
C1367 C1369 1.433 . S
C1368 C1364 1.350 . S
C1368 C1365 1.463 . S
C1368 N1372 1.427 . S
C1369 H1359 0.929 . S
C1369 C1367 1.433 . S
C1369 N1372 1.384 . S
C1370 H1361 0.929 . S
C1370 C1362 1.378 . S
C1370 C1365 1.350 . S
C1371 H1358 0.929 . S
C1371 C1363 1.433 . S
C1371 N1373 1.384 . S
N1372 C1368 1.427 . S
N1372 C1369 1.384 . S
N1373 C1365 1.427 . S
N1373 C1371 1.384 . S
H1374 C1380 0.930 . S
H1375 C1384 0.930 . S
H1376 C1389 0.929 . S
H1377 C1387 0.929 . S
H1378 C1382 0.929 . S
H1379 C1388 0.929 . S
C1380 H1374 0.930 . S
C1380 C1381 1.367 . S
C1380 C1388 1.378 . S
C1381 C1380 1.367 . S
C1381 C1389 1.433 . S
C1382 H1378 0.929 . S
C1382 C1384 1.378 . S
C1382 C1386 1.350 . S
C1383 C1386 1.463 1_565 S
C1383 C1388 1.350 . S
C1383 N1391 1.427 . S
C1384 H1375 0.930 . S
C1384 C1382 1.378 . S
C1384 C1385 1.367 . S
C1385 C1384 1.367 . S
C1385 C1387 1.433 . S
C1386 C1382 1.350 . S
C1386 C1383 1.463 1_545 S
C1386 N1390 1.427 . S
C1387 H1377 0.929 . S
C1387 C1385 1.433 . S
C1387 N1390 1.384 . S
C1388 H1379 0.929 . S
C1388 C1380 1.378 . S
C1388 C1383 1.350 . S
C1389 H1376 0.929 . S
C1389 C1381 1.433 . S
C1389 N1391 1.384 . S
N1390 C1386 1.427 . S
N1390 C1387 1.384 . S
N1391 C1383 1.427 . S
N1391 C1389 1.384 . S
H1392 C1398 0.930 . S
H1393 C1402 0.930 . S
H1394 C1407 0.929 . S
H1395 C1405 0.929 . S
H1396 C1400 0.929 . S
H1397 C1406 0.929 . S
C1398 H1392 0.930 . S
C1398 C1399 1.367 . S
C1398 C1406 1.378 . S
C1399 C1398 1.367 . S
C1399 C1407 1.433 . S
C1400 H1396 0.929 . S
C1400 C1402 1.378 . S
C1400 C1404 1.350 . S
C1401 C1404 1.463 . S
C1401 C1406 1.350 . S
C1401 N1409 1.427 . S
C1402 H1393 0.930 . S
C1402 C1400 1.378 . S
C1402 C1403 1.367 . S
C1403 C1402 1.367 . S
C1403 C1405 1.433 . S
C1404 C1400 1.350 . S
C1404 C1401 1.463 . S
C1404 N1408 1.427 . S
C1405 H1395 0.929 . S
C1405 C1403 1.433 . S
C1405 N1408 1.384 . S
C1406 H1397 0.929 . S
C1406 C1398 1.378 . S
C1406 C1401 1.350 . S
C1407 H1394 0.929 . S
C1407 C1399 1.433 . S
C1407 N1409 1.384 . S
N1408 C1404 1.427 . S
N1408 C1405 1.384 . S
N1409 C1401 1.427 . S
N1409 C1407 1.384 . S
H1410 C1416 0.930 . S
H1411 C1420 0.930 . S
H1412 C1425 0.929 . S
H1413 C1423 0.929 . S
H1414 C1418 0.929 . S
H1415 C1424 0.929 . S
C1416 H1410 0.930 . S
C1416 C1417 1.367 . S
C1416 C1424 1.378 . S
C1417 C1416 1.367 . S
C1417 C1425 1.433 . S
C1418 H1414 0.929 . S
C1418 C1420 1.378 . S
C1418 C1422 1.350 . S
C1419 C1422 1.463 . S
C1419 C1424 1.350 . S
C1419 N1427 1.427 . S
C1420 H1411 0.930 . S
C1420 C1418 1.378 . S
C1420 C1421 1.367 . S
C1421 C1420 1.367 . S
C1421 C1423 1.433 . S
C1422 C1418 1.350 . S
C1422 C1419 1.463 . S
C1422 N1426 1.427 . S
C1423 H1413 0.929 . S
C1423 C1421 1.433 . S
C1423 N1426 1.384 . S
C1424 H1415 0.929 . S
C1424 C1416 1.378 . S
C1424 C1419 1.350 . S
C1425 H1412 0.929 . S
C1425 C1417 1.433 . S
C1425 N1427 1.384 . S
N1426 C1422 1.427 . S
N1426 C1423 1.384 . S
N1427 C1419 1.427 . S
N1427 C1425 1.384 . S
H1428 C1434 0.930 . S
H1429 C1438 0.930 . S
H1430 C1443 0.929 . S
H1431 C1441 0.929 . S
H1432 C1436 0.929 . S
H1433 C1442 0.929 . S
C1434 H1428 0.930 . S
C1434 C1435 1.367 . S
C1434 C1442 1.378 . S
C1435 C1434 1.367 . S
C1435 C1443 1.433 . S
C1436 H1432 0.929 . S
C1436 C1438 1.378 . S
C1436 C1440 1.350 . S
C1437 C1440 1.463 1_455 S
C1437 C1442 1.350 . S
C1437 N1445 1.427 . S
C1438 H1429 0.930 . S
C1438 C1436 1.378 . S
C1438 C1439 1.367 . S
C1439 C1438 1.367 . S
C1439 C1441 1.433 . S
C1440 C1436 1.350 . S
C1440 C1437 1.463 1_655 S
C1440 N1444 1.427 . S
C1441 H1431 0.929 . S
C1441 C1439 1.433 . S
C1441 N1444 1.384 . S
C1442 H1433 0.929 . S
C1442 C1434 1.378 . S
C1442 C1437 1.350 . S
C1443 H1430 0.929 . S
C1443 C1435 1.433 . S
C1443 N1445 1.384 . S
N1444 C1440 1.427 . S
N1444 C1441 1.384 . S
N1445 C1437 1.427 . S
N1445 C1443 1.384 . S
H1446 C1452 0.930 . S
H1447 C1456 0.930 . S
H1448 C1461 0.929 . S
H1449 C1459 0.929 . S
H1450 C1454 0.929 . S
H1451 C1460 0.929 . S
C1452 H1446 0.930 . S
C1452 C1453 1.367 . S
C1452 C1460 1.378 . S
C1453 C1452 1.367 . S
C1453 C1461 1.433 . S
C1454 H1450 0.929 . S
C1454 C1456 1.378 . S
C1454 C1458 1.350 . S
C1455 C1458 1.463 . S
C1455 C1460 1.350 . S
C1455 N1463 1.427 . S
C1456 H1447 0.930 . S
C1456 C1454 1.378 . S
C1456 C1457 1.367 . S
C1457 C1456 1.367 . S
C1457 C1459 1.433 . S
C1458 C1454 1.350 . S
C1458 C1455 1.463 . S
C1458 N1462 1.427 . S
C1459 H1449 0.929 . S
C1459 C1457 1.433 . S
C1459 N1462 1.384 . S
C1460 H1451 0.929 . S
C1460 C1452 1.378 . S
C1460 C1455 1.350 . S
C1461 H1448 0.929 . S
C1461 C1453 1.433 . S
C1461 N1463 1.384 . S
N1462 C1458 1.427 . S
N1462 C1459 1.384 . S
N1463 C1455 1.427 . S
N1463 C1461 1.384 . S
H1464 C1470 0.930 . S
H1465 C1474 0.930 . S
H1466 C1479 0.929 . S
H1467 C1477 0.929 . S
H1468 C1472 0.929 . S
H1469 C1478 0.929 . S
C1470 H1464 0.930 . S
C1470 C1471 1.367 . S
C1470 C1478 1.378 . S
C1471 C1470 1.367 . S
C1471 C1479 1.433 . S
C1472 H1468 0.929 . S
C1472 C1474 1.378 . S
C1472 C1476 1.350 . S
C1473 C1476 1.463 1_455 S
C1473 C1478 1.350 . S
C1473 N1481 1.427 . S
C1474 H1465 0.930 . S
C1474 C1472 1.378 . S
C1474 C1475 1.367 . S
C1475 C1474 1.367 . S
C1475 C1477 1.433 . S
C1476 C1472 1.350 . S
C1476 C1473 1.463 1_655 S
C1476 N1480 1.427 . S
C1477 H1467 0.929 . S
C1477 C1475 1.433 . S
C1477 N1480 1.384 . S
C1478 H1469 0.929 . S
C1478 C1470 1.378 . S
C1478 C1473 1.350 . S
C1479 H1466 0.929 . S
C1479 C1471 1.433 . S
C1479 N1481 1.384 . S
N1480 C1476 1.427 . S
N1480 C1477 1.384 . S
N1481 C1473 1.427 . S
N1481 C1479 1.384 . S
H1482 C1488 0.930 . S
H1483 C1492 0.930 . S
H1484 C1497 0.929 . S
H1485 C1495 0.929 . S
H1486 C1490 0.929 . S
H1487 C1496 0.929 . S
C1488 H1482 0.930 . S
C1488 C1489 1.367 . S
C1488 C1496 1.378 . S
C1489 C1488 1.367 . S
C1489 C1497 1.433 . S
C1490 H1486 0.929 . S
C1490 C1492 1.378 . S
C1490 C1494 1.350 . S
C1491 C1494 1.463 . S
C1491 C1496 1.350 . S
C1491 N1499 1.427 . S
C1492 H1483 0.930 . S
C1492 C1490 1.378 . S
C1492 C1493 1.367 . S
C1493 C1492 1.367 . S
C1493 C1495 1.433 . S
C1494 C1490 1.350 . S
C1494 C1491 1.463 . S
C1494 N1498 1.427 . S
C1495 H1485 0.929 . S
C1495 C1493 1.433 . S
C1495 N1498 1.384 . S
C1496 H1487 0.929 . S
C1496 C1488 1.378 . S
C1496 C1491 1.350 . S
C1497 H1484 0.929 . S
C1497 C1489 1.433 . S
C1497 N1499 1.384 . S
N1498 C1494 1.427 . S
N1498 C1495 1.384 . S
N1499 C1491 1.427 . S
N1499 C1497 1.384 . S
H1500 C1506 0.930 . S
H1501 C1510 0.930 . S
H1502 C1515 0.929 . S
H1503 C1513 0.929 . S
H1504 C1508 0.929 . S
H1505 C1514 0.929 . S
C1506 H1500 0.930 . S
C1506 C1507 1.367 . S
C1506 C1514 1.378 . S
C1507 C1506 1.367 . S
C1507 C1515 1.433 . S
C1508 H1504 0.929 . S
C1508 C1510 1.378 . S
C1508 C1512 1.350 . S
C1509 C1512 1.463 1_655 S
C1509 C1514 1.350 . S
C1509 N1517 1.427 . S
C1510 H1501 0.930 . S
C1510 C1508 1.378 . S
C1510 C1511 1.367 . S
C1511 C1510 1.367 . S
C1511 C1513 1.433 . S
C1512 C1508 1.350 . S
C1512 C1509 1.463 1_455 S
C1512 N1516 1.427 . S
C1513 H1503 0.929 . S
C1513 C1511 1.433 . S
C1513 N1516 1.384 . S
C1514 H1505 0.929 . S
C1514 C1506 1.378 . S
C1514 C1509 1.350 . S
C1515 H1502 0.929 . S
C1515 C1507 1.433 . S
C1515 N1517 1.384 . S
N1516 C1512 1.427 . S
N1516 C1513 1.384 . S
N1517 C1509 1.427 . S
N1517 C1515 1.384 . S
H1518 C1524 0.930 . S
H1519 C1528 0.930 . S
H1520 C1533 0.929 . S
H1521 C1531 0.929 . S
H1522 C1526 0.929 . S
H1523 C1532 0.929 . S
C1524 H1518 0.930 . S
C1524 C1525 1.367 . S
C1524 C1532 1.378 . S
C1525 C1524 1.367 . S
C1525 C1533 1.433 . S
C1526 H1522 0.929 . S
C1526 C1528 1.378 . S
C1526 C1530 1.350 . S
C1527 C1530 1.463 1_455 S
C1527 C1532 1.350 . S
C1527 N1535 1.427 . S
C1528 H1519 0.930 . S
C1528 C1526 1.378 . S
C1528 C1529 1.367 . S
C1529 C1528 1.367 . S
C1529 C1531 1.433 . S
C1530 C1526 1.350 . S
C1530 C1527 1.463 1_655 S
C1530 N1534 1.427 . S
C1531 H1521 0.929 . S
C1531 C1529 1.433 . S
C1531 N1534 1.384 . S
C1532 H1523 0.929 . S
C1532 C1524 1.378 . S
C1532 C1527 1.350 . S
C1533 H1520 0.929 . S
C1533 C1525 1.433 . S
C1533 N1535 1.384 . S
N1534 C1530 1.427 . S
N1534 C1531 1.384 . S
N1535 C1527 1.427 . S
N1535 C1533 1.384 . S
H1536 C1542 0.930 . S
H1537 C1546 0.930 . S
H1538 C1551 0.929 . S
H1539 C1549 0.929 . S
H1540 C1544 0.929 . S
H1541 C1550 0.929 . S
C1542 H1536 0.930 . S
C1542 C1543 1.367 . S
C1542 C1550 1.378 . S
C1543 C1542 1.367 . S
C1543 C1551 1.433 . S
C1544 H1540 0.929 . S
C1544 C1546 1.378 . S
C1544 C1548 1.350 . S
C1545 C1548 1.463 1_655 S
C1545 C1550 1.350 . S
C1545 N1553 1.427 . S
C1546 H1537 0.930 . S
C1546 C1544 1.378 . S
C1546 C1547 1.367 . S
C1547 C1546 1.367 . S
C1547 C1549 1.433 . S
C1548 C1544 1.350 . S
C1548 C1545 1.463 1_455 S
C1548 N1552 1.427 . S
C1549 H1539 0.929 . S
C1549 C1547 1.433 . S
C1549 N1552 1.384 . S
C1550 H1541 0.929 . S
C1550 C1542 1.378 . S
C1550 C1545 1.350 . S
C1551 H1538 0.929 . S
C1551 C1543 1.433 . S
C1551 N1553 1.384 . S
N1552 C1548 1.427 . S
N1552 C1549 1.384 . S
N1553 C1545 1.427 . S
N1553 C1551 1.384 . S
H1554 C1560 0.930 . S
H1555 C1564 0.930 . S
H1556 C1569 0.929 . S
H1557 C1567 0.929 . S
H1558 C1562 0.929 . S
H1559 C1568 0.929 . S
C1560 H1554 0.930 . S
C1560 C1561 1.367 . S
C1560 C1568 1.378 . S
C1561 C1560 1.367 . S
C1561 C1569 1.433 . S
C1562 H1558 0.929 . S
C1562 C1564 1.378 . S
C1562 C1566 1.350 . S
C1563 C1566 1.463 . S
C1563 C1568 1.350 . S
C1563 N1571 1.427 . S
C1564 H1555 0.930 . S
C1564 C1562 1.378 . S
C1564 C1565 1.367 . S
C1565 C1564 1.367 . S
C1565 C1567 1.433 . S
C1566 C1562 1.350 . S
C1566 C1563 1.463 . S
C1566 N1570 1.427 . S
C1567 H1557 0.929 . S
C1567 C1565 1.433 . S
C1567 N1570 1.384 . S
C1568 H1559 0.929 . S
C1568 C1560 1.378 . S
C1568 C1563 1.350 . S
C1569 H1556 0.929 . S
C1569 C1561 1.433 . S
C1569 N1571 1.384 . S
N1570 C1566 1.427 . S
N1570 C1567 1.384 . S
N1571 C1563 1.427 . S
N1571 C1569 1.384 . S
H1572 C1578 0.930 . S
H1573 C1582 0.930 . S
H1574 C1587 0.929 . S
H1575 C1585 0.929 . S
H1576 C1580 0.929 . S
H1577 C1586 0.929 . S
C1578 H1572 0.930 . S
C1578 C1579 1.367 . S
C1578 C1586 1.378 . S
C1579 C1578 1.367 . S
C1579 C1587 1.433 . S
C1580 H1576 0.929 . S
C1580 C1582 1.378 . S
C1580 C1584 1.350 . S
C1581 C1584 1.463 1_455 S
C1581 C1586 1.350 . S
C1581 N1589 1.427 . S
C1582 H1573 0.930 . S
C1582 C1580 1.378 . S
C1582 C1583 1.367 . S
C1583 C1582 1.367 . S
C1583 C1585 1.433 . S
C1584 C1580 1.350 . S
C1584 C1581 1.463 1_655 S
C1584 N1588 1.427 . S
C1585 H1575 0.929 . S
C1585 C1583 1.433 . S
C1585 N1588 1.384 . S
C1586 H1577 0.929 . S
C1586 C1578 1.378 . S
C1586 C1581 1.350 . S
C1587 H1574 0.929 . S
C1587 C1579 1.433 . S
C1587 N1589 1.384 . S
N1588 C1584 1.427 . S
N1588 C1585 1.384 . S
N1589 C1581 1.427 . S
N1589 C1587 1.384 . S
H1590 C1596 0.930 . S
H1591 C1600 0.930 . S
H1592 C1605 0.929 . S
H1593 C1603 0.929 . S
H1594 C1598 0.929 . S
H1595 C1604 0.929 . S
C1596 H1590 0.930 . S
C1596 C1597 1.367 . S
C1596 C1604 1.378 . S
C1597 C1596 1.367 . S
C1597 C1605 1.433 . S
C1598 H1594 0.929 . S
C1598 C1600 1.378 . S
C1598 C1602 1.350 . S
C1599 C1602 1.463 . S
C1599 C1604 1.350 . S
C1599 N1607 1.427 . S
C1600 H1591 0.930 . S
C1600 C1598 1.378 . S
C1600 C1601 1.367 . S
C1601 C1600 1.367 . S
C1601 C1603 1.433 . S
C1602 C1598 1.350 . S
C1602 C1599 1.463 . S
C1602 N1606 1.427 . S
C1603 H1593 0.929 . S
C1603 C1601 1.433 . S
C1603 N1606 1.384 . S
C1604 H1595 0.929 . S
C1604 C1596 1.378 . S
C1604 C1599 1.350 . S
C1605 H1592 0.929 . S
C1605 C1597 1.433 . S
C1605 N1607 1.384 . S
N1606 C1602 1.427 . S
N1606 C1603 1.384 . S
N1607 C1599 1.427 . S
N1607 C1605 1.384 . S
H1608 C1614 0.930 . S
H1609 C1618 0.930 . S
H1610 C1623 0.929 . S
H1611 C1621 0.929 . S
H1612 C1616 0.929 . S
H1613 C1622 0.929 . S
C1614 H1608 0.930 . S
C1614 C1615 1.367 . S
C1614 C1622 1.378 . S
C1615 C1614 1.367 . S
C1615 C1623 1.433 . S
C1616 H1612 0.929 . S
C1616 C1618 1.378 . S
C1616 C1620 1.350 . S
C1617 C1620 1.463 1_655 S
C1617 C1622 1.350 . S
C1617 N1625 1.427 . S
C1618 H1609 0.930 . S
C1618 C1616 1.378 . S
C1618 C1619 1.367 . S
C1619 C1618 1.367 . S
C1619 C1621 1.433 . S
C1620 C1616 1.350 . S
C1620 C1617 1.463 1_455 S
C1620 N1624 1.427 . S
C1621 H1611 0.929 . S
C1621 C1619 1.433 . S
C1621 N1624 1.384 . S
C1622 H1613 0.929 . S
C1622 C1614 1.378 . S
C1622 C1617 1.350 . S
C1623 H1610 0.929 . S
C1623 C1615 1.433 . S
C1623 N1625 1.384 . S
N1624 C1620 1.427 . S
N1624 C1621 1.384 . S
N1625 C1617 1.427 . S
N1625 C1623 1.384 . S
H1626 C1632 0.930 . S
H1627 C1636 0.930 . S
H1628 C1641 0.929 . S
H1629 C1639 0.929 . S
H1630 C1634 0.929 . S
H1631 C1640 0.929 . S
C1632 H1626 0.930 . S
C1632 C1633 1.367 . S
C1632 C1640 1.378 . S
C1633 C1632 1.367 . S
C1633 C1641 1.433 . S
C1634 H1630 0.929 . S
C1634 C1636 1.378 . S
C1634 C1638 1.350 . S
C1635 C1638 1.463 . S
C1635 C1640 1.350 . S
C1635 N1643 1.427 . S
C1636 H1627 0.930 . S
C1636 C1634 1.378 . S
C1636 C1637 1.367 . S
C1637 C1636 1.367 . S
C1637 C1639 1.433 . S
C1638 C1634 1.350 . S
C1638 C1635 1.463 . S
C1638 N1642 1.427 . S
C1639 H1629 0.929 . S
C1639 C1637 1.433 . S
C1639 N1642 1.384 . S
C1640 H1631 0.929 . S
C1640 C1632 1.378 . S
C1640 C1635 1.350 . S
C1641 H1628 0.929 . S
C1641 C1633 1.433 . S
C1641 N1643 1.384 . S
N1642 C1638 1.427 . S
N1642 C1639 1.384 . S
N1643 C1635 1.427 . S
N1643 C1641 1.384 . S
H1644 C1650 0.930 . S
H1645 C1654 0.930 . S
H1646 C1659 0.929 . S
H1647 C1657 0.929 . S
H1648 C1652 0.929 . S
H1649 C1658 0.929 . S
C1650 H1644 0.930 . S
C1650 C1651 1.367 . S
C1650 C1658 1.378 . S
C1651 C1650 1.367 . S
C1651 C1659 1.433 . S
C1652 H1648 0.929 . S
C1652 C1654 1.378 . S
C1652 C1656 1.350 . S
C1653 C1656 1.463 1_655 S
C1653 C1658 1.350 . S
C1653 N1661 1.427 . S
C1654 H1645 0.930 . S
C1654 C1652 1.378 . S
C1654 C1655 1.367 . S
C1655 C1654 1.367 . S
C1655 C1657 1.433 . S
C1656 C1652 1.350 . S
C1656 C1653 1.463 1_455 S
C1656 N1660 1.427 . S
C1657 H1647 0.929 . S
C1657 C1655 1.433 . S
C1657 N1660 1.384 . S
C1658 H1649 0.929 . S
C1658 C1650 1.378 . S
C1658 C1653 1.350 . S
C1659 H1646 0.929 . S
C1659 C1651 1.433 . S
C1659 N1661 1.384 . S
N1660 C1656 1.427 . S
N1660 C1657 1.384 . S
N1661 C1653 1.427 . S
N1661 C1659 1.384 . S
H1662 C1668 0.930 . S
H1663 C1672 0.930 . S
H1664 C1677 0.929 . S
H1665 C1675 0.929 . S
H1666 C1670 0.929 . S
H1667 C1676 0.929 . S
C1668 H1662 0.930 . S
C1668 C1669 1.367 . S
C1668 C1676 1.378 . S
C1669 C1668 1.367 . S
C1669 C1677 1.433 . S
C1670 H1666 0.929 . S
C1670 C1672 1.378 . S
C1670 C1674 1.350 . S
C1671 C1674 1.463 . S
C1671 C1676 1.350 . S
C1671 N1679 1.427 . S
C1672 H1663 0.930 . S
C1672 C1670 1.378 . S
C1672 C1673 1.367 . S
C1673 C1672 1.367 . S
C1673 C1675 1.433 . S
C1674 C1670 1.350 . S
C1674 C1671 1.463 . S
C1674 N1678 1.427 . S
C1675 H1665 0.929 . S
C1675 C1673 1.433 . S
C1675 N1678 1.384 . S
C1676 H1667 0.929 . S
C1676 C1668 1.378 . S
C1676 C1671 1.350 . S
C1677 H1664 0.929 . S
C1677 C1669 1.433 . S
C1677 N1679 1.384 . S
N1678 C1674 1.427 . S
N1678 C1675 1.384 . S
N1679 C1671 1.427 . S
N1679 C1677 1.384 . S
H1680 C1686 0.930 . S
H1681 C1690 0.930 . S
H1682 C1695 0.929 . S
H1683 C1693 0.929 . S
H1684 C1688 0.929 . S
H1685 C1694 0.929 . S
C1686 H1680 0.930 . S
C1686 C1687 1.367 . S
C1686 C1694 1.378 . S
C1687 C1686 1.367 . S
C1687 C1695 1.433 . S
C1688 H1684 0.929 . S
C1688 C1690 1.378 . S
C1688 C1692 1.350 . S
C1689 C1692 1.463 1_545 S
C1689 C1694 1.350 . S
C1689 N1697 1.427 . S
C1690 H1681 0.930 . S
C1690 C1688 1.378 . S
C1690 C1691 1.367 . S
C1691 C1690 1.367 . S
C1691 C1693 1.433 . S
C1692 C1688 1.350 . S
C1692 C1689 1.463 1_565 S
C1692 N1696 1.427 . S
C1693 H1683 0.929 . S
C1693 C1691 1.433 . S
C1693 N1696 1.384 . S
C1694 H1685 0.929 . S
C1694 C1686 1.378 . S
C1694 C1689 1.350 . S
C1695 H1682 0.929 . S
C1695 C1687 1.433 . S
C1695 N1697 1.384 . S
N1696 C1692 1.427 . S
N1696 C1693 1.384 . S
N1697 C1689 1.427 . S
N1697 C1695 1.384 . S
H1698 C1704 0.930 . S
H1699 C1708 0.930 . S
H1700 C1713 0.929 . S
H1701 C1711 0.929 . S
H1702 C1706 0.929 . S
H1703 C1712 0.929 . S
C1704 H1698 0.930 . S
C1704 C1705 1.367 . S
C1704 C1712 1.378 . S
C1705 C1704 1.367 . S
C1705 C1713 1.433 . S
C1706 H1702 0.929 . S
C1706 C1708 1.378 . S
C1706 C1710 1.350 . S
C1707 C1710 1.463 . S
C1707 C1712 1.350 . S
C1707 N1715 1.427 . S
C1708 H1699 0.930 . S
C1708 C1706 1.378 . S
C1708 C1709 1.367 . S
C1709 C1708 1.367 . S
C1709 C1711 1.433 . S
C1710 C1706 1.350 . S
C1710 C1707 1.463 . S
C1710 N1714 1.427 . S
C1711 H1701 0.929 . S
C1711 C1709 1.433 . S
C1711 N1714 1.384 . S
C1712 H1703 0.929 . S
C1712 C1704 1.378 . S
C1712 C1707 1.350 . S
C1713 H1700 0.929 . S
C1713 C1705 1.433 . S
C1713 N1715 1.384 . S
N1714 C1710 1.427 . S
N1714 C1711 1.384 . S
N1715 C1707 1.427 . S
N1715 C1713 1.384 . S
H1716 C1722 0.930 . S
H1717 C1726 0.930 . S
H1718 C1731 0.929 . S
H1719 C1729 0.929 . S
H1720 C1724 0.929 . S
H1721 C1730 0.929 . S
C1722 H1716 0.930 . S
C1722 C1723 1.367 . S
C1722 C1730 1.378 . S
C1723 C1722 1.367 . S
C1723 C1731 1.433 . S
C1724 H1720 0.929 . S
C1724 C1726 1.378 . S
C1724 C1728 1.350 . S
C1725 C1728 1.463 1_545 S
C1725 C1730 1.350 . S
C1725 N1733 1.427 . S
C1726 H1717 0.930 . S
C1726 C1724 1.378 . S
C1726 C1727 1.367 . S
C1727 C1726 1.367 . S
C1727 C1729 1.433 . S
C1728 C1724 1.350 . S
C1728 C1725 1.463 1_565 S
C1728 N1732 1.427 . S
C1729 H1719 0.929 . S
C1729 C1727 1.433 . S
C1729 N1732 1.384 . S
C1730 H1721 0.929 . S
C1730 C1722 1.378 . S
C1730 C1725 1.350 . S
C1731 H1718 0.929 . S
C1731 C1723 1.433 . S
C1731 N1733 1.384 . S
N1732 C1728 1.427 . S
N1732 C1729 1.384 . S
N1733 C1725 1.427 . S
N1733 C1731 1.384 . S
H1734 C1740 0.930 . S
H1735 C1744 0.930 . S
H1736 C1749 0.929 . S
H1737 C1747 0.929 . S
H1738 C1742 0.929 . S
H1739 C1748 0.929 . S
C1740 H1734 0.930 . S
C1740 C1741 1.367 . S
C1740 C1748 1.378 . S
C1741 C1740 1.367 . S
C1741 C1749 1.433 . S
C1742 H1738 0.929 . S
C1742 C1744 1.378 . S
C1742 C1746 1.350 . S
C1743 C1746 1.463 . S
C1743 C1748 1.350 . S
C1743 N1751 1.427 . S
C1744 H1735 0.930 . S
C1744 C1742 1.378 . S
C1744 C1745 1.367 . S
C1745 C1744 1.367 . S
C1745 C1747 1.433 . S
C1746 C1742 1.350 . S
C1746 C1743 1.463 . S
C1746 N1750 1.427 . S
C1747 H1737 0.929 . S
C1747 C1745 1.433 . S
C1747 N1750 1.384 . S
C1748 H1739 0.929 . S
C1748 C1740 1.378 . S
C1748 C1743 1.350 . S
C1749 H1736 0.929 . S
C1749 C1741 1.433 . S
C1749 N1751 1.384 . S
N1750 C1746 1.427 . S
N1750 C1747 1.384 . S
N1751 C1743 1.427 . S
N1751 C1749 1.384 . S
H1752 C1758 0.930 . S
H1753 C1762 0.930 . S
H1754 C1767 0.929 . S
H1755 C1765 0.929 . S
H1756 C1760 0.929 . S
H1757 C1766 0.929 . S
C1758 H1752 0.930 . S
C1758 C1759 1.367 . S
C1758 C1766 1.378 . S
C1759 C1758 1.367 . S
C1759 C1767 1.433 . S
C1760 H1756 0.929 . S
C1760 C1762 1.378 . S
C1760 C1764 1.350 . S
C1761 C1764 1.463 1_545 S
C1761 C1766 1.350 . S
C1761 N1769 1.427 . S
C1762 H1753 0.930 . S
C1762 C1760 1.378 . S
C1762 C1763 1.367 . S
C1763 C1762 1.367 . S
C1763 C1765 1.433 . S
C1764 C1760 1.350 . S
C1764 C1761 1.463 1_565 S
C1764 N1768 1.427 . S
C1765 H1755 0.929 . S
C1765 C1763 1.433 . S
C1765 N1768 1.384 . S
C1766 H1757 0.929 . S
C1766 C1758 1.378 . S
C1766 C1761 1.350 . S
C1767 H1754 0.929 . S
C1767 C1759 1.433 . S
C1767 N1769 1.384 . S
N1768 C1764 1.427 . S
N1768 C1765 1.384 . S
N1769 C1761 1.427 . S
N1769 C1767 1.384 . S
H1770 C1776 0.930 . S
H1771 C1780 0.930 . S
H1772 C1785 0.929 . S
H1773 C1783 0.929 . S
H1774 C1778 0.929 . S
H1775 C1784 0.929 . S
C1776 H1770 0.930 . S
C1776 C1777 1.367 . S
C1776 C1784 1.378 . S
C1777 C1776 1.367 . S
C1777 C1785 1.433 . S
C1778 H1774 0.929 . S
C1778 C1780 1.378 . S
C1778 C1782 1.350 . S
C1779 C1782 1.463 . S
C1779 C1784 1.350 . S
C1779 N1787 1.427 . S
C1780 H1771 0.930 . S
C1780 C1778 1.378 . S
C1780 C1781 1.367 . S
C1781 C1780 1.367 . S
C1781 C1783 1.433 . S
C1782 C1778 1.350 . S
C1782 C1779 1.463 . S
C1782 N1786 1.427 . S
C1783 H1773 0.929 . S
C1783 C1781 1.433 . S
C1783 N1786 1.384 . S
C1784 H1775 0.929 . S
C1784 C1776 1.378 . S
C1784 C1779 1.350 . S
C1785 H1772 0.929 . S
C1785 C1777 1.433 . S
C1785 N1787 1.384 . S
N1786 C1782 1.427 . S
N1786 C1783 1.384 . S
N1787 C1779 1.427 . S
N1787 C1785 1.384 . S
H1788 C1794 0.930 . S
H1789 C1798 0.930 . S
H1790 C1803 0.929 . S
H1791 C1801 0.929 . S
H1792 C1796 0.929 . S
H1793 C1802 0.929 . S
C1794 H1788 0.930 . S
C1794 C1795 1.367 . S
C1794 C1802 1.378 . S
C1795 C1794 1.367 . S
C1795 C1803 1.433 . S
C1796 H1792 0.929 . S
C1796 C1798 1.378 . S
C1796 C1800 1.350 . S
C1797 C1800 1.463 1_545 S
C1797 C1802 1.350 . S
C1797 N1805 1.427 . S
C1798 H1789 0.930 . S
C1798 C1796 1.378 . S
C1798 C1799 1.367 . S
C1799 C1798 1.367 . S
C1799 C1801 1.433 . S
C1800 C1796 1.350 . S
C1800 C1797 1.463 1_565 S
C1800 N1804 1.427 . S
C1801 H1791 0.929 . S
C1801 C1799 1.433 . S
C1801 N1804 1.384 . S
C1802 H1793 0.929 . S
C1802 C1794 1.378 . S
C1802 C1797 1.350 . S
C1803 H1790 0.929 . S
C1803 C1795 1.433 . S
C1803 N1805 1.384 . S
N1804 C1800 1.427 . S
N1804 C1801 1.384 . S
N1805 C1797 1.427 . S
N1805 C1803 1.384 . S
H1806 C1812 0.930 . S
H1807 C1816 0.930 . S
H1808 C1821 0.929 . S
H1809 C1819 0.929 . S
H1810 C1814 0.929 . S
H1811 C1820 0.929 . S
C1812 H1806 0.930 . S
C1812 C1813 1.367 . S
C1812 C1820 1.378 . S
C1813 C1812 1.367 . S
C1813 C1821 1.433 . S
C1814 H1810 0.929 . S
C1814 C1816 1.378 . S
C1814 C1818 1.350 . S
C1815 C1818 1.463 . S
C1815 C1820 1.350 . S
C1815 N1823 1.427 . S
C1816 H1807 0.930 . S
C1816 C1814 1.378 . S
C1816 C1817 1.367 . S
C1817 C1816 1.367 . S
C1817 C1819 1.433 . S
C1818 C1814 1.350 . S
C1818 C1815 1.463 . S
C1818 N1822 1.427 . S
C1819 H1809 0.929 . S
C1819 C1817 1.433 . S
C1819 N1822 1.384 . S
C1820 H1811 0.929 . S
C1820 C1812 1.378 . S
C1820 C1815 1.350 . S
C1821 H1808 0.929 . S
C1821 C1813 1.433 . S
C1821 N1823 1.384 . S
N1822 C1818 1.427 . S
N1822 C1819 1.384 . S
N1823 C1815 1.427 . S
N1823 C1821 1.384 . S
H1824 C1830 0.930 . S
H1825 C1834 0.930 . S
H1826 C1839 0.929 . S
H1827 C1837 0.929 . S
H1828 C1832 0.929 . S
H1829 C1838 0.929 . S
C1830 H1824 0.930 . S
C1830 C1831 1.367 . S
C1830 C1838 1.378 . S
C1831 C1830 1.367 . S
C1831 C1839 1.433 . S
C1832 H1828 0.929 . S
C1832 C1834 1.378 . S
C1832 C1836 1.350 . S
C1833 C1836 1.463 1_556 S
C1833 C1838 1.350 . S
C1833 N1841 1.427 . S
C1834 H1825 0.930 . S
C1834 C1832 1.378 . S
C1834 C1835 1.367 . S
C1835 C1834 1.367 . S
C1835 C1837 1.433 . S
C1836 C1832 1.350 . S
C1836 C1833 1.463 1_554 S
C1836 N1840 1.427 . S
C1837 H1827 0.929 . S
C1837 C1835 1.433 . S
C1837 N1840 1.384 . S
C1838 H1829 0.929 . S
C1838 C1830 1.378 . S
C1838 C1833 1.350 . S
C1839 H1826 0.929 . S
C1839 C1831 1.433 . S
C1839 N1841 1.384 . S
N1840 C1836 1.427 . S
N1840 C1837 1.384 . S
N1841 C1833 1.427 . S
N1841 C1839 1.384 . S
H1842 C1848 0.930 . S
H1843 C1852 0.930 . S
H1844 C1857 0.929 . S
H1845 C1855 0.929 . S
H1846 C1850 0.929 . S
H1847 C1856 0.929 . S
C1848 H1842 0.930 . S
C1848 C1849 1.367 . S
C1848 C1856 1.378 . S
C1849 C1848 1.367 . S
C1849 C1857 1.433 . S
C1850 H1846 0.929 . S
C1850 C1852 1.378 . S
C1850 C1854 1.350 . S
C1851 C1854 1.463 1_556 S
C1851 C1856 1.350 . S
C1851 N1859 1.427 . S
C1852 H1843 0.930 . S
C1852 C1850 1.378 . S
C1852 C1853 1.367 . S
C1853 C1852 1.367 . S
C1853 C1855 1.433 . S
C1854 C1850 1.350 . S
C1854 C1851 1.463 1_554 S
C1854 N1858 1.427 . S
C1855 H1845 0.929 . S
C1855 C1853 1.433 . S
C1855 N1858 1.384 . S
C1856 H1847 0.929 . S
C1856 C1848 1.378 . S
C1856 C1851 1.350 . S
C1857 H1844 0.929 . S
C1857 C1849 1.433 . S
C1857 N1859 1.384 . S
N1858 C1854 1.427 . S
N1858 C1855 1.384 . S
N1859 C1851 1.427 . S
N1859 C1857 1.384 . S
H1860 C1866 0.930 . S
H1861 C1870 0.930 . S
H1862 C1875 0.929 . S
H1863 C1873 0.929 . S
H1864 C1868 0.929 . S
H1865 C1874 0.929 . S
C1866 H1860 0.930 . S
C1866 C1867 1.367 . S
C1866 C1874 1.378 . S
C1867 C1866 1.367 . S
C1867 C1875 1.433 . S
C1868 H1864 0.929 . S
C1868 C1870 1.378 . S
C1868 C1872 1.350 . S
C1869 C1872 1.463 . S
C1869 C1874 1.350 . S
C1869 N1877 1.427 . S
C1870 H1861 0.930 . S
C1870 C1868 1.378 . S
C1870 C1871 1.367 . S
C1871 C1870 1.367 . S
C1871 C1873 1.433 . S
C1872 C1868 1.350 . S
C1872 C1869 1.463 . S
C1872 N1876 1.427 . S
C1873 H1863 0.929 . S
C1873 C1871 1.433 . S
C1873 N1876 1.384 . S
C1874 H1865 0.929 . S
C1874 C1866 1.378 . S
C1874 C1869 1.350 . S
C1875 H1862 0.929 . S
C1875 C1867 1.433 . S
C1875 N1877 1.384 . S
N1876 C1872 1.427 . S
N1876 C1873 1.384 . S
N1877 C1869 1.427 . S
N1877 C1875 1.384 . S
H1878 C1884 0.930 . S
H1879 C1888 0.930 . S
H1880 C1893 0.929 . S
H1881 C1891 0.929 . S
H1882 C1886 0.929 . S
H1883 C1892 0.929 . S
C1884 H1878 0.930 . S
C1884 C1885 1.367 . S
C1884 C1892 1.378 . S
C1885 C1884 1.367 . S
C1885 C1893 1.433 . S
C1886 H1882 0.929 . S
C1886 C1888 1.378 . S
C1886 C1890 1.350 . S
C1887 C1890 1.463 1_556 S
C1887 C1892 1.350 . S
C1887 N1895 1.427 . S
C1888 H1879 0.930 . S
C1888 C1886 1.378 . S
C1888 C1889 1.367 . S
C1889 C1888 1.367 . S
C1889 C1891 1.433 . S
C1890 C1886 1.350 . S
C1890 C1887 1.463 1_554 S
C1890 N1894 1.427 . S
C1891 H1881 0.929 . S
C1891 C1889 1.433 . S
C1891 N1894 1.384 . S
C1892 H1883 0.929 . S
C1892 C1884 1.378 . S
C1892 C1887 1.350 . S
C1893 H1880 0.929 . S
C1893 C1885 1.433 . S
C1893 N1895 1.384 . S
N1894 C1890 1.427 . S
N1894 C1891 1.384 . S
N1895 C1887 1.427 . S
N1895 C1893 1.384 . S
H1896 C1902 0.930 . S
H1897 C1906 0.930 . S
H1898 C1911 0.929 . S
H1899 C1909 0.929 . S
H1900 C1904 0.929 . S
H1901 C1910 0.929 . S
C1902 H1896 0.930 . S
C1902 C1903 1.367 . S
C1902 C1910 1.378 . S
C1903 C1902 1.367 . S
C1903 C1911 1.433 . S
C1904 H1900 0.929 . S
C1904 C1906 1.378 . S
C1904 C1908 1.350 . S
C1905 C1908 1.463 . S
C1905 C1910 1.350 . S
C1905 N1913 1.427 . S
C1906 H1897 0.930 . S
C1906 C1904 1.378 . S
C1906 C1907 1.367 . S
C1907 C1906 1.367 . S
C1907 C1909 1.433 . S
C1908 C1904 1.350 . S
C1908 C1905 1.463 . S
C1908 N1912 1.427 . S
C1909 H1899 0.929 . S
C1909 C1907 1.433 . S
C1909 N1912 1.384 . S
C1910 H1901 0.929 . S
C1910 C1902 1.378 . S
C1910 C1905 1.350 . S
C1911 H1898 0.929 . S
C1911 C1903 1.433 . S
C1911 N1913 1.384 . S
N1912 C1908 1.427 . S
N1912 C1909 1.384 . S
N1913 C1905 1.427 . S
N1913 C1911 1.384 . S
H1914 C1920 0.930 . S
H1915 C1924 0.930 . S
H1916 C1929 0.929 . S
H1917 C1927 0.929 . S
H1918 C1922 0.929 . S
H1919 C1928 0.929 . S
C1920 H1914 0.930 . S
C1920 C1921 1.367 . S
C1920 C1928 1.378 . S
C1921 C1920 1.367 . S
C1921 C1929 1.433 . S
C1922 H1918 0.929 . S
C1922 C1924 1.378 . S
C1922 C1926 1.350 . S
C1923 C1926 1.463 1_556 S
C1923 C1928 1.350 . S
C1923 N1931 1.427 . S
C1924 H1915 0.930 . S
C1924 C1922 1.378 . S
C1924 C1925 1.367 . S
C1925 C1924 1.367 . S
C1925 C1927 1.433 . S
C1926 C1922 1.350 . S
C1926 C1923 1.463 1_554 S
C1926 N1930 1.427 . S
C1927 H1917 0.929 . S
C1927 C1925 1.433 . S
C1927 N1930 1.384 . S
C1928 H1919 0.929 . S
C1928 C1920 1.378 . S
C1928 C1923 1.350 . S
C1929 H1916 0.929 . S
C1929 C1921 1.433 . S
C1929 N1931 1.384 . S
N1930 C1926 1.427 . S
N1930 C1927 1.384 . S
N1931 C1923 1.427 . S
N1931 C1929 1.384 . S
H1932 C1938 0.930 . S
H1933 C1942 0.930 . S
H1934 C1947 0.929 . S
H1935 C1945 0.929 . S
H1936 C1940 0.929 . S
H1937 C1946 0.929 . S
C1938 H1932 0.930 . S
C1938 C1939 1.367 . S
C1938 C1946 1.378 . S
C1939 C1938 1.367 . S
C1939 C1947 1.433 . S
C1940 H1936 0.929 . S
C1940 C1942 1.378 . S
C1940 C1944 1.350 . S
C1941 C1944 1.463 . S
C1941 C1946 1.350 . S
C1941 N1949 1.427 . S
C1942 H1933 0.930 . S
C1942 C1940 1.378 . S
C1942 C1943 1.367 . S
C1943 C1942 1.367 . S
C1943 C1945 1.433 . S
C1944 C1940 1.350 . S
C1944 C1941 1.463 . S
C1944 N1948 1.427 . S
C1945 H1935 0.929 . S
C1945 C1943 1.433 . S
C1945 N1948 1.384 . S
C1946 H1937 0.929 . S
C1946 C1938 1.378 . S
C1946 C1941 1.350 . S
C1947 H1934 0.929 . S
C1947 C1939 1.433 . S
C1947 N1949 1.384 . S
N1948 C1944 1.427 . S
N1948 C1945 1.384 . S
N1949 C1941 1.427 . S
N1949 C1947 1.384 . S
H1950 C1956 0.930 . S
H1951 C1960 0.930 . S
H1952 C1965 0.929 . S
H1953 C1963 0.929 . S
H1954 C1958 0.929 . S
H1955 C1964 0.929 . S
C1956 H1950 0.930 . S
C1956 C1957 1.367 . S
C1956 C1964 1.378 . S
C1957 C1956 1.367 . S
C1957 C1965 1.433 . S
C1958 H1954 0.929 . S
C1958 C1960 1.378 . S
C1958 C1962 1.350 . S
C1959 C1962 1.463 . S
C1959 C1964 1.350 . S
C1959 N1967 1.427 . S
C1960 H1951 0.930 . S
C1960 C1958 1.378 . S
C1960 C1961 1.367 . S
C1961 C1960 1.367 . S
C1961 C1963 1.433 . S
C1962 C1958 1.350 . S
C1962 C1959 1.463 . S
C1962 N1966 1.427 . S
C1963 H1953 0.929 . S
C1963 C1961 1.433 . S
C1963 N1966 1.384 . S
C1964 H1955 0.929 . S
C1964 C1956 1.378 . S
C1964 C1959 1.350 . S
C1965 H1952 0.929 . S
C1965 C1957 1.433 . S
C1965 N1967 1.384 . S
N1966 C1962 1.427 . S
N1966 C1963 1.384 . S
N1967 C1959 1.427 . S
N1967 C1965 1.384 . S
H1968 C1974 0.930 . S
H1969 C1978 0.930 . S
H1970 C1983 0.929 . S
H1971 C1981 0.929 . S
H1972 C1976 0.929 . S
H1973 C1982 0.929 . S
C1974 H1968 0.930 . S
C1974 C1975 1.367 . S
C1974 C1982 1.378 . S
C1975 C1974 1.367 . S
C1975 C1983 1.433 . S
C1976 H1972 0.929 . S
C1976 C1978 1.378 . S
C1976 C1980 1.350 . S
C1977 C1980 1.463 . S
C1977 C1982 1.350 . S
C1977 N1985 1.427 . S
C1978 H1969 0.930 . S
C1978 C1976 1.378 . S
C1978 C1979 1.367 . S
C1979 C1978 1.367 . S
C1979 C1981 1.433 . S
C1980 C1976 1.350 . S
C1980 C1977 1.463 . S
C1980 N1984 1.427 . S
C1981 H1971 0.929 . S
C1981 C1979 1.433 . S
C1981 N1984 1.384 . S
C1982 H1973 0.929 . S
C1982 C1974 1.378 . S
C1982 C1977 1.350 . S
C1983 H1970 0.929 . S
C1983 C1975 1.433 . S
C1983 N1985 1.384 . S
N1984 C1980 1.427 . S
N1984 C1981 1.384 . S
N1985 C1977 1.427 . S
N1985 C1983 1.384 . S
H1986 C1992 0.930 . S
H1987 C1996 0.930 . S
H1988 C2001 0.929 . S
H1989 C1999 0.929 . S
H1990 C1994 0.929 . S
H1991 C2000 0.929 . S
C1992 H1986 0.930 . S
C1992 C1993 1.367 . S
C1992 C2000 1.378 . S
C1993 C1992 1.367 . S
C1993 C2001 1.433 . S
C1994 H1990 0.929 . S
C1994 C1996 1.378 . S
C1994 C1998 1.350 . S
C1995 C1998 1.463 . S
C1995 C2000 1.350 . S
C1995 N2003 1.427 . S
C1996 H1987 0.930 . S
C1996 C1994 1.378 . S
C1996 C1997 1.367 . S
C1997 C1996 1.367 . S
C1997 C1999 1.433 . S
C1998 C1994 1.350 . S
C1998 C1995 1.463 . S
C1998 N2002 1.427 . S
C1999 H1989 0.929 . S
C1999 C1997 1.433 . S
C1999 N2002 1.384 . S
C2000 H1991 0.929 . S
C2000 C1992 1.378 . S
C2000 C1995 1.350 . S
C2001 H1988 0.929 . S
C2001 C1993 1.433 . S
C2001 N2003 1.384 . S
N2002 C1998 1.427 . S
N2002 C1999 1.384 . S
N2003 C1995 1.427 . S
N2003 C2001 1.384 . S
H2004 C2010 0.930 . S
H2005 C2014 0.930 . S
H2006 C2019 0.929 . S
H2007 C2017 0.929 . S
H2008 C2012 0.929 . S
H2009 C2018 0.929 . S
C2010 H2004 0.930 . S
C2010 C2011 1.367 . S
C2010 C2018 1.378 . S
C2011 C2010 1.367 . S
C2011 C2019 1.433 . S
C2012 H2008 0.929 . S
C2012 C2014 1.378 . S
C2012 C2016 1.350 . S
C2013 C2016 1.463 . S
C2013 C2018 1.350 . S
C2013 N2021 1.427 . S
C2014 H2005 0.930 . S
C2014 C2012 1.378 . S
C2014 C2015 1.367 . S
C2015 C2014 1.367 . S
C2015 C2017 1.433 . S
C2016 C2012 1.350 . S
C2016 C2013 1.463 . S
C2016 N2020 1.427 . S
C2017 H2007 0.929 . S
C2017 C2015 1.433 . S
C2017 N2020 1.384 . S
C2018 H2009 0.929 . S
C2018 C2010 1.378 . S
C2018 C2013 1.350 . S
C2019 H2006 0.929 . S
C2019 C2011 1.433 . S
C2019 N2021 1.384 . S
N2020 C2016 1.427 . S
N2020 C2017 1.384 . S
N2021 C2013 1.427 . S
N2021 C2019 1.384 . S
H2022 C2028 0.930 . S
H2023 C2032 0.930 . S
H2024 C2037 0.929 . S
H2025 C2035 0.929 . S
H2026 C2030 0.929 . S
H2027 C2036 0.929 . S
C2028 H2022 0.930 . S
C2028 C2029 1.367 . S
C2028 C2036 1.378 . S
C2029 C2028 1.367 . S
C2029 C2037 1.433 . S
C2030 H2026 0.929 . S
C2030 C2032 1.378 . S
C2030 C2034 1.350 . S
C2031 C2034 1.463 . S
C2031 C2036 1.350 . S
C2031 N2039 1.427 . S
C2032 H2023 0.930 . S
C2032 C2030 1.378 . S
C2032 C2033 1.367 . S
C2033 C2032 1.367 . S
C2033 C2035 1.433 . S
C2034 C2030 1.350 . S
C2034 C2031 1.463 . S
C2034 N2038 1.427 . S
C2035 H2025 0.929 . S
C2035 C2033 1.433 . S
C2035 N2038 1.384 . S
C2036 H2027 0.929 . S
C2036 C2028 1.378 . S
C2036 C2031 1.350 . S
C2037 H2024 0.929 . S
C2037 C2029 1.433 . S
C2037 N2039 1.384 . S
N2038 C2034 1.427 . S
N2038 C2035 1.384 . S
N2039 C2031 1.427 . S
N2039 C2037 1.384 . S
H2040 C2046 0.930 . S
H2041 C2050 0.930 . S
H2042 C2055 0.929 . S
H2043 C2053 0.929 . S
H2044 C2048 0.929 . S
H2045 C2054 0.929 . S
C2046 H2040 0.930 . S
C2046 C2047 1.367 . S
C2046 C2054 1.378 . S
C2047 C2046 1.367 . S
C2047 C2055 1.433 . S
C2048 H2044 0.929 . S
C2048 C2050 1.378 . S
C2048 C2052 1.350 . S
C2049 C2052 1.463 . S
C2049 C2054 1.350 . S
C2049 N2057 1.427 . S
C2050 H2041 0.930 . S
C2050 C2048 1.378 . S
C2050 C2051 1.367 . S
C2051 C2050 1.367 . S
C2051 C2053 1.433 . S
C2052 C2048 1.350 . S
C2052 C2049 1.463 . S
C2052 N2056 1.427 . S
C2053 H2043 0.929 . S
C2053 C2051 1.433 . S
C2053 N2056 1.384 . S
C2054 H2045 0.929 . S
C2054 C2046 1.378 . S
C2054 C2049 1.350 . S
C2055 H2042 0.929 . S
C2055 C2047 1.433 . S
C2055 N2057 1.384 . S
N2056 C2052 1.427 . S
N2056 C2053 1.384 . S
N2057 C2049 1.427 . S
N2057 C2055 1.384 . S
H2058 C2064 0.930 . S
H2059 C2068 0.930 . S
H2060 C2073 0.929 . S
H2061 C2071 0.929 . S
H2062 C2066 0.929 . S
H2063 C2072 0.929 . S
C2064 H2058 0.930 . S
C2064 C2065 1.367 . S
C2064 C2072 1.378 . S
C2065 C2064 1.367 . S
C2065 C2073 1.433 . S
C2066 H2062 0.929 . S
C2066 C2068 1.378 . S
C2066 C2070 1.350 . S
C2067 C2070 1.463 . S
C2067 C2072 1.350 . S
C2067 N2075 1.427 . S
C2068 H2059 0.930 . S
C2068 C2066 1.378 . S
C2068 C2069 1.367 . S
C2069 C2068 1.367 . S
C2069 C2071 1.433 . S
C2070 C2066 1.350 . S
C2070 C2067 1.463 . S
C2070 N2074 1.427 . S
C2071 H2061 0.929 . S
C2071 C2069 1.433 . S
C2071 N2074 1.384 . S
C2072 H2063 0.929 . S
C2072 C2064 1.378 . S
C2072 C2067 1.350 . S
C2073 H2060 0.929 . S
C2073 C2065 1.433 . S
C2073 N2075 1.384 . S
N2074 C2070 1.427 . S
N2074 C2071 1.384 . S
N2075 C2067 1.427 . S
N2075 C2073 1.384 . S
H2076 C2082 0.930 . S
H2077 C2086 0.930 . S
H2078 C2091 0.929 . S
H2079 C2089 0.929 . S
H2080 C2084 0.929 . S
H2081 C2090 0.929 . S
C2082 H2076 0.930 . S
C2082 C2083 1.367 . S
C2082 C2090 1.378 . S
C2083 C2082 1.367 . S
C2083 C2091 1.433 . S
C2084 H2080 0.929 . S
C2084 C2086 1.378 . S
C2084 C2088 1.350 . S
C2085 C2088 1.463 . S
C2085 C2090 1.350 . S
C2085 N2093 1.427 . S
C2086 H2077 0.930 . S
C2086 C2084 1.378 . S
C2086 C2087 1.367 . S
C2087 C2086 1.367 . S
C2087 C2089 1.433 . S
C2088 C2084 1.350 . S
C2088 C2085 1.463 . S
C2088 N2092 1.427 . S
C2089 H2079 0.929 . S
C2089 C2087 1.433 . S
C2089 N2092 1.384 . S
C2090 H2081 0.929 . S
C2090 C2082 1.378 . S
C2090 C2085 1.350 . S
C2091 H2078 0.929 . S
C2091 C2083 1.433 . S
C2091 N2093 1.384 . S
N2092 C2088 1.427 . S
N2092 C2089 1.384 . S
N2093 C2085 1.427 . S
N2093 C2091 1.384 . S
H2094 C2100 0.930 . S
H2095 C2104 0.930 . S
H2096 C2109 0.929 . S
H2097 C2107 0.929 . S
H2098 C2102 0.929 . S
H2099 C2108 0.929 . S
C2100 H2094 0.930 . S
C2100 C2101 1.367 . S
C2100 C2108 1.378 . S
C2101 C2100 1.367 . S
C2101 C2109 1.433 . S
C2102 H2098 0.929 . S
C2102 C2104 1.378 . S
C2102 C2106 1.350 . S
C2103 C2106 1.463 . S
C2103 C2108 1.350 . S
C2103 N2111 1.427 . S
C2104 H2095 0.930 . S
C2104 C2102 1.378 . S
C2104 C2105 1.367 . S
C2105 C2104 1.367 . S
C2105 C2107 1.433 . S
C2106 C2102 1.350 . S
C2106 C2103 1.463 . S
C2106 N2110 1.427 . S
C2107 H2097 0.929 . S
C2107 C2105 1.433 . S
C2107 N2110 1.384 . S
C2108 H2099 0.929 . S
C2108 C2100 1.378 . S
C2108 C2103 1.350 . S
C2109 H2096 0.929 . S
C2109 C2101 1.433 . S
C2109 N2111 1.384 . S
N2110 C2106 1.427 . S
N2110 C2107 1.384 . S
N2111 C2103 1.427 . S
N2111 C2109 1.384 . S
H2112 C2118 0.930 . S
H2113 C2122 0.930 . S
H2114 C2127 0.929 . S
H2115 C2125 0.929 . S
H2116 C2120 0.929 . S
H2117 C2126 0.929 . S
C2118 H2112 0.930 . S
C2118 C2119 1.367 . S
C2118 C2126 1.378 . S
C2119 C2118 1.367 . S
C2119 C2127 1.433 . S
C2120 H2116 0.929 . S
C2120 C2122 1.378 . S
C2120 C2124 1.350 . S
C2121 C2124 1.463 . S
C2121 C2126 1.350 . S
C2121 N2129 1.427 . S
C2122 H2113 0.930 . S
C2122 C2120 1.378 . S
C2122 C2123 1.367 . S
C2123 C2122 1.367 . S
C2123 C2125 1.433 . S
C2124 C2120 1.350 . S
C2124 C2121 1.463 . S
C2124 N2128 1.427 . S
C2125 H2115 0.929 . S
C2125 C2123 1.433 . S
C2125 N2128 1.384 . S
C2126 H2117 0.929 . S
C2126 C2118 1.378 . S
C2126 C2121 1.350 . S
C2127 H2114 0.929 . S
C2127 C2119 1.433 . S
C2127 N2129 1.384 . S
N2128 C2124 1.427 . S
N2128 C2125 1.384 . S
N2129 C2121 1.427 . S
N2129 C2127 1.384 . S
H2130 C2136 0.930 . S
H2131 C2140 0.930 . S
H2132 C2145 0.929 . S
H2133 C2143 0.929 . S
H2134 C2138 0.929 . S
H2135 C2144 0.929 . S
C2136 H2130 0.930 . S
C2136 C2137 1.367 . S
C2136 C2144 1.378 . S
C2137 C2136 1.367 . S
C2137 C2145 1.433 . S
C2138 H2134 0.929 . S
C2138 C2140 1.378 . S
C2138 C2142 1.350 . S
C2139 C2142 1.463 . S
C2139 C2144 1.350 . S
C2139 N2147 1.427 . S
C2140 H2131 0.930 . S
C2140 C2138 1.378 . S
C2140 C2141 1.367 . S
C2141 C2140 1.367 . S
C2141 C2143 1.433 . S
C2142 C2138 1.350 . S
C2142 C2139 1.463 . S
C2142 N2146 1.427 . S
C2143 H2133 0.929 . S
C2143 C2141 1.433 . S
C2143 N2146 1.384 . S
C2144 H2135 0.929 . S
C2144 C2136 1.378 . S
C2144 C2139 1.350 . S
C2145 H2132 0.929 . S
C2145 C2137 1.433 . S
C2145 N2147 1.384 . S
N2146 C2142 1.427 . S
N2146 C2143 1.384 . S
N2147 C2139 1.427 . S
N2147 C2145 1.384 . S
H2148 C2154 0.930 . S
H2149 C2158 0.930 . S
H2150 C2163 0.929 . S
H2151 C2161 0.929 . S
H2152 C2156 0.929 . S
H2153 C2162 0.929 . S
C2154 H2148 0.930 . S
C2154 C2155 1.367 . S
C2154 C2162 1.378 . S
C2155 C2154 1.367 . S
C2155 C2163 1.433 . S
C2156 H2152 0.929 . S
C2156 C2158 1.378 . S
C2156 C2160 1.350 . S
C2157 C2160 1.463 . S
C2157 C2162 1.350 . S
C2157 N2165 1.427 . S
C2158 H2149 0.930 . S
C2158 C2156 1.378 . S
C2158 C2159 1.367 . S
C2159 C2158 1.367 . S
C2159 C2161 1.433 . S
C2160 C2156 1.350 . S
C2160 C2157 1.463 . S
C2160 N2164 1.427 . S
C2161 H2151 0.929 . S
C2161 C2159 1.433 . S
C2161 N2164 1.384 . S
C2162 H2153 0.929 . S
C2162 C2154 1.378 . S
C2162 C2157 1.350 . S
C2163 H2150 0.929 . S
C2163 C2155 1.433 . S
C2163 N2165 1.384 . S
N2164 C2160 1.427 . S
N2164 C2161 1.384 . S
N2165 C2157 1.427 . S
N2165 C2163 1.384 . S
H2166 C2172 0.930 . S
H2167 C2176 0.930 . S
H2168 C2181 0.929 . S
H2169 C2179 0.929 . S
H2170 C2174 0.929 . S
H2171 C2180 0.929 . S
C2172 H2166 0.930 . S
C2172 C2173 1.367 . S
C2172 C2180 1.378 . S
C2173 C2172 1.367 . S
C2173 C2181 1.433 . S
C2174 H2170 0.929 . S
C2174 C2176 1.378 . S
C2174 C2178 1.350 . S
C2175 C2178 1.463 . S
C2175 C2180 1.350 . S
C2175 N2183 1.427 . S
C2176 H2167 0.930 . S
C2176 C2174 1.378 . S
C2176 C2177 1.367 . S
C2177 C2176 1.367 . S
C2177 C2179 1.433 . S
C2178 C2174 1.350 . S
C2178 C2175 1.463 . S
C2178 N2182 1.427 . S
C2179 H2169 0.929 . S
C2179 C2177 1.433 . S
C2179 N2182 1.384 . S
C2180 H2171 0.929 . S
C2180 C2172 1.378 . S
C2180 C2175 1.350 . S
C2181 H2168 0.929 . S
C2181 C2173 1.433 . S
C2181 N2183 1.384 . S
N2182 C2178 1.427 . S
N2182 C2179 1.384 . S
N2183 C2175 1.427 . S
N2183 C2181 1.384 . S
H2184 C2190 0.930 . S
H2185 C2194 0.930 . S
H2186 C2199 0.929 . S
H2187 C2197 0.929 . S
H2188 C2192 0.929 . S
H2189 C2198 0.929 . S
C2190 H2184 0.930 . S
C2190 C2191 1.367 . S
C2190 C2198 1.378 . S
C2191 C2190 1.367 . S
C2191 C2199 1.433 . S
C2192 H2188 0.929 . S
C2192 C2194 1.378 . S
C2192 C2196 1.350 . S
C2193 C2196 1.463 . S
C2193 C2198 1.350 . S
C2193 N2201 1.427 . S
C2194 H2185 0.930 . S
C2194 C2192 1.378 . S
C2194 C2195 1.367 . S
C2195 C2194 1.367 . S
C2195 C2197 1.433 . S
C2196 C2192 1.350 . S
C2196 C2193 1.463 . S
C2196 N2200 1.427 . S
C2197 H2187 0.929 . S
C2197 C2195 1.433 . S
C2197 N2200 1.384 . S
C2198 H2189 0.929 . S
C2198 C2190 1.378 . S
C2198 C2193 1.350 . S
C2199 H2186 0.929 . S
C2199 C2191 1.433 . S
C2199 N2201 1.384 . S
N2200 C2196 1.427 . S
N2200 C2197 1.384 . S
N2201 C2193 1.427 . S
N2201 C2199 1.384 . S
H2202 C2208 0.930 . S
H2203 C2212 0.930 . S
H2204 C2217 0.929 . S
H2205 C2215 0.929 . S
H2206 C2210 0.929 . S
H2207 C2216 0.929 . S
C2208 H2202 0.930 . S
C2208 C2209 1.367 . S
C2208 C2216 1.378 . S
C2209 C2208 1.367 . S
C2209 C2217 1.433 . S
C2210 H2206 0.929 . S
C2210 C2212 1.378 . S
C2210 C2214 1.350 . S
C2211 C2214 1.463 . S
C2211 C2216 1.350 . S
C2211 N2219 1.427 . S
C2212 H2203 0.930 . S
C2212 C2210 1.378 . S
C2212 C2213 1.367 . S
C2213 C2212 1.367 . S
C2213 C2215 1.433 . S
C2214 C2210 1.350 . S
C2214 C2211 1.463 . S
C2214 N2218 1.427 . S
C2215 H2205 0.929 . S
C2215 C2213 1.433 . S
C2215 N2218 1.384 . S
C2216 H2207 0.929 . S
C2216 C2208 1.378 . S
C2216 C2211 1.350 . S
C2217 H2204 0.929 . S
C2217 C2209 1.433 . S
C2217 N2219 1.384 . S
N2218 C2214 1.427 . S
N2218 C2215 1.384 . S
N2219 C2211 1.427 . S
N2219 C2217 1.384 . S
H2220 C2226 0.930 . S
H2221 C2230 0.930 . S
H2222 C2235 0.929 . S
H2223 C2233 0.929 . S
H2224 C2228 0.929 . S
H2225 C2234 0.929 . S
C2226 H2220 0.930 . S
C2226 C2227 1.367 . S
C2226 C2234 1.378 . S
C2227 C2226 1.367 . S
C2227 C2235 1.433 . S
C2228 H2224 0.929 . S
C2228 C2230 1.378 . S
C2228 C2232 1.350 . S
C2229 C2232 1.463 . S
C2229 C2234 1.350 . S
C2229 N2237 1.427 . S
C2230 H2221 0.930 . S
C2230 C2228 1.378 . S
C2230 C2231 1.367 . S
C2231 C2230 1.367 . S
C2231 C2233 1.433 . S
C2232 C2228 1.350 . S
C2232 C2229 1.463 . S
C2232 N2236 1.427 . S
C2233 H2223 0.929 . S
C2233 C2231 1.433 . S
C2233 N2236 1.384 . S
C2234 H2225 0.929 . S
C2234 C2226 1.378 . S
C2234 C2229 1.350 . S
C2235 H2222 0.929 . S
C2235 C2227 1.433 . S
C2235 N2237 1.384 . S
N2236 C2232 1.427 . S
N2236 C2233 1.384 . S
N2237 C2229 1.427 . S
N2237 C2235 1.384 . S
H2238 C2244 0.930 . S
H2239 C2248 0.930 . S
H2240 C2253 0.929 . S
H2241 C2251 0.929 . S
H2242 C2246 0.929 . S
H2243 C2252 0.929 . S
C2244 H2238 0.930 . S
C2244 C2245 1.367 . S
C2244 C2252 1.378 . S
C2245 C2244 1.367 . S
C2245 C2253 1.433 . S
C2246 H2242 0.929 . S
C2246 C2248 1.378 . S
C2246 C2250 1.350 . S
C2247 C2250 1.463 . S
C2247 C2252 1.350 . S
C2247 N2255 1.427 . S
C2248 H2239 0.930 . S
C2248 C2246 1.378 . S
C2248 C2249 1.367 . S
C2249 C2248 1.367 . S
C2249 C2251 1.433 . S
C2250 C2246 1.350 . S
C2250 C2247 1.463 . S
C2250 N2254 1.427 . S
C2251 H2241 0.929 . S
C2251 C2249 1.433 . S
C2251 N2254 1.384 . S
C2252 H2243 0.929 . S
C2252 C2244 1.378 . S
C2252 C2247 1.350 . S
C2253 H2240 0.929 . S
C2253 C2245 1.433 . S
C2253 N2255 1.384 . S
N2254 C2250 1.427 . S
N2254 C2251 1.384 . S
N2255 C2247 1.427 . S
N2255 C2253 1.384 . S
H2256 C2262 0.930 . S
H2257 C2266 0.930 . S
H2258 C2271 0.929 . S
H2259 C2269 0.929 . S
H2260 C2264 0.929 . S
H2261 C2270 0.929 . S
C2262 H2256 0.930 . S
C2262 C2263 1.367 . S
C2262 C2270 1.378 . S
C2263 C2262 1.367 . S
C2263 C2271 1.433 . S
C2264 H2260 0.929 . S
C2264 C2266 1.378 . S
C2264 C2268 1.350 . S
C2265 C2268 1.463 . S
C2265 C2270 1.350 . S
C2265 N2273 1.427 . S
C2266 H2257 0.930 . S
C2266 C2264 1.378 . S
C2266 C2267 1.367 . S
C2267 C2266 1.367 . S
C2267 C2269 1.433 . S
C2268 C2264 1.350 . S
C2268 C2265 1.463 . S
C2268 N2272 1.427 . S
C2269 H2259 0.929 . S
C2269 C2267 1.433 . S
C2269 N2272 1.384 . S
C2270 H2261 0.929 . S
C2270 C2262 1.378 . S
C2270 C2265 1.350 . S
C2271 H2258 0.929 . S
C2271 C2263 1.433 . S
C2271 N2273 1.384 . S
N2272 C2268 1.427 . S
N2272 C2269 1.384 . S
N2273 C2265 1.427 . S
N2273 C2271 1.384 . S
H2274 C2280 0.930 . S
H2275 C2284 0.930 . S
H2276 C2289 0.929 . S
H2277 C2287 0.929 . S
H2278 C2282 0.929 . S
H2279 C2288 0.929 . S
C2280 H2274 0.930 . S
C2280 C2281 1.367 . S
C2280 C2288 1.378 . S
C2281 C2280 1.367 . S
C2281 C2289 1.433 . S
C2282 H2278 0.929 . S
C2282 C2284 1.378 . S
C2282 C2286 1.350 . S
C2283 C2286 1.463 . S
C2283 C2288 1.350 . S
C2283 N2291 1.427 . S
C2284 H2275 0.930 . S
C2284 C2282 1.378 . S
C2284 C2285 1.367 . S
C2285 C2284 1.367 . S
C2285 C2287 1.433 . S
C2286 C2282 1.350 . S
C2286 C2283 1.463 . S
C2286 N2290 1.427 . S
C2287 H2277 0.929 . S
C2287 C2285 1.433 . S
C2287 N2290 1.384 . S
C2288 H2279 0.929 . S
C2288 C2280 1.378 . S
C2288 C2283 1.350 . S
C2289 H2276 0.929 . S
C2289 C2281 1.433 . S
C2289 N2291 1.384 . S
N2290 C2286 1.427 . S
N2290 C2287 1.384 . S
N2291 C2283 1.427 . S
N2291 C2289 1.384 . S
H2292 C2298 0.930 . S
H2293 C2302 0.930 . S
H2294 C2307 0.929 . S
H2295 C2305 0.929 . S
H2296 C2300 0.929 . S
H2297 C2306 0.929 . S
C2298 H2292 0.930 . S
C2298 C2299 1.367 . S
C2298 C2306 1.378 . S
C2299 C2298 1.367 . S
C2299 C2307 1.433 . S
C2300 H2296 0.929 . S
C2300 C2302 1.378 . S
C2300 C2304 1.350 . S
C2301 C2304 1.463 . S
C2301 C2306 1.350 . S
C2301 N2309 1.427 . S
C2302 H2293 0.930 . S
C2302 C2300 1.378 . S
C2302 C2303 1.367 . S
C2303 C2302 1.367 . S
C2303 C2305 1.433 . S
C2304 C2300 1.350 . S
C2304 C2301 1.463 . S
C2304 N2308 1.427 . S
C2305 H2295 0.929 . S
C2305 C2303 1.433 . S
C2305 N2308 1.384 . S
C2306 H2297 0.929 . S
C2306 C2298 1.378 . S
C2306 C2301 1.350 . S
C2307 H2294 0.929 . S
C2307 C2299 1.433 . S
C2307 N2309 1.384 . S
N2308 C2304 1.427 . S
N2308 C2305 1.384 . S
N2309 C2301 1.427 . S
N2309 C2307 1.384 . S
H2310 C2316 0.930 . S
H2311 C2320 0.930 . S
H2312 C2325 0.929 . S
H2313 C2323 0.929 . S
H2314 C2318 0.929 . S
H2315 C2324 0.929 . S
C2316 H2310 0.930 . S
C2316 C2317 1.367 . S
C2316 C2324 1.378 . S
C2317 C2316 1.367 . S
C2317 C2325 1.433 . S
C2318 H2314 0.929 . S
C2318 C2320 1.378 . S
C2318 C2322 1.350 . S
C2319 C2322 1.463 . S
C2319 C2324 1.350 . S
C2319 N2327 1.427 . S
C2320 H2311 0.930 . S
C2320 C2318 1.378 . S
C2320 C2321 1.367 . S
C2321 C2320 1.367 . S
C2321 C2323 1.433 . S
C2322 C2318 1.350 . S
C2322 C2319 1.463 . S
C2322 N2326 1.427 . S
C2323 H2313 0.929 . S
C2323 C2321 1.433 . S
C2323 N2326 1.384 . S
C2324 H2315 0.929 . S
C2324 C2316 1.378 . S
C2324 C2319 1.350 . S
C2325 H2312 0.929 . S
C2325 C2317 1.433 . S
C2325 N2327 1.384 . S
N2326 C2322 1.427 . S
N2326 C2323 1.384 . S
N2327 C2319 1.427 . S
N2327 C2325 1.384 . S
H2328 C2334 0.930 . S
H2329 C2338 0.930 . S
H2330 C2343 0.929 . S
H2331 C2341 0.929 . S
H2332 C2336 0.929 . S
H2333 C2342 0.929 . S
C2334 H2328 0.930 . S
C2334 C2335 1.367 . S
C2334 C2342 1.378 . S
C2335 C2334 1.367 . S
C2335 C2343 1.433 . S
C2336 H2332 0.929 . S
C2336 C2338 1.378 . S
C2336 C2340 1.350 . S
C2337 C2340 1.463 . S
C2337 C2342 1.350 . S
C2337 N2345 1.427 . S
C2338 H2329 0.930 . S
C2338 C2336 1.378 . S
C2338 C2339 1.367 . S
C2339 C2338 1.367 . S
C2339 C2341 1.433 . S
C2340 C2336 1.350 . S
C2340 C2337 1.463 . S
C2340 N2344 1.427 . S
C2341 H2331 0.929 . S
C2341 C2339 1.433 . S
C2341 N2344 1.384 . S
C2342 H2333 0.929 . S
C2342 C2334 1.378 . S
C2342 C2337 1.350 . S
C2343 H2330 0.929 . S
C2343 C2335 1.433 . S
C2343 N2345 1.384 . S
N2344 C2340 1.427 . S
N2344 C2341 1.384 . S
N2345 C2337 1.427 . S
N2345 C2343 1.384 . S
H2346 C2352 0.930 . S
H2347 C2356 0.930 . S
H2348 C2361 0.929 . S
H2349 C2359 0.929 . S
H2350 C2354 0.929 . S
H2351 C2360 0.929 . S
C2352 H2346 0.930 . S
C2352 C2353 1.367 . S
C2352 C2360 1.378 . S
C2353 C2352 1.367 . S
C2353 C2361 1.433 . S
C2354 H2350 0.929 . S
C2354 C2356 1.378 . S
C2354 C2358 1.350 . S
C2355 C2358 1.463 . S
C2355 C2360 1.350 . S
C2355 N2363 1.427 . S
C2356 H2347 0.930 . S
C2356 C2354 1.378 . S
C2356 C2357 1.367 . S
C2357 C2356 1.367 . S
C2357 C2359 1.433 . S
C2358 C2354 1.350 . S
C2358 C2355 1.463 . S
C2358 N2362 1.427 . S
C2359 H2349 0.929 . S
C2359 C2357 1.433 . S
C2359 N2362 1.384 . S
C2360 H2351 0.929 . S
C2360 C2352 1.378 . S
C2360 C2355 1.350 . S
C2361 H2348 0.929 . S
C2361 C2353 1.433 . S
C2361 N2363 1.384 . S
N2362 C2358 1.427 . S
N2362 C2359 1.384 . S
N2363 C2355 1.427 . S
N2363 C2361 1.384 . S
H2364 C2370 0.930 . S
H2365 C2374 0.930 . S
H2366 C2379 0.929 . S
H2367 C2377 0.929 . S
H2368 C2372 0.929 . S
H2369 C2378 0.929 . S
C2370 H2364 0.930 . S
C2370 C2371 1.367 . S
C2370 C2378 1.378 . S
C2371 C2370 1.367 . S
C2371 C2379 1.433 . S
C2372 H2368 0.929 . S
C2372 C2374 1.378 . S
C2372 C2376 1.350 . S
C2373 C2376 1.463 . S
C2373 C2378 1.350 . S
C2373 N2381 1.427 . S
C2374 H2365 0.930 . S
C2374 C2372 1.378 . S
C2374 C2375 1.367 . S
C2375 C2374 1.367 . S
C2375 C2377 1.433 . S
C2376 C2372 1.350 . S
C2376 C2373 1.463 . S
C2376 N2380 1.427 . S
C2377 H2367 0.929 . S
C2377 C2375 1.433 . S
C2377 N2380 1.384 . S
C2378 H2369 0.929 . S
C2378 C2370 1.378 . S
C2378 C2373 1.350 . S
C2379 H2366 0.929 . S
C2379 C2371 1.433 . S
C2379 N2381 1.384 . S
N2380 C2376 1.427 . S
N2380 C2377 1.384 . S
N2381 C2373 1.427 . S
N2381 C2379 1.384 . S
H2382 C2388 0.930 . S
H2383 C2392 0.930 . S
H2384 C2397 0.929 . S
H2385 C2395 0.929 . S
H2386 C2390 0.929 . S
H2387 C2396 0.929 . S
C2388 H2382 0.930 . S
C2388 C2389 1.367 . S
C2388 C2396 1.378 . S
C2389 C2388 1.367 . S
C2389 C2397 1.433 . S
C2390 H2386 0.929 . S
C2390 C2392 1.378 . S
C2390 C2394 1.350 . S
C2391 C2394 1.463 . S
C2391 C2396 1.350 . S
C2391 N2399 1.427 . S
C2392 H2383 0.930 . S
C2392 C2390 1.378 . S
C2392 C2393 1.367 . S
C2393 C2392 1.367 . S
C2393 C2395 1.433 . S
C2394 C2390 1.350 . S
C2394 C2391 1.463 . S
C2394 N2398 1.427 . S
C2395 H2385 0.929 . S
C2395 C2393 1.433 . S
C2395 N2398 1.384 . S
C2396 H2387 0.929 . S
C2396 C2388 1.378 . S
C2396 C2391 1.350 . S
C2397 H2384 0.929 . S
C2397 C2389 1.433 . S
C2397 N2399 1.384 . S
N2398 C2394 1.427 . S
N2398 C2395 1.384 . S
N2399 C2391 1.427 . S
N2399 C2397 1.384 . S
C679 C283 1.517 . S
C683 C3 1.517 . S
C697 C21 1.412 . S
C701 C245 1.412 . S
C715 C31 1.525 . S
C719 C259 1.452 . S
C733 C273 1.424 . S
C737 C49 1.422 . S
C751 C329 1.420 . S
C755 C63 1.417 . S
C769 C73 1.521 . S
C773 C301 1.439 . S
C787 C91 1.438 . S
C791 C311 1.508 . S
C805 C101 1.528 . S
C809 C227 1.525 . S
C823 C115 1.513 . S
C827 C213 1.512 . S
C841 C133 1.436 . S
C845 C175 1.437 . S
C859 C143 1.504 . S
C863 C185 1.500 . S
C877 C203 1.434 . S
C881 C161 1.439 . S
C895 C343 1.414 . S
C899 C623 1.412 . S
C913 C577 1.460 . S
C917 C353 1.458 . S
C931 C371 1.420 . S
C935 C591 1.481 . S
C949 C609 1.380 . S
C953 C381 1.458 . S
C967 C395 1.454 . S
C971 C661 1.459 . S
C985 C633 1.478 . S
C989 C413 1.413 . S
C1003 C423 1.449 . S
C1007 C651 1.390 . S
C1021 C567 1.405 . S
C1025 C441 1.421 . S
C1039 C455 1.397 . S
C1043 C553 1.391 . S
C1057 C507 1.468 . S
C1061 C465 1.471 . S
C1075 C525 1.397 . S
C1079 C483 1.381 . S
C1093 C535 1.475 . S
C1097 C493 1.476 . S
C1111 C367 1.151 . S
C1115 C7 1.091 . S
C1129 C17 1.144 . S
C1133 C385 1.112 . S
C1147 C35 1.109 . S
C1151 C339 1.143 . S
C1165 C45 1.162 . S
C1169 C357 1.121 . S
C1183 C59 1.140 . S
C1187 C427 1.111 . S
C1201 C437 1.157 . S
C1205 C77 1.099 . S
C1219 C399 1.093 . S
C1223 C87 1.142 . S
C1237 C409 1.149 . S
C1241 C105 1.089 . S
C1255 C511 1.113 . S
C1259 C119 1.089 . S
C1273 C129 1.139 . S
C1277 C521 1.148 . S
C1291 C539 1.095 . S
C1295 C147 1.108 . S
C1309 C157 1.141 . S
C1313 C549 1.150 . S
C1327 C171 1.149 . S
C1331 C451 1.143 . S
C1345 C189 1.111 . S
C1349 C469 1.099 . S
C1363 C479 1.150 . S
C1367 C199 1.145 . S
C1381 C497 1.118 . S
C1385 C217 1.097 . S
C1399 C231 1.095 . S
C1403 C605 1.143 . S
C1417 C241 1.141 . S
C1421 C637 1.106 . S
C1435 C647 1.147 . S
C1439 C255 1.141 . S
C1453 C563 1.143 . S
C1457 C269 1.146 . S
C1471 C287 1.095 . S
C1475 C665 1.118 . S
C1489 C581 1.120 . S
C1493 C297 1.158 . S
C1507 C315 1.095 . S
C1511 C595 1.122 . S
C1525 C325 1.143 . S
C1529 C619 1.143 . S
C1543 C400 1.710 . S
C1547 C9 1.642 . S
C1561 C415 1.638 . S
C1565 C22 1.718 . S
C1579 C428 1.713 . S
C1583 C37 1.647 . S
C1597 C50 1.714 . S
C1601 C443 1.633 . S
C1615 C345 1.639 . S
C1619 C64 1.716 . S
C1633 C358 1.709 . S
C1637 C79 1.658 . S
C1651 C92 1.711 . S
C1655 C373 1.645 . S
C1669 C386 1.704 . S
C1673 C107 1.653 . S
C1687 C121 1.654 . S
C1691 C540 1.709 . S
C1705 C134 1.714 . S
C1709 C555 1.647 . S
C1723 C512 1.704 . S
C1727 C149 1.658 . S
C1741 C162 1.716 . S
C1745 C527 1.636 . S
C1759 C485 1.652 . S
C1763 C176 1.712 . S
C1777 C191 1.656 . S
C1781 C498 1.706 . S
C1795 C204 1.713 . S
C1799 C457 1.645 . S
C1813 C219 1.655 . S
C1817 C470 1.705 . S
C1831 C638 1.706 . S
C1835 C233 1.646 . S
C1849 C246 1.716 . S
C1853 C611 1.654 . S
C1867 C260 1.706 . S
C1871 C625 1.635 . S
C1885 C274 1.698 . S
C1889 C582 1.701 . S
C1903 C596 1.710 . S
C1907 C289 1.642 . S
C1921 C569 1.657 . S
C1925 C302 1.723 . S
C1939 C666 1.724 . S
C1943 C317 1.679 . S
C1957 C330 1.719 . S
C1961 C653 1.644 . S
C1975 C218 1.505 . S
C1979 C8 1.505 . S
C1993 C23 1.388 . S
C1997 C177 1.388 . S
C2011 C190 1.489 . S
C2015 C36 1.491 . S
C2029 C205 1.382 . S
C2033 C51 1.383 . S
C2047 C135 1.398 . S
C2051 C65 1.401 . S
C2065 C78 1.497 . S
C2069 C148 1.495 . S
C2083 C93 1.387 . S
C2087 C163 1.386 . S
C2101 C120 1.504 . S
C2105 C106 1.504 . S
C2119 C232 1.502 . S
C2123 C288 1.502 . S
C2137 C331 1.401 . S
C2141 C247 1.406 . S
C2155 C303 1.391 . S
C2159 C261 1.389 . S
C2173 C275 1.416 . S
C2177 C316 1.511 . S
C2191 C554 1.465 . S
C2195 C344 1.461 . S
C2209 C513 1.353 . S
C2213 C359 1.355 . S
C2227 C372 1.462 . S
C2231 C526 1.466 . S
C2245 C541 1.365 . S
C2249 C387 1.364 . S
C2263 C471 1.362 . S
C2267 C401 1.366 . S
C2281 C414 1.464 . S
C2285 C484 1.468 . S
C2299 C429 1.355 . S
C2303 C499 1.357 . S
C2317 C442 1.466 . S
C2321 C456 1.467 . S
C2335 C568 1.461 . S
C2339 C624 1.462 . S
C2353 C667 1.354 . S
C2357 C583 1.359 . S
C2371 C639 1.366 . S
C2375 C597 1.364 . S
C2389 C652 1.463 . S
C2393 C610 1.457 . S
