# Generated by pormake.
# Topology lon, (4)-cn, num edge types: 1
# Building blocks:
#     Node 0, Type 0, BuildingBlock: ICAMEG_clean_sbu_1, # of connection points: 4
#     Node 1, Type 0, BuildingBlock: ICAMEG_clean_sbu_1, # of connection points: 4
#     Node 2, Type 0, BuildingBlock: ICAMEG_clean_sbu_1, # of connection points: 4
#     Node 3, Type 0, BuildingBlock: ICAMEG_clean_sbu_1, # of connection points: 4
#     Edge 4, Type (0, 0), BuildingBlock: OJICUG_clean_linker_0, # of connection points: 2
#     Edge 5, Type (0, 0), BuildingBlock: OJICUG_clean_linker_0, # of connection points: 2
#     Edge 6, Type (0, 0), BuildingBlock: OJICUG_clean_linker_0, # of connection points: 2
#     Edge 7, Type (0, 0), BuildingBlock: OJICUG_clean_linker_0, # of connection points: 2
#     Edge 8, Type (0, 0), BuildingBlock: OJICUG_clean_linker_0, # of connection points: 2
#     Edge 9, Type (0, 0), BuildingBlock: OJICUG_clean_linker_0, # of connection points: 2
#     Edge 10, Type (0, 0), BuildingBlock: OJICUG_clean_linker_0, # of connection points: 2
#     Edge 11, Type (0, 0), BuildingBlock: OJICUG_clean_linker_0, # of connection points: 2
# Relax obj value: 0.244
# Max RMSD: 0.267
# Mean RMSD: 0.258
data_MOF--net-lon--node1-ICAMEG_clean_sbu_1--edge1-OJICUG_clean_linker_0
_symmetry_space_group_name_H-M    P1
_symmetry_Int_Tables_number       1
_symmetry_cell_setting            triclinic
loop_
_symmetry_equiv_pos_as_xyz
'x, y, z'
_cell_length_a     16.412581
_cell_length_b     19.381096
_cell_length_c     33.051735
_cell_angle_alpha  94.315206
_cell_angle_beta   89.987984
_cell_angle_gamma 115.07855
loop_
_atom_site_label
_atom_site_type_symbol
_atom_site_fract_x
_atom_site_fract_y
_atom_site_fract_z
_atom_type_partial_charge
Co0 Co 0.39798 0.73252 0.02074 0.0
Co1 Co 0.38293 0.65786 0.11361 0.0
O2 O 0.41699 0.74503 0.08013 0.0
C3 C 0.58701 0.85458 0.03503 0.0
O4 O 0.5968 0.82472 0.06795 0.0
C5 C 0.27778 0.69241 0.17891 0.0
O6 O 0.20903 0.62825 0.1663 0.0
O7 O 0.25723 0.61245 0.08963 0.0
O8 O 0.27944 0.64262 0.02509 0.0
H9 H 0.23466 0.37969 0.13905 0.0
H10 H 0.43892 0.88168 0.06635 0.0
O11 O 0.51431 0.82348 1.01358 0.0
H12 H 0.15157 0.81449 0.99197 0.0
H13 H 0.40329 0.82322 0.88134 0.0
H14 H 0.33114 0.59907 0.95974 0.0
H15 H 0.22717 0.72834 0.98608 0.0
H16 H 0.42611 0.83921 0.95578 0.0
O17 O 0.34913 0.71654 0.15841 0.0
H18 H 0.28002 0.49029 0.0979 0.0
H19 H 0.41387 0.64098 0.20105 0.0
H20 H 0.30642 0.58046 0.88534 0.0
H21 H 0.36687 0.9705 0.07236 0.0
H22 H 0.34258 0.69307 0.84564 0.0
H23 H 0.22205 0.93709 0.03504 0.0
O24 O 0.46167 0.66457 1.01547 0.0
H25 H 0.66125 0.87033 0.17952 0.0
H26 H 0.52147 0.59899 0.12764 0.0
H27 H 0.67649 0.65523 0.15647 0.0
H28 H 0.74729 0.79183 0.18298 0.0
H29 H 0.50709 0.81215 0.14944 0.0
H30 H 0.36947 0.53212 0.24334 0.0
H31 H 0.2793 0.40029 0.21234 0.0
O32 O 0.41896 0.59852 0.07057 0.0
C33 C 0.22905 0.60636 0.05293 0.0
C34 C 0.27394 0.43686 0.1529 0.0
C35 C 0.34962 0.52239 0.21143 0.0
N36 N 0.34939 0.57207 0.147 0.0
C37 C 0.29985 0.49971 0.12975 0.0
C38 C 0.37446 0.58383 0.18732 0.0
C39 C 0.29901 0.44845 0.19402 0.0
C40 C 0.37603 0.86671 0.04992 0.0
N41 N 0.33726 0.79963 0.02591 0.0
C42 C 0.33544 0.91722 0.05353 0.0
C43 C 0.25417 0.89843 0.0326 0.0
C44 C 0.21456 0.82963 1.00847 0.0
C45 C 0.25729 0.78067 1.00549 0.0
C46 C 0.38715 0.77369 0.89831 0.0
C47 C 0.34656 0.64831 0.94269 0.0
C48 C 0.40019 0.78239 0.94048 0.0
N49 N 0.37936 0.72003 0.96215 0.0
C50 C 0.33265 0.63744 0.90056 0.0
C51 C 0.35304 0.70065 0.8783 0.0
C52 C 0.45654 0.61013 0.03631 0.0
C53 C 0.63114 0.81073 0.1681 0.0
C54 C 0.5522 0.65869 0.13835 0.0
C55 C 0.63984 0.69014 0.15501 0.0
C56 C 0.67944 0.76671 0.16996 0.0
N57 N 0.50519 0.7022 0.13657 0.0
C58 C 0.54364 0.77733 0.15121 0.0
Co59 Co 0.59256 0.32102 0.54204 0.0
Co60 Co 0.701 0.28552 0.62017 0.0
O61 O 0.62044 0.32794 0.60034 0.0
C62 C 0.61949 0.47918 0.5307 0.0
O63 O 0.68257 0.48214 0.50553 0.0
C64 C 0.56465 0.26565 0.68602 0.0
O65 O 0.5154 0.28625 0.66283 0.0
O66 O 0.61951 0.18374 0.5932 0.0
O67 O 0.60204 0.22085 0.53247 0.0
H68 H 0.8773 0.1276 0.60536 0.0
H69 H 0.4668 0.34571 0.59952 0.0
O70 O 0.58008 0.42018 0.55031 0.0
H71 H 0.28351 0.1045 0.51821 0.0
H72 H 0.42811 0.34636 0.41921 0.0
H73 H 0.67095 0.2835 0.46748 0.0
H74 H 0.44432 0.17662 0.50514 0.0
H75 H 0.45884 0.34938 0.49251 0.0
O76 O 0.63393 0.2592 0.67221 0.0
H77 H 0.77961 0.18536 0.58183 0.0
H78 H 0.78822 0.28995 0.70041 0.0
H79 H 0.64192 0.27904 0.39388 0.0
H80 H 0.30572 0.27601 0.61316 0.0
H81 H 0.51991 0.31084 0.36933 0.0
H82 H 0.21299 0.15429 0.57246 0.0
O83 O 0.72343 0.37742 0.53309 0.0
H84 H 0.77241 0.53673 0.7009 0.0
H85 H 0.90006 0.37872 0.6254 0.0
H86 H 1.00159 0.50636 0.65622 0.0
H87 H 0.93799 0.58613 0.69468 0.0
H88 H 0.67327 0.40977 0.66869 0.0
H89 H 0.8851 0.23263 0.72528 0.0
H90 H 0.93072 0.15112 0.67756 0.0
O91 O 0.77473 0.31151 0.57015 0.0
C92 C 0.59676 0.16907 0.55546 0.0
C93 C 0.85807 0.16318 0.62642 0.0
C94 C 0.86235 0.22202 0.69373 0.0
N95 N 0.77857 0.24135 0.63961 0.0
C96 C 0.80292 0.19618 0.61325 0.0
C97 C 0.80715 0.25409 0.67948 0.0
C98 C 0.88795 0.17633 0.66694 0.0
C99 C 0.42684 0.29301 0.58153 0.0
N100 N 0.46524 0.26517 0.55175 0.0
C101 C 0.33567 0.2537 0.58945 0.0
C102 C 0.2837 0.18538 0.56663 0.0
C103 C 0.32323 0.15738 0.53623 0.0
C104 C 0.41455 0.1983 0.52913 0.0
C105 C 0.48134 0.33222 0.42953 0.0
C106 C 0.61741 0.29697 0.45703 0.0
C107 C 0.4991 0.33385 0.471 0.0
N108 N 0.56654 0.31643 0.48428 0.0
C109 C 0.60137 0.29448 0.41532 0.0
C110 C 0.53291 0.31233 0.40156 0.0
C111 C 0.78603 0.35962 0.54392 0.0
C112 C 0.801 0.50228 0.68447 0.0
C113 C 0.87159 0.41303 0.64188 0.0
C114 C 0.92958 0.4853 0.65938 0.0
C115 C 0.89387 0.53003 0.68093 0.0
N116 N 0.78047 0.38576 0.64573 0.0
C117 C 0.74505 0.42986 0.66638 0.0
Co118 Co 0.2848 0.70495 0.49604 0.0
Co119 Co 0.42879 0.74009 0.41794 0.0
O120 O 0.30574 0.69766 0.43776 0.0
C121 C 0.15339 0.54693 0.50761 0.0
O122 O 0.21347 0.54411 0.53284 0.0
C123 C 0.31212 0.75912 0.35193 0.0
O124 O 0.2424 0.73888 0.37521 0.0
O125 O 0.44893 0.842 0.44468 0.0
O126 O 0.39455 0.80511 0.50548 0.0
H127 H 0.76306 0.89851 0.43268 0.0
H128 H 0.1343 0.67997 0.43854 0.0
O129 O 0.17304 0.6058 0.4879 0.0
H130 H 0.19262 0.92163 0.51943 0.0
H131 H 0.09509 0.68054 0.61888 0.0
H132 H 0.40077 0.74288 0.57059 0.0
H133 H 0.28117 0.84955 0.53269 0.0
H134 H 0.12273 0.67695 0.54558 0.0
O135 O 0.38796 0.76583 0.36575 0.0
H136 H 0.60754 0.84071 0.45621 0.0
H137 H 0.51173 0.73521 0.33777 0.0
H138 H 0.37628 0.74791 0.6442 0.0
H139 H 0.04306 0.74963 0.42472 0.0
H140 H 0.22248 0.71638 0.66875 0.0
H141 H 0.07225 0.87158 0.46521 0.0
O142 O 0.35919 0.64859 0.50512 0.0
H143 H 0.24915 0.48813 0.33779 0.0
H144 H 0.53493 0.6472 0.41302 0.0
H145 H 0.50897 0.51938 0.38257 0.0
H146 H 0.36552 0.43907 0.34425 0.0
H147 H 0.27684 0.61529 0.36963 0.0
H148 H 0.66602 0.79257 0.3129 0.0
H149 H 0.7931 0.87456 0.36055 0.0
O150 O 0.47655 0.71456 0.46811 0.0
C151 C 0.44092 0.85682 0.48241 0.0
C152 C 0.70828 0.86273 0.41165 0.0
C153 C 0.65382 0.80337 0.34441 0.0
N154 N 0.5506 0.78427 0.3985 0.0
C155 C 0.62008 0.8297 0.42483 0.0
C156 C 0.5665 0.77128 0.35866 0.0
C157 C 0.72508 0.84933 0.37117 0.0
C158 C 0.14713 0.73277 0.45643 0.0
N159 N 0.21341 0.76076 0.4862 0.0
C160 C 0.09535 0.77206 0.44841 0.0
C161 C 0.11181 0.8405 0.47111 0.0
C162 C 0.17938 0.86865 0.5015 0.0
C163 C 0.2297 0.82775 0.5087 0.0
C164 C 0.16245 0.69456 0.60856 0.0
C165 C 0.33376 0.72951 0.58105 0.0
C166 C 0.17854 0.6926 0.56709 0.0
N167 N 0.2634 0.70989 0.5538 0.0
C168 C 0.32026 0.73233 0.62276 0.0
C169 C 0.23394 0.71463 0.63652 0.0
C170 C 0.43966 0.66644 0.49433 0.0
C171 C 0.31222 0.52281 0.35416 0.0
C172 C 0.47213 0.61266 0.3966 0.0
C173 C 0.45792 0.54028 0.37932 0.0
C174 C 0.37745 0.49525 0.35784 0.0
N175 N 0.40817 0.63973 0.39262 0.0
C176 C 0.32862 0.59534 0.37204 0.0
Co177 Co 0.67573 0.28849 1.01714 0.0
Co178 Co 0.73562 0.36342 0.92428 0.0
O179 O 0.68229 0.2762 0.95773 0.0
C180 C 0.7429 0.16665 1.00268 0.0
O181 O 0.78236 0.19653 0.96972 0.0
C182 C 0.5958 0.32961 0.85918 0.0
O183 O 0.59152 0.39377 0.87199 0.0
O184 O 0.65579 0.40911 0.94844 0.0
O185 O 0.64685 0.37822 1.01288 0.0
H186 H 0.86668 0.64171 0.89906 0.0
H187 H 0.56777 0.13937 0.9714 0.0
O188 O 0.70133 0.19767 0.02421 0.0
H189 H 0.3471 0.20571 0.04588 0.0
H190 H 0.59023 0.19719 0.15643 0.0
H191 H 0.74197 0.42175 0.07826 0.0
H192 H 0.50884 0.29216 0.05181 0.0
H193 H 0.59722 0.18149 0.08199 0.0
O194 O 0.64283 0.30511 0.87952 0.0
H195 H 0.80109 0.53103 0.94014 0.0
H196 H 0.78325 0.38041 0.83681 0.0
H197 H 0.73569 0.44006 0.15267 0.0
H198 H 0.40692 0.05025 0.96535 0.0
H199 H 0.65937 0.32725 0.19226 0.0
H200 H 0.29526 0.08324 1.00272 0.0
O201 O 0.80739 0.35668 0.02249 0.0
H202 H 0.79988 0.1505 0.85795 0.0
H203 H 0.93298 0.42173 0.91007 0.0
H204 H 0.03115 0.3651 0.881 0.0
H205 H 0.96458 0.22856 0.85437 0.0
H206 H 0.70452 0.20906 0.88827 0.0
H207 H 0.84803 0.48935 0.79459 0.0
H208 H 0.89037 0.62119 0.82572 0.0
O209 O 0.83126 0.42242 0.96726 0.0
C210 C 0.63323 0.41483 0.98509 0.0
C211 C 0.84849 0.58454 0.88515 0.0
C212 C 0.83806 0.49904 0.82653 0.0
N213 N 0.78815 0.44928 0.89095 0.0
C214 C 0.81135 0.52164 0.90827 0.0
C215 C 0.80128 0.43756 0.8506 0.0
C216 C 0.86177 0.57299 0.844 0.0
C217 C 0.51974 0.15415 0.98785 0.0
N218 N 0.5479 0.22116 1.01192 0.0
C219 C 0.42865 0.10347 0.98423 0.0
C220 C 0.36603 0.12203 1.00518 0.0
C221 C 0.39507 0.19076 0.02936 0.0
C222 C 0.48674 0.23989 0.03236 0.0
C223 C 0.62356 0.24681 0.13951 0.0
C224 C 0.70821 0.37242 0.09526 0.0
C225 C 0.628 0.23828 0.09734 0.0
N226 N 0.66946 0.30075 0.07573 0.0
C227 C 0.70508 0.38312 0.13739 0.0
C228 C 0.66233 0.31979 0.15959 0.0
C229 C 0.85696 0.41096 1.0016 0.0
C230 C 0.82971 0.21007 0.86942 0.0
C231 C 0.90368 0.36205 0.8993 0.0
C232 C 0.95953 0.33039 0.88251 0.0
C233 C 0.92212 0.25384 0.86749 0.0
N234 N 0.81308 0.31879 0.90115 0.0
C235 C 0.77597 0.24369 0.88645 0.0
C236 C 0.36616 0.77287 0.24067 0.0
C237 C 0.28246 0.72407 0.22176 0.0
H238 H 0.44107 0.82237 0.29662 0.0
C239 C 0.20618 0.69695 0.24582 0.0
H240 H 0.42649 0.79499 0.22325 0.0
C241 C 0.21452 0.71356 0.28807 0.0
C242 C 0.29952 0.75678 0.30723 0.0
H243 H 0.14066 0.65948 0.23229 0.0
H244 H 0.15523 0.68812 0.30588 0.0
C245 C 0.37466 0.78849 0.28288 0.0
C246 C 0.51215 0.31023 0.75004 0.0
C247 C 0.55392 0.2672 0.73069 0.0
H248 H 0.49214 0.36353 0.80604 0.0
C249 C 0.59694 0.23493 0.75486 0.0
H250 H 0.47863 0.33609 0.73237 0.0
C251 C 0.60373 0.24985 0.79712 0.0
C252 C 0.56892 0.29851 0.81625 0.0
H253 H 0.62941 0.20116 0.74096 0.0
H254 H 0.64168 0.22734 0.81441 0.0
C255 C 0.5201 0.32614 0.79234 0.0
C256 C 0.53794 0.56393 0.98309 0.0
C257 C 0.49905 0.55894 0.02144 0.0
H258 H 0.61017 0.52205 0.94111 0.0
C259 C 0.50374 0.50552 0.04675 0.0
H260 H 0.53545 0.60423 0.96269 0.0
C261 C 0.54826 0.46043 0.03495 0.0
C262 C 0.58718 0.46488 0.99675 0.0
H263 H 0.47392 0.49875 0.07623 0.0
H264 H 0.55199 0.422 0.05618 0.0
C265 C 0.58089 0.51689 0.97073 0.0
C266 C 0.03621 0.42497 0.53026 0.0
C267 C 0.05814 0.49079 0.50944 0.0
H268 H 0.93324 0.33091 0.55655 0.0
C269 C 0.98797 0.50707 0.49513 0.0
H270 H 0.08848 0.4103 0.54135 0.0
C271 C 0.89854 0.46181 0.50422 0.0
C272 C 0.87738 0.39919 0.52769 0.0
H273 H 1.00243 0.5573 0.47893 0.0
H274 H 0.84678 0.4783 0.49456 0.0
C275 C 0.94695 0.37951 0.53908 0.0
C276 C 0.7199 0.06758 0.05094 0.0
C277 C 0.72729 0.08821 1.01075 0.0
H278 H 0.67236 0.97626 0.09021 0.0
C279 C 0.7025 0.0307 0.97869 0.0
H280 H 0.73798 0.11101 0.07617 0.0
C281 C 0.66279 0.95367 0.98673 0.0
C282 C 0.64977 0.93304 0.02693 0.0
H283 H 0.70634 0.04501 0.94746 0.0
H284 H 0.63733 0.91025 0.9615 0.0
C285 C 0.68265 0.99056 0.05898 0.0
C286 C 0.62449 0.60123 0.50815 0.0
C287 C 0.58043 0.53532 0.52889 0.0
H288 H 0.61575 0.69534 0.48189 0.0
C289 C 0.49387 0.51895 0.54311 0.0
H290 H 0.69151 0.61596 0.49712 0.0
C291 C 0.44976 0.5642 0.53401 0.0
C292 C 0.49139 0.62691 0.5106 0.0
H293 H 0.45797 0.46865 0.55926 0.0
H294 H 0.38143 0.54763 0.5436 0.0
C295 C 0.58074 0.64668 0.49931 0.0
C296 C 0.07435 0.5046 0.06737 0.0
C297 C 0.13292 0.55626 0.04126 0.0
H298 H 0.94132 0.41748 0.07545 0.0
C299 C 0.09871 0.5603 1.00293 0.0
H300 H 0.09827 0.49975 0.09709 0.0
C301 C 1.0091 0.5152 0.9911 0.0
C302 C 0.9507 0.46213 1.0165 0.0
H303 H 0.14108 0.59843 0.98162 0.0
H304 H 0.98627 0.52169 0.96152 0.0
C305 C 0.98433 0.45751 0.05497 0.0
C306 C 0.55588 0.07392 0.49436 0.0
C307 C 0.56291 0.08917 0.5369 0.0
H308 H 0.51323 0.98912 0.44379 0.0
C309 C 0.5336 0.02726 0.56121 0.0
H310 H 0.57811 0.1202 0.47463 0.0
C311 C 0.49554 0.95203 0.54345 0.0
C312 C 0.48689 0.93677 0.5009 0.0
H313 H 0.53784 0.0368 0.59401 0.0
H314 H 0.47196 0.90575 0.56318 0.0
C315 C 0.5189 0.99868 0.47659 0.0
loop_
_geom_bond_atom_site_label_1
_geom_bond_atom_site_label_2
_geom_bond_distance
_geom_bond_site_symmetry_2
_ccdc_geom_bond_type
Co0 O2 2.143 . S
Co0 O8 2.074 . S
Co0 O11 2.093 . S
Co0 O24 2.097 . S
Co0 N41 2.151 . S
Co0 N49 2.214 1_554 S
Co1 O2 2.160 . S
Co1 O7 2.058 . S
Co1 O17 2.057 . S
Co1 O32 2.037 . S
Co1 N36 2.145 . S
Co1 N57 2.257 . S
O2 Co0 2.143 . S
O2 Co1 2.160 . S
C3 O4 1.278 . S
C3 O11 1.224 . S
O4 C3 1.278 . S
C5 O6 1.245 . S
C5 O17 1.232 . S
O6 C5 1.245 . S
O7 Co1 2.058 . S
O7 C33 1.269 . S
O8 Co0 2.074 . S
O8 C33 1.257 . S
H9 C34 0.930 . S
H10 C40 0.930 . S
O11 Co0 2.093 . S
O11 C3 1.224 . S
H12 C44 0.929 1_556 S
H13 C46 0.930 . S
H14 C47 0.930 . S
H15 C45 0.929 1_556 S
H16 C48 0.928 . S
O17 Co1 2.057 . S
O17 C5 1.232 . S
H18 C37 0.929 . S
H19 C38 0.929 . S
H20 C50 0.931 . S
H21 C42 0.929 . S
H22 C51 0.930 . S
H23 C43 0.931 . S
O24 Co0 2.097 . S
O24 C52 1.214 . S
H25 C53 0.929 . S
H26 C54 0.929 . S
H27 C55 0.930 . S
H28 C56 0.929 . S
H29 C58 0.930 . S
H30 C35 0.930 . S
H31 C39 0.930 . S
O32 Co1 2.037 . S
O32 C52 1.234 . S
C33 O7 1.269 . S
C33 O8 1.257 . S
C34 H9 0.930 . S
C34 C37 1.388 . S
C34 C39 1.418 . S
C35 H30 0.930 . S
C35 C38 1.404 . S
C35 C39 1.353 . S
N36 Co1 2.145 . S
N36 C37 1.397 . S
N36 C38 1.334 . S
C37 H18 0.929 . S
C37 C34 1.388 . S
C37 N36 1.397 . S
C38 H19 0.929 . S
C38 C35 1.404 . S
C38 N36 1.334 . S
C39 H31 0.930 . S
C39 C34 1.418 . S
C39 C35 1.353 . S
C40 H10 0.930 . S
C40 N41 1.330 . S
C40 C42 1.446 . S
N41 Co0 2.151 . S
N41 C40 1.330 . S
N41 C45 1.418 . S
C42 H21 0.929 . S
C42 C40 1.446 . S
C42 C43 1.332 . S
C43 H23 0.931 . S
C43 C42 1.332 . S
C43 C44 1.267 . S
C44 H12 0.929 1_554 S
C44 C43 1.267 . S
C44 C45 1.251 . S
C45 H15 0.929 1_554 S
C45 N41 1.418 . S
C45 C44 1.251 . S
C46 H13 0.930 . S
C46 C48 1.406 . S
C46 C51 1.261 . S
C47 H14 0.930 . S
C47 N49 1.325 . S
C47 C50 1.357 . S
C48 H16 0.928 . S
C48 C46 1.406 . S
C48 N49 1.261 . S
N49 Co0 2.214 1_556 S
N49 C47 1.325 . S
N49 C48 1.261 . S
C50 H20 0.931 . S
C50 C47 1.357 . S
C50 C51 1.312 . S
C51 H22 0.930 . S
C51 C46 1.261 . S
C51 C50 1.312 . S
C52 O24 1.214 . S
C52 O32 1.234 . S
C53 H25 0.929 . S
C53 C56 1.391 . S
C53 C58 1.391 . S
C54 H26 0.929 . S
C54 C55 1.390 . S
C54 N57 1.391 . S
C55 H27 0.930 . S
C55 C54 1.390 . S
C55 C56 1.392 . S
C56 H28 0.929 . S
C56 C53 1.391 . S
C56 C55 1.392 . S
N57 Co1 2.257 . S
N57 C54 1.391 . S
N57 C58 1.388 . S
C58 H29 0.930 . S
C58 C53 1.391 . S
C58 N57 1.388 . S
Co59 O61 2.143 . S
Co59 O67 2.074 . S
Co59 O70 2.093 . S
Co59 O83 2.097 . S
Co59 N100 2.151 . S
Co59 N108 2.214 . S
Co60 O61 2.160 . S
Co60 O66 2.058 . S
Co60 O76 2.057 . S
Co60 O91 2.037 . S
Co60 N95 2.145 . S
Co60 N116 2.257 . S
O61 Co59 2.143 . S
O61 Co60 2.160 . S
C62 O63 1.278 . S
C62 O70 1.224 . S
O63 C62 1.278 . S
C64 O65 1.245 . S
C64 O76 1.232 . S
O65 C64 1.245 . S
O66 Co60 2.058 . S
O66 C92 1.269 . S
O67 Co59 2.074 . S
O67 C92 1.257 . S
H68 C93 0.930 . S
H69 C99 0.930 . S
O70 Co59 2.093 . S
O70 C62 1.224 . S
H71 C103 0.929 . S
H72 C105 0.930 . S
H73 C106 0.930 . S
H74 C104 0.929 . S
H75 C107 0.928 . S
O76 Co60 2.057 . S
O76 C64 1.232 . S
H77 C96 0.929 . S
H78 C97 0.929 . S
H79 C109 0.931 . S
H80 C101 0.929 . S
H81 C110 0.930 . S
H82 C102 0.931 . S
O83 Co59 2.097 . S
O83 C111 1.214 . S
H84 C112 0.929 . S
H85 C113 0.929 . S
H86 C114 0.930 . S
H87 C115 0.929 . S
H88 C117 0.930 . S
H89 C94 0.930 . S
H90 C98 0.930 1_455 S
O91 Co60 2.037 . S
O91 C111 1.234 . S
C92 O66 1.269 . S
C92 O67 1.257 . S
C93 H68 0.930 . S
C93 C96 1.388 . S
C93 C98 1.418 . S
C94 H89 0.930 . S
C94 C97 1.404 . S
C94 C98 1.353 . S
N95 Co60 2.145 . S
N95 C96 1.397 . S
N95 C97 1.334 . S
C96 H77 0.929 . S
C96 C93 1.388 . S
C96 N95 1.397 . S
C97 H78 0.929 . S
C97 C94 1.404 . S
C97 N95 1.334 . S
C98 H90 0.930 1_655 S
C98 C93 1.418 . S
C98 C94 1.353 . S
C99 H69 0.930 . S
C99 N100 1.330 . S
C99 C101 1.446 . S
N100 Co59 2.151 . S
N100 C99 1.330 . S
N100 C104 1.418 . S
C101 H80 0.929 . S
C101 C99 1.446 . S
C101 C102 1.332 . S
C102 H82 0.931 . S
C102 C101 1.332 . S
C102 C103 1.267 . S
C103 H71 0.929 . S
C103 C102 1.267 . S
C103 C104 1.251 . S
C104 H74 0.929 . S
C104 N100 1.418 . S
C104 C103 1.251 . S
C105 H72 0.930 . S
C105 C107 1.406 . S
C105 C110 1.261 . S
C106 H73 0.930 . S
C106 N108 1.325 . S
C106 C109 1.357 . S
C107 H75 0.928 . S
C107 C105 1.406 . S
C107 N108 1.261 . S
N108 Co59 2.214 . S
N108 C106 1.325 . S
N108 C107 1.261 . S
C109 H79 0.931 . S
C109 C106 1.357 . S
C109 C110 1.312 . S
C110 H81 0.930 . S
C110 C105 1.261 . S
C110 C109 1.312 . S
C111 O83 1.214 . S
C111 O91 1.234 . S
C112 H84 0.929 . S
C112 C115 1.391 . S
C112 C117 1.391 . S
C113 H85 0.929 . S
C113 C114 1.390 . S
C113 N116 1.391 . S
C114 H86 0.930 . S
C114 C113 1.390 . S
C114 C115 1.392 . S
C115 H87 0.929 . S
C115 C112 1.391 . S
C115 C114 1.392 . S
N116 Co60 2.257 . S
N116 C113 1.391 . S
N116 C117 1.388 . S
C117 H88 0.930 . S
C117 C112 1.391 . S
C117 N116 1.388 . S
Co118 O120 2.143 . S
Co118 O126 2.074 . S
Co118 O129 2.093 . S
Co118 O142 2.097 . S
Co118 N159 2.151 . S
Co118 N167 2.214 . S
Co119 O120 2.160 . S
Co119 O125 2.058 . S
Co119 O135 2.057 . S
Co119 O150 2.037 . S
Co119 N154 2.145 . S
Co119 N175 2.257 . S
O120 Co118 2.143 . S
O120 Co119 2.160 . S
C121 O122 1.278 . S
C121 O129 1.224 . S
O122 C121 1.278 . S
C123 O124 1.245 . S
C123 O135 1.232 . S
O124 C123 1.245 . S
O125 Co119 2.058 . S
O125 C151 1.269 . S
O126 Co118 2.074 . S
O126 C151 1.257 . S
H127 C152 0.930 . S
H128 C158 0.930 . S
O129 Co118 2.093 . S
O129 C121 1.224 . S
H130 C162 0.929 . S
H131 C164 0.930 . S
H132 C165 0.930 . S
H133 C163 0.929 . S
H134 C166 0.928 . S
O135 Co119 2.057 . S
O135 C123 1.232 . S
H136 C155 0.929 . S
H137 C156 0.929 . S
H138 C168 0.931 . S
H139 C160 0.929 . S
H140 C169 0.930 . S
H141 C161 0.931 . S
O142 Co118 2.097 . S
O142 C170 1.214 . S
H143 C171 0.929 . S
H144 C172 0.929 . S
H145 C173 0.930 . S
H146 C174 0.929 . S
H147 C176 0.930 . S
H148 C153 0.930 . S
H149 C157 0.930 . S
O150 Co119 2.037 . S
O150 C170 1.234 . S
C151 O125 1.269 . S
C151 O126 1.257 . S
C152 H127 0.930 . S
C152 C155 1.388 . S
C152 C157 1.418 . S
C153 H148 0.930 . S
C153 C156 1.404 . S
C153 C157 1.353 . S
N154 Co119 2.145 . S
N154 C155 1.397 . S
N154 C156 1.334 . S
C155 H136 0.929 . S
C155 C152 1.388 . S
C155 N154 1.397 . S
C156 H137 0.929 . S
C156 C153 1.404 . S
C156 N154 1.334 . S
C157 H149 0.930 . S
C157 C152 1.418 . S
C157 C153 1.353 . S
C158 H128 0.930 . S
C158 N159 1.330 . S
C158 C160 1.446 . S
N159 Co118 2.151 . S
N159 C158 1.330 . S
N159 C163 1.418 . S
C160 H139 0.929 . S
C160 C158 1.446 . S
C160 C161 1.332 . S
C161 H141 0.931 . S
C161 C160 1.332 . S
C161 C162 1.267 . S
C162 H130 0.929 . S
C162 C161 1.267 . S
C162 C163 1.251 . S
C163 H133 0.929 . S
C163 N159 1.418 . S
C163 C162 1.251 . S
C164 H131 0.930 . S
C164 C166 1.406 . S
C164 C169 1.261 . S
C165 H132 0.930 . S
C165 N167 1.325 . S
C165 C168 1.357 . S
C166 H134 0.928 . S
C166 C164 1.406 . S
C166 N167 1.261 . S
N167 Co118 2.214 . S
N167 C165 1.325 . S
N167 C166 1.261 . S
C168 H138 0.931 . S
C168 C165 1.357 . S
C168 C169 1.312 . S
C169 H140 0.930 . S
C169 C164 1.261 . S
C169 C168 1.312 . S
C170 O142 1.214 . S
C170 O150 1.234 . S
C171 H143 0.929 . S
C171 C174 1.391 . S
C171 C176 1.391 . S
C172 H144 0.929 . S
C172 C173 1.390 . S
C172 N175 1.391 . S
C173 H145 0.930 . S
C173 C172 1.390 . S
C173 C174 1.392 . S
C174 H146 0.929 . S
C174 C171 1.391 . S
C174 C173 1.392 . S
N175 Co119 2.257 . S
N175 C172 1.391 . S
N175 C176 1.388 . S
C176 H147 0.930 . S
C176 C171 1.391 . S
C176 N175 1.388 . S
Co177 O179 2.143 . S
Co177 O185 2.074 . S
Co177 O188 2.093 . S
Co177 O201 2.097 . S
Co177 N218 2.151 . S
Co177 N226 2.214 1_556 S
Co178 O179 2.160 . S
Co178 O184 2.058 . S
Co178 O194 2.057 . S
Co178 O209 2.037 . S
Co178 N213 2.145 . S
Co178 N234 2.257 . S
O179 Co177 2.143 . S
O179 Co178 2.160 . S
C180 O181 1.278 . S
C180 O188 1.224 . S
O181 C180 1.278 . S
C182 O183 1.245 . S
C182 O194 1.232 . S
O183 C182 1.245 . S
O184 Co178 2.058 . S
O184 C210 1.269 . S
O185 Co177 2.074 . S
O185 C210 1.257 . S
H186 C211 0.930 . S
H187 C217 0.930 . S
O188 Co177 2.093 . S
O188 C180 1.224 . S
H189 C221 0.929 1_554 S
H190 C223 0.930 . S
H191 C224 0.930 . S
H192 C222 0.929 1_554 S
H193 C225 0.928 . S
O194 Co178 2.057 . S
O194 C182 1.232 . S
H195 C214 0.929 . S
H196 C215 0.929 . S
H197 C227 0.931 . S
H198 C219 0.929 . S
H199 C228 0.930 . S
H200 C220 0.931 . S
O201 Co177 2.097 . S
O201 C229 1.214 . S
H202 C230 0.929 . S
H203 C231 0.929 . S
H204 C232 0.930 1_455 S
H205 C233 0.929 . S
H206 C235 0.930 . S
H207 C212 0.930 . S
H208 C216 0.930 . S
O209 Co178 2.037 . S
O209 C229 1.234 . S
C210 O184 1.269 . S
C210 O185 1.257 . S
C211 H186 0.930 . S
C211 C214 1.388 . S
C211 C216 1.418 . S
C212 H207 0.930 . S
C212 C215 1.404 . S
C212 C216 1.353 . S
N213 Co178 2.145 . S
N213 C214 1.397 . S
N213 C215 1.334 . S
C214 H195 0.929 . S
C214 C211 1.388 . S
C214 N213 1.397 . S
C215 H196 0.929 . S
C215 C212 1.404 . S
C215 N213 1.334 . S
C216 H208 0.930 . S
C216 C211 1.418 . S
C216 C212 1.353 . S
C217 H187 0.930 . S
C217 N218 1.330 . S
C217 C219 1.446 . S
N218 Co177 2.151 . S
N218 C217 1.330 . S
N218 C222 1.418 . S
C219 H198 0.929 . S
C219 C217 1.446 . S
C219 C220 1.332 . S
C220 H200 0.931 . S
C220 C219 1.332 . S
C220 C221 1.267 . S
C221 H189 0.929 1_556 S
C221 C220 1.267 . S
C221 C222 1.251 . S
C222 H192 0.929 1_556 S
C222 N218 1.418 . S
C222 C221 1.251 . S
C223 H190 0.930 . S
C223 C225 1.406 . S
C223 C228 1.261 . S
C224 H191 0.930 . S
C224 N226 1.325 . S
C224 C227 1.357 . S
C225 H193 0.928 . S
C225 C223 1.406 . S
C225 N226 1.261 . S
N226 Co177 2.214 1_554 S
N226 C224 1.325 . S
N226 C225 1.261 . S
C227 H197 0.931 . S
C227 C224 1.357 . S
C227 C228 1.312 . S
C228 H199 0.930 . S
C228 C223 1.261 . S
C228 C227 1.312 . S
C229 O201 1.214 . S
C229 O209 1.234 . S
C230 H202 0.929 . S
C230 C233 1.391 . S
C230 C235 1.391 . S
C231 H203 0.929 . S
C231 C232 1.390 . S
C231 N234 1.391 . S
C232 H204 0.930 1_655 S
C232 C231 1.390 . S
C232 C233 1.392 . S
C233 H205 0.929 . S
C233 C230 1.391 . S
C233 C232 1.392 . S
N234 Co178 2.257 . S
N234 C231 1.391 . S
N234 C235 1.388 . S
C235 H206 0.930 . S
C235 C230 1.391 . S
C235 N234 1.388 . S
C236 C237 1.387 . S
C236 H240 0.950 . S
C236 C245 1.390 . S
C237 C236 1.387 . S
C237 C239 1.387 . S
H238 C245 0.950 . S
C239 C237 1.387 . S
C239 C241 1.390 . S
C239 H243 0.950 . S
H240 C236 0.950 . S
C241 C239 1.390 . S
C241 C242 1.387 . S
C241 H244 0.950 . S
C242 C241 1.387 . S
C242 C245 1.387 . S
H243 C239 0.950 . S
H244 C241 0.950 . S
C245 C236 1.390 . S
C245 H238 0.950 . S
C245 C242 1.387 . S
C246 C247 1.387 . S
C246 H250 0.950 . S
C246 C255 1.390 . S
C247 C246 1.387 . S
C247 C249 1.387 . S
H248 C255 0.950 . S
C249 C247 1.387 . S
C249 C251 1.390 . S
C249 H253 0.950 . S
H250 C246 0.950 . S
C251 C249 1.390 . S
C251 C252 1.387 . S
C251 H254 0.950 . S
C252 C251 1.387 . S
C252 C255 1.387 . S
H253 C249 0.950 . S
H254 C251 0.950 . S
C255 C246 1.390 . S
C255 H248 0.950 . S
C255 C252 1.387 . S
C256 C257 1.387 . S
C256 H260 0.950 . S
C256 C265 1.390 . S
C257 C256 1.387 . S
C257 C259 1.387 1_556 S
H258 C265 0.950 . S
C259 C257 1.387 1_554 S
C259 C261 1.397 . S
C259 H263 0.950 . S
H260 C256 0.950 . S
C261 C259 1.397 . S
C261 C262 1.367 1_554 S
C261 H264 0.964 . S
C262 C261 1.367 1_556 S
C262 C265 1.387 . S
H263 C259 0.950 . S
H264 C261 0.964 . S
C265 C256 1.390 . S
C265 H258 0.950 . S
C265 C262 1.387 . S
C266 C267 1.387 . S
C266 H270 0.950 . S
C266 C275 1.390 1_455 S
C267 C266 1.387 . S
C267 C269 1.387 1_455 S
H268 C275 0.950 . S
C269 C267 1.387 1_655 S
C269 C271 1.390 . S
C269 H273 0.949 . S
H270 C266 0.950 . S
C271 C269 1.390 . S
C271 C272 1.387 . S
C271 H274 0.950 . S
C272 C271 1.387 . S
C272 C275 1.387 . S
H273 C269 0.949 . S
H274 C271 0.950 . S
C275 C266 1.390 1_655 S
C275 H268 0.950 . S
C275 C272 1.387 . S
C276 C277 1.387 1_554 S
C276 H280 0.950 . S
C276 C285 1.390 . S
C277 C276 1.387 1_556 S
C277 C279 1.387 1_545 S
H278 C285 0.950 . S
C279 C277 1.387 1_565 S
C279 C281 1.390 . S
C279 H283 0.950 . S
H280 C276 0.950 . S
C281 C279 1.390 . S
C281 C282 1.387 1_556 S
C281 H284 0.950 . S
C282 C281 1.387 1_554 S
C282 C285 1.387 1_565 S
H283 C279 0.950 . S
H284 C281 0.950 . S
C285 C276 1.390 . S
C285 H278 0.950 . S
C285 C282 1.387 1_545 S
C286 C287 1.387 . S
C286 H290 0.950 . S
C286 C295 1.390 . S
C287 C286 1.387 . S
C287 C289 1.387 . S
H288 C295 0.950 . S
C289 C287 1.387 . S
C289 C291 1.390 . S
C289 H293 0.950 . S
H290 C286 0.950 . S
C291 C289 1.390 . S
C291 C292 1.387 . S
C291 H294 0.950 . S
C292 C291 1.387 . S
C292 C295 1.387 . S
H293 C289 0.950 . S
H294 C291 0.950 . S
C295 C286 1.390 . S
C295 H288 0.950 . S
C295 C292 1.387 . S
C296 C297 1.387 . S
C296 H300 0.950 . S
C296 C305 1.390 1_455 S
C297 C296 1.387 . S
C297 C299 1.387 1_554 S
H298 C305 0.950 . S
C299 C297 1.387 1_556 S
C299 C301 1.390 1_455 S
C299 H303 0.950 . S
H300 C296 0.950 . S
C301 C299 1.390 1_655 S
C301 C302 1.387 1_556 S
C301 H304 0.950 . S
C302 C301 1.387 1_554 S
C302 C305 1.387 . S
H303 C299 0.950 . S
H304 C301 0.950 . S
C305 C296 1.390 1_655 S
C305 H298 0.950 . S
C305 C302 1.387 . S
C306 C307 1.387 . S
C306 H310 0.950 . S
C306 C315 1.390 1_545 S
C307 C306 1.387 . S
C307 C309 1.387 . S
H308 C315 0.950 . S
C309 C307 1.387 . S
C309 C311 1.390 1_545 S
C309 H313 0.950 . S
H310 C306 0.950 . S
C311 C309 1.390 1_565 S
C311 C312 1.387 . S
C311 H314 0.950 . S
C312 C311 1.387 . S
C312 C315 1.387 . S
H313 C309 0.950 . S
H314 C311 0.950 . S
C315 C306 1.390 1_565 S
C315 H308 0.950 . S
C315 C312 1.387 . S
C237 C5 1.613 . S
C242 C123 1.615 . S
C247 C64 1.615 . S
C252 C182 1.614 . S
C257 C52 1.709 1_556 S
C262 C210 1.724 . S
C267 C121 1.537 . S
C272 C111 1.519 . S
C277 C180 1.414 . S
C282 C3 1.414 . S
C287 C62 1.536 . S
C292 C170 1.520 . S
C297 C33 1.724 . S
C302 C229 1.708 1_554 S
C307 C92 1.895 . S
C312 C151 1.895 . S
