# Generated by pormake.
# Topology upa, (4)-cn, num edge types: 1
# Building blocks:
#     Node 0, Type 0, BuildingBlock: ICAMEG_clean_sbu_1, # of connection points: 4
#     Node 1, Type 0, BuildingBlock: ICAMEG_clean_sbu_1, # of connection points: 4
#     Node 2, Type 0, BuildingBlock: ICAMEG_clean_sbu_1, # of connection points: 4
#     Node 3, Type 0, BuildingBlock: ICAMEG_clean_sbu_1, # of connection points: 4
#     Node 4, Type 0, BuildingBlock: ICAMEG_clean_sbu_1, # of connection points: 4
#     Node 5, Type 0, BuildingBlock: ICAMEG_clean_sbu_1, # of connection points: 4
#     Node 6, Type 0, BuildingBlock: ICAMEG_clean_sbu_1, # of connection points: 4
#     Node 7, Type 0, BuildingBlock: ICAMEG_clean_sbu_1, # of connection points: 4
#     Edge 8, Type (0, 0), BuildingBlock: XIVTED_clean_linker_0, # of connection points: 2
#     Edge 9, Type (0, 0), BuildingBlock: XIVTED_clean_linker_0, # of connection points: 2
#     Edge 10, Type (0, 0), BuildingBlock: XIVTED_clean_linker_0, # of connection points: 2
#     Edge 11, Type (0, 0), BuildingBlock: XIVTED_clean_linker_0, # of connection points: 2
#     Edge 12, Type (0, 0), BuildingBlock: XIVTED_clean_linker_0, # of connection points: 2
#     Edge 13, Type (0, 0), BuildingBlock: XIVTED_clean_linker_0, # of connection points: 2
#     Edge 14, Type (0, 0), BuildingBlock: XIVTED_clean_linker_0, # of connection points: 2
#     Edge 15, Type (0, 0), BuildingBlock: XIVTED_clean_linker_0, # of connection points: 2
#     Edge 16, Type (0, 0), BuildingBlock: XIVTED_clean_linker_0, # of connection points: 2
#     Edge 17, Type (0, 0), BuildingBlock: XIVTED_clean_linker_0, # of connection points: 2
#     Edge 18, Type (0, 0), BuildingBlock: XIVTED_clean_linker_0, # of connection points: 2
#     Edge 19, Type (0, 0), BuildingBlock: XIVTED_clean_linker_0, # of connection points: 2
#     Edge 20, Type (0, 0), BuildingBlock: XIVTED_clean_linker_0, # of connection points: 2
#     Edge 21, Type (0, 0), BuildingBlock: XIVTED_clean_linker_0, # of connection points: 2
#     Edge 22, Type (0, 0), BuildingBlock: XIVTED_clean_linker_0, # of connection points: 2
#     Edge 23, Type (0, 0), BuildingBlock: XIVTED_clean_linker_0, # of connection points: 2
# Relax obj value: 0.137
# Max RMSD: 0.082
# Mean RMSD: 0.082
data_MOF--net-upa--node1-ICAMEG_clean_sbu_1--edge1-XIVTED_clean_linker_0
_symmetry_space_group_name_H-M    P1
_symmetry_Int_Tables_number       1
_symmetry_cell_setting            triclinic
loop_
_symmetry_equiv_pos_as_xyz
'x, y, z'
_cell_length_a     26.315544
_cell_length_b     26.306931
_cell_length_c     51.031028
_cell_angle_alpha  89.995132
_cell_angle_beta   90.008353
_cell_angle_gamma 90.008527
loop_
_atom_site_label
_atom_site_type_symbol
_atom_site_fract_x
_atom_site_fract_y
_atom_site_fract_z
_atom_type_partial_charge
Co0 Co 0.15731 0.2485 0.35218 0.0
Co1 Co 0.21714 0.16029 0.31194 0.0
O2 O 0.21812 0.21649 0.33729 0.0
C3 C 0.21109 0.21156 0.39935 0.0
O4 O 0.22036 0.16927 0.38656 0.0
C5 C 0.29056 0.2376 0.28971 0.0
O6 O 0.26573 0.2749 0.30097 0.0
O7 O 0.16407 0.19504 0.28979 0.0
O8 O 0.12448 0.24925 0.31716 0.0
H9 H 0.13355 0.02897 0.25482 0.0
H10 H 0.25795 0.29441 0.36304 0.0
O11 O 0.18815 0.24805 0.38803 0.0
H12 H 0.16086 0.42702 0.31658 0.0
H13 H 0.06365 0.37145 0.4104 0.0
H14 H 0.04632 0.23472 0.3449 0.0
H15 H 0.12191 0.34385 0.32632 0.0
H16 H 0.13963 0.33104 0.39127 0.0
O17 O 0.27387 0.19217 0.29112 0.0
H18 H 0.13591 0.09945 0.28665 0.0
H19 H 0.29721 0.10067 0.28393 0.0
H20 H 0.96935 0.27442 0.36336 0.0
H21 H 0.2982 0.37734 0.35409 0.0
H22 H 0.97775 0.34329 0.39638 0.0
H23 H 0.24963 0.44422 0.33057 0.0
O24 O 0.12533 0.18117 0.35966 0.0
H25 H 0.37639 0.14991 0.36623 0.0
H26 H 0.22938 0.05452 0.3321 0.0
H27 H 0.29161 0.01096 0.36036 0.0
H28 H 0.36589 0.05871 0.37758 0.0
H29 H 0.3129 0.19211 0.33821 0.0
H30 H 0.29658 0.03057 0.25188 0.0
H31 H 0.21432 0.99411 0.23716 0.0
O32 O 0.16247 0.12576 0.33216 0.0
C33 C 0.12925 0.22753 0.29498 0.0
C34 C 0.16964 0.04457 0.26105 0.0
C35 C 0.26113 0.04553 0.25937 0.0
N36 N 0.21661 0.10441 0.28706 0.0
C37 C 0.17122 0.08449 0.27908 0.0
C38 C 0.26123 0.08545 0.27742 0.0
C39 C 0.21496 0.02505 0.25114 0.0
C40 C 0.23644 0.32352 0.35302 0.0
N41 N 0.18771 0.31426 0.34512 0.0
C42 C 0.25949 0.37032 0.34791 0.0
C43 C 0.23224 0.40779 0.33467 0.0
C44 C 0.18247 0.39813 0.32678 0.0
C45 C 0.1607 0.35087 0.3322 0.0
C46 C 0.0595 0.34152 0.39601 0.0
C47 C 0.0503 0.26487 0.35915 0.0
C48 C 0.10238 0.31839 0.38516 0.0
N49 N 0.09743 0.28071 0.36689 0.0
C50 C 0.00657 0.28711 0.36958 0.0
C51 C 0.01131 0.32572 0.38812 0.0
C52 C 0.13049 0.13673 0.35002 0.0
C53 C 0.34426 0.12865 0.35879 0.0
C54 C 0.26136 0.07564 0.33965 0.0
C55 C 0.29662 0.05072 0.35556 0.0
C56 C 0.3383 0.07751 0.36519 0.0
N57 N 0.26746 0.1258 0.33341 0.0
C58 C 0.30825 0.1523 0.3428 0.0
Co59 Co 0.24844 0.65742 0.85927 0.0
Co60 Co 0.33501 0.7097 0.81543 0.0
O61 O 0.28102 0.71559 0.84194 0.0
C62 C 0.28817 0.71461 0.90487 0.0
O63 O 0.33074 0.72119 0.89188 0.0
C64 C 0.26101 0.78769 0.79371 0.0
O65 O 0.22402 0.77005 0.80833 0.0
O66 O 0.29636 0.65602 0.7954 0.0
O67 O 0.24599 0.61994 0.82567 0.0
H68 H 0.45689 0.61411 0.75782 0.0
H69 H 0.20416 0.75959 0.86791 0.0
O70 O 0.25064 0.69258 0.894 0.0
H71 H 0.06924 0.6603 0.82457 0.0
H72 H 0.12507 0.57402 0.92129 0.0
H73 H 0.25995 0.54537 0.85587 0.0
H74 H 0.15209 0.62114 0.83464 0.0
H75 H 0.16654 0.64649 0.89934 0.0
O76 O 0.30421 0.76564 0.79351 0.0
H77 H 0.38928 0.62314 0.79095 0.0
H78 H 0.39633 0.78392 0.78421 0.0
H79 H 0.21916 0.47181 0.87717 0.0
H80 H 0.12152 0.80007 0.85863 0.0
H81 H 0.15121 0.4859 0.91017 0.0
H82 H 0.05348 0.75039 0.83666 0.0
O83 O 0.31547 0.62513 0.86712 0.0
H84 H 0.35694 0.87296 0.86562 0.0
H85 H 0.44292 0.71944 0.83251 0.0
H86 H 0.4917 0.78223 0.85805 0.0
H87 H 0.44871 0.85981 0.87472 0.0
H88 H 0.3095 0.80887 0.84037 0.0
H89 H 0.4636 0.7766 0.7508 0.0
H90 H 0.49448 0.69122 0.73747 0.0
O91 O 0.36883 0.65577 0.83651 0.0
C92 C 0.26501 0.62162 0.80276 0.0
C93 C 0.44376 0.65153 0.76347 0.0
C94 C 0.44745 0.74272 0.75949 0.0
N95 N 0.38872 0.70399 0.78948 0.0
C96 C 0.40552 0.65689 0.78224 0.0
C97 C 0.40913 0.74661 0.77831 0.0
C98 C 0.46481 0.6948 0.75204 0.0
C99 C 0.17453 0.73758 0.85861 0.0
N100 N 0.183 0.6881 0.85176 0.0
C101 C 0.12791 0.76077 0.85329 0.0
C102 C 0.08978 0.7329 0.84092 0.0
C103 C 0.09863 0.68239 0.83409 0.0
C104 C 0.14574 0.66048 0.83969 0.0
C105 C 0.15463 0.56738 0.90695 0.0
C106 C 0.2303 0.55184 0.87014 0.0
C107 C 0.17837 0.60828 0.89451 0.0
N108 N 0.21559 0.6002 0.8763 0.0
C109 C 0.20739 0.51002 0.88217 0.0
C110 C 0.16929 0.51795 0.90069 0.0
C111 C 0.35883 0.62721 0.856 0.0
C112 C 0.37614 0.8394 0.85839 0.0
C113 C 0.42386 0.75289 0.83983 0.0
C114 C 0.45173 0.78844 0.8542 0.0
C115 C 0.42761 0.83197 0.86353 0.0
N116 N 0.37341 0.76047 0.83478 0.0
C117 C 0.3495 0.80304 0.84393 0.0
Co118 Co 0.85089 0.74926 0.35537 0.0
Co119 Co 0.79103 0.84176 0.3177 0.0
O120 O 0.79004 0.78363 0.34188 0.0
C121 C 0.80044 0.78479 0.40375 0.0
O122 O 0.79051 0.82746 0.39144 0.0
C123 C 0.71474 0.76788 0.29462 0.0
O124 O 0.73711 0.72927 0.30608 0.0
O125 O 0.84307 0.80821 0.29447 0.0
O126 O 0.88175 0.74997 0.31989 0.0
H127 H 0.87521 0.97629 0.26286 0.0
H128 H 0.74999 0.70506 0.36742 0.0
O129 O 0.82229 0.74846 0.39174 0.0
H130 H 0.83991 0.57368 0.31645 0.0
H131 H 0.94416 0.61994 0.40997 0.0
H132 H 0.96182 0.76025 0.34653 0.0
H133 H 0.88176 0.65506 0.32695 0.0
H134 H 0.86838 0.66393 0.39281 0.0
O135 O 0.7335 0.81245 0.29644 0.0
H136 H 0.87255 0.90328 0.29313 0.0
H137 H 0.71118 0.90487 0.29161 0.0
H138 H 0.03857 0.71701 0.36301 0.0
H139 H 0.70693 0.62388 0.35774 0.0
H140 H 0.03001 0.64632 0.39498 0.0
H141 H 0.75187 0.55763 0.33193 0.0
O142 O 0.88528 0.81523 0.36338 0.0
H143 H 0.63321 0.85011 0.37318 0.0
H144 H 0.78112 0.94581 0.34032 0.0
H145 H 0.72025 0.98799 0.3699 0.0
H146 H 0.64552 0.94009 0.38648 0.0
H147 H 0.69536 0.80925 0.34389 0.0
H148 H 0.7121 0.97757 0.26113 0.0
H149 H 0.79456 0.01389 0.24661 0.0
O150 O 0.84659 0.87378 0.33825 0.0
C151 C 0.87712 0.77428 0.29843 0.0
C152 C 0.83903 0.96078 0.26902 0.0
C153 C 0.7475 0.96144 0.26801 0.0
N154 N 0.79178 0.89961 0.29405 0.0
C155 C 0.83728 0.91943 0.28618 0.0
C156 C 0.74723 0.92007 0.28517 0.0
C157 C 0.79378 0.98184 0.2599 0.0
C158 C 0.76997 0.67618 0.35644 0.0
N159 N 0.81829 0.68481 0.34772 0.0
C160 C 0.74531 0.63039 0.35091 0.0
C161 C 0.77052 0.59327 0.33639 0.0
C162 C 0.81989 0.60228 0.32766 0.0
C163 C 0.84331 0.64855 0.33354 0.0
C164 C 0.94839 0.65067 0.39603 0.0
C165 C 0.95775 0.72937 0.36035 0.0
C166 C 0.90562 0.67581 0.3863 0.0
N167 N 0.91065 0.7145 0.3686 0.0
C168 C 1.00137 0.7051 0.36965 0.0
C169 C 0.99654 0.66547 0.38761 0.0
C170 C 0.87985 0.86063 0.35504 0.0
C171 C 0.66552 0.87144 0.36602 0.0
C172 C 0.74888 0.92463 0.34755 0.0
C173 C 0.71443 0.94877 0.36423 0.0
C174 C 0.6725 0.9219 0.3735 0.0
N175 N 0.74175 0.87516 0.34022 0.0
C176 C 0.70075 0.84857 0.34929 0.0
Co177 Co 0.75373 0.35959 0.85557 0.0
Co178 Co 0.6658 0.2965 0.81633 0.0
O179 O 0.72269 0.2975 0.84135 0.0
C180 C 0.71794 0.30711 0.9034 0.0
O181 O 0.67617 0.29564 0.89063 0.0
C182 C 0.74219 0.21985 0.79527 0.0
O183 O 0.77867 0.23865 0.80985 0.0
O184 O 0.69853 0.35024 0.79378 0.0
O185 O 0.75387 0.39079 0.82017 0.0
H186 H 0.53119 0.37631 0.75984 0.0
H187 H 0.80168 0.2606 0.86808 0.0
O188 O 0.75381 0.33054 0.89183 0.0
H189 H 0.93218 0.35747 0.81995 0.0
H190 H 0.87533 0.45795 0.9125 0.0
H191 H 0.73816 0.47001 0.84694 0.0
H192 H 0.84816 0.39517 0.82892 0.0
H193 H 0.83606 0.38043 0.89436 0.0
O194 O 0.69835 0.24059 0.79502 0.0
H195 H 0.60242 0.37598 0.79124 0.0
H196 H 0.60745 0.21466 0.78892 0.0
H197 H 0.77669 0.54847 0.86439 0.0
H198 H 0.88553 0.22169 0.85996 0.0
H199 H 0.84578 0.54273 0.89744 0.0
H200 H 0.95136 0.27015 0.83561 0.0
O201 O 0.68597 0.39088 0.86275 0.0
H202 H 0.66053 0.13821 0.87176 0.0
H203 H 0.56083 0.28167 0.83691 0.0
H204 H 0.51922 0.21878 0.86555 0.0
H205 H 0.56912 0.14625 0.88311 0.0
H206 H 0.70074 0.20229 0.84341 0.0
H207 H 0.53665 0.21328 0.75729 0.0
H208 H 0.49789 0.29452 0.7426 0.0
O209 O 0.6304 0.35036 0.83667 0.0
C210 C 0.73114 0.3853 0.79831 0.0
C211 C 0.54777 0.34066 0.76608 0.0
C212 C 0.5509 0.24917 0.76461 0.0
N213 N 0.60928 0.2954 0.79184 0.0
C214 C 0.58811 0.34023 0.78387 0.0
C215 C 0.59119 0.25022 0.78243 0.0
C216 C 0.52913 0.29476 0.7564 0.0
C217 C 0.83032 0.28207 0.85768 0.0
N218 N 0.81997 0.32999 0.84886 0.0
C219 C 0.87764 0.25977 0.85305 0.0
C220 C 0.91453 0.28695 0.83934 0.0
C221 C 0.90376 0.3359 0.83051 0.0
C222 C 0.856 0.35694 0.83548 0.0
C223 C 0.8453 0.46095 0.89809 0.0
C224 C 0.7684 0.46718 0.86121 0.0
C225 C 0.82282 0.41719 0.8878 0.0
N226 N 0.785 0.42067 0.86952 0.0
C227 C 0.78999 0.51175 0.87107 0.0
C228 C 0.82871 0.5085 0.88962 0.0
C229 C 0.64127 0.38379 0.85381 0.0
C230 C 0.6383 0.16949 0.86411 0.0
C231 C 0.58287 0.25037 0.84453 0.0
C232 C 0.55905 0.21477 0.86069 0.0
C233 C 0.58705 0.17408 0.87052 0.0
N234 N 0.63311 0.24552 0.83818 0.0
C235 C 0.66082 0.2058 0.84787 0.0
Co236 Co 0.65661 0.25888 0.14686 0.0
Co237 Co 0.71653 0.34859 0.1862 0.0
O238 O 0.71744 0.29204 0.16106 0.0
C239 C 0.70792 0.29629 0.09906 0.0
O240 O 0.71769 0.33853 0.11179 0.0
C241 C 0.7903 0.27198 0.20868 0.0
O242 O 0.76481 0.2344 0.19805 0.0
O243 O 0.66429 0.31377 0.20884 0.0
O244 O 0.62519 0.2579 0.18218 0.0
H245 H 0.63313 0.48014 0.24323 0.0
H246 H 0.7576 0.21475 0.13507 0.0
O247 O 0.68586 0.25957 0.11065 0.0
H248 H 0.66495 0.08096 0.18303 0.0
H249 H 0.56281 0.13353 0.09005 0.0
H250 H 0.5457 0.27081 0.15525 0.0
H251 H 0.62401 0.16321 0.17339 0.0
H252 H 0.63881 0.17559 0.10821 0.0
O253 O 0.77399 0.31749 0.2068 0.0
H254 H 0.63537 0.40917 0.21169 0.0
H255 H 0.79671 0.40928 0.21351 0.0
H256 H 0.46873 0.22947 0.13777 0.0
H257 H 0.79983 0.13278 0.14395 0.0
H258 H 0.47701 0.16031 0.10491 0.0
H259 H 0.75349 0.06531 0.16822 0.0
O260 O 0.62316 0.3256 0.13958 0.0
H261 H 0.87468 0.35973 0.13115 0.0
H262 H 0.72705 0.45401 0.16535 0.0
H263 H 0.78828 0.49773 0.13656 0.0
H264 H 0.86285 0.45053 0.1193 0.0
H265 H 0.81218 0.31737 0.1597 0.0
H266 H 0.79622 0.47992 0.24525 0.0
H267 H 0.714 0.51595 0.26027 0.0
O268 O 0.66103 0.38221 0.16619 0.0
C269 C 0.63001 0.28043 0.20413 0.0
C270 C 0.66921 0.46473 0.23686 0.0
C271 C 0.76073 0.46455 0.23803 0.0
N272 N 0.71608 0.40485 0.21085 0.0
C273 C 0.67071 0.42453 0.219 0.0
C274 C 0.76076 0.42434 0.22015 0.0
C275 C 0.71458 0.48479 0.24642 0.0
C276 C 0.73705 0.18536 0.14541 0.0
N277 N 0.68845 0.19376 0.15376 0.0
C278 C 0.76122 0.13912 0.15048 0.0
C279 C 0.73523 0.10131 0.16414 0.0
C280 C 0.68558 0.1101 0.17249 0.0
C281 C 0.66267 0.15684 0.16711 0.0
C282 C 0.55871 0.16358 0.10438 0.0
C283 C 0.54964 0.24056 0.14106 0.0
C284 C 0.6016 0.18764 0.11468 0.0
N285 N 0.59672 0.22547 0.13287 0.0
C286 C 0.50591 0.21738 0.13118 0.0
C287 C 0.51058 0.17861 0.11273 0.0
C288 C 0.62829 0.37036 0.14885 0.0
C289 C 0.8424 0.38074 0.13859 0.0
C290 C 0.75918 0.43314 0.15779 0.0
C291 C 0.79386 0.45814 0.14157 0.0
C292 C 0.83571 0.43166 0.13192 0.0
N293 N 0.76601 0.3832 0.1643 0.0
C294 C 0.80697 0.357 0.15488 0.0
Co295 Co 0.26345 0.14233 0.64264 0.0
Co296 Co 0.18105 0.21439 0.68052 0.0
O297 O 0.23757 0.20702 0.65589 0.0
C298 C 0.23165 0.19541 0.5944 0.0
O299 O 0.19075 0.20974 0.60712 0.0
C300 C 0.22562 0.2754 0.72379 0.0
O301 O 0.20969 0.23979 0.73987 0.0
O302 O 0.20953 0.15982 0.70423 0.0
O303 O 0.26102 0.11316 0.67843 0.0
H304 H 0.04164 0.15202 0.73967 0.0
H305 H 0.31794 0.23797 0.63046 0.0
O306 O 0.26588 0.16979 0.60607 0.0
H307 H 0.44176 0.13177 0.67805 0.0
H308 H 0.37675 0.03213 0.58701 0.0
H309 H 0.23956 0.0339 0.65282 0.0
H310 H 0.35538 0.0999 0.66894 0.0
H311 H 0.34358 0.11331 0.60408 0.0
O312 O 0.22059 0.26929 0.69914 0.0
H313 H 0.11317 0.14324 0.7088 0.0
H314 H 0.12701 0.30382 0.70394 0.0
H315 H 0.27194 0.95186 0.63646 0.0
H316 H 0.40411 0.27124 0.6389 0.0
H317 H 0.34102 0.95064 0.60329 0.0
H318 H 0.46664 0.218 0.66292 0.0
O319 O 0.19336 0.11617 0.63589 0.0
H320 H 0.1894 0.36946 0.62305 0.0
H321 H 0.07847 0.23415 0.65759 0.0
H322 H 0.04315 0.29758 0.62706 0.0
H323 H 0.09874 0.36598 0.60963 0.0
H324 H 0.22333 0.30482 0.65332 0.0
H325 H 0.05566 0.31434 0.73478 0.0
H326 H 0.01247 0.23808 0.75289 0.0
O327 O 0.14109 0.1614 0.6618 0.0
C328 C 0.2391 0.12186 0.70024 0.0
C329 C 0.06024 0.18555 0.73198 0.0
C330 C 0.06809 0.27664 0.72922 0.0
N331 N 0.12459 0.22291 0.70474 0.0
C332 C 0.10084 0.1808 0.71452 0.0
C333 C 0.10852 0.27043 0.71179 0.0
C334 C 0.04388 0.23384 0.73937 0.0
C335 C 0.34506 0.21453 0.6408 0.0
N336 N 0.3317 0.16706 0.6492 0.0
C337 C 0.39374 0.23359 0.64558 0.0
C338 C 0.42879 0.20372 0.65908 0.0
C339 C 0.41484 0.15535 0.6676 0.0
C340 C 0.36582 0.13758 0.66248 0.0
C341 C 0.34667 0.03216 0.60147 0.0
C342 C 0.26981 0.03368 0.63849 0.0
C343 C 0.32763 0.07802 0.61115 0.0
N344 N 0.28982 0.07834 0.62952 0.0
C345 C 0.2879 0.98711 0.62925 0.0
C346 C 0.32662 0.98645 0.61063 0.0
C347 C 0.14942 0.1264 0.64508 0.0
C348 C 0.16476 0.33991 0.63055 0.0
C349 C 0.103 0.26351 0.64994 0.0
C350 C 0.08273 0.29949 0.63275 0.0
C351 C 0.11392 0.33789 0.623 0.0
N352 N 0.1529 0.26574 0.65731 0.0
C353 C 0.1837 0.30331 0.64781 0.0
Co354 Co 0.3516 0.7603 0.14878 0.0
Co355 Co 0.29099 0.66715 0.18572 0.0
O356 O 0.29047 0.72592 0.16195 0.0
C357 C 0.30106 0.72611 0.10022 0.0
O358 O 0.29044 0.68349 0.11243 0.0
C359 C 0.21451 0.74066 0.20901 0.0
O360 O 0.23655 0.77939 0.19749 0.0
O361 O 0.34306 0.69984 0.20927 0.0
O362 O 0.38206 0.75868 0.18433 0.0
H363 H 0.374 0.5307 0.23978 0.0
H364 H 0.25105 0.80528 0.13672 0.0
O365 O 0.3234 0.76201 0.11233 0.0
H366 H 0.34123 0.93511 0.18866 0.0
H367 H 0.4462 0.8902 0.09514 0.0
H368 H 0.46236 0.74844 0.15783 0.0
H369 H 0.38275 0.85376 0.17777 0.0
H370 H 0.36997 0.84634 0.11186 0.0
O371 O 0.23348 0.69618 0.20713 0.0
H372 H 0.37198 0.60453 0.21003 0.0
H373 H 0.2106 0.60382 0.21123 0.0
H374 H 0.53954 0.79152 0.14177 0.0
H375 H 0.20833 0.88646 0.14678 0.0
H376 H 0.53174 0.86294 0.11019 0.0
H377 H 0.2534 0.95192 0.17308 0.0
O378 O 0.38567 0.69436 0.14046 0.0
H379 H 0.13353 0.6611 0.12985 0.0
H380 H 0.28064 0.56375 0.16235 0.0
H381 H 0.21976 0.52269 0.13236 0.0
H382 H 0.14544 0.57142 0.11595 0.0
H383 H 0.19568 0.70084 0.15956 0.0
H384 H 0.21088 0.53031 0.24119 0.0
H385 H 0.29301 0.49312 0.25561 0.0
O386 O 0.34656 0.63532 0.16507 0.0
C387 C 0.37718 0.73385 0.20562 0.0
C388 C 0.33796 0.54658 0.23366 0.0
C389 C 0.24642 0.54642 0.23449 0.0
N390 N 0.29125 0.60868 0.20897 0.0
C391 C 0.33658 0.58839 0.2168 0.0
C392 C 0.24651 0.58824 0.21762 0.0
C393 C 0.29252 0.52554 0.24254 0.0
C394 C 0.27108 0.83382 0.14792 0.0
N395 N 0.31928 0.82476 0.1567 0.0
C396 C 0.24663 0.87961 0.15366 0.0
C397 C 0.2719 0.91629 0.16845 0.0
C398 C 0.32115 0.90685 0.17724 0.0
C399 C 0.34438 0.8606 0.17114 0.0
C400 C 0.45009 0.85916 0.10892 0.0
C401 C 0.45862 0.77965 0.14419 0.0
C402 C 0.40707 0.8341 0.11841 0.0
N403 N 0.41168 0.79501 0.1359 0.0
C404 C 0.50247 0.80382 0.13512 0.0
C405 C 0.49807 0.84387 0.11738 0.0
C406 C 0.38005 0.64877 0.14846 0.0
C407 C 0.16566 0.6394 0.13694 0.0
C408 C 0.24857 0.58528 0.15522 0.0
C409 C 0.21411 0.56178 0.13829 0.0
C410 C 0.17241 0.58912 0.12911 0.0
N411 N 0.24166 0.63458 0.16289 0.0
C412 C 0.20087 0.66164 0.15391 0.0
Co413 Co 0.75374 0.85551 0.64675 0.0
Co414 Co 0.84416 0.79695 0.6861 0.0
O415 O 0.7872 0.79509 0.66124 0.0
C416 C 0.7889 0.80242 0.59901 0.0
O417 O 0.8319 0.79355 0.61124 0.0
C418 C 0.76912 0.72228 0.7092 0.0
O419 O 0.73092 0.74727 0.69886 0.0
O420 O 0.80895 0.84869 0.70884 0.0
O421 O 0.75464 0.88863 0.68171 0.0
H422 H 0.97518 0.88262 0.74256 0.0
H423 H 0.70845 0.75436 0.6365 0.0
O424 O 0.75264 0.82464 0.61089 0.0
H425 H 0.57761 0.84955 0.68524 0.0
H426 H 0.62631 0.94738 0.59036 0.0
H427 H 0.76665 0.96677 0.65363 0.0
H428 H 0.65962 0.88961 0.67423 0.0
H429 H 0.66878 0.87199 0.60896 0.0
O430 O 0.81435 0.73908 0.7069 0.0
H431 H 0.90361 0.87917 0.71142 0.0
H432 H 0.90674 0.71778 0.71306 0.0
H433 H 0.72495 0.04315 0.63569 0.0
H434 H 0.62666 0.71299 0.64675 0.0
H435 H 0.65425 0.03372 0.60379 0.0
H436 H 0.56068 0.76061 0.67141 0.0
O437 O 0.82023 0.88829 0.63835 0.0
H438 H 0.85654 0.63867 0.63119 0.0
H439 H 0.9493 0.78791 0.66469 0.0
H440 H 0.99329 0.72721 0.63573 0.0
H441 H 0.94687 0.65182 0.61882 0.0
H442 H 0.81388 0.70068 0.6599 0.0
H443 H 0.97801 0.71949 0.74441 0.0
H444 H 0.01284 0.80236 0.7593 0.0
O445 O 0.87663 0.85297 0.66594 0.0
C446 C 0.77671 0.88384 0.70379 0.0
C447 C 0.96033 0.84627 0.73623 0.0
C448 C 0.96185 0.75472 0.7373 0.0
N449 N 0.90083 0.79835 0.71049 0.0
C450 C 0.91981 0.84407 0.71858 0.0
C451 C 0.92129 0.754 0.71965 0.0
C452 C 0.98142 0.80123 0.74563 0.0
C453 C 0.6797 0.77547 0.647 0.0
N454 N 0.68881 0.82431 0.6548 0.0
C455 C 0.63356 0.75178 0.65285 0.0
C456 C 0.59659 0.7785 0.66673 0.0
C457 C 0.6061 0.82837 0.67453 0.0
C458 C 0.65271 0.85078 0.66837 0.0
C459 C 0.65704 0.95198 0.60426 0.0
C460 C 0.73573 0.96233 0.63987 0.0
C461 C 0.68132 0.90943 0.61481 0.0
N462 N 0.72001 0.91495 0.63246 0.0
C463 C 0.71235 0.00573 0.62973 0.0
C464 C 0.67272 1.00042 0.61182 0.0
C465 C 0.86478 0.8845 0.64801 0.0
C466 C 0.87722 0.67131 0.63848 0.0
C467 C 0.92875 0.75545 0.65728 0.0
C468 C 0.95392 0.72106 0.64097 0.0
C469 C 0.92787 0.67875 0.63151 0.0
N470 N 0.87908 0.7479 0.66407 0.0
C471 C 0.85331 0.70648 0.65485 0.0
H472 H 0.1487 0.03461 0.34937 0.0
H473 H 0.86105 0.96173 0.36133 0.0
H474 H 0.03459 0.14474 0.37084 0.0
H475 H 0.98041 0.85015 0.36793 0.0
H476 H 0.92356 0.02912 0.36751 0.0
H477 H 0.08859 0.96651 0.35847 0.0
C478 C 0.11114 0.0445 0.35628 0.0
C479 C 0.09648 0.09553 0.35902 0.0
C480 C 0.93604 0.98991 0.3681 0.0
C481 C 0.0271 0.0175 0.36924 0.0
C482 C 0.90037 0.9514 0.36446 0.0
C483 C 0.9157 0.90033 0.36376 0.0
C484 C 0.98763 0.97735 0.37048 0.0
C485 C 0.96704 0.88906 0.36827 0.0
C486 C 0.07687 0.0055 0.36162 0.0
C487 C 0.04742 0.10595 0.36836 0.0
N488 N 1.0014 0.92737 0.37091 0.0
N489 N 0.01413 0.06725 0.37267 0.0
H490 H 0.45957 0.64905 0.86 0.0
H491 H 0.53979 0.36251 0.8552 0.0
H492 H 0.35158 0.52803 0.87191 0.0
H493 H 0.64753 0.4817 0.87214 0.0
H494 H 0.47042 0.42167 0.86354 0.0
H495 H 0.52889 0.58897 0.86688 0.0
C496 C 0.45049 0.60988 0.8644 0.0
C497 C 0.39986 0.59328 0.86502 0.0
C498 C 0.50918 0.43474 0.86587 0.0
C499 C 0.47901 0.52408 0.8726 0.0
C500 C 0.54889 0.40101 0.86097 0.0
C501 C 0.59958 0.41735 0.86264 0.0
C502 C 0.52013 0.48556 0.87196 0.0
C503 C 0.60902 0.46756 0.87053 0.0
C504 C 0.49009 0.57562 0.86846 0.0
C505 C 0.39015 0.54228 0.87121 0.0
N506 N 0.56962 0.50019 0.87443 0.0
N507 N 0.42945 0.50917 0.87424 0.0
H508 H 0.53108 0.36037 0.13002 0.0
H509 H 0.47908 0.66031 0.13278 0.0
H510 H 0.64525 0.47271 0.14821 0.0
H511 H 0.36267 0.54688 0.14406 0.0
H512 H 0.54102 0.59209 0.12541 0.0
H513 H 0.46993 0.42918 0.12228 0.0
C514 C 0.54356 0.39944 0.1319 0.0
C515 C 0.59312 0.41083 0.14017 0.0
C516 C 0.50169 0.58231 0.1291 0.0
C517 C 0.52371 0.4894 0.13123 0.0
C518 C 0.46633 0.62117 0.13316 0.0
C519 C 0.41584 0.60918 0.13945 0.0
C520 C 0.48618 0.5313 0.131 0.0
C521 C 0.40138 0.55779 0.13973 0.0
C522 C 0.50865 0.43861 0.12759 0.0
C523 C 0.60724 0.46216 0.14231 0.0
N524 N 0.43643 0.52073 0.13577 0.0
N525 N 0.57265 0.49952 0.13804 0.0
H526 H 0.04852 0.15088 0.64665 0.0
H527 H 0.85363 0.97857 0.6252 0.0
H528 H 0.15056 0.0286 0.62644 0.0
H529 H 0.96754 0.87153 0.65087 0.0
H530 H 0.9211 0.04089 0.61693 0.0
H531 H 0.97667 0.09404 0.64007 0.0
C532 C 0.05581 0.11232 0.64032 0.0
C533 C 0.10574 0.09443 0.63725 0.0
C534 C 0.93118 1.00366 0.62431 0.0
C535 C 0.02335 0.029 0.62954 0.0
C536 C 0.89278 0.96792 0.62879 0.0
C537 C 0.90487 0.92004 0.63921 0.0
C538 C 0.98189 0.99111 0.63014 0.0
C539 C 0.95631 0.90821 0.6433 0.0
C540 C 0.01461 0.07995 0.6363 0.0
C541 C 0.11276 0.04402 0.62901 0.0
N542 N 0.99285 0.94355 0.63887 0.0
N543 N 0.07202 0.01273 0.62599 0.0
H544 H 0.17915 0.28495 0.43354 0.0
H545 H 0.29873 0.15194 0.5601 0.0
H546 H 0.2665 0.14615 0.43008 0.0
H547 H 0.17354 0.25783 0.5635 0.0
H548 H 0.29969 0.16025 0.51241 0.0
H549 H 0.18954 0.28601 0.48106 0.0
C550 C 0.20102 0.25495 0.44271 0.0
C551 C 0.22169 0.21512 0.42778 0.0
C552 C 0.27226 0.18189 0.52363 0.0
C553 C 0.23366 0.2163 0.48226 0.0
C554 C 0.27179 0.1774 0.55087 0.0
C555 C 0.23571 0.204 0.56583 0.0
C556 C 0.2368 0.21362 0.51123 0.0
C557 C 0.20175 0.23634 0.55274 0.0
C558 C 0.2067 0.25553 0.46988 0.0
C559 C 0.24962 0.17736 0.44082 0.0
N560 N 0.20305 0.24016 0.52617 0.0
N561 N 0.25468 0.1788 0.46735 0.0
H562 H 0.35674 0.76694 0.93535 0.0
H563 H 0.23951 0.66771 0.06912 0.0
H564 H 0.214 0.6863 0.93938 0.0
H565 H 0.3441 0.79403 0.06623 0.0
H566 H 0.23208 0.67125 0.02133 0.0
H567 H 0.35547 0.77546 0.98322 0.0
C568 C 0.32493 0.75152 0.94623 0.0
C569 C 0.2856 0.72562 0.9333 0.0
C570 C 0.25625 0.69851 0.0312 0.0
C571 C 0.28431 0.73454 0.98797 0.0
C572 C 0.26059 0.69641 0.05846 0.0
C573 C 0.29252 0.73052 0.07167 0.0
C574 C 0.28478 0.73435 0.01702 0.0
C575 C 0.31891 0.76705 0.05686 0.0
C576 C 0.3242 0.75642 0.97352 0.0
C577 C 0.24525 0.70647 0.94843 0.0
N578 N 0.31493 0.76761 0.0303 0.0
N579 N 0.24599 0.71075 0.97494 0.0
H580 H 0.71581 0.83745 0.56547 0.0
H581 H 0.83919 0.71383 0.43747 0.0
H582 H 0.85179 0.74569 0.56756 0.0
H583 H 0.74316 0.84683 0.43529 0.0
H584 H 0.83183 0.71254 0.48521 0.0
H585 H 0.71338 0.82825 0.51787 0.0
C586 C 0.74486 0.81483 0.55598 0.0
C587 C 0.78433 0.79255 0.57055 0.0
C588 C 0.81211 0.74176 0.47425 0.0
C589 C 0.78153 0.78191 0.516 0.0
C590 C 0.81603 0.74243 0.44698 0.0
C591 C 0.79197 0.78075 0.43235 0.0
C592 C 0.78341 0.77924 0.487 0.0
C593 C 0.76262 0.81683 0.4458 0.0
C594 C 0.74352 0.80986 0.52878 0.0
C595 C 0.8209 0.76379 0.5571 0.0
N596 N 0.7592 0.81523 0.47238 0.0
N597 N 0.81867 0.75935 0.53056 0.0
H598 H 0.65608 0.24849 0.93443 0.0
H599 H 0.76422 0.36025 0.06804 0.0
H600 H 0.78738 0.34673 0.93763 0.0
H601 H 0.6708 0.22545 0.06483 0.0
H602 H 0.77133 0.35811 0.02018 0.0
H603 H 0.65858 0.24132 0.98228 0.0
C604 C 0.68564 0.2682 0.94515 0.0
C605 C 0.72143 0.29838 0.932 0.0
C606 C 0.74969 0.32874 0.03001 0.0
C607 C 0.72414 0.29088 0.9867 0.0
C608 C 0.74556 0.33 0.05731 0.0
C609 C 0.71675 0.29311 0.07047 0.0
C610 C 0.72416 0.2908 0.01576 0.0
C611 C 0.69346 0.25469 0.05555 0.0
C612 C 0.68712 0.26404 0.97245 0.0
C613 C 0.759 0.32301 0.94691 0.0
N614 N 0.69721 0.25487 0.029 0.0
N615 N 0.75903 0.31917 0.97346 0.0
H616 H 0.57817 0.19239 0.21221 0.0
H617 H 0.34947 0.3247 0.29045 0.0
H618 H 0.58521 0.34803 0.2384 0.0
H619 H 0.34936 0.16954 0.26295 0.0
H620 H 0.43662 0.33437 0.27378 0.0
H621 H 0.49715 0.18251 0.23453 0.0
C622 C 0.56315 0.22428 0.22315 0.0
C623 C 0.58863 0.27115 0.22333 0.0
C624 C 0.4174 0.29826 0.27144 0.0
C625 C 0.49436 0.26057 0.24853 0.0
C626 C 0.36749 0.2928 0.28077 0.0
C627 C 0.34174 0.24623 0.27808 0.0
C628 C 0.44176 0.25684 0.25934 0.0
C629 C 0.36738 0.20616 0.26557 0.0
C630 C 0.51649 0.21876 0.23577 0.0
C631 C 0.56711 0.31112 0.23787 0.0
N632 N 0.41566 0.21242 0.25674 0.0
N633 N 0.52084 0.30517 0.24959 0.0
H634 H 0.32906 0.83302 0.76073 0.0
H635 H 0.169 0.08795 0.73662 0.0
H636 H 0.18239 0.85742 0.79642 0.0
H637 H 0.3211 0.06112 0.70843 0.0
H638 H 0.17301 0.00705 0.76082 0.0
H639 H 0.3254 0.91782 0.74212 0.0
C640 C 0.29585 0.85609 0.76461 0.0
C641 C 0.25602 0.83773 0.78028 0.0
C642 C 0.20573 0.01936 0.74963 0.0
C643 C 0.25163 0.93616 0.75888 0.0
C644 C 0.20369 0.06586 0.73607 0.0
C645 C 0.24469 0.08132 0.72031 0.0
C646 C 0.24908 0.98831 0.74736 0.0
C647 C 0.28839 0.05069 0.72009 0.0
C648 C 0.29386 0.90489 0.754 0.0
C649 C 0.21392 0.86978 0.78438 0.0
N650 N 0.2892 0.00571 0.73311 0.0
N651 N 0.21281 0.91744 0.77377 0.0
H652 H 0.66152 0.83868 0.26672 0.0
H653 H 0.41651 0.66449 0.24085 0.0
H654 H 0.65111 0.6841 0.29459 0.0
H655 H 0.43434 0.81874 0.2137 0.0
H656 H 0.49804 0.6718 0.26409 0.0
H657 H 0.5759 0.83197 0.24936 0.0
C658 C 0.64134 0.80312 0.26914 0.0
C659 C 0.6639 0.76189 0.28218 0.0
C660 C 0.48365 0.70422 0.25333 0.0
C661 C 0.56461 0.75396 0.26225 0.0
C662 C 0.43676 0.70029 0.24032 0.0
C663 C 0.41851 0.74099 0.22514 0.0
C664 C 0.51227 0.74923 0.2512 0.0
C665 C 0.44689 0.78622 0.22496 0.0
C666 C 0.59211 0.79936 0.25924 0.0
C667 C 0.63547 0.7168 0.28456 0.0
N668 N 0.49228 0.78891 0.23752 0.0
N669 N 0.5873 0.71403 0.2747 0.0
H670 H 0.67704 0.17379 0.761 0.0
H671 H 0.84027 0.91848 0.74317 0.0
H672 H 0.82134 0.15117 0.7995 0.0
H673 H 0.69519 0.94749 0.70673 0.0
H674 H 0.83293 0.99991 0.76655 0.0
H675 H 0.68329 0.08907 0.74234 0.0
C676 C 0.71027 0.15112 0.76548 0.0
C677 C 0.74869 0.16993 0.78192 0.0
C678 C 0.80248 0.98801 0.75367 0.0
C679 C 0.75603 0.0717 0.76054 0.0
C680 C 0.80638 0.94122 0.74052 0.0
C681 C 0.76843 0.92601 0.72277 0.0
C682 C 0.76026 0.01963 0.74907 0.0
C683 C 0.72562 0.95751 0.72001 0.0
C684 C 0.71375 0.10242 0.75484 0.0
C685 C 0.7909 0.13846 0.78683 0.0
N686 N 0.72297 1.0027 0.73277 0.0
N687 N 0.79341 0.09087 0.77622 0.0
H688 H 0.07699 0.31551 0.28753 0.0
H689 H 0.84814 0.18419 0.209 0.0
H690 H 0.08428 0.16046 0.26049 0.0
H691 H 0.85006 0.3406 0.23451 0.0
H692 H 0.935 0.17408 0.22601 0.0
H693 H 0.99613 0.32584 0.26508 0.0
C694 C 0.06203 0.28384 0.2764 0.0
C695 C 0.08757 0.23702 0.27598 0.0
C696 C 0.91631 0.21057 0.22782 0.0
C697 C 0.99351 0.24811 0.2506 0.0
C698 C 0.86656 0.21629 0.2183 0.0
C699 C 0.84145 0.26332 0.22036 0.0
C700 C 0.94112 0.25216 0.23952 0.0
C701 C 0.86757 0.30362 0.2324 0.0
C702 C 0.01549 0.28963 0.26369 0.0
C703 C 0.06614 0.19733 0.2612 0.0
N704 N 0.91566 0.29708 0.24147 0.0
N705 N 0.01997 0.20353 0.24939 0.0
H706 H 0.26984 0.35625 0.69794 0.0
H707 H 0.1894 0.55186 0.80881 0.0
H708 H 0.20708 0.3128 0.77279 0.0
H709 H 0.31712 0.58682 0.75882 0.0
H710 H 0.18297 0.46882 0.78854 0.0
H711 H 0.2787 0.44404 0.71416 0.0
C712 C 0.25851 0.36495 0.71784 0.0
C713 C 0.23779 0.3269 0.73406 0.0
C714 C 0.21218 0.49473 0.78181 0.0
C715 C 0.24642 0.42729 0.75228 0.0
C716 C 0.2157 0.54261 0.79322 0.0
C717 C 0.25434 0.57667 0.78582 0.0
C718 C 0.24709 0.48028 0.76248 0.0
C719 C 0.28679 0.56197 0.76523 0.0
C720 C 0.26347 0.41502 0.727 0.0
C721 C 0.22351 0.34052 0.7596 0.0
N722 N 0.28267 0.51463 0.75435 0.0
N723 N 0.22751 0.38954 0.76775 0.0
H724 H 0.16221 0.6699 0.23743 0.0
H725 H 0.9153 0.84217 0.2621 0.0
H726 H 0.15016 0.82381 0.20878 0.0
H727 H 0.93592 0.68999 0.29174 0.0
H728 H 0.99677 0.83481 0.23884 0.0
H729 H 0.0767 0.67624 0.25504 0.0
C730 C 0.1417 0.70523 0.2349 0.0
C731 C 0.16376 0.7464 0.22157 0.0
C732 C 0.98302 0.80283 0.25016 0.0
C733 C 0.06463 0.75388 0.24176 0.0
C734 C 0.93617 0.80678 0.2632 0.0
C735 C 0.91868 0.76673 0.27907 0.0
C736 C 0.01238 0.75845 0.25293 0.0
C737 C 0.94784 0.72201 0.27993 0.0
C738 C 0.09255 0.70878 0.24493 0.0
C739 C 0.13492 0.79118 0.21904 0.0
N740 N 0.99317 0.7193 0.26731 0.0
N741 N 0.08684 0.79373 0.22902 0.0
H742 H 0.81836 0.43802 0.78948 0.0
H743 H 0.68195 0.66355 0.7107 0.0
H744 H 0.6623 0.42871 0.76425 0.0
H745 H 0.8393 0.66367 0.73459 0.0
H746 H 0.67332 0.57699 0.72837 0.0
H747 H 0.82711 0.51827 0.76626 0.0
C748 C 0.78612 0.4524 0.77858 0.0
C749 C 0.73951 0.42649 0.77889 0.0
C750 C 0.70969 0.59606 0.72967 0.0
C751 C 0.74879 0.51984 0.75263 0.0
C752 C 0.71457 0.64564 0.71977 0.0
C753 C 0.76142 0.67124 0.72119 0.0
C754 C 0.75194 0.57193 0.74111 0.0
C755 C 0.80242 0.64577 0.73297 0.0
C756 C 0.79101 0.49858 0.76543 0.0
C757 C 0.69905 0.44715 0.76438 0.0
N758 N 0.79668 0.59784 0.74242 0.0
N759 N 0.70438 0.493 0.75213 0.0
loop_
_geom_bond_atom_site_label_1
_geom_bond_atom_site_label_2
_geom_bond_distance
_geom_bond_site_symmetry_2
_ccdc_geom_bond_type
Co0 O2 2.143 . S
Co0 O8 2.074 . S
Co0 O11 2.093 . S
Co0 O24 2.097 . S
Co0 N41 2.151 . S
Co0 N49 2.214 . S
Co1 O2 2.160 . S
Co1 O7 2.058 . S
Co1 O17 2.057 . S
Co1 O32 2.037 . S
Co1 N36 2.145 . S
Co1 N57 2.257 . S
O2 Co0 2.143 . S
O2 Co1 2.160 . S
C3 O4 1.278 . S
C3 O11 1.224 . S
O4 C3 1.278 . S
C5 O6 1.245 . S
C5 O17 1.232 . S
O6 C5 1.245 . S
O7 Co1 2.058 . S
O7 C33 1.269 . S
O8 Co0 2.074 . S
O8 C33 1.257 . S
H9 C34 0.930 . S
H10 C40 0.930 . S
O11 Co0 2.093 . S
O11 C3 1.224 . S
H12 C44 0.929 . S
H13 C46 0.930 . S
H14 C47 0.930 . S
H15 C45 0.929 . S
H16 C48 0.928 . S
O17 Co1 2.057 . S
O17 C5 1.232 . S
H18 C37 0.929 . S
H19 C38 0.929 . S
H20 C50 0.931 . S
H21 C42 0.929 . S
H22 C51 0.930 . S
H23 C43 0.931 . S
O24 Co0 2.097 . S
O24 C52 1.214 . S
H25 C53 0.929 . S
H26 C54 0.929 . S
H27 C55 0.930 . S
H28 C56 0.929 . S
H29 C58 0.930 . S
H30 C35 0.930 . S
H31 C39 0.930 . S
O32 Co1 2.037 . S
O32 C52 1.234 . S
C33 O7 1.269 . S
C33 O8 1.257 . S
C34 H9 0.930 . S
C34 C37 1.388 . S
C34 C39 1.418 . S
C35 H30 0.930 . S
C35 C38 1.404 . S
C35 C39 1.353 . S
N36 Co1 2.145 . S
N36 C37 1.397 . S
N36 C38 1.334 . S
C37 H18 0.929 . S
C37 C34 1.388 . S
C37 N36 1.397 . S
C38 H19 0.929 . S
C38 C35 1.404 . S
C38 N36 1.334 . S
C39 H31 0.930 . S
C39 C34 1.418 . S
C39 C35 1.353 . S
C40 H10 0.930 . S
C40 N41 1.330 . S
C40 C42 1.446 . S
N41 Co0 2.151 . S
N41 C40 1.330 . S
N41 C45 1.418 . S
C42 H21 0.929 . S
C42 C40 1.446 . S
C42 C43 1.332 . S
C43 H23 0.931 . S
C43 C42 1.332 . S
C43 C44 1.267 . S
C44 H12 0.929 . S
C44 C43 1.267 . S
C44 C45 1.251 . S
C45 H15 0.929 . S
C45 N41 1.418 . S
C45 C44 1.251 . S
C46 H13 0.930 . S
C46 C48 1.406 1_655 S
C46 C51 1.261 . S
C47 H14 0.930 . S
C47 N49 1.325 1_655 S
C47 C50 1.357 . S
C48 H16 0.928 . S
C48 C46 1.406 1_455 S
C48 N49 1.261 . S
N49 Co0 2.214 . S
N49 C47 1.325 1_455 S
N49 C48 1.261 . S
C50 H20 0.931 . S
C50 C47 1.357 . S
C50 C51 1.312 . S
C51 H22 0.930 . S
C51 C46 1.261 . S
C51 C50 1.312 . S
C52 O24 1.214 . S
C52 O32 1.234 . S
C53 H25 0.929 . S
C53 C56 1.391 . S
C53 C58 1.391 . S
C54 H26 0.929 . S
C54 C55 1.390 . S
C54 N57 1.391 . S
C55 H27 0.930 . S
C55 C54 1.390 . S
C55 C56 1.392 . S
C56 H28 0.929 . S
C56 C53 1.391 . S
C56 C55 1.392 . S
N57 Co1 2.257 . S
N57 C54 1.391 . S
N57 C58 1.388 . S
C58 H29 0.930 . S
C58 C53 1.391 . S
C58 N57 1.388 . S
Co59 O61 2.143 . S
Co59 O67 2.074 . S
Co59 O70 2.093 . S
Co59 O83 2.097 . S
Co59 N100 2.151 . S
Co59 N108 2.214 . S
Co60 O61 2.160 . S
Co60 O66 2.058 . S
Co60 O76 2.057 . S
Co60 O91 2.037 . S
Co60 N95 2.145 . S
Co60 N116 2.257 . S
O61 Co59 2.143 . S
O61 Co60 2.160 . S
C62 O63 1.278 . S
C62 O70 1.224 . S
O63 C62 1.278 . S
C64 O65 1.245 . S
C64 O76 1.232 . S
O65 C64 1.245 . S
O66 Co60 2.058 . S
O66 C92 1.269 . S
O67 Co59 2.074 . S
O67 C92 1.257 . S
H68 C93 0.930 . S
H69 C99 0.930 . S
O70 Co59 2.093 . S
O70 C62 1.224 . S
H71 C103 0.929 . S
H72 C105 0.930 . S
H73 C106 0.930 . S
H74 C104 0.929 . S
H75 C107 0.928 . S
O76 Co60 2.057 . S
O76 C64 1.232 . S
H77 C96 0.929 . S
H78 C97 0.929 . S
H79 C109 0.931 . S
H80 C101 0.929 . S
H81 C110 0.930 . S
H82 C102 0.931 . S
O83 Co59 2.097 . S
O83 C111 1.214 . S
H84 C112 0.929 . S
H85 C113 0.929 . S
H86 C114 0.930 . S
H87 C115 0.929 . S
H88 C117 0.930 . S
H89 C94 0.930 . S
H90 C98 0.930 . S
O91 Co60 2.037 . S
O91 C111 1.234 . S
C92 O66 1.269 . S
C92 O67 1.257 . S
C93 H68 0.930 . S
C93 C96 1.388 . S
C93 C98 1.418 . S
C94 H89 0.930 . S
C94 C97 1.404 . S
C94 C98 1.353 . S
N95 Co60 2.145 . S
N95 C96 1.397 . S
N95 C97 1.334 . S
C96 H77 0.929 . S
C96 C93 1.388 . S
C96 N95 1.397 . S
C97 H78 0.929 . S
C97 C94 1.404 . S
C97 N95 1.334 . S
C98 H90 0.930 . S
C98 C93 1.418 . S
C98 C94 1.353 . S
C99 H69 0.930 . S
C99 N100 1.330 . S
C99 C101 1.446 . S
N100 Co59 2.151 . S
N100 C99 1.330 . S
N100 C104 1.418 . S
C101 H80 0.929 . S
C101 C99 1.446 . S
C101 C102 1.332 . S
C102 H82 0.931 . S
C102 C101 1.332 . S
C102 C103 1.267 . S
C103 H71 0.929 . S
C103 C102 1.267 . S
C103 C104 1.251 . S
C104 H74 0.929 . S
C104 N100 1.418 . S
C104 C103 1.251 . S
C105 H72 0.930 . S
C105 C107 1.406 . S
C105 C110 1.261 . S
C106 H73 0.930 . S
C106 N108 1.325 . S
C106 C109 1.357 . S
C107 H75 0.928 . S
C107 C105 1.406 . S
C107 N108 1.261 . S
N108 Co59 2.214 . S
N108 C106 1.325 . S
N108 C107 1.261 . S
C109 H79 0.931 . S
C109 C106 1.357 . S
C109 C110 1.312 . S
C110 H81 0.930 . S
C110 C105 1.261 . S
C110 C109 1.312 . S
C111 O83 1.214 . S
C111 O91 1.234 . S
C112 H84 0.929 . S
C112 C115 1.391 . S
C112 C117 1.391 . S
C113 H85 0.929 . S
C113 C114 1.390 . S
C113 N116 1.391 . S
C114 H86 0.930 . S
C114 C113 1.390 . S
C114 C115 1.392 . S
C115 H87 0.929 . S
C115 C112 1.391 . S
C115 C114 1.392 . S
N116 Co60 2.257 . S
N116 C113 1.391 . S
N116 C117 1.388 . S
C117 H88 0.930 . S
C117 C112 1.391 . S
C117 N116 1.388 . S
Co118 O120 2.143 . S
Co118 O126 2.074 . S
Co118 O129 2.093 . S
Co118 O142 2.097 . S
Co118 N159 2.151 . S
Co118 N167 2.214 . S
Co119 O120 2.160 . S
Co119 O125 2.058 . S
Co119 O135 2.057 . S
Co119 O150 2.037 . S
Co119 N154 2.145 . S
Co119 N175 2.257 . S
O120 Co118 2.143 . S
O120 Co119 2.160 . S
C121 O122 1.278 . S
C121 O129 1.224 . S
O122 C121 1.278 . S
C123 O124 1.245 . S
C123 O135 1.232 . S
O124 C123 1.245 . S
O125 Co119 2.058 . S
O125 C151 1.269 . S
O126 Co118 2.074 . S
O126 C151 1.257 . S
H127 C152 0.930 . S
H128 C158 0.930 . S
O129 Co118 2.093 . S
O129 C121 1.224 . S
H130 C162 0.929 . S
H131 C164 0.930 . S
H132 C165 0.930 . S
H133 C163 0.929 . S
H134 C166 0.928 . S
O135 Co119 2.057 . S
O135 C123 1.232 . S
H136 C155 0.929 . S
H137 C156 0.929 . S
H138 C168 0.931 . S
H139 C160 0.929 . S
H140 C169 0.930 . S
H141 C161 0.931 . S
O142 Co118 2.097 . S
O142 C170 1.214 . S
H143 C171 0.929 . S
H144 C172 0.929 . S
H145 C173 0.930 . S
H146 C174 0.929 . S
H147 C176 0.930 . S
H148 C153 0.930 . S
H149 C157 0.930 . S
O150 Co119 2.037 . S
O150 C170 1.234 . S
C151 O125 1.269 . S
C151 O126 1.257 . S
C152 H127 0.930 . S
C152 C155 1.388 . S
C152 C157 1.418 . S
C153 H148 0.930 . S
C153 C156 1.404 . S
C153 C157 1.353 . S
N154 Co119 2.145 . S
N154 C155 1.397 . S
N154 C156 1.334 . S
C155 H136 0.929 . S
C155 C152 1.388 . S
C155 N154 1.397 . S
C156 H137 0.929 . S
C156 C153 1.404 . S
C156 N154 1.334 . S
C157 H149 0.930 . S
C157 C152 1.418 . S
C157 C153 1.353 . S
C158 H128 0.930 . S
C158 N159 1.330 . S
C158 C160 1.446 . S
N159 Co118 2.151 . S
N159 C158 1.330 . S
N159 C163 1.418 . S
C160 H139 0.929 . S
C160 C158 1.446 . S
C160 C161 1.332 . S
C161 H141 0.931 . S
C161 C160 1.332 . S
C161 C162 1.267 . S
C162 H130 0.929 . S
C162 C161 1.267 . S
C162 C163 1.251 . S
C163 H133 0.929 . S
C163 N159 1.418 . S
C163 C162 1.251 . S
C164 H131 0.930 . S
C164 C166 1.406 1_455 S
C164 C169 1.261 . S
C165 H132 0.930 . S
C165 N167 1.325 1_455 S
C165 C168 1.357 . S
C166 H134 0.928 . S
C166 C164 1.406 1_655 S
C166 N167 1.261 . S
N167 Co118 2.214 . S
N167 C165 1.325 1_655 S
N167 C166 1.261 . S
C168 H138 0.931 . S
C168 C165 1.357 . S
C168 C169 1.312 . S
C169 H140 0.930 . S
C169 C164 1.261 . S
C169 C168 1.312 . S
C170 O142 1.214 . S
C170 O150 1.234 . S
C171 H143 0.929 . S
C171 C174 1.391 . S
C171 C176 1.391 . S
C172 H144 0.929 . S
C172 C173 1.390 . S
C172 N175 1.391 . S
C173 H145 0.930 . S
C173 C172 1.390 . S
C173 C174 1.392 . S
C174 H146 0.929 . S
C174 C171 1.391 . S
C174 C173 1.392 . S
N175 Co119 2.257 . S
N175 C172 1.391 . S
N175 C176 1.388 . S
C176 H147 0.930 . S
C176 C171 1.391 . S
C176 N175 1.388 . S
Co177 O179 2.143 . S
Co177 O185 2.074 . S
Co177 O188 2.093 . S
Co177 O201 2.097 . S
Co177 N218 2.151 . S
Co177 N226 2.214 . S
Co178 O179 2.160 . S
Co178 O184 2.058 . S
Co178 O194 2.057 . S
Co178 O209 2.037 . S
Co178 N213 2.145 . S
Co178 N234 2.257 . S
O179 Co177 2.143 . S
O179 Co178 2.160 . S
C180 O181 1.278 . S
C180 O188 1.224 . S
O181 C180 1.278 . S
C182 O183 1.245 . S
C182 O194 1.232 . S
O183 C182 1.245 . S
O184 Co178 2.058 . S
O184 C210 1.269 . S
O185 Co177 2.074 . S
O185 C210 1.257 . S
H186 C211 0.930 . S
H187 C217 0.930 . S
O188 Co177 2.093 . S
O188 C180 1.224 . S
H189 C221 0.929 . S
H190 C223 0.930 . S
H191 C224 0.930 . S
H192 C222 0.929 . S
H193 C225 0.928 . S
O194 Co178 2.057 . S
O194 C182 1.232 . S
H195 C214 0.929 . S
H196 C215 0.929 . S
H197 C227 0.931 . S
H198 C219 0.929 . S
H199 C228 0.930 . S
H200 C220 0.931 . S
O201 Co177 2.097 . S
O201 C229 1.214 . S
H202 C230 0.929 . S
H203 C231 0.929 . S
H204 C232 0.930 . S
H205 C233 0.929 . S
H206 C235 0.930 . S
H207 C212 0.930 . S
H208 C216 0.930 . S
O209 Co178 2.037 . S
O209 C229 1.234 . S
C210 O184 1.269 . S
C210 O185 1.257 . S
C211 H186 0.930 . S
C211 C214 1.388 . S
C211 C216 1.418 . S
C212 H207 0.930 . S
C212 C215 1.404 . S
C212 C216 1.353 . S
N213 Co178 2.145 . S
N213 C214 1.397 . S
N213 C215 1.334 . S
C214 H195 0.929 . S
C214 C211 1.388 . S
C214 N213 1.397 . S
C215 H196 0.929 . S
C215 C212 1.404 . S
C215 N213 1.334 . S
C216 H208 0.930 . S
C216 C211 1.418 . S
C216 C212 1.353 . S
C217 H187 0.930 . S
C217 N218 1.330 . S
C217 C219 1.446 . S
N218 Co177 2.151 . S
N218 C217 1.330 . S
N218 C222 1.418 . S
C219 H198 0.929 . S
C219 C217 1.446 . S
C219 C220 1.332 . S
C220 H200 0.931 . S
C220 C219 1.332 . S
C220 C221 1.267 . S
C221 H189 0.929 . S
C221 C220 1.267 . S
C221 C222 1.251 . S
C222 H192 0.929 . S
C222 N218 1.418 . S
C222 C221 1.251 . S
C223 H190 0.930 . S
C223 C225 1.406 . S
C223 C228 1.261 . S
C224 H191 0.930 . S
C224 N226 1.325 . S
C224 C227 1.357 . S
C225 H193 0.928 . S
C225 C223 1.406 . S
C225 N226 1.261 . S
N226 Co177 2.214 . S
N226 C224 1.325 . S
N226 C225 1.261 . S
C227 H197 0.931 . S
C227 C224 1.357 . S
C227 C228 1.312 . S
C228 H199 0.930 . S
C228 C223 1.261 . S
C228 C227 1.312 . S
C229 O201 1.214 . S
C229 O209 1.234 . S
C230 H202 0.929 . S
C230 C233 1.391 . S
C230 C235 1.391 . S
C231 H203 0.929 . S
C231 C232 1.390 . S
C231 N234 1.391 . S
C232 H204 0.930 . S
C232 C231 1.390 . S
C232 C233 1.392 . S
C233 H205 0.929 . S
C233 C230 1.391 . S
C233 C232 1.392 . S
N234 Co178 2.257 . S
N234 C231 1.391 . S
N234 C235 1.388 . S
C235 H206 0.930 . S
C235 C230 1.391 . S
C235 N234 1.388 . S
Co236 O238 2.143 . S
Co236 O244 2.074 . S
Co236 O247 2.093 . S
Co236 O260 2.097 . S
Co236 N277 2.151 . S
Co236 N285 2.214 . S
Co237 O238 2.160 . S
Co237 O243 2.058 . S
Co237 O253 2.057 . S
Co237 O268 2.037 . S
Co237 N272 2.145 . S
Co237 N293 2.257 . S
O238 Co236 2.143 . S
O238 Co237 2.160 . S
C239 O240 1.278 . S
C239 O247 1.224 . S
O240 C239 1.278 . S
C241 O242 1.245 . S
C241 O253 1.232 . S
O242 C241 1.245 . S
O243 Co237 2.058 . S
O243 C269 1.269 . S
O244 Co236 2.074 . S
O244 C269 1.257 . S
H245 C270 0.930 . S
H246 C276 0.930 . S
O247 Co236 2.093 . S
O247 C239 1.224 . S
H248 C280 0.929 . S
H249 C282 0.930 . S
H250 C283 0.930 . S
H251 C281 0.929 . S
H252 C284 0.928 . S
O253 Co237 2.057 . S
O253 C241 1.232 . S
H254 C273 0.929 . S
H255 C274 0.929 . S
H256 C286 0.931 . S
H257 C278 0.929 . S
H258 C287 0.930 . S
H259 C279 0.931 . S
O260 Co236 2.097 . S
O260 C288 1.214 . S
H261 C289 0.929 . S
H262 C290 0.929 . S
H263 C291 0.930 . S
H264 C292 0.929 . S
H265 C294 0.930 . S
H266 C271 0.930 . S
H267 C275 0.930 . S
O268 Co237 2.037 . S
O268 C288 1.234 . S
C269 O243 1.269 . S
C269 O244 1.257 . S
C270 H245 0.930 . S
C270 C273 1.388 . S
C270 C275 1.418 . S
C271 H266 0.930 . S
C271 C274 1.404 . S
C271 C275 1.353 . S
N272 Co237 2.145 . S
N272 C273 1.397 . S
N272 C274 1.334 . S
C273 H254 0.929 . S
C273 C270 1.388 . S
C273 N272 1.397 . S
C274 H255 0.929 . S
C274 C271 1.404 . S
C274 N272 1.334 . S
C275 H267 0.930 . S
C275 C270 1.418 . S
C275 C271 1.353 . S
C276 H246 0.930 . S
C276 N277 1.330 . S
C276 C278 1.446 . S
N277 Co236 2.151 . S
N277 C276 1.330 . S
N277 C281 1.418 . S
C278 H257 0.929 . S
C278 C276 1.446 . S
C278 C279 1.332 . S
C279 H259 0.931 . S
C279 C278 1.332 . S
C279 C280 1.267 . S
C280 H248 0.929 . S
C280 C279 1.267 . S
C280 C281 1.251 . S
C281 H251 0.929 . S
C281 N277 1.418 . S
C281 C280 1.251 . S
C282 H249 0.930 . S
C282 C284 1.406 . S
C282 C287 1.261 . S
C283 H250 0.930 . S
C283 N285 1.325 . S
C283 C286 1.357 . S
C284 H252 0.928 . S
C284 C282 1.406 . S
C284 N285 1.261 . S
N285 Co236 2.214 . S
N285 C283 1.325 . S
N285 C284 1.261 . S
C286 H256 0.931 . S
C286 C283 1.357 . S
C286 C287 1.312 . S
C287 H258 0.930 . S
C287 C282 1.261 . S
C287 C286 1.312 . S
C288 O260 1.214 . S
C288 O268 1.234 . S
C289 H261 0.929 . S
C289 C292 1.391 . S
C289 C294 1.391 . S
C290 H262 0.929 . S
C290 C291 1.390 . S
C290 N293 1.391 . S
C291 H263 0.930 . S
C291 C290 1.390 . S
C291 C292 1.392 . S
C292 H264 0.929 . S
C292 C289 1.391 . S
C292 C291 1.392 . S
N293 Co237 2.257 . S
N293 C290 1.391 . S
N293 C294 1.388 . S
C294 H265 0.930 . S
C294 C289 1.391 . S
C294 N293 1.388 . S
Co295 O297 2.143 . S
Co295 O303 2.074 . S
Co295 O306 2.093 . S
Co295 O319 2.097 . S
Co295 N336 2.151 . S
Co295 N344 2.214 . S
Co296 O297 2.160 . S
Co296 O302 2.058 . S
Co296 O312 2.057 . S
Co296 O327 2.037 . S
Co296 N331 2.145 . S
Co296 N352 2.257 . S
O297 Co295 2.143 . S
O297 Co296 2.160 . S
C298 O299 1.278 . S
C298 O306 1.224 . S
O299 C298 1.278 . S
C300 O301 1.245 . S
C300 O312 1.232 . S
O301 C300 1.245 . S
O302 Co296 2.058 . S
O302 C328 1.269 . S
O303 Co295 2.074 . S
O303 C328 1.257 . S
H304 C329 0.930 . S
H305 C335 0.930 . S
O306 Co295 2.093 . S
O306 C298 1.224 . S
H307 C339 0.929 . S
H308 C341 0.930 . S
H309 C342 0.930 . S
H310 C340 0.929 . S
H311 C343 0.928 . S
O312 Co296 2.057 . S
O312 C300 1.232 . S
H313 C332 0.929 . S
H314 C333 0.929 . S
H315 C345 0.931 . S
H316 C337 0.929 . S
H317 C346 0.930 . S
H318 C338 0.931 . S
O319 Co295 2.097 . S
O319 C347 1.214 . S
H320 C348 0.929 . S
H321 C349 0.929 . S
H322 C350 0.930 . S
H323 C351 0.929 . S
H324 C353 0.930 . S
H325 C330 0.930 . S
H326 C334 0.930 . S
O327 Co296 2.037 . S
O327 C347 1.234 . S
C328 O302 1.269 . S
C328 O303 1.257 . S
C329 H304 0.930 . S
C329 C332 1.388 . S
C329 C334 1.418 . S
C330 H325 0.930 . S
C330 C333 1.404 . S
C330 C334 1.353 . S
N331 Co296 2.145 . S
N331 C332 1.397 . S
N331 C333 1.334 . S
C332 H313 0.929 . S
C332 C329 1.388 . S
C332 N331 1.397 . S
C333 H314 0.929 . S
C333 C330 1.404 . S
C333 N331 1.334 . S
C334 H326 0.930 . S
C334 C329 1.418 . S
C334 C330 1.353 . S
C335 H305 0.930 . S
C335 N336 1.330 . S
C335 C337 1.446 . S
N336 Co295 2.151 . S
N336 C335 1.330 . S
N336 C340 1.418 . S
C337 H316 0.929 . S
C337 C335 1.446 . S
C337 C338 1.332 . S
C338 H318 0.931 . S
C338 C337 1.332 . S
C338 C339 1.267 . S
C339 H307 0.929 . S
C339 C338 1.267 . S
C339 C340 1.251 . S
C340 H310 0.929 . S
C340 N336 1.418 . S
C340 C339 1.251 . S
C341 H308 0.930 . S
C341 C343 1.406 1_565 S
C341 C346 1.261 . S
C342 H309 0.930 . S
C342 N344 1.325 1_565 S
C342 C345 1.357 . S
C343 H311 0.928 . S
C343 C341 1.406 1_545 S
C343 N344 1.261 . S
N344 Co295 2.214 . S
N344 C342 1.325 1_545 S
N344 C343 1.261 . S
C345 H315 0.931 . S
C345 C342 1.357 . S
C345 C346 1.312 . S
C346 H317 0.930 . S
C346 C341 1.261 . S
C346 C345 1.312 . S
C347 O319 1.214 . S
C347 O327 1.234 . S
C348 H320 0.929 . S
C348 C351 1.391 . S
C348 C353 1.391 . S
C349 H321 0.929 . S
C349 C350 1.390 . S
C349 N352 1.391 . S
C350 H322 0.930 . S
C350 C349 1.390 . S
C350 C351 1.392 . S
C351 H323 0.929 . S
C351 C348 1.391 . S
C351 C350 1.392 . S
N352 Co296 2.257 . S
N352 C349 1.391 . S
N352 C353 1.388 . S
C353 H324 0.930 . S
C353 C348 1.391 . S
C353 N352 1.388 . S
Co354 O356 2.143 . S
Co354 O362 2.074 . S
Co354 O365 2.093 . S
Co354 O378 2.097 . S
Co354 N395 2.151 . S
Co354 N403 2.214 . S
Co355 O356 2.160 . S
Co355 O361 2.058 . S
Co355 O371 2.057 . S
Co355 O386 2.037 . S
Co355 N390 2.145 . S
Co355 N411 2.257 . S
O356 Co354 2.143 . S
O356 Co355 2.160 . S
C357 O358 1.278 . S
C357 O365 1.224 . S
O358 C357 1.278 . S
C359 O360 1.245 . S
C359 O371 1.232 . S
O360 C359 1.245 . S
O361 Co355 2.058 . S
O361 C387 1.269 . S
O362 Co354 2.074 . S
O362 C387 1.257 . S
H363 C388 0.930 . S
H364 C394 0.930 . S
O365 Co354 2.093 . S
O365 C357 1.224 . S
H366 C398 0.929 . S
H367 C400 0.930 . S
H368 C401 0.930 . S
H369 C399 0.929 . S
H370 C402 0.928 . S
O371 Co355 2.057 . S
O371 C359 1.232 . S
H372 C391 0.929 . S
H373 C392 0.929 . S
H374 C404 0.931 . S
H375 C396 0.929 . S
H376 C405 0.930 . S
H377 C397 0.931 . S
O378 Co354 2.097 . S
O378 C406 1.214 . S
H379 C407 0.929 . S
H380 C408 0.929 . S
H381 C409 0.930 . S
H382 C410 0.929 . S
H383 C412 0.930 . S
H384 C389 0.930 . S
H385 C393 0.930 . S
O386 Co355 2.037 . S
O386 C406 1.234 . S
C387 O361 1.269 . S
C387 O362 1.257 . S
C388 H363 0.930 . S
C388 C391 1.388 . S
C388 C393 1.418 . S
C389 H384 0.930 . S
C389 C392 1.404 . S
C389 C393 1.353 . S
N390 Co355 2.145 . S
N390 C391 1.397 . S
N390 C392 1.334 . S
C391 H372 0.929 . S
C391 C388 1.388 . S
C391 N390 1.397 . S
C392 H373 0.929 . S
C392 C389 1.404 . S
C392 N390 1.334 . S
C393 H385 0.930 . S
C393 C388 1.418 . S
C393 C389 1.353 . S
C394 H364 0.930 . S
C394 N395 1.330 . S
C394 C396 1.446 . S
N395 Co354 2.151 . S
N395 C394 1.330 . S
N395 C399 1.418 . S
C396 H375 0.929 . S
C396 C394 1.446 . S
C396 C397 1.332 . S
C397 H377 0.931 . S
C397 C396 1.332 . S
C397 C398 1.267 . S
C398 H366 0.929 . S
C398 C397 1.267 . S
C398 C399 1.251 . S
C399 H369 0.929 . S
C399 N395 1.418 . S
C399 C398 1.251 . S
C400 H367 0.930 . S
C400 C402 1.406 . S
C400 C405 1.261 . S
C401 H368 0.930 . S
C401 N403 1.325 . S
C401 C404 1.357 . S
C402 H370 0.928 . S
C402 C400 1.406 . S
C402 N403 1.261 . S
N403 Co354 2.214 . S
N403 C401 1.325 . S
N403 C402 1.261 . S
C404 H374 0.931 . S
C404 C401 1.357 . S
C404 C405 1.312 . S
C405 H376 0.930 . S
C405 C400 1.261 . S
C405 C404 1.312 . S
C406 O378 1.214 . S
C406 O386 1.234 . S
C407 H379 0.929 . S
C407 C410 1.391 . S
C407 C412 1.391 . S
C408 H380 0.929 . S
C408 C409 1.390 . S
C408 N411 1.391 . S
C409 H381 0.930 . S
C409 C408 1.390 . S
C409 C410 1.392 . S
C410 H382 0.929 . S
C410 C407 1.391 . S
C410 C409 1.392 . S
N411 Co355 2.257 . S
N411 C408 1.391 . S
N411 C412 1.388 . S
C412 H383 0.930 . S
C412 C407 1.391 . S
C412 N411 1.388 . S
Co413 O415 2.143 . S
Co413 O421 2.074 . S
Co413 O424 2.093 . S
Co413 O437 2.097 . S
Co413 N454 2.151 . S
Co413 N462 2.214 . S
Co414 O415 2.160 . S
Co414 O420 2.058 . S
Co414 O430 2.057 . S
Co414 O445 2.037 . S
Co414 N449 2.145 . S
Co414 N470 2.257 . S
O415 Co413 2.143 . S
O415 Co414 2.160 . S
C416 O417 1.278 . S
C416 O424 1.224 . S
O417 C416 1.278 . S
C418 O419 1.245 . S
C418 O430 1.232 . S
O419 C418 1.245 . S
O420 Co414 2.058 . S
O420 C446 1.269 . S
O421 Co413 2.074 . S
O421 C446 1.257 . S
H422 C447 0.930 . S
H423 C453 0.930 . S
O424 Co413 2.093 . S
O424 C416 1.224 . S
H425 C457 0.929 . S
H426 C459 0.930 . S
H427 C460 0.930 . S
H428 C458 0.929 . S
H429 C461 0.928 . S
O430 Co414 2.057 . S
O430 C418 1.232 . S
H431 C450 0.929 . S
H432 C451 0.929 . S
H433 C463 0.931 . S
H434 C455 0.929 . S
H435 C464 0.930 . S
H436 C456 0.931 . S
O437 Co413 2.097 . S
O437 C465 1.214 . S
H438 C466 0.929 . S
H439 C467 0.929 . S
H440 C468 0.930 . S
H441 C469 0.929 . S
H442 C471 0.930 . S
H443 C448 0.930 . S
H444 C452 0.930 . S
O445 Co414 2.037 . S
O445 C465 1.234 . S
C446 O420 1.269 . S
C446 O421 1.257 . S
C447 H422 0.930 . S
C447 C450 1.388 . S
C447 C452 1.418 . S
C448 H443 0.930 . S
C448 C451 1.404 . S
C448 C452 1.353 . S
N449 Co414 2.145 . S
N449 C450 1.397 . S
N449 C451 1.334 . S
C450 H431 0.929 . S
C450 C447 1.388 . S
C450 N449 1.397 . S
C451 H432 0.929 . S
C451 C448 1.404 . S
C451 N449 1.334 . S
C452 H444 0.930 . S
C452 C447 1.418 . S
C452 C448 1.353 . S
C453 H423 0.930 . S
C453 N454 1.330 . S
C453 C455 1.446 . S
N454 Co413 2.151 . S
N454 C453 1.330 . S
N454 C458 1.418 . S
C455 H434 0.929 . S
C455 C453 1.446 . S
C455 C456 1.332 . S
C456 H436 0.931 . S
C456 C455 1.332 . S
C456 C457 1.267 . S
C457 H425 0.929 . S
C457 C456 1.267 . S
C457 C458 1.251 . S
C458 H428 0.929 . S
C458 N454 1.418 . S
C458 C457 1.251 . S
C459 H426 0.930 . S
C459 C461 1.406 1_545 S
C459 C464 1.261 . S
C460 H427 0.930 . S
C460 N462 1.325 1_545 S
C460 C463 1.357 . S
C461 H429 0.928 . S
C461 C459 1.406 1_565 S
C461 N462 1.261 . S
N462 Co413 2.214 . S
N462 C460 1.325 1_565 S
N462 C461 1.261 . S
C463 H433 0.931 . S
C463 C460 1.357 . S
C463 C464 1.312 . S
C464 H435 0.930 . S
C464 C459 1.261 . S
C464 C463 1.312 . S
C465 O437 1.214 . S
C465 O445 1.234 . S
C466 H438 0.929 . S
C466 C469 1.391 . S
C466 C471 1.391 . S
C467 H439 0.929 . S
C467 C468 1.390 . S
C467 N470 1.391 . S
C468 H440 0.930 . S
C468 C467 1.390 . S
C468 C469 1.392 . S
C469 H441 0.929 . S
C469 C466 1.391 . S
C469 C468 1.392 . S
N470 Co414 2.257 . S
N470 C467 1.391 . S
N470 C471 1.388 . S
C471 H442 0.930 . S
C471 C466 1.391 . S
C471 N470 1.388 . S
H472 C478 0.930 . S
H473 C482 0.930 . S
H474 C487 0.929 . S
H475 C485 0.929 . S
H476 C480 0.929 . S
H477 C486 0.929 . S
C478 H472 0.930 . S
C478 C479 1.367 . S
C478 C486 1.378 . S
C479 C478 1.367 . S
C479 C487 1.433 . S
C480 H476 0.929 . S
C480 C482 1.378 . S
C480 C484 1.350 . S
C481 C484 1.463 1_445 S
C481 C486 1.350 . S
C481 N489 1.427 . S
C482 H473 0.930 . S
C482 C480 1.378 . S
C482 C483 1.367 . S
C483 C482 1.367 . S
C483 C485 1.433 . S
C484 C480 1.350 . S
C484 C481 1.463 1_665 S
C484 N488 1.427 . S
C485 H475 0.929 . S
C485 C483 1.433 . S
C485 N488 1.384 . S
C486 H477 0.929 . S
C486 C478 1.378 . S
C486 C481 1.350 . S
C487 H474 0.929 . S
C487 C479 1.433 . S
C487 N489 1.384 . S
N488 C484 1.427 . S
N488 C485 1.384 . S
N489 C481 1.427 . S
N489 C487 1.384 . S
H490 C496 0.930 . S
H491 C500 0.930 . S
H492 C505 0.929 . S
H493 C503 0.929 . S
H494 C498 0.929 . S
H495 C504 0.929 . S
C496 H490 0.930 . S
C496 C497 1.367 . S
C496 C504 1.378 . S
C497 C496 1.367 . S
C497 C505 1.433 . S
C498 H494 0.929 . S
C498 C500 1.378 . S
C498 C502 1.350 . S
C499 C502 1.463 . S
C499 C504 1.350 . S
C499 N507 1.427 . S
C500 H491 0.930 . S
C500 C498 1.378 . S
C500 C501 1.367 . S
C501 C500 1.367 . S
C501 C503 1.433 . S
C502 C498 1.350 . S
C502 C499 1.463 . S
C502 N506 1.427 . S
C503 H493 0.929 . S
C503 C501 1.433 . S
C503 N506 1.384 . S
C504 H495 0.929 . S
C504 C496 1.378 . S
C504 C499 1.350 . S
C505 H492 0.929 . S
C505 C497 1.433 . S
C505 N507 1.384 . S
N506 C502 1.427 . S
N506 C503 1.384 . S
N507 C499 1.427 . S
N507 C505 1.384 . S
H508 C514 0.930 . S
H509 C518 0.930 . S
H510 C523 0.929 . S
H511 C521 0.929 . S
H512 C516 0.929 . S
H513 C522 0.929 . S
C514 H508 0.930 . S
C514 C515 1.367 . S
C514 C522 1.378 . S
C515 C514 1.367 . S
C515 C523 1.433 . S
C516 H512 0.929 . S
C516 C518 1.378 . S
C516 C520 1.350 . S
C517 C520 1.463 . S
C517 C522 1.350 . S
C517 N525 1.427 . S
C518 H509 0.930 . S
C518 C516 1.378 . S
C518 C519 1.367 . S
C519 C518 1.367 . S
C519 C521 1.433 . S
C520 C516 1.350 . S
C520 C517 1.463 . S
C520 N524 1.427 . S
C521 H511 0.929 . S
C521 C519 1.433 . S
C521 N524 1.384 . S
C522 H513 0.929 . S
C522 C514 1.378 . S
C522 C517 1.350 . S
C523 H510 0.929 . S
C523 C515 1.433 . S
C523 N525 1.384 . S
N524 C520 1.427 . S
N524 C521 1.384 . S
N525 C517 1.427 . S
N525 C523 1.384 . S
H526 C532 0.930 . S
H527 C536 0.930 . S
H528 C541 0.929 . S
H529 C539 0.929 . S
H530 C534 0.929 . S
H531 C540 0.929 . S
C532 H526 0.930 . S
C532 C533 1.367 . S
C532 C540 1.378 . S
C533 C532 1.367 . S
C533 C541 1.433 . S
C534 H530 0.929 . S
C534 C536 1.378 . S
C534 C538 1.350 . S
C535 C538 1.463 1_445 S
C535 C540 1.350 . S
C535 N543 1.427 . S
C536 H527 0.930 . S
C536 C534 1.378 . S
C536 C537 1.367 . S
C537 C536 1.367 . S
C537 C539 1.433 . S
C538 C534 1.350 . S
C538 C535 1.463 1_665 S
C538 N542 1.427 . S
C539 H529 0.929 . S
C539 C537 1.433 . S
C539 N542 1.384 . S
C540 H531 0.929 . S
C540 C532 1.378 . S
C540 C535 1.350 . S
C541 H528 0.929 . S
C541 C533 1.433 . S
C541 N543 1.384 . S
N542 C538 1.427 . S
N542 C539 1.384 . S
N543 C535 1.427 . S
N543 C541 1.384 . S
H544 C550 0.930 . S
H545 C554 0.930 . S
H546 C559 0.929 . S
H547 C557 0.929 . S
H548 C552 0.929 . S
H549 C558 0.929 . S
C550 H544 0.930 . S
C550 C551 1.367 . S
C550 C558 1.378 . S
C551 C550 1.367 . S
C551 C559 1.433 . S
C552 H548 0.929 . S
C552 C554 1.378 . S
C552 C556 1.350 . S
C553 C556 1.463 . S
C553 C558 1.350 . S
C553 N561 1.427 . S
C554 H545 0.930 . S
C554 C552 1.378 . S
C554 C555 1.367 . S
C555 C554 1.367 . S
C555 C557 1.433 . S
C556 C552 1.350 . S
C556 C553 1.463 . S
C556 N560 1.427 . S
C557 H547 0.929 . S
C557 C555 1.433 . S
C557 N560 1.384 . S
C558 H549 0.929 . S
C558 C550 1.378 . S
C558 C553 1.350 . S
C559 H546 0.929 . S
C559 C551 1.433 . S
C559 N561 1.384 . S
N560 C556 1.427 . S
N560 C557 1.384 . S
N561 C553 1.427 . S
N561 C559 1.384 . S
H562 C568 0.930 . S
H563 C572 0.930 . S
H564 C577 0.929 . S
H565 C575 0.929 . S
H566 C570 0.929 . S
H567 C576 0.929 . S
C568 H562 0.930 . S
C568 C569 1.367 . S
C568 C576 1.378 . S
C569 C568 1.367 . S
C569 C577 1.433 . S
C570 H566 0.929 . S
C570 C572 1.378 . S
C570 C574 1.350 . S
C571 C574 1.463 1_556 S
C571 C576 1.350 . S
C571 N579 1.427 . S
C572 H563 0.930 . S
C572 C570 1.378 . S
C572 C573 1.367 . S
C573 C572 1.367 . S
C573 C575 1.433 . S
C574 C570 1.350 . S
C574 C571 1.463 1_554 S
C574 N578 1.427 . S
C575 H565 0.929 . S
C575 C573 1.433 . S
C575 N578 1.384 . S
C576 H567 0.929 . S
C576 C568 1.378 . S
C576 C571 1.350 . S
C577 H564 0.929 . S
C577 C569 1.433 . S
C577 N579 1.384 . S
N578 C574 1.427 . S
N578 C575 1.384 . S
N579 C571 1.427 . S
N579 C577 1.384 . S
H580 C586 0.930 . S
H581 C590 0.930 . S
H582 C595 0.929 . S
H583 C593 0.929 . S
H584 C588 0.929 . S
H585 C594 0.929 . S
C586 H580 0.930 . S
C586 C587 1.367 . S
C586 C594 1.378 . S
C587 C586 1.367 . S
C587 C595 1.433 . S
C588 H584 0.929 . S
C588 C590 1.378 . S
C588 C592 1.350 . S
C589 C592 1.463 . S
C589 C594 1.350 . S
C589 N597 1.427 . S
C590 H581 0.930 . S
C590 C588 1.378 . S
C590 C591 1.367 . S
C591 C590 1.367 . S
C591 C593 1.433 . S
C592 C588 1.350 . S
C592 C589 1.463 . S
C592 N596 1.427 . S
C593 H583 0.929 . S
C593 C591 1.433 . S
C593 N596 1.384 . S
C594 H585 0.929 . S
C594 C586 1.378 . S
C594 C589 1.350 . S
C595 H582 0.929 . S
C595 C587 1.433 . S
C595 N597 1.384 . S
N596 C592 1.427 . S
N596 C593 1.384 . S
N597 C589 1.427 . S
N597 C595 1.384 . S
H598 C604 0.930 . S
H599 C608 0.930 . S
H600 C613 0.929 . S
H601 C611 0.929 . S
H602 C606 0.929 . S
H603 C612 0.929 . S
C604 H598 0.930 . S
C604 C605 1.367 . S
C604 C612 1.378 . S
C605 C604 1.367 . S
C605 C613 1.433 . S
C606 H602 0.929 . S
C606 C608 1.378 . S
C606 C610 1.350 . S
C607 C610 1.463 1_556 S
C607 C612 1.350 . S
C607 N615 1.427 . S
C608 H599 0.930 . S
C608 C606 1.378 . S
C608 C609 1.367 . S
C609 C608 1.367 . S
C609 C611 1.433 . S
C610 C606 1.350 . S
C610 C607 1.463 1_554 S
C610 N614 1.427 . S
C611 H601 0.929 . S
C611 C609 1.433 . S
C611 N614 1.384 . S
C612 H603 0.929 . S
C612 C604 1.378 . S
C612 C607 1.350 . S
C613 H600 0.929 . S
C613 C605 1.433 . S
C613 N615 1.384 . S
N614 C610 1.427 . S
N614 C611 1.384 . S
N615 C607 1.427 . S
N615 C613 1.384 . S
H616 C622 0.930 . S
H617 C626 0.930 . S
H618 C631 0.929 . S
H619 C629 0.929 . S
H620 C624 0.929 . S
H621 C630 0.929 . S
C622 H616 0.930 . S
C622 C623 1.367 . S
C622 C630 1.378 . S
C623 C622 1.367 . S
C623 C631 1.433 . S
C624 H620 0.929 . S
C624 C626 1.378 . S
C624 C628 1.350 . S
C625 C628 1.463 . S
C625 C630 1.350 . S
C625 N633 1.427 . S
C626 H617 0.930 . S
C626 C624 1.378 . S
C626 C627 1.367 . S
C627 C626 1.367 . S
C627 C629 1.433 . S
C628 C624 1.350 . S
C628 C625 1.463 . S
C628 N632 1.427 . S
C629 H619 0.929 . S
C629 C627 1.433 . S
C629 N632 1.384 . S
C630 H621 0.929 . S
C630 C622 1.378 . S
C630 C625 1.350 . S
C631 H618 0.929 . S
C631 C623 1.433 . S
C631 N633 1.384 . S
N632 C628 1.427 . S
N632 C629 1.384 . S
N633 C625 1.427 . S
N633 C631 1.384 . S
H634 C640 0.930 . S
H635 C644 0.930 . S
H636 C649 0.929 . S
H637 C647 0.929 . S
H638 C642 0.929 . S
H639 C648 0.929 . S
C640 H634 0.930 . S
C640 C641 1.367 . S
C640 C648 1.378 . S
C641 C640 1.367 . S
C641 C649 1.433 . S
C642 H638 0.929 . S
C642 C644 1.378 1_565 S
C642 C646 1.350 . S
C643 C646 1.463 . S
C643 C648 1.350 . S
C643 N651 1.427 . S
C644 H635 0.930 . S
C644 C642 1.378 1_545 S
C644 C645 1.367 . S
C645 C644 1.367 . S
C645 C647 1.433 1_545 S
C646 C642 1.350 . S
C646 C643 1.463 . S
C646 N650 1.427 . S
C647 H637 0.929 . S
C647 C645 1.433 1_565 S
C647 N650 1.384 . S
C648 H639 0.929 . S
C648 C640 1.378 . S
C648 C643 1.350 . S
C649 H636 0.929 . S
C649 C641 1.433 . S
C649 N651 1.384 . S
N650 C646 1.427 . S
N650 C647 1.384 . S
N651 C643 1.427 . S
N651 C649 1.384 . S
H652 C658 0.930 . S
H653 C662 0.930 . S
H654 C667 0.929 . S
H655 C665 0.929 . S
H656 C660 0.929 . S
H657 C666 0.929 . S
C658 H652 0.930 . S
C658 C659 1.367 . S
C658 C666 1.378 . S
C659 C658 1.367 . S
C659 C667 1.433 . S
C660 H656 0.929 . S
C660 C662 1.378 . S
C660 C664 1.350 . S
C661 C664 1.463 . S
C661 C666 1.350 . S
C661 N669 1.427 . S
C662 H653 0.930 . S
C662 C660 1.378 . S
C662 C663 1.367 . S
C663 C662 1.367 . S
C663 C665 1.433 . S
C664 C660 1.350 . S
C664 C661 1.463 . S
C664 N668 1.427 . S
C665 H655 0.929 . S
C665 C663 1.433 . S
C665 N668 1.384 . S
C666 H657 0.929 . S
C666 C658 1.378 . S
C666 C661 1.350 . S
C667 H654 0.929 . S
C667 C659 1.433 . S
C667 N669 1.384 . S
N668 C664 1.427 . S
N668 C665 1.384 . S
N669 C661 1.427 . S
N669 C667 1.384 . S
H670 C676 0.930 . S
H671 C680 0.930 . S
H672 C685 0.929 . S
H673 C683 0.929 . S
H674 C678 0.929 . S
H675 C684 0.929 . S
C676 H670 0.930 . S
C676 C677 1.367 . S
C676 C684 1.378 . S
C677 C676 1.367 . S
C677 C685 1.433 . S
C678 H674 0.929 . S
C678 C680 1.378 1_545 S
C678 C682 1.350 . S
C679 C682 1.463 . S
C679 C684 1.350 . S
C679 N687 1.427 . S
C680 H671 0.930 . S
C680 C678 1.378 1_565 S
C680 C681 1.367 . S
C681 C680 1.367 . S
C681 C683 1.433 1_565 S
C682 C678 1.350 . S
C682 C679 1.463 . S
C682 N686 1.427 . S
C683 H673 0.929 . S
C683 C681 1.433 1_545 S
C683 N686 1.384 . S
C684 H675 0.929 . S
C684 C676 1.378 . S
C684 C679 1.350 . S
C685 H672 0.929 . S
C685 C677 1.433 . S
C685 N687 1.384 . S
N686 C682 1.427 . S
N686 C683 1.384 . S
N687 C679 1.427 . S
N687 C685 1.384 . S
H688 C694 0.930 . S
H689 C698 0.930 . S
H690 C703 0.929 . S
H691 C701 0.929 . S
H692 C696 0.929 . S
H693 C702 0.929 . S
C694 H688 0.930 . S
C694 C695 1.367 . S
C694 C702 1.378 1_455 S
C695 C694 1.367 . S
C695 C703 1.433 . S
C696 H692 0.929 . S
C696 C698 1.378 . S
C696 C700 1.350 . S
C697 C700 1.463 . S
C697 C702 1.350 . S
C697 N705 1.427 . S
C698 H689 0.930 . S
C698 C696 1.378 . S
C698 C699 1.367 . S
C699 C698 1.367 . S
C699 C701 1.433 . S
C700 C696 1.350 . S
C700 C697 1.463 . S
C700 N704 1.427 . S
C701 H691 0.929 . S
C701 C699 1.433 . S
C701 N704 1.384 . S
C702 H693 0.929 . S
C702 C694 1.378 1_655 S
C702 C697 1.350 . S
C703 H690 0.929 . S
C703 C695 1.433 . S
C703 N705 1.384 1_455 S
N704 C700 1.427 . S
N704 C701 1.384 . S
N705 C697 1.427 . S
N705 C703 1.384 1_655 S
H706 C712 0.930 . S
H707 C716 0.930 . S
H708 C721 0.929 . S
H709 C719 0.929 . S
H710 C714 0.929 . S
H711 C720 0.929 . S
C712 H706 0.930 . S
C712 C713 1.367 . S
C712 C720 1.378 . S
C713 C712 1.367 . S
C713 C721 1.433 . S
C714 H710 0.929 . S
C714 C716 1.378 . S
C714 C718 1.350 . S
C715 C718 1.463 . S
C715 C720 1.350 . S
C715 N723 1.427 . S
C716 H707 0.930 . S
C716 C714 1.378 . S
C716 C717 1.367 . S
C717 C716 1.367 . S
C717 C719 1.433 . S
C718 C714 1.350 . S
C718 C715 1.463 . S
C718 N722 1.427 . S
C719 H709 0.929 . S
C719 C717 1.433 . S
C719 N722 1.384 . S
C720 H711 0.929 . S
C720 C712 1.378 . S
C720 C715 1.350 . S
C721 H708 0.929 . S
C721 C713 1.433 . S
C721 N723 1.384 . S
N722 C718 1.427 . S
N722 C719 1.384 . S
N723 C715 1.427 . S
N723 C721 1.384 . S
H724 C730 0.930 . S
H725 C734 0.930 . S
H726 C739 0.929 . S
H727 C737 0.929 . S
H728 C732 0.929 . S
H729 C738 0.929 . S
C730 H724 0.930 . S
C730 C731 1.367 . S
C730 C738 1.378 . S
C731 C730 1.367 . S
C731 C739 1.433 . S
C732 H728 0.929 . S
C732 C734 1.378 1_455 S
C732 C736 1.350 . S
C733 C736 1.463 . S
C733 C738 1.350 . S
C733 N741 1.427 . S
C734 H725 0.930 . S
C734 C732 1.378 1_655 S
C734 C735 1.367 . S
C735 C734 1.367 . S
C735 C737 1.433 1_655 S
C736 C732 1.350 . S
C736 C733 1.463 . S
C736 N740 1.427 . S
C737 H727 0.929 . S
C737 C735 1.433 1_455 S
C737 N740 1.384 . S
C738 H729 0.929 . S
C738 C730 1.378 . S
C738 C733 1.350 . S
C739 H726 0.929 . S
C739 C731 1.433 . S
C739 N741 1.384 . S
N740 C736 1.427 . S
N740 C737 1.384 . S
N741 C733 1.427 . S
N741 C739 1.384 . S
H742 C748 0.930 . S
H743 C752 0.930 . S
H744 C757 0.929 . S
H745 C755 0.929 . S
H746 C750 0.929 . S
H747 C756 0.929 . S
C748 H742 0.930 . S
C748 C749 1.367 . S
C748 C756 1.378 . S
C749 C748 1.367 . S
C749 C757 1.433 . S
C750 H746 0.929 . S
C750 C752 1.378 . S
C750 C754 1.350 . S
C751 C754 1.463 . S
C751 C756 1.350 . S
C751 N759 1.427 . S
C752 H743 0.930 . S
C752 C750 1.378 . S
C752 C753 1.367 . S
C753 C752 1.367 . S
C753 C755 1.433 . S
C754 C750 1.350 . S
C754 C751 1.463 . S
C754 N758 1.427 . S
C755 H745 0.929 . S
C755 C753 1.433 . S
C755 N758 1.384 . S
C756 H747 0.929 . S
C756 C748 1.378 . S
C756 C751 1.350 . S
C757 H744 0.929 . S
C757 C749 1.433 . S
C757 N759 1.384 . S
N758 C754 1.427 . S
N758 C755 1.384 . S
N759 C751 1.427 . S
N759 C757 1.384 . S
C479 C52 0.910 . S
C483 C170 0.911 . S
C497 C111 0.911 . S
C501 C229 0.910 . S
C515 C288 0.912 . S
C519 C406 0.911 . S
C533 C347 0.910 . S
C537 C465 0.911 . S
C551 C3 1.415 . S
C555 C298 1.411 . S
C569 C62 1.408 . S
C573 C357 1.416 . S
C587 C416 1.406 . S
C591 C121 1.419 . S
C605 C180 1.419 . S
C609 C239 1.406 . S
C623 C269 1.759 . S
C627 C5 1.788 . S
C641 C64 1.783 . S
C645 C328 1.757 . S
C659 C123 1.780 . S
C663 C387 1.751 . S
C677 C182 1.785 . S
C681 C446 1.760 . S
C695 C33 1.762 . S
C699 C241 1.788 . S
C713 C300 1.782 . S
C717 C92 1.750 . S
C731 C359 1.780 . S
C735 C151 1.753 . S
C749 C210 1.752 . S
C753 C418 1.783 . S
