# Generated by pormake.
# Topology wnd, (6)-cn, num edge types: 1
# Building blocks:
#     Node 0, Type 0, BuildingBlock: CUKXOW_clean_sbu_0, # of connection points: 6
#     Node 1, Type 0, BuildingBlock: CUKXOW_clean_sbu_0, # of connection points: 6
#     Node 2, Type 0, BuildingBlock: CUKXOW_clean_sbu_0, # of connection points: 6
#     Node 3, Type 0, BuildingBlock: CUKXOW_clean_sbu_0, # of connection points: 6
#     Node 4, Type 0, BuildingBlock: CUKXOW_clean_sbu_0, # of connection points: 6
#     Node 5, Type 0, BuildingBlock: CUKXOW_clean_sbu_0, # of connection points: 6
#     Node 6, Type 0, BuildingBlock: CUKXOW_clean_sbu_0, # of connection points: 6
#     Node 7, Type 0, BuildingBlock: CUKXOW_clean_sbu_0, # of connection points: 6
#     Node 8, Type 0, BuildingBlock: CUKXOW_clean_sbu_0, # of connection points: 6
#     Node 9, Type 0, BuildingBlock: CUKXOW_clean_sbu_0, # of connection points: 6
#     Node 10, Type 0, BuildingBlock: CUKXOW_clean_sbu_0, # of connection points: 6
#     Node 11, Type 0, BuildingBlock: CUKXOW_clean_sbu_0, # of connection points: 6
#     Node 12, Type 0, BuildingBlock: CUKXOW_clean_sbu_0, # of connection points: 6
#     Node 13, Type 0, BuildingBlock: CUKXOW_clean_sbu_0, # of connection points: 6
#     Node 14, Type 0, BuildingBlock: CUKXOW_clean_sbu_0, # of connection points: 6
#     Node 15, Type 0, BuildingBlock: CUKXOW_clean_sbu_0, # of connection points: 6
#     Node 16, Type 0, BuildingBlock: CUKXOW_clean_sbu_0, # of connection points: 6
#     Node 17, Type 0, BuildingBlock: CUKXOW_clean_sbu_0, # of connection points: 6
#     Node 18, Type 0, BuildingBlock: CUKXOW_clean_sbu_0, # of connection points: 6
#     Node 19, Type 0, BuildingBlock: CUKXOW_clean_sbu_0, # of connection points: 6
#     Node 20, Type 0, BuildingBlock: CUKXOW_clean_sbu_0, # of connection points: 6
#     Node 21, Type 0, BuildingBlock: CUKXOW_clean_sbu_0, # of connection points: 6
#     Node 22, Type 0, BuildingBlock: CUKXOW_clean_sbu_0, # of connection points: 6
#     Node 23, Type 0, BuildingBlock: CUKXOW_clean_sbu_0, # of connection points: 6
#     Node 24, Type 0, BuildingBlock: CUKXOW_clean_sbu_0, # of connection points: 6
#     Node 25, Type 0, BuildingBlock: CUKXOW_clean_sbu_0, # of connection points: 6
#     Node 26, Type 0, BuildingBlock: CUKXOW_clean_sbu_0, # of connection points: 6
#     Node 27, Type 0, BuildingBlock: CUKXOW_clean_sbu_0, # of connection points: 6
#     Node 28, Type 0, BuildingBlock: CUKXOW_clean_sbu_0, # of connection points: 6
#     Node 29, Type 0, BuildingBlock: CUKXOW_clean_sbu_0, # of connection points: 6
#     Node 30, Type 0, BuildingBlock: CUKXOW_clean_sbu_0, # of connection points: 6
#     Node 31, Type 0, BuildingBlock: CUKXOW_clean_sbu_0, # of connection points: 6
#     Node 32, Type 0, BuildingBlock: CUKXOW_clean_sbu_0, # of connection points: 6
#     Node 33, Type 0, BuildingBlock: CUKXOW_clean_sbu_0, # of connection points: 6
#     Node 34, Type 0, BuildingBlock: CUKXOW_clean_sbu_0, # of connection points: 6
#     Node 35, Type 0, BuildingBlock: CUKXOW_clean_sbu_0, # of connection points: 6
#     Edge 36, Type (0, 0), BuildingBlock: AJUNOK_clean_linker_0, # of connection points: 2
#     Edge 37, Type (0, 0), BuildingBlock: AJUNOK_clean_linker_0, # of connection points: 2
#     Edge 38, Type (0, 0), BuildingBlock: AJUNOK_clean_linker_0, # of connection points: 2
#     Edge 39, Type (0, 0), BuildingBlock: AJUNOK_clean_linker_0, # of connection points: 2
#     Edge 40, Type (0, 0), BuildingBlock: AJUNOK_clean_linker_0, # of connection points: 2
#     Edge 41, Type (0, 0), BuildingBlock: AJUNOK_clean_linker_0, # of connection points: 2
#     Edge 42, Type (0, 0), BuildingBlock: AJUNOK_clean_linker_0, # of connection points: 2
#     Edge 43, Type (0, 0), BuildingBlock: AJUNOK_clean_linker_0, # of connection points: 2
#     Edge 44, Type (0, 0), BuildingBlock: AJUNOK_clean_linker_0, # of connection points: 2
#     Edge 45, Type (0, 0), BuildingBlock: AJUNOK_clean_linker_0, # of connection points: 2
#     Edge 46, Type (0, 0), BuildingBlock: AJUNOK_clean_linker_0, # of connection points: 2
#     Edge 47, Type (0, 0), BuildingBlock: AJUNOK_clean_linker_0, # of connection points: 2
#     Edge 48, Type (0, 0), BuildingBlock: AJUNOK_clean_linker_0, # of connection points: 2
#     Edge 49, Type (0, 0), BuildingBlock: AJUNOK_clean_linker_0, # of connection points: 2
#     Edge 50, Type (0, 0), BuildingBlock: AJUNOK_clean_linker_0, # of connection points: 2
#     Edge 51, Type (0, 0), BuildingBlock: AJUNOK_clean_linker_0, # of connection points: 2
#     Edge 52, Type (0, 0), BuildingBlock: AJUNOK_clean_linker_0, # of connection points: 2
#     Edge 53, Type (0, 0), BuildingBlock: AJUNOK_clean_linker_0, # of connection points: 2
#     Edge 54, Type (0, 0), BuildingBlock: AJUNOK_clean_linker_0, # of connection points: 2
#     Edge 55, Type (0, 0), BuildingBlock: AJUNOK_clean_linker_0, # of connection points: 2
#     Edge 56, Type (0, 0), BuildingBlock: AJUNOK_clean_linker_0, # of connection points: 2
#     Edge 57, Type (0, 0), BuildingBlock: AJUNOK_clean_linker_0, # of connection points: 2
#     Edge 58, Type (0, 0), BuildingBlock: AJUNOK_clean_linker_0, # of connection points: 2
#     Edge 59, Type (0, 0), BuildingBlock: AJUNOK_clean_linker_0, # of connection points: 2
#     Edge 60, Type (0, 0), BuildingBlock: AJUNOK_clean_linker_0, # of connection points: 2
#     Edge 61, Type (0, 0), BuildingBlock: AJUNOK_clean_linker_0, # of connection points: 2
#     Edge 62, Type (0, 0), BuildingBlock: AJUNOK_clean_linker_0, # of connection points: 2
#     Edge 63, Type (0, 0), BuildingBlock: AJUNOK_clean_linker_0, # of connection points: 2
#     Edge 64, Type (0, 0), BuildingBlock: AJUNOK_clean_linker_0, # of connection points: 2
#     Edge 65, Type (0, 0), BuildingBlock: AJUNOK_clean_linker_0, # of connection points: 2
#     Edge 66, Type (0, 0), BuildingBlock: AJUNOK_clean_linker_0, # of connection points: 2
#     Edge 67, Type (0, 0), BuildingBlock: AJUNOK_clean_linker_0, # of connection points: 2
#     Edge 68, Type (0, 0), BuildingBlock: AJUNOK_clean_linker_0, # of connection points: 2
#     Edge 69, Type (0, 0), BuildingBlock: AJUNOK_clean_linker_0, # of connection points: 2
#     Edge 70, Type (0, 0), BuildingBlock: AJUNOK_clean_linker_0, # of connection points: 2
#     Edge 71, Type (0, 0), BuildingBlock: AJUNOK_clean_linker_0, # of connection points: 2
#     Edge 72, Type (0, 0), BuildingBlock: AJUNOK_clean_linker_0, # of connection points: 2
#     Edge 73, Type (0, 0), BuildingBlock: AJUNOK_clean_linker_0, # of connection points: 2
#     Edge 74, Type (0, 0), BuildingBlock: AJUNOK_clean_linker_0, # of connection points: 2
#     Edge 75, Type (0, 0), BuildingBlock: AJUNOK_clean_linker_0, # of connection points: 2
#     Edge 76, Type (0, 0), BuildingBlock: AJUNOK_clean_linker_0, # of connection points: 2
#     Edge 77, Type (0, 0), BuildingBlock: AJUNOK_clean_linker_0, # of connection points: 2
#     Edge 78, Type (0, 0), BuildingBlock: AJUNOK_clean_linker_0, # of connection points: 2
#     Edge 79, Type (0, 0), BuildingBlock: AJUNOK_clean_linker_0, # of connection points: 2
#     Edge 80, Type (0, 0), BuildingBlock: AJUNOK_clean_linker_0, # of connection points: 2
#     Edge 81, Type (0, 0), BuildingBlock: AJUNOK_clean_linker_0, # of connection points: 2
#     Edge 82, Type (0, 0), BuildingBlock: AJUNOK_clean_linker_0, # of connection points: 2
#     Edge 83, Type (0, 0), BuildingBlock: AJUNOK_clean_linker_0, # of connection points: 2
#     Edge 84, Type (0, 0), BuildingBlock: AJUNOK_clean_linker_0, # of connection points: 2
#     Edge 85, Type (0, 0), BuildingBlock: AJUNOK_clean_linker_0, # of connection points: 2
#     Edge 86, Type (0, 0), BuildingBlock: AJUNOK_clean_linker_0, # of connection points: 2
#     Edge 87, Type (0, 0), BuildingBlock: AJUNOK_clean_linker_0, # of connection points: 2
#     Edge 88, Type (0, 0), BuildingBlock: AJUNOK_clean_linker_0, # of connection points: 2
#     Edge 89, Type (0, 0), BuildingBlock: AJUNOK_clean_linker_0, # of connection points: 2
#     Edge 90, Type (0, 0), BuildingBlock: AJUNOK_clean_linker_0, # of connection points: 2
#     Edge 91, Type (0, 0), BuildingBlock: AJUNOK_clean_linker_0, # of connection points: 2
#     Edge 92, Type (0, 0), BuildingBlock: AJUNOK_clean_linker_0, # of connection points: 2
#     Edge 93, Type (0, 0), BuildingBlock: AJUNOK_clean_linker_0, # of connection points: 2
#     Edge 94, Type (0, 0), BuildingBlock: AJUNOK_clean_linker_0, # of connection points: 2
#     Edge 95, Type (0, 0), BuildingBlock: AJUNOK_clean_linker_0, # of connection points: 2
#     Edge 96, Type (0, 0), BuildingBlock: AJUNOK_clean_linker_0, # of connection points: 2
#     Edge 97, Type (0, 0), BuildingBlock: AJUNOK_clean_linker_0, # of connection points: 2
#     Edge 98, Type (0, 0), BuildingBlock: AJUNOK_clean_linker_0, # of connection points: 2
#     Edge 99, Type (0, 0), BuildingBlock: AJUNOK_clean_linker_0, # of connection points: 2
#     Edge 100, Type (0, 0), BuildingBlock: AJUNOK_clean_linker_0, # of connection points: 2
#     Edge 101, Type (0, 0), BuildingBlock: AJUNOK_clean_linker_0, # of connection points: 2
#     Edge 102, Type (0, 0), BuildingBlock: AJUNOK_clean_linker_0, # of connection points: 2
#     Edge 103, Type (0, 0), BuildingBlock: AJUNOK_clean_linker_0, # of connection points: 2
#     Edge 104, Type (0, 0), BuildingBlock: AJUNOK_clean_linker_0, # of connection points: 2
#     Edge 105, Type (0, 0), BuildingBlock: AJUNOK_clean_linker_0, # of connection points: 2
#     Edge 106, Type (0, 0), BuildingBlock: AJUNOK_clean_linker_0, # of connection points: 2
#     Edge 107, Type (0, 0), BuildingBlock: AJUNOK_clean_linker_0, # of connection points: 2
#     Edge 108, Type (0, 0), BuildingBlock: AJUNOK_clean_linker_0, # of connection points: 2
#     Edge 109, Type (0, 0), BuildingBlock: AJUNOK_clean_linker_0, # of connection points: 2
#     Edge 110, Type (0, 0), BuildingBlock: AJUNOK_clean_linker_0, # of connection points: 2
#     Edge 111, Type (0, 0), BuildingBlock: AJUNOK_clean_linker_0, # of connection points: 2
#     Edge 112, Type (0, 0), BuildingBlock: AJUNOK_clean_linker_0, # of connection points: 2
#     Edge 113, Type (0, 0), BuildingBlock: AJUNOK_clean_linker_0, # of connection points: 2
#     Edge 114, Type (0, 0), BuildingBlock: AJUNOK_clean_linker_0, # of connection points: 2
#     Edge 115, Type (0, 0), BuildingBlock: AJUNOK_clean_linker_0, # of connection points: 2
#     Edge 116, Type (0, 0), BuildingBlock: AJUNOK_clean_linker_0, # of connection points: 2
#     Edge 117, Type (0, 0), BuildingBlock: AJUNOK_clean_linker_0, # of connection points: 2
#     Edge 118, Type (0, 0), BuildingBlock: AJUNOK_clean_linker_0, # of connection points: 2
#     Edge 119, Type (0, 0), BuildingBlock: AJUNOK_clean_linker_0, # of connection points: 2
#     Edge 120, Type (0, 0), BuildingBlock: AJUNOK_clean_linker_0, # of connection points: 2
#     Edge 121, Type (0, 0), BuildingBlock: AJUNOK_clean_linker_0, # of connection points: 2
#     Edge 122, Type (0, 0), BuildingBlock: AJUNOK_clean_linker_0, # of connection points: 2
#     Edge 123, Type (0, 0), BuildingBlock: AJUNOK_clean_linker_0, # of connection points: 2
#     Edge 124, Type (0, 0), BuildingBlock: AJUNOK_clean_linker_0, # of connection points: 2
#     Edge 125, Type (0, 0), BuildingBlock: AJUNOK_clean_linker_0, # of connection points: 2
#     Edge 126, Type (0, 0), BuildingBlock: AJUNOK_clean_linker_0, # of connection points: 2
#     Edge 127, Type (0, 0), BuildingBlock: AJUNOK_clean_linker_0, # of connection points: 2
#     Edge 128, Type (0, 0), BuildingBlock: AJUNOK_clean_linker_0, # of connection points: 2
#     Edge 129, Type (0, 0), BuildingBlock: AJUNOK_clean_linker_0, # of connection points: 2
#     Edge 130, Type (0, 0), BuildingBlock: AJUNOK_clean_linker_0, # of connection points: 2
#     Edge 131, Type (0, 0), BuildingBlock: AJUNOK_clean_linker_0, # of connection points: 2
#     Edge 132, Type (0, 0), BuildingBlock: AJUNOK_clean_linker_0, # of connection points: 2
#     Edge 133, Type (0, 0), BuildingBlock: AJUNOK_clean_linker_0, # of connection points: 2
#     Edge 134, Type (0, 0), BuildingBlock: AJUNOK_clean_linker_0, # of connection points: 2
#     Edge 135, Type (0, 0), BuildingBlock: AJUNOK_clean_linker_0, # of connection points: 2
#     Edge 136, Type (0, 0), BuildingBlock: AJUNOK_clean_linker_0, # of connection points: 2
#     Edge 137, Type (0, 0), BuildingBlock: AJUNOK_clean_linker_0, # of connection points: 2
#     Edge 138, Type (0, 0), BuildingBlock: AJUNOK_clean_linker_0, # of connection points: 2
#     Edge 139, Type (0, 0), BuildingBlock: AJUNOK_clean_linker_0, # of connection points: 2
#     Edge 140, Type (0, 0), BuildingBlock: AJUNOK_clean_linker_0, # of connection points: 2
#     Edge 141, Type (0, 0), BuildingBlock: AJUNOK_clean_linker_0, # of connection points: 2
#     Edge 142, Type (0, 0), BuildingBlock: AJUNOK_clean_linker_0, # of connection points: 2
#     Edge 143, Type (0, 0), BuildingBlock: AJUNOK_clean_linker_0, # of connection points: 2
# Relax obj value: 0.049
# Max RMSD: 0.144
# Mean RMSD: 0.144
data_MOF--net-wnd--node1-CUKXOW_clean_sbu_0--edge1-AJUNOK_clean_linker_0
_symmetry_space_group_name_H-M    P1
_symmetry_Int_Tables_number       1
_symmetry_cell_setting            triclinic
loop_
_symmetry_equiv_pos_as_xyz
'x, y, z'
_cell_length_a     23.962107
_cell_length_b     23.975183
_cell_length_c     125.27774
_cell_angle_alpha  90.04892
_cell_angle_beta   89.991494
_cell_angle_gamma 119.85871
loop_
_atom_site_label
_atom_site_type_symbol
_atom_site_fract_x
_atom_site_fract_y
_atom_site_fract_z
_atom_type_partial_charge
Tb0 Tb 0.60441 0.10759 0.05524 0.0
C1 C 0.55241 0.04546 0.03238 0.0
Tb2 Tb 0.45923 0.99511 0.052 0.0
O3 O 0.64747 0.04552 0.05691 0.0
O4 O 0.55086 1.00672 0.05491 0.0
O5 O 0.59221 0.09865 0.03778 0.0
C6 C 0.35252 0.87929 0.05212 0.0
O7 O 0.50511 0.9941 0.03711 0.0
C8 C 0.48496 0.11429 0.04795 0.0
C9 C 0.49965 0.07107 0.07424 0.0
O10 O 0.36489 0.92599 0.04556 0.0
O11 O 0.40009 0.89829 0.0588 0.0
O12 O 0.43365 0.06348 0.0444 0.0
O13 O 0.51174 0.09469 0.05423 0.0
O14 O 0.4562 0.01977 0.06878 0.0
O15 O 0.55825 0.11221 0.07033 0.0
C16 C 0.71686 0.21664 0.05583 0.0
O17 O 0.69428 0.17346 0.06334 0.0
O18 O 0.67464 0.19943 0.04819 0.0
C19 C 0.59401 0.99189 0.0558 0.0
Tb20 Tb 0.99381 0.53766 0.05306 0.0
C21 C 0.06073 0.53969 0.03134 0.0
Tb22 Tb 0.10387 0.50752 0.05341 0.0
O23 O 0.05963 0.63731 0.04907 0.0
O24 O 0.09241 0.5865 0.05812 0.0
O25 O 1.00777 0.53222 0.03604 0.0
C26 C 0.21961 0.51599 0.05396 0.0
O27 O 0.108 0.53899 0.03682 0.0
C28 C 0.98729 0.40746 0.05167 0.0
C29 C 1.01821 0.47626 0.07379 0.0
O30 O 0.16805 0.46962 0.04964 0.0
O31 O 0.20607 0.55804 0.05785 0.0
O32 O 0.03477 0.40452 0.05615 0.0
O33 O 1.00842 0.4627 0.04788 0.0
O34 O 0.07682 0.4943 0.07015 0.0
O35 O 0.97574 0.48437 0.06813 0.0
C36 C 0.88817 0.54807 0.05249 0.0
O37 O 0.93325 0.57393 0.05965 0.0
O38 O 0.90144 0.5143 0.04598 0.0
C39 C 0.10968 0.63845 0.05315 0.0
Tb40 Tb 0.55563 0.49704 0.05429 0.0
C41 C 0.56469 0.5576 0.03128 0.0
Tb42 Tb 0.59612 0.63949 0.05185 0.0
O43 O 0.47091 0.48119 0.06324 0.0
O44 O 0.50828 0.55072 0.05142 0.0
O45 O 0.57077 0.51406 0.03697 0.0
C46 C 0.59323 0.74961 0.05271 0.0
O47 O 0.56112 0.60542 0.03591 0.0
C48 C 0.68557 0.60977 0.04765 0.0
C49 C 0.62048 0.58964 0.07426 0.0
O50 O 0.63821 0.74198 0.04837 0.0
O51 O 0.55012 0.69515 0.05674 0.0
O52 O 0.68742 0.66139 0.04394 0.0
O53 O 0.64113 0.58519 0.05431 0.0
O54 O 0.61425 0.63468 0.06899 0.0
O55 O 0.60332 0.53241 0.06987 0.0
C56 C 0.5334 0.37654 0.05176 0.0
O57 O 0.58398 0.42335 0.05625 0.0
O58 O 0.49521 0.3975 0.04891 0.0
C59 C 0.4663 0.52733 0.05866 0.0
Tb60 Tb 0.12209 0.59145 0.46251 0.0
C61 C 0.05901 0.53913 0.48502 0.0
Tb62 Tb 1.0112 0.45148 0.46414 0.0
O63 O 0.05678 0.62692 0.46621 0.0
O64 O 1.02215 0.53948 0.45825 0.0
O65 O 0.1119 0.58152 0.47986 0.0
C66 C 0.89342 0.34718 0.46464 0.0
O67 O 1.01047 0.48938 0.48007 0.0
C68 C 0.1282 0.46815 0.46601 0.0
C69 C 0.09372 0.49214 0.44331 0.0
O70 O 0.94215 0.35624 0.47047 0.0
O71 O 0.91107 0.39721 0.45861 0.0
O72 O 0.07947 0.41499 0.46251 0.0
O73 O 0.10787 0.5047 0.46901 0.0
O74 O 0.03624 0.45342 0.44747 0.0
O75 O 0.13607 0.54691 0.44806 0.0
C76 C 0.22669 0.70771 0.46023 0.0
O77 O 0.17481 0.68478 0.45448 0.0
O78 O 0.22023 0.66421 0.46708 0.0
C79 C 1.00583 0.57645 0.46276 0.0
Tb80 Tb 0.51486 0.55337 0.46351 0.0
C81 C 0.56786 0.54331 0.48597 0.0
Tb82 Tb 0.65418 0.58065 0.46491 0.0
O83 O 0.47973 0.45255 0.46713 0.0
O84 O 0.56592 0.50481 0.45885 0.0
O85 O 0.52583 0.55438 0.48081 0.0
C86 C 0.75923 0.56755 0.46575 0.0
O87 O 0.61665 0.5428 0.48094 0.0
C88 C 0.64024 0.6825 0.46654 0.0
C89 C 0.61212 0.6233 0.44414 0.0
O90 O 0.74858 0.60603 0.47162 0.0
O91 O 0.71056 0.53648 0.4594 0.0
O92 O 0.69292 0.685 0.46321 0.0
O93 O 0.6026 0.6263 0.46974 0.0
O94 O 0.65163 0.60494 0.44823 0.0
O95 O 0.55737 0.61054 0.44895 0.0
C96 C 0.39842 0.54277 0.46203 0.0
O97 O 0.4197 0.51327 0.45601 0.0
O98 O 0.44374 0.5799 0.4686 0.0
C99 C 0.52909 0.45137 0.46325 0.0
Tb100 Tb 0.5553 0.98442 0.46268 0.0
C101 C 0.55658 0.04753 0.48466 0.0
Tb102 Tb 0.52343 0.09367 0.46291 0.0
O103 O 0.6541 0.05179 0.46717 0.0
O104 O 0.60292 0.08359 0.45797 0.0
O105 O 0.54829 0.99471 0.47977 0.0
C106 C 0.53301 0.21018 0.46333 0.0
O107 O 0.55684 0.09579 0.47936 0.0
C108 C 0.42332 0.97696 0.4641 0.0
C109 C 0.48982 1.00841 0.44233 0.0
O110 O 0.49282 0.16043 0.46887 0.0
O111 O 0.56781 0.19416 0.45756 0.0
O112 O 0.42019 0.02606 0.46039 0.0
O113 O 0.47871 0.99692 0.46787 0.0
O114 O 0.50501 0.0661 0.44614 0.0
O115 O 0.50244 0.968 0.44766 0.0
C116 C 0.56986 0.88083 0.46144 0.0
O117 O 0.59981 0.93234 0.45565 0.0
O118 O 0.53025 0.88704 0.46775 0.0
C119 C 0.65498 0.10143 0.46297 0.0
Tb120 Tb 0.65444 0.0945 0.96439 0.0
C121 C 0.61024 1.01178 0.94338 0.0
Tb122 Tb 0.5139 0.98444 0.96293 0.0
O123 O 0.69042 0.02638 0.96222 0.0
O124 O 0.60117 0.99742 0.96909 0.0
O125 O 0.6499 0.06904 0.9476 0.0
C126 C 0.39665 0.8796 0.96185 0.0
O127 O 0.55539 0.96977 0.94815 0.0
C128 C 0.53063 0.10145 0.9631 0.0
C129 C 0.56979 0.04561 0.98559 0.0
O130 O 0.44296 0.88738 0.96816 0.0
O131 O 0.41737 0.93018 0.95583 0.0
O132 O 0.48047 0.05141 0.96685 0.0
O133 O 0.56637 0.08384 0.95855 0.0
O134 O 0.52635 0.99442 0.9802 0.0
O135 O 0.61982 0.09451 0.98074 0.0
C136 C 0.75969 0.2121 0.96465 0.0
O137 O 0.75214 0.16244 0.97005 0.0
O138 O 0.70765 0.19544 0.95922 0.0
C139 C 0.63755 0.97749 0.96576 0.0
Tb140 Tb 1.01065 0.58176 0.96406 0.0
C141 C 0.09602 0.62687 0.94349 0.0
Tb142 Tb 0.12163 0.55251 0.96225 0.0
O143 O 0.07794 0.68637 0.96263 0.0
O144 O 0.1076 0.62526 0.96889 0.0
O145 O 0.03781 0.60739 0.94747 0.0
C146 C 0.22732 0.54159 0.96107 0.0
O147 O 0.13735 0.61235 0.94806 0.0
C148 C 1.0052 0.45138 0.96227 0.0
C149 C 0.06049 0.54337 0.98482 0.0
O150 O 0.17758 0.51291 0.95483 0.0
O151 O 0.21824 0.57819 0.96764 0.0
O152 O 0.05604 0.45175 0.9658 0.0
O153 O 1.02173 0.50502 0.95791 0.0
O154 O 0.11252 0.55348 0.97947 0.0
O155 O 1.01087 0.54355 0.98003 0.0
C156 C 0.89283 0.56958 0.96496 0.0
O157 O 0.9421 0.60802 0.97078 0.0
O158 O 0.91015 0.53806 0.95864 0.0
C159 C 0.12714 0.68219 0.96601 0.0
Tb160 Tb 0.52382 0.4517 0.96398 0.0
C161 C 0.479 0.4906 0.94301 0.0
Tb162 Tb 0.55209 0.59138 0.96179 0.0
O163 O 0.41916 0.41423 0.96244 0.0
O164 O 0.48013 0.50532 0.96857 0.0
O165 O 0.49706 0.45144 0.94734 0.0
C166 C 0.5624 0.70774 0.96064 0.0
O167 O 0.49316 0.54667 0.94746 0.0
C168 C 0.65361 0.57643 0.96224 0.0
C169 C 0.56185 0.54079 0.98463 0.0
O170 O 0.52545 0.66187 0.96712 0.0
O171 O 0.59162 0.68693 0.95444 0.0
O172 O 0.65303 0.62744 0.9654 0.0
O173 O 0.6003 0.539 0.95782 0.0
O174 O 0.55172 0.58211 0.97906 0.0
O175 O 0.56073 0.48994 0.98006 0.0
C176 C 0.538 0.34761 0.96459 0.0
O177 O 0.49858 0.35696 0.97046 0.0
O178 O 0.5698 0.39728 0.95847 0.0
C179 C 0.4233 0.46779 0.9657 0.0
Tb180 Tb 0.10828 0.63135 0.55299 0.0
C181 C 1.02313 0.58709 0.57374 0.0
Tb182 Tb 0.99624 0.49311 0.55403 0.0
O183 O 0.04466 0.67264 0.55485 0.0
O184 O 1.01127 0.582 0.54826 0.0
O185 O 0.08079 0.62619 0.56966 0.0
C186 C 0.88994 0.37748 0.5544 0.0
O187 O 0.98108 0.53272 0.5689 0.0
C188 C 0.11245 0.50617 0.55378 0.0
C189 C 0.05811 0.54948 0.53166 0.0
O190 O 0.89786 0.4264 0.54881 0.0
O191 O 0.94117 0.39452 0.56011 0.0
O192 O 0.06167 0.45792 0.54976 0.0
O193 O 0.09589 0.54219 0.55852 0.0
O194 O 1.00544 0.50793 0.53688 0.0
O195 O 0.10877 0.59646 0.53671 0.0
C196 C 0.22669 0.73351 0.55358 0.0
O197 O 0.18454 0.72169 0.54611 0.0
O198 O 0.20212 0.68804 0.56061 0.0
C199 C 0.9939 0.62038 0.55163 0.0
Tb200 Tb 0.46479 0.49921 0.5538 0.0
C201 C 0.51101 0.46668 0.57531 0.0
Tb202 Tb 0.60638 0.5335 0.55552 0.0
O203 O 0.42758 0.39528 0.55591 0.0
O204 O 0.51986 0.45498 0.55009 0.0
O205 O 0.46743 0.47775 0.57069 0.0
C206 C 0.72621 0.55225 0.55641 0.0
O207 O 0.56743 0.48338 0.57077 0.0
C208 C 0.58742 0.63189 0.55402 0.0
C209 C 0.54877 0.52908 0.5327 0.0
O210 O 0.70079 0.57337 0.56335 0.0
O211 O 0.68343 0.51887 0.54924 0.0
O212 O 0.63797 0.63134 0.55065 0.0
O213 O 0.5523 0.58043 0.55907 0.0
O214 O 0.59147 0.52149 0.53833 0.0
O215 O 0.49928 0.5302 0.53736 0.0
C216 C 0.35848 0.51043 0.55302 0.0
O217 O 0.36886 0.47107 0.54733 0.0
O218 O 0.4083 0.54365 0.55906 0.0
C219 C 0.48247 0.39936 0.55359 0.0
Tb220 Tb 0.60498 0.99298 0.55122 0.0
C221 C 0.63138 0.06654 0.57365 0.0
Tb222 Tb 0.55655 0.08889 0.55462 0.0
O223 O 0.6978 0.0656 0.5442 0.0
O224 O 0.6445 0.09118 0.5538 0.0
O225 O 0.62904 0.01756 0.5682 0.0
C226 C 0.532 0.18577 0.55456 0.0
O227 O 0.60702 0.10178 0.56981 0.0
C228 C 0.47297 0.96687 0.55805 0.0
C229 C 0.56639 0.04322 0.53119 0.0
O230 O 0.58638 0.18984 0.55707 0.0
O231 O 0.49102 0.12678 0.55206 0.0
O232 O 0.47495 1.01392 0.56351 0.0
O233 O 0.51536 0.99026 0.55092 0.0
O234 O 0.56746 0.08952 0.53721 0.0
O235 O 0.56948 0.9939 0.53535 0.0
C236 C 0.59599 0.87782 0.55264 0.0
O237 O 0.63557 0.92452 0.54645 0.0
O238 O 0.56239 0.89656 0.55814 0.0
C239 C 0.69073 0.11359 0.54742 0.0
Tb240 Tb 0.27281 0.42879 0.38747 0.0
C241 C 0.20955 0.38122 0.36413 0.0
Tb242 Tb 0.1291 0.32696 0.38481 0.0
O243 O 0.28728 0.35966 0.39661 0.0
O244 O 0.21859 0.32873 0.38452 0.0
O245 O 0.25574 0.42661 0.37015 0.0
C246 C 1.02125 0.21272 0.38661 0.0
O247 O 0.15728 0.3319 0.36826 0.0
C248 C 0.15959 0.44649 0.38108 0.0
C249 C 0.18192 0.39788 0.40744 0.0
O250 O 1.02532 0.26852 0.3878 0.0
O251 O 0.07769 0.22138 0.38421 0.0
O252 O 0.10833 0.39771 0.37697 0.0
O253 O 0.18414 0.42523 0.38752 0.0
O254 O 0.13905 0.34523 0.4022 0.0
O255 O 0.23786 0.44016 0.40302 0.0
C256 C 0.39312 0.52659 0.38509 0.0
O257 O 0.37283 0.4674 0.38237 0.0
O258 O 0.34581 0.53057 0.38936 0.0
C259 C 0.24146 0.30985 0.3918 0.0
Tb260 Tb 0.66993 0.86965 0.38842 0.0
C261 C 0.72771 0.87026 0.36514 0.0
Tb262 Tb 0.77351 0.83223 0.38592 0.0
O263 O 0.73805 0.95723 0.39672 0.0
O264 O 0.77077 0.91967 0.38504 0.0
O265 O 0.68072 0.8704 0.37087 0.0
C266 C 0.88782 0.83809 0.38795 0.0
O267 O 0.77446 0.86401 0.36966 0.0
C268 C 0.65487 0.74035 0.38195 0.0
C269 C 0.69905 0.80489 0.40822 0.0
O270 O 0.83556 0.78943 0.38423 0.0
O271 O 0.87552 0.88328 0.39052 0.0
O272 O 0.70531 0.74096 0.3779 0.0
O273 O 0.674 0.78486 0.38865 0.0
O274 O 0.75305 0.81718 0.4032 0.0
O275 O 0.65551 0.81557 0.4034 0.0
C276 C 0.56731 0.88647 0.38764 0.0
O277 O 0.61741 0.9178 0.39368 0.0
O278 O 0.57469 0.84502 0.38203 0.0
C279 C 0.7888 0.96359 0.39196 0.0
Tb280 Tb 0.23254 0.82635 0.38739 0.0
C281 C 0.22303 0.89122 0.36595 0.0
Tb282 Tb 0.26679 0.97157 0.38721 0.0
O283 O 0.13084 0.7843 0.39222 0.0
O284 O 0.18776 0.88088 0.39089 0.0
O285 O 0.2355 0.84848 0.37047 0.0
C286 C 0.25954 0.07861 0.38891 0.0
O287 O 0.22281 0.93851 0.37149 0.0
C288 C 0.36459 0.95199 0.38415 0.0
C289 C 0.30524 0.91659 0.40702 0.0
O290 O 0.27361 0.05862 0.38021 0.0
O291 O 0.24981 0.0385 0.39657 0.0
O292 O 0.37125 1.00685 0.38723 0.0
O293 O 0.30658 0.91589 0.38172 0.0
O294 O 0.28611 0.95707 0.40369 0.0
O295 O 0.29269 0.86365 0.40165 0.0
C296 C 0.22216 0.71237 0.38357 0.0
O297 O 0.25434 0.75033 0.39145 0.0
O298 O 0.19702 0.73919 0.37787 0.0
C299 C 0.1304 0.83803 0.39252 0.0
Tb300 Tb 0.78892 0.9489 0.79506 0.0
C301 C 0.73766 0.88788 0.818 0.0
Tb302 Tb 0.6845 0.79916 0.79809 0.0
O303 O 0.72041 0.98299 0.79235 0.0
O304 O 0.6894 0.88745 0.79463 0.0
O305 O 0.78782 0.92897 0.81216 0.0
C306 C 0.57021 0.69447 0.79646 0.0
O307 O 0.6852 0.83965 0.81364 0.0
C308 C 0.80495 0.82559 0.8004 0.0
C309 C 0.75738 0.85089 0.77571 0.0
O310 O 0.6023 0.71577 0.80532 0.0
O311 O 0.60279 0.73145 0.78861 0.0
O312 O 0.75605 0.76765 0.80173 0.0
O313 O 0.78202 0.86096 0.79835 0.0
O314 O 0.7102 0.80358 0.78128 0.0
O315 O 0.79231 0.91124 0.77928 0.0
C316 C 0.892 0.06339 0.79718 0.0
O317 O 0.88357 0.02252 0.78963 0.0
O318 O 0.84236 0.03991 0.8034 0.0
C319 C 0.66979 0.92671 0.79341 0.0
Tb320 Tb 0.18808 0.90493 0.7992 0.0
C321 C 0.24912 0.89857 0.82079 0.0
Tb322 Tb 0.32328 0.93046 0.79904 0.0
O323 O 0.14749 0.80208 0.80116 0.0
O324 O 0.23442 0.85394 0.79337 0.0
O325 O 0.21169 0.91754 0.81615 0.0
C326 C 0.42673 0.91675 0.79923 0.0
O327 O 0.29217 0.89191 0.81515 0.0
C328 C 0.31231 0.03435 0.80086 0.0
C329 C 0.27472 0.96797 0.77859 0.0
O330 O 0.42186 0.96229 0.80398 0.0
O331 O 0.37346 0.87919 0.79429 0.0
O332 O 0.36164 0.03421 0.79656 0.0
O333 O 0.27628 0.97966 0.80482 0.0
O334 O 0.31492 0.94954 0.78231 0.0
O335 O 0.22331 0.95873 0.78413 0.0
C336 C 0.0731 0.89575 0.80043 0.0
O337 O 0.11095 0.91658 0.7922 0.0
O338 O 0.10062 0.88172 0.80796 0.0
C339 C 0.19661 0.80011 0.79751 0.0
Tb340 Tb 0.23569 0.34272 0.79334 0.0
C341 C 0.232 0.3933 0.81712 0.0
Tb342 Tb 0.19333 0.44354 0.79707 0.0
O343 O 0.3251 0.41615 0.78607 0.0
O344 O 0.28025 0.44076 0.79778 0.0
O345 O 0.23381 0.34884 0.81094 0.0
C346 C 0.19725 0.5572 0.7969 0.0
O347 O 0.22574 0.44113 0.81314 0.0
C348 C 0.10472 0.32291 0.79998 0.0
C349 C 0.16924 0.37616 0.77407 0.0
O350 O 0.15402 0.50513 0.8016 0.0
O351 O 0.23807 0.54495 0.7921 0.0
O352 O 0.10166 0.37074 0.80433 0.0
O353 O 0.15015 0.34546 0.79347 0.0
O354 O 0.17613 0.42635 0.77975 0.0
O355 O 0.18559 0.33465 0.7781 0.0
C356 C 0.25168 0.23953 0.79463 0.0
O357 O 0.28105 0.28709 0.78801 0.0
O358 O 0.21288 0.24989 0.80042 0.0
C359 C 0.32561 0.46337 0.7912 0.0
Tb360 Tb 0.31613 0.44722 0.29756 0.0
C361 C 0.26675 0.3729 0.27538 0.0
Tb362 Tb 0.16613 0.34126 0.2946 0.0
O363 O 0.34865 0.37564 0.30034 0.0
O364 O 0.254 0.34914 0.29834 0.0
O365 O 0.31314 0.42099 0.28092 0.0
C366 C 0.05153 0.23875 0.29716 0.0
O367 O 0.20586 0.33793 0.27883 0.0
C368 C 0.18902 0.46047 0.29291 0.0
C369 C 0.22818 0.39775 0.3175 0.0
O370 O 0.09135 0.2462 0.28948 0.0
O371 O 0.07605 0.28902 0.30324 0.0
O372 O 0.13221 0.41037 0.29196 0.0
O373 O 0.22731 0.4397 0.29389 0.0
O374 O 0.18672 0.34633 0.31186 0.0
O375 O 0.27653 0.44896 0.31297 0.0
C376 C 0.41746 0.56351 0.29612 0.0
O377 O 0.40785 0.52287 0.30377 0.0
O378 O 0.37029 0.53837 0.28935 0.0
C379 C 0.29043 0.32634 0.29954 0.0
Tb380 Tb 0.67408 0.93663 0.29843 0.0
C381 C 0.74502 0.96327 0.27563 0.0
Tb382 Tb 0.77219 0.89111 0.29475 0.0
O383 O 0.74699 0.02709 0.30595 0.0
O384 O 0.77234 0.97813 0.29515 0.0
O385 O 0.69569 0.95926 0.28124 0.0
C386 C 0.87344 0.87239 0.29576 0.0
O387 O 0.7836 0.94334 0.2797 0.0
C388 C 0.65107 0.80543 0.29174 0.0
C389 C 0.72045 0.89263 0.31849 0.0
O390 O 0.82546 0.84389 0.28919 0.0
O391 O 0.86432 0.91133 0.30173 0.0
O392 O 0.69823 0.80451 0.28686 0.0
O393 O 0.67391 0.84844 0.29874 0.0
O394 O 0.76428 0.88971 0.31232 0.0
O395 O 0.67433 0.90191 0.31449 0.0
C396 C 0.55976 0.93038 0.29707 0.0
O397 O 0.60878 0.97235 0.30261 0.0
O398 O 0.57545 0.89226 0.29223 0.0
C399 C 0.79484 0.02317 0.30176 0.0
Tb400 Tb 0.18717 0.80661 0.29844 0.0
C401 C 0.14692 0.8485 0.27744 0.0
Tb402 Tb 0.21398 0.94265 0.29712 0.0
O403 O 0.08304 0.76745 0.29621 0.0
O404 O 0.13945 0.85648 0.30343 0.0
O405 O 0.16555 0.80958 0.28167 0.0
C406 C 0.22786 0.05973 0.29809 0.0
O407 O 0.15908 0.90322 0.28222 0.0
C408 C 0.31753 0.93128 0.29567 0.0
C409 C 0.21692 0.88711 0.31946 0.0
O410 O 0.19956 0.01889 0.29035 0.0
O411 O 0.24684 0.03409 0.3052 0.0
O412 O 0.31703 0.98174 0.29899 0.0
O413 O 0.26279 0.89298 0.29189 0.0
O414 O 0.19833 0.92267 0.31413 0.0
O415 O 0.22539 0.84321 0.31442 0.0
C416 C 0.20082 0.70302 0.29952 0.0
O417 O 0.15699 0.7101 0.30442 0.0
O418 O 0.23666 0.75419 0.29399 0.0
C419 C 0.08418 0.8189 0.29983 0.0
Tb420 Tb 0.78861 0.97961 0.88606 0.0
C421 C 0.70135 0.92532 0.9067 0.0
Tb422 Tb 0.67975 0.83449 0.88676 0.0
O423 O 0.71895 1.01368 0.88749 0.0
O424 O 0.69213 0.9233 0.88129 0.0
O425 O 0.75892 0.96705 0.90277 0.0
C426 C 0.57587 0.72064 0.88377 0.0
O427 O 0.66035 0.87164 0.90153 0.0
C428 C 0.79474 0.84866 0.89141 0.0
C429 C 0.74681 0.89911 0.86468 0.0
O430 O 0.583 0.76106 0.89132 0.0
O431 O 0.62698 0.74479 0.87788 0.0
O432 O 0.74148 0.79422 0.89171 0.0
O433 O 0.77884 0.88984 0.88928 0.0
O434 O 0.69443 0.8544 0.86964 0.0
O435 O 0.79422 0.94841 0.86986 0.0
C436 C 0.90402 0.08269 0.8871 0.0
O437 O 0.86313 0.07036 0.87939 0.0
O438 O 0.87983 0.0375 0.89422 0.0
C439 C 0.67066 0.95887 0.88441 0.0
Tb440 Tb 0.14625 0.84306 0.8878 0.0
C441 C 0.19607 0.82411 0.91026 0.0
Tb442 Tb 0.2884 0.8774 0.88983 0.0
O443 O 0.12115 0.74986 0.87995 0.0
O444 O 0.19788 0.79489 0.89023 0.0
O445 O 0.1516 0.83084 0.90497 0.0
C446 C 0.40347 0.88622 0.89096 0.0
O447 O 0.25311 0.83978 0.90597 0.0
C448 C 0.27015 0.9753 0.88666 0.0
C449 C 0.22791 0.86822 0.86711 0.0
O450 O 0.38389 0.917 0.89709 0.0
O451 O 0.3575 0.8494 0.88446 0.0
O452 O 0.32115 0.97363 0.88389 0.0
O453 O 0.23484 0.92605 0.89219 0.0
O454 O 0.26885 0.85799 0.87276 0.0
O455 O 0.18083 0.87357 0.87166 0.0
C456 C 0.03817 0.85019 0.88908 0.0
O457 O 0.04384 0.80083 0.89173 0.0
O458 O 0.0933 0.89523 0.88555 0.0
C459 C 0.17067 0.74844 0.88397 0.0
Tb460 Tb 0.2823 0.33377 0.88387 0.0
C461 C 0.2969 0.3963 0.9071 0.0
Tb462 Tb 0.2374 0.4321 0.88711 0.0
O463 O 0.3754 0.40791 0.87699 0.0
O464 O 0.32406 0.4315 0.88749 0.0
O465 O 0.2971 0.3504 0.90112 0.0
C466 C 0.21585 0.53119 0.88563 0.0
O467 O 0.2759 0.43476 0.90329 0.0
C468 C 0.15098 0.3121 0.89025 0.0
C469 C 0.24666 0.38293 0.86368 0.0
O470 O 0.26813 0.5339 0.8891 0.0
O471 O 0.17502 0.47224 0.88309 0.0
O472 O 0.15279 0.35966 0.89552 0.0
O473 O 0.19402 0.33381 0.8832 0.0
O474 O 0.25142 0.43146 0.86959 0.0
O475 O 0.24679 0.33288 0.86805 0.0
C476 C 0.27614 0.21967 0.88461 0.0
O477 O 0.31797 0.26931 0.8792 0.0
O478 O 0.23877 0.2349 0.88981 0.0
C479 C 0.3713 0.45515 0.88135 0.0
Tb480 Tb 0.94163 0.78667 0.71976 0.0
C481 C 0.88301 0.72632 0.69734 0.0
Tb482 Tb 0.80035 0.67891 0.71888 0.0
O483 O 0.9727 0.71893 0.71553 0.0
O484 O 0.88843 0.68766 0.72443 0.0
O485 O 0.92853 0.77697 0.70256 0.0
C486 C 0.69501 0.56132 0.7194 0.0
O487 O 0.83216 0.67889 0.70232 0.0
C488 C 0.81947 0.7967 0.71713 0.0
C489 C 0.84868 0.76408 0.73947 0.0
O490 O 0.69857 0.61223 0.71503 0.0
O491 O 0.75108 0.5767 0.72324 0.0
O492 O 0.7665 0.74892 0.72089 0.0
O493 O 0.85451 0.7751 0.71384 0.0
O494 O 0.80718 0.70634 0.73562 0.0
O495 O 0.90245 0.80428 0.73436 0.0
C496 C 0.05987 0.88732 0.72225 0.0
O497 O 0.03583 0.83386 0.72755 0.0
O498 O 1.01665 0.88464 0.71568 0.0
C499 C 0.92325 0.66961 0.71961 0.0
Tb500 Tb 0.34073 0.22472 0.72415 0.0
C501 C 0.39278 0.21896 0.70083 0.0
Tb502 Tb 0.44708 0.18334 0.72136 0.0
O503 O 0.4133 0.31431 0.73171 0.0
O504 O 0.4417 0.26951 0.7209 0.0
O505 O 0.35116 0.22712 0.70676 0.0
C506 C 0.5644 0.19601 0.72106 0.0
O507 O 0.43762 0.20758 0.70491 0.0
C508 C 0.32813 0.08564 0.72036 0.0
C509 C 0.36524 0.14969 0.74272 0.0
O510 O 0.5172 0.15991 0.71466 0.0
O511 O 0.54522 0.22481 0.72771 0.0
O512 O 0.37827 0.07777 0.7202 0.0
O513 O 0.34933 0.14473 0.72101 0.0
O514 O 0.42287 0.16792 0.73844 0.0
O515 O 0.32273 0.16266 0.73811 0.0
C516 C 0.23929 0.24294 0.72249 0.0
O517 O 0.28394 0.26812 0.72971 0.0
O518 O 0.2513 0.20664 0.71634 0.0
C519 C 0.46312 0.31554 0.7274 0.0
Tb520 Tb 0.91102 0.1851 0.71961 0.0
C521 C 0.89997 0.23822 0.69718 0.0
Tb522 Tb 0.93728 0.3235 0.7183 0.0
O523 O 0.81009 0.14995 0.71605 0.0
O524 O 0.86229 0.23545 0.72451 0.0
O525 O 0.91104 0.19619 0.70233 0.0
C526 C 0.92109 0.42637 0.71799 0.0
O527 O 0.89959 0.28704 0.70221 0.0
C528 C 0.03956 0.31049 0.71627 0.0
C529 C 0.98226 0.28281 0.73888 0.0
O530 O 0.96148 0.41856 0.71213 0.0
O531 O 0.88969 0.37604 0.72397 0.0
O532 O 0.04193 0.36262 0.71987 0.0
O533 O 0.98311 0.2726 0.7132 0.0
O534 O 0.96279 0.32155 0.73489 0.0
O535 O 0.96985 0.22826 0.73403 0.0
C536 C 0.89863 0.068 0.72107 0.0
O537 O 0.93647 0.11314 0.71455 0.0
O538 O 0.86974 0.08994 0.72709 0.0
C539 C 0.80872 0.19869 0.72015 0.0
Tb540 Tb 0.43033 0.25653 0.12864 0.0
C541 C 0.37624 0.20181 0.15202 0.0
Tb542 Tb 0.32597 0.11288 0.1314 0.0
O543 O 0.36134 0.26738 0.11851 0.0
O544 O 0.32906 0.20228 0.13082 0.0
O545 O 0.41777 0.25083 0.14599 0.0
C546 C 0.20804 1.00896 0.13167 0.0
O547 O 0.3335 0.14453 0.14801 0.0
C548 C 0.44507 0.1362 0.13158 0.0
C549 C 0.40555 0.16064 0.10987 0.0
O550 O 0.25691 1.0169 0.13742 0.0
O551 O 0.22585 0.05983 0.12582 0.0
O552 O 0.3966 0.08053 0.12888 0.0
O553 O 0.42385 0.17171 0.13481 0.0
O554 O 0.34823 0.12216 0.11424 0.0
O555 O 0.44837 0.21531 0.11448 0.0
C556 C 0.52785 0.37771 0.1301 0.0
O557 O 0.46754 0.36057 0.12923 0.0
O558 O 0.53363 0.32665 0.1301 0.0
C559 C 0.31033 0.22283 0.12322 0.0
Tb560 Tb 0.83036 0.21922 0.12822 0.0
C561 C 0.88482 0.21175 0.15083 0.0
Tb562 Tb 0.97196 0.25066 0.12987 0.0
O563 O 0.79477 0.11782 0.13133 0.0
O564 O 0.88419 0.17258 0.12415 0.0
O565 O 0.84173 0.2199 0.14541 0.0
C566 C 0.07712 0.23862 0.1282 0.0
O567 O 0.936 0.21398 0.1461 0.0
C568 C 0.95356 0.34962 0.13182 0.0
C569 C 0.92756 0.29326 0.10926 0.0
O570 O 0.06793 0.27222 0.13546 0.0
O571 O 1.02669 0.21127 0.12212 0.0
O572 O 1.00784 0.35525 0.12861 0.0
O573 O 0.91717 0.29247 0.13459 0.0
O574 O 0.96784 0.27607 0.11334 0.0
O575 O 0.87172 0.27803 0.11385 0.0
C576 C 0.7142 0.20912 0.12723 0.0
O577 O 0.73529 0.1812 0.12079 0.0
O578 O 0.75944 0.24423 0.13396 0.0
C579 C 0.84718 0.11894 0.1285 0.0
Tb580 Tb 0.86446 0.64907 0.13044 0.0
C581 C 0.86841 0.7132 0.15274 0.0
Tb582 Tb 0.83509 0.75887 0.13087 0.0
O583 O 0.9643 0.71523 0.13418 0.0
O584 O 0.9129 0.74787 0.12521 0.0
O585 O 0.86426 0.66225 0.14772 0.0
C586 C 0.84451 0.87535 0.13061 0.0
O587 O 0.8621 0.75848 0.14762 0.0
C588 C 0.73378 0.64343 0.13318 0.0
C589 C 0.80057 0.67574 0.11042 0.0
O590 O 0.79276 0.82085 0.12888 0.0
O591 O 0.89103 0.86423 0.13278 0.0
O592 O 0.73074 0.69229 0.12942 0.0
O593 O 0.79014 0.66295 0.13642 0.0
O594 O 0.82615 0.73571 0.11395 0.0
O595 O 0.80625 0.63149 0.11594 0.0
C596 C 0.878 0.54491 0.12905 0.0
O597 O 0.84175 0.55318 0.13582 0.0
O598 O 0.905 0.59461 0.1228 0.0
C599 C 0.96588 0.76506 0.12994 0.0
Tb600 Tb 0.97404 0.76706 0.62935 0.0
C601 C 0.92951 0.68202 0.60874 0.0
Tb602 Tb 0.83549 0.65412 0.62863 0.0
O603 O 1.01252 0.70108 0.62733 0.0
O604 O 0.92441 0.67109 0.63469 0.0
O605 O 0.96856 0.74036 0.61264 0.0
C606 C 0.72081 0.54683 0.62738 0.0
O607 O 0.87651 0.63957 0.61387 0.0
C608 C 0.84731 0.769 0.62834 0.0
C609 C 0.89047 0.7208 0.65069 0.0
O610 O 0.7682 0.55513 0.63347 0.0
O611 O 0.73883 0.59854 0.62178 0.0
O612 O 0.79897 0.71854 0.63241 0.0
O613 O 0.88413 0.75284 0.62374 0.0
O614 O 0.84843 0.66655 0.64586 0.0
O615 O 0.93771 0.76943 0.64536 0.0
C616 C 0.07987 0.88389 0.6307 0.0
O617 O 0.06831 0.83345 0.63622 0.0
O618 O 0.03166 0.86838 0.6243 0.0
C619 C 0.96152 0.6522 0.63133 0.0
Tb620 Tb 0.3367 0.25359 0.63261 0.0
C621 C 0.42237 0.28959 0.61195 0.0
Tb622 Tb 0.44351 0.22127 0.63225 0.0
O623 O 0.40486 0.35682 0.63041 0.0
O624 O 0.43299 0.29767 0.63798 0.0
O625 O 0.36575 0.27672 0.61596 0.0
C626 C 0.54806 0.20922 0.6333 0.0
O627 O 0.46112 0.27323 0.61701 0.0
C628 C 0.32719 0.12079 0.63069 0.0
C629 C 0.38214 0.22271 0.65426 0.0
O630 O 0.5369 0.24065 0.62594 0.0
O631 O 0.50072 0.1851 0.63994 0.0
O632 O 0.37686 0.11873 0.63407 0.0
O633 O 0.34609 0.17567 0.62674 0.0
O634 O 0.43644 0.23739 0.64921 0.0
O635 O 0.33185 0.2174 0.64892 0.0
C636 C 0.21979 0.24044 0.63262 0.0
O637 O 0.26863 0.28317 0.63806 0.0
O638 O 0.23702 0.20553 0.62717 0.0
C639 C 0.45345 0.35318 0.63426 0.0
Tb640 Tb 0.84738 0.12313 0.63116 0.0
C641 C 0.81931 0.16508 0.60833 0.0
Tb642 Tb 0.88798 0.27103 0.62713 0.0
O643 O 0.75573 0.10495 0.6386 0.0
O644 O 0.80529 0.18012 0.62815 0.0
O645 O 0.82043 0.11954 0.61434 0.0
C646 C 0.89377 0.38482 0.62677 0.0
O647 O 0.84267 0.22593 0.61169 0.0
C648 C 0.98698 0.25119 0.6278 0.0
C649 C 0.88835 0.21769 0.6505 0.0
O650 O 0.91634 0.36319 0.61937 0.0
O651 O 0.86589 0.34119 0.63411 0.0
O652 O 0.99306 0.30783 0.62704 0.0
O653 O 0.92803 0.21206 0.62774 0.0
O654 O 0.87993 0.25896 0.64454 0.0
O655 O 0.89015 0.16742 0.64637 0.0
C656 C 0.85301 1.01436 0.63028 0.0
O657 O 0.81279 0.02327 0.636 0.0
O658 O 0.89 0.06683 0.62507 0.0
C659 C 0.75899 0.15653 0.63448 0.0
Tb660 Tb 0.4371 0.31529 0.21928 0.0
C661 C 0.35261 0.27236 0.24011 0.0
Tb662 Tb 0.3266 0.17454 0.22102 0.0
O663 O 0.37024 0.35305 0.22073 0.0
O664 O 0.33976 0.26167 0.21474 0.0
O665 O 0.40993 0.31159 0.23592 0.0
C666 C 0.22146 0.05797 0.2224 0.0
O667 O 0.31066 0.21735 0.23543 0.0
C668 C 0.44363 0.19048 0.22059 0.0
C669 C 0.38859 0.22771 0.19847 0.0
O670 O 0.27096 0.08017 0.22873 0.0
O671 O 0.23056 0.1024 0.21557 0.0
O672 O 0.39229 0.13851 0.21771 0.0
O673 O 0.42702 0.22743 0.22501 0.0
O674 O 0.33628 0.1856 0.20376 0.0
O675 O 0.43775 0.27759 0.20329 0.0
C676 C 0.55417 0.4209 0.21961 0.0
O677 O 0.50924 0.40855 0.21263 0.0
O678 O 0.53307 0.37354 0.22633 0.0
C679 C 0.32051 0.29922 0.21773 0.0
Tb680 Tb 0.79248 0.17906 0.21954 0.0
C681 C 0.84321 0.14801 0.24022 0.0
Tb682 Tb 0.93269 0.2107 0.21997 0.0
O683 O 0.75597 0.0757 0.22172 0.0
O684 O 0.84457 0.1341 0.2146 0.0
O685 O 0.80519 0.16935 0.23656 0.0
C686 C 0.05107 0.22655 0.22187 0.0
O687 O 0.8943 0.1563 0.23476 0.0
C688 C 0.91474 0.31032 0.21987 0.0
C689 C 0.87071 0.20571 0.19753 0.0
O690 O 0.02798 0.25607 0.22745 0.0
O691 O 1.00666 0.18663 0.21542 0.0
O692 O 0.96284 0.30889 0.21548 0.0
O693 O 0.88085 0.25824 0.2249 0.0
O694 O 0.91841 0.20432 0.20273 0.0
O695 O 0.81923 0.20065 0.20256 0.0
C696 C 0.68507 0.188 0.21924 0.0
O697 O 0.68778 0.13591 0.22069 0.0
O698 O 0.74306 0.23527 0.2177 0.0
C699 C 0.80847 0.07869 0.21825 0.0
Tb700 Tb 0.92619 0.6709 0.2205 0.0
C701 C 0.96511 0.75409 0.24144 0.0
Tb702 Tb 0.8955 0.78026 0.22191 0.0
O703 O 0.03021 0.73923 0.2225 0.0
O704 O 0.9695 0.76753 0.21558 0.0
O705 O 0.94897 0.69706 0.23724 0.0
C706 C 0.8824 0.8841 0.22379 0.0
O707 O 0.95184 0.79547 0.23657 0.0
C708 C 0.79526 0.66385 0.22163 0.0
C709 C 0.88867 0.7195 0.19935 0.0
O710 O 0.85181 0.83181 0.22937 0.0
O711 O 0.92185 0.87851 0.21737 0.0
O712 O 0.79578 0.71415 0.21782 0.0
O713 O 0.84815 0.68079 0.22632 0.0
O714 O 0.89696 0.7711 0.20466 0.0
O715 O 0.89061 0.67099 0.20422 0.0
C716 C 0.91338 0.553 0.21976 0.0
O717 O 0.95564 0.60324 0.21453 0.0
O718 O 0.87828 0.56932 0.22538 0.0
C719 C 1.02586 0.78779 0.21885 0.0
C720 C 0.4878 0.17669 0.0959 0.0
C721 C 0.42683 0.13705 0.10051 0.0
C722 C 0.51209 0.15414 0.08779 0.0
C723 C 0.47669 0.09069 0.08389 0.0
H724 H 0.51753 0.22585 0.09859 0.0
H725 H 0.55856 0.18747 0.08441 0.0
S726 S 0.31581 0.96555 0.09361 0.0
N727 N 0.3325 0.02986 0.10075 0.0
N728 N 0.37811 0.98754 0.08563 0.0
C729 C 0.41609 0.05005 0.08855 0.0
C730 C 0.39117 0.07314 0.09678 0.0
C731 C 0.90796 0.35042 0.09404 0.0
C732 C 0.95101 0.33996 0.10021 0.0
C733 C 0.9301 0.39682 0.08586 0.0
C734 C 0.9963 0.43521 0.08357 0.0
H735 H 0.85664 0.32199 0.09544 0.0
H736 H 0.89474 0.40113 0.08109 0.0
S737 S 0.1297 0.43277 0.09831 0.0
N738 N 0.06372 0.37604 0.104 0.0
N739 N 0.10487 0.46307 0.08885 0.0
C740 C 0.03992 0.42705 0.09 0.0
C741 C 1.01746 0.37949 0.09823 0.0
C742 C 0.68674 0.57195 0.08812 0.0
C743 C 0.66126 0.60973 0.08414 0.0
C744 C 0.73254 0.59403 0.09642 0.0
C745 C 0.75564 0.65522 0.10107 0.0
H746 H 0.67242 0.52536 0.08465 0.0
H747 H 0.75023 0.56284 0.09916 0.0
S748 S 0.70116 0.77149 0.09418 0.0
N749 N 0.66032 0.71031 0.08603 0.0
N750 N 0.74636 0.75186 0.10139 0.0
C751 C 0.72963 0.693 0.09731 0.0
C752 C 0.68255 0.67026 0.08895 0.0
C753 C 0.1787 0.50206 0.43029 0.0
C754 C 0.11467 0.46786 0.43397 0.0
C755 C 0.2009 0.47764 0.42211 0.0
C756 C 0.16032 0.41759 0.41726 0.0
H757 H 0.21235 0.54816 0.43376 0.0
H758 H 0.25017 0.50695 0.41945 0.0
S759 S 0.9886 0.30721 0.42418 0.0
N760 N 1.01107 0.36953 0.43216 0.0
N761 N 0.05285 0.32361 0.41706 0.0
C762 C 0.09648 0.3822 0.42103 0.0
C763 C 0.07368 0.40732 0.42927 0.0
C764 C 0.5941 0.68783 0.43 0.0
C765 C 0.63489 0.66835 0.43479 0.0
C766 C 0.61591 0.73393 0.42178 0.0
C767 C 0.67978 0.76328 0.41798 0.0
H768 H 0.54465 0.66728 0.43261 0.0
H769 H 0.58176 0.7456 0.41823 0.0
S770 S 0.80816 0.73381 0.42837 0.0
N771 N 0.74388 0.68516 0.43539 0.0
N772 N 0.78464 0.77182 0.42015 0.0
C773 C 0.72162 0.7456 0.4229 0.0
C774 C 0.69928 0.69819 0.43119 0.0
C775 C 0.38313 1.00237 0.41936 0.0
C776 C 0.35071 0.93723 0.41623 0.0
C777 C 0.43001 0.02524 0.4274 0.0
C778 C 0.44676 0.98414 0.43279 0.0
H779 H 0.37296 0.03668 0.41547 0.0
H780 H 0.4525 0.07567 0.42952 0.0
S781 S 0.37514 0.80856 0.42783 0.0
N782 N 0.3385 0.83158 0.41922 0.0
N783 N 0.42601 0.87406 0.43441 0.0
C784 C 0.41498 0.91872 0.4297 0.0
C785 C 0.36719 0.89546 0.42144 0.0
C786 C 0.59132 0.93568 0.92794 0.0
C787 C 0.63347 0.99074 0.9339 0.0
C788 C 0.61367 0.91342 0.91942 0.0
C789 C 0.67938 0.94466 0.91655 0.0
H790 H 0.54046 0.90971 0.92982 0.0
H791 H 0.57879 0.87208 0.91492 0.0
S792 S 0.81098 0.08766 0.93018 0.0
N793 N 0.7452 0.07388 0.93657 0.0
N794 N 0.78677 0.03175 0.92087 0.0
C795 C 0.72221 0.99871 0.92264 0.0
C796 C 0.69945 0.02177 0.9312 0.0
C797 C 0.20862 0.75126 0.92327 0.0
C798 C 0.17409 0.78143 0.91984 0.0
C799 C 0.18232 0.70023 0.93062 0.0
C800 C 0.12021 0.67684 0.93491 0.0
H801 H 0.25564 0.76556 0.91999 0.0
H802 H 0.21113 0.67891 0.93294 0.0
S803 S 1.01217 0.74362 0.92944 0.0
N804 N 0.07623 0.78729 0.92202 0.0
N805 N 1.02666 0.69157 0.93567 0.0
C806 C 0.086 0.70811 0.93182 0.0
C807 C 0.11303 0.76037 0.9244 0.0
C808 C 0.39955 0.49776 0.93057 0.0
C809 C 0.43289 0.46587 0.93378 0.0
C810 C 0.3523 0.47272 0.92249 0.0
C811 C 0.33648 0.41492 0.91714 0.0
H812 H 0.40953 0.54237 0.93437 0.0
H813 H 0.32917 0.49993 0.92026 0.0
S814 S 0.40551 0.30936 0.9231 0.0
N815 N 0.4435 0.37087 0.93129 0.0
N816 N 0.35526 0.32401 0.91631 0.0
C817 C 0.36773 0.38128 0.92057 0.0
C818 C 0.41584 0.40679 0.92877 0.0
C819 C 0.91733 0.59523 0.5959 0.0
C820 C 0.95197 0.65987 0.59933 0.0
C821 C 0.94131 0.57148 0.58789 0.0
C822 C 1.00144 0.61097 0.58303 0.0
H823 H 0.87152 0.56219 0.59952 0.0
H824 H 0.91221 0.52166 0.58549 0.0
S825 S 0.11043 0.78493 0.58873 0.0
N826 N 0.04891 0.7636 0.59684 0.0
N827 N 0.09429 0.71917 0.5821 0.0
C828 C 0.03649 0.67586 0.58636 0.0
C829 C 1.01166 0.70019 0.59439 0.0
C830 C 0.42618 0.3914 0.5882 0.0
C831 C 0.49134 0.42471 0.58507 0.0
C832 C 0.40435 0.34649 0.59658 0.0
C833 C 0.44643 0.3323 0.60231 0.0
H834 H 0.39098 0.39912 0.58404 0.0
H835 H 0.35373 0.32294 0.59861 0.0
S836 S 0.62266 0.40779 0.59767 0.0
N837 N 0.59834 0.44102 0.58862 0.0
N838 N 0.55755 0.35723 0.60436 0.0
C839 C 0.51195 0.36547 0.59932 0.0
C840 C 0.53427 0.41141 0.59075 0.0
C841 C 0.74018 0.07614 0.59649 0.0
C842 C 0.77639 0.14263 0.59876 0.0
C843 C 0.69199 0.05179 0.58864 0.0
C844 C 0.67723 0.09258 0.58275 0.0
H845 H 0.74801 0.04195 0.60094 0.0
H846 H 0.66599 1.00041 0.58719 0.0
S847 S 0.76193 0.27108 0.58461 0.0
N848 N 0.79682 0.24931 0.59377 0.0
N849 N 0.7063 0.20361 0.5791 0.0
C850 C 0.714 0.15934 0.5847 0.0
C851 C 0.76357 0.18428 0.59264 0.0
C852 C 0.77642 0.74451 0.75516 0.0
C853 C 0.82851 0.78809 0.74886 0.0
C854 C 0.75206 0.76567 0.76343 0.0
C855 C 0.77822 0.83165 0.76578 0.0
H856 H 0.75405 0.69323 0.75374 0.0
H857 H 0.71302 0.72935 0.76814 0.0
S858 S 0.91201 0.96646 0.75108 0.0
N859 N 0.9042 0.90111 0.74529 0.0
N860 N 0.85681 0.9408 0.76055 0.0
C861 C 0.82918 0.87605 0.75933 0.0
C862 C 0.85487 0.85438 0.751 0.0
C863 C 0.26798 0.04971 0.76674 0.0
C864 C 0.29442 1.00978 0.76885 0.0
C865 C 0.29165 0.09544 0.75843 0.0
C866 C 0.34342 0.10399 0.75195 0.0
H867 H 0.22962 0.04687 0.7717 0.0
H868 H 0.26955 0.12482 0.75716 0.0
S869 S 0.42572 1.00742 0.75341 0.0
N870 N 0.37243 0.97902 0.76315 0.0
N871 N 0.4172 0.06492 0.74778 0.0
C872 C 0.36932 0.06337 0.75382 0.0
C873 C 0.34476 1.01638 0.76218 0.0
C874 C 0.05667 0.27112 0.75182 0.0
C875 C 0.02848 0.30689 0.74808 0.0
C876 C 0.10439 0.2952 0.7598 0.0
C877 C 0.12655 0.35638 0.76442 0.0
H878 H 0.04208 0.22403 0.74853 0.0
H879 H 0.12303 0.26472 0.76249 0.0
S880 S 0.07107 0.4713 0.75719 0.0
N881 N 0.02816 0.40813 0.74953 0.0
N882 N 0.11782 0.45326 0.7643 0.0
C883 C 0.0998 0.39329 0.7606 0.0
C884 C 0.05084 0.3686 0.75254 0.0
C885 C 0.24461 0.29518 0.2601 0.0
C886 C 0.28789 0.35137 0.26569 0.0
C887 C 0.26596 0.26838 0.25216 0.0
C888 C 0.33161 0.2968 0.24939 0.0
H889 H 0.19374 0.27106 0.26193 0.0
H890 H 0.23038 0.22566 0.24804 0.0
S891 S 0.46508 0.44646 0.26114 0.0
N892 N 0.40009 0.43618 0.26738 0.0
N893 N 0.43962 0.38551 0.25278 0.0
C894 C 0.37526 0.3536 0.25478 0.0
C895 C 0.35361 0.38108 0.26278 0.0
C896 C 0.73948 0.04356 0.26331 0.0
C897 C 0.76777 1.00606 0.26602 0.0
C898 C 0.76538 0.09068 0.25526 0.0
C899 C 0.82107 0.10297 0.24956 0.0
H900 H 0.69748 0.03748 0.26756 0.0
H901 H 0.7411 0.11748 0.25348 0.0
S902 S 0.91188 1.01555 0.25306 0.0
N903 N 0.85323 0.98261 0.26189 0.0
N904 N 0.90243 0.0714 0.24702 0.0
C905 C 0.84959 0.06535 0.25212 0.0
C906 C 0.82277 1.01689 0.26023 0.0
C907 C 0.03784 0.84094 0.25444 0.0
C908 C 1.00815 0.77617 0.25106 0.0
C909 C 0.08357 0.86441 0.26276 0.0
C910 C 0.1024 0.82446 0.26802 0.0
H911 H 1.02646 0.87434 0.25054 0.0
H912 H 0.10431 0.91439 0.26507 0.0
S913 S 0.03732 0.65005 0.26258 0.0
N914 N 0.99971 0.67195 0.25399 0.0
N915 N 0.0855 0.71564 0.26936 0.0
C916 C 0.07267 0.7594 0.26476 0.0
C917 C 1.02571 0.73544 0.25638 0.0
C918 C 0.60147 0.09978 0.01481 0.0
C919 C 0.55837 0.04394 0.02049 0.0
C920 C 0.60482 0.1002 1.00358 0.0
C921 C 0.56495 0.04486 0.9975 0.0
H922 H 0.63255 0.14402 0.01905 0.0
H923 H 0.63866 0.14447 0.99964 0.0
S924 S 0.44555 0.88481 1.00844 0.0
N925 N 0.47645 0.9308 0.01905 0.0
N926 N 0.48215 0.93176 0.99815 0.0
C927 C 0.52212 0.98846 1.0031 0.0
C928 C 0.51901 0.9879 0.0145 0.0
C929 C 1.00701 0.52908 1.00254 0.0
C930 C 0.06144 0.54001 0.99665 0.0
C931 C 1.00782 0.52997 0.01371 0.0
C932 C 0.0631 0.54183 0.0195 0.0
H933 H 0.96327 0.52009 0.99853 0.0
H934 H 0.96422 0.52081 0.0178 0.0
S935 S 0.21915 0.57428 1.00794 0.0
N936 N 0.17282 0.56341 0.9975 0.0
N937 N 0.17415 0.56542 0.01847 0.0
C938 C 0.11801 0.55283 0.01374 0.0
C939 C 0.1172 0.55174 1.00233 0.0
C940 C 0.56826 0.50439 0.01413 0.0
C941 C 0.56478 0.55463 0.01938 0.0
C942 C 0.56901 0.50106 1.00293 0.0
C943 C 0.56654 0.54789 0.99648 0.0
H944 H 0.57005 0.46699 0.01869 0.0
H945 H 0.57064 0.4608 0.99932 0.0
S946 S 0.56013 0.69138 1.00622 0.0
N947 N 0.56083 0.65358 0.01717 0.0
N948 N 0.56286 0.64772 0.99629 0.0
C949 C 0.56445 0.5992 1.00164 0.0
C950 C 0.56335 0.60239 0.01302 0.0
C951 C 0.11368 0.58479 0.51386 0.0
C952 C 0.05732 0.54646 0.51977 0.0
C953 C 0.11348 0.5833 0.50265 0.0
C954 C 0.05685 0.5435 0.49685 0.0
H955 H 0.15862 0.61594 0.51792 0.0
H956 H 0.1585 0.61286 0.49852 0.0
S957 S 0.895 0.43695 0.50841 0.0
N958 N 0.94226 0.46944 0.51885 0.0
N959 N 0.94209 0.46717 0.4979 0.0
C960 C 0.99984 0.50594 0.50264 0.0
C961 C 1.00001 0.50723 0.51405 0.0
C962 C 0.51383 0.54144 0.50331 0.0
C963 C 0.56293 0.53688 0.49785 0.0
C964 C 0.50977 0.53913 0.51451 0.0
C965 C 0.5546 0.53217 0.5208 0.0
H966 H 0.47825 0.54746 0.49893 0.0
H967 H 0.47107 0.54304 0.51824 0.0
S968 S 0.69224 0.51694 0.5105 0.0
N969 N 0.65706 0.5241 0.49969 0.0
N970 N 0.64973 0.51992 0.52062 0.0
C971 C 0.60381 0.52707 0.51544 0.0
C972 C 0.60782 0.5293 0.50403 0.0
C973 C 0.55191 0.99285 0.51322 0.0
C974 C 0.56282 0.04644 0.51938 0.0
C975 C 0.55078 0.99434 0.50208 0.0
C976 C 0.56041 0.04946 0.49652 0.0
H977 H 0.54405 0.94893 0.51701 0.0
H978 H 0.54179 0.95128 0.49782 0.0
S979 S 0.59186 0.20351 0.50884 0.0
N980 N 0.58402 0.15687 0.51908 0.0
N981 N 0.58184 0.15967 0.49808 0.0
C982 C 0.57137 0.10365 0.50256 0.0
C983 C 0.57248 0.10208 0.51398 0.0
C984 C 0.17434 0.3413 0.33455 0.0
C985 C 0.22335 0.39593 0.32938 0.0
C986 C 0.17035 0.33706 0.34573 0.0
C987 C 0.2153 0.3872 0.35227 0.0
H988 H 0.13876 0.30095 0.32994 0.0
H989 H 0.13176 0.29371 0.34923 0.0
S990 S 0.35231 0.54196 0.34283 0.0
N991 N 0.31737 0.50229 0.3318 0.0
N992 N 0.30987 0.49418 0.3527 0.0
C993 C 0.26428 0.44247 0.34723 0.0
C994 C 0.26827 0.44691 0.33584 0.0
C995 C 0.67637 0.87872 0.3481 0.0
C996 C 0.72769 0.87684 0.35325 0.0
C997 C 0.67421 0.88314 0.33693 0.0
C998 C 0.72319 0.88576 0.33033 0.0
H999 H 0.63708 0.8765 0.35271 0.0
H1000 H 0.63352 0.88451 0.33346 0.0
S1001 S 0.86932 0.88362 0.33973 0.0
N1002 N 0.82952 0.87875 0.35076 0.0
N1003 N 0.82534 0.88695 0.32989 0.0
C1004 C 0.77494 0.88403 0.33536 0.0
C1005 C 0.77724 0.87964 0.34675 0.0
C1006 C 0.22813 0.8454 0.33712 0.0
C1007 C 0.2187 0.89001 0.33129 0.0
C1008 C 0.2277 0.84536 0.34828 0.0
C1009 C 0.21811 0.89021 0.35413 0.0
H1010 H 0.23573 0.80978 0.33307 0.0
H1011 H 0.23577 0.81008 0.35232 0.0
S1012 S 0.19015 1.01704 0.34268 0.0
N1013 N 0.19875 0.98023 0.33221 0.0
N1014 N 0.19793 0.98003 0.35319 0.0
C1015 C 0.2081 0.93491 0.34841 0.0
C1016 C 0.2085 0.93495 0.33701 0.0
C1017 C 0.69126 0.84677 0.83613 0.0
C1018 C 0.74208 0.89286 0.82987 0.0
C1019 C 0.69415 0.84867 0.8473 0.0
C1020 C 0.74796 0.8969 0.85279 0.0
H1021 H 0.64847 0.80845 0.83241 0.0
H1022 H 0.65316 0.81204 0.85163 0.0
S1023 S 0.89498 0.02897 0.84023 0.0
N1024 N 0.84876 0.98824 0.83006 0.0
N1025 N 0.85408 0.99174 0.85105 0.0
C1026 C 0.79954 0.94321 0.84666 0.0
C1027 C 0.79663 0.94128 0.83523 0.0
C1028 C 0.19432 0.89032 0.84945 0.0
C1029 C 0.23452 0.87427 0.8553 0.0
C1030 C 0.19943 0.89761 0.83836 0.0
C1031 C 0.245 0.88922 0.83255 0.0
H1032 H 0.15852 0.89785 0.85345 0.0
H1033 H 0.16722 0.91022 0.83434 0.0
S1034 S 0.36146 0.84572 0.84393 0.0
N1035 N 0.3213 0.84932 0.85437 0.0
N1036 N 0.33087 0.86301 0.83349 0.0
C1037 C 0.28537 0.87266 0.83825 0.0
C1038 C 0.2802 0.86525 0.84961 0.0
C1039 C 0.25047 0.4434 0.83536 0.0
C1040 C 0.2369 0.38975 0.82893 0.0
C1041 C 0.25298 0.44074 0.84655 0.0
C1042 C 0.24186 0.38428 0.85181 0.0
H1043 H 0.2595 0.48813 0.83175 0.0
H1044 H 0.2642 0.48357 0.85109 0.0
S1045 S 0.20093 0.22899 0.83869 0.0
N1046 N 0.21013 0.27772 0.82872 0.0
N1047 N 0.21454 0.27234 0.84962 0.0
C1048 C 0.22761 0.32997 0.84546 0.0
C1049 C 0.2253 0.33284 0.83408 0.0
C1050 C 0.84242 0.67139 0.67964 0.0
C1051 C 0.88621 0.72608 0.68546 0.0
C1052 C 0.84345 0.67063 0.66844 0.0
C1053 C 0.88815 0.72459 0.66254 0.0
H1054 H 0.80709 0.62851 0.68375 0.0
H1055 H 0.8091 0.62685 0.6644 0.0
S1056 S 1.01217 0.8811 0.67389 0.0
N1057 N 0.9751 0.8365 0.68439 0.0
N1058 N 0.97659 0.83505 0.66344 0.0
C1059 C 0.93183 0.77995 0.66826 0.0
C1060 C 0.93101 0.78064 0.67966 0.0
C1061 C 0.43625 0.22646 0.6715 0.0
C1062 C 0.38183 0.22034 0.66613 0.0
C1063 C 0.43948 0.22682 0.68266 0.0
C1064 C 0.38853 0.22131 0.689 0.0
H1065 H 0.47724 0.23116 0.66708 0.0
H1066 H 0.4826 0.23161 0.68631 0.0
S1067 S 0.23405 0.20256 0.67896 0.0
N1068 N 0.27505 0.20771 0.66805 0.0
N1069 N 0.28094 0.20824 0.68904 0.0
C1070 C 0.33352 0.21497 0.68376 0.0
C1071 C 0.33015 0.21437 0.67234 0.0
C1072 C 0.90222 0.18303 0.66874 0.0
C1073 C 0.89207 0.22548 0.66236 0.0
C1074 C 0.90346 0.187 0.67991 0.0
C1075 C 0.89464 0.23371 0.68529 0.0
H1076 H 0.90931 0.14596 0.66511 0.0
H1077 H 0.91202 0.15321 0.68433 0.0
S1078 S 0.86516 0.3563 0.67241 0.0
N1079 N 0.87218 0.31577 0.66234 0.0
N1080 N 0.87462 0.32324 0.68331 0.0
C1081 C 0.88414 0.27648 0.67904 0.0
C1082 C 0.8829 0.27246 0.66761 0.0
C1083 C 0.33346 0.17262 0.18147 0.0
C1084 C 0.38853 0.22143 0.18664 0.0
C1085 C 0.32983 0.167 0.17033 0.0
C1086 C 0.38092 0.21009 0.16381 0.0
H1087 H 0.29213 0.13846 0.18604 0.0
H1088 H 0.2862 0.12872 0.16681 0.0
S1089 S 0.53787 0.34436 0.17324 0.0
N1090 N 0.4967 0.31227 0.18429 0.0
N1091 N 0.48987 0.3019 0.16337 0.0
C1092 C 0.4368 0.25873 0.16884 0.0
C1093 C 0.44062 0.26427 0.18022 0.0
C1094 C 0.92452 0.20228 0.16897 0.0
C1095 C 0.87861 0.2074 0.1627 0.0
C1096 C 0.92171 0.20218 0.18017 0.0
C1097 C 0.87283 0.20721 0.18562 0.0
H1098 H 0.96346 0.19883 0.16523 0.0
H1099 H 0.95836 0.19801 0.18457 0.0
S1100 S 0.74049 0.22203 0.17301 0.0
N1101 N 0.78204 0.2174 0.16289 0.0
N1102 N 0.77742 0.21773 0.18382 0.0
C1103 C 0.8264 0.21212 0.17946 0.0
C1104 C 0.82906 0.21203 0.16806 0.0
C1105 C 0.86535 0.66229 0.17043 0.0
C1106 C 0.87464 0.71651 0.16459 0.0
C1107 C 0.86924 0.66339 0.18162 0.0
C1108 C 0.88258 0.7188 0.18749 0.0
H1109 H 0.85439 0.61811 0.16634 0.0
H1110 H 0.86164 0.62032 0.18568 0.0
S1111 S 0.91326 0.8748 0.17603 0.0
N1112 N 0.89953 0.82793 0.16557 0.0
N1113 N 0.90647 0.83014 0.1865 0.0
C1114 C 0.89225 0.77356 0.18174 0.0
C1115 C 0.88842 0.77242 0.17034 0.0
C1116 C 0.53684 0.87101 0.05751 0.0
C1117 C 0.59026 0.92899 0.05418 0.0
C1118 C 0.53772 0.8127 0.05698 0.0
C1119 C 0.59173 0.81066 0.05298 0.0
H1120 H 0.4953 0.87102 0.06089 0.0
H1121 H 0.49618 0.76914 0.05982 0.0
S1122 S 0.74144 0.94887 0.04244 0.0
N1123 N 0.69696 0.98021 0.04622 0.0
N1124 N 0.69825 0.87138 0.04512 0.0
C1125 C 0.64431 0.8681 0.0493 0.0
C1126 C 0.64365 0.92708 0.04993 0.0
C1127 C 0.22107 0.71143 0.0605 0.0
C1128 C 0.17504 0.69527 0.05237 0.0
C1129 C 0.27937 0.77062 0.0603 0.0
C1130 C 0.29333 0.81516 0.05195 0.0
H1131 H 0.21094 0.6795 0.06723 0.0
H1132 H 0.31285 0.78227 0.06685 0.0
S1133 S 0.19232 0.79081 0.02803 0.0
N1134 N 0.15023 0.72536 0.03524 0.0
N1135 N 0.25886 0.83561 0.03487 0.0
C1136 C 0.24899 0.79767 0.04353 0.0
C1137 C 0.1901 0.73793 0.04374 0.0
C1138 C 0.33531 0.57241 0.05963 0.0
C1139 C 0.28256 0.51866 0.05489 0.0
C1140 C 0.39495 0.57515 0.06088 0.0
C1141 C 0.40352 0.52405 0.05752 0.0
H1142 H 0.33047 0.61258 0.06242 0.0
H1143 H 0.4342 0.61708 0.06461 0.0
S1144 S 0.28185 0.3733 0.04448 0.0
N1145 N 0.24373 0.4137 0.04668 0.0
N1146 N 0.35552 0.41898 0.04912 0.0
C1147 C 0.35152 0.47032 0.05275 0.0
C1148 C 0.29108 0.46761 0.05141 0.0
C1149 C 0.89013 0.53059 0.45695 0.0
C1150 C 0.93995 0.56638 0.46425 0.0
C1151 C 0.83073 0.52936 0.45766 0.0
C1152 C 0.81926 0.56365 0.46572 0.0
H1153 H 0.89797 0.50576 0.4504 0.0
H1154 H 0.79438 0.50308 0.45166 0.0
S1155 S 0.93079 0.65623 0.48773 0.0
N1156 N 0.97122 0.63087 0.48046 0.0
N1157 N 0.86046 0.62848 0.48176 0.0
C1158 C 0.86746 0.59635 0.47339 0.0
C1159 C 0.92757 0.59771 0.47267 0.0
C1160 C 0.49835 0.28511 0.47061 0.0
C1161 C 0.5365 0.27382 0.46338 0.0
C1162 C 0.49788 0.34335 0.47058 0.0
C1163 C 0.5355 0.39288 0.46333 0.0
H1164 H 0.46795 0.24837 0.47628 0.0
H1165 H 0.4671 0.3493 0.47626 0.0
S1166 S 0.64361 0.38755 0.44269 0.0
N1167 N 0.61357 0.31744 0.44881 0.0
N1168 N 0.61148 0.42644 0.44863 0.0
C1169 C 0.5745 0.3827 0.45613 0.0
C1170 C 0.57526 0.32328 0.45619 0.0
C1171 C 0.81549 0.2393 0.47201 0.0
C1172 C 0.82971 0.28748 0.46439 0.0
C1173 C 0.75784 0.18035 0.47158 0.0
C1174 C 0.71192 0.16697 0.46352 0.0
H1175 H 0.84963 0.2467 0.47829 0.0
H1176 H 0.74966 0.14447 0.47757 0.0
S1177 S 0.72609 0.27665 0.44154 0.0
N1178 N 0.79278 0.31823 0.44854 0.0
N1179 N 0.68478 0.2067 0.44766 0.0
C1180 C 0.72481 0.21505 0.45594 0.0
C1181 C 0.78365 0.27546 0.45639 0.0
C1182 C 0.50853 0.24001 0.9721 0.0
C1183 C 0.54213 0.28784 0.96441 0.0
C1184 C 0.50719 0.18092 0.97171 0.0
C1185 C 0.53948 0.16715 0.96365 0.0
H1186 H 0.48203 0.24775 0.97838 0.0
H1187 H 0.47969 0.14522 0.97773 0.0
S1188 S 0.63327 0.27539 0.94144 0.0
N1189 N 0.60867 0.31754 0.94844 0.0
N1190 N 0.60531 0.20586 0.94769 0.0
C1191 C 0.57426 0.21483 0.956 0.0
C1192 C 0.57575 0.27532 0.95639 0.0
C1193 C 0.92949 0.34614 0.97056 0.0
C1194 C 0.93989 0.39399 0.96303 0.0
C1195 C 0.87071 0.28834 0.97116 0.0
C1196 C 0.81959 0.2758 0.96426 0.0
H1197 H 0.96756 0.35297 0.976 0.0
H1198 H 0.86571 0.25282 0.977 0.0
S1199 S 0.82171 0.38489 0.94303 0.0
N1200 N 0.89413 0.42458 0.94843 0.0
N1201 N 0.7829 0.31654 0.94968 0.0
C1202 C 0.8287 0.32371 0.95681 0.0
C1203 C 0.88899 0.38267 0.95616 0.0
C1204 C 0.72359 0.53012 0.95655 0.0
C1205 C 0.71016 0.56733 0.96366 0.0
C1206 C 0.78211 0.52948 0.95718 0.0
C1207 C 0.8289 0.56578 0.96498 0.0
H1208 H 0.69005 0.50356 0.9502 0.0
H1209 H 0.79151 0.50185 0.95134 0.0
S1210 S 0.81253 0.6637 0.98638 0.0
N1211 N 0.74557 0.63605 0.97938 0.0
N1212 N 0.85454 0.63474 0.98055 0.0
C1213 C 0.81423 0.60025 0.97245 0.0
C1214 C 0.75513 0.60102 0.9718 0.0
C1215 C 0.24816 0.47557 0.54593 0.0
C1216 C 0.29802 0.51374 0.55308 0.0
C1217 C 0.18917 0.4748 0.54616 0.0
C1218 C 0.17734 0.51212 0.55353 0.0
H1219 H 0.25438 0.44534 0.54018 0.0
H1220 H 0.1522 0.44409 0.54053 0.0
S1221 S 0.29178 0.62003 0.57406 0.0
N1222 N 0.33181 0.59047 0.56772 0.0
N1223 N 0.22039 0.58764 0.56829 0.0
C1224 C 0.22691 0.55099 0.56067 0.0
C1225 C 0.28732 0.55211 0.5604 0.0
C1226 C 0.61882 0.73701 0.54578 0.0
C1227 C 0.58198 0.69057 0.55352 0.0
C1228 C 0.62239 0.79697 0.54554 0.0
C1229 C 0.5891 0.81303 0.55302 0.0
H1230 H 0.64629 0.72741 0.53992 0.0
H1231 H 0.65208 0.83123 0.53949 0.0
S1232 S 0.48515 0.70849 0.57488 0.0
N1233 N 0.51114 0.66445 0.56883 0.0
N1234 N 0.51671 0.77723 0.56829 0.0
C1235 C 0.55062 0.76656 0.56066 0.0
C1236 C 0.54722 0.70522 0.56093 0.0
C1237 C 0.37768 0.87055 0.56572 0.0
C1238 C 0.41283 0.90498 0.55672 0.0
C1239 C 0.31813 0.8139 0.56459 0.0
C1240 C 0.29089 0.79119 0.55445 0.0
H1241 H 0.39623 0.88765 0.57366 0.0
H1242 H 0.29239 0.78874 0.57173 0.0
S1243 S 0.36395 0.86354 0.52839 0.0
N1244 N 0.41694 0.91138 0.53731 0.0
N1245 N 0.30391 0.80646 0.53528 0.0
C1246 C 0.32564 0.82497 0.5454 0.0
C1247 C 0.387 0.88153 0.54652 0.0
C1248 C 0.23935 0.16187 0.38081 0.0
C1249 C 0.25251 0.13604 0.38989 0.0
C1250 C 0.23242 0.21645 0.38159 0.0
C1251 C 0.24005 0.2478 0.39143 0.0
H1252 H 0.23427 0.13973 0.37306 0.0
H1253 H 0.22335 0.23551 0.37437 0.0
S1254 S 0.27251 0.19798 0.4176 0.0
N1255 N 0.26998 0.14406 0.40909 0.0
N1256 N 0.25951 0.24826 0.41044 0.0
C1257 C 0.25228 0.22196 0.40057 0.0
C1258 C 0.25785 0.16557 0.39983 0.0
C1259 C 0.95664 0.09368 0.38345 0.0
C1260 C 0.96267 0.14942 0.38829 0.0
C1261 C 0.90074 0.03346 0.38478 0.0
C1262 C 0.8496 0.02649 0.39126 0.0
H1263 H 0.99478 0.09683 0.37839 0.0
H1264 H 0.89731 0.99233 0.3806 0.0
S1265 S 0.8444 0.1573 0.4064 0.0
N1266 N 0.9142 0.1936 0.40012 0.0
N1267 N 0.81058 0.08073 0.403 0.0
C1268 C 0.85626 0.08175 0.39644 0.0
C1269 C 0.91239 0.14311 0.39486 0.0
C1270 C 0.95346 0.78367 0.38861 0.0
C1271 C 0.95058 0.8406 0.38928 0.0
C1272 C 1.0118 0.78411 0.38991 0.0
C1273 C 0.07017 0.84162 0.39176 0.0
H1274 H 0.91019 0.73814 0.38713 0.0
H1275 H 1.01103 0.73866 0.38929 0.0
S1276 S 0.08845 1.004 0.39425 0.0
N1277 N 1.0108 0.95626 0.39206 0.0
N1278 N 0.12062 0.95696 0.39428 0.0
C1279 C 0.06792 0.89895 0.39244 0.0
C1280 C 1.00812 0.89845 0.39126 0.0
C1281 C 0.54378 0.96637 0.80207 0.0
C1282 C 0.48617 0.91338 0.79858 0.0
C1283 C 0.60245 0.96863 0.80055 0.0
C1284 C 0.60569 0.91762 0.79564 0.0
H1285 H 0.54398 1.00753 0.80569 0.0
H1286 H 0.64589 1.01137 0.80313 0.0
S1287 S 0.46811 0.76576 0.78575 0.0
N1288 N 0.43501 0.8069 0.79048 0.0
N1289 N 0.54641 0.81142 0.78769 0.0
C1290 C 0.54836 0.86302 0.79252 0.0
C1291 C 0.4882 0.86088 0.79396 0.0
C1292 C 0.24162 0.73077 0.79069 0.0
C1293 C 0.20148 0.74071 0.7977 0.0
C1294 C 0.241 0.67153 0.79053 0.0
C1295 C 0.20001 0.62045 0.79733 0.0
H1296 H 0.27231 0.76813 0.78514 0.0
H1297 H 0.27183 0.66529 0.78491 0.0
S1298 S 0.09118 0.62498 0.81794 0.0
N1299 N 0.12385 0.69625 0.8122 0.0
N1300 N 0.12218 0.58592 0.81176 0.0
C1301 C 0.1615 0.6309 0.80458 0.0
C1302 C 0.16239 0.69077 0.8048 0.0
C1303 C 0.48754 0.60704 0.78532 0.0
C1304 C 0.50637 0.63758 0.7953 0.0
C1305 C 0.42783 0.5514 0.784 0.0
C1306 C 0.38454 0.52567 0.79254 0.0
H1307 H 0.51985 0.62524 0.77854 0.0
H1308 H 0.4158 0.52788 0.77627 0.0
S1309 S 0.40947 0.59096 0.82011 0.0
N1310 N 0.47659 0.64026 0.81375 0.0
N1311 N 0.36327 0.53655 0.81122 0.0
C1312 C 0.4018 0.55736 0.80247 0.0
C1313 C 0.4632 0.61317 0.80387 0.0
C1314 C 0.24688 0.57991 0.29083 0.0
C1315 C 0.19986 0.52415 0.29592 0.0
C1316 C 0.24892 0.6389 0.29242 0.0
C1317 C 0.20428 0.64343 0.29918 0.0
H1318 H 0.27972 0.57729 0.28518 0.0
H1319 H 0.28388 0.68049 0.28799 0.0
S1320 S 0.07872 0.51225 0.31557 0.0
N1321 N 0.11268 0.47785 0.30882 0.0
N1322 N 0.11686 0.58847 0.31189 0.0
C1323 C 0.16015 0.58865 0.30485 0.0
C1324 C 0.15783 0.52891 0.30318 0.0
C1325 C 0.51752 0.65394 0.30362 0.0
C1326 C 0.47435 0.62755 0.29505 0.0
C1327 C 0.57379 0.71339 0.30261 0.0
C1328 C 0.58882 0.74736 0.29295 0.0
H1329 H 0.50818 0.62824 0.31111 0.0
H1330 H 0.60678 0.73189 0.30931 0.0
S1331 S 0.49039 0.70147 0.26838 0.0
N1332 N 0.44868 0.64188 0.27679 0.0
N1333 N 0.5561 0.75304 0.27487 0.0
C1334 C 0.54575 0.72253 0.28441 0.0
C1335 C 0.48784 0.66261 0.28548 0.0
C1336 C 0.42559 0.96551 0.30303 0.0
C1337 C 0.37622 0.92541 0.29593 0.0
C1338 C 0.48424 0.96618 0.30335 0.0
C1339 C 0.49616 0.9266 0.29659 0.0
H1340 H 0.41915 0.99732 0.3084 0.0
H1341 H 0.52065 0.99833 0.30893 0.0
S1342 S 0.38352 0.81323 0.27635 0.0
N1343 N 0.34366 0.84592 0.28177 0.0
N1344 N 0.45366 0.84559 0.28255 0.0
C1345 C 0.44704 0.88541 0.28951 0.0
C1346 C 0.38708 0.88514 0.28913 0.0
C1347 C 0.92479 0.80469 0.89535 0.0
C1348 C 0.97847 0.85414 0.8901 0.0
C1349 C 0.86669 0.80532 0.8961 0.0
C1350 C 0.85977 0.85544 0.89165 0.0
H1351 H 0.92728 0.76457 0.8988 0.0
H1352 H 0.82631 0.76533 0.90002 0.0
S1353 S 0.9855 0.99599 0.87688 0.0
N1354 N 1.02127 0.95511 0.88042 0.0
N1355 N 0.91146 0.95527 0.88162 0.0
C1356 C 0.9133 0.90573 0.8865 0.0
C1357 C 0.97279 0.9053 0.88578 0.0
C1358 C 0.23094 0.10816 0.89204 0.0
C1359 C 0.27077 0.1555 0.88461 0.0
C1360 C 0.22798 0.04805 0.89244 0.0
C1361 C 0.26471 0.03366 0.88539 0.0
H1362 H 0.20316 0.11819 0.89776 0.0
H1363 H 0.19875 1.01379 0.89852 0.0
S1364 S 0.36906 0.13742 0.86348 0.0
N1365 N 0.34253 0.18123 0.86942 0.0
N1366 N 0.33661 0.06877 0.87007 0.0
C1367 C 0.30183 0.0793 0.87757 0.0
C1368 C 0.30505 0.14019 0.87721 0.0
C1369 C 0.99465 0.16551 0.89772 0.0
C1370 C 0.96854 0.13881 0.88771 0.0
C1371 C 0.05497 0.22108 0.89849 0.0
C1372 C 0.09163 0.25 0.88932 0.0
H1373 H 0.96738 0.14459 0.90495 0.0
H1374 H 0.07272 0.24202 0.90629 0.0
S1375 S 0.04631 0.19488 0.86134 0.0
N1376 N 0.98421 0.14307 0.86852 0.0
N1377 N 0.09899 0.24619 0.86996 0.0
C1378 C 0.06714 0.22195 0.8793 0.0
C1379 C 1.00499 0.16656 0.8785 0.0
C1380 C 0.94805 0.53314 0.71056 0.0
C1381 C 0.91513 0.48502 0.71822 0.0
C1382 C 0.94782 0.59136 0.71096 0.0
C1383 C 0.9148 0.60413 0.71903 0.0
H1384 H 0.97527 0.52634 0.7043 0.0
H1385 H 0.97495 0.62732 0.70495 0.0
S1386 S 0.8204 0.4937 0.74098 0.0
N1387 N 0.84708 0.45314 0.73402 0.0
N1388 N 0.84801 0.56362 0.73487 0.0
C1389 C 0.88035 0.55597 0.72662 0.0
C1390 C 0.88023 0.49616 0.72619 0.0
C1391 C 0.58314 0.38774 0.72797 0.0
C1392 C 0.52205 0.37748 0.72512 0.0
C1393 C 0.63901 0.44702 0.72591 0.0
C1394 C 0.63573 0.49784 0.72083 0.0
H1395 H 0.58775 0.35025 0.73197 0.0
H1396 H 0.68503 0.45326 0.72842 0.0
S1397 S 0.487 0.49303 0.71118 0.0
N1398 N 0.46149 0.42154 0.71658 0.0
N1399 N 0.56599 0.53237 0.71264 0.0
C1400 C 0.57486 0.48731 0.71772 0.0
C1401 C 0.51815 0.42728 0.71988 0.0
C1402 C 0.64244 0.16817 0.71297 0.0
C1403 C 0.62898 0.20164 0.72083 0.0
C1404 C 0.70148 0.1694 0.71274 0.0
C1405 C 0.74984 0.20436 0.72032 0.0
H1406 H 0.60669 0.13989 0.707 0.0
H1407 H 0.70898 0.14195 0.70659 0.0
S1408 S 0.73909 0.30042 0.7426 0.0
N1409 N 0.66936 0.27166 0.73636 0.0
N1410 N 0.78038 0.27332 0.73596 0.0
C1411 C 0.73775 0.23913 0.72813 0.0
C1412 C 0.67728 0.23786 0.72838 0.0
C1413 C 0.24391 0.26066 0.13271 0.0
C1414 C 0.25102 0.22681 0.12413 0.0
C1415 C 0.18748 0.26415 0.134 0.0
C1416 C 0.13587 0.23332 0.1268 0.0
H1417 H 0.28244 0.28477 0.13847 0.0
H1418 H 0.18431 0.29114 0.14068 0.0
S1419 S 0.13014 0.1362 0.10325 0.0
N1420 N 0.20196 0.16084 0.1085 0.0
N1421 N 0.09534 0.16628 0.1109 0.0
C1422 C 0.14229 0.19855 0.11825 0.0
C1423 C 0.20005 0.19559 0.11692 0.0
C1424 C 0.79793 1.00207 0.12486 0.0
C1425 C 0.85223 0.05984 0.12807 0.0
C1426 C 0.79649 0.94304 0.12561 0.0
C1427 C 0.84921 0.93921 0.12965 0.0
H1428 H 0.75557 1.00232 0.1219 0.0
H1429 H 0.75327 0.89994 0.12309 0.0
S1430 S 1.00167 0.07572 0.13975 0.0
N1431 N 0.95866 0.10889 0.13601 0.0
N1432 N 0.95725 0.99828 0.13702 0.0
C1433 C 0.9042 0.9966 0.1328 0.0
C1434 C 0.90538 0.05686 0.13212 0.0
C1435 C 0.13289 0.89703 0.13778 0.0
C1436 C 0.1438 0.94954 0.13139 0.0
C1437 C 0.07464 0.83875 0.1373 0.0
C1438 C 1.0244 0.82997 0.1304 0.0
H1439 H 0.17008 0.90049 0.14311 0.0
H1440 H 0.06942 0.79978 0.14236 0.0
S1441 S 1.02718 0.95354 0.11229 0.0
N1442 N 0.09828 0.9902 0.11821 0.0
N1443 N 0.98898 0.87976 0.11718 0.0
C1444 C 0.03386 0.88248 0.12411 0.0
C1445 C 0.09348 0.9424 0.12463 0.0
C1446 C 0.81757 0.8451 0.63648 0.0
C1447 C 0.85389 0.83373 0.62884 0.0
C1448 C 0.81828 0.90383 0.63693 0.0
C1449 C 0.85537 0.95374 0.62976 0.0
H1450 H 0.78775 0.808 0.64215 0.0
H1451 H 0.78912 0.90993 0.64292 0.0
S1452 S 0.95799 0.94804 0.60805 0.0
N1453 N 0.92723 0.87686 0.61383 0.0
N1454 N 0.92915 0.98777 0.61469 0.0
C1455 C 0.89251 0.94337 0.62213 0.0
C1456 C 0.8917 0.88326 0.62167 0.0
C1457 C 0.21334 0.05398 0.62369 0.0
C1458 C 0.26085 0.06501 0.63132 0.0
C1459 C 0.15374 0.99594 0.62367 0.0
C1460 C 0.13991 0.94739 0.63129 0.0
H1461 H 0.2232 0.08901 0.61746 0.0
H1462 H 0.11914 0.98827 0.61746 0.0
S1463 S 0.24487 0.95745 0.65385 0.0
N1464 N 0.28731 0.0256 0.64731 0.0
N1465 N 0.17641 0.91765 0.64727 0.0
C1466 C 0.18582 0.95976 0.63927 0.0
C1467 C 0.24599 0.01829 0.63928 0.0
C1468 C 0.14285 0.27459 0.63879 0.0
C1469 C 0.15626 0.23581 0.63207 0.0
C1470 C 0.08576 0.27648 0.63768 0.0
C1471 C 0.03995 0.23902 0.62994 0.0
H1472 H 0.17754 0.30525 0.64472 0.0
H1473 H 0.07815 0.30885 0.64273 0.0
S1474 S 0.05275 0.13122 0.61019 0.0
N1475 N 0.11912 0.1592 0.61737 0.0
N1476 N 1.01169 0.16337 0.61532 0.0
C1477 C 0.05169 0.19874 0.62337 0.0
C1478 C 0.11002 0.19695 0.62444 0.0
C1479 C 0.51099 0.14073 0.22433 0.0
C1480 C 0.50757 0.19502 0.22106 0.0
C1481 C 0.56875 0.13938 0.22379 0.0
C1482 C 0.62551 0.19224 0.2199 0.0
H1483 H 0.46831 0.0984 0.22723 0.0
H1484 H 0.5687 0.09624 0.22637 0.0
S1485 S 0.64124 0.34396 0.20943 0.0
N1486 N 0.56495 0.30102 0.21302 0.0
N1487 N 0.67443 0.29989 0.21243 0.0
C1488 C 0.623 0.24701 0.21662 0.0
C1489 C 0.56377 0.24805 0.21707 0.0
C1490 C 0.94969 0.47855 0.21296 0.0
C1491 C 0.9087 0.48878 0.21966 0.0
C1492 C 0.94953 0.42006 0.21301 0.0
C1493 C 0.9086 0.36907 0.21979 0.0
H1494 H 0.98293 0.51637 0.20769 0.0
H1495 H 0.9827 0.41523 0.20773 0.0
S1496 S 0.7901 0.37025 0.23868 0.0
N1497 N 0.82402 0.44205 0.23305 0.0
N1498 N 0.82493 0.33237 0.2333 0.0
C1499 C 0.86635 0.37798 0.22642 0.0
C1500 C 0.86614 0.43775 0.22631 0.0
C1501 C 0.6345 0.52804 0.21227 0.0
C1502 C 0.61841 0.47996 0.21998 0.0
C1503 C 0.69294 0.5862 0.21276 0.0
C1504 C 0.73802 0.59863 0.22094 0.0
H1505 H 0.60115 0.52135 0.2059 0.0
H1506 H 0.70244 0.62229 0.20674 0.0
S1507 S 0.71987 0.48805 0.243 0.0
N1508 N 0.65312 0.44789 0.23595 0.0
N1509 N 0.76298 0.55768 0.23686 0.0
C1510 C 0.72356 0.55037 0.22855 0.0
C1511 C 0.6637 0.49095 0.22808 0.0
C1512 C 0.56308 0.29167 0.05469 0.0
C1513 C 0.52131 0.31021 0.05013 0.0
C1514 C 0.55158 0.22863 0.05364 0.0
C1515 C 0.49823 0.18165 0.04789 0.0
H1516 H 0.60436 0.32573 0.0593 0.0
H1517 H 0.58418 0.2164 0.05759 0.0
S1518 S 0.37613 0.20661 0.0339 0.0
N1519 N 0.42555 0.27726 0.0393 0.0
N1520 N 0.4045 0.15879 0.03724 0.0
C1521 C 0.45702 0.19995 0.04303 0.0
C1522 C 0.46842 0.26422 0.04417 0.0
C1523 C 0.89618 0.31548 0.06114 0.0
C1524 C 0.91832 0.35927 0.05262 0.0
C1525 C 0.83036 0.27138 0.06241 0.0
C1526 C 0.78459 0.26887 0.05508 0.0
H1527 H 0.92983 0.31565 0.06694 0.0
H1528 H 0.81549 0.23804 0.06904 0.0
S1529 S 0.81855 0.37208 0.03117 0.0
N1530 N 0.88982 0.39672 0.03662 0.0
N1531 N 0.7663 0.31397 0.03896 0.0
C1532 C 0.80624 0.31255 0.04652 0.0
C1533 C 0.87312 0.35765 0.04529 0.0
C1534 C 0.82222 0.59451 0.0592 0.0
C1535 C 0.83606 0.56313 0.05102 0.0
C1536 C 0.77471 0.61165 0.05786 0.0
C1537 C 0.74062 0.59929 0.04821 0.0
H1538 H 0.84777 0.60531 0.06673 0.0
H1539 H 0.76397 0.63406 0.06446 0.0
S1540 S 0.75821 0.51856 0.02434 0.0
N1541 N 0.8114 0.52018 0.03292 0.0
N1542 N 0.72265 0.55366 0.03044 0.0
C1543 C 0.75411 0.5686 0.03994 0.0
C1544 C 0.80179 0.55016 0.04134 0.0
C1545 C 0.28337 0.47911 0.45611 0.0
C1546 C 0.33045 0.52745 0.46266 0.0
C1547 C 0.21774 0.45932 0.45732 0.0
C1548 C 0.19705 0.48747 0.46507 0.0
H1549 H 0.29714 0.45565 0.45012 0.0
H1550 H 0.18312 0.42217 0.45209 0.0
S1551 S 0.30057 0.61481 0.48436 0.0
N1552 N 0.35139 0.60269 0.47719 0.0
N1553 N 0.22844 0.56484 0.47954 0.0
C1554 C 0.24358 0.53591 0.47162 0.0
C1555 C 0.31021 0.55614 0.47039 0.0
C1556 C 0.57003 0.72975 0.47049 0.0
C1557 C 0.62253 0.73292 0.46493 0.0
C1558 C 0.55211 0.77684 0.46909 0.0
C1559 C 0.58571 0.82851 0.462 0.0
H1560 H 0.54334 0.69129 0.47613 0.0
H1561 H 0.51226 0.77322 0.47372 0.0
S1562 S 0.72443 0.85663 0.44504 0.0
N1563 N 0.70669 0.79081 0.45182 0.0
N1564 N 0.67229 0.87839 0.449 0.0
C1565 C 0.63726 0.83126 0.45618 0.0
C1566 C 0.65598 0.7838 0.45771 0.0
C1567 C 0.3773 0.86072 0.46867 0.0
C1568 C 0.37403 0.90847 0.46264 0.0
C1569 C 0.33061 0.79554 0.46757 0.0
C1570 C 0.27926 0.77567 0.46033 0.0
H1571 H 0.41537 0.87393 0.47447 0.0
H1572 H 0.33411 0.76065 0.4726 0.0
S1573 S 0.25158 0.88148 0.44209 0.0
N1574 N 0.31689 0.93122 0.44884 0.0
N1575 N 0.22996 0.80882 0.44661 0.0
C1576 C 0.2767 0.82277 0.45399 0.0
C1577 C 0.32378 0.88918 0.45521 0.0
C1578 C 0.62388 0.82313 0.95481 0.0
C1579 C 0.57806 0.77571 0.96162 0.0
C1580 C 0.64382 0.88862 0.95626 0.0
C1581 C 0.61824 0.90882 0.96453 0.0
H1582 H 0.64519 0.80971 0.94839 0.0
H1583 H 0.67902 0.92353 0.95083 0.0
S1584 S 0.49984 0.80462 0.9849 0.0
N1585 N 0.50932 0.75426 0.97714 0.0
N1586 N 0.54685 0.87682 0.97985 0.0
C1587 C 0.57258 0.86204 0.97139 0.0
C1588 C 0.55242 0.79559 0.96993 0.0
C1589 C 0.21587 0.78024 0.95718 0.0
C1590 C 0.19572 0.73245 0.96509 0.0
C1591 C 0.28128 0.82651 0.95595 0.0
C1592 C 0.32871 0.82707 0.96267 0.0
H1593 H 0.18101 0.78153 0.95184 0.0
H1594 H 0.29461 0.86255 0.94978 0.0
S1595 S 0.29982 0.71524 0.98517 0.0
N1596 N 0.22773 0.69037 0.98005 0.0
N1597 N 0.35013 0.77701 0.9778 0.0
C1598 C 0.30886 0.77982 0.97067 0.0
C1599 C 0.24249 0.73265 0.97187 0.0
C1600 C 0.28049 0.47923 0.95523 0.0
C1601 C 0.2797 0.52596 0.96196 0.0
C1602 C 0.32626 0.45942 0.9566 0.0
C1603 C 0.37323 0.48629 0.96465 0.0
H1604 H 0.24496 0.4571 0.94896 0.0
H1605 H 0.32534 0.42346 0.95125 0.0
S1606 S 0.38976 0.60718 0.98476 0.0
N1607 N 0.3288 0.59666 0.97721 0.0
N1608 N 0.41451 0.5596 0.97972 0.0
C1609 C 0.37286 0.53276 0.97143 0.0
C1610 C 0.32623 0.55265 0.97009 0.0
C1611 C 0.81262 0.53587 0.54861 0.0
C1612 C 0.79432 0.56847 0.55591 0.0
C1613 C 0.87735 0.5532 0.54729 0.0
C1614 C 0.92627 0.60425 0.55311 0.0
H1615 H 0.77671 0.49692 0.54381 0.0
H1616 H 0.88923 0.52713 0.54151 0.0
S1617 S 0.90385 0.70465 0.57331 0.0
N1618 N 0.83021 0.65344 0.5692 0.0
N1619 N 0.95212 0.68706 0.56651 0.0
C1620 C 0.90872 0.63721 0.56046 0.0
C1621 C 0.84262 0.61889 0.56193 0.0
C1622 C 0.45904 0.23107 0.55147 0.0
C1623 C 0.51954 0.24006 0.55448 0.0
C1624 C 0.44728 0.28293 0.55131 0.0
C1625 C 0.49597 0.3455 0.55395 0.0
H1626 H 0.42058 0.18377 0.54922 0.0
H1627 H 0.4001 0.27417 0.54894 0.0
S1628 S 0.66052 0.39237 0.56341 0.0
N1629 N 0.6269 0.31483 0.56091 0.0
N1630 N 0.60537 0.41181 0.56037 0.0
C1631 C 0.55618 0.35448 0.55711 0.0
C1632 C 0.56782 0.3018 0.55745 0.0
C1633 C 0.84487 0.2591 0.55643 0.0
C1634 C 0.83745 0.3106 0.55281 0.0
C1635 C 0.79846 0.19513 0.55418 0.0
C1636 C 0.74297 0.18063 0.5483 0.0
H1637 H 0.88719 0.26823 0.56094 0.0
H1638 H 0.80524 0.15674 0.55728 0.0
S1639 S 0.69939 0.29724 0.5373 0.0
N1640 N 0.76958 0.34242 0.54318 0.0
N1641 N 0.68207 0.22207 0.53913 0.0
C1642 C 0.73444 0.23137 0.54477 0.0
C1643 C 0.78184 0.29647 0.54696 0.0
C1644 C 0.22085 0.55683 0.38853 0.0
C1645 C 0.17764 0.51495 0.38078 0.0
C1646 C 0.2366 0.62117 0.38913 0.0
C1647 C 0.20984 0.64628 0.38199 0.0
H1648 H 0.24149 0.53961 0.39444 0.0
H1649 H 0.26877 0.65094 0.39542 0.0
S1650 S 0.09832 0.55847 0.35964 0.0
N1651 N 0.11124 0.50402 0.36542 0.0
N1652 N 0.14093 0.62568 0.36647 0.0
C1653 C 0.16834 0.60577 0.37393 0.0
C1654 C 0.1521 0.53985 0.37335 0.0
C1655 C 0.54025 0.69192 0.38748 0.0
C1656 C 0.58776 0.68619 0.38175 0.0
C1657 C 0.47727 0.64041 0.38834 0.0
C1658 C 0.45934 0.58077 0.3836 0.0
H1659 H 0.5519 0.73626 0.39154 0.0
H1660 H 0.44276 0.6471 0.39295 0.0
S1661 S 0.56424 0.54124 0.36724 0.0
N1662 N 0.61167 0.61684 0.37085 0.0
N1663 N 0.4932 0.51937 0.37257 0.0
C1664 C 0.50579 0.57455 0.37764 0.0
C1665 C 0.57002 0.62743 0.37668 0.0
C1666 C 0.46994 0.97056 0.3911 0.0
C1667 C 0.41455 0.93303 0.38495 0.0
C1668 C 0.51831 0.95419 0.39207 0.0
C1669 C 0.5135 0.9 0.38684 0.0
H1670 H 0.47594 1.01287 0.39526 0.0
H1671 H 0.56024 0.98485 0.39686 0.0
S1672 S 0.37757 0.78522 0.36989 0.0
N1673 N 0.3571 0.83864 0.37366 0.0
N1674 N 0.44826 0.80802 0.37544 0.0
C1675 C 0.45807 0.86163 0.38074 0.0
C1676 C 0.4085 0.87809 0.37982 0.0
C1677 C 0.96352 0.83948 0.80851 0.0
C1678 C 1.00622 0.88169 0.80076 0.0
C1679 C 0.89799 0.82096 0.80832 0.0
C1680 C 0.87382 0.84533 0.80053 0.0
H1681 H 0.98044 0.81935 0.81459 0.0
H1682 H 0.86624 0.7878 0.81431 0.0
S1683 S 0.9665 0.95581 0.77838 0.0
N1684 N 1.02025 0.94637 0.7851 0.0
N1685 N 0.89793 0.91236 0.78476 0.0
C1686 C 0.91656 0.88804 0.79285 0.0
C1687 C 0.98272 0.90609 0.79296 0.0
C1688 C 0.33269 0.13797 0.79259 0.0
C1689 C 0.29523 0.08555 0.79936 0.0
C1690 C 0.31736 0.18674 0.7909 0.0
C1691 C 0.26426 0.18526 0.79598 0.0
H1692 H 0.37419 0.14135 0.78853 0.0
H1693 H 0.348 0.22641 0.7857 0.0
S1694 S 0.14877 0.0571 0.81405 0.0
N1695 N 0.20117 0.03413 0.81087 0.0
N1696 N 0.17261 0.12571 0.80773 0.0
C1697 C 0.22573 0.13261 0.80262 0.0
C1698 C 0.24115 0.0828 0.8043 0.0
C1699 C 0.99748 0.23548 0.80607 0.0
C1700 C 0.05328 0.25501 0.79996 0.0
C1701 C 0.94567 0.17252 0.80532 0.0
C1702 C 0.94815 0.12759 0.79839 0.0
H1703 H 0.99318 0.2693 0.81126 0.0
H1704 H 0.90287 0.15951 0.81 0.0
S1705 S 0.08509 0.15238 0.78145 0.0
N1706 N 0.10903 0.22222 0.78733 0.0
N1707 N 1.01166 0.10486 0.78593 0.0
C1708 C 1.00424 0.14564 0.79257 0.0
C1709 C 0.05695 0.20924 0.79336 0.0
C1710 C 0.2859 0.16978 0.30599 0.0
C1711 C 0.24129 0.12647 0.29854 0.0
C1712 C 0.30176 0.23457 0.30621 0.0
C1713 C 0.27223 0.25761 0.29919 0.0
H1714 H 0.30965 0.15387 0.31157 0.0
H1715 H 0.3369 0.26665 0.31196 0.0
S1716 S 0.15437 0.1631 0.27792 0.0
N1717 N 0.16971 0.11088 0.28382 0.0
N1718 N 0.19771 0.23136 0.28439 0.0
C1719 C 0.22722 0.21418 0.2918 0.0
C1720 C 0.21218 0.14882 0.29143 0.0
C1721 C 0.94346 0.18581 0.30569 0.0
C1722 C 0.98803 0.18231 0.29881 0.0
C1723 C 0.88134 0.13315 0.30695 0.0
C1724 C 0.86238 0.07548 0.30143 0.0
H1725 H 0.95604 0.22997 0.30992 0.0
H1726 H 0.84762 0.13825 0.31205 0.0
S1727 S 0.96493 0.04069 0.28341 0.0
N1728 N 1.01131 0.11606 0.2871 0.0
N1729 N 0.89569 1.01712 0.28947 0.0
C1730 C 0.90799 0.07096 0.29492 0.0
C1731 C 0.97064 0.12451 0.29359 0.0
C1732 C 0.97601 0.79315 0.29288 0.0
C1733 C 0.03145 0.83397 0.29882 0.0
C1734 C 0.92551 0.80652 0.29175 0.0
C1735 C 0.92843 0.86085 0.2966 0.0
H1736 H 0.97159 0.75059 0.28906 0.0
H1737 H 0.88351 0.77353 0.28718 0.0
S1738 S 0.06438 0.98498 0.31247 0.0
N1739 N 0.08716 0.93257 0.30922 0.0
N1740 N 0.99226 0.9572 0.30717 0.0
C1741 C 0.98394 0.90258 0.30241 0.0
C1742 C 0.03549 0.88928 0.30349 0.0
C1743 C 0.52032 0.9534 0.89528 0.0
C1744 C 0.47052 0.89965 0.89008 0.0
C1745 C 0.58505 0.97228 0.89339 0.0
C1746 C 0.60212 0.93771 0.8863 0.0
H1747 H 0.50938 0.98228 0.90061 0.0
H1748 H 0.62194 1.01437 0.89748 0.0
S1749 S 0.48976 0.79139 0.87112 0.0
N1750 N 0.44253 0.81045 0.8779 0.0
N1751 N 0.56408 0.84609 0.87433 0.0
C1752 C 0.55277 0.88275 0.88131 0.0
C1753 C 0.48693 0.86364 0.88321 0.0
C1754 C 0.14448 0.63703 0.87815 0.0
C1755 C 0.18317 0.69354 0.884 0.0
C1756 C 0.15481 0.58408 0.87869 0.0
C1757 C 0.20473 0.58646 0.88498 0.0
H1758 H 0.10562 0.6334 0.87323 0.0
H1759 H 0.12379 0.54125 0.87413 0.0
S1760 S 0.31806 0.72162 0.90212 0.0
N1761 N 0.27173 0.74648 0.89665 0.0
N1762 N 0.29225 0.64902 0.89724 0.0
C1763 C 0.24374 0.64254 0.89078 0.0
C1764 C 0.23267 0.69556 0.8904 0.0
C1765 C 0.4709 0.54944 0.87398 0.0
C1766 C 0.42222 0.52362 0.88174 0.0
C1767 C 0.51989 0.61415 0.87447 0.0
C1768 C 0.52145 0.65482 0.88273 0.0
H1769 H 0.47135 0.51947 0.86754 0.0
H1770 H 0.55723 0.63212 0.86844 0.0
S1771 S 0.40679 0.61089 0.90516 0.0
N1772 N 0.38071 0.54435 0.89813 0.0
N1773 N 0.47069 0.66539 0.89874 0.0
C1774 C 0.47279 0.62999 0.89041 0.0
C1775 C 0.42371 0.56442 0.89 0.0
C1776 C 0.81048 0.88706 0.72541 0.0
C1777 C 0.83971 0.86582 0.71795 0.0
C1778 C 0.83122 0.95283 0.72661 0.0
C1779 C 0.88167 0.99963 0.72036 0.0
H1780 H 0.77192 0.85275 0.73045 0.0
H1781 H 0.80709 0.96699 0.73242 0.0
S1782 S 0.97082 0.96836 0.69916 0.0
N1783 N 0.9191 0.8964 0.70382 0.0
N1784 N 0.95883 0.01965 0.70621 0.0
C1785 C 0.91085 0.97883 0.71282 0.0
C1786 C 0.88961 0.912 0.71158 0.0
C1787 C 0.14735 0.99633 0.71684 0.0
C1788 C 0.12792 0.93903 0.72254 0.0
C1789 C 0.2124 0.04404 0.7163 0.0
C1790 C 0.26016 0.03541 0.72125 0.0
H1791 H 0.11221 1.00411 0.71267 0.0
H1792 H 0.22559 0.08713 0.71172 0.0
S1793 S 0.23461 0.89645 0.73772 0.0
N1794 N 0.16168 0.87822 0.73376 0.0
N1795 N 0.28401 0.96735 0.73243 0.0
C1796 C 0.24151 0.97906 0.72711 0.0
C1797 C 0.17525 0.931 0.72785 0.0
C1798 C 0.18407 0.3047 0.72735 0.0
C1799 C 0.18696 0.25807 0.72091 0.0
C1800 C 0.13699 0.32236 0.72567 0.0
C1801 C 0.09051 0.2933 0.71759 0.0
H1802 H 0.2188 0.32825 0.73369 0.0
H1803 H 0.13646 0.35835 0.73084 0.0
S1804 S 0.07833 0.17043 0.69827 0.0
N1805 N 0.14003 0.18439 0.70594 0.0
N1806 N 0.05139 0.21723 0.70287 0.0
C1807 C 0.09282 0.24671 0.71109 0.0
C1808 C 0.14107 0.22914 0.71273 0.0
C1809 C 0.59958 0.14895 0.12109 0.0
C1810 C 0.64661 0.19468 0.12797 0.0
C1811 C 0.53419 0.12979 0.12233 0.0
C1812 C 0.51384 0.15641 0.13039 0.0
H1813 H 0.61316 0.12683 0.11483 0.0
H1814 H 0.49944 0.09418 0.11691 0.0
S1815 S 0.61699 0.2758 0.15072 0.0
N1816 N 0.6676 0.26479 0.14329 0.0
N1817 N 0.5451 0.22947 0.14549 0.0
C1818 C 0.56025 0.20256 0.13724 0.0
C1819 C 0.62659 0.22157 0.13606 0.0
C1820 C 0.96022 0.4473 0.12336 0.0
C1821 C 0.93432 0.39923 0.13122 0.0
C1822 C 0.94019 0.49314 0.12248 0.0
C1823 C 0.89417 0.49282 0.12952 0.0
H1824 H 0.99563 0.44912 0.11778 0.0
H1825 H 0.96158 0.52958 0.11633 0.0
S1826 S 0.81532 0.37922 0.15195 0.0
N1827 N 0.86251 0.35545 0.14642 0.0
N1828 N 0.82502 0.44131 0.14483 0.0
C1829 C 0.86837 0.44511 0.13745 0.0
C1830 C 0.88847 0.39839 0.1383 0.0
C1831 C 0.62873 0.5578 0.12586 0.0
C1832 C 0.68136 0.57557 0.13274 0.0
C1833 C 0.57906 0.49357 0.12508 0.0
C1834 C 0.5809 0.44479 0.13102 0.0
H1835 H 0.62614 0.59366 0.12096 0.0
H1836 H 0.53941 0.48186 0.11968 0.0
S1837 S 0.7033 0.46704 0.15118 0.0
N1838 N 0.72864 0.53996 0.1464 0.0
N1839 N 0.63669 0.419 0.14458 0.0
C1840 C 0.63256 0.46195 0.13804 0.0
C1841 C 0.68248 0.52746 0.13899 0.0
C1842 C 0.9499 0.49895 0.62049 0.0
C1843 C 0.90691 0.45182 0.62763 0.0
C1844 C 0.96841 0.56406 0.62183 0.0
C1845 C 0.94373 0.584 0.63026 0.0
H1846 H 0.97049 0.48572 0.61393 0.0
H1847 H 1.00178 0.59886 0.61618 0.0
S1848 S 0.83072 0.48008 0.65126 0.0
N1849 N 0.84068 0.42997 0.64351 0.0
N1850 N 0.87516 0.55207 0.64595 0.0
C1851 C 0.90031 0.53741 0.63739 0.0
C1852 C 0.88189 0.47132 0.63609 0.0
C1853 C 0.60351 0.49817 0.62341 0.0
C1854 C 0.65373 0.49342 0.62834 0.0
C1855 C 0.53885 0.45262 0.62538 0.0
C1856 C 0.52209 0.40055 0.63232 0.0
H1857 H 0.6141 0.53832 0.61821 0.0
H1858 H 0.50176 0.4585 0.62147 0.0
S1859 S 0.63579 0.36397 0.64663 0.0
N1860 N 0.68248 0.43062 0.63997 0.0
N1861 N 0.56128 0.34549 0.64376 0.0
C1862 C 0.57194 0.39415 0.63702 0.0
C1863 C 0.6377 0.44044 0.635 0.0
C1864 C 0.65464 0.14151 0.64143 0.0
C1865 C 0.70803 0.17425 0.63468 0.0
C1866 C 0.60352 0.15422 0.64109 0.0
C1867 C 0.60399 0.19972 0.63394 0.0
H1868 H 0.65179 0.1051 0.64687 0.0
H1869 H 0.56273 0.12715 0.64632 0.0
S1870 S 0.73364 0.30126 0.61501 0.0
N1871 N 0.75887 0.25634 0.62091 0.0
N1872 N 0.66298 0.2798 0.62038 0.0
C1873 C 0.65758 0.23399 0.62737 0.0
C1874 C 0.70963 0.22136 0.62772 0.0
C1875 C 0.13875 0.20892 0.21487 0.0
C1876 C 0.11945 0.24318 0.22161 0.0
C1877 C 0.20393 0.2274 0.2137 0.0
C1878 C 0.25224 0.28109 0.21914 0.0
H1879 H 0.10335 0.16811 0.21033 0.0
H1880 H 0.21666 0.20021 0.2083 0.0
S1881 S 0.22714 0.38553 0.23809 0.0
N1882 N 0.15392 0.33203 0.23413 0.0
N1883 N 0.27637 0.36726 0.23176 0.0
C1884 C 0.23365 0.31528 0.22602 0.0
C1885 C 0.16722 0.29606 0.22732 0.0
C1886 C 0.88112 0.03406 0.21472 0.0
C1887 C 0.82744 0.02954 0.22006 0.0
C1888 C 0.90007 0.98796 0.21628 0.0
C1889 C 0.86617 0.93595 0.22328 0.0
H1890 H 0.90787 0.07271 0.20911 0.0
H1891 H 0.94075 0.99244 0.21179 0.0
S1892 S 0.72422 0.90428 0.23964 0.0
N1893 N 0.7419 0.97021 0.2329 0.0
N1894 N 0.77791 0.88404 0.23594 0.0
C1895 C 0.81341 0.93183 0.22889 0.0
C1896 C 0.79379 0.97842 0.22722 0.0
C1897 C 0.12375 0.87777 0.22752 0.0
C1898 C 0.07537 0.85664 0.21969 0.0
C1899 C 0.16965 0.94338 0.22861 0.0
C1900 C 0.16895 0.99001 0.22186 0.0
H1901 H 0.12586 0.84351 0.2329 0.0
H1902 H 0.2065 0.95748 0.23467 0.0
S1903 S 0.05291 0.95896 0.19992 0.0
N1904 N 0.03033 0.88721 0.20495 0.0
N1905 N 0.11556 1.01008 0.20707 0.0
C1906 C 0.12049 0.96934 0.21405 0.0
C1907 C 0.07399 0.90275 0.21294 0.0
loop_
_geom_bond_atom_site_label_1
_geom_bond_atom_site_label_2
_geom_bond_distance
_geom_bond_site_symmetry_2
_ccdc_geom_bond_type
Tb0 O3 2.453 1_545 S
Tb0 O4 2.596 1_545 S
Tb0 O5 2.374 . S
Tb0 O13 2.343 . S
Tb0 O15 2.353 . S
Tb0 O17 2.427 . S
Tb0 O18 2.513 . S
C1 O5 1.251 . S
C1 O7 1.263 . S
Tb2 O4 2.343 1_545 S
Tb2 O7 2.353 . S
Tb2 O10 2.427 1_545 S
Tb2 O11 2.513 1_545 S
Tb2 O12 2.453 . S
Tb2 O13 2.596 . S
Tb2 O14 2.374 . S
O3 Tb0 2.453 1_565 S
O3 C19 1.245 . S
O4 Tb0 2.596 1_565 S
O4 Tb2 2.343 1_565 S
O4 C19 1.259 . S
O5 Tb0 2.374 . S
O5 C1 1.251 . S
C6 O10 1.275 . S
C6 O11 1.246 . S
O7 C1 1.263 . S
O7 Tb2 2.353 . S
C8 O12 1.245 . S
C8 O13 1.259 . S
C9 O14 1.250 . S
C9 O15 1.263 . S
O10 Tb2 2.427 1_565 S
O10 C6 1.275 . S
O11 Tb2 2.513 1_565 S
O11 C6 1.246 . S
O12 Tb2 2.453 . S
O12 C8 1.245 . S
O13 Tb0 2.343 . S
O13 Tb2 2.596 . S
O13 C8 1.259 . S
O14 Tb2 2.374 . S
O14 C9 1.250 . S
O15 Tb0 2.353 . S
O15 C9 1.263 . S
C16 O17 1.275 . S
C16 O18 1.246 . S
O17 Tb0 2.427 . S
O17 C16 1.275 . S
O18 Tb0 2.513 . S
O18 C16 1.246 . S
C19 O3 1.245 . S
C19 O4 1.259 . S
Tb20 O23 2.453 1_655 S
Tb20 O24 2.596 1_655 S
Tb20 O25 2.374 1_655 S
Tb20 O33 2.343 . S
Tb20 O35 2.353 . S
Tb20 O37 2.427 . S
Tb20 O38 2.513 . S
C21 O25 1.251 . S
C21 O27 1.263 . S
Tb22 O24 2.343 . S
Tb22 O27 2.353 . S
Tb22 O30 2.427 . S
Tb22 O31 2.513 . S
Tb22 O32 2.453 1_455 S
Tb22 O33 2.596 1_455 S
Tb22 O34 2.374 . S
O23 Tb20 2.453 1_455 S
O23 C39 1.245 . S
O24 Tb20 2.596 1_455 S
O24 Tb22 2.343 . S
O24 C39 1.259 . S
O25 Tb20 2.374 1_455 S
O25 C21 1.251 . S
C26 O30 1.275 . S
C26 O31 1.246 . S
O27 C21 1.263 . S
O27 Tb22 2.353 . S
C28 O32 1.245 . S
C28 O33 1.259 . S
C29 O34 1.250 . S
C29 O35 1.263 1_455 S
O30 Tb22 2.427 . S
O30 C26 1.275 . S
O31 Tb22 2.513 . S
O31 C26 1.246 . S
O32 Tb22 2.453 1_655 S
O32 C28 1.245 . S
O33 Tb20 2.343 . S
O33 Tb22 2.596 1_655 S
O33 C28 1.259 . S
O34 Tb22 2.374 . S
O34 C29 1.250 . S
O35 Tb20 2.353 . S
O35 C29 1.263 1_655 S
C36 O37 1.275 . S
C36 O38 1.246 . S
O37 Tb20 2.427 . S
O37 C36 1.275 . S
O38 Tb20 2.513 . S
O38 C36 1.246 . S
C39 O23 1.245 . S
C39 O24 1.259 . S
Tb40 O43 2.453 . S
Tb40 O44 2.596 . S
Tb40 O45 2.374 . S
Tb40 O53 2.343 . S
Tb40 O55 2.353 . S
Tb40 O57 2.427 . S
Tb40 O58 2.513 . S
C41 O45 1.251 . S
C41 O47 1.263 . S
Tb42 O44 2.343 . S
Tb42 O47 2.353 . S
Tb42 O50 2.427 . S
Tb42 O51 2.513 . S
Tb42 O52 2.453 . S
Tb42 O53 2.596 . S
Tb42 O54 2.374 . S
O43 Tb40 2.453 . S
O43 C59 1.245 . S
O44 Tb40 2.596 . S
O44 Tb42 2.343 . S
O44 C59 1.259 . S
O45 Tb40 2.374 . S
O45 C41 1.251 . S
C46 O50 1.275 . S
C46 O51 1.246 . S
O47 C41 1.263 . S
O47 Tb42 2.353 . S
C48 O52 1.245 . S
C48 O53 1.259 . S
C49 O54 1.250 . S
C49 O55 1.263 . S
O50 Tb42 2.427 . S
O50 C46 1.275 . S
O51 Tb42 2.513 . S
O51 C46 1.246 . S
O52 Tb42 2.453 . S
O52 C48 1.245 . S
O53 Tb40 2.343 . S
O53 Tb42 2.596 . S
O53 C48 1.259 . S
O54 Tb42 2.374 . S
O54 C49 1.250 . S
O55 Tb40 2.353 . S
O55 C49 1.263 . S
C56 O57 1.275 . S
C56 O58 1.246 . S
O57 Tb40 2.427 . S
O57 C56 1.275 . S
O58 Tb40 2.513 . S
O58 C56 1.246 . S
C59 O43 1.245 . S
C59 O44 1.259 . S
Tb60 O63 2.453 1_455 S
Tb60 O64 2.596 1_455 S
Tb60 O65 2.374 . S
Tb60 O73 2.343 . S
Tb60 O75 2.353 . S
Tb60 O77 2.427 . S
Tb60 O78 2.513 . S
C61 O65 1.251 . S
C61 O67 1.263 . S
Tb62 O64 2.343 1_455 S
Tb62 O67 2.353 . S
Tb62 O70 2.427 1_455 S
Tb62 O71 2.513 1_455 S
Tb62 O72 2.453 . S
Tb62 O73 2.596 . S
Tb62 O74 2.374 . S
O63 Tb60 2.453 1_655 S
O63 C79 1.245 . S
O64 Tb60 2.596 1_655 S
O64 Tb62 2.343 1_655 S
O64 C79 1.259 . S
O65 Tb60 2.374 . S
O65 C61 1.251 . S
C66 O70 1.275 . S
C66 O71 1.246 . S
O67 C61 1.263 . S
O67 Tb62 2.353 . S
C68 O72 1.245 . S
C68 O73 1.259 . S
C69 O74 1.250 . S
C69 O75 1.263 . S
O70 Tb62 2.427 1_655 S
O70 C66 1.275 . S
O71 Tb62 2.513 1_655 S
O71 C66 1.246 . S
O72 Tb62 2.453 . S
O72 C68 1.245 . S
O73 Tb60 2.343 . S
O73 Tb62 2.596 . S
O73 C68 1.259 . S
O74 Tb62 2.374 . S
O74 C69 1.250 . S
O75 Tb60 2.353 . S
O75 C69 1.263 . S
C76 O77 1.275 . S
C76 O78 1.246 . S
O77 Tb60 2.427 . S
O77 C76 1.275 . S
O78 Tb60 2.513 . S
O78 C76 1.246 . S
C79 O63 1.245 . S
C79 O64 1.259 . S
Tb80 O83 2.453 . S
Tb80 O84 2.596 . S
Tb80 O85 2.374 . S
Tb80 O93 2.343 . S
Tb80 O95 2.353 . S
Tb80 O97 2.427 . S
Tb80 O98 2.513 . S
C81 O85 1.251 . S
C81 O87 1.263 . S
Tb82 O84 2.343 . S
Tb82 O87 2.353 . S
Tb82 O90 2.427 . S
Tb82 O91 2.513 . S
Tb82 O92 2.453 . S
Tb82 O93 2.596 . S
Tb82 O94 2.374 . S
O83 Tb80 2.453 . S
O83 C99 1.245 . S
O84 Tb80 2.596 . S
O84 Tb82 2.343 . S
O84 C99 1.259 . S
O85 Tb80 2.374 . S
O85 C81 1.251 . S
C86 O90 1.275 . S
C86 O91 1.246 . S
O87 C81 1.263 . S
O87 Tb82 2.353 . S
C88 O92 1.245 . S
C88 O93 1.259 . S
C89 O94 1.250 . S
C89 O95 1.263 . S
O90 Tb82 2.427 . S
O90 C86 1.275 . S
O91 Tb82 2.513 . S
O91 C86 1.246 . S
O92 Tb82 2.453 . S
O92 C88 1.245 . S
O93 Tb80 2.343 . S
O93 Tb82 2.596 . S
O93 C88 1.259 . S
O94 Tb82 2.374 . S
O94 C89 1.250 . S
O95 Tb80 2.353 . S
O95 C89 1.263 . S
C96 O97 1.275 . S
C96 O98 1.246 . S
O97 Tb80 2.427 . S
O97 C96 1.275 . S
O98 Tb80 2.513 . S
O98 C96 1.246 . S
C99 O83 1.245 . S
C99 O84 1.259 . S
Tb100 O103 2.453 1_565 S
Tb100 O104 2.596 1_565 S
Tb100 O105 2.374 1_565 S
Tb100 O113 2.343 . S
Tb100 O115 2.353 . S
Tb100 O117 2.427 . S
Tb100 O118 2.513 . S
C101 O105 1.251 . S
C101 O107 1.263 . S
Tb102 O104 2.343 . S
Tb102 O107 2.353 . S
Tb102 O110 2.427 . S
Tb102 O111 2.513 . S
Tb102 O112 2.453 1_545 S
Tb102 O113 2.596 1_545 S
Tb102 O114 2.374 . S
O103 Tb100 2.453 1_545 S
O103 C119 1.245 . S
O104 Tb100 2.596 1_545 S
O104 Tb102 2.343 . S
O104 C119 1.259 . S
O105 Tb100 2.374 1_545 S
O105 C101 1.251 . S
C106 O110 1.275 . S
C106 O111 1.246 . S
O107 C101 1.263 . S
O107 Tb102 2.353 . S
C108 O112 1.245 . S
C108 O113 1.259 . S
C109 O114 1.250 . S
C109 O115 1.263 1_545 S
O110 Tb102 2.427 . S
O110 C106 1.275 . S
O111 Tb102 2.513 . S
O111 C106 1.246 . S
O112 Tb102 2.453 1_565 S
O112 C108 1.245 . S
O113 Tb100 2.343 . S
O113 Tb102 2.596 1_565 S
O113 C108 1.259 . S
O114 Tb102 2.374 . S
O114 C109 1.250 . S
O115 Tb100 2.353 . S
O115 C109 1.263 1_565 S
C116 O117 1.275 . S
C116 O118 1.246 . S
O117 Tb100 2.427 . S
O117 C116 1.275 . S
O118 Tb100 2.513 . S
O118 C116 1.246 . S
C119 O103 1.245 . S
C119 O104 1.259 . S
Tb120 O123 2.453 1_545 S
Tb120 O124 2.596 1_545 S
Tb120 O125 2.374 . S
Tb120 O133 2.343 . S
Tb120 O135 2.353 . S
Tb120 O137 2.427 . S
Tb120 O138 2.513 . S
C121 O125 1.251 . S
C121 O127 1.263 1_545 S
Tb122 O124 2.343 . S
Tb122 O127 2.353 . S
Tb122 O130 2.427 . S
Tb122 O131 2.513 . S
Tb122 O132 2.453 1_565 S
Tb122 O133 2.596 1_565 S
Tb122 O134 2.374 1_565 S
O123 Tb120 2.453 1_565 S
O123 C139 1.245 . S
O124 Tb120 2.596 1_565 S
O124 Tb122 2.343 . S
O124 C139 1.259 . S
O125 Tb120 2.374 . S
O125 C121 1.251 . S
C126 O130 1.275 . S
C126 O131 1.246 . S
O127 C121 1.263 1_565 S
O127 Tb122 2.353 . S
C128 O132 1.245 . S
C128 O133 1.259 . S
C129 O134 1.250 . S
C129 O135 1.263 . S
O130 Tb122 2.427 . S
O130 C126 1.275 . S
O131 Tb122 2.513 . S
O131 C126 1.246 . S
O132 Tb122 2.453 1_545 S
O132 C128 1.245 . S
O133 Tb120 2.343 . S
O133 Tb122 2.596 1_545 S
O133 C128 1.259 . S
O134 Tb122 2.374 1_545 S
O134 C129 1.250 . S
O135 Tb120 2.353 . S
O135 C129 1.263 . S
C136 O137 1.275 . S
C136 O138 1.246 . S
O137 Tb120 2.427 . S
O137 C136 1.275 . S
O138 Tb120 2.513 . S
O138 C136 1.246 . S
C139 O123 1.245 . S
C139 O124 1.259 . S
Tb140 O143 2.453 . S
Tb140 O144 2.596 . S
Tb140 O145 2.374 . S
Tb140 O153 2.343 1_455 S
Tb140 O155 2.353 . S
Tb140 O157 2.427 1_455 S
Tb140 O158 2.513 1_455 S
C141 O145 1.251 . S
C141 O147 1.263 . S
Tb142 O144 2.343 . S
Tb142 O147 2.353 . S
Tb142 O150 2.427 . S
Tb142 O151 2.513 . S
Tb142 O152 2.453 1_455 S
Tb142 O153 2.596 1_455 S
Tb142 O154 2.374 . S
O143 Tb140 2.453 . S
O143 C159 1.245 . S
O144 Tb140 2.596 . S
O144 Tb142 2.343 . S
O144 C159 1.259 . S
O145 Tb140 2.374 . S
O145 C141 1.251 . S
C146 O150 1.275 . S
C146 O151 1.246 . S
O147 C141 1.263 . S
O147 Tb142 2.353 . S
C148 O152 1.245 . S
C148 O153 1.259 . S
C149 O154 1.250 . S
C149 O155 1.263 . S
O150 Tb142 2.427 . S
O150 C146 1.275 . S
O151 Tb142 2.513 . S
O151 C146 1.246 . S
O152 Tb142 2.453 1_655 S
O152 C148 1.245 . S
O153 Tb140 2.343 1_655 S
O153 Tb142 2.596 1_655 S
O153 C148 1.259 . S
O154 Tb142 2.374 . S
O154 C149 1.250 . S
O155 Tb140 2.353 . S
O155 C149 1.263 . S
C156 O157 1.275 . S
C156 O158 1.246 . S
O157 Tb140 2.427 1_655 S
O157 C156 1.275 . S
O158 Tb140 2.513 1_655 S
O158 C156 1.246 . S
C159 O143 1.245 . S
C159 O144 1.259 . S
Tb160 O163 2.453 . S
Tb160 O164 2.596 . S
Tb160 O165 2.374 . S
Tb160 O173 2.343 . S
Tb160 O175 2.353 . S
Tb160 O177 2.427 . S
Tb160 O178 2.513 . S
C161 O165 1.251 . S
C161 O167 1.263 . S
Tb162 O164 2.343 . S
Tb162 O167 2.353 . S
Tb162 O170 2.427 . S
Tb162 O171 2.513 . S
Tb162 O172 2.453 . S
Tb162 O173 2.596 . S
Tb162 O174 2.374 . S
O163 Tb160 2.453 . S
O163 C179 1.245 . S
O164 Tb160 2.596 . S
O164 Tb162 2.343 . S
O164 C179 1.259 . S
O165 Tb160 2.374 . S
O165 C161 1.251 . S
C166 O170 1.275 . S
C166 O171 1.246 . S
O167 C161 1.263 . S
O167 Tb162 2.353 . S
C168 O172 1.245 . S
C168 O173 1.259 . S
C169 O174 1.250 . S
C169 O175 1.263 . S
O170 Tb162 2.427 . S
O170 C166 1.275 . S
O171 Tb162 2.513 . S
O171 C166 1.246 . S
O172 Tb162 2.453 . S
O172 C168 1.245 . S
O173 Tb160 2.343 . S
O173 Tb162 2.596 . S
O173 C168 1.259 . S
O174 Tb162 2.374 . S
O174 C169 1.250 . S
O175 Tb160 2.353 . S
O175 C169 1.263 . S
C176 O177 1.275 . S
C176 O178 1.246 . S
O177 Tb160 2.427 . S
O177 C176 1.275 . S
O178 Tb160 2.513 . S
O178 C176 1.246 . S
C179 O163 1.245 . S
C179 O164 1.259 . S
Tb180 O183 2.453 1_455 S
Tb180 O184 2.596 1_455 S
Tb180 O185 2.374 . S
Tb180 O193 2.343 . S
Tb180 O195 2.353 . S
Tb180 O197 2.427 . S
Tb180 O198 2.513 . S
C181 O185 1.251 . S
C181 O187 1.263 1_455 S
Tb182 O184 2.343 . S
Tb182 O187 2.353 . S
Tb182 O190 2.427 . S
Tb182 O191 2.513 . S
Tb182 O192 2.453 1_655 S
Tb182 O193 2.596 1_655 S
Tb182 O194 2.374 1_655 S
O183 Tb180 2.453 1_655 S
O183 C199 1.245 . S
O184 Tb180 2.596 1_655 S
O184 Tb182 2.343 . S
O184 C199 1.259 . S
O185 Tb180 2.374 . S
O185 C181 1.251 . S
C186 O190 1.275 . S
C186 O191 1.246 . S
O187 C181 1.263 1_655 S
O187 Tb182 2.353 . S
C188 O192 1.245 . S
C188 O193 1.259 . S
C189 O194 1.250 . S
C189 O195 1.263 . S
O190 Tb182 2.427 . S
O190 C186 1.275 . S
O191 Tb182 2.513 . S
O191 C186 1.246 . S
O192 Tb182 2.453 1_455 S
O192 C188 1.245 . S
O193 Tb180 2.343 . S
O193 Tb182 2.596 1_455 S
O193 C188 1.259 . S
O194 Tb182 2.374 1_455 S
O194 C189 1.250 . S
O195 Tb180 2.353 . S
O195 C189 1.263 . S
C196 O197 1.275 . S
C196 O198 1.246 . S
O197 Tb180 2.427 . S
O197 C196 1.275 . S
O198 Tb180 2.513 . S
O198 C196 1.246 . S
C199 O183 1.245 . S
C199 O184 1.259 . S
Tb200 O203 2.453 . S
Tb200 O204 2.596 . S
Tb200 O205 2.374 . S
Tb200 O213 2.343 . S
Tb200 O215 2.353 . S
Tb200 O217 2.427 . S
Tb200 O218 2.513 . S
C201 O205 1.251 . S
C201 O207 1.263 . S
Tb202 O204 2.343 . S
Tb202 O207 2.353 . S
Tb202 O210 2.427 . S
Tb202 O211 2.513 . S
Tb202 O212 2.453 . S
Tb202 O213 2.596 . S
Tb202 O214 2.374 . S
O203 Tb200 2.453 . S
O203 C219 1.245 . S
O204 Tb200 2.596 . S
O204 Tb202 2.343 . S
O204 C219 1.259 . S
O205 Tb200 2.374 . S
O205 C201 1.251 . S
C206 O210 1.275 . S
C206 O211 1.246 . S
O207 C201 1.263 . S
O207 Tb202 2.353 . S
C208 O212 1.245 . S
C208 O213 1.259 . S
C209 O214 1.250 . S
C209 O215 1.263 . S
O210 Tb202 2.427 . S
O210 C206 1.275 . S
O211 Tb202 2.513 . S
O211 C206 1.246 . S
O212 Tb202 2.453 . S
O212 C208 1.245 . S
O213 Tb200 2.343 . S
O213 Tb202 2.596 . S
O213 C208 1.259 . S
O214 Tb202 2.374 . S
O214 C209 1.250 . S
O215 Tb200 2.353 . S
O215 C209 1.263 . S
C216 O217 1.275 . S
C216 O218 1.246 . S
O217 Tb200 2.427 . S
O217 C216 1.275 . S
O218 Tb200 2.513 . S
O218 C216 1.246 . S
C219 O203 1.245 . S
C219 O204 1.259 . S
Tb220 O223 2.453 . S
Tb220 O224 2.596 . S
Tb220 O225 2.374 . S
Tb220 O233 2.343 1_545 S
Tb220 O235 2.353 . S
Tb220 O237 2.427 1_545 S
Tb220 O238 2.513 1_545 S
C221 O225 1.251 . S
C221 O227 1.263 . S
Tb222 O224 2.343 . S
Tb222 O227 2.353 . S
Tb222 O230 2.427 . S
Tb222 O231 2.513 . S
Tb222 O232 2.453 1_545 S
Tb222 O233 2.596 1_545 S
Tb222 O234 2.374 . S
O223 Tb220 2.453 . S
O223 C239 1.245 . S
O224 Tb220 2.596 . S
O224 Tb222 2.343 . S
O224 C239 1.259 . S
O225 Tb220 2.374 . S
O225 C221 1.251 . S
C226 O230 1.275 . S
C226 O231 1.246 . S
O227 C221 1.263 . S
O227 Tb222 2.353 . S
C228 O232 1.245 . S
C228 O233 1.259 . S
C229 O234 1.250 . S
C229 O235 1.263 . S
O230 Tb222 2.427 . S
O230 C226 1.275 . S
O231 Tb222 2.513 . S
O231 C226 1.246 . S
O232 Tb222 2.453 1_565 S
O232 C228 1.245 . S
O233 Tb220 2.343 1_565 S
O233 Tb222 2.596 1_565 S
O233 C228 1.259 . S
O234 Tb222 2.374 . S
O234 C229 1.250 . S
O235 Tb220 2.353 . S
O235 C229 1.263 . S
C236 O237 1.275 . S
C236 O238 1.246 . S
O237 Tb220 2.427 1_565 S
O237 C236 1.275 . S
O238 Tb220 2.513 1_565 S
O238 C236 1.246 . S
C239 O223 1.245 . S
C239 O224 1.259 . S
Tb240 O243 2.453 . S
Tb240 O244 2.596 . S
Tb240 O245 2.374 . S
Tb240 O253 2.343 . S
Tb240 O255 2.353 . S
Tb240 O257 2.427 . S
Tb240 O258 2.513 . S
C241 O245 1.251 . S
C241 O247 1.263 . S
Tb242 O244 2.343 . S
Tb242 O247 2.353 . S
Tb242 O250 2.427 . S
Tb242 O251 2.513 . S
Tb242 O252 2.453 . S
Tb242 O253 2.596 . S
Tb242 O254 2.374 . S
O243 Tb240 2.453 . S
O243 C259 1.245 . S
O244 Tb240 2.596 . S
O244 Tb242 2.343 . S
O244 C259 1.259 . S
O245 Tb240 2.374 . S
O245 C241 1.251 . S
C246 O250 1.275 . S
C246 O251 1.246 . S
O247 C241 1.263 . S
O247 Tb242 2.353 . S
C248 O252 1.245 . S
C248 O253 1.259 . S
C249 O254 1.250 . S
C249 O255 1.263 . S
O250 Tb242 2.427 . S
O250 C246 1.275 . S
O251 Tb242 2.513 . S
O251 C246 1.246 . S
O252 Tb242 2.453 . S
O252 C248 1.245 . S
O253 Tb240 2.343 . S
O253 Tb242 2.596 . S
O253 C248 1.259 . S
O254 Tb242 2.374 . S
O254 C249 1.250 . S
O255 Tb240 2.353 . S
O255 C249 1.263 . S
C256 O257 1.275 . S
C256 O258 1.246 . S
O257 Tb240 2.427 . S
O257 C256 1.275 . S
O258 Tb240 2.513 . S
O258 C256 1.246 . S
C259 O243 1.245 . S
C259 O244 1.259 . S
Tb260 O263 2.453 . S
Tb260 O264 2.596 . S
Tb260 O265 2.374 . S
Tb260 O273 2.343 . S
Tb260 O275 2.353 . S
Tb260 O277 2.427 . S
Tb260 O278 2.513 . S
C261 O265 1.251 . S
C261 O267 1.263 . S
Tb262 O264 2.343 . S
Tb262 O267 2.353 . S
Tb262 O270 2.427 . S
Tb262 O271 2.513 . S
Tb262 O272 2.453 . S
Tb262 O273 2.596 . S
Tb262 O274 2.374 . S
O263 Tb260 2.453 . S
O263 C279 1.245 . S
O264 Tb260 2.596 . S
O264 Tb262 2.343 . S
O264 C279 1.259 . S
O265 Tb260 2.374 . S
O265 C261 1.251 . S
C266 O270 1.275 . S
C266 O271 1.246 . S
O267 C261 1.263 . S
O267 Tb262 2.353 . S
C268 O272 1.245 . S
C268 O273 1.259 . S
C269 O274 1.250 . S
C269 O275 1.263 . S
O270 Tb262 2.427 . S
O270 C266 1.275 . S
O271 Tb262 2.513 . S
O271 C266 1.246 . S
O272 Tb262 2.453 . S
O272 C268 1.245 . S
O273 Tb260 2.343 . S
O273 Tb262 2.596 . S
O273 C268 1.259 . S
O274 Tb262 2.374 . S
O274 C269 1.250 . S
O275 Tb260 2.353 . S
O275 C269 1.263 . S
C276 O277 1.275 . S
C276 O278 1.246 . S
O277 Tb260 2.427 . S
O277 C276 1.275 . S
O278 Tb260 2.513 . S
O278 C276 1.246 . S
C279 O263 1.245 . S
C279 O264 1.259 . S
Tb280 O283 2.453 . S
Tb280 O284 2.596 . S
Tb280 O285 2.374 . S
Tb280 O293 2.343 . S
Tb280 O295 2.353 . S
Tb280 O297 2.427 . S
Tb280 O298 2.513 . S
C281 O285 1.251 . S
C281 O287 1.263 . S
Tb282 O284 2.343 . S
Tb282 O287 2.353 . S
Tb282 O290 2.427 1_565 S
Tb282 O291 2.513 1_565 S
Tb282 O292 2.453 . S
Tb282 O293 2.596 . S
Tb282 O294 2.374 . S
O283 Tb280 2.453 . S
O283 C299 1.245 . S
O284 Tb280 2.596 . S
O284 Tb282 2.343 . S
O284 C299 1.259 . S
O285 Tb280 2.374 . S
O285 C281 1.251 . S
C286 O290 1.275 . S
C286 O291 1.246 . S
O287 C281 1.263 . S
O287 Tb282 2.353 . S
C288 O292 1.245 . S
C288 O293 1.259 . S
C289 O294 1.250 . S
C289 O295 1.263 . S
O290 Tb282 2.427 1_545 S
O290 C286 1.275 . S
O291 Tb282 2.513 1_545 S
O291 C286 1.246 . S
O292 Tb282 2.453 . S
O292 C288 1.245 . S
O293 Tb280 2.343 . S
O293 Tb282 2.596 . S
O293 C288 1.259 . S
O294 Tb282 2.374 . S
O294 C289 1.250 . S
O295 Tb280 2.353 . S
O295 C289 1.263 . S
C296 O297 1.275 . S
C296 O298 1.246 . S
O297 Tb280 2.427 . S
O297 C296 1.275 . S
O298 Tb280 2.513 . S
O298 C296 1.246 . S
C299 O283 1.245 . S
C299 O284 1.259 . S
Tb300 O303 2.453 . S
Tb300 O304 2.596 . S
Tb300 O305 2.374 . S
Tb300 O313 2.343 . S
Tb300 O315 2.353 . S
Tb300 O317 2.427 1_565 S
Tb300 O318 2.513 1_565 S
C301 O305 1.251 . S
C301 O307 1.263 . S
Tb302 O304 2.343 . S
Tb302 O307 2.353 . S
Tb302 O310 2.427 . S
Tb302 O311 2.513 . S
Tb302 O312 2.453 . S
Tb302 O313 2.596 . S
Tb302 O314 2.374 . S
O303 Tb300 2.453 . S
O303 C319 1.245 . S
O304 Tb300 2.596 . S
O304 Tb302 2.343 . S
O304 C319 1.259 . S
O305 Tb300 2.374 . S
O305 C301 1.251 . S
C306 O310 1.275 . S
C306 O311 1.246 . S
O307 C301 1.263 . S
O307 Tb302 2.353 . S
C308 O312 1.245 . S
C308 O313 1.259 . S
C309 O314 1.250 . S
C309 O315 1.263 . S
O310 Tb302 2.427 . S
O310 C306 1.275 . S
O311 Tb302 2.513 . S
O311 C306 1.246 . S
O312 Tb302 2.453 . S
O312 C308 1.245 . S
O313 Tb300 2.343 . S
O313 Tb302 2.596 . S
O313 C308 1.259 . S
O314 Tb302 2.374 . S
O314 C309 1.250 . S
O315 Tb300 2.353 . S
O315 C309 1.263 . S
C316 O317 1.275 . S
C316 O318 1.246 . S
O317 Tb300 2.427 1_545 S
O317 C316 1.275 . S
O318 Tb300 2.513 1_545 S
O318 C316 1.246 . S
C319 O303 1.245 . S
C319 O304 1.259 . S
Tb320 O323 2.453 . S
Tb320 O324 2.596 . S
Tb320 O325 2.374 . S
Tb320 O333 2.343 . S
Tb320 O335 2.353 . S
Tb320 O337 2.427 . S
Tb320 O338 2.513 . S
C321 O325 1.251 . S
C321 O327 1.263 . S
Tb322 O324 2.343 . S
Tb322 O327 2.353 . S
Tb322 O330 2.427 . S
Tb322 O331 2.513 . S
Tb322 O332 2.453 1_565 S
Tb322 O333 2.596 . S
Tb322 O334 2.374 . S
O323 Tb320 2.453 . S
O323 C339 1.245 . S
O324 Tb320 2.596 . S
O324 Tb322 2.343 . S
O324 C339 1.259 . S
O325 Tb320 2.374 . S
O325 C321 1.251 . S
C326 O330 1.275 . S
C326 O331 1.246 . S
O327 C321 1.263 . S
O327 Tb322 2.353 . S
C328 O332 1.245 1_565 S
C328 O333 1.259 . S
C329 O334 1.250 . S
C329 O335 1.263 . S
O330 Tb322 2.427 . S
O330 C326 1.275 . S
O331 Tb322 2.513 . S
O331 C326 1.246 . S
O332 Tb322 2.453 1_545 S
O332 C328 1.245 1_545 S
O333 Tb320 2.343 . S
O333 Tb322 2.596 . S
O333 C328 1.259 . S
O334 Tb322 2.374 . S
O334 C329 1.250 . S
O335 Tb320 2.353 . S
O335 C329 1.263 . S
C336 O337 1.275 . S
C336 O338 1.246 . S
O337 Tb320 2.427 . S
O337 C336 1.275 . S
O338 Tb320 2.513 . S
O338 C336 1.246 . S
C339 O323 1.245 . S
C339 O324 1.259 . S
Tb340 O343 2.453 . S
Tb340 O344 2.596 . S
Tb340 O345 2.374 . S
Tb340 O353 2.343 . S
Tb340 O355 2.353 . S
Tb340 O357 2.427 . S
Tb340 O358 2.513 . S
C341 O345 1.251 . S
C341 O347 1.263 . S
Tb342 O344 2.343 . S
Tb342 O347 2.353 . S
Tb342 O350 2.427 . S
Tb342 O351 2.513 . S
Tb342 O352 2.453 . S
Tb342 O353 2.596 . S
Tb342 O354 2.374 . S
O343 Tb340 2.453 . S
O343 C359 1.245 . S
O344 Tb340 2.596 . S
O344 Tb342 2.343 . S
O344 C359 1.259 . S
O345 Tb340 2.374 . S
O345 C341 1.251 . S
C346 O350 1.275 . S
C346 O351 1.246 . S
O347 C341 1.263 . S
O347 Tb342 2.353 . S
C348 O352 1.245 . S
C348 O353 1.259 . S
C349 O354 1.250 . S
C349 O355 1.263 . S
O350 Tb342 2.427 . S
O350 C346 1.275 . S
O351 Tb342 2.513 . S
O351 C346 1.246 . S
O352 Tb342 2.453 . S
O352 C348 1.245 . S
O353 Tb340 2.343 . S
O353 Tb342 2.596 . S
O353 C348 1.259 . S
O354 Tb342 2.374 . S
O354 C349 1.250 . S
O355 Tb340 2.353 . S
O355 C349 1.263 . S
C356 O357 1.275 . S
C356 O358 1.246 . S
O357 Tb340 2.427 . S
O357 C356 1.275 . S
O358 Tb340 2.513 . S
O358 C356 1.246 . S
C359 O343 1.245 . S
C359 O344 1.259 . S
Tb360 O363 2.453 . S
Tb360 O364 2.596 . S
Tb360 O365 2.374 . S
Tb360 O373 2.343 . S
Tb360 O375 2.353 . S
Tb360 O377 2.427 . S
Tb360 O378 2.513 . S
C361 O365 1.251 . S
C361 O367 1.263 . S
Tb362 O364 2.343 . S
Tb362 O367 2.353 . S
Tb362 O370 2.427 . S
Tb362 O371 2.513 . S
Tb362 O372 2.453 . S
Tb362 O373 2.596 . S
Tb362 O374 2.374 . S
O363 Tb360 2.453 . S
O363 C379 1.245 . S
O364 Tb360 2.596 . S
O364 Tb362 2.343 . S
O364 C379 1.259 . S
O365 Tb360 2.374 . S
O365 C361 1.251 . S
C366 O370 1.275 . S
C366 O371 1.246 . S
O367 C361 1.263 . S
O367 Tb362 2.353 . S
C368 O372 1.245 . S
C368 O373 1.259 . S
C369 O374 1.250 . S
C369 O375 1.263 . S
O370 Tb362 2.427 . S
O370 C366 1.275 . S
O371 Tb362 2.513 . S
O371 C366 1.246 . S
O372 Tb362 2.453 . S
O372 C368 1.245 . S
O373 Tb360 2.343 . S
O373 Tb362 2.596 . S
O373 C368 1.259 . S
O374 Tb362 2.374 . S
O374 C369 1.250 . S
O375 Tb360 2.353 . S
O375 C369 1.263 . S
C376 O377 1.275 . S
C376 O378 1.246 . S
O377 Tb360 2.427 . S
O377 C376 1.275 . S
O378 Tb360 2.513 . S
O378 C376 1.246 . S
C379 O363 1.245 . S
C379 O364 1.259 . S
Tb380 O383 2.453 1_565 S
Tb380 O384 2.596 . S
Tb380 O385 2.374 . S
Tb380 O393 2.343 . S
Tb380 O395 2.353 . S
Tb380 O397 2.427 . S
Tb380 O398 2.513 . S
C381 O385 1.251 . S
C381 O387 1.263 . S
Tb382 O384 2.343 . S
Tb382 O387 2.353 . S
Tb382 O390 2.427 . S
Tb382 O391 2.513 . S
Tb382 O392 2.453 . S
Tb382 O393 2.596 . S
Tb382 O394 2.374 . S
O383 Tb380 2.453 1_545 S
O383 C399 1.245 1_545 S
O384 Tb380 2.596 . S
O384 Tb382 2.343 . S
O384 C399 1.259 . S
O385 Tb380 2.374 . S
O385 C381 1.251 . S
C386 O390 1.275 . S
C386 O391 1.246 . S
O387 C381 1.263 . S
O387 Tb382 2.353 . S
C388 O392 1.245 . S
C388 O393 1.259 . S
C389 O394 1.250 . S
C389 O395 1.263 . S
O390 Tb382 2.427 . S
O390 C386 1.275 . S
O391 Tb382 2.513 . S
O391 C386 1.246 . S
O392 Tb382 2.453 . S
O392 C388 1.245 . S
O393 Tb380 2.343 . S
O393 Tb382 2.596 . S
O393 C388 1.259 . S
O394 Tb382 2.374 . S
O394 C389 1.250 . S
O395 Tb380 2.353 . S
O395 C389 1.263 . S
C396 O397 1.275 . S
C396 O398 1.246 . S
O397 Tb380 2.427 . S
O397 C396 1.275 . S
O398 Tb380 2.513 . S
O398 C396 1.246 . S
C399 O383 1.245 1_565 S
C399 O384 1.259 . S
Tb400 O403 2.453 . S
Tb400 O404 2.596 . S
Tb400 O405 2.374 . S
Tb400 O413 2.343 . S
Tb400 O415 2.353 . S
Tb400 O417 2.427 . S
Tb400 O418 2.513 . S
C401 O405 1.251 . S
C401 O407 1.263 . S
Tb402 O404 2.343 . S
Tb402 O407 2.353 . S
Tb402 O410 2.427 1_565 S
Tb402 O411 2.513 1_565 S
Tb402 O412 2.453 . S
Tb402 O413 2.596 . S
Tb402 O414 2.374 . S
O403 Tb400 2.453 . S
O403 C419 1.245 . S
O404 Tb400 2.596 . S
O404 Tb402 2.343 . S
O404 C419 1.259 . S
O405 Tb400 2.374 . S
O405 C401 1.251 . S
C406 O410 1.275 . S
C406 O411 1.246 . S
O407 C401 1.263 . S
O407 Tb402 2.353 . S
C408 O412 1.245 . S
C408 O413 1.259 . S
C409 O414 1.250 . S
C409 O415 1.263 . S
O410 Tb402 2.427 1_545 S
O410 C406 1.275 . S
O411 Tb402 2.513 1_545 S
O411 C406 1.246 . S
O412 Tb402 2.453 . S
O412 C408 1.245 . S
O413 Tb400 2.343 . S
O413 Tb402 2.596 . S
O413 C408 1.259 . S
O414 Tb402 2.374 . S
O414 C409 1.250 . S
O415 Tb400 2.353 . S
O415 C409 1.263 . S
C416 O417 1.275 . S
C416 O418 1.246 . S
O417 Tb400 2.427 . S
O417 C416 1.275 . S
O418 Tb400 2.513 . S
O418 C416 1.246 . S
C419 O403 1.245 . S
C419 O404 1.259 . S
Tb420 O423 2.453 . S
Tb420 O424 2.596 . S
Tb420 O425 2.374 . S
Tb420 O433 2.343 . S
Tb420 O435 2.353 . S
Tb420 O437 2.427 1_565 S
Tb420 O438 2.513 1_565 S
C421 O425 1.251 . S
C421 O427 1.263 . S
Tb422 O424 2.343 . S
Tb422 O427 2.353 . S
Tb422 O430 2.427 . S
Tb422 O431 2.513 . S
Tb422 O432 2.453 . S
Tb422 O433 2.596 . S
Tb422 O434 2.374 . S
O423 Tb420 2.453 . S
O423 C439 1.245 . S
O424 Tb420 2.596 . S
O424 Tb422 2.343 . S
O424 C439 1.259 . S
O425 Tb420 2.374 . S
O425 C421 1.251 . S
C426 O430 1.275 . S
C426 O431 1.246 . S
O427 C421 1.263 . S
O427 Tb422 2.353 . S
C428 O432 1.245 . S
C428 O433 1.259 . S
C429 O434 1.250 . S
C429 O435 1.263 . S
O430 Tb422 2.427 . S
O430 C426 1.275 . S
O431 Tb422 2.513 . S
O431 C426 1.246 . S
O432 Tb422 2.453 . S
O432 C428 1.245 . S
O433 Tb420 2.343 . S
O433 Tb422 2.596 . S
O433 C428 1.259 . S
O434 Tb422 2.374 . S
O434 C429 1.250 . S
O435 Tb420 2.353 . S
O435 C429 1.263 . S
C436 O437 1.275 . S
C436 O438 1.246 . S
O437 Tb420 2.427 1_545 S
O437 C436 1.275 . S
O438 Tb420 2.513 1_545 S
O438 C436 1.246 . S
C439 O423 1.245 . S
C439 O424 1.259 . S
Tb440 O443 2.453 . S
Tb440 O444 2.596 . S
Tb440 O445 2.374 . S
Tb440 O453 2.343 . S
Tb440 O455 2.353 . S
Tb440 O457 2.427 . S
Tb440 O458 2.513 . S
C441 O445 1.251 . S
C441 O447 1.263 . S
Tb442 O444 2.343 . S
Tb442 O447 2.353 . S
Tb442 O450 2.427 . S
Tb442 O451 2.513 . S
Tb442 O452 2.453 . S
Tb442 O453 2.596 . S
Tb442 O454 2.374 . S
O443 Tb440 2.453 . S
O443 C459 1.245 . S
O444 Tb440 2.596 . S
O444 Tb442 2.343 . S
O444 C459 1.259 . S
O445 Tb440 2.374 . S
O445 C441 1.251 . S
C446 O450 1.275 . S
C446 O451 1.246 . S
O447 C441 1.263 . S
O447 Tb442 2.353 . S
C448 O452 1.245 . S
C448 O453 1.259 . S
C449 O454 1.250 . S
C449 O455 1.263 . S
O450 Tb442 2.427 . S
O450 C446 1.275 . S
O451 Tb442 2.513 . S
O451 C446 1.246 . S
O452 Tb442 2.453 . S
O452 C448 1.245 . S
O453 Tb440 2.343 . S
O453 Tb442 2.596 . S
O453 C448 1.259 . S
O454 Tb442 2.374 . S
O454 C449 1.250 . S
O455 Tb440 2.353 . S
O455 C449 1.263 . S
C456 O457 1.275 . S
C456 O458 1.246 . S
O457 Tb440 2.427 . S
O457 C456 1.275 . S
O458 Tb440 2.513 . S
O458 C456 1.246 . S
C459 O443 1.245 . S
C459 O444 1.259 . S
Tb460 O463 2.453 . S
Tb460 O464 2.596 . S
Tb460 O465 2.374 . S
Tb460 O473 2.343 . S
Tb460 O475 2.353 . S
Tb460 O477 2.427 . S
Tb460 O478 2.513 . S
C461 O465 1.251 . S
C461 O467 1.263 . S
Tb462 O464 2.343 . S
Tb462 O467 2.353 . S
Tb462 O470 2.427 . S
Tb462 O471 2.513 . S
Tb462 O472 2.453 . S
Tb462 O473 2.596 . S
Tb462 O474 2.374 . S
O463 Tb460 2.453 . S
O463 C479 1.245 . S
O464 Tb460 2.596 . S
O464 Tb462 2.343 . S
O464 C479 1.259 . S
O465 Tb460 2.374 . S
O465 C461 1.251 . S
C466 O470 1.275 . S
C466 O471 1.246 . S
O467 C461 1.263 . S
O467 Tb462 2.353 . S
C468 O472 1.245 . S
C468 O473 1.259 . S
C469 O474 1.250 . S
C469 O475 1.263 . S
O470 Tb462 2.427 . S
O470 C466 1.275 . S
O471 Tb462 2.513 . S
O471 C466 1.246 . S
O472 Tb462 2.453 . S
O472 C468 1.245 . S
O473 Tb460 2.343 . S
O473 Tb462 2.596 . S
O473 C468 1.259 . S
O474 Tb462 2.374 . S
O474 C469 1.250 . S
O475 Tb460 2.353 . S
O475 C469 1.263 . S
C476 O477 1.275 . S
C476 O478 1.246 . S
O477 Tb460 2.427 . S
O477 C476 1.275 . S
O478 Tb460 2.513 . S
O478 C476 1.246 . S
C479 O463 1.245 . S
C479 O464 1.259 . S
Tb480 O483 2.453 . S
Tb480 O484 2.596 . S
Tb480 O485 2.374 . S
Tb480 O493 2.343 . S
Tb480 O495 2.353 . S
Tb480 O497 2.427 1_655 S
Tb480 O498 2.513 1_655 S
C481 O485 1.251 . S
C481 O487 1.263 . S
Tb482 O484 2.343 . S
Tb482 O487 2.353 . S
Tb482 O490 2.427 . S
Tb482 O491 2.513 . S
Tb482 O492 2.453 . S
Tb482 O493 2.596 . S
Tb482 O494 2.374 . S
O483 Tb480 2.453 . S
O483 C499 1.245 . S
O484 Tb480 2.596 . S
O484 Tb482 2.343 . S
O484 C499 1.259 . S
O485 Tb480 2.374 . S
O485 C481 1.251 . S
C486 O490 1.275 . S
C486 O491 1.246 . S
O487 C481 1.263 . S
O487 Tb482 2.353 . S
C488 O492 1.245 . S
C488 O493 1.259 . S
C489 O494 1.250 . S
C489 O495 1.263 . S
O490 Tb482 2.427 . S
O490 C486 1.275 . S
O491 Tb482 2.513 . S
O491 C486 1.246 . S
O492 Tb482 2.453 . S
O492 C488 1.245 . S
O493 Tb480 2.343 . S
O493 Tb482 2.596 . S
O493 C488 1.259 . S
O494 Tb482 2.374 . S
O494 C489 1.250 . S
O495 Tb480 2.353 . S
O495 C489 1.263 . S
C496 O497 1.275 . S
C496 O498 1.246 . S
O497 Tb480 2.427 1_455 S
O497 C496 1.275 . S
O498 Tb480 2.513 1_455 S
O498 C496 1.246 . S
C499 O483 1.245 . S
C499 O484 1.259 . S
Tb500 O503 2.453 . S
Tb500 O504 2.596 . S
Tb500 O505 2.374 . S
Tb500 O513 2.343 . S
Tb500 O515 2.353 . S
Tb500 O517 2.427 . S
Tb500 O518 2.513 . S
C501 O505 1.251 . S
C501 O507 1.263 . S
Tb502 O504 2.343 . S
Tb502 O507 2.353 . S
Tb502 O510 2.427 . S
Tb502 O511 2.513 . S
Tb502 O512 2.453 . S
Tb502 O513 2.596 . S
Tb502 O514 2.374 . S
O503 Tb500 2.453 . S
O503 C519 1.245 . S
O504 Tb500 2.596 . S
O504 Tb502 2.343 . S
O504 C519 1.259 . S
O505 Tb500 2.374 . S
O505 C501 1.251 . S
C506 O510 1.275 . S
C506 O511 1.246 . S
O507 C501 1.263 . S
O507 Tb502 2.353 . S
C508 O512 1.245 . S
C508 O513 1.259 . S
C509 O514 1.250 . S
C509 O515 1.263 . S
O510 Tb502 2.427 . S
O510 C506 1.275 . S
O511 Tb502 2.513 . S
O511 C506 1.246 . S
O512 Tb502 2.453 . S
O512 C508 1.245 . S
O513 Tb500 2.343 . S
O513 Tb502 2.596 . S
O513 C508 1.259 . S
O514 Tb502 2.374 . S
O514 C509 1.250 . S
O515 Tb500 2.353 . S
O515 C509 1.263 . S
C516 O517 1.275 . S
C516 O518 1.246 . S
O517 Tb500 2.427 . S
O517 C516 1.275 . S
O518 Tb500 2.513 . S
O518 C516 1.246 . S
C519 O503 1.245 . S
C519 O504 1.259 . S
Tb520 O523 2.453 . S
Tb520 O524 2.596 . S
Tb520 O525 2.374 . S
Tb520 O533 2.343 . S
Tb520 O535 2.353 . S
Tb520 O537 2.427 . S
Tb520 O538 2.513 . S
C521 O525 1.251 . S
C521 O527 1.263 . S
Tb522 O524 2.343 . S
Tb522 O527 2.353 . S
Tb522 O530 2.427 . S
Tb522 O531 2.513 . S
Tb522 O532 2.453 1_655 S
Tb522 O533 2.596 . S
Tb522 O534 2.374 . S
O523 Tb520 2.453 . S
O523 C539 1.245 . S
O524 Tb520 2.596 . S
O524 Tb522 2.343 . S
O524 C539 1.259 . S
O525 Tb520 2.374 . S
O525 C521 1.251 . S
C526 O530 1.275 . S
C526 O531 1.246 . S
O527 C521 1.263 . S
O527 Tb522 2.353 . S
C528 O532 1.245 1_655 S
C528 O533 1.259 . S
C529 O534 1.250 . S
C529 O535 1.263 . S
O530 Tb522 2.427 . S
O530 C526 1.275 . S
O531 Tb522 2.513 . S
O531 C526 1.246 . S
O532 Tb522 2.453 1_455 S
O532 C528 1.245 1_455 S
O533 Tb520 2.343 . S
O533 Tb522 2.596 . S
O533 C528 1.259 . S
O534 Tb522 2.374 . S
O534 C529 1.250 . S
O535 Tb520 2.353 . S
O535 C529 1.263 . S
C536 O537 1.275 . S
C536 O538 1.246 . S
O537 Tb520 2.427 . S
O537 C536 1.275 . S
O538 Tb520 2.513 . S
O538 C536 1.246 . S
C539 O523 1.245 . S
C539 O524 1.259 . S
Tb540 O543 2.453 . S
Tb540 O544 2.596 . S
Tb540 O545 2.374 . S
Tb540 O553 2.343 . S
Tb540 O555 2.353 . S
Tb540 O557 2.427 . S
Tb540 O558 2.513 . S
C541 O545 1.251 . S
C541 O547 1.263 . S
Tb542 O544 2.343 . S
Tb542 O547 2.353 . S
Tb542 O550 2.427 . S
Tb542 O551 2.513 . S
Tb542 O552 2.453 . S
Tb542 O553 2.596 . S
Tb542 O554 2.374 . S
O543 Tb540 2.453 . S
O543 C559 1.245 . S
O544 Tb540 2.596 . S
O544 Tb542 2.343 . S
O544 C559 1.259 . S
O545 Tb540 2.374 . S
O545 C541 1.251 . S
C546 O550 1.275 . S
C546 O551 1.246 . S
O547 C541 1.263 . S
O547 Tb542 2.353 . S
C548 O552 1.245 . S
C548 O553 1.259 . S
C549 O554 1.250 . S
C549 O555 1.263 . S
O550 Tb542 2.427 . S
O550 C546 1.275 . S
O551 Tb542 2.513 . S
O551 C546 1.246 . S
O552 Tb542 2.453 . S
O552 C548 1.245 . S
O553 Tb540 2.343 . S
O553 Tb542 2.596 . S
O553 C548 1.259 . S
O554 Tb542 2.374 . S
O554 C549 1.250 . S
O555 Tb540 2.353 . S
O555 C549 1.263 . S
C556 O557 1.275 . S
C556 O558 1.246 . S
O557 Tb540 2.427 . S
O557 C556 1.275 . S
O558 Tb540 2.513 . S
O558 C556 1.246 . S
C559 O543 1.245 . S
C559 O544 1.259 . S
Tb560 O563 2.453 . S
Tb560 O564 2.596 . S
Tb560 O565 2.374 . S
Tb560 O573 2.343 . S
Tb560 O575 2.353 . S
Tb560 O577 2.427 . S
Tb560 O578 2.513 . S
C561 O565 1.251 . S
C561 O567 1.263 . S
Tb562 O564 2.343 . S
Tb562 O567 2.353 . S
Tb562 O570 2.427 1_655 S
Tb562 O571 2.513 1_655 S
Tb562 O572 2.453 . S
Tb562 O573 2.596 . S
Tb562 O574 2.374 . S
O563 Tb560 2.453 . S
O563 C579 1.245 . S
O564 Tb560 2.596 . S
O564 Tb562 2.343 . S
O564 C579 1.259 . S
O565 Tb560 2.374 . S
O565 C561 1.251 . S
C566 O570 1.275 . S
C566 O571 1.246 . S
O567 C561 1.263 . S
O567 Tb562 2.353 . S
C568 O572 1.245 . S
C568 O573 1.259 . S
C569 O574 1.250 . S
C569 O575 1.263 . S
O570 Tb562 2.427 1_455 S
O570 C566 1.275 . S
O571 Tb562 2.513 1_455 S
O571 C566 1.246 . S
O572 Tb562 2.453 . S
O572 C568 1.245 . S
O573 Tb560 2.343 . S
O573 Tb562 2.596 . S
O573 C568 1.259 . S
O574 Tb562 2.374 . S
O574 C569 1.250 . S
O575 Tb560 2.353 . S
O575 C569 1.263 . S
C576 O577 1.275 . S
C576 O578 1.246 . S
O577 Tb560 2.427 . S
O577 C576 1.275 . S
O578 Tb560 2.513 . S
O578 C576 1.246 . S
C579 O563 1.245 . S
C579 O564 1.259 . S
Tb580 O583 2.453 . S
Tb580 O584 2.596 . S
Tb580 O585 2.374 . S
Tb580 O593 2.343 . S
Tb580 O595 2.353 . S
Tb580 O597 2.427 . S
Tb580 O598 2.513 . S
C581 O585 1.251 . S
C581 O587 1.263 . S
Tb582 O584 2.343 . S
Tb582 O587 2.353 . S
Tb582 O590 2.427 . S
Tb582 O591 2.513 . S
Tb582 O592 2.453 . S
Tb582 O593 2.596 . S
Tb582 O594 2.374 . S
O583 Tb580 2.453 . S
O583 C599 1.245 . S
O584 Tb580 2.596 . S
O584 Tb582 2.343 . S
O584 C599 1.259 . S
O585 Tb580 2.374 . S
O585 C581 1.251 . S
C586 O590 1.275 . S
C586 O591 1.246 . S
O587 C581 1.263 . S
O587 Tb582 2.353 . S
C588 O592 1.245 . S
C588 O593 1.259 . S
C589 O594 1.250 . S
C589 O595 1.263 . S
O590 Tb582 2.427 . S
O590 C586 1.275 . S
O591 Tb582 2.513 . S
O591 C586 1.246 . S
O592 Tb582 2.453 . S
O592 C588 1.245 . S
O593 Tb580 2.343 . S
O593 Tb582 2.596 . S
O593 C588 1.259 . S
O594 Tb582 2.374 . S
O594 C589 1.250 . S
O595 Tb580 2.353 . S
O595 C589 1.263 . S
C596 O597 1.275 . S
C596 O598 1.246 . S
O597 Tb580 2.427 . S
O597 C596 1.275 . S
O598 Tb580 2.513 . S
O598 C596 1.246 . S
C599 O583 1.245 . S
C599 O584 1.259 . S
Tb600 O603 2.453 . S
Tb600 O604 2.596 . S
Tb600 O605 2.374 . S
Tb600 O613 2.343 . S
Tb600 O615 2.353 . S
Tb600 O617 2.427 1_655 S
Tb600 O618 2.513 1_655 S
C601 O605 1.251 . S
C601 O607 1.263 . S
Tb602 O604 2.343 . S
Tb602 O607 2.353 . S
Tb602 O610 2.427 . S
Tb602 O611 2.513 . S
Tb602 O612 2.453 . S
Tb602 O613 2.596 . S
Tb602 O614 2.374 . S
O603 Tb600 2.453 . S
O603 C619 1.245 . S
O604 Tb600 2.596 . S
O604 Tb602 2.343 . S
O604 C619 1.259 . S
O605 Tb600 2.374 . S
O605 C601 1.251 . S
C606 O610 1.275 . S
C606 O611 1.246 . S
O607 C601 1.263 . S
O607 Tb602 2.353 . S
C608 O612 1.245 . S
C608 O613 1.259 . S
C609 O614 1.250 . S
C609 O615 1.263 . S
O610 Tb602 2.427 . S
O610 C606 1.275 . S
O611 Tb602 2.513 . S
O611 C606 1.246 . S
O612 Tb602 2.453 . S
O612 C608 1.245 . S
O613 Tb600 2.343 . S
O613 Tb602 2.596 . S
O613 C608 1.259 . S
O614 Tb602 2.374 . S
O614 C609 1.250 . S
O615 Tb600 2.353 . S
O615 C609 1.263 . S
C616 O617 1.275 . S
C616 O618 1.246 . S
O617 Tb600 2.427 1_455 S
O617 C616 1.275 . S
O618 Tb600 2.513 1_455 S
O618 C616 1.246 . S
C619 O603 1.245 . S
C619 O604 1.259 . S
Tb620 O623 2.453 . S
Tb620 O624 2.596 . S
Tb620 O625 2.374 . S
Tb620 O633 2.343 . S
Tb620 O635 2.353 . S
Tb620 O637 2.427 . S
Tb620 O638 2.513 . S
C621 O625 1.251 . S
C621 O627 1.263 . S
Tb622 O624 2.343 . S
Tb622 O627 2.353 . S
Tb622 O630 2.427 . S
Tb622 O631 2.513 . S
Tb622 O632 2.453 . S
Tb622 O633 2.596 . S
Tb622 O634 2.374 . S
O623 Tb620 2.453 . S
O623 C639 1.245 . S
O624 Tb620 2.596 . S
O624 Tb622 2.343 . S
O624 C639 1.259 . S
O625 Tb620 2.374 . S
O625 C621 1.251 . S
C626 O630 1.275 . S
C626 O631 1.246 . S
O627 C621 1.263 . S
O627 Tb622 2.353 . S
C628 O632 1.245 . S
C628 O633 1.259 . S
C629 O634 1.250 . S
C629 O635 1.263 . S
O630 Tb622 2.427 . S
O630 C626 1.275 . S
O631 Tb622 2.513 . S
O631 C626 1.246 . S
O632 Tb622 2.453 . S
O632 C628 1.245 . S
O633 Tb620 2.343 . S
O633 Tb622 2.596 . S
O633 C628 1.259 . S
O634 Tb622 2.374 . S
O634 C629 1.250 . S
O635 Tb620 2.353 . S
O635 C629 1.263 . S
C636 O637 1.275 . S
C636 O638 1.246 . S
O637 Tb620 2.427 . S
O637 C636 1.275 . S
O638 Tb620 2.513 . S
O638 C636 1.246 . S
C639 O623 1.245 . S
C639 O624 1.259 . S
Tb640 O643 2.453 . S
Tb640 O644 2.596 . S
Tb640 O645 2.374 . S
Tb640 O653 2.343 . S
Tb640 O655 2.353 . S
Tb640 O657 2.427 . S
Tb640 O658 2.513 . S
C641 O645 1.251 . S
C641 O647 1.263 . S
Tb642 O644 2.343 . S
Tb642 O647 2.353 . S
Tb642 O650 2.427 . S
Tb642 O651 2.513 . S
Tb642 O652 2.453 . S
Tb642 O653 2.596 . S
Tb642 O654 2.374 . S
O643 Tb640 2.453 . S
O643 C659 1.245 . S
O644 Tb640 2.596 . S
O644 Tb642 2.343 . S
O644 C659 1.259 . S
O645 Tb640 2.374 . S
O645 C641 1.251 . S
C646 O650 1.275 . S
C646 O651 1.246 . S
O647 C641 1.263 . S
O647 Tb642 2.353 . S
C648 O652 1.245 . S
C648 O653 1.259 . S
C649 O654 1.250 . S
C649 O655 1.263 . S
O650 Tb642 2.427 . S
O650 C646 1.275 . S
O651 Tb642 2.513 . S
O651 C646 1.246 . S
O652 Tb642 2.453 . S
O652 C648 1.245 . S
O653 Tb640 2.343 . S
O653 Tb642 2.596 . S
O653 C648 1.259 . S
O654 Tb642 2.374 . S
O654 C649 1.250 . S
O655 Tb640 2.353 . S
O655 C649 1.263 . S
C656 O657 1.275 . S
C656 O658 1.246 . S
O657 Tb640 2.427 . S
O657 C656 1.275 . S
O658 Tb640 2.513 . S
O658 C656 1.246 . S
C659 O643 1.245 . S
C659 O644 1.259 . S
Tb660 O663 2.453 . S
Tb660 O664 2.596 . S
Tb660 O665 2.374 . S
Tb660 O673 2.343 . S
Tb660 O675 2.353 . S
Tb660 O677 2.427 . S
Tb660 O678 2.513 . S
C661 O665 1.251 . S
C661 O667 1.263 . S
Tb662 O664 2.343 . S
Tb662 O667 2.353 . S
Tb662 O670 2.427 . S
Tb662 O671 2.513 . S
Tb662 O672 2.453 . S
Tb662 O673 2.596 . S
Tb662 O674 2.374 . S
O663 Tb660 2.453 . S
O663 C679 1.245 . S
O664 Tb660 2.596 . S
O664 Tb662 2.343 . S
O664 C679 1.259 . S
O665 Tb660 2.374 . S
O665 C661 1.251 . S
C666 O670 1.275 . S
C666 O671 1.246 . S
O667 C661 1.263 . S
O667 Tb662 2.353 . S
C668 O672 1.245 . S
C668 O673 1.259 . S
C669 O674 1.250 . S
C669 O675 1.263 . S
O670 Tb662 2.427 . S
O670 C666 1.275 . S
O671 Tb662 2.513 . S
O671 C666 1.246 . S
O672 Tb662 2.453 . S
O672 C668 1.245 . S
O673 Tb660 2.343 . S
O673 Tb662 2.596 . S
O673 C668 1.259 . S
O674 Tb662 2.374 . S
O674 C669 1.250 . S
O675 Tb660 2.353 . S
O675 C669 1.263 . S
C676 O677 1.275 . S
C676 O678 1.246 . S
O677 Tb660 2.427 . S
O677 C676 1.275 . S
O678 Tb660 2.513 . S
O678 C676 1.246 . S
C679 O663 1.245 . S
C679 O664 1.259 . S
Tb680 O683 2.453 . S
Tb680 O684 2.596 . S
Tb680 O685 2.374 . S
Tb680 O693 2.343 . S
Tb680 O695 2.353 . S
Tb680 O697 2.427 . S
Tb680 O698 2.513 . S
C681 O685 1.251 . S
C681 O687 1.263 . S
Tb682 O684 2.343 . S
Tb682 O687 2.353 . S
Tb682 O690 2.427 1_655 S
Tb682 O691 2.513 1_655 S
Tb682 O692 2.453 . S
Tb682 O693 2.596 . S
Tb682 O694 2.374 . S
O683 Tb680 2.453 . S
O683 C699 1.245 . S
O684 Tb680 2.596 . S
O684 Tb682 2.343 . S
O684 C699 1.259 . S
O685 Tb680 2.374 . S
O685 C681 1.251 . S
C686 O690 1.275 . S
C686 O691 1.246 . S
O687 C681 1.263 . S
O687 Tb682 2.353 . S
C688 O692 1.245 . S
C688 O693 1.259 . S
C689 O694 1.250 . S
C689 O695 1.263 . S
O690 Tb682 2.427 1_455 S
O690 C686 1.275 . S
O691 Tb682 2.513 1_455 S
O691 C686 1.246 . S
O692 Tb682 2.453 . S
O692 C688 1.245 . S
O693 Tb680 2.343 . S
O693 Tb682 2.596 . S
O693 C688 1.259 . S
O694 Tb682 2.374 . S
O694 C689 1.250 . S
O695 Tb680 2.353 . S
O695 C689 1.263 . S
C696 O697 1.275 . S
C696 O698 1.246 . S
O697 Tb680 2.427 . S
O697 C696 1.275 . S
O698 Tb680 2.513 . S
O698 C696 1.246 . S
C699 O683 1.245 . S
C699 O684 1.259 . S
Tb700 O703 2.453 1_655 S
Tb700 O704 2.596 . S
Tb700 O705 2.374 . S
Tb700 O713 2.343 . S
Tb700 O715 2.353 . S
Tb700 O717 2.427 . S
Tb700 O718 2.513 . S
C701 O705 1.251 . S
C701 O707 1.263 . S
Tb702 O704 2.343 . S
Tb702 O707 2.353 . S
Tb702 O710 2.427 . S
Tb702 O711 2.513 . S
Tb702 O712 2.453 . S
Tb702 O713 2.596 . S
Tb702 O714 2.374 . S
O703 Tb700 2.453 1_455 S
O703 C719 1.245 1_455 S
O704 Tb700 2.596 . S
O704 Tb702 2.343 . S
O704 C719 1.259 . S
O705 Tb700 2.374 . S
O705 C701 1.251 . S
C706 O710 1.275 . S
C706 O711 1.246 . S
O707 C701 1.263 . S
O707 Tb702 2.353 . S
C708 O712 1.245 . S
C708 O713 1.259 . S
C709 O714 1.250 . S
C709 O715 1.263 . S
O710 Tb702 2.427 . S
O710 C706 1.275 . S
O711 Tb702 2.513 . S
O711 C706 1.246 . S
O712 Tb702 2.453 . S
O712 C708 1.245 . S
O713 Tb700 2.343 . S
O713 Tb702 2.596 . S
O713 C708 1.259 . S
O714 Tb702 2.374 . S
O714 C709 1.250 . S
O715 Tb700 2.353 . S
O715 C709 1.263 . S
C716 O717 1.275 . S
C716 O718 1.246 . S
O717 Tb700 2.427 . S
O717 C716 1.275 . S
O718 Tb700 2.513 . S
O718 C716 1.246 . S
C719 O703 1.245 1_655 S
C719 O704 1.259 . S
C720 C721 1.369 . S
C720 C722 1.419 . S
C720 H724 0.930 . S
C721 C720 1.369 . S
C721 C730 1.429 . S
C722 C720 1.419 . S
C722 C723 1.363 . S
C722 H725 0.929 . S
C723 C722 1.363 . S
C723 C729 1.428 . S
H724 C720 0.930 . S
H725 C722 0.929 . S
S726 N727 1.613 1_565 S
S726 N728 1.610 . S
N727 S726 1.613 1_545 S
N727 C730 1.350 . S
N728 S726 1.610 . S
N728 C729 1.351 1_565 S
C729 C723 1.428 . S
C729 N728 1.351 1_545 S
C729 C730 1.434 . S
C730 C721 1.429 . S
C730 N727 1.350 . S
C730 C729 1.434 . S
C731 C732 1.369 . S
C731 C733 1.419 . S
C731 H735 0.930 . S
C732 C731 1.369 . S
C732 C741 1.429 . S
C733 C731 1.419 . S
C733 C734 1.363 . S
C733 H736 0.929 . S
C734 C733 1.363 . S
C734 C740 1.428 1_655 S
H735 C731 0.930 . S
H736 C733 0.929 . S
S737 N738 1.613 . S
S737 N739 1.610 . S
N738 S737 1.613 . S
N738 C741 1.350 1_455 S
N739 S737 1.610 . S
N739 C740 1.351 . S
C740 C734 1.428 1_455 S
C740 N739 1.351 . S
C740 C741 1.434 1_455 S
C741 C732 1.429 . S
C741 N738 1.350 1_655 S
C741 C740 1.434 1_655 S
C742 C743 1.369 . S
C742 C744 1.419 . S
C742 H746 0.930 . S
C743 C742 1.369 . S
C743 C752 1.429 . S
C744 C742 1.419 . S
C744 C745 1.363 . S
C744 H747 0.929 . S
C745 C744 1.363 . S
C745 C751 1.428 . S
H746 C742 0.930 . S
H747 C744 0.929 . S
S748 N749 1.613 . S
S748 N750 1.610 . S
N749 S748 1.613 . S
N749 C752 1.350 . S
N750 S748 1.610 . S
N750 C751 1.351 . S
C751 C745 1.428 . S
C751 N750 1.351 . S
C751 C752 1.434 . S
C752 C743 1.429 . S
C752 N749 1.350 . S
C752 C751 1.434 . S
C753 C754 1.369 . S
C753 C755 1.419 . S
C753 H757 0.930 . S
C754 C753 1.369 . S
C754 C763 1.429 . S
C755 C753 1.419 . S
C755 C756 1.363 . S
C755 H758 0.929 . S
C756 C755 1.363 . S
C756 C762 1.428 . S
H757 C753 0.930 . S
H758 C755 0.929 . S
S759 N760 1.613 . S
S759 N761 1.610 1_655 S
N760 S759 1.613 . S
N760 C763 1.350 1_655 S
N761 S759 1.610 1_455 S
N761 C762 1.351 . S
C762 C756 1.428 . S
C762 N761 1.351 . S
C762 C763 1.434 . S
C763 C754 1.429 . S
C763 N760 1.350 1_455 S
C763 C762 1.434 . S
C764 C765 1.369 . S
C764 C766 1.419 . S
C764 H768 0.930 . S
C765 C764 1.369 . S
C765 C774 1.429 . S
C766 C764 1.419 . S
C766 C767 1.363 . S
C766 H769 0.929 . S
C767 C766 1.363 . S
C767 C773 1.428 . S
H768 C764 0.930 . S
H769 C766 0.929 . S
S770 N771 1.613 . S
S770 N772 1.610 . S
N771 S770 1.613 . S
N771 C774 1.350 . S
N772 S770 1.610 . S
N772 C773 1.351 . S
C773 C767 1.428 . S
C773 N772 1.351 . S
C773 C774 1.434 . S
C774 C765 1.429 . S
C774 N771 1.350 . S
C774 C773 1.434 . S
C775 C776 1.369 . S
C775 C777 1.419 1_565 S
C775 H779 0.930 1_565 S
C776 C775 1.369 . S
C776 C785 1.429 . S
C777 C775 1.419 1_545 S
C777 C778 1.363 1_545 S
C777 H780 0.929 . S
C778 C777 1.363 1_565 S
C778 C784 1.428 . S
H779 C775 0.930 1_545 S
H780 C777 0.929 . S
S781 N782 1.613 . S
S781 N783 1.610 . S
N782 S781 1.613 . S
N782 C785 1.350 . S
N783 S781 1.610 . S
N783 C784 1.351 . S
C784 C778 1.428 . S
C784 N783 1.351 . S
C784 C785 1.434 . S
C785 C776 1.429 . S
C785 N782 1.350 . S
C785 C784 1.434 . S
C786 C787 1.369 . S
C786 C788 1.419 . S
C786 H790 0.930 . S
C787 C786 1.369 . S
C787 C796 1.429 . S
C788 C786 1.419 . S
C788 C789 1.363 . S
C788 H791 0.929 . S
C789 C788 1.363 . S
C789 C795 1.428 . S
H790 C786 0.930 . S
H791 C788 0.929 . S
S792 N793 1.613 . S
S792 N794 1.610 . S
N793 S792 1.613 . S
N793 C796 1.350 1_545 S
N794 S792 1.610 . S
N794 C795 1.351 1_545 S
C795 C789 1.428 . S
C795 N794 1.351 1_565 S
C795 C796 1.434 . S
C796 C787 1.429 . S
C796 N793 1.350 1_565 S
C796 C795 1.434 . S
C797 C798 1.369 . S
C797 C799 1.419 . S
C797 H801 0.930 . S
C798 C797 1.369 . S
C798 C807 1.429 . S
C799 C797 1.419 . S
C799 C800 1.363 . S
C799 H802 0.929 . S
C800 C799 1.363 . S
C800 C806 1.428 . S
H801 C797 0.930 . S
H802 C799 0.929 . S
S803 N804 1.613 . S
S803 N805 1.610 . S
N804 S803 1.613 . S
N804 C807 1.350 . S
N805 S803 1.610 . S
N805 C806 1.351 . S
C806 C800 1.428 . S
C806 N805 1.351 . S
C806 C807 1.434 . S
C807 C798 1.429 . S
C807 N804 1.350 . S
C807 C806 1.434 . S
C808 C809 1.369 . S
C808 C810 1.419 . S
C808 H812 0.930 . S
C809 C808 1.369 . S
C809 C818 1.429 . S
C810 C808 1.419 . S
C810 C811 1.363 . S
C810 H813 0.929 . S
C811 C810 1.363 . S
C811 C817 1.428 . S
H812 C808 0.930 . S
H813 C810 0.929 . S
S814 N815 1.613 . S
S814 N816 1.610 . S
N815 S814 1.613 . S
N815 C818 1.350 . S
N816 S814 1.610 . S
N816 C817 1.351 . S
C817 C811 1.428 . S
C817 N816 1.351 . S
C817 C818 1.434 . S
C818 C809 1.429 . S
C818 N815 1.350 . S
C818 C817 1.434 . S
C819 C820 1.369 . S
C819 C821 1.419 . S
C819 H823 0.930 . S
C820 C819 1.369 . S
C820 C829 1.429 . S
C821 C819 1.419 . S
C821 C822 1.363 . S
C821 H824 0.929 . S
C822 C821 1.363 . S
C822 C828 1.428 . S
H823 C819 0.930 . S
H824 C821 0.929 . S
S825 N826 1.613 1_455 S
S825 N827 1.610 . S
N826 S825 1.613 1_655 S
N826 C829 1.350 . S
N827 S825 1.610 . S
N827 C828 1.351 1_455 S
C828 C822 1.428 . S
C828 N827 1.351 1_655 S
C828 C829 1.434 . S
C829 C820 1.429 . S
C829 N826 1.350 . S
C829 C828 1.434 . S
C830 C831 1.369 . S
C830 C832 1.419 . S
C830 H834 0.930 . S
C831 C830 1.369 . S
C831 C840 1.429 . S
C832 C830 1.419 . S
C832 C833 1.363 . S
C832 H835 0.929 . S
C833 C832 1.363 . S
C833 C839 1.428 . S
H834 C830 0.930 . S
H835 C832 0.929 . S
S836 N837 1.613 . S
S836 N838 1.610 . S
N837 S836 1.613 . S
N837 C840 1.350 . S
N838 S836 1.610 . S
N838 C839 1.351 . S
C839 C833 1.428 . S
C839 N838 1.351 . S
C839 C840 1.434 . S
C840 C831 1.429 . S
C840 N837 1.350 . S
C840 C839 1.434 . S
C841 C842 1.369 . S
C841 C843 1.419 . S
C841 H845 0.930 . S
C842 C841 1.369 . S
C842 C851 1.429 . S
C843 C841 1.419 . S
C843 C844 1.363 . S
C843 H846 0.929 . S
C844 C843 1.363 . S
C844 C850 1.428 . S
H845 C841 0.930 . S
H846 C843 0.929 . S
S847 N848 1.613 . S
S847 N849 1.610 . S
N848 S847 1.613 . S
N848 C851 1.350 . S
N849 S847 1.610 . S
N849 C850 1.351 . S
C850 C844 1.428 . S
C850 N849 1.351 . S
C850 C851 1.434 . S
C851 C842 1.429 . S
C851 N848 1.350 . S
C851 C850 1.434 . S
C852 C853 1.369 . S
C852 C854 1.419 . S
C852 H856 0.930 . S
C853 C852 1.369 . S
C853 C862 1.429 . S
C854 C852 1.419 . S
C854 C855 1.363 . S
C854 H857 0.929 . S
C855 C854 1.363 . S
C855 C861 1.428 . S
H856 C852 0.930 . S
H857 C854 0.929 . S
S858 N859 1.613 . S
S858 N860 1.610 . S
N859 S858 1.613 . S
N859 C862 1.350 . S
N860 S858 1.610 . S
N860 C861 1.351 . S
C861 C855 1.428 . S
C861 N860 1.351 . S
C861 C862 1.434 . S
C862 C853 1.429 . S
C862 N859 1.350 . S
C862 C861 1.434 . S
C863 C864 1.369 1_545 S
C863 C865 1.419 . S
C863 H867 0.930 . S
C864 C863 1.369 1_565 S
C864 C873 1.429 . S
C865 C863 1.419 . S
C865 C866 1.363 . S
C865 H868 0.929 . S
C866 C865 1.363 . S
C866 C872 1.428 . S
H867 C863 0.930 . S
H868 C865 0.929 . S
S869 N870 1.613 . S
S869 N871 1.610 1_565 S
N870 S869 1.613 . S
N870 C873 1.350 . S
N871 S869 1.610 1_545 S
N871 C872 1.351 . S
C872 C866 1.428 . S
C872 N871 1.351 . S
C872 C873 1.434 1_545 S
C873 C864 1.429 . S
C873 N870 1.350 . S
C873 C872 1.434 1_565 S
C874 C875 1.369 . S
C874 C876 1.419 1_655 S
C874 H878 0.930 . S
C875 C874 1.369 . S
C875 C884 1.429 1_655 S
C876 C874 1.419 1_455 S
C876 C877 1.363 . S
C876 H879 0.929 . S
C877 C876 1.363 . S
C877 C883 1.428 . S
H878 C874 0.930 . S
H879 C876 0.929 . S
S880 N881 1.613 . S
S880 N882 1.610 . S
N881 S880 1.613 . S
N881 C884 1.350 . S
N882 S880 1.610 . S
N882 C883 1.351 . S
C883 C877 1.428 . S
C883 N882 1.351 . S
C883 C884 1.434 . S
C884 C875 1.429 1_455 S
C884 N881 1.350 . S
C884 C883 1.434 . S
C885 C886 1.369 . S
C885 C887 1.419 . S
C885 H889 0.930 . S
C886 C885 1.369 . S
C886 C895 1.429 . S
C887 C885 1.419 . S
C887 C888 1.363 . S
C887 H890 0.929 . S
C888 C887 1.363 . S
C888 C894 1.428 . S
H889 C885 0.930 . S
H890 C887 0.929 . S
S891 N892 1.613 . S
S891 N893 1.610 . S
N892 S891 1.613 . S
N892 C895 1.350 . S
N893 S891 1.610 . S
N893 C894 1.351 . S
C894 C888 1.428 . S
C894 N893 1.351 . S
C894 C895 1.434 . S
C895 C886 1.429 . S
C895 N892 1.350 . S
C895 C894 1.434 . S
C896 C897 1.369 . S
C896 C898 1.419 1_565 S
C896 H900 0.930 . S
C897 C896 1.369 . S
C897 C906 1.429 1_565 S
C898 C896 1.419 1_545 S
C898 C899 1.363 . S
C898 H901 0.929 . S
C899 C898 1.363 . S
C899 C905 1.428 . S
H900 C896 0.930 . S
H901 C898 0.929 . S
S902 N903 1.613 . S
S902 N904 1.610 . S
N903 S902 1.613 . S
N903 C906 1.350 . S
N904 S902 1.610 . S
N904 C905 1.351 . S
C905 C899 1.428 . S
C905 N904 1.351 . S
C905 C906 1.434 . S
C906 C897 1.429 1_545 S
C906 N903 1.350 . S
C906 C905 1.434 . S
C907 C908 1.369 1_455 S
C907 C909 1.419 . S
C907 H911 0.930 . S
C908 C907 1.369 1_655 S
C908 C917 1.429 . S
C909 C907 1.419 . S
C909 C910 1.363 . S
C909 H912 0.929 . S
C910 C909 1.363 . S
C910 C916 1.428 . S
H911 C907 0.930 . S
H912 C909 0.929 . S
S913 N914 1.613 . S
S913 N915 1.610 1_655 S
N914 S913 1.613 . S
N914 C917 1.350 . S
N915 S913 1.610 1_455 S
N915 C916 1.351 . S
C916 C910 1.428 . S
C916 N915 1.351 . S
C916 C917 1.434 1_455 S
C917 C908 1.429 . S
C917 N914 1.350 . S
C917 C916 1.434 1_655 S
C918 C919 1.369 . S
C918 C920 1.419 1_554 S
C918 H922 0.930 . S
C919 C918 1.369 . S
C919 C928 1.429 1_545 S
C920 C918 1.419 1_556 S
C920 C921 1.363 . S
C920 H923 0.929 . S
C921 C920 1.363 . S
C921 C927 1.428 1_545 S
H922 C918 0.930 . S
H923 C920 0.929 . S
S924 N925 1.613 1_556 S
S924 N926 1.610 . S
N925 S924 1.613 1_554 S
N925 C928 1.350 . S
N926 S924 1.610 . S
N926 C927 1.351 . S
C927 C921 1.428 1_565 S
C927 N926 1.351 . S
C927 C928 1.434 1_556 S
C928 C919 1.429 1_565 S
C928 N925 1.350 . S
C928 C927 1.434 1_554 S
C929 C930 1.369 . S
C929 C931 1.419 1_556 S
C929 H933 0.930 . S
C930 C929 1.369 . S
C930 C939 1.429 . S
C931 C929 1.419 1_554 S
C931 C932 1.363 . S
C931 H934 0.929 . S
C932 C931 1.363 . S
C932 C938 1.428 . S
H933 C929 0.930 . S
H934 C931 0.929 . S
S935 N936 1.613 1_554 S
S935 N937 1.610 . S
N936 S935 1.613 1_556 S
N936 C939 1.350 1_655 S
N937 S935 1.610 . S
N937 C938 1.351 1_655 S
C938 C932 1.428 . S
C938 N937 1.351 1_455 S
C938 C939 1.434 1_554 S
C939 C930 1.429 . S
C939 N936 1.350 1_455 S
C939 C938 1.434 1_556 S
C940 C941 1.369 . S
C940 C942 1.419 1_554 S
C940 H944 0.930 . S
C941 C940 1.369 . S
C941 C950 1.429 . S
C942 C940 1.419 1_556 S
C942 C943 1.363 . S
C942 H945 0.929 . S
C943 C942 1.363 . S
C943 C949 1.428 . S
H944 C940 0.930 . S
H945 C942 0.929 . S
S946 N947 1.613 . S
S946 N948 1.610 1_554 S
N947 S946 1.613 . S
N947 C950 1.350 . S
N948 S946 1.610 1_556 S
N948 C949 1.351 . S
C949 C943 1.428 . S
C949 N948 1.351 . S
C949 C950 1.434 1_556 S
C950 C941 1.429 . S
C950 N947 1.350 . S
C950 C949 1.434 1_554 S
C951 C952 1.369 . S
C951 C953 1.419 . S
C951 H955 0.930 . S
C952 C951 1.369 . S
C952 C961 1.429 1_455 S
C953 C951 1.419 . S
C953 C954 1.363 . S
C953 H956 0.929 . S
C954 C953 1.363 . S
C954 C960 1.428 1_455 S
H955 C951 0.930 . S
H956 C953 0.929 . S
S957 N958 1.613 . S
S957 N959 1.610 . S
N958 S957 1.613 . S
N958 C961 1.350 . S
N959 S957 1.610 . S
N959 C960 1.351 . S
C960 C954 1.428 1_655 S
C960 N959 1.351 . S
C960 C961 1.434 . S
C961 C952 1.429 1_655 S
C961 N958 1.350 . S
C961 C960 1.434 . S
C962 C963 1.369 . S
C962 C964 1.419 . S
C962 H966 0.930 . S
C963 C962 1.369 . S
C963 C972 1.429 . S
C964 C962 1.419 . S
C964 C965 1.363 . S
C964 H967 0.929 . S
C965 C964 1.363 . S
C965 C971 1.428 . S
H966 C962 0.930 . S
H967 C964 0.929 . S
S968 N969 1.613 . S
S968 N970 1.610 . S
N969 S968 1.613 . S
N969 C972 1.350 . S
N970 S968 1.610 . S
N970 C971 1.351 . S
C971 C965 1.428 . S
C971 N970 1.351 . S
C971 C972 1.434 . S
C972 C963 1.429 . S
C972 N969 1.350 . S
C972 C971 1.434 . S
C973 C974 1.369 1_565 S
C973 C975 1.419 . S
C973 H977 0.930 . S
C974 C973 1.369 1_545 S
C974 C983 1.429 . S
C975 C973 1.419 . S
C975 C976 1.363 1_565 S
C975 H978 0.929 . S
C976 C975 1.363 1_545 S
C976 C982 1.428 . S
H977 C973 0.930 . S
H978 C975 0.929 . S
S979 N980 1.613 . S
S979 N981 1.610 . S
N980 S979 1.613 . S
N980 C983 1.350 . S
N981 S979 1.610 . S
N981 C982 1.351 . S
C982 C976 1.428 . S
C982 N981 1.351 . S
C982 C983 1.434 . S
C983 C974 1.429 . S
C983 N980 1.350 . S
C983 C982 1.434 . S
C984 C985 1.369 . S
C984 C986 1.419 . S
C984 H988 0.930 . S
C985 C984 1.369 . S
C985 C994 1.429 . S
C986 C984 1.419 . S
C986 C987 1.363 . S
C986 H989 0.929 . S
C987 C986 1.363 . S
C987 C993 1.428 . S
H988 C984 0.930 . S
H989 C986 0.929 . S
S990 N991 1.613 . S
S990 N992 1.610 . S
N991 S990 1.613 . S
N991 C994 1.350 . S
N992 S990 1.610 . S
N992 C993 1.351 . S
C993 C987 1.428 . S
C993 N992 1.351 . S
C993 C994 1.434 . S
C994 C985 1.429 . S
C994 N991 1.350 . S
C994 C993 1.434 . S
C995 C996 1.369 . S
C995 C997 1.419 . S
C995 H999 0.930 . S
C996 C995 1.369 . S
C996 C1005 1.429 . S
C997 C995 1.419 . S
C997 C998 1.363 . S
C997 H1000 0.929 . S
C998 C997 1.363 . S
C998 C1004 1.428 . S
H999 C995 0.930 . S
H1000 C997 0.929 . S
S1001 N1002 1.613 1_545 S
S1001 N1003 1.610 1_545 S
N1002 S1001 1.613 1_565 S
N1002 C1005 1.350 . S
N1003 S1001 1.610 1_565 S
N1003 C1004 1.351 . S
C1004 C998 1.428 . S
C1004 N1003 1.351 . S
C1004 C1005 1.434 . S
C1005 C996 1.429 . S
C1005 N1002 1.350 . S
C1005 C1004 1.434 . S
C1006 C1007 1.369 . S
C1006 C1008 1.419 . S
C1006 H1010 0.930 . S
C1007 C1006 1.369 . S
C1007 C1016 1.429 . S
C1008 C1006 1.419 . S
C1008 C1009 1.363 . S
C1008 H1011 0.929 . S
C1009 C1008 1.363 . S
C1009 C1015 1.428 . S
H1010 C1006 0.930 . S
H1011 C1008 0.929 . S
S1012 N1013 1.613 1_545 S
S1012 N1014 1.610 1_545 S
N1013 S1012 1.613 1_565 S
N1013 C1016 1.350 . S
N1014 S1012 1.610 1_565 S
N1014 C1015 1.351 . S
C1015 C1009 1.428 . S
C1015 N1014 1.351 . S
C1015 C1016 1.434 . S
C1016 C1007 1.429 . S
C1016 N1013 1.350 . S
C1016 C1015 1.434 . S
C1017 C1018 1.369 . S
C1017 C1019 1.419 . S
C1017 H1021 0.930 . S
C1018 C1017 1.369 . S
C1018 C1027 1.429 . S
C1019 C1017 1.419 . S
C1019 C1020 1.363 . S
C1019 H1022 0.929 . S
C1020 C1019 1.363 . S
C1020 C1026 1.428 . S
H1021 C1017 0.930 . S
H1022 C1019 0.929 . S
S1023 N1024 1.613 . S
S1023 N1025 1.610 . S
N1024 S1023 1.613 . S
N1024 C1027 1.350 . S
N1025 S1023 1.610 . S
N1025 C1026 1.351 . S
C1026 C1020 1.428 . S
C1026 N1025 1.351 . S
C1026 C1027 1.434 . S
C1027 C1018 1.429 . S
C1027 N1024 1.350 . S
C1027 C1026 1.434 . S
C1028 C1029 1.369 . S
C1028 C1030 1.419 . S
C1028 H1032 0.930 . S
C1029 C1028 1.369 . S
C1029 C1038 1.429 . S
C1030 C1028 1.419 . S
C1030 C1031 1.363 . S
C1030 H1033 0.929 . S
C1031 C1030 1.363 . S
C1031 C1037 1.428 . S
H1032 C1028 0.930 . S
H1033 C1030 0.929 . S
S1034 N1035 1.613 1_545 S
S1034 N1036 1.610 1_545 S
N1035 S1034 1.613 1_565 S
N1035 C1038 1.350 . S
N1036 S1034 1.610 1_565 S
N1036 C1037 1.351 . S
C1037 C1031 1.428 . S
C1037 N1036 1.351 . S
C1037 C1038 1.434 . S
C1038 C1029 1.429 . S
C1038 N1035 1.350 . S
C1038 C1037 1.434 . S
C1039 C1040 1.369 . S
C1039 C1041 1.419 . S
C1039 H1043 0.930 . S
C1040 C1039 1.369 . S
C1040 C1049 1.429 . S
C1041 C1039 1.419 . S
C1041 C1042 1.363 . S
C1041 H1044 0.929 . S
C1042 C1041 1.363 . S
C1042 C1048 1.428 . S
H1043 C1039 0.930 . S
H1044 C1041 0.929 . S
S1045 N1046 1.613 . S
S1045 N1047 1.610 . S
N1046 S1045 1.613 . S
N1046 C1049 1.350 . S
N1047 S1045 1.610 . S
N1047 C1048 1.351 . S
C1048 C1042 1.428 . S
C1048 N1047 1.351 . S
C1048 C1049 1.434 . S
C1049 C1040 1.429 . S
C1049 N1046 1.350 . S
C1049 C1048 1.434 . S
C1050 C1051 1.369 . S
C1050 C1052 1.419 . S
C1050 H1054 0.930 . S
C1051 C1050 1.369 . S
C1051 C1060 1.429 . S
C1052 C1050 1.419 . S
C1052 C1053 1.363 . S
C1052 H1055 0.929 . S
C1053 C1052 1.363 . S
C1053 C1059 1.428 . S
H1054 C1050 0.930 . S
H1055 C1052 0.929 . S
S1056 N1057 1.613 . S
S1056 N1058 1.610 . S
N1057 S1056 1.613 . S
N1057 C1060 1.350 . S
N1058 S1056 1.610 . S
N1058 C1059 1.351 . S
C1059 C1053 1.428 . S
C1059 N1058 1.351 . S
C1059 C1060 1.434 . S
C1060 C1051 1.429 . S
C1060 N1057 1.350 . S
C1060 C1059 1.434 . S
C1061 C1062 1.369 . S
C1061 C1063 1.419 . S
C1061 H1065 0.930 . S
C1062 C1061 1.369 . S
C1062 C1071 1.429 . S
C1063 C1061 1.419 . S
C1063 C1064 1.363 . S
C1063 H1066 0.929 . S
C1064 C1063 1.363 . S
C1064 C1070 1.428 . S
H1065 C1061 0.930 . S
H1066 C1063 0.929 . S
S1067 N1068 1.613 . S
S1067 N1069 1.610 . S
N1068 S1067 1.613 . S
N1068 C1071 1.350 . S
N1069 S1067 1.610 . S
N1069 C1070 1.351 . S
C1070 C1064 1.428 . S
C1070 N1069 1.351 . S
C1070 C1071 1.434 . S
C1071 C1062 1.429 . S
C1071 N1068 1.350 . S
C1071 C1070 1.434 . S
C1072 C1073 1.369 . S
C1072 C1074 1.419 . S
C1072 H1076 0.930 . S
C1073 C1072 1.369 . S
C1073 C1082 1.429 . S
C1074 C1072 1.419 . S
C1074 C1075 1.363 . S
C1074 H1077 0.929 . S
C1075 C1074 1.363 . S
C1075 C1081 1.428 . S
H1076 C1072 0.930 . S
H1077 C1074 0.929 . S
S1078 N1079 1.613 . S
S1078 N1080 1.610 . S
N1079 S1078 1.613 . S
N1079 C1082 1.350 . S
N1080 S1078 1.610 . S
N1080 C1081 1.351 . S
C1081 C1075 1.428 . S
C1081 N1080 1.351 . S
C1081 C1082 1.434 . S
C1082 C1073 1.429 . S
C1082 N1079 1.350 . S
C1082 C1081 1.434 . S
C1083 C1084 1.369 . S
C1083 C1085 1.419 . S
C1083 H1087 0.930 . S
C1084 C1083 1.369 . S
C1084 C1093 1.429 . S
C1085 C1083 1.419 . S
C1085 C1086 1.363 . S
C1085 H1088 0.929 . S
C1086 C1085 1.363 . S
C1086 C1092 1.428 . S
H1087 C1083 0.930 . S
H1088 C1085 0.929 . S
S1089 N1090 1.613 . S
S1089 N1091 1.610 . S
N1090 S1089 1.613 . S
N1090 C1093 1.350 . S
N1091 S1089 1.610 . S
N1091 C1092 1.351 . S
C1092 C1086 1.428 . S
C1092 N1091 1.351 . S
C1092 C1093 1.434 . S
C1093 C1084 1.429 . S
C1093 N1090 1.350 . S
C1093 C1092 1.434 . S
C1094 C1095 1.369 . S
C1094 C1096 1.419 . S
C1094 H1098 0.930 . S
C1095 C1094 1.369 . S
C1095 C1104 1.429 . S
C1096 C1094 1.419 . S
C1096 C1097 1.363 . S
C1096 H1099 0.929 . S
C1097 C1096 1.363 . S
C1097 C1103 1.428 . S
H1098 C1094 0.930 . S
H1099 C1096 0.929 . S
S1100 N1101 1.613 . S
S1100 N1102 1.610 . S
N1101 S1100 1.613 . S
N1101 C1104 1.350 . S
N1102 S1100 1.610 . S
N1102 C1103 1.351 . S
C1103 C1097 1.428 . S
C1103 N1102 1.351 . S
C1103 C1104 1.434 . S
C1104 C1095 1.429 . S
C1104 N1101 1.350 . S
C1104 C1103 1.434 . S
C1105 C1106 1.369 . S
C1105 C1107 1.419 . S
C1105 H1109 0.930 . S
C1106 C1105 1.369 . S
C1106 C1115 1.429 . S
C1107 C1105 1.419 . S
C1107 C1108 1.363 . S
C1107 H1110 0.929 . S
C1108 C1107 1.363 . S
C1108 C1114 1.428 . S
H1109 C1105 0.930 . S
H1110 C1107 0.929 . S
S1111 N1112 1.613 . S
S1111 N1113 1.610 . S
N1112 S1111 1.613 . S
N1112 C1115 1.350 . S
N1113 S1111 1.610 . S
N1113 C1114 1.351 . S
C1114 C1108 1.428 . S
C1114 N1113 1.351 . S
C1114 C1115 1.434 . S
C1115 C1106 1.429 . S
C1115 N1112 1.350 . S
C1115 C1114 1.434 . S
C1116 C1117 1.369 . S
C1116 C1118 1.419 . S
C1116 H1120 0.930 . S
C1117 C1116 1.369 . S
C1117 C1126 1.429 . S
C1118 C1116 1.419 . S
C1118 C1119 1.363 . S
C1118 H1121 0.929 . S
C1119 C1118 1.363 . S
C1119 C1125 1.428 . S
H1120 C1116 0.930 . S
H1121 C1118 0.929 . S
S1122 N1123 1.613 . S
S1122 N1124 1.610 . S
N1123 S1122 1.613 . S
N1123 C1126 1.350 . S
N1124 S1122 1.610 . S
N1124 C1125 1.351 . S
C1125 C1119 1.428 . S
C1125 N1124 1.351 . S
C1125 C1126 1.434 . S
C1126 C1117 1.429 . S
C1126 N1123 1.350 . S
C1126 C1125 1.434 . S
C1127 C1128 1.369 . S
C1127 C1129 1.419 . S
C1127 H1131 0.930 . S
C1128 C1127 1.369 . S
C1128 C1137 1.429 . S
C1129 C1127 1.419 . S
C1129 C1130 1.363 . S
C1129 H1132 0.929 . S
C1130 C1129 1.363 . S
C1130 C1136 1.428 . S
H1131 C1127 0.930 . S
H1132 C1129 0.929 . S
S1133 N1134 1.613 . S
S1133 N1135 1.610 . S
N1134 S1133 1.613 . S
N1134 C1137 1.350 . S
N1135 S1133 1.610 . S
N1135 C1136 1.351 . S
C1136 C1130 1.428 . S
C1136 N1135 1.351 . S
C1136 C1137 1.434 . S
C1137 C1128 1.429 . S
C1137 N1134 1.350 . S
C1137 C1136 1.434 . S
C1138 C1139 1.369 . S
C1138 C1140 1.419 . S
C1138 H1142 0.930 . S
C1139 C1138 1.369 . S
C1139 C1148 1.429 . S
C1140 C1138 1.419 . S
C1140 C1141 1.363 . S
C1140 H1143 0.929 . S
C1141 C1140 1.363 . S
C1141 C1147 1.428 . S
H1142 C1138 0.930 . S
H1143 C1140 0.929 . S
S1144 N1145 1.613 . S
S1144 N1146 1.610 . S
N1145 S1144 1.613 . S
N1145 C1148 1.350 . S
N1146 S1144 1.610 . S
N1146 C1147 1.351 . S
C1147 C1141 1.428 . S
C1147 N1146 1.351 . S
C1147 C1148 1.434 . S
C1148 C1139 1.429 . S
C1148 N1145 1.350 . S
C1148 C1147 1.434 . S
C1149 C1150 1.369 . S
C1149 C1151 1.419 . S
C1149 H1153 0.930 . S
C1150 C1149 1.369 . S
C1150 C1159 1.429 . S
C1151 C1149 1.419 . S
C1151 C1152 1.363 . S
C1151 H1154 0.929 . S
C1152 C1151 1.363 . S
C1152 C1158 1.428 . S
H1153 C1149 0.930 . S
H1154 C1151 0.929 . S
S1155 N1156 1.613 . S
S1155 N1157 1.610 . S
N1156 S1155 1.613 . S
N1156 C1159 1.350 . S
N1157 S1155 1.610 . S
N1157 C1158 1.351 . S
C1158 C1152 1.428 . S
C1158 N1157 1.351 . S
C1158 C1159 1.434 . S
C1159 C1150 1.429 . S
C1159 N1156 1.350 . S
C1159 C1158 1.434 . S
C1160 C1161 1.369 . S
C1160 C1162 1.419 . S
C1160 H1164 0.930 . S
C1161 C1160 1.369 . S
C1161 C1170 1.429 . S
C1162 C1160 1.419 . S
C1162 C1163 1.363 . S
C1162 H1165 0.929 . S
C1163 C1162 1.363 . S
C1163 C1169 1.428 . S
H1164 C1160 0.930 . S
H1165 C1162 0.929 . S
S1166 N1167 1.613 . S
S1166 N1168 1.610 . S
N1167 S1166 1.613 . S
N1167 C1170 1.350 . S
N1168 S1166 1.610 . S
N1168 C1169 1.351 . S
C1169 C1163 1.428 . S
C1169 N1168 1.351 . S
C1169 C1170 1.434 . S
C1170 C1161 1.429 . S
C1170 N1167 1.350 . S
C1170 C1169 1.434 . S
C1171 C1172 1.369 . S
C1171 C1173 1.419 . S
C1171 H1175 0.930 . S
C1172 C1171 1.369 . S
C1172 C1181 1.429 . S
C1173 C1171 1.419 . S
C1173 C1174 1.363 . S
C1173 H1176 0.929 . S
C1174 C1173 1.363 . S
C1174 C1180 1.428 . S
H1175 C1171 0.930 . S
H1176 C1173 0.929 . S
S1177 N1178 1.613 . S
S1177 N1179 1.610 . S
N1178 S1177 1.613 . S
N1178 C1181 1.350 . S
N1179 S1177 1.610 . S
N1179 C1180 1.351 . S
C1180 C1174 1.428 . S
C1180 N1179 1.351 . S
C1180 C1181 1.434 . S
C1181 C1172 1.429 . S
C1181 N1178 1.350 . S
C1181 C1180 1.434 . S
C1182 C1183 1.369 . S
C1182 C1184 1.419 . S
C1182 H1186 0.930 . S
C1183 C1182 1.369 . S
C1183 C1192 1.429 . S
C1184 C1182 1.419 . S
C1184 C1185 1.363 . S
C1184 H1187 0.929 . S
C1185 C1184 1.363 . S
C1185 C1191 1.428 . S
H1186 C1182 0.930 . S
H1187 C1184 0.929 . S
S1188 N1189 1.613 . S
S1188 N1190 1.610 . S
N1189 S1188 1.613 . S
N1189 C1192 1.350 . S
N1190 S1188 1.610 . S
N1190 C1191 1.351 . S
C1191 C1185 1.428 . S
C1191 N1190 1.351 . S
C1191 C1192 1.434 . S
C1192 C1183 1.429 . S
C1192 N1189 1.350 . S
C1192 C1191 1.434 . S
C1193 C1194 1.369 . S
C1193 C1195 1.419 . S
C1193 H1197 0.930 . S
C1194 C1193 1.369 . S
C1194 C1203 1.429 . S
C1195 C1193 1.419 . S
C1195 C1196 1.363 . S
C1195 H1198 0.929 . S
C1196 C1195 1.363 . S
C1196 C1202 1.428 . S
H1197 C1193 0.930 . S
H1198 C1195 0.929 . S
S1199 N1200 1.613 . S
S1199 N1201 1.610 . S
N1200 S1199 1.613 . S
N1200 C1203 1.350 . S
N1201 S1199 1.610 . S
N1201 C1202 1.351 . S
C1202 C1196 1.428 . S
C1202 N1201 1.351 . S
C1202 C1203 1.434 . S
C1203 C1194 1.429 . S
C1203 N1200 1.350 . S
C1203 C1202 1.434 . S
C1204 C1205 1.369 . S
C1204 C1206 1.419 . S
C1204 H1208 0.930 . S
C1205 C1204 1.369 . S
C1205 C1214 1.429 . S
C1206 C1204 1.419 . S
C1206 C1207 1.363 . S
C1206 H1209 0.929 . S
C1207 C1206 1.363 . S
C1207 C1213 1.428 . S
H1208 C1204 0.930 . S
H1209 C1206 0.929 . S
S1210 N1211 1.613 . S
S1210 N1212 1.610 . S
N1211 S1210 1.613 . S
N1211 C1214 1.350 . S
N1212 S1210 1.610 . S
N1212 C1213 1.351 . S
C1213 C1207 1.428 . S
C1213 N1212 1.351 . S
C1213 C1214 1.434 . S
C1214 C1205 1.429 . S
C1214 N1211 1.350 . S
C1214 C1213 1.434 . S
C1215 C1216 1.369 . S
C1215 C1217 1.419 . S
C1215 H1219 0.930 . S
C1216 C1215 1.369 . S
C1216 C1225 1.429 . S
C1217 C1215 1.419 . S
C1217 C1218 1.363 . S
C1217 H1220 0.929 . S
C1218 C1217 1.363 . S
C1218 C1224 1.428 . S
H1219 C1215 0.930 . S
H1220 C1217 0.929 . S
S1221 N1222 1.613 . S
S1221 N1223 1.610 . S
N1222 S1221 1.613 . S
N1222 C1225 1.350 . S
N1223 S1221 1.610 . S
N1223 C1224 1.351 . S
C1224 C1218 1.428 . S
C1224 N1223 1.351 . S
C1224 C1225 1.434 . S
C1225 C1216 1.429 . S
C1225 N1222 1.350 . S
C1225 C1224 1.434 . S
C1226 C1227 1.369 . S
C1226 C1228 1.419 . S
C1226 H1230 0.930 . S
C1227 C1226 1.369 . S
C1227 C1236 1.429 . S
C1228 C1226 1.419 . S
C1228 C1229 1.363 . S
C1228 H1231 0.929 . S
C1229 C1228 1.363 . S
C1229 C1235 1.428 . S
H1230 C1226 0.930 . S
H1231 C1228 0.929 . S
S1232 N1233 1.613 . S
S1232 N1234 1.610 . S
N1233 S1232 1.613 . S
N1233 C1236 1.350 . S
N1234 S1232 1.610 . S
N1234 C1235 1.351 . S
C1235 C1229 1.428 . S
C1235 N1234 1.351 . S
C1235 C1236 1.434 . S
C1236 C1227 1.429 . S
C1236 N1233 1.350 . S
C1236 C1235 1.434 . S
C1237 C1238 1.369 . S
C1237 C1239 1.419 . S
C1237 H1241 0.930 . S
C1238 C1237 1.369 . S
C1238 C1247 1.429 . S
C1239 C1237 1.419 . S
C1239 C1240 1.363 . S
C1239 H1242 0.929 . S
C1240 C1239 1.363 . S
C1240 C1246 1.428 . S
H1241 C1237 0.930 . S
H1242 C1239 0.929 . S
S1243 N1244 1.613 . S
S1243 N1245 1.610 . S
N1244 S1243 1.613 . S
N1244 C1247 1.350 . S
N1245 S1243 1.610 . S
N1245 C1246 1.351 . S
C1246 C1240 1.428 . S
C1246 N1245 1.351 . S
C1246 C1247 1.434 . S
C1247 C1238 1.429 . S
C1247 N1244 1.350 . S
C1247 C1246 1.434 . S
C1248 C1249 1.369 . S
C1248 C1250 1.419 . S
C1248 H1252 0.930 . S
C1249 C1248 1.369 . S
C1249 C1258 1.429 . S
C1250 C1248 1.419 . S
C1250 C1251 1.363 . S
C1250 H1253 0.929 . S
C1251 C1250 1.363 . S
C1251 C1257 1.428 . S
H1252 C1248 0.930 . S
H1253 C1250 0.929 . S
S1254 N1255 1.613 . S
S1254 N1256 1.610 . S
N1255 S1254 1.613 . S
N1255 C1258 1.350 . S
N1256 S1254 1.610 . S
N1256 C1257 1.351 . S
C1257 C1251 1.428 . S
C1257 N1256 1.351 . S
C1257 C1258 1.434 . S
C1258 C1249 1.429 . S
C1258 N1255 1.350 . S
C1258 C1257 1.434 . S
C1259 C1260 1.369 . S
C1259 C1261 1.419 . S
C1259 H1263 0.930 1_655 S
C1260 C1259 1.369 . S
C1260 C1269 1.429 . S
C1261 C1259 1.419 . S
C1261 C1262 1.363 . S
C1261 H1264 0.929 1_545 S
C1262 C1261 1.363 . S
C1262 C1268 1.428 . S
H1263 C1259 0.930 1_455 S
H1264 C1261 0.929 1_565 S
S1265 N1266 1.613 . S
S1265 N1267 1.610 . S
N1266 S1265 1.613 . S
N1266 C1269 1.350 . S
N1267 S1265 1.610 . S
N1267 C1268 1.351 . S
C1268 C1262 1.428 . S
C1268 N1267 1.351 . S
C1268 C1269 1.434 . S
C1269 C1260 1.429 . S
C1269 N1266 1.350 . S
C1269 C1268 1.434 . S
C1270 C1271 1.369 . S
C1270 C1272 1.419 1_655 S
C1270 H1274 0.930 . S
C1271 C1270 1.369 . S
C1271 C1280 1.429 . S
C1272 C1270 1.419 1_455 S
C1272 C1273 1.363 . S
C1272 H1275 0.929 . S
C1273 C1272 1.363 . S
C1273 C1279 1.428 . S
H1274 C1270 0.930 . S
H1275 C1272 0.929 . S
S1276 N1277 1.613 1_455 S
S1276 N1278 1.610 . S
N1277 S1276 1.613 1_655 S
N1277 C1280 1.350 . S
N1278 S1276 1.610 . S
N1278 C1279 1.351 . S
C1279 C1273 1.428 . S
C1279 N1278 1.351 . S
C1279 C1280 1.434 1_455 S
C1280 C1271 1.429 . S
C1280 N1277 1.350 . S
C1280 C1279 1.434 1_655 S
C1281 C1282 1.369 . S
C1281 C1283 1.419 . S
C1281 H1285 0.930 . S
C1282 C1281 1.369 . S
C1282 C1291 1.429 . S
C1283 C1281 1.419 . S
C1283 C1284 1.363 . S
C1283 H1286 0.929 . S
C1284 C1283 1.363 . S
C1284 C1290 1.428 . S
H1285 C1281 0.930 . S
H1286 C1283 0.929 . S
S1287 N1288 1.613 . S
S1287 N1289 1.610 . S
N1288 S1287 1.613 . S
N1288 C1291 1.350 . S
N1289 S1287 1.610 . S
N1289 C1290 1.351 . S
C1290 C1284 1.428 . S
C1290 N1289 1.351 . S
C1290 C1291 1.434 . S
C1291 C1282 1.429 . S
C1291 N1288 1.350 . S
C1291 C1290 1.434 . S
C1292 C1293 1.369 . S
C1292 C1294 1.419 . S
C1292 H1296 0.930 . S
C1293 C1292 1.369 . S
C1293 C1302 1.429 . S
C1294 C1292 1.419 . S
C1294 C1295 1.363 . S
C1294 H1297 0.929 . S
C1295 C1294 1.363 . S
C1295 C1301 1.428 . S
H1296 C1292 0.930 . S
H1297 C1294 0.929 . S
S1298 N1299 1.613 . S
S1298 N1300 1.610 . S
N1299 S1298 1.613 . S
N1299 C1302 1.350 . S
N1300 S1298 1.610 . S
N1300 C1301 1.351 . S
C1301 C1295 1.428 . S
C1301 N1300 1.351 . S
C1301 C1302 1.434 . S
C1302 C1293 1.429 . S
C1302 N1299 1.350 . S
C1302 C1301 1.434 . S
C1303 C1304 1.369 . S
C1303 C1305 1.419 . S
C1303 H1307 0.930 . S
C1304 C1303 1.369 . S
C1304 C1313 1.429 . S
C1305 C1303 1.419 . S
C1305 C1306 1.363 . S
C1305 H1308 0.929 . S
C1306 C1305 1.363 . S
C1306 C1312 1.428 . S
H1307 C1303 0.930 . S
H1308 C1305 0.929 . S
S1309 N1310 1.613 . S
S1309 N1311 1.610 . S
N1310 S1309 1.613 . S
N1310 C1313 1.350 . S
N1311 S1309 1.610 . S
N1311 C1312 1.351 . S
C1312 C1306 1.428 . S
C1312 N1311 1.351 . S
C1312 C1313 1.434 . S
C1313 C1304 1.429 . S
C1313 N1310 1.350 . S
C1313 C1312 1.434 . S
C1314 C1315 1.369 . S
C1314 C1316 1.419 . S
C1314 H1318 0.930 . S
C1315 C1314 1.369 . S
C1315 C1324 1.429 . S
C1316 C1314 1.419 . S
C1316 C1317 1.363 . S
C1316 H1319 0.929 . S
C1317 C1316 1.363 . S
C1317 C1323 1.428 . S
H1318 C1314 0.930 . S
H1319 C1316 0.929 . S
S1320 N1321 1.613 . S
S1320 N1322 1.610 . S
N1321 S1320 1.613 . S
N1321 C1324 1.350 . S
N1322 S1320 1.610 . S
N1322 C1323 1.351 . S
C1323 C1317 1.428 . S
C1323 N1322 1.351 . S
C1323 C1324 1.434 . S
C1324 C1315 1.429 . S
C1324 N1321 1.350 . S
C1324 C1323 1.434 . S
C1325 C1326 1.369 . S
C1325 C1327 1.419 . S
C1325 H1329 0.930 . S
C1326 C1325 1.369 . S
C1326 C1335 1.429 . S
C1327 C1325 1.419 . S
C1327 C1328 1.363 . S
C1327 H1330 0.929 . S
C1328 C1327 1.363 . S
C1328 C1334 1.428 . S
H1329 C1325 0.930 . S
H1330 C1327 0.929 . S
S1331 N1332 1.613 . S
S1331 N1333 1.610 . S
N1332 S1331 1.613 . S
N1332 C1335 1.350 . S
N1333 S1331 1.610 . S
N1333 C1334 1.351 . S
C1334 C1328 1.428 . S
C1334 N1333 1.351 . S
C1334 C1335 1.434 . S
C1335 C1326 1.429 . S
C1335 N1332 1.350 . S
C1335 C1334 1.434 . S
C1336 C1337 1.369 . S
C1336 C1338 1.419 . S
C1336 H1340 0.930 . S
C1337 C1336 1.369 . S
C1337 C1346 1.429 . S
C1338 C1336 1.419 . S
C1338 C1339 1.363 . S
C1338 H1341 0.929 . S
C1339 C1338 1.363 . S
C1339 C1345 1.428 . S
H1340 C1336 0.930 . S
H1341 C1338 0.929 . S
S1342 N1343 1.613 . S
S1342 N1344 1.610 . S
N1343 S1342 1.613 . S
N1343 C1346 1.350 . S
N1344 S1342 1.610 . S
N1344 C1345 1.351 . S
C1345 C1339 1.428 . S
C1345 N1344 1.351 . S
C1345 C1346 1.434 . S
C1346 C1337 1.429 . S
C1346 N1343 1.350 . S
C1346 C1345 1.434 . S
C1347 C1348 1.369 . S
C1347 C1349 1.419 . S
C1347 H1351 0.930 . S
C1348 C1347 1.369 . S
C1348 C1357 1.429 . S
C1349 C1347 1.419 . S
C1349 C1350 1.363 . S
C1349 H1352 0.929 . S
C1350 C1349 1.363 . S
C1350 C1356 1.428 . S
H1351 C1347 0.930 . S
H1352 C1349 0.929 . S
S1353 N1354 1.613 1_645 S
S1353 N1355 1.610 1_545 S
N1354 S1353 1.613 1_465 S
N1354 C1357 1.350 1_455 S
N1355 S1353 1.610 1_565 S
N1355 C1356 1.351 . S
C1356 C1350 1.428 . S
C1356 N1355 1.351 . S
C1356 C1357 1.434 . S
C1357 C1348 1.429 . S
C1357 N1354 1.350 1_655 S
C1357 C1356 1.434 . S
C1358 C1359 1.369 . S
C1358 C1360 1.419 . S
C1358 H1362 0.930 . S
C1359 C1358 1.369 . S
C1359 C1368 1.429 . S
C1360 C1358 1.419 . S
C1360 C1361 1.363 . S
C1360 H1363 0.929 . S
C1361 C1360 1.363 . S
C1361 C1367 1.428 . S
H1362 C1358 0.930 . S
H1363 C1360 0.929 . S
S1364 N1365 1.613 . S
S1364 N1366 1.610 . S
N1365 S1364 1.613 . S
N1365 C1368 1.350 . S
N1366 S1364 1.610 . S
N1366 C1367 1.351 . S
C1367 C1361 1.428 . S
C1367 N1366 1.351 . S
C1367 C1368 1.434 . S
C1368 C1359 1.429 . S
C1368 N1365 1.350 . S
C1368 C1367 1.434 . S
C1369 C1370 1.369 . S
C1369 C1371 1.419 1_655 S
C1369 H1373 0.930 . S
C1370 C1369 1.369 . S
C1370 C1379 1.429 . S
C1371 C1369 1.419 1_455 S
C1371 C1372 1.363 . S
C1371 H1374 0.929 . S
C1372 C1371 1.363 . S
C1372 C1378 1.428 . S
H1373 C1369 0.930 . S
H1374 C1371 0.929 . S
S1375 N1376 1.613 . S
S1375 N1377 1.610 1_655 S
N1376 S1375 1.613 . S
N1376 C1379 1.350 . S
N1377 S1375 1.610 1_455 S
N1377 C1378 1.351 . S
C1378 C1372 1.428 . S
C1378 N1377 1.351 . S
C1378 C1379 1.434 1_455 S
C1379 C1370 1.429 . S
C1379 N1376 1.350 . S
C1379 C1378 1.434 1_655 S
C1380 C1381 1.369 . S
C1380 C1382 1.419 . S
C1380 H1384 0.930 . S
C1381 C1380 1.369 . S
C1381 C1390 1.429 . S
C1382 C1380 1.419 . S
C1382 C1383 1.363 . S
C1382 H1385 0.929 . S
C1383 C1382 1.363 . S
C1383 C1389 1.428 . S
H1384 C1380 0.930 . S
H1385 C1382 0.929 . S
S1386 N1387 1.613 . S
S1386 N1388 1.610 . S
N1387 S1386 1.613 . S
N1387 C1390 1.350 . S
N1388 S1386 1.610 . S
N1388 C1389 1.351 . S
C1389 C1383 1.428 . S
C1389 N1388 1.351 . S
C1389 C1390 1.434 . S
C1390 C1381 1.429 . S
C1390 N1387 1.350 . S
C1390 C1389 1.434 . S
C1391 C1392 1.369 . S
C1391 C1393 1.419 . S
C1391 H1395 0.930 . S
C1392 C1391 1.369 . S
C1392 C1401 1.429 . S
C1393 C1391 1.419 . S
C1393 C1394 1.363 . S
C1393 H1396 0.929 . S
C1394 C1393 1.363 . S
C1394 C1400 1.428 . S
H1395 C1391 0.930 . S
H1396 C1393 0.929 . S
S1397 N1398 1.613 . S
S1397 N1399 1.610 . S
N1398 S1397 1.613 . S
N1398 C1401 1.350 . S
N1399 S1397 1.610 . S
N1399 C1400 1.351 . S
C1400 C1394 1.428 . S
C1400 N1399 1.351 . S
C1400 C1401 1.434 . S
C1401 C1392 1.429 . S
C1401 N1398 1.350 . S
C1401 C1400 1.434 . S
C1402 C1403 1.369 . S
C1402 C1404 1.419 . S
C1402 H1406 0.930 . S
C1403 C1402 1.369 . S
C1403 C1412 1.429 . S
C1404 C1402 1.419 . S
C1404 C1405 1.363 . S
C1404 H1407 0.929 . S
C1405 C1404 1.363 . S
C1405 C1411 1.428 . S
H1406 C1402 0.930 . S
H1407 C1404 0.929 . S
S1408 N1409 1.613 . S
S1408 N1410 1.610 . S
N1409 S1408 1.613 . S
N1409 C1412 1.350 . S
N1410 S1408 1.610 . S
N1410 C1411 1.351 . S
C1411 C1405 1.428 . S
C1411 N1410 1.351 . S
C1411 C1412 1.434 . S
C1412 C1403 1.429 . S
C1412 N1409 1.350 . S
C1412 C1411 1.434 . S
C1413 C1414 1.369 . S
C1413 C1415 1.419 . S
C1413 H1417 0.930 . S
C1414 C1413 1.369 . S
C1414 C1423 1.429 . S
C1415 C1413 1.419 . S
C1415 C1416 1.363 . S
C1415 H1418 0.929 . S
C1416 C1415 1.363 . S
C1416 C1422 1.428 . S
H1417 C1413 0.930 . S
H1418 C1415 0.929 . S
S1419 N1420 1.613 . S
S1419 N1421 1.610 . S
N1420 S1419 1.613 . S
N1420 C1423 1.350 . S
N1421 S1419 1.610 . S
N1421 C1422 1.351 . S
C1422 C1416 1.428 . S
C1422 N1421 1.351 . S
C1422 C1423 1.434 . S
C1423 C1414 1.429 . S
C1423 N1420 1.350 . S
C1423 C1422 1.434 . S
C1424 C1425 1.369 . S
C1424 C1426 1.419 1_545 S
C1424 H1428 0.930 . S
C1425 C1424 1.369 . S
C1425 C1434 1.429 . S
C1426 C1424 1.419 1_565 S
C1426 C1427 1.363 . S
C1426 H1429 0.929 . S
C1427 C1426 1.363 . S
C1427 C1433 1.428 . S
H1428 C1424 0.930 . S
H1429 C1426 0.929 . S
S1430 N1431 1.613 . S
S1430 N1432 1.610 1_545 S
N1431 S1430 1.613 . S
N1431 C1434 1.350 . S
N1432 S1430 1.610 1_565 S
N1432 C1433 1.351 . S
C1433 C1427 1.428 . S
C1433 N1432 1.351 . S
C1433 C1434 1.434 1_565 S
C1434 C1425 1.429 . S
C1434 N1431 1.350 . S
C1434 C1433 1.434 1_545 S
C1435 C1436 1.369 . S
C1435 C1437 1.419 . S
C1435 H1439 0.930 . S
C1436 C1435 1.369 . S
C1436 C1445 1.429 . S
C1437 C1435 1.419 . S
C1437 C1438 1.363 . S
C1437 H1440 0.929 1_455 S
C1438 C1437 1.363 . S
C1438 C1444 1.428 . S
H1439 C1435 0.930 . S
H1440 C1437 0.929 1_655 S
S1441 N1442 1.613 . S
S1441 N1443 1.610 . S
N1442 S1441 1.613 . S
N1442 C1445 1.350 . S
N1443 S1441 1.610 . S
N1443 C1444 1.351 . S
C1444 C1438 1.428 . S
C1444 N1443 1.351 . S
C1444 C1445 1.434 . S
C1445 C1436 1.429 . S
C1445 N1442 1.350 . S
C1445 C1444 1.434 . S
C1446 C1447 1.369 . S
C1446 C1448 1.419 . S
C1446 H1450 0.930 . S
C1447 C1446 1.369 . S
C1447 C1456 1.429 . S
C1448 C1446 1.419 . S
C1448 C1449 1.363 . S
C1448 H1451 0.929 . S
C1449 C1448 1.363 . S
C1449 C1455 1.428 . S
H1450 C1446 0.930 . S
H1451 C1448 0.929 . S
S1452 N1453 1.613 . S
S1452 N1454 1.610 . S
N1453 S1452 1.613 . S
N1453 C1456 1.350 . S
N1454 S1452 1.610 . S
N1454 C1455 1.351 . S
C1455 C1449 1.428 . S
C1455 N1454 1.351 . S
C1455 C1456 1.434 . S
C1456 C1447 1.429 . S
C1456 N1453 1.350 . S
C1456 C1455 1.434 . S
C1457 C1458 1.369 . S
C1457 C1459 1.419 1_545 S
C1457 H1461 0.930 . S
C1458 C1457 1.369 . S
C1458 C1467 1.429 . S
C1459 C1457 1.419 1_565 S
C1459 C1460 1.363 . S
C1459 H1462 0.929 . S
C1460 C1459 1.363 . S
C1460 C1466 1.428 . S
H1461 C1457 0.930 . S
H1462 C1459 0.929 . S
S1463 N1464 1.613 . S
S1463 N1465 1.610 1_545 S
N1464 S1463 1.613 . S
N1464 C1467 1.350 . S
N1465 S1463 1.610 1_565 S
N1465 C1466 1.351 . S
C1466 C1460 1.428 . S
C1466 N1465 1.351 . S
C1466 C1467 1.434 1_565 S
C1467 C1458 1.429 . S
C1467 N1464 1.350 . S
C1467 C1466 1.434 1_545 S
C1468 C1469 1.369 . S
C1468 C1470 1.419 . S
C1468 H1472 0.930 . S
C1469 C1468 1.369 . S
C1469 C1478 1.429 . S
C1470 C1468 1.419 . S
C1470 C1471 1.363 . S
C1470 H1473 0.929 . S
C1471 C1470 1.363 . S
C1471 C1477 1.428 . S
H1472 C1468 0.930 . S
H1473 C1470 0.929 . S
S1474 N1475 1.613 . S
S1474 N1476 1.610 1_455 S
N1475 S1474 1.613 . S
N1475 C1478 1.350 . S
N1476 S1474 1.610 1_655 S
N1476 C1477 1.351 1_655 S
C1477 C1471 1.428 . S
C1477 N1476 1.351 1_455 S
C1477 C1478 1.434 . S
C1478 C1469 1.429 . S
C1478 N1475 1.350 . S
C1478 C1477 1.434 . S
C1479 C1480 1.369 . S
C1479 C1481 1.419 . S
C1479 H1483 0.930 . S
C1480 C1479 1.369 . S
C1480 C1489 1.429 . S
C1481 C1479 1.419 . S
C1481 C1482 1.363 . S
C1481 H1484 0.929 . S
C1482 C1481 1.363 . S
C1482 C1488 1.428 . S
H1483 C1479 0.930 . S
H1484 C1481 0.929 . S
S1485 N1486 1.613 . S
S1485 N1487 1.610 . S
N1486 S1485 1.613 . S
N1486 C1489 1.350 . S
N1487 S1485 1.610 . S
N1487 C1488 1.351 . S
C1488 C1482 1.428 . S
C1488 N1487 1.351 . S
C1488 C1489 1.434 . S
C1489 C1480 1.429 . S
C1489 N1486 1.350 . S
C1489 C1488 1.434 . S
C1490 C1491 1.369 . S
C1490 C1492 1.419 . S
C1490 H1494 0.930 . S
C1491 C1490 1.369 . S
C1491 C1500 1.429 . S
C1492 C1490 1.419 . S
C1492 C1493 1.363 . S
C1492 H1495 0.929 . S
C1493 C1492 1.363 . S
C1493 C1499 1.428 . S
H1494 C1490 0.930 . S
H1495 C1492 0.929 . S
S1496 N1497 1.613 . S
S1496 N1498 1.610 . S
N1497 S1496 1.613 . S
N1497 C1500 1.350 . S
N1498 S1496 1.610 . S
N1498 C1499 1.351 . S
C1499 C1493 1.428 . S
C1499 N1498 1.351 . S
C1499 C1500 1.434 . S
C1500 C1491 1.429 . S
C1500 N1497 1.350 . S
C1500 C1499 1.434 . S
C1501 C1502 1.369 . S
C1501 C1503 1.419 . S
C1501 H1505 0.930 . S
C1502 C1501 1.369 . S
C1502 C1511 1.429 . S
C1503 C1501 1.419 . S
C1503 C1504 1.363 . S
C1503 H1506 0.929 . S
C1504 C1503 1.363 . S
C1504 C1510 1.428 . S
H1505 C1501 0.930 . S
H1506 C1503 0.929 . S
S1507 N1508 1.613 . S
S1507 N1509 1.610 . S
N1508 S1507 1.613 . S
N1508 C1511 1.350 . S
N1509 S1507 1.610 . S
N1509 C1510 1.351 . S
C1510 C1504 1.428 . S
C1510 N1509 1.351 . S
C1510 C1511 1.434 . S
C1511 C1502 1.429 . S
C1511 N1508 1.350 . S
C1511 C1510 1.434 . S
C1512 C1513 1.369 . S
C1512 C1514 1.419 . S
C1512 H1516 0.930 . S
C1513 C1512 1.369 . S
C1513 C1522 1.429 . S
C1514 C1512 1.419 . S
C1514 C1515 1.363 . S
C1514 H1517 0.929 . S
C1515 C1514 1.363 . S
C1515 C1521 1.428 . S
H1516 C1512 0.930 . S
H1517 C1514 0.929 . S
S1518 N1519 1.613 . S
S1518 N1520 1.610 . S
N1519 S1518 1.613 . S
N1519 C1522 1.350 . S
N1520 S1518 1.610 . S
N1520 C1521 1.351 . S
C1521 C1515 1.428 . S
C1521 N1520 1.351 . S
C1521 C1522 1.434 . S
C1522 C1513 1.429 . S
C1522 N1519 1.350 . S
C1522 C1521 1.434 . S
C1523 C1524 1.369 . S
C1523 C1525 1.419 . S
C1523 H1527 0.930 . S
C1524 C1523 1.369 . S
C1524 C1533 1.429 . S
C1525 C1523 1.419 . S
C1525 C1526 1.363 . S
C1525 H1528 0.929 . S
C1526 C1525 1.363 . S
C1526 C1532 1.428 . S
H1527 C1523 0.930 . S
H1528 C1525 0.929 . S
S1529 N1530 1.613 . S
S1529 N1531 1.610 . S
N1530 S1529 1.613 . S
N1530 C1533 1.350 . S
N1531 S1529 1.610 . S
N1531 C1532 1.351 . S
C1532 C1526 1.428 . S
C1532 N1531 1.351 . S
C1532 C1533 1.434 . S
C1533 C1524 1.429 . S
C1533 N1530 1.350 . S
C1533 C1532 1.434 . S
C1534 C1535 1.369 . S
C1534 C1536 1.419 . S
C1534 H1538 0.930 . S
C1535 C1534 1.369 . S
C1535 C1544 1.429 . S
C1536 C1534 1.419 . S
C1536 C1537 1.363 . S
C1536 H1539 0.929 . S
C1537 C1536 1.363 . S
C1537 C1543 1.428 . S
H1538 C1534 0.930 . S
H1539 C1536 0.929 . S
S1540 N1541 1.613 . S
S1540 N1542 1.610 . S
N1541 S1540 1.613 . S
N1541 C1544 1.350 . S
N1542 S1540 1.610 . S
N1542 C1543 1.351 . S
C1543 C1537 1.428 . S
C1543 N1542 1.351 . S
C1543 C1544 1.434 . S
C1544 C1535 1.429 . S
C1544 N1541 1.350 . S
C1544 C1543 1.434 . S
C1545 C1546 1.369 . S
C1545 C1547 1.419 . S
C1545 H1549 0.930 . S
C1546 C1545 1.369 . S
C1546 C1555 1.429 . S
C1547 C1545 1.419 . S
C1547 C1548 1.363 . S
C1547 H1550 0.929 . S
C1548 C1547 1.363 . S
C1548 C1554 1.428 . S
H1549 C1545 0.930 . S
H1550 C1547 0.929 . S
S1551 N1552 1.613 . S
S1551 N1553 1.610 . S
N1552 S1551 1.613 . S
N1552 C1555 1.350 . S
N1553 S1551 1.610 . S
N1553 C1554 1.351 . S
C1554 C1548 1.428 . S
C1554 N1553 1.351 . S
C1554 C1555 1.434 . S
C1555 C1546 1.429 . S
C1555 N1552 1.350 . S
C1555 C1554 1.434 . S
C1556 C1557 1.369 . S
C1556 C1558 1.419 . S
C1556 H1560 0.930 . S
C1557 C1556 1.369 . S
C1557 C1566 1.429 . S
C1558 C1556 1.419 . S
C1558 C1559 1.363 . S
C1558 H1561 0.929 . S
C1559 C1558 1.363 . S
C1559 C1565 1.428 . S
H1560 C1556 0.930 . S
H1561 C1558 0.929 . S
S1562 N1563 1.613 . S
S1562 N1564 1.610 . S
N1563 S1562 1.613 . S
N1563 C1566 1.350 . S
N1564 S1562 1.610 . S
N1564 C1565 1.351 . S
C1565 C1559 1.428 . S
C1565 N1564 1.351 . S
C1565 C1566 1.434 . S
C1566 C1557 1.429 . S
C1566 N1563 1.350 . S
C1566 C1565 1.434 . S
C1567 C1568 1.369 . S
C1567 C1569 1.419 . S
C1567 H1571 0.930 . S
C1568 C1567 1.369 . S
C1568 C1577 1.429 . S
C1569 C1567 1.419 . S
C1569 C1570 1.363 . S
C1569 H1572 0.929 . S
C1570 C1569 1.363 . S
C1570 C1576 1.428 . S
H1571 C1567 0.930 . S
H1572 C1569 0.929 . S
S1573 N1574 1.613 . S
S1573 N1575 1.610 . S
N1574 S1573 1.613 . S
N1574 C1577 1.350 . S
N1575 S1573 1.610 . S
N1575 C1576 1.351 . S
C1576 C1570 1.428 . S
C1576 N1575 1.351 . S
C1576 C1577 1.434 . S
C1577 C1568 1.429 . S
C1577 N1574 1.350 . S
C1577 C1576 1.434 . S
C1578 C1579 1.369 . S
C1578 C1580 1.419 . S
C1578 H1582 0.930 . S
C1579 C1578 1.369 . S
C1579 C1588 1.429 . S
C1580 C1578 1.419 . S
C1580 C1581 1.363 . S
C1580 H1583 0.929 . S
C1581 C1580 1.363 . S
C1581 C1587 1.428 . S
H1582 C1578 0.930 . S
H1583 C1580 0.929 . S
S1584 N1585 1.613 . S
S1584 N1586 1.610 . S
N1585 S1584 1.613 . S
N1585 C1588 1.350 . S
N1586 S1584 1.610 . S
N1586 C1587 1.351 . S
C1587 C1581 1.428 . S
C1587 N1586 1.351 . S
C1587 C1588 1.434 . S
C1588 C1579 1.429 . S
C1588 N1585 1.350 . S
C1588 C1587 1.434 . S
C1589 C1590 1.369 . S
C1589 C1591 1.419 . S
C1589 H1593 0.930 . S
C1590 C1589 1.369 . S
C1590 C1599 1.429 . S
C1591 C1589 1.419 . S
C1591 C1592 1.363 . S
C1591 H1594 0.929 . S
C1592 C1591 1.363 . S
C1592 C1598 1.428 . S
H1593 C1589 0.930 . S
H1594 C1591 0.929 . S
S1595 N1596 1.613 . S
S1595 N1597 1.610 . S
N1596 S1595 1.613 . S
N1596 C1599 1.350 . S
N1597 S1595 1.610 . S
N1597 C1598 1.351 . S
C1598 C1592 1.428 . S
C1598 N1597 1.351 . S
C1598 C1599 1.434 . S
C1599 C1590 1.429 . S
C1599 N1596 1.350 . S
C1599 C1598 1.434 . S
C1600 C1601 1.369 . S
C1600 C1602 1.419 . S
C1600 H1604 0.930 . S
C1601 C1600 1.369 . S
C1601 C1610 1.429 . S
C1602 C1600 1.419 . S
C1602 C1603 1.363 . S
C1602 H1605 0.929 . S
C1603 C1602 1.363 . S
C1603 C1609 1.428 . S
H1604 C1600 0.930 . S
H1605 C1602 0.929 . S
S1606 N1607 1.613 . S
S1606 N1608 1.610 . S
N1607 S1606 1.613 . S
N1607 C1610 1.350 . S
N1608 S1606 1.610 . S
N1608 C1609 1.351 . S
C1609 C1603 1.428 . S
C1609 N1608 1.351 . S
C1609 C1610 1.434 . S
C1610 C1601 1.429 . S
C1610 N1607 1.350 . S
C1610 C1609 1.434 . S
C1611 C1612 1.369 . S
C1611 C1613 1.419 . S
C1611 H1615 0.930 . S
C1612 C1611 1.369 . S
C1612 C1621 1.429 . S
C1613 C1611 1.419 . S
C1613 C1614 1.363 . S
C1613 H1616 0.929 . S
C1614 C1613 1.363 . S
C1614 C1620 1.428 . S
H1615 C1611 0.930 . S
H1616 C1613 0.929 . S
S1617 N1618 1.613 . S
S1617 N1619 1.610 . S
N1618 S1617 1.613 . S
N1618 C1621 1.350 . S
N1619 S1617 1.610 . S
N1619 C1620 1.351 . S
C1620 C1614 1.428 . S
C1620 N1619 1.351 . S
C1620 C1621 1.434 . S
C1621 C1612 1.429 . S
C1621 N1618 1.350 . S
C1621 C1620 1.434 . S
C1622 C1623 1.369 . S
C1622 C1624 1.419 . S
C1622 H1626 0.930 . S
C1623 C1622 1.369 . S
C1623 C1632 1.429 . S
C1624 C1622 1.419 . S
C1624 C1625 1.363 . S
C1624 H1627 0.929 . S
C1625 C1624 1.363 . S
C1625 C1631 1.428 . S
H1626 C1622 0.930 . S
H1627 C1624 0.929 . S
S1628 N1629 1.613 . S
S1628 N1630 1.610 . S
N1629 S1628 1.613 . S
N1629 C1632 1.350 . S
N1630 S1628 1.610 . S
N1630 C1631 1.351 . S
C1631 C1625 1.428 . S
C1631 N1630 1.351 . S
C1631 C1632 1.434 . S
C1632 C1623 1.429 . S
C1632 N1629 1.350 . S
C1632 C1631 1.434 . S
C1633 C1634 1.369 . S
C1633 C1635 1.419 . S
C1633 H1637 0.930 . S
C1634 C1633 1.369 . S
C1634 C1643 1.429 . S
C1635 C1633 1.419 . S
C1635 C1636 1.363 . S
C1635 H1638 0.929 . S
C1636 C1635 1.363 . S
C1636 C1642 1.428 . S
H1637 C1633 0.930 . S
H1638 C1635 0.929 . S
S1639 N1640 1.613 . S
S1639 N1641 1.610 . S
N1640 S1639 1.613 . S
N1640 C1643 1.350 . S
N1641 S1639 1.610 . S
N1641 C1642 1.351 . S
C1642 C1636 1.428 . S
C1642 N1641 1.351 . S
C1642 C1643 1.434 . S
C1643 C1634 1.429 . S
C1643 N1640 1.350 . S
C1643 C1642 1.434 . S
C1644 C1645 1.369 . S
C1644 C1646 1.419 . S
C1644 H1648 0.930 . S
C1645 C1644 1.369 . S
C1645 C1654 1.429 . S
C1646 C1644 1.419 . S
C1646 C1647 1.363 . S
C1646 H1649 0.929 . S
C1647 C1646 1.363 . S
C1647 C1653 1.428 . S
H1648 C1644 0.930 . S
H1649 C1646 0.929 . S
S1650 N1651 1.613 . S
S1650 N1652 1.610 . S
N1651 S1650 1.613 . S
N1651 C1654 1.350 . S
N1652 S1650 1.610 . S
N1652 C1653 1.351 . S
C1653 C1647 1.428 . S
C1653 N1652 1.351 . S
C1653 C1654 1.434 . S
C1654 C1645 1.429 . S
C1654 N1651 1.350 . S
C1654 C1653 1.434 . S
C1655 C1656 1.369 . S
C1655 C1657 1.419 . S
C1655 H1659 0.930 . S
C1656 C1655 1.369 . S
C1656 C1665 1.429 . S
C1657 C1655 1.419 . S
C1657 C1658 1.363 . S
C1657 H1660 0.929 . S
C1658 C1657 1.363 . S
C1658 C1664 1.428 . S
H1659 C1655 0.930 . S
H1660 C1657 0.929 . S
S1661 N1662 1.613 . S
S1661 N1663 1.610 . S
N1662 S1661 1.613 . S
N1662 C1665 1.350 . S
N1663 S1661 1.610 . S
N1663 C1664 1.351 . S
C1664 C1658 1.428 . S
C1664 N1663 1.351 . S
C1664 C1665 1.434 . S
C1665 C1656 1.429 . S
C1665 N1662 1.350 . S
C1665 C1664 1.434 . S
C1666 C1667 1.369 . S
C1666 C1668 1.419 . S
C1666 H1670 0.930 . S
C1667 C1666 1.369 . S
C1667 C1676 1.429 . S
C1668 C1666 1.419 . S
C1668 C1669 1.363 . S
C1668 H1671 0.929 . S
C1669 C1668 1.363 . S
C1669 C1675 1.428 . S
H1670 C1666 0.930 . S
H1671 C1668 0.929 . S
S1672 N1673 1.613 . S
S1672 N1674 1.610 . S
N1673 S1672 1.613 . S
N1673 C1676 1.350 . S
N1674 S1672 1.610 . S
N1674 C1675 1.351 . S
C1675 C1669 1.428 . S
C1675 N1674 1.351 . S
C1675 C1676 1.434 . S
C1676 C1667 1.429 . S
C1676 N1673 1.350 . S
C1676 C1675 1.434 . S
C1677 C1678 1.369 . S
C1677 C1679 1.419 . S
C1677 H1681 0.930 . S
C1678 C1677 1.369 . S
C1678 C1687 1.429 . S
C1679 C1677 1.419 . S
C1679 C1680 1.363 . S
C1679 H1682 0.929 . S
C1680 C1679 1.363 . S
C1680 C1686 1.428 . S
H1681 C1677 0.930 . S
H1682 C1679 0.929 . S
S1683 N1684 1.613 1_655 S
S1683 N1685 1.610 . S
N1684 S1683 1.613 1_455 S
N1684 C1687 1.350 1_455 S
N1685 S1683 1.610 . S
N1685 C1686 1.351 . S
C1686 C1680 1.428 . S
C1686 N1685 1.351 . S
C1686 C1687 1.434 . S
C1687 C1678 1.429 . S
C1687 N1684 1.350 1_655 S
C1687 C1686 1.434 . S
C1688 C1689 1.369 . S
C1688 C1690 1.419 . S
C1688 H1692 0.930 . S
C1689 C1688 1.369 . S
C1689 C1698 1.429 . S
C1690 C1688 1.419 . S
C1690 C1691 1.363 . S
C1690 H1693 0.929 . S
C1691 C1690 1.363 . S
C1691 C1697 1.428 . S
H1692 C1688 0.930 . S
H1693 C1690 0.929 . S
S1694 N1695 1.613 . S
S1694 N1696 1.610 1_565 S
N1695 S1694 1.613 . S
N1695 C1698 1.350 1_565 S
N1696 S1694 1.610 1_545 S
N1696 C1697 1.351 . S
C1697 C1691 1.428 . S
C1697 N1696 1.351 . S
C1697 C1698 1.434 . S
C1698 C1689 1.429 . S
C1698 N1695 1.350 1_545 S
C1698 C1697 1.434 . S
C1699 C1700 1.369 1_655 S
C1699 C1701 1.419 . S
C1699 H1703 0.930 . S
C1700 C1699 1.369 1_455 S
C1700 C1709 1.429 . S
C1701 C1699 1.419 . S
C1701 C1702 1.363 . S
C1701 H1704 0.929 . S
C1702 C1701 1.363 . S
C1702 C1708 1.428 . S
H1703 C1699 0.930 . S
H1704 C1701 0.929 . S
S1705 N1706 1.613 . S
S1705 N1707 1.610 1_455 S
N1706 S1705 1.613 . S
N1706 C1709 1.350 . S
N1707 S1705 1.610 1_655 S
N1707 C1708 1.351 . S
C1708 C1702 1.428 . S
C1708 N1707 1.351 . S
C1708 C1709 1.434 1_655 S
C1709 C1700 1.429 . S
C1709 N1706 1.350 . S
C1709 C1708 1.434 1_455 S
C1710 C1711 1.369 . S
C1710 C1712 1.419 . S
C1710 H1714 0.930 . S
C1711 C1710 1.369 . S
C1711 C1720 1.429 . S
C1712 C1710 1.419 . S
C1712 C1713 1.363 . S
C1712 H1715 0.929 . S
C1713 C1712 1.363 . S
C1713 C1719 1.428 . S
H1714 C1710 0.930 . S
H1715 C1712 0.929 . S
S1716 N1717 1.613 . S
S1716 N1718 1.610 . S
N1717 S1716 1.613 . S
N1717 C1720 1.350 . S
N1718 S1716 1.610 . S
N1718 C1719 1.351 . S
C1719 C1713 1.428 . S
C1719 N1718 1.351 . S
C1719 C1720 1.434 . S
C1720 C1711 1.429 . S
C1720 N1717 1.350 . S
C1720 C1719 1.434 . S
C1721 C1722 1.369 . S
C1721 C1723 1.419 . S
C1721 H1725 0.930 . S
C1722 C1721 1.369 . S
C1722 C1731 1.429 . S
C1723 C1721 1.419 . S
C1723 C1724 1.363 . S
C1723 H1726 0.929 . S
C1724 C1723 1.363 . S
C1724 C1730 1.428 . S
H1725 C1721 0.930 . S
H1726 C1723 0.929 . S
S1727 N1728 1.613 . S
S1727 N1729 1.610 . S
N1728 S1727 1.613 . S
N1728 C1731 1.350 . S
N1729 S1727 1.610 . S
N1729 C1730 1.351 . S
C1730 C1724 1.428 . S
C1730 N1729 1.351 . S
C1730 C1731 1.434 . S
C1731 C1722 1.429 . S
C1731 N1728 1.350 . S
C1731 C1730 1.434 . S
C1732 C1733 1.369 1_655 S
C1732 C1734 1.419 . S
C1732 H1736 0.930 . S
C1733 C1732 1.369 1_455 S
C1733 C1742 1.429 . S
C1734 C1732 1.419 . S
C1734 C1735 1.363 . S
C1734 H1737 0.929 . S
C1735 C1734 1.363 . S
C1735 C1741 1.428 . S
H1736 C1732 0.930 . S
H1737 C1734 0.929 . S
S1738 N1739 1.613 . S
S1738 N1740 1.610 1_455 S
N1739 S1738 1.613 . S
N1739 C1742 1.350 . S
N1740 S1738 1.610 1_655 S
N1740 C1741 1.351 . S
C1741 C1735 1.428 . S
C1741 N1740 1.351 . S
C1741 C1742 1.434 1_655 S
C1742 C1733 1.429 . S
C1742 N1739 1.350 . S
C1742 C1741 1.434 1_455 S
C1743 C1744 1.369 . S
C1743 C1745 1.419 . S
C1743 H1747 0.930 . S
C1744 C1743 1.369 . S
C1744 C1753 1.429 . S
C1745 C1743 1.419 . S
C1745 C1746 1.363 . S
C1745 H1748 0.929 . S
C1746 C1745 1.363 . S
C1746 C1752 1.428 . S
H1747 C1743 0.930 . S
H1748 C1745 0.929 . S
S1749 N1750 1.613 . S
S1749 N1751 1.610 . S
N1750 S1749 1.613 . S
N1750 C1753 1.350 . S
N1751 S1749 1.610 . S
N1751 C1752 1.351 . S
C1752 C1746 1.428 . S
C1752 N1751 1.351 . S
C1752 C1753 1.434 . S
C1753 C1744 1.429 . S
C1753 N1750 1.350 . S
C1753 C1752 1.434 . S
C1754 C1755 1.369 . S
C1754 C1756 1.419 . S
C1754 H1758 0.930 . S
C1755 C1754 1.369 . S
C1755 C1764 1.429 . S
C1756 C1754 1.419 . S
C1756 C1757 1.363 . S
C1756 H1759 0.929 . S
C1757 C1756 1.363 . S
C1757 C1763 1.428 . S
H1758 C1754 0.930 . S
H1759 C1756 0.929 . S
S1760 N1761 1.613 . S
S1760 N1762 1.610 . S
N1761 S1760 1.613 . S
N1761 C1764 1.350 . S
N1762 S1760 1.610 . S
N1762 C1763 1.351 . S
C1763 C1757 1.428 . S
C1763 N1762 1.351 . S
C1763 C1764 1.434 . S
C1764 C1755 1.429 . S
C1764 N1761 1.350 . S
C1764 C1763 1.434 . S
C1765 C1766 1.369 . S
C1765 C1767 1.419 . S
C1765 H1769 0.930 . S
C1766 C1765 1.369 . S
C1766 C1775 1.429 . S
C1767 C1765 1.419 . S
C1767 C1768 1.363 . S
C1767 H1770 0.929 . S
C1768 C1767 1.363 . S
C1768 C1774 1.428 . S
H1769 C1765 0.930 . S
H1770 C1767 0.929 . S
S1771 N1772 1.613 . S
S1771 N1773 1.610 . S
N1772 S1771 1.613 . S
N1772 C1775 1.350 . S
N1773 S1771 1.610 . S
N1773 C1774 1.351 . S
C1774 C1768 1.428 . S
C1774 N1773 1.351 . S
C1774 C1775 1.434 . S
C1775 C1766 1.429 . S
C1775 N1772 1.350 . S
C1775 C1774 1.434 . S
C1776 C1777 1.369 . S
C1776 C1778 1.419 . S
C1776 H1780 0.930 . S
C1777 C1776 1.369 . S
C1777 C1786 1.429 . S
C1778 C1776 1.419 . S
C1778 C1779 1.363 . S
C1778 H1781 0.929 . S
C1779 C1778 1.363 . S
C1779 C1785 1.428 . S
H1780 C1776 0.930 . S
H1781 C1778 0.929 . S
S1782 N1783 1.613 1_455 S
S1782 N1784 1.610 1_465 S
N1783 S1782 1.613 1_655 S
N1783 C1786 1.350 . S
N1784 S1782 1.610 1_645 S
N1784 C1785 1.351 1_545 S
C1785 C1779 1.428 . S
C1785 N1784 1.351 1_565 S
C1785 C1786 1.434 . S
C1786 C1777 1.429 . S
C1786 N1783 1.350 . S
C1786 C1785 1.434 . S
C1787 C1788 1.369 . S
C1787 C1789 1.419 1_565 S
C1787 H1791 0.930 1_565 S
C1788 C1787 1.369 . S
C1788 C1797 1.429 . S
C1789 C1787 1.419 1_545 S
C1789 C1790 1.363 . S
C1789 H1792 0.929 . S
C1790 C1789 1.363 . S
C1790 C1796 1.428 1_545 S
H1791 C1787 0.930 1_545 S
H1792 C1789 0.929 . S
S1793 N1794 1.613 . S
S1793 N1795 1.610 . S
N1794 S1793 1.613 . S
N1794 C1797 1.350 . S
N1795 S1793 1.610 . S
N1795 C1796 1.351 . S
C1796 C1790 1.428 1_565 S
C1796 N1795 1.351 . S
C1796 C1797 1.434 . S
C1797 C1788 1.429 . S
C1797 N1794 1.350 . S
C1797 C1796 1.434 . S
C1798 C1799 1.369 . S
C1798 C1800 1.419 . S
C1798 H1802 0.930 . S
C1799 C1798 1.369 . S
C1799 C1808 1.429 . S
C1800 C1798 1.419 . S
C1800 C1801 1.363 . S
C1800 H1803 0.929 . S
C1801 C1800 1.363 . S
C1801 C1807 1.428 . S
H1802 C1798 0.930 . S
H1803 C1800 0.929 . S
S1804 N1805 1.613 1_655 S
S1804 N1806 1.610 . S
N1805 S1804 1.613 1_455 S
N1805 C1808 1.350 . S
N1806 S1804 1.610 . S
N1806 C1807 1.351 1_655 S
C1807 C1801 1.428 . S
C1807 N1806 1.351 1_455 S
C1807 C1808 1.434 . S
C1808 C1799 1.429 . S
C1808 N1805 1.350 . S
C1808 C1807 1.434 . S
C1809 C1810 1.369 . S
C1809 C1811 1.419 . S
C1809 H1813 0.930 . S
C1810 C1809 1.369 . S
C1810 C1819 1.429 . S
C1811 C1809 1.419 . S
C1811 C1812 1.363 . S
C1811 H1814 0.929 . S
C1812 C1811 1.363 . S
C1812 C1818 1.428 . S
H1813 C1809 0.930 . S
H1814 C1811 0.929 . S
S1815 N1816 1.613 . S
S1815 N1817 1.610 . S
N1816 S1815 1.613 . S
N1816 C1819 1.350 . S
N1817 S1815 1.610 . S
N1817 C1818 1.351 . S
C1818 C1812 1.428 . S
C1818 N1817 1.351 . S
C1818 C1819 1.434 . S
C1819 C1810 1.429 . S
C1819 N1816 1.350 . S
C1819 C1818 1.434 . S
C1820 C1821 1.369 . S
C1820 C1822 1.419 . S
C1820 H1824 0.930 . S
C1821 C1820 1.369 . S
C1821 C1830 1.429 . S
C1822 C1820 1.419 . S
C1822 C1823 1.363 . S
C1822 H1825 0.929 . S
C1823 C1822 1.363 . S
C1823 C1829 1.428 . S
H1824 C1820 0.930 . S
H1825 C1822 0.929 . S
S1826 N1827 1.613 . S
S1826 N1828 1.610 . S
N1827 S1826 1.613 . S
N1827 C1830 1.350 . S
N1828 S1826 1.610 . S
N1828 C1829 1.351 . S
C1829 C1823 1.428 . S
C1829 N1828 1.351 . S
C1829 C1830 1.434 . S
C1830 C1821 1.429 . S
C1830 N1827 1.350 . S
C1830 C1829 1.434 . S
C1831 C1832 1.369 . S
C1831 C1833 1.419 . S
C1831 H1835 0.930 . S
C1832 C1831 1.369 . S
C1832 C1841 1.429 . S
C1833 C1831 1.419 . S
C1833 C1834 1.363 . S
C1833 H1836 0.929 . S
C1834 C1833 1.363 . S
C1834 C1840 1.428 . S
H1835 C1831 0.930 . S
H1836 C1833 0.929 . S
S1837 N1838 1.613 . S
S1837 N1839 1.610 . S
N1838 S1837 1.613 . S
N1838 C1841 1.350 . S
N1839 S1837 1.610 . S
N1839 C1840 1.351 . S
C1840 C1834 1.428 . S
C1840 N1839 1.351 . S
C1840 C1841 1.434 . S
C1841 C1832 1.429 . S
C1841 N1838 1.350 . S
C1841 C1840 1.434 . S
C1842 C1843 1.369 . S
C1842 C1844 1.419 . S
C1842 H1846 0.930 . S
C1843 C1842 1.369 . S
C1843 C1852 1.429 . S
C1844 C1842 1.419 . S
C1844 C1845 1.363 . S
C1844 H1847 0.929 . S
C1845 C1844 1.363 . S
C1845 C1851 1.428 . S
H1846 C1842 0.930 . S
H1847 C1844 0.929 . S
S1848 N1849 1.613 . S
S1848 N1850 1.610 . S
N1849 S1848 1.613 . S
N1849 C1852 1.350 . S
N1850 S1848 1.610 . S
N1850 C1851 1.351 . S
C1851 C1845 1.428 . S
C1851 N1850 1.351 . S
C1851 C1852 1.434 . S
C1852 C1843 1.429 . S
C1852 N1849 1.350 . S
C1852 C1851 1.434 . S
C1853 C1854 1.369 . S
C1853 C1855 1.419 . S
C1853 H1857 0.930 . S
C1854 C1853 1.369 . S
C1854 C1863 1.429 . S
C1855 C1853 1.419 . S
C1855 C1856 1.363 . S
C1855 H1858 0.929 . S
C1856 C1855 1.363 . S
C1856 C1862 1.428 . S
H1857 C1853 0.930 . S
H1858 C1855 0.929 . S
S1859 N1860 1.613 . S
S1859 N1861 1.610 . S
N1860 S1859 1.613 . S
N1860 C1863 1.350 . S
N1861 S1859 1.610 . S
N1861 C1862 1.351 . S
C1862 C1856 1.428 . S
C1862 N1861 1.351 . S
C1862 C1863 1.434 . S
C1863 C1854 1.429 . S
C1863 N1860 1.350 . S
C1863 C1862 1.434 . S
C1864 C1865 1.369 . S
C1864 C1866 1.419 . S
C1864 H1868 0.930 . S
C1865 C1864 1.369 . S
C1865 C1874 1.429 . S
C1866 C1864 1.419 . S
C1866 C1867 1.363 . S
C1866 H1869 0.929 . S
C1867 C1866 1.363 . S
C1867 C1873 1.428 . S
H1868 C1864 0.930 . S
H1869 C1866 0.929 . S
S1870 N1871 1.613 . S
S1870 N1872 1.610 . S
N1871 S1870 1.613 . S
N1871 C1874 1.350 . S
N1872 S1870 1.610 . S
N1872 C1873 1.351 . S
C1873 C1867 1.428 . S
C1873 N1872 1.351 . S
C1873 C1874 1.434 . S
C1874 C1865 1.429 . S
C1874 N1871 1.350 . S
C1874 C1873 1.434 . S
C1875 C1876 1.369 . S
C1875 C1877 1.419 . S
C1875 H1879 0.930 . S
C1876 C1875 1.369 . S
C1876 C1885 1.429 . S
C1877 C1875 1.419 . S
C1877 C1878 1.363 . S
C1877 H1880 0.929 . S
C1878 C1877 1.363 . S
C1878 C1884 1.428 . S
H1879 C1875 0.930 . S
H1880 C1877 0.929 . S
S1881 N1882 1.613 . S
S1881 N1883 1.610 . S
N1882 S1881 1.613 . S
N1882 C1885 1.350 . S
N1883 S1881 1.610 . S
N1883 C1884 1.351 . S
C1884 C1878 1.428 . S
C1884 N1883 1.351 . S
C1884 C1885 1.434 . S
C1885 C1876 1.429 . S
C1885 N1882 1.350 . S
C1885 C1884 1.434 . S
C1886 C1887 1.369 . S
C1886 C1888 1.419 1_545 S
C1886 H1890 0.930 . S
C1887 C1886 1.369 . S
C1887 C1896 1.429 1_545 S
C1888 C1886 1.419 1_565 S
C1888 C1889 1.363 . S
C1888 H1891 0.929 . S
C1889 C1888 1.363 . S
C1889 C1895 1.428 . S
H1890 C1886 0.930 . S
H1891 C1888 0.929 . S
S1892 N1893 1.613 . S
S1892 N1894 1.610 . S
N1893 S1892 1.613 . S
N1893 C1896 1.350 . S
N1894 S1892 1.610 . S
N1894 C1895 1.351 . S
C1895 C1889 1.428 . S
C1895 N1894 1.351 . S
C1895 C1896 1.434 . S
C1896 C1887 1.429 1_565 S
C1896 N1893 1.350 . S
C1896 C1895 1.434 . S
C1897 C1898 1.369 . S
C1897 C1899 1.419 . S
C1897 H1901 0.930 . S
C1898 C1897 1.369 . S
C1898 C1907 1.429 . S
C1899 C1897 1.419 . S
C1899 C1900 1.363 . S
C1899 H1902 0.929 . S
C1900 C1899 1.363 . S
C1900 C1906 1.428 . S
H1901 C1897 0.930 . S
H1902 C1899 0.929 . S
S1903 N1904 1.613 . S
S1903 N1905 1.610 . S
N1904 S1903 1.613 . S
N1904 C1907 1.350 . S
N1905 S1903 1.610 . S
N1905 C1906 1.351 . S
C1906 C1900 1.428 . S
C1906 N1905 1.351 . S
C1906 C1907 1.434 . S
C1907 C1898 1.429 . S
C1907 N1904 1.350 . S
C1907 C1906 1.434 . S
C721 C549 1.810 . S
C723 C9 1.814 . S
C732 C569 1.810 . S
C734 C29 1.814 1_655 S
C743 C49 1.810 . S
C745 C589 1.815 . S
C754 C69 1.811 . S
C756 C249 1.813 . S
C765 C89 1.811 . S
C767 C269 1.815 . S
C776 C289 1.816 . S
C778 C109 1.813 1_565 S
C787 C121 1.812 1_565 S
C789 C421 1.812 . S
C798 C441 1.816 . S
C800 C141 1.811 . S
C809 C161 1.812 . S
C811 C461 1.812 . S
C820 C601 1.815 . S
C822 C181 1.811 1_655 S
C831 C201 1.811 . S
C833 C621 1.816 . S
C842 C641 1.814 . S
C844 C221 1.814 . S
C853 C489 1.814 . S
C855 C309 1.816 . S
C864 C329 1.814 . S
C866 C509 1.811 . S
C875 C529 1.810 . S
C877 C349 1.815 . S
C886 C361 1.815 . S
C888 C661 1.811 . S
C897 C381 1.810 . S
C899 C681 1.815 . S
C908 C701 1.815 . S
C910 C401 1.811 . S
C919 C1 1.663 . S
C921 C129 1.657 . S
C930 C149 1.665 . S
C932 C21 1.656 . S
C941 C41 1.659 . S
C943 C169 1.661 . S
C952 C189 1.656 . S
C954 C61 1.663 . S
C963 C81 1.665 . S
C965 C209 1.656 . S
C974 C229 1.656 . S
C976 C101 1.663 . S
C985 C369 1.663 . S
C987 C241 1.657 . S
C996 C261 1.665 . S
C998 C389 1.656 . S
C1007 C409 1.660 . S
C1009 C281 1.660 . S
C1018 C301 1.664 . S
C1020 C429 1.657 . S
C1029 C449 1.665 . S
C1031 C321 1.656 . S
C1040 C341 1.655 . S
C1042 C469 1.664 . S
C1051 C481 1.656 . S
C1053 C609 1.663 . S
C1062 C629 1.655 . S
C1064 C501 1.664 . S
C1073 C649 1.662 . S
C1075 C521 1.659 . S
C1084 C669 1.657 . S
C1086 C541 1.663 . S
C1095 C561 1.655 . S
C1097 C689 1.664 . S
C1106 C581 1.664 . S
C1108 C709 1.658 . S
C1117 C19 1.649 . S
C1119 C46 1.740 . S
C1128 C39 1.652 . S
C1130 C6 1.741 . S
C1139 C26 1.740 . S
C1141 C59 1.650 . S
C1150 C79 1.654 . S
C1152 C86 1.741 . S
C1161 C106 1.741 . S
C1163 C99 1.653 . S
C1172 C66 1.743 . S
C1174 C119 1.658 . S
C1183 C176 1.742 . S
C1185 C128 1.654 . S
C1194 C148 1.658 . S
C1196 C136 1.743 . S
C1205 C168 1.651 . S
C1207 C156 1.741 . S
C1216 C216 1.740 . S
C1218 C188 1.651 . S
C1227 C208 1.651 . S
C1229 C236 1.741 . S
C1238 C228 1.657 . S
C1240 C196 1.743 . S
C1249 C286 1.741 . S
C1251 C259 1.652 . S
C1260 C246 1.740 1_655 S
C1262 C279 1.650 1_545 S
C1271 C266 1.743 . S
C1273 C299 1.657 . S
C1282 C326 1.743 . S
C1284 C319 1.656 . S
C1293 C339 1.658 . S
C1295 C346 1.743 . S
C1304 C306 1.740 . S
C1306 C359 1.650 . S
C1315 C368 1.650 . S
C1317 C416 1.741 . S
C1326 C376 1.743 . S
C1328 C388 1.656 . S
C1337 C408 1.656 . S
C1339 C396 1.742 . S
C1348 C456 1.743 1_655 S
C1350 C428 1.657 . S
C1359 C476 1.741 . S
C1361 C448 1.653 1_545 S
C1370 C436 1.740 . S
C1372 C468 1.651 . S
C1381 C526 1.742 . S
C1383 C499 1.655 . S
C1392 C519 1.652 . S
C1394 C486 1.741 . S
C1403 C506 1.743 . S
C1405 C539 1.656 . S
C1414 C559 1.657 . S
C1416 C566 1.743 . S
C1425 C579 1.659 . S
C1427 C586 1.743 . S
C1436 C546 1.740 1_565 S
C1438 C599 1.651 1_455 S
C1447 C608 1.652 . S
C1449 C656 1.741 1_565 S
C1458 C628 1.654 . S
C1460 C616 1.742 . S
C1469 C636 1.742 . S
C1471 C648 1.655 1_455 S
C1480 C668 1.658 . S
C1482 C696 1.743 . S
C1491 C716 1.742 . S
C1493 C688 1.656 . S
C1502 C676 1.740 . S
C1504 C708 1.650 . S
C1513 C56 1.233 . S
C1515 C8 1.281 . S
C1524 C28 1.284 . S
C1526 C16 1.239 . S
C1535 C36 1.235 . S
C1537 C48 1.282 . S
C1546 C96 1.243 . S
C1548 C68 1.285 . S
C1557 C88 1.283 . S
C1559 C116 1.235 . S
C1568 C108 1.281 . S
C1570 C76 1.233 . S
C1579 C166 1.243 . S
C1581 C139 1.286 . S
C1590 C159 1.285 . S
C1592 C126 1.238 . S
C1601 C146 1.244 . S
C1603 C179 1.286 . S
C1612 C206 1.232 . S
C1614 C199 1.281 . S
C1623 C226 1.243 . S
C1625 C219 1.286 . S
C1634 C186 1.242 . S
C1636 C239 1.286 . S
C1645 C248 1.281 . S
C1647 C296 1.236 . S
C1656 C268 1.281 . S
C1658 C256 1.233 . S
C1667 C288 1.286 . S
C1669 C276 1.242 . S
C1678 C336 1.244 1_655 S
C1680 C308 1.286 . S
C1689 C328 1.286 1_545 S
C1691 C356 1.242 . S
C1700 C348 1.286 . S
C1702 C316 1.239 . S
C1711 C406 1.240 . S
C1713 C379 1.286 . S
C1722 C366 1.239 1_655 S
C1724 C399 1.285 1_545 S
C1733 C419 1.283 . S
C1735 C386 1.240 . S
C1744 C446 1.243 . S
C1746 C439 1.285 . S
C1755 C459 1.287 . S
C1757 C466 1.240 . S
C1766 C479 1.287 . S
C1768 C426 1.243 . S
C1777 C488 1.287 . S
C1779 C536 1.242 1_565 S
C1788 C496 1.232 . S
C1790 C508 1.282 . S
C1799 C516 1.241 . S
C1801 C528 1.284 1_455 S
C1810 C576 1.240 . S
C1812 C548 1.284 . S
C1821 C568 1.287 . S
C1823 C596 1.242 . S
C1832 C588 1.286 . S
C1834 C556 1.243 . S
C1843 C646 1.244 . S
C1845 C619 1.285 . S
C1854 C606 1.242 . S
C1856 C639 1.287 . S
C1865 C659 1.287 . S
C1867 C626 1.242 . S
C1876 C686 1.236 . S
C1878 C679 1.284 . S
C1887 C699 1.284 . S
C1889 C706 1.236 . S
C1898 C719 1.281 1_455 S
C1900 C666 1.236 1_565 S
