# Generated by pormake.
# Topology wju, (5)-cn, num edge types: 1
# Building blocks:
#     Node 0, Type 0, BuildingBlock: XOMCOT_clean_sbu_0, # of connection points: 5
#     Node 1, Type 0, BuildingBlock: XOMCOT_clean_sbu_0, # of connection points: 5
#     Node 2, Type 0, BuildingBlock: XOMCOT_clean_sbu_0, # of connection points: 5
#     Node 3, Type 0, BuildingBlock: XOMCOT_clean_sbu_0, # of connection points: 5
#     Node 4, Type 0, BuildingBlock: XOMCOT_clean_sbu_0, # of connection points: 5
#     Node 5, Type 0, BuildingBlock: XOMCOT_clean_sbu_0, # of connection points: 5
#     Node 6, Type 0, BuildingBlock: XOMCOT_clean_sbu_0, # of connection points: 5
#     Node 7, Type 0, BuildingBlock: XOMCOT_clean_sbu_0, # of connection points: 5
#     Node 8, Type 0, BuildingBlock: XOMCOT_clean_sbu_0, # of connection points: 5
#     Node 9, Type 0, BuildingBlock: XOMCOT_clean_sbu_0, # of connection points: 5
#     Node 10, Type 0, BuildingBlock: XOMCOT_clean_sbu_0, # of connection points: 5
#     Node 11, Type 0, BuildingBlock: XOMCOT_clean_sbu_0, # of connection points: 5
#     Edge 12, Type (0, 0), BuildingBlock: UVAHIK_clean_linker_0, # of connection points: 2
#     Edge 13, Type (0, 0), BuildingBlock: UVAHIK_clean_linker_0, # of connection points: 2
#     Edge 14, Type (0, 0), BuildingBlock: UVAHIK_clean_linker_0, # of connection points: 2
#     Edge 15, Type (0, 0), BuildingBlock: UVAHIK_clean_linker_0, # of connection points: 2
#     Edge 16, Type (0, 0), BuildingBlock: UVAHIK_clean_linker_0, # of connection points: 2
#     Edge 17, Type (0, 0), BuildingBlock: UVAHIK_clean_linker_0, # of connection points: 2
#     Edge 18, Type (0, 0), BuildingBlock: UVAHIK_clean_linker_0, # of connection points: 2
#     Edge 19, Type (0, 0), BuildingBlock: UVAHIK_clean_linker_0, # of connection points: 2
#     Edge 20, Type (0, 0), BuildingBlock: UVAHIK_clean_linker_0, # of connection points: 2
#     Edge 21, Type (0, 0), BuildingBlock: UVAHIK_clean_linker_0, # of connection points: 2
#     Edge 22, Type (0, 0), BuildingBlock: UVAHIK_clean_linker_0, # of connection points: 2
#     Edge 23, Type (0, 0), BuildingBlock: UVAHIK_clean_linker_0, # of connection points: 2
#     Edge 24, Type (0, 0), BuildingBlock: UVAHIK_clean_linker_0, # of connection points: 2
#     Edge 25, Type (0, 0), BuildingBlock: UVAHIK_clean_linker_0, # of connection points: 2
#     Edge 26, Type (0, 0), BuildingBlock: UVAHIK_clean_linker_0, # of connection points: 2
#     Edge 27, Type (0, 0), BuildingBlock: UVAHIK_clean_linker_0, # of connection points: 2
#     Edge 28, Type (0, 0), BuildingBlock: UVAHIK_clean_linker_0, # of connection points: 2
#     Edge 29, Type (0, 0), BuildingBlock: UVAHIK_clean_linker_0, # of connection points: 2
#     Edge 30, Type (0, 0), BuildingBlock: UVAHIK_clean_linker_0, # of connection points: 2
#     Edge 31, Type (0, 0), BuildingBlock: UVAHIK_clean_linker_0, # of connection points: 2
#     Edge 32, Type (0, 0), BuildingBlock: UVAHIK_clean_linker_0, # of connection points: 2
#     Edge 33, Type (0, 0), BuildingBlock: UVAHIK_clean_linker_0, # of connection points: 2
#     Edge 34, Type (0, 0), BuildingBlock: UVAHIK_clean_linker_0, # of connection points: 2
#     Edge 35, Type (0, 0), BuildingBlock: UVAHIK_clean_linker_0, # of connection points: 2
#     Edge 36, Type (0, 0), BuildingBlock: UVAHIK_clean_linker_0, # of connection points: 2
#     Edge 37, Type (0, 0), BuildingBlock: UVAHIK_clean_linker_0, # of connection points: 2
#     Edge 38, Type (0, 0), BuildingBlock: UVAHIK_clean_linker_0, # of connection points: 2
#     Edge 39, Type (0, 0), BuildingBlock: UVAHIK_clean_linker_0, # of connection points: 2
#     Edge 40, Type (0, 0), BuildingBlock: UVAHIK_clean_linker_0, # of connection points: 2
#     Edge 41, Type (0, 0), BuildingBlock: UVAHIK_clean_linker_0, # of connection points: 2
# Relax obj value: 0.107
# Max RMSD: 0.150
# Mean RMSD: 0.150
data_MOF--net-wju--node1-XOMCOT_clean_sbu_0--edge1-UVAHIK_clean_linker_0
_symmetry_space_group_name_H-M    P1
_symmetry_Int_Tables_number       1
_symmetry_cell_setting            triclinic
loop_
_symmetry_equiv_pos_as_xyz
'x, y, z'
_cell_length_a     35.532084
_cell_length_b     35.530603
_cell_length_c     128.12089
_cell_angle_alpha  90.049356
_cell_angle_beta   90.075984
_cell_angle_gamma 119.96869
loop_
_atom_site_label
_atom_site_type_symbol
_atom_site_fract_x
_atom_site_fract_y
_atom_site_fract_z
_atom_type_partial_charge
Co0 Co 0.31788 0.12097 0.09528 0.0
C1 C 0.32888 0.13414 0.11837 0.0
C2 C 0.27447 0.07249 0.11393 0.0
C3 C 0.27784 0.07386 0.12461 0.0
N4 N 0.30646 0.11006 0.11001 0.0
N5 N 0.31194 0.11251 0.12739 0.0
H6 H 0.35755 0.16599 0.11787 0.0
H7 H 0.25085 0.04554 0.10928 0.0
C8 C 0.23536 0.11225 0.08632 0.0
O9 O 0.25809 0.14241 0.07941 0.0
N10 N 0.32835 0.12968 0.08032 0.0
C11 C 0.36011 0.1636 0.07508 0.0
C12 C 0.35639 0.15356 0.06462 0.0
C13 C 0.30643 0.09918 0.07293 0.0
N14 N 0.32256 0.11304 0.06324 0.0
C15 C 0.37819 0.2111 0.09735 0.0
C16 C 0.32099 0.24076 0.10108 0.0
C17 C 0.36543 0.2708 0.09999 0.0
C18 C 0.39403 0.25527 0.09839 0.0
C19 C 0.30618 0.19608 0.09988 0.0
N20 N 0.33464 0.18194 0.09747 0.0
H21 H 0.40168 0.20091 0.09607 0.0
H22 H 0.27211 0.17329 0.10097 0.0
H23 H 0.38537 0.19331 0.07842 0.0
H24 H 0.27904 0.0675 0.07466 0.0
O25 O 0.37416 0.12703 0.09716 0.0
O26 O 0.31475 0.06468 0.09379 0.0
O27 O 0.25435 0.10154 0.09321 0.0
C28 C 0.35652 0.08575 0.09549 0.0
H29 H 0.25685 0.04841 0.12996 0.0
H30 H 0.37802 0.17416 0.05856 0.0
H31 H 0.29806 0.25168 0.10268 0.0
H32 H 0.42877 0.27733 0.09788 0.0
Co33 Co 0.19616 0.31569 0.42857 0.0
C34 C 0.19512 0.32073 0.45199 0.0
C35 C 0.1999 0.26651 0.44625 0.0
C36 C 0.20177 0.2665 0.45697 0.0
N37 N 0.19575 0.30044 0.4431 0.0
N38 N 0.19867 0.30049 0.46055 0.0
H39 H 0.19351 0.35022 0.4523 0.0
H40 H 0.2022 0.2437 0.44107 0.0
C41 C 0.1306 0.23161 0.41777 0.0
O42 O 0.12847 0.25278 0.40961 0.0
N43 N 0.19808 0.33051 0.41392 0.0
C44 C 0.18554 0.35649 0.40927 0.0
C45 C 0.19317 0.35725 0.39868 0.0
C46 C 0.21429 0.31701 0.40617 0.0
N47 N 0.21096 0.33209 0.39674 0.0
C48 C 0.16491 0.37112 0.43545 0.0
C49 C 0.07912 0.32127 0.42951 0.0
C50 C 0.09373 0.36285 0.43365 0.0
C51 C 0.13696 0.38737 0.4368 0.0
C52 C 0.10821 0.30553 0.42853 0.0
N53 N 0.15101 0.33085 0.43127 0.0
H54 H 0.19822 0.39192 0.43772 0.0
H55 H 0.09593 0.27354 0.42538 0.0
H56 H 0.17142 0.37341 0.41319 0.0
H57 H 0.22725 0.29558 0.40744 0.0
O58 O 0.24571 0.37211 0.4309 0.0
O59 O 0.24986 0.31396 0.42673 0.0
O60 O 0.15302 0.252 0.42581 0.0
C61 C 0.26989 0.35537 0.42885 0.0
H62 H 0.20494 0.24318 0.46177 0.0
H63 H 0.18506 0.37411 0.39286 0.0
H64 H 0.04571 0.30132 0.427 0.0
H65 H 0.14976 0.41991 0.4399 0.0
Co66 Co 0.87409 0.19444 0.76165 0.0
C67 C 0.85983 0.19194 0.78465 0.0
C68 C 0.92211 0.20019 0.7805 0.0
C69 C 0.91986 0.20144 0.79118 0.0
N70 N 0.88466 0.19439 0.77641 0.0
N71 N 0.88079 0.19626 0.79378 0.0
H72 H 0.82772 0.18807 0.78399 0.0
H73 H 0.94942 0.20383 0.77598 0.0
C74 C 0.88282 0.12032 0.753 0.0
O75 O 0.85232 0.11241 0.74611 0.0
N76 N 0.86573 0.19571 0.74665 0.0
C77 C 0.83204 0.19348 0.74124 0.0
C78 C 0.84246 0.19931 0.73081 0.0
C79 C 0.89644 0.20383 0.73939 0.0
N80 N 0.88297 0.20577 0.72963 0.0
C81 C 0.7838 0.16426 0.76334 0.0
C82 C 0.75474 0.07804 0.76773 0.0
C83 C 0.72447 0.09204 0.76637 0.0
C84 C 0.7397 0.13588 0.76442 0.0
C85 C 0.79934 0.10793 0.76646 0.0
N86 N 0.81318 0.15015 0.76374 0.0
H87 H 0.79383 0.19777 0.76186 0.0
H88 H 0.82234 0.09703 0.76778 0.0
H89 H 0.80225 0.1893 0.74444 0.0
H90 H 0.928 0.20803 0.74127 0.0
O91 O 0.8677 0.24455 0.76335 0.0
O92 O 0.93028 0.24764 0.76021 0.0
O93 O 0.89379 0.15044 0.75978 0.0
C94 C 0.90902 0.26825 0.76177 0.0
H95 H 0.94487 0.20542 0.79664 0.0
H96 H 0.82214 0.20018 0.72462 0.0
H97 H 0.74407 0.04448 0.76961 0.0
H98 H 0.71747 0.14831 0.76371 0.0
Co99 Co 0.68222 0.87465 0.09419 0.0
C100 C 0.67089 0.86372 0.11728 0.0
C101 C 0.72235 0.92677 0.11268 0.0
C102 C 0.71879 0.92612 0.12336 0.0
N103 N 0.6923 0.88785 0.10887 0.0
N104 N 0.68656 0.88657 0.12623 0.0
H105 H 0.64397 0.83074 0.11688 0.0
H106 H 0.74493 0.95398 0.10797 0.0
C107 C 0.7662 0.8849 0.08599 0.0
O108 O 0.7443 0.85347 0.07926 0.0
N109 N 0.67314 0.86371 0.07926 0.0
C110 C 0.6441 0.82798 0.07398 0.0
C111 C 0.64802 0.83735 0.06347 0.0
C112 C 0.69379 0.89429 0.07186 0.0
N113 N 0.67929 0.87912 0.06213 0.0
C114 C 0.62389 0.78446 0.097 0.0
C115 C 0.6829 0.75938 0.10287 0.0
C116 C 0.6385 0.72847 0.1026 0.0
C117 C 0.60902 0.74153 0.09969 0.0
C118 C 0.69657 0.80281 0.10028 0.0
N119 N 0.6672 0.81465 0.09704 0.0
H120 H 0.59986 0.793 0.09481 0.0
H121 H 0.73046 0.82666 0.10118 0.0
H122 H 0.62078 0.79735 0.07734 0.0
H123 H 0.71914 0.92706 0.07363 0.0
O124 O 0.62497 0.86695 0.09545 0.0
O125 O 0.68367 0.92979 0.09202 0.0
O126 O 0.74632 0.89575 0.09258 0.0
C127 C 0.6418 0.90793 0.09349 0.0
H128 H 0.73857 0.95257 0.12864 0.0
H129 H 0.62825 0.8153 0.05735 0.0
H130 H 0.70649 0.75027 0.10527 0.0
H131 H 0.57446 0.71847 0.09941 0.0
Co132 Co 0.80557 0.68229 0.42693 0.0
C133 C 0.8089 0.67485 0.45014 0.0
C134 C 0.81107 0.73351 0.44502 0.0
C135 C 0.81116 0.73315 0.4557 0.0
N136 N 0.80978 0.69719 0.44151 0.0
N137 N 0.80951 0.69625 0.45896 0.0
H138 H 0.80675 0.64338 0.44996 0.0
H139 H 0.81119 0.75831 0.44011 0.0
C140 C 0.87732 0.76347 0.41696 0.0
O141 O 0.88451 0.73998 0.41019 0.0
N142 N 0.80022 0.66875 0.41208 0.0
C143 C 0.79851 0.63462 0.40701 0.0
C144 C 0.7905 0.63716 0.3966 0.0
C145 C 0.79198 0.69076 0.40467 0.0
N146 N 0.78646 0.67256 0.39511 0.0
C147 C 0.83862 0.62439 0.42856 0.0
C148 C 0.9253 0.68461 0.43151 0.0
C149 C 0.91257 0.64064 0.43029 0.0
C150 C 0.86864 0.61041 0.42909 0.0
C151 C 0.89379 0.69743 0.43081 0.0
N152 N 0.85131 0.66755 0.4287 0.0
H153 H 0.80497 0.59989 0.42775 0.0
H154 H 0.90375 0.73116 0.43205 0.0
H155 H 0.80115 0.60848 0.41047 0.0
H156 H 0.7902 0.7197 0.40631 0.0
O157 O 0.75687 0.626 0.42973 0.0
O158 O 0.75164 0.68401 0.42604 0.0
O159 O 0.84807 0.7453 0.42394 0.0
C160 C 0.73221 0.64266 0.42821 0.0
H161 H 0.81254 0.7584 0.46069 0.0
H162 H 0.78645 0.61375 0.39066 0.0
H163 H 0.95905 0.70865 0.43284 0.0
H164 H 0.85752 0.57597 0.4285 0.0
Co165 Co 0.12092 0.80512 0.76141 0.0
C166 C 0.13183 0.80595 0.78455 0.0
C167 C 0.06857 0.79349 0.77982 0.0
C168 C 0.06932 0.79135 0.79051 0.0
N169 N 0.10756 0.80242 0.77608 0.0
N170 N 0.10902 0.79922 0.79347 0.0
H171 H 0.16494 0.81232 0.78423 0.0
H172 H 0.04126 0.78839 0.77505 0.0
C173 C 0.11018 0.87827 0.75292 0.0
O174 O 0.14116 0.88732 0.74612 0.0
N175 N 0.13217 0.80657 0.74651 0.0
C176 C 0.16841 0.81402 0.74138 0.0
C177 C 0.15954 0.80822 0.73085 0.0
C178 C 0.10176 0.79584 0.73898 0.0
N179 N 0.11757 0.79674 0.72933 0.0
C180 C 0.211 0.83684 0.76456 0.0
C181 C 0.23636 0.92161 0.76981 0.0
C182 C 0.26716 0.90795 0.76981 0.0
C183 C 0.25395 0.86506 0.76722 0.0
C184 C 0.19288 0.8917 0.76728 0.0
N185 N 0.18091 0.85012 0.76433 0.0
H186 H 0.20242 0.8041 0.76255 0.0
H187 H 0.16915 0.90199 0.76796 0.0
H188 H 0.19914 0.8222 0.74487 0.0
H189 H 0.06869 0.78774 0.7406 0.0
O190 O 0.12854 0.75555 0.76283 0.0
O191 O 0.0658 0.75146 0.75921 0.0
O192 O 0.09982 0.84808 0.75964 0.0
C193 C 0.08759 0.73143 0.7608 0.0
H194 H 0.04285 0.78491 0.79574 0.0
H195 H 0.18211 0.811 0.72483 0.0
H196 H 0.24558 0.95461 0.77196 0.0
H197 H 0.27695 0.85344 0.76714 0.0
Co198 Co 0.88021 0.6823 0.59955 0.0
C199 C 0.86679 0.6734 0.57653 0.0
C200 C 0.92343 0.7332 0.58107 0.0
C201 C 0.91908 0.73325 0.57042 0.0
N202 N 0.89047 0.69601 0.5849 0.0
N203 N 0.88373 0.69569 0.56761 0.0
H204 H 0.83723 0.64222 0.57695 0.0
H205 H 0.94846 0.75893 0.58574 0.0
C206 C 0.88969 0.76389 0.60949 0.0
O207 O 0.86007 0.74062 0.61647 0.0
N208 N 0.87177 0.66949 0.61441 0.0
C209 C 0.83758 0.63745 0.6195 0.0
C210 C 0.84756 0.63995 0.62995 0.0
C211 C 0.90231 0.69037 0.62184 0.0
N212 N 0.88826 0.67334 0.63145 0.0
C213 C 0.79007 0.62255 0.59699 0.0
C214 C 0.76169 0.68098 0.5935 0.0
C215 C 0.73178 0.63631 0.59318 0.0
C216 C 0.74651 0.60715 0.59488 0.0
C217 C 0.80578 0.69526 0.59546 0.0
N218 N 0.81931 0.66607 0.59756 0.0
H219 H 0.79986 0.59872 0.59823 0.0
H220 H 0.8287 0.72955 0.59499 0.0
H221 H 0.80761 0.61311 0.61603 0.0
H222 H 0.93401 0.71792 0.62021 0.0
O223 O 0.874 0.62632 0.59698 0.0
O224 O 0.93648 0.68521 0.60062 0.0
O225 O 0.89978 0.74548 0.60233 0.0
C226 C 0.91533 0.64371 0.59855 0.0
H227 H 0.93985 0.75909 0.56513 0.0
H228 H 0.82664 0.61803 0.63593 0.0
H229 H 0.75129 0.7044 0.59202 0.0
H230 H 0.72427 0.57239 0.59466 0.0
Co231 Co 0.19636 0.87846 0.93338 0.0
C232 C 0.1941 0.86619 0.9103 0.0
C233 C 0.20678 0.92975 0.91481 0.0
C234 C 0.20761 0.92801 0.9041 0.0
N235 N 0.19844 0.89114 0.91868 0.0
N236 N 0.1996 0.8881 0.90127 0.0
H237 H 0.1877 0.8331 0.91075 0.0
H238 H 0.21207 0.95735 0.91948 0.0
C239 C 0.12371 0.88982 0.94192 0.0
O240 O 0.11442 0.85858 0.94867 0.0
N241 N 0.1955 0.86786 0.94832 0.0
C242 C 0.18886 0.83202 0.9535 0.0
C243 C 0.19449 0.84116 0.96402 0.0
C244 C 0.20571 0.89836 0.95579 0.0
N245 N 0.20508 0.88292 0.96548 0.0
C246 C 0.16356 0.78805 0.93053 0.0
C247 C 0.07911 0.76352 0.92515 0.0
C248 C 0.09225 0.73232 0.92528 0.0
C249 C 0.13498 0.7451 0.92793 0.0
C250 C 0.10937 0.80695 0.92764 0.0
N251 N 0.15079 0.81852 0.93065 0.0
H252 H 0.19624 0.79635 0.93253 0.0
H253 H 0.09953 0.83099 0.92684 0.0
H254 H 0.18135 0.80138 0.95008 0.0
H255 H 0.21313 0.93119 0.95411 0.0
O256 O 0.24541 0.87013 0.93186 0.0
O257 O 0.25045 0.93336 0.93539 0.0
O258 O 0.15393 0.90019 0.93521 0.0
C259 C 0.27001 0.91111 0.93378 0.0
H260 H 0.21296 0.95388 0.89878 0.0
H261 H 0.19216 0.81891 0.97008 0.0
H262 H 0.04627 0.75463 0.92294 0.0
H263 H 0.14622 0.72181 0.92809 0.0
Co264 Co 0.31875 0.1976 0.26721 0.0
C265 C 0.33286 0.19516 0.24425 0.0
C266 C 0.27991 0.20569 0.24803 0.0
C267 C 0.28425 0.20679 0.23737 0.0
N268 N 0.31038 0.19861 0.25235 0.0
N269 N 0.31744 0.20016 0.235 0.0
H270 H 0.36018 0.18987 0.24508 0.0
H271 H 0.25631 0.2101 0.25237 0.0
C272 C 0.2352 0.12292 0.27516 0.0
O273 O 0.25707 0.1152 0.28228 0.0
N274 N 0.32589 0.19767 0.28236 0.0
C275 C 0.34727 0.18282 0.28827 0.0
C276 C 0.34231 0.18952 0.29864 0.0
C277 C 0.30833 0.21319 0.28932 0.0
N278 N 0.31787 0.20867 0.29928 0.0
C279 C 0.37958 0.1683 0.26638 0.0
C280 C 0.3248 0.08369 0.26008 0.0
C281 C 0.36877 0.09769 0.26202 0.0
C282 C 0.39619 0.14075 0.265 0.0
C283 C 0.30912 0.11266 0.26169 0.0
N284 N 0.33628 0.15401 0.26522 0.0
H285 H 0.40186 0.201 0.26888 0.0
H286 H 0.27553 0.10193 0.25994 0.0
H287 H 0.36453 0.16707 0.28554 0.0
H288 H 0.28793 0.22652 0.28714 0.0
O289 O 0.37533 0.24804 0.26608 0.0
O290 O 0.31508 0.25048 0.26856 0.0
O291 O 0.25499 0.15317 0.26847 0.0
C292 C 0.35716 0.27139 0.26745 0.0
H293 H 0.26414 0.21147 0.23176 0.0
H294 H 0.35585 0.18105 0.30519 0.0
H295 H 0.30287 0.05081 0.25748 0.0
H296 H 0.43058 0.15324 0.26628 0.0
Co297 Co 0.12514 0.31668 0.60077 0.0
C298 C 0.14054 0.32608 0.57774 0.0
C299 C 0.07592 0.27652 0.58189 0.0
C300 C 0.0788 0.27903 0.5712 0.0
N301 N 0.11443 0.30606 0.58599 0.0
N302 N 0.11934 0.31007 0.56861 0.0
H303 H 0.17387 0.35215 0.57838 0.0
H304 H 0.04755 0.25483 0.58639 0.0
C305 C 0.11441 0.23315 0.60948 0.0
O306 O 0.14513 0.25542 0.61634 0.0
N307 N 0.1337 0.32642 0.61576 0.0
C308 C 0.16793 0.35742 0.62112 0.0
C309 C 0.15782 0.35326 0.63157 0.0
C310 C 0.10297 0.30455 0.62307 0.0
N311 N 0.11698 0.31995 0.63281 0.0
C312 C 0.21574 0.37537 0.59899 0.0
C313 C 0.24335 0.31671 0.59498 0.0
C314 C 0.27418 0.36083 0.59626 0.0
C315 C 0.25973 0.39021 0.59801 0.0
C316 C 0.1989 0.30292 0.59614 0.0
N317 N 0.18576 0.33205 0.59869 0.0
H318 H 0.20632 0.3994 0.60035 0.0
H319 H 0.17547 0.26911 0.59488 0.0
H320 H 0.19793 0.38245 0.61788 0.0
H321 H 0.07103 0.27768 0.62124 0.0
O322 O 0.13268 0.3737 0.59909 0.0
O323 O 0.06952 0.31493 0.60221 0.0
O324 O 0.10413 0.2527 0.60265 0.0
C325 C 0.09143 0.35677 0.60068 0.0
H326 H 0.05324 0.25914 0.56572 0.0
H327 H 0.17862 0.37422 0.63773 0.0
H328 H 0.25349 0.29326 0.59326 0.0
H329 H 0.2825 0.42475 0.59868 0.0
Co330 Co 0.80695 0.12516 0.93363 0.0
C331 C 0.80783 0.13842 0.91059 0.0
C332 C 0.79997 0.07639 0.91487 0.0
C333 C 0.7973 0.07776 0.9042 0.0
N334 N 0.80633 0.11418 0.91888 0.0
N335 N 0.80227 0.11666 0.90153 0.0
H336 H 0.81158 0.17051 0.91116 0.0
H337 H 0.79657 0.04929 0.91945 0.0
C338 C 0.88169 0.11714 0.94214 0.0
O339 O 0.88945 0.14749 0.94906 0.0
N340 N 0.80632 0.13381 0.94863 0.0
C341 C 0.8091 0.16769 0.95406 0.0
C342 C 0.80303 0.15716 0.96448 0.0
C343 C 0.79778 0.10293 0.95588 0.0
N344 N 0.79591 0.11639 0.96564 0.0
C345 C 0.83624 0.21523 0.93182 0.0
C346 C 0.92248 0.24496 0.92729 0.0
C347 C 0.90812 0.27496 0.92866 0.0
C348 C 0.86428 0.25939 0.93067 0.0
C349 C 0.89293 0.2003 0.92863 0.0
N350 N 0.85072 0.18615 0.9314 0.0
H351 H 0.80273 0.20495 0.93338 0.0
H352 H 0.90411 0.17752 0.92731 0.0
H353 H 0.81378 0.1977 0.95086 0.0
H354 H 0.79307 0.07119 0.95398 0.0
O355 O 0.75638 0.13093 0.93209 0.0
O356 O 0.75417 0.06874 0.93523 0.0
O357 O 0.85145 0.10605 0.93538 0.0
C358 C 0.73313 0.08963 0.93376 0.0
H359 H 0.79213 0.05218 0.89879 0.0
H360 H 0.80237 0.17757 0.97067 0.0
H361 H 0.95605 0.25588 0.92537 0.0
H362 H 0.85159 0.2814 0.9314 0.0
Co363 Co 0.68216 0.80793 0.26608 0.0
C364 C 0.67094 0.80861 0.24304 0.0
C365 C 0.72287 0.79743 0.24749 0.0
C366 C 0.71966 0.79577 0.23679 0.0
N367 N 0.69236 0.80538 0.25139 0.0
N368 N 0.68709 0.80283 0.23401 0.0
H369 H 0.64383 0.81436 0.24353 0.0
H370 H 0.74573 0.7929 0.25214 0.0
C371 C 0.76621 0.8807 0.27455 0.0
O372 O 0.74437 0.89002 0.28132 0.0
N373 N 0.67284 0.80923 0.28102 0.0
C374 C 0.64494 0.81757 0.2863 0.0
C375 C 0.64843 0.8116 0.2968 0.0
C376 C 0.69244 0.79789 0.28842 0.0
N377 N 0.67831 0.79917 0.29814 0.0
C378 C 0.62463 0.84088 0.26331 0.0
C379 C 0.68443 0.92474 0.25755 0.0
C380 C 0.64016 0.9118 0.25776 0.0
C381 C 0.61027 0.86938 0.26062 0.0
C382 C 0.69759 0.89458 0.26014 0.0
N383 N 0.66782 0.85347 0.26333 0.0
H384 H 0.60034 0.80843 0.26548 0.0
H385 H 0.73138 0.90419 0.25928 0.0
H386 H 0.62282 0.82663 0.28295 0.0
H387 H 0.71687 0.78914 0.28668 0.0
O388 O 0.62474 0.75892 0.26462 0.0
O389 O 0.68297 0.75385 0.2681 0.0
O390 O 0.7463 0.85034 0.26785 0.0
C391 C 0.64115 0.73431 0.26653 0.0
H392 H 0.74015 0.79047 0.23145 0.0
H393 H 0.62941 0.81501 0.30293 0.0
H394 H 0.70833 0.95734 0.25519 0.0
H395 H 0.57579 0.85831 0.26085 0.0
C396 C 0.28407 0.04379 0.0533 0.0
C397 C 0.308 0.0895 0.05349 0.0
C398 C 0.27134 0.02123 0.0438 0.0
C399 C 0.30005 0.03383 0.01584 0.0
H400 H 0.18499 0.93398 1.01214 0.0
C401 C 0.23961 0.95185 0.97558 0.0
C402 C 0.21481 0.90621 0.97528 0.0
C403 C 0.24978 0.9742 0.9851 0.0
C404 C 0.21744 0.96149 1.01307 0.0
H405 H 0.33575 0.14709 0.04374 0.0
H406 H 0.31401 0.10786 0.02727 0.0
H407 H 0.20486 0.9724 0.02882 0.0
H408 H 0.18051 0.84858 0.9849 0.0
H409 H 0.19923 0.88731 1.00144 0.0
H410 H 0.31297 0.02278 1.00017 0.0
C411 C 0.3057 0.08944 0.03446 0.0
C412 C 0.22879 0.98353 0.02264 0.0
C413 C 0.31823 0.11196 0.04393 0.0
C414 C 0.20013 0.88362 0.98478 0.0
C415 C 0.21042 0.90594 0.9943 0.0
C416 C 0.2888 0.0117 1.00629 0.0
C417 C 0.28237 0.04381 0.03426 0.0
C418 C 0.2702 0.02004 0.02413 0.0
C419 C 0.23554 0.95153 0.9946 0.0
C420 C 0.24732 0.97526 1.00477 0.0
H421 H 0.27596 0.02529 0.06046 0.0
H422 H 0.25375 0.98605 0.04391 0.0
H423 H 0.33247 0.06141 0.01678 0.0
H424 H 0.25185 0.97048 0.96848 0.0
H425 H 0.26869 0.00934 0.985 0.0
C426 C 0.22863 0.34757 0.37792 0.0
C427 C 0.22128 0.32096 0.38669 0.0
C428 C 0.23766 0.33611 0.36816 0.0
C429 C 0.22764 0.24117 0.35344 0.0
H430 H 0.3137 0.32891 0.33521 0.0
C431 C 0.29888 0.19809 0.31802 0.0
C432 C 0.30455 0.22112 0.30869 0.0
C433 C 0.28691 0.21056 0.32721 0.0
C434 C 0.28921 0.30409 0.34016 0.0
H435 H 0.21736 0.26096 0.39191 0.0
H436 H 0.23445 0.24196 0.37511 0.0
H437 H 0.29688 0.35045 0.35188 0.0
H438 H 0.30219 0.27547 0.30173 0.0
H439 H 0.28116 0.2973 0.31783 0.0
H440 H 0.2206 0.19477 0.34181 0.0
C441 C 0.23258 0.27139 0.37571 0.0
C442 C 0.2795 0.31643 0.34972 0.0
C443 C 0.22341 0.28272 0.38543 0.0
C444 C 0.29773 0.25686 0.30877 0.0
C445 C 0.28611 0.2696 0.318 0.0
C446 C 0.23753 0.22885 0.34393 0.0
C447 C 0.2396 0.29776 0.36692 0.0
C448 C 0.24886 0.28506 0.35654 0.0
C449 C 0.28057 0.24657 0.32733 0.0
C450 C 0.26869 0.2601 0.33722 0.0
H451 H 0.22761 0.3774 0.37858 0.0
H452 H 0.24251 0.35705 0.36155 0.0
H453 H 0.20316 0.21619 0.35836 0.0
H454 H 0.30342 0.17017 0.31821 0.0
H455 H 0.28331 0.19236 0.33428 0.0
C456 C 0.885 0.20159 0.71035 0.0
C457 C 0.90696 0.21434 0.71998 0.0
C458 C 0.90802 0.21108 0.70098 0.0
C459 C 0.01604 0.28531 0.68967 0.0
H460 H 0.97379 0.20323 0.66667 0.0
C461 C 0.11568 0.31363 0.65206 0.0
C462 C 0.0933 0.30517 0.6425 0.0
C463 C 0.09307 0.30097 0.6615 0.0
C464 C 0.98579 0.22664 0.67299 0.0
H465 H 0.97076 0.24688 0.72721 0.0
H466 H 0.01085 0.26246 0.7109 0.0
H467 H 0.9347 0.18374 0.68322 0.0
H468 H 0.02925 0.27619 0.63546 0.0
H469 H 0.9898 0.25383 0.65194 0.0
H470 H 0.06717 0.32814 0.67944 0.0
C471 C 0.9757 0.24567 0.7106 0.0
C472 C 0.96338 0.21551 0.68248 0.0
C473 C 0.95265 0.23624 0.71998 0.0
C474 C 0.0476 0.28287 0.64263 0.0
C475 C 0.02495 0.27006 0.65209 0.0
C476 C 0.03852 0.29635 0.6802 0.0
C477 C 0.95368 0.23347 0.70096 0.0
C478 C 0.97814 0.24476 0.69094 0.0
C479 C 0.04746 0.27933 0.66164 0.0
C480 C 0.02362 0.26721 0.67173 0.0
H481 H 0.84988 0.18414 0.71002 0.0
H482 H 0.88993 0.20155 0.69372 0.0
H483 H 0.02794 0.30897 0.69593 0.0
H484 H 0.15077 0.32987 0.65228 0.0
H485 H 0.11139 0.30789 0.6687 0.0
C486 C 0.76429 0.04635 0.9752 0.0
C487 C 0.78652 0.09208 0.97526 0.0
C488 C 0.75402 0.02301 0.98456 0.0
C489 C 0.73697 0.03338 1.01254 0.0
H490 H 0.75152 0.93287 0.01569 0.0
C491 C 0.7139 0.94855 0.05232 0.0
C492 C 0.69299 0.90288 0.05242 0.0
C493 C 0.72633 0.97144 0.0429 0.0
C494 C 0.74675 0.96054 0.01491 0.0
H495 H 0.81663 0.14886 0.98532 0.0
H496 H 0.79831 0.10824 1.00158 0.0
H497 H 0.77104 0.97273 0.99924 0.0
H498 H 0.66968 0.84578 0.04256 0.0
H499 H 0.69015 0.88552 0.02618 0.0
H500 H 0.71217 0.02105 0.02812 0.0
C501 C 0.78827 0.09045 0.99428 0.0
C502 C 0.75801 0.98342 1.00547 0.0
C503 C 0.79873 0.11376 0.98494 0.0
C504 C 0.68519 0.88082 0.04283 0.0
C505 C 0.69747 0.90371 0.03341 0.0
C506 C 0.7255 0.0104 0.02194 0.0
C507 C 0.76554 0.04481 0.99421 0.0
C508 C 0.75338 0.02019 1.0042 0.0
C509 C 0.71805 0.94933 0.03331 0.0
C510 C 0.73033 0.97374 0.02327 0.0
H511 H 0.75387 0.02843 0.96794 0.0
H512 H 0.7361 0.98785 0.98425 0.0
H513 H 0.73233 0.06114 1.01175 0.0
H514 H 0.72016 0.9668 0.05949 0.0
H515 H 0.74265 0.00657 0.04316 0.0
C516 C 0.7093 0.76088 0.308 0.0
C517 C 0.69119 0.78818 0.30786 0.0
C518 C 0.72081 0.74949 0.31743 0.0
C519 C 0.74456 0.78206 0.3453 0.0
H520 H 0.72053 0.66375 0.34894 0.0
C521 C 0.7584 0.71375 0.38532 0.0
C522 C 0.77716 0.68699 0.3854 0.0
C523 C 0.74881 0.72702 0.37589 0.0
C524 C 0.72788 0.69705 0.34801 0.0
H525 H 0.67194 0.82557 0.31764 0.0
H526 H 0.69093 0.80487 0.33406 0.0
H527 H 0.70235 0.68515 0.33247 0.0
H528 H 0.80158 0.65438 0.3755 0.0
H529 H 0.78457 0.67718 0.35911 0.0
H530 H 0.76972 0.79372 0.36091 0.0
C531 C 0.69671 0.79262 0.32685 0.0
C532 C 0.71752 0.70937 0.33856 0.0
C533 C 0.68528 0.80408 0.31742 0.0
C534 C 0.78639 0.67422 0.37578 0.0
C535 C 0.77668 0.68735 0.36636 0.0
C536 C 0.75478 0.76967 0.35478 0.0
C537 C 0.71445 0.76502 0.32699 0.0
C538 C 0.72577 0.75205 0.33707 0.0
C539 C 0.75761 0.71376 0.36629 0.0
C540 C 0.74663 0.72703 0.35624 0.0
H541 H 0.714 0.74763 0.30084 0.0
H542 H 0.7349 0.72861 0.31722 0.0
H543 H 0.75198 0.81537 0.34438 0.0
H544 H 0.75027 0.72382 0.39254 0.0
H545 H 0.73366 0.74695 0.37611 0.0
C546 C 0.04877 0.76033 0.7192 0.0
C547 C 0.09433 0.78619 0.71951 0.0
C548 C 0.02647 0.74931 0.70967 0.0
C549 C 0.03847 0.78064 0.68165 0.0
H550 H 0.94066 0.66421 0.67808 0.0
C551 C 0.95729 0.71203 0.64147 0.0
C552 C 0.91161 0.68742 0.64124 0.0
C553 C 0.9797 0.72503 0.65098 0.0
C554 C 0.96764 0.69699 0.67898 0.0
H555 H 0.15184 0.82141 0.7099 0.0
H556 H 0.11321 0.80124 0.69334 0.0
H557 H 0.97924 0.68509 0.69469 0.0
H558 H 0.85391 0.6584 0.65096 0.0
H559 H 0.89292 0.68061 0.66746 0.0
H560 H 0.02702 0.79225 0.66586 0.0
C561 C 0.0946 0.78988 0.70048 0.0
C562 C 0.98974 0.70903 0.68852 0.0
C563 C 0.11688 0.80102 0.71001 0.0
C564 C 0.88903 0.67651 0.65078 0.0
C565 C 0.91142 0.68932 0.66027 0.0
C566 C 0.01647 0.76851 0.67208 0.0
C567 C 0.0491 0.76371 0.70017 0.0
C568 C 0.02543 0.75105 0.69 0.0
C569 C 0.95703 0.7136 0.6605 0.0
C570 C 0.98072 0.72656 0.67064 0.0
H571 H 0.03019 0.74791 0.7263 0.0
H572 H 0.99138 0.72959 0.70976 0.0
H573 H 0.06537 0.81347 0.68254 0.0
H574 H 0.97591 0.72064 0.63432 0.0
H575 H 0.01488 0.74331 0.65088 0.0
C576 C 0.63093 0.97262 0.09306 0.0
C577 C 0.6137 0.92745 0.09289 0.0
C578 C 0.6031 0.98995 0.09299 0.0
C579 C 0.49143 0.96352 0.0863 0.0
H580 H 0.51063 0.05173 0.10678 0.0
C581 C 0.36642 0.02055 0.09372 0.0
C582 C 0.38395 0.06535 0.09528 0.0
C583 C 0.3938 0.00267 0.09341 0.0
C584 C 0.50503 0.02744 0.10093 0.0
H585 H 0.5541 0.86504 0.09222 0.0
H586 H 0.50601 0.89519 0.09203 0.0
H587 H 0.56153 0.02481 0.10562 0.0
H588 H 0.44383 0.12658 0.09761 0.0
H589 H 0.49098 0.09585 0.09685 0.0
H590 H 0.43516 0.96641 0.08153 0.0
C591 C 0.54078 0.91727 0.09221 0.0
C592 C 0.53429 0.01214 0.10026 0.0
C593 C 0.56841 0.90004 0.0924 0.0
C594 C 0.42912 0.09183 0.09648 0.0
C595 C 0.45628 0.07415 0.09612 0.0
C596 C 0.46229 0.97906 0.08691 0.0
C597 C 0.55773 0.96234 0.0926 0.0
C598 C 0.52779 0.98001 0.09295 0.0
C599 C 0.43909 0.02938 0.09462 0.0
C600 C 0.46882 0.0113 0.09422 0.0
H601 H 0.66571 0.99444 0.09344 0.0
H602 H 0.61702 0.02489 0.09323 0.0
H603 H 0.48578 0.93889 0.08054 0.0
H604 H 0.33173 0.9994 0.09277 0.0
H605 H 0.37949 0.96796 0.09231 0.0
C606 C 0.33551 0.42871 0.42876 0.0
C607 C 0.31752 0.38336 0.42857 0.0
C608 C 0.3803 0.45622 0.4285 0.0
C609 C 0.48265 0.4623 0.43498 0.0
H610 H 0.53245 0.56182 0.41642 0.0
C611 C 0.66679 0.56957 0.42983 0.0
C612 C 0.68456 0.61459 0.42856 0.0
C613 C 0.62203 0.54186 0.42988 0.0
C614 C 0.51901 0.5346 0.42177 0.0
H615 H 0.33227 0.33116 0.42795 0.0
H616 H 0.41144 0.37973 0.42764 0.0
H617 H 0.45436 0.51101 0.41606 0.0
H618 H 0.66935 0.66601 0.42644 0.0
H619 H 0.59043 0.61739 0.42677 0.0
H620 H 0.54691 0.48617 0.44088 0.0
C621 C 0.39046 0.3937 0.42797 0.0
C622 C 0.47437 0.50535 0.4215 0.0
C623 C 0.34532 0.36598 0.42811 0.0
C624 C 0.65651 0.63144 0.42742 0.0
C625 C 0.6114 0.60355 0.42755 0.0
C626 C 0.52723 0.49175 0.43532 0.0
C627 C 0.40825 0.43908 0.42813 0.0
C628 C 0.4558 0.46892 0.4281 0.0
C629 C 0.5937 0.55839 0.42876 0.0
C630 C 0.54599 0.52817 0.42869 0.0
H631 H 0.31495 0.44316 0.42908 0.0
H632 H 0.39311 0.49101 0.42875 0.0
H633 H 0.46903 0.43489 0.44028 0.0
H634 H 0.68749 0.55542 0.43064 0.0
H635 H 0.60969 0.50728 0.43061 0.0
C636 C 0.02288 0.65599 0.75996 0.0
C637 C 0.06806 0.68381 0.7602 0.0
C638 C 0.00548 0.61085 0.75978 0.0
C639 C 0.03271 0.52591 0.75341 0.0
H640 H 0.94095 0.45545 0.7729 0.0
C641 C 0.97432 0.34336 0.7604 0.0
C642 C 0.92932 0.31603 0.76153 0.0
C643 C 0.9922 0.3886 0.76017 0.0
C644 C 0.96624 0.47455 0.76732 0.0
H645 H 0.13044 0.68638 0.76018 0.0
H646 H 0.10016 0.60818 0.75982 0.0
H647 H 0.96826 0.53336 0.77204 0.0
H648 H 0.86773 0.31456 0.76314 0.0
H649 H 0.89851 0.39247 0.76253 0.0
H650 H 0.03047 0.46706 0.74862 0.0
C651 C 0.07814 0.62097 0.75975 0.0
C652 C 0.98178 0.51917 0.76682 0.0
C653 C 0.09543 0.6658 0.76004 0.0
C654 C 0.90263 0.33465 0.76235 0.0
C655 C 0.92032 0.3795 0.76207 0.0
C656 C 0.01695 0.48117 0.75385 0.0
C657 C 0.03303 0.59297 0.7597 0.0
C658 C 0.01519 0.54532 0.75987 0.0
C659 C 0.96529 0.40712 0.76104 0.0
C660 C 0.98345 0.45494 0.7608 0.0
H661 H 0.00109 0.66902 0.76007 0.0
H662 H 0.97052 0.58992 0.75968 0.0
H663 H 0.05833 0.54529 0.74792 0.0
H664 H 0.99563 0.32987 0.75975 0.0
H665 H 0.02706 0.40905 0.75944 0.0
C666 C 0.02671 0.36773 0.60042 0.0
C667 C 0.07183 0.38487 0.60094 0.0
C668 C 0.00945 0.39563 0.60031 0.0
C669 C 0.03524 0.50668 0.60733 0.0
H670 H 0.95018 0.49022 0.5862 0.0
C671 C 0.98018 0.63321 0.60026 0.0
C672 C 0.93564 0.61619 0.59838 0.0
C673 C 0.99782 0.60563 0.60042 0.0
C674 C 0.97356 0.49505 0.59223 0.0
H675 H 0.13418 0.44442 0.60199 0.0
H676 H 0.10415 0.49258 0.60187 0.0
H677 H 0.9765 0.43882 0.58742 0.0
H678 H 0.87473 0.55702 0.59519 0.0
H679 H 0.90503 0.50945 0.59569 0.0
H680 H 0.03198 0.56257 0.61225 0.0
C681 C 0.08206 0.45783 0.60155 0.0
C682 C 0.98853 0.4655 0.59293 0.0
C683 C 0.09923 0.43015 0.60155 0.0
C684 C 0.90927 0.57134 0.59661 0.0
C685 C 0.92673 0.54395 0.59681 0.0
C686 C 0.02 0.53606 0.60669 0.0
C687 C 0.03707 0.44097 0.60087 0.0
C688 C 0.01956 0.47106 0.60047 0.0
C689 C 0.97117 0.56061 0.59873 0.0
C690 C 0.98892 0.53057 0.59914 0.0
H691 H 0.0049 0.33297 0.59995 0.0
H692 H 0.97456 0.38181 0.59983 0.0
H693 H 0.05899 0.51157 0.61327 0.0
H694 H 0.00124 0.66764 0.60165 0.0
H695 H 0.03232 0.61957 0.60181 0.0
C696 C 0.65844 0.02368 0.93488 0.0
C697 C 0.68537 0.06894 0.93426 0.0
C698 C 0.61317 0.00533 0.93527 0.0
C699 C 0.52795 0.03187 0.94184 0.0
H700 H 0.45499 0.93648 0.92335 0.0
C701 C 0.34583 0.97506 0.93517 0.0
C702 C 0.31761 0.93011 0.93427 0.0
C703 C 0.3909 0.99192 0.93545 0.0
C704 C 0.47481 0.96276 0.92867 0.0
H705 H 0.68614 0.13044 0.93368 0.0
H706 H 0.60792 0.09858 0.93438 0.0
H707 H 0.53307 0.96407 0.92377 0.0
H708 H 0.31429 0.86751 0.93318 0.0
H709 H 0.39208 0.89661 0.93389 0.0
H710 H 0.46979 0.03055 0.94679 0.0
C711 C 0.62146 0.07721 0.93462 0.0
C712 C 0.51952 0.97847 0.92891 0.0
C713 C 0.66634 0.0954 0.93414 0.0
C714 C 0.33515 0.9024 0.93378 0.0
C715 C 0.37988 0.9191 0.93412 0.0
C716 C 0.48319 0.016 0.94166 0.0
C717 C 0.59434 0.03204 0.93518 0.0
C718 C 0.54658 0.01337 0.93544 0.0
C719 C 0.40839 0.96405 0.93487 0.0
C720 C 0.45609 0.98136 0.93504 0.0
H721 H 0.67226 0.00255 0.935 0.0
H722 H 0.59293 0.97034 0.93574 0.0
H723 H 0.54802 0.05857 0.94704 0.0
H724 H 0.33318 0.99715 0.93555 0.0
H725 H 0.41202 0.02679 0.93594 0.0
C726 C 0.36578 0.3461 0.26814 0.0
C727 C 0.38417 0.31914 0.26797 0.0
C728 C 0.39261 0.39138 0.26847 0.0
C729 C 0.50364 0.47722 0.27547 0.0
H730 H 0.48287 0.54835 0.25602 0.0
C731 C 0.62931 0.65863 0.2683 0.0
C732 C 0.61259 0.68674 0.26704 0.0
C733 C 0.60116 0.61359 0.26869 0.0
C734 C 0.48886 0.52904 0.2616 0.0
H735 H 0.44489 0.31829 0.26816 0.0
H736 H 0.49114 0.39656 0.26874 0.0
H737 H 0.43242 0.47031 0.25666 0.0
H738 H 0.55337 0.68989 0.26541 0.0
H739 H 0.50477 0.61215 0.26628 0.0
H740 H 0.56 0.53587 0.28043 0.0
C741 C 0.45623 0.38304 0.26868 0.0
C742 C 0.45987 0.48436 0.26197 0.0
C743 C 0.42962 0.33813 0.26826 0.0
C744 C 0.56739 0.66912 0.26629 0.0
C745 C 0.53943 0.62442 0.26672 0.0
C746 C 0.53252 0.52194 0.27514 0.0
C747 C 0.43812 0.41019 0.26875 0.0
C748 C 0.46713 0.45796 0.26886 0.0
C749 C 0.55587 0.59603 0.26786 0.0
C750 C 0.52555 0.54837 0.26817 0.0
H751 H 0.33085 0.3323 0.26793 0.0
H752 H 0.37782 0.41165 0.26857 0.0
H753 H 0.5098 0.45766 0.28093 0.0
H754 H 0.66401 0.67135 0.2689 0.0
H755 H 0.61489 0.59253 0.26948 0.0
C756 C 0.33115 0.2249 0.21674 0.0
C757 C 0.33147 0.19759 0.22462 0.0
C758 C 0.33926 0.21916 0.20636 0.0
C759 C 0.32441 0.13334 0.18864 0.0
H760 H 0.39334 0.22703 0.1694 0.0
C761 C 0.32722 0.09703 0.1451 0.0
C762 C 0.32646 0.1264 0.13791 0.0
C763 C 0.33605 0.10812 0.15563 0.0
C764 C 0.37358 0.20049 0.17462 0.0
H765 H 0.34196 0.14384 0.22792 0.0
H766 H 0.3555 0.13311 0.20965 0.0
H767 H 0.39461 0.24246 0.18803 0.0
H768 H 0.33559 0.19081 0.13595 0.0
H769 H 0.34938 0.21001 0.15447 0.0
H770 H 0.30134 0.09162 0.17535 0.0
C771 C 0.34919 0.15916 0.21155 0.0
C772 C 0.37459 0.20935 0.18531 0.0
C773 C 0.34178 0.16544 0.22199 0.0
C774 C 0.33633 0.1678 0.14137 0.0
C775 C 0.34433 0.1787 0.15198 0.0
C776 C 0.32289 0.12456 0.17796 0.0
C777 C 0.34725 0.18552 0.20361 0.0
C778 C 0.34974 0.17589 0.19242 0.0
C779 C 0.34335 0.14858 0.15931 0.0
C780 C 0.3472 0.15802 0.17077 0.0
H781 H 0.32359 0.25013 0.21859 0.0
H782 H 0.33723 0.23977 0.20042 0.0
H783 H 0.30427 0.10701 0.19389 0.0
H784 H 0.32029 0.06511 0.14256 0.0
H785 H 0.33633 0.0845 0.16092 0.0
C786 C 0.17053 0.32592 0.4749 0.0
C787 C 0.19892 0.31205 0.47133 0.0
C788 C 0.16793 0.33304 0.48557 0.0
C789 C 0.19464 0.30441 0.51151 0.0
H790 H 0.16053 0.38585 0.52164 0.0
C791 C 0.17712 0.32856 0.55555 0.0
C792 C 0.13585 0.32187 0.55816 0.0
C793 C 0.19052 0.33422 0.5451 0.0
C794 C 0.17025 0.36311 0.51891 0.0
H795 H 0.2487 0.29729 0.47594 0.0
H796 H 0.24588 0.31157 0.49443 0.0
H797 H 0.17415 0.38344 0.50304 0.0
H798 H 0.07737 0.31841 0.55206 0.0
H799 H 0.10108 0.32931 0.53386 0.0
H800 H 0.19106 0.2845 0.52743 0.0
C801 C 0.22412 0.31523 0.48915 0.0
C802 C 0.17773 0.36141 0.50823 0.0
C803 C 0.22603 0.3073 0.47853 0.0
C804 C 0.10922 0.32324 0.55023 0.0
C805 C 0.1229 0.32974 0.53984 0.0
C806 C 0.18789 0.30666 0.52218 0.0
C807 C 0.1943 0.32721 0.49288 0.0
C808 C 0.18935 0.33151 0.50434 0.0
C809 C 0.16323 0.33425 0.53713 0.0
C810 C 0.17496 0.33552 0.52597 0.0
H811 H 0.14905 0.32946 0.4695 0.0
H812 H 0.1441 0.3416 0.48809 0.0
H813 H 0.20258 0.28026 0.50887 0.0
H814 H 0.19806 0.32735 0.56153 0.0
H815 H 0.22185 0.33778 0.54322 0.0
C816 C 0.82238 0.16472 0.80698 0.0
C817 C 0.86536 0.19486 0.80423 0.0
C818 C 0.80927 0.15972 0.81744 0.0
C819 C 0.8375 0.21131 0.84351 0.0
H820 H 0.78745 0.09344 0.85378 0.0
C821 C 0.83409 0.17123 0.8875 0.0
C822 C 0.80137 0.13068 0.89106 0.0
C823 C 0.83677 0.18177 0.87687 0.0
C824 C 0.80042 0.1265 0.85108 0.0
H825 H 0.92749 0.24521 0.8101 0.0
H826 H 0.90453 0.23702 0.82832 0.0
H827 H 0.79976 0.10737 0.8352 0.0
H828 H 0.74404 0.07072 0.88664 0.0
H829 H 0.74702 0.08967 0.86827 0.0
H830 H 0.83814 0.23056 0.85938 0.0
C831 C 0.88103 0.21702 0.82244 0.0
C832 C 0.8076 0.13442 0.84039 0.0
C833 C 0.89428 0.22147 0.81204 0.0
C834 C 0.76988 0.10198 0.884 0.0
C835 C 0.77193 0.11277 0.87347 0.0
C836 C 0.82972 0.20333 0.85422 0.0
C837 C 0.83872 0.18538 0.82529 0.0
C838 C 0.82682 0.17694 0.8365 0.0
C839 C 0.80625 0.15218 0.86966 0.0
C840 C 0.81164 0.16084 0.85818 0.0
H841 H 0.79958 0.1437 0.80111 0.0
H842 H 0.77637 0.1352 0.81942 0.0
H843 H 0.85216 0.24442 0.84071 0.0
H844 H 0.85889 0.19366 0.89282 0.0
H845 H 0.86393 0.21224 0.87428 0.0
C846 C 0.67055 0.90106 0.14395 0.0
C847 C 0.67301 0.87257 0.13677 0.0
C848 C 0.6626 0.89004 0.15449 0.0
C849 C 0.63063 0.79892 0.1735 0.0
H850 H 0.6975 0.89415 0.19264 0.0
C851 C 0.67623 0.77864 0.21566 0.0
C852 C 0.67409 0.8052 0.22349 0.0
C853 C 0.66796 0.7837 0.20525 0.0
C854 C 0.67808 0.86731 0.18742 0.0
H855 H 0.66777 0.80972 0.13481 0.0
H856 H 0.65554 0.79076 0.15334 0.0
H857 H 0.69869 0.90871 0.1741 0.0
H858 H 0.66035 0.857 0.22664 0.0
H859 H 0.64647 0.86645 0.20834 0.0
H860 H 0.61206 0.7574 0.18693 0.0
C861 C 0.65857 0.82125 0.15084 0.0
C862 C 0.67858 0.8756 0.17675 0.0
C863 C 0.66569 0.83203 0.14023 0.0
C864 C 0.66202 0.83599 0.22076 0.0
C865 C 0.65438 0.84155 0.2103 0.0
C866 C 0.63065 0.79058 0.18418 0.0
C867 C 0.65789 0.85058 0.15816 0.0
C868 C 0.6551 0.84153 0.16961 0.0
C869 C 0.65793 0.81587 0.20242 0.0
C870 C 0.65462 0.82468 0.19123 0.0
H871 H 0.67546 0.93226 0.14141 0.0
H872 H 0.66097 0.91295 0.15979 0.0
H873 H 0.61157 0.77191 0.1683 0.0
H874 H 0.68506 0.75438 0.21758 0.0
H875 H 0.67123 0.76366 0.19935 0.0
C876 C 0.82762 0.65912 0.47289 0.0
C877 C 0.80857 0.68377 0.46972 0.0
C878 C 0.83166 0.65255 0.48356 0.0
C879 C 0.84849 0.70998 0.50778 0.0
H880 H 0.80678 0.60174 0.52283 0.0
C881 C 0.85397 0.71198 0.55217 0.0
C882 C 0.86625 0.68494 0.55725 0.0
C883 C 0.84327 0.70621 0.54159 0.0
C884 C 0.81913 0.63226 0.51872 0.0
H885 H 0.77525 0.71715 0.47521 0.0
H886 H 0.78332 0.70669 0.49364 0.0
H887 H 0.7957 0.60053 0.50386 0.0
H888 H 0.87605 0.62999 0.55553 0.0
H889 H 0.85859 0.62031 0.5368 0.0
H890 H 0.8729 0.74216 0.52232 0.0
C891 C 0.79561 0.69299 0.48794 0.0
C892 C 0.81272 0.63147 0.50788 0.0
C893 C 0.79127 0.69919 0.47737 0.0
C894 C 0.86617 0.65085 0.55171 0.0
C895 C 0.85617 0.64543 0.54101 0.0
C896 C 0.85539 0.71084 0.5185 0.0
C897 C 0.81687 0.67071 0.49115 0.0
C898 C 0.82662 0.67038 0.50238 0.0
C899 C 0.84576 0.67389 0.53576 0.0
C900 C 0.83995 0.67203 0.52419 0.0
H901 H 0.84122 0.64682 0.46718 0.0
H902 H 0.84821 0.63524 0.48588 0.0
H903 H 0.86015 0.74047 0.50367 0.0
H904 H 0.85378 0.73835 0.55637 0.0
H905 H 0.83407 0.72789 0.53793 0.0
C906 C 0.22242 0.90084 0.88284 0.0
C907 C 0.19612 0.8725 0.89074 0.0
C908 C 0.2164 0.88735 0.87242 0.0
C909 C 0.13116 0.81434 0.85475 0.0
H910 H 0.22518 0.84112 0.83543 0.0
C911 C 0.09477 0.77057 0.81138 0.0
C912 C 0.12321 0.80062 0.80406 0.0
C913 C 0.10618 0.77442 0.82192 0.0
C914 C 0.19854 0.83378 0.84068 0.0
H915 H 0.14372 0.80747 0.89398 0.0
H916 H 0.13261 0.78389 0.87568 0.0
H917 H 0.24084 0.85675 0.85401 0.0
H918 H 0.18636 0.85753 0.80189 0.0
H919 H 0.20602 0.86561 0.8204 0.0
H920 H 0.08901 0.79348 0.84152 0.0
C921 C 0.15804 0.81653 0.87759 0.0
C922 C 0.20755 0.84251 0.85134 0.0
C923 C 0.16455 0.82985 0.88805 0.0
C924 C 0.16405 0.8338 0.80741 0.0
C925 C 0.17524 0.83824 0.81801 0.0
C926 C 0.12221 0.8062 0.8441 0.0
C927 C 0.18352 0.84538 0.86965 0.0
C928 C 0.17395 0.8331 0.85847 0.0
C929 C 0.14603 0.80907 0.82546 0.0
C930 C 0.15577 0.81599 0.83689 0.0
H931 H 0.24725 0.93375 0.88472 0.0
H932 H 0.23633 0.9104 0.86649 0.0
H933 H 0.1047 0.80747 0.86003 0.0
H934 H 0.06335 0.74431 0.80894 0.0
H935 H 0.08332 0.75051 0.82731 0.0
C936 C 0.59279 0.66368 0.11352 0.0
C937 C 0.62132 0.68221 0.10508 0.0
C938 C 0.56674 0.6186 0.11434 0.0
C939 C 0.54676 0.51336 0.10292 0.0
H940 H 0.42709 0.47466 0.11045 0.0
C941 C 0.41074 0.34373 0.09218 0.0
C942 C 0.3838 0.31842 0.10038 0.0
C943 C 0.43769 0.38839 0.09339 0.0
C944 C 0.46045 0.48498 0.10843 0.0
H945 H 0.64647 0.66873 0.09109 0.0
H946 H 0.60074 0.58995 0.09238 0.0
H947 H 0.4818 0.55147 0.11198 0.0
H948 H 0.36153 0.32014 0.11599 0.0
H949 H 0.40842 0.39921 0.11805 0.0
H950 H 0.52492 0.44701 0.09902 0.0
C951 C 0.59892 0.60988 0.09853 0.0
C952 C 0.49196 0.52895 0.10936 0.0
C953 C 0.62532 0.65501 0.09779 0.0
C954 C 0.38172 0.3391 0.10953 0.0
C955 C 0.40872 0.38416 0.11072 0.0
C956 C 0.51521 0.46959 0.10189 0.0
C957 C 0.56817 0.59115 0.10663 0.0
C958 C 0.53548 0.54382 0.1065 0.0
C959 C 0.43823 0.40884 0.1028 0.0
C960 C 0.47164 0.45504 0.10448 0.0
H961 H 0.58894 0.68422 0.11917 0.0
H962 H 0.54424 0.60539 0.12081 0.0
H963 H 0.57998 0.52334 0.10084 0.0
H964 H 0.41277 0.32846 0.08504 0.0
H965 H 0.45938 0.40674 0.08707 0.0
C966 C 0.04616 0.38678 0.42497 0.0
C967 C 0.06606 0.38305 0.43407 0.0
C968 C 0.02882 0.41452 0.42474 0.0
C969 C 0.04269 0.51292 0.43807 0.0
H970 H 0.94048 0.49015 0.42222 0.0
C971 C 0.96199 0.62052 0.43945 0.0
C972 C 0.94355 0.62454 0.43014 0.0
C973 C 0.98086 0.59408 0.43981 0.0
C974 C 0.96946 0.49724 0.42657 0.0
H975 H 0.0805 0.40247 0.45027 0.0
H976 H 0.04917 0.44987 0.44999 0.0
H977 H 0.96072 0.43414 0.42349 0.0
H978 H 0.93246 0.60685 0.4138 0.0
H979 H 0.9664 0.56173 0.41432 0.0
H980 H 0.05116 0.57598 0.44119 0.0
C981 C 0.04807 0.43254 0.44293 0.0
C982 C 0.98096 0.46505 0.42732 0.0
C983 C 0.06557 0.40506 0.44313 0.0
C984 C 0.94687 0.60438 0.42105 0.0
C985 C 0.96571 0.57813 0.42139 0.0
C986 C 0.03109 0.54508 0.43734 0.0
C987 C 0.0309 0.43883 0.43363 0.0
C988 C 0.01773 0.47248 0.43307 0.0
C989 C 0.98129 0.57124 0.43087 0.0
C990 C 0.99446 0.53767 0.43155 0.0
H991 H 0.04663 0.37057 0.41784 0.0
H992 H 0.016 0.41871 0.41743 0.0
H993 H 0.07173 0.52008 0.44239 0.0
H994 H 0.95899 0.6352 0.44659 0.0
H995 H 0.99248 0.58932 0.44724 0.0
C996 C 0.34032 0.96776 0.76474 0.0
C997 C 0.31353 0.93727 0.77218 0.0
C998 C 0.38549 0.98654 0.76541 0.0
C999 C 0.46698 0.9615 0.77644 0.0
H1000 H 0.54833 0.07513 0.76543 0.0
C1001 C 0.65687 0.04114 0.77622 0.0
C1002 C 0.67692 0.06272 0.76693 0.0
C1003 C 0.61188 0.02319 0.7775 0.0
C1004 C 0.52592 0.0432 0.76849 0.0
H1005 H 0.31228 0.90429 0.78646 0.0
H1006 H 0.39119 0.93857 0.78796 0.0
H1007 H 0.47215 0.05422 0.76736 0.0
H1008 H 0.66582 0.07956 0.75143 0.0
H1009 H 0.58766 0.04809 0.75362 0.0
H1010 H 0.52132 0.95094 0.77762 0.0
C1011 C 0.37763 0.94721 0.78144 0.0
C1012 C 0.48223 0.03118 0.76958 0.0
C1013 C 0.33251 0.92812 0.78069 0.0
C1014 C 0.65104 0.0632 0.75869 0.0
C1015 C 0.60646 0.04561 0.75998 0.0
C1016 C 0.51088 0.97378 0.77545 0.0
C1017 C 0.40465 0.97531 0.77358 0.0
C1018 C 0.45197 0.98987 0.7734 0.0
C1019 C 0.58666 0.02695 0.76953 0.0
C1020 C 0.54058 0.01442 0.77126 0.0
H1021 H 0.32625 0.97453 0.75799 0.0
H1022 H 0.40508 0.00766 0.75915 0.0
H1023 H 0.44462 0.92913 0.77925 0.0
H1024 H 0.67626 0.04081 0.78271 0.0
H1025 H 0.59732 0.0088 0.78493 0.0
C1026 C 0.65864 0.62025 0.59917 0.0
C1027 C 0.68496 0.6185 0.59128 0.0
C1028 C 0.61348 0.59336 0.5987 0.0
C1029 C 0.53181 0.48867 0.58686 0.0
H1030 H 0.45035 0.51794 0.59928 0.0
C1031 C 0.34223 0.37852 0.58655 0.0
C1032 C 0.32157 0.37813 0.59591 0.0
C1033 C 0.38732 0.40555 0.58552 0.0
C1034 C 0.4728 0.50923 0.59584 0.0
H1035 H 0.6853 0.5897 0.57643 0.0
H1036 H 0.60638 0.54423 0.5753 0.0
H1037 H 0.52639 0.57379 0.59758 0.0
H1038 H 0.33154 0.40271 0.61174 0.0
H1039 H 0.40997 0.44928 0.61001 0.0
H1040 H 0.47766 0.42405 0.58505 0.0
C1041 C 0.62033 0.56526 0.58202 0.0
C1042 C 0.51642 0.54125 0.59487 0.0
C1043 C 0.66543 0.59177 0.58256 0.0
C1044 C 0.34686 0.40249 0.60444 0.0
C1045 C 0.39159 0.42947 0.60342 0.0
C1046 C 0.48799 0.45672 0.58774 0.0
C1047 C 0.59386 0.56441 0.59027 0.0
C1048 C 0.54668 0.5313 0.5905 0.0
C1049 C 0.41205 0.43264 0.59383 0.0
C1050 C 0.45822 0.46653 0.5924 0.0
H1051 H 0.67315 0.64 0.60607 0.0
H1052 H 0.59432 0.5934 0.60526 0.0
H1053 H 0.55421 0.4795 0.58362 0.0
H1054 H 0.32324 0.36044 0.57983 0.0
H1055 H 0.40235 0.40733 0.57805 0.0
C1056 C 0.0713 0.66701 0.91433 0.0
C1057 C 0.06263 0.68603 0.92292 0.0
C1058 C 0.05208 0.62188 0.91357 0.0
C1059 C 0.96854 0.51734 0.92554 0.0
H1060 H 0.04834 0.47809 0.91724 0.0
C1061 C 0.93661 0.34839 0.93631 0.0
C1062 C 0.93714 0.32256 0.92807 0.0
C1063 C 0.95406 0.39296 0.93502 0.0
C1064 C 0.02562 0.48856 0.91948 0.0
H1065 H 0.02613 0.67337 0.93722 0.0
H1066 H 0.99274 0.59452 0.93604 0.0
H1067 H 0.07017 0.5548 0.91563 0.0
H1068 H 0.95895 0.32329 0.91227 0.0
H1069 H 0.99068 0.4022 0.91004 0.0
H1070 H 0.92467 0.45126 0.92973 0.0
C1071 C 0.01357 0.61409 0.92973 0.0
C1072 C 0.03791 0.53247 0.9185 0.0
C1073 C 0.0325 0.65927 0.93042 0.0
C1074 C 0.95857 0.34265 0.91876 0.0
C1075 C 0.97637 0.38762 0.91748 0.0
C1076 C 0.95649 0.47363 0.92661 0.0
C1077 C 0.02434 0.59488 0.92149 0.0
C1078 C 0.00971 0.54755 0.92164 0.0
C1079 C 0.97262 0.4128 0.92546 0.0
C1080 C 0.98513 0.4589 0.92374 0.0
H1081 H 0.09489 0.68722 0.90852 0.0
H1082 H 0.06037 0.60828 0.90699 0.0
H1083 H 0.94563 0.52748 0.92784 0.0
H1084 H 0.92038 0.3336 0.94357 0.0
H1085 H 0.9516 0.41172 0.94138 0.0
C1086 C 0.62754 0.9723 0.26266 0.0
C1087 C 0.62357 0.94139 0.25528 0.0
C1088 C 0.60162 0.99158 0.26187 0.0
C1089 C 0.49569 0.96757 0.25064 0.0
H1090 H 0.52887 0.08139 0.2618 0.0
C1091 C 0.38651 0.04879 0.2515 0.0
C1092 C 0.38781 0.0691 0.26102 0.0
C1093 C 0.41355 0.03097 0.24994 0.0
C1094 C 0.51914 0.04946 0.25868 0.0
H1095 H 0.5918 0.90806 0.24101 0.0
H1096 H 0.54799 0.94322 0.2393 0.0
H1097 H 0.58368 0.05985 0.25981 0.0
H1098 H 0.41527 0.08353 0.2766 0.0
H1099 H 0.46213 0.05256 0.27388 0.0
H1100 H 0.43102 0.95766 0.24949 0.0
C1101 C 0.57007 0.95184 0.24586 0.0
C1102 C 0.55053 0.03705 0.25756 0.0
C1103 C 0.59561 0.93224 0.24672 0.0
C1104 C 0.41398 0.0684 0.26916 0.0
C1105 C 0.44103 0.05102 0.26758 0.0
C1106 C 0.46436 0.98027 0.25165 0.0
C1107 C 0.57142 0.98044 0.25365 0.0
C1108 C 0.5391 0.99559 0.25373 0.0
C1109 C 0.4423 0.03359 0.25785 0.0
C1110 C 0.47564 0.02095 0.2559 0.0
H1111 H 0.64823 0.97906 0.26944 0.0
H1112 H 0.60334 0.01303 0.26809 0.0
H1113 H 0.4854 0.93513 0.24782 0.0
H1114 H 0.36685 0.04924 0.24509 0.0
H1115 H 0.41382 0.01748 0.24237 0.0
C1116 C 0.1647 0.08703 0.07696 0.0
C1117 C 0.18734 0.09065 0.08626 0.0
C1118 C 0.1192 0.06498 0.07684 0.0
C1119 C 0.02436 0.03598 0.09265 0.0
H1120 H 0.96207 0.93718 0.0742 0.0
C1121 C 0.83772 0.9278 0.09516 0.0
C1122 C 0.81429 0.90771 0.08603 0.0
C1123 C 0.88318 0.9498 0.09517 0.0
C1124 C 0.97868 0.96516 0.07927 0.0
H1125 H 0.18018 0.0749 0.10275 0.0
H1126 H 0.10064 0.03776 0.10258 0.0
H1127 H 0.04125 0.9777 0.07401 0.0
H1128 H 0.82004 0.89556 0.06971 0.0
H1129 H 0.89908 0.93567 0.06954 0.0
H1130 H 0.96245 0.02515 0.09765 0.0
C1131 C 0.11818 0.05143 0.09538 0.0
C1132 C 0.02416 0.98816 0.07919 0.0
C1133 C 0.16361 0.07253 0.09546 0.0
C1134 C 0.83724 0.91032 0.0769 0.0
C1135 C 0.88272 0.93318 0.07684 0.0
C1136 C 0.97889 0.01365 0.09257 0.0
C1137 C 0.09556 0.0471 0.08605 0.0
C1138 C 0.04739 0.02355 0.08593 0.0
C1139 C 0.90651 0.95322 0.08598 0.0
C1140 C 0.95523 0.97761 0.08594 0.0
H1141 H 0.18212 0.10045 0.06975 0.0
H1142 H 0.10244 0.06215 0.06956 0.0
H1143 H 0.04161 0.06344 0.09786 0.0
H1144 H 0.82088 0.92602 0.10234 0.0
H1145 H 0.89989 0.9637 0.10245 0.0
C1146 C 0.09454 0.16017 0.4272 0.0
C1147 C 0.1051 0.18356 0.41779 0.0
C1148 C 0.07028 0.11473 0.42713 0.0
C1149 C 0.04361 0.01954 0.41116 0.0
H1150 H 0.93997 0.96052 0.42816 0.0
C1151 C 0.92643 0.83392 0.40791 0.0
C1152 C 0.90472 0.81136 0.41697 0.0
C1153 C 0.95125 0.87937 0.40795 0.0
C1154 C 0.96922 0.97625 0.4235 0.0
H1155 H 0.0993 0.17765 0.40093 0.0
H1156 H 0.05777 0.09828 0.40083 0.0
H1157 H 0.98339 0.0395 0.42861 0.0
H1158 H 0.8931 0.81853 0.43326 0.0
H1159 H 0.93763 0.89716 0.43349 0.0
H1160 H 0.03054 0.9566 0.40625 0.0
C1161 C 0.06791 0.11516 0.40824 0.0
C1162 C 0.99394 0.0216 0.42373 0.0
C1163 C 0.09142 0.16057 0.40831 0.0
C1164 C 0.90899 0.83503 0.42611 0.0
C1165 C 0.93436 0.88029 0.42621 0.0
C1166 C 0.01933 0.97412 0.41105 0.0
C1167 C 0.05692 0.09182 0.41764 0.0
C1168 C 0.03125 0.04368 0.41753 0.0
C1169 C 0.95554 0.90324 0.41711 0.0
C1170 C 0.98167 0.95176 0.4172 0.0
H1171 H 0.10463 0.17698 0.43462 0.0
H1172 H 0.06239 0.09744 0.43448 0.0
H1173 H 0.07249 0.03582 0.40637 0.0
H1174 H 0.92349 0.81653 0.40073 0.0
H1175 H 0.96639 0.89572 0.40074 0.0
C1176 C 0.90778 0.07449 0.74374 0.0
C1177 C 0.9046 0.09404 0.75299 0.0
C1178 C 0.92994 0.05114 0.74365 0.0
C1179 C 0.95998 0.98638 0.75961 0.0
H1180 H 0.05754 0.02154 0.74091 0.0
C1181 C 0.06805 0.90767 0.7621 0.0
C1182 C 0.08747 0.90367 0.75295 0.0
C1183 C 0.04616 0.93126 0.7621 0.0
C1184 C 0.0299 0.01055 0.74605 0.0
H1185 H 0.92131 0.10371 0.76943 0.0
H1186 H 0.95866 0.06146 0.76934 0.0
H1187 H 0.01707 0.06029 0.74069 0.0
H1188 H 0.09853 0.92053 0.73657 0.0
H1189 H 0.05858 0.95967 0.73638 0.0
H1190 H 0.97107 0.93555 0.76472 0.0
C1191 C 0.94454 0.06484 0.76215 0.0
C1192 C 0.00693 0.03308 0.74596 0.0
C1193 C 0.92332 0.08909 0.76219 0.0
C1194 C 0.08429 0.92348 0.74378 0.0
C1195 C 0.06153 0.94623 0.74371 0.0
C1196 C 0.98226 0.96317 0.75955 0.0
C1197 C 0.94839 0.046 0.75286 0.0
C1198 C 0.97199 0.0214 0.75279 0.0
C1199 C 0.04216 0.95063 0.75288 0.0
C1200 C 0.01785 0.97506 0.75283 0.0
H1201 H 0.8939 0.07799 0.73653 0.0
H1202 H 0.93239 0.03677 0.73641 0.0
H1203 H 0.93285 0.97653 0.76489 0.0
H1204 H 0.07028 0.89304 0.76932 0.0
H1205 H 0.0328 0.93459 0.7694 0.0
C1206 C 0.92784 0.83592 0.60045 0.0
C1207 C 0.91084 0.8119 0.60967 0.0
C1208 C 0.94846 0.88131 0.60059 0.0
C1209 C 0.01178 0.97543 0.61689 0.0
H1210 H 0.97426 0.03634 0.59829 0.0
C1211 C 0.08895 0.16249 0.61879 0.0
C1212 C 0.09166 0.18504 0.60957 0.0
C1213 C 0.06616 0.117 0.61897 0.0
C1214 C 0.98588 0.02012 0.60341 0.0
H1215 H 0.90249 0.81661 0.62628 0.0
H1216 H 0.93992 0.89628 0.62658 0.0
H1217 H 0.93635 0.95719 0.59818 0.0
H1218 H 0.07354 0.17766 0.59323 0.0
H1219 H 0.03591 0.09866 0.59335 0.0
H1220 H 0.0625 0.0378 0.62183 0.0
C1221 C 0.93664 0.87976 0.61923 0.0
C1222 C 0.96378 0.97465 0.6034 0.0
C1223 C 0.91507 0.83425 0.61905 0.0
C1224 C 0.0717 0.16117 0.60048 0.0
C1225 C 0.04973 0.1157 0.6006 0.0
C1226 C 0.03452 0.02093 0.61676 0.0
C1227 C 0.9534 0.90368 0.61 0.0
C1228 C 0.97644 0.95189 0.61015 0.0
C1229 C 0.04623 0.0928 0.60986 0.0
C1230 C 0.02192 0.04408 0.61003 0.0
H1231 H 0.92495 0.81961 0.5931 0.0
H1232 H 0.96127 0.89902 0.59338 0.0
H1233 H 0.02246 0.9586 0.6221 0.0
H1234 H 0.1036 0.18001 0.62594 0.0
H1235 H 0.06362 0.10095 0.62632 0.0
C1236 C 0.91312 0.07696 0.9329 0.0
C1237 C 0.90817 0.09559 0.94211 0.0
C1238 C 0.93746 0.05585 0.9329 0.0
C1239 C 0.96934 0.99341 0.94904 0.0
H1240 H 0.06684 0.02946 0.93027 0.0
C1241 C 0.07878 0.91588 0.95112 0.0
C1242 C 0.09853 0.91274 0.94193 0.0
C1243 C 0.05613 0.93873 0.95122 0.0
C1244 C 0.03924 0.01822 0.93544 0.0
H1245 H 0.92436 0.10625 0.95857 0.0
H1246 H 0.96574 0.06793 0.95863 0.0
H1247 H 0.02586 0.06767 0.93013 0.0
H1248 H 0.10916 0.93011 0.92557 0.0
H1249 H 0.06777 0.96777 0.92554 0.0
H1250 H 0.98088 0.94275 0.95405 0.0
C1251 C 0.9513 0.07038 0.9514 0.0
C1252 C 0.01602 0.0405 0.9354 0.0
C1253 C 0.92785 0.09245 0.95134 0.0
C1254 C 0.09458 0.93231 0.9328 0.0
C1255 C 0.07108 0.9543 0.93283 0.0
C1256 C 0.99188 0.97045 0.94892 0.0
C1257 C 0.9564 0.052 0.94217 0.0
C1258 C 0.98102 0.02843 0.94223 0.0
C1259 C 0.05176 0.95823 0.94206 0.0
C1260 C 0.02736 0.98257 0.94214 0.0
H1261 H 0.89839 0.07895 0.92566 0.0
H1262 H 0.94081 0.04178 0.92571 0.0
H1263 H 0.94214 0.98323 0.95431 0.0
H1264 H 0.0817 0.90151 0.95831 0.0
H1265 H 0.04273 0.94163 0.95855 0.0
C1266 C 0.16389 0.077 0.2841 0.0
C1267 C 0.18719 0.09671 0.27494 0.0
C1268 C 0.11843 0.05378 0.28401 0.0
C1269 C 0.02442 0.98945 0.26781 0.0
H1270 H 0.9617 0.02476 0.28641 0.0
C1271 C 0.83755 0.90994 0.26533 0.0
C1272 C 0.81427 0.90608 0.2745 0.0
C1273 C 0.883 0.9337 0.2653 0.0
C1274 C 0.97844 0.01373 0.28129 0.0
H1275 H 0.18121 0.10675 0.25847 0.0
H1276 H 0.10159 0.06467 0.25826 0.0
H1277 H 0.04086 0.06363 0.2867 0.0
H1278 H 0.82025 0.92329 0.29087 0.0
H1279 H 0.8993 0.96269 0.29102 0.0
H1280 H 0.96262 0.93842 0.26268 0.0
C1281 C 0.11866 0.06787 0.26551 0.0
C1282 C 0.0239 0.03635 0.28142 0.0
C1283 C 0.16411 0.092 0.26565 0.0
C1284 C 0.83735 0.92614 0.28366 0.0
C1285 C 0.88282 0.94905 0.2837 0.0
C1286 C 0.97895 0.96616 0.26783 0.0
C1287 C 0.09543 0.04893 0.27471 0.0
C1288 C 0.04727 0.02456 0.27465 0.0
C1289 C 0.90645 0.95337 0.27451 0.0
C1290 C 0.95515 0.97805 0.27454 0.0
H1291 H 0.18078 0.0803 0.29138 0.0
H1292 H 0.10119 0.03933 0.29119 0.0
H1293 H 0.04179 0.97953 0.26257 0.0
H1294 H 0.8206 0.89511 0.25812 0.0
H1295 H 0.8996 0.93693 0.258 0.0
loop_
_geom_bond_atom_site_label_1
_geom_bond_atom_site_label_2
_geom_bond_distance
_geom_bond_site_symmetry_2
_ccdc_geom_bond_type
Co0 N4 2.148 . S
Co0 N10 2.128 . S
Co0 N20 2.194 . S
Co0 O25 2.351 . S
Co0 O26 2.155 . S
Co0 O27 2.096 . S
C1 N4 1.301 . S
C1 N5 1.328 . S
C1 H6 0.930 . S
C2 C3 1.333 . S
C2 N4 1.317 . S
C2 H7 0.930 . S
C3 C2 1.333 . S
C3 N5 1.350 . S
C3 H29 0.931 . S
N4 Co0 2.148 . S
N4 C1 1.301 . S
N4 C2 1.317 . S
N5 C1 1.328 . S
N5 C3 1.350 . S
H6 C1 0.930 . S
H7 C2 0.930 . S
C8 O9 1.224 . S
C8 O27 1.247 . S
O9 C8 1.224 . S
N10 Co0 2.128 . S
N10 C11 1.355 . S
N10 C13 1.311 . S
C11 N10 1.355 . S
C11 C12 1.363 . S
C11 H23 0.929 . S
C12 C11 1.363 . S
C12 N14 1.375 . S
C12 H30 0.931 . S
C13 N10 1.311 . S
C13 N14 1.347 . S
C13 H24 0.929 . S
N14 C12 1.375 . S
N14 C13 1.347 . S
C15 C18 1.365 . S
C15 N20 1.328 . S
C15 H21 0.929 . S
C16 C17 1.362 . S
C16 C19 1.378 . S
C16 H31 0.929 . S
C17 C16 1.362 . S
C17 C18 1.366 . S
C18 C15 1.365 . S
C18 C17 1.366 . S
C18 H32 0.930 . S
C19 C16 1.378 . S
C19 N20 1.315 . S
C19 H22 0.930 . S
N20 Co0 2.194 . S
N20 C15 1.328 . S
N20 C19 1.315 . S
H21 C15 0.929 . S
H22 C19 0.930 . S
H23 C11 0.929 . S
H24 C13 0.929 . S
O25 Co0 2.351 . S
O25 C28 1.244 . S
O26 Co0 2.155 . S
O26 C28 1.240 . S
O27 Co0 2.096 . S
O27 C8 1.247 . S
C28 O25 1.244 . S
C28 O26 1.240 . S
H29 C3 0.931 . S
H30 C12 0.931 . S
H31 C16 0.929 . S
H32 C18 0.930 . S
Co33 N37 2.148 . S
Co33 N43 2.128 . S
Co33 N53 2.194 . S
Co33 O58 2.351 . S
Co33 O59 2.155 . S
Co33 O60 2.096 . S
C34 N37 1.301 . S
C34 N38 1.328 . S
C34 H39 0.930 . S
C35 C36 1.333 . S
C35 N37 1.317 . S
C35 H40 0.930 . S
C36 C35 1.333 . S
C36 N38 1.350 . S
C36 H62 0.931 . S
N37 Co33 2.148 . S
N37 C34 1.301 . S
N37 C35 1.317 . S
N38 C34 1.328 . S
N38 C36 1.350 . S
H39 C34 0.930 . S
H40 C35 0.930 . S
C41 O42 1.224 . S
C41 O60 1.247 . S
O42 C41 1.224 . S
N43 Co33 2.128 . S
N43 C44 1.355 . S
N43 C46 1.311 . S
C44 N43 1.355 . S
C44 C45 1.363 . S
C44 H56 0.929 . S
C45 C44 1.363 . S
C45 N47 1.375 . S
C45 H63 0.931 . S
C46 N43 1.311 . S
C46 N47 1.347 . S
C46 H57 0.929 . S
N47 C45 1.375 . S
N47 C46 1.347 . S
C48 C51 1.365 . S
C48 N53 1.328 . S
C48 H54 0.929 . S
C49 C50 1.362 . S
C49 C52 1.378 . S
C49 H64 0.929 . S
C50 C49 1.362 . S
C50 C51 1.366 . S
C51 C48 1.365 . S
C51 C50 1.366 . S
C51 H65 0.930 . S
C52 C49 1.378 . S
C52 N53 1.315 . S
C52 H55 0.930 . S
N53 Co33 2.194 . S
N53 C48 1.328 . S
N53 C52 1.315 . S
H54 C48 0.929 . S
H55 C52 0.930 . S
H56 C44 0.929 . S
H57 C46 0.929 . S
O58 Co33 2.351 . S
O58 C61 1.244 . S
O59 Co33 2.155 . S
O59 C61 1.240 . S
O60 Co33 2.096 . S
O60 C41 1.247 . S
C61 O58 1.244 . S
C61 O59 1.240 . S
H62 C36 0.931 . S
H63 C45 0.931 . S
H64 C49 0.929 . S
H65 C51 0.930 . S
Co66 N70 2.148 . S
Co66 N76 2.128 . S
Co66 N86 2.194 . S
Co66 O91 2.351 . S
Co66 O92 2.155 . S
Co66 O93 2.096 . S
C67 N70 1.301 . S
C67 N71 1.328 . S
C67 H72 0.930 . S
C68 C69 1.333 . S
C68 N70 1.317 . S
C68 H73 0.930 . S
C69 C68 1.333 . S
C69 N71 1.350 . S
C69 H95 0.931 . S
N70 Co66 2.148 . S
N70 C67 1.301 . S
N70 C68 1.317 . S
N71 C67 1.328 . S
N71 C69 1.350 . S
H72 C67 0.930 . S
H73 C68 0.930 . S
C74 O75 1.224 . S
C74 O93 1.247 . S
O75 C74 1.224 . S
N76 Co66 2.128 . S
N76 C77 1.355 . S
N76 C79 1.311 . S
C77 N76 1.355 . S
C77 C78 1.363 . S
C77 H89 0.929 . S
C78 C77 1.363 . S
C78 N80 1.375 . S
C78 H96 0.931 . S
C79 N76 1.311 . S
C79 N80 1.347 . S
C79 H90 0.929 . S
N80 C78 1.375 . S
N80 C79 1.347 . S
C81 C84 1.365 . S
C81 N86 1.328 . S
C81 H87 0.929 . S
C82 C83 1.362 . S
C82 C85 1.378 . S
C82 H97 0.929 . S
C83 C82 1.362 . S
C83 C84 1.366 . S
C84 C81 1.365 . S
C84 C83 1.366 . S
C84 H98 0.930 . S
C85 C82 1.378 . S
C85 N86 1.315 . S
C85 H88 0.930 . S
N86 Co66 2.194 . S
N86 C81 1.328 . S
N86 C85 1.315 . S
H87 C81 0.929 . S
H88 C85 0.930 . S
H89 C77 0.929 . S
H90 C79 0.929 . S
O91 Co66 2.351 . S
O91 C94 1.244 . S
O92 Co66 2.155 . S
O92 C94 1.240 . S
O93 Co66 2.096 . S
O93 C74 1.247 . S
C94 O91 1.244 . S
C94 O92 1.240 . S
H95 C69 0.931 . S
H96 C78 0.931 . S
H97 C82 0.929 . S
H98 C84 0.930 . S
Co99 N103 2.148 . S
Co99 N109 2.128 . S
Co99 N119 2.194 . S
Co99 O124 2.351 . S
Co99 O125 2.155 . S
Co99 O126 2.096 . S
C100 N103 1.301 . S
C100 N104 1.328 . S
C100 H105 0.930 . S
C101 C102 1.333 . S
C101 N103 1.317 . S
C101 H106 0.930 . S
C102 C101 1.333 . S
C102 N104 1.350 . S
C102 H128 0.931 . S
N103 Co99 2.148 . S
N103 C100 1.301 . S
N103 C101 1.317 . S
N104 C100 1.328 . S
N104 C102 1.350 . S
H105 C100 0.930 . S
H106 C101 0.930 . S
C107 O108 1.224 . S
C107 O126 1.247 . S
O108 C107 1.224 . S
N109 Co99 2.128 . S
N109 C110 1.355 . S
N109 C112 1.311 . S
C110 N109 1.355 . S
C110 C111 1.363 . S
C110 H122 0.929 . S
C111 C110 1.363 . S
C111 N113 1.375 . S
C111 H129 0.931 . S
C112 N109 1.311 . S
C112 N113 1.347 . S
C112 H123 0.929 . S
N113 C111 1.375 . S
N113 C112 1.347 . S
C114 C117 1.365 . S
C114 N119 1.328 . S
C114 H120 0.929 . S
C115 C116 1.362 . S
C115 C118 1.378 . S
C115 H130 0.929 . S
C116 C115 1.362 . S
C116 C117 1.366 . S
C117 C114 1.365 . S
C117 C116 1.366 . S
C117 H131 0.930 . S
C118 C115 1.378 . S
C118 N119 1.315 . S
C118 H121 0.930 . S
N119 Co99 2.194 . S
N119 C114 1.328 . S
N119 C118 1.315 . S
H120 C114 0.929 . S
H121 C118 0.930 . S
H122 C110 0.929 . S
H123 C112 0.929 . S
O124 Co99 2.351 . S
O124 C127 1.244 . S
O125 Co99 2.155 . S
O125 C127 1.240 . S
O126 Co99 2.096 . S
O126 C107 1.247 . S
C127 O124 1.244 . S
C127 O125 1.240 . S
H128 C102 0.931 . S
H129 C111 0.931 . S
H130 C115 0.929 . S
H131 C117 0.930 . S
Co132 N136 2.148 . S
Co132 N142 2.128 . S
Co132 N152 2.194 . S
Co132 O157 2.351 . S
Co132 O158 2.155 . S
Co132 O159 2.096 . S
C133 N136 1.301 . S
C133 N137 1.328 . S
C133 H138 0.930 . S
C134 C135 1.333 . S
C134 N136 1.317 . S
C134 H139 0.930 . S
C135 C134 1.333 . S
C135 N137 1.350 . S
C135 H161 0.931 . S
N136 Co132 2.148 . S
N136 C133 1.301 . S
N136 C134 1.317 . S
N137 C133 1.328 . S
N137 C135 1.350 . S
H138 C133 0.930 . S
H139 C134 0.930 . S
C140 O141 1.224 . S
C140 O159 1.247 . S
O141 C140 1.224 . S
N142 Co132 2.128 . S
N142 C143 1.355 . S
N142 C145 1.311 . S
C143 N142 1.355 . S
C143 C144 1.363 . S
C143 H155 0.929 . S
C144 C143 1.363 . S
C144 N146 1.375 . S
C144 H162 0.931 . S
C145 N142 1.311 . S
C145 N146 1.347 . S
C145 H156 0.929 . S
N146 C144 1.375 . S
N146 C145 1.347 . S
C147 C150 1.365 . S
C147 N152 1.328 . S
C147 H153 0.929 . S
C148 C149 1.362 . S
C148 C151 1.378 . S
C148 H163 0.929 . S
C149 C148 1.362 . S
C149 C150 1.366 . S
C150 C147 1.365 . S
C150 C149 1.366 . S
C150 H164 0.930 . S
C151 C148 1.378 . S
C151 N152 1.315 . S
C151 H154 0.930 . S
N152 Co132 2.194 . S
N152 C147 1.328 . S
N152 C151 1.315 . S
H153 C147 0.929 . S
H154 C151 0.930 . S
H155 C143 0.929 . S
H156 C145 0.929 . S
O157 Co132 2.351 . S
O157 C160 1.244 . S
O158 Co132 2.155 . S
O158 C160 1.240 . S
O159 Co132 2.096 . S
O159 C140 1.247 . S
C160 O157 1.244 . S
C160 O158 1.240 . S
H161 C135 0.931 . S
H162 C144 0.931 . S
H163 C148 0.929 . S
H164 C150 0.930 . S
Co165 N169 2.148 . S
Co165 N175 2.128 . S
Co165 N185 2.194 . S
Co165 O190 2.351 . S
Co165 O191 2.155 . S
Co165 O192 2.096 . S
C166 N169 1.301 . S
C166 N170 1.328 . S
C166 H171 0.930 . S
C167 C168 1.333 . S
C167 N169 1.317 . S
C167 H172 0.930 . S
C168 C167 1.333 . S
C168 N170 1.350 . S
C168 H194 0.931 . S
N169 Co165 2.148 . S
N169 C166 1.301 . S
N169 C167 1.317 . S
N170 C166 1.328 . S
N170 C168 1.350 . S
H171 C166 0.930 . S
H172 C167 0.930 . S
C173 O174 1.224 . S
C173 O192 1.247 . S
O174 C173 1.224 . S
N175 Co165 2.128 . S
N175 C176 1.355 . S
N175 C178 1.311 . S
C176 N175 1.355 . S
C176 C177 1.363 . S
C176 H188 0.929 . S
C177 C176 1.363 . S
C177 N179 1.375 . S
C177 H195 0.931 . S
C178 N175 1.311 . S
C178 N179 1.347 . S
C178 H189 0.929 . S
N179 C177 1.375 . S
N179 C178 1.347 . S
C180 C183 1.365 . S
C180 N185 1.328 . S
C180 H186 0.929 . S
C181 C182 1.362 . S
C181 C184 1.378 . S
C181 H196 0.929 . S
C182 C181 1.362 . S
C182 C183 1.366 . S
C183 C180 1.365 . S
C183 C182 1.366 . S
C183 H197 0.930 . S
C184 C181 1.378 . S
C184 N185 1.315 . S
C184 H187 0.930 . S
N185 Co165 2.194 . S
N185 C180 1.328 . S
N185 C184 1.315 . S
H186 C180 0.929 . S
H187 C184 0.930 . S
H188 C176 0.929 . S
H189 C178 0.929 . S
O190 Co165 2.351 . S
O190 C193 1.244 . S
O191 Co165 2.155 . S
O191 C193 1.240 . S
O192 Co165 2.096 . S
O192 C173 1.247 . S
C193 O190 1.244 . S
C193 O191 1.240 . S
H194 C168 0.931 . S
H195 C177 0.931 . S
H196 C181 0.929 . S
H197 C183 0.930 . S
Co198 N202 2.148 . S
Co198 N208 2.128 . S
Co198 N218 2.194 . S
Co198 O223 2.351 . S
Co198 O224 2.155 . S
Co198 O225 2.096 . S
C199 N202 1.301 . S
C199 N203 1.328 . S
C199 H204 0.930 . S
C200 C201 1.333 . S
C200 N202 1.317 . S
C200 H205 0.930 . S
C201 C200 1.333 . S
C201 N203 1.350 . S
C201 H227 0.931 . S
N202 Co198 2.148 . S
N202 C199 1.301 . S
N202 C200 1.317 . S
N203 C199 1.328 . S
N203 C201 1.350 . S
H204 C199 0.930 . S
H205 C200 0.930 . S
C206 O207 1.224 . S
C206 O225 1.247 . S
O207 C206 1.224 . S
N208 Co198 2.128 . S
N208 C209 1.355 . S
N208 C211 1.311 . S
C209 N208 1.355 . S
C209 C210 1.363 . S
C209 H221 0.929 . S
C210 C209 1.363 . S
C210 N212 1.375 . S
C210 H228 0.931 . S
C211 N208 1.311 . S
C211 N212 1.347 . S
C211 H222 0.929 . S
N212 C210 1.375 . S
N212 C211 1.347 . S
C213 C216 1.365 . S
C213 N218 1.328 . S
C213 H219 0.929 . S
C214 C215 1.362 . S
C214 C217 1.378 . S
C214 H229 0.929 . S
C215 C214 1.362 . S
C215 C216 1.366 . S
C216 C213 1.365 . S
C216 C215 1.366 . S
C216 H230 0.930 . S
C217 C214 1.378 . S
C217 N218 1.315 . S
C217 H220 0.930 . S
N218 Co198 2.194 . S
N218 C213 1.328 . S
N218 C217 1.315 . S
H219 C213 0.929 . S
H220 C217 0.930 . S
H221 C209 0.929 . S
H222 C211 0.929 . S
O223 Co198 2.351 . S
O223 C226 1.244 . S
O224 Co198 2.155 . S
O224 C226 1.240 . S
O225 Co198 2.096 . S
O225 C206 1.247 . S
C226 O223 1.244 . S
C226 O224 1.240 . S
H227 C201 0.931 . S
H228 C210 0.931 . S
H229 C214 0.929 . S
H230 C216 0.930 . S
Co231 N235 2.148 . S
Co231 N241 2.128 . S
Co231 N251 2.194 . S
Co231 O256 2.351 . S
Co231 O257 2.155 . S
Co231 O258 2.096 . S
C232 N235 1.301 . S
C232 N236 1.328 . S
C232 H237 0.930 . S
C233 C234 1.333 . S
C233 N235 1.317 . S
C233 H238 0.930 . S
C234 C233 1.333 . S
C234 N236 1.350 . S
C234 H260 0.931 . S
N235 Co231 2.148 . S
N235 C232 1.301 . S
N235 C233 1.317 . S
N236 C232 1.328 . S
N236 C234 1.350 . S
H237 C232 0.930 . S
H238 C233 0.930 . S
C239 O240 1.224 . S
C239 O258 1.247 . S
O240 C239 1.224 . S
N241 Co231 2.128 . S
N241 C242 1.355 . S
N241 C244 1.311 . S
C242 N241 1.355 . S
C242 C243 1.363 . S
C242 H254 0.929 . S
C243 C242 1.363 . S
C243 N245 1.375 . S
C243 H261 0.931 . S
C244 N241 1.311 . S
C244 N245 1.347 . S
C244 H255 0.929 . S
N245 C243 1.375 . S
N245 C244 1.347 . S
C246 C249 1.365 . S
C246 N251 1.328 . S
C246 H252 0.929 . S
C247 C248 1.362 . S
C247 C250 1.378 . S
C247 H262 0.929 . S
C248 C247 1.362 . S
C248 C249 1.366 . S
C249 C246 1.365 . S
C249 C248 1.366 . S
C249 H263 0.930 . S
C250 C247 1.378 . S
C250 N251 1.315 . S
C250 H253 0.930 . S
N251 Co231 2.194 . S
N251 C246 1.328 . S
N251 C250 1.315 . S
H252 C246 0.929 . S
H253 C250 0.930 . S
H254 C242 0.929 . S
H255 C244 0.929 . S
O256 Co231 2.351 . S
O256 C259 1.244 . S
O257 Co231 2.155 . S
O257 C259 1.240 . S
O258 Co231 2.096 . S
O258 C239 1.247 . S
C259 O256 1.244 . S
C259 O257 1.240 . S
H260 C234 0.931 . S
H261 C243 0.931 . S
H262 C247 0.929 . S
H263 C249 0.930 . S
Co264 N268 2.148 . S
Co264 N274 2.128 . S
Co264 N284 2.194 . S
Co264 O289 2.351 . S
Co264 O290 2.155 . S
Co264 O291 2.096 . S
C265 N268 1.301 . S
C265 N269 1.328 . S
C265 H270 0.930 . S
C266 C267 1.333 . S
C266 N268 1.317 . S
C266 H271 0.930 . S
C267 C266 1.333 . S
C267 N269 1.350 . S
C267 H293 0.931 . S
N268 Co264 2.148 . S
N268 C265 1.301 . S
N268 C266 1.317 . S
N269 C265 1.328 . S
N269 C267 1.350 . S
H270 C265 0.930 . S
H271 C266 0.930 . S
C272 O273 1.224 . S
C272 O291 1.247 . S
O273 C272 1.224 . S
N274 Co264 2.128 . S
N274 C275 1.355 . S
N274 C277 1.311 . S
C275 N274 1.355 . S
C275 C276 1.363 . S
C275 H287 0.929 . S
C276 C275 1.363 . S
C276 N278 1.375 . S
C276 H294 0.931 . S
C277 N274 1.311 . S
C277 N278 1.347 . S
C277 H288 0.929 . S
N278 C276 1.375 . S
N278 C277 1.347 . S
C279 C282 1.365 . S
C279 N284 1.328 . S
C279 H285 0.929 . S
C280 C281 1.362 . S
C280 C283 1.378 . S
C280 H295 0.929 . S
C281 C280 1.362 . S
C281 C282 1.366 . S
C282 C279 1.365 . S
C282 C281 1.366 . S
C282 H296 0.930 . S
C283 C280 1.378 . S
C283 N284 1.315 . S
C283 H286 0.930 . S
N284 Co264 2.194 . S
N284 C279 1.328 . S
N284 C283 1.315 . S
H285 C279 0.929 . S
H286 C283 0.930 . S
H287 C275 0.929 . S
H288 C277 0.929 . S
O289 Co264 2.351 . S
O289 C292 1.244 . S
O290 Co264 2.155 . S
O290 C292 1.240 . S
O291 Co264 2.096 . S
O291 C272 1.247 . S
C292 O289 1.244 . S
C292 O290 1.240 . S
H293 C267 0.931 . S
H294 C276 0.931 . S
H295 C280 0.929 . S
H296 C282 0.930 . S
Co297 N301 2.148 . S
Co297 N307 2.128 . S
Co297 N317 2.194 . S
Co297 O322 2.351 . S
Co297 O323 2.155 . S
Co297 O324 2.096 . S
C298 N301 1.301 . S
C298 N302 1.328 . S
C298 H303 0.930 . S
C299 C300 1.333 . S
C299 N301 1.317 . S
C299 H304 0.930 . S
C300 C299 1.333 . S
C300 N302 1.350 . S
C300 H326 0.931 . S
N301 Co297 2.148 . S
N301 C298 1.301 . S
N301 C299 1.317 . S
N302 C298 1.328 . S
N302 C300 1.350 . S
H303 C298 0.930 . S
H304 C299 0.930 . S
C305 O306 1.224 . S
C305 O324 1.247 . S
O306 C305 1.224 . S
N307 Co297 2.128 . S
N307 C308 1.355 . S
N307 C310 1.311 . S
C308 N307 1.355 . S
C308 C309 1.363 . S
C308 H320 0.929 . S
C309 C308 1.363 . S
C309 N311 1.375 . S
C309 H327 0.931 . S
C310 N307 1.311 . S
C310 N311 1.347 . S
C310 H321 0.929 . S
N311 C309 1.375 . S
N311 C310 1.347 . S
C312 C315 1.365 . S
C312 N317 1.328 . S
C312 H318 0.929 . S
C313 C314 1.362 . S
C313 C316 1.378 . S
C313 H328 0.929 . S
C314 C313 1.362 . S
C314 C315 1.366 . S
C315 C312 1.365 . S
C315 C314 1.366 . S
C315 H329 0.930 . S
C316 C313 1.378 . S
C316 N317 1.315 . S
C316 H319 0.930 . S
N317 Co297 2.194 . S
N317 C312 1.328 . S
N317 C316 1.315 . S
H318 C312 0.929 . S
H319 C316 0.930 . S
H320 C308 0.929 . S
H321 C310 0.929 . S
O322 Co297 2.351 . S
O322 C325 1.244 . S
O323 Co297 2.155 . S
O323 C325 1.240 . S
O324 Co297 2.096 . S
O324 C305 1.247 . S
C325 O322 1.244 . S
C325 O323 1.240 . S
H326 C300 0.931 . S
H327 C309 0.931 . S
H328 C313 0.929 . S
H329 C315 0.930 . S
Co330 N334 2.148 . S
Co330 N340 2.128 . S
Co330 N350 2.194 . S
Co330 O355 2.351 . S
Co330 O356 2.155 . S
Co330 O357 2.096 . S
C331 N334 1.301 . S
C331 N335 1.328 . S
C331 H336 0.930 . S
C332 C333 1.333 . S
C332 N334 1.317 . S
C332 H337 0.930 . S
C333 C332 1.333 . S
C333 N335 1.350 . S
C333 H359 0.931 . S
N334 Co330 2.148 . S
N334 C331 1.301 . S
N334 C332 1.317 . S
N335 C331 1.328 . S
N335 C333 1.350 . S
H336 C331 0.930 . S
H337 C332 0.930 . S
C338 O339 1.224 . S
C338 O357 1.247 . S
O339 C338 1.224 . S
N340 Co330 2.128 . S
N340 C341 1.355 . S
N340 C343 1.311 . S
C341 N340 1.355 . S
C341 C342 1.363 . S
C341 H353 0.929 . S
C342 C341 1.363 . S
C342 N344 1.375 . S
C342 H360 0.931 . S
C343 N340 1.311 . S
C343 N344 1.347 . S
C343 H354 0.929 . S
N344 C342 1.375 . S
N344 C343 1.347 . S
C345 C348 1.365 . S
C345 N350 1.328 . S
C345 H351 0.929 . S
C346 C347 1.362 . S
C346 C349 1.378 . S
C346 H361 0.929 . S
C347 C346 1.362 . S
C347 C348 1.366 . S
C348 C345 1.365 . S
C348 C347 1.366 . S
C348 H362 0.930 . S
C349 C346 1.378 . S
C349 N350 1.315 . S
C349 H352 0.930 . S
N350 Co330 2.194 . S
N350 C345 1.328 . S
N350 C349 1.315 . S
H351 C345 0.929 . S
H352 C349 0.930 . S
H353 C341 0.929 . S
H354 C343 0.929 . S
O355 Co330 2.351 . S
O355 C358 1.244 . S
O356 Co330 2.155 . S
O356 C358 1.240 . S
O357 Co330 2.096 . S
O357 C338 1.247 . S
C358 O355 1.244 . S
C358 O356 1.240 . S
H359 C333 0.931 . S
H360 C342 0.931 . S
H361 C346 0.929 . S
H362 C348 0.930 . S
Co363 N367 2.148 . S
Co363 N373 2.128 . S
Co363 N383 2.194 . S
Co363 O388 2.351 . S
Co363 O389 2.155 . S
Co363 O390 2.096 . S
C364 N367 1.301 . S
C364 N368 1.328 . S
C364 H369 0.930 . S
C365 C366 1.333 . S
C365 N367 1.317 . S
C365 H370 0.930 . S
C366 C365 1.333 . S
C366 N368 1.350 . S
C366 H392 0.931 . S
N367 Co363 2.148 . S
N367 C364 1.301 . S
N367 C365 1.317 . S
N368 C364 1.328 . S
N368 C366 1.350 . S
H369 C364 0.930 . S
H370 C365 0.930 . S
C371 O372 1.224 . S
C371 O390 1.247 . S
O372 C371 1.224 . S
N373 Co363 2.128 . S
N373 C374 1.355 . S
N373 C376 1.311 . S
C374 N373 1.355 . S
C374 C375 1.363 . S
C374 H386 0.929 . S
C375 C374 1.363 . S
C375 N377 1.375 . S
C375 H393 0.931 . S
C376 N373 1.311 . S
C376 N377 1.347 . S
C376 H387 0.929 . S
N377 C375 1.375 . S
N377 C376 1.347 . S
C378 C381 1.365 . S
C378 N383 1.328 . S
C378 H384 0.929 . S
C379 C380 1.362 . S
C379 C382 1.378 . S
C379 H394 0.929 . S
C380 C379 1.362 . S
C380 C381 1.366 . S
C381 C378 1.365 . S
C381 C380 1.366 . S
C381 H395 0.930 . S
C382 C379 1.378 . S
C382 N383 1.315 . S
C382 H385 0.930 . S
N383 Co363 2.194 . S
N383 C378 1.328 . S
N383 C382 1.315 . S
H384 C378 0.929 . S
H385 C382 0.930 . S
H386 C374 0.929 . S
H387 C376 0.929 . S
O388 Co363 2.351 . S
O388 C391 1.244 . S
O389 Co363 2.155 . S
O389 C391 1.240 . S
O390 Co363 2.096 . S
O390 C371 1.247 . S
C391 O388 1.244 . S
C391 O389 1.240 . S
H392 C366 0.931 . S
H393 C375 0.931 . S
H394 C379 0.929 . S
H395 C381 0.930 . S
C396 C397 1.349 . S
C396 C398 1.327 . S
C396 H421 0.950 . S
C397 C396 1.349 . S
C397 C413 1.349 . S
C398 C396 1.327 . S
C398 C417 1.429 . S
C398 H422 0.950 1_545 S
C399 C416 1.476 1_554 S
C399 C418 1.455 . S
C399 H423 0.969 . S
H400 C404 0.969 . S
C401 C402 1.349 . S
C401 C403 1.327 . S
C401 H424 0.950 . S
C402 C401 1.349 . S
C402 C414 1.349 . S
C403 C401 1.327 . S
C403 C419 1.429 . S
C403 H425 0.948 1_565 S
C404 H400 0.969 . S
C404 C412 1.475 1_556 S
C404 C420 1.455 . S
H405 C413 0.950 . S
H406 C411 0.950 . S
H407 C412 0.949 . S
H408 C414 0.950 . S
H409 C415 0.950 . S
H410 C416 0.949 . S
C411 H406 0.950 . S
C411 C413 1.327 . S
C411 C417 1.429 . S
C412 C404 1.475 1_554 S
C412 H407 0.949 . S
C412 C418 1.368 1_565 S
C413 C397 1.349 . S
C413 H405 0.950 . S
C413 C411 1.327 . S
C414 C402 1.349 . S
C414 H408 0.950 . S
C414 C415 1.327 . S
C415 H409 0.950 . S
C415 C414 1.327 . S
C415 C419 1.429 . S
C416 C399 1.476 1_556 S
C416 H410 0.949 . S
C416 C420 1.368 1_545 S
C417 C398 1.429 . S
C417 C411 1.429 . S
C417 C418 1.523 . S
C418 C399 1.455 . S
C418 C412 1.368 1_545 S
C418 C417 1.523 . S
C419 C403 1.429 . S
C419 C415 1.429 . S
C419 C420 1.523 . S
C420 C404 1.455 . S
C420 C416 1.368 1_565 S
C420 C419 1.523 . S
H421 C396 0.950 . S
H422 C398 0.950 1_565 S
H423 C399 0.969 . S
H424 C401 0.950 . S
H425 C403 0.948 1_545 S
C426 C427 1.349 . S
C426 C428 1.327 . S
C426 H451 0.950 . S
C427 C426 1.349 . S
C427 C443 1.349 . S
C428 C426 1.327 . S
C428 C447 1.429 . S
C428 H452 0.950 . S
C429 C446 1.574 . S
C429 C448 1.368 . S
C429 H453 0.949 . S
H430 C434 0.949 . S
C431 C432 1.349 . S
C431 C433 1.327 . S
C431 H454 0.950 . S
C432 C431 1.349 . S
C432 C444 1.349 . S
C433 C431 1.327 . S
C433 C449 1.429 . S
C433 H455 0.950 . S
C434 H430 0.949 . S
C434 C442 1.574 . S
C434 C450 1.368 . S
H435 C443 0.950 . S
H436 C441 0.950 . S
H437 C442 0.949 . S
H438 C444 0.950 . S
H439 C445 0.950 . S
H440 C446 0.949 . S
C441 H436 0.950 . S
C441 C443 1.327 . S
C441 C447 1.429 . S
C442 C434 1.574 . S
C442 H437 0.949 . S
C442 C448 1.368 . S
C443 C427 1.349 . S
C443 H435 0.950 . S
C443 C441 1.327 . S
C444 C432 1.349 . S
C444 H438 0.950 . S
C444 C445 1.327 . S
C445 H439 0.950 . S
C445 C444 1.327 . S
C445 C449 1.429 . S
C446 C429 1.574 . S
C446 H440 0.949 . S
C446 C450 1.368 . S
C447 C428 1.429 . S
C447 C441 1.429 . S
C447 C448 1.523 . S
C448 C429 1.368 . S
C448 C442 1.368 . S
C448 C447 1.523 . S
C449 C433 1.429 . S
C449 C445 1.429 . S
C449 C450 1.523 . S
C450 C434 1.368 . S
C450 C446 1.368 . S
C450 C449 1.523 . S
H451 C426 0.950 . S
H452 C428 0.950 . S
H453 C429 0.949 . S
H454 C431 0.950 . S
H455 C433 0.950 . S
C456 C457 1.349 . S
C456 C458 1.327 . S
C456 H481 0.950 . S
C457 C456 1.349 . S
C457 C473 1.349 . S
C458 C456 1.327 . S
C458 C477 1.429 . S
C458 H482 0.950 . S
C459 C476 1.574 . S
C459 C478 1.368 1_455 S
C459 H483 0.949 . S
H460 C464 0.949 . S
C461 C462 1.349 . S
C461 C463 1.327 . S
C461 H484 0.950 . S
C462 C461 1.349 . S
C462 C474 1.349 . S
C463 C461 1.327 . S
C463 C479 1.429 . S
C463 H485 0.950 . S
C464 H460 0.949 . S
C464 C472 1.574 . S
C464 C480 1.368 1_655 S
H465 C473 0.950 . S
H466 C471 0.950 1_455 S
H467 C472 0.949 . S
H468 C474 0.950 . S
H469 C475 0.950 1_655 S
H470 C476 0.949 . S
C471 H466 0.950 1_655 S
C471 C473 1.327 . S
C471 C477 1.429 . S
C472 C464 1.574 . S
C472 H467 0.949 . S
C472 C478 1.368 . S
C473 C457 1.349 . S
C473 H465 0.950 . S
C473 C471 1.327 . S
C474 C462 1.349 . S
C474 H468 0.950 . S
C474 C475 1.327 . S
C475 H469 0.950 1_455 S
C475 C474 1.327 . S
C475 C479 1.429 . S
C476 C459 1.574 . S
C476 H470 0.949 . S
C476 C480 1.368 . S
C477 C458 1.429 . S
C477 C471 1.429 . S
C477 C478 1.523 . S
C478 C459 1.368 1_655 S
C478 C472 1.368 . S
C478 C477 1.523 . S
C479 C463 1.429 . S
C479 C475 1.429 . S
C479 C480 1.523 . S
C480 C464 1.368 1_455 S
C480 C476 1.368 . S
C480 C479 1.523 . S
H481 C456 0.950 . S
H482 C458 0.950 . S
H483 C459 0.949 . S
H484 C461 0.950 . S
H485 C463 0.950 . S
C486 C487 1.349 . S
C486 C488 1.327 . S
C486 H511 0.950 . S
C487 C486 1.349 . S
C487 C503 1.349 . S
C488 C486 1.327 . S
C488 C507 1.429 . S
C488 H512 0.950 1_545 S
C489 C506 1.496 1_556 S
C489 C508 1.438 . S
C489 H513 0.962 . S
H490 C494 0.962 . S
C491 C492 1.349 . S
C491 C493 1.327 . S
C491 H514 0.950 . S
C492 C491 1.349 . S
C492 C504 1.349 . S
C493 C491 1.327 . S
C493 C509 1.429 . S
C493 H515 0.950 1_565 S
C494 H490 0.962 . S
C494 C502 1.496 1_554 S
C494 C510 1.438 . S
H495 C503 0.950 . S
H496 C501 0.950 . S
H497 C502 0.949 . S
H498 C504 0.950 . S
H499 C505 0.950 . S
H500 C506 0.949 . S
C501 H496 0.950 . S
C501 C503 1.327 . S
C501 C507 1.429 . S
C502 C494 1.496 1_556 S
C502 H497 0.949 . S
C502 C508 1.368 1_565 S
C503 C487 1.349 . S
C503 H495 0.950 . S
C503 C501 1.327 . S
C504 C492 1.349 . S
C504 H498 0.950 . S
C504 C505 1.327 . S
C505 H499 0.950 . S
C505 C504 1.327 . S
C505 C509 1.429 . S
C506 C489 1.496 1_554 S
C506 H500 0.949 . S
C506 C510 1.368 1_545 S
C507 C488 1.429 . S
C507 C501 1.429 . S
C507 C508 1.523 . S
C508 C489 1.438 . S
C508 C502 1.368 1_545 S
C508 C507 1.523 . S
C509 C493 1.429 . S
C509 C505 1.429 . S
C509 C510 1.523 . S
C510 C494 1.438 . S
C510 C506 1.368 1_565 S
C510 C509 1.523 . S
H511 C486 0.950 . S
H512 C488 0.950 1_565 S
H513 C489 0.962 . S
H514 C491 0.950 . S
H515 C493 0.950 1_545 S
C516 C517 1.349 . S
C516 C518 1.327 . S
C516 H541 0.950 . S
C517 C516 1.349 . S
C517 C533 1.349 . S
C518 C516 1.327 . S
C518 C537 1.429 . S
C518 H542 0.950 . S
C519 C536 1.574 . S
C519 C538 1.368 . S
C519 H543 0.949 . S
H520 C524 0.949 . S
C521 C522 1.349 . S
C521 C523 1.327 . S
C521 H544 0.950 . S
C522 C521 1.349 . S
C522 C534 1.349 . S
C523 C521 1.327 . S
C523 C539 1.429 . S
C523 H545 0.950 . S
C524 H520 0.949 . S
C524 C532 1.574 . S
C524 C540 1.368 . S
H525 C533 0.950 . S
H526 C531 0.950 . S
H527 C532 0.949 . S
H528 C534 0.950 . S
H529 C535 0.950 . S
H530 C536 0.949 . S
C531 H526 0.950 . S
C531 C533 1.327 . S
C531 C537 1.429 . S
C532 C524 1.574 . S
C532 H527 0.949 . S
C532 C538 1.368 . S
C533 C517 1.349 . S
C533 H525 0.950 . S
C533 C531 1.327 . S
C534 C522 1.349 . S
C534 H528 0.950 . S
C534 C535 1.327 . S
C535 H529 0.950 . S
C535 C534 1.327 . S
C535 C539 1.429 . S
C536 C519 1.574 . S
C536 H530 0.949 . S
C536 C540 1.368 . S
C537 C518 1.429 . S
C537 C531 1.429 . S
C537 C538 1.523 . S
C538 C519 1.368 . S
C538 C532 1.368 . S
C538 C537 1.523 . S
C539 C523 1.429 . S
C539 C535 1.429 . S
C539 C540 1.523 . S
C540 C524 1.368 . S
C540 C536 1.368 . S
C540 C539 1.523 . S
H541 C516 0.950 . S
H542 C518 0.950 . S
H543 C519 0.949 . S
H544 C521 0.950 . S
H545 C523 0.950 . S
C546 C547 1.349 . S
C546 C548 1.327 . S
C546 H571 0.950 . S
C547 C546 1.349 . S
C547 C563 1.349 . S
C548 C546 1.327 . S
C548 C567 1.429 . S
C548 H572 0.950 1_455 S
C549 C566 1.574 . S
C549 C568 1.368 . S
C549 H573 0.949 . S
H550 C554 0.949 . S
C551 C552 1.349 . S
C551 C553 1.327 . S
C551 H574 0.950 . S
C552 C551 1.349 . S
C552 C564 1.349 . S
C553 C551 1.327 . S
C553 C569 1.429 . S
C553 H575 0.950 1_655 S
C554 H550 0.949 . S
C554 C562 1.574 . S
C554 C570 1.368 . S
H555 C563 0.950 . S
H556 C561 0.950 . S
H557 C562 0.949 . S
H558 C564 0.950 . S
H559 C565 0.950 . S
H560 C566 0.949 . S
C561 H556 0.950 . S
C561 C563 1.327 . S
C561 C567 1.429 . S
C562 C554 1.574 . S
C562 H557 0.949 . S
C562 C568 1.368 1_655 S
C563 C547 1.349 . S
C563 H555 0.950 . S
C563 C561 1.327 . S
C564 C552 1.349 . S
C564 H558 0.950 . S
C564 C565 1.327 . S
C565 H559 0.950 . S
C565 C564 1.327 . S
C565 C569 1.429 . S
C566 C549 1.574 . S
C566 H560 0.949 . S
C566 C570 1.368 1_455 S
C567 C548 1.429 . S
C567 C561 1.429 . S
C567 C568 1.523 . S
C568 C549 1.368 . S
C568 C562 1.368 1_455 S
C568 C567 1.523 . S
C569 C553 1.429 . S
C569 C565 1.429 . S
C569 C570 1.523 . S
C570 C554 1.368 . S
C570 C566 1.368 1_655 S
C570 C569 1.523 . S
H571 C546 0.950 . S
H572 C548 0.950 1_655 S
H573 C549 0.949 . S
H574 C551 0.950 . S
H575 C553 0.950 1_455 S
C576 C577 1.349 . S
C576 C578 1.327 . S
C576 H601 0.950 . S
C577 C576 1.349 . S
C577 C593 1.349 . S
C578 C576 1.327 . S
C578 C597 1.429 . S
C578 H602 0.950 . S
C579 C596 1.574 . S
C579 C598 1.368 . S
C579 H603 0.949 . S
H580 C584 0.949 . S
C581 C582 1.349 . S
C581 C583 1.327 . S
C581 H604 0.950 . S
C582 C581 1.349 . S
C582 C594 1.349 . S
C583 C581 1.327 . S
C583 C599 1.429 . S
C583 H605 0.950 . S
C584 H580 0.949 . S
C584 C592 1.574 . S
C584 C600 1.368 . S
H585 C593 0.950 . S
H586 C591 0.950 . S
H587 C592 0.949 . S
H588 C594 0.950 . S
H589 C595 0.950 . S
H590 C596 0.949 . S
C591 H586 0.950 . S
C591 C593 1.327 . S
C591 C597 1.429 . S
C592 C584 1.574 . S
C592 H587 0.949 . S
C592 C598 1.368 1_545 S
C593 C577 1.349 . S
C593 H585 0.950 . S
C593 C591 1.327 . S
C594 C582 1.349 . S
C594 H588 0.950 . S
C594 C595 1.327 . S
C595 H589 0.950 . S
C595 C594 1.327 . S
C595 C599 1.429 . S
C596 C579 1.574 . S
C596 H590 0.949 . S
C596 C600 1.368 1_565 S
C597 C578 1.429 . S
C597 C591 1.429 . S
C597 C598 1.523 . S
C598 C579 1.368 . S
C598 C592 1.368 1_565 S
C598 C597 1.523 . S
C599 C583 1.429 . S
C599 C595 1.429 . S
C599 C600 1.523 . S
C600 C584 1.368 . S
C600 C596 1.368 1_545 S
C600 C599 1.523 . S
H601 C576 0.950 . S
H602 C578 0.950 . S
H603 C579 0.949 . S
H604 C581 0.950 . S
H605 C583 0.950 . S
C606 C607 1.349 . S
C606 C608 1.327 . S
C606 H631 0.950 . S
C607 C606 1.349 . S
C607 C623 1.349 . S
C608 C606 1.327 . S
C608 C627 1.429 . S
C608 H632 0.950 . S
C609 C626 1.574 . S
C609 C628 1.368 . S
C609 H633 0.949 . S
H610 C614 0.949 . S
C611 C612 1.349 . S
C611 C613 1.327 . S
C611 H634 0.950 . S
C612 C611 1.349 . S
C612 C624 1.349 . S
C613 C611 1.327 . S
C613 C629 1.429 . S
C613 H635 0.950 . S
C614 H610 0.949 . S
C614 C622 1.574 . S
C614 C630 1.368 . S
H615 C623 0.950 . S
H616 C621 0.950 . S
H617 C622 0.949 . S
H618 C624 0.950 . S
H619 C625 0.950 . S
H620 C626 0.949 . S
C621 H616 0.950 . S
C621 C623 1.327 . S
C621 C627 1.429 . S
C622 C614 1.574 . S
C622 H617 0.949 . S
C622 C628 1.368 . S
C623 C607 1.349 . S
C623 H615 0.950 . S
C623 C621 1.327 . S
C624 C612 1.349 . S
C624 H618 0.950 . S
C624 C625 1.327 . S
C625 H619 0.950 . S
C625 C624 1.327 . S
C625 C629 1.429 . S
C626 C609 1.574 . S
C626 H620 0.949 . S
C626 C630 1.368 . S
C627 C608 1.429 . S
C627 C621 1.429 . S
C627 C628 1.523 . S
C628 C609 1.368 . S
C628 C622 1.368 . S
C628 C627 1.523 . S
C629 C613 1.429 . S
C629 C625 1.429 . S
C629 C630 1.523 . S
C630 C614 1.368 . S
C630 C626 1.368 . S
C630 C629 1.523 . S
H631 C606 0.950 . S
H632 C608 0.950 . S
H633 C609 0.949 . S
H634 C611 0.950 . S
H635 C613 0.950 . S
C636 C637 1.349 . S
C636 C638 1.327 . S
C636 H661 0.950 . S
C637 C636 1.349 . S
C637 C653 1.349 . S
C638 C636 1.327 . S
C638 C657 1.429 . S
C638 H662 0.950 . S
C639 C656 1.574 . S
C639 C658 1.368 . S
C639 H663 0.949 . S
H640 C644 0.949 . S
C641 C642 1.349 . S
C641 C643 1.327 . S
C641 H664 0.950 . S
C642 C641 1.349 . S
C642 C654 1.349 . S
C643 C641 1.327 . S
C643 C659 1.429 . S
C643 H665 0.950 . S
C644 H640 0.949 . S
C644 C652 1.574 . S
C644 C660 1.368 . S
H645 C653 0.950 . S
H646 C651 0.950 . S
H647 C652 0.949 . S
H648 C654 0.950 . S
H649 C655 0.950 . S
H650 C656 0.949 . S
C651 H646 0.950 . S
C651 C653 1.327 . S
C651 C657 1.429 . S
C652 C644 1.574 . S
C652 H647 0.949 . S
C652 C658 1.368 1_655 S
C653 C637 1.349 . S
C653 H645 0.950 . S
C653 C651 1.327 . S
C654 C642 1.349 . S
C654 H648 0.950 . S
C654 C655 1.327 . S
C655 H649 0.950 . S
C655 C654 1.327 . S
C655 C659 1.429 . S
C656 C639 1.574 . S
C656 H650 0.949 . S
C656 C660 1.368 1_455 S
C657 C638 1.429 . S
C657 C651 1.429 . S
C657 C658 1.523 . S
C658 C639 1.368 . S
C658 C652 1.368 1_455 S
C658 C657 1.523 . S
C659 C643 1.429 . S
C659 C655 1.429 . S
C659 C660 1.523 . S
C660 C644 1.368 . S
C660 C656 1.368 1_655 S
C660 C659 1.523 . S
H661 C636 0.950 . S
H662 C638 0.950 . S
H663 C639 0.949 . S
H664 C641 0.950 . S
H665 C643 0.950 . S
C666 C667 1.349 . S
C666 C668 1.327 . S
C666 H691 0.950 . S
C667 C666 1.349 . S
C667 C683 1.349 . S
C668 C666 1.327 . S
C668 C687 1.429 . S
C668 H692 0.950 . S
C669 C686 1.574 . S
C669 C688 1.368 . S
C669 H693 0.949 . S
H670 C674 0.949 . S
C671 C672 1.349 . S
C671 C673 1.327 . S
C671 H694 0.950 . S
C672 C671 1.349 . S
C672 C684 1.349 . S
C673 C671 1.327 . S
C673 C689 1.429 . S
C673 H695 0.950 . S
C674 H670 0.949 . S
C674 C682 1.574 . S
C674 C690 1.368 . S
H675 C683 0.950 . S
H676 C681 0.950 . S
H677 C682 0.949 . S
H678 C684 0.950 . S
H679 C685 0.950 . S
H680 C686 0.949 . S
C681 H676 0.950 . S
C681 C683 1.327 . S
C681 C687 1.429 . S
C682 C674 1.574 . S
C682 H677 0.949 . S
C682 C688 1.368 1_655 S
C683 C667 1.349 . S
C683 H675 0.950 . S
C683 C681 1.327 . S
C684 C672 1.349 . S
C684 H678 0.950 . S
C684 C685 1.327 . S
C685 H679 0.950 . S
C685 C684 1.327 . S
C685 C689 1.429 . S
C686 C669 1.574 . S
C686 H680 0.949 . S
C686 C690 1.368 1_455 S
C687 C668 1.429 . S
C687 C681 1.429 . S
C687 C688 1.523 . S
C688 C669 1.368 . S
C688 C682 1.368 1_455 S
C688 C687 1.523 . S
C689 C673 1.429 . S
C689 C685 1.429 . S
C689 C690 1.523 . S
C690 C674 1.368 . S
C690 C686 1.368 1_655 S
C690 C689 1.523 . S
H691 C666 0.950 . S
H692 C668 0.950 . S
H693 C669 0.949 . S
H694 C671 0.950 . S
H695 C673 0.950 . S
C696 C697 1.349 . S
C696 C698 1.327 . S
C696 H721 0.950 . S
C697 C696 1.349 . S
C697 C713 1.349 . S
C698 C696 1.327 . S
C698 C717 1.429 . S
C698 H722 0.950 . S
C699 C716 1.574 . S
C699 C718 1.368 . S
C699 H723 0.949 . S
H700 C704 0.949 . S
C701 C702 1.349 . S
C701 C703 1.327 . S
C701 H724 0.950 . S
C702 C701 1.349 . S
C702 C714 1.349 . S
C703 C701 1.327 . S
C703 C719 1.429 . S
C703 H725 0.950 . S
C704 H700 0.949 . S
C704 C712 1.574 . S
C704 C720 1.368 . S
H705 C713 0.950 . S
H706 C711 0.950 . S
H707 C712 0.949 . S
H708 C714 0.950 . S
H709 C715 0.950 . S
H710 C716 0.949 . S
C711 H706 0.950 . S
C711 C713 1.327 . S
C711 C717 1.429 . S
C712 C704 1.574 . S
C712 H707 0.949 . S
C712 C718 1.368 1_565 S
C713 C697 1.349 . S
C713 H705 0.950 . S
C713 C711 1.327 . S
C714 C702 1.349 . S
C714 H708 0.950 . S
C714 C715 1.327 . S
C715 H709 0.950 . S
C715 C714 1.327 . S
C715 C719 1.429 . S
C716 C699 1.574 . S
C716 H710 0.949 . S
C716 C720 1.368 1_545 S
C717 C698 1.429 . S
C717 C711 1.429 . S
C717 C718 1.523 . S
C718 C699 1.368 . S
C718 C712 1.368 1_545 S
C718 C717 1.523 . S
C719 C703 1.429 . S
C719 C715 1.429 . S
C719 C720 1.523 . S
C720 C704 1.368 . S
C720 C716 1.368 1_565 S
C720 C719 1.523 . S
H721 C696 0.950 . S
H722 C698 0.950 . S
H723 C699 0.949 . S
H724 C701 0.950 . S
H725 C703 0.950 . S
C726 C727 1.349 . S
C726 C728 1.327 . S
C726 H751 0.950 . S
C727 C726 1.349 . S
C727 C743 1.349 . S
C728 C726 1.327 . S
C728 C747 1.429 . S
C728 H752 0.950 . S
C729 C746 1.574 . S
C729 C748 1.368 . S
C729 H753 0.949 . S
H730 C734 0.949 . S
C731 C732 1.349 . S
C731 C733 1.327 . S
C731 H754 0.950 . S
C732 C731 1.349 . S
C732 C744 1.349 . S
C733 C731 1.327 . S
C733 C749 1.429 . S
C733 H755 0.950 . S
C734 H730 0.949 . S
C734 C742 1.574 . S
C734 C750 1.368 . S
H735 C743 0.950 . S
H736 C741 0.950 . S
H737 C742 0.949 . S
H738 C744 0.950 . S
H739 C745 0.950 . S
H740 C746 0.949 . S
C741 H736 0.950 . S
C741 C743 1.327 . S
C741 C747 1.429 . S
C742 C734 1.574 . S
C742 H737 0.949 . S
C742 C748 1.368 . S
C743 C727 1.349 . S
C743 H735 0.950 . S
C743 C741 1.327 . S
C744 C732 1.349 . S
C744 H738 0.950 . S
C744 C745 1.327 . S
C745 H739 0.950 . S
C745 C744 1.327 . S
C745 C749 1.429 . S
C746 C729 1.574 . S
C746 H740 0.949 . S
C746 C750 1.368 . S
C747 C728 1.429 . S
C747 C741 1.429 . S
C747 C748 1.523 . S
C748 C729 1.368 . S
C748 C742 1.368 . S
C748 C747 1.523 . S
C749 C733 1.429 . S
C749 C745 1.429 . S
C749 C750 1.523 . S
C750 C734 1.368 . S
C750 C746 1.368 . S
C750 C749 1.523 . S
H751 C726 0.950 . S
H752 C728 0.950 . S
H753 C729 0.949 . S
H754 C731 0.950 . S
H755 C733 0.950 . S
C756 C757 1.349 . S
C756 C758 1.327 . S
C756 H781 0.950 . S
C757 C756 1.349 . S
C757 C773 1.349 . S
C758 C756 1.327 . S
C758 C777 1.429 . S
C758 H782 0.950 . S
C759 C776 1.574 . S
C759 C778 1.368 . S
C759 H783 0.949 . S
H760 C764 0.949 . S
C761 C762 1.349 . S
C761 C763 1.327 . S
C761 H784 0.950 . S
C762 C761 1.349 . S
C762 C774 1.349 . S
C763 C761 1.327 . S
C763 C779 1.429 . S
C763 H785 0.950 . S
C764 H760 0.949 . S
C764 C772 1.574 . S
C764 C780 1.368 . S
H765 C773 0.950 . S
H766 C771 0.950 . S
H767 C772 0.949 . S
H768 C774 0.950 . S
H769 C775 0.950 . S
H770 C776 0.949 . S
C771 H766 0.950 . S
C771 C773 1.327 . S
C771 C777 1.429 . S
C772 C764 1.574 . S
C772 H767 0.949 . S
C772 C778 1.368 . S
C773 C757 1.349 . S
C773 H765 0.950 . S
C773 C771 1.327 . S
C774 C762 1.349 . S
C774 H768 0.950 . S
C774 C775 1.327 . S
C775 H769 0.950 . S
C775 C774 1.327 . S
C775 C779 1.429 . S
C776 C759 1.574 . S
C776 H770 0.949 . S
C776 C780 1.368 . S
C777 C758 1.429 . S
C777 C771 1.429 . S
C777 C778 1.523 . S
C778 C759 1.368 . S
C778 C772 1.368 . S
C778 C777 1.523 . S
C779 C763 1.429 . S
C779 C775 1.429 . S
C779 C780 1.523 . S
C780 C764 1.368 . S
C780 C776 1.368 . S
C780 C779 1.523 . S
H781 C756 0.950 . S
H782 C758 0.950 . S
H783 C759 0.949 . S
H784 C761 0.950 . S
H785 C763 0.950 . S
C786 C787 1.349 . S
C786 C788 1.327 . S
C786 H811 0.950 . S
C787 C786 1.349 . S
C787 C803 1.349 . S
C788 C786 1.327 . S
C788 C807 1.429 . S
C788 H812 0.950 . S
C789 C806 1.574 . S
C789 C808 1.368 . S
C789 H813 0.949 . S
H790 C794 0.949 . S
C791 C792 1.349 . S
C791 C793 1.327 . S
C791 H814 0.950 . S
C792 C791 1.349 . S
C792 C804 1.349 . S
C793 C791 1.327 . S
C793 C809 1.429 . S
C793 H815 0.950 . S
C794 H790 0.949 . S
C794 C802 1.574 . S
C794 C810 1.368 . S
H795 C803 0.950 . S
H796 C801 0.950 . S
H797 C802 0.949 . S
H798 C804 0.950 . S
H799 C805 0.950 . S
H800 C806 0.949 . S
C801 H796 0.950 . S
C801 C803 1.327 . S
C801 C807 1.429 . S
C802 C794 1.574 . S
C802 H797 0.949 . S
C802 C808 1.368 . S
C803 C787 1.349 . S
C803 H795 0.950 . S
C803 C801 1.327 . S
C804 C792 1.349 . S
C804 H798 0.950 . S
C804 C805 1.327 . S
C805 H799 0.950 . S
C805 C804 1.327 . S
C805 C809 1.429 . S
C806 C789 1.574 . S
C806 H800 0.949 . S
C806 C810 1.368 . S
C807 C788 1.429 . S
C807 C801 1.429 . S
C807 C808 1.523 . S
C808 C789 1.368 . S
C808 C802 1.368 . S
C808 C807 1.523 . S
C809 C793 1.429 . S
C809 C805 1.429 . S
C809 C810 1.523 . S
C810 C794 1.368 . S
C810 C806 1.368 . S
C810 C809 1.523 . S
H811 C786 0.950 . S
H812 C788 0.950 . S
H813 C789 0.949 . S
H814 C791 0.950 . S
H815 C793 0.950 . S
C816 C817 1.349 . S
C816 C818 1.327 . S
C816 H841 0.950 . S
C817 C816 1.349 . S
C817 C833 1.349 . S
C818 C816 1.327 . S
C818 C837 1.429 . S
C818 H842 0.950 . S
C819 C836 1.574 . S
C819 C838 1.368 . S
C819 H843 0.949 . S
H820 C824 0.949 . S
C821 C822 1.349 . S
C821 C823 1.327 . S
C821 H844 0.950 . S
C822 C821 1.349 . S
C822 C834 1.349 . S
C823 C821 1.327 . S
C823 C839 1.429 . S
C823 H845 0.950 . S
C824 H820 0.949 . S
C824 C832 1.574 . S
C824 C840 1.368 . S
H825 C833 0.950 . S
H826 C831 0.950 . S
H827 C832 0.949 . S
H828 C834 0.950 . S
H829 C835 0.950 . S
H830 C836 0.949 . S
C831 H826 0.950 . S
C831 C833 1.327 . S
C831 C837 1.429 . S
C832 C824 1.574 . S
C832 H827 0.949 . S
C832 C838 1.368 . S
C833 C817 1.349 . S
C833 H825 0.950 . S
C833 C831 1.327 . S
C834 C822 1.349 . S
C834 H828 0.950 . S
C834 C835 1.327 . S
C835 H829 0.950 . S
C835 C834 1.327 . S
C835 C839 1.429 . S
C836 C819 1.574 . S
C836 H830 0.949 . S
C836 C840 1.368 . S
C837 C818 1.429 . S
C837 C831 1.429 . S
C837 C838 1.523 . S
C838 C819 1.368 . S
C838 C832 1.368 . S
C838 C837 1.523 . S
C839 C823 1.429 . S
C839 C835 1.429 . S
C839 C840 1.523 . S
C840 C824 1.368 . S
C840 C836 1.368 . S
C840 C839 1.523 . S
H841 C816 0.950 . S
H842 C818 0.950 . S
H843 C819 0.949 . S
H844 C821 0.950 . S
H845 C823 0.950 . S
C846 C847 1.349 . S
C846 C848 1.327 . S
C846 H871 0.950 . S
C847 C846 1.349 . S
C847 C863 1.349 . S
C848 C846 1.327 . S
C848 C867 1.429 . S
C848 H872 0.950 . S
C849 C866 1.574 . S
C849 C868 1.368 . S
C849 H873 0.949 . S
H850 C854 0.949 . S
C851 C852 1.349 . S
C851 C853 1.327 . S
C851 H874 0.950 . S
C852 C851 1.349 . S
C852 C864 1.349 . S
C853 C851 1.327 . S
C853 C869 1.429 . S
C853 H875 0.950 . S
C854 H850 0.949 . S
C854 C862 1.574 . S
C854 C870 1.368 . S
H855 C863 0.950 . S
H856 C861 0.950 . S
H857 C862 0.949 . S
H858 C864 0.950 . S
H859 C865 0.950 . S
H860 C866 0.949 . S
C861 H856 0.950 . S
C861 C863 1.327 . S
C861 C867 1.429 . S
C862 C854 1.574 . S
C862 H857 0.949 . S
C862 C868 1.368 . S
C863 C847 1.349 . S
C863 H855 0.950 . S
C863 C861 1.327 . S
C864 C852 1.349 . S
C864 H858 0.950 . S
C864 C865 1.327 . S
C865 H859 0.950 . S
C865 C864 1.327 . S
C865 C869 1.429 . S
C866 C849 1.574 . S
C866 H860 0.949 . S
C866 C870 1.368 . S
C867 C848 1.429 . S
C867 C861 1.429 . S
C867 C868 1.523 . S
C868 C849 1.368 . S
C868 C862 1.368 . S
C868 C867 1.523 . S
C869 C853 1.429 . S
C869 C865 1.429 . S
C869 C870 1.523 . S
C870 C854 1.368 . S
C870 C866 1.368 . S
C870 C869 1.523 . S
H871 C846 0.950 . S
H872 C848 0.950 . S
H873 C849 0.949 . S
H874 C851 0.950 . S
H875 C853 0.950 . S
C876 C877 1.349 . S
C876 C878 1.327 . S
C876 H901 0.950 . S
C877 C876 1.349 . S
C877 C893 1.349 . S
C878 C876 1.327 . S
C878 C897 1.429 . S
C878 H902 0.950 . S
C879 C896 1.574 . S
C879 C898 1.368 . S
C879 H903 0.949 . S
H880 C884 0.949 . S
C881 C882 1.349 . S
C881 C883 1.327 . S
C881 H904 0.950 . S
C882 C881 1.349 . S
C882 C894 1.349 . S
C883 C881 1.327 . S
C883 C899 1.429 . S
C883 H905 0.950 . S
C884 H880 0.949 . S
C884 C892 1.574 . S
C884 C900 1.368 . S
H885 C893 0.950 . S
H886 C891 0.950 . S
H887 C892 0.949 . S
H888 C894 0.950 . S
H889 C895 0.950 . S
H890 C896 0.949 . S
C891 H886 0.950 . S
C891 C893 1.327 . S
C891 C897 1.429 . S
C892 C884 1.574 . S
C892 H887 0.949 . S
C892 C898 1.368 . S
C893 C877 1.349 . S
C893 H885 0.950 . S
C893 C891 1.327 . S
C894 C882 1.349 . S
C894 H888 0.950 . S
C894 C895 1.327 . S
C895 H889 0.950 . S
C895 C894 1.327 . S
C895 C899 1.429 . S
C896 C879 1.574 . S
C896 H890 0.949 . S
C896 C900 1.368 . S
C897 C878 1.429 . S
C897 C891 1.429 . S
C897 C898 1.523 . S
C898 C879 1.368 . S
C898 C892 1.368 . S
C898 C897 1.523 . S
C899 C883 1.429 . S
C899 C895 1.429 . S
C899 C900 1.523 . S
C900 C884 1.368 . S
C900 C896 1.368 . S
C900 C899 1.523 . S
H901 C876 0.950 . S
H902 C878 0.950 . S
H903 C879 0.949 . S
H904 C881 0.950 . S
H905 C883 0.950 . S
C906 C907 1.349 . S
C906 C908 1.327 . S
C906 H931 0.950 . S
C907 C906 1.349 . S
C907 C923 1.349 . S
C908 C906 1.327 . S
C908 C927 1.429 . S
C908 H932 0.950 . S
C909 C926 1.574 . S
C909 C928 1.368 . S
C909 H933 0.949 . S
H910 C914 0.949 . S
C911 C912 1.349 . S
C911 C913 1.327 . S
C911 H934 0.950 . S
C912 C911 1.349 . S
C912 C924 1.349 . S
C913 C911 1.327 . S
C913 C929 1.429 . S
C913 H935 0.950 . S
C914 H910 0.949 . S
C914 C922 1.574 . S
C914 C930 1.368 . S
H915 C923 0.950 . S
H916 C921 0.950 . S
H917 C922 0.949 . S
H918 C924 0.950 . S
H919 C925 0.950 . S
H920 C926 0.949 . S
C921 H916 0.950 . S
C921 C923 1.327 . S
C921 C927 1.429 . S
C922 C914 1.574 . S
C922 H917 0.949 . S
C922 C928 1.368 . S
C923 C907 1.349 . S
C923 H915 0.950 . S
C923 C921 1.327 . S
C924 C912 1.349 . S
C924 H918 0.950 . S
C924 C925 1.327 . S
C925 H919 0.950 . S
C925 C924 1.327 . S
C925 C929 1.429 . S
C926 C909 1.574 . S
C926 H920 0.949 . S
C926 C930 1.368 . S
C927 C908 1.429 . S
C927 C921 1.429 . S
C927 C928 1.523 . S
C928 C909 1.368 . S
C928 C922 1.368 . S
C928 C927 1.523 . S
C929 C913 1.429 . S
C929 C925 1.429 . S
C929 C930 1.523 . S
C930 C914 1.368 . S
C930 C926 1.368 . S
C930 C929 1.523 . S
H931 C906 0.950 . S
H932 C908 0.950 . S
H933 C909 0.949 . S
H934 C911 0.950 . S
H935 C913 0.950 . S
C936 C937 1.349 . S
C936 C938 1.327 . S
C936 H961 0.950 . S
C937 C936 1.349 . S
C937 C953 1.349 . S
C938 C936 1.327 . S
C938 C957 1.429 . S
C938 H962 0.950 . S
C939 C956 1.574 . S
C939 C958 1.368 . S
C939 H963 0.949 . S
H940 C944 0.949 . S
C941 C942 1.349 . S
C941 C943 1.327 . S
C941 H964 0.950 . S
C942 C941 1.349 . S
C942 C954 1.349 . S
C943 C941 1.327 . S
C943 C959 1.429 . S
C943 H965 0.950 . S
C944 H940 0.949 . S
C944 C952 1.574 . S
C944 C960 1.368 . S
H945 C953 0.950 . S
H946 C951 0.950 . S
H947 C952 0.949 . S
H948 C954 0.950 . S
H949 C955 0.950 . S
H950 C956 0.949 . S
C951 H946 0.950 . S
C951 C953 1.327 . S
C951 C957 1.429 . S
C952 C944 1.574 . S
C952 H947 0.949 . S
C952 C958 1.368 . S
C953 C937 1.349 . S
C953 H945 0.950 . S
C953 C951 1.327 . S
C954 C942 1.349 . S
C954 H948 0.950 . S
C954 C955 1.327 . S
C955 H949 0.950 . S
C955 C954 1.327 . S
C955 C959 1.429 . S
C956 C939 1.574 . S
C956 H950 0.949 . S
C956 C960 1.368 . S
C957 C938 1.429 . S
C957 C951 1.429 . S
C957 C958 1.523 . S
C958 C939 1.368 . S
C958 C952 1.368 . S
C958 C957 1.523 . S
C959 C943 1.429 . S
C959 C955 1.429 . S
C959 C960 1.523 . S
C960 C944 1.368 . S
C960 C956 1.368 . S
C960 C959 1.523 . S
H961 C936 0.950 . S
H962 C938 0.950 . S
H963 C939 0.949 . S
H964 C941 0.950 . S
H965 C943 0.950 . S
C966 C967 1.349 . S
C966 C968 1.327 . S
C966 H991 0.950 . S
C967 C966 1.349 . S
C967 C983 1.349 . S
C968 C966 1.327 . S
C968 C987 1.429 . S
C968 H992 0.950 . S
C969 C986 1.574 . S
C969 C988 1.368 . S
C969 H993 0.949 . S
H970 C974 0.949 . S
C971 C972 1.349 . S
C971 C973 1.327 . S
C971 H994 0.950 . S
C972 C971 1.349 . S
C972 C984 1.349 . S
C973 C971 1.327 . S
C973 C989 1.429 . S
C973 H995 0.950 . S
C974 H970 0.949 . S
C974 C982 1.574 . S
C974 C990 1.368 . S
H975 C983 0.950 . S
H976 C981 0.950 . S
H977 C982 0.949 . S
H978 C984 0.950 . S
H979 C985 0.950 . S
H980 C986 0.949 . S
C981 H976 0.950 . S
C981 C983 1.327 . S
C981 C987 1.429 . S
C982 C974 1.574 . S
C982 H977 0.949 . S
C982 C988 1.368 1_655 S
C983 C967 1.349 . S
C983 H975 0.950 . S
C983 C981 1.327 . S
C984 C972 1.349 . S
C984 H978 0.950 . S
C984 C985 1.327 . S
C985 H979 0.950 . S
C985 C984 1.327 . S
C985 C989 1.429 . S
C986 C969 1.574 . S
C986 H980 0.949 . S
C986 C990 1.368 1_455 S
C987 C968 1.429 . S
C987 C981 1.429 . S
C987 C988 1.523 . S
C988 C969 1.368 . S
C988 C982 1.368 1_455 S
C988 C987 1.523 . S
C989 C973 1.429 . S
C989 C985 1.429 . S
C989 C990 1.523 . S
C990 C974 1.368 . S
C990 C986 1.368 1_655 S
C990 C989 1.523 . S
H991 C966 0.950 . S
H992 C968 0.950 . S
H993 C969 0.949 . S
H994 C971 0.950 . S
H995 C973 0.950 . S
C996 C997 1.349 . S
C996 C998 1.327 . S
C996 H1021 0.950 . S
C997 C996 1.349 . S
C997 C1013 1.349 . S
C998 C996 1.327 . S
C998 C1017 1.429 . S
C998 H1022 0.950 . S
C999 C1016 1.574 . S
C999 C1018 1.368 . S
C999 H1023 0.949 . S
H1000 C1004 0.949 . S
C1001 C1002 1.349 . S
C1001 C1003 1.327 . S
C1001 H1024 0.950 . S
C1002 C1001 1.349 . S
C1002 C1014 1.349 . S
C1003 C1001 1.327 . S
C1003 C1019 1.429 . S
C1003 H1025 0.950 . S
C1004 H1000 0.949 . S
C1004 C1012 1.574 . S
C1004 C1020 1.368 . S
H1005 C1013 0.950 . S
H1006 C1011 0.950 . S
H1007 C1012 0.949 . S
H1008 C1014 0.950 . S
H1009 C1015 0.950 . S
H1010 C1016 0.949 . S
C1011 H1006 0.950 . S
C1011 C1013 1.327 . S
C1011 C1017 1.429 . S
C1012 C1004 1.574 . S
C1012 H1007 0.949 . S
C1012 C1018 1.368 1_545 S
C1013 C997 1.349 . S
C1013 H1005 0.950 . S
C1013 C1011 1.327 . S
C1014 C1002 1.349 . S
C1014 H1008 0.950 . S
C1014 C1015 1.327 . S
C1015 H1009 0.950 . S
C1015 C1014 1.327 . S
C1015 C1019 1.429 . S
C1016 C999 1.574 . S
C1016 H1010 0.949 . S
C1016 C1020 1.368 1_565 S
C1017 C998 1.429 . S
C1017 C1011 1.429 . S
C1017 C1018 1.523 . S
C1018 C999 1.368 . S
C1018 C1012 1.368 1_565 S
C1018 C1017 1.523 . S
C1019 C1003 1.429 . S
C1019 C1015 1.429 . S
C1019 C1020 1.523 . S
C1020 C1004 1.368 . S
C1020 C1016 1.368 1_545 S
C1020 C1019 1.523 . S
H1021 C996 0.950 . S
H1022 C998 0.950 . S
H1023 C999 0.949 . S
H1024 C1001 0.950 . S
H1025 C1003 0.950 . S
C1026 C1027 1.349 . S
C1026 C1028 1.327 . S
C1026 H1051 0.950 . S
C1027 C1026 1.349 . S
C1027 C1043 1.349 . S
C1028 C1026 1.327 . S
C1028 C1047 1.429 . S
C1028 H1052 0.950 . S
C1029 C1046 1.574 . S
C1029 C1048 1.368 . S
C1029 H1053 0.949 . S
H1030 C1034 0.949 . S
C1031 C1032 1.349 . S
C1031 C1033 1.327 . S
C1031 H1054 0.950 . S
C1032 C1031 1.349 . S
C1032 C1044 1.349 . S
C1033 C1031 1.327 . S
C1033 C1049 1.429 . S
C1033 H1055 0.950 . S
C1034 H1030 0.949 . S
C1034 C1042 1.574 . S
C1034 C1050 1.368 . S
H1035 C1043 0.950 . S
H1036 C1041 0.950 . S
H1037 C1042 0.949 . S
H1038 C1044 0.950 . S
H1039 C1045 0.950 . S
H1040 C1046 0.949 . S
C1041 H1036 0.950 . S
C1041 C1043 1.327 . S
C1041 C1047 1.429 . S
C1042 C1034 1.574 . S
C1042 H1037 0.949 . S
C1042 C1048 1.368 . S
C1043 C1027 1.349 . S
C1043 H1035 0.950 . S
C1043 C1041 1.327 . S
C1044 C1032 1.349 . S
C1044 H1038 0.950 . S
C1044 C1045 1.327 . S
C1045 H1039 0.950 . S
C1045 C1044 1.327 . S
C1045 C1049 1.429 . S
C1046 C1029 1.574 . S
C1046 H1040 0.949 . S
C1046 C1050 1.368 . S
C1047 C1028 1.429 . S
C1047 C1041 1.429 . S
C1047 C1048 1.523 . S
C1048 C1029 1.368 . S
C1048 C1042 1.368 . S
C1048 C1047 1.523 . S
C1049 C1033 1.429 . S
C1049 C1045 1.429 . S
C1049 C1050 1.523 . S
C1050 C1034 1.368 . S
C1050 C1046 1.368 . S
C1050 C1049 1.523 . S
H1051 C1026 0.950 . S
H1052 C1028 0.950 . S
H1053 C1029 0.949 . S
H1054 C1031 0.950 . S
H1055 C1033 0.950 . S
C1056 C1057 1.349 . S
C1056 C1058 1.327 . S
C1056 H1081 0.950 . S
C1057 C1056 1.349 . S
C1057 C1073 1.349 . S
C1058 C1056 1.327 . S
C1058 C1077 1.429 . S
C1058 H1082 0.950 . S
C1059 C1076 1.574 . S
C1059 C1078 1.368 1_655 S
C1059 H1083 0.949 . S
H1060 C1064 0.949 . S
C1061 C1062 1.349 . S
C1061 C1063 1.327 . S
C1061 H1084 0.950 . S
C1062 C1061 1.349 . S
C1062 C1074 1.349 . S
C1063 C1061 1.327 . S
C1063 C1079 1.429 . S
C1063 H1085 0.950 . S
C1064 H1060 0.949 . S
C1064 C1072 1.574 . S
C1064 C1080 1.368 1_455 S
H1065 C1073 0.950 . S
H1066 C1071 0.950 . S
H1067 C1072 0.949 . S
H1068 C1074 0.950 . S
H1069 C1075 0.950 . S
H1070 C1076 0.949 . S
C1071 H1066 0.950 . S
C1071 C1073 1.327 . S
C1071 C1077 1.429 . S
C1072 C1064 1.574 . S
C1072 H1067 0.949 . S
C1072 C1078 1.368 . S
C1073 C1057 1.349 . S
C1073 H1065 0.950 . S
C1073 C1071 1.327 . S
C1074 C1062 1.349 . S
C1074 H1068 0.950 . S
C1074 C1075 1.327 . S
C1075 H1069 0.950 . S
C1075 C1074 1.327 . S
C1075 C1079 1.429 . S
C1076 C1059 1.574 . S
C1076 H1070 0.949 . S
C1076 C1080 1.368 . S
C1077 C1058 1.429 . S
C1077 C1071 1.429 . S
C1077 C1078 1.523 . S
C1078 C1059 1.368 1_455 S
C1078 C1072 1.368 . S
C1078 C1077 1.523 . S
C1079 C1063 1.429 . S
C1079 C1075 1.429 . S
C1079 C1080 1.523 . S
C1080 C1064 1.368 1_655 S
C1080 C1076 1.368 . S
C1080 C1079 1.523 . S
H1081 C1056 0.950 . S
H1082 C1058 0.950 . S
H1083 C1059 0.949 . S
H1084 C1061 0.950 . S
H1085 C1063 0.950 . S
C1086 C1087 1.349 . S
C1086 C1088 1.327 . S
C1086 H1111 0.950 . S
C1087 C1086 1.349 . S
C1087 C1103 1.349 . S
C1088 C1086 1.327 . S
C1088 C1107 1.429 . S
C1088 H1112 0.950 . S
C1089 C1106 1.574 . S
C1089 C1108 1.368 . S
C1089 H1113 0.949 . S
H1090 C1094 0.949 . S
C1091 C1092 1.349 . S
C1091 C1093 1.327 . S
C1091 H1114 0.950 . S
C1092 C1091 1.349 . S
C1092 C1104 1.349 . S
C1093 C1091 1.327 . S
C1093 C1109 1.429 . S
C1093 H1115 0.950 . S
C1094 H1090 0.949 . S
C1094 C1102 1.574 . S
C1094 C1110 1.368 . S
H1095 C1103 0.950 . S
H1096 C1101 0.950 . S
H1097 C1102 0.949 . S
H1098 C1104 0.950 . S
H1099 C1105 0.950 . S
H1100 C1106 0.949 . S
C1101 H1096 0.950 . S
C1101 C1103 1.327 . S
C1101 C1107 1.429 . S
C1102 C1094 1.574 . S
C1102 H1097 0.949 . S
C1102 C1108 1.368 1_545 S
C1103 C1087 1.349 . S
C1103 H1095 0.950 . S
C1103 C1101 1.327 . S
C1104 C1092 1.349 . S
C1104 H1098 0.950 . S
C1104 C1105 1.327 . S
C1105 H1099 0.950 . S
C1105 C1104 1.327 . S
C1105 C1109 1.429 . S
C1106 C1089 1.574 . S
C1106 H1100 0.949 . S
C1106 C1110 1.368 1_565 S
C1107 C1088 1.429 . S
C1107 C1101 1.429 . S
C1107 C1108 1.523 . S
C1108 C1089 1.368 . S
C1108 C1102 1.368 1_565 S
C1108 C1107 1.523 . S
C1109 C1093 1.429 . S
C1109 C1105 1.429 . S
C1109 C1110 1.523 . S
C1110 C1094 1.368 . S
C1110 C1106 1.368 1_545 S
C1110 C1109 1.523 . S
H1111 C1086 0.950 . S
H1112 C1088 0.950 . S
H1113 C1089 0.949 . S
H1114 C1091 0.950 . S
H1115 C1093 0.950 . S
C1116 C1117 1.349 . S
C1116 C1118 1.327 . S
C1116 H1141 0.950 . S
C1117 C1116 1.349 . S
C1117 C1133 1.349 . S
C1118 C1116 1.327 . S
C1118 C1137 1.429 . S
C1118 H1142 0.950 . S
C1119 C1136 1.574 1_455 S
C1119 C1138 1.368 . S
C1119 H1143 0.949 . S
H1120 C1124 0.949 . S
C1121 C1122 1.349 . S
C1121 C1123 1.327 . S
C1121 H1144 0.950 . S
C1122 C1121 1.349 . S
C1122 C1134 1.349 . S
C1123 C1121 1.327 . S
C1123 C1139 1.429 . S
C1123 H1145 0.950 . S
C1124 H1120 0.949 . S
C1124 C1132 1.574 1_655 S
C1124 C1140 1.368 . S
H1125 C1133 0.950 . S
H1126 C1131 0.950 . S
H1127 C1132 0.949 . S
H1128 C1134 0.950 . S
H1129 C1135 0.950 . S
H1130 C1136 0.949 . S
C1131 H1126 0.950 . S
C1131 C1133 1.327 . S
C1131 C1137 1.429 . S
C1132 C1124 1.574 1_455 S
C1132 H1127 0.949 . S
C1132 C1138 1.368 1_565 S
C1133 C1117 1.349 . S
C1133 H1125 0.950 . S
C1133 C1131 1.327 . S
C1134 C1122 1.349 . S
C1134 H1128 0.950 . S
C1134 C1135 1.327 . S
C1135 H1129 0.950 . S
C1135 C1134 1.327 . S
C1135 C1139 1.429 . S
C1136 C1119 1.574 1_655 S
C1136 H1130 0.949 . S
C1136 C1140 1.368 1_545 S
C1137 C1118 1.429 . S
C1137 C1131 1.429 . S
C1137 C1138 1.523 . S
C1138 C1119 1.368 . S
C1138 C1132 1.368 1_545 S
C1138 C1137 1.523 . S
C1139 C1123 1.429 . S
C1139 C1135 1.429 . S
C1139 C1140 1.523 . S
C1140 C1124 1.368 . S
C1140 C1136 1.368 1_565 S
C1140 C1139 1.523 . S
H1141 C1116 0.950 . S
H1142 C1118 0.950 . S
H1143 C1119 0.949 . S
H1144 C1121 0.950 . S
H1145 C1123 0.950 . S
C1146 C1147 1.349 . S
C1146 C1148 1.327 . S
C1146 H1171 0.950 . S
C1147 C1146 1.349 . S
C1147 C1163 1.349 . S
C1148 C1146 1.327 . S
C1148 C1167 1.429 . S
C1148 H1172 0.950 . S
C1149 C1166 1.574 1_545 S
C1149 C1168 1.368 . S
C1149 H1173 0.949 . S
H1150 C1154 0.949 . S
C1151 C1152 1.349 . S
C1151 C1153 1.327 . S
C1151 H1174 0.950 . S
C1152 C1151 1.349 . S
C1152 C1164 1.349 . S
C1153 C1151 1.327 . S
C1153 C1169 1.429 . S
C1153 H1175 0.950 . S
C1154 H1150 0.949 . S
C1154 C1162 1.574 1_565 S
C1154 C1170 1.368 . S
H1155 C1163 0.950 . S
H1156 C1161 0.950 . S
H1157 C1162 0.949 . S
H1158 C1164 0.950 . S
H1159 C1165 0.950 . S
H1160 C1166 0.949 . S
C1161 H1156 0.950 . S
C1161 C1163 1.327 . S
C1161 C1167 1.429 . S
C1162 C1154 1.574 1_545 S
C1162 H1157 0.949 . S
C1162 C1168 1.368 1_655 S
C1163 C1147 1.349 . S
C1163 H1155 0.950 . S
C1163 C1161 1.327 . S
C1164 C1152 1.349 . S
C1164 H1158 0.950 . S
C1164 C1165 1.327 . S
C1165 H1159 0.950 . S
C1165 C1164 1.327 . S
C1165 C1169 1.429 . S
C1166 C1149 1.574 1_565 S
C1166 H1160 0.949 . S
C1166 C1170 1.368 1_455 S
C1167 C1148 1.429 . S
C1167 C1161 1.429 . S
C1167 C1168 1.523 . S
C1168 C1149 1.368 . S
C1168 C1162 1.368 1_455 S
C1168 C1167 1.523 . S
C1169 C1153 1.429 . S
C1169 C1165 1.429 . S
C1169 C1170 1.523 . S
C1170 C1154 1.368 . S
C1170 C1166 1.368 1_655 S
C1170 C1169 1.523 . S
H1171 C1146 0.950 . S
H1172 C1148 0.950 . S
H1173 C1149 0.949 . S
H1174 C1151 0.950 . S
H1175 C1153 0.950 . S
C1176 C1177 1.349 . S
C1176 C1178 1.327 . S
C1176 H1201 0.950 . S
C1177 C1176 1.349 . S
C1177 C1193 1.349 . S
C1178 C1176 1.327 . S
C1178 C1197 1.429 . S
C1178 H1202 0.950 . S
C1179 C1196 1.574 . S
C1179 C1198 1.368 1_565 S
C1179 H1203 0.949 . S
H1180 C1184 0.949 . S
C1181 C1182 1.349 . S
C1181 C1183 1.327 . S
C1181 H1204 0.950 . S
C1182 C1181 1.349 . S
C1182 C1194 1.349 . S
C1183 C1181 1.327 . S
C1183 C1199 1.429 . S
C1183 H1205 0.950 . S
C1184 H1180 0.949 . S
C1184 C1192 1.574 . S
C1184 C1200 1.368 1_545 S
H1185 C1193 0.950 . S
H1186 C1191 0.950 . S
H1187 C1192 0.949 . S
H1188 C1194 0.950 . S
H1189 C1195 0.950 . S
H1190 C1196 0.949 . S
C1191 H1186 0.950 . S
C1191 C1193 1.327 . S
C1191 C1197 1.429 . S
C1192 C1184 1.574 . S
C1192 H1187 0.949 . S
C1192 C1198 1.368 1_455 S
C1193 C1177 1.349 . S
C1193 H1185 0.950 . S
C1193 C1191 1.327 . S
C1194 C1182 1.349 . S
C1194 H1188 0.950 . S
C1194 C1195 1.327 . S
C1195 H1189 0.950 . S
C1195 C1194 1.327 . S
C1195 C1199 1.429 . S
C1196 C1179 1.574 . S
C1196 H1190 0.949 . S
C1196 C1200 1.368 1_655 S
C1197 C1178 1.429 . S
C1197 C1191 1.429 . S
C1197 C1198 1.523 . S
C1198 C1179 1.368 1_545 S
C1198 C1192 1.368 1_655 S
C1198 C1197 1.523 . S
C1199 C1183 1.429 . S
C1199 C1195 1.429 . S
C1199 C1200 1.523 . S
C1200 C1184 1.368 1_565 S
C1200 C1196 1.368 1_455 S
C1200 C1199 1.523 . S
H1201 C1176 0.950 . S
H1202 C1178 0.950 . S
H1203 C1179 0.949 . S
H1204 C1181 0.950 . S
H1205 C1183 0.950 . S
C1206 C1207 1.349 . S
C1206 C1208 1.327 . S
C1206 H1231 0.950 . S
C1207 C1206 1.349 . S
C1207 C1223 1.349 . S
C1208 C1206 1.327 . S
C1208 C1227 1.429 . S
C1208 H1232 0.950 . S
C1209 C1226 1.574 1_565 S
C1209 C1228 1.368 1_455 S
C1209 H1233 0.949 . S
H1210 C1214 0.949 . S
C1211 C1212 1.349 . S
C1211 C1213 1.327 . S
C1211 H1234 0.950 . S
C1212 C1211 1.349 . S
C1212 C1224 1.349 . S
C1213 C1211 1.327 . S
C1213 C1229 1.429 . S
C1213 H1235 0.950 . S
C1214 H1210 0.949 . S
C1214 C1222 1.574 1_545 S
C1214 C1230 1.368 1_655 S
H1215 C1223 0.950 . S
H1216 C1221 0.950 . S
H1217 C1222 0.949 . S
H1218 C1224 0.950 . S
H1219 C1225 0.950 . S
H1220 C1226 0.949 . S
C1221 H1216 0.950 . S
C1221 C1223 1.327 . S
C1221 C1227 1.429 . S
C1222 C1214 1.574 1_565 S
C1222 H1217 0.949 . S
C1222 C1228 1.368 . S
C1223 C1207 1.349 . S
C1223 H1215 0.950 . S
C1223 C1221 1.327 . S
C1224 C1212 1.349 . S
C1224 H1218 0.950 . S
C1224 C1225 1.327 . S
C1225 H1219 0.950 . S
C1225 C1224 1.327 . S
C1225 C1229 1.429 . S
C1226 C1209 1.574 1_545 S
C1226 H1220 0.949 . S
C1226 C1230 1.368 . S
C1227 C1208 1.429 . S
C1227 C1221 1.429 . S
C1227 C1228 1.523 . S
C1228 C1209 1.368 1_655 S
C1228 C1222 1.368 . S
C1228 C1227 1.523 . S
C1229 C1213 1.429 . S
C1229 C1225 1.429 . S
C1229 C1230 1.523 . S
C1230 C1214 1.368 1_455 S
C1230 C1226 1.368 . S
C1230 C1229 1.523 . S
H1231 C1206 0.950 . S
H1232 C1208 0.950 . S
H1233 C1209 0.949 . S
H1234 C1211 0.950 . S
H1235 C1213 0.950 . S
C1236 C1237 1.349 . S
C1236 C1238 1.327 . S
C1236 H1261 0.950 . S
C1237 C1236 1.349 . S
C1237 C1253 1.349 . S
C1238 C1236 1.327 . S
C1238 C1257 1.429 . S
C1238 H1262 0.950 . S
C1239 C1256 1.574 . S
C1239 C1258 1.368 1_565 S
C1239 H1263 0.949 . S
H1240 C1244 0.949 . S
C1241 C1242 1.349 . S
C1241 C1243 1.327 . S
C1241 H1264 0.950 . S
C1242 C1241 1.349 . S
C1242 C1254 1.349 . S
C1243 C1241 1.327 . S
C1243 C1259 1.429 . S
C1243 H1265 0.950 . S
C1244 H1240 0.949 . S
C1244 C1252 1.574 . S
C1244 C1260 1.368 1_545 S
H1245 C1253 0.950 . S
H1246 C1251 0.950 . S
H1247 C1252 0.949 . S
H1248 C1254 0.950 . S
H1249 C1255 0.950 . S
H1250 C1256 0.949 . S
C1251 H1246 0.950 . S
C1251 C1253 1.327 . S
C1251 C1257 1.429 . S
C1252 C1244 1.574 . S
C1252 H1247 0.949 . S
C1252 C1258 1.368 1_455 S
C1253 C1237 1.349 . S
C1253 H1245 0.950 . S
C1253 C1251 1.327 . S
C1254 C1242 1.349 . S
C1254 H1248 0.950 . S
C1254 C1255 1.327 . S
C1255 H1249 0.950 . S
C1255 C1254 1.327 . S
C1255 C1259 1.429 . S
C1256 C1239 1.574 . S
C1256 H1250 0.949 . S
C1256 C1260 1.368 1_655 S
C1257 C1238 1.429 . S
C1257 C1251 1.429 . S
C1257 C1258 1.523 . S
C1258 C1239 1.368 1_545 S
C1258 C1252 1.368 1_655 S
C1258 C1257 1.523 . S
C1259 C1243 1.429 . S
C1259 C1255 1.429 . S
C1259 C1260 1.523 . S
C1260 C1244 1.368 1_565 S
C1260 C1256 1.368 1_455 S
C1260 C1259 1.523 . S
H1261 C1236 0.950 . S
H1262 C1238 0.950 . S
H1263 C1239 0.949 . S
H1264 C1241 0.950 . S
H1265 C1243 0.950 . S
C1266 C1267 1.349 . S
C1266 C1268 1.327 . S
C1266 H1291 0.950 . S
C1267 C1266 1.349 . S
C1267 C1283 1.349 . S
C1268 C1266 1.327 . S
C1268 C1287 1.429 . S
C1268 H1292 0.950 . S
C1269 C1286 1.574 1_455 S
C1269 C1288 1.368 1_565 S
C1269 H1293 0.949 . S
H1270 C1274 0.949 . S
C1271 C1272 1.349 . S
C1271 C1273 1.327 . S
C1271 H1294 0.950 . S
C1272 C1271 1.349 . S
C1272 C1284 1.349 . S
C1273 C1271 1.327 . S
C1273 C1289 1.429 . S
C1273 H1295 0.950 . S
C1274 H1270 0.949 . S
C1274 C1282 1.574 1_655 S
C1274 C1290 1.368 1_545 S
H1275 C1283 0.950 . S
H1276 C1281 0.950 . S
H1277 C1282 0.949 . S
H1278 C1284 0.950 . S
H1279 C1285 0.950 . S
H1280 C1286 0.949 . S
C1281 H1276 0.950 . S
C1281 C1283 1.327 . S
C1281 C1287 1.429 . S
C1282 C1274 1.574 1_455 S
C1282 H1277 0.949 . S
C1282 C1288 1.368 . S
C1283 C1267 1.349 . S
C1283 H1275 0.950 . S
C1283 C1281 1.327 . S
C1284 C1272 1.349 . S
C1284 H1278 0.950 . S
C1284 C1285 1.327 . S
C1285 H1279 0.950 . S
C1285 C1284 1.327 . S
C1285 C1289 1.429 . S
C1286 C1269 1.574 1_655 S
C1286 H1280 0.949 . S
C1286 C1290 1.368 . S
C1287 C1268 1.429 . S
C1287 C1281 1.429 . S
C1287 C1288 1.523 . S
C1288 C1269 1.368 1_545 S
C1288 C1282 1.368 . S
C1288 C1287 1.523 . S
C1289 C1273 1.429 . S
C1289 C1285 1.429 . S
C1289 C1290 1.523 . S
C1290 C1274 1.368 1_565 S
C1290 C1286 1.368 . S
C1290 C1289 1.523 . S
H1291 C1266 0.950 . S
H1292 C1268 0.950 . S
H1293 C1269 0.949 . S
H1294 C1271 0.950 . S
H1295 C1273 0.950 . S
C397 N14 1.668 . S
C402 N245 1.668 . S
C427 N47 1.668 . S
C432 N278 1.668 . S
C457 N80 1.668 . S
C462 N311 1.668 . S
C487 N344 1.668 . S
C492 N113 1.668 . S
C517 N377 1.668 . S
C522 N146 1.668 . S
C547 N179 1.668 . S
C552 N212 1.668 . S
C577 C127 1.613 . S
C582 C28 1.613 . S
C607 C61 1.613 . S
C612 C160 1.613 . S
C637 C193 1.613 . S
C642 C94 1.613 . S
C667 C325 1.613 . S
C672 C226 1.613 . S
C697 C358 1.613 . S
C702 C259 1.613 . S
C727 C292 1.613 . S
C732 C391 1.613 . S
C757 N269 1.559 . S
C762 N5 1.559 . S
C787 N38 1.559 . S
C792 N302 1.559 . S
C817 N71 1.559 . S
C822 N335 1.559 . S
C847 N104 1.558 . S
C852 N368 1.558 . S
C877 N137 1.558 . S
C882 N203 1.558 . S
C907 N236 1.558 . S
C912 N170 1.558 . S
C937 C116 1.030 . S
C942 C17 1.030 . S
C967 C50 1.030 . S
C972 C149 1.030 . S
C997 C182 1.030 . S
C1002 C83 1.030 . S
C1027 C215 1.030 . S
C1032 C314 1.030 . S
C1057 C248 1.030 . S
C1062 C347 1.030 . S
C1087 C380 1.030 . S
C1092 C281 1.030 . S
C1117 C8 1.212 . S
C1122 C107 1.212 . S
C1147 C41 1.212 . S
C1152 C140 1.212 . S
C1177 C74 1.212 . S
C1182 C173 1.212 . S
C1207 C206 1.212 . S
C1212 C305 1.212 . S
C1237 C338 1.212 . S
C1242 C239 1.212 . S
C1267 C272 1.212 . S
C1272 C371 1.212 . S
