# Generated by pormake.
# Topology wme, (6)-cn, num edge types: 1
# Building blocks:
#     Node 0, Type 0, BuildingBlock: KUMBUR_clean_sbu_0, # of connection points: 6
#     Node 1, Type 0, BuildingBlock: KUMBUR_clean_sbu_0, # of connection points: 6
#     Node 2, Type 0, BuildingBlock: KUMBUR_clean_sbu_0, # of connection points: 6
#     Node 3, Type 0, BuildingBlock: KUMBUR_clean_sbu_0, # of connection points: 6
#     Node 4, Type 0, BuildingBlock: KUMBUR_clean_sbu_0, # of connection points: 6
#     Node 5, Type 0, BuildingBlock: KUMBUR_clean_sbu_0, # of connection points: 6
#     Node 6, Type 0, BuildingBlock: KUMBUR_clean_sbu_0, # of connection points: 6
#     Node 7, Type 0, BuildingBlock: KUMBUR_clean_sbu_0, # of connection points: 6
#     Node 8, Type 0, BuildingBlock: KUMBUR_clean_sbu_0, # of connection points: 6
#     Node 9, Type 0, BuildingBlock: KUMBUR_clean_sbu_0, # of connection points: 6
#     Node 10, Type 0, BuildingBlock: KUMBUR_clean_sbu_0, # of connection points: 6
#     Node 11, Type 0, BuildingBlock: KUMBUR_clean_sbu_0, # of connection points: 6
#     Edge 12, Type (0, 0), None
#     Edge 13, Type (0, 0), None
#     Edge 14, Type (0, 0), None
#     Edge 15, Type (0, 0), None
#     Edge 16, Type (0, 0), None
#     Edge 17, Type (0, 0), None
#     Edge 18, Type (0, 0), None
#     Edge 19, Type (0, 0), None
#     Edge 20, Type (0, 0), None
#     Edge 21, Type (0, 0), None
#     Edge 22, Type (0, 0), None
#     Edge 23, Type (0, 0), None
#     Edge 24, Type (0, 0), None
#     Edge 25, Type (0, 0), None
#     Edge 26, Type (0, 0), None
#     Edge 27, Type (0, 0), None
#     Edge 28, Type (0, 0), None
#     Edge 29, Type (0, 0), None
#     Edge 30, Type (0, 0), None
#     Edge 31, Type (0, 0), None
#     Edge 32, Type (0, 0), None
#     Edge 33, Type (0, 0), None
#     Edge 34, Type (0, 0), None
#     Edge 35, Type (0, 0), None
#     Edge 36, Type (0, 0), None
#     Edge 37, Type (0, 0), None
#     Edge 38, Type (0, 0), None
#     Edge 39, Type (0, 0), None
#     Edge 40, Type (0, 0), None
#     Edge 41, Type (0, 0), None
#     Edge 42, Type (0, 0), None
#     Edge 43, Type (0, 0), None
#     Edge 44, Type (0, 0), None
#     Edge 45, Type (0, 0), None
#     Edge 46, Type (0, 0), None
#     Edge 47, Type (0, 0), None
# Relax obj value: 0.087
# Max RMSD: 0.245
# Mean RMSD: 0.245
data_MOF--net-wme--node1-KUMBUR_clean_sbu_0--edge1-none
_symmetry_space_group_name_H-M    P1
_symmetry_Int_Tables_number       1
_symmetry_cell_setting            triclinic
loop_
_symmetry_equiv_pos_as_xyz
'x, y, z'
_cell_length_a     22.276377
_cell_length_b     22.254925
_cell_length_c     24.153154
_cell_angle_alpha  90.066216
_cell_angle_beta   89.883181
_cell_angle_gamma 119.97534
loop_
_atom_site_label
_atom_site_type_symbol
_atom_site_fract_x
_atom_site_fract_y
_atom_site_fract_z
_atom_type_partial_charge
Tb0 Tb 0.15732 0.38224 0.04497 0.0
C1 C 0.38808 0.34257 0.16723 0.0
C2 C 0.47423 0.34366 0.10724 0.0
C3 C 0.49794 0.3614 0.20374 0.0
C4 C 0.40512 0.329 0.1164 0.0
C5 C 0.44228 0.37412 0.20645 0.0
C6 C 0.51343 0.34367 0.15245 0.0
C7 C 0.40646 0.458 0.2237 0.0
N8 N 0.33754 0.35968 0.16373 0.0
C9 C 0.35042 0.42121 0.18888 0.0
C10 C 0.45264 0.43476 0.2317 0.0
Tb11 Tb 0.25313 0.29702 0.09401 0.0
N12 N 0.37029 0.34175 0.07688 0.0
C13 C 0.40831 0.3924 0.03924 0.0
C14 C 0.50978 0.38534 0.06209 0.0
C15 C 0.4783 0.41461 0.0312 0.0
H16 H 0.31793 0.44357 0.1826 0.0
H17 H 0.508 0.45458 0.00171 0.0
H18 H 0.56428 0.34942 0.14643 0.0
H19 H 0.41602 0.50645 0.24194 0.0
H20 H 0.38339 0.41297 0.01413 0.0
H21 H 0.89792 0.16743 0.09737 0.0
H22 H 0.56475 0.4049 0.05672 0.0
H23 H 0.08674 0.36295 0.90708 0.0
H24 H 0.05052 0.34027 0.09527 0.0
H25 H 0.11954 0.43345 0.84656 0.0
H26 H 0.53731 0.38033 0.2357 0.0
H27 H 0.81774 0.18906 0.0275 0.0
H28 H 0.86302 0.3161 -0.00714 0.0
H29 H 0.50067 0.46852 0.25255 0.0
H30 H 0.94584 0.4294 0.92318 0.0
N31 N 0.04687 0.37037 0.08075 0.0
C32 C 1.01763 0.28462 0.10299 0.0
C33 C 0.87252 0.22527 0.02303 0.0
C34 C 0.89557 0.3149 -0.00586 0.0
C35 C 0.93022 0.21019 0.07281 0.0
C36 C 0.97581 0.38877 0.01141 0.0
H37 H 1.01421 0.50269 0.84243 0.0
N38 N 0.0588 0.33928 0.93097 0.0
C39 C 0.09267 0.46122 0.83827 0.0
C40 C 0.97521 0.35374 0.94791 0.0
C41 C 0.11695 0.40658 0.86575 0.0
C42 C 1.02281 0.46337 0.86081 0.0
C43 C 0.96634 0.41552 0.91499 0.0
O44 O 0.22847 0.4923 0.04141 0.0
O45 O 0.26074 0.38766 0.05497 0.0
O46 O 0.23276 0.3181 0.1762 0.0
O47 O 0.15499 0.35506 0.14723 0.0
O48 O 0.25207 0.4652 0.08401 0.0
O49 O 0.15872 0.45969 0.10569 0.0
O50 O 0.20267 0.21049 0.14329 0.0
O51 O 0.153 0.29455 0.08288 0.0
O52 O 0.2253 0.33169 -0.00459 0.0
O53 O 0.29045 0.28197 0.01908 0.0
O54 O 0.16179 0.21825 0.04834 0.0
O55 O 0.24763 0.20398 0.06672 0.0
C56 C 0.29777 0.44569 0.08117 0.0
C57 C 0.22401 0.59451 0.07995 0.0
C58 C 0.17719 0.67882 0.06499 0.0
C59 C 0.18443 0.62728 0.09972 0.0
C60 C 0.19897 0.68567 0.01041 0.0
C61 C 0.2659 0.63207 0.03479 0.0
C62 C 0.24747 0.66789 -0.0031 0.0
C63 C 0.19551 0.34644 0.18978 0.0
C64 C 0.21148 0.51546 0.08429 0.0
C65 C 0.91445 0.42534 0.95064 0.0
C66 C 0.87147 0.36647 -0.01069 0.0
C67 C 0.11666 0.23405 0.06336 0.0
C68 C 0.18358 0.10041 0.11855 0.0
C69 C 0.15846 0.04485 0.08013 0.0
C70 C 0.15421 0.98283 0.09857 0.0
C71 C 0.16109 0.9762 0.15532 0.0
C72 C 0.21456 0.09593 0.1663 0.0
C73 C 0.2027 0.03358 0.18525 0.0
C74 C 0.26534 0.2999 -0.02364 0.0
C75 C 0.20213 0.16998 0.10438 0.0
H76 H 0.15936 0.61259 0.13961 0.0
H77 H 0.19163 0.71869 -0.01836 0.0
H78 H 0.29411 0.6138 0.01556 0.0
H79 H 0.27118 0.68084 0.95613 0.0
H80 H 0.15021 0.05222 0.03704 0.0
H81 H 0.14837 0.92947 0.17425 0.0
H82 H 0.25875 0.14258 0.18152 0.0
H83 H 0.23553 0.03094 0.21608 0.0
Tb84 Tb 0.79384 0.14811 0.54541 0.0
C85 C 0.0646 0.37969 0.66707 0.0
C86 C 0.1493 0.46608 0.60716 0.0
C87 C 0.15531 0.48989 0.70365 0.0
C88 C 0.09508 0.3968 0.61622 0.0
C89 C 0.08715 0.43393 0.70639 0.0
C90 C 0.18845 0.50541 0.65237 0.0
C91 C 0.96754 0.39703 0.72457 0.0
N92 N 0.99711 0.3288 0.6637 0.0
C93 C 0.94842 0.34098 0.68962 0.0
C94 C 0.03684 0.44385 0.73201 0.0
Tb95 Tb 0.97553 0.24438 0.59373 0.0
N96 N 0.04753 0.3618 0.57671 0.0
C97 C 0.03478 0.39974 0.53912 0.0
C98 C 0.1429 0.5016 0.56219 0.0
C99 C 0.08237 0.46982 0.53111 0.0
H100 H 0.89359 0.30811 0.68373 0.0
H101 H 0.07213 0.49943 0.50151 0.0
H102 H 0.2334 0.55639 0.64637 0.0
H103 H 0.92859 0.40617 0.74321 0.0
H104 H 0.98933 0.3747 0.51401 0.0
H105 H 0.74957 0.88802 0.59814 0.0
H106 H 0.17788 0.55672 0.55713 0.0
H107 H 0.74233 0.07749 0.40786 0.0
H108 H 0.72925 0.04076 0.59596 0.0
H109 H 0.70424 0.11012 0.34759 0.0
H110 H 0.17563 0.52932 0.73564 0.0
H111 H 0.64824 0.80772 0.52822 0.0
H112 H 0.56667 0.85253 0.49269 0.0
H113 H 0.05101 0.49199 0.75282 0.0
H114 H 0.53545 0.93532 0.42407 0.0
N115 N 0.69546 0.03699 0.58149 0.0
C116 C 0.75212 1.00793 0.60362 0.0
C117 C 0.66663 0.86252 0.52368 0.0
C118 C 0.59989 0.88515 0.49472 0.0
C119 C 0.73924 0.92045 0.57344 0.0
C120 C 0.60599 0.96547 0.51206 0.0
H121 H 0.53 1.00384 0.34344 0.0
N122 N 0.73827 0.04948 0.43164 0.0
C123 C 0.64962 0.08292 0.33936 0.0
C124 C 0.64055 0.96536 0.44849 0.0
C125 C 0.72867 0.10766 0.36671 0.0
C126 C 0.57788 1.01264 0.36186 0.0
C127 C 0.56975 0.95613 0.41591 0.0
O128 O 0.75566 0.22004 0.54133 0.0
O129 O 0.89198 0.25151 0.55561 0.0
O130 O 0.93351 0.2232 0.676 0.0
O131 O 0.81869 0.14514 0.64745 0.0
O132 O 0.80613 0.24283 0.5855 0.0
O133 O 0.71781 0.15038 0.60558 0.0
O134 O 1.01373 0.19694 0.6437 0.0
O135 O 0.87797 0.14393 0.58221 0.0
O136 O 0.91226 0.21686 0.49615 0.0
O137 O 1.02726 0.28196 0.5185 0.0
O138 O 0.96307 0.15337 0.54731 0.0
O139 O 0.06216 0.23742 0.56542 0.0
C140 C 0.8713 0.28848 0.5823 0.0
C141 C 0.64867 0.21581 0.5791 0.0
C142 C 0.51742 0.16873 0.56453 0.0
C143 C 0.57645 0.17658 0.59921 0.0
C144 C 0.53187 0.18969 0.50978 0.0
C145 C 0.65263 0.25668 0.53328 0.0
C146 C 0.59811 0.23732 0.49556 0.0
C147 C 0.86804 0.18552 0.68986 0.0
C148 C 0.71503 0.20311 0.58386 0.0
C149 C 0.50826 0.90318 0.45122 0.0
C150 C 0.52414 0.85985 0.48927 0.0
C151 C 0.90219 0.10785 0.56201 0.0
C152 C 0.10302 0.17532 0.61861 0.0
C153 C 0.13301 0.14977 0.58007 0.0
C154 C 0.19032 0.14476 0.59838 0.0
C155 C 0.20388 0.15159 0.65515 0.0
C156 C 0.13865 0.20615 0.66641 0.0
C157 C 0.1887 0.19363 0.68526 0.0
C158 C 0.98353 0.25704 0.4761 0.0
C159 C 0.05231 0.19436 0.60463 0.0
H160 H 0.56633 0.152 0.63926 0.0
H161 H 0.49133 0.18226 0.48119 0.0
H162 H 0.69869 0.28437 0.51333 0.0
H163 H 0.60856 0.26037 0.45458 0.0
H164 H 0.11728 0.14155 0.53701 0.0
H165 H 0.23697 0.13772 0.67413 0.0
H166 H 0.13621 0.25026 0.6821 0.0
H167 H 0.22395 0.22581 0.71649 0.0
Tb168 Tb 0.66404 0.78473 0.04473 0.0
C169 C 0.70425 0.05573 0.16759 0.0
C170 C 0.70281 0.1405 0.10765 0.0
C171 C 0.68607 0.14732 0.20428 0.0
C172 C 0.71745 0.08599 0.11667 0.0
C173 C 0.67306 0.0788 0.20699 0.0
C174 C 0.70341 0.18016 0.15287 0.0
C175 C 0.58862 0.95927 0.22404 0.0
N176 N 0.68686 0.98796 0.16412 0.0
C177 C 0.62523 0.93961 0.1892 0.0
C178 C 0.61231 0.02882 0.23224 0.0
Tb179 Tb 0.74916 0.96564 0.09434 0.0
N180 N 0.70426 0.03804 0.07725 0.0
C181 C 0.65328 0.02523 0.03997 0.0
C182 C 0.66051 0.13397 0.06295 0.0
C183 C 0.63097 0.07302 0.03222 0.0
H184 H 0.60272 0.88471 0.18289 0.0
H185 H 0.5907 0.06268 0.00309 0.0
H186 H 0.69777 0.22536 0.14691 0.0
H187 H 0.54009 0.92063 0.24224 0.0
H188 H 0.63257 0.97968 0.01482 0.0
H189 H 0.87806 0.73985 0.0977 0.0
H190 H 0.64069 0.16924 0.05795 0.0
H191 H 0.68378 0.73405 0.9064 0.0
H192 H 0.70553 0.71957 0.09492 0.0
H193 H 0.61309 0.69582 0.84599 0.0
H194 H 0.66752 0.16811 0.23637 0.0
H195 H 0.85804 0.63939 0.027 0.0
H196 H 0.7318 0.55769 -0.00886 0.0
H197 H 0.5788 0.04345 0.25324 0.0
H198 H 0.61794 0.52655 0.9227 0.0
N199 N 0.67568 0.68592 0.08019 0.0
C200 C 0.76107 0.74241 0.10284 0.0
C201 C 0.82168 0.65776 0.0224 0.0
C202 C 0.73245 0.59101 -0.00695 0.0
C203 C 0.83589 0.72997 0.07268 0.0
C204 C 0.65814 0.59707 0.01033 0.0
H205 H 0.54388 0.52122 0.84252 0.0
N206 N 0.70744 0.72977 0.93029 0.0
C207 C 0.58542 0.64112 0.83778 0.0
C208 C 0.69327 0.63179 0.94712 0.0
C209 C 0.63998 0.72029 0.86513 0.0
C210 C 0.5834 0.56923 0.86055 0.0
C211 C 0.63149 0.56094 0.91456 0.0
O212 O 0.55405 0.74566 0.04123 0.0
O213 O 0.65851 0.88264 0.05528 0.0
O214 O 0.72778 0.92408 0.17633 0.0
O215 O 0.69112 0.80947 0.14695 0.0
O216 O 0.58125 0.79637 0.08442 0.0
O217 O 0.58657 0.7083 0.1052 0.0
O218 O 0.83541 1.00208 0.14397 0.0
O219 O 0.7516 0.86788 0.08282 0.0
O220 O 0.71426 0.90326 -0.00472 0.0
O221 O 0.76394 1.01826 0.01992 0.0
O222 O 0.82774 0.95292 0.04827 0.0
O223 O 0.84251 0.0521 0.0667 0.0
C224 C 0.6005 0.8615 0.08156 0.0
C225 C 0.4519 0.63871 0.07939 0.0
C226 C 0.36745 0.50762 0.06402 0.0
C227 C 0.41908 0.56625 0.09885 0.0
C228 C 0.36045 0.52272 0.00957 0.0
C229 C 0.41449 0.64329 0.03435 0.0
C230 C 0.37853 0.58918 -0.00367 0.0
C231 C 0.6995 0.85849 0.18965 0.0
C232 C 0.53083 0.7053 0.08393 0.0
C233 C 0.62278 0.49915 0.94965 0.0
C234 C 0.68201 0.51508 -0.01236 0.0
C235 C 0.81205 0.89201 0.06321 0.0
C236 C 0.94512 0.09369 0.11943 0.0
C237 C 1.00104 0.12337 0.08134 0.0
C238 C 0.0628 0.18128 0.09967 0.0
C239 C 0.06884 0.19562 0.15633 0.0
C240 C 0.94889 0.13021 0.16653 0.0
C241 C 1.01112 0.18087 0.18562 0.0
C242 C 0.74605 0.97541 -0.02302 0.0
C243 C 0.87625 0.0415 0.10503 0.0
H244 H 0.43383 0.5557 0.13857 0.0
H245 H 0.32686 0.48243 -0.01908 0.0
H246 H 0.43294 0.68978 0.01526 0.0
H247 H 0.36533 0.60015 0.95579 0.0
H248 H 0.99422 0.10685 0.03845 0.0
H249 H 0.11555 0.22905 0.17551 0.0
H250 H 0.90197 0.12747 0.1816 0.0
H251 H 1.0136 0.21653 0.21644 0.0
Tb252 Tb 0.89806 0.65484 0.54582 0.0
C253 C 0.66687 0.69131 0.66533 0.0
C254 C 0.58004 0.69155 0.60762 0.0
C255 C 0.5578 0.672 0.70426 0.0
C256 C 0.64932 0.70624 0.6153 0.0
C257 C 0.61378 0.6597 0.70552 0.0
C258 C 0.54167 0.69088 0.65382 0.0
C259 C 0.65259 0.5782 0.7229 0.0
N260 N 0.71763 0.67471 0.66049 0.0
C261 C 0.70763 0.61508 0.68703 0.0
C262 C 0.6055 0.60027 0.73148 0.0
Tb263 Tb 0.80061 0.73899 0.59042 0.0
N264 N 0.68334 0.69393 0.5746 0.0
C265 C 0.64432 0.64183 0.5384 0.0
C266 C 0.54358 0.64962 0.56285 0.0
C267 C 0.57433 0.61979 0.53144 0.0
H268 H 0.74177 0.59449 0.68126 0.0
H269 H 0.54418 0.57906 0.50277 0.0
H270 H 0.49076 0.68528 0.64895 0.0
H271 H 0.64466 0.53067 0.74175 0.0
H272 H 0.66845 0.62012 0.51354 0.0
H273 H 0.14993 0.8661 0.60966 0.0
H274 H 0.48848 0.62987 0.55855 0.0
H275 H 0.96841 0.67559 0.40841 0.0
H276 H 1.01612 0.7585 0.64467 0.0
H277 H 0.93634 0.60488 0.34792 0.0
H278 H 0.51903 0.65271 0.73677 0.0
H279 H 0.23658 0.85175 0.53326 0.0
H280 H 0.1928 0.72582 0.49403 0.0
H281 H 0.55822 0.56622 0.75315 0.0
H282 H 0.11121 0.61173 0.42478 0.0
N283 N 1.00794 0.66548 0.5823 0.0
C284 C 0.03652 0.75019 0.60692 0.0
C285 C 0.18206 0.81473 0.52856 0.0
C286 C 0.1606 0.72655 0.49599 0.0
C287 C 0.12287 0.82584 0.58024 0.0
C288 C 0.07996 0.65059 0.51169 0.0
H289 H 0.04309 0.53717 0.3441 0.0
N290 N 0.99631 0.69953 0.43237 0.0
C291 C 0.96371 0.57751 0.33974 0.0
C292 C 0.08024 0.68652 0.44928 0.0
C293 C 0.93859 0.6318 0.36713 0.0
C294 C 0.03401 0.5762 0.3625 0.0
C295 C 0.09013 0.62486 0.41675 0.0
O296 O 0.82874 0.54472 0.54425 0.0
O297 O 0.79381 0.64764 0.55364 0.0
O298 O 0.82319 0.72296 0.67398 0.0
O299 O 0.8993 0.68338 0.64723 0.0
O300 O 0.80289 0.57116 0.5839 0.0
O301 O 0.90011 0.57984 0.60715 0.0
O302 O 0.82677 0.81815 0.64355 0.0
O303 O 0.90218 0.7428 0.58216 0.0
O304 O 0.82622 0.70201 0.49802 0.0
O305 O 0.76038 0.75152 0.51603 0.0
O306 O 0.89183 0.81588 0.5435 0.0
O307 O 0.82533 0.8381 0.55667 0.0
C308 C 0.75674 0.58991 0.57996 0.0
C309 C 0.83495 0.44416 0.58279 0.0
C310 C 0.88004 0.35881 0.56578 0.0
C311 C 0.87478 0.41119 0.60109 0.0
C312 C 0.85705 0.35229 0.51168 0.0
C313 C 0.79082 0.40578 0.53915 0.0
C314 C 0.80822 0.37029 0.49994 0.0
C315 C 0.86164 0.69673 0.68915 0.0
C316 C 0.84711 0.52306 0.58708 0.0
C317 C 0.14363 0.61669 0.45169 0.0
C318 C 0.18602 0.67591 0.49038 0.0
C319 C 0.93743 0.8012 0.5592 0.0
C320 C 0.87015 0.93581 0.61814 0.0
C321 C 0.89557 0.99101 0.5793 0.0
C322 C 0.90177 0.054 0.59778 0.0
C323 C 0.89658 0.0618 0.65463 0.0
C324 C 0.84147 0.94242 0.66678 0.0
C325 C 0.8555 1.00538 0.68555 0.0
C326 C 0.78533 0.73062 0.47466 0.0
C327 C 0.84642 0.86437 0.60481 0.0
H328 H 0.90125 0.42625 0.64028 0.0
H329 H 0.86323 0.31893 0.48233 0.0
H330 H 0.76062 0.42337 0.52274 0.0
H331 H 0.78384 0.35811 0.45947 0.0
H332 H 0.90195 0.98269 0.53597 0.0
H333 H 0.90978 0.10882 0.67325 0.0
H334 H 0.79696 0.89709 0.68344 0.0
H335 H 0.82416 1.00913 0.71717 0.0
Tb336 Tb 0.26179 0.88851 0.04543 0.0
C337 C 0.99046 0.65732 0.16674 0.0
C338 C 0.90714 0.57064 0.1064 0.0
C339 C 0.89929 0.54717 0.20306 0.0
C340 C 0.96076 0.64009 0.11567 0.0
C341 C 0.96737 0.6032 0.20623 0.0
C342 C 0.86726 0.53125 0.15139 0.0
C343 C 0.08676 0.63949 0.22449 0.0
N344 N 0.05801 0.70809 0.1636 0.0
C345 C 0.10635 0.69538 0.18932 0.0
C346 C 1.01732 0.59324 0.2323 0.0
Tb347 Tb 0.08029 0.79263 0.09372 0.0
N348 N 1.00875 0.67541 0.07641 0.0
C349 C 1.0224 0.63793 0.03892 0.0
C350 C 0.91487 0.53528 0.06183 0.0
C351 C 0.9758 0.56764 0.03112 0.0
H352 H 0.16122 0.72791 0.18333 0.0
H353 H 0.9874 0.53849 0.00204 0.0
H354 H 0.82266 0.48011 0.14517 0.0
H355 H 0.12545 0.63014 0.24321 0.0
H356 H 0.06786 0.66339 0.01376 0.0
H357 H 0.30518 0.14693 0.09874 0.0
H358 H 0.88053 0.48005 0.05685 0.0
H359 H 0.31342 0.95829 0.9081 0.0
H360 H 0.3265 0.99552 0.0959 0.0
H361 H 0.35161 0.92601 0.8475 0.0
H362 H 0.87848 0.50788 0.23514 0.0
H363 H 0.40523 0.22777 0.02769 0.0
H364 H 0.48792 0.18403 -0.00782 0.0
H365 H 1.0029 0.54536 0.25361 0.0
H366 H 0.51995 0.1016 0.92326 0.0
N367 N 0.36037 0.99961 0.08138 0.0
C368 C 0.30316 0.02791 0.10363 0.0
C369 C 0.38724 0.17305 0.02318 0.0
C370 C 0.45469 0.15118 -0.00586 0.0
C371 C 0.31496 0.11477 0.07331 0.0
C372 C 0.44952 0.07134 0.01172 0.0
H373 H 0.52571 0.03323 0.84267 0.0
N374 N 0.31732 0.98634 0.93186 0.0
C375 C 0.40619 0.95355 0.83897 0.0
C376 C 0.41476 0.07095 0.94821 0.0
C377 C 0.32716 0.92829 0.8668 0.0
C378 C 0.4777 0.0242 0.86115 0.0
C379 C 0.48559 0.08066 0.91521 0.0
O380 O 0.30032 0.81691 0.04132 0.0
O381 O 0.16379 0.78515 0.05534 0.0
O382 O 0.12162 0.81333 0.17614 0.0
O383 O 0.23655 0.89101 0.14753 0.0
O384 O 0.24949 0.79426 0.0861 0.0
O385 O 0.338 0.88687 0.10542 0.0
O386 O 0.04315 0.84162 0.14355 0.0
O387 O 0.17793 0.89292 0.0826 0.0
O388 O 0.14332 0.82026 -0.00421 0.0
O389 O 0.02843 0.75525 0.01837 0.0
O390 O 0.09301 0.88379 0.04749 0.0
O391 O 0.99353 0.79914 0.06604 0.0
C392 C 0.18458 0.74839 0.0821 0.0
C393 C 0.4072 0.82147 0.07913 0.0
C394 C 0.53839 0.86868 0.06427 0.0
C395 C 0.47938 0.86099 0.09903 0.0
C396 C 0.52398 0.84701 0.00964 0.0
C397 C 0.4032 0.78024 0.03354 0.0
C398 C 0.45777 0.79881 -0.00417 0.0
C399 C 0.18709 0.85058 0.18997 0.0
C400 C 0.34086 0.8341 0.0838 0.0
C401 C 0.54686 0.13363 0.95051 0.0
C402 C 0.53055 0.17673 -0.01128 0.0
C403 C 0.15376 0.92902 0.06258 0.0
C404 C 0.95236 0.86085 0.11918 0.0
C405 C 0.92267 0.88696 0.08108 0.0
C406 C 0.8648 0.89098 0.09946 0.0
C407 C 0.85044 0.8829 0.15613 0.0
C408 C 0.91616 0.82869 0.16654 0.0
C409 C 0.86538 0.84022 0.18553 0.0
C410 C 0.07204 0.78012 -0.02428 0.0
C411 C 1.00394 0.84324 0.10467 0.0
H412 H 0.48951 0.88593 0.13895 0.0
H413 H 0.56461 0.85421 -0.01893 0.0
H414 H 0.35703 0.7523 0.01393 0.0
H415 H 0.44736 0.77501 0.95513 0.0
H416 H 0.93905 0.89629 0.03814 0.0
H417 H 0.81687 0.89613 0.17526 0.0
H418 H 0.91913 0.78474 0.18189 0.0
H419 H 0.82982 0.80716 0.21639 0.0
Tb420 Tb 0.3915 0.25257 0.54499 0.0
C421 C 0.35275 0.98208 0.66717 0.0
C422 C 0.35493 0.89712 0.60775 0.0
C423 C 0.37169 0.89135 0.70445 0.0
C424 C 0.33983 0.95136 0.61644 0.0
C425 C 0.38402 0.95965 0.70684 0.0
C426 C 0.35472 0.85809 0.6532 0.0
C427 C 0.46729 0.07948 0.72391 0.0
N428 N 0.36954 0.04964 0.66333 0.0
C429 C 0.43065 0.0985 0.68872 0.0
C430 C 0.44421 1.01013 0.73226 0.0
Tb431 Tb 0.30687 0.07017 0.59277 0.0
N432 N 0.35257 0.9987 0.57666 0.0
C433 C 0.40333 1.01148 0.5392 0.0
C434 C 0.39695 0.90334 0.56279 0.0
C435 C 0.42599 0.96399 0.53162 0.0
H436 H 0.4527 0.15335 0.68253 0.0
H437 H 0.4663 0.97465 0.50242 0.0
H438 H 0.36076 0.81307 0.64752 0.0
H439 H 0.51547 0.11851 0.74223 0.0
H440 H 0.42395 0.05707 0.51416 0.0
H441 H 0.17714 0.29709 0.59891 0.0
H442 H 0.41695 0.8682 0.55786 0.0
H443 H 0.37204 0.30386 0.40729 0.0
H444 H 0.34955 0.31737 0.59546 0.0
H445 H 0.44242 0.34172 0.34663 0.0
H446 H 0.3904 0.87105 0.7367 0.0
H447 H 0.19711 0.39778 0.52823 0.0
H448 H 0.32356 0.47982 0.49266 0.0
H449 H 0.47797 0.99607 0.75334 0.0
H450 H 0.43724 0.51104 0.42319 0.0
N451 N 0.37942 0.35117 0.58088 0.0
C452 C 0.29394 0.29438 0.60339 0.0
C453 C 0.23355 0.37947 0.52361 0.0
C454 C 0.32285 0.44642 0.49434 0.0
C455 C 0.2192 0.30695 0.57355 0.0
C456 C 0.39714 0.44051 0.51146 0.0
H457 H 0.51081 0.51625 0.34233 0.0
N458 N 0.34827 0.30804 0.43123 0.0
C459 C 0.46992 0.39638 0.33827 0.0
C460 C 0.36217 0.40592 0.44805 0.0
C461 C 0.4156 0.31733 0.3659 0.0
C462 C 0.47168 0.46832 0.3608 0.0
C463 C 0.42362 0.47666 0.41509 0.0
O464 O 0.50111 0.29083 0.54027 0.0
O465 O 0.39752 0.15459 0.55465 0.0
O466 O 0.32715 0.11196 0.67523 0.0
O467 O 0.36356 0.22707 0.64708 0.0
O468 O 0.47356 0.24061 0.58581 0.0
O469 O 0.46975 0.32874 0.60495 0.0
O470 O 0.21947 0.03368 0.64051 0.0
O471 O 0.30358 0.16781 0.58187 0.0
O472 O 0.3428 0.13444 0.49682 0.0
O473 O 0.29322 0.0195 0.51696 0.0
O474 O 0.22768 0.08258 0.5474 0.0
O475 O 0.21564 0.97854 0.56648 0.0
C476 C 0.45498 0.1757 0.58156 0.0
C477 C 0.60382 0.39696 0.57764 0.0
C478 C 0.68827 0.52763 0.56224 0.0
C479 C 0.63681 0.46926 0.59718 0.0
C480 C 0.69628 0.51272 0.50783 0.0
C481 C 0.64009 0.39196 0.53175 0.0
C482 C 0.67725 0.44612 0.49409 0.0
C483 C 0.35464 0.17745 0.68935 0.0
C484 C 0.52493 0.33118 0.58287 0.0
C485 C 0.43253 0.5382 0.45053 0.0
C486 C 0.37354 0.52222 0.48904 0.0
C487 C 0.24322 0.14356 0.56223 0.0
C488 C 0.10672 0.94788 0.61066 0.0
C489 C 0.05535 0.90855 0.57119 0.0
C490 C 0.99069 0.85702 0.59208 0.0
C491 C 0.97598 0.85767 0.64859 0.0
C492 C 0.09153 0.93404 0.66521 0.0
C493 C 1.02634 0.89754 0.68515 0.0
C494 C 0.31261 0.06416 0.47529 0.0
C495 C 0.18063 0.99243 0.60142 0.0
H496 H 0.62212 0.47995 0.63697 0.0
H497 H 0.73028 0.55309 0.47938 0.0
H498 H 0.62041 0.34581 0.51188 0.0
H499 H 0.69111 0.43521 0.45375 0.0
H500 H 0.06761 0.91189 0.52745 0.0
H501 H 0.92822 0.82292 0.66664 0.0
H502 H 0.13088 0.93227 0.68616 0.0
H503 H 1.01697 0.8921 0.72879 0.0
Tb504 Tb 0.66377 0.88844 0.40211 0.0
C505 C 0.70399 0.65816 0.27904 0.0
C506 C 0.70211 0.57165 0.33894 0.0
C507 C 0.6854 0.54825 0.24236 0.0
C508 C 0.7169 0.64088 0.32993 0.0
C509 C 0.67265 0.60394 0.2397 0.0
C510 C 0.70263 0.53261 0.29369 0.0
C511 C 0.58846 0.63935 0.22296 0.0
N512 N 0.68684 0.70872 0.28259 0.0
C513 C 0.62518 0.69553 0.25776 0.0
C514 C 0.61196 0.59336 0.21464 0.0
Tb515 Tb 0.74894 0.79303 0.35255 0.0
N516 N 0.70353 0.67552 0.36936 0.0
C517 C 0.65222 0.63718 0.40653 0.0
C518 C 0.65971 0.53583 0.38371 0.0
C519 C 0.63002 0.56718 0.41437 0.0
H520 H 0.60268 0.72789 0.26428 0.0
H521 H 0.5896 0.53746 0.4435 0.0
H522 H 0.69681 0.48168 0.29963 0.0
H523 H 0.53993 0.62956 0.20495 0.0
H524 H 0.63157 0.66192 0.43191 0.0
H525 H 0.87857 0.14847 0.34971 0.0
H526 H 0.63995 0.48076 0.38879 0.0
H527 H 0.68393 0.95869 0.54018 0.0
H528 H 0.7057 0.99555 0.35201 0.0
H529 H 0.61379 0.92583 0.60105 0.0
H530 H 0.66671 0.5089 0.21031 0.0
H531 H 0.85696 0.22851 0.42022 0.0
H532 H 0.73013 0.18288 0.45557 0.0
H533 H 0.57833 0.54525 0.19375 0.0
H534 H 0.61733 0.09963 0.52553 0.0
N535 N 0.67565 0.9991 0.36684 0.0
C536 C 0.76124 0.02855 0.34403 0.0
C537 C 0.82078 0.17365 0.42448 0.0
C538 C 0.73139 0.15036 0.454 0.0
C539 C 0.8357 0.11609 0.37418 0.0
C540 C 0.65757 0.07001 0.43681 0.0
H541 H 0.54445 0.03106 0.60622 0.0
N542 N 0.70741 0.98668 0.51632 0.0
C543 C 0.58606 0.95269 0.60972 0.0
C544 C 0.69288 0.07041 0.50005 0.0
C545 C 0.64047 0.92844 0.58171 0.0
C546 C 0.58377 0.02256 0.58764 0.0
C547 C 0.63129 0.07914 0.53349 0.0
O548 O 0.55371 0.81779 0.40535 0.0
O549 O 0.65818 0.78505 0.39183 0.0
O550 O 0.72812 0.81333 0.27046 0.0
O551 O 0.69098 0.89092 0.29986 0.0
O552 O 0.58085 0.79392 0.36292 0.0
O553 O 0.58686 0.88793 0.34149 0.0
O554 O 0.83581 0.84339 0.30357 0.0
O555 O 0.75126 0.89313 0.36385 0.0
O556 O 0.71362 0.81933 0.4512 0.0
O557 O 0.76285 0.75383 0.42645 0.0
O558 O 0.82699 0.88421 0.39892 0.0
O559 O 0.8422 0.80024 0.38094 0.0
C560 C 0.60017 0.74809 0.36572 0.0
C561 C 0.45198 0.82309 0.36718 0.0
C562 C 0.36744 0.86967 0.38273 0.0
C563 C 0.41922 0.8628 0.34782 0.0
C564 C 0.36056 0.84758 0.43721 0.0
C565 C 0.41417 0.78075 0.41202 0.0
C566 C 0.37834 0.79894 0.45023 0.0
C567 C 0.69963 0.85045 0.25716 0.0
C568 C 0.53086 0.83517 0.36261 0.0
C569 C 0.62115 0.13098 0.49826 0.0
C570 C 0.67975 0.17425 0.45944 0.0
C571 C 0.8115 0.92944 0.38362 0.0
C572 C 0.94548 0.86215 0.3286 0.0
C573 C 1.00117 0.88791 0.36682 0.0
C574 C 0.06312 0.89199 0.3484 0.0
C575 C 0.06938 0.8841 0.29167 0.0
C576 C 0.94965 0.83029 0.28112 0.0
C577 C 1.01188 0.84184 0.2621 0.0
C578 C 0.74462 0.77832 0.46986 0.0
C579 C 0.87628 0.8449 0.34278 0.0
H580 H 0.43399 0.88811 0.30807 0.0
H581 H 0.32714 0.85443 0.4661 0.0
H582 H 0.43231 0.75227 0.43078 0.0
H583 H 0.36519 0.77476 0.4908 0.0
H584 H 0.99403 0.89705 0.4098 0.0
H585 H 0.11601 0.89698 0.27249 0.0
H586 H 0.90286 0.78624 0.26592 0.0
H587 H 1.01438 0.80874 0.2313 0.0
Tb588 Tb 0.79381 0.6558 0.90131 0.0
C589 C 0.05896 0.68837 0.7793 0.0
C590 C 0.14795 0.69164 0.83643 0.0
C591 C 0.14811 0.6684 0.74019 0.0
C592 C 0.09263 0.7052 0.82879 0.0
C593 C 0.07973 0.65586 0.73949 0.0
C594 C 0.18449 0.68948 0.78996 0.0
C595 C 0.95913 0.57481 0.72291 0.0
N596 N 0.99176 0.67196 0.78464 0.0
C597 C 0.9416 0.61248 0.75851 0.0
C598 C 0.02811 0.59636 0.71394 0.0
Tb599 Tb 0.97505 0.73871 0.85325 0.0
N600 N 0.04714 0.69382 0.86989 0.0
C601 C 0.03551 0.64322 0.90717 0.0
C602 C 0.14445 0.652 0.88228 0.0
C603 C 0.08449 0.62244 0.91443 0.0
H604 H 0.88704 0.59273 0.76446 0.0
H605 H 0.07534 0.58298 0.94396 0.0
H606 H 0.2303 0.68467 0.79459 0.0
H607 H 0.91921 0.52727 0.70439 0.0
H608 H 0.99002 0.62177 0.93243 0.0
H609 H 0.74863 0.86789 0.84506 0.0
H610 H 0.18064 0.63328 0.88696 0.0
H611 H 0.74268 0.67464 0.03906 0.0
H612 H 0.72861 0.69673 0.85078 0.0
H613 H 0.70477 0.6039 0.09945 0.0
H614 H 0.1671 0.64833 0.70788 0.0
H615 H 0.64861 0.84972 0.91788 0.0
H616 H 0.56681 0.72313 0.95415 0.0
H617 H 0.04086 0.56208 0.69208 0.0
H618 H 0.53565 0.60911 0.02321 0.0
N619 N 0.69501 0.66685 0.86549 0.0
C620 C 0.75158 0.75224 0.84256 0.0
C621 C 0.66683 0.81319 0.92233 0.0
C622 C 0.60015 0.72398 0.95226 0.0
C623 C 0.739 0.827 0.87189 0.0
C624 C 0.60612 0.64948 0.9353 0.0
H625 H 0.53031 0.53509 0.10374 0.0
N626 N 0.73847 0.69852 0.01524 0.0
C627 C 0.65013 0.57624 0.10778 0.0
C628 C 0.64079 0.68454 -0.00144 0.0
C629 C 0.7292 0.63088 0.08025 0.0
C630 C 0.57821 0.5744 0.08534 0.0
C631 C 0.56996 0.6227 0.03129 0.0
O632 O 0.75354 0.54552 0.90357 0.0
O633 O 0.89104 0.64861 0.89191 0.0
O634 O 0.93317 0.72014 0.77109 0.0
O635 O 0.81917 0.68604 0.79954 0.0
O636 O 0.80478 0.57149 0.86353 0.0
O637 O 0.71758 0.57952 0.83992 0.0
O638 O 1.02735 0.81648 0.79495 0.0
O639 O 0.87893 0.7444 0.86524 0.0
O640 O 0.91272 0.70403 0.94965 0.0
O641 O 1.02757 0.75271 0.92825 0.0
O642 O 0.96554 0.81895 0.89945 0.0
O643 O 0.05228 0.83552 0.88297 0.0
C644 C 0.86978 0.59027 0.86639 0.0
C645 C 0.64708 0.44388 0.86501 0.0
C646 C 0.51635 0.35829 0.88188 0.0
C647 C 0.5742 0.4106 0.84657 0.0
C648 C 0.5327 0.35156 0.93601 0.0
C649 C 0.65268 0.40607 0.90921 0.0
C650 C 0.59956 0.37018 0.94815 0.0
C651 C 0.86851 0.69563 0.75696 0.0
C652 C 0.71377 0.52308 0.86065 0.0
C653 C 0.50836 0.61383 -0.00392 0.0
C654 C 0.52439 0.67305 0.95776 0.0
C655 C 0.90442 0.80432 0.88668 0.0
C656 C 0.10675 0.93349 0.82363 0.0
C657 C 0.13251 0.9882 0.86336 0.0
C658 C 0.18958 0.05243 0.84686 0.0
C659 C 0.20566 0.0605 0.79059 0.0
C660 C 0.14901 0.94071 0.77934 0.0
C661 C 0.19788 1.00488 0.76186 0.0
C662 C 0.98353 0.73415 0.97068 0.0
C663 C 0.05819 0.86172 0.83459 0.0
H664 H 0.56284 0.42545 0.80725 0.0
H665 H 0.49313 0.31795 0.96522 0.0
H666 H 0.70007 0.42448 0.92649 0.0
H667 H 0.61159 0.35761 -0.01146 0.0
H668 H 0.11439 0.97892 0.90586 0.0
H669 H 0.23601 0.10818 0.77163 0.0
H670 H 0.14703 0.89562 0.75991 0.0
H671 H 0.23326 1.01059 0.72956 0.0
Tb672 Tb 0.15734 0.78536 0.40316 0.0
C673 C 0.38817 0.05571 0.27978 0.0
C674 C 0.47446 0.14009 0.33984 0.0
C675 C 0.4981 0.14699 0.2433 0.0
C676 C 0.40526 0.08582 0.33074 0.0
C677 C 0.44249 0.07857 0.24052 0.0
C678 C 0.51354 0.1798 0.2947 0.0
C679 C 0.40696 0.95892 0.22328 0.0
N680 N 0.3376 0.98801 0.28309 0.0
C681 C 0.3506 0.93947 0.25792 0.0
C682 C 0.45319 0.02841 0.21546 0.0
Tb683 Tb 0.2531 0.96577 0.35286 0.0
N684 N 0.37042 0.03778 0.37005 0.0
C685 C 0.40846 0.02478 0.40737 0.0
C686 C 0.51022 0.13304 0.38429 0.0
C687 C 0.47859 0.07213 0.41499 0.0
H688 H 0.31804 0.8846 0.2642 0.0
H689 H 0.50834 0.06139 0.44398 0.0
H690 H 0.56441 0.22484 0.30073 0.0
H691 H 0.41669 0.92013 0.20505 0.0
H692 H 0.38351 0.97945 0.4327 0.0
H693 H 0.89812 0.74063 0.34932 0.0
H694 H 0.56535 0.16784 0.38911 0.0
H695 H 0.08607 0.73439 0.54222 0.0
H696 H 0.05064 0.72083 0.3528 0.0
H697 H 0.11855 0.69432 0.60162 0.0
H698 H 0.53753 0.16763 0.2113 0.0
H699 H 0.81761 0.63968 0.41945 0.0
H700 H 0.86269 0.55882 0.45606 0.0
H701 H 0.50141 0.04292 0.19472 0.0
H702 H 0.94504 0.52667 0.52308 0.0
N703 N 0.047 0.6873 0.3675 0.0
C704 C 1.01777 0.74348 0.34471 0.0
C705 C 0.8723 0.65833 0.42447 0.0
C706 C 0.89499 0.59172 0.4541 0.0
C707 C 0.93029 0.73063 0.37444 0.0
C708 C 0.97594 0.59829 0.43719 0.0
H709 H 1.01418 0.51966 0.60225 0.0
N710 N 0.05817 0.7302 0.51852 0.0
C711 C 0.09189 0.63939 0.60885 0.0
C712 C 0.9749 0.63253 0.50039 0.0
C713 C 0.11603 0.7192 0.58313 0.0
C714 C 1.02251 0.56802 0.58506 0.0
C715 C 0.96614 0.56086 0.53148 0.0
O716 O 0.22816 0.74606 0.40629 0.0
O717 O 0.2608 0.88302 0.39206 0.0
O718 O 0.23266 0.92425 0.27087 0.0
O719 O 0.15479 0.80985 0.30063 0.0
O720 O 0.25177 0.79639 0.36369 0.0
O721 O 0.1585 0.70922 0.34224 0.0
O722 O 0.2031 1.0023 0.30379 0.0
O723 O 0.1529 0.86831 0.36476 0.0
O724 O 0.22603 0.90306 0.45343 0.0
O725 O 0.29103 1.01814 0.42689 0.0
O726 O 0.16234 0.95352 0.39954 0.0
O727 O 0.24733 0.05301 0.38051 0.0
C728 C 0.29756 0.86162 0.36588 0.0
C729 C 0.22341 0.63921 0.36769 0.0
C730 C 0.17696 0.50799 0.38251 0.0
C731 C 0.18397 0.56685 0.34792 0.0
C732 C 0.19861 0.52287 0.43705 0.0
C733 C 0.26532 0.64352 0.41273 0.0
C734 C 0.24684 0.58922 0.45059 0.0
C735 C 0.19513 0.85866 0.25766 0.0
C736 C 0.21121 0.70601 0.36336 0.0
C737 C 0.91223 0.49927 0.49654 0.0
C738 C 0.8689 0.51567 0.45918 0.0
C739 C 0.11693 0.89274 0.38457 0.0
C740 C 0.18522 0.09394 0.32841 0.0
C741 C 0.15936 0.12389 0.36661 0.0
C742 C 0.15515 0.18158 0.34817 0.0
C743 C 0.16296 0.19559 0.29145 0.0
C744 C 0.21711 0.12982 0.28091 0.0
C745 C 0.20537 0.18041 0.26186 0.0
C746 C 0.26676 0.97584 0.47023 0.0
C747 C 0.20231 0.04205 0.34272 0.0
H748 H 0.15905 0.55654 0.30805 0.0
H749 H 0.19184 0.48245 0.46561 0.0
H750 H 0.29339 0.68993 0.43204 0.0
H751 H 0.27071 0.59994 0.49122 0.0
H752 H 0.15016 0.10771 0.40959 0.0
H753 H 0.14972 0.22908 0.27231 0.0
H754 H 0.26083 0.12659 0.26533 0.0
H755 H 0.23796 0.21564 0.23065 0.0
Tb756 Tb 0.39101 0.14747 0.90181 0.0
C757 C 0.351 0.3783 0.7798 0.0
C758 C 0.35237 0.46471 0.83962 0.0
C759 C 0.36979 0.48823 0.7431 0.0
C760 C 0.33756 0.39546 0.83065 0.0
C761 C 0.38256 0.43256 0.7405 0.0
C762 C 0.3521 0.50376 0.79437 0.0
C763 C 0.46629 0.39666 0.72317 0.0
N764 N 0.36803 0.32765 0.78332 0.0
C765 C 0.42939 0.34042 0.75792 0.0
C766 C 0.4433 0.44308 0.71539 0.0
Tb767 Tb 0.30549 0.2434 0.85346 0.0
N768 N 0.35046 0.36072 0.8702 0.0
C769 C 0.40142 0.39887 0.90747 0.0
C770 C 0.39469 0.50055 0.88433 0.0
C771 C 0.42398 0.46904 0.91516 0.0
H772 H 0.4516 0.30776 0.76401 0.0
H773 H 0.46425 0.49887 0.94432 0.0
H774 H 0.35784 0.55467 0.80029 0.0
H775 H 0.5147 0.40622 0.7049 0.0
H776 H 0.42216 0.37401 0.93246 0.0
H777 H 0.17603 0.88476 0.85236 0.0
H778 H 0.41466 0.55567 0.8893 0.0
H779 H 0.37119 0.07747 0.04001 0.0
H780 H 0.34888 0.04 0.85209 0.0
H781 H 0.44133 0.11113 0.10067 0.0
H782 H 0.38869 0.52761 0.71108 0.0
H783 H 0.2 0.80678 0.92134 0.0
H784 H 0.32704 0.85362 0.95567 0.0
H785 H 0.47719 0.49137 0.69476 0.0
H786 H 0.43933 0.93772 0.02539 0.0
N787 N 0.37936 0.03682 0.86672 0.0
C788 C 0.29329 1.00646 0.84468 0.0
C789 C 0.23586 0.86175 0.92534 0.0
C790 C 0.32557 0.88607 0.95402 0.0
C791 C 0.21956 0.91844 0.87553 0.0
C792 C 0.39859 0.9666 0.93652 0.0
H793 H 0.51194 1.00699 0.10583 0.0
N794 N 0.34782 0.0493 0.01621 0.0
C795 C 0.46942 0.08468 0.10932 0.0
C796 C 0.36327 0.96604 -4e-05 0.0
C797 C 0.41451 0.1082 0.08135 0.0
C798 C 0.4724 1.01504 0.08731 0.0
C799 C 0.42517 0.95803 0.03334 0.0
O800 O 0.50103 0.21875 0.90496 0.0
O801 O 0.39652 0.25116 0.89189 0.0
O802 O 0.32661 0.22282 0.77107 0.0
O803 O 0.36328 0.14458 0.79966 0.0
O804 O 0.47378 0.24228 0.86229 0.0
O805 O 0.46836 0.14874 0.84101 0.0
O806 O 0.21905 0.19388 0.8045 0.0
O807 O 0.30272 0.14281 0.86458 0.0
O808 O 0.34131 0.2167 0.94975 0.0
O809 O 0.291 0.28118 0.92879 0.0
O810 O 0.22641 0.15142 0.89896 0.0
O811 O 0.21279 0.23862 0.881 0.0
C812 C 0.45436 0.28809 0.86537 0.0
C813 C 0.60325 0.21413 0.86663 0.0
C814 C 0.688 0.16784 0.88171 0.0
C815 C 0.63631 0.17475 0.84695 0.0
C816 C 0.69428 0.1892 0.93631 0.0
C817 C 0.64093 0.25632 0.9116 0.0
C818 C 0.67623 0.23754 0.94969 0.0
C819 C 0.35444 0.18511 0.75719 0.0
C820 C 0.52419 0.20163 0.86216 0.0
C821 C 0.43573 0.90631 -0.0018 0.0
C822 C 0.37739 0.86255 0.95959 0.0
C823 C 0.24203 0.10609 0.88392 0.0
C824 C 0.10952 0.17526 0.82917 0.0
C825 C 0.05387 0.14998 0.86745 0.0
C826 C 0.99197 0.14553 0.84886 0.0
C827 C 0.98571 0.15281 0.79209 0.0
C828 C 0.1054 0.20627 0.78125 0.0
C829 C 0.04324 0.19478 0.76233 0.0
C830 C 0.3106 0.25671 0.97087 0.0
C831 C 0.17866 0.19316 0.84346 0.0
H832 H 0.62176 0.14969 0.8071 0.0
H833 H 0.72724 0.18195 0.9652 0.0
H834 H 0.62265 0.28455 0.93073 0.0
H835 H 0.6884 0.26073 -0.00935 0.0
H836 H 0.06095 0.1414 0.91053 0.0
H837 H 0.939 0.13941 0.77291 0.0
H838 H 0.15229 0.24997 0.76568 0.0
H839 H 0.04088 0.22788 0.73158 0.0
Tb840 Tb 0.2617 0.38255 0.40207 0.0
C841 C 0.98989 0.34134 0.28013 0.0
C842 C 0.90508 0.34258 0.3403 0.0
C843 C 0.89825 0.35933 0.24377 0.0
C844 C 0.95962 0.32801 0.33108 0.0
C845 C 0.96677 0.37256 0.24094 0.0
C846 C 0.8654 0.34184 0.29519 0.0
C847 C 0.08613 0.4571 0.22364 0.0
N848 N 0.05766 0.35889 0.28347 0.0
C849 C 0.10587 0.42044 0.25819 0.0
C850 C 1.01664 0.43353 0.2159 0.0
Tb851 Tb 0.08029 0.29695 0.35324 0.0
N852 N 1.00762 0.34147 0.37036 0.0
C853 C 1.02064 0.39289 0.40737 0.0
C854 C 0.91169 0.38512 0.38501 0.0
C855 C 0.97283 0.41512 0.41537 0.0
H856 H 0.16074 0.44297 0.26422 0.0
H857 H 0.98338 0.45561 0.44447 0.0
H858 H 0.82017 0.34737 0.30129 0.0
H859 H 0.12468 0.50564 0.20537 0.0
H860 H 0.06641 0.414 0.4321 0.0
H861 H 0.3068 0.16802 0.3488 0.0
H862 H 0.87622 0.40466 0.39032 0.0
H863 H 0.31256 0.36261 0.53998 0.0
H864 H 0.32669 0.34065 0.35175 0.0
H865 H 0.35001 0.43292 0.60066 0.0
H866 H 0.87744 0.37787 0.21179 0.0
H867 H 0.40782 0.18876 0.41932 0.0
H868 H 0.48959 0.31576 0.45427 0.0
H869 H 1.00192 0.46712 0.19522 0.0
H870 H 0.5199 0.42904 0.52409 0.0
N871 N 0.36036 0.37064 0.36636 0.0
C872 C 0.30398 0.28503 0.34386 0.0
C873 C 0.38936 0.2251 0.42378 0.0
C874 C 0.45586 0.31462 0.45293 0.0
C875 C 0.31687 0.2104 0.37381 0.0
C876 C 0.44954 0.38865 0.43583 0.0
H877 H 0.52447 0.50202 0.60506 0.0
N878 N 0.31693 0.33899 0.51602 0.0
C879 C 0.40459 0.46062 0.60905 0.0
C880 C 0.41498 0.35345 0.49921 0.0
C881 C 0.32576 0.40608 0.58138 0.0
C882 C 0.47668 0.4628 0.58655 0.0
C883 C 0.48548 0.41513 0.53224 0.0
O884 O 0.30032 0.49256 0.40606 0.0
O885 O 0.1637 0.38801 0.39172 0.0
O886 O 0.12209 0.31826 0.27109 0.0
O887 O 0.23683 0.35518 0.29989 0.0
O888 O 0.24994 0.46527 0.36217 0.0
O889 O 0.33786 0.4603 0.34173 0.0
O890 O 0.04403 0.21053 0.30355 0.0
O891 O 0.17813 0.29475 0.36451 0.0
O892 O 0.14315 0.33303 0.45086 0.0
O893 O 0.02829 0.28275 0.4284 0.0
O894 O 0.0931 0.21858 0.39944 0.0
O895 O 0.99401 0.20344 0.38082 0.0
C896 C 0.18483 0.44598 0.36534 0.0
C897 C 0.40706 0.59485 0.368 0.0
C898 C 0.53805 0.67879 0.3831 0.0
C899 C 0.47935 0.62743 0.34832 0.0
C900 C 0.52321 0.68601 0.43767 0.0
C901 C 0.40264 0.63214 0.41339 0.0
C902 C 0.4569 0.66813 0.45125 0.0
C903 C 0.18761 0.34654 0.25744 0.0
C904 C 0.34067 0.51594 0.36332 0.0
C905 C 0.54731 0.42496 0.49666 0.0
C906 C 0.53149 0.36613 0.45789 0.0
C907 C 0.154 0.23442 0.38433 0.0
C908 C 0.95229 0.10091 0.32788 0.0
C909 C 0.92239 0.04488 0.36582 0.0
C910 C 0.86449 0.98321 0.34738 0.0
C911 C 0.85029 0.97734 0.29071 0.0
C912 C 0.91606 0.09739 0.28079 0.0
C913 C 0.86524 0.03524 0.26164 0.0
C914 C 0.07189 0.30186 0.4709 0.0
C915 C 1.00469 0.16963 0.34248 0.0
H916 H 0.48976 0.61271 0.30844 0.0
H917 H 0.56364 0.71942 0.46626 0.0
H918 H 0.3562 0.61389 0.4327 0.0
H919 H 0.44618 0.68156 0.49185 0.0
H920 H 0.93881 0.05156 0.4087 0.0
H921 H 0.81685 0.93062 0.27145 0.0
H922 H 0.91913 0.1445 0.26585 0.0
H923 H 0.82964 0.03302 0.231 0.0
Tb924 Tb 0.89782 0.25279 0.9021 0.0
C925 C 0.66704 0.98139 0.78042 0.0
C926 C 0.58055 0.89697 0.84042 0.0
C927 C 0.5573 0.89006 0.74387 0.0
C928 C 0.64977 0.95119 0.83134 0.0
C929 C 0.61291 0.95846 0.74111 0.0
C930 C 0.54161 0.85727 0.79527 0.0
C931 C 0.64875 0.07802 0.72344 0.0
N932 N 0.7176 0.04908 0.78377 0.0
C933 C 0.70497 0.09755 0.75808 0.0
C934 C 0.60238 1.00855 0.71591 0.0
Tb935 Tb 0.80153 0.07095 0.85396 0.0
N936 N 0.68446 0.99914 0.87073 0.0
C937 C 0.64652 1.01222 0.90808 0.0
C938 C 0.54472 0.90408 0.88494 0.0
C939 C 0.57639 0.96505 0.91566 0.0
H940 H 0.73765 0.15247 0.76386 0.0
H941 H 0.54677 0.97627 0.94446 0.0
H942 H 0.49072 0.81224 0.8013 0.0
H943 H 0.63922 0.11677 0.70497 0.0
H944 H 0.67146 0.05782 0.93309 0.0
H945 H 0.15678 0.29749 0.84796 0.0
H946 H 0.48957 0.86931 0.88978 0.0
H947 H 0.96854 0.30383 0.03968 0.0
H948 H 1.00462 0.31792 0.85153 0.0
H949 H 0.93595 0.34149 0.10049 0.0
H950 H 0.51803 0.86939 0.71185 0.0
H951 H 0.23737 0.39806 0.9188 0.0
H952 H 0.19282 0.48 0.95466 0.0
H953 H 0.55424 0.99404 0.6952 0.0
H954 H 0.11035 0.51097 0.02434 0.0
N955 N 1.00849 0.35166 0.86621 0.0
C956 C 0.03731 0.29498 0.84349 0.0
C957 C 0.18266 0.37985 0.92329 0.0
C958 C 0.16019 0.44666 0.95282 0.0
C959 C 0.1246 0.30747 0.87325 0.0
C960 C 0.08 0.4408 0.93583 0.0
H961 H 0.04199 0.51596 0.10535 0.0
N962 N 0.99647 0.30805 0.01574 0.0
C963 C 0.96306 0.39612 0.10899 0.0
C964 C 0.08037 0.40595 -0.00086 0.0
C965 C 0.93841 0.31717 0.08115 0.0
C966 C 0.03321 0.4681 0.08666 0.0
C967 C 0.08961 0.47658 0.03234 0.0
O968 O 0.82589 0.29063 0.90718 0.0
O969 O 0.79433 0.15475 0.89204 0.0
O970 O 0.8226 0.11231 0.77153 0.0
O971 O 0.90043 0.2275 0.79995 0.0
O972 O 0.80391 0.24054 0.86073 0.0
O973 O 0.89526 0.32902 0.84259 0.0
O974 O 0.85189 0.03421 0.80547 0.0
O975 O 0.90187 0.16865 0.86501 0.0
O976 O 0.82863 0.13442 0.95049 0.0
O977 O 0.76423 0.01956 0.92965 0.0
O978 O 0.89275 0.08354 0.89987 0.0
O979 O 0.80331 0.98115 0.88085 0.0
C980 C 0.75786 0.17558 0.86494 0.0
C981 C 0.82951 0.39721 0.87004 0.0
C982 C 0.87648 0.52828 0.88446 0.0
C983 C 0.86876 0.46924 0.84992 0.0
C984 C 0.85443 0.51415 0.9391 0.0
C985 C 0.78885 0.39301 0.91618 0.0
C986 C 0.80675 0.44783 0.95345 0.0
C987 C 0.86009 0.17784 0.7576 0.0
C988 C 0.84247 0.33128 0.86475 0.0
C989 C 0.14224 0.53823 -0.00291 0.0
C990 C 0.18531 0.52244 0.95848 0.0
C991 C 0.93794 0.14446 0.88487 0.0
C992 C 0.87269 0.94454 0.83191 0.0
C993 C 0.89565 0.91362 0.87161 0.0
C994 C 0.90494 0.85888 0.85273 0.0
C995 C 0.90533 0.84921 0.79603 0.0
C996 C 0.84742 0.91095 0.78245 0.0
C997 C 0.86481 0.86402 0.76395 0.0
C998 C 0.78868 0.06384 0.97164 0.0
C999 C 0.8497 0.99282 0.84409 0.0
H1000 H 0.89361 0.47923 0.80996 0.0
H1001 H 0.8614 0.55499 0.9673 0.0
H1002 H 0.76202 0.34713 0.93653 0.0
H1003 H 0.78255 0.43762 -0.006 0.0
H1004 H 0.89887 0.92651 0.91519 0.0
H1005 H 0.92213 0.81706 0.77876 0.0
H1006 H 0.80291 0.91124 0.76576 0.0
H1007 H 0.83612 0.82877 0.73244 0.0
loop_
_geom_bond_atom_site_label_1
_geom_bond_atom_site_label_2
_geom_bond_distance
_geom_bond_site_symmetry_2
_ccdc_geom_bond_type
Tb0 N31 2.660 . S
Tb0 N38 2.600 1_554 S
Tb0 O44 2.546 1_554 S
Tb0 O45 2.610 . S
Tb0 O47 2.320 . S
Tb0 O48 2.552 . S
Tb0 O49 2.413 . S
Tb0 O51 2.362 . S
Tb0 O52 2.421 1_554 S
Tb0 C64 2.833 . S
C1 C4 1.432 . S
C1 C5 1.414 . S
C1 N8 1.359 . S
C2 C4 1.417 . S
C2 C6 1.432 . S
C2 C14 1.410 . S
C3 C5 1.444 . S
C3 C6 1.317 . S
C3 H26 0.929 . S
C4 C1 1.432 . S
C4 C2 1.417 . S
C4 N12 1.360 . S
C5 C1 1.414 . S
C5 C3 1.444 . S
C5 C10 1.385 . S
C6 C2 1.432 . S
C6 C3 1.317 . S
C6 H18 0.930 . S
C7 C9 1.392 . S
C7 C10 1.370 . S
C7 H19 0.931 . S
N8 C1 1.359 . S
N8 C9 1.327 . S
N8 Tb11 2.600 . S
C9 C7 1.392 . S
C9 N8 1.327 . S
C9 H16 0.930 . S
C10 C5 1.385 . S
C10 C7 1.370 . S
C10 H29 0.930 . S
Tb11 N8 2.600 . S
Tb11 N12 2.660 . S
Tb11 O45 2.362 . S
Tb11 O46 2.421 . S
Tb11 O50 2.546 . S
Tb11 O51 2.610 . S
Tb11 O53 2.320 . S
Tb11 O54 2.552 . S
Tb11 O55 2.413 . S
Tb11 C75 2.833 . S
N12 C4 1.360 . S
N12 Tb11 2.660 . S
N12 C13 1.305 . S
C13 N12 1.305 . S
C13 C15 1.407 . S
C13 H20 0.930 . S
C14 C2 1.410 . S
C14 C15 1.345 . S
C14 H22 0.930 . S
C15 C13 1.407 . S
C15 C14 1.345 . S
C15 H17 0.930 . S
H16 C9 0.930 . S
H17 C15 0.930 . S
H18 C6 0.930 . S
H19 C7 0.931 . S
H20 C13 0.930 . S
H21 C35 0.930 . S
H22 C14 0.930 . S
H23 C41 0.930 . S
H24 C32 0.930 1_455 S
H25 C39 0.931 . S
H26 C3 0.929 . S
H27 C33 0.930 . S
H28 C66 0.930 . S
H29 C10 0.930 . S
H30 C65 0.929 . S
N31 Tb0 2.660 . S
N31 C32 1.305 1_455 S
N31 C36 1.360 1_455 S
C32 H24 0.930 1_655 S
C32 N31 1.305 1_655 S
C32 C35 1.407 . S
C33 H27 0.930 . S
C33 C34 1.410 . S
C33 C35 1.345 . S
C34 C33 1.410 . S
C34 C36 1.417 . S
C34 C66 1.432 1_554 S
C35 H21 0.930 . S
C35 C32 1.407 . S
C35 C33 1.345 . S
C36 N31 1.360 1_655 S
C36 C34 1.417 . S
C36 C40 1.437 1_554 S
H37 C42 0.930 . S
N38 Tb0 2.600 1_556 S
N38 C40 1.343 1_455 S
N38 C41 1.327 . S
C39 H25 0.931 . S
C39 C41 1.392 . S
C39 C42 1.370 1_455 S
C40 C36 1.437 1_556 S
C40 N38 1.343 1_655 S
C40 C43 1.424 . S
C41 H23 0.930 . S
C41 N38 1.327 . S
C41 C39 1.392 . S
C42 H37 0.930 . S
C42 C39 1.370 1_655 S
C42 C43 1.385 . S
C43 C40 1.424 . S
C43 C42 1.385 . S
C43 C65 1.444 . S
O44 Tb0 2.546 1_556 S
O44 C64 1.251 1_556 S
O45 Tb0 2.610 . S
O45 Tb11 2.362 . S
O45 C56 1.283 . S
O46 Tb11 2.421 . S
O46 C63 1.262 . S
O47 Tb0 2.320 . S
O47 C63 1.260 . S
O48 Tb0 2.552 . S
O48 C56 1.243 . S
O49 Tb0 2.413 . S
O49 C64 1.256 . S
O50 Tb11 2.546 . S
O50 C75 1.251 . S
O51 Tb0 2.362 . S
O51 Tb11 2.610 . S
O51 C67 1.283 . S
O52 Tb0 2.421 1_556 S
O52 C74 1.262 . S
O53 Tb11 2.320 . S
O53 C74 1.260 1_554 S
O54 Tb11 2.552 . S
O54 C67 1.243 . S
O55 Tb11 2.413 . S
O55 C75 1.256 . S
C56 O45 1.283 . S
C56 O48 1.243 . S
C57 C59 1.382 . S
C57 C61 1.393 1_554 S
C57 C64 1.500 . S
C58 C59 1.400 . S
C58 C60 1.384 . S
C59 C57 1.382 . S
C59 C58 1.400 . S
C59 H76 0.930 . S
C60 C58 1.384 . S
C60 C62 1.392 1_554 S
C60 H77 0.931 1_554 S
C61 C57 1.393 1_556 S
C61 C62 1.401 . S
C61 H78 0.930 . S
C62 C60 1.392 1_556 S
C62 C61 1.401 . S
C62 H79 0.930 . S
C63 O46 1.262 . S
C63 O47 1.260 . S
C64 Tb0 2.833 . S
C64 O44 1.251 1_554 S
C64 O49 1.256 . S
C64 C57 1.500 . S
C65 H30 0.929 . S
C65 C43 1.444 . S
C65 C66 1.317 . S
C66 H28 0.930 . S
C66 C34 1.432 1_556 S
C66 C65 1.317 . S
C67 O51 1.283 . S
C67 O54 1.243 . S
C68 C69 1.382 . S
C68 C72 1.393 . S
C68 C75 1.500 . S
C69 C68 1.382 . S
C69 C70 1.400 1_545 S
C69 H80 0.930 . S
C70 C69 1.400 1_565 S
C70 C71 1.384 . S
C71 C70 1.384 . S
C71 C73 1.392 1_565 S
C71 H81 0.931 . S
C72 C68 1.393 . S
C72 C73 1.401 . S
C72 H82 0.930 . S
C73 C71 1.392 1_545 S
C73 C72 1.401 . S
C73 H83 0.928 1_545 S
C74 O52 1.262 . S
C74 O53 1.260 1_556 S
C75 Tb11 2.833 . S
C75 O50 1.251 . S
C75 O55 1.256 . S
C75 C68 1.500 . S
H76 C59 0.930 . S
H77 C60 0.931 1_556 S
H78 C61 0.930 . S
H79 C62 0.930 . S
H80 C69 0.930 . S
H81 C71 0.931 . S
H82 C72 0.930 . S
H83 C73 0.928 1_565 S
Tb84 N115 2.660 . S
Tb84 N122 2.600 . S
Tb84 O128 2.546 . S
Tb84 O129 2.610 . S
Tb84 O131 2.320 . S
Tb84 O132 2.552 . S
Tb84 O133 2.413 . S
Tb84 O135 2.362 . S
Tb84 O136 2.421 . S
Tb84 C148 2.833 . S
C85 C88 1.432 . S
C85 C89 1.414 . S
C85 N92 1.359 1_455 S
C86 C88 1.417 . S
C86 C90 1.432 . S
C86 C98 1.410 . S
C87 C89 1.444 . S
C87 C90 1.317 . S
C87 H110 0.929 . S
C88 C85 1.432 . S
C88 C86 1.417 . S
C88 N96 1.360 . S
C89 C85 1.414 . S
C89 C87 1.444 . S
C89 C94 1.385 . S
C90 C86 1.432 . S
C90 C87 1.317 . S
C90 H102 0.930 . S
C91 C93 1.392 1_455 S
C91 C94 1.370 . S
C91 H103 0.931 1_455 S
N92 C85 1.359 1_655 S
N92 C93 1.327 . S
N92 Tb95 2.600 . S
C93 C91 1.392 1_655 S
C93 N92 1.327 . S
C93 H100 0.930 . S
C94 C89 1.385 . S
C94 C91 1.370 . S
C94 H113 0.930 . S
Tb95 N92 2.600 . S
Tb95 N96 2.660 1_655 S
Tb95 O129 2.362 . S
Tb95 O130 2.421 . S
Tb95 O134 2.546 1_655 S
Tb95 O135 2.610 . S
Tb95 O137 2.320 . S
Tb95 O138 2.552 . S
Tb95 O139 2.413 1_655 S
Tb95 C159 2.833 1_655 S
N96 C88 1.360 . S
N96 Tb95 2.660 1_455 S
N96 C97 1.305 . S
C97 N96 1.305 . S
C97 C99 1.407 . S
C97 H104 0.930 1_455 S
C98 C86 1.410 . S
C98 C99 1.345 . S
C98 H106 0.930 . S
C99 C97 1.407 . S
C99 C98 1.345 . S
C99 H101 0.930 . S
H100 C93 0.930 . S
H101 C99 0.930 . S
H102 C90 0.930 . S
H103 C91 0.931 1_655 S
H104 C97 0.930 1_655 S
H105 C119 0.930 . S
H106 C98 0.930 . S
H107 C125 0.930 . S
H108 C116 0.930 1_545 S
H109 C123 0.931 . S
H110 C87 0.929 . S
H111 C117 0.930 . S
H112 C150 0.930 . S
H113 C94 0.930 . S
H114 C149 0.929 . S
N115 Tb84 2.660 . S
N115 C116 1.305 1_545 S
N115 C120 1.360 1_545 S
C116 H108 0.930 1_565 S
C116 N115 1.305 1_565 S
C116 C119 1.407 . S
C117 H111 0.930 . S
C117 C118 1.410 . S
C117 C119 1.345 . S
C118 C117 1.410 . S
C118 C120 1.417 . S
C118 C150 1.432 . S
C119 H105 0.930 . S
C119 C116 1.407 . S
C119 C117 1.345 . S
C120 N115 1.360 1_565 S
C120 C118 1.417 . S
C120 C124 1.438 . S
H121 C126 0.930 . S
N122 Tb84 2.600 . S
N122 C124 1.345 1_545 S
N122 C125 1.327 . S
C123 H109 0.931 . S
C123 C125 1.392 . S
C123 C126 1.370 1_545 S
C124 C120 1.438 . S
C124 N122 1.345 1_565 S
C124 C127 1.422 . S
C125 H107 0.930 . S
C125 N122 1.327 . S
C125 C123 1.392 . S
C126 H121 0.930 . S
C126 C123 1.370 1_565 S
C126 C127 1.385 . S
C127 C124 1.422 . S
C127 C126 1.385 . S
C127 C149 1.444 . S
O128 Tb84 2.546 . S
O128 C148 1.251 . S
O129 Tb84 2.610 . S
O129 Tb95 2.362 . S
O129 C140 1.283 . S
O130 Tb95 2.421 . S
O130 C147 1.262 . S
O131 Tb84 2.320 . S
O131 C147 1.260 . S
O132 Tb84 2.552 . S
O132 C140 1.243 . S
O133 Tb84 2.413 . S
O133 C148 1.256 . S
O134 Tb95 2.546 1_455 S
O134 C159 1.251 . S
O135 Tb84 2.362 . S
O135 Tb95 2.610 . S
O135 C151 1.283 . S
O136 Tb84 2.421 . S
O136 C158 1.262 . S
O137 Tb95 2.320 . S
O137 C158 1.260 . S
O138 Tb95 2.552 . S
O138 C151 1.243 . S
O139 Tb95 2.413 1_455 S
O139 C159 1.256 . S
C140 O129 1.283 . S
C140 O132 1.243 . S
C141 C143 1.382 . S
C141 C145 1.393 . S
C141 C148 1.500 . S
C142 C143 1.400 . S
C142 C144 1.384 . S
C143 C141 1.382 . S
C143 C142 1.400 . S
C143 H160 0.930 . S
C144 C142 1.384 . S
C144 C146 1.392 . S
C144 H161 0.931 . S
C145 C141 1.393 . S
C145 C146 1.401 . S
C145 H162 0.930 . S
C146 C144 1.392 . S
C146 C145 1.401 . S
C146 H163 0.930 . S
C147 O130 1.262 . S
C147 O131 1.260 . S
C148 Tb84 2.833 . S
C148 O128 1.251 . S
C148 O133 1.256 . S
C148 C141 1.500 . S
C149 H114 0.929 . S
C149 C127 1.444 . S
C149 C150 1.317 . S
C150 H112 0.930 . S
C150 C118 1.432 . S
C150 C149 1.317 . S
C151 O135 1.283 . S
C151 O138 1.243 . S
C152 C153 1.382 . S
C152 C156 1.393 . S
C152 C159 1.500 . S
C153 C152 1.382 . S
C153 C154 1.400 . S
C153 H164 0.930 . S
C154 C153 1.400 . S
C154 C155 1.384 . S
C155 C154 1.384 . S
C155 C157 1.392 . S
C155 H165 0.931 . S
C156 C152 1.393 . S
C156 C157 1.401 . S
C156 H166 0.930 . S
C157 C155 1.392 . S
C157 C156 1.401 . S
C157 H167 0.930 . S
C158 O136 1.262 . S
C158 O137 1.260 . S
C159 Tb95 2.833 1_455 S
C159 O134 1.251 . S
C159 O139 1.256 . S
C159 C152 1.500 . S
H160 C143 0.930 . S
H161 C144 0.931 . S
H162 C145 0.930 . S
H163 C146 0.930 . S
H164 C153 0.930 . S
H165 C155 0.931 . S
H166 C156 0.930 . S
H167 C157 0.930 . S
Tb168 N199 2.660 . S
Tb168 N206 2.600 1_554 S
Tb168 O212 2.546 1_554 S
Tb168 O213 2.610 . S
Tb168 O215 2.320 . S
Tb168 O216 2.552 . S
Tb168 O217 2.413 . S
Tb168 O219 2.362 . S
Tb168 O220 2.421 1_554 S
Tb168 C232 2.833 . S
C169 C172 1.432 . S
C169 C173 1.414 . S
C169 N176 1.359 1_545 S
C170 C172 1.417 . S
C170 C174 1.432 . S
C170 C182 1.410 . S
C171 C173 1.444 . S
C171 C174 1.317 . S
C171 H194 0.929 . S
C172 C169 1.432 . S
C172 C170 1.417 . S
C172 N180 1.360 . S
C173 C169 1.414 . S
C173 C171 1.444 . S
C173 C178 1.385 . S
C174 C170 1.432 . S
C174 C171 1.317 . S
C174 H186 0.930 . S
C175 C177 1.392 1_545 S
C175 C178 1.370 . S
C175 H187 0.931 1_545 S
N176 C169 1.359 1_565 S
N176 C177 1.327 . S
N176 Tb179 2.600 . S
C177 C175 1.392 1_565 S
C177 N176 1.327 . S
C177 H184 0.930 . S
C178 C173 1.385 . S
C178 C175 1.370 . S
C178 H197 0.930 . S
Tb179 N176 2.600 . S
Tb179 N180 2.660 1_565 S
Tb179 O213 2.362 . S
Tb179 O214 2.421 . S
Tb179 O218 2.546 1_565 S
Tb179 O219 2.610 . S
Tb179 O221 2.320 . S
Tb179 O222 2.552 . S
Tb179 O223 2.413 1_565 S
Tb179 C243 2.833 1_565 S
N180 C172 1.360 . S
N180 Tb179 2.660 1_545 S
N180 C181 1.305 . S
C181 N180 1.305 . S
C181 C183 1.407 . S
C181 H188 0.931 1_545 S
C182 C170 1.410 . S
C182 C183 1.345 . S
C182 H190 0.930 . S
C183 C181 1.407 . S
C183 C182 1.345 . S
C183 H185 0.930 . S
H184 C177 0.930 . S
H185 C183 0.930 . S
H186 C174 0.930 . S
H187 C175 0.931 1_565 S
H188 C181 0.931 1_565 S
H189 C203 0.930 . S
H190 C182 0.930 . S
H191 C209 0.930 . S
H192 C200 0.930 . S
H193 C207 0.931 . S
H194 C171 0.929 . S
H195 C201 0.930 . S
H196 C234 0.930 . S
H197 C178 0.930 . S
H198 C233 0.929 . S
N199 Tb168 2.660 . S
N199 C200 1.305 . S
N199 C204 1.360 . S
C200 H192 0.930 . S
C200 N199 1.305 . S
C200 C203 1.407 . S
C201 H195 0.930 . S
C201 C202 1.410 . S
C201 C203 1.345 . S
C202 C201 1.410 . S
C202 C204 1.417 . S
C202 C234 1.432 1_554 S
C203 H189 0.930 . S
C203 C200 1.407 . S
C203 C201 1.345 . S
C204 N199 1.360 . S
C204 C202 1.417 . S
C204 C208 1.432 1_554 S
H205 C210 0.930 . S
N206 Tb168 2.600 1_556 S
N206 C208 1.359 . S
N206 C209 1.327 . S
C207 H193 0.931 . S
C207 C209 1.392 . S
C207 C210 1.370 . S
C208 C204 1.432 1_556 S
C208 N206 1.359 . S
C208 C211 1.414 . S
C209 H191 0.930 . S
C209 N206 1.327 . S
C209 C207 1.392 . S
C210 H205 0.930 . S
C210 C207 1.370 . S
C210 C211 1.385 . S
C211 C208 1.414 . S
C211 C210 1.385 . S
C211 C233 1.444 . S
O212 Tb168 2.546 1_556 S
O212 C232 1.251 1_556 S
O213 Tb168 2.610 . S
O213 Tb179 2.362 . S
O213 C224 1.283 . S
O214 Tb179 2.421 . S
O214 C231 1.262 . S
O215 Tb168 2.320 . S
O215 C231 1.260 . S
O216 Tb168 2.552 . S
O216 C224 1.243 . S
O217 Tb168 2.413 . S
O217 C232 1.256 . S
O218 Tb179 2.546 1_545 S
O218 C243 1.251 . S
O219 Tb168 2.362 . S
O219 Tb179 2.610 . S
O219 C235 1.283 . S
O220 Tb168 2.421 1_556 S
O220 C242 1.262 . S
O221 Tb179 2.320 . S
O221 C242 1.260 1_554 S
O222 Tb179 2.552 . S
O222 C235 1.243 . S
O223 Tb179 2.413 1_545 S
O223 C243 1.256 . S
C224 O213 1.283 . S
C224 O216 1.243 . S
C225 C227 1.382 . S
C225 C229 1.393 1_554 S
C225 C232 1.500 . S
C226 C227 1.400 . S
C226 C228 1.384 . S
C227 C225 1.382 . S
C227 C226 1.400 . S
C227 H244 0.930 . S
C228 C226 1.384 . S
C228 C230 1.392 1_554 S
C228 H245 0.931 1_554 S
C229 C225 1.393 1_556 S
C229 C230 1.401 . S
C229 H246 0.930 . S
C230 C228 1.392 1_556 S
C230 C229 1.401 . S
C230 H247 0.930 . S
C231 O214 1.262 . S
C231 O215 1.260 . S
C232 Tb168 2.833 . S
C232 O212 1.251 1_554 S
C232 O217 1.256 . S
C232 C225 1.500 . S
C233 H198 0.929 . S
C233 C211 1.444 . S
C233 C234 1.317 . S
C234 H196 0.930 . S
C234 C202 1.432 1_556 S
C234 C233 1.317 . S
C235 O219 1.283 . S
C235 O222 1.243 . S
C236 C237 1.382 . S
C236 C240 1.393 . S
C236 C243 1.500 . S
C237 C236 1.382 . S
C237 C238 1.400 1_655 S
C237 H248 0.930 . S
C238 C237 1.400 1_455 S
C238 C239 1.384 . S
C239 C238 1.384 . S
C239 C241 1.392 1_455 S
C239 H249 0.931 . S
C240 C236 1.393 . S
C240 C241 1.401 . S
C240 H250 0.930 . S
C241 C239 1.392 1_655 S
C241 C240 1.401 . S
C241 H251 0.930 1_655 S
C242 O220 1.262 . S
C242 O221 1.260 1_556 S
C243 Tb179 2.833 1_545 S
C243 O218 1.251 . S
C243 O223 1.256 . S
C243 C236 1.500 . S
H244 C227 0.930 . S
H245 C228 0.931 1_556 S
H246 C229 0.930 . S
H247 C230 0.930 . S
H248 C237 0.930 . S
H249 C239 0.931 . S
H250 C240 0.930 . S
H251 C241 0.930 1_455 S
Tb252 N283 2.660 . S
Tb252 N290 2.600 . S
Tb252 O296 2.546 . S
Tb252 O297 2.610 . S
Tb252 O299 2.320 . S
Tb252 O300 2.552 . S
Tb252 O301 2.413 . S
Tb252 O303 2.362 . S
Tb252 O304 2.421 . S
Tb252 C316 2.833 . S
C253 C256 1.432 . S
C253 C257 1.414 . S
C253 N260 1.359 . S
C254 C256 1.417 . S
C254 C258 1.432 . S
C254 C266 1.410 . S
C255 C257 1.444 . S
C255 C258 1.317 . S
C255 H278 0.929 . S
C256 C253 1.432 . S
C256 C254 1.417 . S
C256 N264 1.360 . S
C257 C253 1.414 . S
C257 C255 1.444 . S
C257 C262 1.385 . S
C258 C254 1.432 . S
C258 C255 1.317 . S
C258 H270 0.930 . S
C259 C261 1.392 . S
C259 C262 1.370 . S
C259 H271 0.931 . S
N260 C253 1.359 . S
N260 C261 1.327 . S
N260 Tb263 2.600 . S
C261 C259 1.392 . S
C261 N260 1.327 . S
C261 H268 0.930 . S
C262 C257 1.385 . S
C262 C259 1.370 . S
C262 H281 0.930 . S
Tb263 N260 2.600 . S
Tb263 N264 2.660 . S
Tb263 O297 2.362 . S
Tb263 O298 2.421 . S
Tb263 O302 2.546 . S
Tb263 O303 2.610 . S
Tb263 O305 2.320 . S
Tb263 O306 2.552 . S
Tb263 O307 2.413 . S
Tb263 C327 2.833 . S
N264 C256 1.360 . S
N264 Tb263 2.660 . S
N264 C265 1.305 . S
C265 N264 1.305 . S
C265 C267 1.407 . S
C265 H272 0.930 . S
C266 C254 1.410 . S
C266 C267 1.345 . S
C266 H274 0.930 . S
C267 C265 1.407 . S
C267 C266 1.345 . S
C267 H269 0.930 . S
H268 C261 0.930 . S
H269 C267 0.930 . S
H270 C258 0.930 . S
H271 C259 0.931 . S
H272 C265 0.930 . S
H273 C287 0.930 . S
H274 C266 0.930 . S
H275 C293 0.930 . S
H276 C284 0.930 1_655 S
H277 C291 0.931 . S
H278 C255 0.929 . S
H279 C285 0.930 . S
H280 C318 0.930 . S
H281 C262 0.930 . S
H282 C317 0.929 . S
N283 Tb252 2.660 . S
N283 C284 1.305 1_655 S
N283 C288 1.360 1_655 S
C284 H276 0.930 1_455 S
C284 N283 1.305 1_455 S
C284 C287 1.407 . S
C285 H279 0.930 . S
C285 C286 1.410 . S
C285 C287 1.345 . S
C286 C285 1.410 . S
C286 C288 1.417 . S
C286 C318 1.432 . S
C287 H273 0.930 . S
C287 C284 1.407 . S
C287 C285 1.345 . S
C288 N283 1.360 1_455 S
C288 C286 1.417 . S
C288 C292 1.437 . S
H289 C294 0.930 . S
N290 Tb252 2.600 . S
N290 C292 1.343 1_655 S
N290 C293 1.327 . S
C291 H277 0.931 . S
C291 C293 1.392 . S
C291 C294 1.370 1_655 S
C292 C288 1.437 . S
C292 N290 1.343 1_455 S
C292 C295 1.424 . S
C293 H275 0.930 . S
C293 N290 1.327 . S
C293 C291 1.392 . S
C294 H289 0.930 . S
C294 C291 1.370 1_455 S
C294 C295 1.385 . S
C295 C292 1.424 . S
C295 C294 1.385 . S
C295 C317 1.444 . S
O296 Tb252 2.546 . S
O296 C316 1.251 . S
O297 Tb252 2.610 . S
O297 Tb263 2.362 . S
O297 C308 1.283 . S
O298 Tb263 2.421 . S
O298 C315 1.262 . S
O299 Tb252 2.320 . S
O299 C315 1.260 . S
O300 Tb252 2.552 . S
O300 C308 1.243 . S
O301 Tb252 2.413 . S
O301 C316 1.256 . S
O302 Tb263 2.546 . S
O302 C327 1.251 . S
O303 Tb252 2.362 . S
O303 Tb263 2.610 . S
O303 C319 1.283 . S
O304 Tb252 2.421 . S
O304 C326 1.262 . S
O305 Tb263 2.320 . S
O305 C326 1.260 . S
O306 Tb263 2.552 . S
O306 C319 1.243 . S
O307 Tb263 2.413 . S
O307 C327 1.256 . S
C308 O297 1.283 . S
C308 O300 1.243 . S
C309 C311 1.382 . S
C309 C313 1.393 . S
C309 C316 1.500 . S
C310 C311 1.400 . S
C310 C312 1.384 . S
C311 C309 1.382 . S
C311 C310 1.400 . S
C311 H328 0.930 . S
C312 C310 1.384 . S
C312 C314 1.392 . S
C312 H329 0.931 . S
C313 C309 1.393 . S
C313 C314 1.401 . S
C313 H330 0.930 . S
C314 C312 1.392 . S
C314 C313 1.401 . S
C314 H331 0.930 . S
C315 O298 1.262 . S
C315 O299 1.260 . S
C316 Tb252 2.833 . S
C316 O296 1.251 . S
C316 O301 1.256 . S
C316 C309 1.500 . S
C317 H282 0.929 . S
C317 C295 1.444 . S
C317 C318 1.317 . S
C318 H280 0.930 . S
C318 C286 1.432 . S
C318 C317 1.317 . S
C319 O303 1.283 . S
C319 O306 1.243 . S
C320 C321 1.382 . S
C320 C324 1.393 . S
C320 C327 1.500 . S
C321 C320 1.382 . S
C321 C322 1.400 1_565 S
C321 H332 0.930 . S
C322 C321 1.400 1_545 S
C322 C323 1.384 . S
C323 C322 1.384 . S
C323 C325 1.392 1_545 S
C323 H333 0.931 . S
C324 C320 1.393 . S
C324 C325 1.401 . S
C324 H334 0.930 . S
C325 C323 1.392 1_565 S
C325 C324 1.401 . S
C325 H335 0.928 1_565 S
C326 O304 1.262 . S
C326 O305 1.260 . S
C327 Tb263 2.833 . S
C327 O302 1.251 . S
C327 O307 1.256 . S
C327 C320 1.500 . S
H328 C311 0.930 . S
H329 C312 0.931 . S
H330 C313 0.930 . S
H331 C314 0.930 . S
H332 C321 0.930 . S
H333 C323 0.931 . S
H334 C324 0.930 . S
H335 C325 0.928 1_545 S
Tb336 N367 2.660 . S
Tb336 N374 2.600 1_554 S
Tb336 O380 2.546 1_554 S
Tb336 O381 2.610 . S
Tb336 O383 2.320 . S
Tb336 O384 2.552 . S
Tb336 O385 2.413 . S
Tb336 O387 2.362 . S
Tb336 O388 2.421 1_554 S
Tb336 C400 2.833 . S
C337 C340 1.432 . S
C337 C341 1.414 . S
C337 N344 1.359 1_655 S
C338 C340 1.417 . S
C338 C342 1.432 . S
C338 C350 1.410 . S
C339 C341 1.444 . S
C339 C342 1.317 . S
C339 H362 0.929 . S
C340 C337 1.432 . S
C340 C338 1.417 . S
C340 N348 1.360 . S
C341 C337 1.414 . S
C341 C339 1.444 . S
C341 C346 1.385 . S
C342 C338 1.432 . S
C342 C339 1.317 . S
C342 H354 0.930 . S
C343 C345 1.392 1_655 S
C343 C346 1.370 . S
C343 H355 0.931 1_655 S
N344 C337 1.359 1_455 S
N344 C345 1.327 . S
N344 Tb347 2.600 . S
C345 C343 1.392 1_455 S
C345 N344 1.327 . S
C345 H352 0.930 . S
C346 C341 1.385 . S
C346 C343 1.370 . S
C346 H365 0.930 . S
Tb347 N344 2.600 . S
Tb347 N348 2.660 1_455 S
Tb347 O381 2.362 . S
Tb347 O382 2.421 . S
Tb347 O386 2.546 1_455 S
Tb347 O387 2.610 . S
Tb347 O389 2.320 . S
Tb347 O390 2.552 . S
Tb347 O391 2.413 1_455 S
Tb347 C411 2.833 1_455 S
N348 C340 1.360 . S
N348 Tb347 2.660 1_655 S
N348 C349 1.305 . S
C349 N348 1.305 . S
C349 C351 1.407 . S
C349 H356 0.930 1_655 S
C350 C338 1.410 . S
C350 C351 1.345 . S
C350 H358 0.930 . S
C351 C349 1.407 . S
C351 C350 1.345 . S
C351 H353 0.930 . S
H352 C345 0.930 . S
H353 C351 0.930 . S
H354 C342 0.930 . S
H355 C343 0.931 1_455 S
H356 C349 0.930 1_455 S
H357 C371 0.930 . S
H358 C350 0.930 . S
H359 C377 0.930 . S
H360 C368 0.930 1_565 S
H361 C375 0.931 . S
H362 C339 0.929 . S
H363 C369 0.930 . S
H364 C402 0.930 . S
H365 C346 0.930 . S
H366 C401 0.929 . S
N367 Tb336 2.660 . S
N367 C368 1.305 1_565 S
N367 C372 1.360 1_565 S
C368 H360 0.930 1_545 S
C368 N367 1.305 1_545 S
C368 C371 1.407 . S
C369 H363 0.930 . S
C369 C370 1.410 . S
C369 C371 1.345 . S
C370 C369 1.410 . S
C370 C372 1.417 . S
C370 C402 1.432 1_554 S
C371 H357 0.930 . S
C371 C368 1.407 . S
C371 C369 1.345 . S
C372 N367 1.360 1_545 S
C372 C370 1.417 . S
C372 C376 1.438 1_554 S
H373 C378 0.930 . S
N374 Tb336 2.600 1_556 S
N374 C376 1.345 1_565 S
N374 C377 1.327 . S
C375 H361 0.931 . S
C375 C377 1.392 . S
C375 C378 1.370 1_565 S
C376 C372 1.438 1_556 S
C376 N374 1.345 1_545 S
C376 C379 1.422 . S
C377 H359 0.930 . S
C377 N374 1.327 . S
C377 C375 1.392 . S
C378 H373 0.930 . S
C378 C375 1.370 1_545 S
C378 C379 1.385 . S
C379 C376 1.422 . S
C379 C378 1.385 . S
C379 C401 1.444 . S
O380 Tb336 2.546 1_556 S
O380 C400 1.251 1_556 S
O381 Tb336 2.610 . S
O381 Tb347 2.362 . S
O381 C392 1.283 . S
O382 Tb347 2.421 . S
O382 C399 1.262 . S
O383 Tb336 2.320 . S
O383 C399 1.260 . S
O384 Tb336 2.552 . S
O384 C392 1.243 . S
O385 Tb336 2.413 . S
O385 C400 1.256 . S
O386 Tb347 2.546 1_655 S
O386 C411 1.251 . S
O387 Tb336 2.362 . S
O387 Tb347 2.610 . S
O387 C403 1.283 . S
O388 Tb336 2.421 1_556 S
O388 C410 1.262 . S
O389 Tb347 2.320 . S
O389 C410 1.260 1_554 S
O390 Tb347 2.552 . S
O390 C403 1.243 . S
O391 Tb347 2.413 1_655 S
O391 C411 1.256 . S
C392 O381 1.283 . S
C392 O384 1.243 . S
C393 C395 1.382 . S
C393 C397 1.393 1_554 S
C393 C400 1.500 . S
C394 C395 1.400 . S
C394 C396 1.384 . S
C395 C393 1.382 . S
C395 C394 1.400 . S
C395 H412 0.930 . S
C396 C394 1.384 . S
C396 C398 1.392 1_554 S
C396 H413 0.931 1_554 S
C397 C393 1.393 1_556 S
C397 C398 1.401 . S
C397 H414 0.930 . S
C398 C396 1.392 1_556 S
C398 C397 1.401 . S
C398 H415 0.930 . S
C399 O382 1.262 . S
C399 O383 1.260 . S
C400 Tb336 2.833 . S
C400 O380 1.251 1_554 S
C400 O385 1.256 . S
C400 C393 1.500 . S
C401 H366 0.929 . S
C401 C379 1.444 . S
C401 C402 1.317 . S
C402 H364 0.930 . S
C402 C370 1.432 1_556 S
C402 C401 1.317 . S
C403 O387 1.283 . S
C403 O390 1.243 . S
C404 C405 1.382 . S
C404 C408 1.393 . S
C404 C411 1.500 . S
C405 C404 1.382 . S
C405 C406 1.400 . S
C405 H416 0.930 . S
C406 C405 1.400 . S
C406 C407 1.384 . S
C407 C406 1.384 . S
C407 C409 1.392 . S
C407 H417 0.931 . S
C408 C404 1.393 . S
C408 C409 1.401 . S
C408 H418 0.930 . S
C409 C407 1.392 . S
C409 C408 1.401 . S
C409 H419 0.930 . S
C410 O388 1.262 . S
C410 O389 1.260 1_556 S
C411 Tb347 2.833 1_655 S
C411 O386 1.251 . S
C411 O391 1.256 . S
C411 C404 1.500 . S
H412 C395 0.930 . S
H413 C396 0.931 1_556 S
H414 C397 0.930 . S
H415 C398 0.930 . S
H416 C405 0.930 . S
H417 C407 0.931 . S
H418 C408 0.930 . S
H419 C409 0.930 . S
Tb420 N451 2.660 . S
Tb420 N458 2.600 . S
Tb420 O464 2.546 . S
Tb420 O465 2.610 . S
Tb420 O467 2.320 . S
Tb420 O468 2.552 . S
Tb420 O469 2.413 . S
Tb420 O471 2.362 . S
Tb420 O472 2.421 . S
Tb420 C484 2.833 . S
C421 C424 1.432 . S
C421 C425 1.414 . S
C421 N428 1.359 1_565 S
C422 C424 1.417 . S
C422 C426 1.432 . S
C422 C434 1.410 . S
C423 C425 1.444 . S
C423 C426 1.317 . S
C423 H446 0.929 . S
C424 C421 1.432 . S
C424 C422 1.417 . S
C424 N432 1.360 . S
C425 C421 1.414 . S
C425 C423 1.444 . S
C425 C430 1.385 . S
C426 C422 1.432 . S
C426 C423 1.317 . S
C426 H438 0.930 . S
C427 C429 1.392 1_565 S
C427 C430 1.370 . S
C427 H439 0.931 1_565 S
N428 C421 1.359 1_545 S
N428 C429 1.327 . S
N428 Tb431 2.600 . S
C429 C427 1.392 1_545 S
C429 N428 1.327 . S
C429 H436 0.930 . S
C430 C425 1.385 . S
C430 C427 1.370 . S
C430 H449 0.930 . S
Tb431 N428 2.600 . S
Tb431 N432 2.660 1_545 S
Tb431 O465 2.362 . S
Tb431 O466 2.421 . S
Tb431 O470 2.546 1_545 S
Tb431 O471 2.610 . S
Tb431 O473 2.320 . S
Tb431 O474 2.552 . S
Tb431 O475 2.413 1_545 S
Tb431 C495 2.833 1_545 S
N432 C424 1.360 . S
N432 Tb431 2.660 1_565 S
N432 C433 1.305 . S
C433 N432 1.305 . S
C433 C435 1.407 . S
C433 H440 0.931 1_565 S
C434 C422 1.410 . S
C434 C435 1.345 . S
C434 H442 0.930 . S
C435 C433 1.407 . S
C435 C434 1.345 . S
C435 H437 0.930 . S
H436 C429 0.930 . S
H437 C435 0.930 . S
H438 C426 0.930 . S
H439 C427 0.931 1_545 S
H440 C433 0.931 1_545 S
H441 C455 0.930 . S
H442 C434 0.930 . S
H443 C461 0.930 . S
H444 C452 0.930 . S
H445 C459 0.931 . S
H446 C423 0.929 . S
H447 C453 0.930 . S
H448 C486 0.930 . S
H449 C430 0.930 . S
H450 C485 0.929 . S
N451 Tb420 2.660 . S
N451 C452 1.305 . S
N451 C456 1.360 . S
C452 H444 0.930 . S
C452 N451 1.305 . S
C452 C455 1.407 . S
C453 H447 0.930 . S
C453 C454 1.410 . S
C453 C455 1.345 . S
C454 C453 1.410 . S
C454 C456 1.417 . S
C454 C486 1.432 . S
C455 H441 0.930 . S
C455 C452 1.407 . S
C455 C453 1.345 . S
C456 N451 1.360 . S
C456 C454 1.417 . S
C456 C460 1.432 . S
H457 C462 0.930 . S
N458 Tb420 2.600 . S
N458 C460 1.359 . S
N458 C461 1.327 . S
C459 H445 0.931 . S
C459 C461 1.392 . S
C459 C462 1.370 . S
C460 C456 1.432 . S
C460 N458 1.359 . S
C460 C463 1.414 . S
C461 H443 0.930 . S
C461 N458 1.327 . S
C461 C459 1.392 . S
C462 H457 0.930 . S
C462 C459 1.370 . S
C462 C463 1.385 . S
C463 C460 1.414 . S
C463 C462 1.385 . S
C463 C485 1.444 . S
O464 Tb420 2.546 . S
O464 C484 1.251 . S
O465 Tb420 2.610 . S
O465 Tb431 2.362 . S
O465 C476 1.283 . S
O466 Tb431 2.421 . S
O466 C483 1.262 . S
O467 Tb420 2.320 . S
O467 C483 1.260 . S
O468 Tb420 2.552 . S
O468 C476 1.243 . S
O469 Tb420 2.413 . S
O469 C484 1.256 . S
O470 Tb431 2.546 1_565 S
O470 C495 1.251 . S
O471 Tb420 2.362 . S
O471 Tb431 2.610 . S
O471 C487 1.283 . S
O472 Tb420 2.421 . S
O472 C494 1.262 . S
O473 Tb431 2.320 . S
O473 C494 1.260 . S
O474 Tb431 2.552 . S
O474 C487 1.243 . S
O475 Tb431 2.413 1_565 S
O475 C495 1.256 . S
C476 O465 1.283 . S
C476 O468 1.243 . S
C477 C479 1.382 . S
C477 C481 1.393 . S
C477 C484 1.500 . S
C478 C479 1.400 . S
C478 C480 1.384 . S
C479 C477 1.382 . S
C479 C478 1.400 . S
C479 H496 0.930 . S
C480 C478 1.384 . S
C480 C482 1.392 . S
C480 H497 0.931 . S
C481 C477 1.393 . S
C481 C482 1.401 . S
C481 H498 0.930 . S
C482 C480 1.392 . S
C482 C481 1.401 . S
C482 H499 0.930 . S
C483 O466 1.262 . S
C483 O467 1.260 . S
C484 Tb420 2.833 . S
C484 O464 1.251 . S
C484 O469 1.256 . S
C484 C477 1.500 . S
C485 H450 0.929 . S
C485 C463 1.444 . S
C485 C486 1.317 . S
C486 H448 0.930 . S
C486 C454 1.432 . S
C486 C485 1.317 . S
C487 O471 1.283 . S
C487 O474 1.243 . S
C488 C489 1.382 . S
C488 C492 1.393 . S
C488 C495 1.500 . S
C489 C488 1.382 . S
C489 C490 1.400 1_455 S
C489 H500 0.930 . S
C490 C489 1.400 1_655 S
C490 C491 1.384 . S
C491 C490 1.384 . S
C491 C493 1.392 1_655 S
C491 H501 0.931 . S
C492 C488 1.393 . S
C492 C493 1.401 . S
C492 H502 0.930 . S
C493 C491 1.392 1_455 S
C493 C492 1.401 . S
C493 H503 0.930 1_455 S
C494 O472 1.262 . S
C494 O473 1.260 . S
C495 Tb431 2.833 1_565 S
C495 O470 1.251 . S
C495 O475 1.256 . S
C495 C488 1.500 . S
H496 C479 0.930 . S
H497 C480 0.931 . S
H498 C481 0.930 . S
H499 C482 0.930 . S
H500 C489 0.930 . S
H501 C491 0.931 . S
H502 C492 0.930 . S
H503 C493 0.930 1_655 S
Tb504 N535 2.660 . S
Tb504 N542 2.600 . S
Tb504 O548 2.546 . S
Tb504 O549 2.610 . S
Tb504 O551 2.320 . S
Tb504 O552 2.552 . S
Tb504 O553 2.413 . S
Tb504 O555 2.362 . S
Tb504 O556 2.421 . S
Tb504 C568 2.833 . S
C505 C508 1.432 . S
C505 C509 1.414 . S
C505 N512 1.359 . S
C506 C508 1.417 . S
C506 C510 1.432 . S
C506 C518 1.410 . S
C507 C509 1.444 . S
C507 C510 1.317 . S
C507 H530 0.929 . S
C508 C505 1.432 . S
C508 C506 1.417 . S
C508 N516 1.360 . S
C509 C505 1.414 . S
C509 C507 1.444 . S
C509 C514 1.385 . S
C510 C506 1.432 . S
C510 C507 1.317 . S
C510 H522 0.930 . S
C511 C513 1.392 . S
C511 C514 1.370 . S
C511 H523 0.931 . S
N512 C505 1.359 . S
N512 C513 1.327 . S
N512 Tb515 2.600 . S
C513 C511 1.392 . S
C513 N512 1.327 . S
C513 H520 0.930 . S
C514 C509 1.385 . S
C514 C511 1.370 . S
C514 H533 0.930 . S
Tb515 N512 2.600 . S
Tb515 N516 2.660 . S
Tb515 O549 2.362 . S
Tb515 O550 2.421 . S
Tb515 O554 2.546 . S
Tb515 O555 2.610 . S
Tb515 O557 2.320 . S
Tb515 O558 2.552 . S
Tb515 O559 2.413 . S
Tb515 C579 2.833 . S
N516 C508 1.360 . S
N516 Tb515 2.660 . S
N516 C517 1.305 . S
C517 N516 1.305 . S
C517 C519 1.407 . S
C517 H524 0.930 . S
C518 C506 1.410 . S
C518 C519 1.345 . S
C518 H526 0.930 . S
C519 C517 1.407 . S
C519 C518 1.345 . S
C519 H521 0.930 . S
H520 C513 0.930 . S
H521 C519 0.930 . S
H522 C510 0.930 . S
H523 C511 0.931 . S
H524 C517 0.930 . S
H525 C539 0.930 . S
H526 C518 0.930 . S
H527 C545 0.930 . S
H528 C536 0.930 1_565 S
H529 C543 0.931 . S
H530 C507 0.929 . S
H531 C537 0.930 . S
H532 C570 0.930 . S
H533 C514 0.930 . S
H534 C569 0.929 . S
N535 Tb504 2.660 . S
N535 C536 1.305 1_565 S
N535 C540 1.360 1_565 S
C536 H528 0.930 1_545 S
C536 N535 1.305 1_545 S
C536 C539 1.407 . S
C537 H531 0.930 . S
C537 C538 1.410 . S
C537 C539 1.345 . S
C538 C537 1.410 . S
C538 C540 1.417 . S
C538 C570 1.432 . S
C539 H525 0.930 . S
C539 C536 1.407 . S
C539 C537 1.345 . S
C540 N535 1.360 1_545 S
C540 C538 1.417 . S
C540 C544 1.437 . S
H541 C546 0.930 . S
N542 Tb504 2.600 . S
N542 C544 1.343 1_565 S
N542 C545 1.327 . S
C543 H529 0.931 . S
C543 C545 1.392 . S
C543 C546 1.370 1_565 S
C544 C540 1.437 . S
C544 N542 1.343 1_545 S
C544 C547 1.424 . S
C545 H527 0.930 . S
C545 N542 1.327 . S
C545 C543 1.392 . S
C546 H541 0.930 . S
C546 C543 1.370 1_545 S
C546 C547 1.385 . S
C547 C544 1.424 . S
C547 C546 1.385 . S
C547 C569 1.444 . S
O548 Tb504 2.546 . S
O548 C568 1.251 . S
O549 Tb504 2.610 . S
O549 Tb515 2.362 . S
O549 C560 1.283 . S
O550 Tb515 2.421 . S
O550 C567 1.262 . S
O551 Tb504 2.320 . S
O551 C567 1.260 . S
O552 Tb504 2.552 . S
O552 C560 1.243 . S
O553 Tb504 2.413 . S
O553 C568 1.256 . S
O554 Tb515 2.546 . S
O554 C579 1.251 . S
O555 Tb504 2.362 . S
O555 Tb515 2.610 . S
O555 C571 1.283 . S
O556 Tb504 2.421 . S
O556 C578 1.262 . S
O557 Tb515 2.320 . S
O557 C578 1.260 . S
O558 Tb515 2.552 . S
O558 C571 1.243 . S
O559 Tb515 2.413 . S
O559 C579 1.256 . S
C560 O549 1.283 . S
C560 O552 1.243 . S
C561 C563 1.382 . S
C561 C565 1.393 . S
C561 C568 1.500 . S
C562 C563 1.400 . S
C562 C564 1.384 . S
C563 C561 1.382 . S
C563 C562 1.400 . S
C563 H580 0.930 . S
C564 C562 1.384 . S
C564 C566 1.392 . S
C564 H581 0.931 . S
C565 C561 1.393 . S
C565 C566 1.401 . S
C565 H582 0.930 . S
C566 C564 1.392 . S
C566 C565 1.401 . S
C566 H583 0.930 . S
C567 O550 1.262 . S
C567 O551 1.260 . S
C568 Tb504 2.833 . S
C568 O548 1.251 . S
C568 O553 1.256 . S
C568 C561 1.500 . S
C569 H534 0.929 . S
C569 C547 1.444 . S
C569 C570 1.317 . S
C570 H532 0.930 . S
C570 C538 1.432 . S
C570 C569 1.317 . S
C571 O555 1.283 . S
C571 O558 1.243 . S
C572 C573 1.382 . S
C572 C576 1.393 . S
C572 C579 1.500 . S
C573 C572 1.382 . S
C573 C574 1.400 1_655 S
C573 H584 0.930 . S
C574 C573 1.400 1_455 S
C574 C575 1.384 . S
C575 C574 1.384 . S
C575 C577 1.392 1_455 S
C575 H585 0.931 . S
C576 C572 1.393 . S
C576 C577 1.401 . S
C576 H586 0.930 . S
C577 C575 1.392 1_655 S
C577 C576 1.401 . S
C577 H587 0.928 1_655 S
C578 O556 1.262 . S
C578 O557 1.260 . S
C579 Tb515 2.833 . S
C579 O554 1.251 . S
C579 O559 1.256 . S
C579 C572 1.500 . S
H580 C563 0.930 . S
H581 C564 0.931 . S
H582 C565 0.930 . S
H583 C566 0.930 . S
H584 C573 0.930 . S
H585 C575 0.931 . S
H586 C576 0.930 . S
H587 C577 0.928 1_455 S
Tb588 N619 2.660 . S
Tb588 N626 2.600 1_556 S
Tb588 O632 2.546 1_556 S
Tb588 O633 2.610 . S
Tb588 O635 2.320 . S
Tb588 O636 2.552 . S
Tb588 O637 2.413 . S
Tb588 O639 2.362 . S
Tb588 O640 2.421 1_556 S
Tb588 C652 2.833 . S
C589 C592 1.432 . S
C589 C593 1.414 . S
C589 N596 1.359 1_455 S
C590 C592 1.417 . S
C590 C594 1.432 . S
C590 C602 1.410 . S
C591 C593 1.444 . S
C591 C594 1.317 . S
C591 H614 0.929 . S
C592 C589 1.432 . S
C592 C590 1.417 . S
C592 N600 1.360 . S
C593 C589 1.414 . S
C593 C591 1.444 . S
C593 C598 1.385 . S
C594 C590 1.432 . S
C594 C591 1.317 . S
C594 H606 0.930 . S
C595 C597 1.392 1_455 S
C595 C598 1.370 . S
C595 H607 0.931 1_455 S
N596 C589 1.359 1_655 S
N596 C597 1.327 . S
N596 Tb599 2.600 . S
C597 C595 1.392 1_655 S
C597 N596 1.327 . S
C597 H604 0.930 . S
C598 C593 1.385 . S
C598 C595 1.370 . S
C598 H617 0.930 . S
Tb599 N596 2.600 . S
Tb599 N600 2.660 1_655 S
Tb599 O633 2.362 . S
Tb599 O634 2.421 . S
Tb599 O638 2.546 1_655 S
Tb599 O639 2.610 . S
Tb599 O641 2.320 . S
Tb599 O642 2.552 . S
Tb599 O643 2.413 1_655 S
Tb599 C663 2.833 1_655 S
N600 C592 1.360 . S
N600 Tb599 2.660 1_455 S
N600 C601 1.305 . S
C601 N600 1.305 . S
C601 C603 1.407 . S
C601 H608 0.931 1_455 S
C602 C590 1.410 . S
C602 C603 1.345 . S
C602 H610 0.930 . S
C603 C601 1.407 . S
C603 C602 1.345 . S
C603 H605 0.930 . S
H604 C597 0.930 . S
H605 C603 0.930 . S
H606 C594 0.930 . S
H607 C595 0.931 1_655 S
H608 C601 0.931 1_655 S
H609 C623 0.930 . S
H610 C602 0.930 . S
H611 C629 0.930 . S
H612 C620 0.930 . S
H613 C627 0.931 . S
H614 C591 0.929 . S
H615 C621 0.930 . S
H616 C654 0.930 . S
H617 C598 0.930 . S
H618 C653 0.929 . S
N619 Tb588 2.660 . S
N619 C620 1.305 . S
N619 C624 1.360 . S
C620 H612 0.930 . S
C620 N619 1.305 . S
C620 C623 1.407 . S
C621 H615 0.930 . S
C621 C622 1.410 . S
C621 C623 1.345 . S
C622 C621 1.410 . S
C622 C624 1.417 . S
C622 C654 1.432 1_556 S
C623 H609 0.930 . S
C623 C620 1.407 . S
C623 C621 1.345 . S
C624 N619 1.360 . S
C624 C622 1.417 . S
C624 C628 1.432 1_556 S
H625 C630 0.930 . S
N626 Tb588 2.600 1_554 S
N626 C628 1.359 . S
N626 C629 1.327 . S
C627 H613 0.931 . S
C627 C629 1.392 . S
C627 C630 1.370 . S
C628 C624 1.432 1_554 S
C628 N626 1.359 . S
C628 C631 1.414 . S
C629 H611 0.930 . S
C629 N626 1.327 . S
C629 C627 1.392 . S
C630 H625 0.930 . S
C630 C627 1.370 . S
C630 C631 1.385 . S
C631 C628 1.414 . S
C631 C630 1.385 . S
C631 C653 1.444 . S
O632 Tb588 2.546 1_554 S
O632 C652 1.251 1_554 S
O633 Tb588 2.610 . S
O633 Tb599 2.362 . S
O633 C644 1.283 . S
O634 Tb599 2.421 . S
O634 C651 1.262 . S
O635 Tb588 2.320 . S
O635 C651 1.260 . S
O636 Tb588 2.552 . S
O636 C644 1.243 . S
O637 Tb588 2.413 . S
O637 C652 1.256 . S
O638 Tb599 2.546 1_455 S
O638 C663 1.251 . S
O639 Tb588 2.362 . S
O639 Tb599 2.610 . S
O639 C655 1.283 . S
O640 Tb588 2.421 1_554 S
O640 C662 1.262 . S
O641 Tb599 2.320 . S
O641 C662 1.260 1_556 S
O642 Tb599 2.552 . S
O642 C655 1.243 . S
O643 Tb599 2.413 1_455 S
O643 C663 1.256 . S
C644 O633 1.283 . S
C644 O636 1.243 . S
C645 C647 1.382 . S
C645 C649 1.393 1_556 S
C645 C652 1.500 . S
C646 C647 1.400 . S
C646 C648 1.384 . S
C647 C645 1.382 . S
C647 C646 1.400 . S
C647 H664 0.930 . S
C648 C646 1.384 . S
C648 C650 1.392 1_556 S
C648 H665 0.931 1_556 S
C649 C645 1.393 1_554 S
C649 C650 1.401 . S
C649 H666 0.930 . S
C650 C648 1.392 1_554 S
C650 C649 1.401 . S
C650 H667 0.930 . S
C651 O634 1.262 . S
C651 O635 1.260 . S
C652 Tb588 2.833 . S
C652 O632 1.251 1_556 S
C652 O637 1.256 . S
C652 C645 1.500 . S
C653 H618 0.929 . S
C653 C631 1.444 . S
C653 C654 1.317 . S
C654 H616 0.930 . S
C654 C622 1.432 1_554 S
C654 C653 1.317 . S
C655 O639 1.283 . S
C655 O642 1.243 . S
C656 C657 1.382 . S
C656 C660 1.393 . S
C656 C663 1.500 . S
C657 C656 1.382 . S
C657 C658 1.400 1_565 S
C657 H668 0.930 . S
C658 C657 1.400 1_545 S
C658 C659 1.384 . S
C659 C658 1.384 . S
C659 C661 1.392 1_545 S
C659 H669 0.931 . S
C660 C656 1.393 . S
C660 C661 1.401 . S
C660 H670 0.930 . S
C661 C659 1.392 1_565 S
C661 C660 1.401 . S
C661 H671 0.930 1_565 S
C662 O640 1.262 . S
C662 O641 1.260 1_554 S
C663 Tb599 2.833 1_455 S
C663 O638 1.251 . S
C663 O643 1.256 . S
C663 C656 1.500 . S
H664 C647 0.930 . S
H665 C648 0.931 1_554 S
H666 C649 0.930 . S
H667 C650 0.930 . S
H668 C657 0.930 . S
H669 C659 0.931 . S
H670 C660 0.930 . S
H671 C661 0.930 1_545 S
Tb672 N703 2.660 . S
Tb672 N710 2.600 . S
Tb672 O716 2.546 . S
Tb672 O717 2.610 . S
Tb672 O719 2.320 . S
Tb672 O720 2.552 . S
Tb672 O721 2.413 . S
Tb672 O723 2.362 . S
Tb672 O724 2.421 . S
Tb672 C736 2.833 . S
C673 C676 1.432 . S
C673 C677 1.414 . S
C673 N680 1.359 1_545 S
C674 C676 1.417 . S
C674 C678 1.432 . S
C674 C686 1.410 . S
C675 C677 1.444 . S
C675 C678 1.317 . S
C675 H698 0.929 . S
C676 C673 1.432 . S
C676 C674 1.417 . S
C676 N684 1.360 . S
C677 C673 1.414 . S
C677 C675 1.444 . S
C677 C682 1.385 . S
C678 C674 1.432 . S
C678 C675 1.317 . S
C678 H690 0.930 . S
C679 C681 1.392 1_545 S
C679 C682 1.370 . S
C679 H691 0.931 1_545 S
N680 C673 1.359 1_565 S
N680 C681 1.327 . S
N680 Tb683 2.600 . S
C681 C679 1.392 1_565 S
C681 N680 1.327 . S
C681 H688 0.930 . S
C682 C677 1.385 . S
C682 C679 1.370 . S
C682 H701 0.930 . S
Tb683 N680 2.600 . S
Tb683 N684 2.660 1_565 S
Tb683 O717 2.362 . S
Tb683 O718 2.421 . S
Tb683 O722 2.546 1_565 S
Tb683 O723 2.610 . S
Tb683 O725 2.320 . S
Tb683 O726 2.552 . S
Tb683 O727 2.413 1_565 S
Tb683 C747 2.833 1_565 S
N684 C676 1.360 . S
N684 Tb683 2.660 1_545 S
N684 C685 1.305 . S
C685 N684 1.305 . S
C685 C687 1.407 . S
C685 H692 0.930 1_545 S
C686 C674 1.410 . S
C686 C687 1.345 . S
C686 H694 0.930 . S
C687 C685 1.407 . S
C687 C686 1.345 . S
C687 H689 0.930 . S
H688 C681 0.930 . S
H689 C687 0.930 . S
H690 C678 0.930 . S
H691 C679 0.931 1_565 S
H692 C685 0.930 1_565 S
H693 C707 0.930 . S
H694 C686 0.930 . S
H695 C713 0.930 . S
H696 C704 0.930 1_455 S
H697 C711 0.931 . S
H698 C675 0.929 . S
H699 C705 0.930 . S
H700 C738 0.930 . S
H701 C682 0.930 . S
H702 C737 0.929 . S
N703 Tb672 2.660 . S
N703 C704 1.305 1_455 S
N703 C708 1.360 1_455 S
C704 H696 0.930 1_655 S
C704 N703 1.305 1_655 S
C704 C707 1.407 . S
C705 H699 0.930 . S
C705 C706 1.410 . S
C705 C707 1.345 . S
C706 C705 1.410 . S
C706 C708 1.417 . S
C706 C738 1.432 . S
C707 H693 0.930 . S
C707 C704 1.407 . S
C707 C705 1.345 . S
C708 N703 1.360 1_655 S
C708 C706 1.417 . S
C708 C712 1.438 . S
H709 C714 0.930 . S
N710 Tb672 2.600 . S
N710 C712 1.345 1_455 S
N710 C713 1.327 . S
C711 H697 0.931 . S
C711 C713 1.392 . S
C711 C714 1.370 1_455 S
C712 C708 1.438 . S
C712 N710 1.345 1_655 S
C712 C715 1.422 . S
C713 H695 0.930 . S
C713 N710 1.327 . S
C713 C711 1.392 . S
C714 H709 0.930 . S
C714 C711 1.370 1_655 S
C714 C715 1.385 . S
C715 C712 1.422 . S
C715 C714 1.385 . S
C715 C737 1.444 . S
O716 Tb672 2.546 . S
O716 C736 1.251 . S
O717 Tb672 2.610 . S
O717 Tb683 2.362 . S
O717 C728 1.283 . S
O718 Tb683 2.421 . S
O718 C735 1.262 . S
O719 Tb672 2.320 . S
O719 C735 1.260 . S
O720 Tb672 2.552 . S
O720 C728 1.243 . S
O721 Tb672 2.413 . S
O721 C736 1.256 . S
O722 Tb683 2.546 1_545 S
O722 C747 1.251 . S
O723 Tb672 2.362 . S
O723 Tb683 2.610 . S
O723 C739 1.283 . S
O724 Tb672 2.421 . S
O724 C746 1.262 . S
O725 Tb683 2.320 . S
O725 C746 1.260 . S
O726 Tb683 2.552 . S
O726 C739 1.243 . S
O727 Tb683 2.413 1_545 S
O727 C747 1.256 . S
C728 O717 1.283 . S
C728 O720 1.243 . S
C729 C731 1.382 . S
C729 C733 1.393 . S
C729 C736 1.500 . S
C730 C731 1.400 . S
C730 C732 1.384 . S
C731 C729 1.382 . S
C731 C730 1.400 . S
C731 H748 0.930 . S
C732 C730 1.384 . S
C732 C734 1.392 . S
C732 H749 0.931 . S
C733 C729 1.393 . S
C733 C734 1.401 . S
C733 H750 0.930 . S
C734 C732 1.392 . S
C734 C733 1.401 . S
C734 H751 0.930 . S
C735 O718 1.262 . S
C735 O719 1.260 . S
C736 Tb672 2.833 . S
C736 O716 1.251 . S
C736 O721 1.256 . S
C736 C729 1.500 . S
C737 H702 0.929 . S
C737 C715 1.444 . S
C737 C738 1.317 . S
C738 H700 0.930 . S
C738 C706 1.432 . S
C738 C737 1.317 . S
C739 O723 1.283 . S
C739 O726 1.243 . S
C740 C741 1.382 . S
C740 C744 1.393 . S
C740 C747 1.500 . S
C741 C740 1.382 . S
C741 C742 1.400 . S
C741 H752 0.930 . S
C742 C741 1.400 . S
C742 C743 1.384 . S
C743 C742 1.384 . S
C743 C745 1.392 . S
C743 H753 0.931 . S
C744 C740 1.393 . S
C744 C745 1.401 . S
C744 H754 0.930 . S
C745 C743 1.392 . S
C745 C744 1.401 . S
C745 H755 0.930 . S
C746 O724 1.262 . S
C746 O725 1.260 . S
C747 Tb683 2.833 1_545 S
C747 O722 1.251 . S
C747 O727 1.256 . S
C747 C740 1.500 . S
H748 C731 0.930 . S
H749 C732 0.931 . S
H750 C733 0.930 . S
H751 C734 0.930 . S
H752 C741 0.930 . S
H753 C743 0.931 . S
H754 C744 0.930 . S
H755 C745 0.930 . S
Tb756 N787 2.660 . S
Tb756 N794 2.600 1_556 S
Tb756 O800 2.546 1_556 S
Tb756 O801 2.610 . S
Tb756 O803 2.320 . S
Tb756 O804 2.552 . S
Tb756 O805 2.413 . S
Tb756 O807 2.362 . S
Tb756 O808 2.421 1_556 S
Tb756 C820 2.833 . S
C757 C760 1.432 . S
C757 C761 1.414 . S
C757 N764 1.359 . S
C758 C760 1.417 . S
C758 C762 1.432 . S
C758 C770 1.410 . S
C759 C761 1.444 . S
C759 C762 1.317 . S
C759 H782 0.929 . S
C760 C757 1.432 . S
C760 C758 1.417 . S
C760 N768 1.360 . S
C761 C757 1.414 . S
C761 C759 1.444 . S
C761 C766 1.385 . S
C762 C758 1.432 . S
C762 C759 1.317 . S
C762 H774 0.930 . S
C763 C765 1.392 . S
C763 C766 1.370 . S
C763 H775 0.931 . S
N764 C757 1.359 . S
N764 C765 1.327 . S
N764 Tb767 2.600 . S
C765 C763 1.392 . S
C765 N764 1.327 . S
C765 H772 0.930 . S
C766 C761 1.385 . S
C766 C763 1.370 . S
C766 H785 0.930 . S
Tb767 N764 2.600 . S
Tb767 N768 2.660 . S
Tb767 O801 2.362 . S
Tb767 O802 2.421 . S
Tb767 O806 2.546 . S
Tb767 O807 2.610 . S
Tb767 O809 2.320 . S
Tb767 O810 2.552 . S
Tb767 O811 2.413 . S
Tb767 C831 2.833 . S
N768 C760 1.360 . S
N768 Tb767 2.660 . S
N768 C769 1.305 . S
C769 N768 1.305 . S
C769 C771 1.407 . S
C769 H776 0.930 . S
C770 C758 1.410 . S
C770 C771 1.345 . S
C770 H778 0.930 . S
C771 C769 1.407 . S
C771 C770 1.345 . S
C771 H773 0.930 . S
H772 C765 0.930 . S
H773 C771 0.930 . S
H774 C762 0.930 . S
H775 C763 0.931 . S
H776 C769 0.930 . S
H777 C791 0.930 . S
H778 C770 0.930 . S
H779 C797 0.930 . S
H780 C788 0.930 1_545 S
H781 C795 0.931 . S
H782 C759 0.929 . S
H783 C789 0.930 . S
H784 C822 0.930 . S
H785 C766 0.930 . S
H786 C821 0.929 . S
N787 Tb756 2.660 . S
N787 C788 1.305 1_545 S
N787 C792 1.360 1_545 S
C788 H780 0.930 1_565 S
C788 N787 1.305 1_565 S
C788 C791 1.407 . S
C789 H783 0.930 . S
C789 C790 1.410 . S
C789 C791 1.345 . S
C790 C789 1.410 . S
C790 C792 1.417 . S
C790 C822 1.432 1_556 S
C791 H777 0.930 . S
C791 C788 1.407 . S
C791 C789 1.345 . S
C792 N787 1.360 1_565 S
C792 C790 1.417 . S
C792 C796 1.437 1_556 S
H793 C798 0.930 . S
N794 Tb756 2.600 1_554 S
N794 C796 1.343 1_545 S
N794 C797 1.327 . S
C795 H781 0.931 . S
C795 C797 1.392 . S
C795 C798 1.370 1_545 S
C796 C792 1.437 1_554 S
C796 N794 1.343 1_565 S
C796 C799 1.424 . S
C797 H779 0.930 . S
C797 N794 1.327 . S
C797 C795 1.392 . S
C798 H793 0.930 . S
C798 C795 1.370 1_565 S
C798 C799 1.385 . S
C799 C796 1.424 . S
C799 C798 1.385 . S
C799 C821 1.444 . S
O800 Tb756 2.546 1_554 S
O800 C820 1.251 1_554 S
O801 Tb756 2.610 . S
O801 Tb767 2.362 . S
O801 C812 1.283 . S
O802 Tb767 2.421 . S
O802 C819 1.262 . S
O803 Tb756 2.320 . S
O803 C819 1.260 . S
O804 Tb756 2.552 . S
O804 C812 1.243 . S
O805 Tb756 2.413 . S
O805 C820 1.256 . S
O806 Tb767 2.546 . S
O806 C831 1.251 . S
O807 Tb756 2.362 . S
O807 Tb767 2.610 . S
O807 C823 1.283 . S
O808 Tb756 2.421 1_554 S
O808 C830 1.262 . S
O809 Tb767 2.320 . S
O809 C830 1.260 1_556 S
O810 Tb767 2.552 . S
O810 C823 1.243 . S
O811 Tb767 2.413 . S
O811 C831 1.256 . S
C812 O801 1.283 . S
C812 O804 1.243 . S
C813 C815 1.382 . S
C813 C817 1.393 1_556 S
C813 C820 1.500 . S
C814 C815 1.400 . S
C814 C816 1.384 . S
C815 C813 1.382 . S
C815 C814 1.400 . S
C815 H832 0.930 . S
C816 C814 1.384 . S
C816 C818 1.392 1_556 S
C816 H833 0.931 1_556 S
C817 C813 1.393 1_554 S
C817 C818 1.401 . S
C817 H834 0.930 . S
C818 C816 1.392 1_554 S
C818 C817 1.401 . S
C818 H835 0.930 . S
C819 O802 1.262 . S
C819 O803 1.260 . S
C820 Tb756 2.833 . S
C820 O800 1.251 1_556 S
C820 O805 1.256 . S
C820 C813 1.500 . S
C821 H786 0.929 . S
C821 C799 1.444 . S
C821 C822 1.317 . S
C822 H784 0.930 . S
C822 C790 1.432 1_554 S
C822 C821 1.317 . S
C823 O807 1.283 . S
C823 O810 1.243 . S
C824 C825 1.382 . S
C824 C828 1.393 . S
C824 C831 1.500 . S
C825 C824 1.382 . S
C825 C826 1.400 1_455 S
C825 H836 0.930 . S
C826 C825 1.400 1_655 S
C826 C827 1.384 . S
C827 C826 1.384 . S
C827 C829 1.392 1_655 S
C827 H837 0.931 . S
C828 C824 1.393 . S
C828 C829 1.401 . S
C828 H838 0.930 . S
C829 C827 1.392 1_455 S
C829 C828 1.401 . S
C829 H839 0.928 1_455 S
C830 O808 1.262 . S
C830 O809 1.260 1_554 S
C831 Tb767 2.833 . S
C831 O806 1.251 . S
C831 O811 1.256 . S
C831 C824 1.500 . S
H832 C815 0.930 . S
H833 C816 0.931 1_554 S
H834 C817 0.930 . S
H835 C818 0.930 . S
H836 C825 0.930 . S
H837 C827 0.931 . S
H838 C828 0.930 . S
H839 C829 0.928 1_655 S
Tb840 N871 2.660 . S
Tb840 N878 2.600 . S
Tb840 O884 2.546 . S
Tb840 O885 2.610 . S
Tb840 O887 2.320 . S
Tb840 O888 2.552 . S
Tb840 O889 2.413 . S
Tb840 O891 2.362 . S
Tb840 O892 2.421 . S
Tb840 C904 2.833 . S
C841 C844 1.432 . S
C841 C845 1.414 . S
C841 N848 1.359 1_655 S
C842 C844 1.417 . S
C842 C846 1.432 . S
C842 C854 1.410 . S
C843 C845 1.444 . S
C843 C846 1.317 . S
C843 H866 0.929 . S
C844 C841 1.432 . S
C844 C842 1.417 . S
C844 N852 1.360 . S
C845 C841 1.414 . S
C845 C843 1.444 . S
C845 C850 1.385 . S
C846 C842 1.432 . S
C846 C843 1.317 . S
C846 H858 0.930 . S
C847 C849 1.392 1_655 S
C847 C850 1.370 . S
C847 H859 0.931 1_655 S
N848 C841 1.359 1_455 S
N848 C849 1.327 . S
N848 Tb851 2.600 . S
C849 C847 1.392 1_455 S
C849 N848 1.327 . S
C849 H856 0.930 . S
C850 C845 1.385 . S
C850 C847 1.370 . S
C850 H869 0.930 . S
Tb851 N848 2.600 . S
Tb851 N852 2.660 1_455 S
Tb851 O885 2.362 . S
Tb851 O886 2.421 . S
Tb851 O890 2.546 1_455 S
Tb851 O891 2.610 . S
Tb851 O893 2.320 . S
Tb851 O894 2.552 . S
Tb851 O895 2.413 1_455 S
Tb851 C915 2.833 1_455 S
N852 C844 1.360 . S
N852 Tb851 2.660 1_655 S
N852 C853 1.305 . S
C853 N852 1.305 . S
C853 C855 1.407 . S
C853 H860 0.931 1_655 S
C854 C842 1.410 . S
C854 C855 1.345 . S
C854 H862 0.930 . S
C855 C853 1.407 . S
C855 C854 1.345 . S
C855 H857 0.930 . S
H856 C849 0.930 . S
H857 C855 0.930 . S
H858 C846 0.930 . S
H859 C847 0.931 1_455 S
H860 C853 0.931 1_455 S
H861 C875 0.930 . S
H862 C854 0.930 . S
H863 C881 0.930 . S
H864 C872 0.930 . S
H865 C879 0.931 . S
H866 C843 0.929 . S
H867 C873 0.930 . S
H868 C906 0.930 . S
H869 C850 0.930 . S
H870 C905 0.929 . S
N871 Tb840 2.660 . S
N871 C872 1.305 . S
N871 C876 1.360 . S
C872 H864 0.930 . S
C872 N871 1.305 . S
C872 C875 1.407 . S
C873 H867 0.930 . S
C873 C874 1.410 . S
C873 C875 1.345 . S
C874 C873 1.410 . S
C874 C876 1.417 . S
C874 C906 1.432 . S
C875 H861 0.930 . S
C875 C872 1.407 . S
C875 C873 1.345 . S
C876 N871 1.360 . S
C876 C874 1.417 . S
C876 C880 1.432 . S
H877 C882 0.930 . S
N878 Tb840 2.600 . S
N878 C880 1.359 . S
N878 C881 1.327 . S
C879 H865 0.931 . S
C879 C881 1.392 . S
C879 C882 1.370 . S
C880 C876 1.432 . S
C880 N878 1.359 . S
C880 C883 1.414 . S
C881 H863 0.930 . S
C881 N878 1.327 . S
C881 C879 1.392 . S
C882 H877 0.930 . S
C882 C879 1.370 . S
C882 C883 1.385 . S
C883 C880 1.414 . S
C883 C882 1.385 . S
C883 C905 1.444 . S
O884 Tb840 2.546 . S
O884 C904 1.251 . S
O885 Tb840 2.610 . S
O885 Tb851 2.362 . S
O885 C896 1.283 . S
O886 Tb851 2.421 . S
O886 C903 1.262 . S
O887 Tb840 2.320 . S
O887 C903 1.260 . S
O888 Tb840 2.552 . S
O888 C896 1.243 . S
O889 Tb840 2.413 . S
O889 C904 1.256 . S
O890 Tb851 2.546 1_655 S
O890 C915 1.251 . S
O891 Tb840 2.362 . S
O891 Tb851 2.610 . S
O891 C907 1.283 . S
O892 Tb840 2.421 . S
O892 C914 1.262 . S
O893 Tb851 2.320 . S
O893 C914 1.260 . S
O894 Tb851 2.552 . S
O894 C907 1.243 . S
O895 Tb851 2.413 1_655 S
O895 C915 1.256 . S
C896 O885 1.283 . S
C896 O888 1.243 . S
C897 C899 1.382 . S
C897 C901 1.393 . S
C897 C904 1.500 . S
C898 C899 1.400 . S
C898 C900 1.384 . S
C899 C897 1.382 . S
C899 C898 1.400 . S
C899 H916 0.930 . S
C900 C898 1.384 . S
C900 C902 1.392 . S
C900 H917 0.931 . S
C901 C897 1.393 . S
C901 C902 1.401 . S
C901 H918 0.930 . S
C902 C900 1.392 . S
C902 C901 1.401 . S
C902 H919 0.930 . S
C903 O886 1.262 . S
C903 O887 1.260 . S
C904 Tb840 2.833 . S
C904 O884 1.251 . S
C904 O889 1.256 . S
C904 C897 1.500 . S
C905 H870 0.929 . S
C905 C883 1.444 . S
C905 C906 1.317 . S
C906 H868 0.930 . S
C906 C874 1.432 . S
C906 C905 1.317 . S
C907 O891 1.283 . S
C907 O894 1.243 . S
C908 C909 1.382 . S
C908 C912 1.393 . S
C908 C915 1.500 . S
C909 C908 1.382 . S
C909 C910 1.400 1_545 S
C909 H920 0.930 . S
C910 C909 1.400 1_565 S
C910 C911 1.384 . S
C911 C910 1.384 . S
C911 C913 1.392 1_565 S
C911 H921 0.931 . S
C912 C908 1.393 . S
C912 C913 1.401 . S
C912 H922 0.930 . S
C913 C911 1.392 1_545 S
C913 C912 1.401 . S
C913 H923 0.930 1_545 S
C914 O892 1.262 . S
C914 O893 1.260 . S
C915 Tb851 2.833 1_655 S
C915 O890 1.251 . S
C915 O895 1.256 . S
C915 C908 1.500 . S
H916 C899 0.930 . S
H917 C900 0.931 . S
H918 C901 0.930 . S
H919 C902 0.930 . S
H920 C909 0.930 . S
H921 C911 0.931 . S
H922 C912 0.930 . S
H923 C913 0.930 1_565 S
Tb924 N955 2.660 . S
Tb924 N962 2.600 1_556 S
Tb924 O968 2.546 1_556 S
Tb924 O969 2.610 . S
Tb924 O971 2.320 . S
Tb924 O972 2.552 . S
Tb924 O973 2.413 . S
Tb924 O975 2.362 . S
Tb924 O976 2.421 1_556 S
Tb924 C988 2.833 . S
C925 C928 1.432 . S
C925 C929 1.414 . S
C925 N932 1.359 1_565 S
C926 C928 1.417 . S
C926 C930 1.432 . S
C926 C938 1.410 . S
C927 C929 1.444 . S
C927 C930 1.317 . S
C927 H950 0.929 . S
C928 C925 1.432 . S
C928 C926 1.417 . S
C928 N936 1.360 . S
C929 C925 1.414 . S
C929 C927 1.444 . S
C929 C934 1.385 . S
C930 C926 1.432 . S
C930 C927 1.317 . S
C930 H942 0.930 . S
C931 C933 1.392 1_565 S
C931 C934 1.370 . S
C931 H943 0.931 1_565 S
N932 C925 1.359 1_545 S
N932 C933 1.327 . S
N932 Tb935 2.600 . S
C933 C931 1.392 1_545 S
C933 N932 1.327 . S
C933 H940 0.930 . S
C934 C929 1.385 . S
C934 C931 1.370 . S
C934 H953 0.930 . S
Tb935 N932 2.600 . S
Tb935 N936 2.660 1_545 S
Tb935 O969 2.362 . S
Tb935 O970 2.421 . S
Tb935 O974 2.546 1_545 S
Tb935 O975 2.610 . S
Tb935 O977 2.320 . S
Tb935 O978 2.552 . S
Tb935 O979 2.413 1_545 S
Tb935 C999 2.833 1_545 S
N936 C928 1.360 . S
N936 Tb935 2.660 1_565 S
N936 C937 1.305 . S
C937 N936 1.305 . S
C937 C939 1.407 . S
C937 H944 0.930 1_565 S
C938 C926 1.410 . S
C938 C939 1.345 . S
C938 H946 0.930 . S
C939 C937 1.407 . S
C939 C938 1.345 . S
C939 H941 0.930 . S
H940 C933 0.930 . S
H941 C939 0.930 . S
H942 C930 0.930 . S
H943 C931 0.931 1_545 S
H944 C937 0.930 1_545 S
H945 C959 0.930 . S
H946 C938 0.930 . S
H947 C965 0.930 . S
H948 C956 0.930 1_655 S
H949 C963 0.931 . S
H950 C927 0.929 . S
H951 C957 0.930 . S
H952 C990 0.930 . S
H953 C934 0.930 . S
H954 C989 0.929 . S
N955 Tb924 2.660 . S
N955 C956 1.305 1_655 S
N955 C960 1.360 1_655 S
C956 H948 0.930 1_455 S
C956 N955 1.305 1_455 S
C956 C959 1.407 . S
C957 H951 0.930 . S
C957 C958 1.410 . S
C957 C959 1.345 . S
C958 C957 1.410 . S
C958 C960 1.417 . S
C958 C990 1.432 1_556 S
C959 H945 0.930 . S
C959 C956 1.407 . S
C959 C957 1.345 . S
C960 N955 1.360 1_455 S
C960 C958 1.417 . S
C960 C964 1.438 1_556 S
H961 C966 0.930 . S
N962 Tb924 2.600 1_554 S
N962 C964 1.345 1_655 S
N962 C965 1.327 . S
C963 H949 0.931 . S
C963 C965 1.392 . S
C963 C966 1.370 1_655 S
C964 C960 1.438 1_554 S
C964 N962 1.345 1_455 S
C964 C967 1.422 . S
C965 H947 0.930 . S
C965 N962 1.327 . S
C965 C963 1.392 . S
C966 H961 0.930 . S
C966 C963 1.370 1_455 S
C966 C967 1.385 . S
C967 C964 1.422 . S
C967 C966 1.385 . S
C967 C989 1.444 . S
O968 Tb924 2.546 1_554 S
O968 C988 1.251 1_554 S
O969 Tb924 2.610 . S
O969 Tb935 2.362 . S
O969 C980 1.283 . S
O970 Tb935 2.421 . S
O970 C987 1.262 . S
O971 Tb924 2.320 . S
O971 C987 1.260 . S
O972 Tb924 2.552 . S
O972 C980 1.243 . S
O973 Tb924 2.413 . S
O973 C988 1.256 . S
O974 Tb935 2.546 1_565 S
O974 C999 1.251 . S
O975 Tb924 2.362 . S
O975 Tb935 2.610 . S
O975 C991 1.283 . S
O976 Tb924 2.421 1_554 S
O976 C998 1.262 . S
O977 Tb935 2.320 . S
O977 C998 1.260 1_556 S
O978 Tb935 2.552 . S
O978 C991 1.243 . S
O979 Tb935 2.413 1_565 S
O979 C999 1.256 . S
C980 O969 1.283 . S
C980 O972 1.243 . S
C981 C983 1.382 . S
C981 C985 1.393 1_556 S
C981 C988 1.500 . S
C982 C983 1.400 . S
C982 C984 1.384 . S
C983 C981 1.382 . S
C983 C982 1.400 . S
C983 H1000 0.930 . S
C984 C982 1.384 . S
C984 C986 1.392 1_556 S
C984 H1001 0.931 1_556 S
C985 C981 1.393 1_554 S
C985 C986 1.401 . S
C985 H1002 0.930 . S
C986 C984 1.392 1_554 S
C986 C985 1.401 . S
C986 H1003 0.930 . S
C987 O970 1.262 . S
C987 O971 1.260 . S
C988 Tb924 2.833 . S
C988 O968 1.251 1_556 S
C988 O973 1.256 . S
C988 C981 1.500 . S
C989 H954 0.929 . S
C989 C967 1.444 . S
C989 C990 1.317 . S
C990 H952 0.930 . S
C990 C958 1.432 1_554 S
C990 C989 1.317 . S
C991 O975 1.283 . S
C991 O978 1.243 . S
C992 C993 1.382 . S
C992 C996 1.393 . S
C992 C999 1.500 . S
C993 C992 1.382 . S
C993 C994 1.400 . S
C993 H1004 0.930 . S
C994 C993 1.400 . S
C994 C995 1.384 . S
C995 C994 1.384 . S
C995 C997 1.392 . S
C995 H1005 0.931 . S
C996 C992 1.393 . S
C996 C997 1.401 . S
C996 H1006 0.930 . S
C997 C995 1.392 . S
C997 C996 1.401 . S
C997 H1007 0.930 . S
C998 O976 1.262 . S
C998 O977 1.260 1_554 S
C999 Tb935 2.833 1_565 S
C999 O974 1.251 . S
C999 O979 1.256 . S
C999 C992 1.500 . S
H1000 C983 0.930 . S
H1001 C984 0.931 1_554 S
H1002 C985 0.930 . S
H1003 C986 0.930 . S
H1004 C993 0.930 . S
H1005 C995 0.931 . S
H1006 C996 0.930 . S
H1007 C997 0.930 . S
C403 C70 2.045 . S
C487 C154 2.045 . S
C238 C67 2.045 . S
C322 C151 2.045 . S
C406 C235 2.045 . S
C319 C490 2.045 . S
C739 C574 2.045 . S
C658 C823 2.045 . S
C907 C742 2.045 . S
C826 C991 2.045 . S
C910 C571 2.045 . S
C655 C994 2.045 . S
C392 C58 1.451 . S
C142 C476 1.451 . S
C226 C56 1.451 . S
C310 C140 1.451 . S
C224 C394 1.451 . S
C308 C478 1.451 . S
C728 C562 1.451 . S
C646 C812 1.451 . S
C730 C896 1.451 . S
C980 C814 1.451 . S
C898 C560 1.451 . S
C644 C982 1.451 . S
C903 C63 2.411 . S
C147 C987 2.411 . S
C231 C567 2.411 . S
C315 C651 2.411 . S
C399 C735 2.411 . S
C819 C483 2.411 . S
C830 C74 3.465 1_554 S
C914 C158 3.465 1_455 S
C242 C998 3.465 1_566 S
C326 C578 3.465 . S
C662 C410 3.465 1_654 S
C746 C494 3.465 1_565 S
