# Generated by pormake.
# Topology lig, (3)-cn, num edge types: 1
# Building blocks:
#     Node 0, Type 0, BuildingBlock: WUSLED_clean_sbu_0, # of connection points: 3
#     Node 1, Type 0, BuildingBlock: WUSLED_clean_sbu_0, # of connection points: 3
#     Node 2, Type 0, BuildingBlock: WUSLED_clean_sbu_0, # of connection points: 3
#     Node 3, Type 0, BuildingBlock: WUSLED_clean_sbu_0, # of connection points: 3
#     Node 4, Type 0, BuildingBlock: WUSLED_clean_sbu_0, # of connection points: 3
#     Node 5, Type 0, BuildingBlock: WUSLED_clean_sbu_0, # of connection points: 3
#     Node 6, Type 0, BuildingBlock: WUSLED_clean_sbu_0, # of connection points: 3
#     Node 7, Type 0, BuildingBlock: WUSLED_clean_sbu_0, # of connection points: 3
#     Node 8, Type 0, BuildingBlock: WUSLED_clean_sbu_0, # of connection points: 3
#     Node 9, Type 0, BuildingBlock: WUSLED_clean_sbu_0, # of connection points: 3
#     Node 10, Type 0, BuildingBlock: WUSLED_clean_sbu_0, # of connection points: 3
#     Node 11, Type 0, BuildingBlock: WUSLED_clean_sbu_0, # of connection points: 3
#     Node 12, Type 0, BuildingBlock: WUSLED_clean_sbu_0, # of connection points: 3
#     Node 13, Type 0, BuildingBlock: WUSLED_clean_sbu_0, # of connection points: 3
#     Node 14, Type 0, BuildingBlock: WUSLED_clean_sbu_0, # of connection points: 3
#     Node 15, Type 0, BuildingBlock: WUSLED_clean_sbu_0, # of connection points: 3
#     Edge 16, Type (0, 0), BuildingBlock: OJICUG_clean_linker_0, # of connection points: 2
#     Edge 17, Type (0, 0), BuildingBlock: OJICUG_clean_linker_0, # of connection points: 2
#     Edge 18, Type (0, 0), BuildingBlock: OJICUG_clean_linker_0, # of connection points: 2
#     Edge 19, Type (0, 0), BuildingBlock: OJICUG_clean_linker_0, # of connection points: 2
#     Edge 20, Type (0, 0), BuildingBlock: OJICUG_clean_linker_0, # of connection points: 2
#     Edge 21, Type (0, 0), BuildingBlock: OJICUG_clean_linker_0, # of connection points: 2
#     Edge 22, Type (0, 0), BuildingBlock: OJICUG_clean_linker_0, # of connection points: 2
#     Edge 23, Type (0, 0), BuildingBlock: OJICUG_clean_linker_0, # of connection points: 2
#     Edge 24, Type (0, 0), BuildingBlock: OJICUG_clean_linker_0, # of connection points: 2
#     Edge 25, Type (0, 0), BuildingBlock: OJICUG_clean_linker_0, # of connection points: 2
#     Edge 26, Type (0, 0), BuildingBlock: OJICUG_clean_linker_0, # of connection points: 2
#     Edge 27, Type (0, 0), BuildingBlock: OJICUG_clean_linker_0, # of connection points: 2
#     Edge 28, Type (0, 0), BuildingBlock: OJICUG_clean_linker_0, # of connection points: 2
#     Edge 29, Type (0, 0), BuildingBlock: OJICUG_clean_linker_0, # of connection points: 2
#     Edge 30, Type (0, 0), BuildingBlock: OJICUG_clean_linker_0, # of connection points: 2
#     Edge 31, Type (0, 0), BuildingBlock: OJICUG_clean_linker_0, # of connection points: 2
#     Edge 32, Type (0, 0), BuildingBlock: OJICUG_clean_linker_0, # of connection points: 2
#     Edge 33, Type (0, 0), BuildingBlock: OJICUG_clean_linker_0, # of connection points: 2
#     Edge 34, Type (0, 0), BuildingBlock: OJICUG_clean_linker_0, # of connection points: 2
#     Edge 35, Type (0, 0), BuildingBlock: OJICUG_clean_linker_0, # of connection points: 2
#     Edge 36, Type (0, 0), BuildingBlock: OJICUG_clean_linker_0, # of connection points: 2
#     Edge 37, Type (0, 0), BuildingBlock: OJICUG_clean_linker_0, # of connection points: 2
#     Edge 38, Type (0, 0), BuildingBlock: OJICUG_clean_linker_0, # of connection points: 2
#     Edge 39, Type (0, 0), BuildingBlock: OJICUG_clean_linker_0, # of connection points: 2
# Relax obj value: 0.000
# Max RMSD: 0.008
# Mean RMSD: 0.005
data_MOF--net-lig--node1-WUSLED_clean_sbu_0--edge1-OJICUG_clean_linker_0
_symmetry_space_group_name_H-M    P1
_symmetry_Int_Tables_number       1
_symmetry_cell_setting            triclinic
loop_
_symmetry_equiv_pos_as_xyz
'x, y, z'
_cell_length_a     75.384479
_cell_length_b     76.28588
_cell_length_c     53.897174
_cell_angle_alpha  88.540245
_cell_angle_beta   89.97857
_cell_angle_gamma 91.351864
loop_
_atom_site_label
_atom_site_type_symbol
_atom_site_fract_x
_atom_site_fract_y
_atom_site_fract_z
_atom_type_partial_charge
C0 C 0.09385 1.01681 0.04728 0.0
C1 C 0.08385 0.02559 0.0649 0.0
C2 C 0.05647 1.01945 0.0422 0.0
C3 C 0.06545 0.02695 0.06238 0.0
C4 C 0.06652 1.01091 0.02431 0.0
C5 C 0.08498 1.00959 0.0268 0.0
U6 U 0.14444 0.02332 0.03389 0.0
O7 O 0.16617 0.02705 0.06078 0.0
O8 O 0.16571 1.00409 0.03709 0.0
C9 C 0.17337 1.012 0.05582 0.0
C10 C 0.11304 1.01401 0.05192 0.0
C11 C 0.17884 1.00086 0.07745 0.0
C12 C 0.19437 0.99834 0.11706 0.0
C13 C 0.18755 1.00864 0.09757 0.0
C14 C 0.18378 0.97214 0.09693 0.0
C15 C 0.19279 0.97992 0.11689 0.0
C16 C 0.17692 0.98246 0.07745 0.0
C17 C 0.16055 0.0531 0.97801 0.0
C18 C 0.17862 0.05373 0.94034 0.0
C19 C 0.17682 0.07978 0.96475 0.0
C20 C 0.16553 0.07075 0.98159 0.0
C21 C 0.18336 0.07148 0.94371 0.0
C22 C 0.16734 0.04468 0.95721 0.0
C23 C 0.14692 0.04427 0.99435 0.0
O24 O 0.1217 1.00467 0.03592 0.0
O25 O 0.12239 0.02754 0.05977 0.0
O26 O 0.14553 0.04995 1.01709 0.0
O27 O 0.14515 0.02711 0.99323 0.0
H28 H 0.09023 0.03105 0.08108 0.0
H29 H 0.05818 0.03339 0.07675 0.0
H30 H 0.06011 1.00514 1.00839 0.0
H31 H 0.09221 1.00263 1.01292 0.0
H32 H 0.20097 1.00485 0.13224 0.0
H33 H 0.18941 0.02276 0.09804 0.0
H34 H 0.18249 0.95801 0.09592 0.0
H35 H 0.17048 0.97596 0.06214 0.0
H36 H 0.18353 0.04684 0.92452 0.0
H37 H 0.17992 0.09349 0.96781 0.0
H38 H 0.1603 0.07778 0.99709 0.0
H39 H 0.16364 0.03118 0.95362 0.0
C40 C 0.27608 0.8479 0.29923 0.0
C41 C 0.26241 0.84154 0.28396 0.0
C42 C 0.27244 0.81148 0.29047 0.0
C43 C 0.26059 0.82351 0.27966 0.0
C44 C 0.2862 0.81804 0.30554 0.0
C45 C 0.28798 0.83601 0.30985 0.0
U46 U 0.2687 0.89742 0.28649 0.0
O47 O 0.26259 0.91794 0.3131 0.0
O48 O 0.28731 0.91973 0.29158 0.0
C49 C 0.27781 0.92638 0.30936 0.0
C50 C 0.27803 0.8667 0.30496 0.0
C51 C 0.28733 0.93263 0.33175 0.0
C52 C 0.31462 0.93834 0.35491 0.0
C53 C 0.30569 0.93049 0.33505 0.0
C54 C 0.287 0.95024 0.36887 0.0
C55 C 0.30544 0.94859 0.37185 0.0
C56 C 0.27811 0.94242 0.34906 0.0
C57 C 0.24203 0.91292 0.22844 0.0
C58 C 0.24414 0.93332 0.19283 0.0
C59 C 0.21563 0.92711 0.21206 0.0
C60 C 0.22366 0.91571 0.22924 0.0
C61 C 0.22572 0.93595 0.19344 0.0
C62 C 0.25218 0.92193 0.21004 0.0
C63 C 0.25008 0.89945 0.24521 0.0
O64 O 0.28814 0.87633 0.28984 0.0
O65 O 0.26349 0.8746 0.31147 0.0
O66 O 0.24287 0.89706 0.2673 0.0
O67 O 0.2675 0.89883 0.24567 0.0
H68 H 0.25311 0.85049 0.27549 0.0
H69 H 0.24997 0.819 0.26771 0.0
H70 H 0.29543 0.80923 0.31446 0.0
H71 H 0.29859 0.84063 0.32176 0.0
H72 H 0.32883 0.93688 0.35646 0.0
H73 H 0.31326 0.92313 0.32197 0.0
H74 H 0.2794 0.95774 0.38174 0.0
H75 H 0.26399 0.9444 0.34694 0.0
H76 H 0.25234 0.93965 0.17857 0.0
H77 H 0.20146 0.92895 0.21336 0.0
H78 H 0.21539 0.90883 0.24293 0.0
H79 H 0.2663 0.91992 0.20852 0.0
C80 C 0.35737 1.00486 0.49063 0.0
C81 C 0.35317 1.01347 0.46808 0.0
C82 C 0.34217 0.98602 0.45068 0.0
C83 C 0.34575 1.00418 0.44837 0.0
C84 C 0.34673 0.97732 0.47305 0.0
C85 C 0.35415 0.98662 0.49279 0.0
U86 U 0.39274 0.02619 0.53389 0.0
O87 O 0.39253 0.05196 0.55134 0.0
O88 O 0.39263 0.02799 0.57472 0.0
C89 C 0.39141 0.04516 0.57398 0.0
C90 C 0.36329 1.01511 0.51246 0.0
C91 C 0.37837 0.05283 0.59107 0.0
C92 C 0.35451 0.07291 0.59966 0.0
C93 C 0.36546 0.06462 0.5827 0.0
C94 C 0.36889 0.05754 0.6336 0.0
C95 C 0.35623 0.06967 0.6254 0.0
C96 C 0.37983 0.04929 0.61668 0.0
C97 C 0.44296 0.02119 0.51853 0.0
C98 C 0.47189 0.02891 0.50063 0.0
C99 C 0.46997 1.01763 0.54292 0.0
C100 C 0.45142 1.01637 0.54086 0.0
C101 C 0.48048 0.02376 0.52273 0.0
C102 C 0.4534 0.02761 0.49857 0.0
C103 C 0.4236 1.01838 0.51465 0.0
O104 O 0.37105 1.00648 0.53074 0.0
O105 O 0.37068 0.03064 0.50787 0.0
O106 O 0.41459 0.03216 0.5075 0.0
O107 O 0.41497 1.00817 0.53082 0.0
H108 H 0.35524 0.02752 0.46578 0.0
H109 H 0.34265 1.01131 0.43135 0.0
H110 H 0.34399 0.9634 0.47567 0.0
H111 H 0.35692 0.97957 0.50999 0.0
H112 H 0.34505 0.08226 0.59261 0.0
H113 H 0.36404 0.06772 0.56309 0.0
H114 H 0.37041 0.05442 0.65319 0.0
H115 H 0.38969 0.04033 0.62368 0.0
H116 H 0.47948 0.03343 0.48455 0.0
H117 H 0.47609 1.01374 0.56031 0.0
H118 H 0.44376 1.01136 0.55661 0.0
H119 H 0.44726 0.03122 0.48106 0.0
C120 C 0.27884 0.20267 0.76813 0.0
C121 C 0.26537 0.20799 0.78409 0.0
C122 C 0.27432 0.23878 0.77706 0.0
C123 C 0.26313 0.22587 0.78852 0.0
C124 C 0.2879 0.23326 0.76133 0.0
C125 C 0.29011 0.21543 0.75693 0.0
U126 U 0.27128 0.1528 0.78006 0.0
O127 O 0.2664 0.13204 0.7529 0.0
O128 O 0.29008 0.13138 0.77653 0.0
C129 C 0.2814 0.12427 0.75801 0.0
C130 C 0.28122 0.18402 0.76239 0.0
C131 C 0.29201 0.11859 0.73658 0.0
C132 C 0.31953 0.11826 0.71278 0.0
C133 C 0.30926 0.12522 0.73174 0.0
C134 C 0.29533 0.0983 0.70274 0.0
C135 C 0.31278 0.10454 0.6982 0.0
C136 C 0.28512 0.10522 0.7217 0.0
C137 C 0.24227 0.1362 0.83618 0.0
C138 C 0.2155 0.11985 0.84928 0.0
C139 C 0.24219 0.11776 0.87391 0.0
C140 C 0.25109 0.1292 0.85707 0.0
C141 C 0.22421 0.11308 0.87042 0.0
C142 C 0.22438 0.1313 0.83247 0.0
C143 C 0.25102 0.14991 0.81987 0.0
O144 O 0.29073 0.17486 0.77826 0.0
O145 O 0.26704 0.1754 0.75471 0.0
O146 O 0.24473 0.15195 0.79724 0.0
O147 O 0.26844 0.15129 0.82074 0.0
H148 H 0.2565 0.19835 0.79292 0.0
H149 H 0.25243 0.22959 0.80055 0.0
H150 H 0.29697 0.24272 0.75252 0.0
H151 H 0.30063 0.21161 0.74463 0.0
H152 H 0.3328 0.12359 0.70962 0.0
H153 H 0.31494 0.13556 0.74286 0.0
H154 H 0.28972 0.08762 0.6922 0.0
H155 H 0.27191 0.09978 0.72517 0.0
H156 H 0.20159 0.11679 0.84613 0.0
H157 H 0.24941 0.11268 0.8898 0.0
H158 H 0.26479 0.13283 0.86077 0.0
H159 H 0.21705 0.13667 0.81688 0.0
C160 C 0.85527 1.00428 0.07397 0.0
C161 C 0.86534 0.99054 0.08395 0.0
C162 C 0.84162 0.98271 0.11348 0.0
C163 C 0.85857 0.97985 0.10348 0.0
C164 C 0.83178 0.99671 0.10363 0.0
C165 C 0.83853 1.00734 0.08411 0.0
U166 U 0.89181 0.02556 0.03178 0.0
O167 O 0.89215 0.02908 0.9911 0.0
O168 O 0.89303 0.05211 1.01464 0.0
C169 C 0.89209 0.04629 0.99193 0.0
C170 C 0.86159 1.01525 0.05258 0.0
C171 C 0.87972 0.05532 0.97494 0.0
C172 C 0.85013 0.06035 0.95843 0.0
C173 C 0.86138 0.05163 0.97521 0.0
C174 C 0.87543 0.07653 0.94113 0.0
C175 C 0.85704 0.07287 0.94106 0.0
C176 C 0.8866 0.06786 0.95786 0.0
C177 C 0.94157 1.01782 0.04669 0.0
C178 C 0.97052 0.02744 0.06216 0.0
C179 C 0.96863 1.01154 0.02396 0.0
C180 C 0.95009 1.01052 0.02626 0.0
C181 C 0.97912 1.01989 0.04201 0.0
C182 C 0.95202 0.02635 0.0645 0.0
C183 C 0.92214 1.01548 0.05097 0.0
O184 O 0.86991 0.03002 0.05788 0.0
O185 O 0.86907 1.00698 0.03435 0.0
O186 O 0.91302 1.00625 0.03486 0.0
O187 O 0.91369 0.02929 0.0584 0.0
H188 H 0.87835 0.98799 0.0765 0.0
H189 H 0.86664 0.96935 0.11077 0.0
H190 H 0.81861 0.9992 0.11057 0.0
H191 H 0.83052 1.01784 0.07665 0.0
H192 H 0.83608 0.05709 0.95882 0.0
H193 H 0.85581 0.04197 0.98827 0.0
H194 H 0.88122 0.0863 0.92843 0.0
H195 H 0.90071 0.07096 0.95743 0.0
H196 H 0.97811 0.03372 0.07663 0.0
H197 H 0.97476 1.00574 1.00806 0.0
H198 H 0.94249 1.00375 1.01223 0.0
H199 H 0.94589 0.03188 0.08062 0.0
C200 C 0.76106 0.20067 0.76817 0.0
C201 C 0.76321 0.20692 0.79231 0.0
C202 C 0.76463 0.2372 0.77618 0.0
C203 C 0.76494 0.225 0.79627 0.0
C204 C 0.76272 0.23079 0.75204 0.0
C205 C 0.76094 0.21276 0.74812 0.0
U206 U 0.76716 0.15107 0.78229 0.0
O207 O 0.74753 0.1293 0.77968 0.0
O208 O 0.77128 0.1298 0.75615 0.0
C209 C 0.7559 0.12204 0.76132 0.0
C210 C 0.75827 0.18179 0.76334 0.0
C211 C 0.74484 0.11602 0.74014 0.0
C212 C 0.7409 0.11036 0.69605 0.0
C213 C 0.75077 0.11775 0.7154 0.0
C214 C 0.71887 0.09957 0.72563 0.0
C215 C 0.72492 0.10096 0.70093 0.0
C216 C 0.72872 0.10694 0.74494 0.0
C217 C 0.79534 0.13628 0.83915 0.0
C218 C 0.81233 0.10985 0.84654 0.0
C219 C 0.8049 0.12808 0.88095 0.0
C220 C 0.79602 0.13946 0.86466 0.0
C221 C 0.8134 0.11324 0.8721 0.0
C222 C 0.80337 0.12123 0.83024 0.0
C223 C 0.78714 0.14944 0.82231 0.0
O224 O 0.77224 0.17331 0.75604 0.0
O225 O 0.74841 0.17271 0.77943 0.0
O226 O 0.76976 0.15034 0.82311 0.0
O227 O 0.79356 0.15095 0.79964 0.0
H228 H 0.76342 0.19785 0.8081 0.0
H229 H 0.76663 0.22941 0.81508 0.0
H230 H 0.76219 0.23973 0.73614 0.0
H231 H 0.75923 0.20824 0.72936 0.0
H232 H 0.7461 0.11156 0.67733 0.0
H233 H 0.76323 0.12448 0.71099 0.0
H234 H 0.7065 0.09271 0.73012 0.0
H235 H 0.72386 0.10522 0.76379 0.0
H236 H 0.81849 0.09844 0.83908 0.0
H237 H 0.8056 0.13128 0.90039 0.0
H238 H 0.79 0.15102 0.87196 0.0
H239 H 0.80299 0.11842 0.81065 0.0
C240 C 0.59504 1.01936 0.51618 0.0
C241 C 0.58476 0.02589 0.49646 0.0
C242 C 0.5578 0.02276 0.52146 0.0
C243 C 0.56641 0.02761 0.49905 0.0
C244 C 0.56817 1.01648 0.54139 0.0
C245 C 0.58658 1.01482 0.53881 0.0
U246 U 0.64553 0.02409 0.53064 0.0
O247 O 0.66625 1.00428 0.52756 0.0
O248 O 0.66774 0.02835 0.50449 0.0
C249 C 0.67441 1.01285 0.50921 0.0
C250 C 0.61417 1.01627 0.51189 0.0
C251 C 0.67994 1.00249 0.48753 0.0
C252 C 0.68897 1.00123 0.4441 0.0
C253 C 0.68172 1.0104 0.46374 0.0
C254 C 0.69251 0.97586 0.47127 0.0
C255 C 0.69473 0.98392 0.44765 0.0
C256 C 0.6853 0.98505 0.49096 0.0
C257 C 0.6613 0.05162 0.58695 0.0
C258 C 0.68413 0.04934 0.6189 0.0
C259 C 0.6726 0.07774 0.60749 0.0
C260 C 0.6614 0.06985 0.59007 0.0
C261 C 0.68396 0.06758 0.62242 0.0
C262 C 0.67294 0.04145 0.6014 0.0
C263 C 0.6479 0.04356 0.57022 0.0
O264 O 0.62392 0.02989 0.50431 0.0
O265 O 0.62236 1.00612 0.52807 0.0
O266 O 0.64583 0.02638 0.57129 0.0
O267 O 0.6471 0.05014 0.54748 0.0
H268 H 0.59089 0.02931 0.47875 0.0
H269 H 0.55889 0.03223 0.48317 0.0
H270 H 0.56204 1.01281 0.559 0.0
H271 H 0.59412 1.00974 0.55439 0.0
H272 H 0.69022 1.00781 0.42611 0.0
H273 H 0.67792 0.02385 0.46036 0.0
H274 H 0.69698 0.96265 0.47484 0.0
H275 H 0.68441 0.97864 0.5091 0.0
H276 H 0.69285 0.04111 0.62981 0.0
H277 H 0.6719 0.09176 0.60983 0.0
H278 H 0.65244 0.078 0.57943 0.0
H279 H 0.6732 0.02735 0.59953 0.0
C280 C 0.76196 0.848 0.29963 0.0
C281 C 0.76692 0.84248 0.27602 0.0
C282 C 0.76568 0.81181 0.29054 0.0
C283 C 0.76874 0.82456 0.27151 0.0
C284 C 0.76081 0.81751 0.31419 0.0
C285 C 0.75898 0.83539 0.31864 0.0
U286 U 0.76782 0.8976 0.28452 0.0
O287 O 0.74888 0.9188 0.28926 0.0
O288 O 0.77403 0.91924 0.30975 0.0
C289 C 0.75858 0.92656 0.30625 0.0
C290 C 0.75958 0.86672 0.30489 0.0
C291 C 0.74934 0.9327 0.32868 0.0
C292 C 0.7227 0.9356 0.35392 0.0
C293 C 0.73155 0.92801 0.33408 0.0
C294 C 0.74932 0.95234 0.36367 0.0
C295 C 0.73138 0.9481 0.36874 0.0
C296 C 0.75813 0.94478 0.34389 0.0
C297 C 0.79299 0.91253 0.22433 0.0
C298 C 0.80808 0.94043 0.21422 0.0
C299 C 0.80162 0.91992 0.18173 0.0
C300 C 0.79369 0.90831 0.19919 0.0
C301 C 0.8091 0.93607 0.18899 0.0
C302 C 0.80012 0.92877 0.23172 0.0
C303 C 0.7855 0.89938 0.24235 0.0
O304 O 0.77404 0.87575 0.31041 0.0
O305 O 0.74895 0.87535 0.28988 0.0
O306 O 0.7681 0.89804 0.24355 0.0
O307 O 0.79316 0.89835 0.26423 0.0
H308 H 0.76936 0.85201 0.26109 0.0
H309 H 0.77272 0.82072 0.25316 0.0
H310 H 0.7581 0.80814 0.32921 0.0
H311 H 0.75508 0.83936 0.33698 0.0
H312 H 0.70887 0.93209 0.35712 0.0
H313 H 0.72434 0.9188 0.32265 0.0
H314 H 0.75657 0.96164 0.3749 0.0
H315 H 0.7718 0.94869 0.34013 0.0
H316 H 0.8138 0.95267 0.22056 0.0
H317 H 0.8018 0.91622 0.16247 0.0
H318 H 0.78825 0.89588 0.19305 0.0
H319 H 0.79975 0.93233 0.25104 0.0
C320 C 0.594 0.5134 0.5466 0.0
C321 C 0.58595 0.52937 0.54035 0.0
C322 C 0.55652 0.5153 0.54362 0.0
C323 C 0.56739 0.53029 0.53883 0.0
C324 C 0.56474 0.49926 0.54897 0.0
C325 C 0.58322 0.49835 0.55048 0.0
U326 U 0.64402 0.52364 0.533 0.0
O327 O 0.66545 0.52856 0.56002 0.0
O328 O 0.66649 0.5058 0.53604 0.0
C329 C 0.67359 0.51404 0.55489 0.0
C330 C 0.61333 0.51216 0.55106 0.0
C331 C 0.67949 0.50313 0.57643 0.0
C332 C 0.69806 0.50033 0.6133 0.0
C333 C 0.69114 0.51055 0.5938 0.0
C334 C 0.68165 0.475 0.5987 0.0
C335 C 0.69361 0.48235 0.61588 0.0
C336 C 0.67467 0.48526 0.57922 0.0
C337 C 0.65828 0.55437 0.47742 0.0
C338 C 0.68331 0.55516 0.44862 0.0
C339 C 0.66753 0.58173 0.45635 0.0
C340 C 0.65624 0.5724 0.47285 0.0
C341 C 0.68115 0.57323 0.44384 0.0
C342 C 0.67203 0.54583 0.46526 0.0
C343 C 0.64518 0.54474 0.49357 0.0
O344 O 0.62247 0.50353 0.53479 0.0
O345 O 0.62168 0.52633 0.55878 0.0
O346 O 0.64349 0.55034 0.5163 0.0
O347 O 0.64453 0.52753 0.49239 0.0
H348 H 0.59396 0.5412 0.53725 0.0
H349 H 0.56154 0.54288 0.53479 0.0
H350 H 0.55686 0.48738 0.55229 0.0
H351 H 0.5891 0.48589 0.55528 0.0
H352 H 0.70696 0.50657 0.62634 0.0
H353 H 0.69511 0.52427 0.59208 0.0
H354 H 0.67803 0.46119 0.59986 0.0
H355 H 0.66577 0.4791 0.56611 0.0
H356 H 0.69377 0.54822 0.43956 0.0
H357 H 0.66526 0.59554 0.45291 0.0
H358 H 0.64565 0.57927 0.48176 0.0
H359 H 0.67397 0.53193 0.46834 0.0
C360 C 0.77335 0.34913 0.80005 0.0
C361 C 0.77124 0.34295 0.77587 0.0
C362 C 0.76961 0.31264 0.79186 0.0
C363 C 0.76942 0.32489 0.77182 0.0
C364 C 0.77147 0.31899 0.81604 0.0
C365 C 0.77332 0.33701 0.82005 0.0
U366 U 0.76842 0.39894 0.78586 0.0
O367 O 0.76417 0.4202 0.81195 0.0
O368 O 0.78844 0.42026 0.78951 0.0
C369 C 0.7798 0.42766 0.80752 0.0
C370 C 0.7763 0.36797 0.80499 0.0
C371 C 0.79042 0.43349 0.82924 0.0
C372 C 0.79265 0.44055 0.87311 0.0
C373 C 0.78329 0.433 0.85341 0.0
C374 C 0.81661 0.44893 0.8451 0.0
C375 C 0.80932 0.44888 0.86915 0.0
C376 C 0.80726 0.4414 0.82543 0.0
C377 C 0.74174 0.415 0.72803 0.0
C378 C 0.74356 0.43258 0.68956 0.0
C379 C 0.71661 0.43224 0.71388 0.0
C380 C 0.72431 0.42076 0.73128 0.0
C381 C 0.72606 0.43819 0.69264 0.0
C382 C 0.75127 0.4211 0.70695 0.0
C383 C 0.74924 0.40139 0.74511 0.0
O384 O 0.78664 0.3769 0.78932 0.0
O385 O 0.76233 0.37668 0.81171 0.0
O386 O 0.74233 0.39979 0.76749 0.0
O387 O 0.76658 0.39977 0.74506 0.0
H388 H 0.77115 0.35206 0.76012 0.0
H389 H 0.76778 0.32052 0.75298 0.0
H390 H 0.77191 0.31002 0.83191 0.0
H391 H 0.77501 0.34147 0.83884 0.0
H392 H 0.78649 0.44042 0.89127 0.0
H393 H 0.77026 0.42723 0.85705 0.0
H394 H 0.82951 0.45498 0.84136 0.0
H395 H 0.81306 0.44218 0.80703 0.0
H396 H 0.75119 0.43661 0.67328 0.0
H397 H 0.70318 0.43641 0.71708 0.0
H398 H 0.71646 0.41617 0.74708 0.0
H399 H 0.76458 0.4167 0.70352 0.0
C400 C 0.85742 0.50634 0.98967 0.0
C401 C 0.85958 0.48808 0.98881 0.0
C402 C 0.84329 0.4869 0.94963 0.0
C403 C 0.85259 0.47849 0.96903 0.0
C404 C 0.84134 0.50519 0.95045 0.0
C405 C 0.84825 0.51474 0.97022 0.0
U406 U 0.89291 0.52733 0.03286 0.0
O407 O 0.89318 0.55356 0.04922 0.0
O408 O 0.89257 0.53001 0.07343 0.0
C409 C 0.89191 0.54722 0.07206 0.0
C410 C 0.86335 0.51669 1.01133 0.0
C411 C 0.87887 0.55554 0.08829 0.0
C412 C 0.85009 0.55615 0.10884 0.0
C413 C 0.86177 0.54832 0.09234 0.0
C414 C 0.87233 0.57866 0.11703 0.0
C415 C 0.85526 0.57139 0.12154 0.0
C416 C 0.88397 0.57081 0.10064 0.0
C417 C 0.94309 0.52108 1.01842 0.0
C418 C 0.97203 0.52972 1.00126 0.0
C419 C 0.97017 0.51591 0.0421 0.0
C420 C 0.95161 0.51486 0.04004 0.0
C421 C 0.98066 0.52321 1.02262 0.0
C422 C 0.95353 0.52862 0.99919 0.0
C423 C 0.9237 0.51851 1.01439 0.0
O424 O 0.87074 0.50815 0.03001 0.0
O425 O 0.87119 0.53195 1.0063 0.0
O426 O 0.91499 0.53231 1.00655 0.0
O427 O 0.91476 0.50876 0.03078 0.0
H428 H 0.86647 0.48113 1.00353 0.0
H429 H 0.85451 0.46447 0.96892 0.0
H430 H 0.83403 0.51211 0.93611 0.0
H431 H 0.84613 0.52873 0.97053 0.0
H432 H 0.83699 0.5503 0.11158 0.0
H433 H 0.85749 0.53658 0.08293 0.0
H434 H 0.87691 0.5902 0.12666 0.0
H435 H 0.89712 0.57657 0.09787 0.0
H436 H 0.97961 0.53517 0.9857 0.0
H437 H 0.97631 0.51094 0.05893 0.0
H438 H 0.94399 0.5089 0.0552 0.0
H439 H 0.94738 0.53331 0.98218 0.0
C440 C 0.77585 0.70086 0.26343 0.0
C441 C 0.77079 0.70637 0.28701 0.0
C442 C 0.77199 0.73704 0.27248 0.0
C443 C 0.76892 0.72428 0.29151 0.0
C444 C 0.77692 0.73134 0.24886 0.0
C445 C 0.77882 0.71348 0.24442 0.0
U446 U 0.76925 0.65116 0.27748 0.0
O447 O 0.76412 0.62977 0.25138 0.0
O448 O 0.78827 0.62992 0.27408 0.0
C449 C 0.77933 0.62233 0.25619 0.0
C450 C 0.77837 0.68215 0.25819 0.0
C451 C 0.78966 0.61654 0.23457 0.0
C452 C 0.81614 0.61762 0.20851 0.0
C453 C 0.80602 0.62447 0.22771 0.0
C454 C 0.79351 0.59515 0.20229 0.0
C455 C 0.81014 0.60271 0.19573 0.0
C456 C 0.78345 0.60197 0.22148 0.0
C457 C 0.74176 0.63575 0.33569 0.0
C458 C 0.71959 0.61279 0.34566 0.0
C459 C 0.73747 0.62516 0.3784 0.0
C460 C 0.74628 0.63614 0.36095 0.0
C461 C 0.72378 0.61353 0.37109 0.0
C462 C 0.72844 0.62378 0.32817 0.0
C463 C 0.74995 0.64899 0.31822 0.0
O464 O 0.78835 0.67336 0.2739 0.0
O465 O 0.76412 0.67323 0.25143 0.0
O466 O 0.74314 0.65036 0.29581 0.0
O467 O 0.76736 0.65045 0.31836 0.0
H468 H 0.76835 0.69683 0.30193 0.0
H469 H 0.76489 0.72812 0.30984 0.0
H470 H 0.77964 0.74072 0.23384 0.0
H471 H 0.78278 0.70951 0.2261 0.0
H472 H 0.82892 0.62373 0.20419 0.0
H473 H 0.81116 0.63572 0.2375 0.0
H474 H 0.78826 0.58388 0.19265 0.0
H475 H 0.77087 0.59563 0.2264 0.0
H476 H 0.70901 0.60416 0.33932 0.0
H477 H 0.74131 0.62591 0.39771 0.0
H478 H 0.75642 0.64527 0.36732 0.0
H479 H 0.72452 0.62319 0.30887 0.0
C480 C 0.35573 0.50502 0.57698 0.0
C481 C 0.36453 0.48986 0.58499 0.0
C482 C 0.34177 0.48371 0.61662 0.0
C483 C 0.35762 0.47931 0.60458 0.0
C484 C 0.33326 0.49913 0.60879 0.0
C485 C 0.34014 0.5096 0.5892 0.0
U486 U 0.39222 0.52654 0.53486 0.0
O487 O 0.39268 0.53013 0.49418 0.0
O488 O 0.39325 0.55312 0.51782 0.0
C489 C 0.3919 0.54732 0.4951 0.0
C490 C 0.36206 0.51595 0.55553 0.0
C491 C 0.37895 0.55621 0.47847 0.0
C492 C 0.35799 0.55582 0.44392 0.0
C493 C 0.36897 0.54694 0.4608 0.0
C494 C 0.36652 0.58341 0.46212 0.0
C495 C 0.3567 0.5742 0.44424 0.0
C496 C 0.37754 0.57454 0.47891 0.0
C497 C 0.44183 0.51864 0.55155 0.0
C498 C 0.46871 0.51875 0.5263 0.0
C499 C 0.47095 0.52018 0.571 0.0
C500 C 0.45244 0.51981 0.57284 0.0
C501 C 0.47937 0.51934 0.54776 0.0
C502 C 0.4501 0.51837 0.52818 0.0
C503 C 0.42237 0.51659 0.55474 0.0
O504 O 0.37016 0.53083 0.56077 0.0
O505 O 0.36967 0.50773 0.53735 0.0
O506 O 0.41365 0.5075 0.53809 0.0
O507 O 0.41392 0.5305 0.56176 0.0
H508 H 0.37661 0.48604 0.5759 0.0
H509 H 0.36448 0.46748 0.60987 0.0
H510 H 0.32125 0.50316 0.61783 0.0
H511 H 0.33316 0.52127 0.58341 0.0
H512 H 0.35049 0.54827 0.4306 0.0
H513 H 0.36981 0.53282 0.45973 0.0
H514 H 0.36612 0.59757 0.46271 0.0
H515 H 0.38526 0.58212 0.49198 0.0
H516 H 0.47472 0.518 0.50812 0.0
H517 H 0.47868 0.52099 0.58788 0.0
H518 H 0.44638 0.52007 0.59106 0.0
H519 H 0.44222 0.51748 0.51144 0.0
C520 C 0.26086 0.6997 0.267 0.0
C521 C 0.27455 0.7061 0.2822 0.0
C522 C 0.26453 0.73614 0.27553 0.0
C523 C 0.27639 0.72415 0.28639 0.0
C524 C 0.25075 0.72955 0.26053 0.0
C525 C 0.24896 0.71155 0.25633 0.0
U526 U 0.26908 0.65034 0.27961 0.0
O527 O 0.25058 0.62783 0.27596 0.0
O528 O 0.27447 0.62977 0.25271 0.0
C529 C 0.25952 0.62117 0.25763 0.0
C530 C 0.25889 0.68087 0.26147 0.0
C531 C 0.24911 0.61508 0.23605 0.0
C532 C 0.22293 0.61579 0.20953 0.0
C533 C 0.23311 0.62281 0.22886 0.0
C534 C 0.24479 0.59351 0.2039 0.0
C535 C 0.22852 0.60089 0.19696 0.0
C536 C 0.25491 0.60051 0.22321 0.0
C537 C 0.29741 0.63564 0.33659 0.0
C538 C 0.32263 0.61745 0.34751 0.0
C539 C 0.29893 0.62072 0.37714 0.0
C540 C 0.29008 0.63159 0.3601 0.0
C541 C 0.31545 0.61369 0.37123 0.0
C542 C 0.31376 0.62832 0.33045 0.0
C543 C 0.28882 0.64878 0.31989 0.0
O544 O 0.2733 0.67309 0.25418 0.0
O545 O 0.24933 0.6712 0.27723 0.0
O546 O 0.27139 0.64915 0.32039 0.0
O547 O 0.29538 0.65109 0.29739 0.0
H548 H 0.28386 0.69717 0.29071 0.0
H549 H 0.28702 0.72868 0.2983 0.0
H550 H 0.24151 0.73833 0.25157 0.0
H551 H 0.23834 0.7069 0.24447 0.0
H552 H 0.21042 0.62176 0.20491 0.0
H553 H 0.22831 0.63407 0.23847 0.0
H554 H 0.24973 0.58226 0.19443 0.0
H555 H 0.26722 0.59433 0.22839 0.0
H556 H 0.33543 0.61249 0.34238 0.0
H557 H 0.29285 0.61795 0.39506 0.0
H558 H 0.27762 0.63714 0.36558 0.0
H559 H 0.31999 0.63133 0.31269 0.0
C560 C 0.09531 0.51919 1.01608 0.0
C561 C 0.08512 0.52675 0.99699 0.0
C562 C 0.05799 0.52208 1.02126 0.0
C563 C 0.06674 0.52823 0.99955 0.0
C564 C 0.06824 0.5147 0.04055 0.0
C565 C 0.08668 0.51329 0.03801 0.0
U566 U 0.14549 0.52533 0.03111 0.0
O567 O 0.16699 0.50644 0.02805 0.0
O568 O 0.16778 0.53072 1.0053 0.0
C569 C 0.17512 0.51557 1.0102 0.0
C570 C 0.11454 0.51658 1.01182 0.0
C571 C 0.18145 0.50586 0.98853 0.0
C572 C 0.18073 0.48068 0.96146 0.0
C573 C 0.17368 0.48982 0.98139 0.0
C574 C 0.20319 0.50357 0.95542 0.0
C575 C 0.19561 0.48744 0.94821 0.0
C576 C 0.19621 0.51262 0.97529 0.0
C577 C 0.15967 0.55302 0.08765 0.0
C578 C 0.18814 0.5539 0.10906 0.0
C579 C 0.16658 0.57615 0.11669 0.0
C580 C 0.15492 0.56821 0.09992 0.0
C581 C 0.18332 0.56906 0.12165 0.0
C582 C 0.17644 0.54598 0.09218 0.0
C583 C 0.14661 0.54466 0.07092 0.0
O584 O 0.12393 0.53049 1.00444 0.0
O585 O 0.12298 0.50659 0.02794 0.0
O586 O 0.14545 0.52742 0.07179 0.0
O587 O 0.1458 0.5513 0.04823 0.0
H588 H 0.09136 0.53122 0.97978 0.0
H589 H 0.05931 0.53373 0.98414 0.0
H590 H 0.062 0.51 0.05763 0.0
H591 H 0.09411 0.50736 0.0531 0.0
H592 H 0.17444 0.46839 0.95631 0.0
H593 H 0.16226 0.4843 0.99126 0.0
H594 H 0.21482 0.50907 0.94601 0.0
H595 H 0.20253 0.52488 0.98056 0.0
H596 H 0.20099 0.54818 0.11217 0.0
H597 H 0.16227 0.58763 0.12623 0.0
H598 H 0.14202 0.57384 0.09678 0.0
H599 H 0.18045 0.5343 0.08284 0.0
C600 C 0.26096 0.34963 0.80224 0.0
C601 C 0.27427 0.34414 0.78615 0.0
C602 C 0.26522 0.31344 0.79363 0.0
C603 C 0.27639 0.32623 0.78191 0.0
C604 C 0.25181 0.31911 0.80955 0.0
C605 C 0.24973 0.33698 0.81379 0.0
U606 U 0.26821 0.39905 0.78766 0.0
O607 O 0.24965 0.42071 0.79123 0.0
O608 O 0.27425 0.42065 0.81301 0.0
C609 C 0.25924 0.4285 0.80829 0.0
C610 C 0.25867 0.36837 0.80754 0.0
C611 C 0.2497 0.43545 0.82981 0.0
C612 C 0.22542 0.4347 0.8598 0.0
C613 C 0.23472 0.42691 0.84048 0.0
C614 C 0.24616 0.45941 0.85822 0.0
C615 C 0.2309 0.4512 0.86868 0.0
C616 C 0.2554 0.45164 0.83906 0.0
C617 C 0.29553 0.41368 0.72949 0.0
C618 C 0.2953 0.44168 0.7067 0.0
C619 C 0.31911 0.42157 0.70008 0.0
C620 C 0.31139 0.40974 0.71744 0.0
C621 C 0.3111 0.43765 0.69428 0.0
C622 C 0.28762 0.42985 0.72418 0.0
C623 C 0.28729 0.40042 0.7467 0.0
O624 O 0.27306 0.37718 0.81403 0.0
O625 O 0.24867 0.3772 0.7919 0.0
O626 O 0.26985 0.39934 0.74689 0.0
O627 O 0.29428 0.39917 0.76899 0.0
H628 H 0.2831 0.35369 0.77703 0.0
H629 H 0.28698 0.32241 0.76975 0.0
H630 H 0.24276 0.30974 0.81858 0.0
H631 H 0.23932 0.34094 0.82618 0.0
H632 H 0.2137 0.42803 0.86733 0.0
H633 H 0.23005 0.4144 0.83365 0.0
H634 H 0.25102 0.47191 0.86487 0.0
H635 H 0.26694 0.45845 0.83117 0.0
H636 H 0.28889 0.45402 0.70295 0.0
H637 H 0.33112 0.4179 0.69072 0.0
H638 H 0.31769 0.39733 0.72118 0.0
H639 H 0.27543 0.43325 0.73334 0.0
C640 C 0.19191 0.07912 0.89936 0.0
C641 C 0.19448 0.0815 0.92494 0.0
H642 H 0.19929 0.08695 0.86224 0.0
C643 C 0.20735 0.09396 0.93237 0.0
H644 H 0.18201 0.0698 0.89288 0.0
C645 C 0.21716 0.10394 0.91476 0.0
C646 C 0.21436 0.10178 0.88918 0.0
H647 H 0.20984 0.09604 0.95188 0.0
H648 H 0.22665 0.11366 0.92124 0.0
C649 C 0.20169 0.08913 0.88174 0.0
C650 C 0.22547 0.96309 0.16554 0.0
C651 C 0.21704 0.94748 0.17433 0.0
H652 H 0.22466 0.98534 0.14059 0.0
C653 C 0.20038 0.94281 0.16433 0.0
H654 H 0.2382 0.96725 0.17293 0.0
C655 C 0.19247 0.95335 0.14596 0.0
C656 C 0.20097 0.96888 0.13701 0.0
H657 H 0.19354 0.93081 0.17036 0.0
H658 H 0.17961 0.94933 0.13883 0.0
C659 C 0.21756 0.97362 0.14716 0.0
C660 C 0.329 0.95027 0.40528 0.0
C661 C 0.31504 0.95808 0.392 0.0
H662 H 0.34855 0.95288 0.43397 0.0
C663 C 0.31031 0.9752 0.39804 0.0
H664 H 0.33296 0.93708 0.40129 0.0
C665 C 0.31915 0.98419 0.41687 0.0
C666 C 0.33304 0.97638 0.43026 0.0
H667 H 0.29983 0.98178 0.38803 0.0
H668 H 0.31489 0.99723 0.42115 0.0
C669 C 0.33784 0.95928 0.42421 0.0
C670 C 0.31676 0.09083 0.65635 0.0
C671 C 0.32405 0.09627 0.67903 0.0
H672 H 0.32098 0.07813 0.62188 0.0
C673 C 0.34209 0.09318 0.68362 0.0
H674 H 0.30297 0.09313 0.652 0.0
C675 C 0.35247 0.08471 0.66623 0.0
C676 C 0.34514 0.07905 0.64369 0.0
H677 H 0.34817 0.09698 0.70094 0.0
H678 H 0.36632 0.08265 0.67046 0.0
C679 C 0.32715 0.08237 0.63892 0.0
C680 C 0.81594 0.96643 0.17101 0.0
C681 C 0.81799 0.94816 0.17026 0.0
H682 H 0.82187 0.9916 0.15404 0.0
C683 C 0.82842 0.94146 0.15116 0.0
H684 H 0.80795 0.97208 0.18531 0.0
C685 C 0.83628 0.95265 0.13308 0.0
C686 C 0.83396 0.97088 0.13354 0.0
H687 H 0.83054 0.92751 0.15014 0.0
H688 H 0.84386 0.94693 0.1184 0.0
C689 C 0.82379 0.97762 0.15288 0.0
C690 C 0.82858 0.0882 0.93028 0.0
C691 C 0.84527 0.08224 0.923 0.0
H692 H 0.80538 0.10241 0.92002 0.0
C693 C 0.85093 0.08583 0.89846 0.0
H694 H 0.8238 0.08579 0.94903 0.0
C695 C 0.84044 0.09549 0.88187 0.0
C696 C 0.82396 0.10187 0.88932 0.0
H697 H 0.86358 0.08125 0.89203 0.0
H698 H 0.84552 0.09838 0.86338 0.0
C699 C 0.81809 0.09791 0.91369 0.0
C700 C 0.6969 0.0676 0.6656 0.0
C701 C 0.69501 0.07592 0.64218 0.0
H702 H 0.70782 0.06877 0.70219 0.0
C703 C 0.7033 0.09248 0.63812 0.0
H704 H 0.69056 0.05495 0.66956 0.0
C705 C 0.71307 0.10054 0.65701 0.0
C706 C 0.71476 0.09231 0.68054 0.0
H707 H 0.7023 0.09923 0.62028 0.0
H708 H 0.71904 0.11339 0.65328 0.0
C709 C 0.70662 0.07567 0.68448 0.0
C710 C 0.72477 0.97519 0.39264 0.0
C711 C 0.72173 0.95717 0.38885 0.0
H712 H 0.7189 0.99759 0.414 0.0
C713 C 0.70944 0.94805 0.40438 0.0
H714 H 0.73392 0.98274 0.38088 0.0
C715 C 0.70062 0.95667 0.42334 0.0
C716 C 0.70376 0.97467 0.42716 0.0
H717 H 0.70682 0.93416 0.40215 0.0
H718 H 0.69124 0.94923 0.4349 0.0
C719 C 0.71593 0.98379 0.41148 0.0
C720 C 0.70775 0.58553 0.38539 0.0
C721 C 0.71344 0.60285 0.39004 0.0
H722 H 0.69316 0.56266 0.39852 0.0
C723 C 0.70881 0.6101 0.41285 0.0
H724 H 0.71118 0.57943 0.36816 0.0
C725 C 0.69862 0.60042 0.43034 0.0
C726 C 0.69274 0.58319 0.42559 0.0
H727 H 0.71272 0.62344 0.41705 0.0
H728 H 0.69535 0.60649 0.44765 0.0
C729 C 0.69757 0.57582 0.40295 0.0
C730 C 0.69187 0.45779 0.64831 0.0
C731 C 0.70176 0.47126 0.63597 0.0
H732 H 0.69169 0.43681 0.67549 0.0
C733 C 0.71964 0.47391 0.64279 0.0
H734 H 0.67804 0.45544 0.64381 0.0
C735 C 0.72742 0.46336 0.66124 0.0
C736 C 0.71758 0.44981 0.67345 0.0
H737 H 0.72778 0.48398 0.63356 0.0
H738 H 0.74118 0.4659 0.66601 0.0
C739 C 0.69967 0.44723 0.66677 0.0
C740 C 0.82672 0.46035 0.93347 0.0
C741 C 0.83528 0.47672 0.92889 0.0
H742 H 0.81199 0.4387 0.91841 0.0
C743 C 0.83567 0.48354 0.90438 0.0
H744 H 0.82599 0.45474 0.95211 0.0
C745 C 0.8275 0.47441 0.88509 0.0
C746 C 0.81868 0.45818 0.8897 0.0
H747 H 0.84229 0.49599 0.90006 0.0
H748 H 0.82777 0.48032 0.86661 0.0
C749 C 0.81849 0.45123 0.91415 0.0
C750 C 0.84229 0.5978 0.14167 0.0
C751 C 0.84317 0.57946 0.13988 0.0
H752 H 0.8311 0.6195 0.16017 0.0
C753 C 0.83282 0.56887 0.15631 0.0
H754 H 0.84985 0.6064 0.12911 0.0
C755 C 0.82208 0.5764 0.17421 0.0
C756 C 0.82132 0.59475 0.17618 0.0
H757 H 0.83335 0.55471 0.15582 0.0
H758 H 0.81469 0.56777 0.18691 0.0
C759 C 0.83153 0.60534 0.15955 0.0
C760 C 0.34485 0.46361 0.65436 0.0
C761 C 0.33395 0.47217 0.63689 0.0
H762 H 0.34627 0.44633 0.68626 0.0
C763 C 0.31544 0.46949 0.63884 0.0
H764 H 0.35912 0.46554 0.65376 0.0
C765 C 0.30807 0.45854 0.65759 0.0
C766 C 0.31897 0.44987 0.67489 0.0
H767 H 0.3066 0.47557 0.62553 0.0
H768 H 0.2938 0.45653 0.65813 0.0
C769 C 0.33747 0.4526 0.67306 0.0
C770 C 0.32575 0.60778 0.41515 0.0
C771 C 0.32547 0.60308 0.39006 0.0
H772 H 0.33549 0.60235 0.4518 0.0
C773 C 0.33521 0.58847 0.38309 0.0
H774 H 0.31861 0.61906 0.42123 0.0
C775 C 0.34507 0.57896 0.40066 0.0
C776 C 0.34554 0.58383 0.42568 0.0
H777 H 0.3352 0.58434 0.36402 0.0
H778 H 0.35266 0.568 0.3945 0.0
C779 C 0.33563 0.59831 0.43269 0.0
C780 C 0.21587 0.57443 0.17524 0.0
C781 C 0.21729 0.59279 0.17718 0.0
H782 H 0.20406 0.55261 0.15658 0.0
C783 C 0.20774 0.60327 0.16025 0.0
H784 H 0.22275 0.56589 0.18816 0.0
C785 C 0.19696 0.59561 0.1421 0.0
C786 C 0.19541 0.57725 0.14032 0.0
H787 H 0.2087 0.61744 0.16085 0.0
H788 H 0.18991 0.60412 0.12931 0.0
C789 C 0.20512 0.56678 0.15707 0.0
C790 C 0.20986 0.48705 0.90594 0.0
C791 C 0.20346 0.4778 0.92715 0.0
H792 H 0.22309 0.48599 0.87092 0.0
C793 C 0.20531 0.45947 0.92837 0.0
H794 H 0.20834 0.5011 0.90402 0.0
C795 C 0.21384 0.45073 0.90924 0.0
C796 C 0.22076 0.46012 0.88844 0.0
H797 H 0.20068 0.45191 0.94448 0.0
H798 H 0.21552 0.4367 0.91114 0.0
C799 C 0.21836 0.47835 0.88691 0.0
C800 C 1.00895 0.03509 0.04738 0.0
C801 C 0.99894 0.02019 0.04043 0.0
H802 H 0.03475 0.0467 0.05289 0.0
C803 C 1.00808 1.00534 0.03294 0.0
H804 H 1.0024 0.04687 0.05283 0.0
C805 C 0.02668 1.00523 0.03298 0.0
C806 C 0.03667 1.01999 0.04051 0.0
H807 H 1.00087 0.99353 0.0278 0.0
H808 H 0.03321 0.99335 0.02788 0.0
C809 C 0.02753 0.03499 0.04741 0.0
C810 C 0.2516 0.76587 0.28264 0.0
C811 C 0.26657 0.75543 0.27954 0.0
H812 H 0.24167 0.7915 0.28877 0.0
C813 C 0.28347 0.76365 0.27991 0.0
H814 H 0.23838 0.76001 0.28285 0.0
C815 C 0.28536 0.78176 0.28327 0.0
C816 C 0.27039 0.7922 0.28639 0.0
H817 H 0.29529 0.75614 0.27715 0.0
H818 H 0.29858 0.78763 0.28307 0.0
C819 C 0.25349 0.78398 0.28601 0.0
C820 C 0.50947 1.01044 0.536 0.0
C821 C 0.50032 0.02419 0.52418 0.0
H822 H 0.53461 0.99908 0.54422 0.0
C823 C 0.51032 0.03795 0.51271 0.0
H824 H 0.50226 0.9995 0.54475 0.0
C825 C 0.5289 0.0377 0.51239 0.0
C826 C 0.53804 0.02369 0.52354 0.0
H827 H 0.50378 0.04893 0.50384 0.0
H828 H 0.5361 0.0485 0.50327 0.0
C829 C 0.52807 1.01019 0.53568 0.0
C830 C 0.26526 0.28181 0.80892 0.0
C831 C 0.26753 0.29429 0.78938 0.0
H832 H 0.26579 0.25475 0.82053 0.0
C833 C 0.27197 0.28828 0.76575 0.0
H834 H 0.26212 0.28591 0.82747 0.0
C835 C 0.27408 0.27037 0.76178 0.0
C836 C 0.27184 0.25789 0.78132 0.0
H837 H 0.27353 0.29741 0.75014 0.0
H838 H 0.27723 0.26627 0.74323 0.0
C839 C 0.26736 0.26389 0.80494 0.0
C840 C 0.77689 0.28583 0.76758 0.0
C841 C 0.76817 0.29333 0.78767 0.0
H842 H 0.78295 0.26241 0.74849 0.0
C843 C 0.75833 0.28215 0.80401 0.0
H844 H 0.78484 0.29393 0.75485 0.0
C845 C 0.75728 0.26402 0.80039 0.0
C846 C 0.76601 0.25652 0.7803 0.0
H847 H 0.75121 0.28743 0.81947 0.0
H848 H 0.74933 0.25591 0.81312 0.0
C849 C 0.77583 0.2677 0.76395 0.0
C850 C 0.77481 0.78132 0.30384 0.0
C851 C 0.7674 0.79266 0.28583 0.0
H852 H 0.78226 0.75512 0.31374 0.0
C853 C 0.76144 0.78549 0.26343 0.0
H854 H 0.77981 0.78636 0.32116 0.0
C855 C 0.76284 0.76752 0.25919 0.0
C856 C 0.77025 0.75618 0.2772 0.0
H857 H 0.75539 0.79372 0.24929 0.0
H858 H 0.75785 0.76248 0.24187 0.0
C859 C 0.77621 0.76335 0.2996 0.0
C860 C 0.5089 0.5276 0.52765 0.0
C861 C 0.49914 0.51837 0.54626 0.0
H862 H 0.53459 0.53392 0.51213 0.0
C863 C 0.50843 0.50808 0.5637 0.0
H864 H 0.5022 0.53573 0.51399 0.0
C865 C 0.52692 0.50713 0.56272 0.0
C866 C 0.53674 0.5164 0.54424 0.0
H867 H 0.5014 0.50059 0.5781 0.0
H868 H 0.53354 0.49925 0.57675 0.0
C869 C 0.52748 0.5267 0.52672 0.0
C870 C 1.0096 0.50904 0.0341 0.0
C871 C 1.0005 0.52345 0.02398 0.0
H872 H 0.03469 0.49719 0.04096 0.0
C873 C 1.01056 0.53778 1.01415 0.0
H874 H 1.00235 0.49766 0.04153 0.0
C875 C 0.02913 0.5375 1.01379 0.0
C876 C 0.03822 0.52289 0.02328 0.0
H877 H 1.00406 0.54926 1.00662 0.0
H878 H 0.03638 0.54877 1.006 0.0
C879 C 0.0282 0.50876 0.03376 0.0
loop_
_geom_bond_atom_site_label_1
_geom_bond_atom_site_label_2
_geom_bond_distance
_geom_bond_site_symmetry_2
_ccdc_geom_bond_type
C0 C1 1.264 1_554 S
C0 C5 1.479 1_545 S
C0 C10 1.465 . S
C1 C0 1.264 1_556 S
C1 C3 1.339 . S
C1 H28 0.931 . S
C2 C3 1.395 1_554 S
C2 C4 1.320 1_545 S
C3 C1 1.339 . S
C3 C2 1.395 1_556 S
C3 H29 0.929 . S
C4 C2 1.320 1_565 S
C4 C5 1.405 . S
C4 H30 0.930 . S
C5 C0 1.479 1_565 S
C5 C4 1.405 . S
C5 H31 0.931 . S
U6 O7 2.454 1_545 S
U6 O8 2.458 1_545 S
U6 C9 2.984 1_545 S
U6 C10 2.847 . S
U6 C23 2.882 1_554 S
U6 O24 2.434 1_545 S
U6 O25 2.420 . S
U6 O26 2.455 1_554 S
U6 O27 2.449 1_554 S
O7 U6 2.454 1_565 S
O7 C9 1.353 . S
O8 U6 2.458 1_565 S
O8 C9 1.286 . S
C9 U6 2.984 1_565 S
C9 O7 1.353 . S
C9 O8 1.286 . S
C9 C11 1.363 . S
C10 C0 1.465 . S
C10 U6 2.847 . S
C10 O24 1.233 1_545 S
C10 O25 1.202 . S
C11 C9 1.363 . S
C11 C13 1.408 . S
C11 C16 1.342 . S
C12 C13 1.310 . S
C12 C15 1.461 . S
C12 H32 0.932 . S
C13 C11 1.408 . S
C13 C12 1.310 . S
C13 H33 0.930 . S
C14 C15 1.474 . S
C14 C16 1.285 . S
C14 H34 0.929 . S
C15 C12 1.461 . S
C15 C14 1.474 . S
C16 C11 1.342 . S
C16 C14 1.285 . S
C16 H35 0.930 . S
C17 C20 1.424 . S
C17 C22 1.245 . S
C17 C23 1.428 . S
C18 C21 1.260 . S
C18 C22 1.477 . S
C18 H36 0.932 . S
C19 C20 1.384 . S
C19 C21 1.479 . S
C19 H37 0.929 . S
C20 C17 1.424 . S
C20 C19 1.384 . S
C20 H38 0.928 . S
C21 C18 1.260 . S
C21 C19 1.479 . S
C22 C17 1.245 . S
C22 C18 1.477 . S
C22 H39 0.932 . S
C23 U6 2.882 1_556 S
C23 C17 1.428 . S
C23 O26 1.301 . S
C23 O27 1.282 . S
O24 U6 2.434 1_565 S
O24 C10 1.233 1_565 S
O25 U6 2.420 . S
O25 C10 1.202 . S
O26 U6 2.455 1_556 S
O26 C23 1.301 . S
O27 U6 2.449 1_556 S
O27 C23 1.282 . S
H28 C1 0.931 . S
H29 C3 0.929 . S
H30 C4 0.930 . S
H31 C5 0.931 . S
H32 C12 0.932 . S
H33 C13 0.930 . S
H34 C14 0.929 . S
H35 C16 0.930 . S
H36 C18 0.932 . S
H37 C19 0.929 . S
H38 C20 0.928 . S
H39 C22 0.932 . S
C40 C41 1.264 . S
C40 C45 1.479 . S
C40 C50 1.465 . S
C41 C40 1.264 . S
C41 C43 1.339 . S
C41 H68 0.931 . S
C42 C43 1.395 . S
C42 C44 1.320 . S
C43 C41 1.339 . S
C43 C42 1.395 . S
C43 H69 0.929 . S
C44 C42 1.320 . S
C44 C45 1.405 . S
C44 H70 0.930 . S
C45 C40 1.479 . S
C45 C44 1.405 . S
C45 H71 0.931 . S
U46 O47 2.454 . S
U46 O48 2.458 . S
U46 C49 2.984 . S
U46 C50 2.847 . S
U46 C63 2.882 . S
U46 O64 2.441 . S
U46 O65 2.420 . S
U46 O66 2.455 . S
U46 O67 2.449 . S
O47 U46 2.454 . S
O47 C49 1.353 . S
O48 U46 2.458 . S
O48 C49 1.286 . S
C49 U46 2.984 . S
C49 O47 1.353 . S
C49 O48 1.286 . S
C49 C51 1.363 . S
C50 C40 1.465 . S
C50 U46 2.847 . S
C50 O64 1.249 . S
C50 O65 1.202 . S
C51 C49 1.363 . S
C51 C53 1.408 . S
C51 C56 1.342 . S
C52 C53 1.310 . S
C52 C55 1.461 . S
C52 H72 0.932 . S
C53 C51 1.408 . S
C53 C52 1.310 . S
C53 H73 0.930 . S
C54 C55 1.474 . S
C54 C56 1.285 . S
C54 H74 0.929 . S
C55 C52 1.461 . S
C55 C54 1.474 . S
C56 C51 1.342 . S
C56 C54 1.285 . S
C56 H75 0.930 . S
C57 C60 1.424 . S
C57 C62 1.245 . S
C57 C63 1.428 . S
C58 C61 1.260 . S
C58 C62 1.477 . S
C58 H76 0.932 . S
C59 C60 1.384 . S
C59 C61 1.479 . S
C59 H77 0.929 . S
C60 C57 1.424 . S
C60 C59 1.384 . S
C60 H78 0.928 . S
C61 C58 1.260 . S
C61 C59 1.479 . S
C62 C57 1.245 . S
C62 C58 1.477 . S
C62 H79 0.932 . S
C63 U46 2.882 . S
C63 C57 1.428 . S
C63 O66 1.301 . S
C63 O67 1.282 . S
O64 U46 2.441 . S
O64 C50 1.249 . S
O65 U46 2.420 . S
O65 C50 1.202 . S
O66 U46 2.455 . S
O66 C63 1.301 . S
O67 U46 2.449 . S
O67 C63 1.282 . S
H68 C41 0.931 . S
H69 C43 0.929 . S
H70 C44 0.930 . S
H71 C45 0.931 . S
H72 C52 0.932 . S
H73 C53 0.930 . S
H74 C54 0.929 . S
H75 C56 0.930 . S
H76 C58 0.932 . S
H77 C59 0.929 . S
H78 C60 0.928 . S
H79 C62 0.932 . S
C80 C81 1.264 . S
C80 C85 1.479 . S
C80 C90 1.429 1_565 S
C81 C80 1.264 . S
C81 C83 1.339 . S
C81 H108 0.931 . S
C82 C83 1.395 . S
C82 C84 1.320 . S
C83 C81 1.339 . S
C83 C82 1.395 . S
C83 H109 0.929 . S
C84 C82 1.320 . S
C84 C85 1.405 . S
C84 H110 0.930 . S
C85 C80 1.479 . S
C85 C84 1.405 . S
C85 H111 0.931 . S
U86 O87 2.454 . S
U86 O88 2.458 . S
U86 C89 2.984 . S
U86 C90 2.875 . S
U86 C103 2.882 . S
U86 O104 2.441 . S
U86 O105 2.420 . S
U86 O106 2.455 . S
U86 O107 2.449 . S
O87 U86 2.454 . S
O87 C89 1.353 . S
O88 U86 2.458 . S
O88 C89 1.286 . S
C89 U86 2.984 . S
C89 O87 1.353 . S
C89 O88 1.286 . S
C89 C91 1.363 . S
C90 C80 1.429 1_545 S
C90 U86 2.875 . S
C90 O104 1.276 . S
C90 O105 1.213 . S
C91 C89 1.363 . S
C91 C93 1.408 . S
C91 C96 1.342 . S
C92 C93 1.310 . S
C92 C95 1.461 . S
C92 H112 0.932 . S
C93 C91 1.408 . S
C93 C92 1.310 . S
C93 H113 0.930 . S
C94 C95 1.474 . S
C94 C96 1.285 . S
C94 H114 0.929 . S
C95 C92 1.461 . S
C95 C94 1.474 . S
C96 C91 1.342 . S
C96 C94 1.285 . S
C96 H115 0.930 . S
C97 C100 1.424 . S
C97 C102 1.245 . S
C97 C103 1.428 . S
C98 C101 1.260 . S
C98 C102 1.477 . S
C98 H116 0.932 . S
C99 C100 1.384 . S
C99 C101 1.479 . S
C99 H117 0.929 1_545 S
C100 C97 1.424 . S
C100 C99 1.384 . S
C100 H118 0.898 1_545 S
C101 C98 1.260 . S
C101 C99 1.479 . S
C102 C97 1.245 . S
C102 C98 1.477 . S
C102 H119 0.932 . S
C103 U86 2.882 . S
C103 C97 1.428 . S
C103 O106 1.301 . S
C103 O107 1.282 . S
O104 U86 2.441 . S
O104 C90 1.276 . S
O105 U86 2.420 . S
O105 C90 1.213 . S
O106 U86 2.455 . S
O106 C103 1.301 . S
O107 U86 2.449 . S
O107 C103 1.282 . S
H108 C81 0.931 . S
H109 C83 0.929 . S
H110 C84 0.930 . S
H111 C85 0.931 . S
H112 C92 0.932 . S
H113 C93 0.930 . S
H114 C94 0.929 . S
H115 C96 0.930 . S
H116 C98 0.932 . S
H117 C99 0.929 1_565 S
H118 C100 0.898 1_565 S
H119 C102 0.932 . S
C120 C121 1.264 . S
C120 C125 1.479 . S
C120 C130 1.465 . S
C121 C120 1.264 . S
C121 C123 1.339 . S
C121 H148 0.931 . S
C122 C123 1.395 . S
C122 C124 1.320 . S
C123 C121 1.339 . S
C123 C122 1.395 . S
C123 H149 0.929 . S
C124 C122 1.320 . S
C124 C125 1.405 . S
C124 H150 0.930 . S
C125 C120 1.479 . S
C125 C124 1.405 . S
C125 H151 0.931 . S
U126 O127 2.454 . S
U126 O128 2.458 . S
U126 C129 2.984 . S
U126 C130 2.847 . S
U126 C143 2.882 . S
U126 O144 2.441 . S
U126 O145 2.420 . S
U126 O146 2.455 . S
U126 O147 2.449 . S
O127 U126 2.454 . S
O127 C129 1.353 . S
O128 U126 2.458 . S
O128 C129 1.286 . S
C129 U126 2.984 . S
C129 O127 1.353 . S
C129 O128 1.286 . S
C129 C131 1.363 . S
C130 C120 1.465 . S
C130 U126 2.847 . S
C130 O144 1.249 . S
C130 O145 1.202 . S
C131 C129 1.363 . S
C131 C133 1.408 . S
C131 C136 1.342 . S
C132 C133 1.310 . S
C132 C135 1.461 . S
C132 H152 0.932 . S
C133 C131 1.408 . S
C133 C132 1.310 . S
C133 H153 0.930 . S
C134 C135 1.474 . S
C134 C136 1.285 . S
C134 H154 0.929 . S
C135 C132 1.461 . S
C135 C134 1.474 . S
C136 C131 1.342 . S
C136 C134 1.285 . S
C136 H155 0.930 . S
C137 C140 1.424 . S
C137 C142 1.245 . S
C137 C143 1.428 . S
C138 C141 1.260 . S
C138 C142 1.477 . S
C138 H156 0.932 . S
C139 C140 1.384 . S
C139 C141 1.479 . S
C139 H157 0.929 . S
C140 C137 1.424 . S
C140 C139 1.384 . S
C140 H158 0.928 . S
C141 C138 1.260 . S
C141 C139 1.479 . S
C142 C137 1.245 . S
C142 C138 1.477 . S
C142 H159 0.932 . S
C143 U126 2.882 . S
C143 C137 1.428 . S
C143 O146 1.301 . S
C143 O147 1.282 . S
O144 U126 2.441 . S
O144 C130 1.249 . S
O145 U126 2.420 . S
O145 C130 1.202 . S
O146 U126 2.455 . S
O146 C143 1.301 . S
O147 U126 2.449 . S
O147 C143 1.282 . S
H148 C121 0.931 . S
H149 C123 0.929 . S
H150 C124 0.930 . S
H151 C125 0.931 . S
H152 C132 0.932 . S
H153 C133 0.930 . S
H154 C134 0.929 . S
H155 C136 0.930 . S
H156 C138 0.932 . S
H157 C139 0.929 . S
H158 C140 0.928 . S
H159 C142 0.932 . S
C160 C161 1.264 . S
C160 C165 1.479 . S
C160 C170 1.465 . S
C161 C160 1.264 . S
C161 C163 1.339 . S
C161 H188 0.931 . S
C162 C163 1.395 . S
C162 C164 1.320 . S
C163 C161 1.339 . S
C163 C162 1.395 . S
C163 H189 0.929 . S
C164 C162 1.320 . S
C164 C165 1.405 . S
C164 H190 0.930 . S
C165 C160 1.479 . S
C165 C164 1.405 . S
C165 H191 0.931 . S
U166 O167 2.454 1_554 S
U166 O168 2.458 1_554 S
U166 C169 2.984 1_554 S
U166 C170 2.847 1_545 S
U166 C183 2.884 . S
U166 O184 2.441 1_545 S
U166 O185 2.420 1_545 S
U166 O186 2.455 1_554 S
U166 O187 2.449 1_545 S
O167 U166 2.454 1_556 S
O167 C169 1.353 . S
O168 U166 2.458 1_556 S
O168 C169 1.286 . S
C169 U166 2.984 1_556 S
C169 O167 1.353 . S
C169 O168 1.286 . S
C169 C171 1.363 . S
C170 C160 1.465 . S
C170 U166 2.847 1_565 S
C170 O184 1.249 . S
C170 O185 1.202 . S
C171 C169 1.363 . S
C171 C173 1.408 . S
C171 C176 1.342 . S
C172 C173 1.310 . S
C172 C175 1.461 . S
C172 H192 0.932 . S
C173 C171 1.408 . S
C173 C172 1.310 . S
C173 H193 0.930 . S
C174 C175 1.474 . S
C174 C176 1.285 . S
C174 H194 0.929 . S
C175 C172 1.461 . S
C175 C174 1.474 . S
C176 C171 1.342 . S
C176 C174 1.285 . S
C176 H195 0.930 . S
C177 C180 1.424 1_545 S
C177 C182 1.245 1_554 S
C177 C183 1.430 . S
C178 C181 1.260 1_556 S
C178 C182 1.477 . S
C178 H196 0.932 . S
C179 C180 1.384 . S
C179 C181 1.479 1_565 S
C179 H197 0.929 . S
C180 C177 1.424 1_565 S
C180 C179 1.384 . S
C180 H198 0.928 . S
C181 C178 1.260 1_554 S
C181 C179 1.479 1_545 S
C182 C177 1.245 1_556 S
C182 C178 1.477 . S
C182 H199 0.932 . S
C183 U166 2.884 . S
C183 C177 1.430 . S
C183 O186 1.312 1_554 S
C183 O187 1.270 1_545 S
O184 U166 2.441 1_565 S
O184 C170 1.249 . S
O185 U166 2.420 1_565 S
O185 C170 1.202 . S
O186 U166 2.455 1_556 S
O186 C183 1.312 1_556 S
O187 U166 2.449 1_565 S
O187 C183 1.270 1_565 S
H188 C161 0.931 . S
H189 C163 0.929 . S
H190 C164 0.930 . S
H191 C165 0.931 . S
H192 C172 0.932 . S
H193 C173 0.930 . S
H194 C174 0.929 . S
H195 C176 0.930 . S
H196 C178 0.932 . S
H197 C179 0.929 . S
H198 C180 0.928 . S
H199 C182 0.932 . S
C200 C201 1.264 . S
C200 C205 1.479 . S
C200 C210 1.465 . S
C201 C200 1.264 . S
C201 C203 1.339 . S
C201 H228 0.931 . S
C202 C203 1.395 . S
C202 C204 1.320 . S
C203 C201 1.339 . S
C203 C202 1.395 . S
C203 H229 0.929 . S
C204 C202 1.320 . S
C204 C205 1.405 . S
C204 H230 0.930 . S
C205 C200 1.479 . S
C205 C204 1.405 . S
C205 H231 0.931 . S
U206 O207 2.454 . S
U206 O208 2.458 . S
U206 C209 2.984 . S
U206 C210 2.847 . S
U206 C223 2.882 . S
U206 O224 2.441 . S
U206 O225 2.420 . S
U206 O226 2.455 . S
U206 O227 2.449 . S
O207 U206 2.454 . S
O207 C209 1.353 . S
O208 U206 2.458 . S
O208 C209 1.286 . S
C209 U206 2.984 . S
C209 O207 1.353 . S
C209 O208 1.286 . S
C209 C211 1.363 . S
C210 C200 1.465 . S
C210 U206 2.847 . S
C210 O224 1.249 . S
C210 O225 1.202 . S
C211 C209 1.363 . S
C211 C213 1.408 . S
C211 C216 1.342 . S
C212 C213 1.310 . S
C212 C215 1.461 . S
C212 H232 0.932 . S
C213 C211 1.408 . S
C213 C212 1.310 . S
C213 H233 0.930 . S
C214 C215 1.474 . S
C214 C216 1.285 . S
C214 H234 0.929 . S
C215 C212 1.461 . S
C215 C214 1.474 . S
C216 C211 1.342 . S
C216 C214 1.285 . S
C216 H235 0.930 . S
C217 C220 1.424 . S
C217 C222 1.245 . S
C217 C223 1.428 . S
C218 C221 1.260 . S
C218 C222 1.477 . S
C218 H236 0.932 . S
C219 C220 1.384 . S
C219 C221 1.479 . S
C219 H237 0.929 . S
C220 C217 1.424 . S
C220 C219 1.384 . S
C220 H238 0.928 . S
C221 C218 1.260 . S
C221 C219 1.479 . S
C222 C217 1.245 . S
C222 C218 1.477 . S
C222 H239 0.932 . S
C223 U206 2.882 . S
C223 C217 1.428 . S
C223 O226 1.301 . S
C223 O227 1.282 . S
O224 U206 2.441 . S
O224 C210 1.249 . S
O225 U206 2.420 . S
O225 C210 1.202 . S
O226 U206 2.455 . S
O226 C223 1.301 . S
O227 U206 2.449 . S
O227 C223 1.282 . S
H228 C201 0.931 . S
H229 C203 0.929 . S
H230 C204 0.930 . S
H231 C205 0.931 . S
H232 C212 0.932 . S
H233 C213 0.930 . S
H234 C214 0.929 . S
H235 C216 0.930 . S
H236 C218 0.932 . S
H237 C219 0.929 . S
H238 C220 0.928 . S
H239 C222 0.932 . S
C240 C241 1.264 1_565 S
C240 C245 1.479 . S
C240 C250 1.465 . S
C241 C240 1.264 1_545 S
C241 C243 1.339 . S
C241 H268 0.931 . S
C242 C243 1.393 . S
C242 C244 1.323 1_545 S
C243 C241 1.339 . S
C243 C242 1.393 . S
C243 H269 0.929 . S
C244 C242 1.323 1_565 S
C244 C245 1.405 . S
C244 H270 0.930 . S
C245 C240 1.479 . S
C245 C244 1.405 . S
C245 H271 0.931 . S
U246 O247 2.454 . S
U246 O248 2.458 . S
U246 C249 2.984 . S
U246 C250 2.847 . S
U246 C263 2.882 1_565 S
U246 O264 2.441 . S
U246 O265 2.420 . S
U246 O266 2.458 . S
U246 O267 2.449 1_565 S
O247 U246 2.454 . S
O247 C249 1.353 . S
O248 U246 2.458 . S
O248 C249 1.286 . S
C249 U246 2.984 . S
C249 O247 1.353 . S
C249 O248 1.286 . S
C249 C251 1.363 . S
C250 C240 1.465 . S
C250 U246 2.847 . S
C250 O264 1.249 . S
C250 O265 1.202 . S
C251 C249 1.363 . S
C251 C253 1.408 . S
C251 C256 1.342 . S
C252 C253 1.310 . S
C252 C255 1.461 . S
C252 H272 0.932 . S
C253 C251 1.408 . S
C253 C252 1.310 . S
C253 H273 0.930 . S
C254 C255 1.474 . S
C254 C256 1.285 . S
C254 H274 0.929 . S
C255 C252 1.461 . S
C255 C254 1.474 . S
C256 C251 1.342 . S
C256 C254 1.285 . S
C256 H275 0.930 . S
C257 C260 1.424 . S
C257 C262 1.245 . S
C257 C263 1.428 . S
C258 C261 1.260 . S
C258 C262 1.477 . S
C258 H276 0.932 . S
C259 C260 1.384 . S
C259 C261 1.479 . S
C259 H277 0.929 . S
C260 C257 1.424 . S
C260 C259 1.384 . S
C260 H278 0.928 . S
C261 C258 1.260 . S
C261 C259 1.479 . S
C262 C257 1.245 . S
C262 C258 1.477 . S
C262 H279 0.932 . S
C263 U246 2.882 1_545 S
C263 C257 1.428 . S
C263 O266 1.294 1_545 S
C263 O267 1.282 . S
O264 U246 2.441 . S
O264 C250 1.249 . S
O265 U246 2.420 . S
O265 C250 1.202 . S
O266 U246 2.458 . S
O266 C263 1.294 1_565 S
O267 U246 2.449 1_545 S
O267 C263 1.282 . S
H268 C241 0.931 . S
H269 C243 0.929 . S
H270 C244 0.930 . S
H271 C245 0.931 . S
H272 C252 0.932 . S
H273 C253 0.930 . S
H274 C254 0.929 . S
H275 C256 0.930 . S
H276 C258 0.932 . S
H277 C259 0.929 . S
H278 C260 0.928 . S
H279 C262 0.932 . S
C280 C281 1.264 . S
C280 C285 1.479 . S
C280 C290 1.465 . S
C281 C280 1.264 . S
C281 C283 1.339 . S
C281 H308 0.931 . S
C282 C283 1.395 . S
C282 C284 1.320 . S
C283 C281 1.339 . S
C283 C282 1.395 . S
C283 H309 0.929 . S
C284 C282 1.320 . S
C284 C285 1.405 . S
C284 H310 0.930 . S
C285 C280 1.479 . S
C285 C284 1.405 . S
C285 H311 0.931 . S
U286 O287 2.454 . S
U286 O288 2.458 . S
U286 C289 2.984 . S
U286 C290 2.847 . S
U286 C303 2.882 . S
U286 O304 2.441 . S
U286 O305 2.420 . S
U286 O306 2.455 . S
U286 O307 2.449 . S
O287 U286 2.454 . S
O287 C289 1.353 . S
O288 U286 2.458 . S
O288 C289 1.286 . S
C289 U286 2.984 . S
C289 O287 1.353 . S
C289 O288 1.286 . S
C289 C291 1.363 . S
C290 C280 1.465 . S
C290 U286 2.847 . S
C290 O304 1.249 . S
C290 O305 1.202 . S
C291 C289 1.363 . S
C291 C293 1.408 . S
C291 C296 1.342 . S
C292 C293 1.310 . S
C292 C295 1.461 . S
C292 H312 0.932 . S
C293 C291 1.408 . S
C293 C292 1.310 . S
C293 H313 0.930 . S
C294 C295 1.474 . S
C294 C296 1.285 . S
C294 H314 0.929 . S
C295 C292 1.461 . S
C295 C294 1.474 . S
C296 C291 1.342 . S
C296 C294 1.285 . S
C296 H315 0.930 . S
C297 C300 1.424 . S
C297 C302 1.245 . S
C297 C303 1.428 . S
C298 C301 1.260 . S
C298 C302 1.477 . S
C298 H316 0.932 . S
C299 C300 1.384 . S
C299 C301 1.479 . S
C299 H317 0.929 . S
C300 C297 1.424 . S
C300 C299 1.384 . S
C300 H318 0.928 . S
C301 C298 1.260 . S
C301 C299 1.479 . S
C302 C297 1.245 . S
C302 C298 1.477 . S
C302 H319 0.932 . S
C303 U286 2.882 . S
C303 C297 1.428 . S
C303 O306 1.301 . S
C303 O307 1.282 . S
O304 U286 2.441 . S
O304 C290 1.249 . S
O305 U286 2.420 . S
O305 C290 1.202 . S
O306 U286 2.455 . S
O306 C303 1.301 . S
O307 U286 2.449 . S
O307 C303 1.282 . S
H308 C281 0.931 . S
H309 C283 0.929 . S
H310 C284 0.930 . S
H311 C285 0.931 . S
H312 C292 0.932 . S
H313 C293 0.930 . S
H314 C294 0.929 . S
H315 C296 0.930 . S
H316 C298 0.932 . S
H317 C299 0.929 . S
H318 C300 0.928 . S
H319 C302 0.932 . S
C320 C321 1.264 . S
C320 C325 1.479 . S
C320 C330 1.465 . S
C321 C320 1.264 . S
C321 C323 1.339 . S
C321 H348 0.931 . S
C322 C323 1.395 . S
C322 C324 1.320 . S
C323 C321 1.339 . S
C323 C322 1.395 . S
C323 H349 0.929 . S
C324 C322 1.320 . S
C324 C325 1.405 . S
C324 H350 0.930 . S
C325 C320 1.479 . S
C325 C324 1.405 . S
C325 H351 0.931 . S
U326 O327 2.454 . S
U326 O328 2.458 . S
U326 C329 2.984 . S
U326 C330 2.847 . S
U326 C343 2.882 . S
U326 O344 2.441 . S
U326 O345 2.420 . S
U326 O346 2.455 . S
U326 O347 2.449 . S
O327 U326 2.454 . S
O327 C329 1.353 . S
O328 U326 2.458 . S
O328 C329 1.286 . S
C329 U326 2.984 . S
C329 O327 1.353 . S
C329 O328 1.286 . S
C329 C331 1.363 . S
C330 C320 1.465 . S
C330 U326 2.847 . S
C330 O344 1.249 . S
C330 O345 1.202 . S
C331 C329 1.363 . S
C331 C333 1.408 . S
C331 C336 1.342 . S
C332 C333 1.310 . S
C332 C335 1.461 . S
C332 H352 0.932 . S
C333 C331 1.408 . S
C333 C332 1.310 . S
C333 H353 0.930 . S
C334 C335 1.474 . S
C334 C336 1.285 . S
C334 H354 0.929 . S
C335 C332 1.461 . S
C335 C334 1.474 . S
C336 C331 1.342 . S
C336 C334 1.285 . S
C336 H355 0.930 . S
C337 C340 1.424 . S
C337 C342 1.245 . S
C337 C343 1.428 . S
C338 C341 1.260 . S
C338 C342 1.477 . S
C338 H356 0.932 . S
C339 C340 1.384 . S
C339 C341 1.479 . S
C339 H357 0.929 . S
C340 C337 1.424 . S
C340 C339 1.384 . S
C340 H358 0.928 . S
C341 C338 1.260 . S
C341 C339 1.479 . S
C342 C337 1.245 . S
C342 C338 1.477 . S
C342 H359 0.932 . S
C343 U326 2.882 . S
C343 C337 1.428 . S
C343 O346 1.301 . S
C343 O347 1.282 . S
O344 U326 2.441 . S
O344 C330 1.249 . S
O345 U326 2.420 . S
O345 C330 1.202 . S
O346 U326 2.455 . S
O346 C343 1.301 . S
O347 U326 2.449 . S
O347 C343 1.282 . S
H348 C321 0.931 . S
H349 C323 0.929 . S
H350 C324 0.930 . S
H351 C325 0.931 . S
H352 C332 0.932 . S
H353 C333 0.930 . S
H354 C334 0.929 . S
H355 C336 0.930 . S
H356 C338 0.932 . S
H357 C339 0.929 . S
H358 C340 0.928 . S
H359 C342 0.932 . S
C360 C361 1.264 . S
C360 C365 1.479 . S
C360 C370 1.465 . S
C361 C360 1.264 . S
C361 C363 1.339 . S
C361 H388 0.931 . S
C362 C363 1.395 . S
C362 C364 1.320 . S
C363 C361 1.339 . S
C363 C362 1.395 . S
C363 H389 0.929 . S
C364 C362 1.320 . S
C364 C365 1.405 . S
C364 H390 0.930 . S
C365 C360 1.479 . S
C365 C364 1.405 . S
C365 H391 0.931 . S
U366 O367 2.454 . S
U366 O368 2.458 . S
U366 C369 2.984 . S
U366 C370 2.847 . S
U366 C383 2.882 . S
U366 O384 2.441 . S
U366 O385 2.420 . S
U366 O386 2.455 . S
U366 O387 2.449 . S
O367 U366 2.454 . S
O367 C369 1.353 . S
O368 U366 2.458 . S
O368 C369 1.286 . S
C369 U366 2.984 . S
C369 O367 1.353 . S
C369 O368 1.286 . S
C369 C371 1.363 . S
C370 C360 1.465 . S
C370 U366 2.847 . S
C370 O384 1.249 . S
C370 O385 1.202 . S
C371 C369 1.363 . S
C371 C373 1.408 . S
C371 C376 1.342 . S
C372 C373 1.310 . S
C372 C375 1.461 . S
C372 H392 0.932 . S
C373 C371 1.408 . S
C373 C372 1.310 . S
C373 H393 0.930 . S
C374 C375 1.474 . S
C374 C376 1.285 . S
C374 H394 0.929 . S
C375 C372 1.461 . S
C375 C374 1.474 . S
C376 C371 1.342 . S
C376 C374 1.285 . S
C376 H395 0.930 . S
C377 C380 1.424 . S
C377 C382 1.245 . S
C377 C383 1.428 . S
C378 C381 1.260 . S
C378 C382 1.477 . S
C378 H396 0.932 . S
C379 C380 1.384 . S
C379 C381 1.479 . S
C379 H397 0.929 . S
C380 C377 1.424 . S
C380 C379 1.384 . S
C380 H398 0.928 . S
C381 C378 1.260 . S
C381 C379 1.479 . S
C382 C377 1.245 . S
C382 C378 1.477 . S
C382 H399 0.932 . S
C383 U366 2.882 . S
C383 C377 1.428 . S
C383 O386 1.301 . S
C383 O387 1.282 . S
O384 U366 2.441 . S
O384 C370 1.249 . S
O385 U366 2.420 . S
O385 C370 1.202 . S
O386 U366 2.455 . S
O386 C383 1.301 . S
O387 U366 2.449 . S
O387 C383 1.282 . S
H388 C361 0.931 . S
H389 C363 0.929 . S
H390 C364 0.930 . S
H391 C365 0.931 . S
H392 C372 0.932 . S
H393 C373 0.930 . S
H394 C374 0.929 . S
H395 C376 0.930 . S
H396 C378 0.932 . S
H397 C379 0.929 . S
H398 C380 0.928 . S
H399 C382 0.932 . S
C400 C401 1.264 . S
C400 C405 1.479 . S
C400 C410 1.465 . S
C401 C400 1.264 . S
C401 C403 1.339 . S
C401 H428 0.931 . S
C402 C403 1.395 . S
C402 C404 1.320 . S
C403 C401 1.339 . S
C403 C402 1.395 . S
C403 H429 0.929 . S
C404 C402 1.320 . S
C404 C405 1.405 . S
C404 H430 0.930 . S
C405 C400 1.479 . S
C405 C404 1.405 . S
C405 H431 0.931 . S
U406 O407 2.454 1_556 S
U406 O408 2.458 1_556 S
U406 C409 2.984 1_556 S
U406 C410 2.847 . S
U406 C423 2.882 . S
U406 O424 2.441 . S
U406 O425 2.420 . S
U406 O426 2.455 1_556 S
U406 O427 2.449 . S
O407 U406 2.454 1_554 S
O407 C409 1.353 . S
O408 U406 2.458 1_554 S
O408 C409 1.286 . S
C409 U406 2.984 1_554 S
C409 O407 1.353 . S
C409 O408 1.286 . S
C409 C411 1.363 . S
C410 C400 1.465 . S
C410 U406 2.847 . S
C410 O424 1.249 . S
C410 O425 1.202 . S
C411 C409 1.363 . S
C411 C413 1.408 . S
C411 C416 1.342 . S
C412 C413 1.310 . S
C412 C415 1.461 . S
C412 H432 0.932 . S
C413 C411 1.408 . S
C413 C412 1.310 . S
C413 H433 0.930 . S
C414 C415 1.474 . S
C414 C416 1.285 . S
C414 H434 0.929 . S
C415 C412 1.461 . S
C415 C414 1.474 . S
C416 C411 1.342 . S
C416 C414 1.285 . S
C416 H435 0.930 . S
C417 C420 1.426 1_554 S
C417 C422 1.242 . S
C417 C423 1.428 1_554 S
C418 C421 1.260 . S
C418 C422 1.477 . S
C418 H436 0.932 . S
C419 C420 1.384 . S
C419 C421 1.479 1_556 S
C419 H437 0.929 . S
C420 C417 1.426 1_556 S
C420 C419 1.384 . S
C420 H438 0.928 . S
C421 C418 1.260 . S
C421 C419 1.479 1_554 S
C422 C417 1.242 . S
C422 C418 1.477 . S
C422 H439 0.932 . S
C423 U406 2.882 . S
C423 C417 1.428 1_556 S
C423 O426 1.301 1_556 S
C423 O427 1.282 . S
O424 U406 2.441 . S
O424 C410 1.249 . S
O425 U406 2.420 . S
O425 C410 1.202 . S
O426 U406 2.455 1_554 S
O426 C423 1.301 1_554 S
O427 U406 2.449 . S
O427 C423 1.282 . S
H428 C401 0.931 . S
H429 C403 0.929 . S
H430 C404 0.930 . S
H431 C405 0.931 . S
H432 C412 0.932 . S
H433 C413 0.930 . S
H434 C414 0.929 . S
H435 C416 0.930 . S
H436 C418 0.932 . S
H437 C419 0.929 . S
H438 C420 0.928 . S
H439 C422 0.932 . S
C440 C441 1.264 . S
C440 C445 1.479 . S
C440 C450 1.465 . S
C441 C440 1.264 . S
C441 C443 1.339 . S
C441 H468 0.931 . S
C442 C443 1.395 . S
C442 C444 1.320 . S
C443 C441 1.339 . S
C443 C442 1.395 . S
C443 H469 0.929 . S
C444 C442 1.320 . S
C444 C445 1.405 . S
C444 H470 0.930 . S
C445 C440 1.479 . S
C445 C444 1.405 . S
C445 H471 0.931 . S
U446 O447 2.454 . S
U446 O448 2.458 . S
U446 C449 2.984 . S
U446 C450 2.847 . S
U446 C463 2.882 . S
U446 O464 2.441 . S
U446 O465 2.420 . S
U446 O466 2.455 . S
U446 O467 2.449 . S
O447 U446 2.454 . S
O447 C449 1.353 . S
O448 U446 2.458 . S
O448 C449 1.286 . S
C449 U446 2.984 . S
C449 O447 1.353 . S
C449 O448 1.286 . S
C449 C451 1.363 . S
C450 C440 1.465 . S
C450 U446 2.847 . S
C450 O464 1.249 . S
C450 O465 1.202 . S
C451 C449 1.363 . S
C451 C453 1.408 . S
C451 C456 1.342 . S
C452 C453 1.310 . S
C452 C455 1.461 . S
C452 H472 0.932 . S
C453 C451 1.408 . S
C453 C452 1.310 . S
C453 H473 0.930 . S
C454 C455 1.474 . S
C454 C456 1.285 . S
C454 H474 0.929 . S
C455 C452 1.461 . S
C455 C454 1.474 . S
C456 C451 1.342 . S
C456 C454 1.285 . S
C456 H475 0.930 . S
C457 C460 1.424 . S
C457 C462 1.245 . S
C457 C463 1.428 . S
C458 C461 1.260 . S
C458 C462 1.477 . S
C458 H476 0.932 . S
C459 C460 1.384 . S
C459 C461 1.479 . S
C459 H477 0.929 . S
C460 C457 1.424 . S
C460 C459 1.384 . S
C460 H478 0.928 . S
C461 C458 1.260 . S
C461 C459 1.479 . S
C462 C457 1.245 . S
C462 C458 1.477 . S
C462 H479 0.932 . S
C463 U446 2.882 . S
C463 C457 1.428 . S
C463 O466 1.301 . S
C463 O467 1.282 . S
O464 U446 2.441 . S
O464 C450 1.249 . S
O465 U446 2.420 . S
O465 C450 1.202 . S
O466 U446 2.455 . S
O466 C463 1.301 . S
O467 U446 2.449 . S
O467 C463 1.282 . S
H468 C441 0.931 . S
H469 C443 0.929 . S
H470 C444 0.930 . S
H471 C445 0.931 . S
H472 C452 0.932 . S
H473 C453 0.930 . S
H474 C454 0.929 . S
H475 C456 0.930 . S
H476 C458 0.932 . S
H477 C459 0.929 . S
H478 C460 0.928 . S
H479 C462 0.932 . S
C480 C481 1.264 . S
C480 C485 1.479 . S
C480 C490 1.465 . S
C481 C480 1.264 . S
C481 C483 1.339 . S
C481 H508 0.931 . S
C482 C483 1.395 . S
C482 C484 1.320 . S
C483 C481 1.339 . S
C483 C482 1.395 . S
C483 H509 0.929 . S
C484 C482 1.320 . S
C484 C485 1.405 . S
C484 H510 0.930 . S
C485 C480 1.479 . S
C485 C484 1.405 . S
C485 H511 0.931 . S
U486 O487 2.454 . S
U486 O488 2.458 . S
U486 C489 2.984 . S
U486 C490 2.847 . S
U486 C503 2.882 . S
U486 O504 2.441 . S
U486 O505 2.420 . S
U486 O506 2.455 . S
U486 O507 2.449 . S
O487 U486 2.454 . S
O487 C489 1.353 . S
O488 U486 2.458 . S
O488 C489 1.286 . S
C489 U486 2.984 . S
C489 O487 1.353 . S
C489 O488 1.286 . S
C489 C491 1.363 . S
C490 C480 1.465 . S
C490 U486 2.847 . S
C490 O504 1.249 . S
C490 O505 1.202 . S
C491 C489 1.363 . S
C491 C493 1.408 . S
C491 C496 1.342 . S
C492 C493 1.310 . S
C492 C495 1.461 . S
C492 H512 0.932 . S
C493 C491 1.408 . S
C493 C492 1.310 . S
C493 H513 0.930 . S
C494 C495 1.474 . S
C494 C496 1.285 . S
C494 H514 0.929 . S
C495 C492 1.461 . S
C495 C494 1.474 . S
C496 C491 1.342 . S
C496 C494 1.285 . S
C496 H515 0.930 . S
C497 C500 1.424 . S
C497 C502 1.245 . S
C497 C503 1.428 . S
C498 C501 1.260 . S
C498 C502 1.477 . S
C498 H516 0.932 . S
C499 C500 1.384 . S
C499 C501 1.479 . S
C499 H517 0.929 . S
C500 C497 1.424 . S
C500 C499 1.384 . S
C500 H518 0.928 . S
C501 C498 1.260 . S
C501 C499 1.479 . S
C502 C497 1.245 . S
C502 C498 1.477 . S
C502 H519 0.932 . S
C503 U486 2.882 . S
C503 C497 1.428 . S
C503 O506 1.301 . S
C503 O507 1.282 . S
O504 U486 2.441 . S
O504 C490 1.249 . S
O505 U486 2.420 . S
O505 C490 1.202 . S
O506 U486 2.455 . S
O506 C503 1.301 . S
O507 U486 2.449 . S
O507 C503 1.282 . S
H508 C481 0.931 . S
H509 C483 0.929 . S
H510 C484 0.930 . S
H511 C485 0.931 . S
H512 C492 0.932 . S
H513 C493 0.930 . S
H514 C494 0.929 . S
H515 C496 0.930 . S
H516 C498 0.932 . S
H517 C499 0.929 . S
H518 C500 0.928 . S
H519 C502 0.932 . S
C520 C521 1.264 . S
C520 C525 1.479 . S
C520 C530 1.465 . S
C521 C520 1.264 . S
C521 C523 1.339 . S
C521 H548 0.931 . S
C522 C523 1.395 . S
C522 C524 1.320 . S
C523 C521 1.339 . S
C523 C522 1.395 . S
C523 H549 0.929 . S
C524 C522 1.320 . S
C524 C525 1.405 . S
C524 H550 0.930 . S
C525 C520 1.479 . S
C525 C524 1.405 . S
C525 H551 0.931 . S
U526 O527 2.454 . S
U526 O528 2.458 . S
U526 C529 2.984 . S
U526 C530 2.847 . S
U526 C543 2.882 . S
U526 O544 2.441 . S
U526 O545 2.420 . S
U526 O546 2.455 . S
U526 O547 2.449 . S
O527 U526 2.454 . S
O527 C529 1.353 . S
O528 U526 2.458 . S
O528 C529 1.286 . S
C529 U526 2.984 . S
C529 O527 1.353 . S
C529 O528 1.286 . S
C529 C531 1.363 . S
C530 C520 1.465 . S
C530 U526 2.847 . S
C530 O544 1.249 . S
C530 O545 1.202 . S
C531 C529 1.363 . S
C531 C533 1.408 . S
C531 C536 1.342 . S
C532 C533 1.310 . S
C532 C535 1.461 . S
C532 H552 0.932 . S
C533 C531 1.408 . S
C533 C532 1.310 . S
C533 H553 0.930 . S
C534 C535 1.474 . S
C534 C536 1.285 . S
C534 H554 0.929 . S
C535 C532 1.461 . S
C535 C534 1.474 . S
C536 C531 1.342 . S
C536 C534 1.285 . S
C536 H555 0.930 . S
C537 C540 1.424 . S
C537 C542 1.245 . S
C537 C543 1.428 . S
C538 C541 1.260 . S
C538 C542 1.477 . S
C538 H556 0.932 . S
C539 C540 1.384 . S
C539 C541 1.479 . S
C539 H557 0.929 . S
C540 C537 1.424 . S
C540 C539 1.384 . S
C540 H558 0.928 . S
C541 C538 1.260 . S
C541 C539 1.479 . S
C542 C537 1.245 . S
C542 C538 1.477 . S
C542 H559 0.932 . S
C543 U526 2.882 . S
C543 C537 1.428 . S
C543 O546 1.301 . S
C543 O547 1.282 . S
O544 U526 2.441 . S
O544 C530 1.249 . S
O545 U526 2.420 . S
O545 C530 1.202 . S
O546 U526 2.455 . S
O546 C543 1.301 . S
O547 U526 2.449 . S
O547 C543 1.282 . S
H548 C521 0.931 . S
H549 C523 0.929 . S
H550 C524 0.930 . S
H551 C525 0.931 . S
H552 C532 0.932 . S
H553 C533 0.930 . S
H554 C534 0.929 . S
H555 C536 0.930 . S
H556 C538 0.932 . S
H557 C539 0.929 . S
H558 C540 0.928 . S
H559 C542 0.932 . S
C560 C561 1.264 . S
C560 C565 1.451 1_554 S
C560 C570 1.465 . S
C561 C560 1.264 . S
C561 C563 1.339 . S
C561 H588 0.931 . S
C562 C563 1.395 . S
C562 C564 1.320 1_554 S
C563 C561 1.339 . S
C563 C562 1.395 . S
C563 H589 0.929 . S
C564 C562 1.320 1_556 S
C564 C565 1.407 . S
C564 H590 0.930 . S
C565 C560 1.451 1_556 S
C565 C564 1.407 . S
C565 H591 0.956 . S
U566 O567 2.454 1_554 S
U566 O568 2.440 1_554 S
U566 C569 2.984 1_554 S
U566 C570 2.847 . S
U566 C583 2.882 . S
U566 O584 2.441 . S
U566 O585 2.420 . S
U566 O586 2.455 . S
U566 O587 2.449 . S
O567 U566 2.454 1_556 S
O567 C569 1.353 . S
O568 U566 2.440 1_556 S
O568 C569 1.314 . S
C569 U566 2.984 1_556 S
C569 O567 1.353 . S
C569 O568 1.314 . S
C569 C571 1.363 . S
C570 C560 1.465 . S
C570 U566 2.847 . S
C570 O584 1.249 . S
C570 O585 1.202 . S
C571 C569 1.363 . S
C571 C573 1.408 . S
C571 C576 1.342 . S
C572 C573 1.310 . S
C572 C575 1.461 . S
C572 H592 0.932 . S
C573 C571 1.408 . S
C573 C572 1.310 . S
C573 H593 0.930 . S
C574 C575 1.474 . S
C574 C576 1.285 . S
C574 H594 0.929 . S
C575 C572 1.461 . S
C575 C574 1.474 . S
C576 C571 1.342 . S
C576 C574 1.285 . S
C576 H595 0.930 . S
C577 C580 1.424 . S
C577 C582 1.245 . S
C577 C583 1.428 . S
C578 C581 1.260 . S
C578 C582 1.477 . S
C578 H596 0.932 . S
C579 C580 1.384 . S
C579 C581 1.479 . S
C579 H597 0.929 . S
C580 C577 1.424 . S
C580 C579 1.384 . S
C580 H598 0.928 . S
C581 C578 1.260 . S
C581 C579 1.479 . S
C582 C577 1.245 . S
C582 C578 1.477 . S
C582 H599 0.932 . S
C583 U566 2.882 . S
C583 C577 1.428 . S
C583 O586 1.301 . S
C583 O587 1.282 . S
O584 U566 2.441 . S
O584 C570 1.249 . S
O585 U566 2.420 . S
O585 C570 1.202 . S
O586 U566 2.455 . S
O586 C583 1.301 . S
O587 U566 2.449 . S
O587 C583 1.282 . S
H588 C561 0.931 . S
H589 C563 0.929 . S
H590 C564 0.930 . S
H591 C565 0.956 . S
H592 C572 0.932 . S
H593 C573 0.930 . S
H594 C574 0.929 . S
H595 C576 0.930 . S
H596 C578 0.932 . S
H597 C579 0.929 . S
H598 C580 0.928 . S
H599 C582 0.932 . S
C600 C601 1.264 . S
C600 C605 1.479 . S
C600 C610 1.465 . S
C601 C600 1.264 . S
C601 C603 1.339 . S
C601 H628 0.931 . S
C602 C603 1.395 . S
C602 C604 1.320 . S
C603 C601 1.339 . S
C603 C602 1.395 . S
C603 H629 0.929 . S
C604 C602 1.320 . S
C604 C605 1.405 . S
C604 H630 0.930 . S
C605 C600 1.479 . S
C605 C604 1.405 . S
C605 H631 0.931 . S
U606 O607 2.454 . S
U606 O608 2.458 . S
U606 C609 2.984 . S
U606 C610 2.847 . S
U606 C623 2.882 . S
U606 O624 2.441 . S
U606 O625 2.420 . S
U606 O626 2.455 . S
U606 O627 2.449 . S
O607 U606 2.454 . S
O607 C609 1.353 . S
O608 U606 2.458 . S
O608 C609 1.286 . S
C609 U606 2.984 . S
C609 O607 1.353 . S
C609 O608 1.286 . S
C609 C611 1.363 . S
C610 C600 1.465 . S
C610 U606 2.847 . S
C610 O624 1.249 . S
C610 O625 1.202 . S
C611 C609 1.363 . S
C611 C613 1.408 . S
C611 C616 1.342 . S
C612 C613 1.310 . S
C612 C615 1.461 . S
C612 H632 0.932 . S
C613 C611 1.408 . S
C613 C612 1.310 . S
C613 H633 0.930 . S
C614 C615 1.474 . S
C614 C616 1.285 . S
C614 H634 0.929 . S
C615 C612 1.461 . S
C615 C614 1.474 . S
C616 C611 1.342 . S
C616 C614 1.285 . S
C616 H635 0.930 . S
C617 C620 1.424 . S
C617 C622 1.245 . S
C617 C623 1.428 . S
C618 C621 1.260 . S
C618 C622 1.477 . S
C618 H636 0.932 . S
C619 C620 1.384 . S
C619 C621 1.479 . S
C619 H637 0.929 . S
C620 C617 1.424 . S
C620 C619 1.384 . S
C620 H638 0.928 . S
C621 C618 1.260 . S
C621 C619 1.479 . S
C622 C617 1.245 . S
C622 C618 1.477 . S
C622 H639 0.932 . S
C623 U606 2.882 . S
C623 C617 1.428 . S
C623 O626 1.301 . S
C623 O627 1.282 . S
O624 U606 2.441 . S
O624 C610 1.249 . S
O625 U606 2.420 . S
O625 C610 1.202 . S
O626 U606 2.455 . S
O626 C623 1.301 . S
O627 U606 2.449 . S
O627 C623 1.282 . S
H628 C601 0.931 . S
H629 C603 0.929 . S
H630 C604 0.930 . S
H631 C605 0.931 . S
H632 C612 0.932 . S
H633 C613 0.930 . S
H634 C614 0.929 . S
H635 C616 0.930 . S
H636 C618 0.932 . S
H637 C619 0.929 . S
H638 C620 0.928 . S
H639 C622 0.932 . S
C640 C641 1.387 . S
C640 H644 0.950 . S
C640 C649 1.390 . S
C641 C640 1.387 . S
C641 C643 1.387 . S
H642 C649 0.950 . S
C643 C641 1.387 . S
C643 C645 1.390 . S
C643 H647 0.950 . S
H644 C640 0.950 . S
C645 C643 1.390 . S
C645 C646 1.387 . S
C645 H648 0.950 . S
C646 C645 1.387 . S
C646 C649 1.387 . S
H647 C643 0.950 . S
H648 C645 0.950 . S
C649 C640 1.390 . S
C649 H642 0.950 . S
C649 C646 1.387 . S
C650 C651 1.387 . S
C650 H654 0.950 . S
C650 C659 1.390 . S
C651 C650 1.387 . S
C651 C653 1.387 . S
H652 C659 0.950 . S
C653 C651 1.387 . S
C653 C655 1.390 . S
C653 H657 0.950 . S
H654 C650 0.950 . S
C655 C653 1.390 . S
C655 C656 1.387 . S
C655 H658 0.950 . S
C656 C655 1.387 . S
C656 C659 1.387 . S
H657 C653 0.950 . S
H658 C655 0.950 . S
C659 C650 1.390 . S
C659 H652 0.950 . S
C659 C656 1.387 . S
C660 C661 1.387 . S
C660 H664 0.950 . S
C660 C669 1.390 . S
C661 C660 1.387 . S
C661 C663 1.387 . S
H662 C669 0.950 . S
C663 C661 1.387 . S
C663 C665 1.390 . S
C663 H667 0.950 . S
H664 C660 0.950 . S
C665 C663 1.390 . S
C665 C666 1.387 . S
C665 H668 0.950 . S
C666 C665 1.387 . S
C666 C669 1.387 . S
H667 C663 0.950 . S
H668 C665 0.950 . S
C669 C660 1.390 . S
C669 H662 0.950 . S
C669 C666 1.387 . S
C670 C671 1.387 . S
C670 H674 0.950 . S
C670 C679 1.390 . S
C671 C670 1.387 . S
C671 C673 1.387 . S
H672 C679 0.950 . S
C673 C671 1.387 . S
C673 C675 1.390 . S
C673 H677 0.950 . S
H674 C670 0.950 . S
C675 C673 1.390 . S
C675 C676 1.387 . S
C675 H678 0.950 . S
C676 C675 1.387 . S
C676 C679 1.387 . S
H677 C673 0.950 . S
H678 C675 0.950 . S
C679 C670 1.390 . S
C679 H672 0.950 . S
C679 C676 1.387 . S
C680 C681 1.387 . S
C680 H684 0.950 . S
C680 C689 1.390 . S
C681 C680 1.387 . S
C681 C683 1.387 . S
H682 C689 0.950 . S
C683 C681 1.387 . S
C683 C685 1.390 . S
C683 H687 0.950 . S
H684 C680 0.950 . S
C685 C683 1.390 . S
C685 C686 1.387 . S
C685 H688 0.950 . S
C686 C685 1.387 . S
C686 C689 1.387 . S
H687 C683 0.950 . S
H688 C685 0.950 . S
C689 C680 1.390 . S
C689 H682 0.950 . S
C689 C686 1.387 . S
C690 C691 1.387 . S
C690 H694 0.950 . S
C690 C699 1.390 . S
C691 C690 1.387 . S
C691 C693 1.387 . S
H692 C699 0.950 . S
C693 C691 1.387 . S
C693 C695 1.390 . S
C693 H697 0.950 . S
H694 C690 0.950 . S
C695 C693 1.390 . S
C695 C696 1.387 . S
C695 H698 0.950 . S
C696 C695 1.387 . S
C696 C699 1.387 . S
H697 C693 0.950 . S
H698 C695 0.950 . S
C699 C690 1.390 . S
C699 H692 0.950 . S
C699 C696 1.387 . S
C700 C701 1.387 . S
C700 H704 0.950 . S
C700 C709 1.390 . S
C701 C700 1.387 . S
C701 C703 1.387 . S
H702 C709 0.950 . S
C703 C701 1.387 . S
C703 C705 1.390 . S
C703 H707 0.950 . S
H704 C700 0.950 . S
C705 C703 1.390 . S
C705 C706 1.387 . S
C705 H708 0.950 . S
C706 C705 1.387 . S
C706 C709 1.387 . S
H707 C703 0.950 . S
H708 C705 0.950 . S
C709 C700 1.390 . S
C709 H702 0.950 . S
C709 C706 1.387 . S
C710 C711 1.387 . S
C710 H714 0.950 . S
C710 C719 1.390 . S
C711 C710 1.387 . S
C711 C713 1.387 . S
H712 C719 0.950 . S
C713 C711 1.387 . S
C713 C715 1.390 . S
C713 H717 0.950 . S
H714 C710 0.950 . S
C715 C713 1.390 . S
C715 C716 1.387 . S
C715 H718 0.950 . S
C716 C715 1.387 . S
C716 C719 1.387 . S
H717 C713 0.950 . S
H718 C715 0.950 . S
C719 C710 1.390 . S
C719 H712 0.950 . S
C719 C716 1.387 . S
C720 C721 1.387 . S
C720 H724 0.950 . S
C720 C729 1.390 . S
C721 C720 1.387 . S
C721 C723 1.387 . S
H722 C729 0.950 . S
C723 C721 1.387 . S
C723 C725 1.390 . S
C723 H727 0.950 . S
H724 C720 0.950 . S
C725 C723 1.390 . S
C725 C726 1.387 . S
C725 H728 0.950 . S
C726 C725 1.387 . S
C726 C729 1.387 . S
H727 C723 0.950 . S
H728 C725 0.950 . S
C729 C720 1.390 . S
C729 H722 0.950 . S
C729 C726 1.387 . S
C730 C731 1.387 . S
C730 H734 0.950 . S
C730 C739 1.390 . S
C731 C730 1.387 . S
C731 C733 1.387 . S
H732 C739 0.950 . S
C733 C731 1.387 . S
C733 C735 1.390 . S
C733 H737 0.950 . S
H734 C730 0.950 . S
C735 C733 1.390 . S
C735 C736 1.387 . S
C735 H738 0.950 . S
C736 C735 1.387 . S
C736 C739 1.387 . S
H737 C733 0.950 . S
H738 C735 0.950 . S
C739 C730 1.390 . S
C739 H732 0.950 . S
C739 C736 1.387 . S
C740 C741 1.387 . S
C740 H744 0.950 . S
C740 C749 1.390 . S
C741 C740 1.387 . S
C741 C743 1.387 . S
H742 C749 0.950 . S
C743 C741 1.387 . S
C743 C745 1.390 . S
C743 H747 0.950 . S
H744 C740 0.950 . S
C745 C743 1.390 . S
C745 C746 1.387 . S
C745 H748 0.950 . S
C746 C745 1.387 . S
C746 C749 1.387 . S
H747 C743 0.950 . S
H748 C745 0.950 . S
C749 C740 1.390 . S
C749 H742 0.950 . S
C749 C746 1.387 . S
C750 C751 1.387 . S
C750 H754 0.950 . S
C750 C759 1.390 . S
C751 C750 1.387 . S
C751 C753 1.387 . S
H752 C759 0.950 . S
C753 C751 1.387 . S
C753 C755 1.390 . S
C753 H757 0.950 . S
H754 C750 0.950 . S
C755 C753 1.390 . S
C755 C756 1.387 . S
C755 H758 0.950 . S
C756 C755 1.387 . S
C756 C759 1.387 . S
H757 C753 0.950 . S
H758 C755 0.950 . S
C759 C750 1.390 . S
C759 H752 0.950 . S
C759 C756 1.387 . S
C760 C761 1.387 . S
C760 H764 0.950 . S
C760 C769 1.390 . S
C761 C760 1.387 . S
C761 C763 1.387 . S
H762 C769 0.950 . S
C763 C761 1.387 . S
C763 C765 1.390 . S
C763 H767 0.950 . S
H764 C760 0.950 . S
C765 C763 1.390 . S
C765 C766 1.387 . S
C765 H768 0.950 . S
C766 C765 1.387 . S
C766 C769 1.387 . S
H767 C763 0.950 . S
H768 C765 0.950 . S
C769 C760 1.390 . S
C769 H762 0.950 . S
C769 C766 1.387 . S
C770 C771 1.387 . S
C770 H774 0.950 . S
C770 C779 1.390 . S
C771 C770 1.387 . S
C771 C773 1.387 . S
H772 C779 0.950 . S
C773 C771 1.387 . S
C773 C775 1.390 . S
C773 H777 0.950 . S
H774 C770 0.950 . S
C775 C773 1.390 . S
C775 C776 1.387 . S
C775 H778 0.950 . S
C776 C775 1.387 . S
C776 C779 1.387 . S
H777 C773 0.950 . S
H778 C775 0.950 . S
C779 C770 1.390 . S
C779 H772 0.950 . S
C779 C776 1.387 . S
C780 C781 1.387 . S
C780 H784 0.950 . S
C780 C789 1.390 . S
C781 C780 1.387 . S
C781 C783 1.387 . S
H782 C789 0.950 . S
C783 C781 1.387 . S
C783 C785 1.390 . S
C783 H787 0.950 . S
H784 C780 0.950 . S
C785 C783 1.390 . S
C785 C786 1.387 . S
C785 H788 0.950 . S
C786 C785 1.387 . S
C786 C789 1.387 . S
H787 C783 0.950 . S
H788 C785 0.950 . S
C789 C780 1.390 . S
C789 H782 0.950 . S
C789 C786 1.387 . S
C790 C791 1.387 . S
C790 H794 0.950 . S
C790 C799 1.390 . S
C791 C790 1.387 . S
C791 C793 1.387 . S
H792 C799 0.950 . S
C793 C791 1.387 . S
C793 C795 1.390 . S
C793 H797 0.950 . S
H794 C790 0.950 . S
C795 C793 1.390 . S
C795 C796 1.387 . S
C795 H798 0.950 . S
C796 C795 1.387 . S
C796 C799 1.387 . S
H797 C793 0.950 . S
H798 C795 0.950 . S
C799 C790 1.390 . S
C799 H792 0.950 . S
C799 C796 1.387 . S
C800 C801 1.387 1_556 S
C800 H804 0.950 . S
C800 C809 1.390 1_655 S
C801 C800 1.387 1_554 S
C801 C803 1.387 . S
H802 C809 0.950 . S
C803 C801 1.387 . S
C803 C805 1.390 1_655 S
C803 H807 0.950 . S
H804 C800 0.950 . S
C805 C803 1.390 1_455 S
C805 C806 1.387 . S
C805 H808 0.950 . S
C806 C805 1.387 . S
C806 C809 1.387 1_554 S
H807 C803 0.950 . S
H808 C805 0.950 . S
C809 C800 1.390 1_455 S
C809 H802 0.950 . S
C809 C806 1.387 1_556 S
C810 C811 1.387 . S
C810 H814 0.950 . S
C810 C819 1.390 . S
C811 C810 1.387 . S
C811 C813 1.387 . S
H812 C819 0.950 . S
C813 C811 1.387 . S
C813 C815 1.390 . S
C813 H817 0.950 . S
H814 C810 0.950 . S
C815 C813 1.390 . S
C815 C816 1.387 . S
C815 H818 0.950 . S
C816 C815 1.387 . S
C816 C819 1.387 . S
H817 C813 0.950 . S
H818 C815 0.950 . S
C819 C810 1.390 . S
C819 H812 0.950 . S
C819 C816 1.387 . S
C820 C821 1.382 1_565 S
C820 H824 0.953 . S
C820 C829 1.392 . S
C821 C820 1.382 1_545 S
C821 C823 1.387 . S
H822 C829 0.950 . S
C823 C821 1.387 . S
C823 C825 1.390 . S
C823 H827 0.950 . S
H824 C820 0.953 . S
C825 C823 1.390 . S
C825 C826 1.387 . S
C825 H828 0.950 . S
C826 C825 1.387 . S
C826 C829 1.387 1_545 S
H827 C823 0.950 . S
H828 C825 0.950 . S
C829 C820 1.392 . S
C829 H822 0.950 . S
C829 C826 1.387 1_565 S
C830 C831 1.387 . S
C830 H834 0.950 . S
C830 C839 1.390 . S
C831 C830 1.387 . S
C831 C833 1.387 . S
H832 C839 0.950 . S
C833 C831 1.387 . S
C833 C835 1.390 . S
C833 H837 0.950 . S
H834 C830 0.950 . S
C835 C833 1.390 . S
C835 C836 1.387 . S
C835 H838 0.950 . S
C836 C835 1.387 . S
C836 C839 1.387 . S
H837 C833 0.950 . S
H838 C835 0.950 . S
C839 C830 1.390 . S
C839 H832 0.950 . S
C839 C836 1.387 . S
C840 C841 1.387 . S
C840 H844 0.950 . S
C840 C849 1.390 . S
C841 C840 1.387 . S
C841 C843 1.387 . S
H842 C849 0.950 . S
C843 C841 1.387 . S
C843 C845 1.390 . S
C843 H847 0.950 . S
H844 C840 0.950 . S
C845 C843 1.390 . S
C845 C846 1.387 . S
C845 H848 0.950 . S
C846 C845 1.387 . S
C846 C849 1.387 . S
H847 C843 0.950 . S
H848 C845 0.950 . S
C849 C840 1.390 . S
C849 H842 0.950 . S
C849 C846 1.387 . S
C850 C851 1.387 . S
C850 H854 0.950 . S
C850 C859 1.390 . S
C851 C850 1.387 . S
C851 C853 1.387 . S
H852 C859 0.950 . S
C853 C851 1.387 . S
C853 C855 1.390 . S
C853 H857 0.950 . S
H854 C850 0.950 . S
C855 C853 1.390 . S
C855 C856 1.387 . S
C855 H858 0.950 . S
C856 C855 1.387 . S
C856 C859 1.387 . S
H857 C853 0.950 . S
H858 C855 0.950 . S
C859 C850 1.390 . S
C859 H852 0.950 . S
C859 C856 1.387 . S
C860 C861 1.387 . S
C860 H864 0.950 . S
C860 C869 1.390 . S
C861 C860 1.387 . S
C861 C863 1.387 . S
H862 C869 0.950 . S
C863 C861 1.387 . S
C863 C865 1.390 . S
C863 H867 0.950 . S
H864 C860 0.950 . S
C865 C863 1.390 . S
C865 C866 1.387 . S
C865 H868 0.950 . S
C866 C865 1.387 . S
C866 C869 1.387 . S
H867 C863 0.950 . S
H868 C865 0.950 . S
C869 C860 1.390 . S
C869 H862 0.950 . S
C869 C866 1.387 . S
C870 C871 1.387 1_556 S
C870 H874 0.950 . S
C870 C879 1.390 1_655 S
C871 C870 1.387 1_554 S
C871 C873 1.387 . S
H872 C879 0.950 . S
C873 C871 1.387 . S
C873 C875 1.390 1_655 S
C873 H877 0.950 . S
H874 C870 0.950 . S
C875 C873 1.390 1_455 S
C875 C876 1.387 . S
C875 H878 0.950 . S
C876 C875 1.387 . S
C876 C879 1.387 1_554 S
H877 C873 0.950 . S
H878 C875 0.950 . S
C879 C870 1.390 1_455 S
C879 H872 0.950 . S
C879 C876 1.387 1_556 S
C641 C21 1.485 . S
C646 C141 1.493 . S
C651 C61 1.490 . S
C656 C15 1.502 . S
C661 C55 1.503 . S
C666 C82 1.496 . S
C671 C135 1.504 . S
C676 C95 1.504 . S
C681 C301 1.489 . S
C686 C162 1.494 . S
C691 C175 1.503 . S
C696 C221 1.490 . S
C701 C261 1.499 . S
C706 C215 1.504 . S
C711 C295 1.506 . S
C716 C255 1.507 . S
C721 C461 1.496 . S
C726 C341 1.487 . S
C731 C335 1.503 . S
C736 C381 1.491 . S
C741 C402 1.497 . S
C746 C375 1.503 . S
C751 C415 1.506 . S
C756 C455 1.506 . S
C761 C482 1.495 . S
C766 C621 1.490 . S
C771 C541 1.491 . S
C776 C495 1.503 . S
C781 C535 1.503 . S
C786 C581 1.498 . S
C791 C575 1.508 . S
C796 C615 1.507 . S
C801 C181 1.487 . S
C806 C2 1.486 . S
C811 C522 1.487 . S
C816 C42 1.485 . S
C821 C101 1.508 . S
C826 C242 1.505 . S
C831 C602 1.487 . S
C836 C122 1.505 . S
C841 C362 1.486 . S
C846 C202 1.488 . S
C851 C282 1.487 . S
C856 C442 1.505 . S
C861 C501 1.487 . S
C866 C322 1.486 . S
C871 C421 1.509 . S
C876 C562 1.507 . S
