# Generated by pormake.
# Topology wfa, (4)-cn, num edge types: 1
# Building blocks:
#     Node 0, Type 0, BuildingBlock: ESEHIV_clean_sbu_0, # of connection points: 4
#     Node 1, Type 0, BuildingBlock: ESEHIV_clean_sbu_0, # of connection points: 4
#     Node 2, Type 0, BuildingBlock: ESEHIV_clean_sbu_0, # of connection points: 4
#     Node 3, Type 0, BuildingBlock: ESEHIV_clean_sbu_0, # of connection points: 4
#     Node 4, Type 0, BuildingBlock: ESEHIV_clean_sbu_0, # of connection points: 4
#     Node 5, Type 0, BuildingBlock: ESEHIV_clean_sbu_0, # of connection points: 4
#     Node 6, Type 0, BuildingBlock: ESEHIV_clean_sbu_0, # of connection points: 4
#     Node 7, Type 0, BuildingBlock: ESEHIV_clean_sbu_0, # of connection points: 4
#     Node 8, Type 0, BuildingBlock: ESEHIV_clean_sbu_0, # of connection points: 4
#     Node 9, Type 0, BuildingBlock: ESEHIV_clean_sbu_0, # of connection points: 4
#     Node 10, Type 0, BuildingBlock: ESEHIV_clean_sbu_0, # of connection points: 4
#     Node 11, Type 0, BuildingBlock: ESEHIV_clean_sbu_0, # of connection points: 4
#     Node 12, Type 0, BuildingBlock: ESEHIV_clean_sbu_0, # of connection points: 4
#     Node 13, Type 0, BuildingBlock: ESEHIV_clean_sbu_0, # of connection points: 4
#     Node 14, Type 0, BuildingBlock: ESEHIV_clean_sbu_0, # of connection points: 4
#     Node 15, Type 0, BuildingBlock: ESEHIV_clean_sbu_0, # of connection points: 4
#     Edge 16, Type (0, 0), BuildingBlock: OJICUG_clean_linker_0, # of connection points: 2
#     Edge 17, Type (0, 0), BuildingBlock: OJICUG_clean_linker_0, # of connection points: 2
#     Edge 18, Type (0, 0), BuildingBlock: OJICUG_clean_linker_0, # of connection points: 2
#     Edge 19, Type (0, 0), BuildingBlock: OJICUG_clean_linker_0, # of connection points: 2
#     Edge 20, Type (0, 0), BuildingBlock: OJICUG_clean_linker_0, # of connection points: 2
#     Edge 21, Type (0, 0), BuildingBlock: OJICUG_clean_linker_0, # of connection points: 2
#     Edge 22, Type (0, 0), BuildingBlock: OJICUG_clean_linker_0, # of connection points: 2
#     Edge 23, Type (0, 0), BuildingBlock: OJICUG_clean_linker_0, # of connection points: 2
#     Edge 24, Type (0, 0), BuildingBlock: OJICUG_clean_linker_0, # of connection points: 2
#     Edge 25, Type (0, 0), BuildingBlock: OJICUG_clean_linker_0, # of connection points: 2
#     Edge 26, Type (0, 0), BuildingBlock: OJICUG_clean_linker_0, # of connection points: 2
#     Edge 27, Type (0, 0), BuildingBlock: OJICUG_clean_linker_0, # of connection points: 2
#     Edge 28, Type (0, 0), BuildingBlock: OJICUG_clean_linker_0, # of connection points: 2
#     Edge 29, Type (0, 0), BuildingBlock: OJICUG_clean_linker_0, # of connection points: 2
#     Edge 30, Type (0, 0), BuildingBlock: OJICUG_clean_linker_0, # of connection points: 2
#     Edge 31, Type (0, 0), BuildingBlock: OJICUG_clean_linker_0, # of connection points: 2
#     Edge 32, Type (0, 0), BuildingBlock: OJICUG_clean_linker_0, # of connection points: 2
#     Edge 33, Type (0, 0), BuildingBlock: OJICUG_clean_linker_0, # of connection points: 2
#     Edge 34, Type (0, 0), BuildingBlock: OJICUG_clean_linker_0, # of connection points: 2
#     Edge 35, Type (0, 0), BuildingBlock: OJICUG_clean_linker_0, # of connection points: 2
#     Edge 36, Type (0, 0), BuildingBlock: OJICUG_clean_linker_0, # of connection points: 2
#     Edge 37, Type (0, 0), BuildingBlock: OJICUG_clean_linker_0, # of connection points: 2
#     Edge 38, Type (0, 0), BuildingBlock: OJICUG_clean_linker_0, # of connection points: 2
#     Edge 39, Type (0, 0), BuildingBlock: OJICUG_clean_linker_0, # of connection points: 2
#     Edge 40, Type (0, 0), BuildingBlock: OJICUG_clean_linker_0, # of connection points: 2
#     Edge 41, Type (0, 0), BuildingBlock: OJICUG_clean_linker_0, # of connection points: 2
#     Edge 42, Type (0, 0), BuildingBlock: OJICUG_clean_linker_0, # of connection points: 2
#     Edge 43, Type (0, 0), BuildingBlock: OJICUG_clean_linker_0, # of connection points: 2
#     Edge 44, Type (0, 0), BuildingBlock: OJICUG_clean_linker_0, # of connection points: 2
#     Edge 45, Type (0, 0), BuildingBlock: OJICUG_clean_linker_0, # of connection points: 2
#     Edge 46, Type (0, 0), BuildingBlock: OJICUG_clean_linker_0, # of connection points: 2
#     Edge 47, Type (0, 0), BuildingBlock: OJICUG_clean_linker_0, # of connection points: 2
# Relax obj value: 0.164
# Max RMSD: 0.166
# Mean RMSD: 0.153
data_MOF--net-wfa--node1-ESEHIV_clean_sbu_0--edge1-OJICUG_clean_linker_0
_symmetry_space_group_name_H-M    P1
_symmetry_Int_Tables_number       1
_symmetry_cell_setting            triclinic
loop_
_symmetry_equiv_pos_as_xyz
'x, y, z'
_cell_length_a     38.948868
_cell_length_b     38.929706
_cell_length_c     17.254689
_cell_angle_alpha  86.995206
_cell_angle_beta   87.153239
_cell_angle_gamma 88.305181
loop_
_atom_site_label
_atom_site_type_symbol
_atom_site_fract_x
_atom_site_fract_y
_atom_site_fract_z
_atom_type_partial_charge
Cu0 Cu 0.66579 1.00499 0.02782 0.0
N1 N 0.66192 0.97489 0.11548 0.0
N2 N 0.65729 0.99192 0.23788 0.0
C3 C 0.64142 0.98912 0.17089 0.0
C4 C 0.6873 0.97424 0.22803 0.0
C5 C 0.68992 0.9634 0.1529 0.0
O6 O 0.61841 0.02268 1.01161 0.0
C7 C 0.72942 0.0302 0.06496 0.0
O8 O 0.7404 1.00315 0.02778 0.0
H9 H 0.61921 1.00507 0.1565 0.0
H10 H 0.71363 0.95485 0.12383 0.0
N11 N 0.68648 0.98626 0.93751 0.0
N12 N 0.72446 0.98325 0.83551 0.0
C13 C 0.70707 1.00394 0.88537 0.0
C14 C 0.6901 0.95321 0.91849 0.0
C15 C 0.7134 0.9513 0.85536 0.0
C16 C 0.59462 1.00093 1.007 0.0
O17 O 0.60349 0.96818 1.00379 0.0
H18 H 0.71126 0.03121 0.88804 0.0
H19 H 0.67853 0.93176 0.95142 0.0
O20 O 0.6973 0.03828 0.06669 0.0
H21 H 0.7084 0.97469 0.26652 0.0
H22 H 0.72344 0.92794 0.83018 0.0
Cu23 Cu 0.53016 0.66129 0.05967 0.0
N24 N 0.5594 0.63787 0.13221 0.0
N25 N 0.55322 0.59317 0.22076 0.0
C26 C 0.55628 0.6034 0.14494 0.0
C27 C 0.55874 0.62184 0.25821 0.0
C28 C 0.56303 0.64895 0.20413 0.0
O29 O 0.50531 0.62173 0.02317 0.0
C30 C 0.52075 0.72042 0.14305 0.0
O31 O 0.55252 0.72354 0.11479 0.0
H32 H 0.54977 0.58677 0.10113 0.0
H33 H 0.56237 0.67555 0.21864 0.0
N34 N 0.55102 0.68722 0.97359 0.0
N35 N 0.55755 0.72629 0.8721 0.0
C36 C 0.53548 0.7117 0.92711 0.0
C37 C 0.58409 0.68644 0.94738 0.0
C38 C 0.58815 0.71019 0.88535 0.0
C39 C 0.52114 0.60169 0.97562 0.0
O40 O 0.54763 0.61385 0.93392 0.0
H41 H 0.5084 0.71855 0.93357 0.0
H42 H 0.60398 0.66994 0.97214 0.0
O43 O 0.5036 0.69497 0.12302 0.0
H44 H 0.55431 0.62428 0.32015 0.0
H45 H 0.61219 0.71552 0.8535 0.0
Cu46 Cu 0.88146 0.49017 0.04091 0.0
N47 N 0.90115 0.44744 0.0732 0.0
N48 N 0.94686 0.41525 0.10972 0.0
C49 C 0.92859 0.44494 0.1178 0.0
C50 C 0.92917 0.3973 0.06092 0.0
C51 C 0.90109 0.41728 0.03823 0.0
O52 O 0.92436 0.51559 1.0103 0.0
C53 C 0.82841 0.5318 0.12527 0.0
O54 O 0.82908 0.5523 0.06229 0.0
H55 H 0.93621 0.46545 0.15221 0.0
H56 H 0.88375 0.4113 0.99413 0.0
N57 N 0.85769 0.48386 0.94902 0.0
N58 N 0.81929 0.48319 0.85545 0.0
C59 C 0.82573 0.49379 0.92709 0.0
C60 C 0.87175 0.46705 0.88846 0.0
C61 C 0.84829 0.46633 0.8315 0.0
C62 C 0.94703 0.52502 0.05569 0.0
O63 O 0.93824 0.52802 0.12957 0.0
H64 H 0.80754 0.5084 0.96256 0.0
H65 H 0.89767 0.45626 0.8856 0.0
O66 O 0.84956 0.50596 0.12804 0.0
H67 H 0.93733 0.37277 0.0385 0.0
H68 H 0.8527 0.45532 0.77542 0.0
Cu69 Cu 0.04777 0.87372 0.98172 0.0
N70 N 0.0894 0.87018 0.03044 0.0
N71 N 0.12462 0.87322 0.12752 0.0
C72 C 0.09791 0.88813 0.09064 0.0
C73 C 0.13435 0.84563 0.08695 0.0
C74 C 0.1124 0.84373 0.0271 0.0
O75 O 0.03473 0.92363 0.96857 0.0
C76 C 1.01663 0.84213 0.11997 0.0
O77 O 0.03262 0.86618 0.15306 0.0
H78 H 0.08285 0.90985 0.11142 0.0
H79 H 0.11133 0.82286 0.98838 0.0
N80 N 0.05687 0.85497 0.88429 0.0
N81 N 0.05873 0.81896 0.7867 0.0
C82 C 0.04167 0.82859 0.85283 0.0
C83 C 0.0843 0.86222 0.8363 0.0
C84 C 0.08553 0.84014 0.77624 0.0
C85 C 0.02435 0.94347 0.02243 0.0
O86 O 1.0178 0.93002 0.0927 0.0
H87 H 1.01928 0.81597 0.87922 0.0
H88 H 0.10277 0.88161 0.84574 0.0
O89 O 1.01663 0.84296 0.04577 0.0
H90 H 0.15368 0.82648 0.10373 0.0
H91 H 0.10455 0.83981 0.72834 0.0
Cu92 Cu 0.16464 0.99278 0.55257 0.0
N93 N 0.16825 0.9496 0.51113 0.0
N94 N 0.1631 0.90976 0.42458 0.0
C95 C 0.14865 0.9378 0.45707 0.0
C96 C 0.19247 0.90303 0.46152 0.0
C97 C 0.19553 0.92767 0.51506 0.0
O98 O 0.11496 1.00659 0.56212 0.0
C99 C 0.19781 1.01904 0.41174 0.0
O100 O 0.17546 0.99993 0.38095 0.0
H101 H 0.12627 0.95171 0.43595 0.0
H102 H 0.2174 0.93099 0.54996 0.0
N103 N 0.18232 0.98615 0.65162 0.0
N104 N 0.21826 0.98411 0.74938 0.0
C105 C 0.21065 0.99928 0.67959 0.0
C106 C 0.17174 0.96201 0.70554 0.0
C107 C 0.19376 0.96071 0.7658 0.0
C108 C 0.09555 1.01462 0.50583 0.0
O109 O 0.10942 1.01767 0.43501 0.0
H110 H 0.22604 1.01865 0.64825 0.0
H111 H 0.15007 0.9457 0.70011 0.0
O112 O 0.19561 0.02235 0.48521 0.0
H113 H 0.21142 0.88314 0.44749 0.0
H114 H 0.19181 0.94396 0.81783 0.0
Cu115 Cu 0.55244 0.16594 0.48642 0.0
N116 N 0.59778 0.15089 0.46483 0.0
N117 N 0.63352 0.11011 0.41744 0.0
C118 C 0.60691 0.13223 0.40327 0.0
C119 C 0.64253 0.11614 0.48981 0.0
C120 C 0.62051 0.1413 0.51881 0.0
O121 O 0.52961 0.12059 0.50263 0.0
C122 C 0.51398 0.22209 0.40558 0.0
O123 O 0.49555 0.22326 0.4713 0.0
H124 H 0.59148 0.13161 0.35304 0.0
H125 H 0.6186 0.14875 0.57837 0.0
N126 N 0.55087 0.18552 0.58505 0.0
N127 N 0.54817 0.21824 0.68938 0.0
C128 C 0.54825 0.21805 0.61044 0.0
C129 C 0.55285 0.16502 0.64989 0.0
C130 C 0.55135 0.1848 0.71344 0.0
C131 C 0.52852 0.09703 0.4536 0.0
O132 O 0.53441 0.10518 0.37945 0.0
H133 H 0.54567 0.24088 0.57241 0.0
H134 H 0.55533 0.13726 0.65065 0.0
O135 O 0.53787 0.19887 0.39986 0.0
H136 H 0.66162 0.10141 0.52195 0.0
H137 H 0.55248 0.1751 0.77323 0.0
Cu138 Cu 0.38518 0.51691 0.45874 0.0
N139 N 0.40565 0.48617 0.38634 0.0
N140 N 0.45193 0.4924 0.30238 0.0
C141 C 0.4404 0.48562 0.37661 0.0
C142 C 0.4233 0.49218 0.26177 0.0
C143 C 0.39521 0.48772 0.31284 0.0
O144 O 0.42691 0.54053 0.48925 0.0
C145 C 0.32293 0.5287 0.38681 0.0
O146 O 0.31817 0.49837 0.42204 0.0
H147 H 0.45699 0.48694 0.42386 0.0
H148 H 0.36899 0.49284 0.29728 0.0
N149 N 0.36036 0.49743 0.54843 0.0
N150 N 0.32229 0.49179 0.65191 0.0
C151 C 0.33597 0.51329 0.59443 0.0
C152 C 0.36197 0.46476 0.57765 0.0
C153 C 0.33887 0.46126 0.64089 0.0
C154 C 0.44704 0.52464 0.5368 0.0
O155 O 0.43439 0.49922 0.58141 0.0
H156 H 0.32842 0.54013 0.58569 0.0
H157 H 0.37858 0.44472 0.55404 0.0
O158 O 0.3511 0.54386 0.39636 0.0
H159 H 0.42194 0.50113 0.20147 0.0
H160 H 0.33425 0.43761 0.67507 0.0
Cu161 Cu 0.03815 0.37357 0.4905 0.0
N162 N 0.07022 0.3786 0.40702 0.0
N163 N 0.06504 0.38565 0.27825 0.0
C164 C 0.05867 0.39904 0.34812 0.0
C165 C 0.08372 0.35653 0.29312 0.0
C166 C 0.08726 0.35247 0.37244 0.0
O167 O 1.01924 0.42073 0.5049 0.0
C168 C 1.01761 0.30965 0.44603 0.0
O169 O 0.04583 0.30045 0.48105 0.0
H170 H 0.03889 0.4187 0.35766 0.0
H171 H 0.09602 0.32907 0.40269 0.0
N172 N 0.05539 0.35352 0.58343 0.0
N173 N 0.05865 0.31644 0.68728 0.0
C174 C 0.03892 0.32978 0.63021 0.0
C175 C 0.08648 0.35596 0.61324 0.0
C176 C 0.08853 0.33318 0.67748 0.0
C177 C 0.04055 0.44474 0.51177 0.0
O178 O 0.07327 0.43618 0.51711 0.0
H179 H 1.01344 0.32114 0.62003 0.0
H180 H 0.1068 0.37194 0.58797 0.0
O181 O 1.00688 0.34103 0.44776 0.0
H182 H 0.08995 0.33714 0.25153 0.0
H183 H 0.11095 0.3278 0.7112 0.0
Cu184 Cu 0.37801 0.03738 0.02484 0.0
N185 N 0.38506 0.06964 0.94194 0.0
N186 N 0.39143 0.06483 0.81314 0.0
C187 C 0.40421 0.05658 0.88291 0.0
C188 C 0.36418 0.08602 0.82804 0.0
C189 C 0.3607 0.08952 0.90744 0.0
O190 O 0.42466 1.01782 0.04186 0.0
C191 C 0.31637 1.02052 0.96626 0.0
O192 O 0.3077 0.04957 0.99822 0.0
H193 H 0.42198 0.03498 0.89207 0.0
H194 H 0.33852 0.10078 0.93771 0.0
N195 N 0.35614 0.05408 0.11621 0.0
N196 N 0.31705 0.05696 0.21622 0.0
C197 C 0.33014 0.0383 0.15719 0.0
C198 C 0.36014 0.08364 0.15154 0.0
C199 C 0.33615 0.08542 0.21346 0.0
C200 C 0.44873 0.03907 0.04833 0.0
O201 O 0.44025 0.07181 0.05375 0.0
H202 H 0.32034 1.01386 0.14244 0.0
H203 H 0.37845 0.10302 0.13227 0.0
O204 O 0.3461 1.00695 0.97807 0.0
H205 H 0.34546 0.09443 0.78624 0.0
H206 H 0.33208 0.10667 0.25117 0.0
Cu207 Cu 0.51121 0.39093 0.96766 0.0
N208 N 0.48032 0.41212 0.89626 0.0
N209 N 0.48521 0.45461 0.80208 0.0
C210 C 0.48293 0.44636 0.87898 0.0
C211 C 0.47957 0.42483 0.76895 0.0
C212 C 0.47611 0.39903 0.82658 0.0
O213 O 0.53603 0.43188 0.99713 0.0
C214 C 0.51997 0.3286 0.89717 0.0
O215 O 0.48967 0.32561 0.93346 0.0
H216 H 0.48979 0.46422 0.92005 0.0
H217 H 0.47721 0.37193 0.81604 0.0
N218 N 0.49209 0.36663 0.05836 0.0
N219 N 0.48691 0.32846 0.16191 0.0
C220 C 0.50811 0.3421 0.10393 0.0
C221 C 0.45962 0.3684 0.08837 0.0
C222 C 0.45639 0.34523 0.1517 0.0
C223 C 0.5205 0.45241 0.04406 0.0
O224 O 0.49481 0.44037 0.0886 0.0
H225 H 0.53483 0.33435 0.09435 0.0
H226 H 0.4395 0.38507 0.06511 0.0
O227 O 0.53658 0.35606 0.90504 0.0
H228 H 0.48324 0.42085 0.7074 0.0
H229 H 0.43292 0.34066 0.18641 0.0
Cu230 Cu 0.16048 0.55785 0.97612 0.0
N231 N 0.14171 0.60067 0.94225 0.0
N232 N 0.09691 0.63128 0.89569 0.0
C233 C 0.1179 0.60333 0.88819 0.0
C234 C 0.10908 0.64808 0.95447 0.0
C235 C 0.1366 0.62903 0.98342 0.0
O236 O 0.11685 0.53297 1.00304 0.0
C237 C 0.21658 0.51797 0.89687 0.0
O238 O 0.21805 0.49963 0.96279 0.0
H239 H 0.11404 0.5835 0.84836 0.0
H240 H 0.14926 0.63365 0.03608 0.0
N241 N 0.18167 0.56333 0.07167 0.0
N242 N 0.21537 0.563 0.17448 0.0
C243 C 0.21381 0.557 0.09767 0.0
C244 C 0.16289 0.57378 0.13402 0.0
C245 C 0.1833 0.57372 0.19661 0.0
C246 C 0.09402 0.52473 0.95676 0.0
O247 O 0.1027 0.52276 0.88257 0.0
H248 H 0.23516 0.54702 0.06229 0.0
H249 H 0.13571 0.58037 0.13415 0.0
O250 O 0.19333 0.54184 0.89106 0.0
H251 H 0.09685 0.67046 0.97981 0.0
H252 H 0.17492 0.58049 0.25474 0.0
Cu253 Cu 0.99568 0.16338 0.02344 0.0
N254 N 0.95256 0.16851 0.98147 0.0
N255 N 0.91524 0.16817 0.88776 0.0
C256 C 0.9427 0.15234 0.91979 0.0
C257 C 0.90642 0.19454 0.93288 0.0
C258 C 0.92969 0.19478 0.99073 0.0
O259 O 1.00857 0.11323 0.02759 0.0
C260 C 0.02417 0.19681 0.88547 0.0
O261 O 1.00807 0.17258 0.85333 0.0
H262 H 0.95732 0.13137 0.89427 0.0
H263 H 0.93171 0.21453 0.03197 0.0
N264 N 0.99031 0.17727 0.12631 0.0
N265 N 0.9869 0.20702 0.23462 0.0
C266 C 0.99451 0.20814 0.15691 0.0
C267 C 0.97936 0.15633 0.18632 0.0
C268 C 0.97736 0.17441 0.25281 0.0
C269 C 1.01738 0.09369 0.97206 0.0
O270 O 0.02233 0.10736 0.90145 0.0
H271 H 1.00357 0.23065 0.12339 0.0
H272 H 0.9732 0.12962 0.1818 0.0
O273 O 0.02535 0.19564 0.95951 0.0
H274 H 0.88679 0.21406 0.92051 0.0
H275 H 0.96948 0.16427 0.31036 0.0
Cu276 Cu 0.87635 0.04197 0.49102 0.0
N277 N 0.86987 0.0876 0.51704 0.0
N278 N 0.87345 0.13117 0.59505 0.0
C279 C 0.88973 0.10357 0.56453 0.0
C280 C 0.84245 0.13333 0.56326 0.0
C281 C 0.84033 0.1064 0.51504 0.0
O282 O 0.92643 0.03014 0.49208 0.0
C283 C 0.84154 0.02308 0.6348 0.0
O284 O 0.86178 0.04598 0.66001 0.0
H285 H 0.91364 0.0924 0.58467 0.0
H286 H 0.81757 0.099 0.4874 0.0
N287 N 0.86272 0.03879 0.38879 0.0
N288 N 0.83343 0.04288 0.27952 0.0
C289 C 0.83217 0.04684 0.35732 0.0
C290 C 0.88381 0.0293 0.32932 0.0
C291 C 0.86597 0.03162 0.26239 0.0
C292 C 0.94542 0.02551 0.55039 0.0
O293 O 0.93111 0.02566 0.62088 0.0
H294 H 0.8097 0.05574 0.39064 0.0
H295 H 0.91048 1.02132 0.33436 0.0
O296 O 0.8456 1.01491 0.56405 0.0
H297 H 0.82174 0.1512 0.57886 0.0
H298 H 0.87627 0.02482 0.20571 0.0
Cu299 Cu 0.4892 0.88577 0.5447 0.0
N300 N 0.4475 0.90608 0.58156 0.0
N301 N 0.41631 0.95031 0.6289 0.0
C302 C 0.4463 0.9321 0.63009 0.0
C303 C 0.39695 0.93408 0.58025 0.0
C304 C 0.41629 0.90688 0.5509 0.0
O305 O 0.5151 0.92799 0.51115 0.0
C306 C 0.53178 0.83278 0.62786 0.0
O307 O 0.55215 0.8335 0.56482 0.0
H308 H 0.46768 0.93861 0.66318 0.0
H309 H 0.40886 0.89059 0.50613 0.0
N310 N 0.48093 0.86175 0.4543 0.0
N311 N 0.48026 0.82345 0.36071 0.0
C312 C 0.49215 0.83043 0.43084 0.0
C313 C 0.46192 0.87491 0.39617 0.0
C314 C 0.46119 0.85146 0.33924 0.0
C315 C 0.52537 0.9505 0.55577 0.0
O316 O 0.5288 0.94174 0.62959 0.0
H317 H 0.50879 0.81316 0.46397 0.0
H318 H 0.44991 0.90032 0.39448 0.0
O319 O 0.50588 0.85381 0.63074 0.0
H320 H 0.37164 0.94263 0.56289 0.0
H321 H 0.44876 0.85535 0.2846 0.0
Cu322 Cu 0.65603 0.53123 0.55534 0.0
N323 N 0.63289 0.56069 0.62778 0.0
N324 N 0.58522 0.55492 0.70791 0.0
C325 C 0.59808 0.56031 0.63423 0.0
C326 C 0.61284 0.55657 0.75122 0.0
C327 C 0.64175 0.56062 0.70249 0.0
O328 O 0.61595 0.50692 0.51849 0.0
C329 C 0.71458 0.52208 0.64035 0.0
O330 O 0.71672 0.5543 0.61419 0.0
H331 H 0.5825 0.55762 0.58585 0.0
H332 H 0.66756 0.55684 0.72162 0.0
N333 N 0.68232 0.55177 0.4693 0.0
N334 N 0.72172 0.55794 0.36845 0.0
C335 C 0.70685 0.53602 0.42349 0.0
C336 C 0.68184 0.58483 0.44264 0.0
C337 C 0.70577 0.58867 0.38104 0.0
C338 C 0.59644 0.52276 0.46951 0.0
O339 O 0.6093 0.54878 0.42723 0.0
H340 H 0.71353 0.50889 0.43045 0.0
H341 H 0.66542 0.60488 0.46681 0.0
O342 O 0.68971 0.50451 0.61885 0.0
H343 H 0.61312 0.54904 0.8125 0.0
H344 H 0.71131 0.61266 0.34902 0.0
Cu345 Cu 1.00291 0.66169 0.50696 0.0
N346 N 0.97125 0.65472 0.59082 0.0
N347 N 0.97893 0.65027 0.71888 0.0
C348 C 0.98554 0.63638 0.64971 0.0
C349 C 0.95724 0.67718 0.70413 0.0
C350 C 0.95197 0.67946 0.62531 0.0
O351 O 0.02233 0.615 0.48927 0.0
C352 C 1.01985 0.7236 0.56489 0.0
O353 O 0.99089 0.73229 0.53238 0.0
H354 H 1.007 0.61859 0.63963 0.0
H355 H 0.94004 0.70121 0.5946 0.0
N356 N 0.98545 0.68325 0.41582 0.0
N357 N 0.98156 0.72184 0.3149 0.0
C358 C 1.00042 0.70967 0.37456 0.0
C359 C 0.95625 0.67802 0.37993 0.0
C360 C 0.95385 0.70173 0.31744 0.0
C361 C 1.00108 0.5909 0.48284 0.0
O362 O 0.96825 0.59928 0.47932 0.0
H363 H 0.02442 0.7204 0.38935 0.0
H364 H 0.93758 0.65898 0.39901 0.0
O365 O 0.03348 0.69388 0.55298 0.0
H366 H 0.94964 0.6965 0.74499 0.0
H367 H 0.93268 0.70491 0.27912 0.0
C368 C 0.65198 0.04857 0.40873 0.0
C369 C 0.643 0.08073 0.37259 0.0
H370 H 0.66332 0.99468 0.39362 0.0
C371 C 0.64023 0.08312 0.29187 0.0
H372 H 0.65402 0.04579 0.47106 0.0
C373 C 0.64495 0.05407 0.24849 0.0
C374 C 0.65254 1.02159 0.2845 0.0
H375 H 0.63399 0.10755 0.26225 0.0
H376 H 0.64291 0.0572 0.18618 0.0
C377 C 0.6569 1.01925 0.36484 0.0
C378 C 0.47215 0.55162 0.29779 0.0
C379 C 0.47878 0.51677 0.28395 0.0
H380 H 0.4909 0.60285 0.29049 0.0
C381 C 0.51138 0.50682 0.25281 0.0
H382 H 0.4472 0.55986 0.32168 0.0
C383 C 0.53657 0.53168 0.23417 0.0
C384 C 0.52978 0.5666 0.24863 0.0
H385 H 0.51698 0.48011 0.24127 0.0
H386 H 0.56108 0.52386 0.20737 0.0
C387 C 0.49727 0.57611 0.2808 0.0
C388 C 0.99214 0.37296 0.15182 0.0
C389 C 0.98051 0.40723 0.13884 0.0
H390 H 0.02977 0.33901 0.20408 0.0
C391 C 1.0019 0.43383 0.15759 0.0
H392 H 0.97661 0.35187 0.13712 0.0
C393 C 0.03214 0.42645 0.19595 0.0
C394 C 0.04197 0.39233 0.2161 0.0
H395 H 0.99468 0.46053 0.1455 0.0
H396 H 0.04662 0.44749 0.21518 0.0
C397 C 0.02276 0.36559 0.18966 0.0
C398 C 0.10936 0.8908 0.25991 0.0
C399 C 0.13439 0.88013 0.20418 0.0
H400 H 0.09883 0.90729 0.37494 0.0
C401 C 0.1687 0.87592 0.22473 0.0
H402 H 0.08252 0.89316 0.24653 0.0
C403 C 0.1781 0.88409 0.29863 0.0
C404 C 0.15319 0.89628 0.35321 0.0
H405 H 0.18833 0.86747 0.18276 0.0
H406 H 0.205 0.8823 0.31161 0.0
C407 C 0.11864 0.89864 0.33364 0.0
C408 C 0.42974 0.03317 0.72372 0.0
C409 C 0.39623 0.04216 0.75004 0.0
H410 H 0.46236 0.99746 0.6635 0.0
C411 C 0.36877 0.02263 0.7282 0.0
H412 H 0.45126 0.04764 0.7405 0.0
C413 C 0.37509 0.99316 0.68568 0.0
C414 C 0.40899 0.98272 0.66441 0.0
H415 H 0.34275 0.02861 0.74916 0.0
H416 H 0.35369 0.97752 0.67346 0.0
C417 C 0.43605 1.00396 0.68109 0.0
C418 C 0.5628 0.49665 0.70693 0.0
C419 C 0.55801 0.53101 0.72701 0.0
H420 H 0.5431 0.44587 0.71271 0.0
C421 C 0.52743 0.54062 0.7679 0.0
H422 H 0.58642 0.48854 0.67656 0.0
C423 C 0.50248 0.51589 0.78965 0.0
C424 C 0.50744 0.4814 0.7693 0.0
H425 H 0.52337 0.56687 0.78479 0.0
H426 H 0.47978 0.52339 0.82413 0.0
C427 C 0.53784 0.47231 0.72709 0.0
C428 C 1.01464 0.61327 0.8033 0.0
C429 C 1.00298 0.64642 0.77973 0.0
H430 H 0.05352 0.58253 0.85841 0.0
C431 C 1.02078 0.67496 0.80236 0.0
H432 H 1.0015 0.59093 0.7862 0.0
C433 C 0.05103 0.67017 0.84309 0.0
C434 C 0.06406 0.63681 0.86115 0.0
H435 H 1.01275 0.70081 0.78372 0.0
H436 H 0.06521 0.69242 0.85661 0.0
C437 C 0.04477 0.60852 0.84336 0.0
C438 C 0.86917 0.16379 0.79591 0.0
C439 C 0.90421 0.16329 0.8111 0.0
H440 H 0.83158 0.15368 0.71417 0.0
C441 C 0.92872 0.15695 0.75076 0.0
H442 H 0.84994 0.16893 0.84164 0.0
C443 C 0.91844 0.14899 0.6779 0.0
C444 C 0.88342 0.14681 0.66393 0.0
H445 H 0.95593 0.15745 0.76043 0.0
H446 H 0.93792 0.1431 0.63324 0.0
C447 C 0.85879 0.1554 0.72285 0.0
C448 C 0.77622 1.0176 0.80543 0.0
C449 C 0.7538 0.99242 0.78453 0.0
H450 H 0.82122 0.0463 0.77612 0.0
C451 C 0.76113 0.97607 0.71441 0.0
H452 H 0.77189 0.03019 0.85967 0.0
C453 C 0.78975 0.98547 0.66546 0.0
C454 C 0.81198 1.01093 0.68652 0.0
H455 H 0.74437 0.95648 0.6969 0.0
H456 H 0.79436 0.97296 0.61118 0.0
C457 C 0.80487 0.02657 0.75755 0.0
C458 C 0.56711 0.78349 0.68751 0.0
C459 C 0.53826 0.80612 0.69275 0.0
H460 H 0.59549 0.74078 0.73773 0.0
C461 C 0.51559 0.80184 0.75876 0.0
H462 H 0.58516 0.78552 0.63779 0.0
C463 C 0.52163 0.77576 0.8172 0.0
C464 C 0.55063 0.75316 0.81176 0.0
H465 H 0.493 0.81853 0.76516 0.0
H466 H 0.50369 0.7736 0.867 0.0
C467 C 0.57317 0.75763 0.74564 0.0
C468 C 0.77339 0.52354 0.80933 0.0
C469 C 0.78974 0.49095 0.80894 0.0
H470 H 0.7372 0.5587 0.75606 0.0
C471 C 0.77881 0.4672 0.75671 0.0
H472 H 0.7813 0.54247 0.84813 0.0
C473 C 0.75293 0.47626 0.70451 0.0
C474 C 0.7381 0.50958 0.7021 0.0
H475 H 0.79082 0.44179 0.75526 0.0
H476 H 0.7458 0.45783 0.66367 0.0
C477 C 0.74826 0.53283 0.75607 0.0
C478 C 1.01498 0.78677 0.72442 0.0
C479 C 0.04964 0.79272 0.73569 0.0
H480 H 0.9788 0.76055 0.66161 0.0
C481 C 0.07508 0.77387 0.69339 0.0
H482 H 0.99484 0.80086 0.75572 0.0
C483 C 0.06589 0.75015 0.63967 0.0
C484 C 0.03114 0.74563 0.62599 0.0
H485 H 0.10205 0.77766 0.70156 0.0
H486 H 0.08585 0.73637 0.60704 0.0
C487 C 1.00588 0.76383 0.66987 0.0
C488 C 0.26117 0.9664 0.84697 0.0
C489 C 0.24571 0.99206 0.79827 0.0
H490 H 0.29664 0.95496 0.93755 0.0
C491 C 0.25608 0.0261 0.8014 0.0
H492 H 0.2539 0.93984 0.84518 0.0
C493 C 0.27984 0.03467 0.85468 0.0
C494 C 0.29453 1.00933 0.90501 0.0
H495 H 0.24463 0.04641 0.76505 0.0
H496 H 0.28636 0.06143 0.85739 0.0
C497 C 0.28575 0.97492 0.89934 0.0
C498 C 0.5542 0.28015 0.72002 0.0
C499 C 0.5428 0.24665 0.74052 0.0
H500 H 0.55702 0.33262 0.75436 0.0
C501 C 0.52627 0.24074 0.81419 0.0
H502 H 0.56716 0.28559 0.66397 0.0
C503 C 0.52083 0.26717 0.8653 0.0
C504 C 0.53174 0.30066 0.84526 0.0
H505 H 0.51658 0.21565 0.83205 0.0
H506 H 0.50721 0.26142 0.92055 0.0
C507 C 0.54891 0.30691 0.77222 0.0
C508 C 0.27154 0.5266 0.7043 0.0
C509 C 0.29572 0.49901 0.71249 0.0
H510 H 0.22762 0.55412 0.75431 0.0
C511 C 0.29304 0.47798 0.78153 0.0
H512 H 0.27235 0.54333 0.65218 0.0
C513 C 0.26738 0.48411 0.83982 0.0
C514 C 0.24311 0.51149 0.83184 0.0
H515 H 0.31116 0.45681 0.79147 0.0
H516 H 0.26677 0.46722 0.89175 0.0
C517 C 0.2456 0.53267 0.7629 0.0
C518 C 0.06212 0.28337 0.8147 0.0
C519 C 0.05141 0.28638 0.73774 0.0
H520 H 0.06171 0.25293 0.92287 0.0
C521 C 0.03345 0.25922 0.7099 0.0
H522 H 0.07608 0.30392 0.83761 0.0
C523 C 0.02588 0.23009 0.75754 0.0
C524 C 0.03557 0.2272 0.83527 0.0
H525 H 0.02542 0.26036 0.65061 0.0
H526 H 1.01168 0.21003 0.73331 0.0
C527 C 0.05394 0.2542 0.86337 0.0
C528 C 0.23046 0.0235 0.28306 0.0
C529 C 0.22758 0.03196 0.36156 0.0
H530 H 0.2607 0.02475 0.17617 0.0
C531 C 0.25435 0.05024 0.3909 0.0
H532 H 0.21048 1.00956 0.25782 0.0
C533 C 0.28348 0.05916 0.34306 0.0
C534 C 0.28666 0.04948 0.26537 0.0
H535 H 0.25311 0.05709 0.45103 0.0
H536 H 0.30395 0.07272 0.36736 0.0
C537 C 0.25952 0.03195 0.23601 0.0
C538 C 0.52823 0.25142 0.2716 0.0
C539 C 0.50737 0.24881 0.34085 0.0
H540 H 0.53836 0.27842 0.16085 0.0
C541 C 0.48006 0.27311 0.34945 0.0
H542 H 0.54959 0.2334 0.26253 0.0
C543 C 0.4737 0.29892 0.29148 0.0
C544 C 0.49438 0.30172 0.22212 0.0
H545 H 0.46342 0.2724 0.40165 0.0
H546 H 0.45262 0.31705 0.30193 0.0
C547 C 0.5219 0.27752 0.21326 0.0
C548 C 0.30412 0.5554 0.25727 0.0
C549 C 0.29612 0.54226 0.33353 0.0
H550 H 0.28462 0.5716 0.14555 0.0
C551 C 0.26149 0.53656 0.35564 0.0
H552 H 0.33066 0.55926 0.23788 0.0
C553 C 0.23552 0.5435 0.30355 0.0
C554 C 0.24317 0.55591 0.22674 0.0
H555 H 0.25446 0.52594 0.41337 0.0
H556 H 0.20929 0.53819 0.32309 0.0
C557 C 0.27787 0.56189 0.20408 0.0
C558 C 1.00132 0.22408 0.36462 0.0
C559 C 0.99099 0.23342 0.28933 0.0
H560 H 1.01711 0.24085 0.47301 0.0
C561 C 0.9852 0.26861 0.26921 0.0
H562 H 1.00618 0.19736 0.38216 0.0
C563 C 0.9907 0.29381 0.32276 0.0
C564 C 1.00305 0.28426 0.39628 0.0
H565 H 0.97676 0.2766 0.21203 0.0
H566 H 0.98701 0.32072 0.30539 0.0
C567 C 1.0075 0.24908 0.41695 0.0
C568 C 0.78803 0.04787 0.0919 0.0
C569 C 0.75355 0.04446 0.11782 0.0
H570 H 0.84013 0.0515 0.12202 0.0
C571 C 0.74508 0.04581 0.19775 0.0
H572 H 0.79532 0.04683 0.0306 0.0
C573 C 0.77108 0.0471 0.25123 0.0
C574 C 0.80602 0.04751 0.22549 0.0
H575 H 0.71877 0.04286 0.21944 0.0
H576 H 0.76382 0.04555 0.31261 0.0
C577 C 0.81383 0.04983 0.1448 0.0
C578 C 0.52226 0.78002 0.31028 0.0
C579 C 0.48884 0.7945 0.31305 0.0
H580 H 0.55831 0.74567 0.25414 0.0
C581 C 0.46479 0.78221 0.26318 0.0
H582 H 0.54144 0.789 0.3472 0.0
C583 C 0.47427 0.75677 0.21037 0.0
C584 C 0.50826 0.74376 0.20494 0.0
H585 H 0.43875 0.79275 0.26417 0.0
H586 H 0.45549 0.74848 0.17154 0.0
C587 C 0.53192 0.75534 0.25641 0.0
C588 C 0.75334 0.57338 0.2423 0.0
C589 C 0.74864 0.55083 0.30847 0.0
H590 H 0.78139 0.58533 0.13483 0.0
C591 C 0.77108 0.52168 0.31425 0.0
H592 H 0.73664 0.59581 0.23405 0.0
C593 C 0.79722 0.51553 0.2561 0.0
C594 C 0.80172 0.53824 0.19005 0.0
H595 H 0.76874 0.5037 0.36407 0.0
H596 H 0.81378 0.49284 0.26275 0.0
C597 C 0.77923 0.56722 0.18453 0.0
C598 C 1.01065 0.81016 0.2493 0.0
C599 C 1.00415 0.81198 0.16956 0.0
H600 H 1.00872 0.7804 0.35709 0.0
C601 C 0.98846 0.78387 0.13883 0.0
H602 H 0.02261 0.83114 0.27562 0.0
C603 C 0.98019 0.75449 0.18667 0.0
C604 C 0.98805 0.75244 0.26565 0.0
H605 H 0.98319 0.78428 0.07774 0.0
H606 H 0.96865 0.73298 0.16149 0.0
C607 C 1.00295 0.78084 0.2963 0.0
C608 C 0.51156 0.05343 0.04429 0.0
C609 C 0.48602 0.02868 0.03998 0.0
H610 H 0.56538 0.06448 0.03666 0.0
C611 C 0.49666 0.99497 0.0232 0.0
H612 H 0.50451 0.07976 0.05674 0.0
C613 C 0.53176 0.98629 1.01118 0.0
C614 C 0.55728 1.01107 0.0154 0.0
H615 H 0.47788 0.97529 0.01873 0.0
H616 H 0.53887 0.95997 0.99876 0.0
C617 C 0.54662 0.04477 0.03217 0.0
C618 C 0.49656 0.51276 0.06267 0.0
C619 C 0.5222 0.49085 0.02935 0.0
H620 H 0.47538 0.56411 0.07123 0.0
C621 C 0.54593 0.5057 0.97434 0.0
H622 H 0.47719 0.50243 0.10391 0.0
C623 C 0.54438 0.54124 0.95442 0.0
C624 C 0.51885 0.56318 0.98807 0.0
H625 H 0.56555 0.48983 0.94591 0.0
H626 H 0.56377 0.55161 0.91335 0.0
C627 C 0.49496 0.54826 0.04263 0.0
C628 C 0.99583 0.5179 0.9534 0.0
C629 C 0.98453 0.52628 0.0291 0.0
H630 H 0.03853 0.51025 0.87192 0.0
C631 C 1.00992 0.53301 0.08158 0.0
H632 H 0.97738 0.51215 0.91132 0.0
C633 C 0.04525 0.53154 0.0592 0.0
C634 C 0.05655 0.52323 0.98345 0.0
H635 H 1.00256 0.53919 0.14068 0.0
H636 H 0.0637 0.53732 0.10127 0.0
C637 C 0.03116 0.51642 0.93102 0.0
C638 C 0.02905 0.03388 0.92366 0.0
C639 C 1.01979 0.05525 0.98541 0.0
H640 H 0.03762 0.98237 0.88616 0.0
C641 C 1.01163 0.03932 0.05881 0.0
H642 H 0.03539 0.04502 0.86608 0.0
C643 C 1.0127 1.00327 0.07011 0.0
C644 C 0.022 0.98187 1.00845 0.0
H645 H 1.0042 0.0547 0.10773 0.0
H646 H 1.00633 0.99218 0.12772 0.0
C647 C 0.03019 0.99779 0.93501 0.0
C648 C 0.04097 1.01471 0.59295 0.0
C649 C 0.05718 1.01802 0.51827 0.0
H650 H 0.99346 1.01434 0.6617 0.0
C651 C 0.03612 0.02346 0.4543 0.0
H652 H 0.05615 1.01038 0.64364 0.0
C653 C 1.00009 0.02546 0.46453 0.0
C654 C 0.98385 0.0222 0.53913 0.0
H655 H 0.04744 0.026 0.39575 0.0
H656 H 0.98498 0.02975 0.41372 0.0
C657 C 1.00487 1.01686 0.60322 0.0
C658 C 0.5302 1.01362 0.58236 0.0
C659 C 0.52735 0.98787 0.5285 0.0
H660 H 0.53195 0.0676 0.60218 0.0
C661 C 0.5238 0.99867 0.45004 0.0
H662 H 0.5326 1.00664 0.64347 0.0
C663 C 0.52344 0.03391 0.42628 0.0
C664 C 0.5261 0.05964 0.48028 0.0
H665 H 0.52124 0.97987 0.40674 0.0
H666 H 0.52116 0.04097 0.36517 0.0
C667 C 0.52941 0.04884 0.55879 0.0
C668 C 0.53682 0.54957 0.4551 0.0
C669 C 0.55782 0.5214 0.48101 0.0
H670 H 0.4863 0.57362 0.45458 0.0
C671 C 0.54191 0.49504 0.52705 0.0
H672 H 0.54795 0.57083 0.42062 0.0
C673 C 0.50647 0.49705 0.54763 0.0
C674 C 0.48553 0.52536 0.5223 0.0
H675 H 0.55697 0.47302 0.5483 0.0
H676 H 0.49537 0.47586 0.58246 0.0
C677 C 0.50136 0.55155 0.47555 0.0
C678 C 0.98718 0.52799 0.48181 0.0
C679 C 1.01175 0.55357 0.48786 0.0
H680 H 0.9766 0.47403 0.48503 0.0
C681 C 0.04564 0.54286 0.50285 0.0
H682 H 0.96073 0.53509 0.47057 0.0
C683 C 0.05464 0.50768 0.51164 0.0
C684 C 0.03005 0.48209 0.50577 0.0
H685 H 0.0652 0.56165 0.50851 0.0
H686 H 0.08108 0.50056 0.52296 0.0
C687 C 0.99618 0.49281 0.49058 0.0
loop_
_geom_bond_atom_site_label_1
_geom_bond_atom_site_label_2
_geom_bond_distance
_geom_bond_site_symmetry_2
_ccdc_geom_bond_type
Cu0 N1 1.999 . S
Cu0 O6 1.974 1_554 S
Cu0 N11 1.985 1_544 S
Cu0 O20 1.959 . S
N1 Cu0 1.999 . S
N1 C3 1.263 . S
N1 C5 1.389 . S
N2 C3 1.358 . S
N2 C4 1.400 . S
C3 N1 1.263 . S
C3 N2 1.358 . S
C3 H9 0.930 . S
C4 N2 1.400 . S
C4 C5 1.351 . S
C4 H21 0.930 . S
C5 N1 1.389 . S
C5 C4 1.351 . S
C5 H10 0.930 . S
O6 Cu0 1.974 1_556 S
O6 C16 1.282 1_545 S
C7 O8 1.261 . S
C7 O20 1.251 1_565 S
O8 C7 1.261 . S
H9 C3 0.930 . S
H10 C5 0.930 . S
N11 Cu0 1.985 1_566 S
N11 C13 1.335 . S
N11 C14 1.390 . S
N12 C13 1.345 . S
N12 C15 1.336 . S
C13 N11 1.335 . S
C13 N12 1.345 . S
C13 H18 0.930 1_565 S
C14 N11 1.390 . S
C14 C15 1.346 . S
C14 H19 0.930 . S
C15 N12 1.336 . S
C15 C14 1.346 . S
C15 H22 0.929 . S
C16 O6 1.282 1_565 S
C16 O17 1.216 1_556 S
O17 C16 1.216 1_554 S
H18 C13 0.930 1_545 S
H19 C14 0.930 . S
O20 Cu0 1.959 . S
O20 C7 1.251 1_545 S
H21 C4 0.930 . S
H22 C15 0.929 . S
Cu23 N24 1.999 . S
Cu23 O29 1.974 1_554 S
Cu23 N34 1.985 1_554 S
Cu23 O43 1.959 . S
N24 Cu23 1.999 . S
N24 C26 1.263 . S
N24 C28 1.389 . S
N25 C26 1.358 . S
N25 C27 1.400 . S
C26 N24 1.263 . S
C26 N25 1.358 . S
C26 H32 0.930 . S
C27 N25 1.400 . S
C27 C28 1.351 . S
C27 H44 0.930 . S
C28 N24 1.389 . S
C28 C27 1.351 . S
C28 H33 0.930 . S
O29 Cu23 1.974 1_556 S
O29 C39 1.282 . S
C30 O31 1.261 . S
C30 O43 1.251 . S
O31 C30 1.261 . S
H32 C26 0.930 . S
H33 C28 0.930 . S
N34 Cu23 1.985 1_556 S
N34 C36 1.335 . S
N34 C37 1.390 . S
N35 C36 1.345 . S
N35 C38 1.336 . S
C36 N34 1.335 . S
C36 N35 1.345 . S
C36 H41 0.930 . S
C37 N34 1.390 . S
C37 C38 1.346 . S
C37 H42 0.930 . S
C38 N35 1.336 . S
C38 C37 1.346 . S
C38 H45 0.929 . S
C39 O29 1.282 . S
C39 O40 1.216 1_556 S
O40 C39 1.216 1_554 S
H41 C36 0.930 . S
H42 C37 0.930 . S
O43 Cu23 1.959 . S
O43 C30 1.251 . S
H44 C27 0.930 . S
H45 C38 0.929 . S
Cu46 N47 1.999 . S
Cu46 O52 1.974 1_554 S
Cu46 N57 1.985 1_554 S
Cu46 O66 1.959 . S
N47 Cu46 1.999 . S
N47 C49 1.263 . S
N47 C51 1.389 . S
N48 C49 1.358 . S
N48 C50 1.400 . S
C49 N47 1.263 . S
C49 N48 1.358 . S
C49 H55 0.930 . S
C50 N48 1.400 . S
C50 C51 1.351 . S
C50 H67 0.930 . S
C51 N47 1.389 . S
C51 C50 1.351 . S
C51 H56 0.930 . S
O52 Cu46 1.974 1_556 S
O52 C62 1.282 . S
C53 O54 1.261 . S
C53 O66 1.251 . S
O54 C53 1.261 . S
H55 C49 0.930 . S
H56 C51 0.930 . S
N57 Cu46 1.985 1_556 S
N57 C59 1.335 . S
N57 C60 1.390 . S
N58 C59 1.345 . S
N58 C61 1.336 . S
C59 N57 1.335 . S
C59 N58 1.345 . S
C59 H64 0.930 . S
C60 N57 1.390 . S
C60 C61 1.346 . S
C60 H65 0.930 . S
C61 N58 1.336 . S
C61 C60 1.346 . S
C61 H68 0.929 . S
C62 O52 1.282 . S
C62 O63 1.216 1_556 S
O63 C62 1.216 1_554 S
H64 C59 0.930 . S
H65 C60 0.930 . S
O66 Cu46 1.959 . S
O66 C53 1.251 . S
H67 C50 0.930 . S
H68 C61 0.929 . S
Cu69 N70 1.999 . S
Cu69 O75 1.974 1_554 S
Cu69 N80 1.985 1_454 S
Cu69 O89 1.959 . S
N70 Cu69 1.999 . S
N70 C72 1.263 . S
N70 C74 1.389 . S
N71 C72 1.358 . S
N71 C73 1.400 . S
C72 N70 1.263 . S
C72 N71 1.358 . S
C72 H78 0.930 . S
C73 N71 1.400 . S
C73 C74 1.351 . S
C73 H90 0.930 . S
C74 N70 1.389 . S
C74 C73 1.351 . S
C74 H79 0.930 . S
O75 Cu69 1.974 1_556 S
O75 C85 1.282 1_455 S
C76 O77 1.261 . S
C76 O89 1.251 1_655 S
O77 C76 1.261 . S
H78 C72 0.930 . S
H79 C74 0.930 . S
N80 Cu69 1.985 1_656 S
N80 C82 1.335 . S
N80 C83 1.390 . S
N81 C82 1.345 . S
N81 C84 1.336 . S
C82 N80 1.335 . S
C82 N81 1.345 . S
C82 H87 0.930 1_655 S
C83 N80 1.390 . S
C83 C84 1.346 . S
C83 H88 0.930 . S
C84 N81 1.336 . S
C84 C83 1.346 . S
C84 H91 0.929 . S
C85 O75 1.282 1_655 S
C85 O86 1.216 1_556 S
O86 C85 1.216 1_554 S
H87 C82 0.930 1_455 S
H88 C83 0.930 . S
O89 Cu69 1.959 . S
O89 C76 1.251 1_455 S
H90 C73 0.930 . S
H91 C84 0.929 . S
Cu92 N93 1.999 . S
Cu92 O98 1.974 . S
Cu92 N103 1.985 1_565 S
Cu92 O112 1.959 . S
N93 Cu92 1.999 . S
N93 C95 1.263 . S
N93 C97 1.389 . S
N94 C95 1.358 . S
N94 C96 1.400 . S
C95 N93 1.263 . S
C95 N94 1.358 . S
C95 H101 0.930 . S
C96 N94 1.400 . S
C96 C97 1.351 . S
C96 H113 0.930 . S
C97 N93 1.389 . S
C97 C96 1.351 . S
C97 H102 0.930 . S
O98 Cu92 1.974 . S
O98 C108 1.282 1_565 S
C99 O100 1.261 . S
C99 O112 1.251 1_545 S
O100 C99 1.261 . S
H101 C95 0.930 . S
H102 C97 0.930 . S
N103 Cu92 1.985 1_545 S
N103 C105 1.335 . S
N103 C106 1.390 . S
N104 C105 1.345 . S
N104 C107 1.336 . S
C105 N103 1.335 . S
C105 N104 1.345 . S
C105 H110 0.930 1_545 S
C106 N103 1.390 . S
C106 C107 1.346 . S
C106 H111 0.930 . S
C107 N104 1.336 . S
C107 C106 1.346 . S
C107 H114 0.929 . S
C108 O98 1.282 1_545 S
C108 O109 1.216 . S
O109 C108 1.216 . S
H110 C105 0.930 1_565 S
H111 C106 0.930 . S
O112 Cu92 1.959 . S
O112 C99 1.251 1_565 S
H113 C96 0.930 . S
H114 C107 0.929 . S
Cu115 N116 1.999 . S
Cu115 O121 1.974 . S
Cu115 N126 1.985 . S
Cu115 O135 1.959 . S
N116 Cu115 1.999 . S
N116 C118 1.263 . S
N116 C120 1.389 . S
N117 C118 1.358 . S
N117 C119 1.400 . S
C118 N116 1.263 . S
C118 N117 1.358 . S
C118 H124 0.930 . S
C119 N117 1.400 . S
C119 C120 1.351 . S
C119 H136 0.930 . S
C120 N116 1.389 . S
C120 C119 1.351 . S
C120 H125 0.930 . S
O121 Cu115 1.974 . S
O121 C131 1.282 . S
C122 O123 1.261 . S
C122 O135 1.251 . S
O123 C122 1.261 . S
H124 C118 0.930 . S
H125 C120 0.930 . S
N126 Cu115 1.985 . S
N126 C128 1.335 . S
N126 C129 1.390 . S
N127 C128 1.345 . S
N127 C130 1.336 . S
C128 N126 1.335 . S
C128 N127 1.345 . S
C128 H133 0.930 . S
C129 N126 1.390 . S
C129 C130 1.346 . S
C129 H134 0.930 . S
C130 N127 1.336 . S
C130 C129 1.346 . S
C130 H137 0.929 . S
C131 O121 1.282 . S
C131 O132 1.216 . S
O132 C131 1.216 . S
H133 C128 0.930 . S
H134 C129 0.930 . S
O135 Cu115 1.959 . S
O135 C122 1.251 . S
H136 C119 0.930 . S
H137 C130 0.929 . S
Cu138 N139 1.999 . S
Cu138 O144 1.974 . S
Cu138 N149 1.985 . S
Cu138 O158 1.959 . S
N139 Cu138 1.999 . S
N139 C141 1.263 . S
N139 C143 1.389 . S
N140 C141 1.358 . S
N140 C142 1.400 . S
C141 N139 1.263 . S
C141 N140 1.358 . S
C141 H147 0.930 . S
C142 N140 1.400 . S
C142 C143 1.351 . S
C142 H159 0.930 . S
C143 N139 1.389 . S
C143 C142 1.351 . S
C143 H148 0.930 . S
O144 Cu138 1.974 . S
O144 C154 1.282 . S
C145 O146 1.261 . S
C145 O158 1.251 . S
O146 C145 1.261 . S
H147 C141 0.930 . S
H148 C143 0.930 . S
N149 Cu138 1.985 . S
N149 C151 1.335 . S
N149 C152 1.390 . S
N150 C151 1.345 . S
N150 C153 1.336 . S
C151 N149 1.335 . S
C151 N150 1.345 . S
C151 H156 0.930 . S
C152 N149 1.390 . S
C152 C153 1.346 . S
C152 H157 0.930 . S
C153 N150 1.336 . S
C153 C152 1.346 . S
C153 H160 0.929 . S
C154 O144 1.282 . S
C154 O155 1.216 . S
O155 C154 1.216 . S
H156 C151 0.930 . S
H157 C152 0.930 . S
O158 Cu138 1.959 . S
O158 C145 1.251 . S
H159 C142 0.930 . S
H160 C153 0.929 . S
Cu161 N162 1.999 . S
Cu161 O167 1.974 . S
Cu161 N172 1.985 1_655 S
Cu161 O181 1.959 . S
N162 Cu161 1.999 . S
N162 C164 1.263 . S
N162 C166 1.389 . S
N163 C164 1.358 . S
N163 C165 1.400 . S
C164 N162 1.263 . S
C164 N163 1.358 . S
C164 H170 0.930 . S
C165 N163 1.400 . S
C165 C166 1.351 . S
C165 H182 0.930 . S
C166 N162 1.389 . S
C166 C165 1.351 . S
C166 H171 0.930 . S
O167 Cu161 1.974 . S
O167 C177 1.282 1_655 S
C168 O169 1.261 . S
C168 O181 1.251 1_455 S
O169 C168 1.261 . S
H170 C164 0.930 . S
H171 C166 0.930 . S
N172 Cu161 1.985 1_455 S
N172 C174 1.335 . S
N172 C175 1.390 . S
N173 C174 1.345 . S
N173 C176 1.336 . S
C174 N172 1.335 . S
C174 N173 1.345 . S
C174 H179 0.930 1_455 S
C175 N172 1.390 . S
C175 C176 1.346 . S
C175 H180 0.930 . S
C176 N173 1.336 . S
C176 C175 1.346 . S
C176 H183 0.929 . S
C177 O167 1.282 1_455 S
C177 O178 1.216 . S
O178 C177 1.216 . S
H179 C174 0.930 1_655 S
H180 C175 0.930 . S
O181 Cu161 1.959 . S
O181 C168 1.251 1_655 S
H182 C165 0.930 . S
H183 C176 0.929 . S
Cu184 N185 1.999 . S
Cu184 O190 1.974 1_556 S
Cu184 N195 1.985 1_566 S
Cu184 O204 1.959 . S
N185 Cu184 1.999 . S
N185 C187 1.263 . S
N185 C189 1.389 . S
N186 C187 1.358 . S
N186 C188 1.400 . S
C187 N185 1.263 . S
C187 N186 1.358 . S
C187 H193 0.930 . S
C188 N186 1.400 . S
C188 C189 1.351 . S
C188 H205 0.930 . S
C189 N185 1.389 . S
C189 C188 1.351 . S
C189 H194 0.930 . S
O190 Cu184 1.974 1_554 S
O190 C200 1.282 1_565 S
C191 O192 1.261 . S
C191 O204 1.251 1_545 S
O192 C191 1.261 . S
H193 C187 0.930 . S
H194 C189 0.930 . S
N195 Cu184 1.985 1_544 S
N195 C197 1.335 . S
N195 C198 1.390 . S
N196 C197 1.345 . S
N196 C199 1.336 . S
C197 N195 1.335 . S
C197 N196 1.345 . S
C197 H202 0.930 1_545 S
C198 N195 1.390 . S
C198 C199 1.346 . S
C198 H203 0.930 . S
C199 N196 1.336 . S
C199 C198 1.346 . S
C199 H206 0.929 . S
C200 O190 1.282 1_545 S
C200 O201 1.216 1_554 S
O201 C200 1.216 1_556 S
H202 C197 0.930 1_565 S
H203 C198 0.930 . S
O204 Cu184 1.959 . S
O204 C191 1.251 1_565 S
H205 C188 0.930 . S
H206 C199 0.929 . S
Cu207 N208 1.999 . S
Cu207 O213 1.974 1_556 S
Cu207 N218 1.985 1_556 S
Cu207 O227 1.959 . S
N208 Cu207 1.999 . S
N208 C210 1.263 . S
N208 C212 1.389 . S
N209 C210 1.358 . S
N209 C211 1.400 . S
C210 N208 1.263 . S
C210 N209 1.358 . S
C210 H216 0.930 . S
C211 N209 1.400 . S
C211 C212 1.351 . S
C211 H228 0.930 . S
C212 N208 1.389 . S
C212 C211 1.351 . S
C212 H217 0.930 . S
O213 Cu207 1.974 1_554 S
O213 C223 1.282 . S
C214 O215 1.261 . S
C214 O227 1.251 . S
O215 C214 1.261 . S
H216 C210 0.930 . S
H217 C212 0.930 . S
N218 Cu207 1.985 1_554 S
N218 C220 1.335 . S
N218 C221 1.390 . S
N219 C220 1.345 . S
N219 C222 1.336 . S
C220 N218 1.335 . S
C220 N219 1.345 . S
C220 H225 0.930 . S
C221 N218 1.390 . S
C221 C222 1.346 . S
C221 H226 0.930 . S
C222 N219 1.336 . S
C222 C221 1.346 . S
C222 H229 0.929 . S
C223 O213 1.282 . S
C223 O224 1.216 1_554 S
O224 C223 1.216 1_556 S
H225 C220 0.930 . S
H226 C221 0.930 . S
O227 Cu207 1.959 . S
O227 C214 1.251 . S
H228 C211 0.930 . S
H229 C222 0.929 . S
Cu230 N231 1.999 . S
Cu230 O236 1.974 1_556 S
Cu230 N241 1.985 1_556 S
Cu230 O250 1.959 . S
N231 Cu230 1.999 . S
N231 C233 1.263 . S
N231 C235 1.389 . S
N232 C233 1.358 . S
N232 C234 1.400 . S
C233 N231 1.263 . S
C233 N232 1.358 . S
C233 H239 0.930 . S
C234 N232 1.400 . S
C234 C235 1.351 . S
C234 H251 0.930 . S
C235 N231 1.389 . S
C235 C234 1.351 . S
C235 H240 0.930 . S
O236 Cu230 1.974 1_554 S
O236 C246 1.282 . S
C237 O238 1.261 . S
C237 O250 1.251 . S
O238 C237 1.261 . S
H239 C233 0.930 . S
H240 C235 0.930 . S
N241 Cu230 1.985 1_554 S
N241 C243 1.335 . S
N241 C244 1.390 . S
N242 C243 1.345 . S
N242 C245 1.336 . S
C243 N241 1.335 . S
C243 N242 1.345 . S
C243 H248 0.930 . S
C244 N241 1.390 . S
C244 C245 1.346 . S
C244 H249 0.930 . S
C245 N242 1.336 . S
C245 C244 1.346 . S
C245 H252 0.929 . S
C246 O236 1.282 . S
C246 O247 1.216 1_554 S
O247 C246 1.216 1_556 S
H248 C243 0.930 . S
H249 C244 0.930 . S
O250 Cu230 1.959 . S
O250 C237 1.251 . S
H251 C234 0.930 . S
H252 C245 0.929 . S
Cu253 N254 1.999 . S
Cu253 O259 1.974 1_556 S
Cu253 N264 1.985 1_656 S
Cu253 O273 1.959 . S
N254 Cu253 1.999 . S
N254 C256 1.263 . S
N254 C258 1.389 . S
N255 C256 1.358 . S
N255 C257 1.400 . S
C256 N254 1.263 . S
C256 N255 1.358 . S
C256 H262 0.930 . S
C257 N255 1.400 . S
C257 C258 1.351 . S
C257 H274 0.930 . S
C258 N254 1.389 . S
C258 C257 1.351 . S
C258 H263 0.930 . S
O259 Cu253 1.974 1_554 S
O259 C269 1.282 1_655 S
C260 O261 1.261 . S
C260 O273 1.251 1_455 S
O261 C260 1.261 . S
H262 C256 0.930 . S
H263 C258 0.930 . S
N264 Cu253 1.985 1_454 S
N264 C266 1.335 . S
N264 C267 1.390 . S
N265 C266 1.345 . S
N265 C268 1.336 . S
C266 N264 1.335 . S
C266 N265 1.345 . S
C266 H271 0.930 1_455 S
C267 N264 1.390 . S
C267 C268 1.346 . S
C267 H272 0.930 . S
C268 N265 1.336 . S
C268 C267 1.346 . S
C268 H275 0.929 . S
C269 O259 1.282 1_455 S
C269 O270 1.216 1_554 S
O270 C269 1.216 1_556 S
H271 C266 0.930 1_655 S
H272 C267 0.930 . S
O273 Cu253 1.959 . S
O273 C260 1.251 1_655 S
H274 C257 0.930 . S
H275 C268 0.929 . S
Cu276 N277 1.999 . S
Cu276 O282 1.974 . S
Cu276 N287 1.985 1_545 S
Cu276 O296 1.959 . S
N277 Cu276 1.999 . S
N277 C279 1.263 . S
N277 C281 1.389 . S
N278 C279 1.358 . S
N278 C280 1.400 . S
C279 N277 1.263 . S
C279 N278 1.358 . S
C279 H285 0.930 . S
C280 N278 1.400 . S
C280 C281 1.351 . S
C280 H297 0.930 . S
C281 N277 1.389 . S
C281 C280 1.351 . S
C281 H286 0.930 . S
O282 Cu276 1.974 . S
O282 C292 1.282 1_545 S
C283 O284 1.261 . S
C283 O296 1.251 1_565 S
O284 C283 1.261 . S
H285 C279 0.930 . S
H286 C281 0.930 . S
N287 Cu276 1.985 1_565 S
N287 C289 1.335 . S
N287 C290 1.390 . S
N288 C289 1.345 . S
N288 C291 1.336 . S
C289 N287 1.335 . S
C289 N288 1.345 . S
C289 H294 0.930 1_565 S
C290 N287 1.390 . S
C290 C291 1.346 . S
C290 H295 0.930 . S
C291 N288 1.336 . S
C291 C290 1.346 . S
C291 H298 0.929 . S
C292 O282 1.282 1_565 S
C292 O293 1.216 . S
O293 C292 1.216 . S
H294 C289 0.930 1_545 S
H295 C290 0.930 . S
O296 Cu276 1.959 . S
O296 C283 1.251 1_545 S
H297 C280 0.930 . S
H298 C291 0.929 . S
Cu299 N300 1.999 . S
Cu299 O305 1.974 . S
Cu299 N310 1.985 . S
Cu299 O319 1.959 . S
N300 Cu299 1.999 . S
N300 C302 1.263 . S
N300 C304 1.389 . S
N301 C302 1.358 . S
N301 C303 1.400 . S
C302 N300 1.263 . S
C302 N301 1.358 . S
C302 H308 0.930 . S
C303 N301 1.400 . S
C303 C304 1.351 . S
C303 H320 0.930 . S
C304 N300 1.389 . S
C304 C303 1.351 . S
C304 H309 0.930 . S
O305 Cu299 1.974 . S
O305 C315 1.282 . S
C306 O307 1.261 . S
C306 O319 1.251 . S
O307 C306 1.261 . S
H308 C302 0.930 . S
H309 C304 0.930 . S
N310 Cu299 1.985 . S
N310 C312 1.335 . S
N310 C313 1.390 . S
N311 C312 1.345 . S
N311 C314 1.336 . S
C312 N310 1.335 . S
C312 N311 1.345 . S
C312 H317 0.930 . S
C313 N310 1.390 . S
C313 C314 1.346 . S
C313 H318 0.930 . S
C314 N311 1.336 . S
C314 C313 1.346 . S
C314 H321 0.929 . S
C315 O305 1.282 . S
C315 O316 1.216 . S
O316 C315 1.216 . S
H317 C312 0.930 . S
H318 C313 0.930 . S
O319 Cu299 1.959 . S
O319 C306 1.251 . S
H320 C303 0.930 . S
H321 C314 0.929 . S
Cu322 N323 1.999 . S
Cu322 O328 1.974 . S
Cu322 N333 1.985 . S
Cu322 O342 1.959 . S
N323 Cu322 1.999 . S
N323 C325 1.263 . S
N323 C327 1.389 . S
N324 C325 1.358 . S
N324 C326 1.400 . S
C325 N323 1.263 . S
C325 N324 1.358 . S
C325 H331 0.930 . S
C326 N324 1.400 . S
C326 C327 1.351 . S
C326 H343 0.930 . S
C327 N323 1.389 . S
C327 C326 1.351 . S
C327 H332 0.930 . S
O328 Cu322 1.974 . S
O328 C338 1.282 . S
C329 O330 1.261 . S
C329 O342 1.251 . S
O330 C329 1.261 . S
H331 C325 0.930 . S
H332 C327 0.930 . S
N333 Cu322 1.985 . S
N333 C335 1.335 . S
N333 C336 1.390 . S
N334 C335 1.345 . S
N334 C337 1.336 . S
C335 N333 1.335 . S
C335 N334 1.345 . S
C335 H340 0.930 . S
C336 N333 1.390 . S
C336 C337 1.346 . S
C336 H341 0.930 . S
C337 N334 1.336 . S
C337 C336 1.346 . S
C337 H344 0.929 . S
C338 O328 1.282 . S
C338 O339 1.216 . S
O339 C338 1.216 . S
H340 C335 0.930 . S
H341 C336 0.930 . S
O342 Cu322 1.959 . S
O342 C329 1.251 . S
H343 C326 0.930 . S
H344 C337 0.929 . S
Cu345 N346 1.999 . S
Cu345 O351 1.974 . S
Cu345 N356 1.985 1_455 S
Cu345 O365 1.959 . S
N346 Cu345 1.999 . S
N346 C348 1.263 . S
N346 C350 1.389 . S
N347 C348 1.358 . S
N347 C349 1.400 . S
C348 N346 1.263 . S
C348 N347 1.358 . S
C348 H354 0.930 . S
C349 N347 1.400 . S
C349 C350 1.351 . S
C349 H366 0.930 . S
C350 N346 1.389 . S
C350 C349 1.351 . S
C350 H355 0.930 . S
O351 Cu345 1.974 . S
O351 C361 1.282 1_455 S
C352 O353 1.261 . S
C352 O365 1.251 1_655 S
O353 C352 1.261 . S
H354 C348 0.930 . S
H355 C350 0.930 . S
N356 Cu345 1.985 1_655 S
N356 C358 1.335 . S
N356 C359 1.390 . S
N357 C358 1.345 . S
N357 C360 1.336 . S
C358 N356 1.335 . S
C358 N357 1.345 . S
C358 H363 0.930 1_655 S
C359 N356 1.390 . S
C359 C360 1.346 . S
C359 H364 0.930 . S
C360 N357 1.336 . S
C360 C359 1.346 . S
C360 H367 0.929 . S
C361 O351 1.282 1_655 S
C361 O362 1.216 . S
O362 C361 1.216 . S
H363 C358 0.930 1_455 S
H364 C359 0.930 . S
O365 Cu345 1.959 . S
O365 C352 1.251 1_455 S
H366 C349 0.930 . S
H367 C360 0.929 . S
C368 C369 1.387 . S
C368 H372 0.950 . S
C368 C377 1.390 . S
C369 C368 1.387 . S
C369 C371 1.387 . S
H370 C377 0.950 . S
C371 C369 1.387 . S
C371 C373 1.390 . S
C371 H375 0.950 . S
H372 C368 0.950 . S
C373 C371 1.390 . S
C373 C374 1.387 . S
C373 H376 0.950 . S
C374 C373 1.387 . S
C374 C377 1.387 . S
H375 C371 0.950 . S
H376 C373 0.950 . S
C377 C368 1.390 . S
C377 H370 0.950 . S
C377 C374 1.387 . S
C378 C379 1.387 . S
C378 H382 0.950 . S
C378 C387 1.390 . S
C379 C378 1.387 . S
C379 C381 1.387 . S
H380 C387 0.950 . S
C381 C379 1.387 . S
C381 C383 1.390 . S
C381 H385 0.950 . S
H382 C378 0.950 . S
C383 C381 1.390 . S
C383 C384 1.387 . S
C383 H386 0.950 . S
C384 C383 1.387 . S
C384 C387 1.387 . S
H385 C381 0.950 . S
H386 C383 0.950 . S
C387 C378 1.390 . S
C387 H380 0.950 . S
C387 C384 1.387 . S
C388 C389 1.387 . S
C388 H392 0.950 . S
C388 C397 1.390 . S
C389 C388 1.387 . S
C389 C391 1.387 . S
H390 C397 0.950 . S
C391 C389 1.387 . S
C391 C393 1.390 . S
C391 H395 0.950 . S
H392 C388 0.950 . S
C393 C391 1.390 . S
C393 C394 1.387 . S
C393 H396 0.950 1_655 S
C394 C393 1.387 . S
C394 C397 1.387 . S
H395 C391 0.950 . S
H396 C393 0.950 1_455 S
C397 C388 1.390 . S
C397 H390 0.950 . S
C397 C394 1.387 . S
C398 C399 1.387 . S
C398 H402 0.950 . S
C398 C407 1.390 . S
C399 C398 1.387 . S
C399 C401 1.387 . S
H400 C407 0.950 . S
C401 C399 1.387 . S
C401 C403 1.390 . S
C401 H405 0.950 . S
H402 C398 0.950 . S
C403 C401 1.390 . S
C403 C404 1.387 . S
C403 H406 0.950 . S
C404 C403 1.387 . S
C404 C407 1.387 . S
H405 C401 0.950 . S
H406 C403 0.950 . S
C407 C398 1.390 . S
C407 H400 0.950 . S
C407 C404 1.387 . S
C408 C409 1.387 . S
C408 H412 0.950 . S
C408 C417 1.390 . S
C409 C408 1.387 . S
C409 C411 1.387 . S
H410 C417 0.950 . S
C411 C409 1.387 . S
C411 C413 1.390 . S
C411 H415 0.950 . S
H412 C408 0.950 . S
C413 C411 1.390 . S
C413 C414 1.387 . S
C413 H416 0.950 . S
C414 C413 1.387 . S
C414 C417 1.387 . S
H415 C411 0.950 . S
H416 C413 0.950 . S
C417 C408 1.390 . S
C417 H410 0.950 . S
C417 C414 1.387 . S
C418 C419 1.387 . S
C418 H422 0.950 . S
C418 C427 1.390 . S
C419 C418 1.387 . S
C419 C421 1.387 . S
H420 C427 0.950 . S
C421 C419 1.387 . S
C421 C423 1.390 . S
C421 H425 0.950 . S
H422 C418 0.950 . S
C423 C421 1.390 . S
C423 C424 1.387 . S
C423 H426 0.950 . S
C424 C423 1.387 . S
C424 C427 1.387 . S
H425 C421 0.950 . S
H426 C423 0.950 . S
C427 C418 1.390 . S
C427 H420 0.950 . S
C427 C424 1.387 . S
C428 C429 1.387 . S
C428 H432 0.978 . S
C428 C437 1.390 . S
C429 C428 1.387 . S
C429 C431 1.387 . S
H430 C437 0.950 . S
C431 C429 1.387 . S
C431 C433 1.390 . S
C431 H435 0.950 . S
H432 C428 0.978 . S
C433 C431 1.390 . S
C433 C434 1.387 . S
C433 H436 0.950 . S
C434 C433 1.387 . S
C434 C437 1.387 . S
H435 C431 0.950 . S
H436 C433 0.950 . S
C437 C428 1.390 . S
C437 H430 0.950 . S
C437 C434 1.387 . S
C438 C439 1.387 . S
C438 H442 0.950 . S
C438 C447 1.390 . S
C439 C438 1.387 . S
C439 C441 1.387 . S
H440 C447 0.950 . S
C441 C439 1.387 . S
C441 C443 1.390 . S
C441 H445 0.950 . S
H442 C438 0.950 . S
C443 C441 1.390 . S
C443 C444 1.387 . S
C443 H446 0.950 . S
C444 C443 1.387 . S
C444 C447 1.387 . S
H445 C441 0.950 . S
H446 C443 0.950 . S
C447 C438 1.390 . S
C447 H440 0.950 . S
C447 C444 1.387 . S
C448 C449 1.387 1_545 S
C448 H452 0.950 . S
C448 C457 1.390 . S
C449 C448 1.387 1_565 S
C449 C451 1.387 . S
H450 C457 0.950 . S
C451 C449 1.387 . S
C451 C453 1.390 . S
C451 H455 0.950 . S
H452 C448 0.950 . S
C453 C451 1.390 . S
C453 C454 1.387 . S
C453 H456 0.950 . S
C454 C453 1.387 . S
C454 C457 1.387 1_565 S
H455 C451 0.950 . S
H456 C453 0.950 . S
C457 C448 1.390 . S
C457 H450 0.950 . S
C457 C454 1.387 1_545 S
C458 C459 1.387 . S
C458 H462 0.950 . S
C458 C467 1.390 . S
C459 C458 1.387 . S
C459 C461 1.387 . S
H460 C467 0.950 . S
C461 C459 1.387 . S
C461 C463 1.390 . S
C461 H465 0.950 . S
H462 C458 0.950 . S
C463 C461 1.390 . S
C463 C464 1.387 . S
C463 H466 0.950 . S
C464 C463 1.387 . S
C464 C467 1.387 . S
H465 C461 0.950 . S
H466 C463 0.950 . S
C467 C458 1.390 . S
C467 H460 0.950 . S
C467 C464 1.387 . S
C468 C469 1.387 . S
C468 H472 0.950 . S
C468 C477 1.390 . S
C469 C468 1.387 . S
C469 C471 1.387 . S
H470 C477 0.950 . S
C471 C469 1.387 . S
C471 C473 1.390 . S
C471 H475 0.950 . S
H472 C468 0.950 . S
C473 C471 1.390 . S
C473 C474 1.387 . S
C473 H476 0.950 . S
C474 C473 1.387 . S
C474 C477 1.387 . S
H475 C471 0.950 . S
H476 C473 0.950 . S
C477 C468 1.390 . S
C477 H470 0.950 . S
C477 C474 1.387 . S
C478 C479 1.387 . S
C478 H482 0.950 . S
C478 C487 1.390 . S
C479 C478 1.387 . S
C479 C481 1.387 1_655 S
H480 C487 0.950 . S
C481 C479 1.387 1_455 S
C481 C483 1.390 . S
C481 H485 0.950 . S
H482 C478 0.950 . S
C483 C481 1.390 . S
C483 C484 1.387 1_455 S
C483 H486 0.950 . S
C484 C483 1.387 1_655 S
C484 C487 1.387 . S
H485 C481 0.950 . S
H486 C483 0.950 . S
C487 C478 1.390 . S
C487 H480 0.950 . S
C487 C484 1.387 . S
C488 C489 1.387 1_565 S
C488 H492 0.950 . S
C488 C497 1.390 . S
C489 C488 1.387 1_545 S
C489 C491 1.387 . S
H490 C497 0.950 . S
C491 C489 1.387 . S
C491 C493 1.390 . S
C491 H495 0.950 . S
H492 C488 0.950 . S
C493 C491 1.390 . S
C493 C494 1.387 . S
C493 H496 0.950 . S
C494 C493 1.387 . S
C494 C497 1.387 1_545 S
H495 C491 0.950 . S
H496 C493 0.950 . S
C497 C488 1.390 . S
C497 H490 0.950 . S
C497 C494 1.387 1_565 S
C498 C499 1.387 . S
C498 H502 0.950 . S
C498 C507 1.390 . S
C499 C498 1.387 . S
C499 C501 1.387 . S
H500 C507 0.950 . S
C501 C499 1.387 . S
C501 C503 1.390 . S
C501 H505 0.950 . S
H502 C498 0.950 . S
C503 C501 1.390 . S
C503 C504 1.387 . S
C503 H506 0.950 . S
C504 C503 1.387 . S
C504 C507 1.387 . S
H505 C501 0.950 . S
H506 C503 0.950 . S
C507 C498 1.390 . S
C507 H500 0.950 . S
C507 C504 1.387 . S
C508 C509 1.387 . S
C508 H512 0.950 . S
C508 C517 1.390 . S
C509 C508 1.387 . S
C509 C511 1.387 . S
H510 C517 0.950 . S
C511 C509 1.387 . S
C511 C513 1.390 . S
C511 H515 0.950 . S
H512 C508 0.950 . S
C513 C511 1.390 . S
C513 C514 1.387 . S
C513 H516 0.950 . S
C514 C513 1.387 . S
C514 C517 1.387 . S
H515 C511 0.950 . S
H516 C513 0.950 . S
C517 C508 1.390 . S
C517 H510 0.950 . S
C517 C514 1.387 . S
C518 C519 1.387 1_655 S
C518 H522 0.950 . S
C518 C527 1.390 . S
C519 C518 1.387 1_455 S
C519 C521 1.387 . S
H520 C527 0.950 . S
C521 C519 1.387 . S
C521 C523 1.390 . S
C521 H525 0.950 . S
H522 C518 0.950 . S
C523 C521 1.390 . S
C523 C524 1.387 . S
C523 H526 0.950 . S
C524 C523 1.387 . S
C524 C527 1.387 1_455 S
H525 C521 0.950 . S
H526 C523 0.950 . S
C527 C518 1.390 . S
C527 H520 0.950 . S
C527 C524 1.387 1_655 S
C528 C529 1.387 1_565 S
C528 H532 0.950 . S
C528 C537 1.390 . S
C529 C528 1.387 1_545 S
C529 C531 1.387 . S
H530 C537 0.950 . S
C531 C529 1.387 . S
C531 C533 1.390 . S
C531 H535 0.950 . S
H532 C528 0.950 . S
C533 C531 1.390 . S
C533 C534 1.387 . S
C533 H536 0.950 . S
C534 C533 1.387 . S
C534 C537 1.387 1_545 S
H535 C531 0.950 . S
H536 C533 0.950 . S
C537 C528 1.390 . S
C537 H530 0.950 . S
C537 C534 1.387 1_565 S
C538 C539 1.387 . S
C538 H542 0.950 . S
C538 C547 1.390 . S
C539 C538 1.387 . S
C539 C541 1.387 . S
H540 C547 0.950 . S
C541 C539 1.387 . S
C541 C543 1.390 . S
C541 H545 0.950 . S
H542 C538 0.950 . S
C543 C541 1.390 . S
C543 C544 1.387 . S
C543 H546 0.950 . S
C544 C543 1.387 . S
C544 C547 1.387 . S
H545 C541 0.950 . S
H546 C543 0.950 . S
C547 C538 1.390 . S
C547 H540 0.950 . S
C547 C544 1.387 . S
C548 C549 1.387 . S
C548 H552 0.950 . S
C548 C557 1.390 . S
C549 C548 1.387 . S
C549 C551 1.387 . S
H550 C557 0.950 . S
C551 C549 1.387 . S
C551 C553 1.390 . S
C551 H555 0.950 . S
H552 C548 0.950 . S
C553 C551 1.390 . S
C553 C554 1.387 . S
C553 H556 0.950 . S
C554 C553 1.387 . S
C554 C557 1.387 . S
H555 C551 0.950 . S
H556 C553 0.950 . S
C557 C548 1.390 . S
C557 H550 0.950 . S
C557 C554 1.387 . S
C558 C559 1.387 . S
C558 H562 0.950 . S
C558 C567 1.390 . S
C559 C558 1.387 . S
C559 C561 1.387 1_455 S
H560 C567 0.950 . S
C561 C559 1.387 1_655 S
C561 C563 1.390 . S
C561 H565 0.950 . S
H562 C558 0.950 . S
C563 C561 1.390 . S
C563 C564 1.387 1_655 S
C563 H566 0.950 . S
C564 C563 1.387 1_455 S
C564 C567 1.387 . S
H565 C561 0.950 . S
H566 C563 0.950 . S
C567 C558 1.390 . S
C567 H560 0.950 . S
C567 C564 1.387 . S
C568 C569 1.387 . S
C568 H572 0.950 . S
C568 C577 1.390 . S
C569 C568 1.387 . S
C569 C571 1.387 1_565 S
H570 C577 0.950 . S
C571 C569 1.387 1_545 S
C571 C573 1.390 . S
C571 H575 0.950 . S
H572 C568 0.950 . S
C573 C571 1.390 . S
C573 C574 1.387 1_545 S
C573 H576 0.950 . S
C574 C573 1.387 1_565 S
C574 C577 1.387 . S
H575 C571 0.950 . S
H576 C573 0.950 . S
C577 C568 1.390 . S
C577 H570 0.950 . S
C577 C574 1.387 . S
C578 C579 1.387 . S
C578 H582 0.950 . S
C578 C587 1.390 . S
C579 C578 1.387 . S
C579 C581 1.387 . S
H580 C587 0.950 . S
C581 C579 1.387 . S
C581 C583 1.390 . S
C581 H585 0.950 . S
H582 C578 0.950 . S
C583 C581 1.390 . S
C583 C584 1.387 . S
C583 H586 0.950 . S
C584 C583 1.387 . S
C584 C587 1.387 . S
H585 C581 0.950 . S
H586 C583 0.950 . S
C587 C578 1.390 . S
C587 H580 0.950 . S
C587 C584 1.387 . S
C588 C589 1.387 . S
C588 H592 0.950 . S
C588 C597 1.390 . S
C589 C588 1.387 . S
C589 C591 1.387 . S
H590 C597 0.950 . S
C591 C589 1.387 . S
C591 C593 1.390 . S
C591 H595 0.950 . S
H592 C588 0.950 . S
C593 C591 1.390 . S
C593 C594 1.387 . S
C593 H596 0.950 . S
C594 C593 1.387 . S
C594 C597 1.387 . S
H595 C591 0.950 . S
H596 C593 0.950 . S
C597 C588 1.390 . S
C597 H590 0.950 . S
C597 C594 1.387 . S
C598 C599 1.387 1_455 S
C598 H602 0.950 . S
C598 C607 1.390 . S
C599 C598 1.387 1_655 S
C599 C601 1.387 . S
H600 C607 0.950 . S
C601 C599 1.387 . S
C601 C603 1.390 . S
C601 H605 0.950 . S
H602 C598 0.950 . S
C603 C601 1.390 . S
C603 C604 1.387 . S
C603 H606 0.950 . S
C604 C603 1.387 . S
C604 C607 1.387 1_655 S
H605 C601 0.950 . S
H606 C603 0.950 . S
C607 C598 1.390 . S
C607 H600 0.950 . S
C607 C604 1.387 1_455 S
C608 C609 1.387 . S
C608 H612 0.950 . S
C608 C617 1.390 . S
C609 C608 1.387 . S
C609 C611 1.387 1_544 S
H610 C617 0.950 . S
C611 C609 1.387 1_566 S
C611 C613 1.390 . S
C611 H615 0.950 . S
H612 C608 0.950 . S
C613 C611 1.390 . S
C613 C614 1.387 . S
C613 H616 0.950 . S
C614 C613 1.387 . S
C614 C617 1.387 1_566 S
H615 C611 0.950 . S
H616 C613 0.950 . S
C617 C608 1.390 . S
C617 H610 0.950 . S
C617 C614 1.387 1_544 S
C618 C619 1.387 . S
C618 H622 0.950 . S
C618 C627 1.390 . S
C619 C618 1.387 . S
C619 C621 1.387 1_554 S
H620 C627 0.950 . S
C621 C619 1.387 1_556 S
C621 C623 1.390 . S
C621 H625 0.950 . S
H622 C618 0.950 . S
C623 C621 1.390 . S
C623 C624 1.387 . S
C623 H626 0.950 . S
C624 C623 1.387 . S
C624 C627 1.387 1_556 S
H625 C621 0.950 . S
H626 C623 0.950 . S
C627 C618 1.390 . S
C627 H620 0.950 . S
C627 C624 1.387 1_554 S
C628 C629 1.387 . S
C628 H632 0.950 . S
C628 C637 1.390 1_655 S
C629 C628 1.387 . S
C629 C631 1.387 1_556 S
H630 C637 0.950 . S
C631 C629 1.387 1_554 S
C631 C633 1.390 1_655 S
C631 H635 0.950 . S
H632 C628 0.950 . S
C633 C631 1.390 1_455 S
C633 C634 1.387 . S
C633 H636 0.950 . S
C634 C633 1.387 . S
C634 C637 1.387 1_554 S
H635 C631 0.950 . S
H636 C633 0.950 . S
C637 C628 1.390 1_455 S
C637 H630 0.950 . S
C637 C634 1.387 1_556 S
C638 C639 1.387 . S
C638 H642 0.950 . S
C638 C647 1.390 1_545 S
C639 C638 1.387 . S
C639 C641 1.387 1_454 S
H640 C647 0.950 . S
C641 C639 1.387 1_656 S
C641 C643 1.390 1_545 S
C641 H645 0.950 . S
H642 C638 0.950 . S
C643 C641 1.390 1_565 S
C643 C644 1.387 . S
C643 H646 0.950 . S
C644 C643 1.387 . S
C644 C647 1.387 1_656 S
H645 C641 0.950 . S
H646 C643 0.950 . S
C647 C638 1.390 1_565 S
C647 H640 0.950 . S
C647 C644 1.387 1_454 S
C648 C649 1.387 1_565 S
C648 H652 0.950 . S
C648 C657 1.390 1_455 S
C649 C648 1.387 1_545 S
C649 C651 1.387 . S
H650 C657 0.950 . S
C651 C649 1.387 . S
C651 C653 1.390 1_455 S
C651 H655 0.950 . S
H652 C648 0.950 . S
C653 C651 1.390 1_655 S
C653 C654 1.387 1_545 S
C653 H656 0.950 . S
C654 C653 1.387 1_565 S
C654 C657 1.387 . S
H655 C651 0.950 . S
H656 C653 0.950 . S
C657 C648 1.390 1_655 S
C657 H650 0.950 . S
C657 C654 1.387 . S
C658 C659 1.385 1_545 S
C658 H662 0.950 . S
C658 C667 1.393 . S
C659 C658 1.385 1_565 S
C659 C661 1.387 . S
H660 C667 0.950 . S
C661 C659 1.387 . S
C661 C663 1.393 . S
C661 H665 0.950 . S
H662 C658 0.950 . S
C663 C661 1.393 . S
C663 C664 1.385 1_565 S
C663 H666 0.950 . S
C664 C663 1.385 1_545 S
C664 C667 1.387 . S
H665 C661 0.950 . S
H666 C663 0.950 . S
C667 C658 1.393 . S
C667 H660 0.950 . S
C667 C664 1.387 . S
C668 C669 1.387 . S
C668 H672 0.950 . S
C668 C677 1.390 . S
C669 C668 1.387 . S
C669 C671 1.387 . S
H670 C677 0.950 . S
C671 C669 1.387 . S
C671 C673 1.390 . S
C671 H675 0.950 . S
H672 C668 0.950 . S
C673 C671 1.390 . S
C673 C674 1.387 . S
C673 H676 0.950 . S
C674 C673 1.387 . S
C674 C677 1.387 . S
H675 C671 0.950 . S
H676 C673 0.950 . S
C677 C668 1.390 . S
C677 H670 0.950 . S
C677 C674 1.387 . S
C678 C679 1.387 . S
C678 H682 0.950 . S
C678 C687 1.390 . S
C679 C678 1.387 . S
C679 C681 1.387 1_655 S
H680 C687 0.950 . S
C681 C679 1.387 1_455 S
C681 C683 1.390 . S
C681 H685 0.950 . S
H682 C678 0.950 . S
C683 C681 1.390 . S
C683 C684 1.387 . S
C683 H686 0.950 . S
C684 C683 1.387 . S
C684 C687 1.387 1_455 S
H685 C681 0.950 . S
H686 C683 0.950 . S
C687 C678 1.390 . S
C687 H680 0.950 . S
C687 C684 1.387 1_655 S
C369 N117 0.771 . S
C374 N2 0.797 . S
C379 N140 1.087 . S
C384 N25 1.092 . S
C389 N48 0.780 . S
C394 N163 0.797 . S
C399 N71 0.517 . S
C404 N94 0.505 . S
C409 N186 0.796 . S
C414 N301 0.777 . S
C419 N324 1.092 . S
C424 N209 1.087 . S
C429 N347 0.796 . S
C434 N232 0.777 . S
C439 N255 0.517 . S
C444 N278 0.505 . S
C449 N12 1.687 . S
C454 C283 1.696 . S
C459 C306 2.007 . S
C464 N35 1.977 . S
C469 N58 2.203 . S
C474 C329 2.243 . S
C479 N81 1.848 . S
C484 C352 1.859 . S
C489 N104 1.846 . S
C494 C191 1.857 . S
C499 N127 2.202 . S
C504 C214 2.243 . S
C509 N150 1.975 . S
C514 C237 2.005 . S
C519 N173 1.688 . S
C524 C260 1.696 . S
C529 C99 1.698 . S
C534 N196 1.690 . S
C539 C122 2.007 . S
C544 N219 1.977 . S
C549 C145 2.243 . S
C554 N242 2.203 . S
C559 N265 1.846 . S
C564 C168 1.857 . S
C569 C7 1.857 . S
C574 N288 1.846 . S
C579 N311 2.203 . S
C584 C30 2.243 . S
C589 N334 1.975 . S
C594 C53 2.005 . S
C599 C76 1.698 . S
C604 N357 1.690 . S
C609 C200 1.704 . S
C614 C16 1.703 . S
C619 C223 2.344 . S
C624 C39 2.344 . S
C629 C62 2.607 . S
C634 C246 2.607 . S
C639 C269 1.976 . S
C644 C85 1.974 . S
C649 C108 1.975 . S
C654 C292 1.974 . S
C659 C315 2.606 . S
C664 C131 2.606 . S
C669 C338 2.343 . S
C674 C154 2.343 . S
C679 C361 1.704 . S
C684 C177 1.703 . S
