# Generated by pormake.
# Topology lcs, (4)-cn, num edge types: 1
# Building blocks:
#     Node 0, Type 0, BuildingBlock: NAHDIM_clean_sbu_0, # of connection points: 4
#     Node 1, Type 0, BuildingBlock: NAHDIM_clean_sbu_0, # of connection points: 4
#     Node 2, Type 0, BuildingBlock: NAHDIM_clean_sbu_0, # of connection points: 4
#     Node 3, Type 0, BuildingBlock: NAHDIM_clean_sbu_0, # of connection points: 4
#     Node 4, Type 0, BuildingBlock: NAHDIM_clean_sbu_0, # of connection points: 4
#     Node 5, Type 0, BuildingBlock: NAHDIM_clean_sbu_0, # of connection points: 4
#     Node 6, Type 0, BuildingBlock: NAHDIM_clean_sbu_0, # of connection points: 4
#     Node 7, Type 0, BuildingBlock: NAHDIM_clean_sbu_0, # of connection points: 4
#     Node 8, Type 0, BuildingBlock: NAHDIM_clean_sbu_0, # of connection points: 4
#     Node 9, Type 0, BuildingBlock: NAHDIM_clean_sbu_0, # of connection points: 4
#     Node 10, Type 0, BuildingBlock: NAHDIM_clean_sbu_0, # of connection points: 4
#     Node 11, Type 0, BuildingBlock: NAHDIM_clean_sbu_0, # of connection points: 4
#     Node 12, Type 0, BuildingBlock: NAHDIM_clean_sbu_0, # of connection points: 4
#     Node 13, Type 0, BuildingBlock: NAHDIM_clean_sbu_0, # of connection points: 4
#     Node 14, Type 0, BuildingBlock: NAHDIM_clean_sbu_0, # of connection points: 4
#     Node 15, Type 0, BuildingBlock: NAHDIM_clean_sbu_0, # of connection points: 4
#     Node 16, Type 0, BuildingBlock: NAHDIM_clean_sbu_0, # of connection points: 4
#     Node 17, Type 0, BuildingBlock: NAHDIM_clean_sbu_0, # of connection points: 4
#     Node 18, Type 0, BuildingBlock: NAHDIM_clean_sbu_0, # of connection points: 4
#     Node 19, Type 0, BuildingBlock: NAHDIM_clean_sbu_0, # of connection points: 4
#     Node 20, Type 0, BuildingBlock: NAHDIM_clean_sbu_0, # of connection points: 4
#     Node 21, Type 0, BuildingBlock: NAHDIM_clean_sbu_0, # of connection points: 4
#     Node 22, Type 0, BuildingBlock: NAHDIM_clean_sbu_0, # of connection points: 4
#     Node 23, Type 0, BuildingBlock: NAHDIM_clean_sbu_0, # of connection points: 4
#     Edge 24, Type (0, 0), BuildingBlock: OJICUG_clean_linker_0, # of connection points: 2
#     Edge 25, Type (0, 0), BuildingBlock: OJICUG_clean_linker_0, # of connection points: 2
#     Edge 26, Type (0, 0), BuildingBlock: OJICUG_clean_linker_0, # of connection points: 2
#     Edge 27, Type (0, 0), BuildingBlock: OJICUG_clean_linker_0, # of connection points: 2
#     Edge 28, Type (0, 0), BuildingBlock: OJICUG_clean_linker_0, # of connection points: 2
#     Edge 29, Type (0, 0), BuildingBlock: OJICUG_clean_linker_0, # of connection points: 2
#     Edge 30, Type (0, 0), BuildingBlock: OJICUG_clean_linker_0, # of connection points: 2
#     Edge 31, Type (0, 0), BuildingBlock: OJICUG_clean_linker_0, # of connection points: 2
#     Edge 32, Type (0, 0), BuildingBlock: OJICUG_clean_linker_0, # of connection points: 2
#     Edge 33, Type (0, 0), BuildingBlock: OJICUG_clean_linker_0, # of connection points: 2
#     Edge 34, Type (0, 0), BuildingBlock: OJICUG_clean_linker_0, # of connection points: 2
#     Edge 35, Type (0, 0), BuildingBlock: OJICUG_clean_linker_0, # of connection points: 2
#     Edge 36, Type (0, 0), BuildingBlock: OJICUG_clean_linker_0, # of connection points: 2
#     Edge 37, Type (0, 0), BuildingBlock: OJICUG_clean_linker_0, # of connection points: 2
#     Edge 38, Type (0, 0), BuildingBlock: OJICUG_clean_linker_0, # of connection points: 2
#     Edge 39, Type (0, 0), BuildingBlock: OJICUG_clean_linker_0, # of connection points: 2
#     Edge 40, Type (0, 0), BuildingBlock: OJICUG_clean_linker_0, # of connection points: 2
#     Edge 41, Type (0, 0), BuildingBlock: OJICUG_clean_linker_0, # of connection points: 2
#     Edge 42, Type (0, 0), BuildingBlock: OJICUG_clean_linker_0, # of connection points: 2
#     Edge 43, Type (0, 0), BuildingBlock: OJICUG_clean_linker_0, # of connection points: 2
#     Edge 44, Type (0, 0), BuildingBlock: OJICUG_clean_linker_0, # of connection points: 2
#     Edge 45, Type (0, 0), BuildingBlock: OJICUG_clean_linker_0, # of connection points: 2
#     Edge 46, Type (0, 0), BuildingBlock: OJICUG_clean_linker_0, # of connection points: 2
#     Edge 47, Type (0, 0), BuildingBlock: OJICUG_clean_linker_0, # of connection points: 2
#     Edge 48, Type (0, 0), BuildingBlock: OJICUG_clean_linker_0, # of connection points: 2
#     Edge 49, Type (0, 0), BuildingBlock: OJICUG_clean_linker_0, # of connection points: 2
#     Edge 50, Type (0, 0), BuildingBlock: OJICUG_clean_linker_0, # of connection points: 2
#     Edge 51, Type (0, 0), BuildingBlock: OJICUG_clean_linker_0, # of connection points: 2
#     Edge 52, Type (0, 0), BuildingBlock: OJICUG_clean_linker_0, # of connection points: 2
#     Edge 53, Type (0, 0), BuildingBlock: OJICUG_clean_linker_0, # of connection points: 2
#     Edge 54, Type (0, 0), BuildingBlock: OJICUG_clean_linker_0, # of connection points: 2
#     Edge 55, Type (0, 0), BuildingBlock: OJICUG_clean_linker_0, # of connection points: 2
#     Edge 56, Type (0, 0), BuildingBlock: OJICUG_clean_linker_0, # of connection points: 2
#     Edge 57, Type (0, 0), BuildingBlock: OJICUG_clean_linker_0, # of connection points: 2
#     Edge 58, Type (0, 0), BuildingBlock: OJICUG_clean_linker_0, # of connection points: 2
#     Edge 59, Type (0, 0), BuildingBlock: OJICUG_clean_linker_0, # of connection points: 2
#     Edge 60, Type (0, 0), BuildingBlock: OJICUG_clean_linker_0, # of connection points: 2
#     Edge 61, Type (0, 0), BuildingBlock: OJICUG_clean_linker_0, # of connection points: 2
#     Edge 62, Type (0, 0), BuildingBlock: OJICUG_clean_linker_0, # of connection points: 2
#     Edge 63, Type (0, 0), BuildingBlock: OJICUG_clean_linker_0, # of connection points: 2
#     Edge 64, Type (0, 0), BuildingBlock: OJICUG_clean_linker_0, # of connection points: 2
#     Edge 65, Type (0, 0), BuildingBlock: OJICUG_clean_linker_0, # of connection points: 2
#     Edge 66, Type (0, 0), BuildingBlock: OJICUG_clean_linker_0, # of connection points: 2
#     Edge 67, Type (0, 0), BuildingBlock: OJICUG_clean_linker_0, # of connection points: 2
#     Edge 68, Type (0, 0), BuildingBlock: OJICUG_clean_linker_0, # of connection points: 2
#     Edge 69, Type (0, 0), BuildingBlock: OJICUG_clean_linker_0, # of connection points: 2
#     Edge 70, Type (0, 0), BuildingBlock: OJICUG_clean_linker_0, # of connection points: 2
#     Edge 71, Type (0, 0), BuildingBlock: OJICUG_clean_linker_0, # of connection points: 2
# Relax obj value: 0.091
# Max RMSD: 0.166
# Mean RMSD: 0.150
data_MOF--net-lcs--node1-NAHDIM_clean_sbu_0--edge1-OJICUG_clean_linker_0
_symmetry_space_group_name_H-M    P1
_symmetry_Int_Tables_number       1
_symmetry_cell_setting            triclinic
loop_
_symmetry_equiv_pos_as_xyz
'x, y, z'
_cell_length_a     36.892458
_cell_length_b     35.482536
_cell_length_c     35.302292
_cell_angle_alpha  91.883752
_cell_angle_beta   90.868508
_cell_angle_gamma 91.369404
loop_
_atom_site_label
_atom_site_type_symbol
_atom_site_fract_x
_atom_site_fract_y
_atom_site_fract_z
_atom_type_partial_charge
C0 C 0.91643 0.26215 0.42208 0.0
O1 O 0.90722 0.22691 0.41334 0.0
O2 O 0.94903 0.20239 0.35112 0.0
Zn3 Zn 0.97735 0.24716 0.37343 0.0
O4 O 0.99205 0.28211 0.3326 0.0
C5 C 0.02302 0.20821 0.42685 0.0
O6 O 0.9924 0.19212 0.43704 0.0
O7 O 0.94558 0.27612 0.40911 0.0
C8 C 0.01903 0.27516 0.3118 0.0
O9 O 0.03624 0.24352 0.31591 0.0
C10 C 0.96218 0.17059 0.34228 0.0
O11 O -0.00285 0.16566 0.34667 0.0
O12 O 0.02263 0.23194 0.40071 0.0
C13 C 0.0718 0.7215 0.61338 0.0
O14 O 0.0798 0.73921 0.64579 0.0
O15 O 0.98565 0.70137 0.6762 0.0
Zn16 Zn 0.00159 0.73941 0.63851 0.0
O17 O 0.02387 0.78592 0.66433 0.0
C18 C 0.93608 0.77563 0.63037 0.0
O19 O 0.94567 0.78488 0.66551 0.0
O20 O 0.03868 0.71745 0.60314 0.0
C21 C 0.02986 0.79059 0.69972 0.0
O22 O 0.02031 0.76384 0.72269 0.0
C23 C 0.00096 0.67019 0.68125 0.0
O24 O 0.03027 0.66212 0.66226 0.0
O25 O 0.95671 0.75484 0.61068 0.0
C26 C 0.45906 0.7838 0.93089 0.0
O27 O 0.45409 0.74861 0.91884 0.0
O28 O 0.50455 0.73844 0.85302 0.0
Zn29 Zn 0.52292 0.78524 0.88173 0.0
O30 O 0.53091 0.82921 0.84781 0.0
C31 C 0.59837 0.76964 0.88854 0.0
O32 O 0.59678 0.77658 0.85223 0.0
O33 O 0.48641 0.80267 0.91984 0.0
C34 C 0.52985 0.82908 0.8118 0.0
O35 O 0.52446 0.79709 0.79252 0.0
C36 C 0.47524 0.73596 0.83363 0.0
O37 O 0.45521 0.76588 0.83065 0.0
O38 O 0.56977 0.7725 0.90798 0.0
C39 C 0.56233 0.22454 0.08911 0.0
O40 O 0.52898 0.21271 0.08105 0.0
O41 O 0.5083 0.23242 0.18245 0.0
Zn42 Zn 0.52613 0.27046 0.14514 0.0
O43 O 0.54357 0.31832 0.17221 0.0
C44 C 0.45328 0.28598 0.12739 0.0
O45 O 0.45192 0.28261 0.1643 0.0
O46 O 0.56762 0.24965 0.11518 0.0
C47 C 0.55809 0.31868 0.20509 0.0
O48 O 0.56112 0.2868 0.22265 0.0
C49 C 0.5216 0.20015 0.18716 0.0
O50 O 0.55047 0.19036 0.16824 0.0
O51 O 0.48357 0.28221 0.11112 0.0
C52 C 0.09367 0.77752 0.11801 0.0
O53 O 0.0933 0.76448 0.15241 0.0
O54 O 0.03362 0.7136 0.15418 0.0
Zn55 Zn 0.01963 0.75982 0.12637 0.0
O56 O 0.00305 0.80038 0.16267 0.0
C57 C 0.97743 0.73279 0.05775 0.0
O58 O 0.00834 0.72425 0.042 0.0
O59 O 0.06393 0.77884 0.09944 0.0
C60 C 0.97097 0.79757 0.17508 0.0
O61 O 0.95123 0.76723 0.16592 0.0
C62 C 0.01532 0.68282 0.1545 0.0
O63 O 0.98362 0.68028 0.13703 0.0
O64 O 0.97745 0.74752 0.09101 0.0
C65 C 0.40659 0.70466 0.41002 0.0
O66 O 0.40513 0.70937 0.37327 0.0
O67 O 0.49472 0.69532 0.36415 0.0
Zn68 Zn 0.47606 0.73662 0.39833 0.0
O69 O 0.45691 0.77936 0.36833 0.0
C70 C 0.54493 0.7394 0.44057 0.0
O71 O 0.54808 0.70449 0.42773 0.0
O72 O 0.43528 0.71483 0.42835 0.0
C73 C 0.47675 0.80782 0.3607 0.0
O74 O 0.51109 0.8087 0.37118 0.0
C75 C 0.52172 0.70043 0.34288 0.0
O76 O 0.53699 0.73419 0.34178 0.0
O77 O 0.5164 0.7572 0.43275 0.0
C78 C 0.55034 0.28043 0.56922 0.0
O79 O 0.54397 0.24417 0.57299 0.0
O80 O 0.49526 0.24334 0.64335 0.0
Zn81 Zn 0.48557 0.29067 0.61518 0.0
O82 O 0.47802 0.33593 0.64971 0.0
C83 C 0.40999 0.28523 0.60113 0.0
O84 O 0.41086 0.29682 0.63686 0.0
O85 O 0.52841 0.30397 0.58325 0.0
C86 C 0.47715 0.33781 0.68568 0.0
O87 O 0.4818 0.30721 0.70495 0.0
C88 C 0.5241 0.23858 0.66251 0.0
O89 O 0.54832 0.26629 0.66594 0.0
O90 O 0.43979 0.28096 0.58401 0.0
C91 C 0.95601 0.17536 0.90618 0.0
O92 O 0.96467 0.15933 0.87361 0.0
O93 O 0.03974 0.17246 0.86138 0.0
Zn94 Zn 0.02044 0.21709 0.89078 0.0
O95 O 0.00519 0.25722 0.8553 0.0
C96 C 0.09211 0.24003 0.91009 0.0
O97 O 0.09523 0.2305 0.87403 0.0
O98 O 0.97656 0.20148 0.92055 0.0
C99 C 0.0031 0.29093 0.86816 0.0
O100 O 0.01199 0.29855 0.90383 0.0
C101 C 0.03652 0.16756 0.82566 0.0
O102 O 0.01857 0.19201 0.806 0.0
O103 O 0.06111 0.2372 0.92515 0.0
C104 C 0.41188 0.94045 0.30082 0.0
O105 O 0.37641 0.94265 0.29979 0.0
O106 O 0.37281 0.00074 0.23027 0.0
Zn107 Zn 0.40477 0.01513 0.2758 0.0
O108 O 0.37647 0.03387 0.32095 0.0
C109 C 0.43616 0.09 0.26585 0.0
O110 O 0.40757 0.10066 0.2847 0.0
O111 O 0.43102 0.96882 0.29145 0.0
C112 C 0.34787 0.05306 0.31943 0.0
O113 O 0.33475 0.06234 0.2863 0.0
C114 C 0.34 0.98887 0.23041 0.0
O115 O 0.32331 0.98571 0.26279 0.0
O116 O 0.44104 0.05499 0.25965 0.0
C117 C 0.16059 0.16398 0.48973 0.0
O118 O 0.16274 0.1315 0.50633 0.0
O119 O 0.23206 0.13326 0.54761 0.0
Zn120 Zn 0.23743 0.16122 0.49915 0.0
O121 O 0.25405 0.12829 0.45584 0.0
C122 C 0.27601 0.22107 0.53965 0.0
O123 O 0.24821 0.21784 0.56226 0.0
O124 O 0.18955 0.18304 0.48414 0.0
C125 C 0.28534 0.11415 0.45657 0.0
O126 O 0.30576 0.11908 0.48725 0.0
C127 C 0.2309 0.09772 0.55095 0.0
O128 O 0.23301 0.07555 0.52056 0.0
O129 O 0.27624 0.2011 0.50915 0.0
C130 C 0.19829 0.03792 0.69719 0.0
O131 O 0.19587 0.06075 0.72707 0.0
O132 O 0.13317 0.02631 0.76958 0.0
Zn133 Zn 0.16247 0.98523 0.74574 0.0
O134 O 0.12867 0.94264 0.72951 0.0
C135 C 0.20529 0.98456 0.81496 0.0
O136 O 0.19266 0.01863 0.81996 0.0
O137 O 0.18712 0.00392 0.69925 0.0
C138 C 0.11448 0.92107 0.7535 0.0
O139 O 0.12189 0.92711 0.78975 0.0
C140 C 0.11045 0.04488 0.75084 0.0
O141 O 0.1057 0.03714 0.71443 0.0
O142 O 0.1975 0.96593 0.78442 0.0
C143 C 0.34478 0.86643 0.0029 0.0
O144 O 0.35031 0.90228 0.01229 0.0
O145 O 0.2915 0.91935 0.06486 0.0
Zn146 Zn 0.27343 0.88805 0.01944 0.0
O147 O 0.26224 0.92083 0.9755 0.0
C148 C 0.22837 0.83737 0.06055 0.0
O149 O 0.25895 0.83292 0.07926 0.0
O150 O 0.31279 0.85253 0.00422 0.0
C151 C 0.2623 0.90577 0.94232 0.0
O152 O 0.27008 0.86994 0.93817 0.0
C153 C 0.27145 0.93009 0.09192 0.0
O154 O 0.23648 0.92224 0.09006 0.0
O155 O 0.22807 0.85923 0.03278 0.0
C156 C 0.32305 0.3251 0.04566 0.0
O157 O 0.29253 0.32828 0.06407 0.0
O158 O 0.25861 0.39289 0.02936 0.0
Zn159 Zn 0.27961 0.35853 0.98925 0.0
O160 O 0.29265 0.38655 0.94261 0.0
C161 C 0.21531 0.30797 0.99147 0.0
O162 O 0.213 0.31927 0.02714 0.0
O163 O 0.32417 0.33516 0.01146 0.0
C164 C 0.29451 0.42214 0.93982 0.0
O165 O 0.289 0.44399 0.96985 0.0
C166 C 0.22703 0.40614 0.02664 0.0
O167 O 0.2078 0.39929 0.99543 0.0
O168 O 0.24185 0.31946 0.97199 0.0
C169 C 0.68364 0.14728 0.02328 0.0
O170 O 0.67739 0.11408 0.00663 0.0
O171 O 0.76806 0.0857 0.04353 0.0
Zn172 Zn 0.75449 0.12472 0.00593 0.0
O173 O 0.73422 0.10057 0.95761 0.0
C174 C 0.82192 0.12805 0.97466 0.0
O175 O 0.81139 0.09249 0.97054 0.0
O176 O 0.71629 0.15946 0.02718 0.0
C177 C 0.72536 0.06599 0.95223 0.0
O178 O 0.72944 0.04255 0.97992 0.0
C179 C 0.75355 0.0823 0.07569 0.0
O180 O 0.72666 0.10409 0.08522 0.0
O181 O 0.80104 0.15106 0.99136 0.0
C182 C 0.08518 0.54998 0.20717 0.0
O183 O 0.11975 0.55232 0.21671 0.0
O184 O 0.12654 0.45962 0.16657 0.0
Zn185 Zn 0.10022 0.47279 0.2146 0.0
O186 O 0.13513 0.48579 0.25797 0.0
C187 C 0.08419 0.39619 0.22952 0.0
O188 O 0.11774 0.3932 0.21801 0.0
O189 O 0.06953 0.51767 0.2048 0.0
C190 C 0.12378 0.48437 0.29173 0.0
O191 O 0.08992 0.47391 0.29729 0.0
C192 C 0.16067 0.46324 0.16324 0.0
O193 O 0.18044 0.476 0.19238 0.0
O194 O 0.06961 0.42827 0.22943 0.0
C195 C 0.80427 0.83451 0.56852 0.0
O196 O 0.7977 0.87033 0.57517 0.0
O197 O 0.722 0.87567 0.57245 0.0
Zn198 Zn 0.73977 0.84369 0.52874 0.0
O199 O 0.75956 0.8762 0.48794 0.0
C200 C 0.66682 0.82247 0.50939 0.0
O201 O 0.66228 0.85705 0.52258 0.0
O202 O 0.78197 0.81463 0.54808 0.0
C203 C 0.74356 0.88306 0.4569 0.0
O204 O 0.71071 0.86916 0.45007 0.0
C205 C 0.71495 0.91045 0.57072 0.0
O206 O 0.71861 0.92747 0.53847 0.0
O207 O 0.69867 0.8095 0.50879 0.0
C208 C 0.82457 -0.00472 0.18905 0.0
O209 O 0.85649 0.98119 0.1821 0.0
O210 O 0.86974 0.92875 0.24531 0.0
Zn211 Zn 0.84294 0.97414 0.26443 0.0
O212 O 0.87787 0.01525 0.28321 0.0
C213 C 0.82476 0.95466 0.33947 0.0
O214 O 0.8594 0.96285 0.34499 0.0
O215 O 0.8125 0.99463 0.22254 0.0
C216 C 0.86582 0.04785 0.29065 0.0
O217 O 0.83094 0.05344 0.28637 0.0
C218 C 0.90412 0.92759 0.24438 0.0
O219 O 0.92365 0.95729 0.25605 0.0
O220 O 0.81092 0.95804 0.30664 0.0
C221 C 0.18616 0.64707 0.53279 0.0
O222 O 0.21922 0.64875 0.54718 0.0
O223 O 0.23647 0.56505 0.53498 0.0
Zn224 Zn 0.21816 0.58954 0.48803 0.0
O225 O 0.19623 0.55274 0.44877 0.0
C226 C 0.28731 0.63026 0.48417 0.0
O227 O 0.29019 0.62183 0.52003 0.0
O228 O 0.17896 0.62406 0.50525 0.0
C229 C 0.21097 0.54665 0.41688 0.0
O230 O 0.24286 0.56223 0.41049 0.0
C231 C 0.25826 0.53798 0.53647 0.0
O232 O 0.26902 0.52159 0.50481 0.0
O233 O 0.25894 0.61986 0.46534 0.0
C234 C 0.3334 0.51112 0.67742 0.0
O235 O 0.35355 0.48136 0.68075 0.0
O236 O 0.40812 0.4967 0.73343 0.0
Zn237 Zn 0.37013 0.53437 0.74774 0.0
O238 O 0.39258 0.58587 0.75939 0.0
C239 C 0.3312 0.48393 0.79548 0.0
O240 O 0.33173 0.46193 0.76482 0.0
O241 O 0.33505 0.53708 0.70324 0.0
C242 C 0.42235 0.58945 0.77788 0.0
O243 O 0.43897 0.55902 0.78822 0.0
C244 C 0.42169 0.47303 0.75557 0.0
O245 O 0.41373 0.47466 0.79172 0.0
O246 O 0.34489 0.51706 0.79443 0.0
C247 C 0.55919 0.09012 0.71289 0.0
O248 O 0.53936 0.06037 0.70194 0.0
O249 O 0.63827 0.01618 0.69884 0.0
Zn250 Zn 0.61043 0.03599 0.74344 0.0
O251 O 0.6445 0.04562 0.78793 0.0
C252 C 0.56468 0.96769 0.7379 0.0
O253 O 0.57418 0.96652 0.70219 0.0
O254 O 0.5888 0.08565 0.73082 0.0
C255 C 0.64842 0.02183 0.81378 0.0
O256 O 0.63067 0.9893 0.81098 0.0
C257 C 0.65644 0.9865 0.70237 0.0
O258 O 0.65733 0.9704 0.73533 0.0
O259 O 0.57398 -0.00373 0.75883 0.0
C260 C 0.72658 0.70256 0.95068 0.0
O261 O 0.75424 0.69572 0.92867 0.0
O262 O 0.75071 0.62651 0.04536 0.0
Zn263 Zn 0.76566 0.65382 -0.00125 0.0
O264 O 0.77327 0.61685 0.95536 0.0
C265 C 0.84012 0.68285 0.99052 0.0
O266 O 0.83832 0.66576 0.95695 0.0
O267 O 0.72599 0.68855 0.98335 0.0
C268 C 0.79439 0.58934 0.95836 0.0
O269 O 0.81076 0.5842 0.99104 0.0
C270 C 0.72194 0.60615 0.04533 0.0
O271 O 0.70214 0.60258 0.01411 0.0
O272 O 0.81242 0.68242 0.01157 0.0
C273 C 0.93624 0.40556 0.78003 0.0
O274 O 0.92329 0.39818 0.74564 0.0
O275 O 0.86804 0.46397 0.73286 0.0
Zn276 Zn 0.90065 0.47966 0.7773 0.0
O277 O 0.87278 0.49891 0.82223 0.0
C278 C 0.92308 0.55462 0.75998 0.0
O279 O 0.89046 0.56158 0.77239 0.0
O280 O 0.93005 0.4371 0.79641 0.0
C281 C 0.84097 0.51183 0.82208 0.0
O282 O 0.82275 0.5132 0.7899 0.0
C283 C 0.84406 0.43767 0.7328 0.0
O284 O 0.83926 0.41859 0.76367 0.0
O285 O 0.93417 0.52098 0.75994 0.0
C286 C 0.81543 0.3618 0.4947 0.0
O287 O 0.82525 0.39685 0.50363 0.0
O288 O 0.76899 0.41513 0.56408 0.0
Zn289 Zn 0.74832 0.39175 0.51517 0.0
O290 O 0.74441 0.42858 0.47301 0.0
C291 C 0.69 0.33482 0.5194 0.0
O292 O 0.71445 0.31138 0.50685 0.0
O293 O 0.78235 0.35177 0.49773 0.0
C294 C 0.72757 0.45934 0.47567 0.0
O295 O 0.71317 0.46929 0.5082 0.0
C296 C 0.76755 0.39473 0.59303 0.0
O297 O 0.75174 0.36118 0.58965 0.0
O298 O 0.69857 0.36954 0.52466 0.0
C299 C 0.66937 0.54565 0.18496 0.0
O300 O 0.63484 0.53598 0.18661 0.0
O301 O 0.62799 0.5741 0.27343 0.0
Zn302 Zn 0.66026 0.53062 0.26114 0.0
O303 O 0.63011 0.48404 0.24637 0.0
C304 C 0.68484 0.53381 0.33965 0.0
O305 O 0.66024 0.55986 0.34233 0.0
O306 O 0.68867 0.54522 0.21514 0.0
C307 C 0.62622 0.45585 0.26738 0.0
O308 O 0.6415 0.45682 0.30125 0.0
C309 C 0.59498 0.57038 0.28266 0.0
O310 O 0.58025 0.5364 0.28417 0.0
O311 O 0.69138 0.51895 0.3072 0.0
C312 C 0.08217 0.32869 0.24809 0.0
C313 C 0.06535 0.36375 0.24651 0.0
H314 H 0.08058 0.27304 0.26967 0.0
C315 C 0.03153 0.36821 0.26367 0.0
H316 H 0.10813 0.32425 0.23495 0.0
C317 C 0.01576 0.33885 0.28362 0.0
C318 C 0.03344 0.3044 0.28676 0.0
H319 H 0.01777 0.3948 0.26283 0.0
H320 H 0.99024 0.34363 0.29756 0.0
C321 C 0.06635 0.29929 0.26797 0.0
C322 C 0.88504 0.77211 0.58246 0.0
C323 C 0.90218 0.78998 0.61428 0.0
H324 H 0.83991 0.7718 0.54333 0.0
C325 C 0.88649 0.82191 0.63114 0.0
H326 H 0.8965 0.74731 0.56906 0.0
C327 C 0.85464 0.83613 0.61619 0.0
C328 C 0.83737 0.81831 0.5845 0.0
H329 H 0.89911 0.83632 0.65564 0.0
H330 H 0.84343 0.86105 0.62963 0.0
C331 C 0.85262 0.78595 0.56792 0.0
C332 C 0.47013 0.63111 0.8097 0.0
C333 C 0.43691 0.62731 0.7898 0.0
H334 H 0.50836 0.66828 0.83886 0.0
C335 C 0.41718 0.65986 0.78279 0.0
H336 H 0.48609 0.60666 0.81546 0.0
C337 C 0.42993 0.69531 0.79634 0.0
C338 C 0.46273 0.69895 0.81705 0.0
H339 H 0.3915 0.65792 0.76749 0.0
H340 H 0.41378 0.71975 0.79108 0.0
C341 C 0.48292 0.66651 0.8231 0.0
C342 C 0.58778 0.17525 0.04554 0.0
C343 C 0.59348 0.20655 0.07046 0.0
H344 H 0.61168 0.13217 0.0112 0.0
C345 C 0.62926 0.21938 0.07853 0.0
H346 H 0.56062 0.16464 0.03866 0.0
C347 C 0.65871 0.20077 0.06259 0.0
C348 C 0.65292 0.16882 0.03851 0.0
H349 H 0.63458 0.2435 0.09757 0.0
H350 H 0.68595 0.21091 0.06978 0.0
C351 C 0.61713 0.15656 0.02985 0.0
C352 C 0.03028 0.58176 0.18161 0.0
C353 C 0.06577 0.58423 0.19674 0.0
H354 H 0.98634 0.61103 0.15648 0.0
C355 C 0.08339 0.61973 0.20021 0.0
H356 H 0.01592 0.55481 0.17868 0.0
C357 C 0.06646 0.65186 0.18762 0.0
C358 C 0.03152 0.64926 0.17117 0.0
H359 H 0.11064 0.62269 0.21196 0.0
H360 H 0.08122 0.67863 0.18998 0.0
C361 C 0.01332 0.61397 0.16891 0.0
C362 C 0.57149 0.79607 0.47571 0.0
C363 C 0.5756 0.75928 0.46074 0.0
H364 H 0.59691 0.84466 0.50288 0.0
C365 C 0.60974 0.74267 0.46336 0.0
H366 H 0.54555 0.80968 0.47424 0.0
C367 C 0.63939 0.7629 0.47966 0.0
C368 C 0.63539 0.80003 0.4938 0.0
H369 H 0.61381 0.71437 0.45203 0.0
H370 H 0.6655 0.74963 0.48068 0.0
C371 C 0.601 0.81616 0.49212 0.0
C372 C 0.46238 0.40604 0.68365 0.0
C373 C 0.46747 0.37376 0.70497 0.0
H374 H 0.44444 0.46279 0.683 0.0
C375 C 0.46109 0.37578 0.74412 0.0
H376 H 0.46741 0.40564 0.65349 0.0
C377 C 0.44798 0.40883 0.76116 0.0
C378 C 0.44098 0.44037 0.73931 0.0
H379 H 0.46496 0.35147 0.76137 0.0
H380 H 0.4419 0.40906 0.79108 0.0
C381 C 0.44927 0.43893 0.70061 0.0
C382 C 0.90574 0.12853 0.91466 0.0
C383 C 0.92239 0.16337 0.92507 0.0
H384 H 0.86133 0.0901 0.92239 0.0
C385 C 0.90604 0.18668 0.95257 0.0
H386 H 0.91771 0.10989 0.89366 0.0
C387 C 0.87319 0.17552 0.96878 0.0
C388 C 0.85662 0.14059 0.95823 0.0
H389 H 0.91823 0.2138 0.961 0.0
H390 H 0.86089 0.19409 0.98961 0.0
C391 C 0.87342 0.11715 0.93124 0.0
C392 C 0.33342 0.07782 0.42321 0.0
C393 C 0.29995 0.09583 0.422 0.0
H394 H 0.37469 0.04995 0.39182 0.0
C395 C 0.28155 0.09808 0.38699 0.0
H396 H 0.34821 0.07554 0.44974 0.0
C397 C 0.29688 0.08374 0.35373 0.0
C398 C 0.33074 0.06651 0.35482 0.0
H399 H 0.25571 0.11181 0.38508 0.0
H400 H 0.28235 0.08655 0.32711 0.0
C401 C 0.34858 0.06315 0.38999 0.0
C402 C 0.21146 0.02846 0.62805 0.0
C403 C 0.20987 0.05259 0.66039 0.0
H404 H 0.21947 0.0237 0.56813 0.0
C405 C 0.21723 0.0913 0.65669 0.0
H406 H 0.20601 -0.00155 0.62994 0.0
C407 C 0.22477 0.10576 0.62127 0.0
C408 C 0.22526 0.08182 0.58873 0.0
H409 H 0.21629 0.11067 0.681 0.0
H410 H 0.22963 0.13586 0.61934 0.0
C411 C 0.21915 0.04292 0.5926 0.0
C412 C 0.23543 0.92872 0.84196 0.0
C413 C 0.22389 0.96603 0.84651 0.0
H414 H 0.25675 0.88054 0.86855 0.0
C415 C 0.22765 0.98433 0.88234 0.0
H416 H 0.23305 0.91384 0.81471 0.0
C417 C 0.24114 0.96515 0.91332 0.0
C418 C 0.25121 0.92731 0.90907 0.0
H419 H 0.21911 0.0131 0.88681 0.0
H420 H 0.24276 0.97969 0.94078 0.0
C421 C 0.24897 0.90959 0.87288 0.0
C422 C 0.268 0.95198 0.15998 0.0
C423 C 0.28805 0.94806 0.1266 0.0
H424 H 0.2687 0.96782 0.21906 0.0
C425 C 0.32476 0.95959 0.12721 0.0
H426 H 0.23966 0.94333 0.16045 0.0
C427 C 0.34133 0.97379 0.1607 0.0
C428 C 0.32164 0.97649 0.19442 0.0
H429 H 0.34093 0.95709 0.10193 0.0
H430 H 0.36984 0.98178 0.1603 0.0
C431 C 0.28467 0.9659 0.1936 0.0
C432 C 0.38954 0.31084 0.04691 0.0
C433 C 0.3562 0.31297 0.06561 0.0
H434 H 0.44646 0.30057 0.05169 0.0
C435 C 0.35502 0.30498 0.10429 0.0
H436 H 0.39136 0.31682 0.0171 0.0
C437 C 0.3865 0.2959 0.12405 0.0
C438 C 0.41996 0.29443 0.10563 0.0
H439 H 0.32983 0.30631 0.11959 0.0
H440 H 0.38456 0.29033 0.15395 0.0
C441 C 0.42111 0.30158 0.06673 0.0
C442 C 0.97556 0.86221 0.20595 0.0
C443 C 0.95465 0.82971 0.19576 0.0
H444 H 0.97603 0.91861 0.22948 0.0
C445 C 0.91738 0.82905 0.20341 0.0
H446 H 0.00436 0.86357 0.20051 0.0
C447 C 0.90112 0.86065 0.21972 0.0
C448 C 0.92181 0.89352 0.229 0.0
H449 H 0.90049 0.80446 0.19593 0.0
H450 H 0.8722 0.85944 0.22459 0.0
C451 C 0.95931 0.89377 0.22253 0.0
C452 C 0.12076 0.66397 0.53858 0.0
C453 C 0.15704 0.66867 0.55104 0.0
H454 H 0.06522 0.67704 0.54849 0.0
C455 C 0.16507 0.69257 0.58269 0.0
H456 H 0.1137 0.64578 0.51421 0.0
C457 C 0.13737 0.71035 0.60229 0.0
C458 C 0.10099 0.70469 0.59067 0.0
H459 H 0.19272 0.69694 0.59294 0.0
H460 H 0.14452 0.72802 0.62701 0.0
C461 C 0.09298 0.68184 0.55822 0.0
C462 C -0.00272 0.60524 0.70704 0.0
C463 C 0.98337 0.64165 0.70494 0.0
H464 H 0.98922 0.54908 0.72623 0.0
C465 C 0.95099 0.64985 0.72364 0.0
H466 H 0.02224 0.59805 0.69306 0.0
C467 C 0.93209 0.62183 0.74258 0.0
C468 C 0.94513 0.58498 0.74326 0.0
H469 H 0.93963 0.67769 0.7228 0.0
H470 H 0.90673 0.62889 0.75583 0.0
C471 C 0.97834 0.57716 0.72603 0.0
C472 C 0.09297 0.15709 0.48423 0.0
C473 C 0.12516 0.17674 0.47548 0.0
H474 H 0.03543 0.15171 0.47595 0.0
C475 C 0.12327 0.20766 0.45175 0.0
H476 H 0.09348 0.13319 0.50254 0.0
C477 C 0.09003 0.21809 0.43631 0.0
C478 C 0.05791 0.19803 0.44452 0.0
H479 H 0.14755 0.22339 0.44443 0.0
H480 H 0.08959 0.24173 0.41767 0.0
C481 C 0.05967 0.16771 0.46903 0.0
C482 C 0.6063 0.38831 0.27352 0.0
C483 C 0.60665 0.42141 0.2527 0.0
H484 H 0.59069 0.32986 0.27486 0.0
C485 C 0.58936 0.42086 0.21693 0.0
H486 H 0.61934 0.3878 0.30119 0.0
C487 C 0.57288 0.38771 0.2019 0.0
C488 C 0.57342 0.35431 0.22223 0.0
H489 H 0.58899 0.44591 0.20021 0.0
H490 H 0.56031 0.38816 0.174 0.0
C491 C 0.58991 0.35508 0.2584 0.0
C492 C 0.40952 0.86033 0.98442 0.0
C493 C 0.37486 0.84371 0.98806 0.0
H494 H 0.46332 0.85435 0.96388 0.0
C495 C 0.36896 0.80598 0.9756 0.0
H496 H 0.41509 0.88924 0.99396 0.0
C497 C 0.39678 0.78583 0.95841 0.0
C498 C 0.43096 0.8031 0.95324 0.0
H499 H 0.34259 0.79231 0.97818 0.0
H500 H 0.3911 0.7572 0.94803 0.0
C501 C 0.43723 0.84028 0.96717 0.0
C502 C 0.95944 0.33992 0.78575 0.0
C503 C 0.9558 0.37667 0.80107 0.0
H504 H 0.97738 0.28389 0.79488 0.0
C505 C 0.96969 0.38534 0.83773 0.0
H506 H 0.9491 0.33235 0.75758 0.0
C507 C 0.98582 0.35769 0.85904 0.0
C508 C 0.98847 0.32067 0.84425 0.0
H509 H 0.96755 0.41343 0.85037 0.0
H510 H 0.9956 0.36526 0.88742 0.0
C511 C 0.97563 0.31217 0.80714 0.0
C512 C 0.34116 0.2406 0.53154 0.0
C513 C 0.3091 0.24249 0.55255 0.0
H514 H 0.39828 0.25275 0.53032 0.0
C515 C 0.30995 0.26197 0.58783 0.0
H516 H 0.34141 0.2259 0.50416 0.0
C517 C 0.34253 0.2773 0.6028 0.0
C518 C 0.37499 0.27348 0.58282 0.0
H519 H 0.28572 0.26418 0.60464 0.0
H520 H 0.34241 0.291 0.63067 0.0
C521 C 0.37379 0.25593 0.54654 0.0
C522 C 0.52233 0.63152 0.32516 0.0
C523 C 0.53856 0.66771 0.32375 0.0
H524 H 0.52729 0.57238 0.31306 0.0
C525 C 0.57228 0.67185 0.30622 0.0
H526 H 0.49627 0.62739 0.33832 0.0
C527 C 0.59012 0.6403 0.29191 0.0
C528 C 0.57454 0.60395 0.29465 0.0
H529 H 0.58548 0.69933 0.30459 0.0
H530 H 0.61653 0.64437 0.27946 0.0
C531 C 0.54011 0.59997 0.31067 0.0
C532 C 0.12874 0.80994 0.06753 0.0
C533 C 0.12819 0.7912 0.10197 0.0
H534 H 0.16086 0.83924 0.02734 0.0
C535 C 0.16106 0.78628 0.12166 0.0
H536 H 0.10388 0.81411 0.05165 0.0
C537 C 0.19366 0.80045 0.10768 0.0
C538 C 0.19415 0.82004 0.07377 0.0
H539 H 0.16164 0.77177 0.14818 0.0
H540 H 0.21839 0.79663 0.1239 0.0
C541 C 0.16139 0.82433 0.05362 0.0
C542 C 0.7021 0.91389 0.63998 0.0
C543 C 0.70163 0.93096 0.60462 0.0
H544 H 0.68858 0.91819 0.69856 0.0
C545 C 0.68762 0.96727 0.60196 0.0
H546 H 0.71293 0.88602 0.64304 0.0
C547 C 0.6735 0.98571 0.63388 0.0
C548 C 0.67338 0.96828 0.66908 0.0
H549 H 0.68693 0.98117 0.57512 0.0
H550 H 0.66228 0.0134 0.63085 0.0
C551 C 0.68825 0.9324 0.67188 0.0
C552 C 0.81853 0.93471 0.40636 0.0
C553 C 0.8029 0.93908 0.3703 0.0
H554 H 0.81202 0.91388 0.462 0.0
C555 C 0.76674 0.9269 0.36362 0.0
H556 H 0.84625 0.94396 0.41252 0.0
C557 C 0.74705 0.90956 0.39205 0.0
C558 C 0.76312 0.9041 0.42772 0.0
H559 H 0.75386 0.92998 0.33616 0.0
H560 H 0.71952 0.89973 0.38577 0.0
C561 C 0.79887 0.91745 0.43475 0.0
C562 C 0.80067 0.03661 0.09468 0.0
C563 C 0.76949 0.05695 0.10356 0.0
H564 H 0.84243 0.00112 0.11465 0.0
C565 C 0.75512 0.05461 0.14006 0.0
H566 H 0.81237 0.03766 0.06677 0.0
C567 C 0.77236 0.03358 0.16754 0.0
C568 C 0.80437 0.01452 0.15908 0.0
H569 H 0.73105 0.0698 0.14777 0.0
H570 H 0.7611 0.03314 0.19568 0.0
C571 C 0.81794 0.01568 0.12216 0.0
C572 C 0.6872 0.06776 0.85237 0.0
C573 C 0.67058 0.03183 0.84802 0.0
H574 H 0.71761 0.1066 0.88857 0.0
C575 C 0.67396 0.00629 0.87742 0.0
H576 H 0.68526 0.08805 0.83022 0.0
C577 C 0.69264 0.01692 0.911 0.0
C578 C 0.70815 0.05333 0.9158 0.0
H579 H 0.66157 0.97831 0.87487 0.0
H580 H 0.69413 -0.00306 0.93348 0.0
C581 C 0.70573 0.0784 0.8859 0.0
C582 C 0.66347 0.75183 0.88379 0.0
C583 C 0.63219 0.75568 0.9057 0.0
H584 H 0.71782 0.73237 0.88086 0.0
C585 C 0.63309 0.74425 0.94346 0.0
H586 H 0.66379 0.76051 0.85467 0.0
C587 C 0.66414 0.72805 0.95851 0.0
C588 C 0.69497 0.72299 0.93613 0.0
H589 H 0.6095 0.74693 0.96116 0.0
H590 H 0.66362 0.71868 0.98739 0.0
C591 C 0.69451 0.7357 0.89884 0.0
C592 C 0.09408 0.08193 0.80926 0.0
C593 C 0.09044 0.07554 0.76988 0.0
H594 H 0.0798 0.11572 0.85769 0.0
C595 C 0.06809 0.09908 0.74901 0.0
H596 H 0.11101 0.06425 0.82621 0.0
C597 C 0.0502 0.12878 0.76712 0.0
C598 C 0.0542 0.13538 0.80646 0.0
H599 H 0.06473 0.09488 0.71862 0.0
H600 H 0.03347 0.14671 0.75024 0.0
C601 C 0.07611 0.11144 0.82734 0.0
C602 C 0.90208 0.32374 0.45424 0.0
C603 C 0.89158 0.28648 0.44372 0.0
H604 H 0.88637 0.37661 0.47881 0.0
C605 C 0.85643 0.27347 0.45218 0.0
H606 H 0.92902 0.33458 0.44831 0.0
C607 C 0.83187 0.29767 0.46955 0.0
C608 C 0.84205 0.33528 0.47895 0.0
H609 H 0.84752 0.24489 0.44449 0.0
H610 H 0.80471 0.28708 0.47492 0.0
C611 C 0.8776 0.34784 0.47175 0.0
C612 C 0.54552 0.93299 0.79508 0.0
C613 C 0.55067 0.93316 0.75572 0.0
H614 H 0.53512 0.90016 0.84354 0.0
C615 C 0.54636 0.89905 0.73449 0.0
H616 H 0.54857 0.95872 0.81234 0.0
C617 C 0.5387 0.86527 0.75249 0.0
C618 C 0.53531 0.86493 0.79208 0.0
H619 H 0.55018 0.89817 0.70412 0.0
H620 H 0.53648 0.83932 0.7355 0.0
C621 C 0.53802 0.8993 0.81304 0.0
C622 C 0.90038 0.14471 0.3243 0.0
C623 C 0.93782 0.13918 0.32843 0.0
H624 H 0.84839 0.12033 0.30922 0.0
C625 C 0.95148 0.10331 0.31987 0.0
H626 H 0.88891 0.17198 0.33069 0.0
C627 C 0.92814 0.07359 0.3076 0.0
C628 C 0.89067 0.07915 0.30361 0.0
H629 H 0.98018 0.0981 0.32281 0.0
H630 H 0.93948 0.04625 0.30129 0.0
C631 C 0.87709 0.11506 0.31202 0.0
C632 C 0.57179 0.15977 0.71137 0.0
C633 C 0.54873 0.1285 0.70232 0.0
H634 H 0.58209 0.21896 0.70604 0.0
C635 C 0.51647 0.13416 0.68185 0.0
H636 H 0.59682 0.15647 0.72721 0.0
C637 C 0.50796 0.17012 0.66983 0.0
C638 C 0.53161 0.20116 0.67789 0.0
H639 H 0.49806 0.11073 0.67452 0.0
H640 H 0.48322 0.17338 0.65348 0.0
C641 C 0.56336 0.19566 0.69923 0.0
C642 C 0.18777 0.27444 0.93427 0.0
C643 C 0.18475 0.28694 0.97225 0.0
H644 H 0.16105 0.24985 0.88505 0.0
C645 C 0.15139 0.28194 0.99042 0.0
H646 H 0.21308 0.27773 0.91945 0.0
C647 C 0.12134 0.26606 0.97053 0.0
C648 C 0.12412 0.25479 0.93215 0.0
H649 H 0.14815 0.29135 0.01964 0.0
H650 H 0.09578 0.26335 0.98501 0.0
C651 C 0.15784 0.25852 0.91449 0.0
C652 C 0.34405 0.67569 0.40881 0.0
C653 C 0.37567 0.68677 0.42937 0.0
H654 H 0.29136 0.64929 0.40993 0.0
C655 C 0.37763 0.67993 0.46833 0.0
H656 H 0.34162 0.68059 0.37877 0.0
C657 C 0.34877 0.66194 0.48622 0.0
C658 C 0.31733 0.65046 0.46554 0.0
H659 H 0.4016 0.68815 0.48499 0.0
H660 H 0.35128 0.65679 0.5162 0.0
C661 C 0.31519 0.65776 0.42669 0.0
C662 C 0.79631 0.55196 0.85662 0.0
C663 C 0.82648 0.52858 0.85749 0.0
H664 H 0.76247 0.58958 0.88789 0.0
C665 C 0.84417 0.52309 0.89237 0.0
H666 H 0.78207 0.55672 0.83022 0.0
C667 C 0.83282 0.54168 0.92543 0.0
C668 C 0.80372 0.56642 0.92428 0.0
H669 H 0.86736 0.50501 0.89405 0.0
H670 H 0.84766 0.53756 0.95162 0.0
C671 C 0.78514 0.57084 0.88967 0.0
C672 C 0.66327 0.55529 0.11539 0.0
C673 C 0.68436 0.55882 0.14889 0.0
H674 H 0.65863 0.56713 0.05655 0.0
C675 C 0.71881 0.57645 0.14767 0.0
H676 H 0.63667 0.54167 0.11526 0.0
C677 C 0.73137 0.59128 0.11387 0.0
C678 C 0.70981 0.58854 0.0806 0.0
H679 H 0.73571 0.5796 0.17298 0.0
H680 H 0.75774 0.60536 0.11398 0.0
C681 C 0.67587 0.56987 0.08164 0.0
C682 C 0.73264 0.46824 0.40565 0.0
C683 C 0.7207 0.48125 0.44132 0.0
H684 H 0.73097 0.47474 0.34554 0.0
C685 C 0.69999 0.51394 0.4434 0.0
H686 H 0.74882 0.44324 0.40301 0.0
C687 C 0.68988 0.53208 0.41043 0.0
C688 C 0.70018 0.5179 0.37459 0.0
H689 H 0.69054 0.52489 0.4704 0.0
H690 H 0.67286 0.55645 0.41302 0.0
C691 C 0.72246 0.48634 0.37264 0.0
C692 C 0.79999 0.39566 0.6955 0.0
C693 C 0.82294 0.42783 0.69766 0.0
H694 H 0.7645 0.36004 0.66086 0.0
C695 C 0.82627 0.45004 0.66552 0.0
H696 H 0.79675 0.37797 0.71971 0.0
C697 C 0.80762 0.43987 0.63178 0.0
C698 C 0.78539 0.40715 0.62936 0.0
H699 H 0.84362 0.47513 0.66625 0.0
H700 H 0.81121 0.45726 0.60741 0.0
C701 C 0.78151 0.38537 0.66171 0.0
C702 C 0.4517 0.15691 0.25114 0.0
C703 C 0.46037 0.11855 0.24893 0.0
H704 H 0.46427 0.21274 0.23351 0.0
C705 C 0.49112 0.10768 0.22863 0.0
H706 H 0.42829 0.1663 0.26666 0.0
C707 C 0.51193 0.13443 0.20975 0.0
C708 C 0.50226 0.17253 0.21059 0.0
H709 H 0.49864 0.07837 0.22655 0.0
H710 H 0.53487 0.12501 0.1935 0.0
C711 C 0.47234 0.18357 0.23209 0.0
C712 C 0.06159 0.85213 0.68881 0.0
C713 C 0.04966 0.82494 0.71418 0.0
H714 H 0.09125 0.90367 0.68129 0.0
C715 C 0.058 0.83036 0.75298 0.0
H716 H 0.05558 0.8489 0.65873 0.0
C717 C 0.07852 0.86198 0.76599 0.0
C718 C 0.09115 0.88866 0.7404 0.0
H719 H 0.04914 0.80995 0.77325 0.0
H720 H 0.08498 0.86516 0.79597 0.0
C721 C 0.08212 0.88357 0.70175 0.0
C722 C 0.48234 0.87246 0.33439 0.0
C723 C 0.46064 0.84085 0.34297 0.0
H724 H 0.48404 0.92873 0.31418 0.0
C725 C 0.42308 0.84177 0.33603 0.0
H726 H 0.5114 0.87262 0.33932 0.0
C727 C 0.40742 0.87394 0.32181 0.0
C728 C 0.42898 0.90586 0.31404 0.0
H729 H 0.40557 0.81789 0.34227 0.0
H730 H 0.37831 0.87387 0.31735 0.0
C731 C 0.46668 0.90462 0.31998 0.0
C732 C 0.9076 0.69255 0.98637 0.0
C733 C 0.87506 0.69884 0.00561 0.0
H734 H 0.96561 0.69828 0.98771 0.0
C735 C 0.87646 0.71849 0.04081 0.0
H736 H 0.90744 0.67749 0.95918 0.0
C737 C 0.90965 0.73041 0.05704 0.0
C738 C 0.94234 0.72286 0.03857 0.0
H739 H 0.85192 0.724 0.0563 0.0
H740 H 0.90965 0.74479 0.08459 0.0
C741 C 0.94094 0.70439 0.00274 0.0
C742 C 0.59291 0.33308 0.55259 0.0
C743 C 0.58481 0.29417 0.55302 0.0
H744 H 0.63231 0.37636 0.5417 0.0
C745 C 0.61094 0.26874 0.54019 0.0
H746 H 0.5734 0.3535 0.56218 0.0
C747 C 0.64484 0.28193 0.52836 0.0
C748 C 0.65333 0.3208 0.52925 0.0
H749 H 0.60555 0.2386 0.54012 0.0
H750 H 0.66466 0.26159 0.51938 0.0
C751 C 0.62677 0.34623 0.54092 0.0
C752 C 0.17286 0.4292 0.06149 0.0
C753 C 0.2105 0.42433 0.06024 0.0
H754 H 0.12756 0.44509 0.09509 0.0
C755 C 0.23186 0.43443 0.09248 0.0
H756 H 0.15564 0.42161 0.03717 0.0
C757 C 0.21579 0.44807 0.12564 0.0
C758 C 0.17799 0.45152 0.12736 0.0
H759 H 0.26097 0.4311 0.09238 0.0
H760 H 0.23292 0.45491 0.15021 0.0
C761 C 0.15675 0.44247 0.09476 0.0
C762 C 0.31799 0.49234 0.86471 0.0
C763 C 0.31934 0.46879 0.83194 0.0
H764 H 0.309 0.49614 0.92453 0.0
C765 C 0.31136 0.4301 0.83481 0.0
H766 H 0.32399 0.5223 0.86343 0.0
C767 C 0.30313 0.41511 0.86981 0.0
C768 C 0.30241 0.43849 0.90272 0.0
H769 H 0.31223 0.41116 0.81017 0.0
H770 H 0.29754 0.38507 0.87105 0.0
C771 C 0.30946 0.47736 0.89973 0.0
C772 C 0.29801 0.49811 0.57633 0.0
C773 C 0.27477 0.52868 0.5734 0.0
H774 H 0.33444 0.46831 0.61162 0.0
C775 C 0.26916 0.55196 0.60574 0.0
H776 H 0.30282 0.4796 0.55201 0.0
C777 C 0.2875 0.54572 0.63979 0.0
C778 C 0.3116 0.51585 0.64241 0.0
H779 H 0.25142 0.57579 0.60452 0.0
H780 H 0.28328 0.56476 0.66386 0.0
C781 C 0.31609 0.49164 0.61054 0.0
C782 C 0.13398 0.4974 0.36127 0.0
C783 C 0.14745 0.49686 0.32422 0.0
H784 H 0.14354 0.51319 0.41964 0.0
C785 C 0.18313 0.50995 0.31844 0.0
H786 H 0.10669 0.4873 0.36676 0.0
C787 C 0.20434 0.52469 0.34884 0.0
C788 C 0.19029 0.52674 0.38565 0.0
H789 H 0.19442 0.50971 0.29029 0.0
H790 H 0.23135 0.53555 0.34323 0.0
C791 C 0.15515 0.51219 0.39164 0.0
loop_
_geom_bond_atom_site_label_1
_geom_bond_atom_site_label_2
_geom_bond_distance
_geom_bond_site_symmetry_2
_ccdc_geom_bond_type
C0 O1 1.160 . S
C0 O7 1.185 . S
O1 C0 1.160 . S
O2 Zn3 1.894 1_655 S
O2 C10 1.284 . S
Zn3 O2 1.894 1_455 S
Zn3 O4 2.033 . S
Zn3 O7 2.080 1_455 S
Zn3 O12 1.986 . S
O4 Zn3 2.033 . S
O4 C8 1.278 . S
C5 O6 1.203 . S
C5 O12 1.267 . S
O6 C5 1.203 . S
O7 C0 1.185 . S
O7 Zn3 2.080 1_655 S
C8 O4 1.278 . S
C8 O9 1.211 . S
O9 C8 1.211 . S
C10 O2 1.284 . S
C10 O11 1.273 1_655 S
O11 C10 1.273 1_455 S
O12 Zn3 1.986 . S
O12 C5 1.267 . S
C13 O14 1.160 . S
C13 O20 1.185 . S
O14 C13 1.160 . S
O15 Zn16 1.899 1_655 S
O15 C23 1.284 . S
Zn16 O15 1.899 1_455 S
Zn16 O17 2.032 . S
Zn16 O20 2.086 . S
Zn16 O25 1.977 1_455 S
O17 Zn16 2.032 . S
O17 C21 1.278 . S
C18 O19 1.203 . S
C18 O25 1.267 . S
O19 C18 1.203 . S
O20 C13 1.185 . S
O20 Zn16 2.086 . S
C21 O17 1.278 . S
C21 O22 1.211 1_455 S
O22 C21 1.211 1_655 S
C23 O15 1.284 . S
C23 O24 1.273 . S
O24 C23 1.273 . S
O25 Zn16 1.977 1_655 S
O25 C18 1.267 . S
C26 O27 1.160 . S
C26 O33 1.185 . S
O27 C26 1.160 . S
O28 Zn29 1.899 . S
O28 C36 1.284 . S
Zn29 O28 1.899 . S
Zn29 O30 2.032 . S
Zn29 O33 2.086 . S
Zn29 O38 1.977 . S
O30 Zn29 2.032 . S
O30 C34 1.278 . S
C31 O32 1.203 . S
C31 O38 1.267 . S
O32 C31 1.203 . S
O33 C26 1.185 . S
O33 Zn29 2.086 . S
C34 O30 1.278 . S
C34 O35 1.211 . S
O35 C34 1.211 . S
C36 O28 1.284 . S
C36 O37 1.273 . S
O37 C36 1.273 . S
O38 Zn29 1.977 . S
O38 C31 1.267 . S
C39 O40 1.160 . S
C39 O46 1.185 . S
O40 C39 1.160 . S
O41 Zn42 1.899 . S
O41 C49 1.284 . S
Zn42 O41 1.899 . S
Zn42 O43 2.032 . S
Zn42 O46 2.086 . S
Zn42 O51 1.977 . S
O43 Zn42 2.032 . S
O43 C47 1.278 . S
C44 O45 1.203 . S
C44 O51 1.267 . S
O45 C44 1.203 . S
O46 C39 1.185 . S
O46 Zn42 2.086 . S
C47 O43 1.278 . S
C47 O48 1.211 . S
O48 C47 1.211 . S
C49 O41 1.284 . S
C49 O50 1.273 . S
O50 C49 1.273 . S
O51 Zn42 1.977 . S
O51 C44 1.267 . S
C52 O53 1.160 . S
C52 O59 1.185 . S
O53 C52 1.160 . S
O54 Zn55 1.899 . S
O54 C62 1.284 . S
Zn55 O54 1.899 . S
Zn55 O56 2.032 . S
Zn55 O59 2.086 . S
Zn55 O64 1.977 1_455 S
O56 Zn55 2.032 . S
O56 C60 1.278 1_455 S
C57 O58 1.203 . S
C57 O64 1.267 . S
O58 C57 1.203 . S
O59 C52 1.185 . S
O59 Zn55 2.086 . S
C60 O56 1.278 1_655 S
C60 O61 1.211 . S
O61 C60 1.211 . S
C62 O54 1.284 . S
C62 O63 1.273 . S
O63 C62 1.273 . S
O64 Zn55 1.977 1_655 S
O64 C57 1.267 . S
C65 O66 1.160 . S
C65 O72 1.185 . S
O66 C65 1.160 . S
O67 Zn68 1.899 . S
O67 C75 1.284 . S
Zn68 O67 1.899 . S
Zn68 O69 2.032 . S
Zn68 O72 2.086 . S
Zn68 O77 1.977 . S
O69 Zn68 2.032 . S
O69 C73 1.278 . S
C70 O71 1.203 . S
C70 O77 1.267 . S
O71 C70 1.203 . S
O72 C65 1.185 . S
O72 Zn68 2.086 . S
C73 O69 1.278 . S
C73 O74 1.211 . S
O74 C73 1.211 . S
C75 O67 1.284 . S
C75 O76 1.273 . S
O76 C75 1.273 . S
O77 Zn68 1.977 . S
O77 C70 1.267 . S
C78 O79 1.160 . S
C78 O85 1.185 . S
O79 C78 1.160 . S
O80 Zn81 1.899 . S
O80 C88 1.284 . S
Zn81 O80 1.899 . S
Zn81 O82 2.032 . S
Zn81 O85 2.086 . S
Zn81 O90 1.977 . S
O82 Zn81 2.032 . S
O82 C86 1.278 . S
C83 O84 1.203 . S
C83 O90 1.267 . S
O84 C83 1.203 . S
O85 C78 1.185 . S
O85 Zn81 2.086 . S
C86 O82 1.278 . S
C86 O87 1.211 . S
O87 C86 1.211 . S
C88 O80 1.284 . S
C88 O89 1.273 . S
O89 C88 1.273 . S
O90 Zn81 1.977 . S
O90 C83 1.267 . S
C91 O92 1.160 . S
C91 O98 1.185 . S
O92 C91 1.160 . S
O93 Zn94 1.899 . S
O93 C101 1.284 . S
Zn94 O93 1.899 . S
Zn94 O95 2.032 1_455 S
Zn94 O98 2.086 1_455 S
Zn94 O103 1.977 . S
O95 Zn94 2.032 1_655 S
O95 C99 1.278 . S
C96 O97 1.203 . S
C96 O103 1.267 . S
O97 C96 1.203 . S
O98 C91 1.185 . S
O98 Zn94 2.086 1_655 S
C99 O95 1.278 . S
C99 O100 1.211 1_655 S
O100 C99 1.211 1_455 S
C101 O93 1.284 . S
C101 O102 1.273 . S
O102 C101 1.273 . S
O103 Zn94 1.977 . S
O103 C96 1.267 . S
C104 O105 1.160 . S
C104 O111 1.185 . S
O105 C104 1.160 . S
O106 Zn107 1.899 1_565 S
O106 C114 1.284 . S
Zn107 O106 1.899 1_545 S
Zn107 O108 2.032 . S
Zn107 O111 2.086 1_545 S
Zn107 O116 1.977 . S
O108 Zn107 2.032 . S
O108 C112 1.278 . S
C109 O110 1.203 . S
C109 O116 1.267 . S
O110 C109 1.203 . S
O111 C104 1.185 . S
O111 Zn107 2.086 1_565 S
C112 O108 1.278 . S
C112 O113 1.211 . S
O113 C112 1.211 . S
C114 O106 1.284 . S
C114 O115 1.273 1_565 S
O115 C114 1.273 1_545 S
O116 Zn107 1.977 . S
O116 C109 1.267 . S
C117 O118 1.160 . S
C117 O124 1.185 . S
O118 C117 1.160 . S
O119 Zn120 1.899 . S
O119 C127 1.284 . S
Zn120 O119 1.899 . S
Zn120 O121 2.032 . S
Zn120 O124 2.086 . S
Zn120 O129 1.977 . S
O121 Zn120 2.032 . S
O121 C125 1.278 . S
C122 O123 1.203 . S
C122 O129 1.267 . S
O123 C122 1.203 . S
O124 C117 1.185 . S
O124 Zn120 2.086 . S
C125 O121 1.278 . S
C125 O126 1.211 . S
O126 C125 1.211 . S
C127 O119 1.284 . S
C127 O128 1.273 . S
O128 C127 1.273 . S
O129 Zn120 1.977 . S
O129 C122 1.267 . S
C130 O131 1.160 . S
C130 O137 1.185 . S
O131 C130 1.160 . S
O132 Zn133 1.899 . S
O132 C140 1.284 . S
Zn133 O132 1.899 . S
Zn133 O134 2.032 1_545 S
Zn133 O137 2.086 . S
Zn133 O142 1.977 1_545 S
O134 Zn133 2.032 1_565 S
O134 C138 1.278 . S
C135 O136 1.203 . S
C135 O142 1.267 . S
O136 C135 1.203 . S
O137 C130 1.185 . S
O137 Zn133 2.086 . S
C138 O134 1.278 . S
C138 O139 1.211 . S
O139 C138 1.211 . S
C140 O132 1.284 . S
C140 O141 1.273 . S
O141 C140 1.273 . S
O142 Zn133 1.977 1_565 S
O142 C135 1.267 . S
C143 O144 1.160 . S
C143 O150 1.185 . S
O144 C143 1.160 . S
O145 Zn146 1.899 . S
O145 C153 1.284 . S
Zn146 O145 1.899 . S
Zn146 O147 2.032 1_554 S
Zn146 O150 2.086 1_554 S
Zn146 O155 1.977 . S
O147 Zn146 2.032 1_556 S
O147 C151 1.278 . S
C148 O149 1.203 . S
C148 O155 1.267 . S
O149 C148 1.203 . S
O150 C143 1.185 . S
O150 Zn146 2.086 1_556 S
C151 O147 1.278 . S
C151 O152 1.211 . S
O152 C151 1.211 . S
C153 O145 1.284 . S
C153 O154 1.273 . S
O154 C153 1.273 . S
O155 Zn146 1.977 . S
O155 C148 1.267 . S
C156 O157 1.160 . S
C156 O163 1.185 . S
O157 C156 1.160 . S
O158 Zn159 1.899 . S
O158 C166 1.284 . S
Zn159 O158 1.899 . S
Zn159 O160 2.032 1_554 S
Zn159 O163 2.086 . S
Zn159 O168 1.977 1_554 S
O160 Zn159 2.032 1_556 S
O160 C164 1.278 . S
C161 O162 1.203 . S
C161 O168 1.267 . S
O162 C161 1.203 . S
O163 C156 1.185 . S
O163 Zn159 2.086 . S
C164 O160 1.278 . S
C164 O165 1.211 . S
O165 C164 1.211 . S
C166 O158 1.284 . S
C166 O167 1.273 . S
O167 C166 1.273 . S
O168 Zn159 1.977 1_556 S
O168 C161 1.267 . S
C169 O170 1.160 . S
C169 O176 1.185 . S
O170 C169 1.160 . S
O171 Zn172 1.899 . S
O171 C179 1.284 . S
Zn172 O171 1.899 . S
Zn172 O173 2.032 1_554 S
Zn172 O176 2.086 . S
Zn172 O181 1.977 1_554 S
O173 Zn172 2.032 1_556 S
O173 C177 1.278 . S
C174 O175 1.203 . S
C174 O181 1.267 . S
O175 C174 1.203 . S
O176 C169 1.185 . S
O176 Zn172 2.086 . S
C177 O173 1.278 . S
C177 O178 1.211 . S
O178 C177 1.211 . S
C179 O171 1.284 . S
C179 O180 1.273 . S
O180 C179 1.273 . S
O181 Zn172 1.977 1_556 S
O181 C174 1.267 . S
C182 O183 1.160 . S
C182 O189 1.185 . S
O183 C182 1.160 . S
O184 Zn185 1.899 . S
O184 C192 1.284 . S
Zn185 O184 1.899 . S
Zn185 O186 2.032 . S
Zn185 O189 2.086 . S
Zn185 O194 1.977 . S
O186 Zn185 2.032 . S
O186 C190 1.278 . S
C187 O188 1.203 . S
C187 O194 1.267 . S
O188 C187 1.203 . S
O189 C182 1.185 . S
O189 Zn185 2.086 . S
C190 O186 1.278 . S
C190 O191 1.211 . S
O191 C190 1.211 . S
C192 O184 1.284 . S
C192 O193 1.273 . S
O193 C192 1.273 . S
O194 Zn185 1.977 . S
O194 C187 1.267 . S
C195 O196 1.160 . S
C195 O202 1.185 . S
O196 C195 1.160 . S
O197 Zn198 1.899 . S
O197 C205 1.284 . S
Zn198 O197 1.899 . S
Zn198 O199 2.032 . S
Zn198 O202 2.086 . S
Zn198 O207 1.977 . S
O199 Zn198 2.032 . S
O199 C203 1.278 . S
C200 O201 1.203 . S
C200 O207 1.267 . S
O201 C200 1.203 . S
O202 C195 1.185 . S
O202 Zn198 2.086 . S
C203 O199 1.278 . S
C203 O204 1.211 . S
O204 C203 1.211 . S
C205 O197 1.284 . S
C205 O206 1.273 . S
O206 C205 1.273 . S
O207 Zn198 1.977 . S
O207 C200 1.267 . S
C208 O209 1.160 . S
C208 O215 1.185 . S
O209 C208 1.160 . S
O210 Zn211 1.899 . S
O210 C218 1.284 . S
Zn211 O210 1.899 . S
Zn211 O212 2.032 1_565 S
Zn211 O215 2.086 1_565 S
Zn211 O220 1.977 . S
O212 Zn211 2.032 1_545 S
O212 C216 1.278 . S
C213 O214 1.203 . S
C213 O220 1.267 . S
O214 C213 1.203 . S
O215 C208 1.185 . S
O215 Zn211 2.086 1_545 S
C216 O212 1.278 . S
C216 O217 1.211 . S
O217 C216 1.211 . S
C218 O210 1.284 . S
C218 O219 1.273 . S
O219 C218 1.273 . S
O220 Zn211 1.977 . S
O220 C213 1.267 . S
C221 O222 1.160 . S
C221 O228 1.185 . S
O222 C221 1.160 . S
O223 Zn224 1.899 . S
O223 C231 1.284 . S
Zn224 O223 1.899 . S
Zn224 O225 2.032 . S
Zn224 O228 2.086 . S
Zn224 O233 1.977 . S
O225 Zn224 2.032 . S
O225 C229 1.278 . S
C226 O227 1.203 . S
C226 O233 1.267 . S
O227 C226 1.203 . S
O228 C221 1.185 . S
O228 Zn224 2.086 . S
C229 O225 1.278 . S
C229 O230 1.211 . S
O230 C229 1.211 . S
C231 O223 1.284 . S
C231 O232 1.273 . S
O232 C231 1.273 . S
O233 Zn224 1.977 . S
O233 C226 1.267 . S
C234 O235 1.160 . S
C234 O241 1.185 . S
O235 C234 1.160 . S
O236 Zn237 1.899 . S
O236 C244 1.284 . S
Zn237 O236 1.899 . S
Zn237 O238 2.032 . S
Zn237 O241 2.086 . S
Zn237 O246 1.977 . S
O238 Zn237 2.032 . S
O238 C242 1.278 . S
C239 O240 1.203 . S
C239 O246 1.267 . S
O240 C239 1.203 . S
O241 C234 1.185 . S
O241 Zn237 2.086 . S
C242 O238 1.278 . S
C242 O243 1.211 . S
O243 C242 1.211 . S
C244 O236 1.284 . S
C244 O245 1.273 . S
O245 C244 1.273 . S
O246 Zn237 1.977 . S
O246 C239 1.267 . S
C247 O248 1.160 . S
C247 O254 1.185 . S
O248 C247 1.160 . S
O249 Zn250 1.899 1_565 S
O249 C257 1.284 . S
Zn250 O249 1.899 1_545 S
Zn250 O251 2.032 . S
Zn250 O254 2.086 . S
Zn250 O259 1.977 1_545 S
O251 Zn250 2.032 . S
O251 C255 1.278 . S
C252 O253 1.203 . S
C252 O259 1.267 . S
O253 C252 1.203 . S
O254 C247 1.185 . S
O254 Zn250 2.086 . S
C255 O251 1.278 . S
C255 O256 1.211 1_545 S
O256 C255 1.211 1_565 S
C257 O249 1.284 . S
C257 O258 1.273 . S
O258 C257 1.273 . S
O259 Zn250 1.977 1_565 S
O259 C252 1.267 . S
C260 O261 1.160 . S
C260 O267 1.185 . S
O261 C260 1.160 . S
O262 Zn263 1.899 . S
O262 C270 1.284 . S
Zn263 O262 1.899 . S
Zn263 O264 2.032 1_554 S
Zn263 O267 2.086 1_554 S
Zn263 O272 1.977 . S
O264 Zn263 2.032 1_556 S
O264 C268 1.278 . S
C265 O266 1.203 . S
C265 O272 1.267 . S
O266 C265 1.203 . S
O267 C260 1.185 . S
O267 Zn263 2.086 1_556 S
C268 O264 1.278 . S
C268 O269 1.211 . S
O269 C268 1.211 . S
C270 O262 1.284 . S
C270 O271 1.273 . S
O271 C270 1.273 . S
O272 Zn263 1.977 . S
O272 C265 1.267 . S
C273 O274 1.160 . S
C273 O280 1.185 . S
O274 C273 1.160 . S
O275 Zn276 1.899 . S
O275 C283 1.284 . S
Zn276 O275 1.899 . S
Zn276 O277 2.032 . S
Zn276 O280 2.086 . S
Zn276 O285 1.977 . S
O277 Zn276 2.032 . S
O277 C281 1.278 . S
C278 O279 1.203 . S
C278 O285 1.267 . S
O279 C278 1.203 . S
O280 C273 1.185 . S
O280 Zn276 2.086 . S
C281 O277 1.278 . S
C281 O282 1.211 . S
O282 C281 1.211 . S
C283 O275 1.284 . S
C283 O284 1.273 . S
O284 C283 1.273 . S
O285 Zn276 1.977 . S
O285 C278 1.267 . S
C286 O287 1.160 . S
C286 O293 1.185 . S
O287 C286 1.160 . S
O288 Zn289 1.899 . S
O288 C296 1.284 . S
Zn289 O288 1.899 . S
Zn289 O290 2.032 . S
Zn289 O293 2.086 . S
Zn289 O298 1.977 . S
O290 Zn289 2.032 . S
O290 C294 1.278 . S
C291 O292 1.203 . S
C291 O298 1.267 . S
O292 C291 1.203 . S
O293 C286 1.185 . S
O293 Zn289 2.086 . S
C294 O290 1.278 . S
C294 O295 1.211 . S
O295 C294 1.211 . S
C296 O288 1.284 . S
C296 O297 1.273 . S
O297 C296 1.273 . S
O298 Zn289 1.977 . S
O298 C291 1.267 . S
C299 O300 1.160 . S
C299 O306 1.185 . S
O300 C299 1.160 . S
O301 Zn302 1.899 . S
O301 C309 1.284 . S
Zn302 O301 1.899 . S
Zn302 O303 2.032 . S
Zn302 O306 2.086 . S
Zn302 O311 1.977 . S
O303 Zn302 2.032 . S
O303 C307 1.278 . S
C304 O305 1.203 . S
C304 O311 1.267 . S
O305 C304 1.203 . S
O306 C299 1.185 . S
O306 Zn302 2.086 . S
C307 O303 1.278 . S
C307 O308 1.211 . S
O308 C307 1.211 . S
C309 O301 1.284 . S
C309 O310 1.273 . S
O310 C309 1.273 . S
O311 Zn302 1.977 . S
O311 C304 1.267 . S
C312 C313 1.387 . S
C312 H316 0.950 . S
C312 C321 1.390 . S
C313 C312 1.387 . S
C313 C315 1.387 . S
H314 C321 0.950 . S
C315 C313 1.387 . S
C315 C317 1.390 . S
C315 H319 0.950 . S
H316 C312 0.950 . S
C317 C315 1.390 . S
C317 C318 1.387 . S
C317 H320 0.950 . S
C318 C317 1.387 . S
C318 C321 1.387 . S
H319 C315 0.950 . S
H320 C317 0.950 . S
C321 C312 1.390 . S
C321 H314 0.950 . S
C321 C318 1.387 . S
C322 C323 1.387 . S
C322 H326 0.950 . S
C322 C331 1.390 . S
C323 C322 1.387 . S
C323 C325 1.387 . S
H324 C331 0.950 . S
C325 C323 1.387 . S
C325 C327 1.390 . S
C325 H329 0.950 . S
H326 C322 0.950 . S
C327 C325 1.390 . S
C327 C328 1.387 . S
C327 H330 0.950 . S
C328 C327 1.387 . S
C328 C331 1.387 . S
H329 C325 0.950 . S
H330 C327 0.950 . S
C331 C322 1.390 . S
C331 H324 0.950 . S
C331 C328 1.387 . S
C332 C333 1.387 . S
C332 H336 0.950 . S
C332 C341 1.390 . S
C333 C332 1.387 . S
C333 C335 1.387 . S
H334 C341 0.950 . S
C335 C333 1.387 . S
C335 C337 1.390 . S
C335 H339 0.950 . S
H336 C332 0.950 . S
C337 C335 1.390 . S
C337 C338 1.387 . S
C337 H340 0.950 . S
C338 C337 1.387 . S
C338 C341 1.387 . S
H339 C335 0.950 . S
H340 C337 0.950 . S
C341 C332 1.390 . S
C341 H334 0.950 . S
C341 C338 1.387 . S
C342 C343 1.387 . S
C342 H346 0.950 . S
C342 C351 1.390 . S
C343 C342 1.387 . S
C343 C345 1.387 . S
H344 C351 0.950 . S
C345 C343 1.387 . S
C345 C347 1.390 . S
C345 H349 0.950 . S
H346 C342 0.950 . S
C347 C345 1.390 . S
C347 C348 1.387 . S
C347 H350 0.950 . S
C348 C347 1.387 . S
C348 C351 1.387 . S
H349 C345 0.950 . S
H350 C347 0.950 . S
C351 C342 1.390 . S
C351 H344 0.950 . S
C351 C348 1.387 . S
C352 C353 1.387 . S
C352 H356 0.950 . S
C352 C361 1.390 . S
C353 C352 1.387 . S
C353 C355 1.387 . S
H354 C361 0.950 1_655 S
C355 C353 1.387 . S
C355 C357 1.390 . S
C355 H359 0.950 . S
H356 C352 0.950 . S
C357 C355 1.390 . S
C357 C358 1.387 . S
C357 H360 0.950 . S
C358 C357 1.387 . S
C358 C361 1.387 . S
H359 C355 0.950 . S
H360 C357 0.950 . S
C361 C352 1.390 . S
C361 H354 0.950 1_455 S
C361 C358 1.387 . S
C362 C363 1.387 . S
C362 H366 0.950 . S
C362 C371 1.390 . S
C363 C362 1.387 . S
C363 C365 1.387 . S
H364 C371 0.950 . S
C365 C363 1.387 . S
C365 C367 1.390 . S
C365 H369 0.950 . S
H366 C362 0.950 . S
C367 C365 1.390 . S
C367 C368 1.387 . S
C367 H370 0.950 . S
C368 C367 1.387 . S
C368 C371 1.387 . S
H369 C365 0.950 . S
H370 C367 0.950 . S
C371 C362 1.390 . S
C371 H364 0.950 . S
C371 C368 1.387 . S
C372 C373 1.387 . S
C372 H376 0.950 . S
C372 C381 1.390 . S
C373 C372 1.387 . S
C373 C375 1.387 . S
H374 C381 0.950 . S
C375 C373 1.387 . S
C375 C377 1.390 . S
C375 H379 0.950 . S
H376 C372 0.950 . S
C377 C375 1.390 . S
C377 C378 1.387 . S
C377 H380 0.950 . S
C378 C377 1.387 . S
C378 C381 1.387 . S
H379 C375 0.950 . S
H380 C377 0.950 . S
C381 C372 1.390 . S
C381 H374 0.950 . S
C381 C378 1.387 . S
C382 C383 1.387 . S
C382 H386 0.950 . S
C382 C391 1.390 . S
C383 C382 1.387 . S
C383 C385 1.387 . S
H384 C391 0.950 . S
C385 C383 1.387 . S
C385 C387 1.390 . S
C385 H389 0.950 . S
H386 C382 0.950 . S
C387 C385 1.390 . S
C387 C388 1.387 . S
C387 H390 0.950 1_556 S
C388 C387 1.387 . S
C388 C391 1.387 . S
H389 C385 0.950 . S
H390 C387 0.950 1_554 S
C391 C382 1.390 . S
C391 H384 0.950 . S
C391 C388 1.387 . S
C392 C393 1.387 . S
C392 H396 0.950 . S
C392 C401 1.390 . S
C393 C392 1.387 . S
C393 C395 1.387 . S
H394 C401 0.950 1_565 S
C395 C393 1.387 . S
C395 C397 1.390 . S
C395 H399 0.950 . S
H396 C392 0.950 . S
C397 C395 1.390 . S
C397 C398 1.387 . S
C397 H400 0.950 . S
C398 C397 1.387 . S
C398 C401 1.387 . S
H399 C395 0.950 . S
H400 C397 0.950 . S
C401 C392 1.390 . S
C401 H394 0.950 1_545 S
C401 C398 1.387 . S
C402 C403 1.387 . S
C402 H406 0.950 1_545 S
C402 C411 1.390 . S
C403 C402 1.387 . S
C403 C405 1.387 . S
H404 C411 0.950 . S
C405 C403 1.387 . S
C405 C407 1.390 . S
C405 H409 0.950 . S
H406 C402 0.950 1_565 S
C407 C405 1.390 . S
C407 C408 1.387 . S
C407 H410 0.950 . S
C408 C407 1.387 . S
C408 C411 1.387 . S
H409 C405 0.950 . S
H410 C407 0.950 . S
C411 C402 1.390 . S
C411 H404 0.950 . S
C411 C408 1.387 . S
C412 C413 1.387 . S
C412 H416 0.950 . S
C412 C421 1.390 . S
C413 C412 1.387 . S
C413 C415 1.387 . S
H414 C421 0.950 . S
C415 C413 1.387 . S
C415 C417 1.390 . S
C415 H419 0.950 1_565 S
H416 C412 0.950 . S
C417 C415 1.390 . S
C417 C418 1.387 . S
C417 H420 0.950 1_565 S
C418 C417 1.387 . S
C418 C421 1.387 . S
H419 C415 0.950 1_545 S
H420 C417 0.950 1_545 S
C421 C412 1.390 . S
C421 H414 0.950 . S
C421 C418 1.387 . S
C422 C423 1.387 . S
C422 H426 0.950 . S
C422 C431 1.390 . S
C423 C422 1.387 . S
C423 C425 1.387 . S
H424 C431 0.948 1_545 S
C425 C423 1.387 . S
C425 C427 1.390 . S
C425 H429 0.950 . S
H426 C422 0.950 . S
C427 C425 1.390 . S
C427 C428 1.387 . S
C427 H430 0.950 . S
C428 C427 1.387 . S
C428 C431 1.387 . S
H429 C425 0.950 . S
H430 C427 0.950 . S
C431 C422 1.390 . S
C431 H424 0.948 1_565 S
C431 C428 1.387 . S
C432 C433 1.387 . S
C432 H436 0.950 . S
C432 C441 1.390 . S
C433 C432 1.387 . S
C433 C435 1.387 . S
H434 C441 0.950 . S
C435 C433 1.387 . S
C435 C437 1.390 . S
C435 H439 0.950 . S
H436 C432 0.950 . S
C437 C435 1.390 . S
C437 C438 1.387 . S
C437 H440 0.950 . S
C438 C437 1.387 . S
C438 C441 1.387 . S
H439 C435 0.950 . S
H440 C437 0.950 . S
C441 C432 1.390 . S
C441 H434 0.950 . S
C441 C438 1.387 . S
C442 C443 1.387 . S
C442 H446 0.950 . S
C442 C451 1.390 . S
C443 C442 1.387 . S
C443 C445 1.387 . S
H444 C451 0.950 . S
C445 C443 1.387 . S
C445 C447 1.390 . S
C445 H449 0.950 . S
H446 C442 0.950 . S
C447 C445 1.390 . S
C447 C448 1.387 . S
C447 H450 0.950 . S
C448 C447 1.387 . S
C448 C451 1.387 . S
H449 C445 0.950 . S
H450 C447 0.950 . S
C451 C442 1.390 . S
C451 H444 0.950 . S
C451 C448 1.387 . S
C452 C453 1.387 . S
C452 H456 0.950 . S
C452 C461 1.390 . S
C453 C452 1.387 . S
C453 C455 1.387 . S
H454 C461 0.950 . S
C455 C453 1.387 . S
C455 C457 1.390 . S
C455 H459 0.950 . S
H456 C452 0.950 . S
C457 C455 1.390 . S
C457 C458 1.387 . S
C457 H460 0.950 . S
C458 C457 1.387 . S
C458 C461 1.387 . S
H459 C455 0.950 . S
H460 C457 0.950 . S
C461 C452 1.390 . S
C461 H454 0.950 . S
C461 C458 1.387 . S
C462 C463 1.387 . S
C462 H466 0.950 1_655 S
C462 C471 1.390 . S
C463 C462 1.387 . S
C463 C465 1.387 . S
H464 C471 0.950 . S
C465 C463 1.387 . S
C465 C467 1.390 . S
C465 H469 0.950 . S
H466 C462 0.950 1_455 S
C467 C465 1.390 . S
C467 C468 1.387 . S
C467 H470 0.950 . S
C468 C467 1.387 . S
C468 C471 1.387 . S
H469 C465 0.950 . S
H470 C467 0.950 . S
C471 C462 1.390 . S
C471 H464 0.950 . S
C471 C468 1.387 . S
C472 C473 1.387 . S
C472 H476 0.950 . S
C472 C481 1.390 . S
C473 C472 1.387 . S
C473 C475 1.387 . S
H474 C481 0.950 . S
C475 C473 1.387 . S
C475 C477 1.390 . S
C475 H479 0.950 . S
H476 C472 0.950 . S
C477 C475 1.390 . S
C477 C478 1.387 . S
C477 H480 0.950 . S
C478 C477 1.387 . S
C478 C481 1.387 . S
H479 C475 0.950 . S
H480 C477 0.950 . S
C481 C472 1.390 . S
C481 H474 0.950 . S
C481 C478 1.387 . S
C482 C483 1.387 . S
C482 H486 0.950 . S
C482 C491 1.390 . S
C483 C482 1.387 . S
C483 C485 1.387 . S
H484 C491 0.950 . S
C485 C483 1.387 . S
C485 C487 1.390 . S
C485 H489 0.950 . S
H486 C482 0.950 . S
C487 C485 1.390 . S
C487 C488 1.387 . S
C487 H490 0.950 . S
C488 C487 1.387 . S
C488 C491 1.387 . S
H489 C485 0.950 . S
H490 C487 0.950 . S
C491 C482 1.390 . S
C491 H484 0.950 . S
C491 C488 1.387 . S
C492 C493 1.387 . S
C492 H496 0.950 1_556 S
C492 C501 1.390 . S
C493 C492 1.387 . S
C493 C495 1.387 . S
H494 C501 0.950 . S
C495 C493 1.387 . S
C495 C497 1.390 . S
C495 H499 0.950 . S
H496 C492 0.950 1_554 S
C497 C495 1.390 . S
C497 C498 1.387 . S
C497 H500 0.950 . S
C498 C497 1.387 . S
C498 C501 1.387 . S
H499 C495 0.950 . S
H500 C497 0.950 . S
C501 C492 1.390 . S
C501 H494 0.950 . S
C501 C498 1.387 . S
C502 C503 1.387 . S
C502 H506 0.950 . S
C502 C511 1.390 . S
C503 C502 1.387 . S
C503 C505 1.387 . S
H504 C511 0.950 . S
C505 C503 1.387 . S
C505 C507 1.390 . S
C505 H509 0.950 . S
H506 C502 0.950 . S
C507 C505 1.390 . S
C507 C508 1.387 . S
C507 H510 0.950 . S
C508 C507 1.387 . S
C508 C511 1.387 . S
H509 C505 0.950 . S
H510 C507 0.950 . S
C511 C502 1.390 . S
C511 H504 0.950 . S
C511 C508 1.387 . S
C512 C513 1.387 . S
C512 H516 0.950 . S
C512 C521 1.390 . S
C513 C512 1.387 . S
C513 C515 1.387 . S
H514 C521 0.950 . S
C515 C513 1.387 . S
C515 C517 1.390 . S
C515 H519 0.950 . S
H516 C512 0.950 . S
C517 C515 1.390 . S
C517 C518 1.387 . S
C517 H520 0.950 . S
C518 C517 1.387 . S
C518 C521 1.387 . S
H519 C515 0.950 . S
H520 C517 0.950 . S
C521 C512 1.390 . S
C521 H514 0.950 . S
C521 C518 1.387 . S
C522 C523 1.387 . S
C522 H526 0.950 . S
C522 C531 1.390 . S
C523 C522 1.387 . S
C523 C525 1.387 . S
H524 C531 0.950 . S
C525 C523 1.387 . S
C525 C527 1.390 . S
C525 H529 0.950 . S
H526 C522 0.950 . S
C527 C525 1.390 . S
C527 C528 1.387 . S
C527 H530 0.950 . S
C528 C527 1.387 . S
C528 C531 1.387 . S
H529 C525 0.950 . S
H530 C527 0.950 . S
C531 C522 1.390 . S
C531 H524 0.950 . S
C531 C528 1.387 . S
C532 C533 1.387 . S
C532 H536 0.950 . S
C532 C541 1.390 . S
C533 C532 1.387 . S
C533 C535 1.387 . S
H534 C541 0.950 . S
C535 C533 1.387 . S
C535 C537 1.390 . S
C535 H539 0.950 . S
H536 C532 0.950 . S
C537 C535 1.390 . S
C537 C538 1.387 . S
C537 H540 0.950 . S
C538 C537 1.387 . S
C538 C541 1.387 . S
H539 C535 0.950 . S
H540 C537 0.950 . S
C541 C532 1.390 . S
C541 H534 0.950 . S
C541 C538 1.387 . S
C542 C543 1.387 . S
C542 H546 0.950 . S
C542 C551 1.390 . S
C543 C542 1.387 . S
C543 C545 1.387 . S
H544 C551 0.950 . S
C545 C543 1.387 . S
C545 C547 1.390 . S
C545 H549 0.950 . S
H546 C542 0.950 . S
C547 C545 1.390 . S
C547 C548 1.387 . S
C547 H550 0.950 1_565 S
C548 C547 1.387 . S
C548 C551 1.387 . S
H549 C545 0.950 . S
H550 C547 0.950 1_545 S
C551 C542 1.390 . S
C551 H544 0.950 . S
C551 C548 1.387 . S
C552 C553 1.387 . S
C552 H556 0.950 . S
C552 C561 1.390 . S
C553 C552 1.387 . S
C553 C555 1.387 . S
H554 C561 0.950 . S
C555 C553 1.387 . S
C555 C557 1.390 . S
C555 H559 0.950 1_565 S
H556 C552 0.950 . S
C557 C555 1.390 . S
C557 C558 1.387 . S
C557 H560 0.950 . S
C558 C557 1.387 . S
C558 C561 1.387 . S
H559 C555 0.950 1_545 S
H560 C557 0.950 . S
C561 C552 1.390 . S
C561 H554 0.950 . S
C561 C558 1.387 . S
C562 C563 1.387 . S
C562 H566 0.950 . S
C562 C571 1.390 . S
C563 C562 1.387 . S
C563 C565 1.387 . S
H564 C571 0.950 . S
C565 C563 1.387 . S
C565 C567 1.390 . S
C565 H569 0.950 . S
H566 C562 0.950 . S
C567 C565 1.390 . S
C567 C568 1.387 . S
C567 H570 0.950 1_545 S
C568 C567 1.387 . S
C568 C571 1.387 . S
H569 C565 0.950 . S
H570 C567 0.950 1_565 S
C571 C562 1.390 . S
C571 H564 0.950 . S
C571 C568 1.387 . S
C572 C573 1.387 . S
C572 H576 0.950 . S
C572 C581 1.390 . S
C573 C572 1.387 . S
C573 C575 1.387 . S
H574 C581 0.950 . S
C575 C573 1.387 . S
C575 C577 1.390 . S
C575 H579 0.950 . S
H576 C572 0.950 . S
C577 C575 1.390 . S
C577 C578 1.387 . S
C577 H580 0.950 . S
C578 C577 1.387 . S
C578 C581 1.387 . S
H579 C575 0.950 . S
H580 C577 0.950 . S
C581 C572 1.390 . S
C581 H574 0.950 . S
C581 C578 1.387 . S
C582 C583 1.387 . S
C582 H586 0.950 . S
C582 C591 1.390 . S
C583 C582 1.387 . S
C583 C585 1.387 . S
H584 C591 0.950 . S
C585 C583 1.387 . S
C585 C587 1.390 . S
C585 H589 0.950 . S
H586 C582 0.950 . S
C587 C585 1.390 . S
C587 C588 1.387 . S
C587 H590 0.950 . S
C588 C587 1.387 . S
C588 C591 1.387 . S
H589 C585 0.950 . S
H590 C587 0.950 . S
C591 C582 1.390 . S
C591 H584 0.950 . S
C591 C588 1.387 . S
C592 C593 1.387 . S
C592 H596 0.950 . S
C592 C601 1.390 . S
C593 C592 1.387 . S
C593 C595 1.387 . S
H594 C601 0.950 . S
C595 C593 1.387 . S
C595 C597 1.390 . S
C595 H599 0.950 . S
H596 C592 0.950 . S
C597 C595 1.390 . S
C597 C598 1.387 . S
C597 H600 0.950 . S
C598 C597 1.387 . S
C598 C601 1.387 . S
H599 C595 0.950 . S
H600 C597 0.950 . S
C601 C592 1.390 . S
C601 H594 0.950 . S
C601 C598 1.387 . S
C602 C603 1.387 . S
C602 H606 0.950 . S
C602 C611 1.390 . S
C603 C602 1.387 . S
C603 C605 1.387 . S
H604 C611 0.950 . S
C605 C603 1.387 . S
C605 C607 1.390 . S
C605 H609 0.950 . S
H606 C602 0.950 . S
C607 C605 1.390 . S
C607 C608 1.387 . S
C607 H610 0.950 . S
C608 C607 1.387 . S
C608 C611 1.387 . S
H609 C605 0.950 . S
H610 C607 0.950 . S
C611 C602 1.390 . S
C611 H604 0.950 . S
C611 C608 1.387 . S
C612 C613 1.387 . S
C612 H616 0.950 . S
C612 C621 1.390 . S
C613 C612 1.387 . S
C613 C615 1.387 . S
H614 C621 0.950 . S
C615 C613 1.387 . S
C615 C617 1.390 . S
C615 H619 0.950 . S
H616 C612 0.950 . S
C617 C615 1.390 . S
C617 C618 1.387 . S
C617 H620 0.950 . S
C618 C617 1.387 . S
C618 C621 1.387 . S
H619 C615 0.950 . S
H620 C617 0.950 . S
C621 C612 1.390 . S
C621 H614 0.950 . S
C621 C618 1.387 . S
C622 C623 1.387 . S
C622 H626 0.950 . S
C622 C631 1.390 . S
C623 C622 1.387 . S
C623 C625 1.387 . S
H624 C631 0.950 . S
C625 C623 1.387 . S
C625 C627 1.390 . S
C625 H629 0.950 1_655 S
H626 C622 0.950 . S
C627 C625 1.390 . S
C627 C628 1.387 . S
C627 H630 0.950 . S
C628 C627 1.387 . S
C628 C631 1.387 . S
H629 C625 0.950 1_455 S
H630 C627 0.950 . S
C631 C622 1.390 . S
C631 H624 0.950 . S
C631 C628 1.387 . S
C632 C633 1.387 . S
C632 H636 0.950 . S
C632 C641 1.390 . S
C633 C632 1.387 . S
C633 C635 1.387 . S
H634 C641 0.950 . S
C635 C633 1.387 . S
C635 C637 1.390 . S
C635 H639 0.950 . S
H636 C632 0.950 . S
C637 C635 1.390 . S
C637 C638 1.387 . S
C637 H640 0.950 . S
C638 C637 1.387 . S
C638 C641 1.387 . S
H639 C635 0.950 . S
H640 C637 0.950 . S
C641 C632 1.390 . S
C641 H634 0.950 . S
C641 C638 1.387 . S
C642 C643 1.387 . S
C642 H646 0.950 . S
C642 C651 1.390 . S
C643 C642 1.387 . S
C643 C645 1.387 . S
H644 C651 0.950 . S
C645 C643 1.387 . S
C645 C647 1.390 . S
C645 H649 0.950 1_556 S
H646 C642 0.950 . S
C647 C645 1.390 . S
C647 C648 1.387 . S
C647 H650 0.950 . S
C648 C647 1.387 . S
C648 C651 1.387 . S
H649 C645 0.950 1_554 S
H650 C647 0.950 . S
C651 C642 1.390 . S
C651 H644 0.950 . S
C651 C648 1.387 . S
C652 C653 1.387 . S
C652 H656 0.950 . S
C652 C661 1.390 . S
C653 C652 1.387 . S
C653 C655 1.387 . S
H654 C661 0.950 . S
C655 C653 1.387 . S
C655 C657 1.390 . S
C655 H659 0.950 . S
H656 C652 0.950 . S
C657 C655 1.390 . S
C657 C658 1.387 . S
C657 H660 0.950 . S
C658 C657 1.387 . S
C658 C661 1.387 . S
H659 C655 0.950 . S
H660 C657 0.950 . S
C661 C652 1.390 . S
C661 H654 0.950 . S
C661 C658 1.387 . S
C662 C663 1.387 . S
C662 H666 0.950 . S
C662 C671 1.390 . S
C663 C662 1.387 . S
C663 C665 1.387 . S
H664 C671 0.950 . S
C665 C663 1.387 . S
C665 C667 1.390 . S
C665 H669 0.950 . S
H666 C662 0.950 . S
C667 C665 1.390 . S
C667 C668 1.387 . S
C667 H670 0.950 . S
C668 C667 1.387 . S
C668 C671 1.387 . S
H669 C665 0.950 . S
H670 C667 0.950 . S
C671 C662 1.390 . S
C671 H664 0.950 . S
C671 C668 1.387 . S
C672 C673 1.387 . S
C672 H676 0.950 . S
C672 C681 1.390 . S
C673 C672 1.387 . S
C673 C675 1.387 . S
H674 C681 0.950 . S
C675 C673 1.387 . S
C675 C677 1.390 . S
C675 H679 0.950 . S
H676 C672 0.950 . S
C677 C675 1.390 . S
C677 C678 1.387 . S
C677 H680 0.950 . S
C678 C677 1.387 . S
C678 C681 1.387 . S
H679 C675 0.950 . S
H680 C677 0.950 . S
C681 C672 1.390 . S
C681 H674 0.950 . S
C681 C678 1.387 . S
C682 C683 1.387 . S
C682 H686 0.950 . S
C682 C691 1.390 . S
C683 C682 1.387 . S
C683 C685 1.387 . S
H684 C691 0.950 . S
C685 C683 1.387 . S
C685 C687 1.390 . S
C685 H689 0.950 . S
H686 C682 0.950 . S
C687 C685 1.390 . S
C687 C688 1.387 . S
C687 H690 0.950 . S
C688 C687 1.387 . S
C688 C691 1.387 . S
H689 C685 0.950 . S
H690 C687 0.950 . S
C691 C682 1.390 . S
C691 H684 0.950 . S
C691 C688 1.387 . S
C692 C693 1.387 . S
C692 H696 0.950 . S
C692 C701 1.390 . S
C693 C692 1.387 . S
C693 C695 1.387 . S
H694 C701 0.950 . S
C695 C693 1.387 . S
C695 C697 1.390 . S
C695 H699 0.950 . S
H696 C692 0.950 . S
C697 C695 1.390 . S
C697 C698 1.387 . S
C697 H700 0.950 . S
C698 C697 1.387 . S
C698 C701 1.387 . S
H699 C695 0.950 . S
H700 C697 0.950 . S
C701 C692 1.390 . S
C701 H694 0.950 . S
C701 C698 1.387 . S
C702 C703 1.387 . S
C702 H706 0.950 . S
C702 C711 1.390 . S
C703 C702 1.387 . S
C703 C705 1.387 . S
H704 C711 0.950 . S
C705 C703 1.387 . S
C705 C707 1.390 . S
C705 H709 0.950 . S
H706 C702 0.950 . S
C707 C705 1.390 . S
C707 C708 1.387 . S
C707 H710 0.950 . S
C708 C707 1.387 . S
C708 C711 1.387 . S
H709 C705 0.950 . S
H710 C707 0.950 . S
C711 C702 1.390 . S
C711 H704 0.950 . S
C711 C708 1.387 . S
C712 C713 1.387 . S
C712 H716 0.950 . S
C712 C721 1.390 . S
C713 C712 1.387 . S
C713 C715 1.387 . S
H714 C721 0.950 . S
C715 C713 1.387 . S
C715 C717 1.390 . S
C715 H719 0.950 . S
H716 C712 0.950 . S
C717 C715 1.390 . S
C717 C718 1.387 . S
C717 H720 0.950 . S
C718 C717 1.387 . S
C718 C721 1.387 . S
H719 C715 0.950 . S
H720 C717 0.950 . S
C721 C712 1.390 . S
C721 H714 0.950 . S
C721 C718 1.387 . S
C722 C723 1.387 . S
C722 H726 0.950 . S
C722 C731 1.390 . S
C723 C722 1.387 . S
C723 C725 1.387 . S
H724 C731 0.950 . S
C725 C723 1.387 . S
C725 C727 1.390 . S
C725 H729 0.950 . S
H726 C722 0.950 . S
C727 C725 1.390 . S
C727 C728 1.387 . S
C727 H730 0.950 . S
C728 C727 1.387 . S
C728 C731 1.387 . S
H729 C725 0.950 . S
H730 C727 0.950 . S
C731 C722 1.390 . S
C731 H724 0.950 . S
C731 C728 1.387 . S
C732 C733 1.387 . S
C732 H736 0.950 . S
C732 C741 1.390 . S
C733 C732 1.387 . S
C733 C735 1.387 . S
H734 C741 0.950 . S
C735 C733 1.387 . S
C735 C737 1.390 . S
C735 H739 0.950 . S
H736 C732 0.950 . S
C737 C735 1.390 . S
C737 C738 1.387 . S
C737 H740 0.950 . S
C738 C737 1.387 . S
C738 C741 1.387 . S
H739 C735 0.950 . S
H740 C737 0.950 . S
C741 C732 1.390 . S
C741 H734 0.950 . S
C741 C738 1.387 . S
C742 C743 1.387 . S
C742 H746 0.950 . S
C742 C751 1.390 . S
C743 C742 1.387 . S
C743 C745 1.387 . S
H744 C751 0.950 . S
C745 C743 1.387 . S
C745 C747 1.390 . S
C745 H749 0.950 . S
H746 C742 0.950 . S
C747 C745 1.390 . S
C747 C748 1.387 . S
C747 H750 0.950 . S
C748 C747 1.387 . S
C748 C751 1.387 . S
H749 C745 0.950 . S
H750 C747 0.950 . S
C751 C742 1.390 . S
C751 H744 0.950 . S
C751 C748 1.387 . S
C752 C753 1.387 . S
C752 H756 0.950 . S
C752 C761 1.390 . S
C753 C752 1.387 . S
C753 C755 1.387 . S
H754 C761 0.950 . S
C755 C753 1.387 . S
C755 C757 1.390 . S
C755 H759 0.950 . S
H756 C752 0.950 . S
C757 C755 1.390 . S
C757 C758 1.387 . S
C757 H760 0.950 . S
C758 C757 1.387 . S
C758 C761 1.387 . S
H759 C755 0.950 . S
H760 C757 0.950 . S
C761 C752 1.390 . S
C761 H754 0.950 . S
C761 C758 1.387 . S
C762 C763 1.387 . S
C762 H766 0.950 . S
C762 C771 1.390 . S
C763 C762 1.387 . S
C763 C765 1.387 . S
H764 C771 0.950 . S
C765 C763 1.387 . S
C765 C767 1.390 . S
C765 H769 0.950 . S
H766 C762 0.950 . S
C767 C765 1.390 . S
C767 C768 1.387 . S
C767 H770 0.950 . S
C768 C767 1.387 . S
C768 C771 1.387 . S
H769 C765 0.950 . S
H770 C767 0.950 . S
C771 C762 1.390 . S
C771 H764 0.950 . S
C771 C768 1.387 . S
C772 C773 1.387 . S
C772 H776 0.950 . S
C772 C781 1.390 . S
C773 C772 1.387 . S
C773 C775 1.387 . S
H774 C781 0.950 . S
C775 C773 1.387 . S
C775 C777 1.390 . S
C775 H779 0.950 . S
H776 C772 0.950 . S
C777 C775 1.390 . S
C777 C778 1.387 . S
C777 H780 0.950 . S
C778 C777 1.387 . S
C778 C781 1.387 . S
H779 C775 0.950 . S
H780 C777 0.950 . S
C781 C772 1.390 . S
C781 H774 0.950 . S
C781 C778 1.387 . S
C782 C783 1.387 . S
C782 H786 0.950 . S
C782 C791 1.390 . S
C783 C782 1.387 . S
C783 C785 1.387 . S
H784 C791 0.950 . S
C785 C783 1.387 . S
C785 C787 1.390 . S
C785 H789 0.950 . S
H786 C782 0.950 . S
C787 C785 1.390 . S
C787 C788 1.387 . S
C787 H790 0.950 . S
C788 C787 1.387 . S
C788 C791 1.387 . S
H789 C785 0.950 . S
H790 C787 0.950 . S
C791 C782 1.390 . S
C791 H784 0.950 . S
C791 C788 1.387 . S
C313 C187 1.336 . S
C318 C8 1.351 . S
C323 C18 1.270 . S
C328 C195 1.282 . S
C333 C242 1.386 . S
C338 C36 1.404 . S
C343 C39 1.268 . S
C348 C169 1.267 . S
C353 C182 1.376 . S
C358 C62 1.404 . S
C363 C70 1.279 . S
C368 C200 1.280 . S
C373 C86 1.314 . S
C378 C244 1.356 . S
C383 C91 1.276 . S
C388 C174 1.256 . S
C393 C125 1.323 . S
C398 C112 1.347 . S
C403 C130 1.375 . S
C408 C127 1.403 . S
C413 C135 1.335 . S
C418 C151 1.352 . S
C423 C153 1.391 . S
C428 C114 1.388 . S
C433 C156 1.282 . S
C438 C44 1.270 . S
C443 C60 1.312 . S
C448 C218 1.359 . S
C453 C221 1.268 . S
C458 C13 1.267 . S
C463 C23 1.489 . S
C468 C278 1.444 . S
C473 C117 1.375 . S
C478 C5 1.401 . S
C483 C307 1.438 . S
C488 C47 1.435 . S
C493 C143 1.383 . S
C498 C26 1.383 . S
C503 C273 1.472 . S
C508 C99 1.472 . S
C513 C122 1.397 . S
C518 C83 1.404 . S
C523 C75 1.494 . S
C528 C309 1.490 . S
C533 C52 1.371 . S
C538 C148 1.392 . S
C543 C205 1.496 . S
C548 C257 1.492 . S
C553 C213 1.530 . S
C558 C203 1.499 . S
C563 C179 1.468 . S
C568 C208 1.399 . S
C573 C255 1.437 . S
C578 C177 1.436 . S
C583 C31 1.400 . S
C588 C260 1.377 . S
C593 C140 1.491 . S
C598 C101 1.494 . S
C603 C0 1.386 . S
C608 C286 1.385 . S
C613 C252 1.333 . S
C618 C34 1.354 . S
C623 C10 1.404 . S
C628 C216 1.383 . S
C633 C247 1.378 . S
C638 C88 1.404 . S
C643 C161 1.280 . S
C648 C96 1.279 . S
C653 C65 1.277 . S
C658 C226 1.256 . S
C663 C281 1.345 . S
C668 C268 1.325 . S
C673 C299 1.375 . S
C678 C270 1.403 . S
C683 C294 1.353 . S
C688 C304 1.337 . S
C693 C283 1.387 . S
C698 C296 1.390 . S
C703 C109 1.446 . S
C708 C49 1.490 . S
C713 C21 1.438 . S
C718 C138 1.440 . S
C723 C73 1.472 . S
C728 C104 1.472 . S
C733 C265 1.397 . S
C738 C57 1.407 . S
C743 C78 1.370 . S
C748 C291 1.392 . S
C753 C166 1.495 . S
C758 C192 1.492 . S
C763 C239 1.528 . S
C768 C164 1.494 . S
C773 C231 1.467 . S
C778 C234 1.397 . S
C783 C190 1.435 . S
C788 C229 1.433 . S
