# Generated by pormake.
# Topology qtz-x, (6)-cn, num edge types: 1
# Building blocks:
#     Node 0, Type 0, BuildingBlock: KUMJIN_clean_sbu_1, # of connection points: 6
#     Node 1, Type 0, BuildingBlock: KUMJIN_clean_sbu_1, # of connection points: 6
#     Node 2, Type 0, BuildingBlock: KUMJIN_clean_sbu_1, # of connection points: 6
#     Edge 3, Type (0, 0), BuildingBlock: KIFKEQ_clean_linker_1, # of connection points: 2
#     Edge 4, Type (0, 0), BuildingBlock: KIFKEQ_clean_linker_1, # of connection points: 2
#     Edge 5, Type (0, 0), BuildingBlock: KIFKEQ_clean_linker_1, # of connection points: 2
#     Edge 6, Type (0, 0), BuildingBlock: KIFKEQ_clean_linker_1, # of connection points: 2
#     Edge 7, Type (0, 0), BuildingBlock: KIFKEQ_clean_linker_1, # of connection points: 2
#     Edge 8, Type (0, 0), BuildingBlock: KIFKEQ_clean_linker_1, # of connection points: 2
#     Edge 9, Type (0, 0), BuildingBlock: KIFKEQ_clean_linker_1, # of connection points: 2
#     Edge 10, Type (0, 0), BuildingBlock: KIFKEQ_clean_linker_1, # of connection points: 2
#     Edge 11, Type (0, 0), BuildingBlock: KIFKEQ_clean_linker_1, # of connection points: 2
# Relax obj value: 0.204
# Max RMSD: 0.280
# Mean RMSD: 0.280
data_MOF--net-qtz-x--node1-KUMJIN_clean_sbu_1--edge1-KIFKEQ_clean_linker_1
_symmetry_space_group_name_H-M    P1
_symmetry_Int_Tables_number       1
_symmetry_cell_setting            triclinic
loop_
_symmetry_equiv_pos_as_xyz
'x, y, z'
_cell_length_a     15.248226
_cell_length_b     15.246201
_cell_length_c     53.328239
_cell_angle_alpha  90.006457
_cell_angle_beta   90.005579
_cell_angle_gamma 120.13235
loop_
_atom_site_label
_atom_site_type_symbol
_atom_site_fract_x
_atom_site_fract_y
_atom_site_fract_z
_atom_type_partial_charge
Eu0 Eu 0.96712 0.3998 0.14504 0.0
C1 C 0.44166 0.62632 0.14829 0.0
N2 N 0.37697 0.53591 0.15924 0.0
C3 C 0.4738 0.46349 0.14343 0.0
C4 C 0.52457 0.63788 0.13393 0.0
C5 C 0.39303 0.45556 0.15759 0.0
C6 C 0.5397 0.5549 0.13148 0.0
C7 C 0.495 0.80359 0.14154 0.0
C8 C 0.42577 0.70783 0.1518 0.0
C9 C 0.57548 0.81434 0.12651 0.0
C10 C 0.59015 0.73172 0.12271 0.0
Eu11 Eu 0.24202 0.52889 0.18252 0.0
N12 N 0.34773 0.69576 0.16669 0.0
C13 C 0.48435 0.88699 0.14763 0.0
C14 C 0.34457 0.77926 0.1748 0.0
C15 C 0.41023 0.87514 0.1648 0.0
H16 H 0.34208 0.38501 0.16689 0.0
H17 H 0.40536 0.94033 0.17086 0.0
H18 H 0.90837 0.5829 0.13985 0.0
H19 H 0.75562 0.02457 0.18866 0.0
H20 H 0.29376 0.77363 0.18957 0.0
H21 H 0.53628 0.96176 0.14026 0.0
H22 H 0.89791 0.16347 0.1662 0.0
H23 H 0.48535 0.39924 0.14179 0.0
H24 H 0.62857 0.88708 0.11833 0.0
H25 H 0.65374 0.74178 0.11146 0.0
H26 H 0.77373 0.61696 0.15388 0.0
H27 H 0.60248 0.56086 0.1206 0.0
H28 H 0.61149 0.04338 0.20274 0.0
N29 N 0.84046 0.43705 0.15659 0.0
C30 C 0.75988 0.36355 0.16934 0.0
C31 C 0.76907 0.54551 0.1584 0.0
C32 C 0.68016 0.3787 0.1772 0.0
C33 C 0.84565 0.52654 0.15071 0.0
C34 C 0.6863 0.47154 0.17185 0.0
N35 N 0.83857 0.26312 0.1682 0.0
C36 C 0.8375 0.17449 0.17265 0.0
C37 C 0.67493 0.1957 0.18803 0.0
C38 C 0.75835 0.27376 0.17508 0.0
C39 C 0.67454 0.10544 0.19304 0.0
C40 C 0.75596 0.0947 0.1852 0.0
H41 H 0.62759 0.48679 0.17802 0.0
H42 H 0.53525 0.31145 0.19629 0.0
H43 H 0.5299 0.15068 0.20543 0.0
O44 O 0.91811 0.29018 0.11438 0.0
O45 O 0.96061 0.43142 0.18637 0.0
O46 O 0.09131 0.41089 0.19888 0.0
O47 O 0.8918 0.41695 0.11217 0.0
O48 O 0.04557 0.30512 0.14748 0.0
O49 O 0.15554 0.35733 0.18186 0.0
O50 O 0.28463 0.59982 0.21977 0.0
O51 O 0.23941 0.48504 0.14145 0.0
O52 O 0.11653 0.51568 0.12869 0.0
O53 O 0.35005 0.51299 0.206 0.0
O54 O 0.15145 0.61167 0.18307 0.0
O55 O 0.06977 0.5708 0.14479 0.0
C56 C 0.01669 0.42671 0.20431 0.0
C57 C 0.78138 0.27087 0.08907 0.0
C58 C 0.67877 0.2362 0.05127 0.0
C59 C 0.59705 0.15491 0.06373 0.0
C60 C 0.69919 0.1904 0.1014 0.0
C61 C 0.60746 0.13235 0.08865 0.0
C62 C 0.77099 0.29287 0.06415 0.0
C63 C 0.10345 0.29212 0.16386 0.0
C64 C 0.87914 0.33485 0.10144 0.0
C65 C 0.59746 0.30136 0.19024 0.0
C66 C 0.59453 0.20988 0.19548 0.0
C67 C 0.1875 0.49511 0.12327 0.0
C68 C 0.32335 0.50897 0.24959 0.0
C69 C 0.3316 0.51981 0.29531 0.0
C70 C 0.29224 0.41435 0.29647 0.0
C71 C 0.28493 0.40382 0.25119 0.0
C72 C 0.34609 0.56634 0.27167 0.0
C73 C 0.26892 0.35698 0.27453 0.0
C74 C 0.10452 0.62957 0.16471 0.0
C75 C 0.34029 0.55986 0.2251 0.0
H76 H 0.52478 0.11004 0.0544 0.0
H77 H 0.70593 0.17265 0.12072 0.0
H78 H 0.54399 0.07016 0.09816 0.0
H79 H 0.83569 0.35442 0.05474 0.0
H80 H 0.28146 0.37632 0.31431 0.0
H81 H 0.2661 0.35764 0.23443 0.0
H82 H 0.37479 0.64722 0.27037 0.0
H83 H 0.23906 0.27597 0.27563 0.0
Eu84 Eu 0.69158 0.13796 0.47822 0.0
C85 C 0.42906 0.67653 0.48061 0.0
N86 N 0.40684 0.73989 0.49349 0.0
C87 C 0.23629 0.65165 0.47794 0.0
C88 C 0.3556 0.5995 0.46518 0.0
C89 C 0.31144 0.72703 0.49297 0.0
C90 C 0.25872 0.58825 0.46379 0.0
C91 C 0.54885 0.62123 0.47053 0.0
C92 C 0.52556 0.68889 0.48293 0.0
C93 C 0.47703 0.54667 0.45447 0.0
C94 C 0.38079 0.53602 0.45176 0.0
Eu95 Eu 0.54068 0.87051 0.5167 0.0
N96 N 0.59403 0.76218 0.49854 0.0
C97 C 0.64199 0.62758 0.47544 0.0
C98 C 0.67951 0.7604 0.50547 0.0
C99 C 0.70638 0.6957 0.49348 0.0
H100 H 0.29461 0.77685 0.50372 0.0
H101 H 0.77578 0.69702 0.49855 0.0
H102 H 0.92885 0.18621 0.4692 0.0
H103 H 0.5541 0.36385 0.52606 0.0
H104 H 0.72682 0.8072 0.5206 0.0
H105 H 0.66252 0.57676 0.46638 0.0
H106 H 0.53804 0.21877 0.50225 0.0
H107 H 0.16124 0.64261 0.47722 0.0
H108 H 0.49428 0.49508 0.44457 0.0
H109 H 0.32568 0.47708 0.43962 0.0
H110 H 0.10326 0.31505 0.48149 0.0
H111 H 0.20033 0.53003 0.45212 0.0
H112 H 0.72336 0.50227 0.53885 0.0
N113 N 0.86048 0.25904 0.4881 0.0
C114 C 0.8747 0.34139 0.50131 0.0
C115 C 0.03962 0.32312 0.48728 0.0
C116 C 0.973 0.41801 0.50823 0.0
C117 C 0.94087 0.24967 0.48062 0.0
C118 C 0.0557 0.40724 0.50132 0.0
N119 N 0.69617 0.27078 0.5023 0.0
C120 C 0.61216 0.27663 0.50814 0.0
C121 C 0.80302 0.43288 0.52203 0.0
C122 C 0.79038 0.34794 0.50842 0.0
C123 C 0.71681 0.43799 0.52854 0.0
C124 C 0.6211 0.35978 0.52145 0.0
H125 H 0.13217 0.4635 0.50668 0.0
H126 H 0.06065 0.56216 0.52726 0.0
H127 H 0.91199 0.57573 0.53911 0.0
O128 O 0.63498 0.19848 0.44923 0.0
O129 O 0.73285 0.1449 0.51951 0.0
O130 O 0.57944 0.02157 0.53359 0.0
O131 O 0.78024 0.20751 0.44449 0.0
O132 O 0.51882 0.06746 0.48168 0.0
O133 O 0.46323 0.96418 0.51721 0.0
O134 O 0.5708 0.82613 0.55346 0.0
O135 O 0.49572 0.87961 0.47656 0.0
O136 O 0.64988 0.98838 0.45983 0.0
O137 O 0.41735 0.76364 0.54063 0.0
O138 O 0.7141 0.95481 0.51635 0.0
O139 O 0.7523 0.02955 0.47736 0.0
C140 C 0.67167 0.09504 0.53809 0.0
C141 C 0.75806 0.33053 0.42354 0.0
C142 C 0.83395 0.43493 0.38632 0.0
C143 C 0.84664 0.52 0.39975 0.0
C144 C 0.77192 0.41594 0.43681 0.0
C145 C 0.81564 0.51027 0.42484 0.0
C146 C 0.7884 0.3403 0.39844 0.0
C147 C 0.44978 0.01534 0.49906 0.0
C148 C 0.71541 0.23029 0.43522 0.0
C149 C 0.98564 0.50233 0.52189 0.0
C150 C 0.90095 0.50999 0.52865 0.0
C151 C 0.55652 0.91439 0.45726 0.0
C152 C 0.44553 0.79352 0.58407 0.0
C153 C 0.45687 0.79381 0.6298 0.0
C154 C 0.39078 0.83297 0.63118 0.0
C155 C 0.3792 0.83215 0.58594 0.0
C156 C 0.48442 0.77504 0.60603 0.0
C157 C 0.35266 0.8522 0.60938 0.0
C158 C 0.77711 0.99659 0.49739 0.0
C159 C 0.47536 0.773 0.55941 0.0
H160 H 0.88202 0.59417 0.39106 0.0
H161 H 0.74942 0.40977 0.45628 0.0
H162 H 0.82637 0.57624 0.43509 0.0
H163 H 0.77604 0.27332 0.38832 0.0
H164 H 0.36667 0.84681 0.64911 0.0
H165 H 0.34876 0.848 0.5693 0.0
H166 H 0.53655 0.7465 0.60451 0.0
H167 H 0.30169 0.88208 0.61066 0.0
Eu168 Eu 0.73674 0.45475 0.81252 0.0
C169 C 0.57212 0.75133 0.8187 0.0
N170 N 0.65516 0.75893 0.8303 0.0
C171 C 0.75533 0.93231 0.81729 0.0
C172 C 0.57892 0.83396 0.80513 0.0
C173 C 0.74529 0.84837 0.83041 0.0
C174 C 0.6721 0.92479 0.80438 0.0
C175 C 0.39304 0.65136 0.80865 0.0
C176 C 0.48047 0.66016 0.82022 0.0
C177 C 0.40022 0.7327 0.79461 0.0
C178 C 0.49285 0.82365 0.79285 0.0
Eu179 Eu 0.63125 0.61362 0.85209 0.0
N180 N 0.47547 0.58224 0.83394 0.0
C181 C 0.30005 0.56236 0.81222 0.0
C182 C 0.3832 0.49958 0.8393 0.0
C183 C 0.29487 0.48707 0.82802 0.0
H184 H 0.80937 0.85444 0.84057 0.0
H185 H 0.22242 0.42033 0.83199 0.0
H186 H 0.55546 0.21158 0.81251 0.0
H187 H 0.13023 0.63078 0.84601 0.0
H188 H 0.37589 0.4442 0.8529 0.0
H189 H 0.23118 0.55292 0.80377 0.0
H190 H 0.98691 0.62566 0.82414 0.0
H191 H 0.8271 1.00278 0.81719 0.0
H192 H 0.33397 0.72673 0.78547 0.0
H193 H 0.4968 0.88611 0.78222 0.0
H194 H 0.52783 0.04678 0.82819 0.0
H195 H 0.68021 0.98995 0.79419 0.0
H196 H 0.11238 0.47538 0.86529 0.0
N197 N 0.70481 0.29539 0.82688 0.0
C198 C 0.78211 0.29301 0.83892 0.0
C199 C 0.59945 0.11549 0.83145 0.0
C200 C 0.77025 0.20068 0.84796 0.0
C201 C 0.61481 0.2087 0.82277 0.0
C202 C 0.67733 0.11151 0.84423 0.0
N203 N 0.88217 0.47158 0.83348 0.0
C204 C 0.97455 0.55857 0.8338 0.0
C205 C 0.95494 0.38244 0.85447 0.0
C206 C 0.87286 0.38351 0.84249 0.0
C207 C 0.04746 0.47318 0.85635 0.0
C208 C 0.05764 0.56121 0.84564 0.0
H209 H 0.66517 0.03922 0.851 0.0
H210 H 0.84337 0.12992 0.86744 0.0
H211 H 0.00542 0.28875 0.87288 0.0
O212 O 0.84006 0.49854 0.78056 0.0
O213 O 0.69239 0.40408 0.853 0.0
O214 O 0.7298 0.55703 0.86889 0.0
O215 O 0.70256 0.35259 0.78069 0.0
O216 O 0.83576 0.62802 0.81454 0.0
O217 O 0.79919 0.66757 0.85343 0.0
O218 O 0.54377 0.59638 0.88703 0.0
O219 O 0.67659 0.65382 0.81126 0.0
O220 O 0.62892 0.49817 0.79479 0.0
O221 O 0.68121 0.7386 0.87793 0.0
O222 O 0.52804 0.44049 0.85101 0.0
O223 O 0.5667 0.39399 0.81298 0.0
C224 C 0.70183 0.46161 0.87224 0.0
C225 C 0.83891 0.36622 0.75698 0.0
C226 C 0.86483 0.29003 0.71951 0.0
C227 C 0.9329 0.27126 0.73307 0.0
C228 C 0.90634 0.34657 0.77034 0.0
C229 C 0.95342 0.29953 0.75833 0.0
C230 C 0.81907 0.33862 0.7317 0.0
C231 C 0.85806 0.69081 0.83365 0.0
C232 C 0.78566 0.41304 0.76879 0.0
C233 C 0.85107 0.20014 0.8604 0.0
C234 C 0.9432 0.29068 0.86358 0.0
C235 C 0.6466 0.59103 0.79227 0.0
C236 C 0.59791 0.74189 0.91581 0.0
C237 C 0.52795 0.73902 0.95718 0.0
C238 C 0.58498 0.84568 0.95776 0.0
C239 C 0.65344 0.84846 0.91682 0.0
C240 C 0.53511 0.68723 0.93607 0.0
C241 C 0.64699 0.89976 0.93769 0.0
C242 C 0.50643 0.37487 0.83248 0.0
C243 C 0.60656 0.69012 0.89339 0.0
H244 H 0.96877 0.23317 0.72433 0.0
H245 H 0.92228 0.36725 0.78992 0.0
H246 H 0.00532 0.28417 0.76868 0.0
H247 H 0.76776 0.35549 0.72151 0.0
H248 H 0.58252 0.88752 0.97391 0.0
H249 H 0.70187 0.89253 0.90141 0.0
H250 H 0.49148 0.60514 0.93533 0.0
H251 H 0.69033 0.98178 0.93832 0.0
H252 H 0.09824 0.73489 0.12419 0.0
H253 H 0.1079 0.74134 0.20511 0.0
H254 H 0.09837 0.89454 0.12378 0.0
H255 H 0.1054 0.90029 0.20483 0.0
H256 H 0.20909 0.23441 0.19465 0.0
H257 H 0.20937 0.07547 0.19462 0.0
H258 H 0.99616 0.96804 0.13306 0.0
H259 H 0.99909 0.12918 0.13234 0.0
C260 C 0.09948 0.77014 0.14193 0.0
C261 C 0.10319 0.72581 0.1647 0.0
C262 C 0.09906 0.8615 0.1417 0.0
C263 C 0.10175 0.91048 0.16426 0.0
C264 C 0.10487 0.86557 0.18708 0.0
C265 C 0.10587 0.77434 0.18728 0.0
C266 C 0.16237 0.17726 0.18101 0.0
C267 C 0.10372 0.19488 0.16354 0.0
C268 C 0.16193 0.08548 0.18116 0.0
C269 C 0.10231 0.00842 0.16396 0.0
C270 C 0.04396 0.02609 0.1464 0.0
C271 C 0.04511 0.11841 0.14609 0.0
H272 H 0.38964 0.11609 0.46682 0.0
H273 H 0.28915 0.91575 0.531 0.0
H274 H 0.22897 0.1148 0.46679 0.0
H275 H 0.12821 0.91161 0.53036 0.0
H276 H 0.88775 1.00279 0.53824 0.0
H277 H 0.05239 0.01229 0.53879 0.0
H278 H 0.05228 0.00522 0.45775 0.0
H279 H 0.88895 0.99809 0.45731 0.0
C280 C 0.33339 0.07152 0.48086 0.0
C281 C 0.35276 0.01613 0.4989 0.0
C282 C 0.24089 0.07023 0.48075 0.0
C283 C 0.16535 0.01304 0.49858 0.0
C284 C 0.18501 0.95787 0.5166 0.0
C285 C 0.27746 0.95971 0.51683 0.0
C286 C 0.92299 0.00302 0.52058 0.0
C287 C 0.87577 1.00001 0.49776 0.0
C288 C 0.0172 0.00819 0.52086 0.0
C289 C 0.06594 0.00966 0.49829 0.0
C290 C 0.01804 0.00607 0.47547 0.0
C291 C 0.92411 1.00137 0.47521 0.0
H292 H 0.94788 0.81364 0.79339 0.0
H293 H 0.98044 0.79238 0.87309 0.0
H294 H 0.09821 0.98182 0.79309 0.0
H295 H 0.13519 0.95693 0.87282 0.0
H296 H 0.36764 0.28987 0.87084 0.0
H297 H 0.20877 0.12897 0.87067 0.0
H298 H 0.26956 0.07396 0.79477 0.0
H299 H 0.42186 0.2383 0.79421 0.0
C300 C 0.98875 0.84446 0.81077 0.0
C301 C 0.95298 0.79006 0.83322 0.0
C302 C 0.07552 0.94097 0.81067 0.0
C303 C 0.13051 0.98439 0.83294 0.0
C304 C 0.09464 0.9283 0.85534 0.0
C305 C 0.0063 0.8331 0.85551 0.0
C306 C 0.346 0.24411 0.85398 0.0
C307 C 0.40809 0.27749 0.83258 0.0
C308 C 0.25525 0.15058 0.85397 0.0
C309 C 0.22524 0.08657 0.83275 0.0
C310 C 0.28775 0.12073 0.81137 0.0
C311 C 0.37668 0.21516 0.81117 0.0
H312 H 0.50535 0.56821 0.9805 0.0
H313 H 0.40227 0.78523 0.98283 0.0
H314 H 0.4093 0.48871 0.01875 0.0
H315 H 0.31093 0.70971 0.02134 0.0
H316 H 0.10306 0.52811 0.08196 0.0
H317 H 0.17076 0.56635 0.03963 0.0
H318 H 0.42174 0.52897 0.06281 0.0
H319 H 0.35002 0.48439 0.10482 0.0
C320 C 0.46126 0.59811 0.98901 0.0
C321 C 0.4621 0.68356 0.97881 0.0
C322 C 0.40719 0.55335 0.01105 0.0
C323 C 0.3527 0.59302 0.02322 0.0
C324 C 0.35078 0.67609 0.01238 0.0
C325 C 0.40435 0.72041 0.99043 0.0
C326 C 0.17217 0.52695 0.078 0.0
C327 C 0.22336 0.50681 0.09704 0.0
C328 C 0.21126 0.54937 0.05372 0.0
C329 C 0.30305 0.55319 0.0479 0.0
C330 C 0.35093 0.52686 0.06657 0.0
C331 C 0.31081 0.50293 0.09082 0.0
H332 H 0.81894 0.54777 0.34805 0.0
H333 H 0.92722 0.34103 0.3646 0.0
H334 H 0.86765 0.55293 0.3042 0.0
H335 H 0.96941 0.34076 0.32086 0.0
H336 H 0.11657 0.42002 0.24561 0.0
H337 H 0.08222 0.43528 0.28926 0.0
H338 H 0.81865 0.45297 0.26704 0.0
H339 H 0.85849 0.44475 0.22307 0.0
C340 C 0.85341 0.50374 0.34237 0.0
C341 C 0.86827 0.44329 0.35984 0.0
C342 C 0.88004 0.50552 0.31715 0.0
C343 C 0.92192 0.44672 0.30882 0.0
C344 C 0.93852 0.38804 0.32647 0.0
C345 C 0.91281 0.38697 0.35161 0.0
C346 C 0.05239 0.4286 0.25003 0.0
C347 C 0.99127 0.43198 0.23087 0.0
C348 C 0.03157 0.43611 0.27514 0.0
C349 C 0.94705 0.44477 0.28187 0.0
C350 C 0.88529 0.44794 0.26264 0.0
C351 C 0.90747 0.44213 0.2374 0.0
H352 H 0.7275 0.78317 0.77398 0.0
H353 H 0.5138 0.47044 0.75638 0.0
H354 H 0.68818 0.83592 0.7344 0.0
H355 H 0.47203 0.52264 0.71717 0.0
H356 H 0.48285 0.63126 0.6385 0.0
H357 H 0.5363 0.58694 0.67701 0.0
H358 H 0.56061 0.85206 0.71319 0.0
H359 H 0.51428 0.90041 0.67404 0.0
C360 C 0.67139 0.72587 0.76171 0.0
C361 C 0.6235 0.62284 0.76824 0.0
C362 C 0.6486 0.75599 0.73905 0.0
C363 C 0.57702 0.68361 0.72247 0.0
C364 C 0.52909 0.58043 0.72916 0.0
C365 C 0.55259 0.55038 0.75171 0.0
C366 C 0.50161 0.68136 0.65448 0.0
C367 C 0.49378 0.76927 0.65313 0.0
C368 C 0.53071 0.65498 0.67676 0.0
C369 C 0.55162 0.71512 0.69838 0.0
C370 C 0.54581 0.80419 0.6969 0.0
C371 C 0.51777 0.83121 0.67452 0.0
H372 H 0.67244 0.54368 0.91433 0.0
H373 H 0.69653 0.28804 0.88857 0.0
H374 H 0.65191 0.48224 0.95708 0.0
H375 H 0.68169 0.22891 0.93174 0.0
H376 H 0.58268 0.10959 0.01125 0.0
H377 H 0.57653 0.15795 0.96785 0.0
H378 H 0.75312 0.47419 0.98871 0.0
H379 H 0.75355 0.4261 0.03192 0.0
C380 C 0.6742 0.47461 0.91783 0.0
C381 C 0.68747 0.42147 0.89808 0.0
C382 C 0.66296 0.43953 0.94243 0.0
C383 C 0.66673 0.35132 0.94805 0.0
C384 C 0.67756 0.29665 0.92816 0.0
C385 C 0.68705 0.33101 0.9034 0.0
C386 C 0.61846 0.18936 0.00658 0.0
C387 C 0.66927 0.26392 0.02505 0.0
C388 C 0.61612 0.21715 0.98163 0.0
C389 C 0.66456 0.3201 0.97465 0.0
C390 C 0.71361 0.39422 0.99331 0.0
C391 C 0.71524 0.36656 0.01813 0.0
H392 H 0.23177 0.47179 0.34045 0.0
H393 H 0.4977 0.70725 0.30311 0.0
H394 H 0.28628 0.56784 0.37943 0.0
H395 H 0.54865 0.8061 0.34157 0.0
H396 H 0.67318 0.89944 0.42077 0.0
H397 H 0.61639 0.8048 0.38161 0.0
H398 H 0.30638 0.71574 0.39998 0.0
H399 H 0.36366 0.80889 0.43938 0.0
C400 C 0.30161 0.54424 0.34051 0.0
C401 C 0.36068 0.5814 0.31866 0.0
C402 C 0.33219 0.6 0.36279 0.0
C403 C 0.42215 0.69465 0.3637 0.0
C404 C 0.47987 0.73277 0.34169 0.0
C405 C 0.44976 0.67669 0.31949 0.0
C406 C 0.59303 0.8601 0.41631 0.0
C407 C 0.52264 0.86084 0.43311 0.0
C408 C 0.56038 0.80609 0.39384 0.0
C409 C 0.45671 0.75264 0.38757 0.0
C410 C 0.38655 0.75461 0.40435 0.0
C411 C 0.41926 0.80813 0.42689 0.0
H412 H 0.67918 0.20661 0.69708 0.0
H413 H 0.99238 0.30062 0.68163 0.0
H414 H 0.63746 0.1643 0.6533 0.0
H415 H 0.94918 0.25198 0.63771 0.0
H416 H 0.85105 0.25458 0.5557 0.0
H417 H 0.90059 0.30058 0.59951 0.0
H418 H 0.61642 0.04353 0.62337 0.0
H419 H 0.56566 1.00267 0.58003 0.0
C420 C 0.73931 0.21811 0.68432 0.0
C421 C 0.83941 0.25807 0.69288 0.0
C422 C 0.71504 0.19238 0.65918 0.0
C423 C 0.78985 0.20438 0.64186 0.0
C424 C 0.88988 0.24292 0.65044 0.0
C425 C 0.9144 0.26949 0.67569 0.0
C426 C 0.79919 0.20847 0.57036 0.0
C427 C 0.70407 0.1247 0.5644 0.0
C428 C 0.82792 0.2342 0.59548 0.0
C429 C 0.76239 0.17612 0.61508 0.0
C430 C 0.6682 0.09152 0.60891 0.0
C431 C 0.63924 0.06711 0.58397 0.0
loop_
_geom_bond_atom_site_label_1
_geom_bond_atom_site_label_2
_geom_bond_distance
_geom_bond_site_symmetry_2
_ccdc_geom_bond_type
Eu0 N29 2.600 . S
Eu0 N35 2.562 . S
Eu0 O44 2.462 . S
Eu0 O45 2.373 . S
Eu0 O47 2.432 . S
Eu0 O48 2.291 . S
Eu0 O52 2.335 1_655 S
Eu0 O55 2.372 . S
Eu0 C64 2.787 . S
C1 N2 1.365 . S
C1 C4 1.405 . S
C1 C8 1.448 . S
N2 C1 1.365 . S
N2 C5 1.319 . S
N2 Eu11 2.600 . S
C3 C5 1.397 . S
C3 C6 1.367 . S
C3 H23 0.931 . S
C4 C1 1.405 . S
C4 C6 1.403 . S
C4 C10 1.439 . S
C5 N2 1.319 . S
C5 C3 1.397 . S
C5 H16 0.930 . S
C6 C3 1.367 . S
C6 C4 1.403 . S
C6 H27 0.929 . S
C7 C8 1.430 . S
C7 C9 1.387 . S
C7 C13 1.404 . S
C8 C1 1.448 . S
C8 C7 1.430 . S
C8 N12 1.351 . S
C9 C7 1.387 . S
C9 C10 1.374 . S
C9 H24 0.931 . S
C10 C4 1.439 . S
C10 C9 1.374 . S
C10 H25 0.931 . S
Eu11 N2 2.600 . S
Eu11 N12 2.562 . S
Eu11 O46 2.335 1_455 S
Eu11 O49 2.372 . S
Eu11 O50 2.462 . S
Eu11 O51 2.373 . S
Eu11 O53 2.432 . S
Eu11 O54 2.291 . S
Eu11 C75 2.787 . S
N12 C8 1.351 . S
N12 Eu11 2.562 . S
N12 C14 1.325 . S
C13 C7 1.404 . S
C13 C15 1.366 . S
C13 H21 0.930 . S
C14 N12 1.325 . S
C14 C15 1.416 . S
C14 H20 0.929 . S
C15 C13 1.366 . S
C15 C14 1.416 . S
C15 H17 0.930 . S
H16 C5 0.930 . S
H17 C15 0.930 . S
H18 C33 0.930 . S
H19 C40 0.930 . S
H20 C14 0.929 . S
H21 C13 0.930 . S
H22 C36 0.929 . S
H23 C3 0.931 . S
H24 C9 0.931 . S
H25 C10 0.931 . S
H26 C31 0.931 . S
H27 C6 0.929 . S
H28 C39 0.930 . S
N29 Eu0 2.600 . S
N29 C30 1.365 . S
N29 C33 1.319 . S
C30 N29 1.365 . S
C30 C32 1.405 . S
C30 C38 1.448 . S
C31 H26 0.931 . S
C31 C33 1.397 . S
C31 C34 1.367 . S
C32 C30 1.405 . S
C32 C34 1.403 . S
C32 C65 1.439 . S
C33 H18 0.930 . S
C33 N29 1.319 . S
C33 C31 1.397 . S
C34 C31 1.367 . S
C34 C32 1.403 . S
C34 H41 0.929 . S
N35 Eu0 2.562 . S
N35 C36 1.325 . S
N35 C38 1.351 . S
C36 H22 0.929 . S
C36 N35 1.325 . S
C36 C40 1.416 . S
C37 C38 1.430 . S
C37 C39 1.404 . S
C37 C66 1.387 . S
C38 C30 1.448 . S
C38 N35 1.351 . S
C38 C37 1.430 . S
C39 H28 0.930 . S
C39 C37 1.404 . S
C39 C40 1.366 . S
C40 H19 0.930 . S
C40 C36 1.416 . S
C40 C39 1.366 . S
H41 C34 0.929 . S
H42 C65 0.931 . S
H43 C66 0.931 . S
O44 Eu0 2.462 . S
O44 C64 1.252 . S
O45 Eu0 2.373 . S
O45 C56 1.249 . S
O46 Eu11 2.335 1_655 S
O46 C56 1.264 . S
O47 Eu0 2.432 . S
O47 C64 1.268 . S
O48 Eu0 2.291 . S
O48 C63 1.255 . S
O49 Eu11 2.372 . S
O49 C63 1.257 1_455 S
O50 Eu11 2.462 . S
O50 C75 1.252 . S
O51 Eu11 2.373 . S
O51 C67 1.249 . S
O52 Eu0 2.335 1_455 S
O52 C67 1.264 . S
O53 Eu11 2.432 . S
O53 C75 1.268 . S
O54 Eu11 2.291 . S
O54 C74 1.255 . S
O55 Eu0 2.372 . S
O55 C74 1.257 1_655 S
C56 O45 1.249 . S
C56 O46 1.264 . S
C57 C60 1.382 . S
C57 C62 1.390 . S
C57 C64 1.506 . S
C58 C59 1.398 . S
C58 C62 1.392 . S
C59 C58 1.398 . S
C59 C61 1.372 . S
C59 H76 0.931 . S
C60 C57 1.382 . S
C60 C61 1.390 . S
C60 H77 0.931 . S
C61 C59 1.372 . S
C61 C60 1.390 . S
C61 H78 0.929 . S
C62 C57 1.390 . S
C62 C58 1.392 . S
C62 H79 0.930 . S
C63 O48 1.255 . S
C63 O49 1.257 1_655 S
C64 Eu0 2.787 . S
C64 O44 1.252 . S
C64 O47 1.268 . S
C64 C57 1.506 . S
C65 C32 1.439 . S
C65 H42 0.931 . S
C65 C66 1.374 . S
C66 C37 1.387 . S
C66 H43 0.931 . S
C66 C65 1.374 . S
C67 O51 1.249 . S
C67 O52 1.264 . S
C68 C71 1.382 . S
C68 C72 1.390 . S
C68 C75 1.506 . S
C69 C70 1.398 . S
C69 C72 1.392 . S
C70 C69 1.398 . S
C70 C73 1.372 . S
C70 H80 0.931 . S
C71 C68 1.382 . S
C71 C73 1.390 . S
C71 H81 0.931 . S
C72 C68 1.390 . S
C72 C69 1.392 . S
C72 H82 0.930 . S
C73 C70 1.372 . S
C73 C71 1.390 . S
C73 H83 0.929 . S
C74 O54 1.255 . S
C74 O55 1.257 1_455 S
C75 Eu11 2.787 . S
C75 O50 1.252 . S
C75 O53 1.268 . S
C75 C68 1.506 . S
H76 C59 0.931 . S
H77 C60 0.931 . S
H78 C61 0.929 . S
H79 C62 0.930 . S
H80 C70 0.931 . S
H81 C71 0.931 . S
H82 C72 0.930 . S
H83 C73 0.929 . S
Eu84 N113 2.600 . S
Eu84 N119 2.562 . S
Eu84 O128 2.462 . S
Eu84 O129 2.373 . S
Eu84 O131 2.432 . S
Eu84 O132 2.291 . S
Eu84 O136 2.335 . S
Eu84 O139 2.372 . S
Eu84 C148 2.787 . S
C85 N86 1.365 . S
C85 C88 1.405 . S
C85 C92 1.448 . S
N86 C85 1.365 . S
N86 C89 1.319 . S
N86 Eu95 2.600 . S
C87 C89 1.397 . S
C87 C90 1.367 . S
C87 H107 0.931 . S
C88 C85 1.405 . S
C88 C90 1.403 . S
C88 C94 1.439 . S
C89 N86 1.319 . S
C89 C87 1.397 . S
C89 H100 0.930 . S
C90 C87 1.367 . S
C90 C88 1.403 . S
C90 H111 0.929 . S
C91 C92 1.430 . S
C91 C93 1.387 . S
C91 C97 1.404 . S
C92 C85 1.448 . S
C92 C91 1.430 . S
C92 N96 1.351 . S
C93 C91 1.387 . S
C93 C94 1.374 . S
C93 H108 0.931 . S
C94 C88 1.439 . S
C94 C93 1.374 . S
C94 H109 0.931 . S
Eu95 N86 2.600 . S
Eu95 N96 2.562 . S
Eu95 O130 2.335 1_565 S
Eu95 O133 2.372 1_565 S
Eu95 O134 2.462 . S
Eu95 O135 2.373 . S
Eu95 O137 2.432 . S
Eu95 O138 2.291 1_565 S
Eu95 C159 2.787 . S
N96 C92 1.351 . S
N96 Eu95 2.562 . S
N96 C98 1.325 . S
C97 C91 1.404 . S
C97 C99 1.366 . S
C97 H105 0.930 . S
C98 N96 1.325 . S
C98 C99 1.416 . S
C98 H104 0.929 . S
C99 C97 1.366 . S
C99 C98 1.416 . S
C99 H101 0.930 . S
H100 C89 0.930 . S
H101 C99 0.930 . S
H102 C117 0.930 . S
H103 C124 0.930 . S
H104 C98 0.929 . S
H105 C97 0.930 . S
H106 C120 0.929 . S
H107 C87 0.931 . S
H108 C93 0.931 . S
H109 C94 0.931 . S
H110 C115 0.931 . S
H111 C90 0.929 . S
H112 C123 0.930 . S
N113 Eu84 2.600 . S
N113 C114 1.365 . S
N113 C117 1.319 1_655 S
C114 N113 1.365 . S
C114 C116 1.405 1_655 S
C114 C122 1.448 . S
C115 H110 0.931 . S
C115 C117 1.397 . S
C115 C118 1.367 . S
C116 C114 1.405 1_455 S
C116 C118 1.403 . S
C116 C149 1.439 . S
C117 H102 0.930 . S
C117 N113 1.319 1_455 S
C117 C115 1.397 . S
C118 C115 1.367 . S
C118 C116 1.403 . S
C118 H125 0.929 . S
N119 Eu84 2.562 . S
N119 C120 1.325 . S
N119 C122 1.351 . S
C120 H106 0.929 . S
C120 N119 1.325 . S
C120 C124 1.416 . S
C121 C122 1.430 . S
C121 C123 1.404 . S
C121 C150 1.386 1_655 S
C122 C114 1.448 . S
C122 N119 1.351 . S
C122 C121 1.430 . S
C123 H112 0.930 . S
C123 C121 1.404 . S
C123 C124 1.366 . S
C124 H103 0.930 . S
C124 C120 1.416 . S
C124 C123 1.366 . S
H125 C118 0.929 . S
H126 C149 0.931 . S
H127 C150 0.930 . S
O128 Eu84 2.462 . S
O128 C148 1.252 . S
O129 Eu84 2.373 . S
O129 C140 1.249 . S
O130 Eu95 2.335 1_545 S
O130 C140 1.264 . S
O131 Eu84 2.432 . S
O131 C148 1.268 . S
O132 Eu84 2.291 . S
O132 C147 1.255 . S
O133 Eu95 2.372 1_545 S
O133 C147 1.257 . S
O134 Eu95 2.462 . S
O134 C159 1.252 . S
O135 Eu95 2.373 . S
O135 C151 1.249 1_565 S
O136 Eu84 2.335 . S
O136 C151 1.264 . S
O137 Eu95 2.432 . S
O137 C159 1.268 . S
O138 Eu95 2.291 1_545 S
O138 C158 1.255 . S
O139 Eu84 2.372 . S
O139 C158 1.257 . S
C140 O129 1.249 . S
C140 O130 1.264 . S
C141 C144 1.382 . S
C141 C146 1.390 . S
C141 C148 1.506 . S
C142 C143 1.398 . S
C142 C146 1.392 . S
C143 C142 1.398 . S
C143 C145 1.372 . S
C143 H160 0.931 . S
C144 C141 1.382 . S
C144 C145 1.390 . S
C144 H161 0.931 . S
C145 C143 1.372 . S
C145 C144 1.390 . S
C145 H162 0.929 . S
C146 C141 1.390 . S
C146 C142 1.392 . S
C146 H163 0.930 . S
C147 O132 1.255 . S
C147 O133 1.257 . S
C148 Eu84 2.787 . S
C148 O128 1.252 . S
C148 O131 1.268 . S
C148 C141 1.506 . S
C149 C116 1.439 . S
C149 H126 0.931 . S
C149 C150 1.376 . S
C150 C121 1.386 1_455 S
C150 H127 0.930 . S
C150 C149 1.376 . S
C151 O135 1.249 1_545 S
C151 O136 1.264 . S
C152 C155 1.382 . S
C152 C156 1.390 . S
C152 C159 1.506 . S
C153 C154 1.398 . S
C153 C156 1.392 . S
C154 C153 1.398 . S
C154 C157 1.372 . S
C154 H164 0.931 . S
C155 C152 1.382 . S
C155 C157 1.390 . S
C155 H165 0.931 . S
C156 C152 1.390 . S
C156 C153 1.392 . S
C156 H166 0.930 . S
C157 C154 1.372 . S
C157 C155 1.390 . S
C157 H167 0.929 . S
C158 O138 1.255 . S
C158 O139 1.257 . S
C159 Eu95 2.787 . S
C159 O134 1.252 . S
C159 O137 1.268 . S
C159 C152 1.506 . S
H160 C143 0.931 . S
H161 C144 0.931 . S
H162 C145 0.929 . S
H163 C146 0.930 . S
H164 C154 0.931 . S
H165 C155 0.931 . S
H166 C156 0.930 . S
H167 C157 0.929 . S
Eu168 N197 2.600 . S
Eu168 N203 2.562 . S
Eu168 O212 2.462 . S
Eu168 O213 2.373 . S
Eu168 O215 2.432 . S
Eu168 O216 2.291 . S
Eu168 O220 2.335 . S
Eu168 O223 2.372 . S
Eu168 C232 2.787 . S
C169 N170 1.365 . S
C169 C172 1.405 . S
C169 C176 1.448 . S
N170 C169 1.365 . S
N170 C173 1.319 . S
N170 Eu179 2.600 . S
C171 C173 1.397 . S
C171 C174 1.367 . S
C171 H191 0.931 . S
C172 C169 1.405 . S
C172 C174 1.403 . S
C172 C178 1.439 . S
C173 N170 1.319 . S
C173 C171 1.397 . S
C173 H184 0.930 . S
C174 C171 1.367 . S
C174 C172 1.403 . S
C174 H195 0.929 . S
C175 C176 1.430 . S
C175 C177 1.387 . S
C175 C181 1.404 . S
C176 C169 1.448 . S
C176 C175 1.430 . S
C176 N180 1.351 . S
C177 C175 1.387 . S
C177 C178 1.374 . S
C177 H192 0.931 . S
C178 C172 1.439 . S
C178 C177 1.374 . S
C178 H193 0.931 . S
Eu179 N170 2.600 . S
Eu179 N180 2.562 . S
Eu179 O214 2.335 . S
Eu179 O217 2.372 . S
Eu179 O218 2.462 . S
Eu179 O219 2.373 . S
Eu179 O221 2.432 . S
Eu179 O222 2.291 . S
Eu179 C243 2.787 . S
N180 C176 1.351 . S
N180 Eu179 2.562 . S
N180 C182 1.325 . S
C181 C175 1.404 . S
C181 C183 1.366 . S
C181 H189 0.930 . S
C182 N180 1.325 . S
C182 C183 1.416 . S
C182 H188 0.929 . S
C183 C181 1.366 . S
C183 C182 1.416 . S
C183 H185 0.930 . S
H184 C173 0.930 . S
H185 C183 0.930 . S
H186 C201 0.930 . S
H187 C208 0.930 . S
H188 C182 0.929 . S
H189 C181 0.930 . S
H190 C204 0.929 . S
H191 C171 0.931 . S
H192 C177 0.931 . S
H193 C178 0.931 . S
H194 C199 0.931 . S
H195 C174 0.929 . S
H196 C207 0.930 . S
N197 Eu168 2.600 . S
N197 C198 1.365 . S
N197 C201 1.319 . S
C198 N197 1.365 . S
C198 C200 1.405 . S
C198 C206 1.448 . S
C199 H194 0.931 . S
C199 C201 1.397 1_565 S
C199 C202 1.367 . S
C200 C198 1.405 . S
C200 C202 1.403 1_545 S
C200 C233 1.439 . S
C201 H186 0.930 . S
C201 N197 1.319 . S
C201 C199 1.397 1_545 S
C202 C199 1.367 . S
C202 C200 1.403 1_565 S
C202 H209 0.929 . S
N203 Eu168 2.562 . S
N203 C204 1.325 . S
N203 C206 1.351 . S
C204 H190 0.929 . S
C204 N203 1.325 . S
C204 C208 1.416 1_655 S
C205 C206 1.430 . S
C205 C207 1.404 1_655 S
C205 C234 1.387 . S
C206 C198 1.448 . S
C206 N203 1.351 . S
C206 C205 1.430 . S
C207 H196 0.930 . S
C207 C205 1.404 1_455 S
C207 C208 1.366 . S
C208 H187 0.930 . S
C208 C204 1.416 1_455 S
C208 C207 1.366 . S
H209 C202 0.929 . S
H210 C233 0.931 1_565 S
H211 C234 0.931 . S
O212 Eu168 2.462 . S
O212 C232 1.252 . S
O213 Eu168 2.373 . S
O213 C224 1.249 . S
O214 Eu179 2.335 . S
O214 C224 1.264 . S
O215 Eu168 2.432 . S
O215 C232 1.268 . S
O216 Eu168 2.291 . S
O216 C231 1.255 . S
O217 Eu179 2.372 . S
O217 C231 1.257 . S
O218 Eu179 2.462 . S
O218 C243 1.252 . S
O219 Eu179 2.373 . S
O219 C235 1.249 . S
O220 Eu168 2.335 . S
O220 C235 1.264 . S
O221 Eu179 2.432 . S
O221 C243 1.268 . S
O222 Eu179 2.291 . S
O222 C242 1.255 . S
O223 Eu168 2.372 . S
O223 C242 1.257 . S
C224 O213 1.249 . S
C224 O214 1.264 . S
C225 C228 1.382 . S
C225 C230 1.390 . S
C225 C232 1.506 . S
C226 C227 1.398 . S
C226 C230 1.392 . S
C227 C226 1.398 . S
C227 C229 1.372 . S
C227 H244 0.931 . S
C228 C225 1.382 . S
C228 C229 1.390 . S
C228 H245 0.931 . S
C229 C227 1.372 . S
C229 C228 1.390 . S
C229 H246 0.929 . S
C230 C225 1.390 . S
C230 C226 1.392 . S
C230 H247 0.930 . S
C231 O216 1.255 . S
C231 O217 1.257 . S
C232 Eu168 2.787 . S
C232 O212 1.252 . S
C232 O215 1.268 . S
C232 C225 1.506 . S
C233 C200 1.439 . S
C233 H210 0.931 1_545 S
C233 C234 1.374 . S
C234 C205 1.387 . S
C234 H211 0.931 . S
C234 C233 1.374 . S
C235 O219 1.249 . S
C235 O220 1.264 . S
C236 C239 1.382 . S
C236 C240 1.390 . S
C236 C243 1.506 . S
C237 C238 1.398 . S
C237 C240 1.392 . S
C238 C237 1.398 . S
C238 C241 1.372 . S
C238 H248 0.931 . S
C239 C236 1.382 . S
C239 C241 1.390 . S
C239 H249 0.931 . S
C240 C236 1.390 . S
C240 C237 1.392 . S
C240 H250 0.930 . S
C241 C238 1.372 . S
C241 C239 1.390 . S
C241 H251 0.929 . S
C242 O222 1.255 . S
C242 O223 1.257 . S
C243 Eu179 2.787 . S
C243 O218 1.252 . S
C243 O221 1.268 . S
C243 C236 1.506 . S
H244 C227 0.931 . S
H245 C228 0.931 . S
H246 C229 0.929 . S
H247 C230 0.930 . S
H248 C238 0.931 . S
H249 C239 0.931 . S
H250 C240 0.930 . S
H251 C241 0.929 . S
H252 C260 0.950 . S
H253 C265 0.950 . S
H254 C262 0.950 . S
H255 C264 0.950 . S
H256 C266 0.950 . S
H257 C268 0.950 . S
H258 C270 0.950 1_565 S
H259 C271 0.950 . S
C260 H252 0.950 . S
C260 C261 1.386 1_655 S
C260 C262 1.391 . S
C261 C260 1.386 1_455 S
C261 C265 1.393 . S
C262 H254 0.950 . S
C262 C260 1.391 . S
C262 C263 1.400 1_655 S
C263 C262 1.400 1_455 S
C263 C264 1.398 . S
C263 C269 1.491 1_455 S
C264 H255 0.950 . S
C264 C263 1.398 . S
C264 C265 1.391 . S
C265 H253 0.950 . S
C265 C261 1.393 . S
C265 C264 1.391 . S
C266 H256 0.950 . S
C266 C267 1.386 1_455 S
C266 C268 1.391 . S
C267 C266 1.386 1_655 S
C267 C271 1.393 . S
C268 H257 0.950 . S
C268 C266 1.391 . S
C268 C269 1.400 1_445 S
C269 C263 1.491 1_655 S
C269 C268 1.400 1_665 S
C269 C270 1.398 1_565 S
C270 H258 0.950 1_545 S
C270 C269 1.398 1_545 S
C270 C271 1.391 . S
C271 H259 0.950 . S
C271 C267 1.393 . S
C271 C270 1.391 . S
H272 C280 0.950 . S
H273 C285 0.950 . S
H274 C282 0.950 . S
H275 C284 0.950 1_565 S
H276 C286 0.950 1_565 S
H277 C288 0.950 1_565 S
H278 C290 0.950 . S
H279 C291 0.950 . S
C280 H272 0.950 . S
C280 C281 1.386 . S
C280 C282 1.391 . S
C281 C280 1.386 . S
C281 C285 1.393 . S
C282 H274 0.950 . S
C282 C280 1.391 . S
C282 C283 1.400 . S
C283 C282 1.400 . S
C283 C284 1.398 . S
C283 C289 1.491 . S
C284 H275 0.950 1_545 S
C284 C283 1.398 . S
C284 C285 1.391 . S
C285 H273 0.950 . S
C285 C281 1.393 . S
C285 C284 1.391 . S
C286 H276 0.950 1_545 S
C286 C287 1.386 . S
C286 C288 1.391 1_655 S
C287 C286 1.386 . S
C287 C291 1.393 1_655 S
C288 H277 0.950 1_545 S
C288 C286 1.391 1_455 S
C288 C289 1.400 . S
C289 C283 1.491 . S
C289 C288 1.400 . S
C289 C290 1.398 . S
C290 H278 0.950 . S
C290 C289 1.398 . S
C290 C291 1.391 . S
C291 H279 0.950 . S
C291 C287 1.393 1_455 S
C291 C290 1.391 . S
H292 C300 0.950 . S
H293 C305 0.950 . S
H294 C302 0.950 . S
H295 C304 0.950 . S
H296 C306 0.950 . S
H297 C308 0.950 1_565 S
H298 C310 0.950 . S
H299 C311 0.950 . S
C300 H292 0.950 . S
C300 C301 1.386 . S
C300 C302 1.391 1_655 S
C301 C300 1.386 . S
C301 C305 1.393 1_655 S
C302 H294 0.950 . S
C302 C300 1.391 1_455 S
C302 C303 1.400 . S
C303 C302 1.400 . S
C303 C304 1.398 . S
C303 C309 1.491 . S
C304 H295 0.950 . S
C304 C303 1.398 . S
C304 C305 1.391 . S
C305 H293 0.950 . S
C305 C301 1.393 1_455 S
C305 C304 1.391 . S
C306 H296 0.950 . S
C306 C307 1.386 . S
C306 C308 1.391 . S
C307 C306 1.386 . S
C307 C311 1.393 . S
C308 H297 0.950 1_545 S
C308 C306 1.391 . S
C308 C309 1.400 1_545 S
C309 C303 1.491 . S
C309 C308 1.400 1_565 S
C309 C310 1.398 1_565 S
C310 H298 0.950 . S
C310 C309 1.398 1_545 S
C310 C311 1.391 . S
C311 H299 0.950 . S
C311 C307 1.393 . S
C311 C310 1.391 . S
H312 C320 0.950 . S
H313 C325 0.950 . S
H314 C322 0.950 . S
H315 C324 0.950 . S
H316 C326 0.950 . S
H317 C328 0.950 . S
H318 C330 0.950 . S
H319 C331 0.950 . S
C320 H312 0.950 . S
C320 C321 1.386 . S
C320 C322 1.391 1_556 S
C321 C320 1.386 . S
C321 C325 1.393 . S
C322 H314 0.950 . S
C322 C320 1.391 1_554 S
C322 C323 1.400 . S
C323 C322 1.400 . S
C323 C324 1.398 . S
C323 C329 1.491 . S
C324 H315 0.950 . S
C324 C323 1.398 . S
C324 C325 1.391 1_554 S
C325 H313 0.950 . S
C325 C321 1.393 . S
C325 C324 1.391 1_556 S
C326 H316 0.950 . S
C326 C327 1.386 . S
C326 C328 1.391 . S
C327 C326 1.386 . S
C327 C331 1.393 . S
C328 H317 0.950 . S
C328 C326 1.391 . S
C328 C329 1.400 . S
C329 C323 1.491 . S
C329 C328 1.400 . S
C329 C330 1.398 . S
C330 H318 0.950 . S
C330 C329 1.398 . S
C330 C331 1.391 . S
C331 H319 0.950 . S
C331 C327 1.393 . S
C331 C330 1.391 . S
H332 C340 0.950 . S
H333 C345 0.950 . S
H334 C342 0.950 . S
H335 C344 0.950 . S
H336 C346 0.950 . S
H337 C348 0.950 . S
H338 C350 0.950 . S
H339 C351 0.950 . S
C340 H332 0.950 . S
C340 C341 1.386 . S
C340 C342 1.391 . S
C341 C340 1.386 . S
C341 C345 1.393 . S
C342 H334 0.950 . S
C342 C340 1.391 . S
C342 C343 1.400 . S
C343 C342 1.400 . S
C343 C344 1.398 . S
C343 C349 1.491 . S
C344 H335 0.950 . S
C344 C343 1.398 . S
C344 C345 1.391 . S
C345 H333 0.950 . S
C345 C341 1.393 . S
C345 C344 1.391 . S
C346 H336 0.950 . S
C346 C347 1.386 . S
C346 C348 1.391 . S
C347 C346 1.386 . S
C347 C351 1.393 . S
C348 H337 0.950 . S
C348 C346 1.391 . S
C348 C349 1.400 . S
C349 C343 1.491 . S
C349 C348 1.400 . S
C349 C350 1.398 . S
C350 H338 0.950 . S
C350 C349 1.398 . S
C350 C351 1.391 . S
C351 H339 0.950 . S
C351 C347 1.393 . S
C351 C350 1.391 . S
H352 C360 0.950 . S
H353 C365 0.950 . S
H354 C362 0.950 . S
H355 C364 0.950 . S
H356 C366 0.950 . S
H357 C368 0.950 . S
H358 C370 0.950 . S
H359 C371 0.950 . S
C360 H352 0.950 . S
C360 C361 1.386 . S
C360 C362 1.391 . S
C361 C360 1.386 . S
C361 C365 1.393 . S
C362 H354 0.950 . S
C362 C360 1.391 . S
C362 C363 1.400 . S
C363 C362 1.400 . S
C363 C364 1.398 . S
C363 C369 1.491 . S
C364 H355 0.950 . S
C364 C363 1.398 . S
C364 C365 1.391 . S
C365 H353 0.950 . S
C365 C361 1.393 . S
C365 C364 1.391 . S
C366 H356 0.950 . S
C366 C367 1.386 . S
C366 C368 1.391 . S
C367 C366 1.386 . S
C367 C371 1.393 . S
C368 H357 0.950 . S
C368 C366 1.391 . S
C368 C369 1.400 . S
C369 C363 1.491 . S
C369 C368 1.400 . S
C369 C370 1.398 . S
C370 H358 0.950 . S
C370 C369 1.398 . S
C370 C371 1.391 . S
C371 H359 0.950 . S
C371 C367 1.393 . S
C371 C370 1.391 . S
H372 C380 0.950 . S
H373 C385 0.950 . S
H374 C382 0.950 . S
H375 C384 0.950 . S
H376 C386 0.950 . S
H377 C388 0.950 . S
H378 C390 0.950 . S
H379 C391 0.950 . S
C380 H372 0.950 . S
C380 C381 1.386 . S
C380 C382 1.391 . S
C381 C380 1.386 . S
C381 C385 1.393 . S
C382 H374 0.950 . S
C382 C380 1.391 . S
C382 C383 1.400 . S
C383 C382 1.400 . S
C383 C384 1.398 . S
C383 C389 1.491 . S
C384 H375 0.950 . S
C384 C383 1.398 . S
C384 C385 1.391 . S
C385 H373 0.950 . S
C385 C381 1.393 . S
C385 C384 1.391 . S
C386 H376 0.950 . S
C386 C387 1.386 . S
C386 C388 1.391 1_554 S
C387 C386 1.386 . S
C387 C391 1.393 . S
C388 H377 0.950 . S
C388 C386 1.391 1_556 S
C388 C389 1.400 . S
C389 C383 1.491 . S
C389 C388 1.400 . S
C389 C390 1.398 . S
C390 H378 0.950 . S
C390 C389 1.398 . S
C390 C391 1.391 1_556 S
C391 H379 0.950 . S
C391 C387 1.393 . S
C391 C390 1.391 1_554 S
H392 C400 0.950 . S
H393 C405 0.950 . S
H394 C402 0.950 . S
H395 C404 0.950 . S
H396 C406 0.950 . S
H397 C408 0.950 . S
H398 C410 0.950 . S
H399 C411 0.950 . S
C400 H392 0.950 . S
C400 C401 1.386 . S
C400 C402 1.391 . S
C401 C400 1.386 . S
C401 C405 1.393 . S
C402 H394 0.950 . S
C402 C400 1.391 . S
C402 C403 1.400 . S
C403 C402 1.400 . S
C403 C404 1.398 . S
C403 C409 1.491 . S
C404 H395 0.950 . S
C404 C403 1.398 . S
C404 C405 1.391 . S
C405 H393 0.950 . S
C405 C401 1.393 . S
C405 C404 1.391 . S
C406 H396 0.950 . S
C406 C407 1.386 . S
C406 C408 1.391 . S
C407 C406 1.386 . S
C407 C411 1.393 1_565 S
C408 H397 0.950 . S
C408 C406 1.391 . S
C408 C409 1.400 . S
C409 C403 1.491 . S
C409 C408 1.400 . S
C409 C410 1.398 . S
C410 H398 0.950 . S
C410 C409 1.398 . S
C410 C411 1.391 1_565 S
C411 H399 0.950 . S
C411 C407 1.393 1_545 S
C411 C410 1.391 1_545 S
H412 C420 0.950 . S
H413 C425 0.950 . S
H414 C422 0.950 . S
H415 C424 0.947 1_455 S
H416 C426 0.950 . S
H417 C428 0.950 . S
H418 C430 0.950 . S
H419 C431 0.950 . S
C420 H412 0.950 . S
C420 C421 1.386 . S
C420 C422 1.391 . S
C421 C420 1.386 . S
C421 C425 1.393 1_655 S
C422 H414 0.950 . S
C422 C420 1.391 . S
C422 C423 1.400 . S
C423 C422 1.400 . S
C423 C424 1.403 . S
C423 C429 1.491 . S
C424 H415 0.947 1_655 S
C424 C423 1.403 . S
C424 C425 1.389 1_655 S
C425 H413 0.950 . S
C425 C421 1.393 1_455 S
C425 C424 1.389 1_455 S
C426 H416 0.950 . S
C426 C427 1.386 . S
C426 C428 1.391 . S
C427 C426 1.386 . S
C427 C431 1.393 . S
C428 H417 0.950 . S
C428 C426 1.391 . S
C428 C429 1.400 . S
C429 C423 1.491 . S
C429 C428 1.400 . S
C429 C430 1.398 . S
C430 H418 0.950 . S
C430 C429 1.398 . S
C430 C431 1.391 . S
C431 H419 0.950 . S
C431 C427 1.393 . S
C431 C430 1.391 . S
C261 C74 1.543 . S
C267 C63 1.543 . S
C281 C147 1.549 . S
C287 C158 1.549 . S
C301 C231 1.531 . S
C307 C242 1.531 . S
C321 C237 1.423 . S
C327 C67 1.559 . S
C341 C142 1.017 . S
C347 C56 1.405 . S
C361 C235 1.573 . S
C367 C153 1.426 . S
C381 C224 1.376 . S
C387 C58 1.021 . S
C401 C69 1.424 . S
C407 C151 1.571 1_565 S
C421 C226 1.052 . S
C427 C140 1.384 . S
