# Generated by pormake.
# Topology sxb, (6)-cn, num edge types: 1
# Building blocks:
#     Node 0, Type 0, BuildingBlock: KUMBUR_clean_sbu_1, # of connection points: 6
#     Node 1, Type 0, BuildingBlock: KUMBUR_clean_sbu_1, # of connection points: 6
#     Node 2, Type 0, BuildingBlock: KUMBUR_clean_sbu_1, # of connection points: 6
#     Node 3, Type 0, BuildingBlock: KUMBUR_clean_sbu_1, # of connection points: 6
#     Edge 4, Type (0, 0), BuildingBlock: OJICUG_clean_linker_0, # of connection points: 2
#     Edge 5, Type (0, 0), BuildingBlock: OJICUG_clean_linker_0, # of connection points: 2
#     Edge 6, Type (0, 0), BuildingBlock: OJICUG_clean_linker_0, # of connection points: 2
#     Edge 7, Type (0, 0), BuildingBlock: OJICUG_clean_linker_0, # of connection points: 2
#     Edge 8, Type (0, 0), BuildingBlock: OJICUG_clean_linker_0, # of connection points: 2
#     Edge 9, Type (0, 0), BuildingBlock: OJICUG_clean_linker_0, # of connection points: 2
#     Edge 10, Type (0, 0), BuildingBlock: OJICUG_clean_linker_0, # of connection points: 2
#     Edge 11, Type (0, 0), BuildingBlock: OJICUG_clean_linker_0, # of connection points: 2
#     Edge 12, Type (0, 0), BuildingBlock: OJICUG_clean_linker_0, # of connection points: 2
#     Edge 13, Type (0, 0), BuildingBlock: OJICUG_clean_linker_0, # of connection points: 2
#     Edge 14, Type (0, 0), BuildingBlock: OJICUG_clean_linker_0, # of connection points: 2
#     Edge 15, Type (0, 0), BuildingBlock: OJICUG_clean_linker_0, # of connection points: 2
# Relax obj value: 0.022
# Max RMSD: 0.073
# Mean RMSD: 0.073
data_MOF--net-sxb--node1-KUMBUR_clean_sbu_1--edge1-OJICUG_clean_linker_0
_symmetry_space_group_name_H-M    P1
_symmetry_Int_Tables_number       1
_symmetry_cell_setting            triclinic
loop_
_symmetry_equiv_pos_as_xyz
'x, y, z'
_cell_length_a     10.984183
_cell_length_b     40.197326
_cell_length_c     21.213995
_cell_angle_alpha  113.39759
_cell_angle_beta   90.172027
_cell_angle_gamma 89.738083
loop_
_atom_site_label
_atom_site_type_symbol
_atom_site_fract_x
_atom_site_fract_y
_atom_site_fract_z
_atom_type_partial_charge
Tb0 Tb 1.02418 0.96177 0.95987 0.0
C1 C 0.23071 0.10542 0.17802 0.0
N2 N 0.1133 0.09402 0.17277 0.0
C3 C 0.10343 0.11258 0.29508 0.0
C4 C 0.29043 0.11977 0.24206 0.0
C5 C 1.04798 0.0984 0.23036 0.0
C6 C 0.22549 0.12301 0.30093 0.0
C7 C 0.41338 0.11355 0.12153 0.0
C8 C 0.29142 0.10257 0.11863 0.0
C9 C 0.47439 0.12674 0.18505 0.0
C10 C 0.41294 0.13013 0.24515 0.0
Tb11 Tb 1.03824 0.06941 0.06336 0.0
N12 N 0.23247 0.08692 0.05734 0.0
C13 C 0.47074 0.10983 0.06011 0.0
C14 C 0.28472 0.08545 0.9981 0.0
C15 C 0.40544 0.09642 0.99841 0.0
H16 H 0.95265 0.09136 0.22675 0.0
H17 H 0.4485 0.09412 0.95103 0.0
H18 H 0.11326 0.9401 0.79707 0.0
H19 H 0.61166 0.93556 0.06874 0.0
H20 H 0.23408 0.07525 0.95066 0.0
H21 H 0.56517 0.11703 0.05945 0.0
H22 H 0.82622 0.95485 0.07105 0.0
H23 H 0.05188 0.11556 0.34044 0.0
H24 H 0.56927 0.13411 0.18848 0.0
H25 H 0.46117 0.14068 0.29373 0.0
H26 H 1.01528 0.91704 0.683 0.0
H27 H 0.26821 0.1339 0.35114 0.0
H28 H 0.49636 0.91363 0.95969 0.0
N29 N 0.95111 0.93757 0.85001 0.0
C30 C 0.83328 0.92644 0.84404 0.0
C31 C 0.96286 0.91982 0.72796 0.0
C32 C 0.77401 0.913 0.77984 0.0
C33 C 1.01765 0.9333 0.79287 0.0
C34 C 0.8401 0.91006 0.72149 0.0
N35 N 0.83001 0.9437 0.9645 0.0
C36 C 0.77655 0.94476 0.02319 0.0
C37 C 0.64919 0.91805 0.89914 0.0
C38 C 0.77167 0.92867 0.90283 0.0
C39 C 0.59098 0.92096 0.95986 0.0
C40 C 0.65558 0.93372 0.02186 0.0
H41 H 0.7977 0.89988 0.6712 0.0
H42 H 0.60253 0.89379 0.72753 0.0
H43 H 0.49258 0.89987 0.83198 0.0
O44 O 0.0839 0.92664 0.00699 0.0
O45 O 0.85712 0.99503 0.96404 0.0
O46 O 0.85307 0.04819 0.06244 0.0
O47 O 0.06737 0.90785 0.89766 0.0
O48 O 0.05094 0.98492 0.07203 0.0
O49 O 0.94825 0.03966 0.11655 0.0
O50 O 0.99177 0.10515 0.01539 0.0
O51 O 0.20344 0.03573 0.06084 0.0
O52 O 0.20829 0.98367 0.96065 0.0
O53 O 0.98745 0.12284 0.12506 0.0
O54 O 1.00629 0.04579 0.95159 0.0
O55 O 0.11324 0.99194 0.90744 0.0
C56 C 0.79706 0.02175 0.01206 0.0
C57 C 0.20208 0.87431 0.93763 0.0
C58 C 0.29404 0.82116 0.94972 0.0
C59 C 0.3838 0.82041 0.90211 0.0
C60 C 0.29238 0.8724 0.88966 0.0
C61 C 0.38231 0.8456 0.87217 0.0
C62 C 0.20366 0.84864 0.96786 0.0
C63 C 0.99348 1.0107 0.12239 0.0
C64 C 0.09637 0.89908 0.94837 0.0
C65 C 0.65071 0.90334 0.77613 0.0
C66 C 0.5883 0.90627 0.83567 0.0
C67 C 0.26418 1.00958 0.01203 0.0
C68 C 0.8671 0.15689 0.0785 0.0
C69 C 0.78318 0.20863 0.05801 0.0
C70 C 0.68402 0.20946 0.10036 0.0
C71 C 0.76733 0.15874 0.12082 0.0
C72 C 0.87478 0.182 0.0472 0.0
C73 C 0.67666 0.18488 0.13156 0.0
C74 C 0.06678 0.02075 0.9017 0.0
C75 C 0.97066 0.1322 0.0737 0.0
H76 H 0.45545 0.80017 0.88762 0.0
H77 H 0.29156 0.89113 0.86445 0.0
H78 H 0.45053 0.84381 0.83433 0.0
H79 H 0.13155 0.84908 1.00294 0.0
H80 H 0.61352 0.2299 0.11124 0.0
H81 H 0.76086 0.14037 0.14661 0.0
H82 H 0.95288 0.18114 0.01548 0.0
H83 H 0.60087 0.18658 0.16511 0.0
Tb84 Tb 0.05599 0.06811 0.55545 0.0
C85 C 0.32504 0.92708 0.4034 0.0
N86 N 0.21738 0.93731 0.3846 0.0
C87 C 0.28727 0.91804 0.26848 0.0
C88 C 0.41981 0.91292 0.35546 0.0
C89 C 0.19626 0.93238 0.318 0.0
C90 C 0.3998 0.90846 0.28734 0.0
C91 C 0.45443 0.92378 0.49372 0.0
C92 C 0.34226 0.93286 0.47203 0.0
C93 C 0.54963 0.91007 0.44626 0.0
C94 C 0.53238 0.90478 0.3774 0.0
Tb95 Tb 0.07633 0.95943 0.46958 0.0
N96 N 0.2498 0.94774 0.51744 0.0
C97 C 0.46741 0.92867 0.56245 0.0
C98 C 0.25849 0.94918 0.5827 0.0
C99 C 0.36813 0.94072 0.60676 0.0
H100 H 0.10854 0.93883 0.30267 0.0
H101 H 0.37507 0.94273 0.65906 0.0
H102 H 0.15845 0.09636 0.71695 0.0
H103 H 0.6367 0.09397 0.44994 0.0
H104 H 0.18035 0.95517 0.61573 0.0
H105 H 0.55215 0.92204 0.58116 0.0
H106 H 0.85262 0.07487 0.44587 0.0
H107 H 0.27047 0.91431 0.21579 0.0
H108 H 0.63703 0.90368 0.46251 0.0
H109 H 0.60699 0.89496 0.34152 0.0
H110 H 0.06918 0.12335 0.83338 0.0
H111 H 0.47055 0.89768 0.24899 0.0
H112 H 0.52682 0.11732 0.56042 0.0
N113 N 0.99081 0.0965 0.66639 0.0
C114 C 0.87252 0.10754 0.6737 0.0
C115 C 1.01268 0.11879 0.78883 0.0
C116 C 0.81801 0.12318 0.739 0.0
C117 C 0.06266 0.10322 0.72283 0.0
C118 C 0.88942 0.12836 0.79694 0.0
N119 N 0.8616 0.08743 0.55296 0.0
C120 C 0.80513 0.08583 0.49439 0.0
C121 C 0.68386 0.11453 0.62015 0.0
C122 C 0.80652 0.10374 0.61529 0.0
C123 C 0.62184 0.11022 0.55952 0.0
C124 C 0.68345 0.09664 0.49668 0.0
H125 H 0.85092 0.14028 0.84811 0.0
H126 H 0.64995 0.14445 0.7938 0.0
H127 H 0.53168 0.13545 0.68978 0.0
O128 O 0.13317 0.09731 0.5009 0.0
O129 O 0.88345 0.03764 0.54717 0.0
O130 O 0.88661 0.97776 0.46731 0.0
O131 O 0.09028 0.1235 0.60804 0.0
O132 O 0.06742 0.04139 0.44272 0.0
O133 O 0.99084 0.98234 0.40248 0.0
O134 O 1.02548 0.91765 0.50131 0.0
O135 O 0.2279 0.99446 0.46022 0.0
O136 O 0.23804 0.04544 0.56021 0.0
O137 O 1.03319 0.90816 0.39458 0.0
O138 O 1.02237 0.98724 0.57815 0.0
O139 O 0.13611 0.03913 0.61278 0.0
C140 C 0.82805 1.00728 0.50818 0.0
C141 C 0.23327 0.15361 0.56702 0.0
C142 C 0.31491 0.20775 0.55568 0.0
C143 C 0.40431 0.20999 0.60476 0.0
C144 C 0.3225 0.15684 0.61649 0.0
C145 C 0.4076 0.18485 0.63492 0.0
C146 C 0.22997 0.17909 0.53664 0.0
C147 C 1.01791 1.01249 0.39486 0.0
C148 C 0.13169 0.12784 0.55473 0.0
C149 C 0.69441 0.13309 0.74418 0.0
C150 C 0.62724 0.12839 0.68486 0.0
C151 C 0.29288 0.01884 0.50946 0.0
C152 C 0.90757 0.86825 0.42389 0.0
C153 C 0.81118 0.81727 0.44057 0.0
C154 C 0.73187 0.81301 0.38576 0.0
C155 C 0.8278 0.86299 0.36891 0.0
C156 C 0.89879 0.84523 0.4595 0.0
C157 C 0.74068 0.83556 0.35021 0.0
C158 C 0.07306 0.01539 0.62682 0.0
C159 C 1.01026 0.89407 0.4387 0.0
H160 H 0.46938 0.23197 0.62179 0.0
H161 H 0.32461 0.13819 0.64189 0.0
H162 H 0.47502 0.18773 0.67395 0.0
H163 H 0.15922 0.17713 0.49959 0.0
H164 H 0.66517 0.79146 0.36884 0.0
H165 H 0.83383 0.87965 0.33955 0.0
H166 H 0.96169 0.84871 0.5011 0.0
H167 H 0.68054 0.83142 0.30724 0.0
Tb168 Tb 0.55949 0.46121 0.94691 0.0
C169 C 0.7637 0.60422 0.16681 0.0
N170 N 0.64587 0.59307 0.16063 0.0
C171 C 0.63339 0.61086 0.28266 0.0
C172 C 0.82258 0.61771 0.23112 0.0
C173 C 0.57898 0.59734 0.21765 0.0
C174 C 0.75612 0.62066 0.28936 0.0
C175 C 0.94812 0.61266 0.11203 0.0
C176 C 0.82565 0.602 0.10813 0.0
C177 C 1.00864 0.6245 0.17562 0.0
C178 C 0.94587 0.62742 0.23506 0.0
Tb179 Tb 0.57344 0.56884 0.05064 0.0
N180 N 0.76763 0.58696 0.04636 0.0
C181 C 1.00666 0.60975 0.05139 0.0
C182 C 0.82137 0.58596 0.98778 0.0
C183 C 0.94235 0.597 0.9893 0.0
H184 H 0.4834 0.5905 0.21327 0.0
H185 H 0.98654 0.59517 0.9425 0.0
H186 H 0.64495 0.43943 0.78354 0.0
H187 H 0.14933 0.43637 0.05914 0.0
H188 H 0.77192 0.57586 0.93984 0.0
H189 H 0.1013 0.61706 0.05169 0.0
H190 H 0.36371 0.4553 0.05956 0.0
H191 H 0.58068 0.61364 0.32754 0.0
H192 H 0.10433 0.63097 0.17948 0.0
H193 H 0.99373 0.63702 0.28375 0.0
H194 H 0.54566 0.41532 0.66987 0.0
H195 H 0.79821 0.63087 0.33973 0.0
H196 H 1.03265 0.4135 0.95072 0.0
N197 N 0.48436 0.43671 0.8375 0.0
C198 C 0.36697 0.42529 0.83224 0.0
C199 C 0.49415 0.41825 0.71521 0.0
C200 C 0.30722 0.41098 0.76821 0.0
C201 C 0.54962 0.43238 0.77993 0.0
C202 C 0.37211 0.40781 0.70935 0.0
N203 N 0.36528 0.44368 0.9529 0.0
C204 C 0.31306 0.44511 0.01212 0.0
C205 C 0.18438 0.41707 0.88868 0.0
C206 C 0.30631 0.42808 0.8916 0.0
C207 C 0.12706 0.42072 0.95008 0.0
C208 C 0.19237 0.43411 0.01178 0.0
H209 H 0.32936 0.39695 0.65915 0.0
H210 H 0.13648 0.39008 0.71653 0.0
H211 H 1.02847 0.39654 0.82174 0.0
O212 O 0.6058 0.42536 0.99466 0.0
O213 O 0.39431 0.49492 0.94952 0.0
O214 O 0.38942 0.5469 0.04986 0.0
O215 O 0.61034 0.40781 0.88503 0.0
O216 O 0.59156 0.48473 0.05867 0.0
O217 O 0.48456 0.53857 0.10293 0.0
O218 O 0.51371 0.60391 1.00339 0.0
O219 O 0.74067 0.53563 0.04635 0.0
O220 O 0.74469 0.48244 0.94799 0.0
O221 O 0.53007 0.62276 0.11274 0.0
O222 O 0.54682 0.54572 0.93848 0.0
O223 O 0.64962 0.49101 0.89385 0.0
C224 C 0.33354 0.52102 0.99842 0.0
C225 C 0.73057 0.37367 0.93144 0.0
C226 C 0.81446 0.32189 0.95181 0.0
C227 C 0.91361 0.32107 0.90947 0.0
C228 C 0.83034 0.37183 0.88913 0.0
C229 C 0.92099 0.34568 0.87833 0.0
C230 C 0.72288 0.34853 0.96268 0.0
C231 C 0.53129 0.50979 0.10864 0.0
C232 C 0.62702 0.39836 0.9363 0.0
C233 C 0.18473 0.40059 0.7651 0.0
C234 C 0.12334 0.40392 0.82518 0.0
C235 C 0.80069 0.50887 0.99838 0.0
C236 C 0.3954 0.65624 0.0726 0.0
C237 C 0.30349 0.70936 0.06038 0.0
C238 C 0.21357 0.71009 0.1079 0.0
C239 C 0.30494 0.65813 0.12049 0.0
C240 C 0.39391 0.6819 0.04234 0.0
C241 C 0.21496 0.68492 0.13787 0.0
C242 C 0.6046 0.52002 0.88814 0.0
C243 C 0.50114 0.63148 0.06196 0.0
H244 H 0.98411 0.30062 0.89855 0.0
H245 H 0.83681 0.39022 0.86338 0.0
H246 H 0.99678 0.34399 0.84478 0.0
H247 H 0.64478 0.34937 0.99439 0.0
H248 H 0.14187 0.73032 0.1223 0.0
H249 H 0.30561 0.6394 0.14568 0.0
H250 H 0.46613 0.68146 0.00732 0.0
H251 H 0.14657 0.68669 0.1756 0.0
Tb252 Tb 0.52331 0.57137 0.54076 0.0
C253 C 0.72708 0.42319 0.33703 0.0
N254 N 0.60877 0.43421 0.34432 0.0
C255 C 0.58684 0.41181 0.22188 0.0
C256 C 0.78156 0.4075 0.27173 0.0
C257 C 0.53688 0.42743 0.28788 0.0
C258 C 0.71011 0.40226 0.21377 0.0
C259 C 0.91578 0.41627 0.39062 0.0
C260 C 0.79311 0.42704 0.39546 0.0
C261 C 0.97237 0.40236 0.3259 0.0
C262 C 0.90518 0.3976 0.26656 0.0
Tb263 Tb 0.54365 0.46269 0.45525 0.0
N264 N 0.73805 0.4434 0.45779 0.0
C265 C 0.97782 0.42062 0.45126 0.0
C266 C 0.79454 0.44505 0.51638 0.0
C267 C 0.91622 0.43425 0.51411 0.0
H268 H 0.44109 0.43428 0.29375 0.0
H269 H 0.96299 0.43694 0.56086 0.0
H270 H 0.49114 0.5923 0.70777 0.0
H271 H 0.22469 0.58782 0.35098 0.0
H272 H 0.74705 0.45603 0.5649 0.0
H273 H 0.07285 0.41353 0.45038 0.0
H274 H 0.41941 0.5755 0.39447 0.0
H275 H 0.53031 0.4072 0.17732 0.0
H276 H 0.06794 0.3953 0.32099 0.0
H277 H 0.94961 0.3862 0.21694 0.0
H278 H 0.32919 0.61692 0.79461 0.0
H279 H 0.74859 0.3903 0.1626 0.0
H280 H 1.04751 0.60855 0.4288 0.0
N281 N 0.38226 0.59364 0.62572 0.0
C282 C 0.27457 0.6038 0.60682 0.0
C283 C 0.31238 0.61309 0.74187 0.0
C284 C 0.17977 0.61801 0.65472 0.0
C285 C 0.4034 0.5987 0.69238 0.0
C286 C 0.1998 0.62259 0.72291 0.0
N287 N 0.34988 0.58302 0.49279 0.0
C288 C 0.34123 0.58149 0.42747 0.0
C289 C 0.14519 0.60694 0.51636 0.0
C290 C 0.25736 0.59792 0.53815 0.0
C291 C 0.13225 0.60197 0.44759 0.0
C292 C 0.23159 0.58989 0.40332 0.0
H293 H 0.12904 0.63341 0.76124 0.0
H294 H 0.99256 0.63592 0.66855 0.0
H295 H 0.96254 0.62702 0.54747 0.0
O296 O 0.57443 0.61304 0.50874 0.0
O297 O 0.37172 0.53641 0.5503 0.0
O298 O 0.36157 0.48535 0.45046 0.0
O299 O 0.56642 0.62271 0.61554 0.0
O300 O 0.57723 0.54344 0.4322 0.0
O301 O 0.46341 0.49157 0.39778 0.0
O302 O 0.46641 0.43357 0.50994 0.0
O303 O 0.71614 0.49317 0.4634 0.0
O304 O 0.71297 0.55305 0.54323 0.0
O305 O 0.50948 0.40728 0.40285 0.0
O306 O 0.53233 0.48948 0.56796 0.0
O307 O 0.60856 0.54858 0.6081 0.0
C308 C 0.30674 0.51198 0.50115 0.0
C309 C 0.69219 0.66251 0.58604 0.0
C310 C 0.78858 0.71346 0.56922 0.0
C311 C 0.86785 0.71777 0.62408 0.0
C312 C 0.77191 0.66783 0.64107 0.0
C313 C 0.85901 0.69526 0.65972 0.0
C314 C 0.70099 0.68549 0.55034 0.0
C315 C 0.52639 0.51527 0.38362 0.0
C316 C 0.58951 0.6367 0.57129 0.0
C317 C 0.06718 0.62608 0.63269 0.0
C318 C 0.04995 0.62068 0.56379 0.0
C319 C 0.77154 0.52353 0.50241 0.0
C320 C 0.36639 0.37724 0.44395 0.0
C321 C 0.28474 0.32312 0.45536 0.0
C322 C 0.19535 0.32087 0.40627 0.0
C323 C 0.27717 0.37399 0.39446 0.0
C324 C 0.36967 0.35178 0.47437 0.0
C325 C 0.19207 0.34599 0.37606 0.0
C326 C 0.58152 0.51845 0.61581 0.0
C327 C 0.46798 0.403 0.4562 0.0
H328 H 0.93452 0.73932 0.64096 0.0
H329 H 0.76586 0.65121 0.6705 0.0
H330 H 0.9191 0.69945 0.70272 0.0
H331 H 0.63811 0.68198 0.50871 0.0
H332 H 0.13027 0.29889 0.38925 0.0
H333 H 0.27507 0.39262 0.36902 0.0
H334 H 0.44041 0.35376 0.51143 0.0
H335 H 0.12466 0.34309 0.33702 0.0
C336 C 0.32783 0.72938 0.96232 0.0
C337 C 0.30334 0.73803 0.03202 0.0
H338 H 0.34058 0.74832 0.88146 0.0
C339 C 0.27462 0.77432 0.0744 0.0
H340 H 0.34835 0.70172 0.92796 0.0
C341 C 0.26982 0.80113 0.04777 0.0
C342 C 0.29429 0.79248 0.97807 0.0
H343 H 0.25705 0.78219 0.12863 0.0
H344 H 0.2493 0.82879 0.08214 0.0
C345 C 0.32303 0.75619 0.9357 0.0
C346 C 0.69419 0.27648 0.9809 0.0
C347 C 0.80544 0.29364 0.98099 0.0
H348 H 0.60061 0.23564 1.00272 0.0
C349 C 0.90994 0.28204 0.00545 0.0
H350 H 0.61237 0.28412 0.96124 0.0
C351 C 0.90348 0.25402 0.02887 0.0
C352 C 0.79221 0.23686 0.02879 0.0
H353 H 0.99706 0.29486 0.00705 0.0
H354 H 0.9853 0.24638 0.04853 0.0
C355 C 0.68772 0.24846 1.00432 0.0
C356 C 0.41304 0.25133 0.5125 0.0
C357 C 0.30689 0.23665 0.52821 0.0
H358 H 0.48956 0.28981 0.47728 0.0
C359 C 0.19356 0.25114 0.52088 0.0
H360 H 0.50185 0.2406 0.51681 0.0
C361 C 0.18661 0.27956 0.49858 0.0
C362 C 0.29275 0.29424 0.48286 0.0
H363 H 0.11008 0.24108 0.5338 0.0
H364 H 0.09779 0.29029 0.49427 0.0
C365 C 0.40608 0.27975 0.49021 0.0
C366 C 0.69268 0.77901 0.48861 0.0
C367 C 0.8055 0.79131 0.47503 0.0
H368 H 0.59868 0.74513 0.52886 0.0
C369 C 0.91262 0.77731 0.49176 0.0
H370 H 0.60824 0.7895 0.47717 0.0
C371 C 0.90707 0.75168 0.5211 0.0
C372 C 0.79425 0.73938 0.53469 0.0
H373 H 1.00107 0.78556 0.48085 0.0
H374 H 0.99151 0.7412 0.53255 0.0
C375 C 0.68713 0.75338 0.51795 0.0
C376 C 0.467 0.99973 0.95018 0.0
C377 C 0.40105 1.01159 0.01215 0.0
H378 H 0.64157 0.99472 0.90137 0.0
C379 C 0.4669 0.02753 0.07403 0.0
H380 H 0.41984 0.98767 0.90144 0.0
C381 C 0.59427 0.03184 0.07398 0.0
C382 C 0.66019 0.01994 0.01201 0.0
H383 H 0.41969 0.03686 0.1228 0.0
H384 H 0.64147 0.04389 0.1227 0.0
C385 C 0.59434 1.00404 0.95013 0.0
C386 C 0.49788 0.02931 0.57018 0.0
C387 C 0.43033 0.01611 0.50858 0.0
H388 H 0.67411 0.03624 0.61841 0.0
C389 C 0.49574 0.99946 0.44666 0.0
H390 H 0.45172 0.04236 0.61897 0.0
C391 C 0.62362 0.99515 0.44644 0.0
C392 C 0.69078 1.00821 0.50811 0.0
H393 H 0.44791 0.98988 0.39804 0.0
H394 H 0.67036 0.98249 0.39775 0.0
C395 C 0.62573 0.0255 0.5699 0.0
C396 C 1.00346 0.49877 0.93647 0.0
C397 C 0.93754 0.51068 0.99844 0.0
H398 H 0.17802 0.49376 0.88765 0.0
C399 C 1.00339 0.52657 0.06032 0.0
H400 H 0.95625 0.48673 0.88775 0.0
C401 C 0.13073 0.53087 0.06027 0.0
C402 C 0.19668 0.51901 0.9983 0.0
H403 H 0.95615 0.53589 0.10908 0.0
H404 H 0.17788 0.54292 0.10901 0.0
C405 C 0.13082 0.50308 0.93642 0.0
C406 C 0.10172 0.50146 0.44044 0.0
C407 C 0.16929 0.51471 0.50203 0.0
H408 H 0.92549 0.49448 0.3922 0.0
C409 C 0.10388 0.53142 0.56394 0.0
H410 H 0.14788 0.48837 0.39165 0.0
C411 C 0.97599 0.53572 0.56414 0.0
C412 C 0.90882 0.5226 0.50248 0.0
H413 H 0.15173 0.54105 0.61255 0.0
H414 H 0.92926 0.54842 0.61284 0.0
C415 C 0.97388 0.50527 0.4407 0.0
C416 C 0.11626 1.00776 0.28637 0.0
C417 C 1.00985 1.01181 0.32517 0.0
H418 H 0.19332 1.00305 0.19034 0.0
C419 C 0.89721 0.0153 0.29697 0.0
H420 H 0.20408 1.00533 0.3076 0.0
C421 C 0.89145 0.01513 0.23079 0.0
C422 C 0.99777 1.0102 0.1914 0.0
H423 H 0.81427 0.01863 0.32642 0.0
H424 H 0.80413 0.01844 0.21005 0.0
C425 C 0.11004 1.0063 0.2195 0.0
C426 C 0.17752 0.02459 0.80274 0.0
C427 C 0.06722 0.02183 0.83332 0.0
H428 H 0.26479 0.02594 0.71342 0.0
C429 C 0.95819 0.01753 0.79625 0.0
H430 H 0.26264 0.02746 0.83032 0.0
C431 C 0.96 0.01501 0.72851 0.0
C432 C 0.07029 0.01811 0.69812 0.0
H433 H 0.87242 0.01484 0.81887 0.0
H434 H 0.8754 1.01094 0.70006 0.0
C435 C 0.17872 0.02359 0.73612 0.0
C436 C 0.63892 0.51577 0.28184 0.0
C437 C 0.52886 0.51252 0.31228 0.0
H438 H 0.72598 0.51604 0.19142 0.0
C439 C 0.42034 0.50685 0.27431 0.0
H440 H 0.72358 0.52 0.31027 0.0
C441 C 0.4212 0.50581 0.20767 0.0
C442 C 0.53127 0.50873 0.17704 0.0
H443 H 0.33444 0.50439 0.29707 0.0
H444 H 0.33599 0.5028 0.18011 0.0
C445 C 0.6404 0.51322 0.21408 0.0
C446 C 0.70168 0.51535 0.71364 0.0
C447 C 0.58932 0.51919 0.68555 0.0
H448 H 0.79418 0.51186 0.80041 0.0
C449 C 0.48285 0.52351 0.72441 0.0
H450 H 0.78465 0.51179 0.68412 0.0
C451 C 0.48876 0.5249 0.79123 0.0
C452 C 0.60073 0.52064 0.81922 0.0
H453 H 0.39522 0.52618 0.70324 0.0
H454 H 0.40543 0.52835 0.82043 0.0
C455 C 0.70709 0.51545 0.77977 0.0
loop_
_geom_bond_atom_site_label_1
_geom_bond_atom_site_label_2
_geom_bond_distance
_geom_bond_site_symmetry_2
_ccdc_geom_bond_type
Tb0 N29 2.617 . S
Tb0 N35 2.572 . S
Tb0 O44 2.465 1_655 S
Tb0 O45 2.387 . S
Tb0 O47 2.428 1_655 S
Tb0 O48 2.308 1_556 S
Tb0 O52 2.349 1_655 S
Tb0 O55 2.393 1_655 S
Tb0 C64 2.802 1_655 S
C1 N2 1.379 . S
C1 C4 1.416 . S
C1 C8 1.424 . S
N2 C1 1.379 . S
N2 C5 1.334 . S
N2 Tb11 2.617 . S
C3 C5 1.390 . S
C3 C6 1.339 . S
C3 H23 0.930 . S
C4 C1 1.416 . S
C4 C6 1.416 . S
C4 C10 1.448 . S
C5 N2 1.334 . S
C5 C3 1.390 . S
C5 H16 0.930 . S
C6 C3 1.339 . S
C6 C4 1.416 . S
C6 H27 0.930 . S
C7 C8 1.413 . S
C7 C9 1.427 . S
C7 C13 1.415 . S
C8 C1 1.424 . S
C8 C7 1.413 . S
C8 N12 1.361 . S
C9 C7 1.427 . S
C9 C10 1.328 . S
C9 H24 0.929 . S
C10 C4 1.448 . S
C10 C9 1.328 . S
C10 H25 0.930 . S
Tb11 N2 2.617 . S
Tb11 N12 2.572 . S
Tb11 O46 2.349 1_455 S
Tb11 O49 2.393 1_455 S
Tb11 O50 2.465 1_455 S
Tb11 O51 2.387 . S
Tb11 O53 2.428 1_455 S
Tb11 O54 2.308 1_554 S
Tb11 C75 2.802 1_455 S
N12 C8 1.361 . S
N12 Tb11 2.572 . S
N12 C14 1.340 1_554 S
C13 C7 1.415 . S
C13 C15 1.333 1_554 S
C13 H21 0.931 1_554 S
C14 N12 1.340 1_556 S
C14 C15 1.407 . S
C14 H20 0.930 . S
C15 C13 1.333 1_556 S
C15 C14 1.407 . S
C15 H17 0.929 . S
H16 C5 0.930 . S
H17 C15 0.929 . S
H18 C33 0.930 . S
H19 C40 0.929 . S
H20 C14 0.930 . S
H21 C13 0.931 1_556 S
H22 C36 0.930 . S
H23 C3 0.930 . S
H24 C9 0.929 . S
H25 C10 0.930 . S
H26 C31 0.930 . S
H27 C6 0.930 . S
H28 C39 0.931 . S
N29 Tb0 2.617 . S
N29 C30 1.379 . S
N29 C33 1.334 . S
C30 N29 1.379 . S
C30 C32 1.416 . S
C30 C38 1.424 . S
C31 H26 0.930 . S
C31 C33 1.390 . S
C31 C34 1.339 . S
C32 C30 1.416 . S
C32 C34 1.416 . S
C32 C65 1.448 . S
C33 H18 0.930 . S
C33 N29 1.334 . S
C33 C31 1.390 . S
C34 C31 1.339 . S
C34 C32 1.416 . S
C34 H41 0.930 . S
N35 Tb0 2.572 . S
N35 C36 1.340 1_556 S
N35 C38 1.361 . S
C36 H22 0.930 . S
C36 N35 1.340 1_554 S
C36 C40 1.407 . S
C37 C38 1.413 . S
C37 C39 1.416 1_556 S
C37 C66 1.427 . S
C38 C30 1.424 . S
C38 N35 1.361 . S
C38 C37 1.413 . S
C39 H28 0.931 . S
C39 C37 1.416 1_554 S
C39 C40 1.332 . S
C40 H19 0.929 . S
C40 C36 1.407 . S
C40 C39 1.332 . S
H41 C34 0.930 . S
H42 C65 0.930 . S
H43 C66 0.929 . S
O44 Tb0 2.465 1_455 S
O44 C64 1.264 . S
O45 Tb0 2.387 . S
O45 C56 1.264 1_565 S
O46 Tb11 2.349 1_655 S
O46 C56 1.243 1_554 S
O47 Tb0 2.428 1_455 S
O47 C64 1.256 . S
O48 Tb0 2.308 1_554 S
O48 C63 1.266 1_565 S
O49 Tb11 2.393 1_655 S
O49 C63 1.248 . S
O50 Tb11 2.465 1_655 S
O50 C75 1.264 . S
O51 Tb11 2.387 . S
O51 C67 1.264 1_545 S
O52 Tb0 2.349 1_455 S
O52 C67 1.243 1_556 S
O53 Tb11 2.428 1_655 S
O53 C75 1.256 . S
O54 Tb11 2.308 1_556 S
O54 C74 1.266 1_545 S
O55 Tb0 2.393 1_455 S
O55 C74 1.248 . S
C56 O45 1.264 1_545 S
C56 O46 1.243 1_556 S
C57 C60 1.399 . S
C57 C62 1.383 . S
C57 C64 1.496 . S
C58 C59 1.399 . S
C58 C62 1.389 . S
C59 C58 1.399 . S
C59 C61 1.380 . S
C59 H76 0.929 . S
C60 C57 1.399 . S
C60 C61 1.392 . S
C60 H77 0.929 . S
C61 C59 1.380 . S
C61 C60 1.392 . S
C61 H78 0.929 . S
C62 C57 1.383 . S
C62 C58 1.389 . S
C62 H79 0.931 1_556 S
C63 O48 1.266 1_545 S
C63 O49 1.248 . S
C64 Tb0 2.802 1_455 S
C64 O44 1.264 . S
C64 O47 1.256 . S
C64 C57 1.496 . S
C65 C32 1.448 . S
C65 H42 0.930 . S
C65 C66 1.328 . S
C66 C37 1.427 . S
C66 H43 0.929 . S
C66 C65 1.328 . S
C67 O51 1.264 1_565 S
C67 O52 1.243 1_554 S
C68 C71 1.399 . S
C68 C72 1.383 . S
C68 C75 1.496 . S
C69 C70 1.399 . S
C69 C72 1.389 . S
C70 C69 1.399 . S
C70 C73 1.380 . S
C70 H80 0.929 . S
C71 C68 1.399 . S
C71 C73 1.392 . S
C71 H81 0.929 . S
C72 C68 1.383 . S
C72 C69 1.389 . S
C72 H82 0.931 1_554 S
C73 C70 1.380 . S
C73 C71 1.392 . S
C73 H83 0.929 . S
C74 O54 1.266 1_565 S
C74 O55 1.248 . S
C75 Tb11 2.802 1_655 S
C75 O50 1.264 . S
C75 O53 1.256 . S
C75 C68 1.496 . S
H76 C59 0.929 . S
H77 C60 0.929 . S
H78 C61 0.929 . S
H79 C62 0.931 1_554 S
H80 C70 0.929 . S
H81 C71 0.929 . S
H82 C72 0.931 1_556 S
H83 C73 0.929 . S
Tb84 N113 2.617 . S
Tb84 N119 2.572 . S
Tb84 O128 2.465 1_655 S
Tb84 O129 2.387 . S
Tb84 O131 2.428 1_655 S
Tb84 O132 2.308 . S
Tb84 O136 2.349 1_655 S
Tb84 O139 2.393 1_655 S
Tb84 C148 2.802 1_655 S
C85 N86 1.379 . S
C85 C88 1.416 . S
C85 C92 1.424 . S
N86 C85 1.379 . S
N86 C89 1.334 . S
N86 Tb95 2.617 . S
C87 C89 1.390 . S
C87 C90 1.339 . S
C87 H107 0.930 . S
C88 C85 1.416 . S
C88 C90 1.416 . S
C88 C94 1.448 . S
C89 N86 1.334 . S
C89 C87 1.390 . S
C89 H100 0.930 . S
C90 C87 1.339 . S
C90 C88 1.416 . S
C90 H111 0.930 . S
C91 C92 1.413 . S
C91 C93 1.427 . S
C91 C97 1.416 . S
C92 C85 1.424 . S
C92 C91 1.413 . S
C92 N96 1.361 . S
C93 C91 1.427 . S
C93 C94 1.328 . S
C93 H108 0.929 . S
C94 C88 1.448 . S
C94 C93 1.328 . S
C94 H109 0.930 . S
Tb95 N86 2.617 . S
Tb95 N96 2.572 . S
Tb95 O130 2.349 1_455 S
Tb95 O133 2.393 1_455 S
Tb95 O134 2.465 1_455 S
Tb95 O135 2.387 . S
Tb95 O137 2.428 1_455 S
Tb95 O138 2.308 . S
Tb95 C159 2.802 1_455 S
N96 C92 1.361 . S
N96 Tb95 2.572 . S
N96 C98 1.340 . S
C97 C91 1.416 . S
C97 C99 1.332 . S
C97 H105 0.931 . S
C98 N96 1.340 . S
C98 C99 1.407 . S
C98 H104 0.930 . S
C99 C97 1.332 . S
C99 C98 1.407 . S
C99 H101 0.929 . S
H100 C89 0.930 . S
H101 C99 0.929 . S
H102 C117 0.930 . S
H103 C124 0.929 . S
H104 C98 0.930 . S
H105 C97 0.931 . S
H106 C120 0.930 . S
H107 C87 0.930 . S
H108 C93 0.929 . S
H109 C94 0.930 . S
H110 C115 0.930 . S
H111 C90 0.930 . S
H112 C123 0.931 . S
N113 Tb84 2.617 . S
N113 C114 1.379 . S
N113 C117 1.334 . S
C114 N113 1.379 . S
C114 C116 1.416 . S
C114 C122 1.424 . S
C115 H110 0.930 . S
C115 C117 1.390 . S
C115 C118 1.339 . S
C116 C114 1.416 . S
C116 C118 1.416 . S
C116 C149 1.448 . S
C117 H102 0.930 . S
C117 N113 1.334 . S
C117 C115 1.390 . S
C118 C115 1.339 . S
C118 C116 1.416 . S
C118 H125 0.930 . S
N119 Tb84 2.572 . S
N119 C120 1.340 . S
N119 C122 1.361 . S
C120 H106 0.930 . S
C120 N119 1.340 . S
C120 C124 1.407 . S
C121 C122 1.413 . S
C121 C123 1.416 . S
C121 C150 1.427 . S
C122 C114 1.424 . S
C122 N119 1.361 . S
C122 C121 1.413 . S
C123 H112 0.931 . S
C123 C121 1.416 . S
C123 C124 1.332 . S
C124 H103 0.929 . S
C124 C120 1.407 . S
C124 C123 1.332 . S
H125 C118 0.930 . S
H126 C149 0.930 . S
H127 C150 0.929 . S
O128 Tb84 2.465 1_455 S
O128 C148 1.264 . S
O129 Tb84 2.387 . S
O129 C140 1.264 1_545 S
O130 Tb95 2.349 1_655 S
O130 C140 1.243 . S
O131 Tb84 2.428 1_455 S
O131 C148 1.256 . S
O132 Tb84 2.308 . S
O132 C147 1.266 1_545 S
O133 Tb95 2.393 1_655 S
O133 C147 1.248 . S
O134 Tb95 2.465 1_655 S
O134 C159 1.264 . S
O135 Tb95 2.387 . S
O135 C151 1.264 1_565 S
O136 Tb84 2.349 1_455 S
O136 C151 1.243 . S
O137 Tb95 2.428 1_655 S
O137 C159 1.256 . S
O138 Tb95 2.308 . S
O138 C158 1.266 1_565 S
O139 Tb84 2.393 1_455 S
O139 C158 1.248 . S
C140 O129 1.264 1_565 S
C140 O130 1.243 . S
C141 C144 1.399 . S
C141 C146 1.383 . S
C141 C148 1.496 . S
C142 C143 1.399 . S
C142 C146 1.389 . S
C143 C142 1.399 . S
C143 C145 1.380 . S
C143 H160 0.929 . S
C144 C141 1.399 . S
C144 C145 1.392 . S
C144 H161 0.929 . S
C145 C143 1.380 . S
C145 C144 1.392 . S
C145 H162 0.929 . S
C146 C141 1.383 . S
C146 C142 1.389 . S
C146 H163 0.931 . S
C147 O132 1.266 1_565 S
C147 O133 1.248 . S
C148 Tb84 2.802 1_455 S
C148 O128 1.264 . S
C148 O131 1.256 . S
C148 C141 1.496 . S
C149 C116 1.448 . S
C149 H126 0.930 . S
C149 C150 1.328 . S
C150 C121 1.427 . S
C150 H127 0.929 . S
C150 C149 1.328 . S
C151 O135 1.264 1_545 S
C151 O136 1.243 . S
C152 C155 1.399 . S
C152 C156 1.383 . S
C152 C159 1.496 . S
C153 C154 1.399 . S
C153 C156 1.389 . S
C154 C153 1.399 . S
C154 C157 1.380 . S
C154 H164 0.929 . S
C155 C152 1.399 . S
C155 C157 1.392 . S
C155 H165 0.929 . S
C156 C152 1.383 . S
C156 C153 1.389 . S
C156 H166 0.931 . S
C157 C154 1.380 . S
C157 C155 1.392 . S
C157 H167 0.929 . S
C158 O138 1.266 1_545 S
C158 O139 1.248 . S
C159 Tb95 2.802 1_655 S
C159 O134 1.264 . S
C159 O137 1.256 . S
C159 C152 1.496 . S
H160 C143 0.929 . S
H161 C144 0.929 . S
H162 C145 0.929 . S
H163 C146 0.931 . S
H164 C154 0.929 . S
H165 C155 0.929 . S
H166 C156 0.931 . S
H167 C157 0.929 . S
Tb168 N197 2.617 . S
Tb168 N203 2.572 . S
Tb168 O212 2.465 . S
Tb168 O213 2.387 . S
Tb168 O215 2.428 . S
Tb168 O216 2.308 1_556 S
Tb168 O220 2.349 . S
Tb168 O223 2.393 . S
Tb168 C232 2.802 . S
C169 N170 1.379 . S
C169 C172 1.416 . S
C169 C176 1.424 . S
N170 C169 1.379 . S
N170 C173 1.334 . S
N170 Tb179 2.617 . S
C171 C173 1.390 . S
C171 C174 1.339 . S
C171 H191 0.930 . S
C172 C169 1.416 . S
C172 C174 1.416 . S
C172 C178 1.448 . S
C173 N170 1.334 . S
C173 C171 1.390 . S
C173 H184 0.930 . S
C174 C171 1.339 . S
C174 C172 1.416 . S
C174 H195 0.930 . S
C175 C176 1.413 . S
C175 C177 1.427 . S
C175 C181 1.415 . S
C176 C169 1.424 . S
C176 C175 1.413 . S
C176 N180 1.361 . S
C177 C175 1.427 . S
C177 C178 1.328 . S
C177 H192 0.929 . S
C178 C172 1.448 . S
C178 C177 1.328 . S
C178 H193 0.930 . S
Tb179 N170 2.617 . S
Tb179 N180 2.572 . S
Tb179 O214 2.349 . S
Tb179 O217 2.393 . S
Tb179 O218 2.465 . S
Tb179 O219 2.387 . S
Tb179 O221 2.428 . S
Tb179 O222 2.308 1_554 S
Tb179 C243 2.802 . S
N180 C176 1.361 . S
N180 Tb179 2.572 . S
N180 C182 1.340 1_554 S
C181 C175 1.415 . S
C181 C183 1.333 1_554 S
C181 H189 0.931 1_554 S
C182 N180 1.340 1_556 S
C182 C183 1.407 . S
C182 H188 0.930 . S
C183 C181 1.333 1_556 S
C183 C182 1.407 . S
C183 H185 0.929 . S
H184 C173 0.930 . S
H185 C183 0.929 . S
H186 C201 0.930 . S
H187 C208 0.929 . S
H188 C182 0.930 . S
H189 C181 0.931 1_556 S
H190 C204 0.930 . S
H191 C171 0.930 . S
H192 C177 0.929 . S
H193 C178 0.930 . S
H194 C199 0.930 . S
H195 C174 0.930 . S
H196 C207 0.931 . S
N197 Tb168 2.617 . S
N197 C198 1.379 . S
N197 C201 1.334 . S
C198 N197 1.379 . S
C198 C200 1.416 . S
C198 C206 1.424 . S
C199 H194 0.930 . S
C199 C201 1.390 . S
C199 C202 1.339 . S
C200 C198 1.416 . S
C200 C202 1.416 . S
C200 C233 1.448 . S
C201 H186 0.930 . S
C201 N197 1.334 . S
C201 C199 1.390 . S
C202 C199 1.339 . S
C202 C200 1.416 . S
C202 H209 0.930 . S
N203 Tb168 2.572 . S
N203 C204 1.340 1_556 S
N203 C206 1.361 . S
C204 H190 0.930 . S
C204 N203 1.340 1_554 S
C204 C208 1.407 . S
C205 C206 1.413 . S
C205 C207 1.416 1_556 S
C205 C234 1.427 . S
C206 C198 1.424 . S
C206 N203 1.361 . S
C206 C205 1.413 . S
C207 H196 0.931 . S
C207 C205 1.416 1_554 S
C207 C208 1.332 . S
C208 H187 0.929 . S
C208 C204 1.407 . S
C208 C207 1.332 . S
H209 C202 0.930 . S
H210 C233 0.930 . S
H211 C234 0.929 . S
O212 Tb168 2.465 . S
O212 C232 1.264 . S
O213 Tb168 2.387 . S
O213 C224 1.264 . S
O214 Tb179 2.349 . S
O214 C224 1.243 1_554 S
O215 Tb168 2.428 . S
O215 C232 1.256 . S
O216 Tb168 2.308 1_554 S
O216 C231 1.266 . S
O217 Tb179 2.393 . S
O217 C231 1.248 . S
O218 Tb179 2.465 . S
O218 C243 1.264 . S
O219 Tb179 2.387 . S
O219 C235 1.264 . S
O220 Tb168 2.349 . S
O220 C235 1.243 1_556 S
O221 Tb179 2.428 . S
O221 C243 1.256 . S
O222 Tb179 2.308 1_556 S
O222 C242 1.266 . S
O223 Tb168 2.393 . S
O223 C242 1.248 . S
C224 O213 1.264 . S
C224 O214 1.243 1_556 S
C225 C228 1.399 . S
C225 C230 1.383 . S
C225 C232 1.496 . S
C226 C227 1.399 . S
C226 C230 1.389 . S
C227 C226 1.399 . S
C227 C229 1.380 . S
C227 H244 0.929 . S
C228 C225 1.399 . S
C228 C229 1.392 . S
C228 H245 0.929 . S
C229 C227 1.380 . S
C229 C228 1.392 . S
C229 H246 0.929 . S
C230 C225 1.383 . S
C230 C226 1.389 . S
C230 H247 0.931 1_556 S
C231 O216 1.266 . S
C231 O217 1.248 . S
C232 Tb168 2.802 . S
C232 O212 1.264 . S
C232 O215 1.256 . S
C232 C225 1.496 . S
C233 C200 1.448 . S
C233 H210 0.930 . S
C233 C234 1.328 . S
C234 C205 1.427 . S
C234 H211 0.929 . S
C234 C233 1.328 . S
C235 O219 1.264 . S
C235 O220 1.243 1_554 S
C236 C239 1.399 . S
C236 C240 1.383 . S
C236 C243 1.496 . S
C237 C238 1.399 . S
C237 C240 1.389 . S
C238 C237 1.399 . S
C238 C241 1.380 . S
C238 H248 0.929 . S
C239 C236 1.399 . S
C239 C241 1.392 . S
C239 H249 0.929 . S
C240 C236 1.383 . S
C240 C237 1.389 . S
C240 H250 0.931 1_554 S
C241 C238 1.380 . S
C241 C239 1.392 . S
C241 H251 0.929 . S
C242 O222 1.266 . S
C242 O223 1.248 . S
C243 Tb179 2.802 . S
C243 O218 1.264 . S
C243 O221 1.256 . S
C243 C236 1.496 . S
H244 C227 0.929 . S
H245 C228 0.929 . S
H246 C229 0.929 . S
H247 C230 0.931 1_554 S
H248 C238 0.929 . S
H249 C239 0.929 . S
H250 C240 0.931 1_556 S
H251 C241 0.929 . S
Tb252 N281 2.617 . S
Tb252 N287 2.572 . S
Tb252 O296 2.465 . S
Tb252 O297 2.387 . S
Tb252 O299 2.428 . S
Tb252 O300 2.308 . S
Tb252 O304 2.349 . S
Tb252 O307 2.393 . S
Tb252 C316 2.802 . S
C253 N254 1.379 . S
C253 C256 1.416 . S
C253 C260 1.424 . S
N254 C253 1.379 . S
N254 C257 1.334 . S
N254 Tb263 2.617 . S
C255 C257 1.390 . S
C255 C258 1.339 . S
C255 H275 0.930 . S
C256 C253 1.416 . S
C256 C258 1.416 . S
C256 C262 1.448 . S
C257 N254 1.334 . S
C257 C255 1.390 . S
C257 H268 0.930 . S
C258 C255 1.339 . S
C258 C256 1.416 . S
C258 H279 0.930 . S
C259 C260 1.413 . S
C259 C261 1.427 . S
C259 C265 1.416 . S
C260 C253 1.424 . S
C260 C259 1.413 . S
C260 N264 1.361 . S
C261 C259 1.427 . S
C261 C262 1.328 . S
C261 H276 0.929 . S
C262 C256 1.448 . S
C262 C261 1.328 . S
C262 H277 0.930 . S
Tb263 N254 2.617 . S
Tb263 N264 2.572 . S
Tb263 O298 2.349 . S
Tb263 O301 2.393 . S
Tb263 O302 2.465 . S
Tb263 O303 2.387 . S
Tb263 O305 2.428 . S
Tb263 O306 2.308 . S
Tb263 C327 2.802 . S
N264 C260 1.361 . S
N264 Tb263 2.572 . S
N264 C266 1.340 . S
C265 C259 1.416 . S
C265 C267 1.332 . S
C265 H273 0.931 . S
C266 N264 1.340 . S
C266 C267 1.407 . S
C266 H272 0.930 . S
C267 C265 1.332 . S
C267 C266 1.407 . S
C267 H269 0.929 . S
H268 C257 0.930 . S
H269 C267 0.929 . S
H270 C285 0.930 . S
H271 C292 0.929 . S
H272 C266 0.930 . S
H273 C265 0.931 . S
H274 C288 0.930 . S
H275 C255 0.930 . S
H276 C261 0.929 . S
H277 C262 0.930 . S
H278 C283 0.930 . S
H279 C258 0.930 . S
H280 C291 0.931 . S
N281 Tb252 2.617 . S
N281 C282 1.379 . S
N281 C285 1.334 . S
C282 N281 1.379 . S
C282 C284 1.416 . S
C282 C290 1.424 . S
C283 H278 0.930 . S
C283 C285 1.390 . S
C283 C286 1.339 . S
C284 C282 1.416 . S
C284 C286 1.416 . S
C284 C317 1.448 . S
C285 H270 0.930 . S
C285 N281 1.334 . S
C285 C283 1.390 . S
C286 C283 1.339 . S
C286 C284 1.416 . S
C286 H293 0.930 . S
N287 Tb252 2.572 . S
N287 C288 1.340 . S
N287 C290 1.361 . S
C288 H274 0.930 . S
C288 N287 1.340 . S
C288 C292 1.407 . S
C289 C290 1.413 . S
C289 C291 1.416 . S
C289 C318 1.427 . S
C290 C282 1.424 . S
C290 N287 1.361 . S
C290 C289 1.413 . S
C291 H280 0.931 . S
C291 C289 1.416 . S
C291 C292 1.332 . S
C292 H271 0.929 . S
C292 C288 1.407 . S
C292 C291 1.332 . S
H293 C286 0.930 . S
H294 C317 0.930 . S
H295 C318 0.929 . S
O296 Tb252 2.465 . S
O296 C316 1.264 . S
O297 Tb252 2.387 . S
O297 C308 1.264 . S
O298 Tb263 2.349 . S
O298 C308 1.243 . S
O299 Tb252 2.428 . S
O299 C316 1.256 . S
O300 Tb252 2.308 . S
O300 C315 1.266 . S
O301 Tb263 2.393 . S
O301 C315 1.248 . S
O302 Tb263 2.465 . S
O302 C327 1.264 . S
O303 Tb263 2.387 . S
O303 C319 1.264 . S
O304 Tb252 2.349 . S
O304 C319 1.243 . S
O305 Tb263 2.428 . S
O305 C327 1.256 . S
O306 Tb263 2.308 . S
O306 C326 1.266 . S
O307 Tb252 2.393 . S
O307 C326 1.248 . S
C308 O297 1.264 . S
C308 O298 1.243 . S
C309 C312 1.399 . S
C309 C314 1.383 . S
C309 C316 1.496 . S
C310 C311 1.399 . S
C310 C314 1.389 . S
C311 C310 1.399 . S
C311 C313 1.380 . S
C311 H328 0.929 . S
C312 C309 1.399 . S
C312 C313 1.392 . S
C312 H329 0.929 . S
C313 C311 1.380 . S
C313 C312 1.392 . S
C313 H330 0.929 . S
C314 C309 1.383 . S
C314 C310 1.389 . S
C314 H331 0.931 . S
C315 O300 1.266 . S
C315 O301 1.248 . S
C316 Tb252 2.802 . S
C316 O296 1.264 . S
C316 O299 1.256 . S
C316 C309 1.496 . S
C317 C284 1.448 . S
C317 H294 0.930 . S
C317 C318 1.328 . S
C318 C289 1.427 . S
C318 H295 0.929 . S
C318 C317 1.328 . S
C319 O303 1.264 . S
C319 O304 1.243 . S
C320 C323 1.399 . S
C320 C324 1.383 . S
C320 C327 1.496 . S
C321 C322 1.399 . S
C321 C324 1.389 . S
C322 C321 1.399 . S
C322 C325 1.380 . S
C322 H332 0.929 . S
C323 C320 1.399 . S
C323 C325 1.392 . S
C323 H333 0.929 . S
C324 C320 1.383 . S
C324 C321 1.389 . S
C324 H334 0.931 . S
C325 C322 1.380 . S
C325 C323 1.392 . S
C325 H335 0.929 . S
C326 O306 1.266 . S
C326 O307 1.248 . S
C327 Tb263 2.802 . S
C327 O302 1.264 . S
C327 O305 1.256 . S
C327 C320 1.496 . S
H328 C311 0.929 . S
H329 C312 0.929 . S
H330 C313 0.929 . S
H331 C314 0.931 . S
H332 C322 0.929 . S
H333 C323 0.929 . S
H334 C324 0.931 . S
H335 C325 0.929 . S
C336 C337 1.387 . S
C336 H340 0.950 . S
C336 C345 1.390 . S
C337 C336 1.387 . S
C337 C339 1.387 1_556 S
H338 C345 0.950 . S
C339 C337 1.387 1_554 S
C339 C341 1.390 . S
C339 H343 0.950 . S
H340 C336 0.950 . S
C341 C339 1.390 . S
C341 C342 1.387 . S
C341 H344 0.950 . S
C342 C341 1.387 . S
C342 C345 1.387 1_554 S
H343 C339 0.950 . S
H344 C341 0.950 . S
C345 C336 1.390 . S
C345 H338 0.950 . S
C345 C342 1.387 1_556 S
C346 C347 1.387 . S
C346 H350 0.950 . S
C346 C355 1.390 . S
C347 C346 1.387 . S
C347 C349 1.387 1_554 S
H348 C355 0.950 . S
C349 C347 1.387 1_556 S
C349 C351 1.390 . S
C349 H353 0.950 . S
H350 C346 0.950 . S
C351 C349 1.390 . S
C351 C352 1.387 . S
C351 H354 0.950 . S
C352 C351 1.387 . S
C352 C355 1.387 1_556 S
H353 C349 0.950 . S
H354 C351 0.950 . S
C355 C346 1.390 . S
C355 H348 0.950 . S
C355 C352 1.387 1_554 S
C356 C357 1.387 . S
C356 H360 0.950 . S
C356 C365 1.390 . S
C357 C356 1.387 . S
C357 C359 1.387 . S
H358 C365 0.950 . S
C359 C357 1.387 . S
C359 C361 1.390 . S
C359 H363 0.950 . S
H360 C356 0.950 . S
C361 C359 1.390 . S
C361 C362 1.387 . S
C361 H364 0.950 . S
C362 C361 1.387 . S
C362 C365 1.387 . S
H363 C359 0.950 . S
H364 C361 0.950 . S
C365 C356 1.390 . S
C365 H358 0.950 . S
C365 C362 1.387 . S
C366 C367 1.387 . S
C366 H370 0.950 . S
C366 C375 1.390 . S
C367 C366 1.387 . S
C367 C369 1.387 . S
H368 C375 0.950 . S
C369 C367 1.387 . S
C369 C371 1.390 . S
C369 H373 0.950 . S
H370 C366 0.950 . S
C371 C369 1.390 . S
C371 C372 1.387 . S
C371 H374 0.950 . S
C372 C371 1.387 . S
C372 C375 1.387 . S
H373 C369 0.950 . S
H374 C371 0.950 . S
C375 C366 1.390 . S
C375 H368 0.950 . S
C375 C372 1.387 . S
C376 C377 1.393 . S
C376 H380 0.950 . S
C376 C385 1.390 . S
C377 C376 1.393 . S
C377 C379 1.382 1_566 S
H378 C385 0.950 . S
C379 C377 1.382 1_544 S
C379 C381 1.390 . S
C379 H383 0.950 . S
H380 C376 0.950 . S
C381 C379 1.390 . S
C381 C382 1.387 . S
C381 H384 0.950 . S
C382 C381 1.387 . S
C382 C385 1.387 1_544 S
H383 C379 0.950 . S
H384 C381 0.950 . S
C385 C376 1.390 . S
C385 H378 0.950 . S
C385 C382 1.387 1_566 S
C386 C387 1.387 . S
C386 H390 0.950 . S
C386 C395 1.390 . S
C387 C386 1.387 . S
C387 C389 1.387 1_545 S
H388 C395 0.950 . S
C389 C387 1.387 1_565 S
C389 C391 1.390 . S
C389 H393 0.950 . S
H390 C386 0.950 . S
C391 C389 1.390 . S
C391 C392 1.387 . S
C391 H394 0.950 . S
C392 C391 1.387 . S
C392 C395 1.387 1_565 S
H393 C389 0.950 . S
H394 C391 0.950 . S
C395 C386 1.390 . S
C395 H388 0.950 . S
C395 C392 1.387 1_545 S
C396 C397 1.394 . S
C396 H400 0.950 . S
C396 C405 1.390 1_655 S
C397 C396 1.394 . S
C397 C399 1.382 1_556 S
H398 C405 0.950 . S
C399 C397 1.382 1_554 S
C399 C401 1.390 1_655 S
C399 H403 0.950 . S
H400 C396 0.950 . S
C401 C399 1.390 1_455 S
C401 C402 1.387 . S
C401 H404 0.950 . S
C402 C401 1.387 . S
C402 C405 1.387 1_554 S
H403 C399 0.950 . S
H404 C401 0.950 . S
C405 C396 1.390 1_455 S
C405 H398 0.950 . S
C405 C402 1.387 1_556 S
C406 C407 1.387 . S
C406 H410 0.950 . S
C406 C415 1.390 1_455 S
C407 C406 1.387 . S
C407 C409 1.387 . S
H408 C415 0.950 . S
C409 C407 1.387 . S
C409 C411 1.390 1_455 S
C409 H413 0.950 . S
H410 C406 0.950 . S
C411 C409 1.390 1_655 S
C411 C412 1.387 . S
C411 H414 0.950 . S
C412 C411 1.387 . S
C412 C415 1.387 . S
H413 C409 0.950 . S
H414 C411 0.950 . S
C415 C406 1.390 1_655 S
C415 H408 0.950 . S
C415 C412 1.387 . S
C416 C417 1.387 1_455 S
C416 H420 0.950 . S
C416 C425 1.390 . S
C417 C416 1.387 1_655 S
C417 C419 1.387 . S
H418 C425 0.950 . S
C419 C417 1.387 . S
C419 C421 1.390 . S
C419 H423 0.950 . S
H420 C416 0.950 . S
C421 C419 1.390 . S
C421 C422 1.387 . S
C421 H424 0.950 . S
C422 C421 1.387 . S
C422 C425 1.387 1_655 S
H423 C419 0.950 . S
H424 C421 0.950 . S
C425 C416 1.390 . S
C425 H418 0.950 . S
C425 C422 1.387 1_455 S
C426 C427 1.387 . S
C426 H430 0.950 . S
C426 C435 1.390 . S
C427 C426 1.387 . S
C427 C429 1.387 1_455 S
H428 C435 0.950 . S
C429 C427 1.387 1_655 S
C429 C431 1.390 . S
C429 H433 0.950 . S
H430 C426 0.950 . S
C431 C429 1.390 . S
C431 C432 1.387 1_655 S
C431 H434 0.950 . S
C432 C431 1.387 1_455 S
C432 C435 1.387 . S
H433 C429 0.950 . S
H434 C431 0.950 . S
C435 C426 1.390 . S
C435 H428 0.950 . S
C435 C432 1.387 . S
C436 C437 1.387 . S
C436 H440 0.950 . S
C436 C445 1.390 . S
C437 C436 1.387 . S
C437 C439 1.387 . S
H438 C445 0.950 . S
C439 C437 1.387 . S
C439 C441 1.390 . S
C439 H443 0.950 . S
H440 C436 0.950 . S
C441 C439 1.390 . S
C441 C442 1.387 . S
C441 H444 0.950 . S
C442 C441 1.387 . S
C442 C445 1.387 . S
H443 C439 0.950 . S
H444 C441 0.950 . S
C445 C436 1.390 . S
C445 H438 0.950 . S
C445 C442 1.387 . S
C446 C447 1.387 . S
C446 H450 0.950 . S
C446 C455 1.390 . S
C447 C446 1.387 . S
C447 C449 1.387 . S
H448 C455 0.950 . S
C449 C447 1.387 . S
C449 C451 1.390 . S
C449 H453 0.950 . S
H450 C446 0.950 . S
C451 C449 1.390 . S
C451 C452 1.387 . S
C451 H454 0.950 . S
C452 C451 1.387 . S
C452 C455 1.387 . S
H453 C449 0.950 . S
H454 C451 0.950 . S
C455 C446 1.390 . S
C455 H448 0.950 . S
C455 C452 1.387 . S
C337 C237 1.475 1_556 S
C342 C58 1.475 1_554 S
C347 C226 1.478 1_554 S
C352 C69 1.478 1_556 S
C357 C142 1.475 . S
C362 C321 1.475 . S
C367 C153 1.477 . S
C372 C310 1.477 . S
C377 C67 2.002 1_556 S
C382 C56 2.002 1_554 S
C387 C151 2.002 . S
C392 C140 2.002 . S
C397 C235 2.002 1_556 S
C402 C224 2.002 1_554 S
C407 C308 2.002 . S
C412 C319 2.002 . S
C417 C147 1.480 1_545 S
C422 C63 1.480 . S
C427 C74 1.479 1_545 S
C432 C158 1.479 . S
C437 C315 1.480 . S
C442 C231 1.480 . S
C447 C326 1.479 . S
C452 C242 1.479 . S
