# Generated by pormake.
# Topology uku, (4)-cn, num edge types: 1
# Building blocks:
#     Node 0, Type 0, BuildingBlock: ICAMEG_clean_sbu_1, # of connection points: 4
#     Node 1, Type 0, BuildingBlock: ICAMEG_clean_sbu_1, # of connection points: 4
#     Node 2, Type 0, BuildingBlock: ICAMEG_clean_sbu_1, # of connection points: 4
#     Node 3, Type 0, BuildingBlock: ICAMEG_clean_sbu_1, # of connection points: 4
#     Node 4, Type 0, BuildingBlock: ICAMEG_clean_sbu_1, # of connection points: 4
#     Node 5, Type 0, BuildingBlock: ICAMEG_clean_sbu_1, # of connection points: 4
#     Node 6, Type 0, BuildingBlock: ICAMEG_clean_sbu_1, # of connection points: 4
#     Node 7, Type 0, BuildingBlock: ICAMEG_clean_sbu_1, # of connection points: 4
#     Node 8, Type 0, BuildingBlock: ICAMEG_clean_sbu_1, # of connection points: 4
#     Node 9, Type 0, BuildingBlock: ICAMEG_clean_sbu_1, # of connection points: 4
#     Node 10, Type 0, BuildingBlock: ICAMEG_clean_sbu_1, # of connection points: 4
#     Node 11, Type 0, BuildingBlock: ICAMEG_clean_sbu_1, # of connection points: 4
#     Edge 12, Type (0, 0), BuildingBlock: AJUNOK_clean_linker_0, # of connection points: 2
#     Edge 13, Type (0, 0), BuildingBlock: AJUNOK_clean_linker_0, # of connection points: 2
#     Edge 14, Type (0, 0), BuildingBlock: AJUNOK_clean_linker_0, # of connection points: 2
#     Edge 15, Type (0, 0), BuildingBlock: AJUNOK_clean_linker_0, # of connection points: 2
#     Edge 16, Type (0, 0), BuildingBlock: AJUNOK_clean_linker_0, # of connection points: 2
#     Edge 17, Type (0, 0), BuildingBlock: AJUNOK_clean_linker_0, # of connection points: 2
#     Edge 18, Type (0, 0), BuildingBlock: AJUNOK_clean_linker_0, # of connection points: 2
#     Edge 19, Type (0, 0), BuildingBlock: AJUNOK_clean_linker_0, # of connection points: 2
#     Edge 20, Type (0, 0), BuildingBlock: AJUNOK_clean_linker_0, # of connection points: 2
#     Edge 21, Type (0, 0), BuildingBlock: AJUNOK_clean_linker_0, # of connection points: 2
#     Edge 22, Type (0, 0), BuildingBlock: AJUNOK_clean_linker_0, # of connection points: 2
#     Edge 23, Type (0, 0), BuildingBlock: AJUNOK_clean_linker_0, # of connection points: 2
#     Edge 24, Type (0, 0), BuildingBlock: AJUNOK_clean_linker_0, # of connection points: 2
#     Edge 25, Type (0, 0), BuildingBlock: AJUNOK_clean_linker_0, # of connection points: 2
#     Edge 26, Type (0, 0), BuildingBlock: AJUNOK_clean_linker_0, # of connection points: 2
#     Edge 27, Type (0, 0), BuildingBlock: AJUNOK_clean_linker_0, # of connection points: 2
#     Edge 28, Type (0, 0), BuildingBlock: AJUNOK_clean_linker_0, # of connection points: 2
#     Edge 29, Type (0, 0), BuildingBlock: AJUNOK_clean_linker_0, # of connection points: 2
#     Edge 30, Type (0, 0), BuildingBlock: AJUNOK_clean_linker_0, # of connection points: 2
#     Edge 31, Type (0, 0), BuildingBlock: AJUNOK_clean_linker_0, # of connection points: 2
#     Edge 32, Type (0, 0), BuildingBlock: AJUNOK_clean_linker_0, # of connection points: 2
#     Edge 33, Type (0, 0), BuildingBlock: AJUNOK_clean_linker_0, # of connection points: 2
#     Edge 34, Type (0, 0), BuildingBlock: AJUNOK_clean_linker_0, # of connection points: 2
#     Edge 35, Type (0, 0), BuildingBlock: AJUNOK_clean_linker_0, # of connection points: 2
# Relax obj value: 0.345
# Max RMSD: 0.222
# Mean RMSD: 0.222
data_MOF--net-uku--node1-ICAMEG_clean_sbu_1--edge1-AJUNOK_clean_linker_0
_symmetry_space_group_name_H-M    P1
_symmetry_Int_Tables_number       1
_symmetry_cell_setting            triclinic
loop_
_symmetry_equiv_pos_as_xyz
'x, y, z'
_cell_length_a     32.41544
_cell_length_b     32.354857
_cell_length_c     32.388013
_cell_angle_alpha  89.936633
_cell_angle_beta   89.95607
_cell_angle_gamma 89.988204
loop_
_atom_site_label
_atom_site_type_symbol
_atom_site_fract_x
_atom_site_fract_y
_atom_site_fract_z
_atom_type_partial_charge
Co0 Co 0.07805 0.14333 0.68323 0.0
Co1 Co 0.12552 0.21155 0.61779 0.0
O2 O 0.08276 0.17016 0.62941 0.0
C3 C 0.05055 0.07815 0.621 0.0
O4 O 0.05325 0.10328 0.58931 0.0
C5 C 0.04812 0.24715 0.58382 0.0
O6 O 0.03104 0.24088 0.62005 0.0
O7 O 0.10644 0.24576 0.66576 0.0
O8 O 0.09481 0.19538 0.71194 0.0
H9 H 0.2414 0.30867 0.65278 0.0
H10 H 0.00634 0.14966 0.62435 0.0
O11 O 0.06057 0.08973 0.65726 0.0
H12 H 0.95471 0.20283 0.7569 0.0
H13 H 0.01595 0.04729 0.78907 0.0
H14 H 0.12976 0.14379 0.7587 0.0
H15 H 0.02634 0.17859 0.75052 0.0
H16 H 0.01932 0.08339 0.72207 0.0
O17 O 0.0864 0.23997 0.57903 0.0
H18 H 0.18846 0.25603 0.66742 0.0
H19 H 0.15186 0.25623 0.54153 0.0
H20 H 0.12708 0.10892 0.8263 0.0
H21 H 0.93456 0.17262 0.62956 0.0
H22 H 0.07 0.06016 0.84186 0.0
H23 H 0.90806 0.19969 0.69619 0.0
O24 O 0.13691 0.12561 0.67941 0.0
H25 H 0.10761 0.12573 0.48966 0.0
H26 H 0.20787 0.18104 0.58984 0.0
H27 H 0.23235 0.13724 0.53261 0.0
H28 H 0.18209 0.10932 0.48196 0.0
H29 H 0.0844 0.16926 0.54756 0.0
H30 H 0.20415 0.30922 0.5256 0.0
H31 H 0.24947 0.33573 0.58142 0.0
O32 O 0.16612 0.18346 0.65515 0.0
C33 C 0.10065 0.23332 0.70289 0.0
C34 C 0.22188 0.29735 0.62816 0.0
C35 C 0.20088 0.29774 0.55683 0.0
N36 N 0.16697 0.25309 0.60544 0.0
C37 C 0.19187 0.26745 0.63626 0.0
C38 C 0.17118 0.26786 0.5661 0.0
C39 C 0.22634 0.31256 0.58814 0.0
C40 C 0.99522 0.16005 0.65378 0.0
N41 N 0.02069 0.1613 0.68738 0.0
C42 C 0.95439 0.17363 0.65641 0.0
C43 C 0.93959 0.18896 0.69373 0.0
C44 C 0.96574 0.19074 0.72777 0.0
C45 C 0.00639 0.17691 0.72394 0.0
C46 C 0.04097 0.06852 0.7827 0.0
C47 C 0.10456 0.12293 0.76532 0.0
C48 C 0.04314 0.08895 0.74474 0.0
N49 N 0.07457 0.11595 0.73654 0.0
C50 C 0.10332 0.10313 0.80362 0.0
C51 C 0.07129 0.07575 0.81231 0.0
C52 C 0.16847 0.1483 0.67282 0.0
C53 C 0.12983 0.1377 0.51153 0.0
C54 C 0.18573 0.16879 0.56812 0.0
C55 C 0.19982 0.14412 0.53567 0.0
C56 C 0.17161 0.12849 0.50724 0.0
N57 N 0.14469 0.17768 0.57216 0.0
C58 C 0.11687 0.16246 0.54437 0.0
Co59 Co 0.93172 0.85526 0.68372 0.0
Co60 Co 0.87915 0.80304 0.60753 0.0
O61 O 0.92566 0.83673 0.62676 0.0
C62 C 0.94896 0.93163 0.63313 0.0
O63 O 0.9178 0.92386 0.60848 0.0
C64 C 0.95423 0.76155 0.57505 0.0
O65 O 0.96932 0.76249 0.61263 0.0
O66 O 0.88926 0.76102 0.65204 0.0
O67 O 0.91034 0.80115 0.70483 0.0
H68 H 0.74967 0.71871 0.62199 0.0
H69 H 1.00154 0.85558 0.62454 0.0
O70 O 0.95554 0.90899 0.66456 0.0
H71 H 0.0524 0.77943 0.74619 0.0
H72 H 0.99973 0.92966 0.80252 0.0
H73 H 0.87846 0.84957 0.7576 0.0
H74 H 0.9818 0.80795 0.74508 0.0
H75 H 0.9953 0.90286 0.73148 0.0
O76 O 0.91752 0.77389 0.56861 0.0
H77 H 0.80739 0.76163 0.64667 0.0
H78 H 0.8538 0.77216 0.52457 0.0
H79 H 0.88132 0.87631 0.82864 0.0
H80 H 0.07249 0.82824 0.62452 0.0
H81 H 0.94245 0.9163 0.8518 0.0
H82 H 0.0983 0.78957 0.68555 0.0
O83 O 0.87465 0.87846 0.68267 0.0
H84 H 0.9199 0.89988 0.49297 0.0
H85 H 0.80435 0.84756 0.57716 0.0
H86 H 0.79116 0.90067 0.52417 0.0
H87 H 0.84918 0.9271 0.48152 0.0
H88 H 0.93182 0.84731 0.54676 0.0
H89 H 0.79673 0.72917 0.49847 0.0
H90 H 0.74405 0.70222 0.54731 0.0
O91 O 0.83947 0.83205 0.64533 0.0
C92 C 0.89825 0.76661 0.69013 0.0
C93 C 0.77247 0.73017 0.6004 0.0
C94 C 0.79888 0.73605 0.53109 0.0
N95 N 0.83403 0.76927 0.58723 0.0
C96 C 0.80527 0.75443 0.61426 0.0
C97 C 0.83124 0.76024 0.5461 0.0
C98 C 0.76932 0.72096 0.5585 0.0
C99 C 0.01248 0.83878 0.65123 0.0
N100 N 0.9873 0.83283 0.68459 0.0
C101 C 0.05273 0.82339 0.65104 0.0
C102 C 0.06719 0.80172 0.68529 0.0
C103 C 0.04144 0.79596 0.71928 0.0
C104 C 1.00139 0.81189 0.71838 0.0
C105 C 0.973 0.91209 0.79292 0.0
C106 C 0.90522 0.86691 0.76734 0.0
C107 C 0.97027 0.89694 0.75264 0.0
N108 N 0.93672 0.87452 0.74032 0.0
C109 C 0.90668 0.88194 0.8077 0.0
C110 C 0.9409 0.90455 0.82056 0.0
C111 C 0.84076 0.86246 0.67035 0.0
C112 C 0.89434 0.88854 0.51129 0.0
C113 C 0.8298 0.85911 0.559 0.0
C114 C 0.82212 0.88907 0.52889 0.0
C115 C 0.85467 0.90385 0.50493 0.0
N116 N 0.86879 0.84424 0.5651 0.0
C117 C 0.90086 0.85859 0.54169 0.0
Co118 Co 0.07393 0.85907 0.32572 0.0
Co119 Co 0.13161 0.80019 0.39271 0.0
O120 O 0.08476 0.83702 0.38081 0.0
C121 C 0.05066 0.9296 0.38392 0.0
O122 O 0.06681 0.91146 0.41633 0.0
C123 C 0.05829 0.75916 0.42885 0.0
O124 O 0.04079 0.76253 0.39246 0.0
O125 O 0.11558 0.76166 0.34677 0.0
O126 O 0.09292 0.80687 0.29962 0.0
H127 H 0.25637 0.71442 0.35851 0.0
H128 H 0.00837 0.85714 0.39008 0.0
O129 O 0.05324 0.91294 0.34836 0.0
H130 H 0.94998 0.78219 0.27142 0.0
H131 H 0.99464 0.93652 0.21618 0.0
H132 H 0.12168 0.85889 0.24771 0.0
H133 H 0.01976 0.81203 0.26762 0.0
H134 H 0.00553 0.90656 0.28538 0.0
O135 O 0.09592 0.76953 0.43316 0.0
H136 H 0.19813 0.76095 0.34328 0.0
H137 H 0.16387 0.76148 0.46984 0.0
H138 H 0.11195 0.88807 0.1781 0.0
H139 H 0.93826 0.82857 0.39499 0.0
H140 H 0.04805 0.92722 0.16192 0.0
H141 H 0.90856 0.79057 0.33542 0.0
O142 O 0.13117 0.88143 0.32358 0.0
H143 H 0.10777 0.88738 0.51903 0.0
H144 H 0.21076 0.84034 0.41726 0.0
H145 H 0.23189 0.88797 0.47268 0.0
H146 H 0.18026 0.91171 0.52418 0.0
H147 H 0.08779 0.84031 0.46278 0.0
H148 H 0.22148 0.71458 0.48642 0.0
H149 H 0.2683 0.69079 0.43053 0.0
O150 O 0.16831 0.83105 0.35335 0.0
C151 C 0.10487 0.77086 0.30988 0.0
C152 C 0.23616 0.72449 0.38314 0.0
C153 C 0.21651 0.7245 0.45489 0.0
N154 N 0.17733 0.76363 0.40556 0.0
C155 C 0.20311 0.75088 0.37471 0.0
C156 C 0.18375 0.75086 0.44528 0.0
C157 C 0.24281 0.71123 0.42353 0.0
C158 C 0.99561 0.84134 0.36373 0.0
N159 N 0.01824 0.83671 0.3284 0.0
C160 C 0.95588 0.82491 0.36682 0.0
C161 C 0.93929 0.8035 0.33345 0.0
C162 C 0.96254 0.79874 0.29757 0.0
C163 C 1.00218 0.81553 0.29565 0.0
C164 C 0.02263 0.91955 0.22286 0.0
C165 C 0.09372 0.87579 0.24095 0.0
C166 C 0.02906 0.90271 0.26207 0.0
N167 N 0.06429 0.88115 0.27072 0.0
C168 C 0.0884 0.89226 0.20144 0.0
C169 C 0.05258 0.91428 0.19241 0.0
C170 C 0.1656 0.86391 0.33164 0.0
C171 C 0.13057 0.87723 0.49681 0.0
C172 C 0.18798 0.85081 0.43928 0.0
C173 C 0.20019 0.87764 0.47073 0.0
C174 C 0.17123 0.89091 0.49965 0.0
N175 N 0.14803 0.83753 0.43666 0.0
C176 C 0.11948 0.85041 0.46494 0.0
Co177 Co 0.93334 0.15257 0.33011 0.0
Co178 Co 0.87532 0.21312 0.39645 0.0
O179 O 0.92105 0.17484 0.38488 0.0
C180 C 0.95162 0.08032 0.38861 0.0
O181 O 0.94122 0.10056 0.42211 0.0
C182 C 0.94978 0.25192 0.43349 0.0
O183 O 0.96872 0.24691 0.398 0.0
O184 O 0.89162 0.25053 0.34937 0.0
O185 O 0.92032 0.20683 0.30393 0.0
H186 H 0.75332 0.30176 0.36008 0.0
H187 H 0.99336 0.15362 0.40034 0.0
O188 O 0.94759 0.09678 0.35307 0.0
H189 H 0.06913 0.21267 0.2825 0.0
H190 H 0.01041 0.06671 0.22529 0.0
H191 H 0.89234 0.15992 0.2487 0.0
H192 H 0.99765 0.18889 0.27426 0.0
H193 H 0.99778 0.0965 0.29417 0.0
O194 O 0.91147 0.24388 0.43625 0.0
H195 H 0.81086 0.25403 0.34598 0.0
H196 H 0.84288 0.25307 0.47306 0.0
H197 H 0.90409 0.13106 0.17932 0.0
H198 H 0.06501 0.17587 0.40974 0.0
H199 H 0.96353 0.08418 0.16719 0.0
H200 H 0.10356 0.20599 0.35066 0.0
O201 O 0.87461 0.13488 0.3236 0.0
H202 H 0.90063 0.1263 0.52286 0.0
H203 H 0.79545 0.17706 0.42556 0.0
H204 H 0.7747 0.13059 0.48216 0.0
H205 H 0.82751 0.10499 0.5315 0.0
H206 H 0.92002 0.17207 0.46528 0.0
H207 H 0.78598 0.3012 0.48853 0.0
H208 H 0.74057 0.32573 0.43182 0.0
O209 O 0.83777 0.18225 0.35834 0.0
C210 C 0.90607 0.24225 0.31349 0.0
C211 C 0.77292 0.29137 0.38506 0.0
C212 C 0.7913 0.29109 0.45713 0.0
N213 N 0.83041 0.25092 0.40863 0.0
C214 C 0.80559 0.26433 0.37727 0.0
C215 C 0.82366 0.26404 0.44816 0.0
C216 C 0.7658 0.3048 0.42531 0.0
C217 C 0.00969 0.16598 0.37417 0.0
N218 N 0.99072 0.16988 0.33664 0.0
C219 C 0.05042 0.17886 0.37983 0.0
C220 C 0.07198 0.19587 0.34674 0.0
C221 C 0.05265 0.19971 0.30855 0.0
C222 C 0.01187 0.18655 0.30412 0.0
C223 C 0.98447 0.08722 0.23015 0.0
C224 C 0.91847 0.13978 0.24368 0.0
C225 C 0.97704 0.10405 0.26915 0.0
N226 N 0.94448 0.1302 0.2755 0.0
C227 C 0.9249 0.12346 0.2043 0.0
C228 C 0.95819 0.09706 0.19755 0.0
C229 C 0.84028 0.15154 0.33381 0.0
C230 C 0.87732 0.13714 0.50152 0.0
C231 C 0.81865 0.16548 0.44631 0.0
C232 C 0.8067 0.13945 0.4786 0.0
C233 C 0.83632 0.12517 0.50632 0.0
N234 N 0.85893 0.17697 0.44162 0.0
C235 C 0.88809 0.16319 0.46884 0.0
Co236 Co 0.68124 0.08062 0.1474 0.0
Co237 Co 0.61205 0.13231 0.20884 0.0
O238 O 0.62564 0.08789 0.16972 0.0
C239 C 0.62412 0.05799 0.07601 0.0
O240 O 0.59123 0.07245 0.09465 0.0
C241 C 0.57641 0.0566 0.24642 0.0
O242 O 0.61269 0.03914 0.24185 0.0
O243 O 0.65772 0.11496 0.24705 0.0
O244 O 0.70613 0.09877 0.20046 0.0
H245 H 0.64183 0.25317 0.30173 0.0
H246 H 0.62026 0.01179 0.14601 0.0
O247 O 0.65957 0.06113 0.09276 0.0
H248 H 0.74073 0.95651 0.2205 0.0
H249 H 0.79445 0.00854 0.06837 0.0
H250 H 0.75747 0.13115 0.15072 0.0
H251 H 0.74127 0.02764 0.19337 0.0
H252 H 0.72438 0.01611 0.0971 0.0
O253 O 0.57175 0.0945 0.23696 0.0
H254 H 0.65922 0.1977 0.25271 0.0
H255 H 0.53354 0.16147 0.247 0.0
H256 H 0.82801 0.12452 0.12316 0.0
H257 H 0.61862 0.94035 0.17195 0.0
H258 H 0.84691 0.06292 0.08154 0.0
H259 H 0.67913 0.91219 0.20966 0.0
O260 O 0.68119 0.13908 0.1273 0.0
H261 H 0.48769 0.11124 0.11848 0.0
H262 H 0.58738 0.21313 0.17184 0.0
H263 H 0.53265 0.23591 0.12414 0.0
H264 H 0.48221 0.18483 0.09724 0.0
H265 H 0.54326 0.08965 0.16564 0.0
H266 H 0.51475 0.21621 0.29642 0.0
H267 H 0.56911 0.26264 0.32409 0.0
O268 O 0.65153 0.17096 0.18131 0.0
C269 C 0.69526 0.10759 0.23717 0.0
C270 C 0.61786 0.23307 0.29002 0.0
C271 C 0.54659 0.21225 0.28713 0.0
N272 N 0.59757 0.17588 0.24743 0.0
C273 C 0.62755 0.20156 0.26222 0.0
C274 C 0.55746 0.18106 0.25939 0.0
C275 C 0.57708 0.23834 0.30257 0.0
C276 C 0.64702 0.99973 0.16169 0.0
N277 N 0.68105 0.02394 0.16762 0.0
C278 C 0.64578 0.95924 0.17663 0.0
C279 C 0.67967 0.94351 0.19788 0.0
C280 C 0.7142 0.96837 0.20401 0.0
C281 C 0.71429 0.00874 0.1887 0.0
C282 C 0.78656 0.03559 0.08635 0.0
C283 C 0.76538 0.10421 0.1327 0.0
C284 C 0.74684 0.04017 0.10247 0.0
N285 N 0.73667 0.07415 0.12537 0.0
C286 C 0.80542 0.10065 0.11714 0.0
C287 C 0.81599 0.06609 0.09379 0.0
C288 C 0.6731 0.17141 0.14841 0.0
C289 C 0.50945 0.13382 0.13002 0.0
C290 C 0.56581 0.19062 0.15998 0.0
C291 C 0.53475 0.20375 0.13312 0.0
C292 C 0.50643 0.17509 0.11808 0.0
N293 N 0.56861 0.15006 0.17154 0.0
C294 C 0.54092 0.12181 0.15691 0.0
Co295 Co 0.32786 0.94287 0.14846 0.0
Co296 Co 0.39429 0.88253 0.20572 0.0
O297 O 0.38214 0.9298 0.17022 0.0
C298 C 0.37611 0.94702 0.06854 0.0
O299 O 0.38696 0.90797 0.07071 0.0
C300 C 0.4286 0.95535 0.249 0.0
O301 O 0.39201 0.97248 0.24596 0.0
O302 O 0.34703 0.89618 0.24383 0.0
O303 O 0.30097 0.92538 0.201 0.0
H304 H 0.36108 0.75473 0.28757 0.0
H305 H 0.39672 1.00297 0.14998 0.0
O306 O 0.3533 0.96301 0.09606 0.0
H307 H 0.28135 0.07424 0.21891 0.0
H308 H 0.22461 0.02644 0.067 0.0
H309 H 0.24619 0.90191 0.15217 0.0
H310 H 0.27226 1.00446 0.19014 0.0
H311 H 0.29323 0.01083 0.09579 0.0
O312 O 0.43343 0.91795 0.23791 0.0
H313 H 0.34545 0.81451 0.243 0.0
H314 H 0.47141 0.8506 0.24474 0.0
H315 H 0.17694 0.91679 0.12459 0.0
H316 H 0.40703 0.07323 0.17712 0.0
H317 H 0.16579 0.97944 0.08163 0.0
H318 H 0.34926 0.10924 0.21239 0.0
O319 O 0.32184 0.88484 0.12688 0.0
H320 H 0.51662 0.91536 0.1159 0.0
H321 H 0.42565 0.80466 0.16714 0.0
H322 H 0.48127 0.78752 0.11819 0.0
H323 H 0.52735 0.84315 0.09227 0.0
H324 H 0.46024 0.9311 0.16441 0.0
H325 H 0.48835 0.79142 0.2897 0.0
H326 H 0.433 0.74286 0.31122 0.0
O327 O 0.3565 0.84623 0.17315 0.0
C328 C 0.31077 0.90984 0.23582 0.0
C329 C 0.38548 0.77566 0.27839 0.0
C330 C 0.45689 0.79628 0.27962 0.0
N331 N 0.40747 0.83599 0.24119 0.0
C332 C 0.37682 0.80955 0.25311 0.0
C333 C 0.44708 0.82985 0.2543 0.0
C334 C 0.42583 0.76902 0.29166 0.0
C335 C 0.37134 0.01829 0.1653 0.0
N336 N 0.33413 0.9988 0.16975 0.0
C337 C 0.3774 0.05818 0.18055 0.0
C338 C 0.345 0.07835 0.20034 0.0
C339 C 0.30697 0.05865 0.20417 0.0
C340 C 0.30208 0.01877 0.18844 0.0
C341 C 0.22908 0.99908 0.08574 0.0
C342 C 0.24159 0.92942 0.13378 0.0
C343 C 0.26794 0.98995 0.10198 0.0
N344 N 0.27375 0.95562 0.12596 0.0
C345 C 0.2023 0.9376 0.11811 0.0
C346 C 0.19607 0.97272 0.09397 0.0
C347 C 0.33198 0.84978 0.14253 0.0
C348 C 0.49672 0.89085 0.12691 0.0
C349 C 0.44515 0.82902 0.15567 0.0
C350 C 0.47683 0.81914 0.12813 0.0
C351 C 0.5027 0.85034 0.11365 0.0
N352 N 0.43935 0.8688 0.16849 0.0
C353 C 0.46473 0.89954 0.15448 0.0
Co354 Co 0.67959 0.932 0.85635 0.0
Co355 Co 0.61046 0.87635 0.79757 0.0
O356 O 0.62429 0.92261 0.83436 0.0
C357 C 0.62184 0.95637 0.927 0.0
O358 O 0.58847 0.94424 0.90764 0.0
C359 C 0.57884 0.95119 0.7554 0.0
O360 O 0.6158 0.96719 0.75966 0.0
O361 O 0.6578 0.88956 0.7595 0.0
O362 O 0.705 0.91366 0.80371 0.0
H363 H 0.63988 0.74983 0.71266 0.0
H364 H 0.61629 0.99913 0.85559 0.0
O365 O 0.65735 0.95155 0.91074 0.0
H366 H 0.73595 0.05633 0.78124 0.0
H367 H 0.78932 0.00826 0.93605 0.0
H368 H 0.75772 0.8844 0.85336 0.0
H369 H 0.73826 0.98578 0.80973 0.0
H370 H 0.71989 0.99818 0.90668 0.0
O371 O 0.57262 0.9138 0.7659 0.0
H372 H 0.65721 0.80773 0.75887 0.0
H373 H 0.53242 0.84782 0.75783 0.0
H374 H 0.82752 0.89329 0.88212 0.0
H375 H 0.61301 0.07001 0.82858 0.0
H376 H 0.84376 0.95564 0.9237 0.0
H377 H 0.67304 0.09913 0.79079 0.0
O378 O 0.68151 0.87407 0.87759 0.0
H379 H 0.48519 0.9095 0.88317 0.0
H380 H 0.5786 0.79886 0.8365 0.0
H381 H 0.52127 0.78183 0.88352 0.0
H382 H 0.47391 0.83742 0.90708 0.0
H383 H 0.54341 0.92516 0.83683 0.0
H384 H 0.51381 0.79052 0.71128 0.0
H385 H 0.56771 0.74093 0.68851 0.0
O386 O 0.64726 0.83784 0.82939 0.0
C387 C 0.69468 0.90056 0.7682 0.0
C388 C 0.61609 0.77118 0.7224 0.0
C389 C 0.54536 0.79408 0.72158 0.0
N390 N 0.59587 0.8311 0.76112 0.0
C391 C 0.6257 0.80401 0.74864 0.0
C392 C 0.55612 0.82656 0.74782 0.0
C393 C 0.57561 0.76624 0.70884 0.0
C394 C 0.64294 0.01163 0.84013 0.0
N395 N 0.67773 0.98829 0.83504 0.0
C396 C 0.64074 0.05181 0.8245 0.0
C397 C 0.67437 0.06808 0.8032 0.0
C398 C 0.70964 0.04407 0.79779 0.0
C399 C 0.71072 1.00402 0.81391 0.0
C400 C 0.78265 0.98099 0.91793 0.0
C401 C 0.76452 0.91168 0.87135 0.0
C402 C 0.74333 0.97503 0.90134 0.0
N403 N 0.73468 0.94071 0.87832 0.0
C404 C 0.80413 0.91653 0.88755 0.0
C405 C 0.81319 0.95147 0.91096 0.0
C406 C 0.67092 0.83985 0.86087 0.0
C407 C 0.50566 0.88501 0.87322 0.0
C408 C 0.55867 0.82325 0.84715 0.0
C409 C 0.52599 0.81341 0.87352 0.0
C410 C 0.49938 0.84458 0.88666 0.0
N411 N 0.56482 0.86298 0.83425 0.0
C412 C 0.53868 0.89365 0.84685 0.0
Co413 Co 0.32658 0.07049 0.85077 0.0
Co414 Co 0.39893 0.12777 0.79832 0.0
O415 O 0.38232 0.07935 0.83044 0.0
C416 C 0.37662 0.05584 0.92777 0.0
O417 O 0.39303 0.09287 0.92546 0.0
C418 C 0.43332 0.05551 0.75331 0.0
O419 O 0.39634 0.03896 0.75411 0.0
O420 O 0.35354 0.11748 0.75734 0.0
O421 O 0.30266 0.09369 0.79868 0.0
H422 H 0.37758 0.25963 0.71883 0.0
H423 H 0.38857 1.00342 0.84305 0.0
O424 O 0.34942 0.04443 0.90197 0.0
H425 H 0.26414 0.95083 0.7733 0.0
H426 H 0.2147 0.99492 0.92862 0.0
H427 H 0.25014 0.12045 0.84978 0.0
H428 H 0.2644 0.02007 0.80506 0.0
H429 H 0.28426 1.00356 0.899 0.0
O430 O 0.43859 0.092 0.76694 0.0
H431 H 0.35617 0.19939 0.76028 0.0
H432 H 0.48016 0.1582 0.76744 0.0
H433 H 0.18048 0.11328 0.87937 0.0
H434 H 0.38962 0.93389 0.81212 0.0
H435 H 0.16217 0.04997 0.91875 0.0
H436 H 0.32709 0.90717 0.77677 0.0
O437 O 0.32637 0.12694 0.87637 0.0
H438 H 0.51475 0.08635 0.89291 0.0
H439 H 0.42875 0.20216 0.84412 0.0
H440 H 0.48171 0.21478 0.89719 0.0
H441 H 0.52525 0.1566 0.92189 0.0
H442 H 0.46114 0.07506 0.84024 0.0
H443 H 0.50308 0.21776 0.72584 0.0
H444 H 0.45162 0.26912 0.70133 0.0
O445 O 0.3606 0.16491 0.82966 0.0
C446 C 0.31589 0.10726 0.76403 0.0
C447 C 0.4003 0.23738 0.72914 0.0
C448 C 0.47071 0.21388 0.73307 0.0
N449 N 0.41672 0.17503 0.76587 0.0
C450 C 0.38828 0.20312 0.7525 0.0
C451 C 0.45751 0.18004 0.7564 0.0
C452 C 0.44183 0.2427 0.71936 0.0
C453 C 0.3612 0.99204 0.82782 0.0
N454 N 0.32651 0.01597 0.82566 0.0
C455 C 0.362 0.95262 0.81031 0.0
C456 C 0.32693 0.93766 0.79048 0.0
C457 C 0.29163 0.96215 0.78849 0.0
C458 C 0.29201 1.00143 0.80635 0.0
C459 C 0.22221 0.02254 0.9113 0.0
C460 C 0.24244 0.09273 0.86676 0.0
C461 C 0.2616 0.02766 0.89451 0.0
N462 N 0.27122 0.06236 0.87236 0.0
C463 C 0.2029 0.08884 0.88344 0.0
C464 C 0.19273 0.05341 0.90572 0.0
C465 C 0.33678 0.16186 0.86086 0.0
C466 C 0.49605 0.11198 0.88233 0.0
C467 C 0.44737 0.17669 0.85482 0.0
C468 C 0.47744 0.18402 0.8848 0.0
C469 C 0.50188 0.15138 0.89862 0.0
N470 N 0.44183 0.13798 0.83893 0.0
C471 C 0.4657 0.10582 0.85238 0.0
Co472 Co 0.14543 0.68802 0.07138 0.0
Co473 Co 0.20713 0.61886 0.12276 0.0
O474 O 0.16921 0.63277 0.07751 0.0
C475 C 0.07431 0.63029 0.05182 0.0
O476 O 0.0873 0.60224 0.07803 0.0
C477 C 0.24573 0.58376 0.04682 0.0
O478 O 0.23961 0.61935 0.02834 0.0
O479 O 0.24418 0.66662 0.10783 0.0
O480 O 0.19665 0.71438 0.0925 0.0
H481 H 0.29628 0.64963 0.2458 0.0
H482 H 0.14636 0.63023 1.00043 0.0
O483 O 0.09312 0.66465 0.04836 0.0
H484 H 0.22159 0.75359 0.95226 0.0
H485 H 0.0642 0.80058 1.00048 0.0
H486 H 0.14429 0.76278 0.12422 0.0
H487 H 0.19219 0.75109 0.02238 0.0
H488 H 0.09569 0.7315 0.00663 0.0
O489 O 0.23781 0.58025 0.08513 0.0
H490 H 0.24809 0.66634 0.1894 0.0
H491 H 0.2476 0.5408 0.15114 0.0
H492 H 0.11385 0.83237 0.11911 0.0
H493 H 0.17462 0.63162 0.92982 0.0
H494 H 0.07333 0.85166 0.05695 0.0
H495 H 0.21277 0.69356 0.90534 0.0
O496 O 0.12329 0.68498 0.12891 0.0
H497 H 0.11949 0.49425 0.09264 0.0
H498 H 0.17141 0.58661 0.20165 0.0
H499 H 0.12484 0.5294 0.22028 0.0
H500 H 0.09863 0.48257 0.16553 0.0
H501 H 0.16542 0.55239 0.07537 0.0
H502 H 0.29607 0.52279 0.20696 0.0
H503 H 0.32064 0.57738 0.25487 0.0
O504 O 0.17643 0.65562 0.1622 0.0
C505 C 0.23348 0.70422 0.10142 0.0
C506 C 0.28579 0.62554 0.22515 0.0
C507 C 0.28571 0.55439 0.2033 0.0
N508 N 0.24499 0.60462 0.16696 0.0
C509 C 0.25845 0.63481 0.19316 0.0
C510 C 0.25838 0.56482 0.17163 0.0
C511 C 0.29946 0.58502 0.2302 0.0
C512 C 0.16248 0.6575 0.98992 0.0
N513 N 0.1676 0.69057 0.01565 0.0
C514 C 0.1786 0.65802 0.94992 0.0
C515 C 0.20007 0.69273 0.93624 0.0
C516 C 0.20509 0.72639 0.96258 0.0
C517 C 0.18859 0.72472 1.00239 0.0
C518 C 0.08166 0.7925 0.02779 0.0
C519 C 0.12676 0.77088 0.09703 0.0
C520 C 0.09933 0.75329 0.03156 0.0
N521 N 0.12154 0.74287 0.06589 0.0
C522 C 0.10957 0.81037 0.09433 0.0
C523 C 0.08684 0.82117 0.05946 0.0
C524 C 0.14268 0.67599 0.16215 0.0
C525 C 0.13068 0.51443 0.11679 0.0
C526 C 0.15971 0.56685 0.17764 0.0
C527 C 0.13356 0.53425 0.18838 0.0
C528 C 0.11894 0.50794 0.15767 0.0
N529 N 0.171 0.57318 0.13749 0.0
C530 C 0.15688 0.54736 0.10724 0.0
Co531 Co 0.15166 0.32089 0.94098 0.0
Co532 Co 0.20664 0.39011 0.88225 0.0
O533 O 0.17289 0.3763 0.93046 0.0
C534 C 0.0742 0.37063 0.95186 0.0
O535 O 0.07729 0.38527 0.91416 0.0
C536 C 0.24862 0.4294 0.95437 0.0
O537 O 0.2448 0.39446 0.97466 0.0
O538 O 0.24628 0.34375 0.8953 0.0
O539 O 0.20256 0.29519 0.9183 0.0
H540 H 0.28717 0.35786 0.75365 0.0
H541 H 0.15382 0.38272 0.00847 0.0
O542 O 0.10056 0.34505 0.96562 0.0
H543 H 0.23679 0.26533 0.05883 0.0
H544 H 0.07634 0.21219 0.02329 0.0
H545 H 0.15176 0.24199 0.8944 0.0
H546 H 0.20381 0.2628 0.99034 0.0
H547 H 0.10455 0.28175 0.01015 0.0
O548 O 0.23872 0.43088 0.91638 0.0
H549 H 0.24404 0.34172 0.81423 0.0
H550 H 0.2415 0.46851 0.84765 0.0
H551 H 0.12441 0.17195 0.90649 0.0
H552 H 0.18575 0.38636 0.07741 0.0
H553 H 0.08636 0.15666 0.97133 0.0
H554 H 0.22774 0.32742 0.10297 0.0
O555 O 0.12631 0.31896 0.88456 0.0
H556 H 0.11364 0.50909 0.9185 0.0
H557 H 0.16674 0.4227 0.8053 0.0
H558 H 0.11607 0.47725 0.78991 0.0
H559 H 0.08922 0.5211 0.84682 0.0
H560 H 0.16372 0.45363 0.93246 0.0
H561 H 0.28513 0.48604 0.78779 0.0
H562 H 0.30811 0.43049 0.74013 0.0
O563 O 0.17413 0.35156 0.84634 0.0
C564 C 0.23786 0.30622 0.90502 0.0
C565 C 0.27743 0.38235 0.77421 0.0
C566 C 0.27637 0.45425 0.79344 0.0
N567 N 0.24049 0.40411 0.83472 0.0
C568 C 0.25296 0.37341 0.80858 0.0
C569 C 0.25193 0.44412 0.82751 0.0
C570 C 0.28919 0.42309 0.76667 0.0
C571 C 0.1717 0.35676 0.0195 0.0
N572 N 0.17695 0.32256 0.99531 0.0
C573 C 0.18985 0.35908 0.05852 0.0
C574 C 0.21347 0.32605 0.0728 0.0
C575 C 0.21862 0.29123 0.04802 0.0
C576 C 0.20004 0.29004 0.00914 0.0
C577 C 0.09287 0.21848 0.99492 0.0
C578 C 0.13538 0.2356 0.92277 0.0
C579 C 0.1088 0.25786 0.98724 0.0
N580 N 0.12988 0.26597 0.95156 0.0
C581 C 0.1199 0.19586 0.92941 0.0
C582 C 0.09853 0.18732 0.96577 0.0
C583 C 0.14224 0.32863 0.84964 0.0
C584 C 0.12496 0.49009 0.89345 0.0
C585 C 0.15465 0.44094 0.83023 0.0
C586 C 0.12623 0.47215 0.82133 0.0
C587 C 0.11125 0.4968 0.85324 0.0
N588 N 0.16783 0.43431 0.86972 0.0
C589 C 0.1534 0.45858 0.90113 0.0
Co590 Co 0.85891 0.67742 0.92443 0.0
Co591 Co 0.79485 0.60997 0.87384 0.0
O592 O 0.83482 0.62264 0.91755 0.0
C593 C 0.92758 0.61755 0.94948 0.0
O594 O 0.90527 0.58438 0.94291 0.0
C595 C 0.75797 0.57678 0.95072 0.0
O596 O 0.76292 0.61368 0.9668 0.0
O597 O 0.7584 0.65683 0.89146 0.0
O598 O 0.80598 0.70427 0.90787 0.0
H599 H 0.69989 0.64194 0.75536 0.0
H600 H 0.85667 0.61566 0.99362 0.0
O601 O 0.91336 0.65351 0.94183 0.0
H602 H 0.79365 0.74199 0.05001 0.0
H603 H 0.94745 0.78574 0.99262 0.0
H604 H 0.85558 0.75477 0.87537 0.0
H605 H 0.81871 0.74028 0.97829 0.0
H606 H 0.91542 0.71697 0.98583 0.0
O607 O 0.76645 0.57091 0.91279 0.0
H608 H 0.75057 0.65823 0.80963 0.0
H609 H 0.7539 0.53225 0.84623 0.0
H610 H 0.88627 0.82413 0.88155 0.0
H611 H 0.8329 0.61626 0.06551 0.0
H612 H 0.93271 0.84001 0.94034 0.0
H613 H 0.80092 0.67974 0.09434 0.0
O614 O 0.8775 0.67677 0.8657 0.0
H615 H 0.88256 0.4834 0.8949 0.0
H616 H 0.82916 0.58297 0.79266 0.0
H617 H 0.87498 0.52664 0.76977 0.0
H618 H 0.90192 0.47628 0.82104 0.0
H619 H 0.83714 0.54046 0.91656 0.0
H620 H 0.70288 0.5146 0.79266 0.0
H621 H 0.67559 0.56966 0.74666 0.0
O622 O 0.82306 0.64816 0.83391 0.0
C623 C 0.76895 0.69408 0.89943 0.0
C624 C 0.71152 0.61766 0.7752 0.0
C625 C 0.71312 0.54623 0.79622 0.0
N626 N 0.75501 0.5963 0.83128 0.0
C627 C 0.7403 0.6267 0.80596 0.0
C628 C 0.74183 0.55645 0.82668 0.0
C629 C 0.69787 0.57712 0.77038 0.0
C630 C 0.84387 0.64375 0.00584 0.0
N631 N 0.84019 0.67821 0.98165 0.0
C632 C 0.82996 0.64376 0.04667 0.0
C633 C 0.81189 0.67931 0.06278 0.0
C634 C 0.80779 0.71422 0.03792 0.0
C635 C 0.82202 0.71303 0.99722 0.0
C636 C 0.92722 0.77923 0.96686 0.0
C637 C 0.87544 0.76149 0.9013 0.0
C638 C 0.90912 0.74029 0.96274 0.0
N639 N 0.88339 0.73189 0.93036 0.0
C640 C 0.89288 0.8008 0.90452 0.0
C641 C 0.91895 0.80967 0.93753 0.0
C642 C 0.85668 0.66868 0.83321 0.0
C643 C 0.87101 0.50514 0.87226 0.0
C644 C 0.84102 0.56142 0.81525 0.0
C645 C 0.86682 0.52946 0.80206 0.0
C646 C 0.88189 0.50118 0.83082 0.0
N647 N 0.8305 0.56513 0.85596 0.0
C648 C 0.84516 0.53749 0.88432 0.0
Co649 Co 0.8563 0.32738 0.07741 0.0
Co650 Co 0.80229 0.39964 0.13162 0.0
O651 O 0.83577 0.38334 0.08424 0.0
C652 C 0.93382 0.37533 0.06095 0.0
O653 O 0.9331 0.39025 0.09863 0.0
C654 C 0.759 0.43304 0.05837 0.0
O655 O 0.7592 0.39534 0.04345 0.0
O656 O 0.7618 0.35445 0.11951 0.0
O657 O 0.80625 0.30346 0.10389 0.0
H658 H 0.71787 0.37675 0.25987 0.0
H659 H 0.84979 0.38373 0.00549 0.0
O660 O 0.90644 0.34989 0.04902 0.0
H661 H 0.76744 0.26124 0.96836 0.0
H662 H 0.92989 0.21254 1.00244 0.0
H663 H 0.85868 0.25287 0.1308 0.0
H664 H 0.80286 0.26495 0.03561 0.0
H665 H 0.9012 0.28272 0.01028 0.0
O666 O 0.77218 0.43942 0.09483 0.0
H667 H 0.76131 0.35588 0.20098 0.0
H668 H 0.76967 0.48058 0.16105 0.0
H669 H 0.88659 0.18241 0.1241 0.0
H670 H 0.81589 0.38085 0.93744 0.0
H671 H 0.92251 0.16176 0.05958 0.0
H672 H 0.77405 0.31938 0.91861 0.0
O673 O 0.88301 0.33047 0.13287 0.0
H674 H 0.8969 0.51734 0.09546 0.0
H675 H 0.84589 0.42777 0.20772 0.0
H676 H 0.89797 0.48115 0.22303 0.0
H677 H 0.92375 0.52647 0.16667 0.0
H678 H 0.84547 0.46312 0.08135 0.0
H679 H 0.72601 0.50288 0.21932 0.0
H680 H 0.69993 0.45079 0.26934 0.0
O681 O 0.83274 0.36087 0.16952 0.0
C682 C 0.77046 0.31635 0.11365 0.0
C683 C 0.72911 0.39976 0.23835 0.0
C684 C 0.73364 0.47053 0.21555 0.0
N685 N 0.7682 0.41693 0.17774 0.0
C686 C 0.75379 0.38809 0.20498 0.0
C687 C 0.75825 0.4577 0.18255 0.0
C688 C 0.71903 0.4413 0.24362 0.0
C689 C 0.83241 0.35652 0.99716 0.0
N690 N 0.82898 0.32426 0.02419 0.0
C691 C 0.81296 0.35521 0.95873 0.0
C692 C 0.78944 0.32075 0.94822 0.0
C693 C 0.78571 0.28813 0.97613 0.0
C694 C 0.80577 0.29044 0.0142 0.0
C695 C 0.91425 0.22114 0.03069 0.0
C696 C 0.87405 0.24414 0.1025 0.0
C697 C 0.89804 0.26088 0.03536 0.0
N698 N 0.87809 0.27187 0.07089 0.0
C699 C 0.8899 0.20418 0.09895 0.0
C700 C 0.91009 0.19265 0.06275 0.0
C701 C 0.86572 0.33929 0.16732 0.0
C702 C 0.88592 0.4978 0.12028 0.0
C703 C 0.85708 0.44724 0.183 0.0
C704 C 0.88651 0.47748 0.19187 0.0
C705 C 0.90096 0.5029 0.16024 0.0
N706 N 0.84239 0.4425 0.14373 0.0
C707 C 0.8566 0.46717 0.11253 0.0
C708 C 0.01744 0.25793 0.47082 0.0
C709 C 0.97404 0.25834 0.47217 0.0
C710 C 0.04106 0.2566 0.50713 0.0
C711 C 0.02241 0.25552 0.54652 0.0
H712 H 0.03346 0.25678 0.44149 0.0
H713 H 0.07428 0.25464 0.50405 0.0
S714 S 0.9099 0.26084 0.56748 0.0
N715 N 0.91347 0.26147 0.51667 0.0
N716 N 0.95779 0.25858 0.58456 0.0
C717 C 0.97914 0.25837 0.54841 0.0
C718 C 0.95503 0.25988 0.51141 0.0
C719 C 0.98926 0.75283 0.46331 0.0
C720 C 0.03255 0.75182 0.46635 0.0
C721 C 0.96422 0.75359 0.49865 0.0
C722 C 0.98128 0.75322 0.53871 0.0
H723 H 0.97445 0.75508 0.43343 0.0
H724 H 0.93119 0.75622 0.49435 0.0
S725 S 0.09276 0.74503 0.5638 0.0
N726 N 0.09127 0.74621 0.51288 0.0
N727 N 0.04426 0.74758 0.57912 0.0
C728 C 0.0244 0.74937 0.54222 0.0
C729 C 0.04997 0.74871 0.50616 0.0
C730 C 0.50555 0.9633 0.25177 0.0
C731 C 0.46604 0.98102 0.25654 0.0
C732 C 0.54132 0.9877 0.25104 0.0
C733 C 0.53922 0.03093 0.25504 0.0
H734 H 0.50893 0.93041 0.24653 0.0
H735 H 0.57057 0.9726 0.24518 0.0
S736 S 0.44421 0.09215 0.2749 0.0
N737 N 0.42767 0.04414 0.27026 0.0
N738 N 0.49473 0.08993 0.26892 0.0
C739 C 0.50026 0.04877 0.26279 0.0
C740 C 0.46378 0.02387 0.26358 0.0
C741 C 0.50239 0.96093 0.74774 0.0
C742 C 0.54245 0.97798 0.74649 0.0
C743 C 0.46711 0.98607 0.74704 0.0
C744 C 0.47029 0.02939 0.74519 0.0
H745 H 0.49807 0.92792 0.75128 0.0
H746 H 0.43724 0.97141 0.75028 0.0
S747 S 0.56752 0.08936 0.73467 0.0
N748 N 0.58283 0.04083 0.73828 0.0
N749 N 0.51668 0.08796 0.73698 0.0
C750 C 0.51 0.04668 0.74084 0.0
C751 C 0.54598 0.02105 0.74146 0.0
C752 C 0.25552 0.46938 0.02055 0.0
C753 C 0.25585 0.46898 0.97709 0.0
C754 C 0.2547 0.50665 0.04274 0.0
C755 C 0.2541 0.54537 0.02257 0.0
H756 H 0.25389 0.44068 0.03773 0.0
H757 H 0.25266 0.50487 0.07608 0.0
S758 S 0.26004 0.56179 0.90925 0.0
N759 N 0.25988 0.51109 0.91482 0.0
N760 N 0.25788 0.5808 0.95645 0.0
C761 C 0.25706 0.5455 0.97922 0.0
C762 C 0.25804 0.50749 0.95657 0.0
C763 C 0.75469 0.54442 0.02102 0.0
C764 C 0.75048 0.54041 0.97797 0.0
C765 C 0.75503 0.50965 0.04695 0.0
C766 C 0.75103 0.46928 0.03104 0.0
H767 H 0.75982 0.57447 0.0348 0.0
H768 H 0.76027 0.51453 0.07962 0.0
S769 S 0.73326 0.44222 0.92105 0.0
N770 N 0.73781 0.49302 0.92105 0.0
N771 N 0.73833 0.42786 0.96969 0.0
C772 C 0.74396 0.46503 0.98836 0.0
C773 C 0.74374 0.50048 0.9619 0.0
C774 C 0.23897 0.16613 0.69928 0.0
C775 C 0.20917 0.13574 0.68998 0.0
C776 C 0.27554 0.15614 0.72023 0.0
C777 C 0.28403 0.11533 0.73226 0.0
H778 H 0.23314 0.19835 0.6924 0.0
H779 H 0.29582 0.18099 0.72932 0.0
S780 S 0.22045 0.02316 0.70828 0.0
N781 N 0.19337 0.06231 0.68996 0.0
N782 N 0.26274 0.0436 0.728 0.0
C783 C 0.25618 0.08428 0.72027 0.0
C784 C 0.21863 0.09443 0.69946 0.0
C785 C 0.76782 0.91328 0.74672 0.0
C786 C 0.72899 0.89569 0.73769 0.0
C787 C 0.80294 0.90432 0.72328 0.0
C788 C 0.80137 0.87686 0.6897 0.0
H789 H 0.77185 0.93306 0.7733 0.0
H790 H 0.83197 0.91771 0.73299 0.0
S791 S 0.70638 0.82652 0.64924 0.0
N792 N 0.69032 0.85287 0.6898 0.0
N793 N 0.75641 0.83541 0.64586 0.0
C794 C 0.76226 0.86102 0.67853 0.0
C795 C 0.72616 0.87057 0.7024 0.0
C796 C 0.27744 0.87068 0.29448 0.0
C797 C 0.2764 0.9036 0.26606 0.0
C798 C 0.24203 0.85916 0.31694 0.0
C799 C 0.20412 0.88026 0.31217 0.0
H800 H 0.30508 0.85222 0.29787 0.0
H801 H 0.24415 0.83244 0.33699 0.0
S802 S 0.18678 0.97291 0.24668 0.0
N803 N 0.23523 0.95997 0.23827 0.0
N804 N 0.16949 0.93887 0.28038 0.0
C805 C 0.2036 0.91507 0.28618 0.0
C806 C 0.23945 0.92655 0.26322 0.0
C807 C 0.76933 0.09869 0.25696 0.0
C808 C 0.72961 0.11335 0.26731 0.0
C809 C 0.80431 0.1096 0.27975 0.0
C810 C 0.80161 0.13639 0.31376 0.0
H811 H 0.77405 0.07977 0.22987 0.0
H812 H 0.83395 0.09823 0.26928 0.0
S813 S 0.70449 0.18048 0.35661 0.0
N814 N 0.68926 0.15274 0.31673 0.0
N815 N 0.75509 0.17533 0.35834 0.0
C816 C 0.76185 0.14991 0.32571 0.0
C817 C 0.72592 0.13782 0.30294 0.0
C818 C 0.69143 0.2312 0.10222 0.0
C819 C 0.69594 0.20978 0.13973 0.0
C820 C 0.71352 0.26797 0.09478 0.0
C821 C 0.7406 0.28405 0.12466 0.0
H822 H 0.67102 0.21936 0.07856 0.0
H823 H 0.71063 0.28302 0.06502 0.0
S824 S 0.76573 0.23732 0.22612 0.0
N825 N 0.73064 0.20626 0.20611 0.0
N826 N 0.77262 0.2744 0.19171 0.0
C827 C 0.7455 0.26258 0.16197 0.0
C828 C 0.72294 0.22568 0.16966 0.0
C829 C 0.2517 0.77931 0.0939 0.0
C830 C 0.26314 0.73922 0.1071 0.0
C831 C 0.27534 0.8143 0.10337 0.0
C832 C 0.31133 0.81128 0.1273 0.0
H833 H 0.22326 0.78431 0.07722 0.0
H834 H 0.26404 0.84419 0.0934 0.0
S835 S 0.35704 0.71334 0.16711 0.0
N836 N 0.31501 0.69842 0.14262 0.0
N837 N 0.35868 0.76405 0.162 0.0
C838 C 0.32417 0.77118 0.13938 0.0
C839 C 0.30037 0.73531 0.1289 0.0
C840 C 0.74929 0.76812 0.91055 0.0
C841 C 0.73868 0.72866 0.89538 0.0
C842 C 0.72573 0.80323 0.90142 0.0
C843 C 0.69074 0.80091 0.87587 0.0
H844 H 0.77709 0.77253 0.92846 0.0
H845 H 0.73645 0.83273 0.91294 0.0
S846 S 0.64624 0.70426 0.83242 0.0
N847 N 0.68761 0.68873 0.8577 0.0
N848 N 0.64443 0.75484 0.83862 0.0
C849 C 0.67831 0.76129 0.86237 0.0
C850 C 0.7019 0.72523 0.87262 0.0
C851 C 0.28313 0.19756 0.90395 0.0
C852 C 0.31679 0.20049 0.87675 0.0
C853 C 0.25944 0.23227 0.91427 0.0
C854 C 0.26832 0.27202 0.89838 0.0
H855 H 0.27361 0.16784 0.91609 0.0
H856 H 0.23284 0.22723 0.93381 0.0
S857 S 0.35658 0.29801 0.83015 0.0
N858 N 0.36022 0.24759 0.83703 0.0
N859 N 0.31597 0.31274 0.85716 0.0
C860 C 0.30356 0.27605 0.87338 0.0
C861 C 0.32762 0.24043 0.86241 0.0
C862 C 0.09013 0.74908 0.23718 0.0
C863 C 0.10925 0.74052 0.27542 0.0
C864 C 0.09905 0.72629 0.20157 0.0
C865 C 0.12834 0.69429 0.20204 0.0
H866 H 0.06922 0.77488 0.23396 0.0
H867 H 0.08432 0.7355 0.17301 0.0
S868 S 0.18356 0.6556 0.29519 0.0
N869 N 0.15517 0.69423 0.31248 0.0
N870 N 0.17373 0.65258 0.24531 0.0
C871 C 0.14598 0.68366 0.24057 0.0
C872 C 0.136 0.70639 0.27723 0.0
C873 C 0.09254 0.24968 0.77828 0.0
C874 C 0.10497 0.26244 0.73842 0.0
C875 C 0.10233 0.27262 0.81368 0.0
C876 C 0.12599 0.30896 0.81114 0.0
H877 H 0.07633 0.22078 0.78261 0.0
H878 H 0.09302 0.26046 0.84341 0.0
S879 S 0.16216 0.35869 0.71388 0.0
N880 N 0.13783 0.31674 0.69836 0.0
N881 N 0.15871 0.35834 0.76468 0.0
C882 C 0.13681 0.32322 0.77129 0.0
C883 C 0.12566 0.30045 0.73508 0.0
C884 C 0.83972 0.69686 0.76305 0.0
C885 C 0.8696 0.68738 0.79327 0.0
C886 C 0.8499 0.71964 0.72755 0.0
C887 C 0.89042 0.73335 0.72061 0.0
H888 H 0.80768 0.68874 0.76788 0.0
H889 H 0.82534 0.72878 0.70693 0.0
S890 S 0.98154 0.70965 0.7856 0.0
N891 N 0.94242 0.68903 0.81098 0.0
N892 N 0.96157 0.73042 0.74352 0.0
C893 C 0.92109 0.72118 0.74876 0.0
C894 C 0.91071 0.69855 0.78524 0.0
C895 C 0.87003 0.30252 0.27949 0.0
C896 C 0.90186 0.27293 0.27905 0.0
C897 C 0.85993 0.32537 0.24387 0.0
C898 C 0.88141 0.31989 0.20624 0.0
H899 H 0.8512 0.30655 0.3068 0.0
H900 H 0.83385 0.34622 0.24554 0.0
S901 S 0.97188 0.25129 0.19054 0.0
N902 N 0.95792 0.24331 0.23885 0.0
N903 N 0.93939 0.28613 0.1726 0.0
C904 C 0.91529 0.29276 0.20635 0.0
C905 C 0.92536 0.26938 0.24248 0.0
C906 C 0.99059 0.03582 0.59666 0.0
C907 C 0.02869 0.03833 0.61735 0.0
C908 C 0.96538 1.00056 0.60046 0.0
C909 C 0.97747 0.96682 0.6252 0.0
H910 H 0.9792 0.06208 0.57928 0.0
H911 H 0.93557 1.00052 0.58539 0.0
S912 S 0.07766 0.95631 0.68028 0.0
N913 N 0.07916 1.00298 0.65976 0.0
N914 N 0.03291 0.93658 0.66621 0.0
C915 C 0.01688 0.96819 0.64368 0.0
C916 C 0.04217 1.00401 0.64 0.0
C917 C 0.98089 0.01858 0.35365 0.0
C918 C 0.97398 0.04017 0.39068 0.0
C919 C 0.00602 0.98369 0.3522 0.0
C920 C 0.02509 0.96771 0.38784 0.0
H921 H 0.96736 0.02907 0.32492 0.0
H922 H 0.01055 0.9694 0.32239 0.0
S923 S 0.01574 0.01125 0.49348 0.0
N924 N 0.98763 0.0425 0.46455 0.0
N925 N 0.03422 0.97562 0.46201 0.0
C926 C 0.0177 0.98816 0.42556 0.0
C927 C 0.9922 0.02446 0.42697 0.0
C928 C 0.65662 0.99076 0.98608 0.0
C929 C 0.61954 0.98077 0.96589 0.0
C930 C 0.65733 0.01641 0.02055 0.0
C931 C 0.62093 0.03297 0.03753 0.0
H932 H 0.68589 0.97898 0.97506 0.0
H933 H 0.68713 0.02309 0.03393 0.0
S934 S 0.51501 0.01629 0.99695 0.0
N935 N 0.54494 0.9897 0.96532 0.0
N936 N 0.54615 0.0373 0.03143 0.0
C937 C 0.58327 0.02308 0.01808 0.0
C938 C 0.58259 0.99704 0.98219 0.0
C939 C 0.3885 0.01644 0.03714 0.0
C940 C 0.38601 0.97315 0.0322 0.0
C941 C 0.38887 0.04322 1.003 0.0
C942 C 0.38591 0.02769 0.96269 0.0
H943 H 0.38825 0.02989 0.06777 0.0
H944 H 0.38859 0.07626 0.00837 0.0
S945 S 0.38477 0.91694 0.93262 0.0
N946 N 0.3855 0.91606 0.9836 0.0
N947 N 0.38534 0.96626 0.91948 0.0
C948 C 0.3864 0.98446 0.95723 0.0
C949 C 0.38676 0.95719 0.99197 0.0
C950 C 0.99474 0.64889 0.96815 0.0
C951 C 0.96749 0.61535 0.97176 0.0
C952 C 0.02928 0.65246 0.9935 0.0
C953 C 0.03842 0.6228 0.02405 0.0
H954 H 0.98875 0.67347 0.94619 0.0
H955 H 0.0485 0.67944 0.98933 0.0
S956 S 0.97916 0.52646 0.04344 0.0
N957 N 0.95342 0.54992 0.00613 0.0
N958 N 0.01889 0.55661 0.0541 0.0
C959 C 0.01266 0.58779 0.02669 0.0
C960 C 0.97716 0.58405 1.00047 0.0
C961 C 0.04362 0.37977 0.02199 0.0
C962 C 0.03855 0.38057 0.97874 0.0
C963 C 0.00961 0.38148 0.04877 0.0
C964 C 0.96926 0.38311 0.0332 0.0
H965 H 0.07407 0.37615 0.0353 0.0
H966 H 0.01486 0.37871 0.08169 0.0
S967 S 0.93937 0.39096 0.92285 0.0
N968 N 0.99021 0.38753 0.92188 0.0
N969 N 0.92622 0.38967 0.97211 0.0
C970 C 0.96388 0.3865 0.99018 0.0
C971 C 0.99857 0.38559 0.96294 0.0
loop_
_geom_bond_atom_site_label_1
_geom_bond_atom_site_label_2
_geom_bond_distance
_geom_bond_site_symmetry_2
_ccdc_geom_bond_type
Co0 O2 2.143 . S
Co0 O8 2.074 . S
Co0 O11 2.093 . S
Co0 O24 2.097 . S
Co0 N41 2.151 . S
Co0 N49 2.214 . S
Co1 O2 2.160 . S
Co1 O7 2.058 . S
Co1 O17 2.057 . S
Co1 O32 2.037 . S
Co1 N36 2.145 . S
Co1 N57 2.257 . S
O2 Co0 2.143 . S
O2 Co1 2.160 . S
C3 O4 1.278 . S
C3 O11 1.224 . S
O4 C3 1.278 . S
C5 O6 1.245 . S
C5 O17 1.232 . S
O6 C5 1.245 . S
O7 Co1 2.058 . S
O7 C33 1.269 . S
O8 Co0 2.074 . S
O8 C33 1.257 . S
H9 C34 0.930 . S
H10 C40 0.930 . S
O11 Co0 2.093 . S
O11 C3 1.224 . S
H12 C44 0.929 . S
H13 C46 0.930 . S
H14 C47 0.930 . S
H15 C45 0.929 1_455 S
H16 C48 0.928 . S
O17 Co1 2.057 . S
O17 C5 1.232 . S
H18 C37 0.929 . S
H19 C38 0.929 . S
H20 C50 0.931 . S
H21 C42 0.929 . S
H22 C51 0.930 . S
H23 C43 0.931 . S
O24 Co0 2.097 . S
O24 C52 1.214 . S
H25 C53 0.929 . S
H26 C54 0.929 . S
H27 C55 0.930 . S
H28 C56 0.929 . S
H29 C58 0.930 . S
H30 C35 0.930 . S
H31 C39 0.930 . S
O32 Co1 2.037 . S
O32 C52 1.234 . S
C33 O7 1.269 . S
C33 O8 1.257 . S
C34 H9 0.930 . S
C34 C37 1.388 . S
C34 C39 1.418 . S
C35 H30 0.930 . S
C35 C38 1.404 . S
C35 C39 1.353 . S
N36 Co1 2.145 . S
N36 C37 1.397 . S
N36 C38 1.334 . S
C37 H18 0.929 . S
C37 C34 1.388 . S
C37 N36 1.397 . S
C38 H19 0.929 . S
C38 C35 1.404 . S
C38 N36 1.334 . S
C39 H31 0.930 . S
C39 C34 1.418 . S
C39 C35 1.353 . S
C40 H10 0.930 . S
C40 N41 1.330 1_655 S
C40 C42 1.446 . S
N41 Co0 2.151 . S
N41 C40 1.330 1_455 S
N41 C45 1.418 1_455 S
C42 H21 0.929 . S
C42 C40 1.446 . S
C42 C43 1.332 . S
C43 H23 0.931 . S
C43 C42 1.332 . S
C43 C44 1.267 . S
C44 H12 0.929 . S
C44 C43 1.267 . S
C44 C45 1.251 . S
C45 H15 0.929 1_655 S
C45 N41 1.418 1_655 S
C45 C44 1.251 . S
C46 H13 0.930 . S
C46 C48 1.406 . S
C46 C51 1.261 . S
C47 H14 0.930 . S
C47 N49 1.325 . S
C47 C50 1.357 . S
C48 H16 0.928 . S
C48 C46 1.406 . S
C48 N49 1.261 . S
N49 Co0 2.214 . S
N49 C47 1.325 . S
N49 C48 1.261 . S
C50 H20 0.931 . S
C50 C47 1.357 . S
C50 C51 1.312 . S
C51 H22 0.930 . S
C51 C46 1.261 . S
C51 C50 1.312 . S
C52 O24 1.214 . S
C52 O32 1.234 . S
C53 H25 0.929 . S
C53 C56 1.391 . S
C53 C58 1.391 . S
C54 H26 0.929 . S
C54 C55 1.390 . S
C54 N57 1.391 . S
C55 H27 0.930 . S
C55 C54 1.390 . S
C55 C56 1.392 . S
C56 H28 0.929 . S
C56 C53 1.391 . S
C56 C55 1.392 . S
N57 Co1 2.257 . S
N57 C54 1.391 . S
N57 C58 1.388 . S
C58 H29 0.930 . S
C58 C53 1.391 . S
C58 N57 1.388 . S
Co59 O61 2.143 . S
Co59 O67 2.074 . S
Co59 O70 2.093 . S
Co59 O83 2.097 . S
Co59 N100 2.151 . S
Co59 N108 2.214 . S
Co60 O61 2.160 . S
Co60 O66 2.058 . S
Co60 O76 2.057 . S
Co60 O91 2.037 . S
Co60 N95 2.145 . S
Co60 N116 2.257 . S
O61 Co59 2.143 . S
O61 Co60 2.160 . S
C62 O63 1.278 . S
C62 O70 1.224 . S
O63 C62 1.278 . S
C64 O65 1.245 . S
C64 O76 1.232 . S
O65 C64 1.245 . S
O66 Co60 2.058 . S
O66 C92 1.269 . S
O67 Co59 2.074 . S
O67 C92 1.257 . S
H68 C93 0.930 . S
H69 C99 0.930 . S
O70 Co59 2.093 . S
O70 C62 1.224 . S
H71 C103 0.929 . S
H72 C105 0.930 . S
H73 C106 0.930 . S
H74 C104 0.929 1_655 S
H75 C107 0.928 . S
O76 Co60 2.057 . S
O76 C64 1.232 . S
H77 C96 0.929 . S
H78 C97 0.929 . S
H79 C109 0.931 . S
H80 C101 0.929 . S
H81 C110 0.930 . S
H82 C102 0.931 . S
O83 Co59 2.097 . S
O83 C111 1.214 . S
H84 C112 0.929 . S
H85 C113 0.929 . S
H86 C114 0.930 . S
H87 C115 0.929 . S
H88 C117 0.930 . S
H89 C94 0.930 . S
H90 C98 0.930 . S
O91 Co60 2.037 . S
O91 C111 1.234 . S
C92 O66 1.269 . S
C92 O67 1.257 . S
C93 H68 0.930 . S
C93 C96 1.388 . S
C93 C98 1.418 . S
C94 H89 0.930 . S
C94 C97 1.404 . S
C94 C98 1.353 . S
N95 Co60 2.145 . S
N95 C96 1.397 . S
N95 C97 1.334 . S
C96 H77 0.929 . S
C96 C93 1.388 . S
C96 N95 1.397 . S
C97 H78 0.929 . S
C97 C94 1.404 . S
C97 N95 1.334 . S
C98 H90 0.930 . S
C98 C93 1.418 . S
C98 C94 1.353 . S
C99 H69 0.930 . S
C99 N100 1.330 1_455 S
C99 C101 1.446 . S
N100 Co59 2.151 . S
N100 C99 1.330 1_655 S
N100 C104 1.418 1_655 S
C101 H80 0.929 . S
C101 C99 1.446 . S
C101 C102 1.332 . S
C102 H82 0.931 . S
C102 C101 1.332 . S
C102 C103 1.267 . S
C103 H71 0.929 . S
C103 C102 1.267 . S
C103 C104 1.251 . S
C104 H74 0.929 1_455 S
C104 N100 1.418 1_455 S
C104 C103 1.251 . S
C105 H72 0.930 . S
C105 C107 1.406 . S
C105 C110 1.261 . S
C106 H73 0.930 . S
C106 N108 1.325 . S
C106 C109 1.357 . S
C107 H75 0.928 . S
C107 C105 1.406 . S
C107 N108 1.261 . S
N108 Co59 2.214 . S
N108 C106 1.325 . S
N108 C107 1.261 . S
C109 H79 0.931 . S
C109 C106 1.357 . S
C109 C110 1.312 . S
C110 H81 0.930 . S
C110 C105 1.261 . S
C110 C109 1.312 . S
C111 O83 1.214 . S
C111 O91 1.234 . S
C112 H84 0.929 . S
C112 C115 1.391 . S
C112 C117 1.391 . S
C113 H85 0.929 . S
C113 C114 1.390 . S
C113 N116 1.391 . S
C114 H86 0.930 . S
C114 C113 1.390 . S
C114 C115 1.392 . S
C115 H87 0.929 . S
C115 C112 1.391 . S
C115 C114 1.392 . S
N116 Co60 2.257 . S
N116 C113 1.391 . S
N116 C117 1.388 . S
C117 H88 0.930 . S
C117 C112 1.391 . S
C117 N116 1.388 . S
Co118 O120 2.143 . S
Co118 O126 2.074 . S
Co118 O129 2.093 . S
Co118 O142 2.097 . S
Co118 N159 2.151 . S
Co118 N167 2.214 . S
Co119 O120 2.160 . S
Co119 O125 2.058 . S
Co119 O135 2.057 . S
Co119 O150 2.037 . S
Co119 N154 2.145 . S
Co119 N175 2.257 . S
O120 Co118 2.143 . S
O120 Co119 2.160 . S
C121 O122 1.278 . S
C121 O129 1.224 . S
O122 C121 1.278 . S
C123 O124 1.245 . S
C123 O135 1.232 . S
O124 C123 1.245 . S
O125 Co119 2.058 . S
O125 C151 1.269 . S
O126 Co118 2.074 . S
O126 C151 1.257 . S
H127 C152 0.930 . S
H128 C158 0.930 . S
O129 Co118 2.093 . S
O129 C121 1.224 . S
H130 C162 0.929 . S
H131 C164 0.930 . S
H132 C165 0.930 . S
H133 C163 0.929 1_455 S
H134 C166 0.928 . S
O135 Co119 2.057 . S
O135 C123 1.232 . S
H136 C155 0.929 . S
H137 C156 0.929 . S
H138 C168 0.931 . S
H139 C160 0.929 . S
H140 C169 0.930 . S
H141 C161 0.931 . S
O142 Co118 2.097 . S
O142 C170 1.214 . S
H143 C171 0.929 . S
H144 C172 0.929 . S
H145 C173 0.930 . S
H146 C174 0.929 . S
H147 C176 0.930 . S
H148 C153 0.930 . S
H149 C157 0.930 . S
O150 Co119 2.037 . S
O150 C170 1.234 . S
C151 O125 1.269 . S
C151 O126 1.257 . S
C152 H127 0.930 . S
C152 C155 1.388 . S
C152 C157 1.418 . S
C153 H148 0.930 . S
C153 C156 1.404 . S
C153 C157 1.353 . S
N154 Co119 2.145 . S
N154 C155 1.397 . S
N154 C156 1.334 . S
C155 H136 0.929 . S
C155 C152 1.388 . S
C155 N154 1.397 . S
C156 H137 0.929 . S
C156 C153 1.404 . S
C156 N154 1.334 . S
C157 H149 0.930 . S
C157 C152 1.418 . S
C157 C153 1.353 . S
C158 H128 0.930 . S
C158 N159 1.330 1_655 S
C158 C160 1.446 . S
N159 Co118 2.151 . S
N159 C158 1.330 1_455 S
N159 C163 1.418 1_455 S
C160 H139 0.929 . S
C160 C158 1.446 . S
C160 C161 1.332 . S
C161 H141 0.931 . S
C161 C160 1.332 . S
C161 C162 1.267 . S
C162 H130 0.929 . S
C162 C161 1.267 . S
C162 C163 1.251 . S
C163 H133 0.929 1_655 S
C163 N159 1.418 1_655 S
C163 C162 1.251 . S
C164 H131 0.930 . S
C164 C166 1.406 . S
C164 C169 1.261 . S
C165 H132 0.930 . S
C165 N167 1.325 . S
C165 C168 1.357 . S
C166 H134 0.928 . S
C166 C164 1.406 . S
C166 N167 1.261 . S
N167 Co118 2.214 . S
N167 C165 1.325 . S
N167 C166 1.261 . S
C168 H138 0.931 . S
C168 C165 1.357 . S
C168 C169 1.312 . S
C169 H140 0.930 . S
C169 C164 1.261 . S
C169 C168 1.312 . S
C170 O142 1.214 . S
C170 O150 1.234 . S
C171 H143 0.929 . S
C171 C174 1.391 . S
C171 C176 1.391 . S
C172 H144 0.929 . S
C172 C173 1.390 . S
C172 N175 1.391 . S
C173 H145 0.930 . S
C173 C172 1.390 . S
C173 C174 1.392 . S
C174 H146 0.929 . S
C174 C171 1.391 . S
C174 C173 1.392 . S
N175 Co119 2.257 . S
N175 C172 1.391 . S
N175 C176 1.388 . S
C176 H147 0.930 . S
C176 C171 1.391 . S
C176 N175 1.388 . S
Co177 O179 2.143 . S
Co177 O185 2.074 . S
Co177 O188 2.093 . S
Co177 O201 2.097 . S
Co177 N218 2.151 . S
Co177 N226 2.214 . S
Co178 O179 2.160 . S
Co178 O184 2.058 . S
Co178 O194 2.057 . S
Co178 O209 2.037 . S
Co178 N213 2.145 . S
Co178 N234 2.257 . S
O179 Co177 2.143 . S
O179 Co178 2.160 . S
C180 O181 1.278 . S
C180 O188 1.224 . S
O181 C180 1.278 . S
C182 O183 1.245 . S
C182 O194 1.232 . S
O183 C182 1.245 . S
O184 Co178 2.058 . S
O184 C210 1.269 . S
O185 Co177 2.074 . S
O185 C210 1.257 . S
H186 C211 0.930 . S
H187 C217 0.930 . S
O188 Co177 2.093 . S
O188 C180 1.224 . S
H189 C221 0.929 . S
H190 C223 0.930 . S
H191 C224 0.930 . S
H192 C222 0.929 1_655 S
H193 C225 0.928 . S
O194 Co178 2.057 . S
O194 C182 1.232 . S
H195 C214 0.929 . S
H196 C215 0.929 . S
H197 C227 0.931 . S
H198 C219 0.929 . S
H199 C228 0.930 . S
H200 C220 0.931 . S
O201 Co177 2.097 . S
O201 C229 1.214 . S
H202 C230 0.929 . S
H203 C231 0.929 . S
H204 C232 0.930 . S
H205 C233 0.929 . S
H206 C235 0.930 . S
H207 C212 0.930 . S
H208 C216 0.930 . S
O209 Co178 2.037 . S
O209 C229 1.234 . S
C210 O184 1.269 . S
C210 O185 1.257 . S
C211 H186 0.930 . S
C211 C214 1.388 . S
C211 C216 1.418 . S
C212 H207 0.930 . S
C212 C215 1.404 . S
C212 C216 1.353 . S
N213 Co178 2.145 . S
N213 C214 1.397 . S
N213 C215 1.334 . S
C214 H195 0.929 . S
C214 C211 1.388 . S
C214 N213 1.397 . S
C215 H196 0.929 . S
C215 C212 1.404 . S
C215 N213 1.334 . S
C216 H208 0.930 . S
C216 C211 1.418 . S
C216 C212 1.353 . S
C217 H187 0.930 . S
C217 N218 1.330 1_455 S
C217 C219 1.446 . S
N218 Co177 2.151 . S
N218 C217 1.330 1_655 S
N218 C222 1.418 1_655 S
C219 H198 0.929 . S
C219 C217 1.446 . S
C219 C220 1.332 . S
C220 H200 0.931 . S
C220 C219 1.332 . S
C220 C221 1.267 . S
C221 H189 0.929 . S
C221 C220 1.267 . S
C221 C222 1.251 . S
C222 H192 0.929 1_455 S
C222 N218 1.418 1_455 S
C222 C221 1.251 . S
C223 H190 0.930 . S
C223 C225 1.406 . S
C223 C228 1.261 . S
C224 H191 0.930 . S
C224 N226 1.325 . S
C224 C227 1.357 . S
C225 H193 0.928 . S
C225 C223 1.406 . S
C225 N226 1.261 . S
N226 Co177 2.214 . S
N226 C224 1.325 . S
N226 C225 1.261 . S
C227 H197 0.931 . S
C227 C224 1.357 . S
C227 C228 1.312 . S
C228 H199 0.930 . S
C228 C223 1.261 . S
C228 C227 1.312 . S
C229 O201 1.214 . S
C229 O209 1.234 . S
C230 H202 0.929 . S
C230 C233 1.391 . S
C230 C235 1.391 . S
C231 H203 0.929 . S
C231 C232 1.390 . S
C231 N234 1.391 . S
C232 H204 0.930 . S
C232 C231 1.390 . S
C232 C233 1.392 . S
C233 H205 0.929 . S
C233 C230 1.391 . S
C233 C232 1.392 . S
N234 Co178 2.257 . S
N234 C231 1.391 . S
N234 C235 1.388 . S
C235 H206 0.930 . S
C235 C230 1.391 . S
C235 N234 1.388 . S
Co236 O238 2.143 . S
Co236 O244 2.074 . S
Co236 O247 2.093 . S
Co236 O260 2.097 . S
Co236 N277 2.151 . S
Co236 N285 2.214 . S
Co237 O238 2.160 . S
Co237 O243 2.058 . S
Co237 O253 2.057 . S
Co237 O268 2.037 . S
Co237 N272 2.145 . S
Co237 N293 2.257 . S
O238 Co236 2.143 . S
O238 Co237 2.160 . S
C239 O240 1.278 . S
C239 O247 1.224 . S
O240 C239 1.278 . S
C241 O242 1.245 . S
C241 O253 1.232 . S
O242 C241 1.245 . S
O243 Co237 2.058 . S
O243 C269 1.269 . S
O244 Co236 2.074 . S
O244 C269 1.257 . S
H245 C270 0.930 . S
H246 C276 0.930 . S
O247 Co236 2.093 . S
O247 C239 1.224 . S
H248 C280 0.929 . S
H249 C282 0.930 . S
H250 C283 0.930 . S
H251 C281 0.929 1_545 S
H252 C284 0.928 . S
O253 Co237 2.057 . S
O253 C241 1.232 . S
H254 C273 0.929 . S
H255 C274 0.929 . S
H256 C286 0.931 . S
H257 C278 0.929 . S
H258 C287 0.930 . S
H259 C279 0.931 . S
O260 Co236 2.097 . S
O260 C288 1.214 . S
H261 C289 0.929 . S
H262 C290 0.929 . S
H263 C291 0.930 . S
H264 C292 0.929 . S
H265 C294 0.930 . S
H266 C271 0.930 . S
H267 C275 0.930 . S
O268 Co237 2.037 . S
O268 C288 1.234 . S
C269 O243 1.269 . S
C269 O244 1.257 . S
C270 H245 0.930 . S
C270 C273 1.388 . S
C270 C275 1.418 . S
C271 H266 0.930 . S
C271 C274 1.404 . S
C271 C275 1.353 . S
N272 Co237 2.145 . S
N272 C273 1.397 . S
N272 C274 1.334 . S
C273 H254 0.929 . S
C273 C270 1.388 . S
C273 N272 1.397 . S
C274 H255 0.929 . S
C274 C271 1.404 . S
C274 N272 1.334 . S
C275 H267 0.930 . S
C275 C270 1.418 . S
C275 C271 1.353 . S
C276 H246 0.930 . S
C276 N277 1.330 1_565 S
C276 C278 1.446 . S
N277 Co236 2.151 . S
N277 C276 1.330 1_545 S
N277 C281 1.418 1_545 S
C278 H257 0.929 . S
C278 C276 1.446 . S
C278 C279 1.332 . S
C279 H259 0.931 . S
C279 C278 1.332 . S
C279 C280 1.267 . S
C280 H248 0.929 . S
C280 C279 1.267 . S
C280 C281 1.251 . S
C281 H251 0.929 1_565 S
C281 N277 1.418 1_565 S
C281 C280 1.251 . S
C282 H249 0.930 . S
C282 C284 1.406 . S
C282 C287 1.261 . S
C283 H250 0.930 . S
C283 N285 1.325 . S
C283 C286 1.357 . S
C284 H252 0.928 . S
C284 C282 1.406 . S
C284 N285 1.261 . S
N285 Co236 2.214 . S
N285 C283 1.325 . S
N285 C284 1.261 . S
C286 H256 0.931 . S
C286 C283 1.357 . S
C286 C287 1.312 . S
C287 H258 0.930 . S
C287 C282 1.261 . S
C287 C286 1.312 . S
C288 O260 1.214 . S
C288 O268 1.234 . S
C289 H261 0.929 . S
C289 C292 1.391 . S
C289 C294 1.391 . S
C290 H262 0.929 . S
C290 C291 1.390 . S
C290 N293 1.391 . S
C291 H263 0.930 . S
C291 C290 1.390 . S
C291 C292 1.392 . S
C292 H264 0.929 . S
C292 C289 1.391 . S
C292 C291 1.392 . S
N293 Co237 2.257 . S
N293 C290 1.391 . S
N293 C294 1.388 . S
C294 H265 0.930 . S
C294 C289 1.391 . S
C294 N293 1.388 . S
Co295 O297 2.143 . S
Co295 O303 2.074 . S
Co295 O306 2.093 . S
Co295 O319 2.097 . S
Co295 N336 2.151 . S
Co295 N344 2.214 . S
Co296 O297 2.160 . S
Co296 O302 2.058 . S
Co296 O312 2.057 . S
Co296 O327 2.037 . S
Co296 N331 2.145 . S
Co296 N352 2.257 . S
O297 Co295 2.143 . S
O297 Co296 2.160 . S
C298 O299 1.278 . S
C298 O306 1.224 . S
O299 C298 1.278 . S
C300 O301 1.245 . S
C300 O312 1.232 . S
O301 C300 1.245 . S
O302 Co296 2.058 . S
O302 C328 1.269 . S
O303 Co295 2.074 . S
O303 C328 1.257 . S
H304 C329 0.930 . S
H305 C335 0.930 . S
O306 Co295 2.093 . S
O306 C298 1.224 . S
H307 C339 0.929 . S
H308 C341 0.930 . S
H309 C342 0.930 . S
H310 C340 0.929 1_565 S
H311 C343 0.928 . S
O312 Co296 2.057 . S
O312 C300 1.232 . S
H313 C332 0.929 . S
H314 C333 0.929 . S
H315 C345 0.931 . S
H316 C337 0.929 . S
H317 C346 0.930 . S
H318 C338 0.931 . S
O319 Co295 2.097 . S
O319 C347 1.214 . S
H320 C348 0.929 . S
H321 C349 0.929 . S
H322 C350 0.930 . S
H323 C351 0.929 . S
H324 C353 0.930 . S
H325 C330 0.930 . S
H326 C334 0.930 . S
O327 Co296 2.037 . S
O327 C347 1.234 . S
C328 O302 1.269 . S
C328 O303 1.257 . S
C329 H304 0.930 . S
C329 C332 1.388 . S
C329 C334 1.418 . S
C330 H325 0.930 . S
C330 C333 1.404 . S
C330 C334 1.353 . S
N331 Co296 2.145 . S
N331 C332 1.397 . S
N331 C333 1.334 . S
C332 H313 0.929 . S
C332 C329 1.388 . S
C332 N331 1.397 . S
C333 H314 0.929 . S
C333 C330 1.404 . S
C333 N331 1.334 . S
C334 H326 0.930 . S
C334 C329 1.418 . S
C334 C330 1.353 . S
C335 H305 0.930 . S
C335 N336 1.330 1_545 S
C335 C337 1.446 . S
N336 Co295 2.151 . S
N336 C335 1.330 1_565 S
N336 C340 1.418 1_565 S
C337 H316 0.929 . S
C337 C335 1.446 . S
C337 C338 1.332 . S
C338 H318 0.931 . S
C338 C337 1.332 . S
C338 C339 1.267 . S
C339 H307 0.929 . S
C339 C338 1.267 . S
C339 C340 1.251 . S
C340 H310 0.929 1_545 S
C340 N336 1.418 1_545 S
C340 C339 1.251 . S
C341 H308 0.930 . S
C341 C343 1.406 . S
C341 C346 1.261 . S
C342 H309 0.930 . S
C342 N344 1.325 . S
C342 C345 1.357 . S
C343 H311 0.928 . S
C343 C341 1.406 . S
C343 N344 1.261 . S
N344 Co295 2.214 . S
N344 C342 1.325 . S
N344 C343 1.261 . S
C345 H315 0.931 . S
C345 C342 1.357 . S
C345 C346 1.312 . S
C346 H317 0.930 . S
C346 C341 1.261 . S
C346 C345 1.312 . S
C347 O319 1.214 . S
C347 O327 1.234 . S
C348 H320 0.929 . S
C348 C351 1.391 . S
C348 C353 1.391 . S
C349 H321 0.929 . S
C349 C350 1.390 . S
C349 N352 1.391 . S
C350 H322 0.930 . S
C350 C349 1.390 . S
C350 C351 1.392 . S
C351 H323 0.929 . S
C351 C348 1.391 . S
C351 C350 1.392 . S
N352 Co296 2.257 . S
N352 C349 1.391 . S
N352 C353 1.388 . S
C353 H324 0.930 . S
C353 C348 1.391 . S
C353 N352 1.388 . S
Co354 O356 2.143 . S
Co354 O362 2.074 . S
Co354 O365 2.093 . S
Co354 O378 2.097 . S
Co354 N395 2.151 . S
Co354 N403 2.214 . S
Co355 O356 2.160 . S
Co355 O361 2.058 . S
Co355 O371 2.057 . S
Co355 O386 2.037 . S
Co355 N390 2.145 . S
Co355 N411 2.257 . S
O356 Co354 2.143 . S
O356 Co355 2.160 . S
C357 O358 1.278 . S
C357 O365 1.224 . S
O358 C357 1.278 . S
C359 O360 1.245 . S
C359 O371 1.232 . S
O360 C359 1.245 . S
O361 Co355 2.058 . S
O361 C387 1.269 . S
O362 Co354 2.074 . S
O362 C387 1.257 . S
H363 C388 0.930 . S
H364 C394 0.930 . S
O365 Co354 2.093 . S
O365 C357 1.224 . S
H366 C398 0.929 . S
H367 C400 0.930 . S
H368 C401 0.930 . S
H369 C399 0.929 1_565 S
H370 C402 0.928 . S
O371 Co355 2.057 . S
O371 C359 1.232 . S
H372 C391 0.929 . S
H373 C392 0.929 . S
H374 C404 0.931 . S
H375 C396 0.929 . S
H376 C405 0.930 . S
H377 C397 0.931 . S
O378 Co354 2.097 . S
O378 C406 1.214 . S
H379 C407 0.929 . S
H380 C408 0.929 . S
H381 C409 0.930 . S
H382 C410 0.929 . S
H383 C412 0.930 . S
H384 C389 0.930 . S
H385 C393 0.930 . S
O386 Co355 2.037 . S
O386 C406 1.234 . S
C387 O361 1.269 . S
C387 O362 1.257 . S
C388 H363 0.930 . S
C388 C391 1.388 . S
C388 C393 1.418 . S
C389 H384 0.930 . S
C389 C392 1.404 . S
C389 C393 1.353 . S
N390 Co355 2.145 . S
N390 C391 1.397 . S
N390 C392 1.334 . S
C391 H372 0.929 . S
C391 C388 1.388 . S
C391 N390 1.397 . S
C392 H373 0.929 . S
C392 C389 1.404 . S
C392 N390 1.334 . S
C393 H385 0.930 . S
C393 C388 1.418 . S
C393 C389 1.353 . S
C394 H364 0.930 . S
C394 N395 1.330 1_545 S
C394 C396 1.446 . S
N395 Co354 2.151 . S
N395 C394 1.330 1_565 S
N395 C399 1.418 1_565 S
C396 H375 0.929 . S
C396 C394 1.446 . S
C396 C397 1.332 . S
C397 H377 0.931 . S
C397 C396 1.332 . S
C397 C398 1.267 . S
C398 H366 0.929 . S
C398 C397 1.267 . S
C398 C399 1.251 . S
C399 H369 0.929 1_545 S
C399 N395 1.418 1_545 S
C399 C398 1.251 . S
C400 H367 0.930 . S
C400 C402 1.406 . S
C400 C405 1.261 . S
C401 H368 0.930 . S
C401 N403 1.325 . S
C401 C404 1.357 . S
C402 H370 0.928 . S
C402 C400 1.406 . S
C402 N403 1.261 . S
N403 Co354 2.214 . S
N403 C401 1.325 . S
N403 C402 1.261 . S
C404 H374 0.931 . S
C404 C401 1.357 . S
C404 C405 1.312 . S
C405 H376 0.930 . S
C405 C400 1.261 . S
C405 C404 1.312 . S
C406 O378 1.214 . S
C406 O386 1.234 . S
C407 H379 0.929 . S
C407 C410 1.391 . S
C407 C412 1.391 . S
C408 H380 0.929 . S
C408 C409 1.390 . S
C408 N411 1.391 . S
C409 H381 0.930 . S
C409 C408 1.390 . S
C409 C410 1.392 . S
C410 H382 0.929 . S
C410 C407 1.391 . S
C410 C409 1.392 . S
N411 Co355 2.257 . S
N411 C408 1.391 . S
N411 C412 1.388 . S
C412 H383 0.930 . S
C412 C407 1.391 . S
C412 N411 1.388 . S
Co413 O415 2.143 . S
Co413 O421 2.074 . S
Co413 O424 2.093 . S
Co413 O437 2.097 . S
Co413 N454 2.151 . S
Co413 N462 2.214 . S
Co414 O415 2.160 . S
Co414 O420 2.058 . S
Co414 O430 2.057 . S
Co414 O445 2.037 . S
Co414 N449 2.145 . S
Co414 N470 2.257 . S
O415 Co413 2.143 . S
O415 Co414 2.160 . S
C416 O417 1.278 . S
C416 O424 1.224 . S
O417 C416 1.278 . S
C418 O419 1.245 . S
C418 O430 1.232 . S
O419 C418 1.245 . S
O420 Co414 2.058 . S
O420 C446 1.269 . S
O421 Co413 2.074 . S
O421 C446 1.257 . S
H422 C447 0.930 . S
H423 C453 0.930 . S
O424 Co413 2.093 . S
O424 C416 1.224 . S
H425 C457 0.929 . S
H426 C459 0.930 . S
H427 C460 0.930 . S
H428 C458 0.929 1_545 S
H429 C461 0.928 . S
O430 Co414 2.057 . S
O430 C418 1.232 . S
H431 C450 0.929 . S
H432 C451 0.929 . S
H433 C463 0.931 . S
H434 C455 0.929 . S
H435 C464 0.930 . S
H436 C456 0.931 . S
O437 Co413 2.097 . S
O437 C465 1.214 . S
H438 C466 0.929 . S
H439 C467 0.929 . S
H440 C468 0.930 . S
H441 C469 0.929 . S
H442 C471 0.930 . S
H443 C448 0.930 . S
H444 C452 0.930 . S
O445 Co414 2.037 . S
O445 C465 1.234 . S
C446 O420 1.269 . S
C446 O421 1.257 . S
C447 H422 0.930 . S
C447 C450 1.388 . S
C447 C452 1.418 . S
C448 H443 0.930 . S
C448 C451 1.404 . S
C448 C452 1.353 . S
N449 Co414 2.145 . S
N449 C450 1.397 . S
N449 C451 1.334 . S
C450 H431 0.929 . S
C450 C447 1.388 . S
C450 N449 1.397 . S
C451 H432 0.929 . S
C451 C448 1.404 . S
C451 N449 1.334 . S
C452 H444 0.930 . S
C452 C447 1.418 . S
C452 C448 1.353 . S
C453 H423 0.930 . S
C453 N454 1.330 1_565 S
C453 C455 1.446 . S
N454 Co413 2.151 . S
N454 C453 1.330 1_545 S
N454 C458 1.418 1_545 S
C455 H434 0.929 . S
C455 C453 1.446 . S
C455 C456 1.332 . S
C456 H436 0.931 . S
C456 C455 1.332 . S
C456 C457 1.267 . S
C457 H425 0.929 . S
C457 C456 1.267 . S
C457 C458 1.251 . S
C458 H428 0.929 1_565 S
C458 N454 1.418 1_565 S
C458 C457 1.251 . S
C459 H426 0.930 . S
C459 C461 1.406 . S
C459 C464 1.261 . S
C460 H427 0.930 . S
C460 N462 1.325 . S
C460 C463 1.357 . S
C461 H429 0.928 . S
C461 C459 1.406 . S
C461 N462 1.261 . S
N462 Co413 2.214 . S
N462 C460 1.325 . S
N462 C461 1.261 . S
C463 H433 0.931 . S
C463 C460 1.357 . S
C463 C464 1.312 . S
C464 H435 0.930 . S
C464 C459 1.261 . S
C464 C463 1.312 . S
C465 O437 1.214 . S
C465 O445 1.234 . S
C466 H438 0.929 . S
C466 C469 1.391 . S
C466 C471 1.391 . S
C467 H439 0.929 . S
C467 C468 1.390 . S
C467 N470 1.391 . S
C468 H440 0.930 . S
C468 C467 1.390 . S
C468 C469 1.392 . S
C469 H441 0.929 . S
C469 C466 1.391 . S
C469 C468 1.392 . S
N470 Co414 2.257 . S
N470 C467 1.391 . S
N470 C471 1.388 . S
C471 H442 0.930 . S
C471 C466 1.391 . S
C471 N470 1.388 . S
Co472 O474 2.143 . S
Co472 O480 2.074 . S
Co472 O483 2.093 . S
Co472 O496 2.097 . S
Co472 N513 2.151 . S
Co472 N521 2.214 . S
Co473 O474 2.160 . S
Co473 O479 2.058 . S
Co473 O489 2.057 . S
Co473 O504 2.037 . S
Co473 N508 2.145 . S
Co473 N529 2.257 . S
O474 Co472 2.143 . S
O474 Co473 2.160 . S
C475 O476 1.278 . S
C475 O483 1.224 . S
O476 C475 1.278 . S
C477 O478 1.245 . S
C477 O489 1.232 . S
O478 C477 1.245 . S
O479 Co473 2.058 . S
O479 C505 1.269 . S
O480 Co472 2.074 . S
O480 C505 1.257 . S
H481 C506 0.930 . S
H482 C512 0.930 . S
O483 Co472 2.093 . S
O483 C475 1.224 . S
H484 C516 0.929 . S
H485 C518 0.930 . S
H486 C519 0.930 . S
H487 C517 0.929 1_554 S
H488 C520 0.928 . S
O489 Co473 2.057 . S
O489 C477 1.232 . S
H490 C509 0.929 . S
H491 C510 0.929 . S
H492 C522 0.931 . S
H493 C514 0.929 . S
H494 C523 0.930 . S
H495 C515 0.931 . S
O496 Co472 2.097 . S
O496 C524 1.214 . S
H497 C525 0.929 . S
H498 C526 0.929 . S
H499 C527 0.930 . S
H500 C528 0.929 . S
H501 C530 0.930 . S
H502 C507 0.930 . S
H503 C511 0.930 . S
O504 Co473 2.037 . S
O504 C524 1.234 . S
C505 O479 1.269 . S
C505 O480 1.257 . S
C506 H481 0.930 . S
C506 C509 1.388 . S
C506 C511 1.418 . S
C507 H502 0.930 . S
C507 C510 1.404 . S
C507 C511 1.353 . S
N508 Co473 2.145 . S
N508 C509 1.397 . S
N508 C510 1.334 . S
C509 H490 0.929 . S
C509 C506 1.388 . S
C509 N508 1.397 . S
C510 H491 0.929 . S
C510 C507 1.404 . S
C510 N508 1.334 . S
C511 H503 0.930 . S
C511 C506 1.418 . S
C511 C507 1.353 . S
C512 H482 0.930 . S
C512 N513 1.330 1_556 S
C512 C514 1.446 . S
N513 Co472 2.151 . S
N513 C512 1.330 1_554 S
N513 C517 1.418 1_554 S
C514 H493 0.929 . S
C514 C512 1.446 . S
C514 C515 1.332 . S
C515 H495 0.931 . S
C515 C514 1.332 . S
C515 C516 1.267 . S
C516 H484 0.929 . S
C516 C515 1.267 . S
C516 C517 1.251 . S
C517 H487 0.929 1_556 S
C517 N513 1.418 1_556 S
C517 C516 1.251 . S
C518 H485 0.930 . S
C518 C520 1.406 . S
C518 C523 1.261 . S
C519 H486 0.930 . S
C519 N521 1.325 . S
C519 C522 1.357 . S
C520 H488 0.928 . S
C520 C518 1.406 . S
C520 N521 1.261 . S
N521 Co472 2.214 . S
N521 C519 1.325 . S
N521 C520 1.261 . S
C522 H492 0.931 . S
C522 C519 1.357 . S
C522 C523 1.312 . S
C523 H494 0.930 . S
C523 C518 1.261 . S
C523 C522 1.312 . S
C524 O496 1.214 . S
C524 O504 1.234 . S
C525 H497 0.929 . S
C525 C528 1.391 . S
C525 C530 1.391 . S
C526 H498 0.929 . S
C526 C527 1.390 . S
C526 N529 1.391 . S
C527 H499 0.930 . S
C527 C526 1.390 . S
C527 C528 1.392 . S
C528 H500 0.929 . S
C528 C525 1.391 . S
C528 C527 1.392 . S
N529 Co473 2.257 . S
N529 C526 1.391 . S
N529 C530 1.388 . S
C530 H501 0.930 . S
C530 C525 1.391 . S
C530 N529 1.388 . S
Co531 O533 2.143 . S
Co531 O539 2.074 . S
Co531 O542 2.093 . S
Co531 O555 2.097 . S
Co531 N572 2.151 . S
Co531 N580 2.214 . S
Co532 O533 2.160 . S
Co532 O538 2.058 . S
Co532 O548 2.057 . S
Co532 O563 2.037 . S
Co532 N567 2.145 . S
Co532 N588 2.257 . S
O533 Co531 2.143 . S
O533 Co532 2.160 . S
C534 O535 1.278 . S
C534 O542 1.224 . S
O535 C534 1.278 . S
C536 O537 1.245 . S
C536 O548 1.232 . S
O537 C536 1.245 . S
O538 Co532 2.058 . S
O538 C564 1.269 . S
O539 Co531 2.074 . S
O539 C564 1.257 . S
H540 C565 0.930 . S
H541 C571 0.930 . S
O542 Co531 2.093 . S
O542 C534 1.224 . S
H543 C575 0.929 . S
H544 C577 0.930 . S
H545 C578 0.930 . S
H546 C576 0.929 1_556 S
H547 C579 0.928 . S
O548 Co532 2.057 . S
O548 C536 1.232 . S
H549 C568 0.929 . S
H550 C569 0.929 . S
H551 C581 0.931 . S
H552 C573 0.929 . S
H553 C582 0.930 . S
H554 C574 0.931 . S
O555 Co531 2.097 . S
O555 C583 1.214 . S
H556 C584 0.929 . S
H557 C585 0.929 . S
H558 C586 0.930 . S
H559 C587 0.929 . S
H560 C589 0.930 . S
H561 C566 0.930 . S
H562 C570 0.930 . S
O563 Co532 2.037 . S
O563 C583 1.234 . S
C564 O538 1.269 . S
C564 O539 1.257 . S
C565 H540 0.930 . S
C565 C568 1.388 . S
C565 C570 1.418 . S
C566 H561 0.930 . S
C566 C569 1.404 . S
C566 C570 1.353 . S
N567 Co532 2.145 . S
N567 C568 1.397 . S
N567 C569 1.334 . S
C568 H549 0.929 . S
C568 C565 1.388 . S
C568 N567 1.397 . S
C569 H550 0.929 . S
C569 C566 1.404 . S
C569 N567 1.334 . S
C570 H562 0.930 . S
C570 C565 1.418 . S
C570 C566 1.353 . S
C571 H541 0.930 . S
C571 N572 1.330 1_554 S
C571 C573 1.446 . S
N572 Co531 2.151 . S
N572 C571 1.330 1_556 S
N572 C576 1.418 1_556 S
C573 H552 0.929 . S
C573 C571 1.446 . S
C573 C574 1.332 . S
C574 H554 0.931 . S
C574 C573 1.332 . S
C574 C575 1.267 . S
C575 H543 0.929 . S
C575 C574 1.267 . S
C575 C576 1.251 . S
C576 H546 0.929 1_554 S
C576 N572 1.418 1_554 S
C576 C575 1.251 . S
C577 H544 0.930 . S
C577 C579 1.406 . S
C577 C582 1.261 . S
C578 H545 0.930 . S
C578 N580 1.325 . S
C578 C581 1.357 . S
C579 H547 0.928 . S
C579 C577 1.406 . S
C579 N580 1.261 . S
N580 Co531 2.214 . S
N580 C578 1.325 . S
N580 C579 1.261 . S
C581 H551 0.931 . S
C581 C578 1.357 . S
C581 C582 1.312 . S
C582 H553 0.930 . S
C582 C577 1.261 . S
C582 C581 1.312 . S
C583 O555 1.214 . S
C583 O563 1.234 . S
C584 H556 0.929 . S
C584 C587 1.391 . S
C584 C589 1.391 . S
C585 H557 0.929 . S
C585 C586 1.390 . S
C585 N588 1.391 . S
C586 H558 0.930 . S
C586 C585 1.390 . S
C586 C587 1.392 . S
C587 H559 0.929 . S
C587 C584 1.391 . S
C587 C586 1.392 . S
N588 Co532 2.257 . S
N588 C585 1.391 . S
N588 C589 1.388 . S
C589 H560 0.930 . S
C589 C584 1.391 . S
C589 N588 1.388 . S
Co590 O592 2.143 . S
Co590 O598 2.074 . S
Co590 O601 2.093 . S
Co590 O614 2.097 . S
Co590 N631 2.151 . S
Co590 N639 2.214 . S
Co591 O592 2.160 . S
Co591 O597 2.058 . S
Co591 O607 2.057 . S
Co591 O622 2.037 . S
Co591 N626 2.145 . S
Co591 N647 2.257 . S
O592 Co590 2.143 . S
O592 Co591 2.160 . S
C593 O594 1.278 . S
C593 O601 1.224 . S
O594 C593 1.278 . S
C595 O596 1.245 . S
C595 O607 1.232 . S
O596 C595 1.245 . S
O597 Co591 2.058 . S
O597 C623 1.269 . S
O598 Co590 2.074 . S
O598 C623 1.257 . S
H599 C624 0.930 . S
H600 C630 0.930 . S
O601 Co590 2.093 . S
O601 C593 1.224 . S
H602 C634 0.929 . S
H603 C636 0.930 . S
H604 C637 0.930 . S
H605 C635 0.929 1_556 S
H606 C638 0.928 . S
O607 Co591 2.057 . S
O607 C595 1.232 . S
H608 C627 0.929 . S
H609 C628 0.929 . S
H610 C640 0.931 . S
H611 C632 0.929 . S
H612 C641 0.930 . S
H613 C633 0.931 . S
O614 Co590 2.097 . S
O614 C642 1.214 . S
H615 C643 0.929 . S
H616 C644 0.929 . S
H617 C645 0.930 . S
H618 C646 0.929 . S
H619 C648 0.930 . S
H620 C625 0.930 . S
H621 C629 0.930 . S
O622 Co591 2.037 . S
O622 C642 1.234 . S
C623 O597 1.269 . S
C623 O598 1.257 . S
C624 H599 0.930 . S
C624 C627 1.388 . S
C624 C629 1.418 . S
C625 H620 0.930 . S
C625 C628 1.404 . S
C625 C629 1.353 . S
N626 Co591 2.145 . S
N626 C627 1.397 . S
N626 C628 1.334 . S
C627 H608 0.929 . S
C627 C624 1.388 . S
C627 N626 1.397 . S
C628 H609 0.929 . S
C628 C625 1.404 . S
C628 N626 1.334 . S
C629 H621 0.930 . S
C629 C624 1.418 . S
C629 C625 1.353 . S
C630 H600 0.930 . S
C630 N631 1.330 1_554 S
C630 C632 1.446 . S
N631 Co590 2.151 . S
N631 C630 1.330 1_556 S
N631 C635 1.418 1_556 S
C632 H611 0.929 . S
C632 C630 1.446 . S
C632 C633 1.332 . S
C633 H613 0.931 . S
C633 C632 1.332 . S
C633 C634 1.267 . S
C634 H602 0.929 . S
C634 C633 1.267 . S
C634 C635 1.251 . S
C635 H605 0.929 1_554 S
C635 N631 1.418 1_554 S
C635 C634 1.251 . S
C636 H603 0.930 . S
C636 C638 1.406 . S
C636 C641 1.261 . S
C637 H604 0.930 . S
C637 N639 1.325 . S
C637 C640 1.357 . S
C638 H606 0.928 . S
C638 C636 1.406 . S
C638 N639 1.261 . S
N639 Co590 2.214 . S
N639 C637 1.325 . S
N639 C638 1.261 . S
C640 H610 0.931 . S
C640 C637 1.357 . S
C640 C641 1.312 . S
C641 H612 0.930 . S
C641 C636 1.261 . S
C641 C640 1.312 . S
C642 O614 1.214 . S
C642 O622 1.234 . S
C643 H615 0.929 . S
C643 C646 1.391 . S
C643 C648 1.391 . S
C644 H616 0.929 . S
C644 C645 1.390 . S
C644 N647 1.391 . S
C645 H617 0.930 . S
C645 C644 1.390 . S
C645 C646 1.392 . S
C646 H618 0.929 . S
C646 C643 1.391 . S
C646 C645 1.392 . S
N647 Co591 2.257 . S
N647 C644 1.391 . S
N647 C648 1.388 . S
C648 H619 0.930 . S
C648 C643 1.391 . S
C648 N647 1.388 . S
Co649 O651 2.143 . S
Co649 O657 2.074 . S
Co649 O660 2.093 . S
Co649 O673 2.097 . S
Co649 N690 2.151 . S
Co649 N698 2.214 . S
Co650 O651 2.160 . S
Co650 O656 2.058 . S
Co650 O666 2.057 . S
Co650 O681 2.037 . S
Co650 N685 2.145 . S
Co650 N706 2.257 . S
O651 Co649 2.143 . S
O651 Co650 2.160 . S
C652 O653 1.278 . S
C652 O660 1.224 . S
O653 C652 1.278 . S
C654 O655 1.245 . S
C654 O666 1.232 . S
O655 C654 1.245 . S
O656 Co650 2.058 . S
O656 C682 1.269 . S
O657 Co649 2.074 . S
O657 C682 1.257 . S
H658 C683 0.930 . S
H659 C689 0.930 . S
O660 Co649 2.093 . S
O660 C652 1.224 . S
H661 C693 0.929 . S
H662 C695 0.930 . S
H663 C696 0.930 . S
H664 C694 0.929 1_554 S
H665 C697 0.928 . S
O666 Co650 2.057 . S
O666 C654 1.232 . S
H667 C686 0.929 . S
H668 C687 0.929 . S
H669 C699 0.931 . S
H670 C691 0.929 . S
H671 C700 0.930 . S
H672 C692 0.931 . S
O673 Co649 2.097 . S
O673 C701 1.214 . S
H674 C702 0.929 . S
H675 C703 0.929 . S
H676 C704 0.930 . S
H677 C705 0.929 . S
H678 C707 0.930 . S
H679 C684 0.930 . S
H680 C688 0.930 . S
O681 Co650 2.037 . S
O681 C701 1.234 . S
C682 O656 1.269 . S
C682 O657 1.257 . S
C683 H658 0.930 . S
C683 C686 1.388 . S
C683 C688 1.418 . S
C684 H679 0.930 . S
C684 C687 1.404 . S
C684 C688 1.353 . S
N685 Co650 2.145 . S
N685 C686 1.397 . S
N685 C687 1.334 . S
C686 H667 0.929 . S
C686 C683 1.388 . S
C686 N685 1.397 . S
C687 H668 0.929 . S
C687 C684 1.404 . S
C687 N685 1.334 . S
C688 H680 0.930 . S
C688 C683 1.418 . S
C688 C684 1.353 . S
C689 H659 0.930 . S
C689 N690 1.330 1_556 S
C689 C691 1.446 . S
N690 Co649 2.151 . S
N690 C689 1.330 1_554 S
N690 C694 1.418 1_554 S
C691 H670 0.929 . S
C691 C689 1.446 . S
C691 C692 1.332 . S
C692 H672 0.931 . S
C692 C691 1.332 . S
C692 C693 1.267 . S
C693 H661 0.929 . S
C693 C692 1.267 . S
C693 C694 1.251 . S
C694 H664 0.929 1_556 S
C694 N690 1.418 1_556 S
C694 C693 1.251 . S
C695 H662 0.930 . S
C695 C697 1.406 . S
C695 C700 1.261 . S
C696 H663 0.930 . S
C696 N698 1.325 . S
C696 C699 1.357 . S
C697 H665 0.928 . S
C697 C695 1.406 . S
C697 N698 1.261 . S
N698 Co649 2.214 . S
N698 C696 1.325 . S
N698 C697 1.261 . S
C699 H669 0.931 . S
C699 C696 1.357 . S
C699 C700 1.312 . S
C700 H671 0.930 . S
C700 C695 1.261 . S
C700 C699 1.312 . S
C701 O673 1.214 . S
C701 O681 1.234 . S
C702 H674 0.929 . S
C702 C705 1.391 . S
C702 C707 1.391 . S
C703 H675 0.929 . S
C703 C704 1.390 . S
C703 N706 1.391 . S
C704 H676 0.930 . S
C704 C703 1.390 . S
C704 C705 1.392 . S
C705 H677 0.929 . S
C705 C702 1.391 . S
C705 C704 1.392 . S
N706 Co650 2.257 . S
N706 C703 1.391 . S
N706 C707 1.388 . S
C707 H678 0.930 . S
C707 C702 1.391 . S
C707 N706 1.388 . S
C708 C709 1.369 1_455 S
C708 C710 1.419 . S
C708 H712 0.930 . S
C709 C708 1.369 1_655 S
C709 C718 1.429 . S
C710 C708 1.419 . S
C710 C711 1.363 . S
C710 H713 0.929 . S
C711 C710 1.363 . S
C711 C717 1.428 1_455 S
H712 C708 0.930 . S
H713 C710 0.929 . S
S714 N715 1.613 . S
S714 N716 1.610 . S
N715 S714 1.613 . S
N715 C718 1.350 . S
N716 S714 1.610 . S
N716 C717 1.351 . S
C717 C711 1.428 1_655 S
C717 N716 1.351 . S
C717 C718 1.434 . S
C718 C709 1.429 . S
C718 N715 1.350 . S
C718 C717 1.434 . S
C719 C720 1.369 1_655 S
C719 C721 1.419 . S
C719 H723 0.930 . S
C720 C719 1.369 1_455 S
C720 C729 1.429 . S
C721 C719 1.419 . S
C721 C722 1.363 . S
C721 H724 0.929 . S
C722 C721 1.363 . S
C722 C728 1.428 1_655 S
H723 C719 0.930 . S
H724 C721 0.929 . S
S725 N726 1.613 . S
S725 N727 1.610 . S
N726 S725 1.613 . S
N726 C729 1.350 . S
N727 S725 1.610 . S
N727 C728 1.351 . S
C728 C722 1.428 1_455 S
C728 N727 1.351 . S
C728 C729 1.434 . S
C729 C720 1.429 . S
C729 N726 1.350 . S
C729 C728 1.434 . S
C730 C731 1.369 . S
C730 C732 1.419 . S
C730 H734 0.930 . S
C731 C730 1.369 . S
C731 C740 1.429 1_565 S
C732 C730 1.419 . S
C732 C733 1.363 1_565 S
C732 H735 0.929 . S
C733 C732 1.363 1_545 S
C733 C739 1.428 . S
H734 C730 0.930 . S
H735 C732 0.929 . S
S736 N737 1.613 . S
S736 N738 1.610 . S
N737 S736 1.613 . S
N737 C740 1.350 . S
N738 S736 1.610 . S
N738 C739 1.351 . S
C739 C733 1.428 . S
C739 N738 1.351 . S
C739 C740 1.434 . S
C740 C731 1.429 1_545 S
C740 N737 1.350 . S
C740 C739 1.434 . S
C741 C742 1.369 . S
C741 C743 1.419 1_565 S
C741 H745 0.930 . S
C742 C741 1.369 . S
C742 C751 1.429 . S
C743 C741 1.419 1_545 S
C743 C744 1.363 . S
C743 H746 0.929 . S
C744 C743 1.363 . S
C744 C750 1.428 . S
H745 C741 0.930 . S
H746 C743 0.929 . S
S747 N748 1.613 1_545 S
S747 N749 1.610 . S
N748 S747 1.613 1_565 S
N748 C751 1.350 . S
N749 S747 1.610 . S
N749 C750 1.351 . S
C750 C744 1.428 . S
C750 N749 1.351 . S
C750 C751 1.434 1_545 S
C751 C742 1.429 . S
C751 N748 1.350 . S
C751 C750 1.434 1_565 S
C752 C753 1.369 1_554 S
C752 C754 1.419 . S
C752 H756 0.930 . S
C753 C752 1.369 1_556 S
C753 C762 1.429 . S
C754 C752 1.419 . S
C754 C755 1.363 . S
C754 H757 0.929 . S
C755 C754 1.363 . S
C755 C761 1.428 1_554 S
H756 C752 0.930 . S
H757 C754 0.929 . S
S758 N759 1.613 . S
S758 N760 1.610 . S
N759 S758 1.613 . S
N759 C762 1.350 . S
N760 S758 1.610 . S
N760 C761 1.351 . S
C761 C755 1.428 1_556 S
C761 N760 1.351 . S
C761 C762 1.434 . S
C762 C753 1.429 . S
C762 N759 1.350 . S
C762 C761 1.434 . S
C763 C764 1.369 1_554 S
C763 C765 1.419 . S
C763 H767 0.930 . S
C764 C763 1.369 1_556 S
C764 C773 1.429 . S
C765 C763 1.419 . S
C765 C766 1.363 . S
C765 H768 0.929 . S
C766 C765 1.363 . S
C766 C772 1.428 1_554 S
H767 C763 0.930 . S
H768 C765 0.929 . S
S769 N770 1.613 . S
S769 N771 1.610 . S
N770 S769 1.613 . S
N770 C773 1.350 . S
N771 S769 1.610 . S
N771 C772 1.351 . S
C772 C766 1.428 1_556 S
C772 N771 1.351 . S
C772 C773 1.434 . S
C773 C764 1.429 . S
C773 N770 1.350 . S
C773 C772 1.434 . S
C774 C775 1.369 . S
C774 C776 1.419 . S
C774 H778 0.930 . S
C775 C774 1.369 . S
C775 C784 1.429 . S
C776 C774 1.419 . S
C776 C777 1.363 . S
C776 H779 0.929 . S
C777 C776 1.363 . S
C777 C783 1.428 . S
H778 C774 0.930 . S
H779 C776 0.929 . S
S780 N781 1.613 . S
S780 N782 1.610 . S
N781 S780 1.613 . S
N781 C784 1.350 . S
N782 S780 1.610 . S
N782 C783 1.351 . S
C783 C777 1.428 . S
C783 N782 1.351 . S
C783 C784 1.434 . S
C784 C775 1.429 . S
C784 N781 1.350 . S
C784 C783 1.434 . S
C785 C786 1.369 . S
C785 C787 1.419 . S
C785 H789 0.930 . S
C786 C785 1.369 . S
C786 C795 1.429 . S
C787 C785 1.419 . S
C787 C788 1.363 . S
C787 H790 0.929 . S
C788 C787 1.363 . S
C788 C794 1.428 . S
H789 C785 0.930 . S
H790 C787 0.929 . S
S791 N792 1.613 . S
S791 N793 1.610 . S
N792 S791 1.613 . S
N792 C795 1.350 . S
N793 S791 1.610 . S
N793 C794 1.351 . S
C794 C788 1.428 . S
C794 N793 1.351 . S
C794 C795 1.434 . S
C795 C786 1.429 . S
C795 N792 1.350 . S
C795 C794 1.434 . S
C796 C797 1.369 . S
C796 C798 1.419 . S
C796 H800 0.930 . S
C797 C796 1.369 . S
C797 C806 1.429 . S
C798 C796 1.419 . S
C798 C799 1.363 . S
C798 H801 0.929 . S
C799 C798 1.363 . S
C799 C805 1.428 . S
H800 C796 0.930 . S
H801 C798 0.929 . S
S802 N803 1.613 . S
S802 N804 1.610 . S
N803 S802 1.613 . S
N803 C806 1.350 . S
N804 S802 1.610 . S
N804 C805 1.351 . S
C805 C799 1.428 . S
C805 N804 1.351 . S
C805 C806 1.434 . S
C806 C797 1.429 . S
C806 N803 1.350 . S
C806 C805 1.434 . S
C807 C808 1.369 . S
C807 C809 1.419 . S
C807 H811 0.930 . S
C808 C807 1.369 . S
C808 C817 1.429 . S
C809 C807 1.419 . S
C809 C810 1.363 . S
C809 H812 0.929 . S
C810 C809 1.363 . S
C810 C816 1.428 . S
H811 C807 0.930 . S
H812 C809 0.929 . S
S813 N814 1.613 . S
S813 N815 1.610 . S
N814 S813 1.613 . S
N814 C817 1.350 . S
N815 S813 1.610 . S
N815 C816 1.351 . S
C816 C810 1.428 . S
C816 N815 1.351 . S
C816 C817 1.434 . S
C817 C808 1.429 . S
C817 N814 1.350 . S
C817 C816 1.434 . S
C818 C819 1.369 . S
C818 C820 1.419 . S
C818 H822 0.930 . S
C819 C818 1.369 . S
C819 C828 1.429 . S
C820 C818 1.419 . S
C820 C821 1.363 . S
C820 H823 0.929 . S
C821 C820 1.363 . S
C821 C827 1.428 . S
H822 C818 0.930 . S
H823 C820 0.929 . S
S824 N825 1.613 . S
S824 N826 1.610 . S
N825 S824 1.613 . S
N825 C828 1.350 . S
N826 S824 1.610 . S
N826 C827 1.351 . S
C827 C821 1.428 . S
C827 N826 1.351 . S
C827 C828 1.434 . S
C828 C819 1.429 . S
C828 N825 1.350 . S
C828 C827 1.434 . S
C829 C830 1.369 . S
C829 C831 1.419 . S
C829 H833 0.930 . S
C830 C829 1.369 . S
C830 C839 1.429 . S
C831 C829 1.419 . S
C831 C832 1.363 . S
C831 H834 0.929 . S
C832 C831 1.363 . S
C832 C838 1.428 . S
H833 C829 0.930 . S
H834 C831 0.929 . S
S835 N836 1.613 . S
S835 N837 1.610 . S
N836 S835 1.613 . S
N836 C839 1.350 . S
N837 S835 1.610 . S
N837 C838 1.351 . S
C838 C832 1.428 . S
C838 N837 1.351 . S
C838 C839 1.434 . S
C839 C830 1.429 . S
C839 N836 1.350 . S
C839 C838 1.434 . S
C840 C841 1.369 . S
C840 C842 1.419 . S
C840 H844 0.930 . S
C841 C840 1.369 . S
C841 C850 1.429 . S
C842 C840 1.419 . S
C842 C843 1.363 . S
C842 H845 0.929 . S
C843 C842 1.363 . S
C843 C849 1.428 . S
H844 C840 0.930 . S
H845 C842 0.929 . S
S846 N847 1.613 . S
S846 N848 1.610 . S
N847 S846 1.613 . S
N847 C850 1.350 . S
N848 S846 1.610 . S
N848 C849 1.351 . S
C849 C843 1.428 . S
C849 N848 1.351 . S
C849 C850 1.434 . S
C850 C841 1.429 . S
C850 N847 1.350 . S
C850 C849 1.434 . S
C851 C852 1.369 . S
C851 C853 1.419 . S
C851 H855 0.930 . S
C852 C851 1.369 . S
C852 C861 1.429 . S
C853 C851 1.419 . S
C853 C854 1.363 . S
C853 H856 0.929 . S
C854 C853 1.363 . S
C854 C860 1.428 . S
H855 C851 0.930 . S
H856 C853 0.929 . S
S857 N858 1.613 . S
S857 N859 1.610 . S
N858 S857 1.613 . S
N858 C861 1.350 . S
N859 S857 1.610 . S
N859 C860 1.351 . S
C860 C854 1.428 . S
C860 N859 1.351 . S
C860 C861 1.434 . S
C861 C852 1.429 . S
C861 N858 1.350 . S
C861 C860 1.434 . S
C862 C863 1.369 . S
C862 C864 1.419 . S
C862 H866 0.930 . S
C863 C862 1.369 . S
C863 C872 1.429 . S
C864 C862 1.419 . S
C864 C865 1.363 . S
C864 H867 0.929 . S
C865 C864 1.363 . S
C865 C871 1.428 . S
H866 C862 0.930 . S
H867 C864 0.929 . S
S868 N869 1.613 . S
S868 N870 1.610 . S
N869 S868 1.613 . S
N869 C872 1.350 . S
N870 S868 1.610 . S
N870 C871 1.351 . S
C871 C865 1.428 . S
C871 N870 1.351 . S
C871 C872 1.434 . S
C872 C863 1.429 . S
C872 N869 1.350 . S
C872 C871 1.434 . S
C873 C874 1.369 . S
C873 C875 1.419 . S
C873 H877 0.930 . S
C874 C873 1.369 . S
C874 C883 1.429 . S
C875 C873 1.419 . S
C875 C876 1.363 . S
C875 H878 0.929 . S
C876 C875 1.363 . S
C876 C882 1.428 . S
H877 C873 0.930 . S
H878 C875 0.929 . S
S879 N880 1.613 . S
S879 N881 1.610 . S
N880 S879 1.613 . S
N880 C883 1.350 . S
N881 S879 1.610 . S
N881 C882 1.351 . S
C882 C876 1.428 . S
C882 N881 1.351 . S
C882 C883 1.434 . S
C883 C874 1.429 . S
C883 N880 1.350 . S
C883 C882 1.434 . S
C884 C885 1.369 . S
C884 C886 1.419 . S
C884 H888 0.930 . S
C885 C884 1.369 . S
C885 C894 1.429 . S
C886 C884 1.419 . S
C886 C887 1.363 . S
C886 H889 0.929 . S
C887 C886 1.363 . S
C887 C893 1.428 . S
H888 C884 0.930 . S
H889 C886 0.929 . S
S890 N891 1.613 . S
S890 N892 1.610 . S
N891 S890 1.613 . S
N891 C894 1.350 . S
N892 S890 1.610 . S
N892 C893 1.351 . S
C893 C887 1.428 . S
C893 N892 1.351 . S
C893 C894 1.434 . S
C894 C885 1.429 . S
C894 N891 1.350 . S
C894 C893 1.434 . S
C895 C896 1.369 . S
C895 C897 1.419 . S
C895 H899 0.930 . S
C896 C895 1.369 . S
C896 C905 1.429 . S
C897 C895 1.419 . S
C897 C898 1.363 . S
C897 H900 0.929 . S
C898 C897 1.363 . S
C898 C904 1.428 . S
H899 C895 0.930 . S
H900 C897 0.929 . S
S901 N902 1.613 . S
S901 N903 1.610 . S
N902 S901 1.613 . S
N902 C905 1.350 . S
N903 S901 1.610 . S
N903 C904 1.351 . S
C904 C898 1.428 . S
C904 N903 1.351 . S
C904 C905 1.434 . S
C905 C896 1.429 . S
C905 N902 1.350 . S
C905 C904 1.434 . S
C906 C907 1.369 1_655 S
C906 C908 1.419 1_545 S
C906 H910 0.930 . S
C907 C906 1.369 1_455 S
C907 C916 1.429 . S
C908 C906 1.419 1_565 S
C908 C909 1.363 . S
C908 H911 0.929 . S
C909 C908 1.363 . S
C909 C915 1.428 1_655 S
H910 C906 0.930 . S
H911 C908 0.929 . S
S912 N913 1.598 1_565 S
S912 N914 1.610 . S
N913 S912 1.598 1_545 S
N913 C916 1.351 . S
N914 S912 1.610 . S
N914 C915 1.351 . S
C915 C909 1.428 1_455 S
C915 N914 1.351 . S
C915 C916 1.434 1_565 S
C916 C907 1.429 . S
C916 N913 1.351 . S
C916 C915 1.434 1_545 S
C917 C918 1.369 . S
C917 C919 1.419 1_645 S
C917 H921 0.930 . S
C918 C917 1.369 . S
C918 C927 1.429 . S
C919 C917 1.419 1_465 S
C919 C920 1.363 . S
C919 H922 0.929 . S
C920 C919 1.363 . S
C920 C926 1.428 . S
H921 C917 0.930 . S
H922 C919 0.929 . S
S923 N924 1.613 1_565 S
S923 N925 1.610 1_655 S
N924 S923 1.613 1_545 S
N924 C927 1.350 . S
N925 S923 1.610 1_455 S
N925 C926 1.351 . S
C926 C920 1.428 . S
C926 N925 1.351 . S
C926 C927 1.434 1_465 S
C927 C918 1.429 . S
C927 N924 1.350 . S
C927 C926 1.434 1_645 S
C928 C929 1.369 . S
C928 C930 1.427 1_556 S
C928 H932 0.930 . S
C929 C928 1.369 . S
C929 C938 1.429 1_565 S
C930 C928 1.427 1_554 S
C930 C931 1.354 1_565 S
C930 H933 0.930 . S
C931 C930 1.354 1_545 S
C931 C937 1.428 . S
H932 C928 0.930 . S
H933 C930 0.930 . S
S934 N935 1.613 . S
S934 N936 1.610 1_556 S
N935 S934 1.613 . S
N935 C938 1.350 . S
N936 S934 1.610 1_554 S
N936 C937 1.351 . S
C937 C931 1.428 . S
C937 N936 1.351 . S
C937 C938 1.434 1_554 S
C938 C929 1.429 1_545 S
C938 N935 1.350 . S
C938 C937 1.434 1_556 S
C939 C940 1.369 1_545 S
C939 C941 1.419 1_554 S
C939 H943 0.930 . S
C940 C939 1.369 1_565 S
C940 C949 1.420 1_554 S
C941 C939 1.419 1_556 S
C941 C942 1.363 . S
C941 H944 0.930 . S
C942 C941 1.363 . S
C942 C948 1.428 1_545 S
H943 C939 0.930 . S
H944 C941 0.930 . S
S945 N946 1.613 . S
S945 N947 1.610 . S
N946 S945 1.613 . S
N946 C949 1.351 . S
N947 S945 1.610 . S
N947 C948 1.351 . S
C948 C942 1.428 1_565 S
C948 N947 1.351 . S
C948 C949 1.442 . S
C949 C940 1.420 1_556 S
C949 N946 1.351 . S
C949 C948 1.442 . S
C950 C951 1.369 . S
C950 C952 1.419 1_655 S
C950 H954 0.930 . S
C951 C950 1.369 . S
C951 C960 1.429 1_556 S
C952 C950 1.419 1_455 S
C952 C953 1.363 1_556 S
C952 H955 0.929 . S
C953 C952 1.363 1_554 S
C953 C959 1.453 . S
H954 C950 0.930 . S
H955 C952 0.929 . S
S956 N957 1.613 . S
S956 N958 1.610 . S
N957 S956 1.613 . S
N957 C960 1.350 . S
N958 S956 1.610 . S
N958 C959 1.348 1_655 S
C959 C953 1.453 . S
C959 N958 1.348 1_455 S
C959 C960 1.410 1_455 S
C960 C951 1.429 1_554 S
C960 N957 1.350 . S
C960 C959 1.410 1_655 S
C961 C962 1.369 1_554 S
C961 C963 1.419 1_455 S
C961 H965 0.930 . S
C962 C961 1.369 1_556 S
C962 C971 1.440 . S
C963 C961 1.419 1_655 S
C963 C964 1.363 . S
C963 H966 0.929 . S
C964 C963 1.363 . S
C964 C970 1.428 1_554 S
H965 C961 0.930 . S
H966 C963 0.929 . S
S967 N968 1.613 . S
S967 N969 1.610 . S
N968 S967 1.613 . S
N968 C971 1.348 1_655 S
N969 S967 1.610 . S
N969 C970 1.351 . S
C970 C964 1.428 1_556 S
C970 N969 1.351 . S
C970 C971 1.423 1_655 S
C971 C962 1.440 . S
C971 N968 1.348 1_455 S
C971 C970 1.423 1_455 S
C709 C182 1.219 . S
C711 C5 1.213 . S
C720 C123 1.221 . S
C722 C64 1.218 . S
C731 C300 1.212 . S
C733 C241 1.218 . S
C742 C359 1.218 . S
C744 C418 1.220 . S
C753 C536 1.220 . S
C755 C477 1.214 . S
C764 C595 1.220 . S
C766 C654 1.214 . S
C775 C52 1.351 . S
C777 C446 1.276 . S
C786 C387 1.281 . S
C788 C111 1.352 . S
C797 C328 1.279 . S
C799 C170 1.350 . S
C808 C269 1.274 . S
C810 C229 1.353 . S
C819 C288 1.354 . S
C821 C682 1.272 . S
C830 C505 1.282 . S
C832 C347 1.352 . S
C841 C623 1.274 . S
C843 C406 1.353 . S
C852 C465 1.353 . S
C854 C564 1.277 . S
C863 C151 1.270 . S
C865 C524 1.353 . S
C874 C33 1.280 . S
C876 C583 1.352 . S
C885 C642 1.350 . S
C887 C92 1.279 . S
C896 C210 1.283 . S
C898 C701 1.351 . S
C907 C3 1.322 . S
C909 C62 1.324 . S
C918 C180 1.324 . S
C920 C121 1.324 . S
C929 C357 1.325 . S
C931 C239 1.323 . S
C940 C298 1.323 . S
C942 C416 1.324 . S
C951 C593 1.324 . S
C953 C475 1.323 . S
C962 C534 1.322 . S
C964 C652 1.324 . S
