# Generated by pormake.
# Topology yfg, (5)-cn, num edge types: 1
# Building blocks:
#     Node 0, Type 0, BuildingBlock: XOMCOT_clean_sbu_1, # of connection points: 5
#     Node 1, Type 0, BuildingBlock: XOMCOT_clean_sbu_1, # of connection points: 5
#     Node 2, Type 0, BuildingBlock: XOMCOT_clean_sbu_1, # of connection points: 5
#     Node 3, Type 0, BuildingBlock: XOMCOT_clean_sbu_1, # of connection points: 5
#     Node 4, Type 0, BuildingBlock: XOMCOT_clean_sbu_1, # of connection points: 5
#     Node 5, Type 0, BuildingBlock: XOMCOT_clean_sbu_1, # of connection points: 5
#     Node 6, Type 0, BuildingBlock: XOMCOT_clean_sbu_1, # of connection points: 5
#     Node 7, Type 0, BuildingBlock: XOMCOT_clean_sbu_1, # of connection points: 5
#     Edge 8, Type (0, 0), BuildingBlock: XIVTED_clean_linker_0, # of connection points: 2
#     Edge 9, Type (0, 0), BuildingBlock: XIVTED_clean_linker_0, # of connection points: 2
#     Edge 10, Type (0, 0), BuildingBlock: XIVTED_clean_linker_0, # of connection points: 2
#     Edge 11, Type (0, 0), BuildingBlock: XIVTED_clean_linker_0, # of connection points: 2
#     Edge 12, Type (0, 0), BuildingBlock: XIVTED_clean_linker_0, # of connection points: 2
#     Edge 13, Type (0, 0), BuildingBlock: XIVTED_clean_linker_0, # of connection points: 2
#     Edge 14, Type (0, 0), BuildingBlock: XIVTED_clean_linker_0, # of connection points: 2
#     Edge 15, Type (0, 0), BuildingBlock: XIVTED_clean_linker_0, # of connection points: 2
#     Edge 16, Type (0, 0), BuildingBlock: XIVTED_clean_linker_0, # of connection points: 2
#     Edge 17, Type (0, 0), BuildingBlock: XIVTED_clean_linker_0, # of connection points: 2
#     Edge 18, Type (0, 0), BuildingBlock: XIVTED_clean_linker_0, # of connection points: 2
#     Edge 19, Type (0, 0), BuildingBlock: XIVTED_clean_linker_0, # of connection points: 2
#     Edge 20, Type (0, 0), BuildingBlock: XIVTED_clean_linker_0, # of connection points: 2
#     Edge 21, Type (0, 0), BuildingBlock: XIVTED_clean_linker_0, # of connection points: 2
#     Edge 22, Type (0, 0), BuildingBlock: XIVTED_clean_linker_0, # of connection points: 2
#     Edge 23, Type (0, 0), BuildingBlock: XIVTED_clean_linker_0, # of connection points: 2
#     Edge 24, Type (0, 0), BuildingBlock: XIVTED_clean_linker_0, # of connection points: 2
#     Edge 25, Type (0, 0), BuildingBlock: XIVTED_clean_linker_0, # of connection points: 2
#     Edge 26, Type (0, 0), BuildingBlock: XIVTED_clean_linker_0, # of connection points: 2
#     Edge 27, Type (0, 0), BuildingBlock: XIVTED_clean_linker_0, # of connection points: 2
# Relax obj value: 0.434
# Max RMSD: 0.202
# Mean RMSD: 0.202
data_MOF--net-yfg--node1-XOMCOT_clean_sbu_1--edge1-XIVTED_clean_linker_0
_symmetry_space_group_name_H-M    P1
_symmetry_Int_Tables_number       1
_symmetry_cell_setting            triclinic
loop_
_symmetry_equiv_pos_as_xyz
'x, y, z'
_cell_length_a     35.66824
_cell_length_b     35.689913
_cell_length_c     39.754663
_cell_angle_alpha  90.050407
_cell_angle_beta   90.219822
_cell_angle_gamma 90.013326
loop_
_atom_site_label
_atom_site_type_symbol
_atom_site_fract_x
_atom_site_fract_y
_atom_site_fract_z
_atom_type_partial_charge
C0 C 0.19404 0.51962 0.07426 0.0
C1 C 0.18444 0.52271 0.10762 0.0
N2 N 0.21179 0.50675 0.12609 0.0
N3 N 0.22736 0.50198 0.07184 0.0
C4 C 0.23744 0.49438 0.10388 0.0
H5 H 0.17849 0.53075 0.0531 0.0
Co6 Co 0.25428 0.49751 0.03216 0.0
C7 C 0.29476 0.42355 0.04472 0.0
O8 O 0.28282 0.40658 0.01742 0.0
N9 N 0.28134 0.49508 0.99133 0.0
C10 C 0.30017 0.48261 0.93904 0.0
C11 C 0.28113 0.46905 0.96657 0.0
C12 C 0.30074 0.5241 0.97803 0.0
N13 N 0.3125 0.51728 0.94642 0.0
O14 O 0.29055 0.53081 0.05039 0.0
H15 H 0.26571 0.44304 0.96716 0.0
H16 H 0.30404 0.55094 0.99026 0.0
O17 O 0.28393 0.45681 0.05139 0.0
C18 C 0.28196 0.56513 0.05411 0.0
O19 O 0.24968 0.57722 0.04234 0.0
N20 N 0.21646 0.46628 0.01505 0.0
C21 C 0.14296 0.44375 1.00207 0.0
C22 C 0.16459 0.42534 0.0266 0.0
C23 C 0.2015 0.43712 0.03279 0.0
C24 C 0.19695 0.48211 0.98921 0.0
C25 C 0.16049 0.47073 0.98184 0.0
H26 H 0.21625 0.42586 0.05431 0.0
H27 H 0.20836 0.50616 0.97626 0.0
H28 H 0.26395 0.48203 0.11098 0.0
H29 H 0.15967 0.53619 0.11762 0.0
H30 H 0.3034 0.46866 0.91505 0.0
H31 H 0.15208 0.40469 0.04305 0.0
H32 H 0.14507 0.4853 0.96232 0.0
C33 C 0.49983 0.18983 0.32384 0.0
C34 C 0.49843 0.1797 0.35708 0.0
N35 N 0.50915 0.20931 0.37591 0.0
N36 N 0.51171 0.22554 0.32155 0.0
C37 C 0.51697 0.23685 0.35366 0.0
H38 H 0.49172 0.17262 0.30261 0.0
Co39 Co 0.51364 0.25183 0.28137 0.0
C40 C 0.58629 0.29505 0.29417 0.0
O41 O 0.60544 0.28067 0.26917 0.0
N42 N 0.51346 0.27806 0.24021 0.0
C43 C 0.52434 0.29941 0.18845 0.0
C44 C 0.53968 0.28131 0.21592 0.0
C45 C 0.48259 0.29432 0.22677 0.0
N46 N 0.48841 0.30767 0.19551 0.0
O47 O 0.47851 0.28628 0.29928 0.0
H48 H 0.56752 0.26951 0.21709 0.0
H49 H 0.45555 0.29474 0.23891 0.0
O50 O 0.55262 0.28456 0.29955 0.0
C51 C 0.44499 0.2761 0.30502 0.0
O52 O 0.43403 0.24251 0.29563 0.0
N53 N 0.54731 0.21584 0.26463 0.0
C54 C 0.57784 0.14514 0.25223 0.0
C55 C 0.59342 0.16871 0.27687 0.0
C56 C 0.57754 0.20385 0.2829 0.0
C57 C 0.53353 0.19448 0.23897 0.0
C58 C 0.54862 0.15917 0.23211 0.0
H59 H 0.58701 0.21948 0.3046 0.0
H60 H 0.50847 0.20328 0.22578 0.0
H61 H 0.5256 0.26491 0.36051 0.0
H62 H 0.48879 0.15301 0.36659 0.0
H63 H 0.5383 0.30538 0.16493 0.0
H64 H 0.61598 0.15905 0.29297 0.0
H65 H 0.53522 0.14179 0.21323 0.0
C66 C 0.81749 0.49096 0.57638 0.0
C67 C 0.82768 0.48753 0.60954 0.0
N68 N 0.79807 0.49693 0.62884 0.0
N69 N 0.78182 0.50311 0.57454 0.0
C70 C 0.77056 0.50631 0.60683 0.0
H71 H 0.83483 0.48463 0.55485 0.0
Co72 Co 0.75529 0.50827 0.53444 0.0
C73 C 0.71841 0.58322 0.55248 0.0
O74 O 0.73742 0.60401 0.53128 0.0
N75 N 0.72862 0.51083 0.49371 0.0
C76 C 0.69136 0.52404 0.45027 0.0
C77 C 0.7099 0.53859 0.47783 0.0
C78 C 0.72163 0.47999 0.47488 0.0
N79 N 0.69876 0.48711 0.44853 0.0
O80 O 0.71949 0.47371 0.55076 0.0
H81 H 0.70868 0.56735 0.48581 0.0
H82 H 0.73186 0.45237 0.4813 0.0
O83 O 0.72435 0.54795 0.5543 0.0
C84 C 0.72809 0.43936 0.55406 0.0
O85 O 0.76106 0.42775 0.54371 0.0
N86 N 0.79256 0.54135 0.51861 0.0
C87 C 0.86446 0.5691 0.50593 0.0
C88 C 0.8432 0.58297 0.5328 0.0
C89 C 0.80763 0.56835 0.53903 0.0
C90 C 0.81153 0.52974 0.49077 0.0
C91 C 0.84747 0.54338 0.48386 0.0
H92 H 0.79402 0.57593 0.56229 0.0
H93 H 0.80048 0.50708 0.47564 0.0
H94 H 0.74234 0.51402 0.61389 0.0
H95 H 0.85491 0.47865 0.61852 0.0
H96 H 0.67341 0.53937 0.43311 0.0
H97 H 0.85495 0.60303 0.55037 0.0
H98 H 0.86292 0.53136 0.46309 0.0
C99 C 0.51066 0.82018 0.82456 0.0
C100 C 0.51177 0.83094 0.8577 0.0
N101 N 0.5009 0.80168 0.87678 0.0
N102 N 0.49882 0.78442 0.82259 0.0
C103 C 0.49332 0.77374 0.85478 0.0
H104 H 0.51875 0.83704 0.80319 0.0
Co105 Co 0.49655 0.7574 0.78272 0.0
C106 C 0.42441 0.71358 0.7977 0.0
O107 O 0.40336 0.72839 0.77405 0.0
N108 N 0.49665 0.73052 0.74205 0.0
C109 C 0.48465 0.69971 0.69443 0.0
C110 C 0.46912 0.71907 0.72099 0.0
C111 C 0.52859 0.71887 0.72708 0.0
N112 N 0.52212 0.69974 0.69837 0.0
O113 O 0.53239 0.72361 0.80059 0.0
H114 H 0.43977 0.7252 0.7238 0.0
H115 H 0.55628 0.7241 0.73719 0.0
O116 O 0.45832 0.72428 0.80164 0.0
C117 C 0.5661 0.73332 0.80628 0.0
O118 O 0.57729 0.76701 0.79756 0.0
N119 N 0.46201 0.79243 0.76574 0.0
C120 C 0.43154 0.86321 0.75362 0.0
C121 C 0.41658 0.8399 0.77861 0.0
C122 C 0.43247 0.80475 0.78453 0.0
C123 C 0.47471 0.81323 0.7394 0.0
C124 C 0.45972 0.84866 0.73276 0.0
H125 H 0.42381 0.78953 0.80665 0.0
H126 H 0.49916 0.80409 0.72564 0.0
H127 H 0.48455 0.74589 0.86188 0.0
H128 H 0.52116 0.85787 0.86698 0.0
H129 H 0.46965 0.68742 0.67342 0.0
H130 H 0.39467 0.84981 0.79517 0.0
H131 H 0.47257 0.86574 0.71348 0.0
C132 C 0.19601 0.48084 0.42687 0.0
C133 C 0.18676 0.47721 0.39342 0.0
N134 N 0.21355 0.49419 0.37521 0.0
N135 N 0.22858 0.49979 0.42961 0.0
C136 C 0.23858 0.50769 0.39766 0.0
H137 H 0.18071 0.46933 0.44791 0.0
Co138 Co 0.25432 0.50563 0.46993 0.0
C139 C 0.29171 0.58071 0.45251 0.0
O140 O 0.27338 0.60153 0.47419 0.0
N141 N 0.28021 0.50873 0.51108 0.0
C142 C 0.31643 0.52217 0.55522 0.0
C143 C 0.29812 0.53665 0.52755 0.0
C144 C 0.2874 0.47785 0.52975 0.0
N145 N 0.30969 0.4851 0.55648 0.0
O146 O 0.29092 0.47161 0.45413 0.0
H147 H 0.29898 0.56551 0.51997 0.0
H148 H 0.2778 0.4501 0.52294 0.0
O149 O 0.28502 0.5456 0.45033 0.0
C150 C 0.28352 0.43696 0.45101 0.0
O151 O 0.25102 0.42423 0.46147 0.0
N152 N 0.21642 0.53819 0.48497 0.0
C153 C 0.14451 0.56634 0.49675 0.0
C154 C 0.16627 0.58005 0.47015 0.0
C155 C 0.2019 0.56526 0.46441 0.0
C156 C 0.19683 0.52645 0.51239 0.0
C157 C 0.16089 0.54033 0.51888 0.0
H158 H 0.21618 0.57307 0.44155 0.0
H159 H 0.20754 0.50372 0.5276 0.0
H160 H 0.26449 0.52138 0.39083 0.0
H161 H 0.16254 0.4628 0.38319 0.0
H162 H 0.33382 0.53763 0.57277 0.0
H163 H 0.15498 0.6003 0.45255 0.0
H164 H 0.14502 0.5284 0.53941 0.0
C165 C 0.51384 0.18928 0.67843 0.0
C166 C 0.51514 0.17891 0.64525 0.0
N167 N 0.50323 0.20797 0.62638 0.0
N168 N 0.50085 0.22461 0.68066 0.0
C169 C 0.49485 0.23548 0.64854 0.0
H170 H 0.52259 0.17247 0.69968 0.0
Co171 Co 0.49788 0.25045 0.72105 0.0
C172 C 0.42479 0.29272 0.70841 0.0
O173 O 0.40594 0.27797 0.73341 0.0
N174 N 0.49701 0.27619 0.76252 0.0
C175 C 0.48517 0.29631 0.81455 0.0
C176 C 0.47062 0.27805 0.78679 0.0
C177 C 0.5272 0.29344 0.77629 0.0
N178 N 0.52078 0.30606 0.80773 0.0
O179 O 0.53254 0.28584 0.70386 0.0
H180 H 0.44328 0.26517 0.78541 0.0
H181 H 0.55426 0.29504 0.76426 0.0
O182 O 0.45855 0.28268 0.70284 0.0
C183 C 0.56633 0.27666 0.69808 0.0
O184 O 0.57812 0.24318 0.7069 0.0
N185 N 0.46462 0.21364 0.73695 0.0
C186 C 0.43461 0.14241 0.74793 0.0
C187 C 0.41901 0.16634 0.72363 0.0
C188 C 0.43465 0.2017 0.71828 0.0
C189 C 0.47847 0.19186 0.76226 0.0
C190 C 0.46366 0.15627 0.76839 0.0
H191 H 0.42517 0.21766 0.69681 0.0
H192 H 0.50335 0.20067 0.77575 0.0
H193 H 0.48507 0.26313 0.64161 0.0
H194 H 0.52538 0.1524 0.63576 0.0
H195 H 0.47091 0.30134 0.83811 0.0
H196 H 0.39653 0.15688 0.70732 0.0
H197 H 0.47708 0.13865 0.78704 0.0
C198 C 0.81595 0.50944 0.93139 0.0
C199 C 0.82633 0.50943 0.89812 0.0
N200 N 0.79607 0.50045 0.87941 0.0
N201 N 0.77949 0.49978 0.93369 0.0
C202 C 0.76801 0.49495 0.90156 0.0
H203 H 0.8337 0.51648 0.95259 0.0
Co204 Co 0.75167 0.49828 0.97324 0.0
C205 C 0.71091 0.42403 0.96108 0.0
O206 O 0.72384 0.40635 0.98761 0.0
N207 N 0.72367 0.49873 0.01347 0.0
C208 C 0.70105 0.48799 0.06476 0.0
C209 C 0.71989 0.47265 0.03786 0.0
C210 C 0.70701 0.52963 0.02636 0.0
N211 N 0.69297 0.52389 0.05741 0.0
O212 O 0.71678 0.53171 0.95334 0.0
H213 H 0.73231 0.44512 0.03749 0.0
H214 H 0.70711 0.55664 0.01411 0.0
O215 O 0.72127 0.45756 0.95494 0.0
C216 C 0.72652 0.56538 0.94768 0.0
O217 O 0.75965 0.57693 0.95789 0.0
N218 N 0.78807 0.46665 0.99246 0.0
C219 C 0.86098 0.44431 0.00804 0.0
C220 C 0.84025 0.42536 0.98318 0.0
C221 C 0.80355 0.43695 0.97578 0.0
C222 C 0.80645 0.48265 0.01892 0.0
C223 C 0.84255 0.47132 0.0276 0.0
H224 H 0.7897 0.42538 0.95389 0.0
H225 H 0.79471 0.50697 0.03122 0.0
H226 H 0.73953 0.48806 0.89453 0.0
H227 H 0.85372 0.51656 0.88839 0.0
H228 H 0.69483 0.4741 0.08828 0.0
H229 H 0.8534 0.40456 0.96727 0.0
H230 H 0.85717 0.48617 0.04749 0.0
C231 C 0.49109 0.82289 0.17987 0.0
C232 C 0.48943 0.83362 0.14677 0.0
N233 N 0.50029 0.80446 0.12755 0.0
N234 N 0.50329 0.78724 0.1817 0.0
C235 C 0.50836 0.77658 0.14943 0.0
H236 H 0.48313 0.83974 0.20131 0.0
Co237 Co 0.50687 0.76052 0.22164 0.0
C238 C 0.57679 0.71359 0.21114 0.0
O239 O 0.59102 0.72039 0.241 0.0
N240 N 0.5084 0.73399 0.26304 0.0
C241 C 0.51909 0.71729 0.31634 0.0
C242 C 0.53293 0.73645 0.28902 0.0
C243 C 0.47989 0.71314 0.27552 0.0
N244 N 0.48567 0.70265 0.30772 0.0
O245 O 0.47194 0.72551 0.20411 0.0
H246 H 0.55833 0.75297 0.28909 0.0
H247 H 0.45398 0.70779 0.26221 0.0
O248 O 0.54593 0.72884 0.20225 0.0
C249 C 0.43798 0.73439 0.19854 0.0
O250 O 0.42601 0.76775 0.20745 0.0
N251 N 0.54045 0.79683 0.23778 0.0
C252 C 0.57268 0.86686 0.2496 0.0
C253 C 0.58867 0.84194 0.22638 0.0
C254 C 0.57204 0.80698 0.22073 0.0
C255 C 0.52586 0.81973 0.26184 0.0
C256 C 0.54181 0.85469 0.26846 0.0
H257 H 0.58241 0.78989 0.20037 0.0
H258 H 0.49988 0.81213 0.27401 0.0
H259 H 0.51716 0.74878 0.14219 0.0
H260 H 0.47975 0.86048 0.13762 0.0
H261 H 0.53198 0.7154 0.34097 0.0
H262 H 0.61244 0.85027 0.21125 0.0
H263 H 0.52809 0.87321 0.28615 0.0
H264 H 0.20015 0.43743 0.332 0.0
H265 H 0.1956 0.56274 0.16933 0.0
H266 H 0.23249 0.5536 0.33681 0.0
H267 H 0.23397 0.44844 0.16452 0.0
H268 H 0.19904 0.56001 0.23105 0.0
H269 H 0.20256 0.4404 0.27029 0.0
C270 C 0.20769 0.46353 0.31992 0.0
C271 C 0.21603 0.49537 0.33921 0.0
C272 C 0.20685 0.53562 0.21642 0.0
C273 C 0.21831 0.49913 0.26918 0.0
C274 C 0.20463 0.53709 0.1814 0.0
C275 C 0.21439 0.5057 0.16211 0.0
C276 C 0.21792 0.50221 0.23214 0.0
C277 C 0.22635 0.47317 0.17871 0.0
C278 C 0.2093 0.46515 0.28491 0.0
C279 C 0.22602 0.52851 0.32261 0.0
N280 N 0.22731 0.47205 0.21289 0.0
N281 N 0.22639 0.52973 0.28842 0.0
H282 H 0.50324 0.27145 0.41573 0.0
H283 H 0.49548 0.1492 0.58385 0.0
H284 H 0.51621 0.15125 0.41932 0.0
H285 H 0.50771 0.26951 0.58582 0.0
H286 H 0.49765 0.15065 0.52283 0.0
H287 H 0.50098 0.2726 0.47736 0.0
C288 C 0.5059 0.24536 0.42936 0.0
C289 C 0.50965 0.21113 0.41217 0.0
C290 C 0.49992 0.1768 0.53652 0.0
C291 C 0.50645 0.21227 0.48256 0.0
C292 C 0.49879 0.17598 0.57148 0.0
C293 C 0.50189 0.20922 0.59014 0.0
C294 C 0.504 0.21116 0.51979 0.0
C295 C 0.50507 0.2432 0.5725 0.0
C296 C 0.50438 0.24605 0.46454 0.0
C297 C 0.51254 0.1782 0.43128 0.0
N298 N 0.50617 0.2433 0.53825 0.0
N299 N 0.51073 0.17961 0.46532 0.0
H300 H 0.84491 0.45968 0.67155 0.0
H301 H 0.73685 0.51787 0.83912 0.0
H302 H 0.7468 0.53068 0.66993 0.0
H303 H 0.85108 0.47844 0.83728 0.0
H304 H 0.73545 0.51579 0.77736 0.0
H305 H 0.84305 0.45957 0.73249 0.0
C306 C 0.82305 0.47552 0.68381 0.0
C307 C 0.79625 0.49566 0.66516 0.0
C308 C 0.76077 0.50759 0.79054 0.0
C309 C 0.79362 0.49491 0.73564 0.0
C310 C 0.7615 0.50851 0.82572 0.0
C311 C 0.79419 0.4984 0.84327 0.0
C312 C 0.79279 0.49595 0.77292 0.0
C313 C 0.82549 0.48689 0.82471 0.0
C314 C 0.82194 0.47523 0.71881 0.0
C315 C 0.76801 0.51464 0.683 0.0
N316 N 0.82398 0.48587 0.7906 0.0
N317 N 0.76746 0.51383 0.71725 0.0
H318 H 0.50463 0.74008 0.91739 0.0
H319 H 0.50712 0.86356 0.08519 0.0
H320 H 0.49409 0.86059 0.91951 0.0
H321 H 0.49648 0.74306 0.0866 0.0
H322 H 0.50633 0.86209 0.02412 0.0
H323 H 0.50462 0.73965 0.97896 0.0
C324 C 0.50205 0.76642 0.93066 0.0
C325 C 0.49959 0.80048 0.91305 0.0
C326 C 0.5041 0.83591 0.03772 0.0
C327 C 0.50012 0.80015 0.98354 0.0
C328 C 0.50439 0.83675 0.07273 0.0
C329 C 0.5015 0.80343 0.09127 0.0
C330 C 0.50107 0.80149 0.02084 0.0
C331 C 0.49902 0.76944 0.07347 0.0
C332 C 0.50226 0.76614 0.96585 0.0
C333 C 0.49677 0.83372 0.9318 0.0
N334 N 0.49879 0.76935 0.03922 0.0
N335 N 0.49723 0.83269 0.96591 0.0
H336 H 0.09873 0.37993 0.00743 0.0
H337 H 0.91064 0.5016 0.01453 0.0
H338 H 0.09214 0.50012 0.99701 0.0
H339 H 0.90664 0.38136 0.00301 0.0
H340 H 0.97829 0.49919 0.01349 0.0
H341 H 0.02963 0.37754 0.00987 0.0
C342 C 0.08285 0.40568 0.0054 0.0
C343 C 0.10135 0.44022 1.00147 0.0
C344 C 0.96286 0.47316 0.01133 0.0
C345 C 0.02278 0.43772 0.00473 0.0
C346 C 0.92398 0.47445 0.01239 0.0
C347 C 0.90266 0.44154 0.00944 0.0
C348 C 0.98118 0.43871 0.00711 0.0
C349 C 0.92194 0.40742 0.00546 0.0
C350 C 0.04351 0.40428 0.00674 0.0
C351 C 0.07935 0.47273 0.99917 0.0
N352 N 0.96022 0.40683 0.00448 0.0
N353 N 0.04151 0.47064 1.00093 0.0
H354 H 0.58653 0.09989 0.19659 0.0
H355 H 0.58183 0.91193 0.30513 0.0
H356 H 0.59036 0.09765 0.30509 0.0
H357 H 0.58872 0.9133 0.19681 0.0
H358 H 0.59117 0.97984 0.3057 0.0
H359 H 0.59339 0.03163 0.19599 0.0
C360 C 0.58929 0.08513 0.22026 0.0
C361 C 0.58777 0.10464 0.25091 0.0
C362 C 0.59118 0.96524 0.28181 0.0
C363 C 0.59538 0.02641 0.25046 0.0
C364 C 0.5858 0.92646 0.2815 0.0
C365 C 0.58435 0.90687 0.2509 0.0
C366 C 0.59469 0.98474 0.25127 0.0
C367 C 0.58998 0.92713 0.22103 0.0
C368 C 0.59329 0.04615 0.21992 0.0
C369 C 0.59181 0.08399 0.28082 0.0
N370 N 0.59443 0.96496 0.22194 0.0
N371 N 0.59499 0.04606 0.27984 0.0
H372 H 0.10115 0.57783 0.55312 0.0
H373 H 0.90792 0.57969 0.44942 0.0
H374 H 0.09438 0.57374 0.44471 0.0
H375 H 0.91489 0.57556 0.55782 0.0
H376 H 0.97628 0.58521 0.44713 0.0
H377 H 0.03295 0.58473 0.55529 0.0
C378 C 0.08543 0.57869 0.52977 0.0
C379 C 0.10371 0.57512 0.49871 0.0
C380 C 0.96276 0.58352 0.47143 0.0
C381 C 0.02549 0.58303 0.50099 0.0
C382 C 0.92371 0.58028 0.47274 0.0
C383 C 0.90542 0.57713 0.50383 0.0
C384 C 0.9838 0.58345 0.50142 0.0
C385 C 0.92748 0.57848 0.53324 0.0
C386 C 0.04647 0.58273 0.53102 0.0
C387 C 0.08177 0.5769 0.46926 0.0
N388 N 0.96539 0.58125 0.53128 0.0
N389 N 0.0439 0.58043 0.47115 0.0
H390 H 0.42117 0.09569 0.6945 0.0
H391 H 0.42036 0.91041 0.80701 0.0
H392 H 0.42644 0.09629 0.803 0.0
H393 H 0.42288 0.90934 0.69844 0.0
H394 H 0.41332 0.97825 0.80586 0.0
H395 H 0.41262 0.02793 0.69558 0.0
C396 C 0.41974 0.08174 0.71864 0.0
C397 C 0.42456 0.1019 0.74875 0.0
C398 C 0.41496 0.9632 0.78225 0.0
C399 C 0.41558 0.02383 0.75005 0.0
C400 C 0.4186 0.92428 0.78283 0.0
C401 C 0.4222 0.90391 0.75272 0.0
C402 C 0.41506 0.98218 0.75135 0.0
C403 C 0.42062 0.92382 0.72228 0.0
C404 C 0.41521 0.04289 0.71918 0.0
C405 C 0.42327 0.08194 0.77916 0.0
N406 N 0.41742 0.96183 0.72239 0.0
N407 N 0.41914 0.04403 0.77901 0.0
H408 H 0.36673 0.7473 0.17558 0.0
H409 H 0.35035 0.54928 0.08208 0.0
H410 H 0.45399 0.66344 0.17704 0.0
H411 H 0.26845 0.63773 0.07223 0.0
H412 H 0.38792 0.58993 0.11837 0.0
H413 H 0.32884 0.70619 0.13995 0.0
C414 C 0.37781 0.72013 0.16862 0.0
C415 C 0.41358 0.7088 0.17923 0.0
C416 C 0.3618 0.60049 0.10817 0.0
C417 C 0.37054 0.66177 0.1383 0.0
C418 C 0.34038 0.57734 0.08737 0.0
C419 C 0.30623 0.59017 0.07409 0.0
C420 C 0.34888 0.63666 0.11585 0.0
C421 C 0.29464 0.62672 0.08186 0.0
C422 C 0.35625 0.69675 0.14815 0.0
C423 C 0.42657 0.67334 0.16938 0.0
N424 N 0.31587 0.64865 0.10233 0.0
N425 N 0.40507 0.65111 0.1494 0.0
H426 H 0.37422 0.26041 0.3272 0.0
H427 H 0.3526 0.45445 0.42596 0.0
H428 H 0.45945 0.34636 0.32925 0.0
H429 H 0.27221 0.3642 0.43182 0.0
H430 H 0.39183 0.41553 0.38994 0.0
H431 H 0.33544 0.29894 0.36403 0.0
C432 C 0.38467 0.2875 0.3352 0.0
C433 C 0.42011 0.3002 0.32515 0.0
C434 C 0.36571 0.40416 0.39924 0.0
C435 C 0.37604 0.34427 0.36749 0.0
C436 C 0.34334 0.42632 0.41989 0.0
C437 C 0.30905 0.41254 0.43187 0.0
C438 C 0.35363 0.36803 0.39035 0.0
C439 C 0.29845 0.37594 0.42317 0.0
C440 C 0.3626 0.3094 0.35637 0.0
C441 C 0.43229 0.33547 0.33637 0.0
N442 N 0.32058 0.35499 0.40278 0.0
N443 N 0.41029 0.35625 0.35699 0.0
H444 H 0.55049 0.34739 0.67584 0.0
H445 H 0.74106 0.36646 0.57181 0.0
H446 H 0.63715 0.26291 0.67498 0.0
H447 H 0.65911 0.455 0.58036 0.0
H448 H 0.70198 0.32694 0.60749 0.0
H449 H 0.5892 0.38663 0.63968 0.0
C450 C 0.57778 0.33719 0.66824 0.0
C451 C 0.59064 0.30181 0.67844 0.0
C452 C 0.6925 0.35498 0.60147 0.0
C453 C 0.6349 0.34644 0.63678 0.0
C454 C 0.71471 0.3775 0.58096 0.0
C455 C 0.70335 0.41409 0.57315 0.0
C456 C 0.65867 0.36915 0.61419 0.0
C457 C 0.66898 0.42695 0.58577 0.0
C458 C 0.59982 0.35958 0.64751 0.0
C459 C 0.62617 0.29002 0.66776 0.0
N460 N 0.6479 0.40452 0.60574 0.0
N461 N 0.64702 0.31224 0.6474 0.0
H462 H 0.657 0.54987 0.92203 0.0
H463 H 0.6379 0.74692 0.82761 0.0
H464 H 0.7408 0.63707 0.92719 0.0
H465 H 0.55118 0.66245 0.82839 0.0
H466 H 0.67721 0.70607 0.86218 0.0
H467 H 0.61852 0.59021 0.88642 0.0
C468 C 0.66723 0.57759 0.91582 0.0
C469 C 0.70213 0.59017 0.92763 0.0
C470 C 0.64962 0.69645 0.8547 0.0
C471 C 0.65836 0.63637 0.88667 0.0
C472 C 0.62722 0.7197 0.83486 0.0
C473 C 0.5912 0.70809 0.82516 0.0
C474 C 0.63587 0.66137 0.86485 0.0
C475 C 0.57877 0.67256 0.83532 0.0
C476 C 0.64528 0.60058 0.89541 0.0
C477 C 0.71403 0.62628 0.91869 0.0
N478 N 0.60105 0.6505 0.85468 0.0
N479 N 0.6922 0.6481 0.89867 0.0
H480 H 0.33599 0.35996 0.03246 0.0
H481 H 0.432 0.35383 0.21402 0.0
H482 H 0.31784 0.44513 0.10777 0.0
H483 H 0.48169 0.3006 0.12766 0.0
H484 H 0.38413 0.38151 0.17731 0.0
H485 H 0.38378 0.33159 0.06893 0.0
C486 C 0.34176 0.37256 0.05673 0.0
C487 C 0.3226 0.40496 0.06706 0.0
C488 C 0.40557 0.36385 0.16637 0.0
C489 C 0.37716 0.37247 0.10893 0.0
C490 C 0.43276 0.34795 0.18731 0.0
C491 C 0.46087 0.32496 0.17384 0.0
C492 C 0.40602 0.35622 0.13171 0.0
C493 C 0.46073 0.31847 0.13898 0.0
C494 C 0.3692 0.35645 0.07742 0.0
C495 C 0.33159 0.42013 0.09872 0.0
N496 N 0.43355 0.33378 0.11913 0.0
N497 N 0.358 0.40368 0.11856 0.0
H498 H 0.66113 0.31046 0.30285 0.0
H499 H 0.62889 0.48777 0.42149 0.0
H500 H 0.5514 0.34411 0.33684 0.0
H501 H 0.73202 0.42489 0.4231 0.0
H502 H 0.60158 0.44087 0.38356 0.0
H503 H 0.6892 0.3575 0.34032 0.0
C504 C 0.64294 0.32779 0.31809 0.0
C505 C 0.60384 0.32331 0.31669 0.0
C506 C 0.6302 0.43736 0.39219 0.0
C507 C 0.63579 0.37743 0.35925 0.0
C508 C 0.64588 0.46425 0.41361 0.0
C509 C 0.6828 0.46022 0.42542 0.0
C510 C 0.65178 0.4065 0.38196 0.0
C511 C 0.7034 0.42888 0.41474 0.0
C512 C 0.659 0.3545 0.33955 0.0
C513 C 0.58167 0.34647 0.33716 0.0
N514 N 0.68771 0.40334 0.39344 0.0
N515 N 0.59792 0.37268 0.35738 0.0
H516 H 0.51589 0.63451 0.66384 0.0
H517 H 0.71075 0.65737 0.56864 0.0
H518 H 0.59127 0.72638 0.68364 0.0
H519 H 0.66036 0.54911 0.58564 0.0
H520 H 0.66263 0.68596 0.60416 0.0
H521 H 0.56394 0.60552 0.62814 0.0
C522 C 0.54247 0.64865 0.66046 0.0
C523 C 0.54969 0.68283 0.67671 0.0
C524 C 0.66217 0.65595 0.60013 0.0
C525 C 0.60453 0.65008 0.6359 0.0
C526 C 0.68953 0.63961 0.57977 0.0
C527 C 0.6896 0.60077 0.57416 0.0
C528 C 0.63422 0.63343 0.61449 0.0
C529 C 0.66145 0.57914 0.58938 0.0
C530 C 0.56991 0.63201 0.64034 0.0
C531 C 0.58474 0.69985 0.6718 0.0
N532 N 0.63472 0.59579 0.60864 0.0
N533 N 0.61076 0.68345 0.65165 0.0
H534 H 0.30051 0.52544 0.87938 0.0
H535 H 0.45418 0.68569 0.85637 0.0
H536 H 0.36436 0.56973 0.96266 0.0
H537 H 0.35939 0.67354 0.78941 0.0
H538 H 0.42784 0.63694 0.89249 0.0
H539 H 0.32848 0.5729 0.84259 0.0
C540 C 0.32073 0.5449 0.88981 0.0
C541 C 0.33018 0.54369 0.9241 0.0
C542 C 0.41281 0.64505 0.86992 0.0
C543 C 0.36224 0.59796 0.88224 0.0
C544 C 0.42781 0.67289 0.84926 0.0
C545 C 0.40883 0.68406 0.8199 0.0
C546 C 0.37895 0.62764 0.86087 0.0
C547 C 0.37488 0.66609 0.8119 0.0
C548 C 0.33643 0.57214 0.8689 0.0
C549 C 0.35617 0.56992 0.93642 0.0
N550 N 0.36114 0.63865 0.83215 0.0
N551 N 0.37145 0.59587 0.91549 0.0
H552 H 0.32544 0.55075 0.39661 0.0
H553 H 0.47312 0.71626 0.37385 0.0
H554 H 0.32501 0.64956 0.4593 0.0
H555 H 0.43765 0.64682 0.29088 0.0
H556 H 0.4261 0.68598 0.40956 0.0
H557 H 0.37336 0.57983 0.36126 0.0
C558 C 0.3353 0.57856 0.40294 0.0
C559 C 0.32084 0.59786 0.43085 0.0
C560 C 0.42868 0.67734 0.38356 0.0
C561 C 0.37632 0.6309 0.39084 0.0
C562 C 0.45569 0.69436 0.36327 0.0
C563 C 0.45927 0.68396 0.32938 0.0
C564 C 0.40554 0.64923 0.37004 0.0
C565 C 0.43558 0.65577 0.31682 0.0
C566 C 0.36266 0.59512 0.38272 0.0
C567 C 0.33508 0.63374 0.43792 0.0
N568 N 0.40986 0.6392 0.33718 0.0
N569 N 0.36217 0.64899 0.41819 0.0
H570 H 0.37926 0.48676 0.58407 0.0
H571 H 0.34973 0.30697 0.69986 0.0
H572 H 0.27738 0.42189 0.58083 0.0
H573 H 0.45894 0.34287 0.66641 0.0
H574 H 0.32095 0.35414 0.66303 0.0
H575 H 0.40718 0.43975 0.62143 0.0
C576 C 0.36266 0.46278 0.59149 0.0
C577 C 0.32592 0.45822 0.57938 0.0
C578 C 0.3512 0.35159 0.66378 0.0
C579 C 0.35765 0.40437 0.62216 0.0
C580 C 0.36765 0.32481 0.68486 0.0
C581 C 0.40681 0.32094 0.68622 0.0
C582 C 0.37407 0.37519 0.64443 0.0
C583 C 0.42864 0.34475 0.66609 0.0
C584 C 0.3787 0.43583 0.61257 0.0
C585 C 0.30585 0.4263 0.58944 0.0
N586 N 0.412 0.37102 0.64624 0.0
N587 N 0.32187 0.4007 0.61042 0.0
H588 H 0.66995 0.36015 0.97271 0.0
H589 H 0.57601 0.35416 0.79023 0.0
H590 H 0.68798 0.44606 0.89819 0.0
H591 H 0.52707 0.2983 0.87554 0.0
H592 H 0.62273 0.38268 0.82766 0.0
H593 H 0.62287 0.33148 0.93563 0.0
C594 C 0.66424 0.37288 0.94851 0.0
C595 C 0.68313 0.40557 0.93856 0.0
C596 C 0.6017 0.36427 0.83822 0.0
C597 C 0.62942 0.37274 0.89598 0.0
C598 C 0.57516 0.34788 0.81686 0.0
C599 C 0.5476 0.32388 0.82981 0.0
C600 C 0.60115 0.35614 0.87277 0.0
C601 C 0.5476 0.31693 0.86459 0.0
C602 C 0.63722 0.3566 0.92746 0.0
C603 C 0.67429 0.4209 0.90696 0.0
N604 N 0.57414 0.33274 0.88484 0.0
N605 N 0.64829 0.40426 0.88676 0.0
H606 H 0.63481 0.66568 0.22551 0.0
H607 H 0.65027 0.58327 0.03881 0.0
H608 H 0.56164 0.69979 0.14445 0.0
H609 H 0.69724 0.52786 0.12559 0.0
H610 H 0.6228 0.63065 0.07595 0.0
H611 H 0.6635 0.61956 0.18799 0.0
C612 C 0.6249 0.6637 0.19979 0.0
C613 C 0.59568 0.68675 0.18819 0.0
C614 C 0.63905 0.60807 0.08687 0.0
C615 C 0.62853 0.63394 0.14506 0.0
C616 C 0.65487 0.58114 0.06567 0.0
C617 C 0.676 0.5515 0.07911 0.0
C618 C 0.64482 0.6057 0.12178 0.0
C619 C 0.68079 0.54993 0.11418 0.0
C620 C 0.64119 0.63721 0.17843 0.0
C621 C 0.58398 0.68269 0.15458 0.0
N622 N 0.66551 0.57673 0.13426 0.0
N623 N 0.60048 0.65691 0.13421 0.0
loop_
_geom_bond_atom_site_label_1
_geom_bond_atom_site_label_2
_geom_bond_distance
_geom_bond_site_symmetry_2
_ccdc_geom_bond_type
C0 C1 1.351 . S
C0 N3 1.368 . S
C0 H5 0.931 . S
C1 C0 1.351 . S
C1 N2 1.373 . S
C1 H29 0.930 . S
N2 C1 1.373 . S
N2 C4 1.340 . S
N3 C0 1.368 . S
N3 C4 1.321 . S
N3 Co6 2.135 . S
C4 N2 1.340 . S
C4 N3 1.321 . S
C4 H28 0.930 . S
H5 C0 0.931 . S
Co6 N3 2.135 . S
Co6 N9 2.121 . S
Co6 O14 2.055 . S
Co6 O17 2.039 . S
Co6 N20 2.140 . S
C7 O8 1.227 . S
C7 O17 1.265 . S
O8 C7 1.227 . S
N9 Co6 2.121 . S
N9 C11 1.375 1_554 S
N9 C12 1.313 1_554 S
C10 C11 1.338 . S
C10 N13 1.377 . S
C10 H30 0.930 . S
C11 N9 1.375 1_556 S
C11 C10 1.338 . S
C11 H15 0.931 . S
C12 N9 1.313 1_556 S
C12 N13 1.344 . S
C12 H16 0.930 1_556 S
N13 C10 1.377 . S
N13 C12 1.344 . S
O14 Co6 2.055 . S
O14 C18 1.253 . S
H15 C11 0.931 . S
H16 C12 0.930 1_554 S
O17 Co6 2.039 . S
O17 C7 1.265 . S
C18 O14 1.253 . S
C18 O19 1.227 . S
O19 C18 1.227 . S
N20 Co6 2.140 . S
N20 C23 1.346 . S
N20 C24 1.345 . S
C21 C22 1.387 . S
C21 C25 1.391 . S
C22 C21 1.387 . S
C22 C23 1.369 . S
C22 H31 0.929 . S
C23 N20 1.346 . S
C23 C22 1.369 . S
C23 H26 0.928 . S
C24 N20 1.345 . S
C24 C25 1.371 . S
C24 H27 0.931 . S
C25 C21 1.391 . S
C25 C24 1.371 . S
C25 H32 0.930 1_554 S
H26 C23 0.928 . S
H27 C24 0.931 . S
H28 C4 0.930 . S
H29 C1 0.930 . S
H30 C10 0.930 . S
H31 C22 0.929 . S
H32 C25 0.930 1_556 S
C33 C34 1.351 . S
C33 N36 1.368 . S
C33 H38 0.931 . S
C34 C33 1.351 . S
C34 N35 1.373 . S
C34 H62 0.930 . S
N35 C34 1.373 . S
N35 C37 1.340 . S
N36 C33 1.368 . S
N36 C37 1.321 . S
N36 Co39 2.135 . S
C37 N35 1.340 . S
C37 N36 1.321 . S
C37 H61 0.930 . S
H38 C33 0.931 . S
Co39 N36 2.135 . S
Co39 N42 2.121 . S
Co39 O47 2.055 . S
Co39 O50 2.039 . S
Co39 N53 2.140 . S
C40 O41 1.227 . S
C40 O50 1.265 . S
O41 C40 1.227 . S
N42 Co39 2.121 . S
N42 C44 1.375 . S
N42 C45 1.313 . S
C43 C44 1.338 . S
C43 N46 1.377 . S
C43 H63 0.930 . S
C44 N42 1.375 . S
C44 C43 1.338 . S
C44 H48 0.931 . S
C45 N42 1.313 . S
C45 N46 1.344 . S
C45 H49 0.930 . S
N46 C43 1.377 . S
N46 C45 1.344 . S
O47 Co39 2.055 . S
O47 C51 1.253 . S
H48 C44 0.931 . S
H49 C45 0.930 . S
O50 Co39 2.039 . S
O50 C40 1.265 . S
C51 O47 1.253 . S
C51 O52 1.227 . S
O52 C51 1.227 . S
N53 Co39 2.140 . S
N53 C56 1.346 . S
N53 C57 1.345 . S
C54 C55 1.387 . S
C54 C58 1.391 . S
C55 C54 1.387 . S
C55 C56 1.369 . S
C55 H64 0.929 . S
C56 N53 1.346 . S
C56 C55 1.369 . S
C56 H59 0.928 . S
C57 N53 1.345 . S
C57 C58 1.371 . S
C57 H60 0.931 . S
C58 C54 1.391 . S
C58 C57 1.371 . S
C58 H65 0.930 . S
H59 C56 0.928 . S
H60 C57 0.931 . S
H61 C37 0.930 . S
H62 C34 0.930 . S
H63 C43 0.930 . S
H64 C55 0.929 . S
H65 C58 0.930 . S
C66 C67 1.351 . S
C66 N69 1.368 . S
C66 H71 0.931 . S
C67 C66 1.351 . S
C67 N68 1.373 . S
C67 H95 0.930 . S
N68 C67 1.373 . S
N68 C70 1.340 . S
N69 C66 1.368 . S
N69 C70 1.321 . S
N69 Co72 2.135 . S
C70 N68 1.340 . S
C70 N69 1.321 . S
C70 H94 0.930 . S
H71 C66 0.931 . S
Co72 N69 2.135 . S
Co72 N75 2.121 . S
Co72 O80 2.055 . S
Co72 O83 2.039 . S
Co72 N86 2.140 . S
C73 O74 1.227 . S
C73 O83 1.265 . S
O74 C73 1.227 . S
N75 Co72 2.121 . S
N75 C77 1.375 . S
N75 C78 1.313 . S
C76 C77 1.338 . S
C76 N79 1.377 . S
C76 H96 0.930 . S
C77 N75 1.375 . S
C77 C76 1.338 . S
C77 H81 0.931 . S
C78 N75 1.313 . S
C78 N79 1.344 . S
C78 H82 0.930 . S
N79 C76 1.377 . S
N79 C78 1.344 . S
O80 Co72 2.055 . S
O80 C84 1.253 . S
H81 C77 0.931 . S
H82 C78 0.930 . S
O83 Co72 2.039 . S
O83 C73 1.265 . S
C84 O80 1.253 . S
C84 O85 1.227 . S
O85 C84 1.227 . S
N86 Co72 2.140 . S
N86 C89 1.346 . S
N86 C90 1.345 . S
C87 C88 1.387 . S
C87 C91 1.391 . S
C88 C87 1.387 . S
C88 C89 1.369 . S
C88 H97 0.929 . S
C89 N86 1.346 . S
C89 C88 1.369 . S
C89 H92 0.928 . S
C90 N86 1.345 . S
C90 C91 1.371 . S
C90 H93 0.931 . S
C91 C87 1.391 . S
C91 C90 1.371 . S
C91 H98 0.930 . S
H92 C89 0.928 . S
H93 C90 0.931 . S
H94 C70 0.930 . S
H95 C67 0.930 . S
H96 C76 0.930 . S
H97 C88 0.929 . S
H98 C91 0.930 . S
C99 C100 1.351 . S
C99 N102 1.368 . S
C99 H104 0.931 . S
C100 C99 1.351 . S
C100 N101 1.373 . S
C100 H128 0.930 . S
N101 C100 1.373 . S
N101 C103 1.340 . S
N102 C99 1.368 . S
N102 C103 1.321 . S
N102 Co105 2.135 . S
C103 N101 1.340 . S
C103 N102 1.321 . S
C103 H127 0.930 . S
H104 C99 0.931 . S
Co105 N102 2.135 . S
Co105 N108 2.121 . S
Co105 O113 2.055 . S
Co105 O116 2.039 . S
Co105 N119 2.140 . S
C106 O107 1.227 . S
C106 O116 1.265 . S
O107 C106 1.227 . S
N108 Co105 2.121 . S
N108 C110 1.375 . S
N108 C111 1.313 . S
C109 C110 1.338 . S
C109 N112 1.377 . S
C109 H129 0.930 . S
C110 N108 1.375 . S
C110 C109 1.338 . S
C110 H114 0.931 . S
C111 N108 1.313 . S
C111 N112 1.344 . S
C111 H115 0.930 . S
N112 C109 1.377 . S
N112 C111 1.344 . S
O113 Co105 2.055 . S
O113 C117 1.253 . S
H114 C110 0.931 . S
H115 C111 0.930 . S
O116 Co105 2.039 . S
O116 C106 1.265 . S
C117 O113 1.253 . S
C117 O118 1.227 . S
O118 C117 1.227 . S
N119 Co105 2.140 . S
N119 C122 1.346 . S
N119 C123 1.345 . S
C120 C121 1.387 . S
C120 C124 1.391 . S
C121 C120 1.387 . S
C121 C122 1.369 . S
C121 H130 0.929 . S
C122 N119 1.346 . S
C122 C121 1.369 . S
C122 H125 0.928 . S
C123 N119 1.345 . S
C123 C124 1.371 . S
C123 H126 0.931 . S
C124 C120 1.391 . S
C124 C123 1.371 . S
C124 H131 0.930 . S
H125 C122 0.928 . S
H126 C123 0.931 . S
H127 C103 0.930 . S
H128 C100 0.930 . S
H129 C109 0.930 . S
H130 C121 0.929 . S
H131 C124 0.930 . S
C132 C133 1.351 . S
C132 N135 1.368 . S
C132 H137 0.931 . S
C133 C132 1.351 . S
C133 N134 1.373 . S
C133 H161 0.930 . S
N134 C133 1.373 . S
N134 C136 1.340 . S
N135 C132 1.368 . S
N135 C136 1.321 . S
N135 Co138 2.135 . S
C136 N134 1.340 . S
C136 N135 1.321 . S
C136 H160 0.930 . S
H137 C132 0.931 . S
Co138 N135 2.135 . S
Co138 N141 2.121 . S
Co138 O146 2.055 . S
Co138 O149 2.039 . S
Co138 N152 2.140 . S
C139 O140 1.227 . S
C139 O149 1.265 . S
O140 C139 1.227 . S
N141 Co138 2.121 . S
N141 C143 1.375 . S
N141 C144 1.313 . S
C142 C143 1.338 . S
C142 N145 1.377 . S
C142 H162 0.930 . S
C143 N141 1.375 . S
C143 C142 1.338 . S
C143 H147 0.931 . S
C144 N141 1.313 . S
C144 N145 1.344 . S
C144 H148 0.930 . S
N145 C142 1.377 . S
N145 C144 1.344 . S
O146 Co138 2.055 . S
O146 C150 1.253 . S
H147 C143 0.931 . S
H148 C144 0.930 . S
O149 Co138 2.039 . S
O149 C139 1.265 . S
C150 O146 1.253 . S
C150 O151 1.227 . S
O151 C150 1.227 . S
N152 Co138 2.140 . S
N152 C155 1.346 . S
N152 C156 1.345 . S
C153 C154 1.387 . S
C153 C157 1.391 . S
C154 C153 1.387 . S
C154 C155 1.369 . S
C154 H163 0.929 . S
C155 N152 1.346 . S
C155 C154 1.369 . S
C155 H158 0.928 . S
C156 N152 1.345 . S
C156 C157 1.371 . S
C156 H159 0.931 . S
C157 C153 1.391 . S
C157 C156 1.371 . S
C157 H164 0.930 . S
H158 C155 0.928 . S
H159 C156 0.931 . S
H160 C136 0.930 . S
H161 C133 0.930 . S
H162 C142 0.930 . S
H163 C154 0.929 . S
H164 C157 0.930 . S
C165 C166 1.351 . S
C165 N168 1.368 . S
C165 H170 0.931 . S
C166 C165 1.351 . S
C166 N167 1.373 . S
C166 H194 0.930 . S
N167 C166 1.373 . S
N167 C169 1.340 . S
N168 C165 1.368 . S
N168 C169 1.321 . S
N168 Co171 2.135 . S
C169 N167 1.340 . S
C169 N168 1.321 . S
C169 H193 0.930 . S
H170 C165 0.931 . S
Co171 N168 2.135 . S
Co171 N174 2.121 . S
Co171 O179 2.055 . S
Co171 O182 2.039 . S
Co171 N185 2.140 . S
C172 O173 1.227 . S
C172 O182 1.265 . S
O173 C172 1.227 . S
N174 Co171 2.121 . S
N174 C176 1.375 . S
N174 C177 1.313 . S
C175 C176 1.338 . S
C175 N178 1.377 . S
C175 H195 0.930 . S
C176 N174 1.375 . S
C176 C175 1.338 . S
C176 H180 0.931 . S
C177 N174 1.313 . S
C177 N178 1.344 . S
C177 H181 0.930 . S
N178 C175 1.377 . S
N178 C177 1.344 . S
O179 Co171 2.055 . S
O179 C183 1.253 . S
H180 C176 0.931 . S
H181 C177 0.930 . S
O182 Co171 2.039 . S
O182 C172 1.265 . S
C183 O179 1.253 . S
C183 O184 1.227 . S
O184 C183 1.227 . S
N185 Co171 2.140 . S
N185 C188 1.346 . S
N185 C189 1.345 . S
C186 C187 1.387 . S
C186 C190 1.391 . S
C187 C186 1.387 . S
C187 C188 1.369 . S
C187 H196 0.929 . S
C188 N185 1.346 . S
C188 C187 1.369 . S
C188 H191 0.928 . S
C189 N185 1.345 . S
C189 C190 1.371 . S
C189 H192 0.931 . S
C190 C186 1.391 . S
C190 C189 1.371 . S
C190 H197 0.930 . S
H191 C188 0.928 . S
H192 C189 0.931 . S
H193 C169 0.930 . S
H194 C166 0.930 . S
H195 C175 0.930 . S
H196 C187 0.929 . S
H197 C190 0.930 . S
C198 C199 1.351 . S
C198 N201 1.368 . S
C198 H203 0.931 . S
C199 C198 1.351 . S
C199 N200 1.373 . S
C199 H227 0.930 . S
N200 C199 1.373 . S
N200 C202 1.340 . S
N201 C198 1.368 . S
N201 C202 1.321 . S
N201 Co204 2.135 . S
C202 N200 1.340 . S
C202 N201 1.321 . S
C202 H226 0.930 . S
H203 C198 0.931 . S
Co204 N201 2.135 . S
Co204 N207 2.121 . S
Co204 O212 2.055 . S
Co204 O215 2.039 . S
Co204 N218 2.140 . S
C205 O206 1.227 . S
C205 O215 1.265 . S
O206 C205 1.227 . S
N207 Co204 2.121 . S
N207 C209 1.375 1_556 S
N207 C210 1.313 1_556 S
C208 C209 1.338 . S
C208 N211 1.377 . S
C208 H228 0.930 . S
C209 N207 1.375 1_554 S
C209 C208 1.338 . S
C209 H213 0.931 . S
C210 N207 1.313 1_554 S
C210 N211 1.344 . S
C210 H214 0.930 1_554 S
N211 C208 1.377 . S
N211 C210 1.344 . S
O212 Co204 2.055 . S
O212 C216 1.253 . S
H213 C209 0.931 . S
H214 C210 0.930 1_556 S
O215 Co204 2.039 . S
O215 C205 1.265 . S
C216 O212 1.253 . S
C216 O217 1.227 . S
O217 C216 1.227 . S
N218 Co204 2.140 . S
N218 C221 1.346 . S
N218 C222 1.345 . S
C219 C220 1.387 . S
C219 C223 1.391 . S
C220 C219 1.387 . S
C220 C221 1.369 . S
C220 H229 0.929 . S
C221 N218 1.346 . S
C221 C220 1.369 . S
C221 H224 0.928 . S
C222 N218 1.345 . S
C222 C223 1.371 . S
C222 H225 0.931 . S
C223 C219 1.391 . S
C223 C222 1.371 . S
C223 H230 0.930 1_556 S
H224 C221 0.928 . S
H225 C222 0.931 . S
H226 C202 0.930 . S
H227 C199 0.930 . S
H228 C208 0.930 . S
H229 C220 0.929 . S
H230 C223 0.930 1_554 S
C231 C232 1.351 . S
C231 N234 1.368 . S
C231 H236 0.931 . S
C232 C231 1.351 . S
C232 N233 1.373 . S
C232 H260 0.930 . S
N233 C232 1.373 . S
N233 C235 1.340 . S
N234 C231 1.368 . S
N234 C235 1.321 . S
N234 Co237 2.135 . S
C235 N233 1.340 . S
C235 N234 1.321 . S
C235 H259 0.930 . S
H236 C231 0.931 . S
Co237 N234 2.135 . S
Co237 N240 2.121 . S
Co237 O245 2.055 . S
Co237 O248 2.039 . S
Co237 N251 2.140 . S
C238 O239 1.227 . S
C238 O248 1.265 . S
O239 C238 1.227 . S
N240 Co237 2.121 . S
N240 C242 1.375 . S
N240 C243 1.313 . S
C241 C242 1.338 . S
C241 N244 1.377 . S
C241 H261 0.930 . S
C242 N240 1.375 . S
C242 C241 1.338 . S
C242 H246 0.931 . S
C243 N240 1.313 . S
C243 N244 1.344 . S
C243 H247 0.930 . S
N244 C241 1.377 . S
N244 C243 1.344 . S
O245 Co237 2.055 . S
O245 C249 1.253 . S
H246 C242 0.931 . S
H247 C243 0.930 . S
O248 Co237 2.039 . S
O248 C238 1.265 . S
C249 O245 1.253 . S
C249 O250 1.227 . S
O250 C249 1.227 . S
N251 Co237 2.140 . S
N251 C254 1.346 . S
N251 C255 1.345 . S
C252 C253 1.387 . S
C252 C256 1.391 . S
C253 C252 1.387 . S
C253 C254 1.369 . S
C253 H262 0.929 . S
C254 N251 1.346 . S
C254 C253 1.369 . S
C254 H257 0.928 . S
C255 N251 1.345 . S
C255 C256 1.371 . S
C255 H258 0.931 . S
C256 C252 1.391 . S
C256 C255 1.371 . S
C256 H263 0.930 . S
H257 C254 0.928 . S
H258 C255 0.931 . S
H259 C235 0.930 . S
H260 C232 0.930 . S
H261 C241 0.930 . S
H262 C253 0.929 . S
H263 C256 0.930 . S
H264 C270 0.930 . S
H265 C274 0.930 . S
H266 C279 0.929 . S
H267 C277 0.929 . S
H268 C272 0.929 . S
H269 C278 0.929 . S
C270 H264 0.930 . S
C270 C271 1.367 . S
C270 C278 1.378 . S
C271 C270 1.367 . S
C271 C279 1.433 . S
C272 H268 0.929 . S
C272 C274 1.378 . S
C272 C276 1.350 . S
C273 C276 1.463 . S
C273 C278 1.350 . S
C273 N281 1.427 . S
C274 H265 0.930 . S
C274 C272 1.378 . S
C274 C275 1.367 . S
C275 C274 1.367 . S
C275 C277 1.433 . S
C276 C272 1.350 . S
C276 C273 1.463 . S
C276 N280 1.427 . S
C277 H267 0.929 . S
C277 C275 1.433 . S
C277 N280 1.384 . S
C278 H269 0.929 . S
C278 C270 1.378 . S
C278 C273 1.350 . S
C279 H266 0.929 . S
C279 C271 1.433 . S
C279 N281 1.384 . S
N280 C276 1.427 . S
N280 C277 1.384 . S
N281 C273 1.427 . S
N281 C279 1.384 . S
H282 C288 0.930 . S
H283 C292 0.930 . S
H284 C297 0.929 . S
H285 C295 0.929 . S
H286 C290 0.929 . S
H287 C296 0.929 . S
C288 H282 0.930 . S
C288 C289 1.367 . S
C288 C296 1.378 . S
C289 C288 1.367 . S
C289 C297 1.433 . S
C290 H286 0.929 . S
C290 C292 1.378 . S
C290 C294 1.350 . S
C291 C294 1.463 . S
C291 C296 1.350 . S
C291 N299 1.427 . S
C292 H283 0.930 . S
C292 C290 1.378 . S
C292 C293 1.367 . S
C293 C292 1.367 . S
C293 C295 1.433 . S
C294 C290 1.350 . S
C294 C291 1.463 . S
C294 N298 1.427 . S
C295 H285 0.929 . S
C295 C293 1.433 . S
C295 N298 1.384 . S
C296 H287 0.929 . S
C296 C288 1.378 . S
C296 C291 1.350 . S
C297 H284 0.929 . S
C297 C289 1.433 . S
C297 N299 1.384 . S
N298 C294 1.427 . S
N298 C295 1.384 . S
N299 C291 1.427 . S
N299 C297 1.384 . S
H300 C306 0.930 . S
H301 C310 0.930 . S
H302 C315 0.929 . S
H303 C313 0.929 . S
H304 C308 0.929 . S
H305 C314 0.929 . S
C306 H300 0.930 . S
C306 C307 1.367 . S
C306 C314 1.378 . S
C307 C306 1.367 . S
C307 C315 1.433 . S
C308 H304 0.929 . S
C308 C310 1.378 . S
C308 C312 1.350 . S
C309 C312 1.463 . S
C309 C314 1.350 . S
C309 N317 1.427 . S
C310 H301 0.930 . S
C310 C308 1.378 . S
C310 C311 1.367 . S
C311 C310 1.367 . S
C311 C313 1.433 . S
C312 C308 1.350 . S
C312 C309 1.463 . S
C312 N316 1.427 . S
C313 H303 0.929 . S
C313 C311 1.433 . S
C313 N316 1.384 . S
C314 H305 0.929 . S
C314 C306 1.378 . S
C314 C309 1.350 . S
C315 H302 0.929 . S
C315 C307 1.433 . S
C315 N317 1.384 . S
N316 C312 1.427 . S
N316 C313 1.384 . S
N317 C309 1.427 . S
N317 C315 1.384 . S
H318 C324 0.930 . S
H319 C328 0.930 . S
H320 C333 0.929 . S
H321 C331 0.929 . S
H322 C326 0.929 . S
H323 C332 0.929 . S
C324 H318 0.930 . S
C324 C325 1.367 . S
C324 C332 1.378 . S
C325 C324 1.367 . S
C325 C333 1.433 . S
C326 H322 0.929 . S
C326 C328 1.378 . S
C326 C330 1.350 . S
C327 C330 1.463 1_556 S
C327 C332 1.350 . S
C327 N335 1.427 . S
C328 H319 0.930 . S
C328 C326 1.378 . S
C328 C329 1.367 . S
C329 C328 1.367 . S
C329 C331 1.433 . S
C330 C326 1.350 . S
C330 C327 1.463 1_554 S
C330 N334 1.427 . S
C331 H321 0.929 . S
C331 C329 1.433 . S
C331 N334 1.384 . S
C332 H323 0.929 . S
C332 C324 1.378 . S
C332 C327 1.350 . S
C333 H320 0.929 . S
C333 C325 1.433 . S
C333 N335 1.384 . S
N334 C330 1.427 . S
N334 C331 1.384 . S
N335 C327 1.427 . S
N335 C333 1.384 . S
H336 C342 0.930 . S
H337 C346 0.930 . S
H338 C351 0.929 . S
H339 C349 0.929 . S
H340 C344 0.929 . S
H341 C350 0.929 . S
C342 H336 0.930 . S
C342 C343 1.367 . S
C342 C350 1.378 . S
C343 C342 1.367 . S
C343 C351 1.433 1_554 S
C344 H340 0.929 . S
C344 C346 1.378 . S
C344 C348 1.350 . S
C345 C348 1.463 1_454 S
C345 C350 1.350 . S
C345 N353 1.427 1_554 S
C346 H337 0.930 . S
C346 C344 1.378 . S
C346 C347 1.367 . S
C347 C346 1.367 . S
C347 C349 1.433 1_556 S
C348 C344 1.350 . S
C348 C345 1.463 1_656 S
C348 N352 1.427 1_556 S
C349 H339 0.929 . S
C349 C347 1.433 1_554 S
C349 N352 1.384 . S
C350 H341 0.929 . S
C350 C342 1.378 . S
C350 C345 1.350 . S
C351 H338 0.929 . S
C351 C343 1.433 1_556 S
C351 N353 1.384 . S
N352 C348 1.427 1_554 S
N352 C349 1.384 . S
N353 C345 1.427 1_556 S
N353 C351 1.384 . S
H354 C360 0.930 . S
H355 C364 0.930 . S
H356 C369 0.929 . S
H357 C367 0.929 . S
H358 C362 0.929 . S
H359 C368 0.929 . S
C360 H354 0.930 . S
C360 C361 1.367 . S
C360 C368 1.378 . S
C361 C360 1.367 . S
C361 C369 1.433 . S
C362 H358 0.929 . S
C362 C364 1.378 . S
C362 C366 1.350 . S
C363 C366 1.463 1_545 S
C363 C368 1.350 . S
C363 N371 1.427 . S
C364 H355 0.930 . S
C364 C362 1.378 . S
C364 C365 1.367 . S
C365 C364 1.367 . S
C365 C367 1.433 . S
C366 C362 1.350 . S
C366 C363 1.463 1_565 S
C366 N370 1.427 . S
C367 H357 0.929 . S
C367 C365 1.433 . S
C367 N370 1.384 . S
C368 H359 0.929 . S
C368 C360 1.378 . S
C368 C363 1.350 . S
C369 H356 0.929 . S
C369 C361 1.433 . S
C369 N371 1.384 . S
N370 C366 1.427 . S
N370 C367 1.384 . S
N371 C363 1.427 . S
N371 C369 1.384 . S
H372 C378 0.930 . S
H373 C382 0.930 . S
H374 C387 0.929 . S
H375 C385 0.929 . S
H376 C380 0.929 . S
H377 C386 0.929 . S
C378 H372 0.930 . S
C378 C379 1.367 . S
C378 C386 1.378 . S
C379 C378 1.367 . S
C379 C387 1.433 . S
C380 H376 0.929 . S
C380 C382 1.378 . S
C380 C384 1.350 . S
C381 C384 1.463 1_455 S
C381 C386 1.350 . S
C381 N389 1.427 . S
C382 H373 0.930 . S
C382 C380 1.378 . S
C382 C383 1.367 . S
C383 C382 1.367 . S
C383 C385 1.433 . S
C384 C380 1.350 . S
C384 C381 1.463 1_655 S
C384 N388 1.427 . S
C385 H375 0.929 . S
C385 C383 1.433 . S
C385 N388 1.384 . S
C386 H377 0.929 . S
C386 C378 1.378 . S
C386 C381 1.350 . S
C387 H374 0.929 . S
C387 C379 1.433 . S
C387 N389 1.384 . S
N388 C384 1.427 . S
N388 C385 1.384 . S
N389 C381 1.427 . S
N389 C387 1.384 . S
H390 C396 0.930 . S
H391 C400 0.930 . S
H392 C405 0.929 . S
H393 C403 0.929 . S
H394 C398 0.929 . S
H395 C404 0.929 . S
C396 H390 0.930 . S
C396 C397 1.367 . S
C396 C404 1.378 . S
C397 C396 1.367 . S
C397 C405 1.433 . S
C398 H394 0.929 . S
C398 C400 1.378 . S
C398 C402 1.350 . S
C399 C402 1.463 1_545 S
C399 C404 1.350 . S
C399 N407 1.427 . S
C400 H391 0.930 . S
C400 C398 1.378 . S
C400 C401 1.367 . S
C401 C400 1.367 . S
C401 C403 1.433 . S
C402 C398 1.350 . S
C402 C399 1.463 1_565 S
C402 N406 1.427 . S
C403 H393 0.929 . S
C403 C401 1.433 . S
C403 N406 1.384 . S
C404 H395 0.929 . S
C404 C396 1.378 . S
C404 C399 1.350 . S
C405 H392 0.929 . S
C405 C397 1.433 . S
C405 N407 1.384 . S
N406 C402 1.427 . S
N406 C403 1.384 . S
N407 C399 1.427 . S
N407 C405 1.384 . S
H408 C414 0.930 . S
H409 C418 0.930 . S
H410 C423 0.929 . S
H411 C421 0.929 . S
H412 C416 0.929 . S
H413 C422 0.929 . S
C414 H408 0.930 . S
C414 C415 1.367 . S
C414 C422 1.378 . S
C415 C414 1.367 . S
C415 C423 1.433 . S
C416 H412 0.929 . S
C416 C418 1.378 . S
C416 C420 1.350 . S
C417 C420 1.463 . S
C417 C422 1.350 . S
C417 N425 1.427 . S
C418 H409 0.930 . S
C418 C416 1.378 . S
C418 C419 1.367 . S
C419 C418 1.367 . S
C419 C421 1.433 . S
C420 C416 1.350 . S
C420 C417 1.463 . S
C420 N424 1.427 . S
C421 H411 0.929 . S
C421 C419 1.433 . S
C421 N424 1.384 . S
C422 H413 0.929 . S
C422 C414 1.378 . S
C422 C417 1.350 . S
C423 H410 0.929 . S
C423 C415 1.433 . S
C423 N425 1.384 . S
N424 C420 1.427 . S
N424 C421 1.384 . S
N425 C417 1.427 . S
N425 C423 1.384 . S
H426 C432 0.930 . S
H427 C436 0.930 . S
H428 C441 0.929 . S
H429 C439 0.929 . S
H430 C434 0.929 . S
H431 C440 0.929 . S
C432 H426 0.930 . S
C432 C433 1.367 . S
C432 C440 1.378 . S
C433 C432 1.367 . S
C433 C441 1.433 . S
C434 H430 0.929 . S
C434 C436 1.378 . S
C434 C438 1.350 . S
C435 C438 1.463 . S
C435 C440 1.350 . S
C435 N443 1.427 . S
C436 H427 0.930 . S
C436 C434 1.378 . S
C436 C437 1.367 . S
C437 C436 1.367 . S
C437 C439 1.433 . S
C438 C434 1.350 . S
C438 C435 1.463 . S
C438 N442 1.427 . S
C439 H429 0.929 . S
C439 C437 1.433 . S
C439 N442 1.384 . S
C440 H431 0.929 . S
C440 C432 1.378 . S
C440 C435 1.350 . S
C441 H428 0.929 . S
C441 C433 1.433 . S
C441 N443 1.384 . S
N442 C438 1.427 . S
N442 C439 1.384 . S
N443 C435 1.427 . S
N443 C441 1.384 . S
H444 C450 0.930 . S
H445 C454 0.930 . S
H446 C459 0.929 . S
H447 C457 0.929 . S
H448 C452 0.929 . S
H449 C458 0.929 . S
C450 H444 0.930 . S
C450 C451 1.367 . S
C450 C458 1.378 . S
C451 C450 1.367 . S
C451 C459 1.433 . S
C452 H448 0.929 . S
C452 C454 1.378 . S
C452 C456 1.350 . S
C453 C456 1.463 . S
C453 C458 1.350 . S
C453 N461 1.427 . S
C454 H445 0.930 . S
C454 C452 1.378 . S
C454 C455 1.367 . S
C455 C454 1.367 . S
C455 C457 1.433 . S
C456 C452 1.350 . S
C456 C453 1.463 . S
C456 N460 1.427 . S
C457 H447 0.929 . S
C457 C455 1.433 . S
C457 N460 1.384 . S
C458 H449 0.929 . S
C458 C450 1.378 . S
C458 C453 1.350 . S
C459 H446 0.929 . S
C459 C451 1.433 . S
C459 N461 1.384 . S
N460 C456 1.427 . S
N460 C457 1.384 . S
N461 C453 1.427 . S
N461 C459 1.384 . S
H462 C468 0.930 . S
H463 C472 0.930 . S
H464 C477 0.929 . S
H465 C475 0.929 . S
H466 C470 0.929 . S
H467 C476 0.929 . S
C468 H462 0.930 . S
C468 C469 1.367 . S
C468 C476 1.378 . S
C469 C468 1.367 . S
C469 C477 1.433 . S
C470 H466 0.929 . S
C470 C472 1.378 . S
C470 C474 1.350 . S
C471 C474 1.463 . S
C471 C476 1.350 . S
C471 N479 1.427 . S
C472 H463 0.930 . S
C472 C470 1.378 . S
C472 C473 1.367 . S
C473 C472 1.367 . S
C473 C475 1.433 . S
C474 C470 1.350 . S
C474 C471 1.463 . S
C474 N478 1.427 . S
C475 H465 0.929 . S
C475 C473 1.433 . S
C475 N478 1.384 . S
C476 H467 0.929 . S
C476 C468 1.378 . S
C476 C471 1.350 . S
C477 H464 0.929 . S
C477 C469 1.433 . S
C477 N479 1.384 . S
N478 C474 1.427 . S
N478 C475 1.384 . S
N479 C471 1.427 . S
N479 C477 1.384 . S
H480 C486 0.930 . S
H481 C490 0.930 . S
H482 C495 0.929 . S
H483 C493 0.929 . S
H484 C488 0.929 . S
H485 C494 0.929 . S
C486 H480 0.930 . S
C486 C487 1.367 . S
C486 C494 1.378 . S
C487 C486 1.367 . S
C487 C495 1.433 . S
C488 H484 0.929 . S
C488 C490 1.378 . S
C488 C492 1.350 . S
C489 C492 1.463 . S
C489 C494 1.350 . S
C489 N497 1.427 . S
C490 H481 0.930 . S
C490 C488 1.378 . S
C490 C491 1.367 . S
C491 C490 1.367 . S
C491 C493 1.433 . S
C492 C488 1.350 . S
C492 C489 1.463 . S
C492 N496 1.427 . S
C493 H483 0.929 . S
C493 C491 1.433 . S
C493 N496 1.384 . S
C494 H485 0.929 . S
C494 C486 1.378 . S
C494 C489 1.350 . S
C495 H482 0.929 . S
C495 C487 1.433 . S
C495 N497 1.384 . S
N496 C492 1.427 . S
N496 C493 1.384 . S
N497 C489 1.427 . S
N497 C495 1.384 . S
H498 C504 0.930 . S
H499 C508 0.930 . S
H500 C513 0.929 . S
H501 C511 0.929 . S
H502 C506 0.929 . S
H503 C512 0.929 . S
C504 H498 0.930 . S
C504 C505 1.367 . S
C504 C512 1.378 . S
C505 C504 1.367 . S
C505 C513 1.433 . S
C506 H502 0.929 . S
C506 C508 1.378 . S
C506 C510 1.350 . S
C507 C510 1.463 . S
C507 C512 1.350 . S
C507 N515 1.427 . S
C508 H499 0.930 . S
C508 C506 1.378 . S
C508 C509 1.367 . S
C509 C508 1.367 . S
C509 C511 1.433 . S
C510 C506 1.350 . S
C510 C507 1.463 . S
C510 N514 1.427 . S
C511 H501 0.929 . S
C511 C509 1.433 . S
C511 N514 1.384 . S
C512 H503 0.929 . S
C512 C504 1.378 . S
C512 C507 1.350 . S
C513 H500 0.929 . S
C513 C505 1.433 . S
C513 N515 1.384 . S
N514 C510 1.427 . S
N514 C511 1.384 . S
N515 C507 1.427 . S
N515 C513 1.384 . S
H516 C522 0.930 . S
H517 C526 0.930 . S
H518 C531 0.929 . S
H519 C529 0.929 . S
H520 C524 0.929 . S
H521 C530 0.929 . S
C522 H516 0.930 . S
C522 C523 1.367 . S
C522 C530 1.378 . S
C523 C522 1.367 . S
C523 C531 1.433 . S
C524 H520 0.929 . S
C524 C526 1.378 . S
C524 C528 1.350 . S
C525 C528 1.463 . S
C525 C530 1.350 . S
C525 N533 1.427 . S
C526 H517 0.930 . S
C526 C524 1.378 . S
C526 C527 1.367 . S
C527 C526 1.367 . S
C527 C529 1.433 . S
C528 C524 1.350 . S
C528 C525 1.463 . S
C528 N532 1.427 . S
C529 H519 0.929 . S
C529 C527 1.433 . S
C529 N532 1.384 . S
C530 H521 0.929 . S
C530 C522 1.378 . S
C530 C525 1.350 . S
C531 H518 0.929 . S
C531 C523 1.433 . S
C531 N533 1.384 . S
N532 C528 1.427 . S
N532 C529 1.384 . S
N533 C525 1.427 . S
N533 C531 1.384 . S
H534 C540 0.930 . S
H535 C544 0.930 . S
H536 C549 0.929 . S
H537 C547 0.929 . S
H538 C542 0.929 . S
H539 C548 0.929 . S
C540 H534 0.930 . S
C540 C541 1.367 . S
C540 C548 1.378 . S
C541 C540 1.367 . S
C541 C549 1.433 . S
C542 H538 0.929 . S
C542 C544 1.378 . S
C542 C546 1.350 . S
C543 C546 1.463 . S
C543 C548 1.350 . S
C543 N551 1.427 . S
C544 H535 0.930 . S
C544 C542 1.378 . S
C544 C545 1.367 . S
C545 C544 1.367 . S
C545 C547 1.433 . S
C546 C542 1.350 . S
C546 C543 1.463 . S
C546 N550 1.427 . S
C547 H537 0.929 . S
C547 C545 1.433 . S
C547 N550 1.384 . S
C548 H539 0.929 . S
C548 C540 1.378 . S
C548 C543 1.350 . S
C549 H536 0.929 . S
C549 C541 1.433 . S
C549 N551 1.384 . S
N550 C546 1.427 . S
N550 C547 1.384 . S
N551 C543 1.427 . S
N551 C549 1.384 . S
H552 C558 0.930 . S
H553 C562 0.930 . S
H554 C567 0.929 . S
H555 C565 0.929 . S
H556 C560 0.929 . S
H557 C566 0.929 . S
C558 H552 0.930 . S
C558 C559 1.367 . S
C558 C566 1.378 . S
C559 C558 1.367 . S
C559 C567 1.433 . S
C560 H556 0.929 . S
C560 C562 1.378 . S
C560 C564 1.350 . S
C561 C564 1.463 . S
C561 C566 1.350 . S
C561 N569 1.427 . S
C562 H553 0.930 . S
C562 C560 1.378 . S
C562 C563 1.367 . S
C563 C562 1.367 . S
C563 C565 1.433 . S
C564 C560 1.350 . S
C564 C561 1.463 . S
C564 N568 1.427 . S
C565 H555 0.929 . S
C565 C563 1.433 . S
C565 N568 1.384 . S
C566 H557 0.929 . S
C566 C558 1.378 . S
C566 C561 1.350 . S
C567 H554 0.929 . S
C567 C559 1.433 . S
C567 N569 1.384 . S
N568 C564 1.427 . S
N568 C565 1.384 . S
N569 C561 1.427 . S
N569 C567 1.384 . S
H570 C576 0.930 . S
H571 C580 0.930 . S
H572 C585 0.929 . S
H573 C583 0.929 . S
H574 C578 0.929 . S
H575 C584 0.929 . S
C576 H570 0.930 . S
C576 C577 1.367 . S
C576 C584 1.378 . S
C577 C576 1.367 . S
C577 C585 1.433 . S
C578 H574 0.929 . S
C578 C580 1.378 . S
C578 C582 1.350 . S
C579 C582 1.463 . S
C579 C584 1.350 . S
C579 N587 1.427 . S
C580 H571 0.930 . S
C580 C578 1.378 . S
C580 C581 1.367 . S
C581 C580 1.367 . S
C581 C583 1.433 . S
C582 C578 1.350 . S
C582 C579 1.463 . S
C582 N586 1.427 . S
C583 H573 0.929 . S
C583 C581 1.433 . S
C583 N586 1.384 . S
C584 H575 0.929 . S
C584 C576 1.378 . S
C584 C579 1.350 . S
C585 H572 0.929 . S
C585 C577 1.433 . S
C585 N587 1.384 . S
N586 C582 1.427 . S
N586 C583 1.384 . S
N587 C579 1.427 . S
N587 C585 1.384 . S
H588 C594 0.930 . S
H589 C598 0.930 . S
H590 C603 0.929 . S
H591 C601 0.929 . S
H592 C596 0.929 . S
H593 C602 0.929 . S
C594 H588 0.930 . S
C594 C595 1.367 . S
C594 C602 1.378 . S
C595 C594 1.367 . S
C595 C603 1.433 . S
C596 H592 0.929 . S
C596 C598 1.378 . S
C596 C600 1.350 . S
C597 C600 1.463 . S
C597 C602 1.350 . S
C597 N605 1.427 . S
C598 H589 0.930 . S
C598 C596 1.378 . S
C598 C599 1.367 . S
C599 C598 1.367 . S
C599 C601 1.433 . S
C600 C596 1.350 . S
C600 C597 1.463 . S
C600 N604 1.427 . S
C601 H591 0.929 . S
C601 C599 1.433 . S
C601 N604 1.384 . S
C602 H593 0.929 . S
C602 C594 1.378 . S
C602 C597 1.350 . S
C603 H590 0.929 . S
C603 C595 1.433 . S
C603 N605 1.384 . S
N604 C600 1.427 . S
N604 C601 1.384 . S
N605 C597 1.427 . S
N605 C603 1.384 . S
H606 C612 0.930 . S
H607 C616 0.930 . S
H608 C621 0.929 . S
H609 C619 0.929 . S
H610 C614 0.929 . S
H611 C620 0.929 . S
C612 H606 0.930 . S
C612 C613 1.367 . S
C612 C620 1.378 . S
C613 C612 1.367 . S
C613 C621 1.433 . S
C614 H610 0.929 . S
C614 C616 1.378 . S
C614 C618 1.350 . S
C615 C618 1.463 . S
C615 C620 1.350 . S
C615 N623 1.427 . S
C616 H607 0.930 . S
C616 C614 1.378 . S
C616 C617 1.367 . S
C617 C616 1.367 . S
C617 C619 1.433 . S
C618 C614 1.350 . S
C618 C615 1.463 . S
C618 N622 1.427 . S
C619 H609 0.929 . S
C619 C617 1.433 . S
C619 N622 1.384 . S
C620 H611 0.929 . S
C620 C612 1.378 . S
C620 C615 1.350 . S
C621 H608 0.929 . S
C621 C613 1.433 . S
C621 N623 1.384 . S
N622 C618 1.427 . S
N622 C619 1.384 . S
N623 C615 1.427 . S
N623 C621 1.384 . S
C271 N134 0.514 . S
C275 N2 0.513 . S
C289 N35 0.510 . S
C293 N167 0.540 . S
C307 N68 0.523 . S
C311 N200 0.508 . S
C325 N101 0.514 . S
C329 N233 0.546 . S
C343 C21 0.997 . S
C347 C219 0.996 . S
C361 C54 1.006 . S
C365 C252 1.006 . S
C379 C153 1.007 . S
C383 C87 1.007 . S
C397 C186 0.994 . S
C401 C120 0.995 . S
C415 C249 0.395 . S
C419 C18 0.390 . S
C433 C51 0.432 . S
C437 C150 0.431 . S
C451 C183 0.386 . S
C455 C84 0.406 . S
C469 C216 0.389 . S
C473 C117 0.396 . S
C487 C7 1.888 . S
C491 N46 1.953 . S
C505 C40 1.880 . S
C509 N79 1.955 . S
C523 N112 1.952 . S
C527 C73 1.888 . S
C541 N13 1.956 . S
C545 C106 1.876 . S
C559 C139 1.877 . S
C563 N244 1.956 . S
C577 N145 1.955 . S
C581 C172 1.879 . S
C595 C205 1.888 . S
C599 N178 1.953 . S
C613 C238 1.889 . S
C617 N211 1.952 . S
