# Generated by pormake.
# Topology wmi, (6)-cn, num edge types: 1
# Building blocks:
#     Node 0, Type 0, BuildingBlock: BETDAH_clean_sbu_0, # of connection points: 6
#     Node 1, Type 0, BuildingBlock: BETDAH_clean_sbu_0, # of connection points: 6
#     Node 2, Type 0, BuildingBlock: BETDAH_clean_sbu_0, # of connection points: 6
#     Node 3, Type 0, BuildingBlock: BETDAH_clean_sbu_0, # of connection points: 6
#     Node 4, Type 0, BuildingBlock: BETDAH_clean_sbu_0, # of connection points: 6
#     Node 5, Type 0, BuildingBlock: BETDAH_clean_sbu_0, # of connection points: 6
#     Node 6, Type 0, BuildingBlock: BETDAH_clean_sbu_0, # of connection points: 6
#     Node 7, Type 0, BuildingBlock: BETDAH_clean_sbu_0, # of connection points: 6
#     Node 8, Type 0, BuildingBlock: BETDAH_clean_sbu_0, # of connection points: 6
#     Node 9, Type 0, BuildingBlock: BETDAH_clean_sbu_0, # of connection points: 6
#     Node 10, Type 0, BuildingBlock: BETDAH_clean_sbu_0, # of connection points: 6
#     Node 11, Type 0, BuildingBlock: BETDAH_clean_sbu_0, # of connection points: 6
#     Node 12, Type 0, BuildingBlock: BETDAH_clean_sbu_0, # of connection points: 6
#     Node 13, Type 0, BuildingBlock: BETDAH_clean_sbu_0, # of connection points: 6
#     Node 14, Type 0, BuildingBlock: BETDAH_clean_sbu_0, # of connection points: 6
#     Node 15, Type 0, BuildingBlock: BETDAH_clean_sbu_0, # of connection points: 6
#     Node 16, Type 0, BuildingBlock: BETDAH_clean_sbu_0, # of connection points: 6
#     Node 17, Type 0, BuildingBlock: BETDAH_clean_sbu_0, # of connection points: 6
#     Edge 18, Type (0, 0), BuildingBlock: XIVTED_clean_linker_0, # of connection points: 2
#     Edge 19, Type (0, 0), BuildingBlock: XIVTED_clean_linker_0, # of connection points: 2
#     Edge 20, Type (0, 0), BuildingBlock: XIVTED_clean_linker_0, # of connection points: 2
#     Edge 21, Type (0, 0), BuildingBlock: XIVTED_clean_linker_0, # of connection points: 2
#     Edge 22, Type (0, 0), BuildingBlock: XIVTED_clean_linker_0, # of connection points: 2
#     Edge 23, Type (0, 0), BuildingBlock: XIVTED_clean_linker_0, # of connection points: 2
#     Edge 24, Type (0, 0), BuildingBlock: XIVTED_clean_linker_0, # of connection points: 2
#     Edge 25, Type (0, 0), BuildingBlock: XIVTED_clean_linker_0, # of connection points: 2
#     Edge 26, Type (0, 0), BuildingBlock: XIVTED_clean_linker_0, # of connection points: 2
#     Edge 27, Type (0, 0), BuildingBlock: XIVTED_clean_linker_0, # of connection points: 2
#     Edge 28, Type (0, 0), BuildingBlock: XIVTED_clean_linker_0, # of connection points: 2
#     Edge 29, Type (0, 0), BuildingBlock: XIVTED_clean_linker_0, # of connection points: 2
#     Edge 30, Type (0, 0), BuildingBlock: XIVTED_clean_linker_0, # of connection points: 2
#     Edge 31, Type (0, 0), BuildingBlock: XIVTED_clean_linker_0, # of connection points: 2
#     Edge 32, Type (0, 0), BuildingBlock: XIVTED_clean_linker_0, # of connection points: 2
#     Edge 33, Type (0, 0), BuildingBlock: XIVTED_clean_linker_0, # of connection points: 2
#     Edge 34, Type (0, 0), BuildingBlock: XIVTED_clean_linker_0, # of connection points: 2
#     Edge 35, Type (0, 0), BuildingBlock: XIVTED_clean_linker_0, # of connection points: 2
#     Edge 36, Type (0, 0), BuildingBlock: XIVTED_clean_linker_0, # of connection points: 2
#     Edge 37, Type (0, 0), BuildingBlock: XIVTED_clean_linker_0, # of connection points: 2
#     Edge 38, Type (0, 0), BuildingBlock: XIVTED_clean_linker_0, # of connection points: 2
#     Edge 39, Type (0, 0), BuildingBlock: XIVTED_clean_linker_0, # of connection points: 2
#     Edge 40, Type (0, 0), BuildingBlock: XIVTED_clean_linker_0, # of connection points: 2
#     Edge 41, Type (0, 0), BuildingBlock: XIVTED_clean_linker_0, # of connection points: 2
#     Edge 42, Type (0, 0), BuildingBlock: XIVTED_clean_linker_0, # of connection points: 2
#     Edge 43, Type (0, 0), BuildingBlock: XIVTED_clean_linker_0, # of connection points: 2
#     Edge 44, Type (0, 0), BuildingBlock: XIVTED_clean_linker_0, # of connection points: 2
#     Edge 45, Type (0, 0), BuildingBlock: XIVTED_clean_linker_0, # of connection points: 2
#     Edge 46, Type (0, 0), BuildingBlock: XIVTED_clean_linker_0, # of connection points: 2
#     Edge 47, Type (0, 0), BuildingBlock: XIVTED_clean_linker_0, # of connection points: 2
#     Edge 48, Type (0, 0), BuildingBlock: XIVTED_clean_linker_0, # of connection points: 2
#     Edge 49, Type (0, 0), BuildingBlock: XIVTED_clean_linker_0, # of connection points: 2
#     Edge 50, Type (0, 0), BuildingBlock: XIVTED_clean_linker_0, # of connection points: 2
#     Edge 51, Type (0, 0), BuildingBlock: XIVTED_clean_linker_0, # of connection points: 2
#     Edge 52, Type (0, 0), BuildingBlock: XIVTED_clean_linker_0, # of connection points: 2
#     Edge 53, Type (0, 0), BuildingBlock: XIVTED_clean_linker_0, # of connection points: 2
#     Edge 54, Type (0, 0), BuildingBlock: XIVTED_clean_linker_0, # of connection points: 2
#     Edge 55, Type (0, 0), BuildingBlock: XIVTED_clean_linker_0, # of connection points: 2
#     Edge 56, Type (0, 0), BuildingBlock: XIVTED_clean_linker_0, # of connection points: 2
#     Edge 57, Type (0, 0), BuildingBlock: XIVTED_clean_linker_0, # of connection points: 2
#     Edge 58, Type (0, 0), BuildingBlock: XIVTED_clean_linker_0, # of connection points: 2
#     Edge 59, Type (0, 0), BuildingBlock: XIVTED_clean_linker_0, # of connection points: 2
#     Edge 60, Type (0, 0), BuildingBlock: XIVTED_clean_linker_0, # of connection points: 2
#     Edge 61, Type (0, 0), BuildingBlock: XIVTED_clean_linker_0, # of connection points: 2
#     Edge 62, Type (0, 0), BuildingBlock: XIVTED_clean_linker_0, # of connection points: 2
#     Edge 63, Type (0, 0), BuildingBlock: XIVTED_clean_linker_0, # of connection points: 2
#     Edge 64, Type (0, 0), BuildingBlock: XIVTED_clean_linker_0, # of connection points: 2
#     Edge 65, Type (0, 0), BuildingBlock: XIVTED_clean_linker_0, # of connection points: 2
#     Edge 66, Type (0, 0), BuildingBlock: XIVTED_clean_linker_0, # of connection points: 2
#     Edge 67, Type (0, 0), BuildingBlock: XIVTED_clean_linker_0, # of connection points: 2
#     Edge 68, Type (0, 0), BuildingBlock: XIVTED_clean_linker_0, # of connection points: 2
#     Edge 69, Type (0, 0), BuildingBlock: XIVTED_clean_linker_0, # of connection points: 2
#     Edge 70, Type (0, 0), BuildingBlock: XIVTED_clean_linker_0, # of connection points: 2
#     Edge 71, Type (0, 0), BuildingBlock: XIVTED_clean_linker_0, # of connection points: 2
# Relax obj value: 0.101
# Max RMSD: 0.218
# Mean RMSD: 0.218
data_MOF--net-wmi--node1-BETDAH_clean_sbu_0--edge1-XIVTED_clean_linker_0
_symmetry_space_group_name_H-M    P1
_symmetry_Int_Tables_number       1
_symmetry_cell_setting            triclinic
loop_
_symmetry_equiv_pos_as_xyz
'x, y, z'
_cell_length_a     40.625764
_cell_length_b     40.673848
_cell_length_c     77.340747
_cell_angle_alpha  89.892853
_cell_angle_beta   90.112761
_cell_angle_gamma 120.03579
loop_
_atom_site_label
_atom_site_type_symbol
_atom_site_fract_x
_atom_site_fract_y
_atom_site_fract_z
_atom_type_partial_charge
Ho0 Ho 0.5369 0.0495 0.1291 0.0
Ho1 Ho 0.45432 1.00452 0.11834 0.0
C2 C 0.49468 0.09449 0.11745 0.0
C3 C 0.60678 0.09816 0.13701 0.0
C4 C 0.63779 0.13773 0.13503 0.0
C5 C 0.64384 0.15855 0.1197 0.0
C6 C 0.67653 0.19441 0.11785 0.0
C7 C 0.70369 0.20985 0.13127 0.0
C8 C 0.69613 0.18946 0.14687 0.0
C9 C 0.66356 0.15395 0.14871 0.0
C10 C 0.48323 0.02033 0.15464 0.0
C11 C 0.50625 0.96385 0.12212 0.0
C12 C 0.38447 0.9529 0.12242 0.0
C13 C 0.36339 0.91152 0.11887 0.0
C14 C 0.36612 0.88631 0.13053 0.0
C15 C 0.34369 0.84723 0.12841 0.0
C16 C 0.3178 0.83223 0.11466 0.0
C17 C 0.31678 0.85708 0.1023 0.0
C18 C 0.33935 0.89651 0.10443 0.0
C19 C 0.49286 0.01541 0.08895 0.0
O20 O 0.52675 0.09372 0.11712 0.0
O21 O 0.46131 0.06319 0.11981 0.0
O22 O 0.57772 0.09251 0.14636 0.0
O23 O 0.59707 0.07574 0.12357 0.0
O24 O 0.51341 0.01708 0.15458 0.0
O25 O 0.48294 0.03696 0.14107 0.0
O26 O 0.47214 0.96036 0.12324 0.0
O27 O 0.53745 0.9971 0.12233 0.0
O28 O 0.39567 0.97651 0.10925 0.0
O29 O 0.41033 0.96341 0.13448 0.0
O30 O 0.45636 0.99982 0.09013 0.0
O31 O 0.50896 0.02785 0.10358 0.0
H32 H 0.62397 0.1467 0.10903 0.0
H33 H 0.68094 0.20958 0.10578 0.0
H34 H 0.71632 0.19984 0.15744 0.0
H35 H 0.65931 0.13837 0.16066 0.0
H36 H 0.38462 0.8966 0.14172 0.0
H37 H 0.34538 0.82866 0.13799 0.0
H38 H 0.29697 0.84612 0.09158 0.0
H39 H 0.33697 0.91517 0.09514 0.0
Ho40 Ho 1.01653 0.51011 0.12994 0.0
Ho41 Ho 0.06261 0.47167 0.11752 0.0
C42 C 0.97225 0.4206 0.11975 0.0
C43 C 0.96838 0.53251 0.13633 0.0
C44 C 0.92807 0.52212 0.13528 0.0
C45 C 0.90521 0.50401 0.1208 0.0
C46 C 0.86884 0.49983 0.11942 0.0
C47 C 0.85494 0.51424 0.13235 0.0
C48 C 0.87744 0.53032 0.14722 0.0
C49 C 0.91334 0.53397 0.14867 0.0
C50 C 0.04977 0.48779 0.15434 0.0
C51 C 0.10284 0.56469 0.12127 0.0
C52 C 0.11422 0.45352 0.12146 0.0
C53 C 0.15546 0.47314 0.1177 0.0
C54 C 0.18175 0.49877 0.12979 0.0
C55 C 0.22075 0.51521 0.12701 0.0
C56 C 0.23433 0.50611 0.11219 0.0
C57 C 0.20823 0.48203 0.09969 0.0
C58 C 0.16913 0.46569 0.10241 0.0
C59 C 0.04457 0.49772 0.0893 0.0
O60 O 0.97092 0.45218 0.12177 0.0
O61 O 1.00443 0.4196 0.11926 0.0
O62 O 0.9773 0.51413 0.14753 0.0
O63 O 0.98768 0.54007 0.12189 0.0
O64 O 0.04972 0.51965 0.15517 0.0
O65 O 0.0326 0.47054 0.1409 0.0
O66 O 0.10668 0.53435 0.11965 0.0
O67 O 0.07007 0.56283 0.12417 0.0
O68 O 0.09037 0.44122 0.10834 0.0
O69 O 0.10428 0.46924 0.13357 0.0
O70 O 0.06194 0.47827 0.08898 0.0
O71 O 0.03602 0.50095 0.10477 0.0
H72 H 0.91585 0.49419 0.11036 0.0
H73 H 0.85218 0.48626 0.10798 0.0
H74 H 0.86859 0.54232 0.15743 0.0
H75 H 0.93049 0.54791 0.15997 0.0
H76 H 0.1723 0.50528 0.14173 0.0
H77 H 0.24018 0.5333 0.13696 0.0
H78 H 0.21808 0.47482 0.08807 0.0
H79 H 0.14966 0.44638 0.0928 0.0
Ho80 Ho 0.55796 0.53106 0.12952 0.0
Ho81 Ho 0.59533 0.61382 0.11962 0.0
C82 C 0.64567 0.57437 0.11913 0.0
C83 C 0.53715 0.46114 0.13709 0.0
C84 C 0.54587 0.43013 0.13493 0.0
C85 C 0.54683 0.41548 0.11861 0.0
C86 C 0.54835 0.38188 0.11728 0.0
C87 C 0.54877 0.36219 0.13223 0.0
C88 C 0.55045 0.37847 0.14847 0.0
C89 C 0.5489 0.41194 0.14979 0.0
C90 C 0.57923 0.58345 0.15542 0.0
C91 C 0.50231 0.56078 0.12193 0.0
C92 C 0.61397 0.68348 0.12492 0.0
C93 C 0.59562 0.70639 0.12146 0.0
C94 C 0.58232 0.71811 0.13556 0.0
C95 C 0.56475 0.73967 0.13304 0.0
C96 C 0.56017 0.75036 0.11632 0.0
C97 C 0.57264 0.73786 0.1021 0.0
C98 C 0.5901 0.71593 0.10464 0.0
C99 C 0.5706 0.57714 0.08958 0.0
O100 O 0.61317 0.54213 0.11821 0.0
O101 O 0.64716 0.60727 0.12184 0.0
O102 O 0.56039 0.49005 0.14659 0.0
O103 O 0.52396 0.471 0.12382 0.0
O104 O 0.54571 0.55356 0.15449 0.0
O105 O 0.59768 0.58427 0.14235 0.0
O106 O 0.53261 0.59522 0.12268 0.0
O107 O 0.50508 0.53005 0.12262 0.0
O108 O 0.62738 0.67312 0.11186 0.0
O109 O 0.59599 0.65631 0.13619 0.0
O110 O 0.5913 0.61354 0.09136 0.0
O111 O 0.56573 0.55995 0.10404 0.0
H112 H 0.54469 0.42896 0.10691 0.0
H113 H 0.54694 0.37022 0.10455 0.0
H114 H 0.55165 0.36465 0.16025 0.0
H115 H 0.54834 0.42273 0.16252 0.0
H116 H 0.5859 0.7109 0.14867 0.0
H117 H 0.55609 0.74916 0.14432 0.0
H118 H 0.56915 0.74523 0.08903 0.0
H119 H 0.59946 0.70676 0.09348 0.0
Ho120 Ho 0.0548 0.53169 0.92702 0.0
Ho121 Ho 1.01185 0.44672 0.93977 0.0
C122 C 0.10245 0.48991 0.93779 0.0
C123 C 0.1019 0.60234 0.92024 0.0
C124 C 0.1424 0.63203 0.92123 0.0
C125 C 0.16424 0.63905 0.93636 0.0
C126 C 0.20017 0.67188 0.93766 0.0
C127 C 0.21439 0.69812 0.92393 0.0
C128 C 0.19378 0.68925 0.9084 0.0
C129 C 0.1582 0.65652 0.90707 0.0
C130 C 1.02062 0.47595 0.90293 0.0
C131 C 0.96858 0.49619 0.93599 0.0
C132 C 0.96302 0.37533 0.93885 0.0
C133 C 0.92106 0.35446 0.94087 0.0
C134 C 0.89775 0.35662 0.92796 0.0
C135 C 0.85832 0.33487 0.92912 0.0
C136 C 0.84107 0.31031 0.94317 0.0
C137 C 0.86404 0.30986 0.95668 0.0
C138 C 0.90378 0.3317 0.9555 0.0
C139 C 0.03042 0.49275 0.96759 0.0
O140 O 0.10146 0.52167 0.93574 0.0
O141 O 0.07131 0.45576 0.93811 0.0
O142 O 0.09275 0.57501 0.90907 0.0
O143 O 0.08265 0.59067 0.93469 0.0
O144 O 1.01985 0.50746 0.90243 0.0
O145 O 0.03942 0.47604 0.91586 0.0
O146 O 0.96597 0.46237 0.93508 0.0
O147 O 1.00123 0.52831 0.93532 0.0
O148 O 0.98337 0.39185 0.95265 0.0
O149 O 0.97625 0.39642 0.92498 0.0
O150 O 1.0142 0.45613 0.96843 0.0
O151 O 0.03701 0.50278 0.95192 0.0
H152 H 0.15285 0.62028 0.94742 0.0
H153 H 0.2156 0.67801 0.94977 0.0
H154 H 0.20438 0.70867 0.89753 0.0
H155 H 0.14206 0.65144 0.89523 0.0
H156 H 0.90981 0.37428 0.91665 0.0
H157 H 0.84126 0.33621 0.91865 0.0
H158 H 0.85142 0.29112 0.96766 0.0
H159 H 0.92099 0.32989 0.96576 0.0
Ho160 Ho 0.53594 0.54721 0.92621 0.0
Ho161 Ho 0.62015 0.58665 0.93967 0.0
C162 C 0.57787 0.63489 0.93882 0.0
C163 C 0.46609 0.5251 0.91833 0.0
C164 C 0.4352 0.53382 0.92038 0.0
C165 C 0.42725 0.5453 0.93623 0.0
C166 C 0.39368 0.54681 0.93821 0.0
C167 C 0.36771 0.53649 0.92442 0.0
C168 C 0.37732 0.52789 0.90831 0.0
C169 C 0.41078 0.52667 0.90631 0.0
C170 C 0.59261 0.56957 0.90255 0.0
C171 C 0.56897 0.49383 0.93479 0.0
C172 C 0.69129 0.60859 0.93703 0.0
C173 C 0.7135 0.58897 0.93911 0.0
C174 C 0.72488 0.57734 0.92428 0.0
C175 C 0.74591 0.55892 0.92568 0.0
C176 C 0.75642 0.55183 0.94198 0.0
C177 C 0.74439 0.56274 0.95688 0.0
C178 C 0.7231 0.5811 0.95547 0.0
C179 C 0.57347 0.55682 0.96704 0.0
O180 O 0.54575 0.60234 0.93701 0.0
O181 O 0.61183 0.6375 0.93853 0.0
O182 O 0.49488 0.54808 0.90863 0.0
O183 O 0.47606 0.51271 0.93189 0.0
O184 O 0.56083 0.53766 0.90158 0.0
O185 O 0.59222 0.58744 0.9157 0.0
O186 O 0.60313 0.52461 0.93608 0.0
O187 O 0.53754 0.49515 0.93246 0.0
O188 O 0.67683 0.61518 0.95089 0.0
O189 O 0.66774 0.5968 0.92395 0.0
O190 O 0.61025 0.57626 0.96816 0.0
O191 O 0.56353 0.55528 0.9514 0.0
H192 H 0.44596 0.55135 0.94723 0.0
H193 H 0.38688 0.55363 0.95075 0.0
H194 H 0.358 0.52034 0.89744 0.0
H195 H 0.41659 0.51814 0.89395 0.0
H196 H 0.71791 0.58292 0.91148 0.0
H197 H 0.75513 0.55153 0.91393 0.0
H198 H 0.75167 0.55735 0.96964 0.0
H199 H 0.71447 0.58933 0.96716 0.0
Ho200 Ho 0.51996 1.01005 0.92625 0.0
Ho201 Ho 0.48025 0.05453 0.94034 0.0
C202 C 0.43177 0.96382 0.93888 0.0
C203 C 0.54212 0.96207 0.91916 0.0
C204 C 0.53172 0.92181 0.92104 0.0
C205 C 0.52544 0.90393 0.93725 0.0
C206 C 0.52279 0.86829 0.93869 0.0
C207 C 0.52657 0.8501 0.92397 0.0
C208 C 0.52962 0.86675 0.90767 0.0
C209 C 0.5323 0.90223 0.90625 0.0
C210 C 0.49553 0.04309 0.90277 0.0
C211 C 0.573 0.09692 0.9343 0.0
C212 C 0.45904 0.10429 0.93868 0.0
C213 C 0.47987 0.14613 0.94084 0.0
C214 C 0.50466 0.16961 0.92778 0.0
C215 C 0.52138 0.2089 0.9288 0.0
C216 C 0.51385 0.22579 0.94287 0.0
C217 C 0.49123 0.20278 0.95653 0.0
C218 C 0.4742 0.16315 0.95548 0.0
C219 C 0.51154 0.03789 0.96718 0.0
O220 O 0.46422 0.96436 0.93638 0.0
O221 O 0.42926 0.99523 0.93942 0.0
O222 O 0.52137 0.96948 0.90866 0.0
O223 O 0.55298 0.98357 0.93299 0.0
O224 O 0.52708 0.04255 0.9012 0.0
O225 O 0.47898 0.02576 0.91637 0.0
O226 O 0.54207 0.09981 0.93616 0.0
O227 O 0.57204 0.06445 0.9317 0.0
O228 O 0.45315 0.08318 0.95248 0.0
O229 O 0.46895 0.09188 0.92522 0.0
O230 O 0.49173 0.0547 0.96868 0.0
O231 O 0.51242 0.0297 0.95147 0.0
H232 H 0.52445 0.9182 0.94888 0.0
H233 H 0.5203 0.85622 0.95145 0.0
H234 H 0.53165 0.8531 0.89603 0.0
H235 H 0.53677 0.91527 0.89359 0.0
H236 H 0.51025 0.15774 0.91639 0.0
H237 H 0.53904 0.22611 0.9182 0.0
H238 H 0.48496 0.21525 0.96749 0.0
H239 H 0.45557 0.14582 0.9658 0.0
Ho240 Ho 0.20238 0.38026 0.46311 0.0
Ho241 Ho 0.12378 0.33877 0.45016 0.0
C242 C 0.16337 0.42802 0.45212 0.0
C243 C 0.27275 0.42787 0.47073 0.0
C244 C 0.30328 0.46757 0.46801 0.0
C245 C 0.31133 0.48502 0.45165 0.0
C246 C 0.34422 0.52042 0.44914 0.0
C247 C 0.36955 0.53894 0.46293 0.0
C248 C 0.3599 0.52231 0.47947 0.0
C249 C 0.3272 0.48707 0.48194 0.0
C250 C 0.14679 0.34845 0.48769 0.0
C251 C 0.17141 0.29405 0.45728 0.0
C252 C 0.05271 0.28854 0.44668 0.0
C253 C 0.03117 0.24654 0.44615 0.0
C254 C 0.0358 0.22465 0.45901 0.0
C255 C 1.01302 0.18507 0.45901 0.0
C256 C 0.9853 0.1665 0.44612 0.0
C257 C 0.98208 0.18838 0.43282 0.0
C258 C 1.00474 0.22798 0.43287 0.0
C259 C 0.17442 0.36805 0.424 0.0
O260 O 0.19468 0.42611 0.45141 0.0
O261 O 0.12987 0.39674 0.45398 0.0
O262 O 0.24422 0.42227 0.4805 0.0
O263 O 0.26223 0.40494 0.45746 0.0
O264 O 0.17783 0.34682 0.48813 0.0
O265 O 0.14727 0.36668 0.47453 0.0
O266 O 0.13778 0.29163 0.45542 0.0
O267 O 0.20258 0.32697 0.45912 0.0
O268 O 0.07493 0.30582 0.43355 0.0
O269 O 0.06836 0.30402 0.46147 0.0
O270 O 0.14252 0.36809 0.42483 0.0
O271 O 0.17825 0.35264 0.4376 0.0
H272 H 0.29303 0.47075 0.44071 0.0
H273 H 0.35037 0.53276 0.43631 0.0
H274 H 0.37872 0.53541 0.49038 0.0
H275 H 0.32151 0.47418 0.49467 0.0
H276 H 0.05646 0.23809 0.46928 0.0
H277 H 1.01675 0.16904 0.46926 0.0
H278 H 0.96091 0.17506 0.42274 0.0
H279 H 1.00092 0.24423 0.42275 0.0
Ho280 Ho 0.68561 0.84632 0.46311 0.0
Ho281 Ho 0.7284 0.80458 0.44925 0.0
C282 C 0.63776 0.75561 0.4537 0.0
C283 C 0.63826 0.87014 0.46853 0.0
C284 C 0.59734 0.85815 0.46804 0.0
C285 C 0.57617 0.84698 0.45259 0.0
C286 C 0.54012 0.84362 0.45184 0.0
C287 C 0.52479 0.85159 0.46649 0.0
C288 C 0.54466 0.85947 0.48223 0.0
C289 C 0.58056 0.86279 0.48297 0.0
C290 C 0.71828 0.82193 0.48672 0.0
C291 C 0.77251 0.89784 0.4548 0.0
C292 C 0.77838 0.78368 0.45136 0.0
C293 C 0.82026 0.80465 0.44909 0.0
C294 C 0.84386 0.83092 0.46168 0.0
C295 C 0.88326 0.84826 0.46047 0.0
C296 C 0.90017 0.83981 0.44668 0.0
C297 C 0.87689 0.81543 0.43351 0.0
C298 C 0.8372 0.79786 0.43474 0.0
C299 C 0.71194 0.83523 0.42214 0.0
O300 O 0.63831 0.78773 0.45717 0.0
O301 O 0.66897 0.7536 0.45062 0.0
O302 O 0.64964 0.85567 0.48068 0.0
O303 O 0.65579 0.87433 0.45378 0.0
O304 O 0.71809 0.85369 0.48825 0.0
O305 O 0.70065 0.80528 0.4732 0.0
O306 O 0.7745 0.86643 0.45288 0.0
O307 O 0.74057 0.89781 0.4576 0.0
O308 O 0.7571 0.77709 0.43755 0.0
O309 O 0.76595 0.794 0.46468 0.0
O310 O 0.72816 0.81484 0.42085 0.0
O311 O 0.70403 0.83698 0.43785 0.0
H312 H 0.5882 0.84284 0.44087 0.0
H313 H 0.52552 0.8374 0.43952 0.0
H314 H 0.53325 0.86491 0.49383 0.0
H315 H 0.59614 0.87113 0.49507 0.0
H316 H 0.83204 0.83744 0.47282 0.0
H317 H 0.90054 0.86741 0.47066 0.0
H318 H 0.88924 0.80838 0.42275 0.0
H319 H 0.81977 0.77809 0.42477 0.0
Ho320 Ho 0.22138 0.86203 0.46301 0.0
Ho321 Ho 0.26166 0.94569 0.45062 0.0
C322 C 0.30977 0.90366 0.45159 0.0
C323 C 0.1992 0.79221 0.47101 0.0
C324 C 0.20808 0.76134 0.46933 0.0
C325 C 0.2199 0.75302 0.45366 0.0
C326 C 0.22194 0.71968 0.45207 0.0
C327 C 0.21179 0.69421 0.46605 0.0
C328 C 0.20263 0.70412 0.48196 0.0
C329 C 0.2009 0.73737 0.48358 0.0
C330 C 0.24346 0.91739 0.48733 0.0
C331 C 0.16837 0.89495 0.45441 0.0
C332 C 0.28189 0.01608 0.45405 0.0
C333 C 0.26182 0.03749 0.45072 0.0
C334 C 0.23661 0.03783 0.46313 0.0
C335 C 0.21941 0.05978 0.46061 0.0
C336 C 0.22722 0.08216 0.4457 0.0
C337 C 0.25094 0.0805 0.43292 0.0
C338 C 0.26808 0.05838 0.4354 0.0
C339 C 0.23282 0.90229 0.42233 0.0
O340 O 0.27682 0.8717 0.45253 0.0
O341 O 0.31254 0.93758 0.45229 0.0
O342 O 0.22169 0.82101 0.48079 0.0
O343 O 0.18738 0.80213 0.45724 0.0
O344 O 0.21048 0.88669 0.48741 0.0
O345 O 0.26187 0.9171 0.47439 0.0
O346 O 0.19942 0.92891 0.45351 0.0
O347 O 0.16928 0.86337 0.45661 0.0
O348 O 0.29217 1.00342 0.44068 0.0
O349 O 0.26791 0.99138 0.46666 0.0
O350 O 0.25308 0.93902 0.42213 0.0
O351 O 0.2301 0.8899 0.43766 0.0
H352 H 0.22595 0.77133 0.44251 0.0
H353 H 0.22916 0.7127 0.43966 0.0
H354 H 0.19524 0.68529 0.493 0.0
H355 H 0.19209 0.74344 0.49581 0.0
H356 H 0.23092 0.022 0.47509 0.0
H357 H 0.20165 0.06081 0.47078 0.0
H358 H 0.25717 0.09726 0.42122 0.0
H359 H 0.28697 0.05842 0.42553 0.0
Ho360 Ho 0.7228 0.86329 0.26099 0.0
Ho361 Ho 0.67769 0.77826 0.27244 0.0
C362 C 0.76814 0.81894 0.27081 0.0
C363 C 0.77014 0.93424 0.2547 0.0
C364 C 0.81057 0.96414 0.25559 0.0
C365 C 0.83325 0.96971 0.27026 0.0
C366 C 0.86944 1.00217 0.27158 0.0
C367 C 0.88342 0.0298 0.25834 0.0
C368 C 0.86132 0.02255 0.24326 0.0
C369 C 0.8255 0.99011 0.24192 0.0
C370 C 0.68956 0.80889 0.23619 0.0
C371 C 0.63652 0.82964 0.26914 0.0
C372 C 0.62737 0.70787 0.26916 0.0
C373 C 0.58567 0.68696 0.27197 0.0
C374 C 0.56118 0.68332 0.25827 0.0
C375 C 0.52191 0.66166 0.26023 0.0
C376 C 0.50618 0.64317 0.27589 0.0
C377 C 0.53018 0.64812 0.28991 0.0
C378 C 0.56974 0.66992 0.28798 0.0
C379 C 0.69205 0.82126 0.301 0.0
O380 O 0.76889 0.85168 0.26928 0.0
O381 O 0.73629 0.7855 0.27086 0.0
O382 O 0.7607 0.90736 0.24326 0.0
O383 O 0.75145 0.92189 0.26925 0.0
O384 O 0.68783 0.83992 0.23618 0.0
O385 O 0.70773 0.80851 0.24923 0.0
O386 O 0.63315 0.7956 0.26771 0.0
O387 O 0.66964 0.86121 0.26896 0.0
O388 O 0.64961 0.72088 0.28278 0.0
O389 O 0.63906 0.73207 0.25632 0.0
O390 O 0.67462 0.78452 0.30101 0.0
O391 O 0.70212 0.83346 0.28572 0.0
H392 H 0.82253 0.94978 0.28093 0.0
H393 H 0.88589 1.00611 0.28321 0.0
H394 H 0.87047 0.04297 0.23281 0.0
H395 H 0.80853 0.98633 0.23047 0.0
H396 H 0.57231 0.69615 0.24578 0.0
H397 H 0.50377 0.65772 0.24921 0.0
H398 H 0.51844 0.63346 0.30201 0.0
H399 H 0.58779 0.67238 0.2988 0.0
Ho400 Ho 0.20267 0.88252 0.26029 0.0
Ho401 Ho 0.28677 0.91907 0.27325 0.0
C402 C 0.24617 0.96918 0.27357 0.0
C403 C 0.13279 0.8614 0.25272 0.0
C404 C 0.10213 0.87047 0.25449 0.0
C405 C 0.098 0.88839 0.26916 0.0
C406 C 0.06561 0.8921 0.27098 0.0
C407 C 0.03679 0.87766 0.25825 0.0
C408 C 0.04244 0.86154 0.24325 0.0
C409 C 0.07473 0.85817 0.2414 0.0
C410 C 0.25919 0.9081 0.23616 0.0
C411 C 0.23334 0.82674 0.26776 0.0
C412 C 0.3571 0.93841 0.26967 0.0
C413 C 0.37991 0.9198 0.27273 0.0
C414 C 0.39107 0.90655 0.25839 0.0
C415 C 0.41268 0.88896 0.26054 0.0
C416 C 0.42407 0.88441 0.2771 0.0
C417 C 0.41233 0.89699 0.29154 0.0
C418 C 0.39032 0.91445 0.28939 0.0
C419 C 0.24136 0.88833 0.30085 0.0
O420 O 0.21359 0.93697 0.27218 0.0
O421 O 0.27975 0.97096 0.27249 0.0
O422 O 0.16153 0.8837 0.24287 0.0
O423 O 0.14281 0.8497 0.26647 0.0
O424 O 0.22728 0.87636 0.23471 0.0
O425 O 0.25897 0.92359 0.25012 0.0
O426 O 0.26799 0.85692 0.26837 0.0
O427 O 0.20255 0.82944 0.2661 0.0
O428 O 0.34483 0.9493 0.283 0.0
O429 O 0.33146 0.92231 0.25754 0.0
O430 O 0.27819 0.90688 0.30157 0.0
O431 O 0.23043 0.88797 0.28543 0.0
H432 H 0.11915 0.89851 0.27935 0.0
H433 H 0.06277 0.90542 0.28255 0.0
H434 H 1.02099 0.84948 0.23323 0.0
H435 H 0.07749 0.84435 0.22997 0.0
H436 H 0.38345 0.91022 0.24538 0.0
H437 H 0.4217 0.88027 0.24911 0.0
H438 H 0.42041 0.89362 0.30449 0.0
H439 H 0.3818 0.92398 0.3007 0.0
Ho440 Ho 0.18324 0.34174 0.2602 0.0
Ho441 Ho 0.1454 0.38873 0.2733 0.0
C442 C 0.0939 0.29822 0.2707 0.0
C443 C 0.20586 0.29383 0.2538 0.0
C444 C 0.196 0.25365 0.25519 0.0
C445 C 0.18841 0.23464 0.27116 0.0
C446 C 0.18682 0.19945 0.27238 0.0
C447 C 0.19303 0.18287 0.25768 0.0
C448 C 0.19751 0.20062 0.24155 0.0
C449 C 0.19908 0.23563 0.24035 0.0
C450 C 0.1636 0.37807 0.23636 0.0
C451 C 0.23801 0.4284 0.26868 0.0
C452 C 0.12521 0.4392 0.27124 0.0
C453 C 0.14582 0.48079 0.27421 0.0
C454 C 0.16818 0.50582 0.26097 0.0
C455 C 0.18587 0.54504 0.26325 0.0
C456 C 0.18146 0.56026 0.27876 0.0
C457 C 0.16054 0.53536 0.29229 0.0
C458 C 0.14285 0.49601 0.29003 0.0
C459 C 0.17256 0.36904 0.30082 0.0
O460 O 0.12524 0.29652 0.26842 0.0
O461 O 0.09322 0.33053 0.27149 0.0
O462 O 0.18659 0.30198 0.24273 0.0
O463 O 0.21449 0.31407 0.26799 0.0
O464 O 0.19437 0.37596 0.23533 0.0
O465 O 0.14501 0.36014 0.24944 0.0
O466 O 0.20781 0.43282 0.26957 0.0
O467 O 0.23547 0.395 0.26691 0.0
O468 O 0.11731 0.4169 0.28476 0.0
O469 O 0.13678 0.42778 0.25798 0.0
O470 O 0.15434 0.38754 0.30189 0.0
O471 O 0.17444 0.36131 0.28514 0.0
H472 H 0.18563 0.24774 0.28283 0.0
H473 H 0.18323 0.18655 0.28501 0.0
H474 H 0.20149 0.18822 0.22992 0.0
H475 H 0.20474 0.24962 0.22788 0.0
H476 H 0.17123 0.49521 0.2486 0.0
H477 H 0.20134 0.56335 0.25249 0.0
H478 H 0.157 0.5463 0.30448 0.0
H479 H 0.12615 0.47755 0.30053 0.0
Ho480 Ho 0.87242 0.71309 0.79641 0.0
Ho481 Ho 0.78733 0.67195 0.78359 0.0
C482 C 0.83192 0.76264 0.78667 0.0
C483 C 0.94365 0.75949 0.8025 0.0
C484 C 0.97314 0.80011 0.80178 0.0
C485 C 0.97972 0.82244 0.78685 0.0
C486 C 1.01279 0.85816 0.7855 0.0
C487 C 0.03967 0.87165 0.79898 0.0
C488 C 0.03128 0.85072 0.81438 0.0
C489 C 0.99828 0.81537 0.81578 0.0
C490 C 0.8163 0.6808 0.82053 0.0
C491 C 0.83564 0.62713 0.78723 0.0
C492 C 0.71608 0.62308 0.78552 0.0
C493 C 0.69528 0.58118 0.78354 0.0
C494 C 0.69888 0.55813 0.79615 0.0
C495 C 0.67688 0.51873 0.79522 0.0
C496 C 0.65075 0.50129 0.7817 0.0
C497 C 0.64897 0.52398 0.76842 0.0
C498 C 0.67099 0.56369 0.76937 0.0
C499 C 0.83284 0.68682 0.75589 0.0
O500 O 0.86316 0.76061 0.7887 0.0
O501 O 0.79751 0.73198 0.78522 0.0
O502 O 0.91721 0.74922 0.81427 0.0
O503 O 0.93083 0.74141 0.78785 0.0
O504 O 0.84735 0.67898 0.8212 0.0
O505 O 0.81722 0.69936 0.80736 0.0
O506 O 0.80209 0.62528 0.78817 0.0
O507 O 0.86811 0.65931 0.78816 0.0
O508 O 0.73129 0.6437 0.77162 0.0
O509 O 0.7384 0.63609 0.799 0.0
O510 O 0.79621 0.67113 0.75503 0.0
O511 O 0.8433 0.69495 0.77148 0.0
H512 H 0.96051 0.8115 0.77592 0.0
H513 H 1.01865 0.87391 0.77351 0.0
H514 H 0.05139 0.86078 0.82501 0.0
H515 H 0.9936 0.79886 0.82747 0.0
H516 H 0.71783 0.57039 0.8071 0.0
H517 H 0.67921 0.50184 0.8055 0.0
H518 H 0.62902 0.51117 0.75785 0.0
H519 H 0.66809 0.5807 0.75935 0.0
Ho520 Ho 0.35229 0.17936 0.79688 0.0
Ho521 Ho 0.396 0.14322 0.78355 0.0
C522 C 0.30454 0.09137 0.78568 0.0
C523 C 0.30457 0.20205 0.80408 0.0
C524 C 0.26437 0.19219 0.80217 0.0
C525 C 0.2434 0.17677 0.7869 0.0
C526 C 0.20713 0.17278 0.78499 0.0
C527 C 0.19126 0.18429 0.79827 0.0
C528 C 0.21175 0.19761 0.81384 0.0
C529 C 0.24768 0.20139 0.81574 0.0
C530 C 0.3896 0.16107 0.82103 0.0
C531 C 0.43911 0.23293 0.79076 0.0
C532 C 0.44018 0.11526 0.78002 0.0
C533 C 0.4825 0.1343 0.77931 0.0
C534 C 0.50448 0.15314 0.79396 0.0
C535 C 0.54395 0.16955 0.79378 0.0
C536 C 0.56282 0.16752 0.77898 0.0
C537 C 0.54125 0.15028 0.76401 0.0
C538 C 0.50144 0.13373 0.7642 0.0
C539 C 0.38195 0.18267 0.75893 0.0
O540 O 0.30461 0.12193 0.79121 0.0
O541 O 0.33646 0.09132 0.78183 0.0
O542 O 0.3116 0.18089 0.81445 0.0
O543 O 0.32605 0.21273 0.79026 0.0
O544 O 0.38808 0.19212 0.82146 0.0
O545 O 0.37069 0.14154 0.8084 0.0
O546 O 0.44182 0.20189 0.79179 0.0
O547 O 0.40606 0.2314 0.79 0.0
O548 O 0.42264 0.12008 0.76686 0.0
O549 O 0.42585 0.11723 0.79487 0.0
O550 O 0.41377 0.18325 0.76124 0.0
O551 O 0.35888 0.16127 0.77043 0.0
H552 H 0.25545 0.16892 0.7763 0.0
H553 H 0.19197 0.16156 0.77295 0.0
H554 H 0.20112 0.20723 0.82434 0.0
H555 H 0.26325 0.21319 0.82766 0.0
H556 H 0.49128 0.15468 0.80581 0.0
H557 H 0.55969 0.18322 0.80543 0.0
H558 H 0.55495 0.14818 0.7524 0.0
H559 H 0.4854 0.1198 0.75265 0.0
Ho560 Ho 0.88922 0.19666 0.79676 0.0
Ho561 Ho 0.92745 0.28001 0.78371 0.0
C562 C 0.9777 0.23943 0.78526 0.0
C563 C 0.86694 0.1265 0.804 0.0
C564 C 0.87594 0.09602 0.80097 0.0
C565 C 0.87998 0.08518 0.78421 0.0
C566 C 0.8812 0.05174 0.78167 0.0
C567 C 0.87897 0.02905 0.79583 0.0
C568 C 0.87792 0.04147 0.81263 0.0
C569 C 0.87617 0.07457 0.81516 0.0
C570 C 0.91259 0.2527 0.82088 0.0
C571 C 0.83422 0.22825 0.78849 0.0
C572 C 0.9478 0.35048 0.78753 0.0
C573 C 0.92897 0.3732 0.78488 0.0
C574 C 0.91643 0.38443 0.79945 0.0
C575 C 0.89812 0.40546 0.79763 0.0
C576 C 0.89213 0.41616 0.78117 0.0
C577 C 0.90419 0.40451 0.76652 0.0
C578 C 0.92235 0.3831 0.76834 0.0
C579 C 0.89846 0.23574 0.75578 0.0
O580 O 0.94563 0.20692 0.7872 0.0
O581 O 0.97924 0.27288 0.78488 0.0
O582 O 0.89034 0.15485 0.81378 0.0
O583 O 0.85382 0.13709 0.79093 0.0
O584 O 0.88056 0.22098 0.82186 0.0
O585 O 0.92954 0.25241 0.8074 0.0
O586 O 0.8648 0.26235 0.78661 0.0
O587 O 0.83627 0.19744 0.79135 0.0
O588 O 0.9577 0.33798 0.77396 0.0
O589 O 0.93254 0.32504 0.79977 0.0
O590 O 0.91805 0.27253 0.75537 0.0
O591 O 0.89644 0.22366 0.77117 0.0
H592 H 0.88036 0.10148 0.77304 0.0
H593 H 0.88245 0.04282 0.76861 0.0
H594 H 0.87604 0.02435 0.82374 0.0
H595 H 0.87307 0.08239 0.82819 0.0
H596 H 0.92106 0.37717 0.81237 0.0
H597 H 0.88985 0.41443 0.8092 0.0
H598 H 0.89972 0.41207 0.75365 0.0
H599 H 0.9313 0.37453 0.75686 0.0
Ho600 Ho 0.38765 0.19743 0.59313 0.0
Ho601 Ho 0.34442 0.11304 0.60628 0.0
C602 C 0.43525 0.15639 0.60422 0.0
C603 C 0.43598 0.26765 0.58604 0.0
C604 C 0.47645 0.29712 0.58836 0.0
C605 C 0.49188 0.31187 0.60472 0.0
C606 C 0.52795 0.34433 0.60617 0.0
C607 C 0.5494 0.36272 0.5913 0.0
C608 C 0.53503 0.34587 0.57509 0.0
C609 C 0.49892 0.31371 0.57365 0.0
C610 C 0.35473 0.14083 0.56925 0.0
C611 C 0.30144 0.16343 0.6019 0.0
C612 C 0.29489 0.042 0.60408 0.0
C613 C 0.25301 0.02072 0.60634 0.0
C614 C 0.22925 0.02427 0.59409 0.0
C615 C 0.18985 1.00178 0.59525 0.0
C616 C 0.1731 0.97516 0.60865 0.0
C617 C 0.19656 0.97322 0.62152 0.0
C618 C 0.23623 0.99573 0.62033 0.0
C619 C 0.36252 0.15849 0.63405 0.0
O620 O 0.43363 0.18793 0.60309 0.0
O621 O 0.40415 0.12211 0.60442 0.0
O622 O 0.42876 0.23947 0.57565 0.0
O623 O 0.41365 0.25702 0.5996 0.0
O624 O 0.35361 0.17214 0.56827 0.0
O625 O 0.37289 0.14181 0.58255 0.0
O626 O 0.29854 0.12944 0.60291 0.0
O627 O 0.33409 0.19503 0.59987 0.0
O628 O 0.31601 0.05672 0.61791 0.0
O629 O 0.3073 0.06487 0.59076 0.0
O630 O 0.34635 0.12181 0.63478 0.0
O631 O 0.36978 0.1693 0.61842 0.0
H632 H 0.47543 0.29954 0.61635 0.0
H633 H 0.53782 0.35624 0.6189 0.0
H634 H 0.55103 0.35835 0.56337 0.0
H635 H 0.48786 0.30276 0.56088 0.0
H636 H 0.24096 0.04364 0.58326 0.0
H637 H 0.17245 1.00437 0.58531 0.0
H638 H 0.18439 0.9529 0.63199 0.0
H639 H 0.25379 0.99271 0.63005 0.0
Ho640 Ho 0.86784 0.21102 0.59375 0.0
Ho641 Ho 0.95292 0.254 0.6072 0.0
C642 C 0.91047 0.30192 0.60256 0.0
C643 C 0.79653 0.18649 0.58812 0.0
C644 C 0.76741 0.19804 0.58949 0.0
C645 C 0.75959 0.21005 0.60525 0.0
C646 C 0.72696 0.21324 0.60694 0.0
C647 C 0.70208 0.20486 0.5929 0.0
C648 C 0.71143 0.19578 0.57687 0.0
C649 C 0.74385 0.19239 0.57518 0.0
C650 C 0.92416 0.23194 0.57012 0.0
C651 C 0.90445 0.16117 0.60272 0.0
C652 C 0.02436 0.27674 0.60632 0.0
C653 C 0.04525 0.25566 0.60817 0.0
C654 C 0.05029 0.23784 0.59367 0.0
C655 C 0.07146 0.21962 0.59488 0.0
C656 C 0.08846 0.21898 0.61056 0.0
C657 C 0.08209 0.23499 0.62535 0.0
C658 C 0.06062 0.25327 0.62416 0.0
C659 C 0.90576 0.2246 0.63453 0.0
O660 O 0.87881 0.26944 0.59959 0.0
O661 O 0.944 0.30445 0.60537 0.0
O662 O 0.8227 0.20316 0.57625 0.0
O663 O 0.80966 0.18036 0.60252 0.0
O664 O 0.89186 0.20037 0.56916 0.0
O665 O 0.92393 0.25079 0.58294 0.0
O666 O 0.93808 0.19279 0.60266 0.0
O667 O 0.87197 0.16083 0.60146 0.0
O668 O 1.00779 0.28043 0.62012 0.0
O669 O 1.00326 0.26899 0.59245 0.0
O670 O 0.94241 0.24457 0.63574 0.0
O671 O 0.89633 0.22225 0.61879 0.0
H672 H 0.77745 0.21497 0.61647 0.0
H673 H 0.72007 0.22025 0.61943 0.0
H674 H 0.69242 0.18903 0.56592 0.0
H675 H 0.74932 0.18319 0.56292 0.0
H676 H 0.03891 0.2389 0.58116 0.0
H677 H 0.07611 0.20752 0.5833 0.0
H678 H 0.09538 0.23517 0.63753 0.0
H679 H 0.05705 0.26648 0.6356 0.0
Ho680 Ho 0.8503 0.67665 0.59414 0.0
Ho681 Ho 0.81085 0.72109 0.6076 0.0
C682 C 0.76207 0.6309 0.60585 0.0
C683 C 0.87169 0.62843 0.58631 0.0
C684 C 0.86319 0.58913 0.58947 0.0
C685 C 0.85841 0.57389 0.60622 0.0
C686 C 0.85625 0.53872 0.60879 0.0
C687 C 0.85866 0.51821 0.59467 0.0
C688 C 0.86105 0.5326 0.57789 0.0
C689 C 0.86337 0.56769 0.57535 0.0
C690 C 0.82942 0.71226 0.57042 0.0
C691 C 0.90382 0.76282 0.60294 0.0
C692 C 0.78961 0.77088 0.60608 0.0
C693 C 0.81038 0.81253 0.60878 0.0
C694 C 0.84276 0.83637 0.59886 0.0
C695 C 0.85996 0.87578 0.60013 0.0
C696 C 0.84542 0.8924 0.61142 0.0
C697 C 0.81455 0.86859 0.62215 0.0
C698 C 0.79714 0.82902 0.62079 0.0
C699 C 0.83968 0.70335 0.63513 0.0
O700 O 0.79467 0.63119 0.60481 0.0
O701 O 0.75974 0.66232 0.60541 0.0
O702 O 0.84692 0.63273 0.57721 0.0
O703 O 0.88651 0.65287 0.59902 0.0
O704 O 0.86085 0.71147 0.56952 0.0
O705 O 0.81093 0.69371 0.58341 0.0
O706 O 0.87302 0.76613 0.60412 0.0
O707 O 0.90256 0.73018 0.60054 0.0
O708 O 0.78321 0.74921 0.6197 0.0
O709 O 0.79997 0.75903 0.59256 0.0
O710 O 0.82016 0.72051 0.63606 0.0
O711 O 0.84154 0.69496 0.61952 0.0
H712 H 0.85772 0.58969 0.61734 0.0
H713 H 0.85376 0.52806 0.62185 0.0
H714 H 0.86329 0.5178 0.56673 0.0
H715 H 0.86701 0.57889 0.56233 0.0
H716 H 0.85438 0.82471 0.58974 0.0
H717 H 0.88424 0.89326 0.59199 0.0
H718 H 0.80264 0.88047 0.631 0.0
H719 H 0.77259 0.81131 0.62874 0.0
H720 H 0.46443 0.89453 0.13777 0.0
H721 H 0.58512 0.8103 0.09381 0.0
H722 H 0.55597 0.95591 0.10166 0.0
H723 H 0.50213 0.75197 0.13395 0.0
H724 H 0.5679 0.85975 0.09359 0.0
H725 H 0.4727 0.83899 0.13448 0.0
C726 C 0.486 0.89609 0.12904 0.0
C727 C 0.50974 0.92972 0.12006 0.0
C728 C 0.55326 0.83601 0.10238 0.0
C729 C 0.51894 0.86648 0.11596 0.0
C730 C 0.5628 0.80747 0.10238 0.0
C731 C 0.54551 0.77713 0.1141 0.0
C732 C 0.52626 0.83434 0.11422 0.0
C733 C 0.51692 0.7753 0.12498 0.0
C734 C 0.49073 0.8645 0.12716 0.0
C735 C 0.53744 0.93057 0.10899 0.0
N736 N 0.50848 0.80371 0.1249 0.0
N737 N 0.54121 0.8994 0.10722 0.0
H738 H 0.29468 0.77981 0.08811 0.0
H739 H 0.12124 0.62284 0.14315 0.0
H740 H 0.27391 0.79243 0.1417 0.0
H741 H 0.16022 0.59267 0.09729 0.0
H742 H 0.17528 0.68718 0.14123 0.0
H743 H 0.24366 0.71269 0.08946 0.0
C744 C 0.27949 0.7684 0.10012 0.0
C745 C 0.28856 0.79147 0.11485 0.0
C746 C 0.17227 0.66657 0.13158 0.0
C747 C 0.23048 0.71566 0.11643 0.0
C748 C 0.1414 0.62993 0.13268 0.0
C749 C 0.13666 0.60267 0.12043 0.0
C750 C 0.1982 0.67634 0.11789 0.0
C751 C 0.16343 0.61304 0.10709 0.0
C752 C 0.25063 0.73023 0.10091 0.0
C753 C 0.26819 0.77549 0.13012 0.0
N754 N 0.19305 0.64936 0.10605 0.0
N755 N 0.24005 0.73875 0.13047 0.0
H756 H 0.26305 0.46065 0.10428 0.0
H757 H 0.4814 0.61572 0.11978 0.0
H758 H 0.29759 0.57616 0.11824 0.0
H759 H 0.43532 0.49417 0.11984 0.0
H760 H 0.41656 0.6049 0.11595 0.0
H761 H 0.32895 0.47599 0.10577 0.0
C762 C 0.2847 0.48952 0.10732 0.0
C763 C 0.27492 0.51722 0.11105 0.0
C764 C 0.4209 0.58076 0.11684 0.0
C765 C 0.35061 0.53491 0.11316 0.0
C766 C 0.45779 0.58687 0.11903 0.0
C767 C 0.46387 0.55583 0.1201 0.0
C768 C 0.39022 0.54343 0.11558 0.0
C769 C 0.43225 0.51907 0.11904 0.0
C770 C 0.32232 0.49819 0.10838 0.0
C771 C 0.30407 0.55399 0.11533 0.0
N772 N 0.39697 0.51398 0.1168 0.0
N773 N 0.34078 0.56184 0.1163 0.0
H774 H 0.95913 0.54064 0.95885 0.0
H775 H 0.7569 0.49565 0.92223 0.0
H776 H 0.90042 0.45809 0.91876 0.0
H777 H 0.81601 0.57274 0.96428 0.0
H778 H 0.80592 0.47741 0.9219 0.0
H779 H 0.90387 0.54853 0.96227 0.0
C780 C 0.93438 0.5241 0.9508 0.0
C781 C 0.93411 0.49873 0.93853 0.0
C782 C 0.80786 0.49798 0.93131 0.0
C783 C 0.87092 0.50809 0.94206 0.0
C784 C 0.77998 0.50854 0.93148 0.0
C785 C 0.78249 0.53614 0.94319 0.0
C786 C 0.83851 0.5152 0.94291 0.0
C787 C 0.81262 0.55123 0.95509 0.0
C788 C 0.9028 0.52854 0.95275 0.0
C789 C 0.9014 0.47774 0.92846 0.0
N790 N 0.83954 0.54083 0.95452 0.0
N791 N 0.87114 0.48323 0.93029 0.0
H792 H 0.50037 0.26073 0.91644 0.0
H793 H 0.60832 0.47029 0.95546 0.0
H794 H 0.55207 0.28262 0.967 0.0
H795 H 0.52012 0.43136 0.91676 0.0
H796 H 0.59694 0.40492 0.95807 0.0
H797 H 0.51683 0.32687 0.91435 0.0
C798 C 0.51556 0.2797 0.92706 0.0
C799 C 0.52507 0.26637 0.94187 0.0
C800 C 0.5803 0.41092 0.94898 0.0
C801 C 0.54387 0.34227 0.93963 0.0
C802 C 0.58698 0.44808 0.94739 0.0
C803 C 0.56515 0.45599 0.93584 0.0
C804 C 0.55226 0.38205 0.93866 0.0
C805 C 0.53745 0.42635 0.92585 0.0
C806 C 0.52474 0.31739 0.92591 0.0
C807 C 0.54421 0.29196 0.95539 0.0
N808 N 0.53196 0.39079 0.92743 0.0
N809 N 0.55321 0.32896 0.95393 0.0
H810 H 0.63295 0.11382 0.91372 0.0
H811 H 0.78597 0.29004 0.96843 0.0
H812 H 0.59867 0.15713 0.9567 0.0
H813 H 0.80308 0.26533 0.91607 0.0
H814 H 0.71848 0.24011 0.96619 0.0
H815 H 0.69713 0.1679 0.91601 0.0
C816 C 0.63905 0.13499 0.9236 0.0
C817 C 0.61068 0.13131 0.93497 0.0
C818 C 0.7371 0.24603 0.95519 0.0
C819 C 0.68427 0.19302 0.93795 0.0
C820 C 0.77548 0.27426 0.95649 0.0
C821 C 0.79998 0.2819 0.94236 0.0
C822 C 0.72368 0.22504 0.9398 0.0
C823 C 0.7851 0.26077 0.92718 0.0
C824 C 0.67564 0.16589 0.92491 0.0
C825 C 0.6199 0.15942 0.94757 0.0
N826 N 0.74812 0.23325 0.92636 0.0
N827 N 0.6562 0.18906 0.94887 0.0
H828 H 0.27035 0.15613 0.43653 0.0
H829 H 0.11557 0.21832 0.45418 0.0
H830 H 0.15704 0.07407 0.45324 0.0
H831 H 0.23739 0.29254 0.45654 0.0
H832 H 0.126 0.1641 0.44981 0.0
H833 H 0.25387 0.20574 0.43851 0.0
C834 C 0.24169 0.14841 0.44028 0.0
C835 C 0.21504 0.11092 0.4447 0.0
C836 C 0.15023 0.19237 0.45135 0.0
C837 C 0.19612 0.16794 0.44739 0.0
C838 C 0.14434 0.22322 0.45387 0.0
C839 C 0.17561 0.26007 0.45573 0.0
C840 C 0.18756 0.1988 0.45043 0.0
C841 C 0.21229 0.26481 0.45519 0.0
C842 C 0.2324 0.17685 0.44162 0.0
C843 C 0.1785 0.10276 0.44984 0.0
N844 N 0.21715 0.23468 0.4525 0.0
N845 N 0.17004 0.13114 0.45109 0.0
H846 H 0.95737 0.11366 0.41983 0.0
H847 H 0.80339 0.9494 0.48054 0.0
H848 H 0.95019 0.12465 0.47499 0.0
H849 H 0.81958 0.93069 0.42722 0.0
H850 H 0.85843 1.0136 0.47867 0.0
H851 H 0.90804 0.04662 0.422 0.0
C852 C 0.94558 0.10197 0.4324 0.0
C853 C 0.95795 0.12495 0.44724 0.0
C854 C 0.85025 0.99548 0.46738 0.0
C855 C 0.90151 0.04825 0.44981 0.0
C856 C 0.81893 0.9589 0.46848 0.0
C857 C 0.80753 0.93494 0.45408 0.0
C858 C 0.86975 1.00849 0.4516 0.0
C859 C 0.82811 0.94837 0.43866 0.0
C860 C 0.91755 0.06366 0.43363 0.0
C861 C 0.94195 0.10807 0.46322 0.0
N862 N 0.85811 0.98449 0.43776 0.0
N863 N 0.91445 0.07094 0.46404 0.0
H864 H 0.11043 0.85605 0.47647 0.0
H865 H 0.95373 0.8711 0.42064 0.0
H866 H 0.14108 0.9254 0.43057 0.0
H867 H 0.93997 0.83704 0.47423 0.0
H868 H 0.02121 0.88874 0.4225 0.0
H869 H 0.04618 0.84604 0.47452 0.0
C870 C 0.10348 0.86934 0.46602 0.0
C871 C 0.13081 0.89175 0.45374 0.0
C872 C 1.00336 0.87775 0.43385 0.0
C873 C 0.05722 0.87987 0.45114 0.0
C874 C 0.96495 0.86754 0.43277 0.0
C875 C 0.94135 0.85277 0.44733 0.0
C876 C 1.01775 0.8724 0.44948 0.0
C877 C 0.95721 0.8488 0.46276 0.0
C878 C 0.06688 0.8637 0.4649 0.0
C879 C 0.12063 0.90834 0.4404 0.0
N880 N 0.99423 0.85829 0.46337 0.0
N881 N 0.08432 0.90172 0.43931 0.0
H882 H 0.48563 0.91031 0.29859 0.0
H883 H 0.56591 0.78626 0.25471 0.0
H884 H 0.42415 0.8257 0.25947 0.0
H885 H 0.62992 0.8804 0.28923 0.0
H886 H 0.51052 0.79478 0.25847 0.0
H887 H 0.53478 0.89271 0.29828 0.0
C888 C 0.48207 0.88753 0.29016 0.0
C889 C 0.45087 0.86978 0.27891 0.0
C890 C 0.53661 0.81333 0.26533 0.0
C891 C 0.50768 0.85007 0.27817 0.0
C892 C 0.56807 0.80842 0.2632 0.0
C893 C 0.60237 0.83284 0.27159 0.0
C894 C 0.53951 0.84241 0.27617 0.0
C895 C 0.60403 0.86131 0.28236 0.0
C896 C 0.51041 0.87776 0.28984 0.0
C897 C 0.44812 0.8407 0.26811 0.0
N898 N 0.57305 0.86526 0.28436 0.0
N899 N 0.47635 0.83199 0.26789 0.0
H900 H 0.16779 0.76196 0.27557 0.0
H901 H 0.24895 0.62109 0.26736 0.0
H902 H 0.28678 0.80389 0.26532 0.0
H903 H 0.143 0.59306 0.29223 0.0
H904 H 0.26442 0.68764 0.26554 0.0
H905 H 0.15858 0.69897 0.28007 0.0
C906 C 0.19206 0.75793 0.27417 0.0
C907 C 0.22814 0.78832 0.26998 0.0
C908 C 0.23808 0.66692 0.27161 0.0
C909 C 0.21766 0.71571 0.27526 0.0
C910 C 0.22918 0.62899 0.27262 0.0
C911 C 0.19451 0.60141 0.2799 0.0
C912 C 0.21186 0.67705 0.27771 0.0
C913 C 0.17016 0.61326 0.28666 0.0
C914 C 0.18679 0.72186 0.27689 0.0
C915 C 0.25849 0.78122 0.26853 0.0
N916 N 0.17912 0.65002 0.28522 0.0
N917 N 0.25253 0.74547 0.27106 0.0
H918 H 0.44518 0.64259 0.29197 0.0
H919 H 0.30306 0.4328 0.2573 0.0
H920 H 0.47663 0.57597 0.26009 0.0
H921 H 0.26121 0.49989 0.28195 0.0
H922 H 0.36722 0.48552 0.25978 0.0
H923 H 0.37798 0.5912 0.29025 0.0
C924 C 0.43782 0.61702 0.28474 0.0
C925 C 0.46602 0.61307 0.27616 0.0
C926 C 0.34419 0.48902 0.26466 0.0
C927 C 0.39035 0.555 0.27411 0.0
C928 C 0.30737 0.45874 0.26327 0.0
C929 C 0.27668 0.46183 0.26951 0.0
C930 C 0.35084 0.52294 0.27246 0.0
C931 C 0.28416 0.49641 0.27694 0.0
C932 C 0.39969 0.58795 0.28369 0.0
C933 C 0.45551 0.57987 0.26685 0.0
N934 N 0.32066 0.52572 0.27832 0.0
N935 N 0.41862 0.55218 0.2661 0.0
H936 H 0.882 0.61914 0.76498 0.0
H937 H 0.83353 0.41487 0.79961 0.0
H938 H 0.79446 0.55716 0.80276 0.0
H939 H 0.91505 0.47682 0.75942 0.0
H940 H 0.8147 0.46342 0.79963 0.0
H941 H 0.89025 0.56425 0.76134 0.0
C942 C 0.86442 0.59374 0.77248 0.0
C943 C 0.83768 0.59253 0.78424 0.0
C944 C 0.83636 0.46609 0.79067 0.0
C945 C 0.84729 0.52963 0.78037 0.0
C946 C 0.84724 0.43848 0.79068 0.0
C947 C 0.87624 0.44195 0.77961 0.0
C948 C 0.85469 0.49744 0.77954 0.0
C949 C 0.89245 0.47274 0.76811 0.0
C950 C 0.86905 0.56236 0.77038 0.0
C951 C 0.81527 0.55895 0.79351 0.0
N952 N 0.88173 0.49942 0.76851 0.0
N953 N 0.82092 0.52884 0.79155 0.0
H954 H 0.6079 0.46456 0.80953 0.0
H955 H 0.4985 0.25718 0.76824 0.0
H956 H 0.628 0.44538 0.75673 0.0
H957 H 0.45613 0.29373 0.81071 0.0
H958 H 0.55235 0.32263 0.76531 0.0
H959 H 0.55887 0.39821 0.8119 0.0
C960 C 0.60224 0.44616 0.79847 0.0
C961 C 0.62214 0.46039 0.78294 0.0
C962 C 0.53142 0.31611 0.77536 0.0
C963 C 0.56557 0.3842 0.78552 0.0
C964 C 0.50109 0.27891 0.77714 0.0
C965 C 0.47348 0.27038 0.7899 0.0
C966 C 0.53424 0.34436 0.78669 0.0
C967 C 0.47715 0.29934 0.80083 0.0
C968 C 0.57402 0.40834 0.79979 0.0
C969 C 0.61313 0.43542 0.76891 0.0
N970 N 0.50713 0.33499 0.79905 0.0
N971 N 0.58545 0.3983 0.77054 0.0
H972 H 0.61983 0.20886 0.75511 0.0
H973 H 0.77292 0.17987 0.80735 0.0
H974 H 0.60004 0.15476 0.80505 0.0
H975 H 0.80781 0.26512 0.7675 0.0
H976 H 0.70814 0.1679 0.80493 0.0
H977 H 0.68756 0.22746 0.75751 0.0
C978 C 0.62968 0.20096 0.76655 0.0
C979 C 0.60418 0.1803 0.77993 0.0
C980 C 0.72985 0.18944 0.79674 0.0
C981 C 0.68119 0.20125 0.7827 0.0
C982 C 0.76688 0.19623 0.79811 0.0
C983 C 0.79576 0.22363 0.78767 0.0
C984 C 0.72112 0.20962 0.78458 0.0
C985 C 0.78633 0.24403 0.77592 0.0
C986 C 0.6683 0.21178 0.76795 0.0
C987 C 0.61857 0.17106 0.79451 0.0
N988 N 0.74962 0.23635 0.77454 0.0
N989 N 0.65585 0.18136 0.79543 0.0
H990 H 0.09236 0.16307 0.62954 0.0
H991 H 0.29329 0.21922 0.58742 0.0
H992 H 0.15123 0.24982 0.59103 0.0
H993 H 0.23223 0.11723 0.61798 0.0
H994 H 0.24068 0.23052 0.59011 0.0
H995 H 0.14247 0.14554 0.62726 0.0
C996 C 0.11587 0.1784 0.6207 0.0
C997 C 0.11784 0.20776 0.61037 0.0
C998 C 0.23835 0.20547 0.59622 0.0
C999 C 0.17454 0.18826 0.60776 0.0
C1000 C 0.2686 0.19902 0.5947 0.0
C1001 C 0.26726 0.16734 0.60258 0.0
C1002 C 0.20619 0.18027 0.60581 0.0
C1003 C 0.23425 0.14196 0.61168 0.0
C1004 C 0.14418 0.16832 0.61933 0.0
C1005 C 0.14856 0.2268 0.59909 0.0
N1006 N 0.20492 0.14914 0.6132 0.0
N1007 N 0.17557 0.21677 0.59812 0.0
H1008 H 0.85842 0.94103 0.63865 0.0
H1009 H 0.91818 0.12238 0.57787 0.0
H1010 H 0.86597 0.93874 0.58303 0.0
H1011 H 0.88496 0.1165 0.63113 0.0
H1012 H 0.90848 0.05783 0.58032 0.0
H1013 H 0.8777 1.00846 0.63699 0.0
C1014 C 0.86422 0.95469 0.62611 0.0
C1015 C 0.86036 0.93407 0.61096 0.0
C1016 C 0.90377 0.07082 0.59154 0.0
C1017 C 0.88257 1.01121 0.60897 0.0
C1018 C 0.9095 0.10758 0.59015 0.0
C1019 C 0.9027 0.12447 0.60439 0.0
C1020 C 0.89141 0.05115 0.60733 0.0
C1021 C 0.89077 0.10425 0.61995 0.0
C1022 C 0.87531 0.99318 0.62517 0.0
C1023 C 0.86895 0.95349 0.59508 0.0
N1024 N 0.88552 0.06859 0.62103 0.0
N1025 N 0.87942 0.99085 0.5945 0.0
H1026 H 0.13292 0.93513 0.58062 0.0
H1027 H 0.93117 0.81927 0.62725 0.0
H1028 H 0.11985 0.94996 0.63492 0.0
H1029 H 0.96219 0.7828 0.58086 0.0
H1030 H 0.99667 0.8735 0.62922 0.0
H1031 H 0.06633 0.88607 0.57921 0.0
C1032 C 0.11585 0.92837 0.59223 0.0
C1033 C 0.13193 0.94676 0.6079 0.0
C1034 C 0.98893 0.85374 0.61856 0.0
C1035 C 0.05546 0.89002 0.60641 0.0
C1036 C 0.95168 0.82313 0.61737 0.0
C1037 C 0.94158 0.79698 0.60381 0.0
C1038 C 1.01562 0.85838 0.60585 0.0
C1039 C 0.96904 0.80249 0.59149 0.0
C1040 C 0.07788 0.9001 0.59144 0.0
C1041 C 0.10855 0.93627 0.62261 0.0
N1042 N 1.00473 0.8327 0.59274 0.0
N1043 N 0.07132 0.90854 0.62151 0.0
H1044 H 0.46448 0.95712 0.06701 0.0
H1045 H 0.5713 0.08641 0.98672 0.0
H1046 H 0.5583 0.07128 0.07266 0.0
H1047 H 0.48211 0.96975 0.98335 0.0
H1048 H 0.57743 0.07807 1.01773 0.0
H1049 H 0.48002 0.95792 0.03672 0.0
C1050 C 0.48917 0.98214 0.06191 0.0
C1051 C 0.51011 0.01423 0.07234 0.0
C1052 C 0.55746 0.05387 1.01015 0.0
C1053 C 0.52776 0.01574 0.03724 0.0
C1054 C 0.55439 0.05845 0.99239 0.0
C1055 C 0.52674 0.02845 0.98244 0.0
C1056 C 0.53207 0.01919 1.01805 0.0
C1057 C 0.50446 0.99326 0.99048 0.0
C1058 C 0.49797 0.98261 0.04453 0.0
C1059 C 0.54162 0.04589 0.06505 0.0
N1060 N 0.50712 0.9898 1.00786 0.0
N1061 N 0.54911 0.04614 0.0478 0.0
H1062 H 1.00142 0.53451 0.9818 0.0
H1063 H 0.99687 0.44854 0.066 0.0
H1064 H 0.08319 0.49818 0.99002 0.0
H1065 H 0.07003 0.56825 0.07498 0.0
H1066 H 0.99779 0.46115 0.03501 0.0
H1067 H 1.00168 0.54569 1.0132 0.0
C1068 C 1.0211 0.53113 0.99005 0.0
C1069 C 0.04297 0.5162 0.98332 0.0
C1070 C 1.01224 0.48481 0.04386 0.0
C1071 C 0.04228 0.52748 1.01894 0.0
C1072 C 1.01134 0.47774 0.06153 0.0
C1073 C 0.03246 0.50752 0.07309 0.0
C1074 C 0.03451 0.52191 0.03766 0.0
C1075 C 0.05241 0.54472 0.06651 0.0
C1076 C 1.02083 0.53701 1.00793 0.0
C1077 C 0.06662 0.51052 0.99467 0.0
N1078 N 0.05359 0.55092 0.04908 0.0
N1079 N 0.06495 0.51523 1.01196 0.0
H1080 H 0.53402 0.58642 0.98228 0.0
H1081 H 0.5514 0.50673 0.07479 0.0
H1082 H 0.56371 0.49917 0.98791 0.0
H1083 H 0.5537 0.61229 0.06496 0.0
H1084 H 0.53645 0.49034 0.04378 0.0
H1085 H 0.51976 0.58161 1.01322 0.0
C1086 C 0.53555 0.56482 0.98988 0.0
C1087 C 0.54945 0.54275 0.98256 0.0
C1088 C 0.53963 0.51675 0.04861 0.0
C1089 C 0.535 0.53819 1.01813 0.0
C1090 C 0.54792 0.52594 0.06627 0.0
C1091 C 0.55423 0.5611 0.0724 0.0
C1092 C 0.53724 0.54276 0.03729 0.0
C1093 C 0.54952 0.58505 0.06079 0.0
C1094 C 0.52811 0.56249 1.00763 0.0
C1095 C 0.5525 0.51627 0.99313 0.0
N1096 N 0.54171 0.57565 0.0439 0.0
N1097 N 0.54597 0.51509 1.01046 0.0
H1098 H 0.23766 0.41513 0.40488 0.0
H1099 H 0.13443 0.30345 0.31884 0.0
H1100 H 0.13437 0.3067 0.40378 0.0
H1101 H 0.23694 0.41241 0.31901 0.0
H1102 H 0.14225 0.29752 0.34987 0.0
H1103 H 0.24606 0.40874 0.37377 0.0
C1104 C 0.21742 0.38953 0.39816 0.0
C1105 C 0.18547 0.36131 0.4068 0.0
C1106 C 0.16387 0.32219 0.34307 0.0
C1107 C 0.19406 0.35413 0.3713 0.0
C1108 C 0.15972 0.32519 0.32527 0.0
C1109 C 0.18562 0.35799 0.31633 0.0
C1110 C 0.19383 0.35258 0.35203 0.0
C1111 C 0.21689 0.38625 0.32542 0.0
C1112 C 0.22198 0.38594 0.38041 0.0
C1113 C 0.15958 0.32894 0.39753 0.0
N1114 N 0.21985 0.3832 0.34281 0.0
N1115 N 0.16415 0.32645 0.38027 0.0
H1116 H 0.76562 0.89243 0.4033 0.0
H1117 H 0.6332 0.8112 0.32041 0.0
H1118 H 0.64532 0.81347 0.40507 0.0
H1119 H 0.75542 0.87572 0.31817 0.0
H1120 H 0.63566 0.82728 0.35096 0.0
H1121 H 0.76048 0.90207 0.37239 0.0
C1122 C 0.73774 0.87862 0.39732 0.0
C1123 C 0.70568 0.85283 0.4068 0.0
C1124 C 0.66198 0.83892 0.34375 0.0
C1125 C 0.6998 0.86221 0.37123 0.0
C1126 C 0.66058 0.83011 0.32625 0.0
C1127 C 0.69415 0.84255 0.31675 0.0
C1128 C 0.69734 0.85996 0.35197 0.0
C1129 C 0.7289 0.86618 0.32498 0.0
C1130 C 0.73493 0.88363 0.3796 0.0
C1131 C 0.6705 0.83441 0.39832 0.0
N1132 N 0.72965 0.87362 0.34224 0.0
N1133 N 0.66859 0.83899 0.38095 0.0
H1134 H 0.24021 0.83314 0.32041 0.0
H1135 H 0.18405 0.91164 0.40244 0.0
H1136 H 0.19517 0.90887 0.31767 0.0
H1137 H 0.24312 0.84865 0.40541 0.0
H1138 H 0.17148 0.8957 0.3718 0.0
H1139 H 0.2247 0.82332 0.35122 0.0
C1140 C 0.22541 0.84635 0.32618 0.0
C1141 C 0.21832 0.8713 0.31646 0.0
C1142 C 0.18621 0.88434 0.37919 0.0
C1143 C 0.20206 0.86164 0.35193 0.0
C1144 C 0.193 0.89306 0.39674 0.0
C1145 C 0.21416 0.88096 0.40648 0.0
C1146 C 0.20123 0.86381 0.37117 0.0
C1147 C 0.22603 0.85785 0.39842 0.0
C1148 C 0.21706 0.84116 0.34383 0.0
C1149 C 0.20025 0.8887 0.32464 0.0
N1150 N 0.21994 0.85053 0.38113 0.0
N1151 N 0.19333 0.88405 0.34198 0.0
H1152 H 0.83088 0.6298 0.73759 0.0
H1153 H 0.89486 0.75991 0.65352 0.0
H1154 H 0.88157 0.75141 0.73825 0.0
H1155 H 0.82384 0.63827 0.65257 0.0
H1156 H 0.9077 0.75683 0.68418 0.0
H1157 H 0.84582 0.63255 0.70678 0.0
C1158 C 0.84684 0.6573 0.73138 0.0
C1159 C 0.85568 0.69051 0.7405 0.0
C1160 C 0.89031 0.73063 0.67721 0.0
C1161 C 0.87142 0.69381 0.70507 0.0
C1162 C 0.88342 0.73233 0.65963 0.0
C1163 C 0.85882 0.69923 0.65047 0.0
C1164 C 0.87204 0.69553 0.6858 0.0
C1165 C 0.84367 0.66433 0.65909 0.0
C1166 C 0.85485 0.6588 0.71374 0.0
C1167 C 0.87514 0.72529 0.73177 0.0
N1168 N 0.85003 0.66342 0.67637 0.0
N1169 N 0.88183 0.726 0.71446 0.0
H1170 H 0.3349 0.20055 0.64942 0.0
H1171 H 0.36197 0.12534 0.7367 0.0
H1172 H 0.41537 0.16187 0.65566 0.0
H1173 H 0.38057 0.23915 0.73979 0.0
H1174 H 0.36189 0.12927 0.70513 0.0
H1175 H 0.33689 0.21085 0.68101 0.0
C1176 C 0.35453 0.19627 0.6573 0.0
C1177 C 0.37576 0.18123 0.64994 0.0
C1178 C 0.36506 0.15305 0.71273 0.0
C1179 C 0.37609 0.19036 0.68577 0.0
C1180 C 0.36453 0.15061 0.73068 0.0
C1181 C 0.3706 0.18172 0.74077 0.0
C1182 C 0.37117 0.18662 0.70475 0.0
C1183 C 0.37509 0.21436 0.73237 0.0
C1184 C 0.35511 0.2015 0.67529 0.0
C1185 C 0.39927 0.1743 0.6608 0.0
N1186 N 0.37527 0.21607 0.71472 0.0
N1187 N 0.39808 0.17797 0.67818 0.0
H1188 H 0.8602 0.2461 0.65089 0.0
H1189 H 0.90716 0.18044 0.73937 0.0
H1190 H 0.90246 0.16814 0.65397 0.0
H1191 H 0.85067 0.24585 0.73562 0.0
H1192 H 0.8942 0.16469 0.70847 0.0
H1193 H 0.84458 0.23598 0.68176 0.0
C1194 C 0.86424 0.22527 0.65788 0.0
C1195 C 0.88177 0.20723 0.64984 0.0
C1196 C 0.88355 0.18149 0.71453 0.0
C1197 C 0.86595 0.19686 0.68535 0.0
C1198 C 0.89051 0.18998 0.73223 0.0
C1199 C 0.87955 0.21407 0.74003 0.0
C1200 C 0.86602 0.19771 0.70465 0.0
C1201 C 0.85924 0.22685 0.73006 0.0
C1202 C 0.85596 0.21992 0.67559 0.0
C1203 C 0.88817 0.18191 0.65967 0.0
N1204 N 0.8537 0.21908 0.71289 0.0
N1205 N 0.88089 0.17794 0.67694 0.0
H1206 H 0.26559 0.8783 0.20515 0.0
H1207 H 0.47658 0.98118 0.18497 0.0
H1208 H 0.32681 0.97507 0.23863 0.0
H1209 H 0.41739 0.02302 0.15366 0.0
H1210 H 0.42183 0.95324 0.20506 0.0
H1211 H 0.32089 0.90543 0.18545 0.0
C1212 C 0.29066 0.90496 0.20845 0.0
C1213 C 0.29175 0.92402 0.22375 0.0
C1214 C 0.42099 0.96831 0.19366 0.0
C1215 C 0.35507 0.95445 0.20157 0.0
C1216 C 0.45213 0.98431 0.18226 0.0
C1217 C 0.45143 1.00401 0.16745 0.0
C1218 C 0.38878 0.97147 0.19003 0.0
C1219 C 0.41909 1.0077 0.16477 0.0
C1220 C 0.32212 0.92027 0.19726 0.0
C1221 C 0.32487 0.95898 0.22716 0.0
N1222 N 0.38891 0.99117 0.17578 0.0
N1223 N 0.35535 0.97283 0.2163 0.0
H1224 H 0.10089 0.5258 0.18077 0.0
H1225 H 0.10375 0.3405 0.21456 0.0
H1226 H 0.03913 0.41625 0.15622 0.0
H1227 H 0.19044 0.45336 0.22891 0.0
H1228 H 0.07698 0.36775 0.19447 0.0
H1229 H 0.13058 0.50006 0.20032 0.0
C1230 C 0.09351 0.49638 0.17952 0.0
C1231 C 0.06753 0.47321 0.16681 0.0
C1232 C 0.10192 0.38668 0.20195 0.0
C1233 C 0.10133 0.44354 0.18909 0.0
C1234 C 0.11724 0.37108 0.21337 0.0
C1235 C 0.1495 0.39473 0.22323 0.0
C1236 C 0.11826 0.42636 0.20072 0.0
C1237 C 0.16579 0.4342 0.22132 0.0
C1238 C 0.11061 0.48175 0.19061 0.0
C1239 C 0.05901 0.43522 0.1658 0.0
N1240 N 0.14976 0.44882 0.21045 0.0
N1241 N 0.07574 0.42166 0.17675 0.0
H1242 H 0.72393 0.77398 0.22121 0.0
H1243 H 0.5381 0.60282 0.17776 0.0
H1244 H 0.61666 0.77129 0.22263 0.0
H1245 H 0.65232 0.63779 0.16137 0.0
H1246 H 0.56381 0.65898 0.19692 0.0
H1247 H 0.69616 0.7193 0.20169 0.0
C1248 C 0.69451 0.76195 0.21728 0.0
C1249 C 0.67279 0.7776 0.22328 0.0
C1250 C 0.58314 0.65422 0.18912 0.0
C1251 C 0.6401 0.71375 0.20138 0.0
C1252 C 0.56852 0.62203 0.17832 0.0
C1253 C 0.59311 0.6154 0.16804 0.0
C1254 C 0.62265 0.67955 0.18984 0.0
C1255 C 0.63228 0.64156 0.16912 0.0
C1256 C 0.67859 0.73065 0.20616 0.0
C1257 C 0.63461 0.76057 0.21795 0.0
N1258 N 0.64573 0.67214 0.17981 0.0
N1259 N 0.61931 0.72927 0.20746 0.0
H1260 H 0.05891 0.45667 0.88008 0.0
H1261 H 0.8749 0.26524 0.84745 0.0
H1262 H 0.94559 0.4251 0.89625 0.0
H1263 H 0.98423 0.31437 0.82253 0.0
H1264 H 0.90035 0.32051 0.86693 0.0
H1265 H 0.03233 0.40295 0.85986 0.0
C1266 C 0.02835 0.43833 0.87932 0.0
C1267 C 1.00436 0.44523 0.8898 0.0
C1268 C 0.91871 0.31923 0.85715 0.0
C1269 C 0.97357 0.38274 0.86712 0.0
C1270 C 0.90423 0.28758 0.8461 0.0
C1271 C 0.92737 0.28517 0.83328 0.0
C1272 C 0.95675 0.34861 0.85551 0.0
C1273 C 0.96527 0.31499 0.83217 0.0
C1274 C 1.01315 0.4076 0.86782 0.0
C1275 C 0.96497 0.42068 0.88833 0.0
N1276 N 0.97868 0.3453 0.84308 0.0
N1277 N 0.9508 0.39025 0.87739 0.0
H1278 H 0.61966 0.6335 0.88304 0.0
H1279 H 0.79984 0.62585 0.84541 0.0
H1280 H 0.63794 0.53988 0.89355 0.0
H1281 H 0.75895 0.69678 0.8241 0.0
H1282 H 0.74477 0.59737 0.86513 0.0
H1283 H 0.67372 0.65989 0.863 0.0
C1284 C 0.63511 0.61849 0.88106 0.0
C1285 C 0.62413 0.58432 0.88978 0.0
C1286 C 0.74783 0.61908 0.85608 0.0
C1287 C 0.68702 0.61496 0.86729 0.0
C1288 C 0.77936 0.63547 0.8449 0.0
C1289 C 0.78397 0.66362 0.83302 0.0
C1290 C 0.72092 0.63125 0.85554 0.0
C1291 C 0.75654 0.67507 0.83298 0.0
C1292 C 0.666 0.63355 0.86965 0.0
C1293 C 0.64517 0.56602 0.88683 0.0
N1294 N 0.72638 0.65895 0.84401 0.0
N1295 N 0.67586 0.58176 0.87599 0.0
H1296 H 0.35216 0.11003 0.8467 0.0
H1297 H 0.53296 0.09242 0.87597 0.0
H1298 H 0.46384 0.17981 0.82531 0.0
H1299 H 0.42433 0.03476 0.90163 0.0
H1300 H 0.50821 0.12313 0.85664 0.0
H1301 H 0.37819 0.08205 0.86683 0.0
C1302 C 0.3823 0.11963 0.84638 0.0
C1303 C 0.40599 0.14737 0.83445 0.0
C1304 C 0.48985 0.10393 0.86656 0.0
C1305 C 0.43599 0.1146 0.85704 0.0
C1306 C 0.50394 0.08626 0.87755 0.0
C1307 C 0.48087 0.06129 0.89058 0.0
C1308 C 0.45226 0.09646 0.86851 0.0
C1309 C 0.44331 0.0541 0.89189 0.0
C1310 C 0.39717 0.10354 0.85779 0.0
C1311 C 0.44475 0.15856 0.8344 0.0
N1312 N 0.4303 0.07163 0.8811 0.0
N1313 N 0.45851 0.14196 0.84539 0.0
H1314 H 0.9412 0.28722 0.54617 0.0
H1315 H 0.13561 0.29949 0.51471 0.0
H1316 H 0.97739 0.21046 0.56461 0.0
H1317 H 0.08389 0.35632 0.48889 0.0
H1318 H 0.08063 0.26941 0.53437 0.0
H1319 H 0.99488 0.31467 0.5259 0.0
C1320 C 0.9605 0.27611 0.54587 0.0
C1321 C 0.95489 0.24651 0.55699 0.0
C1322 C 0.08126 0.28834 0.52435 0.0
C1323 C 1.01725 0.27854 0.53421 0.0
C1324 C 0.11273 0.30563 0.51317 0.0
C1325 C 0.11435 0.33035 0.50007 0.0
C1326 C 0.05124 0.296 0.5225 0.0
C1327 C 0.08386 0.33734 0.49873 0.0
C1328 C 0.99122 0.29182 0.53434 0.0
C1329 C 0.9807 0.23314 0.55614 0.0
N1330 N 0.05375 0.32036 0.50975 0.0
N1331 N 1.011 0.2495 0.5451 0.0
H1332 H 0.70621 0.74963 0.48805 0.0
H1333 H 0.85625 0.78779 0.56398 0.0
H1334 H 0.76792 0.85778 0.5138 0.0
H1335 H 0.77048 0.67597 0.54786 0.0
H1336 H 0.82917 0.81542 0.54401 0.0
H1337 H 0.73446 0.72365 0.50787 0.0
C1338 C 0.7257 0.76795 0.49792 0.0
C1339 C 0.73487 0.80608 0.49917 0.0
C1340 C 0.81645 0.78485 0.54474 0.0
C1341 C 0.76735 0.77626 0.52212 0.0
C1342 C 0.832 0.76914 0.55606 0.0
C1343 C 0.81551 0.7296 0.55753 0.0
C1344 C 0.78481 0.76082 0.53444 0.0
C1345 C 0.78394 0.7066 0.54712 0.0
C1346 C 0.74179 0.75304 0.50927 0.0
C1347 C 0.76016 0.82831 0.51231 0.0
N1348 N 0.76984 0.7225 0.53594 0.0
N1349 N 0.77563 0.81316 0.52321 0.0
H1350 H 0.2067 0.95376 0.49997 0.0
H1351 H 0.37322 0.08559 0.56548 0.0
H1352 H 0.31284 0.9543 0.50275 0.0
H1353 H 0.29747 0.12152 0.54508 0.0
H1354 H 0.34517 0.03114 0.54587 0.0
H1355 H 0.23326 1.00931 0.51948 0.0
C1356 C 0.23533 0.96519 0.50493 0.0
C1357 C 0.25753 0.94923 0.49992 0.0
C1358 C 0.33472 0.05095 0.5456 0.0
C1359 C 0.28783 1.01222 0.52232 0.0
C1360 C 0.35071 0.08208 0.55681 0.0
C1361 C 0.33783 0.10834 0.55688 0.0
C1362 C 0.30509 0.04541 0.53442 0.0
C1363 C 0.30841 0.10212 0.54539 0.0
C1364 C 0.25057 0.99704 0.51591 0.0
C1365 C 0.29476 0.96567 0.50636 0.0
N1366 N 0.29282 0.07116 0.5347 0.0
N1367 N 0.30853 0.99585 0.51735 0.0
H1368 H 0.50599 0.30069 0.15313 0.0
H1369 H 0.54441 0.15606 0.09885 0.0
H1370 H 0.57898 0.33424 0.10831 0.0
H1371 H 0.45626 0.12012 0.13726 0.0
H1372 H 0.55981 0.22183 0.10299 0.0
H1373 H 0.49217 0.23553 0.14924 0.0
C1374 C 0.51957 0.29457 0.14258 0.0
C1375 C 0.54353 0.32321 0.13094 0.0
C1376 C 0.53677 0.19959 0.11038 0.0
C1377 C 0.5269 0.24798 0.12619 0.0
C1378 C 0.52774 0.16201 0.1079 0.0
C1379 C 0.49847 0.13255 0.11746 0.0
C1380 C 0.51689 0.20802 0.12277 0.0
C1381 C 0.47833 0.14187 0.1293 0.0
C1382 C 0.51123 0.25713 0.14026 0.0
C1383 C 0.5598 0.31311 0.11742 0.0
N1384 N 0.48814 0.17886 0.13173 0.0
N1385 N 0.5511 0.27637 0.11539 0.0
H1386 H 0.74726 0.26548 0.15502 0.0
H1387 H 0.92629 0.38084 0.09278 0.0
H1388 H 0.74682 0.23448 0.10158 0.0
H1389 H 0.93336 0.38449 0.14835 0.0
H1390 H 0.85874 0.33165 0.09487 0.0
H1391 H 0.81332 0.31566 0.15181 0.0
C1392 C 0.76087 0.2692 0.14258 0.0
C1393 C 0.74139 0.24489 0.12866 0.0
C1394 C 0.87527 0.34271 0.10659 0.0
C1395 C 0.81722 0.30292 0.12487 0.0
C1396 C 0.9138 0.37026 0.10538 0.0
C1397 C 0.93539 0.38544 0.12041 0.0
C1398 C 0.85828 0.33109 0.12297 0.0
C1399 C 0.91773 0.37242 0.13648 0.0
C1400 C 0.79867 0.29795 0.14077 0.0
C1401 C 0.76041 0.25229 0.11271 0.0
N1402 N 0.88015 0.3461 0.13736 0.0
N1403 N 0.7973 0.28044 0.11129 0.0
H1404 H 0.6917 0.58799 0.1468 0.0
H1405 H 0.82317 0.52037 0.10168 0.0
H1406 H 0.67391 0.54862 0.09412 0.0
H1407 H 0.80486 0.5134 0.15697 0.0
H1408 H 0.77185 0.53421 0.0981 0.0
H1409 H 0.73931 0.56802 0.15023 0.0
C1410 C 0.69891 0.57638 0.13579 0.0
C1411 C 0.68004 0.57109 0.11997 0.0
C1412 C 0.77909 0.52954 0.111 0.0
C1413 C 0.73337 0.54728 0.12388 0.0
C1414 C 0.80826 0.52114 0.11311 0.0
C1415 C 0.81949 0.51646 0.12974 0.0
C1416 C 0.76139 0.53417 0.1256 0.0
C1417 C 0.79869 0.51829 0.14391 0.0
C1418 C 0.72544 0.56432 0.13784 0.0
C1419 C 0.6888 0.55414 0.10634 0.0
N1420 N 0.77121 0.52765 0.14154 0.0
N1421 N 0.71508 0.54309 0.10855 0.0
H1422 H 0.30173 0.47215 0.9172 0.0
H1423 H 0.16829 0.55397 0.94616 0.0
H1424 H 0.34501 0.5845 0.9382 0.0
H1425 H 0.1249 0.43732 0.93094 0.0
H1426 H 0.23275 0.56541 0.9436 0.0
H1427 H 0.23694 0.45915 0.92201 0.0
C1428 C 0.29747 0.49419 0.92274 0.0
C1429 C 0.32867 0.5295 0.92724 0.0
C1430 C 0.20925 0.53719 0.94098 0.0
C1431 C 0.25449 0.51476 0.93287 0.0
C1432 C 0.17226 0.5305 0.94246 0.0
C1433 C 0.14096 0.49452 0.93871 0.0
C1434 C 0.21531 0.50777 0.93564 0.0
C1435 C 0.14809 0.46538 0.93405 0.0
C1436 C 0.2605 0.48667 0.92558 0.0
C1437 C 0.32167 0.55688 0.93461 0.0
N1438 N 0.18458 0.47274 0.93251 0.0
N1439 N 0.28525 0.549 0.9371 0.0
H1440 H 0.57755 0.83707 0.90675 0.0
H1441 H 0.52105 0.64121 0.95391 0.0
H1442 H 0.4893 0.78748 0.94539 0.0
H1443 H 0.62398 0.70501 0.92437 0.0
H1444 H 0.50708 0.69266 0.95018 0.0
H1445 H 0.59116 0.78582 0.91129 0.0
C1446 C 0.56061 0.81512 0.91605 0.0
C1447 C 0.53221 0.81674 0.92572 0.0
C1448 C 0.53299 0.69571 0.94471 0.0
C1449 C 0.54846 0.75817 0.93128 0.0
C1450 C 0.54114 0.66648 0.94692 0.0
C1451 C 0.57398 0.66908 0.93959 0.0
C1452 C 0.55755 0.72764 0.93484 0.0
C1453 C 0.59875 0.70218 0.93049 0.0
C1454 C 0.5688 0.78607 0.91879 0.0
C1455 C 0.51175 0.78768 0.93779 0.0
N1456 N 0.58981 0.73002 0.92822 0.0
N1457 N 0.52027 0.75958 0.94023 0.0
H1458 H 0.35724 0.94261 0.93147 0.0
H1459 H 0.28579 0.71916 0.93668 0.0
H1460 H 0.42882 0.89736 0.94708 0.0
H1461 H 0.21755 0.76506 0.91721 0.0
H1462 H 0.33824 0.78426 0.94165 0.0
H1463 H 0.30416 0.87738 0.92808 0.0
C1464 C 0.3616 0.91906 0.93451 0.0
C1465 C 0.3975 0.92553 0.93957 0.0
C1466 C 0.31174 0.78004 0.9363 0.0
C1467 C 0.33732 0.85093 0.9354 0.0
C1468 C 0.28191 0.74294 0.93347 0.0
C1469 C 0.24742 0.73682 0.92647 0.0
C1470 C 0.30669 0.81109 0.93237 0.0
C1471 C 0.24386 0.76858 0.92244 0.0
C1472 C 0.33147 0.88182 0.93239 0.0
C1473 C 0.40168 0.89381 0.94307 0.0
N1474 N 0.27298 0.80423 0.92552 0.0
N1475 N 0.3721 0.85802 0.94084 0.0
H1476 H 0.26094 0.67302 0.45217 0.0
H1477 H 0.1112 0.44953 0.46125 0.0
H1478 H 0.14917 0.62736 0.47435 0.0
H1479 H 0.22687 0.49475 0.44382 0.0
H1480 H 0.12346 0.51474 0.46452 0.0
H1481 H 0.24862 0.60787 0.44796 0.0
C1482 C 0.23384 0.64927 0.4561 0.0
C1483 C 0.20606 0.65548 0.46365 0.0
C1484 C 0.14606 0.51029 0.45988 0.0
C1485 C 0.19145 0.58112 0.45869 0.0
C1486 C 0.13891 0.47305 0.45787 0.0
C1487 C 0.16789 0.46654 0.45221 0.0
C1488 C 0.1824 0.5412 0.45615 0.0
C1489 C 0.20354 0.49826 0.44824 0.0
C1490 C 0.22678 0.61214 0.45373 0.0
C1491 C 0.17149 0.62378 0.46864 0.0
N1492 N 0.20978 0.53408 0.45033 0.0
N1493 N 0.16511 0.58807 0.46601 0.0
H1494 H 0.58692 0.74151 0.47885 0.0
H1495 H 0.41785 0.55468 0.43534 0.0
H1496 H 0.60221 0.69246 0.43234 0.0
H1497 H 0.40857 0.60149 0.48392 0.0
H1498 H 0.48355 0.60664 0.43274 0.0
H1499 H 0.52107 0.69073 0.48029 0.0
C1500 C 0.57638 0.71965 0.46899 0.0
C1501 C 0.60003 0.72113 0.45544 0.0
C1502 C 0.46708 0.60556 0.44394 0.0
C1503 C 0.52398 0.66288 0.45684 0.0
C1504 C 0.42934 0.57613 0.44535 0.0
C1505 C 0.40756 0.5733 0.45999 0.0
C1506 C 0.48328 0.63245 0.45724 0.0
C1507 C 0.42434 0.6019 0.47258 0.0
C1508 C 0.53865 0.69072 0.46979 0.0
C1509 C 0.58497 0.69209 0.44307 0.0
N1510 N 0.46115 0.63003 0.47096 0.0
N1511 N 0.54768 0.6642 0.44398 0.0
H1512 H 0.45779 0.80751 0.44869 0.0
H1513 H 0.38069 0.95226 0.46485 0.0
H1514 H 0.5156 0.90815 0.48026 0.0
H1515 H 0.31565 0.84448 0.43899 0.0
H1516 H 0.43247 0.93845 0.46898 0.0
H1517 H 0.40609 0.82122 0.4441 0.0
C1518 C 0.45953 0.83235 0.45471 0.0
C1519 C 0.49111 0.8567 0.46487 0.0
C1520 C 0.40699 0.918 0.46224 0.0
C1521 C 0.43242 0.8729 0.4595 0.0
C1522 C 0.37769 0.92615 0.45969 0.0
C1523 C 0.34398 0.89963 0.45146 0.0
C1524 C 0.40259 0.88322 0.45643 0.0
C1525 C 0.34122 0.86578 0.44539 0.0
C1526 C 0.43004 0.84019 0.4521 0.0
C1527 C 0.49166 0.88831 0.4725 0.0
N1528 N 0.37003 0.85852 0.44801 0.0
N1529 N 0.46296 0.89561 0.46956 0.0
H1530 H 0.80285 0.81436 0.24207 0.0
H1531 H 0.99819 0.86746 0.28892 0.0
H1532 H 0.81865 0.83351 0.29694 0.0
H1533 H 0.98912 0.88261 0.23414 0.0
H1534 H 0.9327 0.8531 0.29253 0.0
H1535 H 0.87019 0.8335 0.23916 0.0
C1536 C 0.82039 0.82143 0.25357 0.0
C1537 C 0.80523 0.8212 0.26984 0.0
C1538 C 0.94518 0.85973 0.27974 0.0
C1539 C 0.88233 0.84442 0.26662 0.0
C1540 C 0.98286 0.8684 0.27765 0.0
C1541 C 0.99937 0.87552 0.26111 0.0
C1542 C 0.92353 0.85755 0.26517 0.0
C1543 C 0.97747 0.87598 0.24707 0.0
C1544 C 0.85889 0.833 0.25189 0.0
C1545 C 0.82926 0.83224 0.28428 0.0
N1546 N 0.94061 0.86652 0.24938 0.0
N1547 N 0.86669 0.84328 0.28236 0.0
H1548 H 0.19028 0.9765 0.28891 0.0
H1549 H 0.2471 0.17258 0.24164 0.0
H1550 H 0.29243 0.03901 0.25871 0.0
H1551 H 0.15437 0.11861 0.27793 0.0
H1552 H 0.26167 0.12199 0.24641 0.0
H1553 H 0.17606 0.02751 0.2847 0.0
C1554 C 0.21024 1.00147 0.28171 0.0
C1555 C 0.24289 1.00374 0.27431 0.0
C1556 C 0.2381 0.12114 0.25332 0.0
C1557 C 0.22614 0.06197 0.26904 0.0
C1558 C 0.22941 0.14981 0.25045 0.0
C1559 C 0.19944 0.15001 0.25943 0.0
C1560 C 0.21673 0.09222 0.26526 0.0
C1561 C 0.17802 0.11995 0.2709 0.0
C1562 C 0.20189 0.03046 0.27919 0.0
C1563 C 0.26739 0.03647 0.26491 0.0
N1564 N 0.1871 0.09231 0.27349 0.0
N1565 N 0.25832 0.06418 0.2624 0.0
H1566 H 0.93552 0.07625 0.23376 0.0
H1567 H 0.06195 0.24847 0.29728 0.0
H1568 H 0.91204 0.07065 0.2885 0.0
H1569 H 0.04966 0.26328 0.24299 0.0
H1570 H 1.01281 0.18112 0.29473 0.0
H1571 H 0.9852 0.1424 0.23729 0.0
C1572 C 0.94069 0.08869 0.24654 0.0
C1573 C 0.91853 0.06767 0.26077 0.0
C1574 C 1.02032 0.19929 0.28345 0.0
C1575 C 0.97627 0.14356 0.26489 0.0
C1576 C 0.04786 0.2377 0.28497 0.0
C1577 C 0.05852 0.26148 0.27047 0.0
C1578 C 1.00431 0.1845 0.26719 0.0
C1579 C 0.04105 0.24598 0.25458 0.0
C1580 C 0.9692 0.12654 0.24852 0.0
C1581 C 0.92806 0.08531 0.2771 0.0
N1582 N 1.01496 0.20838 0.25332 0.0
N1583 N 0.95603 0.12222 0.27869 0.0
H1584 H 0.89626 0.82682 0.79639 0.0
H1585 H 0.82278 0.97162 0.77736 0.0
H1586 H 0.7814 0.7883 0.77904 0.0
H1587 H 0.92092 0.99872 0.80872 0.0
H1588 H 0.80961 0.90595 0.77491 0.0
H1589 H 0.9077 0.89086 0.79805 0.0
C1590 C 0.87325 0.83166 0.79279 0.0
C1591 C 0.83766 0.8017 0.78737 0.0
C1592 C 0.83411 0.9263 0.78224 0.0
C1593 C 0.85112 0.87624 0.78941 0.0
C1594 C 0.84183 0.96375 0.78351 0.0
C1595 C 0.87311 0.99049 0.79314 0.0
C1596 C 0.8582 0.91571 0.79046 0.0
C1597 C 0.89657 0.97889 0.80115 0.0
C1598 C 0.87996 0.86856 0.79387 0.0
C1599 C 0.80924 0.81038 0.78319 0.0
N1600 N 0.88875 0.94239 0.79955 0.0
N1601 N 0.81666 0.847 0.7842 0.0
H1602 H 0.23844 0.0906 0.78027 0.0
H1603 H 0.10529 0.87019 0.80126 0.0
H1604 H 0.28259 0.01487 0.78859 0.0
H1605 H 0.06246 0.94578 0.79009 0.0
H1606 H 0.17005 0.92218 0.79623 0.0
H1607 H 0.17427 0.0376 0.78303 0.0
C1608 C 0.23466 0.06258 0.78244 0.0
C1609 C 0.2662 0.05726 0.78423 0.0
C1610 C 0.14662 0.92754 0.7949 0.0
C1611 C 0.19188 0.99591 0.78748 0.0
C1612 C 0.10969 0.89795 0.79785 0.0
C1613 C 0.07864 0.90385 0.79616 0.0
C1614 C 0.15272 0.96354 0.79034 0.0
C1615 C 0.08569 0.94011 0.79148 0.0
C1616 C 0.19779 0.03226 0.78405 0.0
C1617 C 0.25923 0.02025 0.78697 0.0
N1618 N 0.12206 0.96868 0.78883 0.0
N1619 N 0.22274 0.99096 0.78865 0.0
H1620 H 0.13563 0.1727 0.82204 0.0
H1621 H 1.01907 0.23399 0.75862 0.0
H1622 H 0.16505 0.20045 0.76826 0.0
H1623 H 1.0121 0.23432 0.81413 0.0
H1624 H 0.06856 0.21607 0.76113 0.0
H1625 H 0.08463 0.1873 0.81852 0.0
C1626 C 0.13146 0.18175 0.80946 0.0
C1627 C 0.15566 0.18619 0.79555 0.0
C1628 C 0.05665 0.22069 0.77277 0.0
C1629 C 0.09645 0.20252 0.79138 0.0
C1630 C 0.02887 0.23141 0.77131 0.0
C1631 C 1.01266 0.23696 0.7862 0.0
C1632 C 0.06761 0.21472 0.78922 0.0
C1633 C 0.02486 0.23145 0.80237 0.0
C1634 C 0.10216 0.19004 0.80746 0.0
C1635 C 0.14747 0.19662 0.77942 0.0
N1636 N 0.05148 0.22057 0.80346 0.0
N1637 N 0.11883 0.20467 0.77782 0.0
H1638 H 0.45855 0.10296 0.60776 0.0
H1639 H 0.67709 0.25533 0.58716 0.0
H1640 H 0.50151 0.22275 0.59928 0.0
H1641 H 0.64023 0.14125 0.6042 0.0
H1642 H 0.61164 0.24291 0.5905 0.0
H1643 H 0.52418 0.11504 0.60553 0.0
C1644 C 0.48156 0.13165 0.60555 0.0
C1645 C 0.47423 0.16173 0.60387 0.0
C1646 C 0.61785 0.2206 0.5936 0.0
C1647 C 0.54906 0.1757 0.60105 0.0
C1648 C 0.65513 0.2278 0.59171 0.0
C1649 C 0.66369 0.19929 0.59557 0.0
C1650 C 0.58907 0.18452 0.59919 0.0
C1651 C 0.63445 0.16391 0.60126 0.0
C1652 C 0.51899 0.13857 0.60425 0.0
C1653 C 0.50536 0.19843 0.60086 0.0
N1654 N 0.59838 0.15743 0.60285 0.0
N1655 N 0.54112 0.20425 0.59949 0.0
H1656 H 0.94696 0.36877 0.62143 0.0
H1657 H 0.82569 0.45187 0.57601 0.0
H1658 H 0.86437 0.3123 0.58094 0.0
H1659 H 0.90107 0.50693 0.61909 0.0
H1660 H 0.83965 0.4002 0.57799 0.0
H1661 H 0.93241 0.42084 0.6206 0.0
C1662 C 0.92622 0.3676 0.61226 0.0
C1663 C 0.90665 0.33614 0.60135 0.0
C1664 C 0.85302 0.42345 0.5871 0.0
C1665 C 0.88968 0.39495 0.60038 0.0
C1666 C 0.845 0.45297 0.58597 0.0
C1667 C 0.86245 0.48399 0.59731 0.0
C1668 C 0.87892 0.42491 0.5996 0.0
C1669 C 0.8868 0.48352 0.61014 0.0
C1670 C 0.91764 0.39703 0.61188 0.0
C1671 C 0.8798 0.33581 0.58976 0.0
N1672 N 0.89458 0.45465 0.61084 0.0
N1673 N 0.87211 0.3646 0.5896 0.0
H1674 H 0.57385 0.42221 0.56839 0.0
H1675 H 0.74415 0.57246 0.62794 0.0
H1676 H 0.60429 0.39218 0.61707 0.0
H1677 H 0.70469 0.60276 0.5822 0.0
H1678 H 0.69447 0.50599 0.62395 0.0
H1679 H 0.62534 0.48708 0.57211 0.0
C1680 C 0.59159 0.4289 0.57977 0.0
C1681 C 0.58407 0.40129 0.59253 0.0
C1682 C 0.69631 0.52717 0.61488 0.0
C1683 C 0.64279 0.47668 0.59713 0.0
C1684 C 0.72431 0.5651 0.61729 0.0
C1685 C 0.72762 0.59311 0.60568 0.0
C1686 C 0.67204 0.51701 0.60048 0.0
C1687 C 0.70215 0.58213 0.59177 0.0
C1688 C 0.62081 0.46633 0.58199 0.0
C1689 C 0.60816 0.41244 0.60707 0.0
N1690 N 0.6756 0.54488 0.58947 0.0
N1691 N 0.63619 0.44927 0.60902 0.0
loop_
_geom_bond_atom_site_label_1
_geom_bond_atom_site_label_2
_geom_bond_distance
_geom_bond_site_symmetry_2
_ccdc_geom_bond_type
Ho0 C3 2.811 . S
Ho0 O20 2.322 . S
Ho0 O22 2.378 . S
Ho0 O23 2.524 . S
Ho0 O24 2.381 . S
Ho0 O25 2.669 1_545 S
Ho0 O27 2.346 1_545 S
Ho0 O31 2.305 . S
Ho1 C12 2.811 . S
Ho1 O21 2.346 1_565 S
Ho1 O25 2.305 . S
Ho1 O26 2.322 . S
Ho1 O28 2.378 . S
Ho1 O29 2.524 . S
Ho1 O30 2.381 . S
Ho1 O31 2.669 1_565 S
C2 O20 1.259 . S
C2 O21 1.268 . S
C3 Ho0 2.811 . S
C3 C4 1.488 . S
C3 O22 1.215 . S
C3 O23 1.289 . S
C4 C3 1.488 . S
C4 C5 1.348 . S
C4 C9 1.413 . S
C5 C4 1.348 . S
C5 C6 1.442 . S
C5 H32 0.930 . S
C6 C5 1.442 . S
C6 C7 1.381 . S
C6 H33 0.931 . S
C7 C6 1.381 . S
C7 C8 1.321 . S
C8 C7 1.321 . S
C8 C9 1.403 . S
C8 H34 0.934 . S
C9 C4 1.413 . S
C9 C8 1.403 . S
C9 H35 0.930 . S
C10 O24 1.275 . S
C10 O25 1.256 1_545 S
C11 O26 1.259 . S
C11 O27 1.268 . S
C12 Ho1 2.811 . S
C12 C13 1.488 . S
C12 O28 1.215 . S
C12 O29 1.289 . S
C13 C12 1.488 . S
C13 C14 1.348 . S
C13 C18 1.413 . S
C14 C13 1.348 . S
C14 C15 1.442 . S
C14 H36 0.930 . S
C15 C14 1.442 . S
C15 C16 1.381 . S
C15 H37 0.931 . S
C16 C15 1.381 . S
C16 C17 1.321 . S
C17 C16 1.321 . S
C17 C18 1.403 . S
C17 H38 0.934 . S
C18 C13 1.413 . S
C18 C17 1.403 . S
C18 H39 0.930 . S
C19 O30 1.275 1_545 S
C19 O31 1.256 . S
O20 Ho0 2.322 . S
O20 C2 1.259 . S
O21 Ho1 2.346 1_545 S
O21 C2 1.268 . S
O22 Ho0 2.378 . S
O22 C3 1.215 . S
O23 Ho0 2.524 . S
O23 C3 1.289 . S
O24 Ho0 2.381 . S
O24 C10 1.275 . S
O25 Ho0 2.669 1_565 S
O25 Ho1 2.305 . S
O25 C10 1.256 1_565 S
O26 Ho1 2.322 . S
O26 C11 1.259 . S
O27 Ho0 2.346 1_565 S
O27 C11 1.268 . S
O28 Ho1 2.378 . S
O28 C12 1.215 . S
O29 Ho1 2.524 . S
O29 C12 1.289 . S
O30 Ho1 2.381 . S
O30 C19 1.275 1_565 S
O31 Ho0 2.305 . S
O31 Ho1 2.669 1_545 S
O31 C19 1.256 . S
H32 C5 0.930 . S
H33 C6 0.931 . S
H34 C8 0.934 . S
H35 C9 0.930 . S
H36 C14 0.930 . S
H37 C15 0.931 . S
H38 C17 0.934 . S
H39 C18 0.930 . S
Ho40 C43 2.844 . S
Ho40 O60 2.325 . S
Ho40 O62 2.409 . S
Ho40 O63 2.553 . S
Ho40 O64 2.371 1_655 S
Ho40 O65 2.640 1_655 S
Ho40 O67 2.319 1_655 S
Ho40 O71 2.291 1_655 S
Ho41 C52 2.811 . S
Ho41 O61 2.346 1_455 S
Ho41 O65 2.305 . S
Ho41 O66 2.322 . S
Ho41 O68 2.378 . S
Ho41 O69 2.524 . S
Ho41 O70 2.381 . S
Ho41 O71 2.669 . S
C42 O60 1.259 . S
C42 O61 1.268 . S
C43 Ho40 2.844 . S
C43 C44 1.488 . S
C43 O62 1.215 . S
C43 O63 1.289 . S
C44 C43 1.488 . S
C44 C45 1.348 . S
C44 C49 1.413 . S
C45 C44 1.348 . S
C45 C46 1.442 . S
C45 H72 0.930 . S
C46 C45 1.442 . S
C46 C47 1.381 . S
C46 H73 0.931 . S
C47 C46 1.381 . S
C47 C48 1.321 . S
C48 C47 1.321 . S
C48 C49 1.403 . S
C48 H74 0.934 . S
C49 C44 1.413 . S
C49 C48 1.403 . S
C49 H75 0.930 . S
C50 O64 1.275 . S
C50 O65 1.256 . S
C51 O66 1.259 . S
C51 O67 1.268 . S
C52 Ho41 2.811 . S
C52 C53 1.488 . S
C52 O68 1.215 . S
C52 O69 1.289 . S
C53 C52 1.488 . S
C53 C54 1.348 . S
C53 C58 1.413 . S
C54 C53 1.348 . S
C54 C55 1.442 . S
C54 H76 0.930 . S
C55 C54 1.442 . S
C55 C56 1.381 . S
C55 H77 0.931 . S
C56 C55 1.381 . S
C56 C57 1.321 . S
C57 C56 1.321 . S
C57 C58 1.403 . S
C57 H78 0.934 . S
C58 C53 1.413 . S
C58 C57 1.403 . S
C58 H79 0.930 . S
C59 O70 1.275 . S
C59 O71 1.256 . S
O60 Ho40 2.325 . S
O60 C42 1.259 . S
O61 Ho41 2.346 1_655 S
O61 C42 1.268 . S
O62 Ho40 2.409 . S
O62 C43 1.215 . S
O63 Ho40 2.553 . S
O63 C43 1.289 . S
O64 Ho40 2.371 1_455 S
O64 C50 1.275 . S
O65 Ho40 2.640 1_455 S
O65 Ho41 2.305 . S
O65 C50 1.256 . S
O66 Ho41 2.322 . S
O66 C51 1.259 . S
O67 Ho40 2.319 1_455 S
O67 C51 1.268 . S
O68 Ho41 2.378 . S
O68 C52 1.215 . S
O69 Ho41 2.524 . S
O69 C52 1.289 . S
O70 Ho41 2.381 . S
O70 C59 1.275 . S
O71 Ho40 2.291 1_455 S
O71 Ho41 2.669 . S
O71 C59 1.256 . S
H72 C45 0.930 . S
H73 C46 0.931 . S
H74 C48 0.934 . S
H75 C49 0.930 . S
H76 C54 0.930 . S
H77 C55 0.931 . S
H78 C57 0.934 . S
H79 C58 0.930 . S
Ho80 C83 2.811 . S
Ho80 O100 2.322 . S
Ho80 O102 2.378 . S
Ho80 O103 2.524 . S
Ho80 O104 2.381 . S
Ho80 O105 2.669 . S
Ho80 O107 2.346 . S
Ho80 O111 2.305 . S
Ho81 C92 2.811 . S
Ho81 O101 2.346 . S
Ho81 O105 2.305 . S
Ho81 O106 2.322 . S
Ho81 O108 2.378 . S
Ho81 O109 2.524 . S
Ho81 O110 2.381 . S
Ho81 O111 2.669 . S
C82 O100 1.259 . S
C82 O101 1.268 . S
C83 Ho80 2.811 . S
C83 C84 1.488 . S
C83 O102 1.215 . S
C83 O103 1.289 . S
C84 C83 1.488 . S
C84 C85 1.348 . S
C84 C89 1.413 . S
C85 C84 1.348 . S
C85 C86 1.442 . S
C85 H112 0.930 . S
C86 C85 1.442 . S
C86 C87 1.381 . S
C86 H113 0.931 . S
C87 C86 1.381 . S
C87 C88 1.321 . S
C88 C87 1.321 . S
C88 C89 1.403 . S
C88 H114 0.934 . S
C89 C84 1.413 . S
C89 C88 1.403 . S
C89 H115 0.930 . S
C90 O104 1.275 . S
C90 O105 1.256 . S
C91 O106 1.259 . S
C91 O107 1.268 . S
C92 Ho81 2.811 . S
C92 C93 1.488 . S
C92 O108 1.215 . S
C92 O109 1.289 . S
C93 C92 1.488 . S
C93 C94 1.348 . S
C93 C98 1.413 . S
C94 C93 1.348 . S
C94 C95 1.442 . S
C94 H116 0.930 . S
C95 C94 1.442 . S
C95 C96 1.381 . S
C95 H117 0.931 . S
C96 C95 1.381 . S
C96 C97 1.321 . S
C97 C96 1.321 . S
C97 C98 1.403 . S
C97 H118 0.934 . S
C98 C93 1.413 . S
C98 C97 1.403 . S
C98 H119 0.930 . S
C99 O110 1.275 . S
C99 O111 1.256 . S
O100 Ho80 2.322 . S
O100 C82 1.259 . S
O101 Ho81 2.346 . S
O101 C82 1.268 . S
O102 Ho80 2.378 . S
O102 C83 1.215 . S
O103 Ho80 2.524 . S
O103 C83 1.289 . S
O104 Ho80 2.381 . S
O104 C90 1.275 . S
O105 Ho80 2.669 . S
O105 Ho81 2.305 . S
O105 C90 1.256 . S
O106 Ho81 2.322 . S
O106 C91 1.259 . S
O107 Ho80 2.346 . S
O107 C91 1.268 . S
O108 Ho81 2.378 . S
O108 C92 1.215 . S
O109 Ho81 2.524 . S
O109 C92 1.289 . S
O110 Ho81 2.381 . S
O110 C99 1.275 . S
O111 Ho80 2.305 . S
O111 Ho81 2.669 . S
O111 C99 1.256 . S
H112 C85 0.930 . S
H113 C86 0.931 . S
H114 C88 0.934 . S
H115 C89 0.930 . S
H116 C94 0.930 . S
H117 C95 0.931 . S
H118 C97 0.934 . S
H119 C98 0.930 . S
Ho120 C123 2.811 . S
Ho120 O140 2.322 . S
Ho120 O142 2.378 . S
Ho120 O143 2.524 . S
Ho120 O144 2.381 . S
Ho120 O145 2.669 1_455 S
Ho120 O147 2.346 1_455 S
Ho120 O151 2.305 . S
Ho121 C132 2.811 . S
Ho121 O141 2.346 1_655 S
Ho121 O145 2.305 . S
Ho121 O146 2.322 . S
Ho121 O148 2.378 . S
Ho121 O149 2.524 . S
Ho121 O150 2.381 . S
Ho121 O151 2.669 1_655 S
C122 O140 1.259 . S
C122 O141 1.268 . S
C123 Ho120 2.811 . S
C123 C124 1.488 . S
C123 O142 1.215 . S
C123 O143 1.289 . S
C124 C123 1.488 . S
C124 C125 1.348 . S
C124 C129 1.413 . S
C125 C124 1.348 . S
C125 C126 1.442 . S
C125 H152 0.930 . S
C126 C125 1.442 . S
C126 C127 1.381 . S
C126 H153 0.931 . S
C127 C126 1.381 . S
C127 C128 1.321 . S
C128 C127 1.321 . S
C128 C129 1.403 . S
C128 H154 0.934 . S
C129 C124 1.413 . S
C129 C128 1.403 . S
C129 H155 0.930 . S
C130 O144 1.275 . S
C130 O145 1.256 1_455 S
C131 O146 1.259 . S
C131 O147 1.268 . S
C132 Ho121 2.811 . S
C132 C133 1.488 . S
C132 O148 1.215 . S
C132 O149 1.289 . S
C133 C132 1.488 . S
C133 C134 1.348 . S
C133 C138 1.413 . S
C134 C133 1.348 . S
C134 C135 1.442 . S
C134 H156 0.930 . S
C135 C134 1.442 . S
C135 C136 1.381 . S
C135 H157 0.931 . S
C136 C135 1.381 . S
C136 C137 1.321 . S
C137 C136 1.321 . S
C137 C138 1.403 . S
C137 H158 0.934 . S
C138 C133 1.413 . S
C138 C137 1.403 . S
C138 H159 0.930 . S
C139 O150 1.275 1_455 S
C139 O151 1.256 . S
O140 Ho120 2.322 . S
O140 C122 1.259 . S
O141 Ho121 2.346 1_455 S
O141 C122 1.268 . S
O142 Ho120 2.378 . S
O142 C123 1.215 . S
O143 Ho120 2.524 . S
O143 C123 1.289 . S
O144 Ho120 2.381 . S
O144 C130 1.275 . S
O145 Ho120 2.669 1_655 S
O145 Ho121 2.305 . S
O145 C130 1.256 1_655 S
O146 Ho121 2.322 . S
O146 C131 1.259 . S
O147 Ho120 2.346 1_655 S
O147 C131 1.268 . S
O148 Ho121 2.378 . S
O148 C132 1.215 . S
O149 Ho121 2.524 . S
O149 C132 1.289 . S
O150 Ho121 2.381 . S
O150 C139 1.275 1_655 S
O151 Ho120 2.305 . S
O151 Ho121 2.669 1_455 S
O151 C139 1.256 . S
H152 C125 0.930 . S
H153 C126 0.931 . S
H154 C128 0.934 . S
H155 C129 0.930 . S
H156 C134 0.930 . S
H157 C135 0.931 . S
H158 C137 0.934 . S
H159 C138 0.930 . S
Ho160 C163 2.811 . S
Ho160 O180 2.322 . S
Ho160 O182 2.378 . S
Ho160 O183 2.524 . S
Ho160 O184 2.381 . S
Ho160 O185 2.669 . S
Ho160 O187 2.346 . S
Ho160 O191 2.305 . S
Ho161 C172 2.811 . S
Ho161 O181 2.346 . S
Ho161 O185 2.305 . S
Ho161 O186 2.322 . S
Ho161 O188 2.378 . S
Ho161 O189 2.524 . S
Ho161 O190 2.381 . S
Ho161 O191 2.669 . S
C162 O180 1.259 . S
C162 O181 1.268 . S
C163 Ho160 2.811 . S
C163 C164 1.488 . S
C163 O182 1.215 . S
C163 O183 1.289 . S
C164 C163 1.488 . S
C164 C165 1.348 . S
C164 C169 1.413 . S
C165 C164 1.348 . S
C165 C166 1.442 . S
C165 H192 0.930 . S
C166 C165 1.442 . S
C166 C167 1.381 . S
C166 H193 0.931 . S
C167 C166 1.381 . S
C167 C168 1.321 . S
C168 C167 1.321 . S
C168 C169 1.403 . S
C168 H194 0.934 . S
C169 C164 1.413 . S
C169 C168 1.403 . S
C169 H195 0.930 . S
C170 O184 1.275 . S
C170 O185 1.256 . S
C171 O186 1.259 . S
C171 O187 1.268 . S
C172 Ho161 2.811 . S
C172 C173 1.488 . S
C172 O188 1.215 . S
C172 O189 1.289 . S
C173 C172 1.488 . S
C173 C174 1.348 . S
C173 C178 1.413 . S
C174 C173 1.348 . S
C174 C175 1.442 . S
C174 H196 0.930 . S
C175 C174 1.442 . S
C175 C176 1.381 . S
C175 H197 0.931 . S
C176 C175 1.381 . S
C176 C177 1.321 . S
C177 C176 1.321 . S
C177 C178 1.403 . S
C177 H198 0.934 . S
C178 C173 1.413 . S
C178 C177 1.403 . S
C178 H199 0.930 . S
C179 O190 1.275 . S
C179 O191 1.256 . S
O180 Ho160 2.322 . S
O180 C162 1.259 . S
O181 Ho161 2.346 . S
O181 C162 1.268 . S
O182 Ho160 2.378 . S
O182 C163 1.215 . S
O183 Ho160 2.524 . S
O183 C163 1.289 . S
O184 Ho160 2.381 . S
O184 C170 1.275 . S
O185 Ho160 2.669 . S
O185 Ho161 2.305 . S
O185 C170 1.256 . S
O186 Ho161 2.322 . S
O186 C171 1.259 . S
O187 Ho160 2.346 . S
O187 C171 1.268 . S
O188 Ho161 2.378 . S
O188 C172 1.215 . S
O189 Ho161 2.524 . S
O189 C172 1.289 . S
O190 Ho161 2.381 . S
O190 C179 1.275 . S
O191 Ho160 2.305 . S
O191 Ho161 2.669 . S
O191 C179 1.256 . S
H192 C165 0.930 . S
H193 C166 0.931 . S
H194 C168 0.934 . S
H195 C169 0.930 . S
H196 C174 0.930 . S
H197 C175 0.931 . S
H198 C177 0.934 . S
H199 C178 0.930 . S
Ho200 C203 2.844 . S
Ho200 O220 2.325 . S
Ho200 O222 2.409 . S
Ho200 O223 2.553 . S
Ho200 O224 2.371 1_565 S
Ho200 O225 2.640 1_565 S
Ho200 O227 2.319 1_565 S
Ho200 O231 2.291 1_565 S
Ho201 C212 2.811 . S
Ho201 O221 2.346 1_545 S
Ho201 O225 2.305 . S
Ho201 O226 2.322 . S
Ho201 O228 2.378 . S
Ho201 O229 2.524 . S
Ho201 O230 2.381 . S
Ho201 O231 2.669 . S
C202 O220 1.259 . S
C202 O221 1.268 . S
C203 Ho200 2.844 . S
C203 C204 1.488 . S
C203 O222 1.215 . S
C203 O223 1.289 . S
C204 C203 1.488 . S
C204 C205 1.348 . S
C204 C209 1.413 . S
C205 C204 1.348 . S
C205 C206 1.442 . S
C205 H232 0.930 . S
C206 C205 1.442 . S
C206 C207 1.381 . S
C206 H233 0.931 . S
C207 C206 1.381 . S
C207 C208 1.321 . S
C208 C207 1.321 . S
C208 C209 1.403 . S
C208 H234 0.934 . S
C209 C204 1.413 . S
C209 C208 1.403 . S
C209 H235 0.930 . S
C210 O224 1.275 . S
C210 O225 1.256 . S
C211 O226 1.259 . S
C211 O227 1.268 . S
C212 Ho201 2.811 . S
C212 C213 1.488 . S
C212 O228 1.215 . S
C212 O229 1.289 . S
C213 C212 1.488 . S
C213 C214 1.348 . S
C213 C218 1.413 . S
C214 C213 1.348 . S
C214 C215 1.442 . S
C214 H236 0.930 . S
C215 C214 1.442 . S
C215 C216 1.381 . S
C215 H237 0.931 . S
C216 C215 1.381 . S
C216 C217 1.321 . S
C217 C216 1.321 . S
C217 C218 1.403 . S
C217 H238 0.934 . S
C218 C213 1.413 . S
C218 C217 1.403 . S
C218 H239 0.930 . S
C219 O230 1.275 . S
C219 O231 1.256 . S
O220 Ho200 2.325 . S
O220 C202 1.259 . S
O221 Ho201 2.346 1_565 S
O221 C202 1.268 . S
O222 Ho200 2.409 . S
O222 C203 1.215 . S
O223 Ho200 2.553 . S
O223 C203 1.289 . S
O224 Ho200 2.371 1_545 S
O224 C210 1.275 . S
O225 Ho200 2.640 1_545 S
O225 Ho201 2.305 . S
O225 C210 1.256 . S
O226 Ho201 2.322 . S
O226 C211 1.259 . S
O227 Ho200 2.319 1_545 S
O227 C211 1.268 . S
O228 Ho201 2.378 . S
O228 C212 1.215 . S
O229 Ho201 2.524 . S
O229 C212 1.289 . S
O230 Ho201 2.381 . S
O230 C219 1.275 . S
O231 Ho200 2.291 1_545 S
O231 Ho201 2.669 . S
O231 C219 1.256 . S
H232 C205 0.930 . S
H233 C206 0.931 . S
H234 C208 0.934 . S
H235 C209 0.930 . S
H236 C214 0.930 . S
H237 C215 0.931 . S
H238 C217 0.934 . S
H239 C218 0.930 . S
Ho240 C243 2.811 . S
Ho240 O260 2.322 . S
Ho240 O262 2.378 . S
Ho240 O263 2.524 . S
Ho240 O264 2.381 . S
Ho240 O265 2.669 . S
Ho240 O267 2.346 . S
Ho240 O271 2.305 . S
Ho241 C252 2.811 . S
Ho241 O261 2.346 . S
Ho241 O265 2.305 . S
Ho241 O266 2.322 . S
Ho241 O268 2.378 . S
Ho241 O269 2.524 . S
Ho241 O270 2.381 . S
Ho241 O271 2.669 . S
C242 O260 1.259 . S
C242 O261 1.268 . S
C243 Ho240 2.811 . S
C243 C244 1.488 . S
C243 O262 1.215 . S
C243 O263 1.289 . S
C244 C243 1.488 . S
C244 C245 1.348 . S
C244 C249 1.413 . S
C245 C244 1.348 . S
C245 C246 1.442 . S
C245 H272 0.930 . S
C246 C245 1.442 . S
C246 C247 1.381 . S
C246 H273 0.931 . S
C247 C246 1.381 . S
C247 C248 1.321 . S
C248 C247 1.321 . S
C248 C249 1.403 . S
C248 H274 0.934 . S
C249 C244 1.413 . S
C249 C248 1.403 . S
C249 H275 0.930 . S
C250 O264 1.275 . S
C250 O265 1.256 . S
C251 O266 1.259 . S
C251 O267 1.268 . S
C252 Ho241 2.811 . S
C252 C253 1.488 . S
C252 O268 1.215 . S
C252 O269 1.289 . S
C253 C252 1.488 . S
C253 C254 1.348 . S
C253 C258 1.413 1_455 S
C254 C253 1.348 . S
C254 C255 1.438 1_455 S
C254 H276 0.934 . S
C255 C254 1.438 1_655 S
C255 C256 1.381 . S
C255 H277 0.931 . S
C256 C255 1.381 . S
C256 C257 1.321 . S
C257 C256 1.321 . S
C257 C258 1.403 . S
C257 H278 0.934 . S
C258 C253 1.413 1_655 S
C258 C257 1.403 . S
C258 H279 0.930 1_655 S
C259 O270 1.275 . S
C259 O271 1.256 . S
O260 Ho240 2.322 . S
O260 C242 1.259 . S
O261 Ho241 2.346 . S
O261 C242 1.268 . S
O262 Ho240 2.378 . S
O262 C243 1.215 . S
O263 Ho240 2.524 . S
O263 C243 1.289 . S
O264 Ho240 2.381 . S
O264 C250 1.275 . S
O265 Ho240 2.669 . S
O265 Ho241 2.305 . S
O265 C250 1.256 . S
O266 Ho241 2.322 . S
O266 C251 1.259 . S
O267 Ho240 2.346 . S
O267 C251 1.268 . S
O268 Ho241 2.378 . S
O268 C252 1.215 . S
O269 Ho241 2.524 . S
O269 C252 1.289 . S
O270 Ho241 2.381 . S
O270 C259 1.275 . S
O271 Ho240 2.305 . S
O271 Ho241 2.669 . S
O271 C259 1.256 . S
H272 C245 0.930 . S
H273 C246 0.931 . S
H274 C248 0.934 . S
H275 C249 0.930 . S
H276 C254 0.934 . S
H277 C255 0.931 . S
H278 C257 0.934 . S
H279 C258 0.930 1_455 S
Ho280 C283 2.811 . S
Ho280 O300 2.322 . S
Ho280 O302 2.378 . S
Ho280 O303 2.524 . S
Ho280 O304 2.381 . S
Ho280 O305 2.669 . S
Ho280 O307 2.346 . S
Ho280 O311 2.305 . S
Ho281 C292 2.811 . S
Ho281 O301 2.346 . S
Ho281 O305 2.305 . S
Ho281 O306 2.322 . S
Ho281 O308 2.378 . S
Ho281 O309 2.524 . S
Ho281 O310 2.381 . S
Ho281 O311 2.669 . S
C282 O300 1.259 . S
C282 O301 1.268 . S
C283 Ho280 2.811 . S
C283 C284 1.488 . S
C283 O302 1.215 . S
C283 O303 1.289 . S
C284 C283 1.488 . S
C284 C285 1.348 . S
C284 C289 1.413 . S
C285 C284 1.348 . S
C285 C286 1.442 . S
C285 H312 0.930 . S
C286 C285 1.442 . S
C286 C287 1.381 . S
C286 H313 0.931 . S
C287 C286 1.381 . S
C287 C288 1.321 . S
C288 C287 1.321 . S
C288 C289 1.403 . S
C288 H314 0.934 . S
C289 C284 1.413 . S
C289 C288 1.403 . S
C289 H315 0.930 . S
C290 O304 1.275 . S
C290 O305 1.256 . S
C291 O306 1.259 . S
C291 O307 1.268 . S
C292 Ho281 2.811 . S
C292 C293 1.488 . S
C292 O308 1.215 . S
C292 O309 1.289 . S
C293 C292 1.488 . S
C293 C294 1.348 . S
C293 C298 1.413 . S
C294 C293 1.348 . S
C294 C295 1.442 . S
C294 H316 0.930 . S
C295 C294 1.442 . S
C295 C296 1.381 . S
C295 H317 0.931 . S
C296 C295 1.381 . S
C296 C297 1.321 . S
C297 C296 1.321 . S
C297 C298 1.403 . S
C297 H318 0.934 . S
C298 C293 1.413 . S
C298 C297 1.403 . S
C298 H319 0.930 . S
C299 O310 1.275 . S
C299 O311 1.256 . S
O300 Ho280 2.322 . S
O300 C282 1.259 . S
O301 Ho281 2.346 . S
O301 C282 1.268 . S
O302 Ho280 2.378 . S
O302 C283 1.215 . S
O303 Ho280 2.524 . S
O303 C283 1.289 . S
O304 Ho280 2.381 . S
O304 C290 1.275 . S
O305 Ho280 2.669 . S
O305 Ho281 2.305 . S
O305 C290 1.256 . S
O306 Ho281 2.322 . S
O306 C291 1.259 . S
O307 Ho280 2.346 . S
O307 C291 1.268 . S
O308 Ho281 2.378 . S
O308 C292 1.215 . S
O309 Ho281 2.524 . S
O309 C292 1.289 . S
O310 Ho281 2.381 . S
O310 C299 1.275 . S
O311 Ho280 2.305 . S
O311 Ho281 2.669 . S
O311 C299 1.256 . S
H312 C285 0.930 . S
H313 C286 0.931 . S
H314 C288 0.934 . S
H315 C289 0.930 . S
H316 C294 0.930 . S
H317 C295 0.931 . S
H318 C297 0.934 . S
H319 C298 0.930 . S
Ho320 C323 2.811 . S
Ho320 O340 2.322 . S
Ho320 O342 2.378 . S
Ho320 O343 2.524 . S
Ho320 O344 2.381 . S
Ho320 O345 2.669 . S
Ho320 O347 2.346 . S
Ho320 O351 2.305 . S
Ho321 C332 2.811 . S
Ho321 O341 2.346 . S
Ho321 O345 2.305 . S
Ho321 O346 2.322 . S
Ho321 O348 2.378 . S
Ho321 O349 2.524 . S
Ho321 O350 2.381 . S
Ho321 O351 2.669 . S
C322 O340 1.259 . S
C322 O341 1.268 . S
C323 Ho320 2.811 . S
C323 C324 1.488 . S
C323 O342 1.215 . S
C323 O343 1.289 . S
C324 C323 1.488 . S
C324 C325 1.348 . S
C324 C329 1.413 . S
C325 C324 1.348 . S
C325 C326 1.442 . S
C325 H352 0.930 . S
C326 C325 1.442 . S
C326 C327 1.381 . S
C326 H353 0.931 . S
C327 C326 1.381 . S
C327 C328 1.321 . S
C328 C327 1.321 . S
C328 C329 1.403 . S
C328 H354 0.934 . S
C329 C324 1.413 . S
C329 C328 1.403 . S
C329 H355 0.930 . S
C330 O344 1.275 . S
C330 O345 1.256 . S
C331 O346 1.259 . S
C331 O347 1.268 . S
C332 Ho321 2.811 . S
C332 C333 1.488 1_565 S
C332 O348 1.215 . S
C332 O349 1.289 . S
C333 C332 1.488 1_545 S
C333 C334 1.348 . S
C333 C338 1.413 . S
C334 C333 1.348 . S
C334 C335 1.442 . S
C334 H356 0.930 . S
C335 C334 1.442 . S
C335 C336 1.381 . S
C335 H357 0.931 . S
C336 C335 1.381 . S
C336 C337 1.321 . S
C337 C336 1.321 . S
C337 C338 1.403 . S
C337 H358 0.934 . S
C338 C333 1.413 . S
C338 C337 1.403 . S
C338 H359 0.930 . S
C339 O350 1.275 . S
C339 O351 1.256 . S
O340 Ho320 2.322 . S
O340 C322 1.259 . S
O341 Ho321 2.346 . S
O341 C322 1.268 . S
O342 Ho320 2.378 . S
O342 C323 1.215 . S
O343 Ho320 2.524 . S
O343 C323 1.289 . S
O344 Ho320 2.381 . S
O344 C330 1.275 . S
O345 Ho320 2.669 . S
O345 Ho321 2.305 . S
O345 C330 1.256 . S
O346 Ho321 2.322 . S
O346 C331 1.259 . S
O347 Ho320 2.346 . S
O347 C331 1.268 . S
O348 Ho321 2.378 . S
O348 C332 1.215 . S
O349 Ho321 2.524 . S
O349 C332 1.289 . S
O350 Ho321 2.381 . S
O350 C339 1.275 . S
O351 Ho320 2.305 . S
O351 Ho321 2.669 . S
O351 C339 1.256 . S
H352 C325 0.930 . S
H353 C326 0.931 . S
H354 C328 0.934 . S
H355 C329 0.930 . S
H356 C334 0.930 . S
H357 C335 0.931 . S
H358 C337 0.934 . S
H359 C338 0.930 . S
Ho360 C363 2.811 . S
Ho360 O380 2.322 . S
Ho360 O382 2.378 . S
Ho360 O383 2.524 . S
Ho360 O384 2.381 . S
Ho360 O385 2.669 . S
Ho360 O387 2.346 . S
Ho360 O391 2.305 . S
Ho361 C372 2.811 . S
Ho361 O381 2.346 . S
Ho361 O385 2.305 . S
Ho361 O386 2.322 . S
Ho361 O388 2.378 . S
Ho361 O389 2.524 . S
Ho361 O390 2.381 . S
Ho361 O391 2.669 . S
C362 O380 1.259 . S
C362 O381 1.268 . S
C363 Ho360 2.811 . S
C363 C364 1.488 . S
C363 O382 1.215 . S
C363 O383 1.289 . S
C364 C363 1.488 . S
C364 C365 1.348 . S
C364 C369 1.413 . S
C365 C364 1.348 . S
C365 C366 1.442 . S
C365 H392 0.930 . S
C366 C365 1.442 . S
C366 C367 1.381 1_565 S
C366 H393 0.931 1_565 S
C367 C366 1.381 1_545 S
C367 C368 1.321 . S
C368 C367 1.321 . S
C368 C369 1.403 1_545 S
C368 H394 0.934 . S
C369 C364 1.413 . S
C369 C368 1.403 1_565 S
C369 H395 0.930 . S
C370 O384 1.275 . S
C370 O385 1.256 . S
C371 O386 1.259 . S
C371 O387 1.268 . S
C372 Ho361 2.811 . S
C372 C373 1.488 . S
C372 O388 1.215 . S
C372 O389 1.289 . S
C373 C372 1.488 . S
C373 C374 1.348 . S
C373 C378 1.413 . S
C374 C373 1.348 . S
C374 C375 1.442 . S
C374 H396 0.930 . S
C375 C374 1.442 . S
C375 C376 1.381 . S
C375 H397 0.931 . S
C376 C375 1.381 . S
C376 C377 1.321 . S
C377 C376 1.321 . S
C377 C378 1.403 . S
C377 H398 0.934 . S
C378 C373 1.413 . S
C378 C377 1.403 . S
C378 H399 0.930 . S
C379 O390 1.275 . S
C379 O391 1.256 . S
O380 Ho360 2.322 . S
O380 C362 1.259 . S
O381 Ho361 2.346 . S
O381 C362 1.268 . S
O382 Ho360 2.378 . S
O382 C363 1.215 . S
O383 Ho360 2.524 . S
O383 C363 1.289 . S
O384 Ho360 2.381 . S
O384 C370 1.275 . S
O385 Ho360 2.669 . S
O385 Ho361 2.305 . S
O385 C370 1.256 . S
O386 Ho361 2.322 . S
O386 C371 1.259 . S
O387 Ho360 2.346 . S
O387 C371 1.268 . S
O388 Ho361 2.378 . S
O388 C372 1.215 . S
O389 Ho361 2.524 . S
O389 C372 1.289 . S
O390 Ho361 2.381 . S
O390 C379 1.275 . S
O391 Ho360 2.305 . S
O391 Ho361 2.669 . S
O391 C379 1.256 . S
H392 C365 0.930 . S
H393 C366 0.931 1_545 S
H394 C368 0.934 . S
H395 C369 0.930 . S
H396 C374 0.930 . S
H397 C375 0.931 . S
H398 C377 0.934 . S
H399 C378 0.930 . S
Ho400 C403 2.811 . S
Ho400 O420 2.322 . S
Ho400 O422 2.378 . S
Ho400 O423 2.524 . S
Ho400 O424 2.381 . S
Ho400 O425 2.669 . S
Ho400 O427 2.346 . S
Ho400 O431 2.305 . S
Ho401 C412 2.811 . S
Ho401 O421 2.346 . S
Ho401 O425 2.305 . S
Ho401 O426 2.322 . S
Ho401 O428 2.378 . S
Ho401 O429 2.524 . S
Ho401 O430 2.381 . S
Ho401 O431 2.669 . S
C402 O420 1.259 . S
C402 O421 1.268 . S
C403 Ho400 2.811 . S
C403 C404 1.488 . S
C403 O422 1.215 . S
C403 O423 1.289 . S
C404 C403 1.488 . S
C404 C405 1.348 . S
C404 C409 1.413 . S
C405 C404 1.348 . S
C405 C406 1.442 . S
C405 H432 0.930 . S
C406 C405 1.442 . S
C406 C407 1.381 . S
C406 H433 0.931 . S
C407 C406 1.381 . S
C407 C408 1.321 . S
C408 C407 1.321 . S
C408 C409 1.403 . S
C408 H434 0.934 . S
C409 C404 1.413 . S
C409 C408 1.403 . S
C409 H435 0.930 . S
C410 O424 1.275 . S
C410 O425 1.256 . S
C411 O426 1.259 . S
C411 O427 1.268 . S
C412 Ho401 2.811 . S
C412 C413 1.488 . S
C412 O428 1.215 . S
C412 O429 1.289 . S
C413 C412 1.488 . S
C413 C414 1.348 . S
C413 C418 1.413 . S
C414 C413 1.348 . S
C414 C415 1.442 . S
C414 H436 0.930 . S
C415 C414 1.442 . S
C415 C416 1.381 . S
C415 H437 0.931 . S
C416 C415 1.381 . S
C416 C417 1.321 . S
C417 C416 1.321 . S
C417 C418 1.403 . S
C417 H438 0.934 . S
C418 C413 1.413 . S
C418 C417 1.403 . S
C418 H439 0.930 . S
C419 O430 1.275 . S
C419 O431 1.256 . S
O420 Ho400 2.322 . S
O420 C402 1.259 . S
O421 Ho401 2.346 . S
O421 C402 1.268 . S
O422 Ho400 2.378 . S
O422 C403 1.215 . S
O423 Ho400 2.524 . S
O423 C403 1.289 . S
O424 Ho400 2.381 . S
O424 C410 1.275 . S
O425 Ho400 2.669 . S
O425 Ho401 2.305 . S
O425 C410 1.256 . S
O426 Ho401 2.322 . S
O426 C411 1.259 . S
O427 Ho400 2.346 . S
O427 C411 1.268 . S
O428 Ho401 2.378 . S
O428 C412 1.215 . S
O429 Ho401 2.524 . S
O429 C412 1.289 . S
O430 Ho401 2.381 . S
O430 C419 1.275 . S
O431 Ho400 2.305 . S
O431 Ho401 2.669 . S
O431 C419 1.256 . S
H432 C405 0.930 . S
H433 C406 0.931 . S
H434 C408 0.934 . S
H435 C409 0.930 . S
H436 C414 0.930 . S
H437 C415 0.931 . S
H438 C417 0.934 . S
H439 C418 0.930 . S
Ho440 C443 2.811 . S
Ho440 O460 2.322 . S
Ho440 O462 2.378 . S
Ho440 O463 2.524 . S
Ho440 O464 2.381 . S
Ho440 O465 2.669 . S
Ho440 O467 2.346 . S
Ho440 O471 2.305 . S
Ho441 C452 2.811 . S
Ho441 O461 2.346 . S
Ho441 O465 2.305 . S
Ho441 O466 2.322 . S
Ho441 O468 2.378 . S
Ho441 O469 2.524 . S
Ho441 O470 2.381 . S
Ho441 O471 2.669 . S
C442 O460 1.259 . S
C442 O461 1.268 . S
C443 Ho440 2.811 . S
C443 C444 1.488 . S
C443 O462 1.215 . S
C443 O463 1.289 . S
C444 C443 1.488 . S
C444 C445 1.348 . S
C444 C449 1.413 . S
C445 C444 1.348 . S
C445 C446 1.442 . S
C445 H472 0.930 . S
C446 C445 1.442 . S
C446 C447 1.381 . S
C446 H473 0.931 . S
C447 C446 1.381 . S
C447 C448 1.321 . S
C448 C447 1.321 . S
C448 C449 1.403 . S
C448 H474 0.934 . S
C449 C444 1.413 . S
C449 C448 1.403 . S
C449 H475 0.930 . S
C450 O464 1.275 . S
C450 O465 1.256 . S
C451 O466 1.259 . S
C451 O467 1.268 . S
C452 Ho441 2.811 . S
C452 C453 1.488 . S
C452 O468 1.215 . S
C452 O469 1.289 . S
C453 C452 1.488 . S
C453 C454 1.348 . S
C453 C458 1.413 . S
C454 C453 1.348 . S
C454 C455 1.442 . S
C454 H476 0.930 . S
C455 C454 1.442 . S
C455 C456 1.381 . S
C455 H477 0.931 . S
C456 C455 1.381 . S
C456 C457 1.321 . S
C457 C456 1.321 . S
C457 C458 1.403 . S
C457 H478 0.934 . S
C458 C453 1.413 . S
C458 C457 1.403 . S
C458 H479 0.930 . S
C459 O470 1.275 . S
C459 O471 1.256 . S
O460 Ho440 2.322 . S
O460 C442 1.259 . S
O461 Ho441 2.346 . S
O461 C442 1.268 . S
O462 Ho440 2.378 . S
O462 C443 1.215 . S
O463 Ho440 2.524 . S
O463 C443 1.289 . S
O464 Ho440 2.381 . S
O464 C450 1.275 . S
O465 Ho440 2.669 . S
O465 Ho441 2.305 . S
O465 C450 1.256 . S
O466 Ho441 2.322 . S
O466 C451 1.259 . S
O467 Ho440 2.346 . S
O467 C451 1.268 . S
O468 Ho441 2.378 . S
O468 C452 1.215 . S
O469 Ho441 2.524 . S
O469 C452 1.289 . S
O470 Ho441 2.381 . S
O470 C459 1.275 . S
O471 Ho440 2.305 . S
O471 Ho441 2.669 . S
O471 C459 1.256 . S
H472 C445 0.930 . S
H473 C446 0.931 . S
H474 C448 0.934 . S
H475 C449 0.930 . S
H476 C454 0.930 . S
H477 C455 0.931 . S
H478 C457 0.934 . S
H479 C458 0.930 . S
Ho480 C483 2.811 . S
Ho480 O500 2.322 . S
Ho480 O502 2.378 . S
Ho480 O503 2.524 . S
Ho480 O504 2.381 . S
Ho480 O505 2.669 . S
Ho480 O507 2.346 . S
Ho480 O511 2.305 . S
Ho481 C492 2.811 . S
Ho481 O501 2.346 . S
Ho481 O505 2.305 . S
Ho481 O506 2.322 . S
Ho481 O508 2.378 . S
Ho481 O509 2.524 . S
Ho481 O510 2.381 . S
Ho481 O511 2.669 . S
C482 O500 1.259 . S
C482 O501 1.268 . S
C483 Ho480 2.811 . S
C483 C484 1.488 . S
C483 O502 1.215 . S
C483 O503 1.289 . S
C484 C483 1.488 . S
C484 C485 1.348 . S
C484 C489 1.413 . S
C485 C484 1.348 . S
C485 C486 1.442 . S
C485 H512 0.930 . S
C486 C485 1.442 . S
C486 C487 1.381 1_655 S
C486 H513 0.931 1_655 S
C487 C486 1.381 1_455 S
C487 C488 1.321 . S
C488 C487 1.321 . S
C488 C489 1.403 1_455 S
C488 H514 0.934 . S
C489 C484 1.413 . S
C489 C488 1.403 1_655 S
C489 H515 0.930 . S
C490 O504 1.275 . S
C490 O505 1.256 . S
C491 O506 1.259 . S
C491 O507 1.268 . S
C492 Ho481 2.811 . S
C492 C493 1.488 . S
C492 O508 1.215 . S
C492 O509 1.289 . S
C493 C492 1.488 . S
C493 C494 1.348 . S
C493 C498 1.413 . S
C494 C493 1.348 . S
C494 C495 1.442 . S
C494 H516 0.930 . S
C495 C494 1.442 . S
C495 C496 1.381 . S
C495 H517 0.931 . S
C496 C495 1.381 . S
C496 C497 1.321 . S
C497 C496 1.321 . S
C497 C498 1.403 . S
C497 H518 0.934 . S
C498 C493 1.413 . S
C498 C497 1.403 . S
C498 H519 0.930 . S
C499 O510 1.275 . S
C499 O511 1.256 . S
O500 Ho480 2.322 . S
O500 C482 1.259 . S
O501 Ho481 2.346 . S
O501 C482 1.268 . S
O502 Ho480 2.378 . S
O502 C483 1.215 . S
O503 Ho480 2.524 . S
O503 C483 1.289 . S
O504 Ho480 2.381 . S
O504 C490 1.275 . S
O505 Ho480 2.669 . S
O505 Ho481 2.305 . S
O505 C490 1.256 . S
O506 Ho481 2.322 . S
O506 C491 1.259 . S
O507 Ho480 2.346 . S
O507 C491 1.268 . S
O508 Ho481 2.378 . S
O508 C492 1.215 . S
O509 Ho481 2.524 . S
O509 C492 1.289 . S
O510 Ho481 2.381 . S
O510 C499 1.275 . S
O511 Ho480 2.305 . S
O511 Ho481 2.669 . S
O511 C499 1.256 . S
H512 C485 0.930 . S
H513 C486 0.931 1_455 S
H514 C488 0.934 . S
H515 C489 0.930 . S
H516 C494 0.930 . S
H517 C495 0.931 . S
H518 C497 0.934 . S
H519 C498 0.930 . S
Ho520 C523 2.811 . S
Ho520 O540 2.322 . S
Ho520 O542 2.378 . S
Ho520 O543 2.524 . S
Ho520 O544 2.381 . S
Ho520 O545 2.669 . S
Ho520 O547 2.346 . S
Ho520 O551 2.305 . S
Ho521 C532 2.811 . S
Ho521 O541 2.346 . S
Ho521 O545 2.305 . S
Ho521 O546 2.322 . S
Ho521 O548 2.378 . S
Ho521 O549 2.524 . S
Ho521 O550 2.381 . S
Ho521 O551 2.669 . S
C522 O540 1.259 . S
C522 O541 1.268 . S
C523 Ho520 2.811 . S
C523 C524 1.488 . S
C523 O542 1.215 . S
C523 O543 1.289 . S
C524 C523 1.488 . S
C524 C525 1.348 . S
C524 C529 1.413 . S
C525 C524 1.348 . S
C525 C526 1.442 . S
C525 H552 0.930 . S
C526 C525 1.442 . S
C526 C527 1.381 . S
C526 H553 0.931 . S
C527 C526 1.381 . S
C527 C528 1.321 . S
C528 C527 1.321 . S
C528 C529 1.403 . S
C528 H554 0.934 . S
C529 C524 1.413 . S
C529 C528 1.403 . S
C529 H555 0.930 . S
C530 O544 1.275 . S
C530 O545 1.256 . S
C531 O546 1.259 . S
C531 O547 1.268 . S
C532 Ho521 2.811 . S
C532 C533 1.488 . S
C532 O548 1.215 . S
C532 O549 1.289 . S
C533 C532 1.488 . S
C533 C534 1.348 . S
C533 C538 1.413 . S
C534 C533 1.348 . S
C534 C535 1.442 . S
C534 H556 0.930 . S
C535 C534 1.442 . S
C535 C536 1.381 . S
C535 H557 0.931 . S
C536 C535 1.381 . S
C536 C537 1.321 . S
C537 C536 1.321 . S
C537 C538 1.403 . S
C537 H558 0.934 . S
C538 C533 1.413 . S
C538 C537 1.403 . S
C538 H559 0.930 . S
C539 O550 1.275 . S
C539 O551 1.256 . S
O540 Ho520 2.322 . S
O540 C522 1.259 . S
O541 Ho521 2.346 . S
O541 C522 1.268 . S
O542 Ho520 2.378 . S
O542 C523 1.215 . S
O543 Ho520 2.524 . S
O543 C523 1.289 . S
O544 Ho520 2.381 . S
O544 C530 1.275 . S
O545 Ho520 2.669 . S
O545 Ho521 2.305 . S
O545 C530 1.256 . S
O546 Ho521 2.322 . S
O546 C531 1.259 . S
O547 Ho520 2.346 . S
O547 C531 1.268 . S
O548 Ho521 2.378 . S
O548 C532 1.215 . S
O549 Ho521 2.524 . S
O549 C532 1.289 . S
O550 Ho521 2.381 . S
O550 C539 1.275 . S
O551 Ho520 2.305 . S
O551 Ho521 2.669 . S
O551 C539 1.256 . S
H552 C525 0.930 . S
H553 C526 0.931 . S
H554 C528 0.934 . S
H555 C529 0.930 . S
H556 C534 0.930 . S
H557 C535 0.931 . S
H558 C537 0.934 . S
H559 C538 0.930 . S
Ho560 C563 2.811 . S
Ho560 O580 2.322 . S
Ho560 O582 2.378 . S
Ho560 O583 2.524 . S
Ho560 O584 2.381 . S
Ho560 O585 2.669 . S
Ho560 O587 2.346 . S
Ho560 O591 2.305 . S
Ho561 C572 2.811 . S
Ho561 O581 2.346 . S
Ho561 O585 2.305 . S
Ho561 O586 2.322 . S
Ho561 O588 2.378 . S
Ho561 O589 2.524 . S
Ho561 O590 2.381 . S
Ho561 O591 2.669 . S
C562 O580 1.259 . S
C562 O581 1.268 . S
C563 Ho560 2.811 . S
C563 C564 1.488 . S
C563 O582 1.215 . S
C563 O583 1.289 . S
C564 C563 1.488 . S
C564 C565 1.348 . S
C564 C569 1.413 . S
C565 C564 1.348 . S
C565 C566 1.442 . S
C565 H592 0.930 . S
C566 C565 1.442 . S
C566 C567 1.381 . S
C566 H593 0.931 . S
C567 C566 1.381 . S
C567 C568 1.321 . S
C568 C567 1.321 . S
C568 C569 1.403 . S
C568 H594 0.934 . S
C569 C564 1.413 . S
C569 C568 1.403 . S
C569 H595 0.930 . S
C570 O584 1.275 . S
C570 O585 1.256 . S
C571 O586 1.259 . S
C571 O587 1.268 . S
C572 Ho561 2.811 . S
C572 C573 1.488 . S
C572 O588 1.215 . S
C572 O589 1.289 . S
C573 C572 1.488 . S
C573 C574 1.348 . S
C573 C578 1.413 . S
C574 C573 1.348 . S
C574 C575 1.442 . S
C574 H596 0.930 . S
C575 C574 1.442 . S
C575 C576 1.381 . S
C575 H597 0.931 . S
C576 C575 1.381 . S
C576 C577 1.321 . S
C577 C576 1.321 . S
C577 C578 1.403 . S
C577 H598 0.934 . S
C578 C573 1.413 . S
C578 C577 1.403 . S
C578 H599 0.930 . S
C579 O590 1.275 . S
C579 O591 1.256 . S
O580 Ho560 2.322 . S
O580 C562 1.259 . S
O581 Ho561 2.346 . S
O581 C562 1.268 . S
O582 Ho560 2.378 . S
O582 C563 1.215 . S
O583 Ho560 2.524 . S
O583 C563 1.289 . S
O584 Ho560 2.381 . S
O584 C570 1.275 . S
O585 Ho560 2.669 . S
O585 Ho561 2.305 . S
O585 C570 1.256 . S
O586 Ho561 2.322 . S
O586 C571 1.259 . S
O587 Ho560 2.346 . S
O587 C571 1.268 . S
O588 Ho561 2.378 . S
O588 C572 1.215 . S
O589 Ho561 2.524 . S
O589 C572 1.289 . S
O590 Ho561 2.381 . S
O590 C579 1.275 . S
O591 Ho560 2.305 . S
O591 Ho561 2.669 . S
O591 C579 1.256 . S
H592 C565 0.930 . S
H593 C566 0.931 . S
H594 C568 0.934 . S
H595 C569 0.930 . S
H596 C574 0.930 . S
H597 C575 0.931 . S
H598 C577 0.934 . S
H599 C578 0.930 . S
Ho600 C603 2.811 . S
Ho600 O620 2.322 . S
Ho600 O622 2.378 . S
Ho600 O623 2.524 . S
Ho600 O624 2.381 . S
Ho600 O625 2.669 . S
Ho600 O627 2.346 . S
Ho600 O631 2.305 . S
Ho601 C612 2.811 . S
Ho601 O621 2.346 . S
Ho601 O625 2.305 . S
Ho601 O626 2.322 . S
Ho601 O628 2.378 . S
Ho601 O629 2.524 . S
Ho601 O630 2.381 . S
Ho601 O631 2.669 . S
C602 O620 1.259 . S
C602 O621 1.268 . S
C603 Ho600 2.811 . S
C603 C604 1.488 . S
C603 O622 1.215 . S
C603 O623 1.289 . S
C604 C603 1.488 . S
C604 C605 1.348 . S
C604 C609 1.413 . S
C605 C604 1.348 . S
C605 C606 1.442 . S
C605 H632 0.930 . S
C606 C605 1.442 . S
C606 C607 1.381 . S
C606 H633 0.931 . S
C607 C606 1.381 . S
C607 C608 1.321 . S
C608 C607 1.321 . S
C608 C609 1.403 . S
C608 H634 0.934 . S
C609 C604 1.413 . S
C609 C608 1.403 . S
C609 H635 0.930 . S
C610 O624 1.275 . S
C610 O625 1.256 . S
C611 O626 1.259 . S
C611 O627 1.268 . S
C612 Ho601 2.811 . S
C612 C613 1.488 . S
C612 O628 1.215 . S
C612 O629 1.289 . S
C613 C612 1.488 . S
C613 C614 1.348 . S
C613 C618 1.413 1_545 S
C614 C613 1.348 . S
C614 C615 1.438 1_545 S
C614 H636 0.934 . S
C615 C614 1.438 1_565 S
C615 C616 1.381 . S
C615 H637 0.931 . S
C616 C615 1.381 . S
C616 C617 1.321 . S
C617 C616 1.321 . S
C617 C618 1.403 . S
C617 H638 0.934 . S
C618 C613 1.413 1_565 S
C618 C617 1.403 . S
C618 H639 0.930 1_565 S
C619 O630 1.275 . S
C619 O631 1.256 . S
O620 Ho600 2.322 . S
O620 C602 1.259 . S
O621 Ho601 2.346 . S
O621 C602 1.268 . S
O622 Ho600 2.378 . S
O622 C603 1.215 . S
O623 Ho600 2.524 . S
O623 C603 1.289 . S
O624 Ho600 2.381 . S
O624 C610 1.275 . S
O625 Ho600 2.669 . S
O625 Ho601 2.305 . S
O625 C610 1.256 . S
O626 Ho601 2.322 . S
O626 C611 1.259 . S
O627 Ho600 2.346 . S
O627 C611 1.268 . S
O628 Ho601 2.378 . S
O628 C612 1.215 . S
O629 Ho601 2.524 . S
O629 C612 1.289 . S
O630 Ho601 2.381 . S
O630 C619 1.275 . S
O631 Ho600 2.305 . S
O631 Ho601 2.669 . S
O631 C619 1.256 . S
H632 C605 0.930 . S
H633 C606 0.931 . S
H634 C608 0.934 . S
H635 C609 0.930 . S
H636 C614 0.934 . S
H637 C615 0.931 . S
H638 C617 0.934 . S
H639 C618 0.930 1_545 S
Ho640 C643 2.811 . S
Ho640 O660 2.322 . S
Ho640 O662 2.378 . S
Ho640 O663 2.524 . S
Ho640 O664 2.381 . S
Ho640 O665 2.669 . S
Ho640 O667 2.346 . S
Ho640 O671 2.305 . S
Ho641 C652 2.811 . S
Ho641 O661 2.346 . S
Ho641 O665 2.305 . S
Ho641 O666 2.322 . S
Ho641 O668 2.378 . S
Ho641 O669 2.524 . S
Ho641 O670 2.381 . S
Ho641 O671 2.669 . S
C642 O660 1.259 . S
C642 O661 1.268 . S
C643 Ho640 2.811 . S
C643 C644 1.488 . S
C643 O662 1.215 . S
C643 O663 1.289 . S
C644 C643 1.488 . S
C644 C645 1.348 . S
C644 C649 1.413 . S
C645 C644 1.348 . S
C645 C646 1.442 . S
C645 H672 0.930 . S
C646 C645 1.442 . S
C646 C647 1.381 . S
C646 H673 0.931 . S
C647 C646 1.381 . S
C647 C648 1.321 . S
C648 C647 1.321 . S
C648 C649 1.403 . S
C648 H674 0.934 . S
C649 C644 1.413 . S
C649 C648 1.403 . S
C649 H675 0.930 . S
C650 O664 1.275 . S
C650 O665 1.256 . S
C651 O666 1.259 . S
C651 O667 1.268 . S
C652 Ho641 2.811 . S
C652 C653 1.488 1_655 S
C652 O668 1.215 . S
C652 O669 1.289 . S
C653 C652 1.488 1_455 S
C653 C654 1.348 . S
C653 C658 1.413 . S
C654 C653 1.348 . S
C654 C655 1.442 . S
C654 H676 0.930 . S
C655 C654 1.442 . S
C655 C656 1.381 . S
C655 H677 0.931 . S
C656 C655 1.381 . S
C656 C657 1.321 . S
C657 C656 1.321 . S
C657 C658 1.403 . S
C657 H678 0.934 . S
C658 C653 1.413 . S
C658 C657 1.403 . S
C658 H679 0.930 . S
C659 O670 1.275 . S
C659 O671 1.256 . S
O660 Ho640 2.322 . S
O660 C642 1.259 . S
O661 Ho641 2.346 . S
O661 C642 1.268 . S
O662 Ho640 2.378 . S
O662 C643 1.215 . S
O663 Ho640 2.524 . S
O663 C643 1.289 . S
O664 Ho640 2.381 . S
O664 C650 1.275 . S
O665 Ho640 2.669 . S
O665 Ho641 2.305 . S
O665 C650 1.256 . S
O666 Ho641 2.322 . S
O666 C651 1.259 . S
O667 Ho640 2.346 . S
O667 C651 1.268 . S
O668 Ho641 2.378 . S
O668 C652 1.215 . S
O669 Ho641 2.524 . S
O669 C652 1.289 . S
O670 Ho641 2.381 . S
O670 C659 1.275 . S
O671 Ho640 2.305 . S
O671 Ho641 2.669 . S
O671 C659 1.256 . S
H672 C645 0.930 . S
H673 C646 0.931 . S
H674 C648 0.934 . S
H675 C649 0.930 . S
H676 C654 0.930 . S
H677 C655 0.931 . S
H678 C657 0.934 . S
H679 C658 0.930 . S
Ho680 C683 2.811 . S
Ho680 O700 2.322 . S
Ho680 O702 2.378 . S
Ho680 O703 2.524 . S
Ho680 O704 2.381 . S
Ho680 O705 2.669 . S
Ho680 O707 2.346 . S
Ho680 O711 2.305 . S
Ho681 C692 2.811 . S
Ho681 O701 2.346 . S
Ho681 O705 2.305 . S
Ho681 O706 2.322 . S
Ho681 O708 2.378 . S
Ho681 O709 2.524 . S
Ho681 O710 2.381 . S
Ho681 O711 2.669 . S
C682 O700 1.259 . S
C682 O701 1.268 . S
C683 Ho680 2.811 . S
C683 C684 1.488 . S
C683 O702 1.215 . S
C683 O703 1.289 . S
C684 C683 1.488 . S
C684 C685 1.348 . S
C684 C689 1.413 . S
C685 C684 1.348 . S
C685 C686 1.442 . S
C685 H712 0.930 . S
C686 C685 1.442 . S
C686 C687 1.381 . S
C686 H713 0.931 . S
C687 C686 1.381 . S
C687 C688 1.321 . S
C688 C687 1.321 . S
C688 C689 1.403 . S
C688 H714 0.934 . S
C689 C684 1.413 . S
C689 C688 1.403 . S
C689 H715 0.930 . S
C690 O704 1.275 . S
C690 O705 1.256 . S
C691 O706 1.259 . S
C691 O707 1.268 . S
C692 Ho681 2.811 . S
C692 C693 1.488 . S
C692 O708 1.215 . S
C692 O709 1.289 . S
C693 C692 1.488 . S
C693 C694 1.348 . S
C693 C698 1.413 . S
C694 C693 1.348 . S
C694 C695 1.442 . S
C694 H716 0.930 . S
C695 C694 1.442 . S
C695 C696 1.381 . S
C695 H717 0.931 . S
C696 C695 1.381 . S
C696 C697 1.321 . S
C697 C696 1.321 . S
C697 C698 1.403 . S
C697 H718 0.934 . S
C698 C693 1.413 . S
C698 C697 1.403 . S
C698 H719 0.930 . S
C699 O710 1.275 . S
C699 O711 1.256 . S
O700 Ho680 2.322 . S
O700 C682 1.259 . S
O701 Ho681 2.346 . S
O701 C682 1.268 . S
O702 Ho680 2.378 . S
O702 C683 1.215 . S
O703 Ho680 2.524 . S
O703 C683 1.289 . S
O704 Ho680 2.381 . S
O704 C690 1.275 . S
O705 Ho680 2.669 . S
O705 Ho681 2.305 . S
O705 C690 1.256 . S
O706 Ho681 2.322 . S
O706 C691 1.259 . S
O707 Ho680 2.346 . S
O707 C691 1.268 . S
O708 Ho681 2.378 . S
O708 C692 1.215 . S
O709 Ho681 2.524 . S
O709 C692 1.289 . S
O710 Ho681 2.381 . S
O710 C699 1.275 . S
O711 Ho680 2.305 . S
O711 Ho681 2.669 . S
O711 C699 1.256 . S
H712 C685 0.930 . S
H713 C686 0.931 . S
H714 C688 0.934 . S
H715 C689 0.930 . S
H716 C694 0.930 . S
H717 C695 0.931 . S
H718 C697 0.934 . S
H719 C698 0.930 . S
H720 C726 0.930 . S
H721 C730 0.930 . S
H722 C735 0.929 . S
H723 C733 0.929 . S
H724 C728 0.929 . S
H725 C734 0.929 . S
C726 H720 0.930 . S
C726 C727 1.367 . S
C726 C734 1.378 . S
C727 C726 1.367 . S
C727 C735 1.433 . S
C728 H724 0.929 . S
C728 C730 1.378 . S
C728 C732 1.350 . S
C729 C732 1.463 . S
C729 C734 1.350 . S
C729 N737 1.427 . S
C730 H721 0.930 . S
C730 C728 1.378 . S
C730 C731 1.367 . S
C731 C730 1.367 . S
C731 C733 1.433 . S
C732 C728 1.350 . S
C732 C729 1.463 . S
C732 N736 1.427 . S
C733 H723 0.929 . S
C733 C731 1.433 . S
C733 N736 1.384 . S
C734 H725 0.929 . S
C734 C726 1.378 . S
C734 C729 1.350 . S
C735 H722 0.929 . S
C735 C727 1.433 . S
C735 N737 1.384 . S
N736 C732 1.427 . S
N736 C733 1.384 . S
N737 C729 1.427 . S
N737 C735 1.384 . S
H738 C744 0.930 . S
H739 C748 0.930 . S
H740 C753 0.929 . S
H741 C751 0.929 . S
H742 C746 0.929 . S
H743 C752 0.929 . S
C744 H738 0.930 . S
C744 C745 1.367 . S
C744 C752 1.378 . S
C745 C744 1.367 . S
C745 C753 1.433 . S
C746 H742 0.929 . S
C746 C748 1.378 . S
C746 C750 1.350 . S
C747 C750 1.463 . S
C747 C752 1.350 . S
C747 N755 1.427 . S
C748 H739 0.930 . S
C748 C746 1.378 . S
C748 C749 1.367 . S
C749 C748 1.367 . S
C749 C751 1.433 . S
C750 C746 1.350 . S
C750 C747 1.463 . S
C750 N754 1.427 . S
C751 H741 0.929 . S
C751 C749 1.433 . S
C751 N754 1.384 . S
C752 H743 0.929 . S
C752 C744 1.378 . S
C752 C747 1.350 . S
C753 H740 0.929 . S
C753 C745 1.433 . S
C753 N755 1.384 . S
N754 C750 1.427 . S
N754 C751 1.384 . S
N755 C747 1.427 . S
N755 C753 1.384 . S
H756 C762 0.930 . S
H757 C766 0.930 . S
H758 C771 0.929 . S
H759 C769 0.929 . S
H760 C764 0.929 . S
H761 C770 0.929 . S
C762 H756 0.930 . S
C762 C763 1.367 . S
C762 C770 1.378 . S
C763 C762 1.367 . S
C763 C771 1.433 . S
C764 H760 0.929 . S
C764 C766 1.378 . S
C764 C768 1.350 . S
C765 C768 1.463 . S
C765 C770 1.350 . S
C765 N773 1.427 . S
C766 H757 0.930 . S
C766 C764 1.378 . S
C766 C767 1.367 . S
C767 C766 1.367 . S
C767 C769 1.433 . S
C768 C764 1.350 . S
C768 C765 1.463 . S
C768 N772 1.427 . S
C769 H759 0.929 . S
C769 C767 1.433 . S
C769 N772 1.384 . S
C770 H761 0.929 . S
C770 C762 1.378 . S
C770 C765 1.350 . S
C771 H758 0.929 . S
C771 C763 1.433 . S
C771 N773 1.384 . S
N772 C768 1.427 . S
N772 C769 1.384 . S
N773 C765 1.427 . S
N773 C771 1.384 . S
H774 C780 0.930 . S
H775 C784 0.930 . S
H776 C789 0.929 . S
H777 C787 0.929 . S
H778 C782 0.929 . S
H779 C788 0.929 . S
C780 H774 0.930 . S
C780 C781 1.367 . S
C780 C788 1.378 . S
C781 C780 1.367 . S
C781 C789 1.433 . S
C782 H778 0.929 . S
C782 C784 1.378 . S
C782 C786 1.350 . S
C783 C786 1.463 . S
C783 C788 1.350 . S
C783 N791 1.427 . S
C784 H775 0.930 . S
C784 C782 1.378 . S
C784 C785 1.367 . S
C785 C784 1.367 . S
C785 C787 1.433 . S
C786 C782 1.350 . S
C786 C783 1.463 . S
C786 N790 1.427 . S
C787 H777 0.929 . S
C787 C785 1.433 . S
C787 N790 1.384 . S
C788 H779 0.929 . S
C788 C780 1.378 . S
C788 C783 1.350 . S
C789 H776 0.929 . S
C789 C781 1.433 . S
C789 N791 1.384 . S
N790 C786 1.427 . S
N790 C787 1.384 . S
N791 C783 1.427 . S
N791 C789 1.384 . S
H792 C798 0.930 . S
H793 C802 0.930 . S
H794 C807 0.929 . S
H795 C805 0.929 . S
H796 C800 0.929 . S
H797 C806 0.929 . S
C798 H792 0.930 . S
C798 C799 1.367 . S
C798 C806 1.378 . S
C799 C798 1.367 . S
C799 C807 1.433 . S
C800 H796 0.929 . S
C800 C802 1.378 . S
C800 C804 1.350 . S
C801 C804 1.463 . S
C801 C806 1.350 . S
C801 N809 1.427 . S
C802 H793 0.930 . S
C802 C800 1.378 . S
C802 C803 1.367 . S
C803 C802 1.367 . S
C803 C805 1.433 . S
C804 C800 1.350 . S
C804 C801 1.463 . S
C804 N808 1.427 . S
C805 H795 0.929 . S
C805 C803 1.433 . S
C805 N808 1.384 . S
C806 H797 0.929 . S
C806 C798 1.378 . S
C806 C801 1.350 . S
C807 H794 0.929 . S
C807 C799 1.433 . S
C807 N809 1.384 . S
N808 C804 1.427 . S
N808 C805 1.384 . S
N809 C801 1.427 . S
N809 C807 1.384 . S
H810 C816 0.930 . S
H811 C820 0.930 . S
H812 C825 0.929 . S
H813 C823 0.929 . S
H814 C818 0.929 . S
H815 C824 0.929 . S
C816 H810 0.930 . S
C816 C817 1.367 . S
C816 C824 1.378 . S
C817 C816 1.367 . S
C817 C825 1.433 . S
C818 H814 0.929 . S
C818 C820 1.378 . S
C818 C822 1.350 . S
C819 C822 1.463 . S
C819 C824 1.350 . S
C819 N827 1.427 . S
C820 H811 0.930 . S
C820 C818 1.378 . S
C820 C821 1.367 . S
C821 C820 1.367 . S
C821 C823 1.433 . S
C822 C818 1.350 . S
C822 C819 1.463 . S
C822 N826 1.427 . S
C823 H813 0.929 . S
C823 C821 1.433 . S
C823 N826 1.384 . S
C824 H815 0.929 . S
C824 C816 1.378 . S
C824 C819 1.350 . S
C825 H812 0.929 . S
C825 C817 1.433 . S
C825 N827 1.384 . S
N826 C822 1.427 . S
N826 C823 1.384 . S
N827 C819 1.427 . S
N827 C825 1.384 . S
H828 C834 0.930 . S
H829 C838 0.930 . S
H830 C843 0.929 . S
H831 C841 0.929 . S
H832 C836 0.929 . S
H833 C842 0.929 . S
C834 H828 0.930 . S
C834 C835 1.367 . S
C834 C842 1.378 . S
C835 C834 1.367 . S
C835 C843 1.433 . S
C836 H832 0.929 . S
C836 C838 1.378 . S
C836 C840 1.350 . S
C837 C840 1.463 . S
C837 C842 1.350 . S
C837 N845 1.427 . S
C838 H829 0.930 . S
C838 C836 1.378 . S
C838 C839 1.367 . S
C839 C838 1.367 . S
C839 C841 1.433 . S
C840 C836 1.350 . S
C840 C837 1.463 . S
C840 N844 1.427 . S
C841 H831 0.929 . S
C841 C839 1.433 . S
C841 N844 1.384 . S
C842 H833 0.929 . S
C842 C834 1.378 . S
C842 C837 1.350 . S
C843 H830 0.929 . S
C843 C835 1.433 . S
C843 N845 1.384 . S
N844 C840 1.427 . S
N844 C841 1.384 . S
N845 C837 1.427 . S
N845 C843 1.384 . S
H846 C852 0.930 . S
H847 C856 0.930 . S
H848 C861 0.929 . S
H849 C859 0.929 . S
H850 C854 0.929 . S
H851 C860 0.929 . S
C852 H846 0.930 . S
C852 C853 1.367 . S
C852 C860 1.378 . S
C853 C852 1.367 . S
C853 C861 1.433 . S
C854 H850 0.929 . S
C854 C856 1.378 . S
C854 C858 1.350 . S
C855 C858 1.463 1_545 S
C855 C860 1.350 . S
C855 N863 1.427 . S
C856 H847 0.930 . S
C856 C854 1.378 . S
C856 C857 1.367 . S
C857 C856 1.367 . S
C857 C859 1.433 . S
C858 C854 1.350 . S
C858 C855 1.463 1_565 S
C858 N862 1.427 . S
C859 H849 0.929 . S
C859 C857 1.433 . S
C859 N862 1.384 . S
C860 H851 0.929 . S
C860 C852 1.378 . S
C860 C855 1.350 . S
C861 H848 0.929 . S
C861 C853 1.433 . S
C861 N863 1.384 . S
N862 C858 1.427 . S
N862 C859 1.384 . S
N863 C855 1.427 . S
N863 C861 1.384 . S
H864 C870 0.930 . S
H865 C874 0.930 . S
H866 C879 0.929 . S
H867 C877 0.929 . S
H868 C872 0.929 1_455 S
H869 C878 0.929 . S
C870 H864 0.930 . S
C870 C871 1.367 . S
C870 C878 1.378 . S
C871 C870 1.367 . S
C871 C879 1.433 . S
C872 H868 0.929 1_655 S
C872 C874 1.378 . S
C872 C876 1.350 1_655 S
C873 C876 1.463 . S
C873 C878 1.350 . S
C873 N881 1.427 . S
C874 H865 0.930 . S
C874 C872 1.378 . S
C874 C875 1.367 . S
C875 C874 1.367 . S
C875 C877 1.433 . S
C876 C872 1.350 1_455 S
C876 C873 1.463 . S
C876 N880 1.427 1_455 S
C877 H867 0.929 . S
C877 C875 1.433 . S
C877 N880 1.384 . S
C878 H869 0.929 . S
C878 C870 1.378 . S
C878 C873 1.350 . S
C879 H866 0.929 . S
C879 C871 1.433 . S
C879 N881 1.384 . S
N880 C876 1.427 1_655 S
N880 C877 1.384 . S
N881 C873 1.427 . S
N881 C879 1.384 . S
H882 C888 0.930 . S
H883 C892 0.930 . S
H884 C897 0.929 . S
H885 C895 0.929 . S
H886 C890 0.929 . S
H887 C896 0.929 . S
C888 H882 0.930 . S
C888 C889 1.367 . S
C888 C896 1.378 . S
C889 C888 1.367 . S
C889 C897 1.433 . S
C890 H886 0.929 . S
C890 C892 1.378 . S
C890 C894 1.350 . S
C891 C894 1.463 . S
C891 C896 1.350 . S
C891 N899 1.427 . S
C892 H883 0.930 . S
C892 C890 1.378 . S
C892 C893 1.367 . S
C893 C892 1.367 . S
C893 C895 1.433 . S
C894 C890 1.350 . S
C894 C891 1.463 . S
C894 N898 1.427 . S
C895 H885 0.929 . S
C895 C893 1.433 . S
C895 N898 1.384 . S
C896 H887 0.929 . S
C896 C888 1.378 . S
C896 C891 1.350 . S
C897 H884 0.929 . S
C897 C889 1.433 . S
C897 N899 1.384 . S
N898 C894 1.427 . S
N898 C895 1.384 . S
N899 C891 1.427 . S
N899 C897 1.384 . S
H900 C906 0.930 . S
H901 C910 0.930 . S
H902 C915 0.929 . S
H903 C913 0.929 . S
H904 C908 0.929 . S
H905 C914 0.929 . S
C906 H900 0.930 . S
C906 C907 1.367 . S
C906 C914 1.378 . S
C907 C906 1.367 . S
C907 C915 1.433 . S
C908 H904 0.929 . S
C908 C910 1.378 . S
C908 C912 1.350 . S
C909 C912 1.463 . S
C909 C914 1.350 . S
C909 N917 1.427 . S
C910 H901 0.930 . S
C910 C908 1.378 . S
C910 C911 1.367 . S
C911 C910 1.367 . S
C911 C913 1.433 . S
C912 C908 1.350 . S
C912 C909 1.463 . S
C912 N916 1.427 . S
C913 H903 0.929 . S
C913 C911 1.433 . S
C913 N916 1.384 . S
C914 H905 0.929 . S
C914 C906 1.378 . S
C914 C909 1.350 . S
C915 H902 0.929 . S
C915 C907 1.433 . S
C915 N917 1.384 . S
N916 C912 1.427 . S
N916 C913 1.384 . S
N917 C909 1.427 . S
N917 C915 1.384 . S
H918 C924 0.930 . S
H919 C928 0.930 . S
H920 C933 0.929 . S
H921 C931 0.929 . S
H922 C926 0.929 . S
H923 C932 0.929 . S
C924 H918 0.930 . S
C924 C925 1.367 . S
C924 C932 1.378 . S
C925 C924 1.367 . S
C925 C933 1.433 . S
C926 H922 0.929 . S
C926 C928 1.378 . S
C926 C930 1.350 . S
C927 C930 1.463 . S
C927 C932 1.350 . S
C927 N935 1.427 . S
C928 H919 0.930 . S
C928 C926 1.378 . S
C928 C929 1.367 . S
C929 C928 1.367 . S
C929 C931 1.433 . S
C930 C926 1.350 . S
C930 C927 1.463 . S
C930 N934 1.427 . S
C931 H921 0.929 . S
C931 C929 1.433 . S
C931 N934 1.384 . S
C932 H923 0.929 . S
C932 C924 1.378 . S
C932 C927 1.350 . S
C933 H920 0.929 . S
C933 C925 1.433 . S
C933 N935 1.384 . S
N934 C930 1.427 . S
N934 C931 1.384 . S
N935 C927 1.427 . S
N935 C933 1.384 . S
H936 C942 0.930 . S
H937 C946 0.930 . S
H938 C951 0.929 . S
H939 C949 0.929 . S
H940 C944 0.929 . S
H941 C950 0.929 . S
C942 H936 0.930 . S
C942 C943 1.367 . S
C942 C950 1.378 . S
C943 C942 1.367 . S
C943 C951 1.433 . S
C944 H940 0.929 . S
C944 C946 1.378 . S
C944 C948 1.350 . S
C945 C948 1.463 . S
C945 C950 1.350 . S
C945 N953 1.427 . S
C946 H937 0.930 . S
C946 C944 1.378 . S
C946 C947 1.367 . S
C947 C946 1.367 . S
C947 C949 1.433 . S
C948 C944 1.350 . S
C948 C945 1.463 . S
C948 N952 1.427 . S
C949 H939 0.929 . S
C949 C947 1.433 . S
C949 N952 1.384 . S
C950 H941 0.929 . S
C950 C942 1.378 . S
C950 C945 1.350 . S
C951 H938 0.929 . S
C951 C943 1.433 . S
C951 N953 1.384 . S
N952 C948 1.427 . S
N952 C949 1.384 . S
N953 C945 1.427 . S
N953 C951 1.384 . S
H954 C960 0.930 . S
H955 C964 0.930 . S
H956 C969 0.929 . S
H957 C967 0.929 . S
H958 C962 0.929 . S
H959 C968 0.929 . S
C960 H954 0.930 . S
C960 C961 1.367 . S
C960 C968 1.378 . S
C961 C960 1.367 . S
C961 C969 1.433 . S
C962 H958 0.929 . S
C962 C964 1.378 . S
C962 C966 1.350 . S
C963 C966 1.463 . S
C963 C968 1.350 . S
C963 N971 1.427 . S
C964 H955 0.930 . S
C964 C962 1.378 . S
C964 C965 1.367 . S
C965 C964 1.367 . S
C965 C967 1.433 . S
C966 C962 1.350 . S
C966 C963 1.463 . S
C966 N970 1.427 . S
C967 H957 0.929 . S
C967 C965 1.433 . S
C967 N970 1.384 . S
C968 H959 0.929 . S
C968 C960 1.378 . S
C968 C963 1.350 . S
C969 H956 0.929 . S
C969 C961 1.433 . S
C969 N971 1.384 . S
N970 C966 1.427 . S
N970 C967 1.384 . S
N971 C963 1.427 . S
N971 C969 1.384 . S
H972 C978 0.930 . S
H973 C982 0.930 . S
H974 C987 0.929 . S
H975 C985 0.929 . S
H976 C980 0.929 . S
H977 C986 0.929 . S
C978 H972 0.930 . S
C978 C979 1.367 . S
C978 C986 1.378 . S
C979 C978 1.367 . S
C979 C987 1.433 . S
C980 H976 0.929 . S
C980 C982 1.378 . S
C980 C984 1.350 . S
C981 C984 1.463 . S
C981 C986 1.350 . S
C981 N989 1.427 . S
C982 H973 0.930 . S
C982 C980 1.378 . S
C982 C983 1.367 . S
C983 C982 1.367 . S
C983 C985 1.433 . S
C984 C980 1.350 . S
C984 C981 1.463 . S
C984 N988 1.427 . S
C985 H975 0.929 . S
C985 C983 1.433 . S
C985 N988 1.384 . S
C986 H977 0.929 . S
C986 C978 1.378 . S
C986 C981 1.350 . S
C987 H974 0.929 . S
C987 C979 1.433 . S
C987 N989 1.384 . S
N988 C984 1.427 . S
N988 C985 1.384 . S
N989 C981 1.427 . S
N989 C987 1.384 . S
H990 C996 0.930 . S
H991 C1000 0.930 . S
H992 C1005 0.929 . S
H993 C1003 0.929 . S
H994 C998 0.929 . S
H995 C1004 0.929 . S
C996 H990 0.930 . S
C996 C997 1.367 . S
C996 C1004 1.378 . S
C997 C996 1.367 . S
C997 C1005 1.433 . S
C998 H994 0.929 . S
C998 C1000 1.378 . S
C998 C1002 1.350 . S
C999 C1002 1.463 . S
C999 C1004 1.350 . S
C999 N1007 1.427 . S
C1000 H991 0.930 . S
C1000 C998 1.378 . S
C1000 C1001 1.367 . S
C1001 C1000 1.367 . S
C1001 C1003 1.433 . S
C1002 C998 1.350 . S
C1002 C999 1.463 . S
C1002 N1006 1.427 . S
C1003 H993 0.929 . S
C1003 C1001 1.433 . S
C1003 N1006 1.384 . S
C1004 H995 0.929 . S
C1004 C996 1.378 . S
C1004 C999 1.350 . S
C1005 H992 0.929 . S
C1005 C997 1.433 . S
C1005 N1007 1.384 . S
N1006 C1002 1.427 . S
N1006 C1003 1.384 . S
N1007 C999 1.427 . S
N1007 C1005 1.384 . S
H1008 C1014 0.930 . S
H1009 C1018 0.930 . S
H1010 C1023 0.929 . S
H1011 C1021 0.929 . S
H1012 C1016 0.929 . S
H1013 C1022 0.929 1_545 S
C1014 H1008 0.930 . S
C1014 C1015 1.367 . S
C1014 C1022 1.378 . S
C1015 C1014 1.367 . S
C1015 C1023 1.433 . S
C1016 H1012 0.929 . S
C1016 C1018 1.378 . S
C1016 C1020 1.350 . S
C1017 C1020 1.463 . S
C1017 C1022 1.350 1_545 S
C1017 N1025 1.427 1_545 S
C1018 H1009 0.930 . S
C1018 C1016 1.378 . S
C1018 C1019 1.367 . S
C1019 C1018 1.367 . S
C1019 C1021 1.433 . S
C1020 C1016 1.350 . S
C1020 C1017 1.463 . S
C1020 N1024 1.427 . S
C1021 H1011 0.929 . S
C1021 C1019 1.433 . S
C1021 N1024 1.384 . S
C1022 H1013 0.929 1_565 S
C1022 C1014 1.378 . S
C1022 C1017 1.350 1_565 S
C1023 H1010 0.929 . S
C1023 C1015 1.433 . S
C1023 N1025 1.384 . S
N1024 C1020 1.427 . S
N1024 C1021 1.384 . S
N1025 C1017 1.427 1_565 S
N1025 C1023 1.384 . S
H1026 C1032 0.930 . S
H1027 C1036 0.930 . S
H1028 C1041 0.929 . S
H1029 C1039 0.929 . S
H1030 C1034 0.929 . S
H1031 C1040 0.929 . S
C1032 H1026 0.930 . S
C1032 C1033 1.367 . S
C1032 C1040 1.378 . S
C1033 C1032 1.367 . S
C1033 C1041 1.433 . S
C1034 H1030 0.929 . S
C1034 C1036 1.378 . S
C1034 C1038 1.350 . S
C1035 C1038 1.463 1_455 S
C1035 C1040 1.350 . S
C1035 N1043 1.427 . S
C1036 H1027 0.930 . S
C1036 C1034 1.378 . S
C1036 C1037 1.367 . S
C1037 C1036 1.367 . S
C1037 C1039 1.433 . S
C1038 C1034 1.350 . S
C1038 C1035 1.463 1_655 S
C1038 N1042 1.427 . S
C1039 H1029 0.929 . S
C1039 C1037 1.433 . S
C1039 N1042 1.384 . S
C1040 H1031 0.929 . S
C1040 C1032 1.378 . S
C1040 C1035 1.350 . S
C1041 H1028 0.929 . S
C1041 C1033 1.433 . S
C1041 N1043 1.384 . S
N1042 C1038 1.427 . S
N1042 C1039 1.384 . S
N1043 C1035 1.427 . S
N1043 C1041 1.384 . S
H1044 C1050 0.930 . S
H1045 C1054 0.930 . S
H1046 C1059 0.929 . S
H1047 C1057 0.929 . S
H1048 C1052 0.929 . S
H1049 C1058 0.929 . S
C1050 H1044 0.930 . S
C1050 C1051 1.367 1_565 S
C1050 C1058 1.378 . S
C1051 C1050 1.367 1_545 S
C1051 C1059 1.433 . S
C1052 H1048 0.929 . S
C1052 C1054 1.378 . S
C1052 C1056 1.350 . S
C1053 C1056 1.463 1_554 S
C1053 C1058 1.350 1_545 S
C1053 N1061 1.427 . S
C1054 H1045 0.930 . S
C1054 C1052 1.378 . S
C1054 C1055 1.367 . S
C1055 C1054 1.367 . S
C1055 C1057 1.433 1_545 S
C1056 C1052 1.350 . S
C1056 C1053 1.463 1_556 S
C1056 N1060 1.427 1_545 S
C1057 H1047 0.929 . S
C1057 C1055 1.433 1_565 S
C1057 N1060 1.384 . S
C1058 H1049 0.929 . S
C1058 C1050 1.378 . S
C1058 C1053 1.350 1_565 S
C1059 H1046 0.929 . S
C1059 C1051 1.433 . S
C1059 N1061 1.384 . S
N1060 C1056 1.427 1_565 S
N1060 C1057 1.384 . S
N1061 C1053 1.427 . S
N1061 C1059 1.384 . S
H1062 C1068 0.930 . S
H1063 C1072 0.930 . S
H1064 C1077 0.929 . S
H1065 C1075 0.929 . S
H1066 C1070 0.929 . S
H1067 C1076 0.929 . S
C1068 H1062 0.930 . S
C1068 C1069 1.367 . S
C1068 C1076 1.378 . S
C1069 C1068 1.367 . S
C1069 C1077 1.433 . S
C1070 H1066 0.929 . S
C1070 C1072 1.378 . S
C1070 C1074 1.350 . S
C1071 C1074 1.463 1_556 S
C1071 C1076 1.350 . S
C1071 N1079 1.427 . S
C1072 H1063 0.930 . S
C1072 C1070 1.378 . S
C1072 C1073 1.367 . S
C1073 C1072 1.367 . S
C1073 C1075 1.433 . S
C1074 C1070 1.350 . S
C1074 C1071 1.463 1_554 S
C1074 N1078 1.427 . S
C1075 H1065 0.929 . S
C1075 C1073 1.433 . S
C1075 N1078 1.384 . S
C1076 H1067 0.929 . S
C1076 C1068 1.378 . S
C1076 C1071 1.350 . S
C1077 H1064 0.929 . S
C1077 C1069 1.433 . S
C1077 N1079 1.384 . S
N1078 C1074 1.427 . S
N1078 C1075 1.384 . S
N1079 C1071 1.427 . S
N1079 C1077 1.384 . S
H1080 C1086 0.930 . S
H1081 C1090 0.930 . S
H1082 C1095 0.929 . S
H1083 C1093 0.929 . S
H1084 C1088 0.929 . S
H1085 C1094 0.929 . S
C1086 H1080 0.930 . S
C1086 C1087 1.367 . S
C1086 C1094 1.378 . S
C1087 C1086 1.367 . S
C1087 C1095 1.433 . S
C1088 H1084 0.929 . S
C1088 C1090 1.378 . S
C1088 C1092 1.350 . S
C1089 C1092 1.463 1_556 S
C1089 C1094 1.350 . S
C1089 N1097 1.427 . S
C1090 H1081 0.930 . S
C1090 C1088 1.378 . S
C1090 C1091 1.367 . S
C1091 C1090 1.367 . S
C1091 C1093 1.433 . S
C1092 C1088 1.350 . S
C1092 C1089 1.463 1_554 S
C1092 N1096 1.427 . S
C1093 H1083 0.929 . S
C1093 C1091 1.433 . S
C1093 N1096 1.384 . S
C1094 H1085 0.929 . S
C1094 C1086 1.378 . S
C1094 C1089 1.350 . S
C1095 H1082 0.929 . S
C1095 C1087 1.433 . S
C1095 N1097 1.384 . S
N1096 C1092 1.427 . S
N1096 C1093 1.384 . S
N1097 C1089 1.427 . S
N1097 C1095 1.384 . S
H1098 C1104 0.930 . S
H1099 C1108 0.930 . S
H1100 C1113 0.929 . S
H1101 C1111 0.929 . S
H1102 C1106 0.929 . S
H1103 C1112 0.929 . S
C1104 H1098 0.930 . S
C1104 C1105 1.367 . S
C1104 C1112 1.378 . S
C1105 C1104 1.367 . S
C1105 C1113 1.433 . S
C1106 H1102 0.929 . S
C1106 C1108 1.378 . S
C1106 C1110 1.350 . S
C1107 C1110 1.463 . S
C1107 C1112 1.350 . S
C1107 N1115 1.427 . S
C1108 H1099 0.930 . S
C1108 C1106 1.378 . S
C1108 C1109 1.367 . S
C1109 C1108 1.367 . S
C1109 C1111 1.433 . S
C1110 C1106 1.350 . S
C1110 C1107 1.463 . S
C1110 N1114 1.427 . S
C1111 H1101 0.929 . S
C1111 C1109 1.433 . S
C1111 N1114 1.384 . S
C1112 H1103 0.929 . S
C1112 C1104 1.378 . S
C1112 C1107 1.350 . S
C1113 H1100 0.929 . S
C1113 C1105 1.433 . S
C1113 N1115 1.384 . S
N1114 C1110 1.427 . S
N1114 C1111 1.384 . S
N1115 C1107 1.427 . S
N1115 C1113 1.384 . S
H1116 C1122 0.930 . S
H1117 C1126 0.930 . S
H1118 C1131 0.929 . S
H1119 C1129 0.929 . S
H1120 C1124 0.929 . S
H1121 C1130 0.929 . S
C1122 H1116 0.930 . S
C1122 C1123 1.367 . S
C1122 C1130 1.378 . S
C1123 C1122 1.367 . S
C1123 C1131 1.433 . S
C1124 H1120 0.929 . S
C1124 C1126 1.378 . S
C1124 C1128 1.350 . S
C1125 C1128 1.463 . S
C1125 C1130 1.350 . S
C1125 N1133 1.427 . S
C1126 H1117 0.930 . S
C1126 C1124 1.378 . S
C1126 C1127 1.367 . S
C1127 C1126 1.367 . S
C1127 C1129 1.433 . S
C1128 C1124 1.350 . S
C1128 C1125 1.463 . S
C1128 N1132 1.427 . S
C1129 H1119 0.929 . S
C1129 C1127 1.433 . S
C1129 N1132 1.384 . S
C1130 H1121 0.929 . S
C1130 C1122 1.378 . S
C1130 C1125 1.350 . S
C1131 H1118 0.929 . S
C1131 C1123 1.433 . S
C1131 N1133 1.384 . S
N1132 C1128 1.427 . S
N1132 C1129 1.384 . S
N1133 C1125 1.427 . S
N1133 C1131 1.384 . S
H1134 C1140 0.930 . S
H1135 C1144 0.930 . S
H1136 C1149 0.929 . S
H1137 C1147 0.929 . S
H1138 C1142 0.929 . S
H1139 C1148 0.929 . S
C1140 H1134 0.930 . S
C1140 C1141 1.367 . S
C1140 C1148 1.378 . S
C1141 C1140 1.367 . S
C1141 C1149 1.433 . S
C1142 H1138 0.929 . S
C1142 C1144 1.378 . S
C1142 C1146 1.350 . S
C1143 C1146 1.463 . S
C1143 C1148 1.350 . S
C1143 N1151 1.427 . S
C1144 H1135 0.930 . S
C1144 C1142 1.378 . S
C1144 C1145 1.367 . S
C1145 C1144 1.367 . S
C1145 C1147 1.433 . S
C1146 C1142 1.350 . S
C1146 C1143 1.463 . S
C1146 N1150 1.427 . S
C1147 H1137 0.929 . S
C1147 C1145 1.433 . S
C1147 N1150 1.384 . S
C1148 H1139 0.929 . S
C1148 C1140 1.378 . S
C1148 C1143 1.350 . S
C1149 H1136 0.929 . S
C1149 C1141 1.433 . S
C1149 N1151 1.384 . S
N1150 C1146 1.427 . S
N1150 C1147 1.384 . S
N1151 C1143 1.427 . S
N1151 C1149 1.384 . S
H1152 C1158 0.930 . S
H1153 C1162 0.930 . S
H1154 C1167 0.929 . S
H1155 C1165 0.929 . S
H1156 C1160 0.929 . S
H1157 C1166 0.929 . S
C1158 H1152 0.930 . S
C1158 C1159 1.367 . S
C1158 C1166 1.378 . S
C1159 C1158 1.367 . S
C1159 C1167 1.433 . S
C1160 H1156 0.929 . S
C1160 C1162 1.378 . S
C1160 C1164 1.350 . S
C1161 C1164 1.463 . S
C1161 C1166 1.350 . S
C1161 N1169 1.427 . S
C1162 H1153 0.930 . S
C1162 C1160 1.378 . S
C1162 C1163 1.367 . S
C1163 C1162 1.367 . S
C1163 C1165 1.433 . S
C1164 C1160 1.350 . S
C1164 C1161 1.463 . S
C1164 N1168 1.427 . S
C1165 H1155 0.929 . S
C1165 C1163 1.433 . S
C1165 N1168 1.384 . S
C1166 H1157 0.929 . S
C1166 C1158 1.378 . S
C1166 C1161 1.350 . S
C1167 H1154 0.929 . S
C1167 C1159 1.433 . S
C1167 N1169 1.384 . S
N1168 C1164 1.427 . S
N1168 C1165 1.384 . S
N1169 C1161 1.427 . S
N1169 C1167 1.384 . S
H1170 C1176 0.930 . S
H1171 C1180 0.930 . S
H1172 C1185 0.929 . S
H1173 C1183 0.929 . S
H1174 C1178 0.929 . S
H1175 C1184 0.929 . S
C1176 H1170 0.930 . S
C1176 C1177 1.367 . S
C1176 C1184 1.378 . S
C1177 C1176 1.367 . S
C1177 C1185 1.433 . S
C1178 H1174 0.929 . S
C1178 C1180 1.378 . S
C1178 C1182 1.350 . S
C1179 C1182 1.463 . S
C1179 C1184 1.350 . S
C1179 N1187 1.427 . S
C1180 H1171 0.930 . S
C1180 C1178 1.378 . S
C1180 C1181 1.367 . S
C1181 C1180 1.367 . S
C1181 C1183 1.433 . S
C1182 C1178 1.350 . S
C1182 C1179 1.463 . S
C1182 N1186 1.427 . S
C1183 H1173 0.929 . S
C1183 C1181 1.433 . S
C1183 N1186 1.384 . S
C1184 H1175 0.929 . S
C1184 C1176 1.378 . S
C1184 C1179 1.350 . S
C1185 H1172 0.929 . S
C1185 C1177 1.433 . S
C1185 N1187 1.384 . S
N1186 C1182 1.427 . S
N1186 C1183 1.384 . S
N1187 C1179 1.427 . S
N1187 C1185 1.384 . S
H1188 C1194 0.930 . S
H1189 C1198 0.930 . S
H1190 C1203 0.929 . S
H1191 C1201 0.929 . S
H1192 C1196 0.929 . S
H1193 C1202 0.929 . S
C1194 H1188 0.930 . S
C1194 C1195 1.367 . S
C1194 C1202 1.378 . S
C1195 C1194 1.367 . S
C1195 C1203 1.433 . S
C1196 H1192 0.929 . S
C1196 C1198 1.378 . S
C1196 C1200 1.350 . S
C1197 C1200 1.463 . S
C1197 C1202 1.350 . S
C1197 N1205 1.427 . S
C1198 H1189 0.930 . S
C1198 C1196 1.378 . S
C1198 C1199 1.367 . S
C1199 C1198 1.367 . S
C1199 C1201 1.433 . S
C1200 C1196 1.350 . S
C1200 C1197 1.463 . S
C1200 N1204 1.427 . S
C1201 H1191 0.929 . S
C1201 C1199 1.433 . S
C1201 N1204 1.384 . S
C1202 H1193 0.929 . S
C1202 C1194 1.378 . S
C1202 C1197 1.350 . S
C1203 H1190 0.929 . S
C1203 C1195 1.433 . S
C1203 N1205 1.384 . S
N1204 C1200 1.427 . S
N1204 C1201 1.384 . S
N1205 C1197 1.427 . S
N1205 C1203 1.384 . S
H1206 C1212 0.930 . S
H1207 C1216 0.930 . S
H1208 C1221 0.929 . S
H1209 C1219 0.929 . S
H1210 C1214 0.929 . S
H1211 C1220 0.929 . S
C1212 H1206 0.930 . S
C1212 C1213 1.367 . S
C1212 C1220 1.378 . S
C1213 C1212 1.367 . S
C1213 C1221 1.433 . S
C1214 H1210 0.929 . S
C1214 C1216 1.378 . S
C1214 C1218 1.350 . S
C1215 C1218 1.463 . S
C1215 C1220 1.350 . S
C1215 N1223 1.427 . S
C1216 H1207 0.930 . S
C1216 C1214 1.378 . S
C1216 C1217 1.367 . S
C1217 C1216 1.367 . S
C1217 C1219 1.433 . S
C1218 C1214 1.350 . S
C1218 C1215 1.463 . S
C1218 N1222 1.427 . S
C1219 H1209 0.929 . S
C1219 C1217 1.433 . S
C1219 N1222 1.384 . S
C1220 H1211 0.929 . S
C1220 C1212 1.378 . S
C1220 C1215 1.350 . S
C1221 H1208 0.929 . S
C1221 C1213 1.433 . S
C1221 N1223 1.384 . S
N1222 C1218 1.427 . S
N1222 C1219 1.384 . S
N1223 C1215 1.427 . S
N1223 C1221 1.384 . S
H1224 C1230 0.930 . S
H1225 C1234 0.930 . S
H1226 C1239 0.929 . S
H1227 C1237 0.929 . S
H1228 C1232 0.929 . S
H1229 C1238 0.929 . S
C1230 H1224 0.930 . S
C1230 C1231 1.367 . S
C1230 C1238 1.378 . S
C1231 C1230 1.367 . S
C1231 C1239 1.433 . S
C1232 H1228 0.929 . S
C1232 C1234 1.378 . S
C1232 C1236 1.350 . S
C1233 C1236 1.463 . S
C1233 C1238 1.350 . S
C1233 N1241 1.427 . S
C1234 H1225 0.930 . S
C1234 C1232 1.378 . S
C1234 C1235 1.367 . S
C1235 C1234 1.367 . S
C1235 C1237 1.433 . S
C1236 C1232 1.350 . S
C1236 C1233 1.463 . S
C1236 N1240 1.427 . S
C1237 H1227 0.929 . S
C1237 C1235 1.433 . S
C1237 N1240 1.384 . S
C1238 H1229 0.929 . S
C1238 C1230 1.378 . S
C1238 C1233 1.350 . S
C1239 H1226 0.929 . S
C1239 C1231 1.433 . S
C1239 N1241 1.384 . S
N1240 C1236 1.427 . S
N1240 C1237 1.384 . S
N1241 C1233 1.427 . S
N1241 C1239 1.384 . S
H1242 C1248 0.930 . S
H1243 C1252 0.930 . S
H1244 C1257 0.929 . S
H1245 C1255 0.929 . S
H1246 C1250 0.929 . S
H1247 C1256 0.929 . S
C1248 H1242 0.930 . S
C1248 C1249 1.367 . S
C1248 C1256 1.378 . S
C1249 C1248 1.367 . S
C1249 C1257 1.433 . S
C1250 H1246 0.929 . S
C1250 C1252 1.378 . S
C1250 C1254 1.350 . S
C1251 C1254 1.463 . S
C1251 C1256 1.350 . S
C1251 N1259 1.427 . S
C1252 H1243 0.930 . S
C1252 C1250 1.378 . S
C1252 C1253 1.367 . S
C1253 C1252 1.367 . S
C1253 C1255 1.433 . S
C1254 C1250 1.350 . S
C1254 C1251 1.463 . S
C1254 N1258 1.427 . S
C1255 H1245 0.929 . S
C1255 C1253 1.433 . S
C1255 N1258 1.384 . S
C1256 H1247 0.929 . S
C1256 C1248 1.378 . S
C1256 C1251 1.350 . S
C1257 H1244 0.929 . S
C1257 C1249 1.433 . S
C1257 N1259 1.384 . S
N1258 C1254 1.427 . S
N1258 C1255 1.384 . S
N1259 C1251 1.427 . S
N1259 C1257 1.384 . S
H1260 C1266 0.930 1_455 S
H1261 C1270 0.930 . S
H1262 C1275 0.929 . S
H1263 C1273 0.929 . S
H1264 C1268 0.929 . S
H1265 C1274 0.929 . S
C1266 H1260 0.930 1_655 S
C1266 C1267 1.367 . S
C1266 C1274 1.378 . S
C1267 C1266 1.367 . S
C1267 C1275 1.433 . S
C1268 H1264 0.929 . S
C1268 C1270 1.378 . S
C1268 C1272 1.350 . S
C1269 C1272 1.463 . S
C1269 C1274 1.350 . S
C1269 N1277 1.427 . S
C1270 H1261 0.930 . S
C1270 C1268 1.378 . S
C1270 C1271 1.367 . S
C1271 C1270 1.367 . S
C1271 C1273 1.433 . S
C1272 C1268 1.350 . S
C1272 C1269 1.463 . S
C1272 N1276 1.427 . S
C1273 H1263 0.929 . S
C1273 C1271 1.433 . S
C1273 N1276 1.384 . S
C1274 H1265 0.929 . S
C1274 C1266 1.378 . S
C1274 C1269 1.350 . S
C1275 H1262 0.929 . S
C1275 C1267 1.433 . S
C1275 N1277 1.384 . S
N1276 C1272 1.427 . S
N1276 C1273 1.384 . S
N1277 C1269 1.427 . S
N1277 C1275 1.384 . S
H1278 C1284 0.930 . S
H1279 C1288 0.930 . S
H1280 C1293 0.929 . S
H1281 C1291 0.929 . S
H1282 C1286 0.929 . S
H1283 C1292 0.929 . S
C1284 H1278 0.930 . S
C1284 C1285 1.367 . S
C1284 C1292 1.378 . S
C1285 C1284 1.367 . S
C1285 C1293 1.433 . S
C1286 H1282 0.929 . S
C1286 C1288 1.378 . S
C1286 C1290 1.350 . S
C1287 C1290 1.463 . S
C1287 C1292 1.350 . S
C1287 N1295 1.427 . S
C1288 H1279 0.930 . S
C1288 C1286 1.378 . S
C1288 C1289 1.367 . S
C1289 C1288 1.367 . S
C1289 C1291 1.433 . S
C1290 C1286 1.350 . S
C1290 C1287 1.463 . S
C1290 N1294 1.427 . S
C1291 H1281 0.929 . S
C1291 C1289 1.433 . S
C1291 N1294 1.384 . S
C1292 H1283 0.929 . S
C1292 C1284 1.378 . S
C1292 C1287 1.350 . S
C1293 H1280 0.929 . S
C1293 C1285 1.433 . S
C1293 N1295 1.384 . S
N1294 C1290 1.427 . S
N1294 C1291 1.384 . S
N1295 C1287 1.427 . S
N1295 C1293 1.384 . S
H1296 C1302 0.930 . S
H1297 C1306 0.930 . S
H1298 C1311 0.929 . S
H1299 C1309 0.929 . S
H1300 C1304 0.929 . S
H1301 C1310 0.929 . S
C1302 H1296 0.930 . S
C1302 C1303 1.367 . S
C1302 C1310 1.378 . S
C1303 C1302 1.367 . S
C1303 C1311 1.433 . S
C1304 H1300 0.929 . S
C1304 C1306 1.378 . S
C1304 C1308 1.350 . S
C1305 C1308 1.463 . S
C1305 C1310 1.350 . S
C1305 N1313 1.427 . S
C1306 H1297 0.930 . S
C1306 C1304 1.378 . S
C1306 C1307 1.367 . S
C1307 C1306 1.367 . S
C1307 C1309 1.433 . S
C1308 C1304 1.350 . S
C1308 C1305 1.463 . S
C1308 N1312 1.427 . S
C1309 H1299 0.929 . S
C1309 C1307 1.433 . S
C1309 N1312 1.384 . S
C1310 H1301 0.929 . S
C1310 C1302 1.378 . S
C1310 C1305 1.350 . S
C1311 H1298 0.929 . S
C1311 C1303 1.433 . S
C1311 N1313 1.384 . S
N1312 C1308 1.427 . S
N1312 C1309 1.384 . S
N1313 C1305 1.427 . S
N1313 C1311 1.384 . S
H1314 C1320 0.930 . S
H1315 C1324 0.930 . S
H1316 C1329 0.929 . S
H1317 C1327 0.929 . S
H1318 C1322 0.929 . S
H1319 C1328 0.929 . S
C1320 H1314 0.930 . S
C1320 C1321 1.367 . S
C1320 C1328 1.378 . S
C1321 C1320 1.367 . S
C1321 C1329 1.433 . S
C1322 H1318 0.929 . S
C1322 C1324 1.378 . S
C1322 C1326 1.350 . S
C1323 C1326 1.463 1_655 S
C1323 C1328 1.350 . S
C1323 N1331 1.417 1_655 S
C1324 H1315 0.930 . S
C1324 C1322 1.378 . S
C1324 C1325 1.367 . S
C1325 C1324 1.367 . S
C1325 C1327 1.433 . S
C1326 C1322 1.350 . S
C1326 C1323 1.463 1_455 S
C1326 N1330 1.427 . S
C1327 H1317 0.929 . S
C1327 C1325 1.433 . S
C1327 N1330 1.384 . S
C1328 H1319 0.929 . S
C1328 C1320 1.378 . S
C1328 C1323 1.350 . S
C1329 H1316 0.929 . S
C1329 C1321 1.433 . S
C1329 N1331 1.358 1_655 S
N1330 C1326 1.427 . S
N1330 C1327 1.384 . S
N1331 C1323 1.417 1_455 S
N1331 C1329 1.358 1_455 S
H1332 C1338 0.930 . S
H1333 C1342 0.930 . S
H1334 C1347 0.929 . S
H1335 C1345 0.929 . S
H1336 C1340 0.929 . S
H1337 C1346 0.929 . S
C1338 H1332 0.930 . S
C1338 C1339 1.367 . S
C1338 C1346 1.378 . S
C1339 C1338 1.367 . S
C1339 C1347 1.433 . S
C1340 H1336 0.929 . S
C1340 C1342 1.378 . S
C1340 C1344 1.350 . S
C1341 C1344 1.463 . S
C1341 C1346 1.350 . S
C1341 N1349 1.427 . S
C1342 H1333 0.930 . S
C1342 C1340 1.378 . S
C1342 C1343 1.367 . S
C1343 C1342 1.367 . S
C1343 C1345 1.433 . S
C1344 C1340 1.350 . S
C1344 C1341 1.463 . S
C1344 N1348 1.427 . S
C1345 H1335 0.929 . S
C1345 C1343 1.433 . S
C1345 N1348 1.384 . S
C1346 H1337 0.929 . S
C1346 C1338 1.378 . S
C1346 C1341 1.350 . S
C1347 H1334 0.929 . S
C1347 C1339 1.433 . S
C1347 N1349 1.384 . S
N1348 C1344 1.427 . S
N1348 C1345 1.384 . S
N1349 C1341 1.427 . S
N1349 C1347 1.384 . S
H1350 C1356 0.930 . S
H1351 C1360 0.930 . S
H1352 C1365 0.929 . S
H1353 C1363 0.929 . S
H1354 C1358 0.929 . S
H1355 C1364 0.929 1_545 S
C1356 H1350 0.930 . S
C1356 C1357 1.367 . S
C1356 C1364 1.378 . S
C1357 C1356 1.367 . S
C1357 C1365 1.433 . S
C1358 H1354 0.929 . S
C1358 C1360 1.378 . S
C1358 C1362 1.350 . S
C1359 C1362 1.443 1_565 S
C1359 C1364 1.343 . S
C1359 N1367 1.454 . S
C1360 H1351 0.930 . S
C1360 C1358 1.378 . S
C1360 C1361 1.367 . S
C1361 C1360 1.367 . S
C1361 C1363 1.433 . S
C1362 C1358 1.350 . S
C1362 C1359 1.443 1_545 S
C1362 N1366 1.427 . S
C1363 H1353 0.929 . S
C1363 C1361 1.433 . S
C1363 N1366 1.384 . S
C1364 H1355 0.929 1_565 S
C1364 C1356 1.378 . S
C1364 C1359 1.343 . S
C1365 H1352 0.929 . S
C1365 C1357 1.433 . S
C1365 N1367 1.384 . S
N1366 C1362 1.427 . S
N1366 C1363 1.384 . S
N1367 C1359 1.454 . S
N1367 C1365 1.384 . S
H1368 C1374 0.930 . S
H1369 C1378 0.930 . S
H1370 C1383 0.929 . S
H1371 C1381 0.929 . S
H1372 C1376 0.929 . S
H1373 C1382 0.929 . S
C1374 H1368 0.930 . S
C1374 C1375 1.367 . S
C1374 C1382 1.378 . S
C1375 C1374 1.367 . S
C1375 C1383 1.433 . S
C1376 H1372 0.929 . S
C1376 C1378 1.378 . S
C1376 C1380 1.350 . S
C1377 C1380 1.463 . S
C1377 C1382 1.350 . S
C1377 N1385 1.427 . S
C1378 H1369 0.930 . S
C1378 C1376 1.378 . S
C1378 C1379 1.367 . S
C1379 C1378 1.367 . S
C1379 C1381 1.433 . S
C1380 C1376 1.350 . S
C1380 C1377 1.463 . S
C1380 N1384 1.427 . S
C1381 H1371 0.929 . S
C1381 C1379 1.433 . S
C1381 N1384 1.384 . S
C1382 H1373 0.929 . S
C1382 C1374 1.378 . S
C1382 C1377 1.350 . S
C1383 H1370 0.929 . S
C1383 C1375 1.433 . S
C1383 N1385 1.384 . S
N1384 C1380 1.427 . S
N1384 C1381 1.384 . S
N1385 C1377 1.427 . S
N1385 C1383 1.384 . S
H1386 C1392 0.930 . S
H1387 C1396 0.930 . S
H1388 C1401 0.929 . S
H1389 C1399 0.929 . S
H1390 C1394 0.929 . S
H1391 C1400 0.929 . S
C1392 H1386 0.930 . S
C1392 C1393 1.367 . S
C1392 C1400 1.378 . S
C1393 C1392 1.367 . S
C1393 C1401 1.433 . S
C1394 H1390 0.929 . S
C1394 C1396 1.378 . S
C1394 C1398 1.350 . S
C1395 C1398 1.463 . S
C1395 C1400 1.350 . S
C1395 N1403 1.427 . S
C1396 H1387 0.930 . S
C1396 C1394 1.378 . S
C1396 C1397 1.367 . S
C1397 C1396 1.367 . S
C1397 C1399 1.433 . S
C1398 C1394 1.350 . S
C1398 C1395 1.463 . S
C1398 N1402 1.427 . S
C1399 H1389 0.929 . S
C1399 C1397 1.433 . S
C1399 N1402 1.384 . S
C1400 H1391 0.929 . S
C1400 C1392 1.378 . S
C1400 C1395 1.350 . S
C1401 H1388 0.929 . S
C1401 C1393 1.433 . S
C1401 N1403 1.384 . S
N1402 C1398 1.427 . S
N1402 C1399 1.384 . S
N1403 C1395 1.427 . S
N1403 C1401 1.384 . S
H1404 C1410 0.930 . S
H1405 C1414 0.930 . S
H1406 C1419 0.929 . S
H1407 C1417 0.929 . S
H1408 C1412 0.929 . S
H1409 C1418 0.929 . S
C1410 H1404 0.930 . S
C1410 C1411 1.367 . S
C1410 C1418 1.378 . S
C1411 C1410 1.367 . S
C1411 C1419 1.433 . S
C1412 H1408 0.929 . S
C1412 C1414 1.378 . S
C1412 C1416 1.350 . S
C1413 C1416 1.463 . S
C1413 C1418 1.350 . S
C1413 N1421 1.427 . S
C1414 H1405 0.930 . S
C1414 C1412 1.378 . S
C1414 C1415 1.367 . S
C1415 C1414 1.367 . S
C1415 C1417 1.433 . S
C1416 C1412 1.350 . S
C1416 C1413 1.463 . S
C1416 N1420 1.427 . S
C1417 H1407 0.929 . S
C1417 C1415 1.433 . S
C1417 N1420 1.384 . S
C1418 H1409 0.929 . S
C1418 C1410 1.378 . S
C1418 C1413 1.350 . S
C1419 H1406 0.929 . S
C1419 C1411 1.433 . S
C1419 N1421 1.384 . S
N1420 C1416 1.427 . S
N1420 C1417 1.384 . S
N1421 C1413 1.427 . S
N1421 C1419 1.384 . S
H1422 C1428 0.930 . S
H1423 C1432 0.930 . S
H1424 C1437 0.929 . S
H1425 C1435 0.929 . S
H1426 C1430 0.929 . S
H1427 C1436 0.929 . S
C1428 H1422 0.930 . S
C1428 C1429 1.367 . S
C1428 C1436 1.378 . S
C1429 C1428 1.367 . S
C1429 C1437 1.433 . S
C1430 H1426 0.929 . S
C1430 C1432 1.378 . S
C1430 C1434 1.350 . S
C1431 C1434 1.463 . S
C1431 C1436 1.350 . S
C1431 N1439 1.427 . S
C1432 H1423 0.930 . S
C1432 C1430 1.378 . S
C1432 C1433 1.367 . S
C1433 C1432 1.367 . S
C1433 C1435 1.433 . S
C1434 C1430 1.350 . S
C1434 C1431 1.463 . S
C1434 N1438 1.427 . S
C1435 H1425 0.929 . S
C1435 C1433 1.433 . S
C1435 N1438 1.384 . S
C1436 H1427 0.929 . S
C1436 C1428 1.378 . S
C1436 C1431 1.350 . S
C1437 H1424 0.929 . S
C1437 C1429 1.433 . S
C1437 N1439 1.384 . S
N1438 C1434 1.427 . S
N1438 C1435 1.384 . S
N1439 C1431 1.427 . S
N1439 C1437 1.384 . S
H1440 C1446 0.930 . S
H1441 C1450 0.930 . S
H1442 C1455 0.929 . S
H1443 C1453 0.929 . S
H1444 C1448 0.929 . S
H1445 C1454 0.929 . S
C1446 H1440 0.930 . S
C1446 C1447 1.367 . S
C1446 C1454 1.378 . S
C1447 C1446 1.367 . S
C1447 C1455 1.433 . S
C1448 H1444 0.929 . S
C1448 C1450 1.378 . S
C1448 C1452 1.350 . S
C1449 C1452 1.463 . S
C1449 C1454 1.350 . S
C1449 N1457 1.427 . S
C1450 H1441 0.930 . S
C1450 C1448 1.378 . S
C1450 C1451 1.367 . S
C1451 C1450 1.367 . S
C1451 C1453 1.433 . S
C1452 C1448 1.350 . S
C1452 C1449 1.463 . S
C1452 N1456 1.427 . S
C1453 H1443 0.929 . S
C1453 C1451 1.433 . S
C1453 N1456 1.384 . S
C1454 H1445 0.929 . S
C1454 C1446 1.378 . S
C1454 C1449 1.350 . S
C1455 H1442 0.929 . S
C1455 C1447 1.433 . S
C1455 N1457 1.384 . S
N1456 C1452 1.427 . S
N1456 C1453 1.384 . S
N1457 C1449 1.427 . S
N1457 C1455 1.384 . S
H1458 C1464 0.930 . S
H1459 C1468 0.930 . S
H1460 C1473 0.929 . S
H1461 C1471 0.929 . S
H1462 C1466 0.929 . S
H1463 C1472 0.929 . S
C1464 H1458 0.930 . S
C1464 C1465 1.367 . S
C1464 C1472 1.378 . S
C1465 C1464 1.367 . S
C1465 C1473 1.433 . S
C1466 H1462 0.929 . S
C1466 C1468 1.378 . S
C1466 C1470 1.350 . S
C1467 C1470 1.463 . S
C1467 C1472 1.350 . S
C1467 N1475 1.427 . S
C1468 H1459 0.930 . S
C1468 C1466 1.378 . S
C1468 C1469 1.367 . S
C1469 C1468 1.367 . S
C1469 C1471 1.433 . S
C1470 C1466 1.350 . S
C1470 C1467 1.463 . S
C1470 N1474 1.427 . S
C1471 H1461 0.929 . S
C1471 C1469 1.433 . S
C1471 N1474 1.384 . S
C1472 H1463 0.929 . S
C1472 C1464 1.378 . S
C1472 C1467 1.350 . S
C1473 H1460 0.929 . S
C1473 C1465 1.433 . S
C1473 N1475 1.384 . S
N1474 C1470 1.427 . S
N1474 C1471 1.384 . S
N1475 C1467 1.427 . S
N1475 C1473 1.384 . S
H1476 C1482 0.930 . S
H1477 C1486 0.930 . S
H1478 C1491 0.929 . S
H1479 C1489 0.929 . S
H1480 C1484 0.929 . S
H1481 C1490 0.929 . S
C1482 H1476 0.930 . S
C1482 C1483 1.367 . S
C1482 C1490 1.378 . S
C1483 C1482 1.367 . S
C1483 C1491 1.433 . S
C1484 H1480 0.929 . S
C1484 C1486 1.378 . S
C1484 C1488 1.350 . S
C1485 C1488 1.463 . S
C1485 C1490 1.350 . S
C1485 N1493 1.427 . S
C1486 H1477 0.930 . S
C1486 C1484 1.378 . S
C1486 C1487 1.367 . S
C1487 C1486 1.367 . S
C1487 C1489 1.433 . S
C1488 C1484 1.350 . S
C1488 C1485 1.463 . S
C1488 N1492 1.427 . S
C1489 H1479 0.929 . S
C1489 C1487 1.433 . S
C1489 N1492 1.384 . S
C1490 H1481 0.929 . S
C1490 C1482 1.378 . S
C1490 C1485 1.350 . S
C1491 H1478 0.929 . S
C1491 C1483 1.433 . S
C1491 N1493 1.384 . S
N1492 C1488 1.427 . S
N1492 C1489 1.384 . S
N1493 C1485 1.427 . S
N1493 C1491 1.384 . S
H1494 C1500 0.930 . S
H1495 C1504 0.930 . S
H1496 C1509 0.929 . S
H1497 C1507 0.929 . S
H1498 C1502 0.929 . S
H1499 C1508 0.929 . S
C1500 H1494 0.930 . S
C1500 C1501 1.367 . S
C1500 C1508 1.378 . S
C1501 C1500 1.367 . S
C1501 C1509 1.433 . S
C1502 H1498 0.929 . S
C1502 C1504 1.378 . S
C1502 C1506 1.350 . S
C1503 C1506 1.463 . S
C1503 C1508 1.350 . S
C1503 N1511 1.427 . S
C1504 H1495 0.930 . S
C1504 C1502 1.378 . S
C1504 C1505 1.367 . S
C1505 C1504 1.367 . S
C1505 C1507 1.433 . S
C1506 C1502 1.350 . S
C1506 C1503 1.463 . S
C1506 N1510 1.427 . S
C1507 H1497 0.929 . S
C1507 C1505 1.433 . S
C1507 N1510 1.384 . S
C1508 H1499 0.929 . S
C1508 C1500 1.378 . S
C1508 C1503 1.350 . S
C1509 H1496 0.929 . S
C1509 C1501 1.433 . S
C1509 N1511 1.384 . S
N1510 C1506 1.427 . S
N1510 C1507 1.384 . S
N1511 C1503 1.427 . S
N1511 C1509 1.384 . S
H1512 C1518 0.930 . S
H1513 C1522 0.930 . S
H1514 C1527 0.929 . S
H1515 C1525 0.929 . S
H1516 C1520 0.929 . S
H1517 C1526 0.929 . S
C1518 H1512 0.930 . S
C1518 C1519 1.367 . S
C1518 C1526 1.378 . S
C1519 C1518 1.367 . S
C1519 C1527 1.433 . S
C1520 H1516 0.929 . S
C1520 C1522 1.378 . S
C1520 C1524 1.350 . S
C1521 C1524 1.463 . S
C1521 C1526 1.350 . S
C1521 N1529 1.427 . S
C1522 H1513 0.930 . S
C1522 C1520 1.378 . S
C1522 C1523 1.367 . S
C1523 C1522 1.367 . S
C1523 C1525 1.433 . S
C1524 C1520 1.350 . S
C1524 C1521 1.463 . S
C1524 N1528 1.427 . S
C1525 H1515 0.929 . S
C1525 C1523 1.433 . S
C1525 N1528 1.384 . S
C1526 H1517 0.929 . S
C1526 C1518 1.378 . S
C1526 C1521 1.350 . S
C1527 H1514 0.929 . S
C1527 C1519 1.433 . S
C1527 N1529 1.384 . S
N1528 C1524 1.427 . S
N1528 C1525 1.384 . S
N1529 C1521 1.427 . S
N1529 C1527 1.384 . S
H1530 C1536 0.930 . S
H1531 C1540 0.930 . S
H1532 C1545 0.929 . S
H1533 C1543 0.929 . S
H1534 C1538 0.929 . S
H1535 C1544 0.929 . S
C1536 H1530 0.930 . S
C1536 C1537 1.367 . S
C1536 C1544 1.378 . S
C1537 C1536 1.367 . S
C1537 C1545 1.433 . S
C1538 H1534 0.929 . S
C1538 C1540 1.378 . S
C1538 C1542 1.350 . S
C1539 C1542 1.463 . S
C1539 C1544 1.350 . S
C1539 N1547 1.427 . S
C1540 H1531 0.930 . S
C1540 C1538 1.378 . S
C1540 C1541 1.367 . S
C1541 C1540 1.367 . S
C1541 C1543 1.433 . S
C1542 C1538 1.350 . S
C1542 C1539 1.463 . S
C1542 N1546 1.427 . S
C1543 H1533 0.929 . S
C1543 C1541 1.433 . S
C1543 N1546 1.384 . S
C1544 H1535 0.929 . S
C1544 C1536 1.378 . S
C1544 C1539 1.350 . S
C1545 H1532 0.929 . S
C1545 C1537 1.433 . S
C1545 N1547 1.384 . S
N1546 C1542 1.427 . S
N1546 C1543 1.384 . S
N1547 C1539 1.427 . S
N1547 C1545 1.384 . S
H1548 C1554 0.930 . S
H1549 C1558 0.930 . S
H1550 C1563 0.929 . S
H1551 C1561 0.929 . S
H1552 C1556 0.929 . S
H1553 C1562 0.929 . S
C1554 H1548 0.930 . S
C1554 C1555 1.367 . S
C1554 C1562 1.378 . S
C1555 C1554 1.367 . S
C1555 C1563 1.433 1_565 S
C1556 H1552 0.929 . S
C1556 C1558 1.378 . S
C1556 C1560 1.350 . S
C1557 C1560 1.463 . S
C1557 C1562 1.350 1_545 S
C1557 N1565 1.427 . S
C1558 H1549 0.930 . S
C1558 C1556 1.378 . S
C1558 C1559 1.367 . S
C1559 C1558 1.367 . S
C1559 C1561 1.433 . S
C1560 C1556 1.350 . S
C1560 C1557 1.463 . S
C1560 N1564 1.427 . S
C1561 H1551 0.929 . S
C1561 C1559 1.433 . S
C1561 N1564 1.384 . S
C1562 H1553 0.929 . S
C1562 C1554 1.378 . S
C1562 C1557 1.350 1_565 S
C1563 H1550 0.929 . S
C1563 C1555 1.433 1_545 S
C1563 N1565 1.384 . S
N1564 C1560 1.427 . S
N1564 C1561 1.384 . S
N1565 C1557 1.427 . S
N1565 C1563 1.384 . S
H1566 C1572 0.930 . S
H1567 C1576 0.930 . S
H1568 C1581 0.929 . S
H1569 C1579 0.929 . S
H1570 C1574 0.929 . S
H1571 C1580 0.929 . S
C1572 H1566 0.930 . S
C1572 C1573 1.367 . S
C1572 C1580 1.378 . S
C1573 C1572 1.367 . S
C1573 C1581 1.433 . S
C1574 H1570 0.929 . S
C1574 C1576 1.378 . S
C1574 C1578 1.350 . S
C1575 C1578 1.463 1_655 S
C1575 C1580 1.350 . S
C1575 N1583 1.427 . S
C1576 H1567 0.930 . S
C1576 C1574 1.378 . S
C1576 C1577 1.367 . S
C1577 C1576 1.367 . S
C1577 C1579 1.433 . S
C1578 C1574 1.350 . S
C1578 C1575 1.463 1_455 S
C1578 N1582 1.427 . S
C1579 H1569 0.929 . S
C1579 C1577 1.433 . S
C1579 N1582 1.384 . S
C1580 H1571 0.929 . S
C1580 C1572 1.378 . S
C1580 C1575 1.350 . S
C1581 H1568 0.929 . S
C1581 C1573 1.433 . S
C1581 N1583 1.384 . S
N1582 C1578 1.427 . S
N1582 C1579 1.384 . S
N1583 C1575 1.427 . S
N1583 C1581 1.384 . S
H1584 C1590 0.930 . S
H1585 C1594 0.930 . S
H1586 C1599 0.929 . S
H1587 C1597 0.929 . S
H1588 C1592 0.929 . S
H1589 C1598 0.929 . S
C1590 H1584 0.930 . S
C1590 C1591 1.367 . S
C1590 C1598 1.378 . S
C1591 C1590 1.367 . S
C1591 C1599 1.433 . S
C1592 H1588 0.929 . S
C1592 C1594 1.378 . S
C1592 C1596 1.350 . S
C1593 C1596 1.463 . S
C1593 C1598 1.350 . S
C1593 N1601 1.427 . S
C1594 H1585 0.930 . S
C1594 C1592 1.378 . S
C1594 C1595 1.367 . S
C1595 C1594 1.367 . S
C1595 C1597 1.433 . S
C1596 C1592 1.350 . S
C1596 C1593 1.463 . S
C1596 N1600 1.427 . S
C1597 H1587 0.929 . S
C1597 C1595 1.433 . S
C1597 N1600 1.384 . S
C1598 H1589 0.929 . S
C1598 C1590 1.378 . S
C1598 C1593 1.350 . S
C1599 H1586 0.929 . S
C1599 C1591 1.433 . S
C1599 N1601 1.384 . S
N1600 C1596 1.427 . S
N1600 C1597 1.384 . S
N1601 C1593 1.427 . S
N1601 C1599 1.384 . S
H1602 C1608 0.930 . S
H1603 C1612 0.930 . S
H1604 C1617 0.929 . S
H1605 C1615 0.929 . S
H1606 C1610 0.929 . S
H1607 C1616 0.929 . S
C1608 H1602 0.930 . S
C1608 C1609 1.367 . S
C1608 C1616 1.378 . S
C1609 C1608 1.367 . S
C1609 C1617 1.433 . S
C1610 H1606 0.929 . S
C1610 C1612 1.378 . S
C1610 C1614 1.350 . S
C1611 C1614 1.463 1_545 S
C1611 C1616 1.350 . S
C1611 N1619 1.427 1_545 S
C1612 H1603 0.930 . S
C1612 C1610 1.378 . S
C1612 C1613 1.367 . S
C1613 C1612 1.367 . S
C1613 C1615 1.433 . S
C1614 C1610 1.350 . S
C1614 C1611 1.463 1_565 S
C1614 N1618 1.427 . S
C1615 H1605 0.929 . S
C1615 C1613 1.433 . S
C1615 N1618 1.384 . S
C1616 H1607 0.929 . S
C1616 C1608 1.378 . S
C1616 C1611 1.350 . S
C1617 H1604 0.929 . S
C1617 C1609 1.433 . S
C1617 N1619 1.384 1_545 S
N1618 C1614 1.427 . S
N1618 C1615 1.384 . S
N1619 C1611 1.427 1_565 S
N1619 C1617 1.384 1_565 S
H1620 C1626 0.930 . S
H1621 C1630 0.930 . S
H1622 C1635 0.929 . S
H1623 C1633 0.929 . S
H1624 C1628 0.929 . S
H1625 C1634 0.929 . S
C1626 H1620 0.930 . S
C1626 C1627 1.367 . S
C1626 C1634 1.378 . S
C1627 C1626 1.367 . S
C1627 C1635 1.433 . S
C1628 H1624 0.929 . S
C1628 C1630 1.378 1_455 S
C1628 C1632 1.350 . S
C1629 C1632 1.463 . S
C1629 C1634 1.350 . S
C1629 N1637 1.427 . S
C1630 H1621 0.930 . S
C1630 C1628 1.378 1_655 S
C1630 C1631 1.367 . S
C1631 C1630 1.367 . S
C1631 C1633 1.433 . S
C1632 C1628 1.350 . S
C1632 C1629 1.463 . S
C1632 N1636 1.427 . S
C1633 H1623 0.929 . S
C1633 C1631 1.433 . S
C1633 N1636 1.384 1_655 S
C1634 H1625 0.929 . S
C1634 C1626 1.378 . S
C1634 C1629 1.350 . S
C1635 H1622 0.929 . S
C1635 C1627 1.433 . S
C1635 N1637 1.384 . S
N1636 C1632 1.427 . S
N1636 C1633 1.384 1_455 S
N1637 C1629 1.427 . S
N1637 C1635 1.384 . S
H1638 C1644 0.930 . S
H1639 C1648 0.930 . S
H1640 C1653 0.929 . S
H1641 C1651 0.929 . S
H1642 C1646 0.929 . S
H1643 C1652 0.929 . S
C1644 H1638 0.930 . S
C1644 C1645 1.367 . S
C1644 C1652 1.378 . S
C1645 C1644 1.367 . S
C1645 C1653 1.433 . S
C1646 H1642 0.929 . S
C1646 C1648 1.378 . S
C1646 C1650 1.350 . S
C1647 C1650 1.463 . S
C1647 C1652 1.350 . S
C1647 N1655 1.427 . S
C1648 H1639 0.930 . S
C1648 C1646 1.378 . S
C1648 C1649 1.367 . S
C1649 C1648 1.367 . S
C1649 C1651 1.433 . S
C1650 C1646 1.350 . S
C1650 C1647 1.463 . S
C1650 N1654 1.427 . S
C1651 H1641 0.929 . S
C1651 C1649 1.433 . S
C1651 N1654 1.384 . S
C1652 H1643 0.929 . S
C1652 C1644 1.378 . S
C1652 C1647 1.350 . S
C1653 H1640 0.929 . S
C1653 C1645 1.433 . S
C1653 N1655 1.384 . S
N1654 C1650 1.427 . S
N1654 C1651 1.384 . S
N1655 C1647 1.427 . S
N1655 C1653 1.384 . S
H1656 C1662 0.930 . S
H1657 C1666 0.930 . S
H1658 C1671 0.929 . S
H1659 C1669 0.929 . S
H1660 C1664 0.929 . S
H1661 C1670 0.929 . S
C1662 H1656 0.930 . S
C1662 C1663 1.367 . S
C1662 C1670 1.378 . S
C1663 C1662 1.367 . S
C1663 C1671 1.433 . S
C1664 H1660 0.929 . S
C1664 C1666 1.378 . S
C1664 C1668 1.350 . S
C1665 C1668 1.463 . S
C1665 C1670 1.350 . S
C1665 N1673 1.427 . S
C1666 H1657 0.930 . S
C1666 C1664 1.378 . S
C1666 C1667 1.367 . S
C1667 C1666 1.367 . S
C1667 C1669 1.433 . S
C1668 C1664 1.350 . S
C1668 C1665 1.463 . S
C1668 N1672 1.427 . S
C1669 H1659 0.929 . S
C1669 C1667 1.433 . S
C1669 N1672 1.384 . S
C1670 H1661 0.929 . S
C1670 C1662 1.378 . S
C1670 C1665 1.350 . S
C1671 H1658 0.929 . S
C1671 C1663 1.433 . S
C1671 N1673 1.384 . S
N1672 C1668 1.427 . S
N1672 C1669 1.384 . S
N1673 C1665 1.427 . S
N1673 C1671 1.384 . S
H1674 C1680 0.930 . S
H1675 C1684 0.930 . S
H1676 C1689 0.929 . S
H1677 C1687 0.929 . S
H1678 C1682 0.929 . S
H1679 C1688 0.929 . S
C1680 H1674 0.930 . S
C1680 C1681 1.367 . S
C1680 C1688 1.378 . S
C1681 C1680 1.367 . S
C1681 C1689 1.433 . S
C1682 H1678 0.929 . S
C1682 C1684 1.378 . S
C1682 C1686 1.350 . S
C1683 C1686 1.463 . S
C1683 C1688 1.350 . S
C1683 N1691 1.427 . S
C1684 H1675 0.930 . S
C1684 C1682 1.378 . S
C1684 C1685 1.367 . S
C1685 C1684 1.367 . S
C1685 C1687 1.433 . S
C1686 C1682 1.350 . S
C1686 C1683 1.463 . S
C1686 N1690 1.427 . S
C1687 H1677 0.929 . S
C1687 C1685 1.433 . S
C1687 N1690 1.384 . S
C1688 H1679 0.929 . S
C1688 C1680 1.378 . S
C1688 C1683 1.350 . S
C1689 H1676 0.929 . S
C1689 C1681 1.433 . S
C1689 N1691 1.384 . S
N1690 C1686 1.427 . S
N1690 C1687 1.384 . S
N1691 C1683 1.427 . S
N1691 C1689 1.384 . S
C727 C11 1.213 . S
C731 C96 1.244 . S
C745 C16 1.243 . S
C749 C51 1.209 . S
C763 C56 1.241 . S
C767 C91 1.211 . S
C781 C131 1.197 . S
C785 C176 1.236 . S
C799 C216 1.237 . S
C803 C171 1.203 . S
C817 C211 1.208 . S
C821 C136 1.243 . S
C835 C336 1.241 . S
C839 C251 1.212 . S
C853 C256 1.244 . S
C857 C291 1.211 . S
C871 C331 1.209 . S
C875 C296 1.243 . S
C889 C416 1.244 . S
C893 C371 1.214 . S
C907 C411 1.197 . S
C911 C456 1.237 . S
C925 C376 1.241 . S
C929 C451 1.203 . S
C943 C491 1.197 . S
C947 C576 1.236 . S
C961 C496 1.237 . S
C965 C531 1.201 . S
C979 C536 1.242 . S
C983 C571 1.207 . S
C997 C656 1.241 . S
C1001 C611 1.204 . S
C1015 C696 1.244 . S
C1019 C651 1.213 . S
C1033 C616 1.236 . S
C1037 C691 1.200 . S
C1051 C19 1.686 . S
C1055 C219 1.697 . S
C1069 C139 1.701 . S
C1073 C59 1.687 . S
C1087 C179 1.691 . S
C1091 C99 1.703 . S
C1105 C259 1.702 . S
C1109 C459 1.692 . S
C1123 C299 1.692 . S
C1127 C379 1.688 . S
C1141 C419 1.691 . S
C1145 C339 1.688 . S
C1159 C499 1.690 . S
C1163 C699 1.689 . S
C1177 C619 1.700 . S
C1181 C539 1.686 . S
C1195 C659 1.695 . S
C1199 C579 1.701 . S
C1213 C410 2.313 . S
C1217 C10 2.313 1_565 S
C1231 C50 2.313 . S
C1235 C450 2.313 . S
C1249 C370 2.312 . S
C1253 C90 2.312 . S
C1267 C130 2.313 1_655 S
C1271 C570 2.313 . S
C1285 C170 2.312 . S
C1289 C490 2.312 . S
C1303 C530 2.313 . S
C1307 C210 2.313 . S
C1321 C650 2.313 . S
C1325 C250 2.313 . S
C1339 C290 2.309 . S
C1343 C690 2.309 . S
C1357 C330 2.310 . S
C1361 C610 2.310 . S
C1375 C87 1.860 . S
C1379 C2 1.876 . S
C1393 C7 1.862 . S
C1397 C42 1.877 . S
C1411 C82 1.870 . S
C1415 C47 1.859 . S
C1429 C167 1.856 . S
C1433 C122 1.873 . S
C1447 C207 1.858 . S
C1451 C162 1.875 . S
C1465 C202 1.874 . S
C1469 C127 1.864 . S
C1483 C327 1.864 . S
C1487 C242 1.874 . S
C1501 C282 1.870 . S
C1505 C247 1.856 . S
C1519 C287 1.863 . S
C1523 C322 1.873 . S
C1537 C362 1.870 . S
C1541 C407 1.858 1_655 S
C1555 C402 1.875 . S
C1559 C447 1.857 . S
C1573 C367 1.862 . S
C1577 C442 1.877 . S
C1591 C482 1.871 . S
C1595 C567 1.855 1_565 S
C1609 C522 1.872 . S
C1613 C487 1.856 . S
C1627 C527 1.862 . S
C1631 C562 1.877 . S
C1645 C602 1.875 . S
C1649 C647 1.865 . S
C1663 C642 1.877 . S
C1667 C687 1.865 . S
C1681 C607 1.861 . S
C1685 C682 1.877 . S
