# Generated by pormake.
# Topology son, (6)-cn, num edge types: 1
# Building blocks:
#     Node 0, Type 0, BuildingBlock: CUKXOW_clean_sbu_0, # of connection points: 6
#     Node 1, Type 0, BuildingBlock: CUKXOW_clean_sbu_0, # of connection points: 6
#     Node 2, Type 0, BuildingBlock: CUKXOW_clean_sbu_0, # of connection points: 6
#     Node 3, Type 0, BuildingBlock: CUKXOW_clean_sbu_0, # of connection points: 6
#     Node 4, Type 0, BuildingBlock: CUKXOW_clean_sbu_0, # of connection points: 6
#     Node 5, Type 0, BuildingBlock: CUKXOW_clean_sbu_0, # of connection points: 6
#     Node 6, Type 0, BuildingBlock: CUKXOW_clean_sbu_0, # of connection points: 6
#     Node 7, Type 0, BuildingBlock: CUKXOW_clean_sbu_0, # of connection points: 6
#     Node 8, Type 0, BuildingBlock: CUKXOW_clean_sbu_0, # of connection points: 6
#     Node 9, Type 0, BuildingBlock: CUKXOW_clean_sbu_0, # of connection points: 6
#     Node 10, Type 0, BuildingBlock: CUKXOW_clean_sbu_0, # of connection points: 6
#     Node 11, Type 0, BuildingBlock: CUKXOW_clean_sbu_0, # of connection points: 6
#     Node 12, Type 0, BuildingBlock: CUKXOW_clean_sbu_0, # of connection points: 6
#     Node 13, Type 0, BuildingBlock: CUKXOW_clean_sbu_0, # of connection points: 6
#     Node 14, Type 0, BuildingBlock: CUKXOW_clean_sbu_0, # of connection points: 6
#     Node 15, Type 0, BuildingBlock: CUKXOW_clean_sbu_0, # of connection points: 6
#     Node 16, Type 0, BuildingBlock: CUKXOW_clean_sbu_0, # of connection points: 6
#     Node 17, Type 0, BuildingBlock: CUKXOW_clean_sbu_0, # of connection points: 6
#     Node 18, Type 0, BuildingBlock: CUKXOW_clean_sbu_0, # of connection points: 6
#     Node 19, Type 0, BuildingBlock: CUKXOW_clean_sbu_0, # of connection points: 6
#     Node 20, Type 0, BuildingBlock: CUKXOW_clean_sbu_0, # of connection points: 6
#     Node 21, Type 0, BuildingBlock: CUKXOW_clean_sbu_0, # of connection points: 6
#     Node 22, Type 0, BuildingBlock: CUKXOW_clean_sbu_0, # of connection points: 6
#     Node 23, Type 0, BuildingBlock: CUKXOW_clean_sbu_0, # of connection points: 6
#     Node 24, Type 0, BuildingBlock: CUKXOW_clean_sbu_0, # of connection points: 6
#     Node 25, Type 0, BuildingBlock: CUKXOW_clean_sbu_0, # of connection points: 6
#     Node 26, Type 0, BuildingBlock: CUKXOW_clean_sbu_0, # of connection points: 6
#     Node 27, Type 0, BuildingBlock: CUKXOW_clean_sbu_0, # of connection points: 6
#     Node 28, Type 0, BuildingBlock: CUKXOW_clean_sbu_0, # of connection points: 6
#     Node 29, Type 0, BuildingBlock: CUKXOW_clean_sbu_0, # of connection points: 6
#     Node 30, Type 0, BuildingBlock: CUKXOW_clean_sbu_0, # of connection points: 6
#     Node 31, Type 0, BuildingBlock: CUKXOW_clean_sbu_0, # of connection points: 6
#     Edge 32, Type (0, 0), BuildingBlock: KIFKEQ_clean_linker_1, # of connection points: 2
#     Edge 33, Type (0, 0), BuildingBlock: KIFKEQ_clean_linker_1, # of connection points: 2
#     Edge 34, Type (0, 0), BuildingBlock: KIFKEQ_clean_linker_1, # of connection points: 2
#     Edge 35, Type (0, 0), BuildingBlock: KIFKEQ_clean_linker_1, # of connection points: 2
#     Edge 36, Type (0, 0), BuildingBlock: KIFKEQ_clean_linker_1, # of connection points: 2
#     Edge 37, Type (0, 0), BuildingBlock: KIFKEQ_clean_linker_1, # of connection points: 2
#     Edge 38, Type (0, 0), BuildingBlock: KIFKEQ_clean_linker_1, # of connection points: 2
#     Edge 39, Type (0, 0), BuildingBlock: KIFKEQ_clean_linker_1, # of connection points: 2
#     Edge 40, Type (0, 0), BuildingBlock: KIFKEQ_clean_linker_1, # of connection points: 2
#     Edge 41, Type (0, 0), BuildingBlock: KIFKEQ_clean_linker_1, # of connection points: 2
#     Edge 42, Type (0, 0), BuildingBlock: KIFKEQ_clean_linker_1, # of connection points: 2
#     Edge 43, Type (0, 0), BuildingBlock: KIFKEQ_clean_linker_1, # of connection points: 2
#     Edge 44, Type (0, 0), BuildingBlock: KIFKEQ_clean_linker_1, # of connection points: 2
#     Edge 45, Type (0, 0), BuildingBlock: KIFKEQ_clean_linker_1, # of connection points: 2
#     Edge 46, Type (0, 0), BuildingBlock: KIFKEQ_clean_linker_1, # of connection points: 2
#     Edge 47, Type (0, 0), BuildingBlock: KIFKEQ_clean_linker_1, # of connection points: 2
#     Edge 48, Type (0, 0), BuildingBlock: KIFKEQ_clean_linker_1, # of connection points: 2
#     Edge 49, Type (0, 0), BuildingBlock: KIFKEQ_clean_linker_1, # of connection points: 2
#     Edge 50, Type (0, 0), BuildingBlock: KIFKEQ_clean_linker_1, # of connection points: 2
#     Edge 51, Type (0, 0), BuildingBlock: KIFKEQ_clean_linker_1, # of connection points: 2
#     Edge 52, Type (0, 0), BuildingBlock: KIFKEQ_clean_linker_1, # of connection points: 2
#     Edge 53, Type (0, 0), BuildingBlock: KIFKEQ_clean_linker_1, # of connection points: 2
#     Edge 54, Type (0, 0), BuildingBlock: KIFKEQ_clean_linker_1, # of connection points: 2
#     Edge 55, Type (0, 0), BuildingBlock: KIFKEQ_clean_linker_1, # of connection points: 2
#     Edge 56, Type (0, 0), BuildingBlock: KIFKEQ_clean_linker_1, # of connection points: 2
#     Edge 57, Type (0, 0), BuildingBlock: KIFKEQ_clean_linker_1, # of connection points: 2
#     Edge 58, Type (0, 0), BuildingBlock: KIFKEQ_clean_linker_1, # of connection points: 2
#     Edge 59, Type (0, 0), BuildingBlock: KIFKEQ_clean_linker_1, # of connection points: 2
#     Edge 60, Type (0, 0), BuildingBlock: KIFKEQ_clean_linker_1, # of connection points: 2
#     Edge 61, Type (0, 0), BuildingBlock: KIFKEQ_clean_linker_1, # of connection points: 2
#     Edge 62, Type (0, 0), BuildingBlock: KIFKEQ_clean_linker_1, # of connection points: 2
#     Edge 63, Type (0, 0), BuildingBlock: KIFKEQ_clean_linker_1, # of connection points: 2
#     Edge 64, Type (0, 0), BuildingBlock: KIFKEQ_clean_linker_1, # of connection points: 2
#     Edge 65, Type (0, 0), BuildingBlock: KIFKEQ_clean_linker_1, # of connection points: 2
#     Edge 66, Type (0, 0), BuildingBlock: KIFKEQ_clean_linker_1, # of connection points: 2
#     Edge 67, Type (0, 0), BuildingBlock: KIFKEQ_clean_linker_1, # of connection points: 2
#     Edge 68, Type (0, 0), BuildingBlock: KIFKEQ_clean_linker_1, # of connection points: 2
#     Edge 69, Type (0, 0), BuildingBlock: KIFKEQ_clean_linker_1, # of connection points: 2
#     Edge 70, Type (0, 0), BuildingBlock: KIFKEQ_clean_linker_1, # of connection points: 2
#     Edge 71, Type (0, 0), BuildingBlock: KIFKEQ_clean_linker_1, # of connection points: 2
#     Edge 72, Type (0, 0), BuildingBlock: KIFKEQ_clean_linker_1, # of connection points: 2
#     Edge 73, Type (0, 0), BuildingBlock: KIFKEQ_clean_linker_1, # of connection points: 2
#     Edge 74, Type (0, 0), BuildingBlock: KIFKEQ_clean_linker_1, # of connection points: 2
#     Edge 75, Type (0, 0), BuildingBlock: KIFKEQ_clean_linker_1, # of connection points: 2
#     Edge 76, Type (0, 0), BuildingBlock: KIFKEQ_clean_linker_1, # of connection points: 2
#     Edge 77, Type (0, 0), BuildingBlock: KIFKEQ_clean_linker_1, # of connection points: 2
#     Edge 78, Type (0, 0), BuildingBlock: KIFKEQ_clean_linker_1, # of connection points: 2
#     Edge 79, Type (0, 0), BuildingBlock: KIFKEQ_clean_linker_1, # of connection points: 2
#     Edge 80, Type (0, 0), BuildingBlock: KIFKEQ_clean_linker_1, # of connection points: 2
#     Edge 81, Type (0, 0), BuildingBlock: KIFKEQ_clean_linker_1, # of connection points: 2
#     Edge 82, Type (0, 0), BuildingBlock: KIFKEQ_clean_linker_1, # of connection points: 2
#     Edge 83, Type (0, 0), BuildingBlock: KIFKEQ_clean_linker_1, # of connection points: 2
#     Edge 84, Type (0, 0), BuildingBlock: KIFKEQ_clean_linker_1, # of connection points: 2
#     Edge 85, Type (0, 0), BuildingBlock: KIFKEQ_clean_linker_1, # of connection points: 2
#     Edge 86, Type (0, 0), BuildingBlock: KIFKEQ_clean_linker_1, # of connection points: 2
#     Edge 87, Type (0, 0), BuildingBlock: KIFKEQ_clean_linker_1, # of connection points: 2
#     Edge 88, Type (0, 0), BuildingBlock: KIFKEQ_clean_linker_1, # of connection points: 2
#     Edge 89, Type (0, 0), BuildingBlock: KIFKEQ_clean_linker_1, # of connection points: 2
#     Edge 90, Type (0, 0), BuildingBlock: KIFKEQ_clean_linker_1, # of connection points: 2
#     Edge 91, Type (0, 0), BuildingBlock: KIFKEQ_clean_linker_1, # of connection points: 2
#     Edge 92, Type (0, 0), BuildingBlock: KIFKEQ_clean_linker_1, # of connection points: 2
#     Edge 93, Type (0, 0), BuildingBlock: KIFKEQ_clean_linker_1, # of connection points: 2
#     Edge 94, Type (0, 0), BuildingBlock: KIFKEQ_clean_linker_1, # of connection points: 2
#     Edge 95, Type (0, 0), BuildingBlock: KIFKEQ_clean_linker_1, # of connection points: 2
#     Edge 96, Type (0, 0), BuildingBlock: KIFKEQ_clean_linker_1, # of connection points: 2
#     Edge 97, Type (0, 0), BuildingBlock: KIFKEQ_clean_linker_1, # of connection points: 2
#     Edge 98, Type (0, 0), BuildingBlock: KIFKEQ_clean_linker_1, # of connection points: 2
#     Edge 99, Type (0, 0), BuildingBlock: KIFKEQ_clean_linker_1, # of connection points: 2
#     Edge 100, Type (0, 0), BuildingBlock: KIFKEQ_clean_linker_1, # of connection points: 2
#     Edge 101, Type (0, 0), BuildingBlock: KIFKEQ_clean_linker_1, # of connection points: 2
#     Edge 102, Type (0, 0), BuildingBlock: KIFKEQ_clean_linker_1, # of connection points: 2
#     Edge 103, Type (0, 0), BuildingBlock: KIFKEQ_clean_linker_1, # of connection points: 2
#     Edge 104, Type (0, 0), BuildingBlock: KIFKEQ_clean_linker_1, # of connection points: 2
#     Edge 105, Type (0, 0), BuildingBlock: KIFKEQ_clean_linker_1, # of connection points: 2
#     Edge 106, Type (0, 0), BuildingBlock: KIFKEQ_clean_linker_1, # of connection points: 2
#     Edge 107, Type (0, 0), BuildingBlock: KIFKEQ_clean_linker_1, # of connection points: 2
#     Edge 108, Type (0, 0), BuildingBlock: KIFKEQ_clean_linker_1, # of connection points: 2
#     Edge 109, Type (0, 0), BuildingBlock: KIFKEQ_clean_linker_1, # of connection points: 2
#     Edge 110, Type (0, 0), BuildingBlock: KIFKEQ_clean_linker_1, # of connection points: 2
#     Edge 111, Type (0, 0), BuildingBlock: KIFKEQ_clean_linker_1, # of connection points: 2
#     Edge 112, Type (0, 0), BuildingBlock: KIFKEQ_clean_linker_1, # of connection points: 2
#     Edge 113, Type (0, 0), BuildingBlock: KIFKEQ_clean_linker_1, # of connection points: 2
#     Edge 114, Type (0, 0), BuildingBlock: KIFKEQ_clean_linker_1, # of connection points: 2
#     Edge 115, Type (0, 0), BuildingBlock: KIFKEQ_clean_linker_1, # of connection points: 2
#     Edge 116, Type (0, 0), BuildingBlock: KIFKEQ_clean_linker_1, # of connection points: 2
#     Edge 117, Type (0, 0), BuildingBlock: KIFKEQ_clean_linker_1, # of connection points: 2
#     Edge 118, Type (0, 0), BuildingBlock: KIFKEQ_clean_linker_1, # of connection points: 2
#     Edge 119, Type (0, 0), BuildingBlock: KIFKEQ_clean_linker_1, # of connection points: 2
#     Edge 120, Type (0, 0), BuildingBlock: KIFKEQ_clean_linker_1, # of connection points: 2
#     Edge 121, Type (0, 0), BuildingBlock: KIFKEQ_clean_linker_1, # of connection points: 2
#     Edge 122, Type (0, 0), BuildingBlock: KIFKEQ_clean_linker_1, # of connection points: 2
#     Edge 123, Type (0, 0), BuildingBlock: KIFKEQ_clean_linker_1, # of connection points: 2
#     Edge 124, Type (0, 0), BuildingBlock: KIFKEQ_clean_linker_1, # of connection points: 2
#     Edge 125, Type (0, 0), BuildingBlock: KIFKEQ_clean_linker_1, # of connection points: 2
#     Edge 126, Type (0, 0), BuildingBlock: KIFKEQ_clean_linker_1, # of connection points: 2
#     Edge 127, Type (0, 0), BuildingBlock: KIFKEQ_clean_linker_1, # of connection points: 2
# Relax obj value: 0.055
# Max RMSD: 0.125
# Mean RMSD: 0.125
data_MOF--net-son--node1-CUKXOW_clean_sbu_0--edge1-KIFKEQ_clean_linker_1
_symmetry_space_group_name_H-M    P1
_symmetry_Int_Tables_number       1
_symmetry_cell_setting            triclinic
loop_
_symmetry_equiv_pos_as_xyz
'x, y, z'
_cell_length_a     140.67607
_cell_length_b     60.505014
_cell_length_c     14.646895
_cell_angle_alpha  89.992975
_cell_angle_beta   89.999024
_cell_angle_gamma 90.014081
loop_
_atom_site_label
_atom_site_type_symbol
_atom_site_fract_x
_atom_site_fract_y
_atom_site_fract_z
_atom_type_partial_charge
Tb0 Tb 0.29477 0.24963 0.24408 0.0
C1 C 0.30517 0.29284 0.2983 0.0
Tb2 Tb 0.31575 0.24677 0.27905 0.0
O3 O 0.29173 0.25969 0.38384 0.0
O4 O 0.3034 0.23931 0.3573 0.0
O5 O 0.29785 0.28477 0.25204 0.0
C6 C 0.33381 0.24886 0.33652 0.0
O7 O 0.31235 0.2802 0.32525 0.0
C8 C 0.31095 0.24576 0.10494 0.0
C9 C 0.30514 0.20289 0.23775 0.0
O10 O 0.32997 0.26155 0.27548 0.0
O11 O 0.32745 0.23507 0.36603 0.0
O12 O 0.31834 0.23598 0.13876 0.0
O13 O 0.30712 0.25726 0.16688 0.0
O14 O 0.31267 0.21165 0.2781 0.0
O15 O 0.29777 0.21503 0.21138 0.0
C16 C 0.27724 0.24831 0.17268 0.0
O17 O 0.27962 0.24139 0.25323 0.0
O18 O 0.28473 0.256 0.132 0.0
C19 C 0.29921 0.25043 0.41877 0.0
Tb20 Tb 0.94355 0.99382 0.25818 0.0
C21 C 0.93308 0.95047 0.31356 0.0
Tb22 Tb 0.92167 0.99525 0.29415 0.0
O23 O 0.94671 0.98554 0.39991 0.0
O24 O 0.93435 0.00296 0.36927 0.0
O25 O 0.94013 0.95871 0.26369 0.0
C26 C 0.90401 0.99462 0.36074 0.0
O27 O 0.92597 0.96284 0.34413 0.0
C28 C 0.92549 0.99038 0.1162 0.0
C29 C 0.93197 0.03904 0.23645 0.0
O30 O 0.90833 0.97821 0.32192 0.0
O31 O 0.90974 0.01145 0.36454 0.0
O32 O 0.91701 0.99228 0.14976 0.0
O33 O 0.93095 0.99083 0.184 0.0
O34 O 0.92432 0.03033 0.27582 0.0
O35 O 0.93973 0.0274 0.21663 0.0
C36 C 0.96098 0.99568 0.18744 0.0
O37 O 0.95763 0.00905 0.24885 0.0
O38 O 0.95451 0.98127 0.16571 0.0
C39 C 0.93877 0.99301 0.43266 0.0
Tb40 Tb 0.29398 0.99434 0.0826 0.0
C41 C 0.30446 0.9513 1.01837 0.0
Tb42 Tb 0.31578 -0.00347 0.04685 0.0
O43 O 0.28907 -0.00264 0.93929 0.0
O44 O 0.30315 -0.00114 0.97166 0.0
O45 O 0.29682 0.95939 0.06011 0.0
C46 C 0.33373 0.9937 0.98997 0.0
O47 O 0.31212 0.96339 0.99968 0.0
C48 C 0.31071 -0.00175 0.22107 0.0
C49 C 0.30499 0.03998 0.08744 0.0
O50 O 0.32969 0.98052 0.04812 0.0
O51 O 0.32762 0.00843 0.96277 0.0
O52 O 0.31845 0.00661 0.18791 0.0
O53 O 0.30664 0.98737 0.15842 0.0
O54 O 0.31206 0.03129 1.03956 0.0
O55 O 0.29811 0.02771 0.12336 0.0
C56 C 0.27694 0.99441 0.16309 0.0
O57 O 0.28106 0.01136 0.12634 0.0
O58 O 0.28245 0.97728 0.15516 0.0
C59 C 0.29754 -0.00066 0.90488 0.0
Tb60 Tb 0.94328 0.24767 0.0848 0.0
C61 C 0.93304 0.29074 1.01653 0.0
Tb62 Tb 0.92138 0.24588 0.04763 0.0
O63 O 0.94813 0.24509 0.94098 0.0
O64 O 0.93409 0.24313 0.97414 0.0
O65 O 0.94069 0.28255 0.05796 0.0
C66 C 0.90343 0.24852 0.98909 0.0
O67 O 0.92526 0.27889 0.99968 0.0
C68 C 0.92641 0.24419 0.22222 0.0
C69 C 0.93209 0.20221 0.08832 0.0
O70 O 0.90744 0.26193 0.04658 0.0
O71 O 0.90958 0.23371 0.96344 0.0
O72 O 0.91862 0.23611 0.18907 0.0
O73 O 0.93055 0.25484 0.15928 0.0
O74 O 0.92505 0.21109 1.04048 0.0
O75 O 0.93902 0.21429 0.12468 0.0
C76 C 0.96031 0.24755 0.16636 0.0
O77 O 0.9567 0.23145 0.11938 0.0
O78 O 0.9543 0.26387 0.16788 0.0
C79 C 0.93965 0.243 0.90681 0.0
Tb80 Tb 0.67136 0.74582 0.80794 0.0
C81 C 0.68225 0.78915 0.85046 0.0
Tb82 Tb 0.69319 0.74338 0.8443 0.0
O83 O 0.6686 0.75555 0.94917 0.0
O84 O 0.68047 0.7365 0.9196 0.0
O85 O 0.67515 0.78059 0.80241 0.0
C86 C 0.71022 0.74315 0.92529 0.0
O87 O 0.68913 0.77679 0.88572 0.0
C88 C 0.68961 0.74849 0.66651 0.0
C89 C 0.6827 0.70053 0.7771 0.0
O90 O 0.70656 0.75954 0.88045 0.0
O91 O 0.70426 0.72672 0.92493 0.0
O92 O 0.69808 0.74631 0.70078 0.0
O93 O 0.68402 0.74806 0.73351 0.0
O94 O 0.69042 0.70854 0.81783 0.0
O95 O 0.67498 0.71261 0.76058 0.0
C96 C 0.65348 0.74349 0.74827 0.0
O97 O 0.65737 0.73009 0.80648 0.0
O98 O 0.65969 0.75817 0.72275 0.0
C99 C 0.67635 0.74725 0.98234 0.0
Tb100 Tb 0.06583 -0.00376 0.80137 0.0
C101 C 0.0546 0.95294 0.83832 0.0
Tb102 Tb 0.04394 -0.00069 0.83649 0.0
O103 O 0.06811 0.98501 0.94131 0.0
O104 O 0.05668 0.00561 0.91228 0.0
O105 O 0.06192 0.96157 0.79349 0.0
C106 C 0.02681 3e-05 0.91468 0.0
O107 O 0.04759 0.96522 0.87213 0.0
C108 C 0.04774 0.9953 0.65882 0.0
C109 C 0.05466 0.04209 0.77215 0.0
O110 O 0.02933 0.98751 0.84719 0.0
O111 O 0.03396 0.0123 0.93886 0.0
O112 O 0.03927 -0.0018 0.69211 0.0
O113 O 0.05321 0.9946 0.72684 0.0
O114 O 0.04676 0.03408 0.80969 0.0
O115 O 0.06246 0.03002 0.75859 0.0
C116 C 0.0839 -0.00132 0.7479 0.0
O117 O 0.08025 0.00901 0.81713 0.0
O118 O 0.07734 0.98707 0.70767 0.0
C119 C 0.06055 0.99418 0.97452 0.0
Tb120 Tb 0.67149 -0.00403 1.03534 0.0
C121 C 0.68253 0.9524 0.99852 0.0
Tb122 Tb 0.69341 -0.00146 1.00005 0.0
O123 O 0.66915 0.98481 0.89537 0.0
O124 O 0.68069 0.0051 0.9244 0.0
O125 O 0.67524 0.96122 1.04315 0.0
C126 C 0.71054 -0.00099 0.9215 0.0
O127 O 0.68961 0.9645 0.96481 0.0
C128 C 0.68959 0.99469 0.17778 0.0
C129 C 0.68286 0.04159 0.06377 0.0
O130 O 0.70801 0.98659 0.98936 0.0
O131 O 0.70339 0.01128 0.89717 0.0
O132 O 0.69807 -0.0026 0.14446 0.0
O133 O 0.68413 0.99407 0.10975 0.0
O134 O 0.69073 0.03338 1.02629 0.0
O135 O 0.67502 0.0297 0.0777 0.0
C136 C 0.65346 -0.0011 0.08938 0.0
O137 O 0.65714 0.00913 1.02003 0.0
O138 O 0.65997 0.98709 0.12934 0.0
C139 C 0.67677 0.99377 0.86216 0.0
Tb140 Tb 0.06588 0.74658 1.03433 0.0
C141 C 0.05503 0.79011 0.99476 0.0
Tb142 Tb 0.04495 0.74282 1.00016 0.0
O143 O 0.06805 0.7583 0.89501 0.0
O144 O 0.05728 0.73554 0.92251 0.0
O145 O 0.06263 0.78161 1.0351 0.0
C146 C 0.02751 0.74346 0.92666 0.0
O147 O 0.04776 0.77765 0.96812 0.0
C148 C 0.04944 0.74237 0.17454 0.0
C149 C 0.05566 0.6999 0.05487 0.0
O150 O 0.02976 0.75085 1.00688 0.0
O151 O 0.03508 0.73567 0.88765 0.0
O152 O 0.04202 0.73274 0.14 0.0
O153 O 0.05349 0.75368 0.11273 0.0
O154 O 0.04811 0.70772 1.01133 0.0
O155 O 0.06296 0.71267 0.07744 0.0
C156 C 0.0841 0.74465 0.08673 0.0
O157 O 0.08064 0.73653 1.01203 0.0
O158 O 0.07728 0.75382 0.13288 0.0
C159 C 0.06094 0.74751 0.86093 0.0
Tb160 Tb 0.295 0.74901 0.74835 0.0
C161 C 0.30518 0.79253 0.80267 0.0
Tb162 Tb 0.31599 0.74673 0.78276 0.0
O163 O 0.2919 0.75891 0.8881 0.0
O164 O 0.3037 0.73896 0.86146 0.0
O165 O 0.29786 0.78424 0.75713 0.0
C166 C 0.33406 0.74915 0.83934 0.0
O167 O 0.31246 0.7801 0.82888 0.0
C168 C 0.31118 0.74555 0.6087 0.0
C169 C 0.30563 0.7027 0.73972 0.0
O170 O 0.33017 0.7617 0.77815 0.0
O171 O 0.32775 0.73533 0.86961 0.0
O172 O 0.31862 0.736 0.6425 0.0
O173 O 0.30729 0.75694 0.6706 0.0
O174 O 0.31306 0.71154 0.78156 0.0
O175 O 0.29829 0.71476 0.71242 0.0
C176 C 0.27742 0.74686 0.67883 0.0
O177 O 0.28017 0.73809 0.75514 0.0
O178 O 0.28459 0.75691 0.64144 0.0
C179 C 0.29946 0.74995 0.92291 0.0
Tb180 Tb 0.94347 0.49277 0.74705 0.0
C181 C 0.93276 0.44951 0.79976 0.0
Tb182 Tb 0.92155 0.49466 0.78364 0.0
O183 O 0.94658 0.48389 0.88852 0.0
O184 O 0.93431 0.50168 0.85861 0.0
O185 O 0.93984 0.45776 0.7504 0.0
C186 C 0.90392 0.49426 0.85167 0.0
O187 O 0.92572 0.46195 0.83137 0.0
C188 C 0.92533 0.49037 0.60532 0.0
C189 C 0.93217 0.53856 0.73225 0.0
O190 O 0.9082 0.47775 0.81302 0.0
O191 O 0.90968 0.51106 0.85427 0.0
O192 O 0.91686 0.49232 0.63909 0.0
O193 O 0.93081 0.49058 0.67301 0.0
O194 O 0.92448 0.52976 0.7704 0.0
O195 O 0.93985 0.52683 0.71019 0.0
C196 C 0.96085 0.49425 0.67443 0.0
O197 O 0.9577 0.50726 0.73814 0.0
O198 O 0.95421 0.48038 0.65161 0.0
C199 C 0.93866 0.49147 0.92159 0.0
Tb200 Tb 0.2946 0.4944 0.58222 0.0
C201 C 0.30501 0.45135 0.517 0.0
Tb202 Tb 0.31644 0.49646 0.54578 0.0
O203 O 0.2897 0.4974 0.43874 0.0
O204 O 0.30377 0.49898 0.47134 0.0
O205 O 0.29739 0.45947 0.55889 0.0
C206 C 0.33436 0.49388 0.487 0.0
O207 O 0.3127 0.46336 0.49849 0.0
C208 C 0.31141 0.49802 0.72025 0.0
C209 C 0.30568 0.53991 0.5878 0.0
O210 O 0.33038 0.48049 0.54481 0.0
O211 O 0.3282 0.50866 0.46127 0.0
O212 O 0.31919 0.50622 0.68715 0.0
O213 O 0.30729 0.48732 0.65736 0.0
O214 O 0.31273 0.53124 0.53958 0.0
O215 O 0.29879 0.52767 0.62361 0.0
C216 C 0.27754 0.49448 0.66275 0.0
O217 O 0.28158 0.51133 0.62437 0.0
O218 O 0.28313 0.47746 0.65642 0.0
C219 C 0.29818 0.49939 0.40438 0.0
Tb220 Tb 0.94408 0.74822 0.58219 0.0
C221 C 0.93346 0.79147 0.52671 0.0
Tb222 Tb 0.92213 0.74655 0.54558 0.0
O223 O 0.94723 0.75676 0.44052 0.0
O224 O 0.93489 0.73926 0.47088 0.0
O225 O 0.94056 0.78331 0.57617 0.0
C226 C 0.90444 0.74708 0.47882 0.0
O227 O 0.92636 0.77904 0.49626 0.0
C228 C 0.92596 0.75097 0.72384 0.0
C229 C 0.93265 0.70256 0.59745 0.0
O230 O 0.90879 0.76358 0.51678 0.0
O231 O 0.91017 0.73022 0.47604 0.0
O232 O 0.91748 0.74906 0.69021 0.0
O233 O 0.93142 0.75073 0.65599 0.0
O234 O 0.92498 0.71146 0.55921 0.0
O235 O 0.94038 0.71418 0.61915 0.0
C236 C 0.96146 0.74691 0.6554 0.0
O237 O 0.95838 0.73406 0.59075 0.0
O238 O 0.95473 0.7605 0.67886 0.0
C239 C 0.93929 0.74928 0.40762 0.0
Tb240 Tb 0.67165 0.24596 0.30306 0.0
C241 C 0.6829 0.2899 0.3292 0.0
Tb242 Tb 0.69347 0.24326 0.33806 0.0
O243 O 0.66954 0.25797 0.44208 0.0
O244 O 0.68084 0.23682 0.41456 0.0
O245 O 0.67535 0.28065 0.29053 0.0
C246 C 0.71031 0.24204 0.42297 0.0
O247 O 0.6902 0.27822 0.36089 0.0
C248 C 0.68995 0.24856 0.16065 0.0
C249 C 0.68234 0.19989 0.2883 0.0
O250 O 0.70372 0.25672 0.43632 0.0
O251 O 0.70737 0.22793 0.36245 0.0
O252 O 0.69843 0.24726 0.19547 0.0
O253 O 0.68427 0.24755 0.22693 0.0
O254 O 0.6898 0.20824 0.33214 0.0
O255 O 0.67494 0.2121 0.2633 0.0
C256 C 0.65351 0.2431 0.24982 0.0
O257 O 0.65717 0.23351 0.32089 0.0
O258 O 0.66011 0.25421 0.2078 0.0
C259 C 0.67706 0.24869 0.47583 0.0
Tb260 Tb 0.06641 0.49633 0.30239 0.0
C261 C 0.05488 0.45302 0.34341 0.0
Tb262 Tb 0.04458 0.49974 0.33824 0.0
O263 O 0.07128 0.50056 0.44557 0.0
O264 O 0.05723 0.5013 0.41331 0.0
O265 O 0.06238 0.4616 0.30114 0.0
C266 C 0.02705 0.49892 0.40789 0.0
O267 O 0.04759 0.46522 0.37167 0.0
C268 C 0.04967 0.50124 0.16453 0.0
C269 C 0.05594 0.54285 0.29261 0.0
O270 O 0.02977 0.48856 0.33476 0.0
O271 O 0.03419 0.50979 0.4417 0.0
O272 O 0.04198 0.50998 0.19758 0.0
O273 O 0.05366 0.49007 0.22704 0.0
O274 O 0.04843 0.53465 0.33605 0.0
O275 O 0.0632 0.53042 0.26561 0.0
C276 C 0.08377 0.49369 0.22911 0.0
O277 O 0.07775 0.50962 0.21546 0.0
O278 O 0.07992 0.47907 0.28238 0.0
C279 C 0.06282 0.50218 0.48013 0.0
Tb280 Tb 0.67141 0.49672 0.52392 0.0
C281 C 0.68193 0.45338 0.4728 0.0
Tb282 Tb 0.69233 0.49977 0.48817 0.0
O283 O 0.6683 0.48726 0.38344 0.0
O284 O 0.67997 0.50737 0.41059 0.0
O285 O 0.67458 0.46162 0.51813 0.0
C286 C 0.70999 0.49866 0.41997 0.0
O287 O 0.68906 0.46602 0.44457 0.0
C288 C 0.68789 0.49981 0.66309 0.0
C289 C 0.68196 0.54277 0.54651 0.0
O290 O 0.7067 0.48569 0.48298 0.0
O291 O 0.70334 0.51227 0.3954 0.0
O292 O 0.69538 0.50921 0.62922 0.0
O293 O 0.68381 0.4889 0.60071 0.0
O294 O 0.68925 0.53486 0.49946 0.0
O295 O 0.67478 0.53001 0.57242 0.0
C296 C 0.65348 0.49847 0.58466 0.0
O297 O 0.65723 0.51162 0.52487 0.0
O298 O 0.65986 0.48437 0.61128 0.0
C299 C 0.6758 0.49641 0.34873 0.0
Tb300 Tb 0.06635 0.24601 0.53042 0.0
C301 C 0.05502 0.28947 0.48735 0.0
Tb302 Tb 0.04447 0.24307 0.49438 0.0
O303 O 0.07119 0.24183 0.38715 0.0
O304 O 0.05714 0.2412 0.41949 0.0
O305 O 0.06247 0.28087 0.53029 0.0
C306 C 0.02687 0.24461 0.42597 0.0
O307 O 0.04772 0.27732 0.45899 0.0
C308 C 0.04956 0.24153 0.66823 0.0
C309 C 0.05561 0.19976 0.54017 0.0
O310 O 0.02985 0.25557 0.49666 0.0
O311 O 0.03381 0.23273 0.39388 0.0
O312 O 0.04181 0.23302 0.63522 0.0
O313 O 0.0536 0.25255 0.60562 0.0
O314 O 0.04819 0.2081 0.49584 0.0
O315 O 0.06287 0.21207 0.56812 0.0
C316 C 0.08374 0.24784 0.60418 0.0
O317 O 0.07775 0.23169 0.61376 0.0
O318 O 0.07985 0.26317 0.55482 0.0
C319 C 0.06273 0.24029 0.35264 0.0
Tb320 Tb 0.79421 0.24829 0.75446 0.0
C321 C 0.80442 0.29142 0.81494 0.0
Tb322 Tb 0.81519 0.24585 0.78964 0.0
O323 O 0.79083 0.25714 0.89497 0.0
O324 O 0.80284 0.23805 0.86764 0.0
O325 O 0.79709 0.28347 0.76847 0.0
C326 C 0.83334 0.24835 0.84449 0.0
O327 O 0.8117 0.27884 0.83945 0.0
C328 C 0.81045 0.2449 0.61516 0.0
C329 C 0.80484 0.20204 0.74535 0.0
O330 O 0.82928 0.26129 0.78575 0.0
O331 O 0.82714 0.23407 0.87341 0.0
O332 O 0.81786 0.23531 0.64915 0.0
O333 O 0.80653 0.25621 0.67714 0.0
O334 O 0.81212 0.21076 0.78994 0.0
O335 O 0.79767 0.2143 0.71506 0.0
C336 C 0.77669 0.24658 0.68291 0.0
O337 O 0.77983 0.23432 0.74893 0.0
O338 O 0.78342 0.25984 0.65693 0.0
C339 C 0.79848 0.24862 0.92955 0.0
Tb340 Tb 0.44345 0.9937 0.75606 0.0
C341 C 0.43302 0.9503 0.81688 0.0
Tb342 Tb 0.42167 0.99552 0.79185 0.0
O343 O 0.44839 -0.0031 0.89926 0.0
O344 O 0.43428 -0.00206 0.86728 0.0
O345 O 0.44058 0.95865 0.77475 0.0
C346 C 0.40374 0.9928 0.84954 0.0
O347 O 0.42538 0.96226 0.83743 0.0
C348 C 0.42673 -0.00255 0.61762 0.0
C349 C 0.43236 0.03917 0.75136 0.0
O350 O 0.40771 0.97968 0.79077 0.0
O351 O 0.4099 0.00737 0.87695 0.0
O352 O 0.41897 0.00566 0.65087 0.0
O353 O 0.43082 0.9866 0.68014 0.0
O354 O 0.42529 0.03035 0.79905 0.0
O355 O 0.43927 0.02703 0.71557 0.0
C356 C 0.46048 0.99388 0.67541 0.0
O357 O 0.45606 0.01108 0.70658 0.0
O358 O 0.45527 0.97646 0.68896 0.0
C359 C 0.43992 -0.00139 0.93386 0.0
Tb360 Tb 0.79376 0.9934 0.57643 0.0
C361 C 0.80444 0.95032 0.52141 0.0
Tb362 Tb 0.81564 0.99538 0.54053 0.0
O363 O 0.79064 0.98492 0.43479 0.0
O364 O 0.80292 0.00267 0.46526 0.0
O365 O 0.79735 0.95837 0.57119 0.0
C366 C 0.83332 0.99488 0.4742 0.0
O367 O 0.81148 0.96289 0.49069 0.0
C368 C 0.81184 0.99054 0.71855 0.0
C369 C 0.80511 0.03901 0.59559 0.0
O370 O 0.82893 0.97831 0.51117 0.0
O371 O 0.82763 0.01182 0.47209 0.0
O372 O 0.82031 0.99262 0.68495 0.0
O373 O 0.80638 0.99086 0.65079 0.0
O374 O 0.81278 0.03041 0.55633 0.0
O375 O 0.79743 0.02718 0.61656 0.0
C376 C 0.77633 0.99496 0.64747 0.0
O377 O 0.77962 0.0083 0.58559 0.0
O378 O 0.78286 0.98073 0.66945 0.0
C379 C 0.79855 0.99258 0.40199 0.0
Tb380 Tb 0.44256 0.24836 0.58801 0.0
C381 C 0.43227 0.29154 0.53091 0.0
Tb382 Tb 0.42158 0.24566 0.55315 0.0
O383 O 0.44569 0.25801 0.448 0.0
O384 O 0.43391 0.23799 0.47496 0.0
O385 O 0.43961 0.28353 0.57713 0.0
C386 C 0.40351 0.248 0.49618 0.0
O387 O 0.42503 0.27891 0.50535 0.0
C388 C 0.42634 0.24482 0.72737 0.0
C389 C 0.43205 0.20186 0.59732 0.0
O390 O 0.40743 0.26082 0.55621 0.0
O391 O 0.40979 0.23392 0.46736 0.0
O392 O 0.41893 0.23514 0.69364 0.0
O393 O 0.43023 0.25618 0.66528 0.0
O394 O 0.4246 0.21053 0.5551 0.0
O395 O 0.43935 0.21408 0.62445 0.0
C396 C 0.46012 0.2467 0.65839 0.0
O397 O 0.45745 0.2378 0.5821 0.0
O398 O 0.45289 0.2566 0.6953 0.0
C399 C 0.43816 0.24893 0.41327 0.0
Tb400 Tb 0.17162 0.74446 0.31171 0.0
C401 C 0.18242 0.78808 0.35164 0.0
Tb402 Tb 0.19351 0.74246 0.34714 0.0
O403 O 0.16911 0.75528 0.45195 0.0
O404 O 0.18085 0.73564 0.42315 0.0
O405 O 0.17528 0.77929 0.30488 0.0
C406 C 0.21065 0.74277 0.42626 0.0
O407 O 0.18939 0.77594 0.38671 0.0
C408 C 0.18985 0.74688 0.16941 0.0
C409 C 0.18305 0.69901 0.2858 0.0
O410 O 0.20701 0.75866 0.37833 0.0
O411 O 0.2046 0.72655 0.43026 0.0
O412 O 0.19833 0.74493 0.20345 0.0
O413 O 0.18426 0.7465 0.23654 0.0
O414 O 0.19086 0.70751 0.32326 0.0
O415 O 0.17518 0.71069 0.2706 0.0
C416 C 0.15361 0.74214 0.25501 0.0
O417 O 0.15716 0.73153 0.32407 0.0
O418 O 0.16025 0.75391 0.21677 0.0
C419 C 0.17681 0.74674 0.48533 0.0
Tb420 Tb 0.56592 -0.00344 0.3058 0.0
C421 C 0.55526 0.95239 0.34067 0.0
Tb422 Tb 0.54402 -0.00224 0.33903 0.0
O423 O 0.5683 0.98494 0.44498 0.0
O424 O 0.55656 0.00471 0.41665 0.0
O425 O 0.56247 0.96161 0.29617 0.0
C426 C 0.52687 -0.00306 0.41671 0.0
O427 O 0.54817 0.96416 0.37555 0.0
C428 C 0.54783 0.99404 0.16172 0.0
C429 C 0.55422 0.04178 0.28138 0.0
O430 O 0.53005 0.98276 0.3579 0.0
O431 O 0.53337 0.01173 0.4324 0.0
O432 O 0.53932 0.99564 0.19527 0.0
O433 O 0.55341 0.9945 0.22898 0.0
O434 O 0.54626 0.0327 0.31295 0.0
O435 O 0.56234 0.03075 0.27033 0.0
C436 C 0.58394 -0.00021 0.25122 0.0
O437 O 0.58033 0.00934 0.32254 0.0
O438 O 0.57736 0.98856 0.20958 0.0
C439 C 0.56057 0.99336 0.47827 0.0
Tb440 Tb 0.17154 0.99482 0.5359 0.0
C441 C 0.18244 0.95124 0.49888 0.0
Tb442 Tb 0.19342 -0.00287 0.50153 0.0
O443 O 0.16919 0.98355 0.39613 0.0
O444 O 0.18078 0.00372 0.42488 0.0
O445 O 0.17522 0.96006 0.54444 0.0
C446 C 0.2106 -0.00327 0.42409 0.0
O447 O 0.18945 0.96336 0.46427 0.0
C448 C 0.18966 0.99312 0.67908 0.0
C449 C 0.18292 0.04041 0.56327 0.0
O450 O 0.20751 0.98267 0.48381 0.0
O451 O 0.20398 0.01119 0.40732 0.0
O452 O 0.19815 0.99543 0.64551 0.0
O453 O 0.18412 0.99307 0.61158 0.0
O454 O 0.19081 0.03204 0.52704 0.0
O455 O 0.17504 0.02863 0.57685 0.0
C456 C 0.15349 -0.00219 0.58956 0.0
O457 O 0.15718 0.0079 0.5199 0.0
O458 O 0.16001 0.98612 0.6301 0.0
C459 C 0.17683 0.99237 0.36287 0.0
Tb460 Tb 0.56575 0.74552 0.53433 0.0
C461 C 0.55537 0.78932 0.48925 0.0
Tb462 Tb 0.54482 0.74284 0.49956 0.0
O463 O 0.56845 0.756 0.39405 0.0
O464 O 0.55712 0.73494 0.42198 0.0
O465 O 0.56278 0.78066 0.53195 0.0
C466 C 0.52727 0.74459 0.42933 0.0
O467 O 0.54806 0.77708 0.4622 0.0
C468 C 0.54923 0.74233 0.67434 0.0
C469 C 0.55509 0.69963 0.55698 0.0
O470 O 0.52998 0.75375 0.50497 0.0
O471 O 0.53445 0.73437 0.39305 0.0
O472 O 0.5417 0.73321 0.63972 0.0
O473 O 0.55343 0.75328 0.61247 0.0
O474 O 0.54773 0.70764 0.51103 0.0
O475 O 0.56234 0.71227 0.58223 0.0
C476 C 0.5838 0.7432 0.59123 0.0
O477 O 0.5799 0.73049 0.53067 0.0
O478 O 0.5775 0.75717 0.62066 0.0
C479 C 0.56106 0.74628 0.3601 0.0
Tb480 Tb 0.79419 0.74821 0.2545 0.0
C481 C 0.80483 0.79154 0.30654 0.0
Tb482 Tb 0.81612 0.74644 0.2899 0.0
O483 O 0.79125 0.7576 0.39553 0.0
O484 O 0.80342 0.73936 0.36568 0.0
O485 O 0.7977 0.78327 0.25776 0.0
C486 C 0.83381 0.74695 0.35663 0.0
O487 O 0.81193 0.77916 0.33737 0.0
C488 C 0.81229 0.75074 0.11186 0.0
C489 C 0.80547 0.70242 0.24041 0.0
O490 O 0.82942 0.76353 0.31978 0.0
O491 O 0.82812 0.73001 0.35836 0.0
O492 O 0.82077 0.74895 0.14551 0.0
O493 O 0.80681 0.75036 0.1795 0.0
O494 O 0.81322 0.71132 0.27713 0.0
O495 O 0.79773 0.71403 0.21961 0.0
C496 C 0.77668 0.7462 0.18476 0.0
O497 O 0.7797 0.73497 0.25457 0.0
O498 O 0.78353 0.7586 0.15426 0.0
C499 C 0.79913 0.74978 0.42849 0.0
Tb500 Tb 0.44326 0.49217 0.24558 0.0
C501 C 0.43278 0.44914 0.30191 0.0
Tb502 Tb 0.42231 0.49522 0.28024 0.0
O503 O 0.44633 0.48223 0.38538 0.0
O504 O 0.43466 0.50262 0.35871 0.0
O505 O 0.44015 0.45703 0.25566 0.0
C506 C 0.40421 0.49305 0.33578 0.0
O507 O 0.42561 0.46191 0.32784 0.0
C508 C 0.42714 0.49617 0.10622 0.0
C509 C 0.43295 0.53902 0.23966 0.0
O510 O 0.40811 0.48043 0.27495 0.0
O511 O 0.41053 0.50684 0.36625 0.0
O512 O 0.4198 0.50612 0.14004 0.0
O513 O 0.43093 0.4846 0.16814 0.0
O514 O 0.42542 0.53027 0.28025 0.0
O515 O 0.44029 0.52685 0.21288 0.0
C516 C 0.46076 0.49319 0.17347 0.0
O517 O 0.4584 0.50053 0.25345 0.0
O518 O 0.45326 0.48525 0.13376 0.0
C519 C 0.43885 0.49151 0.42023 0.0
Tb520 Tb 0.79403 0.49266 0.09076 0.0
C521 C 0.80476 0.44942 1.03906 0.0
Tb522 Tb 0.81596 0.49464 0.05512 0.0
O523 O 0.79113 0.48307 0.9498 0.0
O524 O 0.80324 0.50154 0.9795 0.0
O525 O 0.79762 0.45763 0.0877 0.0
C526 C 0.83359 0.49431 0.98714 0.0
O527 O 0.81183 0.46186 1.00806 0.0
C528 C 0.81216 0.49044 0.23324 0.0
C529 C 0.80523 0.53865 0.10325 0.0
O530 O 0.82927 0.4777 1.02465 0.0
O531 O 0.82787 0.51118 0.98567 0.0
O532 O 0.82064 0.49225 0.19949 0.0
O533 O 0.80666 0.49073 0.16565 0.0
O534 O 0.81301 0.52972 0.06737 0.0
O535 O 0.79746 0.52705 0.12372 0.0
C536 C 0.77654 0.49414 0.16115 0.0
O537 O 0.77936 0.50475 0.08897 0.0
O538 O 0.78357 0.48267 0.19375 0.0
C539 C 0.79898 0.49103 0.91675 0.0
Tb540 Tb 0.44363 0.74795 0.09221 0.0
C541 C 0.43324 0.79101 1.02704 0.0
Tb542 Tb 0.42173 0.7458 0.05503 0.0
O543 O 0.44845 0.74586 0.94813 0.0
O544 O 0.43445 0.74336 0.98153 0.0
O545 O 0.4409 0.78283 0.06817 0.0
C546 C 0.40384 0.74833 0.99519 0.0
O547 O 0.42552 0.77904 1.00884 0.0
C548 C 0.42675 0.7441 0.22958 0.0
C549 C 0.43262 0.70233 0.09612 0.0
O550 O 0.40777 0.76171 0.0533 0.0
O551 O 0.41002 0.73358 0.96981 0.0
O552 O 0.41896 0.73595 0.19637 0.0
O553 O 0.43086 0.75482 0.16673 0.0
O554 O 0.42553 0.71104 0.04838 0.0
O555 O 0.43949 0.71456 0.13238 0.0
C556 C 0.4607 0.74777 0.17231 0.0
O557 O 0.45713 0.73186 0.12399 0.0
O558 O 0.45463 0.76393 0.17608 0.0
C559 C 0.43998 0.74354 0.91406 0.0
Tb560 Tb 0.17182 0.24424 0.81571 0.0
C561 C 0.1824 0.28774 0.86179 0.0
Tb562 Tb 0.1928 0.24119 0.84979 0.0
O563 O 0.1691 0.25482 0.95536 0.0
O564 O 0.1805 0.23382 0.92859 0.0
O565 O 0.17499 0.27931 0.81822 0.0
C566 C 0.21054 0.24258 0.91636 0.0
O567 O 0.18959 0.27526 0.88993 0.0
C568 C 0.18814 0.24064 0.67569 0.0
C569 C 0.18228 0.19799 0.79523 0.0
O570 O 0.20734 0.25442 0.84929 0.0
O571 O 0.20376 0.22994 0.94594 0.0
O572 O 0.19562 0.23111 0.70919 0.0
O573 O 0.18417 0.25183 0.73786 0.0
O574 O 0.18972 0.20605 0.83983 0.0
O575 O 0.17499 0.21059 0.77089 0.0
C576 C 0.15369 0.24263 0.76001 0.0
O577 O 0.15724 0.23205 0.82892 0.0
O578 O 0.1604 0.25399 0.72109 0.0
C579 C 0.17649 0.24524 0.99005 0.0
Tb580 Tb 0.56598 0.49624 0.81079 0.0
C581 C 0.5556 0.45266 0.85979 0.0
Tb582 Tb 0.54502 0.49891 0.84618 0.0
O583 O 0.56905 0.48669 0.9512 0.0
O584 O 0.55736 0.50668 0.92397 0.0
O585 O 0.56293 0.46115 0.81509 0.0
C586 C 0.52734 0.49759 0.91419 0.0
O587 O 0.54839 0.46504 0.88806 0.0
C588 C 0.54951 0.49914 0.67147 0.0
C589 C 0.55532 0.54205 0.78739 0.0
O590 O 0.53055 0.48527 0.84865 0.0
O591 O 0.53408 0.51065 0.94144 0.0
O592 O 0.54199 0.50844 0.70521 0.0
O593 O 0.55361 0.48827 0.73385 0.0
O594 O 0.548 0.53408 0.83401 0.0
O595 O 0.56256 0.5294 0.76211 0.0
C596 C 0.58394 0.49823 0.75079 0.0
O597 O 0.58014 0.5113 0.81061 0.0
O598 O 0.57759 0.4841 0.7237 0.0
C599 C 0.56153 0.49573 0.98583 0.0
Tb600 Tb 0.17211 0.49485 1.03789 0.0
C601 C 0.18307 0.45115 1.00419 0.0
Tb602 Tb 0.19402 0.49703 1.00362 0.0
O603 O 0.1698 0.48329 0.89835 0.0
O604 O 0.18138 0.50346 0.9267 0.0
O605 O 0.17586 0.46017 0.04919 0.0
C606 C 0.21121 0.49665 0.92593 0.0
O607 O 0.19005 0.46313 0.96828 0.0
C608 C 0.19023 0.49335 0.18122 0.0
C609 C 0.18351 0.5404 0.06452 0.0
O610 O 0.20816 0.48273 0.98642 0.0
O611 O 0.20455 0.51094 0.90854 0.0
O612 O 0.19872 0.49556 0.14769 0.0
O613 O 0.18469 0.49327 0.11374 0.0
O614 O 0.19137 0.53199 1.02781 0.0
O615 O 0.17565 0.52862 0.07924 0.0
C616 C 0.15398 0.49768 0.08955 0.0
O617 O 0.15784 0.5085 1.02264 0.0
O618 O 0.16039 0.48542 0.12878 0.0
C619 C 0.17745 0.49201 0.86496 0.0
Tb620 Tb 0.56587 0.24466 1.02809 0.0
C621 C 0.55521 0.28885 0.99416 0.0
Tb622 Tb 0.54393 0.24351 0.99419 0.0
O623 O 0.56826 0.25629 0.88882 0.0
O624 O 0.5565 0.23662 0.91692 0.0
O625 O 0.56238 0.27954 1.03882 0.0
C626 C 0.52681 0.24385 0.91447 0.0
O627 O 0.54815 0.27714 0.95812 0.0
C628 C 0.54769 0.2474 0.17159 0.0
C629 C 0.55421 0.19947 0.05193 0.0
O630 O 0.53033 0.2595 0.96453 0.0
O631 O 0.53296 0.22788 0.90869 0.0
O632 O 0.53917 0.24603 0.13774 0.0
O633 O 0.55329 0.24673 0.10457 0.0
O634 O 0.54626 0.20855 1.02001 0.0
O635 O 0.56231 0.2105 0.06348 0.0
C636 C 0.58392 0.24168 0.08351 0.0
O637 O 0.58035 0.23207 1.0121 0.0
O638 O 0.57728 0.25282 0.12472 0.0
C639 C 0.56052 0.24796 0.85538 0.0
H640 H 0.21854 0.21506 1.04179 0.0
H641 H 0.22456 0.27186 0.87338 0.0
H642 H 0.23473 0.21602 0.10133 0.0
H643 H 0.24065 0.27354 0.93543 0.0
H644 H 0.2717 0.25777 0.99838 0.0
H645 H 0.25565 0.25593 0.93491 0.0
H646 H 0.24484 0.23608 0.19891 0.0
H647 H 0.26092 0.23708 0.26059 0.0
C648 C 0.22333 0.22785 1.01805 0.0
C649 C 0.22032 0.24336 0.953 0.0
C650 C 0.2326 0.22853 0.05259 0.0
C651 C 0.23905 0.24491 1.02358 0.0
C652 C 0.23597 0.26046 0.95841 0.0
C653 C 0.22673 0.25962 0.92324 0.0
C654 C 0.26587 0.25298 1.04251 0.0
C655 C 0.26754 0.24753 0.13425 0.0
C656 C 0.25666 0.25205 1.00643 0.0
C657 C 0.24889 0.24584 0.0616 0.0
C658 C 0.25062 0.24053 0.15373 0.0
C659 C 0.25984 0.24126 0.18942 0.0
H660 H 0.01084 0.98191 0.8444 0.0
H661 H 0.02127 0.01835 0.07689 0.0
H662 H -0.00503 0.98159 0.90983 0.0
H663 H 0.00544 0.0171 0.14575 0.0
H664 H 0.97389 0.02902 0.20302 0.0
H665 H 0.9898 0.03075 0.13704 0.0
H666 H 0.9859 0.96529 1.02412 0.0
H667 H 0.96984 0.96426 0.08607 0.0
C668 C 0.00972 0.9897 0.91014 0.0
C669 C 0.01725 0.00015 0.95574 0.0
C670 C 0.00064 0.98937 0.94819 0.0
C671 C -0.00112 -0.00087 1.03373 0.0
C672 C 0.00646 0.00966 0.07926 0.0
C673 C 0.01555 0.01029 1.04026 0.0
C674 C 0.97646 0.01508 0.16378 0.0
C675 C 0.97065 -0.00344 0.14908 0.0
C676 C 0.98561 0.01596 0.12651 0.0
C677 C 0.98918 -0.00181 0.07482 0.0
C678 C 0.98335 0.97952 0.06164 0.0
C679 C 0.97416 0.97882 0.09766 0.0
H680 H 0.22522 0.97004 0.47234 0.0
H681 H 0.21764 0.02255 0.28669 0.0
H682 H 0.24128 0.96957 0.4107 0.0
H683 H 0.23367 0.02162 0.222 0.0
H684 H 0.26576 0.03015 0.19476 0.0
H685 H 0.24972 0.03075 0.25756 0.0
H686 H 0.25025 0.9595 0.28014 0.0
H687 H 0.26646 0.95912 0.22038 0.0
C688 C 0.22699 0.98138 0.41765 0.0
C689 C 0.22022 -0.00363 0.3843 0.0
C690 C 0.23618 0.98101 0.38182 0.0
C691 C 0.2388 0.99552 0.31114 0.0
C692 C 0.23196 0.01044 0.27733 0.0
C693 C 0.22276 0.01091 0.31385 0.0
C694 C 0.26245 0.01465 0.21361 0.0
C695 C 0.26733 0.99459 0.20304 0.0
C696 C 0.25322 0.01496 0.24885 0.0
C697 C 0.24864 0.99517 0.27364 0.0
C698 C 0.25359 0.97509 0.26304 0.0
C699 C 0.26286 0.97482 0.22846 0.0
H700 H 0.02026 0.22477 0.27164 0.0
H701 H 0.01155 0.26643 0.49559 0.0
H702 H 0.00417 0.22605 0.20953 0.0
H703 H -0.00464 0.26723 0.43539 0.0
H704 H 0.96959 0.28155 0.25137 0.0
H705 H 0.98573 0.28132 0.31354 0.0
H706 H 0.98858 0.21252 0.23877 0.0
H707 H 0.97262 0.21308 0.17443 0.0
C708 C 0.01487 0.23411 0.30779 0.0
C709 C 0.01713 0.24546 0.38844 0.0
C710 C 0.00563 0.23475 0.2726 0.0
C711 C -0.00159 0.24666 0.3176 0.0
C712 C 0.00073 0.25812 0.39822 0.0
C713 C 0.01 0.25755 0.43311 0.0
C714 C 0.97369 0.26641 0.24853 0.0
C715 C 0.96988 0.24737 0.20786 0.0
C716 C 0.98292 0.26622 0.28451 0.0
C717 C 0.98852 0.24692 0.28086 0.0
C718 C 0.98459 0.2278 0.24125 0.0
C719 C 0.9754 0.22805 0.20496 0.0
H720 H 0.72237 0.77781 0.93729 0.0
H721 H 0.71962 0.70874 1.0059 0.0
H722 H 0.73834 0.77827 1.00135 0.0
H723 H 0.73578 0.7089 0.06783 0.0
H724 H 0.76149 0.72352 0.25214 0.0
H725 H 0.74531 0.72259 0.19166 0.0
H726 H 0.75396 0.76511 0.96942 0.0
H727 H 0.77003 0.76652 1.03182 0.0
C728 C 0.72521 0.76269 0.96592 0.0
C729 C 0.71978 0.74323 0.96659 0.0
C730 C 0.7344 0.76289 1.00203 0.0
C731 C 0.73841 0.74358 1.03918 0.0
C732 C 0.7329 0.72413 1.04064 0.0
C733 C 0.72367 0.72398 1.00484 0.0
C734 C 0.75991 0.73265 0.19036 0.0
C735 C 0.76698 0.74518 0.14682 0.0
C736 C 0.75065 0.73201 0.15534 0.0
C737 C 0.7483 0.74383 0.07574 0.0
C738 C 0.75546 0.75614 1.03174 0.0
C739 C 0.76468 0.75685 0.06708 0.0
H740 H 0.76758 0.96356 0.75005 0.0
H741 H 0.76334 0.02808 0.63154 0.0
H742 H 0.75154 0.96445 0.81244 0.0
H743 H 0.74745 0.02968 0.69794 0.0
H744 H 0.71604 0.01713 0.75886 0.0
H745 H 0.73186 0.01589 0.68985 0.0
H746 H 0.74239 0.98065 0.92621 0.0
H747 H 0.72653 0.98093 0.9918 0.0
C748 C 0.76322 0.97803 0.7382 0.0
C749 C 0.76667 0.99574 0.68617 0.0
C750 C 0.75404 0.97866 0.77448 0.0
C751 C 0.74816 -0.00278 0.76095 0.0
C752 C 0.75167 0.01497 0.70873 0.0
C753 C 0.76081 0.01416 0.67121 0.0
C754 C 0.72177 0.00912 0.79556 0.0
C755 C 0.72009 -0.00095 0.88027 0.0
C756 C 0.73086 0.0085 0.75647 0.0
C757 C 0.73846 -0.00193 0.80209 0.0
C758 C 0.73672 0.98836 0.88778 0.0
C759 C 0.72763 0.98867 0.92592 0.0
H760 H 0.97539 0.7166 0.62392 0.0
H761 H 0.96924 0.77591 0.77635 0.0
H762 H 0.99131 0.71546 0.69011 0.0
H763 H 0.98526 0.77538 0.84011 0.0
H764 H 0.01105 0.75586 1.00955 0.0
H765 H -0.00491 0.75628 0.94482 0.0
H766 H 0.00635 0.73319 0.68724 0.0
H767 H 0.02227 0.73203 0.75369 0.0
C768 C 0.97748 0.72948 0.67122 0.0
C769 C 0.9711 0.74632 0.69518 0.0
C770 C 0.98663 0.72893 0.70874 0.0
C771 C 0.98962 0.74535 0.77055 0.0
C772 C 0.98319 0.76225 0.79403 0.0
C773 C 0.97402 0.76267 0.75708 0.0
C774 C 0.01009 0.75084 0.93915 0.0
C775 C 0.01788 0.74388 0.88662 0.0
C776 C 0.00095 0.75123 0.90171 0.0
C777 C -0.00062 0.74482 0.81052 0.0
C778 C 0.00723 0.73791 0.75803 0.0
C779 C 0.01637 0.73738 0.79581 0.0
H780 H 0.21975 0.70964 0.51856 0.0
H781 H 0.2233 0.7766 0.42291 0.0
H782 H 0.23599 0.71005 0.57859 0.0
H783 H 0.23939 0.7773 0.48447 0.0
H784 H 0.27101 0.76351 0.51726 0.0
H785 H 0.25486 0.76188 0.45632 0.0
H786 H 0.2457 0.72639 0.6969 0.0
H787 H 0.26191 0.7276 0.75639 0.0
C788 C 0.22399 0.72448 0.51102 0.0
C789 C 0.2203 0.74306 0.46598 0.0
C790 C 0.23327 0.72477 0.54567 0.0
C791 C 0.23903 0.74368 0.53601 0.0
C792 C 0.23524 0.76233 0.49171 0.0
C793 C 0.22599 0.76199 0.45702 0.0
C794 C 0.26553 0.75534 0.55684 0.0
C795 C 0.26769 0.74573 0.64151 0.0
C796 C 0.25627 0.7545 0.52229 0.0
C797 C 0.24895 0.74408 0.57185 0.0
C798 C 0.25117 0.73431 0.65638 0.0
C799 C 0.26044 0.73512 0.69078 0.0
H800 H 0.97424 0.5262 0.69768 0.0
H801 H 0.96914 0.46403 0.56207 0.0
H802 H 0.99014 0.52771 0.63164 0.0
H803 H 0.98519 0.46484 0.49928 0.0
H804 H 0.01101 0.48275 0.3284 0.0
H805 H -0.00504 0.48212 0.39116 0.0
H806 H 0.00538 0.51216 0.63983 0.0
H807 H 0.02132 0.51369 0.5746 0.0
C808 C 0.97657 0.51277 0.65421 0.0
C809 C 0.97048 0.49502 0.63481 0.0
C810 C 0.98572 0.51352 0.61682 0.0
C811 C 0.98902 0.49637 0.56008 0.0
C812 C 0.98288 0.47855 0.54121 0.0
C813 C 0.97369 0.47797 0.57768 0.0
C814 C 0.00983 0.48925 0.39637 0.0
C815 C 0.01737 0.49832 0.44661 0.0
C816 C 0.00065 0.48876 0.43278 0.0
C817 C -0.00118 0.49705 0.5209 0.0
C818 C 0.00644 0.50599 0.57121 0.0
C819 C 0.0156 0.50674 0.53419 0.0
H820 H 0.26621 0.53013 0.69192 0.0
H821 H 0.26719 0.45925 0.72313 0.0
H822 H 0.25019 0.5307 0.75531 0.0
H823 H 0.251 0.45957 0.78343 0.0
H824 H 0.22593 0.47031 0.97507 0.0
H825 H 0.24198 0.46989 0.91297 0.0
H826 H 0.23416 0.52125 0.72188 0.0
H827 H 0.21816 0.52216 0.78703 0.0
C828 C 0.26296 0.51464 0.7121 0.0
C829 C 0.26792 0.49465 0.70293 0.0
C830 C 0.25374 0.51493 0.7477 0.0
C831 C 0.24924 0.49518 0.77426 0.0
C832 C 0.25427 0.47515 0.76501 0.0
C833 C 0.26353 0.47491 0.73009 0.0
C834 C 0.22765 0.48151 0.91976 0.0
C835 C 0.22083 0.4963 0.88589 0.0
C836 C 0.23684 0.48117 0.88365 0.0
C837 C 0.2394 0.4955 0.81214 0.0
C838 C 0.2325 0.51021 0.77784 0.0
C839 C 0.22332 0.51067 0.81463 0.0
H840 H 0.76334 0.21467 0.7098 0.0
H841 H 0.76815 0.27653 0.57043 0.0
H842 H 0.74717 0.21328 0.64802 0.0
H843 H 0.7519 0.27534 0.50996 0.0
H844 H 0.71867 0.27563 0.51723 0.0
H845 H 0.73482 0.27671 0.57988 0.0
H846 H 0.73958 0.21 0.48614 0.0
H847 H 0.7235 0.20907 0.42196 0.0
C848 C 0.76092 0.22797 0.66604 0.0
C849 C 0.76697 0.24571 0.64479 0.0
C850 C 0.75169 0.22713 0.63052 0.0
C851 C 0.74828 0.24422 0.57444 0.0
C852 C 0.75433 0.26203 0.55361 0.0
C853 C 0.76362 0.26266 0.5878 0.0
C854 C 0.72317 0.26119 0.51036 0.0
C855 C 0.71986 0.24227 0.46482 0.0
C856 C 0.73241 0.26186 0.54569 0.0
C857 C 0.73845 0.24346 0.53763 0.0
C858 C 0.73506 0.22437 0.49367 0.0
C859 C 0.72588 0.22386 0.45684 0.0
H860 H 0.72335 0.46667 0.44438 0.0
H861 H 0.71851 0.52924 0.3111 0.0
H862 H 0.73935 0.4653 0.38073 0.0
H863 H 0.73467 0.52861 0.25098 0.0
H864 H 0.76066 0.51113 0.08201 0.0
H865 H 0.74456 0.5118 0.1434 0.0
H866 H 0.75462 0.48044 0.39065 0.0
H867 H 0.77062 0.47884 0.32655 0.0
C868 C 0.72576 0.48023 0.40203 0.0
C869 C 0.71971 0.49804 0.38244 0.0
C870 C 0.73497 0.47956 0.36601 0.0
C871 C 0.73838 0.49687 0.31059 0.0
C872 C 0.73228 0.51477 0.29181 0.0
C873 C 0.72303 0.51525 0.32678 0.0
C874 C 0.75939 0.50436 0.1494 0.0
C875 C 0.76685 0.49489 0.1995 0.0
C876 C 0.75017 0.50488 0.18506 0.0
C877 C 0.74822 0.49622 0.27236 0.0
C878 C 0.75577 0.4869 0.32261 0.0
C879 C 0.76496 0.48611 0.28627 0.0
H880 H 0.47129 0.02985 0.63654 0.0
H881 H 0.47136 0.95856 0.62627 0.0
H882 H 0.48738 0.03058 0.5746 0.0
H883 H 0.48759 0.95913 0.56708 0.0
H884 H 0.51252 0.96907 0.37241 0.0
H885 H 0.49644 0.96838 0.43374 0.0
H886 H 0.50353 0.02248 0.61425 0.0
H887 H 0.51957 0.02356 0.55008 0.0
C888 C 0.47478 0.01433 0.62118 0.0
C889 C 0.4701 0.99415 0.63585 0.0
C890 C 0.48403 0.01472 0.58645 0.0
C891 C 0.48882 0.99492 0.56615 0.0
C892 C 0.48408 0.97471 0.58076 0.0
C893 C 0.4748 0.97435 0.61499 0.0
C894 C 0.51063 0.98079 0.42528 0.0
C895 C 0.51726 -0.0036 0.45649 0.0
C896 C 0.50143 0.98032 0.46089 0.0
C897 C 0.49867 0.99535 0.5291 0.0
C898 C 0.50536 0.01087 0.56082 0.0
C899 C 0.51457 0.01143 0.52462 0.0
H900 H 0.47581 0.22824 0.58078 0.0
H901 H 0.46636 0.26323 0.82091 0.0
H902 H 0.49199 0.22745 0.64095 0.0
H903 H 0.48249 0.26198 0.88264 0.0
H904 H 0.51395 0.27726 0.92025 0.0
H905 H 0.49789 0.27777 0.85772 0.0
H906 H 0.50175 0.21114 0.75787 0.0
H907 H 0.51795 0.21097 0.81869 0.0
C908 C 0.4772 0.23564 0.64678 0.0
C909 C 0.46985 0.24586 0.69611 0.0
C910 C 0.48646 0.23508 0.68158 0.0
C911 C 0.48857 0.24468 0.76667 0.0
C912 C 0.48116 0.25473 0.81625 0.0
C913 C 0.47191 0.25535 0.78125 0.0
C914 C 0.51137 0.26275 0.88465 0.0
C915 C 0.51718 0.24407 0.87429 0.0
C916 C 0.50213 0.26297 0.84939 0.0
C917 C 0.49848 0.24445 0.80316 0.0
C918 C 0.50436 0.22579 0.7922 0.0
C919 C 0.51362 0.22562 0.82734 0.0
H920 H 0.46973 0.78115 0.26358 0.0
H921 H 0.47333 0.7139 0.17168 0.0
H922 H 0.48592 0.78092 0.32473 0.0
H923 H 0.48936 0.71337 0.23454 0.0
H924 H 0.52096 0.72727 0.26865 0.0
H925 H 0.50485 0.72864 0.20669 0.0
H926 H 0.49554 0.76503 0.4444 0.0
H927 H 0.51171 0.76409 0.50483 0.0
C928 C 0.47397 0.76629 0.25714 0.0
C929 C 0.47031 0.74758 0.21278 0.0
C930 C 0.48322 0.76609 0.29245 0.0
C931 C 0.48898 0.74715 0.28421 0.0
C932 C 0.48522 0.72838 0.24065 0.0
C933 C 0.476 0.72861 0.20522 0.0
C934 C 0.51546 0.73558 0.30739 0.0
C935 C 0.51756 0.74553 0.3915 0.0
C936 C 0.50622 0.73628 0.27226 0.0
C937 C 0.49887 0.74688 0.32071 0.0
C938 C 0.50103 0.75696 0.40471 0.0
C939 C 0.51028 0.75631 0.43966 0.0
H940 H 0.51934 0.52593 1.03633 0.0
H941 H 0.51338 0.46777 0.87587 0.0
H942 H 0.50318 0.52523 0.09665 0.0
H943 H 0.49732 0.46639 0.93876 0.0
H944 H 0.46626 0.48252 1.00026 0.0
H945 H 0.48228 0.48396 0.93617 0.0
H946 H 0.49315 0.50574 0.19729 0.0
H947 H 0.47709 0.5051 0.25953 0.0
C948 C 0.51457 0.5129 1.01453 0.0
C949 C 0.51759 0.49693 0.95145 0.0
C950 C 0.50532 0.51237 0.04952 0.0
C951 C 0.4989 0.4957 1.02295 0.0
C952 C 0.50198 0.47968 0.9598 0.0
C953 C 0.51121 0.48035 0.92417 0.0
C954 C 0.47209 0.48765 1.04362 0.0
C955 C 0.47045 0.49374 0.13469 0.0
C956 C 0.48129 0.48834 1.0072 0.0
C957 C 0.48907 0.49498 0.06137 0.0
C958 C 0.48736 0.50094 0.15285 0.0
C959 C 0.47816 0.50043 0.18887 0.0
H960 H 0.39344 0.21631 0.40569 0.0
H961 H 0.39076 0.28084 0.52865 0.0
H962 H 0.37642 0.21659 0.36921 0.0
H963 H 0.3738 0.28131 0.49062 0.0
H964 H 0.34677 0.2812 0.30251 0.0
H965 H 0.36372 0.28124 0.3408 0.0
H966 H 0.36067 0.21703 0.46588 0.0
H967 H 0.34366 0.21718 0.42914 0.0
C968 C 0.38922 0.2306 0.42423 0.0
C969 C 0.39338 0.24856 0.46989 0.0
C970 C 0.37949 0.2307 0.4039 0.0
C971 C 0.37381 0.24895 0.42734 0.0
C972 C 0.37803 0.26708 0.47146 0.0
C973 C 0.38771 0.26679 0.49331 0.0
C974 C 0.34972 0.26718 0.33872 0.0
C975 C 0.34393 0.24921 0.36306 0.0
C976 C 0.35939 0.26722 0.36072 0.0
C977 C 0.3635 0.24909 0.40592 0.0
C978 C 0.3577 0.23112 0.43034 0.0
C979 C 0.34797 0.23127 0.40986 0.0
H980 H 0.84572 0.96121 0.49663 0.0
H981 H 0.84399 0.02888 0.40486 0.0
H982 H 0.86283 0.96163 0.47439 0.0
H983 H 0.8612 0.02916 0.37909 0.0
H984 H 0.89346 0.02837 0.43372 0.0
H985 H 0.87625 0.02879 0.45973 0.0
H986 H 0.87439 0.96188 0.35767 0.0
H987 H 0.89148 0.9613 0.33518 0.0
C988 C 0.84901 0.9761 0.47026 0.0
C989 C 0.84354 0.99498 0.45203 0.0
C990 C 0.85882 0.97634 0.45722 0.0
C991 C 0.86342 0.99542 0.42475 0.0
C992 C 0.85791 0.01429 0.40536 0.0
C993 C 0.84805 0.01408 0.41907 0.0
C994 C 0.88934 0.01372 0.41808 0.0
C995 C 0.89379 0.99476 0.38312 0.0
C996 C 0.87949 0.01402 0.43194 0.0
C997 C 0.87391 0.99537 0.4107 0.0
C998 C 0.87844 0.97641 0.37628 0.0
C999 C 0.88826 0.97608 0.36309 0.0
H1000 H 0.39103 0.96006 0.81504 0.0
H1001 H 0.39359 0.0246 0.93826 0.0
H1002 H 0.37397 0.96001 0.84772 0.0
H1003 H 0.37648 0.02469 0.96994 0.0
H1004 H 0.34407 0.02542 0.90252 0.0
H1005 H 0.36118 0.02504 0.87079 0.0
H1006 H 0.36331 0.96003 0.99067 0.0
H1007 H 0.34626 0.96053 1.02339 0.0
C1008 C 0.38793 0.97417 0.84953 0.0
C1009 C 0.39359 0.99232 0.87434 0.0
C1010 C 0.3782 0.97413 0.86828 0.0
C1011 C 0.37392 0.99239 0.91088 0.0
C1012 C 0.3796 0.0105 0.93622 0.0
C1013 C 0.38937 0.01038 0.91874 0.0
C1014 C 0.3482 0.01103 0.92152 0.0
C1015 C 0.34388 0.993 0.96527 0.0
C1016 C 0.35798 0.01088 0.90402 0.0
C1017 C 0.36355 0.99254 0.92866 0.0
C1018 C 0.35916 0.97432 0.97063 0.0
C1019 C 0.34943 0.97463 0.98942 0.0
H1020 H 0.84356 0.21682 0.93451 0.0
H1021 H 0.84609 0.28094 0.8076 0.0
H1022 H 0.86066 0.21697 0.96686 0.0
H1023 H 0.86313 0.28124 0.84105 0.0
H1024 H 0.89078 0.28175 1.0186 0.0
H1025 H 0.87375 0.28195 0.98414 0.0
H1026 H 0.8761 0.21638 0.87027 0.0
H1027 H 0.89318 0.21631 0.90359 0.0
C1028 C 0.84777 0.23099 0.9142 0.0
C1029 C 0.84352 0.24887 0.86868 0.0
C1030 C 0.85755 0.23102 0.93211 0.0
C1031 C 0.86322 0.24909 0.90618 0.0
C1032 C 0.85892 0.26715 0.86219 0.0
C1033 C 0.84918 0.26695 0.84294 0.0
C1034 C 0.88766 0.26746 0.98557 0.0
C1035 C 0.89328 0.24903 0.96357 0.0
C1036 C 0.87793 0.2676 0.96575 0.0
C1037 C 0.8736 0.24914 0.92494 0.0
C1038 C 0.87924 0.23074 0.90254 0.0
C1039 C 0.88901 0.23076 0.92098 0.0
H1040 H 0.59372 0.77456 0.68494 0.0
H1041 H 0.59668 0.71096 0.55441 0.0
H1042 H 0.61076 0.77455 0.72037 0.0
H1043 H 0.61366 0.71079 0.59106 0.0
H1044 H 0.64081 0.71024 0.77593 0.0
H1045 H 0.62387 0.70993 0.73822 0.0
H1046 H 0.62639 0.7755 0.62453 0.0
H1047 H 0.6434 0.77568 0.66101 0.0
C1048 C 0.59801 0.76053 0.6645 0.0
C1049 C 0.59392 0.74276 0.61706 0.0
C1050 C 0.60774 0.76059 0.68418 0.0
C1051 C 0.61351 0.7427 0.65814 0.0
C1052 C 0.60936 0.72474 0.61223 0.0
C1053 C 0.59967 0.72486 0.59118 0.0
C1054 C 0.63775 0.72451 0.74228 0.0
C1055 C 0.64339 0.74297 0.7212 0.0
C1056 C 0.62807 0.72431 0.72062 0.0
C1057 C 0.62383 0.74273 0.67889 0.0
C1058 C 0.62948 0.76117 0.65745 0.0
C1059 C 0.6392 0.76121 0.67772 0.0
H1060 H 0.09849 0.01462 0.84962 0.0
H1061 H 0.09216 0.98348 0.59144 0.0
H1062 H 0.11543 0.01435 0.81221 0.0
H1063 H 0.10914 0.98357 0.55327 0.0
H1064 H 0.13896 0.01385 0.48743 0.0
H1065 H 0.12202 0.014 0.52496 0.0
H1066 H 0.12821 0.98362 0.78494 0.0
H1067 H 0.14519 0.98311 0.74667 0.0
C1068 C 0.10073 0.00783 0.78467 0.0
C1069 C 0.09405 -0.00092 0.72327 0.0
C1070 C 0.11041 0.00756 0.7636 0.0
C1071 C 0.11357 -0.0011 0.68005 0.0
C1072 C 0.10687 0.99043 0.618 0.0
C1073 C 0.09719 0.99034 0.63982 0.0
C1074 C 0.1367 0.00724 0.55264 0.0
C1075 C 0.14335 -0.00153 0.61429 0.0
C1076 C 0.12702 0.00722 0.57378 0.0
C1077 C 0.12383 -0.00122 0.65764 0.0
C1078 C 0.1305 0.99031 0.71996 0.0
C1079 C 0.14019 0.98997 0.69809 0.0
H1080 H 0.64517 0.98367 0.24572 0.0
H1081 H 0.63893 0.01566 0.9891 0.0
H1082 H 0.62821 0.98433 0.2848 0.0
H1083 H 0.62201 0.01599 1.02746 0.0
H1084 H 0.59208 0.98579 0.09238 0.0
H1085 H 0.60904 0.98595 0.0534 0.0
H1086 H 0.61553 0.01481 0.31563 0.0
H1087 H 0.59861 0.01499 0.35395 0.0
C1088 C 0.64017 0.99084 0.19789 0.0
C1089 C 0.64332 -0.00036 0.11458 0.0
C1090 C 0.6305 0.99127 0.22025 0.0
C1091 C 0.62383 0.00015 0.15892 0.0
C1092 C 0.627 0.00889 0.07554 0.0
C1093 C 0.63667 0.0088 0.05391 0.0
C1094 C 0.59715 0.99226 0.14129 0.0
C1095 C 0.59407 0.00041 0.22598 0.0
C1096 C 0.60682 0.99239 0.11902 0.0
C1097 C 0.61357 0.00032 0.18174 0.0
C1098 C 0.61048 0.00844 0.26645 0.0
C1099 C 0.6008 0.00866 0.28805 0.0
H1100 H 0.09896 0.73196 0.9807 0.0
H1101 H 0.09211 0.75616 0.25002 0.0
H1102 H 0.11582 0.73137 1.02075 0.0
H1103 H 0.10903 0.75536 0.29058 0.0
H1104 H 0.13881 0.72502 0.35112 0.0
H1105 H 0.12193 0.72583 0.31128 0.0
H1106 H 0.12867 0.75973 0.06007 0.0
H1107 H 0.14558 0.75914 0.10054 0.0
C1108 C 0.10107 0.73711 0.04856 0.0
C1109 C 0.09425 0.74411 0.11236 0.0
C1110 C 0.11072 0.73689 0.07125 0.0
C1111 C 0.11374 0.74335 0.15867 0.0
C1112 C 0.10689 0.75016 0.22286 0.0
C1113 C 0.09723 0.75069 0.19966 0.0
C1114 C 0.13668 0.7326 0.2873 0.0
C1115 C 0.14348 0.742 0.22877 0.0
C1116 C 0.12702 0.73318 0.26485 0.0
C1117 C 0.12399 0.74289 0.18274 0.0
C1118 C 0.13082 0.75203 0.12358 0.0
C1119 C 0.14047 0.75174 0.14675 0.0
H1120 H 0.34703 0.78117 0.80093 0.0
H1121 H 0.34396 0.7179 0.93397 0.0
H1122 H 0.36402 0.78122 0.83722 0.0
H1123 H 0.36101 0.71778 0.96896 0.0
H1124 H 0.39365 0.71612 0.90918 0.0
H1125 H 0.37663 0.71643 0.87294 0.0
H1126 H 0.3743 0.78227 0.98419 0.0
H1127 H 0.39125 0.78181 1.02176 0.0
C1128 C 0.35 0.76732 0.83816 0.0
C1129 C 0.34421 0.74955 0.86487 0.0
C1130 C 0.3597 0.76737 0.859 0.0
C1131 C 0.36382 0.74946 0.90551 0.0
C1132 C 0.35802 0.7317 0.93232 0.0
C1133 C 0.34827 0.73183 0.91289 0.0
C1134 C 0.38949 0.73067 0.92541 0.0
C1135 C 0.39374 0.74894 0.96818 0.0
C1136 C 0.37976 0.73079 0.90526 0.0
C1137 C 0.37415 0.74935 0.92606 0.0
C1138 C 0.37846 0.7678 0.96706 0.0
C1139 C 0.38815 0.76751 0.98866 0.0
H1140 H 0.89357 0.52807 0.92663 0.0
H1141 H 0.89132 0.46089 0.8299 0.0
H1142 H 0.87646 0.52843 0.95821 0.0
H1143 H 0.8743 0.46139 0.8581 0.0
H1144 H 0.84613 0.46074 1.00677 0.0
H1145 H 0.86315 0.4612 0.97869 0.0
H1146 H 0.86112 0.52864 0.88304 0.0
H1147 H 0.84401 0.52831 0.91451 0.0
C1148 C 0.88941 0.51339 0.91247 0.0
C1149 C 0.89376 0.49441 0.87645 0.0
C1150 C 0.87961 0.51364 0.92958 0.0
C1151 C 0.87397 0.49494 0.91065 0.0
C1152 C 0.87841 0.47597 0.87501 0.0
C1153 C 0.88817 0.47569 0.85851 0.0
C1154 C 0.8493 0.47563 0.97917 0.0
C1155 C 0.84375 0.49446 0.96243 0.0
C1156 C 0.85907 0.47588 0.96274 0.0
C1157 C 0.86354 0.49495 0.92837 0.0
C1158 C 0.85794 0.51378 0.91066 0.0
C1159 C 0.84814 0.51354 0.92771 0.0
H1160 H 0.34692 0.46044 0.51493 0.0
H1161 H 0.34461 0.52609 0.40161 0.0
H1162 H 0.36391 0.46001 0.47888 0.0
H1163 H 0.36166 0.52579 0.36683 0.0
H1164 H 0.39427 0.52436 0.42975 0.0
H1165 H 0.37721 0.5245 0.46393 0.0
H1166 H 0.37427 0.46099 0.33261 0.0
H1167 H 0.39127 0.46103 0.29718 0.0
C1168 C 0.35005 0.47473 0.48198 0.0
C1169 C 0.34448 0.49328 0.46083 0.0
C1170 C 0.35976 0.47446 0.46128 0.0
C1171 C 0.36409 0.4929 0.42048 0.0
C1172 C 0.3585 0.51144 0.39903 0.0
C1173 C 0.34875 0.51155 0.41831 0.0
C1174 C 0.38997 0.51042 0.4086 0.0
C1175 C 0.39406 0.49268 0.36092 0.0
C1176 C 0.38022 0.51056 0.42757 0.0
C1177 C 0.37443 0.49278 0.4006 0.0
C1178 C 0.37858 0.47485 0.35449 0.0
C1179 C 0.38829 0.4749 0.33414 0.0
H1180 H 0.84629 0.7806 0.33513 0.0
H1181 H 0.84441 0.71298 0.42716 0.0
H1182 H 0.86337 0.78019 0.35967 0.0
H1183 H 0.86158 0.71269 0.45518 0.0
H1184 H 0.89392 0.71326 0.40596 0.0
H1185 H 0.87675 0.71291 0.37759 0.0
H1186 H 0.87484 0.78004 0.47707 0.0
H1187 H 0.89191 0.78053 0.50197 0.0
C1188 C 0.84953 0.76572 0.362 0.0
C1189 C 0.84403 0.74685 0.37965 0.0
C1190 C 0.85934 0.76548 0.37639 0.0
C1191 C 0.86389 0.74642 0.40963 0.0
C1192 C 0.85834 0.72757 0.42835 0.0
C1193 C 0.8485 0.72778 0.41331 0.0
C1194 C 0.8898 0.72797 0.42061 0.0
C1195 C 0.89423 0.74696 0.45553 0.0
C1196 C 0.87996 0.72772 0.40536 0.0
C1197 C 0.87437 0.74645 0.42512 0.0
C1198 C 0.87889 0.76544 0.45955 0.0
C1199 C 0.8887 0.76571 0.47416 0.0
H1200 H 0.64531 0.2571 0.09097 0.0
H1201 H 0.63884 0.22747 0.35177 0.0
H1202 H 0.62838 0.25632 0.05101 0.0
H1203 H 0.62194 0.22698 0.31246 0.0
H1204 H 0.59199 0.2561 0.24231 0.0
H1205 H 0.60892 0.25608 0.28248 0.0
H1206 H 0.61561 0.22653 1.02206 0.0
H1207 H 0.59871 0.22626 0.98254 0.0
C1208 C 0.64026 0.25042 0.13958 0.0
C1209 C 0.64336 0.24232 0.22433 0.0
C1210 C 0.6306 0.24991 0.11669 0.0
C1211 C 0.62385 0.24164 0.17879 0.0
C1212 C 0.62697 0.23361 0.26364 0.0
C1213 C 0.63664 0.23379 0.28587 0.0
C1214 C 0.59709 0.24951 0.19401 0.0
C1215 C 0.59406 0.24116 0.10946 0.0
C1216 C 0.60676 0.24945 0.21701 0.0
C1217 C 0.61358 0.24137 0.15521 0.0
C1218 C 0.61052 0.23304 0.07063 0.0
C1219 C 0.60086 0.23277 0.0483 0.0
H1220 H 0.09657 0.46024 0.24532 0.0
H1221 H 0.09364 0.52744 0.15088 0.0
H1222 H 0.11352 0.46124 0.21009 0.0
H1223 H 0.11065 0.52892 0.1191 0.0
H1224 H 0.13988 0.51772 0.99393 0.0
H1225 H 0.12284 0.51614 1.02231 0.0
H1226 H 0.12793 0.47674 0.2638 0.0
H1227 H 0.14499 0.47764 0.23261 0.0
C1228 C 0.09957 0.47521 0.21672 0.0
C1229 C 0.09382 0.49374 0.20055 0.0
C1230 C 0.1093 0.47589 0.19745 0.0
C1231 C 0.11351 0.49523 0.16249 0.0
C1232 C 0.10767 0.51364 0.14484 0.0
C1233 C 0.09791 0.51285 0.16324 0.0
C1234 C 0.13734 0.5088 0.05325 0.0
C1235 C 0.14373 0.49779 0.11111 0.0
C1236 C 0.12757 0.50796 0.06984 0.0
C1237 C 0.12396 0.49626 0.14529 0.0
C1238 C 0.13042 0.48555 0.20404 0.0
C1239 C 0.1402 0.48622 0.18683 0.0
H1240 H 0.64057 0.53106 0.55479 0.0
H1241 H 0.64365 0.4664 0.67583 0.0
H1242 H 0.62367 0.53109 0.59439 0.0
H1243 H 0.62667 0.46628 0.71424 0.0
H1244 H 0.59382 0.46631 0.65953 0.0
H1245 H 0.61081 0.46629 0.62166 0.0
H1246 H 0.61374 0.53098 0.74278 0.0
H1247 H 0.59683 0.53083 0.78185 0.0
C1248 C 0.63762 0.51689 0.59014 0.0
C1249 C 0.64339 0.49875 0.61249 0.0
C1250 C 0.62797 0.51693 0.61289 0.0
C1251 C 0.62387 0.49866 0.65704 0.0
C1252 C 0.62965 0.4805 0.67951 0.0
C1253 C 0.63935 0.48063 0.65814 0.0
C1254 C 0.59811 0.48053 0.67764 0.0
C1255 C 0.59404 0.49858 0.72345 0.0
C1256 C 0.60782 0.48046 0.65659 0.0
C1257 C 0.61358 0.49861 0.67954 0.0
C1258 C 0.60945 0.51682 0.72392 0.0
C1259 C 0.59979 0.51672 0.74636 0.0
H1260 H 0.14511 0.2649 0.6199 0.0
H1261 H 0.13929 0.22119 0.84586 0.0
H1262 H 0.12814 0.26618 0.58388 0.0
H1263 H 0.12236 0.22295 0.81232 0.0
H1264 H 0.09649 0.28176 0.59935 0.0
H1265 H 0.11338 0.28051 0.63759 0.0
H1266 H 0.11063 0.21135 0.70722 0.0
H1267 H 0.09369 0.21298 0.67241 0.0
C1268 C 0.14019 0.25557 0.66177 0.0
C1269 C 0.1435 0.24291 0.73543 0.0
C1270 C 0.13046 0.25645 0.64179 0.0
C1271 C 0.12383 0.24473 0.69534 0.0
C1272 C 0.12722 0.23195 0.76871 0.0
C1273 C 0.13694 0.23101 0.78831 0.0
C1274 C 0.0995 0.26638 0.62378 0.0
C1275 C 0.09379 0.2475 0.63336 0.0
C1276 C 0.1092 0.26558 0.6448 0.0
C1277 C 0.11343 0.24579 0.67503 0.0
C1278 C 0.10763 0.22697 0.68549 0.0
C1279 C 0.09792 0.22786 0.66534 0.0
H1280 H 0.28757 0.26448 0.55466 0.0
H1281 H 0.31493 0.23435 0.50963 0.0
H1282 H 0.29002 0.26287 0.71849 0.0
H1283 H 0.31775 0.23386 0.67436 0.0
H1284 H 0.31698 0.21689 0.97597 0.0
H1285 H 0.31412 0.21756 0.81225 0.0
H1286 H 0.29753 0.27726 0.84441 0.0
H1287 H 0.30003 0.27566 1.00942 0.0
C1288 C 0.29419 0.25767 0.57992 0.0
C1289 C 0.30105 0.24947 0.51885 0.0
C1290 C 0.29565 0.25694 0.67448 0.0
C1291 C 0.30412 0.24831 0.7114 0.0
C1292 C 0.31104 0.24027 0.64971 0.0
C1293 C 0.30949 0.24069 0.55479 0.0
C1294 C 0.31267 0.23008 0.94794 0.0
C1295 C 0.30873 0.24622 1.00568 0.0
C1296 C 0.3111 0.23063 0.85348 0.0
C1297 C 0.30565 0.24758 0.81329 0.0
C1298 C 0.30165 0.26369 0.87181 0.0
C1299 C 0.3031 0.2629 0.96679 0.0
H1300 H 0.94885 0.97328 0.56735 0.0
H1301 H 0.92371 0.01267 0.52345 0.0
H1302 H 0.94588 0.97316 0.73083 0.0
H1303 H 0.92077 0.01297 0.68869 0.0
H1304 H 0.91297 0.98859 0.97649 0.0
H1305 H 0.916 0.98983 0.81307 0.0
H1306 H 0.94612 0.99539 0.86604 0.0
H1307 H 0.943 0.99379 1.03075 0.0
C1308 C 0.94268 0.98204 0.59278 0.0
C1309 C 0.93652 0.99303 0.53212 0.0
C1310 C 0.94102 0.98212 0.68706 0.0
C1311 C 0.93312 0.99317 0.72406 0.0
C1312 C 0.92689 0.00409 0.66309 0.0
C1313 C 0.92857 0.00401 0.56825 0.0
C1314 C 0.92026 0.99005 0.95337 0.0
C1315 C 0.92776 0.99091 1.01685 0.0
C1316 C 0.92199 0.99096 0.85927 0.0
C1317 C 0.93131 0.99279 0.82532 0.0
C1318 C 0.93885 0.9937 0.88912 0.0
C1319 C 0.93709 0.99279 0.98374 0.0
H1320 H 0.29615 0.97677 0.31214 0.0
H1321 H 0.32028 0.01949 0.35546 0.0
H1322 H 0.29321 0.97619 0.47734 0.0
H1323 H 0.3173 0.0193 0.51901 0.0
H1324 H 0.31503 -0.00171 0.8189 0.0
H1325 H 0.31813 -0.00292 0.65406 0.0
H1326 H 0.2879 -0.00135 0.60195 0.0
H1327 H 0.28489 -0.00056 0.76556 0.0
C1328 C 0.30079 0.9861 0.35681 0.0
C1329 C 0.30846 -0.0019 0.32053 0.0
C1330 C 0.2991 0.98586 0.45164 0.0
C1331 C 0.30506 -0.00239 0.51248 0.0
C1332 C 0.31267 0.0097 0.47533 0.0
C1333 C 0.31433 0.00995 0.38103 0.0
C1334 C 0.30908 -0.00158 0.77201 0.0
C1335 C 0.29973 -0.00095 0.80539 0.0
C1336 C 0.31083 -0.00221 0.67735 0.0
C1337 C 0.30326 -0.00227 0.61377 0.0
C1338 C 0.29392 -0.0017 0.648 0.0
C1339 C 0.2922 -0.00105 0.74218 0.0
H1340 H 0.94089 0.26591 0.3137 0.0
H1341 H 0.91691 0.22276 0.35671 0.0
H1342 H 0.94382 0.26652 0.47885 0.0
H1343 H 0.91986 0.22298 0.52035 0.0
H1344 H 0.92211 0.24364 0.82088 0.0
H1345 H 0.91899 0.24485 0.65604 0.0
H1346 H 0.94921 0.24445 0.60364 0.0
H1347 H 0.95224 0.24367 0.76714 0.0
C1348 C 0.93629 0.25645 0.35826 0.0
C1349 C 0.92867 0.24432 0.32181 0.0
C1350 C 0.93796 0.25672 0.45315 0.0
C1351 C 0.93205 0.24488 0.51404 0.0
C1352 C 0.92448 0.23267 0.47673 0.0
C1353 C 0.92283 0.23239 0.38234 0.0
C1354 C 0.92806 0.24379 0.77393 0.0
C1355 C 0.93741 0.24348 0.80728 0.0
C1356 C 0.92629 0.24441 0.67922 0.0
C1357 C 0.93385 0.24478 0.61547 0.0
C1358 C 0.94319 0.24456 0.6497 0.0
C1359 C 0.94493 0.24392 0.74389 0.0
H1360 H 0.69089 0.72576 0.0737 0.0
H1361 H 0.6668 0.76857 0.11675 0.0
H1362 H 0.69385 0.72529 0.23883 0.0
H1363 H 0.66979 0.76848 0.28031 0.0
H1364 H 0.6721 0.7476 0.58061 0.0
H1365 H 0.66898 0.74641 0.41582 0.0
H1366 H 0.69919 0.7477 0.36332 0.0
H1367 H 0.70223 0.74849 0.52689 0.0
C1368 C 0.68627 0.73515 0.11827 0.0
C1369 C 0.67861 0.74715 0.08187 0.0
C1370 C 0.68796 0.73497 0.21311 0.0
C1371 C 0.68203 0.74676 0.27393 0.0
C1372 C 0.67442 0.75884 0.23668 0.0
C1373 C 0.67275 0.75903 0.14236 0.0
C1374 C 0.67804 0.74769 0.53366 0.0
C1375 C 0.6874 0.74823 0.56698 0.0
C1376 C 0.67628 0.74706 0.43899 0.0
C1377 C 0.68384 0.74692 0.37528 0.0
C1378 C 0.69318 0.74742 0.40943 0.0
C1379 C 0.69492 0.74806 0.50362 0.0
H1380 H 0.04743 0.0197 0.06751 0.0
H1381 H 0.06901 0.97004 0.10768 0.0
H1382 H 0.04469 0.02094 0.23272 0.0
H1383 H 0.06628 0.97106 0.27181 0.0
H1384 H 0.06525 0.99247 0.57262 0.0
H1385 H 0.06837 0.99312 0.40766 0.0
H1386 H 0.03827 -0.00035 0.35632 0.0
H1387 H 0.03526 -0.00067 0.5197 0.0
C1388 C 0.05151 0.00889 0.11142 0.0
C1389 C 0.05839 0.9947 0.07417 0.0
C1390 C 0.04997 0.00959 0.20636 0.0
C1391 C 0.0553 -0.00385 0.26649 0.0
C1392 C 0.06215 0.98194 0.22854 0.0
C1393 C 0.06366 0.98122 0.134 0.0
C1394 C 0.05934 0.99408 0.52593 0.0
C1395 C 0.05003 -0.00419 0.55949 0.0
C1396 C 0.0611 0.99437 0.43119 0.0
C1397 C 0.05357 -0.00352 0.36782 0.0
C1398 C 0.04427 -0.00164 0.40223 0.0
C1399 C 0.04254 -0.00199 0.49635 0.0
H1400 H 0.68996 0.0191 0.76913 0.0
H1401 H 0.66826 0.9697 0.72905 0.0
H1402 H 0.6927 0.02029 0.60395 0.0
H1403 H 0.671 0.97066 0.56491 0.0
H1404 H 0.67208 0.99203 0.26406 0.0
H1405 H 0.66896 0.99271 0.42902 0.0
H1406 H 0.69908 -0.00102 0.48028 0.0
H1407 H 0.70208 -0.00136 0.31689 0.0
C1408 C 0.68585 0.00833 0.72525 0.0
C1409 C 0.67893 0.99423 0.76252 0.0
C1410 C 0.6874 0.009 0.63032 0.0
C1411 C 0.68204 0.99562 0.57019 0.0
C1412 C 0.67516 0.9815 0.60816 0.0
C1413 C 0.67364 0.98081 0.70271 0.0
C1414 C 0.67799 0.9936 0.31073 0.0
C1415 C 0.68731 0.99525 0.27713 0.0
C1416 C 0.67624 0.9939 0.40547 0.0
C1417 C 0.68377 -0.00407 0.46884 0.0
C1418 C 0.69307 -0.00225 0.4344 0.0
C1419 C 0.6948 -0.00261 0.34026 0.0
H1420 H 0.06471 0.76063 0.26612 0.0
H1421 H 0.03815 0.72668 0.30992 0.0
H1422 H 0.06749 0.76119 0.43085 0.0
H1423 H 0.04052 0.72844 0.47372 0.0
H1424 H 0.05071 0.71652 0.76438 0.0
H1425 H 0.0483 0.71489 0.59932 0.0
H1426 H 0.0635 0.77664 0.56922 0.0
H1427 H 0.06631 0.77737 0.73299 0.0
C1428 C 0.05944 0.75342 0.31096 0.0
C1429 C 0.05125 0.74352 0.27464 0.0
C1430 C 0.06096 0.7539 0.40592 0.0
C1431 C 0.05424 0.74485 0.46728 0.0
C1432 C 0.046 0.73516 0.43 0.0
C1433 C 0.04459 0.73434 0.33542 0.0
C1434 C 0.0535 0.72972 0.72219 0.0
C1435 C 0.05873 0.74701 0.76167 0.0
C1436 C 0.05208 0.72892 0.62718 0.0
C1437 C 0.05572 0.74561 0.56921 0.0
C1438 C 0.06077 0.76314 0.60999 0.0
C1439 C 0.0623 0.76372 0.7045 0.0
H1440 H 0.28771 0.76354 0.05871 0.0
H1441 H 0.31528 0.73444 1.01363 0.0
H1442 H 0.29017 0.76198 0.22252 0.0
H1443 H 0.3181 0.73402 0.17838 0.0
H1444 H 0.31737 0.71687 0.47979 0.0
H1445 H 0.31453 0.71749 0.31606 0.0
H1446 H 0.29761 0.77669 0.34829 0.0
H1447 H 0.3001 0.77513 0.51332 0.0
C1448 C 0.29438 0.75697 0.08396 0.0
C1449 C 0.3013 0.74903 1.02292 0.0
C1450 C 0.29584 0.75627 0.1785 0.0
C1451 C 0.30437 0.74796 0.21536 0.0
C1452 C 0.31135 0.74019 0.15371 0.0
C1453 C 0.3098 0.74056 0.05881 0.0
C1454 C 0.31299 0.72994 0.45177 0.0
C1455 C 0.30896 0.74595 0.50949 0.0
C1456 C 0.31143 0.73046 0.35732 0.0
C1457 C 0.30589 0.74725 0.3172 0.0
C1458 C 0.3018 0.76324 0.3757 0.0
C1459 C 0.30325 0.76247 0.47065 0.0
H1460 H 0.94284 0.49341 0.51971 0.0
H1461 H 0.91281 0.48846 0.46556 0.0
H1462 H 0.94599 0.49448 0.35502 0.0
H1463 H 0.91586 0.48921 0.30208 0.0
H1464 H 0.92367 0.5114 1.01183 0.0
H1465 H 0.9207 0.51201 0.17695 0.0
H1466 H 0.9457 0.47192 0.2205 0.0
H1467 H 0.9487 0.47173 0.05691 0.0
C1468 C 0.93693 0.49235 0.47275 0.0
C1469 C 0.9276 0.49068 0.50591 0.0
C1470 C 0.9387 0.49295 0.3781 0.0
C1471 C 0.93117 0.49196 0.31429 0.0
C1472 C 0.92185 0.49038 0.34827 0.0
C1473 C 0.9201 0.48976 0.44242 0.0
C1474 C 0.9285 0.50274 0.05689 0.0
C1475 C 0.93642 0.49158 1.02109 0.0
C1476 C 0.9268 0.50299 0.15168 0.0
C1477 C 0.93299 0.49209 0.21303 0.0
C1478 C 0.94087 0.48086 0.1764 0.0
C1479 C 0.94254 0.4806 0.0821 0.0
H1480 H 0.32102 0.51912 0.85478 0.0
H1481 H 0.29677 0.47678 0.81133 0.0
H1482 H 0.31803 0.51901 1.0183 0.0
H1483 H 0.29382 0.47626 0.97651 0.0
H1484 H 0.28555 0.49948 0.2649 0.0
H1485 H 0.28856 0.49863 0.10132 0.0
H1486 H 0.31878 0.49694 0.15356 0.0
H1487 H 0.31568 0.49821 0.31838 0.0
C1488 C 0.31504 0.50967 0.88031 0.0
C1489 C 0.30914 0.49792 0.81974 0.0
C1490 C 0.31337 0.50946 0.97462 0.0
C1491 C 0.30572 0.4975 1.01178 0.0
C1492 C 0.29974 0.48584 0.95086 0.0
C1493 C 0.30143 0.48605 0.85602 0.0
C1494 C 0.29285 0.49895 0.24157 0.0
C1495 C 0.30038 0.49904 0.30485 0.0
C1496 C 0.29458 0.49827 0.14737 0.0
C1497 C 0.30392 0.49765 0.11314 0.0
C1498 C 0.31148 0.49769 0.17679 0.0
C1499 C 0.30973 0.49836 0.27147 0.0
H1500 H 0.91345 0.75319 0.86361 0.0
H1501 H 0.94346 0.74735 0.80951 0.0
H1502 H 0.91649 0.75224 1.02709 0.0
H1503 H 0.94659 0.74612 0.97419 0.0
H1504 H 0.94941 0.76876 0.27231 0.0
H1505 H 0.94641 0.76868 0.10877 0.0
H1506 H 0.92121 0.72924 0.15219 0.0
H1507 H 0.92418 0.72973 0.31736 0.0
C1508 C 0.92073 0.75166 0.88675 0.0
C1509 C 0.92823 0.75056 0.82325 0.0
C1510 C 0.92247 0.75093 0.98091 0.0
C1511 C 0.93179 0.74905 1.0149 0.0
C1512 C 0.93932 0.74788 0.95109 0.0
C1513 C 0.93755 0.7486 0.85644 0.0
C1514 C 0.94321 0.76005 0.24713 0.0
C1515 C 0.93704 0.74921 0.30813 0.0
C1516 C 0.94154 0.75985 0.15284 0.0
C1517 C 0.9336 0.74883 0.11618 0.0
C1518 C 0.92736 0.73809 0.1775 0.0
C1519 C 0.92906 0.73827 0.27231 0.0
H1520 H 0.69149 0.22694 0.56748 0.0
H1521 H 0.66759 0.27036 0.61005 0.0
H1522 H 0.69442 0.22644 0.73275 0.0
H1523 H 0.67053 0.27012 0.77377 0.0
H1524 H 0.67253 0.24774 0.07321 0.0
H1525 H 0.66954 0.24715 0.90823 0.0
H1526 H 0.69978 0.24933 0.8579 0.0
H1527 H 0.70269 0.24968 1.02185 0.0
C1528 C 0.68689 0.23643 0.61199 0.0
C1529 C 0.67929 0.24862 0.57542 0.0
C1530 C 0.68858 0.23623 0.70684 0.0
C1531 C 0.68267 0.24814 0.76749 0.0
C1532 C 0.67513 0.26041 0.73013 0.0
C1533 C 0.67349 0.26069 0.63576 0.0
C1534 C 0.67851 0.24821 1.02679 0.0
C1535 C 0.68783 0.24889 0.06088 0.0
C1536 C 0.67682 0.2479 0.932 0.0
C1537 C 0.68442 0.24814 0.86888 0.0
C1538 C 0.69373 0.24879 0.90366 0.0
C1539 C 0.6954 0.24918 0.99804 0.0
H1540 H 0.03964 0.52086 1.02902 0.0
H1541 H 0.06478 0.48155 0.07438 0.0
H1542 H 0.04268 0.52082 0.86557 0.0
H1543 H 0.06783 0.48131 0.90911 0.0
H1544 H 0.07544 0.50604 0.61915 0.0
H1545 H 0.07251 0.50525 0.78321 0.0
H1546 H 0.04248 0.49713 0.7323 0.0
H1547 H 0.04549 0.49792 0.5676 0.0
C1548 C 0.04583 0.51211 1.00398 0.0
C1549 C 0.05195 0.50113 0.06503 0.0
C1550 C 0.04753 0.51196 0.90975 0.0
C1551 C 0.05546 0.50094 0.87318 0.0
C1552 C 0.06168 0.49011 0.93448 0.0
C1553 C 0.05992 0.49015 1.02928 0.0
C1554 C 0.06819 0.50417 0.64289 0.0
C1555 C 0.06067 0.50238 0.5799 0.0
C1556 C 0.06652 0.50352 0.73729 0.0
C1557 C 0.05725 0.50112 0.77189 0.0
C1558 C 0.04971 0.49933 0.70864 0.0
C1559 C 0.0514 0.49986 0.61393 0.0
H1560 H 0.6916 0.51215 0.25792 0.0
H1561 H 0.66408 0.48284 0.21266 0.0
H1562 H 0.69451 0.51224 0.09357 0.0
H1563 H 0.6666 0.4842 0.04892 0.0
H1564 H 0.67657 0.4707 0.75856 0.0
H1565 H 0.67397 0.46947 0.92349 0.0
H1566 H 0.6912 0.52822 0.95511 0.0
H1567 H 0.69419 0.52844 0.79167 0.0
C1568 C 0.68614 0.50591 0.21281 0.0
C1569 C 0.67764 0.49742 0.24867 0.0
C1570 C 0.68774 0.50612 0.118 0.0
C1571 C 0.6808 0.49823 0.05621 0.0
C1572 C 0.67225 0.48998 0.09298 0.0
C1573 C 0.67075 0.4894 0.1875 0.0
C1574 C 0.67978 0.48331 0.80112 0.0
C1575 C 0.68563 0.49957 0.76223 0.0
C1576 C 0.67825 0.48275 0.89603 0.0
C1577 C 0.6824 0.49871 0.95438 0.0
C1578 C 0.68806 0.51526 0.9141 0.0
C1579 C 0.68971 0.51554 0.81977 0.0
H1580 H 0.0646 0.26142 0.75863 0.0
H1581 H 0.0396 0.22159 0.80345 0.0
H1582 H 0.06763 0.26167 0.92389 0.0
H1583 H 0.04263 0.22156 0.96688 0.0
H1584 H 0.04535 0.24379 0.26548 0.0
H1585 H 0.04232 0.24476 0.10075 0.0
H1586 H 0.07242 0.23812 0.04952 0.0
H1587 H 0.07537 0.23728 0.21347 0.0
C1588 C 0.05978 0.25269 0.80362 0.0
C1589 C 0.05184 0.24158 0.76771 0.0
C1590 C 0.06152 0.25273 0.89843 0.0
C1591 C 0.05534 0.24174 0.95961 0.0
C1592 C 0.04745 0.23056 0.92286 0.0
C1593 C 0.04576 0.23044 0.82862 0.0
C1594 C 0.05128 0.24229 0.21901 0.0
C1595 C 0.06057 0.24019 0.25289 0.0
C1596 C 0.04957 0.24289 0.12429 0.0
C1597 C 0.05713 0.24153 0.06094 0.0
C1598 C 0.06642 0.23952 0.09546 0.0
C1599 C 0.0681 0.23884 0.18982 0.0
H1600 H 0.81455 0.23417 1.01959 0.0
H1601 H 0.78664 0.26139 0.06582 0.0
H1602 H 0.81743 0.23398 0.1843 0.0
H1603 H 0.7892 0.26009 0.22954 0.0
H1604 H 0.7991 0.27399 0.51984 0.0
H1605 H 0.79657 0.27542 0.35479 0.0
H1606 H 0.81406 0.21716 0.32224 0.0
H1607 H 0.81693 0.21665 0.48594 0.0
C1608 C 0.809 0.23991 0.06502 0.0
C1609 C 0.80038 0.24778 1.02949 0.0
C1610 C 0.8106 0.23968 0.15987 0.0
C1611 C 0.80356 0.24701 0.22179 0.0
C1612 C 0.79492 0.25473 0.18527 0.0
C1613 C 0.79339 0.25527 0.09081 0.0
C1614 C 0.80237 0.26151 0.47711 0.0
C1615 C 0.80824 0.24528 0.51587 0.0
C1616 C 0.8009 0.2622 0.38216 0.0
C1617 C 0.80514 0.24644 0.32358 0.0
C1618 C 0.81085 0.22995 0.36359 0.0
C1619 C 0.81242 0.2295 0.45803 0.0
H1620 H 0.41707 0.01845 0.48313 0.0
H1621 H 0.44142 0.97645 0.52679 0.0
H1622 H 0.42007 0.01837 0.31961 0.0
H1623 H 0.44439 0.97597 0.36163 0.0
H1624 H 0.45258 -0.00072 0.07311 0.0
H1625 H 0.44958 -0.00145 0.23679 0.0
H1626 H 0.41937 -0.00398 0.18483 0.0
H1627 H 0.42245 -0.00283 1.02 0.0
C1628 C 0.42307 0.00909 0.45764 0.0
C1629 C 0.429 -0.00259 0.51821 0.0
C1630 C 0.42475 0.0089 0.36337 0.0
C1631 C 0.43243 -0.00297 0.32632 0.0
C1632 C 0.43844 0.98546 0.38725 0.0
C1633 C 0.43674 0.98565 0.48204 0.0
C1634 C 0.44528 -0.0014 0.09655 0.0
C1635 C 0.43774 -0.0016 1.03339 0.0
C1636 C 0.44356 -0.00201 0.19077 0.0
C1637 C 0.43423 -0.00284 0.22504 0.0
C1638 C 0.42666 -0.00307 0.16151 0.0
C1639 C 0.4284 -0.00247 0.06685 0.0
H1640 H 0.82438 0.98894 0.8582 0.0
H1641 H 0.79432 0.99352 0.80403 0.0
H1642 H 0.82134 0.99001 1.02164 0.0
H1643 H 0.7912 0.99495 0.96875 0.0
H1644 H 0.78856 0.97262 0.26725 0.0
H1645 H 0.79154 0.97262 0.10376 0.0
H1646 H 0.81648 0.013 0.14613 0.0
H1647 H 0.81353 0.01259 0.31135 0.0
C1648 C 0.81708 0.99023 0.88134 0.0
C1649 C 0.80958 0.99097 0.81789 0.0
C1650 C 0.81534 0.99104 0.97546 0.0
C1651 C 0.80602 0.99264 1.00942 0.0
C1652 C 0.79848 0.99342 0.94565 0.0
C1653 C 0.80024 0.99262 0.85102 0.0
C1654 C 0.79469 0.98153 0.24185 0.0
C1655 C 0.8008 0.99265 0.30255 0.0
C1656 C 0.79636 0.98168 0.14759 0.0
C1657 C 0.80421 0.99293 0.11066 0.0
C1658 C 0.81039 0.00397 0.17168 0.0
C1659 C 0.80871 0.00383 0.2665 0.0
H1660 H 0.43742 0.27444 0.82292 0.0
H1661 H 0.42017 0.21611 0.85625 0.0
H1662 H 0.43992 0.27593 0.98798 0.0
H1663 H 0.42302 0.21668 1.01995 0.0
H1664 H 0.42231 0.23341 0.32264 0.0
H1665 H 0.41947 0.23311 0.1579 0.0
H1666 H 0.44738 0.26117 0.1136 0.0
H1667 H 0.44987 0.26259 0.27737 0.0
C1668 C 0.43427 0.26175 0.86553 0.0
C1669 C 0.42857 0.24523 0.82661 0.0
C1670 C 0.43573 0.26248 0.96051 0.0
C1671 C 0.43165 0.24646 1.01896 0.0
C1672 C 0.42611 0.22967 0.97875 0.0
C1673 C 0.42454 0.22918 0.8843 0.0
C1674 C 0.42779 0.23957 0.27742 0.0
C1675 C 0.4363 0.24803 0.31327 0.0
C1676 C 0.42622 0.23926 0.18252 0.0
C1677 C 0.43319 0.2471 0.12082 0.0
C1678 C 0.44172 0.2554 0.15765 0.0
C1679 C 0.4432 0.25603 0.25217 0.0
H1680 H 0.17235 0.74606 0.0829 0.0
H1681 H 0.20249 0.74703 1.03023 0.0
H1682 H 0.16928 0.7453 0.91803 0.0
H1683 H 0.19951 0.74657 0.86658 0.0
H1684 H 0.19118 0.72477 0.57668 0.0
H1685 H 0.19409 0.72406 0.74184 0.0
H1686 H 0.17028 0.768 0.78335 0.0
H1687 H 0.16736 0.76841 0.61958 0.0
C1688 C 0.17831 0.74625 1.03623 0.0
C1689 C 0.18765 0.74671 0.06987 0.0
C1690 C 0.17657 0.74585 0.94152 0.0
C1691 C 0.18415 0.74583 0.87812 0.0
C1692 C 0.19348 0.74621 0.91252 0.0
C1693 C 0.19519 0.74666 1.00675 0.0
C1694 C 0.18661 0.7343 0.62124 0.0
C1695 C 0.17904 0.74661 0.58482 0.0
C1696 C 0.18827 0.73396 0.71606 0.0
C1697 C 0.18239 0.74589 0.77683 0.0
C1698 C 0.17487 0.75828 0.73962 0.0
C1699 C 0.17324 0.75865 0.64525 0.0
H1700 H 0.56978 0.97087 0.61178 0.0
H1701 H 0.54661 0.01646 0.57021 0.0
H1702 H 0.56698 0.97161 0.77583 0.0
H1703 H 0.54382 0.01744 0.7354 0.0
H1704 H 0.53518 0.99457 1.02301 0.0
H1705 H 0.53813 0.99485 0.85944 0.0
H1706 H 0.56838 0.99474 0.9102 0.0
H1707 H 0.56534 0.99418 0.07521 0.0
C1708 C 0.56407 0.98109 0.63779 0.0
C1709 C 0.55839 0.99357 0.57772 0.0
C1710 C 0.56252 0.98166 0.73223 0.0
C1711 C 0.55521 0.99467 0.76966 0.0
C1712 C 0.54947 0.00704 0.70929 0.0
C1713 C 0.55105 0.00652 0.61447 0.0
C1714 C 0.54248 0.99462 0.99944 0.0
C1715 C 0.55004 0.99425 0.06235 0.0
C1716 C 0.54417 0.99496 0.90529 0.0
C1717 C 0.55349 0.99489 0.87082 0.0
C1718 C 0.56109 0.99455 0.93394 0.0
C1719 C 0.55938 0.99429 1.02865 0.0
H1720 H 0.20227 0.99495 0.81806 0.0
H1721 H 0.17214 0.99223 0.76536 0.0
H1722 H 0.19928 0.99531 0.98155 0.0
H1723 H 0.16906 0.9929 0.93032 0.0
H1724 H 0.16785 0.96944 0.22927 0.0
H1725 H 0.17065 0.97027 0.06527 0.0
H1726 H 0.19335 0.01735 0.10557 0.0
H1727 H 0.19057 0.01625 0.27078 0.0
C1728 C 0.19496 0.99452 0.8415 0.0
C1729 C 0.18743 0.99346 0.77845 0.0
C1730 C 0.19325 0.9949 0.93565 0.0
C1731 C 0.18393 0.9942 0.97003 0.0
C1732 C 0.17635 0.99321 0.90674 0.0
C1733 C 0.17809 0.99289 0.81203 0.0
C1734 C 0.17346 0.97997 0.20325 0.0
C1735 C 0.17901 0.99274 0.26335 0.0
C1736 C 0.17501 0.98058 0.1088 0.0
C1737 C 0.18219 0.99396 0.07127 0.0
C1738 C 0.18781 0.00666 0.13167 0.0
C1739 C 0.18623 0.00607 0.22654 0.0
H1740 H 0.5375 0.72886 0.81031 0.0
H1741 H 0.5651 0.75781 0.76481 0.0
H1742 H 0.54 0.73028 0.97404 0.0
H1743 H 0.56795 0.7581 0.92953 0.0
H1744 H 0.56731 0.77497 0.23139 0.0
H1745 H 0.56445 0.77448 0.06769 0.0
H1746 H 0.54745 0.71539 0.09932 0.0
H1747 H 0.54995 0.7168 0.26436 0.0
C1748 C 0.54418 0.73538 0.83546 0.0
C1749 C 0.55109 0.7433 0.77431 0.0
C1750 C 0.54567 0.73599 0.92995 0.0
C1751 C 0.55421 0.74421 0.9667 0.0
C1752 C 0.56119 0.752 0.90495 0.0
C1753 C 0.55961 0.75171 0.81008 0.0
C1754 C 0.56291 0.76194 0.20326 0.0
C1755 C 0.55886 0.74592 0.26084 0.0
C1756 C 0.56134 0.7615 0.10881 0.0
C1757 C 0.55577 0.74479 0.06852 0.0
C1758 C 0.55166 0.72878 0.12686 0.0
C1759 C 0.55312 0.72946 0.22182 0.0
H1760 H 0.78904 0.76936 0.56367 0.0
H1761 H 0.81417 0.73002 0.51857 0.0
H1762 H 0.792 0.7691 0.72728 0.0
H1763 H 0.81712 0.72943 0.68378 0.0
H1764 H 0.82484 0.75358 0.97258 0.0
H1765 H 0.82184 0.75281 0.80895 0.0
H1766 H 0.79176 0.74585 0.86097 0.0
H1767 H 0.79485 0.7468 1.0257 0.0
C1768 C 0.79521 0.76056 0.58885 0.0
C1769 C 0.80136 0.74966 0.5279 0.0
C1770 C 0.79687 0.76027 0.68312 0.0
C1771 C 0.80477 0.74912 0.71968 0.0
C1772 C 0.811 0.73835 0.65842 0.0
C1773 C 0.80931 0.7386 0.56364 0.0
C1774 C 0.81757 0.75191 0.94921 0.0
C1775 C 0.81006 0.7505 1.01245 0.0
C1776 C 0.81586 0.75129 0.85502 0.0
C1777 C 0.80656 0.74923 0.82085 0.0
C1778 C 0.79902 0.74776 0.88435 0.0
C1779 C 0.80076 0.74833 0.979 0.0
H1780 H 0.42117 0.52513 0.97733 0.0
H1781 H 0.43797 0.46611 1.01064 0.0
H1782 H 0.42401 0.52442 0.81359 0.0
H1783 H 0.44045 0.4645 0.84558 0.0
H1784 H 0.45048 0.4774 0.55606 0.0
H1785 H 0.44801 0.47897 0.71988 0.0
H1786 H 0.42031 0.50807 0.67576 0.0
H1787 H 0.42313 0.50761 0.511 0.0
C1788 C 0.42544 0.51187 0.94928 0.0
C1789 C 0.42935 0.49568 1.00696 0.0
C1790 C 0.427 0.51131 0.85481 0.0
C1791 C 0.4324 0.49429 0.8146 0.0
C1792 C 0.43637 0.47812 0.87306 0.0
C1793 C 0.43492 0.47892 0.96803 0.0
C1794 C 0.44386 0.48422 0.58132 0.0
C1795 C 0.43701 0.49246 0.52027 0.0
C1796 C 0.44239 0.48493 0.67586 0.0
C1797 C 0.43393 0.49357 0.71274 0.0
C1798 C 0.42701 0.50164 0.65108 0.0
C1799 C 0.42856 0.50125 0.55618 0.0
H1800 H 0.79476 0.49499 0.31963 0.0
H1801 H 0.82469 0.48701 0.37252 0.0
H1802 H 0.79167 0.49578 0.48431 0.0
H1803 H 0.8217 0.48772 0.53622 0.0
H1804 H 0.81409 0.51061 0.827 0.0
H1805 H 0.81707 0.51127 0.66182 0.0
H1806 H 0.79179 0.47218 0.61747 0.0
H1807 H 0.78881 0.47181 0.78109 0.0
C1808 C 0.80065 0.49312 0.36625 0.0
C1809 C 0.80994 0.49064 0.33271 0.0
C1810 C 0.79891 0.49364 0.4609 0.0
C1811 C 0.80644 0.49182 0.52437 0.0
C1812 C 0.81572 0.48949 0.49015 0.0
C1813 C 0.81743 0.48891 0.39593 0.0
C1814 C 0.8092 0.50217 0.78176 0.0
C1815 C 0.80121 0.49122 0.8173 0.0
C1816 C 0.8109 0.50246 0.687 0.0
C1817 C 0.80464 0.49187 0.62553 0.0
C1818 C 0.79669 0.48086 0.66184 0.0
C1819 C 0.79502 0.48051 0.75611 0.0
H1820 H 0.42243 0.74373 0.82828 0.0
H1821 H 0.45255 0.74455 0.77435 0.0
H1822 H 0.41929 0.74478 0.66344 0.0
H1823 H 0.44951 0.74516 0.6109 0.0
H1824 H 0.44112 0.76619 0.32093 0.0
H1825 H 0.44402 0.76698 0.48604 0.0
H1826 H 0.42025 0.72291 0.52787 0.0
H1827 H 0.41731 0.72252 0.36418 0.0
C1828 C 0.42837 0.74403 0.7813 0.0
C1829 C 0.43773 0.744 0.81458 0.0
C1830 C 0.42659 0.74456 0.68659 0.0
C1831 C 0.43414 0.74509 0.62281 0.0
C1832 C 0.44349 0.74514 0.65698 0.0
C1833 C 0.44524 0.74461 0.75116 0.0
C1834 C 0.43655 0.75665 0.36555 0.0
C1835 C 0.42899 0.74432 0.32918 0.0
C1836 C 0.43821 0.75703 0.46043 0.0
C1837 C 0.43234 0.74508 0.52139 0.0
C1838 C 0.42483 0.73267 0.48417 0.0
C1839 C 0.42319 0.7323 0.38977 0.0
H1840 H 0.19187 0.2276 0.08161 0.0
H1841 H 0.16507 0.26044 0.12533 0.0
H1842 H 0.19468 0.22722 0.24608 0.0
H1843 H 0.16744 0.25873 0.28911 0.0
H1844 H 0.17748 0.2709 0.57989 0.0
H1845 H 0.17502 0.27245 0.4149 0.0
H1846 H 0.19093 0.21171 0.38422 0.0
H1847 H 0.19382 0.21117 0.54783 0.0
C1848 C 0.18655 0.2346 0.12639 0.0
C1849 C 0.17829 0.24417 0.0901 0.0
C1850 C 0.18809 0.2342 0.22126 0.0
C1851 C 0.18129 0.24295 0.28262 0.0
C1852 C 0.17298 0.25226 0.2454 0.0
C1853 C 0.17156 0.25305 0.15084 0.0
C1854 C 0.18041 0.25791 0.53752 0.0
C1855 C 0.18588 0.241 0.57667 0.0
C1856 C 0.17897 0.25867 0.44258 0.0
C1857 C 0.1828 0.24224 0.38448 0.0
C1858 C 0.18806 0.22503 0.42504 0.0
C1859 C 0.18965 0.22456 0.51944 0.0
H1860 H 0.54332 0.52796 0.5432 0.0
H1861 H 0.56076 0.46996 0.5759 0.0
H1862 H 0.5463 0.52778 0.37976 0.0
H1863 H 0.56335 0.46874 0.41098 0.0
H1864 H 0.57321 0.48186 0.12169 0.0
H1865 H 0.57073 0.48329 0.28544 0.0
H1866 H 0.54294 0.51196 0.24131 0.0
H1867 H 0.54583 0.51187 0.07697 0.0
C1868 C 0.54776 0.51502 0.515 0.0
C1869 C 0.5518 0.49896 0.57241 0.0
C1870 C 0.5494 0.51475 0.42067 0.0
C1871 C 0.55501 0.49812 0.38026 0.0
C1872 C 0.55911 0.48208 0.43852 0.0
C1873 C 0.5576 0.48263 0.53342 0.0
C1874 C 0.56657 0.48858 0.14695 0.0
C1875 C 0.5597 0.49675 0.08591 0.0
C1876 C 0.5651 0.4892 0.2415 0.0
C1877 C 0.55659 0.49763 0.27842 0.0
C1878 C 0.54967 0.50568 0.21677 0.0
C1879 C 0.55125 0.50545 0.12193 0.0
H1880 H 0.1727 0.49213 0.26725 0.0
H1881 H 0.20282 0.49528 0.32024 0.0
H1882 H 0.16961 0.49263 0.4323 0.0
H1883 H 0.19982 0.49545 0.48368 0.0
H1884 H 0.1911 0.51609 0.77284 0.0
H1885 H 0.19385 0.51733 0.60766 0.0
H1886 H 0.17125 0.46997 0.56724 0.0
H1887 H 0.16849 0.469 0.73134 0.0
C1888 C 0.17864 0.49286 0.31402 0.0
C1889 C 0.18799 0.49362 0.28054 0.0
C1890 C 0.1769 0.49308 0.40874 0.0
C1891 C 0.18447 0.49413 0.47207 0.0
C1892 C 0.1938 0.495 0.43775 0.0
C1893 C 0.19551 0.49473 0.34363 0.0
C1894 C 0.18678 0.50587 0.7286 0.0
C1895 C 0.17961 0.49241 0.7654 0.0
C1896 C 0.18834 0.50654 0.63373 0.0
C1897 C 0.18274 0.49381 0.5733 0.0
C1898 C 0.1756 0.48031 0.61081 0.0
C1899 C 0.17407 0.47961 0.7053 0.0
H1900 H 0.56517 0.24639 0.2583 0.0
H1901 H 0.53502 0.24803 0.3104 0.0
H1902 H 0.5682 0.24589 0.42328 0.0
H1903 H 0.53797 0.24779 0.47406 0.0
H1904 H 0.5462 0.22594 0.76395 0.0
H1905 H 0.54335 0.22508 0.59879 0.0
H1906 H 0.56716 0.26907 0.55735 0.0
H1907 H 0.57001 0.26965 0.7213 0.0
C1908 C 0.55921 0.24677 0.30485 0.0
C1909 C 0.54987 0.24735 0.27107 0.0
C1910 C 0.56092 0.24653 0.39957 0.0
C1911 C 0.55332 0.24676 0.46274 0.0
C1912 C 0.544 0.24725 0.42822 0.0
C1913 C 0.54231 0.24756 0.334 0.0
C1914 C 0.55078 0.23548 0.71945 0.0
C1915 C 0.55832 0.24785 0.75591 0.0
C1916 C 0.54916 0.23504 0.62464 0.0
C1917 C 0.55506 0.24693 0.56396 0.0
C1918 C 0.56256 0.25939 0.60114 0.0
C1919 C 0.56415 0.25987 0.69555 0.0
H1920 H 0.29037 0.42131 0.52696 0.0
H1921 H 0.31944 0.42848 0.43547 0.0
H1922 H 0.29031 0.38315 0.47225 0.0
H1923 H 0.31928 0.39069 0.37991 0.0
H1924 H 0.31919 0.31538 0.38738 0.0
H1925 H 0.31892 0.35334 0.44125 0.0
H1926 H 0.29081 0.36184 0.32792 0.0
H1927 H 0.291 0.32355 0.27491 0.0
C1928 C 0.29674 0.4148 0.49535 0.0
C1929 C 0.30492 0.428 0.48604 0.0
C1930 C 0.29668 0.39298 0.46335 0.0
C1931 C 0.30479 0.38388 0.42177 0.0
C1932 C 0.31295 0.39709 0.41265 0.0
C1933 C 0.31302 0.41884 0.44429 0.0
C1934 C 0.31295 0.3253 0.37345 0.0
C1935 C 0.30512 0.31637 0.32652 0.0
C1936 C 0.31282 0.34714 0.40413 0.0
C1937 C 0.30485 0.36064 0.38884 0.0
C1938 C 0.29702 0.35179 0.34163 0.0
C1939 C 0.29716 0.3299 0.31058 0.0
H1940 H 0.94795 0.82177 0.54567 0.0
H1941 H 0.91935 0.81448 0.4419 0.0
H1942 H 0.94814 0.86017 0.49256 0.0
H1943 H 0.91963 0.8524 0.38834 0.0
H1944 H 0.91916 0.92732 0.40073 0.0
H1945 H 0.91963 0.88942 0.45461 0.0
H1946 H 0.948 0.88204 0.3464 0.0
H1947 H 0.94762 0.9204 0.29298 0.0
C1948 C 0.9417 0.82833 0.51199 0.0
C1949 C 0.93362 0.81503 0.49852 0.0
C1950 C 0.94185 0.85025 0.48085 0.0
C1951 C 0.93389 0.85933 0.43637 0.0
C1952 C 0.92583 0.84602 0.42333 0.0
C1953 C 0.9257 0.82419 0.45386 0.0
C1954 C 0.92551 0.91769 0.38798 0.0
C1955 C 0.93334 0.92695 0.34209 0.0
C1956 C 0.92576 0.89588 0.41871 0.0
C1957 C 0.93384 0.88269 0.40464 0.0
C1958 C 0.9417 0.89187 0.35896 0.0
C1959 C 0.94144 0.91377 0.32764 0.0
H1960 H 0.28992 0.921 1.02923 0.0
H1961 H 0.31894 0.92859 0.93702 0.0
H1962 H 0.28998 0.88276 0.97546 0.0
H1963 H 0.31891 0.89072 0.88239 0.0
H1964 H 0.31913 0.81546 0.8912 0.0
H1965 H 0.31871 0.85347 0.94445 0.0
H1966 H 0.29053 0.86121 0.83184 0.0
H1967 H 0.29086 0.82287 0.77948 0.0
C1968 C 0.29631 0.91457 0.99765 0.0
C1969 C 0.30443 0.92791 0.98788 0.0
C1970 C 0.29631 0.8927 0.9662 0.0
C1971 C 0.30445 0.88369 0.92471 0.0
C1972 C 0.31256 0.89704 0.9151 0.0
C1973 C 0.31255 0.91884 0.94619 0.0
C1974 C 0.31284 0.82522 0.87732 0.0
C1975 C 0.30503 0.81607 0.83077 0.0
C1976 C 0.31262 0.84709 0.90764 0.0
C1977 C 0.30459 0.86039 0.89234 0.0
C1978 C 0.29678 0.85131 0.84556 0.0
C1979 C 0.29701 0.82939 0.81489 0.0
H1980 H 0.91891 0.42652 0.889 0.0
H1981 H 0.94699 0.41896 0.77312 0.0
H1982 H 0.9193 0.38845 0.94093 0.0
H1983 H 0.94728 0.38046 0.82435 0.0
H1984 H 0.9478 0.32056 1.02394 0.0
H1985 H 0.94792 0.35865 0.96825 0.0
H1986 H 0.91888 0.35134 0.87772 0.0
H1987 H 0.91867 0.31363 0.93417 0.0
C1988 C 0.92516 0.41671 0.87391 0.0
C1989 C 0.93292 0.42586 0.82659 0.0
C1990 C 0.92535 0.3948 0.90345 0.0
C1991 C 0.93331 0.38138 0.88664 0.0
C1992 C 0.94108 0.39044 0.83909 0.0
C1993 C 0.94087 0.41244 0.80908 0.0
C1994 C 0.94143 0.3271 0.99243 0.0
C1995 C 0.93321 0.314 0.98416 0.0
C1996 C 0.94153 0.34888 0.95984 0.0
C1997 C 0.9334 0.35805 0.91873 0.0
C1998 C 0.92522 0.3449 0.91016 0.0
C1999 C 0.92512 0.32319 0.94236 0.0
H2000 H 0.69735 0.67039 0.78196 0.0
H2001 H 0.66806 0.67786 0.69793 0.0
H2002 H 0.69726 0.63241 0.72502 0.0
H2003 H 0.66805 0.64026 0.64014 0.0
H2004 H 0.66811 0.56491 0.64002 0.0
H2005 H 0.66852 0.60261 0.69719 0.0
H2006 H 0.69644 0.61158 0.58024 0.0
H2007 H 0.69612 0.57357 0.52393 0.0
C2008 C 0.69089 0.66398 0.75155 0.0
C2009 C 0.6827 0.67723 0.74495 0.0
C2010 C 0.69087 0.64226 0.71825 0.0
C2011 C 0.68264 0.63328 0.67804 0.0
C2012 C 0.67447 0.64653 0.67176 0.0
C2013 C 0.6745 0.66819 0.70467 0.0
C2014 C 0.67434 0.57489 0.62598 0.0
C2015 C 0.68208 0.56617 0.577 0.0
C2016 C 0.67455 0.59658 0.6586 0.0
C2017 C 0.68251 0.61015 0.64328 0.0
C2018 C 0.69025 0.60148 0.5941 0.0
C2019 C 0.69002 0.57975 0.56113 0.0
H2020 H 0.06937 0.06431 0.69178 0.0
H2021 H 0.0401 0.07248 0.77544 0.0
H2022 H 0.06943 0.1016 0.63082 0.0
H2023 H 0.04026 0.11018 0.71567 0.0
H2024 H 0.04137 0.16907 0.51633 0.0
H2025 H 0.04102 0.13094 0.57158 0.0
H2026 H 0.06917 0.13919 0.68418 0.0
H2027 H 0.06963 0.17686 0.62776 0.0
C2028 C 0.06295 0.07408 0.69793 0.0
C2029 C 0.05473 0.06531 0.73902 0.0
C2030 C 0.06301 0.09557 0.66308 0.0
C2031 C 0.05486 0.10894 0.66836 0.0
C2032 C 0.04663 0.10023 0.70948 0.0
C2033 C 0.04657 0.07867 0.74452 0.0
C2034 C 0.04752 0.16267 0.55199 0.0
C2035 C 0.05554 0.17609 0.56716 0.0
C2036 C 0.04728 0.14087 0.58446 0.0
C2037 C 0.05506 0.13199 0.6325 0.0
C2038 C 0.0631 0.14535 0.64645 0.0
C2039 C 0.06335 0.16706 0.61422 0.0
H2040 H 0.69743 0.07192 0.05662 0.0
H2041 H 0.66833 0.06404 0.14594 0.0
H2042 H 0.69739 0.10982 0.11415 0.0
H2043 H 0.66839 0.10153 0.20466 0.0
H2044 H 0.66819 0.17681 0.20328 0.0
H2045 H 0.66854 0.13896 0.14881 0.0
H2046 H 0.6969 0.13107 0.257 0.0
H2047 H 0.69665 0.16935 0.31031 0.0
C2048 C 0.69103 0.07822 0.08836 0.0
C2049 C 0.68287 0.06488 0.09602 0.0
C2050 C 0.69104 0.0999 0.12208 0.0
C2051 C 0.68288 0.10875 0.16404 0.0
C2052 C 0.67475 0.09539 0.17163 0.0
C2053 C 0.67474 0.07379 0.13808 0.0
C2054 C 0.6745 0.16705 0.21616 0.0
C2055 C 0.68239 0.17621 0.26147 0.0
C2056 C 0.67468 0.14524 0.18509 0.0
C2057 C 0.68275 0.13192 0.19846 0.0
C2058 C 0.69062 0.14096 0.2446 0.0
C2059 C 0.69044 0.16285 0.27591 0.0
H2060 H 0.07001 0.67822 0.14259 0.0
H2061 H 0.04142 0.66888 1.04162 0.0
H2062 H 0.0699 0.64107 0.20501 0.0
H2063 H 0.0414 0.63128 0.10293 0.0
H2064 H 0.07042 0.56582 0.21279 0.0
H2065 H 0.07017 0.60327 0.15377 0.0
H2066 H 0.04133 0.61123 0.24956 0.0
H2067 H 0.04149 0.57332 0.30744 0.0
C2068 C 0.06372 0.66819 0.13279 0.0
C2069 C 0.05573 0.67659 0.0866 0.0
C2070 C 0.06367 0.6468 0.16853 0.0
C2071 C 0.05564 0.63316 0.15908 0.0
C2072 C 0.04766 0.64146 0.1124 0.0
C2073 C 0.04771 0.66293 0.0764 0.0
C2074 C 0.06403 0.57552 0.2221 0.0
C2075 C 0.05598 0.56648 0.26514 0.0
C2076 C 0.0639 0.5971 0.18836 0.0
C2077 C 0.05572 0.61028 0.1967 0.0
C2078 C 0.0477 0.60141 0.24098 0.0
C2079 C 0.04783 0.57976 0.27504 0.0
H2080 H 0.79027 0.4192 0.05848 0.0
H2081 H 0.81887 0.42634 0.95456 0.0
H2082 H 0.78996 0.38095 1.00397 0.0
H2083 H 0.81848 0.38857 0.89937 0.0
H2084 H 0.81859 0.31364 0.90279 0.0
H2085 H 0.81837 0.3512 0.96077 0.0
H2086 H 0.78988 0.35991 0.85714 0.0
H2087 H 0.79 0.32192 0.79984 0.0
C2088 C 0.7965 0.41263 1.02457 0.0
C2089 C 0.8046 0.42585 1.01126 0.0
C2090 C 0.79628 0.39079 0.99261 0.0
C2091 C 0.8042 0.38173 0.94735 0.0
C2092 C 0.81231 0.39493 0.93492 0.0
C2093 C 0.81251 0.41668 0.96636 0.0
C2094 C 0.81226 0.3235 0.89193 0.0
C2095 C 0.80432 0.31473 0.84621 0.0
C2096 C 0.81216 0.34511 0.92504 0.0
C2097 C 0.80412 0.35857 0.91346 0.0
C2098 C 0.79615 0.34986 0.86792 0.0
C2099 C 0.79626 0.32817 0.83437 0.0
H2100 H 0.41884 0.92709 0.90099 0.0
H2101 H 0.44752 0.92017 0.79859 0.0
H2102 H 0.41911 0.88894 0.95251 0.0
H2103 H 0.4477 0.8817 0.84911 0.0
H2104 H 0.44772 0.8213 1.04246 0.0
H2105 H 0.44778 0.85965 0.99059 0.0
H2106 H 0.41914 0.85187 0.88929 0.0
H2107 H 0.41898 0.81383 0.94216 0.0
C2108 C 0.42519 0.91743 0.88886 0.0
C2109 C 0.43315 0.92677 0.84535 0.0
C2110 C 0.42533 0.89547 0.91814 0.0
C2111 C 0.43342 0.88224 0.90479 0.0
C2112 C 0.44139 0.89153 0.86129 0.0
C2113 C 0.44125 0.91354 0.83173 0.0
C2114 C 0.44142 0.82778 1.00939 0.0
C2115 C 0.43333 0.81444 0.99694 0.0
C2116 C 0.44149 0.84973 0.97906 0.0
C2117 C 0.43346 0.85884 0.9359 0.0
C2118 C 0.4254 0.84548 0.9234 0.0
C2119 C 0.42533 0.82358 0.95348 0.0
H2120 H 0.79026 0.82156 0.28736 0.0
H2121 H 0.81888 0.8148 0.39106 0.0
H2122 H 0.7899 0.85988 0.3411 0.0
H2123 H 0.81844 0.85267 0.44536 0.0
H2124 H 0.81852 0.92763 0.43484 0.0
H2125 H 0.81827 0.88978 0.38041 0.0
H2126 H 0.7899 0.88148 0.4876 0.0
H2127 H 0.79006 0.9198 0.54151 0.0
C2128 C 0.79648 0.82823 0.32112 0.0
C2129 C 0.80461 0.8151 0.33445 0.0
C2130 C 0.79623 0.8501 0.35266 0.0
C2131 C 0.80414 0.8593 0.39745 0.0
C2132 C 0.81227 0.84618 0.41018 0.0
C2133 C 0.8125 0.82439 0.37921 0.0
C2134 C 0.81221 0.91781 0.44727 0.0
C2135 C 0.80432 0.9268 0.49293 0.0
C2136 C 0.8121 0.89603 0.41624 0.0
C2137 C 0.80408 0.88259 0.42981 0.0
C2138 C 0.79615 0.8915 0.47541 0.0
C2139 C 0.79628 0.91337 0.50701 0.0
H2140 H 0.41811 0.31404 0.44406 0.0
H2141 H 0.44671 0.32191 0.54726 0.0
H2142 H 0.41844 0.35164 0.38612 0.0
H2143 H 0.44695 0.35987 0.49009 0.0
H2144 H 0.44708 0.4184 0.28624 0.0
H2145 H 0.44708 0.38037 0.34297 0.0
H2146 H 0.41851 0.38929 0.44457 0.0
H2147 H 0.41843 0.42693 0.38708 0.0
C2148 C 0.42446 0.32382 0.45507 0.0
C2149 C 0.43238 0.31492 0.50061 0.0
C2150 C 0.42463 0.34545 0.42202 0.0
C2151 C 0.43272 0.35876 0.43346 0.0
C2152 C 0.44065 0.34994 0.47931 0.0
C2153 C 0.44047 0.32826 0.51279 0.0
C2154 C 0.44078 0.41218 0.32006 0.0
C2155 C 0.43275 0.42572 0.33174 0.0
C2156 C 0.44081 0.39046 0.35329 0.0
C2157 C 0.4328 0.38182 0.39835 0.0
C2158 C 0.42476 0.39534 0.40925 0.0
C2159 C 0.42473 0.41699 0.37647 0.0
H2160 H 0.19798 0.57086 0.05145 0.0
H2161 H 0.1691 0.56312 0.14743 0.0
H2162 H 0.19797 0.60906 0.10524 0.0
H2163 H 0.16919 0.60094 0.20253 0.0
H2164 H 0.16882 0.67601 0.20112 0.0
H2165 H 0.16914 0.63821 0.14563 0.0
H2166 H 0.19783 0.63073 0.24611 0.0
H2167 H 0.19761 0.66888 0.30027 0.0
C2168 C 0.19163 0.57725 0.0839 0.0
C2169 C 0.18353 0.56386 0.09462 0.0
C2170 C 0.19165 0.59912 0.11539 0.0
C2171 C 0.18358 0.6081 0.15821 0.0
C2172 C 0.17549 0.5947 0.16869 0.0
C2173 C 0.17546 0.57291 0.13729 0.0
C2174 C 0.17521 0.66636 0.21188 0.0
C2175 C 0.18318 0.67557 0.25558 0.0
C2176 C 0.17537 0.64459 0.18023 0.0
C2177 C 0.1835 0.63137 0.19149 0.0
C2178 C 0.19149 0.64052 0.23532 0.0
C2179 C 0.19133 0.66236 0.26705 0.0
H2180 H 0.53918 0.06449 0.21114 0.0
H2181 H 0.56873 0.07162 0.28409 0.0
H2182 H 0.53906 0.10198 0.15116 0.0
H2183 H 0.56853 0.10965 0.23025 0.0
H2184 H 0.56873 0.16969 0.04941 0.0
H2185 H 0.56854 0.13165 0.10313 0.0
H2186 H 0.53904 0.13915 0.18129 0.0
H2187 H 0.53915 0.17666 0.12142 0.0
C2188 C 0.5456 0.07429 0.216 0.0
C2189 C 0.55396 0.06515 0.2522 0.0
C2190 C 0.54554 0.09589 0.18191 0.0
C2191 C 0.5538 0.10909 0.18512 0.0
C2192 C 0.56209 0.09998 0.22395 0.0
C2193 C 0.5622 0.0782 0.2559 0.0
C2194 C 0.56219 0.16306 0.07736 0.0
C2195 C 0.55395 0.17607 0.08085 0.0
C2196 C 0.56209 0.14128 0.10925 0.0
C2197 C 0.55379 0.13212 0.1478 0.0
C2198 C 0.54553 0.14528 0.15076 0.0
C2199 C 0.54558 0.16689 0.11673 0.0
H2200 H 0.19766 0.07031 0.56074 0.0
H2201 H 0.16816 0.06342 0.63854 0.0
H2202 H 0.1976 0.10825 0.61803 0.0
H2203 H 0.16819 0.10093 0.69699 0.0
H2204 H 0.16847 0.17606 0.70062 0.0
H2205 H 0.16886 0.1385 0.64242 0.0
H2206 H 0.19663 0.12904 0.76199 0.0
H2207 H 0.19635 0.16698 0.81907 0.0
C2208 C 0.19117 0.07684 0.58979 0.0
C2209 C 0.18291 0.06376 0.59457 0.0
C2210 C 0.19116 0.09853 0.62335 0.0
C2211 C 0.18289 0.10764 0.66216 0.0
C2212 C 0.17464 0.09457 0.66645 0.0
C2213 C 0.17465 0.07296 0.63312 0.0
C2214 C 0.17466 0.166 0.71513 0.0
C2215 C 0.18236 0.17458 0.76497 0.0
C2216 C 0.17486 0.14438 0.68187 0.0
C2217 C 0.18277 0.13071 0.69756 0.0
C2218 C 0.19048 0.13921 0.74777 0.0
C2219 C 0.19027 0.1609 0.78122 0.0
H2220 H 0.54093 0.57253 0.80367 0.0
H2221 H 0.56944 0.56435 0.69893 0.0
H2222 H 0.54071 0.61047 0.74601 0.0
H2223 H 0.56914 0.6019 0.64054 0.0
H2224 H 0.56941 0.67715 0.64158 0.0
H2225 H 0.56922 0.63952 0.69905 0.0
H2226 H 0.54056 0.63111 0.59917 0.0
H2227 H 0.54066 0.66915 0.54243 0.0
C2228 C 0.54715 0.5788 0.76875 0.0
C2229 C 0.55522 0.56539 0.75642 0.0
C2230 C 0.54699 0.60047 0.73498 0.0
C2231 C 0.55491 0.60921 0.68868 0.0
C2232 C 0.56297 0.5958 0.67686 0.0
C2233 C 0.56312 0.57419 0.71018 0.0
C2234 C 0.56306 0.66733 0.63136 0.0
C2235 C 0.55505 0.67622 0.58708 0.0
C2236 C 0.56297 0.64567 0.66412 0.0
C2237 C 0.55489 0.63229 0.65366 0.0
C2238 C 0.54687 0.64109 0.60912 0.0
C2239 C 0.54696 0.66281 0.5759 0.0
H2240 H 0.29054 0.17837 0.16752 0.0
H2241 H 0.31957 0.17305 0.26187 0.0
H2242 H 0.29058 0.13924 0.12879 0.0
H2243 H 0.31955 0.13378 0.22386 0.0
H2244 H 0.31895 0.07032 0.04956 0.0
H2245 H 0.31898 0.1097 0.08634 0.0
H2246 H 0.2911 0.10324 0.20687 0.0
H2247 H 0.29098 0.06408 0.16947 0.0
C2248 C 0.29692 0.16886 0.18052 0.0
C2249 C 0.30505 0.17888 0.218 0.0
C2250 C 0.29692 0.14639 0.15857 0.0
C2251 C 0.30507 0.13343 0.17314 0.0
C2252 C 0.3132 0.1434 0.21085 0.0
C2253 C 0.31318 0.16587 0.23331 0.0
C2254 C 0.3128 0.07732 0.08345 0.0
C2255 C 0.30496 0.06402 0.10645 0.0
C2256 C 0.31286 0.09984 0.10512 0.0
C2257 C 0.30505 0.10956 0.14963 0.0
C2258 C 0.29718 0.0963 0.17174 0.0
C2259 C 0.29714 0.0738 0.15061 0.0
H2260 H 0.9182 0.17206 0.04581 0.0
H2261 H 0.9459 0.17768 0.17162 0.0
H2262 H 0.91808 0.13251 0.07923 0.0
H2263 H 0.9457 0.13835 0.20574 0.0
H2264 H 0.94651 0.06368 0.16545 0.0
H2265 H 0.94641 0.10273 0.12593 0.0
H2266 H 0.91718 0.10767 0.21376 0.0
H2267 H 0.9172 0.06845 0.25247 0.0
C2268 C 0.92427 0.1649 0.08035 0.0
C2269 C 0.93206 0.17808 0.10594 0.0
C2270 C 0.92417 0.14226 0.10004 0.0
C2271 C 0.93188 0.1323 0.14514 0.0
C2272 C 0.93969 0.14546 0.16996 0.0
C2273 C 0.93978 0.16807 0.15077 0.0
C2274 C 0.94004 0.07302 0.17636 0.0
C2275 C 0.93187 0.06287 0.2125 0.0
C2276 C 0.94001 0.09546 0.15403 0.0
C2277 C 0.9318 0.10831 0.16691 0.0
C2278 C 0.92359 0.09816 0.20219 0.0
C2279 C 0.92363 0.0757 0.22497 0.0
H2280 H 0.6969 0.9276 0.92586 0.0
H2281 H 0.66815 0.92258 1.02822 0.0
H2282 H 0.69673 0.88839 0.88868 0.0
H2283 H 0.66805 0.8832 0.99156 0.0
H2284 H 0.66818 0.81953 0.81661 0.0
H2285 H 0.66823 0.85889 0.85391 0.0
H2286 H 0.6964 0.85242 0.96775 0.0
H2287 H 0.69643 0.81326 0.92999 0.0
C2288 C 0.69055 0.91814 0.94095 0.0
C2289 C 0.68254 0.92829 0.9802 0.0
C2290 C 0.69048 0.89562 0.9199 0.0
C2291 C 0.68237 0.88269 0.93704 0.0
C2292 C 0.67437 0.89278 0.97662 0.0
C2293 C 0.67446 0.91531 0.99831 0.0
C2294 C 0.6744 0.82651 0.8492 0.0
C2295 C 0.6823 0.8132 0.87013 0.0
C2296 C 0.6744 0.84903 0.8712 0.0
C2297 C 0.68231 0.85876 0.9139 0.0
C2298 C 0.69023 0.84548 0.93408 0.0
C2299 C 0.69022 0.82298 0.91273 0.0
H2300 H 0.04033 0.92867 0.91601 0.0
H2301 H 0.06866 0.92259 0.80444 0.0
H2302 H 0.04043 0.88956 0.95493 0.0
H2303 H 0.06869 0.88332 0.8426 0.0
H2304 H 0.06922 0.82056 1.02025 0.0
H2305 H 0.06904 0.85971 0.98043 0.0
H2306 H 0.04027 0.85311 0.8812 0.0
H2307 H 0.04038 0.81408 0.92182 0.0
C2308 C 0.04656 0.91899 0.89915 0.0
C2309 C 0.05449 0.92884 0.85706 0.0
C2310 C 0.0466 0.89652 0.92119 0.0
C2311 C 0.05457 0.88333 0.90211 0.0
C2312 C 0.06247 0.8931 0.85924 0.0
C2313 C 0.06242 0.91558 0.83669 0.0
C2314 C 0.06283 0.82746 0.99045 0.0
C2315 C 0.0548 0.81413 0.97449 0.0
C2316 C 0.06276 0.84987 0.96691 0.0
C2317 C 0.05465 0.85951 0.92734 0.0
C2318 C 0.0466 0.84625 0.91234 0.0
C2319 C 0.04668 0.82383 0.93542 0.0
H2320 H 0.32013 0.67301 0.76415 0.0
H2321 H 0.29117 0.67814 0.66748 0.0
H2322 H 0.3202 0.63375 0.72563 0.0
H2323 H 0.29131 0.63906 0.62829 0.0
H2324 H 0.29167 0.56401 0.66967 0.0
H2325 H 0.29179 0.60315 0.70724 0.0
H2326 H 0.31972 0.6096 0.58775 0.0
H2327 H 0.31968 0.57021 0.55076 0.0
C2328 C 0.31378 0.66579 0.73494 0.0
C2329 C 0.30564 0.67873 0.7192 0.0
C2330 C 0.31385 0.64334 0.71221 0.0
C2331 C 0.30576 0.63333 0.67384 0.0
C2332 C 0.29762 0.64624 0.65863 0.0
C2333 C 0.29756 0.66868 0.68084 0.0
C2334 C 0.29785 0.57372 0.6511 0.0
C2335 C 0.30567 0.56394 0.60712 0.0
C2336 C 0.29788 0.59621 0.67232 0.0
C2337 C 0.30576 0.60946 0.65048 0.0
C2338 C 0.31358 0.59974 0.60627 0.0
C2339 C 0.31353 0.57722 0.58449 0.0
H2340 H 0.94692 0.67756 0.67207 0.0
H2341 H 0.91821 0.67297 0.56818 0.0
H2342 H 0.94674 0.63814 0.70565 0.0
H2343 H 0.91812 0.63349 0.60053 0.0
H2344 H 0.91788 0.56854 0.76191 0.0
H2345 H 0.91803 0.60808 0.73038 0.0
H2346 H 0.94665 0.60269 0.62589 0.0
H2347 H 0.94659 0.56325 0.65863 0.0
C2348 C 0.94058 0.66818 0.65606 0.0
C2349 C 0.93258 0.67851 0.61733 0.0
C2350 C 0.9405 0.64553 0.67491 0.0
C2351 C 0.93242 0.63266 0.65573 0.0
C2352 C 0.92442 0.64298 0.61718 0.0
C2353 C 0.9245 0.66562 0.59812 0.0
C2354 C 0.92422 0.57575 0.7323 0.0
C2355 C 0.93223 0.56264 0.71293 0.0
C2356 C 0.92428 0.59842 0.71374 0.0
C2357 C 0.93235 0.60855 0.67558 0.0
C2358 C 0.94036 0.59546 0.65635 0.0
C2359 C 0.9403 0.57279 0.67469 0.0
H2360 H 0.668 0.42249 0.50281 0.0
H2361 H 0.69627 0.43007 0.39136 0.0
H2362 H 0.66832 0.38327 0.46409 0.0
H2363 H 0.69652 0.39098 0.35189 0.0
H2364 H 0.69739 0.31552 0.39547 0.0
H2365 H 0.69711 0.35494 0.42884 0.0
H2366 H 0.66829 0.35892 0.32861 0.0
H2367 H 0.6685 0.31938 0.29603 0.0
C2368 C 0.67428 0.41584 0.47007 0.0
C2369 C 0.68211 0.42947 0.45044 0.0
C2370 C 0.67443 0.39338 0.44725 0.0
C2371 C 0.68244 0.384 0.40476 0.0
C2372 C 0.69028 0.39763 0.3854 0.0
C2373 C 0.69011 0.42008 0.40774 0.0
C2374 C 0.691 0.32477 0.37991 0.0
C2375 C 0.68296 0.3142 0.34309 0.0
C2376 C 0.69086 0.34742 0.39878 0.0
C2377 C 0.68267 0.36006 0.38173 0.0
C2378 C 0.67467 0.34958 0.34365 0.0
C2379 C 0.67483 0.32694 0.32429 0.0
H2380 H 0.04049 0.31388 0.41457 0.0
H2381 H 0.06922 0.31972 0.5167 0.0
H2382 H 0.04043 0.35315 0.37812 0.0
H2383 H 0.06908 0.3591 0.48108 0.0
H2384 H 0.06896 0.42275 0.31044 0.0
H2385 H 0.06891 0.38338 0.34581 0.0
H2386 H 0.0405 0.38926 0.45485 0.0
H2387 H 0.04048 0.42856 0.41862 0.0
C2388 C 0.04678 0.32353 0.42977 0.0
C2389 C 0.05486 0.31358 0.46867 0.0
C2390 C 0.04672 0.34609 0.40918 0.0
C2391 C 0.05475 0.35925 0.42652 0.0
C2392 C 0.06281 0.34936 0.46585 0.0
C2393 C 0.06286 0.3268 0.48691 0.0
C2394 C 0.06268 0.41567 0.34152 0.0
C2395 C 0.05472 0.42889 0.36156 0.0
C2396 C 0.06268 0.39311 0.36244 0.0
C2397 C 0.05471 0.3832 0.40348 0.0
C2398 C 0.04672 0.39634 0.42249 0.0
C2399 C 0.04672 0.41892 0.40199 0.0
H2400 H 0.79051 0.06345 0.66688 0.0
H2401 H 0.81966 0.06878 0.5757 0.0
H2402 H 0.7905 0.10259 0.70508 0.0
H2403 H 0.81957 0.10805 0.61298 0.0
H2404 H 0.81882 0.17187 0.78289 0.0
H2405 H 0.81888 0.13248 0.74771 0.0
H2406 H 0.79099 0.13849 0.62695 0.0
H2407 H 0.79084 0.17778 0.66301 0.0
C2408 C 0.79692 0.07293 0.65469 0.0
C2409 C 0.80509 0.06291 0.61805 0.0
C2410 C 0.79688 0.09543 0.67622 0.0
C2411 C 0.80503 0.10843 0.66198 0.0
C2412 C 0.81321 0.09842 0.62568 0.0
C2413 C 0.81324 0.07592 0.60377 0.0
C2414 C 0.81268 0.1648 0.74914 0.0
C2415 C 0.80482 0.17801 0.72591 0.0
C2416 C 0.81275 0.14224 0.72844 0.0
C2417 C 0.80495 0.13237 0.68445 0.0
C2418 C 0.79707 0.14555 0.6618 0.0
C2419 C 0.79701 0.16811 0.68212 0.0
H2420 H 0.41764 0.17191 0.57316 0.0
H2421 H 0.44654 0.17763 0.6708 0.0
H2422 H 0.41766 0.1327 0.61267 0.0
H2423 H 0.44649 0.13861 0.71097 0.0
H2424 H 0.41827 0.06927 0.78794 0.0
H2425 H 0.41815 0.10865 0.7508 0.0
H2426 H 0.44616 0.10262 0.63281 0.0
H2427 H 0.44636 0.0635 0.67055 0.0
C2428 C 0.424 0.16483 0.6028 0.0
C2429 C 0.4321 0.17792 0.61848 0.0
C2430 C 0.42398 0.14241 0.62611 0.0
C2431 C 0.43207 0.13258 0.66503 0.0
C2432 C 0.44018 0.14565 0.68023 0.0
C2433 C 0.44019 0.16805 0.65744 0.0
C2434 C 0.42442 0.07638 0.75456 0.0
C2435 C 0.43232 0.06321 0.73234 0.0
C2436 C 0.42432 0.09889 0.73268 0.0
C2437 C 0.43214 0.10872 0.68879 0.0
C2438 C 0.44007 0.09559 0.66748 0.0
C2439 C 0.44015 0.07311 0.6888 0.0
H2440 H 0.16813 0.92131 0.53023 0.0
H2441 H 0.19672 0.92666 0.42391 0.0
H2442 H 0.16806 0.88192 0.49336 0.0
H2443 H 0.19657 0.88749 0.38649 0.0
H2444 H 0.1966 0.81253 0.42898 0.0
H2445 H 0.19647 0.85168 0.46643 0.0
H2446 H 0.16813 0.85751 0.35563 0.0
H2447 H 0.16819 0.81812 0.3187 0.0
C2448 C 0.17441 0.91411 0.49938 0.0
C2449 C 0.18244 0.92716 0.48025 0.0
C2450 C 0.17433 0.89158 0.47757 0.0
C2451 C 0.1823 0.88161 0.4369 0.0
C2452 C 0.19035 0.89463 0.4186 0.0
C2453 C 0.19041 0.91713 0.43979 0.0
C2454 C 0.19034 0.8221 0.41229 0.0
C2455 C 0.18241 0.81214 0.3707 0.0
C2456 C 0.19028 0.8446 0.43347 0.0
C2457 C 0.18229 0.85769 0.41404 0.0
C2458 C 0.17436 0.84779 0.37229 0.0
C2459 C 0.17443 0.82526 0.35049 0.0
H2460 H 0.54113 0.8134 0.41033 0.0
H2461 H 0.56966 0.81939 0.51723 0.0
H2462 H 0.54126 0.85242 0.36998 0.0
H2463 H 0.56972 0.85858 0.47767 0.0
H2464 H 0.5696 0.92264 0.30701 0.0
H2465 H 0.56969 0.88309 0.3414 0.0
H2466 H 0.54117 0.88818 0.4485 0.0
H2467 H 0.541 0.92742 0.41339 0.0
C2468 C 0.54742 0.82303 0.42568 0.0
C2469 C 0.55537 0.81323 0.46741 0.0
C2470 C 0.54748 0.84544 0.40274 0.0
C2471 C 0.5555 0.85859 0.42064 0.0
C2472 C 0.56347 0.84882 0.46207 0.0
C2473 C 0.5634 0.82639 0.48544 0.0
C2474 C 0.56333 0.91528 0.33732 0.0
C2475 C 0.5553 0.92823 0.35737 0.0
C2476 C 0.56341 0.89267 0.35763 0.0
C2477 C 0.55544 0.88252 0.39776 0.0
C2478 C 0.54739 0.89543 0.41668 0.0
C2479 C 0.54732 0.91799 0.39691 0.0
H2480 H 0.81978 0.67247 0.26984 0.0
H2481 H 0.79108 0.67779 0.16627 0.0
H2482 H 0.81967 0.63299 0.23701 0.0
H2483 H 0.79107 0.63844 0.13216 0.0
H2484 H 0.79086 0.56353 0.17657 0.0
H2485 H 0.79098 0.60291 0.21065 0.0
H2486 H 0.81963 0.60784 0.10645 0.0
H2487 H 0.81961 0.56838 0.07369 0.0
C2488 C 0.81345 0.66528 0.23993 0.0
C2489 C 0.80543 0.67837 0.22088 0.0
C2490 C 0.81342 0.64265 0.2206 0.0
C2491 C 0.80536 0.63257 0.18191 0.0
C2492 C 0.79734 0.64564 0.16302 0.0
C2493 C 0.79738 0.66826 0.1822 0.0
C2494 C 0.79719 0.57297 0.16076 0.0
C2495 C 0.80523 0.56272 0.12234 0.0
C2496 C 0.79724 0.5956 0.17994 0.0
C2497 C 0.80532 0.60852 0.1613 0.0
C2498 C 0.81334 0.5983 0.12274 0.0
C2499 C 0.81329 0.57567 0.10342 0.0
H2500 H 0.41852 0.56874 0.26558 0.0
H2501 H 0.44746 0.56372 0.16834 0.0
H2502 H 0.41846 0.60804 0.22864 0.0
H2503 H 0.44733 0.60295 0.13068 0.0
H2504 H 0.44677 0.67815 0.17543 0.0
H2505 H 0.44682 0.63884 0.2103 0.0
H2506 H 0.41884 0.63238 0.09198 0.0
H2507 H 0.41871 0.67189 0.05772 0.0
C2508 C 0.42488 0.57599 0.23657 0.0
C2509 C 0.43301 0.56306 0.2202 0.0
C2510 C 0.42481 0.59848 0.21471 0.0
C2511 C 0.43288 0.60858 0.17652 0.0
C2512 C 0.44103 0.59569 0.16081 0.0
C2513 C 0.44109 0.57318 0.18216 0.0
C2514 C 0.44062 0.66839 0.15655 0.0
C2515 C 0.43273 0.67822 0.11382 0.0
C2516 C 0.44068 0.64581 0.17617 0.0
C2517 C 0.43284 0.63251 0.15398 0.0
C2518 C 0.42495 0.64226 0.11079 0.0
C2519 C 0.42491 0.66487 0.09061 0.0
H2520 H 0.16823 0.3181 0.83428 0.0
H2521 H 0.19689 0.31167 0.93774 0.0
H2522 H 0.16844 0.35739 0.87168 0.0
H2523 H 0.19702 0.35086 0.9758 0.0
H2524 H 0.19727 0.42615 0.9298 0.0
H2525 H 0.19706 0.38676 0.89605 0.0
H2526 H 0.16874 0.38181 1.00799 0.0
H2527 H 0.16888 0.42135 1.04111 0.0
C2528 C 0.17458 0.32503 0.86489 0.0
C2529 C 0.18255 0.31171 0.88276 0.0
C2530 C 0.17466 0.34752 0.88696 0.0
C2531 C 0.18273 0.35722 0.92684 0.0
C2532 C 0.19072 0.34392 0.94433 0.0
C2533 C 0.19062 0.32142 0.92279 0.0
C2534 C 0.191 0.4167 0.94761 0.0
C2535 C 0.18308 0.42696 0.98812 0.0
C2536 C 0.19091 0.39407 0.92861 0.0
C2537 C 0.18288 0.38118 0.94917 0.0
C2538 C 0.17499 0.39137 0.99039 0.0
C2539 C 0.1751 0.414 1.00997 0.0
H2540 H 0.56951 0.31839 1.03136 0.0
H2541 H 0.54099 0.31423 0.92263 0.0
H2542 H 0.56963 0.35812 1.00133 0.0
H2543 H 0.54118 0.35374 0.892 0.0
H2544 H 0.54131 0.42851 0.93796 0.0
H2545 H 0.54131 0.38923 0.97473 0.0
H2546 H 0.56976 0.3832 0.86682 0.0
H2547 H 0.56983 0.42256 0.8307 0.0
C2548 C 0.56326 0.32592 1.0014 0.0
C2549 C 0.55524 0.31309 0.97938 0.0
C2550 C 0.56336 0.34865 0.98365 0.0
C2551 C 0.55542 0.35906 0.94419 0.0
C2552 C 0.54737 0.34627 0.92333 0.0
C2553 C 0.54729 0.32357 0.94048 0.0
C2554 C 0.54758 0.41885 0.922 0.0
C2555 C 0.55556 0.42871 0.88109 0.0
C2556 C 0.54755 0.3963 0.9428 0.0
C2557 C 0.55553 0.38311 0.92368 0.0
C2558 C 0.56354 0.39298 0.88331 0.0
C2559 C 0.56355 0.41551 0.86199 0.0
loop_
_geom_bond_atom_site_label_1
_geom_bond_atom_site_label_2
_geom_bond_distance
_geom_bond_site_symmetry_2
_ccdc_geom_bond_type
Tb0 O3 2.453 . S
Tb0 O4 2.596 . S
Tb0 O5 2.374 . S
Tb0 O13 2.343 . S
Tb0 O15 2.353 . S
Tb0 O17 2.427 . S
Tb0 O18 2.513 . S
C1 O5 1.251 . S
C1 O7 1.263 . S
Tb2 O4 2.343 . S
Tb2 O7 2.353 . S
Tb2 O10 2.427 . S
Tb2 O11 2.513 . S
Tb2 O12 2.453 . S
Tb2 O13 2.596 . S
Tb2 O14 2.374 . S
O3 Tb0 2.453 . S
O3 C19 1.245 . S
O4 Tb0 2.596 . S
O4 Tb2 2.343 . S
O4 C19 1.259 . S
O5 Tb0 2.374 . S
O5 C1 1.251 . S
C6 O10 1.275 . S
C6 O11 1.246 . S
O7 C1 1.263 . S
O7 Tb2 2.353 . S
C8 O12 1.245 . S
C8 O13 1.259 . S
C9 O14 1.250 . S
C9 O15 1.263 . S
O10 Tb2 2.427 . S
O10 C6 1.275 . S
O11 Tb2 2.513 . S
O11 C6 1.246 . S
O12 Tb2 2.453 . S
O12 C8 1.245 . S
O13 Tb0 2.343 . S
O13 Tb2 2.596 . S
O13 C8 1.259 . S
O14 Tb2 2.374 . S
O14 C9 1.250 . S
O15 Tb0 2.353 . S
O15 C9 1.263 . S
C16 O17 1.275 . S
C16 O18 1.246 . S
O17 Tb0 2.427 . S
O17 C16 1.275 . S
O18 Tb0 2.513 . S
O18 C16 1.246 . S
C19 O3 1.245 . S
C19 O4 1.259 . S
Tb20 O23 2.453 . S
Tb20 O24 2.594 1_545 S
Tb20 O25 2.374 1_545 S
Tb20 O33 2.343 1_545 S
Tb20 O35 2.353 . S
Tb20 O37 2.427 . S
Tb20 O38 2.513 1_545 S
C21 O25 1.251 . S
C21 O27 1.263 . S
Tb22 O24 2.348 . S
Tb22 O27 2.353 . S
Tb22 O30 2.427 . S
Tb22 O31 2.513 1_565 S
Tb22 O32 2.453 . S
Tb22 O33 2.596 . S
Tb22 O34 2.374 1_565 S
O23 Tb20 2.453 . S
O23 C39 1.250 . S
O24 Tb20 2.594 1_565 S
O24 Tb22 2.348 . S
O24 C39 1.257 1_565 S
O25 Tb20 2.374 1_565 S
O25 C21 1.251 . S
C26 O30 1.275 . S
C26 O31 1.246 1_565 S
O27 C21 1.263 . S
O27 Tb22 2.353 . S
C28 O32 1.245 . S
C28 O33 1.259 . S
C29 O34 1.250 . S
C29 O35 1.263 . S
O30 Tb22 2.427 . S
O30 C26 1.275 . S
O31 Tb22 2.513 1_545 S
O31 C26 1.246 1_545 S
O32 Tb22 2.453 . S
O32 C28 1.245 . S
O33 Tb20 2.343 1_565 S
O33 Tb22 2.596 . S
O33 C28 1.259 . S
O34 Tb22 2.374 1_545 S
O34 C29 1.250 . S
O35 Tb20 2.353 . S
O35 C29 1.263 . S
C36 O37 1.275 1_565 S
C36 O38 1.246 . S
O37 Tb20 2.427 . S
O37 C36 1.275 1_545 S
O38 Tb20 2.513 1_565 S
O38 C36 1.246 . S
C39 O23 1.250 . S
C39 O24 1.257 1_545 S
Tb40 O43 2.453 1_554 S
Tb40 O44 2.594 1_544 S
Tb40 O45 2.374 1_544 S
Tb40 O53 2.343 1_545 S
Tb40 O55 2.353 . S
Tb40 O57 2.427 . S
Tb40 O58 2.513 1_545 S
C41 O45 1.251 . S
C41 O47 1.263 1_556 S
Tb42 O44 2.348 1_554 S
Tb42 O47 2.353 . S
Tb42 O50 2.427 1_554 S
Tb42 O51 2.513 1_564 S
Tb42 O52 2.453 . S
Tb42 O53 2.596 . S
Tb42 O54 2.374 1_565 S
O43 Tb40 2.453 1_556 S
O43 C59 1.250 . S
O44 Tb40 2.594 1_566 S
O44 Tb42 2.348 1_556 S
O44 C59 1.257 1_565 S
O45 Tb40 2.374 1_566 S
O45 C41 1.251 . S
C46 O50 1.275 . S
C46 O51 1.246 1_565 S
O47 C41 1.263 1_554 S
O47 Tb42 2.353 . S
C48 O52 1.245 . S
C48 O53 1.259 . S
C49 O54 1.250 . S
C49 O55 1.263 . S
O50 Tb42 2.427 1_556 S
O50 C46 1.275 . S
O51 Tb42 2.513 1_546 S
O51 C46 1.246 1_545 S
O52 Tb42 2.453 . S
O52 C48 1.245 . S
O53 Tb40 2.343 1_565 S
O53 Tb42 2.596 . S
O53 C48 1.259 . S
O54 Tb42 2.374 1_545 S
O54 C49 1.250 . S
O55 Tb40 2.353 . S
O55 C49 1.263 . S
C56 O57 1.275 1_565 S
C56 O58 1.246 . S
O57 Tb40 2.427 . S
O57 C56 1.275 1_545 S
O58 Tb40 2.513 1_565 S
O58 C56 1.246 . S
C59 O43 1.250 . S
C59 O44 1.257 1_545 S
Tb60 O63 2.453 1_554 S
Tb60 O64 2.596 1_554 S
Tb60 O65 2.374 1_554 S
Tb60 O73 2.343 . S
Tb60 O75 2.353 . S
Tb60 O77 2.427 . S
Tb60 O78 2.513 . S
C61 O65 1.251 . S
C61 O67 1.263 1_556 S
Tb62 O64 2.343 1_554 S
Tb62 O67 2.353 . S
Tb62 O70 2.427 1_554 S
Tb62 O71 2.513 1_554 S
Tb62 O72 2.453 . S
Tb62 O73 2.596 . S
Tb62 O74 2.374 . S
O63 Tb60 2.453 1_556 S
O63 C79 1.245 . S
O64 Tb60 2.596 1_556 S
O64 Tb62 2.343 1_556 S
O64 C79 1.259 . S
O65 Tb60 2.374 1_556 S
O65 C61 1.251 . S
C66 O70 1.275 . S
C66 O71 1.246 . S
O67 C61 1.263 1_554 S
O67 Tb62 2.353 . S
C68 O72 1.245 . S
C68 O73 1.259 . S
C69 O74 1.250 . S
C69 O75 1.263 . S
O70 Tb62 2.427 1_556 S
O70 C66 1.275 . S
O71 Tb62 2.513 1_556 S
O71 C66 1.246 . S
O72 Tb62 2.453 . S
O72 C68 1.245 . S
O73 Tb60 2.343 . S
O73 Tb62 2.596 . S
O73 C68 1.259 . S
O74 Tb62 2.374 . S
O74 C69 1.250 . S
O75 Tb60 2.353 . S
O75 C69 1.263 . S
C76 O77 1.275 . S
C76 O78 1.246 . S
O77 Tb60 2.427 . S
O77 C76 1.275 . S
O78 Tb60 2.513 . S
O78 C76 1.246 . S
C79 O63 1.245 . S
C79 O64 1.259 . S
Tb80 O83 2.453 . S
Tb80 O84 2.596 . S
Tb80 O85 2.374 . S
Tb80 O93 2.343 . S
Tb80 O95 2.353 . S
Tb80 O97 2.427 . S
Tb80 O98 2.513 . S
C81 O85 1.251 . S
C81 O87 1.263 . S
Tb82 O84 2.343 . S
Tb82 O87 2.353 . S
Tb82 O90 2.427 . S
Tb82 O91 2.513 . S
Tb82 O92 2.453 . S
Tb82 O93 2.596 . S
Tb82 O94 2.374 . S
O83 Tb80 2.453 . S
O83 C99 1.245 . S
O84 Tb80 2.596 . S
O84 Tb82 2.343 . S
O84 C99 1.259 . S
O85 Tb80 2.374 . S
O85 C81 1.251 . S
C86 O90 1.275 . S
C86 O91 1.246 . S
O87 C81 1.263 . S
O87 Tb82 2.353 . S
C88 O92 1.245 . S
C88 O93 1.259 . S
C89 O94 1.250 . S
C89 O95 1.263 . S
O90 Tb82 2.427 . S
O90 C86 1.275 . S
O91 Tb82 2.513 . S
O91 C86 1.246 . S
O92 Tb82 2.453 . S
O92 C88 1.245 . S
O93 Tb80 2.343 . S
O93 Tb82 2.596 . S
O93 C88 1.259 . S
O94 Tb82 2.374 . S
O94 C89 1.250 . S
O95 Tb80 2.353 . S
O95 C89 1.263 . S
C96 O97 1.275 . S
C96 O98 1.246 . S
O97 Tb80 2.427 . S
O97 C96 1.275 . S
O98 Tb80 2.513 . S
O98 C96 1.246 . S
C99 O83 1.245 . S
C99 O84 1.259 . S
Tb100 O103 2.453 . S
Tb100 O104 2.596 . S
Tb100 O105 2.374 1_545 S
Tb100 O113 2.348 . S
Tb100 O115 2.353 . S
Tb100 O117 2.427 . S
Tb100 O118 2.513 1_545 S
C101 O105 1.251 . S
C101 O107 1.263 . S
Tb102 O104 2.343 1_565 S
Tb102 O107 2.353 . S
Tb102 O110 2.427 . S
Tb102 O111 2.513 1_565 S
Tb102 O112 2.453 . S
Tb102 O113 2.594 1_565 S
Tb102 O114 2.374 1_565 S
O103 Tb100 2.453 . S
O103 C119 1.245 . S
O104 Tb100 2.596 . S
O104 Tb102 2.343 1_545 S
O104 C119 1.259 . S
O105 Tb100 2.374 1_565 S
O105 C101 1.251 . S
C106 O110 1.275 1_545 S
C106 O111 1.246 . S
O107 C101 1.263 . S
O107 Tb102 2.353 . S
C108 O112 1.250 . S
C108 O113 1.257 1_565 S
C109 O114 1.250 . S
C109 O115 1.263 . S
O110 Tb102 2.427 . S
O110 C106 1.275 1_565 S
O111 Tb102 2.513 1_545 S
O111 C106 1.246 . S
O112 Tb102 2.453 . S
O112 C108 1.250 . S
O113 Tb100 2.348 . S
O113 Tb102 2.594 1_545 S
O113 C108 1.257 1_545 S
O114 Tb102 2.374 1_545 S
O114 C109 1.250 . S
O115 Tb100 2.353 . S
O115 C109 1.263 . S
C116 O117 1.275 . S
C116 O118 1.246 1_545 S
O117 Tb100 2.427 . S
O117 C116 1.275 . S
O118 Tb100 2.513 1_565 S
O118 C116 1.246 1_565 S
C119 O103 1.245 . S
C119 O104 1.259 . S
Tb120 O123 2.453 . S
Tb120 O124 2.596 . S
Tb120 O125 2.374 1_545 S
Tb120 O133 2.348 1_556 S
Tb120 O135 2.353 . S
Tb120 O137 2.427 1_556 S
Tb120 O138 2.513 1_546 S
C121 O125 1.251 . S
C121 O127 1.263 . S
Tb122 O124 2.343 1_565 S
Tb122 O127 2.353 . S
Tb122 O130 2.427 . S
Tb122 O131 2.513 1_565 S
Tb122 O132 2.453 1_556 S
Tb122 O133 2.594 1_566 S
Tb122 O134 2.374 1_566 S
O123 Tb120 2.453 . S
O123 C139 1.245 . S
O124 Tb120 2.596 . S
O124 Tb122 2.343 1_545 S
O124 C139 1.259 . S
O125 Tb120 2.374 1_565 S
O125 C121 1.251 . S
C126 O130 1.275 1_545 S
C126 O131 1.246 . S
O127 C121 1.263 . S
O127 Tb122 2.353 . S
C128 O132 1.250 . S
C128 O133 1.257 1_565 S
C129 O134 1.250 . S
C129 O135 1.263 1_554 S
O130 Tb122 2.427 . S
O130 C126 1.275 1_565 S
O131 Tb122 2.513 1_545 S
O131 C126 1.246 . S
O132 Tb122 2.453 1_554 S
O132 C128 1.250 . S
O133 Tb120 2.348 1_554 S
O133 Tb122 2.594 1_544 S
O133 C128 1.257 1_545 S
O134 Tb122 2.374 1_544 S
O134 C129 1.250 . S
O135 Tb120 2.353 . S
O135 C129 1.263 1_556 S
C136 O137 1.275 . S
C136 O138 1.246 1_545 S
O137 Tb120 2.427 1_554 S
O137 C136 1.275 . S
O138 Tb120 2.513 1_564 S
O138 C136 1.246 1_565 S
C139 O123 1.245 . S
C139 O124 1.259 . S
Tb140 O143 2.453 . S
Tb140 O144 2.596 . S
Tb140 O145 2.374 . S
Tb140 O153 2.343 1_556 S
Tb140 O155 2.353 . S
Tb140 O157 2.427 1_556 S
Tb140 O158 2.513 1_556 S
C141 O145 1.251 . S
C141 O147 1.263 . S
Tb142 O144 2.343 . S
Tb142 O147 2.353 . S
Tb142 O150 2.427 . S
Tb142 O151 2.513 . S
Tb142 O152 2.453 1_556 S
Tb142 O153 2.596 1_556 S
Tb142 O154 2.374 1_556 S
O143 Tb140 2.453 . S
O143 C159 1.245 . S
O144 Tb140 2.596 . S
O144 Tb142 2.343 . S
O144 C159 1.259 . S
O145 Tb140 2.374 . S
O145 C141 1.251 . S
C146 O150 1.275 . S
C146 O151 1.246 . S
O147 C141 1.263 . S
O147 Tb142 2.353 . S
C148 O152 1.245 . S
C148 O153 1.259 . S
C149 O154 1.250 . S
C149 O155 1.263 1_554 S
O150 Tb142 2.427 . S
O150 C146 1.275 . S
O151 Tb142 2.513 . S
O151 C146 1.246 . S
O152 Tb142 2.453 1_554 S
O152 C148 1.245 . S
O153 Tb140 2.343 1_554 S
O153 Tb142 2.596 1_554 S
O153 C148 1.259 . S
O154 Tb142 2.374 1_554 S
O154 C149 1.250 . S
O155 Tb140 2.353 . S
O155 C149 1.263 1_556 S
C156 O157 1.275 . S
C156 O158 1.246 . S
O157 Tb140 2.427 1_554 S
O157 C156 1.275 . S
O158 Tb140 2.513 1_554 S
O158 C156 1.246 . S
C159 O143 1.245 . S
C159 O144 1.259 . S
Tb160 O163 2.453 . S
Tb160 O164 2.596 . S
Tb160 O165 2.374 . S
Tb160 O173 2.343 . S
Tb160 O175 2.353 . S
Tb160 O177 2.427 . S
Tb160 O178 2.513 . S
C161 O165 1.251 . S
C161 O167 1.263 . S
Tb162 O164 2.343 . S
Tb162 O167 2.353 . S
Tb162 O170 2.427 . S
Tb162 O171 2.513 . S
Tb162 O172 2.453 . S
Tb162 O173 2.596 . S
Tb162 O174 2.374 . S
O163 Tb160 2.453 . S
O163 C179 1.245 . S
O164 Tb160 2.596 . S
O164 Tb162 2.343 . S
O164 C179 1.259 . S
O165 Tb160 2.374 . S
O165 C161 1.251 . S
C166 O170 1.275 . S
C166 O171 1.246 . S
O167 C161 1.263 . S
O167 Tb162 2.353 . S
C168 O172 1.245 . S
C168 O173 1.259 . S
C169 O174 1.250 . S
C169 O175 1.263 . S
O170 Tb162 2.427 . S
O170 C166 1.275 . S
O171 Tb162 2.513 . S
O171 C166 1.246 . S
O172 Tb162 2.453 . S
O172 C168 1.245 . S
O173 Tb160 2.343 . S
O173 Tb162 2.596 . S
O173 C168 1.259 . S
O174 Tb162 2.374 . S
O174 C169 1.250 . S
O175 Tb160 2.353 . S
O175 C169 1.263 . S
C176 O177 1.275 . S
C176 O178 1.246 . S
O177 Tb160 2.427 . S
O177 C176 1.275 . S
O178 Tb160 2.513 . S
O178 C176 1.246 . S
C179 O163 1.245 . S
C179 O164 1.259 . S
Tb180 O183 2.453 . S
Tb180 O184 2.596 . S
Tb180 O185 2.374 . S
Tb180 O193 2.343 . S
Tb180 O195 2.353 . S
Tb180 O197 2.427 . S
Tb180 O198 2.513 . S
C181 O185 1.251 . S
C181 O187 1.263 . S
Tb182 O184 2.343 . S
Tb182 O187 2.353 . S
Tb182 O190 2.427 . S
Tb182 O191 2.513 . S
Tb182 O192 2.453 . S
Tb182 O193 2.596 . S
Tb182 O194 2.374 . S
O183 Tb180 2.453 . S
O183 C199 1.245 . S
O184 Tb180 2.596 . S
O184 Tb182 2.343 . S
O184 C199 1.259 . S
O185 Tb180 2.374 . S
O185 C181 1.251 . S
C186 O190 1.275 . S
C186 O191 1.246 . S
O187 C181 1.263 . S
O187 Tb182 2.353 . S
C188 O192 1.245 . S
C188 O193 1.259 . S
C189 O194 1.250 . S
C189 O195 1.263 . S
O190 Tb182 2.427 . S
O190 C186 1.275 . S
O191 Tb182 2.513 . S
O191 C186 1.246 . S
O192 Tb182 2.453 . S
O192 C188 1.245 . S
O193 Tb180 2.343 . S
O193 Tb182 2.596 . S
O193 C188 1.259 . S
O194 Tb182 2.374 . S
O194 C189 1.250 . S
O195 Tb180 2.353 . S
O195 C189 1.263 . S
C196 O197 1.275 . S
C196 O198 1.246 . S
O197 Tb180 2.427 . S
O197 C196 1.275 . S
O198 Tb180 2.513 . S
O198 C196 1.246 . S
C199 O183 1.245 . S
C199 O184 1.259 . S
Tb200 O203 2.453 . S
Tb200 O204 2.596 . S
Tb200 O205 2.374 . S
Tb200 O213 2.343 . S
Tb200 O215 2.353 . S
Tb200 O217 2.427 . S
Tb200 O218 2.513 . S
C201 O205 1.251 . S
C201 O207 1.263 . S
Tb202 O204 2.343 . S
Tb202 O207 2.353 . S
Tb202 O210 2.427 . S
Tb202 O211 2.513 . S
Tb202 O212 2.453 . S
Tb202 O213 2.596 . S
Tb202 O214 2.374 . S
O203 Tb200 2.453 . S
O203 C219 1.245 . S
O204 Tb200 2.596 . S
O204 Tb202 2.343 . S
O204 C219 1.259 . S
O205 Tb200 2.374 . S
O205 C201 1.251 . S
C206 O210 1.275 . S
C206 O211 1.246 . S
O207 C201 1.263 . S
O207 Tb202 2.353 . S
C208 O212 1.245 . S
C208 O213 1.259 . S
C209 O214 1.250 . S
C209 O215 1.263 . S
O210 Tb202 2.427 . S
O210 C206 1.275 . S
O211 Tb202 2.513 . S
O211 C206 1.246 . S
O212 Tb202 2.453 . S
O212 C208 1.245 . S
O213 Tb200 2.343 . S
O213 Tb202 2.596 . S
O213 C208 1.259 . S
O214 Tb202 2.374 . S
O214 C209 1.250 . S
O215 Tb200 2.353 . S
O215 C209 1.263 . S
C216 O217 1.275 . S
C216 O218 1.246 . S
O217 Tb200 2.427 . S
O217 C216 1.275 . S
O218 Tb200 2.513 . S
O218 C216 1.246 . S
C219 O203 1.245 . S
C219 O204 1.259 . S
Tb220 O223 2.453 . S
Tb220 O224 2.596 . S
Tb220 O225 2.374 . S
Tb220 O233 2.343 . S
Tb220 O235 2.353 . S
Tb220 O237 2.427 . S
Tb220 O238 2.513 . S
C221 O225 1.251 . S
C221 O227 1.263 . S
Tb222 O224 2.343 . S
Tb222 O227 2.353 . S
Tb222 O230 2.427 . S
Tb222 O231 2.513 . S
Tb222 O232 2.453 . S
Tb222 O233 2.596 . S
Tb222 O234 2.374 . S
O223 Tb220 2.453 . S
O223 C239 1.245 . S
O224 Tb220 2.596 . S
O224 Tb222 2.343 . S
O224 C239 1.259 . S
O225 Tb220 2.374 . S
O225 C221 1.251 . S
C226 O230 1.275 . S
C226 O231 1.246 . S
O227 C221 1.263 . S
O227 Tb222 2.353 . S
C228 O232 1.245 . S
C228 O233 1.259 . S
C229 O234 1.250 . S
C229 O235 1.263 . S
O230 Tb222 2.427 . S
O230 C226 1.275 . S
O231 Tb222 2.513 . S
O231 C226 1.246 . S
O232 Tb222 2.453 . S
O232 C228 1.245 . S
O233 Tb220 2.343 . S
O233 Tb222 2.596 . S
O233 C228 1.259 . S
O234 Tb222 2.374 . S
O234 C229 1.250 . S
O235 Tb220 2.353 . S
O235 C229 1.263 . S
C236 O237 1.275 . S
C236 O238 1.246 . S
O237 Tb220 2.427 . S
O237 C236 1.275 . S
O238 Tb220 2.513 . S
O238 C236 1.246 . S
C239 O223 1.245 . S
C239 O224 1.259 . S
Tb240 O243 2.453 . S
Tb240 O244 2.596 . S
Tb240 O245 2.374 . S
Tb240 O253 2.343 . S
Tb240 O255 2.353 . S
Tb240 O257 2.427 . S
Tb240 O258 2.513 . S
C241 O245 1.251 . S
C241 O247 1.263 . S
Tb242 O244 2.343 . S
Tb242 O247 2.353 . S
Tb242 O250 2.427 . S
Tb242 O251 2.513 . S
Tb242 O252 2.453 . S
Tb242 O253 2.596 . S
Tb242 O254 2.374 . S
O243 Tb240 2.453 . S
O243 C259 1.245 . S
O244 Tb240 2.596 . S
O244 Tb242 2.343 . S
O244 C259 1.259 . S
O245 Tb240 2.374 . S
O245 C241 1.251 . S
C246 O250 1.275 . S
C246 O251 1.246 . S
O247 C241 1.263 . S
O247 Tb242 2.353 . S
C248 O252 1.245 . S
C248 O253 1.259 . S
C249 O254 1.250 . S
C249 O255 1.263 . S
O250 Tb242 2.427 . S
O250 C246 1.275 . S
O251 Tb242 2.513 . S
O251 C246 1.246 . S
O252 Tb242 2.453 . S
O252 C248 1.245 . S
O253 Tb240 2.343 . S
O253 Tb242 2.596 . S
O253 C248 1.259 . S
O254 Tb242 2.374 . S
O254 C249 1.250 . S
O255 Tb240 2.353 . S
O255 C249 1.263 . S
C256 O257 1.275 . S
C256 O258 1.246 . S
O257 Tb240 2.427 . S
O257 C256 1.275 . S
O258 Tb240 2.513 . S
O258 C256 1.246 . S
C259 O243 1.245 . S
C259 O244 1.259 . S
Tb260 O263 2.453 . S
Tb260 O264 2.596 . S
Tb260 O265 2.374 . S
Tb260 O273 2.343 . S
Tb260 O275 2.353 . S
Tb260 O277 2.427 . S
Tb260 O278 2.513 . S
C261 O265 1.251 . S
C261 O267 1.263 . S
Tb262 O264 2.343 . S
Tb262 O267 2.353 . S
Tb262 O270 2.427 . S
Tb262 O271 2.513 . S
Tb262 O272 2.453 . S
Tb262 O273 2.596 . S
Tb262 O274 2.374 . S
O263 Tb260 2.453 . S
O263 C279 1.245 . S
O264 Tb260 2.596 . S
O264 Tb262 2.343 . S
O264 C279 1.259 . S
O265 Tb260 2.374 . S
O265 C261 1.251 . S
C266 O270 1.275 . S
C266 O271 1.246 . S
O267 C261 1.263 . S
O267 Tb262 2.353 . S
C268 O272 1.245 . S
C268 O273 1.259 . S
C269 O274 1.250 . S
C269 O275 1.263 . S
O270 Tb262 2.427 . S
O270 C266 1.275 . S
O271 Tb262 2.513 . S
O271 C266 1.246 . S
O272 Tb262 2.453 . S
O272 C268 1.245 . S
O273 Tb260 2.343 . S
O273 Tb262 2.596 . S
O273 C268 1.259 . S
O274 Tb262 2.374 . S
O274 C269 1.250 . S
O275 Tb260 2.353 . S
O275 C269 1.263 . S
C276 O277 1.275 . S
C276 O278 1.246 . S
O277 Tb260 2.427 . S
O277 C276 1.275 . S
O278 Tb260 2.513 . S
O278 C276 1.246 . S
C279 O263 1.245 . S
C279 O264 1.259 . S
Tb280 O283 2.453 . S
Tb280 O284 2.596 . S
Tb280 O285 2.374 . S
Tb280 O293 2.343 . S
Tb280 O295 2.353 . S
Tb280 O297 2.427 . S
Tb280 O298 2.513 . S
C281 O285 1.251 . S
C281 O287 1.263 . S
Tb282 O284 2.343 . S
Tb282 O287 2.353 . S
Tb282 O290 2.427 . S
Tb282 O291 2.513 . S
Tb282 O292 2.453 . S
Tb282 O293 2.596 . S
Tb282 O294 2.374 . S
O283 Tb280 2.453 . S
O283 C299 1.245 . S
O284 Tb280 2.596 . S
O284 Tb282 2.343 . S
O284 C299 1.259 . S
O285 Tb280 2.374 . S
O285 C281 1.251 . S
C286 O290 1.275 . S
C286 O291 1.246 . S
O287 C281 1.263 . S
O287 Tb282 2.353 . S
C288 O292 1.245 . S
C288 O293 1.259 . S
C289 O294 1.250 . S
C289 O295 1.263 . S
O290 Tb282 2.427 . S
O290 C286 1.275 . S
O291 Tb282 2.513 . S
O291 C286 1.246 . S
O292 Tb282 2.453 . S
O292 C288 1.245 . S
O293 Tb280 2.343 . S
O293 Tb282 2.596 . S
O293 C288 1.259 . S
O294 Tb282 2.374 . S
O294 C289 1.250 . S
O295 Tb280 2.353 . S
O295 C289 1.263 . S
C296 O297 1.275 . S
C296 O298 1.246 . S
O297 Tb280 2.427 . S
O297 C296 1.275 . S
O298 Tb280 2.513 . S
O298 C296 1.246 . S
C299 O283 1.245 . S
C299 O284 1.259 . S
Tb300 O303 2.453 . S
Tb300 O304 2.596 . S
Tb300 O305 2.374 . S
Tb300 O313 2.343 . S
Tb300 O315 2.353 . S
Tb300 O317 2.427 . S
Tb300 O318 2.513 . S
C301 O305 1.251 . S
C301 O307 1.263 . S
Tb302 O304 2.343 . S
Tb302 O307 2.353 . S
Tb302 O310 2.427 . S
Tb302 O311 2.513 . S
Tb302 O312 2.453 . S
Tb302 O313 2.596 . S
Tb302 O314 2.374 . S
O303 Tb300 2.453 . S
O303 C319 1.245 . S
O304 Tb300 2.596 . S
O304 Tb302 2.343 . S
O304 C319 1.259 . S
O305 Tb300 2.374 . S
O305 C301 1.251 . S
C306 O310 1.275 . S
C306 O311 1.246 . S
O307 C301 1.263 . S
O307 Tb302 2.353 . S
C308 O312 1.245 . S
C308 O313 1.259 . S
C309 O314 1.250 . S
C309 O315 1.263 . S
O310 Tb302 2.427 . S
O310 C306 1.275 . S
O311 Tb302 2.513 . S
O311 C306 1.246 . S
O312 Tb302 2.453 . S
O312 C308 1.245 . S
O313 Tb300 2.343 . S
O313 Tb302 2.596 . S
O313 C308 1.259 . S
O314 Tb302 2.374 . S
O314 C309 1.250 . S
O315 Tb300 2.353 . S
O315 C309 1.263 . S
C316 O317 1.275 . S
C316 O318 1.246 . S
O317 Tb300 2.427 . S
O317 C316 1.275 . S
O318 Tb300 2.513 . S
O318 C316 1.246 . S
C319 O303 1.245 . S
C319 O304 1.259 . S
Tb320 O323 2.453 . S
Tb320 O324 2.596 . S
Tb320 O325 2.374 . S
Tb320 O333 2.343 . S
Tb320 O335 2.353 . S
Tb320 O337 2.427 . S
Tb320 O338 2.513 . S
C321 O325 1.251 . S
C321 O327 1.263 . S
Tb322 O324 2.343 . S
Tb322 O327 2.353 . S
Tb322 O330 2.427 . S
Tb322 O331 2.513 . S
Tb322 O332 2.453 . S
Tb322 O333 2.596 . S
Tb322 O334 2.374 . S
O323 Tb320 2.453 . S
O323 C339 1.245 . S
O324 Tb320 2.596 . S
O324 Tb322 2.343 . S
O324 C339 1.259 . S
O325 Tb320 2.374 . S
O325 C321 1.251 . S
C326 O330 1.275 . S
C326 O331 1.246 . S
O327 C321 1.263 . S
O327 Tb322 2.353 . S
C328 O332 1.245 . S
C328 O333 1.259 . S
C329 O334 1.250 . S
C329 O335 1.263 . S
O330 Tb322 2.427 . S
O330 C326 1.275 . S
O331 Tb322 2.513 . S
O331 C326 1.246 . S
O332 Tb322 2.453 . S
O332 C328 1.245 . S
O333 Tb320 2.343 . S
O333 Tb322 2.596 . S
O333 C328 1.259 . S
O334 Tb322 2.374 . S
O334 C329 1.250 . S
O335 Tb320 2.353 . S
O335 C329 1.263 . S
C336 O337 1.275 . S
C336 O338 1.246 . S
O337 Tb320 2.427 . S
O337 C336 1.275 . S
O338 Tb320 2.513 . S
O338 C336 1.246 . S
C339 O323 1.245 . S
C339 O324 1.259 . S
Tb340 O343 2.453 . S
Tb340 O344 2.594 1_545 S
Tb340 O345 2.374 1_545 S
Tb340 O353 2.343 1_545 S
Tb340 O355 2.353 . S
Tb340 O357 2.427 . S
Tb340 O358 2.513 1_545 S
C341 O345 1.251 . S
C341 O347 1.263 . S
Tb342 O344 2.348 . S
Tb342 O347 2.353 . S
Tb342 O350 2.427 . S
Tb342 O351 2.513 1_565 S
Tb342 O352 2.453 . S
Tb342 O353 2.596 . S
Tb342 O354 2.374 1_565 S
O343 Tb340 2.453 . S
O343 C359 1.250 . S
O344 Tb340 2.594 1_565 S
O344 Tb342 2.348 . S
O344 C359 1.257 1_565 S
O345 Tb340 2.374 1_565 S
O345 C341 1.251 . S
C346 O350 1.275 . S
C346 O351 1.246 1_565 S
O347 C341 1.263 . S
O347 Tb342 2.353 . S
C348 O352 1.245 . S
C348 O353 1.259 . S
C349 O354 1.250 . S
C349 O355 1.263 . S
O350 Tb342 2.427 . S
O350 C346 1.275 . S
O351 Tb342 2.513 1_545 S
O351 C346 1.246 1_545 S
O352 Tb342 2.453 . S
O352 C348 1.245 . S
O353 Tb340 2.343 1_565 S
O353 Tb342 2.596 . S
O353 C348 1.259 . S
O354 Tb342 2.374 1_545 S
O354 C349 1.250 . S
O355 Tb340 2.353 . S
O355 C349 1.263 . S
C356 O357 1.275 1_565 S
C356 O358 1.246 . S
O357 Tb340 2.427 . S
O357 C356 1.275 1_545 S
O358 Tb340 2.513 1_565 S
O358 C356 1.246 . S
C359 O343 1.250 . S
C359 O344 1.257 1_545 S
Tb360 O363 2.453 . S
Tb360 O364 2.594 1_545 S
Tb360 O365 2.374 1_545 S
Tb360 O373 2.343 1_545 S
Tb360 O375 2.353 . S
Tb360 O377 2.427 . S
Tb360 O378 2.513 1_545 S
C361 O365 1.251 . S
C361 O367 1.263 . S
Tb362 O364 2.348 . S
Tb362 O367 2.353 . S
Tb362 O370 2.427 . S
Tb362 O371 2.513 1_565 S
Tb362 O372 2.453 . S
Tb362 O373 2.596 . S
Tb362 O374 2.374 1_565 S
O363 Tb360 2.453 . S
O363 C379 1.250 . S
O364 Tb360 2.594 1_565 S
O364 Tb362 2.348 . S
O364 C379 1.257 1_565 S
O365 Tb360 2.374 1_565 S
O365 C361 1.251 . S
C366 O370 1.275 . S
C366 O371 1.246 1_565 S
O367 C361 1.263 . S
O367 Tb362 2.353 . S
C368 O372 1.245 . S
C368 O373 1.259 . S
C369 O374 1.250 . S
C369 O375 1.263 . S
O370 Tb362 2.427 . S
O370 C366 1.275 . S
O371 Tb362 2.513 1_545 S
O371 C366 1.246 1_545 S
O372 Tb362 2.453 . S
O372 C368 1.245 . S
O373 Tb360 2.343 1_565 S
O373 Tb362 2.596 . S
O373 C368 1.259 . S
O374 Tb362 2.374 1_545 S
O374 C369 1.250 . S
O375 Tb360 2.353 . S
O375 C369 1.263 . S
C376 O377 1.275 1_565 S
C376 O378 1.246 . S
O377 Tb360 2.427 . S
O377 C376 1.275 1_545 S
O378 Tb360 2.513 1_565 S
O378 C376 1.246 . S
C379 O363 1.250 . S
C379 O364 1.257 1_545 S
Tb380 O383 2.453 . S
Tb380 O384 2.596 . S
Tb380 O385 2.374 . S
Tb380 O393 2.343 . S
Tb380 O395 2.353 . S
Tb380 O397 2.427 . S
Tb380 O398 2.513 . S
C381 O385 1.251 . S
C381 O387 1.263 . S
Tb382 O384 2.343 . S
Tb382 O387 2.353 . S
Tb382 O390 2.427 . S
Tb382 O391 2.513 . S
Tb382 O392 2.453 . S
Tb382 O393 2.596 . S
Tb382 O394 2.374 . S
O383 Tb380 2.453 . S
O383 C399 1.245 . S
O384 Tb380 2.596 . S
O384 Tb382 2.343 . S
O384 C399 1.259 . S
O385 Tb380 2.374 . S
O385 C381 1.251 . S
C386 O390 1.275 . S
C386 O391 1.246 . S
O387 C381 1.263 . S
O387 Tb382 2.353 . S
C388 O392 1.245 . S
C388 O393 1.259 . S
C389 O394 1.250 . S
C389 O395 1.263 . S
O390 Tb382 2.427 . S
O390 C386 1.275 . S
O391 Tb382 2.513 . S
O391 C386 1.246 . S
O392 Tb382 2.453 . S
O392 C388 1.245 . S
O393 Tb380 2.343 . S
O393 Tb382 2.596 . S
O393 C388 1.259 . S
O394 Tb382 2.374 . S
O394 C389 1.250 . S
O395 Tb380 2.353 . S
O395 C389 1.263 . S
C396 O397 1.275 . S
C396 O398 1.246 . S
O397 Tb380 2.427 . S
O397 C396 1.275 . S
O398 Tb380 2.513 . S
O398 C396 1.246 . S
C399 O383 1.245 . S
C399 O384 1.259 . S
Tb400 O403 2.453 . S
Tb400 O404 2.596 . S
Tb400 O405 2.374 . S
Tb400 O413 2.343 . S
Tb400 O415 2.353 . S
Tb400 O417 2.427 . S
Tb400 O418 2.513 . S
C401 O405 1.251 . S
C401 O407 1.263 . S
Tb402 O404 2.343 . S
Tb402 O407 2.353 . S
Tb402 O410 2.427 . S
Tb402 O411 2.513 . S
Tb402 O412 2.453 . S
Tb402 O413 2.596 . S
Tb402 O414 2.374 . S
O403 Tb400 2.453 . S
O403 C419 1.245 . S
O404 Tb400 2.596 . S
O404 Tb402 2.343 . S
O404 C419 1.259 . S
O405 Tb400 2.374 . S
O405 C401 1.251 . S
C406 O410 1.275 . S
C406 O411 1.246 . S
O407 C401 1.263 . S
O407 Tb402 2.353 . S
C408 O412 1.245 . S
C408 O413 1.259 . S
C409 O414 1.250 . S
C409 O415 1.263 . S
O410 Tb402 2.427 . S
O410 C406 1.275 . S
O411 Tb402 2.513 . S
O411 C406 1.246 . S
O412 Tb402 2.453 . S
O412 C408 1.245 . S
O413 Tb400 2.343 . S
O413 Tb402 2.596 . S
O413 C408 1.259 . S
O414 Tb402 2.374 . S
O414 C409 1.250 . S
O415 Tb400 2.353 . S
O415 C409 1.263 . S
C416 O417 1.275 . S
C416 O418 1.246 . S
O417 Tb400 2.427 . S
O417 C416 1.275 . S
O418 Tb400 2.513 . S
O418 C416 1.246 . S
C419 O403 1.245 . S
C419 O404 1.259 . S
Tb420 O423 2.453 . S
Tb420 O424 2.596 . S
Tb420 O425 2.374 1_545 S
Tb420 O433 2.348 . S
Tb420 O435 2.353 . S
Tb420 O437 2.427 . S
Tb420 O438 2.513 1_545 S
C421 O425 1.251 . S
C421 O427 1.263 . S
Tb422 O424 2.343 1_565 S
Tb422 O427 2.353 . S
Tb422 O430 2.427 . S
Tb422 O431 2.513 1_565 S
Tb422 O432 2.453 . S
Tb422 O433 2.594 1_565 S
Tb422 O434 2.374 1_565 S
O423 Tb420 2.453 . S
O423 C439 1.245 . S
O424 Tb420 2.596 . S
O424 Tb422 2.343 1_545 S
O424 C439 1.259 . S
O425 Tb420 2.374 1_565 S
O425 C421 1.251 . S
C426 O430 1.275 1_545 S
C426 O431 1.246 . S
O427 C421 1.263 . S
O427 Tb422 2.353 . S
C428 O432 1.250 . S
C428 O433 1.257 1_565 S
C429 O434 1.250 . S
C429 O435 1.263 . S
O430 Tb422 2.427 . S
O430 C426 1.275 1_565 S
O431 Tb422 2.513 1_545 S
O431 C426 1.246 . S
O432 Tb422 2.453 . S
O432 C428 1.250 . S
O433 Tb420 2.348 . S
O433 Tb422 2.594 1_545 S
O433 C428 1.257 1_545 S
O434 Tb422 2.374 1_545 S
O434 C429 1.250 . S
O435 Tb420 2.353 . S
O435 C429 1.263 . S
C436 O437 1.275 . S
C436 O438 1.246 1_545 S
O437 Tb420 2.427 . S
O437 C436 1.275 . S
O438 Tb420 2.513 1_565 S
O438 C436 1.246 1_565 S
C439 O423 1.245 . S
C439 O424 1.259 . S
Tb440 O443 2.453 . S
Tb440 O444 2.596 . S
Tb440 O445 2.374 1_545 S
Tb440 O453 2.348 . S
Tb440 O455 2.353 . S
Tb440 O457 2.427 . S
Tb440 O458 2.513 1_545 S
C441 O445 1.251 . S
C441 O447 1.263 . S
Tb442 O444 2.343 1_565 S
Tb442 O447 2.353 . S
Tb442 O450 2.427 . S
Tb442 O451 2.513 1_565 S
Tb442 O452 2.453 . S
Tb442 O453 2.594 1_565 S
Tb442 O454 2.374 1_565 S
O443 Tb440 2.453 . S
O443 C459 1.245 . S
O444 Tb440 2.596 . S
O444 Tb442 2.343 1_545 S
O444 C459 1.259 . S
O445 Tb440 2.374 1_565 S
O445 C441 1.251 . S
C446 O450 1.275 1_545 S
C446 O451 1.246 . S
O447 C441 1.263 . S
O447 Tb442 2.353 . S
C448 O452 1.250 . S
C448 O453 1.257 1_565 S
C449 O454 1.250 . S
C449 O455 1.263 . S
O450 Tb442 2.427 . S
O450 C446 1.275 1_565 S
O451 Tb442 2.513 1_545 S
O451 C446 1.246 . S
O452 Tb442 2.453 . S
O452 C448 1.250 . S
O453 Tb440 2.348 . S
O453 Tb442 2.594 1_545 S
O453 C448 1.257 1_545 S
O454 Tb442 2.374 1_545 S
O454 C449 1.250 . S
O455 Tb440 2.353 . S
O455 C449 1.263 . S
C456 O457 1.275 . S
C456 O458 1.246 1_545 S
O457 Tb440 2.427 . S
O457 C456 1.275 . S
O458 Tb440 2.513 1_565 S
O458 C456 1.246 1_565 S
C459 O443 1.245 . S
C459 O444 1.259 . S
Tb460 O463 2.453 . S
Tb460 O464 2.596 . S
Tb460 O465 2.374 . S
Tb460 O473 2.343 . S
Tb460 O475 2.353 . S
Tb460 O477 2.427 . S
Tb460 O478 2.513 . S
C461 O465 1.251 . S
C461 O467 1.263 . S
Tb462 O464 2.343 . S
Tb462 O467 2.353 . S
Tb462 O470 2.427 . S
Tb462 O471 2.513 . S
Tb462 O472 2.453 . S
Tb462 O473 2.596 . S
Tb462 O474 2.374 . S
O463 Tb460 2.453 . S
O463 C479 1.245 . S
O464 Tb460 2.596 . S
O464 Tb462 2.343 . S
O464 C479 1.259 . S
O465 Tb460 2.374 . S
O465 C461 1.251 . S
C466 O470 1.275 . S
C466 O471 1.246 . S
O467 C461 1.263 . S
O467 Tb462 2.353 . S
C468 O472 1.245 . S
C468 O473 1.259 . S
C469 O474 1.250 . S
C469 O475 1.263 . S
O470 Tb462 2.427 . S
O470 C466 1.275 . S
O471 Tb462 2.513 . S
O471 C466 1.246 . S
O472 Tb462 2.453 . S
O472 C468 1.245 . S
O473 Tb460 2.343 . S
O473 Tb462 2.596 . S
O473 C468 1.259 . S
O474 Tb462 2.374 . S
O474 C469 1.250 . S
O475 Tb460 2.353 . S
O475 C469 1.263 . S
C476 O477 1.275 . S
C476 O478 1.246 . S
O477 Tb460 2.427 . S
O477 C476 1.275 . S
O478 Tb460 2.513 . S
O478 C476 1.246 . S
C479 O463 1.245 . S
C479 O464 1.259 . S
Tb480 O483 2.453 . S
Tb480 O484 2.596 . S
Tb480 O485 2.374 . S
Tb480 O493 2.343 . S
Tb480 O495 2.353 . S
Tb480 O497 2.427 . S
Tb480 O498 2.513 . S
C481 O485 1.251 . S
C481 O487 1.263 . S
Tb482 O484 2.343 . S
Tb482 O487 2.353 . S
Tb482 O490 2.427 . S
Tb482 O491 2.513 . S
Tb482 O492 2.453 . S
Tb482 O493 2.596 . S
Tb482 O494 2.374 . S
O483 Tb480 2.453 . S
O483 C499 1.245 . S
O484 Tb480 2.596 . S
O484 Tb482 2.343 . S
O484 C499 1.259 . S
O485 Tb480 2.374 . S
O485 C481 1.251 . S
C486 O490 1.275 . S
C486 O491 1.246 . S
O487 C481 1.263 . S
O487 Tb482 2.353 . S
C488 O492 1.245 . S
C488 O493 1.259 . S
C489 O494 1.250 . S
C489 O495 1.263 . S
O490 Tb482 2.427 . S
O490 C486 1.275 . S
O491 Tb482 2.513 . S
O491 C486 1.246 . S
O492 Tb482 2.453 . S
O492 C488 1.245 . S
O493 Tb480 2.343 . S
O493 Tb482 2.596 . S
O493 C488 1.259 . S
O494 Tb482 2.374 . S
O494 C489 1.250 . S
O495 Tb480 2.353 . S
O495 C489 1.263 . S
C496 O497 1.275 . S
C496 O498 1.246 . S
O497 Tb480 2.427 . S
O497 C496 1.275 . S
O498 Tb480 2.513 . S
O498 C496 1.246 . S
C499 O483 1.245 . S
C499 O484 1.259 . S
Tb500 O503 2.453 . S
Tb500 O504 2.596 . S
Tb500 O505 2.374 . S
Tb500 O513 2.343 . S
Tb500 O515 2.353 . S
Tb500 O517 2.427 . S
Tb500 O518 2.513 . S
C501 O505 1.251 . S
C501 O507 1.263 . S
Tb502 O504 2.343 . S
Tb502 O507 2.353 . S
Tb502 O510 2.427 . S
Tb502 O511 2.513 . S
Tb502 O512 2.453 . S
Tb502 O513 2.596 . S
Tb502 O514 2.374 . S
O503 Tb500 2.453 . S
O503 C519 1.245 . S
O504 Tb500 2.596 . S
O504 Tb502 2.343 . S
O504 C519 1.259 . S
O505 Tb500 2.374 . S
O505 C501 1.251 . S
C506 O510 1.275 . S
C506 O511 1.246 . S
O507 C501 1.263 . S
O507 Tb502 2.353 . S
C508 O512 1.245 . S
C508 O513 1.259 . S
C509 O514 1.250 . S
C509 O515 1.263 . S
O510 Tb502 2.427 . S
O510 C506 1.275 . S
O511 Tb502 2.513 . S
O511 C506 1.246 . S
O512 Tb502 2.453 . S
O512 C508 1.245 . S
O513 Tb500 2.343 . S
O513 Tb502 2.596 . S
O513 C508 1.259 . S
O514 Tb502 2.374 . S
O514 C509 1.250 . S
O515 Tb500 2.353 . S
O515 C509 1.263 . S
C516 O517 1.275 . S
C516 O518 1.246 . S
O517 Tb500 2.427 . S
O517 C516 1.275 . S
O518 Tb500 2.513 . S
O518 C516 1.246 . S
C519 O503 1.245 . S
C519 O504 1.259 . S
Tb520 O523 2.453 1_554 S
Tb520 O524 2.596 1_554 S
Tb520 O525 2.374 1_554 S
Tb520 O533 2.343 . S
Tb520 O535 2.353 . S
Tb520 O537 2.427 . S
Tb520 O538 2.513 . S
C521 O525 1.251 . S
C521 O527 1.263 1_556 S
Tb522 O524 2.343 1_554 S
Tb522 O527 2.353 . S
Tb522 O530 2.427 1_554 S
Tb522 O531 2.513 1_554 S
Tb522 O532 2.453 . S
Tb522 O533 2.596 . S
Tb522 O534 2.374 . S
O523 Tb520 2.453 1_556 S
O523 C539 1.245 . S
O524 Tb520 2.596 1_556 S
O524 Tb522 2.343 1_556 S
O524 C539 1.259 . S
O525 Tb520 2.374 1_556 S
O525 C521 1.251 . S
C526 O530 1.275 . S
C526 O531 1.246 . S
O527 C521 1.263 1_554 S
O527 Tb522 2.353 . S
C528 O532 1.245 . S
C528 O533 1.259 . S
C529 O534 1.250 . S
C529 O535 1.263 . S
O530 Tb522 2.427 1_556 S
O530 C526 1.275 . S
O531 Tb522 2.513 1_556 S
O531 C526 1.246 . S
O532 Tb522 2.453 . S
O532 C528 1.245 . S
O533 Tb520 2.343 . S
O533 Tb522 2.596 . S
O533 C528 1.259 . S
O534 Tb522 2.374 . S
O534 C529 1.250 . S
O535 Tb520 2.353 . S
O535 C529 1.263 . S
C536 O537 1.275 . S
C536 O538 1.246 . S
O537 Tb520 2.427 . S
O537 C536 1.275 . S
O538 Tb520 2.513 . S
O538 C536 1.246 . S
C539 O523 1.245 . S
C539 O524 1.259 . S
Tb540 O543 2.453 1_554 S
Tb540 O544 2.596 1_554 S
Tb540 O545 2.374 1_554 S
Tb540 O553 2.343 . S
Tb540 O555 2.353 . S
Tb540 O557 2.427 . S
Tb540 O558 2.513 . S
C541 O545 1.251 . S
C541 O547 1.263 1_556 S
Tb542 O544 2.343 1_554 S
Tb542 O547 2.353 . S
Tb542 O550 2.427 1_554 S
Tb542 O551 2.513 1_554 S
Tb542 O552 2.453 . S
Tb542 O553 2.596 . S
Tb542 O554 2.374 . S
O543 Tb540 2.453 1_556 S
O543 C559 1.245 . S
O544 Tb540 2.596 1_556 S
O544 Tb542 2.343 1_556 S
O544 C559 1.259 . S
O545 Tb540 2.374 1_556 S
O545 C541 1.251 . S
C546 O550 1.275 . S
C546 O551 1.246 . S
O547 C541 1.263 1_554 S
O547 Tb542 2.353 . S
C548 O552 1.245 . S
C548 O553 1.259 . S
C549 O554 1.250 . S
C549 O555 1.263 . S
O550 Tb542 2.427 1_556 S
O550 C546 1.275 . S
O551 Tb542 2.513 1_556 S
O551 C546 1.246 . S
O552 Tb542 2.453 . S
O552 C548 1.245 . S
O553 Tb540 2.343 . S
O553 Tb542 2.596 . S
O553 C548 1.259 . S
O554 Tb542 2.374 . S
O554 C549 1.250 . S
O555 Tb540 2.353 . S
O555 C549 1.263 . S
C556 O557 1.275 . S
C556 O558 1.246 . S
O557 Tb540 2.427 . S
O557 C556 1.275 . S
O558 Tb540 2.513 . S
O558 C556 1.246 . S
C559 O543 1.245 . S
C559 O544 1.259 . S
Tb560 O563 2.453 . S
Tb560 O564 2.596 . S
Tb560 O565 2.374 . S
Tb560 O573 2.343 . S
Tb560 O575 2.353 . S
Tb560 O577 2.427 . S
Tb560 O578 2.513 . S
C561 O565 1.251 . S
C561 O567 1.263 . S
Tb562 O564 2.343 . S
Tb562 O567 2.353 . S
Tb562 O570 2.427 . S
Tb562 O571 2.513 . S
Tb562 O572 2.453 . S
Tb562 O573 2.596 . S
Tb562 O574 2.374 . S
O563 Tb560 2.453 . S
O563 C579 1.245 . S
O564 Tb560 2.596 . S
O564 Tb562 2.343 . S
O564 C579 1.259 . S
O565 Tb560 2.374 . S
O565 C561 1.251 . S
C566 O570 1.275 . S
C566 O571 1.246 . S
O567 C561 1.263 . S
O567 Tb562 2.353 . S
C568 O572 1.245 . S
C568 O573 1.259 . S
C569 O574 1.250 . S
C569 O575 1.263 . S
O570 Tb562 2.427 . S
O570 C566 1.275 . S
O571 Tb562 2.513 . S
O571 C566 1.246 . S
O572 Tb562 2.453 . S
O572 C568 1.245 . S
O573 Tb560 2.343 . S
O573 Tb562 2.596 . S
O573 C568 1.259 . S
O574 Tb562 2.374 . S
O574 C569 1.250 . S
O575 Tb560 2.353 . S
O575 C569 1.263 . S
C576 O577 1.275 . S
C576 O578 1.246 . S
O577 Tb560 2.427 . S
O577 C576 1.275 . S
O578 Tb560 2.513 . S
O578 C576 1.246 . S
C579 O563 1.245 . S
C579 O564 1.259 . S
Tb580 O583 2.453 . S
Tb580 O584 2.596 . S
Tb580 O585 2.374 . S
Tb580 O593 2.343 . S
Tb580 O595 2.353 . S
Tb580 O597 2.427 . S
Tb580 O598 2.513 . S
C581 O585 1.251 . S
C581 O587 1.263 . S
Tb582 O584 2.343 . S
Tb582 O587 2.353 . S
Tb582 O590 2.427 . S
Tb582 O591 2.513 . S
Tb582 O592 2.453 . S
Tb582 O593 2.596 . S
Tb582 O594 2.374 . S
O583 Tb580 2.453 . S
O583 C599 1.245 . S
O584 Tb580 2.596 . S
O584 Tb582 2.343 . S
O584 C599 1.259 . S
O585 Tb580 2.374 . S
O585 C581 1.251 . S
C586 O590 1.275 . S
C586 O591 1.246 . S
O587 C581 1.263 . S
O587 Tb582 2.353 . S
C588 O592 1.245 . S
C588 O593 1.259 . S
C589 O594 1.250 . S
C589 O595 1.263 . S
O590 Tb582 2.427 . S
O590 C586 1.275 . S
O591 Tb582 2.513 . S
O591 C586 1.246 . S
O592 Tb582 2.453 . S
O592 C588 1.245 . S
O593 Tb580 2.343 . S
O593 Tb582 2.596 . S
O593 C588 1.259 . S
O594 Tb582 2.374 . S
O594 C589 1.250 . S
O595 Tb580 2.353 . S
O595 C589 1.263 . S
C596 O597 1.275 . S
C596 O598 1.246 . S
O597 Tb580 2.427 . S
O597 C596 1.275 . S
O598 Tb580 2.513 . S
O598 C596 1.246 . S
C599 O583 1.245 . S
C599 O584 1.259 . S
Tb600 O603 2.453 . S
Tb600 O604 2.596 . S
Tb600 O605 2.374 . S
Tb600 O613 2.343 1_556 S
Tb600 O615 2.353 . S
Tb600 O617 2.427 1_556 S
Tb600 O618 2.513 1_556 S
C601 O605 1.251 . S
C601 O607 1.263 . S
Tb602 O604 2.343 . S
Tb602 O607 2.353 . S
Tb602 O610 2.427 . S
Tb602 O611 2.513 . S
Tb602 O612 2.453 1_556 S
Tb602 O613 2.596 1_556 S
Tb602 O614 2.374 1_556 S
O603 Tb600 2.453 . S
O603 C619 1.245 . S
O604 Tb600 2.596 . S
O604 Tb602 2.343 . S
O604 C619 1.259 . S
O605 Tb600 2.374 . S
O605 C601 1.251 . S
C606 O610 1.275 . S
C606 O611 1.246 . S
O607 C601 1.263 . S
O607 Tb602 2.353 . S
C608 O612 1.245 . S
C608 O613 1.259 . S
C609 O614 1.250 . S
C609 O615 1.263 1_554 S
O610 Tb602 2.427 . S
O610 C606 1.275 . S
O611 Tb602 2.513 . S
O611 C606 1.246 . S
O612 Tb602 2.453 1_554 S
O612 C608 1.245 . S
O613 Tb600 2.343 1_554 S
O613 Tb602 2.596 1_554 S
O613 C608 1.259 . S
O614 Tb602 2.374 1_554 S
O614 C609 1.250 . S
O615 Tb600 2.353 . S
O615 C609 1.263 1_556 S
C616 O617 1.275 . S
C616 O618 1.246 . S
O617 Tb600 2.427 1_554 S
O617 C616 1.275 . S
O618 Tb600 2.513 1_554 S
O618 C616 1.246 . S
C619 O603 1.245 . S
C619 O604 1.259 . S
Tb620 O623 2.453 . S
Tb620 O624 2.596 . S
Tb620 O625 2.374 . S
Tb620 O633 2.343 1_556 S
Tb620 O635 2.353 . S
Tb620 O637 2.427 1_556 S
Tb620 O638 2.513 1_556 S
C621 O625 1.251 . S
C621 O627 1.263 . S
Tb622 O624 2.343 . S
Tb622 O627 2.353 . S
Tb622 O630 2.427 . S
Tb622 O631 2.513 . S
Tb622 O632 2.453 1_556 S
Tb622 O633 2.596 1_556 S
Tb622 O634 2.374 1_556 S
O623 Tb620 2.453 . S
O623 C639 1.245 . S
O624 Tb620 2.596 . S
O624 Tb622 2.343 . S
O624 C639 1.259 . S
O625 Tb620 2.374 . S
O625 C621 1.251 . S
C626 O630 1.275 . S
C626 O631 1.246 . S
O627 C621 1.263 . S
O627 Tb622 2.353 . S
C628 O632 1.245 . S
C628 O633 1.259 . S
C629 O634 1.250 . S
C629 O635 1.263 1_554 S
O630 Tb622 2.427 . S
O630 C626 1.275 . S
O631 Tb622 2.513 . S
O631 C626 1.246 . S
O632 Tb622 2.453 1_554 S
O632 C628 1.245 . S
O633 Tb620 2.343 1_554 S
O633 Tb622 2.596 1_554 S
O633 C628 1.259 . S
O634 Tb622 2.374 1_554 S
O634 C629 1.250 . S
O635 Tb620 2.353 . S
O635 C629 1.263 1_556 S
C636 O637 1.275 . S
C636 O638 1.246 . S
O637 Tb620 2.427 1_554 S
O637 C636 1.275 . S
O638 Tb620 2.513 1_554 S
O638 C636 1.246 . S
C639 O623 1.245 . S
C639 O624 1.259 . S
H640 C648 0.950 1_554 S
H641 C653 0.950 . S
H642 C650 0.950 . S
H643 C652 0.950 . S
H644 C654 0.950 1_556 S
H645 C656 0.950 . S
H646 C658 0.950 . S
H647 C659 0.950 . S
C648 H640 0.950 1_556 S
C648 C649 1.386 . S
C648 C650 1.391 1_556 S
C649 C648 1.386 . S
C649 C653 1.393 . S
C650 H642 0.950 . S
C650 C648 1.391 1_554 S
C650 C651 1.400 1_554 S
C651 C650 1.400 1_556 S
C651 C652 1.398 . S
C651 C657 1.491 1_556 S
C652 H643 0.950 . S
C652 C651 1.398 . S
C652 C653 1.391 . S
C653 H641 0.950 . S
C653 C649 1.393 . S
C653 C652 1.391 . S
C654 H644 0.950 1_554 S
C654 C655 1.386 . S
C654 C656 1.391 1_554 S
C655 C654 1.386 . S
C655 C659 1.393 . S
C656 H645 0.950 . S
C656 C654 1.391 1_556 S
C656 C657 1.400 1_556 S
C657 C651 1.491 1_554 S
C657 C656 1.400 1_554 S
C657 C658 1.398 . S
C658 H646 0.950 . S
C658 C657 1.398 . S
C658 C659 1.391 . S
C659 H647 0.950 . S
C659 C655 1.393 . S
C659 C658 1.391 . S
H660 C668 0.950 . S
H661 C673 0.950 . S
H662 C670 0.950 . S
H663 C672 0.950 . S
H664 C674 0.950 . S
H665 C676 0.950 . S
H666 C678 0.950 . S
H667 C679 0.950 . S
C668 H660 0.950 . S
C668 C669 1.386 1_565 S
C668 C670 1.391 . S
C669 C668 1.386 1_545 S
C669 C673 1.393 1_556 S
C670 H662 0.950 . S
C670 C668 1.391 . S
C670 C671 1.400 1_565 S
C671 C670 1.400 1_545 S
C671 C672 1.399 1_556 S
C671 C677 1.491 1_446 S
C672 H663 0.950 . S
C672 C671 1.399 1_554 S
C672 C673 1.391 . S
C673 H661 0.950 . S
C673 C669 1.393 1_554 S
C673 C672 1.391 . S
C674 H664 0.950 . S
C674 C675 1.386 1_545 S
C674 C676 1.391 . S
C675 C674 1.386 1_565 S
C675 C679 1.393 1_554 S
C676 H665 0.950 . S
C676 C674 1.391 . S
C676 C677 1.400 1_545 S
C677 C671 1.491 1_664 S
C677 C676 1.400 1_565 S
C677 C678 1.399 1_554 S
C678 H666 0.950 . S
C678 C677 1.399 1_556 S
C678 C679 1.391 . S
C679 H667 0.950 . S
C679 C675 1.393 1_556 S
C679 C678 1.391 . S
H680 C688 0.950 . S
H681 C693 0.950 . S
H682 C690 0.950 . S
H683 C692 0.950 . S
H684 C694 0.950 . S
H685 C696 0.950 . S
H686 C698 0.950 . S
H687 C699 0.950 . S
C688 H680 0.950 . S
C688 C689 1.386 1_565 S
C688 C690 1.391 . S
C689 C688 1.386 1_545 S
C689 C693 1.393 . S
C690 H682 0.950 . S
C690 C688 1.391 . S
C690 C691 1.400 1_565 S
C691 C690 1.400 1_545 S
C691 C692 1.399 . S
C691 C697 1.491 1_545 S
C692 H683 0.950 . S
C692 C691 1.399 . S
C692 C693 1.391 . S
C693 H681 0.950 . S
C693 C689 1.393 . S
C693 C692 1.391 . S
C694 H684 0.950 . S
C694 C695 1.386 1_545 S
C694 C696 1.391 . S
C695 C694 1.386 1_565 S
C695 C699 1.393 . S
C696 H685 0.950 . S
C696 C694 1.391 . S
C696 C697 1.400 1_545 S
C697 C691 1.491 1_565 S
C697 C696 1.400 1_565 S
C697 C698 1.399 . S
C698 H686 0.950 . S
C698 C697 1.399 . S
C698 C699 1.391 . S
C699 H687 0.950 . S
C699 C695 1.393 . S
C699 C698 1.391 . S
H700 C708 0.950 . S
H701 C713 0.950 . S
H702 C710 0.950 . S
H703 C712 0.950 . S
H704 C714 0.950 . S
H705 C716 0.950 . S
H706 C718 0.950 . S
H707 C719 0.950 . S
C708 H700 0.950 . S
C708 C709 1.386 . S
C708 C710 1.391 . S
C709 C708 1.386 . S
C709 C713 1.393 . S
C710 H702 0.950 . S
C710 C708 1.391 . S
C710 C711 1.400 . S
C711 C710 1.400 . S
C711 C712 1.398 . S
C711 C717 1.491 1_455 S
C712 H703 0.950 . S
C712 C711 1.398 . S
C712 C713 1.391 . S
C713 H701 0.950 . S
C713 C709 1.393 . S
C713 C712 1.391 . S
C714 H704 0.950 . S
C714 C715 1.386 . S
C714 C716 1.391 . S
C715 C714 1.386 . S
C715 C719 1.393 . S
C716 H705 0.950 . S
C716 C714 1.391 . S
C716 C717 1.400 . S
C717 C711 1.491 1_655 S
C717 C716 1.400 . S
C717 C718 1.398 . S
C718 H706 0.950 . S
C718 C717 1.398 . S
C718 C719 1.391 . S
C719 H707 0.950 . S
C719 C715 1.393 . S
C719 C718 1.391 . S
H720 C728 0.950 . S
H721 C733 0.950 . S
H722 C730 0.950 . S
H723 C732 0.950 . S
H724 C734 0.950 . S
H725 C736 0.950 . S
H726 C738 0.950 . S
H727 C739 0.950 . S
C728 H720 0.950 . S
C728 C729 1.386 . S
C728 C730 1.391 . S
C729 C728 1.386 . S
C729 C733 1.393 . S
C730 H722 0.950 . S
C730 C728 1.391 . S
C730 C731 1.400 . S
C731 C730 1.400 . S
C731 C732 1.398 . S
C731 C737 1.491 1_556 S
C732 H723 0.950 . S
C732 C731 1.398 . S
C732 C733 1.391 . S
C733 H721 0.950 . S
C733 C729 1.393 . S
C733 C732 1.391 . S
C734 H724 0.950 . S
C734 C735 1.386 . S
C734 C736 1.391 . S
C735 C734 1.386 . S
C735 C739 1.393 . S
C736 H725 0.950 . S
C736 C734 1.391 . S
C736 C737 1.400 . S
C737 C731 1.491 1_554 S
C737 C736 1.400 . S
C737 C738 1.398 . S
C738 H726 0.950 . S
C738 C737 1.398 . S
C738 C739 1.391 . S
C739 H727 0.950 . S
C739 C735 1.393 . S
C739 C738 1.391 . S
H740 C748 0.950 . S
H741 C753 0.950 . S
H742 C750 0.950 . S
H743 C752 0.950 . S
H744 C754 0.950 . S
H745 C756 0.950 . S
H746 C758 0.950 . S
H747 C759 0.950 . S
C748 H740 0.950 . S
C748 C749 1.386 . S
C748 C750 1.391 . S
C749 C748 1.386 . S
C749 C753 1.393 1_565 S
C750 H742 0.950 . S
C750 C748 1.391 . S
C750 C751 1.423 . S
C751 C750 1.423 . S
C751 C752 1.377 1_565 S
C751 C757 1.489 1_565 S
C752 H743 0.950 . S
C752 C751 1.377 1_545 S
C752 C753 1.391 . S
C753 H741 0.950 . S
C753 C749 1.393 1_545 S
C753 C752 1.391 . S
C754 H744 0.950 . S
C754 C755 1.386 . S
C754 C756 1.391 . S
C755 C754 1.386 . S
C755 C759 1.393 1_545 S
C756 H745 0.950 . S
C756 C754 1.391 . S
C756 C757 1.423 . S
C757 C751 1.489 1_545 S
C757 C756 1.423 . S
C757 C758 1.378 1_545 S
C758 H746 0.950 . S
C758 C757 1.378 1_565 S
C758 C759 1.391 . S
C759 H747 0.950 . S
C759 C755 1.393 1_565 S
C759 C758 1.391 . S
H760 C768 0.950 . S
H761 C773 0.950 . S
H762 C770 0.950 . S
H763 C772 0.950 . S
H764 C774 0.950 . S
H765 C776 0.950 . S
H766 C778 0.950 . S
H767 C779 0.950 . S
C768 H760 0.950 . S
C768 C769 1.386 . S
C768 C770 1.391 . S
C769 C768 1.386 . S
C769 C773 1.393 . S
C770 H762 0.950 . S
C770 C768 1.391 . S
C770 C771 1.400 . S
C771 C770 1.400 . S
C771 C772 1.398 . S
C771 C777 1.491 1_655 S
C772 H763 0.950 . S
C772 C771 1.398 . S
C772 C773 1.391 . S
C773 H761 0.950 . S
C773 C769 1.393 . S
C773 C772 1.391 . S
C774 H764 0.950 . S
C774 C775 1.386 . S
C774 C776 1.391 . S
C775 C774 1.386 . S
C775 C779 1.393 . S
C776 H765 0.950 . S
C776 C774 1.391 . S
C776 C777 1.400 . S
C777 C771 1.491 1_455 S
C777 C776 1.400 . S
C777 C778 1.398 . S
C778 H766 0.950 . S
C778 C777 1.398 . S
C778 C779 1.391 . S
C779 H767 0.950 . S
C779 C775 1.393 . S
C779 C778 1.391 . S
H780 C788 0.950 . S
H781 C793 0.950 . S
H782 C790 0.950 . S
H783 C792 0.950 . S
H784 C794 0.950 . S
H785 C796 0.950 . S
H786 C798 0.950 . S
H787 C799 0.950 . S
C788 H780 0.950 . S
C788 C789 1.386 . S
C788 C790 1.391 . S
C789 C788 1.386 . S
C789 C793 1.393 . S
C790 H782 0.950 . S
C790 C788 1.391 . S
C790 C791 1.400 . S
C791 C790 1.400 . S
C791 C792 1.398 . S
C791 C797 1.491 . S
C792 H783 0.950 . S
C792 C791 1.398 . S
C792 C793 1.391 . S
C793 H781 0.950 . S
C793 C789 1.393 . S
C793 C792 1.391 . S
C794 H784 0.950 . S
C794 C795 1.386 . S
C794 C796 1.391 . S
C795 C794 1.386 . S
C795 C799 1.393 . S
C796 H785 0.950 . S
C796 C794 1.391 . S
C796 C797 1.400 . S
C797 C791 1.491 . S
C797 C796 1.400 . S
C797 C798 1.398 . S
C798 H786 0.950 . S
C798 C797 1.398 . S
C798 C799 1.391 . S
C799 H787 0.950 . S
C799 C795 1.393 . S
C799 C798 1.391 . S
H800 C808 0.950 . S
H801 C813 0.950 . S
H802 C810 0.950 . S
H803 C812 0.950 . S
H804 C814 0.950 . S
H805 C816 0.950 . S
H806 C818 0.950 . S
H807 C819 0.950 . S
C808 H800 0.950 . S
C808 C809 1.386 . S
C808 C810 1.391 . S
C809 C808 1.386 . S
C809 C813 1.393 . S
C810 H802 0.950 . S
C810 C808 1.391 . S
C810 C811 1.400 . S
C811 C810 1.400 . S
C811 C812 1.398 . S
C811 C817 1.491 1_655 S
C812 H803 0.950 . S
C812 C811 1.398 . S
C812 C813 1.391 . S
C813 H801 0.950 . S
C813 C809 1.393 . S
C813 C812 1.391 . S
C814 H804 0.950 . S
C814 C815 1.386 . S
C814 C816 1.391 . S
C815 C814 1.386 . S
C815 C819 1.393 . S
C816 H805 0.950 . S
C816 C814 1.391 . S
C816 C817 1.400 . S
C817 C811 1.491 1_455 S
C817 C816 1.400 . S
C817 C818 1.398 . S
C818 H806 0.950 . S
C818 C817 1.398 . S
C818 C819 1.391 . S
C819 H807 0.950 . S
C819 C815 1.393 . S
C819 C818 1.391 . S
H820 C828 0.950 . S
H821 C833 0.950 . S
H822 C830 0.950 . S
H823 C832 0.950 . S
H824 C834 0.950 . S
H825 C836 0.950 . S
H826 C838 0.950 . S
H827 C839 0.950 . S
C828 H820 0.950 . S
C828 C829 1.386 . S
C828 C830 1.391 . S
C829 C828 1.386 . S
C829 C833 1.393 . S
C830 H822 0.950 . S
C830 C828 1.391 . S
C830 C831 1.400 . S
C831 C830 1.400 . S
C831 C832 1.398 . S
C831 C837 1.491 . S
C832 H823 0.950 . S
C832 C831 1.398 . S
C832 C833 1.391 . S
C833 H821 0.950 . S
C833 C829 1.393 . S
C833 C832 1.391 . S
C834 H824 0.950 . S
C834 C835 1.386 . S
C834 C836 1.391 . S
C835 C834 1.386 . S
C835 C839 1.393 . S
C836 H825 0.950 . S
C836 C834 1.391 . S
C836 C837 1.400 . S
C837 C831 1.491 . S
C837 C836 1.400 . S
C837 C838 1.398 . S
C838 H826 0.950 . S
C838 C837 1.398 . S
C838 C839 1.391 . S
C839 H827 0.950 . S
C839 C835 1.393 . S
C839 C838 1.391 . S
H840 C848 0.950 . S
H841 C853 0.950 . S
H842 C850 0.950 . S
H843 C852 0.950 . S
H844 C854 0.950 . S
H845 C856 0.950 . S
H846 C858 0.950 . S
H847 C859 0.950 . S
C848 H840 0.950 . S
C848 C849 1.386 . S
C848 C850 1.391 . S
C849 C848 1.386 . S
C849 C853 1.393 . S
C850 H842 0.950 . S
C850 C848 1.391 . S
C850 C851 1.400 . S
C851 C850 1.400 . S
C851 C852 1.398 . S
C851 C857 1.491 . S
C852 H843 0.950 . S
C852 C851 1.398 . S
C852 C853 1.391 . S
C853 H841 0.950 . S
C853 C849 1.393 . S
C853 C852 1.391 . S
C854 H844 0.950 . S
C854 C855 1.386 . S
C854 C856 1.391 . S
C855 C854 1.386 . S
C855 C859 1.393 . S
C856 H845 0.950 . S
C856 C854 1.391 . S
C856 C857 1.400 . S
C857 C851 1.491 . S
C857 C856 1.400 . S
C857 C858 1.398 . S
C858 H846 0.950 . S
C858 C857 1.398 . S
C858 C859 1.391 . S
C859 H847 0.950 . S
C859 C855 1.393 . S
C859 C858 1.391 . S
H860 C868 0.950 . S
H861 C873 0.950 . S
H862 C870 0.950 . S
H863 C872 0.950 . S
H864 C874 0.950 . S
H865 C876 0.950 . S
H866 C878 0.950 . S
H867 C879 0.950 . S
C868 H860 0.950 . S
C868 C869 1.386 . S
C868 C870 1.391 . S
C869 C868 1.386 . S
C869 C873 1.393 . S
C870 H862 0.950 . S
C870 C868 1.391 . S
C870 C871 1.400 . S
C871 C870 1.400 . S
C871 C872 1.398 . S
C871 C877 1.491 . S
C872 H863 0.950 . S
C872 C871 1.398 . S
C872 C873 1.391 . S
C873 H861 0.950 . S
C873 C869 1.393 . S
C873 C872 1.391 . S
C874 H864 0.950 . S
C874 C875 1.386 . S
C874 C876 1.391 . S
C875 C874 1.386 . S
C875 C879 1.393 . S
C876 H865 0.950 . S
C876 C874 1.391 . S
C876 C877 1.400 . S
C877 C871 1.491 . S
C877 C876 1.400 . S
C877 C878 1.398 . S
C878 H866 0.950 . S
C878 C877 1.398 . S
C878 C879 1.391 . S
C879 H867 0.950 . S
C879 C875 1.393 . S
C879 C878 1.391 . S
H880 C888 0.950 . S
H881 C893 0.956 . S
H882 C890 0.950 . S
H883 C892 0.950 . S
H884 C894 0.950 . S
H885 C896 0.950 . S
H886 C898 0.950 . S
H887 C899 0.956 . S
C888 H880 0.950 . S
C888 C889 1.386 . S
C888 C890 1.391 . S
C889 C888 1.386 . S
C889 C893 1.387 1_565 S
C890 H882 0.950 . S
C890 C888 1.391 . S
C890 C891 1.408 . S
C891 C890 1.408 . S
C891 C892 1.395 1_565 S
C891 C897 1.487 1_565 S
C892 H883 0.950 . S
C892 C891 1.395 1_545 S
C892 C893 1.392 . S
C893 H881 0.956 . S
C893 C889 1.387 1_545 S
C893 C892 1.392 . S
C894 H884 0.950 . S
C894 C895 1.386 . S
C894 C896 1.391 . S
C895 C894 1.386 . S
C895 C899 1.387 1_545 S
C896 H885 0.950 . S
C896 C894 1.391 . S
C896 C897 1.408 . S
C897 C891 1.487 1_545 S
C897 C896 1.408 . S
C897 C898 1.395 1_545 S
C898 H886 0.950 . S
C898 C897 1.395 1_565 S
C898 C899 1.392 . S
C899 H887 0.956 . S
C899 C895 1.387 1_565 S
C899 C898 1.392 . S
H900 C908 0.950 . S
H901 C913 0.950 . S
H902 C910 0.950 . S
H903 C912 0.950 . S
H904 C914 0.950 . S
H905 C916 0.950 . S
H906 C918 0.950 . S
H907 C919 0.950 . S
C908 H900 0.950 . S
C908 C909 1.386 . S
C908 C910 1.391 . S
C909 C908 1.386 . S
C909 C913 1.393 . S
C910 H902 0.950 . S
C910 C908 1.391 . S
C910 C911 1.400 . S
C911 C910 1.400 . S
C911 C912 1.398 . S
C911 C917 1.491 . S
C912 H903 0.950 . S
C912 C911 1.398 . S
C912 C913 1.391 . S
C913 H901 0.950 . S
C913 C909 1.393 . S
C913 C912 1.391 . S
C914 H904 0.950 . S
C914 C915 1.386 . S
C914 C916 1.391 . S
C915 C914 1.386 . S
C915 C919 1.393 . S
C916 H905 0.950 . S
C916 C914 1.391 . S
C916 C917 1.400 . S
C917 C911 1.491 . S
C917 C916 1.400 . S
C917 C918 1.398 . S
C918 H906 0.950 . S
C918 C917 1.398 . S
C918 C919 1.391 . S
C919 H907 0.950 . S
C919 C915 1.393 . S
C919 C918 1.391 . S
H920 C928 0.950 . S
H921 C933 0.950 . S
H922 C930 0.950 . S
H923 C932 0.950 . S
H924 C934 0.950 . S
H925 C936 0.950 . S
H926 C938 0.950 . S
H927 C939 0.950 . S
C928 H920 0.950 . S
C928 C929 1.386 . S
C928 C930 1.391 . S
C929 C928 1.386 . S
C929 C933 1.393 . S
C930 H922 0.950 . S
C930 C928 1.391 . S
C930 C931 1.400 . S
C931 C930 1.400 . S
C931 C932 1.398 . S
C931 C937 1.491 . S
C932 H923 0.950 . S
C932 C931 1.398 . S
C932 C933 1.391 . S
C933 H921 0.950 . S
C933 C929 1.393 . S
C933 C932 1.391 . S
C934 H924 0.950 . S
C934 C935 1.386 . S
C934 C936 1.391 . S
C935 C934 1.386 . S
C935 C939 1.393 . S
C936 H925 0.950 . S
C936 C934 1.391 . S
C936 C937 1.400 . S
C937 C931 1.491 . S
C937 C936 1.400 . S
C937 C938 1.398 . S
C938 H926 0.950 . S
C938 C937 1.398 . S
C938 C939 1.391 . S
C939 H927 0.950 . S
C939 C935 1.393 . S
C939 C938 1.391 . S
H940 C948 0.950 . S
H941 C953 0.950 . S
H942 C950 0.950 . S
H943 C952 0.950 . S
H944 C954 0.950 . S
H945 C956 0.950 . S
H946 C958 0.950 . S
H947 C959 0.950 . S
C948 H940 0.950 . S
C948 C949 1.386 1_554 S
C948 C950 1.391 . S
C949 C948 1.386 1_556 S
C949 C953 1.393 . S
C950 H942 0.950 . S
C950 C948 1.391 . S
C950 C951 1.400 1_554 S
C951 C950 1.400 1_556 S
C951 C952 1.398 . S
C951 C957 1.491 1_556 S
C952 H943 0.950 . S
C952 C951 1.398 . S
C952 C953 1.391 . S
C953 H941 0.950 . S
C953 C949 1.393 . S
C953 C952 1.391 . S
C954 H944 0.950 . S
C954 C955 1.386 1_556 S
C954 C956 1.391 . S
C955 C954 1.386 1_554 S
C955 C959 1.393 . S
C956 H945 0.950 . S
C956 C954 1.391 . S
C956 C957 1.400 1_556 S
C957 C951 1.491 1_554 S
C957 C956 1.400 1_554 S
C957 C958 1.398 . S
C958 H946 0.950 . S
C958 C957 1.398 . S
C958 C959 1.391 . S
C959 H947 0.950 . S
C959 C955 1.393 . S
C959 C958 1.391 . S
H960 C968 0.950 . S
H961 C973 0.950 . S
H962 C970 0.950 . S
H963 C972 0.950 . S
H964 C974 0.950 . S
H965 C976 0.950 . S
H966 C978 0.950 . S
H967 C979 0.950 . S
C968 H960 0.950 . S
C968 C969 1.386 . S
C968 C970 1.391 . S
C969 C968 1.386 . S
C969 C973 1.393 . S
C970 H962 0.950 . S
C970 C968 1.391 . S
C970 C971 1.400 . S
C971 C970 1.400 . S
C971 C972 1.398 . S
C971 C977 1.491 . S
C972 H963 0.950 . S
C972 C971 1.398 . S
C972 C973 1.391 . S
C973 H961 0.950 . S
C973 C969 1.393 . S
C973 C972 1.391 . S
C974 H964 0.950 . S
C974 C975 1.386 . S
C974 C976 1.391 . S
C975 C974 1.386 . S
C975 C979 1.393 . S
C976 H965 0.950 . S
C976 C974 1.391 . S
C976 C977 1.400 . S
C977 C971 1.491 . S
C977 C976 1.400 . S
C977 C978 1.398 . S
C978 H966 0.950 . S
C978 C977 1.398 . S
C978 C979 1.391 . S
C979 H967 0.950 . S
C979 C975 1.393 . S
C979 C978 1.391 . S
H980 C988 0.950 . S
H981 C993 0.950 . S
H982 C990 0.950 . S
H983 C992 0.950 . S
H984 C994 0.950 . S
H985 C996 0.950 . S
H986 C998 0.950 . S
H987 C999 0.950 . S
C988 H980 0.950 . S
C988 C989 1.386 . S
C988 C990 1.391 . S
C989 C988 1.386 . S
C989 C993 1.393 1_565 S
C990 H982 0.950 . S
C990 C988 1.391 . S
C990 C991 1.400 . S
C991 C990 1.400 . S
C991 C992 1.398 1_565 S
C991 C997 1.492 . S
C992 H983 0.950 . S
C992 C991 1.398 1_545 S
C992 C993 1.391 . S
C993 H981 0.950 . S
C993 C989 1.393 1_545 S
C993 C992 1.391 . S
C994 H984 0.950 . S
C994 C995 1.378 1_545 S
C994 C996 1.391 . S
C995 C994 1.378 1_565 S
C995 C999 1.400 . S
C996 H985 0.950 . S
C996 C994 1.391 . S
C996 C997 1.385 1_545 S
C997 C991 1.492 . S
C997 C996 1.385 1_565 S
C997 C998 1.413 . S
C998 H986 0.950 . S
C998 C997 1.413 . S
C998 C999 1.391 . S
C999 H987 0.950 . S
C999 C995 1.400 . S
C999 C998 1.391 . S
H1000 C1008 0.950 . S
H1001 C1013 0.950 . S
H1002 C1010 0.950 . S
H1003 C1012 0.950 . S
H1004 C1014 0.950 . S
H1005 C1016 0.950 . S
H1006 C1018 0.950 . S
H1007 C1019 0.950 . S
C1008 H1000 0.950 . S
C1008 C1009 1.386 . S
C1008 C1010 1.391 . S
C1009 C1008 1.386 . S
C1009 C1013 1.393 1_565 S
C1010 H1002 0.950 . S
C1010 C1008 1.391 . S
C1010 C1011 1.400 . S
C1011 C1010 1.400 . S
C1011 C1012 1.398 1_565 S
C1011 C1017 1.491 . S
C1012 H1003 0.950 . S
C1012 C1011 1.398 1_545 S
C1012 C1013 1.391 . S
C1013 H1001 0.950 . S
C1013 C1009 1.393 1_545 S
C1013 C1012 1.391 . S
C1014 H1004 0.950 . S
C1014 C1015 1.341 1_545 S
C1014 C1016 1.391 . S
C1015 C1014 1.341 1_565 S
C1015 C1019 1.438 . S
C1016 H1005 0.950 . S
C1016 C1014 1.391 . S
C1016 C1017 1.400 1_545 S
C1017 C1011 1.491 . S
C1017 C1016 1.400 1_565 S
C1017 C1018 1.398 . S
C1018 H1006 0.950 . S
C1018 C1017 1.398 . S
C1018 C1019 1.391 . S
C1019 H1007 0.950 . S
C1019 C1015 1.438 . S
C1019 C1018 1.391 . S
H1020 C1028 0.950 . S
H1021 C1033 0.950 . S
H1022 C1030 0.950 . S
H1023 C1032 0.950 . S
H1024 C1034 0.950 . S
H1025 C1036 0.950 . S
H1026 C1038 0.950 . S
H1027 C1039 0.950 . S
C1028 H1020 0.950 . S
C1028 C1029 1.386 . S
C1028 C1030 1.391 . S
C1029 C1028 1.386 . S
C1029 C1033 1.393 . S
C1030 H1022 0.950 . S
C1030 C1028 1.391 . S
C1030 C1031 1.400 . S
C1031 C1030 1.400 . S
C1031 C1032 1.398 . S
C1031 C1037 1.491 . S
C1032 H1023 0.950 . S
C1032 C1031 1.398 . S
C1032 C1033 1.391 . S
C1033 H1021 0.950 . S
C1033 C1029 1.393 . S
C1033 C1032 1.391 . S
C1034 H1024 0.950 . S
C1034 C1035 1.386 . S
C1034 C1036 1.391 . S
C1035 C1034 1.386 . S
C1035 C1039 1.393 . S
C1036 H1025 0.950 . S
C1036 C1034 1.391 . S
C1036 C1037 1.400 . S
C1037 C1031 1.491 . S
C1037 C1036 1.400 . S
C1037 C1038 1.398 . S
C1038 H1026 0.950 . S
C1038 C1037 1.398 . S
C1038 C1039 1.391 . S
C1039 H1027 0.950 . S
C1039 C1035 1.393 . S
C1039 C1038 1.391 . S
H1040 C1048 0.950 . S
H1041 C1053 0.950 . S
H1042 C1050 0.950 . S
H1043 C1052 0.950 . S
H1044 C1054 0.950 . S
H1045 C1056 0.950 . S
H1046 C1058 0.950 . S
H1047 C1059 0.950 . S
C1048 H1040 0.950 . S
C1048 C1049 1.386 . S
C1048 C1050 1.391 . S
C1049 C1048 1.386 . S
C1049 C1053 1.393 . S
C1050 H1042 0.950 . S
C1050 C1048 1.391 . S
C1050 C1051 1.400 . S
C1051 C1050 1.400 . S
C1051 C1052 1.398 . S
C1051 C1057 1.491 . S
C1052 H1043 0.950 . S
C1052 C1051 1.398 . S
C1052 C1053 1.391 . S
C1053 H1041 0.950 . S
C1053 C1049 1.393 . S
C1053 C1052 1.391 . S
C1054 H1044 0.950 . S
C1054 C1055 1.386 . S
C1054 C1056 1.391 . S
C1055 C1054 1.386 . S
C1055 C1059 1.393 . S
C1056 H1045 0.950 . S
C1056 C1054 1.391 . S
C1056 C1057 1.400 . S
C1057 C1051 1.491 . S
C1057 C1056 1.400 . S
C1057 C1058 1.398 . S
C1058 H1046 0.950 . S
C1058 C1057 1.398 . S
C1058 C1059 1.391 . S
C1059 H1047 0.950 . S
C1059 C1055 1.393 . S
C1059 C1058 1.391 . S
H1060 C1068 0.950 . S
H1061 C1073 0.950 . S
H1062 C1070 0.950 . S
H1063 C1072 0.950 . S
H1064 C1074 0.950 . S
H1065 C1076 0.950 . S
H1066 C1078 0.950 . S
H1067 C1079 0.950 . S
C1068 H1060 0.950 . S
C1068 C1069 1.381 1_565 S
C1068 C1070 1.391 . S
C1069 C1068 1.381 1_545 S
C1069 C1073 1.397 . S
C1070 H1062 0.950 . S
C1070 C1068 1.391 . S
C1070 C1071 1.390 1_565 S
C1071 C1070 1.390 1_545 S
C1071 C1072 1.408 . S
C1071 C1077 1.492 . S
C1072 H1063 0.950 . S
C1072 C1071 1.408 . S
C1072 C1073 1.391 . S
C1073 H1061 0.950 . S
C1073 C1069 1.397 . S
C1073 C1072 1.391 . S
C1074 H1064 0.950 . S
C1074 C1075 1.386 . S
C1074 C1076 1.391 . S
C1075 C1074 1.386 . S
C1075 C1079 1.393 1_545 S
C1076 H1065 0.950 . S
C1076 C1074 1.391 . S
C1076 C1077 1.400 . S
C1077 C1071 1.492 . S
C1077 C1076 1.400 . S
C1077 C1078 1.398 1_545 S
C1078 H1066 0.950 . S
C1078 C1077 1.398 1_565 S
C1078 C1079 1.391 . S
C1079 H1067 0.950 . S
C1079 C1075 1.393 1_565 S
C1079 C1078 1.391 . S
H1080 C1088 0.950 . S
H1081 C1093 0.950 1_556 S
H1082 C1090 0.950 . S
H1083 C1092 0.950 1_556 S
H1084 C1094 0.950 . S
H1085 C1096 0.950 . S
H1086 C1098 0.950 . S
H1087 C1099 0.950 . S
C1088 H1080 0.950 . S
C1088 C1089 1.386 . S
C1088 C1090 1.391 . S
C1089 C1088 1.386 . S
C1089 C1093 1.393 1_545 S
C1090 H1082 0.950 . S
C1090 C1088 1.391 . S
C1090 C1091 1.400 . S
C1091 C1090 1.400 . S
C1091 C1092 1.398 1_545 S
C1091 C1097 1.492 . S
C1092 H1083 0.950 1_554 S
C1092 C1091 1.398 1_565 S
C1092 C1093 1.391 . S
C1093 H1081 0.950 1_554 S
C1093 C1089 1.393 1_565 S
C1093 C1092 1.391 . S
C1094 H1084 0.950 . S
C1094 C1095 1.384 1_565 S
C1094 C1096 1.391 . S
C1095 C1094 1.384 1_545 S
C1095 C1099 1.394 . S
C1096 H1085 0.950 . S
C1096 C1094 1.391 . S
C1096 C1097 1.396 1_565 S
C1097 C1091 1.492 . S
C1097 C1096 1.396 1_545 S
C1097 C1098 1.402 . S
C1098 H1086 0.950 . S
C1098 C1097 1.402 . S
C1098 C1099 1.391 . S
C1099 H1087 0.950 . S
C1099 C1095 1.394 . S
C1099 C1098 1.391 . S
H1100 C1108 0.950 1_556 S
H1101 C1113 0.950 . S
H1102 C1110 0.950 1_556 S
H1103 C1112 0.950 . S
H1104 C1114 0.950 . S
H1105 C1116 0.950 . S
H1106 C1118 0.950 . S
H1107 C1119 0.950 . S
C1108 H1100 0.950 1_554 S
C1108 C1109 1.386 . S
C1108 C1110 1.391 . S
C1109 C1108 1.386 . S
C1109 C1113 1.393 . S
C1110 H1102 0.950 1_554 S
C1110 C1108 1.391 . S
C1110 C1111 1.400 . S
C1111 C1110 1.400 . S
C1111 C1112 1.398 . S
C1111 C1117 1.491 . S
C1112 H1103 0.950 . S
C1112 C1111 1.398 . S
C1112 C1113 1.391 . S
C1113 H1101 0.950 . S
C1113 C1109 1.393 . S
C1113 C1112 1.391 . S
C1114 H1104 0.950 . S
C1114 C1115 1.386 . S
C1114 C1116 1.391 . S
C1115 C1114 1.386 . S
C1115 C1119 1.393 . S
C1116 H1105 0.950 . S
C1116 C1114 1.391 . S
C1116 C1117 1.400 . S
C1117 C1111 1.491 . S
C1117 C1116 1.400 . S
C1117 C1118 1.398 . S
C1118 H1106 0.950 . S
C1118 C1117 1.398 . S
C1118 C1119 1.391 . S
C1119 H1107 0.950 . S
C1119 C1115 1.393 . S
C1119 C1118 1.391 . S
H1120 C1128 0.950 . S
H1121 C1133 0.950 . S
H1122 C1130 0.950 . S
H1123 C1132 0.950 . S
H1124 C1134 0.950 . S
H1125 C1136 0.950 . S
H1126 C1138 0.950 . S
H1127 C1139 0.950 . S
C1128 H1120 0.950 . S
C1128 C1129 1.386 . S
C1128 C1130 1.391 . S
C1129 C1128 1.386 . S
C1129 C1133 1.393 . S
C1130 H1122 0.950 . S
C1130 C1128 1.391 . S
C1130 C1131 1.400 . S
C1131 C1130 1.400 . S
C1131 C1132 1.398 . S
C1131 C1137 1.491 . S
C1132 H1123 0.950 . S
C1132 C1131 1.398 . S
C1132 C1133 1.391 . S
C1133 H1121 0.950 . S
C1133 C1129 1.393 . S
C1133 C1132 1.391 . S
C1134 H1124 0.950 . S
C1134 C1135 1.386 . S
C1134 C1136 1.391 . S
C1135 C1134 1.386 . S
C1135 C1139 1.393 . S
C1136 H1125 0.950 . S
C1136 C1134 1.391 . S
C1136 C1137 1.400 . S
C1137 C1131 1.491 . S
C1137 C1136 1.400 . S
C1137 C1138 1.398 . S
C1138 H1126 0.950 . S
C1138 C1137 1.398 . S
C1138 C1139 1.391 . S
C1139 H1127 0.950 . S
C1139 C1135 1.393 . S
C1139 C1138 1.391 . S
H1140 C1148 0.950 . S
H1141 C1153 0.950 . S
H1142 C1150 0.950 . S
H1143 C1152 0.950 . S
H1144 C1154 0.950 . S
H1145 C1156 0.950 . S
H1146 C1158 0.950 . S
H1147 C1159 0.950 . S
C1148 H1140 0.950 . S
C1148 C1149 1.386 . S
C1148 C1150 1.391 . S
C1149 C1148 1.386 . S
C1149 C1153 1.393 . S
C1150 H1142 0.950 . S
C1150 C1148 1.391 . S
C1150 C1151 1.400 . S
C1151 C1150 1.400 . S
C1151 C1152 1.398 . S
C1151 C1157 1.491 . S
C1152 H1143 0.950 . S
C1152 C1151 1.398 . S
C1152 C1153 1.391 . S
C1153 H1141 0.950 . S
C1153 C1149 1.393 . S
C1153 C1152 1.391 . S
C1154 H1144 0.950 . S
C1154 C1155 1.386 . S
C1154 C1156 1.391 . S
C1155 C1154 1.386 . S
C1155 C1159 1.393 . S
C1156 H1145 0.950 . S
C1156 C1154 1.391 . S
C1156 C1157 1.400 . S
C1157 C1151 1.491 . S
C1157 C1156 1.400 . S
C1157 C1158 1.398 . S
C1158 H1146 0.950 . S
C1158 C1157 1.398 . S
C1158 C1159 1.391 . S
C1159 H1147 0.950 . S
C1159 C1155 1.393 . S
C1159 C1158 1.391 . S
H1160 C1168 0.950 . S
H1161 C1173 0.950 . S
H1162 C1170 0.950 . S
H1163 C1172 0.950 . S
H1164 C1174 0.950 . S
H1165 C1176 0.950 . S
H1166 C1178 0.950 . S
H1167 C1179 0.950 . S
C1168 H1160 0.950 . S
C1168 C1169 1.386 . S
C1168 C1170 1.391 . S
C1169 C1168 1.386 . S
C1169 C1173 1.393 . S
C1170 H1162 0.950 . S
C1170 C1168 1.391 . S
C1170 C1171 1.400 . S
C1171 C1170 1.400 . S
C1171 C1172 1.398 . S
C1171 C1177 1.491 . S
C1172 H1163 0.950 . S
C1172 C1171 1.398 . S
C1172 C1173 1.391 . S
C1173 H1161 0.950 . S
C1173 C1169 1.393 . S
C1173 C1172 1.391 . S
C1174 H1164 0.950 . S
C1174 C1175 1.386 . S
C1174 C1176 1.391 . S
C1175 C1174 1.386 . S
C1175 C1179 1.393 . S
C1176 H1165 0.950 . S
C1176 C1174 1.391 . S
C1176 C1177 1.400 . S
C1177 C1171 1.491 . S
C1177 C1176 1.400 . S
C1177 C1178 1.398 . S
C1178 H1166 0.950 . S
C1178 C1177 1.398 . S
C1178 C1179 1.391 . S
C1179 H1167 0.950 . S
C1179 C1175 1.393 . S
C1179 C1178 1.391 . S
H1180 C1188 0.950 . S
H1181 C1193 0.950 . S
H1182 C1190 0.950 . S
H1183 C1192 0.950 . S
H1184 C1194 0.950 . S
H1185 C1196 0.950 . S
H1186 C1198 0.950 . S
H1187 C1199 0.950 . S
C1188 H1180 0.950 . S
C1188 C1189 1.386 . S
C1188 C1190 1.391 . S
C1189 C1188 1.386 . S
C1189 C1193 1.393 . S
C1190 H1182 0.950 . S
C1190 C1188 1.391 . S
C1190 C1191 1.400 . S
C1191 C1190 1.400 . S
C1191 C1192 1.398 . S
C1191 C1197 1.491 . S
C1192 H1183 0.950 . S
C1192 C1191 1.398 . S
C1192 C1193 1.391 . S
C1193 H1181 0.950 . S
C1193 C1189 1.393 . S
C1193 C1192 1.391 . S
C1194 H1184 0.950 . S
C1194 C1195 1.386 . S
C1194 C1196 1.391 . S
C1195 C1194 1.386 . S
C1195 C1199 1.393 . S
C1196 H1185 0.950 . S
C1196 C1194 1.391 . S
C1196 C1197 1.400 . S
C1197 C1191 1.491 . S
C1197 C1196 1.400 . S
C1197 C1198 1.398 . S
C1198 H1186 0.950 . S
C1198 C1197 1.398 . S
C1198 C1199 1.391 . S
C1199 H1187 0.950 . S
C1199 C1195 1.393 . S
C1199 C1198 1.391 . S
H1200 C1208 0.950 . S
H1201 C1213 0.950 . S
H1202 C1210 0.950 . S
H1203 C1212 0.950 . S
H1204 C1214 0.950 . S
H1205 C1216 0.950 . S
H1206 C1218 0.951 1_556 S
H1207 C1219 0.950 1_556 S
C1208 H1200 0.950 . S
C1208 C1209 1.386 . S
C1208 C1210 1.391 . S
C1209 C1208 1.386 . S
C1209 C1213 1.393 . S
C1210 H1202 0.950 . S
C1210 C1208 1.391 . S
C1210 C1211 1.400 . S
C1211 C1210 1.400 . S
C1211 C1212 1.398 . S
C1211 C1217 1.491 . S
C1212 H1203 0.950 . S
C1212 C1211 1.398 . S
C1212 C1213 1.391 . S
C1213 H1201 0.950 . S
C1213 C1209 1.393 . S
C1213 C1212 1.391 . S
C1214 H1204 0.950 . S
C1214 C1215 1.386 . S
C1214 C1216 1.391 . S
C1215 C1214 1.386 . S
C1215 C1219 1.393 . S
C1216 H1205 0.950 . S
C1216 C1214 1.391 . S
C1216 C1217 1.400 . S
C1217 C1211 1.491 . S
C1217 C1216 1.400 . S
C1217 C1218 1.398 . S
C1218 H1206 0.951 1_554 S
C1218 C1217 1.398 . S
C1218 C1219 1.391 . S
C1219 H1207 0.950 1_554 S
C1219 C1215 1.393 . S
C1219 C1218 1.391 . S
H1220 C1228 0.950 . S
H1221 C1233 0.950 . S
H1222 C1230 0.950 . S
H1223 C1232 0.950 . S
H1224 C1234 0.950 . S
H1225 C1236 0.950 . S
H1226 C1238 0.950 . S
H1227 C1239 0.950 . S
C1228 H1220 0.950 . S
C1228 C1229 1.386 . S
C1228 C1230 1.391 . S
C1229 C1228 1.386 . S
C1229 C1233 1.393 . S
C1230 H1222 0.950 . S
C1230 C1228 1.391 . S
C1230 C1231 1.400 . S
C1231 C1230 1.400 . S
C1231 C1232 1.398 . S
C1231 C1237 1.491 . S
C1232 H1223 0.950 . S
C1232 C1231 1.398 . S
C1232 C1233 1.391 . S
C1233 H1221 0.950 . S
C1233 C1229 1.393 . S
C1233 C1232 1.391 . S
C1234 H1224 0.950 . S
C1234 C1235 1.386 . S
C1234 C1236 1.391 . S
C1235 C1234 1.386 . S
C1235 C1239 1.393 . S
C1236 H1225 0.950 . S
C1236 C1234 1.391 . S
C1236 C1237 1.400 . S
C1237 C1231 1.491 . S
C1237 C1236 1.400 . S
C1237 C1238 1.398 . S
C1238 H1226 0.950 . S
C1238 C1237 1.398 . S
C1238 C1239 1.391 . S
C1239 H1227 0.950 . S
C1239 C1235 1.393 . S
C1239 C1238 1.391 . S
H1240 C1248 0.950 . S
H1241 C1253 0.950 . S
H1242 C1250 0.950 . S
H1243 C1252 0.950 . S
H1244 C1254 0.950 . S
H1245 C1256 0.950 . S
H1246 C1258 0.950 . S
H1247 C1259 0.950 . S
C1248 H1240 0.950 . S
C1248 C1249 1.386 . S
C1248 C1250 1.391 . S
C1249 C1248 1.386 . S
C1249 C1253 1.393 . S
C1250 H1242 0.950 . S
C1250 C1248 1.391 . S
C1250 C1251 1.400 . S
C1251 C1250 1.400 . S
C1251 C1252 1.398 . S
C1251 C1257 1.491 . S
C1252 H1243 0.950 . S
C1252 C1251 1.398 . S
C1252 C1253 1.391 . S
C1253 H1241 0.950 . S
C1253 C1249 1.393 . S
C1253 C1252 1.391 . S
C1254 H1244 0.950 . S
C1254 C1255 1.386 . S
C1254 C1256 1.391 . S
C1255 C1254 1.386 . S
C1255 C1259 1.393 . S
C1256 H1245 0.950 . S
C1256 C1254 1.391 . S
C1256 C1257 1.400 . S
C1257 C1251 1.491 . S
C1257 C1256 1.400 . S
C1257 C1258 1.398 . S
C1258 H1246 0.950 . S
C1258 C1257 1.398 . S
C1258 C1259 1.391 . S
C1259 H1247 0.950 . S
C1259 C1255 1.393 . S
C1259 C1258 1.391 . S
H1260 C1268 0.950 . S
H1261 C1273 0.950 . S
H1262 C1270 0.950 . S
H1263 C1272 0.950 . S
H1264 C1274 0.950 . S
H1265 C1276 0.950 . S
H1266 C1278 0.950 . S
H1267 C1279 0.950 . S
C1268 H1260 0.950 . S
C1268 C1269 1.386 . S
C1268 C1270 1.391 . S
C1269 C1268 1.386 . S
C1269 C1273 1.393 . S
C1270 H1262 0.950 . S
C1270 C1268 1.391 . S
C1270 C1271 1.400 . S
C1271 C1270 1.400 . S
C1271 C1272 1.398 . S
C1271 C1277 1.491 . S
C1272 H1263 0.950 . S
C1272 C1271 1.398 . S
C1272 C1273 1.391 . S
C1273 H1261 0.950 . S
C1273 C1269 1.393 . S
C1273 C1272 1.391 . S
C1274 H1264 0.950 . S
C1274 C1275 1.386 . S
C1274 C1276 1.391 . S
C1275 C1274 1.386 . S
C1275 C1279 1.393 . S
C1276 H1265 0.950 . S
C1276 C1274 1.391 . S
C1276 C1277 1.400 . S
C1277 C1271 1.491 . S
C1277 C1276 1.400 . S
C1277 C1278 1.398 . S
C1278 H1266 0.950 . S
C1278 C1277 1.398 . S
C1278 C1279 1.391 . S
C1279 H1267 0.950 . S
C1279 C1275 1.393 . S
C1279 C1278 1.391 . S
H1280 C1288 0.950 . S
H1281 C1293 0.950 . S
H1282 C1290 0.950 . S
H1283 C1292 0.950 . S
H1284 C1294 0.950 . S
H1285 C1296 0.950 . S
H1286 C1298 0.950 . S
H1287 C1299 0.950 . S
C1288 H1280 0.950 . S
C1288 C1289 1.386 . S
C1288 C1290 1.391 . S
C1289 C1288 1.386 . S
C1289 C1293 1.393 . S
C1290 H1282 0.950 . S
C1290 C1288 1.391 . S
C1290 C1291 1.400 . S
C1291 C1290 1.400 . S
C1291 C1292 1.398 . S
C1291 C1297 1.491 . S
C1292 H1283 0.950 . S
C1292 C1291 1.398 . S
C1292 C1293 1.391 . S
C1293 H1281 0.950 . S
C1293 C1289 1.393 . S
C1293 C1292 1.391 . S
C1294 H1284 0.950 . S
C1294 C1295 1.386 . S
C1294 C1296 1.391 . S
C1295 C1294 1.386 . S
C1295 C1299 1.393 . S
C1296 H1285 0.950 . S
C1296 C1294 1.391 . S
C1296 C1297 1.400 . S
C1297 C1291 1.491 . S
C1297 C1296 1.400 . S
C1297 C1298 1.398 . S
C1298 H1286 0.950 . S
C1298 C1297 1.398 . S
C1298 C1299 1.391 . S
C1299 H1287 0.950 . S
C1299 C1295 1.393 . S
C1299 C1298 1.391 . S
H1300 C1308 0.950 . S
H1301 C1313 0.950 . S
H1302 C1310 0.950 . S
H1303 C1312 0.950 . S
H1304 C1314 0.950 . S
H1305 C1316 0.950 . S
H1306 C1318 0.950 . S
H1307 C1319 0.950 . S
C1308 H1300 0.950 . S
C1308 C1309 1.386 . S
C1308 C1310 1.391 . S
C1309 C1308 1.386 . S
C1309 C1313 1.393 1_565 S
C1310 H1302 0.950 . S
C1310 C1308 1.391 . S
C1310 C1311 1.400 . S
C1311 C1310 1.400 . S
C1311 C1312 1.398 1_565 S
C1311 C1317 1.491 . S
C1312 H1303 0.950 . S
C1312 C1311 1.398 1_545 S
C1312 C1313 1.391 . S
C1313 H1301 0.950 . S
C1313 C1309 1.393 1_545 S
C1313 C1312 1.391 . S
C1314 H1304 0.950 . S
C1314 C1315 1.386 1_545 S
C1314 C1316 1.391 . S
C1315 C1314 1.386 1_565 S
C1315 C1319 1.393 . S
C1316 H1305 0.950 . S
C1316 C1314 1.391 . S
C1316 C1317 1.400 1_545 S
C1317 C1311 1.491 . S
C1317 C1316 1.400 1_565 S
C1317 C1318 1.398 . S
C1318 H1306 0.950 . S
C1318 C1317 1.398 . S
C1318 C1319 1.391 . S
C1319 H1307 0.950 . S
C1319 C1315 1.393 . S
C1319 C1318 1.391 . S
H1320 C1328 0.950 . S
H1321 C1333 0.950 . S
H1322 C1330 0.950 . S
H1323 C1332 0.950 . S
H1324 C1334 0.950 . S
H1325 C1336 0.950 . S
H1326 C1338 0.950 . S
H1327 C1339 0.950 . S
C1328 H1320 0.950 . S
C1328 C1329 1.386 1_545 S
C1328 C1330 1.391 . S
C1329 C1328 1.386 1_565 S
C1329 C1333 1.393 . S
C1330 H1322 0.950 . S
C1330 C1328 1.391 . S
C1330 C1331 1.400 1_545 S
C1331 C1330 1.400 1_565 S
C1331 C1332 1.398 . S
C1331 C1337 1.491 . S
C1332 H1323 0.950 . S
C1332 C1331 1.398 . S
C1332 C1333 1.391 . S
C1333 H1321 0.950 . S
C1333 C1329 1.393 . S
C1333 C1332 1.391 . S
C1334 H1324 0.950 . S
C1334 C1335 1.386 . S
C1334 C1336 1.391 . S
C1335 C1334 1.386 . S
C1335 C1339 1.393 1_565 S
C1336 H1325 0.950 . S
C1336 C1334 1.391 . S
C1336 C1337 1.400 . S
C1337 C1331 1.491 . S
C1337 C1336 1.400 . S
C1337 C1338 1.398 1_565 S
C1338 H1326 0.950 . S
C1338 C1337 1.398 1_545 S
C1338 C1339 1.391 . S
C1339 H1327 0.950 . S
C1339 C1335 1.393 1_545 S
C1339 C1338 1.391 . S
H1340 C1348 0.950 . S
H1341 C1353 0.950 . S
H1342 C1350 0.950 . S
H1343 C1352 0.950 . S
H1344 C1354 0.950 . S
H1345 C1356 0.950 . S
H1346 C1358 0.950 . S
H1347 C1359 0.950 . S
C1348 H1340 0.950 . S
C1348 C1349 1.386 . S
C1348 C1350 1.391 . S
C1349 C1348 1.386 . S
C1349 C1353 1.393 . S
C1350 H1342 0.950 . S
C1350 C1348 1.391 . S
C1350 C1351 1.400 . S
C1351 C1350 1.400 . S
C1351 C1352 1.398 . S
C1351 C1357 1.491 . S
C1352 H1343 0.950 . S
C1352 C1351 1.398 . S
C1352 C1353 1.391 . S
C1353 H1341 0.950 . S
C1353 C1349 1.393 . S
C1353 C1352 1.391 . S
C1354 H1344 0.950 . S
C1354 C1355 1.386 . S
C1354 C1356 1.391 . S
C1355 C1354 1.386 . S
C1355 C1359 1.393 . S
C1356 H1345 0.950 . S
C1356 C1354 1.391 . S
C1356 C1357 1.400 . S
C1357 C1351 1.491 . S
C1357 C1356 1.400 . S
C1357 C1358 1.398 . S
C1358 H1346 0.950 . S
C1358 C1357 1.398 . S
C1358 C1359 1.391 . S
C1359 H1347 0.950 . S
C1359 C1355 1.393 . S
C1359 C1358 1.391 . S
H1360 C1368 0.950 . S
H1361 C1373 0.950 . S
H1362 C1370 0.950 . S
H1363 C1372 0.950 . S
H1364 C1374 0.950 . S
H1365 C1376 0.950 . S
H1366 C1378 0.950 . S
H1367 C1379 0.950 . S
C1368 H1360 0.950 . S
C1368 C1369 1.386 . S
C1368 C1370 1.391 . S
C1369 C1368 1.386 . S
C1369 C1373 1.393 . S
C1370 H1362 0.950 . S
C1370 C1368 1.391 . S
C1370 C1371 1.400 . S
C1371 C1370 1.400 . S
C1371 C1372 1.398 . S
C1371 C1377 1.491 . S
C1372 H1363 0.950 . S
C1372 C1371 1.398 . S
C1372 C1373 1.391 . S
C1373 H1361 0.950 . S
C1373 C1369 1.393 . S
C1373 C1372 1.391 . S
C1374 H1364 0.950 . S
C1374 C1375 1.386 . S
C1374 C1376 1.391 . S
C1375 C1374 1.386 . S
C1375 C1379 1.393 . S
C1376 H1365 0.950 . S
C1376 C1374 1.391 . S
C1376 C1377 1.400 . S
C1377 C1371 1.491 . S
C1377 C1376 1.400 . S
C1377 C1378 1.398 . S
C1378 H1366 0.950 . S
C1378 C1377 1.398 . S
C1378 C1379 1.391 . S
C1379 H1367 0.950 . S
C1379 C1375 1.393 . S
C1379 C1378 1.391 . S
H1380 C1388 0.950 . S
H1381 C1393 0.950 . S
H1382 C1390 0.950 . S
H1383 C1392 0.950 . S
H1384 C1394 0.950 . S
H1385 C1396 0.950 . S
H1386 C1398 0.950 . S
H1387 C1399 0.950 . S
C1388 H1380 0.950 . S
C1388 C1389 1.402 . S
C1388 C1390 1.391 . S
C1389 C1388 1.402 . S
C1389 C1393 1.377 1_545 S
C1390 H1382 0.950 . S
C1390 C1388 1.391 . S
C1390 C1391 1.400 . S
C1391 C1390 1.400 . S
C1391 C1392 1.398 1_545 S
C1391 C1397 1.491 . S
C1392 H1383 0.950 . S
C1392 C1391 1.398 1_565 S
C1392 C1393 1.391 . S
C1393 H1381 0.950 . S
C1393 C1389 1.377 1_565 S
C1393 C1392 1.391 . S
C1394 H1384 0.950 . S
C1394 C1395 1.386 1_565 S
C1394 C1396 1.391 . S
C1395 C1394 1.386 1_545 S
C1395 C1399 1.393 . S
C1396 H1385 0.950 . S
C1396 C1394 1.391 . S
C1396 C1397 1.400 1_565 S
C1397 C1391 1.491 . S
C1397 C1396 1.400 1_545 S
C1397 C1398 1.398 . S
C1398 H1386 0.950 . S
C1398 C1397 1.398 . S
C1398 C1399 1.391 . S
C1399 H1387 0.950 . S
C1399 C1395 1.393 . S
C1399 C1398 1.391 . S
H1400 C1408 0.950 . S
H1401 C1413 0.950 . S
H1402 C1410 0.950 . S
H1403 C1412 0.950 . S
H1404 C1414 0.950 . S
H1405 C1416 0.950 . S
H1406 C1418 0.950 . S
H1407 C1419 0.950 . S
C1408 H1400 0.950 . S
C1408 C1409 1.392 . S
C1408 C1410 1.391 . S
C1409 C1408 1.392 . S
C1409 C1413 1.387 1_545 S
C1410 H1402 0.950 . S
C1410 C1408 1.391 . S
C1410 C1411 1.400 . S
C1411 C1410 1.400 . S
C1411 C1412 1.398 1_545 S
C1411 C1417 1.491 . S
C1412 H1403 0.950 . S
C1412 C1411 1.398 1_565 S
C1412 C1413 1.391 . S
C1413 H1401 0.950 . S
C1413 C1409 1.387 1_565 S
C1413 C1412 1.391 . S
C1414 H1404 0.950 . S
C1414 C1415 1.386 1_565 S
C1414 C1416 1.391 . S
C1415 C1414 1.386 1_545 S
C1415 C1419 1.393 . S
C1416 H1405 0.950 . S
C1416 C1414 1.391 . S
C1416 C1417 1.400 1_565 S
C1417 C1411 1.491 . S
C1417 C1416 1.400 1_545 S
C1417 C1418 1.398 . S
C1418 H1406 0.950 . S
C1418 C1417 1.398 . S
C1418 C1419 1.391 . S
C1419 H1407 0.950 . S
C1419 C1415 1.393 . S
C1419 C1418 1.391 . S
H1420 C1428 0.950 . S
H1421 C1433 0.950 . S
H1422 C1430 0.950 . S
H1423 C1432 0.950 . S
H1424 C1434 0.950 . S
H1425 C1436 0.950 . S
H1426 C1438 0.950 . S
H1427 C1439 0.950 . S
C1428 H1420 0.950 . S
C1428 C1429 1.386 . S
C1428 C1430 1.391 . S
C1429 C1428 1.386 . S
C1429 C1433 1.393 . S
C1430 H1422 0.950 . S
C1430 C1428 1.391 . S
C1430 C1431 1.400 . S
C1431 C1430 1.400 . S
C1431 C1432 1.398 . S
C1431 C1437 1.491 . S
C1432 H1423 0.950 . S
C1432 C1431 1.398 . S
C1432 C1433 1.391 . S
C1433 H1421 0.950 . S
C1433 C1429 1.393 . S
C1433 C1432 1.391 . S
C1434 H1424 0.950 . S
C1434 C1435 1.386 . S
C1434 C1436 1.391 . S
C1435 C1434 1.386 . S
C1435 C1439 1.393 . S
C1436 H1425 0.950 . S
C1436 C1434 1.391 . S
C1436 C1437 1.400 . S
C1437 C1431 1.491 . S
C1437 C1436 1.400 . S
C1437 C1438 1.398 . S
C1438 H1426 0.950 . S
C1438 C1437 1.398 . S
C1438 C1439 1.391 . S
C1439 H1427 0.950 . S
C1439 C1435 1.393 . S
C1439 C1438 1.391 . S
H1440 C1448 0.950 . S
H1441 C1453 0.950 . S
H1442 C1450 0.950 . S
H1443 C1452 0.950 . S
H1444 C1454 0.950 . S
H1445 C1456 0.950 . S
H1446 C1458 0.950 . S
H1447 C1459 0.950 . S
C1448 H1440 0.950 . S
C1448 C1449 1.386 1_554 S
C1448 C1450 1.391 . S
C1449 C1448 1.386 1_556 S
C1449 C1453 1.393 1_556 S
C1450 H1442 0.950 . S
C1450 C1448 1.391 . S
C1450 C1451 1.400 . S
C1451 C1450 1.400 . S
C1451 C1452 1.398 . S
C1451 C1457 1.491 . S
C1452 H1443 0.950 . S
C1452 C1451 1.398 . S
C1452 C1453 1.391 . S
C1453 H1441 0.950 . S
C1453 C1449 1.393 1_554 S
C1453 C1452 1.391 . S
C1454 H1444 0.950 . S
C1454 C1455 1.386 . S
C1454 C1456 1.391 . S
C1455 C1454 1.386 . S
C1455 C1459 1.393 . S
C1456 H1445 0.950 . S
C1456 C1454 1.391 . S
C1456 C1457 1.400 . S
C1457 C1451 1.491 . S
C1457 C1456 1.400 . S
C1457 C1458 1.398 . S
C1458 H1446 0.950 . S
C1458 C1457 1.398 . S
C1458 C1459 1.391 . S
C1459 H1447 0.950 . S
C1459 C1455 1.393 . S
C1459 C1458 1.391 . S
H1460 C1468 0.950 . S
H1461 C1473 0.950 . S
H1462 C1470 0.950 . S
H1463 C1472 0.950 . S
H1464 C1474 0.950 . S
H1465 C1476 0.950 . S
H1466 C1478 0.950 . S
H1467 C1479 0.950 . S
C1468 H1460 0.950 . S
C1468 C1469 1.386 . S
C1468 C1470 1.391 . S
C1469 C1468 1.386 . S
C1469 C1473 1.393 . S
C1470 H1462 0.950 . S
C1470 C1468 1.391 . S
C1470 C1471 1.400 . S
C1471 C1470 1.400 . S
C1471 C1472 1.398 . S
C1471 C1477 1.491 . S
C1472 H1463 0.950 . S
C1472 C1471 1.398 . S
C1472 C1473 1.391 . S
C1473 H1461 0.950 . S
C1473 C1469 1.393 . S
C1473 C1472 1.391 . S
C1474 H1464 0.950 . S
C1474 C1475 1.386 1_554 S
C1474 C1476 1.391 . S
C1475 C1474 1.386 1_556 S
C1475 C1479 1.393 1_556 S
C1476 H1465 0.950 . S
C1476 C1474 1.391 . S
C1476 C1477 1.400 . S
C1477 C1471 1.491 . S
C1477 C1476 1.400 . S
C1477 C1478 1.398 . S
C1478 H1466 0.950 . S
C1478 C1477 1.398 . S
C1478 C1479 1.391 . S
C1479 H1467 0.950 . S
C1479 C1475 1.393 1_554 S
C1479 C1478 1.391 . S
H1480 C1488 0.950 . S
H1481 C1493 0.950 . S
H1482 C1490 0.950 . S
H1483 C1492 0.950 . S
H1484 C1494 0.950 . S
H1485 C1496 0.950 . S
H1486 C1498 0.950 . S
H1487 C1499 0.950 . S
C1488 H1480 0.950 . S
C1488 C1489 1.386 . S
C1488 C1490 1.391 . S
C1489 C1488 1.386 . S
C1489 C1493 1.393 . S
C1490 H1482 0.950 . S
C1490 C1488 1.391 . S
C1490 C1491 1.400 . S
C1491 C1490 1.400 . S
C1491 C1492 1.398 . S
C1491 C1497 1.491 1_556 S
C1492 H1483 0.950 . S
C1492 C1491 1.398 . S
C1492 C1493 1.391 . S
C1493 H1481 0.950 . S
C1493 C1489 1.393 . S
C1493 C1492 1.391 . S
C1494 H1484 0.950 . S
C1494 C1495 1.386 . S
C1494 C1496 1.391 . S
C1495 C1494 1.386 . S
C1495 C1499 1.393 . S
C1496 H1485 0.950 . S
C1496 C1494 1.391 . S
C1496 C1497 1.400 . S
C1497 C1491 1.491 1_554 S
C1497 C1496 1.400 . S
C1497 C1498 1.398 . S
C1498 H1486 0.950 . S
C1498 C1497 1.398 . S
C1498 C1499 1.391 . S
C1499 H1487 0.950 . S
C1499 C1495 1.393 . S
C1499 C1498 1.391 . S
H1500 C1508 0.950 . S
H1501 C1513 0.950 . S
H1502 C1510 0.950 . S
H1503 C1512 0.950 . S
H1504 C1514 0.950 . S
H1505 C1516 0.950 . S
H1506 C1518 0.950 . S
H1507 C1519 0.950 . S
C1508 H1500 0.950 . S
C1508 C1509 1.386 . S
C1508 C1510 1.391 . S
C1509 C1508 1.386 . S
C1509 C1513 1.393 . S
C1510 H1502 0.950 . S
C1510 C1508 1.391 . S
C1510 C1511 1.400 . S
C1511 C1510 1.400 . S
C1511 C1512 1.398 . S
C1511 C1517 1.491 1_556 S
C1512 H1503 0.950 . S
C1512 C1511 1.398 . S
C1512 C1513 1.391 . S
C1513 H1501 0.950 . S
C1513 C1509 1.393 . S
C1513 C1512 1.391 . S
C1514 H1504 0.950 . S
C1514 C1515 1.386 . S
C1514 C1516 1.391 . S
C1515 C1514 1.386 . S
C1515 C1519 1.393 . S
C1516 H1505 0.950 . S
C1516 C1514 1.391 . S
C1516 C1517 1.400 . S
C1517 C1511 1.491 1_554 S
C1517 C1516 1.400 . S
C1517 C1518 1.398 . S
C1518 H1506 0.950 . S
C1518 C1517 1.398 . S
C1518 C1519 1.391 . S
C1519 H1507 0.950 . S
C1519 C1515 1.393 . S
C1519 C1518 1.391 . S
H1520 C1528 0.950 . S
H1521 C1533 0.950 . S
H1522 C1530 0.950 . S
H1523 C1532 0.950 . S
H1524 C1534 0.950 . S
H1525 C1536 0.950 . S
H1526 C1538 0.950 . S
H1527 C1539 0.951 . S
C1528 H1520 0.950 . S
C1528 C1529 1.386 . S
C1528 C1530 1.391 . S
C1529 C1528 1.386 . S
C1529 C1533 1.393 . S
C1530 H1522 0.950 . S
C1530 C1528 1.391 . S
C1530 C1531 1.400 . S
C1531 C1530 1.400 . S
C1531 C1532 1.398 . S
C1531 C1537 1.491 . S
C1532 H1523 0.950 . S
C1532 C1531 1.398 . S
C1532 C1533 1.391 . S
C1533 H1521 0.950 . S
C1533 C1529 1.393 . S
C1533 C1532 1.391 . S
C1534 H1524 0.950 . S
C1534 C1535 1.386 1_556 S
C1534 C1536 1.391 . S
C1535 C1534 1.386 1_554 S
C1535 C1539 1.393 1_554 S
C1536 H1525 0.950 . S
C1536 C1534 1.391 . S
C1536 C1537 1.400 . S
C1537 C1531 1.491 . S
C1537 C1536 1.400 . S
C1537 C1538 1.398 . S
C1538 H1526 0.950 . S
C1538 C1537 1.398 . S
C1538 C1539 1.391 . S
C1539 H1527 0.951 . S
C1539 C1535 1.393 1_556 S
C1539 C1538 1.391 . S
H1540 C1548 0.950 . S
H1541 C1553 0.950 . S
H1542 C1550 0.950 . S
H1543 C1552 0.950 . S
H1544 C1554 0.950 . S
H1545 C1556 0.950 . S
H1546 C1558 0.950 . S
H1547 C1559 0.950 . S
C1548 H1540 0.950 . S
C1548 C1549 1.386 1_556 S
C1548 C1550 1.391 . S
C1549 C1548 1.386 1_554 S
C1549 C1553 1.393 1_554 S
C1550 H1542 0.950 . S
C1550 C1548 1.391 . S
C1550 C1551 1.400 . S
C1551 C1550 1.400 . S
C1551 C1552 1.398 . S
C1551 C1557 1.491 . S
C1552 H1543 0.950 . S
C1552 C1551 1.398 . S
C1552 C1553 1.391 . S
C1553 H1541 0.950 . S
C1553 C1549 1.393 1_556 S
C1553 C1552 1.391 . S
C1554 H1544 0.950 . S
C1554 C1555 1.386 . S
C1554 C1556 1.391 . S
C1555 C1554 1.386 . S
C1555 C1559 1.393 . S
C1556 H1545 0.950 . S
C1556 C1554 1.391 . S
C1556 C1557 1.400 . S
C1557 C1551 1.491 . S
C1557 C1556 1.400 . S
C1557 C1558 1.398 . S
C1558 H1546 0.950 . S
C1558 C1557 1.398 . S
C1558 C1559 1.391 . S
C1559 H1547 0.950 . S
C1559 C1555 1.393 . S
C1559 C1558 1.391 . S
H1560 C1568 0.950 . S
H1561 C1573 0.950 . S
H1562 C1570 0.950 . S
H1563 C1572 0.950 . S
H1564 C1574 0.950 . S
H1565 C1576 0.950 . S
H1566 C1578 0.950 . S
H1567 C1579 0.950 . S
C1568 H1560 0.950 . S
C1568 C1569 1.386 . S
C1568 C1570 1.391 . S
C1569 C1568 1.386 . S
C1569 C1573 1.393 . S
C1570 H1562 0.950 . S
C1570 C1568 1.391 . S
C1570 C1571 1.400 . S
C1571 C1570 1.400 . S
C1571 C1572 1.398 . S
C1571 C1577 1.491 1_554 S
C1572 H1563 0.950 . S
C1572 C1571 1.398 . S
C1572 C1573 1.391 . S
C1573 H1561 0.950 . S
C1573 C1569 1.393 . S
C1573 C1572 1.391 . S
C1574 H1564 0.950 . S
C1574 C1575 1.386 . S
C1574 C1576 1.391 . S
C1575 C1574 1.386 . S
C1575 C1579 1.393 . S
C1576 H1565 0.950 . S
C1576 C1574 1.391 . S
C1576 C1577 1.400 . S
C1577 C1571 1.491 1_556 S
C1577 C1576 1.400 . S
C1577 C1578 1.398 . S
C1578 H1566 0.950 . S
C1578 C1577 1.398 . S
C1578 C1579 1.391 . S
C1579 H1567 0.950 . S
C1579 C1575 1.393 . S
C1579 C1578 1.391 . S
H1580 C1588 0.950 . S
H1581 C1593 0.950 . S
H1582 C1590 0.950 . S
H1583 C1592 0.950 . S
H1584 C1594 0.950 . S
H1585 C1596 0.950 . S
H1586 C1598 0.950 . S
H1587 C1599 0.950 . S
C1588 H1580 0.950 . S
C1588 C1589 1.386 . S
C1588 C1590 1.391 . S
C1589 C1588 1.386 . S
C1589 C1593 1.393 . S
C1590 H1582 0.950 . S
C1590 C1588 1.391 . S
C1590 C1591 1.400 . S
C1591 C1590 1.400 . S
C1591 C1592 1.398 . S
C1591 C1597 1.491 1_556 S
C1592 H1583 0.950 . S
C1592 C1591 1.398 . S
C1592 C1593 1.391 . S
C1593 H1581 0.950 . S
C1593 C1589 1.393 . S
C1593 C1592 1.391 . S
C1594 H1584 0.950 . S
C1594 C1595 1.386 . S
C1594 C1596 1.391 . S
C1595 C1594 1.386 . S
C1595 C1599 1.393 . S
C1596 H1585 0.950 . S
C1596 C1594 1.391 . S
C1596 C1597 1.400 . S
C1597 C1591 1.491 1_554 S
C1597 C1596 1.400 . S
C1597 C1598 1.398 . S
C1598 H1586 0.950 . S
C1598 C1597 1.398 . S
C1598 C1599 1.391 . S
C1599 H1587 0.950 . S
C1599 C1595 1.393 . S
C1599 C1598 1.391 . S
H1600 C1608 0.950 . S
H1601 C1613 0.950 . S
H1602 C1610 0.950 . S
H1603 C1612 0.950 . S
H1604 C1614 0.950 . S
H1605 C1616 0.950 . S
H1606 C1618 0.950 . S
H1607 C1619 0.950 . S
C1608 H1600 0.950 . S
C1608 C1609 1.386 1_554 S
C1608 C1610 1.391 . S
C1609 C1608 1.386 1_556 S
C1609 C1613 1.393 1_556 S
C1610 H1602 0.950 . S
C1610 C1608 1.391 . S
C1610 C1611 1.400 . S
C1611 C1610 1.400 . S
C1611 C1612 1.398 . S
C1611 C1617 1.491 . S
C1612 H1603 0.950 . S
C1612 C1611 1.398 . S
C1612 C1613 1.391 . S
C1613 H1601 0.950 . S
C1613 C1609 1.393 1_554 S
C1613 C1612 1.391 . S
C1614 H1604 0.950 . S
C1614 C1615 1.386 . S
C1614 C1616 1.391 . S
C1615 C1614 1.386 . S
C1615 C1619 1.393 . S
C1616 H1605 0.950 . S
C1616 C1614 1.391 . S
C1616 C1617 1.400 . S
C1617 C1611 1.491 . S
C1617 C1616 1.400 . S
C1617 C1618 1.398 . S
C1618 H1606 0.950 . S
C1618 C1617 1.398 . S
C1618 C1619 1.391 . S
C1619 H1607 0.950 . S
C1619 C1615 1.393 . S
C1619 C1618 1.391 . S
H1620 C1628 0.950 . S
H1621 C1633 0.950 . S
H1622 C1630 0.950 . S
H1623 C1632 0.950 . S
H1624 C1634 0.949 1_556 S
H1625 C1636 0.950 . S
H1626 C1638 0.950 . S
H1627 C1639 0.950 . S
C1628 H1620 0.950 . S
C1628 C1629 1.394 . S
C1628 C1630 1.391 . S
C1629 C1628 1.394 . S
C1629 C1633 1.385 1_565 S
C1630 H1622 0.950 . S
C1630 C1628 1.391 . S
C1630 C1631 1.400 . S
C1631 C1630 1.400 . S
C1631 C1632 1.398 1_565 S
C1631 C1637 1.491 . S
C1632 H1623 0.950 . S
C1632 C1631 1.398 1_545 S
C1632 C1633 1.391 . S
C1633 H1621 0.950 . S
C1633 C1629 1.385 1_545 S
C1633 C1632 1.391 . S
C1634 H1624 0.949 1_554 S
C1634 C1635 1.386 1_544 S
C1634 C1636 1.391 . S
C1635 C1634 1.386 1_566 S
C1635 C1639 1.393 1_556 S
C1636 H1625 0.950 . S
C1636 C1634 1.391 . S
C1636 C1637 1.400 1_545 S
C1637 C1631 1.491 . S
C1637 C1636 1.400 1_565 S
C1637 C1638 1.398 . S
C1638 H1626 0.950 . S
C1638 C1637 1.398 . S
C1638 C1639 1.391 . S
C1639 H1627 0.950 . S
C1639 C1635 1.393 1_554 S
C1639 C1638 1.391 . S
H1640 C1648 0.950 . S
H1641 C1653 0.950 . S
H1642 C1650 0.950 . S
H1643 C1652 0.950 . S
H1644 C1654 0.950 . S
H1645 C1656 0.950 . S
H1646 C1658 0.950 . S
H1647 C1659 0.950 . S
C1648 H1640 0.950 . S
C1648 C1649 1.421 . S
C1648 C1650 1.391 . S
C1649 C1648 1.421 . S
C1649 C1653 1.358 1_565 S
C1650 H1642 0.950 . S
C1650 C1648 1.391 . S
C1650 C1651 1.400 . S
C1651 C1650 1.400 . S
C1651 C1652 1.398 1_565 S
C1651 C1657 1.491 1_556 S
C1652 H1643 0.950 . S
C1652 C1651 1.398 1_545 S
C1652 C1653 1.391 . S
C1653 H1641 0.950 . S
C1653 C1649 1.358 1_545 S
C1653 C1652 1.391 . S
C1654 H1644 0.950 . S
C1654 C1655 1.386 1_545 S
C1654 C1656 1.391 . S
C1655 C1654 1.386 1_565 S
C1655 C1659 1.393 . S
C1656 H1645 0.950 . S
C1656 C1654 1.391 . S
C1656 C1657 1.400 1_545 S
C1657 C1651 1.491 1_554 S
C1657 C1656 1.400 1_565 S
C1657 C1658 1.398 . S
C1658 H1646 0.950 . S
C1658 C1657 1.398 . S
C1658 C1659 1.391 . S
C1659 H1647 0.950 . S
C1659 C1655 1.393 . S
C1659 C1658 1.391 . S
H1660 C1668 0.950 . S
H1661 C1673 0.950 . S
H1662 C1670 0.950 . S
H1663 C1672 0.950 . S
H1664 C1674 0.950 . S
H1665 C1676 0.950 . S
H1666 C1678 0.950 . S
H1667 C1679 0.950 . S
C1668 H1660 0.950 . S
C1668 C1669 1.386 . S
C1668 C1670 1.391 . S
C1669 C1668 1.386 . S
C1669 C1673 1.393 . S
C1670 H1662 0.950 . S
C1670 C1668 1.391 . S
C1670 C1671 1.400 . S
C1671 C1670 1.400 . S
C1671 C1672 1.398 . S
C1671 C1677 1.491 1_556 S
C1672 H1663 0.950 . S
C1672 C1671 1.398 . S
C1672 C1673 1.391 . S
C1673 H1661 0.950 . S
C1673 C1669 1.393 . S
C1673 C1672 1.391 . S
C1674 H1664 0.950 . S
C1674 C1675 1.386 . S
C1674 C1676 1.391 . S
C1675 C1674 1.386 . S
C1675 C1679 1.393 . S
C1676 H1665 0.950 . S
C1676 C1674 1.391 . S
C1676 C1677 1.400 . S
C1677 C1671 1.491 1_554 S
C1677 C1676 1.400 . S
C1677 C1678 1.398 . S
C1678 H1666 0.950 . S
C1678 C1677 1.398 . S
C1678 C1679 1.391 . S
C1679 H1667 0.950 . S
C1679 C1675 1.393 . S
C1679 C1678 1.391 . S
H1680 C1688 0.950 . S
H1681 C1693 0.950 . S
H1682 C1690 0.950 . S
H1683 C1692 0.950 . S
H1684 C1694 0.950 . S
H1685 C1696 0.950 . S
H1686 C1698 0.950 . S
H1687 C1699 0.950 . S
C1688 H1680 0.950 . S
C1688 C1689 1.386 1_556 S
C1688 C1690 1.391 . S
C1689 C1688 1.386 1_554 S
C1689 C1693 1.393 1_554 S
C1690 H1682 0.950 . S
C1690 C1688 1.391 . S
C1690 C1691 1.400 . S
C1691 C1690 1.400 . S
C1691 C1692 1.398 . S
C1691 C1697 1.491 . S
C1692 H1683 0.950 . S
C1692 C1691 1.398 . S
C1692 C1693 1.391 . S
C1693 H1681 0.950 . S
C1693 C1689 1.393 1_556 S
C1693 C1692 1.391 . S
C1694 H1684 0.950 . S
C1694 C1695 1.386 . S
C1694 C1696 1.391 . S
C1695 C1694 1.386 . S
C1695 C1699 1.393 . S
C1696 H1685 0.950 . S
C1696 C1694 1.391 . S
C1696 C1697 1.400 . S
C1697 C1691 1.491 . S
C1697 C1696 1.400 . S
C1697 C1698 1.398 . S
C1698 H1686 0.950 . S
C1698 C1697 1.398 . S
C1698 C1699 1.391 . S
C1699 H1687 0.950 . S
C1699 C1695 1.393 . S
C1699 C1698 1.391 . S
H1700 C1708 0.950 . S
H1701 C1713 0.950 . S
H1702 C1710 0.950 . S
H1703 C1712 0.950 . S
H1704 C1714 0.950 . S
H1705 C1716 0.950 . S
H1706 C1718 0.950 . S
H1707 C1719 0.950 . S
C1708 H1700 0.950 . S
C1708 C1709 1.386 . S
C1708 C1710 1.391 . S
C1709 C1708 1.386 . S
C1709 C1713 1.393 1_545 S
C1710 H1702 0.950 . S
C1710 C1708 1.391 . S
C1710 C1711 1.400 . S
C1711 C1710 1.400 . S
C1711 C1712 1.398 1_545 S
C1711 C1717 1.491 . S
C1712 H1703 0.950 . S
C1712 C1711 1.398 1_565 S
C1712 C1713 1.391 . S
C1713 H1701 0.950 . S
C1713 C1709 1.393 1_565 S
C1713 C1712 1.391 . S
C1714 H1704 0.950 . S
C1714 C1715 1.386 1_566 S
C1714 C1716 1.391 . S
C1715 C1714 1.386 1_544 S
C1715 C1719 1.393 1_554 S
C1716 H1705 0.950 . S
C1716 C1714 1.391 . S
C1716 C1717 1.400 1_565 S
C1717 C1711 1.491 . S
C1717 C1716 1.400 1_545 S
C1717 C1718 1.398 . S
C1718 H1706 0.950 . S
C1718 C1717 1.398 . S
C1718 C1719 1.391 . S
C1719 H1707 0.950 . S
C1719 C1715 1.393 1_556 S
C1719 C1718 1.391 . S
H1720 C1728 0.950 . S
H1721 C1733 0.950 . S
H1722 C1730 0.950 . S
H1723 C1732 0.950 . S
H1724 C1734 0.950 . S
H1725 C1736 0.950 . S
H1726 C1738 0.950 . S
H1727 C1739 0.950 . S
C1728 H1720 0.950 . S
C1728 C1729 1.386 . S
C1728 C1730 1.391 . S
C1729 C1728 1.386 . S
C1729 C1733 1.393 1_545 S
C1730 H1722 0.950 . S
C1730 C1728 1.391 . S
C1730 C1731 1.400 . S
C1731 C1730 1.400 . S
C1731 C1732 1.398 1_545 S
C1731 C1737 1.491 1_556 S
C1732 H1723 0.950 . S
C1732 C1731 1.398 1_565 S
C1732 C1733 1.391 . S
C1733 H1721 0.950 . S
C1733 C1729 1.393 1_565 S
C1733 C1732 1.391 . S
C1734 H1724 0.950 . S
C1734 C1735 1.369 1_565 S
C1734 C1736 1.391 . S
C1735 C1734 1.369 1_545 S
C1735 C1739 1.409 . S
C1736 H1725 0.950 . S
C1736 C1734 1.391 . S
C1736 C1737 1.400 1_565 S
C1737 C1731 1.491 1_554 S
C1737 C1736 1.400 1_545 S
C1737 C1738 1.398 . S
C1738 H1726 0.950 . S
C1738 C1737 1.398 . S
C1738 C1739 1.391 . S
C1739 H1727 0.950 . S
C1739 C1735 1.409 . S
C1739 C1738 1.391 . S
H1740 C1748 0.950 . S
H1741 C1753 0.950 . S
H1742 C1750 0.950 . S
H1743 C1752 0.950 . S
H1744 C1754 0.950 . S
H1745 C1756 0.950 . S
H1746 C1758 0.950 . S
H1747 C1759 0.950 . S
C1748 H1740 0.950 . S
C1748 C1749 1.386 . S
C1748 C1750 1.391 . S
C1749 C1748 1.386 . S
C1749 C1753 1.393 . S
C1750 H1742 0.950 . S
C1750 C1748 1.391 . S
C1750 C1751 1.400 . S
C1751 C1750 1.400 . S
C1751 C1752 1.398 . S
C1751 C1757 1.491 1_556 S
C1752 H1743 0.950 . S
C1752 C1751 1.398 . S
C1752 C1753 1.391 . S
C1753 H1741 0.950 . S
C1753 C1749 1.393 . S
C1753 C1752 1.391 . S
C1754 H1744 0.950 . S
C1754 C1755 1.386 . S
C1754 C1756 1.391 . S
C1755 C1754 1.386 . S
C1755 C1759 1.393 . S
C1756 H1745 0.950 . S
C1756 C1754 1.391 . S
C1756 C1757 1.400 . S
C1757 C1751 1.491 1_554 S
C1757 C1756 1.400 . S
C1757 C1758 1.398 . S
C1758 H1746 0.950 . S
C1758 C1757 1.398 . S
C1758 C1759 1.391 . S
C1759 H1747 0.950 . S
C1759 C1755 1.393 . S
C1759 C1758 1.391 . S
H1760 C1768 0.950 . S
H1761 C1773 0.950 . S
H1762 C1770 0.950 . S
H1763 C1772 0.950 . S
H1764 C1774 0.950 . S
H1765 C1776 0.950 . S
H1766 C1778 0.950 . S
H1767 C1779 0.950 . S
C1768 H1760 0.950 . S
C1768 C1769 1.386 . S
C1768 C1770 1.391 . S
C1769 C1768 1.386 . S
C1769 C1773 1.393 . S
C1770 H1762 0.950 . S
C1770 C1768 1.391 . S
C1770 C1771 1.400 . S
C1771 C1770 1.400 . S
C1771 C1772 1.398 . S
C1771 C1777 1.491 . S
C1772 H1763 0.950 . S
C1772 C1771 1.398 . S
C1772 C1773 1.391 . S
C1773 H1761 0.950 . S
C1773 C1769 1.393 . S
C1773 C1772 1.391 . S
C1774 H1764 0.950 . S
C1774 C1775 1.386 . S
C1774 C1776 1.391 . S
C1775 C1774 1.386 . S
C1775 C1779 1.393 . S
C1776 H1765 0.950 . S
C1776 C1774 1.391 . S
C1776 C1777 1.400 . S
C1777 C1771 1.491 . S
C1777 C1776 1.400 . S
C1777 C1778 1.398 . S
C1778 H1766 0.950 . S
C1778 C1777 1.398 . S
C1778 C1779 1.391 . S
C1779 H1767 0.950 . S
C1779 C1775 1.393 . S
C1779 C1778 1.391 . S
H1780 C1788 0.950 . S
H1781 C1793 0.950 . S
H1782 C1790 0.950 . S
H1783 C1792 0.950 . S
H1784 C1794 0.950 . S
H1785 C1796 0.950 . S
H1786 C1798 0.950 . S
H1787 C1799 0.950 . S
C1788 H1780 0.950 . S
C1788 C1789 1.386 . S
C1788 C1790 1.391 . S
C1789 C1788 1.386 . S
C1789 C1793 1.393 . S
C1790 H1782 0.950 . S
C1790 C1788 1.391 . S
C1790 C1791 1.400 . S
C1791 C1790 1.400 . S
C1791 C1792 1.398 . S
C1791 C1797 1.491 . S
C1792 H1783 0.950 . S
C1792 C1791 1.398 . S
C1792 C1793 1.391 . S
C1793 H1781 0.950 . S
C1793 C1789 1.393 . S
C1793 C1792 1.391 . S
C1794 H1784 0.950 . S
C1794 C1795 1.386 . S
C1794 C1796 1.391 . S
C1795 C1794 1.386 . S
C1795 C1799 1.393 . S
C1796 H1785 0.950 . S
C1796 C1794 1.391 . S
C1796 C1797 1.400 . S
C1797 C1791 1.491 . S
C1797 C1796 1.400 . S
C1797 C1798 1.398 . S
C1798 H1786 0.950 . S
C1798 C1797 1.398 . S
C1798 C1799 1.391 . S
C1799 H1787 0.950 . S
C1799 C1795 1.393 . S
C1799 C1798 1.391 . S
H1800 C1808 0.950 . S
H1801 C1813 0.950 . S
H1802 C1810 0.950 . S
H1803 C1812 0.950 . S
H1804 C1814 0.950 . S
H1805 C1816 0.950 . S
H1806 C1818 0.950 . S
H1807 C1819 0.950 . S
C1808 H1800 0.950 . S
C1808 C1809 1.386 . S
C1808 C1810 1.391 . S
C1809 C1808 1.386 . S
C1809 C1813 1.393 . S
C1810 H1802 0.950 . S
C1810 C1808 1.391 . S
C1810 C1811 1.400 . S
C1811 C1810 1.400 . S
C1811 C1812 1.398 . S
C1811 C1817 1.491 . S
C1812 H1803 0.950 . S
C1812 C1811 1.398 . S
C1812 C1813 1.391 . S
C1813 H1801 0.950 . S
C1813 C1809 1.393 . S
C1813 C1812 1.391 . S
C1814 H1804 0.950 . S
C1814 C1815 1.386 . S
C1814 C1816 1.391 . S
C1815 C1814 1.386 . S
C1815 C1819 1.393 . S
C1816 H1805 0.950 . S
C1816 C1814 1.391 . S
C1816 C1817 1.400 . S
C1817 C1811 1.491 . S
C1817 C1816 1.400 . S
C1817 C1818 1.398 . S
C1818 H1806 0.950 . S
C1818 C1817 1.398 . S
C1818 C1819 1.391 . S
C1819 H1807 0.950 . S
C1819 C1815 1.393 . S
C1819 C1818 1.391 . S
H1820 C1828 0.950 . S
H1821 C1833 0.950 . S
H1822 C1830 0.950 . S
H1823 C1832 0.950 . S
H1824 C1834 0.950 . S
H1825 C1836 0.950 . S
H1826 C1838 0.950 . S
H1827 C1839 0.950 . S
C1828 H1820 0.950 . S
C1828 C1829 1.386 . S
C1828 C1830 1.391 . S
C1829 C1828 1.386 . S
C1829 C1833 1.393 . S
C1830 H1822 0.950 . S
C1830 C1828 1.391 . S
C1830 C1831 1.400 . S
C1831 C1830 1.400 . S
C1831 C1832 1.398 . S
C1831 C1837 1.491 . S
C1832 H1823 0.950 . S
C1832 C1831 1.398 . S
C1832 C1833 1.391 . S
C1833 H1821 0.950 . S
C1833 C1829 1.393 . S
C1833 C1832 1.391 . S
C1834 H1824 0.950 . S
C1834 C1835 1.386 . S
C1834 C1836 1.391 . S
C1835 C1834 1.386 . S
C1835 C1839 1.393 . S
C1836 H1825 0.950 . S
C1836 C1834 1.391 . S
C1836 C1837 1.400 . S
C1837 C1831 1.491 . S
C1837 C1836 1.400 . S
C1837 C1838 1.398 . S
C1838 H1826 0.950 . S
C1838 C1837 1.398 . S
C1838 C1839 1.391 . S
C1839 H1827 0.950 . S
C1839 C1835 1.393 . S
C1839 C1838 1.391 . S
H1840 C1848 0.950 . S
H1841 C1853 0.950 . S
H1842 C1850 0.950 . S
H1843 C1852 0.950 . S
H1844 C1854 0.950 . S
H1845 C1856 0.950 . S
H1846 C1858 0.950 . S
H1847 C1859 0.950 . S
C1848 H1840 0.950 . S
C1848 C1849 1.386 . S
C1848 C1850 1.391 . S
C1849 C1848 1.386 . S
C1849 C1853 1.393 . S
C1850 H1842 0.950 . S
C1850 C1848 1.391 . S
C1850 C1851 1.400 . S
C1851 C1850 1.400 . S
C1851 C1852 1.398 . S
C1851 C1857 1.491 . S
C1852 H1843 0.950 . S
C1852 C1851 1.398 . S
C1852 C1853 1.391 . S
C1853 H1841 0.950 . S
C1853 C1849 1.393 . S
C1853 C1852 1.391 . S
C1854 H1844 0.950 . S
C1854 C1855 1.386 . S
C1854 C1856 1.391 . S
C1855 C1854 1.386 . S
C1855 C1859 1.393 . S
C1856 H1845 0.950 . S
C1856 C1854 1.391 . S
C1856 C1857 1.400 . S
C1857 C1851 1.491 . S
C1857 C1856 1.400 . S
C1857 C1858 1.398 . S
C1858 H1846 0.950 . S
C1858 C1857 1.398 . S
C1858 C1859 1.391 . S
C1859 H1847 0.950 . S
C1859 C1855 1.393 . S
C1859 C1858 1.391 . S
H1860 C1868 0.950 . S
H1861 C1873 0.950 . S
H1862 C1870 0.950 . S
H1863 C1872 0.950 . S
H1864 C1874 0.950 . S
H1865 C1876 0.950 . S
H1866 C1878 0.950 . S
H1867 C1879 0.950 . S
C1868 H1860 0.950 . S
C1868 C1869 1.386 . S
C1868 C1870 1.391 . S
C1869 C1868 1.386 . S
C1869 C1873 1.393 . S
C1870 H1862 0.950 . S
C1870 C1868 1.391 . S
C1870 C1871 1.400 . S
C1871 C1870 1.400 . S
C1871 C1872 1.398 . S
C1871 C1877 1.491 . S
C1872 H1863 0.950 . S
C1872 C1871 1.398 . S
C1872 C1873 1.391 . S
C1873 H1861 0.950 . S
C1873 C1869 1.393 . S
C1873 C1872 1.391 . S
C1874 H1864 0.950 . S
C1874 C1875 1.386 . S
C1874 C1876 1.391 . S
C1875 C1874 1.386 . S
C1875 C1879 1.393 . S
C1876 H1865 0.950 . S
C1876 C1874 1.391 . S
C1876 C1877 1.400 . S
C1877 C1871 1.491 . S
C1877 C1876 1.400 . S
C1877 C1878 1.398 . S
C1878 H1866 0.950 . S
C1878 C1877 1.398 . S
C1878 C1879 1.391 . S
C1879 H1867 0.950 . S
C1879 C1875 1.393 . S
C1879 C1878 1.391 . S
H1880 C1888 0.950 . S
H1881 C1893 0.950 . S
H1882 C1890 0.950 . S
H1883 C1892 0.950 . S
H1884 C1894 0.950 . S
H1885 C1896 0.950 . S
H1886 C1898 0.950 . S
H1887 C1899 0.950 . S
C1888 H1880 0.950 . S
C1888 C1889 1.386 . S
C1888 C1890 1.391 . S
C1889 C1888 1.386 . S
C1889 C1893 1.393 . S
C1890 H1882 0.950 . S
C1890 C1888 1.391 . S
C1890 C1891 1.400 . S
C1891 C1890 1.400 . S
C1891 C1892 1.398 . S
C1891 C1897 1.491 . S
C1892 H1883 0.950 . S
C1892 C1891 1.398 . S
C1892 C1893 1.391 . S
C1893 H1881 0.950 . S
C1893 C1889 1.393 . S
C1893 C1892 1.391 . S
C1894 H1884 0.950 . S
C1894 C1895 1.386 . S
C1894 C1896 1.391 . S
C1895 C1894 1.386 . S
C1895 C1899 1.393 . S
C1896 H1885 0.950 . S
C1896 C1894 1.391 . S
C1896 C1897 1.400 . S
C1897 C1891 1.491 . S
C1897 C1896 1.400 . S
C1897 C1898 1.398 . S
C1898 H1886 0.950 . S
C1898 C1897 1.398 . S
C1898 C1899 1.391 . S
C1899 H1887 0.950 . S
C1899 C1895 1.393 . S
C1899 C1898 1.391 . S
H1900 C1908 0.950 . S
H1901 C1913 0.950 . S
H1902 C1910 0.950 . S
H1903 C1912 0.950 . S
H1904 C1914 0.950 . S
H1905 C1916 0.950 . S
H1906 C1918 0.950 . S
H1907 C1919 0.950 . S
C1908 H1900 0.950 . S
C1908 C1909 1.386 . S
C1908 C1910 1.391 . S
C1909 C1908 1.386 . S
C1909 C1913 1.393 . S
C1910 H1902 0.950 . S
C1910 C1908 1.391 . S
C1910 C1911 1.400 . S
C1911 C1910 1.400 . S
C1911 C1912 1.398 . S
C1911 C1917 1.491 . S
C1912 H1903 0.950 . S
C1912 C1911 1.398 . S
C1912 C1913 1.391 . S
C1913 H1901 0.950 . S
C1913 C1909 1.393 . S
C1913 C1912 1.391 . S
C1914 H1904 0.950 . S
C1914 C1915 1.386 . S
C1914 C1916 1.391 . S
C1915 C1914 1.386 . S
C1915 C1919 1.393 . S
C1916 H1905 0.950 . S
C1916 C1914 1.391 . S
C1916 C1917 1.400 . S
C1917 C1911 1.491 . S
C1917 C1916 1.400 . S
C1917 C1918 1.398 . S
C1918 H1906 0.950 . S
C1918 C1917 1.398 . S
C1918 C1919 1.391 . S
C1919 H1907 0.950 . S
C1919 C1915 1.393 . S
C1919 C1918 1.391 . S
H1920 C1928 0.950 . S
H1921 C1933 0.950 . S
H1922 C1930 0.950 . S
H1923 C1932 0.950 . S
H1924 C1934 0.950 . S
H1925 C1936 0.950 . S
H1926 C1938 0.950 . S
H1927 C1939 0.950 . S
C1928 H1920 0.950 . S
C1928 C1929 1.386 . S
C1928 C1930 1.391 . S
C1929 C1928 1.386 . S
C1929 C1933 1.393 . S
C1930 H1922 0.950 . S
C1930 C1928 1.391 . S
C1930 C1931 1.400 . S
C1931 C1930 1.400 . S
C1931 C1932 1.398 . S
C1931 C1937 1.491 . S
C1932 H1923 0.950 . S
C1932 C1931 1.398 . S
C1932 C1933 1.391 . S
C1933 H1921 0.950 . S
C1933 C1929 1.393 . S
C1933 C1932 1.391 . S
C1934 H1924 0.950 . S
C1934 C1935 1.386 . S
C1934 C1936 1.391 . S
C1935 C1934 1.386 . S
C1935 C1939 1.393 . S
C1936 H1925 0.950 . S
C1936 C1934 1.391 . S
C1936 C1937 1.400 . S
C1937 C1931 1.491 . S
C1937 C1936 1.400 . S
C1937 C1938 1.398 . S
C1938 H1926 0.950 . S
C1938 C1937 1.398 . S
C1938 C1939 1.391 . S
C1939 H1927 0.950 . S
C1939 C1935 1.393 . S
C1939 C1938 1.391 . S
H1940 C1948 0.950 . S
H1941 C1953 0.950 . S
H1942 C1950 0.950 . S
H1943 C1952 0.950 . S
H1944 C1954 0.950 . S
H1945 C1956 0.950 . S
H1946 C1958 0.950 . S
H1947 C1959 0.950 . S
C1948 H1940 0.950 . S
C1948 C1949 1.386 . S
C1948 C1950 1.391 . S
C1949 C1948 1.386 . S
C1949 C1953 1.393 . S
C1950 H1942 0.950 . S
C1950 C1948 1.391 . S
C1950 C1951 1.400 . S
C1951 C1950 1.400 . S
C1951 C1952 1.398 . S
C1951 C1957 1.491 . S
C1952 H1943 0.950 . S
C1952 C1951 1.398 . S
C1952 C1953 1.391 . S
C1953 H1941 0.950 . S
C1953 C1949 1.393 . S
C1953 C1952 1.391 . S
C1954 H1944 0.950 . S
C1954 C1955 1.386 . S
C1954 C1956 1.391 . S
C1955 C1954 1.386 . S
C1955 C1959 1.393 . S
C1956 H1945 0.950 . S
C1956 C1954 1.391 . S
C1956 C1957 1.400 . S
C1957 C1951 1.491 . S
C1957 C1956 1.400 . S
C1957 C1958 1.398 . S
C1958 H1946 0.950 . S
C1958 C1957 1.398 . S
C1958 C1959 1.391 . S
C1959 H1947 0.950 . S
C1959 C1955 1.393 . S
C1959 C1958 1.391 . S
H1960 C1968 0.950 . S
H1961 C1973 0.950 . S
H1962 C1970 0.950 . S
H1963 C1972 0.950 . S
H1964 C1974 0.950 . S
H1965 C1976 0.950 . S
H1966 C1978 0.950 . S
H1967 C1979 0.950 . S
C1968 H1960 0.950 . S
C1968 C1969 1.386 . S
C1968 C1970 1.391 . S
C1969 C1968 1.386 . S
C1969 C1973 1.393 . S
C1970 H1962 0.950 . S
C1970 C1968 1.391 . S
C1970 C1971 1.400 . S
C1971 C1970 1.400 . S
C1971 C1972 1.398 . S
C1971 C1977 1.491 . S
C1972 H1963 0.950 . S
C1972 C1971 1.398 . S
C1972 C1973 1.391 . S
C1973 H1961 0.950 . S
C1973 C1969 1.393 . S
C1973 C1972 1.391 . S
C1974 H1964 0.950 . S
C1974 C1975 1.386 . S
C1974 C1976 1.391 . S
C1975 C1974 1.386 . S
C1975 C1979 1.393 . S
C1976 H1965 0.950 . S
C1976 C1974 1.391 . S
C1976 C1977 1.400 . S
C1977 C1971 1.491 . S
C1977 C1976 1.400 . S
C1977 C1978 1.398 . S
C1978 H1966 0.950 . S
C1978 C1977 1.398 . S
C1978 C1979 1.391 . S
C1979 H1967 0.950 . S
C1979 C1975 1.393 . S
C1979 C1978 1.391 . S
H1980 C1988 0.950 . S
H1981 C1993 0.950 . S
H1982 C1990 0.950 . S
H1983 C1992 0.950 . S
H1984 C1994 0.950 . S
H1985 C1996 0.950 . S
H1986 C1998 0.950 . S
H1987 C1999 0.950 . S
C1988 H1980 0.950 . S
C1988 C1989 1.386 . S
C1988 C1990 1.391 . S
C1989 C1988 1.386 . S
C1989 C1993 1.393 . S
C1990 H1982 0.950 . S
C1990 C1988 1.391 . S
C1990 C1991 1.400 . S
C1991 C1990 1.400 . S
C1991 C1992 1.398 . S
C1991 C1997 1.491 . S
C1992 H1983 0.950 . S
C1992 C1991 1.398 . S
C1992 C1993 1.391 . S
C1993 H1981 0.950 . S
C1993 C1989 1.393 . S
C1993 C1992 1.391 . S
C1994 H1984 0.950 . S
C1994 C1995 1.386 . S
C1994 C1996 1.391 . S
C1995 C1994 1.386 . S
C1995 C1999 1.393 . S
C1996 H1985 0.950 . S
C1996 C1994 1.391 . S
C1996 C1997 1.400 . S
C1997 C1991 1.491 . S
C1997 C1996 1.400 . S
C1997 C1998 1.398 . S
C1998 H1986 0.950 . S
C1998 C1997 1.398 . S
C1998 C1999 1.391 . S
C1999 H1987 0.950 . S
C1999 C1995 1.393 . S
C1999 C1998 1.391 . S
H2000 C2008 0.950 . S
H2001 C2013 0.950 . S
H2002 C2010 0.950 . S
H2003 C2012 0.950 . S
H2004 C2014 0.950 . S
H2005 C2016 0.950 . S
H2006 C2018 0.950 . S
H2007 C2019 0.950 . S
C2008 H2000 0.950 . S
C2008 C2009 1.386 . S
C2008 C2010 1.391 . S
C2009 C2008 1.386 . S
C2009 C2013 1.393 . S
C2010 H2002 0.950 . S
C2010 C2008 1.391 . S
C2010 C2011 1.400 . S
C2011 C2010 1.400 . S
C2011 C2012 1.398 . S
C2011 C2017 1.491 . S
C2012 H2003 0.950 . S
C2012 C2011 1.398 . S
C2012 C2013 1.391 . S
C2013 H2001 0.950 . S
C2013 C2009 1.393 . S
C2013 C2012 1.391 . S
C2014 H2004 0.950 . S
C2014 C2015 1.386 . S
C2014 C2016 1.391 . S
C2015 C2014 1.386 . S
C2015 C2019 1.393 . S
C2016 H2005 0.950 . S
C2016 C2014 1.391 . S
C2016 C2017 1.400 . S
C2017 C2011 1.491 . S
C2017 C2016 1.400 . S
C2017 C2018 1.398 . S
C2018 H2006 0.950 . S
C2018 C2017 1.398 . S
C2018 C2019 1.391 . S
C2019 H2007 0.950 . S
C2019 C2015 1.393 . S
C2019 C2018 1.391 . S
H2020 C2028 0.950 . S
H2021 C2033 0.950 . S
H2022 C2030 0.950 . S
H2023 C2032 0.950 . S
H2024 C2034 0.950 . S
H2025 C2036 0.950 . S
H2026 C2038 0.950 . S
H2027 C2039 0.950 . S
C2028 H2020 0.950 . S
C2028 C2029 1.386 . S
C2028 C2030 1.391 . S
C2029 C2028 1.386 . S
C2029 C2033 1.393 . S
C2030 H2022 0.950 . S
C2030 C2028 1.391 . S
C2030 C2031 1.400 . S
C2031 C2030 1.400 . S
C2031 C2032 1.398 . S
C2031 C2037 1.491 . S
C2032 H2023 0.950 . S
C2032 C2031 1.398 . S
C2032 C2033 1.391 . S
C2033 H2021 0.950 . S
C2033 C2029 1.393 . S
C2033 C2032 1.391 . S
C2034 H2024 0.950 . S
C2034 C2035 1.386 . S
C2034 C2036 1.391 . S
C2035 C2034 1.386 . S
C2035 C2039 1.393 . S
C2036 H2025 0.950 . S
C2036 C2034 1.391 . S
C2036 C2037 1.400 . S
C2037 C2031 1.491 . S
C2037 C2036 1.400 . S
C2037 C2038 1.398 . S
C2038 H2026 0.950 . S
C2038 C2037 1.398 . S
C2038 C2039 1.391 . S
C2039 H2027 0.950 . S
C2039 C2035 1.393 . S
C2039 C2038 1.391 . S
H2040 C2048 0.950 . S
H2041 C2053 0.950 . S
H2042 C2050 0.950 . S
H2043 C2052 0.950 . S
H2044 C2054 0.950 . S
H2045 C2056 0.950 . S
H2046 C2058 0.950 . S
H2047 C2059 0.950 . S
C2048 H2040 0.950 . S
C2048 C2049 1.386 . S
C2048 C2050 1.391 . S
C2049 C2048 1.386 . S
C2049 C2053 1.393 . S
C2050 H2042 0.950 . S
C2050 C2048 1.391 . S
C2050 C2051 1.400 . S
C2051 C2050 1.400 . S
C2051 C2052 1.398 . S
C2051 C2057 1.491 . S
C2052 H2043 0.950 . S
C2052 C2051 1.398 . S
C2052 C2053 1.391 . S
C2053 H2041 0.950 . S
C2053 C2049 1.393 . S
C2053 C2052 1.391 . S
C2054 H2044 0.950 . S
C2054 C2055 1.386 . S
C2054 C2056 1.391 . S
C2055 C2054 1.386 . S
C2055 C2059 1.393 . S
C2056 H2045 0.950 . S
C2056 C2054 1.391 . S
C2056 C2057 1.400 . S
C2057 C2051 1.491 . S
C2057 C2056 1.400 . S
C2057 C2058 1.398 . S
C2058 H2046 0.950 . S
C2058 C2057 1.398 . S
C2058 C2059 1.391 . S
C2059 H2047 0.950 . S
C2059 C2055 1.393 . S
C2059 C2058 1.391 . S
H2060 C2068 0.950 . S
H2061 C2073 0.950 . S
H2062 C2070 0.950 . S
H2063 C2072 0.950 1_556 S
H2064 C2074 0.950 . S
H2065 C2076 0.950 . S
H2066 C2078 0.950 . S
H2067 C2079 0.950 . S
C2068 H2060 0.950 . S
C2068 C2069 1.386 . S
C2068 C2070 1.391 . S
C2069 C2068 1.386 . S
C2069 C2073 1.393 1_554 S
C2070 H2062 0.950 . S
C2070 C2068 1.391 . S
C2070 C2071 1.400 . S
C2071 C2070 1.400 . S
C2071 C2072 1.398 . S
C2071 C2077 1.491 . S
C2072 H2063 0.950 1_554 S
C2072 C2071 1.398 . S
C2072 C2073 1.391 1_554 S
C2073 H2061 0.950 . S
C2073 C2069 1.393 1_556 S
C2073 C2072 1.391 1_556 S
C2074 H2064 0.950 . S
C2074 C2075 1.386 . S
C2074 C2076 1.391 . S
C2075 C2074 1.386 . S
C2075 C2079 1.393 . S
C2076 H2065 0.950 . S
C2076 C2074 1.391 . S
C2076 C2077 1.400 . S
C2077 C2071 1.491 . S
C2077 C2076 1.400 . S
C2077 C2078 1.398 . S
C2078 H2066 0.950 . S
C2078 C2077 1.398 . S
C2078 C2079 1.391 . S
C2079 H2067 0.950 . S
C2079 C2075 1.393 . S
C2079 C2078 1.391 . S
H2080 C2088 0.950 1_554 S
H2081 C2093 0.950 . S
H2082 C2090 0.950 . S
H2083 C2092 0.950 . S
H2084 C2094 0.950 . S
H2085 C2096 0.950 . S
H2086 C2098 0.950 . S
H2087 C2099 0.950 . S
C2088 H2080 0.950 1_556 S
C2088 C2089 1.386 . S
C2088 C2090 1.391 . S
C2089 C2088 1.386 . S
C2089 C2093 1.393 . S
C2090 H2082 0.950 . S
C2090 C2088 1.391 . S
C2090 C2091 1.400 . S
C2091 C2090 1.400 . S
C2091 C2092 1.398 . S
C2091 C2097 1.491 . S
C2092 H2083 0.950 . S
C2092 C2091 1.398 . S
C2092 C2093 1.391 . S
C2093 H2081 0.950 . S
C2093 C2089 1.393 . S
C2093 C2092 1.391 . S
C2094 H2084 0.950 . S
C2094 C2095 1.386 . S
C2094 C2096 1.391 . S
C2095 C2094 1.386 . S
C2095 C2099 1.393 . S
C2096 H2085 0.950 . S
C2096 C2094 1.391 . S
C2096 C2097 1.400 . S
C2097 C2091 1.491 . S
C2097 C2096 1.400 . S
C2097 C2098 1.398 . S
C2098 H2086 0.950 . S
C2098 C2097 1.398 . S
C2098 C2099 1.391 . S
C2099 H2087 0.950 . S
C2099 C2095 1.393 . S
C2099 C2098 1.391 . S
H2100 C2108 0.950 . S
H2101 C2113 0.950 . S
H2102 C2110 0.950 . S
H2103 C2112 0.950 . S
H2104 C2114 0.950 . S
H2105 C2116 0.950 . S
H2106 C2118 0.950 . S
H2107 C2119 0.950 . S
C2108 H2100 0.950 . S
C2108 C2109 1.386 . S
C2108 C2110 1.391 . S
C2109 C2108 1.386 . S
C2109 C2113 1.393 . S
C2110 H2102 0.950 . S
C2110 C2108 1.391 . S
C2110 C2111 1.400 . S
C2111 C2110 1.400 . S
C2111 C2112 1.398 . S
C2111 C2117 1.491 . S
C2112 H2103 0.950 . S
C2112 C2111 1.398 . S
C2112 C2113 1.391 . S
C2113 H2101 0.950 . S
C2113 C2109 1.393 . S
C2113 C2112 1.391 . S
C2114 H2104 0.950 . S
C2114 C2115 1.386 . S
C2114 C2116 1.391 . S
C2115 C2114 1.386 . S
C2115 C2119 1.393 . S
C2116 H2105 0.950 . S
C2116 C2114 1.391 . S
C2116 C2117 1.400 . S
C2117 C2111 1.491 . S
C2117 C2116 1.400 . S
C2117 C2118 1.398 . S
C2118 H2106 0.950 . S
C2118 C2117 1.398 . S
C2118 C2119 1.391 . S
C2119 H2107 0.950 . S
C2119 C2115 1.393 . S
C2119 C2118 1.391 . S
H2120 C2128 0.950 . S
H2121 C2133 0.950 . S
H2122 C2130 0.950 . S
H2123 C2132 0.950 . S
H2124 C2134 0.950 . S
H2125 C2136 0.950 . S
H2126 C2138 0.950 . S
H2127 C2139 0.950 . S
C2128 H2120 0.950 . S
C2128 C2129 1.386 . S
C2128 C2130 1.391 . S
C2129 C2128 1.386 . S
C2129 C2133 1.393 . S
C2130 H2122 0.950 . S
C2130 C2128 1.391 . S
C2130 C2131 1.400 . S
C2131 C2130 1.400 . S
C2131 C2132 1.398 . S
C2131 C2137 1.491 . S
C2132 H2123 0.950 . S
C2132 C2131 1.398 . S
C2132 C2133 1.391 . S
C2133 H2121 0.950 . S
C2133 C2129 1.393 . S
C2133 C2132 1.391 . S
C2134 H2124 0.950 . S
C2134 C2135 1.386 . S
C2134 C2136 1.391 . S
C2135 C2134 1.386 . S
C2135 C2139 1.393 . S
C2136 H2125 0.950 . S
C2136 C2134 1.391 . S
C2136 C2137 1.400 . S
C2137 C2131 1.491 . S
C2137 C2136 1.400 . S
C2137 C2138 1.398 . S
C2138 H2126 0.950 . S
C2138 C2137 1.398 . S
C2138 C2139 1.391 . S
C2139 H2127 0.950 . S
C2139 C2135 1.393 . S
C2139 C2138 1.391 . S
H2140 C2148 0.950 . S
H2141 C2153 0.950 . S
H2142 C2150 0.950 . S
H2143 C2152 0.950 . S
H2144 C2154 0.950 . S
H2145 C2156 0.950 . S
H2146 C2158 0.950 . S
H2147 C2159 0.950 . S
C2148 H2140 0.950 . S
C2148 C2149 1.386 . S
C2148 C2150 1.391 . S
C2149 C2148 1.386 . S
C2149 C2153 1.393 . S
C2150 H2142 0.950 . S
C2150 C2148 1.391 . S
C2150 C2151 1.400 . S
C2151 C2150 1.400 . S
C2151 C2152 1.398 . S
C2151 C2157 1.491 . S
C2152 H2143 0.950 . S
C2152 C2151 1.398 . S
C2152 C2153 1.391 . S
C2153 H2141 0.950 . S
C2153 C2149 1.393 . S
C2153 C2152 1.391 . S
C2154 H2144 0.950 . S
C2154 C2155 1.386 . S
C2154 C2156 1.391 . S
C2155 C2154 1.386 . S
C2155 C2159 1.393 . S
C2156 H2145 0.950 . S
C2156 C2154 1.391 . S
C2156 C2157 1.400 . S
C2157 C2151 1.491 . S
C2157 C2156 1.400 . S
C2157 C2158 1.398 . S
C2158 H2146 0.950 . S
C2158 C2157 1.398 . S
C2158 C2159 1.391 . S
C2159 H2147 0.950 . S
C2159 C2155 1.393 . S
C2159 C2158 1.391 . S
H2160 C2168 0.950 . S
H2161 C2173 0.950 . S
H2162 C2170 0.950 . S
H2163 C2172 0.950 . S
H2164 C2174 0.950 . S
H2165 C2176 0.950 . S
H2166 C2178 0.950 . S
H2167 C2179 0.950 . S
C2168 H2160 0.950 . S
C2168 C2169 1.386 . S
C2168 C2170 1.391 . S
C2169 C2168 1.386 . S
C2169 C2173 1.393 . S
C2170 H2162 0.950 . S
C2170 C2168 1.391 . S
C2170 C2171 1.400 . S
C2171 C2170 1.400 . S
C2171 C2172 1.398 . S
C2171 C2177 1.491 . S
C2172 H2163 0.950 . S
C2172 C2171 1.398 . S
C2172 C2173 1.391 . S
C2173 H2161 0.950 . S
C2173 C2169 1.393 . S
C2173 C2172 1.391 . S
C2174 H2164 0.950 . S
C2174 C2175 1.386 . S
C2174 C2176 1.391 . S
C2175 C2174 1.386 . S
C2175 C2179 1.393 . S
C2176 H2165 0.950 . S
C2176 C2174 1.391 . S
C2176 C2177 1.400 . S
C2177 C2171 1.491 . S
C2177 C2176 1.400 . S
C2177 C2178 1.398 . S
C2178 H2166 0.950 . S
C2178 C2177 1.398 . S
C2178 C2179 1.391 . S
C2179 H2167 0.950 . S
C2179 C2175 1.393 . S
C2179 C2178 1.391 . S
H2180 C2188 0.950 . S
H2181 C2193 0.950 . S
H2182 C2190 0.950 . S
H2183 C2192 0.950 . S
H2184 C2194 0.950 . S
H2185 C2196 0.950 . S
H2186 C2198 0.950 . S
H2187 C2199 0.950 . S
C2188 H2180 0.950 . S
C2188 C2189 1.386 . S
C2188 C2190 1.391 . S
C2189 C2188 1.386 . S
C2189 C2193 1.393 . S
C2190 H2182 0.950 . S
C2190 C2188 1.391 . S
C2190 C2191 1.400 . S
C2191 C2190 1.400 . S
C2191 C2192 1.398 . S
C2191 C2197 1.491 . S
C2192 H2183 0.950 . S
C2192 C2191 1.398 . S
C2192 C2193 1.391 . S
C2193 H2181 0.950 . S
C2193 C2189 1.393 . S
C2193 C2192 1.391 . S
C2194 H2184 0.950 . S
C2194 C2195 1.386 . S
C2194 C2196 1.391 . S
C2195 C2194 1.386 . S
C2195 C2199 1.393 . S
C2196 H2185 0.950 . S
C2196 C2194 1.391 . S
C2196 C2197 1.400 . S
C2197 C2191 1.491 . S
C2197 C2196 1.400 . S
C2197 C2198 1.398 . S
C2198 H2186 0.950 . S
C2198 C2197 1.398 . S
C2198 C2199 1.391 . S
C2199 H2187 0.950 . S
C2199 C2195 1.393 . S
C2199 C2198 1.391 . S
H2200 C2208 0.950 . S
H2201 C2213 0.950 . S
H2202 C2210 0.950 . S
H2203 C2212 0.950 . S
H2204 C2214 0.950 . S
H2205 C2216 0.950 . S
H2206 C2218 0.950 . S
H2207 C2219 0.950 . S
C2208 H2200 0.950 . S
C2208 C2209 1.386 . S
C2208 C2210 1.391 . S
C2209 C2208 1.386 . S
C2209 C2213 1.393 . S
C2210 H2202 0.950 . S
C2210 C2208 1.391 . S
C2210 C2211 1.400 . S
C2211 C2210 1.400 . S
C2211 C2212 1.398 . S
C2211 C2217 1.491 . S
C2212 H2203 0.950 . S
C2212 C2211 1.398 . S
C2212 C2213 1.391 . S
C2213 H2201 0.950 . S
C2213 C2209 1.393 . S
C2213 C2212 1.391 . S
C2214 H2204 0.950 . S
C2214 C2215 1.386 . S
C2214 C2216 1.391 . S
C2215 C2214 1.386 . S
C2215 C2219 1.393 . S
C2216 H2205 0.950 . S
C2216 C2214 1.391 . S
C2216 C2217 1.400 . S
C2217 C2211 1.491 . S
C2217 C2216 1.400 . S
C2217 C2218 1.398 . S
C2218 H2206 0.950 . S
C2218 C2217 1.398 . S
C2218 C2219 1.391 . S
C2219 H2207 0.950 . S
C2219 C2215 1.393 . S
C2219 C2218 1.391 . S
H2220 C2228 0.950 . S
H2221 C2233 0.950 . S
H2222 C2230 0.950 . S
H2223 C2232 0.950 . S
H2224 C2234 0.950 . S
H2225 C2236 0.950 . S
H2226 C2238 0.950 . S
H2227 C2239 0.950 . S
C2228 H2220 0.950 . S
C2228 C2229 1.386 . S
C2228 C2230 1.391 . S
C2229 C2228 1.386 . S
C2229 C2233 1.393 . S
C2230 H2222 0.950 . S
C2230 C2228 1.391 . S
C2230 C2231 1.400 . S
C2231 C2230 1.400 . S
C2231 C2232 1.398 . S
C2231 C2237 1.491 . S
C2232 H2223 0.950 . S
C2232 C2231 1.398 . S
C2232 C2233 1.391 . S
C2233 H2221 0.950 . S
C2233 C2229 1.393 . S
C2233 C2232 1.391 . S
C2234 H2224 0.950 . S
C2234 C2235 1.386 . S
C2234 C2236 1.391 . S
C2235 C2234 1.386 . S
C2235 C2239 1.393 . S
C2236 H2225 0.950 . S
C2236 C2234 1.391 . S
C2236 C2237 1.400 . S
C2237 C2231 1.491 . S
C2237 C2236 1.400 . S
C2237 C2238 1.398 . S
C2238 H2226 0.950 . S
C2238 C2237 1.398 . S
C2238 C2239 1.391 . S
C2239 H2227 0.950 . S
C2239 C2235 1.393 . S
C2239 C2238 1.391 . S
H2240 C2248 0.950 . S
H2241 C2253 0.950 . S
H2242 C2250 0.950 . S
H2243 C2252 0.950 . S
H2244 C2254 0.950 . S
H2245 C2256 0.950 . S
H2246 C2258 0.950 . S
H2247 C2259 0.950 . S
C2248 H2240 0.950 . S
C2248 C2249 1.386 . S
C2248 C2250 1.391 . S
C2249 C2248 1.386 . S
C2249 C2253 1.393 . S
C2250 H2242 0.950 . S
C2250 C2248 1.391 . S
C2250 C2251 1.400 . S
C2251 C2250 1.400 . S
C2251 C2252 1.398 . S
C2251 C2257 1.491 . S
C2252 H2243 0.950 . S
C2252 C2251 1.398 . S
C2252 C2253 1.391 . S
C2253 H2241 0.950 . S
C2253 C2249 1.393 . S
C2253 C2252 1.391 . S
C2254 H2244 0.950 . S
C2254 C2255 1.386 . S
C2254 C2256 1.391 . S
C2255 C2254 1.386 . S
C2255 C2259 1.393 . S
C2256 H2245 0.950 . S
C2256 C2254 1.391 . S
C2256 C2257 1.400 . S
C2257 C2251 1.491 . S
C2257 C2256 1.400 . S
C2257 C2258 1.398 . S
C2258 H2246 0.950 . S
C2258 C2257 1.398 . S
C2258 C2259 1.391 . S
C2259 H2247 0.950 . S
C2259 C2255 1.393 . S
C2259 C2258 1.391 . S
H2260 C2268 0.950 . S
H2261 C2273 0.950 1_556 S
H2262 C2270 0.950 . S
H2263 C2272 0.950 . S
H2264 C2274 0.950 . S
H2265 C2276 0.950 . S
H2266 C2278 0.950 . S
H2267 C2279 0.950 . S
C2268 H2260 0.950 . S
C2268 C2269 1.386 . S
C2268 C2270 1.391 . S
C2269 C2268 1.386 . S
C2269 C2273 1.393 . S
C2270 H2262 0.950 . S
C2270 C2268 1.391 . S
C2270 C2271 1.400 . S
C2271 C2270 1.400 . S
C2271 C2272 1.398 . S
C2271 C2277 1.491 . S
C2272 H2263 0.950 . S
C2272 C2271 1.398 . S
C2272 C2273 1.391 . S
C2273 H2261 0.950 1_554 S
C2273 C2269 1.393 . S
C2273 C2272 1.391 . S
C2274 H2264 0.950 . S
C2274 C2275 1.386 . S
C2274 C2276 1.391 . S
C2275 C2274 1.386 . S
C2275 C2279 1.393 . S
C2276 H2265 0.950 . S
C2276 C2274 1.391 . S
C2276 C2277 1.400 . S
C2277 C2271 1.491 . S
C2277 C2276 1.400 . S
C2277 C2278 1.398 . S
C2278 H2266 0.950 . S
C2278 C2277 1.398 . S
C2278 C2279 1.391 . S
C2279 H2267 0.950 . S
C2279 C2275 1.393 . S
C2279 C2278 1.391 . S
H2280 C2288 0.950 . S
H2281 C2293 0.950 . S
H2282 C2290 0.950 . S
H2283 C2292 0.950 . S
H2284 C2294 0.950 . S
H2285 C2296 0.950 . S
H2286 C2298 0.950 . S
H2287 C2299 0.950 . S
C2288 H2280 0.950 . S
C2288 C2289 1.386 . S
C2288 C2290 1.391 . S
C2289 C2288 1.386 . S
C2289 C2293 1.393 . S
C2290 H2282 0.950 . S
C2290 C2288 1.391 . S
C2290 C2291 1.400 . S
C2291 C2290 1.400 . S
C2291 C2292 1.398 . S
C2291 C2297 1.491 . S
C2292 H2283 0.950 . S
C2292 C2291 1.398 . S
C2292 C2293 1.391 . S
C2293 H2281 0.950 . S
C2293 C2289 1.393 . S
C2293 C2292 1.391 . S
C2294 H2284 0.950 . S
C2294 C2295 1.386 . S
C2294 C2296 1.391 . S
C2295 C2294 1.386 . S
C2295 C2299 1.393 . S
C2296 H2285 0.950 . S
C2296 C2294 1.391 . S
C2296 C2297 1.400 . S
C2297 C2291 1.491 . S
C2297 C2296 1.400 . S
C2297 C2298 1.398 . S
C2298 H2286 0.950 . S
C2298 C2297 1.398 . S
C2298 C2299 1.391 . S
C2299 H2287 0.950 . S
C2299 C2295 1.393 . S
C2299 C2298 1.391 . S
H2300 C2308 0.950 . S
H2301 C2313 0.950 . S
H2302 C2310 0.950 . S
H2303 C2312 0.950 . S
H2304 C2314 0.950 . S
H2305 C2316 0.950 . S
H2306 C2318 0.950 . S
H2307 C2319 0.950 . S
C2308 H2300 0.950 . S
C2308 C2309 1.386 . S
C2308 C2310 1.391 . S
C2309 C2308 1.386 . S
C2309 C2313 1.393 . S
C2310 H2302 0.950 . S
C2310 C2308 1.391 . S
C2310 C2311 1.400 . S
C2311 C2310 1.400 . S
C2311 C2312 1.398 . S
C2311 C2317 1.491 . S
C2312 H2303 0.950 . S
C2312 C2311 1.398 . S
C2312 C2313 1.391 . S
C2313 H2301 0.950 . S
C2313 C2309 1.393 . S
C2313 C2312 1.391 . S
C2314 H2304 0.950 . S
C2314 C2315 1.386 . S
C2314 C2316 1.391 . S
C2315 C2314 1.386 . S
C2315 C2319 1.393 . S
C2316 H2305 0.950 . S
C2316 C2314 1.391 . S
C2316 C2317 1.400 . S
C2317 C2311 1.491 . S
C2317 C2316 1.400 . S
C2317 C2318 1.398 . S
C2318 H2306 0.950 . S
C2318 C2317 1.398 . S
C2318 C2319 1.391 . S
C2319 H2307 0.950 . S
C2319 C2315 1.393 . S
C2319 C2318 1.391 . S
H2320 C2328 0.950 . S
H2321 C2333 0.950 . S
H2322 C2330 0.950 . S
H2323 C2332 0.950 . S
H2324 C2334 0.950 . S
H2325 C2336 0.950 . S
H2326 C2338 0.950 . S
H2327 C2339 0.950 . S
C2328 H2320 0.950 . S
C2328 C2329 1.386 . S
C2328 C2330 1.391 . S
C2329 C2328 1.386 . S
C2329 C2333 1.393 . S
C2330 H2322 0.950 . S
C2330 C2328 1.391 . S
C2330 C2331 1.400 . S
C2331 C2330 1.400 . S
C2331 C2332 1.398 . S
C2331 C2337 1.491 . S
C2332 H2323 0.950 . S
C2332 C2331 1.398 . S
C2332 C2333 1.391 . S
C2333 H2321 0.950 . S
C2333 C2329 1.393 . S
C2333 C2332 1.391 . S
C2334 H2324 0.950 . S
C2334 C2335 1.386 . S
C2334 C2336 1.391 . S
C2335 C2334 1.386 . S
C2335 C2339 1.393 . S
C2336 H2325 0.950 . S
C2336 C2334 1.391 . S
C2336 C2337 1.400 . S
C2337 C2331 1.491 . S
C2337 C2336 1.400 . S
C2337 C2338 1.398 . S
C2338 H2326 0.950 . S
C2338 C2337 1.398 . S
C2338 C2339 1.391 . S
C2339 H2327 0.950 . S
C2339 C2335 1.393 . S
C2339 C2338 1.391 . S
H2340 C2348 0.950 . S
H2341 C2353 0.950 . S
H2342 C2350 0.950 . S
H2343 C2352 0.950 . S
H2344 C2354 0.950 . S
H2345 C2356 0.950 . S
H2346 C2358 0.950 . S
H2347 C2359 0.950 . S
C2348 H2340 0.950 . S
C2348 C2349 1.386 . S
C2348 C2350 1.391 . S
C2349 C2348 1.386 . S
C2349 C2353 1.393 . S
C2350 H2342 0.950 . S
C2350 C2348 1.391 . S
C2350 C2351 1.400 . S
C2351 C2350 1.400 . S
C2351 C2352 1.398 . S
C2351 C2357 1.491 . S
C2352 H2343 0.950 . S
C2352 C2351 1.398 . S
C2352 C2353 1.391 . S
C2353 H2341 0.950 . S
C2353 C2349 1.393 . S
C2353 C2352 1.391 . S
C2354 H2344 0.950 . S
C2354 C2355 1.386 . S
C2354 C2356 1.391 . S
C2355 C2354 1.386 . S
C2355 C2359 1.393 . S
C2356 H2345 0.950 . S
C2356 C2354 1.391 . S
C2356 C2357 1.400 . S
C2357 C2351 1.491 . S
C2357 C2356 1.400 . S
C2357 C2358 1.398 . S
C2358 H2346 0.950 . S
C2358 C2357 1.398 . S
C2358 C2359 1.391 . S
C2359 H2347 0.950 . S
C2359 C2355 1.393 . S
C2359 C2358 1.391 . S
H2360 C2368 0.950 . S
H2361 C2373 0.950 . S
H2362 C2370 0.950 . S
H2363 C2372 0.950 . S
H2364 C2374 0.950 . S
H2365 C2376 0.950 . S
H2366 C2378 0.950 . S
H2367 C2379 0.950 . S
C2368 H2360 0.950 . S
C2368 C2369 1.386 . S
C2368 C2370 1.391 . S
C2369 C2368 1.386 . S
C2369 C2373 1.393 . S
C2370 H2362 0.950 . S
C2370 C2368 1.391 . S
C2370 C2371 1.400 . S
C2371 C2370 1.400 . S
C2371 C2372 1.398 . S
C2371 C2377 1.491 . S
C2372 H2363 0.950 . S
C2372 C2371 1.398 . S
C2372 C2373 1.391 . S
C2373 H2361 0.950 . S
C2373 C2369 1.393 . S
C2373 C2372 1.391 . S
C2374 H2364 0.950 . S
C2374 C2375 1.386 . S
C2374 C2376 1.391 . S
C2375 C2374 1.386 . S
C2375 C2379 1.393 . S
C2376 H2365 0.950 . S
C2376 C2374 1.391 . S
C2376 C2377 1.400 . S
C2377 C2371 1.491 . S
C2377 C2376 1.400 . S
C2377 C2378 1.398 . S
C2378 H2366 0.950 . S
C2378 C2377 1.398 . S
C2378 C2379 1.391 . S
C2379 H2367 0.950 . S
C2379 C2375 1.393 . S
C2379 C2378 1.391 . S
H2380 C2388 0.950 . S
H2381 C2393 0.950 . S
H2382 C2390 0.950 . S
H2383 C2392 0.950 . S
H2384 C2394 0.950 . S
H2385 C2396 0.950 . S
H2386 C2398 0.950 . S
H2387 C2399 0.950 . S
C2388 H2380 0.950 . S
C2388 C2389 1.386 . S
C2388 C2390 1.391 . S
C2389 C2388 1.386 . S
C2389 C2393 1.393 . S
C2390 H2382 0.950 . S
C2390 C2388 1.391 . S
C2390 C2391 1.400 . S
C2391 C2390 1.400 . S
C2391 C2392 1.398 . S
C2391 C2397 1.491 . S
C2392 H2383 0.950 . S
C2392 C2391 1.398 . S
C2392 C2393 1.391 . S
C2393 H2381 0.950 . S
C2393 C2389 1.393 . S
C2393 C2392 1.391 . S
C2394 H2384 0.950 . S
C2394 C2395 1.386 . S
C2394 C2396 1.391 . S
C2395 C2394 1.386 . S
C2395 C2399 1.393 . S
C2396 H2385 0.950 . S
C2396 C2394 1.391 . S
C2396 C2397 1.400 . S
C2397 C2391 1.491 . S
C2397 C2396 1.400 . S
C2397 C2398 1.398 . S
C2398 H2386 0.950 . S
C2398 C2397 1.398 . S
C2398 C2399 1.391 . S
C2399 H2387 0.950 . S
C2399 C2395 1.393 . S
C2399 C2398 1.391 . S
H2400 C2408 0.950 . S
H2401 C2413 0.950 . S
H2402 C2410 0.950 . S
H2403 C2412 0.950 . S
H2404 C2414 0.950 . S
H2405 C2416 0.950 . S
H2406 C2418 0.950 . S
H2407 C2419 0.950 . S
C2408 H2400 0.950 . S
C2408 C2409 1.386 . S
C2408 C2410 1.391 . S
C2409 C2408 1.386 . S
C2409 C2413 1.393 . S
C2410 H2402 0.950 . S
C2410 C2408 1.391 . S
C2410 C2411 1.400 . S
C2411 C2410 1.400 . S
C2411 C2412 1.398 . S
C2411 C2417 1.491 . S
C2412 H2403 0.950 . S
C2412 C2411 1.398 . S
C2412 C2413 1.391 . S
C2413 H2401 0.950 . S
C2413 C2409 1.393 . S
C2413 C2412 1.391 . S
C2414 H2404 0.950 . S
C2414 C2415 1.386 . S
C2414 C2416 1.391 . S
C2415 C2414 1.386 . S
C2415 C2419 1.393 . S
C2416 H2405 0.950 . S
C2416 C2414 1.391 . S
C2416 C2417 1.400 . S
C2417 C2411 1.491 . S
C2417 C2416 1.400 . S
C2417 C2418 1.398 . S
C2418 H2406 0.950 . S
C2418 C2417 1.398 . S
C2418 C2419 1.391 . S
C2419 H2407 0.950 . S
C2419 C2415 1.393 . S
C2419 C2418 1.391 . S
H2420 C2428 0.950 . S
H2421 C2433 0.950 . S
H2422 C2430 0.950 . S
H2423 C2432 0.950 . S
H2424 C2434 0.950 . S
H2425 C2436 0.950 . S
H2426 C2438 0.950 . S
H2427 C2439 0.950 . S
C2428 H2420 0.950 . S
C2428 C2429 1.386 . S
C2428 C2430 1.391 . S
C2429 C2428 1.386 . S
C2429 C2433 1.393 . S
C2430 H2422 0.950 . S
C2430 C2428 1.391 . S
C2430 C2431 1.400 . S
C2431 C2430 1.400 . S
C2431 C2432 1.398 . S
C2431 C2437 1.491 . S
C2432 H2423 0.950 . S
C2432 C2431 1.398 . S
C2432 C2433 1.391 . S
C2433 H2421 0.950 . S
C2433 C2429 1.393 . S
C2433 C2432 1.391 . S
C2434 H2424 0.950 . S
C2434 C2435 1.386 . S
C2434 C2436 1.391 . S
C2435 C2434 1.386 . S
C2435 C2439 1.393 . S
C2436 H2425 0.950 . S
C2436 C2434 1.391 . S
C2436 C2437 1.400 . S
C2437 C2431 1.491 . S
C2437 C2436 1.400 . S
C2437 C2438 1.398 . S
C2438 H2426 0.950 . S
C2438 C2437 1.398 . S
C2438 C2439 1.391 . S
C2439 H2427 0.950 . S
C2439 C2435 1.393 . S
C2439 C2438 1.391 . S
H2440 C2448 0.950 . S
H2441 C2453 0.950 . S
H2442 C2450 0.950 . S
H2443 C2452 0.950 . S
H2444 C2454 0.950 . S
H2445 C2456 0.950 . S
H2446 C2458 0.950 . S
H2447 C2459 0.950 . S
C2448 H2440 0.950 . S
C2448 C2449 1.386 . S
C2448 C2450 1.391 . S
C2449 C2448 1.386 . S
C2449 C2453 1.393 . S
C2450 H2442 0.950 . S
C2450 C2448 1.391 . S
C2450 C2451 1.400 . S
C2451 C2450 1.400 . S
C2451 C2452 1.398 . S
C2451 C2457 1.491 . S
C2452 H2443 0.950 . S
C2452 C2451 1.398 . S
C2452 C2453 1.391 . S
C2453 H2441 0.950 . S
C2453 C2449 1.393 . S
C2453 C2452 1.391 . S
C2454 H2444 0.950 . S
C2454 C2455 1.386 . S
C2454 C2456 1.391 . S
C2455 C2454 1.386 . S
C2455 C2459 1.393 . S
C2456 H2445 0.950 . S
C2456 C2454 1.391 . S
C2456 C2457 1.400 . S
C2457 C2451 1.491 . S
C2457 C2456 1.400 . S
C2457 C2458 1.398 . S
C2458 H2446 0.950 . S
C2458 C2457 1.398 . S
C2458 C2459 1.391 . S
C2459 H2447 0.950 . S
C2459 C2455 1.393 . S
C2459 C2458 1.391 . S
H2460 C2468 0.950 . S
H2461 C2473 0.950 . S
H2462 C2470 0.950 . S
H2463 C2472 0.950 . S
H2464 C2474 0.950 . S
H2465 C2476 0.950 . S
H2466 C2478 0.950 . S
H2467 C2479 0.950 . S
C2468 H2460 0.950 . S
C2468 C2469 1.386 . S
C2468 C2470 1.391 . S
C2469 C2468 1.386 . S
C2469 C2473 1.393 . S
C2470 H2462 0.950 . S
C2470 C2468 1.391 . S
C2470 C2471 1.400 . S
C2471 C2470 1.400 . S
C2471 C2472 1.398 . S
C2471 C2477 1.491 . S
C2472 H2463 0.950 . S
C2472 C2471 1.398 . S
C2472 C2473 1.391 . S
C2473 H2461 0.950 . S
C2473 C2469 1.393 . S
C2473 C2472 1.391 . S
C2474 H2464 0.950 . S
C2474 C2475 1.386 . S
C2474 C2476 1.391 . S
C2475 C2474 1.386 . S
C2475 C2479 1.393 . S
C2476 H2465 0.950 . S
C2476 C2474 1.391 . S
C2476 C2477 1.400 . S
C2477 C2471 1.491 . S
C2477 C2476 1.400 . S
C2477 C2478 1.398 . S
C2478 H2466 0.950 . S
C2478 C2477 1.398 . S
C2478 C2479 1.391 . S
C2479 H2467 0.950 . S
C2479 C2475 1.393 . S
C2479 C2478 1.391 . S
H2480 C2488 0.950 . S
H2481 C2493 0.950 . S
H2482 C2490 0.950 . S
H2483 C2492 0.950 . S
H2484 C2494 0.950 . S
H2485 C2496 0.950 . S
H2486 C2498 0.950 . S
H2487 C2499 0.950 . S
C2488 H2480 0.950 . S
C2488 C2489 1.386 . S
C2488 C2490 1.391 . S
C2489 C2488 1.386 . S
C2489 C2493 1.393 . S
C2490 H2482 0.950 . S
C2490 C2488 1.391 . S
C2490 C2491 1.400 . S
C2491 C2490 1.400 . S
C2491 C2492 1.398 . S
C2491 C2497 1.491 . S
C2492 H2483 0.950 . S
C2492 C2491 1.398 . S
C2492 C2493 1.391 . S
C2493 H2481 0.950 . S
C2493 C2489 1.393 . S
C2493 C2492 1.391 . S
C2494 H2484 0.950 . S
C2494 C2495 1.386 . S
C2494 C2496 1.391 . S
C2495 C2494 1.386 . S
C2495 C2499 1.393 . S
C2496 H2485 0.950 . S
C2496 C2494 1.391 . S
C2496 C2497 1.400 . S
C2497 C2491 1.491 . S
C2497 C2496 1.400 . S
C2497 C2498 1.398 . S
C2498 H2486 0.950 . S
C2498 C2497 1.398 . S
C2498 C2499 1.391 . S
C2499 H2487 0.950 . S
C2499 C2495 1.393 . S
C2499 C2498 1.391 . S
H2500 C2508 0.950 . S
H2501 C2513 0.950 . S
H2502 C2510 0.950 . S
H2503 C2512 0.950 . S
H2504 C2514 0.950 . S
H2505 C2516 0.950 . S
H2506 C2518 0.950 . S
H2507 C2519 0.950 . S
C2508 H2500 0.950 . S
C2508 C2509 1.386 . S
C2508 C2510 1.391 . S
C2509 C2508 1.386 . S
C2509 C2513 1.393 . S
C2510 H2502 0.950 . S
C2510 C2508 1.391 . S
C2510 C2511 1.400 . S
C2511 C2510 1.400 . S
C2511 C2512 1.398 . S
C2511 C2517 1.491 . S
C2512 H2503 0.950 . S
C2512 C2511 1.398 . S
C2512 C2513 1.391 . S
C2513 H2501 0.950 . S
C2513 C2509 1.393 . S
C2513 C2512 1.391 . S
C2514 H2504 0.950 . S
C2514 C2515 1.386 . S
C2514 C2516 1.391 . S
C2515 C2514 1.386 . S
C2515 C2519 1.393 . S
C2516 H2505 0.950 . S
C2516 C2514 1.391 . S
C2516 C2517 1.400 . S
C2517 C2511 1.491 . S
C2517 C2516 1.400 . S
C2517 C2518 1.398 . S
C2518 H2506 0.950 . S
C2518 C2517 1.398 . S
C2518 C2519 1.391 . S
C2519 H2507 0.950 . S
C2519 C2515 1.393 . S
C2519 C2518 1.391 . S
H2520 C2528 0.950 . S
H2521 C2533 0.950 . S
H2522 C2530 0.950 . S
H2523 C2532 0.950 . S
H2524 C2534 0.950 . S
H2525 C2536 0.950 . S
H2526 C2538 0.950 . S
H2527 C2539 0.950 . S
C2528 H2520 0.950 . S
C2528 C2529 1.386 . S
C2528 C2530 1.391 . S
C2529 C2528 1.386 . S
C2529 C2533 1.393 . S
C2530 H2522 0.950 . S
C2530 C2528 1.391 . S
C2530 C2531 1.400 . S
C2531 C2530 1.400 . S
C2531 C2532 1.398 . S
C2531 C2537 1.491 . S
C2532 H2523 0.950 . S
C2532 C2531 1.398 . S
C2532 C2533 1.391 . S
C2533 H2521 0.950 . S
C2533 C2529 1.393 . S
C2533 C2532 1.391 . S
C2534 H2524 0.950 . S
C2534 C2535 1.386 . S
C2534 C2536 1.391 . S
C2535 C2534 1.386 . S
C2535 C2539 1.393 . S
C2536 H2525 0.950 . S
C2536 C2534 1.391 . S
C2536 C2537 1.400 . S
C2537 C2531 1.491 . S
C2537 C2536 1.400 . S
C2537 C2538 1.398 . S
C2538 H2526 0.950 . S
C2538 C2537 1.398 . S
C2538 C2539 1.391 . S
C2539 H2527 0.950 . S
C2539 C2535 1.393 . S
C2539 C2538 1.391 . S
H2540 C2548 0.950 . S
H2541 C2553 0.950 1_554 S
H2542 C2550 0.950 . S
H2543 C2552 0.950 . S
H2544 C2554 0.950 . S
H2545 C2556 0.950 . S
H2546 C2558 0.950 . S
H2547 C2559 0.950 . S
C2548 H2540 0.950 . S
C2548 C2549 1.386 . S
C2548 C2550 1.391 . S
C2549 C2548 1.386 . S
C2549 C2553 1.393 . S
C2550 H2542 0.950 . S
C2550 C2548 1.391 . S
C2550 C2551 1.400 . S
C2551 C2550 1.400 . S
C2551 C2552 1.398 . S
C2551 C2557 1.491 . S
C2552 H2543 0.950 . S
C2552 C2551 1.398 . S
C2552 C2553 1.391 . S
C2553 H2541 0.950 1_556 S
C2553 C2549 1.393 . S
C2553 C2552 1.391 . S
C2554 H2544 0.950 . S
C2554 C2555 1.386 . S
C2554 C2556 1.391 . S
C2555 C2554 1.386 . S
C2555 C2559 1.393 . S
C2556 H2545 0.950 . S
C2556 C2554 1.391 . S
C2556 C2557 1.400 . S
C2557 C2551 1.491 . S
C2557 C2556 1.400 . S
C2557 C2558 1.398 . S
C2558 H2546 0.950 . S
C2558 C2557 1.398 . S
C2558 C2559 1.391 . S
C2559 H2547 0.950 . S
C2559 C2555 1.393 . S
C2559 C2558 1.391 . S
C649 C566 1.483 . S
C655 C16 1.483 . S
C669 C106 1.502 . S
C675 C36 1.502 . S
C689 C446 1.501 . S
C695 C56 1.501 . S
C709 C306 1.483 . S
C715 C76 1.483 . S
C729 C86 1.505 . S
C735 C496 1.505 . S
C749 C376 1.504 . S
C755 C126 1.504 . S
C769 C236 1.492 . S
C775 C146 1.492 . S
C789 C406 1.481 . S
C795 C176 1.481 . S
C809 C196 1.483 . S
C815 C266 1.483 . S
C829 C216 1.485 . S
C835 C606 1.485 . S
C849 C336 1.485 . S
C855 C246 1.485 . S
C869 C286 1.499 . S
C875 C536 1.499 . S
C889 C356 1.498 . S
C895 C426 1.498 . S
C909 C396 1.486 . S
C915 C626 1.486 . S
C929 C556 1.502 . S
C935 C466 1.502 . S
C949 C586 1.485 . S
C955 C516 1.485 . S
C969 C386 1.572 . S
C975 C6 1.572 . S
C989 C366 1.596 . S
C995 C26 1.596 . S
C1009 C346 1.602 . S
C1015 C46 1.603 . S
C1029 C326 1.571 . S
C1035 C66 1.571 . S
C1049 C476 1.602 . S
C1055 C96 1.602 . S
C1069 C116 1.594 . S
C1075 C456 1.594 . S
C1089 C136 1.582 . S
C1095 C436 1.582 . S
C1109 C156 1.591 . S
C1115 C416 1.591 . S
C1129 C166 1.599 . S
C1135 C546 1.599 . S
C1149 C186 1.573 . S
C1155 C526 1.573 . S
C1169 C206 1.596 . S
C1175 C506 1.596 . S
C1189 C486 1.594 . S
C1195 C226 1.594 . S
C1209 C256 1.579 . S
C1215 C636 1.579 . S
C1229 C276 1.602 . S
C1235 C616 1.602 . S
C1249 C296 1.575 . S
C1255 C596 1.575 . S
C1269 C576 1.583 . S
C1275 C316 1.583 . S
C1289 C19 1.879 . S
C1295 C8 1.879 1_556 S
C1309 C39 1.865 1_565 S
C1315 C28 1.866 1_556 S
C1329 C48 1.879 . S
C1335 C59 1.878 1_565 S
C1349 C68 1.874 . S
C1355 C79 1.874 . S
C1369 C99 1.882 1_554 S
C1375 C88 1.882 . S
C1389 C119 1.893 1_554 S
C1395 C108 1.888 1_545 S
C1409 C139 1.888 . S
C1415 C128 1.884 1_545 S
C1429 C148 1.877 . S
C1435 C159 1.877 . S
C1449 C179 1.884 . S
C1455 C168 1.884 . S
C1469 C188 1.866 . S
C1475 C199 1.866 . S
C1489 C208 1.882 . S
C1495 C219 1.882 . S
C1509 C228 1.868 . S
C1515 C239 1.868 . S
C1529 C259 1.877 . S
C1535 C248 1.877 . S
C1549 C268 1.874 . S
C1555 C279 1.874 . S
C1569 C299 1.884 . S
C1575 C288 1.884 . S
C1589 C308 1.890 . S
C1595 C319 1.890 . S
C1609 C339 1.892 . S
C1615 C328 1.892 . S
C1629 C348 1.882 . S
C1635 C359 1.878 1_565 S
C1649 C368 1.876 . S
C1655 C379 1.869 1_565 S
C1669 C388 1.870 . S
C1675 C399 1.870 . S
C1689 C408 1.866 . S
C1695 C419 1.866 . S
C1709 C439 1.886 . S
C1715 C428 1.885 1_545 S
C1729 C448 1.889 1_545 S
C1735 C459 1.895 . S
C1749 C468 1.890 . S
C1755 C479 1.890 . S
C1769 C499 1.867 . S
C1775 C488 1.867 1_556 S
C1789 C508 1.876 1_556 S
C1795 C519 1.876 . S
C1809 C528 1.868 . S
C1815 C539 1.868 . S
C1829 C559 1.885 . S
C1835 C548 1.885 . S
C1849 C579 1.893 1_554 S
C1855 C568 1.893 . S
C1869 C588 1.892 . S
C1875 C599 1.892 1_554 S
C1889 C608 1.875 . S
C1895 C619 1.875 . S
C1909 C628 1.869 . S
C1915 C639 1.869 . S
C1929 C201 1.541 . S
C1935 C1 1.540 . S
C1949 C221 1.540 . S
C1955 C21 1.540 . S
C1969 C41 1.540 . S
C1975 C161 1.541 . S
C1989 C181 1.533 . S
C1995 C61 1.534 . S
C2009 C89 1.534 . S
C2015 C289 1.533 . S
C2029 C109 1.536 . S
C2035 C309 1.539 . S
C2049 C129 1.534 . S
C2055 C249 1.533 . S
C2069 C149 1.534 . S
C2075 C269 1.537 . S
C2089 C521 1.538 . S
C2095 C321 1.541 . S
C2109 C341 1.533 . S
C2115 C541 1.534 . S
C2129 C481 1.540 . S
C2135 C361 1.537 . S
C2149 C381 1.535 . S
C2155 C501 1.533 . S
C2169 C609 1.534 . S
C2175 C409 1.534 . S
C2189 C429 1.533 . S
C2195 C629 1.534 . S
C2209 C449 1.533 . S
C2215 C569 1.535 . S
C2229 C589 1.533 . S
C2235 C469 1.534 . S
C2249 C9 1.485 . S
C2255 C49 1.483 . S
C2269 C69 1.469 . S
C2275 C29 1.472 . S
C2289 C121 1.470 . S
C2295 C81 1.468 . S
C2309 C101 1.468 . S
C2315 C141 1.470 . S
C2329 C169 1.467 . S
C2335 C209 1.468 . S
C2349 C229 1.482 . S
C2355 C189 1.484 . S
C2369 C281 1.485 . S
C2375 C241 1.484 . S
C2389 C301 1.468 . S
C2395 C261 1.470 . S
C2409 C369 1.484 . S
C2415 C329 1.482 . S
C2429 C389 1.480 . S
C2435 C349 1.477 . S
C2449 C441 1.483 . S
C2455 C401 1.485 . S
C2469 C461 1.469 . S
C2475 C421 1.467 . S
C2489 C489 1.467 . S
C2495 C529 1.467 . S
C2509 C509 1.467 . S
C2515 C549 1.467 . S
C2529 C561 1.484 . S
C2535 C601 1.482 . S
C2549 C621 1.481 . S
C2555 C581 1.478 . S
