# Generated by pormake.
# Topology uou, (4)-cn, num edge types: 1
# Building blocks:
#     Node 0, Type 0, BuildingBlock: KUFVIS_clean_sbu_0, # of connection points: 4
#     Node 1, Type 0, BuildingBlock: KUFVIS_clean_sbu_0, # of connection points: 4
#     Node 2, Type 0, BuildingBlock: KUFVIS_clean_sbu_0, # of connection points: 4
#     Node 3, Type 0, BuildingBlock: KUFVIS_clean_sbu_0, # of connection points: 4
#     Node 4, Type 0, BuildingBlock: KUFVIS_clean_sbu_0, # of connection points: 4
#     Node 5, Type 0, BuildingBlock: KUFVIS_clean_sbu_0, # of connection points: 4
#     Node 6, Type 0, BuildingBlock: KUFVIS_clean_sbu_0, # of connection points: 4
#     Node 7, Type 0, BuildingBlock: KUFVIS_clean_sbu_0, # of connection points: 4
#     Node 8, Type 0, BuildingBlock: KUFVIS_clean_sbu_0, # of connection points: 4
#     Node 9, Type 0, BuildingBlock: KUFVIS_clean_sbu_0, # of connection points: 4
#     Node 10, Type 0, BuildingBlock: KUFVIS_clean_sbu_0, # of connection points: 4
#     Node 11, Type 0, BuildingBlock: KUFVIS_clean_sbu_0, # of connection points: 4
#     Node 12, Type 0, BuildingBlock: KUFVIS_clean_sbu_0, # of connection points: 4
#     Node 13, Type 0, BuildingBlock: KUFVIS_clean_sbu_0, # of connection points: 4
#     Node 14, Type 0, BuildingBlock: KUFVIS_clean_sbu_0, # of connection points: 4
#     Node 15, Type 0, BuildingBlock: KUFVIS_clean_sbu_0, # of connection points: 4
#     Edge 16, Type (0, 0), BuildingBlock: XIVTED_clean_linker_0, # of connection points: 2
#     Edge 17, Type (0, 0), BuildingBlock: XIVTED_clean_linker_0, # of connection points: 2
#     Edge 18, Type (0, 0), BuildingBlock: XIVTED_clean_linker_0, # of connection points: 2
#     Edge 19, Type (0, 0), BuildingBlock: XIVTED_clean_linker_0, # of connection points: 2
#     Edge 20, Type (0, 0), BuildingBlock: XIVTED_clean_linker_0, # of connection points: 2
#     Edge 21, Type (0, 0), BuildingBlock: XIVTED_clean_linker_0, # of connection points: 2
#     Edge 22, Type (0, 0), BuildingBlock: XIVTED_clean_linker_0, # of connection points: 2
#     Edge 23, Type (0, 0), BuildingBlock: XIVTED_clean_linker_0, # of connection points: 2
#     Edge 24, Type (0, 0), BuildingBlock: XIVTED_clean_linker_0, # of connection points: 2
#     Edge 25, Type (0, 0), BuildingBlock: XIVTED_clean_linker_0, # of connection points: 2
#     Edge 26, Type (0, 0), BuildingBlock: XIVTED_clean_linker_0, # of connection points: 2
#     Edge 27, Type (0, 0), BuildingBlock: XIVTED_clean_linker_0, # of connection points: 2
#     Edge 28, Type (0, 0), BuildingBlock: XIVTED_clean_linker_0, # of connection points: 2
#     Edge 29, Type (0, 0), BuildingBlock: XIVTED_clean_linker_0, # of connection points: 2
#     Edge 30, Type (0, 0), BuildingBlock: XIVTED_clean_linker_0, # of connection points: 2
#     Edge 31, Type (0, 0), BuildingBlock: XIVTED_clean_linker_0, # of connection points: 2
#     Edge 32, Type (0, 0), BuildingBlock: XIVTED_clean_linker_0, # of connection points: 2
#     Edge 33, Type (0, 0), BuildingBlock: XIVTED_clean_linker_0, # of connection points: 2
#     Edge 34, Type (0, 0), BuildingBlock: XIVTED_clean_linker_0, # of connection points: 2
#     Edge 35, Type (0, 0), BuildingBlock: XIVTED_clean_linker_0, # of connection points: 2
#     Edge 36, Type (0, 0), BuildingBlock: XIVTED_clean_linker_0, # of connection points: 2
#     Edge 37, Type (0, 0), BuildingBlock: XIVTED_clean_linker_0, # of connection points: 2
#     Edge 38, Type (0, 0), BuildingBlock: XIVTED_clean_linker_0, # of connection points: 2
#     Edge 39, Type (0, 0), BuildingBlock: XIVTED_clean_linker_0, # of connection points: 2
#     Edge 40, Type (0, 0), BuildingBlock: XIVTED_clean_linker_0, # of connection points: 2
#     Edge 41, Type (0, 0), BuildingBlock: XIVTED_clean_linker_0, # of connection points: 2
#     Edge 42, Type (0, 0), BuildingBlock: XIVTED_clean_linker_0, # of connection points: 2
#     Edge 43, Type (0, 0), BuildingBlock: XIVTED_clean_linker_0, # of connection points: 2
#     Edge 44, Type (0, 0), BuildingBlock: XIVTED_clean_linker_0, # of connection points: 2
#     Edge 45, Type (0, 0), BuildingBlock: XIVTED_clean_linker_0, # of connection points: 2
#     Edge 46, Type (0, 0), BuildingBlock: XIVTED_clean_linker_0, # of connection points: 2
#     Edge 47, Type (0, 0), BuildingBlock: XIVTED_clean_linker_0, # of connection points: 2
# Relax obj value: 0.047
# Max RMSD: 0.084
# Mean RMSD: 0.084
data_MOF--net-uou--node1-KUFVIS_clean_sbu_0--edge1-XIVTED_clean_linker_0
_symmetry_space_group_name_H-M    P1
_symmetry_Int_Tables_number       1
_symmetry_cell_setting            triclinic
loop_
_symmetry_equiv_pos_as_xyz
'x, y, z'
_cell_length_a     38.201645
_cell_length_b     40.758478
_cell_length_c     52.901208
_cell_angle_alpha  89.9819
_cell_angle_beta   90.002174
_cell_angle_gamma 90.165224
loop_
_atom_site_label
_atom_site_type_symbol
_atom_site_fract_x
_atom_site_fract_y
_atom_site_fract_z
_atom_type_partial_charge
Mn0 Mn 0.06957 0.09395 0.114 0.0
Mn1 Mn 0.05391 0.01624 0.13288 0.0
C2 C 0.05886 0.08314 0.1561 0.0
C3 C 0.0472 0.14323 0.09836 0.0
C4 C 0.12655 0.04183 0.11988 0.0
O5 O 0.05847 0.07024 0.08121 0.0
O6 O 0.04412 0.02026 0.09622 0.0
C7 C 0.97724 0.01498 0.12496 0.0
N8 N 0.00532 0.01154 0.1406 0.0
C9 C 0.96792 1.00093 0.17624 0.0
C10 C 0.93861 1.00408 0.16049 0.0
C11 C 0.94331 0.01109 0.13472 0.0
C12 C 1.00113 1.00448 0.16536 0.0
H13 H 0.98068 0.02086 0.10521 0.0
C14 C 0.04722 0.041 0.07818 0.0
O15 O 0.08009 0.13586 0.09559 0.0
O16 O 0.02763 0.12185 0.1097 0.0
N17 N 0.0618 0.00913 0.16814 0.0
C18 C 0.09269 0.00844 0.18101 0.0
C19 C 0.09251 1.00232 0.20714 0.0
C20 C 0.0606 0.99714 0.21973 0.0
C21 C 0.02922 0.99761 0.20598 0.0
C22 C 0.03107 1.00297 0.17991 0.0
H23 H 0.11725 0.01282 0.17147 0.0
O24 O 0.0747 0.11 0.14952 0.0
O25 O 0.04971 0.06363 0.13782 0.0
O26 O 0.11779 0.07159 0.11556 0.0
O27 O 0.10459 0.01936 0.12581 0.0
C28 C 0.99608 0.99437 0.21729 0.0
C29 C 0.96545 0.9957 0.20248 0.0
H30 H 0.91237 1.0016 0.16805 0.0
H31 H 0.92082 0.01381 0.12246 0.0
H32 H 0.11684 1.00207 0.21761 0.0
H33 H 0.06047 0.99325 0.23999 0.0
H34 H 0.99386 0.99225 0.23747 0.0
H35 H 0.94014 0.99358 0.21157 0.0
Mn36 Mn 0.43545 0.91993 0.11339 0.0
Mn37 Mn 0.45248 0.99723 0.13264 0.0
C38 C 0.44743 0.93028 0.15544 0.0
C39 C 0.4561 0.87011 0.09754 0.0
C40 C 0.3793 0.97275 0.12019 0.0
O41 O 0.44652 0.94379 0.08056 0.0
O42 O 0.46116 0.99357 0.09587 0.0
C43 C 0.52893 0.99785 0.12362 0.0
N44 N 0.50133 1.00126 0.1397 0.0
C45 C 0.53982 0.01091 0.17489 0.0
C46 C 0.56866 0.00775 0.15869 0.0
C47 C 0.56317 1.00123 0.13293 0.0
C48 C 0.50628 0.0078 0.16447 0.0
H49 H 0.52488 0.9924 0.10386 0.0
C50 C 0.45774 0.9731 0.07768 0.0
O51 O 0.42344 0.87843 0.09504 0.0
O52 O 0.4766 0.89101 0.10858 0.0
N53 N 0.44564 1.00383 0.16806 0.0
C54 C 0.41511 1.00467 0.18135 0.0
C55 C 0.41607 0.01025 0.20754 0.0
C56 C 0.44838 0.01476 0.21973 0.0
C57 C 0.47938 0.01424 0.20554 0.0
C58 C 0.47676 0.00936 0.17945 0.0
H59 H 0.39024 1.00079 0.17211 0.0
O60 O 0.43079 0.90379 0.14899 0.0
O61 O 0.45636 0.94975 0.13709 0.0
O62 O 0.38772 0.94302 0.11545 0.0
O63 O 0.40157 0.99487 0.12625 0.0
C64 C 0.51286 0.01702 0.21639 0.0
C65 C 0.54306 0.01572 0.20113 0.0
H66 H 0.59512 0.00987 0.16589 0.0
H67 H 0.58528 0.99853 0.12032 0.0
H68 H 0.39203 0.01059 0.21835 0.0
H69 H 0.44909 0.01817 0.24002 0.0
H70 H 0.51567 0.01868 0.23655 0.0
H71 H 0.56864 0.01748 0.20988 0.0
Mn72 Mn 0.56648 0.92363 0.36803 0.0
Mn73 Mn 0.55157 1.00321 0.35395 0.0
C74 C 0.55621 0.93955 0.32658 0.0
C75 C 0.54581 0.87142 0.3796 0.0
C76 C 0.62392 0.97636 0.36514 0.0
O77 O 0.55447 0.9433 0.40243 0.0
O78 O 0.54275 0.99501 0.39015 0.0
C79 C 0.47506 1.00427 0.36284 0.0
N80 N 0.50297 0.00978 0.34738 0.0
C81 C 0.46621 0.03407 0.31563 0.0
C82 C 0.43703 0.02871 0.3312 0.0
C83 C 0.44145 0.0135 0.35483 0.0
C84 C 0.4989 0.02364 0.32439 0.0
H85 H 0.47848 0.99308 0.38118 0.0
C86 C 0.54472 0.97266 0.40704 0.0
O87 O 0.57818 0.88003 0.3833 0.0
O88 O 0.52534 0.89344 0.36997 0.0
N89 N 0.5587 0.01506 0.3194 0.0
C90 C 0.58936 0.01727 0.30635 0.0
C91 C 0.58962 0.03212 0.28241 0.0
C92 C 0.55855 0.04508 0.2724 0.0
C93 C 0.52722 0.04219 0.28609 0.0
C94 C 0.52852 0.02687 0.30972 0.0
H95 H 0.61351 0.00828 0.31434 0.0
O96 O 0.57242 0.91237 0.33154 0.0
O97 O 0.54633 0.95658 0.34602 0.0
O98 O 0.61465 0.94651 0.36847 0.0
O99 O 0.60231 0.99921 0.35997 0.0
C100 C 0.4948 0.05418 0.27734 0.0
C101 C 0.46423 0.04961 0.2919 0.0
H102 H 0.41113 0.03618 0.32521 0.0
H103 H 0.41907 0.00927 0.36695 0.0
H104 H 0.61384 0.03415 0.27191 0.0
H105 H 0.55906 0.05713 0.25415 0.0
H106 H 0.49299 0.06661 0.25929 0.0
H107 H 0.43939 0.05834 0.28473 0.0
Mn108 Mn 0.93764 0.08842 0.36796 0.0
Mn109 Mn 0.95246 0.00859 0.35468 0.0
C110 C 0.94919 0.07204 0.3268 0.0
C111 C 0.9584 0.1406 0.37948 0.0
C112 C 0.87997 0.03595 0.36459 0.0
O113 O 0.94858 0.06911 0.40264 0.0
O114 O 0.96011 0.01712 0.39099 0.0
C115 C 0.02861 1.007 0.36501 0.0
N116 N 1.00123 1.00156 0.34906 0.0
C117 C 0.03898 0.97704 0.31805 0.0
C118 C 0.06763 0.98231 0.33413 0.0
C119 C 0.06244 0.99757 0.35765 0.0
C120 C 0.00602 0.98753 0.32621 0.0
H121 H 0.02463 0.01831 0.38324 0.0
C122 C 0.95791 0.03973 0.40765 0.0
O123 O 0.92585 0.13229 0.38273 0.0
O124 O 0.97894 0.11833 0.37029 0.0
N125 N 0.94649 0.99651 0.32006 0.0
C126 C 0.91636 0.99467 0.30635 0.0
C127 C 0.91693 0.98002 0.28234 0.0
C128 C 0.94829 0.96691 0.27292 0.0
C129 C 0.97907 0.9694 0.28728 0.0
C130 C 0.97693 0.98449 0.31096 0.0
H131 H 0.892 1.00386 0.31385 0.0
O132 O 0.93285 0.09928 0.33131 0.0
O133 O 0.95829 0.05513 0.34652 0.0
O134 O 0.88933 0.06577 0.36791 0.0
O135 O 0.90158 0.01297 0.35976 0.0
C136 C 0.01174 0.95732 0.27913 0.0
C137 C 0.04177 0.96164 0.2943 0.0
H138 H 0.0937 0.97476 0.32862 0.0
H139 H 0.08442 1.00176 0.37016 0.0
H140 H 0.89314 0.9783 0.27132 0.0
H141 H 0.94842 0.95507 0.2546 0.0
H142 H 0.01418 0.94502 0.26107 0.0
H143 H 0.06684 0.95288 0.28758 0.0
Mn144 Mn 0.93406 0.91964 0.87211 0.0
Mn145 Mn 0.9514 0.99746 0.85423 0.0
C146 C 0.94643 0.9311 0.8303 0.0
C147 C 0.9548 0.86963 0.88759 0.0
C148 C 0.87798 0.9726 0.86554 0.0
O149 O 0.94448 0.94258 0.9054 0.0
O150 O 0.95937 0.99274 0.89103 0.0
C151 C 0.02767 0.9975 0.86405 0.0
N152 N 1.0004 1.00158 0.84776 0.0
C153 C 0.03964 0.01209 0.81314 0.0
C154 C 0.06813 0.00827 0.82957 0.0
C155 C 0.0621 1.00099 0.85515 0.0
C156 C 0.00587 0.00887 0.82317 0.0
H157 H 0.0232 0.99143 0.88366 0.0
C158 C 0.95563 0.97178 0.90886 0.0
O159 O 0.92203 0.87767 0.88986 0.0
O160 O 0.97528 0.89082 0.87685 0.0
N161 N 0.9453 1.00525 0.81889 0.0
C162 C 0.91503 1.00681 0.80532 0.0
C163 C 0.91652 0.01343 0.77929 0.0
C164 C 0.94909 0.01822 0.76752 0.0
C165 C 0.97983 0.01691 0.78198 0.0
C166 C 0.97667 0.01108 0.80793 0.0
H167 H 0.88996 1.00275 0.81424 0.0
O168 O 0.9299 0.90437 0.83628 0.0
O169 O 0.95521 0.95011 0.84897 0.0
O170 O 0.8863 0.94276 0.86997 0.0
O171 O 0.90036 0.99489 0.86004 0.0
C172 C 0.01354 0.01985 0.77152 0.0
C173 C 0.04342 0.01773 0.78704 0.0
H174 H 0.09474 0.01047 0.82269 0.0
H175 H 0.08395 0.99777 0.86793 0.0
H176 H 0.89269 0.01435 0.76826 0.0
H177 H 0.95019 0.02241 0.74734 0.0
H178 H 0.01679 0.0224 0.75144 0.0
H179 H 0.06918 0.01965 0.77859 0.0
Mn180 Mn 0.5692 0.09528 0.87191 0.0
Mn181 Mn 0.55209 0.01795 0.85277 0.0
C182 C 0.55682 0.08489 0.82993 0.0
C183 C 0.54858 0.14508 0.88786 0.0
C184 C 0.62539 0.04255 0.86473 0.0
O185 O 0.55856 0.07144 0.90481 0.0
O186 O 0.54394 0.02161 0.8896 0.0
C187 C 0.47577 0.01726 0.86237 0.0
N188 N 0.50314 0.01384 0.84608 0.0
C189 C 0.46415 1.004 0.81121 0.0
C190 C 0.43555 0.00716 0.82762 0.0
C191 C 0.44141 0.01378 0.85333 0.0
C192 C 0.49784 0.00722 0.82137 0.0
H193 H 0.4801 0.02278 0.88209 0.0
C194 C 0.5475 0.04209 0.90777 0.0
O195 O 0.58128 0.13683 0.89018 0.0
O196 O 0.52803 0.12412 0.87693 0.0
N197 N 0.55841 0.01127 0.81731 0.0
C198 C 0.58876 0.01036 0.80379 0.0
C199 C 0.58742 1.00464 0.77764 0.0
C200 C 0.55494 1.00004 0.7657 0.0
C201 C 0.52415 1.0006 0.78012 0.0
C202 C 0.52714 1.00564 0.80617 0.0
H203 H 0.61375 0.01429 0.81285 0.0
O204 O 0.57345 0.11142 0.83628 0.0
O205 O 0.54809 0.06542 0.84833 0.0
O206 O 0.61698 0.07225 0.86958 0.0
O207 O 0.60308 0.02041 0.85877 0.0
C208 C 0.49051 0.9977 0.76953 0.0
C209 C 0.46054 0.99904 0.78501 0.0
H210 H 0.40899 1.00496 0.82064 0.0
H211 H 0.41947 0.01649 0.8661 0.0
H212 H 0.61131 1.00425 0.76665 0.0
H213 H 0.55395 0.99653 0.74543 0.0
H214 H 0.4874 0.99589 0.74939 0.0
H215 H 0.43484 0.99719 0.77647 0.0
Mn216 Mn 0.43813 0.0899 0.61737 0.0
Mn217 Mn 0.45247 0.01032 0.63173 0.0
C218 C 0.44797 0.07413 0.6589 0.0
C219 C 0.45902 0.14196 0.60576 0.0
C220 C 0.3804 0.03749 0.62008 0.0
O221 O 0.45038 0.07001 0.5831 0.0
O222 O 0.46174 0.01827 0.59554 0.0
C223 C 0.52906 0.00872 0.62325 0.0
N224 N 0.50096 1.00351 0.63859 0.0
C225 C 0.53724 0.97927 0.67065 0.0
C226 C 0.56661 0.98433 0.65522 0.0
C227 C 0.56253 0.99936 0.63149 0.0
C228 C 0.5047 0.98981 0.66167 0.0
H229 H 0.52591 0.01979 0.60484 0.0
C230 C 0.46006 0.04059 0.5786 0.0
O231 O 0.42667 0.13341 0.60192 0.0
O232 O 0.47938 0.11996 0.61554 0.0
N233 N 0.44491 0.99874 0.66629 0.0
C234 C 0.41412 0.99686 0.6792 0.0
C235 C 0.41353 0.9823 0.70325 0.0
C236 C 0.44443 0.96928 0.7135 0.0
C237 C 0.47589 0.9718 0.69994 0.0
C238 C 0.47491 0.98686 0.6762 0.0
H239 H 0.3901 1.00592 0.67104 0.0
O240 O 0.4319 0.10134 0.65379 0.0
O241 O 0.45794 0.05696 0.63955 0.0
O242 O 0.38989 0.06726 0.61675 0.0
O243 O 0.40182 0.01453 0.62541 0.0
C244 C 0.50814 0.9597 0.70892 0.0
C245 C 0.53888 0.96394 0.69448 0.0
H246 H 0.5924 0.97676 0.66138 0.0
H247 H 0.58506 1.00336 0.61947 0.0
H248 H 0.38921 0.98056 0.71365 0.0
H249 H 0.44368 0.95748 0.73184 0.0
H250 H 0.50969 0.94745 0.72705 0.0
H251 H 0.56359 0.95513 0.70183 0.0
Mn252 Mn 0.06664 0.92676 0.61862 0.0
Mn253 Mn 0.05198 1.00641 0.63248 0.0
C254 C 0.05711 0.94298 0.66005 0.0
C255 C 0.04572 0.87462 0.60731 0.0
C256 C 0.12413 0.97945 0.6208 0.0
O257 O 0.0541 0.94623 0.58429 0.0
O258 O 0.04255 0.99808 0.59635 0.0
C259 C 0.97535 0.00749 0.62416 0.0
N260 N 0.00346 0.01289 0.63945 0.0
C261 C 0.96708 0.03676 0.6716 0.0
C262 C 0.9377 0.03152 0.65622 0.0
C263 C 0.94183 0.01658 0.63247 0.0
C264 C 0.99968 0.02649 0.66256 0.0
H265 H 0.97852 0.9965 0.60574 0.0
C266 C 0.04423 0.97554 0.57959 0.0
O267 O 0.07807 0.88312 0.60338 0.0
O268 O 0.02544 0.89667 0.6171 0.0
N269 N 0.05963 0.01827 0.66698 0.0
C270 C 0.09046 0.02046 0.67982 0.0
C271 C 0.09096 0.03487 0.70391 0.0
C272 C 0.05995 0.04746 0.71428 0.0
C273 C 0.02846 0.0447 0.70078 0.0
C274 C 0.02951 0.02973 0.67701 0.0
H275 H 0.11455 0.01171 0.67158 0.0
O276 O 0.07317 0.91571 0.65511 0.0
O277 O 0.04689 0.95985 0.64062 0.0
O278 O 0.11475 0.94961 0.61769 0.0
O279 O 0.10265 1.00239 0.62605 0.0
C280 C 0.99614 0.05653 0.70981 0.0
C281 C 0.96539 0.05207 0.69543 0.0
H282 H 0.91187 0.03889 0.66242 0.0
H283 H 0.91929 0.01243 0.62048 0.0
H284 H 0.11531 0.03683 0.71426 0.0
H285 H 0.06064 0.05918 0.73265 0.0
H286 H 0.99454 0.06883 0.72791 0.0
H287 H 0.94063 0.06071 0.70281 0.0
Mn288 Mn 0.56954 0.59391 0.1144 0.0
Mn289 Mn 0.55246 0.51635 0.13309 0.0
C290 C 0.55741 0.58309 0.15636 0.0
C291 C 0.54899 0.64382 0.09864 0.0
C292 C 0.62573 0.54111 0.12128 0.0
O293 O 0.55881 0.57043 0.08137 0.0
O294 O 0.54431 0.52042 0.09628 0.0
C295 C 0.47615 0.51597 0.12345 0.0
N296 N 0.5035 0.51224 0.13972 0.0
C297 C 0.46444 0.50243 0.17456 0.0
C298 C 0.43586 0.50588 0.15816 0.0
C299 C 0.44176 0.51263 0.13247 0.0
C300 C 0.49815 0.50544 0.1644 0.0
H301 H 0.48051 0.52164 0.10376 0.0
C302 C 0.5478 0.5411 0.07824 0.0
O303 O 0.58167 0.63555 0.09629 0.0
O304 O 0.52841 0.62285 0.10956 0.0
N305 N 0.55875 0.50919 0.16849 0.0
C306 C 0.58909 0.5079 0.18199 0.0
C307 C 0.58773 0.50179 0.2081 0.0
C308 C 0.55522 0.49724 0.22001 0.0
C309 C 0.52441 0.49827 0.20561 0.0
C310 C 0.52744 0.50355 0.1796 0.0
H311 H 0.61411 0.51181 0.17297 0.0
O312 O 0.57396 0.60969 0.15009 0.0
O313 O 0.54851 0.5638 0.13788 0.0
O314 O 0.61727 0.57083 0.11656 0.0
O315 O 0.60347 0.51887 0.12712 0.0
C316 C 0.49076 0.49563 0.2162 0.0
C317 C 0.46079 0.49739 0.20074 0.0
H318 H 0.40929 0.50383 0.16514 0.0
H319 H 0.41985 0.51557 0.11972 0.0
H320 H 0.61162 0.50109 0.21908 0.0
H321 H 0.55422 0.49347 0.24025 0.0
H322 H 0.48763 0.49368 0.23633 0.0
H323 H 0.43508 0.4957 0.20929 0.0
Mn324 Mn 0.9346 0.41926 0.11353 0.0
Mn325 Mn 0.95186 0.49641 0.13304 0.0
C326 C 0.94662 0.42932 0.15559 0.0
C327 C 0.95494 0.36944 0.09748 0.0
C328 C 0.87857 0.47214 0.12075 0.0
O329 O 0.94577 0.44323 0.08079 0.0
O330 O 0.96018 0.493 0.0962 0.0
C331 C 0.02822 0.49683 0.12359 0.0
N332 N 1.00081 0.50025 0.13984 0.0
C333 C 0.03971 0.50956 0.17484 0.0
C334 C 0.06836 0.50639 0.15847 0.0
C335 C 0.06257 0.50003 0.13272 0.0
C336 C 0.00605 0.50662 0.1646 0.0
H337 H 0.02395 0.4915 0.10384 0.0
C338 C 0.95684 0.47259 0.07797 0.0
O339 O 0.92237 0.37804 0.09494 0.0
O340 O 0.97556 0.39011 0.10867 0.0
N341 N 0.94544 0.50286 0.16851 0.0
C342 C 0.91504 0.50384 0.18197 0.0
C343 C 0.91631 0.50936 0.20816 0.0
C344 C 0.94877 0.51366 0.22018 0.0
C345 C 0.97962 0.51303 0.20582 0.0
C346 C 0.9767 0.50823 0.17975 0.0
H347 H 0.89006 0.50013 0.17285 0.0
O348 O 0.92986 0.40293 0.14906 0.0
O349 O 0.95564 0.44887 0.13731 0.0
O350 O 0.88697 0.44251 0.11569 0.0
O351 O 0.90087 0.49419 0.12693 0.0
C352 C 0.01323 0.5156 0.2165 0.0
C353 C 0.04326 0.51424 0.20108 0.0
H354 H 0.09491 0.50837 0.16553 0.0
H355 H 0.08454 0.49731 0.11998 0.0
H356 H 0.89238 0.5098 0.2191 0.0
H357 H 0.94971 0.51701 0.24047 0.0
H358 H 0.01627 0.51712 0.23666 0.0
H359 H 0.06894 0.51584 0.20968 0.0
Mn360 Mn 0.06476 0.42524 0.36828 0.0
Mn361 Mn 0.05112 0.50478 0.35346 0.0
C362 C 0.05527 0.4407 0.32664 0.0
C363 C 0.04312 0.37345 0.38002 0.0
C364 C 0.12293 0.47722 0.36546 0.0
O365 O 0.05255 0.44551 0.40242 0.0
O366 O 0.04164 0.4972 0.38966 0.0
C367 C 0.97451 0.50699 0.36177 0.0
N368 N 0.00271 0.51187 0.34647 0.0
C369 C 0.96678 0.53621 0.31425 0.0
C370 C 0.9373 0.53148 0.32965 0.0
C371 C 0.94116 0.51657 0.35344 0.0
C372 C 0.99918 0.52546 0.32333 0.0
H373 H 0.9775 0.49602 0.38023 0.0
C374 C 0.04309 0.47504 0.40673 0.0
O375 O 0.07556 0.38166 0.38394 0.0
O376 O 0.02314 0.39565 0.3701 0.0
N377 N 0.05891 0.51603 0.31887 0.0
C378 C 0.08975 0.51756 0.306 0.0
C379 C 0.09055 0.53194 0.28189 0.0
C380 C 0.05982 0.54516 0.27153 0.0
C381 C 0.02829 0.54301 0.28506 0.0
C382 C 0.02905 0.52808 0.30885 0.0
H383 H 0.11365 0.50836 0.31424 0.0
O384 O 0.07108 0.41342 0.33194 0.0
O385 O 0.04535 0.45812 0.34587 0.0
O386 O 0.11323 0.44753 0.36892 0.0
O387 O 0.10169 0.50025 0.35992 0.0
C388 C 0.99619 0.55532 0.27598 0.0
C389 C 0.96536 0.55143 0.29037 0.0
H390 H 0.91161 0.53923 0.32341 0.0
H391 H 0.91855 0.51283 0.36543 0.0
H392 H 0.11492 0.5334 0.27151 0.0
H393 H 0.06071 0.55679 0.25313 0.0
H394 H 0.99481 0.56743 0.25778 0.0
H395 H 0.94076 0.56038 0.28294 0.0
Mn396 Mn 0.43706 0.58743 0.36821 0.0
Mn397 Mn 0.45143 0.50788 0.35384 0.0
C398 C 0.44656 0.57158 0.32666 0.0
C399 C 0.45801 0.63957 0.37967 0.0
C400 C 0.37935 0.53489 0.36556 0.0
O401 O 0.44961 0.56764 0.40246 0.0
O402 O 0.46049 0.51581 0.39005 0.0
C403 C 0.52798 0.50651 0.36255 0.0
N404 N 0.49999 0.50129 0.3471 0.0
C405 C 0.53654 0.47724 0.31514 0.0
C406 C 0.5658 0.48231 0.33068 0.0
C407 C 0.56152 0.49725 0.35442 0.0
C408 C 0.50393 0.48771 0.324 0.0
H409 H 0.52467 0.51747 0.38098 0.0
C410 C 0.45902 0.53814 0.40698 0.0
O411 O 0.4257 0.63099 0.38364 0.0
O412 O 0.47829 0.61756 0.36982 0.0
N413 N 0.44409 0.49629 0.31926 0.0
C414 C 0.41336 0.49422 0.30629 0.0
C415 C 0.41298 0.47974 0.28222 0.0
C416 C 0.44401 0.46693 0.27203 0.0
C417 C 0.47539 0.46957 0.28567 0.0
C418 C 0.47422 0.48464 0.3094 0.0
H419 H 0.38924 0.50309 0.31441 0.0
O420 O 0.43052 0.5988 0.33178 0.0
O421 O 0.45676 0.5545 0.346 0.0
O422 O 0.38887 0.56464 0.36904 0.0
O423 O 0.40074 0.51199 0.36004 0.0
C424 C 0.50773 0.45755 0.27681 0.0
C425 C 0.53837 0.46188 0.29133 0.0
H426 H 0.59164 0.47478 0.32462 0.0
H427 H 0.58396 0.50125 0.36653 0.0
H428 H 0.38872 0.47787 0.27176 0.0
H429 H 0.44343 0.45516 0.25367 0.0
H430 H 0.50942 0.44526 0.25871 0.0
H431 H 0.56315 0.4531 0.28408 0.0
Mn432 Mn 0.43567 0.42154 0.87175 0.0
Mn433 Mn 0.45371 0.49883 0.85289 0.0
C434 C 0.4477 0.43209 0.82974 0.0
C435 C 0.45588 0.37147 0.88749 0.0
C436 C 0.38015 0.475 0.86497 0.0
O437 O 0.44687 0.44499 0.90471 0.0
O438 O 0.46203 0.49476 0.88968 0.0
C439 C 0.53007 0.4983 0.86226 0.0
N440 N 0.50267 0.50231 0.84608 0.0
C441 C 0.54163 0.51146 0.81108 0.0
C442 C 0.57026 0.5077 0.82739 0.0
C443 C 0.56444 0.50114 0.85311 0.0
C444 C 0.50795 0.50894 0.82136 0.0
H445 H 0.52576 0.49275 0.88198 0.0
C446 C 0.45832 0.47418 0.90777 0.0
O447 O 0.42327 0.37999 0.88995 0.0
O448 O 0.47654 0.39227 0.87649 0.0
N449 N 0.44728 0.50595 0.8175 0.0
C450 C 0.41686 0.50754 0.8041 0.0
C451 C 0.41813 0.51349 0.77797 0.0
C452 C 0.45062 0.51757 0.76593 0.0
C453 C 0.48151 0.51624 0.78023 0.0
C454 C 0.47859 0.51113 0.80627 0.0
H455 H 0.39186 0.50399 0.81323 0.0
O456 O 0.43085 0.4057 0.83611 0.0
O457 O 0.45693 0.45134 0.84816 0.0
O458 O 0.38818 0.44516 0.8697 0.0
O459 O 0.40272 0.49693 0.85904 0.0
C460 C 0.51513 0.51837 0.76951 0.0
C461 C 0.54517 0.51631 0.78487 0.0
H462 H 0.59682 0.50937 0.8203 0.0
H463 H 0.5864 0.49797 0.8658 0.0
H464 H 0.39418 0.51443 0.76708 0.0
H465 H 0.45154 0.52121 0.74568 0.0
H466 H 0.51814 0.52013 0.74936 0.0
H467 H 0.57084 0.5176 0.77622 0.0
Mn468 Mn 0.07063 0.59455 0.87288 0.0
Mn469 Mn 0.05303 0.5174 0.85358 0.0
C470 C 0.05817 0.58441 0.83089 0.0
C471 C 0.05 0.64427 0.88893 0.0
C472 C 0.12651 0.5416 0.86549 0.0
O473 O 0.05994 0.57064 0.90574 0.0
O474 O 0.045 0.52096 0.89043 0.0
C475 C 0.97674 0.51715 0.86331 0.0
N476 N 0.00403 0.51361 0.84697 0.0
C477 C 0.96486 0.50429 0.81213 0.0
C478 C 0.93633 0.50757 0.8286 0.0
C479 C 0.94232 0.51399 0.85432 0.0
C480 C 0.9986 0.50718 0.82224 0.0
H481 H 0.98118 0.52253 0.88304 0.0
C482 C 0.04871 0.54134 0.90864 0.0
O483 O 0.08272 0.63608 0.89123 0.0
O484 O 0.02949 0.62334 0.87797 0.0
N485 N 0.05919 0.51082 0.8181 0.0
C486 C 0.08949 0.50973 0.80453 0.0
C487 C 0.08802 0.50415 0.77836 0.0
C488 C 0.05547 0.49989 0.76646 0.0
C489 C 0.02472 0.50061 0.78093 0.0
C490 C 0.02784 0.50547 0.80699 0.0
H491 H 0.11454 0.51341 0.81356 0.0
O492 O 0.07492 0.61084 0.8373 0.0
O493 O 0.04937 0.56489 0.84924 0.0
O494 O 0.11833 0.57134 0.87045 0.0
O495 O 0.10404 0.51961 0.85951 0.0
C496 C 0.99103 0.49807 0.77038 0.0
C497 C 0.96112 0.49954 0.78592 0.0
H498 H 0.90974 0.50562 0.82165 0.0
H499 H 0.92045 0.51679 0.86713 0.0
H500 H 0.11187 0.50363 0.76733 0.0
H501 H 0.05438 0.4965 0.74618 0.0
H502 H 0.98784 0.49647 0.75024 0.0
H503 H 0.93537 0.49796 0.77741 0.0
Mn504 Mn 0.94002 0.58994 0.61823 0.0
Mn505 Mn 0.95314 0.51027 0.6329 0.0
C506 C 0.94943 0.57429 0.65983 0.0
C507 C 0.96169 0.64168 0.60653 0.0
C508 C 0.88154 0.53829 0.62096 0.0
O509 O 0.95213 0.56971 0.58405 0.0
O510 O 0.96265 0.51791 0.59671 0.0
C511 C 0.02972 0.50766 0.62457 0.0
N512 N 1.0015 0.50288 0.63987 0.0
C513 C 0.03729 0.47827 0.67205 0.0
C514 C 0.06679 0.48288 0.65665 0.0
C515 C 0.06301 0.49788 0.63289 0.0
C516 C 0.00496 0.48922 0.66299 0.0
H517 H 0.0268 0.51869 0.60613 0.0
C518 C 0.96138 0.54013 0.57969 0.0
O519 O 0.92925 0.6335 0.60262 0.0
O520 O 0.9817 0.61946 0.61642 0.0
N521 N 0.94529 0.49898 0.66748 0.0
C522 C 0.91445 0.49759 0.68036 0.0
C523 C 0.91357 0.48316 0.70445 0.0
C524 C 0.94422 0.46974 0.71477 0.0
C525 C 0.97576 0.47174 0.70125 0.0
C526 C 0.97508 0.48673 0.67748 0.0
H527 H 0.8906 0.50695 0.67214 0.0
O528 O 0.93377 0.60167 0.6546 0.0
O529 O 0.95925 0.55689 0.64057 0.0
O530 O 0.89149 0.56791 0.61755 0.0
O531 O 0.90257 0.51509 0.62647 0.0
C532 C 0.00778 0.45922 0.71029 0.0
C533 C 0.03862 0.46299 0.69591 0.0
H534 H 0.09244 0.47499 0.66287 0.0
H535 H 0.08564 0.50154 0.62089 0.0
H536 H 0.88919 0.48181 0.71482 0.0
H537 H 0.94325 0.45805 0.73315 0.0
H538 H 0.00909 0.44703 0.72846 0.0
H539 H 0.06317 0.45387 0.70331 0.0
Mn540 Mn 0.56786 0.42572 0.61777 0.0
Mn541 Mn 0.55411 0.50541 0.63205 0.0
C542 C 0.5584 0.44169 0.65928 0.0
C543 C 0.54677 0.37371 0.60624 0.0
C544 C 0.62596 0.47784 0.62043 0.0
O545 O 0.55553 0.44557 0.58349 0.0
O546 O 0.54501 0.49748 0.59584 0.0
C547 C 0.47759 0.5073 0.62332 0.0
N548 N 0.5056 0.51237 0.63876 0.0
C549 C 0.46924 0.53681 0.67066 0.0
C550 C 0.43995 0.53191 0.65511 0.0
C551 C 0.44412 0.51684 0.63142 0.0
C552 C 0.50177 0.52605 0.66183 0.0
H553 H 0.48081 0.49624 0.60491 0.0
C554 C 0.54634 0.47511 0.57894 0.0
O555 O 0.57912 0.38219 0.60234 0.0
O556 O 0.52651 0.39575 0.61608 0.0
N557 N 0.56152 0.517 0.66662 0.0
C558 C 0.59226 0.51889 0.6796 0.0
C559 C 0.59276 0.53349 0.70362 0.0
C560 C 0.56184 0.54661 0.71376 0.0
C561 C 0.53044 0.54414 0.70012 0.0
C562 C 0.53149 0.52894 0.67644 0.0
H563 H 0.6163 0.50978 0.67152 0.0
O564 O 0.57424 0.41435 0.6542 0.0
O565 O 0.54835 0.45881 0.63993 0.0
O566 O 0.61617 0.44818 0.61698 0.0
O567 O 0.60479 0.50094 0.6259 0.0
C568 C 0.49821 0.55645 0.70894 0.0
C569 C 0.46754 0.55229 0.69442 0.0
H570 H 0.41417 0.53965 0.66116 0.0
H571 H 0.42165 0.51296 0.6193 0.0
H572 H 0.61703 0.53522 0.71409 0.0
H573 H 0.56253 0.55847 0.73208 0.0
H574 H 0.49662 0.56883 0.72701 0.0
H575 H 0.44283 0.56129 0.70165 0.0
H576 H 0.32136 0.93313 0.11417 0.0
H577 H 0.18444 0.08199 0.11536 0.0
H578 H 0.35164 0.03465 0.12312 0.0
H579 H 0.15442 0.98 0.12107 0.0
H580 H 0.24595 0.06527 0.11431 0.0
H581 H 0.26001 0.95008 0.11284 0.0
C582 C 0.31521 0.95897 0.11578 0.0
C583 C 0.34186 0.98243 0.11884 0.0
C584 C 0.22584 0.04659 0.11576 0.0
C585 C 0.27154 1.00203 0.11725 0.0
C586 C 0.19069 0.05611 0.11628 0.0
C587 C 0.16406 0.03243 0.11838 0.0
C588 C 0.23449 0.01312 0.11715 0.0
C589 C 0.17391 0.99922 0.11955 0.0
C590 C 0.28013 0.96863 0.11507 0.0
C591 C 0.3321 0.0156 0.12084 0.0
N592 N 0.20823 0.9906 0.1189 0.0
N593 N 0.29782 0.02437 0.12 0.0
H594 H 0.65301 0.0379 0.36416 0.0
H595 H 0.85073 0.9745 0.36338 0.0
H596 H 0.68111 0.93557 0.36956 0.0
H597 H 0.82285 0.07686 0.36907 0.0
H598 H 0.78889 0.95994 0.36482 0.0
H599 H 0.71487 0.05254 0.36521 0.0
C600 C 0.67213 0.01843 0.36564 0.0
C601 C 0.66162 0.98534 0.36674 0.0
C602 C 0.79625 0.98558 0.36585 0.0
C603 C 0.73292 1.00216 0.36784 0.0
C604 C 0.83166 0.994 0.36498 0.0
C605 C 0.84223 0.02707 0.36607 0.0
C606 C 0.77093 0.01032 0.36765 0.0
C607 C 0.81608 0.05108 0.36819 0.0
C608 C 0.70754 0.02689 0.36627 0.0
C609 C 0.68783 0.96136 0.3687 0.0
N610 N 0.78168 0.04224 0.36881 0.0
N611 N 0.72222 0.97024 0.36906 0.0
H612 H 0.81979 0.93286 0.86983 0.0
H613 H 0.68347 0.08217 0.87024 0.0
H614 H 0.85048 0.0346 0.86345 0.0
H615 H 0.65295 0.98064 0.86178 0.0
H616 H 0.74483 0.06512 0.87135 0.0
H617 H 0.75841 0.94988 0.8705 0.0
C618 C 0.81372 0.95875 0.86865 0.0
C619 C 0.8405 0.98227 0.86652 0.0
C620 C 0.72466 0.0466 0.86926 0.0
C621 C 0.77017 1.00194 0.86734 0.0
C622 C 0.68958 0.05632 0.86869 0.0
C623 C 0.66285 0.03287 0.86586 0.0
C624 C 0.73316 0.01317 0.86719 0.0
C625 C 0.67254 0.99968 0.8639 0.0
C626 C 0.77862 0.96845 0.86897 0.0
C627 C 0.83086 0.01551 0.86502 0.0
N628 N 0.70681 0.99086 0.86464 0.0
N629 N 0.79657 0.02431 0.86548 0.0
H630 H 0.15361 0.04086 0.62143 0.0
H631 H 0.35083 0.97615 0.62086 0.0
H632 H 0.18091 0.93836 0.61582 0.0
H633 H 0.32363 0.07869 0.61538 0.0
H634 H 0.28886 0.96198 0.61954 0.0
H635 H 0.21557 0.05511 0.61974 0.0
C636 C 0.17257 0.02128 0.61977 0.0
C637 C 0.16183 0.98826 0.61882 0.0
C638 C 0.29641 0.98757 0.61851 0.0
C639 C 0.2332 1.00461 0.61697 0.0
C640 C 0.33189 0.99576 0.6193 0.0
C641 C 0.34266 0.02877 0.61828 0.0
C642 C 0.27126 0.0125 0.61685 0.0
C643 C 0.31669 0.05295 0.6162 0.0
C644 C 0.20804 0.02951 0.61876 0.0
C645 C 0.18782 0.96411 0.6166 0.0
N646 N 0.28223 0.04434 0.61569 0.0
N647 N 0.22225 0.97276 0.61588 0.0
H648 H 0.82064 0.4324 0.11527 0.0
H649 H 0.68364 0.58106 0.11646 0.0
H650 H 0.85082 0.53399 0.12389 0.0
H651 H 0.65355 0.47923 0.12354 0.0
H652 H 0.74509 0.56431 0.11542 0.0
H653 H 0.75921 0.44921 0.1145 0.0
C654 C 0.81444 0.45822 0.11692 0.0
C655 C 0.8411 0.48175 0.1197 0.0
C656 C 0.725 0.54566 0.11719 0.0
C657 C 0.7707 0.50118 0.11878 0.0
C658 C 0.68987 0.5552 0.11772 0.0
C659 C 0.66323 0.53158 0.12015 0.0
C660 C 0.73364 0.51223 0.11889 0.0
C661 C 0.67306 0.4984 0.12174 0.0
C662 C 0.77932 0.4678 0.11655 0.0
C663 C 0.83129 0.51489 0.1218 0.0
N664 N 0.70738 0.48975 0.12105 0.0
N665 N 0.79698 0.52358 0.12126 0.0
H666 H 0.34976 0.47355 0.3645 0.0
H667 H 0.15265 0.53848 0.36491 0.0
H668 H 0.3226 0.57602 0.37072 0.0
H669 H 0.17961 0.43587 0.37022 0.0
H670 H 0.21463 0.55255 0.36644 0.0
H671 H 0.28778 0.45936 0.366 0.0
C672 C 0.33082 0.49314 0.36625 0.0
C673 C 0.34162 0.52614 0.36743 0.0
C674 C 0.20703 0.52696 0.36739 0.0
C675 C 0.27021 0.50984 0.36906 0.0
C676 C 0.17155 0.51882 0.36647 0.0
C677 C 0.16069 0.48583 0.36738 0.0
C678 C 0.23213 0.50199 0.36905 0.0
C679 C 0.18662 0.4616 0.36948 0.0
C680 C 0.29535 0.48494 0.36715 0.0
C681 C 0.31566 0.55029 0.36976 0.0
N682 N 0.22109 0.47016 0.37011 0.0
N683 N 0.2812 0.54167 0.37037 0.0
H684 H 0.15344 0.47947 0.86266 0.0
H685 H 0.35339 0.53728 0.86262 0.0
H686 H 0.1851 0.58078 0.87044 0.0
H687 H 0.32152 0.43594 0.86984 0.0
H688 H 0.29206 0.55362 0.86366 0.0
H689 H 0.21476 0.46324 0.86344 0.0
C690 C 0.17323 0.49838 0.86456 0.0
C691 C 0.1639 0.53165 0.86646 0.0
C692 C 0.29846 0.52782 0.86511 0.0
C693 C 0.23455 0.513 0.86728 0.0
C694 C 0.33355 0.51838 0.86445 0.0
C695 C 0.34281 0.48508 0.86612 0.0
C696 C 0.27221 0.50384 0.86722 0.0
C697 C 0.31575 0.46187 0.86854 0.0
C698 C 0.20833 0.48901 0.86507 0.0
C699 C 0.19092 0.55488 0.86895 0.0
N700 N 0.28172 0.47168 0.8689 0.0
N701 N 0.22499 0.54513 0.86918 0.0
H702 H 0.68205 0.43606 0.6151 0.0
H703 H 0.82553 0.58025 0.61581 0.0
H704 H 0.65637 0.53884 0.62171 0.0
H705 H 0.85101 0.47736 0.62175 0.0
H706 H 0.76339 0.56558 0.61415 0.0
H707 H 0.74415 0.45083 0.6137 0.0
C708 C 0.68937 0.46172 0.61614 0.0
C709 C 0.66378 0.48618 0.6186 0.0
C710 C 0.78264 0.54624 0.61576 0.0
C711 C 0.73497 0.50327 0.61699 0.0
C712 C 0.81816 0.5546 0.61665 0.0
C713 C 0.8437 0.53007 0.619 0.0
C714 C 0.7725 0.51308 0.61709 0.0
C715 C 0.83239 0.4972 0.62004 0.0
C716 C 0.72488 0.47013 0.6154 0.0
C717 C 0.67503 0.51905 0.61989 0.0
N718 N 0.79773 0.48972 0.61908 0.0
N719 N 0.70969 0.52659 0.61908 0.0
H720 H 0.01637 0.05491 0.31681 0.0
H721 H 0.09436 0.0856 0.2007 0.0
H722 H 0.9195 0.08118 0.28053 0.0
H723 H 0.99075 0.07713 0.16937 0.0
H724 H 0.06958 0.0809 0.24319 0.0
H725 H 0.0454 0.05482 0.27584 0.0
C726 C 1.00106 0.05989 0.30004 0.0
C727 C 0.96533 0.0671 0.30186 0.0
C728 C 0.05218 0.07923 0.22713 0.0
C729 C 0.99905 0.07043 0.25507 0.0
C730 C 0.06639 0.08224 0.20292 0.0
C731 C 0.04463 0.08006 0.18174 0.0
C732 C 0.01585 0.07451 0.23002 0.0
C733 C 0.00843 0.07736 0.18537 0.0
C734 C 0.01789 0.0609 0.27667 0.0
C735 C 0.94704 0.07507 0.27977 0.0
N736 N 0.99514 0.07449 0.20907 0.0
N737 N 0.96413 0.07657 0.25725 0.0
H738 H 0.51657 0.933 0.16583 0.0
H739 H 0.48904 0.95464 0.31467 0.0
H740 H 0.41536 0.92989 0.2016 0.0
H741 H 0.58904 0.93245 0.28127 0.0
H742 H 0.46229 0.95329 0.27264 0.0
H743 H 0.54422 0.93716 0.20748 0.0
C744 C 0.50024 0.93345 0.18258 0.0
C745 C 0.46372 0.93239 0.1805 0.0
C746 C 0.49014 0.94902 0.27445 0.0
C747 C 0.49491 0.93697 0.22801 0.0
C748 C 0.50551 0.95046 0.29834 0.0
C749 C 0.5414 0.9445 0.30122 0.0
C750 C 0.51077 0.94104 0.25338 0.0
C751 C 0.56134 0.93762 0.27967 0.0
C752 C 0.51597 0.93562 0.20629 0.0
C753 C 0.44361 0.93163 0.20259 0.0
N754 N 0.54576 0.93606 0.25661 0.0
N755 N 0.45946 0.93448 0.22552 0.0
H756 H 0.09126 0.93871 0.70505 0.0
H757 H 0.91329 0.93141 0.78461 0.0
H758 H 0.98966 0.95592 0.67239 0.0
H759 H 0.01531 0.93531 0.81911 0.0
H760 H 0.94084 0.93734 0.74285 0.0
H761 H 0.06427 0.93677 0.74711 0.0
C762 C 0.06336 0.94278 0.70689 0.0
C763 C 0.04267 0.94813 0.68547 0.0
C764 C 0.95721 0.93706 0.75956 0.0
C765 C 0.01142 0.94454 0.73308 0.0
C766 C 0.9415 0.93364 0.78327 0.0
C767 C 0.96212 0.93429 0.80511 0.0
C768 C 0.99382 0.94023 0.75783 0.0
C769 C 0.99857 0.93601 0.8026 0.0
C770 C 0.04793 0.94146 0.73079 0.0
C771 C 0.00657 0.95261 0.68861 0.0
N772 N 0.01331 0.93908 0.77936 0.0
N773 N 0.992 0.95045 0.71198 0.0
H774 H 0.51504 0.05887 0.67095 0.0
H775 H 0.48764 0.08198 0.81964 0.0
H776 H 0.41508 0.08178 0.70414 0.0
H777 H 0.58876 0.08515 0.78373 0.0
H778 H 0.45991 0.07747 0.77803 0.0
H779 H 0.54175 0.06065 0.71297 0.0
C780 C 0.49856 0.0633 0.68724 0.0
C781 C 0.4627 0.06935 0.6843 0.0
C782 C 0.48816 0.07911 0.77919 0.0
C783 C 0.4933 0.0733 0.73212 0.0
C784 C 0.50393 0.08148 0.80287 0.0
C785 C 0.54046 0.08264 0.8049 0.0
C786 C 0.50917 0.07766 0.75745 0.0
C787 C 0.56051 0.08332 0.78279 0.0
C788 C 0.51392 0.06498 0.71112 0.0
C789 C 0.44276 0.07653 0.70579 0.0
N790 N 0.54463 0.08027 0.75989 0.0
N791 N 0.45833 0.07834 0.72885 0.0
H792 H 0.59048 0.58354 0.20209 0.0
H793 H 0.4125 0.57675 0.28169 0.0
H794 H 0.4885 0.57923 0.16755 0.0
H795 H 0.51393 0.55832 0.31422 0.0
H796 H 0.43952 0.57908 0.23965 0.0
H797 H 0.56286 0.57813 0.24388 0.0
C798 C 0.56227 0.58135 0.20343 0.0
C799 C 0.54168 0.58039 0.18158 0.0
C800 C 0.45582 0.57405 0.25594 0.0
C801 C 0.50992 0.57505 0.22888 0.0
C802 C 0.44036 0.5725 0.27982 0.0
C803 C 0.46099 0.56668 0.30121 0.0
C804 C 0.4923 0.57073 0.25363 0.0
C805 C 0.49706 0.56199 0.29803 0.0
C806 C 0.54653 0.57824 0.22716 0.0
C807 C 0.50522 0.57875 0.18408 0.0
N808 N 0.51166 0.56438 0.27468 0.0
N809 N 0.49045 0.57597 0.20733 0.0
H810 H 0.98836 0.45634 0.31441 0.0
H811 H 0.01577 0.43159 0.16595 0.0
H812 H 0.08815 0.43215 0.28151 0.0
H813 H 0.91457 0.429 0.20176 0.0
H814 H 0.04346 0.4359 0.20758 0.0
H815 H 0.96165 0.45397 0.2724 0.0
C816 C 0.00481 0.45152 0.29818 0.0
C817 C 0.04062 0.44528 0.3012 0.0
C818 C 0.0152 0.43441 0.2064 0.0
C819 C 0.01002 0.44064 0.25342 0.0
C820 C 0.99945 0.43215 0.1827 0.0
C821 C 0.96293 0.43125 0.18064 0.0
C822 C 0.99416 0.43606 0.22811 0.0
C823 C 0.94283 0.43064 0.20273 0.0
C824 C 0.98945 0.44948 0.27431 0.0
C825 C 0.06052 0.43756 0.27979 0.0
N826 N 0.95869 0.43362 0.22564 0.0
N827 N 0.04494 0.43544 0.25675 0.0
H828 H 0.59243 0.4363 0.70425 0.0
H829 H 0.4145 0.43187 0.78405 0.0
H830 H 0.49117 0.45557 0.67174 0.0
H831 H 0.51662 0.43501 0.81844 0.0
H832 H 0.44209 0.43673 0.74221 0.0
H833 H 0.56544 0.43437 0.74631 0.0
C834 C 0.56462 0.44081 0.70613 0.0
C835 C 0.54403 0.44676 0.68474 0.0
C836 C 0.45847 0.43648 0.75891 0.0
C837 C 0.51274 0.44318 0.73235 0.0
C838 C 0.44274 0.43369 0.78267 0.0
C839 C 0.4634 0.43449 0.80449 0.0
C840 C 0.49511 0.43918 0.75713 0.0
C841 C 0.49987 0.43563 0.80193 0.0
C842 C 0.54917 0.43949 0.73002 0.0
C843 C 0.50802 0.45179 0.68793 0.0
N844 N 0.51462 0.43811 0.77866 0.0
N845 N 0.49342 0.44963 0.71129 0.0
H846 H 0.98898 0.58209 0.82061 0.0
H847 H 0.01623 0.55824 0.67202 0.0
H848 H 0.09012 0.58457 0.78471 0.0
H849 H 0.91656 0.58272 0.70499 0.0
H850 H 0.04289 0.56001 0.71406 0.0
H851 H 0.96121 0.57791 0.77898 0.0
C852 C 0.00526 0.58151 0.80384 0.0
C853 C 0.04179 0.58236 0.80587 0.0
C854 C 0.01512 0.56469 0.71216 0.0
C855 C 0.01048 0.57774 0.75841 0.0
C856 C 0.99978 0.56301 0.68827 0.0
C857 C 0.96403 0.5695 0.68526 0.0
C858 C 0.99459 0.57344 0.73309 0.0
C859 C 0.94415 0.57712 0.7067 0.0
C860 C 0.98947 0.57933 0.78015 0.0
C861 C 0.06186 0.58296 0.78376 0.0
N862 N 0.95971 0.57891 0.72977 0.0
N863 N 0.04595 0.58008 0.76086 0.0
H864 H 0.97848 0.15981 0.09457 0.0
H865 H 0.9175 0.31789 0.07759 0.0
H866 H 0.08238 0.19984 0.08557 0.0
H867 H 0.02174 0.34613 0.10048 0.0
H868 H 0.9383 0.26195 0.07071 0.0
H869 H 0.95413 0.21416 0.08836 0.0
C870 C 0.99618 0.18003 0.09076 0.0
C871 C 0.03255 0.1753 0.09074 0.0
C872 C 0.95662 0.28025 0.07743 0.0
C873 C 0.00472 0.23804 0.08319 0.0
C874 C 0.94479 0.31234 0.08108 0.0
C875 C 0.96774 0.33657 0.09008 0.0
C876 C 0.99161 0.27231 0.08309 0.0
C877 C 0.00296 0.32811 0.0939 0.0
C878 C 0.98218 0.21118 0.08694 0.0
C879 C 0.05418 0.20239 0.08573 0.0
N880 N 0.01372 0.29666 0.0906 0.0
N881 N 0.03995 0.23272 0.08256 0.0
H882 H 0.41816 0.81516 0.08498 0.0
H883 H 0.58693 0.69863 0.08572 0.0
H884 H 0.52407 0.85034 0.09398 0.0
H885 H 0.48101 0.6636 0.09499 0.0
H886 H 0.56422 0.75423 0.07932 0.0
H887 H 0.44088 0.75945 0.07918 0.0
C888 C 0.44619 0.81126 0.08532 0.0
C889 C 0.46924 0.83733 0.09026 0.0
C890 C 0.54595 0.73427 0.08247 0.0
C891 C 0.49537 0.77379 0.08374 0.0
C892 C 0.5589 0.70254 0.08601 0.0
C893 C 0.53585 0.67654 0.09119 0.0
C894 C 0.50972 0.73997 0.08395 0.0
C895 C 0.49975 0.683 0.09134 0.0
C896 C 0.45914 0.77946 0.08213 0.0
C897 C 0.50533 0.83088 0.0905 0.0
N898 N 0.48782 0.71407 0.08798 0.0
N899 N 0.51726 0.79975 0.08749 0.0
H900 H 0.41939 0.69445 0.39062 0.0
H901 H 0.58469 0.81647 0.38993 0.0
H902 H 0.52562 0.66214 0.37901 0.0
H903 H 0.47822 0.84882 0.37962 0.0
H904 H 0.56351 0.75981 0.39347 0.0
H905 H 0.44067 0.75108 0.39413 0.0
C906 C 0.44722 0.69919 0.3891 0.0
C907 C 0.47073 0.6735 0.38437 0.0
C908 C 0.54477 0.77936 0.39062 0.0
C909 C 0.49527 0.73829 0.3884 0.0
C910 C 0.55683 0.81174 0.38871 0.0
C911 C 0.53322 0.83746 0.38434 0.0
C912 C 0.50879 0.77262 0.38839 0.0
C913 C 0.4974 0.82978 0.38285 0.0
C914 C 0.45934 0.73155 0.391 0.0
C915 C 0.50652 0.68117 0.38252 0.0
N916 N 0.4863 0.79811 0.38482 0.0
N917 N 0.51767 0.71283 0.38448 0.0
H918 H 0.97522 0.35182 0.3795 0.0
H919 H 0.02622 0.16234 0.38068 0.0
H920 H 0.08097 0.31796 0.39072 0.0
H921 H 0.9199 0.19617 0.38865 0.0
H922 H 0.04681 0.219 0.38453 0.0
H923 H 0.95436 0.29519 0.38303 0.0
C924 C 0.99405 0.3325 0.38294 0.0
C925 C 0.02994 0.33968 0.38473 0.0
C926 C 0.019 0.21404 0.38568 0.0
C927 C 0.00622 0.27459 0.38848 0.0
C928 C 0.0072 0.18166 0.38346 0.0
C929 C 0.97124 0.17446 0.38425 0.0
C930 C 0.99468 0.2396 0.38837 0.0
C931 C 0.94784 0.20055 0.38794 0.0
C932 C 0.98209 0.30015 0.38498 0.0
C933 C 0.05308 0.31361 0.38924 0.0
N934 N 0.95993 0.23196 0.38959 0.0
N935 N 0.04088 0.28222 0.39068 0.0
H936 H 0.08759 0.69967 0.901 0.0
H937 H 0.91742 0.81443 0.9005 0.0
H938 H 0.98193 0.66334 0.89326 0.0
H939 H 0.02296 0.85054 0.89135 0.0
H940 H 0.94079 0.75911 0.90709 0.0
H941 H 0.06432 0.75519 0.90679 0.0
C942 C 0.05951 0.70328 0.90095 0.0
C943 C 0.03668 0.67694 0.89634 0.0
C944 C 0.95882 0.77924 0.90393 0.0
C945 C 0.00991 0.74026 0.90283 0.0
C946 C 0.9455 0.81082 0.90026 0.0
C947 C 0.96825 0.83703 0.89506 0.0
C948 C 0.99514 0.77393 0.90252 0.0
C949 C 0.00443 0.83095 0.895 0.0
C950 C 0.04624 0.73497 0.90413 0.0
C951 C 1.00051 0.68302 0.89646 0.0
N952 N 0.01673 0.80003 0.89846 0.0
N953 N 0.98826 0.71404 0.89943 0.0
H954 H 0.41772 0.31659 0.90002 0.0
H955 H 0.58647 0.19999 0.90063 0.0
H956 H 0.52376 0.35159 0.89142 0.0
H957 H 0.48058 0.16483 0.89143 0.0
H958 H 0.56372 0.25564 0.90664 0.0
H959 H 0.44033 0.2609 0.90622 0.0
C960 C 0.44575 0.31266 0.89984 0.0
C961 C 0.46887 0.33867 0.8949 0.0
C962 C 0.54547 0.23565 0.9036 0.0
C963 C 0.49488 0.27516 0.90191 0.0
C964 C 0.55843 0.20387 0.90028 0.0
C965 C 0.53541 0.17782 0.89523 0.0
C966 C 0.50923 0.24132 0.90199 0.0
C967 C 0.49931 0.18427 0.89499 0.0
C968 C 0.45864 0.28087 0.90327 0.0
C969 C 0.50496 0.33218 0.89488 0.0
N970 N 0.48736 0.21537 0.89812 0.0
N971 N 0.51683 0.30107 0.89813 0.0
H972 H 0.42021 0.19685 0.59521 0.0
H973 H 0.5854 0.3189 0.59521 0.0
H974 H 0.52661 0.16455 0.60603 0.0
H975 H 0.47914 0.35115 0.60681 0.0
H976 H 0.56415 0.2623 0.59151 0.0
H977 H 0.44139 0.25352 0.59178 0.0
C978 C 0.44806 0.20161 0.59656 0.0
C979 C 0.47165 0.1759 0.60105 0.0
C980 C 0.54548 0.28181 0.59468 0.0
C981 C 0.49606 0.24073 0.59714 0.0
C982 C 0.55756 0.31415 0.59668 0.0
C983 C 0.53404 0.33982 0.60146 0.0
C984 C 0.50954 0.27506 0.59723 0.0
C985 C 0.49825 0.33213 0.60326 0.0
C986 C 0.46011 0.23399 0.59472 0.0
C987 C 0.50746 0.18359 0.6027 0.0
N988 N 0.48711 0.30049 0.60119 0.0
N989 N 0.51854 0.21526 0.6008 0.0
H990 H 0.97797 0.85265 0.60699 0.0
H991 H 0.02957 0.66345 0.60694 0.0
H992 H 0.0842 0.81934 0.59727 0.0
H993 H 0.92366 0.69705 0.59601 0.0
H994 H 0.05022 0.72016 0.60345 0.0
H995 H 0.95753 0.79595 0.60306 0.0
C996 C 0.997 0.83343 0.60381 0.0
C997 C 0.03289 0.84078 0.60254 0.0
C998 C 0.0225 0.71512 0.60156 0.0
C999 C 0.00965 0.77562 0.59834 0.0
C1000 C 0.01067 0.68272 0.60357 0.0
C1001 C 0.97479 0.67546 0.60185 0.0
C1002 C 0.99826 0.74061 0.59817 0.0
C1003 C 0.95154 0.70148 0.59744 0.0
C1004 C 0.98529 0.80104 0.60154 0.0
C1005 C 0.05631 0.81484 0.59835 0.0
N1006 N 0.96362 0.73289 0.59603 0.0
N1007 N 0.04432 0.7834 0.59667 0.0
H1008 H 0.95691 0.93479 0.95236 0.0
H1009 H 0.04585 0.0774 0.03449 0.0
H1010 H 0.98069 0.03165 0.9237 0.0
H1011 H 0.02058 0.98132 0.06402 0.0
H1012 H 0.02253 0.06069 -0.00646 0.0
H1013 H 0.97968 0.9514 -0.0064 0.0
C1014 C 0.96666 0.95958 0.95473 0.0
C1015 C 0.96689 0.9818 0.93446 0.0
C1016 C 0.02217 0.04325 0.00898 0.0
C1017 C 0.99325 1.00085 0.98153 0.0
C1018 C 0.03561 0.05275 0.03237 0.0
C1019 C 0.03522 0.03077 0.05279 0.0
C1020 C 0.00821 0.01156 0.00597 0.0
C1021 C 0.02149 0.99914 0.04886 0.0
C1022 C 0.97978 0.96901 0.97827 0.0
C1023 C 0.97997 0.0136 0.9387 0.0
N1024 N 0.00848 0.99053 0.02594 0.0
N1025 N 0.9927 0.0221 0.96171 0.0
H1026 H 0.52391 0.9813 0.92173 0.0
H1027 H 0.48191 0.03375 0.06386 0.0
H1028 H 0.5446 0.07809 0.95168 0.0
H1029 H 0.46076 0.93713 0.03376 0.0
H1030 H 0.50466 0.0504 0.02289 0.0
H1031 H 0.50143 0.96461 0.96276 0.0
C1032 C 0.52395 0.99907 0.93696 0.0
C1033 C 0.53618 0.03125 0.93317 0.0
C1034 C 0.49496 0.02558 0.0252 0.0
C1035 C 0.51012 0.01216 0.9803 0.0
C1036 C 0.48183 0.01601 0.04862 0.0
C1037 C 0.46936 0.9839 0.05234 0.0
C1038 C 0.49573 1.00293 0.00528 0.0
C1039 C 0.47002 0.96213 0.0318 0.0
C1040 C 0.51097 0.98947 0.9604 0.0
C1041 C 0.5355 0.05305 0.95369 0.0
N1042 N 0.48309 0.97204 0.00916 0.0
N1043 N 0.52258 0.04311 0.97637 0.0
H1044 H 0.46712 0.07983 0.53644 0.0
H1045 H 0.53773 0.93328 0.44917 0.0
H1046 H 0.47897 0.97973 0.56201 0.0
H1047 H 0.52628 0.03352 0.42384 0.0
H1048 H 0.5166 0.94988 0.49092 0.0
H1049 H 0.48844 0.06318 0.49476 0.0
C1050 C 0.474 0.05439 0.5333 0.0
C1051 C 0.47124 0.03123 0.55281 0.0
C1052 C 0.51881 0.9682 0.47618 0.0
C1053 C 0.49584 0.01204 0.50529 0.0
C1054 C 0.53098 0.95873 0.45237 0.0
C1055 C 0.53377 0.98194 0.4329 0.0
C1056 C 0.50939 1.00108 0.4805 0.0
C1057 C 0.52452 0.01463 0.43817 0.0
C1058 C 0.48628 0.0449 0.50954 0.0
C1059 C 0.48068 0.99857 0.54763 0.0
N1060 N 0.51272 0.02316 0.4614 0.0
N1061 N 0.49258 0.99 0.52443 0.0
H1062 H 0.03659 0.93543 0.53802 0.0
H1063 H 0.96522 0.08003 0.44917 0.0
H1064 H 0.02496 0.03604 0.56237 0.0
H1065 H 0.97514 0.97902 0.42543 0.0
H1066 H 0.98655 0.06433 0.49108 0.0
H1067 H 0.01443 0.95109 0.49636 0.0
C1068 C 0.02959 0.96078 0.53462 0.0
C1069 C 0.03266 0.98437 0.55379 0.0
C1070 C 0.98393 0.04564 0.47667 0.0
C1071 C 0.00708 1.00244 0.50627 0.0
C1072 C 0.97162 0.05459 0.45277 0.0
C1073 C 0.96844 0.0309 0.43368 0.0
C1074 C 0.99309 0.01281 0.48145 0.0
C1075 C 0.97726 0.99825 0.43946 0.0
C1076 C 0.01681 0.96971 0.51086 0.0
C1077 C 0.02303 0.0169 0.54826 0.0
N1078 N 0.98925 0.99023 0.46275 0.0
N1079 N 0.01066 0.02492 0.52506 0.0
H1080 H 0.52379 0.48059 0.06394 0.0
H1081 H 0.48287 0.53455 0.92195 0.0
H1082 H 0.54524 0.57752 0.0345 0.0
H1083 H 0.46081 0.43781 0.95153 0.0
H1084 H 0.50548 0.55069 0.96307 0.0
H1085 H 0.50134 0.46441 0.02279 0.0
C1086 C 0.524 0.49849 0.04881 0.0
C1087 C 0.53645 0.53057 0.05277 0.0
C1088 C 0.49561 0.52597 0.96061 0.0
C1089 C 0.51042 0.51206 0.0055 0.0
C1090 C 0.48256 0.51668 0.93711 0.0
C1091 C 0.46988 0.48468 0.93319 0.0
C1092 C 0.49609 0.50314 0.98043 0.0
C1093 C 0.47024 0.46273 0.95364 0.0
C1094 C 0.51104 0.48918 0.02529 0.0
C1095 C 0.53597 0.55255 0.03236 0.0
N1096 N 0.48324 0.47236 0.97637 0.0
N1097 N 0.52306 0.54289 0.00961 0.0
H1098 H 0.9808 0.53335 0.06422 0.0
H1099 H 0.02523 0.48052 0.92257 0.0
H1100 H 0.96036 0.43661 0.03409 0.0
H1101 H 0.04526 0.57745 0.95248 0.0
H1102 H 1.00213 0.46394 0.96344 0.0
H1103 H 0.00412 0.54995 0.0234 0.0
C1104 C 0.98098 0.51559 0.049 0.0
C1105 C 0.96857 0.48344 0.05268 0.0
C1106 C 0.01167 0.4888 0.96111 0.0
C1107 C 0.9956 0.50242 0.0058 0.0
C1108 C 0.02501 0.49833 0.93776 0.0
C1109 C 0.03721 0.53053 0.934 0.0
C1110 C 0.01044 0.51157 0.98094 0.0
C1111 C 0.0362 0.55239 0.95447 0.0
C1112 C 0.99444 0.52513 0.02568 0.0
C1113 C 0.96957 0.46163 0.03217 0.0
N1114 N 0.02292 0.54252 0.97706 0.0
N1115 N 0.98296 0.47151 0.00963 0.0
H1116 H 0.9814 0.47929 0.56374 0.0
H1117 H 0.02297 0.53588 0.42264 0.0
H1118 H 0.96701 0.57854 0.53692 0.0
H1119 H 0.03759 0.4367 0.44953 0.0
H1120 H 0.00272 0.55179 0.46431 0.0
H1121 H 1.00167 0.4634 0.52207 0.0
C1122 C 0.98235 0.49783 0.54908 0.0
C1123 C 0.97241 0.53044 0.55395 0.0
C1124 C 0.0104 0.52656 0.46116 0.0
C1125 C 0.9959 0.51212 0.50596 0.0
C1126 C 0.02206 0.51735 0.43731 0.0
C1127 C 0.03206 0.48476 0.43246 0.0
C1128 C 0.0086 0.5031 0.48046 0.0
C1129 C 0.03022 0.46206 0.45235 0.0
C1130 C 0.99404 0.48864 0.52524 0.0
C1131 C 0.97433 0.55317 0.53409 0.0
N1132 N 0.01865 0.47167 0.47549 0.0
N1133 N 0.98592 0.54356 0.51094 0.0
H1134 H 0.53033 0.5365 0.56189 0.0
H1135 H 0.4752 0.47678 0.42399 0.0
H1136 H 0.5362 0.43556 0.53728 0.0
H1137 H 0.46907 0.57769 0.44866 0.0
H1138 H 0.49714 0.46139 0.46536 0.0
H1139 H 0.50843 0.55191 0.52051 0.0
C1140 C 0.52717 0.51749 0.54777 0.0
C1141 C 0.53511 0.48454 0.55319 0.0
C1142 C 0.49095 0.48688 0.46179 0.0
C1143 C 0.50973 0.5023 0.50556 0.0
C1144 C 0.47832 0.4958 0.43812 0.0
C1145 C 0.47029 0.52873 0.43272 0.0
C1146 C 0.49571 0.51098 0.48035 0.0
C1147 C 0.47484 0.55206 0.45193 0.0
C1148 C 0.51456 0.52641 0.5241 0.0
C1149 C 0.5305 0.46121 0.53399 0.0
N1150 N 0.48735 0.54272 0.4749 0.0
N1151 N 0.51801 0.47054 0.51102 0.0
loop_
_geom_bond_atom_site_label_1
_geom_bond_atom_site_label_2
_geom_bond_distance
_geom_bond_site_symmetry_2
_ccdc_geom_bond_type
Mn0 O5 2.095 . S
Mn0 O15 2.162 . S
Mn0 O16 2.297 . S
Mn0 O24 2.385 . S
Mn0 O25 2.209 . S
Mn0 O26 2.094 . S
Mn1 O6 2.121 1_565 S
Mn1 N8 2.257 . S
Mn1 N17 2.282 . S
Mn1 O25 2.215 1_565 S
Mn1 O27 2.117 1_565 S
C2 O24 1.234 . S
C2 O25 1.283 . S
C3 O15 1.281 . S
C3 O16 1.236 . S
C4 O26 1.240 . S
C4 O27 1.264 . S
O5 Mn0 2.095 . S
O5 C14 1.250 . S
O6 Mn1 2.121 1_545 S
O6 C14 1.258 . S
C7 N8 1.326 1_655 S
C7 C11 1.460 . S
C7 H13 0.929 . S
N8 Mn1 2.257 . S
N8 C7 1.326 1_455 S
N8 C12 1.362 . S
C9 C10 1.258 . S
C9 C12 1.431 1_655 S
C9 C29 1.449 . S
C10 C9 1.258 . S
C10 C11 1.477 . S
C10 H30 0.931 . S
C11 C7 1.460 . S
C11 C10 1.477 . S
C11 H31 0.930 . S
C12 N8 1.362 . S
C12 C9 1.431 1_455 S
C12 C22 1.476 . S
H13 C7 0.929 . S
C14 O5 1.250 . S
C14 O6 1.258 . S
O15 Mn0 2.162 . S
O15 C3 1.281 . S
O16 Mn0 2.297 . S
O16 C3 1.236 . S
N17 Mn1 2.282 . S
N17 C18 1.328 . S
N17 C22 1.318 . S
C18 N17 1.328 . S
C18 C19 1.457 . S
C18 H23 0.929 1_565 S
C19 C18 1.457 . S
C19 C20 1.291 . S
C19 H32 0.931 . S
C20 C19 1.291 . S
C20 C21 1.373 . S
C20 H33 0.929 . S
C21 C20 1.373 . S
C21 C22 1.396 . S
C21 C28 1.403 . S
C22 C12 1.476 . S
C22 N17 1.318 . S
C22 C21 1.396 . S
H23 C18 0.929 1_545 S
O24 Mn0 2.385 . S
O24 C2 1.234 . S
O25 Mn0 2.209 . S
O25 Mn1 2.215 1_545 S
O25 C2 1.283 . S
O26 Mn0 2.094 . S
O26 C4 1.240 . S
O27 Mn1 2.117 1_545 S
O27 C4 1.264 . S
C28 C21 1.403 . S
C28 C29 1.399 1_455 S
C28 H34 0.929 . S
C29 C9 1.449 . S
C29 C28 1.399 1_655 S
C29 H35 0.930 . S
H30 C10 0.931 . S
H31 C11 0.930 . S
H32 C19 0.931 . S
H33 C20 0.929 . S
H34 C28 0.929 . S
H35 C29 0.930 . S
Mn36 O41 2.095 . S
Mn36 O51 2.162 . S
Mn36 O52 2.297 . S
Mn36 O60 2.385 . S
Mn36 O61 2.209 . S
Mn36 O62 2.094 . S
Mn37 O42 2.121 1_545 S
Mn37 N44 2.257 . S
Mn37 N53 2.282 . S
Mn37 O61 2.215 1_545 S
Mn37 O63 2.117 1_545 S
C38 O60 1.234 . S
C38 O61 1.283 . S
C39 O51 1.281 . S
C39 O52 1.236 . S
C40 O62 1.240 . S
C40 O63 1.264 . S
O41 Mn36 2.095 . S
O41 C50 1.250 . S
O42 Mn37 2.121 1_565 S
O42 C50 1.258 . S
C43 N44 1.326 . S
C43 C47 1.460 . S
C43 H49 0.929 . S
N44 Mn37 2.257 . S
N44 C43 1.326 . S
N44 C48 1.362 . S
C45 C46 1.258 . S
C45 C48 1.431 . S
C45 C65 1.449 . S
C46 C45 1.258 . S
C46 C47 1.477 . S
C46 H66 0.931 . S
C47 C43 1.460 . S
C47 C46 1.477 . S
C47 H67 0.930 . S
C48 N44 1.362 . S
C48 C45 1.431 . S
C48 C58 1.476 . S
H49 C43 0.929 . S
C50 O41 1.250 . S
C50 O42 1.258 . S
O51 Mn36 2.162 . S
O51 C39 1.281 . S
O52 Mn36 2.297 . S
O52 C39 1.236 . S
N53 Mn37 2.282 . S
N53 C54 1.328 . S
N53 C58 1.318 . S
C54 N53 1.328 . S
C54 C55 1.457 . S
C54 H59 0.929 1_545 S
C55 C54 1.457 . S
C55 C56 1.291 . S
C55 H68 0.931 . S
C56 C55 1.291 . S
C56 C57 1.373 . S
C56 H69 0.929 . S
C57 C56 1.373 . S
C57 C58 1.396 . S
C57 C64 1.403 . S
C58 C48 1.476 . S
C58 N53 1.318 . S
C58 C57 1.396 . S
H59 C54 0.929 1_565 S
O60 Mn36 2.385 . S
O60 C38 1.234 . S
O61 Mn36 2.209 . S
O61 Mn37 2.215 1_565 S
O61 C38 1.283 . S
O62 Mn36 2.094 . S
O62 C40 1.240 . S
O63 Mn37 2.117 1_565 S
O63 C40 1.264 . S
C64 C57 1.403 . S
C64 C65 1.399 . S
C64 H70 0.929 . S
C65 C45 1.449 . S
C65 C64 1.399 . S
C65 H71 0.930 . S
H66 C46 0.931 . S
H67 C47 0.930 . S
H68 C55 0.931 . S
H69 C56 0.929 . S
H70 C64 0.929 . S
H71 C65 0.930 . S
Mn72 O77 2.095 . S
Mn72 O87 2.162 . S
Mn72 O88 2.297 . S
Mn72 O96 2.385 . S
Mn72 O97 2.209 . S
Mn72 O98 2.094 . S
Mn73 O78 2.121 1_545 S
Mn73 N80 2.257 . S
Mn73 N89 2.282 . S
Mn73 O97 2.215 1_545 S
Mn73 O99 2.117 1_545 S
C74 O96 1.234 . S
C74 O97 1.283 . S
C75 O87 1.281 . S
C75 O88 1.236 . S
C76 O98 1.240 . S
C76 O99 1.264 . S
O77 Mn72 2.095 . S
O77 C86 1.250 . S
O78 Mn73 2.121 1_565 S
O78 C86 1.258 . S
C79 N80 1.326 . S
C79 C83 1.460 . S
C79 H85 0.929 . S
N80 Mn73 2.257 . S
N80 C79 1.326 . S
N80 C84 1.362 . S
C81 C82 1.258 . S
C81 C84 1.431 . S
C81 C101 1.449 . S
C82 C81 1.258 . S
C82 C83 1.477 . S
C82 H102 0.931 . S
C83 C79 1.460 . S
C83 C82 1.477 . S
C83 H103 0.930 . S
C84 N80 1.362 . S
C84 C81 1.431 . S
C84 C94 1.476 . S
H85 C79 0.929 . S
C86 O77 1.250 . S
C86 O78 1.258 . S
O87 Mn72 2.162 . S
O87 C75 1.281 . S
O88 Mn72 2.297 . S
O88 C75 1.236 . S
N89 Mn73 2.282 . S
N89 C90 1.328 . S
N89 C94 1.318 . S
C90 N89 1.328 . S
C90 C91 1.457 . S
C90 H95 0.929 1_545 S
C91 C90 1.457 . S
C91 C92 1.291 . S
C91 H104 0.931 . S
C92 C91 1.291 . S
C92 C93 1.373 . S
C92 H105 0.929 . S
C93 C92 1.373 . S
C93 C94 1.396 . S
C93 C100 1.403 . S
C94 C84 1.476 . S
C94 N89 1.318 . S
C94 C93 1.396 . S
H95 C90 0.929 1_565 S
O96 Mn72 2.385 . S
O96 C74 1.234 . S
O97 Mn72 2.209 . S
O97 Mn73 2.215 1_565 S
O97 C74 1.283 . S
O98 Mn72 2.094 . S
O98 C76 1.240 . S
O99 Mn73 2.117 1_565 S
O99 C76 1.264 . S
C100 C93 1.403 . S
C100 C101 1.399 . S
C100 H106 0.929 . S
C101 C81 1.449 . S
C101 C100 1.399 . S
C101 H107 0.930 . S
H102 C82 0.931 . S
H103 C83 0.930 . S
H104 C91 0.931 . S
H105 C92 0.929 . S
H106 C100 0.929 . S
H107 C101 0.930 . S
Mn108 O113 2.095 . S
Mn108 O123 2.162 . S
Mn108 O124 2.297 . S
Mn108 O132 2.385 . S
Mn108 O133 2.209 . S
Mn108 O134 2.094 . S
Mn109 O114 2.121 1_565 S
Mn109 N116 2.257 . S
Mn109 N125 2.282 . S
Mn109 O133 2.215 1_565 S
Mn109 O135 2.117 1_565 S
C110 O132 1.234 . S
C110 O133 1.283 . S
C111 O123 1.281 . S
C111 O124 1.236 . S
C112 O134 1.240 . S
C112 O135 1.264 . S
O113 Mn108 2.095 . S
O113 C122 1.250 . S
O114 Mn109 2.121 1_545 S
O114 C122 1.258 . S
C115 N116 1.326 1_455 S
C115 C119 1.460 . S
C115 H121 0.929 . S
N116 Mn109 2.257 . S
N116 C115 1.326 1_655 S
N116 C120 1.362 . S
C117 C118 1.258 . S
C117 C120 1.431 1_455 S
C117 C137 1.449 . S
C118 C117 1.258 . S
C118 C119 1.477 . S
C118 H138 0.931 . S
C119 C115 1.460 . S
C119 C118 1.477 . S
C119 H139 0.930 . S
C120 N116 1.362 . S
C120 C117 1.431 1_655 S
C120 C130 1.476 . S
H121 C115 0.929 . S
C122 O113 1.250 . S
C122 O114 1.258 . S
O123 Mn108 2.162 . S
O123 C111 1.281 . S
O124 Mn108 2.297 . S
O124 C111 1.236 . S
N125 Mn109 2.282 . S
N125 C126 1.328 . S
N125 C130 1.318 . S
C126 N125 1.328 . S
C126 C127 1.457 . S
C126 H131 0.929 1_565 S
C127 C126 1.457 . S
C127 C128 1.291 . S
C127 H140 0.931 . S
C128 C127 1.291 . S
C128 C129 1.373 . S
C128 H141 0.929 . S
C129 C128 1.373 . S
C129 C130 1.396 . S
C129 C136 1.403 . S
C130 C120 1.476 . S
C130 N125 1.318 . S
C130 C129 1.396 . S
H131 C126 0.929 1_545 S
O132 Mn108 2.385 . S
O132 C110 1.234 . S
O133 Mn108 2.209 . S
O133 Mn109 2.215 1_545 S
O133 C110 1.283 . S
O134 Mn108 2.094 . S
O134 C112 1.240 . S
O135 Mn109 2.117 1_545 S
O135 C112 1.264 . S
C136 C129 1.403 . S
C136 C137 1.399 1_655 S
C136 H142 0.929 . S
C137 C117 1.449 . S
C137 C136 1.399 1_455 S
C137 H143 0.930 . S
H138 C118 0.931 . S
H139 C119 0.930 . S
H140 C127 0.931 . S
H141 C128 0.929 . S
H142 C136 0.929 . S
H143 C137 0.930 . S
Mn144 O149 2.095 . S
Mn144 O159 2.162 . S
Mn144 O160 2.297 . S
Mn144 O168 2.385 . S
Mn144 O169 2.209 . S
Mn144 O170 2.094 . S
Mn145 O150 2.121 1_545 S
Mn145 N152 2.257 . S
Mn145 N161 2.282 . S
Mn145 O169 2.215 1_545 S
Mn145 O171 2.117 1_545 S
C146 O168 1.234 . S
C146 O169 1.283 . S
C147 O159 1.281 . S
C147 O160 1.236 . S
C148 O170 1.240 . S
C148 O171 1.264 . S
O149 Mn144 2.095 . S
O149 C158 1.250 . S
O150 Mn145 2.121 1_565 S
O150 C158 1.258 . S
C151 N152 1.326 1_455 S
C151 C155 1.460 . S
C151 H157 0.929 . S
N152 Mn145 2.257 . S
N152 C151 1.326 1_655 S
N152 C156 1.362 . S
C153 C154 1.258 . S
C153 C156 1.431 1_455 S
C153 C173 1.449 . S
C154 C153 1.258 . S
C154 C155 1.477 . S
C154 H174 0.931 . S
C155 C151 1.460 . S
C155 C154 1.477 . S
C155 H175 0.930 . S
C156 N152 1.362 . S
C156 C153 1.431 1_655 S
C156 C166 1.476 . S
H157 C151 0.929 . S
C158 O149 1.250 . S
C158 O150 1.258 . S
O159 Mn144 2.162 . S
O159 C147 1.281 . S
O160 Mn144 2.297 . S
O160 C147 1.236 . S
N161 Mn145 2.282 . S
N161 C162 1.328 . S
N161 C166 1.318 . S
C162 N161 1.328 . S
C162 C163 1.457 . S
C162 H167 0.929 1_545 S
C163 C162 1.457 . S
C163 C164 1.291 . S
C163 H176 0.931 . S
C164 C163 1.291 . S
C164 C165 1.373 . S
C164 H177 0.929 . S
C165 C164 1.373 . S
C165 C166 1.396 . S
C165 C172 1.403 . S
C166 C156 1.476 . S
C166 N161 1.318 . S
C166 C165 1.396 . S
H167 C162 0.929 1_565 S
O168 Mn144 2.385 . S
O168 C146 1.234 . S
O169 Mn144 2.209 . S
O169 Mn145 2.215 1_565 S
O169 C146 1.283 . S
O170 Mn144 2.094 . S
O170 C148 1.240 . S
O171 Mn145 2.117 1_565 S
O171 C148 1.264 . S
C172 C165 1.403 . S
C172 C173 1.399 1_655 S
C172 H178 0.929 . S
C173 C153 1.449 . S
C173 C172 1.399 1_455 S
C173 H179 0.930 . S
H174 C154 0.931 . S
H175 C155 0.930 . S
H176 C163 0.931 . S
H177 C164 0.929 . S
H178 C172 0.929 . S
H179 C173 0.930 . S
Mn180 O185 2.095 . S
Mn180 O195 2.162 . S
Mn180 O196 2.297 . S
Mn180 O204 2.385 . S
Mn180 O205 2.209 . S
Mn180 O206 2.094 . S
Mn181 O186 2.121 1_565 S
Mn181 N188 2.257 . S
Mn181 N197 2.282 . S
Mn181 O205 2.215 1_565 S
Mn181 O207 2.117 1_565 S
C182 O204 1.234 . S
C182 O205 1.283 . S
C183 O195 1.281 . S
C183 O196 1.236 . S
C184 O206 1.240 . S
C184 O207 1.264 . S
O185 Mn180 2.095 . S
O185 C194 1.250 . S
O186 Mn181 2.121 1_545 S
O186 C194 1.258 . S
C187 N188 1.326 . S
C187 C191 1.460 . S
C187 H193 0.929 . S
N188 Mn181 2.257 . S
N188 C187 1.326 . S
N188 C192 1.362 . S
C189 C190 1.258 . S
C189 C192 1.431 . S
C189 C209 1.449 . S
C190 C189 1.258 . S
C190 C191 1.477 . S
C190 H210 0.931 . S
C191 C187 1.460 . S
C191 C190 1.477 . S
C191 H211 0.930 . S
C192 N188 1.362 . S
C192 C189 1.431 . S
C192 C202 1.476 . S
H193 C187 0.929 . S
C194 O185 1.250 . S
C194 O186 1.258 . S
O195 Mn180 2.162 . S
O195 C183 1.281 . S
O196 Mn180 2.297 . S
O196 C183 1.236 . S
N197 Mn181 2.282 . S
N197 C198 1.328 . S
N197 C202 1.318 . S
C198 N197 1.328 . S
C198 C199 1.457 . S
C198 H203 0.929 1_565 S
C199 C198 1.457 . S
C199 C200 1.291 . S
C199 H212 0.931 . S
C200 C199 1.291 . S
C200 C201 1.373 . S
C200 H213 0.929 . S
C201 C200 1.373 . S
C201 C202 1.396 . S
C201 C208 1.403 . S
C202 C192 1.476 . S
C202 N197 1.318 . S
C202 C201 1.396 . S
H203 C198 0.929 1_545 S
O204 Mn180 2.385 . S
O204 C182 1.234 . S
O205 Mn180 2.209 . S
O205 Mn181 2.215 1_545 S
O205 C182 1.283 . S
O206 Mn180 2.094 . S
O206 C184 1.240 . S
O207 Mn181 2.117 1_545 S
O207 C184 1.264 . S
C208 C201 1.403 . S
C208 C209 1.399 . S
C208 H214 0.929 . S
C209 C189 1.449 . S
C209 C208 1.399 . S
C209 H215 0.930 . S
H210 C190 0.931 . S
H211 C191 0.930 . S
H212 C199 0.931 . S
H213 C200 0.929 . S
H214 C208 0.929 . S
H215 C209 0.930 . S
Mn216 O221 2.095 . S
Mn216 O231 2.162 . S
Mn216 O232 2.297 . S
Mn216 O240 2.385 . S
Mn216 O241 2.209 . S
Mn216 O242 2.094 . S
Mn217 O222 2.121 1_565 S
Mn217 N224 2.257 . S
Mn217 N233 2.282 . S
Mn217 O241 2.215 1_565 S
Mn217 O243 2.117 1_565 S
C218 O240 1.234 . S
C218 O241 1.283 . S
C219 O231 1.281 . S
C219 O232 1.236 . S
C220 O242 1.240 . S
C220 O243 1.264 . S
O221 Mn216 2.095 . S
O221 C230 1.250 . S
O222 Mn217 2.121 1_545 S
O222 C230 1.258 . S
C223 N224 1.326 . S
C223 C227 1.460 . S
C223 H229 0.929 . S
N224 Mn217 2.257 . S
N224 C223 1.326 . S
N224 C228 1.362 . S
C225 C226 1.258 . S
C225 C228 1.431 . S
C225 C245 1.449 . S
C226 C225 1.258 . S
C226 C227 1.477 . S
C226 H246 0.931 . S
C227 C223 1.460 . S
C227 C226 1.477 . S
C227 H247 0.930 . S
C228 N224 1.362 . S
C228 C225 1.431 . S
C228 C238 1.476 . S
H229 C223 0.929 . S
C230 O221 1.250 . S
C230 O222 1.258 . S
O231 Mn216 2.162 . S
O231 C219 1.281 . S
O232 Mn216 2.297 . S
O232 C219 1.236 . S
N233 Mn217 2.282 . S
N233 C234 1.328 . S
N233 C238 1.318 . S
C234 N233 1.328 . S
C234 C235 1.457 . S
C234 H239 0.929 1_565 S
C235 C234 1.457 . S
C235 C236 1.291 . S
C235 H248 0.931 . S
C236 C235 1.291 . S
C236 C237 1.373 . S
C236 H249 0.929 . S
C237 C236 1.373 . S
C237 C238 1.396 . S
C237 C244 1.403 . S
C238 C228 1.476 . S
C238 N233 1.318 . S
C238 C237 1.396 . S
H239 C234 0.929 1_545 S
O240 Mn216 2.385 . S
O240 C218 1.234 . S
O241 Mn216 2.209 . S
O241 Mn217 2.215 1_545 S
O241 C218 1.283 . S
O242 Mn216 2.094 . S
O242 C220 1.240 . S
O243 Mn217 2.117 1_545 S
O243 C220 1.264 . S
C244 C237 1.403 . S
C244 C245 1.399 . S
C244 H250 0.929 . S
C245 C225 1.449 . S
C245 C244 1.399 . S
C245 H251 0.930 . S
H246 C226 0.931 . S
H247 C227 0.930 . S
H248 C235 0.931 . S
H249 C236 0.929 . S
H250 C244 0.929 . S
H251 C245 0.930 . S
Mn252 O257 2.095 . S
Mn252 O267 2.162 . S
Mn252 O268 2.297 . S
Mn252 O276 2.385 . S
Mn252 O277 2.209 . S
Mn252 O278 2.094 . S
Mn253 O258 2.121 1_545 S
Mn253 N260 2.257 . S
Mn253 N269 2.282 . S
Mn253 O277 2.215 1_545 S
Mn253 O279 2.117 1_545 S
C254 O276 1.234 . S
C254 O277 1.283 . S
C255 O267 1.281 . S
C255 O268 1.236 . S
C256 O278 1.240 . S
C256 O279 1.264 . S
O257 Mn252 2.095 . S
O257 C266 1.250 . S
O258 Mn253 2.121 1_565 S
O258 C266 1.258 . S
C259 N260 1.326 1_655 S
C259 C263 1.460 . S
C259 H265 0.929 . S
N260 Mn253 2.257 . S
N260 C259 1.326 1_455 S
N260 C264 1.362 . S
C261 C262 1.258 . S
C261 C264 1.431 1_655 S
C261 C281 1.449 . S
C262 C261 1.258 . S
C262 C263 1.477 . S
C262 H282 0.931 . S
C263 C259 1.460 . S
C263 C262 1.477 . S
C263 H283 0.930 . S
C264 N260 1.362 . S
C264 C261 1.431 1_455 S
C264 C274 1.476 . S
H265 C259 0.929 . S
C266 O257 1.250 . S
C266 O258 1.258 . S
O267 Mn252 2.162 . S
O267 C255 1.281 . S
O268 Mn252 2.297 . S
O268 C255 1.236 . S
N269 Mn253 2.282 . S
N269 C270 1.328 . S
N269 C274 1.318 . S
C270 N269 1.328 . S
C270 C271 1.457 . S
C270 H275 0.929 1_545 S
C271 C270 1.457 . S
C271 C272 1.291 . S
C271 H284 0.931 . S
C272 C271 1.291 . S
C272 C273 1.373 . S
C272 H285 0.929 . S
C273 C272 1.373 . S
C273 C274 1.396 . S
C273 C280 1.403 . S
C274 C264 1.476 . S
C274 N269 1.318 . S
C274 C273 1.396 . S
H275 C270 0.929 1_565 S
O276 Mn252 2.385 . S
O276 C254 1.234 . S
O277 Mn252 2.209 . S
O277 Mn253 2.215 1_565 S
O277 C254 1.283 . S
O278 Mn252 2.094 . S
O278 C256 1.240 . S
O279 Mn253 2.117 1_565 S
O279 C256 1.264 . S
C280 C273 1.403 . S
C280 C281 1.399 1_455 S
C280 H286 0.929 . S
C281 C261 1.449 . S
C281 C280 1.399 1_655 S
C281 H287 0.930 . S
H282 C262 0.931 . S
H283 C263 0.930 . S
H284 C271 0.931 . S
H285 C272 0.929 . S
H286 C280 0.929 . S
H287 C281 0.930 . S
Mn288 O293 2.095 . S
Mn288 O303 2.162 . S
Mn288 O304 2.297 . S
Mn288 O312 2.385 . S
Mn288 O313 2.209 . S
Mn288 O314 2.094 . S
Mn289 O294 2.121 . S
Mn289 N296 2.257 . S
Mn289 N305 2.282 . S
Mn289 O313 2.215 . S
Mn289 O315 2.117 . S
C290 O312 1.234 . S
C290 O313 1.283 . S
C291 O303 1.281 . S
C291 O304 1.236 . S
C292 O314 1.240 . S
C292 O315 1.264 . S
O293 Mn288 2.095 . S
O293 C302 1.250 . S
O294 Mn289 2.121 . S
O294 C302 1.258 . S
C295 N296 1.326 . S
C295 C299 1.460 . S
C295 H301 0.929 . S
N296 Mn289 2.257 . S
N296 C295 1.326 . S
N296 C300 1.362 . S
C297 C298 1.258 . S
C297 C300 1.431 . S
C297 C317 1.449 . S
C298 C297 1.258 . S
C298 C299 1.477 . S
C298 H318 0.931 . S
C299 C295 1.460 . S
C299 C298 1.477 . S
C299 H319 0.930 . S
C300 N296 1.362 . S
C300 C297 1.431 . S
C300 C310 1.476 . S
H301 C295 0.929 . S
C302 O293 1.250 . S
C302 O294 1.258 . S
O303 Mn288 2.162 . S
O303 C291 1.281 . S
O304 Mn288 2.297 . S
O304 C291 1.236 . S
N305 Mn289 2.282 . S
N305 C306 1.328 . S
N305 C310 1.318 . S
C306 N305 1.328 . S
C306 C307 1.457 . S
C306 H311 0.929 . S
C307 C306 1.457 . S
C307 C308 1.291 . S
C307 H320 0.931 . S
C308 C307 1.291 . S
C308 C309 1.373 . S
C308 H321 0.929 . S
C309 C308 1.373 . S
C309 C310 1.396 . S
C309 C316 1.403 . S
C310 C300 1.476 . S
C310 N305 1.318 . S
C310 C309 1.396 . S
H311 C306 0.929 . S
O312 Mn288 2.385 . S
O312 C290 1.234 . S
O313 Mn288 2.209 . S
O313 Mn289 2.215 . S
O313 C290 1.283 . S
O314 Mn288 2.094 . S
O314 C292 1.240 . S
O315 Mn289 2.117 . S
O315 C292 1.264 . S
C316 C309 1.403 . S
C316 C317 1.399 . S
C316 H322 0.929 . S
C317 C297 1.449 . S
C317 C316 1.399 . S
C317 H323 0.930 . S
H318 C298 0.931 . S
H319 C299 0.930 . S
H320 C307 0.931 . S
H321 C308 0.929 . S
H322 C316 0.929 . S
H323 C317 0.930 . S
Mn324 O329 2.095 . S
Mn324 O339 2.162 . S
Mn324 O340 2.297 . S
Mn324 O348 2.385 . S
Mn324 O349 2.209 . S
Mn324 O350 2.094 . S
Mn325 O330 2.121 . S
Mn325 N332 2.257 . S
Mn325 N341 2.282 . S
Mn325 O349 2.215 . S
Mn325 O351 2.117 . S
C326 O348 1.234 . S
C326 O349 1.283 . S
C327 O339 1.281 . S
C327 O340 1.236 . S
C328 O350 1.240 . S
C328 O351 1.264 . S
O329 Mn324 2.095 . S
O329 C338 1.250 . S
O330 Mn325 2.121 . S
O330 C338 1.258 . S
C331 N332 1.326 1_455 S
C331 C335 1.460 . S
C331 H337 0.929 . S
N332 Mn325 2.257 . S
N332 C331 1.326 1_655 S
N332 C336 1.362 . S
C333 C334 1.258 . S
C333 C336 1.431 1_455 S
C333 C353 1.449 . S
C334 C333 1.258 . S
C334 C335 1.477 . S
C334 H354 0.931 . S
C335 C331 1.460 . S
C335 C334 1.477 . S
C335 H355 0.930 . S
C336 N332 1.362 . S
C336 C333 1.431 1_655 S
C336 C346 1.476 . S
H337 C331 0.929 . S
C338 O329 1.250 . S
C338 O330 1.258 . S
O339 Mn324 2.162 . S
O339 C327 1.281 . S
O340 Mn324 2.297 . S
O340 C327 1.236 . S
N341 Mn325 2.282 . S
N341 C342 1.328 . S
N341 C346 1.318 . S
C342 N341 1.328 . S
C342 C343 1.457 . S
C342 H347 0.929 . S
C343 C342 1.457 . S
C343 C344 1.291 . S
C343 H356 0.931 . S
C344 C343 1.291 . S
C344 C345 1.373 . S
C344 H357 0.929 . S
C345 C344 1.373 . S
C345 C346 1.396 . S
C345 C352 1.403 . S
C346 C336 1.476 . S
C346 N341 1.318 . S
C346 C345 1.396 . S
H347 C342 0.929 . S
O348 Mn324 2.385 . S
O348 C326 1.234 . S
O349 Mn324 2.209 . S
O349 Mn325 2.215 . S
O349 C326 1.283 . S
O350 Mn324 2.094 . S
O350 C328 1.240 . S
O351 Mn325 2.117 . S
O351 C328 1.264 . S
C352 C345 1.403 . S
C352 C353 1.399 1_655 S
C352 H358 0.929 . S
C353 C333 1.449 . S
C353 C352 1.399 1_455 S
C353 H359 0.930 . S
H354 C334 0.931 . S
H355 C335 0.930 . S
H356 C343 0.931 . S
H357 C344 0.929 . S
H358 C352 0.929 . S
H359 C353 0.930 . S
Mn360 O365 2.095 . S
Mn360 O375 2.162 . S
Mn360 O376 2.297 . S
Mn360 O384 2.385 . S
Mn360 O385 2.209 . S
Mn360 O386 2.094 . S
Mn361 O366 2.121 . S
Mn361 N368 2.257 . S
Mn361 N377 2.282 . S
Mn361 O385 2.215 . S
Mn361 O387 2.117 . S
C362 O384 1.234 . S
C362 O385 1.283 . S
C363 O375 1.281 . S
C363 O376 1.236 . S
C364 O386 1.240 . S
C364 O387 1.264 . S
O365 Mn360 2.095 . S
O365 C374 1.250 . S
O366 Mn361 2.121 . S
O366 C374 1.258 . S
C367 N368 1.326 1_655 S
C367 C371 1.460 . S
C367 H373 0.929 . S
N368 Mn361 2.257 . S
N368 C367 1.326 1_455 S
N368 C372 1.362 . S
C369 C370 1.258 . S
C369 C372 1.431 1_655 S
C369 C389 1.449 . S
C370 C369 1.258 . S
C370 C371 1.477 . S
C370 H390 0.931 . S
C371 C367 1.460 . S
C371 C370 1.477 . S
C371 H391 0.930 . S
C372 N368 1.362 . S
C372 C369 1.431 1_455 S
C372 C382 1.476 . S
H373 C367 0.929 . S
C374 O365 1.250 . S
C374 O366 1.258 . S
O375 Mn360 2.162 . S
O375 C363 1.281 . S
O376 Mn360 2.297 . S
O376 C363 1.236 . S
N377 Mn361 2.282 . S
N377 C378 1.328 . S
N377 C382 1.318 . S
C378 N377 1.328 . S
C378 C379 1.457 . S
C378 H383 0.929 . S
C379 C378 1.457 . S
C379 C380 1.291 . S
C379 H392 0.931 . S
C380 C379 1.291 . S
C380 C381 1.373 . S
C380 H393 0.929 . S
C381 C380 1.373 . S
C381 C382 1.396 . S
C381 C388 1.403 . S
C382 C372 1.476 . S
C382 N377 1.318 . S
C382 C381 1.396 . S
H383 C378 0.929 . S
O384 Mn360 2.385 . S
O384 C362 1.234 . S
O385 Mn360 2.209 . S
O385 Mn361 2.215 . S
O385 C362 1.283 . S
O386 Mn360 2.094 . S
O386 C364 1.240 . S
O387 Mn361 2.117 . S
O387 C364 1.264 . S
C388 C381 1.403 . S
C388 C389 1.399 1_455 S
C388 H394 0.929 . S
C389 C369 1.449 . S
C389 C388 1.399 1_655 S
C389 H395 0.930 . S
H390 C370 0.931 . S
H391 C371 0.930 . S
H392 C379 0.931 . S
H393 C380 0.929 . S
H394 C388 0.929 . S
H395 C389 0.930 . S
Mn396 O401 2.095 . S
Mn396 O411 2.162 . S
Mn396 O412 2.297 . S
Mn396 O420 2.385 . S
Mn396 O421 2.209 . S
Mn396 O422 2.094 . S
Mn397 O402 2.121 . S
Mn397 N404 2.257 . S
Mn397 N413 2.282 . S
Mn397 O421 2.215 . S
Mn397 O423 2.117 . S
C398 O420 1.234 . S
C398 O421 1.283 . S
C399 O411 1.281 . S
C399 O412 1.236 . S
C400 O422 1.240 . S
C400 O423 1.264 . S
O401 Mn396 2.095 . S
O401 C410 1.250 . S
O402 Mn397 2.121 . S
O402 C410 1.258 . S
C403 N404 1.326 . S
C403 C407 1.460 . S
C403 H409 0.929 . S
N404 Mn397 2.257 . S
N404 C403 1.326 . S
N404 C408 1.362 . S
C405 C406 1.258 . S
C405 C408 1.431 . S
C405 C425 1.449 . S
C406 C405 1.258 . S
C406 C407 1.477 . S
C406 H426 0.931 . S
C407 C403 1.460 . S
C407 C406 1.477 . S
C407 H427 0.930 . S
C408 N404 1.362 . S
C408 C405 1.431 . S
C408 C418 1.476 . S
H409 C403 0.929 . S
C410 O401 1.250 . S
C410 O402 1.258 . S
O411 Mn396 2.162 . S
O411 C399 1.281 . S
O412 Mn396 2.297 . S
O412 C399 1.236 . S
N413 Mn397 2.282 . S
N413 C414 1.328 . S
N413 C418 1.318 . S
C414 N413 1.328 . S
C414 C415 1.457 . S
C414 H419 0.929 . S
C415 C414 1.457 . S
C415 C416 1.291 . S
C415 H428 0.931 . S
C416 C415 1.291 . S
C416 C417 1.373 . S
C416 H429 0.929 . S
C417 C416 1.373 . S
C417 C418 1.396 . S
C417 C424 1.403 . S
C418 C408 1.476 . S
C418 N413 1.318 . S
C418 C417 1.396 . S
H419 C414 0.929 . S
O420 Mn396 2.385 . S
O420 C398 1.234 . S
O421 Mn396 2.209 . S
O421 Mn397 2.215 . S
O421 C398 1.283 . S
O422 Mn396 2.094 . S
O422 C400 1.240 . S
O423 Mn397 2.117 . S
O423 C400 1.264 . S
C424 C417 1.403 . S
C424 C425 1.399 . S
C424 H430 0.929 . S
C425 C405 1.449 . S
C425 C424 1.399 . S
C425 H431 0.930 . S
H426 C406 0.931 . S
H427 C407 0.930 . S
H428 C415 0.931 . S
H429 C416 0.929 . S
H430 C424 0.929 . S
H431 C425 0.930 . S
Mn432 O437 2.095 . S
Mn432 O447 2.162 . S
Mn432 O448 2.297 . S
Mn432 O456 2.385 . S
Mn432 O457 2.209 . S
Mn432 O458 2.094 . S
Mn433 O438 2.121 . S
Mn433 N440 2.257 . S
Mn433 N449 2.282 . S
Mn433 O457 2.215 . S
Mn433 O459 2.117 . S
C434 O456 1.234 . S
C434 O457 1.283 . S
C435 O447 1.281 . S
C435 O448 1.236 . S
C436 O458 1.240 . S
C436 O459 1.264 . S
O437 Mn432 2.095 . S
O437 C446 1.250 . S
O438 Mn433 2.121 . S
O438 C446 1.258 . S
C439 N440 1.326 . S
C439 C443 1.460 . S
C439 H445 0.929 . S
N440 Mn433 2.257 . S
N440 C439 1.326 . S
N440 C444 1.362 . S
C441 C442 1.258 . S
C441 C444 1.431 . S
C441 C461 1.449 . S
C442 C441 1.258 . S
C442 C443 1.477 . S
C442 H462 0.931 . S
C443 C439 1.460 . S
C443 C442 1.477 . S
C443 H463 0.930 . S
C444 N440 1.362 . S
C444 C441 1.431 . S
C444 C454 1.476 . S
H445 C439 0.929 . S
C446 O437 1.250 . S
C446 O438 1.258 . S
O447 Mn432 2.162 . S
O447 C435 1.281 . S
O448 Mn432 2.297 . S
O448 C435 1.236 . S
N449 Mn433 2.282 . S
N449 C450 1.328 . S
N449 C454 1.318 . S
C450 N449 1.328 . S
C450 C451 1.457 . S
C450 H455 0.929 . S
C451 C450 1.457 . S
C451 C452 1.291 . S
C451 H464 0.931 . S
C452 C451 1.291 . S
C452 C453 1.373 . S
C452 H465 0.929 . S
C453 C452 1.373 . S
C453 C454 1.396 . S
C453 C460 1.403 . S
C454 C444 1.476 . S
C454 N449 1.318 . S
C454 C453 1.396 . S
H455 C450 0.929 . S
O456 Mn432 2.385 . S
O456 C434 1.234 . S
O457 Mn432 2.209 . S
O457 Mn433 2.215 . S
O457 C434 1.283 . S
O458 Mn432 2.094 . S
O458 C436 1.240 . S
O459 Mn433 2.117 . S
O459 C436 1.264 . S
C460 C453 1.403 . S
C460 C461 1.399 . S
C460 H466 0.929 . S
C461 C441 1.449 . S
C461 C460 1.399 . S
C461 H467 0.930 . S
H462 C442 0.931 . S
H463 C443 0.930 . S
H464 C451 0.931 . S
H465 C452 0.929 . S
H466 C460 0.929 . S
H467 C461 0.930 . S
Mn468 O473 2.095 . S
Mn468 O483 2.162 . S
Mn468 O484 2.297 . S
Mn468 O492 2.385 . S
Mn468 O493 2.209 . S
Mn468 O494 2.094 . S
Mn469 O474 2.121 . S
Mn469 N476 2.257 . S
Mn469 N485 2.282 . S
Mn469 O493 2.215 . S
Mn469 O495 2.117 . S
C470 O492 1.234 . S
C470 O493 1.283 . S
C471 O483 1.281 . S
C471 O484 1.236 . S
C472 O494 1.240 . S
C472 O495 1.264 . S
O473 Mn468 2.095 . S
O473 C482 1.250 . S
O474 Mn469 2.121 . S
O474 C482 1.258 . S
C475 N476 1.326 1_655 S
C475 C479 1.460 . S
C475 H481 0.929 . S
N476 Mn469 2.257 . S
N476 C475 1.326 1_455 S
N476 C480 1.362 . S
C477 C478 1.258 . S
C477 C480 1.431 1_655 S
C477 C497 1.449 . S
C478 C477 1.258 . S
C478 C479 1.477 . S
C478 H498 0.931 . S
C479 C475 1.460 . S
C479 C478 1.477 . S
C479 H499 0.930 . S
C480 N476 1.362 . S
C480 C477 1.431 1_455 S
C480 C490 1.476 . S
H481 C475 0.929 . S
C482 O473 1.250 . S
C482 O474 1.258 . S
O483 Mn468 2.162 . S
O483 C471 1.281 . S
O484 Mn468 2.297 . S
O484 C471 1.236 . S
N485 Mn469 2.282 . S
N485 C486 1.328 . S
N485 C490 1.318 . S
C486 N485 1.328 . S
C486 C487 1.457 . S
C486 H491 0.929 . S
C487 C486 1.457 . S
C487 C488 1.291 . S
C487 H500 0.931 . S
C488 C487 1.291 . S
C488 C489 1.373 . S
C488 H501 0.929 . S
C489 C488 1.373 . S
C489 C490 1.396 . S
C489 C496 1.403 . S
C490 C480 1.476 . S
C490 N485 1.318 . S
C490 C489 1.396 . S
H491 C486 0.929 . S
O492 Mn468 2.385 . S
O492 C470 1.234 . S
O493 Mn468 2.209 . S
O493 Mn469 2.215 . S
O493 C470 1.283 . S
O494 Mn468 2.094 . S
O494 C472 1.240 . S
O495 Mn469 2.117 . S
O495 C472 1.264 . S
C496 C489 1.403 . S
C496 C497 1.399 1_455 S
C496 H502 0.929 . S
C497 C477 1.449 . S
C497 C496 1.399 1_655 S
C497 H503 0.930 . S
H498 C478 0.931 . S
H499 C479 0.930 . S
H500 C487 0.931 . S
H501 C488 0.929 . S
H502 C496 0.929 . S
H503 C497 0.930 . S
Mn504 O509 2.095 . S
Mn504 O519 2.162 . S
Mn504 O520 2.297 . S
Mn504 O528 2.385 . S
Mn504 O529 2.209 . S
Mn504 O530 2.094 . S
Mn505 O510 2.121 . S
Mn505 N512 2.257 . S
Mn505 N521 2.282 . S
Mn505 O529 2.215 . S
Mn505 O531 2.117 . S
C506 O528 1.234 . S
C506 O529 1.283 . S
C507 O519 1.281 . S
C507 O520 1.236 . S
C508 O530 1.240 . S
C508 O531 1.264 . S
O509 Mn504 2.095 . S
O509 C518 1.250 . S
O510 Mn505 2.121 . S
O510 C518 1.258 . S
C511 N512 1.326 1_455 S
C511 C515 1.460 . S
C511 H517 0.929 . S
N512 Mn505 2.257 . S
N512 C511 1.326 1_655 S
N512 C516 1.362 . S
C513 C514 1.258 . S
C513 C516 1.431 1_455 S
C513 C533 1.449 . S
C514 C513 1.258 . S
C514 C515 1.477 . S
C514 H534 0.931 . S
C515 C511 1.460 . S
C515 C514 1.477 . S
C515 H535 0.930 . S
C516 N512 1.362 . S
C516 C513 1.431 1_655 S
C516 C526 1.476 . S
H517 C511 0.929 . S
C518 O509 1.250 . S
C518 O510 1.258 . S
O519 Mn504 2.162 . S
O519 C507 1.281 . S
O520 Mn504 2.297 . S
O520 C507 1.236 . S
N521 Mn505 2.282 . S
N521 C522 1.328 . S
N521 C526 1.318 . S
C522 N521 1.328 . S
C522 C523 1.457 . S
C522 H527 0.929 . S
C523 C522 1.457 . S
C523 C524 1.291 . S
C523 H536 0.931 . S
C524 C523 1.291 . S
C524 C525 1.373 . S
C524 H537 0.929 . S
C525 C524 1.373 . S
C525 C526 1.396 . S
C525 C532 1.403 . S
C526 C516 1.476 . S
C526 N521 1.318 . S
C526 C525 1.396 . S
H527 C522 0.929 . S
O528 Mn504 2.385 . S
O528 C506 1.234 . S
O529 Mn504 2.209 . S
O529 Mn505 2.215 . S
O529 C506 1.283 . S
O530 Mn504 2.094 . S
O530 C508 1.240 . S
O531 Mn505 2.117 . S
O531 C508 1.264 . S
C532 C525 1.403 . S
C532 C533 1.399 1_655 S
C532 H538 0.929 . S
C533 C513 1.449 . S
C533 C532 1.399 1_455 S
C533 H539 0.930 . S
H534 C514 0.931 . S
H535 C515 0.930 . S
H536 C523 0.931 . S
H537 C524 0.929 . S
H538 C532 0.929 . S
H539 C533 0.930 . S
Mn540 O545 2.095 . S
Mn540 O555 2.162 . S
Mn540 O556 2.297 . S
Mn540 O564 2.385 . S
Mn540 O565 2.209 . S
Mn540 O566 2.094 . S
Mn541 O546 2.121 . S
Mn541 N548 2.257 . S
Mn541 N557 2.282 . S
Mn541 O565 2.215 . S
Mn541 O567 2.117 . S
C542 O564 1.234 . S
C542 O565 1.283 . S
C543 O555 1.281 . S
C543 O556 1.236 . S
C544 O566 1.240 . S
C544 O567 1.264 . S
O545 Mn540 2.095 . S
O545 C554 1.250 . S
O546 Mn541 2.121 . S
O546 C554 1.258 . S
C547 N548 1.326 . S
C547 C551 1.460 . S
C547 H553 0.929 . S
N548 Mn541 2.257 . S
N548 C547 1.326 . S
N548 C552 1.362 . S
C549 C550 1.258 . S
C549 C552 1.431 . S
C549 C569 1.449 . S
C550 C549 1.258 . S
C550 C551 1.477 . S
C550 H570 0.931 . S
C551 C547 1.460 . S
C551 C550 1.477 . S
C551 H571 0.930 . S
C552 N548 1.362 . S
C552 C549 1.431 . S
C552 C562 1.476 . S
H553 C547 0.929 . S
C554 O545 1.250 . S
C554 O546 1.258 . S
O555 Mn540 2.162 . S
O555 C543 1.281 . S
O556 Mn540 2.297 . S
O556 C543 1.236 . S
N557 Mn541 2.282 . S
N557 C558 1.328 . S
N557 C562 1.318 . S
C558 N557 1.328 . S
C558 C559 1.457 . S
C558 H563 0.929 . S
C559 C558 1.457 . S
C559 C560 1.291 . S
C559 H572 0.931 . S
C560 C559 1.291 . S
C560 C561 1.373 . S
C560 H573 0.929 . S
C561 C560 1.373 . S
C561 C562 1.396 . S
C561 C568 1.403 . S
C562 C552 1.476 . S
C562 N557 1.318 . S
C562 C561 1.396 . S
H563 C558 0.929 . S
O564 Mn540 2.385 . S
O564 C542 1.234 . S
O565 Mn540 2.209 . S
O565 Mn541 2.215 . S
O565 C542 1.283 . S
O566 Mn540 2.094 . S
O566 C544 1.240 . S
O567 Mn541 2.117 . S
O567 C544 1.264 . S
C568 C561 1.403 . S
C568 C569 1.399 . S
C568 H574 0.929 . S
C569 C549 1.449 . S
C569 C568 1.399 . S
C569 H575 0.930 . S
H570 C550 0.931 . S
H571 C551 0.930 . S
H572 C559 0.931 . S
H573 C560 0.929 . S
H574 C568 0.929 . S
H575 C569 0.930 . S
H576 C582 0.930 . S
H577 C586 0.930 . S
H578 C591 0.929 . S
H579 C589 0.929 . S
H580 C584 0.929 . S
H581 C590 0.929 . S
C582 H576 0.930 . S
C582 C583 1.367 . S
C582 C590 1.378 . S
C583 C582 1.367 . S
C583 C591 1.433 . S
C584 H580 0.929 . S
C584 C586 1.378 . S
C584 C588 1.350 . S
C585 C588 1.463 1_565 S
C585 C590 1.350 . S
C585 N593 1.427 . S
C586 H577 0.930 . S
C586 C584 1.378 . S
C586 C587 1.367 . S
C587 C586 1.367 . S
C587 C589 1.433 . S
C588 C584 1.350 . S
C588 C585 1.463 1_545 S
C588 N592 1.427 . S
C589 H579 0.929 . S
C589 C587 1.433 . S
C589 N592 1.384 . S
C590 H581 0.929 . S
C590 C582 1.378 . S
C590 C585 1.350 . S
C591 H578 0.929 . S
C591 C583 1.433 . S
C591 N593 1.384 . S
N592 C588 1.427 . S
N592 C589 1.384 . S
N593 C585 1.427 . S
N593 C591 1.384 . S
H594 C600 0.930 1_545 S
H595 C604 0.930 1_565 S
H596 C609 0.929 . S
H597 C607 0.929 . S
H598 C602 0.929 . S
H599 C608 0.929 . S
C600 H594 0.930 1_565 S
C600 C601 1.367 . S
C600 C608 1.378 1_565 S
C601 C600 1.367 . S
C601 C609 1.433 . S
C602 H598 0.929 . S
C602 C604 1.378 1_565 S
C602 C606 1.350 1_565 S
C603 C606 1.463 1_565 S
C603 C608 1.350 1_565 S
C603 N611 1.427 . S
C604 H595 0.930 1_545 S
C604 C602 1.378 1_545 S
C604 C605 1.367 . S
C605 C604 1.367 . S
C605 C607 1.433 . S
C606 C602 1.350 1_545 S
C606 C603 1.463 1_545 S
C606 N610 1.427 . S
C607 H597 0.929 . S
C607 C605 1.433 . S
C607 N610 1.384 . S
C608 H599 0.929 . S
C608 C600 1.378 1_545 S
C608 C603 1.350 1_545 S
C609 H596 0.929 . S
C609 C601 1.433 . S
C609 N611 1.384 . S
N610 C606 1.427 . S
N610 C607 1.384 . S
N611 C603 1.427 . S
N611 C609 1.384 . S
H612 C618 0.930 . S
H613 C622 0.930 . S
H614 C627 0.929 . S
H615 C625 0.929 . S
H616 C620 0.929 . S
H617 C626 0.929 . S
C618 H612 0.930 . S
C618 C619 1.367 . S
C618 C626 1.378 . S
C619 C618 1.367 . S
C619 C627 1.433 1_565 S
C620 H616 0.929 . S
C620 C622 1.378 . S
C620 C624 1.350 . S
C621 C624 1.463 1_565 S
C621 C626 1.350 . S
C621 N629 1.427 1_565 S
C622 H613 0.930 . S
C622 C620 1.378 . S
C622 C623 1.367 . S
C623 C622 1.367 . S
C623 C625 1.433 1_545 S
C624 C620 1.350 . S
C624 C621 1.463 1_545 S
C624 N628 1.427 1_545 S
C625 H615 0.929 . S
C625 C623 1.433 1_565 S
C625 N628 1.384 . S
C626 H617 0.929 . S
C626 C618 1.378 . S
C626 C621 1.350 . S
C627 H614 0.929 . S
C627 C619 1.433 1_545 S
C627 N629 1.384 . S
N628 C624 1.427 1_565 S
N628 C625 1.384 . S
N629 C621 1.427 1_545 S
N629 C627 1.384 . S
H630 C636 0.930 . S
H631 C640 0.930 . S
H632 C645 0.929 . S
H633 C643 0.929 . S
H634 C638 0.929 . S
H635 C644 0.929 . S
C636 H630 0.930 . S
C636 C637 1.367 1_545 S
C636 C644 1.378 . S
C637 C636 1.367 1_565 S
C637 C645 1.433 . S
C638 H634 0.929 . S
C638 C640 1.378 . S
C638 C642 1.350 1_565 S
C639 C642 1.463 1_565 S
C639 C644 1.350 1_565 S
C639 N647 1.427 . S
C640 H631 0.930 . S
C640 C638 1.378 . S
C640 C641 1.367 1_565 S
C641 C640 1.367 1_545 S
C641 C643 1.433 . S
C642 C638 1.350 1_545 S
C642 C639 1.463 1_545 S
C642 N646 1.427 . S
C643 H633 0.929 . S
C643 C641 1.433 . S
C643 N646 1.384 . S
C644 H635 0.929 . S
C644 C636 1.378 . S
C644 C639 1.350 1_545 S
C645 H632 0.929 . S
C645 C637 1.433 . S
C645 N647 1.384 . S
N646 C642 1.427 . S
N646 C643 1.384 . S
N647 C639 1.427 . S
N647 C645 1.384 . S
H648 C654 0.930 . S
H649 C658 0.930 . S
H650 C663 0.929 . S
H651 C661 0.929 . S
H652 C656 0.929 . S
H653 C662 0.929 . S
C654 H648 0.930 . S
C654 C655 1.367 . S
C654 C662 1.378 . S
C655 C654 1.367 . S
C655 C663 1.433 . S
C656 H652 0.929 . S
C656 C658 1.378 . S
C656 C660 1.350 . S
C657 C660 1.463 . S
C657 C662 1.350 . S
C657 N665 1.427 . S
C658 H649 0.930 . S
C658 C656 1.378 . S
C658 C659 1.367 . S
C659 C658 1.367 . S
C659 C661 1.433 . S
C660 C656 1.350 . S
C660 C657 1.463 . S
C660 N664 1.427 . S
C661 H651 0.929 . S
C661 C659 1.433 . S
C661 N664 1.384 . S
C662 H653 0.929 . S
C662 C654 1.378 . S
C662 C657 1.350 . S
C663 H650 0.929 . S
C663 C655 1.433 . S
C663 N665 1.384 . S
N664 C660 1.427 . S
N664 C661 1.384 . S
N665 C657 1.427 . S
N665 C663 1.384 . S
H666 C672 0.930 . S
H667 C676 0.930 . S
H668 C681 0.929 . S
H669 C679 0.929 . S
H670 C674 0.929 . S
H671 C680 0.929 . S
C672 H666 0.930 . S
C672 C673 1.367 . S
C672 C680 1.378 . S
C673 C672 1.367 . S
C673 C681 1.433 . S
C674 H670 0.929 . S
C674 C676 1.378 . S
C674 C678 1.350 . S
C675 C678 1.463 . S
C675 C680 1.350 . S
C675 N683 1.427 . S
C676 H667 0.930 . S
C676 C674 1.378 . S
C676 C677 1.367 . S
C677 C676 1.367 . S
C677 C679 1.433 . S
C678 C674 1.350 . S
C678 C675 1.463 . S
C678 N682 1.427 . S
C679 H669 0.929 . S
C679 C677 1.433 . S
C679 N682 1.384 . S
C680 H671 0.929 . S
C680 C672 1.378 . S
C680 C675 1.350 . S
C681 H668 0.929 . S
C681 C673 1.433 . S
C681 N683 1.384 . S
N682 C678 1.427 . S
N682 C679 1.384 . S
N683 C675 1.427 . S
N683 C681 1.384 . S
H684 C690 0.930 . S
H685 C694 0.930 . S
H686 C699 0.929 . S
H687 C697 0.929 . S
H688 C692 0.929 . S
H689 C698 0.929 . S
C690 H684 0.930 . S
C690 C691 1.367 . S
C690 C698 1.378 . S
C691 C690 1.367 . S
C691 C699 1.433 . S
C692 H688 0.929 . S
C692 C694 1.378 . S
C692 C696 1.350 . S
C693 C696 1.463 . S
C693 C698 1.350 . S
C693 N701 1.427 . S
C694 H685 0.930 . S
C694 C692 1.378 . S
C694 C695 1.367 . S
C695 C694 1.367 . S
C695 C697 1.433 . S
C696 C692 1.350 . S
C696 C693 1.463 . S
C696 N700 1.427 . S
C697 H687 0.929 . S
C697 C695 1.433 . S
C697 N700 1.384 . S
C698 H689 0.929 . S
C698 C690 1.378 . S
C698 C693 1.350 . S
C699 H686 0.929 . S
C699 C691 1.433 . S
C699 N701 1.384 . S
N700 C696 1.427 . S
N700 C697 1.384 . S
N701 C693 1.427 . S
N701 C699 1.384 . S
H702 C708 0.930 . S
H703 C712 0.930 . S
H704 C717 0.929 . S
H705 C715 0.929 . S
H706 C710 0.929 . S
H707 C716 0.929 . S
C708 H702 0.930 . S
C708 C709 1.367 . S
C708 C716 1.378 . S
C709 C708 1.367 . S
C709 C717 1.433 . S
C710 H706 0.929 . S
C710 C712 1.378 . S
C710 C714 1.350 . S
C711 C714 1.463 . S
C711 C716 1.350 . S
C711 N719 1.427 . S
C712 H703 0.930 . S
C712 C710 1.378 . S
C712 C713 1.367 . S
C713 C712 1.367 . S
C713 C715 1.433 . S
C714 C710 1.350 . S
C714 C711 1.463 . S
C714 N718 1.427 . S
C715 H705 0.929 . S
C715 C713 1.433 . S
C715 N718 1.384 . S
C716 H707 0.929 . S
C716 C708 1.378 . S
C716 C711 1.350 . S
C717 H704 0.929 . S
C717 C709 1.433 . S
C717 N719 1.384 . S
N718 C714 1.427 . S
N718 C715 1.384 . S
N719 C711 1.427 . S
N719 C717 1.384 . S
H720 C726 0.930 . S
H721 C730 0.930 . S
H722 C735 0.929 . S
H723 C733 0.929 . S
H724 C728 0.929 . S
H725 C734 0.929 . S
C726 H720 0.930 . S
C726 C727 1.367 . S
C726 C734 1.378 . S
C727 C726 1.367 . S
C727 C735 1.433 . S
C728 H724 0.929 . S
C728 C730 1.378 . S
C728 C732 1.350 . S
C729 C732 1.463 1_655 S
C729 C734 1.350 . S
C729 N737 1.427 . S
C730 H721 0.930 . S
C730 C728 1.378 . S
C730 C731 1.367 . S
C731 C730 1.367 . S
C731 C733 1.433 . S
C732 C728 1.350 . S
C732 C729 1.463 1_455 S
C732 N736 1.427 . S
C733 H723 0.929 . S
C733 C731 1.433 . S
C733 N736 1.384 . S
C734 H725 0.929 . S
C734 C726 1.378 . S
C734 C729 1.350 . S
C735 H722 0.929 . S
C735 C727 1.433 . S
C735 N737 1.384 . S
N736 C732 1.427 . S
N736 C733 1.384 . S
N737 C729 1.427 . S
N737 C735 1.384 . S
H738 C744 0.930 . S
H739 C748 0.930 . S
H740 C753 0.929 . S
H741 C751 0.929 . S
H742 C746 0.929 . S
H743 C752 0.929 . S
C744 H738 0.930 . S
C744 C745 1.367 . S
C744 C752 1.378 . S
C745 C744 1.367 . S
C745 C753 1.433 . S
C746 H742 0.929 . S
C746 C748 1.378 . S
C746 C750 1.350 . S
C747 C750 1.463 . S
C747 C752 1.350 . S
C747 N755 1.427 . S
C748 H739 0.930 . S
C748 C746 1.378 . S
C748 C749 1.367 . S
C749 C748 1.367 . S
C749 C751 1.433 . S
C750 C746 1.350 . S
C750 C747 1.463 . S
C750 N754 1.427 . S
C751 H741 0.929 . S
C751 C749 1.433 . S
C751 N754 1.384 . S
C752 H743 0.929 . S
C752 C744 1.378 . S
C752 C747 1.350 . S
C753 H740 0.929 . S
C753 C745 1.433 . S
C753 N755 1.384 . S
N754 C750 1.427 . S
N754 C751 1.384 . S
N755 C747 1.427 . S
N755 C753 1.384 . S
H756 C762 0.930 . S
H757 C766 0.930 . S
H758 C771 0.929 . S
H759 C769 0.929 . S
H760 C764 0.929 . S
H761 C770 0.929 . S
C762 H756 0.930 . S
C762 C763 1.367 . S
C762 C770 1.378 . S
C763 C762 1.367 . S
C763 C771 1.433 1_455 S
C764 H760 0.929 . S
C764 C766 1.378 . S
C764 C768 1.350 . S
C765 C768 1.463 1_455 S
C765 C770 1.350 . S
C765 N773 1.427 1_455 S
C766 H757 0.930 . S
C766 C764 1.378 . S
C766 C767 1.367 . S
C767 C766 1.367 . S
C767 C769 1.433 1_655 S
C768 C764 1.350 . S
C768 C765 1.463 1_655 S
C768 N772 1.427 1_655 S
C769 H759 0.929 . S
C769 C767 1.433 1_455 S
C769 N772 1.384 . S
C770 H761 0.929 . S
C770 C762 1.378 . S
C770 C765 1.350 . S
C771 H758 0.929 . S
C771 C763 1.433 1_655 S
C771 N773 1.384 . S
N772 C768 1.427 1_455 S
N772 C769 1.384 . S
N773 C765 1.427 1_655 S
N773 C771 1.384 . S
H774 C780 0.930 . S
H775 C784 0.930 . S
H776 C789 0.929 . S
H777 C787 0.929 . S
H778 C782 0.929 . S
H779 C788 0.929 . S
C780 H774 0.930 . S
C780 C781 1.367 . S
C780 C788 1.378 . S
C781 C780 1.367 . S
C781 C789 1.433 . S
C782 H778 0.929 . S
C782 C784 1.378 . S
C782 C786 1.350 . S
C783 C786 1.463 . S
C783 C788 1.350 . S
C783 N791 1.427 . S
C784 H775 0.930 . S
C784 C782 1.378 . S
C784 C785 1.367 . S
C785 C784 1.367 . S
C785 C787 1.433 . S
C786 C782 1.350 . S
C786 C783 1.463 . S
C786 N790 1.427 . S
C787 H777 0.929 . S
C787 C785 1.433 . S
C787 N790 1.384 . S
C788 H779 0.929 . S
C788 C780 1.378 . S
C788 C783 1.350 . S
C789 H776 0.929 . S
C789 C781 1.433 . S
C789 N791 1.384 . S
N790 C786 1.427 . S
N790 C787 1.384 . S
N791 C783 1.427 . S
N791 C789 1.384 . S
H792 C798 0.930 . S
H793 C802 0.930 . S
H794 C807 0.929 . S
H795 C805 0.929 . S
H796 C800 0.929 . S
H797 C806 0.929 . S
C798 H792 0.930 . S
C798 C799 1.367 . S
C798 C806 1.378 . S
C799 C798 1.367 . S
C799 C807 1.433 . S
C800 H796 0.929 . S
C800 C802 1.378 . S
C800 C804 1.350 . S
C801 C804 1.463 . S
C801 C806 1.350 . S
C801 N809 1.427 . S
C802 H793 0.930 . S
C802 C800 1.378 . S
C802 C803 1.367 . S
C803 C802 1.367 . S
C803 C805 1.433 . S
C804 C800 1.350 . S
C804 C801 1.463 . S
C804 N808 1.427 . S
C805 H795 0.929 . S
C805 C803 1.433 . S
C805 N808 1.384 . S
C806 H797 0.929 . S
C806 C798 1.378 . S
C806 C801 1.350 . S
C807 H794 0.929 . S
C807 C799 1.433 . S
C807 N809 1.384 . S
N808 C804 1.427 . S
N808 C805 1.384 . S
N809 C801 1.427 . S
N809 C807 1.384 . S
H810 C816 0.930 . S
H811 C820 0.930 . S
H812 C825 0.929 . S
H813 C823 0.929 . S
H814 C818 0.929 1_455 S
H815 C824 0.929 1_655 S
C816 H810 0.930 . S
C816 C817 1.367 . S
C816 C824 1.378 . S
C817 C816 1.367 . S
C817 C825 1.433 . S
C818 H814 0.929 1_655 S
C818 C820 1.378 . S
C818 C822 1.350 . S
C819 C822 1.463 1_455 S
C819 C824 1.350 . S
C819 N827 1.427 . S
C820 H811 0.930 . S
C820 C818 1.378 . S
C820 C821 1.367 . S
C821 C820 1.367 . S
C821 C823 1.433 . S
C822 C818 1.350 . S
C822 C819 1.463 1_655 S
C822 N826 1.427 . S
C823 H813 0.929 . S
C823 C821 1.433 . S
C823 N826 1.384 . S
C824 H815 0.929 1_455 S
C824 C816 1.378 . S
C824 C819 1.350 . S
C825 H812 0.929 . S
C825 C817 1.433 . S
C825 N827 1.384 . S
N826 C822 1.427 . S
N826 C823 1.384 . S
N827 C819 1.427 . S
N827 C825 1.384 . S
H828 C834 0.930 . S
H829 C838 0.930 . S
H830 C843 0.929 . S
H831 C841 0.929 . S
H832 C836 0.929 . S
H833 C842 0.929 . S
C834 H828 0.930 . S
C834 C835 1.367 . S
C834 C842 1.378 . S
C835 C834 1.367 . S
C835 C843 1.433 . S
C836 H832 0.929 . S
C836 C838 1.378 . S
C836 C840 1.350 . S
C837 C840 1.463 . S
C837 C842 1.350 . S
C837 N845 1.427 . S
C838 H829 0.930 . S
C838 C836 1.378 . S
C838 C839 1.367 . S
C839 C838 1.367 . S
C839 C841 1.433 . S
C840 C836 1.350 . S
C840 C837 1.463 . S
C840 N844 1.427 . S
C841 H831 0.929 . S
C841 C839 1.433 . S
C841 N844 1.384 . S
C842 H833 0.929 . S
C842 C834 1.378 . S
C842 C837 1.350 . S
C843 H830 0.929 . S
C843 C835 1.433 . S
C843 N845 1.384 . S
N844 C840 1.427 . S
N844 C841 1.384 . S
N845 C837 1.427 . S
N845 C843 1.384 . S
H846 C852 0.930 . S
H847 C856 0.930 . S
H848 C861 0.929 . S
H849 C859 0.929 . S
H850 C854 0.929 . S
H851 C860 0.929 . S
C852 H846 0.930 . S
C852 C853 1.367 1_655 S
C852 C860 1.378 . S
C853 C852 1.367 1_455 S
C853 C861 1.433 . S
C854 H850 0.929 . S
C854 C856 1.378 . S
C854 C858 1.350 1_455 S
C855 C858 1.463 1_455 S
C855 C860 1.350 1_455 S
C855 N863 1.427 . S
C856 H847 0.930 . S
C856 C854 1.378 . S
C856 C857 1.367 1_455 S
C857 C856 1.367 1_655 S
C857 C859 1.433 . S
C858 C854 1.350 1_655 S
C858 C855 1.463 1_655 S
C858 N862 1.427 . S
C859 H849 0.929 . S
C859 C857 1.433 . S
C859 N862 1.384 . S
C860 H851 0.929 . S
C860 C852 1.378 . S
C860 C855 1.350 1_655 S
C861 H848 0.929 . S
C861 C853 1.433 . S
C861 N863 1.384 . S
N862 C858 1.427 . S
N862 C859 1.384 . S
N863 C855 1.427 . S
N863 C861 1.384 . S
H864 C870 0.930 . S
H865 C874 0.930 . S
H866 C879 0.929 . S
H867 C877 0.929 . S
H868 C872 0.929 . S
H869 C878 0.929 . S
C870 H864 0.930 . S
C870 C871 1.367 . S
C870 C878 1.378 . S
C871 C870 1.367 . S
C871 C879 1.433 . S
C872 H868 0.929 . S
C872 C874 1.378 . S
C872 C876 1.350 . S
C873 C876 1.463 1_455 S
C873 C878 1.350 . S
C873 N881 1.427 . S
C874 H865 0.930 . S
C874 C872 1.378 . S
C874 C875 1.367 . S
C875 C874 1.367 . S
C875 C877 1.433 . S
C876 C872 1.350 . S
C876 C873 1.463 1_655 S
C876 N880 1.427 . S
C877 H867 0.929 . S
C877 C875 1.433 . S
C877 N880 1.384 . S
C878 H869 0.929 . S
C878 C870 1.378 . S
C878 C873 1.350 . S
C879 H866 0.929 . S
C879 C871 1.433 . S
C879 N881 1.384 . S
N880 C876 1.427 . S
N880 C877 1.384 . S
N881 C873 1.427 . S
N881 C879 1.384 . S
H882 C888 0.930 . S
H883 C892 0.930 . S
H884 C897 0.929 . S
H885 C895 0.929 . S
H886 C890 0.929 . S
H887 C896 0.929 . S
C888 H882 0.930 . S
C888 C889 1.367 . S
C888 C896 1.378 . S
C889 C888 1.367 . S
C889 C897 1.433 . S
C890 H886 0.929 . S
C890 C892 1.378 . S
C890 C894 1.350 . S
C891 C894 1.463 . S
C891 C896 1.350 . S
C891 N899 1.427 . S
C892 H883 0.930 . S
C892 C890 1.378 . S
C892 C893 1.367 . S
C893 C892 1.367 . S
C893 C895 1.433 . S
C894 C890 1.350 . S
C894 C891 1.463 . S
C894 N898 1.427 . S
C895 H885 0.929 . S
C895 C893 1.433 . S
C895 N898 1.384 . S
C896 H887 0.929 . S
C896 C888 1.378 . S
C896 C891 1.350 . S
C897 H884 0.929 . S
C897 C889 1.433 . S
C897 N899 1.384 . S
N898 C894 1.427 . S
N898 C895 1.384 . S
N899 C891 1.427 . S
N899 C897 1.384 . S
H900 C906 0.930 . S
H901 C910 0.930 . S
H902 C915 0.929 . S
H903 C913 0.929 . S
H904 C908 0.929 . S
H905 C914 0.929 . S
C906 H900 0.930 . S
C906 C907 1.367 . S
C906 C914 1.378 . S
C907 C906 1.367 . S
C907 C915 1.433 . S
C908 H904 0.929 . S
C908 C910 1.378 . S
C908 C912 1.350 . S
C909 C912 1.463 . S
C909 C914 1.350 . S
C909 N917 1.427 . S
C910 H901 0.930 . S
C910 C908 1.378 . S
C910 C911 1.367 . S
C911 C910 1.367 . S
C911 C913 1.433 . S
C912 C908 1.350 . S
C912 C909 1.463 . S
C912 N916 1.427 . S
C913 H903 0.929 . S
C913 C911 1.433 . S
C913 N916 1.384 . S
C914 H905 0.929 . S
C914 C906 1.378 . S
C914 C909 1.350 . S
C915 H902 0.929 . S
C915 C907 1.433 . S
C915 N917 1.384 . S
N916 C912 1.427 . S
N916 C913 1.384 . S
N917 C909 1.427 . S
N917 C915 1.384 . S
H918 C924 0.930 1_655 S
H919 C928 0.930 1_455 S
H920 C933 0.929 . S
H921 C931 0.929 . S
H922 C926 0.929 . S
H923 C932 0.929 . S
C924 H918 0.930 1_455 S
C924 C925 1.367 . S
C924 C932 1.378 1_455 S
C925 C924 1.367 . S
C925 C933 1.433 . S
C926 H922 0.929 . S
C926 C928 1.378 1_455 S
C926 C930 1.350 1_455 S
C927 C930 1.463 1_455 S
C927 C932 1.350 1_455 S
C927 N935 1.427 . S
C928 H919 0.930 1_655 S
C928 C926 1.378 1_655 S
C928 C929 1.367 . S
C929 C928 1.367 . S
C929 C931 1.433 . S
C930 C926 1.350 1_655 S
C930 C927 1.463 1_655 S
C930 N934 1.427 . S
C931 H921 0.929 . S
C931 C929 1.433 . S
C931 N934 1.384 . S
C932 H923 0.929 . S
C932 C924 1.378 1_655 S
C932 C927 1.350 1_655 S
C933 H920 0.929 . S
C933 C925 1.433 . S
C933 N935 1.384 . S
N934 C930 1.427 . S
N934 C931 1.384 . S
N935 C927 1.427 . S
N935 C933 1.384 . S
H936 C942 0.930 . S
H937 C946 0.930 . S
H938 C951 0.929 1_655 S
H939 C949 0.929 1_455 S
H940 C944 0.929 . S
H941 C950 0.929 . S
C942 H936 0.930 . S
C942 C943 1.367 . S
C942 C950 1.378 . S
C943 C942 1.367 . S
C943 C951 1.433 . S
C944 H940 0.929 . S
C944 C946 1.378 . S
C944 C948 1.350 . S
C945 C948 1.463 1_455 S
C945 C950 1.350 . S
C945 N953 1.427 1_455 S
C946 H937 0.930 . S
C946 C944 1.378 . S
C946 C947 1.367 . S
C947 C946 1.367 . S
C947 C949 1.433 . S
C948 C944 1.350 . S
C948 C945 1.463 1_655 S
C948 N952 1.427 1_655 S
C949 H939 0.929 1_655 S
C949 C947 1.433 . S
C949 N952 1.384 1_655 S
C950 H941 0.929 . S
C950 C942 1.378 . S
C950 C945 1.350 . S
C951 H938 0.929 1_455 S
C951 C943 1.433 . S
C951 N953 1.384 1_455 S
N952 C948 1.427 1_455 S
N952 C949 1.384 1_455 S
N953 C945 1.427 1_655 S
N953 C951 1.384 1_655 S
H954 C960 0.930 . S
H955 C964 0.930 . S
H956 C969 0.929 . S
H957 C967 0.929 . S
H958 C962 0.929 . S
H959 C968 0.929 . S
C960 H954 0.930 . S
C960 C961 1.367 . S
C960 C968 1.378 . S
C961 C960 1.367 . S
C961 C969 1.433 . S
C962 H958 0.929 . S
C962 C964 1.378 . S
C962 C966 1.350 . S
C963 C966 1.463 . S
C963 C968 1.350 . S
C963 N971 1.427 . S
C964 H955 0.930 . S
C964 C962 1.378 . S
C964 C965 1.367 . S
C965 C964 1.367 . S
C965 C967 1.433 . S
C966 C962 1.350 . S
C966 C963 1.463 . S
C966 N970 1.427 . S
C967 H957 0.929 . S
C967 C965 1.433 . S
C967 N970 1.384 . S
C968 H959 0.929 . S
C968 C960 1.378 . S
C968 C963 1.350 . S
C969 H956 0.929 . S
C969 C961 1.433 . S
C969 N971 1.384 . S
N970 C966 1.427 . S
N970 C967 1.384 . S
N971 C963 1.427 . S
N971 C969 1.384 . S
H972 C978 0.930 . S
H973 C982 0.930 . S
H974 C987 0.929 . S
H975 C985 0.929 . S
H976 C980 0.929 . S
H977 C986 0.929 . S
C978 H972 0.930 . S
C978 C979 1.367 . S
C978 C986 1.378 . S
C979 C978 1.367 . S
C979 C987 1.433 . S
C980 H976 0.929 . S
C980 C982 1.378 . S
C980 C984 1.350 . S
C981 C984 1.463 . S
C981 C986 1.350 . S
C981 N989 1.427 . S
C982 H973 0.930 . S
C982 C980 1.378 . S
C982 C983 1.367 . S
C983 C982 1.367 . S
C983 C985 1.433 . S
C984 C980 1.350 . S
C984 C981 1.463 . S
C984 N988 1.427 . S
C985 H975 0.929 . S
C985 C983 1.433 . S
C985 N988 1.384 . S
C986 H977 0.929 . S
C986 C978 1.378 . S
C986 C981 1.350 . S
C987 H974 0.929 . S
C987 C979 1.433 . S
C987 N989 1.384 . S
N988 C984 1.427 . S
N988 C985 1.384 . S
N989 C981 1.427 . S
N989 C987 1.384 . S
H990 C996 0.930 1_655 S
H991 C1000 0.930 1_455 S
H992 C1005 0.929 . S
H993 C1003 0.929 . S
H994 C998 0.929 . S
H995 C1004 0.929 . S
C996 H990 0.930 1_455 S
C996 C997 1.367 . S
C996 C1004 1.378 1_455 S
C997 C996 1.367 . S
C997 C1005 1.433 . S
C998 H994 0.929 . S
C998 C1000 1.378 1_455 S
C998 C1002 1.350 1_455 S
C999 C1002 1.463 1_455 S
C999 C1004 1.350 1_455 S
C999 N1007 1.427 . S
C1000 H991 0.930 1_655 S
C1000 C998 1.378 1_655 S
C1000 C1001 1.367 . S
C1001 C1000 1.367 . S
C1001 C1003 1.433 . S
C1002 C998 1.350 1_655 S
C1002 C999 1.463 1_655 S
C1002 N1006 1.427 . S
C1003 H993 0.929 . S
C1003 C1001 1.433 . S
C1003 N1006 1.384 . S
C1004 H995 0.929 . S
C1004 C996 1.378 1_655 S
C1004 C999 1.350 1_655 S
C1005 H992 0.929 . S
C1005 C997 1.433 . S
C1005 N1007 1.384 . S
N1006 C1002 1.427 . S
N1006 C1003 1.384 . S
N1007 C999 1.427 . S
N1007 C1005 1.384 . S
H1008 C1014 0.930 . S
H1009 C1018 0.930 . S
H1010 C1023 0.929 . S
H1011 C1021 0.929 . S
H1012 C1016 0.929 . S
H1013 C1022 0.929 . S
C1014 H1008 0.930 . S
C1014 C1015 1.367 . S
C1014 C1022 1.378 . S
C1015 C1014 1.367 . S
C1015 C1023 1.433 1_565 S
C1016 H1012 0.929 . S
C1016 C1018 1.378 . S
C1016 C1020 1.350 . S
C1017 C1020 1.463 1_666 S
C1017 C1022 1.350 . S
C1017 N1025 1.427 1_565 S
C1018 H1009 0.930 . S
C1018 C1016 1.378 . S
C1018 C1019 1.367 . S
C1019 C1018 1.367 . S
C1019 C1021 1.433 1_545 S
C1020 C1016 1.350 . S
C1020 C1017 1.463 1_444 S
C1020 N1024 1.427 1_545 S
C1021 H1011 0.929 . S
C1021 C1019 1.433 1_565 S
C1021 N1024 1.384 . S
C1022 H1013 0.929 . S
C1022 C1014 1.378 . S
C1022 C1017 1.350 . S
C1023 H1010 0.929 . S
C1023 C1015 1.433 1_545 S
C1023 N1025 1.384 . S
N1024 C1020 1.427 1_565 S
N1024 C1021 1.384 . S
N1025 C1017 1.427 1_545 S
N1025 C1023 1.384 . S
H1026 C1032 0.944 . S
H1027 C1036 0.944 . S
H1028 C1041 0.929 . S
H1029 C1039 0.929 . S
H1030 C1034 0.929 . S
H1031 C1040 0.929 . S
C1032 H1026 0.944 . S
C1032 C1033 1.344 1_565 S
C1032 C1040 1.387 . S
C1033 C1032 1.344 1_545 S
C1033 C1041 1.433 . S
C1034 H1030 0.929 . S
C1034 C1036 1.387 . S
C1034 C1038 1.350 1_545 S
C1035 C1038 1.463 1_546 S
C1035 C1040 1.350 1_545 S
C1035 N1043 1.427 . S
C1036 H1027 0.944 . S
C1036 C1034 1.387 . S
C1036 C1037 1.344 1_545 S
C1037 C1036 1.344 1_565 S
C1037 C1039 1.433 . S
C1038 C1034 1.350 1_565 S
C1038 C1035 1.463 1_564 S
C1038 N1042 1.427 . S
C1039 H1029 0.929 . S
C1039 C1037 1.433 . S
C1039 N1042 1.384 . S
C1040 H1031 0.929 . S
C1040 C1032 1.387 . S
C1040 C1035 1.350 1_565 S
C1041 H1028 0.929 . S
C1041 C1033 1.433 . S
C1041 N1043 1.384 . S
N1042 C1038 1.427 . S
N1042 C1039 1.384 . S
N1043 C1035 1.427 . S
N1043 C1041 1.384 . S
H1044 C1050 0.930 . S
H1045 C1054 0.930 . S
H1046 C1059 0.929 . S
H1047 C1057 0.929 . S
H1048 C1052 0.929 . S
H1049 C1058 0.929 . S
C1050 H1044 0.930 . S
C1050 C1051 1.367 . S
C1050 C1058 1.378 . S
C1051 C1050 1.367 . S
C1051 C1059 1.433 . S
C1052 H1048 0.929 . S
C1052 C1054 1.378 . S
C1052 C1056 1.350 . S
C1053 C1056 1.463 1_545 S
C1053 C1058 1.350 . S
C1053 N1061 1.427 1_545 S
C1054 H1045 0.930 . S
C1054 C1052 1.378 . S
C1054 C1055 1.367 . S
C1055 C1054 1.367 . S
C1055 C1057 1.433 . S
C1056 C1052 1.350 . S
C1056 C1053 1.463 1_565 S
C1056 N1060 1.427 1_565 S
C1057 H1047 0.929 . S
C1057 C1055 1.433 . S
C1057 N1060 1.384 1_565 S
C1058 H1049 0.929 . S
C1058 C1050 1.378 . S
C1058 C1053 1.350 . S
C1059 H1046 0.929 . S
C1059 C1051 1.433 . S
C1059 N1061 1.384 1_545 S
N1060 C1056 1.427 1_545 S
N1060 C1057 1.384 1_545 S
N1061 C1053 1.427 1_565 S
N1061 C1059 1.384 1_565 S
H1062 C1068 0.930 . S
H1063 C1072 0.930 . S
H1064 C1077 0.929 1_545 S
H1065 C1075 0.929 1_565 S
H1066 C1070 0.929 . S
H1067 C1076 0.929 . S
C1068 H1062 0.930 . S
C1068 C1069 1.367 1_655 S
C1068 C1076 1.378 . S
C1069 C1068 1.367 1_455 S
C1069 C1077 1.433 . S
C1070 H1066 0.929 . S
C1070 C1072 1.378 . S
C1070 C1074 1.350 1_455 S
C1071 C1074 1.463 1_465 S
C1071 C1076 1.350 1_455 S
C1071 N1079 1.427 1_565 S
C1072 H1063 0.930 . S
C1072 C1070 1.378 . S
C1072 C1073 1.367 1_455 S
C1073 C1072 1.367 1_655 S
C1073 C1075 1.433 . S
C1074 C1070 1.350 1_655 S
C1074 C1071 1.463 1_645 S
C1074 N1078 1.427 1_545 S
C1075 H1065 0.929 1_545 S
C1075 C1073 1.433 . S
C1075 N1078 1.384 1_545 S
C1076 H1067 0.929 . S
C1076 C1068 1.378 . S
C1076 C1071 1.350 1_655 S
C1077 H1064 0.929 1_565 S
C1077 C1069 1.433 . S
C1077 N1079 1.384 1_565 S
N1078 C1074 1.427 1_565 S
N1078 C1075 1.384 1_565 S
N1079 C1071 1.427 1_545 S
N1079 C1077 1.384 1_545 S
H1080 C1086 0.930 . S
H1081 C1090 0.930 . S
H1082 C1095 0.929 . S
H1083 C1093 0.929 . S
H1084 C1088 0.929 . S
H1085 C1094 0.929 . S
C1086 H1080 0.930 . S
C1086 C1087 1.367 . S
C1086 C1094 1.378 . S
C1087 C1086 1.367 . S
C1087 C1095 1.433 . S
C1088 H1084 0.929 . S
C1088 C1090 1.378 . S
C1088 C1092 1.350 . S
C1089 C1092 1.463 1_554 S
C1089 C1094 1.350 . S
C1089 N1097 1.427 . S
C1090 H1081 0.930 . S
C1090 C1088 1.378 . S
C1090 C1091 1.367 . S
C1091 C1090 1.367 . S
C1091 C1093 1.433 . S
C1092 C1088 1.350 . S
C1092 C1089 1.463 1_556 S
C1092 N1096 1.427 . S
C1093 H1083 0.929 . S
C1093 C1091 1.433 . S
C1093 N1096 1.384 . S
C1094 H1085 0.929 . S
C1094 C1086 1.378 . S
C1094 C1089 1.350 . S
C1095 H1082 0.929 . S
C1095 C1087 1.433 . S
C1095 N1097 1.384 . S
N1096 C1092 1.427 . S
N1096 C1093 1.384 . S
N1097 C1089 1.427 . S
N1097 C1095 1.384 . S
H1098 C1104 0.930 . S
H1099 C1108 0.930 . S
H1100 C1113 0.929 . S
H1101 C1111 0.929 . S
H1102 C1106 0.929 . S
H1103 C1112 0.929 . S
C1104 H1098 0.930 . S
C1104 C1105 1.367 1_455 S
C1104 C1112 1.378 . S
C1105 C1104 1.367 1_655 S
C1105 C1113 1.433 . S
C1106 H1102 0.929 . S
C1106 C1108 1.378 . S
C1106 C1110 1.350 1_655 S
C1107 C1110 1.463 1_654 S
C1107 C1112 1.350 1_655 S
C1107 N1115 1.427 . S
C1108 H1099 0.930 . S
C1108 C1106 1.378 . S
C1108 C1109 1.367 1_655 S
C1109 C1108 1.367 1_455 S
C1109 C1111 1.433 . S
C1110 C1106 1.350 1_455 S
C1110 C1107 1.463 1_456 S
C1110 N1114 1.427 . S
C1111 H1101 0.929 . S
C1111 C1109 1.433 . S
C1111 N1114 1.384 . S
C1112 H1103 0.929 . S
C1112 C1104 1.378 . S
C1112 C1107 1.350 1_455 S
C1113 H1100 0.929 . S
C1113 C1105 1.433 . S
C1113 N1115 1.384 . S
N1114 C1110 1.427 . S
N1114 C1111 1.384 . S
N1115 C1107 1.427 . S
N1115 C1113 1.384 . S
H1116 C1122 0.930 . S
H1117 C1126 0.930 . S
H1118 C1131 0.929 . S
H1119 C1129 0.929 . S
H1120 C1124 0.929 . S
H1121 C1130 0.929 . S
C1122 H1116 0.930 . S
C1122 C1123 1.367 1_455 S
C1122 C1130 1.378 . S
C1123 C1122 1.367 1_655 S
C1123 C1131 1.433 . S
C1124 H1120 0.929 . S
C1124 C1126 1.378 . S
C1124 C1128 1.350 1_655 S
C1125 C1128 1.463 1_655 S
C1125 C1130 1.350 1_655 S
C1125 N1133 1.427 . S
C1126 H1117 0.930 . S
C1126 C1124 1.378 . S
C1126 C1127 1.367 1_655 S
C1127 C1126 1.367 1_455 S
C1127 C1129 1.433 . S
C1128 C1124 1.350 1_455 S
C1128 C1125 1.463 1_455 S
C1128 N1132 1.427 . S
C1129 H1119 0.929 . S
C1129 C1127 1.433 . S
C1129 N1132 1.384 . S
C1130 H1121 0.929 . S
C1130 C1122 1.378 . S
C1130 C1125 1.350 1_455 S
C1131 H1118 0.929 . S
C1131 C1123 1.433 . S
C1131 N1133 1.384 . S
N1132 C1128 1.427 . S
N1132 C1129 1.384 . S
N1133 C1125 1.427 . S
N1133 C1131 1.384 . S
H1134 C1140 0.930 . S
H1135 C1144 0.930 . S
H1136 C1149 0.929 . S
H1137 C1147 0.929 . S
H1138 C1142 0.929 . S
H1139 C1148 0.929 . S
C1140 H1134 0.930 . S
C1140 C1141 1.367 . S
C1140 C1148 1.378 . S
C1141 C1140 1.367 . S
C1141 C1149 1.433 . S
C1142 H1138 0.929 . S
C1142 C1144 1.378 . S
C1142 C1146 1.350 . S
C1143 C1146 1.463 . S
C1143 C1148 1.350 . S
C1143 N1151 1.427 . S
C1144 H1135 0.930 . S
C1144 C1142 1.378 . S
C1144 C1145 1.367 . S
C1145 C1144 1.367 . S
C1145 C1147 1.433 . S
C1146 C1142 1.350 . S
C1146 C1143 1.463 . S
C1146 N1150 1.427 . S
C1147 H1137 0.929 . S
C1147 C1145 1.433 . S
C1147 N1150 1.384 . S
C1148 H1139 0.929 . S
C1148 C1140 1.378 . S
C1148 C1143 1.350 . S
C1149 H1136 0.929 . S
C1149 C1141 1.433 . S
C1149 N1151 1.384 . S
N1150 C1146 1.427 . S
N1150 C1147 1.384 . S
N1151 C1143 1.427 . S
N1151 C1149 1.384 . S
C583 C40 1.495 . S
C587 C4 1.496 . S
C601 C76 1.494 . S
C605 C112 1.493 . S
C619 C148 1.497 . S
C623 C184 1.496 . S
C637 C256 1.493 . S
C641 C220 1.494 . S
C655 C328 1.496 . S
C659 C292 1.495 . S
C673 C400 1.493 . S
C677 C364 1.495 . S
C691 C472 1.494 . S
C695 C436 1.496 . S
C709 C544 1.496 . S
C713 C508 1.494 . S
C727 C110 1.315 . S
C731 C2 1.305 . S
C745 C38 1.306 . S
C749 C74 1.315 . S
C763 C254 1.304 . S
C767 C146 1.309 . S
C781 C218 1.315 . S
C785 C182 1.310 . S
C799 C290 1.312 . S
C803 C398 1.303 . S
C817 C362 1.306 . S
C821 C326 1.315 . S
C835 C542 1.303 . S
C839 C434 1.311 . S
C853 C470 1.312 . S
C857 C506 1.314 . S
C871 C3 1.506 . S
C875 C327 1.507 . S
C889 C39 1.507 . S
C893 C291 1.506 . S
C907 C399 1.507 . S
C911 C75 1.506 . S
C925 C363 1.507 . S
C929 C111 1.506 . S
C943 C471 1.507 . S
C947 C147 1.506 . S
C961 C435 1.506 . S
C965 C183 1.507 . S
C979 C219 1.507 . S
C983 C543 1.506 . S
C997 C255 1.506 . S
C1001 C507 1.507 . S
C1015 C158 1.250 . S
C1019 C14 1.250 . S
C1033 C194 1.241 . S
C1037 C50 1.241 . S
C1051 C230 1.251 . S
C1055 C86 1.251 . S
C1069 C266 1.252 . S
C1073 C122 1.252 . S
C1087 C302 1.246 . S
C1091 C446 1.246 . S
C1105 C338 1.245 . S
C1109 C482 1.245 . S
C1123 C518 1.249 . S
C1127 C374 1.249 . S
C1141 C554 1.238 . S
C1145 C410 1.238 . S
