# Generated by pormake.
# Topology soo, (7)-cn, num edge types: 1
# Building blocks:
#     Node 0, Type 0, BuildingBlock: HICVOG_clean_sbu_0, # of connection points: 7
#     Node 1, Type 0, BuildingBlock: HICVOG_clean_sbu_0, # of connection points: 7
#     Node 2, Type 0, BuildingBlock: HICVOG_clean_sbu_0, # of connection points: 7
#     Node 3, Type 0, BuildingBlock: HICVOG_clean_sbu_0, # of connection points: 7
#     Node 4, Type 0, BuildingBlock: HICVOG_clean_sbu_0, # of connection points: 7
#     Node 5, Type 0, BuildingBlock: HICVOG_clean_sbu_0, # of connection points: 7
#     Node 6, Type 0, BuildingBlock: HICVOG_clean_sbu_0, # of connection points: 7
#     Node 7, Type 0, BuildingBlock: HICVOG_clean_sbu_0, # of connection points: 7
#     Node 8, Type 0, BuildingBlock: HICVOG_clean_sbu_0, # of connection points: 7
#     Node 9, Type 0, BuildingBlock: HICVOG_clean_sbu_0, # of connection points: 7
#     Node 10, Type 0, BuildingBlock: HICVOG_clean_sbu_0, # of connection points: 7
#     Node 11, Type 0, BuildingBlock: HICVOG_clean_sbu_0, # of connection points: 7
#     Node 12, Type 0, BuildingBlock: HICVOG_clean_sbu_0, # of connection points: 7
#     Node 13, Type 0, BuildingBlock: HICVOG_clean_sbu_0, # of connection points: 7
#     Node 14, Type 0, BuildingBlock: HICVOG_clean_sbu_0, # of connection points: 7
#     Node 15, Type 0, BuildingBlock: HICVOG_clean_sbu_0, # of connection points: 7
#     Node 16, Type 0, BuildingBlock: HICVOG_clean_sbu_0, # of connection points: 7
#     Node 17, Type 0, BuildingBlock: HICVOG_clean_sbu_0, # of connection points: 7
#     Node 18, Type 0, BuildingBlock: HICVOG_clean_sbu_0, # of connection points: 7
#     Node 19, Type 0, BuildingBlock: HICVOG_clean_sbu_0, # of connection points: 7
#     Node 20, Type 0, BuildingBlock: HICVOG_clean_sbu_0, # of connection points: 7
#     Node 21, Type 0, BuildingBlock: HICVOG_clean_sbu_0, # of connection points: 7
#     Node 22, Type 0, BuildingBlock: HICVOG_clean_sbu_0, # of connection points: 7
#     Node 23, Type 0, BuildingBlock: HICVOG_clean_sbu_0, # of connection points: 7
#     Node 24, Type 0, BuildingBlock: HICVOG_clean_sbu_0, # of connection points: 7
#     Node 25, Type 0, BuildingBlock: HICVOG_clean_sbu_0, # of connection points: 7
#     Node 26, Type 0, BuildingBlock: HICVOG_clean_sbu_0, # of connection points: 7
#     Node 27, Type 0, BuildingBlock: HICVOG_clean_sbu_0, # of connection points: 7
#     Node 28, Type 0, BuildingBlock: HICVOG_clean_sbu_0, # of connection points: 7
#     Node 29, Type 0, BuildingBlock: HICVOG_clean_sbu_0, # of connection points: 7
#     Node 30, Type 0, BuildingBlock: HICVOG_clean_sbu_0, # of connection points: 7
#     Node 31, Type 0, BuildingBlock: HICVOG_clean_sbu_0, # of connection points: 7
#     Edge 32, Type (0, 0), None
#     Edge 33, Type (0, 0), None
#     Edge 34, Type (0, 0), None
#     Edge 35, Type (0, 0), None
#     Edge 36, Type (0, 0), None
#     Edge 37, Type (0, 0), None
#     Edge 38, Type (0, 0), None
#     Edge 39, Type (0, 0), None
#     Edge 40, Type (0, 0), None
#     Edge 41, Type (0, 0), None
#     Edge 42, Type (0, 0), None
#     Edge 43, Type (0, 0), None
#     Edge 44, Type (0, 0), None
#     Edge 45, Type (0, 0), None
#     Edge 46, Type (0, 0), None
#     Edge 47, Type (0, 0), None
#     Edge 48, Type (0, 0), None
#     Edge 49, Type (0, 0), None
#     Edge 50, Type (0, 0), None
#     Edge 51, Type (0, 0), None
#     Edge 52, Type (0, 0), None
#     Edge 53, Type (0, 0), None
#     Edge 54, Type (0, 0), None
#     Edge 55, Type (0, 0), None
#     Edge 56, Type (0, 0), None
#     Edge 57, Type (0, 0), None
#     Edge 58, Type (0, 0), None
#     Edge 59, Type (0, 0), None
#     Edge 60, Type (0, 0), None
#     Edge 61, Type (0, 0), None
#     Edge 62, Type (0, 0), None
#     Edge 63, Type (0, 0), None
#     Edge 64, Type (0, 0), None
#     Edge 65, Type (0, 0), None
#     Edge 66, Type (0, 0), None
#     Edge 67, Type (0, 0), None
#     Edge 68, Type (0, 0), None
#     Edge 69, Type (0, 0), None
#     Edge 70, Type (0, 0), None
#     Edge 71, Type (0, 0), None
#     Edge 72, Type (0, 0), None
#     Edge 73, Type (0, 0), None
#     Edge 74, Type (0, 0), None
#     Edge 75, Type (0, 0), None
#     Edge 76, Type (0, 0), None
#     Edge 77, Type (0, 0), None
#     Edge 78, Type (0, 0), None
#     Edge 79, Type (0, 0), None
#     Edge 80, Type (0, 0), None
#     Edge 81, Type (0, 0), None
#     Edge 82, Type (0, 0), None
#     Edge 83, Type (0, 0), None
#     Edge 84, Type (0, 0), None
#     Edge 85, Type (0, 0), None
#     Edge 86, Type (0, 0), None
#     Edge 87, Type (0, 0), None
#     Edge 88, Type (0, 0), None
#     Edge 89, Type (0, 0), None
#     Edge 90, Type (0, 0), None
#     Edge 91, Type (0, 0), None
#     Edge 92, Type (0, 0), None
#     Edge 93, Type (0, 0), None
#     Edge 94, Type (0, 0), None
#     Edge 95, Type (0, 0), None
#     Edge 96, Type (0, 0), None
#     Edge 97, Type (0, 0), None
#     Edge 98, Type (0, 0), None
#     Edge 99, Type (0, 0), None
#     Edge 100, Type (0, 0), None
#     Edge 101, Type (0, 0), None
#     Edge 102, Type (0, 0), None
#     Edge 103, Type (0, 0), None
#     Edge 104, Type (0, 0), None
#     Edge 105, Type (0, 0), None
#     Edge 106, Type (0, 0), None
#     Edge 107, Type (0, 0), None
#     Edge 108, Type (0, 0), None
#     Edge 109, Type (0, 0), None
#     Edge 110, Type (0, 0), None
#     Edge 111, Type (0, 0), None
#     Edge 112, Type (0, 0), None
#     Edge 113, Type (0, 0), None
#     Edge 114, Type (0, 0), None
#     Edge 115, Type (0, 0), None
#     Edge 116, Type (0, 0), None
#     Edge 117, Type (0, 0), None
#     Edge 118, Type (0, 0), None
#     Edge 119, Type (0, 0), None
#     Edge 120, Type (0, 0), None
#     Edge 121, Type (0, 0), None
#     Edge 122, Type (0, 0), None
#     Edge 123, Type (0, 0), None
#     Edge 124, Type (0, 0), None
#     Edge 125, Type (0, 0), None
#     Edge 126, Type (0, 0), None
#     Edge 127, Type (0, 0), None
#     Edge 128, Type (0, 0), None
#     Edge 129, Type (0, 0), None
#     Edge 130, Type (0, 0), None
#     Edge 131, Type (0, 0), None
#     Edge 132, Type (0, 0), None
#     Edge 133, Type (0, 0), None
#     Edge 134, Type (0, 0), None
#     Edge 135, Type (0, 0), None
#     Edge 136, Type (0, 0), None
#     Edge 137, Type (0, 0), None
#     Edge 138, Type (0, 0), None
#     Edge 139, Type (0, 0), None
#     Edge 140, Type (0, 0), None
#     Edge 141, Type (0, 0), None
#     Edge 142, Type (0, 0), None
#     Edge 143, Type (0, 0), None
# Relax obj value: 0.204
# Max RMSD: 0.250
# Mean RMSD: 0.250
data_MOF--net-soo--node1-HICVOG_clean_sbu_0--edge1-none
_symmetry_space_group_name_H-M    P1
_symmetry_Int_Tables_number       1
_symmetry_cell_setting            triclinic
loop_
_symmetry_equiv_pos_as_xyz
'x, y, z'
_cell_length_a     99.429402
_cell_length_b     24.67782
_cell_length_c     7.4769938
_cell_angle_alpha  89.994846
_cell_angle_beta   89.985551
_cell_angle_gamma 89.990782
loop_
_atom_site_label
_atom_site_type_symbol
_atom_site_fract_x
_atom_site_fract_y
_atom_site_fract_z
_atom_type_partial_charge
Zn0 Zn 0.06925 0.47232 0.38533 0.0
C1 C 0.05147 0.36503 1.12346 0.0
N2 N 0.05334 0.33133 0.27346 0.0
C3 C 0.05523 0.36503 0.42325 0.0
N4 N 0.05522 0.41673 0.35789 0.0
N5 N 0.05152 0.41673 0.18755 0.0
C6 C 0.05304 0.5027 0.85261 0.0
O7 O 0.06175 0.50755 0.98224 0.0
O8 O 0.0697 0.4848 0.64012 0.0
Zn9 Zn 0.03951 0.47731 1.13648 0.0
N10 N 0.08584 0.44827 0.26564 0.0
C11 C 0.09577 0.42193 0.98788 0.0
C12 C 0.08446 0.43152 1.09299 0.0
C13 C 0.09829 0.4525 0.34029 0.0
N14 N 0.10815 0.42684 1.06132 0.0
C15 C 0.10977 0.44123 0.23542 0.0
O16 O 0.04385 0.55288 0.23388 0.0
C17 C 0.05478 0.57736 0.27013 0.0
O18 O 0.06557 0.55116 0.302 0.0
H19 H 0.07468 0.42628 1.03483 0.0
H20 H 0.09923 0.46547 0.47803 0.0
C21 C 0.01062 0.47906 1.12437 0.0
C22 C -0.00237 0.47176 0.19561 0.0
C23 C 0.00718 0.42711 0.44654 0.0
C24 C 0.02 0.43452 0.37543 0.0
N25 N 0.02148 0.46031 0.21595 0.0
N26 N -0.00367 0.44581 0.35545 0.0
H27 H 0.01219 0.50052 0.99989 0.0
C28 C 0.05776 0.50056 0.67356 0.0
O29 O 0.04872 0.50312 0.54666 0.0
O30 O 0.04096 0.4893 0.88469 0.0
H31 H 0.02872 0.42106 0.4492 0.0
H32 H 0.09471 0.40973 0.84957 0.0
H33 H 0.00587 0.40745 0.57463 0.0
Zn34 Zn 0.1639 0.74205 0.3857 0.0
C35 C 0.18168 0.84934 1.12374 0.0
N36 N 0.17981 0.88304 0.27373 0.0
C37 C 0.17791 0.84934 0.42355 0.0
N38 N 0.17792 0.79764 0.3582 0.0
N39 N 0.18162 0.79764 0.18784 0.0
C40 C 0.1801 0.71167 0.8529 0.0
O41 O 0.17139 0.70683 0.9826 0.0
O42 O 0.16343 0.72957 0.6405 0.0
Zn43 Zn 0.19364 0.73706 1.13667 0.0
N44 N 0.14731 0.76611 0.266 0.0
C45 C 0.13739 0.79246 0.98819 0.0
C46 C 0.14869 0.78288 1.09337 0.0
C47 C 0.13485 0.76186 0.34058 0.0
N48 N 0.12501 0.78753 1.06155 0.0
C49 C 0.12337 0.77313 0.23564 0.0
O50 O 0.18929 0.6615 0.23407 0.0
C51 C 0.17836 0.63701 0.27038 0.0
O52 O 0.16757 0.6632 0.30238 0.0
H53 H 0.15848 0.78813 1.03526 0.0
H54 H 0.1339 0.74888 0.47831 0.0
C55 C 0.22253 0.73526 1.1245 0.0
C56 C 0.23551 0.74254 0.19573 0.0
C57 C 0.22596 0.78723 0.44659 0.0
C58 C 0.21314 0.77984 0.3755 0.0
N59 N 0.21167 0.75404 0.21606 0.0
N60 N 0.23681 0.7685 0.35552 0.0
H61 H 0.22096 0.71378 1.00006 0.0
C62 C 0.17538 0.71381 0.67388 0.0
O63 O 0.18442 0.71122 0.54692 0.0
O64 O 0.19218 0.72508 0.88488 0.0
H65 H 0.20442 0.79331 0.44926 0.0
H66 H 0.13847 0.80467 0.84988 0.0
H67 H 0.22727 0.8069 0.57465 0.0
Zn68 Zn 0.03951 0.73727 0.41132 0.0
C69 C 0.05522 0.84953 1.12397 0.0
N70 N 0.05334 0.88325 0.27379 0.0
C71 C 0.05146 0.84956 0.42376 0.0
N72 N 0.05149 0.79788 0.35948 0.0
N73 N 0.0552 0.79781 0.18914 0.0
C74 C 0.0578 0.71394 0.87395 0.0
O75 O 0.04876 0.71131 1.00081 0.0
O76 O 0.041 0.72532 0.66304 0.0
Zn77 Zn 0.06924 0.74221 0.16235 0.0
N78 N 0.02146 0.75424 0.3324 0.0
C79 C 0.00715 0.78769 1.10249 0.0
C80 C 0.01997 0.78024 0.17332 0.0
C81 C 0.01061 0.7353 0.42383 0.0
N82 N -0.00369 0.7688 0.19343 0.0
C83 C -0.00238 0.74264 0.35285 0.0
O84 O 0.06557 0.66338 0.24569 0.0
C85 C 0.05478 0.63719 0.27765 0.0
O86 O 0.04385 0.6617 0.31387 0.0
H87 H 0.02868 0.79383 1.09963 0.0
H88 H 0.0122 0.71367 0.54797 0.0
C89 C 0.09827 0.76192 0.20772 0.0
C90 C 0.10975 0.77319 0.31261 0.0
C91 C 0.09573 0.79279 0.55982 0.0
C92 C 0.08443 0.78322 0.45465 0.0
N93 N 0.08582 0.7663 0.28218 0.0
N94 N 0.10812 0.78773 0.48657 0.0
H95 H 0.09923 0.74884 1.0701 0.0
C96 C 0.05309 0.71189 0.6949 0.0
O97 O 0.06179 0.70711 0.56517 0.0
O98 O 0.06974 0.72971 0.90755 0.0
H99 H 0.07465 0.78857 0.51266 0.0
H100 H 0.00582 0.80752 0.97472 0.0
H101 H 0.09466 0.8051 0.69802 0.0
Zn102 Zn 0.16391 0.47214 0.16257 0.0
C103 C 0.1817 0.36484 0.42435 0.0
N104 N 0.17982 0.33114 0.27437 0.0
C105 C 0.17793 0.36485 1.12457 0.0
N106 N 0.17794 0.41654 0.18991 0.0
N107 N 0.18164 0.41654 0.36024 0.0
C108 C 0.1801 0.50249 0.69521 0.0
O109 O 0.1714 0.50727 0.56557 0.0
O110 O 0.16344 0.48462 0.90778 0.0
Zn111 Zn 0.19365 0.47712 0.4114 0.0
N112 N 0.14732 0.44808 0.28226 0.0
C113 C 0.13739 0.42167 0.55992 0.0
C114 C 0.14869 0.43124 0.45483 0.0
C115 C 0.13487 0.45242 0.20766 0.0
N116 N 0.12501 0.42668 0.48652 0.0
C117 C 0.12339 0.44117 0.31249 0.0
O118 O 0.1893 0.55269 0.314 0.0
C119 C 0.17836 0.57717 0.27785 0.0
O120 O 0.16758 0.55097 0.24593 0.0
H121 H 0.15848 0.42594 0.51296 0.0
H122 H 0.13393 0.46546 1.06998 0.0
C123 C 0.22254 0.479 0.42355 0.0
C124 C 0.23553 0.47168 0.35246 0.0
C125 C 0.226 0.42677 1.10194 0.0
C126 C 0.21318 0.4342 0.1729 0.0
N127 N 0.21169 0.46013 0.3321 0.0
N128 N 0.23684 0.4456 0.19291 0.0
H129 H 0.22096 0.50057 0.54781 0.0
C130 C 0.17539 0.50038 0.87427 0.0
O131 O 0.18442 0.50298 1.00116 0.0
O132 O 0.19218 0.48911 0.66317 0.0
H133 H 0.20446 0.42066 1.09921 0.0
H134 H 0.13845 0.4094 0.69818 0.0
H135 H 0.22733 0.407 0.97407 0.0
Zn136 Zn 0.91391 0.49199 0.91274 0.0
C137 C 0.93169 0.59928 0.17448 0.0
N138 N 0.92982 0.63298 1.02448 0.0
C139 C 0.92792 0.59928 0.8747 0.0
N140 N 0.92793 0.54758 0.94007 0.0
N141 N 0.93163 0.54758 1.11041 0.0
C142 C 0.93011 0.46162 0.44542 0.0
O143 O 0.9214 0.45681 0.31578 0.0
O144 O 0.91345 0.4795 0.65795 0.0
Zn145 Zn 0.94365 0.487 0.16158 0.0
N146 N 0.89732 0.51605 1.03244 0.0
C147 C 0.88739 0.54245 0.31018 0.0
C148 C 0.89869 0.53285 0.20504 0.0
C149 C 0.88487 0.5118 0.95786 0.0
N150 N 0.87501 0.53752 0.2368 0.0
C151 C 0.87338 0.52308 1.06275 0.0
O152 O 0.9393 0.41143 1.06424 0.0
C153 C 0.92837 0.38694 1.02804 0.0
O154 O 0.91759 0.41314 0.99611 0.0
H155 H 0.90848 0.53811 0.26316 0.0
H156 H 0.88392 0.49879 0.82015 0.0
C157 C 0.97254 0.48523 0.17371 0.0
C158 C 0.98553 0.49252 1.10245 0.0
C159 C 0.97597 0.53716 0.8515 0.0
C160 C 0.96315 0.52977 0.92262 0.0
N161 N 0.96168 0.50398 1.08212 0.0
N162 N 0.98682 0.51846 0.9426 0.0
H163 H 0.97096 0.46377 0.2982 0.0
C164 C 0.92539 0.46375 0.62448 0.0
O165 O 0.93443 0.46115 0.75138 0.0
O166 O 0.94219 0.47502 0.41337 0.0
H167 H 0.95444 0.54322 0.84884 0.0
H168 H 0.88846 0.55469 0.44845 0.0
H169 H 0.97729 0.55682 0.7234 0.0
Zn170 Zn 0.81925 0.22223 0.91267 0.0
C171 C 0.80147 0.11494 0.1746 0.0
N172 N 0.80334 0.08124 1.02461 0.0
C173 C 0.80524 0.11494 0.87479 0.0
N174 N 0.80523 0.16664 0.94014 0.0
N175 N 0.80153 0.16664 1.1105 0.0
C176 C 0.80305 0.2526 0.44545 0.0
O177 O 0.81176 0.25744 0.31575 0.0
O178 O 0.81972 0.23471 0.65786 0.0
Zn179 Zn 0.78951 0.22722 0.16169 0.0
N180 N 0.83584 0.19818 1.0324 0.0
C181 C 0.84575 0.17182 0.31022 0.0
C182 C 0.83446 0.18139 0.20502 0.0
C183 C 0.8483 0.20244 0.95785 0.0
N184 N 0.85814 0.17676 0.23688 0.0
C185 C 0.85978 0.19118 1.0628 0.0
O186 O 0.79386 0.30279 1.06428 0.0
C187 C 0.80479 0.32727 1.02799 0.0
O188 O 0.81557 0.30108 0.99599 0.0
H189 H 0.82467 0.17613 0.26311 0.0
H190 H 0.84925 0.21543 0.82013 0.0
C191 C 0.76062 0.22903 0.17386 0.0
C192 C 0.74763 0.22173 1.10264 0.0
C193 C 0.75719 0.17702 0.85183 0.0
C194 C 0.77001 0.18442 0.92292 0.0
N195 N 0.77148 0.21024 1.08233 0.0
N196 N 0.74634 0.19576 0.94288 0.0
H197 H 0.76219 0.25051 0.29828 0.0
C198 C 0.80777 0.25047 0.62447 0.0
O199 O 0.79873 0.25306 0.75144 0.0
O200 O 0.79097 0.23919 0.41348 0.0
H201 H 0.77873 0.17094 0.84917 0.0
H202 H 0.84468 0.1596 0.44851 0.0
H203 H 0.75588 0.15733 0.7238 0.0
Zn204 Zn 0.91392 0.22207 1.13596 0.0
C205 C 0.9317 0.11477 0.87416 0.0
N206 N 0.92982 0.08107 1.02417 0.0
C207 C 0.92793 0.11478 0.17396 0.0
N208 N 0.92795 0.16647 1.1086 0.0
N209 N 0.93165 0.16647 0.93825 0.0
C210 C 0.93011 0.25243 0.60322 0.0
O211 O 0.9214 0.25724 0.73291 0.0
O212 O 0.91345 0.23456 0.39076 0.0
Zn213 Zn 0.94366 0.22705 0.88696 0.0
N214 N 0.89733 0.19803 1.01624 0.0
C215 C 0.88742 0.17163 0.73851 0.0
C216 C 0.89871 0.18118 0.84368 0.0
C217 C 0.88488 0.20238 1.09074 0.0
N218 N 0.87503 0.17665 0.81182 0.0
C219 C 0.8734 0.19113 0.98583 0.0
O220 O 0.93931 0.30262 0.98436 0.0
C221 C 0.92838 0.32711 1.02059 0.0
O222 O 0.91759 0.30091 1.05258 0.0
H223 H 0.9085 0.17588 0.78561 0.0
H224 H 0.88392 0.21542 0.22841 0.0
C225 C 0.97255 0.22897 0.87473 0.0
C226 C 0.98554 0.22163 0.94574 0.0
C227 C 0.97601 0.1766 0.19609 0.0
C228 C 0.96318 0.18405 1.12521 0.0
N229 N 0.9617 0.21004 0.96613 0.0
N230 N 0.98685 0.19548 1.10518 0.0
H231 H 0.97097 0.2506 0.75058 0.0
C232 C 0.92539 0.25031 0.42418 0.0
O233 O 0.93443 0.2529 0.29724 0.0
O234 O 0.94219 0.23903 0.63518 0.0
H235 H 0.95447 0.17045 0.19887 0.0
H236 H 0.88849 0.15936 0.60027 0.0
H237 H 0.97733 0.15677 0.32387 0.0
Zn238 Zn 0.81924 0.49214 1.13578 0.0
C239 C 0.80145 0.59944 0.87401 0.0
N240 N 0.80333 0.63314 1.02398 0.0
C241 C 0.80522 0.59943 0.17379 0.0
N242 N 0.80521 0.54774 1.10845 0.0
N243 N 0.80151 0.54774 0.93812 0.0
C244 C 0.80305 0.46179 0.60314 0.0
O245 O 0.81176 0.457 0.73278 0.0
O246 O 0.81971 0.47965 0.39056 0.0
Zn247 Zn 0.7895 0.48716 0.88694 0.0
N248 N 0.83583 0.51619 1.01605 0.0
C249 C 0.84576 0.5426 0.73834 0.0
C250 C 0.83446 0.53303 0.84347 0.0
C251 C 0.84828 0.51187 1.09061 0.0
N252 N 0.85814 0.53759 0.81169 0.0
C253 C 0.85977 0.52312 0.98573 0.0
O254 O 0.79385 0.4116 0.98435 0.0
C255 C 0.80479 0.38711 1.02051 0.0
O256 O 0.81557 0.4133 1.05242 0.0
H257 H 0.82467 0.53832 0.78537 0.0
H258 H 0.84923 0.49883 0.22829 0.0
C259 C 0.76061 0.48528 0.87477 0.0
C260 C 0.74762 0.49261 0.94585 0.0
C261 C 0.75715 0.53752 0.19636 0.0
C262 C 0.76997 0.53009 1.12541 0.0
N263 N 0.77146 0.50416 0.96622 0.0
N264 N 0.74631 0.5187 1.1054 0.0
H265 H 0.7622 0.46371 0.75052 0.0
C266 C 0.80776 0.4639 0.42407 0.0
O267 O 0.79873 0.4613 0.29719 0.0
O268 O 0.79097 0.47518 0.63517 0.0
H269 H 0.77869 0.54364 0.1991 0.0
H270 H 0.8447 0.55485 0.60007 0.0
H271 H 0.75582 0.5573 0.32422 0.0
Zn272 Zn 0.06925 0.9723 0.88539 0.0
C273 C 0.05147 0.86504 0.62346 0.0
N274 N 0.05332 0.83133 0.77348 0.0
C275 C 0.05521 0.86504 0.92328 0.0
N276 N 0.05522 0.91673 0.8579 0.0
N277 N 0.05152 0.91674 0.68755 0.0
C278 C 0.05304 0.0027 0.35265 0.0
O279 O 0.06175 0.00752 0.48228 0.0
O280 O 0.0697 -0.01522 1.14017 0.0
Zn281 Zn 0.03951 0.97734 0.6365 0.0
N282 N 0.08584 0.94823 0.76576 0.0
C283 C 0.09577 0.9219 0.48801 0.0
C284 C 0.08447 0.93148 0.5931 0.0
C285 C 0.09829 0.95246 0.84044 0.0
N286 N 0.10815 0.92681 0.56147 0.0
C287 C 0.10977 0.9412 0.73558 0.0
O288 O 0.04386 0.05289 0.73388 0.0
C289 C 0.0548 0.07736 0.77013 0.0
O290 O 0.06558 0.05115 0.80205 0.0
H291 H 0.07469 0.92626 0.53492 0.0
H292 H 0.09923 0.96543 0.97818 0.0
C293 C 0.01062 0.97907 0.62438 0.0
C294 C -0.00237 0.97179 0.69567 0.0
C295 C 0.00719 0.92728 0.94684 0.0
C296 C 0.02001 0.93465 0.87568 0.0
N297 N 0.02148 0.96036 0.71606 0.0
N298 N -0.00366 0.94593 0.85565 0.0
H299 H 0.01219 0.00047 0.49978 0.0
C300 C 0.05776 0.00055 0.1736 0.0
O301 O 0.04873 0.00314 1.04669 0.0
O302 O 0.04096 -0.01068 0.38471 0.0
H303 H 0.02873 0.92124 0.94952 0.0
H304 H 0.09471 0.90971 0.34969 0.0
H305 H 0.00587 0.90767 1.07503 0.0
Zn306 Zn 0.16391 0.24207 0.88596 0.0
C307 C 0.18169 0.34935 0.62404 0.0
N308 N 0.17982 0.38305 0.77405 0.0
C309 C 0.17794 0.34935 0.92387 0.0
N310 N 0.17794 0.29765 0.85853 0.0
N311 N 0.18164 0.29765 0.68816 0.0
C312 C 0.18011 0.21169 0.35317 0.0
O313 O 0.17141 0.20686 0.48287 0.0
O314 O 0.16345 0.22959 1.14076 0.0
Zn315 Zn 0.19365 0.23706 0.63692 0.0
N316 N 0.14732 0.26615 0.76623 0.0
C317 C 0.13742 0.29252 0.48839 0.0
C318 C 0.14871 0.28294 0.59361 0.0
C319 C 0.13487 0.26189 0.84075 0.0
N320 N 0.12503 0.28758 0.56171 0.0
C321 C 0.12339 0.27316 0.73578 0.0
O322 O 0.1893 0.16149 0.73431 0.0
C323 C 0.17837 0.13702 0.77061 0.0
O324 O 0.16759 0.16323 0.80262 0.0
H325 H 0.1585 0.28819 0.53553 0.0
H326 H 0.13391 0.2489 0.97847 0.0
C327 C 0.22254 0.23527 0.62466 0.0
C328 C 0.23553 0.24256 0.69585 0.0
C329 C 0.22598 0.2872 0.94681 0.0
C330 C 0.21316 0.27981 0.87575 0.0
N331 N 0.21168 0.25403 0.71628 0.0
N332 N 0.23682 0.26849 0.85567 0.0
H333 H 0.22097 0.21381 0.50019 0.0
C334 C 0.17539 0.21382 0.17415 0.0
O335 O 0.18443 0.21121 1.04719 0.0
O336 O 0.19219 0.22509 0.38513 0.0
H337 H 0.20444 0.29327 0.94957 0.0
H338 H 0.13849 0.30473 0.3501 0.0
H339 H 0.22729 0.30686 1.07488 0.0
Zn340 Zn 0.03952 0.23726 0.91134 0.0
C341 C 0.05523 0.34952 0.62395 0.0
N342 N 0.05335 0.38324 0.77377 0.0
C343 C 0.05148 0.34955 0.92376 0.0
N344 N 0.05151 0.29787 0.85947 0.0
N345 N 0.05521 0.2978 0.68913 0.0
C346 C 0.05782 0.21394 0.37395 0.0
O347 O 0.04877 0.2113 0.50081 0.0
O348 O 0.04102 0.22531 0.16306 0.0
Zn349 Zn 0.06926 0.24221 0.66235 0.0
N350 N 0.02148 0.2542 0.83236 0.0
C351 C 0.00716 0.28755 0.60226 0.0
C352 C 0.01999 0.28014 0.67317 0.0
C353 C 0.01063 0.23528 0.92382 0.0
N354 N -0.00367 0.26868 0.69323 0.0
C355 C -0.00236 0.24258 0.85276 0.0
O356 O 0.06558 0.16337 0.74568 0.0
C357 C 0.0548 0.13719 0.77767 0.0
O358 O 0.04387 0.1617 0.81391 0.0
H359 H 0.0287 0.29372 0.59946 0.0
H360 H 0.01221 0.2137 1.04804 0.0
C361 C 0.09829 0.26194 0.70778 0.0
C362 C 0.10977 0.27322 0.81271 0.0
C363 C 0.09574 0.29282 1.05987 0.0
C364 C 0.08445 0.28324 0.95467 0.0
N365 N 0.08584 0.26631 0.78221 0.0
N366 N 0.10813 0.28776 0.98666 0.0
H367 H 0.09925 0.24885 0.57017 0.0
C368 C 0.0531 0.21189 0.19491 0.0
O369 O 0.0618 0.20711 1.06516 0.0
O370 O 0.06976 0.22971 0.40754 0.0
H371 H 0.07466 0.28858 1.01266 0.0
H372 H 0.00584 0.30733 0.47441 0.0
H373 H 0.09467 0.30514 0.19806 0.0
Zn374 Zn 0.19364 0.97708 0.91147 0.0
C375 C 0.17792 0.86485 0.62424 0.0
N376 N 0.1798 0.83113 0.77407 0.0
C377 C 0.18167 0.86482 0.92402 0.0
N378 N 0.18165 0.9165 0.85971 0.0
N379 N 0.17794 0.91657 0.68938 0.0
C380 C 0.17535 0.00045 0.37421 0.0
O381 O 0.18439 0.0031 0.50103 0.0
O382 O 0.19215 -0.01097 0.16322 0.0
Zn383 Zn 0.1639 0.97218 0.66266 0.0
N384 N 0.21168 0.96013 0.83233 0.0
C385 C 0.22599 0.92679 0.60215 0.0
C386 C 0.21317 0.9342 0.67312 0.0
C387 C 0.22253 0.97902 0.92376 0.0
N388 N 0.23683 0.94563 0.69309 0.0
C389 C 0.23552 0.97171 0.85265 0.0
O390 O 0.16758 0.05101 0.74606 0.0
C391 C 0.17837 0.07718 0.77802 0.0
O392 O 0.1893 0.05267 0.81413 0.0
H393 H 0.20446 0.92065 0.59943 0.0
H394 H 0.22095 0.00059 1.04801 0.0
C395 C 0.13487 0.95243 0.70786 0.0
C396 C 0.12339 0.94114 0.81267 0.0
C397 C 0.13739 0.92157 1.06002 0.0
C398 C 0.1487 0.93117 0.95494 0.0
N399 N 0.14732 0.94808 0.78244 0.0
N400 N 0.12501 0.9266 0.98666 0.0
H401 H 0.13393 0.96551 0.57023 0.0
C402 C 0.18007 0.00247 0.19514 0.0
O403 O 0.17136 0.00723 1.06546 0.0
O404 O 0.16341 -0.0153 0.40789 0.0
H405 H 0.15848 0.92584 1.01303 0.0
H406 H 0.22732 0.90702 0.47427 0.0
H407 H 0.13845 0.90926 0.19823 0.0
Zn408 Zn 0.91391 -0.008 0.41266 0.0
C409 C 0.93169 0.09927 0.67448 0.0
N410 N 0.92983 0.13298 0.52446 0.0
C411 C 0.92794 0.09928 0.37467 0.0
N412 N 0.92794 0.04758 0.44005 0.0
N413 N 0.93164 0.04757 0.61039 0.0
C414 C 0.93011 0.96162 0.94539 0.0
O415 O 0.92141 0.95683 0.81574 0.0
O416 O 0.91345 0.97952 0.15789 0.0
Zn417 Zn 0.94365 -0.01302 0.66154 0.0
N418 N 0.89732 0.01609 0.53231 0.0
C419 C 0.88739 0.04247 0.81004 0.0
C420 C 0.89869 0.03287 0.70493 0.0
C421 C 0.88487 0.01184 0.45769 0.0
N422 N 0.87501 0.03754 0.73664 0.0
C423 C 0.87338 0.02312 0.56256 0.0
O424 O 0.93929 0.91142 0.56424 0.0
C425 C 0.92836 0.88695 0.52803 0.0
O426 O 0.91758 0.91316 0.49606 0.0
H427 H 0.90848 0.03811 0.76307 0.0
H428 H 0.88392 -0.00115 0.31997 0.0
C429 C 0.97254 -0.01477 0.67369 0.0
C430 C 0.98553 -0.00749 0.6024 0.0
C431 C 0.97597 0.03702 0.35122 0.0
C432 C 0.96315 0.02965 0.42238 0.0
N433 N 0.96168 0.00394 0.58201 0.0
N434 N 0.98682 0.01837 0.44242 0.0
H435 H 0.97097 0.96384 0.7983 0.0
C436 C 0.92539 0.96375 1.12444 0.0
O437 O 0.93443 0.96114 0.25135 0.0
O438 O 0.94219 0.97501 0.91334 0.0
H439 H 0.95443 0.04306 0.34854 0.0
H440 H 0.88845 0.05469 0.94833 0.0
H441 H 0.97729 0.05662 0.22303 0.0
Zn442 Zn 0.81924 0.7222 0.41243 0.0
C443 C 0.80146 0.61493 0.67431 0.0
N444 N 0.80333 0.58123 0.52431 0.0
C445 C 0.80521 0.61494 0.37449 0.0
N446 N 0.80521 0.66663 0.43983 0.0
N447 N 0.80151 0.66664 0.6102 0.0
C448 C 0.80305 0.75259 0.94519 0.0
O449 O 0.81175 0.75741 0.81549 0.0
O450 O 0.81971 0.73468 0.15762 0.0
Zn451 Zn 0.7895 0.72723 0.66146 0.0
N452 N 0.83583 0.69812 0.5322 0.0
C453 C 0.84574 0.67173 0.81002 0.0
C454 C 0.83444 0.68132 0.7048 0.0
C455 C 0.84828 0.7024 0.4577 0.0
N456 N 0.85812 0.67669 0.73673 0.0
C457 C 0.85976 0.69113 0.56268 0.0
O458 O 0.79386 0.80279 0.56406 0.0
C459 C 0.80479 0.82726 0.52777 0.0
O460 O 0.81557 0.80105 0.49575 0.0
H461 H 0.82466 0.67605 0.76287 0.0
H462 H 0.84924 0.71541 0.32 0.0
C463 C 0.76061 0.72903 0.67377 0.0
C464 C 0.74762 0.72175 0.6026 0.0
C465 C 0.75717 0.6771 0.35162 0.0
C466 C 0.76999 0.68448 0.42266 0.0
N467 N 0.77147 0.71027 0.58213 0.0
N468 N 0.74633 0.69581 0.44278 0.0
H469 H 0.76219 0.75049 0.79824 0.0
C470 C 0.80777 0.75046 1.12422 0.0
O471 O 0.79873 0.75307 0.25117 0.0
O472 O 0.79097 0.7392 0.91324 0.0
H473 H 0.77871 0.67103 0.34883 0.0
H474 H 0.84466 0.6595 0.94829 0.0
H475 H 0.75586 0.65744 0.22355 0.0
Zn476 Zn 0.9139 0.72207 0.63596 0.0
C477 C 0.93168 0.61477 0.37417 0.0
N478 N 0.92982 0.58107 0.52419 0.0
C479 C 0.92793 0.61478 0.67399 0.0
N480 N 0.92794 0.66648 0.60862 0.0
N481 N 0.93164 0.66648 0.43826 0.0
C482 C 0.93009 0.75243 1.10321 0.0
O483 O 0.92139 0.75725 0.23291 0.0
O484 O 0.91343 0.73455 0.89076 0.0
Zn485 Zn 0.94364 0.72706 0.38694 0.0
N486 N 0.89732 0.69802 0.51621 0.0
C487 C 0.88741 0.67161 0.23846 0.0
C488 C 0.8987 0.68118 0.34366 0.0
C489 C 0.88486 0.70235 0.59069 0.0
N490 N 0.87502 0.67662 0.31173 0.0
C491 C 0.87338 0.6911 0.48574 0.0
O492 O 0.93929 0.80262 0.48433 0.0
C493 C 0.92836 0.82711 0.52058 0.0
O494 O 0.91758 0.80092 0.5526 0.0
H495 H 0.90849 0.67588 0.2856 0.0
H496 H 0.8839 0.71539 0.72836 0.0
C497 C 0.97253 0.72899 0.37475 0.0
C498 C 0.98552 0.72169 0.44583 0.0
C499 C 0.97599 0.67671 0.69628 0.0
C500 C 0.96317 0.68412 0.62533 0.0
N501 N 0.96168 0.71007 0.46616 0.0
N502 N 0.98683 0.69558 0.60535 0.0
H503 H 0.97095 0.75058 0.25053 0.0
C504 C 0.92538 0.75031 0.92418 0.0
O505 O 0.93441 0.75291 0.79724 0.0
O506 O 0.94217 0.73903 1.13517 0.0
H507 H 0.95445 0.67054 0.69901 0.0
H508 H 0.88848 0.65935 1.10022 0.0
H509 H 0.97731 0.65692 0.82413 0.0
Zn510 Zn 0.78952 -0.01281 0.38683 0.0
C511 C 0.80523 0.09943 0.6741 0.0
N512 N 0.80335 0.13315 0.52427 0.0
C513 C 0.80148 0.09946 0.37431 0.0
N514 N 0.80151 0.04778 0.43863 0.0
N515 N 0.80521 0.04771 0.60895 0.0
C516 C 0.8078 0.96383 0.92411 0.0
O517 O 0.79877 0.96118 0.7973 0.0
O518 O 0.79101 0.97524 1.13509 0.0
Zn519 Zn 0.81925 -0.0079 0.63565 0.0
N520 N 0.77147 0.00413 0.4659 0.0
C521 C 0.75716 0.03745 0.69608 0.0
C522 C 0.76998 0.03004 0.62513 0.0
C523 C 0.76062 -0.01475 0.37442 0.0
N524 N 0.74632 0.01862 0.60509 0.0
C525 C 0.74763 -0.00745 0.44551 0.0
O526 O 0.81558 0.91327 0.55227 0.0
C527 C 0.80479 0.8871 0.52032 0.0
O528 O 0.79386 0.91161 0.4842 0.0
H529 H 0.77869 0.04359 0.69885 0.0
H530 H 0.76221 0.96369 0.25015 0.0
C531 C 0.84828 0.01187 0.59037 0.0
C532 C 0.85977 0.02316 0.48553 0.0
C533 C 0.84576 0.04272 0.23822 0.0
C534 C 0.83446 0.03312 0.34334 0.0
N535 N 0.83583 0.01621 0.51584 0.0
N536 N 0.85814 0.03769 0.31154 0.0
H537 H 0.84923 -0.00121 0.72801 0.0
C538 C 0.80309 0.96181 1.10318 0.0
O539 O 0.81179 0.95704 0.23287 0.0
O540 O 0.81975 0.97959 0.89043 0.0
H541 H 0.82467 0.03845 0.28529 0.0
H542 H 0.75583 0.05721 0.82397 0.0
H543 H 0.8447 0.05503 1.10001 0.0
Zn544 Zn 0.56924 0.47225 0.88552 0.0
C545 C 0.55146 0.36497 0.62365 0.0
N546 N 0.55333 0.33126 0.77365 0.0
C547 C 0.55523 0.36497 0.92343 0.0
N548 N 0.55522 0.41666 0.85807 0.0
N549 N 0.55152 0.41667 0.68773 0.0
C550 C 0.55304 0.50264 0.3528 0.0
O551 O 0.56175 0.50746 0.48243 0.0
O552 O 0.5697 0.48472 1.1403 0.0
Zn553 Zn 0.5395 0.47726 0.63664 0.0
N554 N 0.58584 0.44818 0.76587 0.0
C555 C 0.59577 0.42183 0.48812 0.0
C556 C 0.58446 0.43142 0.59323 0.0
C557 C 0.59828 0.45242 0.84052 0.0
N558 N 0.60815 0.42675 0.56156 0.0
C559 C 0.60977 0.44115 0.73566 0.0
O560 O 0.54385 0.55282 0.73405 0.0
C561 C 0.55478 0.57729 0.77028 0.0
O562 O 0.56557 0.55109 0.80217 0.0
H563 H 0.57468 0.42618 0.53507 0.0
H564 H 0.59923 0.46539 0.97826 0.0
C565 C 0.51062 0.47905 0.62445 0.0
C566 C 0.49763 0.47177 0.69564 0.0
C567 C 0.50717 0.4271 0.9466 0.0
C568 C 0.51999 0.43449 0.87553 0.0
N569 N 0.52147 0.46028 0.71606 0.0
N570 N 0.49632 0.44582 0.85547 0.0
H571 H 0.51219 0.50052 0.49997 0.0
C572 C 0.55776 0.50049 0.17375 0.0
O573 O 0.54872 0.50307 1.04685 0.0
O574 O 0.54096 0.48925 0.38486 0.0
H575 H 0.52871 0.42102 0.94933 0.0
H576 H 0.59471 0.40963 0.34981 0.0
H577 H 0.50585 0.40744 1.07467 0.0
Zn578 Zn 0.6639 0.74206 0.88597 0.0
C579 C 0.68169 0.84934 0.62408 0.0
N580 N 0.67982 0.88304 0.77407 0.0
C581 C 0.67792 0.84934 0.92389 0.0
N582 N 0.67793 0.79764 0.85854 0.0
N583 N 0.68163 0.79763 0.68819 0.0
C584 C 0.6801 0.71168 0.35321 0.0
O585 O 0.67139 0.70687 0.48291 0.0
O586 O 0.66344 0.72958 1.14078 0.0
Zn587 Zn 0.69364 0.73704 0.63695 0.0
N588 N 0.64731 0.76613 0.76626 0.0
C589 C 0.6374 0.79253 0.48847 0.0
C590 C 0.6487 0.78294 0.59367 0.0
C591 C 0.63486 0.76186 0.84079 0.0
N592 N 0.62502 0.78757 0.56179 0.0
C593 C 0.62338 0.77313 0.73584 0.0
O594 O 0.68929 0.66148 0.73435 0.0
C595 C 0.67836 0.637 0.77062 0.0
O596 O 0.66758 0.66321 0.80263 0.0
H597 H 0.65849 0.78821 0.53559 0.0
H598 H 0.6339 0.74885 0.97849 0.0
C599 C 0.72253 0.73524 0.62465 0.0
C600 C 0.73552 0.74252 0.69583 0.0
C601 C 0.72597 0.78717 0.94681 0.0
C602 C 0.71315 0.77979 0.87577 0.0
N603 N 0.71168 0.75401 0.71629 0.0
N604 N 0.73682 0.76846 0.85566 0.0
H605 H 0.72096 0.71379 0.50017 0.0
C606 C 0.67538 0.71381 0.17418 0.0
O607 O 0.68442 0.7112 1.04722 0.0
O608 O 0.69218 0.72507 0.38517 0.0
H609 H 0.70443 0.79324 0.94959 0.0
H610 H 0.63848 0.80477 0.3502 0.0
H611 H 0.72729 0.80682 1.07489 0.0
Zn612 Zn 0.53951 0.7372 0.91144 0.0
C613 C 0.55522 0.84946 0.62411 0.0
N614 N 0.55334 0.88318 0.77392 0.0
C615 C 0.55146 0.84949 0.9239 0.0
N616 N 0.5515 0.79781 0.85962 0.0
N617 N 0.55521 0.79774 0.68928 0.0
C618 C 0.5578 0.71388 0.37409 0.0
O619 O 0.54876 0.71124 0.50096 0.0
O620 O 0.541 0.72525 0.16319 0.0
Zn621 Zn 0.56925 0.74214 0.66248 0.0
N622 N 0.52147 0.75415 0.83238 0.0
C623 C 0.50716 0.78746 0.60215 0.0
C624 C 0.51998 0.78005 0.67312 0.0
C625 C 0.51061 0.73527 0.92386 0.0
N626 N 0.49632 0.76864 0.69314 0.0
C627 C 0.49762 0.74258 0.85274 0.0
O628 O 0.56557 0.66331 0.74582 0.0
C629 C 0.55479 0.63713 0.7778 0.0
O630 O 0.54386 0.66163 0.81404 0.0
H631 H 0.5287 0.79359 0.5994 0.0
H632 H 0.51219 0.71372 1.04815 0.0
C633 C 0.59828 0.76189 0.70786 0.0
C634 C 0.60976 0.77317 0.81278 0.0
C635 C 0.59573 0.79273 1.05998 0.0
C636 C 0.58444 0.78315 0.95479 0.0
N637 N 0.58583 0.76624 0.78231 0.0
N638 N 0.60812 0.78769 0.98675 0.0
H639 H 0.59924 0.74881 0.57023 0.0
C640 C 0.55309 0.71183 0.19505 0.0
O641 O 0.56179 0.70704 1.06531 0.0
O642 O 0.56974 0.72964 0.40767 0.0
H643 H 0.57465 0.78848 1.01279 0.0
H644 H 0.50584 0.80722 0.47424 0.0
H645 H 0.59466 0.80503 0.19819 0.0
Zn646 Zn 0.69364 0.47709 0.9115 0.0
C647 C 0.67792 0.36483 0.62427 0.0
N648 N 0.6798 0.33111 0.77409 0.0
C649 C 0.68169 0.36481 0.92403 0.0
N650 N 0.68165 0.41648 0.85973 0.0
N651 N 0.67794 0.41655 0.68941 0.0
C652 C 0.67535 0.50043 0.37424 0.0
O653 O 0.68439 0.50309 0.50105 0.0
O654 O 0.69214 0.48903 0.16325 0.0
Zn655 Zn 0.6639 0.47216 0.6627 0.0
N656 N 0.71168 0.46015 0.83242 0.0
C657 C 0.726 0.42683 0.60223 0.0
C658 C 0.71317 0.43424 0.67318 0.0
C659 C 0.72253 0.47902 0.92391 0.0
N660 N 0.73684 0.44565 0.69323 0.0
C661 C 0.73552 0.47172 0.85281 0.0
O662 O 0.66757 0.55099 0.7461 0.0
C663 C 0.67836 0.57717 0.77805 0.0
O664 O 0.68929 0.55266 0.81415 0.0
H665 H 0.70446 0.4207 0.59945 0.0
H666 H 0.72095 0.50058 1.04818 0.0
C667 C 0.63487 0.45239 0.70792 0.0
C668 C 0.62339 0.44109 0.81273 0.0
C669 C 0.63739 0.42152 1.06005 0.0
C670 C 0.6487 0.43112 0.95496 0.0
N671 N 0.64732 0.44804 0.78248 0.0
N672 N 0.62501 0.42655 0.98671 0.0
H673 H 0.63392 0.46548 0.57029 0.0
C674 C 0.68006 0.50245 0.19516 0.0
O675 O 0.67136 0.5072 1.06548 0.0
O676 O 0.66341 0.48467 0.40792 0.0
H677 H 0.65848 0.42579 1.01303 0.0
H678 H 0.72733 0.40708 0.47433 0.0
H679 H 0.63845 0.40921 0.19826 0.0
Zn680 Zn 0.41391 0.49205 0.4125 0.0
C681 C 0.43169 0.59934 0.67425 0.0
N682 N 0.42981 0.63304 0.52425 0.0
C683 C 0.42792 0.59934 0.37447 0.0
N684 N 0.42793 0.54764 0.43984 0.0
N685 N 0.43163 0.54764 0.61017 0.0
C686 C 0.4301 0.46168 0.9452 0.0
O687 O 0.4214 0.45687 0.81556 0.0
O688 O 0.41344 0.47957 0.15773 0.0
Zn689 Zn 0.44365 0.48705 0.66136 0.0
N690 N 0.39731 0.51613 0.53218 0.0
C691 C 0.38739 0.54252 0.80992 0.0
C692 C 0.39869 0.53292 0.70479 0.0
C693 C 0.38486 0.51188 0.45758 0.0
N694 N 0.37501 0.53759 0.73654 0.0
C695 C 0.37338 0.52316 0.56247 0.0
O696 O 0.4393 0.41149 0.56401 0.0
C697 C 0.42837 0.38701 0.52783 0.0
O698 O 0.41758 0.41321 0.4959 0.0
H699 H 0.40847 0.53817 0.76291 0.0
H700 H 0.38391 0.49889 0.31987 0.0
C701 C 0.47253 0.48525 0.67361 0.0
C702 C 0.48552 0.49255 0.60244 0.0
C703 C 0.47598 0.53724 0.35151 0.0
C704 C 0.46316 0.52984 0.42255 0.0
N705 N 0.46168 0.50403 0.58199 0.0
N706 N 0.48683 0.51851 0.44264 0.0
H707 H 0.47096 0.46378 0.79806 0.0
C708 C 0.42539 0.46381 1.12426 0.0
O709 O 0.43442 0.46121 0.25115 0.0
O710 O 0.44218 0.47508 0.91315 0.0
H711 H 0.45444 0.54331 0.34875 0.0
H712 H 0.38845 0.55474 0.94821 0.0
H713 H 0.4773 0.55692 0.22346 0.0
Zn714 Zn 0.31925 0.22225 0.41261 0.0
C715 C 0.30146 0.11497 0.67457 0.0
N716 N 0.30333 0.08127 0.52457 0.0
C717 C 0.30523 0.11497 0.37476 0.0
N718 N 0.30522 0.16666 0.4401 0.0
N719 N 0.30152 0.16667 0.61046 0.0
C720 C 0.30305 0.25263 0.94538 0.0
O721 O 0.31176 0.25746 0.81568 0.0
O722 O 0.31971 0.23472 0.1578 0.0
Zn723 Zn 0.28951 0.22727 0.66163 0.0
N724 N 0.33584 0.19818 0.53234 0.0
C725 C 0.34575 0.17181 0.81013 0.0
C726 C 0.33445 0.18138 0.70495 0.0
C727 C 0.34829 0.20246 0.45778 0.0
N728 N 0.35813 0.17676 0.73677 0.0
C729 C 0.35977 0.19119 0.56271 0.0
O730 O 0.29386 0.30282 0.5642 0.0
C731 C 0.30479 0.3273 0.52789 0.0
O732 O 0.31558 0.30109 0.49591 0.0
H733 H 0.32467 0.17612 0.76306 0.0
H734 H 0.34925 0.21546 0.32007 0.0
C735 C 0.26062 0.22905 0.67386 0.0
C736 C 0.24763 0.22178 0.60264 0.0
C737 C 0.25719 0.17714 0.35166 0.0
C738 C 0.27001 0.18452 0.42274 0.0
N739 N 0.27148 0.21029 0.58224 0.0
N740 N 0.24634 0.19585 0.44279 0.0
H741 H 0.26219 0.2505 0.79835 0.0
C742 C 0.30777 0.25049 1.12441 0.0
O743 O 0.29873 0.25309 0.25136 0.0
O744 O 0.29097 0.23924 0.91341 0.0
H745 H 0.27873 0.17107 0.34893 0.0
H746 H 0.34468 0.15958 0.94841 0.0
H747 H 0.25587 0.1575 0.22356 0.0
Zn748 Zn 0.41391 0.22214 0.63579 0.0
C749 C 0.43169 0.11483 0.37398 0.0
N750 N 0.42981 0.08113 0.52399 0.0
C751 C 0.42792 0.11484 0.67379 0.0
N752 N 0.42794 0.16653 0.60843 0.0
N753 N 0.43164 0.16653 0.43807 0.0
C754 C 0.4301 0.25249 1.10303 0.0
O755 O 0.4214 0.25731 0.23273 0.0
O756 O 0.41344 0.23462 0.89059 0.0
Zn757 Zn 0.44365 0.22711 0.3868 0.0
N758 N 0.39732 0.19809 0.51608 0.0
C759 C 0.38741 0.1717 0.23835 0.0
C760 C 0.39871 0.18127 0.34351 0.0
C761 C 0.38487 0.20242 0.59062 0.0
N762 N 0.37502 0.1767 0.31169 0.0
C763 C 0.37339 0.19117 0.48572 0.0
O764 O 0.4393 0.30268 0.48415 0.0
C765 C 0.42837 0.32717 0.5204 0.0
O766 O 0.41758 0.30098 0.55241 0.0
H767 H 0.40849 0.17597 0.28541 0.0
H768 H 0.38391 0.21544 0.7283 0.0
C769 C 0.47254 0.229 0.37468 0.0
C770 C 0.48553 0.22168 0.4458 0.0
C771 C 0.47598 0.17674 0.69628 0.0
C772 C 0.46316 0.18417 0.62529 0.0
N773 N 0.46168 0.21011 0.46609 0.0
N774 N 0.48683 0.19558 0.60535 0.0
H775 H 0.47096 0.25058 0.25043 0.0
C776 C 0.42539 0.25037 0.924 0.0
O777 O 0.43442 0.25296 0.79705 0.0
O778 O 0.44218 0.23908 1.13501 0.0
H779 H 0.45445 0.17061 0.69895 0.0
H780 H 0.38848 0.15945 1.1001 0.0
H781 H 0.4773 0.15696 0.82415 0.0
Zn782 Zn 0.28951 0.4872 0.38684 0.0
C783 C 0.30522 0.59947 0.67405 0.0
N784 N 0.30334 0.63318 0.52423 0.0
C785 C 0.30146 0.59949 0.37429 0.0
N786 N 0.3015 0.54781 0.43859 0.0
N787 N 0.30521 0.54774 0.60891 0.0
C788 C 0.3078 0.46387 0.92411 0.0
O789 O 0.29876 0.46122 0.7973 0.0
O790 O 0.29101 0.47525 1.1351 0.0
Zn791 Zn 0.31925 0.49215 0.63563 0.0
N792 N 0.27147 0.50414 0.46591 0.0
C793 C 0.25715 0.53745 0.6961 0.0
C794 C 0.26998 0.53004 0.62515 0.0
C795 C 0.26062 0.48527 0.37441 0.0
N796 N 0.24632 0.51863 0.60509 0.0
C797 C 0.24763 0.49257 0.4455 0.0
O798 O 0.31558 0.41331 0.55229 0.0
C799 C 0.30479 0.38713 0.52038 0.0
O800 O 0.29386 0.41164 0.48425 0.0
H801 H 0.27869 0.54359 0.69888 0.0
H802 H 0.26221 0.46372 0.25014 0.0
C803 C 0.34828 0.51191 0.59032 0.0
C804 C 0.35976 0.52321 0.48546 0.0
C805 C 0.34575 0.54278 0.23818 0.0
C806 C 0.33445 0.53318 0.34332 0.0
N807 N 0.33583 0.51626 0.51581 0.0
N808 N 0.35814 0.53774 0.31148 0.0
H809 H 0.34923 0.49883 0.72795 0.0
C810 C 0.30309 0.46183 1.10318 0.0
O811 O 0.31179 0.45708 0.23287 0.0
O812 O 0.31974 0.47964 0.89043 0.0
H813 H 0.32467 0.53851 0.28529 0.0
H814 H 0.25582 0.55721 0.824 0.0
H815 H 0.34469 0.55508 1.09998 0.0
Zn816 Zn 0.56924 0.97224 0.38548 0.0
C817 C 0.55147 0.86497 1.1236 0.0
N818 N 0.55333 0.83126 0.27362 0.0
C819 C 0.55521 0.86497 0.42341 0.0
N820 N 0.55521 0.91666 0.35804 0.0
N821 N 0.55152 0.91667 0.18769 0.0
C822 C 0.55304 0.00264 0.85277 0.0
O823 O 0.56175 0.00746 0.98241 0.0
O824 O 0.5697 -0.01528 0.64027 0.0
Zn825 Zn 0.5395 0.97726 1.1366 0.0
N826 N 0.58583 0.94819 0.26578 0.0
C827 C 0.59576 0.92184 0.98802 0.0
C828 C 0.58446 0.93142 1.09315 0.0
C829 C 0.59828 0.95244 0.3404 0.0
N830 N 0.60814 0.92677 1.06143 0.0
C831 C 0.60977 0.94118 0.23552 0.0
O832 O 0.54385 0.05282 0.23403 0.0
C833 C 0.55478 0.07729 0.27027 0.0
O834 O 0.56557 0.05108 0.30215 0.0
H835 H 0.57468 0.92617 1.03501 0.0
H836 H 0.59923 0.96543 0.47813 0.0
C837 C 0.51061 0.97904 1.12441 0.0
C838 C 0.49762 0.97173 0.19559 0.0
C839 C 0.50717 0.92704 0.44649 0.0
C840 C 0.51999 0.93445 0.37544 0.0
N841 N 0.52147 0.96027 0.21601 0.0
N842 N 0.49632 0.94577 0.35538 0.0
H843 H 0.51219 0.00052 0.99996 0.0
C844 C 0.55776 0.00049 0.67372 0.0
O845 O 0.54872 0.00307 0.54682 0.0
O846 O 0.54096 -0.01075 0.88483 0.0
H847 H 0.52871 0.92099 0.44923 0.0
H848 H 0.5947 0.90963 0.84973 0.0
H849 H 0.50585 0.90736 0.57453 0.0
Zn850 Zn 0.66391 0.24203 0.38574 0.0
C851 C 0.68168 0.34932 1.12374 0.0
N852 N 0.67982 0.38303 0.27375 0.0
C853 C 0.67793 0.34932 0.42358 0.0
N854 N 0.67793 0.29763 0.35823 0.0
N855 N 0.68163 0.29762 0.18786 0.0
C856 C 0.68011 0.21166 0.85292 0.0
O857 O 0.67141 0.20682 0.98262 0.0
O858 O 0.66345 0.22955 0.64053 0.0
Zn859 Zn 0.69365 0.23704 1.13668 0.0
N860 N 0.64731 0.26608 0.26605 0.0
C861 C 0.6374 0.29241 0.98823 0.0
C862 C 0.6487 0.28285 1.09341 0.0
C863 C 0.63486 0.26183 0.34064 0.0
N864 N 0.62502 0.28748 1.06161 0.0
C865 C 0.62338 0.27308 0.23571 0.0
O866 O 0.6893 0.16148 0.23408 0.0
C867 C 0.67837 0.13699 0.27039 0.0
O868 O 0.66758 0.16319 0.3024 0.0
H869 H 0.65848 0.28811 1.03529 0.0
H870 H 0.63391 0.24886 0.47838 0.0
C871 C 0.72254 0.23524 1.12453 0.0
C872 C 0.73553 0.24254 0.19574 0.0
C873 C 0.72597 0.28726 0.44654 0.0
C874 C 0.71315 0.27986 0.37546 0.0
N875 N 0.71168 0.25403 0.21606 0.0
N876 N 0.73682 0.26852 0.3555 0.0
H877 H 0.72097 0.21375 1.00011 0.0
C878 C 0.67539 0.21379 0.67391 0.0
O879 O 0.68443 0.21121 0.54694 0.0
O880 O 0.69219 0.22507 0.88489 0.0
H881 H 0.70443 0.29334 0.44921 0.0
H882 H 0.63847 0.30462 0.84992 0.0
H883 H 0.72728 0.30695 0.57456 0.0
Zn884 Zn 0.53951 0.23721 0.41147 0.0
C885 C 0.55522 0.34946 1.12413 0.0
N886 N 0.55334 0.38318 0.27395 0.0
C887 C 0.55147 0.34948 0.42394 0.0
N888 N 0.5515 0.29781 0.35966 0.0
N889 N 0.55521 0.29774 0.18931 0.0
C890 C 0.5578 0.21388 0.8741 0.0
O891 O 0.54876 0.21124 1.00097 0.0
O892 O 0.541 0.22525 0.66321 0.0
Zn893 Zn 0.56925 0.24214 0.16249 0.0
N894 N 0.52147 0.25417 0.33245 0.0
C895 C 0.50716 0.28753 1.10231 0.0
C896 C 0.51998 0.28011 0.17325 0.0
C897 C 0.51062 0.23527 0.4239 0.0
N898 N 0.49632 0.26869 0.19327 0.0
C899 C 0.49763 0.24259 0.35281 0.0
O900 O 0.56557 0.1633 0.24582 0.0
C901 C 0.55478 0.13713 0.2778 0.0
O902 O 0.54385 0.16163 0.31405 0.0
H903 H 0.5287 0.29366 1.09953 0.0
H904 H 0.5122 0.21369 0.54814 0.0
C905 C 0.59828 0.26186 0.20782 0.0
C906 C 0.60976 0.27314 0.3127 0.0
C907 C 0.59574 0.29272 0.55994 0.0
C908 C 0.58444 0.28314 0.45478 0.0
N909 N 0.58583 0.26623 0.2823 0.0
N910 N 0.60813 0.28767 0.48667 0.0
H911 H 0.59924 0.24878 1.07019 0.0
C912 C 0.55309 0.21182 0.69506 0.0
O913 O 0.56179 0.20704 0.56532 0.0
O914 O 0.56974 0.22964 0.90768 0.0
H915 H 0.57466 0.28848 0.51281 0.0
H916 H 0.50584 0.30731 0.97444 0.0
H917 H 0.59467 0.30502 0.69814 0.0
Zn918 Zn 0.66391 0.97213 0.16258 0.0
C919 C 0.68168 0.86483 0.42439 0.0
N920 N 0.67982 0.83113 0.2744 0.0
C921 C 0.67793 0.86484 1.12458 0.0
N922 N 0.67794 0.91653 0.18992 0.0
N923 N 0.68164 0.91653 0.36027 0.0
C924 C 0.6801 0.00248 0.69524 0.0
O925 O 0.6714 0.00728 0.5656 0.0
O926 O 0.66344 -0.01538 0.9078 0.0
Zn927 Zn 0.69365 0.9771 0.41144 0.0
N928 N 0.64732 0.94808 0.28229 0.0
C929 C 0.63739 0.92169 0.55999 0.0
C930 C 0.64869 0.93126 0.45488 0.0
C931 C 0.63487 0.9524 0.2077 0.0
N932 N 0.62501 0.92668 0.48661 0.0
C933 C 0.62339 0.94115 0.31256 0.0
O934 O 0.6893 0.05266 0.31403 0.0
C935 C 0.67837 0.07716 0.27786 0.0
O936 O 0.66759 0.05097 0.24594 0.0
H937 H 0.65848 0.92597 0.51301 0.0
H938 H 0.63392 0.96543 1.07001 0.0
C939 C 0.72254 0.97898 0.42359 0.0
C940 C 0.73553 0.97165 0.35249 0.0
C941 C 0.726 0.92673 1.10201 0.0
C942 C 0.71318 0.93416 0.17297 0.0
N943 N 0.71169 0.9601 0.33216 0.0
N944 N 0.73684 0.94556 0.19295 0.0
H945 H 0.72096 0.00055 0.54783 0.0
C946 C 0.67539 0.00037 0.8743 0.0
O947 O 0.68443 0.00296 1.00119 0.0
O948 O 0.69219 -0.01092 0.66321 0.0
H949 H 0.70446 0.92061 1.09929 0.0
H950 H 0.63845 0.90944 0.69826 0.0
H951 H 0.72733 0.90695 0.97415 0.0
Zn952 Zn 0.4139 -0.00794 0.91252 0.0
C953 C 0.43168 0.09933 0.1743 0.0
N954 N 0.42982 0.13304 1.02429 0.0
C955 C 0.42793 0.09933 0.8745 0.0
N956 N 0.42793 0.04764 0.93987 0.0
N957 N 0.43163 0.04763 1.11022 0.0
C958 C 0.43009 0.96168 0.44522 0.0
O959 O 0.42139 0.95689 0.31557 0.0
O960 O 0.41343 0.97958 0.65774 0.0
Zn961 Zn 0.44364 -0.01296 0.1614 0.0
N962 N 0.39731 0.01614 1.03221 0.0
C963 C 0.38738 0.04254 0.30993 0.0
C964 C 0.39868 0.03295 0.2048 0.0
C965 C 0.38486 0.01187 0.95762 0.0
N966 N 0.375 0.03759 0.23656 0.0
C967 C 0.37337 0.02315 1.06251 0.0
O968 O 0.43929 0.91149 1.06405 0.0
C969 C 0.42836 0.88701 1.02785 0.0
O970 O 0.41757 0.91321 0.99591 0.0
H971 H 0.40847 0.0382 0.26292 0.0
H972 H 0.38391 -0.00113 0.81992 0.0
C973 C 0.47253 -0.01477 0.17361 0.0
C974 C 0.48552 -0.00748 1.1024 0.0
C975 C 0.47597 0.03718 0.85145 0.0
C976 C 0.46315 0.02979 0.92253 0.0
N977 N 0.46167 0.004 1.082 0.0
N978 N 0.48682 0.01846 0.94257 0.0
H979 H 0.47095 0.96377 0.29809 0.0
C980 C 0.42538 0.96381 0.62427 0.0
O981 O 0.43441 0.9612 0.75117 0.0
O982 O 0.44218 0.97506 0.41318 0.0
H983 H 0.45444 0.04326 0.84873 0.0
H984 H 0.38844 0.05478 0.4482 0.0
H985 H 0.47729 0.05685 0.72337 0.0
Zn986 Zn 0.31924 0.72226 0.91259 0.0
C987 C 0.30147 0.61497 0.17458 0.0
N988 N 0.30333 0.58126 1.02457 0.0
C989 C 0.30521 0.61497 0.87474 0.0
N990 N 0.30521 0.66667 0.94009 0.0
N991 N 0.30151 0.66667 1.11045 0.0
C992 C 0.30304 0.75264 0.44538 0.0
O993 O 0.31174 0.75748 0.31569 0.0
O994 O 0.3197 0.73474 0.65778 0.0
Zn995 Zn 0.2895 0.72725 0.16163 0.0
N996 N 0.33583 0.69821 1.03231 0.0
C997 C 0.34574 0.67187 0.31014 0.0
C998 C 0.33444 0.68144 0.20495 0.0
C999 C 0.34828 0.70247 0.95774 0.0
N1000 N 0.35812 0.67681 0.23678 0.0
C1001 C 0.35976 0.69122 1.06269 0.0
O1002 O 0.29384 0.80282 1.0642 0.0
C1003 C 0.30477 0.8273 1.02788 0.0
O1004 O 0.31556 0.80109 0.99589 0.0
H1005 H 0.32466 0.67618 0.26307 0.0
H1006 H 0.34924 0.71545 0.82001 0.0
C1007 C 0.26061 0.72904 0.17381 0.0
C1008 C 0.24762 0.72174 1.10261 0.0
C1009 C 0.25718 0.67703 0.85179 0.0
C1010 C 0.26999 0.68443 0.92285 0.0
N1011 N 0.27147 0.71026 1.08226 0.0
N1012 N 0.24633 0.69577 0.94285 0.0
H1013 H 0.26218 0.75053 0.29822 0.0
C1014 C 0.30775 0.7505 0.6244 0.0
O1015 O 0.29872 0.75308 0.75137 0.0
O1016 O 0.29095 0.73922 0.41341 0.0
H1017 H 0.27871 0.67096 0.84909 0.0
H1018 H 0.34467 0.65967 0.44845 0.0
H1019 H 0.25586 0.65734 0.72376 0.0
Zn1020 Zn 0.4139 0.72213 1.13578 0.0
C1021 C 0.43168 0.61483 0.87394 0.0
N1022 N 0.42981 0.58113 1.02396 0.0
C1023 C 0.42793 0.61484 0.17376 0.0
N1024 N 0.42793 0.66654 1.10839 0.0
N1025 N 0.43163 0.66654 0.93803 0.0
C1026 C 0.43009 0.75248 0.60301 0.0
O1027 O 0.42139 0.75729 0.73272 0.0
O1028 O 0.41343 0.73461 0.39057 0.0
Zn1029 Zn 0.44364 0.72712 0.88675 0.0
N1030 N 0.39731 0.69808 1.01607 0.0
C1031 C 0.3874 0.67168 0.73836 0.0
C1032 C 0.3987 0.68124 0.84351 0.0
C1033 C 0.38486 0.70242 1.0906 0.0
N1034 N 0.37501 0.67669 0.81168 0.0
C1035 C 0.37338 0.69117 0.9857 0.0
O1036 O 0.43929 0.80268 0.98412 0.0
C1037 C 0.42836 0.82717 1.02038 0.0
O1038 O 0.41757 0.80098 1.0524 0.0
H1039 H 0.40848 0.67594 0.78541 0.0
H1040 H 0.38391 0.71546 0.22826 0.0
C1041 C 0.47253 0.729 0.87462 0.0
C1042 C 0.48552 0.72169 0.94576 0.0
C1043 C 0.47598 0.6768 0.19633 0.0
C1044 C 0.46316 0.68422 1.12531 0.0
N1045 N 0.46168 0.71013 0.96606 0.0
N1046 N 0.48682 0.69562 1.10537 0.0
H1047 H 0.47096 0.75055 0.75032 0.0
C1048 C 0.42538 0.75037 0.42398 0.0
O1049 O 0.43441 0.75297 0.29703 0.0
O1050 O 0.44218 0.73909 0.63497 0.0
H1051 H 0.45444 0.67068 0.19901 0.0
H1052 H 0.38847 0.65942 0.60011 0.0
H1053 H 0.4773 0.65705 0.32424 0.0
Zn1054 Zn 0.2895 -0.01278 0.88687 0.0
C1055 C 0.30522 0.09946 0.17407 0.0
N1056 N 0.30334 0.13318 1.02424 0.0
C1057 C 0.30147 0.09949 0.87428 0.0
N1058 N 0.3015 0.04781 0.9386 0.0
N1059 N 0.3052 0.04774 1.10892 0.0
C1060 C 0.30779 0.96387 0.42412 0.0
O1061 O 0.29875 0.96124 0.29731 0.0
O1062 O 0.291 0.97528 0.63513 0.0
Zn1063 Zn 0.31924 -0.00787 1.13568 0.0
N1064 N 0.27146 0.0042 0.96597 0.0
C1065 C 0.25715 0.03757 0.19608 0.0
C1066 C 0.26997 0.03014 1.12514 0.0
C1067 C 0.26061 -0.0147 0.87455 0.0
N1068 N 0.24631 0.01873 1.10514 0.0
C1069 C 0.24762 -0.00738 0.94563 0.0
O1070 O 0.31556 0.91331 1.05232 0.0
C1071 C 0.30478 0.88713 1.02041 0.0
O1072 O 0.29385 0.91164 0.98427 0.0
H1073 H 0.27868 0.0437 0.19882 0.0
H1074 H 0.2622 0.96371 0.75033 0.0
C1075 C 0.34827 0.0119 1.09037 0.0
C1076 C 0.35976 0.02318 0.98549 0.0
C1077 C 0.34575 0.0427 0.73818 0.0
C1078 C 0.33444 0.03311 0.84333 0.0
N1079 N 0.33582 0.01623 1.01584 0.0
N1080 N 0.35813 0.03769 0.81149 0.0
H1081 H 0.34922 -0.00116 0.22802 0.0
C1082 C 0.30308 0.96183 0.6032 0.0
O1083 O 0.31178 0.95704 0.73287 0.0
O1084 O 0.31973 0.97962 0.39046 0.0
H1085 H 0.32466 0.03844 0.78528 0.0
H1086 H 0.25582 0.05736 0.32392 0.0
H1087 H 0.34468 0.05499 0.59995 0.0
loop_
_geom_bond_atom_site_label_1
_geom_bond_atom_site_label_2
_geom_bond_distance
_geom_bond_site_symmetry_2
_ccdc_geom_bond_type
Zn0 N4 2.020 . S
Zn0 O8 2.019 . S
Zn0 N10 2.119 . S
Zn0 O18 1.975 . S
C1 N2 1.334 . S
C1 N5 1.336 . S
N2 C1 1.334 . S
N2 C3 1.334 . S
C3 N2 1.334 . S
C3 N4 1.336 . S
N4 Zn0 2.020 . S
N4 C3 1.336 . S
N4 N5 1.354 . S
N5 C1 1.336 . S
N5 N4 1.354 . S
N5 Zn9 2.020 1_554 S
C6 O7 1.244 . S
C6 O30 1.257 . S
O7 C6 1.244 . S
O8 Zn0 2.019 . S
O8 C28 1.257 . S
Zn9 N5 2.020 1_556 S
Zn9 O16 1.975 . S
Zn9 N25 2.119 . S
Zn9 O30 2.019 . S
N10 Zn0 2.119 . S
N10 C12 1.334 . S
N10 C13 1.328 . S
C11 C12 1.391 . S
C11 N14 1.329 . S
C11 H32 0.930 1_554 S
C12 N10 1.334 . S
C12 C11 1.391 . S
C12 H19 0.930 . S
C13 N10 1.328 . S
C13 C15 1.392 . S
C13 H20 0.930 . S
N14 C11 1.329 . S
N14 C15 1.331 . S
C15 C13 1.392 . S
C15 N14 1.331 . S
O16 Zn9 1.975 . S
O16 C17 1.252 1_556 S
C17 O16 1.252 1_554 S
C17 O18 1.252 . S
O18 Zn0 1.975 . S
O18 C17 1.252 . S
H19 C12 0.930 . S
H20 C13 0.930 . S
C21 C22 1.392 . S
C21 N25 1.328 . S
C21 H27 0.930 . S
C22 C21 1.392 . S
C22 N26 1.331 1_556 S
C23 C24 1.391 . S
C23 N26 1.329 . S
C23 H33 0.930 . S
C24 C23 1.391 . S
C24 N25 1.334 1_554 S
C24 H31 0.930 . S
N25 Zn9 2.119 . S
N25 C21 1.328 . S
N25 C24 1.334 1_556 S
N26 C22 1.331 1_554 S
N26 C23 1.329 . S
H27 C21 0.930 . S
C28 O8 1.257 . S
C28 O29 1.244 . S
O29 C28 1.244 . S
O30 C6 1.257 . S
O30 Zn9 2.019 . S
H31 C24 0.930 . S
H32 C11 0.930 1_556 S
H33 C23 0.930 . S
Zn34 N38 2.020 . S
Zn34 O42 2.019 . S
Zn34 N44 2.119 . S
Zn34 O52 1.975 . S
C35 N36 1.334 . S
C35 N39 1.336 . S
N36 C35 1.334 . S
N36 C37 1.334 . S
C37 N36 1.334 . S
C37 N38 1.336 . S
N38 Zn34 2.020 . S
N38 C37 1.336 . S
N38 N39 1.354 . S
N39 C35 1.336 . S
N39 N38 1.354 . S
N39 Zn43 2.020 1_554 S
C40 O41 1.244 . S
C40 O64 1.257 . S
O41 C40 1.244 . S
O42 Zn34 2.019 . S
O42 C62 1.257 . S
Zn43 N39 2.020 1_556 S
Zn43 O50 1.975 . S
Zn43 N59 2.119 . S
Zn43 O64 2.019 . S
N44 Zn34 2.119 . S
N44 C46 1.334 . S
N44 C47 1.328 . S
C45 C46 1.391 . S
C45 N48 1.329 . S
C45 H66 0.930 1_554 S
C46 N44 1.334 . S
C46 C45 1.391 . S
C46 H53 0.930 . S
C47 N44 1.328 . S
C47 C49 1.392 . S
C47 H54 0.930 . S
N48 C45 1.329 . S
N48 C49 1.331 . S
C49 C47 1.392 . S
C49 N48 1.331 . S
O50 Zn43 1.975 . S
O50 C51 1.252 1_556 S
C51 O50 1.252 1_554 S
C51 O52 1.252 . S
O52 Zn34 1.975 . S
O52 C51 1.252 . S
H53 C46 0.930 . S
H54 C47 0.930 . S
C55 C56 1.392 . S
C55 N59 1.328 . S
C55 H61 0.930 . S
C56 C55 1.392 . S
C56 N60 1.331 1_556 S
C57 C58 1.391 . S
C57 N60 1.329 . S
C57 H67 0.930 . S
C58 C57 1.391 . S
C58 N59 1.334 1_554 S
C58 H65 0.930 . S
N59 Zn43 2.119 . S
N59 C55 1.328 . S
N59 C58 1.334 1_556 S
N60 C56 1.331 1_554 S
N60 C57 1.329 . S
H61 C55 0.930 . S
C62 O42 1.257 . S
C62 O63 1.244 . S
O63 C62 1.244 . S
O64 C40 1.257 . S
O64 Zn43 2.019 . S
H65 C58 0.930 . S
H66 C45 0.930 1_556 S
H67 C57 0.930 . S
Zn68 N72 2.020 . S
Zn68 O76 2.019 . S
Zn68 N78 2.119 . S
Zn68 O86 1.975 . S
C69 N70 1.334 . S
C69 N73 1.336 . S
N70 C69 1.334 . S
N70 C71 1.334 . S
C71 N70 1.334 . S
C71 N72 1.336 . S
N72 Zn68 2.020 . S
N72 C71 1.336 . S
N72 N73 1.354 . S
N73 C69 1.336 . S
N73 N72 1.354 . S
N73 Zn77 2.020 1_554 S
C74 O75 1.244 . S
C74 O98 1.257 . S
O75 C74 1.244 . S
O76 Zn68 2.019 . S
O76 C96 1.257 . S
Zn77 N73 2.020 1_556 S
Zn77 O84 1.975 1_556 S
Zn77 N93 2.119 1_556 S
Zn77 O98 2.019 . S
N78 Zn68 2.119 . S
N78 C80 1.334 . S
N78 C81 1.328 . S
C79 C80 1.391 . S
C79 N82 1.329 . S
C79 H100 0.930 1_554 S
C80 N78 1.334 . S
C80 C79 1.391 . S
C80 H87 0.930 . S
C81 N78 1.328 . S
C81 C83 1.392 . S
C81 H88 0.930 . S
N82 C79 1.329 . S
N82 C83 1.331 . S
C83 C81 1.392 . S
C83 N82 1.331 . S
O84 Zn77 1.975 1_554 S
O84 C85 1.252 . S
C85 O84 1.252 . S
C85 O86 1.252 . S
O86 Zn68 1.975 . S
O86 C85 1.252 . S
H87 C80 0.930 . S
H88 C81 0.930 . S
C89 C90 1.392 . S
C89 N93 1.328 1_556 S
C89 H95 0.930 . S
C90 C89 1.392 . S
C90 N94 1.331 1_556 S
C91 C92 1.391 . S
C91 N94 1.329 . S
C91 H101 0.930 . S
C92 C91 1.391 . S
C92 N93 1.334 . S
C92 H99 0.930 . S
N93 Zn77 2.119 1_554 S
N93 C89 1.328 1_554 S
N93 C92 1.334 . S
N94 C90 1.331 1_554 S
N94 C91 1.329 . S
H95 C89 0.930 . S
C96 O76 1.257 . S
C96 O97 1.244 . S
O97 C96 1.244 . S
O98 C74 1.257 . S
O98 Zn77 2.019 . S
H99 C92 0.930 . S
H100 C79 0.930 1_556 S
H101 C91 0.930 . S
Zn102 N106 2.020 1_556 S
Zn102 O110 2.019 . S
Zn102 N112 2.119 1_556 S
Zn102 O120 1.975 1_556 S
C103 N104 1.334 . S
C103 N107 1.336 . S
N104 C103 1.334 . S
N104 C105 1.334 . S
C105 N104 1.334 . S
C105 N106 1.336 . S
N106 Zn102 2.020 1_554 S
N106 C105 1.336 . S
N106 N107 1.354 . S
N107 C103 1.336 . S
N107 N106 1.354 . S
N107 Zn111 2.020 . S
C108 O109 1.244 . S
C108 O132 1.257 . S
O109 C108 1.244 . S
O110 Zn102 2.019 . S
O110 C130 1.257 . S
Zn111 N107 2.020 . S
Zn111 O118 1.975 . S
Zn111 N127 2.119 . S
Zn111 O132 2.019 . S
N112 Zn102 2.119 1_554 S
N112 C114 1.334 . S
N112 C115 1.328 1_554 S
C113 C114 1.391 . S
C113 N116 1.329 . S
C113 H134 0.930 . S
C114 N112 1.334 . S
C114 C113 1.391 . S
C114 H121 0.930 . S
C115 N112 1.328 1_556 S
C115 C117 1.392 . S
C115 H122 0.930 . S
N116 C113 1.329 . S
N116 C117 1.331 1_554 S
C117 C115 1.392 . S
C117 N116 1.331 1_556 S
O118 Zn111 1.975 . S
O118 C119 1.252 . S
C119 O118 1.252 . S
C119 O120 1.252 . S
O120 Zn102 1.975 1_554 S
O120 C119 1.252 . S
H121 C114 0.930 . S
H122 C115 0.930 . S
C123 C124 1.392 . S
C123 N127 1.328 . S
C123 H129 0.930 . S
C124 C123 1.392 . S
C124 N128 1.331 . S
C125 C126 1.391 . S
C125 N128 1.329 . S
C125 H135 0.930 1_554 S
C126 C125 1.391 . S
C126 N127 1.334 . S
C126 H133 0.930 . S
N127 Zn111 2.119 . S
N127 C123 1.328 . S
N127 C126 1.334 . S
N128 C124 1.331 . S
N128 C125 1.329 . S
H129 C123 0.930 . S
C130 O110 1.257 . S
C130 O131 1.244 . S
O131 C130 1.244 . S
O132 C108 1.257 . S
O132 Zn111 2.019 . S
H133 C126 0.930 . S
H134 C113 0.930 . S
H135 C125 0.930 1_556 S
Zn136 N140 2.020 . S
Zn136 O144 2.019 . S
Zn136 N146 2.119 . S
Zn136 O154 1.975 . S
C137 N138 1.334 . S
C137 N141 1.336 . S
N138 C137 1.334 . S
N138 C139 1.334 . S
C139 N138 1.334 . S
C139 N140 1.336 . S
N140 Zn136 2.020 . S
N140 C139 1.336 . S
N140 N141 1.354 . S
N141 C137 1.336 . S
N141 N140 1.354 . S
N141 Zn145 2.020 1_556 S
C142 O143 1.244 . S
C142 O166 1.257 . S
O143 C142 1.244 . S
O144 Zn136 2.019 . S
O144 C164 1.257 . S
Zn145 N141 2.020 1_554 S
Zn145 O152 1.975 . S
Zn145 N161 2.119 . S
Zn145 O166 2.019 . S
N146 Zn136 2.119 . S
N146 C148 1.334 . S
N146 C149 1.328 . S
C147 C148 1.391 . S
C147 N150 1.329 . S
C147 H168 0.930 1_556 S
C148 N146 1.334 . S
C148 C147 1.391 . S
C148 H155 0.930 . S
C149 N146 1.328 . S
C149 C151 1.392 . S
C149 H156 0.930 . S
N150 C147 1.329 . S
N150 C151 1.331 . S
C151 C149 1.392 . S
C151 N150 1.331 . S
O152 Zn145 1.975 . S
O152 C153 1.252 1_554 S
C153 O152 1.252 1_556 S
C153 O154 1.252 . S
O154 Zn136 1.975 . S
O154 C153 1.252 . S
H155 C148 0.930 . S
H156 C149 0.930 . S
C157 C158 1.392 . S
C157 N161 1.328 . S
C157 H163 0.930 . S
C158 C157 1.392 . S
C158 N162 1.331 1_554 S
C159 C160 1.391 . S
C159 N162 1.329 . S
C159 H169 0.930 . S
C160 C159 1.391 . S
C160 N161 1.334 1_556 S
C160 H167 0.930 . S
N161 Zn145 2.119 . S
N161 C157 1.328 . S
N161 C160 1.334 1_554 S
N162 C158 1.331 1_556 S
N162 C159 1.329 . S
H163 C157 0.930 . S
C164 O144 1.257 . S
C164 O165 1.244 . S
O165 C164 1.244 . S
O166 C142 1.257 . S
O166 Zn145 2.019 . S
H167 C160 0.930 . S
H168 C147 0.930 1_554 S
H169 C159 0.930 . S
Zn170 N174 2.020 . S
Zn170 O178 2.019 . S
Zn170 N180 2.119 . S
Zn170 O188 1.975 . S
C171 N172 1.334 . S
C171 N175 1.336 . S
N172 C171 1.334 . S
N172 C173 1.334 . S
C173 N172 1.334 . S
C173 N174 1.336 . S
N174 Zn170 2.020 . S
N174 C173 1.336 . S
N174 N175 1.354 . S
N175 C171 1.336 . S
N175 N174 1.354 . S
N175 Zn179 2.020 1_556 S
C176 O177 1.244 . S
C176 O200 1.257 . S
O177 C176 1.244 . S
O178 Zn170 2.019 . S
O178 C198 1.257 . S
Zn179 N175 2.020 1_554 S
Zn179 O186 1.975 . S
Zn179 N195 2.119 . S
Zn179 O200 2.019 . S
N180 Zn170 2.119 . S
N180 C182 1.334 . S
N180 C183 1.328 . S
C181 C182 1.391 . S
C181 N184 1.329 . S
C181 H202 0.930 1_556 S
C182 N180 1.334 . S
C182 C181 1.391 . S
C182 H189 0.930 . S
C183 N180 1.328 . S
C183 C185 1.392 . S
C183 H190 0.930 . S
N184 C181 1.329 . S
N184 C185 1.331 . S
C185 C183 1.392 . S
C185 N184 1.331 . S
O186 Zn179 1.975 . S
O186 C187 1.252 1_554 S
C187 O186 1.252 1_556 S
C187 O188 1.252 . S
O188 Zn170 1.975 . S
O188 C187 1.252 . S
H189 C182 0.930 . S
H190 C183 0.930 . S
C191 C192 1.392 . S
C191 N195 1.328 . S
C191 H197 0.930 . S
C192 C191 1.392 . S
C192 N196 1.331 1_554 S
C193 C194 1.391 . S
C193 N196 1.329 . S
C193 H203 0.930 . S
C194 C193 1.391 . S
C194 N195 1.334 1_556 S
C194 H201 0.930 . S
N195 Zn179 2.119 . S
N195 C191 1.328 . S
N195 C194 1.334 1_554 S
N196 C192 1.331 1_556 S
N196 C193 1.329 . S
H197 C191 0.930 . S
C198 O178 1.257 . S
C198 O199 1.244 . S
O199 C198 1.244 . S
O200 C176 1.257 . S
O200 Zn179 2.019 . S
H201 C194 0.930 . S
H202 C181 0.930 1_554 S
H203 C193 0.930 . S
Zn204 N208 2.020 1_554 S
Zn204 O212 2.019 . S
Zn204 N214 2.119 1_554 S
Zn204 O222 1.975 1_554 S
C205 N206 1.334 . S
C205 N209 1.336 . S
N206 C205 1.334 . S
N206 C207 1.334 . S
C207 N206 1.334 . S
C207 N208 1.336 . S
N208 Zn204 2.020 1_556 S
N208 C207 1.336 . S
N208 N209 1.354 . S
N209 C205 1.336 . S
N209 N208 1.354 . S
N209 Zn213 2.020 . S
C210 O211 1.244 . S
C210 O234 1.257 . S
O211 C210 1.244 . S
O212 Zn204 2.019 . S
O212 C232 1.257 . S
Zn213 N209 2.020 . S
Zn213 O220 1.975 . S
Zn213 N229 2.119 . S
Zn213 O234 2.019 . S
N214 Zn204 2.119 1_556 S
N214 C216 1.334 . S
N214 C217 1.328 1_556 S
C215 C216 1.391 . S
C215 N218 1.329 . S
C215 H236 0.930 . S
C216 N214 1.334 . S
C216 C215 1.391 . S
C216 H223 0.930 . S
C217 N214 1.328 1_554 S
C217 C219 1.392 . S
C217 H224 0.930 . S
N218 C215 1.329 . S
N218 C219 1.331 1_556 S
C219 C217 1.392 . S
C219 N218 1.331 1_554 S
O220 Zn213 1.975 . S
O220 C221 1.252 . S
C221 O220 1.252 . S
C221 O222 1.252 . S
O222 Zn204 1.975 1_556 S
O222 C221 1.252 . S
H223 C216 0.930 . S
H224 C217 0.930 . S
C225 C226 1.392 . S
C225 N229 1.328 . S
C225 H231 0.930 . S
C226 C225 1.392 . S
C226 N230 1.331 . S
C227 C228 1.391 . S
C227 N230 1.329 . S
C227 H237 0.930 1_556 S
C228 C227 1.391 . S
C228 N229 1.334 . S
C228 H235 0.930 . S
N229 Zn213 2.119 . S
N229 C225 1.328 . S
N229 C228 1.334 . S
N230 C226 1.331 . S
N230 C227 1.329 . S
H231 C225 0.930 . S
C232 O212 1.257 . S
C232 O233 1.244 . S
O233 C232 1.244 . S
O234 C210 1.257 . S
O234 Zn213 2.019 . S
H235 C228 0.930 . S
H236 C215 0.930 . S
H237 C227 0.930 1_554 S
Zn238 N242 2.020 1_554 S
Zn238 O246 2.019 . S
Zn238 N248 2.119 1_554 S
Zn238 O256 1.975 1_554 S
C239 N240 1.334 . S
C239 N243 1.336 . S
N240 C239 1.334 . S
N240 C241 1.334 . S
C241 N240 1.334 . S
C241 N242 1.336 . S
N242 Zn238 2.020 1_556 S
N242 C241 1.336 . S
N242 N243 1.354 . S
N243 C239 1.336 . S
N243 N242 1.354 . S
N243 Zn247 2.020 . S
C244 O245 1.244 . S
C244 O268 1.257 . S
O245 C244 1.244 . S
O246 Zn238 2.019 . S
O246 C266 1.257 . S
Zn247 N243 2.020 . S
Zn247 O254 1.975 . S
Zn247 N263 2.119 . S
Zn247 O268 2.019 . S
N248 Zn238 2.119 1_556 S
N248 C250 1.334 . S
N248 C251 1.328 1_556 S
C249 C250 1.391 . S
C249 N252 1.329 . S
C249 H270 0.930 . S
C250 N248 1.334 . S
C250 C249 1.391 . S
C250 H257 0.930 . S
C251 N248 1.328 1_554 S
C251 C253 1.392 . S
C251 H258 0.930 . S
N252 C249 1.329 . S
N252 C253 1.331 1_556 S
C253 C251 1.392 . S
C253 N252 1.331 1_554 S
O254 Zn247 1.975 . S
O254 C255 1.252 . S
C255 O254 1.252 . S
C255 O256 1.252 . S
O256 Zn238 1.975 1_556 S
O256 C255 1.252 . S
H257 C250 0.930 . S
H258 C251 0.930 . S
C259 C260 1.392 . S
C259 N263 1.328 . S
C259 H265 0.930 . S
C260 C259 1.392 . S
C260 N264 1.331 . S
C261 C262 1.391 . S
C261 N264 1.329 . S
C261 H271 0.930 1_556 S
C262 C261 1.391 . S
C262 N263 1.334 . S
C262 H269 0.930 . S
N263 Zn247 2.119 . S
N263 C259 1.328 . S
N263 C262 1.334 . S
N264 C260 1.331 . S
N264 C261 1.329 . S
H265 C259 0.930 . S
C266 O246 1.257 . S
C266 O267 1.244 . S
O267 C266 1.244 . S
O268 C244 1.257 . S
O268 Zn247 2.019 . S
H269 C262 0.930 . S
H270 C249 0.930 . S
H271 C261 0.930 1_554 S
Zn272 N276 2.020 . S
Zn272 O280 2.019 1_565 S
Zn272 N282 2.119 1_565 S
Zn272 O290 1.975 1_565 S
C273 N274 1.334 . S
C273 N277 1.336 . S
N274 C273 1.334 . S
N274 C275 1.334 . S
C275 N274 1.334 . S
C275 N276 1.336 . S
N276 Zn272 2.020 . S
N276 C275 1.336 . S
N276 N277 1.354 . S
N277 C273 1.336 . S
N277 N276 1.354 . S
N277 Zn281 2.020 . S
C278 O279 1.244 1_545 S
C278 O302 1.257 . S
O279 C278 1.244 1_565 S
O280 Zn272 2.019 1_545 S
O280 C300 1.257 1_556 S
Zn281 N277 2.020 . S
Zn281 O288 1.975 1_565 S
Zn281 N297 2.119 1_565 S
Zn281 O302 2.019 1_565 S
N282 Zn272 2.119 1_545 S
N282 C284 1.334 . S
N282 C285 1.328 . S
C283 C284 1.391 . S
C283 N286 1.329 . S
C283 H304 0.930 . S
C284 N282 1.334 . S
C284 C283 1.391 . S
C284 H291 0.930 . S
C285 N282 1.328 . S
C285 C287 1.392 . S
C285 H292 0.930 . S
N286 C283 1.329 . S
N286 C287 1.331 . S
C287 C285 1.392 . S
C287 N286 1.331 . S
O288 Zn281 1.975 1_545 S
O288 C289 1.252 . S
C289 O288 1.252 . S
C289 O290 1.252 . S
O290 Zn272 1.975 1_545 S
O290 C289 1.252 . S
H291 C284 0.930 . S
H292 C285 0.930 . S
C293 C294 1.392 . S
C293 N297 1.328 . S
C293 H299 0.930 . S
C294 C293 1.392 . S
C294 N298 1.331 . S
C295 C296 1.391 . S
C295 N298 1.329 . S
C295 H305 0.930 . S
C296 C295 1.391 . S
C296 N297 1.334 . S
C296 H303 0.930 . S
N297 Zn281 2.119 1_545 S
N297 C293 1.328 . S
N297 C296 1.334 . S
N298 C294 1.331 . S
N298 C295 1.329 . S
H299 C293 0.930 . S
C300 O280 1.257 1_554 S
C300 O301 1.244 1_544 S
O301 C300 1.244 1_566 S
O302 C278 1.257 . S
O302 Zn281 2.019 1_545 S
H303 C296 0.930 . S
H304 C283 0.930 . S
H305 C295 0.930 . S
Zn306 N310 2.020 . S
Zn306 O314 2.019 . S
Zn306 N316 2.119 . S
Zn306 O324 1.975 . S
C307 N308 1.334 . S
C307 N311 1.336 . S
N308 C307 1.334 . S
N308 C309 1.334 . S
C309 N308 1.334 . S
C309 N310 1.336 . S
N310 Zn306 2.020 . S
N310 C309 1.336 . S
N310 N311 1.354 . S
N311 C307 1.336 . S
N311 N310 1.354 . S
N311 Zn315 2.020 . S
C312 O313 1.244 . S
C312 O336 1.257 . S
O313 C312 1.244 . S
O314 Zn306 2.019 . S
O314 C334 1.257 1_556 S
Zn315 N311 2.020 . S
Zn315 O322 1.975 . S
Zn315 N331 2.119 . S
Zn315 O336 2.019 . S
N316 Zn306 2.119 . S
N316 C318 1.334 . S
N316 C319 1.328 . S
C317 C318 1.391 . S
C317 N320 1.329 . S
C317 H338 0.930 . S
C318 N316 1.334 . S
C318 C317 1.391 . S
C318 H325 0.930 . S
C319 N316 1.328 . S
C319 C321 1.392 . S
C319 H326 0.930 . S
N320 C317 1.329 . S
N320 C321 1.331 . S
C321 C319 1.392 . S
C321 N320 1.331 . S
O322 Zn315 1.975 . S
O322 C323 1.252 . S
C323 O322 1.252 . S
C323 O324 1.252 . S
O324 Zn306 1.975 . S
O324 C323 1.252 . S
H325 C318 0.930 . S
H326 C319 0.930 . S
C327 C328 1.392 . S
C327 N331 1.328 . S
C327 H333 0.930 . S
C328 C327 1.392 . S
C328 N332 1.331 . S
C329 C330 1.391 . S
C329 N332 1.329 . S
C329 H339 0.930 . S
C330 C329 1.391 . S
C330 N331 1.334 . S
C330 H337 0.930 . S
N331 Zn315 2.119 . S
N331 C327 1.328 . S
N331 C330 1.334 . S
N332 C328 1.331 . S
N332 C329 1.329 . S
H333 C327 0.930 . S
C334 O314 1.257 1_554 S
C334 O335 1.244 1_554 S
O335 C334 1.244 1_556 S
O336 C312 1.257 . S
O336 Zn315 2.019 . S
H337 C330 0.930 . S
H338 C317 0.930 . S
H339 C329 0.930 . S
Zn340 N344 2.020 . S
Zn340 O348 2.019 1_556 S
Zn340 N350 2.119 . S
Zn340 O358 1.975 . S
C341 N342 1.334 . S
C341 N345 1.336 . S
N342 C341 1.334 . S
N342 C343 1.334 . S
C343 N342 1.334 . S
C343 N344 1.336 . S
N344 Zn340 2.020 . S
N344 C343 1.336 . S
N344 N345 1.354 . S
N345 C341 1.336 . S
N345 N344 1.354 . S
N345 Zn349 2.020 . S
C346 O347 1.244 . S
C346 O370 1.257 . S
O347 C346 1.244 . S
O348 Zn340 2.019 1_554 S
O348 C368 1.257 . S
Zn349 N345 2.020 . S
Zn349 O356 1.975 . S
Zn349 N365 2.119 . S
Zn349 O370 2.019 . S
N350 Zn340 2.119 . S
N350 C352 1.334 . S
N350 C353 1.328 . S
C351 C352 1.391 . S
C351 N354 1.329 . S
C351 H372 0.930 . S
C352 N350 1.334 . S
C352 C351 1.391 . S
C352 H359 0.930 . S
C353 N350 1.328 . S
C353 C355 1.392 . S
C353 H360 0.930 . S
N354 C351 1.329 . S
N354 C355 1.331 . S
C355 C353 1.392 . S
C355 N354 1.331 . S
O356 Zn349 1.975 . S
O356 C357 1.252 . S
C357 O356 1.252 . S
C357 O358 1.252 . S
O358 Zn340 1.975 . S
O358 C357 1.252 . S
H359 C352 0.930 . S
H360 C353 0.930 . S
C361 C362 1.392 . S
C361 N365 1.328 . S
C361 H367 0.930 . S
C362 C361 1.392 . S
C362 N366 1.331 . S
C363 C364 1.391 . S
C363 N366 1.329 . S
C363 H373 0.930 . S
C364 C363 1.391 . S
C364 N365 1.334 . S
C364 H371 0.930 . S
N365 Zn349 2.119 . S
N365 C361 1.328 . S
N365 C364 1.334 . S
N366 C362 1.331 . S
N366 C363 1.329 . S
H367 C361 0.930 . S
C368 O348 1.257 . S
C368 O369 1.244 . S
O369 C368 1.244 . S
O370 C346 1.257 . S
O370 Zn349 2.019 . S
H371 C364 0.930 . S
H372 C351 0.930 . S
H373 C363 0.930 . S
Zn374 N378 2.020 . S
Zn374 O382 2.019 1_566 S
Zn374 N384 2.119 1_565 S
Zn374 O392 1.975 1_565 S
C375 N376 1.334 . S
C375 N379 1.336 . S
N376 C375 1.334 . S
N376 C377 1.334 . S
C377 N376 1.334 . S
C377 N378 1.336 . S
N378 Zn374 2.020 . S
N378 C377 1.336 . S
N378 N379 1.354 . S
N379 C375 1.336 . S
N379 N378 1.354 . S
N379 Zn383 2.020 . S
C380 O381 1.244 1_545 S
C380 O404 1.257 . S
O381 C380 1.244 1_565 S
O382 Zn374 2.019 1_544 S
O382 C402 1.257 . S
Zn383 N379 2.020 . S
Zn383 O390 1.975 1_565 S
Zn383 N399 2.119 1_565 S
Zn383 O404 2.019 1_565 S
N384 Zn374 2.119 1_545 S
N384 C386 1.334 . S
N384 C387 1.328 . S
C385 C386 1.391 . S
C385 N388 1.329 . S
C385 H406 0.930 . S
C386 N384 1.334 . S
C386 C385 1.391 . S
C386 H393 0.930 . S
C387 N384 1.328 . S
C387 C389 1.392 . S
C387 H394 0.930 . S
N388 C385 1.329 . S
N388 C389 1.331 . S
C389 C387 1.392 . S
C389 N388 1.331 . S
O390 Zn383 1.975 1_545 S
O390 C391 1.252 . S
C391 O390 1.252 . S
C391 O392 1.252 . S
O392 Zn374 1.975 1_545 S
O392 C391 1.252 . S
H393 C386 0.930 . S
H394 C387 0.930 . S
C395 C396 1.392 . S
C395 N399 1.328 . S
C395 H401 0.930 . S
C396 C395 1.392 . S
C396 N400 1.331 . S
C397 C398 1.391 . S
C397 N400 1.329 . S
C397 H407 0.930 . S
C398 C397 1.391 . S
C398 N399 1.334 . S
C398 H405 0.930 . S
N399 Zn383 2.119 1_545 S
N399 C395 1.328 . S
N399 C398 1.334 . S
N400 C396 1.331 . S
N400 C397 1.329 . S
H401 C395 0.930 . S
C402 O382 1.257 . S
C402 O403 1.244 1_545 S
O403 C402 1.244 1_565 S
O404 C380 1.257 . S
O404 Zn383 2.019 1_545 S
H405 C398 0.930 . S
H406 C385 0.930 . S
H407 C397 0.930 . S
Zn408 N412 2.020 . S
Zn408 O416 2.019 1_545 S
Zn408 N418 2.119 1_545 S
Zn408 O426 1.975 1_545 S
C409 N410 1.334 . S
C409 N413 1.336 . S
N410 C409 1.334 . S
N410 C411 1.334 . S
C411 N410 1.334 . S
C411 N412 1.336 . S
N412 Zn408 2.020 . S
N412 C411 1.336 . S
N412 N413 1.354 . S
N413 C409 1.336 . S
N413 N412 1.354 . S
N413 Zn417 2.020 . S
C414 O415 1.244 1_565 S
C414 O438 1.257 . S
O415 C414 1.244 1_545 S
O416 Zn408 2.019 1_565 S
O416 C436 1.257 1_554 S
Zn417 N413 2.020 . S
Zn417 O424 1.975 1_545 S
Zn417 N433 2.119 1_545 S
Zn417 O438 2.019 1_545 S
N418 Zn408 2.119 1_565 S
N418 C420 1.334 . S
N418 C421 1.328 . S
C419 C420 1.391 . S
C419 N422 1.329 . S
C419 H440 0.930 . S
C420 N418 1.334 . S
C420 C419 1.391 . S
C420 H427 0.930 . S
C421 N418 1.328 . S
C421 C423 1.392 . S
C421 H428 0.930 . S
N422 C419 1.329 . S
N422 C423 1.331 . S
C423 C421 1.392 . S
C423 N422 1.331 . S
O424 Zn417 1.975 1_565 S
O424 C425 1.252 . S
C425 O424 1.252 . S
C425 O426 1.252 . S
O426 Zn408 1.975 1_565 S
O426 C425 1.252 . S
H427 C420 0.930 . S
H428 C421 0.930 . S
C429 C430 1.392 . S
C429 N433 1.328 . S
C429 H435 0.930 . S
C430 C429 1.392 . S
C430 N434 1.331 . S
C431 C432 1.391 . S
C431 N434 1.329 . S
C431 H441 0.930 . S
C432 C431 1.391 . S
C432 N433 1.334 . S
C432 H439 0.930 . S
N433 Zn417 2.119 1_565 S
N433 C429 1.328 . S
N433 C432 1.334 . S
N434 C430 1.331 . S
N434 C431 1.329 . S
H435 C429 0.930 . S
C436 O416 1.257 1_556 S
C436 O437 1.244 1_566 S
O437 C436 1.244 1_544 S
O438 C414 1.257 . S
O438 Zn417 2.019 1_565 S
H439 C432 0.930 . S
H440 C419 0.930 . S
H441 C431 0.930 . S
Zn442 N446 2.020 . S
Zn442 O450 2.019 . S
Zn442 N452 2.119 . S
Zn442 O460 1.975 . S
C443 N444 1.334 . S
C443 N447 1.336 . S
N444 C443 1.334 . S
N444 C445 1.334 . S
C445 N444 1.334 . S
C445 N446 1.336 . S
N446 Zn442 2.020 . S
N446 C445 1.336 . S
N446 N447 1.354 . S
N447 C443 1.336 . S
N447 N446 1.354 . S
N447 Zn451 2.020 . S
C448 O449 1.244 . S
C448 O472 1.257 . S
O449 C448 1.244 . S
O450 Zn442 2.019 . S
O450 C470 1.257 1_554 S
Zn451 N447 2.020 . S
Zn451 O458 1.975 . S
Zn451 N467 2.119 . S
Zn451 O472 2.019 . S
N452 Zn442 2.119 . S
N452 C454 1.334 . S
N452 C455 1.328 . S
C453 C454 1.391 . S
C453 N456 1.329 . S
C453 H474 0.930 . S
C454 N452 1.334 . S
C454 C453 1.391 . S
C454 H461 0.930 . S
C455 N452 1.328 . S
C455 C457 1.392 . S
C455 H462 0.930 . S
N456 C453 1.329 . S
N456 C457 1.331 . S
C457 C455 1.392 . S
C457 N456 1.331 . S
O458 Zn451 1.975 . S
O458 C459 1.252 . S
C459 O458 1.252 . S
C459 O460 1.252 . S
O460 Zn442 1.975 . S
O460 C459 1.252 . S
H461 C454 0.930 . S
H462 C455 0.930 . S
C463 C464 1.392 . S
C463 N467 1.328 . S
C463 H469 0.930 . S
C464 C463 1.392 . S
C464 N468 1.331 . S
C465 C466 1.391 . S
C465 N468 1.329 . S
C465 H475 0.930 . S
C466 C465 1.391 . S
C466 N467 1.334 . S
C466 H473 0.930 . S
N467 Zn451 2.119 . S
N467 C463 1.328 . S
N467 C466 1.334 . S
N468 C464 1.331 . S
N468 C465 1.329 . S
H469 C463 0.930 . S
C470 O450 1.257 1_556 S
C470 O471 1.244 1_556 S
O471 C470 1.244 1_554 S
O472 C448 1.257 . S
O472 Zn451 2.019 . S
H473 C466 0.930 . S
H474 C453 0.930 . S
H475 C465 0.930 . S
Zn476 N480 2.020 . S
Zn476 O484 2.019 . S
Zn476 N486 2.119 . S
Zn476 O494 1.975 . S
C477 N478 1.334 . S
C477 N481 1.336 . S
N478 C477 1.334 . S
N478 C479 1.334 . S
C479 N478 1.334 . S
C479 N480 1.336 . S
N480 Zn476 2.020 . S
N480 C479 1.336 . S
N480 N481 1.354 . S
N481 C477 1.336 . S
N481 N480 1.354 . S
N481 Zn485 2.020 . S
C482 O483 1.244 . S
C482 O506 1.257 . S
O483 C482 1.244 . S
O484 Zn476 2.019 . S
O484 C504 1.257 . S
Zn485 N481 2.020 . S
Zn485 O492 1.975 . S
Zn485 N501 2.119 . S
Zn485 O506 2.019 1_554 S
N486 Zn476 2.119 . S
N486 C488 1.334 . S
N486 C489 1.328 . S
C487 C488 1.391 . S
C487 N490 1.329 . S
C487 H508 0.930 . S
C488 N486 1.334 . S
C488 C487 1.391 . S
C488 H495 0.930 . S
C489 N486 1.328 . S
C489 C491 1.392 . S
C489 H496 0.930 . S
N490 C487 1.329 . S
N490 C491 1.331 . S
C491 C489 1.392 . S
C491 N490 1.331 . S
O492 Zn485 1.975 . S
O492 C493 1.252 . S
C493 O492 1.252 . S
C493 O494 1.252 . S
O494 Zn476 1.975 . S
O494 C493 1.252 . S
H495 C488 0.930 . S
H496 C489 0.930 . S
C497 C498 1.392 . S
C497 N501 1.328 . S
C497 H503 0.930 . S
C498 C497 1.392 . S
C498 N502 1.331 . S
C499 C500 1.391 . S
C499 N502 1.329 . S
C499 H509 0.930 . S
C500 C499 1.391 . S
C500 N501 1.334 . S
C500 H507 0.930 . S
N501 Zn485 2.119 . S
N501 C497 1.328 . S
N501 C500 1.334 . S
N502 C498 1.331 . S
N502 C499 1.329 . S
H503 C497 0.930 . S
C504 O484 1.257 . S
C504 O505 1.244 . S
O505 C504 1.244 . S
O506 C482 1.257 . S
O506 Zn485 2.019 1_556 S
H507 C500 0.930 . S
H508 C487 0.930 . S
H509 C499 0.930 . S
Zn510 N514 2.020 . S
Zn510 O518 2.019 1_544 S
Zn510 N520 2.119 1_545 S
Zn510 O528 1.975 1_545 S
C511 N512 1.334 . S
C511 N515 1.336 . S
N512 C511 1.334 . S
N512 C513 1.334 . S
C513 N512 1.334 . S
C513 N514 1.336 . S
N514 Zn510 2.020 . S
N514 C513 1.336 . S
N514 N515 1.354 . S
N515 C511 1.336 . S
N515 N514 1.354 . S
N515 Zn519 2.020 . S
C516 O517 1.244 1_565 S
C516 O540 1.257 . S
O517 C516 1.244 1_545 S
O518 Zn510 2.019 1_566 S
O518 C538 1.257 . S
Zn519 N515 2.020 . S
Zn519 O526 1.975 1_545 S
Zn519 N535 2.119 1_545 S
Zn519 O540 2.019 1_545 S
N520 Zn510 2.119 1_565 S
N520 C522 1.334 . S
N520 C523 1.328 . S
C521 C522 1.391 . S
C521 N524 1.329 . S
C521 H542 0.930 . S
C522 N520 1.334 . S
C522 C521 1.391 . S
C522 H529 0.930 . S
C523 N520 1.328 . S
C523 C525 1.392 . S
C523 H530 0.930 . S
N524 C521 1.329 . S
N524 C525 1.331 . S
C525 C523 1.392 . S
C525 N524 1.331 . S
O526 Zn519 1.975 1_565 S
O526 C527 1.252 . S
C527 O526 1.252 . S
C527 O528 1.252 . S
O528 Zn510 1.975 1_565 S
O528 C527 1.252 . S
H529 C522 0.930 . S
H530 C523 0.930 . S
C531 C532 1.392 . S
C531 N535 1.328 . S
C531 H537 0.930 . S
C532 C531 1.392 . S
C532 N536 1.331 . S
C533 C534 1.391 . S
C533 N536 1.329 . S
C533 H543 0.930 . S
C534 C533 1.391 . S
C534 N535 1.334 . S
C534 H541 0.930 . S
N535 Zn519 2.119 1_565 S
N535 C531 1.328 . S
N535 C534 1.334 . S
N536 C532 1.331 . S
N536 C533 1.329 . S
H537 C531 0.930 . S
C538 O518 1.257 . S
C538 O539 1.244 1_565 S
O539 C538 1.244 1_545 S
O540 C516 1.257 . S
O540 Zn519 2.019 1_565 S
H541 C534 0.930 . S
H542 C521 0.930 . S
H543 C533 0.930 . S
Zn544 N548 2.020 . S
Zn544 O552 2.019 . S
Zn544 N554 2.119 . S
Zn544 O562 1.975 . S
C545 N546 1.334 . S
C545 N549 1.336 . S
N546 C545 1.334 . S
N546 C547 1.334 . S
C547 N546 1.334 . S
C547 N548 1.336 . S
N548 Zn544 2.020 . S
N548 C547 1.336 . S
N548 N549 1.354 . S
N549 C545 1.336 . S
N549 N548 1.354 . S
N549 Zn553 2.020 . S
C550 O551 1.244 . S
C550 O574 1.257 . S
O551 C550 1.244 . S
O552 Zn544 2.019 . S
O552 C572 1.257 1_556 S
Zn553 N549 2.020 . S
Zn553 O560 1.975 . S
Zn553 N569 2.119 . S
Zn553 O574 2.019 . S
N554 Zn544 2.119 . S
N554 C556 1.334 . S
N554 C557 1.328 . S
C555 C556 1.391 . S
C555 N558 1.329 . S
C555 H576 0.930 . S
C556 N554 1.334 . S
C556 C555 1.391 . S
C556 H563 0.930 . S
C557 N554 1.328 . S
C557 C559 1.392 . S
C557 H564 0.930 . S
N558 C555 1.329 . S
N558 C559 1.331 . S
C559 C557 1.392 . S
C559 N558 1.331 . S
O560 Zn553 1.975 . S
O560 C561 1.252 . S
C561 O560 1.252 . S
C561 O562 1.252 . S
O562 Zn544 1.975 . S
O562 C561 1.252 . S
H563 C556 0.930 . S
H564 C557 0.930 . S
C565 C566 1.392 . S
C565 N569 1.328 . S
C565 H571 0.930 . S
C566 C565 1.392 . S
C566 N570 1.331 . S
C567 C568 1.391 . S
C567 N570 1.329 . S
C567 H577 0.930 . S
C568 C567 1.391 . S
C568 N569 1.334 . S
C568 H575 0.930 . S
N569 Zn553 2.119 . S
N569 C565 1.328 . S
N569 C568 1.334 . S
N570 C566 1.331 . S
N570 C567 1.329 . S
H571 C565 0.930 . S
C572 O552 1.257 1_554 S
C572 O573 1.244 1_554 S
O573 C572 1.244 1_556 S
O574 C550 1.257 . S
O574 Zn553 2.019 . S
H575 C568 0.930 . S
H576 C555 0.930 . S
H577 C567 0.930 . S
Zn578 N582 2.020 . S
Zn578 O586 2.019 . S
Zn578 N588 2.119 . S
Zn578 O596 1.975 . S
C579 N580 1.334 . S
C579 N583 1.336 . S
N580 C579 1.334 . S
N580 C581 1.334 . S
C581 N580 1.334 . S
C581 N582 1.336 . S
N582 Zn578 2.020 . S
N582 C581 1.336 . S
N582 N583 1.354 . S
N583 C579 1.336 . S
N583 N582 1.354 . S
N583 Zn587 2.020 . S
C584 O585 1.244 . S
C584 O608 1.257 . S
O585 C584 1.244 . S
O586 Zn578 2.019 . S
O586 C606 1.257 1_556 S
Zn587 N583 2.020 . S
Zn587 O594 1.975 . S
Zn587 N603 2.119 . S
Zn587 O608 2.019 . S
N588 Zn578 2.119 . S
N588 C590 1.334 . S
N588 C591 1.328 . S
C589 C590 1.391 . S
C589 N592 1.329 . S
C589 H610 0.930 . S
C590 N588 1.334 . S
C590 C589 1.391 . S
C590 H597 0.930 . S
C591 N588 1.328 . S
C591 C593 1.392 . S
C591 H598 0.930 . S
N592 C589 1.329 . S
N592 C593 1.331 . S
C593 C591 1.392 . S
C593 N592 1.331 . S
O594 Zn587 1.975 . S
O594 C595 1.252 . S
C595 O594 1.252 . S
C595 O596 1.252 . S
O596 Zn578 1.975 . S
O596 C595 1.252 . S
H597 C590 0.930 . S
H598 C591 0.930 . S
C599 C600 1.392 . S
C599 N603 1.328 . S
C599 H605 0.930 . S
C600 C599 1.392 . S
C600 N604 1.331 . S
C601 C602 1.391 . S
C601 N604 1.329 . S
C601 H611 0.930 . S
C602 C601 1.391 . S
C602 N603 1.334 . S
C602 H609 0.930 . S
N603 Zn587 2.119 . S
N603 C599 1.328 . S
N603 C602 1.334 . S
N604 C600 1.331 . S
N604 C601 1.329 . S
H605 C599 0.930 . S
C606 O586 1.257 1_554 S
C606 O607 1.244 1_554 S
O607 C606 1.244 1_556 S
O608 C584 1.257 . S
O608 Zn587 2.019 . S
H609 C602 0.930 . S
H610 C589 0.930 . S
H611 C601 0.930 . S
Zn612 N616 2.020 . S
Zn612 O620 2.019 1_556 S
Zn612 N622 2.119 . S
Zn612 O630 1.975 . S
C613 N614 1.334 . S
C613 N617 1.336 . S
N614 C613 1.334 . S
N614 C615 1.334 . S
C615 N614 1.334 . S
C615 N616 1.336 . S
N616 Zn612 2.020 . S
N616 C615 1.336 . S
N616 N617 1.354 . S
N617 C613 1.336 . S
N617 N616 1.354 . S
N617 Zn621 2.020 . S
C618 O619 1.244 . S
C618 O642 1.257 . S
O619 C618 1.244 . S
O620 Zn612 2.019 1_554 S
O620 C640 1.257 . S
Zn621 N617 2.020 . S
Zn621 O628 1.975 . S
Zn621 N637 2.119 . S
Zn621 O642 2.019 . S
N622 Zn612 2.119 . S
N622 C624 1.334 . S
N622 C625 1.328 . S
C623 C624 1.391 . S
C623 N626 1.329 . S
C623 H644 0.930 . S
C624 N622 1.334 . S
C624 C623 1.391 . S
C624 H631 0.930 . S
C625 N622 1.328 . S
C625 C627 1.392 . S
C625 H632 0.930 . S
N626 C623 1.329 . S
N626 C627 1.331 . S
C627 C625 1.392 . S
C627 N626 1.331 . S
O628 Zn621 1.975 . S
O628 C629 1.252 . S
C629 O628 1.252 . S
C629 O630 1.252 . S
O630 Zn612 1.975 . S
O630 C629 1.252 . S
H631 C624 0.930 . S
H632 C625 0.930 . S
C633 C634 1.392 . S
C633 N637 1.328 . S
C633 H639 0.930 . S
C634 C633 1.392 . S
C634 N638 1.331 . S
C635 C636 1.391 . S
C635 N638 1.329 . S
C635 H645 0.930 . S
C636 C635 1.391 . S
C636 N637 1.334 . S
C636 H643 0.930 . S
N637 Zn621 2.119 . S
N637 C633 1.328 . S
N637 C636 1.334 . S
N638 C634 1.331 . S
N638 C635 1.329 . S
H639 C633 0.930 . S
C640 O620 1.257 . S
C640 O641 1.244 . S
O641 C640 1.244 . S
O642 C618 1.257 . S
O642 Zn621 2.019 . S
H643 C636 0.930 . S
H644 C623 0.930 . S
H645 C635 0.930 . S
Zn646 N650 2.020 . S
Zn646 O654 2.019 1_556 S
Zn646 N656 2.119 . S
Zn646 O664 1.975 . S
C647 N648 1.334 . S
C647 N651 1.336 . S
N648 C647 1.334 . S
N648 C649 1.334 . S
C649 N648 1.334 . S
C649 N650 1.336 . S
N650 Zn646 2.020 . S
N650 C649 1.336 . S
N650 N651 1.354 . S
N651 C647 1.336 . S
N651 N650 1.354 . S
N651 Zn655 2.020 . S
C652 O653 1.244 . S
C652 O676 1.257 . S
O653 C652 1.244 . S
O654 Zn646 2.019 1_554 S
O654 C674 1.257 . S
Zn655 N651 2.020 . S
Zn655 O662 1.975 . S
Zn655 N671 2.119 . S
Zn655 O676 2.019 . S
N656 Zn646 2.119 . S
N656 C658 1.334 . S
N656 C659 1.328 . S
C657 C658 1.391 . S
C657 N660 1.329 . S
C657 H678 0.930 . S
C658 N656 1.334 . S
C658 C657 1.391 . S
C658 H665 0.930 . S
C659 N656 1.328 . S
C659 C661 1.392 . S
C659 H666 0.930 . S
N660 C657 1.329 . S
N660 C661 1.331 . S
C661 C659 1.392 . S
C661 N660 1.331 . S
O662 Zn655 1.975 . S
O662 C663 1.252 . S
C663 O662 1.252 . S
C663 O664 1.252 . S
O664 Zn646 1.975 . S
O664 C663 1.252 . S
H665 C658 0.930 . S
H666 C659 0.930 . S
C667 C668 1.392 . S
C667 N671 1.328 . S
C667 H673 0.930 . S
C668 C667 1.392 . S
C668 N672 1.331 . S
C669 C670 1.391 . S
C669 N672 1.329 . S
C669 H679 0.930 . S
C670 C669 1.391 . S
C670 N671 1.334 . S
C670 H677 0.930 . S
N671 Zn655 2.119 . S
N671 C667 1.328 . S
N671 C670 1.334 . S
N672 C668 1.331 . S
N672 C669 1.329 . S
H673 C667 0.930 . S
C674 O654 1.257 . S
C674 O675 1.244 . S
O675 C674 1.244 . S
O676 C652 1.257 . S
O676 Zn655 2.019 . S
H677 C670 0.930 . S
H678 C657 0.930 . S
H679 C669 0.930 . S
Zn680 N684 2.020 . S
Zn680 O688 2.019 . S
Zn680 N690 2.119 . S
Zn680 O698 1.975 . S
C681 N682 1.334 . S
C681 N685 1.336 . S
N682 C681 1.334 . S
N682 C683 1.334 . S
C683 N682 1.334 . S
C683 N684 1.336 . S
N684 Zn680 2.020 . S
N684 C683 1.336 . S
N684 N685 1.354 . S
N685 C681 1.336 . S
N685 N684 1.354 . S
N685 Zn689 2.020 . S
C686 O687 1.244 . S
C686 O710 1.257 . S
O687 C686 1.244 . S
O688 Zn680 2.019 . S
O688 C708 1.257 1_554 S
Zn689 N685 2.020 . S
Zn689 O696 1.975 . S
Zn689 N705 2.119 . S
Zn689 O710 2.019 . S
N690 Zn680 2.119 . S
N690 C692 1.334 . S
N690 C693 1.328 . S
C691 C692 1.391 . S
C691 N694 1.329 . S
C691 H712 0.930 . S
C692 N690 1.334 . S
C692 C691 1.391 . S
C692 H699 0.930 . S
C693 N690 1.328 . S
C693 C695 1.392 . S
C693 H700 0.930 . S
N694 C691 1.329 . S
N694 C695 1.331 . S
C695 C693 1.392 . S
C695 N694 1.331 . S
O696 Zn689 1.975 . S
O696 C697 1.252 . S
C697 O696 1.252 . S
C697 O698 1.252 . S
O698 Zn680 1.975 . S
O698 C697 1.252 . S
H699 C692 0.930 . S
H700 C693 0.930 . S
C701 C702 1.392 . S
C701 N705 1.328 . S
C701 H707 0.930 . S
C702 C701 1.392 . S
C702 N706 1.331 . S
C703 C704 1.391 . S
C703 N706 1.329 . S
C703 H713 0.930 . S
C704 C703 1.391 . S
C704 N705 1.334 . S
C704 H711 0.930 . S
N705 Zn689 2.119 . S
N705 C701 1.328 . S
N705 C704 1.334 . S
N706 C702 1.331 . S
N706 C703 1.329 . S
H707 C701 0.930 . S
C708 O688 1.257 1_556 S
C708 O709 1.244 1_556 S
O709 C708 1.244 1_554 S
O710 C686 1.257 . S
O710 Zn689 2.019 . S
H711 C704 0.930 . S
H712 C691 0.930 . S
H713 C703 0.930 . S
Zn714 N718 2.020 . S
Zn714 O722 2.019 . S
Zn714 N724 2.119 . S
Zn714 O732 1.975 . S
C715 N716 1.334 . S
C715 N719 1.336 . S
N716 C715 1.334 . S
N716 C717 1.334 . S
C717 N716 1.334 . S
C717 N718 1.336 . S
N718 Zn714 2.020 . S
N718 C717 1.336 . S
N718 N719 1.354 . S
N719 C715 1.336 . S
N719 N718 1.354 . S
N719 Zn723 2.020 . S
C720 O721 1.244 . S
C720 O744 1.257 . S
O721 C720 1.244 . S
O722 Zn714 2.019 . S
O722 C742 1.257 1_554 S
Zn723 N719 2.020 . S
Zn723 O730 1.975 . S
Zn723 N739 2.119 . S
Zn723 O744 2.019 . S
N724 Zn714 2.119 . S
N724 C726 1.334 . S
N724 C727 1.328 . S
C725 C726 1.391 . S
C725 N728 1.329 . S
C725 H746 0.930 . S
C726 N724 1.334 . S
C726 C725 1.391 . S
C726 H733 0.930 . S
C727 N724 1.328 . S
C727 C729 1.392 . S
C727 H734 0.930 . S
N728 C725 1.329 . S
N728 C729 1.331 . S
C729 C727 1.392 . S
C729 N728 1.331 . S
O730 Zn723 1.975 . S
O730 C731 1.252 . S
C731 O730 1.252 . S
C731 O732 1.252 . S
O732 Zn714 1.975 . S
O732 C731 1.252 . S
H733 C726 0.930 . S
H734 C727 0.930 . S
C735 C736 1.392 . S
C735 N739 1.328 . S
C735 H741 0.930 . S
C736 C735 1.392 . S
C736 N740 1.331 . S
C737 C738 1.391 . S
C737 N740 1.329 . S
C737 H747 0.930 . S
C738 C737 1.391 . S
C738 N739 1.334 . S
C738 H745 0.930 . S
N739 Zn723 2.119 . S
N739 C735 1.328 . S
N739 C738 1.334 . S
N740 C736 1.331 . S
N740 C737 1.329 . S
H741 C735 0.930 . S
C742 O722 1.257 1_556 S
C742 O743 1.244 1_556 S
O743 C742 1.244 1_554 S
O744 C720 1.257 . S
O744 Zn723 2.019 . S
H745 C738 0.930 . S
H746 C725 0.930 . S
H747 C737 0.930 . S
Zn748 N752 2.020 . S
Zn748 O756 2.019 . S
Zn748 N758 2.119 . S
Zn748 O766 1.975 . S
C749 N750 1.334 . S
C749 N753 1.336 . S
N750 C749 1.334 . S
N750 C751 1.334 . S
C751 N750 1.334 . S
C751 N752 1.336 . S
N752 Zn748 2.020 . S
N752 C751 1.336 . S
N752 N753 1.354 . S
N753 C749 1.336 . S
N753 N752 1.354 . S
N753 Zn757 2.020 . S
C754 O755 1.244 . S
C754 O778 1.257 . S
O755 C754 1.244 . S
O756 Zn748 2.019 . S
O756 C776 1.257 . S
Zn757 N753 2.020 . S
Zn757 O764 1.975 . S
Zn757 N773 2.119 . S
Zn757 O778 2.019 1_554 S
N758 Zn748 2.119 . S
N758 C760 1.334 . S
N758 C761 1.328 . S
C759 C760 1.391 . S
C759 N762 1.329 . S
C759 H780 0.930 . S
C760 N758 1.334 . S
C760 C759 1.391 . S
C760 H767 0.930 . S
C761 N758 1.328 . S
C761 C763 1.392 . S
C761 H768 0.930 . S
N762 C759 1.329 . S
N762 C763 1.331 . S
C763 C761 1.392 . S
C763 N762 1.331 . S
O764 Zn757 1.975 . S
O764 C765 1.252 . S
C765 O764 1.252 . S
C765 O766 1.252 . S
O766 Zn748 1.975 . S
O766 C765 1.252 . S
H767 C760 0.930 . S
H768 C761 0.930 . S
C769 C770 1.392 . S
C769 N773 1.328 . S
C769 H775 0.930 . S
C770 C769 1.392 . S
C770 N774 1.331 . S
C771 C772 1.391 . S
C771 N774 1.329 . S
C771 H781 0.930 . S
C772 C771 1.391 . S
C772 N773 1.334 . S
C772 H779 0.930 . S
N773 Zn757 2.119 . S
N773 C769 1.328 . S
N773 C772 1.334 . S
N774 C770 1.331 . S
N774 C771 1.329 . S
H775 C769 0.930 . S
C776 O756 1.257 . S
C776 O777 1.244 . S
O777 C776 1.244 . S
O778 C754 1.257 . S
O778 Zn757 2.019 1_556 S
H779 C772 0.930 . S
H780 C759 0.930 . S
H781 C771 0.930 . S
Zn782 N786 2.020 . S
Zn782 O790 2.019 1_554 S
Zn782 N792 2.119 . S
Zn782 O800 1.975 . S
C783 N784 1.334 . S
C783 N787 1.336 . S
N784 C783 1.334 . S
N784 C785 1.334 . S
C785 N784 1.334 . S
C785 N786 1.336 . S
N786 Zn782 2.020 . S
N786 C785 1.336 . S
N786 N787 1.354 . S
N787 C783 1.336 . S
N787 N786 1.354 . S
N787 Zn791 2.020 . S
C788 O789 1.244 . S
C788 O812 1.257 . S
O789 C788 1.244 . S
O790 Zn782 2.019 1_556 S
O790 C810 1.257 . S
Zn791 N787 2.020 . S
Zn791 O798 1.975 . S
Zn791 N807 2.119 . S
Zn791 O812 2.019 . S
N792 Zn782 2.119 . S
N792 C794 1.334 . S
N792 C795 1.328 . S
C793 C794 1.391 . S
C793 N796 1.329 . S
C793 H814 0.930 . S
C794 N792 1.334 . S
C794 C793 1.391 . S
C794 H801 0.930 . S
C795 N792 1.328 . S
C795 C797 1.392 . S
C795 H802 0.930 . S
N796 C793 1.329 . S
N796 C797 1.331 . S
C797 C795 1.392 . S
C797 N796 1.331 . S
O798 Zn791 1.975 . S
O798 C799 1.252 . S
C799 O798 1.252 . S
C799 O800 1.252 . S
O800 Zn782 1.975 . S
O800 C799 1.252 . S
H801 C794 0.930 . S
H802 C795 0.930 . S
C803 C804 1.392 . S
C803 N807 1.328 . S
C803 H809 0.930 . S
C804 C803 1.392 . S
C804 N808 1.331 . S
C805 C806 1.391 . S
C805 N808 1.329 . S
C805 H815 0.930 . S
C806 C805 1.391 . S
C806 N807 1.334 . S
C806 H813 0.930 . S
N807 Zn791 2.119 . S
N807 C803 1.328 . S
N807 C806 1.334 . S
N808 C804 1.331 . S
N808 C805 1.329 . S
H809 C803 0.930 . S
C810 O790 1.257 . S
C810 O811 1.244 . S
O811 C810 1.244 . S
O812 C788 1.257 . S
O812 Zn791 2.019 . S
H813 C806 0.930 . S
H814 C793 0.930 . S
H815 C805 0.930 . S
Zn816 N820 2.020 . S
Zn816 O824 2.019 1_565 S
Zn816 N826 2.119 1_565 S
Zn816 O834 1.975 1_565 S
C817 N818 1.334 . S
C817 N821 1.336 . S
N818 C817 1.334 . S
N818 C819 1.334 . S
C819 N818 1.334 . S
C819 N820 1.336 . S
N820 Zn816 2.020 . S
N820 C819 1.336 . S
N820 N821 1.354 . S
N821 C817 1.336 . S
N821 N820 1.354 . S
N821 Zn825 2.020 1_554 S
C822 O823 1.244 1_545 S
C822 O846 1.257 . S
O823 C822 1.244 1_565 S
O824 Zn816 2.019 1_545 S
O824 C844 1.257 . S
Zn825 N821 2.020 1_556 S
Zn825 O832 1.975 1_565 S
Zn825 N841 2.119 1_565 S
Zn825 O846 2.019 1_565 S
N826 Zn816 2.119 1_545 S
N826 C828 1.334 . S
N826 C829 1.328 . S
C827 C828 1.391 . S
C827 N830 1.329 . S
C827 H848 0.930 1_554 S
C828 N826 1.334 . S
C828 C827 1.391 . S
C828 H835 0.930 . S
C829 N826 1.328 . S
C829 C831 1.392 . S
C829 H836 0.930 . S
N830 C827 1.329 . S
N830 C831 1.331 . S
C831 C829 1.392 . S
C831 N830 1.331 . S
O832 Zn825 1.975 1_545 S
O832 C833 1.252 1_556 S
C833 O832 1.252 1_554 S
C833 O834 1.252 . S
O834 Zn816 1.975 1_545 S
O834 C833 1.252 . S
H835 C828 0.930 . S
H836 C829 0.930 . S
C837 C838 1.392 . S
C837 N841 1.328 . S
C837 H843 0.930 . S
C838 C837 1.392 . S
C838 N842 1.331 1_556 S
C839 C840 1.391 . S
C839 N842 1.329 . S
C839 H849 0.930 . S
C840 C839 1.391 . S
C840 N841 1.334 1_554 S
C840 H847 0.930 . S
N841 Zn825 2.119 1_545 S
N841 C837 1.328 . S
N841 C840 1.334 1_556 S
N842 C838 1.331 1_554 S
N842 C839 1.329 . S
H843 C837 0.930 . S
C844 O824 1.257 . S
C844 O845 1.244 1_545 S
O845 C844 1.244 1_565 S
O846 C822 1.257 . S
O846 Zn825 2.019 1_545 S
H847 C840 0.930 . S
H848 C827 0.930 1_556 S
H849 C839 0.930 . S
Zn850 N854 2.020 . S
Zn850 O858 2.019 . S
Zn850 N860 2.119 . S
Zn850 O868 1.975 . S
C851 N852 1.334 . S
C851 N855 1.336 . S
N852 C851 1.334 . S
N852 C853 1.334 . S
C853 N852 1.334 . S
C853 N854 1.336 . S
N854 Zn850 2.020 . S
N854 C853 1.336 . S
N854 N855 1.354 . S
N855 C851 1.336 . S
N855 N854 1.354 . S
N855 Zn859 2.020 1_554 S
C856 O857 1.244 . S
C856 O880 1.257 . S
O857 C856 1.244 . S
O858 Zn850 2.019 . S
O858 C878 1.257 . S
Zn859 N855 2.020 1_556 S
Zn859 O866 1.975 . S
Zn859 N875 2.119 . S
Zn859 O880 2.019 . S
N860 Zn850 2.119 . S
N860 C862 1.334 . S
N860 C863 1.328 . S
C861 C862 1.391 . S
C861 N864 1.329 . S
C861 H882 0.930 1_554 S
C862 N860 1.334 . S
C862 C861 1.391 . S
C862 H869 0.930 . S
C863 N860 1.328 . S
C863 C865 1.392 . S
C863 H870 0.930 . S
N864 C861 1.329 . S
N864 C865 1.331 . S
C865 C863 1.392 . S
C865 N864 1.331 . S
O866 Zn859 1.975 . S
O866 C867 1.252 1_556 S
C867 O866 1.252 1_554 S
C867 O868 1.252 . S
O868 Zn850 1.975 . S
O868 C867 1.252 . S
H869 C862 0.930 . S
H870 C863 0.930 . S
C871 C872 1.392 . S
C871 N875 1.328 . S
C871 H877 0.930 . S
C872 C871 1.392 . S
C872 N876 1.331 1_556 S
C873 C874 1.391 . S
C873 N876 1.329 . S
C873 H883 0.930 . S
C874 C873 1.391 . S
C874 N875 1.334 1_554 S
C874 H881 0.930 . S
N875 Zn859 2.119 . S
N875 C871 1.328 . S
N875 C874 1.334 1_556 S
N876 C872 1.331 1_554 S
N876 C873 1.329 . S
H877 C871 0.930 . S
C878 O858 1.257 . S
C878 O879 1.244 . S
O879 C878 1.244 . S
O880 C856 1.257 . S
O880 Zn859 2.019 . S
H881 C874 0.930 . S
H882 C861 0.930 1_556 S
H883 C873 0.930 . S
Zn884 N888 2.020 . S
Zn884 O892 2.019 . S
Zn884 N894 2.119 . S
Zn884 O902 1.975 . S
C885 N886 1.334 . S
C885 N889 1.336 . S
N886 C885 1.334 . S
N886 C887 1.334 . S
C887 N886 1.334 . S
C887 N888 1.336 . S
N888 Zn884 2.020 . S
N888 C887 1.336 . S
N888 N889 1.354 . S
N889 C885 1.336 . S
N889 N888 1.354 . S
N889 Zn893 2.020 1_554 S
C890 O891 1.244 . S
C890 O914 1.257 . S
O891 C890 1.244 . S
O892 Zn884 2.019 . S
O892 C912 1.257 . S
Zn893 N889 2.020 1_556 S
Zn893 O900 1.975 1_556 S
Zn893 N909 2.119 1_556 S
Zn893 O914 2.019 . S
N894 Zn884 2.119 . S
N894 C896 1.334 . S
N894 C897 1.328 . S
C895 C896 1.391 . S
C895 N898 1.329 . S
C895 H916 0.930 1_554 S
C896 N894 1.334 . S
C896 C895 1.391 . S
C896 H903 0.930 . S
C897 N894 1.328 . S
C897 C899 1.392 . S
C897 H904 0.930 . S
N898 C895 1.329 . S
N898 C899 1.331 . S
C899 C897 1.392 . S
C899 N898 1.331 . S
O900 Zn893 1.975 1_554 S
O900 C901 1.252 . S
C901 O900 1.252 . S
C901 O902 1.252 . S
O902 Zn884 1.975 . S
O902 C901 1.252 . S
H903 C896 0.930 . S
H904 C897 0.930 . S
C905 C906 1.392 . S
C905 N909 1.328 1_556 S
C905 H911 0.930 . S
C906 C905 1.392 . S
C906 N910 1.331 1_556 S
C907 C908 1.391 . S
C907 N910 1.329 . S
C907 H917 0.930 . S
C908 C907 1.391 . S
C908 N909 1.334 . S
C908 H915 0.930 . S
N909 Zn893 2.119 1_554 S
N909 C905 1.328 1_554 S
N909 C908 1.334 . S
N910 C906 1.331 1_554 S
N910 C907 1.329 . S
H911 C905 0.930 . S
C912 O892 1.257 . S
C912 O913 1.244 . S
O913 C912 1.244 . S
O914 C890 1.257 . S
O914 Zn893 2.019 . S
H915 C908 0.930 . S
H916 C895 0.930 1_556 S
H917 C907 0.930 . S
Zn918 N922 2.020 1_556 S
Zn918 O926 2.019 1_565 S
Zn918 N928 2.119 1_566 S
Zn918 O936 1.975 1_566 S
C919 N920 1.334 . S
C919 N923 1.336 . S
N920 C919 1.334 . S
N920 C921 1.334 . S
C921 N920 1.334 . S
C921 N922 1.336 . S
N922 Zn918 2.020 1_554 S
N922 C921 1.336 . S
N922 N923 1.354 . S
N923 C919 1.336 . S
N923 N922 1.354 . S
N923 Zn927 2.020 . S
C924 O925 1.244 1_545 S
C924 O948 1.257 . S
O925 C924 1.244 1_565 S
O926 Zn918 2.019 1_545 S
O926 C946 1.257 . S
Zn927 N923 2.020 . S
Zn927 O934 1.975 1_565 S
Zn927 N943 2.119 1_565 S
Zn927 O948 2.019 1_565 S
N928 Zn918 2.119 1_544 S
N928 C930 1.334 . S
N928 C931 1.328 1_554 S
C929 C930 1.391 . S
C929 N932 1.329 . S
C929 H950 0.930 . S
C930 N928 1.334 . S
C930 C929 1.391 . S
C930 H937 0.930 . S
C931 N928 1.328 1_556 S
C931 C933 1.392 . S
C931 H938 0.930 . S
N932 C929 1.329 . S
N932 C933 1.331 1_554 S
C933 C931 1.392 . S
C933 N932 1.331 1_556 S
O934 Zn927 1.975 1_545 S
O934 C935 1.252 . S
C935 O934 1.252 . S
C935 O936 1.252 . S
O936 Zn918 1.975 1_544 S
O936 C935 1.252 . S
H937 C930 0.930 . S
H938 C931 0.930 . S
C939 C940 1.392 . S
C939 N943 1.328 . S
C939 H945 0.930 . S
C940 C939 1.392 . S
C940 N944 1.331 . S
C941 C942 1.391 . S
C941 N944 1.329 . S
C941 H951 0.930 1_554 S
C942 C941 1.391 . S
C942 N943 1.334 . S
C942 H949 0.930 . S
N943 Zn927 2.119 1_545 S
N943 C939 1.328 . S
N943 C942 1.334 . S
N944 C940 1.331 . S
N944 C941 1.329 . S
H945 C939 0.930 . S
C946 O926 1.257 . S
C946 O947 1.244 1_545 S
O947 C946 1.244 1_565 S
O948 C924 1.257 . S
O948 Zn927 2.019 1_545 S
H949 C942 0.930 . S
H950 C929 0.930 . S
H951 C941 0.930 1_556 S
Zn952 N956 2.020 . S
Zn952 O960 2.019 1_545 S
Zn952 N962 2.119 1_545 S
Zn952 O970 1.975 1_545 S
C953 N954 1.334 . S
C953 N957 1.336 . S
N954 C953 1.334 . S
N954 C955 1.334 . S
C955 N954 1.334 . S
C955 N956 1.336 . S
N956 Zn952 2.020 . S
N956 C955 1.336 . S
N956 N957 1.354 . S
N957 C953 1.336 . S
N957 N956 1.354 . S
N957 Zn961 2.020 1_556 S
C958 O959 1.244 1_565 S
C958 O982 1.257 . S
O959 C958 1.244 1_545 S
O960 Zn952 2.019 1_565 S
O960 C980 1.257 . S
Zn961 N957 2.020 1_554 S
Zn961 O968 1.975 1_545 S
Zn961 N977 2.119 1_545 S
Zn961 O982 2.019 1_545 S
N962 Zn952 2.119 1_565 S
N962 C964 1.334 . S
N962 C965 1.328 . S
C963 C964 1.391 . S
C963 N966 1.329 . S
C963 H984 0.930 1_556 S
C964 N962 1.334 . S
C964 C963 1.391 . S
C964 H971 0.930 . S
C965 N962 1.328 . S
C965 C967 1.392 . S
C965 H972 0.930 . S
N966 C963 1.329 . S
N966 C967 1.331 . S
C967 C965 1.392 . S
C967 N966 1.331 . S
O968 Zn961 1.975 1_565 S
O968 C969 1.252 1_554 S
C969 O968 1.252 1_556 S
C969 O970 1.252 . S
O970 Zn952 1.975 1_565 S
O970 C969 1.252 . S
H971 C964 0.930 . S
H972 C965 0.930 . S
C973 C974 1.392 . S
C973 N977 1.328 . S
C973 H979 0.930 . S
C974 C973 1.392 . S
C974 N978 1.331 1_554 S
C975 C976 1.391 . S
C975 N978 1.329 . S
C975 H985 0.930 . S
C976 C975 1.391 . S
C976 N977 1.334 1_556 S
C976 H983 0.930 . S
N977 Zn961 2.119 1_565 S
N977 C973 1.328 . S
N977 C976 1.334 1_554 S
N978 C974 1.331 1_556 S
N978 C975 1.329 . S
H979 C973 0.930 . S
C980 O960 1.257 . S
C980 O981 1.244 1_565 S
O981 C980 1.244 1_545 S
O982 C958 1.257 . S
O982 Zn961 2.019 1_565 S
H983 C976 0.930 . S
H984 C963 0.930 1_554 S
H985 C975 0.930 . S
Zn986 N990 2.020 . S
Zn986 O994 2.019 . S
Zn986 N996 2.119 . S
Zn986 O1004 1.975 . S
C987 N988 1.334 . S
C987 N991 1.336 . S
N988 C987 1.334 . S
N988 C989 1.334 . S
C989 N988 1.334 . S
C989 N990 1.336 . S
N990 Zn986 2.020 . S
N990 C989 1.336 . S
N990 N991 1.354 . S
N991 C987 1.336 . S
N991 N990 1.354 . S
N991 Zn995 2.020 1_556 S
C992 O993 1.244 . S
C992 O1016 1.257 . S
O993 C992 1.244 . S
O994 Zn986 2.019 . S
O994 C1014 1.257 . S
Zn995 N991 2.020 1_554 S
Zn995 O1002 1.975 . S
Zn995 N1011 2.119 . S
Zn995 O1016 2.019 . S
N996 Zn986 2.119 . S
N996 C998 1.334 . S
N996 C999 1.328 . S
C997 C998 1.391 . S
C997 N1000 1.329 . S
C997 H1018 0.930 1_556 S
C998 N996 1.334 . S
C998 C997 1.391 . S
C998 H1005 0.930 . S
C999 N996 1.328 . S
C999 C1001 1.392 . S
C999 H1006 0.930 . S
N1000 C997 1.329 . S
N1000 C1001 1.331 . S
C1001 C999 1.392 . S
C1001 N1000 1.331 . S
O1002 Zn995 1.975 . S
O1002 C1003 1.252 1_554 S
C1003 O1002 1.252 1_556 S
C1003 O1004 1.252 . S
O1004 Zn986 1.975 . S
O1004 C1003 1.252 . S
H1005 C998 0.930 . S
H1006 C999 0.930 . S
C1007 C1008 1.392 . S
C1007 N1011 1.328 . S
C1007 H1013 0.930 . S
C1008 C1007 1.392 . S
C1008 N1012 1.331 1_554 S
C1009 C1010 1.391 . S
C1009 N1012 1.329 . S
C1009 H1019 0.930 . S
C1010 C1009 1.391 . S
C1010 N1011 1.334 1_556 S
C1010 H1017 0.930 . S
N1011 Zn995 2.119 . S
N1011 C1007 1.328 . S
N1011 C1010 1.334 1_554 S
N1012 C1008 1.331 1_556 S
N1012 C1009 1.329 . S
H1013 C1007 0.930 . S
C1014 O994 1.257 . S
C1014 O1015 1.244 . S
O1015 C1014 1.244 . S
O1016 C992 1.257 . S
O1016 Zn995 2.019 . S
H1017 C1010 0.930 . S
H1018 C997 0.930 1_554 S
H1019 C1009 0.930 . S
Zn1020 N1024 2.020 1_554 S
Zn1020 O1028 2.019 . S
Zn1020 N1030 2.119 1_554 S
Zn1020 O1038 1.975 1_554 S
C1021 N1022 1.334 . S
C1021 N1025 1.336 . S
N1022 C1021 1.334 . S
N1022 C1023 1.334 . S
C1023 N1022 1.334 . S
C1023 N1024 1.336 . S
N1024 Zn1020 2.020 1_556 S
N1024 C1023 1.336 . S
N1024 N1025 1.354 . S
N1025 C1021 1.336 . S
N1025 N1024 1.354 . S
N1025 Zn1029 2.020 . S
C1026 O1027 1.244 . S
C1026 O1050 1.257 . S
O1027 C1026 1.244 . S
O1028 Zn1020 2.019 . S
O1028 C1048 1.257 . S
Zn1029 N1025 2.020 . S
Zn1029 O1036 1.975 . S
Zn1029 N1045 2.119 . S
Zn1029 O1050 2.019 . S
N1030 Zn1020 2.119 1_556 S
N1030 C1032 1.334 . S
N1030 C1033 1.328 1_556 S
C1031 C1032 1.391 . S
C1031 N1034 1.329 . S
C1031 H1052 0.930 . S
C1032 N1030 1.334 . S
C1032 C1031 1.391 . S
C1032 H1039 0.930 . S
C1033 N1030 1.328 1_554 S
C1033 C1035 1.392 . S
C1033 H1040 0.930 . S
N1034 C1031 1.329 . S
N1034 C1035 1.331 1_556 S
C1035 C1033 1.392 . S
C1035 N1034 1.331 1_554 S
O1036 Zn1029 1.975 . S
O1036 C1037 1.252 . S
C1037 O1036 1.252 . S
C1037 O1038 1.252 . S
O1038 Zn1020 1.975 1_556 S
O1038 C1037 1.252 . S
H1039 C1032 0.930 . S
H1040 C1033 0.930 . S
C1041 C1042 1.392 . S
C1041 N1045 1.328 . S
C1041 H1047 0.930 . S
C1042 C1041 1.392 . S
C1042 N1046 1.331 . S
C1043 C1044 1.391 . S
C1043 N1046 1.329 . S
C1043 H1053 0.930 1_556 S
C1044 C1043 1.391 . S
C1044 N1045 1.334 . S
C1044 H1051 0.930 . S
N1045 Zn1029 2.119 . S
N1045 C1041 1.328 . S
N1045 C1044 1.334 . S
N1046 C1042 1.331 . S
N1046 C1043 1.329 . S
H1047 C1041 0.930 . S
C1048 O1028 1.257 . S
C1048 O1049 1.244 . S
O1049 C1048 1.244 . S
O1050 C1026 1.257 . S
O1050 Zn1029 2.019 . S
H1051 C1044 0.930 . S
H1052 C1031 0.930 . S
H1053 C1043 0.930 1_554 S
Zn1054 N1058 2.020 . S
Zn1054 O1062 2.019 1_545 S
Zn1054 N1064 2.119 1_545 S
Zn1054 O1072 1.975 1_545 S
C1055 N1056 1.334 . S
C1055 N1059 1.336 . S
N1056 C1055 1.334 . S
N1056 C1057 1.334 . S
C1057 N1056 1.334 . S
C1057 N1058 1.336 . S
N1058 Zn1054 2.020 . S
N1058 C1057 1.336 . S
N1058 N1059 1.354 . S
N1059 C1055 1.336 . S
N1059 N1058 1.354 . S
N1059 Zn1063 2.020 1_556 S
C1060 O1061 1.244 1_565 S
C1060 O1084 1.257 . S
O1061 C1060 1.244 1_545 S
O1062 Zn1054 2.019 1_565 S
O1062 C1082 1.257 . S
Zn1063 N1059 2.020 1_554 S
Zn1063 O1070 1.975 1_544 S
Zn1063 N1079 2.119 1_544 S
Zn1063 O1084 2.019 1_545 S
N1064 Zn1054 2.119 1_565 S
N1064 C1066 1.334 . S
N1064 C1067 1.328 . S
C1065 C1066 1.391 . S
C1065 N1068 1.329 . S
C1065 H1086 0.930 1_556 S
C1066 N1064 1.334 . S
C1066 C1065 1.391 . S
C1066 H1073 0.930 . S
C1067 N1064 1.328 . S
C1067 C1069 1.392 . S
C1067 H1074 0.930 . S
N1068 C1065 1.329 . S
N1068 C1069 1.331 . S
C1069 C1067 1.392 . S
C1069 N1068 1.331 . S
O1070 Zn1063 1.975 1_566 S
O1070 C1071 1.252 . S
C1071 O1070 1.252 . S
C1071 O1072 1.252 . S
O1072 Zn1054 1.975 1_565 S
O1072 C1071 1.252 . S
H1073 C1066 0.930 . S
H1074 C1067 0.930 . S
C1075 C1076 1.392 . S
C1075 N1079 1.328 1_554 S
C1075 H1081 0.930 . S
C1076 C1075 1.392 . S
C1076 N1080 1.331 1_554 S
C1077 C1078 1.391 . S
C1077 N1080 1.329 . S
C1077 H1087 0.930 . S
C1078 C1077 1.391 . S
C1078 N1079 1.334 . S
C1078 H1085 0.930 . S
N1079 Zn1063 2.119 1_566 S
N1079 C1075 1.328 1_556 S
N1079 C1078 1.334 . S
N1080 C1076 1.331 1_556 S
N1080 C1077 1.329 . S
H1081 C1075 0.930 . S
C1082 O1062 1.257 . S
C1082 O1083 1.244 1_565 S
O1083 C1082 1.244 1_545 S
O1084 C1060 1.257 . S
O1084 Zn1063 2.019 1_565 S
H1085 C1078 0.930 . S
H1086 C1065 0.930 1_554 S
H1087 C1077 0.930 . S
C85 C17 1.879 . S
C119 C51 1.880 . S
C221 C153 1.879 . S
C255 C187 1.880 . S
C357 C289 1.880 . S
C391 C323 1.881 . S
C425 C493 1.880 . S
C459 C527 1.881 . S
C629 C561 1.880 . S
C663 C595 1.880 . S
C765 C697 1.880 . S
C731 C799 1.880 . S
C833 C901 1.881 . S
C935 C867 1.881 . S
C1037 C969 1.881 . S
C1003 C1071 1.881 . S
C158 C22 2.226 1_654 S
C1008 C56 2.226 1_554 S
C83 C498 2.227 1_455 S
C797 C124 2.226 . S
C872 C192 2.226 1_556 S
C226 C355 2.227 1_655 S
C661 C260 2.226 . S
C430 C294 2.225 1_665 S
C736 C328 2.225 . S
C1069 C389 2.226 1_565 S
C464 C600 2.225 . S
C940 C525 2.226 1_545 S
C566 C702 2.225 . S
C1042 C627 2.227 . S
C770 C899 2.227 . S
C974 C838 2.226 1_564 S
C341 C3 3.419 . S
C375 C37 3.419 . S
C275 C69 3.418 1_556 S
C309 C105 3.418 1_556 S
C139 C479 3.419 . S
C511 C173 3.419 . S
C207 C411 3.418 1_556 S
C445 C241 3.418 1_554 S
C547 C885 3.418 1_556 S
C921 C581 3.418 1_554 S
C819 C613 3.419 . S
C853 C647 3.419 . S
C1023 C683 3.418 1_556 S
C1055 C717 3.418 1_556 S
C751 C955 3.419 . S
C783 C989 3.419 . S
C15 C117 3.262 1_554 S
C90 C49 3.262 1_556 S
C253 C151 3.262 1_554 S
C219 C185 3.262 1_554 S
C396 C287 3.262 . S
C362 C321 3.262 . S
C532 C423 3.262 . S
C491 C457 3.262 . S
C668 C559 3.262 . S
C593 C634 3.262 . S
C804 C695 3.262 . S
C763 C729 3.262 . S
C933 C831 3.262 1_556 S
C906 C865 3.262 1_556 S
C967 C1076 3.262 1_556 S
C1001 C1035 3.262 1_556 S
C343 C1 2.599 1_556 S
C377 C35 2.599 1_556 S
C273 C71 2.600 . S
C103 C307 2.600 . S
C477 C137 2.599 1_554 S
C171 C513 2.599 1_556 S
C409 C205 2.600 . S
C443 C239 2.600 . S
C545 C887 2.600 . S
C919 C579 2.600 . S
C615 C817 2.599 1_556 S
C851 C649 2.599 1_554 S
C1021 C681 2.600 . S
C715 C1057 2.600 . S
C749 C953 2.599 1_554 S
C785 C987 2.599 1_554 S
C6 C28 1.491 . S
C62 C40 1.491 . S
C74 C96 1.492 . S
C108 C130 1.492 . S
C142 C164 1.491 . S
C176 C198 1.491 . S
C210 C232 1.492 . S
C244 C266 1.492 . S
C300 C278 1.491 . S
C334 C312 1.491 . S
C368 C346 1.492 . S
C380 C402 1.492 . S
C436 C414 1.491 . S
C448 C470 1.491 . S
C504 C482 1.492 . S
C516 C538 1.492 . S
C572 C550 1.491 . S
C584 C606 1.491 . S
C618 C640 1.492 . S
C674 C652 1.492 . S
C686 C708 1.491 . S
C720 C742 1.491 . S
C776 C754 1.492 . S
C810 C788 1.492 . S
C844 C822 1.491 . S
C856 C878 1.491 . S
C912 C890 1.492 . S
C946 C924 1.492 . S
C958 C980 1.491 . S
C992 C1014 1.491 . S
C1026 C1048 1.492 . S
C1082 C1060 1.492 . S
