# Generated by pormake.
# Topology eci, (8)-cn, num edge types: 1
# Building blocks:
#     Node 0, Type 0, BuildingBlock: TAGTUT_clean_sbu_3, # of connection points: 8
#     Node 1, Type 0, BuildingBlock: TAGTUT_clean_sbu_3, # of connection points: 8
#     Node 2, Type 0, BuildingBlock: TAGTUT_clean_sbu_3, # of connection points: 8
#     Node 3, Type 0, BuildingBlock: TAGTUT_clean_sbu_3, # of connection points: 8
#     Edge 4, Type (0, 0), BuildingBlock: FUNLAD_clean_linker_0, # of connection points: 2
#     Edge 5, Type (0, 0), BuildingBlock: FUNLAD_clean_linker_0, # of connection points: 2
#     Edge 6, Type (0, 0), BuildingBlock: FUNLAD_clean_linker_0, # of connection points: 2
#     Edge 7, Type (0, 0), BuildingBlock: FUNLAD_clean_linker_0, # of connection points: 2
#     Edge 8, Type (0, 0), BuildingBlock: FUNLAD_clean_linker_0, # of connection points: 2
#     Edge 9, Type (0, 0), BuildingBlock: FUNLAD_clean_linker_0, # of connection points: 2
#     Edge 10, Type (0, 0), BuildingBlock: FUNLAD_clean_linker_0, # of connection points: 2
#     Edge 11, Type (0, 0), BuildingBlock: FUNLAD_clean_linker_0, # of connection points: 2
#     Edge 12, Type (0, 0), BuildingBlock: FUNLAD_clean_linker_0, # of connection points: 2
#     Edge 13, Type (0, 0), BuildingBlock: FUNLAD_clean_linker_0, # of connection points: 2
#     Edge 14, Type (0, 0), BuildingBlock: FUNLAD_clean_linker_0, # of connection points: 2
#     Edge 15, Type (0, 0), BuildingBlock: FUNLAD_clean_linker_0, # of connection points: 2
#     Edge 16, Type (0, 0), BuildingBlock: FUNLAD_clean_linker_0, # of connection points: 2
#     Edge 17, Type (0, 0), BuildingBlock: FUNLAD_clean_linker_0, # of connection points: 2
#     Edge 18, Type (0, 0), BuildingBlock: FUNLAD_clean_linker_0, # of connection points: 2
#     Edge 19, Type (0, 0), BuildingBlock: FUNLAD_clean_linker_0, # of connection points: 2
# Relax obj value: 0.298
# Max RMSD: 0.268
# Mean RMSD: 0.266
data_MOF--net-eci--node1-TAGTUT_clean_sbu_3--edge1-FUNLAD_clean_linker_0
_symmetry_space_group_name_H-M    P1
_symmetry_Int_Tables_number       1
_symmetry_cell_setting            triclinic
loop_
_symmetry_equiv_pos_as_xyz
'x, y, z'
_cell_length_a     36.122276
_cell_length_b     36.12003
_cell_length_c     18.250402
_cell_angle_alpha  88.857481
_cell_angle_beta   89.918693
_cell_angle_gamma 89.671324
loop_
_atom_site_label
_atom_site_type_symbol
_atom_site_fract_x
_atom_site_fract_y
_atom_site_fract_z
_atom_type_partial_charge
C0 C 0.76221 0.87725 0.00141 0.0
C1 C 0.67793 0.76566 0.95392 0.0
C2 C 0.78211 0.69976 -0.01803 0.0
Mg3 Mg 0.84714 0.89103 0.96496 0.0
Mg4 Mg 0.88783 0.8528 0.82537 0.0
O5 O 0.86264 0.84469 0.91434 0.0
Mg6 Mg 0.81416 0.8181 0.91465 0.0
O7 O 0.76433 0.79451 0.92248 0.0
Mg8 Mg 0.75942 0.78779 0.03186 0.0
Mg9 Mg 0.75102 0.75405 0.86698 0.0
C10 C 0.87179 0.76616 0.82216 0.0
O11 O 0.8035 0.82787 0.79176 0.0
O12 O 0.90923 0.90422 0.96879 0.0
O13 O 0.77282 0.7754 0.76474 0.0
O14 O 0.84387 0.92625 0.86026 0.0
O15 O 0.9371 0.87541 0.8746 0.0
O16 O 0.86301 0.89722 0.76119 0.0
O17 O 0.82151 0.80424 0.03582 0.0
O18 O 0.85031 0.85571 0.06913 0.0
C19 C 0.83715 0.82368 0.08458 0.0
C20 C 0.93808 0.89565 0.93147 0.0
O21 O 0.84734 0.76702 0.87383 0.0
O22 O 0.69685 0.77554 0.00993 0.0
O23 O 0.88594 0.79547 0.79257 0.0
O24 O 0.77548 0.72467 0.02936 0.0
O25 O 0.69324 0.75616 0.89368 0.0
O26 O 0.77691 0.70603 0.91386 0.0
O27 O 0.78712 0.87134 0.95312 0.0
O28 O 0.74637 0.85029 0.03538 0.0
C29 C 0.84961 0.92588 0.7914 0.0
C30 C 0.79058 0.80475 0.74569 0.0
C31 C 0.62383 0.26449 0.27366 0.0
C32 C 0.74984 0.20383 0.19485 0.0
C33 C 0.79922 0.29823 0.30154 0.0
Mg34 Mg 0.60333 0.3493 0.30403 0.0
Mg35 Mg 0.64223 0.41775 0.21296 0.0
O36 O 0.64981 0.37582 0.27308 0.0
Mg37 Mg 0.681 0.33287 0.24181 0.0
O38 O 0.70904 0.2868 0.21729 0.0
Mg39 Mg 0.71234 0.26209 0.3168 0.0
Mg40 Mg 0.7531 0.28906 0.16437 0.0
C41 C 0.73013 0.40763 0.2043 0.0
O42 O 0.67573 0.34441 0.11719 0.0
O43 O 0.58592 0.40456 0.35665 0.0
O44 O 0.73187 0.32477 0.07772 0.0
O45 O 0.57156 0.3659 0.20007 0.0
O46 O 0.61582 0.45032 0.29606 0.0
O47 O 0.60195 0.4062 0.12935 0.0
O48 O 0.69052 0.31771 0.36315 0.0
O49 O 0.63457 0.3324 0.40585 0.0
C50 C 0.66743 0.32022 0.41609 0.0
C51 C 0.59443 0.43887 0.34777 0.0
O52 O 0.73055 0.37426 0.23117 0.0
O53 O 0.73375 0.20994 0.25643 0.0
O54 O 0.70034 0.42579 0.18902 0.0
O55 O 0.77343 0.28074 0.33554 0.0
O56 O 0.75946 0.23015 0.1507 0.0
O57 O 0.79574 0.30821 0.23457 0.0
O58 O 0.62881 0.29776 0.25068 0.0
O59 O 0.65105 0.24484 0.29788 0.0
C60 C 0.57395 0.38562 0.14159 0.0
C61 C 0.70076 0.34146 0.06717 0.0
C62 C 0.17323 0.18128 0.30253 0.0
C63 C 0.09471 0.06803 0.37205 0.0
C64 C 0.06549 0.12687 0.5659 0.0
Mg65 Mg 0.21604 0.24026 0.39816 0.0
Mg66 Mg 0.24847 0.22024 0.56221 0.0
O67 O 0.20809 0.21914 0.49987 0.0
Mg68 Mg 0.17978 0.17318 0.47861 0.0
O69 O 0.14822 0.13068 0.44878 0.0
Mg70 Mg 0.10409 0.15826 0.40763 0.0
Mg71 Mg 0.13672 0.09107 0.51223 0.0
C72 C 0.19331 0.16928 0.65521 0.0
O73 O 0.22725 0.13005 0.50193 0.0
O74 O 0.23444 0.29461 0.4534 0.0
O75 O 0.19318 0.08244 0.54898 0.0
O76 O 0.27816 0.22033 0.39368 0.0
O77 O 0.25181 0.27956 0.56856 0.0
O78 O 0.29534 0.20018 0.50478 0.0
O79 O 0.12913 0.21009 0.45888 0.0
O80 O 0.15444 0.25922 0.40314 0.0
C81 C 0.12601 0.24212 0.42856 0.0
C82 C 0.2455 0.30368 0.51751 0.0
O83 O 0.16966 0.16562 0.60312 0.0
O84 O 0.08738 0.10238 0.35876 0.0
O85 O 0.22431 0.18612 0.64735 0.0
O86 O 0.06704 0.14559 0.5061 0.0
O87 O 0.11371 0.05711 0.42783 0.0
O88 O 0.09215 0.10563 0.58568 0.0
O89 O 0.19481 0.18375 0.35759 0.0
O90 O 0.13965 0.17112 0.30972 0.0
C91 C 0.30238 0.20591 0.43715 0.0
C92 C 0.22429 0.09834 0.53547 0.0
C93 C 0.34227 0.68034 0.65282 0.0
C94 C 0.44443 0.61095 0.80604 0.0
C95 C 0.35698 0.58121 0.94962 0.0
Mg96 Mg 0.26404 0.71512 0.70101 0.0
Mg97 Mg 0.24798 0.74784 0.86601 0.0
O98 O 0.2668 0.70917 0.81101 0.0
Mg99 Mg 0.31746 0.68707 0.82273 0.0
O100 O 0.36691 0.66127 0.82507 0.0
Mg101 Mg 0.35311 0.61424 0.7752 0.0
Mg102 Mg 0.39409 0.65453 0.91167 0.0
C103 C 0.28647 0.69799 -0.00883 0.0
O104 O 0.34829 0.73914 0.86449 0.0
O105 O 0.20085 0.72611 0.71495 0.0
O106 O 0.38908 0.71183 0.94357 0.0
O107 O 0.27769 0.77829 0.70624 0.0
O108 O 0.19119 0.74235 0.83177 0.0
O109 O 0.27312 0.797 0.82172 0.0
O110 O 0.29271 0.63329 0.78488 0.0
O111 O 0.25328 0.65216 0.69782 0.0
C112 C 0.26906 0.62615 0.73523 0.0
C113 C 0.17905 0.73376 0.76838 0.0
O114 O 0.30429 0.67767 0.94562 0.0
O115 O 0.41524 0.60132 0.77157 0.0
O116 O 0.26654 0.72596 0.97103 0.0
O117 O 0.35001 0.57981 0.88129 0.0
O118 O 0.44385 0.63266 0.86078 0.0
O119 O 0.37128 0.60998 0.97709 0.0
O120 O 0.32641 0.70008 0.70127 0.0
O121 O 0.35596 0.64853 0.66943 0.0
C122 C 0.28119 0.8033 0.75457 0.0
C123 C 0.37283 0.74064 0.91578 0.0
C124 C 0.86053 0.82879 0.21159 0.0
C125 C 0.83695 0.81151 0.16181 0.0
C126 C 0.85739 0.82141 0.28633 0.0
C127 C 0.83013 0.79699 0.31278 0.0
C128 C 0.8084 0.77766 0.26277 0.0
C129 C 0.81179 0.78482 0.18766 0.0
C130 C 0.823 0.79188 0.39196 0.0
C131 C 0.83008 0.81837 0.44092 0.0
C132 C 0.82064 0.81452 0.51956 0.0
C133 C 0.81729 0.84652 0.56179 0.0
C134 C 0.80741 0.84378 0.63577 0.0
C135 C 0.80041 0.80897 0.66802 0.0
H136 H 0.81928 0.75421 0.52411 0.0
C137 C 0.80472 0.77702 0.62628 0.0
C138 C 0.81516 0.77968 0.55322 0.0
H139 H 0.80082 0.74969 0.65054 0.0
H140 H 0.88095 0.84874 0.19295 0.0
H141 H 0.87596 0.83535 0.32303 0.0
H142 H 0.78773 0.7581 0.28193 0.0
H143 H 0.79363 0.7707 0.15045 0.0
H144 H 0.80863 0.76683 0.40877 0.0
H145 H 0.84101 0.84488 0.42236 0.0
H146 H 0.82195 0.87368 0.53736 0.0
H147 H 0.80477 0.86876 0.66729 0.0
C148 C 0.65219 0.30742 0.54611 0.0
C149 C 0.67927 0.31461 0.49251 0.0
C150 C 0.66007 0.31205 0.61984 0.0
C151 C 0.69519 0.32414 0.64133 0.0
C152 C 0.72341 0.32758 0.58863 0.0
C153 C 0.71548 0.32297 0.51432 0.0
C154 C 0.7025 0.33392 0.71814 0.0
C155 C 0.67638 0.34977 0.76042 0.0
C156 C 0.68187 0.35613 0.8394 0.0
C157 C 0.65146 0.35295 0.88717 0.0
C158 C 0.6569 0.3517 0.96301 0.0
C159 C 0.69287 0.35372 -0.0085 0.0
H160 H 0.74087 0.36712 0.83313 0.0
C161 C 0.72259 0.36129 0.94388 0.0
C162 C 0.71715 0.3626 0.86843 0.0
H163 H 0.7505 0.36398 0.96475 0.0
H164 H 0.62422 0.30016 0.53074 0.0
H165 H 0.63827 0.30726 0.65964 0.0
H166 H 0.75096 0.33599 0.60445 0.0
H167 H 0.73686 0.32856 0.47397 0.0
H168 H 0.72995 0.32803 0.73964 0.0
H169 H 0.64908 0.35566 0.738 0.0
H170 H 0.62385 0.34877 0.86583 0.0
H171 H 0.63348 0.34616 -0.00134 0.0
C172 C 0.21425 0.1422 0.77299 0.0
C173 C 0.18495 0.15559 0.72935 0.0
C174 C 0.21027 0.13929 0.84858 0.0
C175 C 0.17704 0.15037 0.88165 0.0
C176 C 0.14636 0.15944 0.83737 0.0
C177 C 0.15028 0.16207 0.76122 0.0
C178 C 0.17468 0.15627 0.96129 0.0
C179 C 0.20393 0.16733 0.00105 0.0
C180 C 0.19978 0.17783 0.07822 0.0
C181 C 0.22694 0.16749 0.12979 0.0
C182 C 0.22029 0.17217 0.20461 0.0
C183 C 0.18654 0.18746 0.22762 0.0
H184 H 0.14756 0.20689 0.06223 0.0
C185 C 0.16149 0.20165 0.17542 0.0
C186 C 0.16808 0.19697 0.10125 0.0
H187 H 0.13554 0.21413 0.1922 0.0
H188 H 0.24108 0.13633 0.74907 0.0
H189 H 0.23385 0.13029 0.88098 0.0
H190 H 0.12021 0.16731 0.86189 0.0
H191 H 0.1273 0.17226 0.72832 0.0
H192 H 0.14742 0.15478 -0.01355 0.0
H193 H 0.23144 0.16888 0.97723 0.0
H194 H 0.25201 0.15349 0.11264 0.0
H195 H 0.23993 0.16103 0.24419 0.0
C196 C 0.31219 0.66094 0.09735 0.0
C197 C 0.2913 0.6912 0.07068 0.0
C198 C 0.31985 0.65716 0.17211 0.0
C199 C 0.30695 0.68363 0.22144 0.0
C200 C 0.28443 0.71283 0.1953 0.0
C201 C 0.2768 0.71661 0.12078 0.0
C202 C 0.31709 0.67969 0.29971 0.0
C203 C 0.31862 0.70849 0.34542 0.0
C204 C 0.32816 0.70366 0.42376 0.0
C205 C 0.35257 0.67561 0.44789 0.0
C206 C 0.35833 0.66928 0.52243 0.0
C207 C 0.34002 0.69097 0.57449 0.0
H208 H 0.29359 0.74938 0.45777 0.0
C209 C 0.31772 0.72075 0.55025 0.0
C210 C 0.31194 0.72709 0.47532 0.0
H211 H 0.30368 0.73832 0.5889 0.0
H212 H 0.32312 0.64054 0.06051 0.0
H213 H 0.33666 0.63396 0.19117 0.0
H214 H 0.27254 0.73286 0.23194 0.0
H215 H 0.26012 0.74002 0.10246 0.0
H216 H 0.32408 0.65201 0.31974 0.0
H217 H 0.31146 0.73624 0.32619 0.0
H218 H 0.36696 0.65817 0.40945 0.0
H219 H 0.37646 0.64667 0.53915 0.0
C220 C 0.40809 0.79563 0.87688 0.0
C221 C 0.39035 0.77593 0.93373 0.0
C222 C 0.44181 0.81308 0.89031 0.0
C223 C 0.45755 0.81124 0.96086 0.0
C224 C 0.4359 0.79836 0.01971 0.0
C225 C 0.40241 0.78062 0.00617 0.0
C226 C 0.4982 0.81375 0.97143 0.0
C227 C 0.52112 0.79587 0.92542 0.0
C228 C 0.56098 0.78742 0.93867 0.0
C229 C 0.5786 0.76297 0.89075 0.0
C230 C 0.61604 0.75434 0.89846 0.0
C231 C 0.63709 0.76995 0.95446 0.0
H232 H 0.56939 0.8212 0.03466 0.0
C233 C 0.61936 0.79343 0.00435 0.0
C234 C 0.58167 0.80222 -0.00353 0.0
H235 H 0.6349 0.80628 0.04762 0.0
H236 H 0.39922 0.79266 0.82061 0.0
H237 H 0.45752 0.82406 0.84427 0.0
H238 H 0.44711 0.79732 0.07477 0.0
H239 H 0.38894 0.76585 0.05099 0.0
H240 H 0.50824 0.82394 0.02318 0.0
H241 H 0.50916 0.78361 0.87696 0.0
H242 H 0.56343 0.75077 0.84617 0.0
H243 H 0.62872 0.73611 0.85908 0.0
C244 C 0.74059 0.13533 0.21254 0.0
C245 C 0.75587 0.16507 0.17207 0.0
C246 C 0.74425 0.09902 0.18813 0.0
C247 C 0.76327 0.0917 0.12255 0.0
C248 C 0.77957 0.12126 0.08358 0.0
C249 C 0.77575 0.15753 0.10771 0.0
C250 C 0.76731 0.05375 0.09341 0.0
C251 C 0.74332 0.02611 0.10805 0.0
C252 C 0.74733 0.98839 0.07774 0.0
C253 C 0.73145 0.95832 0.11594 0.0
C254 C 0.73551 0.92229 0.0904 0.0
C255 C 0.75537 0.91559 0.02564 0.0
H256 H 0.77723 0.00434 0.97851 0.0
C257 C 0.76995 0.94585 -0.01417 0.0
C258 C 0.76596 0.98184 0.0114 0.0
H259 H 0.78454 0.94177 0.93483 0.0
H260 H 0.72532 0.14007 0.26263 0.0
H261 H 0.7324 0.0769 0.22119 0.0
H262 H 0.79475 0.11639 0.0334 0.0
H263 H 0.78812 0.17968 0.07535 0.0
H264 H 0.79059 0.04896 0.05708 0.0
H265 H 0.7201 0.03078 0.14458 0.0
H266 H 0.71649 0.96261 0.16661 0.0
H267 H 0.72371 0.89966 0.12231 0.0
C268 C 0.35168 0.2071 0.33873 0.0
C269 C 0.34133 0.20133 0.41248 0.0
C270 C 0.38921 0.20982 0.31927 0.0
C271 C 0.41678 0.20744 0.37351 0.0
C272 C 0.40654 0.19969 0.44614 0.0
C273 C 0.36936 0.19606 0.46529 0.0
C274 C 0.4555 0.21832 0.35844 0.0
C275 C 0.47494 0.20763 0.29972 0.0
C276 C 0.51294 0.22166 0.28812 0.0
C277 C 0.54321 0.19724 0.28498 0.0
C278 C 0.57939 0.21104 0.2805 0.0
C279 C 0.58569 0.24948 0.27703 0.0
H280 H 0.49611 0.27925 0.28545 0.0
C281 C 0.55504 0.27364 0.27728 0.0
C282 C 0.51914 0.25992 0.28364 0.0
H283 H 0.55861 0.30325 0.27426 0.0
H284 H 0.33083 0.21127 0.29672 0.0
H285 H 0.39647 0.21627 0.26286 0.0
H286 H 0.42734 0.19784 0.48883 0.0
H287 H 0.36266 0.19149 0.52261 0.0
H288 H 0.46896 0.23543 0.39885 0.0
H289 H 0.46354 0.18783 0.26193 0.0
H290 H 0.53894 0.16759 0.28835 0.0
H291 H 0.60238 0.19167 0.27969 0.0
C292 C 0.29341 0.85246 0.65802 0.0
C293 C 0.29345 0.84103 0.73211 0.0
C294 C 0.30084 0.88936 0.63807 0.0
C295 C 0.30893 0.91561 0.69193 0.0
C296 C 0.31106 0.90344 0.76543 0.0
C297 C 0.30335 0.86674 0.78534 0.0
C298 C 0.31059 0.95635 0.67627 0.0
C299 C 0.3083 0.97229 0.60884 0.0
C300 C 0.29704 0.01176 0.59536 0.0
C301 C 0.29765 0.02611 0.52304 0.0
C302 C 0.2779 0.05845 0.50421 0.0
C303 C 0.25718 0.07681 0.5575 0.0
H304 H 0.27777 0.02325 0.70613 0.0
C305 C 0.2598 0.06491 0.63086 0.0
C306 C 0.27958 0.03285 0.64985 0.0
H307 H 0.24336 0.07825 0.67257 0.0
H308 H 0.28606 0.83331 0.61556 0.0
H309 H 0.29855 0.8971 0.5808 0.0
H310 H 0.31722 0.92279 0.80832 0.0
H311 H 0.30418 0.85882 0.84287 0.0
H312 H 0.3108 0.9739 0.72376 0.0
H313 H 0.31117 0.95532 0.56083 0.0
H314 H 0.31081 0.01064 0.47982 0.0
H315 H 0.27562 0.06669 0.44698 0.0
C316 C 0.90857 0.71223 0.86491 0.0
C317 C 0.89176 0.73164 0.80638 0.0
C318 C 0.94254 0.69429 0.85429 0.0
C319 C 0.95974 0.69547 0.78514 0.0
C320 C 0.93924 0.70865 0.72442 0.0
C321 C 0.9055 0.72682 0.73515 0.0
C322 C 1.00049 0.68942 0.78144 0.0
C323 C 0.02217 0.70767 0.7325 0.0
C324 C 0.06264 0.71239 0.74244 0.0
C325 C 0.08535 0.71778 0.6807 0.0
C326 C 0.1231 0.72525 0.68876 0.0
C327 C 0.13869 0.72842 0.75891 0.0
H328 H 0.06127 0.71316 0.8614 0.0
C329 C 0.11571 0.72377 0.82066 0.0
C330 C 0.07818 0.71572 0.81258 0.0
H331 H 0.12678 0.72584 0.87554 0.0
H332 H 0.89847 0.7154 0.92039 0.0
H333 H 0.95728 0.68342 0.90179 0.0
H334 H 0.95056 0.70807 0.66955 0.0
H335 H 0.89259 0.74109 0.68893 0.0
H336 H 0.01343 0.67447 0.82697 0.0
H337 H 0.00991 0.72256 0.6863 0.0
H338 H 0.07387 0.71613 0.62605 0.0
H339 H 0.14002 0.72865 0.64007 0.0
C340 C 0.7777 0.43368 0.12155 0.0
C341 C 0.76447 0.42844 0.19322 0.0
C342 C 0.79763 0.46556 0.10246 0.0
C343 C 0.80377 0.49315 0.15467 0.0
C344 C 0.79466 0.48534 0.22823 0.0
C345 C 0.77497 0.45333 0.2473 0.0
C346 C 0.81435 0.53187 0.13375 0.0
C347 C 0.80748 0.54677 0.06669 0.0
C348 C 0.80745 0.58721 0.04881 0.0
C349 C 0.80886 0.59832 0.97476 0.0
C350 C 0.80238 0.63514 0.95364 0.0
C351 C 0.79394 0.66195 0.0061 0.0
H352 H 0.79886 0.60692 0.15947 0.0
C353 C 0.79439 0.65134 0.08069 0.0
C354 C 0.80098 0.61434 0.10191 0.0
H355 H 0.78805 0.67125 0.12257 0.0
H356 H 0.76953 0.41499 0.0788 0.0
H357 H 0.8058 0.46947 0.04584 0.0
H358 H 0.79952 0.50569 0.26993 0.0
H359 H 0.76445 0.45016 0.3027 0.0
H360 H 0.82349 0.54971 0.17726 0.0
H361 H 0.79844 0.52907 0.02297 0.0
H362 H 0.81364 0.57811 0.93261 0.0
H363 H 0.80267 0.64225 0.8957 0.0
C364 C 0.86397 0.32287 0.30131 0.0
C365 C 0.83575 0.30284 0.3372 0.0
C366 C 0.90027 0.32176 0.32777 0.0
C367 C 0.90927 0.30026 0.39052 0.0
C368 C 0.88052 0.28265 0.42945 0.0
C369 C 0.84417 0.28386 0.40313 0.0
C370 C 0.94816 0.29372 0.41505 0.0
C371 C 0.97787 0.29752 0.37058 0.0
C372 C 0.01589 0.2851 0.39112 0.0
C373 C 0.04636 0.30062 0.35397 0.0
C374 C 0.08229 0.28742 0.36725 0.0
C375 C 0.08844 0.25794 0.41724 0.0
H376 H 0.9995 0.24246 0.4704 0.0
C377 C 0.058 0.24273 0.4551 0.0
C378 C 0.02217 0.25603 0.44216 0.0
H379 H 0.06175 0.22014 0.49431 0.0
H380 H 0.85834 0.3384 0.25113 0.0
H381 H 0.92111 0.3372 0.2978 0.0
H382 H 0.88645 0.26637 0.47859 0.0
H383 H 0.8231 0.26835 0.43255 0.0
H384 H 0.95202 0.28277 0.47036 0.0
H385 H 0.97448 0.3088 0.31548 0.0
H386 H 0.04231 0.32277 0.3138 0.0
H387 H 0.10509 0.29971 0.337 0.0
C388 C 0.25627 0.35415 0.60685 0.0
C389 C 0.2486 0.34344 0.53485 0.0
C390 C 0.25631 0.39146 0.62512 0.0
C391 C 0.24918 0.41914 0.5715 0.0
C392 C 0.24181 0.40848 0.49944 0.0
C393 C 0.24162 0.37107 0.48117 0.0
C394 C 0.24754 0.45911 0.58945 0.0
C395 C 0.26493 0.47329 0.64775 0.0
C396 C 0.26311 0.51279 0.66906 0.0
C397 C 0.27564 0.52181 0.7392 0.0
C398 C 0.27626 0.55849 0.76136 0.0
C399 C 0.26458 0.58722 0.71371 0.0
H400 H 0.24123 0.53614 0.56675 0.0
C401 C 0.25114 0.57834 0.64408 0.0
C402 C 0.25054 0.54151 0.62172 0.0
H403 H 0.24224 0.59993 0.60587 0.0
H404 H 0.26131 0.33367 0.6499 0.0
H405 H 0.26078 0.39815 0.68189 0.0
H406 H 0.23595 0.42916 0.45715 0.0
H407 H 0.23541 0.36383 0.42522 0.0
H408 H 0.23154 0.47699 0.55295 0.0
H409 H 0.28155 0.45512 0.68267 0.0
H410 H 0.28535 0.50039 0.77704 0.0
H411 H 0.2863 0.56436 0.81573 0.0
C412 C 0.08683 0.00234 0.33298 0.0
C413 C 0.08312 0.04051 0.31796 0.0
C414 C 0.07727 0.97661 0.28014 0.0
C415 C 0.06455 0.98854 0.211 0.0
C416 C 0.06055 0.02671 0.19622 0.0
C417 C 0.06974 0.05236 0.24909 0.0
C418 C 0.05204 0.96081 0.15797 0.0
C419 C 0.05195 0.96729 0.08503 0.0
C420 C 0.02938 0.94509 0.03472 0.0
C421 C 0.01185 0.96345 0.97566 0.0
C422 C 0.98371 0.94605 0.93728 0.0
C423 C 0.97343 0.90985 0.95663 0.0
H424 H 0.03519 0.89226 0.09293 0.0
C425 C 0.9932 0.89018 0.01078 0.0
C426 C 0.02127 0.9076 0.0494 0.0
H427 H 0.98538 0.86218 0.0263 0.0
H428 H 0.09699 0.99229 0.38558 0.0
H429 H 0.07987 0.94732 0.29325 0.0
H430 H 0.04938 0.03695 0.14465 0.0
H431 H 0.0665 0.08154 0.23563 0.0
H432 H 0.03996 0.93564 0.18074 0.0
H433 H 0.06424 0.99253 0.06292 0.0
H434 H 0.01783 0.99225 0.96296 0.0
H435 H 0.96837 0.96163 0.89589 0.0
C436 C 0.5674 0.45287 0.47038 0.0
C437 C 0.5818 0.4656 0.40295 0.0
C438 C 0.5582 0.47778 0.525 0.0
C439 C 0.56312 0.51605 0.51332 0.0
C440 C 0.57651 0.52888 0.44532 0.0
C441 C 0.58612 0.50391 0.39086 0.0
C442 C 0.55157 0.54316 0.56883 0.0
C443 C 0.55209 0.53546 0.64136 0.0
C444 C 0.53178 0.55832 0.69482 0.0
C445 C 0.51467 0.54027 0.75456 0.0
C446 C 0.48832 0.55881 0.79634 0.0
C447 C 0.4795 0.59586 0.77994 0.0
H448 H 0.53915 0.61155 0.63907 0.0
C449 C 0.49923 0.61508 0.72528 0.0
C450 C 0.52544 0.59648 0.68307 0.0
H451 H 0.49243 0.64365 0.71165 0.0
H452 H 0.56369 0.42356 0.48157 0.0
H453 H 0.54654 0.46696 0.57567 0.0
H454 H 0.57984 0.55828 0.43455 0.0
H455 H 0.59704 0.51464 0.33942 0.0
H456 H 0.54033 0.56932 0.54839 0.0
H457 H 0.56352 0.50922 0.66109 0.0
H458 H 0.51934 0.51099 0.76515 0.0
H459 H 0.47291 0.5435 0.83784 0.0
C460 C 0.02388 0.09878 0.66206 0.0
C461 C 0.02868 0.12269 0.60115 0.0
C462 C 0.98862 0.08558 0.68027 0.0
C463 C 0.95772 0.09576 0.63727 0.0
C464 C 0.962 0.1222 0.58091 0.0
C465 C 0.99699 0.13615 0.56394 0.0
C466 C 0.92303 0.07422 0.64176 0.0
C467 C 0.90909 0.06192 0.70575 0.0
C468 C 0.88274 0.03071 0.71125 0.0
C469 C 0.85927 0.02825 0.77222 0.0
C470 C 0.84302 0.99454 0.79197 0.0
C471 C 0.85125 0.96231 0.75264 0.0
H472 H 0.90429 1.00092 0.61801 0.0
C473 C 0.87058 0.96596 0.686 0.0
C474 C 0.88623 0.99997 0.6654 0.0
H475 H 0.87715 0.94186 0.65398 0.0
H476 H 0.04758 0.08797 0.69201 0.0
H477 H 0.98617 0.06487 0.72373 0.0
H478 H 0.93859 0.13047 0.54719 0.0
H479 H 0.99944 0.15487 0.51709 0.0
H480 H 0.91043 0.06587 0.59066 0.0
H481 H 0.91989 0.07274 0.75659 0.0
H482 H 0.85589 0.05163 0.80797 0.0
H483 H 0.82757 0.993 0.84287 0.0
C484 C 0.50625 0.37622 0.12251 0.0
C485 C 0.54018 0.39036 0.09629 0.0
C486 C 0.47278 0.38908 0.09336 0.0
C487 C 0.47263 0.41572 0.03645 0.0
C488 C 0.50636 0.42654 0.00446 0.0
C489 C 0.53995 0.41425 0.03457 0.0
C490 C 0.43831 0.43565 0.015 0.0
C491 C 0.41445 0.44846 0.06565 0.0
C492 C 0.38858 0.47908 0.04704 0.0
C493 C 0.36845 0.47937 -0.01858 0.0
C494 C 0.35292 0.51235 0.9544 0.0
C495 C 0.35824 0.54571 -0.00833 0.0
H496 H 0.40355 0.51102 0.14146 0.0
C497 C 0.37378 0.54415 0.06229 0.0
C498 C 0.38866 0.51089 0.08997 0.0
H499 H 0.37774 0.56917 0.09303 0.0
H500 H 0.5053 0.35733 0.16933 0.0
H501 H 0.44707 0.37958 0.11767 0.0
H502 H 0.5068 0.44676 0.9598 0.0
H503 H 0.56554 0.42534 0.01254 0.0
H504 H 0.43631 0.44587 0.95868 0.0
H505 H 0.41908 0.44194 0.12333 0.0
H506 H 0.36714 0.45482 0.9484 0.0
H507 H 0.3403 0.51226 0.90059 0.0
loop_
_geom_bond_atom_site_label_1
_geom_bond_atom_site_label_2
_geom_bond_distance
_geom_bond_site_symmetry_2
_ccdc_geom_bond_type
C0 O27 1.312 . S
C0 O28 1.208 . S
C1 O22 1.331 . S
C1 O25 1.244 . S
C2 O24 1.264 . S
C2 O26 1.273 1_554 S
Mg3 O5 1.936 . S
Mg3 O12 2.081 . S
Mg3 O14 2.023 1_554 S
Mg3 O18 2.031 . S
Mg3 O27 2.291 . S
Mg4 O5 1.963 1_556 S
Mg4 O15 1.942 1_556 S
Mg4 O16 1.955 . S
Mg4 O23 1.986 . S
O5 Mg3 1.936 . S
O5 Mg4 1.963 1_554 S
O5 Mg6 1.915 1_554 S
Mg6 O5 1.915 1_556 S
Mg6 O7 1.915 . S
Mg6 O11 2.013 . S
Mg6 O17 2.114 1_556 S
Mg6 O21 2.013 . S
Mg6 O27 2.114 1_556 S
O7 Mg6 1.915 . S
O7 Mg8 1.936 1_556 S
O7 Mg9 1.963 . S
Mg8 O7 1.936 1_554 S
Mg8 O17 2.291 . S
Mg8 O22 2.081 1_554 S
Mg8 O24 2.023 . S
Mg8 O28 2.031 . S
Mg9 O7 1.963 . S
Mg9 O13 1.986 . S
Mg9 O25 1.942 . S
Mg9 O26 1.955 . S
C10 O21 1.191 . S
C10 O23 1.307 . S
O11 Mg6 2.013 . S
O11 C30 1.191 . S
O12 Mg3 2.081 . S
O12 C20 1.331 . S
O13 Mg9 1.986 . S
O13 C30 1.307 . S
O14 Mg3 2.023 1_556 S
O14 C29 1.264 . S
O15 Mg4 1.942 1_554 S
O15 C20 1.244 . S
O16 Mg4 1.955 . S
O16 C29 1.273 . S
O17 Mg6 2.114 1_554 S
O17 Mg8 2.291 . S
O17 C19 1.312 . S
O18 Mg3 2.031 . S
O18 C19 1.208 . S
C19 O17 1.312 . S
C19 O18 1.208 . S
C20 O12 1.331 . S
C20 O15 1.244 . S
O21 Mg6 2.013 . S
O21 C10 1.191 . S
O22 C1 1.331 . S
O22 Mg8 2.081 1_556 S
O23 Mg4 1.986 . S
O23 C10 1.307 . S
O24 C2 1.264 . S
O24 Mg8 2.023 . S
O25 C1 1.244 . S
O25 Mg9 1.942 . S
O26 C2 1.273 1_556 S
O26 Mg9 1.955 . S
O27 C0 1.312 . S
O27 Mg3 2.291 . S
O27 Mg6 2.114 1_554 S
O28 C0 1.208 . S
O28 Mg8 2.031 . S
C29 O14 1.264 . S
C29 O16 1.273 . S
C30 O11 1.191 . S
C30 O13 1.307 . S
C31 O58 1.312 . S
C31 O59 1.208 . S
C32 O53 1.331 . S
C32 O56 1.244 . S
C33 O55 1.264 . S
C33 O57 1.273 . S
Mg34 O36 1.936 . S
Mg34 O43 2.081 . S
Mg34 O45 2.023 . S
Mg34 O49 2.031 . S
Mg34 O58 2.291 . S
Mg35 O36 1.963 . S
Mg35 O46 1.942 . S
Mg35 O47 1.955 . S
Mg35 O54 1.986 . S
O36 Mg34 1.936 . S
O36 Mg35 1.963 . S
O36 Mg37 1.915 . S
Mg37 O36 1.915 . S
Mg37 O38 1.915 . S
Mg37 O42 2.013 . S
Mg37 O48 2.114 . S
Mg37 O52 2.013 . S
Mg37 O58 2.114 . S
O38 Mg37 1.915 . S
O38 Mg39 1.936 . S
O38 Mg40 1.963 . S
Mg39 O38 1.936 . S
Mg39 O48 2.291 . S
Mg39 O53 2.081 . S
Mg39 O55 2.023 . S
Mg39 O59 2.031 . S
Mg40 O38 1.963 . S
Mg40 O44 1.986 . S
Mg40 O56 1.942 . S
Mg40 O57 1.955 . S
C41 O52 1.191 . S
C41 O54 1.307 . S
O42 Mg37 2.013 . S
O42 C61 1.191 . S
O43 Mg34 2.081 . S
O43 C51 1.331 . S
O44 Mg40 1.986 . S
O44 C61 1.307 . S
O45 Mg34 2.023 . S
O45 C60 1.264 . S
O46 Mg35 1.942 . S
O46 C51 1.244 . S
O47 Mg35 1.955 . S
O47 C60 1.273 . S
O48 Mg37 2.114 . S
O48 Mg39 2.291 . S
O48 C50 1.312 . S
O49 Mg34 2.031 . S
O49 C50 1.208 . S
C50 O48 1.312 . S
C50 O49 1.208 . S
C51 O43 1.331 . S
C51 O46 1.244 . S
O52 Mg37 2.013 . S
O52 C41 1.191 . S
O53 C32 1.331 . S
O53 Mg39 2.081 . S
O54 Mg35 1.986 . S
O54 C41 1.307 . S
O55 C33 1.264 . S
O55 Mg39 2.023 . S
O56 C32 1.244 . S
O56 Mg40 1.942 . S
O57 C33 1.273 . S
O57 Mg40 1.955 . S
O58 C31 1.312 . S
O58 Mg34 2.291 . S
O58 Mg37 2.114 . S
O59 C31 1.208 . S
O59 Mg39 2.031 . S
C60 O45 1.264 . S
C60 O47 1.273 . S
C61 O42 1.191 . S
C61 O44 1.307 . S
C62 O89 1.312 . S
C62 O90 1.208 . S
C63 O84 1.331 . S
C63 O87 1.244 . S
C64 O86 1.264 . S
C64 O88 1.273 . S
Mg65 O67 1.936 . S
Mg65 O74 2.081 . S
Mg65 O76 2.023 . S
Mg65 O80 2.031 . S
Mg65 O89 2.291 . S
Mg66 O67 1.963 . S
Mg66 O77 1.942 . S
Mg66 O78 1.955 . S
Mg66 O85 1.986 . S
O67 Mg65 1.936 . S
O67 Mg66 1.963 . S
O67 Mg68 1.915 . S
Mg68 O67 1.915 . S
Mg68 O69 1.915 . S
Mg68 O73 2.013 . S
Mg68 O79 2.114 . S
Mg68 O83 2.013 . S
Mg68 O89 2.114 . S
O69 Mg68 1.915 . S
O69 Mg70 1.936 . S
O69 Mg71 1.963 . S
Mg70 O69 1.936 . S
Mg70 O79 2.291 . S
Mg70 O84 2.081 . S
Mg70 O86 2.023 . S
Mg70 O90 2.031 . S
Mg71 O69 1.963 . S
Mg71 O75 1.986 . S
Mg71 O87 1.942 . S
Mg71 O88 1.955 . S
C72 O83 1.191 . S
C72 O85 1.307 . S
O73 Mg68 2.013 . S
O73 C92 1.191 . S
O74 Mg65 2.081 . S
O74 C82 1.331 . S
O75 Mg71 1.986 . S
O75 C92 1.307 . S
O76 Mg65 2.023 . S
O76 C91 1.264 . S
O77 Mg66 1.942 . S
O77 C82 1.244 . S
O78 Mg66 1.955 . S
O78 C91 1.273 . S
O79 Mg68 2.114 . S
O79 Mg70 2.291 . S
O79 C81 1.312 . S
O80 Mg65 2.031 . S
O80 C81 1.208 . S
C81 O79 1.312 . S
C81 O80 1.208 . S
C82 O74 1.331 . S
C82 O77 1.244 . S
O83 Mg68 2.013 . S
O83 C72 1.191 . S
O84 C63 1.331 . S
O84 Mg70 2.081 . S
O85 Mg66 1.986 . S
O85 C72 1.307 . S
O86 C64 1.264 . S
O86 Mg70 2.023 . S
O87 C63 1.244 . S
O87 Mg71 1.942 . S
O88 C64 1.273 . S
O88 Mg71 1.955 . S
O89 C62 1.312 . S
O89 Mg65 2.291 . S
O89 Mg68 2.114 . S
O90 C62 1.208 . S
O90 Mg70 2.031 . S
C91 O76 1.264 . S
C91 O78 1.273 . S
C92 O73 1.191 . S
C92 O75 1.307 . S
C93 O120 1.312 . S
C93 O121 1.208 . S
C94 O115 1.331 . S
C94 O118 1.244 . S
C95 O117 1.264 . S
C95 O119 1.273 . S
Mg96 O98 1.936 . S
Mg96 O105 2.081 . S
Mg96 O107 2.023 . S
Mg96 O111 2.031 . S
Mg96 O120 2.291 . S
Mg97 O98 1.963 . S
Mg97 O108 1.942 . S
Mg97 O109 1.955 . S
Mg97 O116 1.986 . S
O98 Mg96 1.936 . S
O98 Mg97 1.963 . S
O98 Mg99 1.915 . S
Mg99 O98 1.915 . S
Mg99 O100 1.915 . S
Mg99 O104 2.013 . S
Mg99 O110 2.114 . S
Mg99 O114 2.013 . S
Mg99 O120 2.114 . S
O100 Mg99 1.915 . S
O100 Mg101 1.936 . S
O100 Mg102 1.963 . S
Mg101 O100 1.936 . S
Mg101 O110 2.291 . S
Mg101 O115 2.081 . S
Mg101 O117 2.023 . S
Mg101 O121 2.031 . S
Mg102 O100 1.963 . S
Mg102 O106 1.986 . S
Mg102 O118 1.942 . S
Mg102 O119 1.955 . S
C103 O114 1.191 . S
C103 O116 1.307 . S
O104 Mg99 2.013 . S
O104 C123 1.191 . S
O105 Mg96 2.081 . S
O105 C113 1.331 . S
O106 Mg102 1.986 . S
O106 C123 1.307 . S
O107 Mg96 2.023 . S
O107 C122 1.264 . S
O108 Mg97 1.942 . S
O108 C113 1.244 . S
O109 Mg97 1.955 . S
O109 C122 1.273 . S
O110 Mg99 2.114 . S
O110 Mg101 2.291 . S
O110 C112 1.312 . S
O111 Mg96 2.031 . S
O111 C112 1.208 . S
C112 O110 1.312 . S
C112 O111 1.208 . S
C113 O105 1.331 . S
C113 O108 1.244 . S
O114 Mg99 2.013 . S
O114 C103 1.191 . S
O115 C94 1.331 . S
O115 Mg101 2.081 . S
O116 Mg97 1.986 . S
O116 C103 1.307 . S
O117 C95 1.264 . S
O117 Mg101 2.023 . S
O118 C94 1.244 . S
O118 Mg102 1.942 . S
O119 C95 1.273 . S
O119 Mg102 1.955 . S
O120 C93 1.312 . S
O120 Mg96 2.291 . S
O120 Mg99 2.114 . S
O121 C93 1.208 . S
O121 Mg101 2.031 . S
C122 O107 1.264 . S
C122 O109 1.273 . S
C123 O104 1.191 . S
C123 O106 1.307 . S
C124 C125 1.386 . S
C124 C126 1.383 . S
C124 H140 0.951 . S
C125 C124 1.386 . S
C125 C129 1.383 . S
C126 C124 1.383 . S
C126 C127 1.402 . S
C126 H141 0.951 . S
C127 C126 1.402 . S
C127 C128 1.375 . S
C127 C130 1.481 . S
C128 C127 1.375 . S
C128 C129 1.367 . S
C128 H142 0.951 . S
C129 C125 1.383 . S
C129 C128 1.367 . S
C129 H143 0.950 . S
C130 C127 1.481 . S
C130 C131 1.297 . S
C130 H144 0.950 . S
C131 C130 1.297 . S
C131 C132 1.479 . S
C131 H145 0.950 . S
C132 C131 1.479 . S
C132 C133 1.375 . S
C132 C138 1.404 . S
C133 C132 1.375 . S
C133 C134 1.369 . S
C133 H146 0.950 . S
C134 C133 1.369 . S
C134 C135 1.392 . S
C134 H147 0.951 . S
C135 C134 1.392 . S
C135 C137 1.384 . S
H136 C138 0.949 . S
C137 C135 1.384 . S
C137 C138 1.385 . S
C137 H139 0.950 . S
C138 C132 1.404 . S
C138 H136 0.949 . S
C138 C137 1.385 . S
H139 C137 0.950 . S
H140 C124 0.951 . S
H141 C126 0.951 . S
H142 C128 0.951 . S
H143 C129 0.950 . S
H144 C130 0.950 . S
H145 C131 0.950 . S
H146 C133 0.950 . S
H147 C134 0.951 . S
C148 C149 1.386 . S
C148 C150 1.383 . S
C148 H164 0.951 . S
C149 C148 1.386 . S
C149 C153 1.383 . S
C150 C148 1.383 . S
C150 C151 1.402 . S
C150 H165 0.951 . S
C151 C150 1.402 . S
C151 C152 1.375 . S
C151 C154 1.481 . S
C152 C151 1.375 . S
C152 C153 1.367 . S
C152 H166 0.951 . S
C153 C149 1.383 . S
C153 C152 1.367 . S
C153 H167 0.950 . S
C154 C151 1.481 . S
C154 C155 1.297 . S
C154 H168 0.950 . S
C155 C154 1.297 . S
C155 C156 1.479 . S
C155 H169 0.950 . S
C156 C155 1.479 . S
C156 C157 1.375 . S
C156 C162 1.404 . S
C157 C156 1.375 . S
C157 C158 1.369 . S
C157 H170 0.950 . S
C158 C157 1.369 . S
C158 C159 1.392 1_556 S
C158 H171 0.946 1_556 S
C159 C158 1.392 1_554 S
C159 C161 1.384 1_554 S
H160 C162 0.949 . S
C161 C159 1.384 1_556 S
C161 C162 1.385 . S
C161 H163 0.950 . S
C162 C156 1.404 . S
C162 H160 0.949 . S
C162 C161 1.385 . S
H163 C161 0.950 . S
H164 C148 0.951 . S
H165 C150 0.951 . S
H166 C152 0.951 . S
H167 C153 0.950 . S
H168 C154 0.950 . S
H169 C155 0.950 . S
H170 C157 0.950 . S
H171 C158 0.946 1_554 S
C172 C173 1.386 . S
C172 C174 1.383 . S
C172 H188 0.951 . S
C173 C172 1.386 . S
C173 C177 1.383 . S
C174 C172 1.383 . S
C174 C175 1.402 . S
C174 H189 0.951 . S
C175 C174 1.402 . S
C175 C176 1.375 . S
C175 C178 1.481 . S
C176 C175 1.375 . S
C176 C177 1.367 . S
C176 H190 0.951 . S
C177 C173 1.383 . S
C177 C176 1.367 . S
C177 H191 0.950 . S
C178 C175 1.481 . S
C178 C179 1.297 1_556 S
C178 H192 0.950 1_556 S
C179 C178 1.297 1_554 S
C179 C180 1.479 . S
C179 H193 0.950 . S
C180 C179 1.479 . S
C180 C181 1.375 . S
C180 C186 1.404 . S
C181 C180 1.375 . S
C181 C182 1.369 . S
C181 H194 0.950 . S
C182 C181 1.369 . S
C182 C183 1.392 . S
C182 H195 0.951 . S
C183 C182 1.392 . S
C183 C185 1.384 . S
H184 C186 0.949 . S
C185 C183 1.384 . S
C185 C186 1.385 . S
C185 H187 0.950 . S
C186 C180 1.404 . S
C186 H184 0.949 . S
C186 C185 1.385 . S
H187 C185 0.950 . S
H188 C172 0.951 . S
H189 C174 0.951 . S
H190 C176 0.951 . S
H191 C177 0.950 . S
H192 C178 0.950 1_554 S
H193 C179 0.950 . S
H194 C181 0.950 . S
H195 C182 0.951 . S
C196 C197 1.382 1_554 S
C196 C198 1.383 . S
C196 H212 0.951 . S
C197 C196 1.382 1_556 S
C197 C201 1.380 1_556 S
C198 C196 1.383 . S
C198 C199 1.402 . S
C198 H213 0.951 . S
C199 C198 1.402 . S
C199 C200 1.375 . S
C199 C202 1.481 . S
C200 C199 1.375 . S
C200 C201 1.367 . S
C200 H214 0.951 . S
C201 C197 1.380 1_554 S
C201 C200 1.367 . S
C201 H215 0.950 1_554 S
C202 C199 1.481 . S
C202 C203 1.297 . S
C202 H216 0.950 . S
C203 C202 1.297 . S
C203 C204 1.479 . S
C203 H217 0.950 . S
C204 C203 1.479 . S
C204 C205 1.375 . S
C204 C210 1.404 . S
C205 C204 1.375 . S
C205 C206 1.369 . S
C205 H218 0.950 . S
C206 C205 1.369 . S
C206 C207 1.392 . S
C206 H219 0.951 . S
C207 C206 1.392 . S
C207 C209 1.384 . S
H208 C210 0.949 . S
C209 C207 1.384 . S
C209 C210 1.385 . S
C209 H211 0.950 . S
C210 C204 1.404 . S
C210 H208 0.949 . S
C210 C209 1.385 . S
H211 C209 0.950 . S
H212 C196 0.951 . S
H213 C198 0.951 . S
H214 C200 0.951 . S
H215 C201 0.950 1_556 S
H216 C202 0.950 . S
H217 C203 0.950 . S
H218 C205 0.950 . S
H219 C206 0.951 . S
C220 C221 1.386 . S
C220 C222 1.383 . S
C220 H236 0.951 . S
C221 C220 1.386 . S
C221 C225 1.383 . S
C222 C220 1.383 . S
C222 C223 1.402 . S
C222 H237 0.951 . S
C223 C222 1.402 . S
C223 C224 1.375 . S
C223 C226 1.481 . S
C224 C223 1.375 . S
C224 C225 1.367 . S
C224 H238 0.951 . S
C225 C221 1.383 . S
C225 C224 1.367 . S
C225 H239 0.950 . S
C226 C223 1.481 . S
C226 C227 1.297 . S
C226 H240 0.950 . S
C227 C226 1.297 . S
C227 C228 1.479 . S
C227 H241 0.950 . S
C228 C227 1.479 . S
C228 C229 1.375 . S
C228 C234 1.404 . S
C229 C228 1.375 . S
C229 C230 1.369 . S
C229 H242 0.950 . S
C230 C229 1.369 . S
C230 C231 1.392 . S
C230 H243 0.951 . S
C231 C230 1.392 . S
C231 C233 1.384 . S
H232 C234 0.949 . S
C233 C231 1.384 . S
C233 C234 1.385 . S
C233 H235 0.950 . S
C234 C228 1.404 . S
C234 H232 0.949 . S
C234 C233 1.385 . S
H235 C233 0.950 . S
H236 C220 0.951 . S
H237 C222 0.951 . S
H238 C224 0.951 . S
H239 C225 0.950 . S
H240 C226 0.950 . S
H241 C227 0.950 . S
H242 C229 0.950 . S
H243 C230 0.951 . S
C244 C245 1.386 . S
C244 C246 1.383 . S
C244 H260 0.951 . S
C245 C244 1.386 . S
C245 C249 1.383 . S
C246 C244 1.383 . S
C246 C247 1.402 . S
C246 H261 0.951 . S
C247 C246 1.402 . S
C247 C248 1.375 . S
C247 C250 1.481 . S
C248 C247 1.375 . S
C248 C249 1.367 . S
C248 H262 0.951 . S
C249 C245 1.383 . S
C249 C248 1.367 . S
C249 H263 0.950 . S
C250 C247 1.481 . S
C250 C251 1.297 . S
C250 H264 0.950 . S
C251 C250 1.297 . S
C251 C252 1.479 . S
C251 H265 0.950 . S
C252 C251 1.479 . S
C252 C253 1.375 1_545 S
C252 C258 1.404 1_545 S
C253 C252 1.375 1_565 S
C253 C254 1.369 . S
C253 H266 0.948 1_565 S
C254 C253 1.369 . S
C254 C255 1.392 . S
C254 H267 0.951 . S
C255 C254 1.392 . S
C255 C257 1.384 . S
H256 C258 0.949 1_545 S
C257 C255 1.384 . S
C257 C258 1.385 . S
C257 H259 0.950 1_554 S
C258 C252 1.404 1_565 S
C258 H256 0.949 1_565 S
C258 C257 1.385 . S
H259 C257 0.950 1_556 S
H260 C244 0.951 . S
H261 C246 0.951 . S
H262 C248 0.951 . S
H263 C249 0.950 . S
H264 C250 0.950 . S
H265 C251 0.950 . S
H266 C253 0.948 1_545 S
H267 C254 0.951 . S
C268 C269 1.386 . S
C268 C270 1.383 . S
C268 H284 0.951 . S
C269 C268 1.386 . S
C269 C273 1.383 . S
C270 C268 1.383 . S
C270 C271 1.402 . S
C270 H285 0.951 . S
C271 C270 1.402 . S
C271 C272 1.375 . S
C271 C274 1.481 . S
C272 C271 1.375 . S
C272 C273 1.367 . S
C272 H286 0.951 . S
C273 C269 1.383 . S
C273 C272 1.367 . S
C273 H287 0.950 . S
C274 C271 1.481 . S
C274 C275 1.297 . S
C274 H288 0.950 . S
C275 C274 1.297 . S
C275 C276 1.479 . S
C275 H289 0.950 . S
C276 C275 1.479 . S
C276 C277 1.375 . S
C276 C282 1.404 . S
C277 C276 1.375 . S
C277 C278 1.369 . S
C277 H290 0.950 . S
C278 C277 1.369 . S
C278 C279 1.392 . S
C278 H291 0.951 . S
C279 C278 1.392 . S
C279 C281 1.384 . S
H280 C282 0.949 . S
C281 C279 1.384 . S
C281 C282 1.385 . S
C281 H283 0.950 . S
C282 C276 1.404 . S
C282 H280 0.949 . S
C282 C281 1.385 . S
H283 C281 0.950 . S
H284 C268 0.951 . S
H285 C270 0.951 . S
H286 C272 0.951 . S
H287 C273 0.950 . S
H288 C274 0.950 . S
H289 C275 0.950 . S
H290 C277 0.950 . S
H291 C278 0.951 . S
C292 C293 1.386 . S
C292 C294 1.383 . S
C292 H308 0.951 . S
C293 C292 1.386 . S
C293 C297 1.383 . S
C294 C292 1.383 . S
C294 C295 1.402 . S
C294 H309 0.951 . S
C295 C294 1.402 . S
C295 C296 1.375 . S
C295 C298 1.481 . S
C296 C295 1.375 . S
C296 C297 1.367 . S
C296 H310 0.951 . S
C297 C293 1.383 . S
C297 C296 1.367 . S
C297 H311 0.950 . S
C298 C295 1.481 . S
C298 C299 1.297 . S
C298 H312 0.950 . S
C299 C298 1.297 . S
C299 C300 1.479 . S
C299 H313 0.950 . S
C300 C299 1.479 . S
C300 C301 1.375 . S
C300 C306 1.404 1_565 S
C301 C300 1.375 . S
C301 C302 1.369 1_565 S
C301 H314 0.950 . S
C302 C301 1.369 1_545 S
C302 C303 1.392 . S
C302 H315 0.951 . S
C303 C302 1.392 . S
C303 C305 1.384 . S
H304 C306 0.949 1_565 S
C305 C303 1.384 . S
C305 C306 1.385 . S
C305 H307 0.950 . S
C306 C300 1.404 1_545 S
C306 H304 0.949 1_545 S
C306 C305 1.385 . S
H307 C305 0.950 . S
H308 C292 0.951 . S
H309 C294 0.951 . S
H310 C296 0.951 . S
H311 C297 0.950 . S
H312 C298 0.950 . S
H313 C299 0.950 . S
H314 C301 0.950 . S
H315 C302 0.951 . S
C316 C317 1.386 . S
C316 C318 1.383 . S
C316 H332 0.951 1_556 S
C317 C316 1.386 . S
C317 C321 1.383 . S
C318 C316 1.383 . S
C318 C319 1.402 1_655 S
C318 H333 0.951 1_655 S
C319 C318 1.402 1_455 S
C319 C320 1.375 1_455 S
C319 C322 1.481 . S
C320 C319 1.375 1_655 S
C320 C321 1.367 . S
C320 H334 0.951 1_655 S
C321 C317 1.383 . S
C321 C320 1.367 . S
C321 H335 0.950 . S
C322 C319 1.481 . S
C322 C323 1.297 . S
C322 H336 0.950 . S
C323 C322 1.297 . S
C323 C324 1.479 . S
C323 H337 0.950 . S
C324 C323 1.479 . S
C324 C325 1.375 . S
C324 C330 1.404 . S
C325 C324 1.375 . S
C325 C326 1.369 . S
C325 H338 0.950 . S
C326 C325 1.369 . S
C326 C327 1.392 . S
C326 H339 0.951 . S
C327 C326 1.392 . S
C327 C329 1.384 . S
H328 C330 0.949 . S
C329 C327 1.384 . S
C329 C330 1.385 . S
C329 H331 0.950 . S
C330 C324 1.404 . S
C330 H328 0.949 . S
C330 C329 1.385 . S
H331 C329 0.950 . S
H332 C316 0.951 1_554 S
H333 C318 0.951 1_455 S
H334 C320 0.951 1_455 S
H335 C321 0.950 . S
H336 C322 0.950 . S
H337 C323 0.950 . S
H338 C325 0.950 . S
H339 C326 0.951 . S
C340 C341 1.386 . S
C340 C342 1.383 . S
C340 H356 0.951 . S
C341 C340 1.386 . S
C341 C345 1.383 . S
C342 C340 1.383 . S
C342 C343 1.402 . S
C342 H357 0.951 . S
C343 C342 1.402 . S
C343 C344 1.375 . S
C343 C346 1.481 . S
C344 C343 1.375 . S
C344 C345 1.367 . S
C344 H358 0.951 . S
C345 C341 1.383 . S
C345 C344 1.367 . S
C345 H359 0.950 . S
C346 C343 1.481 . S
C346 C347 1.297 . S
C346 H360 0.950 . S
C347 C346 1.297 . S
C347 C348 1.479 . S
C347 H361 0.950 . S
C348 C347 1.479 . S
C348 C349 1.375 . S
C348 C354 1.404 . S
C349 C348 1.375 . S
C349 C350 1.369 . S
C349 H362 0.950 . S
C350 C349 1.369 . S
C350 C351 1.392 . S
C350 H363 0.951 1_554 S
C351 C350 1.392 . S
C351 C353 1.384 . S
H352 C354 0.949 . S
C353 C351 1.384 . S
C353 C354 1.385 . S
C353 H355 0.950 . S
C354 C348 1.404 . S
C354 H352 0.949 . S
C354 C353 1.385 . S
H355 C353 0.950 . S
H356 C340 0.951 . S
H357 C342 0.951 . S
H358 C344 0.951 . S
H359 C345 0.950 . S
H360 C346 0.950 . S
H361 C347 0.950 . S
H362 C349 0.950 . S
H363 C350 0.951 1_556 S
C364 C365 1.386 . S
C364 C366 1.383 . S
C364 H380 0.951 . S
C365 C364 1.386 . S
C365 C369 1.383 . S
C366 C364 1.383 . S
C366 C367 1.402 . S
C366 H381 0.951 . S
C367 C366 1.402 . S
C367 C368 1.375 . S
C367 C370 1.481 . S
C368 C367 1.375 . S
C368 C369 1.367 . S
C368 H382 0.951 . S
C369 C365 1.383 . S
C369 C368 1.367 . S
C369 H383 0.950 . S
C370 C367 1.481 . S
C370 C371 1.297 . S
C370 H384 0.950 . S
C371 C370 1.297 . S
C371 C372 1.479 . S
C371 H385 0.950 . S
C372 C371 1.479 . S
C372 C373 1.375 1_655 S
C372 C378 1.404 . S
C373 C372 1.375 1_455 S
C373 C374 1.369 . S
C373 H386 0.945 1_455 S
C374 C373 1.369 . S
C374 C375 1.392 . S
C374 H387 0.951 . S
C375 C374 1.392 . S
C375 C377 1.384 . S
H376 C378 0.949 . S
C377 C375 1.384 . S
C377 C378 1.385 1_455 S
C377 H379 0.950 . S
C378 C372 1.404 . S
C378 H376 0.949 . S
C378 C377 1.385 1_655 S
H379 C377 0.950 . S
H380 C364 0.951 . S
H381 C366 0.951 . S
H382 C368 0.951 . S
H383 C369 0.950 . S
H384 C370 0.950 . S
H385 C371 0.950 . S
H386 C373 0.945 1_655 S
H387 C374 0.951 . S
C388 C389 1.386 . S
C388 C390 1.383 . S
C388 H404 0.951 . S
C389 C388 1.386 . S
C389 C393 1.383 . S
C390 C388 1.383 . S
C390 C391 1.402 . S
C390 H405 0.951 . S
C391 C390 1.402 . S
C391 C392 1.375 . S
C391 C394 1.481 . S
C392 C391 1.375 . S
C392 C393 1.367 . S
C392 H406 0.951 . S
C393 C389 1.383 . S
C393 C392 1.367 . S
C393 H407 0.950 . S
C394 C391 1.481 . S
C394 C395 1.297 . S
C394 H408 0.950 . S
C395 C394 1.297 . S
C395 C396 1.479 . S
C395 H409 0.950 . S
C396 C395 1.479 . S
C396 C397 1.375 . S
C396 C402 1.404 . S
C397 C396 1.375 . S
C397 C398 1.369 . S
C397 H410 0.950 . S
C398 C397 1.369 . S
C398 C399 1.392 . S
C398 H411 0.951 . S
C399 C398 1.392 . S
C399 C401 1.384 . S
H400 C402 0.949 . S
C401 C399 1.384 . S
C401 C402 1.385 . S
C401 H403 0.950 . S
C402 C396 1.404 . S
C402 H400 0.949 . S
C402 C401 1.385 . S
H403 C401 0.950 . S
H404 C388 0.951 . S
H405 C390 0.951 . S
H406 C392 0.951 . S
H407 C393 0.950 . S
H408 C394 0.950 . S
H409 C395 0.950 . S
H410 C397 0.950 . S
H411 C398 0.951 . S
C412 C413 1.386 . S
C412 C414 1.383 . S
C412 H428 0.951 . S
C413 C412 1.386 . S
C413 C417 1.383 . S
C414 C412 1.383 . S
C414 C415 1.402 . S
C414 H429 0.951 1_545 S
C415 C414 1.402 . S
C415 C416 1.375 . S
C415 C418 1.481 1_545 S
C416 C415 1.375 . S
C416 C417 1.367 . S
C416 H430 0.951 . S
C417 C413 1.383 . S
C417 C416 1.367 . S
C417 H431 0.950 . S
C418 C415 1.481 1_565 S
C418 C419 1.297 . S
C418 H432 0.950 . S
C419 C418 1.297 . S
C419 C420 1.479 1_455 S
C419 H433 0.950 . S
C420 C419 1.479 1_655 S
C420 C421 1.375 . S
C420 C426 1.404 1_655 S
C421 C420 1.375 . S
C421 C422 1.369 . S
C421 H434 0.950 . S
C422 C421 1.369 . S
C422 C423 1.392 . S
C422 H435 0.951 . S
C423 C422 1.392 . S
C423 C425 1.384 . S
H424 C426 0.949 . S
C425 C423 1.384 . S
C425 C426 1.385 1_655 S
C425 H427 0.950 . S
C426 C420 1.404 1_455 S
C426 H424 0.949 . S
C426 C425 1.385 1_455 S
H427 C425 0.950 . S
H428 C412 0.951 . S
H429 C414 0.951 1_565 S
H430 C416 0.951 . S
H431 C417 0.950 . S
H432 C418 0.950 . S
H433 C419 0.950 . S
H434 C421 0.950 . S
H435 C422 0.951 . S
C436 C437 1.386 . S
C436 C438 1.383 . S
C436 H452 0.951 . S
C437 C436 1.386 . S
C437 C441 1.383 . S
C438 C436 1.383 . S
C438 C439 1.402 . S
C438 H453 0.951 . S
C439 C438 1.402 . S
C439 C440 1.375 . S
C439 C442 1.481 . S
C440 C439 1.375 . S
C440 C441 1.367 . S
C440 H454 0.951 . S
C441 C437 1.383 . S
C441 C440 1.367 . S
C441 H455 0.950 . S
C442 C439 1.481 . S
C442 C443 1.297 . S
C442 H456 0.950 . S
C443 C442 1.297 . S
C443 C444 1.479 . S
C443 H457 0.950 . S
C444 C443 1.479 . S
C444 C445 1.375 . S
C444 C450 1.404 . S
C445 C444 1.375 . S
C445 C446 1.369 . S
C445 H458 0.950 . S
C446 C445 1.369 . S
C446 C447 1.392 . S
C446 H459 0.951 . S
C447 C446 1.392 . S
C447 C449 1.384 . S
H448 C450 0.949 . S
C449 C447 1.384 . S
C449 C450 1.385 . S
C449 H451 0.950 . S
C450 C444 1.404 . S
C450 H448 0.949 . S
C450 C449 1.385 . S
H451 C449 0.950 . S
H452 C436 0.951 . S
H453 C438 0.951 . S
H454 C440 0.951 . S
H455 C441 0.950 . S
H456 C442 0.950 . S
H457 C443 0.950 . S
H458 C445 0.950 . S
H459 C446 0.951 . S
C460 C461 1.386 . S
C460 C462 1.383 . S
C460 H476 0.951 . S
C461 C460 1.386 . S
C461 C465 1.383 . S
C462 C460 1.383 . S
C462 C463 1.402 1_455 S
C462 H477 0.951 . S
C463 C462 1.402 1_655 S
C463 C464 1.375 . S
C463 C466 1.481 . S
C464 C463 1.375 . S
C464 C465 1.367 1_655 S
C464 H478 0.951 . S
C465 C461 1.383 . S
C465 C464 1.367 1_455 S
C465 H479 0.950 . S
C466 C463 1.481 . S
C466 C467 1.297 . S
C466 H480 0.950 . S
C467 C466 1.297 . S
C467 C468 1.479 . S
C467 H481 0.950 . S
C468 C467 1.479 . S
C468 C469 1.375 . S
C468 C474 1.404 1_545 S
C469 C468 1.375 . S
C469 C470 1.369 1_545 S
C469 H482 0.950 . S
C470 C469 1.369 1_565 S
C470 C471 1.392 . S
C470 H483 0.951 . S
C471 C470 1.392 . S
C471 C473 1.384 . S
H472 C474 0.949 . S
C473 C471 1.384 . S
C473 C474 1.385 . S
C473 H475 0.950 . S
C474 C468 1.404 1_565 S
C474 H472 0.949 . S
C474 C473 1.385 . S
H475 C473 0.950 . S
H476 C460 0.951 . S
H477 C462 0.951 . S
H478 C464 0.951 . S
H479 C465 0.950 . S
H480 C466 0.950 . S
H481 C467 0.950 . S
H482 C469 0.950 . S
H483 C470 0.951 . S
C484 C485 1.386 . S
C484 C486 1.383 . S
C484 H500 0.951 . S
C485 C484 1.386 . S
C485 C489 1.383 . S
C486 C484 1.383 . S
C486 C487 1.402 . S
C486 H501 0.951 . S
C487 C486 1.402 . S
C487 C488 1.375 . S
C487 C490 1.481 . S
C488 C487 1.375 . S
C488 C489 1.367 . S
C488 H502 0.951 . S
C489 C485 1.383 . S
C489 C488 1.367 . S
C489 H503 0.950 . S
C490 C487 1.481 . S
C490 C491 1.297 . S
C490 H504 0.950 . S
C491 C490 1.297 . S
C491 C492 1.479 1_554 S
C491 H505 0.950 1_554 S
C492 C491 1.479 1_556 S
C492 C493 1.375 . S
C492 C498 1.404 . S
C493 C492 1.375 . S
C493 C494 1.369 . S
C493 H506 0.950 . S
C494 C493 1.369 . S
C494 C495 1.392 . S
C494 H507 0.951 . S
C495 C494 1.392 . S
C495 C497 1.384 . S
H496 C498 0.949 1_554 S
C497 C495 1.384 . S
C497 C498 1.385 . S
C497 H499 0.950 . S
C498 C492 1.404 . S
C498 H496 0.949 1_556 S
C498 C497 1.385 . S
H499 C497 0.950 . S
H500 C484 0.951 . S
H501 C486 0.951 . S
H502 C488 0.951 . S
H503 C489 0.950 . S
H504 C490 0.950 . S
H505 C491 0.950 1_556 S
H506 C493 0.950 . S
H507 C494 0.951 . S
C125 C19 1.253 . S
C135 C30 1.203 . S
C149 C50 1.239 . S
C159 C61 1.237 . S
C173 C72 1.245 . S
C183 C62 1.238 . S
C197 C103 1.214 . S
C207 C93 1.236 . S
C221 C123 1.453 . S
C231 C1 1.614 . S
C245 C32 1.754 . S
C255 C0 1.666 . S
C269 C91 1.950 . S
C279 C31 1.949 . S
C293 C122 1.820 . S
C303 C92 1.616 . S
C317 C10 1.442 . S
C327 C113 1.602 . S
C341 C41 1.692 . S
C351 C2 1.810 . S
C365 C33 1.960 . S
C375 C81 1.961 . S
C389 C82 1.718 . S
C399 C112 1.672 . S
C413 C63 0.453 . S
C423 C20 0.264 . S
C437 C51 0.508 . S
C447 C94 0.295 . S
C461 C64 0.556 . S
C471 C29 0.671 . S
C485 C60 0.471 . S
C495 C95 0.681 . S
