# Generated by pormake.
# Topology tfs, (6)-cn, num edge types: 1
# Building blocks:
#     Node 0, Type 0, BuildingBlock: BETFAJ_clean_sbu_0, # of connection points: 6
#     Node 1, Type 0, BuildingBlock: BETFAJ_clean_sbu_0, # of connection points: 6
#     Node 2, Type 0, BuildingBlock: BETFAJ_clean_sbu_0, # of connection points: 6
#     Node 3, Type 0, BuildingBlock: BETFAJ_clean_sbu_0, # of connection points: 6
#     Node 4, Type 0, BuildingBlock: BETFAJ_clean_sbu_0, # of connection points: 6
#     Node 5, Type 0, BuildingBlock: BETFAJ_clean_sbu_0, # of connection points: 6
#     Edge 6, Type (0, 0), BuildingBlock: TEMPAE_clean_linker_10, # of connection points: 2
#     Edge 7, Type (0, 0), BuildingBlock: TEMPAE_clean_linker_10, # of connection points: 2
#     Edge 8, Type (0, 0), BuildingBlock: TEMPAE_clean_linker_10, # of connection points: 2
#     Edge 9, Type (0, 0), BuildingBlock: TEMPAE_clean_linker_10, # of connection points: 2
#     Edge 10, Type (0, 0), BuildingBlock: TEMPAE_clean_linker_10, # of connection points: 2
#     Edge 11, Type (0, 0), BuildingBlock: TEMPAE_clean_linker_10, # of connection points: 2
#     Edge 12, Type (0, 0), BuildingBlock: TEMPAE_clean_linker_10, # of connection points: 2
#     Edge 13, Type (0, 0), BuildingBlock: TEMPAE_clean_linker_10, # of connection points: 2
#     Edge 14, Type (0, 0), BuildingBlock: TEMPAE_clean_linker_10, # of connection points: 2
#     Edge 15, Type (0, 0), BuildingBlock: TEMPAE_clean_linker_10, # of connection points: 2
#     Edge 16, Type (0, 0), BuildingBlock: TEMPAE_clean_linker_10, # of connection points: 2
#     Edge 17, Type (0, 0), BuildingBlock: TEMPAE_clean_linker_10, # of connection points: 2
#     Edge 18, Type (0, 0), BuildingBlock: TEMPAE_clean_linker_10, # of connection points: 2
#     Edge 19, Type (0, 0), BuildingBlock: TEMPAE_clean_linker_10, # of connection points: 2
#     Edge 20, Type (0, 0), BuildingBlock: TEMPAE_clean_linker_10, # of connection points: 2
#     Edge 21, Type (0, 0), BuildingBlock: TEMPAE_clean_linker_10, # of connection points: 2
#     Edge 22, Type (0, 0), BuildingBlock: TEMPAE_clean_linker_10, # of connection points: 2
#     Edge 23, Type (0, 0), BuildingBlock: TEMPAE_clean_linker_10, # of connection points: 2
# Relax obj value: 0.559
# Max RMSD: 0.460
# Mean RMSD: 0.361
data_MOF--net-tfs--node1-BETFAJ_clean_sbu_0--edge1-TEMPAE_clean_linker_10
_symmetry_space_group_name_H-M    P1
_symmetry_Int_Tables_number       1
_symmetry_cell_setting            triclinic
loop_
_symmetry_equiv_pos_as_xyz
'x, y, z'
_cell_length_a     55.795647
_cell_length_b     52.213804
_cell_length_c     12.91408
_cell_angle_alpha  98.86784
_cell_angle_beta   91.777891
_cell_angle_gamma 127.47788
loop_
_atom_site_label
_atom_site_type_symbol
_atom_site_fract_x
_atom_site_fract_y
_atom_site_fract_z
_atom_type_partial_charge
Sm0 Sm 0.31941 0.45681 0.62536 0.0
Sm1 Sm 0.29845 0.49801 0.56923 0.0
C2 C 0.34405 0.43154 0.70015 0.0
C3 C 0.3543 0.4117 0.66321 0.0
C4 C 0.33361 0.37855 0.60732 0.0
C5 C 0.34366 0.3599 0.57821 0.0
C6 C 0.37463 0.37388 0.6043 0.0
C7 C 0.39528 0.40717 0.65924 0.0
C8 C 0.38521 0.42575 0.68856 0.0
C9 C 0.29895 0.44508 0.41583 0.0
C10 C 0.24762 0.42292 0.60518 0.0
C11 C 0.27361 0.52357 0.50059 0.0
C12 C 0.27314 0.55094 0.54421 0.0
C13 C 0.24922 0.55056 0.50498 0.0
C14 C 0.24775 0.5757 0.54882 0.0
C15 C 0.27025 0.60174 0.63276 0.0
C16 C 0.29419 0.60192 0.67193 0.0
C17 C 0.29556 0.57668 0.62822 0.0
C18 C 0.31432 0.50669 0.7826 0.0
C19 C 0.37064 0.53526 0.60399 0.0
O20 O 0.31467 0.41662 0.68638 0.0
O21 O 0.36027 0.4617 0.68475 0.0
O22 O 0.31467 0.4724 0.48016 0.0
O23 O 0.29704 0.42281 0.45619 0.0
O24 O 0.26991 0.42663 0.66388 0.0
O25 O 0.25401 0.44377 0.54379 0.0
O26 O 0.2998 0.53159 0.47816 0.0
O27 O 0.25917 0.49862 0.54732 0.0
O28 O 0.30144 0.48079 0.71264 0.0
O29 O 0.31818 0.52962 0.74012 0.0
O30 O 0.34861 0.53287 0.55034 0.0
O31 O 0.36454 0.51162 0.65251 0.0
H32 H 0.30956 0.36684 0.58694 0.0
H33 H 0.327 0.33429 0.53703 0.0
H34 H 0.41936 0.41904 0.67921 0.0
H35 H 0.40167 0.45117 0.73189 0.0
H36 H 0.23152 0.53064 0.44099 0.0
H37 H 0.22877 0.57451 0.51773 0.0
H38 H 0.31209 0.62178 0.73546 0.0
H39 H 0.3141 0.57723 0.66012 0.0
Sm40 Sm 0.86758 0.1834 0.42406 0.0
Sm41 Sm 0.80123 0.16028 0.32259 0.0
C42 C 0.92319 0.21084 0.51868 0.0
C43 C 0.9551 0.22465 0.55824 0.0
C44 C 0.97075 0.24605 0.6582 0.0
C45 C 1.00265 0.26421 0.68412 0.0
C46 C 0.01954 0.26124 0.61069 0.0
C47 C 1.00331 0.23844 0.51308 0.0
C48 C 0.9717 0.22045 0.48755 0.0
C49 C 0.84582 0.14712 0.21729 0.0
C50 C 0.80539 0.10977 0.43851 0.0
C51 C 0.75104 0.14413 0.21248 0.0
C52 C 0.72795 0.1497 0.22511 0.0
C53 C 0.73622 0.18157 0.23863 0.0
C54 C 0.71404 0.18627 0.24542 0.0
C55 C 0.68291 0.15929 0.23909 0.0
C56 C 0.67474 0.12744 0.22633 0.0
C57 C 0.69694 0.12273 0.21916 0.0
C58 C 0.82115 0.19316 0.53125 0.0
C59 C 0.86362 0.22717 0.28296 0.0
O60 O 0.90072 0.2005 0.57462 0.0
O61 O 0.91536 0.20574 0.41694 0.0
O62 O 0.83011 0.14445 0.28841 0.0
O63 O 0.87449 0.16748 0.25789 0.0
O64 O 0.83461 0.13438 0.47962 0.0
O65 O 0.7895 0.11277 0.3686 0.0
O66 O 0.77882 0.16965 0.20602 0.0
O67 O 0.75067 0.12485 0.26768 0.0
O68 O 0.83786 0.19823 0.4612 0.0
O69 O 0.79345 0.17707 0.48363 0.0
O70 O 0.83626 0.20009 0.23769 0.0
O71 O 0.87748 0.22906 0.37216 0.0
H72 H 0.95865 0.25003 0.71404 0.0
H73 H 0.01415 0.28113 0.76071 0.0
H74 H 0.01516 0.23559 0.45331 0.0
H75 H 0.96044 0.20425 0.40964 0.0
H76 H 0.75983 0.20298 0.24288 0.0
H77 H 0.72132 0.2111 0.2535 0.0
H78 H 0.65115 0.10605 0.22253 0.0
H79 H 0.6898 0.09788 0.20829 0.0
Sm80 Sm 0.65087 0.80836 0.61935 0.0
Sm81 Sm 0.62286 0.83822 0.75089 0.0
C82 C 0.68079 0.79415 0.50125 0.0
C83 C 0.68904 0.77221 0.48922 0.0
C84 C 0.70629 0.77379 0.41047 0.0
C85 C 0.7161 0.75465 0.40176 0.0
C86 C 0.70878 0.73358 0.47183 0.0
C87 C 0.69102 0.73173 0.54984 0.0
C88 C 0.68122 0.75094 0.55848 0.0
C89 C 0.65403 0.81048 0.83382 0.0
C90 C 0.68521 0.8891 0.65648 0.0
C91 C 0.61447 0.86915 0.90884 0.0
C92 C 0.59224 0.87112 0.95721 0.0
C93 C 0.60188 0.89328 0.05452 0.0
C94 C 0.58313 0.90064 0.09257 0.0
C95 C 0.55472 0.88626 0.03252 0.0
C96 C 0.54429 0.86206 0.93881 0.0
C97 C 0.56293 0.8545 0.90156 0.0
C98 C 0.60126 0.81561 0.53777 0.0
C99 C 0.58069 0.75735 0.6702 0.0
O100 O 0.69382 0.81714 0.58885 0.0
O101 O 0.65183 0.78023 0.47426 0.0
O102 O 0.65852 0.83241 0.78892 0.0
O103 O 0.64919 0.78653 0.76398 0.0
O104 O 0.68137 0.86305 0.59975 0.0
O105 O 0.66774 0.88598 0.72798 0.0
O106 O 0.61351 0.84375 0.91549 0.0
O107 O 0.61993 0.87759 0.81677 0.0
O108 O 0.62796 0.82966 0.58204 0.0
O109 O 0.58504 0.81707 0.60548 0.0
O110 O 0.58625 0.78232 0.74158 0.0
O111 O 0.60041 0.76153 0.60591 0.0
H112 H 0.71263 0.79029 0.35687 0.0
H113 H 0.73006 0.75696 0.34176 0.0
H114 H 0.68471 0.71543 0.60409 0.0
H115 H 0.66789 0.74953 0.61982 0.0
H116 H 0.62453 0.90617 0.09842 0.0
H117 H 0.5916 0.91895 0.16566 0.0
H118 H 0.52274 0.8508 0.88954 0.0
H119 H 0.55529 0.83736 0.82606 0.0
Sm120 Sm 0.83469 0.52639 0.12313 0.0
Sm121 Sm 0.87536 0.50899 0.01649 0.0
C122 C 0.80298 0.53437 0.25323 0.0
C123 C 0.80041 0.55974 0.30141 0.0
C124 C 0.78388 0.55464 0.38567 0.0
C125 C 0.77768 0.57627 0.42347 0.0
C126 C 0.78767 0.60317 0.37662 0.0
C127 C 0.80552 0.60903 0.29529 0.0
C128 C 0.8119 0.5875 0.25815 0.0
C129 C 0.85876 0.55473 0.95382 0.0
C130 C 0.90905 0.57609 0.20289 0.0
C131 C 0.90347 0.48972 0.91083 0.0
C132 C 0.90522 0.4631 0.92298 0.0
C133 C 0.87836 0.43015 0.90601 0.0
C134 C 0.87893 0.4061 0.93712 0.0
C135 C 0.9063 0.41431 -0.01431 0.0
C136 C 0.93357 0.44663 -0.00403 0.0
C137 C 0.93301 0.47088 0.96506 0.0
C138 C 0.85212 0.48316 0.19134 0.0
C139 C 0.80353 0.46652 0.91854 0.0
O140 O 0.82768 0.53839 0.28681 0.0
O141 O 0.79448 0.52381 0.15026 0.0
O142 O 0.87101 0.54925 0.02073 0.0
O143 O 0.83429 0.54933 -0.01622 0.0
O144 O 0.88171 0.56454 0.22636 0.0
O145 O 0.91268 0.56199 0.11654 0.0
O146 O 0.87648 0.48021 0.87413 0.0
O147 O 0.91787 0.51544 -0.00968 0.0
O148 O 0.83903 0.48639 0.11996 0.0
O149 O 0.87637 0.48862 0.16067 0.0
O150 O 0.8309 0.47856 0.89475 0.0
O151 O 0.79957 0.47629 0.01245 0.0
H152 H 0.77486 0.53327 0.41979 0.0
H153 H 0.76435 0.57141 0.48742 0.0
H154 H 0.81331 0.62929 0.25673 0.0
H155 H 0.8247 0.59174 0.19278 0.0
H156 H 0.85651 0.42308 0.87338 0.0
H157 H 0.85766 0.3812 0.92655 0.0
H158 H 0.95499 0.45357 0.0331 0.0
H159 H 0.95403 0.49606 0.97896 0.0
Sm160 Sm 0.22833 0.82086 0.83194 0.0
Sm161 Sm 0.29175 0.85891 0.74533 0.0
C162 C 0.17978 0.79337 0.92812 0.0
C163 C 0.14917 0.78111 0.88483 0.0
C164 C 0.12335 0.75665 0.92342 0.0
C165 C 0.09418 0.73964 0.8654 0.0
C166 C 0.09064 0.74633 0.76667 0.0
C167 C 0.11666 0.77262 0.73301 0.0
C168 C 0.14554 0.78997 0.79197 0.0
C169 C 0.22484 0.80352 0.61848 0.0
C170 C 0.24855 0.8809 0.7201 0.0
C171 C 0.33904 0.89176 0.64555 0.0
C172 C 0.37207 0.91113 0.68131 0.0
C173 C 0.38713 0.8989 0.64119 0.0
C174 C 0.41593 0.91195 0.69196 0.0
C175 C 0.43035 0.93778 0.78316 0.0
C176 C 0.4166 0.95226 0.81637 0.0
C177 C 0.38764 0.93899 0.76614 0.0
C178 C 0.29566 0.8775 0.95999 0.0
C179 C 0.2696 0.79364 0.82846 0.0
O180 O 0.20112 0.82542 0.9451 0.0
O181 O 0.18819 0.77686 0.8789 0.0
O182 O 0.24468 0.81039 0.69014 0.0
O183 O 0.20386 0.80351 0.65945 0.0
O184 O 0.23355 0.86567 0.79496 0.0
O185 O 0.26675 0.87591 0.67594 0.0
O186 O 0.32261 0.85982 0.63878 0.0
O187 O 0.32614 0.90405 0.68833 0.0
O188 O 0.27523 0.86932 0.8879 0.0
O189 O 0.31715 0.8787 0.91873 0.0
O190 O 0.28739 0.81411 0.76833 0.0
O191 O 0.2483 0.79404 0.87011 0.0
H192 H 0.12583 0.74954 -0.00492 0.0
H193 H 0.07461 0.72017 0.89537 0.0
H194 H 0.11521 0.77841 0.65725 0.0
H195 H 0.16529 0.80882 0.76091 0.0
H196 H 0.37567 0.87761 0.57549 0.0
H197 H 0.42567 0.89994 0.66449 0.0
H198 H 0.42742 0.9726 0.88496 0.0
H199 H 0.37679 0.94931 0.79823 0.0
Sm200 Sm 0.47224 0.19756 0.38017 0.0
Sm201 Sm 0.52057 0.26124 0.29824 0.0
C202 C 0.43452 0.15404 0.49027 0.0
C203 C 0.40298 0.13539 0.51468 0.0
C204 C 0.39791 0.144 0.61547 0.0
C205 C 0.3697 0.12267 0.64831 0.0
C206 C 0.34599 0.09233 0.58068 0.0
C207 C 0.35014 0.08521 0.47636 0.0
C208 C 0.37841 0.10646 0.44379 0.0
C209 C 0.45914 0.19526 0.17175 0.0
C210 C 0.46549 0.25798 0.38972 0.0
C211 C 0.5569 0.30234 0.17971 0.0
C212 C 0.57567 0.30228 0.10296 0.0
C213 C 0.57909 0.31624 0.01491 0.0
C214 C 0.59756 0.3171 0.9427 0.0
C215 C 0.61274 0.30381 0.95743 0.0
C216 C 0.60763 0.28799 0.04231 0.0
C217 C 0.58932 0.28733 0.11468 0.0
C218 C 0.53102 0.26596 0.51109 0.0
C219 C 0.5288 0.20343 0.29355 0.0
O220 O 0.45351 0.18594 0.52991 0.0
O221 O 0.43827 0.14566 0.39474 0.0
O222 O 0.47073 0.21911 0.2487 0.0
O223 O 0.45286 0.1695 0.20254 0.0
O224 O 0.45637 0.23015 0.41806 0.0
O225 O 0.48839 0.27351 0.3355 0.0
O226 O 0.52751 0.27946 0.15018 0.0
O227 O 0.5659 0.30605 0.27962 0.0
O228 O 0.52163 0.24144 0.43801 0.0
O229 O 0.53667 0.29032 0.47185 0.0
O230 O 0.53212 0.22568 0.24449 0.0
O231 O 0.50993 0.19201 0.36384 0.0
H232 H 0.41632 0.16618 0.6716 0.0
H233 H 0.3671 0.12884 0.72902 0.0
H234 H 0.33245 0.06184 0.42276 0.0
H235 H 0.38146 0.09909 0.36537 0.0
H236 H 0.56815 0.32728 0.00363 0.0
H237 H 0.60127 0.32977 0.87882 0.0
H238 H 0.61884 0.27734 0.05523 0.0
H239 H 0.58647 0.27592 0.18129 0.0
C240 C 0.46122 0.30337 0.39828 0.0
C241 C 0.44992 0.27259 0.41991 0.0
C242 C 0.44761 0.31825 0.42827 0.0
C243 C 0.42192 0.30208 0.48137 0.0
C244 C 0.41015 0.27085 0.50266 0.0
C245 C 0.42424 0.25647 0.47159 0.0
C246 C 0.46103 0.35158 0.40413 0.0
C247 C 0.38275 0.25271 0.55875 0.0
C248 C 0.40769 0.3577 0.64468 0.0
C249 C 0.38545 0.35398 0.5748 0.0
C250 C 0.4191 0.3403 0.61649 0.0
C251 C 0.40796 0.31838 0.516 0.0
C252 C 0.38491 0.31377 0.4462 0.0
C253 C 0.37402 0.33164 0.47622 0.0
C254 C 0.44364 0.34598 0.69343 0.0
C255 C 0.37234 0.29061 0.33845 0.0
H256 H 0.48103 0.31618 0.3585 0.0
H257 H 0.4151 0.23259 0.48789 0.0
H258 H 0.44334 0.35011 0.35543 0.0
H259 H 0.46873 0.37 0.4791 0.0
H260 H 0.48078 0.3607 0.36093 0.0
H261 H 0.37617 0.22851 0.56852 0.0
H262 H 0.38773 0.268 0.63835 0.0
H263 H 0.36294 0.24841 0.51351 0.0
H264 H 0.41628 0.37432 0.72187 0.0
H265 H 0.35708 0.32872 0.42103 0.0
H266 H 0.46498 0.35724 0.65842 0.0
H267 H 0.43654 0.32209 0.70855 0.0
H268 H 0.44878 0.36252 0.77048 0.0
H269 H 0.35296 0.28789 0.29667 0.0
H270 H 0.36447 0.26582 0.34643 0.0
H271 H 0.39066 0.30005 0.28844 0.0
C272 C 0.20634 0.3808 0.69791 0.0
C273 C 0.21485 0.39673 0.6124 0.0
C274 C 0.17527 0.35803 0.70869 0.0
C275 C 0.15204 0.35058 0.63128 0.0
C276 C 0.16058 0.36599 0.54346 0.0
C277 C 0.19171 0.38892 0.53557 0.0
C278 C 0.16738 0.34274 0.80456 0.0
C279 C 0.13678 0.35845 0.45779 0.0
C280 C 0.0695 0.2714 0.5899 0.0
C281 C 0.05397 0.28317 0.63065 0.0
C282 C 0.10146 0.29273 0.59345 0.0
C283 C 0.11876 0.32678 0.64077 0.0
C284 C 0.10359 0.33848 0.68828 0.0
C285 C 0.07149 0.31669 0.68205 0.0
C286 C 0.11652 0.27904 0.54187 0.0
C287 C 0.12112 0.37443 0.74141 0.0
H288 H 0.224 0.38682 0.75812 0.0
H289 H 0.19791 0.40086 0.46875 0.0
H290 H 0.15821 0.35273 0.85711 0.0
H291 H 0.14931 0.31556 0.78056 0.0
H292 H 0.18759 0.34801 0.85086 0.0
H293 H 0.14708 0.37171 0.39299 0.0
H294 H 0.12071 0.33149 0.42301 0.0
H295 H 0.12316 0.36559 0.49246 0.0
H296 H 0.05655 0.24548 0.55249 0.0
H297 H 0.06004 0.32638 0.7134 0.0
H298 H 0.1361 0.28608 0.59778 0.0
H299 H 0.12573 0.28983 0.47187 0.0
H300 H 0.10036 0.25168 0.51533 0.0
H301 H 0.14136 0.38302 0.79737 0.0
H302 H 0.10678 0.3789 0.78549 0.0
H303 H 0.12964 0.38966 0.68061 0.0
C304 C 0.80583 0.07253 0.54043 0.0
C305 C 0.7899 0.0774 0.4701 0.0
C306 C 0.79114 0.04233 0.57286 0.0
C307 C 0.75971 0.01623 0.53424 0.0
C308 C 0.7436 0.0209 0.46262 0.0
C309 C 0.75884 0.05128 0.43138 0.0
C310 C 0.8092 0.03853 0.64954 0.0
C311 C 0.71 0.99396 0.42037 0.0
C312 C 0.72243 0.92649 0.54362 0.0
C313 C 0.70715 0.92239 0.63149 0.0
C314 C 0.74044 0.95714 0.51305 0.0
C315 C 0.74321 0.98442 0.57132 0.0
C316 C 0.72866 0.98071 0.66198 0.0
C317 C 0.71099 0.94992 0.69105 0.0
C318 C 0.7557 0.96004 0.41628 0.0
C319 C 0.73098 0.00905 0.72664 0.0
H320 H 0.82977 0.09245 0.57131 0.0
H321 H 0.74618 0.05464 0.37735 0.0
H322 H 0.79952 0.03451 0.72451 0.0
H323 H 0.80748 0.01649 0.61584 0.0
H324 H 0.83374 0.06058 0.6686 0.0
H325 H 0.7009 1.00116 0.36346 0.0
H326 H 0.70612 0.97109 0.37998 0.0
H327 H 0.69672 0.98793 0.48714 0.0
H328 H 0.71965 0.9055 0.49671 0.0
H329 H 0.69948 0.94727 0.75938 0.0
H330 H 0.7804 0.9815 0.43582 0.0
H331 H 0.74548 0.96447 0.35323 0.0
H332 H 0.75323 0.93741 0.38414 0.0
H333 H 0.75528 0.03019 0.75839 0.0
H334 H 0.71802 1.00208 0.79424 0.0
H335 H 0.72211 0.01775 0.67555 0.0
C336 C 0.74694 0.60788 0.42047 0.0
C337 C 0.77738 0.62334 0.40588 0.0
C338 C 0.73593 0.62592 0.43842 0.0
C339 C 0.75577 0.66023 0.4411 0.0
C340 C 0.78674 0.67622 0.42964 0.0
C341 C 0.79721 0.65758 0.41238 0.0
C342 C 0.70276 0.60802 0.45056 0.0
C343 C 0.80857 0.7128 0.43222 0.0
C344 C 0.71968 0.69845 0.36507 0.0
C345 C 0.7202 0.71417 0.46448 0.0
C346 C 0.73129 0.68092 0.35649 0.0
C347 C 0.74361 0.67894 0.44964 0.0
C348 C 0.74401 0.69451 0.55032 0.0
C349 C 0.73231 0.71199 0.55654 0.0
C350 C 0.73038 0.66453 0.24767 0.0
C351 C 0.75693 0.69286 0.65129 0.0
H352 H 0.73132 0.58136 0.41389 0.0
H353 H 0.82084 0.66975 0.40255 0.0
H354 H 0.70091 0.6206 0.52366 0.0
H355 H 0.69059 0.60858 0.38244 0.0
H356 H 0.69095 0.58181 0.45428 0.0
H357 H 0.80089 0.71813 0.36414 0.0
H358 H 0.80865 0.727 0.50576 0.0
H359 H 0.83234 0.72182 0.42824 0.0
H360 H 0.70998 0.69968 0.29375 0.0
H361 H 0.73315 0.72446 0.63352 0.0
H362 H 0.71678 0.63751 0.24141 0.0
H363 H 0.75387 0.67422 0.23513 0.0
H364 H 0.72025 0.66866 0.18313 0.0
H365 H 0.74453 0.66669 0.65647 0.0
H366 H 0.7553 0.70608 0.72335 0.0
H367 H 0.7813 0.70386 0.65072 0.0
C368 C 0.05311 0.73543 0.61856 0.0
C369 C 0.06111 0.7236 0.69223 0.0
C370 C 0.02844 0.71359 0.53551 0.0
C371 C 0.01064 0.67914 0.52822 0.0
C372 C 0.01736 0.66708 0.60588 0.0
C373 C 0.04266 0.6894 0.68617 0.0
C374 C 0.02226 0.72734 0.45309 0.0
C375 C 0.998 0.63057 0.60426 0.0
C376 C 0.93138 0.62077 0.36582 0.0
C377 C 0.93588 0.60531 0.2782 0.0
C378 C 0.95563 0.64534 0.44686 0.0
C379 C 0.98531 0.65555 0.4384 0.0
C380 C 0.99043 0.64171 0.34689 0.0
C381 C 0.96555 0.61647 0.26809 0.0
C382 C 0.94912 0.65893 0.54425 0.0
C383 C 0.02199 0.65254 0.33458 0.0
H384 H 0.06669 0.7618 0.62377 0.0
H385 H 0.04861 0.67976 0.74146 0.0
H386 H 0.02531 0.71863 0.37435 0.0
H387 H 0.99827 0.71817 0.4462 0.0
H388 H 0.03773 0.75481 0.47183 0.0
H389 H 1.00873 0.62496 0.66105 0.0
H390 H 0.97559 0.62207 0.62648 0.0
H391 H 0.99362 0.61608 0.52373 0.0
H392 H 0.90857 0.61256 0.37419 0.0
H393 H 0.96925 0.60487 0.20036 0.0
H394 H 0.96379 0.68626 0.55861 0.0
H395 H 0.95466 0.65272 0.61501 0.0
H396 H 0.9248 0.64883 0.53729 0.0
H397 H 0.03866 0.67991 0.34881 0.0
H398 H 0.02265 0.64182 0.25447 0.0
H399 H 0.0295 0.64471 0.39465 0.0
C400 C 0.23603 0.92016 0.74943 0.0
C401 C 0.24844 0.90712 0.69061 0.0
C402 C 0.24249 0.94993 0.73573 0.0
C403 C 0.26233 0.96713 0.66366 0.0
C404 C 0.27235 0.95225 0.59714 0.0
C405 C 0.26498 0.92237 0.61078 0.0
C406 C 0.22975 0.96382 0.80377 0.0
C407 C 0.29346 0.96935 0.51842 0.0
C408 C 0.29062 0.04333 0.5648 0.0
C409 C 0.32018 0.06528 0.62396 0.0
C410 C 0.26891 0.01222 0.58808 0.0
C411 C 0.27755 1.00268 0.66928 0.0
C412 C 0.30582 0.02648 0.73791 0.0
C413 C 0.32672 0.05763 0.71478 0.0
C414 C 0.23803 0.98837 0.5186 0.0
C415 C 0.3159 0.01765 0.82672 0.0
H416 H 0.22276 0.90826 0.81013 0.0
H417 H 0.27425 0.91225 0.56336 0.0
H418 H 0.2445 0.97733 0.88256 0.0
H419 H 0.22865 0.98111 0.76762 0.0
H420 H 0.20647 0.94357 0.81712 0.0
H421 H 0.29863 0.95398 0.47168 0.0
H422 H 0.28306 0.97534 0.46215 0.0
H423 H 0.31539 0.99294 0.56098 0.0
H424 H 0.28519 0.0495 0.49597 0.0
H425 H 0.34947 0.07453 0.76122 0.0
H426 H 0.22018 0.9718 0.56423 0.0
H427 H 0.23889 0.97275 0.45256 0.0
H428 H 0.23135 1.00173 0.4835 0.0
H429 H 0.29758 1.00487 0.87556 0.0
H430 H 0.33696 0.03978 0.87937 0.0
H431 H 0.32055 1.00049 0.7926 0.0
C432 C 0.2978 0.77064 0.81806 0.0
C433 C 0.27122 0.76674 0.83639 0.0
C434 C 0.29794 0.74356 0.8013 0.0
C435 C 0.27072 0.71171 0.80181 0.0
C436 C 0.24449 0.70805 0.82857 0.0
C437 C 0.24509 0.73572 0.84617 0.0
C438 C 0.32659 0.74872 0.77505 0.0
C439 C 0.21505 0.67453 0.8303 0.0
C440 C 0.26096 0.64202 0.61012 0.0
C441 C 0.26908 0.62895 0.67765 0.0
C442 C 0.26059 0.66829 0.65021 0.0
C443 C 0.26873 0.6821 0.76072 0.0
C444 C 0.27649 0.66875 0.82975 0.0
C445 C 0.27654 0.6423 0.78742 0.0
C446 C 0.25219 0.68182 0.57372 0.0
C447 C 0.2853 0.6828 0.94793 0.0
H448 H 0.3182 0.79468 0.81177 0.0
H449 H 0.22445 0.73252 0.86017 0.0
H450 H 0.33162 0.73579 0.82097 0.0
H451 H 0.32313 0.73809 0.68957 0.0
H452 H 0.34679 0.77534 0.79179 0.0
H453 H 0.19845 0.67647 0.86816 0.0
H454 H 0.2044 0.65992 0.74768 0.0
H455 H 0.2195 0.66064 0.87326 0.0
H456 H 0.25559 0.63223 0.52518 0.0
H457 H 0.28241 0.63205 0.84039 0.0
H458 H 0.27211 0.70779 0.57517 0.0
H459 H 0.23334 0.68191 0.59811 0.0
H460 H 0.24492 0.66723 0.49091 0.0
H461 H 0.30666 0.70874 0.96436 0.0
H462 H 0.28897 0.66841 -0.00853 0.0
H463 H 0.26726 0.68324 0.97959 0.0
C464 C 0.54988 0.17493 0.34169 0.0
C465 C 0.54888 0.19367 0.27697 0.0
C466 C 0.5706 0.16798 0.33336 0.0
C467 C 0.591 0.18002 0.25851 0.0
C468 C 0.58948 0.1981 0.19073 0.0
C469 C 0.56851 0.20466 0.20072 0.0
C470 C 0.57113 0.14834 0.40654 0.0
C471 C 0.61068 0.21149 0.10971 0.0
C472 C 0.66551 0.1923 0.31266 0.0
C473 C 0.65916 0.16438 0.24473 0.0
C474 C 0.64368 0.19771 0.3175 0.0
C475 C 0.61449 0.17458 0.25349 0.0
C476 C 0.60781 0.14627 0.18518 0.0
C477 C 0.63015 0.14157 0.18141 0.0
C478 C 0.65187 0.22826 0.39138 0.0
C479 C 0.57709 0.12102 0.11529 0.0
H480 H 0.53489 0.16623 0.40088 0.0
H481 H 0.56783 0.21883 0.14938 0.0
H482 H 0.56827 0.12672 0.35967 0.0
H483 H 0.59362 0.16389 0.45904 0.0
H484 H 0.55288 0.1394 0.45692 0.0
H485 H 0.60363 0.22054 0.05281 0.0
H486 H 0.6342 0.23234 0.15108 0.0
H487 H 0.61154 0.19228 0.06433 0.0
H488 H 0.68755 0.20989 0.3633 0.0
H489 H 0.62499 0.12019 0.12728 0.0
H490 H 0.63579 0.22109 0.4496 0.0
H491 H 0.64963 0.2432 0.34553 0.0
H492 H 0.67557 0.244 0.43547 0.0
H493 H 0.55858 0.11107 0.16459 0.0
H494 H 0.57522 0.10007 0.06777 0.0
H495 H 0.57317 0.13292 0.06024 0.0
C496 C 0.54389 0.696 0.5894 0.0
C497 C 0.55121 0.7235 0.66304 0.0
C498 C 0.5157 0.66424 0.5805 0.0
C499 C 0.49416 0.65967 0.64681 0.0
C500 C 0.5017 0.68721 0.72268 0.0
C501 C 0.52992 0.71864 0.72951 0.0
C502 C 0.50869 0.63568 0.49843 0.0
C503 C 0.47962 0.68368 0.79529 0.0
C504 C 0.40902 0.58937 0.55248 0.0
C505 C 0.40279 0.56607 0.61189 0.0
C506 C 0.43861 0.6194 0.56169 0.0
C507 C 0.46295 0.62674 0.63231 0.0
C508 C 0.45706 0.60314 0.69118 0.0
C509 C 0.42711 0.57311 0.68019 0.0
C510 C 0.44367 0.64361 0.49699 0.0
C511 C 0.4823 0.60991 0.76732 0.0
H512 H 0.56004 0.69928 0.53757 0.0
H513 H 0.53512 0.73954 0.78673 0.0
H514 H 0.50204 0.61496 0.53616 0.0
H515 H 0.489 0.62637 0.43808 0.0
H516 H 0.52847 0.64277 0.45745 0.0
H517 H 0.48962 0.70696 0.85444 0.0
H518 H 0.45868 0.67641 0.74761 0.0
H519 H 0.47251 0.66384 0.83832 0.0
H520 H 0.39062 0.58434 0.49885 0.0
H521 H 0.4227 0.55543 0.72657 0.0
H522 H 0.46199 0.64994 0.44898 0.0
H523 H 0.45134 0.6669 0.55072 0.0
H524 H 0.42264 0.63374 0.44276 0.0
H525 H 0.50157 0.61568 0.72547 0.0
H526 H 0.47439 0.58863 0.80412 0.0
H527 H 0.49132 0.63188 0.83131 0.0
C528 C 0.88356 0.37245 0.09772 0.0
C529 C 0.90551 0.3897 0.03296 0.0
C530 C 0.88108 0.34795 0.14003 0.0
C531 C 0.90097 0.3403 0.11664 0.0
C532 C 0.92381 0.35827 0.05373 0.0
C533 C 0.92594 0.38298 0.01299 0.0
C534 C 0.85652 0.32957 0.20731 0.0
C535 C 0.94528 0.35066 0.0268 0.0
C536 C 0.9003 0.28846 0.29489 0.0
C537 C 0.87725 0.25643 0.23551 0.0
C538 C 0.90983 0.31631 0.25449 0.0
C539 C 0.89603 0.31187 0.15242 0.0
C540 C 0.87427 0.27957 0.0896 0.0
C541 C 0.86518 0.25232 0.13191 0.0
C542 C 0.93314 0.35037 0.32375 0.0
C543 C 0.85908 0.27366 0.98016 0.0
H544 H 0.86813 0.37806 0.11497 0.0
H545 H 0.94294 0.39635 0.96301 0.0
H546 H 0.83973 0.30312 0.16676 0.0
H547 H 0.86673 0.33065 0.28454 0.0
H548 H 0.84407 0.33978 0.22282 0.0
H549 H 0.96331 0.36858 -0.01562 0.0
H550 H 0.9564 0.3509 0.10005 0.0
H551 H 0.93215 0.32547 0.9758 0.0
H552 H 0.90982 0.29183 0.37481 0.0
H553 H 0.84776 0.22765 0.08471 0.0
H554 H 0.92159 0.36082 0.35248 0.0
H555 H 0.95059 0.36725 0.27776 0.0
H556 H 0.94485 0.3499 0.39375 0.0
H557 H 0.84472 0.28173 -0.01355 0.0
H558 H 0.84432 0.24718 0.93865 0.0
H559 H 0.87659 0.28848 0.93081 0.0
C560 C 0.45724 0.94838 0.96174 0.0
C561 C 0.45672 0.94545 0.85149 0.0
C562 C 0.47689 0.94638 0.02371 0.0
C563 C 0.49566 0.94039 0.97341 0.0
C564 C 0.49762 0.94108 0.86457 0.0
C565 C 0.47842 0.94414 0.80532 0.0
C566 C 0.47536 0.94766 0.14066 0.0
C567 C 0.51768 0.93518 0.80784 0.0
C568 C 0.55507 0.93472 0.08065 0.0
C569 C 0.53847 0.90025 0.05524 0.0
C570 C 0.54051 0.94867 0.06824 0.0
C571 C 0.509 0.9276 0.02687 0.0
C572 C 0.49154 0.89296 0.01531 0.0
C573 C 0.50652 0.87971 0.03125 0.0
C574 C 0.55949 0.98579 0.08823 0.0
C575 C 0.45764 0.86958 0.97357 0.0
H576 H 0.4407 0.94961 -0.00125 0.0
H577 H 0.47879 0.943 0.7209 0.0
H578 H 0.45743 0.9224 0.15256 0.0
H579 H 0.49741 0.95717 0.18647 0.0
H580 H 0.46914 0.96352 0.17325 0.0
H581 H 0.51787 0.93842 0.72477 0.0
H582 H 0.54153 0.95239 0.85053 0.0
H583 H 0.50931 0.90961 0.8063 0.0
H584 H 0.57977 0.95096 0.10067 0.0
H585 H 0.4935 0.85309 0.01558 0.0
H586 H 0.54613 0.99399 0.1168 0.0
H587 H 0.56683 0.994 0.01316 0.0
H588 H 0.58036 0.9982 0.14742 0.0
H589 H 0.44576 0.87751 0.0183 0.0
H590 H 0.44701 0.84374 0.9789 0.0
H591 H 0.45386 0.86995 0.88907 0.0
C592 C 0.77287 0.41181 0.79056 0.0
C593 C 0.77583 0.43931 0.84379 0.0
C594 C 0.74361 0.38125 0.75512 0.0
C595 C 0.71759 0.37864 0.7773 0.0
C596 C 0.72077 0.40785 0.81137 0.0
C597 C 0.75005 0.43795 0.8444 0.0
C598 C 0.74087 0.35126 0.7065 0.0
C599 C 0.69362 0.40684 0.82974 0.0
C600 C 0.63534 0.31205 0.78856 0.0
C601 C 0.63782 0.31195 0.89699 0.0
C602 C 0.66165 0.32943 0.74039 0.0
C603 C 0.69077 0.34793 0.80357 0.0
C604 C 0.69287 0.34359 0.90841 0.0
C605 C 0.66628 0.32544 0.9534 0.0
C606 C 0.65809 0.33033 0.62515 0.0
C607 C 0.7233 0.36194 0.97909 0.0
H608 H 0.793 0.41317 0.78659 0.0
H609 H 0.75265 0.45979 0.88161 0.0
H610 H 0.74611 0.34243 0.76972 0.0
H611 H 0.71753 0.33082 0.66252 0.0
H612 H 0.75776 0.35776 0.65152 0.0
H613 H 0.70002 0.43197 0.84934 0.0
H614 H 0.67588 0.39245 0.75797 0.0
H615 H 0.68337 0.39455 0.89635 0.0
H616 H 0.61315 0.30048 0.74327 0.0
H617 H 0.66834 0.32511 0.03684 0.0
H618 H 0.67971 0.34107 0.59224 0.0
H619 H 0.6502 0.34501 0.61594 0.0
H620 H 0.64017 0.30489 0.57776 0.0
H621 H 0.7381 0.35742 0.9394 0.0
H622 H 0.72072 0.35433 0.05632 0.0
H623 H 0.73525 0.38894 -0.00451 0.0
C624 C 0.2804 0.4217 0.22325 0.0
C625 C 0.28085 0.43891 0.31817 0.0
C626 C 0.27412 0.42726 0.12701 0.0
C627 C 0.26883 0.45068 0.1294 0.0
C628 C 0.26314 0.46245 0.22308 0.0
C629 C 0.26953 0.45651 0.31713 0.0
C630 C 0.27842 0.41272 0.0259 0.0
C631 C 0.25649 0.48665 0.22905 0.0
C632 C 0.32321 0.51205 0.974 0.0
C633 C 0.30325 0.50221 0.8829 0.0
C634 C 0.31171 0.49701 0.05945 0.0
C635 C 0.27982 0.47081 0.0494 0.0
C636 C 0.25941 0.46299 0.9609 0.0
C637 C 0.27147 0.47965 0.87927 0.0
C638 C 0.334 0.50729 0.15639 0.0
C639 C 0.22543 0.43522 0.94804 0.0
H640 H 0.28847 0.40737 0.22452 0.0
H641 H 0.269 0.46894 0.39044 0.0
H642 H 0.26279 0.40778 0.95677 0.0
H643 H 0.30227 0.43061 0.01165 0.0
H644 H 0.27441 0.38938 0.03131 0.0
H645 H 0.24084 0.48233 0.28737 0.0
H646 H 0.27821 0.51216 0.25659 0.0
H647 H 0.24619 0.48516 0.15153 0.0
H648 H 0.3477 0.52946 0.97517 0.0
H649 H 0.25627 0.47237 0.80725 0.0
H650 H 0.33559 0.48727 0.16018 0.0
H651 H 0.32602 0.51164 0.22976 0.0
H652 H 0.3573 0.53018 0.15532 0.0
H653 H 0.22133 0.41148 0.94516 0.0
H654 H 0.21272 0.4329 0.87464 0.0
H655 H 0.21582 0.43902 0.01711 0.0
C656 C 0.81192 0.14056 0.0716 0.0
C657 C 0.83588 0.14048 0.10419 0.0
C658 C 0.80991 0.14815 0.97452 0.0
C659 C 0.8299 0.15104 0.9034 0.0
C660 C 0.85039 0.14467 0.92897 0.0
C661 C 0.85415 0.14095 0.03164 0.0
C662 C 0.78799 0.15553 0.95498 0.0
C663 C 0.86954 0.14356 0.85116 0.0
C664 C 0.80186 0.15082 0.63678 0.0
C665 C 0.82481 0.18327 0.62637 0.0
C666 C 0.80476 0.13926 0.72238 0.0
C667 C 0.82984 0.16163 0.80452 0.0
C668 C 0.85312 0.19466 0.79537 0.0
C669 C 0.85071 0.20481 0.70389 0.0
C670 C 0.78047 0.10343 0.72656 0.0
C671 C 0.8805 0.21951 0.88101 0.0
H672 H 0.7969 0.13843 0.12652 0.0
H673 H 0.87213 0.13972 0.05637 0.0
H674 H 0.78736 0.16168 0.87724 0.0
H675 H 0.76454 0.13408 0.96244 0.0
H676 H 0.79454 0.17686 0.01717 0.0
H677 H 0.8741 0.12635 0.86567 0.0
H678 H 0.85827 0.13561 0.76766 0.0
H679 H 0.89194 0.16848 0.86202 0.0
H680 H 0.78178 0.13396 0.5762 0.0
H681 H 0.86847 0.22973 0.69459 0.0
H682 H 0.7659 0.10161 0.78605 0.0
H683 H 0.79127 0.09266 0.75088 0.0
H684 H 0.76527 0.08827 0.64915 0.0
H685 H 0.88897 0.24508 0.88175 0.0
H686 H 0.89936 0.21858 0.86416 0.0
H687 H 0.87547 0.21455 0.96115 0.0
C688 C 0.59797 0.78047 0.37984 0.0
C689 C 0.59177 0.80168 0.42332 0.0
C690 C 0.60202 0.77695 0.2743 0.0
C691 C 0.59842 0.79418 0.20947 0.0
C692 C 0.58715 0.81131 0.2483 0.0
C693 C 0.58454 0.81552 0.35653 0.0
C694 C 0.61411 0.7584 0.23738 0.0
C695 C 0.58055 0.82767 0.1788 0.0
C696 C 0.65589 0.83124 0.0217 0.0
C697 C 0.64104 0.80531 0.93231 0.0
C698 C 0.64214 0.82794 0.1128 0.0
C699 C 0.61185 0.79898 0.11057 0.0
C700 C 0.59643 0.77315 0.01868 0.0
C701 C 0.61193 0.77596 0.93268 0.0
C702 C 0.66026 0.85527 0.21145 0.0
C703 C 0.56333 0.74315 0.00919 0.0
H704 H 0.60244 0.76887 0.43034 0.0
H705 H 0.57943 0.83176 0.38998 0.0
H706 H 0.60192 0.74188 0.15813 0.0
H707 H 0.63868 0.77644 0.23104 0.0
H708 H 0.61185 0.74306 0.29298 0.0
H709 H 0.56227 0.82863 0.20478 0.0
H710 H 0.60145 0.85346 0.18561 0.0
H711 H 0.57356 0.81457 0.09415 0.0
H712 H 0.6784 0.85392 0.02058 0.0
H713 H 0.60059 0.75578 0.86357 0.0
H714 H 0.68467 0.87379 0.20375 0.0
H715 H 0.65925 0.84494 0.28164 0.0
H716 H 0.65036 0.86828 0.22694 0.0
H717 H 0.54866 0.75024 -0.00696 0.0
H718 H 0.5581 0.73396 0.08359 0.0
H719 H 0.55685 0.72259 0.94329 0.0
C720 C 0.85007 0.56022 0.77129 0.0
C721 C 0.86303 0.55263 0.8428 0.0
C722 C 0.84943 0.55226 0.66207 0.0
C723 C 0.85938 0.53366 0.62503 0.0
C724 C 0.8729 0.52653 0.69795 0.0
C725 C 0.87648 0.53832 0.80588 0.0
C726 C 0.83717 0.56293 0.58815 0.0
C727 C 0.8815 0.50428 0.66516 0.0
C728 C 0.82641 0.48071 0.34692 0.0
C729 C 0.85317 0.49457 0.30263 0.0
C730 C 0.8278 0.49338 0.45268 0.0
C731 C 0.85633 0.52184 0.51099 0.0
C732 C 0.88308 0.53678 0.46381 0.0
C733 C 0.88136 0.52199 0.36185 0.0
C734 C 0.79888 0.47605 0.50141 0.0
C735 C 0.91376 0.56747 0.52274 0.0
H736 H 0.84023 0.57203 0.80045 0.0
H737 H 0.88758 0.53373 0.86161 0.0
H738 H 0.84468 0.56337 0.50947 0.0
H739 H 0.81183 0.54574 0.57697 0.0
H740 H 0.84463 0.58797 0.62373 0.0
H741 H 0.90304 0.51374 0.71499 0.0
H742 H 0.86307 0.47932 0.67815 0.0
H743 H 0.88429 0.50102 0.58099 0.0
H744 H 0.80466 0.45971 0.29967 0.0
H745 H 0.90208 0.53272 0.32702 0.0
H746 H 0.78942 0.48954 0.50063 0.0
H747 H 0.8034 0.47545 0.58499 0.0
H748 H 0.78115 0.45027 0.45603 0.0
H749 H 0.91165 0.58658 0.55898 0.0
H750 H 0.93148 0.57773 0.47035 0.0
H751 H 0.92197 0.56172 0.5878 0.0
C752 C 0.31029 0.89215 0.15689 0.0
C753 C 0.28908 0.87087 0.06487 0.0
C754 C 0.30238 0.88476 0.2563 0.0
C755 C 0.27379 0.85443 0.25997 0.0
C756 C 0.2532 0.8325 0.16639 0.0
C757 C 0.26064 0.84202 0.07135 0.0
C758 C 0.32433 0.90919 0.35591 0.0
C759 C 0.22304 0.79901 0.16554 0.0
C760 C 0.25548 0.80987 0.47978 0.0
C761 C 0.23354 0.8122 0.51766 0.0
C762 C 0.27078 0.82583 0.40022 0.0
C763 C 0.26405 0.84477 0.35972 0.0
C764 C 0.24199 0.84734 0.39826 0.0
C765 C 0.22615 0.83001 0.47496 0.0
C766 C 0.29316 0.82138 0.35688 0.0
C767 C 0.23492 0.86804 0.35736 0.0
H768 H 0.33233 0.91475 0.15137 0.0
H769 H 0.24412 0.82618 0.00173 0.0
H770 H 0.31197 0.90953 0.42121 0.0
H771 H 0.33821 0.90209 0.38259 0.0
H772 H 0.34026 0.9346 0.34162 0.0
H773 H 0.21345 0.78254 0.08516 0.0
H774 H 0.2257 0.78623 0.22045 0.0
H775 H 0.20611 0.80224 0.19142 0.0
H776 H 0.26121 0.79625 0.51465 0.0
H777 H 0.20964 0.83235 0.5067 0.0
H778 H 0.31586 0.8458 0.36447 0.0
H779 H 0.28523 0.80936 0.27115 0.0
H780 H 0.29594 0.80606 0.39871 0.0
H781 H 0.25641 0.89225 0.35139 0.0
H782 H 0.22171 0.87245 0.40921 0.0
H783 H 0.22126 0.8553 0.27666 0.0
C784 C 0.46515 0.22918 0.04835 0.0
C785 C 0.45839 0.19955 0.06284 0.0
C786 C 0.47573 0.24065 0.9569 0.0
C787 C 0.47561 0.21977 0.87218 0.0
C788 C 0.46319 0.18701 0.87986 0.0
C789 C 0.45568 0.17766 0.9772 0.0
C790 C 0.489 0.27602 0.95641 0.0
C791 C 0.45883 0.16189 0.78891 0.0
C792 C 0.49716 0.26065 0.63746 0.0
C793 C 0.52169 0.26117 0.61482 0.0
C794 C 0.48017 0.24453 0.71455 0.0
C795 C 0.49117 0.23357 0.78205 0.0
C796 C 0.51874 0.23836 0.76792 0.0
C797 C 0.5326 0.25031 0.68015 0.0
C798 C 0.44973 0.23777 0.71634 0.0
C799 C 0.53347 0.23035 0.84291 0.0
H800 H 0.46552 0.2453 0.11353 0.0
H801 H 0.44912 0.15403 -0.01269 0.0
H802 H 0.50879 0.28811 0.91305 0.0
H803 H 0.47111 0.27635 0.91874 0.0
H804 H 0.49663 0.29139 0.03811 0.0
H805 H 0.43456 0.13926 0.77357 0.0
H806 H 0.4649 0.17088 0.71443 0.0
H807 H 0.47262 0.15424 0.81156 0.0
H808 H 0.48952 0.27025 0.58899 0.0
H809 H 0.55187 0.25106 0.66234 0.0
H810 H 0.4533 0.26148 0.73045 0.0
H811 H 0.4366 0.2235 0.77575 0.0
H812 H 0.43541 0.22351 0.63704 0.0
H813 H 0.5582 0.24438 0.83873 0.0
H814 H 0.52287 0.20379 0.81972 0.0
H815 H 0.53073 0.23585 0.92625 0.0
loop_
_geom_bond_atom_site_label_1
_geom_bond_atom_site_label_2
_geom_bond_distance
_geom_bond_site_symmetry_2
_ccdc_geom_bond_type
Sm0 C2 2.846 . S
Sm0 O20 2.543 . S
Sm0 O21 2.450 . S
Sm0 O22 2.681 . S
Sm0 O23 2.464 . S
Sm0 O24 2.396 . S
Sm0 O28 2.386 1_556 S
Sm0 O31 2.408 . S
Sm1 C11 2.846 1_556 S
Sm1 O22 2.386 . S
Sm1 O25 2.408 . S
Sm1 O26 2.543 . S
Sm1 O27 2.450 1_556 S
Sm1 O28 2.681 1_556 S
Sm1 O29 2.464 1_556 S
Sm1 O30 2.396 1_556 S
C2 Sm0 2.846 . S
C2 C3 1.506 . S
C2 O20 1.261 . S
C2 O21 1.242 . S
C3 C2 1.506 . S
C3 C4 1.358 . S
C3 C8 1.382 . S
C4 C3 1.358 . S
C4 C5 1.385 . S
C4 H32 0.930 . S
C5 C4 1.385 . S
C5 C6 1.395 . S
C5 H33 0.929 . S
C6 C5 1.395 . S
C6 C7 1.335 . S
C7 C6 1.335 . S
C7 C8 1.398 . S
C7 H34 0.930 . S
C8 C3 1.382 . S
C8 C7 1.398 . S
C8 H35 0.929 . S
C9 O22 1.271 . S
C9 O23 1.251 . S
C10 O24 1.252 . S
C10 O25 1.272 . S
C11 Sm1 2.846 1_554 S
C11 C12 1.506 . S
C11 O26 1.253 1_554 S
C11 O27 1.250 . S
C12 C11 1.506 . S
C12 C13 1.358 1_554 S
C12 C17 1.382 . S
C13 C12 1.358 1_556 S
C13 C14 1.385 . S
C13 H36 0.930 . S
C14 C13 1.385 . S
C14 C15 1.395 1_556 S
C14 H37 0.929 . S
C15 C14 1.395 1_554 S
C15 C16 1.335 . S
C16 C15 1.335 . S
C16 C17 1.398 . S
C16 H38 0.930 . S
C17 C12 1.382 . S
C17 C16 1.398 . S
C17 H39 0.929 . S
C18 O28 1.271 . S
C18 O29 1.251 . S
C19 O30 1.252 . S
C19 O31 1.272 1_554 S
O20 Sm0 2.543 . S
O20 C2 1.261 . S
O21 Sm0 2.450 . S
O21 C2 1.242 . S
O22 Sm0 2.681 . S
O22 Sm1 2.386 . S
O22 C9 1.271 . S
O23 Sm0 2.464 . S
O23 C9 1.251 . S
O24 Sm0 2.396 . S
O24 C10 1.252 . S
O25 Sm1 2.408 . S
O25 C10 1.272 . S
O26 Sm1 2.543 . S
O26 C11 1.253 1_556 S
O27 Sm1 2.450 1_554 S
O27 C11 1.250 . S
O28 Sm0 2.386 1_554 S
O28 Sm1 2.681 1_554 S
O28 C18 1.271 . S
O29 Sm1 2.464 1_554 S
O29 C18 1.251 . S
O30 Sm1 2.396 1_554 S
O30 C19 1.252 . S
O31 Sm0 2.408 . S
O31 C19 1.272 1_556 S
H32 C4 0.930 . S
H33 C5 0.929 . S
H34 C7 0.930 . S
H35 C8 0.929 . S
H36 C13 0.930 . S
H37 C14 0.929 . S
H38 C16 0.930 . S
H39 C17 0.929 . S
Sm40 C42 2.846 . S
Sm40 O60 2.543 . S
Sm40 O61 2.450 . S
Sm40 O62 2.681 1_554 S
Sm40 O63 2.464 1_554 S
Sm40 O64 2.396 . S
Sm40 O68 2.386 . S
Sm40 O71 2.408 . S
Sm41 C51 2.846 1_554 S
Sm41 O62 2.386 1_554 S
Sm41 O65 2.408 . S
Sm41 O66 2.543 1_554 S
Sm41 O67 2.450 . S
Sm41 O68 2.681 . S
Sm41 O69 2.464 . S
Sm41 O70 2.396 . S
C42 Sm40 2.846 . S
C42 C43 1.506 . S
C42 O60 1.261 . S
C42 O61 1.242 . S
C43 C42 1.506 . S
C43 C44 1.358 . S
C43 C48 1.382 . S
C44 C43 1.358 . S
C44 C45 1.385 . S
C44 H72 0.930 . S
C45 C44 1.385 . S
C45 C46 1.395 . S
C45 H73 0.929 . S
C46 C45 1.395 . S
C46 C47 1.335 . S
C47 C46 1.335 . S
C47 C48 1.398 . S
C47 H74 0.930 . S
C48 C43 1.382 . S
C48 C47 1.398 . S
C48 H75 0.929 . S
C49 O62 1.271 . S
C49 O63 1.251 . S
C50 O64 1.252 . S
C50 O65 1.272 . S
C51 Sm41 2.846 1_556 S
C51 C52 1.506 . S
C51 O66 1.261 . S
C51 O67 1.242 1_556 S
C52 C51 1.506 . S
C52 C53 1.358 . S
C52 C57 1.382 1_556 S
C53 C52 1.358 . S
C53 C54 1.385 . S
C53 H76 0.930 . S
C54 C53 1.385 . S
C54 C55 1.395 . S
C54 H77 0.929 . S
C55 C54 1.395 . S
C55 C56 1.335 . S
C56 C55 1.335 . S
C56 C57 1.398 1_556 S
C56 H78 0.930 1_556 S
C57 C52 1.382 1_554 S
C57 C56 1.398 1_554 S
C57 H79 0.929 . S
C58 O68 1.271 . S
C58 O69 1.251 . S
C59 O70 1.252 . S
C59 O71 1.272 . S
O60 Sm40 2.543 . S
O60 C42 1.261 . S
O61 Sm40 2.450 . S
O61 C42 1.242 . S
O62 Sm40 2.681 1_556 S
O62 Sm41 2.386 1_556 S
O62 C49 1.271 . S
O63 Sm40 2.464 1_556 S
O63 C49 1.251 . S
O64 Sm40 2.396 . S
O64 C50 1.252 . S
O65 Sm41 2.408 . S
O65 C50 1.272 . S
O66 Sm41 2.543 1_556 S
O66 C51 1.261 . S
O67 Sm41 2.450 . S
O67 C51 1.242 1_554 S
O68 Sm40 2.386 . S
O68 Sm41 2.681 . S
O68 C58 1.271 . S
O69 Sm41 2.464 . S
O69 C58 1.251 . S
O70 Sm41 2.396 . S
O70 C59 1.252 . S
O71 Sm40 2.408 . S
O71 C59 1.272 . S
H72 C44 0.930 . S
H73 C45 0.929 . S
H74 C47 0.930 . S
H75 C48 0.929 . S
H76 C53 0.930 . S
H77 C54 0.929 . S
H78 C56 0.930 1_554 S
H79 C57 0.929 . S
Sm80 C82 2.846 . S
Sm80 O100 2.543 . S
Sm80 O101 2.450 1_556 S
Sm80 O102 2.681 1_556 S
Sm80 O103 2.464 1_556 S
Sm80 O104 2.396 1_556 S
Sm80 O108 2.386 . S
Sm80 O111 2.408 1_556 S
Sm81 C91 2.846 . S
Sm81 O102 2.386 . S
Sm81 O105 2.408 1_554 S
Sm81 O106 2.543 . S
Sm81 O107 2.450 1_554 S
Sm81 O108 2.681 1_554 S
Sm81 O109 2.464 1_554 S
Sm81 O110 2.396 1_554 S
C82 Sm80 2.846 . S
C82 C83 1.506 . S
C82 O100 1.261 . S
C82 O101 1.242 1_556 S
C83 C82 1.506 . S
C83 C84 1.358 . S
C83 C88 1.382 . S
C84 C83 1.358 . S
C84 C85 1.385 . S
C84 H112 0.930 . S
C85 C84 1.385 . S
C85 C86 1.395 . S
C85 H113 0.929 . S
C86 C85 1.395 . S
C86 C87 1.335 . S
C87 C86 1.335 . S
C87 C88 1.398 . S
C87 H114 0.930 . S
C88 C83 1.382 . S
C88 C87 1.398 . S
C88 H115 0.929 1_556 S
C89 O102 1.271 . S
C89 O103 1.251 . S
C90 O104 1.252 1_556 S
C90 O105 1.272 . S
C91 Sm81 2.846 . S
C91 C92 1.506 . S
C91 O106 1.261 . S
C91 O107 1.242 1_554 S
C92 C91 1.506 . S
C92 C93 1.358 . S
C92 C97 1.382 . S
C93 C92 1.358 . S
C93 C94 1.385 . S
C93 H116 0.930 . S
C94 C93 1.385 . S
C94 C95 1.395 . S
C94 H117 0.929 . S
C95 C94 1.395 . S
C95 C96 1.335 . S
C96 C95 1.335 . S
C96 C97 1.398 . S
C96 H118 0.930 . S
C97 C92 1.382 . S
C97 C96 1.398 . S
C97 H119 0.929 1_554 S
C98 O108 1.271 . S
C98 O109 1.251 . S
C99 O110 1.252 1_554 S
C99 O111 1.272 . S
O100 Sm80 2.543 . S
O100 C82 1.261 . S
O101 Sm80 2.450 1_554 S
O101 C82 1.242 1_554 S
O102 Sm80 2.681 1_554 S
O102 Sm81 2.386 . S
O102 C89 1.271 . S
O103 Sm80 2.464 1_554 S
O103 C89 1.251 . S
O104 Sm80 2.396 1_554 S
O104 C90 1.252 1_554 S
O105 Sm81 2.408 1_556 S
O105 C90 1.272 . S
O106 Sm81 2.543 . S
O106 C91 1.261 . S
O107 Sm81 2.450 1_556 S
O107 C91 1.242 1_556 S
O108 Sm80 2.386 . S
O108 Sm81 2.681 1_556 S
O108 C98 1.271 . S
O109 Sm81 2.464 1_556 S
O109 C98 1.251 . S
O110 Sm81 2.396 1_556 S
O110 C99 1.252 1_556 S
O111 Sm80 2.408 1_554 S
O111 C99 1.272 . S
H112 C84 0.930 . S
H113 C85 0.929 . S
H114 C87 0.930 . S
H115 C88 0.929 1_554 S
H116 C93 0.930 . S
H117 C94 0.929 . S
H118 C96 0.930 . S
H119 C97 0.929 1_556 S
Sm120 C122 2.846 . S
Sm120 O140 2.543 . S
Sm120 O141 2.450 1_554 S
Sm120 O142 2.681 1_554 S
Sm120 O143 2.464 1_554 S
Sm120 O144 2.396 . S
Sm120 O148 2.386 . S
Sm120 O151 2.408 1_554 S
Sm121 C131 2.846 . S
Sm121 O142 2.386 . S
Sm121 O145 2.408 1_556 S
Sm121 O146 2.543 . S
Sm121 O147 2.450 1_556 S
Sm121 O148 2.681 1_556 S
Sm121 O149 2.464 1_556 S
Sm121 O150 2.396 . S
C122 Sm120 2.846 . S
C122 C123 1.506 . S
C122 O140 1.261 . S
C122 O141 1.242 1_554 S
C123 C122 1.506 . S
C123 C124 1.358 . S
C123 C128 1.382 . S
C124 C123 1.358 . S
C124 C125 1.385 . S
C124 H152 0.930 . S
C125 C124 1.385 . S
C125 C126 1.395 . S
C125 H153 0.929 . S
C126 C125 1.395 . S
C126 C127 1.335 . S
C127 C126 1.335 . S
C127 C128 1.398 . S
C127 H154 0.930 . S
C128 C123 1.382 . S
C128 C127 1.398 . S
C128 H155 0.929 1_554 S
C129 O142 1.271 . S
C129 O143 1.251 . S
C130 O144 1.252 . S
C130 O145 1.272 . S
C131 Sm121 2.846 . S
C131 C132 1.506 . S
C131 O146 1.261 . S
C131 O147 1.242 1_556 S
C132 C131 1.506 . S
C132 C133 1.358 . S
C132 C137 1.382 . S
C133 C132 1.358 . S
C133 C134 1.385 . S
C133 H156 0.930 . S
C134 C133 1.385 . S
C134 C135 1.395 . S
C134 H157 0.929 . S
C135 C134 1.395 . S
C135 C136 1.335 . S
C136 C135 1.335 . S
C136 C137 1.398 . S
C136 H158 0.930 . S
C137 C132 1.382 . S
C137 C136 1.398 . S
C137 H159 0.929 1_556 S
C138 O148 1.271 . S
C138 O149 1.251 . S
C139 O150 1.252 . S
C139 O151 1.272 . S
O140 Sm120 2.543 . S
O140 C122 1.261 . S
O141 Sm120 2.450 1_556 S
O141 C122 1.242 1_556 S
O142 Sm120 2.681 1_556 S
O142 Sm121 2.386 . S
O142 C129 1.271 . S
O143 Sm120 2.464 1_556 S
O143 C129 1.251 . S
O144 Sm120 2.396 . S
O144 C130 1.252 . S
O145 Sm121 2.408 1_554 S
O145 C130 1.272 . S
O146 Sm121 2.543 . S
O146 C131 1.261 . S
O147 Sm121 2.450 1_554 S
O147 C131 1.242 1_554 S
O148 Sm120 2.386 . S
O148 Sm121 2.681 1_554 S
O148 C138 1.271 . S
O149 Sm121 2.464 1_554 S
O149 C138 1.251 . S
O150 Sm121 2.396 . S
O150 C139 1.252 . S
O151 Sm120 2.408 1_556 S
O151 C139 1.272 . S
H152 C124 0.930 . S
H153 C125 0.929 . S
H154 C127 0.930 . S
H155 C128 0.929 1_556 S
H156 C133 0.930 . S
H157 C134 0.929 . S
H158 C136 0.930 . S
H159 C137 0.929 1_554 S
Sm160 C162 2.846 . S
Sm160 O180 2.543 1_556 S
Sm160 O181 2.450 . S
Sm160 O182 2.681 . S
Sm160 O183 2.464 . S
Sm160 O184 2.396 . S
Sm160 O188 2.386 1_556 S
Sm160 O191 2.408 . S
Sm161 C171 2.846 . S
Sm161 O182 2.386 1_554 S
Sm161 O185 2.408 . S
Sm161 O186 2.543 1_554 S
Sm161 O187 2.450 . S
Sm161 O188 2.681 . S
Sm161 O189 2.464 . S
Sm161 O190 2.396 . S
C162 Sm160 2.846 . S
C162 C163 1.506 . S
C162 O180 1.261 1_556 S
C162 O181 1.242 . S
C163 C162 1.506 . S
C163 C164 1.358 . S
C163 C168 1.382 . S
C164 C163 1.358 . S
C164 C165 1.385 . S
C164 H192 0.930 1_556 S
C165 C164 1.385 . S
C165 C166 1.395 . S
C165 H193 0.929 1_556 S
C166 C165 1.395 . S
C166 C167 1.335 . S
C167 C166 1.335 . S
C167 C168 1.398 . S
C167 H194 0.930 . S
C168 C163 1.382 . S
C168 C167 1.398 . S
C168 H195 0.929 . S
C169 O182 1.271 . S
C169 O183 1.251 . S
C170 O184 1.252 . S
C170 O185 1.272 1_556 S
C171 Sm161 2.846 . S
C171 C172 1.506 . S
C171 O186 1.261 1_554 S
C171 O187 1.242 . S
C172 C171 1.506 . S
C172 C173 1.358 . S
C172 C177 1.382 . S
C173 C172 1.358 . S
C173 C174 1.385 . S
C173 H196 0.930 1_554 S
C174 C173 1.385 . S
C174 C175 1.395 . S
C174 H197 0.929 1_554 S
C175 C174 1.395 . S
C175 C176 1.335 . S
C176 C175 1.335 . S
C176 C177 1.398 . S
C176 H198 0.930 . S
C177 C172 1.382 . S
C177 C176 1.398 . S
C177 H199 0.929 . S
C178 O188 1.271 . S
C178 O189 1.251 . S
C179 O190 1.252 . S
C179 O191 1.272 1_554 S
O180 Sm160 2.543 1_554 S
O180 C162 1.261 1_554 S
O181 Sm160 2.450 . S
O181 C162 1.242 . S
O182 Sm160 2.681 . S
O182 Sm161 2.386 1_556 S
O182 C169 1.271 . S
O183 Sm160 2.464 . S
O183 C169 1.251 . S
O184 Sm160 2.396 . S
O184 C170 1.252 . S
O185 Sm161 2.408 . S
O185 C170 1.272 1_554 S
O186 Sm161 2.543 1_556 S
O186 C171 1.261 1_556 S
O187 Sm161 2.450 . S
O187 C171 1.242 . S
O188 Sm160 2.386 1_554 S
O188 Sm161 2.681 . S
O188 C178 1.271 . S
O189 Sm161 2.464 . S
O189 C178 1.251 . S
O190 Sm161 2.396 . S
O190 C179 1.252 . S
O191 Sm160 2.408 . S
O191 C179 1.272 1_556 S
H192 C164 0.930 1_554 S
H193 C165 0.929 1_554 S
H194 C167 0.930 . S
H195 C168 0.929 . S
H196 C173 0.930 1_556 S
H197 C174 0.929 1_556 S
H198 C176 0.930 . S
H199 C177 0.929 . S
Sm200 C202 2.846 1_556 S
Sm200 O220 2.543 1_556 S
Sm200 O221 2.450 . S
Sm200 O222 2.681 . S
Sm200 O223 2.464 . S
Sm200 O224 2.396 . S
Sm200 O228 2.386 1_556 S
Sm200 O231 2.408 . S
Sm201 C211 2.846 1_554 S
Sm201 O222 2.386 1_554 S
Sm201 O225 2.408 . S
Sm201 O226 2.543 1_554 S
Sm201 O227 2.450 . S
Sm201 O228 2.681 . S
Sm201 O229 2.464 . S
Sm201 O230 2.396 . S
C202 Sm200 2.846 1_554 S
C202 C203 1.506 . S
C202 O220 1.261 . S
C202 O221 1.242 1_554 S
C203 C202 1.506 . S
C203 C204 1.358 . S
C203 C208 1.382 1_544 S
C204 C203 1.358 . S
C204 C205 1.385 1_545 S
C204 H232 0.930 . S
C205 C204 1.385 1_565 S
C205 C206 1.395 . S
C205 H233 0.929 1_565 S
C206 C205 1.395 . S
C206 C207 1.335 1_554 S
C207 C206 1.335 1_556 S
C207 C208 1.398 . S
C207 H234 0.930 . S
C208 C203 1.382 1_566 S
C208 C207 1.398 . S
C208 H235 0.929 . S
C209 O222 1.271 . S
C209 O223 1.251 . S
C210 O224 1.252 1_554 S
C210 O225 1.272 . S
C211 Sm201 2.846 1_556 S
C211 C212 1.506 . S
C211 O226 1.261 . S
C211 O227 1.242 1_556 S
C212 C211 1.506 . S
C212 C213 1.358 . S
C212 C217 1.382 1_556 S
C213 C212 1.358 . S
C213 C214 1.385 . S
C213 H236 0.930 . S
C214 C213 1.385 . S
C214 C215 1.395 . S
C214 H237 0.929 . S
C215 C214 1.395 . S
C215 C216 1.335 1_556 S
C216 C215 1.335 1_554 S
C216 C217 1.398 . S
C216 H238 0.930 . S
C217 C212 1.382 1_554 S
C217 C216 1.398 . S
C217 H239 0.929 . S
C218 O228 1.271 . S
C218 O229 1.251 . S
C219 O230 1.252 1_556 S
C219 O231 1.272 . S
O220 Sm200 2.543 1_554 S
O220 C202 1.261 . S
O221 Sm200 2.450 . S
O221 C202 1.242 1_556 S
O222 Sm200 2.681 . S
O222 Sm201 2.386 1_556 S
O222 C209 1.271 . S
O223 Sm200 2.464 . S
O223 C209 1.251 . S
O224 Sm200 2.396 . S
O224 C210 1.252 1_556 S
O225 Sm201 2.408 . S
O225 C210 1.272 . S
O226 Sm201 2.543 1_556 S
O226 C211 1.261 . S
O227 Sm201 2.450 . S
O227 C211 1.242 1_554 S
O228 Sm200 2.386 1_554 S
O228 Sm201 2.681 . S
O228 C218 1.271 . S
O229 Sm201 2.464 . S
O229 C218 1.251 . S
O230 Sm201 2.396 . S
O230 C219 1.252 1_554 S
O231 Sm200 2.408 . S
O231 C219 1.272 . S
H232 C204 0.930 . S
H233 C205 0.929 1_545 S
H234 C207 0.930 . S
H235 C208 0.929 . S
H236 C213 0.930 . S
H237 C214 0.929 . S
H238 C216 0.930 . S
H239 C217 0.929 . S
C240 C241 1.391 . S
C240 C242 1.394 . S
C240 H256 0.931 . S
C241 C240 1.391 . S
C241 C245 1.376 . S
C242 C240 1.394 . S
C242 C243 1.369 . S
C242 C246 1.531 . S
C243 C242 1.369 . S
C243 C244 1.410 . S
C243 C251 1.503 . S
C244 C243 1.410 . S
C244 C245 1.392 . S
C244 C247 1.511 . S
C245 C241 1.376 . S
C245 C244 1.392 . S
C245 H257 0.929 . S
C246 C242 1.531 . S
C246 H258 0.960 . S
C246 H259 0.962 . S
C246 H260 0.960 . S
C247 C244 1.511 . S
C247 H261 0.961 . S
C247 H262 0.961 . S
C247 H263 0.961 . S
C248 C249 1.370 . S
C248 C250 1.363 . S
C248 H264 0.931 . S
C249 C248 1.370 . S
C249 C253 1.408 . S
C250 C248 1.363 . S
C250 C251 1.370 . S
C250 C254 1.524 . S
C251 C243 1.503 . S
C251 C250 1.370 . S
C251 C252 1.403 . S
C252 C251 1.403 . S
C252 C253 1.404 . S
C252 C255 1.539 . S
C253 C249 1.408 . S
C253 C252 1.404 . S
C253 H265 0.930 . S
C254 C250 1.524 . S
C254 H266 0.956 . S
C254 H267 0.961 . S
C254 H268 0.961 . S
C255 C252 1.539 . S
C255 H269 0.958 . S
C255 H270 0.961 . S
C255 H271 0.960 . S
H256 C240 0.931 . S
H257 C245 0.929 . S
H258 C246 0.960 . S
H259 C246 0.962 . S
H260 C246 0.960 . S
H261 C247 0.961 . S
H262 C247 0.961 . S
H263 C247 0.961 . S
H264 C248 0.931 . S
H265 C253 0.930 . S
H266 C254 0.956 . S
H267 C254 0.961 . S
H268 C254 0.961 . S
H269 C255 0.958 . S
H270 C255 0.961 . S
H271 C255 0.960 . S
C272 C273 1.391 . S
C272 C274 1.394 . S
C272 H288 0.931 . S
C273 C272 1.391 . S
C273 C277 1.376 . S
C274 C272 1.394 . S
C274 C275 1.369 . S
C274 C278 1.531 . S
C275 C274 1.369 . S
C275 C276 1.410 . S
C275 C283 1.503 . S
C276 C275 1.410 . S
C276 C277 1.392 . S
C276 C279 1.511 . S
C277 C273 1.376 . S
C277 C276 1.392 . S
C277 H289 0.929 . S
C278 C274 1.531 . S
C278 H290 0.960 . S
C278 H291 0.962 . S
C278 H292 0.960 . S
C279 C276 1.511 . S
C279 H293 0.961 . S
C279 H294 0.961 . S
C279 H295 0.961 . S
C280 C281 1.370 . S
C280 C282 1.363 . S
C280 H296 0.931 . S
C281 C280 1.370 . S
C281 C285 1.408 . S
C282 C280 1.363 . S
C282 C283 1.370 . S
C282 C286 1.524 . S
C283 C275 1.503 . S
C283 C282 1.370 . S
C283 C284 1.403 . S
C284 C283 1.403 . S
C284 C285 1.404 . S
C284 C287 1.539 . S
C285 C281 1.408 . S
C285 C284 1.404 . S
C285 H297 0.930 . S
C286 C282 1.524 . S
C286 H298 0.956 . S
C286 H299 0.961 . S
C286 H300 0.961 . S
C287 C284 1.539 . S
C287 H301 0.958 . S
C287 H302 0.961 . S
C287 H303 0.960 . S
H288 C272 0.931 . S
H289 C277 0.929 . S
H290 C278 0.960 . S
H291 C278 0.962 . S
H292 C278 0.960 . S
H293 C279 0.961 . S
H294 C279 0.961 . S
H295 C279 0.961 . S
H296 C280 0.931 . S
H297 C285 0.930 . S
H298 C286 0.956 . S
H299 C286 0.961 . S
H300 C286 0.961 . S
H301 C287 0.958 . S
H302 C287 0.961 . S
H303 C287 0.960 . S
C304 C305 1.391 . S
C304 C306 1.394 . S
C304 H320 0.931 . S
C305 C304 1.391 . S
C305 C309 1.376 . S
C306 C304 1.394 . S
C306 C307 1.369 . S
C306 C310 1.531 . S
C307 C306 1.369 . S
C307 C308 1.411 1_545 S
C307 C315 1.503 . S
C308 C307 1.411 1_565 S
C308 C309 1.390 1_565 S
C308 C311 1.513 . S
C309 C305 1.376 . S
C309 C308 1.390 1_545 S
C309 H321 0.929 1_545 S
C310 C306 1.531 . S
C310 H322 0.960 . S
C310 H323 0.962 . S
C310 H324 0.960 . S
C311 C308 1.513 . S
C311 H325 0.961 . S
C311 H326 0.961 . S
C311 H327 0.961 . S
C312 C313 1.370 . S
C312 C314 1.363 . S
C312 H328 0.931 . S
C313 C312 1.370 . S
C313 C317 1.408 1_565 S
C314 C312 1.363 . S
C314 C315 1.370 1_565 S
C314 C318 1.524 . S
C315 C307 1.503 . S
C315 C314 1.370 1_545 S
C315 C316 1.403 . S
C316 C315 1.403 . S
C316 C317 1.404 . S
C316 C319 1.539 . S
C317 C313 1.408 1_545 S
C317 C316 1.404 . S
C317 H329 0.930 . S
C318 C314 1.524 . S
C318 H330 0.956 . S
C318 H331 0.961 . S
C318 H332 0.961 . S
C319 C316 1.539 . S
C319 H333 0.958 . S
C319 H334 0.961 . S
C319 H335 0.960 . S
H320 C304 0.931 . S
H321 C309 0.929 1_565 S
H322 C310 0.960 . S
H323 C310 0.962 . S
H324 C310 0.960 . S
H325 C311 0.961 . S
H326 C311 0.961 . S
H327 C311 0.961 . S
H328 C312 0.931 . S
H329 C317 0.930 . S
H330 C318 0.956 . S
H331 C318 0.961 . S
H332 C318 0.961 . S
H333 C319 0.958 . S
H334 C319 0.961 . S
H335 C319 0.960 . S
C336 C337 1.391 . S
C336 C338 1.394 . S
C336 H352 0.931 . S
C337 C336 1.391 . S
C337 C341 1.376 . S
C338 C336 1.394 . S
C338 C339 1.369 . S
C338 C342 1.531 . S
C339 C338 1.369 . S
C339 C340 1.410 . S
C339 C347 1.503 . S
C340 C339 1.410 . S
C340 C341 1.392 . S
C340 C343 1.511 . S
C341 C337 1.376 . S
C341 C340 1.392 . S
C341 H353 0.929 . S
C342 C338 1.531 . S
C342 H354 0.960 . S
C342 H355 0.962 . S
C342 H356 0.960 . S
C343 C340 1.511 . S
C343 H357 0.961 . S
C343 H358 0.961 . S
C343 H359 0.961 . S
C344 C345 1.370 . S
C344 C346 1.363 . S
C344 H360 0.931 . S
C345 C344 1.370 . S
C345 C349 1.408 . S
C346 C344 1.363 . S
C346 C347 1.370 . S
C346 C350 1.524 . S
C347 C339 1.503 . S
C347 C346 1.370 . S
C347 C348 1.403 . S
C348 C347 1.403 . S
C348 C349 1.404 . S
C348 C351 1.539 . S
C349 C345 1.408 . S
C349 C348 1.404 . S
C349 H361 0.930 . S
C350 C346 1.524 . S
C350 H362 0.956 . S
C350 H363 0.961 . S
C350 H364 0.961 . S
C351 C348 1.539 . S
C351 H365 0.958 . S
C351 H366 0.961 . S
C351 H367 0.960 . S
H352 C336 0.931 . S
H353 C341 0.929 . S
H354 C342 0.960 . S
H355 C342 0.962 . S
H356 C342 0.960 . S
H357 C343 0.961 . S
H358 C343 0.961 . S
H359 C343 0.961 . S
H360 C344 0.931 . S
H361 C349 0.930 . S
H362 C350 0.956 . S
H363 C350 0.961 . S
H364 C350 0.961 . S
H365 C351 0.958 . S
H366 C351 0.961 . S
H367 C351 0.960 . S
C368 C369 1.391 . S
C368 C370 1.394 . S
C368 H384 0.931 . S
C369 C368 1.391 . S
C369 C373 1.376 . S
C370 C368 1.394 . S
C370 C371 1.370 1_455 S
C370 C374 1.531 . S
C371 C370 1.370 1_655 S
C371 C372 1.408 1_655 S
C371 C379 1.504 . S
C372 C371 1.408 1_455 S
C372 C373 1.392 . S
C372 C375 1.511 1_455 S
C373 C369 1.376 . S
C373 C372 1.392 . S
C373 H385 0.929 . S
C374 C370 1.531 . S
C374 H386 0.949 . S
C374 H387 0.962 1_455 S
C374 H388 0.960 . S
C375 C372 1.511 1_655 S
C375 H389 0.961 . S
C375 H390 0.961 . S
C375 H391 0.961 1_655 S
C376 C377 1.370 . S
C376 C378 1.363 . S
C376 H392 0.931 . S
C377 C376 1.370 . S
C377 C381 1.408 . S
C378 C376 1.363 . S
C378 C379 1.370 . S
C378 C382 1.524 . S
C379 C371 1.504 . S
C379 C378 1.370 . S
C379 C380 1.403 . S
C380 C379 1.403 . S
C380 C381 1.404 . S
C380 C383 1.539 1_655 S
C381 C377 1.408 . S
C381 C380 1.404 . S
C381 H393 0.930 . S
C382 C378 1.524 . S
C382 H394 0.956 . S
C382 H395 0.961 . S
C382 H396 0.961 . S
C383 C380 1.539 1_455 S
C383 H397 0.958 . S
C383 H398 0.961 . S
C383 H399 0.960 . S
H384 C368 0.931 . S
H385 C373 0.929 . S
H386 C374 0.949 . S
H387 C374 0.962 1_655 S
H388 C374 0.960 . S
H389 C375 0.961 . S
H390 C375 0.961 . S
H391 C375 0.961 1_455 S
H392 C376 0.931 . S
H393 C381 0.930 . S
H394 C382 0.956 . S
H395 C382 0.961 . S
H396 C382 0.961 . S
H397 C383 0.958 . S
H398 C383 0.961 . S
H399 C383 0.960 . S
C400 C401 1.391 . S
C400 C402 1.394 . S
C400 H416 0.931 . S
C401 C400 1.391 . S
C401 C405 1.376 . S
C402 C400 1.394 . S
C402 C403 1.369 . S
C402 C406 1.531 . S
C403 C402 1.369 . S
C403 C404 1.410 . S
C403 C411 1.503 . S
C404 C403 1.410 . S
C404 C405 1.392 . S
C404 C407 1.511 . S
C405 C401 1.376 . S
C405 C404 1.392 . S
C405 H417 0.929 . S
C406 C402 1.531 . S
C406 H418 0.960 . S
C406 H419 0.962 . S
C406 H420 0.960 . S
C407 C404 1.511 . S
C407 H421 0.961 . S
C407 H422 0.961 . S
C407 H423 0.961 1_565 S
C408 C409 1.370 . S
C408 C410 1.363 . S
C408 H424 0.931 . S
C409 C408 1.370 . S
C409 C413 1.408 . S
C410 C408 1.363 . S
C410 C411 1.370 . S
C410 C414 1.524 . S
C411 C403 1.503 . S
C411 C410 1.370 . S
C411 C412 1.403 . S
C412 C411 1.403 . S
C412 C413 1.404 . S
C412 C415 1.539 1_565 S
C413 C409 1.408 . S
C413 C412 1.404 . S
C413 H425 0.930 . S
C414 C410 1.524 . S
C414 H426 0.956 . S
C414 H427 0.961 . S
C414 H428 0.961 . S
C415 C412 1.539 1_545 S
C415 H429 0.958 1_545 S
C415 H430 0.961 . S
C415 H431 0.960 . S
H416 C400 0.931 . S
H417 C405 0.929 . S
H418 C406 0.960 . S
H419 C406 0.962 . S
H420 C406 0.960 . S
H421 C407 0.961 . S
H422 C407 0.961 . S
H423 C407 0.961 1_545 S
H424 C408 0.931 . S
H425 C413 0.930 . S
H426 C414 0.956 . S
H427 C414 0.961 . S
H428 C414 0.961 . S
H429 C415 0.958 1_565 S
H430 C415 0.961 . S
H431 C415 0.960 . S
C432 C433 1.391 . S
C432 C434 1.394 . S
C432 H448 0.931 . S
C433 C432 1.391 . S
C433 C437 1.376 1_554 S
C434 C432 1.394 . S
C434 C435 1.369 . S
C434 C438 1.531 . S
C435 C434 1.369 . S
C435 C436 1.410 1_554 S
C435 C443 1.503 . S
C436 C435 1.410 1_556 S
C436 C437 1.392 . S
C436 C439 1.511 . S
C437 C433 1.376 1_556 S
C437 C436 1.392 . S
C437 H449 0.929 . S
C438 C434 1.531 . S
C438 H450 0.960 . S
C438 H451 0.962 . S
C438 H452 0.960 . S
C439 C436 1.511 . S
C439 H453 0.961 . S
C439 H454 0.961 . S
C439 H455 0.961 . S
C440 C441 1.370 . S
C440 C442 1.363 . S
C440 H456 0.931 1_554 S
C441 C440 1.370 . S
C441 C445 1.408 . S
C442 C440 1.363 . S
C442 C443 1.370 . S
C442 C446 1.524 1_554 S
C443 C435 1.503 . S
C443 C442 1.370 . S
C443 C444 1.403 . S
C444 C443 1.403 . S
C444 C445 1.404 . S
C444 C447 1.539 . S
C445 C441 1.408 . S
C445 C444 1.404 . S
C445 H457 0.930 . S
C446 C442 1.524 1_556 S
C446 H458 0.956 . S
C446 H459 0.961 . S
C446 H460 0.961 . S
C447 C444 1.539 . S
C447 H461 0.958 . S
C447 H462 0.961 . S
C447 H463 0.960 . S
H448 C432 0.931 . S
H449 C437 0.929 . S
H450 C438 0.960 . S
H451 C438 0.962 . S
H452 C438 0.960 . S
H453 C439 0.961 . S
H454 C439 0.961 . S
H455 C439 0.961 . S
H456 C440 0.931 1_556 S
H457 C445 0.930 . S
H458 C446 0.956 . S
H459 C446 0.961 . S
H460 C446 0.961 . S
H461 C447 0.958 . S
H462 C447 0.961 . S
H463 C447 0.960 . S
C464 C465 1.391 1_554 S
C464 C466 1.394 . S
C464 H480 0.931 . S
C465 C464 1.391 1_556 S
C465 C469 1.376 . S
C466 C464 1.394 . S
C466 C467 1.369 1_554 S
C466 C470 1.531 . S
C467 C466 1.369 1_556 S
C467 C468 1.410 . S
C467 C475 1.503 . S
C468 C467 1.410 . S
C468 C469 1.392 . S
C468 C471 1.511 . S
C469 C465 1.376 . S
C469 C468 1.392 . S
C469 H481 0.929 . S
C470 C466 1.531 . S
C470 H482 0.960 . S
C470 H483 0.962 . S
C470 H484 0.960 . S
C471 C468 1.511 . S
C471 H485 0.961 . S
C471 H486 0.961 . S
C471 H487 0.961 . S
C472 C473 1.370 . S
C472 C474 1.363 . S
C472 H488 0.931 . S
C473 C472 1.370 . S
C473 C477 1.408 . S
C474 C472 1.363 . S
C474 C475 1.370 . S
C474 C478 1.524 . S
C475 C467 1.503 . S
C475 C474 1.370 . S
C475 C476 1.403 . S
C476 C475 1.403 . S
C476 C477 1.404 . S
C476 C479 1.539 1_556 S
C477 C473 1.408 . S
C477 C476 1.404 . S
C477 H489 0.930 . S
C478 C474 1.524 . S
C478 H490 0.956 . S
C478 H491 0.961 . S
C478 H492 0.961 . S
C479 C476 1.539 1_554 S
C479 H493 0.958 . S
C479 H494 0.961 1_554 S
C479 H495 0.960 1_554 S
H480 C464 0.931 . S
H481 C469 0.929 . S
H482 C470 0.960 . S
H483 C470 0.962 . S
H484 C470 0.960 . S
H485 C471 0.961 . S
H486 C471 0.961 . S
H487 C471 0.961 . S
H488 C472 0.931 . S
H489 C477 0.930 . S
H490 C478 0.956 . S
H491 C478 0.961 . S
H492 C478 0.961 . S
H493 C479 0.958 . S
H494 C479 0.961 1_556 S
H495 C479 0.960 1_556 S
C496 C497 1.391 . S
C496 C498 1.394 . S
C496 H512 0.931 . S
C497 C496 1.391 . S
C497 C501 1.376 . S
C498 C496 1.394 . S
C498 C499 1.369 . S
C498 C502 1.531 . S
C499 C498 1.369 . S
C499 C500 1.410 . S
C499 C507 1.503 . S
C500 C499 1.410 . S
C500 C501 1.392 . S
C500 C503 1.511 . S
C501 C497 1.376 . S
C501 C500 1.392 . S
C501 H513 0.929 . S
C502 C498 1.531 . S
C502 H514 0.960 . S
C502 H515 0.962 1_554 S
C502 H516 0.960 . S
C503 C500 1.511 . S
C503 H517 0.961 . S
C503 H518 0.961 . S
C503 H519 0.961 . S
C504 C505 1.370 1_556 S
C504 C506 1.363 . S
C504 H520 0.931 . S
C505 C504 1.370 1_554 S
C505 C509 1.408 . S
C506 C504 1.363 . S
C506 C507 1.370 1_556 S
C506 C510 1.524 . S
C507 C499 1.503 . S
C507 C506 1.370 1_554 S
C507 C508 1.403 . S
C508 C507 1.403 . S
C508 C509 1.404 . S
C508 C511 1.539 . S
C509 C505 1.408 . S
C509 C508 1.404 . S
C509 H521 0.930 . S
C510 C506 1.524 . S
C510 H522 0.956 . S
C510 H523 0.961 . S
C510 H524 0.961 . S
C511 C508 1.539 . S
C511 H525 0.958 . S
C511 H526 0.961 . S
C511 H527 0.960 . S
H512 C496 0.931 . S
H513 C501 0.929 . S
H514 C502 0.960 . S
H515 C502 0.962 1_556 S
H516 C502 0.960 . S
H517 C503 0.961 . S
H518 C503 0.961 . S
H519 C503 0.961 . S
H520 C504 0.931 . S
H521 C509 0.930 . S
H522 C510 0.956 . S
H523 C510 0.961 . S
H524 C510 0.961 . S
H525 C511 0.958 . S
H526 C511 0.961 . S
H527 C511 0.960 . S
C528 C529 1.391 . S
C528 C530 1.394 . S
C528 H544 0.931 . S
C529 C528 1.391 . S
C529 C533 1.376 . S
C530 C528 1.394 . S
C530 C531 1.369 . S
C530 C534 1.531 . S
C531 C530 1.369 . S
C531 C532 1.410 . S
C531 C539 1.503 . S
C532 C531 1.410 . S
C532 C533 1.392 . S
C532 C535 1.511 . S
C533 C529 1.376 . S
C533 C532 1.392 . S
C533 H545 0.929 . S
C534 C530 1.531 . S
C534 H546 0.960 . S
C534 H547 0.962 . S
C534 H548 0.960 . S
C535 C532 1.511 . S
C535 H549 0.961 . S
C535 H550 0.957 1_556 S
C535 H551 0.961 . S
C536 C537 1.370 1_554 S
C536 C538 1.363 . S
C536 H552 0.931 . S
C537 C536 1.370 1_556 S
C537 C541 1.408 . S
C538 C536 1.363 . S
C538 C539 1.370 1_554 S
C538 C542 1.524 . S
C539 C531 1.503 . S
C539 C538 1.370 1_556 S
C539 C540 1.403 . S
C540 C539 1.403 . S
C540 C541 1.404 . S
C540 C543 1.539 . S
C541 C537 1.408 . S
C541 C540 1.404 . S
C541 H553 0.930 . S
C542 C538 1.524 . S
C542 H554 0.956 . S
C542 H555 0.961 . S
C542 H556 0.961 . S
C543 C540 1.539 . S
C543 H557 0.958 . S
C543 H558 0.961 . S
C543 H559 0.960 . S
H544 C528 0.931 . S
H545 C533 0.929 . S
H546 C534 0.960 . S
H547 C534 0.962 . S
H548 C534 0.960 . S
H549 C535 0.961 . S
H550 C535 0.957 1_554 S
H551 C535 0.961 . S
H552 C536 0.931 . S
H553 C541 0.930 . S
H554 C542 0.956 . S
H555 C542 0.961 . S
H556 C542 0.961 . S
H557 C543 0.958 . S
H558 C543 0.961 . S
H559 C543 0.960 . S
C560 C561 1.391 . S
C560 C562 1.394 . S
C560 H576 0.931 . S
C561 C560 1.391 . S
C561 C565 1.376 . S
C562 C560 1.394 . S
C562 C563 1.369 . S
C562 C566 1.531 . S
C563 C562 1.369 . S
C563 C564 1.410 . S
C563 C571 1.503 . S
C564 C563 1.410 . S
C564 C565 1.392 . S
C564 C567 1.511 . S
C565 C561 1.376 . S
C565 C564 1.392 . S
C565 H577 0.929 . S
C566 C562 1.531 . S
C566 H578 0.960 . S
C566 H579 0.962 . S
C566 H580 0.960 . S
C567 C564 1.511 . S
C567 H581 0.961 . S
C567 H582 0.961 . S
C567 H583 0.961 1_554 S
C568 C569 1.370 . S
C568 C570 1.363 . S
C568 H584 0.931 . S
C569 C568 1.370 . S
C569 C573 1.408 . S
C570 C568 1.363 . S
C570 C571 1.370 . S
C570 C574 1.524 . S
C571 C563 1.503 . S
C571 C570 1.370 . S
C571 C572 1.403 . S
C572 C571 1.403 . S
C572 C573 1.404 . S
C572 C575 1.539 1_554 S
C573 C569 1.408 . S
C573 C572 1.404 . S
C573 H585 0.930 . S
C574 C570 1.524 . S
C574 H586 0.956 . S
C574 H587 0.961 . S
C574 H588 0.961 . S
C575 C572 1.539 1_556 S
C575 H589 0.958 . S
C575 H590 0.961 . S
C575 H591 0.960 . S
H576 C560 0.931 . S
H577 C565 0.929 . S
H578 C566 0.960 . S
H579 C566 0.962 . S
H580 C566 0.960 . S
H581 C567 0.961 . S
H582 C567 0.961 . S
H583 C567 0.961 1_556 S
H584 C568 0.931 . S
H585 C573 0.930 . S
H586 C574 0.956 . S
H587 C574 0.961 . S
H588 C574 0.961 . S
H589 C575 0.958 . S
H590 C575 0.961 . S
H591 C575 0.960 . S
C592 C593 1.391 . S
C592 C594 1.394 . S
C592 H608 0.931 1_556 S
C593 C592 1.391 . S
C593 C597 1.376 . S
C594 C592 1.394 . S
C594 C595 1.369 . S
C594 C598 1.531 1_556 S
C595 C594 1.369 . S
C595 C596 1.410 . S
C595 C603 1.503 . S
C596 C595 1.410 . S
C596 C597 1.392 . S
C596 C599 1.511 . S
C597 C593 1.376 . S
C597 C596 1.392 . S
C597 H609 0.929 . S
C598 C594 1.531 1_554 S
C598 H610 0.960 . S
C598 H611 0.962 . S
C598 H612 0.960 . S
C599 C596 1.511 . S
C599 H613 0.961 . S
C599 H614 0.961 . S
C599 H615 0.961 . S
C600 C601 1.370 . S
C600 C602 1.363 . S
C600 H616 0.931 . S
C601 C600 1.370 . S
C601 C605 1.408 . S
C602 C600 1.363 . S
C602 C603 1.370 . S
C602 C606 1.524 . S
C603 C595 1.503 . S
C603 C602 1.370 . S
C603 C604 1.403 1_556 S
C604 C603 1.403 1_554 S
C604 C605 1.404 1_554 S
C604 C607 1.539 . S
C605 C601 1.408 . S
C605 C604 1.404 1_556 S
C605 H617 0.930 1_556 S
C606 C602 1.524 . S
C606 H618 0.956 . S
C606 H619 0.961 . S
C606 H620 0.961 . S
C607 C604 1.539 . S
C607 H621 0.958 . S
C607 H622 0.961 . S
C607 H623 0.960 . S
H608 C592 0.931 1_554 S
H609 C597 0.929 . S
H610 C598 0.960 . S
H611 C598 0.962 . S
H612 C598 0.960 . S
H613 C599 0.961 . S
H614 C599 0.961 . S
H615 C599 0.961 . S
H616 C600 0.931 . S
H617 C605 0.930 1_554 S
H618 C606 0.956 . S
H619 C606 0.961 . S
H620 C606 0.961 . S
H621 C607 0.958 . S
H622 C607 0.961 . S
H623 C607 0.960 . S
C624 C625 1.391 . S
C624 C626 1.394 . S
C624 H640 0.931 . S
C625 C624 1.391 . S
C625 C629 1.376 . S
C626 C624 1.394 . S
C626 C627 1.369 . S
C626 C630 1.531 . S
C627 C626 1.369 . S
C627 C628 1.410 . S
C627 C635 1.503 . S
C628 C627 1.410 . S
C628 C629 1.392 . S
C628 C631 1.511 . S
C629 C625 1.376 . S
C629 C628 1.392 . S
C629 H641 0.929 . S
C630 C626 1.531 . S
C630 H642 0.960 . S
C630 H643 0.962 . S
C630 H644 0.960 . S
C631 C628 1.511 . S
C631 H645 0.961 . S
C631 H646 0.961 . S
C631 H647 0.961 . S
C632 C633 1.370 . S
C632 C634 1.363 . S
C632 H648 0.931 . S
C633 C632 1.370 . S
C633 C637 1.408 . S
C634 C632 1.363 . S
C634 C635 1.370 . S
C634 C638 1.524 . S
C635 C627 1.503 . S
C635 C634 1.370 . S
C635 C636 1.403 . S
C636 C635 1.403 . S
C636 C637 1.404 . S
C636 C639 1.539 . S
C637 C633 1.408 . S
C637 C636 1.404 . S
C637 H649 0.930 . S
C638 C634 1.524 . S
C638 H650 0.956 . S
C638 H651 0.961 . S
C638 H652 0.961 . S
C639 C636 1.539 . S
C639 H653 0.958 . S
C639 H654 0.961 . S
C639 H655 0.960 . S
H640 C624 0.931 . S
H641 C629 0.929 . S
H642 C630 0.960 . S
H643 C630 0.962 . S
H644 C630 0.960 . S
H645 C631 0.961 . S
H646 C631 0.961 . S
H647 C631 0.961 . S
H648 C632 0.931 . S
H649 C637 0.930 . S
H650 C638 0.956 . S
H651 C638 0.961 . S
H652 C638 0.961 . S
H653 C639 0.958 . S
H654 C639 0.961 . S
H655 C639 0.960 . S
C656 C657 1.391 . S
C656 C658 1.394 . S
C656 H672 0.931 . S
C657 C656 1.391 . S
C657 C661 1.376 . S
C658 C656 1.394 . S
C658 C659 1.369 . S
C658 C662 1.531 . S
C659 C658 1.369 . S
C659 C660 1.410 . S
C659 C667 1.503 . S
C660 C659 1.410 . S
C660 C661 1.392 . S
C660 C663 1.511 . S
C661 C657 1.376 . S
C661 C660 1.392 . S
C661 H673 0.929 . S
C662 C658 1.531 . S
C662 H674 0.960 . S
C662 H675 0.962 . S
C662 H676 0.960 . S
C663 C660 1.511 . S
C663 H677 0.961 . S
C663 H678 0.961 . S
C663 H679 0.961 . S
C664 C665 1.370 . S
C664 C666 1.363 . S
C664 H680 0.931 . S
C665 C664 1.370 . S
C665 C669 1.408 . S
C666 C664 1.363 . S
C666 C667 1.370 . S
C666 C670 1.524 . S
C667 C659 1.503 . S
C667 C666 1.370 . S
C667 C668 1.403 . S
C668 C667 1.403 . S
C668 C669 1.404 . S
C668 C671 1.539 . S
C669 C665 1.408 . S
C669 C668 1.404 . S
C669 H681 0.930 . S
C670 C666 1.524 . S
C670 H682 0.956 . S
C670 H683 0.961 . S
C670 H684 0.961 . S
C671 C668 1.539 . S
C671 H685 0.958 . S
C671 H686 0.961 . S
C671 H687 0.960 . S
H672 C656 0.931 . S
H673 C661 0.929 . S
H674 C662 0.960 . S
H675 C662 0.962 . S
H676 C662 0.960 . S
H677 C663 0.961 . S
H678 C663 0.961 . S
H679 C663 0.961 . S
H680 C664 0.931 . S
H681 C669 0.930 . S
H682 C670 0.956 . S
H683 C670 0.961 . S
H684 C670 0.961 . S
H685 C671 0.958 . S
H686 C671 0.961 . S
H687 C671 0.960 . S
C688 C689 1.391 . S
C688 C690 1.394 . S
C688 H704 0.931 . S
C689 C688 1.391 . S
C689 C693 1.376 . S
C690 C688 1.394 . S
C690 C691 1.369 . S
C690 C694 1.531 . S
C691 C690 1.369 . S
C691 C692 1.410 . S
C691 C699 1.503 . S
C692 C691 1.410 . S
C692 C693 1.392 . S
C692 C695 1.511 . S
C693 C689 1.376 . S
C693 C692 1.392 . S
C693 H705 0.929 . S
C694 C690 1.531 . S
C694 H706 0.960 . S
C694 H707 0.962 . S
C694 H708 0.960 . S
C695 C692 1.511 . S
C695 H709 0.961 . S
C695 H710 0.961 . S
C695 H711 0.961 . S
C696 C697 1.370 . S
C696 C698 1.363 . S
C696 H712 0.931 . S
C697 C696 1.370 . S
C697 C701 1.408 . S
C698 C696 1.363 . S
C698 C699 1.370 . S
C698 C702 1.524 . S
C699 C691 1.503 . S
C699 C698 1.370 . S
C699 C700 1.403 . S
C700 C699 1.403 . S
C700 C701 1.404 . S
C700 C703 1.539 . S
C701 C697 1.408 . S
C701 C700 1.404 . S
C701 H713 0.930 . S
C702 C698 1.524 . S
C702 H714 0.956 . S
C702 H715 0.961 . S
C702 H716 0.961 . S
C703 C700 1.539 . S
C703 H717 0.958 . S
C703 H718 0.961 . S
C703 H719 0.960 . S
H704 C688 0.931 . S
H705 C693 0.929 . S
H706 C694 0.960 . S
H707 C694 0.962 . S
H708 C694 0.960 . S
H709 C695 0.961 . S
H710 C695 0.961 . S
H711 C695 0.961 . S
H712 C696 0.931 . S
H713 C701 0.930 . S
H714 C702 0.956 . S
H715 C702 0.961 . S
H716 C702 0.961 . S
H717 C703 0.958 . S
H718 C703 0.961 . S
H719 C703 0.960 . S
C720 C721 1.391 . S
C720 C722 1.394 . S
C720 H736 0.931 . S
C721 C720 1.391 . S
C721 C725 1.376 . S
C722 C720 1.394 . S
C722 C723 1.369 . S
C722 C726 1.531 . S
C723 C722 1.369 . S
C723 C724 1.410 . S
C723 C731 1.503 . S
C724 C723 1.410 . S
C724 C725 1.392 . S
C724 C727 1.511 . S
C725 C721 1.376 . S
C725 C724 1.392 . S
C725 H737 0.929 . S
C726 C722 1.531 . S
C726 H738 0.960 . S
C726 H739 0.962 . S
C726 H740 0.960 . S
C727 C724 1.511 . S
C727 H741 0.961 . S
C727 H742 0.961 . S
C727 H743 0.961 . S
C728 C729 1.370 . S
C728 C730 1.363 . S
C728 H744 0.931 . S
C729 C728 1.370 . S
C729 C733 1.408 . S
C730 C728 1.363 . S
C730 C731 1.370 . S
C730 C734 1.524 . S
C731 C723 1.503 . S
C731 C730 1.370 . S
C731 C732 1.403 . S
C732 C731 1.403 . S
C732 C733 1.404 . S
C732 C735 1.539 . S
C733 C729 1.408 . S
C733 C732 1.404 . S
C733 H745 0.930 . S
C734 C730 1.524 . S
C734 H746 0.956 . S
C734 H747 0.961 . S
C734 H748 0.961 . S
C735 C732 1.539 . S
C735 H749 0.958 . S
C735 H750 0.961 . S
C735 H751 0.960 . S
H736 C720 0.931 . S
H737 C725 0.929 . S
H738 C726 0.960 . S
H739 C726 0.962 . S
H740 C726 0.960 . S
H741 C727 0.961 . S
H742 C727 0.961 . S
H743 C727 0.961 . S
H744 C728 0.931 . S
H745 C733 0.930 . S
H746 C734 0.956 . S
H747 C734 0.961 . S
H748 C734 0.961 . S
H749 C735 0.958 . S
H750 C735 0.961 . S
H751 C735 0.960 . S
C752 C753 1.391 . S
C752 C754 1.394 . S
C752 H768 0.931 . S
C753 C752 1.391 . S
C753 C757 1.376 . S
C754 C752 1.394 . S
C754 C755 1.369 . S
C754 C758 1.531 . S
C755 C754 1.369 . S
C755 C756 1.410 . S
C755 C763 1.503 . S
C756 C755 1.410 . S
C756 C757 1.392 . S
C756 C759 1.511 . S
C757 C753 1.376 . S
C757 C756 1.392 . S
C757 H769 0.929 . S
C758 C754 1.531 . S
C758 H770 0.960 . S
C758 H771 0.962 . S
C758 H772 0.960 . S
C759 C756 1.511 . S
C759 H773 0.961 . S
C759 H774 0.961 . S
C759 H775 0.961 . S
C760 C761 1.370 . S
C760 C762 1.363 . S
C760 H776 0.931 . S
C761 C760 1.370 . S
C761 C765 1.408 . S
C762 C760 1.363 . S
C762 C763 1.370 . S
C762 C766 1.524 . S
C763 C755 1.503 . S
C763 C762 1.370 . S
C763 C764 1.403 . S
C764 C763 1.403 . S
C764 C765 1.404 . S
C764 C767 1.539 . S
C765 C761 1.408 . S
C765 C764 1.404 . S
C765 H777 0.930 . S
C766 C762 1.524 . S
C766 H778 0.956 . S
C766 H779 0.961 . S
C766 H780 0.961 . S
C767 C764 1.539 . S
C767 H781 0.958 . S
C767 H782 0.961 . S
C767 H783 0.960 . S
H768 C752 0.931 . S
H769 C757 0.929 . S
H770 C758 0.960 . S
H771 C758 0.962 . S
H772 C758 0.960 . S
H773 C759 0.961 . S
H774 C759 0.961 . S
H775 C759 0.961 . S
H776 C760 0.931 . S
H777 C765 0.930 . S
H778 C766 0.956 . S
H779 C766 0.961 . S
H780 C766 0.961 . S
H781 C767 0.958 . S
H782 C767 0.961 . S
H783 C767 0.960 . S
C784 C785 1.391 . S
C784 C786 1.394 . S
C784 H800 0.931 . S
C785 C784 1.391 . S
C785 C789 1.376 . S
C786 C784 1.394 . S
C786 C787 1.369 . S
C786 C790 1.531 . S
C787 C786 1.369 . S
C787 C788 1.410 . S
C787 C795 1.503 . S
C788 C787 1.410 . S
C788 C789 1.392 . S
C788 C791 1.511 . S
C789 C785 1.376 . S
C789 C788 1.392 . S
C789 H801 0.929 . S
C790 C786 1.531 . S
C790 H802 0.960 . S
C790 H803 0.962 . S
C790 H804 0.960 . S
C791 C788 1.511 . S
C791 H805 0.961 . S
C791 H806 0.961 . S
C791 H807 0.961 . S
C792 C793 1.370 . S
C792 C794 1.363 . S
C792 H808 0.931 . S
C793 C792 1.370 . S
C793 C797 1.408 . S
C794 C792 1.363 . S
C794 C795 1.370 . S
C794 C798 1.524 . S
C795 C787 1.503 . S
C795 C794 1.370 . S
C795 C796 1.403 . S
C796 C795 1.403 . S
C796 C797 1.404 . S
C796 C799 1.539 . S
C797 C793 1.408 . S
C797 C796 1.404 . S
C797 H809 0.930 . S
C798 C794 1.524 . S
C798 H810 0.956 . S
C798 H811 0.961 . S
C798 H812 0.961 . S
C799 C796 1.539 . S
C799 H813 0.958 . S
C799 H814 0.961 . S
C799 H815 0.960 . S
H800 C784 0.931 . S
H801 C789 0.929 . S
H802 C790 0.960 . S
H803 C790 0.962 . S
H804 C790 0.960 . S
H805 C791 0.961 . S
H806 C791 0.961 . S
H807 C791 0.961 . S
H808 C792 0.931 . S
H809 C797 0.930 . S
H810 C798 0.956 . S
H811 C798 0.961 . S
H812 C798 0.961 . S
H813 C799 0.958 . S
H814 C799 0.961 . S
H815 C799 0.960 . S
C241 C210 3.707 . S
C249 C6 3.616 . S
C273 C10 3.562 . S
C281 C46 3.364 1_455 S
C305 C50 3.085 . S
C313 C90 3.089 . S
C337 C126 2.378 . S
C345 C86 2.271 . S
C369 C166 2.812 . S
C377 C130 3.266 . S
C401 C170 2.624 . S
C409 C206 2.556 . S
C433 C179 2.462 . S
C441 C15 2.404 . S
C465 C219 3.183 . S
C473 C55 3.183 . S
C497 C99 3.701 . S
C505 C19 3.731 . S
C529 C135 2.014 . S
C537 C59 2.098 1_556 S
C561 C175 0.832 . S
C569 C95 0.835 . S
C593 C139 1.175 . S
C601 C215 1.245 . S
C625 C9 0.577 . S
C633 C18 0.455 . S
C657 C49 0.411 . S
C665 C58 0.544 . S
C689 C98 0.521 . S
C697 C89 0.518 . S
C721 C129 0.389 . S
C729 C138 0.350 . S
C753 C178 0.705 . S
C761 C169 0.557 . S
C785 C209 0.399 . S
C793 C218 0.438 . S
