# Generated by pormake.
# Topology unp, (4)-cn, num edge types: 1
# Building blocks:
#     Node 0, Type 0, BuildingBlock: TATPOV_clean_sbu_0, # of connection points: 4
#     Node 1, Type 0, BuildingBlock: TATPOV_clean_sbu_0, # of connection points: 4
#     Node 2, Type 0, BuildingBlock: TATPOV_clean_sbu_0, # of connection points: 4
#     Node 3, Type 0, BuildingBlock: TATPOV_clean_sbu_0, # of connection points: 4
#     Node 4, Type 0, BuildingBlock: TATPOV_clean_sbu_0, # of connection points: 4
#     Node 5, Type 0, BuildingBlock: TATPOV_clean_sbu_0, # of connection points: 4
#     Node 6, Type 0, BuildingBlock: TATPOV_clean_sbu_0, # of connection points: 4
#     Node 7, Type 0, BuildingBlock: TATPOV_clean_sbu_0, # of connection points: 4
#     Node 8, Type 0, BuildingBlock: TATPOV_clean_sbu_0, # of connection points: 4
#     Node 9, Type 0, BuildingBlock: TATPOV_clean_sbu_0, # of connection points: 4
#     Node 10, Type 0, BuildingBlock: TATPOV_clean_sbu_0, # of connection points: 4
#     Node 11, Type 0, BuildingBlock: TATPOV_clean_sbu_0, # of connection points: 4
#     Node 12, Type 0, BuildingBlock: TATPOV_clean_sbu_0, # of connection points: 4
#     Node 13, Type 0, BuildingBlock: TATPOV_clean_sbu_0, # of connection points: 4
#     Node 14, Type 0, BuildingBlock: TATPOV_clean_sbu_0, # of connection points: 4
#     Node 15, Type 0, BuildingBlock: TATPOV_clean_sbu_0, # of connection points: 4
#     Node 16, Type 0, BuildingBlock: TATPOV_clean_sbu_0, # of connection points: 4
#     Node 17, Type 0, BuildingBlock: TATPOV_clean_sbu_0, # of connection points: 4
#     Edge 18, Type (0, 0), BuildingBlock: CIFDUS_clean_linker_0, # of connection points: 2
#     Edge 19, Type (0, 0), BuildingBlock: CIFDUS_clean_linker_0, # of connection points: 2
#     Edge 20, Type (0, 0), BuildingBlock: CIFDUS_clean_linker_0, # of connection points: 2
#     Edge 21, Type (0, 0), BuildingBlock: CIFDUS_clean_linker_0, # of connection points: 2
#     Edge 22, Type (0, 0), BuildingBlock: CIFDUS_clean_linker_0, # of connection points: 2
#     Edge 23, Type (0, 0), BuildingBlock: CIFDUS_clean_linker_0, # of connection points: 2
#     Edge 24, Type (0, 0), BuildingBlock: CIFDUS_clean_linker_0, # of connection points: 2
#     Edge 25, Type (0, 0), BuildingBlock: CIFDUS_clean_linker_0, # of connection points: 2
#     Edge 26, Type (0, 0), BuildingBlock: CIFDUS_clean_linker_0, # of connection points: 2
#     Edge 27, Type (0, 0), BuildingBlock: CIFDUS_clean_linker_0, # of connection points: 2
#     Edge 28, Type (0, 0), BuildingBlock: CIFDUS_clean_linker_0, # of connection points: 2
#     Edge 29, Type (0, 0), BuildingBlock: CIFDUS_clean_linker_0, # of connection points: 2
#     Edge 30, Type (0, 0), BuildingBlock: CIFDUS_clean_linker_0, # of connection points: 2
#     Edge 31, Type (0, 0), BuildingBlock: CIFDUS_clean_linker_0, # of connection points: 2
#     Edge 32, Type (0, 0), BuildingBlock: CIFDUS_clean_linker_0, # of connection points: 2
#     Edge 33, Type (0, 0), BuildingBlock: CIFDUS_clean_linker_0, # of connection points: 2
#     Edge 34, Type (0, 0), BuildingBlock: CIFDUS_clean_linker_0, # of connection points: 2
#     Edge 35, Type (0, 0), BuildingBlock: CIFDUS_clean_linker_0, # of connection points: 2
#     Edge 36, Type (0, 0), BuildingBlock: CIFDUS_clean_linker_0, # of connection points: 2
#     Edge 37, Type (0, 0), BuildingBlock: CIFDUS_clean_linker_0, # of connection points: 2
#     Edge 38, Type (0, 0), BuildingBlock: CIFDUS_clean_linker_0, # of connection points: 2
#     Edge 39, Type (0, 0), BuildingBlock: CIFDUS_clean_linker_0, # of connection points: 2
#     Edge 40, Type (0, 0), BuildingBlock: CIFDUS_clean_linker_0, # of connection points: 2
#     Edge 41, Type (0, 0), BuildingBlock: CIFDUS_clean_linker_0, # of connection points: 2
#     Edge 42, Type (0, 0), BuildingBlock: CIFDUS_clean_linker_0, # of connection points: 2
#     Edge 43, Type (0, 0), BuildingBlock: CIFDUS_clean_linker_0, # of connection points: 2
#     Edge 44, Type (0, 0), BuildingBlock: CIFDUS_clean_linker_0, # of connection points: 2
#     Edge 45, Type (0, 0), BuildingBlock: CIFDUS_clean_linker_0, # of connection points: 2
#     Edge 46, Type (0, 0), BuildingBlock: CIFDUS_clean_linker_0, # of connection points: 2
#     Edge 47, Type (0, 0), BuildingBlock: CIFDUS_clean_linker_0, # of connection points: 2
#     Edge 48, Type (0, 0), BuildingBlock: CIFDUS_clean_linker_0, # of connection points: 2
#     Edge 49, Type (0, 0), BuildingBlock: CIFDUS_clean_linker_0, # of connection points: 2
#     Edge 50, Type (0, 0), BuildingBlock: CIFDUS_clean_linker_0, # of connection points: 2
#     Edge 51, Type (0, 0), BuildingBlock: CIFDUS_clean_linker_0, # of connection points: 2
#     Edge 52, Type (0, 0), BuildingBlock: CIFDUS_clean_linker_0, # of connection points: 2
#     Edge 53, Type (0, 0), BuildingBlock: CIFDUS_clean_linker_0, # of connection points: 2
# Relax obj value: 0.361
# Max RMSD: 0.178
# Mean RMSD: 0.178
data_MOF--net-unp--node1-TATPOV_clean_sbu_0--edge1-CIFDUS_clean_linker_0
_symmetry_space_group_name_H-M    P1
_symmetry_Int_Tables_number       1
_symmetry_cell_setting            triclinic
loop_
_symmetry_equiv_pos_as_xyz
'x, y, z'
_cell_length_a     41.803792
_cell_length_b     41.503578
_cell_length_c     61.82366
_cell_angle_alpha  89.80045
_cell_angle_beta   91.279218
_cell_angle_gamma 119.98618
loop_
_atom_site_label
_atom_site_type_symbol
_atom_site_fract_x
_atom_site_fract_y
_atom_site_fract_z
_atom_type_partial_charge
Zn0 Zn 0.10252 0.12227 0.05264 0.0
Zn1 Zn 0.14958 0.17209 0.07537 0.0
O2 O 0.1435 0.12123 0.08564 0.0
O3 O 0.11982 0.08537 0.05708 0.0
O4 O 0.19205 0.20804 0.09466 0.0
O5 O 0.11515 0.15316 0.02611 0.0
O6 O 0.16671 0.19101 0.0438 0.0
C7 C 0.13377 0.09051 0.07596 0.0
C8 C 0.07107 0.14946 0.08279 0.0
O9 O 0.10425 0.17634 0.08416 0.0
O10 O 0.06349 0.12059 0.07196 0.0
C11 C 0.1893 0.20202 0.11489 0.0
O12 O 0.15819 0.17477 0.12221 0.0
C13 C 0.14707 0.18146 0.02637 0.0
Zn14 Zn 0.82636 0.05851 0.03786 0.0
Zn15 Zn 0.79718 0.03984 0.07298 0.0
O16 O 0.85047 0.08621 0.07744 0.0
O17 O 0.87269 0.10511 0.04517 0.0
O18 O 0.77 0.04165 0.09914 0.0
O19 O 0.7881 0.06151 0.01973 0.0
O20 O 0.75858 0.02759 0.04738 0.0
C21 C 0.87651 0.10903 0.06545 0.0
C22 C 0.81489 -0.01371 0.05713 0.0
O23 O 0.80388 -0.00521 0.07408 0.0
O24 O 0.82417 0.00758 0.04077 0.0
C25 C 0.76996 0.0721 0.10139 0.0
O26 O 0.78739 0.09857 0.08722 0.0
C27 C 0.75798 0.03833 0.02805 0.0
Zn28 Zn 0.96393 0.87312 0.05057 0.0
Zn29 Zn 0.94571 0.82055 0.06989 0.0
O30 O 0.90742 0.83881 0.07536 0.0
O31 O 0.91395 0.86569 0.04404 0.0
O32 O 0.92619 0.77267 0.08718 0.0
O33 O -0.01103 0.86024 0.02793 0.0
O34 O 0.9467 0.80465 0.03775 0.0
C35 C 0.89627 0.85386 0.06128 0.0
C36 C 0.01105 0.89259 0.08436 0.0
O37 O -0.00055 0.85799 0.08163 0.0
O38 O -0.0066 0.90645 0.07532 0.0
C39 C 0.94118 0.76956 0.10461 0.0
O40 O -0.02853 0.79858 0.11215 0.0
C41 C -0.02979 0.82577 0.02395 0.0
Zn42 Zn 0.11603 0.10469 0.88613 0.0
Zn43 Zn 0.11165 0.15347 0.8651 0.0
O44 O 0.05712 0.12716 0.87379 0.0
O45 O 0.06213 0.08607 0.89406 0.0
O46 O 0.12148 0.19883 0.84728 0.0
O47 O 0.15649 0.13502 0.90682 0.0
O48 O 0.14607 0.17776 0.89301 0.0
C49 C 0.04267 0.09927 0.88638 0.0
C50 C 0.12083 0.08958 0.84413 0.0
O51 O 0.11503 0.11701 0.84282 0.0
O52 O 0.12637 0.07968 0.8625 0.0
C53 C 0.15129 0.21676 0.83687 0.0
O54 O 0.17515 0.20491 0.83732 0.0
C55 C 0.16221 0.16785 0.90716 0.0
Zn56 Zn 0.76685 0.90827 0.91752 0.0
Zn57 Zn 0.74409 0.92211 0.8819 0.0
O58 O 0.74222 0.87094 0.87881 0.0
O59 O 0.75596 0.85695 0.91058 0.0
O60 O 0.71128 0.92033 0.8566 0.0
O61 O 0.73371 0.91539 0.93708 0.0
O62 O 0.72124 0.93649 0.90739 0.0
C63 C 0.74693 0.8486 0.8909 0.0
C64 C 0.82381 0.97164 0.89201 0.0
O65 O 0.7979 0.96389 0.87806 0.0
O66 O 0.81689 0.95276 0.90926 0.0
C67 C 0.70589 0.90051 0.83976 0.0
O68 O 0.726 0.88465 0.83718 0.0
C69 C 0.7182 0.93127 0.92778 0.0
Zn70 Zn 0.95354 0.8638 0.86745 0.0
Zn71 Zn 0.95822 0.81257 0.85203 0.0
O72 O -0.00115 0.86106 0.83709 0.0
O73 O -0.02152 0.89945 0.84353 0.0
O74 O -0.03221 0.77331 0.83988 0.0
O75 O -0.01824 0.8659 0.89463 0.0
O76 O -0.03262 0.80928 0.88501 0.0
C77 C 0.0005 0.89226 0.83388 0.0
C78 C 0.88362 0.80695 0.85396 0.0
O79 O 0.90307 0.79598 0.84417 0.0
O80 O 0.89883 0.83411 0.86703 0.0
C81 C 0.96499 0.76548 0.81984 0.0
O82 O 0.95312 0.78195 0.80633 0.0
C83 C -0.02022 0.83525 0.89916 0.0
Zn84 Zn 0.84275 0.41884 0.36752 0.0
Zn85 Zn 0.86222 0.46294 0.39985 0.0
O86 O 0.86235 0.41461 0.40836 0.0
O87 O 0.85428 0.38045 0.37966 0.0
O88 O 0.89769 0.49926 0.42229 0.0
O89 O 0.87305 0.45546 0.34462 0.0
O90 O 0.88071 0.49308 0.3715 0.0
C91 C 0.85946 0.38527 0.3999 0.0
C92 C 0.7841 0.42905 0.38978 0.0
O93 O 0.8091 0.4513 0.40315 0.0
O94 O 0.79239 0.41393 0.37468 0.0
C95 C 0.89563 0.49267 0.44245 0.0
O96 O 0.86635 0.46311 0.44975 0.0
C97 C 0.88421 0.4881 0.35154 0.0
Zn98 Zn 0.48876 0.26713 0.37831 0.0
Zn99 Zn 0.4942 0.31622 0.40373 0.0
O100 O 0.54958 0.34617 0.39902 0.0
O101 O 0.54485 0.30377 0.37574 0.0
O102 O 0.47872 0.34431 0.42394 0.0
O103 O 0.45426 0.26696 0.3556 0.0
O104 O 0.46853 0.31727 0.37434 0.0
C105 C 0.56456 0.3344 0.38585 0.0
C106 C 0.47877 0.23617 0.41746 0.0
O107 O 0.48742 0.26987 0.42114 0.0
O108 O 0.47228 0.22416 0.39821 0.0
C109 C 0.45461 0.32704 0.43822 0.0
O110 O 0.4417 0.29123 0.44075 0.0
C111 C 0.4537 0.29693 0.35752 0.0
Zn112 Zn 0.65699 0.18097 0.40608 0.0
Zn113 Zn 0.64733 0.12193 0.42373 0.0
O114 O 0.60572 0.13063 0.43603 0.0
O115 O 0.61358 0.18025 0.41856 0.0
O116 O 0.63956 0.07675 0.4406 0.0
O117 O 0.65415 0.15831 0.37674 0.0
O118 O 0.63633 0.10397 0.39186 0.0
C119 C 0.59606 0.15478 0.43201 0.0
C120 C 0.7215 0.19728 0.42756 0.0
O121 O 0.70393 0.1618 0.42902 0.0
O122 O 0.7055 0.21378 0.41977 0.0
C123 C 0.60715 0.04868 0.44151 0.0
O124 O 0.58003 0.04943 0.4308 0.0
C125 C 0.64305 0.12391 0.37501 0.0
Zn126 Zn 0.76356 0.53437 0.2402 0.0
Zn127 Zn 0.7948 0.5429 0.20577 0.0
O128 O 0.74759 0.54814 0.20178 0.0
O129 O 0.72765 0.55162 0.23358 0.0
O130 O 0.82718 0.57426 0.18134 0.0
O131 O 0.80549 0.56208 0.26122 0.0
O132 O 0.83173 0.55674 0.23228 0.0
C133 C 0.72459 0.55187 0.21323 0.0
C134 C 0.75588 0.46619 0.21681 0.0
O135 O 0.77568 0.48782 0.20188 0.0
O136 O 0.74823 0.47957 0.23312 0.0
C137 C 0.81369 0.57586 0.16298 0.0
O138 O 0.77843 0.55305 0.15877 0.0
C139 C 0.83339 0.56401 0.25246 0.0
Zn140 Zn 0.52047 0.3463 0.20814 0.0
Zn141 Zn 0.4625 0.33889 0.18658 0.0
O142 O 0.46705 0.29391 0.17594 0.0
O143 O 0.51827 0.30314 0.19236 0.0
O144 O 0.4172 0.33073 0.16946 0.0
O145 O 0.49553 0.33993 0.23641 0.0
O146 O 0.44621 0.33314 0.21863 0.0
C147 C 0.49141 0.28448 0.17939 0.0
C148 C 0.53874 0.41074 0.18404 0.0
O149 O 0.50484 0.39234 0.17785 0.0
O150 O 0.55196 0.39689 0.19721 0.0
C151 C 0.38605 0.30425 0.17524 0.0
O152 O 0.38474 0.28479 0.19235 0.0
C153 C 0.46298 0.33457 0.23639 0.0
Zn154 Zn 0.58838 0.16965 0.23328 0.0
Zn155 Zn 0.63796 0.17307 0.2088 0.0
O156 O 0.6648 0.22866 0.21526 0.0
O157 O 0.62263 0.22619 0.23702 0.0
O158 O 0.67042 0.16514 0.18829 0.0
O159 O 0.58925 0.13482 0.25505 0.0
O160 O 0.63746 0.144 0.23676 0.0
C161 C 0.65306 0.245 0.22745 0.0
C162 C 0.5592 0.15565 0.19228 0.0
O163 O 0.5924 0.16317 0.18949 0.0
O164 O 0.54742 0.15173 0.2113 0.0
C165 C 0.66768 0.13343 0.18578 0.0
O166 O 0.64347 0.10517 0.19707 0.0
C167 C 0.61677 0.13034 0.25308 0.0
Zn168 Zn 0.41293 0.80458 0.71779 0.0
Zn169 Zn 0.45959 0.80795 0.74663 0.0
O170 O 0.43436 0.75144 0.7412 0.0
O171 O 0.39499 0.74877 0.71601 0.0
O172 O 0.50224 0.82132 0.76782 0.0
O173 O 0.44842 0.83947 0.69662 0.0
O174 O 0.4885 0.83825 0.71962 0.0
C175 C 0.40787 0.73253 0.72775 0.0
C176 C 0.39577 0.8233 0.75728 0.0
O177 O 0.42228 0.81803 0.76319 0.0
O178 O 0.38772 0.82232 0.73738 0.0
C179 C 0.51569 0.8513 0.77886 0.0
O180 O 0.49991 0.87181 0.77743 0.0
C181 C 0.48141 0.84896 0.70166 0.0
Zn182 Zn 0.16898 0.65547 0.73581 0.0
Zn183 Zn 0.11796 0.65362 0.75726 0.0
O184 O 0.16624 0.70294 0.76707 0.0
O185 O 0.21005 0.69672 0.75202 0.0
O186 O 0.07861 0.6598 0.77165 0.0
O187 O 0.15108 0.66411 0.70718 0.0
O188 O 0.10023 0.64646 0.72501 0.0
C189 C 0.20044 0.71423 0.76446 0.0
C190 C 0.1295 0.58806 0.76009 0.0
O191 O 0.11366 0.60433 0.76848 0.0
O192 O 0.15248 0.60348 0.74521 0.0
C193 C 0.07865 0.66471 0.79192 0.0
O194 O 0.10362 0.66285 0.80431 0.0
C195 C 0.11705 0.6537 0.70714 0.0
Zn196 Zn 0.20316 0.44778 0.68975 0.0
Zn197 Zn 0.23393 0.43825 0.72182 0.0
O198 O 0.18561 0.43922 0.72935 0.0
O199 O 0.15393 0.43655 0.70014 0.0
O200 O 0.23817 0.40634 0.74605 0.0
O201 O 0.20631 0.41443 0.66806 0.0
O202 O 0.24523 0.41755 0.69345 0.0
C203 C 0.15702 0.43773 0.72051 0.0
C204 C 0.27305 0.51442 0.70868 0.0
O205 O 0.274 0.49301 0.72326 0.0
O206 O 0.24745 0.50123 0.69418 0.0
C207 C 0.21771 0.3969 0.76257 0.0
O208 O 0.19724 0.41218 0.76574 0.0
C209 C 0.23183 0.40844 0.6742 0.0
Zn210 Zn 0.49971 0.7679 0.57132 0.0
Zn211 Zn 0.49102 0.80532 0.54278 0.0
O212 O 0.43562 0.77484 0.5476 0.0
O213 O 0.4429 0.7417 0.57308 0.0
O214 O 0.49932 0.84317 0.51964 0.0
O215 O 0.53085 0.80692 0.59274 0.0
O216 O 0.51566 0.83857 0.57053 0.0
C217 C 0.42178 0.74898 0.56153 0.0
C218 C 0.51648 0.7466 0.53439 0.0
O219 O 0.50468 0.76833 0.52826 0.0
O220 O 0.52222 0.74429 0.5543 0.0
C221 C 0.53238 0.86841 0.5161 0.0
O222 O 0.55944 0.86821 0.52722 0.0
C223 C 0.53033 0.83639 0.58843 0.0
Zn224 Zn 0.14045 0.55426 0.57782 0.0
Zn225 Zn 0.12386 0.57786 0.54525 0.0
O226 O 0.12228 0.52775 0.5373 0.0
O227 O 0.12742 0.50376 0.56788 0.0
O228 O 0.08914 0.57977 0.52266 0.0
O229 O 0.10984 0.5594 0.60012 0.0
O230 O 0.10536 0.5915 0.57322 0.0
C231 C 0.12317 0.50144 0.54757 0.0
C232 C 0.20171 0.6214 0.55588 0.0
O233 O 0.17741 0.61866 0.54197 0.0
O234 O 0.19223 0.5985 0.57145 0.0
C235 C 0.09222 0.58176 0.50223 0.0
O236 O 0.1227 0.58632 0.49369 0.0
C237 C 0.09999 0.58167 0.59299 0.0
Zn238 Zn 0.32857 0.50379 0.54523 0.0
Zn239 Zn 0.34 0.46533 0.52294 0.0
O240 O 0.38304 0.51941 0.51682 0.0
O241 O 0.35447 0.54883 0.52674 0.0
O242 O 0.35539 0.43404 0.5056 0.0
O243 O 0.35256 0.49769 0.57222 0.0
O244 O 0.33438 0.44534 0.55484 0.0
C245 C 0.38069 0.54886 0.51701 0.0
C246 C 0.26488 0.45642 0.52184 0.0
O247 O 0.28929 0.45589 0.51005 0.0
O248 O 0.27397 0.4707 0.54057 0.0
C249 C 0.3696 0.44559 0.48719 0.0
O250 O 0.37104 0.47572 0.4793 0.0
C251 C 0.34403 0.4639 0.57256 0.0
H252 H 0.31546 0.25704 0.18651 0.0
H253 H 0.38035 0.32626 0.13417 0.0
H254 H 0.32463 0.30257 0.11119 0.0
H255 H 0.25812 0.25869 0.10519 0.0
H256 H 0.19381 0.18984 0.15789 0.0
H257 H 0.24864 0.21714 0.18148 0.0
C258 C 0.31743 0.26718 0.17012 0.0
C259 C 0.35208 0.29309 0.16201 0.0
C260 C 0.28537 0.25339 0.15701 0.0
C261 C 0.35404 0.30626 0.14082 0.0
C262 C 0.32219 0.29262 0.12764 0.0
C263 C 0.25602 0.24994 0.1219 0.0
C264 C 0.2219 0.22196 0.12966 0.0
C265 C 0.2878 0.26566 0.13544 0.0
C266 C 0.21968 0.21116 0.15141 0.0
C267 C 0.25107 0.2267 0.16494 0.0
H268 H 0.7699 0.13554 0.11158 0.0
H269 H 0.7247 0.0212 0.13101 0.0
H270 H 0.68964 0.03029 0.15915 0.0
H271 H 0.67057 0.07037 0.17754 0.0
H272 H 0.71639 0.18475 0.15788 0.0
H273 H 0.75249 0.17588 0.13055 0.0
C274 C 0.75245 0.11255 0.12198 0.0
C275 C 0.74982 0.07767 0.1191 0.0
C276 C 0.73241 0.11796 0.13807 0.0
C277 C 0.72723 0.04833 0.13285 0.0
C278 C 0.70712 0.0535 0.14892 0.0
C279 C 0.68852 0.09341 0.16733 0.0
C280 C 0.69058 0.12815 0.16974 0.0
C281 C 0.70929 0.08814 0.15158 0.0
C282 C 0.71416 0.1577 0.1564 0.0
C283 C 0.73482 0.15266 0.14072 0.0
H284 H 0.88242 0.63581 0.17023 0.0
H285 H 0.79416 0.58629 0.12218 0.0
H286 H 0.82657 0.64099 0.09941 0.0
H287 H 0.87789 0.70472 0.09421 0.0
H288 H 0.96539 0.75466 0.14271 0.0
H289 H 0.93536 0.69806 0.1641 0.0
C290 C 0.87046 0.63671 0.15465 0.0
C291 C 0.83575 0.60693 0.14802 0.0
C292 C 0.88895 0.66858 0.14175 0.0
C293 C 0.82073 0.60877 0.12777 0.0
C294 C 0.83921 0.64014 0.11474 0.0
C295 C 0.89054 0.70318 0.10939 0.0
C296 C 0.92377 0.73415 0.11686 0.0
C297 C 0.87298 0.67054 0.12175 0.0
C298 C 0.93977 0.73145 0.13656 0.0
C299 C 0.9226 0.69902 0.14884 0.0
H300 H 0.16415 0.3597 0.79185 0.0
H301 H 0.25911 0.36224 0.76396 0.0
H302 H 0.24731 0.3072 0.78476 0.0
H303 H 0.20875 0.25714 0.81001 0.0
H304 H 0.11248 0.25376 0.83658 0.0
H305 H 0.12603 0.31023 0.81704 0.0
C306 C 0.18257 0.34852 0.79043 0.0
C307 C 0.21263 0.36531 0.77638 0.0
C308 C 0.17516 0.31645 0.80208 0.0
C309 C 0.23585 0.35003 0.77465 0.0
C310 C 0.22903 0.31845 0.78651 0.0
C311 C 0.19073 0.26875 0.81156 0.0
C312 C 0.15955 0.25104 0.82478 0.0
C313 C 0.19853 0.3012 0.80011 0.0
C314 C 0.13654 0.26657 0.82651 0.0
C315 C 0.14433 0.29898 0.81536 0.0
H316 H 0.65595 0.92456 0.84173 0.0
H317 H 0.68248 0.85303 0.80503 0.0
H318 H 0.62575 0.83084 0.7834 0.0
H319 H 0.56743 0.83007 0.77556 0.0
H320 H 0.54159 0.90271 0.81155 0.0
H321 H 0.59893 0.92579 0.83284 0.0
C322 C 0.64954 0.90438 0.82887 0.0
C323 C 0.67353 0.89046 0.82512 0.0
C324 C 0.61669 0.89155 0.81649 0.0
C325 C 0.66466 0.86432 0.80833 0.0
C326 C 0.63206 0.85142 0.79598 0.0
C327 C 0.57425 0.8508 0.78814 0.0
C328 C 0.55006 0.86437 0.79209 0.0
C329 C 0.60762 0.86445 0.8001 0.0
C330 C 0.55964 0.89169 0.80822 0.0
C331 C 0.59248 0.90497 0.82039 0.0
H332 H 0.03226 0.68196 0.76977 0.0
H333 H 0.07055 0.6766 0.83441 0.0
H334 H 0.03604 0.70449 0.84893 0.0
H335 H -0.00071 0.735 0.84297 0.0
H336 H 0.963 0.74256 0.77817 0.0
H337 H -0.00776 0.70893 0.76408 0.0
C338 C 0.03273 0.68645 0.78708 0.0
C339 C 0.05423 0.67742 0.80095 0.0
C340 C 0.01337 0.70313 0.79529 0.0
C341 C 0.05443 0.68344 0.82333 0.0
C342 C 0.03475 0.69947 0.83166 0.0
C343 C -0.00261 0.72896 0.82579 0.0
C344 C -0.02081 0.74158 0.81164 0.0
C345 C 0.01479 0.71016 0.81774 0.0
C346 C -0.02302 0.73339 0.78943 0.0
C347 C -0.00624 0.71419 0.78134 0.0
H348 H -0.03305 0.53636 0.43048 0.0
H349 H 0.89867 0.4955 0.4866 0.0
H350 H 0.95382 0.52307 0.51019 0.0
H351 H 0.02116 0.5535 0.51466 0.0
H352 H 0.08951 0.59036 0.45841 0.0
H353 H 0.03458 0.56986 0.4351 0.0
C354 C 0.96407 0.53403 0.44789 0.0
C355 C 0.92867 0.51383 0.45676 0.0
C356 C -0.00405 0.54894 0.46133 0.0
C357 C 0.92554 0.51079 0.47935 0.0
C358 C 0.95709 0.52647 0.49285 0.0
C359 C 0.02419 0.55756 0.49732 0.0
C360 C 0.05951 0.57335 0.4883 0.0
C361 C -0.00758 0.5448 0.48398 0.0
C362 C 0.06272 0.57817 0.46579 0.0
C363 C 0.03129 0.56639 0.45244 0.0
H364 H 0.3704 0.38209 0.49801 0.0
H365 H 0.40863 0.46862 0.45006 0.0
H366 H 0.43987 0.44089 0.4314 0.0
H367 H 0.45617 0.39184 0.42841 0.0
H368 H 0.41623 0.30404 0.47553 0.0
H369 H 0.38626 0.33266 0.49483 0.0
C370 C 0.38548 0.39483 0.48345 0.0
C371 C 0.38706 0.42741 0.47549 0.0
C372 C 0.40336 0.37864 0.47268 0.0
C373 C 0.40676 0.44348 0.45656 0.0
C374 C 0.4248 0.42772 0.44588 0.0
C375 C 0.44121 0.37916 0.44301 0.0
C376 C 0.43863 0.34596 0.45057 0.0
C377 C 0.42337 0.39535 0.4538 0.0
C378 C 0.41868 0.32962 0.46936 0.0
C379 C 0.40145 0.34592 0.4804 0.0
H380 H 0.54052 -0.01274 0.44887 0.0
H381 H 0.65668 0.03762 0.46542 0.0
H382 H 0.64381 -0.01415 0.48941 0.0
H383 H 0.59951 0.92725 0.50648 0.0
H384 H 0.48325 0.87728 0.49034 0.0
H385 H 0.49633 0.92794 0.46537 0.0
C386 C 0.56309 -0.01312 0.45763 0.0
C387 C 0.59953 0.01641 0.45534 0.0
C388 C 0.55548 0.95713 0.47153 0.0
C389 C 0.62837 0.01536 0.46686 0.0
C390 C 0.62104 -0.01425 0.48062 0.0
C391 C 0.57699 0.9273 0.49745 0.0
C392 C 0.54041 0.89846 0.50036 0.0
C393 C 0.58468 0.95664 0.4832 0.0
C394 C 0.51165 0.89909 0.48848 0.0
C395 C 0.5191 0.92809 0.47419 0.0
H396 H 0.04603 0.19396 0.06807 0.0
H397 H 0.02501 0.10832 0.11436 0.0
H398 H 0.96132 0.09484 0.11768 0.0
H399 H 0.90891 0.09639 0.1002 0.0
H400 H 0.92856 0.17597 0.04994 0.0
H401 H -0.0048 0.20373 0.05574 0.0
C402 C 0.0279 0.1737 0.07966 0.0
C403 C 0.03995 0.15231 0.09109 0.0
C404 C -0.00931 0.16451 0.08036 0.0
C405 C 0.01619 0.12534 0.10562 0.0
C406 C -0.02032 0.11735 0.1073 0.0
C407 C 0.92779 0.12086 0.09123 0.0
C408 C 0.91396 0.13389 0.07452 0.0
C409 C -0.03394 0.13511 0.09371 0.0
C410 C 0.93868 0.16536 0.06281 0.0
C411 C -0.02321 0.181 0.06598 0.0
H412 H 0.82909 0.95068 0.09027 0.0
H413 H 0.80824 0.94614 0.02134 0.0
H414 H 0.82391 0.89737 0.01746 0.0
H415 H 0.85339 0.86419 0.03245 0.0
H416 H 0.87942 0.87122 0.1007 0.0
H417 H 0.85075 0.90959 0.10624 0.0
C418 C 0.82722 0.93836 0.07452 0.0
C419 C 0.81819 0.95246 0.05605 0.0
C420 C 0.83734 0.91082 0.07228 0.0
C421 C 0.8158 0.93625 0.03573 0.0
C422 C 0.82467 0.90828 0.03349 0.0
C423 C 0.85184 0.87324 0.04865 0.0
C424 C 0.86888 0.86534 0.06608 0.0
C425 C 0.83694 0.89653 0.05148 0.0
C426 C 0.86639 0.87687 0.08701 0.0
C427 C 0.85047 0.89927 0.09012 0.0
H428 H 0.14424 0.03407 0.06283 0.0
H429 H 0.10674 0.07194 0.11625 0.0
H430 H 0.06988 0.0082 0.12886 0.0
H431 H 0.03439 0.94236 0.11734 0.0
H432 H 0.07245 0.9044 0.06437 0.0
H433 H 0.12414 0.96722 0.05946 0.0
C434 C 0.12951 0.02849 0.07785 0.0
C435 C 0.12736 0.05737 0.08829 0.0
C436 C 0.10804 -0.00838 0.0849 0.0
C437 C 0.10859 0.05007 0.10786 0.0
C438 C 0.08712 0.0135 0.11495 0.0
C439 C 0.05546 0.94745 0.10571 0.0
C440 C 0.04937 0.91917 0.09095 0.0
C441 C 0.08451 -0.01606 0.10262 0.0
C442 C 0.07666 0.92584 0.07592 0.0
C443 C 0.10582 0.962 0.0728 0.0
H444 H 0.00029 0.9461 0.80925 0.0
H445 H 0.07244 0.90953 0.83645 0.0
H446 H 0.12467 0.97293 0.83491 0.0
H447 H 0.14297 0.03915 0.83721 0.0
H448 H 0.0692 0.07544 0.81225 0.0
H449 H 0.02534 0.01222 0.8004 0.0
C450 C 0.02785 0.95178 0.81383 0.0
C451 C 0.03244 0.92358 0.82352 0.0
C452 C 0.05742 -0.01146 0.81361 0.0
C453 C 0.0682 0.93089 0.82911 0.0
C454 C 0.09802 0.96731 0.82848 0.0
C455 C 0.11819 0.03354 0.82812 0.0
C456 C 0.10855 0.06152 0.82651 0.0
C457 C 0.09215 -0.00336 0.82244 0.0
C458 C 0.07698 0.05428 0.81415 0.0
C459 C 0.05147 0.01785 0.80771 0.0
H460 H -0.01585 0.08903 0.8604 0.0
H461 H 0.01212 0.06618 0.92402 0.0
H462 H 0.94683 0.02726 0.93182 0.0
H463 H 0.88248 -0.00446 0.91976 0.0
H464 H 0.85275 0.01448 0.85562 0.0
H465 H 0.91785 0.05914 0.84888 0.0
C466 C -0.02419 0.07606 0.87609 0.0
C467 C 0.00296 0.08049 0.89163 0.0
C468 C 0.93794 0.05263 0.88028 0.0
C469 C -0.00821 0.06311 0.91178 0.0
C470 C 0.95445 0.04076 0.91624 0.0
C471 C 0.89 0.00953 0.9043 0.0
C472 C 0.8626 0.00129 0.88816 0.0
C473 C 0.92737 0.03459 0.90045 0.0
C474 C 0.87316 0.0201 0.86833 0.0
C475 C 0.91045 0.04563 0.86446 0.0
H476 H 0.82792 0.76337 0.87968 0.0
H477 H 0.85259 0.82134 0.81916 0.0
H478 H 0.80018 0.83141 0.82296 0.0
H479 H 0.76273 0.84169 0.84924 0.0
H480 H 0.74283 0.78853 0.91146 0.0
H481 H 0.77666 0.75752 0.9011 0.0
C482 C 0.82024 0.77604 0.8667 0.0
C483 C 0.84411 0.792 0.84933 0.0
C484 C 0.79153 0.78372 0.86975 0.0
C485 C 0.83437 0.80868 0.83263 0.0
C486 C 0.80483 0.81514 0.83506 0.0
C487 C 0.76427 0.82196 0.86014 0.0
C488 C 0.75149 0.81847 0.88138 0.0
C489 C 0.78537 0.80557 0.85444 0.0
C490 C 0.75327 0.79241 0.89521 0.0
C491 C 0.77287 0.77484 0.88934 0.0
H492 H 0.72879 0.39171 0.36045 0.0
H493 H 0.75092 0.44396 0.42344 0.0
H494 H 0.68485 0.42203 0.42718 0.0
H495 H 0.61996 0.38368 0.41341 0.0
H496 H 0.59995 0.33054 0.35074 0.0
H497 H 0.66601 0.35738 0.34603 0.0
C498 C 0.71936 0.39856 0.37502 0.0
C499 C 0.74484 0.41915 0.39174 0.0
C500 C 0.68155 0.38557 0.37713 0.0
C501 C 0.73195 0.42807 0.41033 0.0
C502 C 0.69413 0.41543 0.4125 0.0
C503 C 0.63018 0.3785 0.39862 0.0
C504 C 0.60498 0.3549 0.38251 0.0
C505 C 0.66854 0.39357 0.39613 0.0
C506 C 0.61864 0.34827 0.36348 0.0
C507 C 0.65647 0.36361 0.36075 0.0
H508 H 0.45779 0.16254 0.41733 0.0
H509 H 0.52302 0.2644 0.45361 0.0
H510 H 0.56285 0.24144 0.46735 0.0
H511 H 0.5899 0.20223 0.45881 0.0
H512 H 0.52628 0.10164 0.42152 0.0
H513 H 0.47475 0.11367 0.41877 0.0
C514 C 0.47966 0.17898 0.42905 0.0
C515 C 0.48845 0.21578 0.43363 0.0
C516 C 0.50337 0.16611 0.43628 0.0
C517 C 0.51612 0.23631 0.44935 0.0
C518 C 0.53931 0.22337 0.45704 0.0
C519 C 0.56389 0.18192 0.45121 0.0
C520 C 0.5618 0.15138 0.44017 0.0
C521 C 0.53495 0.18975 0.44911 0.0
C522 C 0.52828 0.12524 0.43021 0.0
C523 C 0.49904 0.13246 0.42835 0.0
H524 H 0.85486 0.31934 0.38847 0.0
H525 H 0.84484 0.37812 0.443 0.0
H526 H 0.80682 0.31953 0.46123 0.0
H527 H 0.7616 0.253 0.456 0.0
H528 H 0.77076 0.19406 0.40159 0.0
H529 H 0.82479 0.25082 0.38946 0.0
C530 C 0.84566 0.31945 0.40472 0.0
C531 C 0.85139 0.35301 0.4139 0.0
C532 C 0.82314 0.28541 0.41506 0.0
C533 C 0.84014 0.35271 0.43523 0.0
C534 C 0.81808 0.31907 0.44569 0.0
C535 C 0.77698 0.25212 0.44232 0.0
C536 C 0.76196 0.21972 0.42947 0.0
C537 C 0.80714 0.28528 0.435 0.0
C538 C 0.78191 0.21872 0.41175 0.0
C539 C 0.81237 0.25147 0.40453 0.0
H540 H 0.70255 0.29595 0.1996 0.0
H541 H 0.64787 0.28627 0.25969 0.0
H542 H 0.6757 0.35365 0.26179 0.0
H543 H 0.71289 0.41475 0.24598 0.0
H544 H 0.76655 0.42586 0.18533 0.0
H545 H 0.74166 0.35843 0.184 0.0
C546 C 0.69716 0.30868 0.21328 0.0
C547 C 0.67317 0.28608 0.22949 0.0
C548 C 0.7127 0.3476 0.21417 0.0
C549 C 0.66611 0.30296 0.24698 0.0
C550 C 0.68195 0.34151 0.24818 0.0
C551 C 0.71932 0.4026 0.23243 0.0
C552 C 0.74149 0.42546 0.21572 0.0
C553 C 0.70481 0.36401 0.23173 0.0
C554 C 0.74946 0.40899 0.19837 0.0
C555 C 0.73527 0.37042 0.19763 0.0
H556 H 0.69587 0.52442 0.17303 0.0
H557 H 0.67296 0.56427 0.23176 0.0
H558 H 0.60709 0.53015 0.22278 0.0
H559 H 0.55731 0.47442 0.20477 0.0
H560 H 0.58044 0.42994 0.14835 0.0
H561 H 0.64435 0.48099 0.14928 0.0
C562 C 0.67666 0.52698 0.18341 0.0
C563 C 0.68921 0.54576 0.20345 0.0
C564 C 0.63853 0.50577 0.17865 0.0
C565 C 0.66396 0.54926 0.2165 0.0
C566 C 0.62617 0.5295 0.21144 0.0
C567 C 0.5758 0.47737 0.19189 0.0
C568 C 0.56444 0.4485 0.17662 0.0
C569 C 0.61309 0.50541 0.19348 0.0
C570 C 0.58858 0.45209 0.16016 0.0
C571 C 0.6254 0.48089 0.161 0.0
H572 H 0.53716 0.27466 0.1537 0.0
H573 H 0.43595 0.21548 0.18844 0.0
H574 H 0.44244 0.16011 0.18947 0.0
H575 H 0.48689 0.13764 0.1904 0.0
H576 H 0.58909 0.1981 0.15645 0.0
H577 H 0.57121 0.24261 0.14398 0.0
C578 C 0.5156 0.24895 0.16045 0.0
C579 C 0.48647 0.24903 0.17127 0.0
C580 C 0.52001 0.21758 0.16137 0.0
C581 C 0.45858 0.21583 0.18002 0.0
C582 C 0.46254 0.18432 0.18081 0.0
C583 C 0.50439 0.15945 0.17935 0.0
C584 C 0.54011 0.16572 0.17536 0.0
C585 C 0.49461 0.18598 0.173 0.0
C586 C 0.56189 0.1932 0.16037 0.0
C587 C 0.55194 0.21915 0.15348 0.0
H588 H 0.24981 0.72241 0.79562 0.0
H589 H 0.21886 0.78377 0.75204 0.0
H590 H 0.28292 0.83444 0.75145 0.0
H591 H 0.34761 0.84903 0.75351 0.0
H592 H 0.3783 0.78486 0.79512 0.0
H593 H 0.31497 0.74879 0.80725 0.0
C594 C 0.25686 0.74795 0.7871 0.0
C595 C 0.23003 0.74939 0.77368 0.0
C596 C 0.29403 0.7761 0.7861 0.0
C597 C 0.23917 0.78226 0.76254 0.0
C598 C 0.27596 0.81096 0.76193 0.0
C599 C 0.34079 0.82845 0.76609 0.0
C600 C 0.36716 0.81851 0.7727 0.0
C601 C 0.30385 0.80656 0.77217 0.0
C602 C 0.35838 0.79258 0.78942 0.0
C603 C 0.3219 0.77146 0.79612 0.0
H604 H 0.1711 0.46919 0.76068 0.0
H605 H 0.09013 0.42957 0.70833 0.0
H606 H 0.06502 0.46741 0.72164 0.0
H607 H 0.07894 0.52464 0.74104 0.0
H608 H 0.1645 0.56904 0.79048 0.0
H609 H 0.17423 0.51606 0.78606 0.0
C610 C 0.14698 0.46761 0.75269 0.0
C611 C 0.13327 0.44751 0.73313 0.0
C612 C 0.13387 0.49095 0.75982 0.0
C613 C 0.10173 0.44545 0.72315 0.0
C614 C 0.08749 0.46731 0.73069 0.0
C615 C 0.0981 0.5214 0.75171 0.0
C616 C 0.12093 0.55041 0.76608 0.0
C617 C 0.10513 0.49217 0.748 0.0
C618 C 0.14631 0.54666 0.77953 0.0
C619 C 0.15233 0.5167 0.77668 0.0
H620 H 0.36404 0.68774 0.69529 0.0
H621 H 0.41122 0.68458 0.75744 0.0
H622 H 0.37531 0.61637 0.75677 0.0
H623 H 0.32657 0.5575 0.73945 0.0
H624 H 0.28079 0.56312 0.67711 0.0
H625 H 0.32004 0.63014 0.67702 0.0
C626 C 0.36677 0.67221 0.70866 0.0
C627 C 0.39005 0.69133 0.72647 0.0
C628 C 0.34598 0.63322 0.70821 0.0
C629 C 0.39352 0.67061 0.7435 0.0
C630 C 0.37281 0.63157 0.74317 0.0
C631 C 0.32549 0.57338 0.72577 0.0
C632 C 0.30025 0.55502 0.70846 0.0
C633 C 0.34835 0.61252 0.72577 0.0
C634 C 0.29947 0.57622 0.69082 0.0
C635 C 0.322 0.61474 0.69069 0.0
H636 H 0.46734 0.71631 0.50107 0.0
H637 H 0.54955 0.70406 0.53762 0.0
H638 H 0.51643 0.63732 0.52999 0.0
H639 H 0.45503 0.58194 0.52318 0.0
H640 H 0.36963 0.59525 0.49143 0.0
H641 H 0.41262 0.66147 0.48671 0.0
C642 C 0.47903 0.6994 0.50646 0.0
C643 C 0.51013 0.71486 0.52051 0.0
C644 C 0.45826 0.66068 0.5035 0.0
C645 C 0.52521 0.69263 0.52709 0.0
C646 C 0.5059 0.65429 0.52304 0.0
C647 C 0.44647 0.59916 0.51441 0.0
C648 C 0.40929 0.58415 0.50791 0.0
C649 C 0.47087 0.63772 0.51286 0.0
C650 C 0.39816 0.60654 0.49674 0.0
C651 C 0.42269 0.64442 0.49412 0.0
H652 H 0.25713 0.6353 0.58443 0.0
H653 H 0.23562 0.67218 0.52329 0.0
H654 H 0.3018 0.71668 0.52006 0.0
H655 H 0.36636 0.74291 0.53404 0.0
H656 H 0.38588 0.70352 0.59493 0.0
H657 H 0.31987 0.66235 0.59877 0.0
C658 C 0.26671 0.65309 0.57037 0.0
C659 C 0.24132 0.65015 0.55406 0.0
C660 C 0.30459 0.67819 0.56855 0.0
C661 C 0.25448 0.67375 0.53608 0.0
C662 C 0.29236 0.69916 0.53422 0.0
C663 C 0.3561 0.72557 0.54823 0.0
C664 C 0.3812 0.72627 0.56412 0.0
C665 C 0.31777 0.70135 0.55027 0.0
C666 C 0.36737 0.70345 0.58236 0.0
C667 C 0.32954 0.67984 0.5846 0.0
H668 H 0.19844 0.41044 0.53828 0.0
H669 H 0.25182 0.48941 0.48751 0.0
H670 H 0.20213 0.50429 0.48685 0.0
H671 H 0.15595 0.50877 0.50889 0.0
H672 H 0.10598 0.43263 0.56158 0.0
H673 H 0.1406 0.40167 0.55285 0.0
C674 C 0.19793 0.42924 0.52621 0.0
C675 C 0.2288 0.4492 0.51319 0.0
C676 C 0.17022 0.43889 0.52672 0.0
C677 C 0.2282 0.47362 0.49763 0.0
C678 C 0.20008 0.48265 0.49756 0.0
C679 C 0.15123 0.48423 0.51775 0.0
C680 C 0.12932 0.47369 0.53627 0.0
C681 C 0.17264 0.46761 0.51324 0.0
C682 C 0.12327 0.44169 0.54751 0.0
C683 C 0.14335 0.42417 0.54264 0.0
H684 H 0.20403 0.18739 0.00335 0.0
H685 H 0.11818 0.21592 0.00287 0.0
H686 H 0.12362 0.22565 0.96384 0.0
H687 H 0.14056 0.20915 0.9296 0.0
H688 H 0.22104 0.17323 0.92995 0.0
H689 H 0.23114 0.18456 0.9689 0.0
C690 C 0.18792 0.19752 -0.00522 0.0
C691 C 0.16081 0.20101 0.00581 0.0
C692 C 0.18981 0.20103 -0.02789 0.0
C693 C 0.13937 0.2133 -0.00541 0.0
C694 C 0.14222 0.21848 -0.02776 0.0
C695 C 0.16164 0.20564 0.93804 0.0
C696 C 0.17968 0.18995 0.92703 0.0
C697 C 0.16559 0.21003 0.96068 0.0
C698 C 0.20667 0.18512 0.93817 0.0
C699 C 0.21211 0.19115 0.96051 0.0
H700 H 0.68394 0.90925 0.96617 0.0
H701 H 0.72548 -0.0007 0.92061 0.0
H702 H 0.73136 0.0424 0.94923 0.0
H703 H 0.74296 0.05648 -0.01178 0.0
H704 H 0.70353 0.9664 0.03379 0.0
H705 H 0.67699 0.92136 0.00426 0.0
C706 C 0.69262 0.93797 0.96235 0.0
C707 C 0.70533 0.95138 0.94153 0.0
C708 C 0.69694 0.9628 -0.02096 0.0
C709 C 0.7159 -0.0116 0.93659 0.0
C710 C 0.71969 0.0132 0.95304 0.0
C711 C 0.72699 0.02701 -0.00825 0.0
C712 C 0.7267 0.01481 0.01308 0.0
C713 C 0.71306 0.00115 -0.02543 0.0
C714 C 0.70498 0.97664 0.01749 0.0
C715 C 0.69019 0.95073 0.00053 0.0
H716 H 0.93709 0.77944 0.92648 0.0
H717 H 0.04245 0.87995 0.9217 0.0
H718 H 0.05231 0.88066 0.96081 0.0
H719 H 0.02601 0.85974 -0.00373 0.0
H720 H 0.91766 0.76338 0.00201 0.0
H721 H 0.91419 0.75319 0.96277 0.0
C722 C 0.96266 0.80068 0.93403 0.0
C723 C -0.01089 0.82962 0.9214 0.0
C724 C -0.03272 0.80189 0.95672 0.0
C725 C 0.02187 0.85746 0.93123 0.0
C726 C 0.02738 0.85796 0.95356 0.0
C727 C 0.00194 0.83597 -0.01099 0.0
C728 C -0.02816 0.81278 0.00194 0.0
C729 C -0.00049 0.83138 0.9665 0.0
C730 C 0.94114 0.78174 -0.00761 0.0
C731 C 0.93901 0.77615 0.96992 0.0
H732 H 0.85469 0.59188 0.29336 0.0
H733 H 0.87466 0.53172 0.24371 0.0
H734 H 0.90025 0.50744 0.27073 0.0
H735 H 0.90205 0.49139 0.30902 0.0
H736 H 0.8824 0.55197 0.35861 0.0
H737 H 0.87258 0.58848 0.33113 0.0
C738 C 0.86602 0.57465 0.28835 0.0
C739 C 0.86186 0.56288 0.26664 0.0
C740 C 0.88008 0.56014 0.30407 0.0
C741 C 0.8772 0.54103 0.26033 0.0
C742 C 0.89146 0.5267 0.27585 0.0
C743 C 0.89689 0.51346 0.31384 0.0
C744 C 0.89185 0.51808 0.33582 0.0
C745 C 0.89077 0.53417 0.29789 0.0
C746 C 0.88593 0.54734 0.34182 0.0
C747 C 0.87999 0.56813 0.32607 0.0
H748 H 0.48083 0.37984 0.27114 0.0
H749 H 0.40464 0.26901 0.2481 0.0
H750 H 0.38833 0.24781 0.28535 0.0
H751 H 0.40678 0.25845 0.324 0.0
H752 H 0.48259 0.36979 0.34691 0.0
H753 H 0.48701 0.39352 0.31031 0.0
C754 C 0.4595 0.35146 0.27434 0.0
C755 C 0.44401 0.32587 0.25712 0.0
C756 C 0.45059 0.33953 0.29577 0.0
C757 C 0.41661 0.28913 0.26122 0.0
C758 C 0.40762 0.27696 0.28251 0.0
C759 C 0.42316 0.2881 0.32109 0.0
C760 C 0.44499 0.31218 0.33803 0.0
C761 C 0.426 0.3015 0.2999 0.0
C762 C 0.46567 0.3506 0.33415 0.0
C763 C 0.46856 0.36417 0.31314 0.0
H764 H 0.69025 0.1429 0.34218 0.0
H765 H 0.577 0.06979 0.35901 0.0
H766 H 0.55894 0.05822 0.32061 0.0
H767 H 0.57388 0.08056 0.28316 0.0
H768 H 0.68744 0.15344 0.26646 0.0
H769 H 0.70722 0.15237 0.30377 0.0
C770 C 0.6619 0.1233 0.33734 0.0
C771 C 0.63484 0.10743 0.35318 0.0
C772 C 0.65181 0.11709 0.31529 0.0
C773 C 0.5982 0.0821 0.34697 0.0
C774 C 0.58787 0.07581 0.32504 0.0
C775 C 0.60307 0.09499 0.28754 0.0
C776 C 0.62909 0.1177 0.27224 0.0
C777 C 0.61416 0.09479 0.30913 0.0
C778 C 0.66686 0.13589 0.27796 0.0
C779 C 0.67816 0.13567 0.29939 0.0
H780 H 0.57058 0.84634 0.62541 0.0
H781 H 0.50269 0.88336 0.59262 0.0
H782 H 0.48831 0.90056 0.62721 0.0
H783 H 0.48037 0.88699 0.66609 0.0
H784 H 0.54492 0.84582 0.69871 0.0
H785 H 0.57586 0.8492 0.66509 0.0
C786 C 0.55386 0.85961 0.62579 0.0
C787 C 0.53656 0.86222 0.60658 0.0
C788 C 0.54431 0.86779 0.64582 0.0
C789 C 0.51584 0.88039 0.60719 0.0
C790 C 0.50718 0.8898 0.62704 0.0
C791 C 0.50217 0.88004 0.666 0.0
C792 C 0.50941 0.86491 0.68464 0.0
C793 C 0.5189 0.88079 0.64643 0.0
C794 C 0.53837 0.85696 0.6845 0.0
C795 C 0.55587 0.85857 0.66519 0.0
H796 H 0.05337 0.55451 0.62657 0.0
H797 H 0.13087 0.65637 0.59562 0.0
H798 H 0.13817 0.69134 0.62883 0.0
H799 H 0.13415 0.68938 0.66867 0.0
H800 H 0.05479 0.58802 0.6993 0.0
H801 H 0.03568 0.55652 0.66417 0.0
C802 C 0.07048 0.58459 0.62686 0.0
C803 C 0.09198 0.60286 0.6089 0.0
C804 C 0.07468 0.60446 0.64607 0.0
C805 C 0.114 0.64179 0.60929 0.0
C806 C 0.11856 0.66174 0.62838 0.0
C807 C 0.11151 0.6609 0.66747 0.0
C808 C 0.09627 0.64081 0.68645 0.0
C809 C 0.10079 0.64294 0.64721 0.0
C810 C 0.06686 0.60401 0.68485 0.0
C811 C 0.05624 0.58585 0.66478 0.0
H812 H 0.28285 0.39971 0.58279 0.0
H813 H 0.38458 0.48845 0.61002 0.0
H814 H 0.3604 0.47117 0.64645 0.0
H815 H 0.30551 0.44138 0.66902 0.0
H816 H 0.20116 0.35922 0.64071 0.0
H817 H 0.23097 0.36241 0.60657 0.0
C818 C 0.30027 0.4141 0.59679 0.0
C819 C 0.33543 0.44526 0.59378 0.0
C820 C 0.28522 0.40554 0.61757 0.0
C821 C 0.35747 0.46428 0.612 0.0
C822 C 0.34347 0.45463 0.63282 0.0
C823 C 0.28969 0.42297 0.65567 0.0
C824 C 0.25123 0.4001 0.65733 0.0
C825 C 0.30663 0.42681 0.63566 0.0
C826 C 0.23083 0.37696 0.63978 0.0
C827 C 0.24783 0.37909 0.62019 0.0
loop_
_geom_bond_atom_site_label_1
_geom_bond_atom_site_label_2
_geom_bond_distance
_geom_bond_site_symmetry_2
_ccdc_geom_bond_type
Zn0 O3 2.031 . S
Zn0 O5 2.049 . S
Zn0 O10 2.067 . S
Zn1 O2 1.962 . S
Zn1 O4 1.986 . S
Zn1 O6 1.996 . S
Zn1 O9 1.943 . S
O2 Zn1 1.962 . S
O2 C7 1.254 . S
O3 Zn0 2.031 . S
O3 C7 1.269 . S
O4 Zn1 1.986 . S
O4 C11 1.262 . S
O5 Zn0 2.049 . S
O5 C13 1.260 . S
O6 Zn1 1.996 . S
O6 C13 1.257 . S
C7 O2 1.254 . S
C7 O3 1.269 . S
C8 O9 1.249 . S
C8 O10 1.270 . S
O9 Zn1 1.943 . S
O9 C8 1.249 . S
O10 Zn0 2.067 . S
O10 C8 1.270 . S
C11 O4 1.262 . S
C11 O12 1.232 . S
O12 C11 1.232 . S
C13 O5 1.260 . S
C13 O6 1.257 . S
Zn14 O17 2.031 1_565 S
Zn14 O19 2.049 . S
Zn14 O24 2.067 . S
Zn15 O16 1.962 . S
Zn15 O18 1.986 . S
Zn15 O20 1.996 . S
Zn15 O23 1.943 1_545 S
O16 Zn15 1.962 . S
O16 C21 1.254 . S
O17 Zn14 2.031 1_545 S
O17 C21 1.269 . S
O18 Zn15 1.986 . S
O18 C25 1.262 . S
O19 Zn14 2.049 . S
O19 C27 1.260 . S
O20 Zn15 1.996 . S
O20 C27 1.257 1_545 S
C21 O16 1.254 . S
C21 O17 1.269 . S
C22 O23 1.249 . S
C22 O24 1.270 . S
O23 Zn15 1.943 1_565 S
O23 C22 1.249 . S
O24 Zn14 2.067 . S
O24 C22 1.270 . S
C25 O18 1.262 . S
C25 O26 1.232 . S
O26 C25 1.232 . S
C27 O19 1.260 . S
C27 O20 1.257 1_565 S
Zn28 O31 2.031 1_455 S
Zn28 O33 2.049 . S
Zn28 O38 2.067 . S
Zn29 O30 1.962 . S
Zn29 O32 1.986 . S
Zn29 O34 1.996 . S
Zn29 O37 1.943 1_655 S
O30 Zn29 1.962 . S
O30 C35 1.254 . S
O31 Zn28 2.031 1_655 S
O31 C35 1.269 . S
O32 Zn29 1.986 . S
O32 C39 1.262 . S
O33 Zn28 2.049 . S
O33 C41 1.260 . S
O34 Zn29 1.996 . S
O34 C41 1.257 1_655 S
C35 O30 1.254 . S
C35 O31 1.269 . S
C36 O37 1.249 . S
C36 O38 1.270 . S
O37 Zn29 1.943 1_455 S
O37 C36 1.249 . S
O38 Zn28 2.067 . S
O38 C36 1.270 . S
C39 O32 1.262 . S
C39 O40 1.232 . S
O40 C39 1.232 . S
C41 O33 1.260 . S
C41 O34 1.257 1_455 S
Zn42 O45 2.031 . S
Zn42 O47 2.049 . S
Zn42 O52 2.067 . S
Zn43 O44 1.962 . S
Zn43 O46 1.986 . S
Zn43 O48 1.996 . S
Zn43 O51 1.943 . S
O44 Zn43 1.962 . S
O44 C49 1.254 . S
O45 Zn42 2.031 . S
O45 C49 1.269 . S
O46 Zn43 1.986 . S
O46 C53 1.262 . S
O47 Zn42 2.049 . S
O47 C55 1.260 . S
O48 Zn43 1.996 . S
O48 C55 1.257 . S
C49 O44 1.254 . S
C49 O45 1.269 . S
C50 O51 1.249 . S
C50 O52 1.270 . S
O51 Zn43 1.943 . S
O51 C50 1.249 . S
O52 Zn42 2.067 . S
O52 C50 1.270 . S
C53 O46 1.262 . S
C53 O54 1.232 . S
O54 C53 1.232 . S
C55 O47 1.260 . S
C55 O48 1.257 . S
Zn56 O59 2.031 1_545 S
Zn56 O61 2.049 . S
Zn56 O66 2.067 . S
Zn57 O58 1.962 . S
Zn57 O60 1.986 . S
Zn57 O62 1.996 . S
Zn57 O65 1.943 1_565 S
O58 Zn57 1.962 . S
O58 C63 1.254 . S
O59 Zn56 2.031 1_565 S
O59 C63 1.269 . S
O60 Zn57 1.986 . S
O60 C67 1.262 . S
O61 Zn56 2.049 . S
O61 C69 1.260 . S
O62 Zn57 1.996 . S
O62 C69 1.257 1_565 S
C63 O58 1.254 . S
C63 O59 1.269 . S
C64 O65 1.249 . S
C64 O66 1.270 . S
O65 Zn57 1.943 1_545 S
O65 C64 1.249 . S
O66 Zn56 2.067 . S
O66 C64 1.270 . S
C67 O60 1.262 . S
C67 O68 1.232 . S
O68 C67 1.232 . S
C69 O61 1.260 . S
C69 O62 1.257 1_545 S
Zn70 O73 2.031 1_655 S
Zn70 O75 2.049 . S
Zn70 O80 2.067 . S
Zn71 O72 1.962 . S
Zn71 O74 1.986 . S
Zn71 O76 1.996 . S
Zn71 O79 1.943 1_455 S
O72 Zn71 1.962 . S
O72 C77 1.254 . S
O73 Zn70 2.031 1_455 S
O73 C77 1.269 . S
O74 Zn71 1.986 . S
O74 C81 1.262 . S
O75 Zn70 2.049 . S
O75 C83 1.260 . S
O76 Zn71 1.996 . S
O76 C83 1.257 1_455 S
C77 O72 1.254 . S
C77 O73 1.269 . S
C78 O79 1.249 . S
C78 O80 1.270 . S
O79 Zn71 1.943 1_655 S
O79 C78 1.249 . S
O80 Zn70 2.067 . S
O80 C78 1.270 . S
C81 O74 1.262 . S
C81 O82 1.232 . S
O82 C81 1.232 . S
C83 O75 1.260 . S
C83 O76 1.257 1_655 S
Zn84 O87 2.031 . S
Zn84 O89 2.049 . S
Zn84 O94 2.067 . S
Zn85 O86 1.962 . S
Zn85 O88 1.986 . S
Zn85 O90 1.996 . S
Zn85 O93 1.943 . S
O86 Zn85 1.962 . S
O86 C91 1.254 . S
O87 Zn84 2.031 . S
O87 C91 1.269 . S
O88 Zn85 1.986 . S
O88 C95 1.262 . S
O89 Zn84 2.049 . S
O89 C97 1.260 . S
O90 Zn85 1.996 . S
O90 C97 1.257 . S
C91 O86 1.254 . S
C91 O87 1.269 . S
C92 O93 1.249 . S
C92 O94 1.270 . S
O93 Zn85 1.943 . S
O93 C92 1.249 . S
O94 Zn84 2.067 . S
O94 C92 1.270 . S
C95 O88 1.262 . S
C95 O96 1.232 . S
O96 C95 1.232 . S
C97 O89 1.260 . S
C97 O90 1.257 . S
Zn98 O101 2.031 . S
Zn98 O103 2.049 . S
Zn98 O108 2.067 . S
Zn99 O100 1.962 . S
Zn99 O102 1.986 . S
Zn99 O104 1.996 . S
Zn99 O107 1.943 . S
O100 Zn99 1.962 . S
O100 C105 1.254 . S
O101 Zn98 2.031 . S
O101 C105 1.269 . S
O102 Zn99 1.986 . S
O102 C109 1.262 . S
O103 Zn98 2.049 . S
O103 C111 1.260 . S
O104 Zn99 1.996 . S
O104 C111 1.257 . S
C105 O100 1.254 . S
C105 O101 1.269 . S
C106 O107 1.249 . S
C106 O108 1.270 . S
O107 Zn99 1.943 . S
O107 C106 1.249 . S
O108 Zn98 2.067 . S
O108 C106 1.270 . S
C109 O102 1.262 . S
C109 O110 1.232 . S
O110 C109 1.232 . S
C111 O103 1.260 . S
C111 O104 1.257 . S
Zn112 O115 2.031 . S
Zn112 O117 2.049 . S
Zn112 O122 2.067 . S
Zn113 O114 1.962 . S
Zn113 O116 1.986 . S
Zn113 O118 1.996 . S
Zn113 O121 1.943 . S
O114 Zn113 1.962 . S
O114 C119 1.254 . S
O115 Zn112 2.031 . S
O115 C119 1.269 . S
O116 Zn113 1.986 . S
O116 C123 1.262 . S
O117 Zn112 2.049 . S
O117 C125 1.260 . S
O118 Zn113 1.996 . S
O118 C125 1.257 . S
C119 O114 1.254 . S
C119 O115 1.269 . S
C120 O121 1.249 . S
C120 O122 1.270 . S
O121 Zn113 1.943 . S
O121 C120 1.249 . S
O122 Zn112 2.067 . S
O122 C120 1.270 . S
C123 O116 1.262 . S
C123 O124 1.232 . S
O124 C123 1.232 . S
C125 O117 1.260 . S
C125 O118 1.257 . S
Zn126 O129 2.031 . S
Zn126 O131 2.049 . S
Zn126 O136 2.067 . S
Zn127 O128 1.962 . S
Zn127 O130 1.986 . S
Zn127 O132 1.996 . S
Zn127 O135 1.943 . S
O128 Zn127 1.962 . S
O128 C133 1.254 . S
O129 Zn126 2.031 . S
O129 C133 1.269 . S
O130 Zn127 1.986 . S
O130 C137 1.262 . S
O131 Zn126 2.049 . S
O131 C139 1.260 . S
O132 Zn127 1.996 . S
O132 C139 1.257 . S
C133 O128 1.254 . S
C133 O129 1.269 . S
C134 O135 1.249 . S
C134 O136 1.270 . S
O135 Zn127 1.943 . S
O135 C134 1.249 . S
O136 Zn126 2.067 . S
O136 C134 1.270 . S
C137 O130 1.262 . S
C137 O138 1.232 . S
O138 C137 1.232 . S
C139 O131 1.260 . S
C139 O132 1.257 . S
Zn140 O143 2.031 . S
Zn140 O145 2.049 . S
Zn140 O150 2.067 . S
Zn141 O142 1.962 . S
Zn141 O144 1.986 . S
Zn141 O146 1.996 . S
Zn141 O149 1.943 . S
O142 Zn141 1.962 . S
O142 C147 1.254 . S
O143 Zn140 2.031 . S
O143 C147 1.269 . S
O144 Zn141 1.986 . S
O144 C151 1.262 . S
O145 Zn140 2.049 . S
O145 C153 1.260 . S
O146 Zn141 1.996 . S
O146 C153 1.257 . S
C147 O142 1.254 . S
C147 O143 1.269 . S
C148 O149 1.249 . S
C148 O150 1.270 . S
O149 Zn141 1.943 . S
O149 C148 1.249 . S
O150 Zn140 2.067 . S
O150 C148 1.270 . S
C151 O144 1.262 . S
C151 O152 1.232 . S
O152 C151 1.232 . S
C153 O145 1.260 . S
C153 O146 1.257 . S
Zn154 O157 2.031 . S
Zn154 O159 2.049 . S
Zn154 O164 2.067 . S
Zn155 O156 1.962 . S
Zn155 O158 1.986 . S
Zn155 O160 1.996 . S
Zn155 O163 1.943 . S
O156 Zn155 1.962 . S
O156 C161 1.254 . S
O157 Zn154 2.031 . S
O157 C161 1.269 . S
O158 Zn155 1.986 . S
O158 C165 1.262 . S
O159 Zn154 2.049 . S
O159 C167 1.260 . S
O160 Zn155 1.996 . S
O160 C167 1.257 . S
C161 O156 1.254 . S
C161 O157 1.269 . S
C162 O163 1.249 . S
C162 O164 1.270 . S
O163 Zn155 1.943 . S
O163 C162 1.249 . S
O164 Zn154 2.067 . S
O164 C162 1.270 . S
C165 O158 1.262 . S
C165 O166 1.232 . S
O166 C165 1.232 . S
C167 O159 1.260 . S
C167 O160 1.257 . S
Zn168 O171 2.031 . S
Zn168 O173 2.049 . S
Zn168 O178 2.067 . S
Zn169 O170 1.962 . S
Zn169 O172 1.986 . S
Zn169 O174 1.996 . S
Zn169 O177 1.943 . S
O170 Zn169 1.962 . S
O170 C175 1.254 . S
O171 Zn168 2.031 . S
O171 C175 1.269 . S
O172 Zn169 1.986 . S
O172 C179 1.262 . S
O173 Zn168 2.049 . S
O173 C181 1.260 . S
O174 Zn169 1.996 . S
O174 C181 1.257 . S
C175 O170 1.254 . S
C175 O171 1.269 . S
C176 O177 1.249 . S
C176 O178 1.270 . S
O177 Zn169 1.943 . S
O177 C176 1.249 . S
O178 Zn168 2.067 . S
O178 C176 1.270 . S
C179 O172 1.262 . S
C179 O180 1.232 . S
O180 C179 1.232 . S
C181 O173 1.260 . S
C181 O174 1.257 . S
Zn182 O185 2.031 . S
Zn182 O187 2.049 . S
Zn182 O192 2.067 . S
Zn183 O184 1.962 . S
Zn183 O186 1.986 . S
Zn183 O188 1.996 . S
Zn183 O191 1.943 . S
O184 Zn183 1.962 . S
O184 C189 1.254 . S
O185 Zn182 2.031 . S
O185 C189 1.269 . S
O186 Zn183 1.986 . S
O186 C193 1.262 . S
O187 Zn182 2.049 . S
O187 C195 1.260 . S
O188 Zn183 1.996 . S
O188 C195 1.257 . S
C189 O184 1.254 . S
C189 O185 1.269 . S
C190 O191 1.249 . S
C190 O192 1.270 . S
O191 Zn183 1.943 . S
O191 C190 1.249 . S
O192 Zn182 2.067 . S
O192 C190 1.270 . S
C193 O186 1.262 . S
C193 O194 1.232 . S
O194 C193 1.232 . S
C195 O187 1.260 . S
C195 O188 1.257 . S
Zn196 O199 2.031 . S
Zn196 O201 2.049 . S
Zn196 O206 2.067 . S
Zn197 O198 1.962 . S
Zn197 O200 1.986 . S
Zn197 O202 1.996 . S
Zn197 O205 1.943 . S
O198 Zn197 1.962 . S
O198 C203 1.254 . S
O199 Zn196 2.031 . S
O199 C203 1.269 . S
O200 Zn197 1.986 . S
O200 C207 1.262 . S
O201 Zn196 2.049 . S
O201 C209 1.260 . S
O202 Zn197 1.996 . S
O202 C209 1.257 . S
C203 O198 1.254 . S
C203 O199 1.269 . S
C204 O205 1.249 . S
C204 O206 1.270 . S
O205 Zn197 1.943 . S
O205 C204 1.249 . S
O206 Zn196 2.067 . S
O206 C204 1.270 . S
C207 O200 1.262 . S
C207 O208 1.232 . S
O208 C207 1.232 . S
C209 O201 1.260 . S
C209 O202 1.257 . S
Zn210 O213 2.031 . S
Zn210 O215 2.049 . S
Zn210 O220 2.067 . S
Zn211 O212 1.962 . S
Zn211 O214 1.986 . S
Zn211 O216 1.996 . S
Zn211 O219 1.943 . S
O212 Zn211 1.962 . S
O212 C217 1.254 . S
O213 Zn210 2.031 . S
O213 C217 1.269 . S
O214 Zn211 1.986 . S
O214 C221 1.262 . S
O215 Zn210 2.049 . S
O215 C223 1.260 . S
O216 Zn211 1.996 . S
O216 C223 1.257 . S
C217 O212 1.254 . S
C217 O213 1.269 . S
C218 O219 1.249 . S
C218 O220 1.270 . S
O219 Zn211 1.943 . S
O219 C218 1.249 . S
O220 Zn210 2.067 . S
O220 C218 1.270 . S
C221 O214 1.262 . S
C221 O222 1.232 . S
O222 C221 1.232 . S
C223 O215 1.260 . S
C223 O216 1.257 . S
Zn224 O227 2.031 . S
Zn224 O229 2.049 . S
Zn224 O234 2.067 . S
Zn225 O226 1.962 . S
Zn225 O228 1.986 . S
Zn225 O230 1.996 . S
Zn225 O233 1.943 . S
O226 Zn225 1.962 . S
O226 C231 1.254 . S
O227 Zn224 2.031 . S
O227 C231 1.269 . S
O228 Zn225 1.986 . S
O228 C235 1.262 . S
O229 Zn224 2.049 . S
O229 C237 1.260 . S
O230 Zn225 1.996 . S
O230 C237 1.257 . S
C231 O226 1.254 . S
C231 O227 1.269 . S
C232 O233 1.249 . S
C232 O234 1.270 . S
O233 Zn225 1.943 . S
O233 C232 1.249 . S
O234 Zn224 2.067 . S
O234 C232 1.270 . S
C235 O228 1.262 . S
C235 O236 1.232 . S
O236 C235 1.232 . S
C237 O229 1.260 . S
C237 O230 1.257 . S
Zn238 O241 2.031 . S
Zn238 O243 2.049 . S
Zn238 O248 2.067 . S
Zn239 O240 1.962 . S
Zn239 O242 1.986 . S
Zn239 O244 1.996 . S
Zn239 O247 1.943 . S
O240 Zn239 1.962 . S
O240 C245 1.254 . S
O241 Zn238 2.031 . S
O241 C245 1.269 . S
O242 Zn239 1.986 . S
O242 C249 1.262 . S
O243 Zn238 2.049 . S
O243 C251 1.260 . S
O244 Zn239 1.996 . S
O244 C251 1.257 . S
C245 O240 1.254 . S
C245 O241 1.269 . S
C246 O247 1.249 . S
C246 O248 1.270 . S
O247 Zn239 1.943 . S
O247 C246 1.249 . S
O248 Zn238 2.067 . S
O248 C246 1.270 . S
C249 O242 1.262 . S
C249 O250 1.232 . S
O250 C249 1.232 . S
C251 O243 1.260 . S
C251 O244 1.257 . S
H252 C258 0.930 . S
H253 C261 0.930 . S
H254 C262 0.930 . S
H255 C263 0.930 . S
H256 C266 0.930 . S
H257 C267 0.930 . S
C258 H252 0.930 . S
C258 C259 1.355 . S
C258 C260 1.415 . S
C259 C258 1.355 . S
C259 C261 1.419 . S
C260 C258 1.415 . S
C260 C265 1.425 . S
C260 C267 1.409 . S
C261 H253 0.930 . S
C261 C259 1.419 . S
C261 C262 1.362 . S
C262 H254 0.930 . S
C262 C261 1.362 . S
C262 C265 1.409 . S
C263 H255 0.930 . S
C263 C264 1.355 . S
C263 C265 1.415 . S
C264 C263 1.355 . S
C264 C266 1.419 . S
C265 C260 1.425 . S
C265 C262 1.409 . S
C265 C263 1.415 . S
C266 H256 0.930 . S
C266 C264 1.419 . S
C266 C267 1.362 . S
C267 H257 0.930 . S
C267 C260 1.409 . S
C267 C266 1.362 . S
H268 C274 0.930 . S
H269 C277 0.930 1_565 S
H270 C278 0.930 . S
H271 C279 0.930 . S
H272 C282 0.930 . S
H273 C283 0.930 . S
C274 H268 0.930 . S
C274 C275 1.355 . S
C274 C276 1.415 . S
C275 C274 1.355 . S
C275 C277 1.419 . S
C276 C274 1.415 . S
C276 C281 1.425 . S
C276 C283 1.409 . S
C277 H269 0.930 1_545 S
C277 C275 1.419 . S
C277 C278 1.362 . S
C278 H270 0.930 . S
C278 C277 1.362 . S
C278 C281 1.409 . S
C279 H271 0.930 . S
C279 C280 1.355 . S
C279 C281 1.415 . S
C280 C279 1.355 . S
C280 C282 1.419 . S
C281 C276 1.425 . S
C281 C278 1.409 . S
C281 C279 1.415 . S
C282 H272 0.930 . S
C282 C280 1.419 . S
C282 C283 1.362 . S
C283 H273 0.930 . S
C283 C276 1.409 . S
C283 C282 1.362 . S
H284 C290 0.930 . S
H285 C293 0.930 . S
H286 C294 0.930 . S
H287 C295 0.930 . S
H288 C298 0.917 1_455 S
H289 C299 0.930 1_455 S
C290 H284 0.930 . S
C290 C291 1.355 . S
C290 C292 1.415 . S
C291 C290 1.355 . S
C291 C293 1.419 . S
C292 C290 1.415 . S
C292 C297 1.425 . S
C292 C299 1.409 . S
C293 H285 0.930 . S
C293 C291 1.419 . S
C293 C294 1.362 . S
C294 H286 0.930 . S
C294 C293 1.362 . S
C294 C297 1.409 . S
C295 H287 0.930 . S
C295 C296 1.355 . S
C295 C297 1.415 . S
C296 C295 1.355 . S
C296 C298 1.435 . S
C297 C292 1.425 . S
C297 C294 1.409 . S
C297 C295 1.415 . S
C298 H288 0.917 1_655 S
C298 C296 1.435 . S
C298 C299 1.359 . S
C299 H289 0.930 1_655 S
C299 C292 1.409 . S
C299 C298 1.359 . S
H300 C306 0.930 . S
H301 C309 0.930 . S
H302 C310 0.930 . S
H303 C311 0.930 . S
H304 C314 0.930 . S
H305 C315 0.930 . S
C306 H300 0.930 . S
C306 C307 1.355 . S
C306 C308 1.415 . S
C307 C306 1.355 . S
C307 C309 1.419 . S
C308 C306 1.415 . S
C308 C313 1.425 . S
C308 C315 1.409 . S
C309 H301 0.930 . S
C309 C307 1.419 . S
C309 C310 1.362 . S
C310 H302 0.930 . S
C310 C309 1.362 . S
C310 C313 1.409 . S
C311 H303 0.930 . S
C311 C312 1.355 . S
C311 C313 1.415 . S
C312 C311 1.355 . S
C312 C314 1.419 . S
C313 C308 1.425 . S
C313 C310 1.409 . S
C313 C311 1.415 . S
C314 H304 0.930 . S
C314 C312 1.419 . S
C314 C315 1.362 . S
C315 H305 0.930 . S
C315 C308 1.409 . S
C315 C314 1.362 . S
H316 C322 0.930 . S
H317 C325 0.930 . S
H318 C326 0.930 . S
H319 C327 0.930 . S
H320 C330 0.930 . S
H321 C331 0.930 . S
C322 H316 0.930 . S
C322 C323 1.355 . S
C322 C324 1.415 . S
C323 C322 1.355 . S
C323 C325 1.419 . S
C324 C322 1.415 . S
C324 C329 1.425 . S
C324 C331 1.409 . S
C325 H317 0.930 . S
C325 C323 1.419 . S
C325 C326 1.362 . S
C326 H318 0.930 . S
C326 C325 1.362 . S
C326 C329 1.409 . S
C327 H319 0.930 . S
C327 C328 1.355 . S
C327 C329 1.415 . S
C328 C327 1.355 . S
C328 C330 1.419 . S
C329 C324 1.425 . S
C329 C326 1.409 . S
C329 C327 1.415 . S
C330 H320 0.930 . S
C330 C328 1.419 . S
C330 C331 1.362 . S
C331 H321 0.930 . S
C331 C324 1.409 . S
C331 C330 1.362 . S
H332 C338 0.930 . S
H333 C341 0.930 . S
H334 C342 0.930 . S
H335 C343 0.930 . S
H336 C346 0.930 . S
H337 C347 0.930 . S
C338 H332 0.930 . S
C338 C339 1.355 . S
C338 C340 1.415 . S
C339 C338 1.355 . S
C339 C341 1.419 . S
C340 C338 1.415 . S
C340 C345 1.425 . S
C340 C347 1.409 . S
C341 H333 0.930 . S
C341 C339 1.419 . S
C341 C342 1.362 . S
C342 H334 0.930 . S
C342 C341 1.362 . S
C342 C345 1.409 . S
C343 H335 0.930 . S
C343 C344 1.355 . S
C343 C345 1.415 . S
C344 C343 1.355 . S
C344 C346 1.419 . S
C345 C340 1.425 . S
C345 C342 1.409 . S
C345 C343 1.415 . S
C346 H336 0.930 . S
C346 C344 1.419 . S
C346 C347 1.362 . S
C347 H337 0.930 . S
C347 C340 1.409 . S
C347 C346 1.362 . S
H348 C354 0.930 . S
H349 C357 0.930 . S
H350 C358 0.930 . S
H351 C359 0.930 . S
H352 C362 0.930 . S
H353 C363 0.930 . S
C354 H348 0.930 . S
C354 C355 1.355 . S
C354 C356 1.415 . S
C355 C354 1.355 . S
C355 C357 1.419 . S
C356 C354 1.415 . S
C356 C361 1.425 . S
C356 C363 1.409 1_655 S
C357 H349 0.930 . S
C357 C355 1.419 . S
C357 C358 1.362 . S
C358 H350 0.930 . S
C358 C357 1.362 . S
C358 C361 1.409 . S
C359 H351 0.930 . S
C359 C360 1.355 . S
C359 C361 1.415 1_455 S
C360 C359 1.355 . S
C360 C362 1.419 . S
C361 C356 1.425 . S
C361 C358 1.409 . S
C361 C359 1.415 1_655 S
C362 H352 0.930 . S
C362 C360 1.419 . S
C362 C363 1.362 . S
C363 H353 0.930 . S
C363 C356 1.409 1_455 S
C363 C362 1.362 . S
H364 C370 0.930 . S
H365 C373 0.930 . S
H366 C374 0.930 . S
H367 C375 0.930 . S
H368 C378 0.930 . S
H369 C379 0.930 . S
C370 H364 0.930 . S
C370 C371 1.355 . S
C370 C372 1.415 . S
C371 C370 1.355 . S
C371 C373 1.419 . S
C372 C370 1.415 . S
C372 C377 1.425 . S
C372 C379 1.409 . S
C373 H365 0.930 . S
C373 C371 1.419 . S
C373 C374 1.362 . S
C374 H366 0.930 . S
C374 C373 1.362 . S
C374 C377 1.409 . S
C375 H367 0.930 . S
C375 C376 1.355 . S
C375 C377 1.415 . S
C376 C375 1.355 . S
C376 C378 1.419 . S
C377 C372 1.425 . S
C377 C374 1.409 . S
C377 C375 1.415 . S
C378 H368 0.930 . S
C378 C376 1.419 . S
C378 C379 1.362 . S
C379 H369 0.930 . S
C379 C372 1.409 . S
C379 C378 1.362 . S
H380 C386 0.930 . S
H381 C389 0.930 . S
H382 C390 0.930 . S
H383 C391 0.930 . S
H384 C394 0.930 . S
H385 C395 0.930 1_545 S
C386 H380 0.930 . S
C386 C387 1.355 . S
C386 C388 1.415 . S
C387 C386 1.355 . S
C387 C389 1.419 . S
C388 C386 1.415 . S
C388 C393 1.425 1_545 S
C388 C395 1.409 1_545 S
C389 H381 0.930 . S
C389 C387 1.419 . S
C389 C390 1.362 1_545 S
C390 H382 0.930 . S
C390 C389 1.362 1_565 S
C390 C393 1.409 . S
C391 H383 0.930 . S
C391 C392 1.355 . S
C391 C393 1.415 . S
C392 C391 1.355 . S
C392 C394 1.419 . S
C393 C388 1.425 1_565 S
C393 C390 1.409 . S
C393 C391 1.415 . S
C394 H384 0.930 . S
C394 C392 1.419 . S
C394 C395 1.362 . S
C395 H385 0.930 1_565 S
C395 C388 1.409 1_565 S
C395 C394 1.362 . S
H396 C402 0.930 . S
H397 C405 0.930 . S
H398 C406 0.930 . S
H399 C407 0.930 . S
H400 C410 0.930 . S
H401 C411 0.930 . S
C402 H396 0.930 . S
C402 C403 1.355 . S
C402 C404 1.415 . S
C403 C402 1.355 . S
C403 C405 1.419 . S
C404 C402 1.415 . S
C404 C409 1.425 . S
C404 C411 1.409 1_455 S
C405 H397 0.930 . S
C405 C403 1.419 . S
C405 C406 1.362 . S
C406 H398 0.930 . S
C406 C405 1.362 . S
C406 C409 1.409 . S
C407 H399 0.930 . S
C407 C408 1.355 . S
C407 C409 1.415 1_655 S
C408 C407 1.355 . S
C408 C410 1.419 . S
C409 C404 1.425 . S
C409 C406 1.409 . S
C409 C407 1.415 1_455 S
C410 H400 0.930 . S
C410 C408 1.419 . S
C410 C411 1.362 . S
C411 H401 0.930 . S
C411 C404 1.409 1_655 S
C411 C410 1.362 . S
H412 C418 0.930 . S
H413 C421 0.930 . S
H414 C422 0.930 . S
H415 C423 0.930 . S
H416 C426 0.930 . S
H417 C427 0.930 . S
C418 H412 0.930 . S
C418 C419 1.355 . S
C418 C420 1.415 . S
C419 C418 1.355 . S
C419 C421 1.419 . S
C420 C418 1.415 . S
C420 C425 1.425 . S
C420 C427 1.409 . S
C421 H413 0.930 . S
C421 C419 1.419 . S
C421 C422 1.362 . S
C422 H414 0.930 . S
C422 C421 1.362 . S
C422 C425 1.409 . S
C423 H415 0.930 . S
C423 C424 1.355 . S
C423 C425 1.415 . S
C424 C423 1.355 . S
C424 C426 1.419 . S
C425 C420 1.425 . S
C425 C422 1.409 . S
C425 C423 1.415 . S
C426 H416 0.930 . S
C426 C424 1.419 . S
C426 C427 1.362 . S
C427 H417 0.930 . S
C427 C420 1.409 . S
C427 C426 1.362 . S
H428 C434 0.930 . S
H429 C437 0.930 . S
H430 C438 0.928 1_565 S
H431 C439 0.930 . S
H432 C442 0.930 . S
H433 C443 0.930 . S
C434 H428 0.930 . S
C434 C435 1.355 . S
C434 C436 1.415 1_545 S
C435 C434 1.355 . S
C435 C437 1.419 . S
C436 C434 1.415 1_565 S
C436 C441 1.425 . S
C436 C443 1.409 . S
C437 H429 0.930 . S
C437 C435 1.419 . S
C437 C438 1.362 . S
C438 H430 0.928 1_545 S
C438 C437 1.362 . S
C438 C441 1.409 1_545 S
C439 H431 0.930 . S
C439 C440 1.355 . S
C439 C441 1.415 . S
C440 C439 1.355 . S
C440 C442 1.419 . S
C441 C436 1.425 . S
C441 C438 1.409 1_565 S
C441 C439 1.415 . S
C442 H432 0.930 . S
C442 C440 1.419 . S
C442 C443 1.362 . S
C443 H433 0.930 . S
C443 C436 1.409 . S
C443 C442 1.362 . S
H444 C450 0.930 . S
H445 C453 0.930 . S
H446 C454 0.934 . S
H447 C455 0.930 . S
H448 C458 0.930 . S
H449 C459 0.930 . S
C450 H444 0.930 . S
C450 C451 1.355 . S
C450 C452 1.415 1_565 S
C451 C450 1.355 . S
C451 C453 1.419 . S
C452 C450 1.415 1_545 S
C452 C457 1.425 . S
C452 C459 1.409 . S
C453 H445 0.930 . S
C453 C451 1.419 . S
C453 C454 1.362 . S
C454 H446 0.934 . S
C454 C453 1.362 . S
C454 C457 1.409 1_565 S
C455 H447 0.930 . S
C455 C456 1.355 . S
C455 C457 1.415 . S
C456 C455 1.355 . S
C456 C458 1.419 . S
C457 C452 1.425 . S
C457 C454 1.409 1_545 S
C457 C455 1.415 . S
C458 H448 0.930 . S
C458 C456 1.419 . S
C458 C459 1.362 . S
C459 H449 0.930 . S
C459 C452 1.409 . S
C459 C458 1.362 . S
H460 C466 0.930 . S
H461 C469 0.930 . S
H462 C470 0.930 . S
H463 C471 0.930 . S
H464 C474 0.930 . S
H465 C475 0.930 . S
C466 H460 0.930 . S
C466 C467 1.355 . S
C466 C468 1.415 1_455 S
C467 C466 1.355 . S
C467 C469 1.419 . S
C468 C466 1.415 1_655 S
C468 C473 1.425 . S
C468 C475 1.409 . S
C469 H461 0.930 . S
C469 C467 1.419 . S
C469 C470 1.362 . S
C470 H462 0.930 . S
C470 C469 1.362 . S
C470 C473 1.409 1_455 S
C471 H463 0.930 . S
C471 C472 1.355 . S
C471 C473 1.415 . S
C472 C471 1.355 . S
C472 C474 1.419 . S
C473 C468 1.425 . S
C473 C470 1.409 1_655 S
C473 C471 1.415 . S
C474 H464 0.930 . S
C474 C472 1.419 . S
C474 C475 1.362 . S
C475 H465 0.930 . S
C475 C468 1.409 . S
C475 C474 1.362 . S
H476 C482 0.930 . S
H477 C485 0.930 . S
H478 C486 0.930 . S
H479 C487 0.930 . S
H480 C490 0.930 . S
H481 C491 0.930 . S
C482 H476 0.930 . S
C482 C483 1.355 . S
C482 C484 1.415 . S
C483 C482 1.355 . S
C483 C485 1.419 . S
C484 C482 1.415 . S
C484 C489 1.425 . S
C484 C491 1.409 . S
C485 H477 0.930 . S
C485 C483 1.419 . S
C485 C486 1.362 . S
C486 H478 0.930 . S
C486 C485 1.362 . S
C486 C489 1.409 . S
C487 H479 0.930 . S
C487 C488 1.355 . S
C487 C489 1.415 . S
C488 C487 1.355 . S
C488 C490 1.419 . S
C489 C484 1.425 . S
C489 C486 1.409 . S
C489 C487 1.415 . S
C490 H480 0.930 . S
C490 C488 1.419 . S
C490 C491 1.362 . S
C491 H481 0.930 . S
C491 C484 1.409 . S
C491 C490 1.362 . S
H492 C498 0.930 . S
H493 C501 0.930 . S
H494 C502 0.930 . S
H495 C503 0.930 . S
H496 C506 0.930 . S
H497 C507 0.930 . S
C498 H492 0.930 . S
C498 C499 1.355 . S
C498 C500 1.415 . S
C499 C498 1.355 . S
C499 C501 1.419 . S
C500 C498 1.415 . S
C500 C505 1.425 . S
C500 C507 1.409 . S
C501 H493 0.930 . S
C501 C499 1.419 . S
C501 C502 1.362 . S
C502 H494 0.930 . S
C502 C501 1.362 . S
C502 C505 1.409 . S
C503 H495 0.930 . S
C503 C504 1.355 . S
C503 C505 1.415 . S
C504 C503 1.355 . S
C504 C506 1.419 . S
C505 C500 1.425 . S
C505 C502 1.409 . S
C505 C503 1.415 . S
C506 H496 0.930 . S
C506 C504 1.419 . S
C506 C507 1.362 . S
C507 H497 0.930 . S
C507 C500 1.409 . S
C507 C506 1.362 . S
H508 C514 0.930 . S
H509 C517 0.930 . S
H510 C518 0.930 . S
H511 C519 0.930 . S
H512 C522 0.930 . S
H513 C523 0.930 . S
C514 H508 0.930 . S
C514 C515 1.355 . S
C514 C516 1.415 . S
C515 C514 1.355 . S
C515 C517 1.419 . S
C516 C514 1.415 . S
C516 C521 1.425 . S
C516 C523 1.409 . S
C517 H509 0.930 . S
C517 C515 1.419 . S
C517 C518 1.362 . S
C518 H510 0.930 . S
C518 C517 1.362 . S
C518 C521 1.409 . S
C519 H511 0.930 . S
C519 C520 1.355 . S
C519 C521 1.415 . S
C520 C519 1.355 . S
C520 C522 1.419 . S
C521 C516 1.425 . S
C521 C518 1.409 . S
C521 C519 1.415 . S
C522 H512 0.930 . S
C522 C520 1.419 . S
C522 C523 1.362 . S
C523 H513 0.930 . S
C523 C516 1.409 . S
C523 C522 1.362 . S
H524 C530 0.930 . S
H525 C533 0.930 . S
H526 C534 0.930 . S
H527 C535 0.930 . S
H528 C538 0.930 . S
H529 C539 0.930 . S
C530 H524 0.930 . S
C530 C531 1.355 . S
C530 C532 1.415 . S
C531 C530 1.355 . S
C531 C533 1.419 . S
C532 C530 1.415 . S
C532 C537 1.425 . S
C532 C539 1.409 . S
C533 H525 0.930 . S
C533 C531 1.419 . S
C533 C534 1.362 . S
C534 H526 0.930 . S
C534 C533 1.362 . S
C534 C537 1.409 . S
C535 H527 0.930 . S
C535 C536 1.355 . S
C535 C537 1.415 . S
C536 C535 1.355 . S
C536 C538 1.419 . S
C537 C532 1.425 . S
C537 C534 1.409 . S
C537 C535 1.415 . S
C538 H528 0.930 . S
C538 C536 1.419 . S
C538 C539 1.362 . S
C539 H529 0.930 . S
C539 C532 1.409 . S
C539 C538 1.362 . S
H540 C546 0.930 . S
H541 C549 0.930 . S
H542 C550 0.930 . S
H543 C551 0.930 . S
H544 C554 0.930 . S
H545 C555 0.930 . S
C546 H540 0.930 . S
C546 C547 1.355 . S
C546 C548 1.415 . S
C547 C546 1.355 . S
C547 C549 1.419 . S
C548 C546 1.415 . S
C548 C553 1.425 . S
C548 C555 1.409 . S
C549 H541 0.930 . S
C549 C547 1.419 . S
C549 C550 1.362 . S
C550 H542 0.930 . S
C550 C549 1.362 . S
C550 C553 1.409 . S
C551 H543 0.930 . S
C551 C552 1.355 . S
C551 C553 1.415 . S
C552 C551 1.355 . S
C552 C554 1.419 . S
C553 C548 1.425 . S
C553 C550 1.409 . S
C553 C551 1.415 . S
C554 H544 0.930 . S
C554 C552 1.419 . S
C554 C555 1.362 . S
C555 H545 0.930 . S
C555 C548 1.409 . S
C555 C554 1.362 . S
H556 C562 0.930 . S
H557 C565 0.930 . S
H558 C566 0.930 . S
H559 C567 0.930 . S
H560 C570 0.930 . S
H561 C571 0.930 . S
C562 H556 0.930 . S
C562 C563 1.355 . S
C562 C564 1.415 . S
C563 C562 1.355 . S
C563 C565 1.419 . S
C564 C562 1.415 . S
C564 C569 1.425 . S
C564 C571 1.409 . S
C565 H557 0.930 . S
C565 C563 1.419 . S
C565 C566 1.362 . S
C566 H558 0.930 . S
C566 C565 1.362 . S
C566 C569 1.409 . S
C567 H559 0.930 . S
C567 C568 1.355 . S
C567 C569 1.415 . S
C568 C567 1.355 . S
C568 C570 1.419 . S
C569 C564 1.425 . S
C569 C566 1.409 . S
C569 C567 1.415 . S
C570 H560 0.930 . S
C570 C568 1.419 . S
C570 C571 1.362 . S
C571 H561 0.930 . S
C571 C564 1.409 . S
C571 C570 1.362 . S
H572 C578 0.930 . S
H573 C581 0.930 . S
H574 C582 0.930 . S
H575 C583 0.930 . S
H576 C586 0.930 . S
H577 C587 0.930 . S
C578 H572 0.930 . S
C578 C579 1.355 . S
C578 C580 1.415 . S
C579 C578 1.355 . S
C579 C581 1.419 . S
C580 C578 1.415 . S
C580 C585 1.425 . S
C580 C587 1.409 . S
C581 H573 0.930 . S
C581 C579 1.419 . S
C581 C582 1.362 . S
C582 H574 0.930 . S
C582 C581 1.362 . S
C582 C585 1.409 . S
C583 H575 0.930 . S
C583 C584 1.355 . S
C583 C585 1.415 . S
C584 C583 1.355 . S
C584 C586 1.419 . S
C585 C580 1.425 . S
C585 C582 1.409 . S
C585 C583 1.415 . S
C586 H576 0.930 . S
C586 C584 1.419 . S
C586 C587 1.362 . S
C587 H577 0.930 . S
C587 C580 1.409 . S
C587 C586 1.362 . S
H588 C594 0.930 . S
H589 C597 0.930 . S
H590 C598 0.930 . S
H591 C599 0.930 . S
H592 C602 0.930 . S
H593 C603 0.930 . S
C594 H588 0.930 . S
C594 C595 1.355 . S
C594 C596 1.415 . S
C595 C594 1.355 . S
C595 C597 1.419 . S
C596 C594 1.415 . S
C596 C601 1.425 . S
C596 C603 1.409 . S
C597 H589 0.930 . S
C597 C595 1.419 . S
C597 C598 1.362 . S
C598 H590 0.930 . S
C598 C597 1.362 . S
C598 C601 1.409 . S
C599 H591 0.930 . S
C599 C600 1.355 . S
C599 C601 1.415 . S
C600 C599 1.355 . S
C600 C602 1.419 . S
C601 C596 1.425 . S
C601 C598 1.409 . S
C601 C599 1.415 . S
C602 H592 0.930 . S
C602 C600 1.419 . S
C602 C603 1.362 . S
C603 H593 0.930 . S
C603 C596 1.409 . S
C603 C602 1.362 . S
H604 C610 0.930 . S
H605 C613 0.930 . S
H606 C614 0.930 . S
H607 C615 0.930 . S
H608 C618 0.930 . S
H609 C619 0.930 . S
C610 H604 0.930 . S
C610 C611 1.355 . S
C610 C612 1.415 . S
C611 C610 1.355 . S
C611 C613 1.419 . S
C612 C610 1.415 . S
C612 C617 1.425 . S
C612 C619 1.409 . S
C613 H605 0.930 . S
C613 C611 1.419 . S
C613 C614 1.362 . S
C614 H606 0.930 . S
C614 C613 1.362 . S
C614 C617 1.409 . S
C615 H607 0.930 . S
C615 C616 1.355 . S
C615 C617 1.415 . S
C616 C615 1.355 . S
C616 C618 1.419 . S
C617 C612 1.425 . S
C617 C614 1.409 . S
C617 C615 1.415 . S
C618 H608 0.930 . S
C618 C616 1.419 . S
C618 C619 1.362 . S
C619 H609 0.930 . S
C619 C612 1.409 . S
C619 C618 1.362 . S
H620 C626 0.930 . S
H621 C629 0.930 . S
H622 C630 0.930 . S
H623 C631 0.930 . S
H624 C634 0.930 . S
H625 C635 0.930 . S
C626 H620 0.930 . S
C626 C627 1.355 . S
C626 C628 1.415 . S
C627 C626 1.355 . S
C627 C629 1.419 . S
C628 C626 1.415 . S
C628 C633 1.425 . S
C628 C635 1.409 . S
C629 H621 0.930 . S
C629 C627 1.419 . S
C629 C630 1.362 . S
C630 H622 0.930 . S
C630 C629 1.362 . S
C630 C633 1.409 . S
C631 H623 0.930 . S
C631 C632 1.355 . S
C631 C633 1.415 . S
C632 C631 1.355 . S
C632 C634 1.419 . S
C633 C628 1.425 . S
C633 C630 1.409 . S
C633 C631 1.415 . S
C634 H624 0.930 . S
C634 C632 1.419 . S
C634 C635 1.362 . S
C635 H625 0.930 . S
C635 C628 1.409 . S
C635 C634 1.362 . S
H636 C642 0.930 . S
H637 C645 0.930 . S
H638 C646 0.930 . S
H639 C647 0.930 . S
H640 C650 0.930 . S
H641 C651 0.930 . S
C642 H636 0.930 . S
C642 C643 1.355 . S
C642 C644 1.415 . S
C643 C642 1.355 . S
C643 C645 1.419 . S
C644 C642 1.415 . S
C644 C649 1.425 . S
C644 C651 1.409 . S
C645 H637 0.930 . S
C645 C643 1.419 . S
C645 C646 1.362 . S
C646 H638 0.930 . S
C646 C645 1.362 . S
C646 C649 1.409 . S
C647 H639 0.930 . S
C647 C648 1.355 . S
C647 C649 1.415 . S
C648 C647 1.355 . S
C648 C650 1.419 . S
C649 C644 1.425 . S
C649 C646 1.409 . S
C649 C647 1.415 . S
C650 H640 0.930 . S
C650 C648 1.419 . S
C650 C651 1.362 . S
C651 H641 0.930 . S
C651 C644 1.409 . S
C651 C650 1.362 . S
H652 C658 0.930 . S
H653 C661 0.930 . S
H654 C662 0.930 . S
H655 C663 0.930 . S
H656 C666 0.930 . S
H657 C667 0.930 . S
C658 H652 0.930 . S
C658 C659 1.355 . S
C658 C660 1.415 . S
C659 C658 1.355 . S
C659 C661 1.419 . S
C660 C658 1.415 . S
C660 C665 1.425 . S
C660 C667 1.409 . S
C661 H653 0.930 . S
C661 C659 1.419 . S
C661 C662 1.362 . S
C662 H654 0.930 . S
C662 C661 1.362 . S
C662 C665 1.409 . S
C663 H655 0.930 . S
C663 C664 1.355 . S
C663 C665 1.415 . S
C664 C663 1.355 . S
C664 C666 1.419 . S
C665 C660 1.425 . S
C665 C662 1.409 . S
C665 C663 1.415 . S
C666 H656 0.930 . S
C666 C664 1.419 . S
C666 C667 1.362 . S
C667 H657 0.930 . S
C667 C660 1.409 . S
C667 C666 1.362 . S
H668 C674 0.930 . S
H669 C677 0.930 . S
H670 C678 0.930 . S
H671 C679 0.930 . S
H672 C682 0.930 . S
H673 C683 0.930 . S
C674 H668 0.930 . S
C674 C675 1.355 . S
C674 C676 1.415 . S
C675 C674 1.355 . S
C675 C677 1.419 . S
C676 C674 1.415 . S
C676 C681 1.425 . S
C676 C683 1.409 . S
C677 H669 0.930 . S
C677 C675 1.419 . S
C677 C678 1.362 . S
C678 H670 0.930 . S
C678 C677 1.362 . S
C678 C681 1.409 . S
C679 H671 0.930 . S
C679 C680 1.355 . S
C679 C681 1.415 . S
C680 C679 1.355 . S
C680 C682 1.419 . S
C681 C676 1.425 . S
C681 C678 1.409 . S
C681 C679 1.415 . S
C682 H672 0.930 . S
C682 C680 1.419 . S
C682 C683 1.362 . S
C683 H673 0.930 . S
C683 C676 1.409 . S
C683 C682 1.362 . S
H684 C690 0.930 . S
H685 C693 0.930 . S
H686 C694 0.930 . S
H687 C695 0.930 . S
H688 C698 0.930 . S
H689 C699 0.930 . S
C690 H684 0.930 . S
C690 C691 1.355 . S
C690 C692 1.415 . S
C691 C690 1.355 . S
C691 C693 1.419 . S
C692 C690 1.415 . S
C692 C697 1.425 1_554 S
C692 C699 1.409 1_554 S
C693 H685 0.930 . S
C693 C691 1.419 . S
C693 C694 1.362 . S
C694 H686 0.930 . S
C694 C693 1.362 . S
C694 C697 1.409 1_554 S
C695 H687 0.930 . S
C695 C696 1.355 . S
C695 C697 1.415 . S
C696 C695 1.355 . S
C696 C698 1.419 . S
C697 C692 1.425 1_556 S
C697 C694 1.409 1_556 S
C697 C695 1.415 . S
C698 H688 0.930 . S
C698 C696 1.419 . S
C698 C699 1.362 . S
C699 H689 0.930 . S
C699 C692 1.409 1_556 S
C699 C698 1.362 . S
H700 C706 0.930 . S
H701 C709 0.930 . S
H702 C710 0.930 . S
H703 C711 0.930 . S
H704 C714 0.930 . S
H705 C715 0.930 . S
C706 H700 0.930 . S
C706 C707 1.355 1_565 S
C706 C708 1.415 . S
C707 C706 1.355 1_545 S
C707 C709 1.419 . S
C708 C706 1.415 . S
C708 C713 1.425 1_566 S
C708 C715 1.409 1_556 S
C709 H701 0.930 . S
C709 C707 1.419 . S
C709 C710 1.362 . S
C710 H702 0.930 . S
C710 C709 1.362 . S
C710 C713 1.409 1_556 S
C711 H703 0.930 . S
C711 C712 1.355 1_545 S
C711 C713 1.415 . S
C712 C711 1.355 1_565 S
C712 C714 1.419 . S
C713 C708 1.425 1_544 S
C713 C710 1.409 1_554 S
C713 C711 1.415 . S
C714 H704 0.930 . S
C714 C712 1.419 . S
C714 C715 1.362 . S
C715 H705 0.930 . S
C715 C708 1.409 1_554 S
C715 C714 1.362 . S
H716 C722 0.930 . S
H717 C725 0.936 1_455 S
H718 C726 0.930 . S
H719 C727 0.930 . S
H720 C730 0.930 . S
H721 C731 0.930 . S
C722 H716 0.930 . S
C722 C723 1.355 . S
C722 C724 1.415 . S
C723 C722 1.355 . S
C723 C725 1.414 . S
C724 C722 1.415 . S
C724 C729 1.425 1_656 S
C724 C731 1.409 1_556 S
C725 H717 0.936 1_655 S
C725 C723 1.414 . S
C725 C726 1.362 1_655 S
C726 H718 0.930 . S
C726 C725 1.362 1_455 S
C726 C729 1.409 1_556 S
C727 H719 0.930 . S
C727 C728 1.355 . S
C727 C729 1.415 . S
C728 C727 1.355 . S
C728 C730 1.419 1_455 S
C729 C724 1.425 1_454 S
C729 C726 1.409 1_554 S
C729 C727 1.415 . S
C730 H720 0.930 . S
C730 C728 1.419 1_655 S
C730 C731 1.362 . S
C731 H721 0.930 . S
C731 C724 1.409 1_554 S
C731 C730 1.362 . S
H732 C738 0.930 . S
H733 C741 0.930 . S
H734 C742 0.930 . S
H735 C743 0.930 . S
H736 C746 0.930 . S
H737 C747 0.930 . S
C738 H732 0.930 . S
C738 C739 1.355 . S
C738 C740 1.415 . S
C739 C738 1.355 . S
C739 C741 1.419 . S
C740 C738 1.415 . S
C740 C745 1.425 . S
C740 C747 1.409 . S
C741 H733 0.930 . S
C741 C739 1.419 . S
C741 C742 1.362 . S
C742 H734 0.930 . S
C742 C741 1.362 . S
C742 C745 1.409 . S
C743 H735 0.930 . S
C743 C744 1.355 . S
C743 C745 1.415 . S
C744 C743 1.355 . S
C744 C746 1.419 . S
C745 C740 1.425 . S
C745 C742 1.409 . S
C745 C743 1.415 . S
C746 H736 0.930 . S
C746 C744 1.419 . S
C746 C747 1.362 . S
C747 H737 0.930 . S
C747 C740 1.409 . S
C747 C746 1.362 . S
H748 C754 0.930 . S
H749 C757 0.930 . S
H750 C758 0.930 . S
H751 C759 0.930 . S
H752 C762 0.930 . S
H753 C763 0.930 . S
C754 H748 0.930 . S
C754 C755 1.355 . S
C754 C756 1.415 . S
C755 C754 1.355 . S
C755 C757 1.419 . S
C756 C754 1.415 . S
C756 C761 1.425 . S
C756 C763 1.409 . S
C757 H749 0.930 . S
C757 C755 1.419 . S
C757 C758 1.362 . S
C758 H750 0.930 . S
C758 C757 1.362 . S
C758 C761 1.409 . S
C759 H751 0.930 . S
C759 C760 1.355 . S
C759 C761 1.415 . S
C760 C759 1.355 . S
C760 C762 1.419 . S
C761 C756 1.425 . S
C761 C758 1.409 . S
C761 C759 1.415 . S
C762 H752 0.930 . S
C762 C760 1.419 . S
C762 C763 1.362 . S
C763 H753 0.930 . S
C763 C756 1.409 . S
C763 C762 1.362 . S
H764 C770 0.930 . S
H765 C773 0.930 . S
H766 C774 0.930 . S
H767 C775 0.930 . S
H768 C778 0.930 . S
H769 C779 0.930 . S
C770 H764 0.930 . S
C770 C771 1.355 . S
C770 C772 1.415 . S
C771 C770 1.355 . S
C771 C773 1.419 . S
C772 C770 1.415 . S
C772 C777 1.425 . S
C772 C779 1.409 . S
C773 H765 0.930 . S
C773 C771 1.419 . S
C773 C774 1.362 . S
C774 H766 0.930 . S
C774 C773 1.362 . S
C774 C777 1.409 . S
C775 H767 0.930 . S
C775 C776 1.355 . S
C775 C777 1.415 . S
C776 C775 1.355 . S
C776 C778 1.419 . S
C777 C772 1.425 . S
C777 C774 1.409 . S
C777 C775 1.415 . S
C778 H768 0.930 . S
C778 C776 1.419 . S
C778 C779 1.362 . S
C779 H769 0.930 . S
C779 C772 1.409 . S
C779 C778 1.362 . S
H780 C786 0.930 . S
H781 C789 0.930 . S
H782 C790 0.930 . S
H783 C791 0.930 . S
H784 C794 0.930 . S
H785 C795 0.930 . S
C786 H780 0.930 . S
C786 C787 1.355 . S
C786 C788 1.415 . S
C787 C786 1.355 . S
C787 C789 1.419 . S
C788 C786 1.415 . S
C788 C793 1.425 . S
C788 C795 1.409 . S
C789 H781 0.930 . S
C789 C787 1.419 . S
C789 C790 1.362 . S
C790 H782 0.930 . S
C790 C789 1.362 . S
C790 C793 1.409 . S
C791 H783 0.930 . S
C791 C792 1.355 . S
C791 C793 1.415 . S
C792 C791 1.355 . S
C792 C794 1.419 . S
C793 C788 1.425 . S
C793 C790 1.409 . S
C793 C791 1.415 . S
C794 H784 0.930 . S
C794 C792 1.419 . S
C794 C795 1.362 . S
C795 H785 0.930 . S
C795 C788 1.409 . S
C795 C794 1.362 . S
H796 C802 0.930 . S
H797 C805 0.930 . S
H798 C806 0.930 . S
H799 C807 0.930 . S
H800 C810 0.930 . S
H801 C811 0.930 . S
C802 H796 0.930 . S
C802 C803 1.355 . S
C802 C804 1.415 . S
C803 C802 1.355 . S
C803 C805 1.419 . S
C804 C802 1.415 . S
C804 C809 1.425 . S
C804 C811 1.409 . S
C805 H797 0.930 . S
C805 C803 1.419 . S
C805 C806 1.362 . S
C806 H798 0.930 . S
C806 C805 1.362 . S
C806 C809 1.409 . S
C807 H799 0.930 . S
C807 C808 1.355 . S
C807 C809 1.415 . S
C808 C807 1.355 . S
C808 C810 1.419 . S
C809 C804 1.425 . S
C809 C806 1.409 . S
C809 C807 1.415 . S
C810 H800 0.930 . S
C810 C808 1.419 . S
C810 C811 1.362 . S
C811 H801 0.930 . S
C811 C804 1.409 . S
C811 C810 1.362 . S
H812 C818 0.930 . S
H813 C821 0.930 . S
H814 C822 0.930 . S
H815 C823 0.930 . S
H816 C826 0.930 . S
H817 C827 0.930 . S
C818 H812 0.930 . S
C818 C819 1.355 . S
C818 C820 1.415 . S
C819 C818 1.355 . S
C819 C821 1.419 . S
C820 C818 1.415 . S
C820 C825 1.425 . S
C820 C827 1.409 . S
C821 H813 0.930 . S
C821 C819 1.419 . S
C821 C822 1.362 . S
C822 H814 0.930 . S
C822 C821 1.362 . S
C822 C825 1.409 . S
C823 H815 0.930 . S
C823 C824 1.355 . S
C823 C825 1.415 . S
C824 C823 1.355 . S
C824 C826 1.419 . S
C825 C820 1.425 . S
C825 C822 1.409 . S
C825 C823 1.415 . S
C826 H816 0.930 . S
C826 C824 1.419 . S
C826 C827 1.362 . S
C827 H817 0.930 . S
C827 C820 1.409 . S
C827 C826 1.362 . S
C259 C151 1.165 . S
C264 C11 1.100 . S
C275 C25 1.158 . S
C280 C165 1.092 . S
C291 C137 1.092 . S
C296 C39 1.160 . S
C307 C207 1.158 . S
C312 C53 1.092 . S
C323 C67 1.140 . S
C328 C179 1.142 . S
C339 C193 1.146 . S
C344 C81 1.135 . S
C355 C95 1.149 . S
C360 C235 1.132 . S
C371 C249 1.092 . S
C376 C109 1.157 . S
C387 C123 1.126 . S
C392 C221 1.110 . S
C403 C8 0.991 . S
C408 C21 1.072 . S
C419 C22 0.973 . S
C424 C35 1.091 . S
C435 C7 1.099 . S
C440 C36 0.952 . S
C451 C77 1.051 . S
C456 C50 1.041 . S
C467 C49 1.076 . S
C472 C64 0.982 . S
C483 C78 0.980 . S
C488 C63 1.076 . S
C499 C92 1.073 . S
C504 C105 1.039 . S
C515 C106 1.042 . S
C520 C119 1.050 . S
C531 C91 1.077 . S
C536 C120 1.008 . S
C547 C161 1.040 . S
C552 C134 1.074 . S
C563 C133 1.107 . S
C568 C148 0.914 . S
C579 C147 1.108 . S
C584 C162 0.913 . S
C595 C189 1.102 . S
C600 C176 0.924 . S
C611 C203 1.106 . S
C616 C190 0.915 . S
C627 C175 1.041 . S
C632 C204 1.075 . S
C643 C218 1.003 . S
C648 C245 1.079 . S
C659 C232 0.988 . S
C664 C217 1.085 . S
C675 C246 1.074 . S
C680 C231 1.040 . S
C691 C13 1.343 . S
C696 C55 1.394 . S
C707 C69 1.341 . S
C712 C27 1.395 . S
C723 C83 1.297 . S
C728 C41 1.421 . S
C739 C139 1.390 . S
C744 C97 1.346 . S
C755 C153 1.309 . S
C760 C111 1.391 . S
C771 C125 1.419 . S
C776 C167 1.293 . S
C787 C223 1.372 . S
C792 C181 1.325 . S
C803 C237 1.344 . S
C808 C195 1.392 . S
C819 C251 1.401 . S
C824 C209 1.302 . S
