# Generated by pormake.
# Topology ukv, (4)-cn, num edge types: 1
# Building blocks:
#     Node 0, Type 0, BuildingBlock: QUQFOY_clean_sbu_3, # of connection points: 4
#     Node 1, Type 0, BuildingBlock: QUQFOY_clean_sbu_3, # of connection points: 4
#     Node 2, Type 0, BuildingBlock: QUQFOY_clean_sbu_3, # of connection points: 4
#     Node 3, Type 0, BuildingBlock: QUQFOY_clean_sbu_3, # of connection points: 4
#     Node 4, Type 0, BuildingBlock: QUQFOY_clean_sbu_3, # of connection points: 4
#     Node 5, Type 0, BuildingBlock: QUQFOY_clean_sbu_3, # of connection points: 4
#     Node 6, Type 0, BuildingBlock: QUQFOY_clean_sbu_3, # of connection points: 4
#     Node 7, Type 0, BuildingBlock: QUQFOY_clean_sbu_3, # of connection points: 4
#     Node 8, Type 0, BuildingBlock: QUQFOY_clean_sbu_3, # of connection points: 4
#     Node 9, Type 0, BuildingBlock: QUQFOY_clean_sbu_3, # of connection points: 4
#     Node 10, Type 0, BuildingBlock: QUQFOY_clean_sbu_3, # of connection points: 4
#     Node 11, Type 0, BuildingBlock: QUQFOY_clean_sbu_3, # of connection points: 4
#     Node 12, Type 0, BuildingBlock: QUQFOY_clean_sbu_3, # of connection points: 4
#     Node 13, Type 0, BuildingBlock: QUQFOY_clean_sbu_3, # of connection points: 4
#     Node 14, Type 0, BuildingBlock: QUQFOY_clean_sbu_3, # of connection points: 4
#     Node 15, Type 0, BuildingBlock: QUQFOY_clean_sbu_3, # of connection points: 4
#     Node 16, Type 0, BuildingBlock: QUQFOY_clean_sbu_3, # of connection points: 4
#     Node 17, Type 0, BuildingBlock: QUQFOY_clean_sbu_3, # of connection points: 4
#     Node 18, Type 0, BuildingBlock: QUQFOY_clean_sbu_3, # of connection points: 4
#     Node 19, Type 0, BuildingBlock: QUQFOY_clean_sbu_3, # of connection points: 4
#     Node 20, Type 0, BuildingBlock: QUQFOY_clean_sbu_3, # of connection points: 4
#     Node 21, Type 0, BuildingBlock: QUQFOY_clean_sbu_3, # of connection points: 4
#     Node 22, Type 0, BuildingBlock: QUQFOY_clean_sbu_3, # of connection points: 4
#     Node 23, Type 0, BuildingBlock: QUQFOY_clean_sbu_3, # of connection points: 4
#     Node 24, Type 0, BuildingBlock: QUQFOY_clean_sbu_3, # of connection points: 4
#     Node 25, Type 0, BuildingBlock: QUQFOY_clean_sbu_3, # of connection points: 4
#     Node 26, Type 0, BuildingBlock: QUQFOY_clean_sbu_3, # of connection points: 4
#     Node 27, Type 0, BuildingBlock: QUQFOY_clean_sbu_3, # of connection points: 4
#     Node 28, Type 0, BuildingBlock: QUQFOY_clean_sbu_3, # of connection points: 4
#     Node 29, Type 0, BuildingBlock: QUQFOY_clean_sbu_3, # of connection points: 4
#     Node 30, Type 0, BuildingBlock: QUQFOY_clean_sbu_3, # of connection points: 4
#     Node 31, Type 0, BuildingBlock: QUQFOY_clean_sbu_3, # of connection points: 4
#     Node 32, Type 0, BuildingBlock: QUQFOY_clean_sbu_3, # of connection points: 4
#     Node 33, Type 0, BuildingBlock: QUQFOY_clean_sbu_3, # of connection points: 4
#     Node 34, Type 0, BuildingBlock: QUQFOY_clean_sbu_3, # of connection points: 4
#     Node 35, Type 0, BuildingBlock: QUQFOY_clean_sbu_3, # of connection points: 4
#     Edge 36, Type (0, 0), None
#     Edge 37, Type (0, 0), None
#     Edge 38, Type (0, 0), None
#     Edge 39, Type (0, 0), None
#     Edge 40, Type (0, 0), None
#     Edge 41, Type (0, 0), None
#     Edge 42, Type (0, 0), None
#     Edge 43, Type (0, 0), None
#     Edge 44, Type (0, 0), None
#     Edge 45, Type (0, 0), None
#     Edge 46, Type (0, 0), None
#     Edge 47, Type (0, 0), None
#     Edge 48, Type (0, 0), None
#     Edge 49, Type (0, 0), None
#     Edge 50, Type (0, 0), None
#     Edge 51, Type (0, 0), None
#     Edge 52, Type (0, 0), None
#     Edge 53, Type (0, 0), None
#     Edge 54, Type (0, 0), None
#     Edge 55, Type (0, 0), None
#     Edge 56, Type (0, 0), None
#     Edge 57, Type (0, 0), None
#     Edge 58, Type (0, 0), None
#     Edge 59, Type (0, 0), None
#     Edge 60, Type (0, 0), None
#     Edge 61, Type (0, 0), None
#     Edge 62, Type (0, 0), None
#     Edge 63, Type (0, 0), None
#     Edge 64, Type (0, 0), None
#     Edge 65, Type (0, 0), None
#     Edge 66, Type (0, 0), None
#     Edge 67, Type (0, 0), None
#     Edge 68, Type (0, 0), None
#     Edge 69, Type (0, 0), None
#     Edge 70, Type (0, 0), None
#     Edge 71, Type (0, 0), None
#     Edge 72, Type (0, 0), None
#     Edge 73, Type (0, 0), None
#     Edge 74, Type (0, 0), None
#     Edge 75, Type (0, 0), None
#     Edge 76, Type (0, 0), None
#     Edge 77, Type (0, 0), None
#     Edge 78, Type (0, 0), None
#     Edge 79, Type (0, 0), None
#     Edge 80, Type (0, 0), None
#     Edge 81, Type (0, 0), None
#     Edge 82, Type (0, 0), None
#     Edge 83, Type (0, 0), None
#     Edge 84, Type (0, 0), None
#     Edge 85, Type (0, 0), None
#     Edge 86, Type (0, 0), None
#     Edge 87, Type (0, 0), None
#     Edge 88, Type (0, 0), None
#     Edge 89, Type (0, 0), None
#     Edge 90, Type (0, 0), None
#     Edge 91, Type (0, 0), None
#     Edge 92, Type (0, 0), None
#     Edge 93, Type (0, 0), None
#     Edge 94, Type (0, 0), None
#     Edge 95, Type (0, 0), None
#     Edge 96, Type (0, 0), None
#     Edge 97, Type (0, 0), None
#     Edge 98, Type (0, 0), None
#     Edge 99, Type (0, 0), None
#     Edge 100, Type (0, 0), None
#     Edge 101, Type (0, 0), None
#     Edge 102, Type (0, 0), None
#     Edge 103, Type (0, 0), None
#     Edge 104, Type (0, 0), None
#     Edge 105, Type (0, 0), None
#     Edge 106, Type (0, 0), None
#     Edge 107, Type (0, 0), None
# Relax obj value: 0.210
# Max RMSD: 0.442
# Mean RMSD: 0.209
data_MOF--net-ukv--node1-QUQFOY_clean_sbu_3--edge1-none
_symmetry_space_group_name_H-M    P1
_symmetry_Int_Tables_number       1
_symmetry_cell_setting            triclinic
loop_
_symmetry_equiv_pos_as_xyz
'x, y, z'
_cell_length_a     41.825637
_cell_length_b     42.265268
_cell_length_c     10.54859
_cell_angle_alpha  92.984991
_cell_angle_beta   87.13213
_cell_angle_gamma 127.22192
loop_
_atom_site_label
_atom_site_type_symbol
_atom_site_fract_x
_atom_site_fract_y
_atom_site_fract_z
_atom_type_partial_charge
C0 C 0.32572 0.11229 0.90383 0.0
O1 O 0.34165 0.13521 0.00078 0.0
Cd2 Cd 0.29426 0.12959 0.15427 0.0
O3 O 0.29058 0.07951 0.91239 0.0
Cd4 Cd 0.24059 0.03831 0.08561 0.0
C5 C 0.21623 0.08656 0.93987 0.0
O6 O 0.26382 0.07426 0.2836 0.0
O7 O 0.19977 0.03892 0.25115 0.0
O8 O 0.26614 0.00169 0.1015 0.0
C9 C 0.22886 0.06121 0.32507 0.0
O10 O 0.24417 0.11592 0.00564 0.0
C11 C 0.23214 0.96863 0.12092 0.0
O12 O 0.20667 0.05176 0.94726 0.0
O13 O 0.20086 0.96671 0.10953 0.0
C14 C 0.9039 0.29367 0.9312 0.0
O15 O 0.86901 0.27898 0.89442 0.0
Cd16 Cd 0.81561 0.26652 0.054 0.0
O17 O 0.90897 0.30064 0.04868 0.0
Cd18 Cd 0.84421 0.24001 0.11046 0.0
C19 C 0.77265 0.1953 0.88479 0.0
O20 O 0.79762 0.23655 0.26957 0.0
O21 O 0.8 0.18654 0.22625 0.0
O22 O 0.89883 0.26164 0.23869 0.0
C23 C 0.7861 0.20146 0.29336 0.0
O24 O 0.75874 0.21233 0.93813 0.0
C25 C 0.89781 0.23134 0.21484 0.0
O26 O 0.80629 0.20454 0.91791 0.0
O27 O 0.87179 0.20468 0.13822 0.0
C28 C 0.83056 0.76587 0.96139 0.0
O29 O 0.81306 0.74397 0.05719 0.0
Cd30 Cd 0.85863 0.74674 0.20011 0.0
O31 O 0.86624 0.79782 -0.0294 0.0
Cd32 Cd 0.90942 0.83925 0.15358 0.0
C33 C 0.93289 0.78897 -0.02978 0.0
O34 O 0.89353 0.80329 0.33414 0.0
O35 O 0.95768 0.84861 0.30357 0.0
O36 O 0.85137 0.82858 0.2206 0.0
C37 C 0.92917 0.81963 0.36789 0.0
O38 O 0.90821 0.75957 0.03986 0.0
C39 C 0.86533 0.86496 0.22831 0.0
O40 O 0.93895 0.82236 -0.01354 0.0
O41 O 0.90206 0.89173 0.19454 0.0
C42 C 0.05835 0.31138 0.51312 0.0
O43 O 0.07902 0.33018 0.41554 0.0
Cd44 Cd 0.07234 0.27959 0.27745 0.0
O45 O 0.02925 0.27467 0.50092 0.0
Cd46 Cd -0.00644 0.23095 0.3103 0.0
C47 C 0.0278 0.19753 0.46623 0.0
O48 O 0.02901 0.25158 0.10502 0.0
O49 O -0.00338 0.18969 0.15481 0.0
O50 O 0.96261 0.26211 0.28942 0.0
C51 C 0.0157 0.21622 0.07205 0.0
O52 O 0.05859 0.22772 0.41291 0.0
C53 C 0.92873 0.22995 0.26204 0.0
O54 O -0.00707 0.18783 0.45051 0.0
O55 O 0.92398 0.19738 0.26811 0.0
C56 C 0.69954 0.79827 0.49413 0.0
O57 O 0.67646 0.78429 0.40008 0.0
Cd58 Cd 0.68879 0.83622 0.26997 0.0
O59 O 0.73336 0.83251 0.48774 0.0
Cd60 Cd 0.77741 0.88155 0.31875 0.0
C61 C 0.73657 0.91346 0.49541 0.0
O62 O 0.74307 0.86331 0.12321 0.0
O63 O 0.78467 0.92657 0.16875 0.0
O64 O 0.80027 0.84461 0.26812 0.0
C65 C 0.76034 0.89899 0.09134 0.0
O66 O 0.70567 0.88722 0.4322 0.0
C67 C 0.83745 0.8734 0.26726 0.0
O68 O 0.77005 0.91928 0.4763 0.0
O69 O 0.84824 0.90797 0.30051 0.0
C70 C 0.28246 0.94932 0.51492 0.0
O71 O 0.27392 0.91656 0.54739 0.0
Cd72 Cd 0.27746 0.873 0.38084 0.0
O73 O 0.29012 0.95627 0.39886 0.0
Cd74 Cd 0.24089 0.88922 0.31179 0.0
C75 C 0.20469 0.81721 0.53135 0.0
O76 O 0.24749 0.84763 0.16508 0.0
O77 O 0.18903 0.8357 0.20904 0.0
O78 O 0.26151 0.93743 0.16172 0.0
C79 C 0.2098 0.82795 0.14315 0.0
O80 O 0.22967 0.81182 0.48539 0.0
C81 C 0.23065 0.9366 0.1736 0.0
O82 O 0.20636 0.84684 0.49808 0.0
O83 O 0.20247 0.91192 0.25012 0.0
C84 C 0.63462 0.88114 0.0257 0.0
O85 O 0.61884 0.85815 0.92879 0.0
Cd86 Cd 0.66633 0.86401 0.77528 0.0
O87 O 0.66967 0.91404 0.01722 0.0
Cd88 Cd 0.71966 0.95528 0.8442 0.0
C89 C 0.7443 0.90721 -0.01021 0.0
O90 O 0.69657 0.91935 0.64608 0.0
O91 O 0.76062 0.95482 0.67882 0.0
O92 O 0.69434 0.9921 0.82732 0.0
C93 C 0.73158 0.93251 0.60477 0.0
O94 O 0.71647 0.8778 0.92391 0.0
C95 C 0.72846 0.02512 0.80868 0.0
O96 O 0.75365 0.94193 -0.0175 0.0
O97 O 0.7596 0.02688 0.82125 0.0
C98 C 0.05823 0.70089 -0.00742 0.0
O99 O 0.09292 0.71489 0.02948 0.0
Cd100 Cd 0.14637 0.72753 0.87003 0.0
O101 O 0.05325 0.69436 0.87493 0.0
Cd102 Cd 0.11798 0.75501 0.81459 0.0
C103 C 0.18935 0.79872 0.0402 0.0
O104 O 0.16396 0.75757 0.65492 0.0
O105 O 0.16341 0.80857 0.70124 0.0
O106 O 0.06363 0.73443 0.68663 0.0
C107 C 0.17645 0.79308 0.63268 0.0
O108 O 0.20325 0.78182 -0.0143 0.0
C109 C 0.06516 0.76499 0.711 0.0
O110 O 0.15567 0.78954 0.00793 0.0
O111 O 0.09135 0.79135 0.78779 0.0
C112 C 0.13321 0.23205 -0.03498 0.0
O113 O 0.15066 0.25401 0.86932 0.0
Cd114 Cd 0.10495 0.25096 0.72639 0.0
O115 O 0.09757 0.20005 0.95575 0.0
Cd116 Cd 0.05414 0.15844 0.77348 0.0
C117 C 0.03067 0.20863 0.95655 0.0
O118 O 0.07026 0.19437 0.59255 0.0
O119 O 0.00607 0.14916 0.62308 0.0
O120 O 0.11164 0.16784 0.70748 0.0
C121 C 0.03464 0.17805 0.55864 0.0
O122 O 0.05536 0.23802 0.88688 0.0
C123 C 0.09705 0.13129 0.70052 0.0
O124 O 0.02453 0.17521 0.94039 0.0
O125 O 0.0602 0.10501 0.73422 0.0
C126 C 0.90536 0.68628 0.41381 0.0
O127 O 0.88477 0.66745 0.51145 0.0
Cd128 Cd 0.89142 0.71809 0.64918 0.0
O129 O 0.93437 0.72303 0.42599 0.0
Cd130 Cd 0.97018 0.76675 0.61654 0.0
C131 C 0.93605 0.80019 0.46028 0.0
O132 O 0.93466 0.74611 0.82177 0.0
O133 O 0.96718 0.80804 0.7723 0.0
O134 O 0.00046 0.73498 0.63714 0.0
C135 C 0.94796 0.78145 0.85484 0.0
O136 O 0.90527 0.76998 0.51357 0.0
C137 C 0.03453 0.76692 0.66439 0.0
O138 O 0.97094 0.80993 0.47611 0.0
O139 O 0.03971 0.79971 0.65854 0.0
C140 C 0.26155 0.19569 0.4354 0.0
O141 O 0.28459 0.20966 0.52956 0.0
Cd142 Cd 0.27204 0.15762 0.65968 0.0
O143 O 0.2277 0.16148 0.44177 0.0
Cd144 Cd 0.1835 0.11264 0.61103 0.0
C145 C 0.22399 0.08037 0.43438 0.0
O146 O 0.21779 0.13065 0.80648 0.0
O147 O 0.17579 0.0674 0.76117 0.0
O148 O 0.16169 0.15045 0.66161 0.0
C149 C 0.20031 0.09493 0.83837 0.0
O150 O 0.25494 0.10654 0.49751 0.0
C151 C 0.12438 0.12208 0.66232 0.0
O152 O 0.19059 0.07472 0.45349 0.0
O153 O 0.11299 0.08729 0.62924 0.0
C154 C 0.68166 0.04477 0.40812 0.0
O155 O 0.69004 0.07751 0.37617 0.0
Cd156 Cd 0.68514 0.1203 0.5428 0.0
O157 O 0.67378 0.03753 0.52391 0.0
Cd158 Cd 0.72115 0.10474 0.61344 0.0
C159 C 0.7577 0.17703 0.39411 0.0
O160 O 0.7147 0.14649 0.75903 0.0
O161 O 0.77304 0.15787 0.71746 0.0
O162 O 0.69946 0.0565 0.76462 0.0
C163 C 0.75229 0.16589 0.78219 0.0
O164 O 0.73209 0.18174 0.4384 0.0
C165 C 0.73032 0.05723 0.75491 0.0
O166 O 0.75649 0.14774 0.42825 0.0
O167 O 0.75892 0.08191 0.67943 0.0
C168 C -0.01641 0.43569 0.25913 0.0
O169 O 0.00291 0.45615 0.35697 0.0
Cd170 Cd 0.96167 0.46197 0.50843 0.0
O171 O 0.94571 0.40906 0.26749 0.0
Cd172 Cd 0.8936 0.37396 0.44186 0.0
C173 C 0.88559 0.43399 0.29803 0.0
O174 O 0.9215 0.40758 0.64169 0.0
O175 O 0.8596 0.38393 0.61267 0.0
O176 O 0.91235 0.33177 0.44679 0.0
C177 C 0.88947 0.40181 0.6851 0.0
O178 O 0.91686 0.45951 0.36133 0.0
C179 C 0.87727 0.30013 0.46672 0.0
O180 O 0.86774 0.39676 0.30575 0.0
O181 O 0.84778 0.30159 0.46291 0.0
C182 C 0.59053 0.55691 0.27811 0.0
O183 O 0.59286 0.58804 0.26116 0.0
Cd184 Cd 0.55191 0.60817 0.39372 0.0
O185 O 0.56781 0.53444 0.36736 0.0
Cd186 Cd 0.55085 0.57548 0.45441 0.0
C187 C 0.48806 0.55767 0.22511 0.0
O188 O 0.51281 0.58471 0.60055 0.0
O189 O 0.50393 0.52806 0.59928 0.0
O190 O 0.61778 0.64004 0.49289 0.0
C191 C 0.49583 0.55068 0.64739 0.0
O192 O 0.49348 0.58872 0.27093 0.0
C193 C 0.62634 0.62249 0.56325 0.0
O194 O 0.51033 0.54905 0.26077 0.0
O195 O 0.60061 0.58537 0.57706 0.0
C196 C 0.43523 0.02548 0.30399 0.0
O197 O 0.42468 0.00303 0.3974 0.0
Cd198 Cd 0.4792 0.02552 0.53631 0.0
O199 O 0.46501 0.06213 0.3134 0.0
Cd200 Cd 0.50939 0.11255 0.48074 0.0
C201 C 0.55279 0.08205 0.30466 0.0
O202 O 0.49693 0.07973 0.67171 0.0
O203 O 0.55886 0.13067 0.63707 0.0
O204 O 0.45957 0.1204 0.52359 0.0
C205 C 0.53308 0.10219 0.7079 0.0
O206 O 0.53147 0.05112 0.37131 0.0
C207 C 0.48206 0.15804 0.51946 0.0
O208 O 0.55166 0.11144 0.3223 0.0
O209 O 0.51918 0.17616 0.49033 0.0
C210 C 0.81508 0.74837 0.83417 0.0
O211 O 0.8397 0.76158 0.7405 0.0
Cd212 Cd 0.82919 0.7116 0.58931 0.0
O213 O 0.78082 0.71477 0.82419 0.0
Cd214 Cd 0.74306 0.66526 0.64778 0.0
C215 C 0.78492 0.63286 0.78956 0.0
O216 O 0.77689 0.68292 0.44221 0.0
O217 O 0.74362 0.62125 0.49338 0.0
O218 O 0.69568 0.6766 0.58304 0.0
C219 C 0.76299 0.64738 0.40953 0.0
O220 O 0.81578 0.66016 0.72752 0.0
C221 C 0.66602 0.64167 0.61318 0.0
O222 O 0.7514 0.62688 0.78247 0.0
O223 O 0.67281 0.62091 0.67204 0.0
C224 C 0.34285 0.12892 0.7778 0.0
O225 O 0.32012 0.11409 0.68273 0.0
Cd226 Cd 0.33169 0.1654 0.55041 0.0
O227 O 0.37653 0.16317 0.77079 0.0
Cd228 Cd 0.42089 0.2077 0.59515 0.0
C229 C 0.38091 0.24184 0.7761 0.0
O230 O 0.38578 0.19153 0.40418 0.0
O231 O 0.43251 0.25455 0.44109 0.0
O232 O 0.42583 0.15709 0.54397 0.0
C233 C 0.40488 0.22724 0.3698 0.0
O234 O 0.34981 0.21685 0.71174 0.0
C235 C 0.46386 0.17809 0.5455 0.0
O236 O 0.41355 0.24581 0.75716 0.0
O237 O 0.48386 0.21512 0.57532 0.0
C238 C 0.92498 0.27998 0.85967 0.0
O239 O 0.91703 0.24748 0.89221 0.0
Cd240 Cd 0.92097 0.20414 0.72582 0.0
O241 O 0.93218 0.28682 0.74344 0.0
Cd242 Cd 0.88368 0.21964 0.65574 0.0
C243 C 0.8481 0.14811 0.87566 0.0
O244 O 0.89028 0.17791 0.51117 0.0
O245 O 0.83166 0.16581 0.55466 0.0
O246 O 0.90321 0.2654 0.49953 0.0
C247 C 0.85258 0.15818 0.48898 0.0
O248 O 0.87362 0.14321 0.83167 0.0
C249 C 0.87351 0.26643 0.51527 0.0
O250 O 0.84931 0.17734 0.84103 0.0
O251 O 0.84592 0.24323 0.59581 0.0
C252 C 0.27866 0.21295 0.30964 0.0
O253 O 0.26236 0.19053 0.21198 0.0
Cd254 Cd 0.30997 0.19554 0.06036 0.0
O255 O 0.31435 0.24508 0.30142 0.0
Cd256 Cd 0.36492 0.28536 0.12669 0.0
C257 C 0.38865 0.2364 0.27134 0.0
O258 O 0.34198 0.25008 0.9254 0.0
O259 O 0.40529 0.28222 0.96265 0.0
O260 O 0.34637 0.32936 0.11018 0.0
C261 C 0.37664 0.26142 0.88627 0.0
O262 O 0.3599 0.20742 0.20676 0.0
C263 C 0.3825 0.36038 0.10092 0.0
O264 O 0.39901 0.27151 0.26452 0.0
O265 O 0.41022 0.35683 0.11398 0.0
C266 C 0.70241 0.03069 0.33707 0.0
O267 O 0.73716 0.04515 0.37444 0.0
Cd268 Cd 0.79041 0.05792 0.21501 0.0
O269 O 0.6976 0.02414 0.21944 0.0
Cd270 Cd 0.76117 0.08562 0.15712 0.0
C271 C 0.83242 0.12918 0.38534 0.0
O272 O 0.80878 0.08909 0.00195 0.0
O273 O 0.80429 0.13805 0.03876 0.0
O274 O 0.707 0.06118 0.02687 0.0
C275 C 0.81942 0.12369 -0.02439 0.0
O276 O 0.84621 0.1119 0.33309 0.0
C277 C 0.70535 0.09002 0.04585 0.0
O278 O 0.79919 0.12061 0.35032 0.0
O279 O 0.73021 0.11816 0.12175 0.0
C280 C 0.88854 0.66981 0.28741 0.0
O281 O 0.90324 0.69303 0.19447 0.0
Cd282 Cd 0.85316 0.68351 0.06023 0.0
O283 O 0.85411 0.63625 0.27923 0.0
Cd284 Cd 0.80467 0.59243 0.11179 0.0
C285 C 0.77841 0.63938 0.29524 0.0
O286 O 0.82523 0.6281 0.92236 0.0
O287 O 0.76078 0.58719 0.95524 0.0
O288 O 0.84745 0.57592 0.06047 0.0
C289 C 0.79017 0.6129 0.88513 0.0
O290 O 0.80376 0.66869 0.2261 0.0
C291 C 0.82103 0.53847 0.05867 0.0
O292 O 0.77139 0.60555 0.27806 0.0
O293 O 0.78482 0.52435 0.08994 0.0
C294 C 0.54236 0.9889 0.75239 0.0
O295 O 0.52166 0.96913 0.84881 0.0
Cd296 Cd 0.51601 0.01077 -0.00231 0.0
O297 O 0.56844 0.02641 0.76415 0.0
Cd298 Cd 0.59997 0.07349 0.95163 0.0
C299 C 0.54572 0.08849 0.80331 0.0
O300 O 0.56522 0.04734 0.15255 0.0
O301 O 0.59004 0.10847 0.11385 0.0
O302 O 0.63981 0.05241 -0.028 0.0
C303 C 0.57276 0.08025 0.19109 0.0
O304 O 0.51855 0.05691 0.86073 0.0
C305 C 0.67168 0.08676 -0.00278 0.0
O306 O 0.58284 0.1044 0.81463 0.0
O307 O 0.67161 0.11666 -0.01169 0.0
C308 C 0.95637 0.54363 0.79497 0.0
O309 O 0.97842 0.55255 0.8892 0.0
Cd310 Cd 0.95266 0.49717 0.0246 0.0
O311 O 0.91888 0.51537 0.80242 0.0
Cd312 Cd 0.86765 0.47465 -0.02699 0.0
C313 C 0.89085 0.42466 0.79584 0.0
O314 O 0.90034 0.48403 0.16285 0.0
O315 O 0.84524 0.42462 0.1288 0.0
O316 O 0.87156 0.53081 0.02411 0.0
C317 C 0.87489 0.44859 0.19947 0.0
O318 O 0.92272 0.44442 0.86051 0.0
C319 C 0.83413 0.51406 0.02532 0.0
O320 O 0.86327 0.42898 0.81424 0.0
O321 O 0.81027 0.47718 -0.00636 0.0
C322 C 0.3552 0.45176 0.74603 0.0
O323 O 0.36953 0.48793 0.74019 0.0
Cd324 Cd 0.40031 0.53192 0.92995 0.0
O325 O 0.34667 0.43778 0.85567 0.0
Cd326 Cd 0.40662 0.46739 -0.02933 0.0
C327 C 0.46683 0.53708 0.75142 0.0
O328 O 0.42316 0.52149 0.12529 0.0
O329 O 0.46811 0.514 0.05327 0.0
O330 O 0.36852 0.40706 0.09131 0.0
C331 C 0.45915 0.53214 0.12704 0.0
O332 O 0.46091 0.56069 0.8067 0.0
C333 C 0.39175 0.3978 0.06246 0.0
O334 O 0.44727 0.50102 0.78337 0.0
O335 O 0.4218 0.42077 -0.00991 0.0
C336 C 0.68247 0.78099 0.61988 0.0
O337 O 0.69877 0.80338 0.71758 0.0
Cd338 Cd 0.651 0.79824 0.8688 0.0
O339 O 0.64677 0.74887 0.62811 0.0
Cd340 Cd 0.5963 0.70858 0.80297 0.0
C341 C 0.57222 0.75715 0.65802 0.0
O342 O 0.6191 0.74386 0.00437 0.0
O343 O 0.5558 0.71162 -0.03316 0.0
O344 O 0.61531 0.66495 0.81938 0.0
C345 C 0.5844 0.73244 0.04337 0.0
O346 O 0.60098 0.78617 0.72246 0.0
C347 C 0.57926 0.63379 0.82879 0.0
O348 O 0.56192 0.72206 0.66494 0.0
O349 O 0.55137 0.63712 0.81607 0.0
C350 C 0.26156 0.96333 0.58548 0.0
O351 O 0.22675 0.94874 0.54837 0.0
Cd352 Cd 0.17409 0.93743 0.7082 0.0
O353 O 0.26657 0.97034 0.70288 0.0
Cd354 Cd 0.20229 0.90973 0.7677 0.0
C355 C 0.1309 0.86609 0.53954 0.0
O356 O 0.15452 0.9062 0.9217 0.0
O357 O 0.15939 0.85742 0.8872 0.0
O358 O 0.25601 0.93438 0.9002 0.0
C359 C 0.14405 0.87174 0.94925 0.0
O360 O 0.11776 0.88413 0.59032 0.0
C361 C 0.25786 0.90562 0.88184 0.0
O362 O 0.1638 0.87407 0.57543 0.0
O363 O 0.23327 0.87745 0.80548 0.0
C364 C 0.07509 0.32786 0.63959 0.0
O365 O 0.06032 0.30467 0.7326 0.0
Cd366 Cd 0.11034 0.31409 0.8671 0.0
O367 O 0.10953 0.3614 0.64784 0.0
Cd368 Cd 0.15871 0.40522 0.8158 0.0
C369 C 0.18502 0.35832 0.63202 0.0
O370 O 0.13842 0.36953 0.00479 0.0
O371 O 0.20285 0.41073 -0.02789 0.0
O372 O 0.11488 0.42031 0.86807 0.0
C373 C 0.1735 0.38484 0.04198 0.0
O374 O 0.15976 0.32902 0.70129 0.0
C375 C 0.14072 0.45785 0.87016 0.0
O376 O 0.19195 0.39211 0.64916 0.0
O377 O 0.17711 0.47271 0.83864 0.0
C378 C 0.42101 0.00721 0.17665 0.0
O379 O 0.44179 0.02696 0.0803 0.0
Cd380 Cd 0.44742 0.98533 0.93133 0.0
O381 O 0.39484 0.96971 0.16491 0.0
Cd382 Cd 0.36337 0.92266 -0.02256 0.0
C383 C 0.41772 0.90768 0.1258 0.0
O384 O 0.39814 0.94886 0.7766 0.0
O385 O 0.37333 0.88773 0.81525 0.0
O386 O 0.32324 0.94346 0.95726 0.0
C387 C 0.39057 0.91594 0.73797 0.0
O388 O 0.44484 0.93918 0.06838 0.0
C389 C 0.29152 0.90906 0.9315 0.0
O390 O 0.38053 0.89177 0.11445 0.0
O391 O 0.2918 0.87928 0.94019 0.0
C392 C 0.00284 0.45026 0.13323 0.0
O393 O 0.98079 0.44144 0.03911 0.0
Cd394 Cd 0.00666 0.4968 0.90363 0.0
O395 O 0.04036 0.47845 0.12578 0.0
Cd396 Cd 0.0917 0.51948 0.95564 0.0
C397 C 0.0684 0.56935 0.13252 0.0
O398 O 0.05898 0.50986 0.76548 0.0
O399 O 0.11384 0.56939 0.79983 0.0
O400 O 0.08918 0.46404 0.90504 0.0
C401 C 0.08433 0.54531 0.72882 0.0
O402 O 0.03654 0.54954 0.06782 0.0
C403 C 0.12675 0.48148 0.90382 0.0
O404 O 0.09604 0.56512 0.11411 0.0
O405 O 0.15 0.51839 0.9355 0.0
C406 C 0.60734 0.54309 0.18341 0.0
O407 O 0.59285 0.50687 0.18924 0.0
Cd408 Cd 0.56222 0.46278 -0.00041 0.0
O409 O 0.61587 0.55713 0.07386 0.0
Cd410 Cd 0.55586 0.52707 0.95861 0.0
C411 C 0.49575 0.45752 0.17817 0.0
O412 O 0.53924 0.47295 0.804 0.0
O413 O 0.49423 0.48022 0.87697 0.0
O414 O 0.59358 0.58733 0.83749 0.0
C415 C 0.50321 0.46219 0.80268 0.0
O416 O 0.50154 0.43384 0.12267 0.0
C417 C 0.57027 0.59647 0.86704 0.0
O418 O 0.5154 0.49359 0.14629 0.0
O419 O 0.54037 0.57345 0.93978 0.0
C420 C 0.97561 0.55816 0.66906 0.0
O421 O 0.95633 0.53757 0.57132 0.0
Cd422 Cd -0.00244 0.53184 0.41962 0.0
O423 O 0.01346 0.58493 0.66075 0.0
Cd424 Cd 0.06557 0.61995 0.48648 0.0
C425 C 0.07358 0.55982 0.63011 0.0
O426 O 0.03767 0.58633 0.28668 0.0
O427 O 0.09958 0.60998 0.31582 0.0
O428 O 0.04743 0.66266 0.48058 0.0
C429 C 0.06973 0.59214 0.24332 0.0
O430 O 0.04235 0.53425 0.56672 0.0
C431 C 0.08268 0.69408 0.46103 0.0
O432 O 0.09134 0.59704 0.62245 0.0
O433 O 0.11189 0.69224 0.46581 0.0
C434 C 0.37215 0.43804 0.65156 0.0
O435 O 0.36957 0.40675 0.66801 0.0
Cd436 Cd 0.4104 0.3865 0.53547 0.0
O437 O 0.3951 0.46065 0.56288 0.0
Cd438 Cd 0.41181 0.41949 0.47508 0.0
C439 C 0.47432 0.43682 0.70438 0.0
O440 O 0.44946 0.40983 0.32851 0.0
O441 O 0.45909 0.46686 0.33105 0.0
O442 O 0.34461 0.35556 0.43535 0.0
C443 C 0.4668 0.444 0.28228 0.0
O444 O 0.46876 0.40573 0.65833 0.0
C445 C 0.33654 0.37362 0.3654 0.0
O446 O 0.45219 0.44561 0.6688 0.0
O447 O 0.36268 0.41071 0.35218 0.0
C448 C 0.52812 0.97061 0.62504 0.0
O449 O 0.53859 0.99308 0.53173 0.0
Cd450 Cd 0.4841 0.97056 0.39265 0.0
O451 O 0.49837 0.93394 0.61566 0.0
Cd452 Cd 0.45379 0.88345 0.44861 0.0
C453 C 0.4105 0.91412 0.62436 0.0
O454 O 0.4664 0.91631 0.25751 0.0
O455 O 0.4044 0.86547 0.29218 0.0
O456 O 0.50302 0.87468 0.40632 0.0
C457 C 0.43018 0.89386 0.22134 0.0
O458 O 0.43185 0.94505 0.55772 0.0
C459 C 0.48011 0.83703 0.41072 0.0
O460 O 0.41158 0.88469 0.60674 0.0
O461 O 0.44306 0.81938 0.43976 0.0
C462 C 0.14868 0.24947 0.0923 0.0
O463 O 0.12413 0.23601 0.18616 0.0
Cd464 Cd 0.13453 0.286 0.33706 0.0
O465 O 0.1828 0.2832 0.1024 0.0
Cd466 Cd 0.2204 0.33241 0.27959 0.0
C467 C 0.17885 0.3649 0.13737 0.0
O468 O 0.18656 0.31477 0.48515 0.0
O469 O 0.21983 0.37646 0.43386 0.0
O470 O 0.26705 0.32015 0.34434 0.0
C471 C 0.20043 0.35032 0.51769 0.0
O472 O 0.14798 0.33747 0.19903 0.0
C473 C 0.29702 0.35504 0.31519 0.0
O474 O 0.21244 0.37103 0.14471 0.0
O475 O 0.29071 0.37628 0.25692 0.0
C476 C 0.61749 0.86451 0.1517 0.0
O477 O 0.64016 0.87949 0.24692 0.0
Cd478 Cd 0.62902 0.82837 0.3792 0.0
O479 O 0.58394 0.83014 0.15865 0.0
Cd480 Cd 0.53975 0.78582 0.33477 0.0
C481 C 0.58004 0.75196 0.15356 0.0
O482 O 0.57492 0.80195 0.52544 0.0
O483 O 0.52815 0.73892 0.48877 0.0
O484 O 0.53574 0.83699 0.38626 0.0
C485 C 0.55589 0.76624 0.55974 0.0
O486 O 0.61111 0.77698 0.21798 0.0
C487 C 0.49775 0.81643 0.38485 0.0
O488 O 0.54735 0.7479 0.17244 0.0
O489 O 0.4773 0.77935 0.35511 0.0
C490 C 0.03785 0.71528 0.06449 0.0
O491 O 0.04624 0.74798 0.0321 0.0
Cd492 Cd 0.04232 0.79144 0.19833 0.0
O493 O 0.03048 0.70835 0.1806 0.0
Cd494 Cd 0.07849 0.77558 0.26918 0.0
C495 C 0.11514 0.84735 0.04892 0.0
O496 O 0.0729 0.81802 0.41321 0.0
O497 O 0.13091 0.82859 0.37164 0.0
O498 O 0.05753 0.72942 0.4255 0.0
C499 C 0.11044 0.83696 0.43636 0.0
O500 O 0.08959 0.85232 0.09197 0.0
C501 C 0.08702 0.72799 0.41151 0.0
O502 O 0.11376 0.81808 0.08426 0.0
O503 O 0.11509 0.7511 0.33199 0.0
loop_
_geom_bond_atom_site_label_1
_geom_bond_atom_site_label_2
_geom_bond_distance
_geom_bond_site_symmetry_2
_ccdc_geom_bond_type
C0 O1 1.306 . S
C0 O3 1.160 . S
O1 C0 1.306 . S
O1 Cd2 2.228 1_556 S
Cd2 O1 2.228 1_554 S
Cd2 O6 2.273 . S
Cd2 O10 2.277 1_554 S
O3 C0 1.160 . S
O3 Cd4 2.203 1_556 S
Cd4 O3 2.203 1_554 S
Cd4 O6 2.411 . S
Cd4 O7 2.333 . S
Cd4 O8 2.352 . S
Cd4 O12 2.277 1_554 S
Cd4 O13 2.356 1_545 S
C5 O10 1.209 . S
C5 O12 1.226 . S
O6 Cd2 2.273 . S
O6 Cd4 2.411 . S
O6 C9 1.320 . S
O7 Cd4 2.333 . S
O7 C9 1.214 . S
O8 Cd4 2.352 . S
O8 C11 1.258 1_545 S
C9 O6 1.320 . S
C9 O7 1.214 . S
O10 Cd2 2.277 1_556 S
O10 C5 1.209 . S
C11 O8 1.258 1_565 S
C11 O13 1.282 . S
O12 Cd4 2.277 1_556 S
O12 C5 1.226 . S
O13 Cd4 2.356 1_565 S
O13 C11 1.282 . S
C14 O15 1.306 . S
C14 O17 1.160 . S
O15 C14 1.306 . S
O15 Cd16 2.228 . S
Cd16 O15 2.228 . S
Cd16 O20 2.273 . S
Cd16 O24 2.277 . S
O17 C14 1.160 . S
O17 Cd18 2.203 . S
Cd18 O17 2.203 . S
Cd18 O20 2.411 . S
Cd18 O21 2.333 . S
Cd18 O22 2.352 . S
Cd18 O26 2.277 . S
Cd18 O27 2.356 . S
C19 O24 1.209 . S
C19 O26 1.226 . S
O20 Cd16 2.273 . S
O20 Cd18 2.411 . S
O20 C23 1.320 . S
O21 Cd18 2.333 . S
O21 C23 1.214 . S
O22 Cd18 2.352 . S
O22 C25 1.258 . S
C23 O20 1.320 . S
C23 O21 1.214 . S
O24 Cd16 2.277 . S
O24 C19 1.209 . S
C25 O22 1.258 . S
C25 O27 1.282 . S
O26 Cd18 2.277 . S
O26 C19 1.226 . S
O27 Cd18 2.356 . S
O27 C25 1.282 . S
C28 O29 1.306 1_556 S
C28 O31 1.160 . S
O29 C28 1.306 1_554 S
O29 Cd30 2.228 . S
Cd30 O29 2.228 . S
Cd30 O34 2.273 . S
Cd30 O38 2.277 1_554 S
O31 C28 1.160 . S
O31 Cd32 2.203 1_556 S
Cd32 O31 2.203 1_554 S
Cd32 O34 2.411 . S
Cd32 O35 2.333 . S
Cd32 O36 2.352 . S
Cd32 O40 2.277 1_554 S
Cd32 O41 2.356 . S
C33 O38 1.209 . S
C33 O40 1.226 . S
O34 Cd30 2.273 . S
O34 Cd32 2.411 . S
O34 C37 1.320 . S
O35 Cd32 2.333 . S
O35 C37 1.214 . S
O36 Cd32 2.352 . S
O36 C39 1.258 . S
C37 O34 1.320 . S
C37 O35 1.214 . S
O38 Cd30 2.277 1_556 S
O38 C33 1.209 . S
C39 O36 1.258 . S
C39 O41 1.282 . S
O40 Cd32 2.277 1_556 S
O40 C33 1.226 . S
O41 Cd32 2.356 . S
O41 C39 1.282 . S
C42 O43 1.306 . S
C42 O45 1.160 . S
O43 C42 1.306 . S
O43 Cd44 2.228 . S
Cd44 O43 2.228 . S
Cd44 O48 2.273 . S
Cd44 O52 2.277 . S
O45 C42 1.160 . S
O45 Cd46 2.203 . S
Cd46 O45 2.203 . S
Cd46 O48 2.411 . S
Cd46 O49 2.333 . S
Cd46 O50 2.352 . S
Cd46 O54 2.277 . S
Cd46 O55 2.356 1_455 S
C47 O52 1.209 . S
C47 O54 1.226 . S
O48 Cd44 2.273 . S
O48 Cd46 2.411 . S
O48 C51 1.320 . S
O49 Cd46 2.333 . S
O49 C51 1.214 . S
O50 Cd46 2.352 . S
O50 C53 1.258 1_455 S
C51 O48 1.320 . S
C51 O49 1.214 . S
O52 Cd44 2.277 . S
O52 C47 1.209 . S
C53 O50 1.258 1_655 S
C53 O55 1.282 . S
O54 Cd46 2.277 . S
O54 C47 1.226 . S
O55 Cd46 2.356 1_655 S
O55 C53 1.282 . S
C56 O57 1.306 . S
C56 O59 1.160 . S
O57 C56 1.306 . S
O57 Cd58 2.228 . S
Cd58 O57 2.228 . S
Cd58 O62 2.273 . S
Cd58 O66 2.277 . S
O59 C56 1.160 . S
O59 Cd60 2.203 . S
Cd60 O59 2.203 . S
Cd60 O62 2.411 . S
Cd60 O63 2.333 . S
Cd60 O64 2.352 . S
Cd60 O68 2.277 . S
Cd60 O69 2.356 . S
C61 O66 1.209 . S
C61 O68 1.226 . S
O62 Cd58 2.273 . S
O62 Cd60 2.411 . S
O62 C65 1.320 . S
O63 Cd60 2.333 . S
O63 C65 1.214 . S
O64 Cd60 2.352 . S
O64 C67 1.258 . S
C65 O62 1.320 . S
C65 O63 1.214 . S
O66 Cd58 2.277 . S
O66 C61 1.209 . S
C67 O64 1.258 . S
C67 O69 1.282 . S
O68 Cd60 2.277 . S
O68 C61 1.226 . S
O69 Cd60 2.356 . S
O69 C67 1.282 . S
C70 O71 1.306 . S
C70 O73 1.160 . S
O71 C70 1.306 . S
O71 Cd72 2.228 . S
Cd72 O71 2.228 . S
Cd72 O76 2.273 . S
Cd72 O80 2.277 . S
O73 C70 1.160 . S
O73 Cd74 2.203 . S
Cd74 O73 2.203 . S
Cd74 O76 2.411 . S
Cd74 O77 2.333 . S
Cd74 O78 2.352 . S
Cd74 O82 2.277 . S
Cd74 O83 2.356 . S
C75 O80 1.209 . S
C75 O82 1.226 . S
O76 Cd72 2.273 . S
O76 Cd74 2.411 . S
O76 C79 1.320 . S
O77 Cd74 2.333 . S
O77 C79 1.214 . S
O78 Cd74 2.352 . S
O78 C81 1.258 . S
C79 O76 1.320 . S
C79 O77 1.214 . S
O80 Cd72 2.277 . S
O80 C75 1.209 . S
C81 O78 1.258 . S
C81 O83 1.282 . S
O82 Cd74 2.277 . S
O82 C75 1.226 . S
O83 Cd74 2.356 . S
O83 C81 1.282 . S
C84 O85 1.306 . S
C84 O87 1.160 . S
O85 C84 1.306 . S
O85 Cd86 2.228 1_554 S
Cd86 O85 2.228 1_556 S
Cd86 O90 2.273 . S
Cd86 O94 2.277 1_556 S
O87 C84 1.160 . S
O87 Cd88 2.203 1_554 S
Cd88 O87 2.203 1_556 S
Cd88 O90 2.411 . S
Cd88 O91 2.333 . S
Cd88 O92 2.352 . S
Cd88 O96 2.277 1_556 S
Cd88 O97 2.356 1_565 S
C89 O94 1.209 . S
C89 O96 1.226 . S
O90 Cd86 2.273 . S
O90 Cd88 2.411 . S
O90 C93 1.320 . S
O91 Cd88 2.333 . S
O91 C93 1.214 . S
O92 Cd88 2.352 . S
O92 C95 1.258 1_565 S
C93 O90 1.320 . S
C93 O91 1.214 . S
O94 Cd86 2.277 1_554 S
O94 C89 1.209 . S
C95 O92 1.258 1_545 S
C95 O97 1.282 . S
O96 Cd88 2.277 1_554 S
O96 C89 1.226 . S
O97 Cd88 2.356 1_545 S
O97 C95 1.282 . S
C98 O99 1.306 . S
C98 O101 1.160 . S
O99 C98 1.306 . S
O99 Cd100 2.228 . S
Cd100 O99 2.228 . S
Cd100 O104 2.273 . S
Cd100 O108 2.277 . S
O101 C98 1.160 . S
O101 Cd102 2.203 . S
Cd102 O101 2.203 . S
Cd102 O104 2.411 . S
Cd102 O105 2.333 . S
Cd102 O106 2.352 . S
Cd102 O110 2.277 . S
Cd102 O111 2.356 . S
C103 O108 1.209 . S
C103 O110 1.226 . S
O104 Cd100 2.273 . S
O104 Cd102 2.411 . S
O104 C107 1.320 . S
O105 Cd102 2.333 . S
O105 C107 1.214 . S
O106 Cd102 2.352 . S
O106 C109 1.258 . S
C107 O104 1.320 . S
C107 O105 1.214 . S
O108 Cd100 2.277 . S
O108 C103 1.209 . S
C109 O106 1.258 . S
C109 O111 1.282 . S
O110 Cd102 2.277 . S
O110 C103 1.226 . S
O111 Cd102 2.356 . S
O111 C109 1.282 . S
C112 O113 1.306 1_554 S
C112 O115 1.160 . S
O113 C112 1.306 1_556 S
O113 Cd114 2.228 . S
Cd114 O113 2.228 . S
Cd114 O118 2.273 . S
Cd114 O122 2.277 1_556 S
O115 C112 1.160 . S
O115 Cd116 2.203 1_554 S
Cd116 O115 2.203 1_556 S
Cd116 O118 2.411 . S
Cd116 O119 2.333 . S
Cd116 O120 2.352 . S
Cd116 O124 2.277 1_556 S
Cd116 O125 2.356 . S
C117 O122 1.209 . S
C117 O124 1.226 . S
O118 Cd114 2.273 . S
O118 Cd116 2.411 . S
O118 C121 1.320 . S
O119 Cd116 2.333 . S
O119 C121 1.214 . S
O120 Cd116 2.352 . S
O120 C123 1.258 . S
C121 O118 1.320 . S
C121 O119 1.214 . S
O122 Cd114 2.277 1_554 S
O122 C117 1.209 . S
C123 O120 1.258 . S
C123 O125 1.282 . S
O124 Cd116 2.277 1_554 S
O124 C117 1.226 . S
O125 Cd116 2.356 . S
O125 C123 1.282 . S
C126 O127 1.306 . S
C126 O129 1.160 . S
O127 C126 1.306 . S
O127 Cd128 2.228 . S
Cd128 O127 2.228 . S
Cd128 O132 2.273 . S
Cd128 O136 2.277 . S
O129 C126 1.160 . S
O129 Cd130 2.203 . S
Cd130 O129 2.203 . S
Cd130 O132 2.411 . S
Cd130 O133 2.333 . S
Cd130 O134 2.352 . S
Cd130 O138 2.277 . S
Cd130 O139 2.356 1_655 S
C131 O136 1.209 . S
C131 O138 1.226 . S
O132 Cd128 2.273 . S
O132 Cd130 2.411 . S
O132 C135 1.320 . S
O133 Cd130 2.333 . S
O133 C135 1.214 . S
O134 Cd130 2.352 . S
O134 C137 1.258 1_655 S
C135 O132 1.320 . S
C135 O133 1.214 . S
O136 Cd128 2.277 . S
O136 C131 1.209 . S
C137 O134 1.258 1_455 S
C137 O139 1.282 . S
O138 Cd130 2.277 . S
O138 C131 1.226 . S
O139 Cd130 2.356 1_455 S
O139 C137 1.282 . S
C140 O141 1.306 . S
C140 O143 1.160 . S
O141 C140 1.306 . S
O141 Cd142 2.228 . S
Cd142 O141 2.228 . S
Cd142 O146 2.273 . S
Cd142 O150 2.277 . S
O143 C140 1.160 . S
O143 Cd144 2.203 . S
Cd144 O143 2.203 . S
Cd144 O146 2.411 . S
Cd144 O147 2.333 . S
Cd144 O148 2.352 . S
Cd144 O152 2.277 . S
Cd144 O153 2.356 . S
C145 O150 1.209 . S
C145 O152 1.226 . S
O146 Cd142 2.273 . S
O146 Cd144 2.411 . S
O146 C149 1.320 . S
O147 Cd144 2.333 . S
O147 C149 1.214 . S
O148 Cd144 2.352 . S
O148 C151 1.258 . S
C149 O146 1.320 . S
C149 O147 1.214 . S
O150 Cd142 2.277 . S
O150 C145 1.209 . S
C151 O148 1.258 . S
C151 O153 1.282 . S
O152 Cd144 2.277 . S
O152 C145 1.226 . S
O153 Cd144 2.356 . S
O153 C151 1.282 . S
C154 O155 1.306 . S
C154 O157 1.160 . S
O155 C154 1.306 . S
O155 Cd156 2.228 . S
Cd156 O155 2.228 . S
Cd156 O160 2.273 . S
Cd156 O164 2.277 . S
O157 C154 1.160 . S
O157 Cd158 2.203 . S
Cd158 O157 2.203 . S
Cd158 O160 2.411 . S
Cd158 O161 2.333 . S
Cd158 O162 2.352 . S
Cd158 O166 2.277 . S
Cd158 O167 2.356 . S
C159 O164 1.209 . S
C159 O166 1.226 . S
O160 Cd156 2.273 . S
O160 Cd158 2.411 . S
O160 C163 1.320 . S
O161 Cd158 2.333 . S
O161 C163 1.214 . S
O162 Cd158 2.352 . S
O162 C165 1.258 . S
C163 O160 1.320 . S
C163 O161 1.214 . S
O164 Cd156 2.277 . S
O164 C159 1.209 . S
C165 O162 1.258 . S
C165 O167 1.282 . S
O166 Cd158 2.277 . S
O166 C159 1.226 . S
O167 Cd158 2.356 . S
O167 C165 1.282 . S
C168 O169 1.296 1_455 S
C168 O171 1.155 1_455 S
O169 C168 1.296 1_655 S
O169 Cd170 2.228 . S
Cd170 O169 2.228 . S
Cd170 O174 2.273 . S
Cd170 O178 2.277 . S
O171 C168 1.155 1_655 S
O171 Cd172 2.203 . S
Cd172 O171 2.203 . S
Cd172 O174 2.411 . S
Cd172 O175 2.333 . S
Cd172 O176 2.352 . S
Cd172 O180 2.277 . S
Cd172 O181 2.356 . S
C173 O178 1.209 . S
C173 O180 1.226 . S
O174 Cd170 2.273 . S
O174 Cd172 2.411 . S
O174 C177 1.320 . S
O175 Cd172 2.333 . S
O175 C177 1.214 . S
O176 Cd172 2.352 . S
O176 C179 1.258 . S
C177 O174 1.320 . S
C177 O175 1.214 . S
O178 Cd170 2.277 . S
O178 C173 1.209 . S
C179 O176 1.258 . S
C179 O181 1.282 . S
O180 Cd172 2.277 . S
O180 C173 1.226 . S
O181 Cd172 2.356 . S
O181 C179 1.282 . S
C182 O183 1.306 . S
C182 O185 1.160 . S
O183 C182 1.306 . S
O183 Cd184 2.228 . S
Cd184 O183 2.228 . S
Cd184 O188 2.273 . S
Cd184 O192 2.277 . S
O185 C182 1.160 . S
O185 Cd186 2.203 . S
Cd186 O185 2.203 . S
Cd186 O188 2.411 . S
Cd186 O189 2.333 . S
Cd186 O190 2.352 . S
Cd186 O194 2.277 . S
Cd186 O195 2.356 . S
C187 O192 1.209 . S
C187 O194 1.226 . S
O188 Cd184 2.273 . S
O188 Cd186 2.411 . S
O188 C191 1.320 . S
O189 Cd186 2.333 . S
O189 C191 1.214 . S
O190 Cd186 2.352 . S
O190 C193 1.258 . S
C191 O188 1.320 . S
C191 O189 1.214 . S
O192 Cd184 2.277 . S
O192 C187 1.209 . S
C193 O190 1.258 . S
C193 O195 1.282 . S
O194 Cd186 2.277 . S
O194 C187 1.226 . S
O195 Cd186 2.356 . S
O195 C193 1.282 . S
C196 O197 1.306 . S
C196 O199 1.160 . S
O197 C196 1.306 . S
O197 Cd198 2.228 . S
Cd198 O197 2.228 . S
Cd198 O202 2.273 . S
Cd198 O206 2.277 . S
O199 C196 1.160 . S
O199 Cd200 2.203 . S
Cd200 O199 2.203 . S
Cd200 O202 2.411 . S
Cd200 O203 2.333 . S
Cd200 O204 2.352 . S
Cd200 O208 2.277 . S
Cd200 O209 2.356 . S
C201 O206 1.209 . S
C201 O208 1.226 . S
O202 Cd198 2.273 . S
O202 Cd200 2.411 . S
O202 C205 1.320 . S
O203 Cd200 2.333 . S
O203 C205 1.214 . S
O204 Cd200 2.352 . S
O204 C207 1.258 . S
C205 O202 1.320 . S
C205 O203 1.214 . S
O206 Cd198 2.277 . S
O206 C201 1.209 . S
C207 O204 1.258 . S
C207 O209 1.282 . S
O208 Cd200 2.277 . S
O208 C201 1.226 . S
O209 Cd200 2.356 . S
O209 C207 1.282 . S
C210 O211 1.306 . S
C210 O213 1.160 . S
O211 C210 1.306 . S
O211 Cd212 2.228 . S
Cd212 O211 2.228 . S
Cd212 O216 2.273 . S
Cd212 O220 2.277 . S
O213 C210 1.160 . S
O213 Cd214 2.203 . S
Cd214 O213 2.203 . S
Cd214 O216 2.411 . S
Cd214 O217 2.333 . S
Cd214 O218 2.352 . S
Cd214 O222 2.277 1_556 S
Cd214 O223 2.356 . S
C215 O220 1.209 1_554 S
C215 O222 1.226 . S
O216 Cd212 2.273 . S
O216 Cd214 2.411 . S
O216 C219 1.320 . S
O217 Cd214 2.333 . S
O217 C219 1.214 . S
O218 Cd214 2.352 . S
O218 C221 1.258 . S
C219 O216 1.320 . S
C219 O217 1.214 . S
O220 Cd212 2.277 . S
O220 C215 1.209 1_556 S
C221 O218 1.258 . S
C221 O223 1.282 . S
O222 Cd214 2.277 1_554 S
O222 C215 1.226 . S
O223 Cd214 2.356 . S
O223 C221 1.282 . S
C224 O225 1.306 . S
C224 O227 1.160 . S
O225 C224 1.306 . S
O225 Cd226 2.228 . S
Cd226 O225 2.228 . S
Cd226 O230 2.273 . S
Cd226 O234 2.277 . S
O227 C224 1.160 . S
O227 Cd228 2.203 . S
Cd228 O227 2.203 . S
Cd228 O230 2.411 . S
Cd228 O231 2.333 . S
Cd228 O232 2.352 . S
Cd228 O236 2.277 . S
Cd228 O237 2.356 . S
C229 O234 1.209 . S
C229 O236 1.226 . S
O230 Cd226 2.273 . S
O230 Cd228 2.411 . S
O230 C233 1.320 . S
O231 Cd228 2.333 . S
O231 C233 1.214 . S
O232 Cd228 2.352 . S
O232 C235 1.258 . S
C233 O230 1.320 . S
C233 O231 1.214 . S
O234 Cd226 2.277 . S
O234 C229 1.209 . S
C235 O232 1.258 . S
C235 O237 1.282 . S
O236 Cd228 2.277 . S
O236 C229 1.226 . S
O237 Cd228 2.356 . S
O237 C235 1.282 . S
C238 O239 1.306 . S
C238 O241 1.160 . S
O239 C238 1.306 . S
O239 Cd240 2.228 . S
Cd240 O239 2.228 . S
Cd240 O244 2.273 . S
Cd240 O248 2.277 . S
O241 C238 1.160 . S
O241 Cd242 2.203 . S
Cd242 O241 2.203 . S
Cd242 O244 2.411 . S
Cd242 O245 2.333 . S
Cd242 O246 2.352 . S
Cd242 O250 2.277 . S
Cd242 O251 2.356 . S
C243 O248 1.209 . S
C243 O250 1.226 . S
O244 Cd240 2.273 . S
O244 Cd242 2.411 . S
O244 C247 1.320 . S
O245 Cd242 2.333 . S
O245 C247 1.214 . S
O246 Cd242 2.352 . S
O246 C249 1.258 . S
C247 O244 1.320 . S
C247 O245 1.214 . S
O248 Cd240 2.277 . S
O248 C243 1.209 . S
C249 O246 1.258 . S
C249 O251 1.282 . S
O250 Cd242 2.277 . S
O250 C243 1.226 . S
O251 Cd242 2.356 . S
O251 C249 1.282 . S
C252 O253 1.306 . S
C252 O255 1.160 . S
O253 C252 1.306 . S
O253 Cd254 2.228 . S
Cd254 O253 2.228 . S
Cd254 O258 2.273 . S
Cd254 O262 2.277 . S
O255 C252 1.160 . S
O255 Cd256 2.203 . S
Cd256 O255 2.203 . S
Cd256 O258 2.411 . S
Cd256 O259 2.333 . S
Cd256 O260 2.352 . S
Cd256 O264 2.277 . S
Cd256 O265 2.356 . S
C257 O262 1.209 . S
C257 O264 1.226 . S
O258 Cd254 2.273 . S
O258 Cd256 2.411 . S
O258 C261 1.320 . S
O259 Cd256 2.333 . S
O259 C261 1.214 . S
O260 Cd256 2.352 . S
O260 C263 1.258 . S
C261 O258 1.320 . S
C261 O259 1.214 . S
O262 Cd254 2.277 . S
O262 C257 1.209 . S
C263 O260 1.258 . S
C263 O265 1.282 . S
O264 Cd256 2.277 . S
O264 C257 1.226 . S
O265 Cd256 2.356 . S
O265 C263 1.282 . S
C266 O267 1.306 . S
C266 O269 1.160 . S
O267 C266 1.306 . S
O267 Cd268 2.228 . S
Cd268 O267 2.228 . S
Cd268 O272 2.273 1_554 S
Cd268 O276 2.277 . S
O269 C266 1.160 . S
O269 Cd270 2.203 . S
Cd270 O269 2.203 . S
Cd270 O272 2.411 1_554 S
Cd270 O273 2.333 1_554 S
Cd270 O274 2.352 1_554 S
Cd270 O278 2.277 . S
Cd270 O279 2.356 . S
C271 O276 1.209 . S
C271 O278 1.226 . S
O272 Cd268 2.273 1_556 S
O272 Cd270 2.411 1_556 S
O272 C275 1.320 . S
O273 Cd270 2.333 1_556 S
O273 C275 1.214 . S
O274 Cd270 2.352 1_556 S
O274 C277 1.258 . S
C275 O272 1.320 . S
C275 O273 1.214 . S
O276 Cd268 2.277 . S
O276 C271 1.209 . S
C277 O274 1.258 . S
C277 O279 1.282 1_556 S
O278 Cd270 2.277 . S
O278 C271 1.226 . S
O279 Cd270 2.356 . S
O279 C277 1.282 1_554 S
C280 O281 1.306 . S
C280 O283 1.160 . S
O281 C280 1.306 . S
O281 Cd282 2.228 . S
Cd282 O281 2.228 . S
Cd282 O286 2.273 . S
Cd282 O290 2.277 . S
O283 C280 1.160 . S
O283 Cd284 2.203 . S
Cd284 O283 2.203 . S
Cd284 O286 2.411 . S
Cd284 O287 2.333 . S
Cd284 O288 2.352 . S
Cd284 O292 2.277 . S
Cd284 O293 2.356 . S
C285 O290 1.209 . S
C285 O292 1.226 . S
O286 Cd282 2.273 . S
O286 Cd284 2.411 . S
O286 C289 1.320 . S
O287 Cd284 2.333 . S
O287 C289 1.214 . S
O288 Cd284 2.352 . S
O288 C291 1.258 . S
C289 O286 1.320 . S
C289 O287 1.214 . S
O290 Cd282 2.277 . S
O290 C285 1.209 . S
C291 O288 1.258 . S
C291 O293 1.282 . S
O292 Cd284 2.277 . S
O292 C285 1.226 . S
O293 Cd284 2.356 . S
O293 C291 1.282 . S
C294 O295 1.310 . S
C294 O297 1.161 . S
O295 C294 1.310 . S
O295 Cd296 2.228 . S
Cd296 O295 2.228 . S
Cd296 O300 2.273 1_556 S
Cd296 O304 2.277 . S
O297 C294 1.161 . S
O297 Cd298 2.203 . S
Cd298 O297 2.203 . S
Cd298 O300 2.411 1_556 S
Cd298 O301 2.333 1_556 S
Cd298 O302 2.352 . S
Cd298 O306 2.277 . S
Cd298 O307 2.356 . S
C299 O304 1.209 . S
C299 O306 1.226 . S
O300 Cd296 2.273 1_554 S
O300 Cd298 2.411 1_554 S
O300 C303 1.320 . S
O301 Cd298 2.333 1_554 S
O301 C303 1.214 . S
O302 Cd298 2.352 . S
O302 C305 1.258 . S
C303 O300 1.320 . S
C303 O301 1.214 . S
O304 Cd296 2.277 . S
O304 C299 1.209 . S
C305 O302 1.258 . S
C305 O307 1.282 . S
O306 Cd298 2.277 . S
O306 C299 1.226 . S
O307 Cd298 2.356 . S
O307 C305 1.282 . S
C308 O309 1.306 . S
C308 O311 1.160 . S
O309 C308 1.306 . S
O309 Cd310 2.228 . S
Cd310 O309 2.228 . S
Cd310 O314 2.273 1_556 S
Cd310 O318 2.277 . S
O311 C308 1.160 . S
O311 Cd312 2.203 . S
Cd312 O311 2.203 . S
Cd312 O314 2.411 1_556 S
Cd312 O315 2.333 1_556 S
Cd312 O316 2.352 1_556 S
Cd312 O320 2.277 . S
Cd312 O321 2.356 . S
C313 O318 1.209 . S
C313 O320 1.226 . S
O314 Cd310 2.273 1_554 S
O314 Cd312 2.411 1_554 S
O314 C317 1.320 . S
O315 Cd312 2.333 1_554 S
O315 C317 1.214 . S
O316 Cd312 2.352 1_554 S
O316 C319 1.258 . S
C317 O314 1.320 . S
C317 O315 1.214 . S
O318 Cd310 2.277 . S
O318 C313 1.209 . S
C319 O316 1.258 . S
C319 O321 1.282 1_554 S
O320 Cd312 2.277 . S
O320 C313 1.226 . S
O321 Cd312 2.356 . S
O321 C319 1.282 1_556 S
C322 O323 1.306 . S
C322 O325 1.160 . S
O323 C322 1.306 . S
O323 Cd324 2.228 . S
Cd324 O323 2.228 . S
Cd324 O328 2.273 1_556 S
Cd324 O332 2.277 . S
O325 C322 1.160 . S
O325 Cd326 2.203 1_556 S
Cd326 O325 2.203 1_554 S
Cd326 O328 2.411 . S
Cd326 O329 2.333 . S
Cd326 O330 2.352 . S
Cd326 O334 2.277 1_554 S
Cd326 O335 2.356 . S
C327 O332 1.209 . S
C327 O334 1.226 . S
O328 Cd324 2.273 1_554 S
O328 Cd326 2.411 . S
O328 C331 1.320 . S
O329 Cd326 2.333 . S
O329 C331 1.214 . S
O330 Cd326 2.352 . S
O330 C333 1.258 . S
C331 O328 1.320 . S
C331 O329 1.214 . S
O332 Cd324 2.277 . S
O332 C327 1.209 . S
C333 O330 1.258 . S
C333 O335 1.282 . S
O334 Cd326 2.277 1_556 S
O334 C327 1.226 . S
O335 Cd326 2.356 . S
O335 C333 1.282 . S
C336 O337 1.306 . S
C336 O339 1.160 . S
O337 C336 1.306 . S
O337 Cd338 2.228 . S
Cd338 O337 2.228 . S
Cd338 O342 2.273 . S
Cd338 O346 2.277 . S
O339 C336 1.160 . S
O339 Cd340 2.203 . S
Cd340 O339 2.203 . S
Cd340 O342 2.411 . S
Cd340 O343 2.333 . S
Cd340 O344 2.352 . S
Cd340 O348 2.277 . S
Cd340 O349 2.356 . S
C341 O346 1.209 . S
C341 O348 1.226 . S
O342 Cd338 2.273 . S
O342 Cd340 2.411 . S
O342 C345 1.320 . S
O343 Cd340 2.333 . S
O343 C345 1.214 . S
O344 Cd340 2.352 . S
O344 C347 1.258 . S
C345 O342 1.320 . S
C345 O343 1.214 . S
O346 Cd338 2.277 . S
O346 C341 1.209 . S
C347 O344 1.258 . S
C347 O349 1.282 . S
O348 Cd340 2.277 . S
O348 C341 1.226 . S
O349 Cd340 2.356 . S
O349 C347 1.282 . S
C350 O351 1.306 . S
C350 O353 1.160 . S
O351 C350 1.306 . S
O351 Cd352 2.228 . S
Cd352 O351 2.228 . S
Cd352 O356 2.273 1_556 S
Cd352 O360 2.277 . S
O353 C350 1.160 . S
O353 Cd354 2.203 . S
Cd354 O353 2.203 . S
Cd354 O356 2.411 1_556 S
Cd354 O357 2.333 1_556 S
Cd354 O358 2.352 1_556 S
Cd354 O362 2.277 . S
Cd354 O363 2.356 . S
C355 O360 1.209 . S
C355 O362 1.226 . S
O356 Cd352 2.273 1_554 S
O356 Cd354 2.411 1_554 S
O356 C359 1.320 . S
O357 Cd354 2.333 1_554 S
O357 C359 1.214 . S
O358 Cd354 2.352 1_554 S
O358 C361 1.258 . S
C359 O356 1.320 . S
C359 O357 1.214 . S
O360 Cd352 2.277 . S
O360 C355 1.209 . S
C361 O358 1.258 . S
C361 O363 1.282 1_554 S
O362 Cd354 2.277 . S
O362 C355 1.226 . S
O363 Cd354 2.356 . S
O363 C361 1.282 1_556 S
C364 O365 1.306 . S
C364 O367 1.160 . S
O365 C364 1.306 . S
O365 Cd366 2.228 . S
Cd366 O365 2.228 . S
Cd366 O370 2.273 . S
Cd366 O374 2.277 . S
O367 C364 1.160 . S
O367 Cd368 2.203 . S
Cd368 O367 2.203 . S
Cd368 O370 2.411 . S
Cd368 O371 2.333 . S
Cd368 O372 2.352 . S
Cd368 O376 2.277 . S
Cd368 O377 2.356 . S
C369 O374 1.209 . S
C369 O376 1.226 . S
O370 Cd366 2.273 . S
O370 Cd368 2.411 . S
O370 C373 1.320 . S
O371 Cd368 2.333 . S
O371 C373 1.214 . S
O372 Cd368 2.352 . S
O372 C375 1.258 . S
C373 O370 1.320 . S
C373 O371 1.214 . S
O374 Cd366 2.277 . S
O374 C369 1.209 . S
C375 O372 1.258 . S
C375 O377 1.282 . S
O376 Cd368 2.277 . S
O376 C369 1.226 . S
O377 Cd368 2.356 . S
O377 C375 1.282 . S
C378 O379 1.310 . S
C378 O381 1.161 . S
O379 C378 1.310 . S
O379 Cd380 2.228 . S
Cd380 O379 2.228 . S
Cd380 O384 2.273 1_554 S
Cd380 O388 2.277 . S
O381 C378 1.161 . S
O381 Cd382 2.203 . S
Cd382 O381 2.203 . S
Cd382 O384 2.411 1_554 S
Cd382 O385 2.333 1_554 S
Cd382 O386 2.352 . S
Cd382 O390 2.277 . S
Cd382 O391 2.356 . S
C383 O388 1.209 . S
C383 O390 1.226 . S
O384 Cd380 2.273 1_556 S
O384 Cd382 2.411 1_556 S
O384 C387 1.320 . S
O385 Cd382 2.333 1_556 S
O385 C387 1.214 . S
O386 Cd382 2.352 . S
O386 C389 1.258 . S
C387 O384 1.320 . S
C387 O385 1.214 . S
O388 Cd380 2.277 . S
O388 C383 1.209 . S
C389 O386 1.258 . S
C389 O391 1.282 . S
O390 Cd382 2.277 . S
O390 C383 1.226 . S
O391 Cd382 2.356 . S
O391 C389 1.282 . S
C392 O393 1.306 . S
C392 O395 1.160 . S
O393 C392 1.306 . S
O393 Cd394 2.228 . S
Cd394 O393 2.228 . S
Cd394 O398 2.273 1_554 S
Cd394 O402 2.277 . S
O395 C392 1.160 . S
O395 Cd396 2.203 . S
Cd396 O395 2.203 . S
Cd396 O398 2.411 1_554 S
Cd396 O399 2.333 1_554 S
Cd396 O400 2.352 1_554 S
Cd396 O404 2.277 . S
Cd396 O405 2.356 . S
C397 O402 1.209 . S
C397 O404 1.226 . S
O398 Cd394 2.273 1_556 S
O398 Cd396 2.411 1_556 S
O398 C401 1.320 . S
O399 Cd396 2.333 1_556 S
O399 C401 1.214 . S
O400 Cd396 2.352 1_556 S
O400 C403 1.258 . S
C401 O398 1.320 . S
C401 O399 1.214 . S
O402 Cd394 2.277 . S
O402 C397 1.209 . S
C403 O400 1.258 . S
C403 O405 1.282 1_556 S
O404 Cd396 2.277 . S
O404 C397 1.226 . S
O405 Cd396 2.356 . S
O405 C403 1.282 1_554 S
C406 O407 1.306 . S
C406 O409 1.160 . S
O407 C406 1.306 . S
O407 Cd408 2.228 . S
Cd408 O407 2.228 . S
Cd408 O412 2.273 1_554 S
Cd408 O416 2.277 . S
O409 C406 1.160 . S
O409 Cd410 2.203 1_554 S
Cd410 O409 2.203 1_556 S
Cd410 O412 2.411 . S
Cd410 O413 2.333 . S
Cd410 O414 2.352 . S
Cd410 O418 2.277 1_556 S
Cd410 O419 2.356 . S
C411 O416 1.209 . S
C411 O418 1.226 . S
O412 Cd408 2.273 1_556 S
O412 Cd410 2.411 . S
O412 C415 1.320 . S
O413 Cd410 2.333 . S
O413 C415 1.214 . S
O414 Cd410 2.352 . S
O414 C417 1.258 . S
C415 O412 1.320 . S
C415 O413 1.214 . S
O416 Cd408 2.277 . S
O416 C411 1.209 . S
C417 O414 1.258 . S
C417 O419 1.282 . S
O418 Cd410 2.277 1_554 S
O418 C411 1.226 . S
O419 Cd410 2.356 . S
O419 C417 1.282 . S
C420 O421 1.296 1_655 S
C420 O423 1.155 1_655 S
O421 C420 1.296 1_455 S
O421 Cd422 2.228 . S
Cd422 O421 2.228 . S
Cd422 O426 2.273 . S
Cd422 O430 2.277 . S
O423 C420 1.155 1_455 S
O423 Cd424 2.203 . S
Cd424 O423 2.203 . S
Cd424 O426 2.411 . S
Cd424 O427 2.333 . S
Cd424 O428 2.352 . S
Cd424 O432 2.277 . S
Cd424 O433 2.356 . S
C425 O430 1.209 . S
C425 O432 1.226 . S
O426 Cd422 2.273 . S
O426 Cd424 2.411 . S
O426 C429 1.320 . S
O427 Cd424 2.333 . S
O427 C429 1.214 . S
O428 Cd424 2.352 . S
O428 C431 1.258 . S
C429 O426 1.320 . S
C429 O427 1.214 . S
O430 Cd422 2.277 . S
O430 C425 1.209 . S
C431 O428 1.258 . S
C431 O433 1.282 . S
O432 Cd424 2.277 . S
O432 C425 1.226 . S
O433 Cd424 2.356 . S
O433 C431 1.282 . S
C434 O435 1.306 . S
C434 O437 1.160 . S
O435 C434 1.306 . S
O435 Cd436 2.228 . S
Cd436 O435 2.228 . S
Cd436 O440 2.273 . S
Cd436 O444 2.277 . S
O437 C434 1.160 . S
O437 Cd438 2.203 . S
Cd438 O437 2.203 . S
Cd438 O440 2.411 . S
Cd438 O441 2.333 . S
Cd438 O442 2.352 . S
Cd438 O446 2.277 . S
Cd438 O447 2.356 . S
C439 O444 1.209 . S
C439 O446 1.226 . S
O440 Cd436 2.273 . S
O440 Cd438 2.411 . S
O440 C443 1.320 . S
O441 Cd438 2.333 . S
O441 C443 1.214 . S
O442 Cd438 2.352 . S
O442 C445 1.258 . S
C443 O440 1.320 . S
C443 O441 1.214 . S
O444 Cd436 2.277 . S
O444 C439 1.209 . S
C445 O442 1.258 . S
C445 O447 1.282 . S
O446 Cd438 2.277 . S
O446 C439 1.226 . S
O447 Cd438 2.356 . S
O447 C445 1.282 . S
C448 O449 1.306 . S
C448 O451 1.160 . S
O449 C448 1.306 . S
O449 Cd450 2.228 . S
Cd450 O449 2.228 . S
Cd450 O454 2.273 . S
Cd450 O458 2.277 . S
O451 C448 1.160 . S
O451 Cd452 2.203 . S
Cd452 O451 2.203 . S
Cd452 O454 2.411 . S
Cd452 O455 2.333 . S
Cd452 O456 2.352 . S
Cd452 O460 2.277 . S
Cd452 O461 2.356 . S
C453 O458 1.209 . S
C453 O460 1.226 . S
O454 Cd450 2.273 . S
O454 Cd452 2.411 . S
O454 C457 1.320 . S
O455 Cd452 2.333 . S
O455 C457 1.214 . S
O456 Cd452 2.352 . S
O456 C459 1.258 . S
C457 O454 1.320 . S
C457 O455 1.214 . S
O458 Cd450 2.277 . S
O458 C453 1.209 . S
C459 O456 1.258 . S
C459 O461 1.282 . S
O460 Cd452 2.277 . S
O460 C453 1.226 . S
O461 Cd452 2.356 . S
O461 C459 1.282 . S
C462 O463 1.306 . S
C462 O465 1.160 . S
O463 C462 1.306 . S
O463 Cd464 2.228 . S
Cd464 O463 2.228 . S
Cd464 O468 2.273 . S
Cd464 O472 2.277 . S
O465 C462 1.160 . S
O465 Cd466 2.203 . S
Cd466 O465 2.203 . S
Cd466 O468 2.411 . S
Cd466 O469 2.333 . S
Cd466 O470 2.352 . S
Cd466 O474 2.277 1_554 S
Cd466 O475 2.356 . S
C467 O472 1.209 1_556 S
C467 O474 1.226 . S
O468 Cd464 2.273 . S
O468 Cd466 2.411 . S
O468 C471 1.320 . S
O469 Cd466 2.333 . S
O469 C471 1.214 . S
O470 Cd466 2.352 . S
O470 C473 1.258 . S
C471 O468 1.320 . S
C471 O469 1.214 . S
O472 Cd464 2.277 . S
O472 C467 1.209 1_554 S
C473 O470 1.258 . S
C473 O475 1.282 . S
O474 Cd466 2.277 1_556 S
O474 C467 1.226 . S
O475 Cd466 2.356 . S
O475 C473 1.282 . S
C476 O477 1.306 . S
C476 O479 1.160 . S
O477 C476 1.306 . S
O477 Cd478 2.228 . S
Cd478 O477 2.228 . S
Cd478 O482 2.273 . S
Cd478 O486 2.277 . S
O479 C476 1.160 . S
O479 Cd480 2.203 . S
Cd480 O479 2.203 . S
Cd480 O482 2.411 . S
Cd480 O483 2.333 . S
Cd480 O484 2.352 . S
Cd480 O488 2.277 . S
Cd480 O489 2.356 . S
C481 O486 1.209 . S
C481 O488 1.226 . S
O482 Cd478 2.273 . S
O482 Cd480 2.411 . S
O482 C485 1.320 . S
O483 Cd480 2.333 . S
O483 C485 1.214 . S
O484 Cd480 2.352 . S
O484 C487 1.258 . S
C485 O482 1.320 . S
C485 O483 1.214 . S
O486 Cd478 2.277 . S
O486 C481 1.209 . S
C487 O484 1.258 . S
C487 O489 1.282 . S
O488 Cd480 2.277 . S
O488 C481 1.226 . S
O489 Cd480 2.356 . S
O489 C487 1.282 . S
C490 O491 1.306 . S
C490 O493 1.160 . S
O491 C490 1.306 . S
O491 Cd492 2.228 . S
Cd492 O491 2.228 . S
Cd492 O496 2.273 . S
Cd492 O500 2.277 . S
O493 C490 1.160 . S
O493 Cd494 2.203 . S
Cd494 O493 2.203 . S
Cd494 O496 2.411 . S
Cd494 O497 2.333 . S
Cd494 O498 2.352 . S
Cd494 O502 2.277 . S
Cd494 O503 2.356 . S
C495 O500 1.209 . S
C495 O502 1.226 . S
O496 Cd492 2.273 . S
O496 Cd494 2.411 . S
O496 C499 1.320 . S
O497 Cd494 2.333 . S
O497 C499 1.214 . S
O498 Cd494 2.352 . S
O498 C501 1.258 . S
C499 O496 1.320 . S
C499 O497 1.214 . S
O500 Cd492 2.277 . S
O500 C495 1.209 . S
C501 O498 1.258 . S
C501 O503 1.282 . S
O502 Cd494 2.277 . S
O502 C495 1.226 . S
O503 Cd494 2.356 . S
O503 C501 1.282 . S
C81 C11 1.496 . S
C25 C53 1.458 . S
C67 C39 1.502 . S
C95 C165 1.496 . S
C109 C137 1.458 . S
C151 C123 1.502 . S
C249 C179 1.497 . S
C193 C221 1.506 . S
C235 C207 1.418 . S
C263 C333 1.514 . S
C277 C305 1.467 . S
C291 C319 1.491 . S
C347 C417 1.514 . S
C389 C361 1.467 . S
C375 C403 1.491 . S
C431 C501 1.497 . S
C445 C473 1.506 . S
C459 C487 1.418 . S
C149 C5 1.394 . S
C163 C19 2.438 1_556 S
C135 C33 1.453 . S
C121 C47 1.360 . S
C61 C93 1.469 . S
C75 C107 2.459 . S
C89 C65 1.394 . S
C103 C79 2.438 1_556 S
C117 C51 1.453 . S
C37 C131 1.360 . S
C9 C145 1.469 . S
C159 C23 2.459 . S
C173 C317 1.404 . S
C187 C331 2.617 . S
C303 C201 1.422 . S
C215 C289 1.401 . S
C229 C261 1.405 1_556 S
C243 C275 2.452 . S
C257 C233 1.428 . S
C247 C271 2.432 . S
C219 C285 1.495 . S
C299 C205 1.387 . S
C177 C313 1.453 . S
C191 C327 2.338 . S
C485 C341 1.428 . S
C355 C499 2.432 . S
C369 C471 1.495 . S
C457 C383 1.386 . S
C429 C397 1.453 . S
C443 C411 2.339 . S
C425 C401 1.404 . S
C415 C439 2.617 . S
C453 C387 1.422 . S
C373 C467 1.402 . S
C345 C481 1.405 1_556 S
C359 C495 2.452 . S
C224 C0 1.476 . S
C14 C238 4.143 1_554 S
C210 C28 1.502 . S
C364 C42 1.485 . S
C56 C336 1.470 . S
C70 C350 4.145 . S
C84 C476 1.476 . S
C490 C98 4.143 1_554 S
C462 C112 1.502 . S
C280 C126 1.485 . S
C140 C252 1.470 . S
C154 C266 4.145 . S
C168 C392 1.511 . S
C406 C182 4.096 . S
C378 C196 1.470 1_565 S
C294 C448 1.470 1_545 S
C420 C308 1.511 . S
C434 C322 4.096 . S
