# Generated by pormake.
# Topology qtz-x, (6)-cn, num edge types: 1
# Building blocks:
#     Node 0, Type 0, BuildingBlock: HISSIN_clean_sbu_0, # of connection points: 6
#     Node 1, Type 0, BuildingBlock: HISSIN_clean_sbu_0, # of connection points: 6
#     Node 2, Type 0, BuildingBlock: HISSIN_clean_sbu_0, # of connection points: 6
#     Edge 3, Type (0, 0), BuildingBlock: TEMPAE_clean_linker_10, # of connection points: 2
#     Edge 4, Type (0, 0), BuildingBlock: TEMPAE_clean_linker_10, # of connection points: 2
#     Edge 5, Type (0, 0), BuildingBlock: TEMPAE_clean_linker_10, # of connection points: 2
#     Edge 6, Type (0, 0), BuildingBlock: TEMPAE_clean_linker_10, # of connection points: 2
#     Edge 7, Type (0, 0), BuildingBlock: TEMPAE_clean_linker_10, # of connection points: 2
#     Edge 8, Type (0, 0), BuildingBlock: TEMPAE_clean_linker_10, # of connection points: 2
#     Edge 9, Type (0, 0), BuildingBlock: TEMPAE_clean_linker_10, # of connection points: 2
#     Edge 10, Type (0, 0), BuildingBlock: TEMPAE_clean_linker_10, # of connection points: 2
#     Edge 11, Type (0, 0), BuildingBlock: TEMPAE_clean_linker_10, # of connection points: 2
# Relax obj value: 0.240
# Max RMSD: 0.263
# Mean RMSD: 0.245
data_MOF--net-qtz-x--node1-HISSIN_clean_sbu_0--edge1-TEMPAE_clean_linker_10
_symmetry_space_group_name_H-M    P1
_symmetry_Int_Tables_number       1
_symmetry_cell_setting            triclinic
loop_
_symmetry_equiv_pos_as_xyz
'x, y, z'
_cell_length_a     15.494284
_cell_length_b     15.503884
_cell_length_c     53.749125
_cell_angle_alpha  68.513685
_cell_angle_beta   114.25332
_cell_angle_gamma 121.0484
loop_
_atom_site_label
_atom_site_type_symbol
_atom_site_fract_x
_atom_site_fract_y
_atom_site_fract_z
_atom_type_partial_charge
Eu0 Eu 0.98536 0.61104 0.19657 0.0
Eu1 Eu 0.21828 0.74544 0.18564 0.0
C2 C 0.10393 0.50511 0.19204 0.0
C3 C 0.80218 0.46753 0.24146 0.0
C4 C 0.72646 0.36945 0.24948 0.0
C5 C 0.86469 0.49437 0.28891 0.0
C6 C 0.72013 0.33389 0.27703 0.0
C7 C 0.87076 0.52977 0.26143 0.0
C8 C 0.78992 0.39558 0.2972 0.0
C9 C 0.81471 0.5022 0.21301 0.0
O10 O 0.10102 0.76434 0.14455 0.0
O11 O 0.9533 0.61641 0.15073 0.0
C12 C 1.00903 0.69363 0.13427 0.0
O13 O 1.0122 0.77706 0.18141 0.0
O14 O 0.36399 0.75351 0.1861 0.0
O15 O 0.33558 0.88947 0.16934 0.0
O16 O 0.19065 0.84898 0.19884 0.0
C17 C 0.10079 0.85458 0.19005 0.0
O18 O 0.0997 0.66159 0.23667 0.0
O19 O 0.25315 0.6882 0.23224 0.0
O20 O 0.14745 0.5902 0.17539 0.0
O21 O 0.84997 0.60083 0.20313 0.0
O22 O 0.86006 0.46165 0.20797 0.0
O23 O 0.06117 0.50514 0.20858 0.0
C24 C 0.41177 0.86006 0.1447 0.0
C25 C 0.38017 0.92459 0.12025 0.0
C26 C 0.46533 0.80742 0.11809 0.0
C27 C 0.38984 0.92945 0.095 0.0
C28 C 0.45616 0.80296 0.14341 0.0
C29 C 0.43111 0.86982 0.09349 0.0
C30 C 0.3914 0.84616 0.17089 0.0
C31 C 0.19717 0.67342 0.2476 0.0
H32 H 0.67339 0.31963 0.23455 0.0
H33 H 0.91866 0.54472 0.30366 0.0
H34 H 0.66231 0.25701 0.28269 0.0
H35 H 0.93007 0.60572 0.25588 0.0
H36 H 0.34599 -0.02987 0.12041 0.0
H37 H 0.49662 0.7597 0.11771 0.0
H38 H 0.36467 -0.02005 0.07661 0.0
H39 H 0.48124 0.75259 0.16187 0.0
Eu40 Eu 0.86157 0.17126 0.56161 0.0
Eu41 Eu 0.72439 0.93528 0.55046 0.0
C42 C 0.61711 0.0559 0.55401 0.0
C43 C 0.98002 0.38517 0.59871 0.0
C44 C 0.90349 0.32783 0.61325 0.0
C45 C 0.08735 0.49332 0.63327 0.0
C46 C 0.91863 0.35315 0.63757 0.0
C47 C 0.0717 0.46844 0.60874 0.0
C48 C 1.01115 0.43543 0.64798 0.0
C49 C 0.96824 0.35183 0.57474 0.0
O50 O 0.76741 0.03503 0.51073 0.0
O51 O 0.79497 0.19025 0.51467 0.0
C52 C 0.77808 0.12964 0.49961 0.0
O53 O 0.96352 0.13688 0.55037 0.0
O54 O 0.57242 0.80931 0.53676 0.0
O55 O 0.71462 0.79349 0.54752 0.0
O56 O 0.89479 -0.0353 0.5679 0.0
C57 C 0.97079 0.04942 0.55949 0.0
O58 O 0.87727 0.06724 0.60405 0.0
O59 O 0.73312 0.91512 0.59525 0.0
O60 O 0.6124 0.00515 0.53827 0.0
O61 O 1.00918 0.28864 0.58086 0.0
O62 O 0.87485 0.32297 0.55709 0.0
O63 O 0.70727 0.10935 0.56983 0.0
C64 C 0.58071 0.73412 0.50752 0.0
C65 C 0.646 0.79267 0.48971 0.0
C66 C 0.44262 0.64716 0.47011 0.0
C67 C 0.60966 0.7794 0.46231 0.0
C68 C 0.47923 0.66039 0.49762 0.0
C69 C 0.50689 0.70785 0.45199 0.0
C70 C 0.61425 0.75785 0.53513 0.0
C71 C 0.80797 -0.02415 0.61271 0.0
H72 H 0.83304 0.2619 0.60616 0.0
H73 H 0.15916 0.55734 0.64084 0.0
H74 H 0.85941 0.30634 0.64872 0.0
H75 H 0.13205 0.51271 0.59795 0.0
H76 H 0.72446 0.85069 0.49674 0.0
H77 H 0.36269 0.59214 0.46275 0.0
H78 H 0.66174 0.82621 0.44909 0.0
H79 H 0.42716 0.61537 0.51089 0.0
Eu80 Eu 0.78384 0.84232 0.86443 0.0
Eu81 Eu 0.92999 0.72017 0.88144 0.0
C82 C 0.68566 0.60394 0.8701 0.0
C83 C 0.61103 0.9143 0.87556 0.0
C84 C 0.60305 0.83328 0.89877 0.0
C85 C 0.5342 -0.02305 0.89237 0.0
C86 C 0.56263 0.82498 0.91885 0.0
C87 C 0.57522 -0.01455 0.87225 0.0
C88 C 0.52905 0.89752 0.91614 0.0
C89 C 0.66598 0.92849 0.85666 0.0
O90 O 0.90804 0.78501 0.83526 0.0
O91 O 0.76601 0.8194 0.82296 0.0
C92 C 0.83202 0.80803 0.81625 0.0
O93 O 0.93689 0.95637 0.85534 0.0
O94 O 0.95841 0.58306 0.89699 0.0
O95 O 0.07991 0.73087 0.88464 0.0
O96 O 0.03019 0.87697 0.89163 0.0
C97 C 1.02593 0.95859 0.87305 0.0
O98 O 0.85364 0.82516 0.91117 0.0
O99 O 0.89888 0.69301 0.92186 0.0
O100 O 0.76341 0.61566 0.86324 0.0
O101 O 0.76818 -0.02767 0.8658 0.0
O102 O 0.63205 0.84818 0.84653 0.0
O103 O 0.69379 0.67552 0.87936 0.0
C104 C 0.06099 0.5894 0.87282 0.0
C105 C 0.15866 0.63362 0.86764 0.0
C106 C 0.98411 0.48907 0.83714 0.0
C107 C 0.16803 0.60881 0.84663 0.0
C108 C 0.9744 0.51471 0.8579 0.0
C109 C 0.0801 0.5384 0.8307 0.0
C110 C 0.04793 0.63148 0.89095 0.0
C111 C 0.88001 0.75232 0.92931 0.0
H112 H 0.63153 0.77824 0.90187 0.0
H113 H 0.50817 0.03341 0.88958 0.0
H114 H 0.56195 0.76406 0.93709 0.0
H115 H 0.58143 0.04885 0.85454 0.0
H116 H 0.22655 0.69129 0.87889 0.0
H117 H 0.91495 0.43513 0.82501 0.0
H118 H 0.24308 0.64722 0.84218 0.0
H119 H 0.89788 0.47959 0.86127 0.0
C120 C 1.00735 -0.03644 0.17738 0.0
C121 C 0.09957 0.94938 0.19017 0.0
C122 C 1.00552 0.05316 0.17741 0.0
C123 C 0.09787 0.12996 0.19077 0.0
C124 C 0.19099 0.11585 0.20385 0.0
C125 C 0.19083 0.02599 0.20329 0.0
C126 C 0.90494 0.06589 0.16302 0.0
C127 C 0.29086 0.19565 0.21849 0.0
C128 C 0.12746 0.40378 0.1703 0.0
C129 C 0.10161 0.40882 0.19172 0.0
C130 C 0.12515 0.31309 0.16954 0.0
C131 C 0.09757 0.22564 0.1909 0.0
C132 C 0.07148 0.2302 0.21259 0.0
C133 C 0.0732 0.3216 0.21266 0.0
C134 C 0.15237 0.31091 0.14589 0.0
C135 C 0.04272 0.13882 0.23588 0.0
H136 H 0.93654 0.90492 0.16714 0.0
H137 H 0.26233 0.01555 0.21337 0.0
H138 H 0.88028 0.07564 0.17811 0.0
H139 H 0.91778 0.13622 0.14647 0.0
H140 H 0.84006 -0.00082 0.15351 0.0
H141 H 0.3562 0.1723 0.22801 0.0
H142 H 0.31544 0.26957 0.20354 0.0
H143 H 0.27715 0.20959 0.23508 0.0
H144 H 0.1488 0.47062 0.15393 0.0
H145 H 0.05337 0.32499 0.2293 0.0
H146 H 0.08661 0.24834 0.13495 0.0
H147 H 0.22198 0.29456 0.15417 0.0
H148 H 0.16944 0.38462 0.13052 0.0
H149 H 0.97387 0.07208 0.22725 0.0
H150 H 1.02401 0.15472 0.25113 0.0
H151 H 0.10856 0.11641 0.24703 0.0
C152 C 0.52242 0.08282 0.57639 0.0
C153 C 0.52009 0.05033 0.55486 0.0
C154 C 0.4316 0.07785 0.57782 0.0
C155 C 0.33629 0.04075 0.557 0.0
C156 C 0.33312 0.00724 0.53528 0.0
C157 C 0.42504 0.01178 0.53456 0.0
C158 C 0.43794 0.11322 0.60149 0.0
C159 C 0.23308 -0.03168 0.51254 0.0
C160 C 0.08183 0.95792 0.57197 0.0
C161 C 0.06418 0.04632 0.55912 0.0
C162 C 0.1699 0.95464 0.57137 0.0
C163 C 0.24121 0.04145 0.55736 0.0
C164 C 0.22325 0.13046 0.54416 0.0
C165 C 0.13532 0.13198 0.54532 0.0
C166 C 0.18716 0.85873 0.58592 0.0
C167 C 0.29706 0.22433 0.52884 0.0
H168 H 0.59534 0.1117 0.59234 0.0
H169 H 0.42273 -0.01346 0.51788 0.0
H170 H 0.41906 0.18024 0.59318 0.0
H171 H 0.37925 0.05136 0.61261 0.0
H172 H 0.51691 0.13542 0.61671 0.0
H173 H 0.24305 0.94268 0.49752 0.0
H174 H 0.17008 0.90312 0.52172 0.0
H175 H 0.20631 0.02989 0.50099 0.0
H176 H 1.02724 0.89144 0.58267 0.0
H177 H 0.12197 0.20037 0.53514 0.0
H178 H 0.26324 0.87726 0.60231 0.0
H179 H 0.19125 0.82829 0.5709 0.0
H180 H 0.12391 0.79752 0.59568 0.0
H181 H 0.3764 0.25497 0.54343 0.0
H182 H 0.27025 0.28631 0.51901 0.0
H183 H 0.30451 0.20342 0.5124 0.0
C184 C 0.21066 0.06857 0.89442 0.0
C185 C 0.12292 0.05164 0.87118 0.0
C186 C 0.30381 0.1573 0.89293 0.0
C187 C 0.30918 0.22871 0.86742 0.0
C188 C 0.22203 0.20993 0.84359 0.0
C189 C 0.12885 0.12204 0.84589 0.0
C190 C 0.39562 0.17555 0.91875 0.0
C191 C 0.22589 0.28332 0.81588 0.0
C192 C 0.50243 0.50206 0.8729 0.0
C193 C 0.58829 0.50894 0.86808 0.0
C194 C 0.40993 0.41163 0.87206 0.0
C195 C 0.40374 0.32636 0.86635 0.0
C196 C 0.48878 0.33339 0.86067 0.0
C197 C 0.58058 0.42517 0.86157 0.0
C198 C 0.31964 0.4068 0.8778 0.0
C199 C 0.48244 0.24424 0.85359 0.0
H200 H 0.20583 0.01355 0.91393 0.0
H201 H 0.06116 0.10783 0.82777 0.0
H202 H 0.46418 0.18225 0.91493 0.0
H203 H 0.41869 0.24889 0.92397 0.0
H204 H 0.37735 0.11269 0.93695 0.0
H205 H 0.16515 0.24445 0.79843 0.0
H206 H 0.21151 0.3468 0.81558 0.0
H207 H 0.30366 0.31765 0.81223 0.0
H208 H 0.50749 0.56721 0.87754 0.0
H209 H 0.64649 0.43079 0.85752 0.0
H210 H 0.29958 0.34484 0.89602 0.0
H211 H 0.24908 0.38809 0.85971 0.0
H212 H 0.33773 0.48029 0.882 0.0
H213 H 0.45874 0.17421 0.86975 0.0
H214 H 0.5581 0.25975 0.85165 0.0
H215 H 0.42132 0.2276 0.83362 0.0
C216 C 0.53179 -0.01606 0.94803 0.0
C217 C 0.49637 0.8937 0.93913 0.0
C218 C 0.51331 -0.01983 0.97197 0.0
C219 C 0.45835 0.88389 0.98742 0.0
C220 C 0.41837 0.79294 0.97788 0.0
C221 C 0.43737 0.79901 0.95378 0.0
C222 C 0.55726 0.07886 0.98151 0.0
C223 C 0.36007 0.68874 0.99388 0.0
C224 C 0.52398 0.86936 0.06469 0.0
C225 C 0.43723 0.87193 0.0663 0.0
C226 C 0.53076 0.87145 1.03922 0.0
C227 C 0.4496 0.87791 1.01461 0.0
C228 C 0.36152 0.88002 1.01604 0.0
C229 C 0.35615 0.87637 0.04188 0.0
C230 C 0.62517 0.86718 1.03863 0.0
C231 C 0.27347 0.8871 0.99027 0.0
H232 H 0.57828 0.05739 0.93705 0.0
H233 H 0.4081 0.72909 0.94676 0.0
H234 H 0.496 0.08279 0.98614 0.0
H235 H 0.62177 0.08114 1.00103 0.0
H236 H 0.58851 0.1478 0.96575 0.0
H237 H 0.3272 0.62628 0.98258 0.0
H238 H 0.41416 0.67242 1.01431 0.0
H239 H 0.29512 0.68755 0.9981 0.0
H240 H 0.58757 0.86714 0.08333 0.0
H241 H 0.28786 0.87629 0.04298 0.0
H242 H 0.66905 0.93843 1.02547 0.0
H243 H 0.59959 0.80198 1.02921 0.0
H244 H 0.67943 0.8583 0.05973 0.0
H245 H 0.30435 -0.04067 0.97535 0.0
H246 H 0.20925 0.88546 0.99504 0.0
H247 H 0.24011 0.82263 0.97971 0.0
C248 C 0.77317 0.10949 0.4547 0.0
C249 C 0.77591 0.16919 0.46962 0.0
C250 C 0.77438 0.14586 0.42668 0.0
C251 C 0.77736 0.24425 0.41292 0.0
C252 C 0.7787 0.30449 0.42769 0.0
C253 C 0.77848 0.26654 0.45586 0.0
C254 C 0.77344 0.07913 0.41187 0.0
C255 C 0.78075 0.40931 0.41373 0.0
C256 C 0.87952 0.37764 0.34874 0.0
C257 C 0.78629 0.35692 0.32685 0.0
C258 C 0.87774 0.34212 0.37673 0.0
C259 C 0.78035 0.28433 0.3832 0.0
C260 C 0.68596 0.26305 0.36125 0.0
C261 C 0.69006 0.29941 0.33341 0.0
C262 C 0.98034 0.36541 0.3994 0.0
C263 C 0.58047 0.20192 0.36717 0.0
H264 H 0.77144 0.03429 0.465 0.0
H265 H 0.78031 0.31327 0.46708 0.0
H266 H 0.70261 0.06122 0.39384 0.0
H267 H 0.84271 0.12083 0.40363 0.0
H268 H 0.77412 0.00576 0.42571 0.0
H269 H 0.77894 0.44558 0.4278 0.0
H270 H 0.8526 0.46052 0.40663 0.0
H271 H 0.71256 0.40329 0.39501 0.0
H272 H 0.95436 0.42043 0.344 0.0
H273 H 0.6176 0.28391 0.31674 0.0
H274 H 0.985 0.29264 0.41241 0.0
H275 H 0.9848 0.40664 0.41327 0.0
H276 H 0.04938 0.41291 0.39095 0.0
H277 H 0.5724 0.12437 0.37953 0.0
H278 H 0.51436 0.19312 0.34782 0.0
H279 H 0.57406 0.2401 0.3798 0.0
C280 C 0.75273 0.86185 0.76506 0.0
C281 C 0.82328 0.82459 0.78627 0.0
C282 C 0.74734 0.88168 0.73681 0.0
C283 C 0.81382 0.86367 0.72941 0.0
C284 C 0.88355 0.82394 0.75065 0.0
C285 C 0.88756 0.80516 0.77871 0.0
C286 C 0.67175 0.92385 0.71489 0.0
C287 C 0.9555 0.80295 0.74381 0.0
C288 C 0.74579 0.84539 0.65395 0.0
C289 C 0.81211 0.94436 0.64284 0.0
C290 C 0.74608 0.81765 0.68208 0.0
C291 C 0.81372 0.89069 0.69959 0.0
C292 C 0.88108 -0.00952 0.68852 0.0
C293 C 0.8797 0.01586 0.66045 0.0
C294 C 0.67316 0.71041 0.693 0.0
C295 C 0.95406 0.07118 0.70627 0.0
H296 H 0.70259 0.87714 0.77052 0.0
H297 H 0.942 0.77577 0.79478 0.0
H298 H 0.71591 0.00148 0.70382 0.0
H299 H 0.6199 0.87434 0.69915 0.0
H300 H 0.62213 0.92935 0.72387 0.0
H301 H 1.00147 0.7674 0.76256 0.0
H302 H 0.90941 0.7511 0.72864 0.0
H303 H 1.01097 0.87581 0.73392 0.0
H304 H 0.69304 0.78954 0.64062 0.0
H305 H 0.93073 0.09292 0.6522 0.0
H306 H 0.61863 0.71385 0.70062 0.0
H307 H 0.71887 0.67246 0.71095 0.0
H308 H 0.62631 0.66216 0.67689 0.0
H309 H 0.90825 0.08523 0.71445 0.0
H310 H 1.0014 0.14528 0.69455 0.0
H311 H 1.00817 0.04365 0.72446 0.0
C312 C 0.8358 0.7709 0.96656 0.0
C313 C 0.88903 0.73741 0.95912 0.0
C314 C 0.84437 0.75865 0.99463 0.0
C315 C 0.90935 0.71346 1.01595 0.0
C316 C 0.96286 0.67903 1.00854 0.0
C317 C 0.95123 0.69047 0.98027 0.0
C318 C 0.78535 0.79592 1.00147 0.0
C319 C 0.03541 0.63328 1.03052 0.0
C320 C 0.03328 0.78806 0.08685 0.0
C321 C 0.97429 0.70061 0.10352 0.0
C322 C 1.01187 0.79344 0.05843 0.0
C323 C 0.92836 0.70979 0.04592 0.0
C324 C 0.86608 0.62245 0.0623 0.0
C325 C 0.88983 0.61877 0.09092 0.0
C326 C 0.0801 0.88849 0.0419 0.0
C327 C 0.7762 0.53177 0.04974 0.0
H328 H 0.78692 0.80656 0.95038 0.0
H329 H 0.99328 0.6651 0.97476 0.0
H330 H 0.73779 0.73358 1.01546 0.0
H331 H 0.84173 0.8602 1.01271 0.0
H332 H 0.73258 0.82284 0.98255 0.0
H333 H 0.06669 0.60506 1.02143 0.0
H334 H 0.10258 0.69204 0.04255 0.0
H335 H 0.99377 0.56859 0.0454 0.0
H336 H 0.09848 0.85235 0.09614 0.0
H337 H 0.84411 0.55069 0.10353 0.0
H338 H 0.03262 0.92879 1.02594 0.0
H339 H 0.11064 0.86732 1.03073 0.0
H340 H 0.14767 0.9428 0.05522 0.0
H341 H 0.72164 0.55735 1.03116 0.0
H342 H 0.73162 0.47221 0.06474 0.0
H343 H 0.80665 0.49648 0.04268 0.0
C344 C 0.34348 0.67343 0.29167 0.0
C345 C 0.2452 0.67502 0.27779 0.0
C346 C 0.38888 0.67595 0.32023 0.0
C347 C 0.33518 0.68119 0.33517 0.0
C348 C 0.23594 0.68257 0.32127 0.0
C349 C 0.19217 0.67911 0.29287 0.0
C350 C 0.49439 0.67328 0.33444 0.0
C351 C 0.17609 0.68849 0.33634 0.0
C352 C 0.40226 0.60432 0.4142 0.0
C353 C 0.46571 0.70018 0.42212 0.0
C354 C 0.36084 0.59681 0.386 0.0
C355 C 0.38321 0.68734 0.3652 0.0
C356 C 0.44781 0.78428 0.37307 0.0
C357 C 0.48826 0.7895 0.40138 0.0
C358 C 0.29222 0.49205 0.37845 0.0
C359 C 0.47221 0.88277 0.35154 0.0
H360 H 0.38487 0.66986 0.28027 0.0
H361 H 0.11658 0.68109 0.2824 0.0
H362 H 0.55208 0.74427 0.34282 0.0
H363 H 0.48865 0.60753 0.35234 0.0
H364 H 0.52473 0.66639 0.32012 0.0
H365 H 0.1019 0.69338 0.32222 0.0
H366 H 0.15691 0.61966 0.35315 0.0
H367 H 0.22516 0.75666 0.34628 0.0
H368 H 0.38535 0.53496 0.43008 0.0
H369 H 0.53566 0.86401 0.40726 0.0
H370 H 0.32434 0.48122 0.36536 0.0
H371 H 0.21238 0.48575 0.366 0.0
H372 H 0.28551 0.42902 0.3971 0.0
H373 H 0.52527 0.95184 0.3611 0.0
H374 H 0.39844 0.88957 0.33803 0.0
H375 H 0.50946 0.88183 0.33795 0.0
C376 C 0.04151 0.42618 0.80026 0.0
C377 C 0.08482 0.5246 0.80553 0.0
C378 C 0.03544 0.41308 0.77501 0.0
C379 C 0.07229 0.5006 0.75446 0.0
C380 C 0.11805 0.60013 0.75994 0.0
C381 C 0.12434 0.61088 0.78551 0.0
C382 C 0.98563 0.30557 0.76995 0.0
C383 C 0.15627 0.69528 0.73838 0.0
C384 C 0.12331 0.46865 0.69573 0.0
C385 C 1.02919 0.45774 0.6747 0.0
C386 C 0.13879 0.48326 0.72178 0.0
C387 C 0.05859 0.48812 0.72675 0.0
C388 C 0.96435 0.47954 0.70534 0.0
C389 C 0.95049 0.46369 0.67962 0.0
C390 C 0.23963 0.49061 0.74423 0.0
C391 C 0.87781 0.4863 0.70966 0.0
H392 H 1.01099 0.35946 0.81577 0.0
H393 H 0.15611 0.68705 0.78936 0.0
H394 H 0.90546 0.28832 0.75561 0.0
H395 H 0.03086 0.29827 0.75993 0.0
H396 H 0.97955 0.24707 0.78955 0.0
H397 H 0.19441 0.76692 0.74642 0.0
H398 H 0.21301 0.69351 0.73124 0.0
H399 H 0.08917 0.69762 0.71992 0.0
H400 H 0.18368 0.46275 0.69205 0.0
H401 H 0.87802 0.45608 0.66327 0.0
H402 H 0.2221 0.42488 0.76186 0.0
H403 H 0.27748 0.5618 0.75239 0.0
H404 H 0.2961 0.49007 0.73665 0.0
H405 H 0.84759 0.42244 0.72648 0.0
H406 H 0.81135 0.48252 0.69051 0.0
H407 H 0.90875 0.55914 0.71634 0.0
loop_
_geom_bond_atom_site_label_1
_geom_bond_atom_site_label_2
_geom_bond_distance
_geom_bond_site_symmetry_2
_ccdc_geom_bond_type
Eu0 C9 2.828 . S
Eu0 O11 2.392 . S
Eu0 O13 2.418 . S
Eu0 O18 2.373 1_655 S
Eu0 O21 2.488 . S
Eu0 O22 2.471 . S
Eu0 O23 2.349 . S
Eu1 O10 2.373 1_455 S
Eu1 O14 2.488 . S
Eu1 O15 2.471 . S
Eu1 O16 2.349 . S
Eu1 O19 2.392 . S
Eu1 O20 2.418 . S
Eu1 C30 2.828 . S
C2 O20 1.244 . S
C2 O23 1.265 1_455 S
C3 C4 1.379 . S
C3 C7 1.373 . S
C3 C9 1.505 . S
C4 C3 1.379 . S
C4 C6 1.369 . S
C4 H32 0.930 . S
C5 C7 1.383 . S
C5 C8 1.382 . S
C5 H33 0.930 . S
C6 C4 1.369 . S
C6 C8 1.392 . S
C6 H34 0.930 . S
C7 C3 1.373 . S
C7 C5 1.383 . S
C7 H35 0.931 . S
C8 C5 1.382 . S
C8 C6 1.392 . S
C9 Eu0 2.828 . S
C9 C3 1.505 . S
C9 O21 1.249 . S
C9 O22 1.244 . S
O10 Eu1 2.373 1_655 S
O10 C12 1.258 . S
O11 Eu0 2.392 . S
O11 C12 1.242 . S
C12 O10 1.258 . S
C12 O11 1.242 . S
O13 Eu0 2.418 . S
O13 C17 1.244 . S
O14 Eu1 2.488 . S
O14 C30 1.249 . S
O15 Eu1 2.471 . S
O15 C30 1.244 . S
O16 Eu1 2.349 . S
O16 C17 1.265 1_455 S
C17 O13 1.244 . S
C17 O16 1.265 1_655 S
O18 Eu0 2.373 1_455 S
O18 C31 1.258 . S
O19 Eu1 2.392 . S
O19 C31 1.242 . S
O20 Eu1 2.418 . S
O20 C2 1.244 . S
O21 Eu0 2.488 . S
O21 C9 1.249 . S
O22 Eu0 2.471 . S
O22 C9 1.244 . S
O23 Eu0 2.349 . S
O23 C2 1.265 1_655 S
C24 C25 1.379 . S
C24 C28 1.373 . S
C24 C30 1.505 . S
C25 C24 1.379 . S
C25 C27 1.369 1_565 S
C25 H36 0.930 . S
C26 C28 1.383 . S
C26 C29 1.382 . S
C26 H37 0.930 . S
C27 C25 1.369 1_545 S
C27 C29 1.392 1_545 S
C27 H38 0.930 . S
C28 C24 1.373 . S
C28 C26 1.383 . S
C28 H39 0.931 . S
C29 C26 1.382 . S
C29 C27 1.392 1_565 S
C30 Eu1 2.828 . S
C30 O14 1.249 . S
C30 O15 1.244 . S
C30 C24 1.505 . S
C31 O18 1.258 . S
C31 O19 1.242 . S
H32 C4 0.930 . S
H33 C5 0.930 . S
H34 C6 0.930 . S
H35 C7 0.931 . S
H36 C25 0.930 . S
H37 C26 0.930 . S
H38 C27 0.930 . S
H39 C28 0.931 . S
Eu40 C49 2.828 . S
Eu40 O51 2.392 . S
Eu40 O53 2.418 . S
Eu40 O58 2.373 . S
Eu40 O61 2.488 . S
Eu40 O62 2.471 . S
Eu40 O63 2.349 . S
Eu41 O50 2.373 1_565 S
Eu41 O54 2.488 . S
Eu41 O55 2.471 . S
Eu41 O56 2.349 . S
Eu41 O59 2.392 . S
Eu41 O60 2.418 . S
Eu41 C70 2.828 . S
C42 O60 1.244 . S
C42 O63 1.265 1_565 S
C43 C44 1.379 . S
C43 C47 1.373 1_655 S
C43 C49 1.505 . S
C44 C43 1.379 . S
C44 C46 1.369 . S
C44 H72 0.930 . S
C45 C47 1.383 . S
C45 C48 1.382 1_455 S
C45 H73 0.930 . S
C46 C44 1.369 . S
C46 C48 1.392 . S
C46 H74 0.930 . S
C47 C43 1.373 1_455 S
C47 C45 1.383 . S
C47 H75 0.931 . S
C48 C45 1.382 1_655 S
C48 C46 1.392 . S
C49 Eu40 2.828 . S
C49 C43 1.505 . S
C49 O61 1.249 . S
C49 O62 1.244 . S
O50 Eu41 2.373 1_545 S
O50 C52 1.258 . S
O51 Eu40 2.392 . S
O51 C52 1.242 . S
C52 O50 1.258 . S
C52 O51 1.242 . S
O53 Eu40 2.418 . S
O53 C57 1.244 . S
O54 Eu41 2.488 . S
O54 C70 1.249 . S
O55 Eu41 2.471 . S
O55 C70 1.244 . S
O56 Eu41 2.349 . S
O56 C57 1.265 1_565 S
C57 O53 1.244 . S
C57 O56 1.265 1_545 S
O58 Eu40 2.373 . S
O58 C71 1.258 1_545 S
O59 Eu41 2.392 . S
O59 C71 1.242 . S
O60 Eu41 2.418 . S
O60 C42 1.244 . S
O61 Eu40 2.488 . S
O61 C49 1.249 . S
O62 Eu40 2.471 . S
O62 C49 1.244 . S
O63 Eu40 2.349 . S
O63 C42 1.265 1_545 S
C64 C65 1.379 . S
C64 C68 1.373 . S
C64 C70 1.505 . S
C65 C64 1.379 . S
C65 C67 1.369 . S
C65 H76 0.930 . S
C66 C68 1.383 . S
C66 C69 1.382 . S
C66 H77 0.930 . S
C67 C65 1.369 . S
C67 C69 1.392 . S
C67 H78 0.930 . S
C68 C64 1.373 . S
C68 C66 1.383 . S
C68 H79 0.931 . S
C69 C66 1.382 . S
C69 C67 1.392 . S
C70 Eu41 2.828 . S
C70 O54 1.249 . S
C70 O55 1.244 . S
C70 C64 1.505 . S
C71 O58 1.258 1_565 S
C71 O59 1.242 . S
H72 C44 0.930 . S
H73 C45 0.930 . S
H74 C46 0.930 . S
H75 C47 0.931 . S
H76 C65 0.930 . S
H77 C66 0.930 . S
H78 C67 0.930 . S
H79 C68 0.931 . S
Eu80 C89 2.828 . S
Eu80 O91 2.392 . S
Eu80 O93 2.418 1_655 S
Eu80 O98 2.373 1_545 S
Eu80 O101 2.488 . S
Eu80 O102 2.471 1_545 S
Eu80 O103 2.349 1_545 S
Eu81 O90 2.373 . S
Eu81 O94 2.488 . S
Eu81 O95 2.471 1_655 S
Eu81 O96 2.349 1_655 S
Eu81 O99 2.392 . S
Eu81 O100 2.418 . S
Eu81 C110 2.828 1_655 S
C82 O100 1.244 . S
C82 O103 1.265 . S
C83 C84 1.379 1_545 S
C83 C87 1.373 . S
C83 C89 1.505 . S
C84 C83 1.379 1_565 S
C84 C86 1.369 . S
C84 H112 0.930 . S
C85 C87 1.383 . S
C85 C88 1.382 . S
C85 H113 0.930 . S
C86 C84 1.369 . S
C86 C88 1.392 1_565 S
C86 H114 0.930 . S
C87 C83 1.373 . S
C87 C85 1.383 . S
C87 H115 0.931 . S
C88 C85 1.382 . S
C88 C86 1.392 1_545 S
C89 Eu80 2.828 . S
C89 C83 1.505 . S
C89 O101 1.249 . S
C89 O102 1.244 1_545 S
O90 Eu81 2.373 . S
O90 C92 1.258 . S
O91 Eu80 2.392 . S
O91 C92 1.243 1_545 S
C92 O90 1.258 . S
C92 O91 1.243 1_565 S
O93 Eu80 2.418 1_455 S
O93 C97 1.244 . S
O94 Eu81 2.488 . S
O94 C110 1.249 1_655 S
O95 Eu81 2.471 1_455 S
O95 C110 1.244 . S
O96 Eu81 2.349 1_455 S
O96 C97 1.265 1_565 S
C97 O93 1.244 . S
C97 O96 1.265 1_545 S
O98 Eu80 2.373 1_565 S
O98 C111 1.258 . S
O99 Eu81 2.392 . S
O99 C111 1.242 . S
O100 Eu81 2.418 . S
O100 C82 1.244 . S
O101 Eu80 2.488 . S
O101 C89 1.249 . S
O102 Eu80 2.471 1_565 S
O102 C89 1.244 1_565 S
O103 Eu80 2.349 1_565 S
O103 C82 1.265 . S
C104 C105 1.379 . S
C104 C108 1.373 . S
C104 C110 1.505 . S
C105 C104 1.379 . S
C105 C107 1.369 . S
C105 H116 0.930 . S
C106 C108 1.383 . S
C106 C109 1.382 . S
C106 H117 0.930 . S
C107 C105 1.369 . S
C107 C109 1.392 . S
C107 H118 0.930 . S
C108 C104 1.373 . S
C108 C106 1.383 . S
C108 H119 0.931 1_455 S
C109 C106 1.382 . S
C109 C107 1.392 . S
C110 Eu81 2.828 1_455 S
C110 O94 1.249 1_455 S
C110 O95 1.244 . S
C110 C104 1.505 . S
C111 O98 1.258 . S
C111 O99 1.242 . S
H112 C84 0.930 . S
H113 C85 0.930 . S
H114 C86 0.930 . S
H115 C87 0.931 . S
H116 C105 0.930 . S
H117 C106 0.930 . S
H118 C107 0.930 . S
H119 C108 0.931 1_655 S
C120 C121 1.391 1_655 S
C120 C122 1.394 1_565 S
C120 H136 0.931 . S
C121 C120 1.391 1_455 S
C121 C125 1.376 1_565 S
C122 C120 1.394 1_545 S
C122 C123 1.369 . S
C122 C126 1.531 . S
C123 C122 1.369 . S
C123 C124 1.410 1_655 S
C123 C131 1.503 . S
C124 C123 1.410 1_455 S
C124 C125 1.392 . S
C124 C127 1.511 . S
C125 C121 1.376 1_545 S
C125 C124 1.392 . S
C125 H137 0.929 . S
C126 C122 1.531 . S
C126 H138 0.960 . S
C126 H139 0.962 . S
C126 H140 0.960 . S
C127 C124 1.511 . S
C127 H141 0.961 . S
C127 H142 0.961 . S
C127 H143 0.961 . S
C128 C129 1.370 1_455 S
C128 C130 1.363 . S
C128 H144 0.931 . S
C129 C128 1.370 1_655 S
C129 C133 1.408 . S
C130 C128 1.363 . S
C130 C131 1.370 1_455 S
C130 C134 1.524 . S
C131 C123 1.503 . S
C131 C130 1.370 1_655 S
C131 C132 1.403 . S
C132 C131 1.403 . S
C132 C133 1.404 . S
C132 C135 1.539 . S
C133 C129 1.408 . S
C133 C132 1.404 . S
C133 H145 0.930 . S
C134 C130 1.524 . S
C134 H146 0.956 . S
C134 H147 0.961 . S
C134 H148 0.961 . S
C135 C132 1.539 . S
C135 H149 0.958 . S
C135 H150 0.961 . S
C135 H151 0.960 . S
H136 C120 0.931 . S
H137 C125 0.929 . S
H138 C126 0.960 . S
H139 C126 0.962 . S
H140 C126 0.960 . S
H141 C127 0.961 . S
H142 C127 0.961 . S
H143 C127 0.961 . S
H144 C128 0.931 . S
H145 C133 0.930 . S
H146 C134 0.956 . S
H147 C134 0.961 . S
H148 C134 0.961 . S
H149 C135 0.958 . S
H150 C135 0.961 . S
H151 C135 0.960 . S
C152 C153 1.391 . S
C152 C154 1.394 . S
C152 H168 0.931 . S
C153 C152 1.391 . S
C153 C157 1.376 1_545 S
C154 C152 1.394 . S
C154 C155 1.369 . S
C154 C158 1.531 . S
C155 C154 1.369 . S
C155 C156 1.410 1_545 S
C155 C163 1.503 . S
C156 C155 1.410 1_565 S
C156 C157 1.392 . S
C156 C159 1.511 . S
C157 C153 1.376 1_565 S
C157 C156 1.392 . S
C157 H169 0.929 . S
C158 C154 1.531 . S
C158 H170 0.960 . S
C158 H171 0.962 . S
C158 H172 0.960 . S
C159 C156 1.511 . S
C159 H173 0.961 . S
C159 H174 0.961 . S
C159 H175 0.961 . S
C160 C161 1.370 1_565 S
C160 C162 1.363 . S
C160 H176 0.931 . S
C161 C160 1.370 1_545 S
C161 C165 1.408 . S
C162 C160 1.363 . S
C162 C163 1.370 1_565 S
C162 C166 1.524 . S
C163 C155 1.503 . S
C163 C162 1.370 1_545 S
C163 C164 1.403 . S
C164 C163 1.403 . S
C164 C165 1.404 . S
C164 C167 1.539 . S
C165 C161 1.408 . S
C165 C164 1.404 . S
C165 H177 0.930 . S
C166 C162 1.524 . S
C166 H178 0.956 . S
C166 H179 0.961 . S
C166 H180 0.961 . S
C167 C164 1.539 . S
C167 H181 0.958 . S
C167 H182 0.961 . S
C167 H183 0.960 . S
H168 C152 0.931 . S
H169 C157 0.929 . S
H170 C158 0.960 . S
H171 C158 0.962 . S
H172 C158 0.960 . S
H173 C159 0.961 . S
H174 C159 0.961 . S
H175 C159 0.961 . S
H176 C160 0.931 . S
H177 C165 0.930 . S
H178 C166 0.956 . S
H179 C166 0.961 . S
H180 C166 0.961 . S
H181 C167 0.958 . S
H182 C167 0.961 . S
H183 C167 0.960 . S
C184 C185 1.391 . S
C184 C186 1.394 . S
C184 H200 0.931 . S
C185 C184 1.391 . S
C185 C189 1.376 . S
C186 C184 1.394 . S
C186 C187 1.369 . S
C186 C190 1.531 . S
C187 C186 1.369 . S
C187 C188 1.410 . S
C187 C195 1.503 . S
C188 C187 1.410 . S
C188 C189 1.392 . S
C188 C191 1.511 . S
C189 C185 1.376 . S
C189 C188 1.392 . S
C189 H201 0.929 . S
C190 C186 1.531 . S
C190 H202 0.960 . S
C190 H203 0.962 . S
C190 H204 0.960 . S
C191 C188 1.511 . S
C191 H205 0.961 . S
C191 H206 0.961 . S
C191 H207 0.961 . S
C192 C193 1.370 . S
C192 C194 1.363 . S
C192 H208 0.931 . S
C193 C192 1.370 . S
C193 C197 1.408 . S
C194 C192 1.363 . S
C194 C195 1.370 . S
C194 C198 1.524 . S
C195 C187 1.503 . S
C195 C194 1.370 . S
C195 C196 1.403 . S
C196 C195 1.403 . S
C196 C197 1.404 . S
C196 C199 1.539 . S
C197 C193 1.408 . S
C197 C196 1.404 . S
C197 H209 0.930 . S
C198 C194 1.524 . S
C198 H210 0.956 . S
C198 H211 0.961 . S
C198 H212 0.961 . S
C199 C196 1.539 . S
C199 H213 0.958 . S
C199 H214 0.961 . S
C199 H215 0.960 . S
H200 C184 0.931 . S
H201 C189 0.929 . S
H202 C190 0.960 . S
H203 C190 0.962 . S
H204 C190 0.960 . S
H205 C191 0.961 . S
H206 C191 0.961 . S
H207 C191 0.961 . S
H208 C192 0.931 . S
H209 C197 0.930 . S
H210 C198 0.956 . S
H211 C198 0.961 . S
H212 C198 0.961 . S
H213 C199 0.958 . S
H214 C199 0.961 . S
H215 C199 0.960 . S
C216 C217 1.391 . S
C216 C218 1.394 . S
C216 H232 0.931 . S
C217 C216 1.391 . S
C217 C221 1.376 1_545 S
C218 C216 1.394 . S
C218 C219 1.369 . S
C218 C222 1.531 . S
C219 C218 1.369 . S
C219 C220 1.410 1_545 S
C219 C227 1.503 . S
C220 C219 1.410 1_565 S
C220 C221 1.392 . S
C220 C223 1.511 . S
C221 C217 1.376 1_565 S
C221 C220 1.392 . S
C221 H233 0.929 . S
C222 C218 1.531 . S
C222 H234 0.960 . S
C222 H235 0.962 . S
C222 H236 0.960 . S
C223 C220 1.511 . S
C223 H237 0.961 . S
C223 H238 0.961 . S
C223 H239 0.961 . S
C224 C225 1.370 1_565 S
C224 C226 1.363 1_565 S
C224 H240 0.931 . S
C225 C224 1.370 1_545 S
C225 C229 1.408 1_554 S
C226 C224 1.363 1_545 S
C226 C227 1.370 1_554 S
C226 C230 1.524 1_545 S
C227 C219 1.503 . S
C227 C226 1.370 1_556 S
C227 C228 1.403 . S
C228 C227 1.403 . S
C228 C229 1.404 . S
C228 C231 1.539 . S
C229 C225 1.408 1_556 S
C229 C228 1.404 . S
C229 H241 0.930 . S
C230 C226 1.524 1_565 S
C230 H242 0.956 1_565 S
C230 H243 0.961 . S
C230 H244 0.961 . S
C231 C228 1.539 . S
C231 H245 0.958 . S
C231 H246 0.961 . S
C231 H247 0.960 . S
H232 C216 0.931 . S
H233 C221 0.929 . S
H234 C222 0.960 . S
H235 C222 0.962 . S
H236 C222 0.960 . S
H237 C223 0.961 . S
H238 C223 0.961 . S
H239 C223 0.961 . S
H240 C224 0.931 . S
H241 C229 0.930 . S
H242 C230 0.956 1_545 S
H243 C230 0.961 . S
H244 C230 0.961 . S
H245 C231 0.958 . S
H246 C231 0.961 . S
H247 C231 0.960 . S
C248 C249 1.391 . S
C248 C250 1.394 . S
C248 H264 0.931 . S
C249 C248 1.391 . S
C249 C253 1.376 . S
C250 C248 1.394 . S
C250 C251 1.369 . S
C250 C254 1.531 . S
C251 C250 1.369 . S
C251 C252 1.410 . S
C251 C259 1.503 . S
C252 C251 1.410 . S
C252 C253 1.392 . S
C252 C255 1.511 . S
C253 C249 1.376 . S
C253 C252 1.392 . S
C253 H265 0.929 . S
C254 C250 1.531 . S
C254 H266 0.960 . S
C254 H267 0.962 . S
C254 H268 0.960 . S
C255 C252 1.511 . S
C255 H269 0.961 . S
C255 H270 0.961 . S
C255 H271 0.961 . S
C256 C257 1.370 . S
C256 C258 1.363 . S
C256 H272 0.931 . S
C257 C256 1.370 . S
C257 C261 1.408 . S
C258 C256 1.363 . S
C258 C259 1.370 . S
C258 C262 1.524 . S
C259 C251 1.503 . S
C259 C258 1.370 . S
C259 C260 1.403 . S
C260 C259 1.403 . S
C260 C261 1.404 . S
C260 C263 1.539 . S
C261 C257 1.408 . S
C261 C260 1.404 . S
C261 H273 0.930 . S
C262 C258 1.524 . S
C262 H274 0.956 . S
C262 H275 0.961 . S
C262 H276 0.961 . S
C263 C260 1.539 . S
C263 H277 0.958 . S
C263 H278 0.961 . S
C263 H279 0.960 . S
H264 C248 0.931 . S
H265 C253 0.929 . S
H266 C254 0.960 . S
H267 C254 0.962 . S
H268 C254 0.960 . S
H269 C255 0.961 . S
H270 C255 0.961 . S
H271 C255 0.961 . S
H272 C256 0.931 . S
H273 C261 0.930 . S
H274 C262 0.956 . S
H275 C262 0.961 . S
H276 C262 0.961 . S
H277 C263 0.958 . S
H278 C263 0.961 . S
H279 C263 0.960 . S
C280 C281 1.391 1_545 S
C280 C282 1.394 . S
C280 H296 0.931 . S
C281 C280 1.391 1_565 S
C281 C285 1.376 . S
C282 C280 1.394 . S
C282 C283 1.369 1_545 S
C282 C286 1.531 . S
C283 C282 1.369 1_565 S
C283 C284 1.410 . S
C283 C291 1.503 . S
C284 C283 1.410 . S
C284 C285 1.392 . S
C284 C287 1.511 . S
C285 C281 1.376 . S
C285 C284 1.392 . S
C285 H297 0.929 . S
C286 C282 1.531 . S
C286 H298 0.960 . S
C286 H299 0.962 . S
C286 H300 0.960 . S
C287 C284 1.511 . S
C287 H301 0.961 . S
C287 H302 0.961 . S
C287 H303 0.961 . S
C288 C289 1.370 . S
C288 C290 1.363 . S
C288 H304 0.931 . S
C289 C288 1.370 . S
C289 C293 1.408 . S
C290 C288 1.363 . S
C290 C291 1.370 . S
C290 C294 1.524 . S
C291 C283 1.503 . S
C291 C290 1.370 . S
C291 C292 1.403 . S
C292 C291 1.403 . S
C292 C293 1.404 . S
C292 C295 1.539 1_565 S
C293 C289 1.408 . S
C293 C292 1.404 . S
C293 H305 0.930 1_565 S
C294 C290 1.524 . S
C294 H306 0.956 . S
C294 H307 0.961 . S
C294 H308 0.961 . S
C295 C292 1.539 1_545 S
C295 H309 0.958 1_655 S
C295 H310 0.961 1_655 S
C295 H311 0.960 1_655 S
H296 C280 0.931 . S
H297 C285 0.929 . S
H298 C286 0.960 . S
H299 C286 0.962 . S
H300 C286 0.960 . S
H301 C287 0.961 . S
H302 C287 0.961 . S
H303 C287 0.961 . S
H304 C288 0.931 . S
H305 C293 0.930 1_545 S
H306 C294 0.956 . S
H307 C294 0.961 . S
H308 C294 0.961 . S
H309 C295 0.958 1_455 S
H310 C295 0.961 1_455 S
H311 C295 0.960 1_455 S
C312 C313 1.391 . S
C312 C314 1.394 . S
C312 H328 0.931 . S
C313 C312 1.391 . S
C313 C317 1.376 1_655 S
C314 C312 1.394 . S
C314 C315 1.369 . S
C314 C318 1.531 . S
C315 C314 1.369 . S
C315 C316 1.410 1_655 S
C315 C323 1.503 1_556 S
C316 C315 1.410 1_455 S
C316 C317 1.392 . S
C316 C319 1.511 . S
C317 C313 1.376 1_455 S
C317 C316 1.392 . S
C317 H329 0.929 . S
C318 C314 1.531 . S
C318 H330 0.960 . S
C318 H331 0.962 . S
C318 H332 0.960 . S
C319 C316 1.511 . S
C319 H333 0.961 . S
C319 H334 0.961 1_556 S
C319 H335 0.961 1_556 S
C320 C321 1.370 . S
C320 C322 1.363 . S
C320 H336 0.931 . S
C321 C320 1.370 . S
C321 C325 1.408 . S
C322 C320 1.363 . S
C322 C323 1.370 . S
C322 C326 1.524 1_554 S
C323 C315 1.503 1_554 S
C323 C322 1.370 . S
C323 C324 1.403 . S
C324 C323 1.403 . S
C324 C325 1.404 . S
C324 C327 1.539 . S
C325 C321 1.408 . S
C325 C324 1.404 . S
C325 H337 0.930 . S
C326 C322 1.524 1_556 S
C326 H338 0.956 . S
C326 H339 0.961 . S
C326 H340 0.961 1_556 S
C327 C324 1.539 . S
C327 H341 0.958 . S
C327 H342 0.961 1_655 S
C327 H343 0.960 . S
H328 C312 0.931 . S
H329 C317 0.929 . S
H330 C318 0.960 . S
H331 C318 0.962 . S
H332 C318 0.960 . S
H333 C319 0.961 . S
H334 C319 0.961 1_554 S
H335 C319 0.961 1_554 S
H336 C320 0.931 . S
H337 C325 0.930 . S
H338 C326 0.956 . S
H339 C326 0.961 . S
H340 C326 0.961 1_554 S
H341 C327 0.958 . S
H342 C327 0.961 1_455 S
H343 C327 0.960 . S
C344 C345 1.391 . S
C344 C346 1.394 . S
C344 H360 0.931 . S
C345 C344 1.391 . S
C345 C349 1.376 . S
C346 C344 1.394 . S
C346 C347 1.369 . S
C346 C350 1.531 . S
C347 C346 1.369 . S
C347 C348 1.410 . S
C347 C355 1.503 . S
C348 C347 1.410 . S
C348 C349 1.392 . S
C348 C351 1.511 . S
C349 C345 1.376 . S
C349 C348 1.392 . S
C349 H361 0.929 . S
C350 C346 1.531 . S
C350 H362 0.960 . S
C350 H363 0.962 . S
C350 H364 0.960 . S
C351 C348 1.511 . S
C351 H365 0.961 . S
C351 H366 0.961 . S
C351 H367 0.961 . S
C352 C353 1.370 . S
C352 C354 1.363 . S
C352 H368 0.931 . S
C353 C352 1.370 . S
C353 C357 1.408 . S
C354 C352 1.363 . S
C354 C355 1.370 . S
C354 C358 1.524 . S
C355 C347 1.503 . S
C355 C354 1.370 . S
C355 C356 1.403 . S
C356 C355 1.403 . S
C356 C357 1.404 . S
C356 C359 1.539 . S
C357 C353 1.408 . S
C357 C356 1.404 . S
C357 H369 0.930 . S
C358 C354 1.524 . S
C358 H370 0.956 . S
C358 H371 0.961 . S
C358 H372 0.961 . S
C359 C356 1.539 . S
C359 H373 0.958 . S
C359 H374 0.961 . S
C359 H375 0.960 . S
H360 C344 0.931 . S
H361 C349 0.929 . S
H362 C350 0.960 . S
H363 C350 0.962 . S
H364 C350 0.960 . S
H365 C351 0.961 . S
H366 C351 0.961 . S
H367 C351 0.961 . S
H368 C352 0.931 . S
H369 C357 0.930 . S
H370 C358 0.956 . S
H371 C358 0.961 . S
H372 C358 0.961 . S
H373 C359 0.958 . S
H374 C359 0.961 . S
H375 C359 0.960 . S
C376 C377 1.391 . S
C376 C378 1.394 . S
C376 H392 0.931 . S
C377 C376 1.391 . S
C377 C381 1.376 . S
C378 C376 1.394 . S
C378 C379 1.369 . S
C378 C382 1.531 . S
C379 C378 1.369 . S
C379 C380 1.410 . S
C379 C387 1.503 . S
C380 C379 1.410 . S
C380 C381 1.392 . S
C380 C383 1.511 . S
C381 C377 1.376 . S
C381 C380 1.392 . S
C381 H393 0.929 . S
C382 C378 1.531 . S
C382 H394 0.960 . S
C382 H395 0.962 . S
C382 H396 0.960 . S
C383 C380 1.511 . S
C383 H397 0.961 . S
C383 H398 0.961 . S
C383 H399 0.961 1_455 S
C384 C385 1.370 1_455 S
C384 C386 1.363 . S
C384 H400 0.931 . S
C385 C384 1.370 1_655 S
C385 C389 1.408 . S
C386 C384 1.363 . S
C386 C387 1.370 . S
C386 C390 1.524 . S
C387 C379 1.503 . S
C387 C386 1.370 . S
C387 C388 1.403 1_455 S
C388 C387 1.403 1_655 S
C388 C389 1.404 . S
C388 C391 1.539 . S
C389 C385 1.408 . S
C389 C388 1.404 . S
C389 H401 0.930 . S
C390 C386 1.524 . S
C390 H402 0.956 . S
C390 H403 0.961 . S
C390 H404 0.961 . S
C391 C388 1.539 . S
C391 H405 0.958 . S
C391 H406 0.961 . S
C391 H407 0.960 . S
H392 C376 0.931 . S
H393 C381 0.929 . S
H394 C382 0.960 . S
H395 C382 0.962 . S
H396 C382 0.960 . S
H397 C383 0.961 . S
H398 C383 0.961 . S
H399 C383 0.961 1_655 S
H400 C384 0.931 . S
H401 C389 0.930 . S
H402 C390 0.956 . S
H403 C390 0.961 . S
H404 C390 0.961 . S
H405 C391 0.958 . S
H406 C391 0.961 . S
H407 C391 0.960 . S
C121 C17 1.531 1_455 S
C129 C2 1.582 1_655 S
C153 C42 1.665 1_545 S
C161 C57 1.641 1_455 S
C185 C97 1.394 . S
C193 C82 1.355 . S
C217 C88 0.971 . S
C225 C29 0.973 1_545 S
C249 C52 1.866 . S
C257 C8 1.841 . S
C281 C92 2.390 . S
C289 C71 2.363 . S
C313 C111 2.327 . S
C321 C12 2.285 . S
C345 C31 1.857 . S
C353 C69 1.740 . S
C377 C109 0.958 . S
C385 C48 1.041 . S
