# Generated by pormake.
# Topology fng, (5)-cn, num edge types: 1
# Building blocks:
#     Node 0, Type 0, BuildingBlock: BEQFEK_clean_sbu_0, # of connection points: 5
#     Node 1, Type 0, BuildingBlock: BEQFEK_clean_sbu_0, # of connection points: 5
#     Node 2, Type 0, BuildingBlock: BEQFEK_clean_sbu_0, # of connection points: 5
#     Node 3, Type 0, BuildingBlock: BEQFEK_clean_sbu_0, # of connection points: 5
#     Node 4, Type 0, BuildingBlock: BEQFEK_clean_sbu_0, # of connection points: 5
#     Node 5, Type 0, BuildingBlock: BEQFEK_clean_sbu_0, # of connection points: 5
#     Node 6, Type 0, BuildingBlock: BEQFEK_clean_sbu_0, # of connection points: 5
#     Node 7, Type 0, BuildingBlock: BEQFEK_clean_sbu_0, # of connection points: 5
#     Node 8, Type 0, BuildingBlock: BEQFEK_clean_sbu_0, # of connection points: 5
#     Node 9, Type 0, BuildingBlock: BEQFEK_clean_sbu_0, # of connection points: 5
#     Node 10, Type 0, BuildingBlock: BEQFEK_clean_sbu_0, # of connection points: 5
#     Node 11, Type 0, BuildingBlock: BEQFEK_clean_sbu_0, # of connection points: 5
#     Node 12, Type 0, BuildingBlock: BEQFEK_clean_sbu_0, # of connection points: 5
#     Node 13, Type 0, BuildingBlock: BEQFEK_clean_sbu_0, # of connection points: 5
#     Node 14, Type 0, BuildingBlock: BEQFEK_clean_sbu_0, # of connection points: 5
#     Node 15, Type 0, BuildingBlock: BEQFEK_clean_sbu_0, # of connection points: 5
#     Node 16, Type 0, BuildingBlock: BEQFEK_clean_sbu_0, # of connection points: 5
#     Node 17, Type 0, BuildingBlock: BEQFEK_clean_sbu_0, # of connection points: 5
#     Edge 18, Type (0, 0), BuildingBlock: XUDNAN_clean_linker_2, # of connection points: 2
#     Edge 19, Type (0, 0), BuildingBlock: XUDNAN_clean_linker_2, # of connection points: 2
#     Edge 20, Type (0, 0), BuildingBlock: XUDNAN_clean_linker_2, # of connection points: 2
#     Edge 21, Type (0, 0), BuildingBlock: XUDNAN_clean_linker_2, # of connection points: 2
#     Edge 22, Type (0, 0), BuildingBlock: XUDNAN_clean_linker_2, # of connection points: 2
#     Edge 23, Type (0, 0), BuildingBlock: XUDNAN_clean_linker_2, # of connection points: 2
#     Edge 24, Type (0, 0), BuildingBlock: XUDNAN_clean_linker_2, # of connection points: 2
#     Edge 25, Type (0, 0), BuildingBlock: XUDNAN_clean_linker_2, # of connection points: 2
#     Edge 26, Type (0, 0), BuildingBlock: XUDNAN_clean_linker_2, # of connection points: 2
#     Edge 27, Type (0, 0), BuildingBlock: XUDNAN_clean_linker_2, # of connection points: 2
#     Edge 28, Type (0, 0), BuildingBlock: XUDNAN_clean_linker_2, # of connection points: 2
#     Edge 29, Type (0, 0), BuildingBlock: XUDNAN_clean_linker_2, # of connection points: 2
#     Edge 30, Type (0, 0), BuildingBlock: XUDNAN_clean_linker_2, # of connection points: 2
#     Edge 31, Type (0, 0), BuildingBlock: XUDNAN_clean_linker_2, # of connection points: 2
#     Edge 32, Type (0, 0), BuildingBlock: XUDNAN_clean_linker_2, # of connection points: 2
#     Edge 33, Type (0, 0), BuildingBlock: XUDNAN_clean_linker_2, # of connection points: 2
#     Edge 34, Type (0, 0), BuildingBlock: XUDNAN_clean_linker_2, # of connection points: 2
#     Edge 35, Type (0, 0), BuildingBlock: XUDNAN_clean_linker_2, # of connection points: 2
#     Edge 36, Type (0, 0), BuildingBlock: XUDNAN_clean_linker_2, # of connection points: 2
#     Edge 37, Type (0, 0), BuildingBlock: XUDNAN_clean_linker_2, # of connection points: 2
#     Edge 38, Type (0, 0), BuildingBlock: XUDNAN_clean_linker_2, # of connection points: 2
#     Edge 39, Type (0, 0), BuildingBlock: XUDNAN_clean_linker_2, # of connection points: 2
#     Edge 40, Type (0, 0), BuildingBlock: XUDNAN_clean_linker_2, # of connection points: 2
#     Edge 41, Type (0, 0), BuildingBlock: XUDNAN_clean_linker_2, # of connection points: 2
#     Edge 42, Type (0, 0), BuildingBlock: XUDNAN_clean_linker_2, # of connection points: 2
#     Edge 43, Type (0, 0), BuildingBlock: XUDNAN_clean_linker_2, # of connection points: 2
#     Edge 44, Type (0, 0), BuildingBlock: XUDNAN_clean_linker_2, # of connection points: 2
#     Edge 45, Type (0, 0), BuildingBlock: XUDNAN_clean_linker_2, # of connection points: 2
#     Edge 46, Type (0, 0), BuildingBlock: XUDNAN_clean_linker_2, # of connection points: 2
#     Edge 47, Type (0, 0), BuildingBlock: XUDNAN_clean_linker_2, # of connection points: 2
#     Edge 48, Type (0, 0), BuildingBlock: XUDNAN_clean_linker_2, # of connection points: 2
#     Edge 49, Type (0, 0), BuildingBlock: XUDNAN_clean_linker_2, # of connection points: 2
#     Edge 50, Type (0, 0), BuildingBlock: XUDNAN_clean_linker_2, # of connection points: 2
#     Edge 51, Type (0, 0), BuildingBlock: XUDNAN_clean_linker_2, # of connection points: 2
#     Edge 52, Type (0, 0), BuildingBlock: XUDNAN_clean_linker_2, # of connection points: 2
#     Edge 53, Type (0, 0), BuildingBlock: XUDNAN_clean_linker_2, # of connection points: 2
#     Edge 54, Type (0, 0), BuildingBlock: XUDNAN_clean_linker_2, # of connection points: 2
#     Edge 55, Type (0, 0), BuildingBlock: XUDNAN_clean_linker_2, # of connection points: 2
#     Edge 56, Type (0, 0), BuildingBlock: XUDNAN_clean_linker_2, # of connection points: 2
#     Edge 57, Type (0, 0), BuildingBlock: XUDNAN_clean_linker_2, # of connection points: 2
#     Edge 58, Type (0, 0), BuildingBlock: XUDNAN_clean_linker_2, # of connection points: 2
#     Edge 59, Type (0, 0), BuildingBlock: XUDNAN_clean_linker_2, # of connection points: 2
#     Edge 60, Type (0, 0), BuildingBlock: XUDNAN_clean_linker_2, # of connection points: 2
#     Edge 61, Type (0, 0), BuildingBlock: XUDNAN_clean_linker_2, # of connection points: 2
#     Edge 62, Type (0, 0), BuildingBlock: XUDNAN_clean_linker_2, # of connection points: 2
# Relax obj value: 0.329
# Max RMSD: 0.245
# Mean RMSD: 0.245
data_MOF--net-fng--node1-BEQFEK_clean_sbu_0--edge1-XUDNAN_clean_linker_2
_symmetry_space_group_name_H-M    P1
_symmetry_Int_Tables_number       1
_symmetry_cell_setting            triclinic
loop_
_symmetry_equiv_pos_as_xyz
'x, y, z'
_cell_length_a     76.122602
_cell_length_b     76.158972
_cell_length_c     18.160667
_cell_angle_alpha  89.955101
_cell_angle_beta   90.03763
_cell_angle_gamma 119.99465
loop_
_atom_site_label
_atom_site_type_symbol
_atom_site_fract_x
_atom_site_fract_y
_atom_site_fract_z
_atom_type_partial_charge
Co0 Co 0.1075 0.22122 0.06851 0.0
Co1 Co 0.10144 0.20517 0.22792 0.0
C2 C 0.0664 0.19078 0.1259 0.0
O3 O 0.07813 0.20144 0.07433 0.0
O4 O 0.07333 0.19088 0.18965 0.0
C5 C 0.09618 0.23731 0.9514 0.0
O6 O 0.08197 0.23483 0.99825 0.0
C7 C 0.08802 0.20097 0.37895 0.0
C8 C 0.11018 0.1951 0.43632 0.0
C9 C 0.09446 0.19903 0.44828 0.0
N10 N 0.09978 0.19888 0.32885 0.0
N11 N 0.11258 0.19474 0.36315 0.0
C12 C 0.07278 0.20727 0.36013 0.0
H13 H 0.07542 0.21371 0.30374 0.0
H14 H 0.07342 0.21856 0.40016 0.0
H15 H 0.05736 0.19376 0.36237 0.0
C16 C 0.12485 0.26085 0.14722 0.0
N17 N 0.11615 0.24048 0.14635 0.0
N18 N 0.11427 0.23384 0.21444 0.0
C19 C 0.1223 0.24988 0.26071 0.0
C20 C 0.12902 0.2675 0.21966 0.0
C21 C 0.12958 0.27372 0.07978 0.0
H22 H 0.13611 0.26833 0.03681 0.0
H23 H 0.11533 0.27235 0.05795 0.0
H24 H 0.1404 0.2899 0.09209 0.0
O25 O 0.12344 0.20684 0.06707 0.0
O26 O 0.1182 0.19522 0.1818 0.0
H27 H 0.12687 0.23665 0.35803 0.0
H28 H 0.13428 0.26286 0.36843 0.0
C29 C 0.12302 0.24839 0.34282 0.0
H30 H 0.10804 0.24436 0.36603 0.0
H31 H 0.12381 0.19301 0.33688 0.0
O32 O 0.11029 0.23415 0.97269 0.0
C33 C 0.12612 0.19704 0.11857 0.0
Co34 Co 0.76801 0.88244 0.02795 0.0
Co35 Co 0.79275 0.89773 0.17596 0.0
C36 C 0.80116 0.8733 0.07004 0.0
O37 O 0.78752 0.87279 0.02817 0.0
O38 O 0.80494 0.88185 0.13306 0.0
C39 C 0.75582 0.86313 0.88915 0.0
O40 O 0.76084 0.84988 0.91219 0.0
C41 C 0.8053 0.89877 0.33272 0.0
C42 C 0.80862 0.92825 0.36468 0.0
C43 C 0.80835 0.91125 0.39333 0.0
N44 N 0.80294 0.90773 0.27242 0.0
N45 N 0.80558 0.92559 0.29185 0.0
C46 C 0.80507 0.87898 0.33123 0.0
H47 H 0.81106 0.87719 0.27782 0.0
H48 H 0.78935 0.86618 0.33687 0.0
H49 H 0.81433 0.8782 0.377 0.0
C50 C 0.73318 0.86781 0.13081 0.0
N51 N 0.7532 0.87638 0.11669 0.0
N52 N 0.76344 0.88257 0.17885 0.0
C53 C 0.7501 0.878 0.23461 0.0
C54 C 0.73054 0.86866 0.20614 0.0
C55 C 0.71721 0.86045 0.07238 0.0
H56 H 0.72247 0.87137 0.0259 0.0
H57 H 0.71471 0.84574 0.05093 0.0
H58 H 0.70267 0.85842 0.094 0.0
O59 O 0.78399 0.91177 0.01332 0.0
O60 O 0.80231 0.92294 0.11525 0.0
H61 H 0.76472 0.89861 0.32382 0.0
H62 H 0.74248 0.87528 0.35121 0.0
C63 C 0.75583 0.88204 0.31422 0.0
H64 H 0.76515 0.87521 0.32889 0.0
H65 H 0.80406 0.93547 0.25607 0.0
O66 O 0.75156 0.8727 0.93674 0.0
C67 C 0.79741 0.92614 0.05169 0.0
Co68 Co 0.11628 0.88792 0.01603 0.0
Co69 Co 0.09761 0.88809 0.16842 0.0
C70 C 0.12115 0.92611 0.07726 0.0
O71 O 0.12454 0.91669 0.02677 0.0
O72 O 0.11096 0.91686 0.13419 0.0
C73 C 0.14242 0.90095 0.89238 0.0
O74 O 0.15329 0.91705 0.93328 0.0
C75 C 0.10499 0.90064 0.31992 0.0
C76 C 0.07672 0.87858 0.37597 0.0
C77 C 0.09628 0.89438 0.38897 0.0
N78 N 0.09138 0.88888 0.26903 0.0
N79 N 0.07431 0.87604 0.30253 0.0
C80 C 0.12672 0.91551 0.30229 0.0
H81 H 0.1307 0.91279 0.24638 0.0
H82 H 0.13704 0.91449 0.34308 0.0
H83 H 0.12904 0.93108 0.30408 0.0
C84 C 0.13795 0.8721 0.10661 0.0
N85 N 0.12441 0.87843 0.09788 0.0
N86 N 0.11551 0.87722 0.16138 0.0
C87 C 0.1227 0.86937 0.21186 0.0
C88 C 0.1373 0.86621 0.17928 0.0
C89 C 0.15174 0.87255 0.04717 0.0
H90 H 0.16123 0.88835 0.02727 0.0
H91 H 0.16164 0.86669 0.067 0.0
H92 H 0.14251 0.86329 -6e-05 0.0
O93 O 0.08646 0.87198 0.00364 0.0
O94 O 0.07234 0.87133 0.11121 0.0
H95 H 0.11746 0.85146 0.30987 0.0
H96 H 0.12455 0.87734 0.32568 0.0
C97 C 0.11544 0.86411 0.28965 0.0
H98 H 0.0992 0.85954 0.29359 0.0
H99 H 0.0615 0.86477 0.27566 0.0
O100 O 0.12755 0.88547 0.92146 0.0
C101 C 0.07078 0.86642 0.04345 0.0
Co102 Co 0.22902 0.11175 0.00128 0.0
Co103 Co 0.20635 0.10533 0.85129 0.0
C104 C 0.19549 0.07092 0.95572 0.0
O105 O 0.20878 0.083 0.00072 0.0
O106 O 0.193 0.07696 0.89312 0.0
C107 C 0.24353 0.10343 0.13427 0.0
O108 O 0.23445 0.08478 0.10891 0.0
C109 C 0.20318 0.09633 0.69485 0.0
C110 C 0.1919 0.11605 0.65266 0.0
C111 C 0.20025 0.10436 0.63056 0.0
N112 N 0.19757 0.10358 0.7521 0.0
N113 N 0.19003 0.11467 0.72637 0.0
C114 C 0.21403 0.08456 0.70259 0.0
H115 H 0.21808 0.08403 0.76094 0.0
H116 H 0.22783 0.09116 0.66768 0.0
H117 H 0.20389 0.06884 0.68304 0.0
C118 C 0.26502 0.13045 0.90554 0.0
N119 N 0.24478 0.11995 0.91526 0.0
N120 N 0.23563 0.11897 0.85259 0.0
C121 C 0.25 0.12969 0.8015 0.0
C122 C 0.26898 0.1368 0.83285 0.0
C123 C 0.28009 0.13532 0.96604 0.0
H124 H 0.27508 0.1219 0.00222 0.0
H125 H 0.29539 0.14003 0.94369 0.0
H126 H 0.2809 0.14783 -0.00012 0.0
O127 O 0.21438 0.12679 0.01105 0.0
O128 O 0.19706 0.12182 0.90743 0.0
H129 H 0.25876 0.1523 0.71624 0.0
H130 H 0.24559 0.1267 0.68479 0.0
C131 C 0.24621 0.13684 0.72954 0.0
H132 H 0.23192 0.1373 0.73153 0.0
H133 H 0.18552 0.12292 0.75935 0.0
O134 O 0.24502 0.11761 0.09301 0.0
C135 C 0.20207 0.12945 0.97173 0.0
Co136 Co 0.88105 0.11052 0.97352 0.0
Co137 Co 0.89796 0.10704 0.82139 0.0
C138 C 0.92561 0.12592 0.94763 0.0
O139 O 0.91023 0.12196 0.9864 0.0
O140 O 0.92383 0.12183 0.87915 0.0
C141 C 0.884 0.13395 0.09653 0.0
O142 O 0.89656 0.14889 0.05377 0.0
C143 C 0.91452 0.12087 0.6738 0.0
C144 C 0.89898 0.09207 0.61214 0.0
C145 C 0.91072 0.1129 0.6027 0.0
N146 N 0.90459 0.10551 0.7216 0.0
N147 N 0.8959 0.08829 0.68461 0.0
C148 C 0.92733 0.14251 0.69724 0.0
H149 H 0.93498 0.14324 0.75009 0.0
H150 H 0.91767 0.14937 0.70679 0.0
H151 H 0.93891 0.15143 0.65485 0.0
C152 C 0.86199 0.12874 0.88196 0.0
N153 N 0.87482 0.12152 0.89078 0.0
N154 N 0.88125 0.11942 0.82582 0.0
C155 C 0.87217 0.12476 0.77341 0.0
C156 C 0.86015 0.1313 0.80724 0.0
C157 C 0.85085 0.13182 0.9438 0.0
H158 H 0.86196 0.14333 0.9822 0.0
H159 H 0.84042 0.137 0.92376 0.0
H160 H 0.84219 0.11745 0.97495 0.0
O161 O 0.86858 0.08081 0.96402 0.0
O162 O 0.88175 0.07862 0.85757 0.0
H163 H 0.85732 0.11792 0.66701 0.0
H164 H 0.88437 0.13244 0.66435 0.0
C165 C 0.87137 0.11985 0.69311 0.0
H166 H 0.87169 0.10562 0.68554 0.0
H167 H 0.88667 0.07409 0.70832 0.0
O168 O 0.87292 0.11647 0.0687 0.0
C169 C 0.87071 0.07031 0.91402 0.0
Co170 Co 0.88548 0.77593 0.93912 0.0
Co171 Co 0.89537 0.79382 0.78217 0.0
C172 C 0.8767 0.80839 0.8936 0.0
O173 O 0.87645 0.79619 0.94173 0.0
O174 O 0.88371 0.80902 0.82959 0.0
C175 C 0.85967 0.75914 0.05963 0.0
O176 O 0.84621 0.75913 0.01437 0.0
C177 C 0.88384 0.79933 0.63566 0.0
C178 C 0.91084 0.80554 0.57058 0.0
C179 C 0.89108 0.80174 0.56418 0.0
N180 N 0.89838 0.80084 0.68148 0.0
N181 N 0.91469 0.80511 0.64258 0.0
C182 C 0.86354 0.79568 0.6609 0.0
H183 H 0.86552 0.80567 0.70817 0.0
H184 H 0.85418 0.77981 0.68014 0.0
H185 H 0.85547 0.79878 0.6164 0.0
C186 C 0.86157 0.73725 0.85458 0.0
N187 N 0.8737 0.75756 0.85925 0.0
N188 N 0.87838 0.76521 0.79236 0.0
C189 C 0.86972 0.74994 0.74316 0.0
C190 C 0.85849 0.73186 0.78072 0.0
C191 C 0.85285 0.72345 0.91949 0.0
H192 H 0.84033 0.72515 0.94286 0.0
H193 H 0.84674 0.70735 0.90387 0.0
H194 H 0.86463 0.72775 0.96259 0.0
O195 O 0.91579 0.78978 0.93617 0.0
O196 O 0.92239 0.80211 0.82239 0.0
H197 H 0.87102 0.73749 0.63775 0.0
H198 H 0.86328 0.75614 0.63467 0.0
C199 C 0.8737 0.752 0.66197 0.0
H200 H 0.88959 0.7638 0.6508 0.0
H201 H 0.928 0.80657 0.66478 0.0
O202 O 0.87676 0.76277 0.03474 0.0
C203 C 0.92835 0.79951 0.88481 0.0
Co204 Co 0.77693 0.55053 0.40469 0.0
Co205 Co 0.76874 0.53507 0.56444 0.0
C206 C 0.73523 0.51981 0.45518 0.0
O207 O 0.74751 0.53083 0.40553 0.0
O208 O 0.74138 0.51996 0.52035 0.0
C209 C 0.76737 0.56692 0.28512 0.0
O210 O 0.75536 0.56848 0.33325 0.0
C211 C 0.75162 0.52963 0.71039 0.0
C212 C 0.77379 0.52604 0.77786 0.0
C213 C 0.75657 0.52784 0.78226 0.0
N214 N 0.7656 0.52944 0.66594 0.0
N215 N 0.77856 0.52683 0.70624 0.0
C216 C 0.73376 0.53102 0.68328 0.0
H217 H 0.72365 0.51703 0.65214 0.0
H218 H 0.73884 0.54391 0.64446 0.0
H219 H 0.72485 0.53237 0.72888 0.0
C220 C 0.79318 0.59051 0.48019 0.0
N221 N 0.78444 0.57014 0.48044 0.0
N222 N 0.78106 0.56362 0.54893 0.0
C223 C 0.78773 0.57972 0.59457 0.0
C224 C 0.79548 0.59726 0.55241 0.0
C225 C 0.79992 0.60336 0.41231 0.0
H226 H 0.80549 0.59664 0.37074 0.0
H227 H 0.78685 0.60407 0.38867 0.0
H228 H 0.81209 0.61903 0.42522 0.0
O229 O 0.79274 0.5362 0.41063 0.0
O230 O 0.78648 0.52514 0.52599 0.0
H231 H 0.79178 0.56855 0.69783 0.0
H232 H 0.79403 0.59322 0.70399 0.0
C233 C 0.78585 0.57824 0.67674 0.0
H234 H 0.76967 0.57129 0.69194 0.0
H235 H 0.79115 0.52652 0.68513 0.0
O236 O 0.78039 0.56228 0.30698 0.0
C237 C 0.795 0.52667 0.46416 0.0
Co238 Co 0.43447 0.22215 0.37521 0.0
Co239 Co 0.45608 0.22656 0.52693 0.0
C240 C 0.46288 0.20545 0.40515 0.0
O241 O 0.45149 0.20959 0.36652 0.0
O242 O 0.4661 0.21036 0.47296 0.0
C243 C 0.41811 0.20175 0.24192 0.0
O244 O 0.41563 0.18543 0.27583 0.0
C245 C 0.46514 0.21953 0.68092 0.0
C246 C 0.47626 0.25023 0.72617 0.0
C247 C 0.47154 0.2308 0.74555 0.0
N248 N 0.46567 0.23178 0.62632 0.0
N249 N 0.47271 0.25016 0.65379 0.0
C250 C 0.45941 0.19781 0.6704 0.0
H251 H 0.45285 0.19246 0.61477 0.0
H252 H 0.44846 0.18805 0.71303 0.0
H253 H 0.47318 0.19644 0.67643 0.0
C254 C 0.39818 0.20618 0.47222 0.0
N255 N 0.41804 0.21287 0.46062 0.0
N256 N 0.42704 0.21438 0.52424 0.0
C257 C 0.4131 0.20869 0.57831 0.0
C258 C 0.39442 0.20344 0.54739 0.0
C259 C 0.38365 0.20411 0.41285 0.0
H260 H 0.39102 0.21733 0.37516 0.0
H261 H 0.37968 0.19032 0.3801 0.0
H262 H 0.36958 0.20286 0.436 0.0
O263 O 0.45237 0.25178 0.37825 0.0
O264 O 0.46838 0.25419 0.48297 0.0
H265 H 0.42871 0.22365 0.6773 0.0
H266 H 0.40369 0.20222 0.69302 0.0
C267 C 0.41748 0.20819 0.65842 0.0
H268 H 0.42383 0.19808 0.66619 0.0
H269 H 0.47429 0.26254 0.62382 0.0
O270 O 0.4197 0.21637 0.28066 0.0
C271 C 0.46564 0.26235 0.4262 0.0
Co272 Co 0.7841 0.21569 0.32893 0.0
Co273 Co 0.77251 0.22714 0.47997 0.0
C274 C 0.79967 0.25886 0.37077 0.0
O275 O 0.7982 0.24514 0.32762 0.0
O276 O 0.79093 0.25442 0.43336 0.0
C277 C 0.80841 0.22045 0.20537 0.0
O278 O 0.82256 0.23456 0.2469 0.0
C279 C 0.78374 0.24047 0.63101 0.0
C280 C 0.75405 0.22671 0.68699 0.0
C281 C 0.7748 0.23678 0.70035 0.0
N282 N 0.76897 0.23235 0.58007 0.0
N283 N 0.75126 0.22471 0.61361 0.0
C284 C 0.80574 0.24898 0.61301 0.0
H285 H 0.80763 0.24529 0.55553 0.0
H286 H 0.81291 0.24309 0.65145 0.0
H287 H 0.81367 0.26572 0.61869 0.0
C288 C 0.79675 0.19266 0.42652 0.0
N289 N 0.78957 0.20543 0.41517 0.0
N290 N 0.78317 0.20882 0.47806 0.0
C291 C 0.78511 0.19736 0.53077 0.0
C292 C 0.79411 0.18708 0.50021 0.0
C293 C 0.80461 0.18496 0.36669 0.0
H294 H 0.79269 0.17733 0.32412 0.0
H295 H 0.81778 0.19798 0.33986 0.0
H296 H 0.80919 0.1742 0.38824 0.0
O297 O 0.75492 0.20649 0.322 0.0
O298 O 0.74574 0.21418 0.42804 0.0
H299 H 0.76388 0.19689 0.60987 0.0
H300 H 0.77356 0.18048 0.63263 0.0
C301 C 0.77754 0.19532 0.60827 0.0
H302 H 0.78961 0.20706 0.64318 0.0
H303 H 0.73728 0.21682 0.58692 0.0
O304 O 0.79151 0.208 0.23469 0.0
C305 C 0.74153 0.20678 0.36316 0.0
Co306 Co 0.90003 0.44329 0.33197 0.0
Co307 Co 0.88103 0.44395 0.1813 0.0
C308 C 0.86991 0.40491 0.26176 0.0
O309 O 0.88169 0.41426 0.31512 0.0
O310 O 0.86838 0.41444 0.20662 0.0
C311 C 0.91163 0.43254 0.4669 0.0
O312 O 0.89974 0.41383 0.44451 0.0
C313 C 0.87777 0.43725 0.02449 0.0
C314 C 0.87096 0.46069 0.98542 0.0
C315 C 0.8764 0.44676 0.96154 0.0
N316 N 0.8739 0.44559 0.08281 0.0
N317 N 0.86909 0.45905 0.05913 0.0
C318 C 0.88588 0.42297 0.03038 0.0
H319 H 0.89182 0.42337 0.08652 0.0
H320 H 0.898 0.42666 0.98919 0.0
H321 H 0.87338 0.40734 0.01915 0.0
C322 C 0.93775 0.46277 0.24321 0.0
N323 N 0.91766 0.45531 0.25132 0.0
N324 N 0.91005 0.45754 0.1893 0.0
C325 C 0.92542 0.46769 0.14114 0.0
C326 C 0.94335 0.47095 0.17313 0.0
C327 C 0.9511 0.46169 0.30133 0.0
H328 H 0.95173 0.4711 0.34899 0.0
H329 H 0.94442 0.44583 0.32101 0.0
H330 H 0.96671 0.4672 0.28064 0.0
O331 O 0.88377 0.45667 0.3512 0.0
O332 O 0.87 0.45727 0.2444 0.0
H333 H 0.91037 0.47687 0.06288 0.0
H334 H 0.93717 0.48816 0.04859 0.0
C335 C 0.92327 0.47406 0.06523 0.0
H336 H 0.92103 0.46214 0.02528 0.0
H337 H 0.86633 0.46837 0.09354 0.0
O338 O 0.91525 0.44712 0.42386 0.0
C339 C 0.87266 0.46129 0.31282 0.0
Co340 Co 0.55336 0.45022 0.31254 0.0
Co341 Co 0.56297 0.43513 0.16417 0.0
C342 C 0.59542 0.4588 0.27392 0.0
O343 O 0.58231 0.45955 0.31497 0.0
O344 O 0.59073 0.45043 0.21063 0.0
C345 C 0.56099 0.47078 0.44892 0.0
O346 O 0.57813 0.48511 0.42123 0.0
C347 C 0.5761 0.43749 0.00833 0.0
C348 C 0.55344 0.4068 0.97062 0.0
C349 C 0.56883 0.42536 0.94574 0.0
N350 N 0.56489 0.42672 0.06653 0.0
N351 N 0.55178 0.40824 0.04369 0.0
C352 C 0.59359 0.45873 0.01339 0.0
H353 H 0.60169 0.46085 0.06634 0.0
H354 H 0.5881 0.46973 0.01208 0.0
H355 H 0.60425 0.46208 0.9668 0.0
C356 C 0.5335 0.46519 0.21008 0.0
N357 N 0.54521 0.45689 0.22365 0.0
N358 N 0.54874 0.45023 0.16157 0.0
C359 C 0.53903 0.45387 0.10654 0.0
C360 C 0.52908 0.46345 0.13535 0.0
C361 C 0.52505 0.47253 0.26906 0.0
H362 H 0.51665 0.46017 0.30947 0.0
H363 H 0.53775 0.48526 0.29897 0.0
H364 H 0.51478 0.47759 0.24627 0.0
O365 O 0.53963 0.42076 0.3238 0.0
O366 O 0.54659 0.40943 0.22174 0.0
H367 H 0.53299 0.43116 0.02517 0.0
H368 H 0.52903 0.45129 0.99238 0.0
C369 C 0.53858 0.44766 0.02796 0.0
H370 H 0.55405 0.45595 0.00512 0.0
H371 H 0.54091 0.39691 0.07735 0.0
O372 O 0.5467 0.45964 0.40481 0.0
C373 C 0.53834 0.40629 0.28508 0.0
Co374 Co 0.55675 0.11604 0.28249 0.0
Co375 Co 0.56183 0.13036 0.12126 0.0
C376 C 0.54074 0.14296 0.22309 0.0
O377 O 0.54391 0.13347 0.27433 0.0
O378 O 0.54692 0.14318 0.15803 0.0
C379 C 0.52892 0.09704 0.39473 0.0
O380 O 0.51677 0.0975 0.34434 0.0
C381 C 0.55418 0.13487 0.96555 0.0
C382 C 0.57983 0.13353 0.91452 0.0
C383 C 0.56209 0.13364 0.89816 0.0
N384 N 0.56636 0.13473 0.0189 0.0
N385 N 0.58198 0.13459 0.98795 0.0
C386 C 0.53434 0.134 0.97949 0.0
H387 H 0.52953 0.13 0.03749 0.0
H388 H 0.52235 0.12272 0.94283 0.0
H389 H 0.53606 0.14908 0.96776 0.0
C390 C 0.54139 0.07619 0.20853 0.0
N391 N 0.54816 0.09624 0.20745 0.0
N392 N 0.54746 0.10192 0.13999 0.0
C393 C 0.53848 0.08538 0.09652 0.0
C394 C 0.53473 0.06829 0.13771 0.0
C395 C 0.54329 0.06569 0.27523 0.0
H396 H 0.55533 0.07679 0.31221 0.0
H397 H 0.52875 0.05854 0.30602 0.0
H398 H 0.54709 0.05391 0.25948 0.0
O399 O 0.58647 0.13301 0.28239 0.0
O400 O 0.58951 0.14322 0.16637 0.0
H401 H 0.5434 0.08975 0.98008 0.0
H402 H 0.51755 0.07116 0.00576 0.0
C403 C 0.53107 0.08581 0.02059 0.0
H404 H 0.52638 0.09733 0.01824 0.0
H405 H 0.5934 0.13385 0.01718 0.0
O406 O 0.54726 0.10291 0.37815 0.0
C407 C 0.59743 0.14324 0.22831 0.0
Co408 Co 0.45372 0.90184 0.68722 0.0
Co409 Co 0.43973 0.87618 0.83324 0.0
C410 C 0.40985 0.86795 0.71941 0.0
O411 O 0.42439 0.88168 0.68204 0.0
O412 O 0.41257 0.86371 0.78494 0.0
C413 C 0.44652 0.91441 0.54961 0.0
O414 O 0.42922 0.91154 0.576 0.0
C415 C 0.42745 0.86316 0.9913 0.0
C416 C 0.45555 0.8639 0.02714 0.0
C417 C 0.43744 0.86154 0.05311 0.0
N418 N 0.43958 0.86696 0.93211 0.0
N419 N 0.45608 0.86686 0.95419 0.0
C420 C 0.40654 0.86033 0.98831 0.0
H421 H 0.4022 0.86127 0.93072 0.0
H422 H 0.40559 0.87193 0.02209 0.0
H423 H 0.39561 0.84532 0.01192 0.0
C424 C 0.4731 0.93578 0.7963 0.0
N425 N 0.46084 0.91625 0.77679 0.0
N426 N 0.45234 0.90539 0.83599 0.0
C427 C 0.45727 0.91792 0.89411 0.0
C428 C 0.47149 0.93765 0.87252 0.0
C429 C 0.48707 0.95159 0.74303 0.0
H430 H 0.48852 0.94441 0.692 0.0
H431 H 0.48081 0.96151 0.72817 0.0
H432 H 0.5023 0.96101 0.76797 0.0
O433 O 0.468 0.88713 0.67986 0.0
O434 O 0.45714 0.86713 0.77758 0.0
H435 H 0.45231 0.90519 0.00255 0.0
H436 H 0.44532 0.92454 0.99179 0.0
C437 C 0.44556 0.91163 0.96463 0.0
H438 H 0.4297 0.90003 0.95251 0.0
H439 H 0.4683 0.86996 0.91993 0.0
O440 O 0.46071 0.91781 0.59463 0.0
C441 C 0.4676 0.8731 0.71854 0.0
Co442 Co 0.10627 0.55199 0.69743 0.0
Co443 Co 0.12708 0.57075 0.84639 0.0
C444 C 0.13929 0.5459 0.7497 0.0
O445 O 0.12557 0.54215 0.70246 0.0
O446 O 0.14147 0.55676 0.80609 0.0
C447 C 0.08982 0.527 0.57149 0.0
O448 O 0.09352 0.51409 0.60641 0.0
C449 C 0.13373 0.56359 0.99687 0.0
C450 C 0.13584 0.59011 0.05416 0.0
C451 C 0.13337 0.57099 0.06641 0.0
N452 N 0.13499 0.57708 0.94648 0.0
N453 N 0.13705 0.59326 0.98094 0.0
C454 C 0.1323 0.54382 0.97733 0.0
H455 H 0.14321 0.54622 0.93299 0.0
H456 H 0.11684 0.53312 0.95661 0.0
H457 H 0.13601 0.53715 0.02503 0.0
C458 C 0.06971 0.53148 0.79126 0.0
N459 N 0.08962 0.54455 0.78089 0.0
N460 N 0.09796 0.55354 0.84349 0.0
C461 C 0.08323 0.54702 0.89517 0.0
C462 C 0.065 0.53269 0.86404 0.0
C463 C 0.05565 0.5181 0.73244 0.0
H464 H 0.05577 0.52759 0.68587 0.0
H465 H 0.06118 0.50806 0.71125 0.0
H466 H 0.03992 0.50875 0.75327 0.0
O467 O 0.1215 0.58172 0.68425 0.0
O468 O 0.13588 0.59621 0.79013 0.0
H469 H 0.09732 0.57023 0.9769 0.0
H470 H 0.07203 0.55079 0.00014 0.0
C471 C 0.08638 0.55379 0.97372 0.0
H472 H 0.09221 0.54528 0.00481 0.0
H473 H 0.13746 0.60564 0.95459 0.0
O474 O 0.09111 0.54209 0.60584 0.0
C475 C 0.13234 0.59753 0.72242 0.0
Co476 Co 0.45065 0.54807 0.66369 0.0
Co477 Co 0.4371 0.55695 0.81549 0.0
C478 C 0.45907 0.58973 0.70491 0.0
O479 O 0.45934 0.57682 0.66167 0.0
O480 O 0.4515 0.58473 0.7692 0.0
C481 C 0.47636 0.5575 0.54105 0.0
O482 O 0.48861 0.57276 0.58329 0.0
C483 C 0.4467 0.57067 0.96665 0.0
C484 C 0.41728 0.55232 0.02266 0.0
C485 C 0.43777 0.56541 0.03593 0.0
N486 N 0.43228 0.56065 0.91568 0.0
N487 N 0.41462 0.5502 0.94926 0.0
C488 C 0.46886 0.58267 0.94871 0.0
H489 H 0.47166 0.58007 0.89088 0.0
H490 H 0.4778 0.57868 0.98649 0.0
H491 H 0.47414 0.59904 0.95562 0.0
C492 C 0.46903 0.53018 0.75933 0.0
N493 N 0.45933 0.54071 0.74925 0.0
N494 N 0.45277 0.54335 0.81312 0.0
C495 C 0.45775 0.53403 0.86575 0.0
C496 C 0.46858 0.52587 0.83368 0.0
C497 C 0.47728 0.5233 0.69815 0.0
H498 H 0.48682 0.53632 0.66161 0.0
H499 H 0.48638 0.51668 0.71952 0.0
H500 H 0.46449 0.51179 0.66474 0.0
O501 O 0.42098 0.53335 0.65906 0.0
O502 O 0.41038 0.53985 0.76417 0.0
H503 H 0.44803 0.5153 0.96348 0.0
H504 H 0.45978 0.54193 0.97982 0.0
C505 C 0.44937 0.52961 0.94246 0.0
H506 H 0.43416 0.52813 0.94383 0.0
H507 H 0.40103 0.54045 0.92251 0.0
O508 O 0.46037 0.54303 0.56932 0.0
C509 C 0.40671 0.53149 0.70076 0.0
Co510 Co 0.55578 0.77386 0.62704 0.0
Co511 Co 0.53974 0.76954 0.46775 0.0
C512 C 0.52542 0.73345 0.56551 0.0
O513 O 0.5362 0.74438 0.61863 0.0
O514 O 0.52557 0.74126 0.50344 0.0
C515 C 0.5714 0.76371 0.75249 0.0
O516 O 0.56405 0.74598 0.72025 0.0
C517 C 0.53897 0.76052 0.3131 0.0
C518 C 0.53141 0.78241 0.26368 0.0
C519 C 0.53804 0.76894 0.24679 0.0
N520 N 0.53374 0.76909 0.36681 0.0
N521 N 0.52844 0.78157 0.33684 0.0
C522 C 0.54769 0.74699 0.32653 0.0
H523 H 0.55204 0.74755 0.38516 0.0
H524 H 0.56099 0.75123 0.29046 0.0
H525 H 0.53603 0.73118 0.31278 0.0
C526 C 0.59546 0.79391 0.54853 0.0
N527 N 0.575 0.78349 0.54889 0.0
N528 N 0.56833 0.78242 0.48125 0.0
C529 C 0.58439 0.79266 0.43604 0.0
C530 C 0.60204 0.79983 0.47678 0.0
C531 C 0.60832 0.79869 0.61604 0.0
H532 H 0.60426 0.78442 0.64565 0.0
H533 H 0.62472 0.8066 0.60235 0.0
H534 H 0.60517 0.80832 0.65334 0.0
O535 O 0.54116 0.78964 0.63186 0.0
O536 O 0.52988 0.78581 0.51692 0.0
H537 H 0.59705 0.81316 0.34353 0.0
H538 H 0.5821 0.78692 0.32016 0.0
C539 C 0.58323 0.79873 0.35849 0.0
H540 H 0.56996 0.80082 0.35163 0.0
H541 H 0.52465 0.79089 0.36678 0.0
O542 O 0.56995 0.77783 0.72099 0.0
C543 C 0.53156 0.79299 0.58136 0.0
Co544 Co 0.22773 0.78164 0.59938 0.0
Co545 Co 0.23399 0.77144 0.43995 0.0
C546 C 0.26907 0.7925 0.54151 0.0
O547 O 0.25735 0.79165 0.59289 0.0
O548 O 0.26209 0.78533 0.47816 0.0
C549 C 0.23909 0.80696 0.72209 0.0
O550 O 0.25233 0.81997 0.67523 0.0
C551 C 0.24838 0.77925 0.28887 0.0
C552 C 0.22756 0.75023 0.23419 0.0
C553 C 0.2437 0.76951 0.22174 0.0
N554 N 0.23556 0.76633 0.33928 0.0
N555 N 0.22331 0.7489 0.30659 0.0
C556 C 0.26482 0.80046 0.30496 0.0
H557 H 0.2795 0.80073 0.30884 0.0
H558 H 0.26194 0.80582 0.35795 0.0
H559 H 0.26609 0.81084 0.25973 0.0
C560 C 0.20988 0.80329 0.51875 0.0
N561 N 0.21893 0.79196 0.5208 0.0
N562 N 0.22133 0.7874 0.45301 0.0
C563 C 0.2136 0.79545 0.40563 0.0
C564 C 0.20616 0.80588 0.4457 0.0
C565 C 0.2044 0.81093 0.58573 0.0
H566 H 0.19835 0.79903 0.62887 0.0
H567 H 0.21826 0.82423 0.60776 0.0
H568 H 0.19299 0.8155 0.57279 0.0
O569 O 0.21221 0.75143 0.60072 0.0
O570 O 0.21735 0.74471 0.4866 0.0
H571 H 0.20889 0.77812 0.30705 0.0
H572 H 0.20524 0.79957 0.29463 0.0
C573 C 0.21434 0.79404 0.32346 0.0
H574 H 0.23021 0.80352 0.30485 0.0
H575 H 0.21176 0.73627 0.33334 0.0
O576 O 0.22433 0.79068 0.69717 0.0
C577 C 0.20955 0.73878 0.55007 0.0
Co578 Co 0.22003 0.44118 0.63319 0.0
Co579 Co 0.22756 0.46132 0.47808 0.0
C580 C 0.21072 0.47461 0.59734 0.0
O581 O 0.21253 0.46249 0.64056 0.0
O582 O 0.21511 0.47556 0.52932 0.0
C583 C 0.19721 0.42687 0.76231 0.0
O584 O 0.18278 0.42679 0.72246 0.0
C585 C 0.21987 0.46967 0.32633 0.0
C586 C 0.25007 0.48054 0.27655 0.0
C587 C 0.23049 0.47604 0.26055 0.0
N588 N 0.23262 0.47012 0.37855 0.0
N589 N 0.2507 0.47694 0.3486 0.0
C590 C 0.19836 0.46419 0.34053 0.0
H591 H 0.19307 0.45621 0.39409 0.0
H592 H 0.18825 0.45467 0.29554 0.0
H593 H 0.19749 0.4783 0.3425 0.0
C594 C 0.19559 0.4038 0.54344 0.0
N595 N 0.2075 0.42406 0.55044 0.0
N596 N 0.21098 0.43251 0.48467 0.0
C597 C 0.20167 0.41777 0.4338 0.0
C598 C 0.19136 0.39923 0.46927 0.0
C599 C 0.18817 0.38935 0.60686 0.0
H600 H 0.20121 0.39208 0.64213 0.0
H601 H 0.17778 0.39225 0.64084 0.0
H602 H 0.18002 0.37335 0.58809 0.0
O603 O 0.24997 0.45446 0.62771 0.0
O604 O 0.25472 0.46958 0.51929 0.0
H605 H 0.21957 0.43285 0.33827 0.0
H606 H 0.20079 0.4067 0.32348 0.0
C607 C 0.20396 0.42086 0.35216 0.0
H608 H 0.19297 0.42523 0.33184 0.0
H609 H 0.26337 0.47857 0.37684 0.0
O610 O 0.21205 0.42717 0.72914 0.0
C611 C 0.26169 0.46581 0.57713 0.0
H612 H 0.12221 0.22174 0.55112 0.0
H613 H 0.05775 0.19162 0.50431 0.0
H614 H 0.05205 0.20447 0.62194 0.0
H615 H 0.11777 0.2094 0.73565 0.0
H616 H 0.13946 0.23297 0.76406 0.0
H617 H 0.13828 0.22373 0.67223 0.0
H618 H 0.14335 0.25771 0.62005 0.0
H619 H 0.14415 0.26688 0.71219 0.0
H620 H 0.12611 0.26635 0.64655 0.0
H621 H 0.05324 0.21776 0.74967 0.0
H622 H 0.06041 0.22655 0.88116 0.0
H623 H 0.12416 0.24773 0.84285 0.0
C624 C 0.10689 0.21794 0.56537 0.0
C625 C 0.09042 0.20589 0.51865 0.0
C626 C 0.0706 0.20117 0.53902 0.0
C627 C 0.06726 0.20847 0.6054 0.0
C628 C 0.08395 0.22054 0.65001 0.0
C629 C 0.10335 0.22512 0.63087 0.0
C630 C 0.11846 0.23656 0.69109 0.0
C631 C 0.12909 0.22496 0.71731 0.0
C632 C 0.13393 0.25816 0.66595 0.0
C633 C 0.10439 0.23683 0.749 0.0
C634 C 0.08462 0.22804 0.7237 0.0
C635 C 0.06869 0.22499 0.7697 0.0
C636 C 0.07293 0.23013 0.84427 0.0
C637 C 0.09286 0.23782 0.87185 0.0
C638 C 0.10884 0.24206 0.8229 0.0
H639 H 0.78699 0.87388 0.46423 0.0
H640 H 0.82395 0.9386 0.50414 0.0
H641 H 0.81419 0.93302 0.63479 0.0
H642 H 0.74727 0.86415 0.57755 0.0
H643 H 0.74299 0.8403 0.61389 0.0
H644 H 0.75423 0.8486 0.52427 0.0
H645 H 0.78537 0.84567 0.56364 0.0
H646 H 0.77396 0.83674 0.65281 0.0
H647 H 0.79913 0.85841 0.64583 0.0
H648 H 0.79612 0.92148 0.75384 0.0
H649 H 0.77686 0.90366 0.86467 0.0
H650 H 0.75482 0.84585 0.75463 0.0
C651 C 0.7939 0.88681 0.5006 0.0
C652 C 0.80645 0.90673 0.47342 0.0
C653 C 0.81434 0.92322 0.52343 0.0
C654 C 0.80884 0.92022 0.59779 0.0
C655 C 0.79576 0.90057 0.62194 0.0
C656 C 0.78893 0.88404 0.57572 0.0
C657 C 0.77477 0.86454 0.61627 0.0
C658 C 0.75356 0.85377 0.58086 0.0
C659 C 0.78385 0.85051 0.61986 0.0
C660 C 0.7743 0.87284 0.69174 0.0
C661 C 0.78628 0.89371 0.69307 0.0
C662 C 0.7871 0.9051 0.75418 0.0
C663 C 0.77594 0.89485 0.81665 0.0
C664 C 0.76449 0.87339 0.81838 0.0
C665 C 0.76356 0.86226 0.75484 0.0
H666 H 0.12005 0.87141 0.7917 0.0
H667 H 0.16515 0.93526 0.81038 0.0
H668 H 0.15947 0.94033 0.6803 0.0
H669 H 0.13072 0.86511 0.59477 0.0
H670 H 0.10419 0.84806 0.57695 0.0
H671 H 0.11448 0.84895 0.66717 0.0
H672 H 0.08735 0.85603 0.72357 0.0
H673 H 0.07733 0.85574 0.6336 0.0
H674 H 0.08569 0.87761 0.69209 0.0
H675 H 0.14483 0.93953 0.55522 0.0
H676 H 0.12547 0.93189 0.43894 0.0
H677 H 0.09038 0.86859 0.5022 0.0
C678 C 0.12926 0.88633 0.76786 0.0
C679 C 0.14304 0.90293 0.81131 0.0
C680 C 0.15461 0.92226 0.77814 0.0
C681 C 0.15141 0.92533 0.70432 0.0
C682 C 0.13681 0.90886 0.66435 0.0
C683 C 0.12625 0.88964 0.69447 0.0
C684 C 0.11038 0.87479 0.64175 0.0
C685 C 0.11524 0.85825 0.61879 0.0
C686 C 0.08893 0.86551 0.67475 0.0
C687 C 0.11318 0.8888 0.57826 0.0
C688 C 0.12856 0.90836 0.59207 0.0
C689 C 0.13313 0.92415 0.54295 0.0
C690 C 0.12208 0.91968 0.47706 0.0
C691 C 0.10676 0.89958 0.4609 0.0
C692 C 0.10209 0.88408 0.51287 0.0
H693 H 0.19864 0.0757 0.53475 0.0
H694 H 0.2275 0.14048 0.57188 0.0
H695 H 0.24725 0.14684 0.4576 0.0
H696 H 0.24274 0.0757 0.4441 0.0
H697 H 0.22679 0.05659 0.37841 0.0
H698 H 0.21725 0.05681 0.46909 0.0
H699 H 0.1868 0.05827 0.41165 0.0
H700 H 0.19608 0.05772 0.32124 0.0
H701 H 0.19155 0.07801 0.34635 0.0
H702 H 0.26097 0.14656 0.3349 0.0
H703 H 0.26468 0.13983 0.20479 0.0
H704 H 0.22683 0.07523 0.24418 0.0
C705 C 0.20935 0.09115 0.51894 0.0
C706 C 0.21161 0.10761 0.56152 0.0
C707 C 0.22548 0.12769 0.53926 0.0
C708 C 0.23696 0.13144 0.4751 0.0
C709 C 0.23434 0.11493 0.43369 0.0
C710 C 0.22075 0.09518 0.45417 0.0
C711 C 0.21904 0.08037 0.39513 0.0
C712 C 0.22693 0.06655 0.42339 0.0
C713 C 0.19707 0.06787 0.36692 0.0
C714 C 0.23306 0.09496 0.33706 0.0
C715 C 0.24216 0.11478 0.36138 0.0
C716 C 0.25423 0.1311 0.31546 0.0
C717 C 0.25627 0.12713 0.24165 0.0
C718 C 0.24611 0.10702 0.21445 0.0
C719 C 0.23513 0.09073 0.26367 0.0
H720 H 0.91027 0.09768 0.4675 0.0
H721 H 0.91316 0.15 0.57459 0.0
H722 H 0.90892 0.16241 0.45511 0.0
H723 H 0.9337 0.1224 0.28843 0.0
H724 H 0.91634 0.10001 0.23781 0.0
H725 H 0.92408 0.0977 0.32942 0.0
H726 H 0.88626 0.07708 0.36814 0.0
H727 H 0.87842 0.07977 0.27743 0.0
H728 H 0.87026 0.0881 0.35658 0.0
H729 H 0.90125 0.16766 0.32295 0.0
H730 H 0.89071 0.16467 0.19175 0.0
H731 H 0.88879 0.10693 0.1775 0.0
C732 C 0.91072 0.11211 0.46571 0.0
C733 C 0.9127 0.12307 0.53087 0.0
C734 C 0.9126 0.14162 0.52599 0.0
C735 C 0.90991 0.14873 0.45797 0.0
C736 C 0.90714 0.13706 0.3954 0.0
C737 C 0.90764 0.11918 0.39876 0.0
C738 C 0.90208 0.10823 0.32567 0.0
C739 C 0.92013 0.10702 0.29344 0.0
C740 C 0.88313 0.08705 0.33242 0.0
C741 C 0.8977 0.12239 0.28133 0.0
C742 C 0.90114 0.13919 0.32162 0.0
C743 C 0.89845 0.15452 0.29101 0.0
C744 C 0.89233 0.15266 0.21696 0.0
C745 C 0.88839 0.13532 0.17577 0.0
C746 C 0.89107 0.12004 0.20863 0.0
H747 H 0.88873 0.78996 0.13695 0.0
H748 H 0.82798 0.73836 0.15567 0.0
H749 H 0.82717 0.74668 0.28771 0.0
H750 H 0.90756 0.78604 0.30453 0.0
H751 H 0.92211 0.81295 0.32117 0.0
H752 H 0.91669 0.80359 0.22839 0.0
H753 H 0.90038 0.82586 0.20265 0.0
H754 H 0.90559 0.83515 0.29596 0.0
H755 H 0.88007 0.82342 0.26061 0.0
H756 H 0.83551 0.75818 0.42001 0.0
H757 H 0.85155 0.77159 0.53985 0.0
H758 H 0.90563 0.81773 0.43007 0.0
C759 C 0.87526 0.78038 0.16898 0.0
C760 C 0.85859 0.76326 0.13762 0.0
C761 C 0.84097 0.75138 0.17986 0.0
C762 C 0.84036 0.7561 0.25428 0.0
C763 C 0.85724 0.77311 0.28386 0.0
C764 C 0.87423 0.78518 0.24202 0.0
C765 C 0.89071 0.80212 0.28657 0.0
C766 C 0.91041 0.80109 0.28509 0.0
C767 C 0.8944 0.82287 0.25986 0.0
C768 C 0.88089 0.79702 0.36155 0.0
C769 C 0.86147 0.78045 0.35886 0.0
C770 C 0.85038 0.77159 0.42257 0.0
C771 C 0.85959 0.77952 0.4907 0.0
C772 C 0.87963 0.79625 0.49438 0.0
C773 C 0.89011 0.80533 0.42881 0.0
H774 H 0.76152 0.5345 0.20792 0.0
H775 H 0.758 0.5894 0.19159 0.0
H776 H 0.74797 0.58167 0.05999 0.0
H777 H 0.78375 0.53725 0.04409 0.0
H778 H 0.7698 0.51048 0.02436 0.0
H779 H 0.77348 0.51904 0.11803 0.0
H780 H 0.7345 0.49909 0.13892 0.0
H781 H 0.73074 0.49053 0.04465 0.0
H782 H 0.71823 0.50362 0.07935 0.0
H783 H 0.74461 0.57087 0.92756 0.0
H784 H 0.74827 0.55843 0.80677 0.0
H785 H 0.75145 0.50915 0.91297 0.0
C786 C 0.75848 0.54482 0.17661 0.0
C787 C 0.7609 0.56274 0.20831 0.0
C788 C 0.75639 0.57571 0.16711 0.0
C789 C 0.75053 0.57132 0.09297 0.0
C790 C 0.74864 0.55358 0.06271 0.0
C791 C 0.75223 0.54042 0.10381 0.0
C792 C 0.75077 0.52323 0.05798 0.0
C793 C 0.77063 0.52249 0.06129 0.0
C794 C 0.73247 0.50292 0.08164 0.0
C795 C 0.74739 0.52959 0.98308 0.0
C796 C 0.74567 0.54683 0.98698 0.0
C797 C 0.74512 0.55695 0.92391 0.0
C798 C 0.74702 0.54964 0.85536 0.0
C799 C 0.74937 0.53237 0.85077 0.0
C800 C 0.74898 0.52197 0.91525 0.0
H801 H 0.40546 0.18401 0.10541 0.0
H802 H 0.4568 0.2315 0.22322 0.0
H803 H 0.47775 0.23982 0.11119 0.0
H804 H 0.43383 0.16864 0.98242 0.0
H805 H 0.41817 0.16553 0.90346 0.0
H806 H 0.40755 0.16136 0.99482 0.0
H807 H 0.3961 0.18774 0.97154 0.0
H808 H 0.40626 0.19158 0.87979 0.0
H809 H 0.41449 0.21288 0.9411 0.0
H810 H 0.49269 0.24429 0.98739 0.0
H811 H 0.49926 0.24847 0.8537 0.0
H812 H 0.43793 0.19992 0.81198 0.0
C813 C 0.42114 0.19607 0.10721 0.0
C814 C 0.42961 0.20713 0.17253 0.0
C815 C 0.45006 0.22299 0.17327 0.0
C816 C 0.46214 0.22764 0.11027 0.0
C817 C 0.45345 0.21646 0.04661 0.0
C818 C 0.43333 0.2013 0.0439 0.0
C819 C 0.42726 0.19331 0.96604 0.0
C820 C 0.42135 0.17087 0.96145 0.0
C821 C 0.41002 0.19659 0.93797 0.0
C822 C 0.44698 0.20667 0.92548 0.0
C823 C 0.46201 0.2195 0.97358 0.0
C824 C 0.48116 0.23415 0.94917 0.0
C825 C 0.4848 0.23634 0.87328 0.0
C826 C 0.46936 0.22407 0.82276 0.0
C827 C 0.45036 0.20874 0.8493 0.0
H828 H 0.75845 0.20978 0.81327 0.0
H829 H 0.81228 0.26608 0.75247 0.0
H830 H 0.82851 0.26554 0.86969 0.0
H831 H 0.75889 0.22229 0.00262 0.0
H832 H 0.7496 0.1967 0.03422 0.0
H833 H 0.74307 0.20116 0.94364 0.0
H834 H 0.75762 0.17975 0.88767 0.0
H835 H 0.76455 0.17555 0.97816 0.0
H836 H 0.7835 0.18655 0.9069 0.0
H837 H 0.83846 0.25913 0.99546 0.0
H838 H 0.8398 0.24979 0.1246 0.0
H839 H 0.77902 0.19805 0.10333 0.0
C840 C 0.77365 0.22206 0.82451 0.0
C841 C 0.78428 0.23773 0.77274 0.0
C842 C 0.80408 0.25356 0.79002 0.0
C843 C 0.81339 0.25341 0.85665 0.0
C844 C 0.80265 0.2374 0.90553 0.0
C845 C 0.7831 0.22217 0.89062 0.0
C846 C 0.77435 0.2073 0.95388 0.0
C847 C 0.75536 0.20685 0.98545 0.0
C848 C 0.76974 0.18603 0.93021 0.0
C849 C 0.79191 0.21672 0.00747 0.0
C850 C 0.80821 0.23391 0.97821 0.0
C851 C 0.82582 0.24564 0.01877 0.0
C852 C 0.82647 0.24014 0.09207 0.0
C853 C 0.80952 0.22317 0.12434 0.0
C854 C 0.79232 0.21098 0.08034 0.0
H855 H 0.8691 0.41544 0.86945 0.0
H856 H 0.90605 0.48054 0.89605 0.0
H857 H 0.92417 0.48272 0.78068 0.0
H858 H 0.90846 0.40712 0.78194 0.0
H859 H 0.89058 0.38835 0.71921 0.0
H860 H 0.88234 0.39139 0.80899 0.0
H861 H 0.85466 0.39716 0.7492 0.0
H862 H 0.86256 0.39371 0.6598 0.0
H863 H 0.86189 0.41654 0.6799 0.0
H864 H 0.93613 0.47845 0.65925 0.0
H865 H 0.93767 0.46883 0.53097 0.0
H866 H 0.89285 0.40643 0.58122 0.0
C867 C 0.88115 0.43006 0.85095 0.0
C868 C 0.88625 0.44783 0.89087 0.0
C869 C 0.90186 0.46681 0.86534 0.0
C870 C 0.91243 0.46815 0.80067 0.0
C871 C 0.90715 0.45035 0.7624 0.0
C872 C 0.89171 0.43169 0.78598 0.0
C873 C 0.88747 0.41528 0.73023 0.0
C874 C 0.89252 0.39961 0.76201 0.0
C875 C 0.86535 0.40509 0.70317 0.0
C876 C 0.90231 0.4278 0.67026 0.0
C877 C 0.91392 0.44789 0.69096 0.0
C878 C 0.92736 0.46273 0.64262 0.0
C879 C 0.92816 0.45712 0.5699 0.0
C880 C 0.91537 0.4369 0.54622 0.0
C881 C 0.90307 0.42192 0.59803 0.0
H882 H 0.57655 0.46132 0.87997 0.0
H883 H 0.56704 0.40133 0.83278 0.0
H884 H 0.56529 0.40719 0.70012 0.0
H885 H 0.54289 0.46093 0.7526 0.0
H886 H 0.55777 0.48705 0.72441 0.0
H887 H 0.56101 0.47956 0.81515 0.0
H888 H 0.5994 0.49441 0.79138 0.0
H889 H 0.5964 0.50238 0.70101 0.0
H890 H 0.60759 0.48651 0.71117 0.0
H891 H 0.56006 0.41743 0.57615 0.0
H892 H 0.55571 0.43324 0.46428 0.0
H893 H 0.57011 0.48741 0.58829 0.0
C894 C 0.57507 0.44979 0.84167 0.0
C895 C 0.57235 0.43098 0.86677 0.0
C896 C 0.56939 0.41592 0.81471 0.0
C897 C 0.56832 0.41908 0.73928 0.0
C898 C 0.57036 0.43748 0.71655 0.0
C899 C 0.57408 0.45277 0.76583 0.0
C900 C 0.57462 0.47068 0.72677 0.0
C901 C 0.55808 0.47478 0.75652 0.0
C902 C 0.59577 0.48962 0.73294 0.0
C903 C 0.57009 0.46281 0.64826 0.0
C904 C 0.56763 0.44358 0.64398 0.0
C905 C 0.5622 0.43257 0.57861 0.0
C906 C 0.5595 0.44155 0.51562 0.0
C907 C 0.56231 0.46137 0.51814 0.0
C908 C 0.56783 0.47221 0.58519 0.0
H909 H 0.54231 0.0834 0.50693 0.0
H910 H 0.50549 0.11062 0.45732 0.0
H911 H 0.50625 0.1196 0.58819 0.0
H912 H 0.52107 0.06552 0.70313 0.0
H913 H 0.5458 0.07107 0.7343 0.0
H914 H 0.53776 0.06221 0.64161 0.0
H915 H 0.57009 0.09372 0.59224 0.0
H916 H 0.57792 0.10307 0.68405 0.0
H917 H 0.57488 0.1187 0.61649 0.0
H918 H 0.51868 0.13335 0.71455 0.0
H919 H 0.53696 0.14566 0.83268 0.0
H920 H 0.56394 0.10772 0.80115 0.0
C921 C 0.53356 0.0903 0.52459 0.0
C922 C 0.52378 0.09625 0.47283 0.0
C923 C 0.51279 0.10565 0.49674 0.0
C924 C 0.51323 0.11091 0.57088 0.0
C925 C 0.52423 0.10608 0.6201 0.0
C926 C 0.5336 0.09533 0.59841 0.0
C927 C 0.54622 0.09389 0.65975 0.0
C928 C 0.53716 0.07186 0.68628 0.0
C929 C 0.56859 0.10289 0.6367 0.0
C930 C 0.54377 0.10681 0.71713 0.0
C931 C 0.53085 0.11351 0.69397 0.0
C932 C 0.52816 0.12752 0.7347 0.0
C933 C 0.53861 0.13445 0.80163 0.0
C934 C 0.55148 0.12728 0.82685 0.0
C935 C 0.55405 0.11335 0.7837 0.0
H936 H 0.43361 0.91932 0.41333 0.0
H937 H 0.4568 0.88543 0.53004 0.0
H938 H 0.45242 0.86518 0.41863 0.0
H939 H 0.39672 0.87831 0.29901 0.0
H940 H 0.40187 0.89377 0.21784 0.0
H941 H 0.40551 0.90502 0.3079 0.0
H942 H 0.44285 0.93115 0.27581 0.0
H943 H 0.43913 0.92028 0.18524 0.0
H944 H 0.45936 0.92228 0.24271 0.0
H945 H 0.44589 0.84877 0.29579 0.0
H946 H 0.44288 0.84082 0.16309 0.0
H947 H 0.4261 0.8866 0.122 0.0
C948 C 0.43783 0.90769 0.41495 0.0
C949 C 0.44569 0.90402 0.47997 0.0
C950 C 0.45108 0.8887 0.48041 0.0
C951 C 0.44838 0.87694 0.41768 0.0
C952 C 0.44047 0.88078 0.35455 0.0
C953 C 0.43568 0.89606 0.35197 0.0
C954 C 0.42905 0.89807 0.27504 0.0
C955 C 0.40697 0.89352 0.27499 0.0
C956 C 0.44346 0.91919 0.2428 0.0
C957 C 0.431 0.88163 0.23494 0.0
C958 C 0.43719 0.87159 0.28242 0.0
C959 C 0.44089 0.8564 0.25812 0.0
C960 C 0.43902 0.8519 0.18277 0.0
C961 C 0.43362 0.8626 0.13241 0.0
C962 C 0.42918 0.87739 0.15922 0.0
H963 H 0.11119 0.56169 0.49475 0.0
H964 H 0.07524 0.49642 0.46892 0.0
H965 H 0.08282 0.5003 0.33482 0.0
H966 H 0.09928 0.57662 0.32238 0.0
H967 H 0.12474 0.59742 0.30967 0.0
H968 H 0.11494 0.5893 0.4012 0.0
H969 H 0.14548 0.58442 0.43148 0.0
H970 H 0.15527 0.59221 0.33973 0.0
H971 H 0.15047 0.56803 0.37447 0.0
H972 H 0.09318 0.51207 0.20365 0.0
H973 H 0.10701 0.52975 0.08747 0.0
H974 H 0.14058 0.58688 0.2045 0.0
C975 C 0.10448 0.5482 0.46068 0.0
C976 C 0.09216 0.52876 0.49123 0.0
C977 C 0.08439 0.51143 0.44572 0.0
C978 C 0.08868 0.51352 0.36994 0.0
C979 C 0.10116 0.53298 0.34184 0.0
C980 C 0.10909 0.54997 0.38608 0.0
C981 C 0.12309 0.56904 0.34393 0.0
C982 C 0.11502 0.58397 0.34431 0.0
C983 C 0.14486 0.579 0.37422 0.0
C984 C 0.12165 0.56021 0.26836 0.0
C985 C 0.10878 0.53944 0.26812 0.0
C986 C 0.10386 0.5282 0.20357 0.0
C987 C 0.11228 0.53846 0.13753 0.0
C988 C 0.12607 0.55969 0.13665 0.0
C989 C 0.1307 0.57058 0.20336 0.0
H990 H 0.45019 0.53139 0.43717 0.0
H991 H 0.50449 0.59021 0.46216 0.0
H992 H 0.50166 0.59817 0.33255 0.0
H993 H 0.45915 0.52324 0.24002 0.0
H994 H 0.43244 0.51114 0.21966 0.0
H995 H 0.44078 0.50895 0.31036 0.0
H996 H 0.41895 0.52302 0.36626 0.0
H997 H 0.41096 0.52575 0.27586 0.0
H998 H 0.42304 0.54736 0.33634 0.0
H999 H 0.48985 0.60177 0.20641 0.0
H1000 H 0.47213 0.59901 0.08916 0.0
H1001 H 0.42606 0.53768 0.1466 0.0
C1002 C 0.4619 0.54567 0.41484 0.0
C1003 C 0.47756 0.56016 0.46003 0.0
C1004 C 0.4924 0.5788 0.42869 0.0
C1005 C 0.49088 0.58351 0.3551 0.0
C1006 C 0.4746 0.56932 0.31329 0.0
C1007 C 0.46062 0.55059 0.34158 0.0
C1008 C 0.44381 0.53855 0.28692 0.0
C1009 C 0.44407 0.51933 0.2628 0.0
C1010 C 0.42297 0.53338 0.31824 0.0
C1011 C 0.4501 0.5537 0.22462 0.0
C1012 C 0.46797 0.5713 0.24048 0.0
C1013 C 0.47612 0.58784 0.19259 0.0
C1014 C 0.46598 0.58613 0.12601 0.0
C1015 C 0.44794 0.568 0.10795 0.0
C1016 C 0.43987 0.55173 0.15858 0.0
H1017 H 0.53193 0.73848 0.15254 0.0
H1018 H 0.57028 0.80276 0.19373 0.0
H1019 H 0.58963 0.8062 0.08063 0.0
H1020 H 0.57193 0.73048 0.0553 0.0
H1021 H 0.55349 0.71323 0.99024 0.0
H1022 H 0.5459 0.7146 0.08317 0.0
H1023 H 0.5183 0.722 0.0334 0.0
H1024 H 0.52562 0.72033 0.94097 0.0
H1025 H 0.52554 0.74288 0.97066 0.0
H1026 H 0.60004 0.80442 0.9557 0.0
H1027 H 0.59882 0.79809 0.82226 0.0
H1028 H 0.55436 0.73487 0.85831 0.0
C1029 C 0.54474 0.7531 0.13812 0.0
C1030 C 0.54973 0.77037 0.18082 0.0
C1031 C 0.56626 0.78942 0.16075 0.0
C1032 C 0.57749 0.79144 0.09739 0.0
C1033 C 0.57199 0.77424 0.05496 0.0
C1034 C 0.55596 0.7554 0.07422 0.0
C1035 C 0.55109 0.74014 0.01311 0.0
C1036 C 0.5559 0.72363 0.03689 0.0
C1037 C 0.52884 0.73082 0.98805 0.0
C1038 C 0.56579 0.75374 0.95455 0.0
C1039 C 0.5782 0.77318 0.98091 0.0
C1040 C 0.59089 0.78916 0.93475 0.0
C1041 C 0.59009 0.78547 0.85912 0.0
C1042 C 0.57669 0.76598 0.83082 0.0
C1043 C 0.56521 0.74973 0.87926 0.0
H1044 H 0.23547 0.79625 0.15505 0.0
H1045 H 0.26605 0.76176 0.125 0.0
H1046 H 0.27342 0.77328 0.99539 0.0
H1047 H 0.2098 0.78243 0.99386 0.0
H1048 H 0.21098 0.80616 0.9733 0.0
H1049 H 0.21242 0.79954 0.06719 0.0
H1050 H 0.24659 0.8329 0.08392 0.0
H1051 H 0.24518 0.8398 0.98996 0.0
H1052 H 0.2672 0.8389 0.02126 0.0
H1053 H 0.27224 0.78321 0.86816 0.0
H1054 H 0.26184 0.79013 0.74839 0.0
H1055 H 0.23149 0.81812 0.85712 0.0
C1056 C 0.24443 0.79188 0.12153 0.0
C1057 C 0.25074 0.77864 0.14924 0.0
C1058 C 0.26156 0.77227 0.10417 0.0
C1059 C 0.26584 0.7788 0.03096 0.0
C1060 C 0.259 0.79152 0.00429 0.0
C1061 C 0.24853 0.79804 0.0481 0.0
C1062 C 0.24025 0.8091 0.00333 0.0
C1063 C 0.21699 0.79867 0.00981 0.0
C1064 C 0.25042 0.83151 0.02597 0.0
C1065 C 0.24674 0.80682 0.92685 0.0
C1066 C 0.25801 0.7971 0.92921 0.0
C1067 C 0.26406 0.79143 0.86565 0.0
C1068 C 0.25825 0.79555 0.79792 0.0
C1069 C 0.24668 0.80535 0.7942 0.0
C1070 C 0.24094 0.81121 0.85915 0.0
H1071 H 0.18057 0.41261 0.89951 0.0
H1072 H 0.22511 0.46589 0.78184 0.0
H1073 H 0.23355 0.48602 0.8958 0.0
H1074 H 0.16489 0.43879 0.03542 0.0
H1075 H 0.16359 0.42266 0.11039 0.0
H1076 H 0.15835 0.41294 0.01761 0.0
H1077 H 0.18601 0.40269 0.0285 0.0
H1078 H 0.19101 0.41204 0.12147 0.0
H1079 H 0.21137 0.42151 0.0553 0.0
H1080 H 0.23973 0.49956 0.02138 0.0
H1081 H 0.24625 0.50481 0.15496 0.0
H1082 H 0.19935 0.4427 0.19532 0.0
C1083 C 0.19185 0.42858 0.89813 0.0
C1084 C 0.20199 0.43793 0.83223 0.0
C1085 C 0.21701 0.45868 0.83195 0.0
C1086 C 0.22182 0.47022 0.89622 0.0
C1087 C 0.21163 0.46069 0.96064 0.0
C1088 C 0.19719 0.44029 0.96265 0.0
C1089 C 0.19054 0.43333 0.04112 0.0
C1090 C 0.168 0.42653 0.05173 0.0
C1091 C 0.19501 0.4164 0.06286 0.0
C1092 C 0.20398 0.45283 0.08263 0.0
C1093 C 0.21562 0.46853 0.03477 0.0
C1094 C 0.23044 0.48755 0.05958 0.0
C1095 C 0.23401 0.49043 0.13535 0.0
C1096 C 0.22282 0.47439 0.18514 0.0
C1097 C 0.20733 0.45551 0.15863 0.0
H1098 H 0.19608 0.36581 0.4665 0.0
H1099 H 0.15779 0.38902 0.38855 0.0
H1100 H 0.1377 0.35785 0.31516 0.0
H1101 H 0.19819 0.34387 0.29682 0.0
H1102 H 0.19765 0.32198 0.33719 0.0
H1103 H 0.20809 0.34534 0.38822 0.0
H1104 H 0.18323 0.32673 0.49573 0.0
H1105 H 0.17287 0.30326 0.44535 0.0
H1106 H 0.15638 0.31224 0.47754 0.0
H1107 H 0.12255 0.32481 0.24748 0.0
H1108 H 0.11249 0.29127 0.19315 0.0
H1109 H 0.16175 0.29028 0.30923 0.0
C1110 C 0.18315 0.36401 0.43524 0.0
C1111 C 0.17814 0.3795 0.43374 0.0
C1112 C 0.16157 0.37708 0.39076 0.0
C1113 C 0.15018 0.35951 0.34885 0.0
C1114 C 0.15568 0.34461 0.35022 0.0
C1115 C 0.17171 0.34661 0.39246 0.0
C1116 C 0.17489 0.32865 0.38174 0.0
C1117 C 0.19596 0.33537 0.34904 0.0
C1118 C 0.17164 0.31703 0.45441 0.0
C1119 C 0.1582 0.31633 0.32686 0.0
C1120 C 0.14726 0.32578 0.30961 0.0
C1121 C 0.13098 0.31724 0.26063 0.0
C1122 C 0.12546 0.29831 0.22969 0.0
C1123 C 0.13623 0.28822 0.24775 0.0
C1124 C 0.15305 0.29756 0.29567 0.0
H1125 H 0.69542 0.83175 0.20409 0.0
H1126 H 0.72303 0.89167 0.30146 0.0
H1127 H 0.69357 0.88031 0.38438 0.0
H1128 H 0.64302 0.82291 0.21026 0.0
H1129 H 0.63225 0.79626 0.22953 0.0
H1130 H 0.65525 0.80944 0.17641 0.0
H1131 H 0.67319 0.79751 0.26848 0.0
H1132 H 0.65036 0.78461 0.32258 0.0
H1133 H 0.67371 0.80333 0.36496 0.0
H1134 H 0.66246 0.86169 0.46335 0.0
H1135 H 0.62928 0.83827 0.52099 0.0
H1136 H 0.62094 0.79112 0.36782 0.0
C1137 C 0.69502 0.84252 0.24197 0.0
C1138 C 0.71157 0.86246 0.24758 0.0
C1139 C 0.7106 0.8762 0.29754 0.0
C1140 C 0.69396 0.8699 0.34474 0.0
C1141 C 0.6782 0.84991 0.34004 0.0
C1142 C 0.67833 0.83655 0.28878 0.0
C1143 C 0.6593 0.81597 0.29465 0.0
C1144 C 0.64671 0.81085 0.22349 0.0
C1145 C 0.66446 0.79938 0.31382 0.0
C1146 C 0.64871 0.81976 0.35809 0.0
C1147 C 0.65993 0.8394 0.38387 0.0
C1148 C 0.65346 0.84631 0.44333 0.0
C1149 C 0.63477 0.83292 0.47618 0.0
C1150 C 0.62284 0.81297 0.44905 0.0
C1151 C 0.62995 0.80631 0.38966 0.0
H1152 H 0.17438 0.79381 0.35001 0.0
H1153 H 0.21872 0.84549 0.47522 0.0
H1154 H 0.20635 0.86689 0.41835 0.0
H1155 H 0.17982 0.82125 0.18315 0.0
H1156 H 0.15335 0.80677 0.15888 0.0
H1157 H 0.1648 0.79527 0.21279 0.0
H1158 H 0.13775 0.7861 0.31473 0.0
H1159 H 0.12608 0.79737 0.2608 0.0
H1160 H 0.13407 0.80578 0.3539 0.0
H1161 H 0.18943 0.8826 0.34645 0.0
H1162 H 0.16838 0.89133 0.26727 0.0
H1163 H 0.13653 0.82995 0.18303 0.0
C1164 C 0.18147 0.80966 0.36524 0.0
C1165 C 0.19759 0.81814 0.41638 0.0
C1166 C 0.2063 0.83878 0.43625 0.0
C1167 C 0.19947 0.85103 0.4039 0.0
C1168 C 0.18398 0.84236 0.3517 0.0
C1169 C 0.17504 0.82213 0.33265 0.0
C1170 C 0.15895 0.81662 0.274 0.0
C1171 C 0.16457 0.80956 0.20301 0.0
C1172 C 0.13797 0.80052 0.30259 0.0
C1173 C 0.16014 0.8369 0.26317 0.0
C1174 C 0.17467 0.85154 0.30864 0.0
C1175 C 0.17816 0.87132 0.3102 0.0
C1176 C 0.16626 0.87618 0.26495 0.0
C1177 C 0.15129 0.86139 0.21849 0.0
C1178 C 0.14827 0.84157 0.21706 0.0
H1179 H 0.35689 0.16945 0.53448 0.0
H1180 H 0.39011 0.22625 0.6525 0.0
H1181 H 0.36102 0.21587 0.73641 0.0
H1182 H 0.30588 0.16543 0.5538 0.0
H1183 H 0.29317 0.13828 0.56418 0.0
H1184 H 0.31579 0.15111 0.5088 0.0
H1185 H 0.33234 0.13479 0.58708 0.0
H1186 H 0.30995 0.12218 0.6434 0.0
H1187 H 0.33426 0.13843 0.68548 0.0
H1188 H 0.33044 0.19765 0.81673 0.0
H1189 H 0.29812 0.17425 0.8794 0.0
H1190 H 0.28382 0.12989 0.70664 0.0
C1191 C 0.35771 0.17987 0.57673 0.0
C1192 C 0.37568 0.19854 0.58784 0.0
C1193 C 0.37644 0.21181 0.64386 0.0
C1194 C 0.36003 0.20605 0.69166 0.0
C1195 C 0.34281 0.18714 0.68159 0.0
C1196 C 0.3413 0.17442 0.62454 0.0
C1197 C 0.32129 0.15463 0.6277 0.0
C1198 C 0.30826 0.15223 0.55958 0.0
C1199 C 0.32468 0.13644 0.63645 0.0
C1200 C 0.31217 0.158 0.6967 0.0
C1201 C 0.32484 0.17684 0.72694 0.0
C1202 C 0.32023 0.18297 0.79303 0.0
C1203 C 0.30201 0.16956 0.82859 0.0
C1204 C 0.2887 0.15038 0.79773 0.0
C1205 C 0.29381 0.14457 0.73094 0.0
H1206 H 0.87094 0.16218 0.71031 0.0
H1207 H 0.81882 0.11246 0.81623 0.0
H1208 H 0.79594 0.11977 0.74135 0.0
H1209 H 0.85067 0.1961 0.70204 0.0
H1210 H 0.86207 0.20653 0.61403 0.0
H1211 H 0.87393 0.19701 0.67549 0.0
H1212 H 0.87321 0.17312 0.57235 0.0
H1213 H 0.86101 0.18234 0.51094 0.0
H1214 H 0.8494 0.15558 0.5297 0.0
H1215 H 0.77894 0.13192 0.65169 0.0
H1216 H 0.769 0.1509 0.56659 0.0
H1217 H 0.83231 0.19362 0.52322 0.0
C1218 C 0.85469 0.15303 0.71811 0.0
C1219 C 0.84651 0.13694 0.76931 0.0
C1220 C 0.82526 0.12507 0.77801 0.0
C1221 C 0.81221 0.12898 0.73522 0.0
C1222 C 0.82075 0.14483 0.68433 0.0
C1223 C 0.84151 0.15687 0.67643 0.0
C1224 C 0.84686 0.17338 0.61972 0.0
C1225 C 0.8591 0.1945 0.65494 0.0
C1226 C 0.8583 0.17095 0.55431 0.0
C1227 C 0.82586 0.1689 0.59725 0.0
C1228 C 0.811 0.15216 0.63426 0.0
C1229 C 0.79044 0.14513 0.62287 0.0
C1230 C 0.78494 0.15594 0.57452 0.0
C1231 C 0.79993 0.17375 0.53944 0.0
C1232 C 0.82061 0.17998 0.54935 0.0
H1233 H 0.86101 0.69725 0.79318 0.0
H1234 H 0.82703 0.72216 0.6889 0.0
H1235 H 0.80699 0.69028 0.61938 0.0
H1236 H 0.8646 0.67194 0.63541 0.0
H1237 H 0.8618 0.65008 0.68429 0.0
H1238 H 0.87249 0.67421 0.73022 0.0
H1239 H 0.84529 0.65824 0.83272 0.0
H1240 H 0.83463 0.63399 0.7875 0.0
H1241 H 0.81881 0.64476 0.8079 0.0
H1242 H 0.79173 0.65647 0.55754 0.0
H1243 H 0.78125 0.6221 0.51064 0.0
H1244 H 0.82576 0.61937 0.65177 0.0
C1245 C 0.84899 0.6957 0.75702 0.0
C1246 C 0.84522 0.71188 0.74692 0.0
C1247 C 0.82987 0.70973 0.69762 0.0
C1248 C 0.81849 0.69174 0.65792 0.0
C1249 C 0.82275 0.67612 0.66801 0.0
C1250 C 0.83754 0.67784 0.71657 0.0
C1251 C 0.83955 0.65902 0.71488 0.0
C1252 C 0.86088 0.66413 0.68969 0.0
C1253 C 0.83425 0.64837 0.79023 0.0
C1254 C 0.82368 0.64656 0.65758 0.0
C1255 C 0.81414 0.6567 0.63139 0.0
C1256 C 0.79902 0.64833 0.57782 0.0
C1257 C 0.79326 0.62891 0.5512 0.0
C1258 C 0.8026 0.61816 0.57818 0.0
C1259 C 0.81819 0.62723 0.63119 0.0
H1260 H 0.96995 0.50838 0.11766 0.0
H1261 H 0.95926 0.44716 0.1385 0.0
H1262 H 0.98888 0.45597 0.05822 0.0
H1263 H 0.98408 0.51523 0.92933 0.0
H1264 H 0.00349 0.54146 0.93845 0.0
H1265 H 0.98219 0.53069 0.00052 0.0
H1266 H 0.00654 0.54143 0.11252 0.0
H1267 H 0.02793 0.55252 0.05085 0.0
H1268 H 0.02538 0.53372 0.11694 0.0
H1269 H 0.01844 0.47106 0.97006 0.0
H1270 H 0.04811 0.49239 0.89063 0.0
H1271 H 0.03959 0.54379 0.92812 0.0
C1272 C 0.97411 0.49699 0.10599 0.0
C1273 C 0.96256 0.47716 0.1341 0.0
C1274 C 0.9682 0.4625 0.1178 0.0
C1275 C 0.98484 0.46733 0.07195 0.0
C1276 C 0.99567 0.48692 0.04337 0.0
C1277 C 0.99072 0.5016 0.06059 0.0
C1278 C 0.00475 0.52147 0.02248 0.0
C1279 C 0.99292 0.52756 0.96956 0.0
C1280 C 0.01687 0.53828 0.07908 0.0
C1281 C 0.01831 0.51566 0.98081 0.0
C1282 C 0.01274 0.49562 0.99318 0.0
C1283 C 0.02298 0.48678 0.96023 0.0
C1284 C 0.03967 0.4989 0.91494 0.0
C1285 C 0.04592 0.51956 0.90359 0.0
C1286 C 0.03496 0.52796 0.93606 0.0
H1287 H 0.497 0.53727 0.94145 0.0
H1288 H 0.45475 0.48572 0.81089 0.0
H1289 H 0.46355 0.46345 0.88269 0.0
H1290 H 0.53553 0.52299 0.95173 0.0
H1291 H 0.54301 0.53234 0.04426 0.0
H1292 H 0.53261 0.54373 0.98453 0.0
H1293 H 0.50508 0.53684 0.08228 0.0
H1294 H 0.5152 0.5251 0.14183 0.0
H1295 H 0.48889 0.51134 0.115 0.0
H1296 H 0.47603 0.44684 0.97157 0.0
H1297 H 0.49553 0.4377 0.0569 0.0
H1298 H 0.53169 0.50055 0.12331 0.0
C1299 C 0.48978 0.5213 0.92789 0.0
C1300 C 0.47532 0.51305 0.87081 0.0
C1301 C 0.46603 0.49219 0.85412 0.0
C1302 C 0.47079 0.47948 0.89501 0.0
C1303 C 0.48497 0.488 0.95175 0.0
C1304 C 0.49463 0.5085 0.96727 0.0
C1305 C 0.51014 0.51402 0.02822 0.0
C1306 C 0.53159 0.52916 0.00051 0.0
C1307 C 0.50448 0.52231 0.09583 0.0
C1308 C 0.50785 0.49345 0.04412 0.0
C1309 C 0.49291 0.47859 0.00052 0.0
C1310 C 0.4879 0.45837 0.00539 0.0
C1311 C 0.499 0.45333 0.05393 0.0
C1312 C 0.51525 0.4685 0.09533 0.0
C1313 C 0.51933 0.48871 0.09203 0.0
H1314 H 0.53496 0.05439 0.99579 0.0
H1315 H 0.5136 0.03257 0.21762 0.0
H1316 H 0.50056 0.99775 0.17493 0.0
H1317 H 0.4855 0.01715 0.92469 0.0
H1318 H 0.49556 0.01495 0.83753 0.0
H1319 H 0.5081 0.03846 0.88777 0.0
H1320 H 0.5415 0.03733 0.88413 0.0
H1321 H 0.52899 0.01359 0.83516 0.0
H1322 H 0.54196 0.01552 0.92045 0.0
H1323 H 0.49335 0.96552 0.10699 0.0
H1324 H 0.48051 0.93748 0.01949 0.0
H1325 H 0.49099 0.9794 0.83995 0.0
C1326 C 0.52704 0.04256 0.0359 0.0
C1327 C 0.52602 0.04685 0.11134 0.0
C1328 C 0.51599 0.03029 0.16076 0.0
C1329 C 0.50816 0.01025 0.13671 0.0
C1330 C 0.50919 0.0068 0.06203 0.0
C1331 C 0.51734 0.02244 0.01183 0.0
C1332 C 0.51281 0.01447 0.93341 0.0
C1333 C 0.4997 0.02168 0.89352 0.0
C1334 C 0.53249 0.0206 0.8908 0.0
C1335 C 0.50107 0.99183 0.94774 0.0
C1336 C 0.50021 0.98786 0.02221 0.0
C1337 C 0.49272 0.96834 0.04888 0.0
C1338 C 0.48494 0.95236 0.99834 0.0
C1339 C 0.48287 0.95559 0.92244 0.0
C1340 C 0.49166 0.97586 0.89696 0.0
H1341 H 0.13452 0.18355 0.98897 0.0
H1342 H 0.1476 0.19061 0.22338 0.0
H1343 H 0.16939 0.17553 0.20879 0.0
H1344 H 0.131 0.13495 0.97412 0.0
H1345 H 0.14258 0.13952 0.88437 0.0
H1346 H 0.12893 0.15215 0.91123 0.0
H1347 H 0.16064 0.18696 0.88357 0.0
H1348 H 0.17439 0.17443 0.85658 0.0
H1349 H 0.18441 0.19355 0.92741 0.0
H1350 H 0.18923 0.15969 0.17137 0.0
H1351 H 0.20498 0.14182 0.11398 0.0
H1352 H 0.17843 0.14303 0.90327 0.0
C1353 C 0.14216 0.18208 0.03691 0.0
C1354 C 0.13943 0.18831 0.10731 0.0
C1355 C 0.1494 0.18587 0.16902 0.0
C1356 C 0.16189 0.17741 0.16129 0.0
C1357 C 0.16415 0.17127 0.09157 0.0
C1358 C 0.15451 0.1733 0.0304 0.0
C1359 C 0.15884 0.16439 0.96265 0.0
C1360 C 0.13917 0.1467 0.93127 0.0
C1361 C 0.17025 0.18082 0.9041 0.0
C1362 C 0.17232 0.15699 0.99573 0.0
C1363 C 0.17529 0.16138 0.07002 0.0
C1364 C 0.18705 0.15615 0.11321 0.0
C1365 C 0.19597 0.146 0.07986 0.0
C1366 C 0.19297 0.14096 0.00397 0.0
C1367 C 0.181 0.14663 0.96135 0.0
H1368 H 0.81453 0.96317 0.12212 0.0
H1369 H 0.80502 0.93525 0.90662 0.0
H1370 H 0.82306 0.96897 0.8488 0.0
H1371 H 0.80663 0.00401 0.06366 0.0
H1372 H 0.82571 0.02255 0.12389 0.0
H1373 H 0.81259 0.99615 0.14927 0.0
H1374 H 0.847 0.99722 0.16317 0.0
H1375 H 0.86021 0.02363 0.13781 0.0
H1376 H 0.86456 0.00582 0.08709 0.0
H1377 H 0.8427 0.00538 0.81407 0.0
H1378 H 0.86096 0.04267 0.8036 0.0
H1379 H 0.8564 0.04751 0.04026 0.0
C1380 C 0.81634 0.96423 0.06285 0.0
C1381 C 0.80831 0.94661 0.01875 0.0
C1382 C 0.81081 0.94854 0.94132 0.0
C1383 C 0.82115 0.96763 0.90797 0.0
C1384 C 0.82877 0.9847 0.95271 0.0
C1385 C 0.82637 0.98326 0.02835 0.0
C1386 C 0.83549 0.00411 0.06308 0.0
C1387 C 0.81913 0.00686 0.10227 0.0
C1388 C 0.85285 0.00792 0.1159 0.0
C1389 C 0.84341 0.0174 0.99511 0.0
C1390 C 0.83953 0.00586 0.9322 0.0
C1391 C 0.84575 0.01462 0.86284 0.0
C1392 C 0.85615 0.03581 0.85748 0.0
C1393 C 0.86 0.04798 0.92099 0.0
C1394 C 0.8535 0.03859 0.99065 0.0
H1395 H 0.94945 0.81021 0.01599 0.0
H1396 H 0.95693 0.80796 0.77976 0.0
H1397 H 0.99378 0.82297 0.79656 0.0
H1398 H 0.99365 0.85833 0.04259 0.0
H1399 H 1.00023 0.85213 0.13038 0.0
H1400 H 0.97413 0.83965 0.10121 0.0
H1401 H 0.97158 0.80469 0.11855 0.0
H1402 H 0.99769 0.81707 0.14787 0.0
H1403 H 0.98938 0.79946 0.07202 0.0
H1404 H 0.02952 0.83889 0.83698 0.0
H1405 H 0.06272 0.85656 0.89812 0.0
H1406 H 0.03296 0.85002 0.10884 0.0
C1407 C 0.95885 0.81264 0.96802 0.0
C1408 C 0.95032 0.80782 0.89657 0.0
C1409 C 0.96313 0.81156 0.83497 0.0
C1410 C 0.98407 0.81999 0.84394 0.0
C1411 C 0.99203 0.82476 0.91483 0.0
C1412 C 0.97991 0.82135 0.97588 0.0
C1413 C 0.99262 0.82903 0.04536 0.0
C1414 C 0.99 0.84578 0.08202 0.0
C1415 C 0.98751 0.81151 0.09912 0.0
C1416 C 0.01375 0.83744 0.0135 0.0
C1417 C 0.01295 0.83456 0.93821 0.0
C1418 C 0.03037 0.8412 0.89596 0.0
C1419 C 0.04919 0.85124 0.9314 0.0
C1420 C 0.05053 0.85474 0.00845 0.0
C1421 C 0.03249 0.84757 0.04996 0.0
H1422 H 0.86078 0.81192 0.02584 0.0
H1423 H 0.87287 0.83449 0.80087 0.0
H1424 H 0.85672 0.85484 0.8262 0.0
H1425 H 0.81235 0.80706 0.04138 0.0
H1426 H 0.81523 0.81546 0.13565 0.0
H1427 H 0.82902 0.80355 0.1025 0.0
H1428 H 0.86281 0.83467 0.14333 0.0
H1429 H 0.84916 0.84671 0.17698 0.0
H1430 H 0.86926 0.85956 0.11077 0.0
H1431 H 0.83697 0.87006 0.86987 0.0
H1432 H 0.81567 0.88125 0.93237 0.0
H1433 H 0.81703 0.85078 0.13263 0.0
C1434 C 0.86024 0.82134 0.98217 0.0
C1435 C 0.86809 0.82154 0.91117 0.0
C1436 C 0.867 0.83401 0.85557 0.0
C1437 C 0.85787 0.84568 0.86944 0.0
C1438 C 0.85008 0.84492 0.93941 0.0
C1439 C 0.85128 0.83327 0.99523 0.0
C1440 C 0.84105 0.83485 0.0648 0.0
C1441 C 0.82336 0.81399 0.08737 0.0
C1442 C 0.8565 0.84453 0.12769 0.0
C1443 C 0.83349 0.84885 0.03847 0.0
C1444 C 0.83897 0.8544 0.96585 0.0
C1445 C 0.83282 0.86611 0.92698 0.0
C1446 C 0.82065 0.87229 0.96292 0.0
C1447 C 0.81482 0.86694 0.0373 0.0
C1448 C 0.82155 0.8553 0.0761 0.0
H1449 H 0.18067 0.03468 0.87997 0.0
H1450 H 0.17967 0.06046 0.09183 0.0
H1451 H 0.15852 0.02621 0.14298 0.0
H1452 H 0.12895 0.99011 0.88864 0.0
H1453 H 0.13649 0.97338 0.84726 0.0
H1454 H 0.14972 0.99996 0.8241 0.0
H1455 H 0.18373 0.00257 0.86249 0.0
H1456 H 0.17058 0.97605 0.88594 0.0
H1457 H 0.18627 0.99464 0.95356 0.0
H1458 H 0.13903 0.98969 0.17377 0.0
H1459 H 0.12347 0.95257 0.18385 0.0
H1460 H 0.13819 0.94982 0.95454 0.0
C1461 C 0.1756 0.03301 0.93656 0.0
C1462 C 0.1816 0.05014 0.98188 0.0
C1463 C 0.17517 0.04747 0.05627 0.0
C1464 C 0.1631 0.02811 0.08579 0.0
C1465 C 0.15771 0.01148 0.04044 0.0
C1466 C 0.16378 0.01363 0.96756 0.0
C1467 C 0.15712 0.99311 0.93304 0.0
C1468 C 0.14218 0.98889 0.86949 0.0
C1469 C 0.17552 0.99151 0.90727 0.0
C1470 C 0.14666 0.97927 0.99817 0.0
C1471 C 0.14695 0.9902 0.05917 0.0
C1472 C 0.13859 0.9809 0.12631 0.0
C1473 C 0.12978 0.9598 0.13149 0.0
C1474 C 0.1296 0.94826 0.07012 0.0
C1475 C 0.13808 0.9582 0.00253 0.0
H1476 H 0.96427 0.14537 0.8873 0.0
H1477 H 0.93169 0.12532 0.0948 0.0
H1478 H 0.96394 0.1385 0.16113 0.0
H1479 H 0.00438 0.13463 0.93278 0.0
H1480 H 0.02402 0.157 0.88803 0.0
H1481 H 0.99827 0.14537 0.85514 0.0
H1482 H 0.99883 0.17948 0.87044 0.0
H1483 H 0.0246 0.19117 0.90296 0.0
H1484 H 0.00547 0.19211 0.95844 0.0
H1485 H 0.99929 0.15347 0.20611 0.0
H1486 H 0.0362 0.17158 0.22774 0.0
H1487 H 0.04653 0.1833 0.99297 0.0
C1488 C 0.96397 0.1437 0.94659 0.0
C1489 C 0.94542 0.13425 0.98562 0.0
C1490 C 0.94567 0.13254 0.06343 0.0
C1491 C 0.96393 0.13991 0.10182 0.0
C1492 C 0.98191 0.14913 0.06195 0.0
C1493 C 0.98218 0.15125 0.98624 0.0
C1494 C 0.00379 0.16251 0.95762 0.0
C1495 C 0.00785 0.14907 0.9053 0.0
C1496 C 0.00844 0.1825 0.92018 0.0
C1497 C 0.01549 0.16634 0.02913 0.0
C1498 C 0.00253 0.15831 0.08843 0.0
C1499 C 0.00965 0.15986 0.16018 0.0
C1500 C 0.03065 0.17013 0.17187 0.0
C1501 C 0.04429 0.17887 0.11217 0.0
C1502 C 0.03652 0.1768 0.03983 0.0
H1503 H 0.85251 0.47878 0.24712 0.0
H1504 H 0.86966 0.46623 0.46058 0.0
H1505 H 0.85214 0.48206 0.52164 0.0
H1506 H 0.85882 0.52776 0.29585 0.0
H1507 H 0.83741 0.52428 0.24201 0.0
H1508 H 0.85144 0.51207 0.21459 0.0
H1509 H 0.81832 0.47721 0.21612 0.0
H1510 H 0.8042 0.48931 0.24356 0.0
H1511 H 0.80307 0.46904 0.29849 0.0
H1512 H 0.83179 0.49794 0.55993 0.0
H1513 H 0.81095 0.51419 0.57323 0.0
H1514 H 0.8078 0.51757 0.3352 0.0
C1515 C 0.85261 0.47938 0.3067 0.0
C1516 C 0.86245 0.4712 0.34902 0.0
C1517 C 0.86229 0.4724 0.42688 0.0
C1518 C 0.85235 0.48134 0.46216 0.0
C1519 C 0.84276 0.48917 0.41888 0.0
C1520 C 0.8429 0.48841 0.34289 0.0
C1521 C 0.83146 0.49802 0.30947 0.0
C1522 C 0.84563 0.51664 0.26273 0.0
C1523 C 0.81318 0.48246 0.26426 0.0
C1524 C 0.82472 0.50413 0.37864 0.0
C1525 C 0.83137 0.4988 0.44106 0.0
C1526 C 0.8266 0.50231 0.5115 0.0
C1527 C 0.8147 0.5115 0.51842 0.0
C1528 C 0.80779 0.51723 0.45528 0.0
C1529 C 0.813 0.51355 0.3845 0.0
H1530 H 0.51928 0.36914 0.21433 0.0
H1531 H 0.53471 0.39718 0.43057 0.0
H1532 H 0.51857 0.36355 0.48862 0.0
H1533 H 0.46985 0.32823 0.26709 0.0
H1534 H 0.47109 0.30962 0.20948 0.0
H1535 H 0.48465 0.33599 0.18364 0.0
H1536 H 0.51811 0.33493 0.17725 0.0
H1537 H 0.50464 0.30856 0.20319 0.0
H1538 H 0.5262 0.32649 0.25636 0.0
H1539 H 0.50186 0.32744 0.52406 0.0
H1540 H 0.48265 0.29025 0.53566 0.0
H1541 H 0.47561 0.2847 0.29808 0.0
C1542 C 0.51929 0.36813 0.27381 0.0
C1543 C 0.5283 0.38578 0.31792 0.0
C1544 C 0.52784 0.38389 0.39564 0.0
C1545 C 0.51878 0.36484 0.42924 0.0
C1546 C 0.51 0.34776 0.38449 0.0
C1547 C 0.50992 0.34911 0.30859 0.0
C1548 C 0.49859 0.32818 0.27405 0.0
C1549 C 0.47994 0.32534 0.23104 0.0
C1550 C 0.51273 0.32432 0.22481 0.0
C1551 C 0.49243 0.31498 0.3425 0.0
C1552 C 0.49943 0.32665 0.40541 0.0
C1553 C 0.49618 0.31808 0.47531 0.0
C1554 C 0.48532 0.29694 0.4813 0.0
C1555 C 0.47759 0.2846 0.41788 0.0
C1556 C 0.4812 0.29378 0.34756 0.0
H1557 H 0.7046 0.18859 0.43518 0.0
H1558 H 0.73246 0.20812 0.21985 0.0
H1559 H 0.69878 0.19542 0.16386 0.0
H1560 H 0.66221 0.14215 0.37138 0.0
H1561 H 0.64423 0.14283 0.43415 0.0
H1562 H 0.67063 0.15473 0.45905 0.0
H1563 H 0.67136 0.1887 0.48088 0.0
H1564 H 0.64495 0.17689 0.45607 0.0
H1565 H 0.66341 0.19934 0.40824 0.0
H1566 H 0.66259 0.18048 0.13021 0.0
H1567 H 0.62539 0.16221 0.11934 0.0
H1568 H 0.62016 0.15058 0.35494 0.0
C1569 C 0.70355 0.19035 0.37644 0.0
C1570 C 0.72111 0.19941 0.33184 0.0
C1571 C 0.71918 0.20116 0.25497 0.0
C1572 C 0.70014 0.19409 0.22265 0.0
C1573 C 0.68311 0.18507 0.26777 0.0
C1574 C 0.68453 0.183 0.34284 0.0
C1575 C 0.66363 0.1716 0.37759 0.0
C1576 C 0.65997 0.15165 0.41259 0.0
C1577 C 0.66067 0.18494 0.43403 0.0
C1578 C 0.65034 0.16768 0.31026 0.0
C1579 C 0.66196 0.17577 0.24774 0.0
C1580 C 0.65329 0.17407 0.17873 0.0
C1581 C 0.63211 0.16366 0.17319 0.0
C1582 C 0.61979 0.15491 0.23621 0.0
C1583 C 0.62912 0.15707 0.30569 0.0
H1584 H 0.53013 0.15166 0.35807 0.0
H1585 H 0.52434 0.15709 0.12212 0.0
H1586 H 0.50351 0.17286 0.145 0.0
H1587 H 0.47979 0.14026 0.4077 0.0
H1588 H 0.48742 0.15521 0.49076 0.0
H1589 H 0.50197 0.14413 0.45729 0.0
H1590 H 0.53438 0.17944 0.45554 0.0
H1591 H 0.52003 0.19069 0.48957 0.0
H1592 H 0.53437 0.1999 0.4055 0.0
H1593 H 0.48271 0.18677 0.19088 0.0
H1594 H 0.46472 0.20087 0.25768 0.0
H1595 H 0.48462 0.18851 0.46598 0.0
C1596 C 0.5245 0.15622 0.31128 0.0
C1597 C 0.52887 0.1531 0.23821 0.0
C1598 C 0.52129 0.15935 0.17851 0.0
C1599 C 0.50937 0.16827 0.19089 0.0
C1600 C 0.50527 0.17102 0.26327 0.0
C1601 C 0.51272 0.16542 0.32262 0.0
C1602 C 0.5063 0.17063 0.3948 0.0
C1603 C 0.49308 0.15141 0.4403 0.0
C1604 C 0.52488 0.18609 0.43894 0.0
C1605 C 0.49402 0.17996 0.36636 0.0
C1606 C 0.49357 0.17979 0.29027 0.0
C1607 C 0.48303 0.18712 0.25046 0.0
C1608 C 0.47279 0.19509 0.28923 0.0
C1609 C 0.47328 0.19593 0.36732 0.0
C1610 C 0.48403 0.18818 0.40639 0.0
H1611 H 0.81674 0.29494 0.44939 0.0
H1612 H 0.80578 0.27038 0.22749 0.0
H1613 H 0.82149 0.3048 0.17645 0.0
H1614 H 0.80804 0.33657 0.4125 0.0
H1615 H 0.82837 0.35431 0.47075 0.0
H1616 H 0.81571 0.32759 0.49129 0.0
H1617 H 0.85018 0.3285 0.48887 0.0
H1618 H 0.86294 0.35523 0.46865 0.0
H1619 H 0.86614 0.3382 0.40859 0.0
H1620 H 0.83709 0.3415 0.14803 0.0
H1621 H 0.85513 0.37896 0.14476 0.0
H1622 H 0.85826 0.38038 0.38359 0.0
C1623 C 0.81766 0.29686 0.39017 0.0
C1624 C 0.80996 0.27993 0.34259 0.0
C1625 C 0.81163 0.28308 0.26526 0.0
C1626 C 0.82044 0.30259 0.2355 0.0
C1627 C 0.8278 0.31893 0.28359 0.0
C1628 C 0.82682 0.31638 0.35921 0.0
C1629 C 0.83673 0.33673 0.39804 0.0
C1630 C 0.82129 0.33892 0.44596 0.0
C1631 C 0.85509 0.33984 0.44372 0.0
C1632 C 0.84327 0.35096 0.33236 0.0
C1633 C 0.83772 0.34033 0.26694 0.0
C1634 C 0.84166 0.35005 0.19885 0.0
C1635 C 0.85182 0.3713 0.1975 0.0
C1636 C 0.85817 0.38253 0.26377 0.0
C1637 C 0.85374 0.37217 0.33197 0.0
H1638 H 0.71625 0.5163 0.32198 0.0
H1639 H 0.70469 0.49479 0.54826 0.0
H1640 H 0.66812 0.47555 0.5222 0.0
H1641 H 0.67407 0.52322 0.30243 0.0
H1642 H 0.66843 0.51442 0.20862 0.0
H1643 H 0.69402 0.52555 0.24257 0.0
H1644 H 0.69523 0.49341 0.20536 0.0
H1645 H 0.66967 0.48217 0.17069 0.0
H1646 H 0.67598 0.46898 0.23881 0.0
H1647 H 0.63332 0.46142 0.47722 0.0
H1648 H 0.60121 0.45115 0.41316 0.0
H1649 H 0.63407 0.47986 0.21244 0.0
C1650 C 0.70605 0.50734 0.36583 0.0
C1651 C 0.71339 0.50717 0.43747 0.0
C1652 C 0.69951 0.49529 0.49322 0.0
C1653 C 0.67868 0.48424 0.47888 0.0
C1654 C 0.67196 0.48501 0.4083 0.0
C1655 C 0.68514 0.49604 0.35232 0.0
C1656 C 0.67366 0.49464 0.28197 0.0
C1657 C 0.67779 0.51571 0.2575 0.0
C1658 C 0.67895 0.48417 0.22058 0.0
C1659 C 0.65193 0.48146 0.30796 0.0
C1660 C 0.65147 0.47615 0.38113 0.0
C1661 C 0.63343 0.4652 0.4197 0.0
C1662 C 0.61529 0.45955 0.38285 0.0
C1663 C 0.6152 0.46466 0.30786 0.0
C1664 C 0.63376 0.47553 0.26945 0.0
H1665 H 0.51463 0.79876 0.70811 0.0
H1666 H 0.53089 0.8188 0.48175 0.0
H1667 H 0.51758 0.84203 0.49616 0.0
H1668 H 0.46736 0.79872 0.70444 0.0
H1669 H 0.46913 0.80765 0.79754 0.0
H1670 H 0.48122 0.79333 0.77273 0.0
H1671 H 0.51561 0.82239 0.82027 0.0
H1672 H 0.50361 0.8368 0.84531 0.0
H1673 H 0.52525 0.84768 0.78469 0.0
H1674 H 0.50269 0.86243 0.53123 0.0
H1675 H 0.48485 0.87862 0.58374 0.0
H1676 H 0.47577 0.84521 0.78798 0.0
C1677 C 0.51552 0.80823 0.66212 0.0
C1678 C 0.52382 0.80704 0.5938 0.0
C1679 C 0.52449 0.81939 0.53434 0.0
C1680 C 0.51707 0.83272 0.54205 0.0
C1681 C 0.50879 0.83342 0.60938 0.0
C1682 C 0.50776 0.82149 0.66843 0.0
C1683 C 0.49697 0.82471 0.73312 0.0
C1684 C 0.47751 0.80492 0.75311 0.0
C1685 C 0.51122 0.83342 0.7998 0.0
C1686 C 0.49212 0.84022 0.70062 0.0
C1687 C 0.49936 0.84505 0.62943 0.0
C1688 C 0.49694 0.85884 0.58695 0.0
C1689 C 0.48674 0.86798 0.61766 0.0
C1690 C 0.47883 0.86325 0.69028 0.0
C1691 C 0.4816 0.84914 0.73242 0.0
H1692 H 0.19874 0.71856 0.68327 0.0
H1693 H 0.19122 0.70919 0.4468 0.0
H1694 H 0.16967 0.67247 0.46661 0.0
H1695 H 0.2025 0.67428 0.72116 0.0
H1696 H 0.18886 0.66856 0.80704 0.0
H1697 H 0.20297 0.69437 0.77513 0.0
H1698 H 0.17059 0.69735 0.78365 0.0
H1699 H 0.15635 0.67151 0.81546 0.0
H1700 H 0.14798 0.67932 0.73542 0.0
H1701 H 0.14918 0.63713 0.51025 0.0
H1702 H 0.13235 0.60449 0.57515 0.0
H1703 H 0.15377 0.63581 0.78441 0.0
C1704 C 0.19244 0.70877 0.63578 0.0
C1705 C 0.19662 0.71676 0.56346 0.0
C1706 C 0.1883 0.70343 0.50268 0.0
C1707 C 0.17595 0.68255 0.51332 0.0
C1708 C 0.17217 0.67515 0.58507 0.0
C1709 C 0.18024 0.68775 0.64535 0.0
C1710 C 0.1744 0.67561 0.7164 0.0
C1711 C 0.19331 0.67837 0.75733 0.0
C1712 C 0.16157 0.68129 0.76563 0.0
C1713 C 0.16185 0.65426 0.68636 0.0
C1714 C 0.16065 0.65446 0.61048 0.0
C1715 C 0.14999 0.63675 0.56969 0.0
C1716 C 0.14043 0.61825 0.60729 0.0
C1717 C 0.1417 0.61751 0.68509 0.0
C1718 C 0.1525 0.63584 0.72503 0.0
H1719 H 0.285 0.4772 0.70322 0.0
H1720 H 0.28829 0.47413 0.46531 0.0
H1721 H 0.32538 0.48918 0.47313 0.0
H1722 H 0.33006 0.5257 0.72128 0.0
H1723 H 0.33808 0.51979 0.80663 0.0
H1724 H 0.31152 0.50743 0.78372 0.0
H1725 H 0.30886 0.47237 0.79926 0.0
H1726 H 0.33542 0.48463 0.82226 0.0
H1727 H 0.3256 0.46666 0.74758 0.0
H1728 H 0.3615 0.50434 0.50495 0.0
H1729 H 0.3957 0.5213 0.55794 0.0
H1730 H 0.37029 0.51687 0.77608 0.0
C1731 C 0.29357 0.47952 0.65302 0.0
C1732 C 0.28382 0.47441 0.58362 0.0
C1733 C 0.29549 0.47799 0.51893 0.0
C1734 C 0.31654 0.48644 0.52283 0.0
C1735 C 0.32572 0.49145 0.5918 0.0
C1736 C 0.31474 0.48834 0.65578 0.0
C1737 C 0.32871 0.49624 0.72224 0.0
C1738 C 0.32699 0.5133 0.76072 0.0
C1739 C 0.32439 0.47894 0.77601 0.0
C1740 C 0.34921 0.5043 0.68531 0.0
C1741 C 0.34698 0.50108 0.61017 0.0
C1742 C 0.36349 0.50697 0.5637 0.0
C1743 C 0.38289 0.51657 0.59459 0.0
C1744 C 0.38575 0.52045 0.67134 0.0
C1745 C 0.36861 0.51417 0.71728 0.0
H1746 H 0.14237 0.5266 0.62685 0.0
H1747 H 0.16731 0.54637 0.84616 0.0
H1748 H 0.18927 0.5315 0.82813 0.0
H1749 H 0.14124 0.47947 0.62864 0.0
H1750 H 0.14861 0.48075 0.5336 0.0
H1751 H 0.13519 0.4934 0.56289 0.0
H1752 H 0.16396 0.52732 0.51076 0.0
H1753 H 0.17752 0.51479 0.48135 0.0
H1754 H 0.1897 0.53661 0.54081 0.0
H1755 H 0.20684 0.51275 0.78983 0.0
H1756 H 0.22012 0.49253 0.73149 0.0
H1757 H 0.18526 0.48629 0.5344 0.0
C1758 C 0.15248 0.52788 0.67113 0.0
C1759 C 0.15295 0.53751 0.73834 0.0
C1760 C 0.16654 0.53896 0.79448 0.0
C1761 C 0.17913 0.5306 0.78467 0.0
C1762 C 0.17816 0.52111 0.71802 0.0
C1763 C 0.16534 0.51985 0.66192 0.0
C1764 C 0.16718 0.50871 0.59584 0.0
C1765 C 0.14685 0.48944 0.57931 0.0
C1766 C 0.17506 0.5227 0.5282 0.0
C1767 C 0.18281 0.50358 0.62409 0.0
C1768 C 0.18888 0.51086 0.6948 0.0
C1769 C 0.20237 0.50716 0.73425 0.0
C1770 C 0.20974 0.49557 0.70084 0.0
C1771 C 0.20374 0.48794 0.62855 0.0
C1772 C 0.19033 0.49225 0.58929 0.0
H1773 H 0.4785 0.62678 0.77747 0.0
H1774 H 0.45573 0.59882 0.56415 0.0
H1775 H 0.46848 0.63239 0.50822 0.0
H1776 H 0.46901 0.66945 0.75352 0.0
H1777 H 0.49224 0.68745 0.79845 0.0
H1778 H 0.47975 0.66109 0.82444 0.0
H1779 H 0.51277 0.66028 0.79789 0.0
H1780 H 0.52529 0.6866 0.77167 0.0
H1781 H 0.52454 0.66797 0.70859 0.0
H1782 H 0.48441 0.66825 0.47313 0.0
H1783 H 0.50423 0.70532 0.45947 0.0
H1784 H 0.51837 0.7112 0.69328 0.0
C1785 C 0.47597 0.62782 0.71934 0.0
C1786 C 0.46606 0.61022 0.67517 0.0
C1787 C 0.46333 0.61211 0.59896 0.0
C1788 C 0.47043 0.63111 0.56664 0.0
C1789 C 0.4804 0.64817 0.61102 0.0
C1790 C 0.48331 0.64684 0.68557 0.0
C1791 C 0.49576 0.66783 0.71894 0.0
C1792 C 0.48345 0.67168 0.77729 0.0
C1793 C 0.51578 0.67084 0.75115 0.0
C1794 C 0.49948 0.68097 0.65125 0.0
C1795 C 0.49024 0.66923 0.58996 0.0
C1796 C 0.49167 0.67768 0.5207 0.0
C1797 C 0.50298 0.69878 0.51354 0.0
C1798 C 0.51287 0.71122 0.5752 0.0
C1799 C 0.51097 0.70213 0.64505 0.0
H1800 H 0.2892 0.80514 0.67384 0.0
H1801 H 0.29924 0.80312 0.43952 0.0
H1802 H 0.33618 0.82139 0.46113 0.0
H1803 H 0.33047 0.85424 0.7083 0.0
H1804 H 0.33676 0.84803 0.79661 0.0
H1805 H 0.31105 0.83426 0.76338 0.0
H1806 H 0.31094 0.80046 0.77864 0.0
H1807 H 0.33665 0.81404 0.81224 0.0
H1808 H 0.33036 0.79724 0.73449 0.0
H1809 H 0.37164 0.84164 0.50638 0.0
H1810 H 0.4039 0.86084 0.573 0.0
H1811 H 0.37128 0.84822 0.78016 0.0
C1812 C 0.29908 0.80831 0.62713 0.0
C1813 C 0.29122 0.80261 0.555 0.0
C1814 C 0.30482 0.80722 0.49533 0.0
C1815 C 0.32584 0.81762 0.50704 0.0
C1816 C 0.33301 0.82309 0.5788 0.0
C1817 C 0.32008 0.81842 0.638 0.0
C1818 C 0.33176 0.8261 0.70962 0.0
C1819 C 0.32724 0.84158 0.74662 0.0
C1820 C 0.32715 0.8084 0.76181 0.0
C1821 C 0.35337 0.83611 0.6812 0.0
C1822 C 0.35364 0.83424 0.60547 0.0
C1823 C 0.37164 0.84301 0.56569 0.0
C1824 C 0.38989 0.85397 0.60414 0.0
C1825 C 0.3901 0.85595 0.68186 0.0
C1826 C 0.37157 0.84674 0.72093 0.0
loop_
_geom_bond_atom_site_label_1
_geom_bond_atom_site_label_2
_geom_bond_distance
_geom_bond_site_symmetry_2
_ccdc_geom_bond_type
Co0 O3 1.970 . S
Co0 N17 1.989 . S
Co0 O25 1.967 . S
Co0 O32 1.920 1_554 S
Co1 O4 1.966 . S
Co1 N10 2.022 . S
Co1 N18 1.993 . S
Co1 O26 1.941 . S
C2 O3 1.258 . S
C2 O4 1.263 . S
O3 Co0 1.970 . S
O3 C2 1.258 . S
O4 Co1 1.966 . S
O4 C2 1.263 . S
C5 O6 1.235 . S
C5 O32 1.289 . S
O6 C5 1.235 . S
C7 C9 1.400 . S
C7 N10 1.351 . S
C7 C12 1.501 . S
C8 C9 1.387 . S
C8 N11 1.341 . S
C9 C7 1.400 . S
C9 C8 1.387 . S
N10 Co1 2.022 . S
N10 C7 1.351 . S
N10 N11 1.365 . S
N11 C8 1.341 . S
N11 N10 1.365 . S
N11 H31 0.862 . S
C12 C7 1.501 . S
C12 H13 0.961 . S
C12 H14 0.961 . S
C12 H15 0.960 . S
H13 C12 0.961 . S
H14 C12 0.961 . S
H15 C12 0.960 . S
C16 N17 1.342 . S
C16 C20 1.401 . S
C16 C21 1.499 . S
N17 Co0 1.989 . S
N17 C16 1.342 . S
N17 N18 1.388 . S
N18 Co1 1.993 . S
N18 N17 1.388 . S
N18 C19 1.346 . S
C19 N18 1.346 . S
C19 C20 1.396 . S
C19 C29 1.510 . S
C20 C16 1.401 . S
C20 C19 1.396 . S
C21 C16 1.499 . S
C21 H22 0.959 . S
C21 H23 0.960 . S
C21 H24 0.961 . S
H22 C21 0.959 . S
H23 C21 0.960 . S
H24 C21 0.961 . S
O25 Co0 1.967 . S
O25 C33 1.258 . S
O26 Co1 1.941 . S
O26 C33 1.266 . S
H27 C29 0.959 . S
H28 C29 0.961 . S
C29 C19 1.510 . S
C29 H27 0.959 . S
C29 H28 0.961 . S
C29 H30 0.960 . S
H30 C29 0.960 . S
H31 N11 0.862 . S
O32 Co0 1.920 1_556 S
O32 C5 1.289 . S
C33 O25 1.258 . S
C33 O26 1.266 . S
Co34 O37 1.970 . S
Co34 N51 1.989 . S
Co34 O59 1.967 . S
Co34 O66 1.920 1_554 S
Co35 O38 1.966 . S
Co35 N44 2.022 . S
Co35 N52 1.993 . S
Co35 O60 1.941 . S
C36 O37 1.258 . S
C36 O38 1.263 . S
O37 Co34 1.970 . S
O37 C36 1.258 . S
O38 Co35 1.966 . S
O38 C36 1.263 . S
C39 O40 1.235 . S
C39 O66 1.289 . S
O40 C39 1.235 . S
C41 C43 1.400 . S
C41 N44 1.351 . S
C41 C46 1.501 . S
C42 C43 1.387 . S
C42 N45 1.341 . S
C43 C41 1.400 . S
C43 C42 1.387 . S
N44 Co35 2.022 . S
N44 C41 1.351 . S
N44 N45 1.365 . S
N45 C42 1.341 . S
N45 N44 1.365 . S
N45 H65 0.862 . S
C46 C41 1.501 . S
C46 H47 0.961 . S
C46 H48 0.961 . S
C46 H49 0.960 . S
H47 C46 0.961 . S
H48 C46 0.961 . S
H49 C46 0.960 . S
C50 N51 1.342 . S
C50 C54 1.401 . S
C50 C55 1.499 . S
N51 Co34 1.989 . S
N51 C50 1.342 . S
N51 N52 1.388 . S
N52 Co35 1.993 . S
N52 N51 1.388 . S
N52 C53 1.346 . S
C53 N52 1.346 . S
C53 C54 1.396 . S
C53 C63 1.510 . S
C54 C50 1.401 . S
C54 C53 1.396 . S
C55 C50 1.499 . S
C55 H56 0.959 . S
C55 H57 0.960 . S
C55 H58 0.961 . S
H56 C55 0.959 . S
H57 C55 0.960 . S
H58 C55 0.961 . S
O59 Co34 1.967 . S
O59 C67 1.258 . S
O60 Co35 1.941 . S
O60 C67 1.266 . S
H61 C63 0.959 . S
H62 C63 0.961 . S
C63 C53 1.510 . S
C63 H61 0.959 . S
C63 H62 0.961 . S
C63 H64 0.960 . S
H64 C63 0.960 . S
H65 N45 0.862 . S
O66 Co34 1.920 1_556 S
O66 C39 1.289 . S
C67 O59 1.258 . S
C67 O60 1.266 . S
Co68 O71 1.970 . S
Co68 N85 1.989 . S
Co68 O93 1.967 . S
Co68 O100 1.920 1_554 S
Co69 O72 1.966 . S
Co69 N78 2.022 . S
Co69 N86 1.993 . S
Co69 O94 1.941 . S
C70 O71 1.258 . S
C70 O72 1.263 . S
O71 Co68 1.970 . S
O71 C70 1.258 . S
O72 Co69 1.966 . S
O72 C70 1.263 . S
C73 O74 1.235 . S
C73 O100 1.289 . S
O74 C73 1.235 . S
C75 C77 1.400 . S
C75 N78 1.351 . S
C75 C80 1.501 . S
C76 C77 1.387 . S
C76 N79 1.341 . S
C77 C75 1.400 . S
C77 C76 1.387 . S
N78 Co69 2.022 . S
N78 C75 1.351 . S
N78 N79 1.365 . S
N79 C76 1.341 . S
N79 N78 1.365 . S
N79 H99 0.862 . S
C80 C75 1.501 . S
C80 H81 0.961 . S
C80 H82 0.961 . S
C80 H83 0.960 . S
H81 C80 0.961 . S
H82 C80 0.961 . S
H83 C80 0.960 . S
C84 N85 1.342 . S
C84 C88 1.401 . S
C84 C89 1.499 . S
N85 Co68 1.989 . S
N85 C84 1.342 . S
N85 N86 1.388 . S
N86 Co69 1.993 . S
N86 N85 1.388 . S
N86 C87 1.346 . S
C87 N86 1.346 . S
C87 C88 1.396 . S
C87 C97 1.510 . S
C88 C84 1.401 . S
C88 C87 1.396 . S
C89 C84 1.499 . S
C89 H90 0.959 . S
C89 H91 0.960 . S
C89 H92 0.961 . S
H90 C89 0.959 . S
H91 C89 0.960 . S
H92 C89 0.961 . S
O93 Co68 1.967 . S
O93 C101 1.258 . S
O94 Co69 1.941 . S
O94 C101 1.266 . S
H95 C97 0.959 . S
H96 C97 0.961 . S
C97 C87 1.510 . S
C97 H95 0.959 . S
C97 H96 0.961 . S
C97 H98 0.960 . S
H98 C97 0.960 . S
H99 N79 0.862 . S
O100 Co68 1.920 1_556 S
O100 C73 1.289 . S
C101 O93 1.258 . S
C101 O94 1.266 . S
Co102 O105 1.970 . S
Co102 N119 1.989 . S
Co102 O127 1.967 . S
Co102 O134 1.920 1_556 S
Co103 O106 1.966 . S
Co103 N112 2.022 . S
Co103 N120 1.993 . S
Co103 O128 1.941 . S
C104 O105 1.258 . S
C104 O106 1.263 . S
O105 Co102 1.970 . S
O105 C104 1.258 . S
O106 Co103 1.966 . S
O106 C104 1.263 . S
C107 O108 1.235 . S
C107 O134 1.289 . S
O108 C107 1.235 . S
C109 C111 1.400 . S
C109 N112 1.351 . S
C109 C114 1.501 . S
C110 C111 1.387 . S
C110 N113 1.341 . S
C111 C109 1.400 . S
C111 C110 1.387 . S
N112 Co103 2.022 . S
N112 C109 1.351 . S
N112 N113 1.365 . S
N113 C110 1.341 . S
N113 N112 1.365 . S
N113 H133 0.862 . S
C114 C109 1.501 . S
C114 H115 0.961 . S
C114 H116 0.961 . S
C114 H117 0.960 . S
H115 C114 0.961 . S
H116 C114 0.961 . S
H117 C114 0.960 . S
C118 N119 1.342 . S
C118 C122 1.401 . S
C118 C123 1.499 . S
N119 Co102 1.989 . S
N119 C118 1.342 . S
N119 N120 1.388 . S
N120 Co103 1.993 . S
N120 N119 1.388 . S
N120 C121 1.346 . S
C121 N120 1.346 . S
C121 C122 1.396 . S
C121 C131 1.510 . S
C122 C118 1.401 . S
C122 C121 1.396 . S
C123 C118 1.499 . S
C123 H124 0.959 . S
C123 H125 0.960 . S
C123 H126 0.961 . S
H124 C123 0.959 . S
H125 C123 0.960 . S
H126 C123 0.961 . S
O127 Co102 1.967 . S
O127 C135 1.258 . S
O128 Co103 1.941 . S
O128 C135 1.266 . S
H129 C131 0.959 . S
H130 C131 0.961 . S
C131 C121 1.510 . S
C131 H129 0.959 . S
C131 H130 0.961 . S
C131 H132 0.960 . S
H132 C131 0.960 . S
H133 N113 0.862 . S
O134 Co102 1.920 1_554 S
O134 C107 1.289 . S
C135 O127 1.258 . S
C135 O128 1.266 . S
Co136 O139 1.970 . S
Co136 N153 1.989 . S
Co136 O161 1.967 . S
Co136 O168 1.920 1_556 S
Co137 O140 1.966 . S
Co137 N146 2.022 . S
Co137 N154 1.993 . S
Co137 O162 1.941 . S
C138 O139 1.258 . S
C138 O140 1.263 . S
O139 Co136 1.970 . S
O139 C138 1.258 . S
O140 Co137 1.966 . S
O140 C138 1.263 . S
C141 O142 1.235 . S
C141 O168 1.289 . S
O142 C141 1.235 . S
C143 C145 1.400 . S
C143 N146 1.351 . S
C143 C148 1.501 . S
C144 C145 1.387 . S
C144 N147 1.341 . S
C145 C143 1.400 . S
C145 C144 1.387 . S
N146 Co137 2.022 . S
N146 C143 1.351 . S
N146 N147 1.365 . S
N147 C144 1.341 . S
N147 N146 1.365 . S
N147 H167 0.862 . S
C148 C143 1.501 . S
C148 H149 0.961 . S
C148 H150 0.961 . S
C148 H151 0.960 . S
H149 C148 0.961 . S
H150 C148 0.961 . S
H151 C148 0.960 . S
C152 N153 1.342 . S
C152 C156 1.401 . S
C152 C157 1.499 . S
N153 Co136 1.989 . S
N153 C152 1.342 . S
N153 N154 1.388 . S
N154 Co137 1.993 . S
N154 N153 1.388 . S
N154 C155 1.346 . S
C155 N154 1.346 . S
C155 C156 1.396 . S
C155 C165 1.510 . S
C156 C152 1.401 . S
C156 C155 1.396 . S
C157 C152 1.499 . S
C157 H158 0.959 . S
C157 H159 0.960 . S
C157 H160 0.961 . S
H158 C157 0.959 . S
H159 C157 0.960 . S
H160 C157 0.961 . S
O161 Co136 1.967 . S
O161 C169 1.258 . S
O162 Co137 1.941 . S
O162 C169 1.266 . S
H163 C165 0.959 . S
H164 C165 0.961 . S
C165 C155 1.510 . S
C165 H163 0.959 . S
C165 H164 0.961 . S
C165 H166 0.960 . S
H166 C165 0.960 . S
H167 N147 0.862 . S
O168 Co136 1.920 1_554 S
O168 C141 1.289 . S
C169 O161 1.258 . S
C169 O162 1.266 . S
Co170 O173 1.970 . S
Co170 N187 1.989 . S
Co170 O195 1.967 . S
Co170 O202 1.920 1_556 S
Co171 O174 1.966 . S
Co171 N180 2.022 . S
Co171 N188 1.993 . S
Co171 O196 1.941 . S
C172 O173 1.258 . S
C172 O174 1.263 . S
O173 Co170 1.970 . S
O173 C172 1.258 . S
O174 Co171 1.966 . S
O174 C172 1.263 . S
C175 O176 1.235 . S
C175 O202 1.289 . S
O176 C175 1.235 . S
C177 C179 1.400 . S
C177 N180 1.351 . S
C177 C182 1.501 . S
C178 C179 1.387 . S
C178 N181 1.341 . S
C179 C177 1.400 . S
C179 C178 1.387 . S
N180 Co171 2.022 . S
N180 C177 1.351 . S
N180 N181 1.365 . S
N181 C178 1.341 . S
N181 N180 1.365 . S
N181 H201 0.862 . S
C182 C177 1.501 . S
C182 H183 0.961 . S
C182 H184 0.961 . S
C182 H185 0.960 . S
H183 C182 0.961 . S
H184 C182 0.961 . S
H185 C182 0.960 . S
C186 N187 1.342 . S
C186 C190 1.401 . S
C186 C191 1.499 . S
N187 Co170 1.989 . S
N187 C186 1.342 . S
N187 N188 1.388 . S
N188 Co171 1.993 . S
N188 N187 1.388 . S
N188 C189 1.346 . S
C189 N188 1.346 . S
C189 C190 1.396 . S
C189 C199 1.510 . S
C190 C186 1.401 . S
C190 C189 1.396 . S
C191 C186 1.499 . S
C191 H192 0.959 . S
C191 H193 0.960 . S
C191 H194 0.961 . S
H192 C191 0.959 . S
H193 C191 0.960 . S
H194 C191 0.961 . S
O195 Co170 1.967 . S
O195 C203 1.258 . S
O196 Co171 1.941 . S
O196 C203 1.266 . S
H197 C199 0.959 . S
H198 C199 0.961 . S
C199 C189 1.510 . S
C199 H197 0.959 . S
C199 H198 0.961 . S
C199 H200 0.960 . S
H200 C199 0.960 . S
H201 N181 0.862 . S
O202 Co170 1.920 1_554 S
O202 C175 1.289 . S
C203 O195 1.258 . S
C203 O196 1.266 . S
Co204 O207 1.970 . S
Co204 N221 1.989 . S
Co204 O229 1.967 . S
Co204 O236 1.920 . S
Co205 O208 1.966 . S
Co205 N214 2.022 . S
Co205 N222 1.993 . S
Co205 O230 1.941 . S
C206 O207 1.258 . S
C206 O208 1.263 . S
O207 Co204 1.970 . S
O207 C206 1.258 . S
O208 Co205 1.966 . S
O208 C206 1.263 . S
C209 O210 1.235 . S
C209 O236 1.289 . S
O210 C209 1.235 . S
C211 C213 1.400 . S
C211 N214 1.351 . S
C211 C216 1.501 . S
C212 C213 1.387 . S
C212 N215 1.341 . S
C213 C211 1.400 . S
C213 C212 1.387 . S
N214 Co205 2.022 . S
N214 C211 1.351 . S
N214 N215 1.365 . S
N215 C212 1.341 . S
N215 N214 1.365 . S
N215 H235 0.862 . S
C216 C211 1.501 . S
C216 H217 0.961 . S
C216 H218 0.961 . S
C216 H219 0.960 . S
H217 C216 0.961 . S
H218 C216 0.961 . S
H219 C216 0.960 . S
C220 N221 1.342 . S
C220 C224 1.401 . S
C220 C225 1.499 . S
N221 Co204 1.989 . S
N221 C220 1.342 . S
N221 N222 1.388 . S
N222 Co205 1.993 . S
N222 N221 1.388 . S
N222 C223 1.346 . S
C223 N222 1.346 . S
C223 C224 1.396 . S
C223 C233 1.510 . S
C224 C220 1.401 . S
C224 C223 1.396 . S
C225 C220 1.499 . S
C225 H226 0.959 . S
C225 H227 0.960 . S
C225 H228 0.961 . S
H226 C225 0.959 . S
H227 C225 0.960 . S
H228 C225 0.961 . S
O229 Co204 1.967 . S
O229 C237 1.258 . S
O230 Co205 1.941 . S
O230 C237 1.266 . S
H231 C233 0.959 . S
H232 C233 0.961 . S
C233 C223 1.510 . S
C233 H231 0.959 . S
C233 H232 0.961 . S
C233 H234 0.960 . S
H234 C233 0.960 . S
H235 N215 0.862 . S
O236 Co204 1.920 . S
O236 C209 1.289 . S
C237 O229 1.258 . S
C237 O230 1.266 . S
Co238 O241 1.970 . S
Co238 N255 1.989 . S
Co238 O263 1.967 . S
Co238 O270 1.920 . S
Co239 O242 1.966 . S
Co239 N248 2.022 . S
Co239 N256 1.993 . S
Co239 O264 1.941 . S
C240 O241 1.258 . S
C240 O242 1.263 . S
O241 Co238 1.970 . S
O241 C240 1.258 . S
O242 Co239 1.966 . S
O242 C240 1.263 . S
C243 O244 1.235 . S
C243 O270 1.289 . S
O244 C243 1.235 . S
C245 C247 1.400 . S
C245 N248 1.351 . S
C245 C250 1.501 . S
C246 C247 1.387 . S
C246 N249 1.341 . S
C247 C245 1.400 . S
C247 C246 1.387 . S
N248 Co239 2.022 . S
N248 C245 1.351 . S
N248 N249 1.365 . S
N249 C246 1.341 . S
N249 N248 1.365 . S
N249 H269 0.862 . S
C250 C245 1.501 . S
C250 H251 0.961 . S
C250 H252 0.961 . S
C250 H253 0.960 . S
H251 C250 0.961 . S
H252 C250 0.961 . S
H253 C250 0.960 . S
C254 N255 1.342 . S
C254 C258 1.401 . S
C254 C259 1.499 . S
N255 Co238 1.989 . S
N255 C254 1.342 . S
N255 N256 1.388 . S
N256 Co239 1.993 . S
N256 N255 1.388 . S
N256 C257 1.346 . S
C257 N256 1.346 . S
C257 C258 1.396 . S
C257 C267 1.510 . S
C258 C254 1.401 . S
C258 C257 1.396 . S
C259 C254 1.499 . S
C259 H260 0.959 . S
C259 H261 0.960 . S
C259 H262 0.961 . S
H260 C259 0.959 . S
H261 C259 0.960 . S
H262 C259 0.961 . S
O263 Co238 1.967 . S
O263 C271 1.258 . S
O264 Co239 1.941 . S
O264 C271 1.266 . S
H265 C267 0.959 . S
H266 C267 0.961 . S
C267 C257 1.510 . S
C267 H265 0.959 . S
C267 H266 0.961 . S
C267 H268 0.960 . S
H268 C267 0.960 . S
H269 N249 0.862 . S
O270 Co238 1.920 . S
O270 C243 1.289 . S
C271 O263 1.258 . S
C271 O264 1.266 . S
Co272 O275 1.970 . S
Co272 N289 1.989 . S
Co272 O297 1.967 . S
Co272 O304 1.920 . S
Co273 O276 1.966 . S
Co273 N282 2.022 . S
Co273 N290 1.993 . S
Co273 O298 1.941 . S
C274 O275 1.258 . S
C274 O276 1.263 . S
O275 Co272 1.970 . S
O275 C274 1.258 . S
O276 Co273 1.966 . S
O276 C274 1.263 . S
C277 O278 1.235 . S
C277 O304 1.289 . S
O278 C277 1.235 . S
C279 C281 1.400 . S
C279 N282 1.351 . S
C279 C284 1.501 . S
C280 C281 1.387 . S
C280 N283 1.341 . S
C281 C279 1.400 . S
C281 C280 1.387 . S
N282 Co273 2.022 . S
N282 C279 1.351 . S
N282 N283 1.365 . S
N283 C280 1.341 . S
N283 N282 1.365 . S
N283 H303 0.862 . S
C284 C279 1.501 . S
C284 H285 0.961 . S
C284 H286 0.961 . S
C284 H287 0.960 . S
H285 C284 0.961 . S
H286 C284 0.961 . S
H287 C284 0.960 . S
C288 N289 1.342 . S
C288 C292 1.401 . S
C288 C293 1.499 . S
N289 Co272 1.989 . S
N289 C288 1.342 . S
N289 N290 1.388 . S
N290 Co273 1.993 . S
N290 N289 1.388 . S
N290 C291 1.346 . S
C291 N290 1.346 . S
C291 C292 1.396 . S
C291 C301 1.510 . S
C292 C288 1.401 . S
C292 C291 1.396 . S
C293 C288 1.499 . S
C293 H294 0.959 . S
C293 H295 0.960 . S
C293 H296 0.961 . S
H294 C293 0.959 . S
H295 C293 0.960 . S
H296 C293 0.961 . S
O297 Co272 1.967 . S
O297 C305 1.258 . S
O298 Co273 1.941 . S
O298 C305 1.266 . S
H299 C301 0.959 . S
H300 C301 0.961 . S
C301 C291 1.510 . S
C301 H299 0.959 . S
C301 H300 0.961 . S
C301 H302 0.960 . S
H302 C301 0.960 . S
H303 N283 0.862 . S
O304 Co272 1.920 . S
O304 C277 1.289 . S
C305 O297 1.258 . S
C305 O298 1.266 . S
Co306 O309 1.970 . S
Co306 N323 1.989 . S
Co306 O331 1.967 . S
Co306 O338 1.920 . S
Co307 O310 1.966 . S
Co307 N316 2.013 1_554 S
Co307 N324 1.993 . S
Co307 O332 1.941 . S
C308 O309 1.258 . S
C308 O310 1.263 . S
O309 Co306 1.970 . S
O309 C308 1.258 . S
O310 Co307 1.966 . S
O310 C308 1.263 . S
C311 O312 1.235 . S
C311 O338 1.289 . S
O312 C311 1.235 . S
C313 C315 1.400 . S
C313 N316 1.357 . S
C313 C318 1.501 . S
C314 C315 1.387 . S
C314 N317 1.341 . S
C315 C313 1.400 . S
C315 C314 1.387 . S
N316 Co307 2.013 1_556 S
N316 C313 1.357 . S
N316 N317 1.371 . S
N317 C314 1.341 . S
N317 N316 1.371 . S
N317 H337 0.862 . S
C318 C313 1.501 . S
C318 H319 0.961 1_556 S
C318 H320 0.961 . S
C318 H321 0.960 . S
H319 C318 0.961 1_554 S
H320 C318 0.961 . S
H321 C318 0.960 . S
C322 N323 1.342 . S
C322 C326 1.401 . S
C322 C327 1.499 . S
N323 Co306 1.989 . S
N323 C322 1.342 . S
N323 N324 1.388 . S
N324 Co307 1.993 . S
N324 N323 1.388 . S
N324 C325 1.346 . S
C325 N324 1.346 . S
C325 C326 1.396 . S
C325 C335 1.510 . S
C326 C322 1.401 . S
C326 C325 1.396 . S
C327 C322 1.499 . S
C327 H328 0.959 . S
C327 H329 0.960 . S
C327 H330 0.961 . S
H328 C327 0.959 . S
H329 C327 0.960 . S
H330 C327 0.961 . S
O331 Co306 1.967 . S
O331 C339 1.258 . S
O332 Co307 1.941 . S
O332 C339 1.266 . S
H333 C335 0.959 1_556 S
H334 C335 0.961 1_556 S
C335 C325 1.510 . S
C335 H333 0.959 1_554 S
C335 H334 0.961 1_554 S
C335 H336 0.960 1_554 S
H336 C335 0.960 1_556 S
H337 N317 0.862 . S
O338 Co306 1.920 . S
O338 C311 1.289 . S
C339 O331 1.258 . S
C339 O332 1.266 . S
Co340 O343 1.970 . S
Co340 N357 1.989 . S
Co340 O365 1.967 . S
Co340 O372 1.920 . S
Co341 O344 1.966 . S
Co341 N350 2.013 1_554 S
Co341 N358 1.993 . S
Co341 O366 1.941 . S
C342 O343 1.258 . S
C342 O344 1.263 . S
O343 Co340 1.970 . S
O343 C342 1.258 . S
O344 Co341 1.966 . S
O344 C342 1.263 . S
C345 O346 1.235 . S
C345 O372 1.289 . S
O346 C345 1.235 . S
C347 C349 1.400 . S
C347 N350 1.357 . S
C347 C352 1.501 . S
C348 C349 1.387 . S
C348 N351 1.341 . S
C349 C347 1.400 . S
C349 C348 1.387 . S
N350 Co341 2.013 1_556 S
N350 C347 1.357 . S
N350 N351 1.371 . S
N351 C348 1.341 . S
N351 N350 1.371 . S
N351 H371 0.862 . S
C352 C347 1.501 . S
C352 H353 0.961 1_556 S
C352 H354 0.961 . S
C352 H355 0.960 . S
H353 C352 0.961 1_554 S
H354 C352 0.961 . S
H355 C352 0.960 . S
C356 N357 1.342 . S
C356 C360 1.401 . S
C356 C361 1.499 . S
N357 Co340 1.989 . S
N357 C356 1.342 . S
N357 N358 1.388 . S
N358 Co341 1.993 . S
N358 N357 1.388 . S
N358 C359 1.346 . S
C359 N358 1.346 . S
C359 C360 1.396 . S
C359 C369 1.510 . S
C360 C356 1.401 . S
C360 C359 1.396 . S
C361 C356 1.499 . S
C361 H362 0.959 . S
C361 H363 0.960 . S
C361 H364 0.961 . S
H362 C361 0.959 . S
H363 C361 0.960 . S
H364 C361 0.961 . S
O365 Co340 1.967 . S
O365 C373 1.258 . S
O366 Co341 1.941 . S
O366 C373 1.266 . S
H367 C369 0.959 1_556 S
H368 C369 0.961 1_556 S
C369 C359 1.510 . S
C369 H367 0.959 1_554 S
C369 H368 0.961 1_554 S
C369 H370 0.960 1_554 S
H370 C369 0.960 1_556 S
H371 N351 0.862 . S
O372 Co340 1.920 . S
O372 C345 1.289 . S
C373 O365 1.258 . S
C373 O366 1.266 . S
Co374 O377 1.970 . S
Co374 N391 1.989 . S
Co374 O399 1.967 . S
Co374 O406 1.920 . S
Co375 O378 1.966 . S
Co375 N384 2.013 1_554 S
Co375 N392 1.993 . S
Co375 O400 1.941 . S
C376 O377 1.258 . S
C376 O378 1.263 . S
O377 Co374 1.970 . S
O377 C376 1.258 . S
O378 Co375 1.966 . S
O378 C376 1.263 . S
C379 O380 1.235 . S
C379 O406 1.289 . S
O380 C379 1.235 . S
C381 C383 1.400 . S
C381 N384 1.357 . S
C381 C386 1.501 . S
C382 C383 1.387 . S
C382 N385 1.341 . S
C383 C381 1.400 . S
C383 C382 1.387 . S
N384 Co375 2.013 1_556 S
N384 C381 1.357 . S
N384 N385 1.371 . S
N385 C382 1.341 . S
N385 N384 1.371 . S
N385 H405 0.862 . S
C386 C381 1.501 . S
C386 H387 0.961 1_556 S
C386 H388 0.961 . S
C386 H389 0.960 . S
H387 C386 0.961 1_554 S
H388 C386 0.961 . S
H389 C386 0.960 . S
C390 N391 1.342 . S
C390 C394 1.401 . S
C390 C395 1.499 . S
N391 Co374 1.989 . S
N391 C390 1.342 . S
N391 N392 1.388 . S
N392 Co375 1.993 . S
N392 N391 1.388 . S
N392 C393 1.346 . S
C393 N392 1.346 . S
C393 C394 1.396 . S
C393 C403 1.510 . S
C394 C390 1.401 . S
C394 C393 1.396 . S
C395 C390 1.499 . S
C395 H396 0.959 . S
C395 H397 0.960 . S
C395 H398 0.961 . S
H396 C395 0.959 . S
H397 C395 0.960 . S
H398 C395 0.961 . S
O399 Co374 1.967 . S
O399 C407 1.258 . S
O400 Co375 1.941 . S
O400 C407 1.266 . S
H401 C403 0.959 1_556 S
H402 C403 0.961 1_556 S
C403 C393 1.510 . S
C403 H401 0.959 1_554 S
C403 H402 0.961 1_554 S
C403 H404 0.960 1_554 S
H404 C403 0.960 1_556 S
H405 N385 0.862 . S
O406 Co374 1.920 . S
O406 C379 1.289 . S
C407 O399 1.258 . S
C407 O400 1.266 . S
Co408 O411 1.970 . S
Co408 N425 1.989 . S
Co408 O433 1.967 . S
Co408 O440 1.920 . S
Co409 O412 1.966 . S
Co409 N418 2.013 1_556 S
Co409 N426 1.993 . S
Co409 O434 1.941 . S
C410 O411 1.258 . S
C410 O412 1.263 . S
O411 Co408 1.970 . S
O411 C410 1.258 . S
O412 Co409 1.966 . S
O412 C410 1.263 . S
C413 O414 1.235 . S
C413 O440 1.289 . S
O414 C413 1.235 . S
C415 C417 1.400 . S
C415 N418 1.357 . S
C415 C420 1.501 . S
C416 C417 1.387 . S
C416 N419 1.341 . S
C417 C415 1.400 . S
C417 C416 1.387 . S
N418 Co409 2.013 1_554 S
N418 C415 1.357 . S
N418 N419 1.371 . S
N419 C416 1.341 . S
N419 N418 1.371 . S
N419 H439 0.862 . S
C420 C415 1.501 . S
C420 H421 0.961 1_554 S
C420 H422 0.961 . S
C420 H423 0.960 . S
H421 C420 0.961 1_556 S
H422 C420 0.961 . S
H423 C420 0.960 . S
C424 N425 1.342 . S
C424 C428 1.401 . S
C424 C429 1.499 . S
N425 Co408 1.989 . S
N425 C424 1.342 . S
N425 N426 1.388 . S
N426 Co409 1.993 . S
N426 N425 1.388 . S
N426 C427 1.346 . S
C427 N426 1.346 . S
C427 C428 1.396 . S
C427 C437 1.510 . S
C428 C424 1.401 . S
C428 C427 1.396 . S
C429 C424 1.499 . S
C429 H430 0.959 . S
C429 H431 0.960 . S
C429 H432 0.961 . S
H430 C429 0.959 . S
H431 C429 0.960 . S
H432 C429 0.961 . S
O433 Co408 1.967 . S
O433 C441 1.258 . S
O434 Co409 1.941 . S
O434 C441 1.266 . S
H435 C437 0.959 1_554 S
H436 C437 0.961 1_554 S
C437 C427 1.510 . S
C437 H435 0.959 1_556 S
C437 H436 0.961 1_556 S
C437 H438 0.960 1_556 S
H438 C437 0.960 1_554 S
H439 N419 0.862 . S
O440 Co408 1.920 . S
O440 C413 1.289 . S
C441 O433 1.258 . S
C441 O434 1.266 . S
Co442 O445 1.970 . S
Co442 N459 1.989 . S
Co442 O467 1.967 . S
Co442 O474 1.920 . S
Co443 O446 1.966 . S
Co443 N452 2.013 1_556 S
Co443 N460 1.993 . S
Co443 O468 1.941 . S
C444 O445 1.258 . S
C444 O446 1.263 . S
O445 Co442 1.970 . S
O445 C444 1.258 . S
O446 Co443 1.966 . S
O446 C444 1.263 . S
C447 O448 1.235 . S
C447 O474 1.289 . S
O448 C447 1.235 . S
C449 C451 1.400 . S
C449 N452 1.357 . S
C449 C454 1.501 . S
C450 C451 1.387 . S
C450 N453 1.341 . S
C451 C449 1.400 . S
C451 C450 1.387 . S
N452 Co443 2.013 1_554 S
N452 C449 1.357 . S
N452 N453 1.371 . S
N453 C450 1.341 . S
N453 N452 1.371 . S
N453 H473 0.862 . S
C454 C449 1.501 . S
C454 H455 0.961 1_554 S
C454 H456 0.961 . S
C454 H457 0.960 . S
H455 C454 0.961 1_556 S
H456 C454 0.961 . S
H457 C454 0.960 . S
C458 N459 1.342 . S
C458 C462 1.401 . S
C458 C463 1.499 . S
N459 Co442 1.989 . S
N459 C458 1.342 . S
N459 N460 1.388 . S
N460 Co443 1.993 . S
N460 N459 1.388 . S
N460 C461 1.346 . S
C461 N460 1.346 . S
C461 C462 1.396 . S
C461 C471 1.510 . S
C462 C458 1.401 . S
C462 C461 1.396 . S
C463 C458 1.499 . S
C463 H464 0.959 . S
C463 H465 0.960 . S
C463 H466 0.961 . S
H464 C463 0.959 . S
H465 C463 0.960 . S
H466 C463 0.961 . S
O467 Co442 1.967 . S
O467 C475 1.258 . S
O468 Co443 1.941 . S
O468 C475 1.266 . S
H469 C471 0.959 1_554 S
H470 C471 0.961 1_554 S
C471 C461 1.510 . S
C471 H469 0.959 1_556 S
C471 H470 0.961 1_556 S
C471 H472 0.960 1_556 S
H472 C471 0.960 1_554 S
H473 N453 0.862 . S
O474 Co442 1.920 . S
O474 C447 1.289 . S
C475 O467 1.258 . S
C475 O468 1.266 . S
Co476 O479 1.970 . S
Co476 N493 1.989 . S
Co476 O501 1.967 . S
Co476 O508 1.920 . S
Co477 O480 1.966 . S
Co477 N486 2.013 1_556 S
Co477 N494 1.993 . S
Co477 O502 1.941 . S
C478 O479 1.258 . S
C478 O480 1.263 . S
O479 Co476 1.970 . S
O479 C478 1.258 . S
O480 Co477 1.966 . S
O480 C478 1.263 . S
C481 O482 1.235 . S
C481 O508 1.289 . S
O482 C481 1.235 . S
C483 C485 1.400 . S
C483 N486 1.357 . S
C483 C488 1.501 . S
C484 C485 1.387 . S
C484 N487 1.341 . S
C485 C483 1.400 . S
C485 C484 1.387 . S
N486 Co477 2.013 1_554 S
N486 C483 1.357 . S
N486 N487 1.371 . S
N487 C484 1.341 . S
N487 N486 1.371 . S
N487 H507 0.862 . S
C488 C483 1.501 . S
C488 H489 0.961 1_554 S
C488 H490 0.961 . S
C488 H491 0.960 . S
H489 C488 0.961 1_556 S
H490 C488 0.961 . S
H491 C488 0.960 . S
C492 N493 1.342 . S
C492 C496 1.401 . S
C492 C497 1.499 . S
N493 Co476 1.989 . S
N493 C492 1.342 . S
N493 N494 1.388 . S
N494 Co477 1.993 . S
N494 N493 1.388 . S
N494 C495 1.346 . S
C495 N494 1.346 . S
C495 C496 1.396 . S
C495 C505 1.510 . S
C496 C492 1.401 . S
C496 C495 1.396 . S
C497 C492 1.499 . S
C497 H498 0.959 . S
C497 H499 0.960 . S
C497 H500 0.961 . S
H498 C497 0.959 . S
H499 C497 0.960 . S
H500 C497 0.961 . S
O501 Co476 1.967 . S
O501 C509 1.258 . S
O502 Co477 1.941 . S
O502 C509 1.266 . S
H503 C505 0.959 1_554 S
H504 C505 0.961 1_554 S
C505 C495 1.510 . S
C505 H503 0.959 1_556 S
C505 H504 0.961 1_556 S
C505 H506 0.960 1_556 S
H506 C505 0.960 1_554 S
H507 N487 0.862 . S
O508 Co476 1.920 . S
O508 C481 1.289 . S
C509 O501 1.258 . S
C509 O502 1.266 . S
Co510 O513 1.970 . S
Co510 N527 1.989 . S
Co510 O535 1.967 . S
Co510 O542 1.920 . S
Co511 O514 1.966 . S
Co511 N520 2.022 . S
Co511 N528 1.993 . S
Co511 O536 1.941 . S
C512 O513 1.258 . S
C512 O514 1.263 . S
O513 Co510 1.970 . S
O513 C512 1.258 . S
O514 Co511 1.966 . S
O514 C512 1.263 . S
C515 O516 1.235 . S
C515 O542 1.289 . S
O516 C515 1.235 . S
C517 C519 1.400 . S
C517 N520 1.351 . S
C517 C522 1.501 . S
C518 C519 1.387 . S
C518 N521 1.341 . S
C519 C517 1.400 . S
C519 C518 1.387 . S
N520 Co511 2.022 . S
N520 C517 1.351 . S
N520 N521 1.365 . S
N521 C518 1.341 . S
N521 N520 1.365 . S
N521 H541 0.862 . S
C522 C517 1.501 . S
C522 H523 0.961 . S
C522 H524 0.961 . S
C522 H525 0.960 . S
H523 C522 0.961 . S
H524 C522 0.961 . S
H525 C522 0.960 . S
C526 N527 1.342 . S
C526 C530 1.401 . S
C526 C531 1.499 . S
N527 Co510 1.989 . S
N527 C526 1.342 . S
N527 N528 1.388 . S
N528 Co511 1.993 . S
N528 N527 1.388 . S
N528 C529 1.346 . S
C529 N528 1.346 . S
C529 C530 1.396 . S
C529 C539 1.510 . S
C530 C526 1.401 . S
C530 C529 1.396 . S
C531 C526 1.499 . S
C531 H532 0.959 . S
C531 H533 0.960 . S
C531 H534 0.961 . S
H532 C531 0.959 . S
H533 C531 0.960 . S
H534 C531 0.961 . S
O535 Co510 1.967 . S
O535 C543 1.258 . S
O536 Co511 1.941 . S
O536 C543 1.266 . S
H537 C539 0.959 . S
H538 C539 0.961 . S
C539 C529 1.510 . S
C539 H537 0.959 . S
C539 H538 0.961 . S
C539 H540 0.960 . S
H540 C539 0.960 . S
H541 N521 0.862 . S
O542 Co510 1.920 . S
O542 C515 1.289 . S
C543 O535 1.258 . S
C543 O536 1.266 . S
Co544 O547 1.970 . S
Co544 N561 1.989 . S
Co544 O569 1.967 . S
Co544 O576 1.920 . S
Co545 O548 1.966 . S
Co545 N554 2.022 . S
Co545 N562 1.993 . S
Co545 O570 1.941 . S
C546 O547 1.258 . S
C546 O548 1.263 . S
O547 Co544 1.970 . S
O547 C546 1.258 . S
O548 Co545 1.966 . S
O548 C546 1.263 . S
C549 O550 1.235 . S
C549 O576 1.289 . S
O550 C549 1.235 . S
C551 C553 1.400 . S
C551 N554 1.351 . S
C551 C556 1.501 . S
C552 C553 1.387 . S
C552 N555 1.341 . S
C553 C551 1.400 . S
C553 C552 1.387 . S
N554 Co545 2.022 . S
N554 C551 1.351 . S
N554 N555 1.365 . S
N555 C552 1.341 . S
N555 N554 1.365 . S
N555 H575 0.862 . S
C556 C551 1.501 . S
C556 H557 0.961 . S
C556 H558 0.961 . S
C556 H559 0.960 . S
H557 C556 0.961 . S
H558 C556 0.961 . S
H559 C556 0.960 . S
C560 N561 1.342 . S
C560 C564 1.401 . S
C560 C565 1.499 . S
N561 Co544 1.989 . S
N561 C560 1.342 . S
N561 N562 1.388 . S
N562 Co545 1.993 . S
N562 N561 1.388 . S
N562 C563 1.346 . S
C563 N562 1.346 . S
C563 C564 1.396 . S
C563 C573 1.510 . S
C564 C560 1.401 . S
C564 C563 1.396 . S
C565 C560 1.499 . S
C565 H566 0.959 . S
C565 H567 0.960 . S
C565 H568 0.961 . S
H566 C565 0.959 . S
H567 C565 0.960 . S
H568 C565 0.961 . S
O569 Co544 1.967 . S
O569 C577 1.258 . S
O570 Co545 1.941 . S
O570 C577 1.266 . S
H571 C573 0.959 . S
H572 C573 0.961 . S
C573 C563 1.510 . S
C573 H571 0.959 . S
C573 H572 0.961 . S
C573 H574 0.960 . S
H574 C573 0.960 . S
H575 N555 0.862 . S
O576 Co544 1.920 . S
O576 C549 1.289 . S
C577 O569 1.258 . S
C577 O570 1.266 . S
Co578 O581 1.970 . S
Co578 N595 1.989 . S
Co578 O603 1.967 . S
Co578 O610 1.920 . S
Co579 O582 1.966 . S
Co579 N588 2.022 . S
Co579 N596 1.993 . S
Co579 O604 1.941 . S
C580 O581 1.258 . S
C580 O582 1.263 . S
O581 Co578 1.970 . S
O581 C580 1.258 . S
O582 Co579 1.966 . S
O582 C580 1.263 . S
C583 O584 1.235 . S
C583 O610 1.289 . S
O584 C583 1.235 . S
C585 C587 1.400 . S
C585 N588 1.351 . S
C585 C590 1.501 . S
C586 C587 1.387 . S
C586 N589 1.341 . S
C587 C585 1.400 . S
C587 C586 1.387 . S
N588 Co579 2.022 . S
N588 C585 1.351 . S
N588 N589 1.365 . S
N589 C586 1.341 . S
N589 N588 1.365 . S
N589 H609 0.862 . S
C590 C585 1.501 . S
C590 H591 0.961 . S
C590 H592 0.961 . S
C590 H593 0.960 . S
H591 C590 0.961 . S
H592 C590 0.961 . S
H593 C590 0.960 . S
C594 N595 1.342 . S
C594 C598 1.401 . S
C594 C599 1.499 . S
N595 Co578 1.989 . S
N595 C594 1.342 . S
N595 N596 1.388 . S
N596 Co579 1.993 . S
N596 N595 1.388 . S
N596 C597 1.346 . S
C597 N596 1.346 . S
C597 C598 1.396 . S
C597 C607 1.510 . S
C598 C594 1.401 . S
C598 C597 1.396 . S
C599 C594 1.499 . S
C599 H600 0.959 . S
C599 H601 0.960 . S
C599 H602 0.961 . S
H600 C599 0.959 . S
H601 C599 0.960 . S
H602 C599 0.961 . S
O603 Co578 1.967 . S
O603 C611 1.258 . S
O604 Co579 1.941 . S
O604 C611 1.266 . S
H605 C607 0.959 . S
H606 C607 0.961 . S
C607 C597 1.510 . S
C607 H605 0.959 . S
C607 H606 0.961 . S
C607 H608 0.960 . S
H608 C607 0.960 . S
H609 N589 0.862 . S
O610 Co578 1.920 . S
O610 C583 1.289 . S
C611 O603 1.258 . S
C611 O604 1.266 . S
H612 C624 0.930 . S
H613 C626 0.930 . S
H614 C627 0.930 . S
H615 C631 0.959 . S
H616 C631 0.959 . S
H617 C631 0.961 . S
H618 C632 0.960 . S
H619 C632 0.961 . S
H620 C632 0.959 . S
H621 C635 0.929 . S
H622 C636 0.931 . S
H623 C638 0.930 . S
C624 H612 0.930 . S
C624 C625 1.399 . S
C624 C629 1.399 . S
C625 C624 1.399 . S
C625 C626 1.376 . S
C626 H613 0.930 . S
C626 C625 1.376 . S
C626 C627 1.388 . S
C627 H614 0.930 . S
C627 C626 1.388 . S
C627 C628 1.390 . S
C628 C627 1.390 . S
C628 C629 1.394 . S
C628 C634 1.465 . S
C629 C624 1.399 . S
C629 C628 1.394 . S
C629 C630 1.516 . S
C630 C629 1.516 . S
C630 C631 1.502 . S
C630 C632 1.561 . S
C630 C633 1.526 . S
C631 H615 0.959 . S
C631 H616 0.959 . S
C631 H617 0.961 . S
C631 C630 1.502 . S
C632 H618 0.960 . S
C632 H619 0.961 . S
C632 H620 0.959 . S
C632 C630 1.561 . S
C633 C630 1.526 . S
C633 C634 1.396 . S
C633 C638 1.390 . S
C634 C628 1.465 . S
C634 C633 1.396 . S
C634 C635 1.399 . S
C635 H621 0.929 . S
C635 C634 1.399 . S
C635 C636 1.385 . S
C636 H622 0.931 . S
C636 C635 1.385 . S
C636 C637 1.389 . S
C637 C636 1.389 . S
C637 C638 1.387 . S
C638 H623 0.930 . S
C638 C633 1.390 . S
C638 C637 1.387 . S
H639 C651 0.930 . S
H640 C653 0.930 . S
H641 C654 0.930 . S
H642 C658 0.959 . S
H643 C658 0.959 . S
H644 C658 0.961 . S
H645 C659 0.960 . S
H646 C659 0.961 . S
H647 C659 0.959 . S
H648 C662 0.929 . S
H649 C663 0.931 . S
H650 C665 0.930 . S
C651 H639 0.930 . S
C651 C652 1.399 . S
C651 C656 1.399 . S
C652 C651 1.399 . S
C652 C653 1.376 . S
C653 H640 0.930 . S
C653 C652 1.376 . S
C653 C654 1.388 . S
C654 H641 0.930 . S
C654 C653 1.388 . S
C654 C655 1.390 . S
C655 C654 1.390 . S
C655 C656 1.394 . S
C655 C661 1.465 . S
C656 C651 1.399 . S
C656 C655 1.394 . S
C656 C657 1.516 . S
C657 C656 1.516 . S
C657 C658 1.502 . S
C657 C659 1.561 . S
C657 C660 1.526 . S
C658 H642 0.959 . S
C658 H643 0.959 . S
C658 H644 0.961 . S
C658 C657 1.502 . S
C659 H645 0.960 . S
C659 H646 0.961 . S
C659 H647 0.959 . S
C659 C657 1.561 . S
C660 C657 1.526 . S
C660 C661 1.396 . S
C660 C665 1.390 . S
C661 C655 1.465 . S
C661 C660 1.396 . S
C661 C662 1.399 . S
C662 H648 0.929 . S
C662 C661 1.399 . S
C662 C663 1.385 . S
C663 H649 0.931 . S
C663 C662 1.385 . S
C663 C664 1.389 . S
C664 C663 1.389 . S
C664 C665 1.387 . S
C665 H650 0.930 . S
C665 C660 1.390 . S
C665 C664 1.387 . S
H666 C678 0.930 . S
H667 C680 0.930 . S
H668 C681 0.930 . S
H669 C685 0.959 . S
H670 C685 0.959 . S
H671 C685 0.961 . S
H672 C686 0.960 . S
H673 C686 0.961 . S
H674 C686 0.959 . S
H675 C689 0.929 . S
H676 C690 0.931 . S
H677 C692 0.930 . S
C678 H666 0.930 . S
C678 C679 1.399 . S
C678 C683 1.399 . S
C679 C678 1.399 . S
C679 C680 1.376 . S
C680 H667 0.930 . S
C680 C679 1.376 . S
C680 C681 1.388 . S
C681 H668 0.930 . S
C681 C680 1.388 . S
C681 C682 1.390 . S
C682 C681 1.390 . S
C682 C683 1.394 . S
C682 C688 1.465 . S
C683 C678 1.399 . S
C683 C682 1.394 . S
C683 C684 1.516 . S
C684 C683 1.516 . S
C684 C685 1.502 . S
C684 C686 1.561 . S
C684 C687 1.526 . S
C685 H669 0.959 . S
C685 H670 0.959 . S
C685 H671 0.961 . S
C685 C684 1.502 . S
C686 H672 0.960 . S
C686 H673 0.961 . S
C686 H674 0.959 . S
C686 C684 1.561 . S
C687 C684 1.526 . S
C687 C688 1.396 . S
C687 C692 1.390 . S
C688 C682 1.465 . S
C688 C687 1.396 . S
C688 C689 1.399 . S
C689 H675 0.929 . S
C689 C688 1.399 . S
C689 C690 1.385 . S
C690 H676 0.931 . S
C690 C689 1.385 . S
C690 C691 1.389 . S
C691 C690 1.389 . S
C691 C692 1.387 . S
C692 H677 0.930 . S
C692 C687 1.390 . S
C692 C691 1.387 . S
H693 C705 0.930 . S
H694 C707 0.930 . S
H695 C708 0.930 . S
H696 C712 0.959 . S
H697 C712 0.959 . S
H698 C712 0.961 . S
H699 C713 0.960 . S
H700 C713 0.961 . S
H701 C713 0.959 . S
H702 C716 0.929 . S
H703 C717 0.931 . S
H704 C719 0.930 . S
C705 H693 0.930 . S
C705 C706 1.399 . S
C705 C710 1.399 . S
C706 C705 1.399 . S
C706 C707 1.376 . S
C707 H694 0.930 . S
C707 C706 1.376 . S
C707 C708 1.388 . S
C708 H695 0.930 . S
C708 C707 1.388 . S
C708 C709 1.390 . S
C709 C708 1.390 . S
C709 C710 1.394 . S
C709 C715 1.465 . S
C710 C705 1.399 . S
C710 C709 1.394 . S
C710 C711 1.516 . S
C711 C710 1.516 . S
C711 C712 1.502 . S
C711 C713 1.561 . S
C711 C714 1.526 . S
C712 H696 0.959 . S
C712 H697 0.959 . S
C712 H698 0.961 . S
C712 C711 1.502 . S
C713 H699 0.960 . S
C713 H700 0.961 . S
C713 H701 0.959 . S
C713 C711 1.561 . S
C714 C711 1.526 . S
C714 C715 1.396 . S
C714 C719 1.390 . S
C715 C709 1.465 . S
C715 C714 1.396 . S
C715 C716 1.399 . S
C716 H702 0.929 . S
C716 C715 1.399 . S
C716 C717 1.385 . S
C717 H703 0.931 . S
C717 C716 1.385 . S
C717 C718 1.389 . S
C718 C717 1.389 . S
C718 C719 1.387 . S
C719 H704 0.930 . S
C719 C714 1.390 . S
C719 C718 1.387 . S
H720 C732 0.930 . S
H721 C734 0.930 . S
H722 C735 0.930 . S
H723 C739 0.959 . S
H724 C739 0.959 . S
H725 C739 0.961 . S
H726 C740 0.960 . S
H727 C740 0.961 . S
H728 C740 0.959 . S
H729 C743 0.929 . S
H730 C744 0.931 . S
H731 C746 0.930 . S
C732 H720 0.930 . S
C732 C733 1.399 . S
C732 C737 1.399 . S
C733 C732 1.399 . S
C733 C734 1.376 . S
C734 H721 0.930 . S
C734 C733 1.376 . S
C734 C735 1.388 . S
C735 H722 0.930 . S
C735 C734 1.388 . S
C735 C736 1.390 . S
C736 C735 1.390 . S
C736 C737 1.394 . S
C736 C742 1.465 . S
C737 C732 1.399 . S
C737 C736 1.394 . S
C737 C738 1.516 . S
C738 C737 1.516 . S
C738 C739 1.502 . S
C738 C740 1.561 . S
C738 C741 1.526 . S
C739 H723 0.959 . S
C739 H724 0.959 . S
C739 H725 0.961 . S
C739 C738 1.502 . S
C740 H726 0.960 . S
C740 H727 0.961 . S
C740 H728 0.959 . S
C740 C738 1.561 . S
C741 C738 1.526 . S
C741 C742 1.396 . S
C741 C746 1.390 . S
C742 C736 1.465 . S
C742 C741 1.396 . S
C742 C743 1.399 . S
C743 H729 0.929 . S
C743 C742 1.399 . S
C743 C744 1.385 . S
C744 H730 0.931 . S
C744 C743 1.385 . S
C744 C745 1.389 . S
C745 C744 1.389 . S
C745 C746 1.387 . S
C746 H731 0.930 . S
C746 C741 1.390 . S
C746 C745 1.387 . S
H747 C759 0.930 . S
H748 C761 0.930 . S
H749 C762 0.930 . S
H750 C766 0.959 . S
H751 C766 0.959 . S
H752 C766 0.961 . S
H753 C767 0.960 . S
H754 C767 0.961 . S
H755 C767 0.959 . S
H756 C770 0.929 . S
H757 C771 0.931 . S
H758 C773 0.930 . S
C759 H747 0.930 . S
C759 C760 1.399 . S
C759 C764 1.399 . S
C760 C759 1.399 . S
C760 C761 1.376 . S
C761 H748 0.930 . S
C761 C760 1.376 . S
C761 C762 1.388 . S
C762 H749 0.930 . S
C762 C761 1.388 . S
C762 C763 1.390 . S
C763 C762 1.390 . S
C763 C764 1.394 . S
C763 C769 1.465 . S
C764 C759 1.399 . S
C764 C763 1.394 . S
C764 C765 1.516 . S
C765 C764 1.516 . S
C765 C766 1.502 . S
C765 C767 1.561 . S
C765 C768 1.526 . S
C766 H750 0.959 . S
C766 H751 0.959 . S
C766 H752 0.961 . S
C766 C765 1.502 . S
C767 H753 0.960 . S
C767 H754 0.961 . S
C767 H755 0.959 . S
C767 C765 1.561 . S
C768 C765 1.526 . S
C768 C769 1.396 . S
C768 C773 1.390 . S
C769 C763 1.465 . S
C769 C768 1.396 . S
C769 C770 1.399 . S
C770 H756 0.929 . S
C770 C769 1.399 . S
C770 C771 1.385 . S
C771 H757 0.931 . S
C771 C770 1.385 . S
C771 C772 1.389 . S
C772 C771 1.389 . S
C772 C773 1.387 . S
C773 H758 0.930 . S
C773 C768 1.390 . S
C773 C772 1.387 . S
H774 C786 0.930 . S
H775 C788 0.930 . S
H776 C789 0.930 . S
H777 C793 0.959 . S
H778 C793 0.959 . S
H779 C793 0.961 . S
H780 C794 0.960 . S
H781 C794 0.961 . S
H782 C794 0.959 . S
H783 C797 0.929 . S
H784 C798 0.931 . S
H785 C800 0.930 . S
C786 H774 0.930 . S
C786 C787 1.399 . S
C786 C791 1.399 . S
C787 C786 1.399 . S
C787 C788 1.376 . S
C788 H775 0.930 . S
C788 C787 1.376 . S
C788 C789 1.388 . S
C789 H776 0.930 . S
C789 C788 1.388 . S
C789 C790 1.390 . S
C790 C789 1.390 . S
C790 C791 1.394 . S
C790 C796 1.465 1_554 S
C791 C786 1.399 . S
C791 C790 1.394 . S
C791 C792 1.516 . S
C792 C791 1.516 . S
C792 C793 1.502 . S
C792 C794 1.561 . S
C792 C795 1.526 1_554 S
C793 H777 0.959 . S
C793 H778 0.959 . S
C793 H779 0.961 . S
C793 C792 1.502 . S
C794 H780 0.960 . S
C794 H781 0.961 . S
C794 H782 0.959 . S
C794 C792 1.561 . S
C795 C792 1.526 1_556 S
C795 C796 1.396 . S
C795 C800 1.390 . S
C796 C790 1.465 1_556 S
C796 C795 1.396 . S
C796 C797 1.399 . S
C797 H783 0.929 . S
C797 C796 1.399 . S
C797 C798 1.385 . S
C798 H784 0.931 . S
C798 C797 1.385 . S
C798 C799 1.389 . S
C799 C798 1.389 . S
C799 C800 1.387 . S
C800 H785 0.930 . S
C800 C795 1.390 . S
C800 C799 1.387 . S
H801 C813 0.930 . S
H802 C815 0.930 . S
H803 C816 0.930 . S
H804 C820 0.959 . S
H805 C820 0.959 1_556 S
H806 C820 0.961 . S
H807 C821 0.960 1_554 S
H808 C821 0.961 . S
H809 C821 0.959 . S
H810 C824 0.929 . S
H811 C825 0.931 . S
H812 C827 0.930 . S
C813 H801 0.930 . S
C813 C814 1.399 . S
C813 C818 1.399 . S
C814 C813 1.399 . S
C814 C815 1.376 . S
C815 H802 0.930 . S
C815 C814 1.376 . S
C815 C816 1.388 . S
C816 H803 0.930 . S
C816 C815 1.388 . S
C816 C817 1.390 . S
C817 C816 1.390 . S
C817 C818 1.394 . S
C817 C823 1.465 1_554 S
C818 C813 1.399 . S
C818 C817 1.394 . S
C818 C819 1.516 . S
C819 C818 1.516 . S
C819 C820 1.502 . S
C819 C821 1.561 1_554 S
C819 C822 1.526 1_554 S
C820 H804 0.959 . S
C820 H805 0.959 1_554 S
C820 H806 0.961 . S
C820 C819 1.502 . S
C821 H807 0.960 1_556 S
C821 H808 0.961 . S
C821 H809 0.959 . S
C821 C819 1.561 1_556 S
C822 C819 1.526 1_556 S
C822 C823 1.396 . S
C822 C827 1.390 . S
C823 C817 1.465 1_556 S
C823 C822 1.396 . S
C823 C824 1.399 . S
C824 H810 0.929 . S
C824 C823 1.399 . S
C824 C825 1.385 . S
C825 H811 0.931 . S
C825 C824 1.385 . S
C825 C826 1.389 . S
C826 C825 1.389 . S
C826 C827 1.387 . S
C827 H812 0.930 . S
C827 C822 1.390 . S
C827 C826 1.387 . S
H828 C840 0.930 . S
H829 C842 0.930 . S
H830 C843 0.930 . S
H831 C847 0.959 . S
H832 C847 0.959 . S
H833 C847 0.961 1_556 S
H834 C848 0.960 . S
H835 C848 0.961 1_554 S
H836 C848 0.959 . S
H837 C851 0.929 . S
H838 C852 0.931 . S
H839 C854 0.930 . S
C840 H828 0.930 . S
C840 C841 1.399 . S
C840 C845 1.399 . S
C841 C840 1.399 . S
C841 C842 1.376 . S
C842 H829 0.930 . S
C842 C841 1.376 . S
C842 C843 1.388 . S
C843 H830 0.930 . S
C843 C842 1.388 . S
C843 C844 1.390 . S
C844 C843 1.390 . S
C844 C845 1.394 . S
C844 C850 1.465 1_556 S
C845 C840 1.399 . S
C845 C844 1.394 . S
C845 C846 1.516 1_556 S
C846 C845 1.516 1_554 S
C846 C847 1.502 . S
C846 C848 1.561 1_554 S
C846 C849 1.526 . S
C847 H831 0.959 . S
C847 H832 0.959 . S
C847 H833 0.961 1_554 S
C847 C846 1.502 . S
C848 H834 0.960 . S
C848 H835 0.961 1_556 S
C848 H836 0.959 . S
C848 C846 1.561 1_556 S
C849 C846 1.526 . S
C849 C850 1.396 . S
C849 C854 1.390 . S
C850 C844 1.465 1_554 S
C850 C849 1.396 . S
C850 C851 1.399 . S
C851 H837 0.929 . S
C851 C850 1.399 . S
C851 C852 1.385 . S
C852 H838 0.931 . S
C852 C851 1.385 . S
C852 C853 1.389 . S
C853 C852 1.389 . S
C853 C854 1.387 . S
C854 H839 0.930 . S
C854 C849 1.390 . S
C854 C853 1.387 . S
H855 C867 0.930 . S
H856 C869 0.930 . S
H857 C870 0.930 . S
H858 C874 0.959 . S
H859 C874 0.959 . S
H860 C874 0.961 . S
H861 C875 0.960 . S
H862 C875 0.961 . S
H863 C875 0.959 . S
H864 C878 0.929 . S
H865 C879 0.931 . S
H866 C881 0.930 . S
C867 H855 0.930 . S
C867 C868 1.399 . S
C867 C872 1.399 . S
C868 C867 1.399 . S
C868 C869 1.376 . S
C869 H856 0.930 . S
C869 C868 1.376 . S
C869 C870 1.388 . S
C870 H857 0.930 . S
C870 C869 1.388 . S
C870 C871 1.390 . S
C871 C870 1.390 . S
C871 C872 1.394 . S
C871 C877 1.465 . S
C872 C867 1.399 . S
C872 C871 1.394 . S
C872 C873 1.516 . S
C873 C872 1.516 . S
C873 C874 1.502 . S
C873 C875 1.561 . S
C873 C876 1.526 . S
C874 H858 0.959 . S
C874 H859 0.959 . S
C874 H860 0.961 . S
C874 C873 1.502 . S
C875 H861 0.960 . S
C875 H862 0.961 . S
C875 H863 0.959 . S
C875 C873 1.561 . S
C876 C873 1.526 . S
C876 C877 1.396 . S
C876 C881 1.390 . S
C877 C871 1.465 . S
C877 C876 1.396 . S
C877 C878 1.399 . S
C878 H864 0.929 . S
C878 C877 1.399 . S
C878 C879 1.385 . S
C879 H865 0.931 . S
C879 C878 1.385 . S
C879 C880 1.389 . S
C880 C879 1.389 . S
C880 C881 1.387 . S
C881 H866 0.930 . S
C881 C876 1.390 . S
C881 C880 1.387 . S
H882 C894 0.930 . S
H883 C896 0.930 . S
H884 C897 0.930 . S
H885 C901 0.959 . S
H886 C901 0.959 . S
H887 C901 0.961 . S
H888 C902 0.960 . S
H889 C902 0.961 . S
H890 C902 0.959 . S
H891 C905 0.929 . S
H892 C906 0.931 . S
H893 C908 0.930 . S
C894 H882 0.930 . S
C894 C895 1.399 . S
C894 C899 1.399 . S
C895 C894 1.399 . S
C895 C896 1.376 . S
C896 H883 0.930 . S
C896 C895 1.376 . S
C896 C897 1.388 . S
C897 H884 0.930 . S
C897 C896 1.388 . S
C897 C898 1.390 . S
C898 C897 1.390 . S
C898 C899 1.394 . S
C898 C904 1.465 . S
C899 C894 1.399 . S
C899 C898 1.394 . S
C899 C900 1.516 . S
C900 C899 1.516 . S
C900 C901 1.502 . S
C900 C902 1.561 . S
C900 C903 1.526 . S
C901 H885 0.959 . S
C901 H886 0.959 . S
C901 H887 0.961 . S
C901 C900 1.502 . S
C902 H888 0.960 . S
C902 H889 0.961 . S
C902 H890 0.959 . S
C902 C900 1.561 . S
C903 C900 1.526 . S
C903 C904 1.396 . S
C903 C908 1.390 . S
C904 C898 1.465 . S
C904 C903 1.396 . S
C904 C905 1.399 . S
C905 H891 0.929 . S
C905 C904 1.399 . S
C905 C906 1.385 . S
C906 H892 0.931 . S
C906 C905 1.385 . S
C906 C907 1.389 . S
C907 C906 1.389 . S
C907 C908 1.387 . S
C908 H893 0.930 . S
C908 C903 1.390 . S
C908 C907 1.387 . S
H909 C921 0.930 . S
H910 C923 0.930 . S
H911 C924 0.930 . S
H912 C928 0.959 . S
H913 C928 0.959 . S
H914 C928 0.961 . S
H915 C929 0.960 . S
H916 C929 0.961 . S
H917 C929 0.959 . S
H918 C932 0.929 . S
H919 C933 0.931 . S
H920 C935 0.930 . S
C921 H909 0.930 . S
C921 C922 1.399 . S
C921 C926 1.399 . S
C922 C921 1.399 . S
C922 C923 1.376 . S
C923 H910 0.930 . S
C923 C922 1.376 . S
C923 C924 1.388 . S
C924 H911 0.930 . S
C924 C923 1.388 . S
C924 C925 1.390 . S
C925 C924 1.390 . S
C925 C926 1.394 . S
C925 C931 1.465 . S
C926 C921 1.399 . S
C926 C925 1.394 . S
C926 C927 1.516 . S
C927 C926 1.516 . S
C927 C928 1.502 . S
C927 C929 1.561 . S
C927 C930 1.526 . S
C928 H912 0.959 . S
C928 H913 0.959 . S
C928 H914 0.961 . S
C928 C927 1.502 . S
C929 H915 0.960 . S
C929 H916 0.961 . S
C929 H917 0.959 . S
C929 C927 1.561 . S
C930 C927 1.526 . S
C930 C931 1.396 . S
C930 C935 1.390 . S
C931 C925 1.465 . S
C931 C930 1.396 . S
C931 C932 1.399 . S
C932 H918 0.929 . S
C932 C931 1.399 . S
C932 C933 1.385 . S
C933 H919 0.931 . S
C933 C932 1.385 . S
C933 C934 1.389 . S
C934 C933 1.389 . S
C934 C935 1.387 . S
C935 H920 0.930 . S
C935 C930 1.390 . S
C935 C934 1.387 . S
H936 C948 0.930 . S
H937 C950 0.930 . S
H938 C951 0.930 . S
H939 C955 0.959 . S
H940 C955 0.959 . S
H941 C955 0.961 . S
H942 C956 0.960 . S
H943 C956 0.961 . S
H944 C956 0.959 . S
H945 C959 0.929 . S
H946 C960 0.931 . S
H947 C962 0.930 . S
C948 H936 0.930 . S
C948 C949 1.399 . S
C948 C953 1.399 . S
C949 C948 1.399 . S
C949 C950 1.376 . S
C950 H937 0.930 . S
C950 C949 1.376 . S
C950 C951 1.388 . S
C951 H938 0.930 . S
C951 C950 1.388 . S
C951 C952 1.390 . S
C952 C951 1.390 . S
C952 C953 1.394 . S
C952 C958 1.465 . S
C953 C948 1.399 . S
C953 C952 1.394 . S
C953 C954 1.516 . S
C954 C953 1.516 . S
C954 C955 1.502 . S
C954 C956 1.561 . S
C954 C957 1.526 . S
C955 H939 0.959 . S
C955 H940 0.959 . S
C955 H941 0.961 . S
C955 C954 1.502 . S
C956 H942 0.960 . S
C956 H943 0.961 . S
C956 H944 0.959 . S
C956 C954 1.561 . S
C957 C954 1.526 . S
C957 C958 1.396 . S
C957 C962 1.390 . S
C958 C952 1.465 . S
C958 C957 1.396 . S
C958 C959 1.399 . S
C959 H945 0.929 . S
C959 C958 1.399 . S
C959 C960 1.385 . S
C960 H946 0.931 . S
C960 C959 1.385 . S
C960 C961 1.389 . S
C961 C960 1.389 . S
C961 C962 1.387 . S
C962 H947 0.930 . S
C962 C957 1.390 . S
C962 C961 1.387 . S
H963 C975 0.930 . S
H964 C977 0.930 . S
H965 C978 0.930 . S
H966 C982 0.959 . S
H967 C982 0.959 . S
H968 C982 0.961 . S
H969 C983 0.960 . S
H970 C983 0.961 . S
H971 C983 0.959 . S
H972 C986 0.929 . S
H973 C987 0.931 . S
H974 C989 0.930 . S
C975 H963 0.930 . S
C975 C976 1.399 . S
C975 C980 1.399 . S
C976 C975 1.399 . S
C976 C977 1.376 . S
C977 H964 0.930 . S
C977 C976 1.376 . S
C977 C978 1.388 . S
C978 H965 0.930 . S
C978 C977 1.388 . S
C978 C979 1.390 . S
C979 C978 1.390 . S
C979 C980 1.394 . S
C979 C985 1.465 . S
C980 C975 1.399 . S
C980 C979 1.394 . S
C980 C981 1.516 . S
C981 C980 1.516 . S
C981 C982 1.502 . S
C981 C983 1.561 . S
C981 C984 1.526 . S
C982 H966 0.959 . S
C982 H967 0.959 . S
C982 H968 0.961 . S
C982 C981 1.502 . S
C983 H969 0.960 . S
C983 H970 0.961 . S
C983 H971 0.959 . S
C983 C981 1.561 . S
C984 C981 1.526 . S
C984 C985 1.396 . S
C984 C989 1.390 . S
C985 C979 1.465 . S
C985 C984 1.396 . S
C985 C986 1.399 . S
C986 H972 0.929 . S
C986 C985 1.399 . S
C986 C987 1.385 . S
C987 H973 0.931 . S
C987 C986 1.385 . S
C987 C988 1.389 . S
C988 C987 1.389 . S
C988 C989 1.387 . S
C989 H974 0.930 . S
C989 C984 1.390 . S
C989 C988 1.387 . S
H990 C1002 0.930 . S
H991 C1004 0.930 . S
H992 C1005 0.930 . S
H993 C1009 0.959 . S
H994 C1009 0.959 . S
H995 C1009 0.961 . S
H996 C1010 0.960 . S
H997 C1010 0.961 . S
H998 C1010 0.959 . S
H999 C1013 0.929 . S
H1000 C1014 0.931 . S
H1001 C1016 0.930 . S
C1002 H990 0.930 . S
C1002 C1003 1.399 . S
C1002 C1007 1.399 . S
C1003 C1002 1.399 . S
C1003 C1004 1.376 . S
C1004 H991 0.930 . S
C1004 C1003 1.376 . S
C1004 C1005 1.388 . S
C1005 H992 0.930 . S
C1005 C1004 1.388 . S
C1005 C1006 1.390 . S
C1006 C1005 1.390 . S
C1006 C1007 1.394 . S
C1006 C1012 1.465 . S
C1007 C1002 1.399 . S
C1007 C1006 1.394 . S
C1007 C1008 1.516 . S
C1008 C1007 1.516 . S
C1008 C1009 1.502 . S
C1008 C1010 1.561 . S
C1008 C1011 1.526 . S
C1009 H993 0.959 . S
C1009 H994 0.959 . S
C1009 H995 0.961 . S
C1009 C1008 1.502 . S
C1010 H996 0.960 . S
C1010 H997 0.961 . S
C1010 H998 0.959 . S
C1010 C1008 1.561 . S
C1011 C1008 1.526 . S
C1011 C1012 1.396 . S
C1011 C1016 1.390 . S
C1012 C1006 1.465 . S
C1012 C1011 1.396 . S
C1012 C1013 1.399 . S
C1013 H999 0.929 . S
C1013 C1012 1.399 . S
C1013 C1014 1.385 . S
C1014 H1000 0.931 . S
C1014 C1013 1.385 . S
C1014 C1015 1.389 . S
C1015 C1014 1.389 . S
C1015 C1016 1.387 . S
C1016 H1001 0.930 . S
C1016 C1011 1.390 . S
C1016 C1015 1.387 . S
H1017 C1029 0.930 . S
H1018 C1031 0.930 . S
H1019 C1032 0.930 . S
H1020 C1036 0.959 . S
H1021 C1036 0.959 . S
H1022 C1036 0.961 1_554 S
H1023 C1037 0.960 . S
H1024 C1037 0.961 . S
H1025 C1037 0.959 . S
H1026 C1040 0.929 . S
H1027 C1041 0.931 . S
H1028 C1043 0.930 . S
C1029 H1017 0.930 . S
C1029 C1030 1.399 . S
C1029 C1034 1.399 . S
C1030 C1029 1.399 . S
C1030 C1031 1.376 . S
C1031 H1018 0.930 . S
C1031 C1030 1.376 . S
C1031 C1032 1.388 . S
C1032 H1019 0.930 . S
C1032 C1031 1.388 . S
C1032 C1033 1.390 . S
C1033 C1032 1.390 . S
C1033 C1034 1.394 . S
C1033 C1039 1.465 1_554 S
C1034 C1029 1.399 . S
C1034 C1033 1.394 . S
C1034 C1035 1.516 1_554 S
C1035 C1034 1.516 1_556 S
C1035 C1036 1.502 . S
C1035 C1037 1.561 . S
C1035 C1038 1.526 . S
C1036 H1020 0.959 . S
C1036 H1021 0.959 . S
C1036 H1022 0.961 1_556 S
C1036 C1035 1.502 . S
C1037 H1023 0.960 . S
C1037 H1024 0.961 . S
C1037 H1025 0.959 . S
C1037 C1035 1.561 . S
C1038 C1035 1.526 . S
C1038 C1039 1.396 . S
C1038 C1043 1.390 . S
C1039 C1033 1.465 1_556 S
C1039 C1038 1.396 . S
C1039 C1040 1.399 . S
C1040 H1026 0.929 . S
C1040 C1039 1.399 . S
C1040 C1041 1.385 . S
C1041 H1027 0.931 . S
C1041 C1040 1.385 . S
C1041 C1042 1.389 . S
C1042 C1041 1.389 . S
C1042 C1043 1.387 . S
C1043 H1028 0.930 . S
C1043 C1038 1.390 . S
C1043 C1042 1.387 . S
H1044 C1056 0.930 . S
H1045 C1058 0.930 . S
H1046 C1059 0.930 . S
H1047 C1063 0.959 . S
H1048 C1063 0.959 1_556 S
H1049 C1063 0.961 . S
H1050 C1064 0.960 1_554 S
H1051 C1064 0.961 . S
H1052 C1064 0.959 . S
H1053 C1067 0.929 . S
H1054 C1068 0.931 . S
H1055 C1070 0.930 . S
C1056 H1044 0.930 . S
C1056 C1057 1.399 . S
C1056 C1061 1.399 . S
C1057 C1056 1.399 . S
C1057 C1058 1.376 . S
C1058 H1045 0.930 . S
C1058 C1057 1.376 . S
C1058 C1059 1.388 . S
C1059 H1046 0.930 . S
C1059 C1058 1.388 . S
C1059 C1060 1.390 . S
C1060 C1059 1.390 . S
C1060 C1061 1.394 . S
C1060 C1066 1.465 1_554 S
C1061 C1056 1.399 . S
C1061 C1060 1.394 . S
C1061 C1062 1.516 1_554 S
C1062 C1061 1.516 1_556 S
C1062 C1063 1.502 1_556 S
C1062 C1064 1.561 . S
C1062 C1065 1.526 . S
C1063 H1047 0.959 . S
C1063 H1048 0.959 1_554 S
C1063 H1049 0.961 . S
C1063 C1062 1.502 1_554 S
C1064 H1050 0.960 1_556 S
C1064 H1051 0.961 . S
C1064 H1052 0.959 . S
C1064 C1062 1.561 . S
C1065 C1062 1.526 . S
C1065 C1066 1.396 . S
C1065 C1070 1.390 . S
C1066 C1060 1.465 1_556 S
C1066 C1065 1.396 . S
C1066 C1067 1.399 . S
C1067 H1053 0.929 . S
C1067 C1066 1.399 . S
C1067 C1068 1.385 . S
C1068 H1054 0.931 . S
C1068 C1067 1.385 . S
C1068 C1069 1.389 . S
C1069 C1068 1.389 . S
C1069 C1070 1.387 . S
C1070 H1055 0.930 . S
C1070 C1065 1.390 . S
C1070 C1069 1.387 . S
H1071 C1083 0.930 . S
H1072 C1085 0.930 . S
H1073 C1086 0.930 . S
H1074 C1090 0.959 . S
H1075 C1090 0.959 . S
H1076 C1090 0.961 1_556 S
H1077 C1091 0.960 1_556 S
H1078 C1091 0.961 . S
H1079 C1091 0.959 . S
H1080 C1094 0.929 . S
H1081 C1095 0.931 . S
H1082 C1097 0.930 . S
C1083 H1071 0.930 . S
C1083 C1084 1.399 . S
C1083 C1088 1.399 . S
C1084 C1083 1.399 . S
C1084 C1085 1.376 . S
C1085 H1072 0.930 . S
C1085 C1084 1.376 . S
C1085 C1086 1.388 . S
C1086 H1073 0.930 . S
C1086 C1085 1.388 . S
C1086 C1087 1.390 . S
C1087 C1086 1.390 . S
C1087 C1088 1.394 . S
C1087 C1093 1.465 1_556 S
C1088 C1083 1.399 . S
C1088 C1087 1.394 . S
C1088 C1089 1.516 1_556 S
C1089 C1088 1.516 1_554 S
C1089 C1090 1.502 . S
C1089 C1091 1.561 . S
C1089 C1092 1.526 . S
C1090 H1074 0.959 . S
C1090 H1075 0.959 . S
C1090 H1076 0.961 1_554 S
C1090 C1089 1.502 . S
C1091 H1077 0.960 1_554 S
C1091 H1078 0.961 . S
C1091 H1079 0.959 . S
C1091 C1089 1.561 . S
C1092 C1089 1.526 . S
C1092 C1093 1.396 . S
C1092 C1097 1.390 . S
C1093 C1087 1.465 1_554 S
C1093 C1092 1.396 . S
C1093 C1094 1.399 . S
C1094 H1080 0.929 . S
C1094 C1093 1.399 . S
C1094 C1095 1.385 . S
C1095 H1081 0.931 . S
C1095 C1094 1.385 . S
C1095 C1096 1.389 . S
C1096 C1095 1.389 . S
C1096 C1097 1.387 . S
C1097 H1082 0.930 . S
C1097 C1092 1.390 . S
C1097 C1096 1.387 . S
H1098 C1110 0.930 . S
H1099 C1112 0.930 . S
H1100 C1113 0.930 . S
H1101 C1117 0.959 . S
H1102 C1117 0.959 . S
H1103 C1117 0.961 . S
H1104 C1118 0.960 . S
H1105 C1118 0.961 . S
H1106 C1118 0.959 . S
H1107 C1121 0.929 . S
H1108 C1122 0.931 . S
H1109 C1124 0.930 . S
C1110 H1098 0.930 . S
C1110 C1111 1.399 . S
C1110 C1115 1.399 . S
C1111 C1110 1.399 . S
C1111 C1112 1.376 . S
C1112 H1099 0.930 . S
C1112 C1111 1.376 . S
C1112 C1113 1.388 . S
C1113 H1100 0.930 . S
C1113 C1112 1.388 . S
C1113 C1114 1.390 . S
C1114 C1113 1.390 . S
C1114 C1115 1.394 . S
C1114 C1120 1.465 . S
C1115 C1110 1.399 . S
C1115 C1114 1.394 . S
C1115 C1116 1.516 . S
C1116 C1115 1.516 . S
C1116 C1117 1.502 . S
C1116 C1118 1.561 . S
C1116 C1119 1.526 . S
C1117 H1101 0.959 . S
C1117 H1102 0.959 . S
C1117 H1103 0.961 . S
C1117 C1116 1.502 . S
C1118 H1104 0.960 . S
C1118 H1105 0.961 . S
C1118 H1106 0.959 . S
C1118 C1116 1.561 . S
C1119 C1116 1.526 . S
C1119 C1120 1.396 . S
C1119 C1124 1.390 . S
C1120 C1114 1.465 . S
C1120 C1119 1.396 . S
C1120 C1121 1.399 . S
C1121 H1107 0.929 . S
C1121 C1120 1.399 . S
C1121 C1122 1.385 . S
C1122 H1108 0.931 . S
C1122 C1121 1.385 . S
C1122 C1123 1.389 . S
C1123 C1122 1.389 . S
C1123 C1124 1.387 . S
C1124 H1109 0.930 . S
C1124 C1119 1.390 . S
C1124 C1123 1.387 . S
H1125 C1137 0.930 . S
H1126 C1139 0.930 . S
H1127 C1140 0.930 . S
H1128 C1144 0.959 . S
H1129 C1144 0.959 . S
H1130 C1144 0.961 . S
H1131 C1145 0.960 . S
H1132 C1145 0.961 . S
H1133 C1145 0.959 . S
H1134 C1148 0.929 . S
H1135 C1149 0.931 . S
H1136 C1151 0.930 . S
C1137 H1125 0.930 . S
C1137 C1138 1.399 . S
C1137 C1142 1.399 . S
C1138 C1137 1.399 . S
C1138 C1139 1.376 . S
C1139 H1126 0.930 . S
C1139 C1138 1.376 . S
C1139 C1140 1.388 . S
C1140 H1127 0.930 . S
C1140 C1139 1.388 . S
C1140 C1141 1.390 . S
C1141 C1140 1.390 . S
C1141 C1142 1.394 . S
C1141 C1147 1.465 . S
C1142 C1137 1.399 . S
C1142 C1141 1.394 . S
C1142 C1143 1.516 . S
C1143 C1142 1.516 . S
C1143 C1144 1.502 . S
C1143 C1145 1.561 . S
C1143 C1146 1.526 . S
C1144 H1128 0.959 . S
C1144 H1129 0.959 . S
C1144 H1130 0.961 . S
C1144 C1143 1.502 . S
C1145 H1131 0.960 . S
C1145 H1132 0.961 . S
C1145 H1133 0.959 . S
C1145 C1143 1.561 . S
C1146 C1143 1.526 . S
C1146 C1147 1.396 . S
C1146 C1151 1.390 . S
C1147 C1141 1.465 . S
C1147 C1146 1.396 . S
C1147 C1148 1.399 . S
C1148 H1134 0.929 . S
C1148 C1147 1.399 . S
C1148 C1149 1.385 . S
C1149 H1135 0.931 . S
C1149 C1148 1.385 . S
C1149 C1150 1.389 . S
C1150 C1149 1.389 . S
C1150 C1151 1.387 . S
C1151 H1136 0.930 . S
C1151 C1146 1.390 . S
C1151 C1150 1.387 . S
H1152 C1164 0.930 . S
H1153 C1166 0.930 . S
H1154 C1167 0.930 . S
H1155 C1171 0.959 . S
H1156 C1171 0.959 . S
H1157 C1171 0.961 . S
H1158 C1172 0.960 . S
H1159 C1172 0.961 . S
H1160 C1172 0.959 . S
H1161 C1175 0.929 . S
H1162 C1176 0.931 . S
H1163 C1178 0.930 . S
C1164 H1152 0.930 . S
C1164 C1165 1.399 . S
C1164 C1169 1.399 . S
C1165 C1164 1.399 . S
C1165 C1166 1.376 . S
C1166 H1153 0.930 . S
C1166 C1165 1.376 . S
C1166 C1167 1.388 . S
C1167 H1154 0.930 . S
C1167 C1166 1.388 . S
C1167 C1168 1.390 . S
C1168 C1167 1.390 . S
C1168 C1169 1.394 . S
C1168 C1174 1.465 . S
C1169 C1164 1.399 . S
C1169 C1168 1.394 . S
C1169 C1170 1.516 . S
C1170 C1169 1.516 . S
C1170 C1171 1.502 . S
C1170 C1172 1.561 . S
C1170 C1173 1.526 . S
C1171 H1155 0.959 . S
C1171 H1156 0.959 . S
C1171 H1157 0.961 . S
C1171 C1170 1.502 . S
C1172 H1158 0.960 . S
C1172 H1159 0.961 . S
C1172 H1160 0.959 . S
C1172 C1170 1.561 . S
C1173 C1170 1.526 . S
C1173 C1174 1.396 . S
C1173 C1178 1.390 . S
C1174 C1168 1.465 . S
C1174 C1173 1.396 . S
C1174 C1175 1.399 . S
C1175 H1161 0.929 . S
C1175 C1174 1.399 . S
C1175 C1176 1.385 . S
C1176 H1162 0.931 . S
C1176 C1175 1.385 . S
C1176 C1177 1.389 . S
C1177 C1176 1.389 . S
C1177 C1178 1.387 . S
C1178 H1163 0.930 . S
C1178 C1173 1.390 . S
C1178 C1177 1.387 . S
H1179 C1191 0.930 . S
H1180 C1193 0.930 . S
H1181 C1194 0.930 . S
H1182 C1198 0.959 . S
H1183 C1198 0.959 . S
H1184 C1198 0.961 . S
H1185 C1199 0.960 . S
H1186 C1199 0.961 . S
H1187 C1199 0.959 . S
H1188 C1202 0.929 . S
H1189 C1203 0.931 . S
H1190 C1205 0.930 . S
C1191 H1179 0.930 . S
C1191 C1192 1.399 . S
C1191 C1196 1.399 . S
C1192 C1191 1.399 . S
C1192 C1193 1.376 . S
C1193 H1180 0.930 . S
C1193 C1192 1.376 . S
C1193 C1194 1.388 . S
C1194 H1181 0.930 . S
C1194 C1193 1.388 . S
C1194 C1195 1.390 . S
C1195 C1194 1.390 . S
C1195 C1196 1.394 . S
C1195 C1201 1.465 . S
C1196 C1191 1.399 . S
C1196 C1195 1.394 . S
C1196 C1197 1.516 . S
C1197 C1196 1.516 . S
C1197 C1198 1.502 . S
C1197 C1199 1.561 . S
C1197 C1200 1.526 . S
C1198 H1182 0.959 . S
C1198 H1183 0.959 . S
C1198 H1184 0.961 . S
C1198 C1197 1.502 . S
C1199 H1185 0.960 . S
C1199 H1186 0.961 . S
C1199 H1187 0.959 . S
C1199 C1197 1.561 . S
C1200 C1197 1.526 . S
C1200 C1201 1.396 . S
C1200 C1205 1.390 . S
C1201 C1195 1.465 . S
C1201 C1200 1.396 . S
C1201 C1202 1.399 . S
C1202 H1188 0.929 . S
C1202 C1201 1.399 . S
C1202 C1203 1.385 . S
C1203 H1189 0.931 . S
C1203 C1202 1.385 . S
C1203 C1204 1.389 . S
C1204 C1203 1.389 . S
C1204 C1205 1.387 . S
C1205 H1190 0.930 . S
C1205 C1200 1.390 . S
C1205 C1204 1.387 . S
H1206 C1218 0.930 . S
H1207 C1220 0.930 . S
H1208 C1221 0.930 . S
H1209 C1225 0.959 . S
H1210 C1225 0.959 . S
H1211 C1225 0.961 . S
H1212 C1226 0.960 . S
H1213 C1226 0.961 . S
H1214 C1226 0.959 . S
H1215 C1229 0.929 . S
H1216 C1230 0.931 . S
H1217 C1232 0.930 . S
C1218 H1206 0.930 . S
C1218 C1219 1.399 . S
C1218 C1223 1.399 . S
C1219 C1218 1.399 . S
C1219 C1220 1.376 . S
C1220 H1207 0.930 . S
C1220 C1219 1.376 . S
C1220 C1221 1.388 . S
C1221 H1208 0.930 . S
C1221 C1220 1.388 . S
C1221 C1222 1.390 . S
C1222 C1221 1.390 . S
C1222 C1223 1.394 . S
C1222 C1228 1.465 . S
C1223 C1218 1.399 . S
C1223 C1222 1.394 . S
C1223 C1224 1.516 . S
C1224 C1223 1.516 . S
C1224 C1225 1.502 . S
C1224 C1226 1.561 . S
C1224 C1227 1.526 . S
C1225 H1209 0.959 . S
C1225 H1210 0.959 . S
C1225 H1211 0.961 . S
C1225 C1224 1.502 . S
C1226 H1212 0.960 . S
C1226 H1213 0.961 . S
C1226 H1214 0.959 . S
C1226 C1224 1.561 . S
C1227 C1224 1.526 . S
C1227 C1228 1.396 . S
C1227 C1232 1.390 . S
C1228 C1222 1.465 . S
C1228 C1227 1.396 . S
C1228 C1229 1.399 . S
C1229 H1215 0.929 . S
C1229 C1228 1.399 . S
C1229 C1230 1.385 . S
C1230 H1216 0.931 . S
C1230 C1229 1.385 . S
C1230 C1231 1.389 . S
C1231 C1230 1.389 . S
C1231 C1232 1.387 . S
C1232 H1217 0.930 . S
C1232 C1227 1.390 . S
C1232 C1231 1.387 . S
H1233 C1245 0.930 . S
H1234 C1247 0.930 . S
H1235 C1248 0.930 . S
H1236 C1252 0.959 . S
H1237 C1252 0.959 . S
H1238 C1252 0.961 . S
H1239 C1253 0.960 . S
H1240 C1253 0.961 . S
H1241 C1253 0.959 . S
H1242 C1256 0.929 . S
H1243 C1257 0.931 . S
H1244 C1259 0.930 . S
C1245 H1233 0.930 . S
C1245 C1246 1.399 . S
C1245 C1250 1.399 . S
C1246 C1245 1.399 . S
C1246 C1247 1.376 . S
C1247 H1234 0.930 . S
C1247 C1246 1.376 . S
C1247 C1248 1.388 . S
C1248 H1235 0.930 . S
C1248 C1247 1.388 . S
C1248 C1249 1.390 . S
C1249 C1248 1.390 . S
C1249 C1250 1.394 . S
C1249 C1255 1.465 . S
C1250 C1245 1.399 . S
C1250 C1249 1.394 . S
C1250 C1251 1.516 . S
C1251 C1250 1.516 . S
C1251 C1252 1.502 . S
C1251 C1253 1.561 . S
C1251 C1254 1.526 . S
C1252 H1236 0.959 . S
C1252 H1237 0.959 . S
C1252 H1238 0.961 . S
C1252 C1251 1.502 . S
C1253 H1239 0.960 . S
C1253 H1240 0.961 . S
C1253 H1241 0.959 . S
C1253 C1251 1.561 . S
C1254 C1251 1.526 . S
C1254 C1255 1.396 . S
C1254 C1259 1.390 . S
C1255 C1249 1.465 . S
C1255 C1254 1.396 . S
C1255 C1256 1.399 . S
C1256 H1242 0.929 . S
C1256 C1255 1.399 . S
C1256 C1257 1.385 . S
C1257 H1243 0.931 . S
C1257 C1256 1.385 . S
C1257 C1258 1.389 . S
C1258 C1257 1.389 . S
C1258 C1259 1.387 . S
C1259 H1244 0.930 . S
C1259 C1254 1.390 . S
C1259 C1258 1.387 . S
H1260 C1272 0.930 . S
H1261 C1274 0.930 . S
H1262 C1275 0.930 . S
H1263 C1279 0.959 . S
H1264 C1279 0.962 . S
H1265 C1279 0.961 . S
H1266 C1280 0.960 1_655 S
H1267 C1280 0.961 . S
H1268 C1280 0.959 . S
H1269 C1283 0.929 . S
H1270 C1284 0.931 . S
H1271 C1286 0.930 . S
C1272 H1260 0.930 . S
C1272 C1273 1.399 . S
C1272 C1277 1.399 . S
C1273 C1272 1.399 . S
C1273 C1274 1.376 . S
C1274 H1261 0.930 . S
C1274 C1273 1.376 . S
C1274 C1275 1.388 . S
C1275 H1262 0.930 . S
C1275 C1274 1.388 . S
C1275 C1276 1.390 . S
C1276 C1275 1.390 . S
C1276 C1277 1.394 . S
C1276 C1282 1.465 1_654 S
C1277 C1272 1.399 . S
C1277 C1276 1.394 . S
C1277 C1278 1.526 1_554 S
C1278 C1277 1.526 1_556 S
C1278 C1279 1.528 . S
C1278 C1280 1.559 1_656 S
C1278 C1281 1.488 1_655 S
C1279 H1263 0.959 . S
C1279 H1264 0.962 . S
C1279 H1265 0.961 . S
C1279 C1278 1.528 . S
C1280 H1266 0.960 1_455 S
C1280 H1267 0.961 . S
C1280 H1268 0.959 . S
C1280 C1278 1.559 1_454 S
C1281 C1278 1.488 1_455 S
C1281 C1282 1.396 . S
C1281 C1286 1.390 . S
C1282 C1276 1.465 1_456 S
C1282 C1281 1.396 . S
C1282 C1283 1.399 . S
C1283 H1269 0.929 . S
C1283 C1282 1.399 . S
C1283 C1284 1.385 . S
C1284 H1270 0.931 . S
C1284 C1283 1.385 . S
C1284 C1285 1.389 . S
C1285 C1284 1.389 . S
C1285 C1286 1.387 . S
C1286 H1271 0.930 . S
C1286 C1281 1.390 . S
C1286 C1285 1.387 . S
H1287 C1299 0.923 1_554 S
H1288 C1301 0.930 . S
H1289 C1302 0.930 . S
H1290 C1306 0.959 . S
H1291 C1306 0.959 . S
H1292 C1306 0.961 . S
H1293 C1307 0.960 . S
H1294 C1307 0.961 . S
H1295 C1307 0.959 . S
H1296 C1310 0.929 . S
H1297 C1311 0.931 . S
H1298 C1313 0.930 . S
C1299 H1287 0.923 1_556 S
C1299 C1300 1.399 . S
C1299 C1304 1.399 . S
C1300 C1299 1.399 . S
C1300 C1301 1.376 . S
C1301 H1288 0.930 . S
C1301 C1300 1.376 . S
C1301 C1302 1.388 . S
C1302 H1289 0.930 . S
C1302 C1301 1.388 . S
C1302 C1303 1.390 . S
C1303 C1302 1.390 . S
C1303 C1304 1.394 . S
C1303 C1309 1.465 . S
C1304 C1299 1.399 . S
C1304 C1303 1.394 . S
C1304 C1305 1.516 1_556 S
C1305 C1304 1.516 1_554 S
C1305 C1306 1.502 . S
C1305 C1307 1.561 . S
C1305 C1308 1.526 . S
C1306 H1290 0.959 . S
C1306 H1291 0.959 . S
C1306 H1292 0.961 . S
C1306 C1305 1.502 . S
C1307 H1293 0.960 . S
C1307 H1294 0.961 . S
C1307 H1295 0.959 . S
C1307 C1305 1.561 . S
C1308 C1305 1.526 . S
C1308 C1309 1.396 1_554 S
C1308 C1313 1.390 . S
C1309 C1303 1.465 . S
C1309 C1308 1.396 1_556 S
C1309 C1310 1.399 . S
C1310 H1296 0.929 . S
C1310 C1309 1.399 . S
C1310 C1311 1.385 1_556 S
C1311 H1297 0.931 . S
C1311 C1310 1.385 1_554 S
C1311 C1312 1.389 . S
C1312 C1311 1.389 . S
C1312 C1313 1.387 . S
C1313 H1298 0.930 . S
C1313 C1308 1.390 . S
C1313 C1312 1.387 . S
H1314 C1326 0.930 1_556 S
H1315 C1328 0.930 . S
H1316 C1329 0.930 1_565 S
H1317 C1333 0.959 . S
H1318 C1333 0.959 . S
H1319 C1333 0.961 . S
H1320 C1334 0.960 . S
H1321 C1334 0.961 . S
H1322 C1334 0.959 . S
H1323 C1337 0.929 . S
H1324 C1338 0.931 . S
H1325 C1340 0.930 . S
C1326 H1314 0.930 1_554 S
C1326 C1327 1.399 . S
C1326 C1331 1.399 . S
C1327 C1326 1.399 . S
C1327 C1328 1.376 . S
C1328 H1315 0.930 . S
C1328 C1327 1.376 . S
C1328 C1329 1.388 . S
C1329 H1316 0.930 1_545 S
C1329 C1328 1.388 . S
C1329 C1330 1.390 . S
C1330 C1329 1.390 . S
C1330 C1331 1.394 . S
C1330 C1336 1.465 1_545 S
C1331 C1326 1.399 . S
C1331 C1330 1.394 . S
C1331 C1332 1.516 1_554 S
C1332 C1331 1.516 1_556 S
C1332 C1333 1.502 . S
C1332 C1334 1.561 . S
C1332 C1335 1.526 1_545 S
C1333 H1317 0.959 . S
C1333 H1318 0.959 . S
C1333 H1319 0.961 . S
C1333 C1332 1.502 . S
C1334 H1320 0.960 . S
C1334 H1321 0.961 . S
C1334 H1322 0.959 . S
C1334 C1332 1.561 . S
C1335 C1332 1.526 1_565 S
C1335 C1336 1.396 1_556 S
C1335 C1340 1.390 . S
C1336 C1330 1.465 1_565 S
C1336 C1335 1.396 1_554 S
C1336 C1337 1.399 . S
C1337 H1323 0.929 . S
C1337 C1336 1.399 . S
C1337 C1338 1.385 1_554 S
C1338 H1324 0.931 . S
C1338 C1337 1.385 1_556 S
C1338 C1339 1.389 . S
C1339 C1338 1.389 . S
C1339 C1340 1.387 . S
C1340 H1325 0.930 . S
C1340 C1335 1.390 . S
C1340 C1339 1.387 . S
H1341 C1353 0.930 1_556 S
H1342 C1355 0.930 . S
H1343 C1356 0.930 . S
H1344 C1360 0.959 . S
H1345 C1360 0.959 . S
H1346 C1360 0.961 . S
H1347 C1361 0.960 . S
H1348 C1361 0.961 . S
H1349 C1361 0.959 . S
H1350 C1364 0.929 . S
H1351 C1365 0.931 1_554 S
H1352 C1367 0.930 . S
C1353 H1341 0.930 1_554 S
C1353 C1354 1.399 . S
C1353 C1358 1.400 . S
C1354 C1353 1.399 . S
C1354 C1355 1.376 . S
C1355 H1342 0.930 . S
C1355 C1354 1.376 . S
C1355 C1356 1.388 . S
C1356 H1343 0.930 . S
C1356 C1355 1.388 . S
C1356 C1357 1.390 . S
C1357 C1356 1.390 . S
C1357 C1358 1.396 . S
C1357 C1363 1.465 . S
C1358 C1353 1.400 . S
C1358 C1357 1.396 . S
C1358 C1359 1.513 1_554 S
C1359 C1358 1.513 1_556 S
C1359 C1360 1.502 . S
C1359 C1361 1.561 . S
C1359 C1362 1.526 . S
C1360 H1344 0.959 . S
C1360 H1345 0.959 . S
C1360 H1346 0.961 . S
C1360 C1359 1.502 . S
C1361 H1347 0.960 . S
C1361 H1348 0.961 . S
C1361 H1349 0.959 . S
C1361 C1359 1.561 . S
C1362 C1359 1.526 . S
C1362 C1363 1.396 1_556 S
C1362 C1367 1.390 . S
C1363 C1357 1.465 . S
C1363 C1362 1.396 1_554 S
C1363 C1364 1.399 . S
C1364 H1350 0.929 . S
C1364 C1363 1.399 . S
C1364 C1365 1.385 1_554 S
C1365 H1351 0.931 1_556 S
C1365 C1364 1.385 1_556 S
C1365 C1366 1.389 . S
C1366 C1365 1.389 . S
C1366 C1367 1.387 . S
C1367 H1352 0.930 . S
C1367 C1362 1.390 . S
C1367 C1366 1.387 . S
H1368 C1380 0.930 . S
H1369 C1382 0.930 . S
H1370 C1383 0.930 1_556 S
H1371 C1387 0.959 1_566 S
H1372 C1387 0.959 . S
H1373 C1387 0.961 1_565 S
H1374 C1388 0.960 . S
H1375 C1388 0.961 . S
H1376 C1388 0.959 . S
H1377 C1391 0.929 . S
H1378 C1392 0.931 . S
H1379 C1394 0.930 . S
C1380 H1368 0.930 . S
C1380 C1381 1.399 . S
C1380 C1385 1.399 . S
C1381 C1380 1.399 . S
C1381 C1382 1.376 . S
C1382 H1369 0.930 . S
C1382 C1381 1.376 . S
C1382 C1383 1.388 . S
C1383 H1370 0.930 1_554 S
C1383 C1382 1.388 . S
C1383 C1384 1.390 . S
C1384 C1383 1.390 . S
C1384 C1385 1.394 . S
C1384 C1390 1.465 1_564 S
C1385 C1380 1.399 . S
C1385 C1384 1.394 . S
C1385 C1386 1.516 1_565 S
C1386 C1385 1.516 1_545 S
C1386 C1387 1.502 . S
C1386 C1388 1.561 . S
C1386 C1389 1.526 1_554 S
C1387 H1371 0.959 1_544 S
C1387 H1372 0.959 . S
C1387 H1373 0.961 1_545 S
C1387 C1386 1.502 . S
C1388 H1374 0.960 . S
C1388 H1375 0.961 . S
C1388 H1376 0.959 . S
C1388 C1386 1.561 . S
C1389 C1386 1.526 1_556 S
C1389 C1390 1.396 . S
C1389 C1394 1.390 . S
C1390 C1384 1.465 1_546 S
C1390 C1389 1.396 . S
C1390 C1391 1.399 . S
C1391 H1377 0.929 . S
C1391 C1390 1.399 . S
C1391 C1392 1.385 . S
C1392 H1378 0.931 . S
C1392 C1391 1.385 . S
C1392 C1393 1.389 . S
C1393 C1392 1.389 . S
C1393 C1394 1.387 . S
C1394 H1379 0.930 . S
C1394 C1389 1.390 . S
C1394 C1393 1.387 . S
H1395 C1407 0.930 1_554 S
H1396 C1409 0.930 . S
H1397 C1410 0.931 . S
H1398 C1414 0.959 . S
H1399 C1414 0.959 . S
H1400 C1414 0.961 . S
H1401 C1415 0.960 . S
H1402 C1415 0.961 . S
H1403 C1415 0.959 . S
H1404 C1418 0.929 . S
H1405 C1419 0.931 . S
H1406 C1421 0.930 . S
C1407 H1395 0.930 1_556 S
C1407 C1408 1.399 . S
C1407 C1412 1.399 . S
C1408 C1407 1.399 . S
C1408 C1409 1.376 . S
C1409 H1396 0.930 . S
C1409 C1408 1.376 . S
C1409 C1410 1.388 . S
C1410 H1397 0.931 . S
C1410 C1409 1.388 . S
C1410 C1411 1.390 . S
C1411 C1410 1.390 . S
C1411 C1412 1.394 . S
C1411 C1417 1.465 1_655 S
C1412 C1407 1.399 . S
C1412 C1411 1.394 . S
C1412 C1413 1.516 1_556 S
C1413 C1412 1.516 1_554 S
C1413 C1414 1.502 . S
C1413 C1415 1.561 . S
C1413 C1416 1.526 1_655 S
C1414 H1398 0.959 . S
C1414 H1399 0.959 . S
C1414 H1400 0.961 . S
C1414 C1413 1.502 . S
C1415 H1401 0.960 . S
C1415 H1402 0.961 . S
C1415 H1403 0.959 . S
C1415 C1413 1.561 . S
C1416 C1413 1.526 1_455 S
C1416 C1417 1.396 1_554 S
C1416 C1421 1.390 . S
C1417 C1411 1.465 1_455 S
C1417 C1416 1.396 1_556 S
C1417 C1418 1.399 . S
C1418 H1404 0.929 . S
C1418 C1417 1.399 . S
C1418 C1419 1.385 1_556 S
C1419 H1405 0.931 . S
C1419 C1418 1.385 1_554 S
C1419 C1420 1.389 . S
C1420 C1419 1.389 . S
C1420 C1421 1.387 . S
C1421 H1406 0.930 . S
C1421 C1416 1.390 . S
C1421 C1420 1.387 . S
H1422 C1434 0.930 . S
H1423 C1436 0.930 . S
H1424 C1437 0.930 . S
H1425 C1441 0.959 . S
H1426 C1441 0.959 . S
H1427 C1441 0.961 . S
H1428 C1442 0.960 . S
H1429 C1442 0.961 . S
H1430 C1442 0.959 . S
H1431 C1445 0.929 . S
H1432 C1446 0.931 . S
H1433 C1448 0.930 . S
C1434 H1422 0.930 . S
C1434 C1435 1.399 . S
C1434 C1439 1.399 . S
C1435 C1434 1.399 . S
C1435 C1436 1.376 . S
C1436 H1423 0.930 . S
C1436 C1435 1.376 . S
C1436 C1437 1.388 . S
C1437 H1424 0.930 . S
C1437 C1436 1.388 . S
C1437 C1438 1.390 . S
C1438 C1437 1.390 . S
C1438 C1439 1.394 . S
C1438 C1444 1.465 1_556 S
C1439 C1434 1.399 . S
C1439 C1438 1.394 . S
C1439 C1440 1.516 1_556 S
C1440 C1439 1.516 1_554 S
C1440 C1441 1.502 . S
C1440 C1442 1.561 . S
C1440 C1443 1.526 . S
C1441 H1425 0.959 . S
C1441 H1426 0.959 . S
C1441 H1427 0.961 . S
C1441 C1440 1.502 . S
C1442 H1428 0.960 . S
C1442 H1429 0.961 . S
C1442 H1430 0.959 . S
C1442 C1440 1.561 . S
C1443 C1440 1.526 . S
C1443 C1444 1.396 . S
C1443 C1448 1.390 . S
C1444 C1438 1.465 1_554 S
C1444 C1443 1.396 . S
C1444 C1445 1.399 1_554 S
C1445 H1431 0.929 . S
C1445 C1444 1.399 1_556 S
C1445 C1446 1.385 1_556 S
C1446 H1432 0.931 . S
C1446 C1445 1.385 1_554 S
C1446 C1447 1.389 . S
C1447 C1446 1.389 . S
C1447 C1448 1.387 . S
C1448 H1433 0.930 . S
C1448 C1443 1.390 . S
C1448 C1447 1.387 . S
H1449 C1461 0.930 . S
H1450 C1463 0.930 . S
H1451 C1464 0.930 . S
H1452 C1468 0.959 . S
H1453 C1468 0.959 . S
H1454 C1468 0.961 . S
H1455 C1469 0.960 . S
H1456 C1469 0.961 . S
H1457 C1469 0.959 . S
H1458 C1472 0.929 . S
H1459 C1473 0.931 . S
H1460 C1475 0.930 1_556 S
C1461 H1449 0.930 . S
C1461 C1462 1.399 . S
C1461 C1466 1.399 . S
C1462 C1461 1.399 . S
C1462 C1463 1.376 . S
C1463 H1450 0.930 . S
C1463 C1462 1.376 . S
C1463 C1464 1.388 1_556 S
C1464 H1451 0.930 . S
C1464 C1463 1.388 1_554 S
C1464 C1465 1.390 . S
C1465 C1464 1.390 . S
C1465 C1466 1.394 1_554 S
C1465 C1471 1.465 1_545 S
C1466 C1461 1.399 . S
C1466 C1465 1.394 1_556 S
C1466 C1467 1.516 1_545 S
C1467 C1466 1.516 1_565 S
C1467 C1468 1.502 . S
C1467 C1469 1.561 . S
C1467 C1470 1.525 1_556 S
C1468 H1452 0.959 . S
C1468 H1453 0.959 . S
C1468 H1454 0.961 . S
C1468 C1467 1.502 . S
C1469 H1455 0.960 . S
C1469 H1456 0.961 . S
C1469 H1457 0.959 . S
C1469 C1467 1.561 . S
C1470 C1467 1.525 1_554 S
C1470 C1471 1.397 . S
C1470 C1475 1.390 . S
C1471 C1465 1.465 1_565 S
C1471 C1470 1.397 . S
C1471 C1472 1.399 . S
C1472 H1458 0.929 . S
C1472 C1471 1.399 . S
C1472 C1473 1.385 . S
C1473 H1459 0.931 . S
C1473 C1472 1.385 . S
C1473 C1474 1.389 . S
C1474 C1473 1.389 . S
C1474 C1475 1.387 . S
C1475 H1460 0.930 1_554 S
C1475 C1470 1.390 . S
C1475 C1474 1.387 . S
H1476 C1488 0.930 . S
H1477 C1490 0.930 . S
H1478 C1491 0.930 . S
H1479 C1495 0.959 . S
H1480 C1495 0.959 . S
H1481 C1495 0.961 . S
H1482 C1496 0.967 . S
H1483 C1496 0.961 . S
H1484 C1496 0.959 . S
H1485 C1499 0.929 . S
H1486 C1500 0.931 . S
H1487 C1502 0.933 . S
C1488 H1476 0.930 . S
C1488 C1489 1.399 . S
C1488 C1493 1.399 . S
C1489 C1488 1.399 . S
C1489 C1490 1.376 . S
C1490 H1477 0.930 . S
C1490 C1489 1.376 . S
C1490 C1491 1.388 1_556 S
C1491 H1478 0.930 . S
C1491 C1490 1.388 1_554 S
C1491 C1492 1.390 . S
C1492 C1491 1.390 . S
C1492 C1493 1.394 1_554 S
C1492 C1498 1.465 1_655 S
C1493 C1488 1.399 . S
C1493 C1492 1.394 1_556 S
C1493 C1494 1.516 1_655 S
C1494 C1493 1.516 1_455 S
C1494 C1495 1.502 . S
C1494 C1496 1.561 . S
C1494 C1497 1.526 1_556 S
C1495 H1479 0.959 . S
C1495 H1480 0.959 . S
C1495 H1481 0.961 . S
C1495 C1494 1.502 . S
C1496 H1482 0.967 . S
C1496 H1483 0.961 . S
C1496 H1484 0.959 . S
C1496 C1494 1.561 . S
C1497 C1494 1.526 1_554 S
C1497 C1498 1.396 . S
C1497 C1502 1.390 . S
C1498 C1492 1.465 1_455 S
C1498 C1497 1.396 . S
C1498 C1499 1.399 . S
C1499 H1485 0.929 . S
C1499 C1498 1.399 . S
C1499 C1500 1.385 . S
C1500 H1486 0.931 . S
C1500 C1499 1.385 . S
C1500 C1501 1.389 . S
C1501 C1500 1.389 . S
C1501 C1502 1.387 . S
C1502 H1487 0.933 . S
C1502 C1497 1.390 . S
C1502 C1501 1.387 . S
H1503 C1515 0.930 . S
H1504 C1517 0.930 . S
H1505 C1518 0.930 . S
H1506 C1522 0.959 . S
H1507 C1522 0.959 . S
H1508 C1522 0.961 . S
H1509 C1523 0.960 . S
H1510 C1523 0.961 . S
H1511 C1523 0.959 . S
H1512 C1526 0.929 . S
H1513 C1527 0.931 . S
H1514 C1529 0.930 . S
C1515 H1503 0.930 . S
C1515 C1516 1.399 . S
C1515 C1520 1.399 . S
C1516 C1515 1.399 . S
C1516 C1517 1.376 . S
C1517 H1504 0.930 . S
C1517 C1516 1.376 . S
C1517 C1518 1.388 . S
C1518 H1505 0.930 . S
C1518 C1517 1.388 . S
C1518 C1519 1.390 . S
C1519 C1518 1.390 . S
C1519 C1520 1.394 . S
C1519 C1525 1.465 . S
C1520 C1515 1.399 . S
C1520 C1519 1.394 . S
C1520 C1521 1.516 . S
C1521 C1520 1.516 . S
C1521 C1522 1.502 . S
C1521 C1523 1.561 . S
C1521 C1524 1.526 . S
C1522 H1506 0.959 . S
C1522 H1507 0.959 . S
C1522 H1508 0.961 . S
C1522 C1521 1.502 . S
C1523 H1509 0.960 . S
C1523 H1510 0.961 . S
C1523 H1511 0.959 . S
C1523 C1521 1.561 . S
C1524 C1521 1.526 . S
C1524 C1525 1.396 . S
C1524 C1529 1.390 . S
C1525 C1519 1.465 . S
C1525 C1524 1.396 . S
C1525 C1526 1.399 . S
C1526 H1512 0.929 . S
C1526 C1525 1.399 . S
C1526 C1527 1.385 . S
C1527 H1513 0.931 . S
C1527 C1526 1.385 . S
C1527 C1528 1.389 . S
C1528 C1527 1.389 . S
C1528 C1529 1.387 . S
C1529 H1514 0.930 . S
C1529 C1524 1.390 . S
C1529 C1528 1.387 . S
H1530 C1542 0.930 . S
H1531 C1544 0.930 . S
H1532 C1545 0.930 . S
H1533 C1549 0.959 . S
H1534 C1549 0.959 . S
H1535 C1549 0.961 . S
H1536 C1550 0.960 . S
H1537 C1550 0.961 . S
H1538 C1550 0.959 . S
H1539 C1553 0.929 . S
H1540 C1554 0.931 . S
H1541 C1556 0.930 . S
C1542 H1530 0.930 . S
C1542 C1543 1.399 . S
C1542 C1547 1.399 . S
C1543 C1542 1.399 . S
C1543 C1544 1.376 . S
C1544 H1531 0.930 . S
C1544 C1543 1.376 . S
C1544 C1545 1.388 . S
C1545 H1532 0.930 . S
C1545 C1544 1.388 . S
C1545 C1546 1.390 . S
C1546 C1545 1.390 . S
C1546 C1547 1.394 . S
C1546 C1552 1.465 . S
C1547 C1542 1.399 . S
C1547 C1546 1.394 . S
C1547 C1548 1.516 . S
C1548 C1547 1.516 . S
C1548 C1549 1.502 . S
C1548 C1550 1.561 . S
C1548 C1551 1.526 . S
C1549 H1533 0.959 . S
C1549 H1534 0.959 . S
C1549 H1535 0.961 . S
C1549 C1548 1.502 . S
C1550 H1536 0.960 . S
C1550 H1537 0.961 . S
C1550 H1538 0.959 . S
C1550 C1548 1.561 . S
C1551 C1548 1.526 . S
C1551 C1552 1.396 . S
C1551 C1556 1.390 . S
C1552 C1546 1.465 . S
C1552 C1551 1.396 . S
C1552 C1553 1.399 . S
C1553 H1539 0.929 . S
C1553 C1552 1.399 . S
C1553 C1554 1.385 . S
C1554 H1540 0.931 . S
C1554 C1553 1.385 . S
C1554 C1555 1.389 . S
C1555 C1554 1.389 . S
C1555 C1556 1.387 . S
C1556 H1541 0.930 . S
C1556 C1551 1.390 . S
C1556 C1555 1.387 . S
H1557 C1569 0.930 . S
H1558 C1571 0.930 . S
H1559 C1572 0.930 . S
H1560 C1576 0.959 . S
H1561 C1576 0.959 . S
H1562 C1576 0.961 . S
H1563 C1577 0.960 . S
H1564 C1577 0.961 . S
H1565 C1577 0.959 . S
H1566 C1580 0.929 . S
H1567 C1581 0.931 . S
H1568 C1583 0.930 . S
C1569 H1557 0.930 . S
C1569 C1570 1.399 . S
C1569 C1574 1.399 . S
C1570 C1569 1.399 . S
C1570 C1571 1.376 . S
C1571 H1558 0.930 . S
C1571 C1570 1.376 . S
C1571 C1572 1.388 . S
C1572 H1559 0.930 . S
C1572 C1571 1.388 . S
C1572 C1573 1.390 . S
C1573 C1572 1.390 . S
C1573 C1574 1.394 . S
C1573 C1579 1.465 . S
C1574 C1569 1.399 . S
C1574 C1573 1.394 . S
C1574 C1575 1.516 . S
C1575 C1574 1.516 . S
C1575 C1576 1.502 . S
C1575 C1577 1.561 . S
C1575 C1578 1.526 . S
C1576 H1560 0.959 . S
C1576 H1561 0.959 . S
C1576 H1562 0.961 . S
C1576 C1575 1.502 . S
C1577 H1563 0.960 . S
C1577 H1564 0.961 . S
C1577 H1565 0.959 . S
C1577 C1575 1.561 . S
C1578 C1575 1.526 . S
C1578 C1579 1.396 . S
C1578 C1583 1.390 . S
C1579 C1573 1.465 . S
C1579 C1578 1.396 . S
C1579 C1580 1.399 . S
C1580 H1566 0.929 . S
C1580 C1579 1.399 . S
C1580 C1581 1.385 . S
C1581 H1567 0.931 . S
C1581 C1580 1.385 . S
C1581 C1582 1.389 . S
C1582 C1581 1.389 . S
C1582 C1583 1.387 . S
C1583 H1568 0.930 . S
C1583 C1578 1.390 . S
C1583 C1582 1.387 . S
H1584 C1596 0.930 . S
H1585 C1598 0.930 . S
H1586 C1599 0.930 . S
H1587 C1603 0.959 . S
H1588 C1603 0.959 . S
H1589 C1603 0.961 . S
H1590 C1604 0.960 . S
H1591 C1604 0.961 . S
H1592 C1604 0.959 . S
H1593 C1607 0.929 . S
H1594 C1608 0.931 . S
H1595 C1610 0.930 . S
C1596 H1584 0.930 . S
C1596 C1597 1.399 . S
C1596 C1601 1.399 . S
C1597 C1596 1.399 . S
C1597 C1598 1.376 . S
C1598 H1585 0.930 . S
C1598 C1597 1.376 . S
C1598 C1599 1.388 . S
C1599 H1586 0.930 . S
C1599 C1598 1.388 . S
C1599 C1600 1.390 . S
C1600 C1599 1.390 . S
C1600 C1601 1.394 . S
C1600 C1606 1.465 . S
C1601 C1596 1.399 . S
C1601 C1600 1.394 . S
C1601 C1602 1.516 . S
C1602 C1601 1.516 . S
C1602 C1603 1.502 . S
C1602 C1604 1.561 . S
C1602 C1605 1.526 . S
C1603 H1587 0.959 . S
C1603 H1588 0.959 . S
C1603 H1589 0.961 . S
C1603 C1602 1.502 . S
C1604 H1590 0.960 . S
C1604 H1591 0.961 . S
C1604 H1592 0.959 . S
C1604 C1602 1.561 . S
C1605 C1602 1.526 . S
C1605 C1606 1.396 . S
C1605 C1610 1.390 . S
C1606 C1600 1.465 . S
C1606 C1605 1.396 . S
C1606 C1607 1.399 . S
C1607 H1593 0.929 . S
C1607 C1606 1.399 . S
C1607 C1608 1.385 . S
C1608 H1594 0.931 . S
C1608 C1607 1.385 . S
C1608 C1609 1.389 . S
C1609 C1608 1.389 . S
C1609 C1610 1.387 . S
C1610 H1595 0.930 . S
C1610 C1605 1.390 . S
C1610 C1609 1.387 . S
H1611 C1623 0.930 . S
H1612 C1625 0.930 . S
H1613 C1626 0.930 . S
H1614 C1630 0.959 . S
H1615 C1630 0.959 . S
H1616 C1630 0.961 . S
H1617 C1631 0.960 . S
H1618 C1631 0.961 . S
H1619 C1631 0.959 . S
H1620 C1634 0.929 . S
H1621 C1635 0.931 . S
H1622 C1637 0.930 . S
C1623 H1611 0.930 . S
C1623 C1624 1.399 . S
C1623 C1628 1.399 . S
C1624 C1623 1.399 . S
C1624 C1625 1.376 . S
C1625 H1612 0.930 . S
C1625 C1624 1.376 . S
C1625 C1626 1.388 . S
C1626 H1613 0.930 . S
C1626 C1625 1.388 . S
C1626 C1627 1.390 . S
C1627 C1626 1.390 . S
C1627 C1628 1.394 . S
C1627 C1633 1.465 . S
C1628 C1623 1.399 . S
C1628 C1627 1.394 . S
C1628 C1629 1.516 . S
C1629 C1628 1.516 . S
C1629 C1630 1.502 . S
C1629 C1631 1.561 . S
C1629 C1632 1.526 . S
C1630 H1614 0.959 . S
C1630 H1615 0.959 . S
C1630 H1616 0.961 . S
C1630 C1629 1.502 . S
C1631 H1617 0.960 . S
C1631 H1618 0.961 . S
C1631 H1619 0.959 . S
C1631 C1629 1.561 . S
C1632 C1629 1.526 . S
C1632 C1633 1.396 . S
C1632 C1637 1.390 . S
C1633 C1627 1.465 . S
C1633 C1632 1.396 . S
C1633 C1634 1.399 . S
C1634 H1620 0.929 . S
C1634 C1633 1.399 . S
C1634 C1635 1.385 . S
C1635 H1621 0.931 . S
C1635 C1634 1.385 . S
C1635 C1636 1.389 . S
C1636 C1635 1.389 . S
C1636 C1637 1.387 . S
C1637 H1622 0.930 . S
C1637 C1632 1.390 . S
C1637 C1636 1.387 . S
H1638 C1650 0.930 . S
H1639 C1652 0.930 . S
H1640 C1653 0.930 . S
H1641 C1657 0.959 . S
H1642 C1657 0.959 . S
H1643 C1657 0.961 . S
H1644 C1658 0.960 . S
H1645 C1658 0.961 . S
H1646 C1658 0.959 . S
H1647 C1661 0.929 . S
H1648 C1662 0.931 . S
H1649 C1664 0.930 . S
C1650 H1638 0.930 . S
C1650 C1651 1.399 . S
C1650 C1655 1.399 . S
C1651 C1650 1.399 . S
C1651 C1652 1.376 . S
C1652 H1639 0.930 . S
C1652 C1651 1.376 . S
C1652 C1653 1.388 . S
C1653 H1640 0.930 . S
C1653 C1652 1.388 . S
C1653 C1654 1.390 . S
C1654 C1653 1.390 . S
C1654 C1655 1.394 . S
C1654 C1660 1.465 . S
C1655 C1650 1.399 . S
C1655 C1654 1.394 . S
C1655 C1656 1.516 . S
C1656 C1655 1.516 . S
C1656 C1657 1.502 . S
C1656 C1658 1.561 . S
C1656 C1659 1.526 . S
C1657 H1641 0.959 . S
C1657 H1642 0.959 . S
C1657 H1643 0.961 . S
C1657 C1656 1.502 . S
C1658 H1644 0.960 . S
C1658 H1645 0.961 . S
C1658 H1646 0.959 . S
C1658 C1656 1.561 . S
C1659 C1656 1.526 . S
C1659 C1660 1.396 . S
C1659 C1664 1.390 . S
C1660 C1654 1.465 . S
C1660 C1659 1.396 . S
C1660 C1661 1.399 . S
C1661 H1647 0.929 . S
C1661 C1660 1.399 . S
C1661 C1662 1.385 . S
C1662 H1648 0.931 . S
C1662 C1661 1.385 . S
C1662 C1663 1.389 . S
C1663 C1662 1.389 . S
C1663 C1664 1.387 . S
C1664 H1649 0.930 . S
C1664 C1659 1.390 . S
C1664 C1663 1.387 . S
H1665 C1677 0.930 . S
H1666 C1679 0.930 . S
H1667 C1680 0.930 . S
H1668 C1684 0.959 . S
H1669 C1684 0.959 . S
H1670 C1684 0.961 . S
H1671 C1685 0.960 . S
H1672 C1685 0.961 . S
H1673 C1685 0.959 . S
H1674 C1688 0.929 . S
H1675 C1689 0.931 . S
H1676 C1691 0.930 . S
C1677 H1665 0.930 . S
C1677 C1678 1.399 . S
C1677 C1682 1.399 . S
C1678 C1677 1.399 . S
C1678 C1679 1.376 . S
C1679 H1666 0.930 . S
C1679 C1678 1.376 . S
C1679 C1680 1.388 . S
C1680 H1667 0.930 . S
C1680 C1679 1.388 . S
C1680 C1681 1.390 . S
C1681 C1680 1.390 . S
C1681 C1682 1.394 . S
C1681 C1687 1.465 . S
C1682 C1677 1.399 . S
C1682 C1681 1.394 . S
C1682 C1683 1.516 . S
C1683 C1682 1.516 . S
C1683 C1684 1.502 . S
C1683 C1685 1.561 . S
C1683 C1686 1.526 . S
C1684 H1668 0.959 . S
C1684 H1669 0.959 . S
C1684 H1670 0.961 . S
C1684 C1683 1.502 . S
C1685 H1671 0.960 . S
C1685 H1672 0.961 . S
C1685 H1673 0.959 . S
C1685 C1683 1.561 . S
C1686 C1683 1.526 . S
C1686 C1687 1.396 . S
C1686 C1691 1.390 . S
C1687 C1681 1.465 . S
C1687 C1686 1.396 . S
C1687 C1688 1.399 . S
C1688 H1674 0.929 . S
C1688 C1687 1.399 . S
C1688 C1689 1.385 . S
C1689 H1675 0.931 . S
C1689 C1688 1.385 . S
C1689 C1690 1.389 . S
C1690 C1689 1.389 . S
C1690 C1691 1.387 . S
C1691 H1676 0.930 . S
C1691 C1686 1.390 . S
C1691 C1690 1.387 . S
H1692 C1704 0.930 . S
H1693 C1706 0.930 . S
H1694 C1707 0.930 . S
H1695 C1711 0.959 . S
H1696 C1711 0.959 . S
H1697 C1711 0.961 . S
H1698 C1712 0.960 . S
H1699 C1712 0.961 . S
H1700 C1712 0.959 . S
H1701 C1715 0.929 . S
H1702 C1716 0.931 . S
H1703 C1718 0.930 . S
C1704 H1692 0.930 . S
C1704 C1705 1.399 . S
C1704 C1709 1.399 . S
C1705 C1704 1.399 . S
C1705 C1706 1.376 . S
C1706 H1693 0.930 . S
C1706 C1705 1.376 . S
C1706 C1707 1.388 . S
C1707 H1694 0.930 . S
C1707 C1706 1.388 . S
C1707 C1708 1.390 . S
C1708 C1707 1.390 . S
C1708 C1709 1.394 . S
C1708 C1714 1.465 . S
C1709 C1704 1.399 . S
C1709 C1708 1.394 . S
C1709 C1710 1.516 . S
C1710 C1709 1.516 . S
C1710 C1711 1.502 . S
C1710 C1712 1.561 . S
C1710 C1713 1.526 . S
C1711 H1695 0.959 . S
C1711 H1696 0.959 . S
C1711 H1697 0.961 . S
C1711 C1710 1.502 . S
C1712 H1698 0.960 . S
C1712 H1699 0.961 . S
C1712 H1700 0.959 . S
C1712 C1710 1.561 . S
C1713 C1710 1.526 . S
C1713 C1714 1.396 . S
C1713 C1718 1.390 . S
C1714 C1708 1.465 . S
C1714 C1713 1.396 . S
C1714 C1715 1.399 . S
C1715 H1701 0.929 . S
C1715 C1714 1.399 . S
C1715 C1716 1.385 . S
C1716 H1702 0.931 . S
C1716 C1715 1.385 . S
C1716 C1717 1.389 . S
C1717 C1716 1.389 . S
C1717 C1718 1.387 . S
C1718 H1703 0.930 . S
C1718 C1713 1.390 . S
C1718 C1717 1.387 . S
H1719 C1731 0.930 . S
H1720 C1733 0.930 . S
H1721 C1734 0.930 . S
H1722 C1738 0.959 . S
H1723 C1738 0.959 . S
H1724 C1738 0.961 . S
H1725 C1739 0.960 . S
H1726 C1739 0.961 . S
H1727 C1739 0.959 . S
H1728 C1742 0.929 . S
H1729 C1743 0.931 . S
H1730 C1745 0.930 . S
C1731 H1719 0.930 . S
C1731 C1732 1.399 . S
C1731 C1736 1.399 . S
C1732 C1731 1.399 . S
C1732 C1733 1.376 . S
C1733 H1720 0.930 . S
C1733 C1732 1.376 . S
C1733 C1734 1.388 . S
C1734 H1721 0.930 . S
C1734 C1733 1.388 . S
C1734 C1735 1.390 . S
C1735 C1734 1.390 . S
C1735 C1736 1.394 . S
C1735 C1741 1.465 . S
C1736 C1731 1.399 . S
C1736 C1735 1.394 . S
C1736 C1737 1.516 . S
C1737 C1736 1.516 . S
C1737 C1738 1.502 . S
C1737 C1739 1.561 . S
C1737 C1740 1.526 . S
C1738 H1722 0.959 . S
C1738 H1723 0.959 . S
C1738 H1724 0.961 . S
C1738 C1737 1.502 . S
C1739 H1725 0.960 . S
C1739 H1726 0.961 . S
C1739 H1727 0.959 . S
C1739 C1737 1.561 . S
C1740 C1737 1.526 . S
C1740 C1741 1.396 . S
C1740 C1745 1.390 . S
C1741 C1735 1.465 . S
C1741 C1740 1.396 . S
C1741 C1742 1.399 . S
C1742 H1728 0.929 . S
C1742 C1741 1.399 . S
C1742 C1743 1.385 . S
C1743 H1729 0.931 . S
C1743 C1742 1.385 . S
C1743 C1744 1.389 . S
C1744 C1743 1.389 . S
C1744 C1745 1.387 . S
C1745 H1730 0.930 . S
C1745 C1740 1.390 . S
C1745 C1744 1.387 . S
H1746 C1758 0.930 . S
H1747 C1760 0.930 . S
H1748 C1761 0.930 . S
H1749 C1765 0.959 . S
H1750 C1765 0.959 . S
H1751 C1765 0.961 . S
H1752 C1766 0.960 . S
H1753 C1766 0.961 . S
H1754 C1766 0.959 . S
H1755 C1769 0.929 . S
H1756 C1770 0.931 . S
H1757 C1772 0.930 . S
C1758 H1746 0.930 . S
C1758 C1759 1.399 . S
C1758 C1763 1.399 . S
C1759 C1758 1.399 . S
C1759 C1760 1.376 . S
C1760 H1747 0.930 . S
C1760 C1759 1.376 . S
C1760 C1761 1.388 . S
C1761 H1748 0.930 . S
C1761 C1760 1.388 . S
C1761 C1762 1.390 . S
C1762 C1761 1.390 . S
C1762 C1763 1.394 . S
C1762 C1768 1.465 . S
C1763 C1758 1.399 . S
C1763 C1762 1.394 . S
C1763 C1764 1.516 . S
C1764 C1763 1.516 . S
C1764 C1765 1.502 . S
C1764 C1766 1.561 . S
C1764 C1767 1.526 . S
C1765 H1749 0.959 . S
C1765 H1750 0.959 . S
C1765 H1751 0.961 . S
C1765 C1764 1.502 . S
C1766 H1752 0.960 . S
C1766 H1753 0.961 . S
C1766 H1754 0.959 . S
C1766 C1764 1.561 . S
C1767 C1764 1.526 . S
C1767 C1768 1.396 . S
C1767 C1772 1.390 . S
C1768 C1762 1.465 . S
C1768 C1767 1.396 . S
C1768 C1769 1.399 . S
C1769 H1755 0.929 . S
C1769 C1768 1.399 . S
C1769 C1770 1.385 . S
C1770 H1756 0.931 . S
C1770 C1769 1.385 . S
C1770 C1771 1.389 . S
C1771 C1770 1.389 . S
C1771 C1772 1.387 . S
C1772 H1757 0.930 . S
C1772 C1767 1.390 . S
C1772 C1771 1.387 . S
H1773 C1785 0.930 . S
H1774 C1787 0.930 . S
H1775 C1788 0.930 . S
H1776 C1792 0.959 . S
H1777 C1792 0.959 . S
H1778 C1792 0.961 . S
H1779 C1793 0.960 . S
H1780 C1793 0.961 . S
H1781 C1793 0.959 . S
H1782 C1796 0.929 . S
H1783 C1797 0.931 . S
H1784 C1799 0.930 . S
C1785 H1773 0.930 . S
C1785 C1786 1.399 . S
C1785 C1790 1.399 . S
C1786 C1785 1.399 . S
C1786 C1787 1.376 . S
C1787 H1774 0.930 . S
C1787 C1786 1.376 . S
C1787 C1788 1.388 . S
C1788 H1775 0.930 . S
C1788 C1787 1.388 . S
C1788 C1789 1.390 . S
C1789 C1788 1.390 . S
C1789 C1790 1.394 . S
C1789 C1795 1.465 . S
C1790 C1785 1.399 . S
C1790 C1789 1.394 . S
C1790 C1791 1.516 . S
C1791 C1790 1.516 . S
C1791 C1792 1.502 . S
C1791 C1793 1.561 . S
C1791 C1794 1.526 . S
C1792 H1776 0.959 . S
C1792 H1777 0.959 . S
C1792 H1778 0.961 . S
C1792 C1791 1.502 . S
C1793 H1779 0.960 . S
C1793 H1780 0.961 . S
C1793 H1781 0.959 . S
C1793 C1791 1.561 . S
C1794 C1791 1.526 . S
C1794 C1795 1.396 . S
C1794 C1799 1.390 . S
C1795 C1789 1.465 . S
C1795 C1794 1.396 . S
C1795 C1796 1.399 . S
C1796 H1782 0.929 . S
C1796 C1795 1.399 . S
C1796 C1797 1.385 . S
C1797 H1783 0.931 . S
C1797 C1796 1.385 . S
C1797 C1798 1.389 . S
C1798 C1797 1.389 . S
C1798 C1799 1.387 . S
C1799 H1784 0.930 . S
C1799 C1794 1.390 . S
C1799 C1798 1.387 . S
H1800 C1812 0.930 . S
H1801 C1814 0.930 . S
H1802 C1815 0.930 . S
H1803 C1819 0.959 . S
H1804 C1819 0.959 . S
H1805 C1819 0.961 . S
H1806 C1820 0.960 . S
H1807 C1820 0.961 . S
H1808 C1820 0.959 . S
H1809 C1823 0.929 . S
H1810 C1824 0.931 . S
H1811 C1826 0.930 . S
C1812 H1800 0.930 . S
C1812 C1813 1.399 . S
C1812 C1817 1.399 . S
C1813 C1812 1.399 . S
C1813 C1814 1.376 . S
C1814 H1801 0.930 . S
C1814 C1813 1.376 . S
C1814 C1815 1.388 . S
C1815 H1802 0.930 . S
C1815 C1814 1.388 . S
C1815 C1816 1.390 . S
C1816 C1815 1.390 . S
C1816 C1817 1.394 . S
C1816 C1822 1.465 . S
C1817 C1812 1.399 . S
C1817 C1816 1.394 . S
C1817 C1818 1.516 . S
C1818 C1817 1.516 . S
C1818 C1819 1.502 . S
C1818 C1820 1.561 . S
C1818 C1821 1.526 . S
C1819 H1803 0.959 . S
C1819 H1804 0.959 . S
C1819 H1805 0.961 . S
C1819 C1818 1.502 . S
C1820 H1806 0.960 . S
C1820 H1807 0.961 . S
C1820 H1808 0.959 . S
C1820 C1818 1.561 . S
C1821 C1818 1.526 . S
C1821 C1822 1.396 . S
C1821 C1826 1.390 . S
C1822 C1816 1.465 . S
C1822 C1821 1.396 . S
C1822 C1823 1.399 . S
C1823 H1809 0.929 . S
C1823 C1822 1.399 . S
C1823 C1824 1.385 . S
C1824 H1810 0.931 . S
C1824 C1823 1.385 . S
C1824 C1825 1.389 . S
C1825 C1824 1.389 . S
C1825 C1826 1.387 . S
C1826 H1811 0.930 . S
C1826 C1821 1.390 . S
C1826 C1825 1.387 . S
C625 C9 1.065 . S
C637 C5 0.972 . S
C652 C43 0.957 . S
C664 C39 1.028 . S
C679 C73 0.971 . S
C691 C77 1.055 . S
C706 C111 0.923 . S
C718 C107 1.056 . S
C733 C145 0.997 . S
C745 C141 1.049 . S
C760 C175 1.066 . S
C772 C179 0.969 . S
C787 C209 1.057 . S
C799 C213 0.985 . S
C814 C243 1.063 . S
C826 C247 0.918 . S
C841 C281 1.052 . S
C853 C277 1.005 . S
C868 C315 0.932 . S
C880 C311 1.047 . S
C895 C349 1.001 . S
C907 C345 0.998 . S
C922 C379 1.015 . S
C934 C383 0.975 . S
C949 C413 1.012 . S
C961 C417 0.979 . S
C976 C447 0.992 . S
C988 C451 1.061 . S
C1003 C481 0.971 . S
C1015 C485 1.055 . S
C1030 C519 0.917 . S
C1042 C515 1.062 . S
C1057 C553 0.983 . S
C1069 C549 1.010 . S
C1084 C583 0.996 . S
C1096 C587 1.003 . S
C1111 C598 1.797 . S
C1123 C20 1.790 . S
C1138 C54 1.785 . S
C1150 C530 1.819 . S
C1165 C564 1.817 . S
C1177 C88 1.785 . S
C1192 C258 1.790 . S
C1204 C122 1.823 . S
C1219 C156 1.821 . S
C1231 C292 1.807 . S
C1246 C190 1.784 . S
C1258 C224 1.809 . S
C1273 C326 1.802 . S
C1285 C462 1.787 . S
C1300 C496 1.824 . S
C1312 C360 1.796 . S
C1327 C394 1.823 . S
C1339 C428 1.789 . S
C1354 C33 1.274 . S
C1366 C135 1.236 . S
C1381 C67 1.260 . S
C1393 C169 1.270 . S
C1408 C203 1.279 . S
C1420 C101 1.240 . S
C1435 C172 1.738 . S
C1447 C36 1.719 . S
C1462 C104 1.689 . S
C1474 C70 1.729 . S
C1489 C138 1.696 . S
C1501 C2 1.744 . S
C1516 C339 1.241 . S
C1528 C237 1.261 . S
C1543 C373 1.240 . S
C1555 C271 1.264 . S
C1570 C305 1.269 . S
C1582 C407 1.261 . S
C1597 C376 1.745 . S
C1609 C240 1.700 . S
C1624 C274 1.689 . S
C1636 C308 1.736 . S
C1651 C206 1.736 . S
C1663 C342 1.722 . S
C1678 C543 1.255 . S
C1690 C441 1.246 . S
C1705 C577 1.263 . S
C1717 C475 1.241 . S
C1732 C611 1.279 . S
C1744 C509 1.245 . S
C1759 C444 1.743 . S
C1771 C580 1.693 . S
C1786 C478 1.689 . S
C1798 C512 1.735 . S
C1813 C546 1.738 . S
C1825 C410 1.720 . S
