# Generated by pormake.
# Topology wft, (7)-cn, num edge types: 1
# Building blocks:
#     Node 0, Type 0, BuildingBlock: NUHQUE_clean_sbu_2, # of connection points: 7
#     Node 1, Type 0, BuildingBlock: NUHQUE_clean_sbu_2, # of connection points: 7
#     Node 2, Type 0, BuildingBlock: NUHQUE_clean_sbu_2, # of connection points: 7
#     Node 3, Type 0, BuildingBlock: NUHQUE_clean_sbu_2, # of connection points: 7
#     Node 4, Type 0, BuildingBlock: NUHQUE_clean_sbu_2, # of connection points: 7
#     Node 5, Type 0, BuildingBlock: NUHQUE_clean_sbu_2, # of connection points: 7
#     Node 6, Type 0, BuildingBlock: NUHQUE_clean_sbu_2, # of connection points: 7
#     Node 7, Type 0, BuildingBlock: NUHQUE_clean_sbu_2, # of connection points: 7
#     Edge 8, Type (0, 0), BuildingBlock: KIFKEQ_clean_linker_1, # of connection points: 2
#     Edge 9, Type (0, 0), BuildingBlock: KIFKEQ_clean_linker_1, # of connection points: 2
#     Edge 10, Type (0, 0), BuildingBlock: KIFKEQ_clean_linker_1, # of connection points: 2
#     Edge 11, Type (0, 0), BuildingBlock: KIFKEQ_clean_linker_1, # of connection points: 2
#     Edge 12, Type (0, 0), BuildingBlock: KIFKEQ_clean_linker_1, # of connection points: 2
#     Edge 13, Type (0, 0), BuildingBlock: KIFKEQ_clean_linker_1, # of connection points: 2
#     Edge 14, Type (0, 0), BuildingBlock: KIFKEQ_clean_linker_1, # of connection points: 2
#     Edge 15, Type (0, 0), BuildingBlock: KIFKEQ_clean_linker_1, # of connection points: 2
#     Edge 16, Type (0, 0), BuildingBlock: KIFKEQ_clean_linker_1, # of connection points: 2
#     Edge 17, Type (0, 0), BuildingBlock: KIFKEQ_clean_linker_1, # of connection points: 2
#     Edge 18, Type (0, 0), BuildingBlock: KIFKEQ_clean_linker_1, # of connection points: 2
#     Edge 19, Type (0, 0), BuildingBlock: KIFKEQ_clean_linker_1, # of connection points: 2
#     Edge 20, Type (0, 0), BuildingBlock: KIFKEQ_clean_linker_1, # of connection points: 2
#     Edge 21, Type (0, 0), BuildingBlock: KIFKEQ_clean_linker_1, # of connection points: 2
#     Edge 22, Type (0, 0), BuildingBlock: KIFKEQ_clean_linker_1, # of connection points: 2
#     Edge 23, Type (0, 0), BuildingBlock: KIFKEQ_clean_linker_1, # of connection points: 2
#     Edge 24, Type (0, 0), BuildingBlock: KIFKEQ_clean_linker_1, # of connection points: 2
#     Edge 25, Type (0, 0), BuildingBlock: KIFKEQ_clean_linker_1, # of connection points: 2
#     Edge 26, Type (0, 0), BuildingBlock: KIFKEQ_clean_linker_1, # of connection points: 2
#     Edge 27, Type (0, 0), BuildingBlock: KIFKEQ_clean_linker_1, # of connection points: 2
#     Edge 28, Type (0, 0), BuildingBlock: KIFKEQ_clean_linker_1, # of connection points: 2
#     Edge 29, Type (0, 0), BuildingBlock: KIFKEQ_clean_linker_1, # of connection points: 2
#     Edge 30, Type (0, 0), BuildingBlock: KIFKEQ_clean_linker_1, # of connection points: 2
#     Edge 31, Type (0, 0), BuildingBlock: KIFKEQ_clean_linker_1, # of connection points: 2
#     Edge 32, Type (0, 0), BuildingBlock: KIFKEQ_clean_linker_1, # of connection points: 2
#     Edge 33, Type (0, 0), BuildingBlock: KIFKEQ_clean_linker_1, # of connection points: 2
#     Edge 34, Type (0, 0), BuildingBlock: KIFKEQ_clean_linker_1, # of connection points: 2
#     Edge 35, Type (0, 0), BuildingBlock: KIFKEQ_clean_linker_1, # of connection points: 2
# Relax obj value: 0.100
# Max RMSD: 0.180
# Mean RMSD: 0.180
data_MOF--net-wft--node1-NUHQUE_clean_sbu_2--edge1-KIFKEQ_clean_linker_1
_symmetry_space_group_name_H-M    P1
_symmetry_Int_Tables_number       1
_symmetry_cell_setting            triclinic
loop_
_symmetry_equiv_pos_as_xyz
'x, y, z'
_cell_length_a     33.648832
_cell_length_b     33.58968
_cell_length_c     35.30849
_cell_angle_alpha  89.99626
_cell_angle_beta   90.115495
_cell_angle_gamma 90.024208
loop_
_atom_site_label
_atom_site_type_symbol
_atom_site_fract_x
_atom_site_fract_y
_atom_site_fract_z
_atom_type_partial_charge
O0 O 0.32598 0.32829 0.4421 0.0
Tb1 Tb 0.34728 0.26764 0.43604 0.0
Eu2 Eu 0.33584 0.17424 0.38812 0.0
C3 C 0.28906 0.33615 0.45173 0.0
O4 O 0.26318 0.30694 0.45352 0.0
C5 C 0.3046 0.19739 0.46743 0.0
O6 O 0.36941 0.11664 0.38149 0.0
C7 C 0.26827 0.17539 0.3523 0.0
C8 C 0.40845 0.11702 0.38408 0.0
O9 O 0.42683 0.1508 0.39069 0.0
C10 C 0.39345 0.24876 0.36025 0.0
C11 C 0.24547 0.18147 0.31693 0.0
C12 C 0.20461 0.18989 0.32005 0.0
C13 C 0.18101 0.19447 0.28758 0.0
C14 C 0.19836 0.18995 0.2519 0.0
C15 C 0.23876 0.18035 0.24799 0.0
C16 C 0.26262 0.17681 0.28073 0.0
O17 O 0.29686 0.22997 0.4484 0.0
O18 O 0.32737 0.17085 0.45123 0.0
O19 O 0.3742 0.28337 0.49017 0.0
O20 O 0.39961 0.23623 0.45825 0.0
C21 C 0.40227 0.25689 0.48939 0.0
O22 O 0.38438 0.21055 0.36094 0.0
O23 O 0.37508 0.2759 0.38089 0.0
O24 O 0.29082 0.14352 0.35491 0.0
O25 O 0.28307 0.20685 0.36957 0.0
H26 H 0.19114 0.1929 0.34779 0.0
H27 H 0.17993 0.1933 0.22684 0.0
H28 H 0.29383 0.16937 0.27812 0.0
O29 O 0.32231 0.66183 0.65339 0.0
Tb30 Tb 0.26245 0.63824 0.65857 0.0
Eu31 Eu 0.1672 0.64703 0.70499 0.0
C32 C 0.32873 0.69791 0.64023 0.0
O33 O 0.2985 0.72204 0.63518 0.0
C34 C 0.19114 0.67813 0.62583 0.0
O35 O 0.11076 0.61198 0.71157 0.0
C36 C 0.17031 0.71372 0.74203 0.0
C37 C 0.1064 0.58185 0.68816 0.0
O38 O 0.13429 0.57538 0.6629 0.0
C39 C 0.24165 0.58938 0.73156 0.0
C40 C 0.17675 0.73696 0.77699 0.0
C41 C 0.18474 0.77795 0.77325 0.0
C42 C 0.19001 0.80191 0.80537 0.0
C43 C 0.18658 0.7848 0.8413 0.0
C44 C 0.17749 0.74428 0.84577 0.0
C45 C 0.17324 0.72005 0.81341 0.0
O46 O 0.22253 0.68678 0.64625 0.0
O47 O 0.16333 0.65704 0.64209 0.0
O48 O 0.2797 0.61056 0.60522 0.0
O49 O 0.23235 0.58503 0.63666 0.0
C50 C 0.25354 0.58215 0.60598 0.0
O51 O 0.20307 0.59583 0.72853 0.0
O52 O 0.2686 0.61172 0.71457 0.0
O53 O 0.13783 0.69205 0.73921 0.0
O54 O 0.20143 0.69813 0.725 0.0
H55 H 0.18696 0.7912 0.74532 0.0
H56 H 0.1904 0.80348 0.86612 0.0
H57 H 0.16621 0.68873 0.81649 0.0
O58 O 0.65972 0.65377 0.43788 0.0
Tb59 Tb 0.63297 0.71236 0.43092 0.0
Eu60 Eu 0.64296 0.80699 0.39088 0.0
C61 C 0.69559 0.64868 0.45206 0.0
O62 O 0.71862 0.67967 0.45754 0.0
C63 C 0.67201 0.78171 0.47124 0.0
O64 O 0.61167 0.86575 0.38364 0.0
C65 C 0.71043 0.80186 0.35539 0.0
C66 C 0.57297 0.86659 0.38892 0.0
O67 O 0.55458 0.83374 0.39889 0.0
C68 C 0.58695 0.73573 0.3573 0.0
C69 C 0.73129 0.79434 0.31929 0.0
C70 C 0.77273 0.78865 0.32046 0.0
C71 C 0.79411 0.78023 0.2873 0.0
C72 C 0.77359 0.77769 0.2528 0.0
C73 C 0.73242 0.7842 0.25082 0.0
C74 C 0.71119 0.79274 0.28423 0.0
O75 O 0.68106 0.74908 0.45272 0.0
O76 O 0.64986 0.80845 0.45433 0.0
O77 O 0.59447 0.68513 0.47313 0.0
O78 O 0.58466 0.74561 0.45822 0.0
C79 C 0.57272 0.71632 0.47953 0.0
O80 O 0.59261 0.77397 0.36318 0.0
O81 O 0.60924 0.70824 0.3735 0.0
O82 O 0.69035 0.83528 0.35871 0.0
O83 O 0.69339 0.77132 0.37222 0.0
H84 H 0.78831 0.79024 0.34734 0.0
H85 H 0.79 0.77176 0.22699 0.0
H86 H 0.67938 0.79765 0.28301 0.0
O87 O 0.65171 0.32555 0.66111 0.0
Tb88 Tb 0.7117 0.349 0.66703 0.0
Eu89 Eu 0.80681 0.33558 0.70581 0.0
C90 C 0.6441 0.2886 0.65096 0.0
O91 O 0.67317 0.2626 0.64952 0.0
C92 C 0.77766 0.30515 0.62684 0.0
O93 O 0.86445 0.36881 0.71157 0.0
C94 C 0.80342 0.26872 0.74265 0.0
C95 C 0.86925 0.39871 0.688 0.0
O96 O 0.8412 0.40572 0.66291 0.0
C97 C 0.73915 0.39597 0.73872 0.0
C98 C 0.80231 0.24588 0.7784 0.0
C99 C 0.79983 0.20406 0.77603 0.0
C100 C 0.80106 0.18033 0.80883 0.0
C101 C 0.80426 0.19924 0.8441 0.0
C102 C 0.80734 0.24083 0.84722 0.0
C103 C 0.8059 0.2643 0.81413 0.0
O104 O 0.74493 0.29828 0.64589 0.0
O105 O 0.80555 0.3267 0.64268 0.0
O106 O 0.68493 0.38747 0.62451 0.0
O107 O 0.74609 0.39524 0.63758 0.0
C108 C 0.71668 0.40778 0.61669 0.0
O109 O 0.77696 0.38862 0.73226 0.0
O110 O 0.71048 0.37398 0.72403 0.0
O111 O 0.83701 0.28635 0.73353 0.0
O112 O 0.77143 0.28847 0.73197 0.0
H113 H 0.79787 0.18997 0.74846 0.0
H114 H 0.80373 0.18141 0.86969 0.0
H115 H 0.80847 0.29639 0.81606 0.0
O116 O 0.82906 0.15854 0.15032 0.0
Tb117 Tb 0.84849 0.21981 0.1563 0.0
Eu118 Eu 0.8325 0.3141 0.2062 0.0
C119 C 0.79226 0.14945 0.14115 0.0
O120 O 0.76524 0.17764 0.14032 0.0
C121 C 0.8026 0.28909 0.12693 0.0
O122 O 0.86619 0.37161 0.21062 0.0
C123 C 0.76673 0.31063 0.24438 0.0
C124 C 0.89581 0.37581 0.18673 0.0
O125 O 0.90232 0.34733 0.16199 0.0
C126 C 0.8951 0.24197 0.23112 0.0
C127 C 0.74488 0.30155 0.27954 0.0
C128 C 0.70337 0.29714 0.27704 0.0
C129 C 0.68092 0.28714 0.30908 0.0
C130 C 0.70034 0.28173 0.3438 0.0
C131 C 0.74161 0.28691 0.34718 0.0
C132 C 0.76399 0.29706 0.31485 0.0
O133 O 0.79707 0.2568 0.14703 0.0
O134 O 0.82108 0.31856 0.14352 0.0
O135 O 0.87429 0.20561 0.10138 0.0
O136 O 0.89969 0.25254 0.13367 0.0
C137 C 0.90192 0.23257 0.10212 0.0
O138 O 0.88457 0.27986 0.2302 0.0
O139 O 0.87701 0.21374 0.21147 0.0
O140 O 0.78951 0.3425 0.24351 0.0
O141 O 0.78063 0.28049 0.22457 0.0
H142 H 0.68854 0.30096 0.24998 0.0
H143 H 0.68291 0.2747 0.36875 0.0
H144 H 0.79588 0.30099 0.31707 0.0
O145 O 0.15433 0.15612 0.94148 0.0
Tb146 Tb 0.21471 0.13401 0.93664 0.0
Eu147 Eu 0.30959 0.14924 0.88784 0.0
C148 C 0.14685 0.19357 0.9497 0.0
O149 O 0.17631 0.21921 0.95084 0.0
C150 C 0.28495 0.17715 0.96742 0.0
O151 O 0.36611 0.11523 0.87802 0.0
C152 C 0.30466 0.21624 0.85134 0.0
C153 C 0.36714 0.07843 0.89072 0.0
O154 O 0.33582 0.06444 0.90849 0.0
C155 C 0.23689 0.08785 0.86152 0.0
C156 C 0.29885 0.23741 0.81513 0.0
C157 C 0.29679 0.27926 0.81595 0.0
C158 C 0.29185 0.30128 0.7824 0.0
C159 C 0.28799 0.28064 0.74804 0.0
C160 C 0.29016 0.23894 0.7466 0.0
C161 C 0.29603 0.21722 0.78026 0.0
O162 O 0.25318 0.18417 0.94703 0.0
O163 O 0.31385 0.15794 0.95085 0.0
O164 O 0.19889 0.10765 0.99102 0.0
O165 O 0.24603 0.08195 0.95947 0.0
C166 C 0.22542 0.07959 0.99057 0.0
O167 O 0.27479 0.09809 0.86268 0.0
O168 O 0.20878 0.10582 0.88131 0.0
O169 O 0.33826 0.19686 0.85628 0.0
O170 O 0.27365 0.19848 0.86662 0.0
H171 H 0.29981 0.29472 0.84277 0.0
H172 H 0.28336 0.2971 0.72198 0.0
H173 H 0.29796 0.18503 0.77937 0.0
O174 O 0.15491 0.82881 0.15913 0.0
Tb175 Tb 0.13095 0.76885 0.16388 0.0
Eu176 Eu 0.14547 0.67226 0.20523 0.0
C177 C 0.19174 0.8361 0.1487 0.0
O178 O 0.21709 0.80655 0.14597 0.0
C179 C 0.17471 0.70165 0.12668 0.0
O180 O 0.11189 0.61474 0.21002 0.0
C181 C 0.21223 0.6751 0.24203 0.0
C182 C 0.08204 0.61055 0.18629 0.0
O183 O 0.07535 0.63902 0.16155 0.0
C184 C 0.08351 0.74117 0.23576 0.0
C185 C 0.23529 0.67827 0.27749 0.0
C186 C 0.27662 0.68414 0.27464 0.0
C187 C 0.30027 0.68677 0.30726 0.0
C188 C 0.28245 0.68275 0.34281 0.0
C189 C 0.24144 0.67574 0.34636 0.0
C190 C 0.21765 0.67416 0.31346 0.0
O191 O 0.18167 0.73345 0.14719 0.0
O192 O 0.15481 0.67253 0.14227 0.0
O193 O 0.09595 0.79448 0.11807 0.0
O194 O 0.08523 0.7344 0.1338 0.0
C195 C 0.07496 0.76296 0.11082 0.0
O196 O 0.09277 0.70331 0.23125 0.0
O197 O 0.10369 0.77044 0.21982 0.0
O198 O 0.19282 0.64175 0.23547 0.0
O199 O 0.19427 0.70717 0.22894 0.0
H200 H 0.29034 0.68706 0.24701 0.0
H201 H 0.30086 0.68488 0.36799 0.0
H202 H 0.18596 0.6689 0.31575 0.0
O203 O 0.82339 0.8194 0.93896 0.0
Tb204 Tb 0.76406 0.84467 0.93461 0.0
Eu205 Eu 0.67105 0.83783 0.89153 0.0
C206 C 0.82906 0.78434 0.95468 0.0
O207 O 0.79814 0.76245 0.96348 0.0
C208 C 0.69322 0.80606 0.97126 0.0
O209 O 0.61392 0.87083 0.8816 0.0
C210 C 0.67708 0.77075 0.85523 0.0
C211 C 0.61224 0.9075 0.89457 0.0
O212 O 0.6432 0.92179 0.9128 0.0
C213 C 0.74379 0.89427 0.86215 0.0
C214 C 0.68423 0.74929 0.81935 0.0
C215 C 0.68947 0.70772 0.82098 0.0
C216 C 0.69775 0.68579 0.78807 0.0
C217 C 0.70052 0.70585 0.75339 0.0
C218 C 0.69449 0.74713 0.75096 0.0
C219 C 0.68611 0.76895 0.78411 0.0
O220 O 0.72541 0.79645 0.95245 0.0
O221 O 0.66756 0.82969 0.95474 0.0
O222 O 0.78558 0.87493 0.98524 0.0
O223 O 0.73452 0.89781 0.95723 0.0
C224 C 0.75859 0.90253 0.98581 0.0
O225 O 0.70534 0.88916 0.86689 0.0
O226 O 0.77038 0.87083 0.87832 0.0
O227 O 0.64335 0.79016 0.85902 0.0
O228 O 0.70756 0.78854 0.8715 0.0
H229 H 0.68775 0.69249 0.84801 0.0
H230 H 0.70637 0.689 0.72779 0.0
H231 H 0.6816 0.80085 0.78256 0.0
H232 H 0.30409 0.21383 0.21347 0.0
H233 H 0.20764 0.13142 0.19462 0.0
H234 H 0.31983 0.21192 0.1454 0.0
H235 H 0.22295 0.12984 0.12721 0.0
H236 H 0.21948 0.19067 1.01105 0.0
H237 H 0.21421 0.18758 0.07965 0.0
H238 H 0.33985 0.16347 0.08828 0.0
H239 H 0.34521 0.1659 1.01892 0.0
C240 C 0.28699 0.19459 0.19499 0.0
C241 C 0.2543 0.17324 0.20918 0.0
C242 C 0.29585 0.1936 0.15611 0.0
C243 C 0.27202 0.17139 0.13099 0.0
C244 C 0.24126 0.14788 0.14578 0.0
C245 C 0.23261 0.14868 0.18437 0.0
C246 C 0.24612 0.18492 1.02738 0.0
C247 C 0.28273 0.17831 1.0094 0.0
C248 C 0.24303 0.18291 0.06675 0.0
C249 C 0.27656 0.1749 0.08927 0.0
C250 C 0.31354 0.16966 0.07156 0.0
C251 C 0.31653 0.17099 1.03193 0.0
H252 H 0.16926 0.64028 0.07581 0.0
H253 H 0.18653 0.76754 0.08288 0.0
H254 H 0.16778 0.64489 1.00644 0.0
H255 H 0.18481 0.77199 1.01412 0.0
H256 H 0.12827 0.77437 0.89901 0.0
H257 H 0.12834 0.76019 0.96668 0.0
H258 H 0.21393 0.66633 0.94919 0.0
H259 H 0.21406 0.68089 0.88081 0.0
C260 C 0.17315 0.66912 0.06259 0.0
C261 C 0.17801 0.70355 0.08487 0.0
C262 C 0.17236 0.67169 1.02295 0.0
C263 C 0.17572 0.70882 1.00497 0.0
C264 C 0.18162 0.74301 1.02725 0.0
C265 C 0.18297 0.7404 0.06669 0.0
C266 C 0.14662 0.75025 0.9095 0.0
C267 C 0.17154 0.72905 0.8848 0.0
C268 C 0.14683 0.74231 0.94823 0.0
C269 C 0.1718 0.71279 0.96325 0.0
C270 C 0.19453 0.68938 0.9383 0.0
C271 C 0.19447 0.69754 0.89926 0.0
H272 H 0.63988 0.83591 1.02283 0.0
H273 H 0.7411 0.75764 1.01353 0.0
H274 H 0.64033 0.82714 0.09158 0.0
H275 H 0.74255 0.75 0.08178 0.0
H276 H 0.72845 0.72139 0.20269 0.0
H277 H 0.71112 0.7227 0.13557 0.0
H278 H 0.67943 0.84696 0.1455 0.0
H279 H 0.69543 0.84482 0.21315 0.0
C280 C 0.66204 0.81657 1.03536 0.0
C281 C 0.69066 0.79769 1.01256 0.0
C282 C 0.66249 0.81179 0.07486 0.0
C283 C 0.69151 0.78791 0.0925 0.0
C284 C 0.71931 0.76814 0.06942 0.0
C285 C 0.71878 0.77286 1.03009 0.0
C286 C 0.71661 0.74859 0.19064 0.0
C287 C 0.71316 0.78296 0.21301 0.0
C288 C 0.70716 0.74956 0.15208 0.0
C289 C 0.69464 0.78517 0.13472 0.0
C290 C 0.68873 0.81893 0.15777 0.0
C291 C 0.69781 0.81778 0.19658 0.0
H292 H 0.76521 0.30189 0.88035 0.0
H293 H 0.85992 0.21805 0.90137 0.0
H294 H 0.7643 0.31895 0.9482 0.0
H295 H 0.85839 0.23439 0.96862 0.0
H296 H 0.7923 0.22323 0.08271 0.0
H297 H 0.79662 0.2185 1.0141 0.0
H298 H 0.81381 0.34551 1.00655 0.0
H299 H 0.81047 0.35037 0.07596 0.0
C300 C 0.78647 0.28796 0.89921 0.0
C301 C 0.8122 0.25821 0.88571 0.0
C302 C 0.78583 0.29756 0.93797 0.0
C303 C 0.81075 0.27734 0.96359 0.0
C304 C 0.83841 0.24987 0.94953 0.0
C305 C 0.8393 0.24062 0.91106 0.0
C306 C 0.7967 0.25028 0.06664 0.0
C307 C 0.8013 0.28714 0.08494 0.0
C308 C 0.79938 0.24751 1.02729 0.0
C309 C 0.80587 0.28161 1.00513 0.0
C310 C 0.80882 0.3188 1.02307 0.0
C311 C 0.80695 0.3215 0.06271 0.0
H312 H 0.73631 0.22404 0.39531 0.0
H313 H 0.78582 0.34201 0.38566 0.0
H314 H 0.7518 0.22334 0.46284 0.0
H315 H 0.80059 0.34197 0.45359 0.0
H316 H 0.83659 0.32434 0.5765 0.0
H317 H 0.83628 0.31508 0.50789 0.0
H318 H 0.72196 0.25707 0.51557 0.0
H319 H 0.72262 0.26562 0.5839 0.0
C320 C 0.75132 0.24951 0.40761 0.0
C321 C 0.75972 0.28315 0.38538 0.0
C322 C 0.75984 0.24931 0.44635 0.0
C323 C 0.77668 0.28291 0.4639 0.0
C324 C 0.78776 0.31549 0.44105 0.0
C325 C 0.77942 0.31555 0.40211 0.0
C326 C 0.81166 0.30907 0.56359 0.0
C327 C 0.77957 0.29579 0.58578 0.0
C328 C 0.81139 0.30401 0.52419 0.0
C329 C 0.77911 0.28538 0.50606 0.0
C330 C 0.74765 0.271 0.52849 0.0
C331 C 0.74789 0.27612 0.56779 0.0
H332 H 0.22674 0.23955 0.69925 0.0
H333 H 0.34717 0.1971 0.70884 0.0
H334 H 0.22606 0.22229 0.63211 0.0
H335 H 0.34732 0.1809 0.64118 0.0
H336 H 0.32999 0.14136 0.51874 0.0
H337 H 0.32253 0.14274 0.58761 0.0
H338 H 0.25677 0.25281 0.5786 0.0
H339 H 0.26337 0.25088 0.51021 0.0
C340 C 0.25275 0.22558 0.68702 0.0
C341 C 0.28695 0.2195 0.70908 0.0
C342 C 0.2526 0.21614 0.64849 0.0
C343 C 0.2869 0.20094 0.63095 0.0
C344 C 0.32029 0.19234 0.6537 0.0
C345 C 0.32026 0.2015 0.69247 0.0
C346 C 0.31349 0.16556 0.53148 0.0
C347 C 0.29736 0.1961 0.50889 0.0
C348 C 0.30943 0.16647 0.571 0.0
C349 C 0.28899 0.19783 0.58881 0.0
C350 C 0.2721 0.22777 0.56599 0.0
C351 C 0.27616 0.22687 0.52663 0.0
H352 H 0.177 0.71255 0.37912 0.0
H353 H 0.26925 0.62624 0.40098 0.0
H354 H 0.15961 0.71224 0.44683 0.0
H355 H 0.25232 0.62632 0.46805 0.0
H356 H 0.25694 0.6903 0.58238 0.0
H357 H 0.26266 0.68628 0.51401 0.0
H358 H 0.13673 0.66401 0.50481 0.0
H359 H 0.13089 0.66757 0.57416 0.0
C360 C 0.1928 0.69283 0.39817 0.0
C361 C 0.22489 0.66993 0.38496 0.0
C362 C 0.18297 0.69274 0.43684 0.0
C363 C 0.20521 0.66986 0.46266 0.0
C364 C 0.23524 0.64482 0.44885 0.0
C365 C 0.24485 0.64474 0.41048 0.0
C366 C 0.23029 0.68506 0.56603 0.0
C367 C 0.19347 0.67929 0.58388 0.0
C368 C 0.23366 0.68239 0.52677 0.0
C369 C 0.2002 0.67446 0.50417 0.0
C370 C 0.16298 0.67012 0.52165 0.0
C371 C 0.15971 0.67213 0.56124 0.0
H372 H 0.63512 0.78596 0.71313 0.0
H373 H 0.75701 0.74827 0.70263 0.0
H374 H 0.63312 0.80094 0.64525 0.0
H375 H 0.75578 0.76434 0.63524 0.0
H376 H 0.71744 0.73174 0.51435 0.0
H377 H 0.72577 0.7318 0.58257 0.0
H378 H 0.65492 0.83872 0.59051 0.0
H379 H 0.6457 0.83801 0.52179 0.0
C380 C 0.6619 0.78233 0.6965 0.0
C381 C 0.69617 0.76591 0.71297 0.0
C382 C 0.66081 0.79081 0.65758 0.0
C383 C 0.69409 0.78315 0.63449 0.0
C384 C 0.72929 0.76967 0.65185 0.0
C385 C 0.73021 0.76089 0.69053 0.0
C386 C 0.70389 0.75551 0.53046 0.0
C387 C 0.68074 0.78472 0.51244 0.0
C388 C 0.70896 0.75578 0.56976 0.0
C389 C 0.6911 0.78535 0.59228 0.0
C390 C 0.6688 0.81528 0.57417 0.0
C391 C 0.66376 0.81502 0.5347 0.0
H392 H 0.48519 0.1097 0.36143 0.0
H393 H 0.3844 0.04124 0.39964 0.0
H394 H 0.52506 0.0494 0.35836 0.0
H395 H 0.42474 0.98111 0.39913 0.0
H396 H 0.49548 0.87299 0.3688 0.0
H397 H 0.45583 0.93315 0.36332 0.0
H398 H 0.5583 0.00356 0.39539 0.0
H399 H 0.5984 0.9432 0.39827 0.0
C400 C 0.47167 0.08165 0.3694 0.0
C401 C 0.43176 0.08004 0.3808 0.0
C402 C 0.49462 0.04705 0.36797 0.0
C403 C 0.47844 0.01012 0.37876 0.0
C404 C 0.43822 0.00869 0.38987 0.0
C405 C 0.41503 0.0432 0.39043 0.0
C406 C 0.50951 0.90144 0.37437 0.0
C407 C 0.54992 0.90354 0.38408 0.0
C408 C 0.4867 0.936 0.37155 0.0
C409 C 0.50352 0.97349 0.37931 0.0
C410 C 0.54428 0.97545 0.38856 0.0
C411 C 0.56733 0.94085 0.39048 0.0
H412 H 0.89333 0.45139 0.63451 0.0
H413 H 0.92452 0.40559 0.74502 0.0
H414 H 0.95042 0.49582 0.63649 0.0
H415 H 0.98196 0.45072 0.747 0.0
H416 H 0.05171 0.5741 0.74537 0.0
H417 H -0.00546 0.52863 0.74722 0.0
H418 H 0.02567 0.4843 0.63645 0.0
H419 H 0.08251 0.52905 0.6346 0.0
C420 C 0.9124 0.45079 0.65926 0.0
C421 C 0.90456 0.42484 0.68955 0.0
C422 C 0.94513 0.4762 0.66031 0.0
C423 C 0.97056 0.47662 0.69185 0.0
C424 C 0.96261 0.45107 0.72245 0.0
C425 C 0.93 0.4251 0.72117 0.0
C426 C 0.04622 0.55464 0.72146 0.0
C427 C 0.07146 0.55524 0.68978 0.0
C428 C 0.01377 0.52849 0.72266 0.0
C429 C 0.00576 0.50309 0.69194 0.0
C430 C 0.03103 0.50378 0.66038 0.0
C431 C 0.06362 0.52937 0.65941 0.0
H432 H 0.9045 0.43086 0.24361 0.0
H433 H 0.94756 0.39939 0.13234 0.0
H434 H 0.9506 0.48753 0.24508 0.0
H435 H -0.00699 0.45576 0.13382 0.0
H436 H 0.02912 0.58754 0.1325 0.0
H437 H 0.98362 0.53123 0.1342 0.0
H438 H 0.02819 0.49844 0.24459 0.0
H439 H 0.07434 0.55506 0.24291 0.0
C440 C 0.92361 0.43615 0.21947 0.0
C441 C 0.92234 0.41082 0.18781 0.0
C442 C 0.95013 0.4683 0.22046 0.0
C443 C 0.97526 0.47592 0.18954 0.0
C444 C 0.97376 0.45069 0.1579 0.0
C445 C 0.94778 0.41838 0.15713 0.0
C446 C 0.02937 0.56834 0.15715 0.0
C447 C 0.05544 0.5756 0.18751 0.0
C448 C 0.00336 0.53607 0.15805 0.0
C449 C 0.00246 0.51055 0.1895 0.0
C450 C 0.0282 0.51789 0.22012 0.0
C451 C 0.05474 0.55002 0.21901 0.0
H452 H 0.44039 0.09978 0.86359 0.0
H453 H 0.37423 -0.00032 0.90757 0.0
H454 H 0.49982 0.05807 0.8596 0.0
H455 H 0.43346 0.95838 0.90397 0.0
H456 H 0.53992 0.88584 0.86512 0.0
H457 H 0.48049 0.92733 0.85912 0.0
H458 H 0.54475 0.02701 0.90645 0.0
H459 H 0.60396 0.98595 0.91207 0.0
C460 C 0.43847 0.06888 0.87219 0.0
C461 C 0.40273 0.05312 0.88617 0.0
C462 C 0.47249 0.04506 0.87003 0.0
C463 C 0.47131 0.00497 0.88156 0.0
C464 C 0.43524 0.989 0.89448 0.0
C465 C 0.40137 0.01282 0.89684 0.0
C466 C 0.54137 0.91668 0.87399 0.0
C467 C 0.57653 0.93253 0.8893 0.0
C468 C 0.50734 0.94038 0.87067 0.0
C469 C 0.50797 0.98043 0.88233 0.0
C470 C 0.54344 -0.00356 0.89677 0.0
C471 C 0.57729 0.97275 0.90029 0.0
H472 H 0.43681 0.20274 0.31161 0.0
H473 H 0.43468 0.31962 0.36291 0.0
H474 H 0.50499 0.21381 0.29153 0.0
H475 H 0.50318 0.33057 0.34237 0.0
H476 H 0.62584 0.34068 0.28311 0.0
H477 H 0.55303 0.33501 0.28656 0.0
H478 H 0.56521 0.21741 0.33458 0.0
H479 H 0.63742 0.22333 0.33149 0.0
C480 C 0.45041 0.23124 0.31783 0.0
C481 C 0.43024 0.26004 0.33949 0.0
C482 C 0.48965 0.23745 0.3064 0.0
C483 C 0.50966 0.27273 0.31597 0.0
C484 C 0.48849 0.30306 0.33456 0.0
C485 C 0.44917 0.29676 0.3463 0.0
C486 C 0.61275 0.31345 0.2938 0.0
C487 C 0.63711 0.2824 0.30701 0.0
C488 C 0.57122 0.31031 0.29599 0.0
C489 C 0.55342 0.27572 0.31068 0.0
C490 C 0.57796 0.24423 0.32265 0.0
C491 C 0.61929 0.24765 0.32108 0.0
H492 H 0.3273 0.35246 0.73258 0.0
H493 H 0.25373 0.35084 0.83263 0.0
H494 H 0.31934 0.42416 0.72803 0.0
H495 H 0.24717 0.42322 0.82913 0.0
H496 H 0.1956 0.5368 0.77125 0.0
H497 H 0.21238 0.46931 0.78961 0.0
H498 H 0.33348 0.48851 0.7535 0.0
H499 H 0.31634 0.55601 0.73391 0.0
C500 C 0.3097 0.36749 0.75389 0.0
C501 C 0.29061 0.34571 0.78262 0.0
C502 C 0.30562 0.40883 0.75161 0.0
C503 C 0.28247 0.42971 0.77813 0.0
C504 C 0.2648 0.40814 0.8079 0.0
C505 C 0.26886 0.36664 0.81014 0.0
C506 C 0.22606 0.52705 0.76782 0.0
C507 C 0.25445 0.5519 0.75054 0.0
C508 C 0.23576 0.48819 0.77862 0.0
C509 C 0.27419 0.47306 0.77259 0.0
C510 C 0.30335 0.49884 0.75784 0.0
C511 C 0.29361 0.53778 0.74694 0.0
H512 H 0.54966 0.6626 0.35519 0.0
H513 H 0.53947 0.7834 0.31409 0.0
H514 H 0.4811 0.64967 0.33513 0.0
H515 H 0.47136 0.77043 0.29457 0.0
H516 H 0.35731 0.63944 0.27523 0.0
H517 H 0.42991 0.64832 0.27884 0.0
H518 H 0.41274 0.75889 0.33897 0.0
H519 H 0.34082 0.74959 0.33586 0.0
C520 C 0.53337 0.686 0.34087 0.0
C521 C 0.55003 0.7242 0.33676 0.0
C522 C 0.49404 0.67859 0.32944 0.0
C523 C 0.47067 0.70928 0.3139 0.0
C524 C 0.48842 0.7464 0.30704 0.0
C525 C 0.5276 0.75372 0.31815 0.0
C526 C 0.36929 0.66588 0.28862 0.0
C527 C 0.34368 0.694 0.30508 0.0
C528 C 0.41068 0.67081 0.29092 0.0
C529 C 0.42699 0.70438 0.30902 0.0
C530 C 0.40112 0.73299 0.3244 0.0
C531 C 0.35998 0.72768 0.32272 0.0
H532 H 0.75965 0.64383 0.7591 0.0
H533 H 0.64888 0.62883 0.81872 0.0
H534 H 0.76731 0.57176 0.7553 0.0
H535 H 0.65641 0.5561 0.81477 0.0
H536 H 0.78941 0.44398 0.77878 0.0
H537 H 0.77838 0.51275 0.79749 0.0
H538 H 0.65628 0.50441 0.76078 0.0
H539 H 0.66721 0.43516 0.74177 0.0
C540 C 0.73712 0.62501 0.77173 0.0
C541 C 0.70371 0.64192 0.78923 0.0
C542 C 0.74159 0.58371 0.76976 0.0
C543 C 0.71252 0.55816 0.78485 0.0
C544 C 0.67924 0.57501 0.80283 0.0
C545 C 0.67508 0.61655 0.80534 0.0
C546 C 0.7599 0.45636 0.77535 0.0
C547 C 0.72934 0.434 0.75825 0.0
C548 C 0.75368 0.49594 0.78595 0.0
C549 C 0.71668 0.51426 0.77999 0.0
C550 C 0.68513 0.49111 0.76577 0.0
C551 C 0.69141 0.45136 0.75492 0.0
H552 H 0.94177 0.29196 0.27332 0.0
H553 H 0.9344 0.17 0.23465 0.0
H554 H 0.00941 0.28037 0.29494 0.0
H555 H 0.00237 0.15859 0.25672 0.0
H556 H 0.12286 0.14846 0.31926 0.0
H557 H 0.05056 0.15809 0.31397 0.0
H558 H 0.07044 0.26866 0.25454 0.0
H559 H 0.14217 0.25865 0.25942 0.0
C560 C 0.95412 0.26238 0.27011 0.0
C561 C 0.93255 0.23206 0.25166 0.0
C562 C -0.00694 0.25586 0.28244 0.0
C563 C 0.01141 0.21877 0.27706 0.0
C564 C 0.98897 0.18749 0.26134 0.0
C565 C 0.94998 0.19409 0.24865 0.0
C566 C 0.11155 0.17516 0.30583 0.0
C567 C 0.13788 0.20299 0.28995 0.0
C568 C 0.07032 0.18051 0.30252 0.0
C569 C 0.05483 0.21416 0.28391 0.0
C570 C 0.08139 0.24269 0.26946 0.0
C571 C 0.12242 0.23699 0.27217 0.0
H572 H 0.28634 0.042 0.81819 0.0
H573 H 0.16507 0.04838 0.85812 0.0
H574 H 0.27475 0.97443 0.79616 0.0
H575 H 0.15368 0.98046 0.83571 0.0
H576 H 0.14311 0.85973 0.77411 0.0
H577 H 0.15244 0.93223 0.77887 0.0
H578 H 0.26426 0.91317 0.8363 0.0
H579 H 0.25458 0.84127 0.83189 0.0
C580 C 0.25689 0.02946 0.82157 0.0
C581 C 0.2268 0.0507 0.84052 0.0
C582 C 0.25038 0.99056 0.80901 0.0
C583 C 0.21352 0.97191 0.81469 0.0
C584 C 0.1824 -0.00592 0.83083 0.0
C585 C 0.18899 0.03305 0.84373 0.0
C586 C 0.17001 0.87127 0.78694 0.0
C587 C 0.19829 0.84513 0.80243 0.0
C588 C 0.1752 0.91262 0.78995 0.0
C589 C 0.20911 0.9284 0.80788 0.0
C590 C 0.23808 0.90201 0.82188 0.0
C591 C 0.23257 0.86088 0.81945 0.0
H592 H 0.83576 0.71859 0.25713 0.0
H593 H 0.8512 0.82878 0.31818 0.0
H594 H 0.9077 0.7111 0.25267 0.0
H595 H 0.92374 0.82141 0.3136 0.0
H596 H 0.04345 0.81266 0.23985 0.0
H597 H 0.9744 0.82264 0.25924 0.0
H598 H 0.96737 0.6997 0.29399 0.0
H599 H 0.036 0.68956 0.27491 0.0
C600 C 0.85465 0.74102 0.26992 0.0
C601 C 0.83791 0.77425 0.288 0.0
C602 C 0.89586 0.73665 0.26759 0.0
C603 C 0.92147 0.76563 0.28288 0.0
C604 C 0.90477 0.79866 0.30147 0.0
C605 C 0.86335 0.80273 0.30434 0.0
C606 C 0.02759 0.78802 0.25258 0.0
C607 C 0.04534 0.75016 0.2553 0.0
C608 C 0.98795 0.79377 0.26368 0.0
C609 C 0.96523 0.76176 0.27753 0.0
C610 C 0.98386 0.72476 0.28277 0.0
C611 C 0.02338 0.71906 0.27196 0.0
H612 H 0.75435 0.13322 0.76282 0.0
H613 H 0.84311 0.12641 0.85107 0.0
H614 H 0.74573 0.06112 0.76586 0.0
H615 H 0.83279 0.05519 0.85589 0.0
H616 H 0.81976 0.92392 0.85358 0.0
H617 H 0.8384 0.99037 0.83191 0.0
H618 H 0.7152 0.0158 0.80691 0.0
H619 H 0.69703 0.9494 0.82675 0.0
C620 C 0.77234 0.11636 0.78258 0.0
C621 C 0.7989 0.13588 0.80715 0.0
C622 C 0.76708 0.07497 0.78469 0.0
C623 C 0.7881 0.05202 0.81154 0.0
C624 C 0.81619 0.07143 0.83462 0.0
C625 C 0.82167 0.11261 0.83229 0.0
C626 C 0.79683 0.94334 0.84251 0.0
C627 C 0.75682 0.93122 0.84236 0.0
C628 C 0.80744 0.98173 0.83044 0.0
C629 C 0.77829 0.00904 0.81815 0.0
C630 C 0.73869 -0.00416 0.81576 0.0
C631 C 0.72817 0.95753 0.8275 0.0
H632 H 0.2168 0.36225 0.47742 0.0
H633 H 0.338 0.40042 0.45969 0.0
H634 H 0.20239 0.42507 0.5093 0.0
H635 H 0.32404 0.46235 0.4924 0.0
H636 H 0.28736 0.58048 0.53634 0.0
H637 H 0.29031 0.52446 0.49249 0.0
H638 H 0.21857 0.45455 0.56922 0.0
H639 H 0.21453 0.51129 0.61229 0.0
C640 C 0.24025 0.3842 0.47992 0.0
C641 C 0.27863 0.37618 0.46623 0.0
C642 C 0.23206 0.4201 0.49845 0.0
C643 C 0.2621 0.44871 0.50377 0.0
C644 C 0.29997 0.44133 0.48847 0.0
C645 C 0.30809 0.40559 0.46984 0.0
C646 C 0.27181 0.55325 0.5435 0.0
C647 C 0.25115 0.54989 0.57783 0.0
C648 C 0.27363 0.52109 0.51849 0.0
C649 C 0.2552 0.48471 0.52751 0.0
C650 C 0.23285 0.48215 0.56112 0.0
C651 C 0.23069 0.51454 0.58596 0.0
H652 H 0.5407 0.65393 0.51704 0.0
H653 H 0.53017 0.78113 0.50327 0.0
H654 H 0.48475 0.65405 0.56027 0.0
H655 H 0.4748 0.78183 0.54818 0.0
H656 H 0.34599 0.75534 0.58811 0.0
H657 H 0.40732 0.76305 0.55258 0.0
H658 H 0.46214 0.6712 0.62076 0.0
H659 H 0.39999 0.66223 0.655 0.0
C660 C 0.52662 0.68206 0.52371 0.0
C661 C 0.53954 0.71748 0.5067 0.0
C662 C 0.49473 0.68225 0.54888 0.0
C663 C 0.47522 0.718 0.5581 0.0
C664 C 0.48874 0.75366 0.54146 0.0
C665 C 0.52051 0.75336 0.51585 0.0
C666 C 0.37137 0.73729 0.59598 0.0
C667 C 0.36802 0.70783 0.62407 0.0
C668 C 0.4067 0.7418 0.57563 0.0
C669 C 0.43966 0.7173 0.58326 0.0
C670 C 0.43706 0.68982 0.61329 0.0
C671 C 0.40155 0.68489 0.63322 0.0
H672 H 0.78157 0.44996 0.59219 0.0
H673 H 0.65468 0.4385 0.57786 0.0
H674 H 0.78219 0.50448 0.54601 0.0
H675 H 0.65479 0.49336 0.53328 0.0
H676 H 0.66224 0.57617 0.43729 0.0
H677 H 0.67254 0.51442 0.47214 0.0
H678 H 0.76221 0.5722 0.54069 0.0
H679 H 0.75314 0.63323 0.50466 0.0
C680 C 0.75388 0.45917 0.57917 0.0
C681 C 0.71808 0.4402 0.58859 0.0
C682 C 0.75415 0.49042 0.55283 0.0
C683 C 0.71855 0.50332 0.53566 0.0
C684 C 0.68293 0.4838 0.54509 0.0
C685 C 0.68276 0.45255 0.57104 0.0
C686 C 0.68472 0.57538 0.45928 0.0
C687 C 0.70655 0.60967 0.46847 0.0
C688 C 0.69044 0.54008 0.47951 0.0
C689 C 0.71761 0.53846 0.50987 0.0
C690 C 0.74119 0.57213 0.51743 0.0
C691 C 0.73588 0.60728 0.4968 0.0
H692 H 0.40283 0.2895 0.55956 0.0
H693 H 0.47316 0.21768 0.48374 0.0
H694 H 0.4577 0.29136 0.60465 0.0
H695 H 0.52892 0.22075 0.52814 0.0
H696 H 0.61877 0.21687 0.62262 0.0
H697 H 0.55715 0.20338 0.58833 0.0
H698 H 0.51953 0.32476 0.60731 0.0
H699 H 0.58016 0.33776 0.64238 0.0
C700 C 0.43007 0.27391 0.55269 0.0
C701 C 0.43401 0.25379 0.51807 0.0
C702 C 0.46161 0.27515 0.57842 0.0
C703 C 0.49805 0.25674 0.56988 0.0
C704 C 0.50125 0.23499 0.53588 0.0
C705 C 0.46942 0.23338 0.5103 0.0
C706 C 0.59696 0.24043 0.62008 0.0
C707 C 0.60454 0.27847 0.6351 0.0
C708 C 0.56177 0.23278 0.60012 0.0
C709 C 0.5334 0.26302 0.5947 0.0
C710 C 0.54032 0.30051 0.61125 0.0
C711 C 0.57534 0.30809 0.63128 0.0
H712 H 0.71615 0.9717 0.98169 0.0
H713 H 0.79876 0.9071 0.05223 0.0
H714 H 0.72073 0.02887 1.0243 0.0
H715 H 0.80215 0.96325 0.09576 0.0
H716 H 0.84404 0.08837 0.12902 0.0
H717 H 0.83171 0.02677 0.09526 0.0
H718 H 0.70741 0.0575 0.08487 0.0
H719 H 0.72018 0.12021 0.11768 0.0
C720 C 0.73468 0.96954 1.00673 0.0
C721 C 0.75749 0.93533 1.01349 0.0
C722 C 0.73715 0.00215 1.03133 0.0
C723 C 0.76217 0.00093 0.06336 0.0
C724 C 0.78333 0.96569 0.07095 0.0
C725 C 0.78123 0.93339 0.04614 0.0
C726 C 0.81393 0.08183 0.12006 0.0
C727 C 0.78316 0.1094 0.12585 0.0
C728 C 0.80677 0.04626 0.10079 0.0
C729 C 0.76854 0.03708 0.08709 0.0
C730 C 0.73735 0.06387 0.09442 0.0
C731 C 0.7446 0.09968 0.11352 0.0
H732 H 0.90243 0.20056 1.03164 0.0
H733 H 0.97265 0.27181 0.10837 0.0
H734 H 0.95819 0.19733 0.98772 0.0
H735 H 0.02908 0.26753 0.06516 0.0
H736 H 0.12199 0.26687 0.97425 0.0
H737 H 0.0592 0.28303 1.00517 0.0
H738 H 0.01952 0.16186 0.98868 0.0
H739 H 0.08148 0.14611 0.95704 0.0
C740 C 0.92977 0.21585 1.03889 0.0
C741 C 0.93355 0.23598 0.07354 0.0
C742 C 0.96178 0.21384 1.01385 0.0
C743 C -0.00159 0.23157 1.02314 0.0
C744 C 0.00129 0.25375 0.0569 0.0
C745 C 0.96906 0.25607 0.0818 0.0
C746 C 0.09953 0.2439 0.97661 0.0
C747 C 0.1069 0.2051 0.96342 0.0
C748 C 0.06364 0.25311 0.99458 0.0
C749 C 0.03436 0.22372 0.99974 0.0
C750 C 0.04108 0.18545 0.98485 0.0
C751 C 0.07683 0.1763 0.96685 0.0
H752 H 0.26371 0.86138 0.1214 0.0
H753 H 0.14345 0.90098 0.14162 0.0
H754 H 0.27797 0.92372 0.0886 0.0
H755 H 0.1572 0.9624 0.10799 0.0
H756 H 0.19326 0.07936 0.06097 0.0
H757 H 0.19108 0.02418 0.10583 0.0
H758 H 0.2609 0.95265 1.02889 0.0
H759 H 0.26423 0.00858 0.98483 0.0
C760 C 0.24045 0.88356 0.11928 0.0
C761 C 0.20235 0.87603 0.13393 0.0
C762 C 0.24854 0.91919 0.1002 0.0
C763 C 0.21867 0.94804 0.09525 0.0
C764 C 0.18116 0.94121 0.11157 0.0
C765 C 0.17315 0.90575 0.13076 0.0
C766 C 0.20859 0.05197 0.05399 0.0
C767 C 0.2285 0.04794 1.01932 0.0
C768 C 0.20719 0.02027 0.07958 0.0
C769 C 0.22528 0.98365 0.07082 0.0
C770 C 0.24692 0.98044 1.03683 0.0
C771 C 0.24867 0.01238 1.01142 0.0
H772 H 0.84711 0.7277 1.00726 0.0
H773 H 0.90089 0.81662 0.93537 0.0
H774 H 0.90992 0.71836 1.03991 0.0
H775 H 0.96458 0.80585 0.96676 0.0
H776 H 0.04669 0.82418 0.06907 0.0
H777 H -0.00911 0.82403 1.02554 0.0
H778 H 0.97648 0.6973 1.04272 0.0
H779 H 0.03169 0.69815 0.08799 0.0
C780 C 0.87268 0.74447 0.99768 0.0
C781 C 0.86889 0.77335 0.96909 0.0
C782 C 0.90892 0.73894 1.01633 0.0
C783 C 0.94239 0.76178 1.00648 0.0
C784 C 0.93921 0.78851 0.97587 0.0
C785 C 0.90278 0.79449 0.95762 0.0
C786 C 0.03176 0.79623 0.06334 0.0
C787 C 0.04315 0.76127 0.08214 0.0
C788 C -7e-05 0.796 1.03799 0.0
C789 C 0.97895 0.76063 1.03041 0.0
C790 C -0.00853 0.72523 0.04827 0.0
C791 C 0.02317 0.7256 0.07406 0.0
loop_
_geom_bond_atom_site_label_1
_geom_bond_atom_site_label_2
_geom_bond_distance
_geom_bond_site_symmetry_2
_ccdc_geom_bond_type
O0 Tb1 2.292 . S
O0 C3 1.255 . S
Tb1 O0 2.292 . S
Tb1 O17 2.326 . S
Tb1 O19 2.500 . S
Tb1 O20 2.473 . S
Tb1 O23 2.324 . S
Eu2 O6 2.292 . S
Eu2 C7 2.852 . S
Eu2 O18 2.324 . S
Eu2 O22 2.326 . S
Eu2 O24 2.500 . S
Eu2 O25 2.473 . S
C3 O0 1.255 . S
C3 O4 1.247 . S
O4 C3 1.247 . S
C5 O17 1.242 . S
C5 O18 1.258 . S
O6 Eu2 2.292 . S
O6 C8 1.255 . S
C7 Eu2 2.852 . S
C7 C11 1.503 . S
C7 O24 1.273 . S
C7 O25 1.257 . S
C8 O6 1.255 . S
C8 O9 1.247 . S
O9 C8 1.247 . S
C10 O22 1.242 . S
C10 O23 1.258 . S
C11 C7 1.503 . S
C11 C12 1.379 . S
C11 C16 1.392 . S
C12 C11 1.379 . S
C12 C13 1.404 . S
C12 H26 0.929 . S
C13 C12 1.404 . S
C13 C14 1.389 . S
C14 C13 1.389 . S
C14 C15 1.399 . S
C14 H27 0.931 . S
C15 C14 1.399 . S
C15 C16 1.390 . S
C16 C11 1.392 . S
C16 C15 1.390 . S
C16 H28 0.929 . S
O17 Tb1 2.326 . S
O17 C5 1.242 . S
O18 Eu2 2.324 . S
O18 C5 1.258 . S
O19 Tb1 2.500 . S
O19 C21 1.273 . S
O20 Tb1 2.473 . S
O20 C21 1.257 . S
C21 O19 1.273 . S
C21 O20 1.257 . S
O22 Eu2 2.326 . S
O22 C10 1.242 . S
O23 Tb1 2.324 . S
O23 C10 1.258 . S
O24 Eu2 2.500 . S
O24 C7 1.273 . S
O25 Eu2 2.473 . S
O25 C7 1.257 . S
H26 C12 0.929 . S
H27 C14 0.931 . S
H28 C16 0.929 . S
O29 Tb30 2.292 . S
O29 C32 1.255 . S
Tb30 O29 2.292 . S
Tb30 O46 2.326 . S
Tb30 O48 2.500 . S
Tb30 O49 2.473 . S
Tb30 O52 2.324 . S
Eu31 O35 2.292 . S
Eu31 C36 2.852 . S
Eu31 O47 2.324 . S
Eu31 O51 2.326 . S
Eu31 O53 2.500 . S
Eu31 O54 2.473 . S
C32 O29 1.255 . S
C32 O33 1.247 . S
O33 C32 1.247 . S
C34 O46 1.242 . S
C34 O47 1.258 . S
O35 Eu31 2.292 . S
O35 C37 1.255 . S
C36 Eu31 2.852 . S
C36 C40 1.503 . S
C36 O53 1.273 . S
C36 O54 1.257 . S
C37 O35 1.255 . S
C37 O38 1.247 . S
O38 C37 1.247 . S
C39 O51 1.242 . S
C39 O52 1.258 . S
C40 C36 1.503 . S
C40 C41 1.379 . S
C40 C45 1.392 . S
C41 C40 1.379 . S
C41 C42 1.404 . S
C41 H55 0.929 . S
C42 C41 1.404 . S
C42 C43 1.389 . S
C43 C42 1.389 . S
C43 C44 1.399 . S
C43 H56 0.931 . S
C44 C43 1.399 . S
C44 C45 1.390 . S
C45 C40 1.392 . S
C45 C44 1.390 . S
C45 H57 0.929 . S
O46 Tb30 2.326 . S
O46 C34 1.242 . S
O47 Eu31 2.324 . S
O47 C34 1.258 . S
O48 Tb30 2.500 . S
O48 C50 1.273 . S
O49 Tb30 2.473 . S
O49 C50 1.257 . S
C50 O48 1.273 . S
C50 O49 1.257 . S
O51 Eu31 2.326 . S
O51 C39 1.242 . S
O52 Tb30 2.324 . S
O52 C39 1.258 . S
O53 Eu31 2.500 . S
O53 C36 1.273 . S
O54 Eu31 2.473 . S
O54 C36 1.257 . S
H55 C41 0.929 . S
H56 C43 0.931 . S
H57 C45 0.929 . S
O58 Tb59 2.292 . S
O58 C61 1.255 . S
Tb59 O58 2.292 . S
Tb59 O75 2.326 . S
Tb59 O77 2.500 . S
Tb59 O78 2.473 . S
Tb59 O81 2.324 . S
Eu60 O64 2.292 . S
Eu60 C65 2.852 . S
Eu60 O76 2.324 . S
Eu60 O80 2.326 . S
Eu60 O82 2.500 . S
Eu60 O83 2.473 . S
C61 O58 1.255 . S
C61 O62 1.247 . S
O62 C61 1.247 . S
C63 O75 1.242 . S
C63 O76 1.258 . S
O64 Eu60 2.292 . S
O64 C66 1.255 . S
C65 Eu60 2.852 . S
C65 C69 1.503 . S
C65 O82 1.273 . S
C65 O83 1.257 . S
C66 O64 1.255 . S
C66 O67 1.247 . S
O67 C66 1.247 . S
C68 O80 1.242 . S
C68 O81 1.258 . S
C69 C65 1.503 . S
C69 C70 1.379 . S
C69 C74 1.392 . S
C70 C69 1.379 . S
C70 C71 1.404 . S
C70 H84 0.929 . S
C71 C70 1.404 . S
C71 C72 1.389 . S
C72 C71 1.389 . S
C72 C73 1.399 . S
C72 H85 0.931 . S
C73 C72 1.399 . S
C73 C74 1.390 . S
C74 C69 1.392 . S
C74 C73 1.390 . S
C74 H86 0.929 . S
O75 Tb59 2.326 . S
O75 C63 1.242 . S
O76 Eu60 2.324 . S
O76 C63 1.258 . S
O77 Tb59 2.500 . S
O77 C79 1.273 . S
O78 Tb59 2.473 . S
O78 C79 1.257 . S
C79 O77 1.273 . S
C79 O78 1.257 . S
O80 Eu60 2.326 . S
O80 C68 1.242 . S
O81 Tb59 2.324 . S
O81 C68 1.258 . S
O82 Eu60 2.500 . S
O82 C65 1.273 . S
O83 Eu60 2.473 . S
O83 C65 1.257 . S
H84 C70 0.929 . S
H85 C72 0.931 . S
H86 C74 0.929 . S
O87 Tb88 2.292 . S
O87 C90 1.255 . S
Tb88 O87 2.292 . S
Tb88 O104 2.326 . S
Tb88 O106 2.500 . S
Tb88 O107 2.473 . S
Tb88 O110 2.324 . S
Eu89 O93 2.292 . S
Eu89 C94 2.852 . S
Eu89 O105 2.324 . S
Eu89 O109 2.326 . S
Eu89 O111 2.500 . S
Eu89 O112 2.473 . S
C90 O87 1.255 . S
C90 O91 1.247 . S
O91 C90 1.247 . S
C92 O104 1.242 . S
C92 O105 1.258 . S
O93 Eu89 2.292 . S
O93 C95 1.255 . S
C94 Eu89 2.852 . S
C94 C98 1.503 . S
C94 O111 1.273 . S
C94 O112 1.257 . S
C95 O93 1.255 . S
C95 O96 1.247 . S
O96 C95 1.247 . S
C97 O109 1.242 . S
C97 O110 1.258 . S
C98 C94 1.503 . S
C98 C99 1.379 . S
C98 C103 1.392 . S
C99 C98 1.379 . S
C99 C100 1.404 . S
C99 H113 0.929 . S
C100 C99 1.404 . S
C100 C101 1.389 . S
C101 C100 1.389 . S
C101 C102 1.399 . S
C101 H114 0.931 . S
C102 C101 1.399 . S
C102 C103 1.390 . S
C103 C98 1.392 . S
C103 C102 1.390 . S
C103 H115 0.929 . S
O104 Tb88 2.326 . S
O104 C92 1.242 . S
O105 Eu89 2.324 . S
O105 C92 1.258 . S
O106 Tb88 2.500 . S
O106 C108 1.273 . S
O107 Tb88 2.473 . S
O107 C108 1.257 . S
C108 O106 1.273 . S
C108 O107 1.257 . S
O109 Eu89 2.326 . S
O109 C97 1.242 . S
O110 Tb88 2.324 . S
O110 C97 1.258 . S
O111 Eu89 2.500 . S
O111 C94 1.273 . S
O112 Eu89 2.473 . S
O112 C94 1.257 . S
H113 C99 0.929 . S
H114 C101 0.931 . S
H115 C103 0.929 . S
O116 Tb117 2.292 . S
O116 C119 1.255 . S
Tb117 O116 2.292 . S
Tb117 O133 2.326 . S
Tb117 O135 2.500 . S
Tb117 O136 2.473 . S
Tb117 O139 2.324 . S
Eu118 O122 2.292 . S
Eu118 C123 2.852 . S
Eu118 O134 2.324 . S
Eu118 O138 2.326 . S
Eu118 O140 2.500 . S
Eu118 O141 2.473 . S
C119 O116 1.255 . S
C119 O120 1.247 . S
O120 C119 1.247 . S
C121 O133 1.242 . S
C121 O134 1.258 . S
O122 Eu118 2.292 . S
O122 C124 1.255 . S
C123 Eu118 2.852 . S
C123 C127 1.503 . S
C123 O140 1.273 . S
C123 O141 1.257 . S
C124 O122 1.255 . S
C124 O125 1.247 . S
O125 C124 1.247 . S
C126 O138 1.242 . S
C126 O139 1.258 . S
C127 C123 1.503 . S
C127 C128 1.379 . S
C127 C132 1.392 . S
C128 C127 1.379 . S
C128 C129 1.404 . S
C128 H142 0.929 . S
C129 C128 1.404 . S
C129 C130 1.389 . S
C130 C129 1.389 . S
C130 C131 1.399 . S
C130 H143 0.931 . S
C131 C130 1.399 . S
C131 C132 1.390 . S
C132 C127 1.392 . S
C132 C131 1.390 . S
C132 H144 0.929 . S
O133 Tb117 2.326 . S
O133 C121 1.242 . S
O134 Eu118 2.324 . S
O134 C121 1.258 . S
O135 Tb117 2.500 . S
O135 C137 1.273 . S
O136 Tb117 2.473 . S
O136 C137 1.257 . S
C137 O135 1.273 . S
C137 O136 1.257 . S
O138 Eu118 2.326 . S
O138 C126 1.242 . S
O139 Tb117 2.324 . S
O139 C126 1.258 . S
O140 Eu118 2.500 . S
O140 C123 1.273 . S
O141 Eu118 2.473 . S
O141 C123 1.257 . S
H142 C128 0.929 . S
H143 C130 0.931 . S
H144 C132 0.929 . S
O145 Tb146 2.292 . S
O145 C148 1.255 . S
Tb146 O145 2.292 . S
Tb146 O162 2.326 . S
Tb146 O164 2.500 . S
Tb146 O165 2.473 . S
Tb146 O168 2.324 . S
Eu147 O151 2.292 . S
Eu147 C152 2.852 . S
Eu147 O163 2.324 . S
Eu147 O167 2.326 . S
Eu147 O169 2.500 . S
Eu147 O170 2.473 . S
C148 O145 1.255 . S
C148 O149 1.247 . S
O149 C148 1.247 . S
C150 O162 1.242 . S
C150 O163 1.258 . S
O151 Eu147 2.292 . S
O151 C153 1.255 . S
C152 Eu147 2.852 . S
C152 C156 1.503 . S
C152 O169 1.273 . S
C152 O170 1.257 . S
C153 O151 1.255 . S
C153 O154 1.247 . S
O154 C153 1.247 . S
C155 O167 1.242 . S
C155 O168 1.258 . S
C156 C152 1.503 . S
C156 C157 1.379 . S
C156 C161 1.392 . S
C157 C156 1.379 . S
C157 C158 1.404 . S
C157 H171 0.929 . S
C158 C157 1.404 . S
C158 C159 1.389 . S
C159 C158 1.389 . S
C159 C160 1.399 . S
C159 H172 0.931 . S
C160 C159 1.399 . S
C160 C161 1.390 . S
C161 C156 1.392 . S
C161 C160 1.390 . S
C161 H173 0.929 . S
O162 Tb146 2.326 . S
O162 C150 1.242 . S
O163 Eu147 2.324 . S
O163 C150 1.258 . S
O164 Tb146 2.500 . S
O164 C166 1.273 . S
O165 Tb146 2.473 . S
O165 C166 1.257 . S
C166 O164 1.273 . S
C166 O165 1.257 . S
O167 Eu147 2.326 . S
O167 C155 1.242 . S
O168 Tb146 2.324 . S
O168 C155 1.258 . S
O169 Eu147 2.500 . S
O169 C152 1.273 . S
O170 Eu147 2.473 . S
O170 C152 1.257 . S
H171 C157 0.929 . S
H172 C159 0.931 . S
H173 C161 0.929 . S
O174 Tb175 2.292 . S
O174 C177 1.255 . S
Tb175 O174 2.292 . S
Tb175 O191 2.326 . S
Tb175 O193 2.500 . S
Tb175 O194 2.473 . S
Tb175 O197 2.324 . S
Eu176 O180 2.292 . S
Eu176 C181 2.852 . S
Eu176 O192 2.324 . S
Eu176 O196 2.326 . S
Eu176 O198 2.500 . S
Eu176 O199 2.473 . S
C177 O174 1.255 . S
C177 O178 1.247 . S
O178 C177 1.247 . S
C179 O191 1.242 . S
C179 O192 1.258 . S
O180 Eu176 2.292 . S
O180 C182 1.255 . S
C181 Eu176 2.852 . S
C181 C185 1.503 . S
C181 O198 1.273 . S
C181 O199 1.257 . S
C182 O180 1.255 . S
C182 O183 1.247 . S
O183 C182 1.247 . S
C184 O196 1.242 . S
C184 O197 1.258 . S
C185 C181 1.503 . S
C185 C186 1.379 . S
C185 C190 1.392 . S
C186 C185 1.379 . S
C186 C187 1.404 . S
C186 H200 0.929 . S
C187 C186 1.404 . S
C187 C188 1.389 . S
C188 C187 1.389 . S
C188 C189 1.399 . S
C188 H201 0.931 . S
C189 C188 1.399 . S
C189 C190 1.390 . S
C190 C185 1.392 . S
C190 C189 1.390 . S
C190 H202 0.929 . S
O191 Tb175 2.326 . S
O191 C179 1.242 . S
O192 Eu176 2.324 . S
O192 C179 1.258 . S
O193 Tb175 2.500 . S
O193 C195 1.273 . S
O194 Tb175 2.473 . S
O194 C195 1.257 . S
C195 O193 1.273 . S
C195 O194 1.257 . S
O196 Eu176 2.326 . S
O196 C184 1.242 . S
O197 Tb175 2.324 . S
O197 C184 1.258 . S
O198 Eu176 2.500 . S
O198 C181 1.273 . S
O199 Eu176 2.473 . S
O199 C181 1.257 . S
H200 C186 0.929 . S
H201 C188 0.931 . S
H202 C190 0.929 . S
O203 Tb204 2.292 . S
O203 C206 1.255 . S
Tb204 O203 2.292 . S
Tb204 O220 2.326 . S
Tb204 O222 2.500 . S
Tb204 O223 2.473 . S
Tb204 O226 2.324 . S
Eu205 O209 2.292 . S
Eu205 C210 2.852 . S
Eu205 O221 2.324 . S
Eu205 O225 2.326 . S
Eu205 O227 2.500 . S
Eu205 O228 2.473 . S
C206 O203 1.255 . S
C206 O207 1.247 . S
O207 C206 1.247 . S
C208 O220 1.242 . S
C208 O221 1.258 . S
O209 Eu205 2.292 . S
O209 C211 1.255 . S
C210 Eu205 2.852 . S
C210 C214 1.503 . S
C210 O227 1.273 . S
C210 O228 1.257 . S
C211 O209 1.255 . S
C211 O212 1.247 . S
O212 C211 1.247 . S
C213 O225 1.242 . S
C213 O226 1.258 . S
C214 C210 1.503 . S
C214 C215 1.379 . S
C214 C219 1.392 . S
C215 C214 1.379 . S
C215 C216 1.404 . S
C215 H229 0.929 . S
C216 C215 1.404 . S
C216 C217 1.389 . S
C217 C216 1.389 . S
C217 C218 1.399 . S
C217 H230 0.931 . S
C218 C217 1.399 . S
C218 C219 1.390 . S
C219 C214 1.392 . S
C219 C218 1.390 . S
C219 H231 0.929 . S
O220 Tb204 2.326 . S
O220 C208 1.242 . S
O221 Eu205 2.324 . S
O221 C208 1.258 . S
O222 Tb204 2.500 . S
O222 C224 1.273 . S
O223 Tb204 2.473 . S
O223 C224 1.257 . S
C224 O222 1.273 . S
C224 O223 1.257 . S
O225 Eu205 2.326 . S
O225 C213 1.242 . S
O226 Tb204 2.324 . S
O226 C213 1.258 . S
O227 Eu205 2.500 . S
O227 C210 1.273 . S
O228 Eu205 2.473 . S
O228 C210 1.257 . S
H229 C215 0.929 . S
H230 C217 0.931 . S
H231 C219 0.929 . S
H232 C240 0.950 . S
H233 C245 0.950 . S
H234 C242 0.950 . S
H235 C244 0.950 . S
H236 C246 0.950 . S
H237 C248 0.950 . S
H238 C250 0.950 . S
H239 C251 0.950 . S
C240 H232 0.950 . S
C240 C241 1.386 . S
C240 C242 1.391 . S
C241 C240 1.386 . S
C241 C245 1.393 . S
C242 H234 0.950 . S
C242 C240 1.391 . S
C242 C243 1.400 . S
C243 C242 1.400 . S
C243 C244 1.398 . S
C243 C249 1.491 . S
C244 H235 0.950 . S
C244 C243 1.398 . S
C244 C245 1.391 . S
C245 H233 0.950 . S
C245 C241 1.393 . S
C245 C244 1.391 . S
C246 H236 0.950 . S
C246 C247 1.386 . S
C246 C248 1.391 1_556 S
C247 C246 1.386 . S
C247 C251 1.393 . S
C248 H237 0.950 . S
C248 C246 1.391 1_554 S
C248 C249 1.400 . S
C249 C243 1.491 . S
C249 C248 1.400 . S
C249 C250 1.398 . S
C250 H238 0.950 . S
C250 C249 1.398 . S
C250 C251 1.391 1_554 S
C251 H239 0.950 . S
C251 C247 1.393 . S
C251 C250 1.391 1_556 S
H252 C260 0.950 . S
H253 C265 0.950 . S
H254 C262 0.950 . S
H255 C264 0.950 . S
H256 C266 0.950 . S
H257 C268 0.950 . S
H258 C270 0.950 . S
H259 C271 0.950 . S
C260 H252 0.950 . S
C260 C261 1.386 . S
C260 C262 1.391 1_554 S
C261 C260 1.386 . S
C261 C265 1.393 . S
C262 H254 0.950 . S
C262 C260 1.391 1_556 S
C262 C263 1.400 . S
C263 C262 1.400 . S
C263 C264 1.398 . S
C263 C269 1.491 . S
C264 H255 0.950 . S
C264 C263 1.398 . S
C264 C265 1.391 1_556 S
C265 H253 0.950 . S
C265 C261 1.393 . S
C265 C264 1.391 1_554 S
C266 H256 0.950 . S
C266 C267 1.386 . S
C266 C268 1.391 . S
C267 C266 1.386 . S
C267 C271 1.393 . S
C268 H257 0.950 . S
C268 C266 1.391 . S
C268 C269 1.400 . S
C269 C263 1.491 . S
C269 C268 1.400 . S
C269 C270 1.398 . S
C270 H258 0.950 . S
C270 C269 1.398 . S
C270 C271 1.391 . S
C271 H259 0.950 . S
C271 C267 1.393 . S
C271 C270 1.391 . S
H272 C280 0.950 . S
H273 C285 0.950 . S
H274 C282 0.950 . S
H275 C284 0.950 . S
H276 C286 0.950 . S
H277 C288 0.950 . S
H278 C290 0.950 . S
H279 C291 0.950 . S
C280 H272 0.950 . S
C280 C281 1.386 . S
C280 C282 1.391 1_556 S
C281 C280 1.386 . S
C281 C285 1.393 . S
C282 H274 0.950 . S
C282 C280 1.391 1_554 S
C282 C283 1.400 . S
C283 C282 1.400 . S
C283 C284 1.398 . S
C283 C289 1.491 . S
C284 H275 0.950 . S
C284 C283 1.398 . S
C284 C285 1.391 1_554 S
C285 H273 0.950 . S
C285 C281 1.393 . S
C285 C284 1.391 1_556 S
C286 H276 0.950 . S
C286 C287 1.386 . S
C286 C288 1.391 . S
C287 C286 1.386 . S
C287 C291 1.393 . S
C288 H277 0.950 . S
C288 C286 1.391 . S
C288 C289 1.400 . S
C289 C283 1.491 . S
C289 C288 1.400 . S
C289 C290 1.398 . S
C290 H278 0.950 . S
C290 C289 1.398 . S
C290 C291 1.391 . S
C291 H279 0.950 . S
C291 C287 1.393 . S
C291 C290 1.391 . S
H292 C300 0.950 . S
H293 C305 0.950 . S
H294 C302 0.950 . S
H295 C304 0.950 . S
H296 C306 0.950 . S
H297 C308 0.950 . S
H298 C310 0.950 . S
H299 C311 0.950 . S
C300 H292 0.950 . S
C300 C301 1.386 . S
C300 C302 1.391 . S
C301 C300 1.386 . S
C301 C305 1.393 . S
C302 H294 0.950 . S
C302 C300 1.391 . S
C302 C303 1.400 . S
C303 C302 1.400 . S
C303 C304 1.398 . S
C303 C309 1.491 . S
C304 H295 0.950 . S
C304 C303 1.398 . S
C304 C305 1.391 . S
C305 H293 0.950 . S
C305 C301 1.393 . S
C305 C304 1.391 . S
C306 H296 0.950 . S
C306 C307 1.386 . S
C306 C308 1.391 1_554 S
C307 C306 1.386 . S
C307 C311 1.393 . S
C308 H297 0.950 . S
C308 C306 1.391 1_556 S
C308 C309 1.400 . S
C309 C303 1.491 . S
C309 C308 1.400 . S
C309 C310 1.398 . S
C310 H298 0.950 . S
C310 C309 1.398 . S
C310 C311 1.391 1_556 S
C311 H299 0.950 . S
C311 C307 1.393 . S
C311 C310 1.391 1_554 S
H312 C320 0.950 . S
H313 C325 0.950 . S
H314 C322 0.950 . S
H315 C324 0.950 . S
H316 C326 0.950 . S
H317 C328 0.950 . S
H318 C330 0.950 . S
H319 C331 0.950 . S
C320 H312 0.950 . S
C320 C321 1.386 . S
C320 C322 1.391 . S
C321 C320 1.386 . S
C321 C325 1.393 . S
C322 H314 0.950 . S
C322 C320 1.391 . S
C322 C323 1.400 . S
C323 C322 1.400 . S
C323 C324 1.398 . S
C323 C329 1.491 . S
C324 H315 0.950 . S
C324 C323 1.398 . S
C324 C325 1.391 . S
C325 H313 0.950 . S
C325 C321 1.393 . S
C325 C324 1.391 . S
C326 H316 0.950 . S
C326 C327 1.386 . S
C326 C328 1.391 . S
C327 C326 1.386 . S
C327 C331 1.393 . S
C328 H317 0.950 . S
C328 C326 1.391 . S
C328 C329 1.400 . S
C329 C323 1.491 . S
C329 C328 1.400 . S
C329 C330 1.398 . S
C330 H318 0.950 . S
C330 C329 1.398 . S
C330 C331 1.391 . S
C331 H319 0.950 . S
C331 C327 1.393 . S
C331 C330 1.391 . S
H332 C340 0.950 . S
H333 C345 0.950 . S
H334 C342 0.950 . S
H335 C344 0.950 . S
H336 C346 0.950 . S
H337 C348 0.950 . S
H338 C350 0.950 . S
H339 C351 0.950 . S
C340 H332 0.950 . S
C340 C341 1.386 . S
C340 C342 1.391 . S
C341 C340 1.386 . S
C341 C345 1.393 . S
C342 H334 0.950 . S
C342 C340 1.391 . S
C342 C343 1.400 . S
C343 C342 1.400 . S
C343 C344 1.398 . S
C343 C349 1.491 . S
C344 H335 0.950 . S
C344 C343 1.398 . S
C344 C345 1.391 . S
C345 H333 0.950 . S
C345 C341 1.393 . S
C345 C344 1.391 . S
C346 H336 0.950 . S
C346 C347 1.386 . S
C346 C348 1.391 . S
C347 C346 1.386 . S
C347 C351 1.393 . S
C348 H337 0.950 . S
C348 C346 1.391 . S
C348 C349 1.400 . S
C349 C343 1.491 . S
C349 C348 1.400 . S
C349 C350 1.398 . S
C350 H338 0.950 . S
C350 C349 1.398 . S
C350 C351 1.391 . S
C351 H339 0.950 . S
C351 C347 1.393 . S
C351 C350 1.391 . S
H352 C360 0.950 . S
H353 C365 0.950 . S
H354 C362 0.950 . S
H355 C364 0.950 . S
H356 C366 0.950 . S
H357 C368 0.950 . S
H358 C370 0.950 . S
H359 C371 0.950 . S
C360 H352 0.950 . S
C360 C361 1.386 . S
C360 C362 1.391 . S
C361 C360 1.386 . S
C361 C365 1.393 . S
C362 H354 0.950 . S
C362 C360 1.391 . S
C362 C363 1.400 . S
C363 C362 1.400 . S
C363 C364 1.398 . S
C363 C369 1.491 . S
C364 H355 0.950 . S
C364 C363 1.398 . S
C364 C365 1.391 . S
C365 H353 0.950 . S
C365 C361 1.393 . S
C365 C364 1.391 . S
C366 H356 0.950 . S
C366 C367 1.386 . S
C366 C368 1.391 . S
C367 C366 1.386 . S
C367 C371 1.393 . S
C368 H357 0.950 . S
C368 C366 1.391 . S
C368 C369 1.400 . S
C369 C363 1.491 . S
C369 C368 1.400 . S
C369 C370 1.398 . S
C370 H358 0.950 . S
C370 C369 1.398 . S
C370 C371 1.391 . S
C371 H359 0.950 . S
C371 C367 1.393 . S
C371 C370 1.391 . S
H372 C380 0.950 . S
H373 C385 0.950 . S
H374 C382 0.950 . S
H375 C384 0.950 . S
H376 C386 0.950 . S
H377 C388 0.950 . S
H378 C390 0.950 . S
H379 C391 0.950 . S
C380 H372 0.950 . S
C380 C381 1.386 . S
C380 C382 1.391 . S
C381 C380 1.386 . S
C381 C385 1.393 . S
C382 H374 0.950 . S
C382 C380 1.391 . S
C382 C383 1.400 . S
C383 C382 1.400 . S
C383 C384 1.398 . S
C383 C389 1.491 . S
C384 H375 0.950 . S
C384 C383 1.398 . S
C384 C385 1.391 . S
C385 H373 0.950 . S
C385 C381 1.393 . S
C385 C384 1.391 . S
C386 H376 0.950 . S
C386 C387 1.386 . S
C386 C388 1.391 . S
C387 C386 1.386 . S
C387 C391 1.393 . S
C388 H377 0.950 . S
C388 C386 1.391 . S
C388 C389 1.400 . S
C389 C383 1.491 . S
C389 C388 1.400 . S
C389 C390 1.398 . S
C390 H378 0.950 . S
C390 C389 1.398 . S
C390 C391 1.391 . S
C391 H379 0.950 . S
C391 C387 1.393 . S
C391 C390 1.391 . S
H392 C400 0.950 . S
H393 C405 0.950 . S
H394 C402 0.950 . S
H395 C404 0.950 . S
H396 C406 0.950 . S
H397 C408 0.950 . S
H398 C410 0.950 . S
H399 C411 0.950 . S
C400 H392 0.950 . S
C400 C401 1.386 . S
C400 C402 1.391 . S
C401 C400 1.386 . S
C401 C405 1.393 . S
C402 H394 0.950 . S
C402 C400 1.391 . S
C402 C403 1.400 . S
C403 C402 1.400 . S
C403 C404 1.398 . S
C403 C409 1.491 1_545 S
C404 H395 0.950 . S
C404 C403 1.398 . S
C404 C405 1.391 . S
C405 H393 0.950 . S
C405 C401 1.393 . S
C405 C404 1.391 . S
C406 H396 0.950 . S
C406 C407 1.386 . S
C406 C408 1.391 . S
C407 C406 1.386 . S
C407 C411 1.393 . S
C408 H397 0.950 . S
C408 C406 1.391 . S
C408 C409 1.400 . S
C409 C403 1.491 1_565 S
C409 C408 1.400 . S
C409 C410 1.398 . S
C410 H398 0.950 . S
C410 C409 1.398 . S
C410 C411 1.391 . S
C411 H399 0.950 . S
C411 C407 1.393 . S
C411 C410 1.391 . S
H412 C420 0.950 . S
H413 C425 0.950 . S
H414 C422 0.950 . S
H415 C424 0.950 . S
H416 C426 0.950 . S
H417 C428 0.950 . S
H418 C430 0.950 . S
H419 C431 0.950 . S
C420 H412 0.950 . S
C420 C421 1.386 . S
C420 C422 1.391 . S
C421 C420 1.386 . S
C421 C425 1.393 . S
C422 H414 0.950 . S
C422 C420 1.391 . S
C422 C423 1.400 . S
C423 C422 1.400 . S
C423 C424 1.398 . S
C423 C429 1.491 1_655 S
C424 H415 0.950 . S
C424 C423 1.398 . S
C424 C425 1.391 . S
C425 H413 0.950 . S
C425 C421 1.393 . S
C425 C424 1.391 . S
C426 H416 0.950 . S
C426 C427 1.386 . S
C426 C428 1.391 . S
C427 C426 1.386 . S
C427 C431 1.393 . S
C428 H417 0.950 . S
C428 C426 1.391 . S
C428 C429 1.400 . S
C429 C423 1.491 1_455 S
C429 C428 1.400 . S
C429 C430 1.398 . S
C430 H418 0.950 . S
C430 C429 1.398 . S
C430 C431 1.391 . S
C431 H419 0.950 . S
C431 C427 1.393 . S
C431 C430 1.391 . S
H432 C440 0.950 . S
H433 C445 0.950 . S
H434 C442 0.950 . S
H435 C444 0.950 . S
H436 C446 0.950 . S
H437 C448 0.950 . S
H438 C450 0.950 . S
H439 C451 0.950 . S
C440 H432 0.950 . S
C440 C441 1.386 . S
C440 C442 1.391 1_655 S
C441 C440 1.386 . S
C441 C445 1.393 . S
C442 H434 0.950 . S
C442 C440 1.391 1_455 S
C442 C443 1.400 1_455 S
C443 C442 1.400 1_655 S
C443 C444 1.398 . S
C443 C449 1.491 1_655 S
C444 H435 0.950 . S
C444 C443 1.398 . S
C444 C445 1.391 . S
C445 H433 0.950 . S
C445 C441 1.393 . S
C445 C444 1.391 . S
C446 H436 0.950 . S
C446 C447 1.386 . S
C446 C448 1.391 1_455 S
C447 C446 1.386 . S
C447 C451 1.393 . S
C448 H437 0.950 . S
C448 C446 1.391 1_655 S
C448 C449 1.400 1_655 S
C449 C443 1.491 1_455 S
C449 C448 1.400 1_455 S
C449 C450 1.398 . S
C450 H438 0.950 . S
C450 C449 1.398 . S
C450 C451 1.391 . S
C451 H439 0.950 . S
C451 C447 1.393 . S
C451 C450 1.391 . S
H452 C460 0.950 . S
H453 C465 0.950 1_565 S
H454 C462 0.950 . S
H455 C464 0.950 . S
H456 C466 0.950 . S
H457 C468 0.950 . S
H458 C470 0.950 . S
H459 C471 0.950 1_545 S
C460 H452 0.950 . S
C460 C461 1.386 . S
C460 C462 1.391 . S
C461 C460 1.386 . S
C461 C465 1.393 . S
C462 H454 0.950 . S
C462 C460 1.391 . S
C462 C463 1.400 . S
C463 C462 1.400 . S
C463 C464 1.398 1_545 S
C463 C469 1.491 1_545 S
C464 H455 0.950 . S
C464 C463 1.398 1_565 S
C464 C465 1.391 1_565 S
C465 H453 0.950 1_545 S
C465 C461 1.393 . S
C465 C464 1.391 1_545 S
C466 H456 0.950 . S
C466 C467 1.386 . S
C466 C468 1.391 . S
C467 C466 1.386 . S
C467 C471 1.393 . S
C468 H457 0.950 . S
C468 C466 1.391 . S
C468 C469 1.400 . S
C469 C463 1.491 1_565 S
C469 C468 1.400 . S
C469 C470 1.398 1_565 S
C470 H458 0.950 . S
C470 C469 1.398 1_545 S
C470 C471 1.391 1_545 S
C471 H459 0.950 1_565 S
C471 C467 1.393 . S
C471 C470 1.391 1_565 S
H472 C480 0.950 . S
H473 C485 0.950 . S
H474 C482 0.950 . S
H475 C484 0.950 . S
H476 C486 0.950 . S
H477 C488 0.950 . S
H478 C490 0.950 . S
H479 C491 0.950 . S
C480 H472 0.950 . S
C480 C481 1.386 . S
C480 C482 1.391 . S
C481 C480 1.386 . S
C481 C485 1.393 . S
C482 H474 0.950 . S
C482 C480 1.391 . S
C482 C483 1.400 . S
C483 C482 1.400 . S
C483 C484 1.398 . S
C483 C489 1.491 . S
C484 H475 0.950 . S
C484 C483 1.398 . S
C484 C485 1.391 . S
C485 H473 0.950 . S
C485 C481 1.393 . S
C485 C484 1.391 . S
C486 H476 0.950 . S
C486 C487 1.386 . S
C486 C488 1.391 . S
C487 C486 1.386 . S
C487 C491 1.393 . S
C488 H477 0.950 . S
C488 C486 1.391 . S
C488 C489 1.400 . S
C489 C483 1.491 . S
C489 C488 1.400 . S
C489 C490 1.398 . S
C490 H478 0.950 . S
C490 C489 1.398 . S
C490 C491 1.391 . S
C491 H479 0.950 . S
C491 C487 1.393 . S
C491 C490 1.391 . S
H492 C500 0.950 . S
H493 C505 0.950 . S
H494 C502 0.950 . S
H495 C504 0.950 . S
H496 C506 0.950 . S
H497 C508 0.950 . S
H498 C510 0.950 . S
H499 C511 0.950 . S
C500 H492 0.950 . S
C500 C501 1.386 . S
C500 C502 1.391 . S
C501 C500 1.386 . S
C501 C505 1.393 . S
C502 H494 0.950 . S
C502 C500 1.391 . S
C502 C503 1.400 . S
C503 C502 1.400 . S
C503 C504 1.398 . S
C503 C509 1.491 . S
C504 H495 0.950 . S
C504 C503 1.398 . S
C504 C505 1.391 . S
C505 H493 0.950 . S
C505 C501 1.393 . S
C505 C504 1.391 . S
C506 H496 0.950 . S
C506 C507 1.386 . S
C506 C508 1.391 . S
C507 C506 1.386 . S
C507 C511 1.393 . S
C508 H497 0.950 . S
C508 C506 1.391 . S
C508 C509 1.400 . S
C509 C503 1.491 . S
C509 C508 1.400 . S
C509 C510 1.398 . S
C510 H498 0.950 . S
C510 C509 1.398 . S
C510 C511 1.391 . S
C511 H499 0.950 . S
C511 C507 1.393 . S
C511 C510 1.391 . S
H512 C520 0.950 . S
H513 C525 0.950 . S
H514 C522 0.950 . S
H515 C524 0.950 . S
H516 C526 0.950 . S
H517 C528 0.950 . S
H518 C530 0.950 . S
H519 C531 0.950 . S
C520 H512 0.950 . S
C520 C521 1.386 . S
C520 C522 1.391 . S
C521 C520 1.386 . S
C521 C525 1.393 . S
C522 H514 0.950 . S
C522 C520 1.391 . S
C522 C523 1.400 . S
C523 C522 1.400 . S
C523 C524 1.398 . S
C523 C529 1.491 . S
C524 H515 0.950 . S
C524 C523 1.398 . S
C524 C525 1.391 . S
C525 H513 0.950 . S
C525 C521 1.393 . S
C525 C524 1.391 . S
C526 H516 0.950 . S
C526 C527 1.386 . S
C526 C528 1.391 . S
C527 C526 1.386 . S
C527 C531 1.393 . S
C528 H517 0.950 . S
C528 C526 1.391 . S
C528 C529 1.400 . S
C529 C523 1.491 . S
C529 C528 1.400 . S
C529 C530 1.398 . S
C530 H518 0.950 . S
C530 C529 1.398 . S
C530 C531 1.391 . S
C531 H519 0.950 . S
C531 C527 1.393 . S
C531 C530 1.391 . S
H532 C540 0.950 . S
H533 C545 0.950 . S
H534 C542 0.950 . S
H535 C544 0.950 . S
H536 C546 0.950 . S
H537 C548 0.950 . S
H538 C550 0.950 . S
H539 C551 0.950 . S
C540 H532 0.950 . S
C540 C541 1.386 . S
C540 C542 1.391 . S
C541 C540 1.386 . S
C541 C545 1.393 . S
C542 H534 0.950 . S
C542 C540 1.391 . S
C542 C543 1.400 . S
C543 C542 1.400 . S
C543 C544 1.398 . S
C543 C549 1.491 . S
C544 H535 0.950 . S
C544 C543 1.398 . S
C544 C545 1.391 . S
C545 H533 0.950 . S
C545 C541 1.393 . S
C545 C544 1.391 . S
C546 H536 0.950 . S
C546 C547 1.386 . S
C546 C548 1.391 . S
C547 C546 1.386 . S
C547 C551 1.393 . S
C548 H537 0.950 . S
C548 C546 1.391 . S
C548 C549 1.400 . S
C549 C543 1.491 . S
C549 C548 1.400 . S
C549 C550 1.398 . S
C550 H538 0.950 . S
C550 C549 1.398 . S
C550 C551 1.391 . S
C551 H539 0.950 . S
C551 C547 1.393 . S
C551 C550 1.391 . S
H552 C560 0.950 . S
H553 C565 0.950 . S
H554 C562 0.950 . S
H555 C564 0.950 . S
H556 C566 0.950 . S
H557 C568 0.950 . S
H558 C570 0.950 . S
H559 C571 0.950 . S
C560 H552 0.950 . S
C560 C561 1.386 . S
C560 C562 1.391 1_655 S
C561 C560 1.386 . S
C561 C565 1.393 . S
C562 H554 0.950 . S
C562 C560 1.391 1_455 S
C562 C563 1.400 . S
C563 C562 1.400 . S
C563 C564 1.398 . S
C563 C569 1.491 . S
C564 H555 0.950 . S
C564 C563 1.398 . S
C564 C565 1.391 1_455 S
C565 H553 0.950 . S
C565 C561 1.393 . S
C565 C564 1.391 1_655 S
C566 H556 0.950 . S
C566 C567 1.386 . S
C566 C568 1.391 . S
C567 C566 1.386 . S
C567 C571 1.393 . S
C568 H557 0.950 . S
C568 C566 1.391 . S
C568 C569 1.400 . S
C569 C563 1.491 . S
C569 C568 1.400 . S
C569 C570 1.398 . S
C570 H558 0.950 . S
C570 C569 1.398 . S
C570 C571 1.391 . S
C571 H559 0.950 . S
C571 C567 1.393 . S
C571 C570 1.391 . S
H572 C580 0.950 . S
H573 C585 0.950 . S
H574 C582 0.950 . S
H575 C584 0.950 . S
H576 C586 0.950 . S
H577 C588 0.950 . S
H578 C590 0.950 . S
H579 C591 0.950 . S
C580 H572 0.950 . S
C580 C581 1.386 . S
C580 C582 1.391 1_545 S
C581 C580 1.386 . S
C581 C585 1.393 . S
C582 H574 0.950 . S
C582 C580 1.391 1_565 S
C582 C583 1.400 . S
C583 C582 1.400 . S
C583 C584 1.398 . S
C583 C589 1.491 . S
C584 H575 0.950 . S
C584 C583 1.398 . S
C584 C585 1.391 1_565 S
C585 H573 0.950 . S
C585 C581 1.393 . S
C585 C584 1.391 1_545 S
C586 H576 0.950 . S
C586 C587 1.386 . S
C586 C588 1.391 . S
C587 C586 1.386 . S
C587 C591 1.393 . S
C588 H577 0.950 . S
C588 C586 1.391 . S
C588 C589 1.400 . S
C589 C583 1.491 . S
C589 C588 1.400 . S
C589 C590 1.398 . S
C590 H578 0.950 . S
C590 C589 1.398 . S
C590 C591 1.391 . S
C591 H579 0.950 . S
C591 C587 1.393 . S
C591 C590 1.391 . S
H592 C600 0.950 . S
H593 C605 0.950 . S
H594 C602 0.950 . S
H595 C604 0.950 . S
H596 C606 0.950 . S
H597 C608 0.950 . S
H598 C610 0.950 . S
H599 C611 0.950 . S
C600 H592 0.950 . S
C600 C601 1.386 . S
C600 C602 1.391 . S
C601 C600 1.386 . S
C601 C605 1.393 . S
C602 H594 0.950 . S
C602 C600 1.391 . S
C602 C603 1.400 . S
C603 C602 1.400 . S
C603 C604 1.398 . S
C603 C609 1.491 . S
C604 H595 0.950 . S
C604 C603 1.398 . S
C604 C605 1.391 . S
C605 H593 0.950 . S
C605 C601 1.393 . S
C605 C604 1.391 . S
C606 H596 0.950 . S
C606 C607 1.386 . S
C606 C608 1.391 1_455 S
C607 C606 1.386 . S
C607 C611 1.393 . S
C608 H597 0.950 . S
C608 C606 1.391 1_655 S
C608 C609 1.400 . S
C609 C603 1.491 . S
C609 C608 1.400 . S
C609 C610 1.398 . S
C610 H598 0.950 . S
C610 C609 1.398 . S
C610 C611 1.391 1_655 S
C611 H599 0.950 . S
C611 C607 1.393 . S
C611 C610 1.391 1_455 S
H612 C620 0.950 . S
H613 C625 0.950 . S
H614 C622 0.950 . S
H615 C624 0.950 . S
H616 C626 0.950 . S
H617 C628 0.950 . S
H618 C630 0.950 . S
H619 C631 0.950 . S
C620 H612 0.950 . S
C620 C621 1.386 . S
C620 C622 1.391 . S
C621 C620 1.386 . S
C621 C625 1.393 . S
C622 H614 0.950 . S
C622 C620 1.391 . S
C622 C623 1.400 . S
C623 C622 1.400 . S
C623 C624 1.398 . S
C623 C629 1.491 . S
C624 H615 0.950 . S
C624 C623 1.398 . S
C624 C625 1.391 . S
C625 H613 0.950 . S
C625 C621 1.393 . S
C625 C624 1.391 . S
C626 H616 0.950 . S
C626 C627 1.386 . S
C626 C628 1.391 1_565 S
C627 C626 1.386 . S
C627 C631 1.393 . S
C628 H617 0.950 . S
C628 C626 1.391 1_545 S
C628 C629 1.400 . S
C629 C623 1.491 . S
C629 C628 1.400 . S
C629 C630 1.398 . S
C630 H618 0.950 . S
C630 C629 1.398 . S
C630 C631 1.391 1_545 S
C631 H619 0.950 . S
C631 C627 1.393 . S
C631 C630 1.391 1_565 S
H632 C640 0.950 . S
H633 C645 0.950 . S
H634 C642 0.950 . S
H635 C644 0.950 . S
H636 C646 0.950 . S
H637 C648 0.950 . S
H638 C650 0.950 . S
H639 C651 0.950 . S
C640 H632 0.950 . S
C640 C641 1.386 . S
C640 C642 1.391 . S
C641 C640 1.386 . S
C641 C645 1.393 . S
C642 H634 0.950 . S
C642 C640 1.391 . S
C642 C643 1.400 . S
C643 C642 1.400 . S
C643 C644 1.398 . S
C643 C649 1.491 . S
C644 H635 0.950 . S
C644 C643 1.398 . S
C644 C645 1.391 . S
C645 H633 0.950 . S
C645 C641 1.393 . S
C645 C644 1.391 . S
C646 H636 0.950 . S
C646 C647 1.386 . S
C646 C648 1.391 . S
C647 C646 1.386 . S
C647 C651 1.393 . S
C648 H637 0.950 . S
C648 C646 1.391 . S
C648 C649 1.400 . S
C649 C643 1.491 . S
C649 C648 1.400 . S
C649 C650 1.398 . S
C650 H638 0.950 . S
C650 C649 1.398 . S
C650 C651 1.391 . S
C651 H639 0.950 . S
C651 C647 1.393 . S
C651 C650 1.391 . S
H652 C660 0.950 . S
H653 C665 0.950 . S
H654 C662 0.950 . S
H655 C664 0.950 . S
H656 C666 0.950 . S
H657 C668 0.950 . S
H658 C670 0.950 . S
H659 C671 0.950 . S
C660 H652 0.950 . S
C660 C661 1.386 . S
C660 C662 1.391 . S
C661 C660 1.386 . S
C661 C665 1.393 . S
C662 H654 0.950 . S
C662 C660 1.391 . S
C662 C663 1.400 . S
C663 C662 1.400 . S
C663 C664 1.398 . S
C663 C669 1.491 . S
C664 H655 0.950 . S
C664 C663 1.398 . S
C664 C665 1.391 . S
C665 H653 0.950 . S
C665 C661 1.393 . S
C665 C664 1.391 . S
C666 H656 0.950 . S
C666 C667 1.386 . S
C666 C668 1.391 . S
C667 C666 1.386 . S
C667 C671 1.393 . S
C668 H657 0.950 . S
C668 C666 1.391 . S
C668 C669 1.400 . S
C669 C663 1.491 . S
C669 C668 1.400 . S
C669 C670 1.398 . S
C670 H658 0.950 . S
C670 C669 1.398 . S
C670 C671 1.391 . S
C671 H659 0.950 . S
C671 C667 1.393 . S
C671 C670 1.391 . S
H672 C680 0.950 . S
H673 C685 0.950 . S
H674 C682 0.950 . S
H675 C684 0.950 . S
H676 C686 0.950 . S
H677 C688 0.950 . S
H678 C690 0.950 . S
H679 C691 0.950 . S
C680 H672 0.950 . S
C680 C681 1.386 . S
C680 C682 1.391 . S
C681 C680 1.386 . S
C681 C685 1.393 . S
C682 H674 0.950 . S
C682 C680 1.391 . S
C682 C683 1.400 . S
C683 C682 1.400 . S
C683 C684 1.398 . S
C683 C689 1.491 . S
C684 H675 0.950 . S
C684 C683 1.398 . S
C684 C685 1.391 . S
C685 H673 0.950 . S
C685 C681 1.393 . S
C685 C684 1.391 . S
C686 H676 0.950 . S
C686 C687 1.386 . S
C686 C688 1.391 . S
C687 C686 1.386 . S
C687 C691 1.393 . S
C688 H677 0.950 . S
C688 C686 1.391 . S
C688 C689 1.400 . S
C689 C683 1.491 . S
C689 C688 1.400 . S
C689 C690 1.398 . S
C690 H678 0.950 . S
C690 C689 1.398 . S
C690 C691 1.391 . S
C691 H679 0.950 . S
C691 C687 1.393 . S
C691 C690 1.391 . S
H692 C700 0.950 . S
H693 C705 0.950 . S
H694 C702 0.950 . S
H695 C704 0.950 . S
H696 C706 0.950 . S
H697 C708 0.950 . S
H698 C710 0.950 . S
H699 C711 0.950 . S
C700 H692 0.950 . S
C700 C701 1.386 . S
C700 C702 1.391 . S
C701 C700 1.386 . S
C701 C705 1.393 . S
C702 H694 0.950 . S
C702 C700 1.391 . S
C702 C703 1.400 . S
C703 C702 1.400 . S
C703 C704 1.398 . S
C703 C709 1.491 . S
C704 H695 0.950 . S
C704 C703 1.398 . S
C704 C705 1.391 . S
C705 H693 0.950 . S
C705 C701 1.393 . S
C705 C704 1.391 . S
C706 H696 0.950 . S
C706 C707 1.386 . S
C706 C708 1.391 . S
C707 C706 1.386 . S
C707 C711 1.393 . S
C708 H697 0.950 . S
C708 C706 1.391 . S
C708 C709 1.400 . S
C709 C703 1.491 . S
C709 C708 1.400 . S
C709 C710 1.398 . S
C710 H698 0.950 . S
C710 C709 1.398 . S
C710 C711 1.391 . S
C711 H699 0.950 . S
C711 C707 1.393 . S
C711 C710 1.391 . S
H712 C720 0.950 . S
H713 C725 0.950 . S
H714 C722 0.950 . S
H715 C724 0.950 1_544 S
H716 C726 0.950 . S
H717 C728 0.950 . S
H718 C730 0.950 . S
H719 C731 0.950 . S
C720 H712 0.950 . S
C720 C721 1.386 . S
C720 C722 1.391 1_565 S
C721 C720 1.386 . S
C721 C725 1.393 . S
C722 H714 0.950 . S
C722 C720 1.391 1_545 S
C722 C723 1.400 . S
C723 C722 1.400 . S
C723 C724 1.398 1_545 S
C723 C729 1.491 1_556 S
C724 H715 0.950 1_566 S
C724 C723 1.398 1_565 S
C724 C725 1.391 . S
C725 H713 0.950 . S
C725 C721 1.393 . S
C725 C724 1.391 . S
C726 H716 0.950 . S
C726 C727 1.386 . S
C726 C728 1.391 . S
C727 C726 1.386 . S
C727 C731 1.393 . S
C728 H717 0.950 . S
C728 C726 1.391 . S
C728 C729 1.400 . S
C729 C723 1.491 1_554 S
C729 C728 1.400 . S
C729 C730 1.398 . S
C730 H718 0.950 . S
C730 C729 1.398 . S
C730 C731 1.391 . S
C731 H719 0.950 . S
C731 C727 1.393 . S
C731 C730 1.391 . S
H732 C740 0.950 . S
H733 C745 0.950 . S
H734 C742 0.950 . S
H735 C744 0.950 1_556 S
H736 C746 0.950 . S
H737 C748 0.950 . S
H738 C750 0.950 . S
H739 C751 0.950 . S
C740 H732 0.950 . S
C740 C741 1.386 . S
C740 C742 1.391 1_655 S
C741 C740 1.386 . S
C741 C745 1.393 . S
C742 H734 0.950 . S
C742 C740 1.391 1_455 S
C742 C743 1.400 . S
C743 C742 1.400 . S
C743 C744 1.398 . S
C743 C749 1.491 1_554 S
C744 H735 0.950 1_554 S
C744 C743 1.398 . S
C744 C745 1.391 1_455 S
C745 H733 0.950 . S
C745 C741 1.393 . S
C745 C744 1.391 1_655 S
C746 H736 0.950 . S
C746 C747 1.386 . S
C746 C748 1.391 . S
C747 C746 1.386 . S
C747 C751 1.393 . S
C748 H737 0.950 . S
C748 C746 1.391 . S
C748 C749 1.400 . S
C749 C743 1.491 1_556 S
C749 C748 1.400 . S
C749 C750 1.398 . S
C750 H738 0.950 . S
C750 C749 1.398 . S
C750 C751 1.391 . S
C751 H739 0.950 . S
C751 C747 1.393 . S
C751 C750 1.391 . S
H752 C760 0.950 . S
H753 C765 0.950 . S
H754 C762 0.950 . S
H755 C764 0.950 . S
H756 C766 0.950 . S
H757 C768 0.950 . S
H758 C770 0.950 . S
H759 C771 0.950 . S
C760 H752 0.950 . S
C760 C761 1.386 . S
C760 C762 1.391 . S
C761 C760 1.386 . S
C761 C765 1.393 . S
C762 H754 0.950 . S
C762 C760 1.391 . S
C762 C763 1.400 . S
C763 C762 1.400 . S
C763 C764 1.398 . S
C763 C769 1.491 1_554 S
C764 H755 0.950 . S
C764 C763 1.398 . S
C764 C765 1.391 . S
C765 H753 0.950 . S
C765 C761 1.393 . S
C765 C764 1.391 . S
C766 H756 0.950 . S
C766 C767 1.386 . S
C766 C768 1.391 1_545 S
C767 C766 1.386 . S
C767 C771 1.393 . S
C768 H757 0.950 . S
C768 C766 1.391 1_565 S
C768 C769 1.400 . S
C769 C763 1.491 1_556 S
C769 C768 1.400 . S
C769 C770 1.398 . S
C770 H758 0.950 . S
C770 C769 1.398 . S
C770 C771 1.391 1_565 S
C771 H759 0.950 . S
C771 C767 1.393 . S
C771 C770 1.391 1_545 S
H772 C780 0.950 . S
H773 C785 0.950 . S
H774 C782 0.950 . S
H775 C784 0.950 . S
H776 C786 0.950 . S
H777 C788 0.950 . S
H778 C790 0.950 . S
H779 C791 0.950 . S
C780 H772 0.950 . S
C780 C781 1.386 . S
C780 C782 1.391 . S
C781 C780 1.386 . S
C781 C785 1.393 . S
C782 H774 0.950 . S
C782 C780 1.391 . S
C782 C783 1.400 . S
C783 C782 1.400 . S
C783 C784 1.398 . S
C783 C789 1.491 1_556 S
C784 H775 0.950 . S
C784 C783 1.398 . S
C784 C785 1.391 . S
C785 H773 0.950 . S
C785 C781 1.393 . S
C785 C784 1.391 . S
C786 H776 0.950 . S
C786 C787 1.386 . S
C786 C788 1.391 1_455 S
C787 C786 1.386 . S
C787 C791 1.393 . S
C788 H777 0.950 . S
C788 C786 1.391 1_655 S
C788 C789 1.400 . S
C789 C783 1.491 1_554 S
C789 C788 1.400 . S
C789 C790 1.398 . S
C790 H778 0.950 . S
C790 C789 1.398 . S
C790 C791 1.391 1_655 S
C791 H779 0.950 . S
C791 C787 1.393 . S
C791 C790 1.391 1_455 S
C241 C15 2.163 . S
C247 C150 2.137 . S
C261 C179 2.123 . S
C267 C44 2.152 . S
C281 C208 2.133 . S
C287 C73 2.160 . S
C301 C102 2.153 . S
C307 C121 2.124 . S
C321 C131 2.158 . S
C327 C92 2.133 . S
C341 C160 2.160 . S
C347 C5 2.133 . S
C361 C189 2.162 . S
C367 C34 2.138 . S
C381 C218 2.156 . S
C387 C63 2.131 . S
C401 C8 1.172 . S
C407 C66 1.208 . S
C421 C95 1.206 . S
C427 C37 1.175 . S
C441 C124 1.175 . S
C447 C182 1.206 . S
C461 C153 1.173 . S
C467 C211 1.208 . S
C481 C10 2.058 . S
C487 C129 1.891 . S
C501 C158 1.898 . S
C507 C39 2.055 . S
C521 C68 2.047 . S
C527 C187 1.871 . S
C541 C216 1.904 . S
C547 C97 2.036 . S
C561 C126 2.059 . S
C567 C13 1.880 . S
C581 C155 2.037 . S
C587 C42 1.880 . S
C601 C71 1.873 . S
C607 C184 2.056 . S
C621 C100 1.902 . S
C627 C213 2.034 . S
C641 C3 0.881 . S
C647 C50 0.862 . S
C661 C79 0.883 . S
C667 C32 0.867 . S
C681 C108 0.882 . S
C687 C61 0.868 . S
C701 C21 0.859 . S
C707 C90 0.882 . S
C721 C224 0.875 . S
C727 C119 0.874 . S
C741 C137 0.871 . S
C747 C148 0.876 . S
C761 C177 0.873 . S
C767 C166 0.876 . S
C781 C206 0.869 . S
C787 C195 0.861 . S
