# Generated by pormake.
# Topology bor-e, (5)-cn, num edge types: 1
# Building blocks:
#     Node 0, Type 0, BuildingBlock: BEQFEK_clean_sbu_0, # of connection points: 5
#     Node 1, Type 0, BuildingBlock: BEQFEK_clean_sbu_0, # of connection points: 5
#     Node 2, Type 0, BuildingBlock: BEQFEK_clean_sbu_0, # of connection points: 5
#     Node 3, Type 0, BuildingBlock: BEQFEK_clean_sbu_0, # of connection points: 5
#     Node 4, Type 0, BuildingBlock: BEQFEK_clean_sbu_0, # of connection points: 5
#     Node 5, Type 0, BuildingBlock: BEQFEK_clean_sbu_0, # of connection points: 5
#     Node 6, Type 0, BuildingBlock: BEQFEK_clean_sbu_0, # of connection points: 5
#     Node 7, Type 0, BuildingBlock: BEQFEK_clean_sbu_0, # of connection points: 5
#     Node 8, Type 0, BuildingBlock: BEQFEK_clean_sbu_0, # of connection points: 5
#     Node 9, Type 0, BuildingBlock: BEQFEK_clean_sbu_0, # of connection points: 5
#     Node 10, Type 0, BuildingBlock: BEQFEK_clean_sbu_0, # of connection points: 5
#     Node 11, Type 0, BuildingBlock: BEQFEK_clean_sbu_0, # of connection points: 5
#     Edge 12, Type (0, 0), BuildingBlock: UVAHIK_clean_linker_0, # of connection points: 2
#     Edge 13, Type (0, 0), BuildingBlock: UVAHIK_clean_linker_0, # of connection points: 2
#     Edge 14, Type (0, 0), BuildingBlock: UVAHIK_clean_linker_0, # of connection points: 2
#     Edge 15, Type (0, 0), BuildingBlock: UVAHIK_clean_linker_0, # of connection points: 2
#     Edge 16, Type (0, 0), BuildingBlock: UVAHIK_clean_linker_0, # of connection points: 2
#     Edge 17, Type (0, 0), BuildingBlock: UVAHIK_clean_linker_0, # of connection points: 2
#     Edge 18, Type (0, 0), BuildingBlock: UVAHIK_clean_linker_0, # of connection points: 2
#     Edge 19, Type (0, 0), BuildingBlock: UVAHIK_clean_linker_0, # of connection points: 2
#     Edge 20, Type (0, 0), BuildingBlock: UVAHIK_clean_linker_0, # of connection points: 2
#     Edge 21, Type (0, 0), BuildingBlock: UVAHIK_clean_linker_0, # of connection points: 2
#     Edge 22, Type (0, 0), BuildingBlock: UVAHIK_clean_linker_0, # of connection points: 2
#     Edge 23, Type (0, 0), BuildingBlock: UVAHIK_clean_linker_0, # of connection points: 2
#     Edge 24, Type (0, 0), BuildingBlock: UVAHIK_clean_linker_0, # of connection points: 2
#     Edge 25, Type (0, 0), BuildingBlock: UVAHIK_clean_linker_0, # of connection points: 2
#     Edge 26, Type (0, 0), BuildingBlock: UVAHIK_clean_linker_0, # of connection points: 2
#     Edge 27, Type (0, 0), BuildingBlock: UVAHIK_clean_linker_0, # of connection points: 2
#     Edge 28, Type (0, 0), BuildingBlock: UVAHIK_clean_linker_0, # of connection points: 2
#     Edge 29, Type (0, 0), BuildingBlock: UVAHIK_clean_linker_0, # of connection points: 2
#     Edge 30, Type (0, 0), BuildingBlock: UVAHIK_clean_linker_0, # of connection points: 2
#     Edge 31, Type (0, 0), BuildingBlock: UVAHIK_clean_linker_0, # of connection points: 2
#     Edge 32, Type (0, 0), BuildingBlock: UVAHIK_clean_linker_0, # of connection points: 2
#     Edge 33, Type (0, 0), BuildingBlock: UVAHIK_clean_linker_0, # of connection points: 2
#     Edge 34, Type (0, 0), BuildingBlock: UVAHIK_clean_linker_0, # of connection points: 2
#     Edge 35, Type (0, 0), BuildingBlock: UVAHIK_clean_linker_0, # of connection points: 2
#     Edge 36, Type (0, 0), BuildingBlock: UVAHIK_clean_linker_0, # of connection points: 2
#     Edge 37, Type (0, 0), BuildingBlock: UVAHIK_clean_linker_0, # of connection points: 2
#     Edge 38, Type (0, 0), BuildingBlock: UVAHIK_clean_linker_0, # of connection points: 2
#     Edge 39, Type (0, 0), BuildingBlock: UVAHIK_clean_linker_0, # of connection points: 2
#     Edge 40, Type (0, 0), BuildingBlock: UVAHIK_clean_linker_0, # of connection points: 2
#     Edge 41, Type (0, 0), BuildingBlock: UVAHIK_clean_linker_0, # of connection points: 2
# Relax obj value: 0.532
# Max RMSD: 0.273
# Mean RMSD: 0.273
data_MOF--net-bor-e--node1-BEQFEK_clean_sbu_0--edge1-UVAHIK_clean_linker_0
_symmetry_space_group_name_H-M    P1
_symmetry_Int_Tables_number       1
_symmetry_cell_setting            triclinic
loop_
_symmetry_equiv_pos_as_xyz
'x, y, z'
_cell_length_a     56.003566
_cell_length_b     56.019021
_cell_length_c     56.060228
_cell_angle_alpha  90.02823
_cell_angle_beta   89.991227
_cell_angle_gamma 90.016383
loop_
_atom_site_label
_atom_site_type_symbol
_atom_site_fract_x
_atom_site_fract_y
_atom_site_fract_z
_atom_type_partial_charge
Co0 Co 0.10134 0.13609 0.57537 0.0
Co1 Co 0.07297 0.15198 0.62066 0.0
C2 C 0.07314 0.18085 0.57519 0.0
O3 O 0.08726 0.16671 0.5643 0.0
O4 O 0.06643 0.17668 0.59648 0.0
C5 C 0.1148 0.11407 0.53207 0.0
O6 O 0.09246 0.11866 0.52656 0.0
C7 C 0.06221 0.18486 0.65911 0.0
C8 C 0.04611 0.1614 0.68641 0.0
C9 C 0.0534 0.18466 0.68219 0.0
N10 N 0.06025 0.16276 0.65011 0.0
N11 N 0.05016 0.14888 0.66629 0.0
C12 C 0.07543 0.20469 0.64701 0.0
H13 H 0.08761 0.19748 0.63315 0.0
H14 H 0.08589 0.21523 0.66012 0.0
H15 H 0.06237 0.21678 0.63834 0.0
C16 C 0.14009 0.1325 0.61078 0.0
N17 N 0.11795 0.13942 0.60451 0.0
N18 N 0.10618 0.14615 0.62367 0.0
C19 C 0.1206 0.14397 0.64279 0.0
C20 C 0.1425 0.13508 0.63529 0.0
C21 C 0.1569 0.12003 0.59416 0.0
H22 H 0.14811 0.10369 0.58721 0.0
H23 H 0.16089 0.13185 0.57879 0.0
H24 H 0.17381 0.11481 0.60296 0.0
O25 O 0.07604 0.11163 0.57927 0.0
O26 O 0.05637 0.12204 0.612 0.0
H27 H 0.09843 0.13705 0.67311 0.0
H28 H 0.12817 0.14725 0.68065 0.0
C29 C 0.11317 0.14921 0.66791 0.0
H30 H 0.10661 0.1678 0.66906 0.0
H31 H 0.04712 0.13065 0.66401 0.0
O32 O 0.12314 0.12232 0.55144 0.0
C33 C 0.05968 0.10784 0.59457 0.0
Co34 Co 0.10265 0.85908 0.42074 0.0
Co35 Co 0.07539 0.84289 0.37497 0.0
C36 C 0.07446 0.81521 0.42184 0.0
O37 O 0.08887 0.8289 0.4329 0.0
O38 O 0.06822 0.81957 0.40046 0.0
C39 C 0.11501 0.88367 0.46313 0.0
O40 O 0.09271 0.87893 0.46871 0.0
C41 C 0.07386 0.80875 0.33674 0.0
C42 C 0.0466 0.82298 0.31208 0.0
C43 C 0.06302 0.8047 0.31497 0.0
N44 N 0.06471 0.82875 0.34616 0.0
N45 N 0.04821 0.83711 0.33151 0.0
C46 C 0.09226 0.79356 0.34882 0.0
H47 H 0.09202 0.79652 0.36836 0.0
H48 H 0.11028 0.79831 0.34219 0.0
H49 H 0.08909 0.7744 0.34485 0.0
C50 C 0.14289 0.85993 0.38658 0.0
N51 N 0.12015 0.85455 0.39226 0.0
N52 N 0.1084 0.84919 0.37268 0.0
C53 C 0.12307 0.8517 0.35381 0.0
C54 C 0.14548 0.85822 0.36205 0.0
C55 C 0.1613 0.86803 0.40412 0.0
H56 H 0.15984 0.85744 0.42078 0.0
H57 H 0.17958 0.86617 0.3967 0.0
H58 H 0.15808 0.88707 0.4085 0.0
O59 O 0.07662 0.8828 0.41506 0.0
O60 O 0.0584 0.87297 0.38122 0.0
H61 H 0.09588 0.85758 0.32726 0.0
H62 H 0.12569 0.8651 0.31776 0.0
C63 C 0.11491 0.8523 0.32835 0.0
H64 H 0.11715 0.83438 0.32026 0.0
H65 H 0.03842 0.85267 0.33454 0.0
O66 O 0.12365 0.87476 0.4442 0.0
C67 C 0.06099 0.88686 0.39902 0.0
Co68 Co 0.88589 0.85938 0.57487 0.0
Co69 Co 0.91652 0.84167 0.61778 0.0
C70 C 0.91312 0.81508 0.5705 0.0
O71 O 0.898 0.82921 0.56113 0.0
O72 O 0.92127 0.81877 0.59136 0.0
C73 C 0.87048 0.88343 0.5332 0.0
O74 O 0.892 0.87781 0.52574 0.0
C75 C 0.91947 0.80719 0.65543 0.0
C76 C 0.94947 0.81956 0.67783 0.0
C77 C 0.93182 0.80228 0.67619 0.0
N78 N 0.92898 0.8267 0.6454 0.0
N79 N 0.9471 0.83395 0.65867 0.0
C80 C 0.89919 0.7933 0.64486 0.0
H81 H 0.89824 0.79616 0.62532 0.0
H82 H 0.8821 0.79941 0.65273 0.0
H83 H 0.90123 0.77398 0.64877 0.0
C84 C 0.84898 0.86154 0.61211 0.0
N85 N 0.87071 0.85471 0.60447 0.0
N86 N 0.88393 0.84893 0.62296 0.0
C87 C 0.87124 0.85262 0.64307 0.0
C88 C 0.84861 0.86047 0.6368 0.0
C89 C 0.82972 0.87093 0.5962 0.0
H90 H 0.83403 0.88959 0.59117 0.0
H91 H 0.82875 0.86005 0.57969 0.0
H92 H 0.81211 0.87065 0.6053 0.0
O93 O 0.91249 0.88281 0.57923 0.0
O94 O 0.93384 0.87133 0.61061 0.0
H95 H 0.90115 0.85756 0.66673 0.0
H96 H 0.8728 0.86675 0.67893 0.0
C97 C 0.88186 0.85326 0.66761 0.0
H98 H 0.87955 0.8356 0.67621 0.0
H99 H 0.95749 0.84896 0.65494 0.0
O100 O 0.86343 0.87548 0.55318 0.0
C101 C 0.92972 0.88603 0.59377 0.0
Co102 Co 0.88803 0.13499 0.42085 0.0
Co103 Co 0.91743 0.15238 0.37701 0.0
C104 C 0.91523 0.17948 0.42402 0.0
O105 O 0.90033 0.16539 0.43382 0.0
O106 O 0.92298 0.17564 0.40303 0.0
C107 C 0.87317 0.11164 0.46325 0.0
O108 O 0.89493 0.11695 0.47025 0.0
C109 C 0.92085 0.18605 0.33845 0.0
C110 C 0.95064 0.17242 0.31648 0.0
C111 C 0.93347 0.19019 0.31767 0.0
N112 N 0.92979 0.16651 0.34893 0.0
N113 N 0.94777 0.15851 0.3359 0.0
C114 C 0.90106 0.20082 0.34871 0.0
H115 H 0.89954 0.19784 0.36821 0.0
H116 H 0.88386 0.19568 0.34039 0.0
H117 H 0.90417 0.22004 0.34501 0.0
C118 C 0.85013 0.13252 0.38448 0.0
N119 N 0.87208 0.13932 0.3915 0.0
N120 N 0.88472 0.14528 0.37266 0.0
C121 C 0.87144 0.1417 0.35292 0.0
C122 C 0.84901 0.13379 0.35982 0.0
C123 C 0.83131 0.12313 0.40092 0.0
H124 H 0.8359 0.10457 0.40605 0.0
H125 H 0.83063 0.13418 0.41733 0.0
H126 H 0.81349 0.12318 0.39224 0.0
O127 O 0.91467 0.1115 0.41649 0.0
O128 O 0.93444 0.12261 0.38395 0.0
H129 H 0.90063 0.13671 0.32836 0.0
H130 H 0.87192 0.12763 0.317 0.0
C131 C 0.88134 0.14109 0.32807 0.0
H132 H 0.87884 0.15875 0.31956 0.0
H133 H 0.95778 0.14335 0.34003 0.0
O134 O 0.86592 0.1194 0.44327 0.0
C135 C 0.93119 0.10817 0.40117 0.0
Co136 Co 0.57642 0.10347 0.13621 0.0
Co137 Co 0.62027 0.07293 0.152 0.0
C138 C 0.57452 0.07594 0.18087 0.0
O139 O 0.56412 0.09044 0.16677 0.0
O140 O 0.59547 0.06831 0.17653 0.0
C141 C 0.53404 0.11894 0.11365 0.0
O142 O 0.52708 0.09716 0.11891 0.0
C143 C 0.65805 0.0643 0.1857 0.0
C144 C 0.6819 0.03913 0.1669 0.0
C145 C 0.67935 0.05185 0.188 0.0
N146 N 0.64854 0.05913 0.16438 0.0
N147 N 0.66266 0.04385 0.15327 0.0
C148 C 0.64782 0.08268 0.2022 0.0
H149 H 0.63493 0.09427 0.19265 0.0
H150 H 0.66221 0.09383 0.21002 0.0
H151 H 0.63815 0.07357 0.21688 0.0
C152 C 0.61358 0.14081 0.13405 0.0
N153 N 0.60634 0.11865 0.13984 0.0
N154 N 0.62506 0.10569 0.14552 0.0
C155 C 0.6449 0.11913 0.14327 0.0
C156 C 0.63824 0.14184 0.136 0.0
C157 C 0.5973 0.1602 0.12559 0.0
H158 H 0.59196 0.15642 0.10691 0.0
H159 H 0.58096 0.1606 0.13676 0.0
H160 H 0.60618 0.1779 0.12632 0.0
O161 O 0.57937 0.07748 0.11215 0.0
O162 O 0.61111 0.05617 0.1225 0.0
H163 H 0.67055 0.0913 0.13723 0.0
H164 H 0.6827 0.12107 0.13519 0.0
C165 C 0.66981 0.10954 0.14484 0.0
H166 H 0.67523 0.10866 0.16385 0.0
H167 H 0.65948 0.03717 0.13618 0.0
O168 O 0.55399 0.12622 0.12153 0.0
C169 C 0.59376 0.06027 0.10841 0.0
Co170 Co 0.13492 0.42327 0.88546 0.0
Co171 Co 0.1521 0.37934 0.91497 0.0
C172 C 0.17992 0.42616 0.91154 0.0
O173 O 0.16546 0.43637 0.89728 0.0
O174 O 0.17595 0.40515 0.91923 0.0
C175 C 0.10931 0.46447 0.87169 0.0
O176 O 0.11482 0.47126 0.89344 0.0
C177 C 0.18562 0.34053 0.91712 0.0
C178 C 0.1736 0.31906 0.94791 0.0
C179 C 0.19044 0.31994 0.92981 0.0
N180 N 0.16658 0.35119 0.9269 0.0
N181 N 0.15951 0.33844 0.94545 0.0
C182 C 0.1994 0.35052 0.8965 0.0
H183 H 0.19642 0.37003 0.89494 0.0
H184 H 0.19332 0.34203 0.87971 0.0
H185 H 0.21875 0.34678 0.89864 0.0
C186 C 0.13285 0.38668 0.84758 0.0
N187 N 0.13909 0.39374 0.86967 0.0
N188 N 0.14412 0.37487 0.88261 0.0
C189 C 0.14012 0.35507 0.86958 0.0
C190 C 0.13315 0.36188 0.84678 0.0
C191 C 0.12586 0.40345 0.82804 0.0
H192 H 0.13669 0.42 0.82912 0.0
H193 H 0.1284 0.39508 0.81027 0.0
H194 H 0.10679 0.40831 0.83019 0.0
O195 O 0.11195 0.41905 0.91255 0.0
O196 O 0.12283 0.38671 0.93276 0.0
H197 H 0.12412 0.32001 0.87121 0.0
H198 H 0.15557 0.32095 0.87728 0.0
C199 C 0.13845 0.33048 0.88002 0.0
H200 H 0.1346 0.3314 0.89938 0.0
H201 H 0.14493 0.34279 0.9562 0.0
O202 O 0.11826 0.44527 0.86366 0.0
C203 C 0.1086 0.4041 0.92937 0.0
Co204 Co 0.42311 0.88587 0.13515 0.0
Co205 Co 0.37914 0.91585 0.15143 0.0
C206 C 0.42638 0.91418 0.17864 0.0
O207 O 0.43633 0.89881 0.16517 0.0
O208 O 0.40539 0.92175 0.17436 0.0
C209 C 0.46479 0.87131 0.11066 0.0
O210 O 0.47153 0.8932 0.11574 0.0
C211 C 0.34089 0.91834 0.1854 0.0
C212 C 0.31874 0.94857 0.17316 0.0
C213 C 0.32016 0.9308 0.19029 0.0
N214 N 0.35112 0.92794 0.16604 0.0
N215 N 0.33798 0.94617 0.15885 0.0
C216 C 0.35136 0.89805 0.1993 0.0
H217 H 0.37087 0.89682 0.19619 0.0
H218 H 0.34313 0.88103 0.19345 0.0
H219 H 0.34771 0.90032 0.21863 0.0
C220 C 0.3867 0.84783 0.13425 0.0
N221 N 0.39375 0.87006 0.14003 0.0
N222 N 0.37487 0.88312 0.14477 0.0
C223 C 0.35507 0.87 0.14102 0.0
C224 C 0.36188 0.84703 0.13453 0.0
C225 C 0.40348 0.8282 0.12746 0.0
H226 H 0.41997 0.82933 0.13837 0.0
H227 H 0.39508 0.81044 0.13005 0.0
H228 H 0.40849 0.83024 0.10842 0.0
O229 O 0.4185 0.91222 0.1113 0.0
O230 O 0.38587 0.93243 0.12147 0.0
H231 H 0.3201 0.87134 0.12476 0.0
H232 H 0.32086 0.87816 0.15605 0.0
C233 C 0.33051 0.88046 0.13894 0.0
H234 H 0.3315 0.89973 0.13464 0.0
H235 H 0.34192 0.95669 0.14401 0.0
O236 O 0.44528 0.86363 0.11924 0.0
C237 C 0.40329 0.92872 0.10736 0.0
Co238 Co 0.85537 0.57224 0.89203 0.0
Co239 Co 0.84156 0.6185 0.91988 0.0
C240 C 0.81156 0.57345 0.92111 0.0
O241 O 0.82489 0.56183 0.90678 0.0
O242 O 0.81668 0.59469 0.92735 0.0
C243 C 0.87748 0.52886 0.87876 0.0
O244 O 0.87362 0.52372 0.9013 0.0
C245 C 0.80932 0.65775 0.92841 0.0
C246 C 0.83137 0.68355 0.94852 0.0
C247 C 0.80894 0.68031 0.93855 0.0
N248 N 0.83087 0.64812 0.93223 0.0
N249 N 0.84392 0.66342 0.94457 0.0
C250 C 0.79064 0.64643 0.913 0.0
H251 H 0.79862 0.63236 0.90156 0.0
H252 H 0.78179 0.66002 0.90164 0.0
H253 H 0.7769 0.63803 0.92454 0.0
C254 C 0.85697 0.60679 0.85215 0.0
N255 N 0.85179 0.60113 0.87491 0.0
N256 N 0.84652 0.62075 0.88668 0.0
C257 C 0.84838 0.63956 0.87185 0.0
C258 C 0.85496 0.6313 0.84947 0.0
C259 C 0.86512 0.58924 0.83377 0.0
H260 H 0.88377 0.58389 0.83778 0.0
H261 H 0.85372 0.57306 0.83444 0.0
H262 H 0.86442 0.597 0.81557 0.0
O263 O 0.88043 0.57621 0.91698 0.0
O264 O 0.87181 0.61012 0.93557 0.0
H265 H 0.8557 0.67727 0.86664 0.0
H266 H 0.82846 0.67038 0.88227 0.0
C267 C 0.84738 0.66508 0.87981 0.0
H268 H 0.85677 0.66709 0.89709 0.0
H269 H 0.86163 0.66046 0.94955 0.0
O270 O 0.86876 0.54798 0.87032 0.0
C271 C 0.88525 0.59207 0.93254 0.0
Co272 Co 0.57515 0.88836 0.85861 0.0
Co273 Co 0.6185 0.91963 0.84276 0.0
C274 C 0.57299 0.91572 0.81375 0.0
O275 O 0.56275 0.90125 0.82801 0.0
O276 O 0.59384 0.92368 0.81803 0.0
C277 C 0.53305 0.8722 0.88119 0.0
O278 O 0.52592 0.89398 0.87621 0.0
C279 C 0.65651 0.92909 0.80948 0.0
C280 C 0.67988 0.95428 0.82885 0.0
C281 C 0.67772 0.94177 0.80758 0.0
N282 N 0.64668 0.93393 0.83073 0.0
N283 N 0.66051 0.94923 0.84217 0.0
C284 C 0.64672 0.91069 0.79273 0.0
H285 H 0.63384 0.89888 0.80204 0.0
H286 H 0.66134 0.89976 0.78503 0.0
H287 H 0.63714 0.91977 0.77797 0.0
C288 C 0.61305 0.85181 0.8612 0.0
N289 N 0.60533 0.87369 0.85494 0.0
N290 N 0.62383 0.88704 0.84938 0.0
C291 C 0.64394 0.8742 0.85231 0.0
C292 C 0.63771 0.85142 0.85962 0.0
C293 C 0.59746 0.83274 0.87149 0.0
H294 H 0.59145 0.83835 0.8895 0.0
H295 H 0.58145 0.83033 0.8601 0.0
H296 H 0.60716 0.81552 0.873 0.0
O297 O 0.5777 0.91431 0.88283 0.0
O298 O 0.60891 0.93624 0.87215 0.0
H299 H 0.6692 0.90197 0.85987 0.0
H300 H 0.68194 0.87226 0.8594 0.0
C301 C 0.66866 0.88429 0.85098 0.0
H302 H 0.67366 0.88672 0.83201 0.0
H303 H 0.65706 0.95568 0.8593 0.0
O304 O 0.55301 0.86516 0.87312 0.0
C305 C 0.59179 0.93181 0.88641 0.0
Co306 Co 0.8625 0.42379 0.10417 0.0
Co307 Co 0.84402 0.38024 0.0748 0.0
C308 C 0.8172 0.42747 0.07869 0.0
O309 O 0.83175 0.43712 0.09324 0.0
O310 O 0.82083 0.40658 0.07049 0.0
C311 C 0.88788 0.46524 0.11839 0.0
O312 O 0.88217 0.47247 0.09683 0.0
C313 C 0.80952 0.3422 0.07262 0.0
C314 C 0.82238 0.31927 0.04324 0.0
C315 C 0.80497 0.32104 0.06074 0.0
N316 N 0.82897 0.35229 0.06299 0.0
N317 N 0.83647 0.3387 0.04522 0.0
C318 C 0.79535 0.35305 0.09254 0.0
H319 H 0.79781 0.37267 0.09294 0.0
H320 H 0.80157 0.34583 0.10986 0.0
H321 H 0.77612 0.34867 0.09057 0.0
C322 C 0.86478 0.38713 0.14187 0.0
N323 N 0.85836 0.39432 0.11988 0.0
N324 N 0.85209 0.37561 0.10718 0.0
C325 C 0.85513 0.35578 0.12043 0.0
C326 C 0.86291 0.3625 0.14292 0.0
C327 C 0.87378 0.40343 0.16099 0.0
H328 H 0.89272 0.4079 0.15727 0.0
H329 H 0.86328 0.42022 0.16105 0.0
H330 H 0.87261 0.39488 0.17881 0.0
O331 O 0.88487 0.41953 0.07661 0.0
O332 O 0.87333 0.38712 0.05681 0.0
H333 H 0.85911 0.33098 0.0913 0.0
H334 H 0.86838 0.31958 0.1199 0.0
C335 C 0.85502 0.33087 0.11063 0.0
H336 H 0.83722 0.32272 0.11348 0.0
H337 H 0.85152 0.34237 0.03487 0.0
O338 O 0.87943 0.44563 0.12592 0.0
C339 C 0.88777 0.40442 0.05982 0.0
Co340 Co 0.42193 0.1027 0.86036 0.0
Co341 Co 0.37751 0.07384 0.84328 0.0
C342 C 0.42471 0.07532 0.81616 0.0
O343 O 0.43483 0.09029 0.82995 0.0
O344 O 0.40363 0.0679 0.82027 0.0
C345 C 0.46407 0.11665 0.8847 0.0
O346 O 0.47065 0.09473 0.87955 0.0
C347 C 0.33972 0.0713 0.80876 0.0
C348 C 0.31682 0.04178 0.82137 0.0
C349 C 0.31894 0.05902 0.80379 0.0
N350 N 0.34941 0.06208 0.82856 0.0
N351 N 0.33581 0.04426 0.83598 0.0
C352 C 0.35071 0.09103 0.79445 0.0
H353 H 0.34963 0.08676 0.77514 0.0
H354 H 0.36958 0.0939 0.7997 0.0
H355 H 0.34074 0.10785 0.79743 0.0
C356 C 0.38618 0.14144 0.86168 0.0
N357 N 0.39279 0.11904 0.85597 0.0
N358 N 0.37373 0.10663 0.85018 0.0
C359 C 0.35426 0.12051 0.85276 0.0
C360 C 0.36156 0.1431 0.85979 0.0
C361 C 0.403 0.16041 0.87005 0.0
H362 H 0.40757 0.15708 0.88901 0.0
H363 H 0.4197 0.15979 0.85942 0.0
H364 H 0.39486 0.17841 0.86848 0.0
O365 O 0.41722 0.0759 0.88354 0.0
O366 O 0.38413 0.05663 0.87302 0.0
H367 H 0.32865 0.09215 0.85734 0.0
H368 H 0.31801 0.12131 0.86589 0.0
C369 C 0.32909 0.11139 0.8528 0.0
H370 H 0.32109 0.11403 0.83492 0.0
H371 H 0.33929 0.03406 0.85116 0.0
O372 O 0.44449 0.12442 0.87637 0.0
C373 C 0.40173 0.05959 0.88711 0.0
Co374 Co 0.13888 0.57588 0.09799 0.0
Co375 Co 0.15309 0.6214 0.06921 0.0
C376 C 0.18253 0.57599 0.06875 0.0
O377 O 0.16942 0.56515 0.08384 0.0
O378 O 0.17753 0.59699 0.06166 0.0
C379 C 0.11734 0.53246 0.11237 0.0
O380 O 0.12141 0.5266 0.09003 0.0
C381 C 0.18564 0.6602 0.05974 0.0
C382 C 0.16292 0.68691 0.04172 0.0
C383 C 0.18572 0.6831 0.05053 0.0
N384 N 0.16386 0.65083 0.05651 0.0
N385 N 0.15043 0.66666 0.0453 0.0
C386 C 0.20484 0.64852 0.07418 0.0
H387 H 0.1973 0.63406 0.08541 0.0
H388 H 0.21399 0.66183 0.08568 0.0
H389 H 0.21829 0.64069 0.06193 0.0
C390 C 0.13701 0.61111 0.13706 0.0
N391 N 0.14249 0.60502 0.11449 0.0
N392 N 0.1482 0.62435 0.10248 0.0
C393 C 0.14637 0.64344 0.11702 0.0
C394 C 0.13926 0.63562 0.1394 0.0
C395 C 0.1282 0.59399 0.15553 0.0
H396 H 0.10976 0.58841 0.15092 0.0
H397 H 0.1397 0.57787 0.15571 0.0
H398 H 0.12816 0.60218 0.17356 0.0
O399 O 0.11404 0.57932 0.07272 0.0
O400 O 0.12276 0.61297 0.05372 0.0
H401 H 0.13762 0.67106 0.09212 0.0
H402 H 0.14106 0.68147 0.12236 0.0
C403 C 0.14799 0.66882 0.1088 0.0
H404 H 0.16691 0.67327 0.10508 0.0
H405 H 0.13245 0.66406 0.04116 0.0
O406 O 0.12552 0.55209 0.12015 0.0
C407 C 0.10931 0.59494 0.0569 0.0
C408 C 0.13637 0.32464 0.82258 0.0
C409 C 0.12427 0.34599 0.82767 0.0
C410 C 0.12676 0.30826 0.80647 0.0
C411 C 0.09246 0.2995 0.75453 0.0
H412 H 0.07069 0.2396 0.78158 0.0
C413 C 0.05002 0.22714 0.69519 0.0
C414 C 0.05638 0.20348 0.70024 0.0
C415 C 0.05544 0.24534 0.71135 0.0
C416 C 0.07693 0.25607 0.77364 0.0
H417 H 0.09281 0.36712 0.81965 0.0
H418 H 0.07671 0.33893 0.79041 0.0
H419 H 0.0876 0.2702 0.80756 0.0
H420 H 0.07281 0.17996 0.72606 0.0
H421 H 0.08316 0.21162 0.75386 0.0
H422 H 0.08318 0.28518 0.72047 0.0
C423 C 0.09349 0.33494 0.79915 0.0
C424 C 0.08644 0.27358 0.78856 0.0
C425 C 0.10284 0.3511 0.81566 0.0
C426 C 0.06752 0.1981 0.72195 0.0
C427 C 0.07335 0.2163 0.7379 0.0
C428 C 0.08341 0.2818 0.73948 0.0
C429 C 0.10518 0.31325 0.79484 0.0
C430 C 0.0944 0.29529 0.77906 0.0
C431 C 0.0677 0.24023 0.73267 0.0
C432 C 0.07571 0.25974 0.74882 0.0
H433 H 0.15303 0.3204 0.83142 0.0
H434 H 0.13604 0.29161 0.80322 0.0
H435 H 0.09862 0.3162 0.74695 0.0
H436 H 0.04118 0.23158 0.67859 0.0
H437 H 0.05029 0.26344 0.70694 0.0
C438 C 0.1743 0.85026 0.32937 0.0
C439 C 0.16593 0.86556 0.34727 0.0
C440 C 0.19173 0.85803 0.3134 0.0
C441 C 0.23694 0.90523 0.30261 0.0
H442 H 0.22791 0.88603 0.23673 0.0
C443 C 0.29243 0.94257 0.22318 0.0
C444 C 0.30199 0.92486 0.20828 0.0
C445 C 0.27563 0.93651 0.24065 0.0
C446 C 0.23068 0.89146 0.25507 0.0
H447 H 0.16911 0.90072 0.36297 0.0
H448 H 0.19943 0.91457 0.33481 0.0
H449 H 0.19967 0.87279 0.26694 0.0
H450 H 0.30075 0.88736 0.19885 0.0
H451 H 0.27151 0.87679 0.22923 0.0
H452 H 0.26791 0.92419 0.29039 0.0
C453 C 0.19296 0.89642 0.33334 0.0
C454 C 0.21462 0.88376 0.27242 0.0
C455 C 0.17565 0.88852 0.34947 0.0
C456 C 0.29407 0.90122 0.21055 0.0
C457 C 0.27715 0.89523 0.22772 0.0
C458 C 0.25293 0.91312 0.28515 0.0
C459 C 0.20086 0.88139 0.31484 0.0
C460 C 0.21774 0.89025 0.29645 0.0
C461 C 0.26786 0.91277 0.24301 0.0
C462 C 0.25009 0.90602 0.26129 0.0
H463 H 0.16702 0.83244 0.32747 0.0
H464 H 0.19781 0.84581 0.29971 0.0
H465 H 0.23995 0.91042 0.32097 0.0
H466 H 0.29824 0.96094 0.22157 0.0
H467 H 0.26855 0.95037 0.25212 0.0
C468 C 0.90182 0.78229 0.70195 0.0
C469 C 0.92559 0.78445 0.6944 0.0
C470 C 0.89549 0.76522 0.71882 0.0
C471 C 0.91306 0.70789 0.74368 0.0
H472 H 0.87042 0.72595 0.79514 0.0
C473 C 0.88624 0.64416 0.82059 0.0
C474 C 0.86277 0.64595 0.82914 0.0
C475 C 0.89459 0.66016 0.80342 0.0
C476 C 0.88206 0.72052 0.78069 0.0
H477 H 0.96159 0.77115 0.69887 0.0
H478 H 0.95043 0.74081 0.72856 0.0
H479 H 0.88462 0.75621 0.76744 0.0
H480 H 0.82926 0.66483 0.82607 0.0
H481 H 0.84353 0.69251 0.79555 0.0
H482 H 0.91015 0.67208 0.75672 0.0
C483 C 0.93672 0.75226 0.72117 0.0
C484 C 0.8903 0.73789 0.76494 0.0
C485 C 0.94311 0.76961 0.70437 0.0
C486 C 0.84745 0.66327 0.81968 0.0
C487 C 0.85571 0.67917 0.80243 0.0
C488 C 0.90468 0.69042 0.7594 0.0
C489 C 0.91282 0.74996 0.72851 0.0
C490 C 0.90565 0.73171 0.74614 0.0
C491 C 0.87954 0.67816 0.79451 0.0
C492 C 0.88887 0.69654 0.77792 0.0
H493 H 0.88809 0.79396 0.69499 0.0
H494 H 0.87693 0.76376 0.72409 0.0
H495 H 0.92473 0.70266 0.72918 0.0
H496 H 0.89841 0.63106 0.82795 0.0
H497 H 0.91307 0.65904 0.79786 0.0
C498 C 0.72182 0.05429 0.20115 0.0
C499 C 0.69746 0.05419 0.20702 0.0
C500 C 0.73894 0.05953 0.21849 0.0
C501 C 0.74797 0.06719 0.28391 0.0
H502 H 0.79745 0.11094 0.26319 0.0
C503 C 0.8229 0.10019 0.34671 0.0
C504 C 0.83044 0.12391 0.34406 0.0
C505 C 0.8068 0.09023 0.33051 0.0
C506 C 0.78361 0.09892 0.26934 0.0
H507 H 0.67212 0.05669 0.23615 0.0
H508 H 0.70169 0.06703 0.2661 0.0
H509 H 0.76956 0.09491 0.2342 0.0
H510 H 0.82711 0.15604 0.32296 0.0
H511 H 0.79832 0.13899 0.29498 0.0
H512 H 0.76139 0.07216 0.31928 0.0
C513 C 0.70772 0.06315 0.24816 0.0
C514 C 0.76786 0.08936 0.25262 0.0
C515 C 0.69066 0.05768 0.23086 0.0
C516 C 0.82143 0.13769 0.32527 0.0
C517 C 0.80516 0.12783 0.30919 0.0
C518 C 0.76362 0.07693 0.3007 0.0
C519 C 0.73201 0.06478 0.24203 0.0
C520 C 0.74974 0.0735 0.2597 0.0
C521 C 0.79789 0.10388 0.31143 0.0
C522 C 0.7815 0.09307 0.29363 0.0
H523 H 0.72761 0.0513 0.18295 0.0
H524 H 0.75756 0.06001 0.2133 0.0
H525 H 0.73439 0.05483 0.28995 0.0
H526 H 0.83005 0.08912 0.36083 0.0
H527 H 0.80188 0.07165 0.33256 0.0
C528 C 0.10695 0.64924 0.16667 0.0
C529 C 0.13085 0.6505 0.15931 0.0
C530 C 0.09851 0.66442 0.18452 0.0
C531 C 0.11765 0.70104 0.23498 0.0
H532 H 0.06057 0.73817 0.2223 0.0
C533 C 0.09344 0.7823 0.29174 0.0
C534 C 0.06938 0.78637 0.29727 0.0
C535 C 0.0998 0.76464 0.27547 0.0
C536 C 0.07629 0.72766 0.22632 0.0
H537 H 0.16483 0.66806 0.16463 0.0
H538 H 0.15019 0.69452 0.19626 0.0
H539 H 0.07395 0.70853 0.1933 0.0
H540 H 0.03296 0.77596 0.28972 0.0
H541 H 0.04404 0.74447 0.26142 0.0
H542 H 0.12001 0.71989 0.26801 0.0
C543 C 0.138 0.6818 0.18829 0.0
C544 C 0.08397 0.71075 0.20968 0.0
C545 C 0.14635 0.6668 0.17023 0.0
C546 C 0.05165 0.77296 0.28577 0.0
C547 C 0.05802 0.75505 0.26957 0.0
C548 C 0.10986 0.71774 0.25171 0.0
C549 C 0.11395 0.68089 0.19542 0.0
C550 C 0.10492 0.69758 0.21372 0.0
C551 C 0.08222 0.75057 0.26441 0.0
C552 C 0.08933 0.73156 0.24739 0.0
H553 H 0.09469 0.63688 0.15823 0.0
H554 H 0.07993 0.66331 0.18981 0.0
H555 H 0.13366 0.69084 0.23865 0.0
H556 H 0.1074 0.79302 0.29972 0.0
H557 H 0.11854 0.76223 0.27135 0.0
C558 C 0.82182 0.85695 0.67202 0.0
C559 C 0.83056 0.87057 0.653 0.0
C560 C 0.80572 0.86692 0.68821 0.0
C561 C 0.76392 0.91764 0.69619 0.0
H562 H 0.7692 0.89984 0.76278 0.0
C563 C 0.72043 0.93981 0.79513 0.0
C564 C 0.69617 0.93969 0.78886 0.0
C565 C 0.73789 0.93478 0.77807 0.0
C566 C 0.76769 0.90535 0.74434 0.0
H567 H 0.83005 0.90527 0.63602 0.0
H568 H 0.80223 0.92294 0.66448 0.0
H569 H 0.79757 0.884 0.73414 0.0
H570 H 0.67135 0.93703 0.75931 0.0
H571 H 0.70151 0.92704 0.72984 0.0
H572 H 0.7344 0.93953 0.70654 0.0
C573 C 0.80717 0.90438 0.66663 0.0
C574 C 0.78372 0.8959 0.72781 0.0
C575 C 0.82307 0.8943 0.65032 0.0
C576 C 0.68981 0.93621 0.7649 0.0
C577 C 0.70721 0.93094 0.74788 0.0
C578 C 0.748 0.92729 0.71277 0.0
C579 C 0.79838 0.89084 0.68584 0.0
C580 C 0.78183 0.90166 0.70349 0.0
C581 C 0.73141 0.92952 0.7544 0.0
C582 C 0.7495 0.92102 0.737 0.0
H583 H 0.82748 0.83861 0.67436 0.0
H584 H 0.79899 0.85585 0.70254 0.0
H585 H 0.76183 0.92234 0.67757 0.0
H586 H 0.72588 0.94279 0.81343 0.0
H587 H 0.75642 0.93447 0.78357 0.0
C588 C 0.90455 0.2106 0.29104 0.0
C589 C 0.92808 0.20792 0.29913 0.0
C590 C 0.89913 0.22739 0.27357 0.0
C591 C 0.91841 0.28366 0.24823 0.0
H592 H 0.87829 0.26511 0.19496 0.0
C593 C 0.85571 0.32824 0.17007 0.0
C594 C 0.87087 0.34644 0.1621 0.0
C595 C 0.8637 0.31178 0.1869 0.0
C596 C 0.88925 0.27067 0.20988 0.0
H597 H 0.96456 0.22006 0.29518 0.0
H598 H 0.95498 0.25002 0.26458 0.0
H599 H 0.89091 0.23515 0.22377 0.0
H600 H 0.90616 0.36193 0.1651 0.0
H601 H 0.9204 0.33292 0.19436 0.0
H602 H 0.91619 0.31933 0.23478 0.0
C603 C 0.94078 0.23913 0.27191 0.0
C604 C 0.89658 0.25348 0.22626 0.0
C605 C 0.94626 0.22202 0.28924 0.0
C606 C 0.89406 0.34822 0.17137 0.0
C607 C 0.90217 0.33161 0.18808 0.0
C608 C 0.91087 0.30096 0.23195 0.0
C609 C 0.91715 0.24188 0.26394 0.0
C610 C 0.911 0.25986 0.24571 0.0
C611 C 0.88715 0.31304 0.19583 0.0
C612 C 0.89596 0.29469 0.21274 0.0
H613 H 0.89034 0.19949 0.29798 0.0
H614 H 0.88077 0.22924 0.26777 0.0
H615 H 0.92938 0.28902 0.26323 0.0
H616 H 0.83772 0.32667 0.16313 0.0
H617 H 0.8515 0.29802 0.19286 0.0
C618 C 0.15668 0.10938 0.66864 0.0
C619 C 0.16188 0.12566 0.65039 0.0
C620 C 0.17483 0.1006 0.68321 0.0
C621 C 0.23638 0.1144 0.70275 0.0
H622 H 0.23214 0.05096 0.73007 0.0
C623 C 0.29343 0.04755 0.76912 0.0
C624 C 0.30129 0.06489 0.78533 0.0
C625 C 0.27749 0.05374 0.75093 0.0
C626 C 0.23384 0.06859 0.72235 0.0
H627 H 0.18997 0.1451 0.6324 0.0
H628 H 0.22205 0.12903 0.65721 0.0
H629 H 0.20324 0.06336 0.70019 0.0
H630 H 0.29782 0.10171 0.7965 0.0
H631 H 0.26953 0.11243 0.76546 0.0
H632 H 0.26743 0.11936 0.72423 0.0
C633 C 0.20387 0.12354 0.66082 0.0
C634 C 0.21702 0.07586 0.70546 0.0
C635 C 0.1856 0.1326 0.64648 0.0
C636 C 0.29247 0.08822 0.78373 0.0
C637 C 0.27634 0.09434 0.76586 0.0
C638 C 0.25337 0.10702 0.71935 0.0
C639 C 0.19867 0.1076 0.67954 0.0
C640 C 0.21778 0.09904 0.69582 0.0
C641 C 0.26889 0.0773 0.749 0.0
C642 C 0.252 0.08423 0.72979 0.0
H643 H 0.13851 0.1035 0.67173 0.0
H644 H 0.17003 0.0887 0.69765 0.0
H645 H 0.23747 0.13244 0.69592 0.0
H646 H 0.30007 0.02942 0.77016 0.0
H647 H 0.27226 0.0402 0.73818 0.0
C648 C 0.3245 0.823 0.13756 0.0
C649 C 0.34601 0.8279 0.12565 0.0
C650 C 0.30807 0.80701 0.12782 0.0
C651 C 0.2994 0.75513 0.09313 0.0
H652 H 0.23981 0.78255 0.07096 0.0
C653 C 0.22813 0.69635 0.04838 0.0
C654 C 0.20429 0.70127 0.05414 0.0
C655 C 0.24612 0.7125 0.05449 0.0
C656 C 0.25618 0.77449 0.07733 0.0
H657 H 0.36735 0.81966 0.0944 0.0
H658 H 0.33909 0.7906 0.07812 0.0
H659 H 0.27018 0.80827 0.08868 0.0
H660 H 0.1802 0.7268 0.07024 0.0
H661 H 0.2115 0.75457 0.08187 0.0
H662 H 0.28523 0.7212 0.08314 0.0
C663 C 0.33501 0.7994 0.09484 0.0
C664 C 0.27356 0.78928 0.08731 0.0
C665 C 0.35122 0.8158 0.10431 0.0
C666 C 0.19851 0.72283 0.0654 0.0
C667 C 0.2165 0.73875 0.07197 0.0
C668 C 0.28182 0.74021 0.08363 0.0
C669 C 0.31316 0.7953 0.10631 0.0
C670 C 0.29519 0.77965 0.09535 0.0
C671 C 0.24061 0.73364 0.06692 0.0
C672 C 0.25989 0.74968 0.07571 0.0
H673 H 0.32016 0.83195 0.15413 0.0
H674 H 0.29129 0.80392 0.13694 0.0
H675 H 0.31603 0.74744 0.09934 0.0
H676 H 0.23287 0.67985 0.03949 0.0
H677 H 0.26436 0.7082 0.04975 0.0
C678 C 0.22295 0.29191 0.94188 0.0
C679 C 0.20822 0.30149 0.92406 0.0
C680 C 0.24013 0.27473 0.93608 0.0
C681 C 0.25384 0.22883 0.8918 0.0
H682 H 0.31987 0.23726 0.91087 0.0
C683 C 0.32792 0.17088 0.85184 0.0
C684 C 0.34599 0.16294 0.86717 0.0
C685 C 0.31178 0.18825 0.85939 0.0
C686 C 0.30145 0.23447 0.90567 0.0
H687 H 0.19879 0.29987 0.88661 0.0
H688 H 0.22868 0.26994 0.87647 0.0
H689 H 0.28973 0.26599 0.92398 0.0
H690 H 0.36159 0.16665 0.9023 0.0
H691 H 0.33313 0.19683 0.91579 0.0
H692 H 0.26523 0.19726 0.87378 0.0
C693 C 0.22726 0.27588 0.89481 0.0
C694 C 0.28425 0.25092 0.91318 0.0
C695 C 0.21038 0.2932 0.90055 0.0
C696 C 0.34798 0.17286 0.89006 0.0
C697 C 0.33169 0.1901 0.89774 0.0
C698 C 0.27094 0.2123 0.8845 0.0
C699 C 0.24237 0.26657 0.91247 0.0
C700 C 0.26036 0.24838 0.90603 0.0
C701 C 0.3132 0.19777 0.88258 0.0
C702 C 0.29501 0.21508 0.89106 0.0
H703 H 0.22143 0.29799 0.96017 0.0
H704 H 0.25146 0.26764 0.95004 0.0
H705 H 0.23545 0.2263 0.88633 0.0
H706 H 0.32618 0.16345 0.83407 0.0
H707 H 0.29808 0.19411 0.84708 0.0
C708 C 0.79651 0.72213 0.93013 0.0
C709 C 0.79023 0.69862 0.93603 0.0
C710 C 0.77884 0.73891 0.92493 0.0
C711 C 0.71687 0.74175 0.90359 0.0
H712 H 0.72313 0.80895 0.91895 0.0
C713 C 0.66192 0.81444 0.8561 0.0
C714 C 0.65367 0.83348 0.86998 0.0
C715 C 0.67753 0.79769 0.86594 0.0
C716 C 0.72097 0.79021 0.91474 0.0
H717 H 0.76075 0.67466 0.94326 0.0
H718 H 0.72979 0.704 0.93438 0.0
H719 H 0.75202 0.78054 0.93475 0.0
H720 H 0.65451 0.85025 0.9047 0.0
H721 H 0.68165 0.82081 0.92218 0.0
H722 H 0.68569 0.75137 0.8838 0.0
C723 C 0.74834 0.7093 0.93298 0.0
C724 C 0.73767 0.77397 0.92358 0.0
C725 C 0.76602 0.69251 0.93805 0.0
C726 C 0.66088 0.8356 0.8938 0.0
C727 C 0.67645 0.81887 0.90367 0.0
C728 C 0.70015 0.75798 0.8948 0.0
C729 C 0.75457 0.73252 0.9258 0.0
C730 C 0.73595 0.7496 0.9179 0.0
C731 C 0.68505 0.79979 0.88982 0.0
C732 C 0.70216 0.78241 0.90006 0.0
H733 H 0.81509 0.72725 0.92846 0.0
H734 H 0.78426 0.75657 0.91926 0.0
H735 H 0.71518 0.72314 0.89863 0.0
H736 H 0.65646 0.81268 0.83764 0.0
H737 H 0.68408 0.78338 0.85471 0.0
C738 C 0.65247 0.16999 0.10468 0.0
C739 C 0.65416 0.16116 0.12801 0.0
C740 C 0.66851 0.18727 0.0966 0.0
C741 C 0.69696 0.23236 0.08748 0.0
H742 H 0.76286 0.22828 0.10836 0.0
C743 C 0.77353 0.29136 0.04972 0.0
C744 C 0.7875 0.30252 0.06724 0.0
C745 C 0.75697 0.2738 0.05615 0.0
C746 C 0.74448 0.22965 0.10246 0.0
H747 H 0.67332 0.16342 0.16141 0.0
H748 H 0.70102 0.1942 0.14766 0.0
H749 H 0.73422 0.19839 0.12167 0.0
H750 H 0.7962 0.30334 0.10491 0.0
H751 H 0.76738 0.27279 0.11613 0.0
H752 H 0.70756 0.26353 0.06797 0.0
C753 C 0.68773 0.18747 0.13534 0.0
C754 C 0.72803 0.21265 0.11018 0.0
C755 C 0.67182 0.17003 0.14331 0.0
C756 C 0.78517 0.29548 0.09114 0.0
C757 C 0.76891 0.27779 0.09752 0.0
C758 C 0.71352 0.24925 0.07955 0.0
C759 C 0.68644 0.19611 0.11179 0.0
C760 C 0.70401 0.21394 0.10302 0.0
C761 C 0.75461 0.26683 0.08012 0.0
C762 C 0.73735 0.24818 0.0872 0.0
H763 H 0.63915 0.16306 0.09249 0.0
H764 H 0.66722 0.19322 0.07827 0.0
H765 H 0.67855 0.23407 0.08184 0.0
H766 H 0.77523 0.29642 0.03114 0.0
H767 H 0.74625 0.26544 0.0424 0.0
C768 C 0.11699 0.9157 0.49416 0.0
C769 C 0.12753 0.90381 0.47477 0.0
C770 C 0.12558 0.93794 0.50148 0.0
C771 C 0.15081 0.99006 0.47383 0.0
H772 H 0.15043 0.01521 0.53825 0.0
C773 C 0.11698 0.08265 0.50046 0.0
C774 C 0.12759 0.09442 0.51989 0.0
C775 C 0.12565 0.06055 0.49286 0.0
C776 C 0.15112 0.00845 0.52016 0.0
H777 H 0.1569 0.90481 0.44947 0.0
H778 H 0.17157 0.94381 0.46206 0.0
H779 H 0.15035 0.97206 0.53194 0.0
H780 H 0.15732 0.09352 0.54475 0.0
H781 H 0.1721 0.05471 0.53171 0.0
H782 H 0.15007 0.02645 0.46205 0.0
C783 C 0.15657 0.93598 0.47142 0.0
C784 C 0.15089 0.98378 0.51658 0.0
C785 C 0.14816 0.91361 0.46428 0.0
C786 C 0.14846 0.08475 0.52999 0.0
C787 C 0.15695 0.06251 0.52258 0.0
C788 C 0.15074 0.01473 0.47741 0.0
C789 C 0.14476 0.94875 0.48943 0.0
C790 C 0.14997 0.97437 0.49339 0.0
C791 C 0.14499 0.04976 0.50464 0.0
C792 C 0.15014 0.02415 0.50061 0.0
H793 H 0.1012 0.90856 0.50274 0.0
H794 H 0.11607 0.94743 0.51538 0.0
H795 H 0.14989 0.9833 0.45574 0.0
H796 H 0.10101 0.0897 0.49214 0.0
H797 H 0.11603 0.05109 0.47901 0.0
C798 C 0.94623 0.78647 0.5628 0.0
C799 C 0.92409 0.796 0.55594 0.0
C800 C 0.95967 0.77297 0.54682 0.0
C801 C 0.98911 0.74788 0.51028 0.0
H802 H 0.98378 0.77982 0.44928 0.0
C803 C 0.04576 0.78107 0.42237 0.0
C804 C 0.06208 0.79571 0.43466 0.0
C805 C 0.02934 0.76716 0.4349 0.0
C806 C 0.98536 0.77014 0.46593 0.0
H807 H 0.89701 0.79585 0.52835 0.0
H808 H 0.91984 0.77105 0.50084 0.0
H809 H 0.95051 0.78061 0.47632 0.0
H810 H 0.07619 0.80461 0.46958 0.0
H811 H 0.04744 0.78038 0.49144 0.0
H812 H 0.02535 0.74011 0.50045 0.0
C813 C 0.92754 0.77515 0.51807 0.0
C814 C 0.96607 0.77048 0.48161 0.0
C815 C 0.91432 0.78926 0.53388 0.0
C816 C 0.06365 0.79379 0.4596 0.0
C817 C 0.04729 0.77973 0.47213 0.0
C818 C 0.00868 0.74811 0.49477 0.0
C819 C 0.95109 0.76822 0.52369 0.0
C820 C 0.96816 0.76069 0.50464 0.0
C821 C 0.0291 0.76747 0.45991 0.0
C822 C 0.0073 0.76034 0.47299 0.0
H823 H 0.9542 0.79106 0.5798 0.0
H824 H 0.97762 0.76821 0.55211 0.0
H825 H 0.99112 0.73921 0.52741 0.0
H826 H 0.0444 0.78171 0.4031 0.0
H827 H 0.01563 0.75767 0.42508 0.0
C828 C 0.86942 0.08066 0.49512 0.0
C829 C 0.85972 0.0923 0.47517 0.0
C830 C 0.85992 0.05896 0.50287 0.0
C831 C 0.83285 0.00717 0.47586 0.0
H832 H 0.83467 0.98287 0.54055 0.0
C833 C 0.86665 0.91468 0.50163 0.0
C834 C 0.85729 0.9033 0.52188 0.0
C835 C 0.85765 0.93673 0.49431 0.0
C836 C 0.83352 0.98937 0.52239 0.0
H837 H 0.83077 0.09165 0.4494 0.0
H838 H 0.81438 0.05366 0.46285 0.0
H839 H 0.83507 0.02587 0.53372 0.0
H840 H 0.8294 0.90486 0.54877 0.0
H841 H 0.8139 0.94348 0.53608 0.0
H842 H 0.83266 0.97065 0.4645 0.0
C843 C 0.82953 0.06117 0.47224 0.0
C844 C 0.83395 0.01399 0.51851 0.0
C845 C 0.83892 0.08296 0.4646 0.0
C846 C 0.83727 0.91332 0.53329 0.0
C847 C 0.82839 0.93547 0.52609 0.0
C848 C 0.83259 0.98255 0.47974 0.0
C849 C 0.84057 0.04848 0.49078 0.0
C850 C 0.83455 0.0231 0.49519 0.0
C851 C 0.83916 0.94784 0.50716 0.0
C852 C 0.83385 0.97341 0.50301 0.0
H853 H 0.88531 0.08747 0.5038 0.0
H854 H 0.86889 0.04956 0.51717 0.0
H855 H 0.83347 0.01363 0.45766 0.0
H856 H 0.88195 0.90736 0.49233 0.0
H857 H 0.8664 0.94588 0.47971 0.0
C858 C 0.94882 0.20756 0.43164 0.0
C859 C 0.92631 0.19872 0.43825 0.0
C860 C 0.96213 0.22134 0.44749 0.0
C861 C 0.99096 0.24746 0.48389 0.0
H862 H 0.98373 0.21757 0.54574 0.0
C863 C 0.04494 0.2154 0.57386 0.0
C864 C 0.06147 0.20059 0.56208 0.0
C865 C 0.02904 0.22944 0.56081 0.0
C866 C 0.98585 0.22672 0.52884 0.0
H867 H 0.89858 0.20029 0.46514 0.0
H868 H 0.92121 0.22558 0.49237 0.0
H869 H 0.95117 0.21623 0.51791 0.0
H870 H 0.07659 0.19157 0.5276 0.0
H871 H 0.04872 0.2159 0.50486 0.0
H872 H 0.02699 0.25528 0.4944 0.0
C873 C 0.92926 0.22075 0.47549 0.0
C874 C 0.96697 0.22604 0.5127 0.0
C875 C 0.91616 0.20636 0.45983 0.0
C876 C 0.06385 0.20249 0.5372 0.0
C877 C 0.04798 0.21663 0.52416 0.0
C878 C 0.01012 0.2476 0.49992 0.0
C879 C 0.95306 0.22707 0.47022 0.0
C880 C 0.96975 0.23504 0.48942 0.0
C881 C 0.0295 0.22901 0.53579 0.0
C882 C 0.00808 0.23608 0.52204 0.0
H883 H 0.9571 0.2022 0.415 0.0
H884 H 0.98031 0.22558 0.44253 0.0
H885 H 0.9935 0.2555 0.46653 0.0
H886 H 0.04297 0.21477 0.59307 0.0
H887 H 0.01513 0.23905 0.5702 0.0
C888 C 0.46514 0.15039 0.91397 0.0
C889 C 0.47578 0.12972 0.90443 0.0
C890 C 0.47262 0.15945 0.93596 0.0
C891 C 0.51877 0.15471 0.98317 0.0
H892 H 0.46471 0.15589 0.02647 0.0
C893 C 0.50219 0.1225 0.08263 0.0
C894 C 0.52243 0.13207 0.09392 0.0
C895 C 0.49475 0.13131 0.06056 0.0
C896 C 0.47996 0.15598 0.01458 0.0
H897 H 0.50428 0.10396 0.9092 0.0
H898 H 0.51739 0.11983 0.94743 0.0
H899 H 0.45787 0.15499 0.9835 0.0
H900 H 0.54912 0.16016 0.09215 0.0
H901 H 0.53622 0.17533 0.05349 0.0
H902 H 0.54084 0.15419 0.01427 0.0
C903 C 0.50317 0.12895 0.93803 0.0
C904 C 0.47608 0.15566 0.98997 0.0
C905 C 0.49558 0.11977 0.91614 0.0
C906 C 0.53365 0.15214 0.08379 0.0
C907 C 0.52633 0.16082 0.06161 0.0
C908 C 0.52266 0.15523 0.00777 0.0
C909 C 0.49106 0.14821 0.94864 0.0
C910 C 0.49543 0.15405 0.97406 0.0
C911 C 0.50746 0.14981 0.04932 0.0
C912 C 0.50327 0.15489 0.02372 0.0
H913 H 0.45003 0.1587 0.90526 0.0
H914 H 0.4632 0.17452 0.94358 0.0
H915 H 0.534 0.15365 0.9713 0.0
H916 H 0.49303 0.10717 0.09004 0.0
H917 H 0.48018 0.12239 0.05149 0.0
C918 C 0.21129 0.54176 0.06642 0.0
C919 C 0.20198 0.56288 0.0567 0.0
C920 C 0.22575 0.52684 0.05259 0.0
C921 C 0.24895 0.51937 0.98943 0.0
H922 H 0.22198 0.45639 -0.00146 0.0
C923 C 0.20129 0.46466 0.91948 0.0
C924 C 0.2 0.43975 0.92205 0.0
C925 C 0.21609 0.47807 0.93442 0.0
C926 C 0.23034 0.47362 0.99583 0.0
H927 H 0.20259 0.58623 0.02585 0.0
H928 H 0.22608 0.55986 0.0014 0.0
H929 H 0.22179 0.48419 0.03111 0.0
H930 H 0.21585 0.4091 0.93972 0.0
H931 H 0.24139 0.43259 0.96591 0.0
H932 H 0.25477 0.50911 0.95299 0.0
C933 C 0.2231 0.55474 0.01977 0.0
C934 C 0.23032 0.48976 0.01472 0.0
C935 C 0.20926 0.56991 0.0338 0.0
C936 C 0.21599 0.42833 0.93769 0.0
C937 C 0.23074 0.44174 0.95263 0.0
C938 C 0.24844 0.50331 0.9703 0.0
C939 C 0.23043 0.53233 0.02849 0.0
C940 C 0.23817 0.5134 0.01137 0.0
C941 C 0.22981 0.46677 0.95214 0.0
C942 C 0.23788 0.48076 0.97305 0.0
H943 H 0.20645 0.53619 0.08428 0.0
H944 H 0.23187 0.51024 0.06034 0.0
H945 H 0.25611 0.53706 0.98639 0.0
H946 H 0.18942 0.47398 0.9074 0.0
H947 H 0.21493 0.49736 0.93367 0.0
C948 C 0.49609 0.86806 0.07902 0.0
C949 C 0.47613 0.85831 0.09066 0.0
C950 C 0.5034 0.85912 0.05694 0.0
C951 C 0.4756 0.83369 0.00463 0.0
H952 H 0.54028 0.83493 0.98006 0.0
C953 C 0.53288 0.83857 0.91061 0.0
C954 C 0.52158 0.85875 0.90082 0.0
C955 C 0.52565 0.82953 0.93268 0.0
C956 C 0.52211 0.83396 0.98662 0.0
H957 H 0.44974 0.82993 0.08941 0.0
H958 H 0.46244 0.81451 0.05075 0.0
H959 H 0.53362 0.83474 0.02305 0.0
H960 H 0.49214 0.88351 0.90519 0.0
H961 H 0.47948 0.8677 0.94356 0.0
H962 H 0.46408 0.83418 0.96819 0.0
C963 C 0.4722 0.82924 0.0586 0.0
C964 C 0.51833 0.83406 0.01125 0.0
C965 C 0.46501 0.83806 0.08079 0.0
C966 C 0.50136 0.8681 0.91233 0.0
C967 C 0.49403 0.85894 0.93431 0.0
C968 C 0.47938 0.83375 0.98 0.0
C969 C 0.49084 0.84032 0.04603 0.0
C970 C 0.49504 0.83483 0.02049 0.0
C971 C 0.5068 0.8403 0.94522 0.0
C972 C 0.50266 0.83478 0.97076 0.0
H973 H 0.50516 0.88355 0.08622 0.0
H974 H 0.51777 0.86813 0.04765 0.0
H975 H 0.45742 0.83443 0.01119 0.0
H976 H 0.54832 0.83071 0.90205 0.0
H977 H 0.53558 0.81491 0.94052 0.0
C978 C 0.78881 0.53645 0.93181 0.0
C979 C 0.79157 0.56132 0.93341 0.0
C980 C 0.77446 0.52436 0.94823 0.0
C981 C 0.74386 0.50214 0.98747 0.0
H982 H 0.77787 0.52103 0.04459 0.0
C983 C 0.79021 0.46325 0.07919 0.0
C984 C 0.79732 0.44163 0.0687 0.0
C985 C 0.7749 0.47873 0.06697 0.0
C986 C 0.76733 0.5156 0.02936 0.0
H987 H 0.77859 0.59335 0.95105 0.0
H988 H 0.75398 0.57213 0.97989 0.0
H989 H 0.7755 0.54818 0.01158 0.0
H990 H 0.79195 0.41812 0.0384 0.0
H991 H 0.76696 0.44532 0.01663 0.0
H992 H 0.73631 0.46917 0.00507 0.0
C993 C 0.76308 0.562 0.96616 0.0
C994 C 0.76604 0.53136 0.01021 0.0
C995 C 0.77733 0.5741 0.9497 0.0
C996 C 0.78708 0.4348 0.04688 0.0
C997 C 0.77234 0.45047 0.03443 0.0
C998 C 0.74461 0.48652 0.00692 0.0
C999 C 0.76272 0.53696 0.9665 0.0
C1000 C 0.75583 0.52412 0.98851 0.0
C1001 C 0.76708 0.47324 0.04369 0.0
C1002 C 0.7581 0.4923 0.02738 0.0
H1003 H 0.79926 0.52611 0.91926 0.0
H1004 H 0.77459 0.50502 0.9481 0.0
H1005 H 0.73549 0.49632 0.97104 0.0
H1006 H 0.79735 0.46871 0.0963 0.0
H1007 H 0.7705 0.49566 0.07519 0.0
C1008 C 0.92001 0.49611 0.12128 0.0
C1009 C 0.90833 0.47618 0.13102 0.0
C1010 C 0.94243 0.50297 0.12975 0.0
C1011 C 0.99499 0.47395 0.15267 0.0
H1012 H 0.02047 0.53827 0.15326 0.0
C1013 C 0.0896 0.53015 0.1473 0.0
C1014 C 0.09835 0.52015 0.12598 0.0
C1015 C 0.06783 0.52258 0.1568 0.0
C1016 C 0.01366 0.52018 0.1537 0.0
H1017 H 0.90989 0.44942 0.159 0.0
H1018 H 0.94918 0.46127 0.17351 0.0
H1019 H 0.97734 0.53218 0.15449 0.0
H1020 H 0.09257 0.49241 0.0996 0.0
H1021 H 0.05474 0.47907 0.11629 0.0
H1022 H 0.03126 0.46199 0.15043 0.0
C1023 C 0.94107 0.47138 0.15917 0.0
C1024 C 0.98897 0.51673 0.15421 0.0
C1025 C 0.91854 0.46466 0.15086 0.0
C1026 C 0.08622 0.50065 0.1159 0.0
C1027 C 0.06456 0.49293 0.12553 0.0
C1028 C 0.01967 0.4774 0.15193 0.0
C1029 C 0.95363 0.48997 0.14804 0.0
C1030 C 0.97939 0.49362 0.15284 0.0
C1031 C 0.0546 0.50462 0.14538 0.0
C1032 C 0.02921 0.50057 0.15158 0.0
H1033 H 0.91256 0.50549 0.10611 0.0
H1034 H 0.95174 0.51734 0.12074 0.0
H1035 H 0.98811 0.45591 0.15141 0.0
H1036 H 0.09868 0.54497 0.15576 0.0
H1037 H 0.06071 0.53164 0.17233 0.0
C1038 C 0.9057 0.5264 0.84421 0.0
C1039 C 0.89687 0.51665 0.86561 0.0
C1040 C 0.92772 0.51905 0.83511 0.0
C1041 C 0.9764 0.47465 0.84099 0.0
H1042 H 0.01814 0.52985 0.83731 0.0
C1043 C 0.07664 0.4948 0.86952 0.0
C1044 C 0.08839 0.47503 0.85952 0.0
C1045 C 0.05388 0.50125 0.86163 0.0
C1046 C 0.00667 0.51428 0.83792 0.0
H1047 H 0.90288 0.4896 0.89262 0.0
H1048 H 0.94114 0.47663 0.8766 0.0
H1049 H 0.97494 0.53549 0.83881 0.0
H1050 H 0.08648 0.44807 0.83172 0.0
H1051 H 0.04663 0.45921 0.81823 0.0
H1052 H 0.0082 0.45352 0.84146 0.0
C1053 C 0.93117 0.49012 0.867 0.0
C1054 C 0.98195 0.51747 0.83859 0.0
C1055 C 0.90926 0.49763 0.87624 0.0
C1056 C 0.07782 0.46322 0.84002 0.0
C1057 C 0.05496 0.46952 0.83231 0.0
C1058 C 0.00112 0.47146 0.84007 0.0
C1059 C 0.94114 0.50157 0.84702 0.0
C1060 C 0.96662 0.49772 0.84104 0.0
C1061 C 0.04241 0.48798 0.84369 0.0
C1062 C 0.01651 0.49129 0.83943 0.0
H1063 H 0.89645 0.54086 0.83536 0.0
H1064 H 0.93485 0.52791 0.81948 0.0
H1065 H 0.96498 0.45914 0.84276 0.0
H1066 H 0.08434 0.50437 0.88444 0.0
H1067 H 0.0446 0.51552 0.8708 0.0
C1068 C 0.46227 0.91665 0.2054 0.0
C1069 C 0.44035 0.92598 0.19766 0.0
C1070 C 0.47747 0.93041 0.21968 0.0
C1071 C 0.51344 0.96936 0.22529 0.0
H1072 H 0.49284 0.02885 0.25405 0.0
C1073 C 0.53612 0.06652 0.20179 0.0
C1074 C 0.56111 0.06472 0.20066 0.0
C1075 C 0.52302 0.05052 0.21576 0.0
C1076 C 0.49898 0.01214 0.24652 0.0
H1077 H 0.41608 0.95602 0.20085 0.0
H1078 H 0.44276 0.98033 0.22402 0.0
H1079 H 0.46597 0.99452 0.25395 0.0
H1080 H 0.59214 0.04731 0.21611 0.0
H1081 H 0.5692 0.01923 0.24006 0.0
H1082 H 0.54615 0.9871 0.21738 0.0
C1083 C 0.44836 0.96231 0.21994 0.0
C1084 C 0.48354 0.9925 0.24617 0.0
C1085 C 0.43299 0.94836 0.20626 0.0
C1086 C 0.57285 0.04879 0.21614 0.0
C1087 C 0.55976 0.03276 0.22999 0.0
C1088 C 0.52901 0.98871 0.22621 0.0
C1089 C 0.47136 0.95406 0.22583 0.0
C1090 C 0.48992 0.97143 0.23393 0.0
C1091 C 0.53475 0.03251 0.22872 0.0
C1092 C 0.52139 0.01073 0.23543 0.0
H1093 H 0.46818 0.8992 0.19952 0.0
H1094 H 0.4946 0.92298 0.22464 0.0
H1095 H 0.51929 0.9537 0.21562 0.0
H1096 H 0.52655 0.07876 0.19031 0.0
H1097 H 0.50373 0.05069 0.2144 0.0
C1098 C 0.46033 0.07327 0.789 0.0
C1099 C 0.43854 0.06375 0.7969 0.0
C1100 C 0.47542 0.05972 0.77442 0.0
C1101 C 0.51157 0.02109 0.76817 0.0
H1102 H 0.49094 0.96132 0.74 0.0
C1103 C 0.53453 0.92453 0.7927 0.0
C1104 C 0.55952 0.92647 0.79376 0.0
C1105 C 0.52136 0.9402 0.77846 0.0
C1106 C 0.4971 0.97812 0.74735 0.0
H1107 H 0.41437 0.03363 0.79373 0.0
H1108 H 0.44091 0.00964 0.7701 0.0
H1109 H 0.46395 0.99553 0.74012 0.0
H1110 H 0.59045 0.94368 0.7779 0.0
H1111 H 0.56738 0.9712 0.75346 0.0
H1112 H 0.54443 0.00356 0.77586 0.0
C1113 C 0.44648 0.02766 0.77424 0.0
C1114 C 0.48158 -0.00231 0.74772 0.0
C1115 C 0.43119 0.04142 0.7882 0.0
C1116 C 0.57117 0.94212 0.77794 0.0
C1117 C 0.558 0.95782 0.7638 0.0
C1118 C 0.52722 0.00181 0.7672 0.0
C1119 C 0.46938 0.03607 0.76817 0.0
C1120 C 0.48797 0.01885 0.75983 0.0
C1121 C 0.53299 0.95802 0.76514 0.0
C1122 C 0.51959 0.97969 0.75824 0.0
H1123 H 0.46621 0.0907 0.79496 0.0
H1124 H 0.49245 0.0673 0.76932 0.0
H1125 H 0.51746 0.03682 0.77771 0.0
H1126 H 0.52503 0.91247 0.80445 0.0
H1127 H 0.50206 0.93999 0.77988 0.0
C1128 C 0.05005 0.0688 0.57492 0.0
C1129 C 0.04505 0.08588 0.59263 0.0
C1130 C 0.0373 0.04739 0.57397 0.0
C1131 C 0.00112 0.00751 0.61189 0.0
H1132 H 0.98361 0.97842 0.55159 0.0
C1133 C 0.93841 0.92574 0.57506 0.0
C1134 C 0.94436 0.90797 0.59176 0.0
C1135 C 0.95114 0.94718 0.57426 0.0
C1136 C 0.98823 0.98638 0.56858 0.0
H1137 H 0.0222 0.0941 0.6228 0.0
H1138 H -0.00031 0.05693 0.62087 0.0
H1139 H 0.00353 0.01714 0.55187 0.0
H1140 H 0.96892 0.89854 0.62017 0.0
H1141 H 0.99137 0.93575 0.61846 0.0
H1142 H 0.98532 0.9771 0.62864 0.0
C1143 C 0.01381 0.0599 0.60801 0.0
C1144 C -0.00013 0.00846 0.56874 0.0
C1145 C 0.02661 0.08129 0.60901 0.0
C1146 C 0.96375 0.91189 0.60719 0.0
C1147 C 0.97653 0.9333 0.60633 0.0
C1148 C 0.98945 0.98548 0.61174 0.0
C1149 C 0.0192 0.04257 0.59066 0.0
C1150 C 0.00645 0.01928 0.5904 0.0
C1151 C 0.97017 0.95133 0.59007 0.0
C1152 C 0.98289 0.97463 0.59009 0.0
H1153 H 0.06417 0.07171 0.56203 0.0
H1154 H 0.04209 0.03433 0.56054 0.0
H1155 H 0.00621 0.01517 0.62888 0.0
H1156 H 0.92354 0.92337 0.56293 0.0
H1157 H 0.94561 0.96077 0.56169 0.0
C1158 C 0.03654 0.91897 0.37998 0.0
C1159 C 0.04648 0.90883 0.40063 0.0
C1160 C 0.02437 0.9407 0.3812 0.0
C1161 C 0.98971 0.97934 0.41928 0.0
H1162 H 0.01281 0.03102 0.37949 0.0
C1163 C 0.94786 0.07352 0.42405 0.0
C1164 C 0.94602 0.0864 0.40264 0.0
C1165 C 0.96108 0.05236 0.425 0.0
C1166 C 0.00582 0.01673 0.39046 0.0
H1167 H 0.0508 0.91305 0.43887 0.0
H1168 H 0.02877 0.95075 0.44103 0.0
H1169 H 0.03276 0.99241 0.37836 0.0
H1170 H 0.95641 0.08712 0.36538 0.0
H1171 H 0.97846 0.0499 0.3667 0.0
H1172 H 0.96212 0.00308 0.43066 0.0
C1173 C 0.03075 0.94196 0.42393 0.0
C1174 C 0.01739 0.99467 0.38988 0.0
C1175 C 0.04338 0.92048 0.42265 0.0
C1176 C 0.95772 0.07775 0.38224 0.0
C1177 C 0.97053 0.05641 0.38306 0.0
C1178 C 0.97779 0.00127 0.41952 0.0
C1179 C 0.02149 0.9524 0.40316 0.0
C1180 C 0.00938 0.97579 0.4042 0.0
C1181 C 0.97239 0.04336 0.40444 0.0
C1182 C 0.98561 0.02026 0.405 0.0
H1183 H 0.03874 0.91047 0.36275 0.0
H1184 H 0.01723 0.94841 0.36498 0.0
H1185 H 0.98319 0.96493 0.43041 0.0
H1186 H 0.93914 0.07983 0.44011 0.0
H1187 H 0.96245 0.04313 0.44191 0.0
C1188 C 0.57326 0.05111 0.0697 0.0
C1189 C 0.59093 0.04554 0.08664 0.0
C1190 C 0.5717 0.03831 0.04834 0.0
C1191 C 0.56548 0.00105 0.00918 0.0
H1192 H 0.62531 0.98605 0.97775 0.0
C1193 C 0.57216 0.94021 0.92577 0.0
C1194 C 0.58906 0.94642 0.90827 0.0
C1195 C 0.57098 0.95282 0.94727 0.0
C1196 C 0.60843 0.9903 0.98616 0.0
H1197 H 0.62023 0.02154 0.09478 0.0
H1198 H 0.61728 -0.00094 0.05771 0.0
H1199 H 0.62577 0.00641 0.01605 0.0
H1200 H 0.61728 0.97141 0.89926 0.0
H1201 H 0.61497 0.99355 0.93655 0.0
H1202 H 0.54817 0.98533 0.97892 0.0
C1203 C 0.60493 0.01362 0.06074 0.0
C1204 C 0.6087 0.00166 0.00831 0.0
C1205 C 0.60652 0.02643 0.08206 0.0
C1206 C 0.60418 0.96601 0.91242 0.0
C1207 C 0.60296 0.97863 0.93387 0.0
C1208 C 0.56521 0.98966 0.98697 0.0
C1209 C 0.58775 0.01966 0.04347 0.0
C1210 C 0.58725 0.00717 0.0201 0.0
C1211 C 0.58665 0.97192 0.95171 0.0
C1212 C 0.5867 0.98421 0.97519 0.0
H1213 H 0.56094 0.06572 0.07263 0.0
H1214 H 0.5584 0.04355 0.03534 0.0
H1215 H 0.54865 0.0049 0.01788 0.0
H1216 H 0.56023 0.92521 0.92317 0.0
H1217 H 0.55833 0.94708 0.96071 0.0
C1218 C 0.07449 0.42788 0.94594 0.0
C1219 C 0.0868 0.40607 0.9441 0.0
C1220 C 0.05295 0.42923 0.95852 0.0
C1221 C 0.00106 0.39475 0.97298 0.0
H1222 H 0.99166 0.43616 0.0276 0.0
C1223 C 0.91805 0.38599 0.03274 0.0
C1224 C 0.90917 0.40626 0.04449 0.0
C1225 C 0.93928 0.38718 0.01973 0.0
C1226 C 0.99372 0.42483 0.01208 0.0
H1227 H 0.08628 0.36865 0.9541 0.0
H1228 H 0.04829 0.37097 0.97546 0.0
H1229 H 0.02986 0.43645 0.00661 0.0
H1230 H 0.9151 0.44392 0.05113 0.0
H1231 H 0.95149 0.44636 0.02743 0.0
H1232 H 0.96493 0.38362 0.97761 0.0
C1233 C 0.05553 0.38699 0.96741 0.0
C1234 C 0.0157 0.42492 0.00022 0.0
C1235 C 0.0773 0.38573 0.95532 0.0
C1236 C 0.9216 0.42794 0.04238 0.0
C1237 C 0.94261 0.42927 0.02895 0.0
C1238 C 0.97895 0.39502 0.98447 0.0
C1239 C 0.04313 0.4087 0.96896 0.0
C1240 C 0.01962 0.40961 0.98083 0.0
C1241 C 0.95194 0.40881 0.0177 0.0
C1242 C 0.97505 0.40976 0.00446 0.0
H1243 H 0.0814 0.44384 0.9375 0.0
H1244 H 0.04361 0.44614 0.9595 0.0
H1245 H 0.00366 0.38302 0.95783 0.0
H1246 H 0.90902 0.36895 0.03424 0.0
H1247 H 0.94603 0.37089 0.01183 0.0
C1248 C 0.38346 0.03293 0.91783 0.0
C1249 C 0.40371 0.04447 0.90862 0.0
C1250 C 0.38494 0.01971 0.93888 0.0
C1251 C 0.42352 0.01092 0.99235 0.0
H1252 H 0.38159 0.95667 0.00203 0.0
C1253 C 0.42692 0.94463 0.07284 0.0
C1254 C 0.40513 0.94286 0.08519 0.0
C1255 C 0.42821 0.95703 0.05122 0.0
C1256 C 0.39338 0.9718 -0.0005 0.0
H1257 H 0.44157 0.05065 0.91382 0.0
H1258 H 0.44445 0.02667 0.94995 0.0
H1259 H 0.38174 0.97705 0.96365 0.0
H1260 H 0.36765 0.95268 0.0846 0.0
H1261 H 0.36985 0.97372 0.0465 0.0
H1262 H 0.43557 0.0049 0.02821 0.0
C1263 C 0.4272 0.02846 0.94144 0.0
C1264 C 0.39338 0.98363 0.9776 0.0
C1265 C 0.42561 0.04208 0.9206 0.0
C1266 C 0.38472 0.95384 0.07558 0.0
C1267 C 0.38591 0.96575 0.05375 0.0
C1268 C 0.42386 -0.00127 0.01412 0.0
C1269 C 0.40682 0.01729 0.95103 0.0
C1270 C 0.40812 0.00365 0.97383 0.0
C1271 C 0.40762 0.96735 0.04137 0.0
C1272 C 0.40849 0.97935 0.01796 0.0
H1273 H 0.36627 0.03464 0.90914 0.0
H1274 H 0.36872 0.01189 0.94589 0.0
H1275 H 0.43487 0.02644 0.99036 0.0
H1276 H 0.44295 0.93638 0.07984 0.0
H1277 H 0.44512 0.95805 0.04189 0.0
C1278 C 0.91964 0.56826 0.9485 0.0
C1279 C 0.90769 0.59023 0.94628 0.0
C1280 C 0.94158 0.56696 0.96035 0.0
C1281 C 0.99427 0.6016 0.97255 0.0
H1282 H 0.00486 0.56112 0.02761 0.0
C1283 C 0.0775 0.61266 0.03121 0.0
C1284 C 0.08724 0.59261 0.04263 0.0
C1285 C 0.05605 0.6109 0.01868 0.0
C1286 C 0.00243 0.57218 0.01197 0.0
H1287 H 0.90927 0.62799 0.95484 0.0
H1288 H 0.94787 0.62572 0.97496 0.0
H1289 H 0.96628 0.56026 0.00727 0.0
H1290 H 0.08246 0.5548 0.04939 0.0
H1291 H 0.0455 0.55144 0.02665 0.0
H1292 H 0.03036 0.61312 0.97652 0.0
C1293 C 0.94009 0.60955 0.96773 0.0
C1294 C 0.98027 0.57176 0.00046 0.0
C1295 C 0.91797 0.61079 0.95634 0.0
C1296 C 0.0753 0.57062 0.04087 0.0
C1297 C 0.05401 0.56875 0.02797 0.0
C1298 C 0.01653 0.6017 0.98371 0.0
C1299 C 0.95212 0.58768 0.96969 0.0
C1300 C 0.97593 0.58679 0.98095 0.0
C1301 C 0.04398 0.58892 0.01686 0.0
C1302 C 0.0208 0.58735 0.00388 0.0
H1303 H 0.91211 0.55212 0.94095 0.0
H1304 H 0.95062 0.54991 0.96167 0.0
H1305 H 0.99136 0.6131 0.95729 0.0
H1306 H 0.08613 0.62993 0.03244 0.0
H1307 H 0.0487 0.62698 0.01089 0.0
loop_
_geom_bond_atom_site_label_1
_geom_bond_atom_site_label_2
_geom_bond_distance
_geom_bond_site_symmetry_2
_ccdc_geom_bond_type
Co0 O3 1.970 . S
Co0 N17 1.989 . S
Co0 O25 1.967 . S
Co0 O32 1.920 . S
Co1 O4 1.966 . S
Co1 N10 2.022 . S
Co1 N18 1.993 . S
Co1 O26 1.941 . S
C2 O3 1.258 . S
C2 O4 1.263 . S
O3 Co0 1.970 . S
O3 C2 1.258 . S
O4 Co1 1.966 . S
O4 C2 1.263 . S
C5 O6 1.235 . S
C5 O32 1.289 . S
O6 C5 1.235 . S
C7 C9 1.400 . S
C7 N10 1.351 . S
C7 C12 1.501 . S
C8 C9 1.387 . S
C8 N11 1.341 . S
C9 C7 1.400 . S
C9 C8 1.387 . S
N10 Co1 2.022 . S
N10 C7 1.351 . S
N10 N11 1.365 . S
N11 C8 1.341 . S
N11 N10 1.365 . S
N11 H31 0.862 . S
C12 C7 1.501 . S
C12 H13 0.961 . S
C12 H14 0.961 . S
C12 H15 0.960 . S
H13 C12 0.961 . S
H14 C12 0.961 . S
H15 C12 0.960 . S
C16 N17 1.342 . S
C16 C20 1.401 . S
C16 C21 1.499 . S
N17 Co0 1.989 . S
N17 C16 1.342 . S
N17 N18 1.388 . S
N18 Co1 1.993 . S
N18 N17 1.388 . S
N18 C19 1.346 . S
C19 N18 1.346 . S
C19 C20 1.396 . S
C19 C29 1.510 . S
C20 C16 1.401 . S
C20 C19 1.396 . S
C21 C16 1.499 . S
C21 H22 0.959 . S
C21 H23 0.960 . S
C21 H24 0.961 . S
H22 C21 0.959 . S
H23 C21 0.960 . S
H24 C21 0.961 . S
O25 Co0 1.967 . S
O25 C33 1.258 . S
O26 Co1 1.941 . S
O26 C33 1.266 . S
H27 C29 0.959 . S
H28 C29 0.961 . S
C29 C19 1.510 . S
C29 H27 0.959 . S
C29 H28 0.961 . S
C29 H30 0.960 . S
H30 C29 0.960 . S
H31 N11 0.862 . S
O32 Co0 1.920 . S
O32 C5 1.289 . S
C33 O25 1.258 . S
C33 O26 1.266 . S
Co34 O37 1.970 . S
Co34 N51 1.989 . S
Co34 O59 1.967 . S
Co34 O66 1.920 . S
Co35 O38 1.966 . S
Co35 N44 2.022 . S
Co35 N52 1.993 . S
Co35 O60 1.941 . S
C36 O37 1.258 . S
C36 O38 1.263 . S
O37 Co34 1.970 . S
O37 C36 1.258 . S
O38 Co35 1.966 . S
O38 C36 1.263 . S
C39 O40 1.235 . S
C39 O66 1.289 . S
O40 C39 1.235 . S
C41 C43 1.400 . S
C41 N44 1.351 . S
C41 C46 1.501 . S
C42 C43 1.387 . S
C42 N45 1.341 . S
C43 C41 1.400 . S
C43 C42 1.387 . S
N44 Co35 2.022 . S
N44 C41 1.351 . S
N44 N45 1.365 . S
N45 C42 1.341 . S
N45 N44 1.365 . S
N45 H65 0.862 . S
C46 C41 1.501 . S
C46 H47 0.961 . S
C46 H48 0.961 . S
C46 H49 0.960 . S
H47 C46 0.961 . S
H48 C46 0.961 . S
H49 C46 0.960 . S
C50 N51 1.342 . S
C50 C54 1.401 . S
C50 C55 1.499 . S
N51 Co34 1.989 . S
N51 C50 1.342 . S
N51 N52 1.388 . S
N52 Co35 1.993 . S
N52 N51 1.388 . S
N52 C53 1.346 . S
C53 N52 1.346 . S
C53 C54 1.396 . S
C53 C63 1.510 . S
C54 C50 1.401 . S
C54 C53 1.396 . S
C55 C50 1.499 . S
C55 H56 0.959 . S
C55 H57 0.960 . S
C55 H58 0.961 . S
H56 C55 0.959 . S
H57 C55 0.960 . S
H58 C55 0.961 . S
O59 Co34 1.967 . S
O59 C67 1.258 . S
O60 Co35 1.941 . S
O60 C67 1.266 . S
H61 C63 0.959 . S
H62 C63 0.961 . S
C63 C53 1.510 . S
C63 H61 0.959 . S
C63 H62 0.961 . S
C63 H64 0.960 . S
H64 C63 0.960 . S
H65 N45 0.862 . S
O66 Co34 1.920 . S
O66 C39 1.289 . S
C67 O59 1.258 . S
C67 O60 1.266 . S
Co68 O71 1.970 . S
Co68 N85 1.989 . S
Co68 O93 1.967 . S
Co68 O100 1.920 . S
Co69 O72 1.966 . S
Co69 N78 2.022 . S
Co69 N86 1.993 . S
Co69 O94 1.941 . S
C70 O71 1.258 . S
C70 O72 1.263 . S
O71 Co68 1.970 . S
O71 C70 1.258 . S
O72 Co69 1.966 . S
O72 C70 1.263 . S
C73 O74 1.235 . S
C73 O100 1.289 . S
O74 C73 1.235 . S
C75 C77 1.400 . S
C75 N78 1.351 . S
C75 C80 1.501 . S
C76 C77 1.387 . S
C76 N79 1.341 . S
C77 C75 1.400 . S
C77 C76 1.387 . S
N78 Co69 2.022 . S
N78 C75 1.351 . S
N78 N79 1.365 . S
N79 C76 1.341 . S
N79 N78 1.365 . S
N79 H99 0.862 . S
C80 C75 1.501 . S
C80 H81 0.961 . S
C80 H82 0.961 . S
C80 H83 0.960 . S
H81 C80 0.961 . S
H82 C80 0.961 . S
H83 C80 0.960 . S
C84 N85 1.342 . S
C84 C88 1.401 . S
C84 C89 1.499 . S
N85 Co68 1.989 . S
N85 C84 1.342 . S
N85 N86 1.388 . S
N86 Co69 1.993 . S
N86 N85 1.388 . S
N86 C87 1.346 . S
C87 N86 1.346 . S
C87 C88 1.396 . S
C87 C97 1.510 . S
C88 C84 1.401 . S
C88 C87 1.396 . S
C89 C84 1.499 . S
C89 H90 0.959 . S
C89 H91 0.960 . S
C89 H92 0.961 . S
H90 C89 0.959 . S
H91 C89 0.960 . S
H92 C89 0.961 . S
O93 Co68 1.967 . S
O93 C101 1.258 . S
O94 Co69 1.941 . S
O94 C101 1.266 . S
H95 C97 0.959 . S
H96 C97 0.961 . S
C97 C87 1.510 . S
C97 H95 0.959 . S
C97 H96 0.961 . S
C97 H98 0.960 . S
H98 C97 0.960 . S
H99 N79 0.862 . S
O100 Co68 1.920 . S
O100 C73 1.289 . S
C101 O93 1.258 . S
C101 O94 1.266 . S
Co102 O105 1.970 . S
Co102 N119 1.989 . S
Co102 O127 1.967 . S
Co102 O134 1.920 . S
Co103 O106 1.966 . S
Co103 N112 2.022 . S
Co103 N120 1.993 . S
Co103 O128 1.941 . S
C104 O105 1.258 . S
C104 O106 1.263 . S
O105 Co102 1.970 . S
O105 C104 1.258 . S
O106 Co103 1.966 . S
O106 C104 1.263 . S
C107 O108 1.235 . S
C107 O134 1.289 . S
O108 C107 1.235 . S
C109 C111 1.400 . S
C109 N112 1.351 . S
C109 C114 1.501 . S
C110 C111 1.387 . S
C110 N113 1.341 . S
C111 C109 1.400 . S
C111 C110 1.387 . S
N112 Co103 2.022 . S
N112 C109 1.351 . S
N112 N113 1.365 . S
N113 C110 1.341 . S
N113 N112 1.365 . S
N113 H133 0.862 . S
C114 C109 1.501 . S
C114 H115 0.961 . S
C114 H116 0.961 . S
C114 H117 0.960 . S
H115 C114 0.961 . S
H116 C114 0.961 . S
H117 C114 0.960 . S
C118 N119 1.342 . S
C118 C122 1.401 . S
C118 C123 1.499 . S
N119 Co102 1.989 . S
N119 C118 1.342 . S
N119 N120 1.388 . S
N120 Co103 1.993 . S
N120 N119 1.388 . S
N120 C121 1.346 . S
C121 N120 1.346 . S
C121 C122 1.396 . S
C121 C131 1.510 . S
C122 C118 1.401 . S
C122 C121 1.396 . S
C123 C118 1.499 . S
C123 H124 0.959 . S
C123 H125 0.960 . S
C123 H126 0.961 . S
H124 C123 0.959 . S
H125 C123 0.960 . S
H126 C123 0.961 . S
O127 Co102 1.967 . S
O127 C135 1.258 . S
O128 Co103 1.941 . S
O128 C135 1.266 . S
H129 C131 0.959 . S
H130 C131 0.961 . S
C131 C121 1.510 . S
C131 H129 0.959 . S
C131 H130 0.961 . S
C131 H132 0.960 . S
H132 C131 0.960 . S
H133 N113 0.862 . S
O134 Co102 1.920 . S
O134 C107 1.289 . S
C135 O127 1.258 . S
C135 O128 1.266 . S
Co136 O139 1.970 . S
Co136 N153 1.989 . S
Co136 O161 1.967 . S
Co136 O168 1.920 . S
Co137 O140 1.966 . S
Co137 N146 2.022 . S
Co137 N154 1.993 . S
Co137 O162 1.941 . S
C138 O139 1.258 . S
C138 O140 1.263 . S
O139 Co136 1.970 . S
O139 C138 1.258 . S
O140 Co137 1.966 . S
O140 C138 1.263 . S
C141 O142 1.235 . S
C141 O168 1.289 . S
O142 C141 1.235 . S
C143 C145 1.400 . S
C143 N146 1.351 . S
C143 C148 1.501 . S
C144 C145 1.387 . S
C144 N147 1.341 . S
C145 C143 1.400 . S
C145 C144 1.387 . S
N146 Co137 2.022 . S
N146 C143 1.351 . S
N146 N147 1.365 . S
N147 C144 1.341 . S
N147 N146 1.365 . S
N147 H167 0.862 . S
C148 C143 1.501 . S
C148 H149 0.961 . S
C148 H150 0.961 . S
C148 H151 0.960 . S
H149 C148 0.961 . S
H150 C148 0.961 . S
H151 C148 0.960 . S
C152 N153 1.342 . S
C152 C156 1.401 . S
C152 C157 1.499 . S
N153 Co136 1.989 . S
N153 C152 1.342 . S
N153 N154 1.388 . S
N154 Co137 1.993 . S
N154 N153 1.388 . S
N154 C155 1.346 . S
C155 N154 1.346 . S
C155 C156 1.396 . S
C155 C165 1.510 . S
C156 C152 1.401 . S
C156 C155 1.396 . S
C157 C152 1.499 . S
C157 H158 0.959 . S
C157 H159 0.960 . S
C157 H160 0.961 . S
H158 C157 0.959 . S
H159 C157 0.960 . S
H160 C157 0.961 . S
O161 Co136 1.967 . S
O161 C169 1.258 . S
O162 Co137 1.941 . S
O162 C169 1.266 . S
H163 C165 0.959 . S
H164 C165 0.961 . S
C165 C155 1.510 . S
C165 H163 0.959 . S
C165 H164 0.961 . S
C165 H166 0.960 . S
H166 C165 0.960 . S
H167 N147 0.862 . S
O168 Co136 1.920 . S
O168 C141 1.289 . S
C169 O161 1.258 . S
C169 O162 1.266 . S
Co170 O173 1.970 . S
Co170 N187 1.989 . S
Co170 O195 1.967 . S
Co170 O202 1.920 . S
Co171 O174 1.966 . S
Co171 N180 2.022 . S
Co171 N188 1.993 . S
Co171 O196 1.941 . S
C172 O173 1.258 . S
C172 O174 1.263 . S
O173 Co170 1.970 . S
O173 C172 1.258 . S
O174 Co171 1.966 . S
O174 C172 1.263 . S
C175 O176 1.235 . S
C175 O202 1.289 . S
O176 C175 1.235 . S
C177 C179 1.400 . S
C177 N180 1.351 . S
C177 C182 1.501 . S
C178 C179 1.387 . S
C178 N181 1.341 . S
C179 C177 1.400 . S
C179 C178 1.387 . S
N180 Co171 2.022 . S
N180 C177 1.351 . S
N180 N181 1.365 . S
N181 C178 1.341 . S
N181 N180 1.365 . S
N181 H201 0.862 . S
C182 C177 1.501 . S
C182 H183 0.961 . S
C182 H184 0.961 . S
C182 H185 0.960 . S
H183 C182 0.961 . S
H184 C182 0.961 . S
H185 C182 0.960 . S
C186 N187 1.342 . S
C186 C190 1.401 . S
C186 C191 1.499 . S
N187 Co170 1.989 . S
N187 C186 1.342 . S
N187 N188 1.388 . S
N188 Co171 1.993 . S
N188 N187 1.388 . S
N188 C189 1.346 . S
C189 N188 1.346 . S
C189 C190 1.396 . S
C189 C199 1.510 . S
C190 C186 1.401 . S
C190 C189 1.396 . S
C191 C186 1.499 . S
C191 H192 0.959 . S
C191 H193 0.960 . S
C191 H194 0.961 . S
H192 C191 0.959 . S
H193 C191 0.960 . S
H194 C191 0.961 . S
O195 Co170 1.967 . S
O195 C203 1.258 . S
O196 Co171 1.941 . S
O196 C203 1.266 . S
H197 C199 0.959 . S
H198 C199 0.961 . S
C199 C189 1.510 . S
C199 H197 0.959 . S
C199 H198 0.961 . S
C199 H200 0.960 . S
H200 C199 0.960 . S
H201 N181 0.862 . S
O202 Co170 1.920 . S
O202 C175 1.289 . S
C203 O195 1.258 . S
C203 O196 1.266 . S
Co204 O207 1.970 . S
Co204 N221 1.989 . S
Co204 O229 1.967 . S
Co204 O236 1.920 . S
Co205 O208 1.966 . S
Co205 N214 2.022 . S
Co205 N222 1.993 . S
Co205 O230 1.941 . S
C206 O207 1.258 . S
C206 O208 1.263 . S
O207 Co204 1.970 . S
O207 C206 1.258 . S
O208 Co205 1.966 . S
O208 C206 1.263 . S
C209 O210 1.235 . S
C209 O236 1.289 . S
O210 C209 1.235 . S
C211 C213 1.400 . S
C211 N214 1.351 . S
C211 C216 1.501 . S
C212 C213 1.387 . S
C212 N215 1.341 . S
C213 C211 1.400 . S
C213 C212 1.387 . S
N214 Co205 2.022 . S
N214 C211 1.351 . S
N214 N215 1.365 . S
N215 C212 1.341 . S
N215 N214 1.365 . S
N215 H235 0.862 . S
C216 C211 1.501 . S
C216 H217 0.961 . S
C216 H218 0.961 . S
C216 H219 0.960 . S
H217 C216 0.961 . S
H218 C216 0.961 . S
H219 C216 0.960 . S
C220 N221 1.342 . S
C220 C224 1.401 . S
C220 C225 1.499 . S
N221 Co204 1.989 . S
N221 C220 1.342 . S
N221 N222 1.388 . S
N222 Co205 1.993 . S
N222 N221 1.388 . S
N222 C223 1.346 . S
C223 N222 1.346 . S
C223 C224 1.396 . S
C223 C233 1.510 . S
C224 C220 1.401 . S
C224 C223 1.396 . S
C225 C220 1.499 . S
C225 H226 0.959 . S
C225 H227 0.960 . S
C225 H228 0.961 . S
H226 C225 0.959 . S
H227 C225 0.960 . S
H228 C225 0.961 . S
O229 Co204 1.967 . S
O229 C237 1.258 . S
O230 Co205 1.941 . S
O230 C237 1.266 . S
H231 C233 0.959 . S
H232 C233 0.961 . S
C233 C223 1.510 . S
C233 H231 0.959 . S
C233 H232 0.961 . S
C233 H234 0.960 . S
H234 C233 0.960 . S
H235 N215 0.862 . S
O236 Co204 1.920 . S
O236 C209 1.289 . S
C237 O229 1.258 . S
C237 O230 1.266 . S
Co238 O241 1.970 . S
Co238 N255 1.989 . S
Co238 O263 1.967 . S
Co238 O270 1.920 . S
Co239 O242 1.966 . S
Co239 N248 2.022 . S
Co239 N256 1.993 . S
Co239 O264 1.941 . S
C240 O241 1.258 . S
C240 O242 1.263 . S
O241 Co238 1.970 . S
O241 C240 1.258 . S
O242 Co239 1.966 . S
O242 C240 1.263 . S
C243 O244 1.235 . S
C243 O270 1.289 . S
O244 C243 1.235 . S
C245 C247 1.400 . S
C245 N248 1.351 . S
C245 C250 1.501 . S
C246 C247 1.387 . S
C246 N249 1.341 . S
C247 C245 1.400 . S
C247 C246 1.387 . S
N248 Co239 2.022 . S
N248 C245 1.351 . S
N248 N249 1.365 . S
N249 C246 1.341 . S
N249 N248 1.365 . S
N249 H269 0.862 . S
C250 C245 1.501 . S
C250 H251 0.961 . S
C250 H252 0.961 . S
C250 H253 0.960 . S
H251 C250 0.961 . S
H252 C250 0.961 . S
H253 C250 0.960 . S
C254 N255 1.342 . S
C254 C258 1.401 . S
C254 C259 1.499 . S
N255 Co238 1.989 . S
N255 C254 1.342 . S
N255 N256 1.388 . S
N256 Co239 1.993 . S
N256 N255 1.388 . S
N256 C257 1.346 . S
C257 N256 1.346 . S
C257 C258 1.396 . S
C257 C267 1.510 . S
C258 C254 1.401 . S
C258 C257 1.396 . S
C259 C254 1.499 . S
C259 H260 0.959 . S
C259 H261 0.960 . S
C259 H262 0.961 . S
H260 C259 0.959 . S
H261 C259 0.960 . S
H262 C259 0.961 . S
O263 Co238 1.967 . S
O263 C271 1.258 . S
O264 Co239 1.941 . S
O264 C271 1.266 . S
H265 C267 0.959 . S
H266 C267 0.961 . S
C267 C257 1.510 . S
C267 H265 0.959 . S
C267 H266 0.961 . S
C267 H268 0.960 . S
H268 C267 0.960 . S
H269 N249 0.862 . S
O270 Co238 1.920 . S
O270 C243 1.289 . S
C271 O263 1.258 . S
C271 O264 1.266 . S
Co272 O275 1.970 . S
Co272 N289 1.989 . S
Co272 O297 1.967 . S
Co272 O304 1.920 . S
Co273 O276 1.966 . S
Co273 N282 2.022 . S
Co273 N290 1.993 . S
Co273 O298 1.941 . S
C274 O275 1.258 . S
C274 O276 1.263 . S
O275 Co272 1.970 . S
O275 C274 1.258 . S
O276 Co273 1.966 . S
O276 C274 1.263 . S
C277 O278 1.235 . S
C277 O304 1.289 . S
O278 C277 1.235 . S
C279 C281 1.400 . S
C279 N282 1.351 . S
C279 C284 1.501 . S
C280 C281 1.387 . S
C280 N283 1.341 . S
C281 C279 1.400 . S
C281 C280 1.387 . S
N282 Co273 2.022 . S
N282 C279 1.351 . S
N282 N283 1.365 . S
N283 C280 1.341 . S
N283 N282 1.365 . S
N283 H303 0.862 . S
C284 C279 1.501 . S
C284 H285 0.961 . S
C284 H286 0.961 . S
C284 H287 0.960 . S
H285 C284 0.961 . S
H286 C284 0.961 . S
H287 C284 0.960 . S
C288 N289 1.342 . S
C288 C292 1.401 . S
C288 C293 1.499 . S
N289 Co272 1.989 . S
N289 C288 1.342 . S
N289 N290 1.388 . S
N290 Co273 1.993 . S
N290 N289 1.388 . S
N290 C291 1.346 . S
C291 N290 1.346 . S
C291 C292 1.396 . S
C291 C301 1.510 . S
C292 C288 1.401 . S
C292 C291 1.396 . S
C293 C288 1.499 . S
C293 H294 0.959 . S
C293 H295 0.960 . S
C293 H296 0.961 . S
H294 C293 0.959 . S
H295 C293 0.960 . S
H296 C293 0.961 . S
O297 Co272 1.967 . S
O297 C305 1.258 . S
O298 Co273 1.941 . S
O298 C305 1.266 . S
H299 C301 0.959 . S
H300 C301 0.961 . S
C301 C291 1.510 . S
C301 H299 0.959 . S
C301 H300 0.961 . S
C301 H302 0.960 . S
H302 C301 0.960 . S
H303 N283 0.862 . S
O304 Co272 1.920 . S
O304 C277 1.289 . S
C305 O297 1.258 . S
C305 O298 1.266 . S
Co306 O309 1.970 . S
Co306 N323 1.989 . S
Co306 O331 1.967 . S
Co306 O338 1.920 . S
Co307 O310 1.966 . S
Co307 N316 2.022 . S
Co307 N324 1.993 . S
Co307 O332 1.941 . S
C308 O309 1.258 . S
C308 O310 1.263 . S
O309 Co306 1.970 . S
O309 C308 1.258 . S
O310 Co307 1.966 . S
O310 C308 1.263 . S
C311 O312 1.235 . S
C311 O338 1.289 . S
O312 C311 1.235 . S
C313 C315 1.400 . S
C313 N316 1.351 . S
C313 C318 1.501 . S
C314 C315 1.387 . S
C314 N317 1.341 . S
C315 C313 1.400 . S
C315 C314 1.387 . S
N316 Co307 2.022 . S
N316 C313 1.351 . S
N316 N317 1.365 . S
N317 C314 1.341 . S
N317 N316 1.365 . S
N317 H337 0.862 . S
C318 C313 1.501 . S
C318 H319 0.961 . S
C318 H320 0.961 . S
C318 H321 0.960 . S
H319 C318 0.961 . S
H320 C318 0.961 . S
H321 C318 0.960 . S
C322 N323 1.342 . S
C322 C326 1.401 . S
C322 C327 1.499 . S
N323 Co306 1.989 . S
N323 C322 1.342 . S
N323 N324 1.388 . S
N324 Co307 1.993 . S
N324 N323 1.388 . S
N324 C325 1.346 . S
C325 N324 1.346 . S
C325 C326 1.396 . S
C325 C335 1.510 . S
C326 C322 1.401 . S
C326 C325 1.396 . S
C327 C322 1.499 . S
C327 H328 0.959 . S
C327 H329 0.960 . S
C327 H330 0.961 . S
H328 C327 0.959 . S
H329 C327 0.960 . S
H330 C327 0.961 . S
O331 Co306 1.967 . S
O331 C339 1.258 . S
O332 Co307 1.941 . S
O332 C339 1.266 . S
H333 C335 0.959 . S
H334 C335 0.961 . S
C335 C325 1.510 . S
C335 H333 0.959 . S
C335 H334 0.961 . S
C335 H336 0.960 . S
H336 C335 0.960 . S
H337 N317 0.862 . S
O338 Co306 1.920 . S
O338 C311 1.289 . S
C339 O331 1.258 . S
C339 O332 1.266 . S
Co340 O343 1.970 . S
Co340 N357 1.989 . S
Co340 O365 1.967 . S
Co340 O372 1.920 . S
Co341 O344 1.966 . S
Co341 N350 2.022 . S
Co341 N358 1.993 . S
Co341 O366 1.941 . S
C342 O343 1.258 . S
C342 O344 1.263 . S
O343 Co340 1.970 . S
O343 C342 1.258 . S
O344 Co341 1.966 . S
O344 C342 1.263 . S
C345 O346 1.235 . S
C345 O372 1.289 . S
O346 C345 1.235 . S
C347 C349 1.400 . S
C347 N350 1.351 . S
C347 C352 1.501 . S
C348 C349 1.387 . S
C348 N351 1.341 . S
C349 C347 1.400 . S
C349 C348 1.387 . S
N350 Co341 2.022 . S
N350 C347 1.351 . S
N350 N351 1.365 . S
N351 C348 1.341 . S
N351 N350 1.365 . S
N351 H371 0.862 . S
C352 C347 1.501 . S
C352 H353 0.961 . S
C352 H354 0.961 . S
C352 H355 0.960 . S
H353 C352 0.961 . S
H354 C352 0.961 . S
H355 C352 0.960 . S
C356 N357 1.342 . S
C356 C360 1.401 . S
C356 C361 1.499 . S
N357 Co340 1.989 . S
N357 C356 1.342 . S
N357 N358 1.388 . S
N358 Co341 1.993 . S
N358 N357 1.388 . S
N358 C359 1.346 . S
C359 N358 1.346 . S
C359 C360 1.396 . S
C359 C369 1.510 . S
C360 C356 1.401 . S
C360 C359 1.396 . S
C361 C356 1.499 . S
C361 H362 0.959 . S
C361 H363 0.960 . S
C361 H364 0.961 . S
H362 C361 0.959 . S
H363 C361 0.960 . S
H364 C361 0.961 . S
O365 Co340 1.967 . S
O365 C373 1.258 . S
O366 Co341 1.941 . S
O366 C373 1.266 . S
H367 C369 0.959 . S
H368 C369 0.961 . S
C369 C359 1.510 . S
C369 H367 0.959 . S
C369 H368 0.961 . S
C369 H370 0.960 . S
H370 C369 0.960 . S
H371 N351 0.862 . S
O372 Co340 1.920 . S
O372 C345 1.289 . S
C373 O365 1.258 . S
C373 O366 1.266 . S
Co374 O377 1.970 . S
Co374 N391 1.989 . S
Co374 O399 1.967 . S
Co374 O406 1.920 . S
Co375 O378 1.966 . S
Co375 N384 2.022 . S
Co375 N392 1.993 . S
Co375 O400 1.941 . S
C376 O377 1.258 . S
C376 O378 1.263 . S
O377 Co374 1.970 . S
O377 C376 1.258 . S
O378 Co375 1.966 . S
O378 C376 1.263 . S
C379 O380 1.235 . S
C379 O406 1.289 . S
O380 C379 1.235 . S
C381 C383 1.400 . S
C381 N384 1.351 . S
C381 C386 1.501 . S
C382 C383 1.387 . S
C382 N385 1.341 . S
C383 C381 1.400 . S
C383 C382 1.387 . S
N384 Co375 2.022 . S
N384 C381 1.351 . S
N384 N385 1.365 . S
N385 C382 1.341 . S
N385 N384 1.365 . S
N385 H405 0.862 . S
C386 C381 1.501 . S
C386 H387 0.961 . S
C386 H388 0.961 . S
C386 H389 0.960 . S
H387 C386 0.961 . S
H388 C386 0.961 . S
H389 C386 0.960 . S
C390 N391 1.342 . S
C390 C394 1.401 . S
C390 C395 1.499 . S
N391 Co374 1.989 . S
N391 C390 1.342 . S
N391 N392 1.388 . S
N392 Co375 1.993 . S
N392 N391 1.388 . S
N392 C393 1.346 . S
C393 N392 1.346 . S
C393 C394 1.396 . S
C393 C403 1.510 . S
C394 C390 1.401 . S
C394 C393 1.396 . S
C395 C390 1.499 . S
C395 H396 0.959 . S
C395 H397 0.960 . S
C395 H398 0.961 . S
H396 C395 0.959 . S
H397 C395 0.960 . S
H398 C395 0.961 . S
O399 Co374 1.967 . S
O399 C407 1.258 . S
O400 Co375 1.941 . S
O400 C407 1.266 . S
H401 C403 0.959 . S
H402 C403 0.961 . S
C403 C393 1.510 . S
C403 H401 0.959 . S
C403 H402 0.961 . S
C403 H404 0.960 . S
H404 C403 0.960 . S
H405 N385 0.862 . S
O406 Co374 1.920 . S
O406 C379 1.289 . S
C407 O399 1.258 . S
C407 O400 1.266 . S
C408 C409 1.349 . S
C408 C410 1.327 . S
C408 H433 0.950 . S
C409 C408 1.349 . S
C409 C425 1.349 . S
C410 C408 1.327 . S
C410 C429 1.429 . S
C410 H434 0.950 . S
C411 C428 1.574 . S
C411 C430 1.368 . S
C411 H435 0.949 . S
H412 C416 0.949 . S
C413 C414 1.349 . S
C413 C415 1.327 . S
C413 H436 0.950 . S
C414 C413 1.349 . S
C414 C426 1.349 . S
C415 C413 1.327 . S
C415 C431 1.429 . S
C415 H437 0.950 . S
C416 H412 0.949 . S
C416 C424 1.574 . S
C416 C432 1.368 . S
H417 C425 0.950 . S
H418 C423 0.950 . S
H419 C424 0.949 . S
H420 C426 0.950 . S
H421 C427 0.950 . S
H422 C428 0.949 . S
C423 H418 0.950 . S
C423 C425 1.327 . S
C423 C429 1.429 . S
C424 C416 1.574 . S
C424 H419 0.949 . S
C424 C430 1.368 . S
C425 C409 1.349 . S
C425 H417 0.950 . S
C425 C423 1.327 . S
C426 C414 1.349 . S
C426 H420 0.950 . S
C426 C427 1.327 . S
C427 H421 0.950 . S
C427 C426 1.327 . S
C427 C431 1.429 . S
C428 C411 1.574 . S
C428 H422 0.949 . S
C428 C432 1.368 . S
C429 C410 1.429 . S
C429 C423 1.429 . S
C429 C430 1.523 . S
C430 C411 1.368 . S
C430 C424 1.368 . S
C430 C429 1.523 . S
C431 C415 1.429 . S
C431 C427 1.429 . S
C431 C432 1.523 . S
C432 C416 1.368 . S
C432 C428 1.368 . S
C432 C431 1.523 . S
H433 C408 0.950 . S
H434 C410 0.950 . S
H435 C411 0.949 . S
H436 C413 0.950 . S
H437 C415 0.950 . S
C438 C439 1.349 . S
C438 C440 1.327 . S
C438 H463 0.950 . S
C439 C438 1.349 . S
C439 C455 1.349 . S
C440 C438 1.327 . S
C440 C459 1.429 . S
C440 H464 0.950 . S
C441 C458 1.574 . S
C441 C460 1.368 . S
C441 H465 0.949 . S
H442 C446 0.949 . S
C443 C444 1.349 . S
C443 C445 1.327 . S
C443 H466 0.950 . S
C444 C443 1.349 . S
C444 C456 1.349 . S
C445 C443 1.327 . S
C445 C461 1.429 . S
C445 H467 0.950 . S
C446 H442 0.949 . S
C446 C454 1.574 . S
C446 C462 1.368 . S
H447 C455 0.950 . S
H448 C453 0.950 . S
H449 C454 0.949 . S
H450 C456 0.950 . S
H451 C457 0.950 . S
H452 C458 0.949 . S
C453 H448 0.950 . S
C453 C455 1.327 . S
C453 C459 1.429 . S
C454 C446 1.574 . S
C454 H449 0.949 . S
C454 C460 1.368 . S
C455 C439 1.349 . S
C455 H447 0.950 . S
C455 C453 1.327 . S
C456 C444 1.349 . S
C456 H450 0.950 . S
C456 C457 1.327 . S
C457 H451 0.950 . S
C457 C456 1.327 . S
C457 C461 1.429 . S
C458 C441 1.574 . S
C458 H452 0.949 . S
C458 C462 1.368 . S
C459 C440 1.429 . S
C459 C453 1.429 . S
C459 C460 1.523 . S
C460 C441 1.368 . S
C460 C454 1.368 . S
C460 C459 1.523 . S
C461 C445 1.429 . S
C461 C457 1.429 . S
C461 C462 1.523 . S
C462 C446 1.368 . S
C462 C458 1.368 . S
C462 C461 1.523 . S
H463 C438 0.950 . S
H464 C440 0.950 . S
H465 C441 0.949 . S
H466 C443 0.950 . S
H467 C445 0.950 . S
C468 C469 1.349 . S
C468 C470 1.327 . S
C468 H493 0.950 . S
C469 C468 1.349 . S
C469 C485 1.349 . S
C470 C468 1.327 . S
C470 C489 1.429 . S
C470 H494 0.950 . S
C471 C488 1.574 . S
C471 C490 1.368 . S
C471 H495 0.949 . S
H472 C476 0.949 . S
C473 C474 1.349 . S
C473 C475 1.327 . S
C473 H496 0.950 . S
C474 C473 1.349 . S
C474 C486 1.349 . S
C475 C473 1.327 . S
C475 C491 1.429 . S
C475 H497 0.950 . S
C476 H472 0.949 . S
C476 C484 1.574 . S
C476 C492 1.368 . S
H477 C485 0.950 . S
H478 C483 0.950 . S
H479 C484 0.949 . S
H480 C486 0.950 . S
H481 C487 0.950 . S
H482 C488 0.949 . S
C483 H478 0.950 . S
C483 C485 1.327 . S
C483 C489 1.429 . S
C484 C476 1.574 . S
C484 H479 0.949 . S
C484 C490 1.368 . S
C485 C469 1.349 . S
C485 H477 0.950 . S
C485 C483 1.327 . S
C486 C474 1.349 . S
C486 H480 0.950 . S
C486 C487 1.327 . S
C487 H481 0.950 . S
C487 C486 1.327 . S
C487 C491 1.429 . S
C488 C471 1.574 . S
C488 H482 0.949 . S
C488 C492 1.368 . S
C489 C470 1.429 . S
C489 C483 1.429 . S
C489 C490 1.523 . S
C490 C471 1.368 . S
C490 C484 1.368 . S
C490 C489 1.523 . S
C491 C475 1.429 . S
C491 C487 1.429 . S
C491 C492 1.523 . S
C492 C476 1.368 . S
C492 C488 1.368 . S
C492 C491 1.523 . S
H493 C468 0.950 . S
H494 C470 0.950 . S
H495 C471 0.949 . S
H496 C473 0.950 . S
H497 C475 0.950 . S
C498 C499 1.349 . S
C498 C500 1.327 . S
C498 H523 0.950 . S
C499 C498 1.349 . S
C499 C515 1.349 . S
C500 C498 1.327 . S
C500 C519 1.429 . S
C500 H524 0.950 . S
C501 C518 1.574 . S
C501 C520 1.368 . S
C501 H525 0.949 . S
H502 C506 0.949 . S
C503 C504 1.349 . S
C503 C505 1.327 . S
C503 H526 0.950 . S
C504 C503 1.349 . S
C504 C516 1.349 . S
C505 C503 1.327 . S
C505 C521 1.429 . S
C505 H527 0.950 . S
C506 H502 0.949 . S
C506 C514 1.574 . S
C506 C522 1.368 . S
H507 C515 0.950 . S
H508 C513 0.950 . S
H509 C514 0.949 . S
H510 C516 0.950 . S
H511 C517 0.950 . S
H512 C518 0.949 . S
C513 H508 0.950 . S
C513 C515 1.327 . S
C513 C519 1.429 . S
C514 C506 1.574 . S
C514 H509 0.949 . S
C514 C520 1.368 . S
C515 C499 1.349 . S
C515 H507 0.950 . S
C515 C513 1.327 . S
C516 C504 1.349 . S
C516 H510 0.950 . S
C516 C517 1.327 . S
C517 H511 0.950 . S
C517 C516 1.327 . S
C517 C521 1.429 . S
C518 C501 1.574 . S
C518 H512 0.949 . S
C518 C522 1.368 . S
C519 C500 1.429 . S
C519 C513 1.429 . S
C519 C520 1.523 . S
C520 C501 1.368 . S
C520 C514 1.368 . S
C520 C519 1.523 . S
C521 C505 1.429 . S
C521 C517 1.429 . S
C521 C522 1.523 . S
C522 C506 1.368 . S
C522 C518 1.368 . S
C522 C521 1.523 . S
H523 C498 0.950 . S
H524 C500 0.950 . S
H525 C501 0.949 . S
H526 C503 0.950 . S
H527 C505 0.950 . S
C528 C529 1.349 . S
C528 C530 1.327 . S
C528 H553 0.950 . S
C529 C528 1.349 . S
C529 C545 1.349 . S
C530 C528 1.327 . S
C530 C549 1.429 . S
C530 H554 0.950 . S
C531 C548 1.574 . S
C531 C550 1.368 . S
C531 H555 0.949 . S
H532 C536 0.949 . S
C533 C534 1.349 . S
C533 C535 1.327 . S
C533 H556 0.950 . S
C534 C533 1.349 . S
C534 C546 1.349 . S
C535 C533 1.327 . S
C535 C551 1.429 . S
C535 H557 0.950 . S
C536 H532 0.949 . S
C536 C544 1.574 . S
C536 C552 1.368 . S
H537 C545 0.950 . S
H538 C543 0.950 . S
H539 C544 0.949 . S
H540 C546 0.950 . S
H541 C547 0.950 . S
H542 C548 0.949 . S
C543 H538 0.950 . S
C543 C545 1.327 . S
C543 C549 1.429 . S
C544 C536 1.574 . S
C544 H539 0.949 . S
C544 C550 1.368 . S
C545 C529 1.349 . S
C545 H537 0.950 . S
C545 C543 1.327 . S
C546 C534 1.349 . S
C546 H540 0.950 . S
C546 C547 1.327 . S
C547 H541 0.950 . S
C547 C546 1.327 . S
C547 C551 1.429 . S
C548 C531 1.574 . S
C548 H542 0.949 . S
C548 C552 1.368 . S
C549 C530 1.429 . S
C549 C543 1.429 . S
C549 C550 1.523 . S
C550 C531 1.368 . S
C550 C544 1.368 . S
C550 C549 1.523 . S
C551 C535 1.429 . S
C551 C547 1.429 . S
C551 C552 1.523 . S
C552 C536 1.368 . S
C552 C548 1.368 . S
C552 C551 1.523 . S
H553 C528 0.950 . S
H554 C530 0.950 . S
H555 C531 0.949 . S
H556 C533 0.950 . S
H557 C535 0.950 . S
C558 C559 1.349 . S
C558 C560 1.327 . S
C558 H583 0.950 . S
C559 C558 1.349 . S
C559 C575 1.349 . S
C560 C558 1.327 . S
C560 C579 1.429 . S
C560 H584 0.950 . S
C561 C578 1.574 . S
C561 C580 1.368 . S
C561 H585 0.949 . S
H562 C566 0.949 . S
C563 C564 1.349 . S
C563 C565 1.327 . S
C563 H586 0.950 . S
C564 C563 1.349 . S
C564 C576 1.349 . S
C565 C563 1.327 . S
C565 C581 1.429 . S
C565 H587 0.950 . S
C566 H562 0.949 . S
C566 C574 1.574 . S
C566 C582 1.368 . S
H567 C575 0.950 . S
H568 C573 0.950 . S
H569 C574 0.949 . S
H570 C576 0.950 . S
H571 C577 0.950 . S
H572 C578 0.949 . S
C573 H568 0.950 . S
C573 C575 1.327 . S
C573 C579 1.429 . S
C574 C566 1.574 . S
C574 H569 0.949 . S
C574 C580 1.368 . S
C575 C559 1.349 . S
C575 H567 0.950 . S
C575 C573 1.327 . S
C576 C564 1.349 . S
C576 H570 0.950 . S
C576 C577 1.327 . S
C577 H571 0.950 . S
C577 C576 1.327 . S
C577 C581 1.429 . S
C578 C561 1.574 . S
C578 H572 0.949 . S
C578 C582 1.368 . S
C579 C560 1.429 . S
C579 C573 1.429 . S
C579 C580 1.523 . S
C580 C561 1.368 . S
C580 C574 1.368 . S
C580 C579 1.523 . S
C581 C565 1.429 . S
C581 C577 1.429 . S
C581 C582 1.523 . S
C582 C566 1.368 . S
C582 C578 1.368 . S
C582 C581 1.523 . S
H583 C558 0.950 . S
H584 C560 0.950 . S
H585 C561 0.949 . S
H586 C563 0.950 . S
H587 C565 0.950 . S
C588 C589 1.349 . S
C588 C590 1.327 . S
C588 H613 0.950 . S
C589 C588 1.349 . S
C589 C605 1.349 . S
C590 C588 1.327 . S
C590 C609 1.429 . S
C590 H614 0.950 . S
C591 C608 1.574 . S
C591 C610 1.368 . S
C591 H615 0.949 . S
H592 C596 0.949 . S
C593 C594 1.349 . S
C593 C595 1.327 . S
C593 H616 0.950 . S
C594 C593 1.349 . S
C594 C606 1.349 . S
C595 C593 1.327 . S
C595 C611 1.429 . S
C595 H617 0.950 . S
C596 H592 0.949 . S
C596 C604 1.574 . S
C596 C612 1.368 . S
H597 C605 0.950 . S
H598 C603 0.950 . S
H599 C604 0.949 . S
H600 C606 0.950 . S
H601 C607 0.950 . S
H602 C608 0.949 . S
C603 H598 0.950 . S
C603 C605 1.327 . S
C603 C609 1.429 . S
C604 C596 1.574 . S
C604 H599 0.949 . S
C604 C610 1.368 . S
C605 C589 1.349 . S
C605 H597 0.950 . S
C605 C603 1.327 . S
C606 C594 1.349 . S
C606 H600 0.950 . S
C606 C607 1.327 . S
C607 H601 0.950 . S
C607 C606 1.327 . S
C607 C611 1.429 . S
C608 C591 1.574 . S
C608 H602 0.949 . S
C608 C612 1.368 . S
C609 C590 1.429 . S
C609 C603 1.429 . S
C609 C610 1.523 . S
C610 C591 1.368 . S
C610 C604 1.368 . S
C610 C609 1.523 . S
C611 C595 1.429 . S
C611 C607 1.429 . S
C611 C612 1.523 . S
C612 C596 1.368 . S
C612 C608 1.368 . S
C612 C611 1.523 . S
H613 C588 0.950 . S
H614 C590 0.950 . S
H615 C591 0.949 . S
H616 C593 0.950 . S
H617 C595 0.950 . S
C618 C619 1.349 . S
C618 C620 1.327 . S
C618 H643 0.950 . S
C619 C618 1.349 . S
C619 C635 1.349 . S
C620 C618 1.327 . S
C620 C639 1.429 . S
C620 H644 0.950 . S
C621 C638 1.574 . S
C621 C640 1.368 . S
C621 H645 0.949 . S
H622 C626 0.949 . S
C623 C624 1.349 . S
C623 C625 1.327 . S
C623 H646 0.950 . S
C624 C623 1.349 . S
C624 C636 1.349 . S
C625 C623 1.327 . S
C625 C641 1.429 . S
C625 H647 0.950 . S
C626 H622 0.949 . S
C626 C634 1.574 . S
C626 C642 1.368 . S
H627 C635 0.950 . S
H628 C633 0.950 . S
H629 C634 0.949 . S
H630 C636 0.950 . S
H631 C637 0.950 . S
H632 C638 0.949 . S
C633 H628 0.950 . S
C633 C635 1.327 . S
C633 C639 1.429 . S
C634 C626 1.574 . S
C634 H629 0.949 . S
C634 C640 1.368 . S
C635 C619 1.349 . S
C635 H627 0.950 . S
C635 C633 1.327 . S
C636 C624 1.349 . S
C636 H630 0.950 . S
C636 C637 1.327 . S
C637 H631 0.950 . S
C637 C636 1.327 . S
C637 C641 1.429 . S
C638 C621 1.574 . S
C638 H632 0.949 . S
C638 C642 1.368 . S
C639 C620 1.429 . S
C639 C633 1.429 . S
C639 C640 1.523 . S
C640 C621 1.368 . S
C640 C634 1.368 . S
C640 C639 1.523 . S
C641 C625 1.429 . S
C641 C637 1.429 . S
C641 C642 1.523 . S
C642 C626 1.368 . S
C642 C638 1.368 . S
C642 C641 1.523 . S
H643 C618 0.950 . S
H644 C620 0.950 . S
H645 C621 0.949 . S
H646 C623 0.950 . S
H647 C625 0.950 . S
C648 C649 1.349 . S
C648 C650 1.327 . S
C648 H673 0.950 . S
C649 C648 1.349 . S
C649 C665 1.349 . S
C650 C648 1.327 . S
C650 C669 1.429 . S
C650 H674 0.950 . S
C651 C668 1.574 . S
C651 C670 1.368 . S
C651 H675 0.949 . S
H652 C656 0.949 . S
C653 C654 1.349 . S
C653 C655 1.327 . S
C653 H676 0.950 . S
C654 C653 1.349 . S
C654 C666 1.349 . S
C655 C653 1.327 . S
C655 C671 1.429 . S
C655 H677 0.950 . S
C656 H652 0.949 . S
C656 C664 1.574 . S
C656 C672 1.368 . S
H657 C665 0.950 . S
H658 C663 0.950 . S
H659 C664 0.949 . S
H660 C666 0.950 . S
H661 C667 0.950 . S
H662 C668 0.949 . S
C663 H658 0.950 . S
C663 C665 1.327 . S
C663 C669 1.429 . S
C664 C656 1.574 . S
C664 H659 0.949 . S
C664 C670 1.368 . S
C665 C649 1.349 . S
C665 H657 0.950 . S
C665 C663 1.327 . S
C666 C654 1.349 . S
C666 H660 0.950 . S
C666 C667 1.327 . S
C667 H661 0.950 . S
C667 C666 1.327 . S
C667 C671 1.429 . S
C668 C651 1.574 . S
C668 H662 0.949 . S
C668 C672 1.368 . S
C669 C650 1.429 . S
C669 C663 1.429 . S
C669 C670 1.523 . S
C670 C651 1.368 . S
C670 C664 1.368 . S
C670 C669 1.523 . S
C671 C655 1.429 . S
C671 C667 1.429 . S
C671 C672 1.523 . S
C672 C656 1.368 . S
C672 C668 1.368 . S
C672 C671 1.523 . S
H673 C648 0.950 . S
H674 C650 0.950 . S
H675 C651 0.949 . S
H676 C653 0.950 . S
H677 C655 0.950 . S
C678 C679 1.349 . S
C678 C680 1.327 . S
C678 H703 0.950 . S
C679 C678 1.349 . S
C679 C695 1.349 . S
C680 C678 1.327 . S
C680 C699 1.429 . S
C680 H704 0.950 . S
C681 C698 1.574 . S
C681 C700 1.368 . S
C681 H705 0.949 . S
H682 C686 0.949 . S
C683 C684 1.349 . S
C683 C685 1.327 . S
C683 H706 0.950 . S
C684 C683 1.349 . S
C684 C696 1.349 . S
C685 C683 1.327 . S
C685 C701 1.429 . S
C685 H707 0.950 . S
C686 H682 0.949 . S
C686 C694 1.574 . S
C686 C702 1.368 . S
H687 C695 0.950 . S
H688 C693 0.950 . S
H689 C694 0.949 . S
H690 C696 0.950 . S
H691 C697 0.950 . S
H692 C698 0.949 . S
C693 H688 0.950 . S
C693 C695 1.327 . S
C693 C699 1.429 . S
C694 C686 1.574 . S
C694 H689 0.949 . S
C694 C700 1.368 . S
C695 C679 1.349 . S
C695 H687 0.950 . S
C695 C693 1.327 . S
C696 C684 1.349 . S
C696 H690 0.950 . S
C696 C697 1.327 . S
C697 H691 0.950 . S
C697 C696 1.327 . S
C697 C701 1.429 . S
C698 C681 1.574 . S
C698 H692 0.949 . S
C698 C702 1.368 . S
C699 C680 1.429 . S
C699 C693 1.429 . S
C699 C700 1.523 . S
C700 C681 1.368 . S
C700 C694 1.368 . S
C700 C699 1.523 . S
C701 C685 1.429 . S
C701 C697 1.429 . S
C701 C702 1.523 . S
C702 C686 1.368 . S
C702 C698 1.368 . S
C702 C701 1.523 . S
H703 C678 0.950 . S
H704 C680 0.950 . S
H705 C681 0.949 . S
H706 C683 0.950 . S
H707 C685 0.950 . S
C708 C709 1.349 . S
C708 C710 1.327 . S
C708 H733 0.950 . S
C709 C708 1.349 . S
C709 C725 1.349 . S
C710 C708 1.327 . S
C710 C729 1.429 . S
C710 H734 0.950 . S
C711 C728 1.574 . S
C711 C730 1.368 . S
C711 H735 0.949 . S
H712 C716 0.949 . S
C713 C714 1.349 . S
C713 C715 1.327 . S
C713 H736 0.950 . S
C714 C713 1.349 . S
C714 C726 1.349 . S
C715 C713 1.327 . S
C715 C731 1.429 . S
C715 H737 0.950 . S
C716 H712 0.949 . S
C716 C724 1.574 . S
C716 C732 1.368 . S
H717 C725 0.950 . S
H718 C723 0.950 . S
H719 C724 0.949 . S
H720 C726 0.950 . S
H721 C727 0.950 . S
H722 C728 0.949 . S
C723 H718 0.950 . S
C723 C725 1.327 . S
C723 C729 1.429 . S
C724 C716 1.574 . S
C724 H719 0.949 . S
C724 C730 1.368 . S
C725 C709 1.349 . S
C725 H717 0.950 . S
C725 C723 1.327 . S
C726 C714 1.349 . S
C726 H720 0.950 . S
C726 C727 1.327 . S
C727 H721 0.950 . S
C727 C726 1.327 . S
C727 C731 1.429 . S
C728 C711 1.574 . S
C728 H722 0.949 . S
C728 C732 1.368 . S
C729 C710 1.429 . S
C729 C723 1.429 . S
C729 C730 1.523 . S
C730 C711 1.368 . S
C730 C724 1.368 . S
C730 C729 1.523 . S
C731 C715 1.429 . S
C731 C727 1.429 . S
C731 C732 1.523 . S
C732 C716 1.368 . S
C732 C728 1.368 . S
C732 C731 1.523 . S
H733 C708 0.950 . S
H734 C710 0.950 . S
H735 C711 0.949 . S
H736 C713 0.950 . S
H737 C715 0.950 . S
C738 C739 1.349 . S
C738 C740 1.327 . S
C738 H763 0.950 . S
C739 C738 1.349 . S
C739 C755 1.349 . S
C740 C738 1.327 . S
C740 C759 1.429 . S
C740 H764 0.950 . S
C741 C758 1.574 . S
C741 C760 1.368 . S
C741 H765 0.949 . S
H742 C746 0.949 . S
C743 C744 1.349 . S
C743 C745 1.327 . S
C743 H766 0.950 . S
C744 C743 1.349 . S
C744 C756 1.349 . S
C745 C743 1.327 . S
C745 C761 1.429 . S
C745 H767 0.950 . S
C746 H742 0.949 . S
C746 C754 1.574 . S
C746 C762 1.368 . S
H747 C755 0.950 . S
H748 C753 0.950 . S
H749 C754 0.949 . S
H750 C756 0.950 . S
H751 C757 0.950 . S
H752 C758 0.949 . S
C753 H748 0.950 . S
C753 C755 1.327 . S
C753 C759 1.429 . S
C754 C746 1.574 . S
C754 H749 0.949 . S
C754 C760 1.368 . S
C755 C739 1.349 . S
C755 H747 0.950 . S
C755 C753 1.327 . S
C756 C744 1.349 . S
C756 H750 0.950 . S
C756 C757 1.327 . S
C757 H751 0.950 . S
C757 C756 1.327 . S
C757 C761 1.429 . S
C758 C741 1.574 . S
C758 H752 0.949 . S
C758 C762 1.368 . S
C759 C740 1.429 . S
C759 C753 1.429 . S
C759 C760 1.523 . S
C760 C741 1.368 . S
C760 C754 1.368 . S
C760 C759 1.523 . S
C761 C745 1.429 . S
C761 C757 1.429 . S
C761 C762 1.523 . S
C762 C746 1.368 . S
C762 C758 1.368 . S
C762 C761 1.523 . S
H763 C738 0.950 . S
H764 C740 0.950 . S
H765 C741 0.949 . S
H766 C743 0.950 . S
H767 C745 0.950 . S
C768 C769 1.349 . S
C768 C770 1.327 . S
C768 H793 0.950 . S
C769 C768 1.349 . S
C769 C785 1.349 . S
C770 C768 1.327 . S
C770 C789 1.429 . S
C770 H794 0.950 . S
C771 C788 1.574 1_565 S
C771 C790 1.368 . S
C771 H795 0.949 . S
H772 C776 0.949 . S
C773 C774 1.349 . S
C773 C775 1.327 . S
C773 H796 0.950 . S
C774 C773 1.349 . S
C774 C786 1.349 . S
C775 C773 1.327 . S
C775 C791 1.429 . S
C775 H797 0.950 . S
C776 H772 0.949 . S
C776 C784 1.574 1_545 S
C776 C792 1.368 . S
H777 C785 0.950 . S
H778 C783 0.950 . S
H779 C784 0.949 . S
H780 C786 0.950 . S
H781 C787 0.950 . S
H782 C788 0.949 . S
C783 H778 0.950 . S
C783 C785 1.327 . S
C783 C789 1.429 . S
C784 C776 1.574 1_565 S
C784 H779 0.949 . S
C784 C790 1.368 . S
C785 C769 1.349 . S
C785 H777 0.950 . S
C785 C783 1.327 . S
C786 C774 1.349 . S
C786 H780 0.950 . S
C786 C787 1.327 . S
C787 H781 0.950 . S
C787 C786 1.327 . S
C787 C791 1.429 . S
C788 C771 1.574 1_545 S
C788 H782 0.949 . S
C788 C792 1.368 . S
C789 C770 1.429 . S
C789 C783 1.429 . S
C789 C790 1.523 . S
C790 C771 1.368 . S
C790 C784 1.368 . S
C790 C789 1.523 . S
C791 C775 1.429 . S
C791 C787 1.429 . S
C791 C792 1.523 . S
C792 C776 1.368 . S
C792 C788 1.368 . S
C792 C791 1.523 . S
H793 C768 0.950 . S
H794 C770 0.950 . S
H795 C771 0.949 . S
H796 C773 0.950 . S
H797 C775 0.950 . S
C798 C799 1.349 . S
C798 C800 1.327 . S
C798 H823 0.950 . S
C799 C798 1.349 . S
C799 C815 1.349 . S
C800 C798 1.327 . S
C800 C819 1.429 . S
C800 H824 0.950 . S
C801 C818 1.574 1_655 S
C801 C820 1.368 . S
C801 H825 0.949 . S
H802 C806 0.949 . S
C803 C804 1.349 . S
C803 C805 1.327 . S
C803 H826 0.950 . S
C804 C803 1.349 . S
C804 C816 1.349 . S
C805 C803 1.327 . S
C805 C821 1.429 . S
C805 H827 0.950 . S
C806 H802 0.949 . S
C806 C814 1.574 1_455 S
C806 C822 1.368 . S
H807 C815 0.950 . S
H808 C813 0.950 . S
H809 C814 0.949 . S
H810 C816 0.950 . S
H811 C817 0.950 . S
H812 C818 0.949 . S
C813 H808 0.950 . S
C813 C815 1.327 . S
C813 C819 1.429 . S
C814 C806 1.574 1_655 S
C814 H809 0.949 . S
C814 C820 1.368 . S
C815 C799 1.349 . S
C815 H807 0.950 . S
C815 C813 1.327 . S
C816 C804 1.349 . S
C816 H810 0.950 . S
C816 C817 1.327 . S
C817 H811 0.950 . S
C817 C816 1.327 . S
C817 C821 1.429 . S
C818 C801 1.574 1_455 S
C818 H812 0.949 . S
C818 C822 1.368 . S
C819 C800 1.429 . S
C819 C813 1.429 . S
C819 C820 1.523 . S
C820 C801 1.368 . S
C820 C814 1.368 . S
C820 C819 1.523 . S
C821 C805 1.429 . S
C821 C817 1.429 . S
C821 C822 1.523 . S
C822 C806 1.368 . S
C822 C818 1.368 . S
C822 C821 1.523 . S
H823 C798 0.950 . S
H824 C800 0.950 . S
H825 C801 0.949 . S
H826 C803 0.950 . S
H827 C805 0.950 . S
C828 C829 1.349 . S
C828 C830 1.327 . S
C828 H853 0.950 . S
C829 C828 1.349 . S
C829 C845 1.349 . S
C830 C828 1.327 . S
C830 C849 1.429 . S
C830 H854 0.950 . S
C831 C848 1.574 1_545 S
C831 C850 1.368 . S
C831 H855 0.949 . S
H832 C836 0.949 . S
C833 C834 1.349 . S
C833 C835 1.327 . S
C833 H856 0.950 . S
C834 C833 1.349 . S
C834 C846 1.349 . S
C835 C833 1.327 . S
C835 C851 1.429 . S
C835 H857 0.950 . S
C836 H832 0.949 . S
C836 C844 1.574 1_565 S
C836 C852 1.368 . S
H837 C845 0.950 . S
H838 C843 0.950 . S
H839 C844 0.949 . S
H840 C846 0.950 . S
H841 C847 0.950 . S
H842 C848 0.949 . S
C843 H838 0.950 . S
C843 C845 1.327 . S
C843 C849 1.429 . S
C844 C836 1.574 1_545 S
C844 H839 0.949 . S
C844 C850 1.368 . S
C845 C829 1.349 . S
C845 H837 0.950 . S
C845 C843 1.327 . S
C846 C834 1.349 . S
C846 H840 0.950 . S
C846 C847 1.327 . S
C847 H841 0.950 . S
C847 C846 1.327 . S
C847 C851 1.429 . S
C848 C831 1.574 1_565 S
C848 H842 0.949 . S
C848 C852 1.368 . S
C849 C830 1.429 . S
C849 C843 1.429 . S
C849 C850 1.523 . S
C850 C831 1.368 . S
C850 C844 1.368 . S
C850 C849 1.523 . S
C851 C835 1.429 . S
C851 C847 1.429 . S
C851 C852 1.523 . S
C852 C836 1.368 . S
C852 C848 1.368 . S
C852 C851 1.523 . S
H853 C828 0.950 . S
H854 C830 0.950 . S
H855 C831 0.949 . S
H856 C833 0.950 . S
H857 C835 0.950 . S
C858 C859 1.349 . S
C858 C860 1.327 . S
C858 H883 0.950 . S
C859 C858 1.349 . S
C859 C875 1.349 . S
C860 C858 1.327 . S
C860 C879 1.429 . S
C860 H884 0.950 . S
C861 C878 1.574 1_655 S
C861 C880 1.368 . S
C861 H885 0.949 . S
H862 C866 0.949 . S
C863 C864 1.349 . S
C863 C865 1.327 . S
C863 H886 0.950 . S
C864 C863 1.349 . S
C864 C876 1.349 . S
C865 C863 1.327 . S
C865 C881 1.429 . S
C865 H887 0.950 . S
C866 H862 0.949 . S
C866 C874 1.574 1_455 S
C866 C882 1.368 . S
H867 C875 0.950 . S
H868 C873 0.950 . S
H869 C874 0.949 . S
H870 C876 0.950 . S
H871 C877 0.950 . S
H872 C878 0.949 . S
C873 H868 0.950 . S
C873 C875 1.327 . S
C873 C879 1.429 . S
C874 C866 1.574 1_655 S
C874 H869 0.949 . S
C874 C880 1.368 . S
C875 C859 1.349 . S
C875 H867 0.950 . S
C875 C873 1.327 . S
C876 C864 1.349 . S
C876 H870 0.950 . S
C876 C877 1.327 . S
C877 H871 0.950 . S
C877 C876 1.327 . S
C877 C881 1.429 . S
C878 C861 1.574 1_455 S
C878 H872 0.949 . S
C878 C882 1.368 . S
C879 C860 1.429 . S
C879 C873 1.429 . S
C879 C880 1.523 . S
C880 C861 1.368 . S
C880 C874 1.368 . S
C880 C879 1.523 . S
C881 C865 1.429 . S
C881 C877 1.429 . S
C881 C882 1.523 . S
C882 C866 1.368 . S
C882 C878 1.368 . S
C882 C881 1.523 . S
H883 C858 0.950 . S
H884 C860 0.950 . S
H885 C861 0.949 . S
H886 C863 0.950 . S
H887 C865 0.950 . S
C888 C889 1.349 . S
C888 C890 1.327 . S
C888 H913 0.950 . S
C889 C888 1.349 . S
C889 C905 1.349 . S
C890 C888 1.327 . S
C890 C909 1.429 . S
C890 H914 0.950 . S
C891 C908 1.574 1_556 S
C891 C910 1.368 . S
C891 H915 0.949 . S
H892 C896 0.949 . S
C893 C894 1.349 . S
C893 C895 1.327 . S
C893 H916 0.950 . S
C894 C893 1.349 . S
C894 C906 1.349 . S
C895 C893 1.327 . S
C895 C911 1.429 . S
C895 H917 0.950 . S
C896 H892 0.949 . S
C896 C904 1.574 1_554 S
C896 C912 1.368 . S
H897 C905 0.950 . S
H898 C903 0.950 . S
H899 C904 0.949 . S
H900 C906 0.950 . S
H901 C907 0.950 . S
H902 C908 0.949 . S
C903 H898 0.950 . S
C903 C905 1.327 . S
C903 C909 1.429 . S
C904 C896 1.574 1_556 S
C904 H899 0.949 . S
C904 C910 1.368 . S
C905 C889 1.349 . S
C905 H897 0.950 . S
C905 C903 1.327 . S
C906 C894 1.349 . S
C906 H900 0.950 . S
C906 C907 1.327 . S
C907 H901 0.950 . S
C907 C906 1.327 . S
C907 C911 1.429 . S
C908 C891 1.574 1_554 S
C908 H902 0.949 . S
C908 C912 1.368 . S
C909 C890 1.429 . S
C909 C903 1.429 . S
C909 C910 1.523 . S
C910 C891 1.368 . S
C910 C904 1.368 . S
C910 C909 1.523 . S
C911 C895 1.429 . S
C911 C907 1.429 . S
C911 C912 1.523 . S
C912 C896 1.368 . S
C912 C908 1.368 . S
C912 C911 1.523 . S
H913 C888 0.950 . S
H914 C890 0.950 . S
H915 C891 0.949 . S
H916 C893 0.950 . S
H917 C895 0.950 . S
C918 C919 1.349 . S
C918 C920 1.327 . S
C918 H943 0.950 . S
C919 C918 1.349 . S
C919 C935 1.349 . S
C920 C918 1.327 . S
C920 C939 1.429 . S
C920 H944 0.950 . S
C921 C938 1.558 1_554 S
C921 C940 1.383 . S
C921 H945 0.950 . S
H922 C926 0.950 . S
C923 C924 1.349 . S
C923 C925 1.327 . S
C923 H946 0.950 . S
C924 C923 1.349 . S
C924 C936 1.349 . S
C925 C923 1.327 . S
C925 C941 1.429 . S
C925 H947 0.950 . S
C926 H922 0.950 . S
C926 C934 1.558 1_556 S
C926 C942 1.383 . S
H927 C935 0.950 . S
H928 C933 0.950 . S
H929 C934 0.949 . S
H930 C936 0.950 . S
H931 C937 0.950 . S
H932 C938 0.949 . S
C933 H928 0.950 . S
C933 C935 1.327 . S
C933 C939 1.429 . S
C934 C926 1.558 1_554 S
C934 H929 0.949 . S
C934 C940 1.368 . S
C935 C919 1.349 . S
C935 H927 0.950 . S
C935 C933 1.327 . S
C936 C924 1.349 . S
C936 H930 0.950 . S
C936 C937 1.327 . S
C937 H931 0.950 . S
C937 C936 1.327 . S
C937 C941 1.429 . S
C938 C921 1.558 1_556 S
C938 H932 0.949 . S
C938 C942 1.368 . S
C939 C920 1.429 . S
C939 C933 1.429 . S
C939 C940 1.523 . S
C940 C921 1.383 . S
C940 C934 1.368 . S
C940 C939 1.523 . S
C941 C925 1.429 . S
C941 C937 1.429 . S
C941 C942 1.523 . S
C942 C926 1.383 . S
C942 C938 1.368 . S
C942 C941 1.523 . S
H943 C918 0.950 . S
H944 C920 0.950 . S
H945 C921 0.950 . S
H946 C923 0.950 . S
H947 C925 0.950 . S
C948 C949 1.349 . S
C948 C950 1.327 . S
C948 H973 0.950 . S
C949 C948 1.349 . S
C949 C965 1.349 . S
C950 C948 1.327 . S
C950 C969 1.429 . S
C950 H974 0.950 . S
C951 C968 1.574 1_554 S
C951 C970 1.368 . S
C951 H975 0.949 . S
H952 C956 0.949 . S
C953 C954 1.349 . S
C953 C955 1.327 . S
C953 H976 0.950 . S
C954 C953 1.349 . S
C954 C966 1.349 . S
C955 C953 1.327 . S
C955 C971 1.429 . S
C955 H977 0.950 . S
C956 H952 0.949 . S
C956 C964 1.574 1_556 S
C956 C972 1.368 . S
H957 C965 0.950 . S
H958 C963 0.950 . S
H959 C964 0.949 . S
H960 C966 0.950 . S
H961 C967 0.950 . S
H962 C968 0.949 . S
C963 H958 0.950 . S
C963 C965 1.327 . S
C963 C969 1.429 . S
C964 C956 1.574 1_554 S
C964 H959 0.949 . S
C964 C970 1.368 . S
C965 C949 1.349 . S
C965 H957 0.950 . S
C965 C963 1.327 . S
C966 C954 1.349 . S
C966 H960 0.950 . S
C966 C967 1.327 . S
C967 H961 0.950 . S
C967 C966 1.327 . S
C967 C971 1.429 . S
C968 C951 1.574 1_556 S
C968 H962 0.949 . S
C968 C972 1.368 . S
C969 C950 1.429 . S
C969 C963 1.429 . S
C969 C970 1.523 . S
C970 C951 1.368 . S
C970 C964 1.368 . S
C970 C969 1.523 . S
C971 C955 1.429 . S
C971 C967 1.429 . S
C971 C972 1.523 . S
C972 C956 1.368 . S
C972 C968 1.368 . S
C972 C971 1.523 . S
H973 C948 0.950 . S
H974 C950 0.950 . S
H975 C951 0.949 . S
H976 C953 0.950 . S
H977 C955 0.950 . S
C978 C979 1.349 . S
C978 C980 1.327 . S
C978 H1003 0.950 . S
C979 C978 1.349 . S
C979 C995 1.349 . S
C980 C978 1.327 . S
C980 C999 1.429 . S
C980 H1004 0.950 . S
C981 C998 1.588 . S
C981 C1000 1.354 1_554 S
C981 H1005 0.949 . S
H982 C986 0.949 . S
C983 C984 1.349 . S
C983 C985 1.327 . S
C983 H1006 0.950 . S
C984 C983 1.349 . S
C984 C996 1.349 . S
C985 C983 1.327 . S
C985 C1001 1.429 . S
C985 H1007 0.950 . S
C986 H982 0.949 . S
C986 C994 1.588 . S
C986 C1002 1.354 1_556 S
H987 C995 0.950 . S
H988 C993 0.950 . S
H989 C994 0.949 . S
H990 C996 0.950 . S
H991 C997 0.950 . S
H992 C998 0.949 . S
C993 H988 0.950 . S
C993 C995 1.327 . S
C993 C999 1.429 . S
C994 C986 1.588 . S
C994 H989 0.949 . S
C994 C1000 1.368 . S
C995 C979 1.349 . S
C995 H987 0.950 . S
C995 C993 1.327 . S
C996 C984 1.349 . S
C996 H990 0.950 . S
C996 C997 1.327 . S
C997 H991 0.950 . S
C997 C996 1.327 . S
C997 C1001 1.429 . S
C998 C981 1.588 . S
C998 H992 0.949 . S
C998 C1002 1.368 . S
C999 C980 1.429 . S
C999 C993 1.429 . S
C999 C1000 1.523 . S
C1000 C981 1.354 1_556 S
C1000 C994 1.368 . S
C1000 C999 1.523 . S
C1001 C985 1.429 . S
C1001 C997 1.429 . S
C1001 C1002 1.523 . S
C1002 C986 1.354 1_554 S
C1002 C998 1.368 . S
C1002 C1001 1.523 . S
H1003 C978 0.950 . S
H1004 C980 0.950 . S
H1005 C981 0.949 . S
H1006 C983 0.950 . S
H1007 C985 0.950 . S
C1008 C1009 1.349 . S
C1008 C1010 1.327 . S
C1008 H1033 0.950 . S
C1009 C1008 1.349 . S
C1009 C1025 1.349 . S
C1010 C1008 1.327 . S
C1010 C1029 1.429 . S
C1010 H1034 0.950 . S
C1011 C1028 1.574 1_655 S
C1011 C1030 1.368 . S
C1011 H1035 0.949 . S
H1012 C1016 0.949 . S
C1013 C1014 1.349 . S
C1013 C1015 1.327 . S
C1013 H1036 0.950 . S
C1014 C1013 1.349 . S
C1014 C1026 1.349 . S
C1015 C1013 1.327 . S
C1015 C1031 1.429 . S
C1015 H1037 0.950 . S
C1016 H1012 0.949 . S
C1016 C1024 1.574 1_455 S
C1016 C1032 1.368 . S
H1017 C1025 0.950 . S
H1018 C1023 0.950 . S
H1019 C1024 0.949 . S
H1020 C1026 0.950 . S
H1021 C1027 0.950 . S
H1022 C1028 0.949 . S
C1023 H1018 0.950 . S
C1023 C1025 1.327 . S
C1023 C1029 1.429 . S
C1024 C1016 1.574 1_655 S
C1024 H1019 0.949 . S
C1024 C1030 1.368 . S
C1025 C1009 1.349 . S
C1025 H1017 0.950 . S
C1025 C1023 1.327 . S
C1026 C1014 1.349 . S
C1026 H1020 0.950 . S
C1026 C1027 1.327 . S
C1027 H1021 0.950 . S
C1027 C1026 1.327 . S
C1027 C1031 1.429 . S
C1028 C1011 1.574 1_455 S
C1028 H1022 0.949 . S
C1028 C1032 1.368 . S
C1029 C1010 1.429 . S
C1029 C1023 1.429 . S
C1029 C1030 1.523 . S
C1030 C1011 1.368 . S
C1030 C1024 1.368 . S
C1030 C1029 1.523 . S
C1031 C1015 1.429 . S
C1031 C1027 1.429 . S
C1031 C1032 1.523 . S
C1032 C1016 1.368 . S
C1032 C1028 1.368 . S
C1032 C1031 1.523 . S
H1033 C1008 0.950 . S
H1034 C1010 0.950 . S
H1035 C1011 0.949 . S
H1036 C1013 0.950 . S
H1037 C1015 0.950 . S
C1038 C1039 1.349 . S
C1038 C1040 1.327 . S
C1038 H1063 0.950 . S
C1039 C1038 1.349 . S
C1039 C1055 1.349 . S
C1040 C1038 1.327 . S
C1040 C1059 1.429 . S
C1040 H1064 0.950 . S
C1041 C1058 1.574 1_655 S
C1041 C1060 1.368 . S
C1041 H1065 0.949 . S
H1042 C1046 0.949 . S
C1043 C1044 1.349 . S
C1043 C1045 1.327 . S
C1043 H1066 0.950 . S
C1044 C1043 1.349 . S
C1044 C1056 1.349 . S
C1045 C1043 1.327 . S
C1045 C1061 1.429 . S
C1045 H1067 0.950 . S
C1046 H1042 0.949 . S
C1046 C1054 1.574 1_455 S
C1046 C1062 1.368 . S
H1047 C1055 0.950 . S
H1048 C1053 0.950 . S
H1049 C1054 0.949 . S
H1050 C1056 0.950 . S
H1051 C1057 0.950 . S
H1052 C1058 0.949 . S
C1053 H1048 0.950 . S
C1053 C1055 1.327 . S
C1053 C1059 1.429 . S
C1054 C1046 1.574 1_655 S
C1054 H1049 0.949 . S
C1054 C1060 1.368 . S
C1055 C1039 1.349 . S
C1055 H1047 0.950 . S
C1055 C1053 1.327 . S
C1056 C1044 1.349 . S
C1056 H1050 0.950 . S
C1056 C1057 1.327 . S
C1057 H1051 0.950 . S
C1057 C1056 1.327 . S
C1057 C1061 1.429 . S
C1058 C1041 1.574 1_455 S
C1058 H1052 0.949 . S
C1058 C1062 1.368 . S
C1059 C1040 1.429 . S
C1059 C1053 1.429 . S
C1059 C1060 1.523 . S
C1060 C1041 1.368 . S
C1060 C1054 1.368 . S
C1060 C1059 1.523 . S
C1061 C1045 1.429 . S
C1061 C1057 1.429 . S
C1061 C1062 1.523 . S
C1062 C1046 1.368 . S
C1062 C1058 1.368 . S
C1062 C1061 1.523 . S
H1063 C1038 0.950 . S
H1064 C1040 0.950 . S
H1065 C1041 0.949 . S
H1066 C1043 0.950 . S
H1067 C1045 0.950 . S
C1068 C1069 1.349 . S
C1068 C1070 1.327 . S
C1068 H1093 0.950 . S
C1069 C1068 1.349 . S
C1069 C1085 1.349 . S
C1070 C1068 1.327 . S
C1070 C1089 1.429 . S
C1070 H1094 0.950 . S
C1071 C1088 1.574 1_565 S
C1071 C1090 1.368 . S
C1071 H1095 0.949 . S
H1072 C1076 0.949 . S
C1073 C1074 1.349 . S
C1073 C1075 1.327 . S
C1073 H1096 0.950 . S
C1074 C1073 1.349 . S
C1074 C1086 1.349 . S
C1075 C1073 1.327 . S
C1075 C1091 1.429 . S
C1075 H1097 0.950 . S
C1076 H1072 0.949 . S
C1076 C1084 1.574 1_545 S
C1076 C1092 1.368 . S
H1077 C1085 0.950 . S
H1078 C1083 0.950 . S
H1079 C1084 0.949 . S
H1080 C1086 0.950 . S
H1081 C1087 0.950 . S
H1082 C1088 0.949 . S
C1083 H1078 0.950 . S
C1083 C1085 1.327 . S
C1083 C1089 1.429 . S
C1084 C1076 1.574 1_565 S
C1084 H1079 0.949 . S
C1084 C1090 1.368 . S
C1085 C1069 1.349 . S
C1085 H1077 0.950 . S
C1085 C1083 1.327 . S
C1086 C1074 1.349 . S
C1086 H1080 0.950 . S
C1086 C1087 1.327 . S
C1087 H1081 0.950 . S
C1087 C1086 1.327 . S
C1087 C1091 1.429 . S
C1088 C1071 1.574 1_545 S
C1088 H1082 0.949 . S
C1088 C1092 1.368 . S
C1089 C1070 1.429 . S
C1089 C1083 1.429 . S
C1089 C1090 1.523 . S
C1090 C1071 1.368 . S
C1090 C1084 1.368 . S
C1090 C1089 1.523 . S
C1091 C1075 1.429 . S
C1091 C1087 1.429 . S
C1091 C1092 1.523 . S
C1092 C1076 1.368 . S
C1092 C1088 1.368 . S
C1092 C1091 1.523 . S
H1093 C1068 0.950 . S
H1094 C1070 0.950 . S
H1095 C1071 0.949 . S
H1096 C1073 0.950 . S
H1097 C1075 0.950 . S
C1098 C1099 1.349 . S
C1098 C1100 1.327 . S
C1098 H1123 0.950 . S
C1099 C1098 1.349 . S
C1099 C1115 1.349 . S
C1100 C1098 1.327 . S
C1100 C1119 1.429 . S
C1100 H1124 0.950 . S
C1101 C1118 1.574 1_545 S
C1101 C1120 1.368 . S
C1101 H1125 0.949 . S
H1102 C1106 0.949 . S
C1103 C1104 1.349 . S
C1103 C1105 1.327 . S
C1103 H1126 0.950 . S
C1104 C1103 1.349 . S
C1104 C1116 1.349 . S
C1105 C1103 1.327 . S
C1105 C1121 1.429 . S
C1105 H1127 0.950 . S
C1106 H1102 0.949 . S
C1106 C1114 1.574 1_565 S
C1106 C1122 1.368 . S
H1107 C1115 0.950 . S
H1108 C1113 0.950 . S
H1109 C1114 0.949 . S
H1110 C1116 0.950 . S
H1111 C1117 0.950 . S
H1112 C1118 0.949 . S
C1113 H1108 0.950 . S
C1113 C1115 1.327 . S
C1113 C1119 1.429 . S
C1114 C1106 1.574 1_545 S
C1114 H1109 0.949 . S
C1114 C1120 1.368 . S
C1115 C1099 1.349 . S
C1115 H1107 0.950 . S
C1115 C1113 1.327 . S
C1116 C1104 1.349 . S
C1116 H1110 0.950 . S
C1116 C1117 1.327 . S
C1117 H1111 0.950 . S
C1117 C1116 1.327 . S
C1117 C1121 1.429 . S
C1118 C1101 1.574 1_565 S
C1118 H1112 0.949 . S
C1118 C1122 1.368 . S
C1119 C1100 1.429 . S
C1119 C1113 1.429 . S
C1119 C1120 1.523 . S
C1120 C1101 1.368 . S
C1120 C1114 1.368 . S
C1120 C1119 1.523 . S
C1121 C1105 1.429 . S
C1121 C1117 1.429 . S
C1121 C1122 1.523 . S
C1122 C1106 1.368 . S
C1122 C1118 1.368 . S
C1122 C1121 1.523 . S
H1123 C1098 0.950 . S
H1124 C1100 0.950 . S
H1125 C1101 0.949 . S
H1126 C1103 0.950 . S
H1127 C1105 0.950 . S
C1128 C1129 1.349 . S
C1128 C1130 1.327 . S
C1128 H1153 0.950 . S
C1129 C1128 1.349 . S
C1129 C1145 1.349 . S
C1130 C1128 1.327 . S
C1130 C1149 1.429 . S
C1130 H1154 0.950 . S
C1131 C1148 1.574 1_545 S
C1131 C1150 1.368 1_655 S
C1131 H1155 0.949 . S
H1132 C1136 0.949 . S
C1133 C1134 1.349 . S
C1133 C1135 1.327 . S
C1133 H1156 0.950 . S
C1134 C1133 1.349 . S
C1134 C1146 1.349 . S
C1135 C1133 1.327 . S
C1135 C1151 1.429 . S
C1135 H1157 0.950 . S
C1136 H1132 0.949 . S
C1136 C1144 1.574 1_565 S
C1136 C1152 1.368 1_455 S
H1137 C1145 0.950 . S
H1138 C1143 0.950 . S
H1139 C1144 0.949 . S
H1140 C1146 0.950 . S
H1141 C1147 0.950 . S
H1142 C1148 0.949 . S
C1143 H1138 0.950 . S
C1143 C1145 1.327 . S
C1143 C1149 1.429 . S
C1144 C1136 1.574 1_545 S
C1144 H1139 0.949 . S
C1144 C1150 1.368 . S
C1145 C1129 1.349 . S
C1145 H1137 0.950 . S
C1145 C1143 1.327 . S
C1146 C1134 1.349 . S
C1146 H1140 0.950 . S
C1146 C1147 1.327 . S
C1147 H1141 0.950 . S
C1147 C1146 1.327 . S
C1147 C1151 1.429 . S
C1148 C1131 1.574 1_565 S
C1148 H1142 0.949 . S
C1148 C1152 1.368 . S
C1149 C1130 1.429 . S
C1149 C1143 1.429 . S
C1149 C1150 1.523 . S
C1150 C1131 1.368 1_455 S
C1150 C1144 1.368 . S
C1150 C1149 1.523 . S
C1151 C1135 1.429 . S
C1151 C1147 1.429 . S
C1151 C1152 1.523 . S
C1152 C1136 1.368 1_655 S
C1152 C1148 1.368 . S
C1152 C1151 1.523 . S
H1153 C1128 0.950 . S
H1154 C1130 0.950 . S
H1155 C1131 0.949 . S
H1156 C1133 0.950 . S
H1157 C1135 0.950 . S
C1158 C1159 1.349 . S
C1158 C1160 1.327 . S
C1158 H1183 0.950 . S
C1159 C1158 1.349 . S
C1159 C1175 1.349 . S
C1160 C1158 1.327 . S
C1160 C1179 1.429 . S
C1160 H1184 0.950 . S
C1161 C1178 1.574 1_565 S
C1161 C1180 1.368 . S
C1161 H1185 0.949 . S
H1162 C1166 0.949 . S
C1163 C1164 1.349 . S
C1163 C1165 1.327 . S
C1163 H1186 0.950 . S
C1164 C1163 1.349 . S
C1164 C1176 1.349 . S
C1165 C1163 1.327 . S
C1165 C1181 1.429 . S
C1165 H1187 0.950 . S
C1166 H1162 0.949 . S
C1166 C1174 1.574 1_545 S
C1166 C1182 1.368 . S
H1167 C1175 0.950 . S
H1168 C1173 0.950 . S
H1169 C1174 0.949 . S
H1170 C1176 0.950 . S
H1171 C1177 0.950 . S
H1172 C1178 0.949 . S
C1173 H1168 0.950 . S
C1173 C1175 1.327 . S
C1173 C1179 1.429 . S
C1174 C1166 1.574 1_565 S
C1174 H1169 0.949 . S
C1174 C1180 1.368 1_655 S
C1175 C1159 1.349 . S
C1175 H1167 0.950 . S
C1175 C1173 1.327 . S
C1176 C1164 1.349 . S
C1176 H1170 0.950 . S
C1176 C1177 1.327 . S
C1177 H1171 0.950 . S
C1177 C1176 1.327 . S
C1177 C1181 1.429 . S
C1178 C1161 1.574 1_545 S
C1178 H1172 0.949 . S
C1178 C1182 1.368 1_455 S
C1179 C1160 1.429 . S
C1179 C1173 1.429 . S
C1179 C1180 1.523 . S
C1180 C1161 1.368 . S
C1180 C1174 1.368 1_455 S
C1180 C1179 1.523 . S
C1181 C1165 1.429 . S
C1181 C1177 1.429 . S
C1181 C1182 1.523 . S
C1182 C1166 1.368 . S
C1182 C1178 1.368 1_655 S
C1182 C1181 1.523 . S
H1183 C1158 0.950 . S
H1184 C1160 0.950 . S
H1185 C1161 0.949 . S
H1186 C1163 0.950 . S
H1187 C1165 0.950 . S
C1188 C1189 1.349 . S
C1188 C1190 1.327 . S
C1188 H1213 0.950 . S
C1189 C1188 1.349 . S
C1189 C1205 1.349 . S
C1190 C1188 1.327 . S
C1190 C1209 1.429 . S
C1190 H1214 0.950 . S
C1191 C1208 1.599 . S
C1191 C1210 1.368 1_565 S
C1191 H1215 0.949 . S
H1192 C1196 0.949 . S
C1193 C1194 1.349 . S
C1193 C1195 1.327 . S
C1193 H1216 0.950 . S
C1194 C1193 1.349 . S
C1194 C1206 1.349 . S
C1195 C1193 1.327 . S
C1195 C1211 1.429 . S
C1195 H1217 0.950 . S
C1196 H1192 0.949 . S
C1196 C1204 1.599 . S
C1196 C1212 1.368 1_545 S
H1197 C1205 0.950 . S
H1198 C1203 0.950 . S
H1199 C1204 0.949 . S
H1200 C1206 0.950 . S
H1201 C1207 0.950 . S
H1202 C1208 0.949 . S
C1203 H1198 0.950 . S
C1203 C1205 1.327 . S
C1203 C1209 1.429 . S
C1204 C1196 1.599 . S
C1204 H1199 0.949 . S
C1204 C1210 1.344 1_556 S
C1205 C1189 1.349 . S
C1205 H1197 0.950 . S
C1205 C1203 1.327 . S
C1206 C1194 1.349 . S
C1206 H1200 0.950 . S
C1206 C1207 1.327 . S
C1207 H1201 0.950 . S
C1207 C1206 1.327 . S
C1207 C1211 1.429 . S
C1208 C1191 1.599 . S
C1208 H1202 0.949 . S
C1208 C1212 1.344 1_554 S
C1209 C1190 1.429 . S
C1209 C1203 1.429 . S
C1209 C1210 1.523 . S
C1210 C1191 1.368 1_545 S
C1210 C1204 1.344 1_554 S
C1210 C1209 1.523 . S
C1211 C1195 1.429 . S
C1211 C1207 1.429 . S
C1211 C1212 1.523 . S
C1212 C1196 1.368 1_565 S
C1212 C1208 1.344 1_556 S
C1212 C1211 1.523 . S
H1213 C1188 0.950 . S
H1214 C1190 0.950 . S
H1215 C1191 0.949 . S
H1216 C1193 0.950 . S
H1217 C1195 0.950 . S
C1218 C1219 1.349 . S
C1218 C1220 1.327 . S
C1218 H1243 0.950 . S
C1219 C1218 1.349 . S
C1219 C1235 1.349 . S
C1220 C1218 1.327 . S
C1220 C1239 1.429 . S
C1220 H1244 0.950 . S
C1221 C1238 1.574 1_455 S
C1221 C1240 1.368 1_554 S
C1221 H1245 0.949 . S
H1222 C1226 0.949 . S
C1223 C1224 1.349 . S
C1223 C1225 1.327 . S
C1223 H1246 0.950 . S
C1224 C1223 1.349 . S
C1224 C1236 1.349 . S
C1225 C1223 1.327 . S
C1225 C1241 1.429 . S
C1225 H1247 0.950 . S
C1226 H1222 0.949 . S
C1226 C1234 1.574 1_655 S
C1226 C1242 1.368 1_556 S
H1227 C1235 0.950 . S
H1228 C1233 0.950 . S
H1229 C1234 0.949 . S
H1230 C1236 0.950 . S
H1231 C1237 0.950 . S
H1232 C1238 0.949 . S
C1233 H1228 0.950 . S
C1233 C1235 1.327 . S
C1233 C1239 1.429 . S
C1234 C1226 1.574 1_455 S
C1234 H1229 0.949 . S
C1234 C1240 1.368 . S
C1235 C1219 1.349 . S
C1235 H1227 0.950 . S
C1235 C1233 1.327 . S
C1236 C1224 1.349 . S
C1236 H1230 0.950 . S
C1236 C1237 1.327 . S
C1237 H1231 0.950 . S
C1237 C1236 1.327 . S
C1237 C1241 1.429 . S
C1238 C1221 1.574 1_655 S
C1238 H1232 0.949 . S
C1238 C1242 1.368 . S
C1239 C1220 1.429 . S
C1239 C1233 1.429 . S
C1239 C1240 1.523 . S
C1240 C1221 1.368 1_556 S
C1240 C1234 1.368 . S
C1240 C1239 1.523 . S
C1241 C1225 1.429 . S
C1241 C1237 1.429 . S
C1241 C1242 1.523 . S
C1242 C1226 1.368 1_554 S
C1242 C1238 1.368 . S
C1242 C1241 1.523 . S
H1243 C1218 0.950 . S
H1244 C1220 0.950 . S
H1245 C1221 0.949 . S
H1246 C1223 0.950 . S
H1247 C1225 0.950 . S
C1248 C1249 1.349 . S
C1248 C1250 1.327 . S
C1248 H1273 0.950 . S
C1249 C1248 1.349 . S
C1249 C1265 1.349 . S
C1250 C1248 1.327 . S
C1250 C1269 1.429 . S
C1250 H1274 0.950 . S
C1251 C1268 1.574 1_556 S
C1251 C1270 1.368 1_565 S
C1251 H1275 0.949 . S
H1252 C1256 0.949 . S
C1253 C1254 1.349 . S
C1253 C1255 1.327 . S
C1253 H1276 0.950 . S
C1254 C1253 1.349 . S
C1254 C1266 1.349 . S
C1255 C1253 1.327 . S
C1255 C1271 1.429 . S
C1255 H1277 0.950 . S
C1256 H1252 0.949 . S
C1256 C1264 1.574 1_554 S
C1256 C1272 1.368 1_545 S
H1257 C1265 0.950 . S
H1258 C1263 0.950 . S
H1259 C1264 0.949 . S
H1260 C1266 0.950 . S
H1261 C1267 0.950 . S
H1262 C1268 0.949 . S
C1263 H1258 0.950 . S
C1263 C1265 1.327 . S
C1263 C1269 1.429 . S
C1264 C1256 1.574 1_556 S
C1264 H1259 0.949 . S
C1264 C1270 1.368 . S
C1265 C1249 1.349 . S
C1265 H1257 0.950 . S
C1265 C1263 1.327 . S
C1266 C1254 1.349 . S
C1266 H1260 0.950 . S
C1266 C1267 1.327 . S
C1267 H1261 0.950 . S
C1267 C1266 1.327 . S
C1267 C1271 1.429 . S
C1268 C1251 1.574 1_554 S
C1268 H1262 0.949 . S
C1268 C1272 1.368 . S
C1269 C1250 1.429 . S
C1269 C1263 1.429 . S
C1269 C1270 1.523 . S
C1270 C1251 1.368 1_545 S
C1270 C1264 1.368 . S
C1270 C1269 1.523 . S
C1271 C1255 1.429 . S
C1271 C1267 1.429 . S
C1271 C1272 1.523 . S
C1272 C1256 1.368 1_565 S
C1272 C1268 1.368 . S
C1272 C1271 1.523 . S
H1273 C1248 0.950 . S
H1274 C1250 0.950 . S
H1275 C1251 0.949 . S
H1276 C1253 0.950 . S
H1277 C1255 0.950 . S
C1278 C1279 1.349 . S
C1278 C1280 1.327 . S
C1278 H1303 0.950 . S
C1279 C1278 1.349 . S
C1279 C1295 1.349 . S
C1280 C1278 1.327 . S
C1280 C1299 1.429 . S
C1280 H1304 0.950 . S
C1281 C1298 1.574 1_655 S
C1281 C1300 1.368 1_554 S
C1281 H1305 0.949 . S
H1282 C1286 0.949 . S
C1283 C1284 1.349 . S
C1283 C1285 1.327 . S
C1283 H1306 0.950 . S
C1284 C1283 1.349 . S
C1284 C1296 1.349 . S
C1285 C1283 1.327 . S
C1285 C1301 1.429 . S
C1285 H1307 0.950 . S
C1286 H1282 0.949 . S
C1286 C1294 1.574 1_455 S
C1286 C1302 1.368 1_556 S
H1287 C1295 0.950 . S
H1288 C1293 0.950 . S
H1289 C1294 0.949 . S
H1290 C1296 0.950 . S
H1291 C1297 0.950 . S
H1292 C1298 0.949 . S
C1293 H1288 0.950 . S
C1293 C1295 1.327 . S
C1293 C1299 1.429 . S
C1294 C1286 1.574 1_655 S
C1294 H1289 0.949 . S
C1294 C1300 1.368 . S
C1295 C1279 1.349 . S
C1295 H1287 0.950 . S
C1295 C1293 1.327 . S
C1296 C1284 1.349 . S
C1296 H1290 0.950 . S
C1296 C1297 1.327 . S
C1297 H1291 0.950 . S
C1297 C1296 1.327 . S
C1297 C1301 1.429 . S
C1298 C1281 1.574 1_455 S
C1298 H1292 0.949 . S
C1298 C1302 1.368 . S
C1299 C1280 1.429 . S
C1299 C1293 1.429 . S
C1299 C1300 1.523 . S
C1300 C1281 1.368 1_556 S
C1300 C1294 1.368 . S
C1300 C1299 1.523 . S
C1301 C1285 1.429 . S
C1301 C1297 1.429 . S
C1301 C1302 1.523 . S
C1302 C1286 1.368 1_554 S
C1302 C1298 1.368 . S
C1302 C1301 1.523 . S
H1303 C1278 0.950 . S
H1304 C1280 0.950 . S
H1305 C1281 0.949 . S
H1306 C1283 0.950 . S
H1307 C1285 0.950 . S
C409 C190 0.942 . S
C414 C9 0.910 . S
C439 C54 0.942 . S
C444 C213 0.910 . S
C469 C77 0.910 . S
C474 C258 0.942 . S
C499 C145 0.910 . S
C504 C122 0.942 . S
C529 C394 0.942 . S
C534 C43 0.910 . S
C559 C88 0.942 . S
C564 C281 0.910 . S
C589 C111 0.910 . S
C594 C326 0.942 . S
C619 C20 0.942 . S
C624 C349 0.910 . S
C649 C224 0.942 . S
C654 C383 0.910 . S
C679 C179 0.910 . S
C684 C360 0.942 . S
C709 C247 0.910 . S
C714 C292 0.942 . S
C739 C156 0.942 . S
C744 C315 0.910 . S
C769 C39 0.237 . S
C774 C5 0.237 . S
C799 C70 0.725 . S
C804 C36 0.725 . S
C829 C107 0.237 . S
C834 C73 0.237 . S
C859 C104 0.725 . S
C864 C2 0.725 . S
C889 C345 0.237 . S
C894 C141 0.237 . S
C919 C376 0.725 . S
C924 C172 0.725 . S
C949 C209 0.237 . S
C954 C277 0.237 . S
C979 C240 0.725 . S
C984 C308 0.725 . S
C1009 C311 0.237 . S
C1014 C379 0.237 . S
C1039 C243 0.237 . S
C1044 C175 0.237 . S
C1069 C206 0.725 . S
C1074 C138 0.725 . S
C1099 C342 0.725 . S
C1104 C274 0.725 . S
C1129 C33 1.141 . S
C1134 C101 1.141 . S
C1159 C67 1.141 . S
C1164 C135 1.141 . S
C1189 C169 1.141 . S
C1194 C305 1.141 . S
C1219 C203 1.141 . S
C1224 C339 1.141 . S
C1249 C373 1.141 . S
C1254 C237 1.141 . S
C1279 C271 1.141 . S
C1284 C407 1.141 . S
