# Generated by pormake.
# Topology umc, (4)-cn, num edge types: 1
# Building blocks:
#     Node 0, Type 0, BuildingBlock: ICAMEG_clean_sbu_1, # of connection points: 4
#     Node 1, Type 0, BuildingBlock: ICAMEG_clean_sbu_1, # of connection points: 4
#     Node 2, Type 0, BuildingBlock: ICAMEG_clean_sbu_1, # of connection points: 4
#     Node 3, Type 0, BuildingBlock: ICAMEG_clean_sbu_1, # of connection points: 4
#     Node 4, Type 0, BuildingBlock: ICAMEG_clean_sbu_1, # of connection points: 4
#     Node 5, Type 0, BuildingBlock: ICAMEG_clean_sbu_1, # of connection points: 4
#     Node 6, Type 0, BuildingBlock: ICAMEG_clean_sbu_1, # of connection points: 4
#     Node 7, Type 0, BuildingBlock: ICAMEG_clean_sbu_1, # of connection points: 4
#     Node 8, Type 0, BuildingBlock: ICAMEG_clean_sbu_1, # of connection points: 4
#     Node 9, Type 0, BuildingBlock: ICAMEG_clean_sbu_1, # of connection points: 4
#     Node 10, Type 0, BuildingBlock: ICAMEG_clean_sbu_1, # of connection points: 4
#     Node 11, Type 0, BuildingBlock: ICAMEG_clean_sbu_1, # of connection points: 4
#     Node 12, Type 0, BuildingBlock: ICAMEG_clean_sbu_1, # of connection points: 4
#     Node 13, Type 0, BuildingBlock: ICAMEG_clean_sbu_1, # of connection points: 4
#     Node 14, Type 0, BuildingBlock: ICAMEG_clean_sbu_1, # of connection points: 4
#     Node 15, Type 0, BuildingBlock: ICAMEG_clean_sbu_1, # of connection points: 4
#     Edge 16, Type (0, 0), BuildingBlock: KIFKEQ_clean_linker_1, # of connection points: 2
#     Edge 17, Type (0, 0), BuildingBlock: KIFKEQ_clean_linker_1, # of connection points: 2
#     Edge 18, Type (0, 0), BuildingBlock: KIFKEQ_clean_linker_1, # of connection points: 2
#     Edge 19, Type (0, 0), BuildingBlock: KIFKEQ_clean_linker_1, # of connection points: 2
#     Edge 20, Type (0, 0), BuildingBlock: KIFKEQ_clean_linker_1, # of connection points: 2
#     Edge 21, Type (0, 0), BuildingBlock: KIFKEQ_clean_linker_1, # of connection points: 2
#     Edge 22, Type (0, 0), BuildingBlock: KIFKEQ_clean_linker_1, # of connection points: 2
#     Edge 23, Type (0, 0), BuildingBlock: KIFKEQ_clean_linker_1, # of connection points: 2
#     Edge 24, Type (0, 0), BuildingBlock: KIFKEQ_clean_linker_1, # of connection points: 2
#     Edge 25, Type (0, 0), BuildingBlock: KIFKEQ_clean_linker_1, # of connection points: 2
#     Edge 26, Type (0, 0), BuildingBlock: KIFKEQ_clean_linker_1, # of connection points: 2
#     Edge 27, Type (0, 0), BuildingBlock: KIFKEQ_clean_linker_1, # of connection points: 2
#     Edge 28, Type (0, 0), BuildingBlock: KIFKEQ_clean_linker_1, # of connection points: 2
#     Edge 29, Type (0, 0), BuildingBlock: KIFKEQ_clean_linker_1, # of connection points: 2
#     Edge 30, Type (0, 0), BuildingBlock: KIFKEQ_clean_linker_1, # of connection points: 2
#     Edge 31, Type (0, 0), BuildingBlock: KIFKEQ_clean_linker_1, # of connection points: 2
#     Edge 32, Type (0, 0), BuildingBlock: KIFKEQ_clean_linker_1, # of connection points: 2
#     Edge 33, Type (0, 0), BuildingBlock: KIFKEQ_clean_linker_1, # of connection points: 2
#     Edge 34, Type (0, 0), BuildingBlock: KIFKEQ_clean_linker_1, # of connection points: 2
#     Edge 35, Type (0, 0), BuildingBlock: KIFKEQ_clean_linker_1, # of connection points: 2
#     Edge 36, Type (0, 0), BuildingBlock: KIFKEQ_clean_linker_1, # of connection points: 2
#     Edge 37, Type (0, 0), BuildingBlock: KIFKEQ_clean_linker_1, # of connection points: 2
#     Edge 38, Type (0, 0), BuildingBlock: KIFKEQ_clean_linker_1, # of connection points: 2
#     Edge 39, Type (0, 0), BuildingBlock: KIFKEQ_clean_linker_1, # of connection points: 2
#     Edge 40, Type (0, 0), BuildingBlock: KIFKEQ_clean_linker_1, # of connection points: 2
#     Edge 41, Type (0, 0), BuildingBlock: KIFKEQ_clean_linker_1, # of connection points: 2
#     Edge 42, Type (0, 0), BuildingBlock: KIFKEQ_clean_linker_1, # of connection points: 2
#     Edge 43, Type (0, 0), BuildingBlock: KIFKEQ_clean_linker_1, # of connection points: 2
#     Edge 44, Type (0, 0), BuildingBlock: KIFKEQ_clean_linker_1, # of connection points: 2
#     Edge 45, Type (0, 0), BuildingBlock: KIFKEQ_clean_linker_1, # of connection points: 2
#     Edge 46, Type (0, 0), BuildingBlock: KIFKEQ_clean_linker_1, # of connection points: 2
#     Edge 47, Type (0, 0), BuildingBlock: KIFKEQ_clean_linker_1, # of connection points: 2
# Relax obj value: 0.053
# Max RMSD: 0.129
# Mean RMSD: 0.129
data_MOF--net-umc--node1-ICAMEG_clean_sbu_1--edge1-KIFKEQ_clean_linker_1
_symmetry_space_group_name_H-M    P1
_symmetry_Int_Tables_number       1
_symmetry_cell_setting            triclinic
loop_
_symmetry_equiv_pos_as_xyz
'x, y, z'
_cell_length_a     51.074415
_cell_length_b     34.521751
_cell_length_c     61.741626
_cell_angle_alpha  89.999744
_cell_angle_beta   90.001118
_cell_angle_gamma 90.026321
loop_
_atom_site_label
_atom_site_type_symbol
_atom_site_fract_x
_atom_site_fract_y
_atom_site_fract_z
_atom_type_partial_charge
Co0 Co 0.34871 0.03151 0.37618 0.0
Co1 Co 0.37176 0.11898 0.35663 0.0
O2 O 0.35021 0.08797 0.37608 0.0
C3 C 0.36594 0.05338 0.4199 0.0
O4 O 0.38232 0.07687 0.41011 0.0
C5 C 0.31806 0.14647 0.34888 0.0
O6 O 0.31131 0.10999 0.34666 0.0
O7 O 0.35993 0.0885 0.33106 0.0
O8 O 0.34702 0.03042 0.34376 0.0
H9 H 0.43582 0.1412 0.29613 0.0
H10 H 0.31135 0.07671 0.40287 0.0
O11 O 0.35067 0.032 0.40874 0.0
H12 H 0.25671 0.0008 0.3525 0.0
H13 H 0.31883 0.90225 0.40466 0.0
H14 H 0.37309 0.96902 0.35013 0.0
H15 H 0.30482 0.99478 0.35184 0.0
H16 H 0.32091 0.97365 0.40362 0.0
O17 O 0.3418 0.15549 0.35267 0.0
H18 H 0.40903 0.10186 0.32106 0.0
H19 H 0.37916 0.20391 0.35047 0.0
H20 H 0.37142 0.89759 0.35047 0.0
H21 H 0.26329 0.08342 0.4042 0.0
H22 H 0.34414 0.86375 0.37789 0.0
H23 H 0.23564 0.04536 0.37884 0.0
O24 O 0.38754 0.02729 0.3748 0.0
H25 H 0.3594 0.19241 0.42616 0.0
H26 H 0.42389 0.14464 0.37307 0.0
H27 H 0.43917 0.18026 0.4053 0.0
H28 H 0.40681 0.20441 0.43213 0.0
H29 H 0.34499 0.15639 0.39379 0.0
H30 H 0.40549 0.24438 0.32574 0.0
H31 H 0.43415 0.213 0.29839 0.0
O32 O 0.40196 0.0831 0.36033 0.0
C33 C 0.35153 0.05402 0.32824 0.0
C34 C 0.42348 0.15521 0.30803 0.0
C35 C 0.40643 0.21312 0.32463 0.0
N36 N 0.39273 0.15058 0.33731 0.0
C37 C 0.40833 0.13309 0.32223 0.0
C38 C 0.39153 0.19007 0.33856 0.0
C39 C 0.42251 0.1955 0.30929 0.0
C40 C 0.29943 0.05979 0.39192 0.0
N41 N 0.31086 0.03523 0.37738 0.0
C42 C 0.27224 0.06382 0.39269 0.0
C43 C 0.25673 0.0425 0.37844 0.0
C44 C 0.26854 0.01751 0.36365 0.0
C45 C 0.2958 0.01427 0.36332 0.0
C46 C 0.33075 0.91666 0.39261 0.0
C47 C 0.36104 0.95448 0.36201 0.0
C48 C 0.33204 0.95706 0.39197 0.0
N49 N 0.34694 0.97543 0.37672 0.0
C50 C 0.36024 0.91405 0.36217 0.0
C51 C 0.34495 0.89508 0.37758 0.0
C52 C 0.4058 0.04905 0.36767 0.0
C53 C 0.37369 0.18214 0.41455 0.0
C54 C 0.40969 0.15502 0.38467 0.0
C55 C 0.41846 0.17524 0.40288 0.0
C56 C 0.40029 0.18881 0.41791 0.0
N57 N 0.38357 0.14858 0.3815 0.0
C58 C 0.36563 0.16187 0.39614 0.0
Co59 Co 0.64809 0.9664 0.37663 0.0
Co60 Co 0.62601 0.88 0.35506 0.0
O61 O 0.6466 0.90999 0.37568 0.0
C62 C 0.62952 0.94366 0.41986 0.0
O63 O 0.61215 0.9224 0.40965 0.0
C64 C 0.68006 0.85283 0.34963 0.0
O65 O 0.68696 0.88945 0.34954 0.0
O66 O 0.63942 0.91123 0.33041 0.0
O67 O 0.65002 0.96955 0.34422 0.0
H68 H 0.56498 0.86114 0.29212 0.0
H69 H 0.68532 0.92039 0.40304 0.0
O70 O 0.6459 0.96389 0.40911 0.0
H71 H 0.74026 0.99851 0.35397 0.0
H72 H 0.67777 0.09403 0.40745 0.0
H73 H 0.6233 0.0303 0.35194 0.0
H74 H 0.69213 0.00428 0.35303 0.0
H75 H 0.67584 0.02272 0.40507 0.0
O76 O 0.65606 0.84342 0.35149 0.0
H77 H 0.59065 0.89908 0.31851 0.0
H78 H 0.61862 0.79545 0.34745 0.0
H79 H 0.62481 0.10167 0.3536 0.0
H80 H 0.73337 0.91392 0.40463 0.0
H81 H 0.65221 0.13398 0.38152 0.0
H82 H 0.76118 0.95307 0.37992 0.0
O83 O 0.60933 0.97035 0.37496 0.0
H84 H 0.63445 0.80378 0.42404 0.0
H85 H 0.57298 0.85402 0.36923 0.0
H86 H 0.55591 0.8172 0.40042 0.0
H87 H 0.58675 0.79179 0.42809 0.0
H88 H 0.65066 0.84101 0.39268 0.0
H89 H 0.59343 0.75636 0.32126 0.0
H90 H 0.56628 0.78924 0.2934 0.0
O91 O 0.5957 0.91608 0.35827 0.0
C92 C 0.64702 0.94623 0.32833 0.0
C93 C 0.57666 0.84648 0.30423 0.0
C94 C 0.59266 0.78767 0.32057 0.0
N95 N 0.60592 0.84948 0.3346 0.0
C96 C 0.59117 0.8678 0.31925 0.0
C97 C 0.60692 0.80994 0.33532 0.0
C98 C 0.57742 0.80614 0.30494 0.0
C99 C 0.6973 0.93783 0.3924 0.0
N100 N 0.68595 0.96283 0.37804 0.0
C101 C 0.72449 0.93392 0.39331 0.0
C102 C 0.74008 0.95584 0.37941 0.0
C103 C 0.72835 0.98132 0.36483 0.0
C104 C 0.70109 0.98441 0.36435 0.0
C105 C 0.66583 0.08029 0.39517 0.0
C106 C 0.63543 0.04417 0.364 0.0
C107 C 0.66463 0.03995 0.39377 0.0
N108 N 0.64972 0.02242 0.37821 0.0
C109 C 0.63613 0.08458 0.36493 0.0
C110 C 0.65148 0.10269 0.38061 0.0
C111 C 0.59144 0.9493 0.36662 0.0
C112 C 0.62083 0.81461 0.41205 0.0
C113 C 0.58652 0.8431 0.38122 0.0
C114 C 0.57674 0.82221 0.39882 0.0
C115 C 0.59406 0.80794 0.41434 0.0
N116 N 0.6128 0.8495 0.37909 0.0
C117 C 0.6299 0.83556 0.39422 0.0
Co118 Co 0.34943 0.97158 0.12687 0.0
Co119 Co 0.37094 0.88508 0.14872 0.0
O120 O 0.35049 0.91512 0.12797 0.0
C121 C 0.36665 0.94718 0.08354 0.0
O122 O 0.38295 0.92409 0.09369 0.0
C123 C 0.31681 0.85773 0.15385 0.0
O124 O 0.30986 0.89433 0.15394 0.0
O125 O 0.35747 0.91639 0.17323 0.0
O126 O 0.3477 0.97487 0.15934 0.0
H127 H 0.4308 0.86607 0.21242 0.0
H128 H 0.31164 0.92596 0.10081 0.0
O129 O 0.3514 0.96914 0.09436 0.0
H130 H 0.2577 0.00538 0.14995 0.0
H131 H 0.32074 0.09966 0.09602 0.0
H132 H 0.3745 0.03509 0.15168 0.0
H133 H 0.30587 0.01043 0.15059 0.0
H134 H 0.32215 0.02834 0.09837 0.0
O135 O 0.34085 0.84846 0.1521 0.0
H136 H 0.4055 0.90406 0.18583 0.0
H137 H 0.37849 0.80052 0.15614 0.0
H138 H 0.37349 0.10649 0.15004 0.0
H139 H 0.26352 0.9202 0.09951 0.0
H140 H 0.34646 0.13922 0.12205 0.0
H141 H 0.23622 0.96001 0.12426 0.0
O142 O 0.38825 0.97483 0.12812 0.0
H143 H 0.36306 0.80823 0.07991 0.0
H144 H 0.42413 0.85971 0.13469 0.0
H145 H 0.44146 0.82283 0.10363 0.0
H146 H 0.41083 0.79681 0.07596 0.0
H147 H 0.34658 0.84551 0.11114 0.0
H148 H 0.40333 0.76137 0.18251 0.0
H149 H 0.42981 0.79418 0.21085 0.0
O150 O 0.4013 0.92122 0.14584 0.0
C151 C 0.35044 0.95164 0.17531 0.0
C152 C 0.41943 0.85144 0.20009 0.0
C153 C 0.40399 0.79267 0.18332 0.0
N154 N 0.3908 0.85453 0.16931 0.0
C155 C 0.40516 0.8728 0.18494 0.0
C156 C 0.38994 0.81499 0.16845 0.0
C157 C 0.41884 0.8111 0.19921 0.0
C158 C 0.29987 0.94368 0.11146 0.0
N159 N 0.31153 0.96864 0.12568 0.0
C160 C 0.27264 0.94017 0.11072 0.0
C161 C 0.25734 0.96247 0.12464 0.0
C162 C 0.26938 0.98791 0.13907 0.0
C163 C 0.29667 0.99059 0.13939 0.0
C164 C 0.33255 0.08574 0.10832 0.0
C165 C 0.36256 0.04915 0.13955 0.0
C166 C 0.33347 0.04538 0.1097 0.0
N167 N 0.34823 0.02763 0.12526 0.0
C168 C 0.36213 0.08957 0.13866 0.0
C169 C 0.34698 0.10792 0.12294 0.0
C170 C 0.40582 0.95395 0.137 0.0
C171 C 0.37659 0.8193 0.0919 0.0
C172 C 0.41067 0.84849 0.12272 0.0
C173 C 0.4206 0.82758 0.10518 0.0
C174 C 0.4034 0.81296 0.08967 0.0
N175 N 0.38435 0.85457 0.12478 0.0
C176 C 0.36736 0.84027 0.10967 0.0
Co177 Co 0.64782 0.02855 0.12651 0.0
Co178 Co 0.62835 0.11441 0.15016 0.0
O179 O 0.6479 0.08498 0.12856 0.0
C180 C 0.63143 0.05583 0.08355 0.0
O181 O 0.61542 0.07898 0.09396 0.0
C182 C 0.68274 0.1412 0.15436 0.0
O183 O 0.68962 0.10458 0.15397 0.0
O184 O 0.64282 0.08209 0.17383 0.0
O185 O 0.64905 0.02328 0.15894 0.0
H186 H 0.57098 0.13131 0.21557 0.0
H187 H 0.68687 0.0736 0.10146 0.0
O188 O 0.64626 0.03285 0.09408 0.0
H189 H 0.7385 0.98923 0.1497 0.0
H190 H 0.6743 0.90095 0.09376 0.0
H191 H 0.62072 0.96495 0.14974 0.0
H192 H 0.69024 0.9865 0.14996 0.0
H193 H 0.67443 0.97214 0.09739 0.0
O194 O 0.65868 0.15064 0.15317 0.0
H195 H 0.59512 0.0942 0.18787 0.0
H196 H 0.62149 0.19872 0.15886 0.0
H197 H 0.62017 0.89367 0.14682 0.0
H198 H 0.73511 0.07706 0.10055 0.0
H199 H 0.64711 0.86122 0.11866 0.0
H200 H 0.76124 0.03475 0.12485 0.0
O201 O 0.60901 0.02721 0.12741 0.0
H202 H 0.63388 0.19412 0.08221 0.0
H203 H 0.57473 0.14084 0.13789 0.0
H204 H 0.55637 0.17918 0.10781 0.0
H205 H 0.58603 0.20612 0.0797 0.0
H206 H 0.65139 0.15533 0.11247 0.0
H207 H 0.59782 0.23698 0.18635 0.0
H208 H 0.57224 0.20324 0.21491 0.0
O209 O 0.5976 0.07872 0.14763 0.0
C210 C 0.64831 0.04616 0.17521 0.0
C211 C 0.58196 0.14635 0.20316 0.0
C212 C 0.59705 0.20566 0.18677 0.0
N213 N 0.60944 0.14429 0.17165 0.0
C214 C 0.59559 0.1255 0.18739 0.0
C215 C 0.61045 0.18385 0.17128 0.0
C216 C 0.5827 0.1867 0.20279 0.0
C217 C 0.69813 0.0548 0.11191 0.0
N218 N 0.68577 0.02976 0.12566 0.0
C219 C 0.72542 0.05701 0.11139 0.0
C220 C 0.74008 0.03331 0.12506 0.0
C221 C 0.72733 0.00779 0.13902 0.0
C222 C 0.7 0.00643 0.13913 0.0
C223 C 0.66254 0.91474 0.10614 0.0
C224 C 0.63265 0.951 0.13757 0.0
C225 C 0.66251 0.95502 0.10825 0.0
N226 N 0.64782 0.9726 0.12392 0.0
C227 C 0.63218 0.91065 0.13594 0.0
C228 C 0.64728 0.89247 0.12012 0.0
C229 C 0.59214 0.04752 0.1375 0.0
C230 C 0.62077 0.18265 0.0944 0.0
C231 C 0.58777 0.15242 0.12571 0.0
C232 C 0.57726 0.17417 0.10873 0.0
C233 C 0.59392 0.18931 0.09298 0.0
N234 N 0.61413 0.146 0.12699 0.0
C235 C 0.63059 0.16082 0.11163 0.0
Co236 Co 0.64581 0.96708 0.62689 0.0
Co237 Co 0.62646 0.8806 0.64995 0.0
O238 O 0.64612 0.9106 0.62864 0.0
C239 C 0.6301 0.94056 0.58357 0.0
O240 O 0.61413 0.91682 0.59363 0.0
C241 C 0.68092 0.85456 0.6547 0.0
O242 O 0.68756 0.89129 0.65441 0.0
O243 O 0.6404 0.91279 0.67393 0.0
O244 O 0.64672 0.97179 0.65932 0.0
H245 H 0.56831 0.86202 0.71476 0.0
H246 H 0.68532 0.92288 0.60188 0.0
O247 O 0.64464 0.96345 0.59443 0.0
H248 H 0.73608 0.00701 0.65092 0.0
H249 H 0.67208 0.09561 0.5951 0.0
H250 H 0.61816 0.02993 0.65026 0.0
H251 H 0.68781 0.00921 0.65084 0.0
H252 H 0.6725 0.02436 0.5983 0.0
O253 O 0.65695 0.84475 0.65316 0.0
H254 H 0.59262 0.89983 0.68745 0.0
H255 H 0.61993 0.79608 0.65823 0.0
H256 H 0.61732 0.10126 0.64777 0.0
H257 H 0.73357 0.91996 0.60129 0.0
H258 H 0.64443 0.13454 0.62002 0.0
H259 H 0.75927 0.96215 0.626 0.0
O260 O 0.60697 0.96797 0.62751 0.0
H261 H 0.63343 0.8019 0.58174 0.0
H262 H 0.57318 0.85361 0.63705 0.0
H263 H 0.55548 0.81543 0.60662 0.0
H264 H 0.5857 0.78928 0.5787 0.0
H265 H 0.65028 0.84051 0.61234 0.0
H266 H 0.5961 0.75712 0.68533 0.0
H267 H 0.56997 0.79013 0.7138 0.0
O268 O 0.59556 0.9159 0.64729 0.0
C269 C 0.64582 0.94872 0.6755 0.0
C270 C 0.57954 0.8473 0.70238 0.0
C271 C 0.59516 0.78843 0.68588 0.0
N272 N 0.60742 0.85017 0.67114 0.0
C273 C 0.59326 0.86856 0.68683 0.0
C274 C 0.60864 0.81063 0.6706 0.0
C275 C 0.5805 0.80697 0.70185 0.0
C276 C 0.69638 0.94163 0.6125 0.0
N277 N 0.68377 0.96631 0.6263 0.0
C278 C 0.72369 0.93972 0.61217 0.0
C279 C 0.7381 0.96335 0.62607 0.0
C280 C 0.7251 0.9885 0.64006 0.0
C281 C 0.69776 0.98957 0.63998 0.0
C282 C 0.66024 0.08145 0.60729 0.0
C283 C 0.63016 0.04425 0.63827 0.0
C284 C 0.66037 0.04113 0.60916 0.0
N285 N 0.64558 0.02308 0.62461 0.0
C286 C 0.62953 0.08462 0.63687 0.0
C287 C 0.64473 0.10328 0.62129 0.0
C288 C 0.59007 0.94725 0.63733 0.0
C289 C 0.62008 0.81303 0.59385 0.0
C290 C 0.58645 0.84237 0.62495 0.0
C291 C 0.57632 0.82071 0.60778 0.0
C292 C 0.59329 0.80602 0.59213 0.0
N293 N 0.61276 0.84913 0.62652 0.0
C294 C 0.62952 0.83475 0.61126 0.0
Co295 Co 0.34758 0.02805 0.62703 0.0
Co296 Co 0.371 0.11392 0.64831 0.0
O297 O 0.35018 0.08436 0.62762 0.0
C298 C 0.36697 0.04883 0.58368 0.0
O299 O 0.38474 0.06952 0.59379 0.0
C300 C 0.31737 0.14299 0.65314 0.0
O301 O 0.31008 0.10654 0.65343 0.0
O302 O 0.35681 0.08373 0.673 0.0
O303 O 0.34519 0.02571 0.65948 0.0
H304 H 0.43088 0.1319 0.71209 0.0
H305 H 0.31151 0.07511 0.60011 0.0
O306 O 0.35008 0.02971 0.59453 0.0
H307 H 0.25461 0.00017 0.6492 0.0
H308 H 0.31598 0.90096 0.59683 0.0
H309 H 0.37044 0.96379 0.65267 0.0
H310 H 0.30259 0.99238 0.6505 0.0
H311 H 0.31933 0.9722 0.59862 0.0
O312 O 0.34151 0.15175 0.65134 0.0
H313 H 0.40504 0.09435 0.68565 0.0
H314 H 0.38 0.19828 0.65526 0.0
H315 H 0.36748 0.89247 0.65159 0.0
H316 H 0.26362 0.08356 0.59815 0.0
H317 H 0.34008 0.86062 0.62351 0.0
H318 H 0.23483 0.04603 0.62287 0.0
O319 O 0.38631 0.0226 0.6289 0.0
H320 H 0.3651 0.18932 0.57887 0.0
H321 H 0.42473 0.13691 0.63444 0.0
H322 H 0.443 0.17238 0.60322 0.0
H323 H 0.4131 0.19888 0.57517 0.0
H324 H 0.34768 0.15343 0.61027 0.0
H325 H 0.4054 0.23701 0.68148 0.0
H326 H 0.43117 0.20377 0.7101 0.0
O327 O 0.40062 0.07644 0.64579 0.0
C328 C 0.3486 0.04909 0.6753 0.0
C329 C 0.41984 0.14671 0.69964 0.0
C330 C 0.4055 0.20571 0.68248 0.0
N331 N 0.39129 0.1441 0.66879 0.0
C332 C 0.40525 0.1256 0.68458 0.0
C333 C 0.39113 0.18364 0.6677 0.0
C334 C 0.41996 0.18704 0.69853 0.0
C335 C 0.2991 0.05836 0.61076 0.0
N336 N 0.30982 0.03315 0.62533 0.0
C337 C 0.272 0.0634 0.60964 0.0
C338 C 0.25586 0.04238 0.62354 0.0
C339 C 0.26695 0.01666 0.63833 0.0
C340 C 0.29413 0.01243 0.63902 0.0
C341 C 0.32793 0.9145 0.60917 0.0
C342 C 0.35835 0.95012 0.64049 0.0
C343 C 0.32994 0.95481 0.61023 0.0
N344 N 0.34489 0.97209 0.62585 0.0
C345 C 0.35681 0.90974 0.63992 0.0
C346 C 0.34146 0.89188 0.62415 0.0
C347 C 0.40435 0.04303 0.63751 0.0
C348 C 0.37833 0.17802 0.59103 0.0
C349 C 0.41159 0.14835 0.6223 0.0
C350 C 0.42205 0.16845 0.60467 0.0
C351 C 0.40526 0.18333 0.58894 0.0
N352 N 0.38515 0.14332 0.62424 0.0
C353 C 0.36856 0.15782 0.60889 0.0
Co354 Co 0.64647 0.0336 0.87653 0.0
Co355 Co 0.62575 0.11932 0.8535 0.0
O356 O 0.64566 0.08999 0.87489 0.0
C357 C 0.62898 0.05786 0.91984 0.0
O358 O 0.61143 0.07903 0.90979 0.0
C359 C 0.67984 0.14682 0.849 0.0
O360 O 0.68675 0.11021 0.84911 0.0
O361 O 0.64027 0.08769 0.82953 0.0
O362 O 0.6477 0.02896 0.84411 0.0
H363 H 0.56772 0.13623 0.78848 0.0
H364 H 0.6849 0.07944 0.90184 0.0
O365 O 0.64506 0.03736 0.90897 0.0
H366 H 0.73768 0.99779 0.85298 0.0
H367 H 0.67508 0.90633 0.90845 0.0
H368 H 0.62028 0.96951 0.85299 0.0
H369 H 0.68948 0.99348 0.85276 0.0
H370 H 0.67405 0.97757 0.90527 0.0
O371 O 0.65579 0.15616 0.85051 0.0
H372 H 0.59238 0.09912 0.81586 0.0
H373 H 0.61812 0.20362 0.84527 0.0
H374 H 0.62089 0.89818 0.85547 0.0
H375 H 0.73306 0.08445 0.90271 0.0
H376 H 0.64846 0.86615 0.88337 0.0
H377 H 0.75978 0.04352 0.8781 0.0
O378 O 0.60764 0.03095 0.87556 0.0
H379 H 0.63098 0.19752 0.922 0.0
H380 H 0.57201 0.14458 0.86609 0.0
H381 H 0.55349 0.18197 0.89649 0.0
H382 H 0.58306 0.20875 0.9247 0.0
H383 H 0.64866 0.1597 0.89141 0.0
H384 H 0.59392 0.2419 0.8181 0.0
H385 H 0.56839 0.20816 0.78951 0.0
O386 O 0.59541 0.08293 0.85601 0.0
C387 C 0.64633 0.05199 0.82793 0.0
C388 C 0.57867 0.15126 0.80092 0.0
C389 C 0.59341 0.21057 0.81752 0.0
N390 N 0.60642 0.14919 0.83227 0.0
C391 C 0.59259 0.1304 0.8165 0.0
C392 C 0.6071 0.18875 0.83284 0.0
C393 C 0.57909 0.19162 0.80148 0.0
C394 C 0.6964 0.06123 0.89125 0.0
N395 N 0.6844 0.03607 0.87734 0.0
C396 C 0.72366 0.06432 0.89175 0.0
C397 C 0.73864 0.0414 0.87791 0.0
C398 C 0.72625 0.01576 0.86379 0.0
C399 C 0.69895 0.0135 0.86371 0.0
C400 C 0.66306 0.91994 0.89619 0.0
C401 C 0.63248 0.95575 0.86505 0.0
C402 C 0.66237 0.96025 0.89433 0.0
N403 N 0.64735 0.97761 0.8788 0.0
C404 C 0.63267 0.91537 0.86644 0.0
C405 C 0.64812 0.89741 0.88211 0.0
C406 C 0.59043 0.05117 0.86576 0.0
C407 C 0.61791 0.1861 0.90977 0.0
C408 C 0.585 0.15611 0.87832 0.0
C409 C 0.57441 0.17731 0.89547 0.0
C410 C 0.59101 0.19234 0.91129 0.0
N411 N 0.61141 0.15016 0.87692 0.0
C412 C 0.62781 0.16482 0.89236 0.0
Co413 Co 0.34843 0.96809 0.87633 0.0
Co414 Co 0.37187 0.88236 0.85493 0.0
O415 O 0.35103 0.91178 0.87566 0.0
C416 C 0.36774 0.94723 0.91971 0.0
O417 O 0.38553 0.92653 0.90965 0.0
C418 C 0.31828 0.85327 0.84992 0.0
O419 O 0.31099 0.88971 0.84973 0.0
O420 O 0.35772 0.91267 0.83028 0.0
O421 O 0.34604 0.97057 0.84388 0.0
H422 H 0.43182 0.86483 0.79116 0.0
H423 H 0.31234 0.92085 0.90315 0.0
O424 O 0.3509 0.96634 0.90882 0.0
H425 H 0.25546 0.99598 0.85417 0.0
H426 H 0.3168 0.09504 0.90667 0.0
H427 H 0.3713 0.03249 0.85078 0.0
H428 H 0.30344 0.00383 0.8529 0.0
H429 H 0.32014 0.02381 0.90479 0.0
O430 O 0.3424 0.84452 0.85179 0.0
H431 H 0.40595 0.90219 0.81765 0.0
H432 H 0.38091 0.79805 0.84786 0.0
H433 H 0.36835 0.1038 0.85195 0.0
H434 H 0.26445 0.91233 0.90509 0.0
H435 H 0.34094 0.13551 0.88005 0.0
H436 H 0.23567 0.94996 0.88042 0.0
O437 O 0.38716 0.9736 0.87449 0.0
H438 H 0.36585 0.80653 0.92422 0.0
H439 H 0.42558 0.85936 0.86883 0.0
H440 H 0.44379 0.82372 0.90001 0.0
H441 H 0.41384 0.79701 0.92796 0.0
H442 H 0.34848 0.8426 0.89286 0.0
H443 H 0.40634 0.75951 0.82159 0.0
H444 H 0.43212 0.79295 0.79304 0.0
O445 O 0.40148 0.91984 0.85756 0.0
C446 C 0.34946 0.94728 0.82803 0.0
C447 C 0.42077 0.84993 0.80358 0.0
C448 C 0.40644 0.79082 0.82064 0.0
N449 N 0.3922 0.85232 0.83442 0.0
C450 C 0.40617 0.87093 0.81868 0.0
C451 C 0.39205 0.81278 0.83545 0.0
C452 C 0.4209 0.8096 0.80463 0.0
C453 C 0.29993 0.93764 0.89253 0.0
N454 N 0.31066 0.96294 0.878 0.0
C455 C 0.27283 0.93256 0.89363 0.0
C456 C 0.2567 0.95363 0.87976 0.0
C457 C 0.26779 0.97944 0.86502 0.0
C458 C 0.29497 0.98371 0.86434 0.0
C459 C 0.32876 0.08155 0.89432 0.0
C460 C 0.35921 0.04609 0.86297 0.0
C461 C 0.33077 0.04125 0.89321 0.0
N462 N 0.34573 0.02405 0.87758 0.0
C463 C 0.35767 0.08647 0.86359 0.0
C464 C 0.34231 0.10425 0.87938 0.0
C465 C 0.40521 0.95322 0.86588 0.0
C466 C 0.37909 0.81792 0.91211 0.0
C467 C 0.41242 0.84783 0.88094 0.0
C468 C 0.42285 0.82764 0.89854 0.0
C469 C 0.40603 0.81264 0.91421 0.0
N470 N 0.38598 0.85284 0.87897 0.0
C471 C 0.36937 0.83822 0.89427 0.0
Co472 Co 0.84845 0.52713 0.37742 0.0
Co473 Co 0.86977 0.61269 0.35453 0.0
O474 O 0.8499 0.5835 0.37599 0.0
C475 C 0.86726 0.55067 0.42045 0.0
O476 O 0.88476 0.57143 0.41008 0.0
C477 C 0.8159 0.64117 0.35067 0.0
O478 O 0.80868 0.60468 0.35076 0.0
O479 O 0.8546 0.58165 0.3306 0.0
O480 O 0.84644 0.52295 0.34498 0.0
H481 H 0.92705 0.62927 0.28902 0.0
H482 H 0.81118 0.57361 0.40351 0.0
O483 O 0.85068 0.53053 0.40986 0.0
H484 H 0.75629 0.49399 0.35516 0.0
H485 H 0.81904 0.40025 0.40937 0.0
H486 H 0.87326 0.46266 0.35322 0.0
H487 H 0.80442 0.48842 0.35418 0.0
H488 H 0.82089 0.47149 0.40641 0.0
O489 O 0.84004 0.65011 0.35196 0.0
H490 H 0.90242 0.5923 0.3165 0.0
H491 H 0.87807 0.69693 0.34652 0.0
H492 H 0.87182 0.39133 0.35547 0.0
H493 H 0.76311 0.57987 0.40514 0.0
H494 H 0.84455 0.35968 0.3837 0.0
H495 H 0.73534 0.53997 0.38079 0.0
O496 O 0.8872 0.52347 0.37582 0.0
H497 H 0.86626 0.69015 0.42336 0.0
H498 H 0.92392 0.63675 0.36668 0.0
H499 H 0.94323 0.67338 0.39704 0.0
H500 H 0.91432 0.70039 0.42564 0.0
H501 H 0.84779 0.65308 0.39281 0.0
H502 H 0.90225 0.73507 0.31927 0.0
H503 H 0.92706 0.70119 0.29031 0.0
O504 O 0.89978 0.57569 0.3566 0.0
C505 C 0.84792 0.5462 0.32891 0.0
C506 C 0.91641 0.64436 0.30161 0.0
C507 C 0.90246 0.70375 0.31857 0.0
N508 N 0.88908 0.64244 0.33322 0.0
C509 C 0.90251 0.62358 0.31725 0.0
C510 C 0.88878 0.68201 0.33394 0.0
C511 C 0.91638 0.68472 0.30233 0.0
C512 C 0.79921 0.55584 0.39303 0.0
N513 N 0.81058 0.53055 0.37884 0.0
C514 C 0.77201 0.55964 0.39396 0.0
C515 C 0.75644 0.53729 0.38026 0.0
C516 C 0.76818 0.51151 0.36586 0.0
C517 C 0.79545 0.50854 0.36535 0.0
C518 C 0.83093 0.41369 0.39695 0.0
C519 C 0.86119 0.44907 0.36543 0.0
C520 C 0.83208 0.454 0.39522 0.0
N521 N 0.84693 0.47115 0.3795 0.0
C522 C 0.86053 0.40868 0.36668 0.0
C523 C 0.84524 0.39095 0.38254 0.0
C524 C 0.9045 0.54353 0.36602 0.0
C525 C 0.87905 0.67863 0.41096 0.0
C526 C 0.91121 0.64839 0.37908 0.0
C527 C 0.92226 0.66915 0.39621 0.0
C528 C 0.90603 0.68432 0.41225 0.0
N529 N 0.88474 0.64298 0.37792 0.0
C530 C 0.8687 0.65777 0.39357 0.0
Co531 Co 0.14691 0.47051 0.37636 0.0
Co532 Co 0.12685 0.38361 0.35435 0.0
O533 O 0.1469 0.41405 0.37513 0.0
C534 C 0.13118 0.44532 0.41987 0.0
O535 O 0.1149 0.42189 0.40993 0.0
C536 C 0.18095 0.35645 0.34863 0.0
O537 O 0.18767 0.39299 0.34664 0.0
O538 O 0.14074 0.41477 0.3299 0.0
O539 O 0.14762 0.47417 0.34389 0.0
H540 H 0.06813 0.3631 0.29006 0.0
H541 H 0.18632 0.42619 0.4014 0.0
O542 O 0.14592 0.46773 0.40887 0.0
H543 H 0.23721 0.50861 0.35156 0.0
H544 H 0.17413 0.59954 0.40693 0.0
H545 H 0.11957 0.53307 0.35249 0.0
H546 H 0.18896 0.51154 0.35191 0.0
H547 H 0.17407 0.5282 0.40435 0.0
O548 O 0.15709 0.34724 0.35167 0.0
H549 H 0.09288 0.40172 0.31674 0.0
H550 H 0.11976 0.29887 0.34721 0.0
H551 H 0.11919 0.60447 0.35435 0.0
H552 H 0.23456 0.42253 0.4017 0.0
H553 H 0.14663 0.63815 0.38173 0.0
H554 H 0.26033 0.46388 0.3766 0.0
O555 O 0.10805 0.47198 0.37587 0.0
H556 H 0.13371 0.30739 0.42346 0.0
H557 H 0.07347 0.35801 0.36783 0.0
H558 H 0.05569 0.32126 0.39878 0.0
H559 H 0.08591 0.29566 0.42686 0.0
H560 H 0.15064 0.34459 0.39236 0.0
H561 H 0.09548 0.2591 0.32076 0.0
H562 H 0.06934 0.29124 0.29198 0.0
O563 O 0.09623 0.41944 0.35665 0.0
C564 C 0.14639 0.45059 0.32794 0.0
C565 C 0.07936 0.34876 0.30258 0.0
C566 C 0.09474 0.29039 0.31979 0.0
N567 N 0.10749 0.35256 0.33365 0.0
C568 C 0.09333 0.37047 0.31777 0.0
C569 C 0.10847 0.31305 0.3347 0.0
C570 C 0.08007 0.30844 0.30365 0.0
C571 C 0.19742 0.44453 0.39059 0.0
N572 N 0.18486 0.4692 0.37675 0.0
C573 C 0.22472 0.44223 0.39076 0.0
C574 C 0.23916 0.4654 0.37665 0.0
C575 C 0.2262 0.49048 0.36259 0.0
C576 C 0.19888 0.49196 0.36283 0.0
C577 C 0.16215 0.5852 0.39489 0.0
C578 C 0.13171 0.54756 0.36432 0.0
C579 C 0.16201 0.54483 0.39338 0.0
N580 N 0.14704 0.52657 0.37813 0.0
C581 C 0.13134 0.58797 0.36536 0.0
C582 C 0.14672 0.60685 0.38074 0.0
C583 C 0.09099 0.45122 0.36626 0.0
C584 C 0.12036 0.31829 0.41129 0.0
C585 C 0.08674 0.34702 0.38 0.0
C586 C 0.07656 0.32616 0.39746 0.0
C587 C 0.09353 0.31178 0.41321 0.0
N588 N 0.11308 0.3533 0.37824 0.0
C589 C 0.12984 0.33921 0.39359 0.0
Co590 Co 0.84963 0.4696 0.12698 0.0
Co591 Co 0.8714 0.38394 0.14942 0.0
O592 O 0.85137 0.41322 0.12809 0.0
C593 C 0.86834 0.44716 0.08373 0.0
O594 O 0.88606 0.42645 0.09388 0.0
C595 C 0.81772 0.3544 0.15302 0.0
O596 O 0.81024 0.39076 0.15317 0.0
O597 O 0.85595 0.41428 0.17351 0.0
O598 O 0.8477 0.47317 0.15943 0.0
H599 H 0.92863 0.36711 0.21493 0.0
H600 H 0.81248 0.42313 0.10074 0.0
O601 O 0.85172 0.46684 0.09452 0.0
H602 H 0.75739 0.50128 0.14964 0.0
H603 H 0.81949 0.59671 0.09584 0.0
H604 H 0.87422 0.53392 0.15148 0.0
H605 H 0.8055 0.50738 0.15054 0.0
H606 H 0.82168 0.52545 0.09838 0.0
O607 O 0.84194 0.34595 0.1517 0.0
H608 H 0.90382 0.40417 0.18762 0.0
H609 H 0.88028 0.2997 0.15694 0.0
H610 H 0.87243 0.60527 0.14965 0.0
H611 H 0.76444 0.41635 0.09918 0.0
H612 H 0.8449 0.63711 0.12167 0.0
H613 H 0.73656 0.45551 0.12381 0.0
O614 O 0.88838 0.47369 0.1285 0.0
H615 H 0.86861 0.30779 0.08011 0.0
H616 H 0.92575 0.36101 0.13722 0.0
H617 H 0.94539 0.32529 0.10668 0.0
H618 H 0.91675 0.29837 0.07786 0.0
H619 H 0.84981 0.34396 0.11085 0.0
H620 H 0.90466 0.26147 0.18402 0.0
H621 H 0.92915 0.29522 0.21322 0.0
O622 O 0.90117 0.42149 0.14761 0.0
C623 C 0.84919 0.44965 0.17538 0.0
C624 C 0.91813 0.35207 0.20223 0.0
C625 C 0.90464 0.29278 0.1849 0.0
N626 N 0.89087 0.35412 0.17059 0.0
C627 C 0.90413 0.37291 0.18668 0.0
C628 C 0.89085 0.31457 0.16964 0.0
C629 C 0.91838 0.31174 0.20128 0.0
C630 C 0.80047 0.44057 0.11134 0.0
N631 N 0.81177 0.46575 0.12564 0.0
C632 C 0.77328 0.43649 0.11045 0.0
C633 C 0.75766 0.45842 0.1243 0.0
C634 C 0.76933 0.48408 0.13882 0.0
C635 C 0.79659 0.48735 0.13928 0.0
C636 C 0.83149 0.58318 0.10814 0.0
C637 C 0.86204 0.54759 0.13938 0.0
C638 C 0.83284 0.54286 0.10964 0.0
N639 N 0.84783 0.5256 0.12522 0.0
C640 C 0.86118 0.58799 0.13836 0.0
C641 C 0.84575 0.60583 0.12264 0.0
C642 C 0.90576 0.45377 0.13827 0.0
C643 C 0.88129 0.31927 0.09261 0.0
C644 C 0.91316 0.34941 0.12473 0.0
C645 C 0.92439 0.32916 0.1075 0.0
C646 C 0.9083 0.31405 0.09134 0.0
N647 N 0.88664 0.35437 0.12587 0.0
C648 C 0.87075 0.33962 0.1101 0.0
Co649 Co 0.14778 0.53115 0.12629 0.0
Co650 Co 0.1271 0.61705 0.14909 0.0
O651 O 0.14682 0.58756 0.12766 0.0
C652 C 0.12979 0.5546 0.08298 0.0
O653 O 0.11222 0.57569 0.09306 0.0
C654 C 0.18111 0.6454 0.15286 0.0
O655 O 0.1883 0.60891 0.15284 0.0
O656 O 0.14217 0.586 0.17307 0.0
O657 O 0.1493 0.527 0.15873 0.0
H658 H 0.07004 0.63442 0.21466 0.0
H659 H 0.18585 0.57681 0.10051 0.0
O660 O 0.14607 0.53442 0.09383 0.0
H661 H 0.23931 0.49627 0.14944 0.0
H662 H 0.17647 0.40359 0.09477 0.0
H663 H 0.12198 0.46724 0.15027 0.0
H664 H 0.19112 0.49168 0.14998 0.0
H665 H 0.17527 0.47487 0.09765 0.0
O666 O 0.15697 0.65432 0.15156 0.0
H667 H 0.09446 0.59712 0.18721 0.0
H668 H 0.11912 0.70139 0.15694 0.0
H669 H 0.12276 0.39588 0.1481 0.0
H670 H 0.23399 0.58208 0.0993 0.0
H671 H 0.15016 0.36361 0.12019 0.0
H672 H 0.26105 0.54172 0.12394 0.0
O673 O 0.10897 0.52826 0.12754 0.0
H674 H 0.13081 0.69409 0.08012 0.0
H675 H 0.07302 0.64146 0.13696 0.0
H676 H 0.05382 0.67809 0.10657 0.0
H677 H 0.08279 0.70472 0.07789 0.0
H678 H 0.14918 0.65701 0.11071 0.0
H679 H 0.09514 0.73986 0.18416 0.0
H680 H 0.07029 0.70633 0.21323 0.0
O681 O 0.09691 0.58026 0.14713 0.0
C682 C 0.14818 0.5503 0.17479 0.0
C683 C 0.0807 0.64936 0.20202 0.0
C684 C 0.09482 0.70854 0.18492 0.0
N685 N 0.10794 0.64706 0.17037 0.0
C686 C 0.09449 0.62839 0.1864 0.0
C687 C 0.10839 0.68662 0.16958 0.0
C688 C 0.08088 0.68971 0.20122 0.0
C689 C 0.1975 0.55884 0.11111 0.0
N690 N 0.18569 0.53384 0.12523 0.0
C691 C 0.22475 0.56208 0.11043 0.0
C692 C 0.23992 0.53947 0.12429 0.0
C693 C 0.22773 0.514 0.13861 0.0
C694 C 0.20043 0.51158 0.13888 0.0
C695 C 0.16451 0.41731 0.10704 0.0
C696 C 0.13411 0.45338 0.1382 0.0
C697 C 0.16373 0.45764 0.10873 0.0
N698 N 0.1488 0.47513 0.12427 0.0
C699 C 0.1344 0.41298 0.13699 0.0
C700 C 0.14975 0.39489 0.12131 0.0
C701 C 0.09187 0.54839 0.13752 0.0
C702 C 0.11799 0.68274 0.09256 0.0
C703 C 0.08576 0.65292 0.12453 0.0
C704 C 0.07477 0.67369 0.10738 0.0
C705 C 0.09104 0.68864 0.0913 0.0
N706 N 0.11221 0.6473 0.12566 0.0
C707 C 0.12829 0.66187 0.10996 0.0
Co708 Co 0.15005 0.46791 0.62698 0.0
Co709 Co 0.12712 0.38114 0.64757 0.0
O710 O 0.14818 0.41151 0.62744 0.0
C711 C 0.13109 0.44662 0.58361 0.0
O712 O 0.1138 0.42502 0.59368 0.0
C713 C 0.18118 0.35433 0.65382 0.0
O714 O 0.18798 0.39099 0.65394 0.0
O715 O 0.13949 0.4123 0.67264 0.0
O716 O 0.15237 0.46993 0.65937 0.0
H717 H 0.06423 0.36111 0.70914 0.0
H718 H 0.18665 0.42193 0.59996 0.0
O719 O 0.14755 0.46647 0.59449 0.0
H720 H 0.24269 0.49789 0.64924 0.0
H721 H 0.18015 0.59605 0.59711 0.0
H722 H 0.12645 0.53137 0.6528 0.0
H723 H 0.19463 0.50449 0.65054 0.0
H724 H 0.17767 0.52471 0.59874 0.0
O725 O 0.15723 0.34478 0.65168 0.0
H726 H 0.09052 0.39954 0.6834 0.0
H727 H 0.11987 0.29646 0.65479 0.0
H728 H 0.12852 0.60275 0.65186 0.0
H729 H 0.23464 0.41466 0.598 0.0
H730 H 0.15552 0.63554 0.62387 0.0
H731 H 0.26299 0.45271 0.62282 0.0
O732 O 0.11126 0.47254 0.62894 0.0
H733 H 0.138 0.30558 0.5786 0.0
H734 H 0.07467 0.35493 0.63219 0.0
H735 H 0.05871 0.31822 0.60056 0.0
H736 H 0.09049 0.29325 0.5735 0.0
H737 H 0.1531 0.34269 0.61038 0.0
H738 H 0.09407 0.25689 0.68033 0.0
H739 H 0.06592 0.28924 0.70769 0.0
O740 O 0.09687 0.41703 0.64385 0.0
C741 C 0.14803 0.44676 0.67511 0.0
C742 C 0.07635 0.34667 0.69724 0.0
C743 C 0.09313 0.28818 0.68109 0.0
N744 N 0.10652 0.35025 0.66751 0.0
C745 C 0.09121 0.36828 0.68259 0.0
C746 C 0.10773 0.31073 0.6667 0.0
C747 C 0.07733 0.30635 0.69644 0.0
C748 C 0.19888 0.4389 0.61065 0.0
N749 N 0.18786 0.46375 0.62527 0.0
C750 C 0.22603 0.43453 0.60953 0.0
C751 C 0.24192 0.45584 0.62349 0.0
C752 C 0.23054 0.48118 0.63833 0.0
C753 C 0.20332 0.48474 0.63902 0.0
C754 C 0.16836 0.5821 0.60942 0.0
C755 C 0.13837 0.54544 0.64066 0.0
C756 C 0.16684 0.54173 0.61039 0.0
N757 N 0.15211 0.52394 0.62596 0.0
C758 C 0.13941 0.58586 0.64017 0.0
C759 C 0.15454 0.60424 0.62444 0.0
C760 C 0.09303 0.45101 0.63637 0.0
C761 C 0.12397 0.31621 0.59031 0.0
C762 C 0.08861 0.34419 0.62047 0.0
C763 C 0.07946 0.32337 0.60261 0.0
C764 C 0.09731 0.30935 0.58744 0.0
N765 N 0.1148 0.35076 0.62319 0.0
C766 C 0.13241 0.3371 0.60839 0.0
Co767 Co 0.85029 0.53235 0.62772 0.0
Co768 Co 0.87264 0.61949 0.64838 0.0
O769 O 0.85142 0.58886 0.62843 0.0
C770 C 0.86723 0.55595 0.58417 0.0
O771 O 0.8833 0.57976 0.59405 0.0
C772 C 0.81847 0.64532 0.65543 0.0
O773 O 0.81187 0.60858 0.65546 0.0
O774 O 0.86105 0.58774 0.67348 0.0
O775 O 0.84856 0.52999 0.6601 0.0
H776 H 0.93653 0.64005 0.70918 0.0
H777 H 0.81263 0.57765 0.60137 0.0
O778 O 0.85227 0.53393 0.59521 0.0
H779 H 0.75847 0.49948 0.65101 0.0
H780 H 0.82135 0.4036 0.59787 0.0
H781 H 0.87522 0.46938 0.65304 0.0
H782 H 0.80662 0.49418 0.65167 0.0
H783 H 0.82287 0.47498 0.59968 0.0
O784 O 0.84232 0.6552 0.65305 0.0
H785 H 0.91009 0.6014 0.68365 0.0
H786 H 0.87928 0.70424 0.65581 0.0
H787 H 0.8741 0.39796 0.65192 0.0
H788 H 0.76453 0.58367 0.60007 0.0
H789 H 0.84701 0.36462 0.62418 0.0
H790 H 0.73712 0.54449 0.62506 0.0
O791 O 0.88914 0.52882 0.62906 0.0
H792 H 0.85953 0.6958 0.57993 0.0
H793 H 0.92451 0.64699 0.63231 0.0
H794 H 0.93942 0.68439 0.60058 0.0
H795 H 0.90681 0.70907 0.57412 0.0
H796 H 0.84549 0.65803 0.61179 0.0
H797 H 0.90523 0.74401 0.68115 0.0
H798 H 0.93419 0.71189 0.70802 0.0
O799 O 0.90319 0.58437 0.64409 0.0
C800 C 0.85287 0.55307 0.67589 0.0
C801 C 0.92406 0.65438 0.69749 0.0
C802 C 0.90646 0.71273 0.68178 0.0
N803 N 0.89335 0.65057 0.66815 0.0
C804 C 0.9091 0.63266 0.68296 0.0
C805 C 0.89178 0.69007 0.66751 0.0
C806 C 0.92271 0.69469 0.69685 0.0
C807 C 0.80082 0.56021 0.61214 0.0
N808 N 0.81241 0.53545 0.62649 0.0
C809 C 0.7736 0.56386 0.61139 0.0
C810 C 0.75823 0.54192 0.62545 0.0
C811 C 0.7702 0.51668 0.64002 0.0
C812 C 0.79748 0.51385 0.64035 0.0
C813 C 0.83318 0.4178 0.61006 0.0
C814 C 0.86325 0.45506 0.64101 0.0
C815 C 0.83416 0.45818 0.61113 0.0
N816 N 0.84895 0.47628 0.62656 0.0
C817 C 0.86276 0.41463 0.64042 0.0
C818 C 0.84758 0.39594 0.62483 0.0
C819 C 0.90727 0.55067 0.63633 0.0
C820 C 0.87391 0.68531 0.59138 0.0
C821 C 0.9102 0.65761 0.62086 0.0
C822 C 0.91876 0.67882 0.60295 0.0
C823 C 0.90045 0.69269 0.58812 0.0
N824 N 0.88414 0.65049 0.62395 0.0
C825 C 0.86607 0.66406 0.60951 0.0
Co826 Co 0.14952 0.53031 0.87601 0.0
Co827 Co 0.12741 0.61717 0.85487 0.0
O828 O 0.14845 0.5868 0.87503 0.0
C829 C 0.13206 0.55478 0.91924 0.0
O830 O 0.11613 0.57834 0.90902 0.0
C831 C 0.1817 0.64257 0.84792 0.0
O832 O 0.1882 0.6058 0.84813 0.0
O833 O 0.13902 0.58497 0.82999 0.0
O834 O 0.15161 0.52746 0.84362 0.0
H835 H 0.06383 0.63703 0.79378 0.0
H836 H 0.18692 0.57598 0.90244 0.0
O837 O 0.14714 0.53246 0.9085 0.0
H838 H 0.24156 0.49709 0.85357 0.0
H839 H 0.17797 0.40205 0.90675 0.0
H840 H 0.12485 0.46695 0.85079 0.0
H841 H 0.19341 0.49179 0.85257 0.0
H842 H 0.17653 0.47339 0.90456 0.0
O843 O 0.15786 0.65262 0.85011 0.0
H844 H 0.09005 0.59868 0.81959 0.0
H845 H 0.12106 0.70182 0.84696 0.0
H846 H 0.1259 0.39555 0.85227 0.0
H847 H 0.23501 0.582 0.90408 0.0
H848 H 0.15261 0.36265 0.88041 0.0
H849 H 0.26266 0.54246 0.87947 0.0
O850 O 0.1107 0.52676 0.87438 0.0
H851 H 0.14042 0.6946 0.92295 0.0
H852 H 0.07554 0.64518 0.87063 0.0
H853 H 0.06059 0.6832 0.9021 0.0
H854 H 0.09315 0.70819 0.92853 0.0
H855 H 0.15449 0.6562 0.89134 0.0
H856 H 0.09533 0.7413 0.82134 0.0
H857 H 0.06639 0.70887 0.79456 0.0
O858 O 0.09673 0.58226 0.85925 0.0
C859 C 0.1473 0.55033 0.82773 0.0
C860 C 0.0763 0.65149 0.80542 0.0
C861 C 0.09401 0.71002 0.82087 0.0
N862 N 0.10688 0.64801 0.83487 0.0
C863 C 0.09113 0.62994 0.82012 0.0
C864 C 0.10857 0.68752 0.83531 0.0
C865 C 0.07777 0.6918 0.80585 0.0
C866 C 0.19884 0.55838 0.89184 0.0
N867 N 0.18739 0.53341 0.87751 0.0
C868 C 0.22605 0.56203 0.89278 0.0
C869 C 0.24155 0.53989 0.87894 0.0
C870 C 0.22972 0.51444 0.86439 0.0
C871 C 0.20245 0.51161 0.86387 0.0
C872 C 0.16631 0.41605 0.89439 0.0
C873 C 0.13666 0.45282 0.86299 0.0
C874 C 0.16538 0.45642 0.8931 0.0
N875 N 0.1508 0.47426 0.87745 0.0
C876 C 0.13711 0.41239 0.86379 0.0
C877 C 0.15208 0.39395 0.8796 0.0
C878 C 0.09261 0.54858 0.86704 0.0
C879 C 0.12605 0.68398 0.91151 0.0
C880 C 0.08982 0.65594 0.88206 0.0
C881 C 0.08125 0.6775 0.89983 0.0
C882 C 0.09952 0.69154 0.91465 0.0
N883 N 0.11588 0.64864 0.87909 0.0
C884 C 0.13392 0.66237 0.89352 0.0
Co885 Co 0.84957 0.46889 0.87661 0.0
Co886 Co 0.87161 0.38178 0.85575 0.0
O887 O 0.85053 0.41239 0.87578 0.0
C888 C 0.86673 0.4448 0.91999 0.0
O889 O 0.88269 0.4211 0.90993 0.0
C890 C 0.81733 0.35636 0.8487 0.0
O891 O 0.81084 0.39314 0.8488 0.0
O892 O 0.86012 0.4138 0.83074 0.0
O893 O 0.84771 0.4715 0.84422 0.0
H894 H 0.93536 0.36124 0.79486 0.0
H895 H 0.81191 0.4236 0.903 0.0
O896 O 0.85173 0.46702 0.90912 0.0
H897 H 0.75773 0.50229 0.85367 0.0
H898 H 0.82112 0.59752 0.90689 0.0
H899 H 0.87452 0.53196 0.85135 0.0
H900 H 0.8059 0.50738 0.85287 0.0
H901 H 0.82246 0.52615 0.90489 0.0
O902 O 0.84115 0.34632 0.85101 0.0
H903 H 0.90909 0.39987 0.82049 0.0
H904 H 0.87792 0.29704 0.84812 0.0
H905 H 0.87358 0.60338 0.85264 0.0
H906 H 0.7638 0.41779 0.90444 0.0
H907 H 0.84673 0.63661 0.88057 0.0
H908 H 0.73638 0.45723 0.8796 0.0
O909 O 0.88841 0.47229 0.87514 0.0
H910 H 0.8583 0.30504 0.92403 0.0
H911 H 0.92339 0.35383 0.87171 0.0
H912 H 0.93821 0.3161 0.90334 0.0
H913 H 0.90554 0.29143 0.92977 0.0
H914 H 0.84436 0.34314 0.89226 0.0
H915 H 0.90371 0.25728 0.82267 0.0
H916 H 0.93276 0.2894 0.79586 0.0
O917 O 0.90229 0.41667 0.86009 0.0
C918 C 0.85201 0.44851 0.8284 0.0
C919 C 0.92285 0.3469 0.80652 0.0
C920 C 0.90505 0.28856 0.82211 0.0
N921 N 0.89218 0.35071 0.83589 0.0
C922 C 0.90799 0.36862 0.82111 0.0
C923 C 0.89047 0.31121 0.83644 0.0
C924 C 0.92135 0.3066 0.80707 0.0
C925 C 0.8001 0.44116 0.8923 0.0
N926 N 0.81168 0.46596 0.87796 0.0
C927 C 0.77287 0.43762 0.89313 0.0
C928 C 0.7575 0.45971 0.87916 0.0
C929 C 0.76947 0.48498 0.86459 0.0
C930 C 0.79675 0.4877 0.86419 0.0
C931 C 0.83284 0.58338 0.89462 0.0
C932 C 0.86265 0.54623 0.86346 0.0
C933 C 0.83372 0.54299 0.89344 0.0
N934 N 0.84838 0.52496 0.87791 0.0
C935 C 0.86226 0.58667 0.86415 0.0
C936 C 0.84721 0.60529 0.87984 0.0
C937 C 0.90647 0.45037 0.86783 0.0
C938 C 0.87271 0.31552 0.91259 0.0
C939 C 0.90907 0.34321 0.88314 0.0
C940 C 0.91756 0.32181 0.901 0.0
C941 C 0.89922 0.30795 0.91582 0.0
N942 N 0.88303 0.35052 0.88009 0.0
C943 C 0.86492 0.33696 0.89452 0.0
H944 H 0.38602 0.10659 0.44786 0.0
H945 H 0.34397 0.99806 0.44605 0.0
H946 H 0.38531 0.10532 0.48718 0.0
H947 H 0.34421 0.9958 0.48558 0.0
H948 H 0.32791 0.02241 0.55707 0.0
H949 H 0.32682 0.02367 0.51756 0.0
H950 H 0.40444 0.07372 0.51676 0.0
H951 H 0.40497 0.07398 0.5561 0.0
C952 C 0.37682 0.08222 0.45589 0.0
C953 C 0.36517 0.05232 0.44384 0.0
C954 C 0.37655 0.08135 0.4785 0.0
C955 C 0.36493 0.05025 0.48969 0.0
C956 C 0.35307 0.02045 0.47758 0.0
C957 C 0.35306 0.02159 0.45491 0.0
C958 C 0.34472 0.03366 0.54841 0.0
C959 C 0.36648 0.04825 0.55971 0.0
C960 C 0.34417 0.03419 0.52573 0.0
C961 C 0.36549 0.04897 0.51385 0.0
C962 C 0.3874 0.06293 0.52527 0.0
C963 C 0.38781 0.06282 0.54789 0.0
H964 H 0.65083 0.99619 0.55708 0.0
H965 H 0.61155 0.88537 0.55599 0.0
H966 H 0.65081 0.99749 0.5176 0.0
H967 H 0.61252 0.88574 0.51661 0.0
H968 H 0.59231 0.91576 0.44736 0.0
H969 H 0.59284 0.91572 0.48669 0.0
H970 H 0.66915 0.97007 0.486 0.0
H971 H 0.668 0.97161 0.44651 0.0
C972 C 0.64243 0.97192 0.54839 0.0
C973 C 0.63103 0.94081 0.55963 0.0
C974 C 0.64255 0.97253 0.52573 0.0
C975 C 0.63156 0.9418 0.5138 0.0
C976 C 0.62064 0.91035 0.52517 0.0
C977 C 0.62022 0.90999 0.54779 0.0
C978 C 0.60919 0.92777 0.45559 0.0
C979 C 0.6301 0.94373 0.44381 0.0
C980 C 0.6096 0.92749 0.4782 0.0
C981 C 0.63111 0.94267 0.48965 0.0
C982 C 0.65207 0.95862 0.4778 0.0
C983 C 0.6515 0.95933 0.45514 0.0
H984 H 0.38682 0.89296 0.0562 0.0
H985 H 0.34484 0.00154 0.05675 0.0
H986 H 0.38613 0.89285 0.01684 0.0
H987 H 0.34511 0.00241 0.01724 0.0
H988 H 0.32871 0.97404 0.94618 0.0
H989 H 0.32762 0.97358 0.98567 0.0
H990 H 0.40513 0.92323 0.98678 0.0
H991 H 0.40564 0.92217 0.94744 0.0
C992 C 0.37763 0.91703 0.04788 0.0
C993 C 0.36597 0.94734 0.05958 0.0
C994 C 0.37737 0.91711 0.02526 0.0
C995 C 0.36576 0.94779 0.01372 0.0
C996 C 0.35394 0.97803 0.0255 0.0
C997 C 0.35391 0.97768 0.04817 0.0
C998 C 0.34549 0.96287 0.9549 0.0
C999 C 0.36722 0.94802 0.94368 0.0
C1000 C 0.34495 0.9628 0.97757 0.0
C1001 C 0.36626 0.94825 0.98955 0.0
C1002 C 0.38811 0.9339 0.97821 0.0
C1003 C 0.3885 0.93354 0.95559 0.0
H1004 H 0.59218 0.08544 0.94786 0.0
H1005 H 0.6679 0.02985 0.94596 0.0
H1006 H 0.59317 0.08437 0.9872 0.0
H1007 H 0.66951 0.03031 0.98543 0.0
H1008 H 0.65203 0.00137 0.05625 0.0
H1009 H 0.65157 0.00161 0.01676 0.0
H1010 H 0.613 0.11311 0.01741 0.0
H1011 H 0.61245 0.11191 0.05679 0.0
C1012 C 0.60918 0.07331 0.95586 0.0
C1013 C 0.62994 0.05769 0.94379 0.0
C1014 C 0.60985 0.07293 0.97848 0.0
C1015 C 0.63148 0.05741 0.98962 0.0
C1016 C 0.65233 0.04195 0.97747 0.0
C1017 C 0.6515 0.04189 0.95482 0.0
C1018 C 0.64347 0.02591 0.04791 0.0
C1019 C 0.63212 0.05648 0.05961 0.0
C1020 C 0.64334 0.0262 0.02525 0.0
C1021 C 0.63215 0.05732 0.01378 0.0
C1022 C 0.62127 0.08823 0.0256 0.0
C1023 C 0.62109 0.08768 0.04822 0.0
H1024 H 0.84604 0.50015 0.558 0.0
H1025 H 0.88642 0.61006 0.55627 0.0
H1026 H 0.84601 0.49817 0.51851 0.0
H1027 H 0.88542 0.60905 0.51692 0.0
H1028 H 0.90492 0.578 0.44772 0.0
H1029 H 0.90466 0.5783 0.48706 0.0
H1030 H 0.82781 0.52563 0.48683 0.0
H1031 H 0.82867 0.52381 0.44735 0.0
C1032 C 0.85469 0.52405 0.54916 0.0
C1033 C 0.86641 0.55511 0.56023 0.0
C1034 C 0.85454 0.52307 0.5265 0.0
C1035 C 0.86582 0.55337 0.5144 0.0
C1036 C 0.87708 0.58475 0.5256 0.0
C1037 C 0.87753 0.58547 0.54821 0.0
C1038 C 0.88798 0.56643 0.45606 0.0
C1039 C 0.86683 0.55087 0.44441 0.0
C1040 C 0.88772 0.56684 0.47868 0.0
C1041 C 0.86614 0.55221 0.49025 0.0
C1042 C 0.84495 0.53664 0.47854 0.0
C1043 C 0.84535 0.53579 0.45588 0.0
H1044 H 0.09358 0.41998 0.55601 0.0
H1045 H 0.1696 0.47484 0.55704 0.0
H1046 H 0.09401 0.42067 0.51669 0.0
H1047 H 0.17063 0.474 0.51754 0.0
H1048 H 0.15246 0.5006 0.44636 0.0
H1049 H 0.15254 0.50177 0.48588 0.0
H1050 H 0.11352 0.39057 0.48679 0.0
H1051 H 0.11245 0.39036 0.44745 0.0
C1052 C 0.11051 0.43194 0.54782 0.0
C1053 C 0.13155 0.44736 0.55965 0.0
C1054 C 0.11086 0.43208 0.52521 0.0
C1055 C 0.13245 0.44712 0.5138 0.0
C1056 C 0.15351 0.46265 0.5257 0.0
C1057 C 0.153 0.46295 0.54837 0.0
C1058 C 0.14392 0.47643 0.45506 0.0
C1059 C 0.13227 0.44554 0.44381 0.0
C1060 C 0.14409 0.47697 0.47773 0.0
C1061 C 0.13289 0.44637 0.48964 0.0
C1062 C 0.12177 0.41511 0.47826 0.0
C1063 C 0.12129 0.41484 0.45565 0.0
H1064 H 0.84572 0.50012 0.94659 0.0
H1065 H 0.8862 0.3903 0.94749 0.0
H1066 H 0.84609 0.50143 0.9861 0.0
H1067 H 0.88561 0.39067 0.98684 0.0
H1068 H 0.90583 0.42061 0.05605 0.0
H1069 H 0.90517 0.42107 0.0167 0.0
H1070 H 0.82823 0.47326 0.01776 0.0
H1071 H 0.82946 0.47431 0.05724 0.0
C1072 C 0.85448 0.4761 0.95525 0.0
C1073 C 0.86611 0.44527 0.94394 0.0
C1074 C 0.85457 0.4767 0.97791 0.0
C1075 C 0.866 0.44624 0.98978 0.0
C1076 C 0.87716 0.41509 0.97834 0.0
C1077 C 0.87737 0.41474 0.95573 0.0
C1078 C 0.88878 0.43224 0.04789 0.0
C1079 C 0.8677 0.44743 0.05977 0.0
C1080 C 0.8883 0.43227 0.02527 0.0
C1081 C 0.86657 0.44698 0.01393 0.0
C1082 C 0.84546 0.46219 0.02587 0.0
C1083 C 0.84608 0.46259 0.04853 0.0
H1084 H 0.16863 0.52675 0.0567 0.0
H1085 H 0.09267 0.58165 0.0551 0.0
H1086 H 0.17004 0.52734 0.01723 0.0
H1087 H 0.09347 0.58072 0.01576 0.0
H1088 H 0.11275 0.60992 0.9464 0.0
H1089 H 0.11322 0.61022 0.98575 0.0
H1090 H 0.15218 0.49901 0.98568 0.0
H1091 H 0.1527 0.49968 0.94617 0.0
C1092 C 0.15213 0.53865 0.04791 0.0
C1093 C 0.13057 0.55426 0.05902 0.0
C1094 C 0.15285 0.53878 0.02525 0.0
C1095 C 0.1319 0.55415 0.01318 0.0
C1096 C 0.11023 0.56937 0.02441 0.0
C1097 C 0.10967 0.56968 0.04703 0.0
C1098 C 0.12143 0.58553 0.95479 0.0
C1099 C 0.13259 0.55469 0.94318 0.0
C1100 C 0.12157 0.58556 0.9774 0.0
C1101 C 0.13254 0.55448 0.98903 0.0
C1102 C 0.14386 0.5237 0.97735 0.0
C1103 C 0.14403 0.52393 0.95468 0.0
H1104 H 0.57391 0.01947 0.38136 0.0
H1105 H 0.54711 0.9121 0.35275 0.0
H1106 H 0.52901 0.04309 0.38219 0.0
H1107 H 0.50231 0.9361 0.35342 0.0
H1108 H 0.42285 0.97691 0.37976 0.0
H1109 H 0.46773 0.9528 0.37994 0.0
H1110 H 0.49511 0.06324 0.3561 0.0
H1111 H 0.45047 0.08763 0.3561 0.0
C1112 C 0.55851 0.00089 0.37523 0.0
C1113 C 0.56418 0.96383 0.36702 0.0
C1114 C 0.53279 0.01454 0.37562 0.0
C1115 C 0.51216 0.99143 0.36788 0.0
C1116 C 0.51777 0.95437 0.35974 0.0
C1117 C 0.5435 0.94074 0.35926 0.0
C1118 C 0.43843 0.99613 0.37462 0.0
C1119 C 0.43301 0.03427 0.36798 0.0
C1120 C 0.46411 0.98221 0.37461 0.0
C1121 C 0.48491 0.00616 0.36805 0.0
C1122 C 0.47952 0.04428 0.3615 0.0
C1123 C 0.45388 0.05815 0.36141 0.0
H1124 H 0.42887 0.00211 0.10757 0.0
H1125 H 0.44416 0.93801 0.16636 0.0
H1126 H 0.4743 0.0251 0.10744 0.0
H1127 H 0.48926 0.96196 0.16644 0.0
H1128 H 0.55466 0.06087 0.16806 0.0
H1129 H 0.5092 0.03823 0.16787 0.0
H1130 H 0.52193 0.98314 0.10606 0.0
H1131 H 0.56763 0.00475 0.1064 0.0
C1132 C 0.44186 0.99317 0.1205 0.0
C1133 C 0.43303 0.96827 0.13697 0.0
C1134 C 0.46777 0.00618 0.12036 0.0
C1135 C 0.48501 0.99525 0.13695 0.0
C1136 C 0.47616 0.9708 0.15355 0.0
C1137 C 0.45046 0.95704 0.15342 0.0
C1138 C 0.54776 0.04394 0.15444 0.0
C1139 C 0.56466 0.03442 0.13728 0.0
C1140 C 0.52186 0.03096 0.15439 0.0
C1141 C 0.5123 0.00911 0.13694 0.0
C1142 C 0.52898 0.0001 0.11962 0.0
C1143 C 0.55506 0.01228 0.1199 0.0
H1144 H 0.55253 0.93289 0.66769 0.0
H1145 H 0.56552 0.99062 0.60649 0.0
H1146 H 0.50709 0.95552 0.6677 0.0
H1147 H 0.51981 0.0122 0.60633 0.0
H1148 H 0.42649 0.99371 0.60822 0.0
H1149 H 0.4717 0.96975 0.60785 0.0
H1150 H 0.48783 0.0329 0.66664 0.0
H1151 H 0.44298 0.05783 0.66678 0.0
C1152 C 0.54563 0.95014 0.65419 0.0
C1153 C 0.56254 0.96014 0.63712 0.0
C1154 C 0.51973 0.96309 0.65425 0.0
C1155 C 0.51018 0.98541 0.637 0.0
C1156 C 0.52686 0.99486 0.61974 0.0
C1157 C 0.55294 0.98269 0.61991 0.0
C1158 C 0.43968 0.00237 0.62108 0.0
C1159 C 0.43127 0.02761 0.63753 0.0
C1160 C 0.46546 0.98882 0.62079 0.0
C1161 C 0.48298 -0.00045 0.63724 0.0
C1162 C 0.47452 0.02422 0.65386 0.0
C1163 C 0.44896 0.03852 0.65387 0.0
H1164 H 0.55279 0.06444 0.83538 0.0
H1165 H 0.56643 0.00703 0.89656 0.0
H1166 H 0.50753 0.04102 0.83549 0.0
H1167 H 0.52088 0.98463 0.89684 0.0
H1168 H 0.42738 0.00254 0.89518 0.0
H1169 H 0.47257 0.02663 0.89547 0.0
H1170 H 0.4886 0.96353 0.83665 0.0
H1171 H 0.44378 0.93847 0.83658 0.0
C1172 C 0.54607 0.04705 0.84888 0.0
C1173 C 0.56311 0.0374 0.86593 0.0
C1174 C 0.52028 0.03365 0.84889 0.0
C1175 C 0.51095 0.01123 0.86619 0.0
C1176 C 0.52776 0.00205 0.8834 0.0
C1177 C 0.55375 0.01466 0.88315 0.0
C1178 C 0.44055 0.9939 0.8823 0.0
C1179 C 0.43212 0.96866 0.86586 0.0
C1180 C 0.46633 0.00751 0.88255 0.0
C1181 C 0.4838 0.99684 0.86607 0.0
C1182 C 0.47532 0.97214 0.84946 0.0
C1183 C 0.44978 0.95778 0.84949 0.0
H1184 H 0.94213 0.55706 0.33565 0.0
H1185 H 0.92825 0.4982 0.39637 0.0
H1186 H 0.98741 0.53383 0.33575 0.0
H1187 H 0.97381 0.47594 0.39664 0.0
H1188 H 0.06678 0.49633 0.3965 0.0
H1189 H 0.02106 0.51789 0.39659 0.0
H1190 H 0.00792 0.45849 0.33608 0.0
H1191 H 0.05335 0.43596 0.33617 0.0
C1192 C 0.94878 0.53929 0.34902 0.0
C1193 C 0.9317 0.52931 0.36598 0.0
C1194 C 0.97458 0.52597 0.34902 0.0
C1195 C 0.98387 0.50326 0.36622 0.0
C1196 C 0.96696 0.49354 0.38327 0.0
C1197 C 0.94096 0.50609 0.38304 0.0
C1198 C 0.05411 0.48787 0.38323 0.0
C1199 C 0.06357 0.4645 0.36632 0.0
C1200 C 0.02803 0.50004 0.38336 0.0
C1201 C 0.01122 0.48976 0.36634 0.0
C1202 C 0.02067 0.46676 0.34933 0.0
C1203 C 0.04656 0.45384 0.34944 0.0
H1204 H 0.06757 0.50343 0.10725 0.0
H1205 H 0.05461 0.56204 0.16818 0.0
H1206 H 0.02198 0.48123 0.10739 0.0
H1207 H 0.0093 0.53888 0.16848 0.0
H1208 H 0.94352 0.44029 0.16856 0.0
H1209 H 0.98873 0.46388 0.16846 0.0
H1210 H 0.97477 0.52237 0.1078 0.0
H1211 H 0.92929 0.49974 0.10808 0.0
C1212 C 0.05504 0.51133 0.12071 0.0
C1213 C 0.06459 0.53443 0.13771 0.0
C1214 C 0.02903 0.49881 0.12071 0.0
C1215 C 0.01236 0.50844 0.13795 0.0
C1216 C 0.02192 0.53109 0.15507 0.0
C1217 C 0.04774 0.54438 0.15483 0.0
C1218 C 0.95007 0.45828 0.15524 0.0
C1219 C 0.93291 0.4683 0.13835 0.0
C1220 C 0.97584 0.4718 0.15524 0.0
C1221 C 0.98502 0.49477 0.13811 0.0
C1222 C 0.96802 0.50456 0.12113 0.0
C1223 C 0.94206 0.4918 0.12137 0.0
H1224 H 0.95182 0.58908 0.64853 0.0
H1225 H 0.92468 0.4796 0.62279 0.0
H1226 H 0.99659 0.56505 0.64812 0.0
H1227 H 0.9696 0.45592 0.62216 0.0
H1228 H 0.07593 0.52236 0.62296 0.0
H1229 H 0.03107 0.54637 0.62223 0.0
H1230 H 0.00371 0.43761 0.64839 0.0
H1231 H 0.04837 0.41328 0.64891 0.0
C1232 C 0.95536 0.55998 0.64267 0.0
C1233 C 0.93458 0.53629 0.63569 0.0
C1234 C 0.98108 0.54631 0.64233 0.0
C1235 C 0.98661 0.50862 0.6351 0.0
C1236 C 0.9659 0.48497 0.62805 0.0
C1237 C 0.94017 0.49865 0.6283 0.0
C1238 C 0.06037 0.50349 0.62852 0.0
C1239 C 0.06582 0.46583 0.63594 0.0
C1240 C 0.03468 0.51736 0.6282 0.0
C1241 C 0.01387 0.49385 0.63522 0.0
C1242 C 0.01929 0.45621 0.6426 0.0
C1243 C 0.04495 0.44238 0.643 0.0
H1244 H 0.04808 0.58692 0.85476 0.0
H1245 H 0.07513 0.47768 0.88082 0.0
H1246 H 0.00326 0.56307 0.85548 0.0
H1247 H 0.03017 0.45418 0.88176 0.0
H1248 H 0.95089 0.41178 0.85558 0.0
H1249 H 0.9957 0.43566 0.85587 0.0
H1250 H 0.96904 0.54499 0.88174 0.0
H1251 H 0.92406 0.52146 0.88123 0.0
C1252 C 0.04452 0.55791 0.86075 0.0
C1253 C 0.06528 0.53425 0.86775 0.0
C1254 C 0.01877 0.54434 0.86126 0.0
C1255 C 0.0132 0.50678 0.8687 0.0
C1256 C 0.0339 0.48313 0.87573 0.0
C1257 C 0.05966 0.49671 0.87529 0.0
C1258 C 0.95451 0.4409 0.8614 0.0
C1259 C 0.9338 0.46467 0.8684 0.0
C1260 C 0.98025 0.45448 0.86166 0.0
C1261 C 0.98589 0.49217 0.86884 0.0
C1262 C 0.96525 0.51594 0.8759 0.0
C1263 C 0.9395 0.50233 0.87571 0.0
H1264 H 0.23227 0.36344 0.33672 0.0
H1265 H 0.175 0.28008 0.35877 0.0
H1266 H 0.2653 0.31257 0.33543 0.0
H1267 H 0.20817 0.22962 0.35827 0.0
H1268 H 0.26703 0.13991 0.33602 0.0
H1269 H 0.23405 0.19085 0.33469 0.0
H1270 H 0.29077 0.27314 0.35894 0.0
H1271 H 0.3239 0.22265 0.35948 0.0
C1272 C 0.22678 0.3343 0.34138 0.0
C1273 C 0.20104 0.32576 0.3478 0.0
C1274 C 0.24574 0.30516 0.34076 0.0
C1275 C 0.23942 0.26695 0.34676 0.0
C1276 C 0.21363 0.25853 0.35317 0.0
C1277 C 0.19464 0.28755 0.3536 0.0
C1278 C 0.27246 0.16893 0.34096 0.0
C1279 C 0.29806 0.17727 0.3478 0.0
C1280 C 0.25352 0.1981 0.34033 0.0
C1281 C 0.25972 0.23614 0.34674 0.0
C1282 C 0.2854 0.24438 0.35353 0.0
C1283 C 0.30437 0.21533 0.35397 0.0
H1284 H 0.67335 0.77735 0.3381 0.0
H1285 H 0.73205 0.85942 0.35891 0.0
H1286 H 0.70627 0.72644 0.33709 0.0
H1287 H 0.76479 0.80819 0.35901 0.0
H1288 H 0.82301 0.71644 0.33874 0.0
H1289 H 0.79026 0.76755 0.33712 0.0
H1290 H 0.73143 0.68697 0.35981 0.0
H1291 H 0.76399 0.63553 0.36033 0.0
C1292 C 0.69331 0.7844 0.34258 0.0
C1293 C 0.70018 0.82231 0.34855 0.0
C1294 C 0.71216 0.75517 0.34217 0.0
C1295 C 0.73824 0.76302 0.34808 0.0
C1296 C 0.74505 0.80112 0.35398 0.0
C1297 C 0.72626 0.8305 0.35404 0.0
C1298 C 0.80303 0.7097 0.34329 0.0
C1299 C 0.79601 0.67203 0.3496 0.0
C1300 C 0.78427 0.73905 0.34251 0.0
C1301 C 0.75813 0.73154 0.34838 0.0
C1302 C 0.75121 0.69374 0.35476 0.0
C1303 C 0.7699 0.66425 0.35519 0.0
H1304 H 0.17398 0.72075 0.16461 0.0
H1305 H 0.23306 0.63984 0.14324 0.0
H1306 H 0.2067 0.77196 0.16613 0.0
H1307 H 0.26559 0.69138 0.14365 0.0
H1308 H 0.26481 0.86403 0.14448 0.0
H1309 H 0.23215 0.81264 0.14431 0.0
H1310 H 0.29078 0.73111 0.16618 0.0
H1311 H 0.32361 0.78218 0.16524 0.0
C1312 C 0.19397 0.71402 0.16008 0.0
C1313 C 0.20101 0.67632 0.15386 0.0
C1314 C 0.21272 0.74344 0.1608 0.0
C1315 C 0.23887 0.73598 0.15496 0.0
C1316 C 0.24581 0.69814 0.14868 0.0
C1317 C 0.22713 0.66858 0.14831 0.0
C1318 C 0.27064 0.83513 0.14932 0.0
C1319 C 0.29674 0.82706 0.15483 0.0
C1320 C 0.2519 0.80564 0.14934 0.0
C1321 C 0.25875 0.76755 0.15522 0.0
C1322 C 0.28484 0.75982 0.16112 0.0
C1323 C 0.30366 0.78916 0.16075 0.0
H1324 H 0.67621 0.21635 0.16653 0.0
H1325 H 0.73455 0.13514 0.14413 0.0
H1326 H 0.70898 0.26746 0.16729 0.0
H1327 H 0.76716 0.18665 0.14383 0.0
H1328 H 0.76565 0.35947 0.14387 0.0
H1329 H 0.7334 0.30758 0.14433 0.0
H1330 H 0.79306 0.22718 0.16559 0.0
H1331 H 0.82549 0.27881 0.16406 0.0
C1332 C 0.69606 0.20952 0.16164 0.0
C1333 C 0.70286 0.17179 0.1553 0.0
C1334 C 0.71483 0.23889 0.16192 0.0
C1335 C 0.74077 0.23138 0.15549 0.0
C1336 C 0.74753 0.19345 0.14923 0.0
C1337 C 0.72882 0.16391 0.1493 0.0
C1338 C 0.77182 0.3307 0.14868 0.0
C1339 C 0.79806 0.32316 0.15392 0.0
C1340 C 0.75331 0.30093 0.14907 0.0
C1341 C 0.76053 0.26307 0.15507 0.0
C1342 C 0.78682 0.25575 0.16052 0.0
C1343 C 0.80541 0.2854 0.15979 0.0
H1344 H 0.67466 0.77954 0.66731 0.0
H1345 H 0.73287 0.8613 0.64525 0.0
H1346 H 0.70786 0.72914 0.66916 0.0
H1347 H 0.76592 0.8105 0.64599 0.0
H1348 H 0.76633 0.63798 0.64695 0.0
H1349 H 0.73329 0.68875 0.64722 0.0
H1350 H 0.79165 0.77134 0.66842 0.0
H1351 H 0.82486 0.72086 0.66704 0.0
C1352 C 0.69457 0.78663 0.66272 0.0
C1353 C 0.70121 0.82432 0.65616 0.0
C1354 C 0.71359 0.75767 0.66363 0.0
C1355 C 0.73963 0.76556 0.65763 0.0
C1356 C 0.74622 0.80343 0.65112 0.0
C1357 C 0.72725 0.83256 0.65056 0.0
C1358 C 0.77202 0.66696 0.65177 0.0
C1359 C 0.79815 0.67551 0.65693 0.0
C1360 C 0.75305 0.6961 0.65204 0.0
C1361 C 0.75972 0.73431 0.65783 0.0
C1362 C 0.78584 0.74251 0.66345 0.0
C1363 C 0.80487 0.71352 0.66282 0.0
H1364 H 0.23317 0.36108 0.64458 0.0
H1365 H 0.17469 0.27897 0.66572 0.0
H1366 H 0.26603 0.31004 0.64466 0.0
H1367 H 0.20774 0.22826 0.66695 0.0
H1368 H 0.26537 0.13721 0.64397 0.0
H1369 H 0.2328 0.18857 0.64449 0.0
H1370 H 0.29184 0.26964 0.66625 0.0
H1371 H 0.32463 0.21853 0.66458 0.0
C1372 C 0.22746 0.3322 0.64958 0.0
C1373 C 0.20139 0.32393 0.65509 0.0
C1374 C 0.24633 0.30292 0.64974 0.0
C1375 C 0.23963 0.26485 0.65578 0.0
C1376 C 0.21357 0.25695 0.66175 0.0
C1377 C 0.19463 0.28608 0.66122 0.0
C1378 C 0.27133 0.16601 0.64891 0.0
C1379 C 0.29751 0.17391 0.65422 0.0
C1380 C 0.25263 0.19548 0.64935 0.0
C1381 C 0.25958 0.2334 0.65548 0.0
C1382 C 0.2858 0.24104 0.66106 0.0
C1383 C 0.3046 0.2117 0.66025 0.0
H1384 H 0.67323 0.22217 0.83701 0.0
H1385 H 0.73179 0.14041 0.85835 0.0
H1386 H 0.70634 0.27283 0.83529 0.0
H1387 H 0.7647 0.19138 0.85774 0.0
H1388 H 0.82345 0.28104 0.83665 0.0
H1389 H 0.79014 0.23069 0.83521 0.0
H1390 H 0.73209 0.31309 0.85713 0.0
H1391 H 0.76525 0.36379 0.85744 0.0
C1392 C 0.69319 0.21513 0.84148 0.0
C1393 C 0.69997 0.17736 0.84777 0.0
C1394 C 0.71216 0.24423 0.84064 0.0
C1395 C 0.73827 0.23636 0.84643 0.0
C1396 C 0.74495 0.19844 0.85275 0.0
C1397 C 0.72606 0.16921 0.85323 0.0
C1398 C 0.80351 0.28838 0.84101 0.0
C1399 C 0.79691 0.3263 0.84713 0.0
C1400 C 0.78442 0.25945 0.84036 0.0
C1401 C 0.75837 0.26762 0.84619 0.0
C1402 C 0.75181 0.30577 0.85216 0.0
C1403 C 0.77083 0.33485 0.85246 0.0
H1404 H 0.17574 0.71768 0.83548 0.0
H1405 H 0.23362 0.63533 0.85734 0.0
H1406 H 0.20897 0.76816 0.83446 0.0
H1407 H 0.26668 0.68617 0.85745 0.0
H1408 H 0.32572 0.77784 0.83836 0.0
H1409 H 0.29293 0.72673 0.83615 0.0
H1410 H 0.23358 0.80757 0.8575 0.0
H1411 H 0.26616 0.85892 0.85857 0.0
C1412 C 0.19559 0.71046 0.84016 0.0
C1413 C 0.20213 0.67263 0.84648 0.0
C1414 C 0.21463 0.73946 0.83974 0.0
C1415 C 0.24056 0.73146 0.84603 0.0
C1416 C 0.24707 0.69337 0.85215 0.0
C1417 C 0.2281 0.6642 0.8522 0.0
C1418 C 0.30562 0.78462 0.84248 0.0
C1419 C 0.29845 0.82234 0.84856 0.0
C1420 C 0.28682 0.75528 0.84136 0.0
C1421 C 0.26052 0.76287 0.84665 0.0
C1422 C 0.25348 0.80072 0.85284 0.0
C1423 C 0.27219 0.83018 0.8536 0.0
H1424 H 0.3303 0.98513 0.31472 0.0
H1425 H 0.36379 0.09178 0.29054 0.0
H1426 H 0.32624 0.96124 0.27777 0.0
H1427 H 0.36041 0.06738 0.25371 0.0
H1428 H 0.33467 0.02443 0.18784 0.0
H1429 H 0.33135 0.04976 0.22463 0.0
H1430 H 0.35501 0.93849 0.25 0.0
H1431 H 0.35762 0.91292 0.2135 0.0
C1432 C 0.33673 0.00357 0.30156 0.0
C1433 C 0.34749 0.04035 0.30569 0.0
C1434 C 0.33452 0.98976 0.28034 0.0
C1435 C 0.34314 0.01225 0.26273 0.0
C1436 C 0.35325 0.04943 0.26682 0.0
C1437 C 0.35534 0.06334 0.28802 0.0
C1438 C 0.33888 0.00524 0.20127 0.0
C1439 C 0.34648 0.96662 0.19762 0.0
C1440 C 0.33714 0.01985 0.22238 0.0
C1441 C 0.343 0.99623 0.24032 0.0
C1442 C 0.34996 0.9574 0.23664 0.0
C1443 C 0.35162 0.94277 0.21561 0.0
H1444 H 0.66781 0.08359 0.21057 0.0
H1445 H 0.63858 0.97261 0.18929 0.0
H1446 H 0.67185 0.05892 0.24733 0.0
H1447 H 0.6409 0.94846 0.22622 0.0
H1448 H 0.64356 0.02084 0.31401 0.0
H1449 H 0.64654 0.04395 0.27696 0.0
H1450 H 0.66528 0.92791 0.25545 0.0
H1451 H 0.66056 0.90459 0.29245 0.0
C1452 C 0.66221 0.05387 0.2138 0.0
C1453 C 0.65279 0.03006 0.19708 0.0
C1454 C 0.66429 0.03975 0.23495 0.0
C1455 C 0.65639 0.00173 0.24002 0.0
C1456 C 0.64759 0.97767 0.22306 0.0
C1457 C 0.64609 0.99155 0.20182 0.0
C1458 C 0.6485 0.00035 0.30138 0.0
C1459 C 0.65161 0.96086 0.30613 0.0
C1460 C 0.65041 0.01363 0.28005 0.0
C1461 C 0.65607 0.98788 0.26296 0.0
C1462 C 0.66025 0.94856 0.26796 0.0
C1463 C 0.65776 0.93516 0.28924 0.0
H1464 H 0.66236 0.09116 0.7919 0.0
H1465 H 0.64002 0.97736 0.81428 0.0
H1466 H 0.66646 0.06643 0.75515 0.0
H1467 H 0.64248 0.95298 0.77744 0.0
H1468 H 0.66318 0.91022 0.71131 0.0
H1469 H 0.66761 0.93512 0.74799 0.0
H1470 H 0.64097 0.04748 0.72611 0.0
H1471 H 0.63818 0.023 0.68929 0.0
C1472 C 0.65829 0.06082 0.78893 0.0
C1473 C 0.65078 0.03623 0.80597 0.0
C1474 C 0.66041 0.04664 0.7678 0.0
C1475 C 0.65454 0.00769 0.76308 0.0
C1476 C 0.64762 0.98296 0.78032 0.0
C1477 C 0.64603 0.99698 0.80152 0.0
C1478 C 0.65856 0.94037 0.71435 0.0
C1479 C 0.65023 0.96462 0.69743 0.0
C1480 C 0.66089 0.95463 0.73545 0.0
C1481 C 0.6544 0.99332 0.74026 0.0
C1482 C 0.6466 0.01774 0.72313 0.0
C1483 C 0.64481 0.00365 0.70196 0.0
H1484 H 0.33004 0.01793 0.81529 0.0
H1485 H 0.35833 0.90889 0.78997 0.0
H1486 H 0.32542 0.04242 0.77844 0.0
H1487 H 0.35444 0.93374 0.75337 0.0
H1488 H 0.32951 0.97829 0.68818 0.0
H1489 H 0.32536 0.95378 0.72507 0.0
H1490 H 0.35406 0.06284 0.74991 0.0
H1491 H 0.35749 0.0877 0.71329 0.0
C1492 C 0.33515 0.99909 0.80191 0.0
C1493 C 0.34468 0.96147 0.80568 0.0
C1494 C 0.33264 0.01322 0.78077 0.0
C1495 C 0.33968 0.99015 0.76289 0.0
C1496 C 0.34847 0.95217 0.76668 0.0
C1497 C 0.35088 0.93799 0.78776 0.0
C1498 C 0.33464 0.99721 0.70152 0.0
C1499 C 0.34397 0.03493 0.69768 0.0
C1500 C 0.3324 0.98307 0.72268 0.0
C1501 C 0.33952 0.00623 0.7405 0.0
C1502 C 0.34806 0.04433 0.73666 0.0
C1503 C 0.35019 0.05851 0.71555 0.0
H1504 H 0.83222 0.40881 0.21051 0.0
H1505 H 0.85483 0.52369 0.19015 0.0
H1506 H 0.82713 0.43181 0.24753 0.0
H1507 H 0.85142 0.54635 0.22729 0.0
H1508 H 0.83043 0.58618 0.2937 0.0
H1509 H 0.82599 0.56286 0.25669 0.0
H1510 H 0.85184 0.44927 0.27722 0.0
H1511 H 0.85458 0.47221 0.31435 0.0
C1512 C 0.83613 0.43903 0.21399 0.0
C1513 C 0.84402 0.46442 0.19745 0.0
C1514 C 0.83343 0.45221 0.23528 0.0
C1515 C 0.83913 0.49095 0.24066 0.0
C1516 C 0.8464 0.51651 0.22389 0.0
C1517 C 0.84853 0.50348 0.20252 0.0
C1518 C 0.8348 0.55608 0.29028 0.0
C1519 C 0.84295 0.53105 0.3069 0.0
C1520 C 0.83249 0.54273 0.269 0.0
C1521 C 0.83887 0.5042 0.2637 0.0
C1522 C 0.84633 0.47894 0.28055 0.0
C1523 C 0.84807 0.49212 0.30192 0.0
H1524 H 0.16329 0.41068 0.29245 0.0
H1525 H 0.13942 0.52459 0.31349 0.0
H1526 H 0.16813 0.43453 0.25558 0.0
H1527 H 0.14263 0.54806 0.27649 0.0
H1528 H 0.16473 0.58979 0.21055 0.0
H1529 H 0.16851 0.56572 0.24746 0.0
H1530 H 0.14349 0.45234 0.22586 0.0
H1531 H 0.14136 0.47602 0.18886 0.0
C1532 C 0.15899 0.44084 0.28915 0.0
C1533 C 0.15088 0.46573 0.30585 0.0
C1534 C 0.16157 0.45452 0.26795 0.0
C1535 C 0.15555 0.49325 0.26281 0.0
C1536 C 0.14792 0.51826 0.27971 0.0
C1537 C 0.14588 0.50475 0.30099 0.0
C1538 C 0.16038 0.55959 0.21371 0.0
C1539 C 0.15266 0.53483 0.19682 0.0
C1540 C 0.16232 0.5458 0.23493 0.0
C1541 C 0.15601 0.50708 0.23989 0.0
C1542 C 0.14894 0.48214 0.22279 0.0
C1543 C 0.14755 0.49576 0.2015 0.0
H1544 H 0.13757 0.5881 0.78959 0.0
H1545 H 0.16581 0.47914 0.81507 0.0
H1546 H 0.14086 0.56267 0.75304 0.0
H1547 H 0.16971 0.45406 0.7783 0.0
H1548 H 0.13781 0.4086 0.71306 0.0
H1549 H 0.14066 0.43376 0.74971 0.0
H1550 H 0.17055 0.54219 0.72499 0.0
H1551 H 0.1671 0.51741 0.68814 0.0
C1552 C 0.14483 0.55887 0.78743 0.0
C1553 C 0.15129 0.53564 0.80538 0.0
C1554 C 0.14688 0.54436 0.76638 0.0
C1555 C 0.15552 0.50628 0.76269 0.0
C1556 C 0.16264 0.48335 0.78058 0.0
C1557 C 0.16054 0.49783 0.80168 0.0
C1558 C 0.14523 0.43771 0.71537 0.0
C1559 C 0.15207 0.46102 0.69755 0.0
C1560 C 0.14701 0.45207 0.73648 0.0
C1561 C 0.15575 0.49006 0.74034 0.0
C1562 C 0.16336 0.51299 0.72257 0.0
C1563 C 0.16152 0.49867 0.70143 0.0
H1564 H 0.834 0.4822 0.68869 0.0
H1565 H 0.86329 0.59074 0.71397 0.0
H1566 H 0.83033 0.45714 0.72545 0.0
H1567 H 0.86022 0.56529 0.75056 0.0
H1568 H 0.83387 0.51981 0.81561 0.0
H1569 H 0.83067 0.54507 0.77884 0.0
H1570 H 0.85955 0.43634 0.75376 0.0
H1571 H 0.86214 0.41073 0.79032 0.0
C1572 C 0.83957 0.50081 0.70205 0.0
C1573 C 0.84903 0.53849 0.69829 0.0
C1574 C 0.83759 0.48633 0.72314 0.0
C1575 C 0.84509 0.50911 0.74099 0.0
C1576 C 0.85394 0.5471 0.73725 0.0
C1577 C 0.85585 0.56162 0.71619 0.0
C1578 C 0.8393 0.50113 0.80225 0.0
C1579 C 0.84835 0.46323 0.80601 0.0
C1580 C 0.8376 0.51572 0.78116 0.0
C1581 C 0.84496 0.49281 0.76332 0.0
C1582 C 0.85338 0.45463 0.76706 0.0
C1583 C 0.85502 0.44001 0.78811 0.0
loop_
_geom_bond_atom_site_label_1
_geom_bond_atom_site_label_2
_geom_bond_distance
_geom_bond_site_symmetry_2
_ccdc_geom_bond_type
Co0 O2 2.143 . S
Co0 O8 2.074 . S
Co0 O11 2.093 . S
Co0 O24 2.097 . S
Co0 N41 2.151 1_545 S
Co0 N49 2.214 1_545 S
Co1 O2 2.160 . S
Co1 O7 2.058 . S
Co1 O17 2.057 . S
Co1 O32 2.037 . S
Co1 N36 2.145 . S
Co1 N57 2.257 . S
O2 Co0 2.143 . S
O2 Co1 2.160 . S
C3 O4 1.278 . S
C3 O11 1.224 . S
O4 C3 1.278 . S
C5 O6 1.245 . S
C5 O17 1.232 . S
O6 C5 1.245 . S
O7 Co1 2.058 . S
O7 C33 1.269 . S
O8 Co0 2.074 . S
O8 C33 1.265 . S
H9 C34 0.930 . S
H10 C40 0.930 1_545 S
O11 Co0 2.093 . S
O11 C3 1.224 . S
H12 C44 0.929 . S
H13 C46 0.930 . S
H14 C47 0.930 . S
H15 C45 0.929 . S
H16 C48 0.928 . S
O17 Co1 2.057 . S
O17 C5 1.232 . S
H18 C37 0.929 . S
H19 C38 0.929 . S
H20 C50 0.931 . S
H21 C42 0.929 . S
H22 C51 0.930 . S
H23 C43 0.931 . S
O24 Co0 2.097 . S
O24 C52 1.214 . S
H25 C53 0.929 . S
H26 C54 0.929 . S
H27 C55 0.930 . S
H28 C56 0.929 . S
H29 C58 0.930 . S
H30 C35 0.930 . S
H31 C39 0.930 . S
O32 Co1 2.037 . S
O32 C52 1.234 . S
C33 O7 1.269 . S
C33 O8 1.265 . S
C34 H9 0.930 . S
C34 C37 1.388 . S
C34 C39 1.418 . S
C35 H30 0.930 . S
C35 C38 1.404 . S
C35 C39 1.353 . S
N36 Co1 2.145 . S
N36 C37 1.397 . S
N36 C38 1.334 . S
C37 H18 0.929 . S
C37 C34 1.388 . S
C37 N36 1.397 . S
C38 H19 0.929 . S
C38 C35 1.404 . S
C38 N36 1.334 . S
C39 H31 0.930 . S
C39 C34 1.418 . S
C39 C35 1.353 . S
C40 H10 0.930 1_565 S
C40 N41 1.330 . S
C40 C42 1.446 . S
N41 Co0 2.151 1_565 S
N41 C40 1.330 . S
N41 C45 1.418 . S
C42 H21 0.929 . S
C42 C40 1.446 . S
C42 C43 1.332 . S
C43 H23 0.931 . S
C43 C42 1.332 . S
C43 C44 1.267 . S
C44 H12 0.929 . S
C44 C43 1.267 . S
C44 C45 1.251 . S
C45 H15 0.929 . S
C45 N41 1.418 . S
C45 C44 1.251 . S
C46 H13 0.930 . S
C46 C48 1.406 . S
C46 C51 1.261 . S
C47 H14 0.930 . S
C47 N49 1.325 . S
C47 C50 1.357 . S
C48 H16 0.928 . S
C48 C46 1.406 . S
C48 N49 1.261 . S
N49 Co0 2.214 1_565 S
N49 C47 1.325 . S
N49 C48 1.261 . S
C50 H20 0.931 . S
C50 C47 1.357 . S
C50 C51 1.312 . S
C51 H22 0.930 . S
C51 C46 1.261 . S
C51 C50 1.312 . S
C52 O24 1.214 . S
C52 O32 1.234 . S
C53 H25 0.929 . S
C53 C56 1.391 . S
C53 C58 1.391 . S
C54 H26 0.929 . S
C54 C55 1.390 . S
C54 N57 1.391 . S
C55 H27 0.930 . S
C55 C54 1.390 . S
C55 C56 1.392 . S
C56 H28 0.929 . S
C56 C53 1.391 . S
C56 C55 1.392 . S
N57 Co1 2.257 . S
N57 C54 1.391 . S
N57 C58 1.388 . S
C58 H29 0.930 . S
C58 C53 1.391 . S
C58 N57 1.388 . S
Co59 O61 2.143 . S
Co59 O67 2.074 . S
Co59 O70 2.093 . S
Co59 O83 2.097 . S
Co59 N100 2.151 1_565 S
Co59 N108 2.214 1_565 S
Co60 O61 2.160 . S
Co60 O66 2.058 . S
Co60 O76 2.057 . S
Co60 O91 2.037 . S
Co60 N95 2.145 . S
Co60 N116 2.257 . S
O61 Co59 2.143 . S
O61 Co60 2.160 . S
C62 O63 1.278 . S
C62 O70 1.224 . S
O63 C62 1.278 . S
C64 O65 1.245 . S
C64 O76 1.232 . S
O65 C64 1.245 . S
O66 Co60 2.058 . S
O66 C92 1.269 . S
O67 Co59 2.074 . S
O67 C92 1.264 . S
H68 C93 0.930 . S
H69 C99 0.930 1_565 S
O70 Co59 2.093 . S
O70 C62 1.224 . S
H71 C103 0.929 . S
H72 C105 0.930 . S
H73 C106 0.930 . S
H74 C104 0.929 . S
H75 C107 0.928 . S
O76 Co60 2.057 . S
O76 C64 1.232 . S
H77 C96 0.929 . S
H78 C97 0.929 . S
H79 C109 0.931 . S
H80 C101 0.929 . S
H81 C110 0.930 . S
H82 C102 0.931 . S
O83 Co59 2.097 . S
O83 C111 1.214 . S
H84 C112 0.929 . S
H85 C113 0.929 . S
H86 C114 0.930 . S
H87 C115 0.929 . S
H88 C117 0.930 . S
H89 C94 0.930 . S
H90 C98 0.930 . S
O91 Co60 2.037 . S
O91 C111 1.234 . S
C92 O66 1.269 . S
C92 O67 1.264 . S
C93 H68 0.930 . S
C93 C96 1.388 . S
C93 C98 1.418 . S
C94 H89 0.930 . S
C94 C97 1.404 . S
C94 C98 1.353 . S
N95 Co60 2.145 . S
N95 C96 1.397 . S
N95 C97 1.334 . S
C96 H77 0.929 . S
C96 C93 1.388 . S
C96 N95 1.397 . S
C97 H78 0.929 . S
C97 C94 1.404 . S
C97 N95 1.334 . S
C98 H90 0.930 . S
C98 C93 1.418 . S
C98 C94 1.353 . S
C99 H69 0.930 1_545 S
C99 N100 1.330 . S
C99 C101 1.446 . S
N100 Co59 2.151 1_545 S
N100 C99 1.330 . S
N100 C104 1.418 . S
C101 H80 0.929 . S
C101 C99 1.446 . S
C101 C102 1.332 . S
C102 H82 0.931 . S
C102 C101 1.332 . S
C102 C103 1.267 . S
C103 H71 0.929 . S
C103 C102 1.267 . S
C103 C104 1.251 . S
C104 H74 0.929 . S
C104 N100 1.418 . S
C104 C103 1.251 . S
C105 H72 0.930 . S
C105 C107 1.406 . S
C105 C110 1.261 . S
C106 H73 0.930 . S
C106 N108 1.325 . S
C106 C109 1.357 . S
C107 H75 0.928 . S
C107 C105 1.406 . S
C107 N108 1.261 . S
N108 Co59 2.214 1_545 S
N108 C106 1.325 . S
N108 C107 1.261 . S
C109 H79 0.931 . S
C109 C106 1.357 . S
C109 C110 1.312 . S
C110 H81 0.930 . S
C110 C105 1.261 . S
C110 C109 1.312 . S
C111 O83 1.214 . S
C111 O91 1.234 . S
C112 H84 0.929 . S
C112 C115 1.391 . S
C112 C117 1.391 . S
C113 H85 0.929 . S
C113 C114 1.390 . S
C113 N116 1.391 . S
C114 H86 0.930 . S
C114 C113 1.390 . S
C114 C115 1.392 . S
C115 H87 0.929 . S
C115 C112 1.391 . S
C115 C114 1.392 . S
N116 Co60 2.257 . S
N116 C113 1.391 . S
N116 C117 1.388 . S
C117 H88 0.930 . S
C117 C112 1.391 . S
C117 N116 1.388 . S
Co118 O120 2.143 . S
Co118 O126 2.074 . S
Co118 O129 2.093 . S
Co118 O142 2.097 . S
Co118 N159 2.151 1_565 S
Co118 N167 2.214 1_565 S
Co119 O120 2.160 . S
Co119 O125 2.058 . S
Co119 O135 2.057 . S
Co119 O150 2.037 . S
Co119 N154 2.145 . S
Co119 N175 2.257 . S
O120 Co118 2.143 . S
O120 Co119 2.160 . S
C121 O122 1.278 . S
C121 O129 1.224 . S
O122 C121 1.278 . S
C123 O124 1.245 . S
C123 O135 1.232 . S
O124 C123 1.245 . S
O125 Co119 2.058 . S
O125 C151 1.269 . S
O126 Co118 2.074 . S
O126 C151 1.265 . S
H127 C152 0.930 . S
H128 C158 0.930 1_565 S
O129 Co118 2.093 . S
O129 C121 1.224 . S
H130 C162 0.929 . S
H131 C164 0.930 . S
H132 C165 0.930 . S
H133 C163 0.929 . S
H134 C166 0.928 . S
O135 Co119 2.057 . S
O135 C123 1.232 . S
H136 C155 0.929 . S
H137 C156 0.929 . S
H138 C168 0.931 . S
H139 C160 0.929 . S
H140 C169 0.930 . S
H141 C161 0.931 . S
O142 Co118 2.097 . S
O142 C170 1.214 . S
H143 C171 0.929 . S
H144 C172 0.929 . S
H145 C173 0.930 . S
H146 C174 0.929 . S
H147 C176 0.930 . S
H148 C153 0.930 . S
H149 C157 0.930 . S
O150 Co119 2.037 . S
O150 C170 1.234 . S
C151 O125 1.269 . S
C151 O126 1.265 . S
C152 H127 0.930 . S
C152 C155 1.388 . S
C152 C157 1.418 . S
C153 H148 0.930 . S
C153 C156 1.404 . S
C153 C157 1.353 . S
N154 Co119 2.145 . S
N154 C155 1.397 . S
N154 C156 1.334 . S
C155 H136 0.929 . S
C155 C152 1.388 . S
C155 N154 1.397 . S
C156 H137 0.929 . S
C156 C153 1.404 . S
C156 N154 1.334 . S
C157 H149 0.930 . S
C157 C152 1.418 . S
C157 C153 1.353 . S
C158 H128 0.930 1_545 S
C158 N159 1.330 . S
C158 C160 1.446 . S
N159 Co118 2.151 1_545 S
N159 C158 1.330 . S
N159 C163 1.418 . S
C160 H139 0.929 . S
C160 C158 1.446 . S
C160 C161 1.332 . S
C161 H141 0.931 . S
C161 C160 1.332 . S
C161 C162 1.267 . S
C162 H130 0.929 . S
C162 C161 1.267 . S
C162 C163 1.251 . S
C163 H133 0.929 . S
C163 N159 1.418 . S
C163 C162 1.251 . S
C164 H131 0.930 . S
C164 C166 1.406 . S
C164 C169 1.261 . S
C165 H132 0.930 . S
C165 N167 1.325 . S
C165 C168 1.357 . S
C166 H134 0.928 . S
C166 C164 1.406 . S
C166 N167 1.261 . S
N167 Co118 2.214 1_545 S
N167 C165 1.325 . S
N167 C166 1.261 . S
C168 H138 0.931 . S
C168 C165 1.357 . S
C168 C169 1.312 . S
C169 H140 0.930 . S
C169 C164 1.261 . S
C169 C168 1.312 . S
C170 O142 1.214 . S
C170 O150 1.234 . S
C171 H143 0.929 . S
C171 C174 1.391 . S
C171 C176 1.391 . S
C172 H144 0.929 . S
C172 C173 1.390 . S
C172 N175 1.391 . S
C173 H145 0.930 . S
C173 C172 1.390 . S
C173 C174 1.392 . S
C174 H146 0.929 . S
C174 C171 1.391 . S
C174 C173 1.392 . S
N175 Co119 2.257 . S
N175 C172 1.391 . S
N175 C176 1.388 . S
C176 H147 0.930 . S
C176 C171 1.391 . S
C176 N175 1.388 . S
Co177 O179 2.143 . S
Co177 O185 2.074 . S
Co177 O188 2.093 . S
Co177 O201 2.097 . S
Co177 N218 2.151 1_545 S
Co177 N226 2.214 1_545 S
Co178 O179 2.160 . S
Co178 O184 2.058 . S
Co178 O194 2.057 . S
Co178 O209 2.037 . S
Co178 N213 2.145 . S
Co178 N234 2.257 . S
O179 Co177 2.143 . S
O179 Co178 2.160 . S
C180 O181 1.278 . S
C180 O188 1.224 . S
O181 C180 1.278 . S
C182 O183 1.245 . S
C182 O194 1.232 . S
O183 C182 1.245 . S
O184 Co178 2.058 . S
O184 C210 1.269 . S
O185 Co177 2.074 . S
O185 C210 1.264 . S
H186 C211 0.930 . S
H187 C217 0.930 1_545 S
O188 Co177 2.093 . S
O188 C180 1.224 . S
H189 C221 0.929 . S
H190 C223 0.930 . S
H191 C224 0.930 . S
H192 C222 0.929 . S
H193 C225 0.928 . S
O194 Co178 2.057 . S
O194 C182 1.232 . S
H195 C214 0.929 . S
H196 C215 0.929 . S
H197 C227 0.931 . S
H198 C219 0.929 . S
H199 C228 0.930 . S
H200 C220 0.931 . S
O201 Co177 2.097 . S
O201 C229 1.214 . S
H202 C230 0.929 . S
H203 C231 0.929 . S
H204 C232 0.930 . S
H205 C233 0.929 . S
H206 C235 0.930 . S
H207 C212 0.930 . S
H208 C216 0.930 . S
O209 Co178 2.037 . S
O209 C229 1.234 . S
C210 O184 1.269 . S
C210 O185 1.264 . S
C211 H186 0.930 . S
C211 C214 1.388 . S
C211 C216 1.418 . S
C212 H207 0.930 . S
C212 C215 1.404 . S
C212 C216 1.353 . S
N213 Co178 2.145 . S
N213 C214 1.397 . S
N213 C215 1.334 . S
C214 H195 0.929 . S
C214 C211 1.388 . S
C214 N213 1.397 . S
C215 H196 0.929 . S
C215 C212 1.404 . S
C215 N213 1.334 . S
C216 H208 0.930 . S
C216 C211 1.418 . S
C216 C212 1.353 . S
C217 H187 0.930 1_565 S
C217 N218 1.330 . S
C217 C219 1.446 . S
N218 Co177 2.151 1_565 S
N218 C217 1.330 . S
N218 C222 1.418 . S
C219 H198 0.929 . S
C219 C217 1.446 . S
C219 C220 1.332 . S
C220 H200 0.931 . S
C220 C219 1.332 . S
C220 C221 1.267 . S
C221 H189 0.929 . S
C221 C220 1.267 . S
C221 C222 1.251 . S
C222 H192 0.929 . S
C222 N218 1.418 . S
C222 C221 1.251 . S
C223 H190 0.930 . S
C223 C225 1.406 . S
C223 C228 1.261 . S
C224 H191 0.930 . S
C224 N226 1.325 . S
C224 C227 1.357 . S
C225 H193 0.928 . S
C225 C223 1.406 . S
C225 N226 1.261 . S
N226 Co177 2.214 1_565 S
N226 C224 1.325 . S
N226 C225 1.261 . S
C227 H197 0.931 . S
C227 C224 1.357 . S
C227 C228 1.312 . S
C228 H199 0.930 . S
C228 C223 1.261 . S
C228 C227 1.312 . S
C229 O201 1.214 . S
C229 O209 1.234 . S
C230 H202 0.929 . S
C230 C233 1.391 . S
C230 C235 1.391 . S
C231 H203 0.929 . S
C231 C232 1.390 . S
C231 N234 1.391 . S
C232 H204 0.930 . S
C232 C231 1.390 . S
C232 C233 1.392 . S
C233 H205 0.929 . S
C233 C230 1.391 . S
C233 C232 1.392 . S
N234 Co178 2.257 . S
N234 C231 1.391 . S
N234 C235 1.388 . S
C235 H206 0.930 . S
C235 C230 1.391 . S
C235 N234 1.388 . S
Co236 O238 2.143 . S
Co236 O244 2.074 . S
Co236 O247 2.093 . S
Co236 O260 2.097 . S
Co236 N277 2.151 1_565 S
Co236 N285 2.214 1_565 S
Co237 O238 2.160 . S
Co237 O243 2.058 . S
Co237 O253 2.057 . S
Co237 O268 2.037 . S
Co237 N272 2.145 . S
Co237 N293 2.257 . S
O238 Co236 2.143 . S
O238 Co237 2.160 . S
C239 O240 1.278 . S
C239 O247 1.224 . S
O240 C239 1.278 . S
C241 O242 1.245 . S
C241 O253 1.232 . S
O242 C241 1.245 . S
O243 Co237 2.058 . S
O243 C269 1.269 . S
O244 Co236 2.074 . S
O244 C269 1.265 . S
H245 C270 0.930 . S
H246 C276 0.930 1_565 S
O247 Co236 2.093 . S
O247 C239 1.224 . S
H248 C280 0.929 . S
H249 C282 0.930 . S
H250 C283 0.930 . S
H251 C281 0.929 . S
H252 C284 0.928 . S
O253 Co237 2.057 . S
O253 C241 1.232 . S
H254 C273 0.929 . S
H255 C274 0.929 . S
H256 C286 0.931 . S
H257 C278 0.929 . S
H258 C287 0.930 . S
H259 C279 0.931 . S
O260 Co236 2.097 . S
O260 C288 1.214 . S
H261 C289 0.929 . S
H262 C290 0.929 . S
H263 C291 0.930 . S
H264 C292 0.929 . S
H265 C294 0.930 . S
H266 C271 0.930 . S
H267 C275 0.930 . S
O268 Co237 2.037 . S
O268 C288 1.234 . S
C269 O243 1.269 . S
C269 O244 1.265 . S
C270 H245 0.930 . S
C270 C273 1.388 . S
C270 C275 1.418 . S
C271 H266 0.930 . S
C271 C274 1.404 . S
C271 C275 1.353 . S
N272 Co237 2.145 . S
N272 C273 1.397 . S
N272 C274 1.334 . S
C273 H254 0.929 . S
C273 C270 1.388 . S
C273 N272 1.397 . S
C274 H255 0.929 . S
C274 C271 1.404 . S
C274 N272 1.334 . S
C275 H267 0.930 . S
C275 C270 1.418 . S
C275 C271 1.353 . S
C276 H246 0.930 1_545 S
C276 N277 1.330 . S
C276 C278 1.446 . S
N277 Co236 2.151 1_545 S
N277 C276 1.330 . S
N277 C281 1.418 . S
C278 H257 0.929 . S
C278 C276 1.446 . S
C278 C279 1.332 . S
C279 H259 0.931 . S
C279 C278 1.332 . S
C279 C280 1.267 . S
C280 H248 0.929 . S
C280 C279 1.267 . S
C280 C281 1.251 . S
C281 H251 0.929 . S
C281 N277 1.418 . S
C281 C280 1.251 . S
C282 H249 0.930 . S
C282 C284 1.406 . S
C282 C287 1.261 . S
C283 H250 0.930 . S
C283 N285 1.325 . S
C283 C286 1.357 . S
C284 H252 0.928 . S
C284 C282 1.406 . S
C284 N285 1.261 . S
N285 Co236 2.214 1_545 S
N285 C283 1.325 . S
N285 C284 1.261 . S
C286 H256 0.931 . S
C286 C283 1.357 . S
C286 C287 1.312 . S
C287 H258 0.930 . S
C287 C282 1.261 . S
C287 C286 1.312 . S
C288 O260 1.214 . S
C288 O268 1.234 . S
C289 H261 0.929 . S
C289 C292 1.391 . S
C289 C294 1.391 . S
C290 H262 0.929 . S
C290 C291 1.390 . S
C290 N293 1.391 . S
C291 H263 0.930 . S
C291 C290 1.390 . S
C291 C292 1.392 . S
C292 H264 0.929 . S
C292 C289 1.391 . S
C292 C291 1.392 . S
N293 Co237 2.257 . S
N293 C290 1.391 . S
N293 C294 1.388 . S
C294 H265 0.930 . S
C294 C289 1.391 . S
C294 N293 1.388 . S
Co295 O297 2.143 . S
Co295 O303 2.074 . S
Co295 O306 2.093 . S
Co295 O319 2.097 . S
Co295 N336 2.151 1_545 S
Co295 N344 2.214 1_545 S
Co296 O297 2.160 . S
Co296 O302 2.058 . S
Co296 O312 2.057 . S
Co296 O327 2.037 . S
Co296 N331 2.145 . S
Co296 N352 2.257 . S
O297 Co295 2.143 . S
O297 Co296 2.160 . S
C298 O299 1.278 . S
C298 O306 1.224 . S
O299 C298 1.278 . S
C300 O301 1.245 . S
C300 O312 1.232 . S
O301 C300 1.245 . S
O302 Co296 2.058 . S
O302 C328 1.269 . S
O303 Co295 2.074 . S
O303 C328 1.264 . S
H304 C329 0.930 . S
H305 C335 0.930 1_545 S
O306 Co295 2.093 . S
O306 C298 1.224 . S
H307 C339 0.929 . S
H308 C341 0.930 . S
H309 C342 0.930 . S
H310 C340 0.929 . S
H311 C343 0.928 . S
O312 Co296 2.057 . S
O312 C300 1.232 . S
H313 C332 0.929 . S
H314 C333 0.929 . S
H315 C345 0.931 . S
H316 C337 0.929 . S
H317 C346 0.930 . S
H318 C338 0.931 . S
O319 Co295 2.097 . S
O319 C347 1.214 . S
H320 C348 0.929 . S
H321 C349 0.929 . S
H322 C350 0.930 . S
H323 C351 0.929 . S
H324 C353 0.930 . S
H325 C330 0.930 . S
H326 C334 0.930 . S
O327 Co296 2.037 . S
O327 C347 1.234 . S
C328 O302 1.269 . S
C328 O303 1.264 . S
C329 H304 0.930 . S
C329 C332 1.388 . S
C329 C334 1.418 . S
C330 H325 0.930 . S
C330 C333 1.404 . S
C330 C334 1.353 . S
N331 Co296 2.145 . S
N331 C332 1.397 . S
N331 C333 1.334 . S
C332 H313 0.929 . S
C332 C329 1.388 . S
C332 N331 1.397 . S
C333 H314 0.929 . S
C333 C330 1.404 . S
C333 N331 1.334 . S
C334 H326 0.930 . S
C334 C329 1.418 . S
C334 C330 1.353 . S
C335 H305 0.930 1_565 S
C335 N336 1.330 . S
C335 C337 1.446 . S
N336 Co295 2.151 1_565 S
N336 C335 1.330 . S
N336 C340 1.418 . S
C337 H316 0.929 . S
C337 C335 1.446 . S
C337 C338 1.332 . S
C338 H318 0.931 . S
C338 C337 1.332 . S
C338 C339 1.267 . S
C339 H307 0.929 . S
C339 C338 1.267 . S
C339 C340 1.251 . S
C340 H310 0.929 . S
C340 N336 1.418 . S
C340 C339 1.251 . S
C341 H308 0.930 . S
C341 C343 1.406 . S
C341 C346 1.261 . S
C342 H309 0.930 . S
C342 N344 1.325 . S
C342 C345 1.357 . S
C343 H311 0.928 . S
C343 C341 1.406 . S
C343 N344 1.261 . S
N344 Co295 2.214 1_565 S
N344 C342 1.325 . S
N344 C343 1.261 . S
C345 H315 0.931 . S
C345 C342 1.357 . S
C345 C346 1.312 . S
C346 H317 0.930 . S
C346 C341 1.261 . S
C346 C345 1.312 . S
C347 O319 1.214 . S
C347 O327 1.234 . S
C348 H320 0.929 . S
C348 C351 1.391 . S
C348 C353 1.391 . S
C349 H321 0.929 . S
C349 C350 1.390 . S
C349 N352 1.391 . S
C350 H322 0.930 . S
C350 C349 1.390 . S
C350 C351 1.392 . S
C351 H323 0.929 . S
C351 C348 1.391 . S
C351 C350 1.392 . S
N352 Co296 2.257 . S
N352 C349 1.391 . S
N352 C353 1.388 . S
C353 H324 0.930 . S
C353 C348 1.391 . S
C353 N352 1.388 . S
Co354 O356 2.143 . S
Co354 O362 2.074 . S
Co354 O365 2.093 . S
Co354 O378 2.097 . S
Co354 N395 2.151 1_545 S
Co354 N403 2.214 1_545 S
Co355 O356 2.160 . S
Co355 O361 2.058 . S
Co355 O371 2.057 . S
Co355 O386 2.037 . S
Co355 N390 2.145 . S
Co355 N411 2.257 . S
O356 Co354 2.143 . S
O356 Co355 2.160 . S
C357 O358 1.278 . S
C357 O365 1.224 . S
O358 C357 1.278 . S
C359 O360 1.245 . S
C359 O371 1.232 . S
O360 C359 1.245 . S
O361 Co355 2.058 . S
O361 C387 1.269 . S
O362 Co354 2.074 . S
O362 C387 1.265 . S
H363 C388 0.930 . S
H364 C394 0.930 1_545 S
O365 Co354 2.093 . S
O365 C357 1.224 . S
H366 C398 0.929 . S
H367 C400 0.930 . S
H368 C401 0.930 . S
H369 C399 0.929 . S
H370 C402 0.928 . S
O371 Co355 2.057 . S
O371 C359 1.232 . S
H372 C391 0.929 . S
H373 C392 0.929 . S
H374 C404 0.931 . S
H375 C396 0.929 . S
H376 C405 0.930 . S
H377 C397 0.931 . S
O378 Co354 2.097 . S
O378 C406 1.214 . S
H379 C407 0.929 . S
H380 C408 0.929 . S
H381 C409 0.930 . S
H382 C410 0.929 . S
H383 C412 0.930 . S
H384 C389 0.930 . S
H385 C393 0.930 . S
O386 Co355 2.037 . S
O386 C406 1.234 . S
C387 O361 1.269 . S
C387 O362 1.265 . S
C388 H363 0.930 . S
C388 C391 1.388 . S
C388 C393 1.418 . S
C389 H384 0.930 . S
C389 C392 1.404 . S
C389 C393 1.353 . S
N390 Co355 2.145 . S
N390 C391 1.397 . S
N390 C392 1.334 . S
C391 H372 0.929 . S
C391 C388 1.388 . S
C391 N390 1.397 . S
C392 H373 0.929 . S
C392 C389 1.404 . S
C392 N390 1.334 . S
C393 H385 0.930 . S
C393 C388 1.418 . S
C393 C389 1.353 . S
C394 H364 0.930 1_565 S
C394 N395 1.330 . S
C394 C396 1.446 . S
N395 Co354 2.151 1_565 S
N395 C394 1.330 . S
N395 C399 1.418 . S
C396 H375 0.929 . S
C396 C394 1.446 . S
C396 C397 1.332 . S
C397 H377 0.931 . S
C397 C396 1.332 . S
C397 C398 1.267 . S
C398 H366 0.929 . S
C398 C397 1.267 . S
C398 C399 1.251 . S
C399 H369 0.929 . S
C399 N395 1.418 . S
C399 C398 1.251 . S
C400 H367 0.930 . S
C400 C402 1.406 . S
C400 C405 1.261 . S
C401 H368 0.930 . S
C401 N403 1.325 . S
C401 C404 1.357 . S
C402 H370 0.928 . S
C402 C400 1.406 . S
C402 N403 1.261 . S
N403 Co354 2.214 1_565 S
N403 C401 1.325 . S
N403 C402 1.261 . S
C404 H374 0.931 . S
C404 C401 1.357 . S
C404 C405 1.312 . S
C405 H376 0.930 . S
C405 C400 1.261 . S
C405 C404 1.312 . S
C406 O378 1.214 . S
C406 O386 1.234 . S
C407 H379 0.929 . S
C407 C410 1.391 . S
C407 C412 1.391 . S
C408 H380 0.929 . S
C408 C409 1.390 . S
C408 N411 1.391 . S
C409 H381 0.930 . S
C409 C408 1.390 . S
C409 C410 1.392 . S
C410 H382 0.929 . S
C410 C407 1.391 . S
C410 C409 1.392 . S
N411 Co355 2.257 . S
N411 C408 1.391 . S
N411 C412 1.388 . S
C412 H383 0.930 . S
C412 C407 1.391 . S
C412 N411 1.388 . S
Co413 O415 2.143 . S
Co413 O421 2.074 . S
Co413 O424 2.093 . S
Co413 O437 2.097 . S
Co413 N454 2.151 1_565 S
Co413 N462 2.214 1_565 S
Co414 O415 2.160 . S
Co414 O420 2.058 . S
Co414 O430 2.057 . S
Co414 O445 2.037 . S
Co414 N449 2.145 . S
Co414 N470 2.257 . S
O415 Co413 2.143 . S
O415 Co414 2.160 . S
C416 O417 1.278 . S
C416 O424 1.224 . S
O417 C416 1.278 . S
C418 O419 1.245 . S
C418 O430 1.232 . S
O419 C418 1.245 . S
O420 Co414 2.058 . S
O420 C446 1.269 . S
O421 Co413 2.074 . S
O421 C446 1.264 . S
H422 C447 0.930 . S
H423 C453 0.930 1_565 S
O424 Co413 2.093 . S
O424 C416 1.224 . S
H425 C457 0.929 . S
H426 C459 0.930 . S
H427 C460 0.930 . S
H428 C458 0.929 . S
H429 C461 0.928 . S
O430 Co414 2.057 . S
O430 C418 1.232 . S
H431 C450 0.929 . S
H432 C451 0.929 . S
H433 C463 0.931 . S
H434 C455 0.929 . S
H435 C464 0.930 . S
H436 C456 0.931 . S
O437 Co413 2.097 . S
O437 C465 1.214 . S
H438 C466 0.929 . S
H439 C467 0.929 . S
H440 C468 0.930 . S
H441 C469 0.929 . S
H442 C471 0.930 . S
H443 C448 0.930 . S
H444 C452 0.930 . S
O445 Co414 2.037 . S
O445 C465 1.234 . S
C446 O420 1.269 . S
C446 O421 1.264 . S
C447 H422 0.930 . S
C447 C450 1.388 . S
C447 C452 1.418 . S
C448 H443 0.930 . S
C448 C451 1.404 . S
C448 C452 1.353 . S
N449 Co414 2.145 . S
N449 C450 1.397 . S
N449 C451 1.334 . S
C450 H431 0.929 . S
C450 C447 1.388 . S
C450 N449 1.397 . S
C451 H432 0.929 . S
C451 C448 1.404 . S
C451 N449 1.334 . S
C452 H444 0.930 . S
C452 C447 1.418 . S
C452 C448 1.353 . S
C453 H423 0.930 1_545 S
C453 N454 1.330 . S
C453 C455 1.446 . S
N454 Co413 2.151 1_545 S
N454 C453 1.330 . S
N454 C458 1.418 . S
C455 H434 0.929 . S
C455 C453 1.446 . S
C455 C456 1.332 . S
C456 H436 0.931 . S
C456 C455 1.332 . S
C456 C457 1.267 . S
C457 H425 0.929 . S
C457 C456 1.267 . S
C457 C458 1.251 . S
C458 H428 0.929 . S
C458 N454 1.418 . S
C458 C457 1.251 . S
C459 H426 0.930 . S
C459 C461 1.406 . S
C459 C464 1.261 . S
C460 H427 0.930 . S
C460 N462 1.325 . S
C460 C463 1.357 . S
C461 H429 0.928 . S
C461 C459 1.406 . S
C461 N462 1.261 . S
N462 Co413 2.214 1_545 S
N462 C460 1.325 . S
N462 C461 1.261 . S
C463 H433 0.931 . S
C463 C460 1.357 . S
C463 C464 1.312 . S
C464 H435 0.930 . S
C464 C459 1.261 . S
C464 C463 1.312 . S
C465 O437 1.214 . S
C465 O445 1.234 . S
C466 H438 0.929 . S
C466 C469 1.391 . S
C466 C471 1.391 . S
C467 H439 0.929 . S
C467 C468 1.390 . S
C467 N470 1.391 . S
C468 H440 0.930 . S
C468 C467 1.390 . S
C468 C469 1.392 . S
C469 H441 0.929 . S
C469 C466 1.391 . S
C469 C468 1.392 . S
N470 Co414 2.257 . S
N470 C467 1.391 . S
N470 C471 1.388 . S
C471 H442 0.930 . S
C471 C466 1.391 . S
C471 N470 1.388 . S
Co472 O474 2.143 . S
Co472 O480 2.074 . S
Co472 O483 2.093 . S
Co472 O496 2.097 . S
Co472 N513 2.151 . S
Co472 N521 2.214 . S
Co473 O474 2.160 . S
Co473 O479 2.058 . S
Co473 O489 2.057 . S
Co473 O504 2.037 . S
Co473 N508 2.145 . S
Co473 N529 2.257 . S
O474 Co472 2.143 . S
O474 Co473 2.160 . S
C475 O476 1.278 . S
C475 O483 1.224 . S
O476 C475 1.278 . S
C477 O478 1.245 . S
C477 O489 1.232 . S
O478 C477 1.245 . S
O479 Co473 2.058 . S
O479 C505 1.269 . S
O480 Co472 2.074 . S
O480 C505 1.257 . S
H481 C506 0.930 . S
H482 C512 0.930 . S
O483 Co472 2.093 . S
O483 C475 1.224 . S
H484 C516 0.929 . S
H485 C518 0.930 . S
H486 C519 0.930 . S
H487 C517 0.929 . S
H488 C520 0.928 . S
O489 Co473 2.057 . S
O489 C477 1.232 . S
H490 C509 0.929 . S
H491 C510 0.929 . S
H492 C522 0.931 . S
H493 C514 0.929 . S
H494 C523 0.930 . S
H495 C515 0.931 . S
O496 Co472 2.097 . S
O496 C524 1.214 . S
H497 C525 0.929 . S
H498 C526 0.929 . S
H499 C527 0.930 . S
H500 C528 0.929 . S
H501 C530 0.930 . S
H502 C507 0.930 . S
H503 C511 0.930 . S
O504 Co473 2.037 . S
O504 C524 1.234 . S
C505 O479 1.269 . S
C505 O480 1.257 . S
C506 H481 0.930 . S
C506 C509 1.388 . S
C506 C511 1.418 . S
C507 H502 0.930 . S
C507 C510 1.404 . S
C507 C511 1.353 . S
N508 Co473 2.145 . S
N508 C509 1.397 . S
N508 C510 1.334 . S
C509 H490 0.929 . S
C509 C506 1.388 . S
C509 N508 1.397 . S
C510 H491 0.929 . S
C510 C507 1.404 . S
C510 N508 1.334 . S
C511 H503 0.930 . S
C511 C506 1.418 . S
C511 C507 1.353 . S
C512 H482 0.930 . S
C512 N513 1.330 . S
C512 C514 1.446 . S
N513 Co472 2.151 . S
N513 C512 1.330 . S
N513 C517 1.418 . S
C514 H493 0.929 . S
C514 C512 1.446 . S
C514 C515 1.332 . S
C515 H495 0.931 . S
C515 C514 1.332 . S
C515 C516 1.267 . S
C516 H484 0.929 . S
C516 C515 1.267 . S
C516 C517 1.251 . S
C517 H487 0.929 . S
C517 N513 1.418 . S
C517 C516 1.251 . S
C518 H485 0.930 . S
C518 C520 1.406 . S
C518 C523 1.261 . S
C519 H486 0.930 . S
C519 N521 1.325 . S
C519 C522 1.357 . S
C520 H488 0.928 . S
C520 C518 1.406 . S
C520 N521 1.261 . S
N521 Co472 2.214 . S
N521 C519 1.325 . S
N521 C520 1.261 . S
C522 H492 0.931 . S
C522 C519 1.357 . S
C522 C523 1.312 . S
C523 H494 0.930 . S
C523 C518 1.261 . S
C523 C522 1.312 . S
C524 O496 1.214 . S
C524 O504 1.234 . S
C525 H497 0.929 . S
C525 C528 1.391 . S
C525 C530 1.391 . S
C526 H498 0.929 . S
C526 C527 1.390 . S
C526 N529 1.391 . S
C527 H499 0.930 . S
C527 C526 1.390 . S
C527 C528 1.392 . S
C528 H500 0.929 . S
C528 C525 1.391 . S
C528 C527 1.392 . S
N529 Co473 2.257 . S
N529 C526 1.391 . S
N529 C530 1.388 . S
C530 H501 0.930 . S
C530 C525 1.391 . S
C530 N529 1.388 . S
Co531 O533 2.143 . S
Co531 O539 2.074 . S
Co531 O542 2.093 . S
Co531 O555 2.097 . S
Co531 N572 2.151 . S
Co531 N580 2.214 . S
Co532 O533 2.160 . S
Co532 O538 2.058 . S
Co532 O548 2.057 . S
Co532 O563 2.037 . S
Co532 N567 2.145 . S
Co532 N588 2.257 . S
O533 Co531 2.143 . S
O533 Co532 2.160 . S
C534 O535 1.278 . S
C534 O542 1.224 . S
O535 C534 1.278 . S
C536 O537 1.245 . S
C536 O548 1.232 . S
O537 C536 1.245 . S
O538 Co532 2.058 . S
O538 C564 1.269 . S
O539 Co531 2.074 . S
O539 C564 1.257 . S
H540 C565 0.930 . S
H541 C571 0.930 . S
O542 Co531 2.093 . S
O542 C534 1.224 . S
H543 C575 0.929 . S
H544 C577 0.930 . S
H545 C578 0.930 . S
H546 C576 0.929 . S
H547 C579 0.928 . S
O548 Co532 2.057 . S
O548 C536 1.232 . S
H549 C568 0.929 . S
H550 C569 0.929 . S
H551 C581 0.931 . S
H552 C573 0.929 . S
H553 C582 0.930 . S
H554 C574 0.931 . S
O555 Co531 2.097 . S
O555 C583 1.214 . S
H556 C584 0.929 . S
H557 C585 0.929 . S
H558 C586 0.930 . S
H559 C587 0.929 . S
H560 C589 0.930 . S
H561 C566 0.930 . S
H562 C570 0.930 . S
O563 Co532 2.037 . S
O563 C583 1.234 . S
C564 O538 1.269 . S
C564 O539 1.257 . S
C565 H540 0.930 . S
C565 C568 1.388 . S
C565 C570 1.418 . S
C566 H561 0.930 . S
C566 C569 1.404 . S
C566 C570 1.353 . S
N567 Co532 2.145 . S
N567 C568 1.397 . S
N567 C569 1.334 . S
C568 H549 0.929 . S
C568 C565 1.388 . S
C568 N567 1.397 . S
C569 H550 0.929 . S
C569 C566 1.404 . S
C569 N567 1.334 . S
C570 H562 0.930 . S
C570 C565 1.418 . S
C570 C566 1.353 . S
C571 H541 0.930 . S
C571 N572 1.330 . S
C571 C573 1.446 . S
N572 Co531 2.151 . S
N572 C571 1.330 . S
N572 C576 1.418 . S
C573 H552 0.929 . S
C573 C571 1.446 . S
C573 C574 1.332 . S
C574 H554 0.931 . S
C574 C573 1.332 . S
C574 C575 1.267 . S
C575 H543 0.929 . S
C575 C574 1.267 . S
C575 C576 1.251 . S
C576 H546 0.929 . S
C576 N572 1.418 . S
C576 C575 1.251 . S
C577 H544 0.930 . S
C577 C579 1.406 . S
C577 C582 1.261 . S
C578 H545 0.930 . S
C578 N580 1.325 . S
C578 C581 1.357 . S
C579 H547 0.928 . S
C579 C577 1.406 . S
C579 N580 1.261 . S
N580 Co531 2.214 . S
N580 C578 1.325 . S
N580 C579 1.261 . S
C581 H551 0.931 . S
C581 C578 1.357 . S
C581 C582 1.312 . S
C582 H553 0.930 . S
C582 C577 1.261 . S
C582 C581 1.312 . S
C583 O555 1.214 . S
C583 O563 1.234 . S
C584 H556 0.929 . S
C584 C587 1.391 . S
C584 C589 1.391 . S
C585 H557 0.929 . S
C585 C586 1.390 . S
C585 N588 1.391 . S
C586 H558 0.930 . S
C586 C585 1.390 . S
C586 C587 1.392 . S
C587 H559 0.929 . S
C587 C584 1.391 . S
C587 C586 1.392 . S
N588 Co532 2.257 . S
N588 C585 1.391 . S
N588 C589 1.388 . S
C589 H560 0.930 . S
C589 C584 1.391 . S
C589 N588 1.388 . S
Co590 O592 2.143 . S
Co590 O598 2.074 . S
Co590 O601 2.093 . S
Co590 O614 2.097 . S
Co590 N631 2.151 . S
Co590 N639 2.214 . S
Co591 O592 2.160 . S
Co591 O597 2.058 . S
Co591 O607 2.057 . S
Co591 O622 2.037 . S
Co591 N626 2.145 . S
Co591 N647 2.257 . S
O592 Co590 2.143 . S
O592 Co591 2.160 . S
C593 O594 1.278 . S
C593 O601 1.224 . S
O594 C593 1.278 . S
C595 O596 1.245 . S
C595 O607 1.232 . S
O596 C595 1.245 . S
O597 Co591 2.058 . S
O597 C623 1.269 . S
O598 Co590 2.074 . S
O598 C623 1.257 . S
H599 C624 0.930 . S
H600 C630 0.930 . S
O601 Co590 2.093 . S
O601 C593 1.224 . S
H602 C634 0.929 . S
H603 C636 0.930 . S
H604 C637 0.930 . S
H605 C635 0.929 . S
H606 C638 0.928 . S
O607 Co591 2.057 . S
O607 C595 1.232 . S
H608 C627 0.929 . S
H609 C628 0.929 . S
H610 C640 0.931 . S
H611 C632 0.929 . S
H612 C641 0.930 . S
H613 C633 0.931 . S
O614 Co590 2.097 . S
O614 C642 1.214 . S
H615 C643 0.929 . S
H616 C644 0.929 . S
H617 C645 0.930 . S
H618 C646 0.929 . S
H619 C648 0.930 . S
H620 C625 0.930 . S
H621 C629 0.930 . S
O622 Co591 2.037 . S
O622 C642 1.234 . S
C623 O597 1.269 . S
C623 O598 1.257 . S
C624 H599 0.930 . S
C624 C627 1.388 . S
C624 C629 1.418 . S
C625 H620 0.930 . S
C625 C628 1.404 . S
C625 C629 1.353 . S
N626 Co591 2.145 . S
N626 C627 1.397 . S
N626 C628 1.334 . S
C627 H608 0.929 . S
C627 C624 1.388 . S
C627 N626 1.397 . S
C628 H609 0.929 . S
C628 C625 1.404 . S
C628 N626 1.334 . S
C629 H621 0.930 . S
C629 C624 1.418 . S
C629 C625 1.353 . S
C630 H600 0.930 . S
C630 N631 1.330 . S
C630 C632 1.446 . S
N631 Co590 2.151 . S
N631 C630 1.330 . S
N631 C635 1.418 . S
C632 H611 0.929 . S
C632 C630 1.446 . S
C632 C633 1.332 . S
C633 H613 0.931 . S
C633 C632 1.332 . S
C633 C634 1.267 . S
C634 H602 0.929 . S
C634 C633 1.267 . S
C634 C635 1.251 . S
C635 H605 0.929 . S
C635 N631 1.418 . S
C635 C634 1.251 . S
C636 H603 0.930 . S
C636 C638 1.406 . S
C636 C641 1.261 . S
C637 H604 0.930 . S
C637 N639 1.325 . S
C637 C640 1.357 . S
C638 H606 0.928 . S
C638 C636 1.406 . S
C638 N639 1.261 . S
N639 Co590 2.214 . S
N639 C637 1.325 . S
N639 C638 1.261 . S
C640 H610 0.931 . S
C640 C637 1.357 . S
C640 C641 1.312 . S
C641 H612 0.930 . S
C641 C636 1.261 . S
C641 C640 1.312 . S
C642 O614 1.214 . S
C642 O622 1.234 . S
C643 H615 0.929 . S
C643 C646 1.391 . S
C643 C648 1.391 . S
C644 H616 0.929 . S
C644 C645 1.390 . S
C644 N647 1.391 . S
C645 H617 0.930 . S
C645 C644 1.390 . S
C645 C646 1.392 . S
C646 H618 0.929 . S
C646 C643 1.391 . S
C646 C645 1.392 . S
N647 Co591 2.257 . S
N647 C644 1.391 . S
N647 C648 1.388 . S
C648 H619 0.930 . S
C648 C643 1.391 . S
C648 N647 1.388 . S
Co649 O651 2.143 . S
Co649 O657 2.074 . S
Co649 O660 2.093 . S
Co649 O673 2.097 . S
Co649 N690 2.151 . S
Co649 N698 2.214 . S
Co650 O651 2.160 . S
Co650 O656 2.058 . S
Co650 O666 2.057 . S
Co650 O681 2.037 . S
Co650 N685 2.145 . S
Co650 N706 2.257 . S
O651 Co649 2.143 . S
O651 Co650 2.160 . S
C652 O653 1.278 . S
C652 O660 1.224 . S
O653 C652 1.278 . S
C654 O655 1.245 . S
C654 O666 1.232 . S
O655 C654 1.245 . S
O656 Co650 2.058 . S
O656 C682 1.269 . S
O657 Co649 2.074 . S
O657 C682 1.257 . S
H658 C683 0.930 . S
H659 C689 0.930 . S
O660 Co649 2.093 . S
O660 C652 1.224 . S
H661 C693 0.929 . S
H662 C695 0.930 . S
H663 C696 0.930 . S
H664 C694 0.929 . S
H665 C697 0.928 . S
O666 Co650 2.057 . S
O666 C654 1.232 . S
H667 C686 0.929 . S
H668 C687 0.929 . S
H669 C699 0.931 . S
H670 C691 0.929 . S
H671 C700 0.930 . S
H672 C692 0.931 . S
O673 Co649 2.097 . S
O673 C701 1.214 . S
H674 C702 0.929 . S
H675 C703 0.929 . S
H676 C704 0.930 . S
H677 C705 0.929 . S
H678 C707 0.930 . S
H679 C684 0.930 . S
H680 C688 0.930 . S
O681 Co650 2.037 . S
O681 C701 1.234 . S
C682 O656 1.269 . S
C682 O657 1.257 . S
C683 H658 0.930 . S
C683 C686 1.388 . S
C683 C688 1.418 . S
C684 H679 0.930 . S
C684 C687 1.404 . S
C684 C688 1.353 . S
N685 Co650 2.145 . S
N685 C686 1.397 . S
N685 C687 1.334 . S
C686 H667 0.929 . S
C686 C683 1.388 . S
C686 N685 1.397 . S
C687 H668 0.929 . S
C687 C684 1.404 . S
C687 N685 1.334 . S
C688 H680 0.930 . S
C688 C683 1.418 . S
C688 C684 1.353 . S
C689 H659 0.930 . S
C689 N690 1.330 . S
C689 C691 1.446 . S
N690 Co649 2.151 . S
N690 C689 1.330 . S
N690 C694 1.418 . S
C691 H670 0.929 . S
C691 C689 1.446 . S
C691 C692 1.332 . S
C692 H672 0.931 . S
C692 C691 1.332 . S
C692 C693 1.267 . S
C693 H661 0.929 . S
C693 C692 1.267 . S
C693 C694 1.251 . S
C694 H664 0.929 . S
C694 N690 1.418 . S
C694 C693 1.251 . S
C695 H662 0.930 . S
C695 C697 1.406 . S
C695 C700 1.261 . S
C696 H663 0.930 . S
C696 N698 1.325 . S
C696 C699 1.357 . S
C697 H665 0.928 . S
C697 C695 1.406 . S
C697 N698 1.261 . S
N698 Co649 2.214 . S
N698 C696 1.325 . S
N698 C697 1.261 . S
C699 H669 0.931 . S
C699 C696 1.357 . S
C699 C700 1.312 . S
C700 H671 0.930 . S
C700 C695 1.261 . S
C700 C699 1.312 . S
C701 O673 1.214 . S
C701 O681 1.234 . S
C702 H674 0.929 . S
C702 C705 1.391 . S
C702 C707 1.391 . S
C703 H675 0.929 . S
C703 C704 1.390 . S
C703 N706 1.391 . S
C704 H676 0.930 . S
C704 C703 1.390 . S
C704 C705 1.392 . S
C705 H677 0.929 . S
C705 C702 1.391 . S
C705 C704 1.392 . S
N706 Co650 2.257 . S
N706 C703 1.391 . S
N706 C707 1.388 . S
C707 H678 0.930 . S
C707 C702 1.391 . S
C707 N706 1.388 . S
Co708 O710 2.143 . S
Co708 O716 2.074 . S
Co708 O719 2.093 . S
Co708 O732 2.097 . S
Co708 N749 2.151 . S
Co708 N757 2.214 . S
Co709 O710 2.160 . S
Co709 O715 2.058 . S
Co709 O725 2.057 . S
Co709 O740 2.037 . S
Co709 N744 2.145 . S
Co709 N765 2.257 . S
O710 Co708 2.143 . S
O710 Co709 2.160 . S
C711 O712 1.278 . S
C711 O719 1.224 . S
O712 C711 1.278 . S
C713 O714 1.245 . S
C713 O725 1.232 . S
O714 C713 1.245 . S
O715 Co709 2.058 . S
O715 C741 1.269 . S
O716 Co708 2.074 . S
O716 C741 1.257 . S
H717 C742 0.930 . S
H718 C748 0.930 . S
O719 Co708 2.093 . S
O719 C711 1.224 . S
H720 C752 0.929 . S
H721 C754 0.930 . S
H722 C755 0.930 . S
H723 C753 0.929 . S
H724 C756 0.928 . S
O725 Co709 2.057 . S
O725 C713 1.232 . S
H726 C745 0.929 . S
H727 C746 0.929 . S
H728 C758 0.931 . S
H729 C750 0.929 . S
H730 C759 0.930 . S
H731 C751 0.931 . S
O732 Co708 2.097 . S
O732 C760 1.214 . S
H733 C761 0.929 . S
H734 C762 0.929 . S
H735 C763 0.930 . S
H736 C764 0.929 . S
H737 C766 0.930 . S
H738 C743 0.930 . S
H739 C747 0.930 . S
O740 Co709 2.037 . S
O740 C760 1.234 . S
C741 O715 1.269 . S
C741 O716 1.257 . S
C742 H717 0.930 . S
C742 C745 1.388 . S
C742 C747 1.418 . S
C743 H738 0.930 . S
C743 C746 1.404 . S
C743 C747 1.353 . S
N744 Co709 2.145 . S
N744 C745 1.397 . S
N744 C746 1.334 . S
C745 H726 0.929 . S
C745 C742 1.388 . S
C745 N744 1.397 . S
C746 H727 0.929 . S
C746 C743 1.404 . S
C746 N744 1.334 . S
C747 H739 0.930 . S
C747 C742 1.418 . S
C747 C743 1.353 . S
C748 H718 0.930 . S
C748 N749 1.330 . S
C748 C750 1.446 . S
N749 Co708 2.151 . S
N749 C748 1.330 . S
N749 C753 1.418 . S
C750 H729 0.929 . S
C750 C748 1.446 . S
C750 C751 1.332 . S
C751 H731 0.931 . S
C751 C750 1.332 . S
C751 C752 1.267 . S
C752 H720 0.929 . S
C752 C751 1.267 . S
C752 C753 1.251 . S
C753 H723 0.929 . S
C753 N749 1.418 . S
C753 C752 1.251 . S
C754 H721 0.930 . S
C754 C756 1.406 . S
C754 C759 1.261 . S
C755 H722 0.930 . S
C755 N757 1.325 . S
C755 C758 1.357 . S
C756 H724 0.928 . S
C756 C754 1.406 . S
C756 N757 1.261 . S
N757 Co708 2.214 . S
N757 C755 1.325 . S
N757 C756 1.261 . S
C758 H728 0.931 . S
C758 C755 1.357 . S
C758 C759 1.312 . S
C759 H730 0.930 . S
C759 C754 1.261 . S
C759 C758 1.312 . S
C760 O732 1.214 . S
C760 O740 1.234 . S
C761 H733 0.929 . S
C761 C764 1.391 . S
C761 C766 1.391 . S
C762 H734 0.929 . S
C762 C763 1.390 . S
C762 N765 1.391 . S
C763 H735 0.930 . S
C763 C762 1.390 . S
C763 C764 1.392 . S
C764 H736 0.929 . S
C764 C761 1.391 . S
C764 C763 1.392 . S
N765 Co709 2.257 . S
N765 C762 1.391 . S
N765 C766 1.388 . S
C766 H737 0.930 . S
C766 C761 1.391 . S
C766 N765 1.388 . S
Co767 O769 2.143 . S
Co767 O775 2.074 . S
Co767 O778 2.093 . S
Co767 O791 2.097 . S
Co767 N808 2.151 . S
Co767 N816 2.214 . S
Co768 O769 2.160 . S
Co768 O774 2.058 . S
Co768 O784 2.057 . S
Co768 O799 2.037 . S
Co768 N803 2.145 . S
Co768 N824 2.257 . S
O769 Co767 2.143 . S
O769 Co768 2.160 . S
C770 O771 1.278 . S
C770 O778 1.224 . S
O771 C770 1.278 . S
C772 O773 1.245 . S
C772 O784 1.232 . S
O773 C772 1.245 . S
O774 Co768 2.058 . S
O774 C800 1.269 . S
O775 Co767 2.074 . S
O775 C800 1.257 . S
H776 C801 0.930 . S
H777 C807 0.930 . S
O778 Co767 2.093 . S
O778 C770 1.224 . S
H779 C811 0.929 . S
H780 C813 0.930 . S
H781 C814 0.930 . S
H782 C812 0.929 . S
H783 C815 0.928 . S
O784 Co768 2.057 . S
O784 C772 1.232 . S
H785 C804 0.929 . S
H786 C805 0.929 . S
H787 C817 0.931 . S
H788 C809 0.929 . S
H789 C818 0.930 . S
H790 C810 0.931 . S
O791 Co767 2.097 . S
O791 C819 1.214 . S
H792 C820 0.929 . S
H793 C821 0.929 . S
H794 C822 0.930 . S
H795 C823 0.929 . S
H796 C825 0.930 . S
H797 C802 0.930 . S
H798 C806 0.930 . S
O799 Co768 2.037 . S
O799 C819 1.234 . S
C800 O774 1.269 . S
C800 O775 1.257 . S
C801 H776 0.930 . S
C801 C804 1.388 . S
C801 C806 1.418 . S
C802 H797 0.930 . S
C802 C805 1.404 . S
C802 C806 1.353 . S
N803 Co768 2.145 . S
N803 C804 1.397 . S
N803 C805 1.334 . S
C804 H785 0.929 . S
C804 C801 1.388 . S
C804 N803 1.397 . S
C805 H786 0.929 . S
C805 C802 1.404 . S
C805 N803 1.334 . S
C806 H798 0.930 . S
C806 C801 1.418 . S
C806 C802 1.353 . S
C807 H777 0.930 . S
C807 N808 1.330 . S
C807 C809 1.446 . S
N808 Co767 2.151 . S
N808 C807 1.330 . S
N808 C812 1.418 . S
C809 H788 0.929 . S
C809 C807 1.446 . S
C809 C810 1.332 . S
C810 H790 0.931 . S
C810 C809 1.332 . S
C810 C811 1.267 . S
C811 H779 0.929 . S
C811 C810 1.267 . S
C811 C812 1.251 . S
C812 H782 0.929 . S
C812 N808 1.418 . S
C812 C811 1.251 . S
C813 H780 0.930 . S
C813 C815 1.406 . S
C813 C818 1.261 . S
C814 H781 0.930 . S
C814 N816 1.325 . S
C814 C817 1.357 . S
C815 H783 0.928 . S
C815 C813 1.406 . S
C815 N816 1.261 . S
N816 Co767 2.214 . S
N816 C814 1.325 . S
N816 C815 1.261 . S
C817 H787 0.931 . S
C817 C814 1.357 . S
C817 C818 1.312 . S
C818 H789 0.930 . S
C818 C813 1.261 . S
C818 C817 1.312 . S
C819 O791 1.214 . S
C819 O799 1.234 . S
C820 H792 0.929 . S
C820 C823 1.391 . S
C820 C825 1.391 . S
C821 H793 0.929 . S
C821 C822 1.390 . S
C821 N824 1.391 . S
C822 H794 0.930 . S
C822 C821 1.390 . S
C822 C823 1.392 . S
C823 H795 0.929 . S
C823 C820 1.391 . S
C823 C822 1.392 . S
N824 Co768 2.257 . S
N824 C821 1.391 . S
N824 C825 1.388 . S
C825 H796 0.930 . S
C825 C820 1.391 . S
C825 N824 1.388 . S
Co826 O828 2.143 . S
Co826 O834 2.074 . S
Co826 O837 2.093 . S
Co826 O850 2.097 . S
Co826 N867 2.151 . S
Co826 N875 2.214 . S
Co827 O828 2.160 . S
Co827 O833 2.058 . S
Co827 O843 2.057 . S
Co827 O858 2.037 . S
Co827 N862 2.145 . S
Co827 N883 2.257 . S
O828 Co826 2.143 . S
O828 Co827 2.160 . S
C829 O830 1.278 . S
C829 O837 1.224 . S
O830 C829 1.278 . S
C831 O832 1.245 . S
C831 O843 1.232 . S
O832 C831 1.245 . S
O833 Co827 2.058 . S
O833 C859 1.269 . S
O834 Co826 2.074 . S
O834 C859 1.257 . S
H835 C860 0.930 . S
H836 C866 0.930 . S
O837 Co826 2.093 . S
O837 C829 1.224 . S
H838 C870 0.929 . S
H839 C872 0.930 . S
H840 C873 0.930 . S
H841 C871 0.929 . S
H842 C874 0.928 . S
O843 Co827 2.057 . S
O843 C831 1.232 . S
H844 C863 0.929 . S
H845 C864 0.929 . S
H846 C876 0.931 . S
H847 C868 0.929 . S
H848 C877 0.930 . S
H849 C869 0.931 . S
O850 Co826 2.097 . S
O850 C878 1.214 . S
H851 C879 0.929 . S
H852 C880 0.929 . S
H853 C881 0.930 . S
H854 C882 0.929 . S
H855 C884 0.930 . S
H856 C861 0.930 . S
H857 C865 0.930 . S
O858 Co827 2.037 . S
O858 C878 1.234 . S
C859 O833 1.269 . S
C859 O834 1.257 . S
C860 H835 0.930 . S
C860 C863 1.388 . S
C860 C865 1.418 . S
C861 H856 0.930 . S
C861 C864 1.404 . S
C861 C865 1.353 . S
N862 Co827 2.145 . S
N862 C863 1.397 . S
N862 C864 1.334 . S
C863 H844 0.929 . S
C863 C860 1.388 . S
C863 N862 1.397 . S
C864 H845 0.929 . S
C864 C861 1.404 . S
C864 N862 1.334 . S
C865 H857 0.930 . S
C865 C860 1.418 . S
C865 C861 1.353 . S
C866 H836 0.930 . S
C866 N867 1.330 . S
C866 C868 1.446 . S
N867 Co826 2.151 . S
N867 C866 1.330 . S
N867 C871 1.418 . S
C868 H847 0.929 . S
C868 C866 1.446 . S
C868 C869 1.332 . S
C869 H849 0.931 . S
C869 C868 1.332 . S
C869 C870 1.267 . S
C870 H838 0.929 . S
C870 C869 1.267 . S
C870 C871 1.251 . S
C871 H841 0.929 . S
C871 N867 1.418 . S
C871 C870 1.251 . S
C872 H839 0.930 . S
C872 C874 1.406 . S
C872 C877 1.261 . S
C873 H840 0.930 . S
C873 N875 1.325 . S
C873 C876 1.357 . S
C874 H842 0.928 . S
C874 C872 1.406 . S
C874 N875 1.261 . S
N875 Co826 2.214 . S
N875 C873 1.325 . S
N875 C874 1.261 . S
C876 H846 0.931 . S
C876 C873 1.357 . S
C876 C877 1.312 . S
C877 H848 0.930 . S
C877 C872 1.261 . S
C877 C876 1.312 . S
C878 O850 1.214 . S
C878 O858 1.234 . S
C879 H851 0.929 . S
C879 C882 1.391 . S
C879 C884 1.391 . S
C880 H852 0.929 . S
C880 C881 1.390 . S
C880 N883 1.391 . S
C881 H853 0.930 . S
C881 C880 1.390 . S
C881 C882 1.392 . S
C882 H854 0.929 . S
C882 C879 1.391 . S
C882 C881 1.392 . S
N883 Co827 2.257 . S
N883 C880 1.391 . S
N883 C884 1.388 . S
C884 H855 0.930 . S
C884 C879 1.391 . S
C884 N883 1.388 . S
Co885 O887 2.143 . S
Co885 O893 2.074 . S
Co885 O896 2.093 . S
Co885 O909 2.097 . S
Co885 N926 2.151 . S
Co885 N934 2.214 . S
Co886 O887 2.160 . S
Co886 O892 2.058 . S
Co886 O902 2.057 . S
Co886 O917 2.037 . S
Co886 N921 2.145 . S
Co886 N942 2.257 . S
O887 Co885 2.143 . S
O887 Co886 2.160 . S
C888 O889 1.278 . S
C888 O896 1.224 . S
O889 C888 1.278 . S
C890 O891 1.245 . S
C890 O902 1.232 . S
O891 C890 1.245 . S
O892 Co886 2.058 . S
O892 C918 1.269 . S
O893 Co885 2.074 . S
O893 C918 1.257 . S
H894 C919 0.930 . S
H895 C925 0.930 . S
O896 Co885 2.093 . S
O896 C888 1.224 . S
H897 C929 0.929 . S
H898 C931 0.930 . S
H899 C932 0.930 . S
H900 C930 0.929 . S
H901 C933 0.928 . S
O902 Co886 2.057 . S
O902 C890 1.232 . S
H903 C922 0.929 . S
H904 C923 0.929 . S
H905 C935 0.931 . S
H906 C927 0.929 . S
H907 C936 0.930 . S
H908 C928 0.931 . S
O909 Co885 2.097 . S
O909 C937 1.214 . S
H910 C938 0.929 . S
H911 C939 0.929 . S
H912 C940 0.930 . S
H913 C941 0.929 . S
H914 C943 0.930 . S
H915 C920 0.930 . S
H916 C924 0.930 . S
O917 Co886 2.037 . S
O917 C937 1.234 . S
C918 O892 1.269 . S
C918 O893 1.257 . S
C919 H894 0.930 . S
C919 C922 1.388 . S
C919 C924 1.418 . S
C920 H915 0.930 . S
C920 C923 1.404 . S
C920 C924 1.353 . S
N921 Co886 2.145 . S
N921 C922 1.397 . S
N921 C923 1.334 . S
C922 H903 0.929 . S
C922 C919 1.388 . S
C922 N921 1.397 . S
C923 H904 0.929 . S
C923 C920 1.404 . S
C923 N921 1.334 . S
C924 H916 0.930 . S
C924 C919 1.418 . S
C924 C920 1.353 . S
C925 H895 0.930 . S
C925 N926 1.330 . S
C925 C927 1.446 . S
N926 Co885 2.151 . S
N926 C925 1.330 . S
N926 C930 1.418 . S
C927 H906 0.929 . S
C927 C925 1.446 . S
C927 C928 1.332 . S
C928 H908 0.931 . S
C928 C927 1.332 . S
C928 C929 1.267 . S
C929 H897 0.929 . S
C929 C928 1.267 . S
C929 C930 1.251 . S
C930 H900 0.929 . S
C930 N926 1.418 . S
C930 C929 1.251 . S
C931 H898 0.930 . S
C931 C933 1.406 . S
C931 C936 1.261 . S
C932 H899 0.930 . S
C932 N934 1.325 . S
C932 C935 1.357 . S
C933 H901 0.928 . S
C933 C931 1.406 . S
C933 N934 1.261 . S
N934 Co885 2.214 . S
N934 C932 1.325 . S
N934 C933 1.261 . S
C935 H905 0.931 . S
C935 C932 1.357 . S
C935 C936 1.312 . S
C936 H907 0.930 . S
C936 C931 1.261 . S
C936 C935 1.312 . S
C937 O909 1.214 . S
C937 O917 1.234 . S
C938 H910 0.929 . S
C938 C941 1.391 . S
C938 C943 1.391 . S
C939 H911 0.929 . S
C939 C940 1.390 . S
C939 N942 1.391 . S
C940 H912 0.930 . S
C940 C939 1.390 . S
C940 C941 1.392 . S
C941 H913 0.929 . S
C941 C938 1.391 . S
C941 C940 1.392 . S
N942 Co886 2.257 . S
N942 C939 1.391 . S
N942 C943 1.388 . S
C943 H914 0.930 . S
C943 C938 1.391 . S
C943 N942 1.388 . S
H944 C952 0.950 . S
H945 C957 0.950 . S
H946 C954 0.950 . S
H947 C956 0.950 . S
H948 C958 0.950 . S
H949 C960 0.950 . S
H950 C962 0.950 . S
H951 C963 0.950 . S
C952 H944 0.950 . S
C952 C953 1.386 . S
C952 C954 1.391 . S
C953 C952 1.386 . S
C953 C957 1.393 1_545 S
C954 H946 0.950 . S
C954 C952 1.391 . S
C954 C955 1.400 . S
C955 C954 1.400 . S
C955 C956 1.398 1_545 S
C955 C961 1.491 . S
C956 H947 0.950 . S
C956 C955 1.398 1_565 S
C956 C957 1.391 . S
C957 H945 0.950 . S
C957 C953 1.393 1_565 S
C957 C956 1.391 . S
C958 H948 0.950 . S
C958 C959 1.386 1_565 S
C958 C960 1.391 . S
C959 C958 1.386 1_545 S
C959 C963 1.393 . S
C960 H949 0.950 . S
C960 C958 1.391 . S
C960 C961 1.400 1_565 S
C961 C955 1.491 . S
C961 C960 1.400 1_545 S
C961 C962 1.398 . S
C962 H950 0.950 . S
C962 C961 1.398 . S
C962 C963 1.391 . S
C963 H951 0.950 . S
C963 C959 1.393 . S
C963 C962 1.391 . S
H964 C972 0.950 . S
H965 C977 0.950 . S
H966 C974 0.950 . S
H967 C976 0.950 . S
H968 C978 0.950 . S
H969 C980 0.950 . S
H970 C982 0.950 . S
H971 C983 0.950 . S
C972 H964 0.950 . S
C972 C973 1.386 . S
C972 C974 1.391 . S
C973 C972 1.386 . S
C973 C977 1.393 . S
C974 H966 0.950 . S
C974 C972 1.391 . S
C974 C975 1.400 . S
C975 C974 1.400 . S
C975 C976 1.398 . S
C975 C981 1.491 . S
C976 H967 0.950 . S
C976 C975 1.398 . S
C976 C977 1.391 . S
C977 H965 0.950 . S
C977 C973 1.393 . S
C977 C976 1.391 . S
C978 H968 0.950 . S
C978 C979 1.386 . S
C978 C980 1.391 . S
C979 C978 1.386 . S
C979 C983 1.393 . S
C980 H969 0.950 . S
C980 C978 1.391 . S
C980 C981 1.400 . S
C981 C975 1.491 . S
C981 C980 1.400 . S
C981 C982 1.398 . S
C982 H970 0.950 . S
C982 C981 1.398 . S
C982 C983 1.391 . S
C983 H971 0.950 . S
C983 C979 1.393 . S
C983 C982 1.391 . S
H984 C992 0.950 . S
H985 C997 0.950 1_545 S
H986 C994 0.950 . S
H987 C996 0.950 1_545 S
H988 C998 0.950 1_545 S
H989 C1000 0.950 1_545 S
H990 C1002 0.950 . S
H991 C1003 0.950 . S
C992 H984 0.950 . S
C992 C993 1.386 . S
C992 C994 1.391 . S
C993 C992 1.386 . S
C993 C997 1.393 . S
C994 H986 0.950 . S
C994 C992 1.391 . S
C994 C995 1.400 . S
C995 C994 1.400 . S
C995 C996 1.398 . S
C995 C1001 1.491 1_554 S
C996 H987 0.950 1_565 S
C996 C995 1.398 . S
C996 C997 1.391 . S
C997 H985 0.950 1_565 S
C997 C993 1.393 . S
C997 C996 1.391 . S
C998 H988 0.950 1_565 S
C998 C999 1.386 . S
C998 C1000 1.391 . S
C999 C998 1.386 . S
C999 C1003 1.393 . S
C1000 H989 0.950 1_565 S
C1000 C998 1.391 . S
C1000 C1001 1.400 . S
C1001 C995 1.491 1_556 S
C1001 C1000 1.400 . S
C1001 C1002 1.398 . S
C1002 H990 0.950 . S
C1002 C1001 1.398 . S
C1002 C1003 1.391 . S
C1003 H991 0.950 . S
C1003 C999 1.393 . S
C1003 C1002 1.391 . S
H1004 C1012 0.950 . S
H1005 C1017 0.950 . S
H1006 C1014 0.950 . S
H1007 C1016 0.950 . S
H1008 C1018 0.950 . S
H1009 C1020 0.950 . S
H1010 C1022 0.950 . S
H1011 C1023 0.950 . S
C1012 H1004 0.950 . S
C1012 C1013 1.386 . S
C1012 C1014 1.391 . S
C1013 C1012 1.386 . S
C1013 C1017 1.393 1_545 S
C1014 H1006 0.950 . S
C1014 C1012 1.391 . S
C1014 C1015 1.400 . S
C1015 C1014 1.400 . S
C1015 C1016 1.398 1_545 S
C1015 C1021 1.491 1_556 S
C1016 H1007 0.950 . S
C1016 C1015 1.398 1_565 S
C1016 C1017 1.391 . S
C1017 H1005 0.950 . S
C1017 C1013 1.393 1_565 S
C1017 C1016 1.391 . S
C1018 H1008 0.950 . S
C1018 C1019 1.386 1_565 S
C1018 C1020 1.391 . S
C1019 C1018 1.386 1_545 S
C1019 C1023 1.393 . S
C1020 H1009 0.950 . S
C1020 C1018 1.391 . S
C1020 C1021 1.400 1_565 S
C1021 C1015 1.491 1_554 S
C1021 C1020 1.400 1_545 S
C1021 C1022 1.398 . S
C1022 H1010 0.950 . S
C1022 C1021 1.398 . S
C1022 C1023 1.391 . S
C1023 H1011 0.950 . S
C1023 C1019 1.393 . S
C1023 C1022 1.391 . S
H1024 C1032 0.950 . S
H1025 C1037 0.950 . S
H1026 C1034 0.950 . S
H1027 C1036 0.950 . S
H1028 C1038 0.950 . S
H1029 C1040 0.950 . S
H1030 C1042 0.950 . S
H1031 C1043 0.950 . S
C1032 H1024 0.950 . S
C1032 C1033 1.386 . S
C1032 C1034 1.391 . S
C1033 C1032 1.386 . S
C1033 C1037 1.393 . S
C1034 H1026 0.950 . S
C1034 C1032 1.391 . S
C1034 C1035 1.400 . S
C1035 C1034 1.400 . S
C1035 C1036 1.398 . S
C1035 C1041 1.491 . S
C1036 H1027 0.950 . S
C1036 C1035 1.398 . S
C1036 C1037 1.391 . S
C1037 H1025 0.950 . S
C1037 C1033 1.393 . S
C1037 C1036 1.391 . S
C1038 H1028 0.950 . S
C1038 C1039 1.386 . S
C1038 C1040 1.391 . S
C1039 C1038 1.386 . S
C1039 C1043 1.393 . S
C1040 H1029 0.950 . S
C1040 C1038 1.391 . S
C1040 C1041 1.400 . S
C1041 C1035 1.491 . S
C1041 C1040 1.400 . S
C1041 C1042 1.398 . S
C1042 H1030 0.950 . S
C1042 C1041 1.398 . S
C1042 C1043 1.391 . S
C1043 H1031 0.950 . S
C1043 C1039 1.393 . S
C1043 C1042 1.391 . S
H1044 C1052 0.950 . S
H1045 C1057 0.950 . S
H1046 C1054 0.950 . S
H1047 C1056 0.950 . S
H1048 C1058 0.950 . S
H1049 C1060 0.950 . S
H1050 C1062 0.950 . S
H1051 C1063 0.950 . S
C1052 H1044 0.950 . S
C1052 C1053 1.386 . S
C1052 C1054 1.391 . S
C1053 C1052 1.386 . S
C1053 C1057 1.393 . S
C1054 H1046 0.950 . S
C1054 C1052 1.391 . S
C1054 C1055 1.400 . S
C1055 C1054 1.400 . S
C1055 C1056 1.398 . S
C1055 C1061 1.491 . S
C1056 H1047 0.950 . S
C1056 C1055 1.398 . S
C1056 C1057 1.391 . S
C1057 H1045 0.950 . S
C1057 C1053 1.393 . S
C1057 C1056 1.391 . S
C1058 H1048 0.950 . S
C1058 C1059 1.386 . S
C1058 C1060 1.391 . S
C1059 C1058 1.386 . S
C1059 C1063 1.393 . S
C1060 H1049 0.950 . S
C1060 C1058 1.391 . S
C1060 C1061 1.400 . S
C1061 C1055 1.491 . S
C1061 C1060 1.400 . S
C1061 C1062 1.398 . S
C1062 H1050 0.950 . S
C1062 C1061 1.398 . S
C1062 C1063 1.391 . S
C1063 H1051 0.950 . S
C1063 C1059 1.393 . S
C1063 C1062 1.391 . S
H1064 C1072 0.950 . S
H1065 C1077 0.950 . S
H1066 C1074 0.950 . S
H1067 C1076 0.950 . S
H1068 C1078 0.950 . S
H1069 C1080 0.950 . S
H1070 C1082 0.950 . S
H1071 C1083 0.950 . S
C1072 H1064 0.950 . S
C1072 C1073 1.386 . S
C1072 C1074 1.391 . S
C1073 C1072 1.386 . S
C1073 C1077 1.393 . S
C1074 H1066 0.950 . S
C1074 C1072 1.391 . S
C1074 C1075 1.400 . S
C1075 C1074 1.400 . S
C1075 C1076 1.398 . S
C1075 C1081 1.491 1_556 S
C1076 H1067 0.950 . S
C1076 C1075 1.398 . S
C1076 C1077 1.391 . S
C1077 H1065 0.950 . S
C1077 C1073 1.393 . S
C1077 C1076 1.391 . S
C1078 H1068 0.950 . S
C1078 C1079 1.386 . S
C1078 C1080 1.391 . S
C1079 C1078 1.386 . S
C1079 C1083 1.393 . S
C1080 H1069 0.950 . S
C1080 C1078 1.391 . S
C1080 C1081 1.400 . S
C1081 C1075 1.491 1_554 S
C1081 C1080 1.400 . S
C1081 C1082 1.398 . S
C1082 H1070 0.950 . S
C1082 C1081 1.398 . S
C1082 C1083 1.391 . S
C1083 H1071 0.950 . S
C1083 C1079 1.393 . S
C1083 C1082 1.391 . S
H1084 C1092 0.950 . S
H1085 C1097 0.950 . S
H1086 C1094 0.950 . S
H1087 C1096 0.950 . S
H1088 C1098 0.950 . S
H1089 C1100 0.950 . S
H1090 C1102 0.950 . S
H1091 C1103 0.950 . S
C1092 H1084 0.950 . S
C1092 C1093 1.386 . S
C1092 C1094 1.391 . S
C1093 C1092 1.386 . S
C1093 C1097 1.393 . S
C1094 H1086 0.950 . S
C1094 C1092 1.391 . S
C1094 C1095 1.400 . S
C1095 C1094 1.400 . S
C1095 C1096 1.398 . S
C1095 C1101 1.491 1_554 S
C1096 H1087 0.950 . S
C1096 C1095 1.398 . S
C1096 C1097 1.391 . S
C1097 H1085 0.950 . S
C1097 C1093 1.393 . S
C1097 C1096 1.391 . S
C1098 H1088 0.950 . S
C1098 C1099 1.386 . S
C1098 C1100 1.391 . S
C1099 C1098 1.386 . S
C1099 C1103 1.393 . S
C1100 H1089 0.950 . S
C1100 C1098 1.391 . S
C1100 C1101 1.400 . S
C1101 C1095 1.491 1_556 S
C1101 C1100 1.400 . S
C1101 C1102 1.398 . S
C1102 H1090 0.950 . S
C1102 C1101 1.398 . S
C1102 C1103 1.391 . S
C1103 H1091 0.950 . S
C1103 C1099 1.393 . S
C1103 C1102 1.391 . S
H1104 C1112 0.950 . S
H1105 C1117 0.950 . S
H1106 C1114 0.950 . S
H1107 C1116 0.950 . S
H1108 C1118 0.950 . S
H1109 C1120 0.950 . S
H1110 C1122 0.950 . S
H1111 C1123 0.950 . S
C1112 H1104 0.950 . S
C1112 C1113 1.386 1_545 S
C1112 C1114 1.391 . S
C1113 C1112 1.386 1_565 S
C1113 C1117 1.393 . S
C1114 H1106 0.950 . S
C1114 C1112 1.391 . S
C1114 C1115 1.400 1_545 S
C1115 C1114 1.400 1_565 S
C1115 C1116 1.398 . S
C1115 C1121 1.491 1_565 S
C1116 H1107 0.950 . S
C1116 C1115 1.398 . S
C1116 C1117 1.391 . S
C1117 H1105 0.950 . S
C1117 C1113 1.393 . S
C1117 C1116 1.391 . S
C1118 H1108 0.950 . S
C1118 C1119 1.386 1_565 S
C1118 C1120 1.391 . S
C1119 C1118 1.386 1_545 S
C1119 C1123 1.393 . S
C1120 H1109 0.950 . S
C1120 C1118 1.391 . S
C1120 C1121 1.400 1_565 S
C1121 C1115 1.491 1_545 S
C1121 C1120 1.400 1_545 S
C1121 C1122 1.398 . S
C1122 H1110 0.950 . S
C1122 C1121 1.398 . S
C1122 C1123 1.391 . S
C1123 H1111 0.950 . S
C1123 C1119 1.393 . S
C1123 C1122 1.391 . S
H1124 C1132 0.950 . S
H1125 C1137 0.950 . S
H1126 C1134 0.950 . S
H1127 C1136 0.950 . S
H1128 C1138 0.950 . S
H1129 C1140 0.950 . S
H1130 C1142 0.950 . S
H1131 C1143 0.950 . S
C1132 H1124 0.950 . S
C1132 C1133 1.386 . S
C1132 C1134 1.391 . S
C1133 C1132 1.386 . S
C1133 C1137 1.393 1_565 S
C1134 H1126 0.950 . S
C1134 C1132 1.391 . S
C1134 C1135 1.400 . S
C1135 C1134 1.400 . S
C1135 C1136 1.398 1_565 S
C1135 C1141 1.491 1_565 S
C1136 H1127 0.950 . S
C1136 C1135 1.398 1_545 S
C1136 C1137 1.391 . S
C1137 H1125 0.950 . S
C1137 C1133 1.393 1_545 S
C1137 C1136 1.391 . S
C1138 H1128 0.950 . S
C1138 C1139 1.386 . S
C1138 C1140 1.391 . S
C1139 C1138 1.386 . S
C1139 C1143 1.393 1_545 S
C1140 H1129 0.950 . S
C1140 C1138 1.391 . S
C1140 C1141 1.400 . S
C1141 C1135 1.491 1_545 S
C1141 C1140 1.400 . S
C1141 C1142 1.398 1_545 S
C1142 H1130 0.950 . S
C1142 C1141 1.398 1_565 S
C1142 C1143 1.391 . S
C1143 H1131 0.950 . S
C1143 C1139 1.393 1_565 S
C1143 C1142 1.391 . S
H1144 C1152 0.955 . S
H1145 C1157 0.950 . S
H1146 C1154 0.950 . S
H1147 C1156 0.950 . S
H1148 C1158 0.955 . S
H1149 C1160 0.950 . S
H1150 C1162 0.950 . S
H1151 C1163 0.950 . S
C1152 H1144 0.955 . S
C1152 C1153 1.386 . S
C1152 C1154 1.391 1_565 S
C1153 C1152 1.386 . S
C1153 C1157 1.393 . S
C1154 H1146 0.950 . S
C1154 C1152 1.391 1_545 S
C1154 C1155 1.400 1_545 S
C1155 C1154 1.400 1_565 S
C1155 C1156 1.398 . S
C1155 C1161 1.491 1_565 S
C1156 H1147 0.950 . S
C1156 C1155 1.398 . S
C1156 C1157 1.391 . S
C1157 H1145 0.950 . S
C1157 C1153 1.393 . S
C1157 C1156 1.391 . S
C1158 H1148 0.955 . S
C1158 C1159 1.386 . S
C1158 C1160 1.391 1_545 S
C1159 C1158 1.386 . S
C1159 C1163 1.393 . S
C1160 H1149 0.950 . S
C1160 C1158 1.391 1_565 S
C1160 C1161 1.400 1_565 S
C1161 C1155 1.491 1_545 S
C1161 C1160 1.400 1_545 S
C1161 C1162 1.398 . S
C1162 H1150 0.950 . S
C1162 C1161 1.398 . S
C1162 C1163 1.391 . S
C1163 H1151 0.950 . S
C1163 C1159 1.393 . S
C1163 C1162 1.391 . S
H1164 C1172 0.950 . S
H1165 C1177 0.950 . S
H1166 C1174 0.950 . S
H1167 C1176 0.950 . S
H1168 C1178 0.950 . S
H1169 C1180 0.950 . S
H1170 C1182 0.950 . S
H1171 C1183 0.950 . S
C1172 H1164 0.950 . S
C1172 C1173 1.386 1_565 S
C1172 C1174 1.391 . S
C1173 C1172 1.386 1_545 S
C1173 C1177 1.393 . S
C1174 H1166 0.950 . S
C1174 C1172 1.391 . S
C1174 C1175 1.400 1_565 S
C1175 C1174 1.400 1_545 S
C1175 C1176 1.398 . S
C1175 C1181 1.491 1_545 S
C1176 H1167 0.950 . S
C1176 C1175 1.398 . S
C1176 C1177 1.391 . S
C1177 H1165 0.950 . S
C1177 C1173 1.393 . S
C1177 C1176 1.391 . S
C1178 H1168 0.950 . S
C1178 C1179 1.386 1_545 S
C1178 C1180 1.391 . S
C1179 C1178 1.386 1_565 S
C1179 C1183 1.393 . S
C1180 H1169 0.950 . S
C1180 C1178 1.391 . S
C1180 C1181 1.400 1_545 S
C1181 C1175 1.491 1_565 S
C1181 C1180 1.400 1_565 S
C1181 C1182 1.398 . S
C1182 H1170 0.950 . S
C1182 C1181 1.398 . S
C1182 C1183 1.391 . S
C1183 H1171 0.950 . S
C1183 C1179 1.393 . S
C1183 C1182 1.391 . S
H1184 C1192 0.950 . S
H1185 C1197 0.950 . S
H1186 C1194 0.950 . S
H1187 C1196 0.950 . S
H1188 C1198 0.950 . S
H1189 C1200 0.950 . S
H1190 C1202 0.950 . S
H1191 C1203 0.950 . S
C1192 H1184 0.950 . S
C1192 C1193 1.386 . S
C1192 C1194 1.391 . S
C1193 C1192 1.386 . S
C1193 C1197 1.393 . S
C1194 H1186 0.950 . S
C1194 C1192 1.391 . S
C1194 C1195 1.400 . S
C1195 C1194 1.400 . S
C1195 C1196 1.398 . S
C1195 C1201 1.491 1_655 S
C1196 H1187 0.950 . S
C1196 C1195 1.398 . S
C1196 C1197 1.391 . S
C1197 H1185 0.950 . S
C1197 C1193 1.393 . S
C1197 C1196 1.391 . S
C1198 H1188 0.950 . S
C1198 C1199 1.386 . S
C1198 C1200 1.391 . S
C1199 C1198 1.386 . S
C1199 C1203 1.393 . S
C1200 H1189 0.950 . S
C1200 C1198 1.391 . S
C1200 C1201 1.400 . S
C1201 C1195 1.491 1_455 S
C1201 C1200 1.400 . S
C1201 C1202 1.398 . S
C1202 H1190 0.950 . S
C1202 C1201 1.398 . S
C1202 C1203 1.391 . S
C1203 H1191 0.950 . S
C1203 C1199 1.393 . S
C1203 C1202 1.391 . S
H1204 C1212 0.950 . S
H1205 C1217 0.950 . S
H1206 C1214 0.950 . S
H1207 C1216 0.950 . S
H1208 C1218 0.950 . S
H1209 C1220 0.950 . S
H1210 C1222 0.950 . S
H1211 C1223 0.950 . S
C1212 H1204 0.950 . S
C1212 C1213 1.386 . S
C1212 C1214 1.391 . S
C1213 C1212 1.386 . S
C1213 C1217 1.393 . S
C1214 H1206 0.950 . S
C1214 C1212 1.391 . S
C1214 C1215 1.400 . S
C1215 C1214 1.400 . S
C1215 C1216 1.398 . S
C1215 C1221 1.491 1_455 S
C1216 H1207 0.950 . S
C1216 C1215 1.398 . S
C1216 C1217 1.391 . S
C1217 H1205 0.950 . S
C1217 C1213 1.393 . S
C1217 C1216 1.391 . S
C1218 H1208 0.950 . S
C1218 C1219 1.386 . S
C1218 C1220 1.391 . S
C1219 C1218 1.386 . S
C1219 C1223 1.393 . S
C1220 H1209 0.950 . S
C1220 C1218 1.391 . S
C1220 C1221 1.400 . S
C1221 C1215 1.491 1_655 S
C1221 C1220 1.400 . S
C1221 C1222 1.398 . S
C1222 H1210 0.950 . S
C1222 C1221 1.398 . S
C1222 C1223 1.391 . S
C1223 H1211 0.950 . S
C1223 C1219 1.393 . S
C1223 C1222 1.391 . S
H1224 C1232 0.950 . S
H1225 C1237 0.950 . S
H1226 C1234 0.950 . S
H1227 C1236 0.950 . S
H1228 C1238 0.950 . S
H1229 C1240 0.950 . S
H1230 C1242 0.950 . S
H1231 C1243 0.950 . S
C1232 H1224 0.950 . S
C1232 C1233 1.386 . S
C1232 C1234 1.391 . S
C1233 C1232 1.386 . S
C1233 C1237 1.393 . S
C1234 H1226 0.950 . S
C1234 C1232 1.391 . S
C1234 C1235 1.400 . S
C1235 C1234 1.400 . S
C1235 C1236 1.398 . S
C1235 C1241 1.491 1_655 S
C1236 H1227 0.950 . S
C1236 C1235 1.398 . S
C1236 C1237 1.391 . S
C1237 H1225 0.950 . S
C1237 C1233 1.393 . S
C1237 C1236 1.391 . S
C1238 H1228 0.950 . S
C1238 C1239 1.386 . S
C1238 C1240 1.391 . S
C1239 C1238 1.386 . S
C1239 C1243 1.393 . S
C1240 H1229 0.950 . S
C1240 C1238 1.391 . S
C1240 C1241 1.400 . S
C1241 C1235 1.491 1_455 S
C1241 C1240 1.400 . S
C1241 C1242 1.398 . S
C1242 H1230 0.950 . S
C1242 C1241 1.398 . S
C1242 C1243 1.391 . S
C1243 H1231 0.950 . S
C1243 C1239 1.393 . S
C1243 C1242 1.391 . S
H1244 C1252 0.950 . S
H1245 C1257 0.950 . S
H1246 C1254 0.950 . S
H1247 C1256 0.950 . S
H1248 C1258 0.950 . S
H1249 C1260 0.950 . S
H1250 C1262 0.950 . S
H1251 C1263 0.950 . S
C1252 H1244 0.950 . S
C1252 C1253 1.386 . S
C1252 C1254 1.391 . S
C1253 C1252 1.386 . S
C1253 C1257 1.393 . S
C1254 H1246 0.950 . S
C1254 C1252 1.391 . S
C1254 C1255 1.400 . S
C1255 C1254 1.400 . S
C1255 C1256 1.398 . S
C1255 C1261 1.491 1_455 S
C1256 H1247 0.950 . S
C1256 C1255 1.398 . S
C1256 C1257 1.391 . S
C1257 H1245 0.950 . S
C1257 C1253 1.393 . S
C1257 C1256 1.391 . S
C1258 H1248 0.950 . S
C1258 C1259 1.386 . S
C1258 C1260 1.391 . S
C1259 C1258 1.386 . S
C1259 C1263 1.393 . S
C1260 H1249 0.950 . S
C1260 C1258 1.391 . S
C1260 C1261 1.400 . S
C1261 C1255 1.491 1_655 S
C1261 C1260 1.400 . S
C1261 C1262 1.398 . S
C1262 H1250 0.950 . S
C1262 C1261 1.398 . S
C1262 C1263 1.391 . S
C1263 H1251 0.950 . S
C1263 C1259 1.393 . S
C1263 C1262 1.391 . S
H1264 C1272 0.950 . S
H1265 C1277 0.950 . S
H1266 C1274 0.950 . S
H1267 C1276 0.950 . S
H1268 C1278 0.950 . S
H1269 C1280 0.950 . S
H1270 C1282 0.950 . S
H1271 C1283 0.950 . S
C1272 H1264 0.950 . S
C1272 C1273 1.386 . S
C1272 C1274 1.391 . S
C1273 C1272 1.386 . S
C1273 C1277 1.393 . S
C1274 H1266 0.950 . S
C1274 C1272 1.391 . S
C1274 C1275 1.400 . S
C1275 C1274 1.400 . S
C1275 C1276 1.398 . S
C1275 C1281 1.491 . S
C1276 H1267 0.950 . S
C1276 C1275 1.398 . S
C1276 C1277 1.391 . S
C1277 H1265 0.950 . S
C1277 C1273 1.393 . S
C1277 C1276 1.391 . S
C1278 H1268 0.950 . S
C1278 C1279 1.386 . S
C1278 C1280 1.391 . S
C1279 C1278 1.386 . S
C1279 C1283 1.393 . S
C1280 H1269 0.950 . S
C1280 C1278 1.391 . S
C1280 C1281 1.400 . S
C1281 C1275 1.491 . S
C1281 C1280 1.400 . S
C1281 C1282 1.398 . S
C1282 H1270 0.950 . S
C1282 C1281 1.398 . S
C1282 C1283 1.391 . S
C1283 H1271 0.950 . S
C1283 C1279 1.393 . S
C1283 C1282 1.391 . S
H1284 C1292 0.950 . S
H1285 C1297 0.950 . S
H1286 C1294 0.950 . S
H1287 C1296 0.950 . S
H1288 C1298 0.950 . S
H1289 C1300 0.950 . S
H1290 C1302 0.950 . S
H1291 C1303 0.950 . S
C1292 H1284 0.950 . S
C1292 C1293 1.386 . S
C1292 C1294 1.391 . S
C1293 C1292 1.386 . S
C1293 C1297 1.393 . S
C1294 H1286 0.950 . S
C1294 C1292 1.391 . S
C1294 C1295 1.400 . S
C1295 C1294 1.400 . S
C1295 C1296 1.398 . S
C1295 C1301 1.491 . S
C1296 H1287 0.950 . S
C1296 C1295 1.398 . S
C1296 C1297 1.391 . S
C1297 H1285 0.950 . S
C1297 C1293 1.393 . S
C1297 C1296 1.391 . S
C1298 H1288 0.950 . S
C1298 C1299 1.386 . S
C1298 C1300 1.391 . S
C1299 C1298 1.386 . S
C1299 C1303 1.393 . S
C1300 H1289 0.950 . S
C1300 C1298 1.391 . S
C1300 C1301 1.400 . S
C1301 C1295 1.491 . S
C1301 C1300 1.400 . S
C1301 C1302 1.398 . S
C1302 H1290 0.950 . S
C1302 C1301 1.398 . S
C1302 C1303 1.391 . S
C1303 H1291 0.950 . S
C1303 C1299 1.393 . S
C1303 C1302 1.391 . S
H1304 C1312 0.950 . S
H1305 C1317 0.950 . S
H1306 C1314 0.950 . S
H1307 C1316 0.950 . S
H1308 C1318 0.950 . S
H1309 C1320 0.950 . S
H1310 C1322 0.950 . S
H1311 C1323 0.950 . S
C1312 H1304 0.950 . S
C1312 C1313 1.386 . S
C1312 C1314 1.391 . S
C1313 C1312 1.386 . S
C1313 C1317 1.393 . S
C1314 H1306 0.950 . S
C1314 C1312 1.391 . S
C1314 C1315 1.400 . S
C1315 C1314 1.400 . S
C1315 C1316 1.398 . S
C1315 C1321 1.491 . S
C1316 H1307 0.950 . S
C1316 C1315 1.398 . S
C1316 C1317 1.391 . S
C1317 H1305 0.950 . S
C1317 C1313 1.393 . S
C1317 C1316 1.391 . S
C1318 H1308 0.950 . S
C1318 C1319 1.386 . S
C1318 C1320 1.391 . S
C1319 C1318 1.386 . S
C1319 C1323 1.393 . S
C1320 H1309 0.950 . S
C1320 C1318 1.391 . S
C1320 C1321 1.400 . S
C1321 C1315 1.491 . S
C1321 C1320 1.400 . S
C1321 C1322 1.398 . S
C1322 H1310 0.950 . S
C1322 C1321 1.398 . S
C1322 C1323 1.391 . S
C1323 H1311 0.950 . S
C1323 C1319 1.393 . S
C1323 C1322 1.391 . S
H1324 C1332 0.950 . S
H1325 C1337 0.950 . S
H1326 C1334 0.950 . S
H1327 C1336 0.950 . S
H1328 C1338 0.950 . S
H1329 C1340 0.950 . S
H1330 C1342 0.950 . S
H1331 C1343 0.950 . S
C1332 H1324 0.950 . S
C1332 C1333 1.386 . S
C1332 C1334 1.391 . S
C1333 C1332 1.386 . S
C1333 C1337 1.393 . S
C1334 H1326 0.950 . S
C1334 C1332 1.391 . S
C1334 C1335 1.400 . S
C1335 C1334 1.400 . S
C1335 C1336 1.398 . S
C1335 C1341 1.491 . S
C1336 H1327 0.950 . S
C1336 C1335 1.398 . S
C1336 C1337 1.391 . S
C1337 H1325 0.950 . S
C1337 C1333 1.393 . S
C1337 C1336 1.391 . S
C1338 H1328 0.950 . S
C1338 C1339 1.386 . S
C1338 C1340 1.391 . S
C1339 C1338 1.386 . S
C1339 C1343 1.393 . S
C1340 H1329 0.950 . S
C1340 C1338 1.391 . S
C1340 C1341 1.400 . S
C1341 C1335 1.491 . S
C1341 C1340 1.400 . S
C1341 C1342 1.398 . S
C1342 H1330 0.950 . S
C1342 C1341 1.398 . S
C1342 C1343 1.391 . S
C1343 H1331 0.950 . S
C1343 C1339 1.393 . S
C1343 C1342 1.391 . S
H1344 C1352 0.950 . S
H1345 C1357 0.950 . S
H1346 C1354 0.950 . S
H1347 C1356 0.950 . S
H1348 C1358 0.950 . S
H1349 C1360 0.950 . S
H1350 C1362 0.950 . S
H1351 C1363 0.950 . S
C1352 H1344 0.950 . S
C1352 C1353 1.386 . S
C1352 C1354 1.391 . S
C1353 C1352 1.386 . S
C1353 C1357 1.393 . S
C1354 H1346 0.950 . S
C1354 C1352 1.391 . S
C1354 C1355 1.400 . S
C1355 C1354 1.400 . S
C1355 C1356 1.398 . S
C1355 C1361 1.491 . S
C1356 H1347 0.950 . S
C1356 C1355 1.398 . S
C1356 C1357 1.391 . S
C1357 H1345 0.950 . S
C1357 C1353 1.393 . S
C1357 C1356 1.391 . S
C1358 H1348 0.950 . S
C1358 C1359 1.386 . S
C1358 C1360 1.391 . S
C1359 C1358 1.386 . S
C1359 C1363 1.393 . S
C1360 H1349 0.950 . S
C1360 C1358 1.391 . S
C1360 C1361 1.400 . S
C1361 C1355 1.491 . S
C1361 C1360 1.400 . S
C1361 C1362 1.398 . S
C1362 H1350 0.950 . S
C1362 C1361 1.398 . S
C1362 C1363 1.391 . S
C1363 H1351 0.950 . S
C1363 C1359 1.393 . S
C1363 C1362 1.391 . S
H1364 C1372 0.950 . S
H1365 C1377 0.950 . S
H1366 C1374 0.950 . S
H1367 C1376 0.950 . S
H1368 C1378 0.950 . S
H1369 C1380 0.950 . S
H1370 C1382 0.950 . S
H1371 C1383 0.950 . S
C1372 H1364 0.950 . S
C1372 C1373 1.386 . S
C1372 C1374 1.391 . S
C1373 C1372 1.386 . S
C1373 C1377 1.393 . S
C1374 H1366 0.950 . S
C1374 C1372 1.391 . S
C1374 C1375 1.400 . S
C1375 C1374 1.400 . S
C1375 C1376 1.398 . S
C1375 C1381 1.491 . S
C1376 H1367 0.950 . S
C1376 C1375 1.398 . S
C1376 C1377 1.391 . S
C1377 H1365 0.950 . S
C1377 C1373 1.393 . S
C1377 C1376 1.391 . S
C1378 H1368 0.950 . S
C1378 C1379 1.386 . S
C1378 C1380 1.391 . S
C1379 C1378 1.386 . S
C1379 C1383 1.393 . S
C1380 H1369 0.950 . S
C1380 C1378 1.391 . S
C1380 C1381 1.400 . S
C1381 C1375 1.491 . S
C1381 C1380 1.400 . S
C1381 C1382 1.398 . S
C1382 H1370 0.950 . S
C1382 C1381 1.398 . S
C1382 C1383 1.391 . S
C1383 H1371 0.950 . S
C1383 C1379 1.393 . S
C1383 C1382 1.391 . S
H1384 C1392 0.950 . S
H1385 C1397 0.950 . S
H1386 C1394 0.950 . S
H1387 C1396 0.950 . S
H1388 C1398 0.950 . S
H1389 C1400 0.950 . S
H1390 C1402 0.950 . S
H1391 C1403 0.950 . S
C1392 H1384 0.950 . S
C1392 C1393 1.386 . S
C1392 C1394 1.391 . S
C1393 C1392 1.386 . S
C1393 C1397 1.393 . S
C1394 H1386 0.950 . S
C1394 C1392 1.391 . S
C1394 C1395 1.400 . S
C1395 C1394 1.400 . S
C1395 C1396 1.398 . S
C1395 C1401 1.491 . S
C1396 H1387 0.950 . S
C1396 C1395 1.398 . S
C1396 C1397 1.391 . S
C1397 H1385 0.950 . S
C1397 C1393 1.393 . S
C1397 C1396 1.391 . S
C1398 H1388 0.950 . S
C1398 C1399 1.386 . S
C1398 C1400 1.391 . S
C1399 C1398 1.386 . S
C1399 C1403 1.393 . S
C1400 H1389 0.950 . S
C1400 C1398 1.391 . S
C1400 C1401 1.400 . S
C1401 C1395 1.491 . S
C1401 C1400 1.400 . S
C1401 C1402 1.398 . S
C1402 H1390 0.950 . S
C1402 C1401 1.398 . S
C1402 C1403 1.391 . S
C1403 H1391 0.950 . S
C1403 C1399 1.393 . S
C1403 C1402 1.391 . S
H1404 C1412 0.950 . S
H1405 C1417 0.950 . S
H1406 C1414 0.950 . S
H1407 C1416 0.950 . S
H1408 C1418 0.950 . S
H1409 C1420 0.950 . S
H1410 C1422 0.950 . S
H1411 C1423 0.950 . S
C1412 H1404 0.950 . S
C1412 C1413 1.386 . S
C1412 C1414 1.391 . S
C1413 C1412 1.386 . S
C1413 C1417 1.393 . S
C1414 H1406 0.950 . S
C1414 C1412 1.391 . S
C1414 C1415 1.400 . S
C1415 C1414 1.400 . S
C1415 C1416 1.398 . S
C1415 C1421 1.491 . S
C1416 H1407 0.950 . S
C1416 C1415 1.398 . S
C1416 C1417 1.391 . S
C1417 H1405 0.950 . S
C1417 C1413 1.393 . S
C1417 C1416 1.391 . S
C1418 H1408 0.950 . S
C1418 C1419 1.386 . S
C1418 C1420 1.391 . S
C1419 C1418 1.386 . S
C1419 C1423 1.393 . S
C1420 H1409 0.950 . S
C1420 C1418 1.391 . S
C1420 C1421 1.400 . S
C1421 C1415 1.491 . S
C1421 C1420 1.400 . S
C1421 C1422 1.398 . S
C1422 H1410 0.950 . S
C1422 C1421 1.398 . S
C1422 C1423 1.391 . S
C1423 H1411 0.950 . S
C1423 C1419 1.393 . S
C1423 C1422 1.391 . S
H1424 C1432 0.950 . S
H1425 C1437 0.950 . S
H1426 C1434 0.950 . S
H1427 C1436 0.950 . S
H1428 C1438 0.950 . S
H1429 C1440 0.950 . S
H1430 C1442 0.950 . S
H1431 C1443 0.950 . S
C1432 H1424 0.950 . S
C1432 C1433 1.386 1_565 S
C1432 C1434 1.391 . S
C1433 C1432 1.386 1_545 S
C1433 C1437 1.393 . S
C1434 H1426 0.950 . S
C1434 C1432 1.391 . S
C1434 C1435 1.400 1_565 S
C1435 C1434 1.400 1_545 S
C1435 C1436 1.398 . S
C1435 C1441 1.491 1_545 S
C1436 H1427 0.950 . S
C1436 C1435 1.398 . S
C1436 C1437 1.391 . S
C1437 H1425 0.950 . S
C1437 C1433 1.393 . S
C1437 C1436 1.391 . S
C1438 H1428 0.950 . S
C1438 C1439 1.386 1_545 S
C1438 C1440 1.391 . S
C1439 C1438 1.386 1_565 S
C1439 C1443 1.393 . S
C1440 H1429 0.950 . S
C1440 C1438 1.391 . S
C1440 C1441 1.400 1_545 S
C1441 C1435 1.491 1_565 S
C1441 C1440 1.400 1_565 S
C1441 C1442 1.398 . S
C1442 H1430 0.950 . S
C1442 C1441 1.398 . S
C1442 C1443 1.391 . S
C1443 H1431 0.950 . S
C1443 C1439 1.393 . S
C1443 C1442 1.391 . S
H1444 C1452 0.950 . S
H1445 C1457 0.950 . S
H1446 C1454 0.950 . S
H1447 C1456 0.950 . S
H1448 C1458 0.950 . S
H1449 C1460 0.950 . S
H1450 C1462 0.950 . S
H1451 C1463 0.950 . S
C1452 H1444 0.950 . S
C1452 C1453 1.386 . S
C1452 C1454 1.391 . S
C1453 C1452 1.386 . S
C1453 C1457 1.393 . S
C1454 H1446 0.950 . S
C1454 C1452 1.391 . S
C1454 C1455 1.400 . S
C1455 C1454 1.400 . S
C1455 C1456 1.398 . S
C1455 C1461 1.491 1_545 S
C1456 H1447 0.950 . S
C1456 C1455 1.398 . S
C1456 C1457 1.391 . S
C1457 H1445 0.950 . S
C1457 C1453 1.393 . S
C1457 C1456 1.391 . S
C1458 H1448 0.950 . S
C1458 C1459 1.386 . S
C1458 C1460 1.391 . S
C1459 C1458 1.386 . S
C1459 C1463 1.393 . S
C1460 H1449 0.950 . S
C1460 C1458 1.391 . S
C1460 C1461 1.400 . S
C1461 C1455 1.491 1_565 S
C1461 C1460 1.400 . S
C1461 C1462 1.398 . S
C1462 H1450 0.950 . S
C1462 C1461 1.398 . S
C1462 C1463 1.391 . S
C1463 H1451 0.950 . S
C1463 C1459 1.393 . S
C1463 C1462 1.391 . S
H1464 C1472 0.950 . S
H1465 C1477 0.950 . S
H1466 C1474 0.950 . S
H1467 C1476 0.950 . S
H1468 C1478 0.950 . S
H1469 C1480 0.950 . S
H1470 C1482 0.950 . S
H1471 C1483 0.950 . S
C1472 H1464 0.950 . S
C1472 C1473 1.386 . S
C1472 C1474 1.391 . S
C1473 C1472 1.386 . S
C1473 C1477 1.393 1_545 S
C1474 H1466 0.950 . S
C1474 C1472 1.391 . S
C1474 C1475 1.400 . S
C1475 C1474 1.400 . S
C1475 C1476 1.398 1_545 S
C1475 C1481 1.491 1_545 S
C1476 H1467 0.950 . S
C1476 C1475 1.398 1_565 S
C1476 C1477 1.391 . S
C1477 H1465 0.950 . S
C1477 C1473 1.393 1_565 S
C1477 C1476 1.391 . S
C1478 H1468 0.950 . S
C1478 C1479 1.386 . S
C1478 C1480 1.391 . S
C1479 C1478 1.386 . S
C1479 C1483 1.393 1_565 S
C1480 H1469 0.950 . S
C1480 C1478 1.391 . S
C1480 C1481 1.400 . S
C1481 C1475 1.491 1_565 S
C1481 C1480 1.400 . S
C1481 C1482 1.398 1_565 S
C1482 H1470 0.950 . S
C1482 C1481 1.398 1_545 S
C1482 C1483 1.391 . S
C1483 H1471 0.950 . S
C1483 C1479 1.393 1_545 S
C1483 C1482 1.391 . S
H1484 C1492 0.949 1_545 S
H1485 C1497 0.950 . S
H1486 C1494 0.950 . S
H1487 C1496 0.950 . S
H1488 C1498 0.949 1_565 S
H1489 C1500 0.950 . S
H1490 C1502 0.950 . S
H1491 C1503 0.950 . S
C1492 H1484 0.949 1_565 S
C1492 C1493 1.387 . S
C1492 C1494 1.391 1_565 S
C1493 C1492 1.387 . S
C1493 C1497 1.393 . S
C1494 H1486 0.950 . S
C1494 C1492 1.391 1_545 S
C1494 C1495 1.400 1_545 S
C1495 C1494 1.400 1_565 S
C1495 C1496 1.398 . S
C1495 C1501 1.491 1_565 S
C1496 H1487 0.950 . S
C1496 C1495 1.398 . S
C1496 C1497 1.391 . S
C1497 H1485 0.950 . S
C1497 C1493 1.393 . S
C1497 C1496 1.391 . S
C1498 H1488 0.949 1_545 S
C1498 C1499 1.387 . S
C1498 C1500 1.391 1_545 S
C1499 C1498 1.387 . S
C1499 C1503 1.393 . S
C1500 H1489 0.950 . S
C1500 C1498 1.391 1_565 S
C1500 C1501 1.400 1_565 S
C1501 C1495 1.491 1_545 S
C1501 C1500 1.400 1_545 S
C1501 C1502 1.398 . S
C1502 H1490 0.950 . S
C1502 C1501 1.398 . S
C1502 C1503 1.391 . S
C1503 H1491 0.950 . S
C1503 C1499 1.393 . S
C1503 C1502 1.391 . S
H1504 C1512 0.950 . S
H1505 C1517 0.950 . S
H1506 C1514 0.950 . S
H1507 C1516 0.950 . S
H1508 C1518 0.950 . S
H1509 C1520 0.950 . S
H1510 C1522 0.950 . S
H1511 C1523 0.950 . S
C1512 H1504 0.950 . S
C1512 C1513 1.386 . S
C1512 C1514 1.391 . S
C1513 C1512 1.386 . S
C1513 C1517 1.393 . S
C1514 H1506 0.950 . S
C1514 C1512 1.391 . S
C1514 C1515 1.400 . S
C1515 C1514 1.400 . S
C1515 C1516 1.398 . S
C1515 C1521 1.491 . S
C1516 H1507 0.950 . S
C1516 C1515 1.398 . S
C1516 C1517 1.391 . S
C1517 H1505 0.950 . S
C1517 C1513 1.393 . S
C1517 C1516 1.391 . S
C1518 H1508 0.950 . S
C1518 C1519 1.386 . S
C1518 C1520 1.391 . S
C1519 C1518 1.386 . S
C1519 C1523 1.393 . S
C1520 H1509 0.950 . S
C1520 C1518 1.391 . S
C1520 C1521 1.400 . S
C1521 C1515 1.491 . S
C1521 C1520 1.400 . S
C1521 C1522 1.398 . S
C1522 H1510 0.950 . S
C1522 C1521 1.398 . S
C1522 C1523 1.391 . S
C1523 H1511 0.950 . S
C1523 C1519 1.393 . S
C1523 C1522 1.391 . S
H1524 C1532 0.950 . S
H1525 C1537 0.950 . S
H1526 C1534 0.950 . S
H1527 C1536 0.950 . S
H1528 C1538 0.950 . S
H1529 C1540 0.950 . S
H1530 C1542 0.950 . S
H1531 C1543 0.950 . S
C1532 H1524 0.950 . S
C1532 C1533 1.386 . S
C1532 C1534 1.391 . S
C1533 C1532 1.386 . S
C1533 C1537 1.393 . S
C1534 H1526 0.950 . S
C1534 C1532 1.391 . S
C1534 C1535 1.400 . S
C1535 C1534 1.400 . S
C1535 C1536 1.398 . S
C1535 C1541 1.491 . S
C1536 H1527 0.950 . S
C1536 C1535 1.398 . S
C1536 C1537 1.391 . S
C1537 H1525 0.950 . S
C1537 C1533 1.393 . S
C1537 C1536 1.391 . S
C1538 H1528 0.950 . S
C1538 C1539 1.386 . S
C1538 C1540 1.391 . S
C1539 C1538 1.386 . S
C1539 C1543 1.393 . S
C1540 H1529 0.950 . S
C1540 C1538 1.391 . S
C1540 C1541 1.400 . S
C1541 C1535 1.491 . S
C1541 C1540 1.400 . S
C1541 C1542 1.398 . S
C1542 H1530 0.950 . S
C1542 C1541 1.398 . S
C1542 C1543 1.391 . S
C1543 H1531 0.950 . S
C1543 C1539 1.393 . S
C1543 C1542 1.391 . S
H1544 C1552 0.950 . S
H1545 C1557 0.950 . S
H1546 C1554 0.950 . S
H1547 C1556 0.950 . S
H1548 C1558 0.950 . S
H1549 C1560 0.950 . S
H1550 C1562 0.950 . S
H1551 C1563 0.950 . S
C1552 H1544 0.950 . S
C1552 C1553 1.386 . S
C1552 C1554 1.391 . S
C1553 C1552 1.386 . S
C1553 C1557 1.393 . S
C1554 H1546 0.950 . S
C1554 C1552 1.391 . S
C1554 C1555 1.400 . S
C1555 C1554 1.400 . S
C1555 C1556 1.398 . S
C1555 C1561 1.491 . S
C1556 H1547 0.950 . S
C1556 C1555 1.398 . S
C1556 C1557 1.391 . S
C1557 H1545 0.950 . S
C1557 C1553 1.393 . S
C1557 C1556 1.391 . S
C1558 H1548 0.950 . S
C1558 C1559 1.386 . S
C1558 C1560 1.391 . S
C1559 C1558 1.386 . S
C1559 C1563 1.393 . S
C1560 H1549 0.950 . S
C1560 C1558 1.391 . S
C1560 C1561 1.400 . S
C1561 C1555 1.491 . S
C1561 C1560 1.400 . S
C1561 C1562 1.398 . S
C1562 H1550 0.950 . S
C1562 C1561 1.398 . S
C1562 C1563 1.391 . S
C1563 H1551 0.950 . S
C1563 C1559 1.393 . S
C1563 C1562 1.391 . S
H1564 C1572 0.950 . S
H1565 C1577 0.950 . S
H1566 C1574 0.950 . S
H1567 C1576 0.950 . S
H1568 C1578 0.950 . S
H1569 C1580 0.950 . S
H1570 C1582 0.950 . S
H1571 C1583 0.950 . S
C1572 H1564 0.950 . S
C1572 C1573 1.386 . S
C1572 C1574 1.391 . S
C1573 C1572 1.386 . S
C1573 C1577 1.393 . S
C1574 H1566 0.950 . S
C1574 C1572 1.391 . S
C1574 C1575 1.400 . S
C1575 C1574 1.400 . S
C1575 C1576 1.398 . S
C1575 C1581 1.491 . S
C1576 H1567 0.950 . S
C1576 C1575 1.398 . S
C1576 C1577 1.391 . S
C1577 H1565 0.950 . S
C1577 C1573 1.393 . S
C1577 C1576 1.391 . S
C1578 H1568 0.950 . S
C1578 C1579 1.386 . S
C1578 C1580 1.391 . S
C1579 C1578 1.386 . S
C1579 C1583 1.393 . S
C1580 H1569 0.950 . S
C1580 C1578 1.391 . S
C1580 C1581 1.400 . S
C1581 C1575 1.491 . S
C1581 C1580 1.400 . S
C1581 C1582 1.398 . S
C1582 H1570 0.950 . S
C1582 C1581 1.398 . S
C1582 C1583 1.391 . S
C1583 H1571 0.950 . S
C1583 C1579 1.393 . S
C1583 C1582 1.391 . S
C953 C3 1.385 . S
C959 C298 1.369 . S
C973 C239 1.375 . S
C979 C62 1.379 . S
C993 C121 1.380 . S
C999 C416 1.374 . S
C1013 C357 1.370 . S
C1019 C180 1.383 . S
C1033 C770 1.385 . S
C1039 C475 1.369 . S
C1053 C711 1.375 . S
C1059 C534 1.378 . S
C1073 C888 1.380 . S
C1079 C593 1.374 . S
C1093 C652 1.368 . S
C1099 C829 1.386 . S
C1113 C111 1.500 . S
C1119 C52 1.493 . S
C1133 C170 1.494 . S
C1139 C229 1.499 . S
C1153 C288 1.495 . S
C1159 C347 1.498 . S
C1173 C406 1.493 . S
C1179 C465 1.499 . S
C1193 C524 1.493 . S
C1199 C583 1.499 . S
C1213 C701 1.494 . S
C1219 C642 1.499 . S
C1233 C819 1.497 . S
C1239 C760 1.496 . S
C1253 C878 1.500 . S
C1259 C937 1.492 . S
C1273 C536 1.499 . S
C1279 C5 1.500 . S
C1293 C64 1.500 . S
C1299 C477 1.498 . S
C1313 C654 1.497 . S
C1319 C123 1.498 . S
C1333 C182 1.498 . S
C1339 C595 1.498 . S
C1353 C241 1.500 . S
C1359 C772 1.500 . S
C1373 C713 1.499 . S
C1379 C300 1.497 . S
C1393 C359 1.499 . S
C1399 C890 1.500 . S
C1413 C831 1.498 . S
C1419 C418 1.500 . S
C1433 C33 1.260 . S
C1439 C151 1.256 . S
C1453 C210 1.257 . S
C1459 C92 1.259 . S
C1473 C387 1.271 . S
C1479 C269 1.261 . S
C1493 C446 1.257 . S
C1499 C328 1.258 . S
C1513 C623 1.268 . S
C1519 C505 1.277 . S
C1533 C564 1.262 . S
C1539 C682 1.273 . S
C1553 C859 1.279 . S
C1559 C741 1.271 . S
C1573 C800 1.271 . S
C1579 C918 1.278 . S
