# Generated by pormake.
# Topology ukk, (4)-cn, num edge types: 1
# Building blocks:
#     Node 0, Type 0, BuildingBlock: NAWXER_clean_sbu_0, # of connection points: 4
#     Node 1, Type 0, BuildingBlock: NAWXER_clean_sbu_0, # of connection points: 4
#     Node 2, Type 0, BuildingBlock: NAWXER_clean_sbu_0, # of connection points: 4
#     Node 3, Type 0, BuildingBlock: NAWXER_clean_sbu_0, # of connection points: 4
#     Node 4, Type 0, BuildingBlock: NAWXER_clean_sbu_0, # of connection points: 4
#     Node 5, Type 0, BuildingBlock: NAWXER_clean_sbu_0, # of connection points: 4
#     Node 6, Type 0, BuildingBlock: NAWXER_clean_sbu_0, # of connection points: 4
#     Node 7, Type 0, BuildingBlock: NAWXER_clean_sbu_0, # of connection points: 4
#     Node 8, Type 0, BuildingBlock: NAWXER_clean_sbu_0, # of connection points: 4
#     Node 9, Type 0, BuildingBlock: NAWXER_clean_sbu_0, # of connection points: 4
#     Node 10, Type 0, BuildingBlock: NAWXER_clean_sbu_0, # of connection points: 4
#     Node 11, Type 0, BuildingBlock: NAWXER_clean_sbu_0, # of connection points: 4
#     Node 12, Type 0, BuildingBlock: NAWXER_clean_sbu_0, # of connection points: 4
#     Node 13, Type 0, BuildingBlock: NAWXER_clean_sbu_0, # of connection points: 4
#     Node 14, Type 0, BuildingBlock: NAWXER_clean_sbu_0, # of connection points: 4
#     Node 15, Type 0, BuildingBlock: NAWXER_clean_sbu_0, # of connection points: 4
#     Edge 16, Type (0, 0), BuildingBlock: XIVTED_clean_linker_0, # of connection points: 2
#     Edge 17, Type (0, 0), BuildingBlock: XIVTED_clean_linker_0, # of connection points: 2
#     Edge 18, Type (0, 0), BuildingBlock: XIVTED_clean_linker_0, # of connection points: 2
#     Edge 19, Type (0, 0), BuildingBlock: XIVTED_clean_linker_0, # of connection points: 2
#     Edge 20, Type (0, 0), BuildingBlock: XIVTED_clean_linker_0, # of connection points: 2
#     Edge 21, Type (0, 0), BuildingBlock: XIVTED_clean_linker_0, # of connection points: 2
#     Edge 22, Type (0, 0), BuildingBlock: XIVTED_clean_linker_0, # of connection points: 2
#     Edge 23, Type (0, 0), BuildingBlock: XIVTED_clean_linker_0, # of connection points: 2
#     Edge 24, Type (0, 0), BuildingBlock: XIVTED_clean_linker_0, # of connection points: 2
#     Edge 25, Type (0, 0), BuildingBlock: XIVTED_clean_linker_0, # of connection points: 2
#     Edge 26, Type (0, 0), BuildingBlock: XIVTED_clean_linker_0, # of connection points: 2
#     Edge 27, Type (0, 0), BuildingBlock: XIVTED_clean_linker_0, # of connection points: 2
#     Edge 28, Type (0, 0), BuildingBlock: XIVTED_clean_linker_0, # of connection points: 2
#     Edge 29, Type (0, 0), BuildingBlock: XIVTED_clean_linker_0, # of connection points: 2
#     Edge 30, Type (0, 0), BuildingBlock: XIVTED_clean_linker_0, # of connection points: 2
#     Edge 31, Type (0, 0), BuildingBlock: XIVTED_clean_linker_0, # of connection points: 2
#     Edge 32, Type (0, 0), BuildingBlock: XIVTED_clean_linker_0, # of connection points: 2
#     Edge 33, Type (0, 0), BuildingBlock: XIVTED_clean_linker_0, # of connection points: 2
#     Edge 34, Type (0, 0), BuildingBlock: XIVTED_clean_linker_0, # of connection points: 2
#     Edge 35, Type (0, 0), BuildingBlock: XIVTED_clean_linker_0, # of connection points: 2
#     Edge 36, Type (0, 0), BuildingBlock: XIVTED_clean_linker_0, # of connection points: 2
#     Edge 37, Type (0, 0), BuildingBlock: XIVTED_clean_linker_0, # of connection points: 2
#     Edge 38, Type (0, 0), BuildingBlock: XIVTED_clean_linker_0, # of connection points: 2
#     Edge 39, Type (0, 0), BuildingBlock: XIVTED_clean_linker_0, # of connection points: 2
#     Edge 40, Type (0, 0), BuildingBlock: XIVTED_clean_linker_0, # of connection points: 2
#     Edge 41, Type (0, 0), BuildingBlock: XIVTED_clean_linker_0, # of connection points: 2
#     Edge 42, Type (0, 0), BuildingBlock: XIVTED_clean_linker_0, # of connection points: 2
#     Edge 43, Type (0, 0), BuildingBlock: XIVTED_clean_linker_0, # of connection points: 2
#     Edge 44, Type (0, 0), BuildingBlock: XIVTED_clean_linker_0, # of connection points: 2
#     Edge 45, Type (0, 0), BuildingBlock: XIVTED_clean_linker_0, # of connection points: 2
#     Edge 46, Type (0, 0), BuildingBlock: XIVTED_clean_linker_0, # of connection points: 2
#     Edge 47, Type (0, 0), BuildingBlock: XIVTED_clean_linker_0, # of connection points: 2
# Relax obj value: 0.021
# Max RMSD: 0.113
# Mean RMSD: 0.113
data_MOF--net-ukk--node1-NAWXER_clean_sbu_0--edge1-XIVTED_clean_linker_0
_symmetry_space_group_name_H-M    P1
_symmetry_Int_Tables_number       1
_symmetry_cell_setting            triclinic
loop_
_symmetry_equiv_pos_as_xyz
'x, y, z'
_cell_length_a     57.847125
_cell_length_b     57.95878
_cell_length_c     12.25173
_cell_angle_alpha  89.966736
_cell_angle_beta   90.033278
_cell_angle_gamma 89.96456
loop_
_atom_site_label
_atom_site_type_symbol
_atom_site_fract_x
_atom_site_fract_y
_atom_site_fract_z
_atom_type_partial_charge
C0 C 0.36222 0.17192 0.25479 0.0
C1 C 0.36169 0.08926 0.34469 0.0
O2 O 0.36857 0.15886 0.17605 0.0
Zn3 Zn 0.37373 0.12317 0.14415 0.0
O4 O 0.35702 0.16294 0.34639 0.0
Zn5 Zn 0.36197 0.13071 0.30704 0.0
O6 O 0.39851 0.12865 0.28956 0.0
O7 O 0.40688 0.12104 0.11777 0.0
O8 O 0.35664 0.10553 0.41042 0.0
O9 O 0.36799 0.09405 0.24705 0.0
O10 O 0.35134 0.1175 0.02877 0.0
O11 O 0.33536 0.12456 0.18903 0.0
C12 C 0.41355 0.12475 0.21522 0.0
C13 C 0.3333 0.11969 0.08741 0.0
C14 C 0.13236 0.5924 0.83169 0.0
C15 C 0.12601 0.67429 0.90972 0.0
O16 O 0.13078 0.60249 0.92322 0.0
Zn17 Zn 0.12913 0.63339 0.8671 0.0
O18 O 0.13243 0.60447 0.74365 0.0
Zn19 Zn 0.13065 0.64078 0.70009 0.0
O20 O 0.15973 0.64529 0.62561 0.0
O21 O 0.16349 0.63879 0.80216 0.0
O22 O 0.12759 0.67093 0.80621 0.0
O23 O 0.12617 0.65707 0.97363 0.0
O24 O 0.09606 0.63393 0.78442 0.0
O25 O 0.10308 0.64207 0.61187 0.0
C26 C 0.17264 0.64294 0.70869 0.0
C27 C 0.0887 0.63738 0.68685 0.0
C28 C 0.58427 0.88586 0.06803 0.0
C29 C 0.66419 0.89068 0.92965 0.0
O30 O 0.60018 0.88407 0.14003 0.0
Zn31 Zn 0.63646 0.8833 0.15415 0.0
O32 O 0.58979 0.88789 0.96779 0.0
Zn33 Zn 0.62362 0.88775 0.98768 0.0
O34 O 0.63056 0.85327 0.03396 0.0
O35 O 0.64275 0.85183 0.20454 0.0
O36 O 0.64627 0.8915 0.86892 0.0
O37 O 0.66193 0.88764 0.03247 0.0
O38 O 0.64236 0.9107 0.24207 0.0
O39 O 0.62955 0.91873 0.07636 0.0
C40 C 0.63778 0.84155 0.11569 0.0
C41 C 0.63674 0.92554 0.16984 0.0
C42 C 0.88207 0.41335 0.89594 0.0
C43 C 0.88787 0.33291 0.01281 0.0
O44 O 0.8845 0.40584 0.99277 0.0
Zn45 Zn 0.88558 0.37329 0.95571 0.0
O46 O 0.88124 0.399 0.81636 0.0
Zn47 Zn 0.88257 0.36237 0.79082 0.0
O48 O 0.85267 0.35645 0.72661 0.0
O49 O 0.85093 0.36699 0.89956 0.0
O50 O 0.88575 0.33497 0.90895 0.0
O51 O 0.88878 0.35091 0.0718 0.0
O52 O 0.91765 0.37033 0.86787 0.0
O53 O 0.9097 0.35887 0.7003 0.0
C54 C 0.84075 0.36077 0.8113 0.0
C55 C 0.92448 0.36483 0.77162 0.0
C56 C 0.42372 0.38709 0.17802 0.0
C57 C 0.34372 0.39178 0.31492 0.0
O58 O 0.40788 0.38548 0.10557 0.0
Zn59 Zn 0.37161 0.38487 0.09056 0.0
O60 O 0.4181 0.38901 0.27816 0.0
Zn61 Zn 0.38431 0.389 0.2574 0.0
O62 O 0.37741 0.35456 0.21004 0.0
O63 O 0.36534 0.35338 0.03931 0.0
O64 O 0.3616 0.3925 0.37594 0.0
O65 O 0.34606 0.38896 0.21201 0.0
O66 O 0.36578 0.41258 0.00373 0.0
O67 O 0.37844 0.42023 0.16995 0.0
C68 C 0.37026 0.34294 0.12792 0.0
C69 C 0.37133 0.42727 0.07667 0.0
C70 C 0.3716 0.59824 0.96101 0.0
C71 C 0.3896 0.68017 0.89422 0.0
O72 O 0.37673 0.60346 0.86252 0.0
Zn73 Zn 0.3861 0.63199 0.76506 0.0
O74 O 0.3714 0.61393 0.03394 0.0
Zn75 Zn 0.37998 0.63981 0.93852 0.0
O76 O 0.35091 0.64268 0.83577 0.0
O77 O 0.35937 0.63398 0.66494 0.0
O78 O 0.38354 0.67207 0.98669 0.0
O79 O 0.3908 0.66679 0.81141 0.0
O80 O 0.41789 0.62386 0.72182 0.0
O81 O 0.41426 0.63081 0.89823 0.0
C82 C 0.34464 0.64035 0.73626 0.0
C83 C 0.42687 0.62516 0.81677 0.0
C84 C 0.67489 0.61887 0.15118 0.0
C85 C 0.59464 0.62322 0.02212 0.0
O86 O 0.67288 0.62388 0.04962 0.0
Zn87 Zn 0.6462 0.6299 0.93119 0.0
O88 O 0.65681 0.61638 0.20923 0.0
Zn89 Zn 0.63449 0.62197 0.09352 0.0
O90 O 0.6408 0.59315 0.98994 0.0
O91 O 0.65195 0.60509 0.82685 0.0
O92 O 0.60139 0.61936 0.11933 0.0
O93 O 0.60962 0.62746 0.94792 0.0
O94 O 0.6509 0.66212 0.8925 0.0
O95 O 0.63933 0.65773 0.06272 0.0
C96 C 0.64721 0.58866 0.89219 0.0
C97 C 0.64562 0.67092 0.98433 0.0
C98 C 0.62841 0.42043 0.73942 0.0
C99 C 0.61525 0.34106 0.62812 0.0
O100 O 0.62269 0.4129 0.64596 0.0
Zn101 Zn 0.62067 0.38082 0.68638 0.0
O102 O 0.63033 0.40628 0.81959 0.0
Zn103 Zn 0.6268 0.36965 0.84647 0.0
O104 O 0.6569 0.36151 0.89736 0.0
O105 O 0.65648 0.3727 0.72523 0.0
O106 O 0.61945 0.34262 0.73075 0.0
O107 O 0.61411 0.35925 0.57066 0.0
O108 O 0.59029 0.3798 0.79197 0.0
O109 O 0.60258 0.3675 0.95208 0.0
C110 C 0.66769 0.36553 0.80924 0.0
C111 C 0.58615 0.37447 0.89204 0.0
C112 C 0.86514 0.6635 0.61087 0.0
C113 C 0.87064 0.58093 0.69212 0.0
O114 O 0.87114 0.65126 0.52859 0.0
Zn115 Zn 0.87774 0.61592 0.49064 0.0
O116 O 0.86164 0.65377 0.70253 0.0
Zn117 Zn 0.86788 0.62237 0.65596 0.0
O118 O 0.90433 0.6233 0.62502 0.0
O119 O 0.91022 0.61641 0.45021 0.0
O120 O 0.86527 0.59688 0.75875 0.0
O121 O 0.87542 0.58607 0.59285 0.0
O122 O 0.85431 0.60994 0.38142 0.0
O123 O 0.83975 0.61615 0.54526 0.0
C124 C 0.91827 0.62083 0.54454 0.0
C125 C 0.8368 0.61176 0.44361 0.0
C126 C 0.63551 0.09588 0.29627 0.0
C127 C 0.62279 0.17813 0.37486 0.0
O128 O 0.62979 0.10067 0.39459 0.0
Zn129 Zn 0.62133 0.12915 0.4955 0.0
O130 O 0.63716 0.112 0.22568 0.0
Zn131 Zn 0.62989 0.13742 0.32532 0.0
O132 O 0.65832 0.13506 0.43326 0.0
O133 O 0.64679 0.12821 0.60234 0.0
O134 O 0.62959 0.17029 0.2832 0.0
O135 O 0.61964 0.16428 0.45468 0.0
O136 O 0.5888 0.12276 0.53027 0.0
O137 O 0.59458 0.13061 0.35602 0.0
C138 C 0.66304 0.13155 0.53391 0.0
C139 C 0.58085 0.12528 0.43387 0.0
C140 C 0.09439 0.37698 0.61286 0.0
C141 C 0.17734 0.38502 0.53824 0.0
O142 O 0.1074 0.37624 0.69744 0.0
Zn143 Zn 0.14292 0.37781 0.74135 0.0
O144 O 0.10347 0.37944 0.51891 0.0
Zn145 Zn 0.1356 0.38096 0.56822 0.0
O146 O 0.14171 0.34693 0.62384 0.0
O147 O 0.14814 0.34692 0.80146 0.0
O148 O 0.16114 0.38536 0.46776 0.0
O149 O 0.17245 0.3823 0.63939 0.0
O150 O 0.14392 0.40593 0.8304 0.0
O151 O 0.13642 0.41236 0.65637 0.0
C152 C 0.14625 0.33593 0.71187 0.0
C153 C 0.1397 0.42004 0.75308 0.0
C154 C 0.37967 0.92076 0.50578 0.0
C155 C 0.39329 0.84179 0.62517 0.0
O156 O 0.3851 0.91352 0.60019 0.0
Zn157 Zn 0.3873 0.88128 0.56267 0.0
O158 O 0.37793 0.90632 0.42676 0.0
Zn159 Zn 0.38153 0.86947 0.40393 0.0
O160 O 0.35163 0.86095 0.35263 0.0
O161 O 0.35153 0.87285 0.52353 0.0
O162 O 0.38917 0.84286 0.52227 0.0
O163 O 0.39398 0.86025 0.68069 0.0
O164 O 0.41787 0.88005 0.45768 0.0
O165 O 0.40573 0.86699 0.29875 0.0
C166 C 0.34057 0.86529 0.4396 0.0
C167 C 0.42209 0.87431 0.35815 0.0
C168 C 0.83059 0.88515 0.70556 0.0
C169 C 0.91356 0.87655 0.63211 0.0
O170 O 0.8355 0.88222 0.60457 0.0
Zn171 Zn 0.86507 0.87739 0.50317 0.0
O172 O 0.84678 0.88557 0.7761 0.0
Zn173 Zn 0.87235 0.88082 0.67611 0.0
O174 O 0.8718 0.91205 0.58628 0.0
O175 O 0.86427 0.90531 0.4126 0.0
O176 O 0.90445 0.87921 0.72584 0.0
O177 O 0.90059 0.87572 0.54742 0.0
O178 O 0.85975 0.84643 0.4445 0.0
O179 O 0.86613 0.84671 0.62214 0.0
C180 C 0.86862 0.91955 0.48912 0.0
C181 C 0.86158 0.83558 0.53458 0.0
C182 C 0.87673 0.09208 0.42117 0.0
C183 C 0.88024 0.17421 0.34244 0.0
O184 O 0.8781 0.10205 0.32911 0.0
Zn185 Zn 0.87836 0.13301 0.38456 0.0
O186 O 0.8762 0.10427 0.50882 0.0
Zn187 Zn 0.87687 0.14078 0.55182 0.0
O188 O 0.84751 0.14483 0.6258 0.0
O189 O 0.84402 0.13581 0.4518 0.0
O190 O 0.87919 0.17071 0.44587 0.0
O191 O 0.87996 0.15707 0.27818 0.0
O192 O 0.91141 0.13454 0.46628 0.0
O193 O 0.90462 0.14272 0.63906 0.0
C194 C 0.83469 0.14023 0.54451 0.0
C195 C 0.91892 0.13825 0.56333 0.0
C196 C 0.17088 0.1118 0.80325 0.0
C197 C 0.08911 0.12121 0.70962 0.0
O198 O 0.16759 0.11637 0.70199 0.0
Zn199 Zn 0.13906 0.12276 0.59384 0.0
O200 O 0.15358 0.10985 0.86661 0.0
Zn201 Zn 0.12982 0.11603 0.75941 0.0
O202 O 0.13175 0.08631 0.65599 0.0
O203 O 0.14134 0.09752 0.48995 0.0
O204 O 0.09754 0.11652 0.80294 0.0
O205 O 0.10272 0.12378 0.62793 0.0
O206 O 0.14516 0.15415 0.5474 0.0
O207 O 0.13626 0.1515 0.72202 0.0
C208 C 0.13621 0.0814 0.55612 0.0
C209 C 0.14198 0.16381 0.63944 0.0
C210 C 0.12628 0.91336 0.3598 0.0
C211 C 0.12073 0.83348 0.23478 0.0
O212 O 0.1242 0.90625 0.26218 0.0
Zn213 Zn 0.12308 0.87356 0.29624 0.0
O214 O 0.12692 0.89868 0.43815 0.0
Zn215 Zn 0.1256 0.8619 0.45997 0.0
O216 O 0.15528 0.85566 0.52568 0.0
O217 O 0.15762 0.86701 0.35402 0.0
O218 O 0.12259 0.83503 0.33897 0.0
O219 O 0.12012 0.85177 0.17766 0.0
O220 O 0.09072 0.87029 0.38196 0.0
O221 O 0.09829 0.85806 0.54877 0.0
C222 C 0.1675 0.86039 0.44248 0.0
C223 C 0.08368 0.86439 0.47734 0.0
H224 H 0.36771 0.9414 0.31377 0.0
H225 H 0.36322 0.07023 0.5519 0.0
H226 H 0.38111 0.95673 0.6528 0.0
H227 H 0.35867 0.05228 0.21072 0.0
H228 H 0.36588 0.02885 0.59672 0.0
H229 H 0.36067 0.98213 0.28041 0.0
C230 C 0.36918 0.95334 0.38142 0.0
C231 C 0.37517 0.94559 0.48614 0.0
C232 C 0.36415 0.03407 0.51223 0.0
C233 C 0.36706 0.99257 0.44836 0.0
C234 C 0.36251 0.05762 0.48678 0.0
C235 C 0.36093 0.0647 0.37743 0.0
C236 C 0.36399 0.01764 0.42763 0.0
C237 C 0.36015 0.04767 0.29611 0.0
C238 C 0.36513 0.97667 0.36231 0.0
C239 C 0.37666 0.96195 0.5706 0.0
N240 N 0.36175 0.02505 0.32283 0.0
N241 N 0.3727 0.98471 0.54984 0.0
H242 H 0.06719 0.63879 0.48665 0.0
H243 H 0.94038 0.62555 0.73981 0.0
H244 H 0.0531 0.63139 0.83089 0.0
H245 H 0.95368 0.62158 0.3936 0.0
H246 H 0.98161 0.62984 0.77261 0.0
H247 H 0.02577 0.63471 0.44916 0.0
C248 C 0.05541 0.63638 0.55438 0.0
C249 C 0.06367 0.63544 0.66219 0.0
C250 C 0.97559 0.628 0.68936 0.0
C251 C 0.01628 0.63077 0.6197 0.0
C252 C 0.95197 0.62558 0.67041 0.0
C253 C 0.94348 0.62319 0.56361 0.0
C254 C 0.99102 0.62818 0.60101 0.0
C255 C 0.95945 0.62333 0.47725 0.0
C256 C 0.03178 0.63398 0.53281 0.0
C257 C 0.04759 0.6322 0.74653 0.0
N258 N 0.98246 0.62584 0.4978 0.0
N259 N 0.02472 0.63003 0.72348 0.0
H260 H 0.64943 0.94819 0.35849 0.0
H261 H 0.63388 0.07432 0.09537 0.0
H262 H 0.62931 0.96023 0.02371 0.0
H263 H 0.64678 0.06166 0.43723 0.0
H264 H 0.63665 0.03258 0.06189 0.0
H265 H 0.65247 0.99001 0.38465 0.0
C266 C 0.64567 0.95958 0.29063 0.0
C267 C 0.63892 0.95066 0.1892 0.0
C268 C 0.63903 0.03902 0.14407 0.0
C269 C 0.64249 0.99846 0.21801 0.0
C270 C 0.63758 0.06282 0.16289 0.0
C271 C 0.63979 0.07141 0.26926 0.0
C272 C 0.64287 0.02387 0.23224 0.0
C273 C 0.64457 0.05575 0.35405 0.0
C274 C 0.64744 0.98344 0.3054 0.0
C275 C 0.6344 0.96627 0.10378 0.0
N276 N 0.64581 0.0328 0.33383 0.0
N277 N 0.63621 0.98935 0.12019 0.0
H278 H 0.05976 0.37364 0.457 0.0
H279 H 0.96019 0.3727 0.91143 0.0
H280 H 0.07119 0.37598 0.80522 0.0
H281 H 0.94567 0.35981 0.57116 0.0
H282 H 1.00102 0.37565 0.86856 0.0
H283 H 0.01793 0.37023 0.49142 0.0
C284 C 0.05353 0.37346 0.54033 0.0
C285 C 0.06905 0.37509 0.62824 0.0
C286 C 0.98899 0.37211 0.80291 0.0
C287 C 0.02148 0.37125 0.66796 0.0
C288 C 0.96558 0.37044 0.82746 0.0
C289 C 0.94942 0.36597 0.74485 0.0
C290 C 0.99651 0.36942 0.69465 0.0
C291 C 0.95755 0.3632 0.63748 0.0
C292 C 0.02971 0.37146 0.55989 0.0
C293 C 0.06001 0.37473 0.73458 0.0
N294 N 0.98057 0.36503 0.61529 0.0
N295 N 0.03695 0.3729 0.75116 0.0
H296 H 0.3585 0.45047 0.8892 0.0
H297 H 0.37367 0.57589 0.16001 0.0
H298 H 0.3788 0.46166 0.22426 0.0
H299 H 0.35978 0.56445 0.81814 0.0
H300 H 0.37127 0.53405 0.19043 0.0
H301 H 0.35522 0.49236 0.86544 0.0
C302 C 0.36225 0.46168 0.95763 0.0
C303 C 0.3691 0.45248 0.05847 0.0
C304 C 0.36857 0.54077 0.10893 0.0
C305 C 0.36525 0.5004 0.03239 0.0
C306 C 0.36979 0.56465 0.09185 0.0
C307 C 0.36717 0.57365 0.98635 0.0
C308 C 0.3646 0.5259 0.01992 0.0
C309 C 0.36223 0.55826 0.90074 0.0
C310 C 0.36035 0.4856 0.94422 0.0
C311 C 0.37363 0.4679 0.14462 0.0
N312 N 0.36125 0.5352 0.91925 0.0
N313 N 0.37167 0.49102 0.12954 0.0
H314 H 0.46364 0.62719 0.67249 0.0
H315 H 0.55726 0.61395 0.15376 0.0
H316 H 0.44679 0.61424 0.01013 0.0
H317 H 0.57547 0.62971 0.82023 0.0
H318 H 0.51667 0.61171 0.09901 0.0
H319 H 0.50494 0.62516 0.72028 0.0
C320 C 0.46861 0.62361 0.75606 0.0
C321 C 0.45176 0.6211 0.83749 0.0
C322 C 0.52955 0.61564 0.0377 0.0
C323 C 0.49873 0.61897 0.89298 0.0
C324 C 0.55274 0.61698 0.06914 0.0
C325 C 0.56983 0.62213 0.9918 0.0
C326 C 0.52334 0.61947 0.92803 0.0
C327 C 0.56291 0.62578 0.88296 0.0
C328 C 0.49214 0.62261 0.78355 0.0
C329 C 0.45915 0.61658 0.94474 0.0
N330 N 0.54024 0.62441 0.85441 0.0
N331 N 0.48199 0.6158 0.9693 0.0
H332 H 0.64257 0.44121 0.92719 0.0
H333 H 0.64373 0.56976 0.68557 0.0
H334 H 0.62563 0.45614 0.59115 0.0
H335 H 0.65324 0.55187 0.02461 0.0
H336 H 0.64116 0.52834 0.64158 0.0
H337 H 0.65031 0.48187 0.95709 0.0
C338 C 0.64045 0.45305 0.85947 0.0
C339 C 0.63326 0.44523 0.75668 0.0
C340 C 0.64399 0.53358 0.72533 0.0
C341 C 0.64216 0.49213 0.79048 0.0
C342 C 0.6456 0.55715 0.75024 0.0
C343 C 0.64846 0.56421 0.85895 0.0
C344 C 0.64548 0.51718 0.80981 0.0
C345 C 0.65071 0.54722 0.93984 0.0
C346 C 0.64493 0.47634 0.87657 0.0
C347 C 0.63101 0.46145 0.67193 0.0
N348 N 0.64908 0.5246 0.91369 0.0
N349 N 0.63536 0.4842 0.6908 0.0
H350 H 0.4393 0.39296 0.97113 0.0
H351 H 0.57209 0.36709 0.10331 0.0
H352 H 0.4638 0.3805 0.29885 0.0
H353 H 0.54635 0.38729 0.78653 0.0
H354 H 0.53305 0.3713 0.17774 0.0
H355 H 0.47866 0.39057 0.90458 0.0
C356 C 0.453 0.38972 0.02953 0.0
C357 C 0.44813 0.38678 0.14102 0.0
C358 C 0.53597 0.37484 0.09207 0.0
C359 C 0.49369 0.38395 0.06421 0.0
C360 C 0.55825 0.37239 0.04925 0.0
C361 C 0.56254 0.37678 0.93814 0.0
C362 C 0.5178 0.38165 0.02329 0.0
C363 C 0.54392 0.38367 0.87244 0.0
C364 C 0.47557 0.38841 0.99115 0.0
C365 C 0.46674 0.38287 0.21234 0.0
N366 N 0.52241 0.38582 0.91594 0.0
N367 N 0.48874 0.38142 0.17258 0.0
H368 H 0.88005 0.44977 0.04138 0.0
H369 H 0.87633 0.54349 0.56155 0.0
H370 H 0.87958 0.43404 0.69692 0.0
H371 H 0.86727 0.56235 0.89976 0.0
H372 H 0.87887 0.5033 0.6146 0.0
H373 H 0.87666 0.49101 0.99624 0.0
C374 C 0.87925 0.45495 0.95651 0.0
C375 C 0.88013 0.43838 0.87284 0.0
C376 C 0.87628 0.51613 0.67766 0.0
C377 C 0.87629 0.48535 0.82096 0.0
C378 C 0.87485 0.5392 0.64733 0.0
C379 C 0.8716 0.55641 0.7263 0.0
C380 C 0.87456 0.50997 0.78817 0.0
C381 C 0.86975 0.54964 0.83615 0.0
C382 C 0.87727 0.47845 0.9309 0.0
C383 C 0.87897 0.44608 0.76436 0.0
N384 N 0.87133 0.5269 0.86403 0.0
N385 N 0.87717 0.4689 0.74184 0.0
H386 H 0.54334 0.12425 0.57385 0.0
H387 H 0.45137 0.11815 0.08243 0.0
H388 H 0.5617 0.12042 0.23283 0.0
H389 H 0.43222 0.1291 0.41905 0.0
H390 H 0.49197 0.11633 0.13827 0.0
H391 H 0.50231 0.12297 0.52143 0.0
C392 C 0.53877 0.12295 0.48833 0.0
C393 C 0.55598 0.12263 0.40775 0.0
C394 C 0.47886 0.11913 0.19992 0.0
C395 C 0.50927 0.12124 0.34712 0.0
C396 C 0.45568 0.1202 0.16792 0.0
C397 C 0.43834 0.12389 0.24588 0.0
C398 C 0.48477 0.12169 0.31076 0.0
C399 C 0.44498 0.12633 0.35581 0.0
C400 C 0.51539 0.12232 0.45832 0.0
C401 C 0.54907 0.12096 0.29794 0.0
N402 N 0.46762 0.12519 0.38489 0.0
N403 N 0.52634 0.1204 0.27103 0.0
H404 H 0.13445 0.56116 0.00094 0.0
H405 H 0.13424 0.45291 0.59755 0.0
H406 H 0.13386 0.5655 0.64911 0.0
H407 H 0.14317 0.44507 0.94569 0.0
H408 H 0.1328 0.49427 0.6199 0.0
H409 H 0.13659 0.51897 0.98698 0.0
C410 C 0.13479 0.55328 0.92083 0.0
C411 C 0.13393 0.56692 0.82593 0.0
C412 C 0.13511 0.48364 0.69181 0.0
C413 C 0.13633 0.51877 0.80973 0.0
C414 C 0.13589 0.45986 0.67924 0.0
C415 C 0.13883 0.44535 0.77004 0.0
C416 C 0.1372 0.49332 0.79615 0.0
C417 C 0.1409 0.4556 0.87347 0.0
C418 C 0.13604 0.52921 0.91307 0.0
C419 C 0.13446 0.55577 0.72449 0.0
N420 N 0.14 0.47903 0.88385 0.0
N421 N 0.13557 0.53242 0.71924 0.0
H422 H 0.43602 0.86642 0.14731 0.0
H423 H 0.56898 0.89192 0.27528 0.0
H424 H 0.46196 0.88748 0.46233 0.0
H425 H 0.544 0.87951 0.94845 0.0
H426 H 0.52969 0.88986 0.343 0.0
H427 H 0.47499 0.8704 0.072 0.0
C428 C 0.44989 0.87186 0.20082 0.0
C429 C 0.44567 0.87655 0.3117 0.0
C430 C 0.53266 0.88764 0.25638 0.0
C431 C 0.49035 0.88117 0.22548 0.0
C432 C 0.55519 0.88876 0.21733 0.0
C433 C 0.5599 0.88573 0.10573 0.0
C434 C 0.51442 0.88329 0.1839 0.0
C435 C 0.54118 0.88194 0.03501 0.0
C436 C 0.47213 0.87419 0.15747 0.0
C437 C 0.46434 0.88363 0.37663 0.0
N438 N 0.51923 0.88067 0.07543 0.0
N439 N 0.48581 0.88564 0.33263 0.0
H440 H 0.86477 0.94416 0.29539 0.0
H441 H 0.8763 0.06552 0.60494 0.0
H442 H 0.8752 0.95267 0.6422 0.0
H443 H 0.87447 0.06053 0.25341 0.0
H444 H 0.8742 0.02374 0.61677 0.0
H445 H 0.86675 0.98641 0.27434 0.0
C446 C 0.86747 0.95483 0.36679 0.0
C447 C 0.86982 0.9448 0.47061 0.0
C448 C 0.87429 0.03169 0.53678 0.0
C449 C 0.87201 0.99287 0.44736 0.0
C450 C 0.87546 0.05563 0.53004 0.0
C451 C 0.8756 0.0666 0.42806 0.0
C452 C 0.87316 0.01843 0.44089 0.0
C453 C 0.87447 0.05278 0.33381 0.0
C454 C 0.86862 0.97889 0.35478 0.0
C455 C 0.87331 0.95947 0.56037 0.0
N456 N 0.87326 0.02938 0.34244 0.0
N457 N 0.87425 0.98262 0.54657 0.0
H458 H 0.95406 0.13355 0.41639 0.0
H459 H 0.05437 0.12139 0.86395 0.0
H460 H 0.94106 0.13901 0.76237 0.0
H461 H 0.06622 0.12703 0.51705 0.0
H462 H 0.01275 0.12613 0.83101 0.0
H463 H 0.99519 0.12956 0.45417 0.0
C464 C 0.95985 0.13396 0.50047 0.0
C465 C 0.94403 0.13663 0.5863 0.0
C466 C 0.02452 0.12635 0.76233 0.0
C467 C 0.99134 0.13192 0.63042 0.0
C468 C 0.04825 0.12359 0.78103 0.0
C469 C 0.06385 0.12381 0.69319 0.0
C470 C 0.01635 0.12919 0.65503 0.0
C471 C 0.05493 0.12677 0.58746 0.0
C472 C 0.9834 0.13169 0.52204 0.0
C473 C 0.95264 0.13705 0.69361 0.0
N474 N 0.03185 0.12929 0.57149 0.0
N475 N 0.97571 0.13463 0.71271 0.0
H476 H 0.12797 0.93331 0.56068 0.0
H477 H 0.14035 0.06342 0.34795 0.0
H478 H 0.12857 0.95032 0.2175 0.0
H479 H 0.12989 0.04357 0.68407 0.0
H480 H 0.13815 0.02251 0.29553 0.0
H481 H 0.13084 0.97401 0.60439 0.0
C482 C 0.1287 0.94561 0.4942 0.0
C483 C 0.12798 0.93831 0.38511 0.0
C484 C 0.13633 0.02721 0.38061 0.0
C485 C 0.13131 0.98535 0.43506 0.0
C486 C 0.13764 0.05052 0.41061 0.0
C487 C 0.13528 0.05698 0.5206 0.0
C488 C 0.1328 0.01033 0.46136 0.0
C489 C 0.13175 0.03952 0.59828 0.0
C490 C 0.13032 0.96896 0.51935 0.0
C491 C 0.12902 0.95518 0.30276 0.0
N492 N 0.13066 0.01711 0.56717 0.0
N493 N 0.13066 0.97796 0.32941 0.0
H494 H 0.94808 0.87322 0.78852 0.0
H495 H 0.04817 0.8727 0.33668 0.0
H496 H 0.9369 0.87539 0.44009 0.0
H497 H 0.06218 0.85887 0.67667 0.0
H498 H 0.00726 0.87562 0.37845 0.0
H499 H 0.98993 0.86977 0.75486 0.0
C500 C 0.95437 0.87299 0.70529 0.0
C501 C 0.93891 0.87459 0.6171 0.0
C502 C 0.0192 0.87188 0.44425 0.0
C503 C 0.98652 0.87072 0.57825 0.0
C504 C 0.04265 0.87023 0.42034 0.0
C505 C 0.05869 0.8655 0.50321 0.0
C506 C 0.01153 0.86891 0.55213 0.0
C507 C 0.05039 0.86246 0.61016 0.0
C508 C 0.97821 0.87097 0.68616 0.0
C509 C 0.94804 0.87417 0.51091 0.0
N510 N 0.02735 0.86429 0.63173 0.0
N511 N 0.97112 0.87233 0.49474 0.0
H512 H 0.36359 0.30955 0.9695 0.0
H513 H 0.35633 0.20639 0.40668 0.0
H514 H 0.36984 0.31875 0.31795 0.0
H515 H 0.36583 0.19512 0.06131 0.0
H516 H 0.35648 0.24807 0.3734 0.0
H517 H 0.35979 0.26773 0.9992 0.0
C518 C 0.36409 0.30283 0.05197 0.0
C519 C 0.36724 0.31768 0.14112 0.0
C520 C 0.35848 0.23645 0.30488 0.0
C521 C 0.36273 0.27006 0.17582 0.0
C522 C 0.35834 0.21266 0.32392 0.0
C523 C 0.36124 0.19722 0.23693 0.0
C524 C 0.36136 0.24489 0.198 0.0
C525 C 0.36373 0.20636 0.13114 0.0
C526 C 0.36196 0.27899 0.06894 0.0
C527 C 0.36769 0.308 0.24643 0.0
N528 N 0.36375 0.22956 0.11468 0.0
N529 N 0.36547 0.2849 0.26072 0.0
H530 H 0.1998 0.63691 0.52613 0.0
H531 H 0.31543 0.66763 0.84919 0.0
H532 H 0.20338 0.653 0.86954 0.0
H533 H 0.31765 0.62328 0.56652 0.0
H534 H 0.27378 0.67044 0.83087 0.0
H535 H 0.24235 0.63866 0.51709 0.0
C536 C 0.2095 0.64098 0.59924 0.0
C537 C 0.19807 0.64477 0.69893 0.0
C538 C 0.28331 0.66019 0.77223 0.0
C539 C 0.24637 0.64709 0.68853 0.0
C540 C 0.30715 0.6586 0.78232 0.0
C541 C 0.32004 0.64484 0.71036 0.0
C542 C 0.27199 0.64795 0.68946 0.0
C543 C 0.30833 0.63396 0.62404 0.0
C544 C 0.2337 0.64187 0.59398 0.0
C545 C 0.21144 0.64984 0.79121 0.0
N546 N 0.28481 0.63554 0.61653 0.0
N547 N 0.2348 0.65094 0.78359 0.0
H548 H 0.64433 0.80798 0.27333 0.0
H549 H 0.65173 0.70554 0.83354 0.0
H550 H 0.63836 0.8177 0.925 0.0
H551 H 0.64176 0.69379 0.17835 0.0
H552 H 0.65172 0.74715 0.86801 0.0
H553 H 0.64812 0.7662 0.24258 0.0
C554 C 0.6439 0.80137 0.19068 0.0
C555 C 0.64082 0.81634 0.10184 0.0
C556 C 0.64958 0.73544 0.93613 0.0
C557 C 0.6453 0.76882 0.06598 0.0
C558 C 0.64964 0.71169 0.91642 0.0
C559 C 0.64657 0.69615 0.00291 0.0
C560 C 0.64661 0.74371 0.04318 0.0
C561 C 0.64398 0.70512 0.1089 0.0
C562 C 0.64601 0.77757 0.17312 0.0
C563 C 0.64044 0.80684 0.99626 0.0
N564 N 0.64404 0.72828 0.12603 0.0
N565 N 0.64265 0.78377 0.9814 0.0
H566 H 0.6962 0.36898 0.63086 0.0
H567 H 0.81151 0.36036 0.98544 0.0
H568 H 0.69708 0.35564 0.97763 0.0
H569 H 0.81191 0.35766 0.6333 0.0
H570 H 0.76944 0.35966 0.98277 0.0
H571 H 0.73843 0.36586 0.62834 0.0
C572 C 0.70524 0.36531 0.70635 0.0
C573 C 0.69308 0.36267 0.80473 0.0
C574 C 0.77868 0.35909 0.90597 0.0
C575 C 0.74132 0.35919 0.80237 0.0
C576 C 0.80274 0.35955 0.90739 0.0
C577 C 0.81526 0.35916 0.80936 0.0
C578 C 0.76693 0.35847 0.80576 0.0
C579 C 0.80293 0.35797 0.71077 0.0
C580 C 0.72933 0.36348 0.70474 0.0
C581 C 0.7057 0.35785 0.89992 0.0
N582 N 0.7794 0.35785 0.71141 0.0
N583 N 0.72911 0.35642 0.89644 0.0
H584 H 0.86833 0.68836 0.42192 0.0
H585 H 0.85508 0.81016 0.71829 0.0
H586 H 0.85576 0.69623 0.76728 0.0
H587 H 0.86222 0.80318 0.36913 0.0
H588 H 0.85388 0.76844 0.73548 0.0
H589 H 0.865 0.73004 0.39947 0.0
C590 C 0.86483 0.69884 0.49322 0.0
C591 C 0.86246 0.68874 0.597 0.0
C592 C 0.85559 0.77594 0.65491 0.0
C593 C 0.85861 0.73661 0.57136 0.0
C594 C 0.85632 0.79983 0.64484 0.0
C595 C 0.85897 0.81023 0.54197 0.0
C596 C 0.85768 0.76213 0.56157 0.0
C597 C 0.8602 0.7959 0.44994 0.0
C598 C 0.86287 0.72266 0.48007 0.0
C599 C 0.85779 0.70322 0.68592 0.0
N600 N 0.85975 0.77253 0.46201 0.0
N601 N 0.85614 0.72643 0.6711 0.0
H602 H 0.80716 0.15407 0.71715 0.0
H603 H 0.69325 0.10416 0.43211 0.0
H604 H 0.8042 0.12206 0.39934 0.0
H605 H 0.68867 0.15324 0.69533 0.0
H606 H 0.73514 0.10474 0.44688 0.0
H607 H 0.7649 0.14963 0.7327 0.0
C608 C 0.79768 0.14614 0.6508 0.0
C609 C 0.80925 0.13852 0.55648 0.0
C610 C 0.72511 0.11527 0.50244 0.0
C611 C 0.76125 0.13307 0.57481 0.0
C612 C 0.70118 0.11479 0.49458 0.0
C613 C 0.68761 0.12873 0.56236 0.0
C614 C 0.73576 0.13005 0.57787 0.0
C615 C 0.69865 0.14216 0.64208 0.0
C616 C 0.77362 0.14362 0.65988 0.0
C617 C 0.79611 0.12835 0.47324 0.0
N618 N 0.72225 0.14274 0.64691 0.0
N619 N 0.77294 0.12588 0.48462 0.0
H620 H 0.15301 0.31027 0.52938 0.0
H621 H 0.13877 0.18876 0.8282 0.0
H622 H 0.14514 0.30372 0.8784 0.0
H623 H 0.15146 0.19644 0.48282 0.0
H624 H 0.14226 0.23045 0.85007 0.0
H625 H 0.15399 0.26854 0.51346 0.0
C626 C 0.15157 0.30003 0.60307 0.0
C627 C 0.14878 0.31056 0.7055 0.0
C628 C 0.14437 0.22302 0.76961 0.0
C629 C 0.1498 0.26243 0.68737 0.0
C630 C 0.14233 0.19919 0.75681 0.0
C631 C 0.14469 0.18904 0.65318 0.0
C632 C 0.14873 0.2369 0.67813 0.0
C633 C 0.14943 0.20347 0.56408 0.0
C634 C 0.15217 0.27613 0.59374 0.0
C635 C 0.14728 0.29634 0.7979 0.0
N636 N 0.15118 0.22666 0.57858 0.0
N637 N 0.14761 0.27295 0.78655 0.0
H638 H 0.19558 0.85657 0.62286 0.0
H639 H 0.3119 0.8546 0.26986 0.0
H640 H 0.19752 0.86075 0.27115 0.0
H641 H 0.31133 0.86921 0.61543 0.0
H642 H 0.26991 0.85141 0.27315 0.0
H643 H 0.238 0.85597 0.62546 0.0
C644 C 0.2049 0.85721 0.54628 0.0
C645 C 0.193 0.85883 0.44666 0.0
C646 C 0.27895 0.85527 0.34838 0.0
C647 C 0.24136 0.85806 0.44912 0.0
C648 C 0.30296 0.85704 0.34668 0.0
C649 C 0.31517 0.86232 0.44245 0.0
C650 C 0.26696 0.85866 0.44665 0.0
C651 C 0.3026 0.86524 0.53955 0.0
C652 C 0.22908 0.85695 0.54788 0.0
C653 C 0.20595 0.85965 0.3499 0.0
N654 N 0.27915 0.8634 0.53919 0.0
N655 N 0.22938 0.85925 0.3536 0.0
H656 H 0.18518 0.10691 0.01581 0.0
H657 H 0.32035 0.11433 0.87204 0.0
H658 H 0.21123 0.11283 0.68681 0.0
H659 H 0.29261 0.11765 0.1988 0.0
H660 H 0.28085 0.11011 0.80137 0.0
H661 H 0.22494 0.10685 0.08344 0.0
C662 C 0.19924 0.10803 0.95772 0.0
C663 C 0.19482 0.11002 0.84554 0.0
C664 C 0.28348 0.11171 0.88855 0.0
C665 C 0.24044 0.11006 0.92239 0.0
C666 C 0.30601 0.1141 0.92885 0.0
C667 C 0.30982 0.1165 0.04142 0.0
C668 C 0.2647 0.11159 0.96145 0.0
C669 C 0.29057 0.11603 0.11131 0.0
C670 C 0.22196 0.10807 0.99637 0.0
C671 C 0.21379 0.1114 0.77408 0.0
N672 N 0.26891 0.11366 0.07023 0.0
N673 N 0.23574 0.11148 0.8137 0.0
H674 H 0.12015 0.82287 0.01554 0.0
H675 H 0.12213 0.68651 0.12403 0.0
H676 H 0.11982 0.79138 0.33498 0.0
H677 H 0.12567 0.71596 0.80069 0.0
H678 H 0.11971 0.72513 0.20039 0.0
H679 H 0.12054 0.78429 0.9333 0.0
C680 C 0.12006 0.80788 0.0684 0.0
C681 C 0.12001 0.81041 0.18248 0.0
C682 C 0.12099 0.72323 0.11268 0.0
C683 C 0.1205 0.76626 0.08887 0.0
C684 C 0.12238 0.70111 0.06881 0.0
C685 C 0.12417 0.69791 0.95555 0.0
C686 C 0.1214 0.7425 0.04319 0.0
C687 C 0.12435 0.71759 0.88847 0.0
C688 C 0.12032 0.78587 0.02135 0.0
C689 C 0.11992 0.79035 0.24677 0.0
N690 N 0.12302 0.73906 0.93332 0.0
N691 N 0.1202 0.76921 0.19913 0.0
H692 H 0.6802 0.8856 0.71755 0.0
H693 H 0.81271 0.89388 0.90911 0.0
H694 H 0.70257 0.9011 0.04569 0.0
H695 H 0.79246 0.88255 0.57411 0.0
H696 H 0.77197 0.89763 0.95826 0.0
H697 H 0.72094 0.88596 0.65914 0.0
C698 C 0.69359 0.8893 0.77681 0.0
C699 C 0.68798 0.89303 0.88673 0.0
C700 C 0.77643 0.89439 0.87383 0.0
C701 C 0.73437 0.89335 0.82136 0.0
C702 C 0.79972 0.89221 0.84591 0.0
C703 C 0.80605 0.88782 0.73754 0.0
C704 C 0.75928 0.89208 0.79293 0.0
C705 C 0.78841 0.88589 0.65888 0.0
C706 C 0.71681 0.88942 0.74375 0.0
C707 C 0.70603 0.89775 0.96031 0.0
N708 N 0.76585 0.88794 0.68816 0.0
N709 N 0.7283 0.89763 0.92648 0.0
H710 H 0.88186 0.21537 0.4542 0.0
H711 H 0.88806 0.29132 0.90812 0.0
H712 H 0.88267 0.18714 0.12819 0.0
H713 H 0.88847 0.32122 0.23081 0.0
H714 H 0.88688 0.25303 0.98951 0.0
H715 H 0.8848 0.25423 0.37626 0.0
C716 C 0.88265 0.21732 0.36636 0.0
C717 C 0.88196 0.19792 0.2977 0.0
C718 C 0.88729 0.26792 0.0428 0.0
C719 C 0.88538 0.24232 0.20809 0.0
C720 C 0.88799 0.28986 0.99627 0.0
C721 C 0.88831 0.30959 0.06264 0.0
C722 C 0.88685 0.26554 0.15687 0.0
C723 C 0.88823 0.30651 0.17643 0.0
C724 C 0.88436 0.23951 0.32195 0.0
C725 C 0.8831 0.20152 0.18448 0.0
N726 N 0.88743 0.2849 0.21998 0.0
N727 N 0.88472 0.22323 0.14345 0.0
H728 H 0.19517 0.39365 0.33448 0.0
H729 H 0.3277 0.38626 0.52669 0.0
H730 H 0.21547 0.38248 0.66964 0.0
H731 H 0.30529 0.40208 0.19881 0.0
H732 H 0.28693 0.38618 0.58475 0.0
H733 H 0.2359 0.39761 0.2854 0.0
C734 C 0.20817 0.39204 0.39771 0.0
C735 C 0.20186 0.38766 0.50612 0.0
C736 C 0.29106 0.3898 0.50027 0.0
C737 C 0.2486 0.39218 0.45085 0.0
C738 C 0.31429 0.38994 0.46742 0.0
C739 C 0.3199 0.3939 0.35766 0.0
C740 C 0.2735 0.39369 0.42262 0.0
C741 C 0.30183 0.39858 0.28406 0.0
C742 C 0.23145 0.39436 0.36985 0.0
C743 C 0.21951 0.38582 0.58484 0.0
N744 N 0.27955 0.3982 0.31768 0.0
N745 N 0.24205 0.38801 0.55562 0.0
H746 H 0.3872 0.83051 0.84148 0.0
H747 H 0.41723 0.69783 0.73783 0.0
H748 H 0.40578 0.80127 0.5298 0.0
H749 H 0.37416 0.71868 0.00785 0.0
H750 H 0.42127 0.73793 0.68409 0.0
H751 H 0.38945 0.79174 0.92319 0.0
C752 C 0.39201 0.81601 0.7906 0.0
C753 C 0.39623 0.81907 0.6785 0.0
C754 C 0.41106 0.73385 0.75562 0.0
C755 C 0.39904 0.77501 0.77144 0.0
C756 C 0.40877 0.71092 0.7867 0.0
C757 C 0.39499 0.70485 0.87647 0.0
C758 C 0.39945 0.75106 0.81423 0.0
C759 C 0.38484 0.72264 0.9378 0.0
C760 C 0.39318 0.79395 0.8372 0.0
C761 C 0.40225 0.79971 0.61626 0.0
N762 N 0.38704 0.74504 0.9047 0.0
N763 N 0.4035 0.77858 0.66357 0.0
H764 H 0.6875 0.61307 0.36668 0.0
H765 H 0.82311 0.60757 0.22976 0.0
H766 H 0.71586 0.61783 0.04152 0.0
H767 H 0.79612 0.61216 0.55754 0.0
H768 H 0.78351 0.60745 0.15974 0.0
H769 H 0.72689 0.60917 0.43896 0.0
C770 C 0.70196 0.61323 0.31053 0.0
C771 C 0.69835 0.61592 0.19796 0.0
C772 C 0.78626 0.6084 0.24706 0.0
C773 C 0.74338 0.61137 0.27981 0.0
C774 C 0.80888 0.60839 0.28707 0.0
C775 C 0.81299 0.61001 0.39964 0.0
C776 C 0.76757 0.60998 0.32008 0.0
C777 C 0.79382 0.61102 0.47003 0.0
C778 C 0.72443 0.61102 0.35177 0.0
C779 C 0.71776 0.61596 0.12898 0.0
N780 N 0.77197 0.61106 0.42911 0.0
N781 N 0.73936 0.61375 0.17096 0.0
H782 H 0.5962 0.19607 0.5346 0.0
H783 H 0.62199 0.32887 0.41339 0.0
H784 H 0.63817 0.21659 0.25988 0.0
H785 H 0.60374 0.30083 0.72811 0.0
H786 H 0.62136 0.28956 0.33705 0.0
H787 H 0.59145 0.23619 0.58438 0.0
C788 C 0.60441 0.20907 0.4842 0.0
C789 C 0.61802 0.20289 0.394 0.0
C790 C 0.61735 0.29215 0.4225 0.0
C791 C 0.61259 0.24924 0.45155 0.0
C792 C 0.61757 0.31451 0.46598 0.0
C793 C 0.61297 0.31806 0.57739 0.0
C794 C 0.61209 0.27342 0.49074 0.0
C795 C 0.60752 0.29889 0.64206 0.0
C796 C 0.60166 0.23204 0.51294 0.0
C797 C 0.6277 0.22061 0.33057 0.0
N798 N 0.60721 0.27747 0.59778 0.0
N799 N 0.62501 0.24311 0.36127 0.0
loop_
_geom_bond_atom_site_label_1
_geom_bond_atom_site_label_2
_geom_bond_distance
_geom_bond_site_symmetry_2
_ccdc_geom_bond_type
C0 O2 1.247 . S
C0 O4 1.258 . S
C1 O8 1.247 . S
C1 O9 1.258 . S
O2 C0 1.247 . S
O2 Zn3 2.028 . S
Zn3 O2 2.028 . S
Zn3 O7 2.035 . S
Zn3 O9 2.035 . S
Zn3 O10 2.028 . S
O4 C0 1.258 . S
O4 Zn5 2.035 . S
Zn5 O4 2.035 . S
Zn5 O6 2.028 . S
Zn5 O8 2.028 . S
Zn5 O11 2.035 . S
O6 Zn5 2.028 . S
O6 C12 1.247 . S
O7 Zn3 2.035 . S
O7 C12 1.258 . S
O8 C1 1.247 . S
O8 Zn5 2.028 . S
O9 C1 1.258 . S
O9 Zn3 2.035 . S
O10 Zn3 2.028 . S
O10 C13 1.247 . S
O11 Zn5 2.035 . S
O11 C13 1.258 . S
C12 O6 1.247 . S
C12 O7 1.258 . S
C13 O10 1.247 . S
C13 O11 1.258 . S
C14 O16 1.247 . S
C14 O18 1.258 . S
C15 O22 1.247 . S
C15 O23 1.258 . S
O16 C14 1.247 . S
O16 Zn17 2.028 . S
Zn17 O16 2.028 . S
Zn17 O21 2.035 . S
Zn17 O23 2.035 . S
Zn17 O24 2.028 . S
O18 C14 1.258 . S
O18 Zn19 2.035 . S
Zn19 O18 2.035 . S
Zn19 O20 2.028 . S
Zn19 O22 2.028 . S
Zn19 O25 2.035 . S
O20 Zn19 2.028 . S
O20 C26 1.247 . S
O21 Zn17 2.035 . S
O21 C26 1.258 . S
O22 C15 1.247 . S
O22 Zn19 2.028 . S
O23 C15 1.258 . S
O23 Zn17 2.035 . S
O24 Zn17 2.028 . S
O24 C27 1.247 . S
O25 Zn19 2.035 . S
O25 C27 1.258 . S
C26 O20 1.247 . S
C26 O21 1.258 . S
C27 O24 1.247 . S
C27 O25 1.258 . S
C28 O30 1.247 . S
C28 O32 1.258 . S
C29 O36 1.247 . S
C29 O37 1.258 . S
O30 C28 1.247 . S
O30 Zn31 2.028 . S
Zn31 O30 2.028 . S
Zn31 O35 2.035 . S
Zn31 O37 2.035 . S
Zn31 O38 2.028 . S
O32 C28 1.258 . S
O32 Zn33 2.035 . S
Zn33 O32 2.035 . S
Zn33 O34 2.028 . S
Zn33 O36 2.028 . S
Zn33 O39 2.035 . S
O34 Zn33 2.028 . S
O34 C40 1.247 . S
O35 Zn31 2.035 . S
O35 C40 1.258 . S
O36 C29 1.247 . S
O36 Zn33 2.028 . S
O37 C29 1.258 . S
O37 Zn31 2.035 . S
O38 Zn31 2.028 . S
O38 C41 1.247 . S
O39 Zn33 2.035 . S
O39 C41 1.258 . S
C40 O34 1.247 . S
C40 O35 1.258 . S
C41 O38 1.247 . S
C41 O39 1.258 . S
C42 O44 1.247 . S
C42 O46 1.258 . S
C43 O50 1.247 . S
C43 O51 1.258 . S
O44 C42 1.247 . S
O44 Zn45 2.028 . S
Zn45 O44 2.028 . S
Zn45 O49 2.035 . S
Zn45 O51 2.035 . S
Zn45 O52 2.028 . S
O46 C42 1.258 . S
O46 Zn47 2.035 . S
Zn47 O46 2.035 . S
Zn47 O48 2.028 . S
Zn47 O50 2.028 . S
Zn47 O53 2.035 . S
O48 Zn47 2.028 . S
O48 C54 1.247 . S
O49 Zn45 2.035 . S
O49 C54 1.258 . S
O50 C43 1.247 . S
O50 Zn47 2.028 . S
O51 C43 1.258 . S
O51 Zn45 2.035 . S
O52 Zn45 2.028 . S
O52 C55 1.247 . S
O53 Zn47 2.035 . S
O53 C55 1.258 . S
C54 O48 1.247 . S
C54 O49 1.258 . S
C55 O52 1.247 . S
C55 O53 1.258 . S
C56 O58 1.247 1_554 S
C56 O60 1.258 . S
C57 O64 1.247 . S
C57 O65 1.258 . S
O58 C56 1.247 1_556 S
O58 Zn59 2.028 . S
Zn59 O58 2.028 . S
Zn59 O63 2.035 1_556 S
Zn59 O65 2.035 1_556 S
Zn59 O66 2.028 1_556 S
O60 C56 1.258 . S
O60 Zn61 2.035 . S
Zn61 O60 2.035 . S
Zn61 O62 2.028 . S
Zn61 O64 2.028 . S
Zn61 O67 2.035 . S
O62 Zn61 2.028 . S
O62 C68 1.247 . S
O63 Zn59 2.035 1_554 S
O63 C68 1.258 . S
O64 C57 1.247 . S
O64 Zn61 2.028 . S
O65 C57 1.258 . S
O65 Zn59 2.035 1_554 S
O66 Zn59 2.028 1_554 S
O66 C69 1.246 . S
O67 Zn61 2.035 . S
O67 C69 1.258 . S
C68 O62 1.247 . S
C68 O63 1.258 . S
C69 O66 1.246 . S
C69 O67 1.258 . S
C70 O72 1.247 . S
C70 O74 1.258 1_556 S
C71 O78 1.247 . S
C71 O79 1.258 . S
O72 C70 1.247 . S
O72 Zn73 2.028 . S
Zn73 O72 2.028 . S
Zn73 O77 2.035 . S
Zn73 O79 2.035 . S
Zn73 O80 2.028 . S
O74 C70 1.258 1_554 S
O74 Zn75 2.035 . S
Zn75 O74 2.035 . S
Zn75 O76 2.028 1_554 S
Zn75 O78 2.028 1_554 S
Zn75 O81 2.035 . S
O76 Zn75 2.028 1_556 S
O76 C82 1.247 . S
O77 Zn73 2.035 . S
O77 C82 1.258 . S
O78 C71 1.247 . S
O78 Zn75 2.028 1_556 S
O79 C71 1.258 . S
O79 Zn73 2.035 . S
O80 Zn73 2.028 . S
O80 C83 1.247 . S
O81 Zn75 2.035 . S
O81 C83 1.258 1_554 S
C82 O76 1.247 . S
C82 O77 1.258 . S
C83 O80 1.247 . S
C83 O81 1.258 1_556 S
C84 O86 1.247 . S
C84 O88 1.258 . S
C85 O92 1.247 . S
C85 O93 1.258 1_554 S
O86 C84 1.247 . S
O86 Zn87 2.028 1_554 S
Zn87 O86 2.028 1_556 S
Zn87 O91 2.035 . S
Zn87 O93 2.035 . S
Zn87 O94 2.028 1_556 S
O88 C84 1.258 . S
O88 Zn89 2.035 . S
Zn89 O88 2.035 . S
Zn89 O90 2.028 . S
Zn89 O92 2.028 . S
Zn89 O95 2.035 . S
O90 Zn89 2.028 . S
O90 C96 1.247 . S
O91 Zn87 2.035 . S
O91 C96 1.258 1_556 S
O92 C85 1.247 . S
O92 Zn89 2.028 . S
O93 C85 1.258 1_556 S
O93 Zn87 2.035 . S
O94 Zn87 2.028 1_554 S
O94 C97 1.247 . S
O95 Zn89 2.035 . S
O95 C97 1.258 . S
C96 O90 1.247 . S
C96 O91 1.258 1_554 S
C97 O94 1.247 . S
C97 O95 1.258 . S
C98 O100 1.247 . S
C98 O102 1.258 1_556 S
C99 O106 1.247 . S
C99 O107 1.258 . S
O100 C98 1.247 . S
O100 Zn101 2.028 . S
Zn101 O100 2.028 . S
Zn101 O105 2.035 . S
Zn101 O107 2.035 . S
Zn101 O108 2.028 . S
O102 C98 1.258 1_554 S
O102 Zn103 2.035 . S
Zn103 O102 2.035 . S
Zn103 O104 2.028 1_554 S
Zn103 O106 2.028 1_554 S
Zn103 O109 2.035 . S
O104 Zn103 2.028 1_556 S
O104 C110 1.247 . S
O105 Zn101 2.035 . S
O105 C110 1.258 . S
O106 C99 1.247 . S
O106 Zn103 2.028 1_556 S
O107 C99 1.258 . S
O107 Zn101 2.035 . S
O108 Zn101 2.028 . S
O108 C111 1.247 . S
O109 Zn103 2.035 . S
O109 C111 1.258 1_554 S
C110 O104 1.247 . S
C110 O105 1.258 . S
C111 O108 1.247 . S
C111 O109 1.258 1_556 S
C112 O114 1.247 . S
C112 O116 1.258 . S
C113 O120 1.247 . S
C113 O121 1.258 . S
O114 C112 1.247 . S
O114 Zn115 2.028 . S
Zn115 O114 2.028 . S
Zn115 O119 2.035 . S
Zn115 O121 2.035 . S
Zn115 O122 2.028 . S
O116 C112 1.258 . S
O116 Zn117 2.035 . S
Zn117 O116 2.035 . S
Zn117 O118 2.028 . S
Zn117 O120 2.028 . S
Zn117 O123 2.035 . S
O118 Zn117 2.028 . S
O118 C124 1.247 . S
O119 Zn115 2.035 . S
O119 C124 1.258 . S
O120 C113 1.247 . S
O120 Zn117 2.028 . S
O121 C113 1.258 . S
O121 Zn115 2.035 . S
O122 Zn115 2.028 . S
O122 C125 1.247 . S
O123 Zn117 2.035 . S
O123 C125 1.258 . S
C124 O118 1.247 . S
C124 O119 1.258 . S
C125 O122 1.247 . S
C125 O123 1.258 . S
C126 O128 1.247 . S
C126 O130 1.258 . S
C127 O134 1.247 . S
C127 O135 1.258 . S
O128 C126 1.247 . S
O128 Zn129 2.028 . S
Zn129 O128 2.028 . S
Zn129 O133 2.035 . S
Zn129 O135 2.035 . S
Zn129 O136 2.028 . S
O130 C126 1.258 . S
O130 Zn131 2.035 . S
Zn131 O130 2.035 . S
Zn131 O132 2.028 . S
Zn131 O134 2.028 . S
Zn131 O137 2.035 . S
O132 Zn131 2.028 . S
O132 C138 1.247 . S
O133 Zn129 2.035 . S
O133 C138 1.258 . S
O134 C127 1.247 . S
O134 Zn131 2.028 . S
O135 C127 1.258 . S
O135 Zn129 2.035 . S
O136 Zn129 2.028 . S
O136 C139 1.247 . S
O137 Zn131 2.035 . S
O137 C139 1.258 . S
C138 O132 1.247 . S
C138 O133 1.258 . S
C139 O136 1.247 . S
C139 O137 1.258 . S
C140 O142 1.247 . S
C140 O144 1.258 . S
C141 O148 1.247 . S
C141 O149 1.258 . S
O142 C140 1.247 . S
O142 Zn143 2.028 . S
Zn143 O142 2.028 . S
Zn143 O147 2.035 . S
Zn143 O149 2.035 . S
Zn143 O150 2.028 . S
O144 C140 1.258 . S
O144 Zn145 2.035 . S
Zn145 O144 2.035 . S
Zn145 O146 2.028 . S
Zn145 O148 2.028 . S
Zn145 O151 2.035 . S
O146 Zn145 2.028 . S
O146 C152 1.247 . S
O147 Zn143 2.035 . S
O147 C152 1.258 . S
O148 C141 1.247 . S
O148 Zn145 2.028 . S
O149 C141 1.258 . S
O149 Zn143 2.035 . S
O150 Zn143 2.028 . S
O150 C153 1.247 . S
O151 Zn145 2.035 . S
O151 C153 1.258 . S
C152 O146 1.247 . S
C152 O147 1.258 . S
C153 O150 1.247 . S
C153 O151 1.258 . S
C154 O156 1.247 . S
C154 O158 1.258 . S
C155 O162 1.247 . S
C155 O163 1.258 . S
O156 C154 1.247 . S
O156 Zn157 2.028 . S
Zn157 O156 2.028 . S
Zn157 O161 2.035 . S
Zn157 O163 2.035 . S
Zn157 O164 2.028 . S
O158 C154 1.258 . S
O158 Zn159 2.035 . S
Zn159 O158 2.035 . S
Zn159 O160 2.028 . S
Zn159 O162 2.028 . S
Zn159 O165 2.035 . S
O160 Zn159 2.028 . S
O160 C166 1.247 . S
O161 Zn157 2.035 . S
O161 C166 1.258 . S
O162 C155 1.247 . S
O162 Zn159 2.028 . S
O163 C155 1.258 . S
O163 Zn157 2.035 . S
O164 Zn157 2.028 . S
O164 C167 1.247 . S
O165 Zn159 2.035 . S
O165 C167 1.258 . S
C166 O160 1.247 . S
C166 O161 1.258 . S
C167 O164 1.247 . S
C167 O165 1.258 . S
C168 O170 1.247 . S
C168 O172 1.258 . S
C169 O176 1.247 . S
C169 O177 1.258 . S
O170 C168 1.247 . S
O170 Zn171 2.028 . S
Zn171 O170 2.028 . S
Zn171 O175 2.035 . S
Zn171 O177 2.035 . S
Zn171 O178 2.028 . S
O172 C168 1.258 . S
O172 Zn173 2.035 . S
Zn173 O172 2.035 . S
Zn173 O174 2.028 . S
Zn173 O176 2.028 . S
Zn173 O179 2.035 . S
O174 Zn173 2.028 . S
O174 C180 1.247 . S
O175 Zn171 2.035 . S
O175 C180 1.258 . S
O176 C169 1.247 . S
O176 Zn173 2.028 . S
O177 C169 1.258 . S
O177 Zn171 2.035 . S
O178 Zn171 2.028 . S
O178 C181 1.247 . S
O179 Zn173 2.035 . S
O179 C181 1.258 . S
C180 O174 1.247 . S
C180 O175 1.258 . S
C181 O178 1.247 . S
C181 O179 1.258 . S
C182 O184 1.247 . S
C182 O186 1.258 . S
C183 O190 1.247 . S
C183 O191 1.258 . S
O184 C182 1.247 . S
O184 Zn185 2.028 . S
Zn185 O184 2.028 . S
Zn185 O189 2.035 . S
Zn185 O191 2.035 . S
Zn185 O192 2.028 . S
O186 C182 1.258 . S
O186 Zn187 2.035 . S
Zn187 O186 2.035 . S
Zn187 O188 2.028 . S
Zn187 O190 2.028 . S
Zn187 O193 2.035 . S
O188 Zn187 2.028 . S
O188 C194 1.247 . S
O189 Zn185 2.035 . S
O189 C194 1.258 . S
O190 C183 1.247 . S
O190 Zn187 2.028 . S
O191 C183 1.258 . S
O191 Zn185 2.035 . S
O192 Zn185 2.028 . S
O192 C195 1.247 . S
O193 Zn187 2.035 . S
O193 C195 1.258 . S
C194 O188 1.247 . S
C194 O189 1.258 . S
C195 O192 1.247 . S
C195 O193 1.258 . S
C196 O198 1.247 . S
C196 O200 1.258 . S
C197 O204 1.247 . S
C197 O205 1.258 . S
O198 C196 1.247 . S
O198 Zn199 2.028 . S
Zn199 O198 2.028 . S
Zn199 O203 2.035 . S
Zn199 O205 2.035 . S
Zn199 O206 2.028 . S
O200 C196 1.258 . S
O200 Zn201 2.035 . S
Zn201 O200 2.035 . S
Zn201 O202 2.028 . S
Zn201 O204 2.028 . S
Zn201 O207 2.035 . S
O202 Zn201 2.028 . S
O202 C208 1.247 . S
O203 Zn199 2.035 . S
O203 C208 1.258 . S
O204 C197 1.247 . S
O204 Zn201 2.028 . S
O205 C197 1.258 . S
O205 Zn199 2.035 . S
O206 Zn199 2.028 . S
O206 C209 1.247 . S
O207 Zn201 2.035 . S
O207 C209 1.258 . S
C208 O202 1.247 . S
C208 O203 1.258 . S
C209 O206 1.247 . S
C209 O207 1.258 . S
C210 O212 1.247 . S
C210 O214 1.258 . S
C211 O218 1.247 . S
C211 O219 1.258 . S
O212 C210 1.247 . S
O212 Zn213 2.028 . S
Zn213 O212 2.028 . S
Zn213 O217 2.035 . S
Zn213 O219 2.035 . S
Zn213 O220 2.028 . S
O214 C210 1.258 . S
O214 Zn215 2.035 . S
Zn215 O214 2.035 . S
Zn215 O216 2.028 . S
Zn215 O218 2.028 . S
Zn215 O221 2.035 . S
O216 Zn215 2.028 . S
O216 C222 1.247 . S
O217 Zn213 2.035 . S
O217 C222 1.258 . S
O218 C211 1.247 . S
O218 Zn215 2.028 . S
O219 C211 1.258 . S
O219 Zn213 2.035 . S
O220 Zn213 2.028 . S
O220 C223 1.247 . S
O221 Zn215 2.035 . S
O221 C223 1.258 . S
C222 O216 1.247 . S
C222 O217 1.258 . S
C223 O220 1.247 . S
C223 O221 1.258 . S
H224 C230 0.930 . S
H225 C234 0.930 . S
H226 C239 0.929 . S
H227 C237 0.929 . S
H228 C232 0.929 . S
H229 C238 0.929 . S
C230 H224 0.930 . S
C230 C231 1.367 . S
C230 C238 1.378 . S
C231 C230 1.367 . S
C231 C239 1.433 . S
C232 H228 0.929 . S
C232 C234 1.378 . S
C232 C236 1.350 . S
C233 C236 1.463 1_565 S
C233 C238 1.350 . S
C233 N241 1.427 . S
C234 H225 0.930 . S
C234 C232 1.378 . S
C234 C235 1.367 . S
C235 C234 1.367 . S
C235 C237 1.433 . S
C236 C232 1.350 . S
C236 C233 1.463 1_545 S
C236 N240 1.427 . S
C237 H227 0.929 . S
C237 C235 1.433 . S
C237 N240 1.384 . S
C238 H229 0.929 . S
C238 C230 1.378 . S
C238 C233 1.350 . S
C239 H226 0.929 . S
C239 C231 1.433 . S
C239 N241 1.384 . S
N240 C236 1.427 . S
N240 C237 1.384 . S
N241 C233 1.427 . S
N241 C239 1.384 . S
H242 C248 0.930 . S
H243 C252 0.930 . S
H244 C257 0.929 . S
H245 C255 0.929 . S
H246 C250 0.929 . S
H247 C256 0.929 . S
C248 H242 0.930 . S
C248 C249 1.367 . S
C248 C256 1.378 . S
C249 C248 1.367 . S
C249 C257 1.433 . S
C250 H246 0.929 . S
C250 C252 1.378 . S
C250 C254 1.350 . S
C251 C254 1.463 1_455 S
C251 C256 1.350 . S
C251 N259 1.427 . S
C252 H243 0.930 . S
C252 C250 1.378 . S
C252 C253 1.367 . S
C253 C252 1.367 . S
C253 C255 1.433 . S
C254 C250 1.350 . S
C254 C251 1.463 1_655 S
C254 N258 1.427 . S
C255 H245 0.929 . S
C255 C253 1.433 . S
C255 N258 1.384 . S
C256 H247 0.929 . S
C256 C248 1.378 . S
C256 C251 1.350 . S
C257 H244 0.929 . S
C257 C249 1.433 . S
C257 N259 1.384 . S
N258 C254 1.427 . S
N258 C255 1.384 . S
N259 C251 1.427 . S
N259 C257 1.384 . S
H260 C266 0.930 . S
H261 C270 0.930 . S
H262 C275 0.929 . S
H263 C273 0.929 . S
H264 C268 0.929 . S
H265 C274 0.929 . S
C266 H260 0.930 . S
C266 C267 1.367 . S
C266 C274 1.378 . S
C267 C266 1.367 . S
C267 C275 1.433 . S
C268 H264 0.929 . S
C268 C270 1.378 . S
C268 C272 1.350 . S
C269 C272 1.463 1_565 S
C269 C274 1.350 . S
C269 N277 1.427 . S
C270 H261 0.930 . S
C270 C268 1.378 . S
C270 C271 1.367 . S
C271 C270 1.367 . S
C271 C273 1.433 . S
C272 C268 1.350 . S
C272 C269 1.463 1_545 S
C272 N276 1.427 . S
C273 H263 0.929 . S
C273 C271 1.433 . S
C273 N276 1.384 . S
C274 H265 0.929 . S
C274 C266 1.378 . S
C274 C269 1.350 . S
C275 H262 0.929 . S
C275 C267 1.433 . S
C275 N277 1.384 . S
N276 C272 1.427 . S
N276 C273 1.384 . S
N277 C269 1.427 . S
N277 C275 1.384 . S
H278 C284 0.930 . S
H279 C288 0.930 . S
H280 C293 0.929 . S
H281 C291 0.929 . S
H282 C286 0.929 . S
H283 C292 0.929 . S
C284 H278 0.930 . S
C284 C285 1.367 . S
C284 C292 1.378 . S
C285 C284 1.367 . S
C285 C293 1.433 . S
C286 H282 0.929 . S
C286 C288 1.378 . S
C286 C290 1.350 . S
C287 C290 1.463 1_455 S
C287 C292 1.350 . S
C287 N295 1.427 . S
C288 H279 0.930 . S
C288 C286 1.378 . S
C288 C289 1.367 . S
C289 C288 1.367 . S
C289 C291 1.433 . S
C290 C286 1.350 . S
C290 C287 1.463 1_655 S
C290 N294 1.427 . S
C291 H281 0.929 . S
C291 C289 1.433 . S
C291 N294 1.384 . S
C292 H283 0.929 . S
C292 C284 1.378 . S
C292 C287 1.350 . S
C293 H280 0.929 . S
C293 C285 1.433 . S
C293 N295 1.384 . S
N294 C290 1.427 . S
N294 C291 1.384 . S
N295 C287 1.427 . S
N295 C293 1.384 . S
H296 C302 0.930 . S
H297 C306 0.930 . S
H298 C311 0.929 . S
H299 C309 0.929 . S
H300 C304 0.929 . S
H301 C310 0.929 . S
C302 H296 0.930 . S
C302 C303 1.367 1_556 S
C302 C310 1.378 . S
C303 C302 1.367 1_554 S
C303 C311 1.433 . S
C304 H300 0.929 . S
C304 C306 1.378 . S
C304 C308 1.350 . S
C305 C308 1.463 . S
C305 C310 1.350 1_554 S
C305 N313 1.427 . S
C306 H297 0.930 . S
C306 C304 1.378 . S
C306 C307 1.367 1_554 S
C307 C306 1.367 1_556 S
C307 C309 1.433 . S
C308 C304 1.350 . S
C308 C305 1.463 . S
C308 N312 1.427 1_554 S
C309 H299 0.929 . S
C309 C307 1.433 . S
C309 N312 1.384 . S
C310 H301 0.929 . S
C310 C302 1.378 . S
C310 C305 1.350 1_556 S
C311 H298 0.929 . S
C311 C303 1.433 . S
C311 N313 1.384 . S
N312 C308 1.427 1_556 S
N312 C309 1.384 . S
N313 C305 1.427 . S
N313 C311 1.384 . S
H314 C320 0.930 . S
H315 C324 0.930 . S
H316 C329 0.929 1_554 S
H317 C327 0.929 . S
H318 C322 0.929 . S
H319 C328 0.929 . S
C320 H314 0.930 . S
C320 C321 1.367 . S
C320 C328 1.378 . S
C321 C320 1.367 . S
C321 C329 1.433 . S
C322 H318 0.929 . S
C322 C324 1.378 . S
C322 C326 1.350 1_554 S
C323 C326 1.463 . S
C323 C328 1.350 . S
C323 N331 1.427 . S
C324 H315 0.930 . S
C324 C322 1.378 . S
C324 C325 1.367 . S
C325 C324 1.367 . S
C325 C327 1.433 1_554 S
C326 C322 1.350 1_556 S
C326 C323 1.463 . S
C326 N330 1.427 . S
C327 H317 0.929 . S
C327 C325 1.433 1_556 S
C327 N330 1.384 . S
C328 H319 0.929 . S
C328 C320 1.378 . S
C328 C323 1.350 . S
C329 H316 0.929 1_556 S
C329 C321 1.433 . S
C329 N331 1.384 . S
N330 C326 1.427 . S
N330 C327 1.384 . S
N331 C323 1.427 . S
N331 C329 1.384 . S
H332 C338 0.930 . S
H333 C342 0.930 . S
H334 C347 0.929 . S
H335 C345 0.929 . S
H336 C340 0.929 . S
H337 C346 0.929 . S
C338 H332 0.930 . S
C338 C339 1.367 1_554 S
C338 C346 1.378 . S
C339 C338 1.367 1_556 S
C339 C347 1.433 . S
C340 H336 0.929 . S
C340 C342 1.378 . S
C340 C344 1.350 1_556 S
C341 C344 1.463 . S
C341 C346 1.350 . S
C341 N349 1.427 1_554 S
C342 H333 0.930 . S
C342 C340 1.378 . S
C342 C343 1.367 1_556 S
C343 C342 1.367 1_554 S
C343 C345 1.433 . S
C344 C340 1.350 1_554 S
C344 C341 1.463 . S
C344 N348 1.427 . S
C345 H335 0.929 . S
C345 C343 1.433 . S
C345 N348 1.384 . S
C346 H337 0.929 . S
C346 C338 1.378 . S
C346 C341 1.350 . S
C347 H334 0.929 . S
C347 C339 1.433 . S
C347 N349 1.384 . S
N348 C344 1.427 . S
N348 C345 1.384 . S
N349 C341 1.427 1_556 S
N349 C347 1.384 . S
H350 C356 0.930 . S
H351 C360 0.930 1_554 S
H352 C365 0.929 . S
H353 C363 0.929 . S
H354 C358 0.929 . S
H355 C364 0.929 . S
C356 H350 0.930 . S
C356 C357 1.367 1_556 S
C356 C364 1.378 . S
C357 C356 1.367 1_554 S
C357 C365 1.433 . S
C358 H354 0.929 . S
C358 C360 1.378 1_554 S
C358 C362 1.350 1_554 S
C359 C362 1.463 . S
C359 C364 1.350 . S
C359 N367 1.427 1_556 S
C360 H351 0.930 1_556 S
C360 C358 1.378 1_556 S
C360 C361 1.367 . S
C361 C360 1.367 . S
C361 C363 1.433 . S
C362 C358 1.350 1_556 S
C362 C359 1.463 . S
C362 N366 1.427 . S
C363 H353 0.929 . S
C363 C361 1.433 . S
C363 N366 1.384 . S
C364 H355 0.929 . S
C364 C356 1.378 . S
C364 C359 1.350 . S
C365 H352 0.929 . S
C365 C357 1.433 . S
C365 N367 1.384 . S
N366 C362 1.427 . S
N366 C363 1.384 . S
N367 C359 1.427 1_554 S
N367 C365 1.384 . S
H368 C374 0.930 . S
H369 C378 0.930 . S
H370 C383 0.929 . S
H371 C381 0.929 . S
H372 C376 0.929 . S
H373 C382 0.929 . S
C374 H368 0.930 . S
C374 C375 1.367 . S
C374 C382 1.378 . S
C375 C374 1.367 . S
C375 C383 1.433 . S
C376 H372 0.929 . S
C376 C378 1.378 . S
C376 C380 1.350 . S
C377 C380 1.463 . S
C377 C382 1.350 . S
C377 N385 1.427 . S
C378 H369 0.930 . S
C378 C376 1.378 . S
C378 C379 1.367 . S
C379 C378 1.367 . S
C379 C381 1.433 . S
C380 C376 1.350 . S
C380 C377 1.463 . S
C380 N384 1.427 . S
C381 H371 0.929 . S
C381 C379 1.433 . S
C381 N384 1.384 . S
C382 H373 0.929 . S
C382 C374 1.378 . S
C382 C377 1.350 . S
C383 H370 0.929 . S
C383 C375 1.433 . S
C383 N385 1.384 . S
N384 C380 1.427 . S
N384 C381 1.384 . S
N385 C377 1.427 . S
N385 C383 1.384 . S
H386 C392 0.930 . S
H387 C396 0.930 . S
H388 C401 0.929 . S
H389 C399 0.929 . S
H390 C394 0.929 . S
H391 C400 0.929 . S
C392 H386 0.930 . S
C392 C393 1.367 . S
C392 C400 1.378 . S
C393 C392 1.367 . S
C393 C401 1.433 . S
C394 H390 0.929 . S
C394 C396 1.378 . S
C394 C398 1.350 . S
C395 C398 1.463 . S
C395 C400 1.350 . S
C395 N403 1.427 . S
C396 H387 0.930 . S
C396 C394 1.378 . S
C396 C397 1.367 . S
C397 C396 1.367 . S
C397 C399 1.433 . S
C398 C394 1.350 . S
C398 C395 1.463 . S
C398 N402 1.427 . S
C399 H389 0.929 . S
C399 C397 1.433 . S
C399 N402 1.384 . S
C400 H391 0.929 . S
C400 C392 1.378 . S
C400 C395 1.350 . S
C401 H388 0.929 . S
C401 C393 1.433 . S
C401 N403 1.384 . S
N402 C398 1.427 . S
N402 C399 1.384 . S
N403 C395 1.427 . S
N403 C401 1.384 . S
H404 C410 0.930 . S
H405 C414 0.930 . S
H406 C419 0.929 . S
H407 C417 0.929 . S
H408 C412 0.929 . S
H409 C418 0.929 . S
C410 H404 0.930 . S
C410 C411 1.367 . S
C410 C418 1.378 . S
C411 C410 1.367 . S
C411 C419 1.433 . S
C412 H408 0.929 . S
C412 C414 1.378 . S
C412 C416 1.350 . S
C413 C416 1.463 . S
C413 C418 1.350 . S
C413 N421 1.427 . S
C414 H405 0.930 . S
C414 C412 1.378 . S
C414 C415 1.367 . S
C415 C414 1.367 . S
C415 C417 1.433 . S
C416 C412 1.350 . S
C416 C413 1.463 . S
C416 N420 1.427 . S
C417 H407 0.929 . S
C417 C415 1.433 . S
C417 N420 1.384 . S
C418 H409 0.929 . S
C418 C410 1.378 . S
C418 C413 1.350 . S
C419 H406 0.929 . S
C419 C411 1.433 . S
C419 N421 1.384 . S
N420 C416 1.427 . S
N420 C417 1.384 . S
N421 C413 1.427 . S
N421 C419 1.384 . S
H422 C428 0.930 . S
H423 C432 0.930 . S
H424 C437 0.929 . S
H425 C435 0.929 . S
H426 C430 0.929 . S
H427 C436 0.929 . S
C428 H422 0.930 . S
C428 C429 1.367 . S
C428 C436 1.378 . S
C429 C428 1.367 . S
C429 C437 1.433 . S
C430 H426 0.929 . S
C430 C432 1.378 . S
C430 C434 1.350 . S
C431 C434 1.463 . S
C431 C436 1.350 . S
C431 N439 1.427 . S
C432 H423 0.930 . S
C432 C430 1.378 . S
C432 C433 1.367 . S
C433 C432 1.367 . S
C433 C435 1.433 . S
C434 C430 1.350 . S
C434 C431 1.463 . S
C434 N438 1.427 . S
C435 H425 0.929 . S
C435 C433 1.433 . S
C435 N438 1.384 . S
C436 H427 0.929 . S
C436 C428 1.378 . S
C436 C431 1.350 . S
C437 H424 0.929 . S
C437 C429 1.433 . S
C437 N439 1.384 . S
N438 C434 1.427 . S
N438 C435 1.384 . S
N439 C431 1.427 . S
N439 C437 1.384 . S
H440 C446 0.930 . S
H441 C450 0.930 . S
H442 C455 0.929 . S
H443 C453 0.929 . S
H444 C448 0.929 . S
H445 C454 0.929 . S
C446 H440 0.930 . S
C446 C447 1.367 . S
C446 C454 1.378 . S
C447 C446 1.367 . S
C447 C455 1.433 . S
C448 H444 0.929 . S
C448 C450 1.378 . S
C448 C452 1.350 . S
C449 C452 1.463 1_565 S
C449 C454 1.350 . S
C449 N457 1.427 . S
C450 H441 0.930 . S
C450 C448 1.378 . S
C450 C451 1.367 . S
C451 C450 1.367 . S
C451 C453 1.433 . S
C452 C448 1.350 . S
C452 C449 1.463 1_545 S
C452 N456 1.427 . S
C453 H443 0.929 . S
C453 C451 1.433 . S
C453 N456 1.384 . S
C454 H445 0.929 . S
C454 C446 1.378 . S
C454 C449 1.350 . S
C455 H442 0.929 . S
C455 C447 1.433 . S
C455 N457 1.384 . S
N456 C452 1.427 . S
N456 C453 1.384 . S
N457 C449 1.427 . S
N457 C455 1.384 . S
H458 C464 0.930 . S
H459 C468 0.930 . S
H460 C473 0.929 . S
H461 C471 0.929 . S
H462 C466 0.929 . S
H463 C472 0.929 . S
C464 H458 0.930 . S
C464 C465 1.367 . S
C464 C472 1.378 . S
C465 C464 1.367 . S
C465 C473 1.433 . S
C466 H462 0.929 . S
C466 C468 1.378 . S
C466 C470 1.350 . S
C467 C470 1.463 1_655 S
C467 C472 1.350 . S
C467 N475 1.427 . S
C468 H459 0.930 . S
C468 C466 1.378 . S
C468 C469 1.367 . S
C469 C468 1.367 . S
C469 C471 1.433 . S
C470 C466 1.350 . S
C470 C467 1.463 1_455 S
C470 N474 1.427 . S
C471 H461 0.929 . S
C471 C469 1.433 . S
C471 N474 1.384 . S
C472 H463 0.929 . S
C472 C464 1.378 . S
C472 C467 1.350 . S
C473 H460 0.929 . S
C473 C465 1.433 . S
C473 N475 1.384 . S
N474 C470 1.427 . S
N474 C471 1.384 . S
N475 C467 1.427 . S
N475 C473 1.384 . S
H476 C482 0.930 . S
H477 C486 0.930 . S
H478 C491 0.929 . S
H479 C489 0.929 . S
H480 C484 0.929 . S
H481 C490 0.929 . S
C482 H476 0.930 . S
C482 C483 1.367 . S
C482 C490 1.378 . S
C483 C482 1.367 . S
C483 C491 1.433 . S
C484 H480 0.929 . S
C484 C486 1.378 . S
C484 C488 1.350 . S
C485 C488 1.463 1_565 S
C485 C490 1.350 . S
C485 N493 1.427 . S
C486 H477 0.930 . S
C486 C484 1.378 . S
C486 C487 1.367 . S
C487 C486 1.367 . S
C487 C489 1.433 . S
C488 C484 1.350 . S
C488 C485 1.463 1_545 S
C488 N492 1.427 . S
C489 H479 0.929 . S
C489 C487 1.433 . S
C489 N492 1.384 . S
C490 H481 0.929 . S
C490 C482 1.378 . S
C490 C485 1.350 . S
C491 H478 0.929 . S
C491 C483 1.433 . S
C491 N493 1.384 . S
N492 C488 1.427 . S
N492 C489 1.384 . S
N493 C485 1.427 . S
N493 C491 1.384 . S
H494 C500 0.930 . S
H495 C504 0.930 . S
H496 C509 0.929 . S
H497 C507 0.929 . S
H498 C502 0.929 . S
H499 C508 0.929 . S
C500 H494 0.930 . S
C500 C501 1.367 . S
C500 C508 1.378 . S
C501 C500 1.367 . S
C501 C509 1.433 . S
C502 H498 0.929 . S
C502 C504 1.378 . S
C502 C506 1.350 . S
C503 C506 1.463 1_655 S
C503 C508 1.350 . S
C503 N511 1.427 . S
C504 H495 0.930 . S
C504 C502 1.378 . S
C504 C505 1.367 . S
C505 C504 1.367 . S
C505 C507 1.433 . S
C506 C502 1.350 . S
C506 C503 1.463 1_455 S
C506 N510 1.427 . S
C507 H497 0.929 . S
C507 C505 1.433 . S
C507 N510 1.384 . S
C508 H499 0.929 . S
C508 C500 1.378 . S
C508 C503 1.350 . S
C509 H496 0.929 . S
C509 C501 1.433 . S
C509 N511 1.384 . S
N510 C506 1.427 . S
N510 C507 1.384 . S
N511 C503 1.427 . S
N511 C509 1.384 . S
H512 C518 0.930 1_556 S
H513 C522 0.930 . S
H514 C527 0.929 . S
H515 C525 0.929 1_556 S
H516 C520 0.929 . S
H517 C526 0.929 1_556 S
C518 H512 0.930 1_554 S
C518 C519 1.367 . S
C518 C526 1.378 . S
C519 C518 1.367 . S
C519 C527 1.433 . S
C520 H516 0.929 . S
C520 C522 1.378 . S
C520 C524 1.350 . S
C521 C524 1.463 . S
C521 C526 1.350 . S
C521 N529 1.427 . S
C522 H513 0.930 . S
C522 C520 1.378 . S
C522 C523 1.367 . S
C523 C522 1.367 . S
C523 C525 1.433 . S
C524 C520 1.350 . S
C524 C521 1.463 . S
C524 N528 1.427 . S
C525 H515 0.929 1_554 S
C525 C523 1.433 . S
C525 N528 1.384 . S
C526 H517 0.929 1_554 S
C526 C518 1.378 . S
C526 C521 1.350 . S
C527 H514 0.929 . S
C527 C519 1.433 . S
C527 N529 1.384 . S
N528 C524 1.427 . S
N528 C525 1.384 . S
N529 C521 1.427 . S
N529 C527 1.384 . S
H530 C536 0.930 . S
H531 C540 0.930 . S
H532 C545 0.929 1_554 S
H533 C543 0.929 . S
H534 C538 0.929 . S
H535 C544 0.929 . S
C536 H530 0.930 . S
C536 C537 1.367 . S
C536 C544 1.378 . S
C537 C536 1.367 . S
C537 C545 1.433 . S
C538 H534 0.929 . S
C538 C540 1.378 . S
C538 C542 1.350 . S
C539 C542 1.463 . S
C539 C544 1.350 . S
C539 N547 1.427 . S
C540 H531 0.930 . S
C540 C538 1.378 . S
C540 C541 1.367 . S
C541 C540 1.367 . S
C541 C543 1.433 . S
C542 C538 1.350 . S
C542 C539 1.463 . S
C542 N546 1.427 . S
C543 H533 0.929 . S
C543 C541 1.433 . S
C543 N546 1.384 . S
C544 H535 0.929 . S
C544 C536 1.378 . S
C544 C539 1.350 . S
C545 H532 0.929 1_556 S
C545 C537 1.433 . S
C545 N547 1.384 . S
N546 C542 1.427 . S
N546 C543 1.384 . S
N547 C539 1.427 . S
N547 C545 1.384 . S
H548 C554 0.930 . S
H549 C558 0.930 . S
H550 C563 0.929 1_556 S
H551 C561 0.929 . S
H552 C556 0.929 1_556 S
H553 C562 0.929 . S
C554 H548 0.930 . S
C554 C555 1.367 . S
C554 C562 1.378 . S
C555 C554 1.367 . S
C555 C563 1.433 . S
C556 H552 0.929 1_554 S
C556 C558 1.378 . S
C556 C560 1.350 . S
C557 C560 1.463 . S
C557 C562 1.350 . S
C557 N565 1.427 . S
C558 H549 0.930 . S
C558 C556 1.378 . S
C558 C559 1.367 . S
C559 C558 1.367 . S
C559 C561 1.433 . S
C560 C556 1.350 . S
C560 C557 1.463 . S
C560 N564 1.427 . S
C561 H551 0.929 . S
C561 C559 1.433 . S
C561 N564 1.384 . S
C562 H553 0.929 . S
C562 C554 1.378 . S
C562 C557 1.350 . S
C563 H550 0.929 1_554 S
C563 C555 1.433 . S
C563 N565 1.384 . S
N564 C560 1.427 . S
N564 C561 1.384 . S
N565 C557 1.427 . S
N565 C563 1.384 . S
H566 C572 0.930 . S
H567 C576 0.930 1_554 S
H568 C581 0.929 1_554 S
H569 C579 0.929 . S
H570 C574 0.929 1_554 S
H571 C580 0.929 . S
C572 H566 0.930 . S
C572 C573 1.367 . S
C572 C580 1.378 . S
C573 C572 1.367 . S
C573 C581 1.433 . S
C574 H570 0.929 1_556 S
C574 C576 1.378 . S
C574 C578 1.350 . S
C575 C578 1.463 . S
C575 C580 1.350 . S
C575 N583 1.427 . S
C576 H567 0.930 1_556 S
C576 C574 1.378 . S
C576 C577 1.367 . S
C577 C576 1.367 . S
C577 C579 1.433 . S
C578 C574 1.350 . S
C578 C575 1.463 . S
C578 N582 1.427 . S
C579 H569 0.929 . S
C579 C577 1.433 . S
C579 N582 1.384 . S
C580 H571 0.929 . S
C580 C572 1.378 . S
C580 C575 1.350 . S
C581 H568 0.929 1_556 S
C581 C573 1.433 . S
C581 N583 1.384 . S
N582 C578 1.427 . S
N582 C579 1.384 . S
N583 C575 1.427 . S
N583 C581 1.384 . S
H584 C590 0.930 . S
H585 C594 0.930 . S
H586 C599 0.929 . S
H587 C597 0.929 . S
H588 C592 0.929 . S
H589 C598 0.929 . S
C590 H584 0.930 . S
C590 C591 1.367 . S
C590 C598 1.378 . S
C591 C590 1.367 . S
C591 C599 1.433 . S
C592 H588 0.929 . S
C592 C594 1.378 . S
C592 C596 1.350 . S
C593 C596 1.463 . S
C593 C598 1.350 . S
C593 N601 1.427 . S
C594 H585 0.930 . S
C594 C592 1.378 . S
C594 C595 1.367 . S
C595 C594 1.367 . S
C595 C597 1.433 . S
C596 C592 1.350 . S
C596 C593 1.463 . S
C596 N600 1.427 . S
C597 H587 0.929 . S
C597 C595 1.433 . S
C597 N600 1.384 . S
C598 H589 0.929 . S
C598 C590 1.378 . S
C598 C593 1.350 . S
C599 H586 0.929 . S
C599 C591 1.433 . S
C599 N601 1.384 . S
N600 C596 1.427 . S
N600 C597 1.384 . S
N601 C593 1.427 . S
N601 C599 1.384 . S
H602 C608 0.930 . S
H603 C612 0.930 . S
H604 C617 0.929 . S
H605 C615 0.929 . S
H606 C610 0.929 . S
H607 C616 0.929 . S
C608 H602 0.930 . S
C608 C609 1.367 . S
C608 C616 1.378 . S
C609 C608 1.367 . S
C609 C617 1.433 . S
C610 H606 0.929 . S
C610 C612 1.378 . S
C610 C614 1.350 . S
C611 C614 1.463 . S
C611 C616 1.350 . S
C611 N619 1.427 . S
C612 H603 0.930 . S
C612 C610 1.378 . S
C612 C613 1.367 . S
C613 C612 1.367 . S
C613 C615 1.433 . S
C614 C610 1.350 . S
C614 C611 1.463 . S
C614 N618 1.427 . S
C615 H605 0.929 . S
C615 C613 1.433 . S
C615 N618 1.384 . S
C616 H607 0.929 . S
C616 C608 1.378 . S
C616 C611 1.350 . S
C617 H604 0.929 . S
C617 C609 1.433 . S
C617 N619 1.384 . S
N618 C614 1.427 . S
N618 C615 1.384 . S
N619 C611 1.427 . S
N619 C617 1.384 . S
H620 C626 0.930 . S
H621 C630 0.930 . S
H622 C635 0.929 . S
H623 C633 0.929 . S
H624 C628 0.929 . S
H625 C634 0.929 . S
C626 H620 0.930 . S
C626 C627 1.367 . S
C626 C634 1.378 . S
C627 C626 1.367 . S
C627 C635 1.433 . S
C628 H624 0.929 . S
C628 C630 1.378 . S
C628 C632 1.350 . S
C629 C632 1.463 . S
C629 C634 1.350 . S
C629 N637 1.427 . S
C630 H621 0.930 . S
C630 C628 1.378 . S
C630 C631 1.367 . S
C631 C630 1.367 . S
C631 C633 1.433 . S
C632 C628 1.350 . S
C632 C629 1.463 . S
C632 N636 1.427 . S
C633 H623 0.929 . S
C633 C631 1.433 . S
C633 N636 1.384 . S
C634 H625 0.929 . S
C634 C626 1.378 . S
C634 C629 1.350 . S
C635 H622 0.929 . S
C635 C627 1.433 . S
C635 N637 1.384 . S
N636 C632 1.427 . S
N636 C633 1.384 . S
N637 C629 1.427 . S
N637 C635 1.384 . S
H638 C644 0.930 . S
H639 C648 0.930 . S
H640 C653 0.929 . S
H641 C651 0.929 . S
H642 C646 0.929 . S
H643 C652 0.929 . S
C644 H638 0.930 . S
C644 C645 1.367 . S
C644 C652 1.378 . S
C645 C644 1.367 . S
C645 C653 1.433 . S
C646 H642 0.929 . S
C646 C648 1.378 . S
C646 C650 1.350 . S
C647 C650 1.463 . S
C647 C652 1.350 . S
C647 N655 1.427 . S
C648 H639 0.930 . S
C648 C646 1.378 . S
C648 C649 1.367 . S
C649 C648 1.367 . S
C649 C651 1.433 . S
C650 C646 1.350 . S
C650 C647 1.463 . S
C650 N654 1.427 . S
C651 H641 0.929 . S
C651 C649 1.433 . S
C651 N654 1.384 . S
C652 H643 0.929 . S
C652 C644 1.378 . S
C652 C647 1.350 . S
C653 H640 0.929 . S
C653 C645 1.433 . S
C653 N655 1.384 . S
N654 C650 1.427 . S
N654 C651 1.384 . S
N655 C647 1.427 . S
N655 C653 1.384 . S
H656 C662 0.930 . S
H657 C666 0.930 . S
H658 C671 0.929 . S
H659 C669 0.929 . S
H660 C664 0.929 . S
H661 C670 0.929 . S
C662 H656 0.930 . S
C662 C663 1.367 . S
C662 C670 1.378 . S
C663 C662 1.367 . S
C663 C671 1.433 . S
C664 H660 0.929 . S
C664 C666 1.378 . S
C664 C668 1.350 . S
C665 C668 1.463 . S
C665 C670 1.350 . S
C665 N673 1.427 . S
C666 H657 0.930 . S
C666 C664 1.378 . S
C666 C667 1.367 1_556 S
C667 C666 1.367 1_554 S
C667 C669 1.433 . S
C668 C664 1.350 . S
C668 C665 1.463 . S
C668 N672 1.427 . S
C669 H659 0.929 . S
C669 C667 1.433 . S
C669 N672 1.384 1_554 S
C670 H661 0.929 . S
C670 C662 1.378 . S
C670 C665 1.350 . S
C671 H658 0.929 . S
C671 C663 1.433 . S
C671 N673 1.384 . S
N672 C668 1.427 . S
N672 C669 1.384 1_556 S
N673 C665 1.427 . S
N673 C671 1.384 . S
H674 C680 0.930 . S
H675 C684 0.930 . S
H676 C689 0.929 . S
H677 C687 0.929 . S
H678 C682 0.929 . S
H679 C688 0.929 . S
C680 H674 0.930 . S
C680 C681 1.367 . S
C680 C688 1.378 . S
C681 C680 1.367 . S
C681 C689 1.433 . S
C682 H678 0.929 . S
C682 C684 1.378 . S
C682 C686 1.350 . S
C683 C686 1.463 . S
C683 C688 1.350 . S
C683 N691 1.427 . S
C684 H675 0.930 . S
C684 C682 1.378 . S
C684 C685 1.367 1_554 S
C685 C684 1.367 1_556 S
C685 C687 1.433 . S
C686 C682 1.350 . S
C686 C683 1.463 . S
C686 N690 1.427 1_554 S
C687 H677 0.929 . S
C687 C685 1.433 . S
C687 N690 1.384 . S
C688 H679 0.929 . S
C688 C680 1.378 . S
C688 C683 1.350 . S
C689 H676 0.929 . S
C689 C681 1.433 . S
C689 N691 1.384 . S
N690 C686 1.427 1_556 S
N690 C687 1.384 . S
N691 C683 1.427 . S
N691 C689 1.384 . S
H692 C698 0.930 . S
H693 C702 0.930 . S
H694 C707 0.929 . S
H695 C705 0.929 . S
H696 C700 0.929 . S
H697 C706 0.929 . S
C698 H692 0.930 . S
C698 C699 1.367 1_556 S
C698 C706 1.378 . S
C699 C698 1.367 1_554 S
C699 C707 1.433 . S
C700 H696 0.929 . S
C700 C702 1.378 . S
C700 C704 1.350 . S
C701 C704 1.463 . S
C701 C706 1.350 . S
C701 N709 1.427 . S
C702 H693 0.930 . S
C702 C700 1.378 . S
C702 C703 1.367 . S
C703 C702 1.367 . S
C703 C705 1.433 . S
C704 C700 1.350 . S
C704 C701 1.463 . S
C704 N708 1.427 . S
C705 H695 0.929 . S
C705 C703 1.433 . S
C705 N708 1.384 . S
C706 H697 0.929 . S
C706 C698 1.378 . S
C706 C701 1.350 . S
C707 H694 0.929 . S
C707 C699 1.433 . S
C707 N709 1.384 1_554 S
N708 C704 1.427 . S
N708 C705 1.384 . S
N709 C701 1.427 . S
N709 C707 1.384 1_556 S
H710 C716 0.930 . S
H711 C720 0.930 . S
H712 C725 0.929 . S
H713 C723 0.929 . S
H714 C718 0.929 1_556 S
H715 C724 0.929 . S
C716 H710 0.930 . S
C716 C717 1.367 . S
C716 C724 1.378 . S
C717 C716 1.367 . S
C717 C725 1.433 . S
C718 H714 0.929 1_554 S
C718 C720 1.378 1_554 S
C718 C722 1.350 . S
C719 C722 1.463 . S
C719 C724 1.350 . S
C719 N727 1.427 . S
C720 H711 0.930 . S
C720 C718 1.378 1_556 S
C720 C721 1.367 . S
C721 C720 1.367 . S
C721 C723 1.433 1_556 S
C722 C718 1.350 . S
C722 C719 1.463 . S
C722 N726 1.427 . S
C723 H713 0.929 . S
C723 C721 1.433 1_554 S
C723 N726 1.384 . S
C724 H715 0.929 . S
C724 C716 1.378 . S
C724 C719 1.350 . S
C725 H712 0.929 . S
C725 C717 1.433 . S
C725 N727 1.384 . S
N726 C722 1.427 . S
N726 C723 1.384 . S
N727 C719 1.427 . S
N727 C725 1.384 . S
H728 C734 0.930 . S
H729 C738 0.930 . S
H730 C743 0.929 . S
H731 C741 0.929 . S
H732 C736 0.929 . S
H733 C742 0.929 . S
C734 H728 0.930 . S
C734 C735 1.367 . S
C734 C742 1.378 . S
C735 C734 1.367 . S
C735 C743 1.433 . S
C736 H732 0.929 . S
C736 C738 1.378 . S
C736 C740 1.350 . S
C737 C740 1.463 . S
C737 C742 1.350 . S
C737 N745 1.427 . S
C738 H729 0.930 . S
C738 C736 1.378 . S
C738 C739 1.367 . S
C739 C738 1.367 . S
C739 C741 1.433 . S
C740 C736 1.350 . S
C740 C737 1.463 . S
C740 N744 1.427 . S
C741 H731 0.929 . S
C741 C739 1.433 . S
C741 N744 1.384 . S
C742 H733 0.929 . S
C742 C734 1.378 . S
C742 C737 1.350 . S
C743 H730 0.929 . S
C743 C735 1.433 . S
C743 N745 1.384 . S
N744 C740 1.427 . S
N744 C741 1.384 . S
N745 C737 1.427 . S
N745 C743 1.384 . S
H746 C752 0.930 . S
H747 C756 0.930 . S
H748 C761 0.929 . S
H749 C759 0.929 . S
H750 C754 0.929 . S
H751 C760 0.929 . S
C752 H746 0.930 . S
C752 C753 1.367 . S
C752 C760 1.378 . S
C753 C752 1.367 . S
C753 C761 1.433 . S
C754 H750 0.929 . S
C754 C756 1.378 . S
C754 C758 1.350 . S
C755 C758 1.463 . S
C755 C760 1.350 . S
C755 N763 1.427 . S
C756 H747 0.930 . S
C756 C754 1.378 . S
C756 C757 1.367 . S
C757 C756 1.367 . S
C757 C759 1.433 . S
C758 C754 1.350 . S
C758 C755 1.463 . S
C758 N762 1.427 . S
C759 H749 0.929 . S
C759 C757 1.433 . S
C759 N762 1.384 . S
C760 H751 0.929 . S
C760 C752 1.378 . S
C760 C755 1.350 . S
C761 H748 0.929 . S
C761 C753 1.433 . S
C761 N763 1.384 . S
N762 C758 1.427 . S
N762 C759 1.384 . S
N763 C755 1.427 . S
N763 C761 1.384 . S
H764 C770 0.930 . S
H765 C774 0.930 . S
H766 C779 0.929 . S
H767 C777 0.929 . S
H768 C772 0.929 . S
H769 C778 0.929 . S
C770 H764 0.930 . S
C770 C771 1.367 . S
C770 C778 1.378 . S
C771 C770 1.367 . S
C771 C779 1.433 . S
C772 H768 0.929 . S
C772 C774 1.378 . S
C772 C776 1.350 . S
C773 C776 1.463 . S
C773 C778 1.350 . S
C773 N781 1.427 . S
C774 H765 0.930 . S
C774 C772 1.378 . S
C774 C775 1.367 . S
C775 C774 1.367 . S
C775 C777 1.433 . S
C776 C772 1.350 . S
C776 C773 1.463 . S
C776 N780 1.427 . S
C777 H767 0.929 . S
C777 C775 1.433 . S
C777 N780 1.384 . S
C778 H769 0.929 . S
C778 C770 1.378 . S
C778 C773 1.350 . S
C779 H766 0.929 . S
C779 C771 1.433 . S
C779 N781 1.384 . S
N780 C776 1.427 . S
N780 C777 1.384 . S
N781 C773 1.427 . S
N781 C779 1.384 . S
H782 C788 0.930 . S
H783 C792 0.930 . S
H784 C797 0.929 . S
H785 C795 0.929 . S
H786 C790 0.929 . S
H787 C796 0.929 . S
C788 H782 0.930 . S
C788 C789 1.367 . S
C788 C796 1.378 . S
C789 C788 1.367 . S
C789 C797 1.433 . S
C790 H786 0.929 . S
C790 C792 1.378 . S
C790 C794 1.350 . S
C791 C794 1.463 . S
C791 C796 1.350 . S
C791 N799 1.427 . S
C792 H783 0.930 . S
C792 C790 1.378 . S
C792 C793 1.367 . S
C793 C792 1.367 . S
C793 C795 1.433 . S
C794 C790 1.350 . S
C794 C791 1.463 . S
C794 N798 1.427 . S
C795 H785 0.929 . S
C795 C793 1.433 . S
C795 N798 1.384 . S
C796 H787 0.929 . S
C796 C788 1.378 . S
C796 C791 1.350 . S
C797 H784 0.929 . S
C797 C789 1.433 . S
C797 N799 1.384 . S
N798 C794 1.427 . S
N798 C795 1.384 . S
N799 C791 1.427 . S
N799 C797 1.384 . S
C231 C154 1.545 . S
C235 C1 1.556 . S
C249 C27 1.554 . S
C253 C124 1.548 . S
C267 C41 1.554 . S
C271 C126 1.548 . S
C285 C140 1.543 . S
C289 C55 1.555 . S
C303 C69 1.555 . S
C307 C70 1.547 . S
C321 C83 1.556 . S
C325 C85 1.541 . S
C339 C98 1.546 . S
C343 C96 1.556 . S
C357 C56 1.545 . S
C361 C111 1.557 . S
C375 C42 1.545 . S
C379 C113 1.554 . S
C393 C139 1.556 . S
C397 C12 1.542 . S
C411 C14 1.544 . S
C415 C153 1.554 . S
C429 C167 1.556 . S
C433 C28 1.547 . S
C447 C180 1.555 . S
C451 C182 1.548 . S
C465 C195 1.557 . S
C469 C197 1.541 . S
C483 C210 1.546 . S
C487 C208 1.556 . S
C501 C169 1.542 . S
C505 C223 1.557 . S
C519 C68 1.412 . S
C523 C0 1.414 . S
C537 C26 1.412 . S
C541 C82 1.415 . S
C555 C40 1.412 . S
C559 C97 1.414 . S
C573 C110 1.418 . S
C577 C54 1.417 . S
C591 C112 1.419 . S
C595 C181 1.416 . S
C609 C194 1.415 . S
C613 C138 1.412 . S
C627 C152 1.418 . S
C631 C209 1.414 . S
C645 C222 1.415 . S
C649 C166 1.412 . S
C663 C196 1.708 . S
C667 C13 1.704 . S
C681 C211 1.705 . S
C685 C15 1.704 . S
C699 C29 1.707 . S
C703 C168 1.705 . S
C717 C183 1.708 . S
C721 C43 1.710 . S
C735 C141 1.703 . S
C739 C57 1.703 . S
C753 C155 1.706 . S
C757 C71 1.704 . S
C771 C84 1.707 . S
C775 C125 1.703 . S
C789 C127 1.704 . S
C793 C99 1.705 . S
