# Generated by pormake.
# Topology uoz, (4)-cn, num edge types: 1
# Building blocks:
#     Node 0, Type 0, BuildingBlock: GALJAG_clean_sbu_0, # of connection points: 4
#     Node 1, Type 0, BuildingBlock: GALJAG_clean_sbu_0, # of connection points: 4
#     Node 2, Type 0, BuildingBlock: GALJAG_clean_sbu_0, # of connection points: 4
#     Node 3, Type 0, BuildingBlock: GALJAG_clean_sbu_0, # of connection points: 4
#     Node 4, Type 0, BuildingBlock: GALJAG_clean_sbu_0, # of connection points: 4
#     Node 5, Type 0, BuildingBlock: GALJAG_clean_sbu_0, # of connection points: 4
#     Node 6, Type 0, BuildingBlock: GALJAG_clean_sbu_0, # of connection points: 4
#     Node 7, Type 0, BuildingBlock: GALJAG_clean_sbu_0, # of connection points: 4
#     Node 8, Type 0, BuildingBlock: GALJAG_clean_sbu_0, # of connection points: 4
#     Node 9, Type 0, BuildingBlock: GALJAG_clean_sbu_0, # of connection points: 4
#     Node 10, Type 0, BuildingBlock: GALJAG_clean_sbu_0, # of connection points: 4
#     Node 11, Type 0, BuildingBlock: GALJAG_clean_sbu_0, # of connection points: 4
#     Node 12, Type 0, BuildingBlock: GALJAG_clean_sbu_0, # of connection points: 4
#     Node 13, Type 0, BuildingBlock: GALJAG_clean_sbu_0, # of connection points: 4
#     Node 14, Type 0, BuildingBlock: GALJAG_clean_sbu_0, # of connection points: 4
#     Node 15, Type 0, BuildingBlock: GALJAG_clean_sbu_0, # of connection points: 4
#     Edge 16, Type (0, 0), BuildingBlock: KIFKEQ_clean_linker_1, # of connection points: 2
#     Edge 17, Type (0, 0), BuildingBlock: KIFKEQ_clean_linker_1, # of connection points: 2
#     Edge 18, Type (0, 0), BuildingBlock: KIFKEQ_clean_linker_1, # of connection points: 2
#     Edge 19, Type (0, 0), BuildingBlock: KIFKEQ_clean_linker_1, # of connection points: 2
#     Edge 20, Type (0, 0), BuildingBlock: KIFKEQ_clean_linker_1, # of connection points: 2
#     Edge 21, Type (0, 0), BuildingBlock: KIFKEQ_clean_linker_1, # of connection points: 2
#     Edge 22, Type (0, 0), BuildingBlock: KIFKEQ_clean_linker_1, # of connection points: 2
#     Edge 23, Type (0, 0), BuildingBlock: KIFKEQ_clean_linker_1, # of connection points: 2
#     Edge 24, Type (0, 0), BuildingBlock: KIFKEQ_clean_linker_1, # of connection points: 2
#     Edge 25, Type (0, 0), BuildingBlock: KIFKEQ_clean_linker_1, # of connection points: 2
#     Edge 26, Type (0, 0), BuildingBlock: KIFKEQ_clean_linker_1, # of connection points: 2
#     Edge 27, Type (0, 0), BuildingBlock: KIFKEQ_clean_linker_1, # of connection points: 2
#     Edge 28, Type (0, 0), BuildingBlock: KIFKEQ_clean_linker_1, # of connection points: 2
#     Edge 29, Type (0, 0), BuildingBlock: KIFKEQ_clean_linker_1, # of connection points: 2
#     Edge 30, Type (0, 0), BuildingBlock: KIFKEQ_clean_linker_1, # of connection points: 2
#     Edge 31, Type (0, 0), BuildingBlock: KIFKEQ_clean_linker_1, # of connection points: 2
#     Edge 32, Type (0, 0), BuildingBlock: KIFKEQ_clean_linker_1, # of connection points: 2
#     Edge 33, Type (0, 0), BuildingBlock: KIFKEQ_clean_linker_1, # of connection points: 2
#     Edge 34, Type (0, 0), BuildingBlock: KIFKEQ_clean_linker_1, # of connection points: 2
#     Edge 35, Type (0, 0), BuildingBlock: KIFKEQ_clean_linker_1, # of connection points: 2
#     Edge 36, Type (0, 0), BuildingBlock: KIFKEQ_clean_linker_1, # of connection points: 2
#     Edge 37, Type (0, 0), BuildingBlock: KIFKEQ_clean_linker_1, # of connection points: 2
#     Edge 38, Type (0, 0), BuildingBlock: KIFKEQ_clean_linker_1, # of connection points: 2
#     Edge 39, Type (0, 0), BuildingBlock: KIFKEQ_clean_linker_1, # of connection points: 2
#     Edge 40, Type (0, 0), BuildingBlock: KIFKEQ_clean_linker_1, # of connection points: 2
#     Edge 41, Type (0, 0), BuildingBlock: KIFKEQ_clean_linker_1, # of connection points: 2
#     Edge 42, Type (0, 0), BuildingBlock: KIFKEQ_clean_linker_1, # of connection points: 2
#     Edge 43, Type (0, 0), BuildingBlock: KIFKEQ_clean_linker_1, # of connection points: 2
#     Edge 44, Type (0, 0), BuildingBlock: KIFKEQ_clean_linker_1, # of connection points: 2
#     Edge 45, Type (0, 0), BuildingBlock: KIFKEQ_clean_linker_1, # of connection points: 2
#     Edge 46, Type (0, 0), BuildingBlock: KIFKEQ_clean_linker_1, # of connection points: 2
#     Edge 47, Type (0, 0), BuildingBlock: KIFKEQ_clean_linker_1, # of connection points: 2
# Relax obj value: 0.135
# Max RMSD: 0.159
# Mean RMSD: 0.159
data_MOF--net-uoz--node1-GALJAG_clean_sbu_0--edge1-KIFKEQ_clean_linker_1
_symmetry_space_group_name_H-M    P1
_symmetry_Int_Tables_number       1
_symmetry_cell_setting            triclinic
loop_
_symmetry_equiv_pos_as_xyz
'x, y, z'
_cell_length_a     65.039709
_cell_length_b     65.014466
_cell_length_c     19.304472
_cell_angle_alpha  89.981568
_cell_angle_beta   90.019437
_cell_angle_gamma 89.989378
loop_
_atom_site_label
_atom_site_type_symbol
_atom_site_fract_x
_atom_site_fract_y
_atom_site_fract_z
_atom_type_partial_charge
In0 In 0.0027 0.59063 0.27761 0.0
O1 O 0.99862 0.57226 0.17922 0.0
O2 O 0.02248 0.56327 0.249 0.0
C3 C 0.96934 0.61347 0.24517 0.0
C4 C 0.99657 0.56597 0.38968 0.0
C5 C 0.03311 0.618 0.2508 0.0
O6 O 0.97519 0.59823 0.20994 0.0
O7 O 0.97977 0.61672 0.2994 0.0
O8 O 0.02354 0.61815 0.30787 0.0
O9 O 0.0277 0.60397 0.21001 0.0
C10 C 0.0132 0.56005 0.19262 0.0
O11 O 0.01258 0.57679 0.38243 0.0
O12 O 0.98307 0.56905 0.34393 0.0
In13 In 0.66041 0.75063 0.53448 0.0
O14 O 0.67605 0.74266 0.43385 0.0
O15 O 0.68594 0.76975 0.48592 0.0
C16 C 0.63727 0.71633 0.52418 0.0
C17 C 0.68692 0.74777 0.64352 0.0
C18 C 0.63234 0.77949 0.49968 0.0
O19 O 0.65495 0.71802 0.49811 0.0
O20 O 0.6316 0.73157 0.56024 0.0
O21 O 0.63736 0.77647 0.56237 0.0
O22 O 0.64151 0.76822 0.45662 0.0
C23 C 0.68797 0.75793 0.4346 0.0
O24 O 0.6765 0.76383 0.63202 0.0
O25 O 0.68253 0.73293 0.60431 0.0
In26 In 0.5037 0.41159 0.78831 0.0
O27 O 0.50945 0.43141 0.69486 0.0
O28 O 0.48124 0.43572 0.74918 0.0
C29 C 0.53723 0.3877 0.77023 0.0
C30 C 0.50916 0.43726 0.89801 0.0
C31 C 0.47434 0.38451 0.75061 0.0
O32 O 0.53462 0.40465 0.73987 0.0
O33 O 0.52345 0.3832 0.81392 0.0
O34 O 0.47648 0.39004 0.81321 0.0
O35 O 0.48683 0.39262 0.70889 0.0
C36 C 0.49278 0.44123 0.70003 0.0
O37 O 0.49554 0.42335 0.89858 0.0
O38 O 0.52073 0.43681 0.84581 0.0
In39 In 0.84115 0.25302 0.03805 0.0
O40 O 0.81679 0.26685 0.96933 0.0
O41 O 0.81609 0.23442 0.98621 0.0
C42 C 0.86552 0.28438 0.9971 0.0
C43 C 0.81791 0.25587 0.15477 0.0
C44 C 0.86712 0.22196 0.00681 0.0
O45 O 0.85234 0.27591 0.95877 0.0
O46 O 0.86631 0.27734 0.05826 0.0
O47 O 0.86838 0.23149 0.06392 0.0
O48 O 0.8526 0.22771 0.96832 0.0
C49 C 0.80796 0.24991 0.95787 0.0
O50 O 0.82618 0.23922 0.13591 0.0
O51 O 0.82335 0.27127 0.11958 0.0
In52 In 1.00042 0.41133 0.7949 0.0
O53 O 0.01028 0.42522 0.68997 0.0
O54 O 0.982 0.43502 0.73357 0.0
C55 C 0.02856 0.38224 0.82689 0.0
C56 C 0.01297 0.43984 0.88521 0.0
C57 C 0.96586 0.38913 0.81302 0.0
O58 O 0.02593 0.38808 0.76484 0.0
O59 O 0.0172 0.39102 0.87051 0.0
O60 O 0.96999 0.40512 0.84726 0.0
O61 O 0.97863 0.38491 0.76557 0.0
C62 C 0.99508 0.43732 0.686 0.0
O63 O 0.99716 0.429 0.89504 0.0
O64 O 0.02249 0.43635 0.82958 0.0
In65 In 0.8426 0.75029 0.04157 0.0
O66 O 0.81858 0.73794 0.11446 0.0
O67 O 0.81856 0.77017 0.09448 0.0
C68 C 0.86649 0.71733 0.06941 0.0
C69 C 0.81856 0.74821 0.92625 0.0
C70 C 0.86986 0.77958 0.07952 0.0
O71 O 0.85191 0.72322 0.10743 0.0
O72 O 0.86882 0.7277 0.01437 0.0
O73 O 0.86749 0.77461 0.01652 0.0
O74 O 0.85841 0.77011 0.12126 0.0
C75 C 0.81031 0.75518 0.12527 0.0
O76 O 0.82687 0.76476 0.946 0.0
O77 O 0.82421 0.7326 0.96 0.0
In78 In 0.50396 0.59094 0.31411 0.0
O79 O 0.50809 0.57631 0.41876 0.0
O80 O 0.48049 0.56964 0.36345 0.0
C81 C 0.53905 0.61299 0.32386 0.0
C82 C 0.50829 0.56161 0.21454 0.0
C83 C 0.47499 0.61961 0.34022 0.0
O84 O 0.5361 0.59638 0.35594 0.0
O85 O 0.52487 0.61781 0.28207 0.0
O86 O 0.47541 0.61002 0.28302 0.0
O87 O 0.48919 0.61493 0.38164 0.0
C88 C 0.49117 0.5668 0.41724 0.0
O89 O 0.4993 0.5785 0.20193 0.0
O90 O 0.5158 0.56039 0.27443 0.0
In91 In 0.65928 0.25215 0.53934 0.0
O92 O 0.67555 0.2389 0.44248 0.0
O93 O 0.6794 0.27049 0.46439 0.0
C94 C 0.63362 0.22089 0.57209 0.0
C95 C 0.68755 0.24753 0.63851 0.0
C96 C 0.6349 0.28524 0.55965 0.0
O97 O 0.63335 0.22909 0.51252 0.0
O98 O 0.64692 0.22813 0.61263 0.0
O99 O 0.65319 0.28418 0.58078 0.0
O100 O 0.62908 0.27001 0.5239 0.0
C101 C 0.68473 0.25542 0.42762 0.0
O102 O 0.67397 0.26136 0.64061 0.0
O103 O 0.68675 0.23583 0.58644 0.0
In104 In 0.34251 0.25189 0.54292 0.0
O105 O 0.32618 0.26492 0.44571 0.0
O106 O 0.32118 0.23371 0.47169 0.0
C107 C 0.36937 0.28181 0.57802 0.0
C108 C 0.31449 0.2581 0.642 0.0
C109 C 0.3668 0.21846 0.55647 0.0
O110 O 0.36585 0.27747 0.51507 0.0
O111 O 0.35929 0.27135 0.62105 0.0
O112 O 0.34897 0.21969 0.58155 0.0
O113 O 0.37208 0.23367 0.51965 0.0
C114 C 0.31631 0.24859 0.43326 0.0
O115 O 0.32685 0.24318 0.64279 0.0
O116 O 0.3163 0.2701 0.59102 0.0
In117 In 0.16242 0.7542 0.05305 0.0
O118 O 0.17356 0.74867 0.94048 0.0
O119 O 0.18945 0.7704 0.00285 0.0
C120 C 0.13394 0.72564 0.08549 0.0
C121 C 0.19025 0.73771 0.13793 0.0
C122 C 0.14049 0.78876 0.07607 0.0
O123 O 0.13848 0.7294 0.02277 0.0
O124 O 0.14354 0.73628 0.12927 0.0
O125 O 0.15733 0.78505 0.10595 0.0
O126 O 0.1353 0.77565 0.031 0.0
C127 C 0.18873 0.76081 0.94617 0.0
O128 O 0.18059 0.75401 0.15267 0.0
O129 O 0.18595 0.72979 0.07999 0.0
In130 In 0.16037 0.2498 0.03776 0.0
O131 O 0.17587 0.26427 0.1336 0.0
O132 O 0.17867 0.23211 0.11958 0.0
C133 C 0.1333 0.27927 0.0001 0.0
C134 C 0.19285 0.25453 0.9549 0.0
C135 C 0.13634 0.21709 0.00836 0.0
O136 O 0.13545 0.27404 0.06296 0.0
O137 O 0.14489 0.26998 0.95837 0.0
O138 O 0.15082 0.22321 0.97027 0.0
O139 O 0.13421 0.22708 0.06426 0.0
C140 C 0.18421 0.24774 0.15343 0.0
O141 O 0.18467 0.23728 0.9663 0.0
O142 O 0.18443 0.2696 0.98472 0.0
In143 In 0.33766 0.75049 0.51575 0.0
O144 O 0.32589 0.74651 0.62819 0.0
O145 O 0.31001 0.76698 0.56105 0.0
C146 C 0.36664 0.72183 0.48907 0.0
C147 C 0.30993 0.73376 0.43121 0.0
C148 C 0.35946 0.78502 0.49041 0.0
O149 O 0.36091 0.72547 0.55068 0.0
O150 O 0.3579 0.73258 0.44364 0.0
O151 O 0.34438 0.7794 0.454 0.0
O152 O 0.36287 0.77388 0.5429 0.0
C153 C 0.31059 0.75831 0.61945 0.0
O154 O 0.31968 0.74995 0.41608 0.0
O155 O 0.3141 0.72597 0.48947 0.0
In156 In 0.49891 0.09275 0.78861 0.0
O157 O 0.51208 0.07696 0.88655 0.0
O158 O 0.48062 0.07257 0.8636 0.0
C159 C 0.52981 0.11839 0.75226 0.0
C160 C 0.5038 0.06365 0.69243 0.0
C161 C 0.46617 0.11762 0.7682 0.0
O162 O 0.52283 0.11803 0.81356 0.0
O163 O 0.52153 0.10574 0.71164 0.0
O164 O 0.46728 0.09954 0.74508 0.0
O165 O 0.48111 0.12292 0.80622 0.0
C166 C 0.49565 0.06757 0.90113 0.0
O167 O 0.48921 0.07643 0.69091 0.0
O168 O 0.51613 0.06566 0.74247 0.0
In169 In 0.00346 0.91023 0.2902 0.0
O170 O 0.99266 0.92402 0.39441 0.0
O171 O 0.02153 0.93342 0.35439 0.0
C172 C 0.97508 0.8817 0.2556 0.0
C173 C 0.99183 0.93872 0.19826 0.0
C174 C 0.03811 0.88785 0.27686 0.0
O175 O 0.97744 0.88739 0.31795 0.0
O176 O 0.98687 0.89032 0.21283 0.0
O177 O 0.03557 0.90507 0.24799 0.0
O178 O 0.02358 0.88234 0.31637 0.0
C179 C 0.008 0.93587 0.40037 0.0
O180 O 0.00718 0.92723 0.18856 0.0
O181 O 0.98234 0.93584 0.25431 0.0
In182 In 0.49824 0.9102 0.29121 0.0
O183 O 0.51283 0.92669 0.19739 0.0
O184 O 0.48054 0.92844 0.20914 0.0
C185 C 0.52794 0.88314 0.32755 0.0
C186 C 0.50213 0.94229 0.37636 0.0
C187 C 0.46543 0.88622 0.31958 0.0
O188 O 0.52266 0.8855 0.26483 0.0
O189 O 0.51855 0.89449 0.3698 0.0
O190 O 0.47168 0.9005 0.35824 0.0
O191 O 0.47544 0.88415 0.26366 0.0
C192 C 0.49619 0.93464 0.17683 0.0
O193 O 0.4851 0.93382 0.36384 0.0
O194 O 0.51744 0.93438 0.34635 0.0
In195 In 1.0002 0.09001 0.80453 0.0
O196 O 0.00498 0.07143 0.90203 0.0
O197 O 0.98059 0.06259 0.83422 0.0
C198 C 0.03364 0.11315 0.83283 0.0
C199 C 0.00599 0.06531 0.69257 0.0
C200 C 0.96995 0.11708 0.83594 0.0
O201 O 0.02866 0.09746 0.86731 0.0
O202 O 0.0223 0.11673 0.78091 0.0
O203 O 0.97745 0.11615 0.77546 0.0
O204 O 0.97739 0.10432 0.87789 0.0
C205 C 0.99033 0.05923 0.88961 0.0
O206 O 0.98987 0.07593 0.70059 0.0
O207 O 0.01973 0.06869 0.73725 0.0
H208 H 0.10765 0.70227 0.00592 0.0
H209 H 0.12638 0.71347 0.21723 0.0
H210 H 0.08291 0.67659 0.04696 0.0
H211 H 0.10239 0.68763 0.2578 0.0
H212 H 0.04308 0.65428 0.31544 0.0
H213 H 0.06671 0.6808 0.2737 0.0
H214 H 0.08164 0.64288 0.09683 0.0
H215 H 0.05771 0.61684 0.13743 0.0
C216 C 0.10654 0.69919 0.06093 0.0
C217 C 0.11892 0.70992 0.10821 0.0
C218 C 0.09246 0.68443 0.08456 0.0
C219 C 0.09059 0.68004 0.15589 0.0
C220 C 0.10307 0.69082 0.20279 0.0
C221 C 0.11698 0.70558 0.17932 0.0
C222 C 0.05154 0.65162 0.26797 0.0
C223 C 0.04855 0.6335 0.22984 0.0
C224 C 0.0651 0.66677 0.24395 0.0
C225 C 0.07603 0.66405 0.18151 0.0
C226 C 0.07321 0.64573 0.14423 0.0
C227 C 0.05963 0.63069 0.16799 0.0
H228 H 0.55724 0.86283 0.25121 0.0
H229 H 0.53359 0.86948 0.45885 0.0
H230 H 0.58308 0.83863 0.29378 0.0
H231 H 0.55846 0.84463 0.50095 0.0
H232 H 0.61713 0.81285 0.57057 0.0
H233 H 0.59279 0.83857 0.52792 0.0
H234 H 0.58775 0.80533 0.33457 0.0
H235 H 0.61274 0.78051 0.37595 0.0
C236 C 0.55746 0.85896 0.30578 0.0
C237 C 0.54344 0.86807 0.35162 0.0
C238 C 0.57219 0.84499 0.33035 0.0
C239 C 0.57297 0.83955 0.40114 0.0
C240 C 0.55874 0.84866 0.44655 0.0
C241 C 0.54431 0.86283 0.42221 0.0
C242 C 0.61077 0.81113 0.51904 0.0
C243 C 0.61688 0.79473 0.47661 0.0
C244 C 0.59672 0.82581 0.4945 0.0
C245 C 0.58823 0.82418 0.42738 0.0
C246 C 0.59423 0.8075 0.38571 0.0
C247 C 0.60846 0.7931 0.40977 0.0
H248 H 0.47275 0.36556 0.62555 0.0
H249 H 0.4404 0.37024 0.82013 0.0
H250 H 0.44727 0.34134 0.58325 0.0
H251 H 0.41419 0.3466 0.77675 0.0
H252 H 0.38383 0.28706 0.70839 0.0
H253 H 0.40873 0.31191 0.74975 0.0
H254 H 0.41332 0.33744 0.54342 0.0
H255 H 0.38888 0.31169 0.50139 0.0
C256 C 0.46004 0.36152 0.65917 0.0
C257 C 0.45861 0.36974 0.72634 0.0
C258 C 0.44528 0.34774 0.63459 0.0
C259 C 0.42853 0.34198 0.67623 0.0
C260 C 0.42703 0.35038 0.74345 0.0
C261 C 0.44199 0.36401 0.76839 0.0
C262 C 0.39013 0.29798 0.67173 0.0
C263 C 0.38441 0.2974 0.60152 0.0
C264 C 0.40433 0.3124 0.69568 0.0
C265 C 0.41305 0.32686 0.65027 0.0
C266 C 0.40718 0.32638 0.57987 0.0
C267 C 0.3931 0.31171 0.55567 0.0
H268 H 0.86675 0.2012 0.88475 0.0
H269 H 0.90112 0.20719 0.07518 0.0
H270 H 0.89153 0.17618 0.8423 0.0
H271 H 0.92621 0.18218 0.03211 0.0
H272 H 0.95289 0.12028 0.96357 0.0
H273 H 0.92829 0.14553 0.00497 0.0
H274 H 0.92731 0.17391 0.80262 0.0
H275 H 0.95197 0.14825 0.76057 0.0
C276 C 0.87961 0.19714 0.91769 0.0
C277 C 0.88194 0.20612 0.98355 0.0
C278 C 0.89392 0.18292 0.89297 0.0
C279 C 0.9109 0.17724 0.93355 0.0
C280 C 0.91318 0.1861 -0.00024 0.0
C281 C 0.89885 0.20043 0.02447 0.0
C282 C 0.94743 0.13186 0.92765 0.0
C283 C 0.95437 0.13226 0.85864 0.0
C284 C 0.93342 0.14645 0.95169 0.0
C285 C 0.92593 0.16183 0.90737 0.0
C286 C 0.93269 0.16215 0.83799 0.0
C287 C 0.94682 0.1475 0.81386 0.0
H288 H 0.02865 0.36102 0.94745 0.0
H289 H 0.06266 0.36829 0.7571 0.0
H290 H 0.05376 0.33631 0.98873 0.0
H291 H 0.08862 0.34417 0.79976 0.0
H292 H 0.12072 0.28532 0.86773 0.0
H293 H 0.09548 0.30967 0.8247 0.0
H294 H 0.08699 0.33297 0.0326 0.0
H295 H 0.11164 0.30768 0.07598 0.0
C296 C 0.04163 0.35739 0.9145 0.0
C297 C 0.0437 0.36658 0.84897 0.0
C298 C 0.05619 0.34333 0.93855 0.0
C299 C 0.07345 0.33829 0.89819 0.0
C300 C 0.07543 0.34742 0.83213 0.0
C301 C 0.06061 0.3613 0.80757 0.0
C302 C 0.11345 0.29565 0.90431 0.0
C303 C 0.11812 0.29456 0.97534 0.0
C304 C 0.09905 0.30977 0.87947 0.0
C305 C 0.08911 0.32343 0.92485 0.0
C306 C 0.094 0.32247 0.99605 0.0
C307 C 0.10823 0.30808 0.02107 0.0
H308 H 0.94087 0.8677 0.32456 0.0
H309 H 0.97465 0.86122 0.13343 0.0
H310 H 0.91479 0.84388 0.28101 0.0
H311 H 0.94939 0.8368 0.09118 0.0
H312 H 0.89138 0.80823 0.00405 0.0
H313 H 0.91609 0.83342 0.04774 0.0
H314 H 0.90801 0.80948 0.25504 0.0
H315 H 0.88273 0.78523 0.21177 0.0
C316 C 0.94283 0.86097 0.27367 0.0
C317 C 0.95975 0.86635 0.23242 0.0
C318 C 0.92795 0.84724 0.24861 0.0
C319 C 0.92984 0.83838 0.18214 0.0
C320 C 0.94704 0.8436 0.14175 0.0
C321 C 0.96169 0.85749 0.16634 0.0
C322 C 0.8949 0.80846 0.0589 0.0
C323 C 0.8851 0.7948 0.1044 0.0
C324 C 0.90916 0.82281 0.08409 0.0
C325 C 0.91417 0.82357 0.15522 0.0
C326 C 0.90434 0.80974 0.20035 0.0
C327 C 0.88991 0.79567 0.17535 0.0
H328 H 0.38777 0.69474 0.57278 0.0
H329 H 0.38057 0.71377 0.35973 0.0
H330 H 0.41328 0.66916 0.53639 0.0
H331 H 0.40615 0.68885 0.32388 0.0
H332 H 0.43916 0.62907 0.27179 0.0
H333 H 0.41214 0.65271 0.31 0.0
H334 H 0.44789 0.66757 0.492 0.0
H335 H 0.47442 0.64372 0.45485 0.0
C336 C 0.39167 0.6935 0.5184 0.0
C337 C 0.38219 0.70628 0.46928 0.0
C338 C 0.40632 0.67893 0.49747 0.0
C339 C 0.41175 0.6769 0.42704 0.0
C340 C 0.40213 0.68969 0.37824 0.0
C341 C 0.38756 0.70414 0.39905 0.0
C342 C 0.44121 0.63747 0.31975 0.0
C343 C 0.45891 0.63457 0.36015 0.0
C344 C 0.42577 0.65102 0.34172 0.0
C345 C 0.42779 0.662 0.40436 0.0
C346 C 0.4456 0.65912 0.44429 0.0
C347 C 0.46093 0.64556 0.42253 0.0
H348 H 0.63402 0.20069 0.69508 0.0
H349 H 0.60007 0.2052 0.50333 0.0
H350 H 0.60929 0.17588 0.73888 0.0
H351 H 0.57493 0.18048 0.5479 0.0
H352 H 0.54648 0.12014 0.62352 0.0
H353 H 0.57162 0.14443 0.57901 0.0
H354 H 0.57394 0.17425 0.77886 0.0
H355 H 0.54888 0.14954 0.82398 0.0
C356 C 0.62125 0.19635 0.66215 0.0
C357 C 0.619 0.2049 0.59562 0.0
C358 C 0.60696 0.18224 0.68761 0.0
C359 C 0.59002 0.17629 0.64726 0.0
C360 C 0.58791 0.1846 0.58016 0.0
C361 C 0.60227 0.19878 0.55458 0.0
C362 C 0.55239 0.13183 0.6582 0.0
C363 C 0.54572 0.1329 0.72742 0.0
C364 C 0.5667 0.14587 0.63239 0.0
C365 C 0.57474 0.16137 0.67512 0.0
C366 C 0.5682 0.16236 0.74468 0.0
C367 C 0.55382 0.14826 0.77058 0.0
H368 H 0.93992 0.3936 0.92251 0.0
H369 H 0.95418 0.3528 0.75258 0.0
H370 H 0.91513 0.36877 0.9669 0.0
H371 H 0.92926 0.32789 0.79721 0.0
H372 H 0.86841 0.29784 0.86427 0.0
H373 H 0.89149 0.32381 0.81722 0.0
H374 H 0.91701 0.33368 0.02105 0.0
H375 H 0.89378 0.30755 0.06851 0.0
C376 C 0.93757 0.37943 0.89408 0.0
C377 C 0.949 0.37515 0.83393 0.0
C378 C 0.9235 0.36513 0.91997 0.0
C379 C 0.92039 0.34631 0.88599 0.0
C380 C 0.93127 0.34232 0.82439 0.0
C381 C 0.94551 0.35658 0.79877 0.0
C382 C 0.87889 0.30558 0.89924 0.0
C383 C 0.87928 0.30066 0.97021 0.0
C384 C 0.89219 0.32038 0.87208 0.0
C385 C 0.90608 0.33076 0.91531 0.0
C386 C 0.90633 0.32604 0.98654 0.0
C387 C 0.89311 0.31105 0.01369 0.0
H388 H 0.43083 0.10819 0.69996 0.0
H389 H 0.46582 0.15963 0.7782 0.0
H390 H 0.40691 0.13185 0.64414 0.0
H391 H 0.44175 0.1834 0.72233 0.0
H392 H 0.40879 0.21793 0.54602 0.0
H393 H 0.4324 0.19333 0.60009 0.0
H394 H 0.38064 0.15793 0.67367 0.0
H395 H 0.35716 0.18237 0.61967 0.0
C396 C 0.43322 0.12458 0.70614 0.0
C397 C 0.45016 0.13206 0.74369 0.0
C398 C 0.41953 0.13813 0.67405 0.0
C399 C 0.42256 0.15949 0.6782 0.0
C400 C 0.4392 0.16701 0.71732 0.0
C401 C 0.45282 0.15342 0.75007 0.0
C402 C 0.4025 0.20467 0.57257 0.0
C403 C 0.38114 0.20203 0.57841 0.0
C404 C 0.41599 0.19075 0.60431 0.0
C405 C 0.40837 0.17382 0.64181 0.0
C406 C 0.38701 0.17076 0.645 0.0
C407 C 0.37355 0.18475 0.61395 0.0
H408 H 0.5414 0.65434 0.30016 0.0
H409 H 0.57373 0.60389 0.3967 0.0
H410 H 0.56549 0.67863 0.35301 0.0
H411 H 0.59786 0.62813 0.44904 0.0
H412 H 0.64799 0.67951 0.46791 0.0
H413 H 0.62522 0.65402 0.41548 0.0
H414 H 0.57249 0.6898 0.47809 0.0
H415 H 0.59531 0.71531 0.53109 0.0
C416 C 0.55392 0.64841 0.33134 0.0
C417 C 0.55572 0.62722 0.34416 0.0
C418 C 0.56753 0.66232 0.36235 0.0
C419 C 0.58337 0.65527 0.40594 0.0
C420 C 0.5858 0.63401 0.41576 0.0
C421 C 0.57203 0.62013 0.3856 0.0
C422 C 0.63152 0.68174 0.47165 0.0
C423 C 0.62341 0.69936 0.5038 0.0
C424 C 0.6185 0.66717 0.44146 0.0
C425 C 0.59711 0.67007 0.44188 0.0
C426 C 0.58895 0.68735 0.4761 0.0
C427 C 0.60198 0.70179 0.50723 0.0
H428 H 0.15032 0.82236 0.15414 0.0
H429 H 0.09922 0.79204 0.05421 0.0
H430 H 0.12654 0.84699 0.20714 0.0
H431 H 0.07549 0.81642 0.10827 0.0
H432 H 0.03992 0.84611 0.28979 0.0
H433 H 0.06549 0.823 0.2387 0.0
H434 H 0.10015 0.87534 0.16623 0.0
H435 H 0.07441 0.89849 0.21613 0.0
C436 C 0.13405 0.82114 0.14279 0.0
C437 C 0.12662 0.80533 0.09987 0.0
C438 C 0.12048 0.83518 0.17324 0.0
C439 C 0.0992 0.8334 0.16245 0.0
C440 C 0.09182 0.81794 0.1181 0.0
C441 C 0.10541 0.80415 0.0866 0.0
C442 C 0.05319 0.85268 0.2641 0.0
C443 C 0.0552 0.87408 0.25698 0.0
C444 C 0.06768 0.83947 0.23427 0.0
C445 C 0.08464 0.84743 0.19794 0.0
C446 C 0.08721 0.86883 0.19395 0.0
C447 C 0.07252 0.88204 0.2226 0.0
H448 H 0.94945 0.61243 0.12098 0.0
H449 H 0.95226 0.6462 0.31341 0.0
H450 H 0.92411 0.63678 0.0764 0.0
H451 H 0.92682 0.67055 0.26874 0.0
H452 H 0.86563 0.69668 0.1916 0.0
H453 H 0.88968 0.67091 0.23393 0.0
H454 H 0.92326 0.67432 0.04139 0.0
H455 H 0.89906 0.70035 0.99864 0.0
C456 C 0.94452 0.62495 0.15402 0.0
C457 C 0.95281 0.62737 0.22086 0.0
C458 C 0.93013 0.63898 0.12819 0.0
C459 C 0.92353 0.65561 0.1689 0.0
C460 C 0.93151 0.65779 0.23631 0.0
C461 C 0.94608 0.64387 0.2619 0.0
C462 C 0.87805 0.69187 0.15792 0.0
C463 C 0.88046 0.70059 0.09169 0.0
C464 C 0.89191 0.67719 0.18249 0.0
C465 C 0.90844 0.67069 0.14126 0.0
C466 C 0.91059 0.67897 0.07421 0.0
C467 C 0.89678 0.69388 0.04977 0.0
H468 H 0.05505 0.11135 0.95383 0.0
H469 H 0.04913 0.14695 0.76589 0.0
H470 H 0.08025 0.13588 0.99789 0.0
H471 H 0.0745 0.17149 0.81005 0.0
H472 H 0.13628 0.19785 0.88362 0.0
H473 H 0.11217 0.17222 0.84073 0.0
H474 H 0.08028 0.17322 0.03681 0.0
H475 H 0.10451 0.19913 0.08009 0.0
C476 C 0.05928 0.12432 0.9216 0.0
C477 C 0.05015 0.12719 0.85622 0.0
C478 C 0.07358 0.13845 0.94719 0.0
C479 C 0.07926 0.15565 0.90763 0.0
C480 C 0.07049 0.15829 0.84154 0.0
C481 C 0.05598 0.14427 0.81625 0.0
C482 C 0.12421 0.19255 0.91792 0.0
C483 C 0.12229 0.20052 0.98536 0.0
C484 C 0.11032 0.17796 0.89304 0.0
C485 C 0.09428 0.1708 0.93518 0.0
C486 C 0.09259 0.17839 0.00327 0.0
C487 C 0.10641 0.19322 0.02802 0.0
H488 H 0.59284 0.28543 0.55747 0.0
H489 H 0.64538 0.32166 0.61926 0.0
H490 H 0.56997 0.31041 0.61302 0.0
H491 H 0.62258 0.34657 0.6744 0.0
H492 H 0.57154 0.39651 0.69555 0.0
H493 H 0.59533 0.37222 0.64201 0.0
H494 H 0.56276 0.32174 0.73724 0.0
H495 H 0.53893 0.34612 0.79123 0.0
C496 C 0.59946 0.29889 0.58185 0.0
C497 C 0.62088 0.30164 0.58381 0.0
C498 C 0.58641 0.31304 0.61439 0.0
C499 C 0.59451 0.33032 0.64868 0.0
C500 C 0.61588 0.33343 0.64829 0.0
C501 C 0.62892 0.31918 0.6166 0.0
C502 C 0.56968 0.38025 0.70607 0.0
C503 C 0.55342 0.3732 0.74776 0.0
C504 C 0.58328 0.36635 0.6753 0.0
C505 C 0.58076 0.34508 0.6848 0.0
C506 C 0.56488 0.33804 0.72825 0.0
C507 C 0.55142 0.35199 0.75985 0.0
H508 H 0.3925 0.801 0.55992 0.0
H509 H 0.35828 0.80632 0.36892 0.0
H510 H 0.41745 0.82604 0.51668 0.0
H511 H 0.38324 0.83126 0.32578 0.0
H512 H 0.44734 0.8545 0.24739 0.0
H513 H 0.42068 0.83088 0.28949 0.0
H514 H 0.4191 0.86333 0.48453 0.0
H515 H 0.44548 0.88676 0.44291 0.0
C516 C 0.39017 0.8077 0.50914 0.0
C517 C 0.3734 0.80174 0.46799 0.0
C518 C 0.40445 0.82202 0.48433 0.0
C519 C 0.40235 0.83051 0.41761 0.0
C520 C 0.38539 0.8248 0.37699 0.0
C521 C 0.371 0.81066 0.40206 0.0
C522 C 0.44116 0.85663 0.29897 0.0
C523 C 0.44852 0.87247 0.34176 0.0
C524 C 0.42588 0.84318 0.32304 0.0
C525 C 0.4179 0.8452 0.39052 0.0
C526 C 0.42512 0.86121 0.43271 0.0
C527 C 0.44016 0.87471 0.40855 0.0
H528 H 0.00437 0.55657 0.05592 0.0
H529 H 0.0341 0.52524 0.22614 0.0
H530 H 0.01037 0.52673 0.9818 0.0
H531 H 0.03968 0.49515 0.15203 0.0
H532 H 0.00314 0.44282 0.02114 0.0
H533 H 0.00902 0.47227 0.09712 0.0
H534 H 0.04154 0.50335 0.93264 0.0
H535 H 0.03607 0.47363 0.85675 0.0
C536 C 0.0124 0.54339 0.07707 0.0
C537 C 0.01862 0.54301 0.1466 0.0
C538 C 0.016 0.52646 0.03463 0.0
C539 C 0.02552 0.50884 0.06158 0.0
C540 C 0.03239 0.5087 0.13044 0.0
C541 C 0.02917 0.52582 0.17256 0.0
C542 C 0.01192 0.45577 0.00181 0.0
C543 C 0.019 0.45617 0.93323 0.0
C544 C 0.01542 0.47247 0.0453 0.0
C545 C 0.02571 0.48991 0.02028 0.0
C546 C 0.03362 0.48995 0.9527 0.0
C547 C 0.03049 0.47304 0.90958 0.0
H548 H 0.78938 0.72465 0.18931 0.0
H549 H 0.78996 0.79054 0.15898 0.0
H550 H 0.75841 0.7277 0.25881 0.0
H551 H 0.75862 0.79356 0.22863 0.0
H552 H 0.7189 0.78627 0.43378 0.0
H553 H 0.74808 0.78746 0.35397 0.0
H554 H 0.72182 0.73729 0.2369 0.0
H555 H 0.69292 0.73588 0.3168 0.0
C556 C 0.78286 0.73979 0.1975 0.0
C557 C 0.79198 0.75736 0.16879 0.0
C558 C 0.76505 0.74151 0.23677 0.0
C559 C 0.75606 0.76083 0.24815 0.0
C560 C 0.76533 0.7785 0.22042 0.0
C561 C 0.78317 0.77676 0.18067 0.0
C562 C 0.71925 0.77574 0.39031 0.0
C563 C 0.70391 0.76077 0.38185 0.0
C564 C 0.73586 0.77649 0.34464 0.0
C565 C 0.73724 0.76226 0.29015 0.0
C566 C 0.72124 0.74816 0.2794 0.0
C567 C 0.70471 0.7474 0.32493 0.0
H568 H 0.45891 0.53989 0.41609 0.0
H569 H 0.5117 0.55892 0.53635 0.0
H570 H 0.4553 0.50936 0.48975 0.0
H571 H 0.50806 0.52849 0.60892 0.0
H572 H 0.51754 0.4577 0.60223 0.0
H573 H 0.51278 0.49011 0.54133 0.0
H574 H 0.45345 0.4979 0.6378 0.0
H575 H 0.45824 0.4653 0.70039 0.0
C576 C 0.46932 0.53787 0.45938 0.0
C577 C 0.48584 0.55146 0.4699 0.0
C578 C 0.46719 0.52051 0.50137 0.0
C579 C 0.48158 0.5167 0.55382 0.0
C580 C 0.49692 0.53122 0.56817 0.0
C581 C 0.49899 0.54854 0.52664 0.0
C582 C 0.50336 0.46613 0.60997 0.0
C583 C 0.48833 0.45915 0.65643 0.0
C584 C 0.50071 0.48466 0.57542 0.0
C585 C 0.48292 0.49639 0.58619 0.0
C586 C 0.46731 0.48899 0.62945 0.0
C587 C 0.47006 0.47044 0.66489 0.0
H588 H 0.78707 0.28135 0.8982 0.0
H589 H 0.78714 0.21519 0.92137 0.0
H590 H 0.75648 0.27912 0.82609 0.0
H591 H 0.75625 0.21301 0.84953 0.0
H592 H 0.71941 0.22039 0.64186 0.0
H593 H 0.74775 0.21972 0.72479 0.0
H594 H 0.71966 0.26966 0.83822 0.0
H595 H 0.69153 0.27056 0.75493 0.0
C596 C 0.78047 0.26635 0.88808 0.0
C597 C 0.78943 0.24844 0.91503 0.0
C598 C 0.76289 0.26509 0.84734 0.0
C599 C 0.75401 0.2459 0.8328 0.0
C600 C 0.76292 0.22796 0.85987 0.0
C601 C 0.78051 0.22923 0.90094 0.0
C602 C 0.71922 0.23106 0.68497 0.0
C603 C 0.70349 0.24569 0.69175 0.0
C604 C 0.73533 0.23059 0.73252 0.0
C605 C 0.73589 0.24476 0.78732 0.0
C606 C 0.71969 0.25879 0.79569 0.0
C607 C 0.7036 0.25925 0.74824 0.0
H608 H 0.21404 0.22392 0.89222 0.0
H609 H 0.21293 0.28991 0.91985 0.0
H610 H 0.2448 0.227 0.82168 0.0
H611 H 0.24408 0.29296 0.84928 0.0
H612 H 0.28309 0.28591 0.6435 0.0
H613 H 0.25416 0.28677 0.72433 0.0
H614 H 0.28132 0.23684 0.8404 0.0
H615 H 0.30996 0.23573 0.75939 0.0
C616 C 0.22042 0.23909 0.88328 0.0
C617 C 0.21118 0.25669 0.9114 0.0
C618 C 0.2381 0.24083 0.84341 0.0
C619 C 0.24687 0.26019 0.83087 0.0
C620 C 0.23754 0.27787 0.8583 0.0
C621 C 0.21981 0.27612 0.89859 0.0
C622 C 0.28296 0.27534 0.68689 0.0
C623 C 0.29851 0.26055 0.69483 0.0
C624 C 0.26651 0.2759 0.73317 0.0
C625 C 0.26547 0.26168 0.7878 0.0
C626 C 0.28163 0.2477 0.79784 0.0
C627 C 0.29801 0.24712 0.75166 0.0
H628 H 0.30668 0.73863 0.29253 0.0
H629 H 0.27661 0.71116 0.4693 0.0
H630 H 0.27662 0.73126 0.22129 0.0
H631 H 0.24622 0.70416 0.39798 0.0
H632 H 0.19469 0.74451 0.27558 0.0
H633 H 0.22399 0.73495 0.34758 0.0
H634 H 0.25111 0.70272 0.17471 0.0
H635 H 0.22151 0.71197 0.10264 0.0
C636 C 0.2938 0.73056 0.31554 0.0
C637 C 0.29371 0.72569 0.38626 0.0
C638 C 0.27673 0.72616 0.27474 0.0
C639 C 0.25921 0.7172 0.30451 0.0
C640 C 0.25965 0.71103 0.37416 0.0
C641 C 0.27695 0.71505 0.41473 0.0
C642 C 0.20667 0.73496 0.25353 0.0
C643 C 0.20612 0.72922 0.18358 0.0
C644 C 0.22328 0.7293 0.29484 0.0
C645 C 0.23968 0.71811 0.26637 0.0
C646 C 0.23853 0.71128 0.19756 0.0
C647 C 0.2217 0.71662 0.15652 0.0
H648 H 0.471 0.96169 0.44247 0.0
H649 H 0.53682 0.96351 0.41153 0.0
H650 H 0.47313 0.99207 0.51533 0.0
H651 H 0.53889 0.99428 0.48431 0.0
H652 H 0.53205 0.03269 0.68981 0.0
H653 H 0.53303 0.00362 0.6096 0.0
H654 H 0.48124 0.02901 0.49836 0.0
H655 H 0.48002 0.0578 0.57883 0.0
C656 C 0.48592 0.96863 0.45119 0.0
C657 C 0.50375 0.96034 0.42141 0.0
C658 C 0.48711 0.98609 0.49244 0.0
C659 C 0.50614 0.99557 0.50466 0.0
C660 C 0.52405 0.98716 0.47565 0.0
C661 C 0.52286 0.96965 0.43406 0.0
C662 C 0.52103 0.03211 0.64775 0.0
C663 C 0.5058 0.04727 0.6408 0.0
C664 C 0.52167 0.01559 0.60179 0.0
C665 C 0.50707 0.01405 0.54849 0.0
C666 C 0.49244 0.02971 0.53986 0.0
C667 C 0.49179 0.04618 0.5857 0.0
H668 H 0.97026 0.02394 0.8561 0.0
H669 H 0.99962 0.05579 0.02586 0.0
H670 H 0.96561 0.99362 0.93006 0.0
H671 H 0.99451 0.02574 0.09984 0.0
H672 H 0.96867 0.97255 0.22506 0.0
H673 H 0.96334 0.00212 0.14855 0.0
H674 H 0.9968 0.97113 0.98613 0.0
H675 H 0.00255 0.94176 0.06281 0.0
C676 C 0.9753 0.02457 0.90955 0.0
C677 C 0.98544 0.042 0.93548 0.0
C678 C 0.97264 0.00731 0.95155 0.0
C679 C 0.97964 0.00757 0.02025 0.0
C680 C 0.98881 0.02538 0.0471 0.0
C681 C 0.99187 0.04243 0.00478 0.0
C682 C 0.97454 0.97194 0.17258 0.0
C683 C 0.9862 0.95509 0.14974 0.0
C684 C 0.97148 0.98878 0.1291 0.0
C685 C 0.97965 0.98871 0.06192 0.0
C686 C 0.99021 0.97134 0.03767 0.0
C687 C 0.99362 0.95468 0.08156 0.0
H688 H 0.96337 0.46427 0.66722 0.0
H689 H 0.02476 0.45073 0.59562 0.0
H690 H 0.96326 0.49589 0.59926 0.0
H691 H 0.02459 0.48233 0.52676 0.0
H692 H 0.0265 0.55119 0.47647 0.0
H693 H 0.0256 0.51966 0.54549 0.0
H694 H 0.96283 0.5092 0.48163 0.0
H695 H 0.96368 0.54078 0.4134 0.0
C696 C 0.97673 0.46786 0.636 0.0
C697 C 0.99405 0.45489 0.63673 0.0
C698 C 0.97667 0.48604 0.59698 0.0
C699 C 0.99398 0.49183 0.55789 0.0
C700 C 0.01111 0.47856 0.55715 0.0
C701 C 0.01112 0.46029 0.59592 0.0
C702 C 0.0124 0.54234 0.47813 0.0
C703 C 0.99513 0.54859 0.43961 0.0
C704 C 0.01196 0.5241 0.51699 0.0
C705 C 0.99422 0.5117 0.51864 0.0
C706 C 0.97673 0.51837 0.48199 0.0
C707 C 0.97721 0.53653 0.44287 0.0
H708 H 0.79433 0.7153 0.89489 0.0
H709 H 0.80188 0.77992 0.85061 0.0
H710 H 0.76209 0.71511 0.83144 0.0
H711 H 0.76989 0.77964 0.78413 0.0
H712 H 0.70152 0.77812 0.72998 0.0
H713 H 0.73366 0.77805 0.79583 0.0
H714 H 0.74636 0.71643 0.72349 0.0
H715 H 0.71403 0.71627 0.66073 0.0
C716 C 0.78935 0.7294 0.87009 0.0
C717 C 0.8008 0.7476 0.87762 0.0
C718 C 0.77076 0.72931 0.83347 0.0
C719 C 0.76311 0.74739 0.80255 0.0
C720 C 0.77496 0.76548 0.80823 0.0
C721 C 0.79351 0.7656 0.84551 0.0
C722 C 0.71103 0.76445 0.72929 0.0
C723 C 0.70508 0.74716 0.69045 0.0
C724 C 0.72965 0.76449 0.76627 0.0
C725 C 0.74289 0.74729 0.76492 0.0
C726 C 0.73661 0.72988 0.727 0.0
C727 C 0.71798 0.72979 0.69069 0.0
H728 H 0.50086 0.56051 0.0737 0.0
H729 H 0.51612 0.52187 0.24827 0.0
H730 H 0.50109 0.53006 0.99803 0.0
H731 H 0.51588 0.49168 0.17345 0.0
H732 H 0.48939 0.44114 0.0237 0.0
H733 H 0.48889 0.47146 0.09972 0.0
H734 H 0.52906 0.50346 0.95831 0.0
H735 H 0.52998 0.47324 0.88357 0.0
C736 C 0.50425 0.54558 0.09585 0.0
C737 C 0.50862 0.54366 0.16683 0.0
C738 C 0.50439 0.52817 0.05266 0.0
C739 C 0.50843 0.50846 0.07997 0.0
C740 C 0.51255 0.50659 0.15101 0.0
C741 C 0.51284 0.52396 0.1937 0.0
C742 C 0.4983 0.45456 0.0094 0.0
C743 C 0.50986 0.45467 0.94791 0.0
C744 C 0.49797 0.47193 0.05271 0.0
C745 C 0.5088 0.48991 0.03458 0.0
C746 C 0.52037 0.48996 0.97326 0.0
C747 C 0.52105 0.47252 0.93086 0.0
H748 H 0.79307 0.28865 0.1819 0.0
H749 H 0.8017 0.22465 0.23358 0.0
H750 H 0.76042 0.28873 0.24279 0.0
H751 H 0.76931 0.22487 0.29768 0.0
H752 H 0.70074 0.22489 0.34516 0.0
H753 H 0.73334 0.22535 0.28219 0.0
H754 H 0.7435 0.28805 0.34838 0.0
H755 H 0.71066 0.2878 0.40808 0.0
C756 C 0.78825 0.2747 0.20792 0.0
C757 C 0.80009 0.25667 0.20302 0.0
C758 C 0.76942 0.27472 0.24305 0.0
C759 C 0.76193 0.25675 0.2751 0.0
C760 C 0.77423 0.2389 0.27248 0.0
C761 C 0.79301 0.23884 0.23663 0.0
C762 C 0.70978 0.23888 0.34497 0.0
C763 C 0.70298 0.25635 0.38124 0.0
C764 C 0.72867 0.23907 0.30973 0.0
C765 C 0.74136 0.25668 0.31044 0.0
C766 C 0.7342 0.27427 0.3455 0.0
C767 C 0.71527 0.27414 0.37998 0.0
H768 H 0.30107 0.2788 0.3476 0.0
H769 H 0.28973 0.21663 0.41602 0.0
H770 H 0.26877 0.27836 0.2827 0.0
H771 H 0.25723 0.21641 0.35425 0.0
H772 H 0.20878 0.215 0.18416 0.0
H773 H 0.24112 0.21508 0.24701 0.0
H774 H 0.23263 0.27942 0.2956 0.0
H775 H 0.20055 0.27946 0.22968 0.0
C776 C 0.29178 0.26498 0.34829 0.0
C777 C 0.2981 0.24771 0.3866 0.0
C778 C 0.27307 0.2648 0.31188 0.0
C779 C 0.2601 0.2474 0.31335 0.0
C780 C 0.26676 0.23002 0.35069 0.0
C781 C 0.2855 0.23014 0.3864 0.0
C782 C 0.21362 0.22911 0.20914 0.0
C783 C 0.20197 0.2472 0.20206 0.0
C784 C 0.23227 0.22917 0.24541 0.0
C785 C 0.23977 0.24729 0.27642 0.0
C786 C 0.22769 0.26525 0.27135 0.0
C787 C 0.20908 0.26522 0.2344 0.0
H788 H 0.27238 0.77353 0.59397 0.0
H789 H 0.3092 0.74657 0.75652 0.0
H790 H 0.24267 0.77427 0.67119 0.0
H791 H 0.27939 0.74779 0.8346 0.0
H792 H 0.22672 0.77706 0.96723 0.0
H793 H 0.25631 0.77659 0.88963 0.0
H794 H 0.21975 0.74651 0.73312 0.0
H795 H 0.19003 0.74651 0.81178 0.0
C796 C 0.27422 0.76797 0.64651 0.0
C797 C 0.29323 0.76008 0.66922 0.0
C798 C 0.25711 0.76825 0.69049 0.0
C799 C 0.25866 0.76102 0.7588 0.0
C800 C 0.27777 0.75353 0.7822 0.0
C801 C 0.29483 0.75285 0.73761 0.0
C802 C 0.22487 0.77046 0.91608 0.0
C803 C 0.20593 0.76191 0.89555 0.0
C804 C 0.24192 0.77005 0.87191 0.0
C805 C 0.2404 0.76143 0.80547 0.0
C806 C 0.22135 0.75331 0.78406 0.0
C807 C 0.20434 0.75333 0.82895 0.0
H808 H 0.52768 0.95173 0.10143 0.0
H809 H 0.4632 0.95902 0.14773 0.0
H810 H 0.52724 0.98409 0.03705 0.0
H811 H 0.46286 0.99166 0.08666 0.0
H812 H 0.4637 0.04106 0.91995 0.0
H813 H 0.46378 0.00844 0.98103 0.0
H814 H 0.52591 0.02005 0.05045 0.0
H815 H 0.52606 0.05242 0.98605 0.0
C816 C 0.51336 0.96014 0.09725 0.0
C817 C 0.49545 0.95265 0.12928 0.0
C818 C 0.51314 0.9789 0.0612 0.0
C819 C 0.49506 0.99082 0.05685 0.0
C820 C 0.47705 0.98297 0.08765 0.0
C821 C 0.47722 0.96414 0.12292 0.0
C822 C 0.47731 0.03682 0.94905 0.0
C823 C 0.49485 0.04946 0.94824 0.0
C824 C 0.47736 0.01801 0.98436 0.0
C825 C 0.4949 0.0113 0.02077 0.0
C826 C 0.51224 0.02435 0.02192 0.0
C827 C 0.51225 0.04311 0.98583 0.0
H828 H 0.0388 0.03998 0.67002 0.0
H829 H 0.97602 0.05029 0.60624 0.0
H830 H 0.03961 0.00815 0.60351 0.0
H831 H 0.97691 0.01854 0.53844 0.0
H832 H 0.97774 0.94965 0.48813 0.0
H833 H 0.97768 0.9814 0.55624 0.0
H834 H 0.0396 0.99431 0.48809 0.0
H835 H 0.03974 0.96253 0.42138 0.0
C836 C 0.02527 0.03566 0.64068 0.0
C837 C 0.00737 0.04777 0.6433 0.0
C838 C 0.02573 0.01735 0.60249 0.0
C839 C 0.00827 0.01058 0.56593 0.0
C840 C 0.99054 0.02303 0.56692 0.0
C841 C 0.99011 0.04141 0.60503 0.0
C842 C 0.99145 0.9591 0.48874 0.0
C843 C 0.00877 0.95347 0.44954 0.0
C844 C 0.99133 0.97746 0.52704 0.0
C845 C 0.00857 0.99061 0.52727 0.0
C846 C 0.0261 0.98457 0.48974 0.0
C847 C 0.02618 0.9663 0.45138 0.0
loop_
_geom_bond_atom_site_label_1
_geom_bond_atom_site_label_2
_geom_bond_distance
_geom_bond_site_symmetry_2
_ccdc_geom_bond_type
In0 O1 2.294 1_455 S
In0 O2 2.326 . S
In0 O6 2.266 1_455 S
In0 O7 2.326 1_455 S
In0 O8 2.266 . S
In0 O9 2.326 . S
In0 O11 2.294 . S
In0 O12 2.326 1_455 S
O1 In0 2.294 1_655 S
O1 C10 1.240 1_655 S
O2 In0 2.326 . S
O2 C10 1.252 . S
C3 O6 1.252 . S
C3 O7 1.260 . S
C4 O11 1.240 1_655 S
C4 O12 1.252 . S
C5 O8 1.252 . S
C5 O9 1.260 . S
O6 In0 2.266 1_655 S
O6 C3 1.252 . S
O7 In0 2.326 1_655 S
O7 C3 1.260 . S
O8 In0 2.266 . S
O8 C5 1.252 . S
O9 In0 2.326 . S
O9 C5 1.260 . S
C10 O1 1.240 1_455 S
C10 O2 1.252 . S
O11 In0 2.294 . S
O11 C4 1.240 1_455 S
O12 In0 2.326 1_655 S
O12 C4 1.252 . S
In13 O14 2.294 . S
In13 O15 2.326 . S
In13 O19 2.266 . S
In13 O20 2.326 . S
In13 O21 2.266 . S
In13 O22 2.326 . S
In13 O24 2.294 . S
In13 O25 2.326 . S
O14 In13 2.294 . S
O14 C23 1.240 . S
O15 In13 2.326 . S
O15 C23 1.252 . S
C16 O19 1.252 . S
C16 O20 1.260 . S
C17 O24 1.240 . S
C17 O25 1.252 . S
C18 O21 1.252 . S
C18 O22 1.260 . S
O19 In13 2.266 . S
O19 C16 1.252 . S
O20 In13 2.326 . S
O20 C16 1.260 . S
O21 In13 2.266 . S
O21 C18 1.252 . S
O22 In13 2.326 . S
O22 C18 1.260 . S
C23 O14 1.240 . S
C23 O15 1.252 . S
O24 In13 2.294 . S
O24 C17 1.240 . S
O25 In13 2.326 . S
O25 C17 1.252 . S
In26 O27 2.294 . S
In26 O28 2.326 . S
In26 O32 2.266 . S
In26 O33 2.326 . S
In26 O34 2.266 . S
In26 O35 2.326 . S
In26 O37 2.294 . S
In26 O38 2.326 . S
O27 In26 2.294 . S
O27 C36 1.240 . S
O28 In26 2.326 . S
O28 C36 1.252 . S
C29 O32 1.252 . S
C29 O33 1.260 . S
C30 O37 1.240 . S
C30 O38 1.252 . S
C31 O34 1.252 . S
C31 O35 1.260 . S
O32 In26 2.266 . S
O32 C29 1.252 . S
O33 In26 2.326 . S
O33 C29 1.260 . S
O34 In26 2.266 . S
O34 C31 1.252 . S
O35 In26 2.326 . S
O35 C31 1.260 . S
C36 O27 1.240 . S
C36 O28 1.252 . S
O37 In26 2.294 . S
O37 C30 1.240 . S
O38 In26 2.326 . S
O38 C30 1.252 . S
In39 O40 2.293 1_554 S
In39 O41 2.326 1_554 S
In39 O45 2.266 1_554 S
In39 O46 2.326 . S
In39 O47 2.266 . S
In39 O48 2.325 1_554 S
In39 O50 2.295 . S
In39 O51 2.327 . S
O40 In39 2.293 1_556 S
O40 C49 1.240 . S
O41 In39 2.326 1_556 S
O41 C49 1.252 . S
C42 O45 1.252 1_554 S
C42 O46 1.260 . S
C43 O50 1.240 . S
C43 O51 1.252 . S
C44 O47 1.252 1_556 S
C44 O48 1.260 . S
O45 In39 2.266 1_556 S
O45 C42 1.252 1_556 S
O46 In39 2.326 . S
O46 C42 1.260 . S
O47 In39 2.266 . S
O47 C44 1.252 1_554 S
O48 In39 2.325 1_556 S
O48 C44 1.260 . S
C49 O40 1.240 . S
C49 O41 1.252 . S
O50 In39 2.295 . S
O50 C43 1.240 . S
O51 In39 2.327 . S
O51 C43 1.252 . S
In52 O53 2.294 . S
In52 O54 2.326 1_455 S
In52 O58 2.266 . S
In52 O59 2.326 . S
In52 O60 2.266 1_455 S
In52 O61 2.326 1_455 S
In52 O63 2.294 1_455 S
In52 O64 2.326 . S
O53 In52 2.294 . S
O53 C62 1.240 1_455 S
O54 In52 2.326 1_655 S
O54 C62 1.252 . S
C55 O58 1.252 . S
C55 O59 1.260 . S
C56 O63 1.240 1_455 S
C56 O64 1.252 . S
C57 O60 1.252 . S
C57 O61 1.260 . S
O58 In52 2.266 . S
O58 C55 1.252 . S
O59 In52 2.326 . S
O59 C55 1.260 . S
O60 In52 2.266 1_655 S
O60 C57 1.252 . S
O61 In52 2.326 1_655 S
O61 C57 1.260 . S
C62 O53 1.240 1_655 S
C62 O54 1.252 . S
O63 In52 2.294 1_655 S
O63 C56 1.240 1_655 S
O64 In52 2.326 . S
O64 C56 1.252 . S
In65 O66 2.294 . S
In65 O67 2.326 . S
In65 O71 2.266 . S
In65 O72 2.326 . S
In65 O73 2.266 . S
In65 O74 2.326 . S
In65 O76 2.294 1_554 S
In65 O77 2.326 . S
O66 In65 2.294 . S
O66 C75 1.240 . S
O67 In65 2.326 . S
O67 C75 1.252 . S
C68 O71 1.252 . S
C68 O72 1.260 . S
C69 O76 1.240 . S
C69 O77 1.252 1_556 S
C70 O73 1.252 . S
C70 O74 1.260 . S
O71 In65 2.266 . S
O71 C68 1.252 . S
O72 In65 2.326 . S
O72 C68 1.260 . S
O73 In65 2.266 . S
O73 C70 1.252 . S
O74 In65 2.326 . S
O74 C70 1.260 . S
C75 O66 1.240 . S
C75 O67 1.252 . S
O76 In65 2.294 1_556 S
O76 C69 1.240 . S
O77 In65 2.326 . S
O77 C69 1.252 1_554 S
In78 O79 2.294 . S
In78 O80 2.326 . S
In78 O84 2.266 . S
In78 O85 2.326 . S
In78 O86 2.266 . S
In78 O87 2.326 . S
In78 O89 2.294 . S
In78 O90 2.326 . S
O79 In78 2.294 . S
O79 C88 1.240 . S
O80 In78 2.326 . S
O80 C88 1.252 . S
C81 O84 1.252 . S
C81 O85 1.260 . S
C82 O89 1.240 . S
C82 O90 1.252 . S
C83 O86 1.252 . S
C83 O87 1.260 . S
O84 In78 2.266 . S
O84 C81 1.252 . S
O85 In78 2.326 . S
O85 C81 1.260 . S
O86 In78 2.266 . S
O86 C83 1.252 . S
O87 In78 2.326 . S
O87 C83 1.260 . S
C88 O79 1.240 . S
C88 O80 1.252 . S
O89 In78 2.294 . S
O89 C82 1.240 . S
O90 In78 2.326 . S
O90 C82 1.252 . S
In91 O92 2.294 . S
In91 O93 2.326 . S
In91 O97 2.266 . S
In91 O98 2.326 . S
In91 O99 2.266 . S
In91 O100 2.326 . S
In91 O102 2.294 . S
In91 O103 2.326 . S
O92 In91 2.294 . S
O92 C101 1.240 . S
O93 In91 2.326 . S
O93 C101 1.252 . S
C94 O97 1.252 . S
C94 O98 1.260 . S
C95 O102 1.240 . S
C95 O103 1.252 . S
C96 O99 1.252 . S
C96 O100 1.260 . S
O97 In91 2.266 . S
O97 C94 1.252 . S
O98 In91 2.326 . S
O98 C94 1.260 . S
O99 In91 2.266 . S
O99 C96 1.252 . S
O100 In91 2.326 . S
O100 C96 1.260 . S
C101 O92 1.240 . S
C101 O93 1.252 . S
O102 In91 2.294 . S
O102 C95 1.240 . S
O103 In91 2.326 . S
O103 C95 1.252 . S
In104 O105 2.294 . S
In104 O106 2.326 . S
In104 O110 2.266 . S
In104 O111 2.326 . S
In104 O112 2.266 . S
In104 O113 2.326 . S
In104 O115 2.294 . S
In104 O116 2.326 . S
O105 In104 2.294 . S
O105 C114 1.240 . S
O106 In104 2.326 . S
O106 C114 1.252 . S
C107 O110 1.252 . S
C107 O111 1.260 . S
C108 O115 1.240 . S
C108 O116 1.252 . S
C109 O112 1.252 . S
C109 O113 1.260 . S
O110 In104 2.266 . S
O110 C107 1.252 . S
O111 In104 2.326 . S
O111 C107 1.260 . S
O112 In104 2.266 . S
O112 C109 1.252 . S
O113 In104 2.326 . S
O113 C109 1.260 . S
C114 O105 1.240 . S
C114 O106 1.252 . S
O115 In104 2.294 . S
O115 C108 1.240 . S
O116 In104 2.326 . S
O116 C108 1.252 . S
In117 O118 2.294 1_554 S
In117 O119 2.326 . S
In117 O123 2.266 . S
In117 O124 2.326 . S
In117 O125 2.266 . S
In117 O126 2.326 . S
In117 O128 2.294 . S
In117 O129 2.326 . S
O118 In117 2.294 1_556 S
O118 C127 1.240 . S
O119 In117 2.326 . S
O119 C127 1.252 1_554 S
C120 O123 1.252 . S
C120 O124 1.260 . S
C121 O128 1.240 . S
C121 O129 1.252 . S
C122 O125 1.252 . S
C122 O126 1.260 . S
O123 In117 2.266 . S
O123 C120 1.252 . S
O124 In117 2.326 . S
O124 C120 1.260 . S
O125 In117 2.266 . S
O125 C122 1.252 . S
O126 In117 2.326 . S
O126 C122 1.260 . S
C127 O118 1.240 . S
C127 O119 1.252 1_556 S
O128 In117 2.294 . S
O128 C121 1.240 . S
O129 In117 2.326 . S
O129 C121 1.252 . S
In130 O131 2.295 . S
In130 O132 2.327 . S
In130 O136 2.266 . S
In130 O137 2.325 1_554 S
In130 O138 2.266 1_554 S
In130 O139 2.326 . S
In130 O141 2.293 1_554 S
In130 O142 2.326 1_554 S
O131 In130 2.295 . S
O131 C140 1.240 . S
O132 In130 2.327 . S
O132 C140 1.252 . S
C133 O136 1.252 1_556 S
C133 O137 1.260 . S
C134 O141 1.240 . S
C134 O142 1.252 . S
C135 O138 1.252 1_554 S
C135 O139 1.260 . S
O136 In130 2.266 . S
O136 C133 1.252 1_554 S
O137 In130 2.325 1_556 S
O137 C133 1.260 . S
O138 In130 2.266 1_556 S
O138 C135 1.252 1_556 S
O139 In130 2.326 . S
O139 C135 1.260 . S
C140 O131 1.240 . S
C140 O132 1.252 . S
O141 In130 2.293 1_556 S
O141 C134 1.240 . S
O142 In130 2.326 1_556 S
O142 C134 1.252 . S
In143 O144 2.294 . S
In143 O145 2.326 . S
In143 O149 2.266 . S
In143 O150 2.326 . S
In143 O151 2.266 . S
In143 O152 2.326 . S
In143 O154 2.294 . S
In143 O155 2.326 . S
O144 In143 2.294 . S
O144 C153 1.240 . S
O145 In143 2.326 . S
O145 C153 1.252 . S
C146 O149 1.252 . S
C146 O150 1.260 . S
C147 O154 1.240 . S
C147 O155 1.252 . S
C148 O151 1.252 . S
C148 O152 1.260 . S
O149 In143 2.266 . S
O149 C146 1.252 . S
O150 In143 2.326 . S
O150 C146 1.260 . S
O151 In143 2.266 . S
O151 C148 1.252 . S
O152 In143 2.326 . S
O152 C148 1.260 . S
C153 O144 1.240 . S
C153 O145 1.252 . S
O154 In143 2.294 . S
O154 C147 1.240 . S
O155 In143 2.326 . S
O155 C147 1.252 . S
In156 O157 2.294 . S
In156 O158 2.326 . S
In156 O162 2.266 . S
In156 O163 2.326 . S
In156 O164 2.266 . S
In156 O165 2.326 . S
In156 O167 2.294 . S
In156 O168 2.326 . S
O157 In156 2.294 . S
O157 C166 1.240 . S
O158 In156 2.326 . S
O158 C166 1.252 . S
C159 O162 1.252 . S
C159 O163 1.260 . S
C160 O167 1.240 . S
C160 O168 1.252 . S
C161 O164 1.252 . S
C161 O165 1.260 . S
O162 In156 2.266 . S
O162 C159 1.252 . S
O163 In156 2.326 . S
O163 C159 1.260 . S
O164 In156 2.266 . S
O164 C161 1.252 . S
O165 In156 2.326 . S
O165 C161 1.260 . S
C166 O157 1.240 . S
C166 O158 1.252 . S
O167 In156 2.294 . S
O167 C160 1.240 . S
O168 In156 2.326 . S
O168 C160 1.252 . S
In169 O170 2.294 1_455 S
In169 O171 2.326 . S
In169 O175 2.266 1_455 S
In169 O176 2.326 1_455 S
In169 O177 2.266 . S
In169 O178 2.326 . S
In169 O180 2.294 . S
In169 O181 2.326 1_455 S
O170 In169 2.294 1_655 S
O170 C179 1.240 1_655 S
O171 In169 2.326 . S
O171 C179 1.252 . S
C172 O175 1.252 . S
C172 O176 1.260 . S
C173 O180 1.240 1_655 S
C173 O181 1.252 . S
C174 O177 1.252 . S
C174 O178 1.260 . S
O175 In169 2.266 1_655 S
O175 C172 1.252 . S
O176 In169 2.326 1_655 S
O176 C172 1.260 . S
O177 In169 2.266 . S
O177 C174 1.252 . S
O178 In169 2.326 . S
O178 C174 1.260 . S
C179 O170 1.240 1_455 S
C179 O171 1.252 . S
O180 In169 2.294 . S
O180 C173 1.240 1_455 S
O181 In169 2.326 1_655 S
O181 C173 1.252 . S
In182 O183 2.294 . S
In182 O184 2.326 . S
In182 O188 2.266 . S
In182 O189 2.326 . S
In182 O190 2.266 . S
In182 O191 2.326 . S
In182 O193 2.294 . S
In182 O194 2.326 . S
O183 In182 2.294 . S
O183 C192 1.240 . S
O184 In182 2.326 . S
O184 C192 1.252 . S
C185 O188 1.252 . S
C185 O189 1.260 . S
C186 O193 1.240 . S
C186 O194 1.252 . S
C187 O190 1.252 . S
C187 O191 1.260 . S
O188 In182 2.266 . S
O188 C185 1.252 . S
O189 In182 2.326 . S
O189 C185 1.260 . S
O190 In182 2.266 . S
O190 C187 1.252 . S
O191 In182 2.326 . S
O191 C187 1.260 . S
C192 O183 1.240 . S
C192 O184 1.252 . S
O193 In182 2.294 . S
O193 C186 1.240 . S
O194 In182 2.326 . S
O194 C186 1.252 . S
In195 O196 2.294 . S
In195 O197 2.326 1_455 S
In195 O201 2.266 . S
In195 O202 2.326 . S
In195 O203 2.266 1_455 S
In195 O204 2.326 1_455 S
In195 O206 2.294 1_455 S
In195 O207 2.326 . S
O196 In195 2.294 . S
O196 C205 1.240 1_455 S
O197 In195 2.326 1_655 S
O197 C205 1.252 . S
C198 O201 1.252 . S
C198 O202 1.260 . S
C199 O206 1.240 1_455 S
C199 O207 1.252 . S
C200 O203 1.252 . S
C200 O204 1.260 . S
O201 In195 2.266 . S
O201 C198 1.252 . S
O202 In195 2.326 . S
O202 C198 1.260 . S
O203 In195 2.266 1_655 S
O203 C200 1.252 . S
O204 In195 2.326 1_655 S
O204 C200 1.260 . S
C205 O196 1.240 1_655 S
C205 O197 1.252 . S
O206 In195 2.294 1_655 S
O206 C199 1.240 1_655 S
O207 In195 2.326 . S
O207 C199 1.252 . S
H208 C216 0.950 . S
H209 C221 0.950 . S
H210 C218 0.950 . S
H211 C220 0.950 . S
H212 C222 0.950 . S
H213 C224 0.950 . S
H214 C226 0.950 . S
H215 C227 0.950 . S
C216 H208 0.950 . S
C216 C217 1.386 . S
C216 C218 1.391 . S
C217 C216 1.386 . S
C217 C221 1.393 . S
C218 H210 0.950 . S
C218 C216 1.391 . S
C218 C219 1.400 . S
C219 C218 1.400 . S
C219 C220 1.398 . S
C219 C225 1.491 . S
C220 H211 0.950 . S
C220 C219 1.398 . S
C220 C221 1.391 . S
C221 H209 0.950 . S
C221 C217 1.393 . S
C221 C220 1.391 . S
C222 H212 0.950 . S
C222 C223 1.386 . S
C222 C224 1.391 . S
C223 C222 1.386 . S
C223 C227 1.393 . S
C224 H213 0.950 . S
C224 C222 1.391 . S
C224 C225 1.400 . S
C225 C219 1.491 . S
C225 C224 1.400 . S
C225 C226 1.398 . S
C226 H214 0.950 . S
C226 C225 1.398 . S
C226 C227 1.391 . S
C227 H215 0.950 . S
C227 C223 1.393 . S
C227 C226 1.391 . S
H228 C236 0.950 . S
H229 C241 0.950 . S
H230 C238 0.950 . S
H231 C240 0.950 . S
H232 C242 0.950 . S
H233 C244 0.950 . S
H234 C246 0.950 . S
H235 C247 0.950 . S
C236 H228 0.950 . S
C236 C237 1.386 . S
C236 C238 1.391 . S
C237 C236 1.386 . S
C237 C241 1.393 . S
C238 H230 0.950 . S
C238 C236 1.391 . S
C238 C239 1.400 . S
C239 C238 1.400 . S
C239 C240 1.398 . S
C239 C245 1.491 . S
C240 H231 0.950 . S
C240 C239 1.398 . S
C240 C241 1.391 . S
C241 H229 0.950 . S
C241 C237 1.393 . S
C241 C240 1.391 . S
C242 H232 0.950 . S
C242 C243 1.386 . S
C242 C244 1.391 . S
C243 C242 1.386 . S
C243 C247 1.393 . S
C244 H233 0.950 . S
C244 C242 1.391 . S
C244 C245 1.400 . S
C245 C239 1.491 . S
C245 C244 1.400 . S
C245 C246 1.398 . S
C246 H234 0.950 . S
C246 C245 1.398 . S
C246 C247 1.391 . S
C247 H235 0.950 . S
C247 C243 1.393 . S
C247 C246 1.391 . S
H248 C256 0.950 . S
H249 C261 0.950 . S
H250 C258 0.950 . S
H251 C260 0.950 . S
H252 C262 0.950 . S
H253 C264 0.950 . S
H254 C266 0.950 . S
H255 C267 0.950 . S
C256 H248 0.950 . S
C256 C257 1.386 . S
C256 C258 1.391 . S
C257 C256 1.386 . S
C257 C261 1.393 . S
C258 H250 0.950 . S
C258 C256 1.391 . S
C258 C259 1.400 . S
C259 C258 1.400 . S
C259 C260 1.398 . S
C259 C265 1.491 . S
C260 H251 0.950 . S
C260 C259 1.398 . S
C260 C261 1.391 . S
C261 H249 0.950 . S
C261 C257 1.393 . S
C261 C260 1.391 . S
C262 H252 0.950 . S
C262 C263 1.386 . S
C262 C264 1.391 . S
C263 C262 1.386 . S
C263 C267 1.393 . S
C264 H253 0.950 . S
C264 C262 1.391 . S
C264 C265 1.400 . S
C265 C259 1.491 . S
C265 C264 1.400 . S
C265 C266 1.398 . S
C266 H254 0.950 . S
C266 C265 1.398 . S
C266 C267 1.391 . S
C267 H255 0.950 . S
C267 C263 1.393 . S
C267 C266 1.391 . S
H268 C276 0.950 . S
H269 C281 0.950 1_554 S
H270 C278 0.950 . S
H271 C280 0.950 1_554 S
H272 C282 0.950 . S
H273 C284 0.950 . S
H274 C286 0.950 . S
H275 C287 0.950 . S
C276 H268 0.950 . S
C276 C277 1.386 . S
C276 C278 1.391 . S
C277 C276 1.386 . S
C277 C281 1.393 . S
C278 H270 0.950 . S
C278 C276 1.391 . S
C278 C279 1.400 . S
C279 C278 1.400 . S
C279 C280 1.398 . S
C279 C285 1.491 . S
C280 H271 0.950 1_556 S
C280 C279 1.398 . S
C280 C281 1.391 . S
C281 H269 0.950 1_556 S
C281 C277 1.393 . S
C281 C280 1.391 . S
C282 H272 0.950 . S
C282 C283 1.386 . S
C282 C284 1.391 . S
C283 C282 1.386 . S
C283 C287 1.393 . S
C284 H273 0.950 . S
C284 C282 1.391 . S
C284 C285 1.400 . S
C285 C279 1.491 . S
C285 C284 1.400 . S
C285 C286 1.398 . S
C286 H274 0.950 . S
C286 C285 1.398 . S
C286 C287 1.391 . S
C287 H275 0.950 . S
C287 C283 1.393 . S
C287 C286 1.391 . S
H288 C296 0.950 . S
H289 C301 0.950 . S
H290 C298 0.950 . S
H291 C300 0.950 . S
H292 C302 0.950 . S
H293 C304 0.950 . S
H294 C306 0.950 . S
H295 C307 0.950 1_554 S
C296 H288 0.950 . S
C296 C297 1.386 . S
C296 C298 1.391 . S
C297 C296 1.386 . S
C297 C301 1.393 . S
C298 H290 0.950 . S
C298 C296 1.391 . S
C298 C299 1.400 . S
C299 C298 1.400 . S
C299 C300 1.398 . S
C299 C305 1.491 . S
C300 H291 0.950 . S
C300 C299 1.398 . S
C300 C301 1.391 . S
C301 H289 0.950 . S
C301 C297 1.393 . S
C301 C300 1.391 . S
C302 H292 0.950 . S
C302 C303 1.386 . S
C302 C304 1.391 . S
C303 C302 1.386 . S
C303 C307 1.393 . S
C304 H293 0.950 . S
C304 C302 1.391 . S
C304 C305 1.400 . S
C305 C299 1.491 . S
C305 C304 1.400 . S
C305 C306 1.398 . S
C306 H294 0.950 . S
C306 C305 1.398 . S
C306 C307 1.391 . S
C307 H295 0.950 1_556 S
C307 C303 1.393 . S
C307 C306 1.391 . S
H308 C316 0.950 . S
H309 C321 0.950 . S
H310 C318 0.950 . S
H311 C320 0.950 . S
H312 C322 0.950 . S
H313 C324 0.950 . S
H314 C326 0.950 . S
H315 C327 0.950 . S
C316 H308 0.950 . S
C316 C317 1.386 . S
C316 C318 1.391 . S
C317 C316 1.386 . S
C317 C321 1.393 . S
C318 H310 0.950 . S
C318 C316 1.391 . S
C318 C319 1.400 . S
C319 C318 1.400 . S
C319 C320 1.398 . S
C319 C325 1.491 . S
C320 H311 0.950 . S
C320 C319 1.398 . S
C320 C321 1.391 . S
C321 H309 0.950 . S
C321 C317 1.393 . S
C321 C320 1.391 . S
C322 H312 0.950 . S
C322 C323 1.386 . S
C322 C324 1.391 . S
C323 C322 1.386 . S
C323 C327 1.393 . S
C324 H313 0.950 . S
C324 C322 1.391 . S
C324 C325 1.400 . S
C325 C319 1.491 . S
C325 C324 1.400 . S
C325 C326 1.398 . S
C326 H314 0.950 . S
C326 C325 1.398 . S
C326 C327 1.391 . S
C327 H315 0.950 . S
C327 C323 1.393 . S
C327 C326 1.391 . S
H328 C336 0.950 . S
H329 C341 0.950 . S
H330 C338 0.950 . S
H331 C340 0.950 . S
H332 C342 0.950 . S
H333 C344 0.950 . S
H334 C346 0.950 . S
H335 C347 0.950 . S
C336 H328 0.950 . S
C336 C337 1.386 . S
C336 C338 1.391 . S
C337 C336 1.386 . S
C337 C341 1.393 . S
C338 H330 0.950 . S
C338 C336 1.391 . S
C338 C339 1.400 . S
C339 C338 1.400 . S
C339 C340 1.398 . S
C339 C345 1.491 . S
C340 H331 0.950 . S
C340 C339 1.398 . S
C340 C341 1.391 . S
C341 H329 0.950 . S
C341 C337 1.393 . S
C341 C340 1.391 . S
C342 H332 0.950 . S
C342 C343 1.386 . S
C342 C344 1.391 . S
C343 C342 1.386 . S
C343 C347 1.393 . S
C344 H333 0.950 . S
C344 C342 1.391 . S
C344 C345 1.400 . S
C345 C339 1.491 . S
C345 C344 1.400 . S
C345 C346 1.398 . S
C346 H334 0.950 . S
C346 C345 1.398 . S
C346 C347 1.391 . S
C347 H335 0.950 . S
C347 C343 1.393 . S
C347 C346 1.391 . S
H348 C356 0.950 . S
H349 C361 0.950 . S
H350 C358 0.950 . S
H351 C360 0.950 . S
H352 C362 0.950 . S
H353 C364 0.950 . S
H354 C366 0.950 . S
H355 C367 0.950 . S
C356 H348 0.950 . S
C356 C357 1.386 . S
C356 C358 1.391 . S
C357 C356 1.386 . S
C357 C361 1.393 . S
C358 H350 0.950 . S
C358 C356 1.391 . S
C358 C359 1.400 . S
C359 C358 1.400 . S
C359 C360 1.398 . S
C359 C365 1.491 . S
C360 H351 0.950 . S
C360 C359 1.398 . S
C360 C361 1.391 . S
C361 H349 0.950 . S
C361 C357 1.393 . S
C361 C360 1.391 . S
C362 H352 0.950 . S
C362 C363 1.386 . S
C362 C364 1.391 . S
C363 C362 1.386 . S
C363 C367 1.393 . S
C364 H353 0.950 . S
C364 C362 1.391 . S
C364 C365 1.400 . S
C365 C359 1.491 . S
C365 C364 1.400 . S
C365 C366 1.398 . S
C366 H354 0.950 . S
C366 C365 1.398 . S
C366 C367 1.391 . S
C367 H355 0.950 . S
C367 C363 1.393 . S
C367 C366 1.391 . S
H368 C376 0.950 . S
H369 C381 0.950 . S
H370 C378 0.950 . S
H371 C380 0.950 . S
H372 C382 0.950 . S
H373 C384 0.950 . S
H374 C386 0.950 1_554 S
H375 C387 0.950 . S
C376 H368 0.950 . S
C376 C377 1.386 . S
C376 C378 1.391 . S
C377 C376 1.386 . S
C377 C381 1.393 . S
C378 H370 0.950 . S
C378 C376 1.391 . S
C378 C379 1.400 . S
C379 C378 1.400 . S
C379 C380 1.398 . S
C379 C385 1.491 . S
C380 H371 0.950 . S
C380 C379 1.398 . S
C380 C381 1.391 . S
C381 H369 0.950 . S
C381 C377 1.393 . S
C381 C380 1.391 . S
C382 H372 0.950 . S
C382 C383 1.386 . S
C382 C384 1.391 . S
C383 C382 1.386 . S
C383 C387 1.393 1_556 S
C384 H373 0.950 . S
C384 C382 1.391 . S
C384 C385 1.400 . S
C385 C379 1.491 . S
C385 C384 1.400 . S
C385 C386 1.398 . S
C386 H374 0.950 1_556 S
C386 C385 1.398 . S
C386 C387 1.391 1_556 S
C387 H375 0.950 . S
C387 C383 1.393 1_554 S
C387 C386 1.391 1_554 S
H388 C396 0.950 . S
H389 C401 0.950 . S
H390 C398 0.950 . S
H391 C400 0.950 . S
H392 C402 0.950 . S
H393 C404 0.950 . S
H394 C406 0.950 . S
H395 C407 0.950 . S
C396 H388 0.950 . S
C396 C397 1.386 . S
C396 C398 1.391 . S
C397 C396 1.386 . S
C397 C401 1.393 . S
C398 H390 0.950 . S
C398 C396 1.391 . S
C398 C399 1.400 . S
C399 C398 1.400 . S
C399 C400 1.398 . S
C399 C405 1.491 . S
C400 H391 0.950 . S
C400 C399 1.398 . S
C400 C401 1.391 . S
C401 H389 0.950 . S
C401 C397 1.393 . S
C401 C400 1.391 . S
C402 H392 0.950 . S
C402 C403 1.386 . S
C402 C404 1.391 . S
C403 C402 1.386 . S
C403 C407 1.393 . S
C404 H393 0.950 . S
C404 C402 1.391 . S
C404 C405 1.400 . S
C405 C399 1.491 . S
C405 C404 1.400 . S
C405 C406 1.398 . S
C406 H394 0.950 . S
C406 C405 1.398 . S
C406 C407 1.391 . S
C407 H395 0.950 . S
C407 C403 1.393 . S
C407 C406 1.391 . S
H408 C416 0.950 . S
H409 C421 0.950 . S
H410 C418 0.950 . S
H411 C420 0.950 . S
H412 C422 0.950 . S
H413 C424 0.950 . S
H414 C426 0.950 . S
H415 C427 0.950 . S
C416 H408 0.950 . S
C416 C417 1.386 . S
C416 C418 1.391 . S
C417 C416 1.386 . S
C417 C421 1.393 . S
C418 H410 0.950 . S
C418 C416 1.391 . S
C418 C419 1.400 . S
C419 C418 1.400 . S
C419 C420 1.398 . S
C419 C425 1.491 . S
C420 H411 0.950 . S
C420 C419 1.398 . S
C420 C421 1.391 . S
C421 H409 0.950 . S
C421 C417 1.393 . S
C421 C420 1.391 . S
C422 H412 0.950 . S
C422 C423 1.386 . S
C422 C424 1.391 . S
C423 C422 1.386 . S
C423 C427 1.393 . S
C424 H413 0.950 . S
C424 C422 1.391 . S
C424 C425 1.400 . S
C425 C419 1.491 . S
C425 C424 1.400 . S
C425 C426 1.398 . S
C426 H414 0.950 . S
C426 C425 1.398 . S
C426 C427 1.391 . S
C427 H415 0.950 . S
C427 C423 1.393 . S
C427 C426 1.391 . S
H428 C436 0.950 . S
H429 C441 0.950 . S
H430 C438 0.950 . S
H431 C440 0.950 . S
H432 C442 0.950 . S
H433 C444 0.950 . S
H434 C446 0.950 . S
H435 C447 0.950 . S
C436 H428 0.950 . S
C436 C437 1.386 . S
C436 C438 1.391 . S
C437 C436 1.386 . S
C437 C441 1.393 . S
C438 H430 0.950 . S
C438 C436 1.391 . S
C438 C439 1.400 . S
C439 C438 1.400 . S
C439 C440 1.398 . S
C439 C445 1.491 . S
C440 H431 0.950 . S
C440 C439 1.398 . S
C440 C441 1.391 . S
C441 H429 0.950 . S
C441 C437 1.393 . S
C441 C440 1.391 . S
C442 H432 0.950 . S
C442 C443 1.386 . S
C442 C444 1.391 . S
C443 C442 1.386 . S
C443 C447 1.393 . S
C444 H433 0.950 . S
C444 C442 1.391 . S
C444 C445 1.400 . S
C445 C439 1.491 . S
C445 C444 1.400 . S
C445 C446 1.398 . S
C446 H434 0.950 . S
C446 C445 1.398 . S
C446 C447 1.391 . S
C447 H435 0.950 . S
C447 C443 1.393 . S
C447 C446 1.391 . S
H448 C456 0.950 . S
H449 C461 0.950 . S
H450 C458 0.950 . S
H451 C460 0.950 . S
H452 C462 0.950 . S
H453 C464 0.950 . S
H454 C466 0.950 . S
H455 C467 0.950 . S
C456 H448 0.950 . S
C456 C457 1.386 . S
C456 C458 1.391 . S
C457 C456 1.386 . S
C457 C461 1.393 . S
C458 H450 0.950 . S
C458 C456 1.391 . S
C458 C459 1.400 . S
C459 C458 1.400 . S
C459 C460 1.398 . S
C459 C465 1.491 . S
C460 H451 0.950 . S
C460 C459 1.398 . S
C460 C461 1.391 . S
C461 H449 0.950 . S
C461 C457 1.393 . S
C461 C460 1.391 . S
C462 H452 0.950 . S
C462 C463 1.386 . S
C462 C464 1.391 . S
C463 C462 1.386 . S
C463 C467 1.393 . S
C464 H453 0.950 . S
C464 C462 1.391 . S
C464 C465 1.400 . S
C465 C459 1.491 . S
C465 C464 1.400 . S
C465 C466 1.398 . S
C466 H454 0.950 . S
C466 C465 1.398 . S
C466 C467 1.391 . S
C467 H455 0.950 . S
C467 C463 1.393 . S
C467 C466 1.391 . S
H468 C476 0.950 . S
H469 C481 0.950 . S
H470 C478 0.950 . S
H471 C480 0.950 . S
H472 C482 0.950 . S
H473 C484 0.950 . S
H474 C486 0.950 1_554 S
H475 C487 0.950 . S
C476 H468 0.950 . S
C476 C477 1.386 . S
C476 C478 1.391 . S
C477 C476 1.386 . S
C477 C481 1.393 . S
C478 H470 0.950 . S
C478 C476 1.391 . S
C478 C479 1.400 . S
C479 C478 1.400 . S
C479 C480 1.398 . S
C479 C485 1.491 . S
C480 H471 0.950 . S
C480 C479 1.398 . S
C480 C481 1.391 . S
C481 H469 0.950 . S
C481 C477 1.393 . S
C481 C480 1.391 . S
C482 H472 0.950 . S
C482 C483 1.386 . S
C482 C484 1.391 . S
C483 C482 1.386 . S
C483 C487 1.393 1_556 S
C484 H473 0.950 . S
C484 C482 1.391 . S
C484 C485 1.400 . S
C485 C479 1.491 . S
C485 C484 1.400 . S
C485 C486 1.398 . S
C486 H474 0.950 1_556 S
C486 C485 1.398 . S
C486 C487 1.391 1_556 S
C487 H475 0.950 . S
C487 C483 1.393 1_554 S
C487 C486 1.391 1_554 S
H488 C496 0.950 . S
H489 C501 0.950 . S
H490 C498 0.950 . S
H491 C500 0.950 . S
H492 C502 0.950 . S
H493 C504 0.950 . S
H494 C506 0.950 . S
H495 C507 0.950 . S
C496 H488 0.950 . S
C496 C497 1.386 . S
C496 C498 1.391 . S
C497 C496 1.386 . S
C497 C501 1.393 . S
C498 H490 0.950 . S
C498 C496 1.391 . S
C498 C499 1.400 . S
C499 C498 1.400 . S
C499 C500 1.398 . S
C499 C505 1.491 . S
C500 H491 0.950 . S
C500 C499 1.398 . S
C500 C501 1.391 . S
C501 H489 0.950 . S
C501 C497 1.393 . S
C501 C500 1.391 . S
C502 H492 0.950 . S
C502 C503 1.386 . S
C502 C504 1.391 . S
C503 C502 1.386 . S
C503 C507 1.393 . S
C504 H493 0.950 . S
C504 C502 1.391 . S
C504 C505 1.400 . S
C505 C499 1.491 . S
C505 C504 1.400 . S
C505 C506 1.398 . S
C506 H494 0.950 . S
C506 C505 1.398 . S
C506 C507 1.391 . S
C507 H495 0.950 . S
C507 C503 1.393 . S
C507 C506 1.391 . S
H508 C516 0.950 . S
H509 C521 0.950 . S
H510 C518 0.950 . S
H511 C520 0.950 . S
H512 C522 0.950 . S
H513 C524 0.950 . S
H514 C526 0.950 . S
H515 C527 0.950 . S
C516 H508 0.950 . S
C516 C517 1.386 . S
C516 C518 1.391 . S
C517 C516 1.386 . S
C517 C521 1.393 . S
C518 H510 0.950 . S
C518 C516 1.391 . S
C518 C519 1.400 . S
C519 C518 1.400 . S
C519 C520 1.398 . S
C519 C525 1.491 . S
C520 H511 0.950 . S
C520 C519 1.398 . S
C520 C521 1.391 . S
C521 H509 0.950 . S
C521 C517 1.393 . S
C521 C520 1.391 . S
C522 H512 0.950 . S
C522 C523 1.386 . S
C522 C524 1.391 . S
C523 C522 1.386 . S
C523 C527 1.393 . S
C524 H513 0.950 . S
C524 C522 1.391 . S
C524 C525 1.400 . S
C525 C519 1.491 . S
C525 C524 1.400 . S
C525 C526 1.398 . S
C526 H514 0.950 . S
C526 C525 1.398 . S
C526 C527 1.391 . S
C527 H515 0.950 . S
C527 C523 1.393 . S
C527 C526 1.391 . S
H528 C536 0.950 . S
H529 C541 0.950 . S
H530 C538 0.950 1_556 S
H531 C540 0.950 . S
H532 C542 0.953 1_655 S
H533 C544 0.952 . S
H534 C546 0.950 . S
H535 C547 0.950 . S
C536 H528 0.950 . S
C536 C537 1.386 . S
C536 C538 1.391 . S
C537 C536 1.386 . S
C537 C541 1.393 . S
C538 H530 0.950 1_554 S
C538 C536 1.391 . S
C538 C539 1.400 . S
C539 C538 1.400 . S
C539 C540 1.398 . S
C539 C545 1.491 . S
C540 H531 0.950 . S
C540 C539 1.398 . S
C540 C541 1.391 . S
C541 H529 0.950 . S
C541 C537 1.393 . S
C541 C540 1.391 . S
C542 H532 0.953 1_455 S
C542 C543 1.373 1_554 S
C542 C544 1.399 . S
C543 C542 1.373 1_556 S
C543 C547 1.393 . S
C544 H533 0.952 . S
C544 C542 1.399 . S
C544 C545 1.400 . S
C545 C539 1.491 . S
C545 C544 1.400 . S
C545 C546 1.398 1_554 S
C546 H534 0.950 . S
C546 C545 1.398 1_556 S
C546 C547 1.391 . S
C547 H535 0.950 . S
C547 C543 1.393 . S
C547 C546 1.391 . S
H548 C556 0.950 . S
H549 C561 0.950 . S
H550 C558 0.950 . S
H551 C560 0.950 . S
H552 C562 0.950 . S
H553 C564 0.950 . S
H554 C566 0.950 . S
H555 C567 0.950 . S
C556 H548 0.950 . S
C556 C557 1.386 . S
C556 C558 1.391 . S
C557 C556 1.386 . S
C557 C561 1.393 . S
C558 H550 0.950 . S
C558 C556 1.391 . S
C558 C559 1.400 . S
C559 C558 1.400 . S
C559 C560 1.398 . S
C559 C565 1.491 . S
C560 H551 0.950 . S
C560 C559 1.398 . S
C560 C561 1.391 . S
C561 H549 0.950 . S
C561 C557 1.393 . S
C561 C560 1.391 . S
C562 H552 0.950 . S
C562 C563 1.386 . S
C562 C564 1.391 . S
C563 C562 1.386 . S
C563 C567 1.393 . S
C564 H553 0.950 . S
C564 C562 1.391 . S
C564 C565 1.400 . S
C565 C559 1.491 . S
C565 C564 1.400 . S
C565 C566 1.398 . S
C566 H554 0.950 . S
C566 C565 1.398 . S
C566 C567 1.391 . S
C567 H555 0.950 . S
C567 C563 1.393 . S
C567 C566 1.391 . S
H568 C576 0.950 . S
H569 C581 0.950 . S
H570 C578 0.950 . S
H571 C580 0.950 . S
H572 C582 0.950 . S
H573 C584 0.950 . S
H574 C586 0.950 . S
H575 C587 0.950 . S
C576 H568 0.950 . S
C576 C577 1.386 . S
C576 C578 1.391 . S
C577 C576 1.386 . S
C577 C581 1.393 . S
C578 H570 0.950 . S
C578 C576 1.391 . S
C578 C579 1.400 . S
C579 C578 1.400 . S
C579 C580 1.398 . S
C579 C585 1.491 . S
C580 H571 0.950 . S
C580 C579 1.398 . S
C580 C581 1.391 . S
C581 H569 0.950 . S
C581 C577 1.393 . S
C581 C580 1.391 . S
C582 H572 0.950 . S
C582 C583 1.386 . S
C582 C584 1.391 . S
C583 C582 1.386 . S
C583 C587 1.393 . S
C584 H573 0.950 . S
C584 C582 1.391 . S
C584 C585 1.400 . S
C585 C579 1.491 . S
C585 C584 1.400 . S
C585 C586 1.398 . S
C586 H574 0.950 . S
C586 C585 1.398 . S
C586 C587 1.391 . S
C587 H575 0.950 . S
C587 C583 1.393 . S
C587 C586 1.391 . S
H588 C596 0.950 . S
H589 C601 0.950 . S
H590 C598 0.950 . S
H591 C600 0.950 . S
H592 C602 0.950 . S
H593 C604 0.950 . S
H594 C606 0.950 . S
H595 C607 0.950 . S
C596 H588 0.950 . S
C596 C597 1.386 . S
C596 C598 1.391 . S
C597 C596 1.386 . S
C597 C601 1.393 . S
C598 H590 0.950 . S
C598 C596 1.391 . S
C598 C599 1.400 . S
C599 C598 1.400 . S
C599 C600 1.398 . S
C599 C605 1.491 . S
C600 H591 0.950 . S
C600 C599 1.398 . S
C600 C601 1.391 . S
C601 H589 0.950 . S
C601 C597 1.393 . S
C601 C600 1.391 . S
C602 H592 0.950 . S
C602 C603 1.386 . S
C602 C604 1.391 . S
C603 C602 1.386 . S
C603 C607 1.393 . S
C604 H593 0.950 . S
C604 C602 1.391 . S
C604 C605 1.400 . S
C605 C599 1.491 . S
C605 C604 1.400 . S
C605 C606 1.398 . S
C606 H594 0.950 . S
C606 C605 1.398 . S
C606 C607 1.391 . S
C607 H595 0.950 . S
C607 C603 1.393 . S
C607 C606 1.391 . S
H608 C616 0.950 . S
H609 C621 0.950 . S
H610 C618 0.950 . S
H611 C620 0.950 . S
H612 C622 0.950 . S
H613 C624 0.950 . S
H614 C626 0.950 . S
H615 C627 0.950 . S
C616 H608 0.950 . S
C616 C617 1.386 . S
C616 C618 1.391 . S
C617 C616 1.386 . S
C617 C621 1.393 . S
C618 H610 0.950 . S
C618 C616 1.391 . S
C618 C619 1.400 . S
C619 C618 1.400 . S
C619 C620 1.398 . S
C619 C625 1.491 . S
C620 H611 0.950 . S
C620 C619 1.398 . S
C620 C621 1.391 . S
C621 H609 0.950 . S
C621 C617 1.393 . S
C621 C620 1.391 . S
C622 H612 0.950 . S
C622 C623 1.386 . S
C622 C624 1.391 . S
C623 C622 1.386 . S
C623 C627 1.393 . S
C624 H613 0.950 . S
C624 C622 1.391 . S
C624 C625 1.400 . S
C625 C619 1.491 . S
C625 C624 1.400 . S
C625 C626 1.398 . S
C626 H614 0.950 . S
C626 C625 1.398 . S
C626 C627 1.391 . S
C627 H615 0.950 . S
C627 C623 1.393 . S
C627 C626 1.391 . S
H628 C636 0.950 . S
H629 C641 0.950 . S
H630 C638 0.950 . S
H631 C640 0.950 . S
H632 C642 0.950 . S
H633 C644 0.950 . S
H634 C646 0.950 . S
H635 C647 0.950 . S
C636 H628 0.950 . S
C636 C637 1.386 . S
C636 C638 1.391 . S
C637 C636 1.386 . S
C637 C641 1.393 . S
C638 H630 0.950 . S
C638 C636 1.391 . S
C638 C639 1.400 . S
C639 C638 1.400 . S
C639 C640 1.398 . S
C639 C645 1.491 . S
C640 H631 0.950 . S
C640 C639 1.398 . S
C640 C641 1.391 . S
C641 H629 0.950 . S
C641 C637 1.393 . S
C641 C640 1.391 . S
C642 H632 0.950 . S
C642 C643 1.386 . S
C642 C644 1.391 . S
C643 C642 1.386 . S
C643 C647 1.393 . S
C644 H633 0.950 . S
C644 C642 1.391 . S
C644 C645 1.400 . S
C645 C639 1.491 . S
C645 C644 1.400 . S
C645 C646 1.398 . S
C646 H634 0.950 . S
C646 C645 1.398 . S
C646 C647 1.391 . S
C647 H635 0.950 . S
C647 C643 1.393 . S
C647 C646 1.391 . S
H648 C656 0.950 . S
H649 C661 0.950 . S
H650 C658 0.950 . S
H651 C660 0.950 . S
H652 C662 0.950 . S
H653 C664 0.950 . S
H654 C666 0.950 . S
H655 C667 0.950 . S
C656 H648 0.950 . S
C656 C657 1.386 . S
C656 C658 1.391 . S
C657 C656 1.386 . S
C657 C661 1.393 . S
C658 H650 0.950 . S
C658 C656 1.391 . S
C658 C659 1.400 . S
C659 C658 1.400 . S
C659 C660 1.398 . S
C659 C665 1.491 1_565 S
C660 H651 0.950 . S
C660 C659 1.398 . S
C660 C661 1.391 . S
C661 H649 0.950 . S
C661 C657 1.393 . S
C661 C660 1.391 . S
C662 H652 0.950 . S
C662 C663 1.386 . S
C662 C664 1.391 . S
C663 C662 1.386 . S
C663 C667 1.393 . S
C664 H653 0.950 . S
C664 C662 1.391 . S
C664 C665 1.400 . S
C665 C659 1.491 1_545 S
C665 C664 1.400 . S
C665 C666 1.398 . S
C666 H654 0.950 . S
C666 C665 1.398 . S
C666 C667 1.391 . S
C667 H655 0.950 . S
C667 C663 1.393 . S
C667 C666 1.391 . S
H668 C676 0.950 . S
H669 C681 0.950 1_554 S
H670 C678 0.950 1_565 S
H671 C680 0.950 . S
H672 C682 0.976 . S
H673 C684 0.950 1_545 S
H674 C686 0.950 . S
H675 C687 0.950 . S
C676 H668 0.950 . S
C676 C677 1.386 . S
C676 C678 1.391 . S
C677 C676 1.386 . S
C677 C681 1.393 1_655 S
C678 H670 0.950 1_545 S
C678 C676 1.391 . S
C678 C679 1.400 1_556 S
C679 C678 1.400 1_554 S
C679 C680 1.398 1_655 S
C679 C685 1.491 1_545 S
C680 H671 0.950 . S
C680 C679 1.398 1_455 S
C680 C681 1.391 1_554 S
C681 H669 0.950 1_556 S
C681 C677 1.393 1_455 S
C681 C680 1.391 1_556 S
C682 H672 0.976 . S
C682 C683 1.361 1_455 S
C682 C684 1.393 . S
C683 C682 1.361 1_655 S
C683 C687 1.393 . S
C684 H673 0.950 1_565 S
C684 C682 1.393 . S
C684 C685 1.400 1_455 S
C685 C679 1.491 1_565 S
C685 C684 1.400 1_655 S
C685 C686 1.398 . S
C686 H674 0.950 . S
C686 C685 1.398 . S
C686 C687 1.391 . S
C687 H675 0.950 . S
C687 C683 1.393 . S
C687 C686 1.391 . S
H688 C696 0.950 . S
H689 C701 0.950 . S
H690 C698 0.950 . S
H691 C700 0.950 . S
H692 C702 0.950 . S
H693 C704 0.950 . S
H694 C706 0.950 . S
H695 C707 0.950 . S
C696 H688 0.950 . S
C696 C697 1.386 . S
C696 C698 1.391 . S
C697 C696 1.386 . S
C697 C701 1.393 1_655 S
C698 H690 0.950 . S
C698 C696 1.391 . S
C698 C699 1.400 . S
C699 C698 1.400 . S
C699 C700 1.398 1_655 S
C699 C705 1.491 . S
C700 H691 0.950 . S
C700 C699 1.398 1_455 S
C700 C701 1.391 . S
C701 H689 0.950 . S
C701 C697 1.393 1_455 S
C701 C700 1.391 . S
C702 H692 0.950 . S
C702 C703 1.386 1_455 S
C702 C704 1.391 . S
C703 C702 1.386 1_655 S
C703 C707 1.393 . S
C704 H693 0.950 . S
C704 C702 1.391 . S
C704 C705 1.400 1_455 S
C705 C699 1.491 . S
C705 C704 1.400 1_655 S
C705 C706 1.398 . S
C706 H694 0.950 . S
C706 C705 1.398 . S
C706 C707 1.391 . S
C707 H695 0.950 . S
C707 C703 1.393 . S
C707 C706 1.391 . S
H708 C716 0.950 . S
H709 C721 0.950 . S
H710 C718 0.950 . S
H711 C720 0.950 . S
H712 C722 0.950 . S
H713 C724 0.950 . S
H714 C726 0.950 . S
H715 C727 0.950 . S
C716 H708 0.950 . S
C716 C717 1.386 . S
C716 C718 1.391 . S
C717 C716 1.386 . S
C717 C721 1.393 . S
C718 H710 0.950 . S
C718 C716 1.391 . S
C718 C719 1.400 . S
C719 C718 1.400 . S
C719 C720 1.398 . S
C719 C725 1.491 . S
C720 H711 0.950 . S
C720 C719 1.398 . S
C720 C721 1.391 . S
C721 H709 0.950 . S
C721 C717 1.393 . S
C721 C720 1.391 . S
C722 H712 0.950 . S
C722 C723 1.386 . S
C722 C724 1.391 . S
C723 C722 1.386 . S
C723 C727 1.393 . S
C724 H713 0.950 . S
C724 C722 1.391 . S
C724 C725 1.400 . S
C725 C719 1.491 . S
C725 C724 1.400 . S
C725 C726 1.398 . S
C726 H714 0.950 . S
C726 C725 1.398 . S
C726 C727 1.391 . S
C727 H715 0.950 . S
C727 C723 1.393 . S
C727 C726 1.391 . S
H728 C736 0.950 . S
H729 C741 0.950 . S
H730 C738 0.950 1_556 S
H731 C740 0.950 . S
H732 C742 0.950 1_554 S
H733 C744 0.950 . S
H734 C746 0.950 . S
H735 C747 0.950 . S
C736 H728 0.950 . S
C736 C737 1.386 . S
C736 C738 1.391 . S
C737 C736 1.386 . S
C737 C741 1.393 . S
C738 H730 0.950 1_554 S
C738 C736 1.391 . S
C738 C739 1.400 . S
C739 C738 1.400 . S
C739 C740 1.398 . S
C739 C745 1.491 . S
C740 H731 0.950 . S
C740 C739 1.398 . S
C740 C741 1.391 . S
C741 H729 0.950 . S
C741 C737 1.393 . S
C741 C740 1.391 . S
C742 H732 0.950 1_556 S
C742 C743 1.386 . S
C742 C744 1.391 1_556 S
C743 C742 1.386 . S
C743 C747 1.393 . S
C744 H733 0.950 . S
C744 C742 1.391 1_554 S
C744 C745 1.400 . S
C745 C739 1.491 . S
C745 C744 1.400 . S
C745 C746 1.398 1_554 S
C746 H734 0.950 . S
C746 C745 1.398 1_556 S
C746 C747 1.391 . S
C747 H735 0.950 . S
C747 C743 1.393 . S
C747 C746 1.391 . S
H748 C756 0.950 . S
H749 C761 0.950 . S
H750 C758 0.950 . S
H751 C760 0.950 . S
H752 C762 0.950 . S
H753 C764 0.950 . S
H754 C766 0.950 . S
H755 C767 0.950 . S
C756 H748 0.950 . S
C756 C757 1.386 . S
C756 C758 1.391 . S
C757 C756 1.386 . S
C757 C761 1.393 . S
C758 H750 0.950 . S
C758 C756 1.391 . S
C758 C759 1.400 . S
C759 C758 1.400 . S
C759 C760 1.398 . S
C759 C765 1.491 . S
C760 H751 0.950 . S
C760 C759 1.398 . S
C760 C761 1.391 . S
C761 H749 0.950 . S
C761 C757 1.393 . S
C761 C760 1.391 . S
C762 H752 0.950 . S
C762 C763 1.386 . S
C762 C764 1.391 . S
C763 C762 1.386 . S
C763 C767 1.393 . S
C764 H753 0.950 . S
C764 C762 1.391 . S
C764 C765 1.400 . S
C765 C759 1.491 . S
C765 C764 1.400 . S
C765 C766 1.398 . S
C766 H754 0.950 . S
C766 C765 1.398 . S
C766 C767 1.391 . S
C767 H755 0.950 . S
C767 C763 1.393 . S
C767 C766 1.391 . S
H768 C776 0.950 . S
H769 C781 0.950 . S
H770 C778 0.950 . S
H771 C780 0.950 . S
H772 C782 0.950 . S
H773 C784 0.950 . S
H774 C786 0.950 . S
H775 C787 0.950 . S
C776 H768 0.950 . S
C776 C777 1.386 . S
C776 C778 1.391 . S
C777 C776 1.386 . S
C777 C781 1.393 . S
C778 H770 0.950 . S
C778 C776 1.391 . S
C778 C779 1.400 . S
C779 C778 1.400 . S
C779 C780 1.398 . S
C779 C785 1.491 . S
C780 H771 0.950 . S
C780 C779 1.398 . S
C780 C781 1.391 . S
C781 H769 0.950 . S
C781 C777 1.393 . S
C781 C780 1.391 . S
C782 H772 0.950 . S
C782 C783 1.386 . S
C782 C784 1.391 . S
C783 C782 1.386 . S
C783 C787 1.393 . S
C784 H773 0.950 . S
C784 C782 1.391 . S
C784 C785 1.400 . S
C785 C779 1.491 . S
C785 C784 1.400 . S
C785 C786 1.398 . S
C786 H774 0.950 . S
C786 C785 1.398 . S
C786 C787 1.391 . S
C787 H775 0.950 . S
C787 C783 1.393 . S
C787 C786 1.391 . S
H788 C796 0.950 . S
H789 C801 0.950 . S
H790 C798 0.950 . S
H791 C800 0.950 . S
H792 C802 0.950 . S
H793 C804 0.950 . S
H794 C806 0.950 . S
H795 C807 0.950 . S
C796 H788 0.950 . S
C796 C797 1.386 . S
C796 C798 1.391 . S
C797 C796 1.386 . S
C797 C801 1.393 . S
C798 H790 0.950 . S
C798 C796 1.391 . S
C798 C799 1.400 . S
C799 C798 1.400 . S
C799 C800 1.398 . S
C799 C805 1.491 . S
C800 H791 0.950 . S
C800 C799 1.398 . S
C800 C801 1.391 . S
C801 H789 0.950 . S
C801 C797 1.393 . S
C801 C800 1.391 . S
C802 H792 0.950 . S
C802 C803 1.386 . S
C802 C804 1.391 . S
C803 C802 1.386 . S
C803 C807 1.393 . S
C804 H793 0.950 . S
C804 C802 1.391 . S
C804 C805 1.400 . S
C805 C799 1.491 . S
C805 C804 1.400 . S
C805 C806 1.398 . S
C806 H794 0.950 . S
C806 C805 1.398 . S
C806 C807 1.391 . S
C807 H795 0.950 . S
C807 C803 1.393 . S
C807 C806 1.391 . S
H808 C816 0.950 . S
H809 C821 0.950 . S
H810 C818 0.950 . S
H811 C820 0.950 . S
H812 C822 0.950 . S
H813 C824 0.950 1_554 S
H814 C826 0.950 1_554 S
H815 C827 0.950 . S
C816 H808 0.950 . S
C816 C817 1.386 . S
C816 C818 1.391 . S
C817 C816 1.386 . S
C817 C821 1.393 . S
C818 H810 0.950 . S
C818 C816 1.391 . S
C818 C819 1.400 . S
C819 C818 1.400 . S
C819 C820 1.398 . S
C819 C825 1.491 1_565 S
C820 H811 0.950 . S
C820 C819 1.398 . S
C820 C821 1.391 . S
C821 H809 0.950 . S
C821 C817 1.393 . S
C821 C820 1.391 . S
C822 H812 0.950 . S
C822 C823 1.386 . S
C822 C824 1.391 . S
C823 C822 1.386 . S
C823 C827 1.393 . S
C824 H813 0.950 1_556 S
C824 C822 1.391 . S
C824 C825 1.400 1_556 S
C825 C819 1.491 1_545 S
C825 C824 1.400 1_554 S
C825 C826 1.398 1_554 S
C826 H814 0.950 1_556 S
C826 C825 1.398 1_556 S
C826 C827 1.391 . S
C827 H815 0.950 . S
C827 C823 1.393 . S
C827 C826 1.391 . S
H828 C836 0.950 . S
H829 C841 0.950 . S
H830 C838 0.950 . S
H831 C840 0.950 1_565 S
H832 C842 0.950 . S
H833 C844 0.950 . S
H834 C846 0.950 1_545 S
H835 C847 0.950 . S
C836 H828 0.950 . S
C836 C837 1.386 . S
C836 C838 1.391 . S
C837 C836 1.386 . S
C837 C841 1.393 1_455 S
C838 H830 0.950 . S
C838 C836 1.391 . S
C838 C839 1.400 . S
C839 C838 1.400 . S
C839 C840 1.398 1_455 S
C839 C845 1.491 1_545 S
C840 H831 0.950 1_545 S
C840 C839 1.398 1_655 S
C840 C841 1.391 . S
C841 H829 0.950 . S
C841 C837 1.393 1_655 S
C841 C840 1.391 . S
C842 H832 0.950 . S
C842 C843 1.386 1_655 S
C842 C844 1.391 . S
C843 C842 1.386 1_455 S
C843 C847 1.393 . S
C844 H833 0.950 . S
C844 C842 1.391 . S
C844 C845 1.400 1_655 S
C845 C839 1.491 1_565 S
C845 C844 1.400 1_455 S
C845 C846 1.398 . S
C846 H834 0.950 1_565 S
C846 C845 1.398 . S
C846 C847 1.391 . S
C847 H835 0.950 . S
C847 C843 1.393 . S
C847 C846 1.391 . S
C217 C120 1.491 . S
C223 C5 1.486 . S
C237 C185 1.493 . S
C243 C18 1.492 . S
C257 C31 1.492 . S
C263 C107 1.493 . S
C277 C44 1.490 . S
C283 C200 1.496 . S
C297 C55 1.492 . S
C303 C133 1.489 . S
C317 C172 1.492 . S
C323 C70 1.495 . S
C337 C146 1.491 . S
C343 C83 1.490 . S
C357 C94 1.493 . S
C363 C159 1.493 . S
C377 C57 1.635 . S
C383 C42 1.640 1_556 S
C397 C161 1.636 . S
C403 C109 1.636 . S
C417 C81 1.619 . S
C423 C16 1.619 . S
C437 C122 1.636 . S
C443 C174 1.631 . S
C457 C3 1.625 . S
C463 C68 1.630 . S
C477 C198 1.634 . S
C483 C135 1.630 1_556 S
C497 C96 1.620 . S
C503 C29 1.620 . S
C517 C148 1.625 . S
C523 C187 1.625 . S
C537 C10 0.746 . S
C543 C56 0.730 . S
C557 C75 0.735 . S
C563 C23 0.744 . S
C577 C88 0.731 . S
C583 C36 0.743 . S
C597 C49 0.733 . S
C603 C95 0.747 . S
C617 C134 0.734 . S
C623 C108 0.747 . S
C637 C147 0.745 . S
C643 C121 0.731 . S
C657 C186 0.738 . S
C663 C160 0.740 . S
C677 C205 0.731 . S
C683 C173 0.746 . S
C697 C62 1.790 . S
C703 C4 1.795 . S
C717 C69 1.790 . S
C723 C17 1.795 . S
C737 C82 1.801 . S
C743 C30 1.795 . S
C757 C43 1.793 . S
C763 C101 1.788 . S
C777 C114 1.799 . S
C783 C140 1.801 . S
C797 C153 1.792 . S
C803 C127 1.798 . S
C817 C192 1.803 . S
C823 C166 1.802 . S
C837 C199 1.793 . S
C843 C179 1.789 . S
