# Generated by pormake.
# Topology yfj, (5)-cn, num edge types: 1
# Building blocks:
#     Node 0, Type 0, BuildingBlock: BEQFEK_clean_sbu_0, # of connection points: 5
#     Node 1, Type 0, BuildingBlock: BEQFEK_clean_sbu_0, # of connection points: 5
#     Node 2, Type 0, BuildingBlock: BEQFEK_clean_sbu_0, # of connection points: 5
#     Node 3, Type 0, BuildingBlock: BEQFEK_clean_sbu_0, # of connection points: 5
#     Node 4, Type 0, BuildingBlock: BEQFEK_clean_sbu_0, # of connection points: 5
#     Node 5, Type 0, BuildingBlock: BEQFEK_clean_sbu_0, # of connection points: 5
#     Node 6, Type 0, BuildingBlock: BEQFEK_clean_sbu_0, # of connection points: 5
#     Node 7, Type 0, BuildingBlock: BEQFEK_clean_sbu_0, # of connection points: 5
#     Node 8, Type 0, BuildingBlock: BEQFEK_clean_sbu_0, # of connection points: 5
#     Node 9, Type 0, BuildingBlock: BEQFEK_clean_sbu_0, # of connection points: 5
#     Node 10, Type 0, BuildingBlock: BEQFEK_clean_sbu_0, # of connection points: 5
#     Node 11, Type 0, BuildingBlock: BEQFEK_clean_sbu_0, # of connection points: 5
#     Node 12, Type 0, BuildingBlock: BEQFEK_clean_sbu_0, # of connection points: 5
#     Node 13, Type 0, BuildingBlock: BEQFEK_clean_sbu_0, # of connection points: 5
#     Node 14, Type 0, BuildingBlock: BEQFEK_clean_sbu_0, # of connection points: 5
#     Node 15, Type 0, BuildingBlock: BEQFEK_clean_sbu_0, # of connection points: 5
#     Edge 16, Type (0, 0), None
#     Edge 17, Type (0, 0), None
#     Edge 18, Type (0, 0), None
#     Edge 19, Type (0, 0), None
#     Edge 20, Type (0, 0), None
#     Edge 21, Type (0, 0), None
#     Edge 22, Type (0, 0), None
#     Edge 23, Type (0, 0), None
#     Edge 24, Type (0, 0), None
#     Edge 25, Type (0, 0), None
#     Edge 26, Type (0, 0), None
#     Edge 27, Type (0, 0), None
#     Edge 28, Type (0, 0), None
#     Edge 29, Type (0, 0), None
#     Edge 30, Type (0, 0), None
#     Edge 31, Type (0, 0), None
#     Edge 32, Type (0, 0), None
#     Edge 33, Type (0, 0), None
#     Edge 34, Type (0, 0), None
#     Edge 35, Type (0, 0), None
#     Edge 36, Type (0, 0), None
#     Edge 37, Type (0, 0), None
#     Edge 38, Type (0, 0), None
#     Edge 39, Type (0, 0), None
#     Edge 40, Type (0, 0), None
#     Edge 41, Type (0, 0), None
#     Edge 42, Type (0, 0), None
#     Edge 43, Type (0, 0), None
#     Edge 44, Type (0, 0), None
#     Edge 45, Type (0, 0), None
#     Edge 46, Type (0, 0), None
#     Edge 47, Type (0, 0), None
#     Edge 48, Type (0, 0), None
#     Edge 49, Type (0, 0), None
#     Edge 50, Type (0, 0), None
#     Edge 51, Type (0, 0), None
#     Edge 52, Type (0, 0), None
#     Edge 53, Type (0, 0), None
#     Edge 54, Type (0, 0), None
#     Edge 55, Type (0, 0), None
# Relax obj value: 0.570
# Max RMSD: 0.250
# Mean RMSD: 0.250
data_MOF--net-yfj--node1-BEQFEK_clean_sbu_0--edge1-none
_symmetry_space_group_name_H-M    P1
_symmetry_Int_Tables_number       1
_symmetry_cell_setting            triclinic
loop_
_symmetry_equiv_pos_as_xyz
'x, y, z'
_cell_length_a     22.885989
_cell_length_b     22.885989
_cell_length_c     27.321963
_cell_angle_alpha  90.0
_cell_angle_beta   90.0
_cell_angle_gamma 90.000573
loop_
_atom_site_label
_atom_site_type_symbol
_atom_site_fract_x
_atom_site_fract_y
_atom_site_fract_z
_atom_type_partial_charge
Co0 Co 0.08702 0.13263 0.40399 0.0
Co1 Co 0.14773 0.14462 0.3038 0.0
C2 C 0.21834 0.10249 0.38266 0.0
O3 O 0.17457 0.11448 0.40994 0.0
O4 O 0.21348 0.10394 0.3363 0.0
C5 C 0.07304 0.06981 0.49199 0.0
O6 O 0.11217 0.03572 0.47148 0.0
C7 C 0.21464 0.14214 0.21308 0.0
C8 C 0.15035 0.15648 0.15424 0.0
C9 C 0.20824 0.14187 0.16244 0.0
N10 N 0.16349 0.15507 0.23416 0.0
N11 N 0.12517 0.16464 0.19868 0.0
C12 C 0.26844 0.12804 0.24155 0.0
H13 H 0.26939 0.1546 0.27531 0.0
H14 H 0.26827 0.08101 0.25143 0.0
H15 H 0.30815 0.13773 0.22015 0.0
C16 C 0.00442 0.06317 0.34966 0.0
N17 N 0.0508 0.09845 0.35124 0.0
N18 N 0.08007 0.09508 0.31022 0.0
C19 C 0.05694 0.05097 0.28352 0.0
C20 C 0.00818 0.02864 0.30803 0.0
C21 C 0.959 0.06044 0.38917 0.0
H22 H 0.97806 0.04306 0.42335 0.0
H23 H 0.92125 0.033 0.37806 0.0
H24 H 0.94363 0.10537 0.39739 0.0
O25 O 0.07607 0.21441 0.39517 0.0
O26 O 0.14939 0.22302 0.3433 0.0
H27 H 0.06873 0.04731 0.20627 0.0
H28 H 0.07619 0.97783 0.23633 0.0
C29 C 0.08586 0.02522 0.23945 0.0
H30 H 0.13379 0.03242 0.24105 0.0
H31 H 0.08102 0.17353 0.20469 0.0
O32 O 0.05105 0.11133 0.4673 0.0
C33 C 0.11795 0.24382 0.37805 0.0
Co34 Co 0.86335 0.58701 0.65399 0.0
Co35 Co 0.85136 0.64773 0.5538 0.0
C36 C 0.8935 0.71834 0.63266 0.0
O37 O 0.8815 0.67457 0.65994 0.0
O38 O 0.89204 0.71348 0.5863 0.0
C39 C 0.92617 0.57304 0.74199 0.0
O40 O 0.96026 0.61217 0.72148 0.0
C41 C 0.85384 0.71464 0.46308 0.0
C42 C 0.8395 0.65035 0.40424 0.0
C43 C 0.85411 0.70824 0.41244 0.0
N44 N 0.84091 0.66349 0.48416 0.0
N45 N 0.83134 0.62516 0.44868 0.0
C46 C 0.86794 0.76844 0.49155 0.0
H47 H 0.84137 0.76938 0.52531 0.0
H48 H 0.91497 0.76827 0.50143 0.0
H49 H 0.85825 0.80814 0.47015 0.0
C50 C 0.93281 0.50442 0.59966 0.0
N51 N 0.89753 0.5508 0.60124 0.0
N52 N 0.9009 0.58007 0.56022 0.0
C53 C 0.94501 0.55694 0.53352 0.0
C54 C 0.96734 0.50818 0.55803 0.0
C55 C 0.93554 0.459 0.63917 0.0
H56 H 0.95292 0.47806 0.67335 0.0
H57 H 0.96298 0.42125 0.62806 0.0
H58 H 0.89061 0.44362 0.64739 0.0
O59 O 0.78157 0.57607 0.64517 0.0
O60 O 0.77296 0.64939 0.5933 0.0
H61 H 0.94868 0.56873 0.45627 0.0
H62 H 0.01815 0.5762 0.48633 0.0
C63 C 0.97076 0.58585 0.48945 0.0
H64 H 0.96356 0.63379 0.49104 0.0
H65 H 0.82245 0.58102 0.45469 0.0
O66 O 0.88465 0.55105 0.7173 0.0
C67 C 0.75216 0.61794 0.62805 0.0
Co68 Co 0.40896 0.36335 0.90399 0.0
Co69 Co 0.34825 0.35136 0.8038 0.0
C70 C 0.27764 0.39349 0.88266 0.0
O71 O 0.32141 0.3815 0.90994 0.0
O72 O 0.2825 0.39204 0.8363 0.0
C73 C 0.42294 0.42617 0.99199 0.0
O74 O 0.38381 0.46026 0.97148 0.0
C75 C 0.28134 0.35384 0.71308 0.0
C76 C 0.34563 0.3395 0.65424 0.0
C77 C 0.28774 0.35411 0.66244 0.0
N78 N 0.33249 0.34091 0.73416 0.0
N79 N 0.37082 0.33134 0.69868 0.0
C80 C 0.22754 0.36794 0.74155 0.0
H81 H 0.22659 0.34138 0.77531 0.0
H82 H 0.22771 0.41497 0.75143 0.0
H83 H 0.18784 0.35826 0.72015 0.0
C84 C 0.49156 0.43281 0.84966 0.0
N85 N 0.44518 0.39753 0.85124 0.0
N86 N 0.41591 0.4009 0.81022 0.0
C87 C 0.43904 0.44501 0.78352 0.0
C88 C 0.4878 0.46734 0.80803 0.0
C89 C 0.53698 0.43554 0.88917 0.0
H90 H 0.51792 0.45292 0.92335 0.0
H91 H 0.57473 0.46298 0.87806 0.0
H92 H 0.55236 0.39061 0.89739 0.0
O93 O 0.41991 0.28157 0.89517 0.0
O94 O 0.34659 0.27296 0.8433 0.0
H95 H 0.42725 0.44868 0.70627 0.0
H96 H 0.41979 0.51815 0.73633 0.0
C97 C 0.41012 0.47076 0.73945 0.0
H98 H 0.36219 0.46356 0.74105 0.0
H99 H 0.41496 0.32245 0.70469 0.0
O100 O 0.44493 0.38465 0.9673 0.0
C101 C 0.37803 0.25216 0.87805 0.0
Co102 Co 0.63263 0.90897 0.15399 0.0
Co103 Co 0.64462 0.84825 0.0538 0.0
C104 C 0.60249 0.77764 0.13266 0.0
O105 O 0.61448 0.82141 0.15994 0.0
O106 O 0.60394 0.7825 0.0863 0.0
C107 C 0.56981 0.92294 0.24199 0.0
O108 O 0.53572 0.88381 0.22148 0.0
C109 C 0.64214 0.78134 0.96308 0.0
C110 C 0.65648 0.84563 0.90424 0.0
C111 C 0.64187 0.78774 0.91244 0.0
N112 N 0.65507 0.83249 0.98416 0.0
N113 N 0.66464 0.87082 0.94868 0.0
C114 C 0.62804 0.72754 0.99155 0.0
H115 H 0.65461 0.7266 0.02531 0.0
H116 H 0.58101 0.72771 1.00143 0.0
H117 H 0.63773 0.68784 0.97015 0.0
C118 C 0.56317 0.99156 0.09966 0.0
N119 N 0.59845 0.94518 0.10124 0.0
N120 N 0.59508 0.91591 0.06022 0.0
C121 C 0.55097 0.93904 0.03352 0.0
C122 C 0.52864 0.9878 0.05803 0.0
C123 C 0.56044 0.03698 0.13917 0.0
H124 H 0.54306 0.01792 0.17335 0.0
H125 H 0.533 0.07473 0.12806 0.0
H126 H 0.60537 0.05236 0.14739 0.0
O127 O 0.71441 0.91991 0.14517 0.0
O128 O 0.72302 0.84659 0.0933 0.0
H129 H 0.5473 0.92725 0.95627 0.0
H130 H 0.47783 0.91978 0.98633 0.0
C131 C 0.52522 0.91013 0.98945 0.0
H132 H 0.53242 0.86219 0.99104 0.0
H133 H 0.67353 0.91496 0.95469 0.0
O134 O 0.61133 0.94493 0.2173 0.0
C135 C 0.74382 0.87804 0.12805 0.0
Co136 Co 0.08701 0.36335 0.88334 0.0
Co137 Co 0.14773 0.35136 0.98354 0.0
C138 C 0.21832 0.39351 0.90467 0.0
O139 O 0.17456 0.38151 0.87739 0.0
O140 O 0.21348 0.39204 0.95104 0.0
C141 C 0.07303 0.42617 0.79534 0.0
O142 O 0.11216 0.46025 0.81585 0.0
C143 C 0.21464 0.35384 0.07426 0.0
C144 C 0.15035 0.3395 0.1331 0.0
C145 C 0.20824 0.3541 0.1249 0.0
N146 N 0.16349 0.34091 0.05317 0.0
N147 N 0.12516 0.33134 0.08865 0.0
C148 C 0.26844 0.36794 0.04579 0.0
H149 H 0.26938 0.34138 1.01202 0.0
H150 H 0.26827 0.41497 0.0359 0.0
H151 H 0.30814 0.35826 0.06718 0.0
C152 C 0.00442 0.43281 0.93767 0.0
N153 N 0.0508 0.39753 0.9361 0.0
N154 N 0.08007 0.4009 0.97711 0.0
C155 C 0.05694 0.44501 1.00381 0.0
C156 C 0.00817 0.46734 0.9793 0.0
C157 C 0.959 0.43555 0.89816 0.0
H158 H 0.97806 0.45292 0.86398 0.0
H159 H 0.92125 0.46298 0.90927 0.0
H160 H 0.94362 0.39062 0.88994 0.0
O161 O 0.07607 0.28157 0.89216 0.0
O162 O 0.14939 0.27296 0.94403 0.0
H163 H 0.06873 0.44867 0.08106 0.0
H164 H 0.0762 0.51815 0.05101 0.0
C165 C 0.08586 0.47076 0.04789 0.0
H166 H 0.13379 0.46356 0.04629 0.0
H167 H 0.08102 0.32245 0.08264 0.0
O168 O 0.05104 0.38465 0.82003 0.0
C169 C 0.11794 0.25216 0.90929 0.0
Co170 Co 0.63263 0.58701 0.13334 0.0
Co171 Co 0.64462 0.64773 0.23354 0.0
C172 C 0.60247 0.71833 0.15467 0.0
O173 O 0.61447 0.67456 0.12738 0.0
O174 O 0.60394 0.71348 0.20104 0.0
C175 C 0.56981 0.57303 0.04534 0.0
O176 O 0.53573 0.61216 0.06585 0.0
C177 C 0.64214 0.71464 0.32426 0.0
C178 C 0.65648 0.65035 0.3831 0.0
C179 C 0.64187 0.70824 0.37489 0.0
N180 N 0.65507 0.66349 0.30317 0.0
N181 N 0.66464 0.62517 0.33865 0.0
C182 C 0.62803 0.76844 0.29579 0.0
H183 H 0.6546 0.76939 0.26202 0.0
H184 H 0.58101 0.76827 0.2859 0.0
H185 H 0.63772 0.80815 0.31718 0.0
C186 C 0.56317 0.50442 0.18767 0.0
N187 N 0.59845 0.5508 0.1861 0.0
N188 N 0.59508 0.58007 0.22711 0.0
C189 C 0.55097 0.55694 0.25381 0.0
C190 C 0.52864 0.50818 0.2293 0.0
C191 C 0.56043 0.459 0.14816 0.0
H192 H 0.54306 0.47806 0.11399 0.0
H193 H 0.533 0.42125 0.15927 0.0
H194 H 0.60536 0.44362 0.13994 0.0
O195 O 0.71441 0.57607 0.14216 0.0
O196 O 0.72302 0.64939 0.19403 0.0
H197 H 0.54731 0.56873 0.33106 0.0
H198 H 0.47783 0.57619 0.30101 0.0
C199 C 0.52522 0.58586 0.29789 0.0
H200 H 0.53242 0.63379 0.29628 0.0
H201 H 0.67354 0.58102 0.33264 0.0
O202 O 0.61133 0.55104 0.07003 0.0
C203 C 0.74382 0.61795 0.15929 0.0
Co204 Co 0.40897 0.13263 0.38334 0.0
Co205 Co 0.34825 0.14462 0.48354 0.0
C206 C 0.27766 0.10247 0.40467 0.0
O207 O 0.32142 0.11447 0.37739 0.0
O208 O 0.2825 0.10394 0.45104 0.0
C209 C 0.42295 0.06981 0.29534 0.0
O210 O 0.38382 0.03573 0.31585 0.0
C211 C 0.28134 0.14214 0.57426 0.0
C212 C 0.34563 0.15648 0.6331 0.0
C213 C 0.28774 0.14188 0.6249 0.0
N214 N 0.33249 0.15507 0.55317 0.0
N215 N 0.37082 0.16464 0.58865 0.0
C216 C 0.22754 0.12804 0.54579 0.0
H217 H 0.2266 0.1546 0.51202 0.0
H218 H 0.22771 0.08101 0.5359 0.0
H219 H 0.18784 0.13772 0.56718 0.0
C220 C 0.49156 0.06317 0.43767 0.0
N221 N 0.44518 0.09845 0.4361 0.0
N222 N 0.41591 0.09508 0.47711 0.0
C223 C 0.43904 0.05097 0.50381 0.0
C224 C 0.48781 0.02864 0.4793 0.0
C225 C 0.53698 0.06044 0.39816 0.0
H226 H 0.51792 0.04306 0.36398 0.0
H227 H 0.57473 0.033 0.40927 0.0
H228 H 0.55236 0.10537 0.38994 0.0
O229 O 0.41991 0.21441 0.39216 0.0
O230 O 0.34659 0.22302 0.44403 0.0
H231 H 0.42725 0.04731 0.58106 0.0
H232 H 0.41978 0.97783 0.55101 0.0
C233 C 0.41012 0.02522 0.54789 0.0
H234 H 0.36219 0.03242 0.54629 0.0
H235 H 0.41496 0.17353 0.58264 0.0
O236 O 0.44494 0.11133 0.32003 0.0
C237 C 0.37804 0.24382 0.40929 0.0
Co238 Co 0.86335 0.90897 0.63334 0.0
Co239 Co 0.85136 0.84825 0.73354 0.0
C240 C 0.89351 0.77766 0.65467 0.0
O241 O 0.88151 0.82142 0.62738 0.0
O242 O 0.89204 0.7825 0.70104 0.0
C243 C 0.92617 0.92295 0.54534 0.0
O244 O 0.96025 0.88382 0.56585 0.0
C245 C 0.85384 0.78134 0.82426 0.0
C246 C 0.8395 0.84563 0.8831 0.0
C247 C 0.85411 0.78774 0.87489 0.0
N248 N 0.84091 0.83249 0.80317 0.0
N249 N 0.83134 0.87081 0.83865 0.0
C250 C 0.86795 0.72754 0.79579 0.0
H251 H 0.84138 0.72659 0.76202 0.0
H252 H 0.91497 0.72771 0.7859 0.0
H253 H 0.85826 0.68784 0.81718 0.0
C254 C 0.93281 0.99156 0.68767 0.0
N255 N 0.89753 0.94518 0.6861 0.0
N256 N 0.9009 0.91591 0.72711 0.0
C257 C 0.94501 0.93904 0.75381 0.0
C258 C 0.96734 0.98781 0.7293 0.0
C259 C 0.93555 0.03698 0.64816 0.0
H260 H 0.95292 0.01792 0.61399 0.0
H261 H 0.96298 0.07473 0.65927 0.0
H262 H 0.89062 0.05236 0.63994 0.0
O263 O 0.78157 0.91991 0.64216 0.0
O264 O 0.77296 0.84659 0.69403 0.0
H265 H 0.94867 0.92725 0.83106 0.0
H266 H 0.01815 0.91979 0.80101 0.0
C267 C 0.97076 0.91012 0.79789 0.0
H268 H 0.96356 0.86219 0.79628 0.0
H269 H 0.82244 0.91496 0.83264 0.0
O270 O 0.88465 0.94494 0.57003 0.0
C271 C 0.75216 0.87803 0.65929 0.0
Co272 Co 0.58703 0.63271 0.90399 0.0
Co273 Co 0.64776 0.64477 0.80378 0.0
C274 C 0.71834 0.60257 0.88267 0.0
O275 O 0.67457 0.61455 0.90995 0.0
O276 O 0.71348 0.60407 0.8363 0.0
C277 C 0.57302 0.56984 0.99196 0.0
O278 O 0.61216 0.53575 0.97147 0.0
C279 C 0.71469 0.64202 0.71308 0.0
C280 C 0.65052 0.65677 0.6542 0.0
C281 C 0.7083 0.64177 0.66244 0.0
N282 N 0.66359 0.65519 0.73415 0.0
N283 N 0.62534 0.665 0.69865 0.0
C284 C 0.76847 0.62783 0.74155 0.0
H285 H 0.76946 0.65441 0.77531 0.0
H286 H 0.76823 0.58081 0.75143 0.0
H287 H 0.80818 0.63748 0.72016 0.0
C288 C 0.50459 0.56307 0.84969 0.0
N289 N 0.55084 0.59854 0.85121 0.0
N290 N 0.58012 0.59522 0.81019 0.0
C291 C 0.55712 0.55102 0.78351 0.0
C292 C 0.50852 0.52851 0.80811 0.0
C293 C 0.45921 0.56019 0.88923 0.0
H294 H 0.47832 0.54271 0.92335 0.0
H295 H 0.42147 0.53277 0.87808 0.0
H296 H 0.44382 0.60509 0.89757 0.0
O297 O 0.57611 0.71452 0.89523 0.0
O298 O 0.6494 0.72315 0.84329 0.0
H299 H 0.56926 0.54767 0.70628 0.0
H300 H 0.57627 0.478 0.73612 0.0
C301 C 0.58611 0.52533 0.73944 0.0
H302 H 0.63407 0.53233 0.74121 0.0
H303 H 0.58125 0.67416 0.70464 0.0
O304 O 0.55105 0.61139 0.96729 0.0
C305 C 0.61795 0.74393 0.87804 0.0
Co306 Co 0.36327 0.08703 0.15399 0.0
Co307 Co 0.35121 0.14776 0.05378 0.0
C308 C 0.39341 0.21834 0.13266 0.0
O309 O 0.38143 0.17457 0.15995 0.0
O310 O 0.39191 0.21348 0.0863 0.0
C311 C 0.42614 0.07302 0.24196 0.0
O312 O 0.46023 0.11216 0.22147 0.0
C313 C 0.35396 0.21469 0.96308 0.0
C314 C 0.33921 0.15052 0.9042 0.0
C315 C 0.35421 0.2083 0.91244 0.0
N316 N 0.34079 0.16359 0.98415 0.0
N317 N 0.33098 0.12534 0.94865 0.0
C318 C 0.36814 0.26847 0.99155 0.0
H319 H 0.34157 0.26945 0.02531 0.0
H320 H 0.41517 0.26823 1.00143 0.0
H321 H 0.35849 0.30818 0.97016 0.0
C322 C 0.43291 0.00459 0.09969 0.0
N323 N 0.39744 0.05084 0.10121 0.0
N324 N 0.40076 0.08012 0.06019 0.0
C325 C 0.44496 0.05712 0.03351 0.0
C326 C 0.46747 0.00852 0.05811 0.0
C327 C 0.43579 0.95921 0.13923 0.0
H328 H 0.45327 0.97832 0.17335 0.0
H329 H 0.46321 0.92147 0.12808 0.0
H330 H 0.39089 0.94382 0.14757 0.0
O331 O 0.28146 0.07611 0.14522 0.0
O332 O 0.27284 0.1494 0.09329 0.0
H333 H 0.44831 0.06925 0.95628 0.0
H334 H 0.51798 0.07627 0.98613 0.0
C335 C 0.47065 0.08611 0.98944 0.0
H336 H 0.46365 0.13407 0.99121 0.0
H337 H 0.32183 0.08125 0.95464 0.0
O338 O 0.38459 0.05105 0.21729 0.0
C339 C 0.25205 0.11795 0.12804 0.0
Co340 Co 0.90895 0.86327 0.40399 0.0
Co341 Co 0.84822 0.85121 0.30378 0.0
C342 C 0.77764 0.89341 0.38267 0.0
O343 O 0.82141 0.88143 0.40995 0.0
O344 O 0.7825 0.89191 0.3363 0.0
C345 C 0.92296 0.92614 0.49196 0.0
O346 O 0.88382 0.96023 0.47147 0.0
C347 C 0.78129 0.85396 0.21308 0.0
C348 C 0.84546 0.83921 0.1542 0.0
C349 C 0.78768 0.85421 0.16244 0.0
N350 N 0.83239 0.84079 0.23415 0.0
N351 N 0.87064 0.83098 0.19865 0.0
C352 C 0.72751 0.86815 0.24155 0.0
H353 H 0.72653 0.84157 0.27531 0.0
H354 H 0.72775 0.91517 0.25143 0.0
H355 H 0.6878 0.8585 0.22016 0.0
C356 C 0.99139 0.93291 0.34969 0.0
N357 N 0.94514 0.89744 0.35121 0.0
N358 N 0.91586 0.90076 0.31019 0.0
C359 C 0.93886 0.94496 0.28351 0.0
C360 C 0.98746 0.96747 0.30811 0.0
C361 C 0.03677 0.93579 0.38923 0.0
H362 H 0.01766 0.95327 0.42335 0.0
H363 H 0.07451 0.96321 0.37808 0.0
H364 H 0.05216 0.89089 0.39757 0.0
O365 O 0.91987 0.78146 0.39523 0.0
O366 O 0.84658 0.77283 0.34329 0.0
H367 H 0.92672 0.94831 0.20628 0.0
H368 H 0.91971 0.01798 0.23612 0.0
C369 C 0.90987 0.97065 0.23944 0.0
H370 H 0.86191 0.96365 0.24121 0.0
H371 H 0.91473 0.82182 0.20464 0.0
O372 O 0.94493 0.88459 0.46729 0.0
C373 C 0.87803 0.75205 0.37804 0.0
Co374 Co 0.13271 0.40895 0.65399 0.0
Co375 Co 0.14477 0.34823 0.55378 0.0
C376 C 0.10257 0.27764 0.63266 0.0
O377 O 0.11455 0.32141 0.65995 0.0
O378 O 0.10407 0.2825 0.5863 0.0
C379 C 0.06984 0.42296 0.74196 0.0
O380 O 0.03575 0.38382 0.72147 0.0
C381 C 0.14202 0.2813 0.46308 0.0
C382 C 0.15677 0.34546 0.4042 0.0
C383 C 0.14177 0.28768 0.41244 0.0
N384 N 0.15519 0.33239 0.48415 0.0
N385 N 0.165 0.37064 0.44865 0.0
C386 C 0.12784 0.22751 0.49155 0.0
H387 H 0.15441 0.22653 0.52531 0.0
H388 H 0.08081 0.22775 0.50143 0.0
H389 H 0.13749 0.1878 0.47016 0.0
C390 C 0.06307 0.49139 0.59969 0.0
N391 N 0.09854 0.44514 0.60121 0.0
N392 N 0.09522 0.41586 0.56019 0.0
C393 C 0.05102 0.43886 0.53351 0.0
C394 C 0.02851 0.48746 0.55811 0.0
C395 C 0.06019 0.53677 0.63923 0.0
H396 H 0.04271 0.51766 0.67335 0.0
H397 H 0.03277 0.57451 0.62808 0.0
H398 H 0.10509 0.55216 0.64757 0.0
O399 O 0.21452 0.41987 0.64522 0.0
O400 O 0.22314 0.34658 0.59329 0.0
H401 H 0.04767 0.42673 0.45628 0.0
H402 H 0.978 0.41971 0.48613 0.0
C403 C 0.02533 0.40987 0.48944 0.0
H404 H 0.03233 0.36191 0.49121 0.0
H405 H 0.17416 0.41473 0.45464 0.0
O406 O 0.11139 0.44493 0.71729 0.0
C407 C 0.24393 0.37803 0.62804 0.0
Co408 Co 0.58702 0.86327 0.38334 0.0
Co409 Co 0.64776 0.85121 0.48356 0.0
C410 C 0.71832 0.89342 0.40467 0.0
O411 O 0.67456 0.88144 0.37738 0.0
O412 O 0.71348 0.89192 0.45103 0.0
C413 C 0.57301 0.92614 0.29537 0.0
O414 O 0.61215 0.96023 0.31586 0.0
C415 C 0.71469 0.85396 0.57426 0.0
C416 C 0.65052 0.8392 0.63313 0.0
C417 C 0.7083 0.85421 0.62489 0.0
N418 N 0.66359 0.84079 0.55319 0.0
N419 N 0.62534 0.83097 0.58869 0.0
C420 C 0.76847 0.86815 0.54579 0.0
H421 H 0.76945 0.84157 0.51203 0.0
H422 H 0.76823 0.91518 0.5359 0.0
H423 H 0.80818 0.8585 0.56718 0.0
C424 C 0.50459 0.93291 0.43764 0.0
N425 N 0.55083 0.89744 0.43612 0.0
N426 N 0.58011 0.90076 0.47714 0.0
C427 C 0.55712 0.94496 0.50383 0.0
C428 C 0.50852 0.96747 0.47923 0.0
C429 C 0.45921 0.93579 0.39811 0.0
H430 H 0.47832 0.95327 0.36399 0.0
H431 H 0.42147 0.96321 0.40925 0.0
H432 H 0.44382 0.89089 0.38977 0.0
O433 O 0.57611 0.78146 0.39211 0.0
O434 O 0.6494 0.77284 0.44404 0.0
H435 H 0.56926 0.94831 0.58105 0.0
H436 H 0.57627 0.01798 0.55121 0.0
C437 C 0.58612 0.97065 0.5479 0.0
H438 H 0.63407 0.96365 0.54612 0.0
H439 H 0.58125 0.82182 0.5827 0.0
O440 O 0.55104 0.88458 0.32005 0.0
C441 C 0.61795 0.75205 0.40929 0.0
Co442 Co 0.13272 0.08702 0.63334 0.0
Co443 Co 0.14477 0.14776 0.73355 0.0
C444 C 0.10256 0.21832 0.65467 0.0
O445 O 0.11454 0.17457 0.62738 0.0
O446 O 0.10407 0.21348 0.70103 0.0
C447 C 0.06985 0.07301 0.54537 0.0
O448 O 0.03575 0.11214 0.56586 0.0
C449 C 0.14202 0.21469 0.82426 0.0
C450 C 0.15678 0.15053 0.88313 0.0
C451 C 0.14177 0.2083 0.87489 0.0
N452 N 0.15519 0.16359 0.80319 0.0
N453 N 0.16501 0.12535 0.83869 0.0
C454 C 0.12783 0.26847 0.79579 0.0
H455 H 0.1544 0.26946 0.76203 0.0
H456 H 0.0808 0.26823 0.7859 0.0
H457 H 0.13748 0.30818 0.81718 0.0
C458 C 0.06307 0.00459 0.68764 0.0
N459 N 0.09854 0.05084 0.68612 0.0
N460 N 0.09522 0.08012 0.72714 0.0
C461 C 0.05102 0.05712 0.75383 0.0
C462 C 0.02851 0.00852 0.72923 0.0
C463 C 0.06019 0.95921 0.64811 0.0
H464 H 0.04271 0.97832 0.61399 0.0
H465 H 0.03277 0.92147 0.65925 0.0
H466 H 0.10509 0.94382 0.63977 0.0
O467 O 0.21452 0.07611 0.64211 0.0
O468 O 0.22314 0.1494 0.69404 0.0
H469 H 0.04767 0.06926 0.83105 0.0
H470 H 0.978 0.07627 0.80121 0.0
C471 C 0.02533 0.08612 0.7979 0.0
H472 H 0.03233 0.13407 0.79612 0.0
H473 H 0.17416 0.08125 0.83269 0.0
O474 O 0.1114 0.05104 0.57005 0.0
C475 C 0.24393 0.11796 0.65929 0.0
Co476 Co 0.90896 0.63272 0.88334 0.0
Co477 Co 0.84823 0.64477 0.98356 0.0
C478 C 0.77766 0.60256 0.90467 0.0
O479 O 0.82142 0.61454 0.87738 0.0
O480 O 0.78251 0.60407 0.95103 0.0
C481 C 0.92297 0.56985 0.79537 0.0
O482 O 0.88384 0.53575 0.81586 0.0
C483 C 0.7813 0.64202 0.07426 0.0
C484 C 0.84546 0.65678 0.13313 0.0
C485 C 0.78768 0.64177 0.12489 0.0
N486 N 0.83239 0.65519 0.05319 0.0
N487 N 0.87064 0.66501 0.08869 0.0
C488 C 0.72751 0.62783 0.04579 0.0
H489 H 0.72653 0.65441 1.01203 0.0
H490 H 0.72775 0.5808 0.0359 0.0
H491 H 0.6878 0.63748 0.06718 0.0
C492 C 0.99139 0.56307 0.93764 0.0
N493 N 0.94515 0.59854 0.93612 0.0
N494 N 0.91587 0.59522 0.97714 0.0
C495 C 0.93886 0.55102 1.00383 0.0
C496 C 0.98746 0.52851 0.97923 0.0
C497 C 0.03677 0.56019 0.89811 0.0
H498 H 0.01766 0.54271 0.86399 0.0
H499 H 0.07451 0.53277 0.90925 0.0
H500 H 0.05216 0.60509 0.88977 0.0
O501 O 0.91987 0.71452 0.89211 0.0
O502 O 0.84658 0.72314 0.94404 0.0
H503 H 0.92672 0.54767 0.08105 0.0
H504 H 0.91971 0.478 0.05121 0.0
C505 C 0.90986 0.52533 0.0479 0.0
H506 H 0.86191 0.53233 0.04612 0.0
H507 H 0.91473 0.67416 0.0827 0.0
O508 O 0.94494 0.6114 0.82005 0.0
C509 C 0.87803 0.74393 0.90929 0.0
Co510 Co 0.36327 0.40896 0.13334 0.0
Co511 Co 0.35121 0.34822 0.23355 0.0
C512 C 0.39342 0.27766 0.15467 0.0
O513 O 0.38144 0.32142 0.12738 0.0
O514 O 0.39191 0.2825 0.20103 0.0
C515 C 0.42614 0.42297 0.04537 0.0
O516 O 0.46023 0.38384 0.06586 0.0
C517 C 0.35396 0.28129 0.32426 0.0
C518 C 0.3392 0.34545 0.38313 0.0
C519 C 0.35421 0.28768 0.37489 0.0
N520 N 0.34079 0.33239 0.30319 0.0
N521 N 0.33097 0.37063 0.33869 0.0
C522 C 0.36815 0.22751 0.29579 0.0
H523 H 0.34158 0.22653 0.26203 0.0
H524 H 0.41518 0.22775 0.2859 0.0
H525 H 0.3585 0.1878 0.31718 0.0
C526 C 0.43291 0.49139 0.18764 0.0
N527 N 0.39744 0.44515 0.18612 0.0
N528 N 0.40076 0.41586 0.22714 0.0
C529 C 0.44496 0.43886 0.25383 0.0
C530 C 0.46747 0.48746 0.22923 0.0
C531 C 0.43579 0.53677 0.14811 0.0
H532 H 0.45327 0.51766 0.11399 0.0
H533 H 0.46321 0.57451 0.15925 0.0
H534 H 0.39089 0.55216 0.13977 0.0
O535 O 0.28146 0.41987 0.14211 0.0
O536 O 0.27284 0.34658 0.19404 0.0
H537 H 0.44831 0.42672 0.33105 0.0
H538 H 0.51798 0.41971 0.30121 0.0
C539 C 0.47065 0.40986 0.2979 0.0
H540 H 0.46365 0.36191 0.29612 0.0
H541 H 0.32182 0.41473 0.33269 0.0
O542 O 0.38458 0.44494 0.07005 0.0
C543 C 0.25205 0.37803 0.15929 0.0
loop_
_geom_bond_atom_site_label_1
_geom_bond_atom_site_label_2
_geom_bond_distance
_geom_bond_site_symmetry_2
_ccdc_geom_bond_type
Co0 O3 1.970 . S
Co0 N17 1.989 . S
Co0 O25 1.967 . S
Co0 O32 1.920 . S
Co1 O4 1.966 . S
Co1 N10 2.022 . S
Co1 N18 1.993 . S
Co1 O26 1.941 . S
C2 O3 1.258 . S
C2 O4 1.263 . S
O3 Co0 1.970 . S
O3 C2 1.258 . S
O4 Co1 1.966 . S
O4 C2 1.263 . S
C5 O6 1.235 . S
C5 O32 1.289 . S
O6 C5 1.235 . S
C7 C9 1.400 . S
C7 N10 1.351 . S
C7 C12 1.501 . S
C8 C9 1.387 . S
C8 N11 1.341 . S
C9 C7 1.400 . S
C9 C8 1.387 . S
N10 Co1 2.022 . S
N10 C7 1.351 . S
N10 N11 1.365 . S
N11 C8 1.341 . S
N11 N10 1.365 . S
N11 H31 0.862 . S
C12 C7 1.501 . S
C12 H13 0.961 . S
C12 H14 0.961 . S
C12 H15 0.960 . S
H13 C12 0.961 . S
H14 C12 0.961 . S
H15 C12 0.960 . S
C16 N17 1.342 . S
C16 C20 1.401 1_455 S
C16 C21 1.499 1_455 S
N17 Co0 1.989 . S
N17 C16 1.342 . S
N17 N18 1.388 . S
N18 Co1 1.993 . S
N18 N17 1.388 . S
N18 C19 1.346 . S
C19 N18 1.346 . S
C19 C20 1.396 1_455 S
C19 C29 1.510 . S
C20 C16 1.401 1_655 S
C20 C19 1.396 1_655 S
C21 C16 1.499 1_655 S
C21 H22 0.959 1_655 S
C21 H23 0.960 . S
C21 H24 0.961 . S
H22 C21 0.959 1_455 S
H23 C21 0.960 . S
H24 C21 0.961 . S
O25 Co0 1.967 . S
O25 C33 1.258 . S
O26 Co1 1.941 . S
O26 C33 1.266 . S
H27 C29 0.959 1_655 S
H28 C29 0.961 . S
C29 C19 1.510 . S
C29 H27 0.959 1_455 S
C29 H28 0.961 . S
C29 H30 0.960 . S
H30 C29 0.960 . S
H31 N11 0.862 . S
O32 Co0 1.920 . S
O32 C5 1.289 . S
C33 O25 1.258 . S
C33 O26 1.266 . S
Co34 O37 1.970 . S
Co34 N51 1.989 . S
Co34 O59 1.967 . S
Co34 O66 1.920 . S
Co35 O38 1.966 . S
Co35 N44 2.022 . S
Co35 N52 1.993 . S
Co35 O60 1.941 . S
C36 O37 1.258 . S
C36 O38 1.263 . S
O37 Co34 1.970 . S
O37 C36 1.258 . S
O38 Co35 1.966 . S
O38 C36 1.263 . S
C39 O40 1.235 . S
C39 O66 1.289 . S
O40 C39 1.235 . S
C41 C43 1.400 . S
C41 N44 1.351 . S
C41 C46 1.501 . S
C42 C43 1.387 . S
C42 N45 1.341 . S
C43 C41 1.400 . S
C43 C42 1.387 . S
N44 Co35 2.022 . S
N44 C41 1.351 . S
N44 N45 1.365 . S
N45 C42 1.341 . S
N45 N44 1.365 . S
N45 H65 0.862 . S
C46 C41 1.501 . S
C46 H47 0.961 . S
C46 H48 0.961 . S
C46 H49 0.960 . S
H47 C46 0.961 . S
H48 C46 0.961 . S
H49 C46 0.960 . S
C50 N51 1.342 . S
C50 C54 1.401 . S
C50 C55 1.499 . S
N51 Co34 1.989 . S
N51 C50 1.342 . S
N51 N52 1.388 . S
N52 Co35 1.993 . S
N52 N51 1.388 . S
N52 C53 1.346 . S
C53 N52 1.346 . S
C53 C54 1.396 . S
C53 C63 1.510 . S
C54 C50 1.401 . S
C54 C53 1.396 . S
C55 C50 1.499 . S
C55 H56 0.959 . S
C55 H57 0.960 . S
C55 H58 0.961 . S
H56 C55 0.959 . S
H57 C55 0.960 . S
H58 C55 0.961 . S
O59 Co34 1.967 . S
O59 C67 1.258 . S
O60 Co35 1.941 . S
O60 C67 1.266 . S
H61 C63 0.959 . S
H62 C63 0.961 . S
C63 C53 1.510 . S
C63 H61 0.959 . S
C63 H62 0.961 . S
C63 H64 0.960 . S
H64 C63 0.960 . S
H65 N45 0.862 . S
O66 Co34 1.920 . S
O66 C39 1.289 . S
C67 O59 1.258 . S
C67 O60 1.266 . S
Co68 O71 1.970 . S
Co68 N85 1.989 . S
Co68 O93 1.967 . S
Co68 O100 1.920 . S
Co69 O72 1.966 . S
Co69 N78 2.022 . S
Co69 N86 1.993 . S
Co69 O94 1.941 . S
C70 O71 1.258 . S
C70 O72 1.263 . S
O71 Co68 1.970 . S
O71 C70 1.258 . S
O72 Co69 1.966 . S
O72 C70 1.263 . S
C73 O74 1.235 . S
C73 O100 1.289 . S
O74 C73 1.235 . S
C75 C77 1.400 . S
C75 N78 1.351 . S
C75 C80 1.501 . S
C76 C77 1.387 . S
C76 N79 1.341 . S
C77 C75 1.400 . S
C77 C76 1.387 . S
N78 Co69 2.022 . S
N78 C75 1.351 . S
N78 N79 1.365 . S
N79 C76 1.341 . S
N79 N78 1.365 . S
N79 H99 0.862 . S
C80 C75 1.501 . S
C80 H81 0.961 . S
C80 H82 0.961 . S
C80 H83 0.960 . S
H81 C80 0.961 . S
H82 C80 0.961 . S
H83 C80 0.960 . S
C84 N85 1.342 . S
C84 C88 1.401 . S
C84 C89 1.499 . S
N85 Co68 1.989 . S
N85 C84 1.342 . S
N85 N86 1.388 . S
N86 Co69 1.993 . S
N86 N85 1.388 . S
N86 C87 1.346 . S
C87 N86 1.346 . S
C87 C88 1.396 . S
C87 C97 1.510 . S
C88 C84 1.401 . S
C88 C87 1.396 . S
C89 C84 1.499 . S
C89 H90 0.959 . S
C89 H91 0.960 . S
C89 H92 0.961 . S
H90 C89 0.959 . S
H91 C89 0.960 . S
H92 C89 0.961 . S
O93 Co68 1.967 . S
O93 C101 1.258 . S
O94 Co69 1.941 . S
O94 C101 1.266 . S
H95 C97 0.959 . S
H96 C97 0.961 . S
C97 C87 1.510 . S
C97 H95 0.959 . S
C97 H96 0.961 . S
C97 H98 0.960 . S
H98 C97 0.960 . S
H99 N79 0.862 . S
O100 Co68 1.920 . S
O100 C73 1.289 . S
C101 O93 1.258 . S
C101 O94 1.266 . S
Co102 O105 1.970 . S
Co102 N119 1.989 . S
Co102 O127 1.967 . S
Co102 O134 1.920 . S
Co103 O106 1.966 . S
Co103 N112 2.022 1_554 S
Co103 N120 1.993 . S
Co103 O128 1.941 . S
C104 O105 1.258 . S
C104 O106 1.263 . S
O105 Co102 1.970 . S
O105 C104 1.258 . S
O106 Co103 1.966 . S
O106 C104 1.263 . S
C107 O108 1.235 . S
C107 O134 1.289 . S
O108 C107 1.235 . S
C109 C111 1.400 . S
C109 N112 1.351 . S
C109 C114 1.501 . S
C110 C111 1.387 . S
C110 N113 1.341 . S
C111 C109 1.400 . S
C111 C110 1.387 . S
N112 Co103 2.022 1_556 S
N112 C109 1.351 . S
N112 N113 1.365 . S
N113 C110 1.341 . S
N113 N112 1.365 . S
N113 H133 0.862 . S
C114 C109 1.501 . S
C114 H115 0.961 . S
C114 H116 0.961 . S
C114 H117 0.960 . S
H115 C114 0.961 . S
H116 C114 0.961 . S
H117 C114 0.960 . S
C118 N119 1.342 . S
C118 C122 1.401 1_565 S
C118 C123 1.499 1_565 S
N119 Co102 1.989 . S
N119 C118 1.342 . S
N119 N120 1.388 . S
N120 Co103 1.993 . S
N120 N119 1.388 . S
N120 C121 1.346 . S
C121 N120 1.346 . S
C121 C122 1.396 1_565 S
C121 C131 1.510 1_554 S
C122 C118 1.401 1_545 S
C122 C121 1.396 1_545 S
C123 C118 1.499 1_545 S
C123 H124 0.959 1_545 S
C123 H125 0.960 . S
C123 H126 0.961 . S
H124 C123 0.959 1_565 S
H125 C123 0.960 . S
H126 C123 0.961 . S
O127 Co102 1.967 . S
O127 C135 1.258 . S
O128 Co103 1.941 . S
O128 C135 1.266 . S
H129 C131 0.959 1_545 S
H130 C131 0.961 . S
C131 C121 1.510 1_556 S
C131 H129 0.959 1_565 S
C131 H130 0.961 . S
C131 H132 0.960 . S
H132 C131 0.960 . S
H133 N113 0.862 . S
O134 Co102 1.920 . S
O134 C107 1.289 . S
C135 O127 1.258 . S
C135 O128 1.266 . S
Co136 O139 1.970 . S
Co136 N153 1.989 . S
Co136 O161 1.967 . S
Co136 O168 1.920 . S
Co137 O140 1.966 . S
Co137 N146 2.022 1_556 S
Co137 N154 1.993 . S
Co137 O162 1.941 . S
C138 O139 1.258 . S
C138 O140 1.263 . S
O139 Co136 1.970 . S
O139 C138 1.258 . S
O140 Co137 1.966 . S
O140 C138 1.263 . S
C141 O142 1.235 . S
C141 O168 1.289 . S
O142 C141 1.235 . S
C143 C145 1.400 . S
C143 N146 1.351 . S
C143 C148 1.501 . S
C144 C145 1.387 . S
C144 N147 1.341 . S
C145 C143 1.400 . S
C145 C144 1.387 . S
N146 Co137 2.022 1_554 S
N146 C143 1.351 . S
N146 N147 1.365 . S
N147 C144 1.341 . S
N147 N146 1.365 . S
N147 H167 0.862 . S
C148 C143 1.501 . S
C148 H149 0.961 . S
C148 H150 0.961 . S
C148 H151 0.960 . S
H149 C148 0.961 . S
H150 C148 0.961 . S
H151 C148 0.960 . S
C152 N153 1.342 . S
C152 C156 1.401 1_455 S
C152 C157 1.499 1_455 S
N153 Co136 1.989 . S
N153 C152 1.342 . S
N153 N154 1.388 . S
N154 Co137 1.993 . S
N154 N153 1.388 . S
N154 C155 1.346 . S
C155 N154 1.346 . S
C155 C156 1.396 1_455 S
C155 C165 1.510 1_556 S
C156 C152 1.401 1_655 S
C156 C155 1.396 1_655 S
C157 C152 1.499 1_655 S
C157 H158 0.959 1_655 S
C157 H159 0.960 . S
C157 H160 0.961 . S
H158 C157 0.959 1_455 S
H159 C157 0.960 . S
H160 C157 0.961 . S
O161 Co136 1.967 . S
O161 C169 1.258 . S
O162 Co137 1.941 . S
O162 C169 1.266 . S
H163 C165 0.959 1_655 S
H164 C165 0.961 . S
C165 C155 1.510 1_554 S
C165 H163 0.959 1_455 S
C165 H164 0.961 . S
C165 H166 0.960 . S
H166 C165 0.960 . S
H167 N147 0.862 . S
O168 Co136 1.920 . S
O168 C141 1.289 . S
C169 O161 1.258 . S
C169 O162 1.266 . S
Co170 O173 1.970 . S
Co170 N187 1.989 . S
Co170 O195 1.967 . S
Co170 O202 1.920 . S
Co171 O174 1.966 . S
Co171 N180 2.022 . S
Co171 N188 1.993 . S
Co171 O196 1.941 . S
C172 O173 1.258 . S
C172 O174 1.263 . S
O173 Co170 1.970 . S
O173 C172 1.258 . S
O174 Co171 1.966 . S
O174 C172 1.263 . S
C175 O176 1.235 . S
C175 O202 1.289 . S
O176 C175 1.235 . S
C177 C179 1.400 . S
C177 N180 1.351 . S
C177 C182 1.501 . S
C178 C179 1.387 . S
C178 N181 1.341 . S
C179 C177 1.400 . S
C179 C178 1.387 . S
N180 Co171 2.022 . S
N180 C177 1.351 . S
N180 N181 1.365 . S
N181 C178 1.341 . S
N181 N180 1.365 . S
N181 H201 0.862 . S
C182 C177 1.501 . S
C182 H183 0.961 . S
C182 H184 0.961 . S
C182 H185 0.960 . S
H183 C182 0.961 . S
H184 C182 0.961 . S
H185 C182 0.960 . S
C186 N187 1.342 . S
C186 C190 1.401 . S
C186 C191 1.499 . S
N187 Co170 1.989 . S
N187 C186 1.342 . S
N187 N188 1.388 . S
N188 Co171 1.993 . S
N188 N187 1.388 . S
N188 C189 1.346 . S
C189 N188 1.346 . S
C189 C190 1.396 . S
C189 C199 1.510 . S
C190 C186 1.401 . S
C190 C189 1.396 . S
C191 C186 1.499 . S
C191 H192 0.959 . S
C191 H193 0.960 . S
C191 H194 0.961 . S
H192 C191 0.959 . S
H193 C191 0.960 . S
H194 C191 0.961 . S
O195 Co170 1.967 . S
O195 C203 1.258 . S
O196 Co171 1.941 . S
O196 C203 1.266 . S
H197 C199 0.959 . S
H198 C199 0.961 . S
C199 C189 1.510 . S
C199 H197 0.959 . S
C199 H198 0.961 . S
C199 H200 0.960 . S
H200 C199 0.960 . S
H201 N181 0.862 . S
O202 Co170 1.920 . S
O202 C175 1.289 . S
C203 O195 1.258 . S
C203 O196 1.266 . S
Co204 O207 1.970 . S
Co204 N221 1.989 . S
Co204 O229 1.967 . S
Co204 O236 1.920 . S
Co205 O208 1.966 . S
Co205 N214 2.022 . S
Co205 N222 1.993 . S
Co205 O230 1.941 . S
C206 O207 1.258 . S
C206 O208 1.263 . S
O207 Co204 1.970 . S
O207 C206 1.258 . S
O208 Co205 1.966 . S
O208 C206 1.263 . S
C209 O210 1.235 . S
C209 O236 1.289 . S
O210 C209 1.235 . S
C211 C213 1.400 . S
C211 N214 1.351 . S
C211 C216 1.501 . S
C212 C213 1.387 . S
C212 N215 1.341 . S
C213 C211 1.400 . S
C213 C212 1.387 . S
N214 Co205 2.022 . S
N214 C211 1.351 . S
N214 N215 1.365 . S
N215 C212 1.341 . S
N215 N214 1.365 . S
N215 H235 0.862 . S
C216 C211 1.501 . S
C216 H217 0.961 . S
C216 H218 0.961 . S
C216 H219 0.960 . S
H217 C216 0.961 . S
H218 C216 0.961 . S
H219 C216 0.960 . S
C220 N221 1.342 . S
C220 C224 1.401 . S
C220 C225 1.499 . S
N221 Co204 1.989 . S
N221 C220 1.342 . S
N221 N222 1.388 . S
N222 Co205 1.993 . S
N222 N221 1.388 . S
N222 C223 1.346 . S
C223 N222 1.346 . S
C223 C224 1.396 . S
C223 C233 1.510 . S
C224 C220 1.401 . S
C224 C223 1.396 . S
C225 C220 1.499 . S
C225 H226 0.959 . S
C225 H227 0.960 . S
C225 H228 0.961 . S
H226 C225 0.959 . S
H227 C225 0.960 . S
H228 C225 0.961 . S
O229 Co204 1.967 . S
O229 C237 1.258 . S
O230 Co205 1.941 . S
O230 C237 1.266 . S
H231 C233 0.959 . S
H232 C233 0.961 . S
C233 C223 1.510 . S
C233 H231 0.959 . S
C233 H232 0.961 . S
C233 H234 0.960 . S
H234 C233 0.960 . S
H235 N215 0.862 . S
O236 Co204 1.920 . S
O236 C209 1.289 . S
C237 O229 1.258 . S
C237 O230 1.266 . S
Co238 O241 1.970 . S
Co238 N255 1.989 . S
Co238 O263 1.967 . S
Co238 O270 1.920 . S
Co239 O242 1.966 . S
Co239 N248 2.022 . S
Co239 N256 1.993 . S
Co239 O264 1.941 . S
C240 O241 1.258 . S
C240 O242 1.263 . S
O241 Co238 1.970 . S
O241 C240 1.258 . S
O242 Co239 1.966 . S
O242 C240 1.263 . S
C243 O244 1.235 . S
C243 O270 1.289 . S
O244 C243 1.235 . S
C245 C247 1.400 . S
C245 N248 1.351 . S
C245 C250 1.501 . S
C246 C247 1.387 . S
C246 N249 1.341 . S
C247 C245 1.400 . S
C247 C246 1.387 . S
N248 Co239 2.022 . S
N248 C245 1.351 . S
N248 N249 1.365 . S
N249 C246 1.341 . S
N249 N248 1.365 . S
N249 H269 0.862 . S
C250 C245 1.501 . S
C250 H251 0.961 . S
C250 H252 0.961 . S
C250 H253 0.960 . S
H251 C250 0.961 . S
H252 C250 0.961 . S
H253 C250 0.960 . S
C254 N255 1.342 . S
C254 C258 1.401 1_565 S
C254 C259 1.499 1_565 S
N255 Co238 1.989 . S
N255 C254 1.342 . S
N255 N256 1.388 . S
N256 Co239 1.993 . S
N256 N255 1.388 . S
N256 C257 1.346 . S
C257 N256 1.346 . S
C257 C258 1.396 1_565 S
C257 C267 1.510 . S
C258 C254 1.401 1_545 S
C258 C257 1.396 1_545 S
C259 C254 1.499 1_545 S
C259 H260 0.959 1_545 S
C259 H261 0.960 . S
C259 H262 0.961 . S
H260 C259 0.959 1_565 S
H261 C259 0.960 . S
H262 C259 0.961 . S
O263 Co238 1.967 . S
O263 C271 1.258 . S
O264 Co239 1.941 . S
O264 C271 1.266 . S
H265 C267 0.959 1_545 S
H266 C267 0.961 . S
C267 C257 1.510 . S
C267 H265 0.959 1_565 S
C267 H266 0.961 . S
C267 H268 0.960 . S
H268 C267 0.960 . S
H269 N249 0.862 . S
O270 Co238 1.920 . S
O270 C243 1.289 . S
C271 O263 1.258 . S
C271 O264 1.266 . S
Co272 O275 1.970 . S
Co272 N289 1.989 . S
Co272 O297 1.967 . S
Co272 O304 1.920 . S
Co273 O276 1.966 . S
Co273 N282 2.022 . S
Co273 N290 1.993 . S
Co273 O298 1.941 . S
C274 O275 1.258 . S
C274 O276 1.263 . S
O275 Co272 1.970 . S
O275 C274 1.258 . S
O276 Co273 1.966 . S
O276 C274 1.263 . S
C277 O278 1.235 . S
C277 O304 1.289 . S
O278 C277 1.235 . S
C279 C281 1.400 . S
C279 N282 1.351 . S
C279 C284 1.501 . S
C280 C281 1.387 . S
C280 N283 1.341 . S
C281 C279 1.400 . S
C281 C280 1.387 . S
N282 Co273 2.022 . S
N282 C279 1.351 . S
N282 N283 1.365 . S
N283 C280 1.341 . S
N283 N282 1.365 . S
N283 H303 0.862 . S
C284 C279 1.501 . S
C284 H285 0.961 . S
C284 H286 0.961 . S
C284 H287 0.960 . S
H285 C284 0.961 . S
H286 C284 0.961 . S
H287 C284 0.960 . S
C288 N289 1.342 . S
C288 C292 1.401 . S
C288 C293 1.499 . S
N289 Co272 1.989 . S
N289 C288 1.342 . S
N289 N290 1.388 . S
N290 Co273 1.993 . S
N290 N289 1.388 . S
N290 C291 1.346 . S
C291 N290 1.346 . S
C291 C292 1.396 . S
C291 C301 1.510 . S
C292 C288 1.401 . S
C292 C291 1.396 . S
C293 C288 1.499 . S
C293 H294 0.959 . S
C293 H295 0.960 . S
C293 H296 0.961 . S
H294 C293 0.959 . S
H295 C293 0.960 . S
H296 C293 0.961 . S
O297 Co272 1.967 . S
O297 C305 1.258 . S
O298 Co273 1.941 . S
O298 C305 1.266 . S
H299 C301 0.959 . S
H300 C301 0.961 . S
C301 C291 1.510 . S
C301 H299 0.959 . S
C301 H300 0.961 . S
C301 H302 0.960 . S
H302 C301 0.960 . S
H303 N283 0.862 . S
O304 Co272 1.920 . S
O304 C277 1.289 . S
C305 O297 1.258 . S
C305 O298 1.266 . S
Co306 O309 1.970 . S
Co306 N323 1.989 . S
Co306 O331 1.967 . S
Co306 O338 1.920 . S
Co307 O310 1.966 . S
Co307 N316 2.022 1_554 S
Co307 N324 1.993 . S
Co307 O332 1.941 . S
C308 O309 1.258 . S
C308 O310 1.263 . S
O309 Co306 1.970 . S
O309 C308 1.258 . S
O310 Co307 1.966 . S
O310 C308 1.263 . S
C311 O312 1.235 . S
C311 O338 1.289 . S
O312 C311 1.235 . S
C313 C315 1.400 . S
C313 N316 1.351 . S
C313 C318 1.501 . S
C314 C315 1.387 . S
C314 N317 1.341 . S
C315 C313 1.400 . S
C315 C314 1.387 . S
N316 Co307 2.022 1_556 S
N316 C313 1.351 . S
N316 N317 1.365 . S
N317 C314 1.341 . S
N317 N316 1.365 . S
N317 H337 0.862 . S
C318 C313 1.501 . S
C318 H319 0.961 . S
C318 H320 0.961 . S
C318 H321 0.960 . S
H319 C318 0.961 . S
H320 C318 0.961 . S
H321 C318 0.960 . S
C322 N323 1.342 . S
C322 C326 1.401 1_545 S
C322 C327 1.499 1_545 S
N323 Co306 1.989 . S
N323 C322 1.342 . S
N323 N324 1.388 . S
N324 Co307 1.993 . S
N324 N323 1.388 . S
N324 C325 1.346 . S
C325 N324 1.346 . S
C325 C326 1.396 1_545 S
C325 C335 1.510 1_554 S
C326 C322 1.401 1_565 S
C326 C325 1.396 1_565 S
C327 C322 1.499 1_565 S
C327 H328 0.959 1_565 S
C327 H329 0.960 . S
C327 H330 0.961 . S
H328 C327 0.959 1_545 S
H329 C327 0.960 . S
H330 C327 0.961 . S
O331 Co306 1.967 . S
O331 C339 1.258 . S
O332 Co307 1.941 . S
O332 C339 1.266 . S
H333 C335 0.959 1_565 S
H334 C335 0.961 . S
C335 C325 1.510 1_556 S
C335 H333 0.959 1_545 S
C335 H334 0.961 . S
C335 H336 0.960 . S
H336 C335 0.960 . S
H337 N317 0.862 . S
O338 Co306 1.920 . S
O338 C311 1.289 . S
C339 O331 1.258 . S
C339 O332 1.266 . S
Co340 O343 1.970 . S
Co340 N357 1.989 . S
Co340 O365 1.967 . S
Co340 O372 1.920 . S
Co341 O344 1.966 . S
Co341 N350 2.022 . S
Co341 N358 1.993 . S
Co341 O366 1.941 . S
C342 O343 1.258 . S
C342 O344 1.263 . S
O343 Co340 1.970 . S
O343 C342 1.258 . S
O344 Co341 1.966 . S
O344 C342 1.263 . S
C345 O346 1.235 . S
C345 O372 1.289 . S
O346 C345 1.235 . S
C347 C349 1.400 . S
C347 N350 1.351 . S
C347 C352 1.501 . S
C348 C349 1.387 . S
C348 N351 1.341 . S
C349 C347 1.400 . S
C349 C348 1.387 . S
N350 Co341 2.022 . S
N350 C347 1.351 . S
N350 N351 1.365 . S
N351 C348 1.341 . S
N351 N350 1.365 . S
N351 H371 0.862 . S
C352 C347 1.501 . S
C352 H353 0.961 . S
C352 H354 0.961 . S
C352 H355 0.960 . S
H353 C352 0.961 . S
H354 C352 0.961 . S
H355 C352 0.960 . S
C356 N357 1.342 . S
C356 C360 1.401 1_655 S
C356 C361 1.499 1_655 S
N357 Co340 1.989 . S
N357 C356 1.342 . S
N357 N358 1.388 . S
N358 Co341 1.993 . S
N358 N357 1.388 . S
N358 C359 1.346 . S
C359 N358 1.346 . S
C359 C360 1.396 1_655 S
C359 C369 1.510 . S
C360 C356 1.401 1_455 S
C360 C359 1.396 1_455 S
C361 C356 1.499 1_455 S
C361 H362 0.959 1_455 S
C361 H363 0.960 . S
C361 H364 0.961 . S
H362 C361 0.959 1_655 S
H363 C361 0.960 . S
H364 C361 0.961 . S
O365 Co340 1.967 . S
O365 C373 1.258 . S
O366 Co341 1.941 . S
O366 C373 1.266 . S
H367 C369 0.959 1_455 S
H368 C369 0.961 . S
C369 C359 1.510 . S
C369 H367 0.959 1_655 S
C369 H368 0.961 . S
C369 H370 0.960 . S
H370 C369 0.960 . S
H371 N351 0.862 . S
O372 Co340 1.920 . S
O372 C345 1.289 . S
C373 O365 1.258 . S
C373 O366 1.266 . S
Co374 O377 1.970 . S
Co374 N391 1.989 . S
Co374 O399 1.967 . S
Co374 O406 1.920 . S
Co375 O378 1.966 . S
Co375 N384 2.022 . S
Co375 N392 1.993 . S
Co375 O400 1.941 . S
C376 O377 1.258 . S
C376 O378 1.263 . S
O377 Co374 1.970 . S
O377 C376 1.258 . S
O378 Co375 1.966 . S
O378 C376 1.263 . S
C379 O380 1.235 . S
C379 O406 1.289 . S
O380 C379 1.235 . S
C381 C383 1.400 . S
C381 N384 1.351 . S
C381 C386 1.501 . S
C382 C383 1.387 . S
C382 N385 1.341 . S
C383 C381 1.400 . S
C383 C382 1.387 . S
N384 Co375 2.022 . S
N384 C381 1.351 . S
N384 N385 1.365 . S
N385 C382 1.341 . S
N385 N384 1.365 . S
N385 H405 0.862 . S
C386 C381 1.501 . S
C386 H387 0.961 . S
C386 H388 0.961 . S
C386 H389 0.960 . S
H387 C386 0.961 . S
H388 C386 0.961 . S
H389 C386 0.960 . S
C390 N391 1.342 . S
C390 C394 1.401 . S
C390 C395 1.499 . S
N391 Co374 1.989 . S
N391 C390 1.342 . S
N391 N392 1.388 . S
N392 Co375 1.993 . S
N392 N391 1.388 . S
N392 C393 1.346 . S
C393 N392 1.346 . S
C393 C394 1.396 . S
C393 C403 1.510 . S
C394 C390 1.401 . S
C394 C393 1.396 . S
C395 C390 1.499 . S
C395 H396 0.959 . S
C395 H397 0.960 . S
C395 H398 0.961 . S
H396 C395 0.959 . S
H397 C395 0.960 . S
H398 C395 0.961 . S
O399 Co374 1.967 . S
O399 C407 1.258 . S
O400 Co375 1.941 . S
O400 C407 1.266 . S
H401 C403 0.959 . S
H402 C403 0.961 . S
C403 C393 1.510 . S
C403 H401 0.959 . S
C403 H402 0.961 . S
C403 H404 0.960 . S
H404 C403 0.960 . S
H405 N385 0.862 . S
O406 Co374 1.920 . S
O406 C379 1.289 . S
C407 O399 1.258 . S
C407 O400 1.266 . S
Co408 O411 1.970 . S
Co408 N425 1.989 . S
Co408 O433 1.967 . S
Co408 O440 1.920 . S
Co409 O412 1.966 . S
Co409 N418 2.022 . S
Co409 N426 1.993 . S
Co409 O434 1.941 . S
C410 O411 1.258 . S
C410 O412 1.263 . S
O411 Co408 1.970 . S
O411 C410 1.258 . S
O412 Co409 1.966 . S
O412 C410 1.263 . S
C413 O414 1.235 . S
C413 O440 1.289 . S
O414 C413 1.235 . S
C415 C417 1.400 . S
C415 N418 1.351 . S
C415 C420 1.501 . S
C416 C417 1.387 . S
C416 N419 1.341 . S
C417 C415 1.400 . S
C417 C416 1.387 . S
N418 Co409 2.022 . S
N418 C415 1.351 . S
N418 N419 1.365 . S
N419 C416 1.341 . S
N419 N418 1.365 . S
N419 H439 0.862 . S
C420 C415 1.501 . S
C420 H421 0.961 . S
C420 H422 0.961 . S
C420 H423 0.960 . S
H421 C420 0.961 . S
H422 C420 0.961 . S
H423 C420 0.960 . S
C424 N425 1.342 . S
C424 C428 1.401 . S
C424 C429 1.499 . S
N425 Co408 1.989 . S
N425 C424 1.342 . S
N425 N426 1.388 . S
N426 Co409 1.993 . S
N426 N425 1.388 . S
N426 C427 1.346 . S
C427 N426 1.346 . S
C427 C428 1.396 . S
C427 C437 1.510 . S
C428 C424 1.401 . S
C428 C427 1.396 . S
C429 C424 1.499 . S
C429 H430 0.959 . S
C429 H431 0.960 . S
C429 H432 0.961 . S
H430 C429 0.959 . S
H431 C429 0.960 . S
H432 C429 0.961 . S
O433 Co408 1.967 . S
O433 C441 1.258 . S
O434 Co409 1.941 . S
O434 C441 1.266 . S
H435 C437 0.959 . S
H436 C437 0.961 . S
C437 C427 1.510 . S
C437 H435 0.959 . S
C437 H436 0.961 . S
C437 H438 0.960 . S
H438 C437 0.960 . S
H439 N419 0.862 . S
O440 Co408 1.920 . S
O440 C413 1.289 . S
C441 O433 1.258 . S
C441 O434 1.266 . S
Co442 O445 1.970 . S
Co442 N459 1.989 . S
Co442 O467 1.967 . S
Co442 O474 1.920 . S
Co443 O446 1.966 . S
Co443 N452 2.022 . S
Co443 N460 1.993 . S
Co443 O468 1.941 . S
C444 O445 1.258 . S
C444 O446 1.263 . S
O445 Co442 1.970 . S
O445 C444 1.258 . S
O446 Co443 1.966 . S
O446 C444 1.263 . S
C447 O448 1.235 . S
C447 O474 1.289 . S
O448 C447 1.235 . S
C449 C451 1.400 . S
C449 N452 1.351 . S
C449 C454 1.501 . S
C450 C451 1.387 . S
C450 N453 1.341 . S
C451 C449 1.400 . S
C451 C450 1.387 . S
N452 Co443 2.022 . S
N452 C449 1.351 . S
N452 N453 1.365 . S
N453 C450 1.341 . S
N453 N452 1.365 . S
N453 H473 0.862 . S
C454 C449 1.501 . S
C454 H455 0.961 . S
C454 H456 0.961 . S
C454 H457 0.960 . S
H455 C454 0.961 . S
H456 C454 0.961 . S
H457 C454 0.960 . S
C458 N459 1.342 . S
C458 C462 1.401 1_545 S
C458 C463 1.499 1_545 S
N459 Co442 1.989 . S
N459 C458 1.342 . S
N459 N460 1.388 . S
N460 Co443 1.993 . S
N460 N459 1.388 . S
N460 C461 1.346 . S
C461 N460 1.346 . S
C461 C462 1.396 1_545 S
C461 C471 1.510 . S
C462 C458 1.401 1_565 S
C462 C461 1.396 1_565 S
C463 C458 1.499 1_565 S
C463 H464 0.959 1_565 S
C463 H465 0.960 . S
C463 H466 0.961 . S
H464 C463 0.959 1_545 S
H465 C463 0.960 . S
H466 C463 0.961 . S
O467 Co442 1.967 . S
O467 C475 1.258 . S
O468 Co443 1.941 . S
O468 C475 1.266 . S
H469 C471 0.959 1_565 S
H470 C471 0.961 . S
C471 C461 1.510 . S
C471 H469 0.959 1_545 S
C471 H470 0.961 . S
C471 H472 0.960 . S
H472 C471 0.960 . S
H473 N453 0.862 . S
O474 Co442 1.920 . S
O474 C447 1.289 . S
C475 O467 1.258 . S
C475 O468 1.266 . S
Co476 O479 1.970 . S
Co476 N493 1.989 . S
Co476 O501 1.967 . S
Co476 O508 1.920 . S
Co477 O480 1.966 . S
Co477 N486 2.022 1_556 S
Co477 N494 1.993 . S
Co477 O502 1.941 . S
C478 O479 1.258 . S
C478 O480 1.263 . S
O479 Co476 1.970 . S
O479 C478 1.258 . S
O480 Co477 1.966 . S
O480 C478 1.263 . S
C481 O482 1.235 . S
C481 O508 1.289 . S
O482 C481 1.235 . S
C483 C485 1.400 . S
C483 N486 1.351 . S
C483 C488 1.501 . S
C484 C485 1.387 . S
C484 N487 1.341 . S
C485 C483 1.400 . S
C485 C484 1.387 . S
N486 Co477 2.022 1_554 S
N486 C483 1.351 . S
N486 N487 1.365 . S
N487 C484 1.341 . S
N487 N486 1.365 . S
N487 H507 0.862 . S
C488 C483 1.501 . S
C488 H489 0.961 . S
C488 H490 0.961 . S
C488 H491 0.960 . S
H489 C488 0.961 . S
H490 C488 0.961 . S
H491 C488 0.960 . S
C492 N493 1.342 . S
C492 C496 1.401 1_655 S
C492 C497 1.499 1_655 S
N493 Co476 1.989 . S
N493 C492 1.342 . S
N493 N494 1.388 . S
N494 Co477 1.993 . S
N494 N493 1.388 . S
N494 C495 1.346 . S
C495 N494 1.346 . S
C495 C496 1.396 1_655 S
C495 C505 1.510 1_556 S
C496 C492 1.401 1_455 S
C496 C495 1.396 1_455 S
C497 C492 1.499 1_455 S
C497 H498 0.959 1_455 S
C497 H499 0.960 . S
C497 H500 0.961 . S
H498 C497 0.959 1_655 S
H499 C497 0.960 . S
H500 C497 0.961 . S
O501 Co476 1.967 . S
O501 C509 1.258 . S
O502 Co477 1.941 . S
O502 C509 1.266 . S
H503 C505 0.959 1_455 S
H504 C505 0.961 . S
C505 C495 1.510 1_554 S
C505 H503 0.959 1_655 S
C505 H504 0.961 . S
C505 H506 0.960 . S
H506 C505 0.960 . S
H507 N487 0.862 . S
O508 Co476 1.920 . S
O508 C481 1.289 . S
C509 O501 1.258 . S
C509 O502 1.266 . S
Co510 O513 1.970 . S
Co510 N527 1.989 . S
Co510 O535 1.967 . S
Co510 O542 1.920 . S
Co511 O514 1.966 . S
Co511 N520 2.022 . S
Co511 N528 1.993 . S
Co511 O536 1.941 . S
C512 O513 1.258 . S
C512 O514 1.263 . S
O513 Co510 1.970 . S
O513 C512 1.258 . S
O514 Co511 1.966 . S
O514 C512 1.263 . S
C515 O516 1.235 . S
C515 O542 1.289 . S
O516 C515 1.235 . S
C517 C519 1.400 . S
C517 N520 1.351 . S
C517 C522 1.501 . S
C518 C519 1.387 . S
C518 N521 1.341 . S
C519 C517 1.400 . S
C519 C518 1.387 . S
N520 Co511 2.022 . S
N520 C517 1.351 . S
N520 N521 1.365 . S
N521 C518 1.341 . S
N521 N520 1.365 . S
N521 H541 0.862 . S
C522 C517 1.501 . S
C522 H523 0.961 . S
C522 H524 0.961 . S
C522 H525 0.960 . S
H523 C522 0.961 . S
H524 C522 0.961 . S
H525 C522 0.960 . S
C526 N527 1.342 . S
C526 C530 1.401 . S
C526 C531 1.499 . S
N527 Co510 1.989 . S
N527 C526 1.342 . S
N527 N528 1.388 . S
N528 Co511 1.993 . S
N528 N527 1.388 . S
N528 C529 1.346 . S
C529 N528 1.346 . S
C529 C530 1.396 . S
C529 C539 1.510 . S
C530 C526 1.401 . S
C530 C529 1.396 . S
C531 C526 1.499 . S
C531 H532 0.959 . S
C531 H533 0.960 . S
C531 H534 0.961 . S
H532 C531 0.959 . S
H533 C531 0.960 . S
H534 C531 0.961 . S
O535 Co510 1.967 . S
O535 C543 1.258 . S
O536 Co511 1.941 . S
O536 C543 1.266 . S
H537 C539 0.959 . S
H538 C539 0.961 . S
C539 C529 1.510 . S
C539 H537 0.959 . S
C539 H538 0.961 . S
C539 H540 0.960 . S
H540 C539 0.960 . S
H541 N521 0.862 . S
O542 Co510 1.920 . S
O542 C515 1.289 . S
C543 O535 1.258 . S
C543 O536 1.266 . S
C5 C447 1.073 . S
C481 C39 1.073 . S
C515 C73 1.073 1_554 S
C413 C107 1.073 . S
C379 C141 1.073 . S
C277 C175 1.073 1_556 S
C209 C311 1.073 . S
C345 C243 1.073 . S
C339 C9 2.890 . S
C43 C373 2.890 . S
C77 C407 2.890 . S
C111 C305 2.890 . S
C145 C543 2.890 . S
C441 C179 2.890 . S
C475 C213 2.890 . S
C509 C247 2.890 . S
C281 C67 2.890 . S
C315 C101 2.890 . S
C349 C135 2.890 . S
C33 C383 2.890 . S
C417 C271 2.890 . S
C169 C451 2.890 . S
C485 C203 2.890 . S
C519 C237 2.890 . S
C20 C360 2.366 1_645 S
C394 C54 2.366 1_455 S
C88 C292 2.366 . S
C326 C122 2.366 1_565 S
C156 C496 2.366 1_655 S
C530 C190 2.366 . S
C428 C224 2.366 1_565 S
C462 C258 2.366 1_465 S
C206 C2 1.605 . S
C36 C240 1.605 . S
C138 C70 1.605 . S
C104 C172 1.605 . S
C274 C478 1.605 . S
C308 C512 1.605 . S
C342 C410 1.605 . S
C444 C376 1.605 . S
