# Generated by pormake.
# Topology sow, (4)-cn, num edge types: 1
# Building blocks:
#     Node 0, Type 0, BuildingBlock: CEKHIL_clean_sbu_0, # of connection points: 4
#     Node 1, Type 0, BuildingBlock: CEKHIL_clean_sbu_0, # of connection points: 4
#     Node 2, Type 0, BuildingBlock: CEKHIL_clean_sbu_0, # of connection points: 4
#     Node 3, Type 0, BuildingBlock: CEKHIL_clean_sbu_0, # of connection points: 4
#     Node 4, Type 0, BuildingBlock: CEKHIL_clean_sbu_0, # of connection points: 4
#     Node 5, Type 0, BuildingBlock: CEKHIL_clean_sbu_0, # of connection points: 4
#     Node 6, Type 0, BuildingBlock: CEKHIL_clean_sbu_0, # of connection points: 4
#     Node 7, Type 0, BuildingBlock: CEKHIL_clean_sbu_0, # of connection points: 4
#     Edge 8, Type (0, 0), BuildingBlock: ZUJKAS_clean_linker_0, # of connection points: 2
#     Edge 9, Type (0, 0), BuildingBlock: ZUJKAS_clean_linker_0, # of connection points: 2
#     Edge 10, Type (0, 0), BuildingBlock: ZUJKAS_clean_linker_0, # of connection points: 2
#     Edge 11, Type (0, 0), BuildingBlock: ZUJKAS_clean_linker_0, # of connection points: 2
#     Edge 12, Type (0, 0), BuildingBlock: ZUJKAS_clean_linker_0, # of connection points: 2
#     Edge 13, Type (0, 0), BuildingBlock: ZUJKAS_clean_linker_0, # of connection points: 2
#     Edge 14, Type (0, 0), BuildingBlock: ZUJKAS_clean_linker_0, # of connection points: 2
#     Edge 15, Type (0, 0), BuildingBlock: ZUJKAS_clean_linker_0, # of connection points: 2
#     Edge 16, Type (0, 0), BuildingBlock: ZUJKAS_clean_linker_0, # of connection points: 2
#     Edge 17, Type (0, 0), BuildingBlock: ZUJKAS_clean_linker_0, # of connection points: 2
#     Edge 18, Type (0, 0), BuildingBlock: ZUJKAS_clean_linker_0, # of connection points: 2
#     Edge 19, Type (0, 0), BuildingBlock: ZUJKAS_clean_linker_0, # of connection points: 2
#     Edge 20, Type (0, 0), BuildingBlock: ZUJKAS_clean_linker_0, # of connection points: 2
#     Edge 21, Type (0, 0), BuildingBlock: ZUJKAS_clean_linker_0, # of connection points: 2
#     Edge 22, Type (0, 0), BuildingBlock: ZUJKAS_clean_linker_0, # of connection points: 2
#     Edge 23, Type (0, 0), BuildingBlock: ZUJKAS_clean_linker_0, # of connection points: 2
# Relax obj value: 0.164
# Max RMSD: 0.205
# Mean RMSD: 0.205
data_MOF--net-sow--node1-CEKHIL_clean_sbu_0--edge1-ZUJKAS_clean_linker_0
_symmetry_space_group_name_H-M    P1
_symmetry_Int_Tables_number       1
_symmetry_cell_setting            triclinic
loop_
_symmetry_equiv_pos_as_xyz
'x, y, z'
_cell_length_a     50.375923
_cell_length_b     29.075234
_cell_length_c     30.411874
_cell_angle_alpha  89.99486
_cell_angle_beta   89.943725
_cell_angle_gamma 90.037309
loop_
_atom_site_label
_atom_site_type_symbol
_atom_site_fract_x
_atom_site_fract_y
_atom_site_fract_z
_atom_type_partial_charge
Co0 Co 0.13331 0.20623 0.05903 0.0
O1 O 0.16271 0.18767 0.02293 0.0
O2 O 0.14949 0.25965 0.03262 0.0
C3 C 0.10516 0.15269 0.0328 0.0
O4 O 0.10332 0.2389 0.09158 0.0
Co5 Co 0.1065 0.14054 0.1265 0.0
O6 O 0.07693 0.18515 0.12161 0.0
C7 C 0.15715 0.18741 0.14882 0.0
C8 C 0.16528 0.23085 0.01293 0.0
C9 C 0.08144 0.2265 0.10994 0.0
O10 O 0.15708 0.21004 0.11237 0.0
O11 O 0.13962 0.15732 0.15911 0.0
O12 O 0.10881 0.19083 0.01138 0.0
O13 O 0.11965 0.1471 0.06729 0.0
Co14 Co 0.3584 0.29222 0.5634 0.0
O15 O 0.33347 0.31012 0.51914 0.0
O16 O 0.34331 0.23796 0.53624 0.0
C17 C 0.39075 0.34106 0.54248 0.0
O18 O 0.3838 0.26117 0.60628 0.0
Co19 Co 0.37682 0.36514 0.63234 0.0
O20 O 0.40114 0.31525 0.6509 0.0
C21 C 0.32333 0.32468 0.63833 0.0
C22 C 0.33012 0.26661 0.51168 0.0
C23 C 0.39954 0.2738 0.63737 0.0
O24 O 0.32949 0.29395 0.60954 0.0
O25 O 0.33838 0.35877 0.64783 0.0
O26 O 0.38792 0.30189 0.52249 0.0
O27 O 0.37268 0.35083 0.57097 0.0
Co28 Co 0.63137 0.29354 0.9332 0.0
O29 O 0.65802 0.31757 0.97192 0.0
O30 O 0.65038 0.24346 0.96064 0.0
C31 C 0.59897 0.34049 0.95728 0.0
O32 O 0.60485 0.25578 0.89759 0.0
Co33 Co 0.60328 0.35571 0.86404 0.0
O34 O 0.57671 0.30532 0.86528 0.0
C35 C 0.65809 0.32229 0.84812 0.0
C36 C 0.66341 0.27518 0.98176 0.0
C37 C 0.5831 0.26481 0.87724 0.0
O38 O 0.65693 0.29577 0.88207 0.0
O39 O 0.63965 0.35063 0.83779 0.0
O40 O 0.60437 0.30299 0.97872 0.0
O41 O 0.61423 0.34951 0.9244 0.0
Co42 Co 0.85745 0.20697 0.43472 0.0
O43 O 0.83252 0.18943 0.47911 0.0
O44 O 0.84359 0.26147 0.46328 0.0
C45 C 0.88828 0.15498 0.45451 0.0
O46 O 0.8837 0.23758 0.39294 0.0
Co47 Co 0.87542 0.13616 0.36364 0.0
O48 O 0.90469 0.18124 0.35601 0.0
C49 C 0.82299 0.18123 0.35662 0.0
C50 C 0.83053 0.23285 0.48812 0.0
C51 C 0.90255 0.22314 0.36793 0.0
O52 O 0.82868 0.20877 0.38847 0.0
O53 O 0.83792 0.14778 0.34484 0.0
O54 O 0.88659 0.19387 0.47534 0.0
O55 O 0.87024 0.14765 0.42536 0.0
Co56 Co 0.85834 0.79179 0.93365 0.0
O57 O 0.8365 0.81437 0.98052 0.0
O58 O 0.84186 0.74072 0.96409 0.0
C59 C 0.89374 0.83628 0.94897 0.0
O60 O 0.88029 0.75589 0.88901 0.0
Co61 Co 0.87683 0.85964 0.86019 0.0
O62 O 0.89717 0.80553 0.83932 0.0
C63 C 0.82158 0.82714 0.86223 0.0
C64 C 0.83143 0.77171 0.98972 0.0
C65 C 0.89464 0.7651 0.85509 0.0
O66 O 0.82765 0.79639 0.89105 0.0
O67 O 0.8376 0.85885 0.85001 0.0
O68 O 0.88994 0.79828 0.97057 0.0
O69 O 0.87499 0.84784 0.92243 0.0
Co70 Co 0.63564 0.70604 0.43826 0.0
O71 O 0.65989 0.68834 0.48368 0.0
O72 O 0.65025 0.76036 0.46591 0.0
C73 C 0.60301 0.6572 0.45788 0.0
O74 O 0.61081 0.73708 0.39458 0.0
Co75 Co 0.61846 0.63333 0.36839 0.0
O76 O 0.59489 0.6835 0.34795 0.0
C77 C 0.67168 0.6748 0.36377 0.0
C78 C 0.66297 0.7319 0.49134 0.0
C79 C 0.59598 0.72471 0.36224 0.0
O80 O 0.66518 0.70465 0.3932 0.0
O81 O 0.6569 0.64072 0.35323 0.0
O82 O 0.6056 0.69636 0.47798 0.0
O83 O 0.62148 0.64734 0.4301 0.0
Co84 Co 0.35489 0.70362 0.06367 0.0
O85 O 0.32746 0.68801 0.02264 0.0
O86 O 0.34069 0.75906 0.03778 0.0
C87 C 0.38426 0.65116 0.03926 0.0
O88 O 0.38309 0.73291 0.10259 0.0
Co89 Co 0.37593 0.63134 0.13099 0.0
O90 O 0.40522 0.67652 0.1375 0.0
C91 C 0.32389 0.67648 0.14498 0.0
C92 C 0.32567 0.73175 0.01476 0.0
C93 C 0.40253 0.71851 0.12624 0.0
O94 O 0.32831 0.70508 0.11341 0.0
O95 O 0.33924 0.64266 0.15399 0.0
O96 O 0.382 0.69044 0.01926 0.0
O97 O 0.3675 0.6438 0.07047 0.0
Co98 Co 0.13055 0.7909 0.56583 0.0
O99 O 0.15884 0.81239 0.52884 0.0
O100 O 0.14883 0.73908 0.54019 0.0
C101 C 0.10005 0.83993 0.53902 0.0
O102 O 0.10226 0.75548 0.59996 0.0
Co103 Co 0.10189 0.85544 0.63232 0.0
O104 O 0.07431 0.80689 0.62993 0.0
C105 C 0.1547 0.81617 0.6539 0.0
C106 C 0.16329 0.76946 0.51981 0.0
C107 C 0.08025 0.76586 0.61903 0.0
O108 O 0.15481 0.79162 0.61861 0.0
O109 O 0.13631 0.84488 0.66355 0.0
O110 O 0.10509 0.80178 0.51841 0.0
O111 O 0.11458 0.84828 0.57294 0.0
H112 H 0.29633 0.24469 0.65548 0.0
H113 H 0.26444 0.23225 0.7152 0.0
H114 H 0.26521 0.37738 0.7443 0.0
H115 H 0.29704 0.39013 0.68511 0.0
H116 H 0.28147 0.31922 0.81418 0.0
H117 H 0.18535 0.26351 0.74177 0.0
H118 H 0.21446 0.23535 0.72056 0.0
H119 H 0.20981 0.29573 0.71099 0.0
C120 C 0.28903 0.27414 0.67363 0.0
C121 C 0.2995 0.31828 0.66606 0.0
C122 C 0.27079 0.26698 0.70771 0.0
C123 C 0.2626 0.30393 0.73417 0.0
C124 C 0.27138 0.34846 0.72429 0.0
H125 H 0.16833 0.31552 0.974 0.0
H126 H 0.1926 0.33535 0.90661 0.0
C127 C 0.2896 0.35562 0.69048 0.0
C128 C 0.24821 0.29561 0.77577 0.0
H129 H 0.19024 0.25512 0.8192 0.0
C130 C 0.26143 0.30557 0.81529 0.0
C131 C 0.22216 0.27767 0.77694 0.0
C132 C 0.20693 0.2677 0.73536 0.0
C133 C 0.2494 0.29738 0.85607 0.0
C134 C 0.22355 0.27893 0.85724 0.0
C135 C 0.21014 0.26933 0.81787 0.0
C136 C 0.21043 0.26818 0.89928 0.0
C137 C 0.26438 0.30772 0.89782 0.0
C138 C 0.21311 0.22428 0.91763 0.0
C139 C 0.19944 0.2129 0.95605 0.0
C140 C 0.18286 0.2453 0.97663 0.0
C141 C 0.18106 0.28991 0.95901 0.0
C142 C 0.19473 0.30122 0.92045 0.0
H143 H 0.28426 0.32282 0.89128 0.0
H144 H 0.25278 0.33205 0.91839 0.0
H145 H 0.26693 0.27558 0.91708 0.0
H146 H 0.22533 0.19855 0.90167 0.0
H147 H 0.20124 0.17826 0.96883 0.0
H148 H 0.15115 0.1878 0.23696 0.0
H149 H 0.18525 0.19748 0.29284 0.0
H150 H 0.2445 0.21437 0.19142 0.0
H151 H 0.20984 0.20682 0.13495 0.0
H152 H 0.22667 0.14494 0.30908 0.0
H153 H 0.26166 0.3215 0.2689 0.0
H154 H 0.23213 0.29725 0.24477 0.0
H155 H 0.26436 0.28065 0.22489 0.0
C156 C 0.17141 0.19406 0.22654 0.0
C157 C 0.17792 0.19661 0.18172 0.0
C158 C 0.19091 0.19943 0.25849 0.0
C159 C 0.21745 0.20679 0.24643 0.0
C160 C 0.22408 0.20964 0.20156 0.0
H161 H 0.33384 0.18711 0.46379 0.0
H162 H 0.30933 0.1682 0.39642 0.0
C163 C 0.20434 0.20522 0.16936 0.0
C164 C 0.23778 0.21046 0.28153 0.0
H165 H 0.28216 0.28424 0.32838 0.0
C166 C 0.23894 0.1753 0.31321 0.0
C167 C 0.2538 0.25003 0.28676 0.0
C168 C 0.25286 0.28972 0.25478 0.0
C169 C 0.25453 0.17967 0.35118 0.0
C170 C 0.27013 0.21966 0.35685 0.0
C171 C 0.27009 0.25368 0.324 0.0
C172 C 0.28468 0.22923 0.39822 0.0
C173 C 0.25292 0.14262 0.38587 0.0
C174 C 0.27916 0.26985 0.42138 0.0
C175 C 0.2934 0.28101 0.45912 0.0
C176 C 0.31326 0.25149 0.47488 0.0
C177 C 0.31833 0.21008 0.45262 0.0
C178 C 0.30434 0.19927 0.4142 0.0
H179 H 0.23534 0.12005 0.38117 0.0
H180 H 0.27092 0.12076 0.38396 0.0
H181 H 0.25191 0.15783 0.41932 0.0
H182 H 0.26399 0.29335 0.40987 0.0
H183 H 0.28909 0.31315 0.47568 0.0
H184 H 0.79572 0.12044 0.30579 0.0
H185 H 0.76462 0.13876 0.24683 0.0
H186 H 0.76706 0.28193 0.28341 0.0
H187 H 0.79832 0.26394 0.34281 0.0
H188 H 0.71327 0.19207 0.24253 0.0
H189 H 0.79954 0.26939 0.15458 0.0
H190 H 0.80359 0.23089 0.20066 0.0
H191 H 0.79303 0.28904 0.20966 0.0
C192 C 0.78918 0.15571 0.302 0.0
C193 C 0.79974 0.19088 0.32851 0.0
C194 C 0.77137 0.16604 0.26837 0.0
C195 C 0.76397 0.2117 0.2605 0.0
C196 C 0.7728 0.2465 0.28893 0.0
H197 H 0.69112 0.33568 0.03218 0.0
H198 H 0.71521 0.31966 0.09994 0.0
C199 C 0.79051 0.23613 0.32294 0.0
C200 C 0.74954 0.22303 0.21969 0.0
H201 H 0.75877 0.26808 0.11722 0.0
C202 C 0.72308 0.20893 0.21515 0.0
C203 C 0.76259 0.24468 0.1841 0.0
C204 C 0.79131 0.25922 0.18707 0.0
C205 C 0.70914 0.21643 0.17583 0.0
C206 C 0.72234 0.2374 0.1399 0.0
C207 C 0.74877 0.25177 0.14471 0.0
C208 C 0.7089 0.24609 0.09742 0.0
C209 C 0.68029 0.20262 0.17342 0.0
C210 C 0.69816 0.20981 0.07265 0.0
C211 C 0.68427 0.21887 0.03378 0.0
C212 C 0.68115 0.26434 0.01897 0.0
C213 C 0.69309 0.30027 0.04275 0.0
C214 C 0.70683 0.29122 0.08158 0.0
H215 H 0.67143 0.19857 0.20667 0.0
H216 H 0.66854 0.22841 0.15486 0.0
H217 H 0.67864 0.16911 0.15618 0.0
H218 H 0.70018 0.17458 0.0837 0.0
H219 H 0.67537 0.19047 0.01607 0.0
H220 H 0.70095 0.26381 0.85291 0.0
H221 H 0.73629 0.25436 0.79817 0.0
H222 H 0.70199 0.36265 0.71981 0.0
H223 H 0.66712 0.37293 0.77403 0.0
H224 H 0.7258 0.22974 0.71181 0.0
H225 H 0.78051 0.39505 0.71576 0.0
H226 H 0.75889 0.37676 0.75988 0.0
H227 H 0.74525 0.40204 0.71087 0.0
C228 C 0.70121 0.28617 0.82443 0.0
C229 C 0.68107 0.31895 0.81785 0.0
C230 C 0.72143 0.28078 0.79326 0.0
C231 C 0.72195 0.30831 0.75532 0.0
C232 C 0.70237 0.34187 0.74937 0.0
H233 H 0.79904 0.30883 0.50044 0.0
H234 H 0.7738 0.32815 0.5674 0.0
C235 C 0.68224 0.34732 0.78035 0.0
C236 C 0.74086 0.29855 0.7193 0.0
H237 H 0.78691 0.3481 0.6518 0.0
C238 C 0.73946 0.25535 0.69905 0.0
C239 C 0.7583 0.33236 0.70239 0.0
C240 C 0.76104 0.37903 0.7236 0.0
C241 C 0.75437 0.24539 0.66136 0.0
C242 C 0.77182 0.27921 0.64423 0.0
C243 C 0.77352 0.32228 0.66491 0.0
C244 C 0.78844 0.27013 0.60497 0.0
C245 C 0.75041 0.19929 0.6394 0.0
C246 C 0.80555 0.23215 0.60445 0.0
C247 C 0.81913 0.22046 0.56619 0.0
C248 C 0.81666 0.24751 0.52821 0.0
C249 C 0.80098 0.28733 0.52935 0.0
C250 C 0.78671 0.29837 0.5675 0.0
H251 H 0.73097 0.18377 0.64828 0.0
H252 H 0.7515 0.20227 0.60305 0.0
H253 H 0.76616 0.17529 0.6505 0.0
H254 H 0.80802 0.21095 0.63344 0.0
H255 H 0.8317 0.19023 0.56635 0.0
H256 H 0.80968 0.83074 0.04881 0.0
H257 H 0.7869 0.81214 0.11722 0.0
H258 H 0.79516 0.66739 0.08936 0.0
H259 H 0.81863 0.68579 0.02079 0.0
H260 H 0.74086 0.76469 0.12942 0.0
H261 H 0.82427 0.67707 0.21438 0.0
H262 H 0.82893 0.71098 0.16523 0.0
H263 H 0.81602 0.65346 0.16155 0.0
C264 C 0.80666 0.79488 0.05709 0.0
C265 C 0.81603 0.75968 0.02945 0.0
C266 C 0.79368 0.78435 0.09629 0.0
C267 C 0.78979 0.73843 0.10877 0.0
C268 C 0.79855 0.70307 0.08082 0.0
H269 H 0.69768 0.61236 0.31255 0.0
H270 H 0.72984 0.62891 0.25461 0.0
C271 C 0.81169 0.71361 0.04149 0.0
C272 C 0.77577 0.72813 0.15043 0.0
H273 H 0.7823 0.6753 0.25023 0.0
C274 C 0.74998 0.7454 0.15594 0.0
C275 C 0.78778 0.70302 0.18496 0.0
C276 C 0.81586 0.68537 0.18156 0.0
C277 C 0.73567 0.73762 0.19475 0.0
C278 C 0.74762 0.7124 0.22919 0.0
C279 C 0.77338 0.695 0.22381 0.0
C280 C 0.7327 0.70139 0.26967 0.0
C281 C 0.7076 0.75545 0.19822 0.0
C282 C 0.72476 0.73636 0.29866 0.0
C283 C 0.70636 0.72705 0.33197 0.0
C284 C 0.69557 0.68268 0.33645 0.0
C285 C 0.70535 0.64705 0.30961 0.0
C286 C 0.72379 0.65635 0.27655 0.0
H287 H 0.69976 0.76708 0.16595 0.0
H288 H 0.69419 0.72849 0.21153 0.0
H289 H 0.70715 0.78512 0.22117 0.0
H290 H 0.73172 0.77129 0.29401 0.0
H291 H 0.6993 0.75521 0.35215 0.0
H292 H 0.69706 0.68089 0.54015 0.0
H293 H 0.71949 0.70318 0.60797 0.0
H294 H 0.68638 0.83948 0.59779 0.0
H295 H 0.66372 0.8174 0.52942 0.0
H296 H 0.75614 0.77966 0.62057 0.0
H297 H 0.66493 0.78979 0.72386 0.0
H298 H 0.66588 0.75877 0.67241 0.0
H299 H 0.66481 0.82041 0.67238 0.0
C300 C 0.69467 0.71574 0.5521 0.0
C301 C 0.67859 0.7474 0.52957 0.0
C302 C 0.70744 0.72834 0.59088 0.0
C303 C 0.70419 0.77266 0.60811 0.0
C304 C 0.68875 0.80488 0.5852 0.0
H305 H 0.79592 0.89424 0.81652 0.0
H306 H 0.76293 0.88279 0.75879 0.0
C307 C 0.67606 0.79236 0.54605 0.0
C308 C 0.71737 0.78474 0.64988 0.0
H309 H 0.70581 0.80629 0.75874 0.0
C310 C 0.74516 0.78572 0.65072 0.0
C311 C 0.70287 0.79217 0.68911 0.0
C312 C 0.67296 0.79002 0.68982 0.0
C313 C 0.75893 0.79396 0.6899 0.0
C314 C 0.74448 0.80132 0.72912 0.0
C315 C 0.71668 0.8006 0.72843 0.0
C316 C 0.75854 0.80994 0.77076 0.0
C317 C 0.7889 0.79446 0.68941 0.0
C318 C 0.76587 0.77302 0.79783 0.0
C319 C 0.78476 0.77937 0.83098 0.0
C320 C 0.79667 0.82268 0.83696 0.0
C321 C 0.78733 0.86035 0.81237 0.0
C322 C 0.76842 0.85399 0.77949 0.0
H323 H 0.79715 0.78562 0.65659 0.0
H324 H 0.79614 0.82917 0.69877 0.0
H325 H 0.79669 0.76966 0.71397 0.0
H326 H 0.75842 0.73873 0.79126 0.0
H327 H 0.79155 0.7497 0.84933 0.0
H328 H 0.28299 0.68957 0.97846 0.0
H329 H 0.25972 0.71108 0.91123 0.0
H330 H 0.30948 0.83126 0.89861 0.0
H331 H 0.33215 0.81078 0.96725 0.0
H332 H 0.26078 0.85166 0.87667 0.0
H333 H 0.28767 0.69218 0.78978 0.0
H334 H 0.27082 0.67819 0.83991 0.0
H335 H 0.30229 0.70778 0.84183 0.0
C336 C 0.28876 0.72086 0.96161 0.0
C337 C 0.30943 0.74841 0.97784 0.0
C338 C 0.27571 0.7328 0.92289 0.0
C339 C 0.28355 0.77181 0.89898 0.0
C340 C 0.30338 0.80061 0.91619 0.0
H341 H 0.20646 0.79054 0.6391 0.0
H342 H 0.24219 0.78545 0.69395 0.0
C343 C 0.31618 0.78907 0.9555 0.0
C344 C 0.27049 0.7826 0.85656 0.0
H345 H 0.24883 0.73219 0.76185 0.0
C346 C 0.25857 0.82581 0.85121 0.0
C347 C 0.26843 0.74965 0.82242 0.0
C348 C 0.2833 0.70461 0.82357 0.0
C349 C 0.24288 0.83555 0.81432 0.0
C350 C 0.23817 0.80052 0.78291 0.0
C351 C 0.25186 0.75869 0.78645 0.0
C352 C 0.21723 0.80489 0.74896 0.0
C353 C 0.23123 0.88313 0.80984 0.0
C354 C 0.19132 0.81624 0.76182 0.0
C355 C 0.17119 0.81975 0.73075 0.0
C356 C 0.17631 0.81077 0.68616 0.0
C357 C 0.20202 0.79773 0.67328 0.0
C358 C 0.2224 0.795 0.7045 0.0
H359 H 0.24456 0.90933 0.82469 0.0
H360 H 0.22774 0.89236 0.77489 0.0
H361 H 0.21206 0.88462 0.82777 0.0
H362 H 0.18653 0.822 0.7961 0.0
H363 H 0.15144 0.82896 0.74182 0.0
H364 H 0.29647 0.75677 0.15923 0.0
H365 H 0.26606 0.77264 0.22055 0.0
H366 H 0.27102 0.63097 0.26138 0.0
H367 H 0.30114 0.61463 0.20059 0.0
H368 H 0.21443 0.71603 0.25487 0.0
H369 H 0.30435 0.72346 0.36125 0.0
H370 H 0.3057 0.73422 0.30276 0.0
H371 H 0.30188 0.67657 0.32276 0.0
C372 C 0.29051 0.72876 0.18056 0.0
C373 C 0.30153 0.68462 0.1755 0.0
C374 C 0.27322 0.73791 0.21554 0.0
C375 C 0.2667 0.70301 0.24552 0.0
C376 C 0.27605 0.6583 0.23861 0.0
H377 H 0.16698 0.68689 0.47726 0.0
H378 H 0.19252 0.67043 0.41037 0.0
C379 C 0.29331 0.64915 0.20391 0.0
C380 C 0.25254 0.71379 0.28663 0.0
H381 H 0.26273 0.72771 0.39676 0.0
C382 C 0.22489 0.71878 0.28591 0.0
C383 C 0.26644 0.71745 0.32682 0.0
C384 C 0.29626 0.71294 0.32879 0.0
C385 C 0.21066 0.72671 0.32489 0.0
C386 C 0.22453 0.72935 0.36522 0.0
C387 C 0.25222 0.72519 0.36573 0.0
C388 C 0.21064 0.73781 0.40714 0.0
C389 C 0.18094 0.73262 0.32283 0.0
C390 C 0.21324 0.7805 0.42802 0.0
C391 C 0.19874 0.79 0.46604 0.0
C392 C 0.18162 0.75672 0.48401 0.0
C393 C 0.18009 0.71311 0.46424 0.0
C394 C 0.19445 0.70379 0.42591 0.0
H395 H 0.17376 0.73681 0.28853 0.0
H396 H 0.17119 0.70189 0.33728 0.0
H397 H 0.17473 0.76303 0.34238 0.0
H398 H 0.22585 0.80697 0.41408 0.0
H399 H 0.20035 0.82388 0.48063 0.0
H400 H 0.02832 0.21527 0.11756 0.0
H401 H -0.00243 0.2651 0.15614 0.0
H402 H 0.05923 0.36689 0.17222 0.0
H403 H 0.09044 0.31631 0.13333 0.0
H404 H 0.04069 0.34118 0.24911 0.0
H405 H 0.95324 0.37843 0.14974 0.0
H406 H 0.96144 0.31963 0.13905 0.0
H407 H 0.98482 0.36441 0.12473 0.0
C408 C 0.03513 0.2489 0.12798 0.0
C409 C 0.06182 0.26163 0.12304 0.0
C410 C 0.01739 0.27784 0.14955 0.0
C411 C 0.02591 0.32018 0.16679 0.0
C412 C 0.05212 0.33464 0.15882 0.0
H413 H 0.89563 0.31492 0.34926 0.0
H414 H 0.92669 0.36499 0.3089 0.0
C415 C 0.06992 0.3057 0.13666 0.0
C416 C 0.00923 0.34244 0.20093 0.0
H417 H 0.94337 0.34513 0.22566 0.0
C418 C 0.01948 0.34432 0.24384 0.0
C419 C 0.98167 0.34878 0.19458 0.0
C420 C 0.96982 0.35326 0.14932 0.0
C421 C 0.00247 0.34307 0.28033 0.0
C422 C 0.97484 0.33899 0.27339 0.0
C423 C 0.96464 0.34644 0.23105 0.0
C424 C 0.95788 0.31399 0.30527 0.0
C425 C 0.01435 0.34089 0.32574 0.0
C426 C 0.9652 0.269 0.31683 0.0
C427 C 0.94754 0.24044 0.33901 0.0
C428 C 0.92211 0.25616 0.35028 0.0
C429 C 0.91519 0.30203 0.34103 0.0
C430 C 0.93287 0.33064 0.31809 0.0
H431 H 0.03201 0.36367 0.32794 0.0
H432 H -0.00023 0.35112 0.35135 0.0
H433 H 0.0211 0.30525 0.3325 0.0
H434 H 0.98404 0.25482 0.30629 0.0
H435 H 0.95349 0.20537 0.34594 0.0
H436 H 0.42011 0.27995 0.71927 0.0
H437 H 0.45044 0.2275 0.75544 0.0
H438 H 0.44736 0.13608 0.64386 0.0
H439 H 0.41648 0.18924 0.60677 0.0
H440 H 0.44718 0.12688 0.77566 0.0
H441 H 0.5275 0.17553 0.65835 0.0
H442 H 0.49817 0.21099 0.66069 0.0
H443 H 0.49601 0.15346 0.63959 0.0
C444 C 0.42564 0.24861 0.70231 0.0
C445 C 0.41621 0.23913 0.65983 0.0
C446 C 0.44279 0.21835 0.72329 0.0
C447 C 0.45113 0.17793 0.70236 0.0
C448 C 0.4411 0.16715 0.66053 0.0
H449 H 0.59686 0.18217 0.84064 0.0
H450 H 0.56681 0.12986 0.80101 0.0
C451 C 0.42354 0.19751 0.63946 0.0
C452 C 0.47261 0.15141 0.72367 0.0
H453 H 0.53938 0.16579 0.73267 0.0
C454 C 0.46754 0.13312 0.76559 0.0
C455 C 0.49918 0.15808 0.71015 0.0
C456 C 0.50578 0.17539 0.66468 0.0
C457 C 0.48791 0.12949 0.7968 0.0
C458 C 0.5136 0.14526 0.78573 0.0
C459 C 0.5195 0.15478 0.74152 0.0
C460 C 0.53106 0.1664 0.81936 0.0
C461 C 0.48116 0.11392 0.84271 0.0
C462 C 0.5209 0.20348 0.84376 0.0
C463 C 0.53793 0.23363 0.86539 0.0
C464 C 0.56546 0.22705 0.86357 0.0
C465 C 0.57563 0.1877 0.84266 0.0
C466 C 0.55851 0.1578 0.82013 0.0
H467 H 0.46646 0.08544 0.8417 0.0
H468 H 0.49908 0.10225 0.86079 0.0
H469 H 0.47195 0.14284 0.86101 0.0
H470 H 0.49994 0.21171 0.84283 0.0
H471 H 0.52967 0.26372 0.88136 0.0
H472 H 0.02675 0.77027 0.6233 0.0
H473 H -0.00272 0.71811 0.66256 0.0
H474 H 0.06286 0.6266 0.68801 0.0
H475 H 0.09272 0.67913 0.64806 0.0
H476 H 0.98442 0.6176 0.66308 0.0
H477 H 0.03983 0.67935 0.81049 0.0
H478 H 0.04461 0.7085 0.75874 0.0
H479 H 0.05663 0.65087 0.76581 0.0
C480 C 0.03478 0.73843 0.63616 0.0
C481 C 0.06203 0.72904 0.63331 0.0
C482 C 0.0179 0.70844 0.65833 0.0
C483 C 0.02795 0.66875 0.67858 0.0
C484 C 0.05478 0.65717 0.67272 0.0
H485 H 0.91878 0.68938 0.89159 0.0
H486 H 0.94959 0.63653 0.85414 0.0
C487 C 0.07175 0.68711 0.64986 0.0
C488 C 0.01093 0.64583 0.71165 0.0
H489 H 0.99392 0.66875 0.81772 0.0
C490 C 0.98685 0.62665 0.69745 0.0
C491 C 0.01431 0.65618 0.75676 0.0
C492 C 0.04022 0.67474 0.77423 0.0
C493 C 0.9648 0.62492 0.72563 0.0
C494 C 0.96689 0.6441 0.76822 0.0
C495 C 0.99212 0.65513 0.78465 0.0
C496 C 0.94373 0.66632 0.78962 0.0
C497 C 0.93879 0.60714 0.70809 0.0
C498 C 0.92995 0.70007 0.7658 0.0
C499 C 0.91291 0.73044 0.78705 0.0
C500 C 0.90912 0.72775 0.83266 0.0
C501 C 0.92135 0.69203 0.85631 0.0
C502 C 0.93885 0.66179 0.83497 0.0
H503 H 0.94215 0.5764 0.68712 0.0
H504 H 0.92487 0.59796 0.73506 0.0
H505 H 0.92946 0.63388 0.68715 0.0
H506 H 0.93387 0.7054 0.73114 0.0
H507 H 0.90359 0.75744 0.76798 0.0
H508 H 0.45458 0.7036 0.14245 0.0
H509 H 0.48514 0.75349 0.18223 0.0
H510 H 0.4248 0.8582 0.19129 0.0
H511 H 0.39392 0.80825 0.15038 0.0
H512 H 0.50036 0.85952 0.16979 0.0
H513 H 0.44643 0.80833 0.32203 0.0
H514 H 0.44286 0.77201 0.27433 0.0
H515 H 0.42939 0.82912 0.27374 0.0
C516 C 0.44795 0.73759 0.15206 0.0
C517 C 0.42185 0.75191 0.14378 0.0
C518 C 0.46545 0.76617 0.17452 0.0
C519 C 0.45715 0.80938 0.18967 0.0
C520 C 0.43153 0.82502 0.17959 0.0
H521 H 0.57114 0.80077 0.39708 0.0
H522 H 0.53857 0.85029 0.35955 0.0
C523 C 0.414 0.79651 0.1563 0.0
C524 C 0.47467 0.83372 0.2208 0.0
H525 H 0.49325 0.81556 0.32685 0.0
C526 C 0.49847 0.85217 0.20463 0.0
C527 C 0.47195 0.82551 0.26637 0.0
C528 C 0.44625 0.80789 0.2855 0.0
C529 C 0.5209 0.85543 0.23175 0.0
C530 C 0.51949 0.8382 0.27519 0.0
C531 C 0.49455 0.82775 0.29321 0.0
C532 C 0.54303 0.81706 0.29627 0.0
C533 C 0.5466 0.87254 0.21234 0.0
C534 C 0.55641 0.78227 0.27319 0.0
C535 C 0.57442 0.75377 0.29451 0.0
C536 C 0.57959 0.75936 0.33949 0.0
C537 C 0.56749 0.79586 0.3623 0.0
C538 C 0.54901 0.82421 0.34091 0.0
H539 H 0.54283 0.90212 0.19007 0.0
H540 H 0.56082 0.88326 0.23829 0.0
H541 H 0.55576 0.84484 0.19234 0.0
H542 H 0.55163 0.77495 0.23917 0.0
H543 H 0.58361 0.72618 0.27602 0.0
H544 H 0.09395 0.07258 0.07465 0.0
H545 H 0.05948 0.01682 0.05666 0.0
H546 H 0.03481 0.10074 0.94713 0.0
H547 H 0.0696 0.15693 0.96476 0.0
H548 H 0.00455 0.03424 0.05318 0.0
H549 H 0.04399 0.97074 0.89351 0.0
H550 H 0.06414 0.00216 0.93236 0.0
H551 H 0.0408 0.03213 0.8982 0.0
C552 C 0.0813 0.07917 0.04658 0.0
C553 C 0.08446 0.11909 0.02104 0.0
C554 C 0.06163 0.04724 0.03638 0.0
C555 C 0.04487 0.05447 0.00033 0.0
C556 C 0.04791 0.09426 0.97465 0.0
H557 H 0.90716 0.91254 0.90224 0.0
H558 H 0.94497 0.96357 0.91437 0.0
C559 C 0.06765 0.12637 0.98488 0.0
C560 C 0.02356 0.02103 0.99102 0.0
H561 H 0.00149 0.94372 0.91495 0.0
C562 C 0.00389 0.01429 0.02306 0.0
C563 C 0.02292 0.99517 0.95169 0.0
C564 C 0.04418 -2e-05 0.91703 0.0
C565 C 0.98326 0.98271 0.01654 0.0
C566 C 0.9826 0.95684 0.97723 0.0
C567 C 0.00223 0.96358 0.94512 0.0
C568 C 0.96101 0.92389 0.96828 0.0
C569 C 0.96201 0.97797 0.05126 0.0
C570 C 0.95796 0.88419 0.99405 0.0
C571 C 0.93638 0.85485 0.98717 0.0
C572 C 0.9176 0.86497 0.95447 0.0
C573 C 0.92123 0.904 0.92786 0.0
C574 C 0.94283 0.93313 0.93463 0.0
H575 H 0.96251 0.00678 0.07526 0.0
H576 H 0.94201 0.97669 0.03598 0.0
H577 H 0.96506 0.94538 0.06955 0.0
H578 H 0.97207 0.87631 0.01983 0.0
H579 H 0.93411 0.82489 0.008 0.0
H580 H 0.59266 0.57622 0.41655 0.0
H581 H 0.55592 0.52331 0.43049 0.0
H582 H 0.52588 0.61424 0.53093 0.0
H583 H 0.56245 0.66786 0.51672 0.0
H584 H 0.5443 0.47949 0.51026 0.0
H585 H 0.46051 0.58886 0.45398 0.0
H586 H 0.49465 0.60132 0.44026 0.0
H587 H 0.48195 0.61525 0.49386 0.0
C588 C 0.57813 0.58516 0.44139 0.0
C589 C 0.58035 0.62618 0.46553 0.0
C590 C 0.5572 0.55488 0.44932 0.0
C591 C 0.5381 0.56516 0.48137 0.0
C592 C 0.54019 0.60615 0.50548 0.0
H593 H 0.40118 0.42219 0.58334 0.0
H594 H 0.43786 0.47504 0.56904 0.0
C595 C 0.56113 0.63658 0.4975 0.0
C596 C 0.5166 0.53198 0.49058 0.0
H597 H 0.44934 0.51875 0.48919 0.0
C598 C 0.52353 0.48792 0.50551 0.0
C599 C 0.48959 0.5433 0.48436 0.0
C600 C 0.48114 0.5896 0.46688 0.0
C601 C 0.50405 0.45494 0.51508 0.0
C602 C 0.47705 0.46624 0.50881 0.0
C603 C 0.47012 0.5103 0.4939 0.0
C604 C 0.45555 0.4331 0.51812 0.0
C605 C 0.51249 0.40869 0.53272 0.0
C606 C 0.4534 0.39205 0.49409 0.0
C607 C 0.43247 0.36163 0.50227 0.0
C608 C 0.41335 0.37209 0.53437 0.0
C609 C 0.41564 0.41318 0.5584 0.0
C610 C 0.43653 0.44345 0.55027 0.0
H611 H 0.53313 0.40943 0.54554 0.0
H612 H 0.499 0.39714 0.55944 0.0
H613 H 0.51161 0.38292 0.50585 0.0
H614 H 0.46766 0.3839 0.46859 0.0
H615 H 0.43111 0.33029 0.48316 0.0
H616 H 0.39213 0.56807 0.0777 0.0
H617 H 0.42868 0.5146 0.06543 0.0
H618 H 0.46195 0.60645 0.96854 0.0
H619 H 0.42544 0.66075 0.98106 0.0
H620 H 0.4438 0.47104 0.98707 0.0
H621 H 0.52396 0.58224 0.05383 0.0
H622 H 0.4892 0.59362 0.06347 0.0
H623 H 0.50411 0.60848 0.01168 0.0
C624 C 0.40724 0.57702 0.05381 0.0
C625 C 0.40605 0.61869 0.03047 0.0
C626 C 0.42806 0.54638 0.04684 0.0
C627 C 0.44811 0.55693 0.01656 0.0
C628 C 0.44683 0.59817 0.99263 0.0
H629 H 0.58606 0.42093 0.91786 0.0
H630 H 0.54875 0.47133 0.9344 0.0
C631 C 0.42594 0.62896 -0.0004 0.0
C632 C 0.47016 0.52428 0.00986 0.0
H633 H 0.53731 0.513 0.01891 0.0
C634 C 0.46425 0.48003 0.99423 0.0
C635 C 0.49671 0.53622 0.01961 0.0
C636 C 0.50396 0.58256 0.03846 0.0
C637 C 0.48438 0.44765 0.9869 0.0
C638 C 0.51095 0.45987 0.99599 0.0
C639 C 0.51683 0.5039 0.01211 0.0
C640 C 0.53316 0.42845 0.98646 0.0
C641 C 0.47727 0.40113 0.96834 0.0
C642 C 0.5367 0.38772 0.01054 0.0
C643 C 0.55812 0.35868 0.0012 0.0
C644 C 0.57616 0.37019 0.9677 0.0
C645 C 0.57245 0.41105 0.9438 0.0
C646 C 0.5512 0.43997 0.95322 0.0
H647 H 0.45645 0.39989 0.95634 0.0
H648 H 0.49077 0.39206 0.94078 0.0
H649 H 0.47964 0.37464 0.9943 0.0
H650 H 0.52305 0.37865 0.03668 0.0
H651 H 0.56057 0.32743 0.02015 0.0
H652 H 0.063 0.82817 0.47394 0.0
H653 H 0.02676 0.88102 0.45463 0.0
H654 H 0.05166 0.97362 0.55741 0.0
H655 H 0.0877 0.9216 0.57672 0.0
H656 H 0.98533 0.91458 0.51409 0.0
H657 H 0.04759 0.05479 0.44499 0.0
H658 H 0.05942 0.99646 0.4509 0.0
H659 H 0.05817 0.03401 0.49779 0.0
C660 C 0.06075 0.8599 0.49222 0.0
C661 C 0.07819 0.8709 0.52669 0.0
C662 C 0.04011 0.88992 0.4812 0.0
C663 C 0.03692 0.93137 0.50423 0.0
C664 C 0.05417 0.94214 0.53879 0.0
H665 H 0.92965 0.16197 0.51233 0.0
H666 H 0.96549 0.10614 0.5237 0.0
C667 C 0.07464 0.91224 0.54989 0.0
C668 C 0.01509 0.96314 0.49345 0.0
H669 H 0.00252 0.07315 0.46061 0.0
C670 C 0.98897 0.94908 0.5019 0.0
C671 C 0.02011 0.00811 0.47789 0.0
C672 C 0.04782 0.02426 0.46697 0.0
C673 C 0.96765 0.9795 0.49647 0.0
C674 C 0.9727 0.02471 0.48147 0.0
C675 C -0.00119 0.0385 0.47235 0.0
C676 C 0.95112 0.05822 0.47472 0.0
C677 C 0.94001 0.96352 0.50815 0.0
C678 C 0.93153 0.04984 0.44308 0.0
C679 C 0.91113 0.08144 0.43662 0.0
C680 C 0.9101 0.12214 0.4615 0.0
C681 C 0.92994 0.13081 0.49281 0.0
C682 C 0.95038 0.09906 0.49929 0.0
H683 H 0.94035 0.93226 0.52916 0.0
H684 H 0.92887 0.99096 0.5256 0.0
H685 H 0.92909 0.95503 0.47754 0.0
H686 H 0.9321 0.01892 0.42321 0.0
H687 H 0.89618 0.07392 0.41207 0.0
loop_
_geom_bond_atom_site_label_1
_geom_bond_atom_site_label_2
_geom_bond_distance
_geom_bond_site_symmetry_2
_ccdc_geom_bond_type
Co0 O1 2.216 . S
Co0 O2 2.091 . S
Co0 O4 2.004 . S
Co0 O10 2.021 . S
Co0 O12 2.137 . S
Co0 O13 2.244 . S
O1 Co0 2.216 . S
O1 C8 1.247 . S
O2 Co0 2.091 . S
O2 C8 1.261 . S
C3 O12 1.247 . S
C3 O13 1.272 . S
O4 Co0 2.004 . S
O4 C9 1.259 . S
Co5 O6 2.061 . S
Co5 O11 2.052 . S
Co5 O13 2.135 . S
O6 Co5 2.061 . S
O6 C9 1.235 . S
C7 O10 1.238 . S
C7 O11 1.241 . S
C8 O1 1.247 . S
C8 O2 1.261 . S
C9 O4 1.259 . S
C9 O6 1.235 . S
O10 Co0 2.021 . S
O10 C7 1.238 . S
O11 Co5 2.052 . S
O11 C7 1.241 . S
O12 Co0 2.137 . S
O12 C3 1.247 . S
O13 Co0 2.244 . S
O13 C3 1.272 . S
O13 Co5 2.135 . S
Co14 O15 2.216 . S
Co14 O16 2.091 . S
Co14 O18 2.004 . S
Co14 O24 2.021 . S
Co14 O26 2.137 . S
Co14 O27 2.244 . S
O15 Co14 2.216 . S
O15 C22 1.247 . S
O16 Co14 2.091 . S
O16 C22 1.261 . S
C17 O26 1.247 . S
C17 O27 1.272 . S
O18 Co14 2.004 . S
O18 C23 1.259 . S
Co19 O20 2.061 . S
Co19 O25 2.052 . S
Co19 O27 2.135 . S
O20 Co19 2.061 . S
O20 C23 1.235 . S
C21 O24 1.238 . S
C21 O25 1.241 . S
C22 O15 1.247 . S
C22 O16 1.261 . S
C23 O18 1.259 . S
C23 O20 1.235 . S
O24 Co14 2.021 . S
O24 C21 1.238 . S
O25 Co19 2.052 . S
O25 C21 1.241 . S
O26 Co14 2.137 . S
O26 C17 1.247 . S
O27 Co14 2.244 . S
O27 C17 1.272 . S
O27 Co19 2.135 . S
Co28 O29 2.216 . S
Co28 O30 2.091 . S
Co28 O32 2.004 . S
Co28 O38 2.021 . S
Co28 O40 2.137 . S
Co28 O41 2.244 . S
O29 Co28 2.216 . S
O29 C36 1.247 . S
O30 Co28 2.091 . S
O30 C36 1.261 . S
C31 O40 1.247 . S
C31 O41 1.272 . S
O32 Co28 2.004 . S
O32 C37 1.259 . S
Co33 O34 2.061 . S
Co33 O39 2.052 . S
Co33 O41 2.135 . S
O34 Co33 2.061 . S
O34 C37 1.235 . S
C35 O38 1.238 . S
C35 O39 1.241 . S
C36 O29 1.247 . S
C36 O30 1.261 . S
C37 O32 1.259 . S
C37 O34 1.235 . S
O38 Co28 2.021 . S
O38 C35 1.238 . S
O39 Co33 2.052 . S
O39 C35 1.241 . S
O40 Co28 2.137 . S
O40 C31 1.247 . S
O41 Co28 2.244 . S
O41 C31 1.272 . S
O41 Co33 2.135 . S
Co42 O43 2.216 . S
Co42 O44 2.091 . S
Co42 O46 2.004 . S
Co42 O52 2.021 . S
Co42 O54 2.137 . S
Co42 O55 2.244 . S
O43 Co42 2.216 . S
O43 C50 1.247 . S
O44 Co42 2.091 . S
O44 C50 1.261 . S
C45 O54 1.247 . S
C45 O55 1.272 . S
O46 Co42 2.004 . S
O46 C51 1.259 . S
Co47 O48 2.061 . S
Co47 O53 2.052 . S
Co47 O55 2.135 . S
O48 Co47 2.061 . S
O48 C51 1.235 . S
C49 O52 1.238 . S
C49 O53 1.241 . S
C50 O43 1.247 . S
C50 O44 1.261 . S
C51 O46 1.259 . S
C51 O48 1.235 . S
O52 Co42 2.021 . S
O52 C49 1.238 . S
O53 Co47 2.052 . S
O53 C49 1.241 . S
O54 Co42 2.137 . S
O54 C45 1.247 . S
O55 Co42 2.244 . S
O55 C45 1.272 . S
O55 Co47 2.135 . S
Co56 O57 2.216 . S
Co56 O58 2.091 . S
Co56 O60 2.004 . S
Co56 O66 2.021 . S
Co56 O68 2.137 . S
Co56 O69 2.244 . S
O57 Co56 2.216 . S
O57 C64 1.247 . S
O58 Co56 2.091 . S
O58 C64 1.261 . S
C59 O68 1.247 . S
C59 O69 1.272 . S
O60 Co56 2.004 . S
O60 C65 1.259 . S
Co61 O62 2.061 . S
Co61 O67 2.052 . S
Co61 O69 2.135 . S
O62 Co61 2.061 . S
O62 C65 1.235 . S
C63 O66 1.238 . S
C63 O67 1.241 . S
C64 O57 1.247 . S
C64 O58 1.261 . S
C65 O60 1.259 . S
C65 O62 1.235 . S
O66 Co56 2.021 . S
O66 C63 1.238 . S
O67 Co61 2.052 . S
O67 C63 1.241 . S
O68 Co56 2.137 . S
O68 C59 1.247 . S
O69 Co56 2.244 . S
O69 C59 1.272 . S
O69 Co61 2.135 . S
Co70 O71 2.216 . S
Co70 O72 2.091 . S
Co70 O74 2.004 . S
Co70 O80 2.021 . S
Co70 O82 2.137 . S
Co70 O83 2.244 . S
O71 Co70 2.216 . S
O71 C78 1.247 . S
O72 Co70 2.091 . S
O72 C78 1.261 . S
C73 O82 1.247 . S
C73 O83 1.272 . S
O74 Co70 2.004 . S
O74 C79 1.259 . S
Co75 O76 2.061 . S
Co75 O81 2.052 . S
Co75 O83 2.135 . S
O76 Co75 2.061 . S
O76 C79 1.235 . S
C77 O80 1.238 . S
C77 O81 1.241 . S
C78 O71 1.247 . S
C78 O72 1.261 . S
C79 O74 1.259 . S
C79 O76 1.235 . S
O80 Co70 2.021 . S
O80 C77 1.238 . S
O81 Co75 2.052 . S
O81 C77 1.241 . S
O82 Co70 2.137 . S
O82 C73 1.247 . S
O83 Co70 2.244 . S
O83 C73 1.272 . S
O83 Co75 2.135 . S
Co84 O85 2.216 . S
Co84 O86 2.091 . S
Co84 O88 2.004 . S
Co84 O94 2.021 . S
Co84 O96 2.137 . S
Co84 O97 2.244 . S
O85 Co84 2.216 . S
O85 C92 1.247 . S
O86 Co84 2.091 . S
O86 C92 1.261 . S
C87 O96 1.247 . S
C87 O97 1.272 . S
O88 Co84 2.004 . S
O88 C93 1.259 . S
Co89 O90 2.061 . S
Co89 O95 2.052 . S
Co89 O97 2.135 . S
O90 Co89 2.061 . S
O90 C93 1.235 . S
C91 O94 1.238 . S
C91 O95 1.241 . S
C92 O85 1.247 . S
C92 O86 1.261 . S
C93 O88 1.259 . S
C93 O90 1.235 . S
O94 Co84 2.021 . S
O94 C91 1.238 . S
O95 Co89 2.052 . S
O95 C91 1.241 . S
O96 Co84 2.137 . S
O96 C87 1.247 . S
O97 Co84 2.244 . S
O97 C87 1.272 . S
O97 Co89 2.135 . S
Co98 O99 2.216 . S
Co98 O100 2.091 . S
Co98 O102 2.004 . S
Co98 O108 2.021 . S
Co98 O110 2.137 . S
Co98 O111 2.244 . S
O99 Co98 2.216 . S
O99 C106 1.247 . S
O100 Co98 2.091 . S
O100 C106 1.261 . S
C101 O110 1.247 . S
C101 O111 1.272 . S
O102 Co98 2.004 . S
O102 C107 1.259 . S
Co103 O104 2.061 . S
Co103 O109 2.052 . S
Co103 O111 2.135 . S
O104 Co103 2.061 . S
O104 C107 1.235 . S
C105 O108 1.238 . S
C105 O109 1.241 . S
C106 O99 1.247 . S
C106 O100 1.261 . S
C107 O102 1.259 . S
C107 O104 1.235 . S
O108 Co98 2.021 . S
O108 C105 1.238 . S
O109 Co103 2.052 . S
O109 C105 1.241 . S
O110 Co98 2.137 . S
O110 C101 1.247 . S
O111 Co98 2.244 . S
O111 C101 1.272 . S
O111 Co103 2.135 . S
H112 C120 0.929 . S
H113 C122 0.930 . S
H114 C124 0.930 . S
H115 C127 0.929 . S
H116 C130 0.930 . S
H117 C132 0.960 . S
H118 C132 0.960 . S
H119 C132 0.960 . S
C120 H112 0.929 . S
C120 C121 1.377 . S
C120 C122 1.384 . S
C121 C120 1.377 . S
C121 C127 1.390 . S
C122 H113 0.930 . S
C122 C120 1.384 . S
C122 C123 1.372 . S
C123 C122 1.372 . S
C123 C124 1.400 . S
C123 C128 1.490 . S
C124 H114 0.930 . S
C124 C123 1.400 . S
C124 C127 1.386 . S
H125 C141 0.930 . S
H126 C142 0.931 . S
C127 H115 0.929 . S
C127 C121 1.390 . S
C127 C124 1.386 . S
C128 C123 1.490 . S
C128 C130 1.395 . S
C128 C131 1.403 . S
H129 C135 0.930 . S
C130 H116 0.930 . S
C130 C128 1.395 . S
C130 C133 1.403 . S
C131 C128 1.403 . S
C131 C132 1.524 . S
C131 C135 1.400 . S
C132 H117 0.960 . S
C132 H118 0.960 . S
C132 H119 0.960 . S
C132 C131 1.524 . S
C133 C130 1.403 . S
C133 C134 1.392 . S
C133 C137 1.495 . S
C134 C133 1.392 . S
C134 C135 1.385 . S
C134 C136 1.478 . S
C135 H129 0.930 . S
C135 C131 1.400 . S
C135 C134 1.385 . S
C136 C134 1.478 . S
C136 C138 1.381 . S
C136 C142 1.383 . S
C137 C133 1.495 . S
C137 H143 0.959 . S
C137 H144 0.961 . S
C137 H145 0.960 . S
C138 C136 1.381 . S
C138 C139 1.394 . S
C138 H146 0.930 . S
C139 C138 1.394 . S
C139 C140 1.383 . S
C139 H147 0.929 . S
C140 C139 1.383 . S
C140 C141 1.377 . S
C141 H125 0.930 . S
C141 C140 1.377 . S
C141 C142 1.379 . S
C142 H126 0.931 . S
C142 C136 1.383 . S
C142 C141 1.379 . S
H143 C137 0.959 . S
H144 C137 0.961 . S
H145 C137 0.960 . S
H146 C138 0.930 . S
H147 C139 0.929 . S
H148 C156 0.929 . S
H149 C158 0.930 . S
H150 C160 0.930 . S
H151 C163 0.929 . S
H152 C166 0.930 . S
H153 C168 0.960 . S
H154 C168 0.960 . S
H155 C168 0.960 . S
C156 H148 0.929 . S
C156 C157 1.377 . S
C156 C158 1.384 . S
C157 C156 1.377 . S
C157 C163 1.390 . S
C158 H149 0.930 . S
C158 C156 1.384 . S
C158 C159 1.372 . S
C159 C158 1.372 . S
C159 C160 1.400 . S
C159 C164 1.490 . S
C160 H150 0.930 . S
C160 C159 1.400 . S
C160 C163 1.386 . S
H161 C177 0.930 . S
H162 C178 0.931 . S
C163 H151 0.929 . S
C163 C157 1.390 . S
C163 C160 1.386 . S
C164 C159 1.490 . S
C164 C166 1.395 . S
C164 C167 1.403 . S
H165 C171 0.930 . S
C166 H152 0.930 . S
C166 C164 1.395 . S
C166 C169 1.403 . S
C167 C164 1.403 . S
C167 C168 1.524 . S
C167 C171 1.400 . S
C168 H153 0.960 . S
C168 H154 0.960 . S
C168 H155 0.960 . S
C168 C167 1.524 . S
C169 C166 1.403 . S
C169 C170 1.392 . S
C169 C173 1.495 . S
C170 C169 1.392 . S
C170 C171 1.385 . S
C170 C172 1.478 . S
C171 H165 0.930 . S
C171 C167 1.400 . S
C171 C170 1.385 . S
C172 C170 1.478 . S
C172 C174 1.381 . S
C172 C178 1.383 . S
C173 C169 1.495 . S
C173 H179 0.959 . S
C173 H180 0.961 . S
C173 H181 0.960 . S
C174 C172 1.381 . S
C174 C175 1.394 . S
C174 H182 0.930 . S
C175 C174 1.394 . S
C175 C176 1.383 . S
C175 H183 0.929 . S
C176 C175 1.383 . S
C176 C177 1.377 . S
C177 H161 0.930 . S
C177 C176 1.377 . S
C177 C178 1.379 . S
C178 H162 0.931 . S
C178 C172 1.383 . S
C178 C177 1.379 . S
H179 C173 0.959 . S
H180 C173 0.961 . S
H181 C173 0.960 . S
H182 C174 0.930 . S
H183 C175 0.929 . S
H184 C192 0.929 . S
H185 C194 0.930 . S
H186 C196 0.930 . S
H187 C199 0.929 . S
H188 C202 0.930 . S
H189 C204 0.960 . S
H190 C204 0.960 . S
H191 C204 0.960 . S
C192 H184 0.929 . S
C192 C193 1.377 . S
C192 C194 1.384 . S
C193 C192 1.377 . S
C193 C199 1.390 . S
C194 H185 0.930 . S
C194 C192 1.384 . S
C194 C195 1.372 . S
C195 C194 1.372 . S
C195 C196 1.400 . S
C195 C200 1.490 . S
C196 H186 0.930 . S
C196 C195 1.400 . S
C196 C199 1.386 . S
H197 C213 0.930 . S
H198 C214 0.931 . S
C199 H187 0.929 . S
C199 C193 1.390 . S
C199 C196 1.386 . S
C200 C195 1.490 . S
C200 C202 1.395 . S
C200 C203 1.403 . S
H201 C207 0.930 . S
C202 H188 0.930 . S
C202 C200 1.395 . S
C202 C205 1.403 . S
C203 C200 1.403 . S
C203 C204 1.524 . S
C203 C207 1.400 . S
C204 H189 0.960 . S
C204 H190 0.960 . S
C204 H191 0.960 . S
C204 C203 1.524 . S
C205 C202 1.403 . S
C205 C206 1.392 . S
C205 C209 1.495 . S
C206 C205 1.392 . S
C206 C207 1.385 . S
C206 C208 1.478 . S
C207 H201 0.930 . S
C207 C203 1.400 . S
C207 C206 1.385 . S
C208 C206 1.478 . S
C208 C210 1.381 . S
C208 C214 1.383 . S
C209 C205 1.495 . S
C209 H215 0.959 . S
C209 H216 0.961 . S
C209 H217 0.960 . S
C210 C208 1.381 . S
C210 C211 1.394 . S
C210 H218 0.930 . S
C211 C210 1.394 . S
C211 C212 1.383 . S
C211 H219 0.929 . S
C212 C211 1.383 . S
C212 C213 1.377 . S
C213 H197 0.930 . S
C213 C212 1.377 . S
C213 C214 1.379 . S
C214 H198 0.931 . S
C214 C208 1.383 . S
C214 C213 1.379 . S
H215 C209 0.959 . S
H216 C209 0.961 . S
H217 C209 0.960 . S
H218 C210 0.930 . S
H219 C211 0.929 . S
H220 C228 0.929 . S
H221 C230 0.930 . S
H222 C232 0.930 . S
H223 C235 0.929 . S
H224 C238 0.930 . S
H225 C240 0.960 . S
H226 C240 0.960 . S
H227 C240 0.960 . S
C228 H220 0.929 . S
C228 C229 1.377 . S
C228 C230 1.384 . S
C229 C228 1.377 . S
C229 C235 1.390 . S
C230 H221 0.930 . S
C230 C228 1.384 . S
C230 C231 1.372 . S
C231 C230 1.372 . S
C231 C232 1.400 . S
C231 C236 1.490 . S
C232 H222 0.930 . S
C232 C231 1.400 . S
C232 C235 1.386 . S
H233 C249 0.930 . S
H234 C250 0.931 . S
C235 H223 0.929 . S
C235 C229 1.390 . S
C235 C232 1.386 . S
C236 C231 1.490 . S
C236 C238 1.395 . S
C236 C239 1.403 . S
H237 C243 0.930 . S
C238 H224 0.930 . S
C238 C236 1.395 . S
C238 C241 1.403 . S
C239 C236 1.403 . S
C239 C240 1.524 . S
C239 C243 1.400 . S
C240 H225 0.960 . S
C240 H226 0.960 . S
C240 H227 0.960 . S
C240 C239 1.524 . S
C241 C238 1.403 . S
C241 C242 1.392 . S
C241 C245 1.495 . S
C242 C241 1.392 . S
C242 C243 1.385 . S
C242 C244 1.478 . S
C243 H237 0.930 . S
C243 C239 1.400 . S
C243 C242 1.385 . S
C244 C242 1.478 . S
C244 C246 1.381 . S
C244 C250 1.383 . S
C245 C241 1.495 . S
C245 H251 0.959 . S
C245 H252 0.961 . S
C245 H253 0.960 . S
C246 C244 1.381 . S
C246 C247 1.394 . S
C246 H254 0.930 . S
C247 C246 1.394 . S
C247 C248 1.383 . S
C247 H255 0.929 . S
C248 C247 1.383 . S
C248 C249 1.377 . S
C249 H233 0.930 . S
C249 C248 1.377 . S
C249 C250 1.379 . S
C250 H234 0.931 . S
C250 C244 1.383 . S
C250 C249 1.379 . S
H251 C245 0.959 . S
H252 C245 0.961 . S
H253 C245 0.960 . S
H254 C246 0.930 . S
H255 C247 0.929 . S
H256 C264 0.929 . S
H257 C266 0.930 . S
H258 C268 0.930 . S
H259 C271 0.929 . S
H260 C274 0.930 . S
H261 C276 0.960 . S
H262 C276 0.960 . S
H263 C276 0.960 . S
C264 H256 0.929 . S
C264 C265 1.377 . S
C264 C266 1.384 . S
C265 C264 1.377 . S
C265 C271 1.390 . S
C266 H257 0.930 . S
C266 C264 1.384 . S
C266 C267 1.372 . S
C267 C266 1.372 . S
C267 C268 1.400 . S
C267 C272 1.490 . S
C268 H258 0.930 . S
C268 C267 1.400 . S
C268 C271 1.386 . S
H269 C285 0.930 . S
H270 C286 0.931 . S
C271 H259 0.929 . S
C271 C265 1.390 . S
C271 C268 1.386 . S
C272 C267 1.490 . S
C272 C274 1.395 . S
C272 C275 1.403 . S
H273 C279 0.930 . S
C274 H260 0.930 . S
C274 C272 1.395 . S
C274 C277 1.403 . S
C275 C272 1.403 . S
C275 C276 1.524 . S
C275 C279 1.400 . S
C276 H261 0.960 . S
C276 H262 0.960 . S
C276 H263 0.960 . S
C276 C275 1.524 . S
C277 C274 1.403 . S
C277 C278 1.392 . S
C277 C281 1.495 . S
C278 C277 1.392 . S
C278 C279 1.385 . S
C278 C280 1.478 . S
C279 H273 0.930 . S
C279 C275 1.400 . S
C279 C278 1.385 . S
C280 C278 1.478 . S
C280 C282 1.381 . S
C280 C286 1.383 . S
C281 C277 1.495 . S
C281 H287 0.959 . S
C281 H288 0.961 . S
C281 H289 0.960 . S
C282 C280 1.381 . S
C282 C283 1.394 . S
C282 H290 0.930 . S
C283 C282 1.394 . S
C283 C284 1.383 . S
C283 H291 0.929 . S
C284 C283 1.383 . S
C284 C285 1.377 . S
C285 H269 0.930 . S
C285 C284 1.377 . S
C285 C286 1.379 . S
C286 H270 0.931 . S
C286 C280 1.383 . S
C286 C285 1.379 . S
H287 C281 0.959 . S
H288 C281 0.961 . S
H289 C281 0.960 . S
H290 C282 0.930 . S
H291 C283 0.929 . S
H292 C300 0.929 . S
H293 C302 0.930 . S
H294 C304 0.930 . S
H295 C307 0.929 . S
H296 C310 0.930 . S
H297 C312 0.960 . S
H298 C312 0.960 . S
H299 C312 0.960 . S
C300 H292 0.929 . S
C300 C301 1.377 . S
C300 C302 1.384 . S
C301 C300 1.377 . S
C301 C307 1.390 . S
C302 H293 0.930 . S
C302 C300 1.384 . S
C302 C303 1.372 . S
C303 C302 1.372 . S
C303 C304 1.400 . S
C303 C308 1.490 . S
C304 H294 0.930 . S
C304 C303 1.400 . S
C304 C307 1.386 . S
H305 C321 0.930 . S
H306 C322 0.931 . S
C307 H295 0.929 . S
C307 C301 1.390 . S
C307 C304 1.386 . S
C308 C303 1.490 . S
C308 C310 1.395 . S
C308 C311 1.403 . S
H309 C315 0.930 . S
C310 H296 0.930 . S
C310 C308 1.395 . S
C310 C313 1.403 . S
C311 C308 1.403 . S
C311 C312 1.524 . S
C311 C315 1.400 . S
C312 H297 0.960 . S
C312 H298 0.960 . S
C312 H299 0.960 . S
C312 C311 1.524 . S
C313 C310 1.403 . S
C313 C314 1.392 . S
C313 C317 1.495 . S
C314 C313 1.392 . S
C314 C315 1.385 . S
C314 C316 1.478 . S
C315 H309 0.930 . S
C315 C311 1.400 . S
C315 C314 1.385 . S
C316 C314 1.478 . S
C316 C318 1.381 . S
C316 C322 1.383 . S
C317 C313 1.495 . S
C317 H323 0.959 . S
C317 H324 0.961 . S
C317 H325 0.960 . S
C318 C316 1.381 . S
C318 C319 1.394 . S
C318 H326 0.930 . S
C319 C318 1.394 . S
C319 C320 1.383 . S
C319 H327 0.929 . S
C320 C319 1.383 . S
C320 C321 1.377 . S
C321 H305 0.930 . S
C321 C320 1.377 . S
C321 C322 1.379 . S
C322 H306 0.931 . S
C322 C316 1.383 . S
C322 C321 1.379 . S
H323 C317 0.959 . S
H324 C317 0.961 . S
H325 C317 0.960 . S
H326 C318 0.930 . S
H327 C319 0.929 . S
H328 C336 0.929 . S
H329 C338 0.930 . S
H330 C340 0.930 . S
H331 C343 0.929 . S
H332 C346 0.930 . S
H333 C348 0.960 . S
H334 C348 0.960 . S
H335 C348 0.960 . S
C336 H328 0.929 . S
C336 C337 1.377 . S
C336 C338 1.384 . S
C337 C336 1.377 . S
C337 C343 1.390 . S
C338 H329 0.930 . S
C338 C336 1.384 . S
C338 C339 1.372 . S
C339 C338 1.372 . S
C339 C340 1.400 . S
C339 C344 1.490 . S
C340 H330 0.930 . S
C340 C339 1.400 . S
C340 C343 1.386 . S
H341 C357 0.930 . S
H342 C358 0.931 . S
C343 H331 0.929 . S
C343 C337 1.390 . S
C343 C340 1.386 . S
C344 C339 1.490 . S
C344 C346 1.395 . S
C344 C347 1.403 . S
H345 C351 0.930 . S
C346 H332 0.930 . S
C346 C344 1.395 . S
C346 C349 1.403 . S
C347 C344 1.403 . S
C347 C348 1.524 . S
C347 C351 1.400 . S
C348 H333 0.960 . S
C348 H334 0.960 . S
C348 H335 0.960 . S
C348 C347 1.524 . S
C349 C346 1.403 . S
C349 C350 1.392 . S
C349 C353 1.495 . S
C350 C349 1.392 . S
C350 C351 1.385 . S
C350 C352 1.478 . S
C351 H345 0.930 . S
C351 C347 1.400 . S
C351 C350 1.385 . S
C352 C350 1.478 . S
C352 C354 1.381 . S
C352 C358 1.383 . S
C353 C349 1.495 . S
C353 H359 0.959 . S
C353 H360 0.961 . S
C353 H361 0.960 . S
C354 C352 1.381 . S
C354 C355 1.394 . S
C354 H362 0.930 . S
C355 C354 1.394 . S
C355 C356 1.383 . S
C355 H363 0.929 . S
C356 C355 1.383 . S
C356 C357 1.377 . S
C357 H341 0.930 . S
C357 C356 1.377 . S
C357 C358 1.379 . S
C358 H342 0.931 . S
C358 C352 1.383 . S
C358 C357 1.379 . S
H359 C353 0.959 . S
H360 C353 0.961 . S
H361 C353 0.960 . S
H362 C354 0.930 . S
H363 C355 0.929 . S
H364 C372 0.929 . S
H365 C374 0.930 . S
H366 C376 0.930 . S
H367 C379 0.929 . S
H368 C382 0.930 . S
H369 C384 0.960 . S
H370 C384 0.960 . S
H371 C384 0.960 . S
C372 H364 0.929 . S
C372 C373 1.377 . S
C372 C374 1.384 . S
C373 C372 1.377 . S
C373 C379 1.390 . S
C374 H365 0.930 . S
C374 C372 1.384 . S
C374 C375 1.372 . S
C375 C374 1.372 . S
C375 C376 1.400 . S
C375 C380 1.490 . S
C376 H366 0.930 . S
C376 C375 1.400 . S
C376 C379 1.386 . S
H377 C393 0.930 . S
H378 C394 0.931 . S
C379 H367 0.929 . S
C379 C373 1.390 . S
C379 C376 1.386 . S
C380 C375 1.490 . S
C380 C382 1.395 . S
C380 C383 1.403 . S
H381 C387 0.930 . S
C382 H368 0.930 . S
C382 C380 1.395 . S
C382 C385 1.403 . S
C383 C380 1.403 . S
C383 C384 1.524 . S
C383 C387 1.400 . S
C384 H369 0.960 . S
C384 H370 0.960 . S
C384 H371 0.960 . S
C384 C383 1.524 . S
C385 C382 1.403 . S
C385 C386 1.392 . S
C385 C389 1.495 . S
C386 C385 1.392 . S
C386 C387 1.385 . S
C386 C388 1.478 . S
C387 H381 0.930 . S
C387 C383 1.400 . S
C387 C386 1.385 . S
C388 C386 1.478 . S
C388 C390 1.381 . S
C388 C394 1.383 . S
C389 C385 1.495 . S
C389 H395 0.959 . S
C389 H396 0.961 . S
C389 H397 0.960 . S
C390 C388 1.381 . S
C390 C391 1.394 . S
C390 H398 0.930 . S
C391 C390 1.394 . S
C391 C392 1.383 . S
C391 H399 0.929 . S
C392 C391 1.383 . S
C392 C393 1.377 . S
C393 H377 0.930 . S
C393 C392 1.377 . S
C393 C394 1.379 . S
C394 H378 0.931 . S
C394 C388 1.383 . S
C394 C393 1.379 . S
H395 C389 0.959 . S
H396 C389 0.961 . S
H397 C389 0.960 . S
H398 C390 0.930 . S
H399 C391 0.929 . S
H400 C408 0.929 . S
H401 C410 0.930 . S
H402 C412 0.930 . S
H403 C415 0.929 . S
H404 C418 0.930 . S
H405 C420 0.960 . S
H406 C420 0.960 . S
H407 C420 0.960 . S
C408 H400 0.929 . S
C408 C409 1.377 . S
C408 C410 1.384 . S
C409 C408 1.377 . S
C409 C415 1.390 . S
C410 H401 0.930 . S
C410 C408 1.384 . S
C410 C411 1.372 . S
C411 C410 1.372 . S
C411 C412 1.400 . S
C411 C416 1.490 . S
C412 H402 0.930 . S
C412 C411 1.400 . S
C412 C415 1.386 . S
H413 C429 0.930 . S
H414 C430 0.931 . S
C415 H403 0.929 . S
C415 C409 1.390 . S
C415 C412 1.386 . S
C416 C411 1.490 . S
C416 C418 1.395 . S
C416 C419 1.403 1_455 S
H417 C423 0.930 . S
C418 H404 0.930 . S
C418 C416 1.395 . S
C418 C421 1.403 . S
C419 C416 1.403 1_655 S
C419 C420 1.524 . S
C419 C423 1.400 . S
C420 H405 0.960 . S
C420 H406 0.960 . S
C420 H407 0.960 . S
C420 C419 1.524 . S
C421 C418 1.403 . S
C421 C422 1.392 1_455 S
C421 C425 1.495 . S
C422 C421 1.392 1_655 S
C422 C423 1.385 . S
C422 C424 1.478 . S
C423 H417 0.930 . S
C423 C419 1.400 . S
C423 C422 1.385 . S
C424 C422 1.478 . S
C424 C426 1.381 . S
C424 C430 1.383 . S
C425 C421 1.495 . S
C425 H431 0.959 . S
C425 H432 0.961 . S
C425 H433 0.960 . S
C426 C424 1.381 . S
C426 C427 1.394 . S
C426 H434 0.930 . S
C427 C426 1.394 . S
C427 C428 1.383 . S
C427 H435 0.929 . S
C428 C427 1.383 . S
C428 C429 1.377 . S
C429 H413 0.930 . S
C429 C428 1.377 . S
C429 C430 1.379 . S
C430 H414 0.931 . S
C430 C424 1.383 . S
C430 C429 1.379 . S
H431 C425 0.959 . S
H432 C425 0.961 . S
H433 C425 0.960 . S
H434 C426 0.930 . S
H435 C427 0.929 . S
H436 C444 0.929 . S
H437 C446 0.930 . S
H438 C448 0.930 . S
H439 C451 0.929 . S
H440 C454 0.930 . S
H441 C456 0.960 . S
H442 C456 0.960 . S
H443 C456 0.960 . S
C444 H436 0.929 . S
C444 C445 1.377 . S
C444 C446 1.384 . S
C445 C444 1.377 . S
C445 C451 1.390 . S
C446 H437 0.930 . S
C446 C444 1.384 . S
C446 C447 1.372 . S
C447 C446 1.372 . S
C447 C448 1.400 . S
C447 C452 1.490 . S
C448 H438 0.930 . S
C448 C447 1.400 . S
C448 C451 1.386 . S
H449 C465 0.930 . S
H450 C466 0.931 . S
C451 H439 0.929 . S
C451 C445 1.390 . S
C451 C448 1.386 . S
C452 C447 1.490 . S
C452 C454 1.395 . S
C452 C455 1.403 . S
H453 C459 0.930 . S
C454 H440 0.930 . S
C454 C452 1.395 . S
C454 C457 1.403 . S
C455 C452 1.403 . S
C455 C456 1.524 . S
C455 C459 1.400 . S
C456 H441 0.960 . S
C456 H442 0.960 . S
C456 H443 0.960 . S
C456 C455 1.524 . S
C457 C454 1.403 . S
C457 C458 1.392 . S
C457 C461 1.495 . S
C458 C457 1.392 . S
C458 C459 1.385 . S
C458 C460 1.478 . S
C459 H453 0.930 . S
C459 C455 1.400 . S
C459 C458 1.385 . S
C460 C458 1.478 . S
C460 C462 1.381 . S
C460 C466 1.383 . S
C461 C457 1.495 . S
C461 H467 0.959 . S
C461 H468 0.961 . S
C461 H469 0.960 . S
C462 C460 1.381 . S
C462 C463 1.394 . S
C462 H470 0.930 . S
C463 C462 1.394 . S
C463 C464 1.383 . S
C463 H471 0.929 . S
C464 C463 1.383 . S
C464 C465 1.377 . S
C465 H449 0.930 . S
C465 C464 1.377 . S
C465 C466 1.379 . S
C466 H450 0.931 . S
C466 C460 1.383 . S
C466 C465 1.379 . S
H467 C461 0.959 . S
H468 C461 0.961 . S
H469 C461 0.960 . S
H470 C462 0.930 . S
H471 C463 0.929 . S
H472 C480 0.929 . S
H473 C482 0.930 . S
H474 C484 0.930 . S
H475 C487 0.929 . S
H476 C490 0.930 . S
H477 C492 0.960 . S
H478 C492 0.960 . S
H479 C492 0.960 . S
C480 H472 0.929 . S
C480 C481 1.377 . S
C480 C482 1.384 . S
C481 C480 1.377 . S
C481 C487 1.390 . S
C482 H473 0.930 . S
C482 C480 1.384 . S
C482 C483 1.372 . S
C483 C482 1.372 . S
C483 C484 1.400 . S
C483 C488 1.490 . S
C484 H474 0.930 . S
C484 C483 1.400 . S
C484 C487 1.386 . S
H485 C501 0.930 . S
H486 C502 0.931 . S
C487 H475 0.929 . S
C487 C481 1.390 . S
C487 C484 1.386 . S
C488 C483 1.490 . S
C488 C490 1.395 1_455 S
C488 C491 1.403 . S
H489 C495 0.931 1_455 S
C490 H476 0.930 . S
C490 C488 1.395 1_655 S
C490 C493 1.403 . S
C491 C488 1.403 . S
C491 C492 1.524 . S
C491 C495 1.403 1_455 S
C492 H477 0.960 . S
C492 H478 0.960 . S
C492 H479 0.960 . S
C492 C491 1.524 . S
C493 C490 1.403 . S
C493 C494 1.392 . S
C493 C497 1.495 . S
C494 C493 1.392 . S
C494 C495 1.381 . S
C494 C496 1.478 . S
C495 H489 0.931 1_655 S
C495 C491 1.403 1_655 S
C495 C494 1.381 . S
C496 C494 1.478 . S
C496 C498 1.381 . S
C496 C502 1.383 . S
C497 C493 1.495 . S
C497 H503 0.959 . S
C497 H504 0.961 . S
C497 H505 0.960 . S
C498 C496 1.381 . S
C498 C499 1.394 . S
C498 H506 0.930 . S
C499 C498 1.394 . S
C499 C500 1.383 . S
C499 H507 0.929 . S
C500 C499 1.383 . S
C500 C501 1.377 . S
C501 H485 0.930 . S
C501 C500 1.377 . S
C501 C502 1.379 . S
C502 H486 0.931 . S
C502 C496 1.383 . S
C502 C501 1.379 . S
H503 C497 0.959 . S
H504 C497 0.961 . S
H505 C497 0.960 . S
H506 C498 0.930 . S
H507 C499 0.929 . S
H508 C516 0.929 . S
H509 C518 0.930 . S
H510 C520 0.930 . S
H511 C523 0.929 . S
H512 C526 0.930 . S
H513 C528 0.960 . S
H514 C528 0.960 . S
H515 C528 0.960 . S
C516 H508 0.929 . S
C516 C517 1.377 . S
C516 C518 1.384 . S
C517 C516 1.377 . S
C517 C523 1.390 . S
C518 H509 0.930 . S
C518 C516 1.384 . S
C518 C519 1.372 . S
C519 C518 1.372 . S
C519 C520 1.400 . S
C519 C524 1.490 . S
C520 H510 0.930 . S
C520 C519 1.400 . S
C520 C523 1.386 . S
H521 C537 0.930 . S
H522 C538 0.931 . S
C523 H511 0.929 . S
C523 C517 1.390 . S
C523 C520 1.386 . S
C524 C519 1.490 . S
C524 C526 1.395 . S
C524 C527 1.403 . S
H525 C531 0.930 . S
C526 H512 0.930 . S
C526 C524 1.395 . S
C526 C529 1.403 . S
C527 C524 1.403 . S
C527 C528 1.524 . S
C527 C531 1.400 . S
C528 H513 0.960 . S
C528 H514 0.960 . S
C528 H515 0.960 . S
C528 C527 1.524 . S
C529 C526 1.403 . S
C529 C530 1.392 . S
C529 C533 1.495 . S
C530 C529 1.392 . S
C530 C531 1.385 . S
C530 C532 1.478 . S
C531 H525 0.930 . S
C531 C527 1.400 . S
C531 C530 1.385 . S
C532 C530 1.478 . S
C532 C534 1.381 . S
C532 C538 1.383 . S
C533 C529 1.495 . S
C533 H539 0.959 . S
C533 H540 0.961 . S
C533 H541 0.960 . S
C534 C532 1.381 . S
C534 C535 1.394 . S
C534 H542 0.930 . S
C535 C534 1.394 . S
C535 C536 1.383 . S
C535 H543 0.929 . S
C536 C535 1.383 . S
C536 C537 1.377 . S
C537 H521 0.930 . S
C537 C536 1.377 . S
C537 C538 1.379 . S
C538 H522 0.931 . S
C538 C532 1.383 . S
C538 C537 1.379 . S
H539 C533 0.959 . S
H540 C533 0.961 . S
H541 C533 0.960 . S
H542 C534 0.930 . S
H543 C535 0.929 . S
H544 C552 0.929 . S
H545 C554 0.930 . S
H546 C556 0.930 . S
H547 C559 0.929 . S
H548 C562 0.930 . S
H549 C564 0.960 . S
H550 C564 0.960 . S
H551 C564 0.960 1_545 S
C552 H544 0.929 . S
C552 C553 1.377 . S
C552 C554 1.384 . S
C553 C552 1.377 . S
C553 C559 1.390 1_554 S
C554 H545 0.930 . S
C554 C552 1.384 . S
C554 C555 1.372 . S
C555 C554 1.372 . S
C555 C556 1.400 1_554 S
C555 C560 1.490 . S
C556 H546 0.930 . S
C556 C555 1.400 1_556 S
C556 C559 1.386 . S
H557 C573 0.930 . S
H558 C574 0.931 . S
C559 H547 0.929 . S
C559 C553 1.390 1_556 S
C559 C556 1.386 . S
C560 C555 1.490 . S
C560 C562 1.395 1_455 S
C560 C563 1.403 1_544 S
H561 C567 0.930 . S
C562 H548 0.930 . S
C562 C560 1.395 1_655 S
C562 C565 1.403 . S
C563 C560 1.403 1_566 S
C563 C564 1.524 . S
C563 C567 1.400 . S
C564 H549 0.960 . S
C564 H550 0.960 . S
C564 H551 0.960 1_565 S
C564 C563 1.524 . S
C565 C562 1.403 . S
C565 C566 1.392 1_544 S
C565 C569 1.495 . S
C566 C565 1.392 1_566 S
C566 C567 1.385 1_655 S
C566 C568 1.478 . S
C567 H561 0.930 . S
C567 C563 1.400 . S
C567 C566 1.385 1_455 S
C568 C566 1.478 . S
C568 C570 1.381 1_556 S
C568 C574 1.383 . S
C569 C565 1.495 . S
C569 H575 0.959 . S
C569 H576 0.961 . S
C569 H577 0.960 1_545 S
C570 C568 1.381 1_554 S
C570 C571 1.394 . S
C570 H578 0.930 . S
C571 C570 1.394 . S
C571 C572 1.383 1_554 S
C571 H579 0.929 . S
C572 C571 1.383 1_556 S
C572 C573 1.377 . S
C573 H557 0.930 . S
C573 C572 1.377 . S
C573 C574 1.379 . S
C574 H558 0.931 . S
C574 C568 1.383 . S
C574 C573 1.379 . S
H575 C569 0.959 . S
H576 C569 0.961 . S
H577 C569 0.960 1_565 S
H578 C570 0.930 . S
H579 C571 0.929 . S
H580 C588 0.929 . S
H581 C590 0.930 . S
H582 C592 0.930 . S
H583 C595 0.929 . S
H584 C598 0.930 . S
H585 C600 0.960 . S
H586 C600 0.960 . S
H587 C600 0.960 . S
C588 H580 0.929 . S
C588 C589 1.377 . S
C588 C590 1.384 . S
C589 C588 1.377 . S
C589 C595 1.390 . S
C590 H581 0.930 . S
C590 C588 1.384 . S
C590 C591 1.372 . S
C591 C590 1.372 . S
C591 C592 1.400 . S
C591 C596 1.490 . S
C592 H582 0.930 . S
C592 C591 1.400 . S
C592 C595 1.386 . S
H593 C609 0.930 . S
H594 C610 0.931 . S
C595 H583 0.929 . S
C595 C589 1.390 . S
C595 C592 1.386 . S
C596 C591 1.490 . S
C596 C598 1.395 . S
C596 C599 1.403 . S
H597 C603 0.930 . S
C598 H584 0.930 . S
C598 C596 1.395 . S
C598 C601 1.403 . S
C599 C596 1.403 . S
C599 C600 1.524 . S
C599 C603 1.400 . S
C600 H585 0.960 . S
C600 H586 0.960 . S
C600 H587 0.960 . S
C600 C599 1.524 . S
C601 C598 1.403 . S
C601 C602 1.392 . S
C601 C605 1.495 . S
C602 C601 1.392 . S
C602 C603 1.385 . S
C602 C604 1.478 . S
C603 H597 0.930 . S
C603 C599 1.400 . S
C603 C602 1.385 . S
C604 C602 1.478 . S
C604 C606 1.381 . S
C604 C610 1.383 . S
C605 C601 1.495 . S
C605 H611 0.959 . S
C605 H612 0.961 . S
C605 H613 0.960 . S
C606 C604 1.381 . S
C606 C607 1.394 . S
C606 H614 0.930 . S
C607 C606 1.394 . S
C607 C608 1.383 . S
C607 H615 0.929 . S
C608 C607 1.383 . S
C608 C609 1.377 . S
C609 H593 0.930 . S
C609 C608 1.377 . S
C609 C610 1.379 . S
C610 H594 0.931 . S
C610 C604 1.383 . S
C610 C609 1.379 . S
H611 C605 0.959 . S
H612 C605 0.961 . S
H613 C605 0.960 . S
H614 C606 0.930 . S
H615 C607 0.929 . S
H616 C624 0.929 . S
H617 C626 0.930 . S
H618 C628 0.930 . S
H619 C631 0.929 . S
H620 C634 0.930 . S
H621 C636 0.960 . S
H622 C636 0.960 . S
H623 C636 0.960 . S
C624 H616 0.929 . S
C624 C625 1.377 . S
C624 C626 1.384 . S
C625 C624 1.377 . S
C625 C631 1.390 . S
C626 H617 0.930 . S
C626 C624 1.384 . S
C626 C627 1.372 . S
C627 C626 1.372 . S
C627 C628 1.400 . S
C627 C632 1.490 . S
C628 H618 0.930 . S
C628 C627 1.400 . S
C628 C631 1.386 . S
H629 C645 0.930 . S
H630 C646 0.931 . S
C631 H619 0.929 . S
C631 C625 1.390 . S
C631 C628 1.386 . S
C632 C627 1.490 . S
C632 C634 1.395 1_554 S
C632 C635 1.403 . S
H633 C639 0.930 . S
C634 H620 0.930 . S
C634 C632 1.395 1_556 S
C634 C637 1.403 . S
C635 C632 1.403 . S
C635 C636 1.524 . S
C635 C639 1.400 . S
C636 H621 0.960 . S
C636 H622 0.960 . S
C636 H623 0.960 . S
C636 C635 1.524 . S
C637 C634 1.403 . S
C637 C638 1.392 . S
C637 C641 1.495 . S
C638 C637 1.392 . S
C638 C639 1.385 1_556 S
C638 C640 1.478 . S
C639 H633 0.930 . S
C639 C635 1.400 . S
C639 C638 1.385 1_554 S
C640 C638 1.478 . S
C640 C642 1.381 . S
C640 C646 1.383 . S
C641 C637 1.495 . S
C641 H647 0.959 . S
C641 H648 0.961 . S
C641 H649 0.960 . S
C642 C640 1.381 . S
C642 C643 1.394 . S
C642 H650 0.930 . S
C643 C642 1.394 . S
C643 C644 1.383 . S
C643 H651 0.929 . S
C644 C643 1.383 . S
C644 C645 1.377 . S
C645 H629 0.930 . S
C645 C644 1.377 . S
C645 C646 1.379 . S
C646 H630 0.931 . S
C646 C640 1.383 . S
C646 C645 1.379 . S
H647 C641 0.959 . S
H648 C641 0.961 . S
H649 C641 0.960 . S
H650 C642 0.930 . S
H651 C643 0.929 . S
H652 C660 0.929 . S
H653 C662 0.930 . S
H654 C664 0.930 . S
H655 C667 0.929 . S
H656 C670 0.930 . S
H657 C672 0.960 . S
H658 C672 0.960 . S
H659 C672 0.960 . S
C660 H652 0.929 . S
C660 C661 1.377 . S
C660 C662 1.384 . S
C661 C660 1.377 . S
C661 C667 1.390 . S
C662 H653 0.930 . S
C662 C660 1.384 . S
C662 C663 1.372 . S
C663 C662 1.372 . S
C663 C664 1.400 . S
C663 C668 1.490 . S
C664 H654 0.930 . S
C664 C663 1.400 . S
C664 C667 1.386 . S
H665 C681 0.930 . S
H666 C682 0.931 . S
C667 H655 0.929 . S
C667 C661 1.390 . S
C667 C664 1.386 . S
C668 C663 1.490 . S
C668 C670 1.395 1_455 S
C668 C671 1.403 1_565 S
H669 C675 0.930 . S
C670 H656 0.930 . S
C670 C668 1.395 1_655 S
C670 C673 1.403 . S
C671 C668 1.403 1_545 S
C671 C672 1.524 . S
C671 C675 1.400 . S
C672 H657 0.960 . S
C672 H658 0.960 . S
C672 H659 0.960 . S
C672 C671 1.524 . S
C673 C670 1.403 . S
C673 C674 1.392 1_565 S
C673 C677 1.495 . S
C674 C673 1.392 1_545 S
C674 C675 1.385 1_655 S
C674 C676 1.478 . S
C675 H669 0.930 . S
C675 C671 1.400 . S
C675 C674 1.385 1_455 S
C676 C674 1.478 . S
C676 C678 1.381 . S
C676 C682 1.383 . S
C677 C673 1.495 . S
C677 H683 0.959 . S
C677 H684 0.961 . S
C677 H685 0.960 . S
C678 C676 1.381 . S
C678 C679 1.394 . S
C678 H686 0.930 . S
C679 C678 1.394 . S
C679 C680 1.383 . S
C679 H687 0.929 . S
C680 C679 1.383 . S
C680 C681 1.377 . S
C681 H665 0.930 . S
C681 C680 1.377 . S
C681 C682 1.379 . S
C682 H666 0.931 . S
C682 C676 1.383 . S
C682 C681 1.379 . S
H683 C677 0.959 . S
H684 C677 0.961 . S
H685 C677 0.960 . S
H686 C678 0.930 . S
H687 C679 0.929 . S
C121 C21 1.646 . S
C140 C8 1.676 1_556 S
C157 C7 1.645 . S
C176 C22 1.679 . S
C193 C49 1.638 . S
C212 C36 1.680 1_554 S
C229 C35 1.645 . S
C248 C50 1.657 . S
C265 C64 1.673 1_554 S
C284 C77 1.632 . S
C301 C78 1.671 . S
C320 C63 1.618 . S
C337 C92 1.672 1_556 S
C356 C105 1.619 . S
C373 C91 1.642 . S
C392 C106 1.669 . S
C409 C9 0.568 . S
C428 C51 0.587 . S
C445 C23 0.556 . S
C464 C37 0.659 . S
C481 C107 0.558 . S
C500 C65 0.614 . S
C517 C93 0.560 . S
C536 C79 0.627 . S
C553 C3 1.555 . S
C572 C59 1.561 . S
C589 C73 1.552 . S
C608 C17 1.537 . S
C625 C87 1.553 . S
C644 C31 1.539 . S
C661 C101 1.555 . S
C680 C45 1.561 . S
