# Generated by pormake.
# Topology smm, (6)-cn, num edge types: 1
# Building blocks:
#     Node 0, Type 0, BuildingBlock: KUMBUR_clean_sbu_1, # of connection points: 6
#     Node 1, Type 0, BuildingBlock: KUMBUR_clean_sbu_1, # of connection points: 6
#     Node 2, Type 0, BuildingBlock: KUMBUR_clean_sbu_1, # of connection points: 6
#     Node 3, Type 0, BuildingBlock: KUMBUR_clean_sbu_1, # of connection points: 6
#     Node 4, Type 0, BuildingBlock: KUMBUR_clean_sbu_1, # of connection points: 6
#     Node 5, Type 0, BuildingBlock: KUMBUR_clean_sbu_1, # of connection points: 6
#     Node 6, Type 0, BuildingBlock: KUMBUR_clean_sbu_1, # of connection points: 6
#     Node 7, Type 0, BuildingBlock: KUMBUR_clean_sbu_1, # of connection points: 6
#     Node 8, Type 0, BuildingBlock: KUMBUR_clean_sbu_1, # of connection points: 6
#     Edge 9, Type (0, 0), BuildingBlock: CIFDUS_clean_linker_0, # of connection points: 2
#     Edge 10, Type (0, 0), BuildingBlock: CIFDUS_clean_linker_0, # of connection points: 2
#     Edge 11, Type (0, 0), BuildingBlock: CIFDUS_clean_linker_0, # of connection points: 2
#     Edge 12, Type (0, 0), BuildingBlock: CIFDUS_clean_linker_0, # of connection points: 2
#     Edge 13, Type (0, 0), BuildingBlock: CIFDUS_clean_linker_0, # of connection points: 2
#     Edge 14, Type (0, 0), BuildingBlock: CIFDUS_clean_linker_0, # of connection points: 2
#     Edge 15, Type (0, 0), BuildingBlock: CIFDUS_clean_linker_0, # of connection points: 2
#     Edge 16, Type (0, 0), BuildingBlock: CIFDUS_clean_linker_0, # of connection points: 2
#     Edge 17, Type (0, 0), BuildingBlock: CIFDUS_clean_linker_0, # of connection points: 2
#     Edge 18, Type (0, 0), BuildingBlock: CIFDUS_clean_linker_0, # of connection points: 2
#     Edge 19, Type (0, 0), BuildingBlock: CIFDUS_clean_linker_0, # of connection points: 2
#     Edge 20, Type (0, 0), BuildingBlock: CIFDUS_clean_linker_0, # of connection points: 2
#     Edge 21, Type (0, 0), BuildingBlock: CIFDUS_clean_linker_0, # of connection points: 2
#     Edge 22, Type (0, 0), BuildingBlock: CIFDUS_clean_linker_0, # of connection points: 2
#     Edge 23, Type (0, 0), BuildingBlock: CIFDUS_clean_linker_0, # of connection points: 2
#     Edge 24, Type (0, 0), BuildingBlock: CIFDUS_clean_linker_0, # of connection points: 2
#     Edge 25, Type (0, 0), BuildingBlock: CIFDUS_clean_linker_0, # of connection points: 2
#     Edge 26, Type (0, 0), BuildingBlock: CIFDUS_clean_linker_0, # of connection points: 2
#     Edge 27, Type (0, 0), BuildingBlock: CIFDUS_clean_linker_0, # of connection points: 2
#     Edge 28, Type (0, 0), BuildingBlock: CIFDUS_clean_linker_0, # of connection points: 2
#     Edge 29, Type (0, 0), BuildingBlock: CIFDUS_clean_linker_0, # of connection points: 2
#     Edge 30, Type (0, 0), BuildingBlock: CIFDUS_clean_linker_0, # of connection points: 2
#     Edge 31, Type (0, 0), BuildingBlock: CIFDUS_clean_linker_0, # of connection points: 2
#     Edge 32, Type (0, 0), BuildingBlock: CIFDUS_clean_linker_0, # of connection points: 2
#     Edge 33, Type (0, 0), BuildingBlock: CIFDUS_clean_linker_0, # of connection points: 2
#     Edge 34, Type (0, 0), BuildingBlock: CIFDUS_clean_linker_0, # of connection points: 2
#     Edge 35, Type (0, 0), BuildingBlock: CIFDUS_clean_linker_0, # of connection points: 2
# Relax obj value: 0.120
# Max RMSD: 0.228
# Mean RMSD: 0.182
data_MOF--net-smm--node1-KUMBUR_clean_sbu_1--edge1-CIFDUS_clean_linker_0
_symmetry_space_group_name_H-M    P1
_symmetry_Int_Tables_number       1
_symmetry_cell_setting            triclinic
loop_
_symmetry_equiv_pos_as_xyz
'x, y, z'
_cell_length_a     52.82349
_cell_length_b     67.745862
_cell_length_c     13.02334
_cell_angle_alpha  96.223318
_cell_angle_beta   96.943948
_cell_angle_gamma 122.20589
loop_
_atom_site_label
_atom_site_type_symbol
_atom_site_fract_x
_atom_site_fract_y
_atom_site_fract_z
_atom_type_partial_charge
Tb0 Tb 1.0321 0.19453 0.1104 0.0
C1 C 0.17024 0.26335 0.28197 0.0
N2 N 0.14705 0.26552 0.30196 0.0
C3 C 0.17047 0.27888 0.48726 0.0
C4 C 0.19382 0.26797 0.36443 0.0
C5 C 0.14811 0.27472 0.40249 0.0
C6 C 0.19313 0.27507 0.4684 0.0
C7 C 0.19653 0.25776 0.15275 0.0
C8 C 0.17158 0.25819 0.17784 0.0
C9 C 0.21938 0.26136 0.23457 0.0
C10 C 0.21795 0.26634 0.34024 0.0
Tb11 Tb 0.1115 0.25759 0.15552 0.0
N12 N 0.14862 0.25411 0.10073 0.0
C13 C 0.19779 0.2539 0.04615 0.0
C14 C 0.15063 0.25176 0.99689 0.0
C15 C 0.1749 0.25115 0.96797 0.0
H16 H 0.13242 0.27965 0.41803 0.0
H17 H 0.17604 0.24871 0.88553 0.0
H18 H 1.00518 0.18656 0.8563 0.0
H19 H 0.98084 0.1899 0.45083 0.0
H20 H 0.13327 0.25008 0.93661 0.0
H21 H 0.21655 0.2534 0.02355 0.0
H22 H 1.0171 0.18877 0.35257 0.0
H23 H 0.17066 0.28561 0.56681 0.0
H24 H 0.23852 0.26076 0.217 0.0
H25 H 0.23612 0.26964 0.4026 0.0
H26 H 0.9612 0.18328 0.74588 0.0
H27 H 0.21076 0.27873 0.53401 0.0
H28 H 0.93826 0.19135 0.35845 0.0
N29 N 0.992 0.1907 1.00093 0.0
C30 C 0.97008 0.19024 0.04742 0.0
C31 C 0.96358 0.18546 0.83079 0.0
C32 C 0.94453 0.18836 0.98769 0.0
C33 C 0.98865 0.18755 0.8937 0.0
C34 C 0.94157 0.18613 0.87805 0.0
N35 N 0.99804 0.19273 0.209 0.0
C36 C 0.99996 0.19094 0.31274 0.0
C37 C 0.95144 0.19149 0.20732 0.0
C38 C 0.97358 0.19183 0.15553 0.0
C39 C 0.95474 0.19159 0.31562 0.0
C40 C 0.97883 0.19089 0.36812 0.0
H41 H 0.92226 0.18462 0.82918 0.0
H42 H 0.9033 0.18769 0.99501 0.0
H43 H 0.90933 0.19041 0.18751 0.0
O44 O 1.00322 0.16028 0.13966 0.0
O45 O 1.03087 0.22598 0.08032 0.0
O46 O 0.07269 0.2592 0.19429 0.0
O47 O 1.02582 0.16518 0.00812 0.0
O48 O 0.06031 0.20976 0.27249 0.0
O49 O 0.0881 0.25075 0.29022 0.0
O50 O 0.12057 0.28044 0.04824 0.0
O51 O 0.11038 0.22407 0.1094 0.0
O52 O 0.07418 0.19909 0.19186 0.0
O53 O 0.14402 0.29453 0.2105 0.0
O54 O 0.08048 0.24333 1.00018 0.0
O55 O 0.05542 0.20262 0.97696 0.0
C56 C 0.04386 0.24731 0.1418 0.0
C57 C 0.98404 0.12584 0.00676 0.0
C58 C 0.96761 0.08424 0.96109 0.0
C59 C 0.93765 0.07786 0.92273 0.0
C60 C 0.95418 0.11937 0.9673 0.0
C61 C 0.93111 0.0954 0.92478 0.0
C62 C 0.99072 0.10834 1.00194 0.0
C63 C 0.07435 0.23143 0.33067 0.0
C64 C 1.00845 0.15012 0.06215 0.0
C65 C 0.92292 0.18882 0.03928 0.0
C66 C 0.92641 0.19045 0.14895 0.0
C67 C 0.09711 0.20422 0.14609 0.0
C68 C 0.13846 0.32032 0.11468 0.0
C69 C 0.15489 0.35691 0.04839 0.0
C70 C 0.13356 0.35904 0.09519 0.0
C71 C 0.11731 0.32272 0.16039 0.0
C72 C 0.15725 0.33745 0.0593 0.0
C73 C 0.11496 0.34206 0.15073 0.0
C74 C 0.06844 0.22233 0.93963 0.0
C75 C 0.14045 0.29957 0.11867 0.0
H76 H 0.91939 0.05937 0.89107 0.0
H77 H 0.94868 0.13269 0.97109 0.0
H78 H 0.90798 0.09035 0.89488 0.0
H79 H 1.01377 0.11338 0.03425 0.0
H80 H 0.13126 0.37385 0.08896 0.0
H81 H 0.1025 0.30959 0.20252 0.0
H82 H 0.17307 0.3352 0.022 0.0
H83 H 0.09845 0.34377 0.18548 0.0
Tb84 Tb 0.93728 0.8744 0.04942 0.0
C85 C 1.00808 0.82829 0.94332 0.0
N86 N 0.97793 0.81912 0.90662 0.0
C87 C 0.98217 0.80746 0.732 0.0
C88 C 1.02679 0.82822 0.87488 0.0
C89 C 0.96452 0.80773 0.80339 0.0
C90 C 1.01354 0.81805 0.76758 0.0
C91 C 0.05092 0.84625 0.09309 0.0
C92 C 1.02 0.83706 0.05075 0.0
C93 C 0.0699 0.84684 0.02496 0.0
C94 C 0.05786 0.83785 0.91607 0.0
Tb95 Tb 0.95183 0.82143 0.03065 0.0
N96 N 1.0012 0.83702 0.11361 0.0
C97 C 0.06168 0.8544 0.20261 0.0
C98 C 1.01106 0.84365 0.22101 0.0
C99 C 1.04155 0.8528 0.26692 0.0
H100 H 0.94007 0.79826 0.77627 0.0
H101 H 0.04949 0.85853 0.35185 0.0
H102 H 0.92419 0.87797 0.28818 0.0
H103 H 0.87053 0.86107 0.66543 0.0
H104 H 0.99553 0.84211 0.27114 0.0
H105 H 0.0853 0.86157 0.23838 0.0
H106 H 0.9173 0.87325 0.78967 0.0
H107 H 0.97146 0.79876 0.64993 0.0
H108 H 0.0938 0.85398 0.05577 0.0
H109 H 0.07265 0.83811 0.86463 0.0
H110 H 0.88154 0.87218 0.37072 0.0
H111 H 1.0271 0.81765 0.71229 0.0
H112 H 0.82332 0.84973 0.72969 0.0
N113 N 0.89878 0.86805 0.13142 0.0
C114 C 0.87276 0.86298 0.0686 0.0
C115 C 0.87865 0.86928 0.28557 0.0
C116 C 0.84802 0.85993 0.11189 0.0
C117 C 0.9026 0.87219 0.23879 0.0
C118 C 0.85111 0.86291 0.22177 0.0
N119 N 0.89617 0.8653 0.9229 0.0
C120 C 0.89658 0.86667 0.8189 0.0
C121 C 0.8441 0.85504 0.89255 0.0
C122 C 0.87104 0.8608 0.96054 0.0
C123 C 0.84361 0.85419 0.78459 0.0
C124 C 0.87016 0.86045 0.74797 0.0
H125 H 0.83255 0.86061 0.25807 0.0
H126 H 0.80152 0.85075 0.07611 0.0
H127 H 0.79784 0.84608 0.88338 0.0
O128 O 0.93706 0.9044 0.02325 0.0
O129 O 0.9029 0.83963 0.08163 0.0
O130 O 0.90388 0.81167 0.97035 0.0
O131 O 0.96724 0.90699 0.15822 0.0
O132 O 0.9456 0.86332 0.8971 0.0
O133 O 0.92896 0.82348 0.8818 0.0
O134 O 0.94139 0.79723 0.13477 0.0
O135 O 0.99413 0.86124 0.06367 0.0
O136 O 0.97709 0.88204 0.9846 0.0
O137 O 0.93843 0.78547 0.97498 0.0
O138 O 0.94107 0.83113 0.17766 0.0
O139 O 0.96138 0.87128 0.19198 0.0
C140 C 0.88821 0.81934 0.01306 0.0
C141 C 0.98212 0.94242 0.0923 0.0
C142 C 0.99491 0.98177 0.0658 0.0
C143 C 1.02584 0.98931 0.07768 0.0
C144 C 1.01304 0.95036 0.10424 0.0
C145 C 1.0347 0.97364 0.09594 0.0
C146 C 0.97321 0.95805 0.07184 0.0
C147 C 0.93647 0.84235 0.83988 0.0
C148 C 0.95859 0.91844 0.10566 0.0
C149 C 0.821 0.85376 0.04428 0.0
C150 C 0.81889 0.851 0.93475 0.0
C151 C 1.00009 0.88084 0.02614 0.0
C152 C 0.90688 0.75453 0.0693 0.0
C153 C 0.88076 0.71154 0.09105 0.0
C154 C 0.85436 0.71161 0.09567 0.0
C155 C 0.87932 0.75271 0.073 0.0
C156 C 0.90734 0.73344 0.07674 0.0
C157 C 0.8536 0.73165 0.08583 0.0
C158 C 0.95199 0.85234 0.23485 0.0
C159 C 0.93482 0.77897 0.06522 0.0
H160 H 0.04339 1.00746 0.07546 0.0
H161 H 1.02049 0.93873 0.12113 0.0
H162 H 0.05857 0.97972 0.10557 0.0
H163 H 0.94918 0.95159 0.06125 0.0
H164 H 0.83365 0.69571 0.10488 0.0
H165 H 0.87777 0.7679 0.06749 0.0
H166 H 0.92824 0.73423 0.0737 0.0
H167 H 0.83269 0.73086 0.08873 0.0
Tb168 Tb 0.21597 0.06032 0.05157 0.0
C169 C 0.22349 0.97379 0.17345 0.0
N170 N 0.2445 0.9976 0.20738 0.0
C171 C 0.25537 0.99169 0.38138 0.0
C172 C 0.21715 0.95797 0.24313 0.0
C173 C 0.26099 1.00664 0.309 0.0
C174 C 0.23321 0.96726 0.3485 0.0
C175 C 0.18605 0.94071 0.03004 0.0
C176 C 0.20812 0.96524 0.06832 0.0
C177 C 0.1796 0.92487 0.09924 0.0
C178 C 0.19507 0.93348 0.20552 0.0
Tb179 Tb 0.25134 1.02018 0.08263 0.0
N180 N 0.21388 0.9813 0.00486 0.0
C181 C 0.17096 0.9329 0.92366 0.0
C182 C 0.20008 0.97363 0.89975 0.0
C183 C 0.1782 0.9494 0.85815 0.0
H184 H 0.27919 1.02528 0.33293 0.0
H185 H 0.16698 0.94344 0.77541 0.0
H186 H 0.22375 0.07295 0.81485 0.0
H187 H 0.27003 0.11615 0.44681 0.0
H188 H 0.20579 0.98609 0.84799 0.0
H189 H 0.15386 0.91418 0.89117 0.0
H190 H 0.23082 0.0801 0.31731 0.0
H191 H 0.26837 0.99898 0.46208 0.0
H192 H 0.1626 0.90595 0.07146 0.0
H193 H 0.18982 0.92105 0.25794 0.0
H194 H 0.25751 0.10777 0.74054 0.0
H195 H 0.22897 0.95571 0.40463 0.0
H196 H 0.30892 0.15157 0.38754 0.0
N197 N 0.24569 0.0911 0.97422 0.0
C198 C 0.26667 0.1123 0.04161 0.0
C199 C 0.26052 0.1092 0.82531 0.0
C200 C 0.28648 0.13258 0.00284 0.0
C201 C 0.24164 0.08945 0.86743 0.0
C202 C 0.28322 0.1308 0.89324 0.0
N203 N 0.24981 0.09299 0.18458 0.0
C204 C 0.24887 0.09446 0.28956 0.0
C205 C 0.29138 0.13463 0.22172 0.0
C206 C 0.26926 0.1131 0.14994 0.0
C207 C 0.29231 0.13537 0.32987 0.0
C208 C 0.27057 0.11535 0.36369 0.0
H209 H 0.29796 0.14601 0.86031 0.0
H210 H 0.32455 0.16959 0.04615 0.0
H211 H 0.32869 0.17146 0.23758 0.0
O212 O 0.19689 0.07926 0.1096 0.0
O213 O 0.26321 0.0721 0.02184 0.0
O214 O 0.28399 0.0595 0.14092 0.0
O215 O 0.17969 0.05858 0.95362 0.0
O216 O 0.21207 0.04458 0.19243 0.0
O217 O 0.25492 0.04308 0.2251 0.0
O218 O 0.27828 1.0195 0.97658 0.0
O219 O 0.2005 1.00051 0.07164 0.0
O220 O 0.17794 1.02195 0.04946 0.0
O221 O 0.28639 1.01457 0.13284 0.0
O222 O 0.24631 1.02967 0.9288 0.0
O223 O 0.20776 0.03693 0.90228 0.0
C224 C 0.28779 0.07557 0.08404 0.0
C225 C 0.17603 0.09275 0.9789 0.0
C226 C 0.1643 0.12407 0.98967 0.0
C227 C 0.16828 0.12553 0.88537 0.0
C228 C 0.17963 0.0953 0.87489 0.0
C229 C 0.17584 0.11143 0.82921 0.0
C230 C 0.16803 0.1073 0.03665 0.0
C231 C 0.23107 0.04175 0.25474 0.0
C232 C 0.17835 0.07357 0.02054 0.0
C233 C 0.30898 0.15383 0.07436 0.0
C234 C 0.31142 0.15485 0.18343 0.0
C235 C 0.17593 1.00161 0.05834 0.0
C236 C 0.29638 0.9943 0.99862 0.0
C237 C 0.3267 0.97751 0.96034 0.0
C238 C 0.29925 0.95584 0.9102 0.0
C239 C 0.26984 0.97244 0.94581 0.0
C240 C 0.32512 0.99676 0.00654 0.0
C241 C 0.2712 0.95339 0.90315 0.0
C242 C 0.227 0.03237 0.86719 0.0
C243 C 0.29376 1.01441 0.04146 0.0
H244 H 0.16561 0.13789 0.84667 0.0
H245 H 0.18489 0.08444 0.82687 0.0
H246 H 0.17868 0.11295 0.74889 0.0
H247 H 0.16499 0.10572 0.11676 0.0
H248 H 0.29945 0.94062 0.87609 0.0
H249 H 0.24787 0.97 0.93595 0.0
H250 H 0.34598 1.01359 0.04575 0.0
H251 H 0.25034 0.93664 0.86337 0.0
Tb252 Tb 0.81666 0.5237 0.13547 0.0
C253 C 0.68425 0.49261 0.03177 0.0
N254 N 0.70887 0.51211 0.01062 0.0
C255 C 0.6816 0.50213 0.83154 0.0
C256 C 0.65794 0.4764 0.95237 0.0
C257 C 0.707 0.51783 0.9136 0.0
C258 C 0.65722 0.48106 0.85038 0.0
C259 C 0.65897 0.47101 0.16337 0.0
C260 C 0.68456 0.48997 0.13531 0.0
C261 C 0.63334 0.45398 0.08386 0.0
C262 C 0.63281 0.45668 0.97843 0.0
Tb263 Tb 0.75025 0.5351 0.14993 0.0
N264 N 0.70989 0.50663 0.20942 0.0
C265 C 0.65972 0.47017 0.27065 0.0
C266 C 0.70995 0.50696 0.31453 0.0
C267 C 0.68511 0.48849 0.34671 0.0
H268 H 0.72482 0.5346 0.89893 0.0
H269 H 0.68559 0.48836 0.42994 0.0
H270 H 0.85336 0.55116 0.38467 0.0
H271 H 0.85514 0.537 0.76713 0.0
H272 H 0.72953 0.52115 0.37297 0.0
H273 H 0.64053 0.45587 0.29567 0.0
H274 H 0.8214 0.51428 0.88367 0.0
H275 H 0.68066 0.5065 0.75423 0.0
H276 H 0.61352 0.43908 0.10338 0.0
H277 H 0.61252 0.44386 0.91829 0.0
H278 H 0.90277 0.58755 0.47765 0.0
H279 H 0.63744 0.46907 0.78702 0.0
H280 H 0.90313 0.57632 0.84311 0.0
N281 N 0.86163 0.55681 0.23112 0.0
C282 C 0.8824 0.57001 0.17396 0.0
C283 C 0.89715 0.58295 0.39215 0.0
C284 C 0.91088 0.59091 0.22374 0.0
C285 C 0.86903 0.56243 0.33919 0.0
C286 C 0.91802 0.5974 0.33421 0.0
N287 N 0.84733 0.54185 0.02057 0.0
C288 C 0.84102 0.5321 0.91597 0.0
C289 C 0.89548 0.5757 0.00275 0.0
C290 C 0.87465 0.56256 0.06496 0.0
C291 C 0.88777 0.56676 0.89374 0.0
C292 C 0.86065 0.54464 0.85047 0.0
H293 H 0.93974 0.6133 0.37555 0.0
H294 H 0.95328 0.62069 0.19854 0.0
H295 H 0.93984 0.60734 0.00503 0.0
O296 O 0.8388 0.50724 0.08121 0.0
O297 O 0.82777 0.56168 0.18481 0.0
O298 O 0.78887 0.56236 0.09101 0.0
O299 O 0.82387 0.50244 0.22623 0.0
O300 O 0.78422 0.51272 0.98392 0.0
O301 O 0.76769 0.53808 0.00319 0.0
O302 O 0.75918 0.5627 0.27019 0.0
O303 O 0.74296 0.50132 0.18281 0.0
O304 O 0.76841 0.49145 0.07994 0.0
O305 O 0.72384 0.54971 0.13154 0.0
O306 O 0.78324 0.54456 0.29848 0.0
O307 O 0.79987 0.51928 0.28195 0.0
C308 C 0.81785 0.57365 0.1376 0.0
C309 C 0.86447 0.49719 0.20904 0.0
C310 C 0.89023 0.47605 0.23947 0.0
C311 C 0.91373 0.49633 0.31386 0.0
C312 C 0.88873 0.51717 0.28251 0.0
C313 C 0.91309 0.51672 0.33434 0.0
C314 C 0.86554 0.47663 0.18635 0.0
C315 C 0.77463 0.52527 0.94405 0.0
C316 C 0.83725 0.49716 0.16143 0.0
C317 C 0.93132 0.60448 0.16185 0.0
C318 C 0.92362 0.59691 0.05159 0.0
C319 C 0.74568 0.48502 0.13068 0.0
C320 C 0.75204 0.59087 0.20723 0.0
C321 C 0.7666 0.63081 0.28745 0.0
C322 C 0.77613 0.6386 0.19498 0.0
C323 C 0.76175 0.59899 0.11584 0.0
C324 C 0.7549 0.60686 0.29284 0.0
C325 C 0.77379 0.62277 0.11012 0.0
C326 C 0.79135 0.53115 0.33856 0.0
C327 C 0.73988 0.56608 0.21692 0.0
H328 H 0.93296 0.49653 0.35528 0.0
H329 H 0.88872 0.53308 0.30101 0.0
H330 H 0.93156 0.53226 0.39134 0.0
H331 H 0.84702 0.46103 0.12957 0.0
H332 H 0.78497 0.6568 0.18736 0.0
H333 H 0.7602 0.58702 0.04939 0.0
H334 H 0.74822 0.60056 0.36418 0.0
H335 H 0.78131 0.62897 0.03959 0.0
Tb336 Tb 0.53572 0.2344 0.12951 0.0
C337 C 0.5659 0.16046 0.98861 0.0
N338 N 0.54257 0.16235 0.94694 0.0
C339 C 0.55029 0.15482 0.77249 0.0
C340 C 0.58329 0.15684 0.9242 0.0
C341 C 0.53327 0.15779 0.83959 0.0
C342 C 0.57583 0.15484 0.81518 0.0
C343 C 0.59291 0.15634 0.14048 0.0
C344 C 0.57076 0.16026 0.09509 0.0
C345 C 0.61123 0.15381 0.07773 0.0
C346 C 0.60653 0.15418 0.96987 0.0
Tb347 Tb 0.51631 0.16692 0.0656 0.0
N348 N 0.55314 0.16334 0.15386 0.0
C349 C 0.5956 0.15475 0.24712 0.0
C350 C 0.55477 0.16086 0.25679 0.0
C351 C 0.57619 0.15674 0.30516 0.0
H352 H 0.51207 0.15546 0.80473 0.0
H353 H 0.57762 0.15501 0.38697 0.0
H354 H 0.54532 0.25151 0.38753 0.0
H355 H 0.4552 0.22297 0.79079 0.0
H356 H 0.53946 0.16199 0.30136 0.0
H357 H 0.61222 0.15162 0.28482 0.0
H358 H 0.49987 0.22416 0.87854 0.0
H359 H 0.54313 0.1518 0.68769 0.0
H360 H 0.62866 0.1511 0.11135 0.0
H361 H 0.62029 0.15158 0.92178 0.0
H362 H 0.51906 0.26183 0.50553 0.0
H363 H 0.5886 0.15203 0.7629 0.0
H364 H 0.42577 0.23234 0.89698 0.0
N365 N 0.51404 0.2443 0.24725 0.0
C366 C 0.48961 0.24467 0.20375 0.0
C367 C 0.51042 0.25688 0.42087 0.0
C368 C 0.47416 0.25075 0.26804 0.0
C369 C 0.52503 0.25073 0.3539 0.0
C370 C 0.4848 0.25678 0.37784 0.0
N371 N 0.49506 0.23255 0.03433 0.0
C372 C 0.48689 0.22747 0.92663 0.0
C373 C 0.45435 0.23861 0.04672 0.0
C374 C 0.47985 0.23868 0.09409 0.0
C375 C 0.44524 0.23258 0.93643 0.0
C376 C 0.46171 0.22717 0.87623 0.0
H377 H 0.47356 0.26158 0.42997 0.0
H378 H 0.43651 0.25523 0.26905 0.0
H379 H 0.41917 0.24459 0.07558 0.0
O380 O 0.552 0.26591 0.06833 0.0
O381 O 0.48764 0.2027 0.13498 0.0
O382 O 0.47862 0.17136 0.01322 0.0
O383 O 0.5729 0.2678 0.22304 0.0
O384 O 0.54181 0.22253 0.97765 0.0
O385 O 0.50824 0.18155 0.93092 0.0
O386 O 0.48835 0.13861 0.13868 0.0
O387 O 0.56293 0.19675 0.15032 0.0
O388 O 0.57306 0.23048 0.09203 0.0
O389 O 0.49091 0.13184 0.97737 0.0
O390 O 0.50973 0.17933 0.21624 0.0
O391 O 0.54517 0.2205 0.26544 0.0
C392 C 0.46822 0.1805 0.07682 0.0
C393 C 0.58315 0.30527 0.18032 0.0
C394 C 0.61707 0.34913 0.18283 0.0
C395 C 0.59836 0.35232 0.24174 0.0
C396 C 0.56577 0.3099 0.23926 0.0
C397 C 0.57328 0.3331 0.26922 0.0
C398 C 0.60885 0.32507 0.15096 0.0
C399 C 0.52729 0.20237 0.90802 0.0
C400 C 0.57426 0.27986 0.14961 0.0
C401 C 0.44871 0.25063 0.22091 0.0
C402 C 0.43883 0.24457 0.11066 0.0
C403 C 0.58207 0.21685 0.1225 0.0
C404 C 0.49207 0.10577 0.08213 0.0
C405 C 0.50196 0.08421 0.20404 0.0
C406 C 0.5137 0.077 0.12757 0.0
C407 C 0.5035 0.09784 0.00708 0.0
C408 C 0.49119 0.09871 0.18055 0.0
C409 C 0.51436 0.08373 0.03013 0.0
C410 C 0.52658 0.19936 0.28821 0.0
C411 C 0.4831 0.12255 0.05947 0.0
H412 H 0.60279 0.36988 0.26584 0.0
H413 H 0.5462 0.29549 0.26208 0.0
H414 H 0.5594 0.33627 0.31429 0.0
H415 H 0.62252 0.3218 0.10521 0.0
H416 H 0.52293 0.06644 0.14357 0.0
H417 H 0.5047 0.10292 0.93087 0.0
H418 H 0.48226 0.10458 0.23866 0.0
H419 H 0.52369 0.07823 0.97247 0.0
Tb420 Tb 0.90276 0.32 0.20571 0.0
C421 C 0.99189 0.42671 0.28733 0.0
N422 N 0.99257 0.41003 0.22175 0.0
C423 C 0.99803 0.43136 0.08186 0.0
C424 C 0.99252 0.44574 0.25067 0.0
C425 C 0.99698 0.41261 0.12157 0.0
C426 C 0.9954 0.44783 0.14622 0.0
C427 C 0.98798 0.44063 0.46023 0.0
C428 C 0.98933 0.42396 0.39026 0.0
C429 C 0.98774 0.4593 0.42349 0.0
C430 C 0.99002 0.46186 0.31896 0.0
Tb431 Tb 0.99042 0.38005 0.29362 0.0
N432 N 0.98911 0.40539 0.42244 0.0
C433 C 0.98765 0.43834 0.56557 0.0
C434 C 0.99213 0.40475 0.52758 0.0
C435 C 0.99045 0.42065 0.59987 0.0
H436 H 0.99915 0.39996 0.07198 0.0
H437 H 0.992 0.41957 0.68248 0.0
H438 H 0.89721 0.30457 0.44276 0.0
H439 H 0.88309 0.26965 0.82121 0.0
H440 H 0.99692 0.39261 0.55739 0.0
H441 H 0.9866 0.45076 0.62189 0.0
H442 H 0.89039 0.30321 0.9464 0.0
H443 H 1.0008 0.43308 1.00165 0.0
H444 H 0.98629 0.47208 0.47575 0.0
H445 H 0.99004 0.47644 0.29197 0.0
H446 H 0.89569 0.27298 0.52365 0.0
H447 H 0.99592 0.46219 0.11491 0.0
H448 H 0.88153 0.23617 0.88723 0.0
N449 N 0.89871 0.29081 0.29051 0.0
C450 C 0.89463 0.27152 0.22738 0.0
C451 C 0.89598 0.27257 0.4405 0.0
C452 C 0.89268 0.25256 0.26948 0.0
C453 C 0.89774 0.29092 0.39483 0.0
C454 C 0.89397 0.2535 0.37794 0.0
N455 N 0.89422 0.2894 0.08231 0.0
C456 C 0.89033 0.28896 0.97641 0.0
C457 C 0.88774 0.25109 0.05105 0.0
C458 C 0.892 0.27068 0.11956 0.0
C459 C 0.88485 0.25091 0.94262 0.0
C460 C 0.88584 0.26982 0.90509 0.0
H461 H 0.8925 0.23928 0.41347 0.0
H462 H 0.88779 0.21854 0.23298 0.0
H463 H 0.88361 0.21731 0.04175 0.0
O464 O 0.86351 0.31323 0.10002 0.0
O465 O 0.94187 0.31581 0.19207 0.0
O466 O 0.98402 0.34601 0.31885 0.0
O467 O 0.85955 0.30149 0.24615 0.0
O468 O 0.92292 0.34027 0.08255 0.0
O469 O 0.97604 0.35866 0.13267 0.0
O470 O 1.0343 0.40501 0.39133 0.0
O471 O 0.9514 0.38054 0.21219 0.0
O472 O 0.91132 0.35446 0.27923 0.0
O473 O 1.02999 0.38927 0.23399 0.0
O474 O 0.97244 0.35884 0.4158 0.0
O475 O 0.91976 0.34048 0.36911 0.0
C476 C 0.96936 0.32507 0.25264 0.0
C477 C 0.8132 0.28105 0.11608 0.0
C478 C 0.75656 0.25956 0.09385 0.0
C479 C 0.7542 0.23863 0.04971 0.0
C480 C 0.80944 0.2597 0.07068 0.0
C481 C 0.78024 0.23877 0.03756 0.0
C482 C 0.78645 0.28098 0.12643 0.0
C483 C 0.95041 0.34878 0.06005 0.0
C484 C 0.84483 0.30261 0.16205 0.0
C485 C 0.88906 0.23317 0.20192 0.0
C486 C 0.8866 0.23244 0.09296 0.0
C487 C 0.92637 0.3745 0.24632 0.0
C488 C 0.07732 0.40465 0.35568 0.0
C489 C 0.13305 0.42733 0.42854 0.0
C490 C 0.13147 0.40583 0.40918 0.0
C491 C 0.07676 0.38363 0.33809 0.0
C492 C 0.10559 0.42654 0.40252 0.0
C493 C 0.1036 0.38424 0.36543 0.0
C494 C 0.94512 0.34892 0.43974 0.0
C495 C 0.04907 0.40419 0.32027 0.0
H496 H 0.73195 0.22202 0.02348 0.0
H497 H 0.82917 0.25908 0.06261 0.0
H498 H 0.77777 0.2224 0.00312 0.0
H499 H 0.78895 0.29728 0.16235 0.0
H500 H 0.15189 0.4057 0.42908 0.0
H501 H 0.05563 0.36676 0.3019 0.0
H502 H 0.10636 0.44293 0.41592 0.0
H503 H 0.10283 0.36787 0.352 0.0
Tb504 Tb 0.43406 0.8917 0.84381 0.0
C505 C 0.5771 0.9708 0.0348 0.0
N506 N 0.55243 0.97159 0.04625 0.0
C507 C 0.57655 0.9925 0.22616 0.0
C508 C 0.60258 0.98081 0.11907 0.0
C509 C 0.55194 0.98251 0.13979 0.0
C510 C 0.60195 0.99157 0.21594 0.0
C511 C 0.60232 0.95954 0.92082 0.0
C512 C 0.57688 0.96016 0.9375 0.0
C513 C 0.62776 0.96935 0.00463 0.0
C514 C 0.62785 0.97989 0.10365 0.0
Tb515 Tb 0.51337 0.9541 0.90114 0.0
N516 N 0.5515 0.95027 0.85931 0.0
C517 C 0.60145 0.9492 0.82026 0.0
C518 C 0.55094 0.94093 0.76013 0.0
C519 C 0.57573 0.94002 0.7394 0.0
H520 H 0.53294 0.9841 0.14687 0.0
H521 H 0.57501 0.93231 0.66098 0.0
H522 H 0.40895 0.87907 0.58414 0.0
H523 H 0.3862 0.90458 0.17067 0.0
H524 H 0.53154 0.93418 0.69675 0.0
H525 H 0.62055 0.94839 0.80404 0.0
H526 H 0.41975 0.89647 0.08697 0.0
H527 H 0.57605 1.00111 0.30018 0.0
H528 H 0.6475 0.96895 0.9936 0.0
H529 H 0.64765 0.98746 0.16747 0.0
H530 H 0.36745 0.87629 0.46037 0.0
H531 H 0.62106 0.99944 0.28277 0.0
H532 H 0.34598 0.90612 0.06036 0.0
N533 N 0.39572 0.88743 0.72178 0.0
C534 C 0.37497 0.89036 0.76089 0.0
C535 C 0.3694 0.88038 0.54476 0.0
C536 C 0.35086 0.88891 0.69312 0.0
C537 C 0.39308 0.88218 0.61521 0.0
C538 C 0.34828 0.88388 0.58382 0.0
N539 N 0.40248 0.89716 0.93209 0.0
C540 C 0.40412 0.8989 0.03842 0.0
C541 C 0.35787 0.89915 0.91351 0.0
C542 C 0.37866 0.89564 0.86961 0.0
C543 C 0.36142 0.9033 0.02341 0.0
C544 C 0.38427 0.90267 0.08597 0.0
H545 H 0.33008 0.88262 0.52904 0.0
H546 H 0.31193 0.89201 0.68577 0.0
H547 H 0.318 0.90089 0.87883 0.0
O548 O 0.4196 0.86378 0.92616 0.0
O549 O 0.43694 0.92377 0.80689 0.0
O550 O 0.47393 0.95443 0.93918 0.0
O551 O 0.40474 0.85661 0.7564 0.0
O552 O 0.46266 0.90534 0.00578 0.0
O553 O 0.48851 0.94617 0.02956 0.0
O554 O 0.51874 0.97293 0.77865 0.0
O555 O 0.51713 0.92335 0.92635 0.0
O556 O 0.47359 0.89091 0.81695 0.0
O557 O 0.54019 0.99166 0.94019 0.0
O558 O 0.48734 0.93819 0.73614 0.0
O559 O 0.45829 0.89716 0.71376 0.0
C560 C 0.44715 0.94361 0.87403 0.0
C561 C 0.37556 0.82573 0.84508 0.0
C562 C 0.35188 0.78393 0.8522 0.0
C563 C 0.32311 0.78089 0.83932 0.0
C564 C 0.34693 0.82275 0.83076 0.0
C565 C 0.32075 0.80033 0.82934 0.0
C566 C 0.37792 0.80666 0.8587 0.0
C567 C 0.47741 0.92664 0.06787 0.0
C568 C 0.40383 0.84762 0.83992 0.0
C569 C 0.33047 0.89287 0.73652 0.0
C570 C 0.334 0.89801 0.84646 0.0
C571 C 0.50014 0.90039 0.88144 0.0
C572 C 0.51995 1.00786 0.82888 0.0
C573 C 0.50512 1.02799 0.71382 0.0
C574 C 0.49231 0.033 0.79313 0.0
C575 C 0.50667 1.01287 0.90631 0.0
C576 C 0.51904 1.01544 0.73279 0.0
C577 C 0.493 1.02539 0.88834 0.0
C578 C 0.4726 0.91673 0.6759 0.0
C579 C 0.53299 0.99345 0.84397 0.0
H580 H 0.30254 0.76354 0.83447 0.0
H581 H 0.34485 0.83749 0.81991 0.0
H582 H 0.29854 0.79788 0.81826 0.0
H583 H 0.40044 0.80953 0.872 0.0
H584 H 0.48108 0.0423 0.78062 0.0
H585 H 0.50645 1.00687 0.98018 0.0
H586 H 0.52904 1.01142 0.67257 0.0
H587 H 0.48259 1.02898 0.94808 0.0
Tb588 Tb 0.35202 0.58988 0.739 0.0
C589 C 0.43713 0.55257 0.66201 0.0
N590 N 0.40838 0.5444 0.61034 0.0
C591 C 0.42089 0.53724 0.445 0.0
C592 C 0.45913 0.55372 0.60701 0.0
C593 C 0.39965 0.53582 0.50354 0.0
C594 C 0.45089 0.5465 0.49682 0.0
C595 C 0.47233 0.5647 0.82901 0.0
C596 C 0.44376 0.55818 0.77106 0.0
C597 C 0.49459 0.5663 0.77483 0.0
C598 C 0.48813 0.56109 0.66398 0.0
Tb599 Tb 0.37596 0.54371 0.71385 0.0
N600 N 0.42142 0.55589 0.82038 0.0
C601 C 0.4772 0.56853 0.93944 0.0
C602 C 0.4252 0.55784 0.92754 0.0
C603 C 0.45335 0.56475 0.98884 0.0
H604 H 0.37614 0.5274 0.46328 0.0
H605 H 0.45653 0.5669 0.07393 0.0
H606 H 0.3183 0.5737 0.93974 0.0
H607 H 0.31102 0.59615 0.34898 0.0
H608 H 0.40661 0.55434 0.96565 0.0
H609 H 0.49889 0.57365 0.98693 0.0
H610 H 0.35027 0.60481 0.50092 0.0
H611 H 0.41395 0.53078 0.36022 0.0
H612 H 0.51675 0.57137 0.81785 0.0
H613 H 0.5054 0.56216 0.6232 0.0
H614 H 0.26614 0.55575 0.9741 0.0
H615 H 0.46716 0.54718 0.45153 0.0
H616 H 0.25647 0.57392 0.36016 0.0
N617 N 0.30459 0.57231 0.77738 0.0
C618 C 0.2817 0.56812 0.69943 0.0
C619 C 0.27015 0.5589 0.89617 0.0
C620 C 0.25162 0.55796 0.71531 0.0
C621 C 0.2996 0.56886 0.87633 0.0
C622 C 0.24598 0.55318 0.81502 0.0
N623 N 0.31829 0.58479 0.59345 0.0
C624 C 0.32655 0.5937 0.50506 0.0
C625 C 0.26547 0.56957 0.51995 0.0
C626 C 0.28864 0.57392 0.60336 0.0
C627 C 0.27358 0.57695 0.42617 0.0
C628 C 0.30433 0.5894 0.41939 0.0
H629 H 0.22317 0.54538 0.83047 0.0
H630 H 0.20495 0.54482 0.64157 0.0
H631 H 0.21706 0.55497 0.47038 0.0
O632 O 0.35169 0.62045 0.72715 0.0
O633 O 0.31728 0.55087 0.71881 0.0
O634 O 0.3338 0.53394 0.60815 0.0
O635 O 0.36674 0.61545 0.87731 0.0
O636 O 0.37415 0.59027 0.60516 0.0
O637 O 0.36387 0.55217 0.56351 0.0
O638 O 0.35197 0.51687 0.79771 0.0
O639 O 0.41227 0.58133 0.79532 0.0
O640 O 0.39965 0.60514 0.72027 0.0
O641 O 0.36855 0.50996 0.66504 0.0
O642 O 0.35469 0.54666 0.84345 0.0
O643 O 0.37138 0.58578 0.88743 0.0
C644 C 0.31123 0.53412 0.6396 0.0
C645 C 0.39029 0.65473 0.85028 0.0
C646 C 0.40889 0.69652 0.86401 0.0
C647 C 0.43919 0.70255 0.88636 0.0
C648 C 0.42058 0.66086 0.87378 0.0
C649 C 0.44493 0.68474 0.89162 0.0
C650 C 0.38462 0.67255 0.84603 0.0
C651 C 0.37101 0.57264 0.53801 0.0
C652 C 0.36403 0.62993 0.8266 0.0
C653 C 0.2283 0.55291 0.63146 0.0
C654 C 0.23519 0.55863 0.53387 0.0
C655 C 0.42022 0.60192 0.76873 0.0
C656 C 0.32045 0.47859 0.69081 0.0
C657 C 0.27381 0.44449 0.72488 0.0
C658 C 0.2602 0.43859 0.61697 0.0
C659 C 0.3063 0.47222 0.58346 0.0
C660 C 0.30413 0.46455 0.76105 0.0
C661 C 0.27641 0.45229 0.54702 0.0
C662 C 0.3641 0.56565 0.91472 0.0
C663 C 0.35124 0.50063 0.73213 0.0
H664 H 0.45832 0.72097 0.90026 0.0
H665 H 0.42535 0.64727 0.87796 0.0
H666 H 0.46828 0.68942 0.90913 0.0
H667 H 0.36116 0.66762 0.82598 0.0
H668 H 0.23711 0.42316 0.58622 0.0
H669 H 0.31814 0.4828 0.52788 0.0
H670 H 0.31481 0.46963 0.84426 0.0
H671 H 0.26567 0.44752 0.46417 0.0
Tb672 Tb 0.64812 0.77521 0.90936 0.0
C673 C 0.59415 0.6675 0.83276 0.0
N674 N 0.61612 0.68504 0.9139 0.0
C675 C 0.59289 0.66062 0.03788 0.0
C676 C 0.56952 0.64624 0.8513 0.0
C677 C 0.61657 0.68166 0.01541 0.0
C678 C 0.56905 0.64293 0.95555 0.0
C679 C 0.57526 0.65269 0.64403 0.0
C680 C 0.59712 0.67071 0.73096 0.0
C681 C 0.54929 0.63222 0.66173 0.0
C682 C 0.54644 0.62905 0.76534 0.0
Tb683 Tb 0.65404 0.7183 0.86967 0.0
N684 N 0.62279 0.69059 0.71762 0.0
C685 C 0.58088 0.65536 0.54254 0.0
C686 C 0.6299 0.69189 0.62004 0.0
C687 C 0.60871 0.67477 0.53078 0.0
H688 H 0.63505 0.6953 0.07885 0.0
H689 H 0.61411 0.67633 0.45329 0.0
H690 H 0.64797 0.78605 0.66291 0.0
H691 H 0.72419 0.83113 0.28116 0.0
H692 H 0.65209 0.70587 0.61065 0.0
H693 H 0.56467 0.64194 0.47353 0.0
H694 H 0.67716 0.79611 0.16582 0.0
H695 H 0.59297 0.65809 0.11853 0.0
H696 H 0.53182 0.6184 0.59605 0.0
H697 H 0.52658 0.61319 0.77823 0.0
H698 H 0.68457 0.81425 0.56944 0.0
H699 H 0.55062 0.62672 0.97308 0.0
H700 H 0.76382 0.86197 0.20228 0.0
N701 N 0.67943 0.80063 0.81146 0.0
C702 C 0.70627 0.82027 0.86901 0.0
C703 C 0.6913 0.81586 0.65338 0.0
C704 C 0.72717 0.83799 0.81994 0.0
C705 C 0.67092 0.79921 0.70611 0.0
C706 C 0.71979 0.83514 0.71026 0.0
N707 N 0.69117 0.80613 0.02323 0.0
C708 C 0.69471 0.80909 0.13059 0.0
C709 C 0.73882 0.84395 0.04122 0.0
C710 C 0.71203 0.8234 0.97842 0.0
C711 C 0.74344 0.84646 0.15127 0.0
C712 C 0.72116 0.82905 0.19611 0.0
H713 H 0.73526 0.8483 0.66956 0.0
H714 H 0.77038 0.87218 0.8457 0.0
H715 H 0.78054 0.87741 0.03929 0.0
O716 O 0.62251 0.78328 0.99862 0.0
O717 O 0.69246 0.77779 0.96344 0.0
O718 O 0.69035 0.75139 0.83439 0.0
O719 O 0.6376 0.79986 0.86964 0.0
O720 O 0.63914 0.75643 0.04175 0.0
O721 O 0.66587 0.73798 0.0331 0.0
O722 O 0.66768 0.69513 0.82721 0.0
O723 O 0.61236 0.71407 0.91213 0.0
O724 O 0.60471 0.74003 0.83563 0.0
O725 O 0.6903 0.72107 0.97271 0.0
O726 O 0.66002 0.73785 0.73993 0.0
O727 O 0.62992 0.75293 0.74866 0.0
C728 C 0.70683 0.77057 0.90909 0.0
C729 C 0.59255 0.79567 0.90854 0.0
C730 C 0.56185 0.81344 0.88826 0.0
C731 C 0.5366 0.79062 0.83523 0.0
C732 C 0.56661 0.77342 0.85666 0.0
C733 C 0.53896 0.77098 0.82043 0.0
C734 C 0.59015 0.81577 0.92407 0.0
C735 C 0.65315 0.74706 0.08547 0.0
C736 C 0.62221 0.79794 0.94233 0.0
C737 C 0.75409 0.85841 0.88209 0.0
C738 C 0.75983 0.86143 0.9924 0.0
C739 C 0.59386 0.71896 0.86188 0.0
C740 C 0.72029 0.7107 0.88698 0.0
C741 C 0.7488 0.70041 0.7826 0.0
C742 C 0.77623 0.71845 0.85276 0.0
C743 C 0.74795 0.72837 0.95692 0.0
C744 C 0.72103 0.69695 0.79991 0.0
C745 C 0.77572 0.7323 0.93919 0.0
C746 C 0.64216 0.74387 0.69395 0.0
C747 C 0.69044 0.7051 0.90811 0.0
H748 H 0.51483 0.78784 0.8028 0.0
H749 H 0.56781 0.75791 0.84308 0.0
H750 H 0.51918 0.7537 0.77949 0.0
H751 H 0.61014 0.833 0.96436 0.0
H752 H 0.79799 0.72146 0.84264 0.0
H753 H 0.74817 0.73906 0.02564 0.0
H754 H 0.69976 0.68328 0.7458 0.0
H755 H 0.79692 0.74596 0.99345 0.0
H756 H 0.21582 0.37773 0.04957 0.0
H757 H 0.13609 0.37519 0.90317 0.0
H758 H 0.16592 0.40257 0.79361 0.0
H759 H 0.21427 0.42641 0.73532 0.0
H760 H 0.29406 0.42891 0.88029 0.0
H761 H 0.26474 0.40261 0.99464 0.0
C762 C 0.20496 0.38313 0.99347 0.0
C763 C 0.17369 0.37433 0.98467 0.0
C764 C 0.2223 0.39893 0.93041 0.0
C765 C 0.16014 0.38182 0.91255 0.0
C766 C 0.17716 0.3974 0.84934 0.0
C767 C 0.22523 0.42113 0.79168 0.0
C768 C 0.25632 0.42954 0.79858 0.0
C769 C 0.20819 0.40593 0.857 0.0
C770 C 0.27027 0.42288 0.87366 0.0
C771 C 0.25344 0.4077 0.93869 0.0
H772 H 0.84679 0.81584 0.133 0.0
H773 H 0.85089 0.79283 0.81758 0.0
H774 H 0.79603 0.77588 0.75803 0.0
H775 H 0.74669 0.76902 0.79326 0.0
H776 H 0.74378 0.79438 0.107 0.0
H777 H 0.79757 0.80869 0.16858 0.0
C778 C 0.83572 0.80706 0.0511 0.0
C779 C 0.85355 0.80598 0.97997 0.0
C780 C 0.80403 0.79781 0.01662 0.0
C781 C 0.83823 0.79405 0.87468 0.0
C782 C 0.80673 0.78454 0.84023 0.0
C783 C 0.75785 0.77787 0.87507 0.0
C784 C 0.74069 0.78062 0.94495 0.0
C785 C 0.78941 0.78665 0.9099 0.0
C786 C 0.75596 0.79207 0.05069 0.0
C787 C 0.78688 0.80015 0.08628 0.0
H788 H 0.3447 0.96484 0.79327 0.0
H789 H 0.37418 0.9923 0.12937 0.0
H790 H 0.41636 0.98638 0.13245 0.0
H791 H 0.44121 0.96884 0.04077 0.0
H792 H 0.40938 0.94064 0.70478 0.0
H793 H 0.37192 0.95122 0.70061 0.0
C794 C 0.36063 0.96989 0.86718 0.0
C795 C 0.35607 0.97888 0.96109 0.0
C796 C 0.38425 0.96592 0.86846 0.0
C797 C 0.37717 0.9855 0.0558 0.0
C798 C 0.40112 0.98186 0.05761 0.0
C799 C 0.42645 0.96547 0.96652 0.0
C800 C 0.42792 0.95365 0.87325 0.0
C801 C 0.40441 0.97143 0.96475 0.0
C802 C 0.40854 0.94939 0.77783 0.0
C803 C 0.38708 0.95548 0.7753 0.0
H804 H 0.415 0.14293 0.9335 0.0
H805 H 0.4454 0.17963 0.25891 0.0
H806 H 0.39482 0.15098 0.29268 0.0
H807 H 0.3407 0.11399 0.2313 0.0
H808 H 0.30897 0.08123 0.90045 0.0
H809 H 0.35983 0.10914 0.86853 0.0
C810 C 0.41068 0.14493 0.01198 0.0
C811 C 0.43512 0.16393 0.09348 0.0
C812 C 0.3806 0.12855 0.0305 0.0
C813 C 0.4279 0.16568 0.19374 0.0
C814 C 0.39862 0.14901 0.21338 0.0
C815 C 0.34483 0.11281 0.15208 0.0
C816 C 0.32025 0.0944 0.06885 0.0
C817 C 0.37459 0.13008 0.13283 0.0
C818 C 0.32677 0.09433 0.96691 0.0
C819 C 0.35623 0.11058 0.9484 0.0
H820 H 0.95583 0.28604 0.10202 0.0
H821 H 1.0194 0.33391 0.39056 0.0
H822 H 0.04766 0.315 0.38163 0.0
H823 H 0.05528 0.28483 0.29286 0.0
H824 H 0.99247 0.23704 0.0038 0.0
H825 H 0.96305 0.25517 0.01404 0.0
C826 C 0.97562 0.29221 0.16379 0.0
C827 C 0.98516 0.31173 0.24691 0.0
C828 C 0.9921 0.28099 0.15868 0.0
C829 C 1.01126 0.31926 0.32494 0.0
C830 C 1.0276 0.30834 0.32013 0.0
C831 C 1.03521 0.27835 0.23166 0.0
C832 C 1.02613 0.25908 0.14822 0.0
C833 C 1.01844 0.28924 0.23725 0.0
C834 C 0.99985 0.25123 0.07051 0.0
C835 C 0.98307 0.26186 0.07578 0.0
H836 H 0.86071 0.68321 0.24168 0.0
H837 H 0.89199 0.68452 0.95063 0.0
H838 H 0.87743 0.64319 0.94093 0.0
H839 H 0.85111 0.60457 0.00731 0.0
H840 H 0.82274 0.60467 0.30354 0.0
H841 H 0.84072 0.64671 0.31883 0.0
C842 C 0.86517 0.67479 0.17712 0.0
C843 C 0.87808 0.68781 0.09741 0.0
C844 C 0.85689 0.65073 0.17259 0.0
C845 C 0.88289 0.67578 0.01445 0.0
C846 C 0.87415 0.65178 0.00837 0.0
C847 C 0.84974 0.61396 0.07706 0.0
C848 C 0.83597 0.60098 0.15577 0.0
C849 C 0.86058 0.63877 0.08594 0.0
C850 C 0.83381 0.6138 0.24319 0.0
C851 C 0.84394 0.63804 0.25145 0.0
H852 H 0.25708 0.51868 0.7086 0.0
H853 H 0.29238 0.50466 0.44823 0.0
H854 H 0.24109 0.47133 0.35991 0.0
H855 H 0.18607 0.44505 0.35725 0.0
H856 H 0.14908 0.46052 0.60772 0.0
H857 H 0.20054 0.4948 0.69643 0.0
C858 C 0.25346 0.50883 0.63122 0.0
C859 C 0.27893 0.51454 0.58556 0.0
C860 C 0.22338 0.48985 0.57848 0.0
C861 C 0.27357 0.50081 0.48642 0.0
C862 C 0.24407 0.4817 0.43519 0.0
C863 C 0.1892 0.45608 0.43074 0.0
C864 C 0.16361 0.45009 0.47573 0.0
C865 C 0.21882 0.47588 0.48067 0.0
C866 C 0.1682 0.46473 0.57079 0.0
C867 C 0.19773 0.48425 0.62199 0.0
H868 H 0.78998 0.71217 0.65329 0.0
H869 H 0.70742 0.65251 0.71291 0.0
H870 H 0.70515 0.62639 0.56357 0.0
H871 H 0.72582 0.62034 0.4151 0.0
H872 H 0.81084 0.67859 0.36254 0.0
H873 H 0.81266 0.70538 0.50936 0.0
C874 C 0.77169 0.69341 0.63441 0.0
C875 C 0.74865 0.68451 0.6937 0.0
C876 C 0.7708 0.67821 0.54922 0.0
C877 C 0.72502 0.66011 0.66728 0.0
C878 C 0.7238 0.64504 0.58222 0.0
C879 C 0.74512 0.63878 0.43652 0.0
C880 C 0.76816 0.64731 0.37744 0.0
C881 C 0.74646 0.65391 0.52248 0.0
C882 C 0.79248 0.67151 0.40528 0.0
C883 C 0.79369 0.68683 0.48992 0.0
H884 H 0.48855 0.04119 0.24222 0.0
H885 H 0.5156 0.11095 0.4014 0.0
H886 H 0.51837 0.09965 0.57248 0.0
H887 H 0.51501 0.07037 0.67746 0.0
H888 H 0.48972 1.00124 0.51682 0.0
H889 H 0.48534 1.01217 0.34609 0.0
C890 C 0.49529 0.05404 0.31423 0.0
C891 C 0.50191 0.07695 0.3084 0.0
C892 C 0.49752 0.04762 0.41237 0.0
C893 C 0.50995 0.09311 0.40295 0.0
C894 C 0.51182 0.08672 0.50103 0.0
C895 C 0.50838 0.05766 0.60504 0.0
C896 C 0.50289 0.03504 0.61017 0.0
C897 C 0.50588 0.06408 0.50677 0.0
C898 C 0.49459 1.01888 0.51542 0.0
C899 C 0.49184 1.02506 0.41764 0.0
H900 H 0.11273 0.1161 0.06541 0.0
H901 H 0.20136 0.17216 0.02828 0.0
H902 H 0.18868 0.20148 0.069 0.0
H903 H 0.15086 0.21107 0.10012 0.0
H904 H 0.06424 0.15664 0.15625 0.0
H905 H 0.07714 0.12718 0.12142 0.0
C906 C 0.12965 0.13482 0.06973 0.0
C907 C 0.15827 0.14169 0.04435 0.0
C908 C 0.12216 0.15199 0.09379 0.0
C909 C 0.17939 0.16617 0.04835 0.0
C910 C 0.17199 0.18303 0.07056 0.0
C911 C 0.13495 0.19297 0.10644 0.0
C912 C 0.10636 0.18649 0.12982 0.0
C913 C 0.14318 0.17615 0.09087 0.0
C914 C 0.08625 0.1625 0.13717 0.0
C915 C 0.09374 0.1455 0.11775 0.0
H916 H 1.01859 1.01839 0.9579 0.0
H917 H 0.94975 0.9837 0.1416 0.0
H918 H 0.93365 1.01075 0.11706 0.0
H919 H 0.94019 0.04542 0.0499 0.0
H920 H 1.01203 0.0826 0.8817 0.0
H921 H 1.02621 0.05379 0.89552 0.0
C922 C 1.00028 1.01682 0.99372 0.0
C923 C 0.98532 0.99866 0.05068 0.0
C924 C 0.99166 0.03301 0.98232 0.0
C925 C 0.96131 0.99694 0.09491 0.0
C926 C 0.95219 1.01261 0.08186 0.0
C927 C 0.95869 0.04698 0.01524 0.0
C928 C 0.97484 0.06589 0.96388 0.0
C929 C 0.96723 0.03075 0.02605 0.0
C930 C 0.99921 0.06809 0.92121 0.0
C931 C 1.00733 0.05166 0.92925 0.0
H932 H 0.06271 0.90116 0.143 0.0
H933 H 1.01225 0.91166 0.89287 0.0
H934 H 0.05832 0.9485 0.88344 0.0
H935 H 0.11436 0.97988 0.94439 0.0
H936 H 0.16651 0.96978 0.18817 0.0
H937 H 0.12031 0.9323 0.19933 0.0
C938 C 0.06161 0.91119 0.08526 0.0
C939 C 1.0324 0.90252 0.01943 0.0
C940 C 0.08942 0.9334 0.07853 0.0
C941 C 1.03314 0.91689 0.94632 0.0
C942 C 0.06002 0.9385 0.94038 0.0
C943 C 0.11584 0.96971 1.00077 0.0
C944 C 0.14511 0.97857 0.06516 0.0
C945 C 0.08848 0.94735 0.00643 0.0
C946 C 0.14523 0.96407 0.13594 0.0
C947 C 0.11832 0.94228 0.14289 0.0
H948 H 0.88955 0.44774 0.37512 0.0
H949 H 0.89873 0.45813 0.05806 0.0
H950 H 0.91141 0.42817 0.03188 0.0
H951 H 0.92205 0.39995 0.10241 0.0
H952 H 0.90903 0.38762 0.41509 0.0
H953 H 0.8958 0.41716 0.43994 0.0
C954 C 0.89372 0.44307 0.29956 0.0
C955 C 0.8928 0.45501 0.21812 0.0
C956 C 0.9006 0.42554 0.28472 0.0
C957 C 0.8987 0.44895 0.12124 0.0
C958 C 0.90622 0.43194 0.10667 0.0
C959 C 0.91602 0.40361 0.17552 0.0
C960 C 0.9166 0.39157 0.25698 0.0
C961 C 0.90756 0.42026 0.18818 0.0
C962 C 0.90857 0.39645 0.35098 0.0
C963 C 0.9011 0.41344 0.36532 0.0
H964 H 0.71484 0.43871 0.99728 0.0
H965 H 0.73099 0.47425 0.31674 0.0
H966 H 0.69542 0.43655 0.36126 0.0
H967 H 0.65734 0.39353 0.31157 0.0
H968 H 0.63842 0.35597 0.99452 0.0
H969 H 0.67724 0.39349 0.94924 0.0
C970 C 0.71103 0.43816 0.07709 0.0
C971 C 0.72623 0.45998 0.15333 0.0
C972 C 0.68963 0.4157 0.1033 0.0
C973 C 0.7201 0.45832 0.25564 0.0
C974 C 0.69949 0.43652 0.28166 0.0
C975 C 0.66155 0.3933 0.23215 0.0
C976 C 0.6442 0.3714 0.15684 0.0
C977 C 0.68371 0.41511 0.20622 0.0
C978 C 0.6511 0.37209 0.05528 0.0
C979 C 0.67332 0.3938 0.02896 0.0
H980 H 0.62795 0.25001 0.02989 0.0
H981 H 0.61314 0.2041 0.25203 0.0
H982 H 0.6646 0.21299 0.26336 0.0
H983 H 0.71394 0.23257 0.20564 0.0
H984 H 0.732 0.28181 0.99828 0.0
H985 H 0.68033 0.2736 0.98829 0.0
C986 C 0.63604 0.2421 0.08152 0.0
C987 C 0.61556 0.22531 0.1362 0.0
C988 C 0.66677 0.24819 0.09134 0.0
C989 C 0.62724 0.21588 0.20423 0.0
C990 C 0.65711 0.22131 0.21218 0.0
C991 C 0.70682 0.24189 0.1598 0.0
C992 C 0.72724 0.258 0.1034 0.0
C993 C 0.67703 0.23717 0.15512 0.0
C994 C 0.71723 0.26966 0.04389 0.0
C995 C 0.68742 0.26474 0.0374 0.0
H996 H 0.51104 0.81275 0.923 0.0
H997 H 0.60318 0.86134 0.88573 0.0
H998 H 0.5939 0.89328 0.8902 0.0
H999 H 0.55768 0.90678 0.89113 0.0
H1000 H 0.46471 0.85583 0.91247 0.0
H1001 H 0.4761 0.82577 0.92589 0.0
C1002 C 0.52923 0.83019 0.91459 0.0
C1003 C 0.55776 0.83413 0.90223 0.0
C1004 C 0.52342 0.84829 0.91373 0.0
C1005 C 0.58101 0.85742 0.89574 0.0
C1006 C 0.5756 0.87577 0.8974 0.0
C1007 C 0.54008 0.88921 0.89975 0.0
C1008 C 0.51018 0.88377 0.90037 0.0
C1009 C 0.54664 0.87137 0.90453 0.0
C1010 C 0.48776 0.86068 0.91103 0.0
C1011 C 0.49428 0.84335 0.9188 0.0
H1012 H 0.36741 0.70126 0.94845 0.0
H1013 H 0.4347 0.73238 0.75644 0.0
H1014 H 0.42054 0.76061 0.72804 0.0
H1015 H 0.38878 0.77582 0.75524 0.0
H1016 H 0.32386 0.74711 0.95708 0.0
H1017 H 0.336 0.71734 0.97896 0.0
C1018 C 0.37891 0.71424 0.90034 0.0
C1019 C 0.40205 0.71482 0.8545 0.0
C1020 C 0.37059 0.73034 0.88421 0.0
C1021 C 0.41709 0.73183 0.79344 0.0
C1022 C 0.40878 0.74776 0.77629 0.0
C1023 C 0.37744 0.76321 0.80504 0.0
C1024 C 0.35579 0.7639 0.85591 0.0
C1025 C 0.38552 0.74707 0.82095 0.0
C1026 C 0.34052 0.74689 0.91684 0.0
C1027 C 0.34773 0.7301 0.93033 0.0
H1028 H 0.56105 0.68289 0.9654 0.0
H1029 H 0.5492 0.71253 0.70175 0.0
H1030 H 0.49488 0.67974 0.65099 0.0
H1031 H 0.45075 0.64111 0.67639 0.0
H1032 H 0.46449 0.61051 0.93379 0.0
H1033 H 0.51746 0.64463 0.99068 0.0
C1034 C 0.54677 0.68205 0.89581 0.0
C1035 C 0.5598 0.70011 0.83638 0.0
C1036 C 0.51563 0.66262 0.86508 0.0
C1037 C 0.54023 0.69902 0.74911 0.0
C1038 C 0.50906 0.68007 0.71949 0.0
C1039 C 0.4654 0.6418 0.74453 0.0
C1040 C 0.45327 0.62283 0.79993 0.0
C1041 C 0.49652 0.66149 0.7758 0.0
C1042 C 0.47291 0.62435 0.8882 0.0
C1043 C 0.50338 0.64404 0.92115 0.0
H1044 H 0.07891 0.25597 0.82054 0.0
H1045 H 0.05908 0.18488 0.79941 0.0
H1046 H 0.06043 0.1819 0.61191 0.0
H1047 H 0.06722 0.1993 0.45332 0.0
H1048 H 0.08356 0.26922 0.47001 0.0
H1049 H 0.08426 0.273 0.65956 0.0
C1050 C 0.07491 0.23982 0.77501 0.0
C1051 C 0.0689 0.22067 0.82469 0.0
C1052 C 0.07532 0.23807 0.66621 0.0
C1053 C 0.0636 0.19986 0.76375 0.0
C1054 C 0.06446 0.19816 0.65629 0.0
C1055 C 0.07077 0.21535 0.49812 0.0
C1056 C 0.07541 0.23398 0.44685 0.0
C1057 C 0.07025 0.21711 0.60659 0.0
C1058 C 0.08027 0.25469 0.50706 0.0
C1059 C 0.08046 0.2568 0.61556 0.0
H1060 H 0.96858 0.87797 0.73404 0.0
H1061 H 0.90138 0.80232 0.68177 0.0
H1062 H 0.90113 0.79867 0.49269 0.0
H1063 H 0.91988 0.81687 0.34106 0.0
H1064 H 0.98538 0.8928 0.39157 0.0
H1065 H 0.98618 0.8964 0.58127 0.0
C1066 C 0.95375 0.86067 0.68134 0.0
C1067 C 0.93539 0.84036 0.72329 0.0
C1068 C 0.95339 0.85875 0.57178 0.0
C1069 C 0.91627 0.81818 0.65289 0.0
C1070 C 0.91599 0.8161 0.54429 0.0
C1071 C 0.93448 0.83423 0.39343 0.0
C1072 C 0.9527 0.85454 0.35124 0.0
C1073 C 0.93456 0.83623 0.50274 0.0
C1074 C 0.97113 0.87686 0.42105 0.0
C1075 C 0.97158 0.87893 0.52986 0.0
H1076 H 0.18626 1.02562 0.68973 0.0
H1077 H 0.27755 0.04225 0.79204 0.0
H1078 H 0.28762 0.04797 0.6171 0.0
H1079 H 0.27158 0.04985 0.43497 0.0
H1080 H 0.17824 1.0277 0.32339 0.0
H1081 H 0.16845 1.0234 0.50055 0.0
C1082 C 0.20827 0.03036 0.67357 0.0
C1083 C 0.23117 0.03383 0.75569 0.0
C1084 C 0.2138 0.03291 0.57039 0.0
C1085 C 0.25944 0.03969 0.7319 0.0
C1086 C 0.26535 0.043 0.63123 0.0
C1087 C 0.24878 0.04324 0.448 0.0
C1088 C 0.22565 0.03865 0.36412 0.0
C1089 C 0.2428 0.03978 0.54973 0.0
C1090 C 0.19668 0.03139 0.38558 0.0
C1091 C 0.19093 1.02881 0.48728 0.0
H1092 H 0.78806 0.55829 0.50355 0.0
H1093 H 0.78747 0.49459 0.42112 0.0
H1094 H 0.77998 0.48606 0.59574 0.0
H1095 H 0.7732 0.49632 0.77357 0.0
H1096 H 0.77905 0.56211 0.86204 0.0
H1097 H 0.78374 0.56955 0.68457 0.0
C1098 C 0.78639 0.5426 0.52392 0.0
C1099 C 0.78826 0.52715 0.44832 0.0
C1100 C 0.78262 0.5379 0.62614 0.0
C1101 C 0.78624 0.50695 0.47707 0.0
C1102 C 0.78178 0.50192 0.57721 0.0
C1103 C 0.77591 0.51244 0.75456 0.0
C1104 C 0.77606 0.52865 0.83255 0.0
C1105 C 0.77993 0.51724 0.65268 0.0
C1106 C 0.77872 0.54913 0.80451 0.0
C1107 C 0.78166 0.55357 0.70271 0.0
H1108 H 0.56615 0.22917 0.47529 0.0
H1109 H 0.47722 0.16436 0.34957 0.0
H1110 H 0.46927 0.15932 0.52739 0.0
H1111 H 0.4872 0.17321 0.72064 0.0
H1112 H 0.57691 0.23706 0.84719 0.0
H1113 H 0.58456 0.24261 0.66907 0.0
C1114 C 0.54497 0.21407 0.4869 0.0
C1115 C 0.52234 0.19733 0.39856 0.0
C1116 C 0.54057 0.211 0.59034 0.0
C1117 C 0.49518 0.17763 0.41559 0.0
C1118 C 0.49051 0.17466 0.51764 0.0
C1119 C 0.50855 0.18815 0.70917 0.0
C1120 C 0.53146 0.20454 0.79761 0.0
C1121 C 0.51305 0.19117 0.60587 0.0
C1122 C 0.55877 0.22411 0.78083 0.0
C1123 C 0.56326 0.22733 0.67873 0.0
H1124 H 0.98447 0.35148 0.60795 0.0
H1125 H 0.89941 0.34662 0.52615 0.0
H1126 H 0.89294 0.34536 0.70775 0.0
H1127 H 0.91123 0.34576 0.89137 0.0
H1128 H 0.99696 0.3518 0.9758 0.0
H1129 H 1.00331 0.3526 0.7934 0.0
C1130 C 0.96463 0.35028 0.63008 0.0
C1131 C 0.94247 0.34906 0.55274 0.0
C1132 C 0.96105 0.34974 0.73575 0.0
C1133 C 0.91681 0.34742 0.58325 0.0
C1134 C 0.91305 0.34673 0.68748 0.0
C1135 C 0.9312 0.34709 0.8698 0.0
C1136 C 0.95346 0.3486 0.94764 0.0
C1137 C 0.93494 0.3478 0.76451 0.0
C1138 C 0.97941 0.35065 0.91798 0.0
C1139 C 0.9831 0.3511 0.81338 0.0
H1140 H 0.4842 0.95053 0.55864 0.0
H1141 H 0.46027 0.87829 0.53321 0.0
H1142 H 0.46053 0.87513 0.34445 0.0
H1143 H 0.46761 0.89295 0.18573 0.0
H1144 H 0.48812 0.9643 0.21103 0.0
H1145 H 0.48973 0.96783 0.40001 0.0
C1146 C 0.47915 0.9341 0.51207 0.0
C1147 C 0.47235 0.91471 0.56061 0.0
C1148 C 0.47901 0.93231 0.40318 0.0
C1149 C 0.46551 0.89349 0.49822 0.0
C1150 C 0.46573 0.89169 0.39013 0.0
C1151 C 0.47254 0.90931 0.23266 0.0
C1152 C 0.47856 0.92856 0.18389 0.0
C1153 C 0.47247 0.91099 0.34161 0.0
C1154 C 0.48448 0.94947 0.24622 0.0
C1155 C 0.48501 0.95142 0.35455 0.0
H1156 H 0.39062 0.60121 0.09223 0.0
H1157 H 0.33477 0.52462 0.98961 0.0
H1158 H 0.33232 0.52008 0.17174 0.0
H1159 H 0.34505 0.53762 0.36048 0.0
H1160 H 0.40239 0.61403 0.46598 0.0
H1161 H 0.40489 0.61881 0.28323 0.0
C1162 C 0.37787 0.58354 0.10974 0.0
C1163 C 0.36288 0.56332 0.02675 0.0
C1164 C 0.37673 0.58097 0.21552 0.0
C1165 C 0.34666 0.54055 0.05136 0.0
C1166 C 0.34517 0.53789 0.1558 0.0
C1167 C 0.35852 0.55532 0.34385 0.0
C1168 C 0.37356 0.57542 0.42719 0.0
C1169 C 0.3601 0.55794 0.23858 0.0
C1170 C 0.3904 0.59823 0.40345 0.0
C1171 C 0.39189 0.60099 0.29885 0.0
H1172 H 0.68119 0.74572 0.57005 0.0
H1173 H 0.59673 0.74194 0.55815 0.0
H1174 H 0.59308 0.7435 0.37031 0.0
H1175 H 0.61402 0.74594 0.20847 0.0
H1176 H 0.69691 0.74729 0.22018 0.0
H1177 H 0.7008 0.74639 0.40804 0.0
C1178 C 0.6617 0.74486 0.52613 0.0
C1179 C 0.63918 0.74359 0.57836 0.0
C1180 C 0.65951 0.7454 0.41777 0.0
C1181 C 0.61441 0.74294 0.52016 0.0
C1182 C 0.61232 0.74384 0.41265 0.0
C1183 C 0.63298 0.74613 0.25235 0.0
C1184 C 0.6552 0.74678 0.20015 0.0
C1185 C 0.6348 0.74515 0.36054 0.0
C1186 C 0.67942 0.74671 0.25801 0.0
C1187 C 0.6817 0.74623 0.36567 0.0
loop_
_geom_bond_atom_site_label_1
_geom_bond_atom_site_label_2
_geom_bond_distance
_geom_bond_site_symmetry_2
_ccdc_geom_bond_type
Tb0 N29 2.617 1_454 S
Tb0 N35 2.572 1_455 S
Tb0 O44 2.465 1_455 S
Tb0 O45 2.387 . S
Tb0 O47 2.428 1_455 S
Tb0 O48 2.308 . S
Tb0 O52 2.349 . S
Tb0 O55 2.393 1_554 S
Tb0 C64 2.802 1_455 S
C1 N2 1.379 . S
C1 C4 1.416 . S
C1 C8 1.424 . S
N2 C1 1.379 . S
N2 C5 1.334 . S
N2 Tb11 2.617 . S
C3 C5 1.390 . S
C3 C6 1.339 . S
C3 H23 0.930 . S
C4 C1 1.416 . S
C4 C6 1.416 . S
C4 C10 1.448 . S
C5 N2 1.334 . S
C5 C3 1.390 . S
C5 H16 0.930 . S
C6 C3 1.339 . S
C6 C4 1.416 . S
C6 H27 0.930 . S
C7 C8 1.413 . S
C7 C9 1.427 . S
C7 C13 1.416 . S
C8 C1 1.424 . S
C8 C7 1.413 . S
C8 N12 1.361 . S
C9 C7 1.427 . S
C9 C10 1.328 . S
C9 H24 0.929 . S
C10 C4 1.448 . S
C10 C9 1.328 . S
C10 H25 0.930 . S
Tb11 N2 2.617 . S
Tb11 N12 2.572 . S
Tb11 O46 2.349 . S
Tb11 O49 2.393 . S
Tb11 O50 2.465 . S
Tb11 O51 2.387 . S
Tb11 O53 2.428 . S
Tb11 O54 2.308 . S
Tb11 C75 2.802 . S
N12 C8 1.361 . S
N12 Tb11 2.572 . S
N12 C14 1.340 . S
C13 C7 1.416 . S
C13 C15 1.332 . S
C13 H21 0.931 . S
C14 N12 1.340 . S
C14 C15 1.407 . S
C14 H20 0.930 . S
C15 C13 1.332 . S
C15 C14 1.407 . S
C15 H17 0.929 1_554 S
H16 C5 0.930 . S
H17 C15 0.929 1_556 S
H18 C33 0.930 . S
H19 C40 0.929 . S
H20 C14 0.930 . S
H21 C13 0.931 . S
H22 C36 0.930 . S
H23 C3 0.930 . S
H24 C9 0.929 . S
H25 C10 0.930 . S
H26 C31 0.930 . S
H27 C6 0.930 . S
H28 C39 0.931 . S
N29 Tb0 2.617 1_656 S
N29 C30 1.379 . S
N29 C33 1.334 . S
C30 N29 1.379 . S
C30 C32 1.416 . S
C30 C38 1.424 1_556 S
C31 H26 0.930 . S
C31 C33 1.390 . S
C31 C34 1.339 . S
C32 C30 1.416 . S
C32 C34 1.416 . S
C32 C65 1.448 . S
C33 H18 0.930 . S
C33 N29 1.334 . S
C33 C31 1.390 . S
C34 C31 1.339 . S
C34 C32 1.416 . S
C34 H41 0.930 . S
N35 Tb0 2.572 1_655 S
N35 C36 1.340 . S
N35 C38 1.361 . S
C36 H22 0.930 . S
C36 N35 1.340 . S
C36 C40 1.407 . S
C37 C38 1.413 . S
C37 C39 1.416 . S
C37 C66 1.427 . S
C38 C30 1.424 1_554 S
C38 N35 1.361 . S
C38 C37 1.413 . S
C39 H28 0.931 . S
C39 C37 1.416 . S
C39 C40 1.332 . S
C40 H19 0.929 . S
C40 C36 1.407 . S
C40 C39 1.332 . S
H41 C34 0.930 . S
H42 C65 0.930 . S
H43 C66 0.929 . S
O44 Tb0 2.465 1_655 S
O44 C64 1.264 . S
O45 Tb0 2.387 . S
O45 C56 1.264 . S
O46 Tb11 2.349 . S
O46 C56 1.243 . S
O47 Tb0 2.428 1_655 S
O47 C64 1.256 . S
O48 Tb0 2.308 . S
O48 C63 1.266 . S
O49 Tb11 2.393 . S
O49 C63 1.248 . S
O50 Tb11 2.465 . S
O50 C75 1.264 . S
O51 Tb11 2.387 . S
O51 C67 1.264 . S
O52 Tb0 2.349 . S
O52 C67 1.243 . S
O53 Tb11 2.428 . S
O53 C75 1.256 . S
O54 Tb11 2.308 . S
O54 C74 1.266 1_554 S
O55 Tb0 2.393 1_556 S
O55 C74 1.248 . S
C56 O45 1.264 . S
C56 O46 1.243 . S
C57 C60 1.399 . S
C57 C62 1.383 . S
C57 C64 1.496 . S
C58 C59 1.399 . S
C58 C62 1.389 . S
C59 C58 1.399 . S
C59 C61 1.380 . S
C59 H76 0.929 . S
C60 C57 1.399 . S
C60 C61 1.392 . S
C60 H77 0.929 1_554 S
C61 C59 1.380 . S
C61 C60 1.392 . S
C61 H78 0.929 1_554 S
C62 C57 1.383 . S
C62 C58 1.389 . S
C62 H79 0.931 . S
C63 O48 1.266 . S
C63 O49 1.248 . S
C64 Tb0 2.802 1_655 S
C64 O44 1.264 . S
C64 O47 1.256 . S
C64 C57 1.496 . S
C65 C32 1.448 . S
C65 H42 0.930 . S
C65 C66 1.328 1_556 S
C66 C37 1.427 . S
C66 H43 0.929 . S
C66 C65 1.328 1_554 S
C67 O51 1.264 . S
C67 O52 1.243 . S
C68 C71 1.399 . S
C68 C72 1.383 . S
C68 C75 1.496 . S
C69 C70 1.399 . S
C69 C72 1.389 . S
C70 C69 1.399 . S
C70 C73 1.380 . S
C70 H80 0.929 . S
C71 C68 1.399 . S
C71 C73 1.392 . S
C71 H81 0.929 . S
C72 C68 1.383 . S
C72 C69 1.389 . S
C72 H82 0.931 . S
C73 C70 1.380 . S
C73 C71 1.392 . S
C73 H83 0.929 . S
C74 O54 1.266 1_556 S
C74 O55 1.248 . S
C75 Tb11 2.802 . S
C75 O50 1.264 . S
C75 O53 1.256 . S
C75 C68 1.496 . S
H76 C59 0.929 . S
H77 C60 0.929 1_556 S
H78 C61 0.929 1_556 S
H79 C62 0.931 . S
H80 C70 0.929 . S
H81 C71 0.929 . S
H82 C72 0.931 . S
H83 C73 0.929 . S
Tb84 N113 2.617 . S
Tb84 N119 2.572 . S
Tb84 O128 2.465 . S
Tb84 O129 2.387 . S
Tb84 O131 2.428 . S
Tb84 O132 2.308 1_554 S
Tb84 O136 2.349 . S
Tb84 O139 2.393 . S
Tb84 C148 2.802 . S
C85 N86 1.379 . S
C85 C88 1.416 . S
C85 C92 1.424 1_556 S
N86 C85 1.379 . S
N86 C89 1.334 . S
N86 Tb95 2.617 1_556 S
C87 C89 1.390 . S
C87 C90 1.339 . S
C87 H107 0.930 . S
C88 C85 1.416 . S
C88 C90 1.416 . S
C88 C94 1.461 . S
C89 N86 1.334 . S
C89 C87 1.390 . S
C89 H100 0.930 . S
C90 C87 1.339 . S
C90 C88 1.416 . S
C90 H111 0.930 . S
C91 C92 1.413 . S
C91 C93 1.427 1_655 S
C91 C97 1.416 . S
C92 C85 1.424 1_554 S
C92 C91 1.413 . S
C92 N96 1.361 . S
C93 C91 1.427 1_455 S
C93 C94 1.327 1_454 S
C93 H108 0.929 . S
C94 C88 1.461 . S
C94 C93 1.327 1_656 S
C94 H109 0.918 1_655 S
Tb95 N86 2.617 1_554 S
Tb95 N96 2.572 . S
Tb95 O130 2.349 . S
Tb95 O133 2.393 1_554 S
Tb95 O134 2.465 . S
Tb95 O135 2.387 . S
Tb95 O137 2.428 1_554 S
Tb95 O138 2.308 . S
Tb95 C159 2.802 . S
N96 C92 1.361 . S
N96 Tb95 2.572 . S
N96 C98 1.340 . S
C97 C91 1.416 . S
C97 C99 1.332 . S
C97 H105 0.931 1_655 S
C98 N96 1.340 . S
C98 C99 1.407 . S
C98 H104 0.930 . S
C99 C97 1.332 . S
C99 C98 1.407 . S
C99 H101 0.929 . S
H100 C89 0.930 . S
H101 C99 0.929 . S
H102 C117 0.930 . S
H103 C124 0.929 . S
H104 C98 0.930 . S
H105 C97 0.931 1_455 S
H106 C120 0.930 . S
H107 C87 0.930 . S
H108 C93 0.929 . S
H109 C94 0.918 1_455 S
H110 C115 0.930 . S
H111 C90 0.930 . S
H112 C123 0.931 . S
N113 Tb84 2.617 . S
N113 C114 1.379 . S
N113 C117 1.334 . S
C114 N113 1.379 . S
C114 C116 1.416 . S
C114 C122 1.424 . S
C115 H110 0.930 . S
C115 C117 1.390 . S
C115 C118 1.339 . S
C116 C114 1.416 . S
C116 C118 1.416 . S
C116 C149 1.448 . S
C117 H102 0.930 . S
C117 N113 1.334 . S
C117 C115 1.390 . S
C118 C115 1.339 . S
C118 C116 1.416 . S
C118 H125 0.930 . S
N119 Tb84 2.572 . S
N119 C120 1.340 1_554 S
N119 C122 1.361 . S
C120 H106 0.930 . S
C120 N119 1.340 1_556 S
C120 C124 1.407 . S
C121 C122 1.413 . S
C121 C123 1.416 1_554 S
C121 C150 1.427 . S
C122 C114 1.424 . S
C122 N119 1.361 . S
C122 C121 1.413 . S
C123 H112 0.931 . S
C123 C121 1.416 1_556 S
C123 C124 1.332 . S
C124 H103 0.929 . S
C124 C120 1.407 . S
C124 C123 1.332 . S
H125 C118 0.930 . S
H126 C149 0.930 . S
H127 C150 0.929 . S
O128 Tb84 2.465 . S
O128 C148 1.264 . S
O129 Tb84 2.387 . S
O129 C140 1.264 . S
O130 Tb95 2.349 . S
O130 C140 1.243 . S
O131 Tb84 2.428 . S
O131 C148 1.256 . S
O132 Tb84 2.308 1_556 S
O132 C147 1.266 . S
O133 Tb95 2.393 1_556 S
O133 C147 1.248 . S
O134 Tb95 2.465 . S
O134 C159 1.264 . S
O135 Tb95 2.387 . S
O135 C151 1.264 . S
O136 Tb84 2.349 . S
O136 C151 1.243 . S
O137 Tb95 2.428 1_556 S
O137 C159 1.256 1_556 S
O138 Tb95 2.308 . S
O138 C158 1.266 . S
O139 Tb84 2.393 . S
O139 C158 1.248 . S
C140 O129 1.264 . S
C140 O130 1.243 . S
C141 C144 1.399 . S
C141 C146 1.383 . S
C141 C148 1.496 . S
C142 C143 1.399 . S
C142 C146 1.389 . S
C143 C142 1.399 . S
C143 C145 1.380 . S
C143 H160 0.929 . S
C144 C141 1.399 . S
C144 C145 1.392 . S
C144 H161 0.929 . S
C145 C143 1.380 . S
C145 C144 1.392 . S
C145 H162 0.929 . S
C146 C141 1.383 . S
C146 C142 1.389 . S
C146 H163 0.931 . S
C147 O132 1.266 . S
C147 O133 1.248 . S
C148 Tb84 2.802 . S
C148 O128 1.264 . S
C148 O131 1.256 . S
C148 C141 1.496 . S
C149 C116 1.448 . S
C149 H126 0.930 . S
C149 C150 1.328 . S
C150 C121 1.427 . S
C150 H127 0.929 . S
C150 C149 1.328 . S
C151 O135 1.264 . S
C151 O136 1.243 . S
C152 C155 1.399 1_554 S
C152 C156 1.383 . S
C152 C159 1.496 . S
C153 C154 1.399 . S
C153 C156 1.389 . S
C154 C153 1.399 . S
C154 C157 1.380 1_554 S
C154 H164 0.929 . S
C155 C152 1.399 1_556 S
C155 C157 1.392 . S
C155 H165 0.929 . S
C156 C152 1.383 . S
C156 C153 1.389 . S
C156 H166 0.931 . S
C157 C154 1.380 1_556 S
C157 C155 1.392 . S
C157 H167 0.929 . S
C158 O138 1.266 . S
C158 O139 1.248 . S
C159 Tb95 2.802 . S
C159 O134 1.264 . S
C159 O137 1.256 1_554 S
C159 C152 1.496 . S
H160 C143 0.929 . S
H161 C144 0.929 . S
H162 C145 0.929 . S
H163 C146 0.931 . S
H164 C154 0.929 . S
H165 C155 0.929 . S
H166 C156 0.931 . S
H167 C157 0.929 . S
Tb168 N197 2.617 . S
Tb168 N203 2.572 1_556 S
Tb168 O212 2.465 1_556 S
Tb168 O213 2.386 . S
Tb168 O215 2.428 . S
Tb168 O216 2.308 1_556 S
Tb168 O220 2.349 . S
Tb168 O223 2.393 . S
Tb168 C232 2.802 1_556 S
C169 N170 1.379 . S
C169 C172 1.416 . S
C169 C176 1.424 1_554 S
N170 C169 1.379 . S
N170 C173 1.334 . S
N170 Tb179 2.617 . S
C171 C173 1.390 . S
C171 C174 1.339 . S
C171 H191 0.930 . S
C172 C169 1.416 . S
C172 C174 1.416 . S
C172 C178 1.448 . S
C173 N170 1.334 . S
C173 C171 1.390 . S
C173 H184 0.930 . S
C174 C171 1.339 . S
C174 C172 1.416 . S
C174 H195 0.930 . S
C175 C176 1.413 . S
C175 C177 1.427 1_556 S
C175 C181 1.416 . S
C176 C169 1.424 1_556 S
C176 C175 1.413 . S
C176 N180 1.361 . S
C177 C175 1.427 1_554 S
C177 C178 1.328 . S
C177 H192 0.929 1_554 S
C178 C172 1.448 . S
C178 C177 1.328 . S
C178 H193 0.930 . S
Tb179 N170 2.617 . S
Tb179 N180 2.572 1_554 S
Tb179 O214 2.349 1_565 S
Tb179 O217 2.393 1_565 S
Tb179 O218 2.465 1_554 S
Tb179 O219 2.387 . S
Tb179 O221 2.428 . S
Tb179 O222 2.308 1_554 S
Tb179 C243 2.802 . S
N180 C176 1.361 . S
N180 Tb179 2.572 1_556 S
N180 C182 1.340 . S
C181 C175 1.416 . S
C181 C183 1.332 . S
C181 H189 0.931 . S
C182 N180 1.340 . S
C182 C183 1.407 . S
C182 H188 0.930 . S
C183 C181 1.332 . S
C183 C182 1.407 . S
C183 H185 0.929 . S
H184 C173 0.930 . S
H185 C183 0.929 . S
H186 C201 0.930 . S
H187 C208 0.929 . S
H188 C182 0.930 . S
H189 C181 0.931 . S
H190 C204 0.930 . S
H191 C171 0.930 . S
H192 C177 0.929 1_556 S
H193 C178 0.930 . S
H194 C199 0.930 . S
H195 C174 0.930 . S
H196 C207 0.931 . S
N197 Tb168 2.617 . S
N197 C198 1.379 . S
N197 C201 1.334 . S
C198 N197 1.379 . S
C198 C200 1.416 . S
C198 C206 1.424 1_556 S
C199 H194 0.930 . S
C199 C201 1.390 . S
C199 C202 1.339 . S
C200 C198 1.416 . S
C200 C202 1.416 . S
C200 C233 1.448 . S
C201 H186 0.930 . S
C201 N197 1.334 . S
C201 C199 1.390 . S
C202 C199 1.339 . S
C202 C200 1.416 . S
C202 H209 0.930 . S
N203 Tb168 2.572 1_554 S
N203 C204 1.340 . S
N203 C206 1.361 . S
C204 H190 0.930 . S
C204 N203 1.340 . S
C204 C208 1.407 . S
C205 C206 1.413 . S
C205 C207 1.416 . S
C205 C234 1.427 . S
C206 C198 1.424 1_554 S
C206 N203 1.361 . S
C206 C205 1.413 . S
C207 H196 0.931 . S
C207 C205 1.416 . S
C207 C208 1.332 . S
C208 H187 0.929 . S
C208 C204 1.407 . S
C208 C207 1.332 . S
H209 C202 0.930 . S
H210 C233 0.930 . S
H211 C234 0.929 . S
O212 Tb168 2.465 1_554 S
O212 C232 1.264 . S
O213 Tb168 2.386 . S
O213 C224 1.262 1_556 S
O214 Tb179 2.349 1_545 S
O214 C224 1.243 . S
O215 Tb168 2.428 . S
O215 C232 1.256 1_556 S
O216 Tb168 2.308 1_554 S
O216 C231 1.266 . S
O217 Tb179 2.393 1_545 S
O217 C231 1.248 . S
O218 Tb179 2.465 1_556 S
O218 C243 1.264 1_556 S
O219 Tb179 2.387 . S
O219 C235 1.265 . S
O220 Tb168 2.349 . S
O220 C235 1.242 1_546 S
O221 Tb179 2.428 . S
O221 C243 1.256 . S
O222 Tb179 2.308 1_556 S
O222 C242 1.266 1_565 S
O223 Tb168 2.393 . S
O223 C242 1.248 . S
C224 O213 1.262 1_554 S
C224 O214 1.243 . S
C225 C228 1.399 1_554 S
C225 C230 1.383 . S
C225 C232 1.496 . S
C226 C227 1.399 . S
C226 C230 1.389 . S
C227 C226 1.399 . S
C227 C229 1.380 1_554 S
C227 H244 0.929 . S
C228 C225 1.399 1_556 S
C228 C229 1.392 . S
C228 H245 0.929 . S
C229 C227 1.380 1_556 S
C229 C228 1.392 . S
C229 H246 0.929 . S
C230 C225 1.383 . S
C230 C226 1.389 . S
C230 H247 0.931 . S
C231 O216 1.266 . S
C231 O217 1.248 . S
C232 Tb168 2.802 1_554 S
C232 O212 1.264 . S
C232 O215 1.256 1_554 S
C232 C225 1.496 . S
C233 C200 1.448 . S
C233 H210 0.930 . S
C233 C234 1.328 1_556 S
C234 C205 1.427 . S
C234 H211 0.929 . S
C234 C233 1.328 1_554 S
C235 O219 1.265 . S
C235 O220 1.242 1_564 S
C236 C239 1.399 1_556 S
C236 C240 1.383 . S
C236 C243 1.496 1_556 S
C237 C238 1.399 . S
C237 C240 1.389 . S
C238 C237 1.399 . S
C238 C241 1.380 1_556 S
C238 H248 0.929 . S
C239 C236 1.399 1_554 S
C239 C241 1.392 . S
C239 H249 0.929 . S
C240 C236 1.383 . S
C240 C237 1.389 . S
C240 H250 0.931 . S
C241 C238 1.380 1_554 S
C241 C239 1.392 . S
C241 H251 0.929 . S
C242 O222 1.266 1_545 S
C242 O223 1.248 . S
C243 Tb179 2.802 . S
C243 O218 1.264 1_554 S
C243 O221 1.256 . S
C243 C236 1.496 1_554 S
H244 C227 0.929 . S
H245 C228 0.929 . S
H246 C229 0.929 . S
H247 C230 0.931 . S
H248 C238 0.929 . S
H249 C239 0.929 . S
H250 C240 0.931 . S
H251 C241 0.929 . S
Tb252 N281 2.617 . S
Tb252 N287 2.572 . S
Tb252 O296 2.465 . S
Tb252 O297 2.387 . S
Tb252 O299 2.428 . S
Tb252 O300 2.308 . S
Tb252 O304 2.349 . S
Tb252 O307 2.393 . S
Tb252 C316 2.802 . S
C253 N254 1.379 . S
C253 C256 1.416 . S
C253 C260 1.424 1_556 S
N254 C253 1.379 . S
N254 C257 1.334 . S
N254 Tb263 2.617 1_556 S
C255 C257 1.390 . S
C255 C258 1.339 . S
C255 H275 0.930 . S
C256 C253 1.416 . S
C256 C258 1.416 . S
C256 C262 1.448 . S
C257 N254 1.334 . S
C257 C255 1.390 . S
C257 H268 0.930 . S
C258 C255 1.339 . S
C258 C256 1.416 . S
C258 H279 0.930 . S
C259 C260 1.413 . S
C259 C261 1.427 . S
C259 C265 1.416 . S
C260 C253 1.424 1_554 S
C260 C259 1.413 . S
C260 N264 1.361 . S
C261 C259 1.427 . S
C261 C262 1.328 1_554 S
C261 H276 0.929 . S
C262 C256 1.448 . S
C262 C261 1.328 1_556 S
C262 H277 0.930 . S
Tb263 N254 2.617 1_554 S
Tb263 N264 2.572 . S
Tb263 O298 2.349 . S
Tb263 O301 2.393 1_554 S
Tb263 O302 2.465 . S
Tb263 O303 2.387 . S
Tb263 O305 2.428 . S
Tb263 O306 2.308 . S
Tb263 C327 2.802 . S
N264 C260 1.361 . S
N264 Tb263 2.572 . S
N264 C266 1.340 . S
C265 C259 1.416 . S
C265 C267 1.332 . S
C265 H273 0.931 . S
C266 N264 1.340 . S
C266 C267 1.407 . S
C266 H272 0.930 . S
C267 C265 1.332 . S
C267 C266 1.407 . S
C267 H269 0.929 . S
H268 C257 0.930 . S
H269 C267 0.929 . S
H270 C285 0.930 . S
H271 C292 0.929 . S
H272 C266 0.930 . S
H273 C265 0.931 . S
H274 C288 0.930 1_556 S
H275 C255 0.930 . S
H276 C261 0.929 . S
H277 C262 0.930 . S
H278 C283 0.930 . S
H279 C258 0.930 . S
H280 C291 0.931 . S
N281 Tb252 2.617 . S
N281 C282 1.379 . S
N281 C285 1.334 . S
C282 N281 1.379 . S
C282 C284 1.416 . S
C282 C290 1.424 . S
C283 H278 0.930 . S
C283 C285 1.390 . S
C283 C286 1.339 . S
C284 C282 1.416 . S
C284 C286 1.416 . S
C284 C317 1.448 . S
C285 H270 0.930 . S
C285 N281 1.334 . S
C285 C283 1.390 . S
C286 C283 1.339 . S
C286 C284 1.416 . S
C286 H293 0.930 . S
N287 Tb252 2.572 . S
N287 C288 1.340 . S
N287 C290 1.361 . S
C288 H274 0.930 1_554 S
C288 N287 1.340 . S
C288 C292 1.407 1_554 S
C289 C290 1.413 . S
C289 C291 1.416 . S
C289 C318 1.427 . S
C290 C282 1.424 . S
C290 N287 1.361 . S
C290 C289 1.413 . S
C291 H280 0.931 . S
C291 C289 1.416 . S
C291 C292 1.332 1_554 S
C292 H271 0.929 . S
C292 C288 1.407 1_556 S
C292 C291 1.332 1_556 S
H293 C286 0.930 . S
H294 C317 0.930 . S
H295 C318 0.929 . S
O296 Tb252 2.465 . S
O296 C316 1.264 . S
O297 Tb252 2.387 . S
O297 C308 1.264 . S
O298 Tb263 2.349 . S
O298 C308 1.243 . S
O299 Tb252 2.428 . S
O299 C316 1.256 . S
O300 Tb252 2.308 . S
O300 C315 1.266 1_554 S
O301 Tb263 2.393 1_556 S
O301 C315 1.248 . S
O302 Tb263 2.465 . S
O302 C327 1.264 . S
O303 Tb263 2.387 . S
O303 C319 1.264 . S
O304 Tb252 2.349 . S
O304 C319 1.243 . S
O305 Tb263 2.428 . S
O305 C327 1.256 . S
O306 Tb263 2.308 . S
O306 C326 1.266 . S
O307 Tb252 2.393 . S
O307 C326 1.248 . S
C308 O297 1.264 . S
C308 O298 1.243 . S
C309 C312 1.399 . S
C309 C314 1.383 . S
C309 C316 1.496 . S
C310 C311 1.399 1_556 S
C310 C314 1.389 1_556 S
C311 C310 1.399 1_554 S
C311 C313 1.380 . S
C311 H328 0.929 . S
C312 C309 1.399 . S
C312 C313 1.392 . S
C312 H329 0.929 . S
C313 C311 1.380 . S
C313 C312 1.392 . S
C313 H330 0.929 . S
C314 C309 1.383 . S
C314 C310 1.389 1_554 S
C314 H331 0.931 1_554 S
C315 O300 1.266 1_556 S
C315 O301 1.248 . S
C316 Tb252 2.802 . S
C316 O296 1.264 . S
C316 O299 1.256 . S
C316 C309 1.496 . S
C317 C284 1.448 . S
C317 H294 0.930 . S
C317 C318 1.328 . S
C318 C289 1.427 . S
C318 H295 0.929 . S
C318 C317 1.328 . S
C319 O303 1.264 . S
C319 O304 1.243 . S
C320 C323 1.399 . S
C320 C324 1.383 . S
C320 C327 1.496 . S
C321 C322 1.399 . S
C321 C324 1.389 . S
C322 C321 1.399 . S
C322 C325 1.380 . S
C322 H332 0.929 . S
C323 C320 1.399 . S
C323 C325 1.392 . S
C323 H333 0.929 . S
C324 C320 1.383 . S
C324 C321 1.389 . S
C324 H334 0.931 . S
C325 C322 1.380 . S
C325 C323 1.392 . S
C325 H335 0.929 . S
C326 O306 1.266 . S
C326 O307 1.248 . S
C327 Tb263 2.802 . S
C327 O302 1.264 . S
C327 O305 1.256 . S
C327 C320 1.496 . S
H328 C311 0.929 . S
H329 C312 0.929 . S
H330 C313 0.929 . S
H331 C314 0.931 1_556 S
H332 C322 0.929 . S
H333 C323 0.929 . S
H334 C324 0.931 . S
H335 C325 0.929 . S
Tb336 N365 2.617 . S
Tb336 N371 2.572 1_554 S
Tb336 O380 2.465 1_554 S
Tb336 O381 2.387 . S
Tb336 O383 2.428 . S
Tb336 O384 2.308 1_554 S
Tb336 O388 2.349 . S
Tb336 O391 2.393 . S
Tb336 C400 2.802 . S
C337 N338 1.379 . S
C337 C340 1.416 . S
C337 C344 1.424 1_556 S
N338 C337 1.379 . S
N338 C341 1.334 . S
N338 Tb347 2.617 1_556 S
C339 C341 1.390 . S
C339 C342 1.339 . S
C339 H359 0.930 . S
C340 C337 1.416 . S
C340 C342 1.416 . S
C340 C346 1.448 . S
C341 N338 1.334 . S
C341 C339 1.390 . S
C341 H352 0.930 . S
C342 C339 1.339 . S
C342 C340 1.416 . S
C342 H363 0.930 . S
C343 C344 1.413 . S
C343 C345 1.427 . S
C343 C349 1.416 . S
C344 C337 1.424 1_554 S
C344 C343 1.413 . S
C344 N348 1.361 . S
C345 C343 1.427 . S
C345 C346 1.328 1_554 S
C345 H360 0.929 . S
C346 C340 1.448 . S
C346 C345 1.328 1_556 S
C346 H361 0.930 . S
Tb347 N338 2.617 1_554 S
Tb347 N348 2.572 . S
Tb347 O382 2.349 . S
Tb347 O385 2.393 1_554 S
Tb347 O386 2.465 . S
Tb347 O387 2.387 . S
Tb347 O389 2.428 1_554 S
Tb347 O390 2.308 . S
Tb347 C411 2.802 . S
N348 C344 1.361 . S
N348 Tb347 2.572 . S
N348 C350 1.340 . S
C349 C343 1.416 . S
C349 C351 1.332 . S
C349 H357 0.931 . S
C350 N348 1.340 . S
C350 C351 1.407 . S
C350 H356 0.930 . S
C351 C349 1.332 . S
C351 C350 1.407 . S
C351 H353 0.929 . S
H352 C341 0.930 . S
H353 C351 0.929 . S
H354 C369 0.930 . S
H355 C376 0.929 . S
H356 C350 0.930 . S
H357 C349 0.931 . S
H358 C372 0.930 . S
H359 C339 0.930 . S
H360 C345 0.929 . S
H361 C346 0.930 . S
H362 C367 0.930 . S
H363 C342 0.930 . S
H364 C375 0.931 . S
N365 Tb336 2.617 . S
N365 C366 1.379 . S
N365 C369 1.334 . S
C366 N365 1.379 . S
C366 C368 1.416 . S
C366 C374 1.424 . S
C367 H362 0.930 . S
C367 C369 1.390 . S
C367 C370 1.339 . S
C368 C366 1.416 . S
C368 C370 1.416 . S
C368 C401 1.448 . S
C369 H354 0.930 . S
C369 N365 1.334 . S
C369 C367 1.390 . S
C370 C367 1.339 . S
C370 C368 1.416 . S
C370 H377 0.930 . S
N371 Tb336 2.572 1_556 S
N371 C372 1.340 . S
N371 C374 1.361 1_556 S
C372 H358 0.930 . S
C372 N371 1.340 . S
C372 C376 1.407 . S
C373 C374 1.413 1_556 S
C373 C375 1.416 . S
C373 C402 1.427 1_556 S
C374 C366 1.424 . S
C374 N371 1.361 1_554 S
C374 C373 1.413 1_554 S
C375 H364 0.931 . S
C375 C373 1.416 . S
C375 C376 1.332 . S
C376 H355 0.929 . S
C376 C372 1.407 . S
C376 C375 1.332 . S
H377 C370 0.930 . S
H378 C401 0.930 . S
H379 C402 0.929 . S
O380 Tb336 2.465 1_556 S
O380 C400 1.264 1_556 S
O381 Tb336 2.387 . S
O381 C392 1.264 . S
O382 Tb347 2.349 . S
O382 C392 1.243 . S
O383 Tb336 2.428 . S
O383 C400 1.256 . S
O384 Tb336 2.308 1_556 S
O384 C399 1.266 . S
O385 Tb347 2.393 1_556 S
O385 C399 1.248 . S
O386 Tb347 2.465 . S
O386 C411 1.264 . S
O387 Tb347 2.387 . S
O387 C403 1.264 . S
O388 Tb336 2.349 . S
O388 C403 1.243 . S
O389 Tb347 2.428 1_556 S
O389 C411 1.256 1_556 S
O390 Tb347 2.308 . S
O390 C410 1.266 . S
O391 Tb336 2.393 . S
O391 C410 1.248 . S
C392 O381 1.264 . S
C392 O382 1.243 . S
C393 C396 1.399 . S
C393 C398 1.383 1_554 S
C393 C400 1.496 . S
C394 C395 1.399 1_556 S
C394 C398 1.389 . S
C395 C394 1.399 1_554 S
C395 C397 1.380 . S
C395 H412 0.929 . S
C396 C393 1.399 . S
C396 C397 1.392 . S
C396 H413 0.929 . S
C397 C395 1.380 . S
C397 C396 1.392 . S
C397 H414 0.929 . S
C398 C393 1.383 1_556 S
C398 C394 1.389 . S
C398 H415 0.931 . S
C399 O384 1.266 . S
C399 O385 1.248 . S
C400 Tb336 2.802 . S
C400 O380 1.264 1_554 S
C400 O383 1.256 . S
C400 C393 1.496 . S
C401 C368 1.448 . S
C401 H378 0.930 . S
C401 C402 1.328 . S
C402 C373 1.427 1_554 S
C402 H379 0.929 . S
C402 C401 1.328 . S
C403 O387 1.264 . S
C403 O388 1.243 . S
C404 C407 1.399 1_554 S
C404 C408 1.383 . S
C404 C411 1.496 . S
C405 C406 1.399 . S
C405 C408 1.389 . S
C406 C405 1.399 . S
C406 C409 1.380 1_554 S
C406 H416 0.929 . S
C407 C404 1.399 1_556 S
C407 C409 1.392 . S
C407 H417 0.929 . S
C408 C404 1.383 . S
C408 C405 1.389 . S
C408 H418 0.931 . S
C409 C406 1.380 1_556 S
C409 C407 1.392 . S
C409 H419 0.929 . S
C410 O390 1.266 . S
C410 O391 1.248 . S
C411 Tb347 2.802 . S
C411 O386 1.264 . S
C411 O389 1.256 1_554 S
C411 C404 1.496 . S
H412 C395 0.929 . S
H413 C396 0.929 . S
H414 C397 0.929 . S
H415 C398 0.931 . S
H416 C406 0.929 . S
H417 C407 0.929 . S
H418 C408 0.931 . S
H419 C409 0.929 . S
Tb420 N449 2.617 . S
Tb420 N455 2.572 . S
Tb420 O464 2.465 . S
Tb420 O465 2.387 . S
Tb420 O467 2.428 . S
Tb420 O468 2.308 . S
Tb420 O472 2.349 . S
Tb420 O475 2.393 . S
Tb420 C484 2.802 . S
C421 N422 1.379 . S
C421 C424 1.416 . S
C421 C428 1.424 . S
N422 C421 1.379 . S
N422 C425 1.334 1_554 S
N422 Tb431 2.617 . S
C423 C425 1.390 . S
C423 C426 1.339 . S
C423 H443 0.930 . S
C424 C421 1.416 . S
C424 C426 1.416 1_554 S
C424 C430 1.448 . S
C425 N422 1.334 1_556 S
C425 C423 1.390 . S
C425 H436 0.930 . S
C426 C423 1.339 . S
C426 C424 1.416 1_556 S
C426 H447 0.930 . S
C427 C428 1.413 . S
C427 C429 1.427 . S
C427 C433 1.416 . S
C428 C421 1.424 . S
C428 C427 1.413 . S
C428 N432 1.361 . S
C429 C427 1.427 . S
C429 C430 1.328 . S
C429 H444 0.929 . S
C430 C424 1.448 . S
C430 C429 1.328 . S
C430 H445 0.930 . S
Tb431 N422 2.617 . S
Tb431 N432 2.572 . S
Tb431 O466 2.349 . S
Tb431 O469 2.393 . S
Tb431 O470 2.445 1_655 S
Tb431 O471 2.387 . S
Tb431 O473 2.428 1_655 S
Tb431 O474 2.308 . S
Tb431 C495 2.802 1_655 S
N432 C428 1.361 . S
N432 Tb431 2.572 . S
N432 C434 1.340 . S
C433 C427 1.416 . S
C433 C435 1.332 . S
C433 H441 0.931 . S
C434 N432 1.340 . S
C434 C435 1.407 . S
C434 H440 0.930 . S
C435 C433 1.332 . S
C435 C434 1.407 . S
C435 H437 0.929 . S
H436 C425 0.930 . S
H437 C435 0.929 . S
H438 C453 0.930 . S
H439 C460 0.929 . S
H440 C434 0.930 . S
H441 C433 0.931 . S
H442 C456 0.930 . S
H443 C423 0.930 . S
H444 C429 0.929 . S
H445 C430 0.930 . S
H446 C451 0.930 . S
H447 C426 0.930 . S
H448 C459 0.931 . S
N449 Tb420 2.617 . S
N449 C450 1.379 . S
N449 C453 1.334 . S
C450 N449 1.379 . S
C450 C452 1.416 . S
C450 C458 1.424 . S
C451 H446 0.930 . S
C451 C453 1.390 . S
C451 C454 1.339 . S
C452 C450 1.416 . S
C452 C454 1.416 . S
C452 C485 1.448 . S
C453 H438 0.930 . S
C453 N449 1.334 . S
C453 C451 1.390 . S
C454 C451 1.339 . S
C454 C452 1.416 . S
C454 H461 0.930 . S
N455 Tb420 2.572 . S
N455 C456 1.340 1_554 S
N455 C458 1.361 . S
C456 H442 0.930 . S
C456 N455 1.340 1_556 S
C456 C460 1.407 . S
C457 C458 1.413 . S
C457 C459 1.416 1_554 S
C457 C486 1.427 . S
C458 C450 1.424 . S
C458 N455 1.361 . S
C458 C457 1.413 . S
C459 H448 0.931 . S
C459 C457 1.416 1_556 S
C459 C460 1.332 . S
C460 H439 0.929 . S
C460 C456 1.407 . S
C460 C459 1.332 . S
H461 C454 0.930 . S
H462 C485 0.930 . S
H463 C486 0.929 . S
O464 Tb420 2.465 . S
O464 C484 1.264 . S
O465 Tb420 2.387 . S
O465 C476 1.264 . S
O466 Tb431 2.349 . S
O466 C476 1.243 . S
O467 Tb420 2.428 . S
O467 C484 1.256 . S
O468 Tb420 2.308 . S
O468 C483 1.266 1_554 S
O469 Tb431 2.393 . S
O469 C483 1.248 1_554 S
O470 Tb431 2.445 1_455 S
O470 C495 1.283 . S
O471 Tb431 2.387 . S
O471 C487 1.264 . S
O472 Tb420 2.349 . S
O472 C487 1.243 . S
O473 Tb431 2.428 1_455 S
O473 C495 1.256 . S
O474 Tb431 2.308 . S
O474 C494 1.266 . S
O475 Tb420 2.393 . S
O475 C494 1.248 . S
C476 O465 1.264 . S
C476 O466 1.243 . S
C477 C480 1.399 . S
C477 C482 1.383 1_554 S
C477 C484 1.496 . S
C478 C479 1.399 . S
C478 C482 1.389 . S
C479 C478 1.399 . S
C479 C481 1.380 1_556 S
C479 H496 0.929 . S
C480 C477 1.399 . S
C480 C481 1.392 . S
C480 H497 0.929 . S
C481 C479 1.380 1_554 S
C481 C480 1.392 . S
C481 H498 0.929 . S
C482 C477 1.383 1_556 S
C482 C478 1.389 . S
C482 H499 0.931 . S
C483 O468 1.266 1_556 S
C483 O469 1.248 1_556 S
C484 Tb420 2.802 . S
C484 O464 1.264 . S
C484 O467 1.256 . S
C484 C477 1.496 . S
C485 C452 1.448 . S
C485 H462 0.930 . S
C485 C486 1.328 . S
C486 C457 1.427 . S
C486 H463 0.929 . S
C486 C485 1.328 . S
C487 O471 1.264 . S
C487 O472 1.243 . S
C488 C491 1.399 . S
C488 C492 1.383 . S
C488 C495 1.496 . S
C489 C490 1.399 . S
C489 C492 1.389 . S
C490 C489 1.399 . S
C490 C493 1.380 . S
C490 H500 0.929 . S
C491 C488 1.399 . S
C491 C493 1.392 . S
C491 H501 0.929 . S
C492 C488 1.383 . S
C492 C489 1.389 . S
C492 H502 0.931 . S
C493 C490 1.380 . S
C493 C491 1.392 . S
C493 H503 0.929 . S
C494 O474 1.266 . S
C494 O475 1.248 . S
C495 Tb431 2.802 1_455 S
C495 O470 1.283 . S
C495 O473 1.256 . S
C495 C488 1.496 . S
H496 C479 0.929 . S
H497 C480 0.929 . S
H498 C481 0.929 . S
H499 C482 0.931 . S
H500 C490 0.929 . S
H501 C491 0.929 . S
H502 C492 0.931 . S
H503 C493 0.929 . S
Tb504 N533 2.617 . S
Tb504 N539 2.572 . S
Tb504 O548 2.465 . S
Tb504 O549 2.387 . S
Tb504 O551 2.428 . S
Tb504 O552 2.308 . S
Tb504 O556 2.349 . S
Tb504 O559 2.393 . S
Tb504 C568 2.802 . S
C505 N506 1.379 . S
C505 C508 1.416 1_556 S
C505 C512 1.424 . S
N506 C505 1.379 . S
N506 C509 1.334 1_556 S
N506 Tb515 2.617 . S
C507 C509 1.390 . S
C507 C510 1.339 . S
C507 H527 0.930 . S
C508 C505 1.416 1_554 S
C508 C510 1.416 . S
C508 C514 1.448 1_554 S
C509 N506 1.334 1_554 S
C509 C507 1.390 . S
C509 H520 0.930 . S
C510 C507 1.339 . S
C510 C508 1.416 . S
C510 H531 0.930 . S
C511 C512 1.413 . S
C511 C513 1.427 . S
C511 C517 1.416 . S
C512 C505 1.424 . S
C512 C511 1.413 . S
C512 N516 1.361 . S
C513 C511 1.427 . S
C513 C514 1.328 . S
C513 H528 0.929 . S
C514 C508 1.448 1_556 S
C514 C513 1.328 . S
C514 H529 0.930 1_556 S
Tb515 N506 2.617 . S
Tb515 N516 2.572 . S
Tb515 O550 2.349 . S
Tb515 O553 2.393 . S
Tb515 O554 2.465 . S
Tb515 O555 2.387 . S
Tb515 O557 2.428 . S
Tb515 O558 2.308 . S
Tb515 C579 2.802 . S
N516 C512 1.361 . S
N516 Tb515 2.572 . S
N516 C518 1.340 . S
C517 C511 1.416 . S
C517 C519 1.332 . S
C517 H525 0.931 . S
C518 N516 1.340 . S
C518 C519 1.407 . S
C518 H524 0.930 . S
C519 C517 1.332 . S
C519 C518 1.407 . S
C519 H521 0.929 . S
H520 C509 0.930 . S
H521 C519 0.929 . S
H522 C537 0.930 . S
H523 C544 0.929 1_554 S
H524 C518 0.930 . S
H525 C517 0.931 . S
H526 C540 0.930 . S
H527 C507 0.930 . S
H528 C513 0.929 . S
H529 C514 0.930 1_554 S
H530 C535 0.930 . S
H531 C510 0.930 . S
H532 C543 0.931 . S
N533 Tb504 2.617 . S
N533 C534 1.379 . S
N533 C537 1.334 . S
C534 N533 1.379 . S
C534 C536 1.416 . S
C534 C542 1.424 . S
C535 H530 0.930 . S
C535 C537 1.390 . S
C535 C538 1.339 . S
C536 C534 1.416 . S
C536 C538 1.416 . S
C536 C569 1.448 . S
C537 H522 0.930 . S
C537 N533 1.334 . S
C537 C535 1.390 . S
C538 C535 1.339 . S
C538 C536 1.416 . S
C538 H545 0.930 . S
N539 Tb504 2.572 . S
N539 C540 1.340 . S
N539 C542 1.361 . S
C540 H526 0.930 . S
C540 N539 1.340 . S
C540 C544 1.407 . S
C541 C542 1.413 . S
C541 C543 1.416 . S
C541 C570 1.427 . S
C542 C534 1.424 . S
C542 N539 1.361 . S
C542 C541 1.413 . S
C543 H532 0.931 . S
C543 C541 1.416 . S
C543 C544 1.332 . S
C544 H523 0.929 1_556 S
C544 C540 1.407 . S
C544 C543 1.332 . S
H545 C538 0.930 . S
H546 C569 0.930 . S
H547 C570 0.929 . S
O548 Tb504 2.465 . S
O548 C568 1.264 . S
O549 Tb504 2.387 . S
O549 C560 1.264 . S
O550 Tb515 2.349 . S
O550 C560 1.243 . S
O551 Tb504 2.428 . S
O551 C568 1.256 . S
O552 Tb504 2.308 . S
O552 C567 1.266 . S
O553 Tb515 2.393 . S
O553 C567 1.248 . S
O554 Tb515 2.465 . S
O554 C579 1.264 . S
O555 Tb515 2.387 . S
O555 C571 1.264 . S
O556 Tb504 2.349 . S
O556 C571 1.243 . S
O557 Tb515 2.428 . S
O557 C579 1.256 . S
O558 Tb515 2.308 . S
O558 C578 1.266 . S
O559 Tb504 2.393 . S
O559 C578 1.248 . S
C560 O549 1.264 . S
C560 O550 1.243 . S
C561 C564 1.399 . S
C561 C566 1.383 . S
C561 C568 1.496 . S
C562 C563 1.399 . S
C562 C566 1.389 . S
C563 C562 1.399 . S
C563 C565 1.380 . S
C563 H580 0.929 . S
C564 C561 1.399 . S
C564 C565 1.392 . S
C564 H581 0.929 . S
C565 C563 1.380 . S
C565 C564 1.392 . S
C565 H582 0.929 . S
C566 C561 1.383 . S
C566 C562 1.389 . S
C566 H583 0.931 . S
C567 O552 1.266 . S
C567 O553 1.248 . S
C568 Tb504 2.802 . S
C568 O548 1.264 . S
C568 O551 1.256 . S
C568 C561 1.496 . S
C569 C536 1.448 . S
C569 H546 0.930 . S
C569 C570 1.328 . S
C570 C541 1.427 . S
C570 H547 0.929 . S
C570 C569 1.328 . S
C571 O555 1.264 . S
C571 O556 1.243 . S
C572 C575 1.375 1_565 S
C572 C576 1.383 . S
C572 C579 1.496 . S
C573 C574 1.399 . S
C573 C576 1.389 1_545 S
C574 C573 1.399 . S
C574 C577 1.380 . S
C574 H584 0.929 . S
C575 C572 1.375 1_545 S
C575 C577 1.437 . S
C575 H585 0.910 1_545 S
C576 C572 1.383 . S
C576 C573 1.389 1_565 S
C576 H586 0.931 . S
C577 C574 1.380 . S
C577 C575 1.437 . S
C577 H587 0.929 . S
C578 O558 1.266 . S
C578 O559 1.248 . S
C579 Tb515 2.802 . S
C579 O554 1.264 . S
C579 O557 1.256 . S
C579 C572 1.496 . S
H580 C563 0.929 . S
H581 C564 0.929 . S
H582 C565 0.929 . S
H583 C566 0.931 . S
H584 C574 0.929 . S
H585 C575 0.910 1_565 S
H586 C576 0.931 . S
H587 C577 0.929 . S
Tb588 N617 2.617 1_556 S
Tb588 N623 2.572 . S
Tb588 O632 2.465 . S
Tb588 O633 2.387 . S
Tb588 O635 2.428 . S
Tb588 O636 2.308 . S
Tb588 O640 2.349 . S
Tb588 O643 2.393 1_556 S
Tb588 C652 2.802 . S
C589 N590 1.379 . S
C589 C592 1.416 . S
C589 C596 1.424 . S
N590 C589 1.379 . S
N590 C593 1.334 . S
N590 Tb599 2.617 . S
C591 C593 1.390 . S
C591 C594 1.339 . S
C591 H611 0.930 . S
C592 C589 1.416 . S
C592 C594 1.416 . S
C592 C598 1.448 . S
C593 N590 1.334 . S
C593 C591 1.390 . S
C593 H604 0.930 . S
C594 C591 1.339 . S
C594 C592 1.416 . S
C594 H615 0.930 . S
C595 C596 1.413 . S
C595 C597 1.427 . S
C595 C601 1.416 1_556 S
C596 C589 1.424 . S
C596 C595 1.413 . S
C596 N600 1.361 . S
C597 C595 1.427 . S
C597 C598 1.328 . S
C597 H612 0.929 . S
C598 C592 1.448 . S
C598 C597 1.328 . S
C598 H613 0.930 . S
Tb599 N590 2.617 . S
Tb599 N600 2.572 . S
Tb599 O634 2.349 . S
Tb599 O637 2.393 . S
Tb599 O638 2.465 . S
Tb599 O639 2.387 . S
Tb599 O641 2.428 . S
Tb599 O642 2.308 1_556 S
Tb599 C663 2.802 . S
N600 C596 1.361 . S
N600 Tb599 2.572 . S
N600 C602 1.340 1_556 S
C601 C595 1.416 1_554 S
C601 C603 1.332 . S
C601 H609 0.931 . S
C602 N600 1.340 1_554 S
C602 C603 1.407 . S
C602 H608 0.930 . S
C603 C601 1.332 . S
C603 C602 1.407 . S
C603 H605 0.929 . S
H604 C593 0.930 . S
H605 C603 0.929 . S
H606 C621 0.930 . S
H607 C628 0.929 . S
H608 C602 0.930 . S
H609 C601 0.931 . S
H610 C624 0.930 . S
H611 C591 0.930 . S
H612 C597 0.929 . S
H613 C598 0.930 . S
H614 C619 0.930 . S
H615 C594 0.930 . S
H616 C627 0.931 . S
N617 Tb588 2.617 1_554 S
N617 C618 1.379 1_554 S
N617 C621 1.334 . S
C618 N617 1.379 1_556 S
C618 C620 1.416 . S
C618 C626 1.424 . S
C619 H614 0.930 . S
C619 C621 1.390 . S
C619 C622 1.339 . S
C620 C618 1.416 . S
C620 C622 1.416 1_556 S
C620 C653 1.448 . S
C621 H606 0.930 . S
C621 N617 1.334 . S
C621 C619 1.390 . S
C622 C619 1.339 . S
C622 C620 1.416 1_554 S
C622 H629 0.930 . S
N623 Tb588 2.572 . S
N623 C624 1.340 . S
N623 C626 1.361 . S
C624 H610 0.930 . S
C624 N623 1.340 . S
C624 C628 1.407 . S
C625 C626 1.413 . S
C625 C627 1.416 . S
C625 C654 1.427 . S
C626 C618 1.424 . S
C626 N623 1.361 . S
C626 C625 1.413 . S
C627 H616 0.931 . S
C627 C625 1.416 . S
C627 C628 1.332 . S
C628 H607 0.929 . S
C628 C624 1.407 . S
C628 C627 1.332 . S
H629 C622 0.930 . S
H630 C653 0.930 . S
H631 C654 0.929 . S
O632 Tb588 2.465 . S
O632 C652 1.264 . S
O633 Tb588 2.387 . S
O633 C644 1.264 . S
O634 Tb599 2.349 . S
O634 C644 1.243 . S
O635 Tb588 2.428 . S
O635 C652 1.256 . S
O636 Tb588 2.308 . S
O636 C651 1.266 . S
O637 Tb599 2.393 . S
O637 C651 1.248 . S
O638 Tb599 2.465 . S
O638 C663 1.264 . S
O639 Tb599 2.387 . S
O639 C655 1.264 . S
O640 Tb588 2.349 . S
O640 C655 1.243 . S
O641 Tb599 2.428 . S
O641 C663 1.256 . S
O642 Tb599 2.308 1_554 S
O642 C662 1.266 . S
O643 Tb588 2.393 1_554 S
O643 C662 1.248 . S
C644 O633 1.264 . S
C644 O634 1.243 . S
C645 C648 1.399 . S
C645 C650 1.383 . S
C645 C652 1.496 . S
C646 C647 1.399 . S
C646 C650 1.389 . S
C647 C646 1.399 . S
C647 C649 1.380 . S
C647 H664 0.929 . S
C648 C645 1.399 . S
C648 C649 1.392 . S
C648 H665 0.929 1_556 S
C649 C647 1.380 . S
C649 C648 1.392 . S
C649 H666 0.929 1_556 S
C650 C645 1.383 . S
C650 C646 1.389 . S
C650 H667 0.931 . S
C651 O636 1.266 . S
C651 O637 1.248 . S
C652 Tb588 2.802 . S
C652 O632 1.264 . S
C652 O635 1.256 . S
C652 C645 1.496 . S
C653 C620 1.448 . S
C653 H630 0.930 . S
C653 C654 1.328 . S
C654 C625 1.427 . S
C654 H631 0.929 . S
C654 C653 1.328 . S
C655 O639 1.264 . S
C655 O640 1.243 . S
C656 C659 1.399 . S
C656 C660 1.383 . S
C656 C663 1.496 . S
C657 C658 1.399 . S
C657 C660 1.389 . S
C658 C657 1.399 . S
C658 C661 1.380 . S
C658 H668 0.929 . S
C659 C656 1.399 . S
C659 C661 1.392 . S
C659 H669 0.929 . S
C660 C656 1.383 . S
C660 C657 1.389 . S
C660 H670 0.931 1_556 S
C661 C658 1.380 . S
C661 C659 1.392 . S
C661 H671 0.929 . S
C662 O642 1.266 . S
C662 O643 1.248 . S
C663 Tb599 2.802 . S
C663 O638 1.264 . S
C663 O641 1.256 . S
C663 C656 1.496 . S
H664 C647 0.929 . S
H665 C648 0.929 1_554 S
H666 C649 0.929 1_554 S
H667 C650 0.931 . S
H668 C658 0.929 . S
H669 C659 0.929 . S
H670 C660 0.931 1_554 S
H671 C661 0.929 . S
Tb672 N701 2.617 . S
Tb672 N707 2.572 . S
Tb672 O716 2.465 . S
Tb672 O717 2.387 . S
Tb672 O719 2.428 . S
Tb672 O720 2.308 . S
Tb672 O724 2.349 . S
Tb672 O727 2.393 . S
Tb672 C736 2.802 . S
C673 N674 1.379 . S
C673 C676 1.416 . S
C673 C680 1.424 . S
N674 C673 1.379 . S
N674 C677 1.334 1_556 S
N674 Tb683 2.617 . S
C675 C677 1.390 . S
C675 C678 1.339 . S
C675 H695 0.930 . S
C676 C673 1.416 . S
C676 C678 1.416 1_556 S
C676 C682 1.448 . S
C677 N674 1.334 1_554 S
C677 C675 1.390 . S
C677 H688 0.930 . S
C678 C675 1.339 . S
C678 C676 1.416 1_554 S
C678 H699 0.930 . S
C679 C680 1.413 . S
C679 C681 1.427 . S
C679 C685 1.416 . S
C680 C673 1.424 . S
C680 C679 1.413 . S
C680 N684 1.361 . S
C681 C679 1.427 . S
C681 C682 1.328 . S
C681 H696 0.929 . S
C682 C676 1.448 . S
C682 C681 1.328 . S
C682 H697 0.930 . S
Tb683 N674 2.617 . S
Tb683 N684 2.572 . S
Tb683 O718 2.349 . S
Tb683 O721 2.393 1_556 S
Tb683 O722 2.465 . S
Tb683 O723 2.387 . S
Tb683 O725 2.428 . S
Tb683 O726 2.308 . S
Tb683 C747 2.802 . S
N684 C680 1.361 . S
N684 Tb683 2.572 . S
N684 C686 1.340 . S
C685 C679 1.416 . S
C685 C687 1.332 . S
C685 H693 0.931 . S
C686 N684 1.340 . S
C686 C687 1.407 . S
C686 H692 0.930 . S
C687 C685 1.332 . S
C687 C686 1.407 . S
C687 H689 0.929 . S
H688 C677 0.930 . S
H689 C687 0.929 . S
H690 C705 0.930 . S
H691 C712 0.929 . S
H692 C686 0.930 . S
H693 C685 0.931 . S
H694 C708 0.930 . S
H695 C675 0.930 . S
H696 C681 0.929 . S
H697 C682 0.930 . S
H698 C703 0.930 . S
H699 C678 0.930 . S
H700 C711 0.931 . S
N701 Tb672 2.617 . S
N701 C702 1.379 . S
N701 C705 1.334 . S
C702 N701 1.379 . S
C702 C704 1.416 . S
C702 C710 1.424 . S
C703 H698 0.930 . S
C703 C705 1.390 . S
C703 C706 1.339 . S
C704 C702 1.416 . S
C704 C706 1.416 . S
C704 C737 1.448 . S
C705 H690 0.930 . S
C705 N701 1.334 . S
C705 C703 1.390 . S
C706 C703 1.339 . S
C706 C704 1.416 . S
C706 H713 0.930 . S
N707 Tb672 2.572 . S
N707 C708 1.340 1_556 S
N707 C710 1.361 . S
C708 H694 0.930 . S
C708 N707 1.340 1_554 S
C708 C712 1.407 . S
C709 C710 1.413 . S
C709 C711 1.416 1_556 S
C709 C738 1.427 . S
C710 C702 1.424 . S
C710 N707 1.361 . S
C710 C709 1.413 . S
C711 H700 0.931 . S
C711 C709 1.416 1_554 S
C711 C712 1.332 . S
C712 H691 0.929 . S
C712 C708 1.407 . S
C712 C711 1.332 . S
H713 C706 0.930 . S
H714 C737 0.930 . S
H715 C738 0.929 . S
O716 Tb672 2.465 . S
O716 C736 1.264 . S
O717 Tb672 2.387 . S
O717 C728 1.264 . S
O718 Tb683 2.349 . S
O718 C728 1.243 . S
O719 Tb672 2.428 . S
O719 C736 1.256 . S
O720 Tb672 2.308 . S
O720 C735 1.266 1_556 S
O721 Tb683 2.393 1_554 S
O721 C735 1.248 . S
O722 Tb683 2.465 . S
O722 C747 1.264 . S
O723 Tb683 2.387 . S
O723 C739 1.264 . S
O724 Tb672 2.349 . S
O724 C739 1.243 . S
O725 Tb683 2.428 . S
O725 C747 1.256 . S
O726 Tb683 2.308 . S
O726 C746 1.266 . S
O727 Tb672 2.393 . S
O727 C746 1.248 . S
C728 O717 1.264 . S
C728 O718 1.243 . S
C729 C732 1.399 . S
C729 C734 1.383 1_556 S
C729 C736 1.496 . S
C730 C731 1.399 1_554 S
C730 C734 1.389 . S
C731 C730 1.399 1_556 S
C731 C733 1.380 . S
C731 H748 0.929 . S
C732 C729 1.399 . S
C732 C733 1.392 . S
C732 H749 0.929 . S
C733 C731 1.380 . S
C733 C732 1.392 . S
C733 H750 0.929 . S
C734 C729 1.383 1_554 S
C734 C730 1.389 . S
C734 H751 0.931 . S
C735 O720 1.266 1_554 S
C735 O721 1.248 . S
C736 Tb672 2.802 . S
C736 O716 1.264 . S
C736 O719 1.256 . S
C736 C729 1.496 . S
C737 C704 1.448 . S
C737 H714 0.930 . S
C737 C738 1.328 . S
C738 C709 1.427 . S
C738 H715 0.929 . S
C738 C737 1.328 . S
C739 O723 1.264 . S
C739 O724 1.243 . S
C740 C743 1.399 . S
C740 C744 1.383 . S
C740 C747 1.496 . S
C741 C742 1.399 . S
C741 C744 1.389 . S
C742 C741 1.399 . S
C742 C745 1.380 . S
C742 H752 0.929 . S
C743 C740 1.399 . S
C743 C745 1.392 . S
C743 H753 0.929 . S
C744 C740 1.383 . S
C744 C741 1.389 . S
C744 H754 0.931 . S
C745 C742 1.380 . S
C745 C743 1.392 . S
C745 H755 0.929 . S
C746 O726 1.266 . S
C746 O727 1.248 . S
C747 Tb683 2.802 . S
C747 O722 1.264 . S
C747 O725 1.256 . S
C747 C740 1.496 . S
H748 C731 0.929 . S
H749 C732 0.929 . S
H750 C733 0.929 . S
H751 C734 0.931 . S
H752 C742 0.929 . S
H753 C743 0.929 . S
H754 C744 0.931 . S
H755 C745 0.929 . S
H756 C762 0.930 . S
H757 C765 0.930 . S
H758 C766 0.930 . S
H759 C767 0.930 . S
H760 C770 0.930 . S
H761 C771 0.930 . S
C762 H756 0.930 . S
C762 C763 1.355 . S
C762 C764 1.415 . S
C763 C762 1.355 . S
C763 C765 1.419 1_554 S
C764 C762 1.415 . S
C764 C769 1.425 1_554 S
C764 C771 1.409 . S
C765 H757 0.930 . S
C765 C763 1.419 1_556 S
C765 C766 1.362 . S
C766 H758 0.930 . S
C766 C765 1.362 . S
C766 C769 1.409 . S
C767 H759 0.930 . S
C767 C768 1.355 1_556 S
C767 C769 1.415 . S
C768 C767 1.355 1_554 S
C768 C770 1.419 . S
C769 C764 1.425 1_556 S
C769 C766 1.409 . S
C769 C767 1.415 . S
C770 H760 0.930 . S
C770 C768 1.419 . S
C770 C771 1.362 . S
C771 H761 0.930 . S
C771 C764 1.409 . S
C771 C770 1.362 . S
H772 C778 0.930 . S
H773 C781 0.930 . S
H774 C782 0.930 . S
H775 C783 0.930 . S
H776 C786 0.930 . S
H777 C787 0.930 . S
C778 H772 0.930 . S
C778 C779 1.355 . S
C778 C780 1.415 1_554 S
C779 C778 1.355 . S
C779 C781 1.419 . S
C780 C778 1.415 1_556 S
C780 C785 1.425 . S
C780 C787 1.409 . S
C781 H773 0.930 . S
C781 C779 1.419 . S
C781 C782 1.362 1_554 S
C782 H774 0.930 . S
C782 C781 1.362 1_556 S
C782 C785 1.409 . S
C783 H775 0.930 . S
C783 C784 1.355 . S
C783 C785 1.415 . S
C784 C783 1.355 . S
C784 C786 1.419 . S
C785 C780 1.425 . S
C785 C782 1.409 . S
C785 C783 1.415 . S
C786 H776 0.930 . S
C786 C784 1.419 . S
C786 C787 1.362 . S
C787 H777 0.930 . S
C787 C780 1.409 . S
C787 C786 1.362 . S
H788 C794 0.930 . S
H789 C797 0.930 . S
H790 C798 0.930 . S
H791 C799 0.930 . S
H792 C802 0.930 . S
H793 C803 0.930 . S
C794 H788 0.930 . S
C794 C795 1.355 . S
C794 C796 1.415 . S
C795 C794 1.355 . S
C795 C797 1.419 . S
C796 C794 1.415 . S
C796 C801 1.425 . S
C796 C803 1.409 . S
C797 H789 0.930 . S
C797 C795 1.419 . S
C797 C798 1.362 . S
C798 H790 0.930 . S
C798 C797 1.362 . S
C798 C801 1.409 . S
C799 H791 0.930 . S
C799 C800 1.355 . S
C799 C801 1.415 . S
C800 C799 1.355 . S
C800 C802 1.419 . S
C801 C796 1.425 . S
C801 C798 1.409 . S
C801 C799 1.415 . S
C802 H792 0.930 . S
C802 C800 1.419 . S
C802 C803 1.362 . S
C803 H793 0.930 . S
C803 C796 1.409 . S
C803 C802 1.362 . S
H804 C810 0.930 . S
H805 C813 0.930 . S
H806 C814 0.930 . S
H807 C815 0.930 . S
H808 C818 0.930 . S
H809 C819 0.930 . S
C810 H804 0.930 . S
C810 C811 1.355 1_556 S
C810 C812 1.415 1_556 S
C811 C810 1.355 1_554 S
C811 C813 1.419 . S
C812 C810 1.415 1_554 S
C812 C817 1.425 . S
C812 C819 1.409 1_554 S
C813 H805 0.930 . S
C813 C811 1.419 . S
C813 C814 1.362 . S
C814 H806 0.930 . S
C814 C813 1.362 . S
C814 C817 1.409 . S
C815 H807 0.930 . S
C815 C816 1.355 . S
C815 C817 1.415 . S
C816 C815 1.355 . S
C816 C818 1.419 1_554 S
C817 C812 1.425 . S
C817 C814 1.409 . S
C817 C815 1.415 . S
C818 H808 0.930 . S
C818 C816 1.419 1_556 S
C818 C819 1.362 . S
C819 H809 0.930 . S
C819 C812 1.409 1_556 S
C819 C818 1.362 . S
H820 C826 0.930 . S
H821 C829 0.930 1_455 S
H822 C830 0.930 . S
H823 C831 0.930 . S
H824 C834 0.930 . S
H825 C835 0.930 . S
C826 H820 0.930 . S
C826 C827 1.355 . S
C826 C828 1.415 . S
C827 C826 1.355 . S
C827 C829 1.419 . S
C828 C826 1.415 . S
C828 C833 1.425 . S
C828 C835 1.409 . S
C829 H821 0.930 1_655 S
C829 C827 1.419 . S
C829 C830 1.362 1_655 S
C830 H822 0.930 . S
C830 C829 1.362 1_455 S
C830 C833 1.409 1_455 S
C831 H823 0.930 . S
C831 C832 1.355 1_455 S
C831 C833 1.415 1_455 S
C832 C831 1.355 1_655 S
C832 C834 1.419 . S
C833 C828 1.425 . S
C833 C830 1.409 1_655 S
C833 C831 1.415 1_655 S
C834 H824 0.930 . S
C834 C832 1.419 . S
C834 C835 1.362 . S
C835 H825 0.930 . S
C835 C828 1.409 . S
C835 C834 1.362 . S
H836 C842 0.930 . S
H837 C845 0.930 . S
H838 C846 0.930 . S
H839 C847 0.930 . S
H840 C850 0.930 . S
H841 C851 0.930 . S
C842 H836 0.930 . S
C842 C843 1.355 . S
C842 C844 1.415 . S
C843 C842 1.355 . S
C843 C845 1.419 . S
C844 C842 1.415 . S
C844 C849 1.425 . S
C844 C851 1.409 . S
C845 H837 0.930 . S
C845 C843 1.419 . S
C845 C846 1.362 . S
C846 H838 0.930 . S
C846 C845 1.362 . S
C846 C849 1.409 . S
C847 H839 0.930 . S
C847 C848 1.355 . S
C847 C849 1.415 . S
C848 C847 1.355 . S
C848 C850 1.419 . S
C849 C844 1.425 . S
C849 C846 1.409 . S
C849 C847 1.415 . S
C850 H840 0.930 . S
C850 C848 1.419 . S
C850 C851 1.362 . S
C851 H841 0.930 . S
C851 C844 1.409 . S
C851 C850 1.362 . S
H852 C858 0.930 . S
H853 C861 0.930 . S
H854 C862 0.930 . S
H855 C863 0.930 . S
H856 C866 0.930 . S
H857 C867 0.930 . S
C858 H852 0.930 . S
C858 C859 1.355 . S
C858 C860 1.415 . S
C859 C858 1.355 . S
C859 C861 1.419 . S
C860 C858 1.415 . S
C860 C865 1.425 . S
C860 C867 1.409 . S
C861 H853 0.930 . S
C861 C859 1.419 . S
C861 C862 1.362 . S
C862 H854 0.930 . S
C862 C861 1.362 . S
C862 C865 1.409 . S
C863 H855 0.930 . S
C863 C864 1.355 . S
C863 C865 1.415 . S
C864 C863 1.355 . S
C864 C866 1.419 . S
C865 C860 1.425 . S
C865 C862 1.409 . S
C865 C863 1.415 . S
C866 H856 0.930 . S
C866 C864 1.419 . S
C866 C867 1.362 . S
C867 H857 0.930 . S
C867 C860 1.409 . S
C867 C866 1.362 . S
H868 C874 0.930 . S
H869 C877 0.930 . S
H870 C878 0.930 . S
H871 C879 0.930 . S
H872 C882 0.930 . S
H873 C883 0.930 . S
C874 H868 0.930 . S
C874 C875 1.355 . S
C874 C876 1.415 . S
C875 C874 1.355 . S
C875 C877 1.419 . S
C876 C874 1.415 . S
C876 C881 1.425 . S
C876 C883 1.409 . S
C877 H869 0.930 . S
C877 C875 1.419 . S
C877 C878 1.362 . S
C878 H870 0.930 . S
C878 C877 1.362 . S
C878 C881 1.409 . S
C879 H871 0.930 . S
C879 C880 1.355 . S
C879 C881 1.415 . S
C880 C879 1.355 . S
C880 C882 1.419 . S
C881 C876 1.425 . S
C881 C878 1.409 . S
C881 C879 1.415 . S
C882 H872 0.930 . S
C882 C880 1.419 . S
C882 C883 1.362 . S
C883 H873 0.930 . S
C883 C876 1.409 . S
C883 C882 1.362 . S
H884 C890 0.930 . S
H885 C893 0.930 . S
H886 C894 0.930 . S
H887 C895 0.930 . S
H888 C898 0.930 1_565 S
H889 C899 0.930 1_565 S
C890 H884 0.930 . S
C890 C891 1.355 . S
C890 C892 1.415 . S
C891 C890 1.355 . S
C891 C893 1.419 . S
C892 C890 1.415 . S
C892 C897 1.425 . S
C892 C899 1.409 . S
C893 H885 0.930 . S
C893 C891 1.419 . S
C893 C894 1.362 . S
C894 H886 0.930 . S
C894 C893 1.362 . S
C894 C897 1.409 . S
C895 H887 0.930 . S
C895 C896 1.355 . S
C895 C897 1.415 . S
C896 C895 1.355 . S
C896 C898 1.419 . S
C897 C892 1.425 . S
C897 C894 1.409 . S
C897 C895 1.415 . S
C898 H888 0.930 1_545 S
C898 C896 1.419 . S
C898 C899 1.362 . S
C899 H889 0.930 1_545 S
C899 C892 1.409 . S
C899 C898 1.362 . S
H900 C906 0.930 . S
H901 C909 0.930 . S
H902 C910 0.930 . S
H903 C911 0.930 . S
H904 C914 0.930 . S
H905 C915 0.930 . S
C906 H900 0.930 . S
C906 C907 1.355 . S
C906 C908 1.415 . S
C907 C906 1.355 . S
C907 C909 1.419 . S
C908 C906 1.415 . S
C908 C913 1.425 . S
C908 C915 1.409 . S
C909 H901 0.930 . S
C909 C907 1.419 . S
C909 C910 1.362 . S
C910 H902 0.930 . S
C910 C909 1.362 . S
C910 C913 1.409 . S
C911 H903 0.930 . S
C911 C912 1.355 . S
C911 C913 1.415 . S
C912 C911 1.355 . S
C912 C914 1.419 . S
C913 C908 1.425 . S
C913 C910 1.409 . S
C913 C911 1.415 . S
C914 H904 0.930 . S
C914 C912 1.419 . S
C914 C915 1.362 . S
C915 H905 0.930 . S
C915 C908 1.409 . S
C915 C914 1.362 . S
H916 C922 0.930 1_556 S
H917 C925 0.930 . S
H918 C926 0.930 . S
H919 C927 0.930 . S
H920 C930 0.930 . S
H921 C931 0.930 . S
C922 H916 0.930 1_554 S
C922 C923 1.355 . S
C922 C924 1.415 1_565 S
C923 C922 1.355 . S
C923 C925 1.419 . S
C924 C922 1.415 1_545 S
C924 C929 1.425 1_545 S
C924 C931 1.409 . S
C925 H917 0.930 . S
C925 C923 1.419 . S
C925 C926 1.362 . S
C926 H918 0.930 . S
C926 C925 1.362 . S
C926 C929 1.442 . S
C927 H919 0.930 . S
C927 C928 1.355 . S
C927 C929 1.383 1_545 S
C928 C927 1.355 . S
C928 C930 1.419 . S
C929 C924 1.425 1_565 S
C929 C926 1.442 . S
C929 C927 1.383 1_565 S
C930 H920 0.930 . S
C930 C928 1.419 . S
C930 C931 1.362 . S
C931 H921 0.930 . S
C931 C924 1.409 . S
C931 C930 1.362 . S
H932 C938 0.930 . S
H933 C941 0.930 1_556 S
H934 C942 0.930 . S
H935 C943 0.930 . S
H936 C946 0.930 . S
H937 C947 0.930 . S
C938 H932 0.930 . S
C938 C939 1.355 . S
C938 C940 1.415 . S
C939 C938 1.355 . S
C939 C941 1.419 1_455 S
C940 C938 1.415 . S
C940 C945 1.425 . S
C940 C947 1.409 . S
C941 H933 0.930 1_554 S
C941 C939 1.419 1_655 S
C941 C942 1.362 1_654 S
C942 H934 0.930 . S
C942 C941 1.362 1_456 S
C942 C945 1.409 1_556 S
C943 H935 0.930 . S
C943 C944 1.355 1_556 S
C943 C945 1.415 1_556 S
C944 C943 1.355 1_554 S
C944 C946 1.419 . S
C945 C940 1.425 . S
C945 C942 1.409 1_554 S
C945 C943 1.415 1_554 S
C946 H936 0.930 . S
C946 C944 1.419 . S
C946 C947 1.362 . S
C947 H937 0.930 . S
C947 C940 1.409 . S
C947 C946 1.362 . S
H948 C954 0.930 . S
H949 C957 0.930 . S
H950 C958 0.930 . S
H951 C959 0.930 . S
H952 C962 0.930 . S
H953 C963 0.930 . S
C954 H948 0.930 . S
C954 C955 1.355 1_554 S
C954 C956 1.415 . S
C955 C954 1.355 1_556 S
C955 C957 1.419 . S
C956 C954 1.415 . S
C956 C961 1.425 . S
C956 C963 1.409 . S
C957 H949 0.930 . S
C957 C955 1.419 . S
C957 C958 1.362 1_556 S
C958 H950 0.930 . S
C958 C957 1.362 1_554 S
C958 C961 1.409 . S
C959 H951 0.930 . S
C959 C960 1.355 . S
C959 C961 1.415 . S
C960 C959 1.355 . S
C960 C962 1.419 . S
C961 C956 1.425 . S
C961 C958 1.409 . S
C961 C959 1.415 . S
C962 H952 0.930 . S
C962 C960 1.419 . S
C962 C963 1.362 . S
C963 H953 0.930 . S
C963 C956 1.409 . S
C963 C962 1.362 . S
H964 C970 0.930 . S
H965 C973 0.930 . S
H966 C974 0.930 . S
H967 C975 0.930 . S
H968 C978 0.930 . S
H969 C979 0.930 . S
C970 H964 0.930 . S
C970 C971 1.355 1_556 S
C970 C972 1.415 . S
C971 C970 1.355 1_554 S
C971 C973 1.419 . S
C972 C970 1.415 . S
C972 C977 1.425 1_556 S
C972 C979 1.409 . S
C973 H965 0.930 . S
C973 C971 1.419 . S
C973 C974 1.362 . S
C974 H966 0.930 . S
C974 C973 1.362 . S
C974 C977 1.409 . S
C975 H967 0.930 . S
C975 C976 1.355 1_554 S
C975 C977 1.415 . S
C976 C975 1.355 1_556 S
C976 C978 1.419 . S
C977 C972 1.425 1_554 S
C977 C974 1.409 . S
C977 C975 1.415 . S
C978 H968 0.930 . S
C978 C976 1.419 . S
C978 C979 1.362 . S
C979 H969 0.930 . S
C979 C972 1.409 . S
C979 C978 1.362 . S
H980 C986 0.930 . S
H981 C989 0.930 . S
H982 C990 0.930 . S
H983 C991 0.930 1_554 S
H984 C994 0.930 . S
H985 C995 0.930 . S
C986 H980 0.930 . S
C986 C987 1.355 1_556 S
C986 C988 1.415 . S
C987 C986 1.355 1_554 S
C987 C989 1.419 . S
C988 C986 1.415 . S
C988 C993 1.425 1_556 S
C988 C995 1.409 . S
C989 H981 0.930 . S
C989 C987 1.419 . S
C989 C990 1.362 . S
C990 H982 0.930 . S
C990 C989 1.362 . S
C990 C993 1.409 . S
C991 H983 0.930 1_556 S
C991 C992 1.355 . S
C991 C993 1.415 1_556 S
C992 C991 1.355 . S
C992 C994 1.419 . S
C993 C988 1.425 1_554 S
C993 C990 1.409 . S
C993 C991 1.415 1_554 S
C994 H984 0.930 . S
C994 C992 1.419 . S
C994 C995 1.362 . S
C995 H985 0.930 . S
C995 C988 1.409 . S
C995 C994 1.362 . S
H996 C1002 0.930 . S
H997 C1005 0.930 1_554 S
H998 C1006 0.930 . S
H999 C1007 0.930 . S
H1000 C1010 0.930 . S
H1001 C1011 0.930 . S
C1002 H996 0.930 . S
C1002 C1003 1.355 1_556 S
C1002 C1004 1.415 . S
C1003 C1002 1.355 1_554 S
C1003 C1005 1.419 1_554 S
C1004 C1002 1.415 . S
C1004 C1009 1.425 . S
C1004 C1011 1.409 . S
C1005 H997 0.930 1_556 S
C1005 C1003 1.419 1_556 S
C1005 C1006 1.362 . S
C1006 H998 0.930 . S
C1006 C1005 1.362 . S
C1006 C1009 1.409 . S
C1007 H999 0.930 . S
C1007 C1008 1.355 . S
C1007 C1009 1.415 . S
C1008 C1007 1.355 . S
C1008 C1010 1.419 . S
C1009 C1004 1.425 . S
C1009 C1006 1.409 . S
C1009 C1007 1.415 . S
C1010 H1000 0.930 . S
C1010 C1008 1.419 . S
C1010 C1011 1.362 . S
C1011 H1001 0.930 . S
C1011 C1004 1.409 . S
C1011 C1010 1.362 . S
H1012 C1018 0.930 . S
H1013 C1021 0.930 . S
H1014 C1022 0.930 . S
H1015 C1023 0.930 . S
H1016 C1026 0.930 . S
H1017 C1027 0.930 . S
C1018 H1012 0.930 . S
C1018 C1019 1.355 . S
C1018 C1020 1.415 . S
C1019 C1018 1.355 . S
C1019 C1021 1.419 . S
C1020 C1018 1.415 . S
C1020 C1025 1.425 . S
C1020 C1027 1.409 . S
C1021 H1013 0.930 . S
C1021 C1019 1.419 . S
C1021 C1022 1.362 . S
C1022 H1014 0.930 . S
C1022 C1021 1.362 . S
C1022 C1025 1.409 . S
C1023 H1015 0.930 . S
C1023 C1024 1.355 . S
C1023 C1025 1.415 . S
C1024 C1023 1.355 . S
C1024 C1026 1.419 . S
C1025 C1020 1.425 . S
C1025 C1022 1.409 . S
C1025 C1023 1.415 . S
C1026 H1016 0.930 . S
C1026 C1024 1.419 . S
C1026 C1027 1.362 . S
C1027 H1017 0.930 . S
C1027 C1020 1.409 . S
C1027 C1026 1.362 . S
H1028 C1034 0.930 . S
H1029 C1037 0.930 . S
H1030 C1038 0.930 . S
H1031 C1039 0.930 . S
H1032 C1042 0.930 . S
H1033 C1043 0.930 . S
C1034 H1028 0.930 . S
C1034 C1035 1.355 . S
C1034 C1036 1.415 . S
C1035 C1034 1.355 . S
C1035 C1037 1.419 . S
C1036 C1034 1.415 . S
C1036 C1041 1.425 . S
C1036 C1043 1.409 1_556 S
C1037 H1029 0.930 . S
C1037 C1035 1.419 . S
C1037 C1038 1.362 . S
C1038 H1030 0.930 . S
C1038 C1037 1.362 . S
C1038 C1041 1.409 . S
C1039 H1031 0.930 . S
C1039 C1040 1.355 . S
C1039 C1041 1.415 . S
C1040 C1039 1.355 . S
C1040 C1042 1.419 1_556 S
C1041 C1036 1.425 . S
C1041 C1038 1.409 . S
C1041 C1039 1.415 . S
C1042 H1032 0.930 . S
C1042 C1040 1.419 1_554 S
C1042 C1043 1.362 . S
C1043 H1033 0.930 . S
C1043 C1036 1.409 1_554 S
C1043 C1042 1.362 . S
H1044 C1050 0.930 . S
H1045 C1053 0.930 . S
H1046 C1054 0.930 . S
H1047 C1055 0.930 . S
H1048 C1058 0.930 . S
H1049 C1059 0.930 . S
C1050 H1044 0.930 . S
C1050 C1051 1.355 . S
C1050 C1052 1.415 . S
C1051 C1050 1.355 . S
C1051 C1053 1.419 . S
C1052 C1050 1.415 . S
C1052 C1057 1.425 . S
C1052 C1059 1.409 . S
C1053 H1045 0.930 . S
C1053 C1051 1.419 . S
C1053 C1054 1.362 . S
C1054 H1046 0.930 . S
C1054 C1053 1.362 . S
C1054 C1057 1.409 . S
C1055 H1047 0.930 . S
C1055 C1056 1.355 . S
C1055 C1057 1.415 . S
C1056 C1055 1.355 . S
C1056 C1058 1.419 . S
C1057 C1052 1.425 . S
C1057 C1054 1.409 . S
C1057 C1055 1.415 . S
C1058 H1048 0.930 . S
C1058 C1056 1.419 . S
C1058 C1059 1.362 . S
C1059 H1049 0.930 . S
C1059 C1052 1.409 . S
C1059 C1058 1.362 . S
H1060 C1066 0.930 . S
H1061 C1069 0.930 . S
H1062 C1070 0.930 . S
H1063 C1071 0.930 . S
H1064 C1074 0.930 . S
H1065 C1075 0.930 . S
C1066 H1060 0.930 . S
C1066 C1067 1.355 . S
C1066 C1068 1.415 . S
C1067 C1066 1.355 . S
C1067 C1069 1.419 . S
C1068 C1066 1.415 . S
C1068 C1073 1.425 . S
C1068 C1075 1.409 . S
C1069 H1061 0.930 . S
C1069 C1067 1.419 . S
C1069 C1070 1.362 . S
C1070 H1062 0.930 . S
C1070 C1069 1.362 . S
C1070 C1073 1.409 . S
C1071 H1063 0.930 . S
C1071 C1072 1.355 . S
C1071 C1073 1.415 . S
C1072 C1071 1.355 . S
C1072 C1074 1.419 . S
C1073 C1068 1.425 . S
C1073 C1070 1.409 . S
C1073 C1071 1.415 . S
C1074 H1064 0.930 . S
C1074 C1072 1.419 . S
C1074 C1075 1.362 . S
C1075 H1065 0.930 . S
C1075 C1068 1.409 . S
C1075 C1074 1.362 . S
H1076 C1082 0.930 . S
H1077 C1085 0.930 . S
H1078 C1086 0.930 . S
H1079 C1087 0.930 . S
H1080 C1090 0.930 . S
H1081 C1091 0.930 . S
C1082 H1076 0.930 . S
C1082 C1083 1.355 . S
C1082 C1084 1.415 . S
C1083 C1082 1.355 . S
C1083 C1085 1.419 . S
C1084 C1082 1.415 . S
C1084 C1089 1.425 . S
C1084 C1091 1.409 . S
C1085 H1077 0.930 . S
C1085 C1083 1.419 . S
C1085 C1086 1.362 . S
C1086 H1078 0.930 . S
C1086 C1085 1.362 . S
C1086 C1089 1.409 . S
C1087 H1079 0.930 . S
C1087 C1088 1.355 . S
C1087 C1089 1.415 . S
C1088 C1087 1.355 . S
C1088 C1090 1.419 . S
C1089 C1084 1.425 . S
C1089 C1086 1.409 . S
C1089 C1087 1.415 . S
C1090 H1080 0.930 . S
C1090 C1088 1.419 . S
C1090 C1091 1.362 . S
C1091 H1081 0.930 . S
C1091 C1084 1.409 . S
C1091 C1090 1.362 . S
H1092 C1098 0.930 . S
H1093 C1101 0.930 . S
H1094 C1102 0.930 . S
H1095 C1103 0.930 . S
H1096 C1106 0.930 . S
H1097 C1107 0.930 . S
C1098 H1092 0.930 . S
C1098 C1099 1.355 . S
C1098 C1100 1.415 . S
C1099 C1098 1.355 . S
C1099 C1101 1.419 . S
C1100 C1098 1.415 . S
C1100 C1105 1.425 . S
C1100 C1107 1.409 . S
C1101 H1093 0.930 . S
C1101 C1099 1.419 . S
C1101 C1102 1.362 . S
C1102 H1094 0.930 . S
C1102 C1101 1.362 . S
C1102 C1105 1.409 . S
C1103 H1095 0.930 . S
C1103 C1104 1.355 . S
C1103 C1105 1.415 . S
C1104 C1103 1.355 . S
C1104 C1106 1.419 . S
C1105 C1100 1.425 . S
C1105 C1102 1.409 . S
C1105 C1103 1.415 . S
C1106 H1096 0.930 . S
C1106 C1104 1.419 . S
C1106 C1107 1.362 . S
C1107 H1097 0.930 . S
C1107 C1100 1.409 . S
C1107 C1106 1.362 . S
H1108 C1114 0.930 . S
H1109 C1117 0.930 . S
H1110 C1118 0.930 . S
H1111 C1119 0.930 . S
H1112 C1122 0.930 . S
H1113 C1123 0.930 . S
C1114 H1108 0.930 . S
C1114 C1115 1.355 . S
C1114 C1116 1.415 . S
C1115 C1114 1.355 . S
C1115 C1117 1.419 . S
C1116 C1114 1.415 . S
C1116 C1121 1.425 . S
C1116 C1123 1.409 . S
C1117 H1109 0.930 . S
C1117 C1115 1.419 . S
C1117 C1118 1.362 . S
C1118 H1110 0.930 . S
C1118 C1117 1.362 . S
C1118 C1121 1.409 . S
C1119 H1111 0.930 . S
C1119 C1120 1.355 . S
C1119 C1121 1.415 . S
C1120 C1119 1.355 . S
C1120 C1122 1.419 . S
C1121 C1116 1.425 . S
C1121 C1118 1.409 . S
C1121 C1119 1.415 . S
C1122 H1112 0.930 . S
C1122 C1120 1.419 . S
C1122 C1123 1.362 . S
C1123 H1113 0.930 . S
C1123 C1116 1.409 . S
C1123 C1122 1.362 . S
H1124 C1130 0.930 . S
H1125 C1133 0.930 . S
H1126 C1134 0.930 . S
H1127 C1135 0.930 . S
H1128 C1138 0.930 . S
H1129 C1139 0.930 . S
C1130 H1124 0.930 . S
C1130 C1131 1.355 . S
C1130 C1132 1.415 . S
C1131 C1130 1.355 . S
C1131 C1133 1.419 . S
C1132 C1130 1.415 . S
C1132 C1137 1.425 . S
C1132 C1139 1.409 . S
C1133 H1125 0.930 . S
C1133 C1131 1.419 . S
C1133 C1134 1.362 . S
C1134 H1126 0.930 . S
C1134 C1133 1.362 . S
C1134 C1137 1.409 . S
C1135 H1127 0.930 . S
C1135 C1136 1.355 . S
C1135 C1137 1.415 . S
C1136 C1135 1.355 . S
C1136 C1138 1.419 . S
C1137 C1132 1.425 . S
C1137 C1134 1.409 . S
C1137 C1135 1.415 . S
C1138 H1128 0.930 . S
C1138 C1136 1.419 . S
C1138 C1139 1.362 . S
C1139 H1129 0.930 . S
C1139 C1132 1.409 . S
C1139 C1138 1.362 . S
H1140 C1146 0.930 . S
H1141 C1149 0.930 . S
H1142 C1150 0.930 . S
H1143 C1151 0.930 . S
H1144 C1154 0.930 . S
H1145 C1155 0.930 . S
C1146 H1140 0.930 . S
C1146 C1147 1.355 . S
C1146 C1148 1.415 . S
C1147 C1146 1.355 . S
C1147 C1149 1.419 . S
C1148 C1146 1.415 . S
C1148 C1153 1.425 . S
C1148 C1155 1.409 . S
C1149 H1141 0.930 . S
C1149 C1147 1.419 . S
C1149 C1150 1.362 . S
C1150 H1142 0.930 . S
C1150 C1149 1.362 . S
C1150 C1153 1.409 . S
C1151 H1143 0.930 . S
C1151 C1152 1.355 . S
C1151 C1153 1.415 . S
C1152 C1151 1.355 . S
C1152 C1154 1.419 . S
C1153 C1148 1.425 . S
C1153 C1150 1.409 . S
C1153 C1151 1.415 . S
C1154 H1144 0.930 . S
C1154 C1152 1.419 . S
C1154 C1155 1.362 . S
C1155 H1145 0.930 . S
C1155 C1148 1.409 . S
C1155 C1154 1.362 . S
H1156 C1162 0.930 . S
H1157 C1165 0.930 . S
H1158 C1166 0.930 . S
H1159 C1167 0.930 . S
H1160 C1170 0.930 . S
H1161 C1171 0.930 . S
C1162 H1156 0.930 . S
C1162 C1163 1.355 . S
C1162 C1164 1.415 . S
C1163 C1162 1.355 . S
C1163 C1165 1.419 . S
C1164 C1162 1.415 . S
C1164 C1169 1.425 . S
C1164 C1171 1.409 . S
C1165 H1157 0.930 . S
C1165 C1163 1.419 . S
C1165 C1166 1.362 . S
C1166 H1158 0.930 . S
C1166 C1165 1.362 . S
C1166 C1169 1.409 . S
C1167 H1159 0.930 . S
C1167 C1168 1.355 . S
C1167 C1169 1.415 . S
C1168 C1167 1.355 . S
C1168 C1170 1.419 . S
C1169 C1164 1.425 . S
C1169 C1166 1.409 . S
C1169 C1167 1.415 . S
C1170 H1160 0.930 . S
C1170 C1168 1.419 . S
C1170 C1171 1.362 . S
C1171 H1161 0.930 . S
C1171 C1164 1.409 . S
C1171 C1170 1.362 . S
H1172 C1178 0.930 . S
H1173 C1181 0.930 . S
H1174 C1182 0.930 . S
H1175 C1183 0.930 . S
H1176 C1186 0.930 . S
H1177 C1187 0.930 . S
C1178 H1172 0.930 . S
C1178 C1179 1.355 . S
C1178 C1180 1.415 . S
C1179 C1178 1.355 . S
C1179 C1181 1.419 . S
C1180 C1178 1.415 . S
C1180 C1185 1.425 . S
C1180 C1187 1.409 . S
C1181 H1173 0.930 . S
C1181 C1179 1.419 . S
C1181 C1182 1.362 . S
C1182 H1174 0.930 . S
C1182 C1181 1.362 . S
C1182 C1185 1.409 . S
C1183 H1175 0.930 . S
C1183 C1184 1.355 . S
C1183 C1185 1.415 . S
C1184 C1183 1.355 . S
C1184 C1186 1.419 . S
C1185 C1180 1.425 . S
C1185 C1182 1.409 . S
C1185 C1183 1.415 . S
C1186 H1176 0.930 . S
C1186 C1184 1.419 . S
C1186 C1187 1.362 . S
C1187 H1177 0.930 . S
C1187 C1180 1.409 . S
C1187 C1186 1.362 . S
C763 C69 1.196 . S
C768 C657 1.207 1_554 S
C779 C140 2.232 . S
C784 C728 2.243 . S
C795 C237 1.207 . S
C800 C560 1.482 . S
C811 C392 2.417 . S
C816 C224 2.444 . S
C827 C476 2.311 . S
C832 C56 2.303 1_655 S
C843 C153 1.865 . S
C848 C308 2.157 . S
C859 C644 1.643 . S
C864 C489 1.554 . S
C875 C741 1.245 . S
C880 C321 1.287 . S
C891 C405 1.681 . S
C896 C573 1.728 . S
C907 C226 1.424 . S
C912 C67 1.797 . S
C923 C142 1.194 . S
C928 C58 1.230 . S
C939 C151 2.985 1_455 S
C944 C235 3.023 . S
C955 C310 1.652 . S
C960 C487 2.149 . S
C971 C319 2.080 . S
C976 C394 1.712 . S
C987 C403 2.092 . S
C992 C478 1.597 . S
C1003 C730 1.734 . S
C1008 C571 2.305 . S
C1019 C646 0.955 . S
C1024 C562 0.963 . S
C1035 C739 2.089 . S
C1040 C655 2.086 . S
C1051 C74 1.446 . S
C1056 C63 1.446 . S
C1067 C147 1.510 . S
C1072 C158 1.510 . S
C1083 C242 1.595 . S
C1088 C231 1.595 . S
C1099 C326 1.463 . S
C1104 C315 1.463 . S
C1115 C410 1.494 . S
C1120 C399 1.494 . S
C1131 C494 1.497 . S
C1136 C483 1.497 . S
C1147 C578 1.467 . S
C1152 C567 1.467 1_554 S
C1163 C662 1.485 . S
C1168 C651 1.485 . S
C1179 C746 1.481 . S
C1184 C735 1.481 . S
