# Generated by pormake.
# Topology soe, (5)-cn, num edge types: 1
# Building blocks:
#     Node 0, Type 0, BuildingBlock: XOMCOT_clean_sbu_1, # of connection points: 5
#     Node 1, Type 0, BuildingBlock: XOMCOT_clean_sbu_1, # of connection points: 5
#     Node 2, Type 0, BuildingBlock: XOMCOT_clean_sbu_1, # of connection points: 5
#     Node 3, Type 0, BuildingBlock: XOMCOT_clean_sbu_1, # of connection points: 5
#     Node 4, Type 0, BuildingBlock: XOMCOT_clean_sbu_1, # of connection points: 5
#     Node 5, Type 0, BuildingBlock: XOMCOT_clean_sbu_1, # of connection points: 5
#     Node 6, Type 0, BuildingBlock: XOMCOT_clean_sbu_1, # of connection points: 5
#     Node 7, Type 0, BuildingBlock: XOMCOT_clean_sbu_1, # of connection points: 5
#     Edge 8, Type (0, 0), None
#     Edge 9, Type (0, 0), None
#     Edge 10, Type (0, 0), None
#     Edge 11, Type (0, 0), None
#     Edge 12, Type (0, 0), None
#     Edge 13, Type (0, 0), None
#     Edge 14, Type (0, 0), None
#     Edge 15, Type (0, 0), None
#     Edge 16, Type (0, 0), None
#     Edge 17, Type (0, 0), None
#     Edge 18, Type (0, 0), None
#     Edge 19, Type (0, 0), None
#     Edge 20, Type (0, 0), None
#     Edge 21, Type (0, 0), None
#     Edge 22, Type (0, 0), None
#     Edge 23, Type (0, 0), None
#     Edge 24, Type (0, 0), None
#     Edge 25, Type (0, 0), None
#     Edge 26, Type (0, 0), None
#     Edge 27, Type (0, 0), None
# Relax obj value: 0.069
# Max RMSD: 0.090
# Mean RMSD: 0.090
data_MOF--net-soe--node1-XOMCOT_clean_sbu_1--edge1-none
_symmetry_space_group_name_H-M    P1
_symmetry_Int_Tables_number       1
_symmetry_cell_setting            triclinic
loop_
_symmetry_equiv_pos_as_xyz
'x, y, z'
_cell_length_a     27.241894
_cell_length_b     21.662142
_cell_length_c     9.2739872
_cell_angle_alpha  89.999528
_cell_angle_beta   90.003355
_cell_angle_gamma 88.810386
loop_
_atom_site_label
_atom_site_type_symbol
_atom_site_fract_x
_atom_site_fract_y
_atom_site_fract_z
_atom_type_partial_charge
C0 C 0.16234 0.20456 0.88718 0.0
C1 C 0.16017 0.19924 0.73906 0.0
N2 N 0.11585 0.17723 0.70468 0.0
N3 N 0.1199 0.18496 0.94494 0.0
C4 C 0.09183 0.17045 0.83016 0.0
H5 H 0.1941 0.21783 0.9488 0.0
Co6 Co 0.10851 0.16358 0.13685 0.0
C7 C 0.04898 0.04445 0.07975 0.0
O8 O 0.06415 1.00939 0.187 0.0
N9 N 0.09708 0.14339 0.32915 0.0
C10 C 0.05725 0.13039 0.53627 0.0
C11 C 0.05514 0.12305 0.38891 0.0
C12 C 0.12397 0.16314 0.44199 0.0
N13 N 0.10042 0.15617 0.56828 0.0
O14 O 0.05064 0.21703 0.14341 0.0
H15 H 1.02319 0.10909 0.32914 0.0
H16 H 0.15816 0.18694 0.4312 0.0
O17 O 0.06557 0.09865 0.06522 0.0
C18 C 0.04023 0.26463 0.22029 0.0
O19 O 0.9958 0.28907 0.21234 0.0
N20 N 0.16645 0.11218 0.13338 0.0
C21 C 0.25766 0.04908 0.1333 0.0
C22 C 0.21581 1.0219 0.07499 0.0
C23 C 0.17086 0.0547 0.07298 0.0
C24 C 0.20718 0.13973 0.18738 0.0
C25 C 0.25303 0.10919 0.18825 0.0
H26 H 0.14055 0.03403 1.01846 0.0
H27 H 0.20443 0.18667 0.22649 0.0
H28 H 0.05547 0.15203 0.83834 0.0
H29 H 0.18968 0.20779 0.66407 0.0
H30 H 1.02818 0.1209 0.61196 0.0
H31 H 0.21815 0.97632 0.02712 0.0
H32 H 0.28457 0.13236 0.23206 0.0
C33 C 0.40136 0.86013 0.88712 0.0
C34 C 0.40353 0.86545 0.73899 0.0
N35 N 0.44786 0.88744 0.70464 0.0
N36 N 0.4438 0.87972 0.9449 0.0
C37 C 0.47188 0.89423 0.83013 0.0
H38 H 0.3696 0.84686 0.94872 0.0
Co39 Co 0.45521 0.9011 0.13681 0.0
C40 C 0.51476 1.02021 0.07976 0.0
O41 O 0.49962 0.05525 0.18709 0.0
N42 N 0.46664 0.92127 0.32912 0.0
C43 C 0.50648 0.93424 0.53624 0.0
C44 C 0.50859 0.94158 0.38888 0.0
C45 C 0.43974 0.90155 0.44194 0.0
N46 N 0.4633 0.9085 0.56824 0.0
O47 O 0.51307 0.84764 0.14336 0.0
H48 H 0.54055 0.95552 0.32912 0.0
H49 H 0.40555 0.87777 0.43114 0.0
O50 O 0.49814 0.96603 0.06519 0.0
C51 C 0.52349 0.80004 0.22024 0.0
O52 O 0.56792 0.7756 0.21226 0.0
N53 N 0.39727 0.9525 0.13336 0.0
C54 C 0.30606 1.0156 0.13329 0.0
C55 C 0.34791 0.0428 0.07508 0.0
C56 C 0.39286 1.01 0.07306 0.0
C57 C 0.35654 0.92493 0.18728 0.0
C58 C 0.31068 0.95548 0.18816 0.0
H59 H 0.42317 1.03069 1.01862 0.0
H60 H 0.35929 0.87799 0.22634 0.0
H61 H 0.50824 0.91263 0.83833 0.0
H62 H 0.37403 0.85691 0.664 0.0
H63 H 0.53555 0.94371 0.61193 0.0
H64 H 0.34557 0.0884 0.02729 0.0
H65 H 0.27914 0.9323 0.23191 0.0
C66 C 0.16602 0.35239 0.65965 0.0
C67 C 0.1653 0.35868 0.80785 0.0
N68 N 0.12281 0.38739 0.84419 0.0
N69 N 0.12446 0.3777 0.60385 0.0
C70 C 0.09838 0.39709 0.71998 0.0
H71 H 0.19676 0.33558 0.59601 0.0
Co72 Co 0.11606 0.40273 0.4124 0.0
C73 C 0.05276 0.52136 0.47944 0.0
O74 O 0.07726 0.56092 0.40152 0.0
N75 N 0.10781 0.42662 0.21926 0.0
C76 C 0.07058 0.44829 1.01073 0.0
C77 C 0.06893 0.45628 0.15781 0.0
C78 C 0.1323 0.40052 0.10693 0.0
N79 N 0.1102 0.41265 0.97994 0.0
O80 O 0.0655 0.34392 0.38094 0.0
H81 H 0.03847 0.47724 0.21521 0.0
H82 H 0.16298 0.36857 0.11865 0.0
O83 O 0.06574 0.4642 0.48042 0.0
C84 C 0.07753 0.29608 0.30687 0.0
O85 O 0.12415 0.28398 0.28181 0.0
N86 N 0.1692 0.45594 0.43542 0.0
C87 C 0.25861 0.51545 0.46002 0.0
C88 C 0.2168 0.53848 0.53201 0.0
C89 C 0.17252 0.50681 0.52179 0.0
C90 C 0.21026 0.43189 0.37058 0.0
C91 C 0.25525 0.46099 0.38074 0.0
H92 H 0.14183 0.5222 0.58669 0.0
H93 H 0.20852 0.38844 0.31425 0.0
H94 H 0.06365 0.4217 0.71414 0.0
H95 H 0.19494 0.34695 0.88117 0.0
H96 H 0.04313 0.46429 0.93439 0.0
H97 H 0.21866 0.57983 0.59732 0.0
H98 H 0.28705 0.4414 0.32591 0.0
C99 C 0.39772 0.71229 0.65958 0.0
C100 C 0.39844 0.70601 0.80779 0.0
N101 N 0.44092 0.67728 0.84414 0.0
N102 N 0.43927 0.68698 0.60381 0.0
C103 C 0.46535 0.66757 0.71995 0.0
H104 H 0.36698 0.72911 0.59593 0.0
Co105 Co 0.44766 0.66194 0.41236 0.0
C106 C 0.51096 0.5433 0.47945 0.0
O107 O 0.48645 0.50374 0.40157 0.0
N108 N 0.45592 0.63805 0.21922 0.0
C109 C 0.49314 0.61636 1.0107 0.0
C110 C 0.49478 0.60836 0.15778 0.0
C111 C 0.43143 0.66416 0.10689 0.0
N112 N 0.45352 0.65202 0.9799 0.0
O113 O 0.49823 0.72075 0.38089 0.0
H114 H 0.52524 0.58738 0.21518 0.0
H115 H 0.40077 0.69613 0.11859 0.0
O116 O 0.498 0.60047 0.48039 0.0
C117 C 0.48619 0.7686 0.30684 0.0
O118 O 0.43957 0.7807 0.28181 0.0
N119 N 0.39453 0.60872 0.43538 0.0
C120 C 0.30512 0.54921 0.46001 0.0
C121 C 0.34693 0.5262 0.53204 0.0
C122 C 0.39122 0.55787 0.52181 0.0
C123 C 0.35347 0.63276 0.3705 0.0
C124 C 0.30849 0.60365 0.38066 0.0
H125 H 0.4219 0.5425 0.58675 0.0
H126 H 0.35521 0.6762 0.31412 0.0
H127 H 0.50008 0.64295 0.71412 0.0
H128 H 0.3688 0.71775 0.8811 0.0
H129 H 0.52057 0.60034 0.93437 0.0
H130 H 0.34508 0.48487 0.5974 0.0
H131 H 0.27668 0.62324 0.3258 0.0
C132 C 0.90138 0.86011 0.16274 0.0
C133 C 0.90355 0.86543 0.31087 0.0
N134 N 0.94787 0.88743 0.34524 0.0
N135 N 0.94383 0.87971 0.10499 0.0
C136 C 0.9719 0.89422 0.21977 0.0
H137 H 0.86962 0.84683 0.10113 0.0
Co138 Co 0.95522 0.90109 0.91308 0.0
C139 C 1.01475 1.02022 0.97018 0.0
O140 O 0.99958 0.05528 0.86292 0.0
N141 N 0.96664 0.92128 0.72077 0.0
C142 C 1.00648 0.93428 0.51366 0.0
C143 C 1.00859 0.94161 0.66102 0.0
C144 C 0.93976 0.90153 0.60794 0.0
N145 N 0.96331 0.9085 0.48165 0.0
O146 O 1.01309 0.84763 0.90651 0.0
H147 H 0.04054 0.95558 0.72079 0.0
H148 H 0.90557 0.87773 0.61873 0.0
O149 O 0.99816 0.96602 0.98471 0.0
C150 C 1.0235 0.80004 0.82963 0.0
O151 O 0.06793 0.7756 0.83759 0.0
N152 N 0.89728 0.95248 0.91655 0.0
C153 C 0.80607 1.01558 0.91663 0.0
C154 C 0.84792 0.04277 0.97493 0.0
C155 C 0.89287 1.00997 0.97695 0.0
C156 C 0.85655 0.92494 0.86255 0.0
C157 C 0.8107 0.95548 0.86168 0.0
H158 H 0.92317 1.03064 0.03147 0.0
H159 H 0.8593 0.878 0.82344 0.0
H160 H 1.00825 0.91263 0.21158 0.0
H161 H 0.87405 0.85688 0.38585 0.0
H162 H 0.03554 0.94377 0.43797 0.0
H163 H 0.84557 0.08835 1.02281 0.0
H164 H 0.77916 0.93231 0.81786 0.0
C165 C 0.66237 0.20453 0.1628 0.0
C166 C 0.6602 0.19922 0.31093 0.0
N167 N 0.61587 0.17722 0.34529 0.0
N168 N 0.61992 0.18494 0.10503 0.0
C169 C 0.59185 0.17044 0.2198 0.0
H170 H 0.69413 0.2178 0.1012 0.0
Co171 Co 0.60852 0.16357 0.91311 0.0
C172 C 0.54897 0.04445 0.97016 0.0
O173 O 0.56411 1.00941 0.86284 0.0
N174 N 0.59709 0.14339 0.72081 0.0
C175 C 0.55724 0.13042 0.51369 0.0
C176 C 0.55514 0.12309 0.66105 0.0
C177 C 0.62398 0.16312 0.60798 0.0
N178 N 0.60043 0.15617 0.48168 0.0
O179 O 0.55065 0.21703 0.90657 0.0
H180 H 0.52318 0.10914 0.72081 0.0
H181 H 0.65818 0.18689 0.61878 0.0
O182 O 0.56559 0.09864 0.98474 0.0
C183 C 0.54024 0.26462 0.82969 0.0
O184 O 0.49581 0.28907 0.83766 0.0
N185 N 0.66646 0.11217 0.91657 0.0
C186 C 0.75767 0.04907 0.91663 0.0
C187 C 0.71582 1.02187 0.97485 0.0
C188 C 0.67087 0.05467 0.97687 0.0
C189 C 0.70719 0.13973 0.86264 0.0
C190 C 0.75304 0.10919 0.86177 0.0
H191 H 0.64056 0.03398 0.03131 0.0
H192 H 0.70444 0.18668 0.82359 0.0
H193 H 0.55549 0.15204 0.2116 0.0
H194 H 0.6897 0.20776 0.38593 0.0
H195 H 0.52817 0.12096 0.43799 0.0
H196 H 0.71816 0.97627 1.02264 0.0
H197 H 0.78459 0.13237 0.81802 0.0
C198 C 0.89771 0.71228 0.39028 0.0
C199 C 0.89843 0.70599 0.24207 0.0
N200 N 0.94091 0.67728 0.20574 0.0
N201 N 0.93926 0.68697 0.44607 0.0
C202 C 0.96535 0.66758 0.32995 0.0
H203 H 0.86697 0.72909 0.45392 0.0
Co204 Co 0.94766 0.66194 0.63753 0.0
C205 C 1.01097 0.5433 0.57049 0.0
O206 O 0.98647 0.50375 0.64841 0.0
N207 N 0.95592 0.63805 0.83067 0.0
C208 C 0.99315 0.61638 0.03919 0.0
C209 C 0.99479 0.60839 0.89211 0.0
C210 C 0.93143 0.66415 0.94299 0.0
N211 N 0.95352 0.65202 0.06999 0.0
O212 O 0.99823 0.72075 0.66899 0.0
H213 H 1.02526 0.58742 0.83472 0.0
H214 H 0.90075 0.6961 0.93128 0.0
O215 O 0.99799 0.60047 0.56951 0.0
C216 C 0.98619 0.76859 0.74306 0.0
O217 O 0.93957 0.78068 0.76811 0.0
N218 N 0.89453 0.60872 0.61451 0.0
C219 C 0.80511 0.54922 0.5899 0.0
C220 C 0.84692 0.52618 0.51792 0.0
C221 C 0.89121 0.55786 0.52813 0.0
C222 C 0.85346 0.63278 0.67934 0.0
C223 C 0.80848 0.60367 0.66919 0.0
H224 H 0.92189 0.54246 0.46323 0.0
H225 H 0.8552 0.67623 0.73568 0.0
H226 H 1.00008 0.64296 0.33579 0.0
H227 H 0.86879 0.71772 0.16875 0.0
H228 H 1.02059 0.60038 0.11554 0.0
H229 H 0.84507 0.48484 0.45261 0.0
H230 H 0.77667 0.62327 0.72401 0.0
C231 C 0.66601 0.35237 0.39034 0.0
C232 C 0.66529 0.35866 0.24214 0.0
N233 N 0.62281 0.38738 0.20578 0.0
N234 N 0.62446 0.37769 0.44612 0.0
C235 C 0.59837 0.39709 0.32998 0.0
H236 H 0.69675 0.33556 0.454 0.0
Co237 Co 0.61606 0.40273 0.63757 0.0
C238 C 0.55276 0.52136 0.57048 0.0
O239 O 0.57727 0.56092 0.64835 0.0
N240 N 0.60781 0.42662 0.8307 0.0
C241 C 0.57059 0.44831 0.03922 0.0
C242 C 0.56895 0.4563 0.89214 0.0
C243 C 0.6323 0.4005 0.94304 0.0
N244 N 0.61021 0.41265 0.07003 0.0
O245 O 0.5655 0.34392 0.66904 0.0
H246 H 0.53849 0.47729 0.83474 0.0
H247 H 0.66296 0.36854 0.93133 0.0
O248 O 0.56573 0.46419 0.56954 0.0
C249 C 0.57754 0.29607 0.74309 0.0
O250 O 0.62416 0.28397 0.76811 0.0
N251 N 0.66919 0.45594 0.61454 0.0
C252 C 0.75861 0.51545 0.58992 0.0
C253 C 0.7168 0.53847 0.51788 0.0
C254 C 0.67251 0.50679 0.52811 0.0
C255 C 0.71026 0.4319 0.67943 0.0
C256 C 0.75524 0.46101 0.66926 0.0
H257 H 0.64183 0.52217 0.46317 0.0
H258 H 0.70852 0.38846 0.7358 0.0
H259 H 0.56365 0.42171 0.33581 0.0
H260 H 0.69492 0.34692 0.16883 0.0
H261 H 0.54315 0.46433 0.11556 0.0
H262 H 0.71865 0.5798 0.45252 0.0
H263 H 0.78705 0.44143 0.72412 0.0
loop_
_geom_bond_atom_site_label_1
_geom_bond_atom_site_label_2
_geom_bond_distance
_geom_bond_site_symmetry_2
_ccdc_geom_bond_type
C0 C1 1.351 . S
C0 N3 1.368 . S
C0 H5 0.931 . S
C1 C0 1.351 . S
C1 N2 1.373 . S
C1 H29 0.930 . S
N2 C1 1.373 . S
N2 C4 1.340 . S
N3 C0 1.368 . S
N3 C4 1.321 . S
N3 Co6 2.135 1_556 S
C4 N2 1.340 . S
C4 N3 1.321 . S
C4 H28 0.930 . S
H5 C0 0.931 . S
Co6 N3 2.135 1_554 S
Co6 N9 2.121 . S
Co6 O14 2.055 . S
Co6 O17 2.039 . S
Co6 N20 2.140 . S
C7 O8 1.227 1_545 S
C7 O17 1.265 . S
O8 C7 1.227 1_565 S
N9 Co6 2.121 . S
N9 C11 1.375 . S
N9 C12 1.313 . S
C10 C11 1.338 . S
C10 N13 1.377 . S
C10 H30 0.930 1_545 S
C11 N9 1.375 . S
C11 C10 1.338 . S
C11 H15 0.931 1_545 S
C12 N9 1.313 . S
C12 N13 1.344 . S
C12 H16 0.930 . S
N13 C10 1.377 . S
N13 C12 1.344 . S
O14 Co6 2.055 . S
O14 C18 1.253 . S
H15 C11 0.931 1_565 S
H16 C12 0.930 . S
O17 Co6 2.039 . S
O17 C7 1.265 . S
C18 O14 1.253 . S
C18 O19 1.227 . S
O19 C18 1.227 . S
N20 Co6 2.140 . S
N20 C23 1.346 . S
N20 C24 1.345 . S
C21 C22 1.387 1_554 S
C21 C25 1.391 . S
C22 C21 1.387 1_556 S
C22 C23 1.369 1_556 S
C22 H31 0.929 1_545 S
C23 N20 1.346 . S
C23 C22 1.369 1_554 S
C23 H26 0.928 1_554 S
C24 N20 1.345 . S
C24 C25 1.371 . S
C24 H27 0.931 . S
C25 C21 1.391 . S
C25 C24 1.371 . S
C25 H32 0.930 . S
H26 C23 0.928 1_556 S
H27 C24 0.931 . S
H28 C4 0.930 . S
H29 C1 0.930 . S
H30 C10 0.930 1_565 S
H31 C22 0.929 1_565 S
H32 C25 0.930 . S
C33 C34 1.351 . S
C33 N36 1.368 . S
C33 H38 0.931 . S
C34 C33 1.351 . S
C34 N35 1.373 . S
C34 H62 0.930 . S
N35 C34 1.373 . S
N35 C37 1.340 . S
N36 C33 1.368 . S
N36 C37 1.321 . S
N36 Co39 2.135 1_556 S
C37 N35 1.340 . S
C37 N36 1.321 . S
C37 H61 0.930 . S
H38 C33 0.931 . S
Co39 N36 2.135 1_554 S
Co39 N42 2.121 . S
Co39 O47 2.055 . S
Co39 O50 2.039 . S
Co39 N53 2.140 . S
C40 O41 1.227 1_565 S
C40 O50 1.265 . S
O41 C40 1.227 1_545 S
N42 Co39 2.121 . S
N42 C44 1.375 . S
N42 C45 1.313 . S
C43 C44 1.338 . S
C43 N46 1.377 . S
C43 H63 0.930 1_565 S
C44 N42 1.375 . S
C44 C43 1.338 . S
C44 H48 0.931 1_565 S
C45 N42 1.313 . S
C45 N46 1.344 . S
C45 H49 0.930 . S
N46 C43 1.377 . S
N46 C45 1.344 . S
O47 Co39 2.055 . S
O47 C51 1.253 . S
H48 C44 0.931 1_545 S
H49 C45 0.930 . S
O50 Co39 2.039 . S
O50 C40 1.265 . S
C51 O47 1.253 . S
C51 O52 1.227 . S
O52 C51 1.227 . S
N53 Co39 2.140 . S
N53 C56 1.346 . S
N53 C57 1.345 . S
C54 C55 1.387 1_554 S
C54 C58 1.391 . S
C55 C54 1.387 1_556 S
C55 C56 1.369 1_556 S
C55 H64 0.929 1_565 S
C56 N53 1.346 . S
C56 C55 1.369 1_554 S
C56 H59 0.928 1_554 S
C57 N53 1.345 . S
C57 C58 1.371 . S
C57 H60 0.931 . S
C58 C54 1.391 . S
C58 C57 1.371 . S
C58 H65 0.930 . S
H59 C56 0.928 1_556 S
H60 C57 0.931 . S
H61 C37 0.930 . S
H62 C34 0.930 . S
H63 C43 0.930 1_545 S
H64 C55 0.929 1_545 S
H65 C58 0.930 . S
C66 C67 1.351 . S
C66 N69 1.368 . S
C66 H71 0.931 . S
C67 C66 1.351 . S
C67 N68 1.373 . S
C67 H95 0.930 . S
N68 C67 1.373 . S
N68 C70 1.340 . S
N69 C66 1.368 . S
N69 C70 1.321 . S
N69 Co72 2.135 . S
C70 N68 1.340 . S
C70 N69 1.321 . S
C70 H94 0.930 . S
H71 C66 0.931 . S
Co72 N69 2.135 . S
Co72 N75 2.121 . S
Co72 O80 2.055 . S
Co72 O83 2.039 . S
Co72 N86 2.140 . S
C73 O74 1.227 . S
C73 O83 1.265 . S
O74 C73 1.227 . S
N75 Co72 2.121 . S
N75 C77 1.375 . S
N75 C78 1.313 . S
C76 C77 1.338 1_556 S
C76 N79 1.377 . S
C76 H96 0.930 . S
C77 N75 1.375 . S
C77 C76 1.338 1_554 S
C77 H81 0.931 . S
C78 N75 1.313 . S
C78 N79 1.344 1_554 S
C78 H82 0.930 . S
N79 C76 1.377 . S
N79 C78 1.344 1_556 S
O80 Co72 2.055 . S
O80 C84 1.253 . S
H81 C77 0.931 . S
H82 C78 0.930 . S
O83 Co72 2.039 . S
O83 C73 1.265 . S
C84 O80 1.253 . S
C84 O85 1.227 . S
O85 C84 1.227 . S
N86 Co72 2.140 . S
N86 C89 1.346 . S
N86 C90 1.345 . S
C87 C88 1.387 . S
C87 C91 1.391 . S
C88 C87 1.387 . S
C88 C89 1.369 . S
C88 H97 0.929 . S
C89 N86 1.346 . S
C89 C88 1.369 . S
C89 H92 0.928 . S
C90 N86 1.345 . S
C90 C91 1.371 . S
C90 H93 0.931 . S
C91 C87 1.391 . S
C91 C90 1.371 . S
C91 H98 0.930 . S
H92 C89 0.928 . S
H93 C90 0.931 . S
H94 C70 0.930 . S
H95 C67 0.930 . S
H96 C76 0.930 . S
H97 C88 0.929 . S
H98 C91 0.930 . S
C99 C100 1.351 . S
C99 N102 1.368 . S
C99 H104 0.931 . S
C100 C99 1.351 . S
C100 N101 1.373 . S
C100 H128 0.930 . S
N101 C100 1.373 . S
N101 C103 1.340 . S
N102 C99 1.368 . S
N102 C103 1.321 . S
N102 Co105 2.135 . S
C103 N101 1.340 . S
C103 N102 1.321 . S
C103 H127 0.930 . S
H104 C99 0.931 . S
Co105 N102 2.135 . S
Co105 N108 2.121 . S
Co105 O113 2.055 . S
Co105 O116 2.039 . S
Co105 N119 2.140 . S
C106 O107 1.227 . S
C106 O116 1.265 . S
O107 C106 1.227 . S
N108 Co105 2.121 . S
N108 C110 1.375 . S
N108 C111 1.313 . S
C109 C110 1.338 1_556 S
C109 N112 1.377 . S
C109 H129 0.930 . S
C110 N108 1.375 . S
C110 C109 1.338 1_554 S
C110 H114 0.931 . S
C111 N108 1.313 . S
C111 N112 1.344 1_554 S
C111 H115 0.930 . S
N112 C109 1.377 . S
N112 C111 1.344 1_556 S
O113 Co105 2.055 . S
O113 C117 1.253 . S
H114 C110 0.931 . S
H115 C111 0.930 . S
O116 Co105 2.039 . S
O116 C106 1.265 . S
C117 O113 1.253 . S
C117 O118 1.227 . S
O118 C117 1.227 . S
N119 Co105 2.140 . S
N119 C122 1.346 . S
N119 C123 1.345 . S
C120 C121 1.387 . S
C120 C124 1.391 . S
C121 C120 1.387 . S
C121 C122 1.369 . S
C121 H130 0.929 . S
C122 N119 1.346 . S
C122 C121 1.369 . S
C122 H125 0.928 . S
C123 N119 1.345 . S
C123 C124 1.371 . S
C123 H126 0.931 . S
C124 C120 1.391 . S
C124 C123 1.371 . S
C124 H131 0.930 . S
H125 C122 0.928 . S
H126 C123 0.931 . S
H127 C103 0.930 . S
H128 C100 0.930 . S
H129 C109 0.930 . S
H130 C121 0.929 . S
H131 C124 0.930 . S
C132 C133 1.351 . S
C132 N135 1.368 . S
C132 H137 0.931 . S
C133 C132 1.351 . S
C133 N134 1.373 . S
C133 H161 0.930 . S
N134 C133 1.373 . S
N134 C136 1.340 . S
N135 C132 1.368 . S
N135 C136 1.321 . S
N135 Co138 2.135 1_554 S
C136 N134 1.340 . S
C136 N135 1.321 . S
C136 H160 0.930 . S
H137 C132 0.931 . S
Co138 N135 2.135 1_556 S
Co138 N141 2.121 . S
Co138 O146 2.055 . S
Co138 O149 2.039 . S
Co138 N152 2.140 . S
C139 O140 1.227 1_565 S
C139 O149 1.265 . S
O140 C139 1.227 1_545 S
N141 Co138 2.121 . S
N141 C143 1.375 . S
N141 C144 1.313 . S
C142 C143 1.338 . S
C142 N145 1.377 . S
C142 H162 0.930 1_565 S
C143 N141 1.375 . S
C143 C142 1.338 . S
C143 H147 0.931 1_565 S
C144 N141 1.313 . S
C144 N145 1.344 . S
C144 H148 0.930 . S
N145 C142 1.377 . S
N145 C144 1.344 . S
O146 Co138 2.055 . S
O146 C150 1.253 . S
H147 C143 0.931 1_545 S
H148 C144 0.930 . S
O149 Co138 2.039 . S
O149 C139 1.265 . S
C150 O146 1.253 . S
C150 O151 1.227 . S
O151 C150 1.227 . S
N152 Co138 2.140 . S
N152 C155 1.346 . S
N152 C156 1.345 . S
C153 C154 1.387 1_556 S
C153 C157 1.391 . S
C154 C153 1.387 1_554 S
C154 C155 1.369 1_554 S
C154 H163 0.929 1_565 S
C155 N152 1.346 . S
C155 C154 1.369 1_556 S
C155 H158 0.928 1_556 S
C156 N152 1.345 . S
C156 C157 1.371 . S
C156 H159 0.931 . S
C157 C153 1.391 . S
C157 C156 1.371 . S
C157 H164 0.930 . S
H158 C155 0.928 1_554 S
H159 C156 0.931 . S
H160 C136 0.930 . S
H161 C133 0.930 . S
H162 C142 0.930 1_545 S
H163 C154 0.929 1_545 S
H164 C157 0.930 . S
C165 C166 1.351 . S
C165 N168 1.368 . S
C165 H170 0.931 . S
C166 C165 1.351 . S
C166 N167 1.373 . S
C166 H194 0.930 . S
N167 C166 1.373 . S
N167 C169 1.340 . S
N168 C165 1.368 . S
N168 C169 1.321 . S
N168 Co171 2.135 1_554 S
C169 N167 1.340 . S
C169 N168 1.321 . S
C169 H193 0.930 . S
H170 C165 0.931 . S
Co171 N168 2.135 1_556 S
Co171 N174 2.121 . S
Co171 O179 2.055 . S
Co171 O182 2.039 . S
Co171 N185 2.140 . S
C172 O173 1.227 1_545 S
C172 O182 1.265 . S
O173 C172 1.227 1_565 S
N174 Co171 2.121 . S
N174 C176 1.375 . S
N174 C177 1.313 . S
C175 C176 1.338 . S
C175 N178 1.377 . S
C175 H195 0.930 1_545 S
C176 N174 1.375 . S
C176 C175 1.338 . S
C176 H180 0.931 1_545 S
C177 N174 1.313 . S
C177 N178 1.344 . S
C177 H181 0.930 . S
N178 C175 1.377 . S
N178 C177 1.344 . S
O179 Co171 2.055 . S
O179 C183 1.253 . S
H180 C176 0.931 1_565 S
H181 C177 0.930 . S
O182 Co171 2.039 . S
O182 C172 1.265 . S
C183 O179 1.253 . S
C183 O184 1.227 . S
O184 C183 1.227 . S
N185 Co171 2.140 . S
N185 C188 1.346 . S
N185 C189 1.345 . S
C186 C187 1.387 1_556 S
C186 C190 1.391 . S
C187 C186 1.387 1_554 S
C187 C188 1.369 1_554 S
C187 H196 0.929 1_545 S
C188 N185 1.346 . S
C188 C187 1.369 1_556 S
C188 H191 0.928 1_556 S
C189 N185 1.345 . S
C189 C190 1.371 . S
C189 H192 0.931 . S
C190 C186 1.391 . S
C190 C189 1.371 . S
C190 H197 0.930 . S
H191 C188 0.928 1_554 S
H192 C189 0.931 . S
H193 C169 0.930 . S
H194 C166 0.930 . S
H195 C175 0.930 1_565 S
H196 C187 0.929 1_565 S
H197 C190 0.930 . S
C198 C199 1.351 . S
C198 N201 1.368 . S
C198 H203 0.931 . S
C199 C198 1.351 . S
C199 N200 1.373 . S
C199 H227 0.930 . S
N200 C199 1.373 . S
N200 C202 1.340 . S
N201 C198 1.368 . S
N201 C202 1.321 . S
N201 Co204 2.135 . S
C202 N200 1.340 . S
C202 N201 1.321 . S
C202 H226 0.930 . S
H203 C198 0.931 . S
Co204 N201 2.135 . S
Co204 N207 2.121 . S
Co204 O212 2.055 . S
Co204 O215 2.039 . S
Co204 N218 2.140 . S
C205 O206 1.227 . S
C205 O215 1.265 . S
O206 C205 1.227 . S
N207 Co204 2.121 . S
N207 C209 1.375 . S
N207 C210 1.313 . S
C208 C209 1.338 1_554 S
C208 N211 1.377 . S
C208 H228 0.930 . S
C209 N207 1.375 . S
C209 C208 1.338 1_556 S
C209 H213 0.931 . S
C210 N207 1.313 . S
C210 N211 1.344 1_556 S
C210 H214 0.930 . S
N211 C208 1.377 . S
N211 C210 1.344 1_554 S
O212 Co204 2.055 . S
O212 C216 1.253 . S
H213 C209 0.931 . S
H214 C210 0.930 . S
O215 Co204 2.039 . S
O215 C205 1.265 . S
C216 O212 1.253 . S
C216 O217 1.227 . S
O217 C216 1.227 . S
N218 Co204 2.140 . S
N218 C221 1.346 . S
N218 C222 1.345 . S
C219 C220 1.387 . S
C219 C223 1.391 . S
C220 C219 1.387 . S
C220 C221 1.369 . S
C220 H229 0.929 . S
C221 N218 1.346 . S
C221 C220 1.369 . S
C221 H224 0.928 . S
C222 N218 1.345 . S
C222 C223 1.371 . S
C222 H225 0.931 . S
C223 C219 1.391 . S
C223 C222 1.371 . S
C223 H230 0.930 . S
H224 C221 0.928 . S
H225 C222 0.931 . S
H226 C202 0.930 . S
H227 C199 0.930 . S
H228 C208 0.930 . S
H229 C220 0.929 . S
H230 C223 0.930 . S
C231 C232 1.351 . S
C231 N234 1.368 . S
C231 H236 0.931 . S
C232 C231 1.351 . S
C232 N233 1.373 . S
C232 H260 0.930 . S
N233 C232 1.373 . S
N233 C235 1.340 . S
N234 C231 1.368 . S
N234 C235 1.321 . S
N234 Co237 2.135 . S
C235 N233 1.340 . S
C235 N234 1.321 . S
C235 H259 0.930 . S
H236 C231 0.931 . S
Co237 N234 2.135 . S
Co237 N240 2.121 . S
Co237 O245 2.055 . S
Co237 O248 2.039 . S
Co237 N251 2.140 . S
C238 O239 1.227 . S
C238 O248 1.265 . S
O239 C238 1.227 . S
N240 Co237 2.121 . S
N240 C242 1.375 . S
N240 C243 1.313 . S
C241 C242 1.338 1_554 S
C241 N244 1.377 . S
C241 H261 0.930 . S
C242 N240 1.375 . S
C242 C241 1.338 1_556 S
C242 H246 0.931 . S
C243 N240 1.313 . S
C243 N244 1.344 1_556 S
C243 H247 0.930 . S
N244 C241 1.377 . S
N244 C243 1.344 1_554 S
O245 Co237 2.055 . S
O245 C249 1.253 . S
H246 C242 0.931 . S
H247 C243 0.930 . S
O248 Co237 2.039 . S
O248 C238 1.265 . S
C249 O245 1.253 . S
C249 O250 1.227 . S
O250 C249 1.227 . S
N251 Co237 2.140 . S
N251 C254 1.346 . S
N251 C255 1.345 . S
C252 C253 1.387 . S
C252 C256 1.391 . S
C253 C252 1.387 . S
C253 C254 1.369 . S
C253 H262 0.929 . S
C254 N251 1.346 . S
C254 C253 1.369 . S
C254 H257 0.928 . S
C255 N251 1.345 . S
C255 C256 1.371 . S
C255 H258 0.931 . S
C256 C252 1.391 . S
C256 C255 1.371 . S
C256 H263 0.930 . S
H257 C254 0.928 . S
H258 C255 0.931 . S
H259 C235 0.930 . S
H260 C232 0.930 . S
H261 C241 0.930 . S
H262 C253 0.929 . S
H263 C256 0.930 . S
C54 C21 1.545 1_565 S
C87 C120 1.545 . S
C186 C153 1.545 1_545 S
C219 C252 1.545 . S
C139 C7 1.563 1_666 S
C40 C172 1.563 1_564 S
C73 C205 1.563 1_455 S
C106 C238 1.563 . S
N2 N13 1.814 . S
N46 N35 1.814 . S
N68 N79 1.814 . S
N112 N101 1.814 . S
N134 N145 1.814 . S
N178 N167 1.814 . S
N200 N211 1.814 . S
N233 N244 1.814 . S
C18 C84 1.679 . S
C51 C117 1.680 . S
C150 C216 1.679 . S
C183 C249 1.680 . S
