# Generated by pormake.
# Topology uob, (4)-cn, num edge types: 1
# Building blocks:
#     Node 0, Type 0, BuildingBlock: NAWXER_clean_sbu_0, # of connection points: 4
#     Node 1, Type 0, BuildingBlock: NAWXER_clean_sbu_0, # of connection points: 4
#     Node 2, Type 0, BuildingBlock: NAWXER_clean_sbu_0, # of connection points: 4
#     Node 3, Type 0, BuildingBlock: NAWXER_clean_sbu_0, # of connection points: 4
#     Node 4, Type 0, BuildingBlock: NAWXER_clean_sbu_0, # of connection points: 4
#     Node 5, Type 0, BuildingBlock: NAWXER_clean_sbu_0, # of connection points: 4
#     Node 6, Type 0, BuildingBlock: NAWXER_clean_sbu_0, # of connection points: 4
#     Node 7, Type 0, BuildingBlock: NAWXER_clean_sbu_0, # of connection points: 4
#     Node 8, Type 0, BuildingBlock: NAWXER_clean_sbu_0, # of connection points: 4
#     Node 9, Type 0, BuildingBlock: NAWXER_clean_sbu_0, # of connection points: 4
#     Node 10, Type 0, BuildingBlock: NAWXER_clean_sbu_0, # of connection points: 4
#     Node 11, Type 0, BuildingBlock: NAWXER_clean_sbu_0, # of connection points: 4
#     Node 12, Type 0, BuildingBlock: NAWXER_clean_sbu_0, # of connection points: 4
#     Node 13, Type 0, BuildingBlock: NAWXER_clean_sbu_0, # of connection points: 4
#     Node 14, Type 0, BuildingBlock: NAWXER_clean_sbu_0, # of connection points: 4
#     Node 15, Type 0, BuildingBlock: NAWXER_clean_sbu_0, # of connection points: 4
#     Edge 16, Type (0, 0), BuildingBlock: KIFKEQ_clean_linker_1, # of connection points: 2
#     Edge 17, Type (0, 0), BuildingBlock: KIFKEQ_clean_linker_1, # of connection points: 2
#     Edge 18, Type (0, 0), BuildingBlock: KIFKEQ_clean_linker_1, # of connection points: 2
#     Edge 19, Type (0, 0), BuildingBlock: KIFKEQ_clean_linker_1, # of connection points: 2
#     Edge 20, Type (0, 0), BuildingBlock: KIFKEQ_clean_linker_1, # of connection points: 2
#     Edge 21, Type (0, 0), BuildingBlock: KIFKEQ_clean_linker_1, # of connection points: 2
#     Edge 22, Type (0, 0), BuildingBlock: KIFKEQ_clean_linker_1, # of connection points: 2
#     Edge 23, Type (0, 0), BuildingBlock: KIFKEQ_clean_linker_1, # of connection points: 2
#     Edge 24, Type (0, 0), BuildingBlock: KIFKEQ_clean_linker_1, # of connection points: 2
#     Edge 25, Type (0, 0), BuildingBlock: KIFKEQ_clean_linker_1, # of connection points: 2
#     Edge 26, Type (0, 0), BuildingBlock: KIFKEQ_clean_linker_1, # of connection points: 2
#     Edge 27, Type (0, 0), BuildingBlock: KIFKEQ_clean_linker_1, # of connection points: 2
#     Edge 28, Type (0, 0), BuildingBlock: KIFKEQ_clean_linker_1, # of connection points: 2
#     Edge 29, Type (0, 0), BuildingBlock: KIFKEQ_clean_linker_1, # of connection points: 2
#     Edge 30, Type (0, 0), BuildingBlock: KIFKEQ_clean_linker_1, # of connection points: 2
#     Edge 31, Type (0, 0), BuildingBlock: KIFKEQ_clean_linker_1, # of connection points: 2
#     Edge 32, Type (0, 0), BuildingBlock: KIFKEQ_clean_linker_1, # of connection points: 2
#     Edge 33, Type (0, 0), BuildingBlock: KIFKEQ_clean_linker_1, # of connection points: 2
#     Edge 34, Type (0, 0), BuildingBlock: KIFKEQ_clean_linker_1, # of connection points: 2
#     Edge 35, Type (0, 0), BuildingBlock: KIFKEQ_clean_linker_1, # of connection points: 2
#     Edge 36, Type (0, 0), BuildingBlock: KIFKEQ_clean_linker_1, # of connection points: 2
#     Edge 37, Type (0, 0), BuildingBlock: KIFKEQ_clean_linker_1, # of connection points: 2
#     Edge 38, Type (0, 0), BuildingBlock: KIFKEQ_clean_linker_1, # of connection points: 2
#     Edge 39, Type (0, 0), BuildingBlock: KIFKEQ_clean_linker_1, # of connection points: 2
#     Edge 40, Type (0, 0), BuildingBlock: KIFKEQ_clean_linker_1, # of connection points: 2
#     Edge 41, Type (0, 0), BuildingBlock: KIFKEQ_clean_linker_1, # of connection points: 2
#     Edge 42, Type (0, 0), BuildingBlock: KIFKEQ_clean_linker_1, # of connection points: 2
#     Edge 43, Type (0, 0), BuildingBlock: KIFKEQ_clean_linker_1, # of connection points: 2
#     Edge 44, Type (0, 0), BuildingBlock: KIFKEQ_clean_linker_1, # of connection points: 2
#     Edge 45, Type (0, 0), BuildingBlock: KIFKEQ_clean_linker_1, # of connection points: 2
#     Edge 46, Type (0, 0), BuildingBlock: KIFKEQ_clean_linker_1, # of connection points: 2
#     Edge 47, Type (0, 0), BuildingBlock: KIFKEQ_clean_linker_1, # of connection points: 2
# Relax obj value: 0.120
# Max RMSD: 0.245
# Mean RMSD: 0.245
data_MOF--net-uob--node1-NAWXER_clean_sbu_0--edge1-KIFKEQ_clean_linker_1
_symmetry_space_group_name_H-M    P1
_symmetry_Int_Tables_number       1
_symmetry_cell_setting            triclinic
loop_
_symmetry_equiv_pos_as_xyz
'x, y, z'
_cell_length_a     53.239915
_cell_length_b     53.265529
_cell_length_c     28.979074
_cell_angle_alpha  89.998635
_cell_angle_beta   89.989475
_cell_angle_gamma 90.025964
loop_
_atom_site_label
_atom_site_type_symbol
_atom_site_fract_x
_atom_site_fract_y
_atom_site_fract_z
_atom_type_partial_charge
C0 C 0.11229 0.08882 0.36575 0.0
C1 C 0.13217 0.09987 0.20415 0.0
O2 O 0.12121 0.06849 0.34836 0.0
Zn3 Zn 0.13526 0.05649 0.281 0.0
O4 O 0.11028 0.10831 0.34077 0.0
Zn5 Zn 0.12416 0.09377 0.28655 0.0
O6 O 0.09444 0.06729 0.26916 0.0
O7 O 0.11201 0.02979 0.26754 0.0
O8 O 0.12606 0.11576 0.23462 0.0
O9 O 0.13642 0.07706 0.21632 0.0
O10 O 0.16945 0.04688 0.29524 0.0
O11 O 0.1623 0.08677 0.30965 0.0
C12 C 0.09254 0.04342 0.26373 0.0
C13 C 0.17699 0.06769 0.31146 0.0
C14 C 0.92488 0.61307 0.61542 0.0
C15 C 0.9136 0.63254 0.45377 0.0
O16 O 0.94488 0.62285 0.59833 0.0
Zn17 Zn 0.95685 0.63646 0.53079 0.0
O18 O 0.90562 0.60981 0.59029 0.0
Zn19 Zn 0.91974 0.6244 0.53611 0.0
O20 O 0.9468 0.59543 0.51869 0.0
O21 O 0.98405 0.61356 0.5178 0.0
O22 O 0.8978 0.62587 0.48404 0.0
O23 O 0.93629 0.63728 0.46613 0.0
O24 O 0.96571 0.6708 0.54462 0.0
O25 O 0.92591 0.66283 0.55898 0.0
C26 C 0.97071 0.59391 0.51359 0.0
C27 C 0.94471 0.67794 0.56069 0.0
C28 C 0.3956 0.42117 0.8685 0.0
C29 C 0.37819 0.41608 0.70474 0.0
O30 O 0.38843 0.44246 0.85237 0.0
Zn31 Zn 0.37621 0.45708 0.78592 0.0
O32 O 0.39659 0.40218 0.84204 0.0
Zn33 Zn 0.38451 0.41904 0.78823 0.0
O34 O 0.41635 0.44424 0.77455 0.0
O35 O 0.40085 0.48268 0.77655 0.0
O36 O 0.38162 0.3987 0.73386 0.0
O37 O 0.37578 0.43879 0.719 0.0
O38 O 0.3427 0.46857 0.79973 0.0
O39 O 0.3465 0.42786 0.81011 0.0
C40 C 0.41959 0.46814 0.77178 0.0
C41 C 0.33335 0.44797 0.81338 0.0
C42 C 0.58849 0.89825 0.11431 0.0
C43 C 0.59923 0.87913 0.95243 0.0
O44 O 0.56824 0.88897 0.09717 0.0
Zn45 Zn 0.55625 0.87477 0.02988 0.0
O46 O 0.60787 0.90055 0.08911 0.0
Zn47 Zn 0.59336 0.88652 0.03503 0.0
O48 O 0.56614 0.9157 0.01836 0.0
O49 O 0.52893 0.89741 0.01717 0.0
O50 O 0.61517 0.8853 0.9828 0.0
O51 O 0.57655 0.87441 0.96484 0.0
O52 O 0.54741 0.8404 0.04378 0.0
O53 O 0.58723 0.84822 0.05779 0.0
C54 C 0.5422 0.91714 0.01336 0.0
C55 C 0.56841 0.83318 0.05961 0.0
C56 C 0.17694 0.4457 0.01403 0.0
C57 C 0.09112 0.46524 0.05945 0.0
O58 O 0.16358 0.42563 0.01559 0.0
Zn59 Zn 0.12542 0.4166 0.03681 0.0
O60 O 0.1679 0.46599 0.02978 0.0
Zn61 Zn 0.13453 0.4543 0.04363 0.0
O62 O 0.13631 0.43346 0.10772 0.0
O63 O 0.12744 0.3945 0.0887 0.0
O64 O 0.11012 0.47965 0.05815 0.0
O65 O 0.09405 0.44159 0.05252 0.0
O66 O 0.11307 0.40165 0.98178 0.0
O67 O 0.12159 0.44214 0.97559 0.0
C68 C 0.13274 0.41049 0.11951 0.0
C69 C 0.11404 0.42145 0.95742 0.0
C70 C 0.58922 0.61317 0.2071 0.0
C71 C 0.60012 0.63245 0.36891 0.0
O72 O 0.56896 0.62233 0.22439 0.0
Zn73 Zn 0.55701 0.63648 0.29169 0.0
O74 O 0.60867 0.61099 0.23215 0.0
Zn75 Zn 0.59419 0.62494 0.28636 0.0
O76 O 0.56716 0.5956 0.30327 0.0
O77 O 0.52986 0.61366 0.30464 0.0
O78 O 0.61606 0.62633 0.33851 0.0
O79 O 0.5774 0.63704 0.35658 0.0
O80 O 0.54796 0.67078 0.27779 0.0
O81 O 0.58781 0.66321 0.26363 0.0
C82 C 0.54324 0.59402 0.30844 0.0
C83 C 0.56891 0.67813 0.26187 0.0
C84 C 0.39624 0.09277 0.45514 0.0
C85 C 0.3796 0.09783 0.61886 0.0
O86 O 0.38906 0.07144 0.4711 0.0
Zn87 Zn 0.37636 0.05697 0.53763 0.0
O88 O 0.39724 0.11177 0.48159 0.0
Zn89 Zn 0.38551 0.09487 0.53532 0.0
O90 O 0.41684 0.06899 0.54825 0.0
O91 O 0.40054 0.03084 0.54664 0.0
O92 O 0.38317 0.11518 0.58974 0.0
O93 O 0.37673 0.07518 0.60461 0.0
O94 O 0.3421 0.04653 0.52462 0.0
O95 O 0.34754 0.08696 0.51362 0.0
C96 C 0.4196 0.04503 0.55101 0.0
C97 C 0.33353 0.06743 0.51076 0.0
C98 C 0.92265 0.89814 0.70479 0.0
C99 C 0.91093 0.87933 0.86668 0.0
O100 O 0.94296 0.88947 0.72276 0.0
Zn101 Zn 0.95462 0.8758 0.7907 0.0
O102 O 0.90295 0.90007 0.72928 0.0
Zn103 Zn 0.91728 0.88684 0.78408 0.0
O104 O 0.94372 0.91674 0.8 0.0
O105 O 0.98115 0.89923 0.80517 0.0
O106 O 0.89516 0.88555 0.83607 0.0
O107 O 0.93371 0.87484 0.85473 0.0
O108 O 0.96426 0.84154 0.77715 0.0
O109 O 0.92437 0.84856 0.76235 0.0
C110 C 0.96749 0.91877 0.80668 0.0
C111 C 0.94346 0.83386 0.76106 0.0
C112 C 0.6781 0.56857 0.81237 0.0
C113 C 0.59382 0.54285 0.76635 0.0
O114 O 0.66315 0.58744 0.81054 0.0
Zn115 Zn 0.62482 0.59377 0.78806 0.0
O116 O 0.67073 0.54758 0.7967 0.0
Zn117 Zn 0.63638 0.5566 0.78281 0.0
O118 O 0.63694 0.57696 0.71786 0.0
O119 O 0.62615 0.61559 0.73586 0.0
O120 O 0.61348 0.52947 0.77002 0.0
O121 O 0.59543 0.56676 0.77143 0.0
O122 O 0.61097 0.6083 0.84229 0.0
O123 O 0.62232 0.56862 0.85013 0.0
C124 C 0.63232 0.59966 0.70549 0.0
C125 C 0.61319 0.58888 0.8674 0.0
C126 C 0.42063 0.1161 0.11511 0.0
C127 C 0.41777 0.13449 0.95187 0.0
O128 O 0.44245 0.12222 0.09989 0.0
Zn129 Zn 0.45805 0.13481 0.03427 0.0
O130 O 0.4018 0.11653 0.08822 0.0
Zn131 Zn 0.4198 0.12776 0.03524 0.0
O132 O 0.44426 0.09511 0.02205 0.0
O133 O 0.48305 0.10977 0.02507 0.0
O134 O 0.40004 0.13153 0.98047 0.0
O135 O 0.44044 0.13608 0.96674 0.0
O136 O 0.47047 0.16786 0.0492 0.0
O137 O 0.42956 0.16527 0.05796 0.0
C138 C 0.46813 0.09137 0.01985 0.0
C139 C 0.45002 0.17778 0.0622 0.0
C140 C 0.91902 0.96724 0.26317 0.0
C141 C 0.83455 0.94283 0.31083 0.0
O142 O 0.91712 0.94336 0.26846 0.0
Zn143 Zn 0.8874 0.91682 0.28581 0.0
O144 O 0.89955 0.98087 0.26712 0.0
Zn145 Zn 0.87632 0.95416 0.28059 0.0
O146 O 0.89052 0.94206 0.34766 0.0
O147 O 0.90131 0.90221 0.33997 0.0
O148 O 0.84217 0.96371 0.29504 0.0
O149 O 0.84923 0.92374 0.30884 0.0
O150 O 0.88546 0.89498 0.23367 0.0
O151 O 0.87504 0.93373 0.21587 0.0
C152 C 0.89946 0.92172 0.36494 0.0
C153 C 0.87925 0.91097 0.20343 0.0
C154 C 0.04518 0.41979 0.51616 0.0
C155 C 0.06572 0.33442 0.56315 0.0
O156 O 0.069 0.41697 0.52132 0.0
Zn157 Zn 0.09428 0.38594 0.5382 0.0
O158 O 0.03083 0.40084 0.51994 0.0
Zn159 Zn 0.05653 0.37664 0.53314 0.0
O160 O 0.06929 0.39012 0.60017 0.0
O161 O 0.10963 0.39898 0.59253 0.0
O162 O 0.04519 0.3433 0.54814 0.0
O163 O 0.0857 0.34786 0.56056 0.0
O164 O 0.11599 0.38338 0.48603 0.0
O165 O 0.07681 0.37459 0.46815 0.0
C166 C 0.09005 0.39801 0.61752 0.0
C167 C 0.09974 0.37798 0.45572 0.0
C168 C 0.67776 0.9434 0.50928 0.0
C169 C 0.59329 0.96888 0.55457 0.0
O170 O 0.66285 0.92447 0.51097 0.0
Zn171 Zn 0.62447 0.91802 0.53325 0.0
O172 O 0.67029 0.96435 0.52493 0.0
Zn173 Zn 0.63591 0.95521 0.53852 0.0
O174 O 0.63633 0.93491 0.60354 0.0
O175 O 0.62571 0.89624 0.5855 0.0
O176 O 0.61295 0.98228 0.55108 0.0
O177 O 0.59493 0.94496 0.54955 0.0
O178 O 0.61077 0.90339 0.47901 0.0
O179 O 0.62202 0.94311 0.4711 0.0
C180 C 0.63174 0.9122 0.6159 0.0
C181 C 0.61297 0.92279 0.45385 0.0
C182 C 0.06604 0.17715 0.76165 0.0
C183 C 0.04576 0.09148 0.80746 0.0
O184 O 0.086 0.16368 0.76357 0.0
Zn185 Zn 0.0947 0.12551 0.78496 0.0
O186 O 0.04558 0.16822 0.77699 0.0
Zn187 Zn 0.05697 0.13479 0.79131 0.0
O188 O 0.07765 0.13664 0.85558 0.0
O189 O 0.11665 0.12755 0.8371 0.0
O190 O 0.03143 0.11053 0.80583 0.0
O191 O 0.06946 0.09433 0.80077 0.0
O192 O 0.10972 0.11296 0.73007 0.0
O193 O 0.06924 0.12153 0.72361 0.0
C194 C 0.10057 0.13301 0.86768 0.0
C195 C 0.08993 0.11384 0.70563 0.0
C196 C 0.91878 0.54413 0.05696 0.0
C197 C 0.83421 0.56968 0.0122 0.0
O198 O 0.91715 0.5679 0.05029 0.0
Zn199 Zn 0.88793 0.59486 0.03435 0.0
O200 O 0.89899 0.53079 0.05552 0.0
Zn201 Zn 0.87594 0.55778 0.0414 0.0
O202 O 0.88911 0.5691 0.97298 0.0
O203 O 0.90185 0.60857 0.97941 0.0
O204 O 0.84147 0.54884 0.02874 0.0
O205 O 0.84933 0.58848 0.0129 0.0
O206 O 0.88725 0.61707 0.08633 0.0
O207 O 0.87568 0.57881 0.10523 0.0
C208 C 0.89863 0.58901 0.95503 0.0
C209 C 0.88073 0.60149 0.11707 0.0
C210 C 0.42227 0.39515 0.20845 0.0
C211 C 0.41697 0.37815 0.37231 0.0
O212 O 0.44361 0.38822 0.22473 0.0
Zn213 Zn 0.45819 0.37633 0.29151 0.0
O214 O 0.40323 0.39607 0.23483 0.0
Zn215 Zn 0.42011 0.38429 0.28877 0.0
O216 O 0.44503 0.41638 0.30227 0.0
O217 O 0.48358 0.40112 0.30079 0.0
O218 O 0.39963 0.38132 0.34299 0.0
O219 O 0.43975 0.37593 0.35829 0.0
O220 O 0.47008 0.34295 0.27829 0.0
O221 O 0.42939 0.34636 0.26711 0.0
C222 C 0.46892 0.41977 0.30517 0.0
C223 C 0.44965 0.3334 0.26426 0.0
H224 H 0.31316 0.10774 0.46565 0.0
H225 H 0.2989 0.02987 0.49799 0.0
H226 H 0.27626 0.10844 0.41609 0.0
H227 H 0.26152 0.03075 0.44943 0.0
H228 H 0.21319 0.03138 0.32032 0.0
H229 H 0.25022 0.03207 0.36972 0.0
H230 H 0.23162 0.10739 0.41324 0.0
H231 H 0.19502 0.10694 0.36283 0.0
C232 C 0.30189 0.09087 0.46293 0.0
C233 C 0.30909 0.06873 0.48589 0.0
C234 C 0.28064 0.09128 0.43442 0.0
C235 C 0.26592 0.06959 0.42819 0.0
C236 C 0.27266 0.04769 0.45248 0.0
C237 C 0.29397 0.04725 0.48084 0.0
C238 C 0.21717 0.04822 0.33996 0.0
C239 C 0.20109 0.06912 0.33741 0.0
C240 C 0.23829 0.04852 0.36879 0.0
C241 C 0.24388 0.06968 0.39609 0.0
C242 C 0.22814 0.09083 0.39255 0.0
C243 C 0.20707 0.09057 0.36355 0.0
H244 H 0.98044 0.79855 0.75011 0.0
H245 H 0.90346 0.81446 0.71328 0.0
H246 H 0.97969 0.76142 0.701 0.0
H247 H 0.9029 0.77764 0.66333 0.0
H248 H 0.98067 0.71435 0.57063 0.0
H249 H 0.97936 0.75128 0.62016 0.0
H250 H 0.9036 0.73247 0.66087 0.0
H251 H 0.90471 0.69582 0.61049 0.0
C252 C 0.96327 0.79404 0.73186 0.0
C253 C 0.94202 0.80957 0.73576 0.0
C254 C 0.96292 0.77286 0.70322 0.0
C255 C 0.94134 0.76663 0.67756 0.0
C256 C 0.91981 0.7817 0.68269 0.0
C257 C 0.92014 0.80288 0.7114 0.0
C258 C 0.9636 0.71824 0.58966 0.0
C259 C 0.94279 0.70205 0.58643 0.0
C260 C 0.96294 0.73931 0.61855 0.0
C261 C 0.9415 0.74477 0.64514 0.0
C262 C 0.92039 0.72901 0.64077 0.0
C263 C 0.92103 0.70794 0.6118 0.0
H264 H 0.31224 0.48672 0.86036 0.0
H265 H 0.30067 0.40868 0.82679 0.0
H266 H 0.27621 0.48584 0.91117 0.0
H267 H 0.2631 0.40807 0.87503 0.0
H268 H 0.20915 0.40654 0.99631 0.0
H269 H 0.24667 0.40704 0.9479 0.0
H270 H 0.2343 0.48589 0.91975 0.0
H271 H 0.19834 0.48557 0.97074 0.0
C272 C 0.30149 0.4695 0.86284 0.0
C273 C 0.30925 0.44783 0.8392 0.0
C274 C 0.2806 0.46896 0.89206 0.0
C275 C 0.26628 0.44689 0.89766 0.0
C276 C 0.27373 0.42534 0.8728 0.0
C277 C 0.29513 0.42572 0.84447 0.0
C278 C 0.21484 0.42403 0.98034 0.0
C279 C 0.20096 0.44607 0.98792 0.0
C280 C 0.2362 0.4243 0.95191 0.0
C281 C 0.24385 0.4465 0.92926 0.0
C282 C 0.22976 0.4685 0.93713 0.0
C283 C 0.2089 0.46834 0.96645 0.0
H284 H 0.60862 0.81497 0.10841 0.0
H285 H 0.53224 0.79706 0.07036 0.0
H286 H 0.60969 0.77842 0.15909 0.0
H287 H 0.5335 0.76025 0.12018 0.0
H288 H 0.53253 0.71401 0.25122 0.0
H289 H 0.53356 0.75082 0.20139 0.0
H290 H 0.60982 0.73315 0.16227 0.0
H291 H 0.60898 0.69659 0.21296 0.0
C292 C 0.59219 0.803 0.11017 0.0
C293 C 0.57031 0.80905 0.08529 0.0
C294 C 0.59282 0.782 0.13931 0.0
C295 C 0.57158 0.76649 0.14431 0.0
C296 C 0.55003 0.77206 0.11808 0.0
C297 C 0.54939 0.79305 0.08904 0.0
C298 C 0.54965 0.71813 0.23249 0.0
C299 C 0.57066 0.70226 0.23618 0.0
C300 C 0.55015 0.73913 0.20344 0.0
C301 C 0.57165 0.74483 0.17715 0.0
C302 C 0.59298 0.72946 0.1821 0.0
C303 C 0.59249 0.70846 0.21124 0.0
H304 H 0.71388 0.53213 0.8239 0.0
H305 H 0.6969 0.60899 0.8598 0.0
H306 H 0.75093 0.53352 0.87315 0.0
H307 H 0.7337 0.6102 0.90988 0.0
H308 H 0.81584 0.60935 0.96219 0.0
H309 H 0.77902 0.60996 0.91214 0.0
H310 H 0.76085 0.5343 0.95421 0.0
H311 H 0.79792 0.53349 0.00344 0.0
C312 C 0.71814 0.54941 0.84198 0.0
C313 C 0.70233 0.57044 0.83779 0.0
C314 C 0.73928 0.55012 0.8707 0.0
C315 C 0.7452 0.57186 0.89613 0.0
C316 C 0.72986 0.59317 0.89071 0.0
C317 C 0.70871 0.59247 0.86192 0.0
C318 C 0.80381 0.59295 0.96127 0.0
C319 C 0.80994 0.57135 0.98689 0.0
C320 C 0.78265 0.5933 0.93249 0.0
C321 C 0.76705 0.57207 0.92856 0.0
C322 C 0.77271 0.55081 0.95549 0.0
C323 C 0.79386 0.55044 0.98419 0.0
H324 H 0.41042 0.3011 0.24765 0.0
H325 H 0.48935 0.31196 0.22039 0.0
H326 H 0.41056 0.26374 0.1989 0.0
H327 H 0.48929 0.27608 0.16922 0.0
H328 H 0.48922 0.1982 0.10919 0.0
H329 H 0.48888 0.23402 0.16055 0.0
H330 H 0.4112 0.2482 0.12509 0.0
H331 H 0.41126 0.21092 0.07616 0.0
C332 C 0.42782 0.29544 0.2313 0.0
C333 C 0.44992 0.30933 0.23841 0.0
C334 C 0.42788 0.27418 0.20268 0.0
C335 C 0.44992 0.26662 0.17944 0.0
C336 C 0.47201 0.28062 0.187 0.0
C337 C 0.47207 0.30141 0.21645 0.0
C338 C 0.47214 0.20914 0.11193 0.0
C339 C 0.45031 0.20177 0.08828 0.0
C340 C 0.47191 0.22989 0.14147 0.0
C341 C 0.45001 0.2444 0.14745 0.0
C342 C 0.42833 0.23737 0.12256 0.0
C343 C 0.42841 0.21615 0.09384 0.0
H344 H 0.79894 0.97952 0.32141 0.0
H345 H 0.81556 0.90289 0.35937 0.0
H346 H 0.76173 0.97861 0.37032 0.0
H347 H 0.77865 0.90216 0.40918 0.0
H348 H 0.69648 0.90333 0.46078 0.0
H349 H 0.73349 0.90236 0.41123 0.0
H350 H 0.75115 0.97854 0.45082 0.0
H351 H 0.71385 0.97971 0.49946 0.0
C352 C 0.79458 0.96239 0.33992 0.0
C353 C 0.81032 0.94128 0.33634 0.0
C354 C 0.77335 0.96195 0.36844 0.0
C355 C 0.76727 0.94042 0.39434 0.0
C356 C 0.78258 0.91903 0.38962 0.0
C357 C 0.80381 0.91945 0.36099 0.0
C358 C 0.70842 0.91979 0.4594 0.0
C359 C 0.70209 0.94162 0.48414 0.0
C360 C 0.72971 0.91922 0.43091 0.0
C361 C 0.74525 0.94047 0.42644 0.0
C362 C 0.73936 0.962 0.4525 0.0
C363 C 0.71807 0.96258 0.48087 0.0
H364 H 0.10514 0.30211 0.57829 0.0
H365 H 0.02665 0.31313 0.60899 0.0
H366 H 0.10535 0.26435 0.62604 0.0
H367 H 0.0271 0.27694 0.65936 0.0
H368 H 0.0267 0.19879 0.7172 0.0
H369 H 0.02698 0.23506 0.66703 0.0
H370 H 0.10556 0.24718 0.69829 0.0
H371 H 0.10548 0.20935 0.74583 0.0
C372 C 0.08793 0.29643 0.59529 0.0
C373 C 0.06581 0.31042 0.58927 0.0
C374 C 0.08807 0.27491 0.62333 0.0
C375 C 0.06624 0.26722 0.64716 0.0
C376 C 0.04419 0.28149 0.64099 0.0
C377 C 0.04391 0.30249 0.61204 0.0
C378 C 0.04399 0.20935 0.71375 0.0
C379 C 0.06602 0.20126 0.73585 0.0
C380 C 0.04418 0.2304 0.68492 0.0
C381 C 0.06628 0.24455 0.6782 0.0
C382 C 0.08823 0.23671 0.70143 0.0
C383 C 0.08817 0.21515 0.72935 0.0
H384 H 0.07892 0.99448 0.27694 0.0
H385 H 0.04954 0.0663 0.23398 0.0
H386 H 0.03706 0.97642 0.27223 0.0
H387 H 0.00777 0.04801 0.22683 0.0
H388 H 0.93261 0.01616 0.27664 0.0
H389 H 0.97448 0.03422 0.27222 0.0
H390 H 1.00384 0.9627 0.22659 0.0
H391 H 0.96206 0.94441 0.23344 0.0
C392 C 0.06357 0.0063 0.26556 0.0
C393 C 0.06754 0.03186 0.25611 0.0
C394 C 0.03949 0.9959 0.26257 0.0
C395 C 0.01878 0.0107 0.24932 0.0
C396 C 0.02303 0.03609 0.23818 0.0
C397 C 0.04706 0.04658 0.24191 0.0
C398 C 0.94798 1.00436 0.26526 0.0
C399 C 0.94402 0.97881 0.25566 0.0
C400 C 0.97207 0.01476 0.26245 0.0
C401 C 0.9928 0.99998 0.24923 0.0
C402 C 0.98856 0.9746 0.23792 0.0
C403 C 0.96453 0.96412 0.24147 0.0
H404 H 0.94864 0.55122 0.48091 0.0
H405 H 0.01947 0.58036 0.52979 0.0
H406 H 0.96697 0.50951 0.47462 0.0
H407 H 0.03756 0.53844 0.52595 0.0
H408 H 0.06962 0.46268 0.48946 0.0
H409 H 0.05218 0.5048 0.48182 0.0
H410 H 0.97919 0.47644 0.52165 0.0
H411 H 0.9964 0.43435 0.5269 0.0
C412 C 0.96817 0.54869 0.49031 0.0
C413 C 0.98257 0.56907 0.50602 0.0
C414 C 0.97867 0.52469 0.48709 0.0
C415 C 1.00375 0.52033 0.50034 0.0
C416 C 0.01833 0.54096 0.51482 0.0
C417 C 0.00791 0.56506 0.51727 0.0
C418 C 0.04979 0.46546 0.49607 0.0
C419 C 0.03441 0.44515 0.50877 0.0
C420 C 0.03979 0.48968 0.49204 0.0
C421 C 0.01421 0.49427 0.50129 0.0
C422 C 0.99883 0.47376 0.51333 0.0
C423 C 0.00875 0.44953 0.51666 0.0
H424 H 0.46234 0.44387 0.74361 0.0
H425 H 0.43455 0.51652 0.78555 0.0
H426 H 0.50449 0.46138 0.73563 0.0
H427 H 0.47662 0.53374 0.77985 0.0
H428 H 0.55064 0.565 0.7361 0.0
H429 H 0.5089 0.54653 0.73113 0.0
H430 H 0.53871 0.47568 0.77917 0.0
H431 H 0.58062 0.49393 0.78178 0.0
C432 C 0.46525 0.46357 0.75122 0.0
C433 C 0.44508 0.47879 0.76518 0.0
C434 C 0.48947 0.47361 0.74695 0.0
C435 C 0.49417 0.49905 0.75713 0.0
C436 C 0.47383 0.51424 0.77071 0.0
C437 C 0.44962 0.50429 0.77434 0.0
C438 C 0.54829 0.5454 0.74507 0.0
C439 C 0.56892 0.53097 0.75952 0.0
C440 C 0.52429 0.53481 0.7426 0.0
C441 C 0.52018 0.50962 0.75535 0.0
C442 C 0.54104 0.49502 0.76851 0.0
C443 C 0.56513 0.50552 0.77024 0.0
H444 H 0.56404 0.96024 0.98209 0.0
H445 H 0.4933 0.93017 0.02959 0.0
H446 H 0.54546 1.00189 0.97731 0.0
H447 H 0.47494 0.97203 0.02715 0.0
H448 H 0.44322 0.04877 0.99223 0.0
H449 H 0.46039 0.00648 0.98392 0.0
H450 H 0.53317 0.03382 0.02721 0.0
H451 H 0.51632 0.07593 0.03332 0.0
C452 C 0.54448 0.96255 0.99149 0.0
C453 C 0.53019 0.94194 0.00646 0.0
C454 C 0.53383 0.9865 0.98913 0.0
C455 C 0.50873 0.99057 0.00252 0.0
C456 C 0.49422 0.96971 0.01605 0.0
C457 C 0.50478 0.94566 0.01768 0.0
C458 C 0.46293 0.0457 0.99957 0.0
C459 C 0.47839 0.06574 0.01333 0.0
C460 C 0.47278 0.02142 0.99509 0.0
C461 C 0.49825 0.01657 0.00479 0.0
C462 C 0.51364 0.03676 0.01835 0.0
C463 C 0.5039 0.06099 0.02223 0.0
H464 H 0.07857 0.51175 0.09199 0.0
H465 H 0.046 0.44277 0.04146 0.0
H466 H 0.03685 0.53022 0.09772 0.0
H467 H 1.00436 0.46153 0.04512 0.0
H468 H 0.9296 0.49591 0.08399 0.0
H469 H 0.97094 0.47645 0.09092 0.0
H470 H 1.00567 0.54623 0.04906 0.0
H471 H 0.96464 0.56578 0.04416 0.0
C472 C 0.06247 0.50052 0.08211 0.0
C473 C 0.06563 0.47583 0.06609 0.0
C474 C 0.03852 0.51117 0.08506 0.0
C475 C 0.0171 0.49753 0.07142 0.0
C476 C 0.02027 0.47257 0.05654 0.0
C477 C 0.04422 0.46181 0.05418 0.0
C478 C 0.94612 0.50711 0.07673 0.0
C479 C 0.94379 0.5324 0.06356 0.0
C480 C 0.96985 0.49592 0.08038 0.0
C481 C 0.99181 0.50968 0.07048 0.0
C482 C 0.98936 0.53508 0.05788 0.0
C483 C 0.96571 0.5463 0.05475 0.0
H484 H 0.51726 0.43483 0.29149 0.0
H485 H 0.44438 0.46255 0.33244 0.0
H486 H 0.53434 0.47694 0.29669 0.0
H487 H 0.46175 0.50477 0.33992 0.0
H488 H 0.49437 0.58073 0.29278 0.0
H489 H 0.47613 0.53883 0.29594 0.0
H490 H 0.54691 0.50936 0.34521 0.0
H491 H 0.56536 0.55106 0.33966 0.0
C492 C 0.50495 0.44989 0.30238 0.0
C493 C 0.47943 0.44532 0.31143 0.0
C494 C 0.51481 0.47413 0.30572 0.0
C495 C 0.49953 0.49446 0.31891 0.0
C496 C 0.47406 0.48975 0.32894 0.0
C497 C 0.4641 0.46549 0.32495 0.0
C498 C 0.50594 0.56531 0.3047 0.0
C499 C 0.53137 0.56917 0.31558 0.0
C500 C 0.49545 0.54124 0.30675 0.0
C501 C 0.51004 0.52048 0.32041 0.0
C502 C 0.5352 0.52467 0.33335 0.0
C503 C 0.54578 0.54865 0.33055 0.0
H504 H 0.43388 0.99652 0.53598 0.0
H505 H 0.46267 0.06851 0.57956 0.0
H506 H 0.47579 0.97877 0.54091 0.0
H507 H 0.50459 0.05049 0.5868 0.0
H508 H 0.5803 0.01789 0.53995 0.0
H509 H 0.53851 0.03631 0.54272 0.0
H510 H 0.50817 0.96524 0.58871 0.0
H511 H 0.54983 0.94661 0.58356 0.0
C512 C 0.44913 0.00848 0.54738 0.0
C513 C 0.44493 0.03396 0.5572 0.0
C514 C 0.47324 0.99824 0.55055 0.0
C515 C 0.4938 0.0131 0.56433 0.0
C516 C 0.48942 0.0385 0.57525 0.0
C517 C 0.46532 0.04884 0.5714 0.0
C518 C 0.56472 0.00627 0.55104 0.0
C519 C 0.56836 0.98074 0.56121 0.0
C520 C 0.54069 0.01688 0.55288 0.0
C521 C 0.51972 1.00229 0.56561 0.0
C522 C 0.52365 0.97697 0.57763 0.0
C523 C 0.54761 0.96629 0.57507 0.0
H524 H 0.0683 0.04631 0.79073 0.0
H525 H 0.99893 0.07907 0.83899 0.0
H526 H 0.04954 1.00471 0.79479 0.0
H527 H 0.98043 0.03737 0.84514 0.0
H528 H 0.94544 0.96438 0.793 0.0
H529 H 0.9647 1.00561 0.79744 0.0
H530 H 0.03454 0.97167 0.84103 0.0
H531 H 0.01542 0.93018 0.83454 0.0
C532 C 0.04916 0.04458 0.80303 0.0
C533 C 0.03506 0.06604 0.81423 0.0
C534 C 0.0384 0.02065 0.80563 0.0
C535 C 0.01333 0.01751 0.82006 0.0
C536 C 0.99957 0.03899 0.83288 0.0
C537 C 0.01023 0.06294 0.82969 0.0
C538 C 0.96486 0.96569 0.80389 0.0
C539 C 0.9789 0.94394 0.81325 0.0
C540 C 0.97592 0.98944 0.80674 0.0
C541 C 1.00128 0.99216 0.8196 0.0
C542 C 0.01513 0.97038 0.8302 0.0
C543 C 1.00411 0.94656 0.82681 0.0
H544 H 0.0532 0.11998 0.64082 0.0
H545 H 0.12891 0.09233 0.65898 0.0
H546 H 0.05596 0.1113 0.55828 0.0
H547 H 0.13165 0.08387 0.57652 0.0
H548 H 0.12116 0.05334 0.43182 0.0
H549 H 0.11331 0.05677 0.51457 0.0
H550 H 0.08092 0.13025 0.49399 0.0
H551 H 0.08855 0.12684 0.41133 0.0
C552 C 0.07034 0.11186 0.6273 0.0
C553 C 0.0909 0.10698 0.65634 0.0
C554 C 0.07193 0.107 0.58006 0.0
C555 C 0.09403 0.09698 0.56108 0.0
C556 C 0.11429 0.09136 0.59032 0.0
C557 C 0.11277 0.09637 0.63748 0.0
C558 C 0.11209 0.07011 0.44488 0.0
C559 C 0.10562 0.0899 0.41512 0.0
C560 C 0.10772 0.07209 0.49223 0.0
C561 C 0.09661 0.0938 0.51062 0.0
C562 C 0.08931 0.1132 0.48067 0.0
C563 C 0.09383 0.1113 0.43339 0.0
H564 H 0.90305 0.57249 0.6557 0.0
H565 H 0.94398 0.64043 0.68567 0.0
H566 H 0.89973 0.56355 0.73792 0.0
H567 H 0.93886 0.63304 0.76779 0.0
H568 H 0.93994 0.60924 0.91477 0.0
H569 H 0.94925 0.61177 0.83263 0.0
H570 H 0.87863 0.57467 0.80271 0.0
H571 H 0.87085 0.57026 0.88494 0.0
C572 C 0.91118 0.58556 0.68016 0.0
C573 C 0.92378 0.60707 0.66475 0.0
C574 C 0.9091 0.58064 0.72733 0.0
C575 C 0.9188 0.59764 0.76008 0.0
C576 C 0.93162 0.61911 0.7441 0.0
C577 C 0.93441 0.62354 0.69695 0.0
C578 C 0.9267 0.60138 0.89033 0.0
C579 C 0.90474 0.58958 0.90574 0.0
C580 C 0.93183 0.60302 0.84319 0.0
C581 C 0.9146 0.59371 0.81045 0.0
C582 C 0.8927 0.58162 0.82643 0.0
C583 C 0.88805 0.57924 0.87361 0.0
H584 H 0.38208 0.41623 0.16446 0.0
H585 H 0.45669 0.38701 0.1403 0.0
H586 H 0.37718 0.42369 0.08186 0.0
H587 H 0.45172 0.39456 0.05776 0.0
H588 H 0.41678 0.381 0.91242 0.0
H589 H 0.42448 0.37618 0.99498 0.0
H590 H 0.39558 0.45078 0.01902 0.0
H591 H 0.38778 0.45567 0.93658 0.0
C592 C 0.39748 0.41156 0.14159 0.0
C593 C 0.41974 0.40098 0.15887 0.0
C594 C 0.39471 0.41595 0.09437 0.0
C595 C 0.41406 0.40964 0.06352 0.0
C596 C 0.43644 0.39937 0.08081 0.0
C597 C 0.43931 0.3952 0.12807 0.0
C598 C 0.41221 0.39643 0.93527 0.0
C599 C 0.40162 0.41868 0.91801 0.0
C600 C 0.41675 0.39371 0.98246 0.0
C601 C 0.41056 0.41309 0.01329 0.0
C602 C 0.4003 0.43547 0.996 0.0
C603 C 0.39598 0.43828 0.94879 0.0
H604 H 0.62052 0.95872 0.38799 0.0
H605 H 0.59008 0.88425 0.40822 0.0
H606 H 0.61197 0.9555 0.30547 0.0
H607 H 0.58183 0.88101 0.32581 0.0
H608 H 0.55263 0.89051 0.18026 0.0
H609 H 0.55586 0.89907 0.26277 0.0
H610 H 0.63014 0.92977 0.2422 0.0
H611 H 0.62688 0.9215 0.15978 0.0
C612 C 0.61183 0.94177 0.37492 0.0
C613 C 0.60613 0.92167 0.40456 0.0
C614 C 0.60704 0.9399 0.32769 0.0
C615 C 0.59632 0.91799 0.30928 0.0
C616 C 0.58986 0.89824 0.33912 0.0
C617 C 0.59476 0.90003 0.38628 0.0
C618 C 0.56954 0.89933 0.19327 0.0
C619 C 0.58958 0.90517 0.16357 0.0
C620 C 0.57141 0.90413 0.2405 0.0
C621 C 0.59328 0.91499 0.25885 0.0
C622 C 0.61295 0.92161 0.22894 0.0
C623 C 0.61115 0.91671 0.18178 0.0
H624 H 0.05395 0.39126 0.68324 0.0
H625 H 0.12917 0.41995 0.66323 0.0
H626 H 0.05738 0.39948 0.76582 0.0
H627 H 0.13255 0.42799 0.74583 0.0
H628 H 0.12214 0.4575 0.89205 0.0
H629 H 0.11408 0.45449 0.80927 0.0
H630 H 0.08354 0.38008 0.82844 0.0
H631 H 0.09143 0.38305 0.91107 0.0
C632 C 0.07111 0.39954 0.69637 0.0
C633 C 0.09137 0.40481 0.6668 0.0
C634 C 0.07308 0.40413 0.74363 0.0
C635 C 0.09524 0.41427 0.76212 0.0
C636 C 0.11516 0.42037 0.73238 0.0
C637 C 0.11328 0.4156 0.68516 0.0
C638 C 0.11346 0.44061 0.87866 0.0
C639 C 0.10753 0.42045 0.908 0.0
C640 C 0.10897 0.43887 0.83131 0.0
C641 C 0.09825 0.41705 0.81256 0.0
C642 C 0.0916 0.39722 0.84208 0.0
C643 C 0.09628 0.39886 0.88932 0.0
H644 H 0.55318 0.62077 0.14145 0.0
H645 H 0.62761 0.59012 0.16129 0.0
H646 H 0.55627 0.61225 0.05891 0.0
H647 H 0.63071 0.5819 0.07883 0.0
H648 H 0.59019 0.62729 0.91319 0.0
H649 H 0.58205 0.63046 0.99566 0.0
H650 H 0.61244 0.55608 0.01571 0.0
H651 H 0.62087 0.55292 0.93314 0.0
C652 C 0.5701 0.61203 0.1283 0.0
C653 C 0.59023 0.60627 0.15782 0.0
C654 C 0.57188 0.60726 0.08105 0.0
C655 C 0.59375 0.59651 0.06251 0.0
C656 C 0.61352 0.58997 0.09225 0.0
C657 C 0.6118 0.59485 0.13942 0.0
C658 C 0.59494 0.61152 0.93508 0.0
C659 C 0.60635 0.58994 0.91671 0.0
C660 C 0.59011 0.61327 0.98227 0.0
C661 C 0.59668 0.59354 0.01205 0.0
C662 C 0.60742 0.57166 0.99354 0.0
C663 C 0.61214 0.56984 0.94627 0.0
H664 H 0.41115 0.05626 0.39507 0.0
H665 H 0.3935 0.13533 0.40359 0.0
H666 H 0.41787 0.06053 0.31166 0.0
H667 H 0.39958 0.13928 0.32024 0.0
H668 H 0.3779 0.12056 0.16592 0.0
H669 H 0.37322 0.11423 0.2491 0.0
H670 H 0.45086 0.09171 0.25849 0.0
H671 H 0.4559 0.09865 0.17533 0.0
C672 C 0.4088 0.07451 0.37914 0.0
C673 C 0.40183 0.09548 0.40565 0.0
C674 C 0.41268 0.07692 0.33166 0.0
C675 C 0.40906 0.10017 0.31002 0.0
C676 C 0.40233 0.12116 0.33646 0.0
C677 C 0.39901 0.1189 0.38401 0.0
C678 C 0.39391 0.11403 0.18563 0.0
C679 C 0.41728 0.11014 0.16433 0.0
C680 C 0.39124 0.11056 0.23308 0.0
C681 C 0.41173 0.1026 0.25971 0.0
C682 C 0.43486 0.09783 0.23834 0.0
C683 C 0.43771 0.10185 0.191 0.0
H684 H 0.88464 0.92129 0.65826 0.0
H685 H 0.95887 0.88996 0.63969 0.0
H686 H 0.88193 0.9293 0.5757 0.0
H687 H 0.95616 0.89822 0.55697 0.0
H688 H 0.8925 0.958 0.43029 0.0
H689 H 0.90091 0.95494 0.51284 0.0
H690 H 0.93021 0.88007 0.49347 0.0
H691 H 0.92205 0.88312 0.41094 0.0
C692 C 0.90049 0.91636 0.63664 0.0
C693 C 0.9219 0.90483 0.65542 0.0
C694 C 0.89899 0.92111 0.58941 0.0
C695 C 0.91882 0.91433 0.55999 0.0
C696 C 0.94052 0.90343 0.57888 0.0
C697 C 0.94209 0.89881 0.62622 0.0
C698 C 0.901 0.94099 0.44355 0.0
C699 C 0.90644 0.92071 0.41417 0.0
C700 C 0.90571 0.93923 0.49081 0.0
C701 C 0.9161 0.91724 0.5095 0.0
C702 C 0.9224 0.89734 0.47991 0.0
C703 C 0.91756 0.89903 0.43271 0.0
H704 H 0.14532 0.11799 0.90464 0.0
H705 H 0.07195 0.14584 0.94276 0.0
H706 H 0.15553 0.11186 0.98587 0.0
H707 H 0.08231 0.13973 0.02414 0.0
H708 H 0.11721 0.14464 0.16741 0.0
H709 H 0.11159 0.15518 0.08625 0.0
H710 H 0.13987 0.08222 0.04751 0.0
H711 H 0.14547 0.07152 0.12891 0.0
C712 C 0.13148 0.12315 0.93032 0.0
C713 C 0.10775 0.13236 0.91713 0.0
C714 C 0.1373 0.11945 0.97686 0.0
C715 C 0.11968 0.12515 0.01134 0.0
C716 C 0.09634 0.13531 0.99833 0.0
C717 C 0.09039 0.13877 0.95171 0.0
C718 C 0.12255 0.13091 0.14166 0.0
C719 C 0.13173 0.10716 0.15474 0.0
C720 C 0.11916 0.13693 0.09515 0.0
C721 C 0.12512 0.11949 0.06055 0.0
C722 C 0.13525 0.09612 0.07343 0.0
C723 C 0.13841 0.08997 0.12006 0.0
H724 H 0.9423 0.64562 0.37885 0.0
H725 H 0.86862 0.61839 0.4166 0.0
H726 H 0.93174 0.64032 0.29738 0.0
H727 H 0.85815 0.61319 0.33533 0.0
H728 H 0.86656 0.57363 0.19221 0.0
H729 H 0.87263 0.58398 0.27351 0.0
H730 H 0.90329 0.65606 0.23506 0.0
H731 H 0.8973 0.64578 0.1538 0.0
C732 C 0.92375 0.63887 0.36982 0.0
C733 C 0.90638 0.63233 0.40432 0.0
C734 C 0.91767 0.6359 0.32313 0.0
C735 C 0.89416 0.62616 0.30997 0.0
C736 C 0.87652 0.62042 0.34441 0.0
C737 C 0.8825 0.62357 0.391 0.0
C738 C 0.87427 0.59182 0.20108 0.0
C739 C 0.88151 0.60881 0.16643 0.0
C740 C 0.87768 0.59779 0.24768 0.0
C741 C 0.88858 0.6208 0.26067 0.0
C742 C 0.89512 0.63808 0.22611 0.0
C743 C 0.89151 0.63222 0.17955 0.0
H744 H 0.39336 0.44754 0.63592 0.0
H745 H 0.3686 0.37156 0.66133 0.0
H746 H 0.40273 0.43648 0.55572 0.0
H747 H 0.37737 0.36076 0.58067 0.0
H748 H 0.37236 0.36825 0.41529 0.0
H749 H 0.36126 0.37689 0.49585 0.0
H750 H 0.43672 0.40289 0.52151 0.0
H751 H 0.44809 0.39364 0.44141 0.0
C752 C 0.3894 0.42865 0.62413 0.0
C753 C 0.38019 0.41043 0.65487 0.0
C754 C 0.39499 0.42228 0.57843 0.0
C755 C 0.39095 0.39774 0.56231 0.0
C756 C 0.38066 0.3798 0.59236 0.0
C757 C 0.37562 0.386 0.63839 0.0
C758 C 0.38668 0.3754 0.43836 0.0
C759 C 0.41113 0.38017 0.42212 0.0
C760 C 0.38031 0.38036 0.48433 0.0
C761 C 0.39808 0.39078 0.51456 0.0
C762 C 0.42264 0.39505 0.49867 0.0
C763 C 0.42919 0.38953 0.45301 0.0
H764 H 0.6164 0.86757 0.65278 0.0
H765 H 0.6445 0.9408 0.69112 0.0
H766 H 0.61033 0.85725 0.73393 0.0
H767 H 0.63842 0.93033 0.7725 0.0
H768 H 0.64374 0.8948 0.91544 0.0
H769 H 0.65393 0.90104 0.83428 0.0
H770 H 0.58098 0.87245 0.7959 0.0
H771 H 0.57065 0.86619 0.87729 0.0
C772 C 0.62159 0.88138 0.6785 0.0
C773 C 0.63089 0.90508 0.66538 0.0
C774 C 0.61793 0.87548 0.725 0.0
C775 C 0.62373 0.89301 0.75955 0.0
C776 C 0.63392 0.91636 0.74662 0.0
C777 C 0.63736 0.92238 0.70001 0.0
C778 C 0.62994 0.88953 0.88976 0.0
C779 C 0.60631 0.88004 0.90294 0.0
C780 C 0.63576 0.89329 0.84325 0.0
C781 C 0.61822 0.8874 0.80875 0.0
C782 C 0.59496 0.87701 0.82173 0.0
C783 C 0.58902 0.87347 0.86835 0.0
H784 H 0.14481 0.39181 0.41864 0.0
H785 H 0.07071 0.36583 0.38065 0.0
H786 H 0.15517 0.39766 0.33746 0.0
H787 H 0.08127 0.37163 0.29919 0.0
H788 H 0.11691 0.36588 0.15583 0.0
H789 H 0.11064 0.35541 0.23694 0.0
H790 H 0.13987 0.42793 0.27623 0.0
H791 H 0.14606 0.43857 0.19497 0.0
C792 C 0.13082 0.38699 0.393 0.0
C793 C 0.10686 0.37841 0.40623 0.0
C794 C 0.13675 0.39053 0.34648 0.0
C795 C 0.11899 0.38528 0.31202 0.0
C796 C 0.09539 0.3757 0.32502 0.0
C797 C 0.08933 0.37242 0.37167 0.0
C798 C 0.12234 0.37951 0.18171 0.0
C799 C 0.13196 0.40312 0.16885 0.0
C800 C 0.11856 0.37353 0.22817 0.0
C801 C 0.12462 0.39088 0.26288 0.0
C802 C 0.13517 0.4141 0.2502 0.0
C803 C 0.13867 0.42022 0.20366 0.0
H804 H 0.64529 0.57109 0.63036 0.0
H805 H 0.61708 0.64429 0.66853 0.0
H806 H 0.63934 0.58154 0.54896 0.0
H807 H 0.61116 0.6546 0.58735 0.0
H808 H 0.57155 0.64546 0.44401 0.0
H809 H 0.58188 0.63931 0.5254 0.0
H810 H 0.65486 0.61081 0.48711 0.0
H811 H 0.64466 0.61692 0.40591 0.0
C812 C 0.63816 0.5895 0.62143 0.0
C813 C 0.6316 0.60679 0.65603 0.0
C814 C 0.6348 0.59551 0.5748 0.0
C815 C 0.62462 0.61884 0.56182 0.0
C816 C 0.61876 0.63637 0.59632 0.0
C817 C 0.62233 0.63048 0.64285 0.0
C818 C 0.58992 0.63822 0.45296 0.0
C819 C 0.60722 0.63163 0.41838 0.0
C820 C 0.59587 0.63475 0.49958 0.0
C821 C 0.61913 0.62441 0.51259 0.0
C822 C 0.63668 0.61852 0.47811 0.0
C823 C 0.63086 0.62221 0.43158 0.0
H824 H 0.39431 0.06611 0.68761 0.0
H825 H 0.37092 0.14251 0.66223 0.0
H826 H 0.40383 0.077 0.76783 0.0
H827 H 0.37986 0.15315 0.74285 0.0
H828 H 0.37395 0.14592 0.90772 0.0
H829 H 0.36324 0.13767 0.82689 0.0
H830 H 0.4381 0.10954 0.80309 0.0
H831 H 0.44909 0.11836 0.88355 0.0
C832 C 0.39071 0.08507 0.6994 0.0
C833 C 0.38182 0.10345 0.66869 0.0
C834 C 0.3964 0.09134 0.74511 0.0
C835 C 0.39277 0.11595 0.76122 0.0
C836 C 0.38284 0.13406 0.73116 0.0
C837 C 0.37769 0.12795 0.68515 0.0
C838 C 0.38825 0.1384 0.885 0.0
C839 C 0.41239 0.13287 0.90187 0.0
C840 C 0.38209 0.13366 0.83887 0.0
C841 C 0.39978 0.12274 0.80909 0.0
C842 C 0.42409 0.11777 0.82559 0.0
C843 C 0.43043 0.12305 0.87143 0.0
H844 H 0.89353 0.86613 0.166 0.0
H845 H 0.86626 0.93982 0.12873 0.0
H846 H 0.899 0.85593 0.08465 0.0
H847 H 0.87177 0.92949 0.0472 0.0
H848 H 0.86639 0.89512 0.9035 0.0
H849 H 0.856 0.90077 0.98478 0.0
H850 H 0.92849 0.87109 0.0231 0.0
H851 H 0.939 0.8654 0.94172 0.0
C852 C 0.88838 0.88006 0.14048 0.0
C853 C 0.87954 0.90387 0.15395 0.0
C854 C 0.89168 0.87423 0.09386 0.0
C855 C 0.88599 0.89195 0.05957 0.0
C856 C 0.87616 0.91537 0.07286 0.0
C857 C 0.87307 0.92131 0.11957 0.0
C858 C 0.88003 0.88947 0.92921 0.0
C859 C 0.9036 0.87986 0.91605 0.0
C860 C 0.8741 0.89289 0.97577 0.0
C861 C 0.89147 0.88653 0.01029 0.0
C862 C 0.91464 0.876 0.99727 0.0
C863 C 0.92069 0.8728 0.95064 0.0
loop_
_geom_bond_atom_site_label_1
_geom_bond_atom_site_label_2
_geom_bond_distance
_geom_bond_site_symmetry_2
_ccdc_geom_bond_type
C0 O2 1.247 . S
C0 O4 1.258 . S
C1 O8 1.247 . S
C1 O9 1.258 . S
O2 C0 1.247 . S
O2 Zn3 2.028 . S
Zn3 O2 2.028 . S
Zn3 O7 2.035 . S
Zn3 O9 2.035 . S
Zn3 O10 2.028 . S
O4 C0 1.258 . S
O4 Zn5 2.035 . S
Zn5 O4 2.035 . S
Zn5 O6 2.028 . S
Zn5 O8 2.028 . S
Zn5 O11 2.035 . S
O6 Zn5 2.028 . S
O6 C12 1.247 . S
O7 Zn3 2.035 . S
O7 C12 1.258 . S
O8 C1 1.247 . S
O8 Zn5 2.028 . S
O9 C1 1.258 . S
O9 Zn3 2.035 . S
O10 Zn3 2.028 . S
O10 C13 1.247 . S
O11 Zn5 2.035 . S
O11 C13 1.258 . S
C12 O6 1.247 . S
C12 O7 1.258 . S
C13 O10 1.247 . S
C13 O11 1.258 . S
C14 O16 1.247 . S
C14 O18 1.258 . S
C15 O22 1.247 . S
C15 O23 1.258 . S
O16 C14 1.247 . S
O16 Zn17 2.028 . S
Zn17 O16 2.028 . S
Zn17 O21 2.035 . S
Zn17 O23 2.035 . S
Zn17 O24 2.028 . S
O18 C14 1.258 . S
O18 Zn19 2.035 . S
Zn19 O18 2.035 . S
Zn19 O20 2.028 . S
Zn19 O22 2.028 . S
Zn19 O25 2.035 . S
O20 Zn19 2.028 . S
O20 C26 1.247 . S
O21 Zn17 2.035 . S
O21 C26 1.258 . S
O22 C15 1.247 . S
O22 Zn19 2.028 . S
O23 C15 1.258 . S
O23 Zn17 2.035 . S
O24 Zn17 2.028 . S
O24 C27 1.247 . S
O25 Zn19 2.035 . S
O25 C27 1.258 . S
C26 O20 1.247 . S
C26 O21 1.258 . S
C27 O24 1.247 . S
C27 O25 1.258 . S
C28 O30 1.247 . S
C28 O32 1.258 . S
C29 O36 1.247 . S
C29 O37 1.258 . S
O30 C28 1.247 . S
O30 Zn31 2.028 . S
Zn31 O30 2.028 . S
Zn31 O35 2.035 . S
Zn31 O37 2.035 . S
Zn31 O38 2.028 . S
O32 C28 1.258 . S
O32 Zn33 2.035 . S
Zn33 O32 2.035 . S
Zn33 O34 2.028 . S
Zn33 O36 2.028 . S
Zn33 O39 2.035 . S
O34 Zn33 2.028 . S
O34 C40 1.247 . S
O35 Zn31 2.035 . S
O35 C40 1.258 . S
O36 C29 1.247 . S
O36 Zn33 2.028 . S
O37 C29 1.258 . S
O37 Zn31 2.035 . S
O38 Zn31 2.028 . S
O38 C41 1.247 . S
O39 Zn33 2.035 . S
O39 C41 1.258 . S
C40 O34 1.247 . S
C40 O35 1.258 . S
C41 O38 1.247 . S
C41 O39 1.258 . S
C42 O44 1.247 . S
C42 O46 1.258 . S
C43 O50 1.247 . S
C43 O51 1.258 . S
O44 C42 1.247 . S
O44 Zn45 2.028 . S
Zn45 O44 2.028 . S
Zn45 O49 2.035 . S
Zn45 O51 2.035 1_554 S
Zn45 O52 2.028 . S
O46 C42 1.258 . S
O46 Zn47 2.035 . S
Zn47 O46 2.035 . S
Zn47 O48 2.028 . S
Zn47 O50 2.028 1_554 S
Zn47 O53 2.035 . S
O48 Zn47 2.028 . S
O48 C54 1.247 . S
O49 Zn45 2.035 . S
O49 C54 1.258 . S
O50 C43 1.247 . S
O50 Zn47 2.028 1_556 S
O51 C43 1.258 . S
O51 Zn45 2.035 1_556 S
O52 Zn45 2.028 . S
O52 C55 1.247 . S
O53 Zn47 2.035 . S
O53 C55 1.258 . S
C54 O48 1.247 . S
C54 O49 1.258 . S
C55 O52 1.247 . S
C55 O53 1.258 . S
C56 O58 1.247 . S
C56 O60 1.258 . S
C57 O64 1.247 . S
C57 O65 1.258 . S
O58 C56 1.247 . S
O58 Zn59 2.028 . S
Zn59 O58 2.028 . S
Zn59 O63 2.035 . S
Zn59 O65 2.035 . S
Zn59 O66 2.028 1_554 S
O60 C56 1.258 . S
O60 Zn61 2.035 . S
Zn61 O60 2.035 . S
Zn61 O62 2.028 . S
Zn61 O64 2.028 . S
Zn61 O67 2.035 1_554 S
O62 Zn61 2.028 . S
O62 C68 1.247 . S
O63 Zn59 2.035 . S
O63 C68 1.258 . S
O64 C57 1.247 . S
O64 Zn61 2.028 . S
O65 C57 1.258 . S
O65 Zn59 2.035 . S
O66 Zn59 2.028 1_556 S
O66 C69 1.247 . S
O67 Zn61 2.035 1_556 S
O67 C69 1.258 . S
C68 O62 1.247 . S
C68 O63 1.258 . S
C69 O66 1.247 . S
C69 O67 1.258 . S
C70 O72 1.247 . S
C70 O74 1.258 . S
C71 O78 1.247 . S
C71 O79 1.258 . S
O72 C70 1.247 . S
O72 Zn73 2.028 . S
Zn73 O72 2.028 . S
Zn73 O77 2.035 . S
Zn73 O79 2.035 . S
Zn73 O80 2.028 . S
O74 C70 1.258 . S
O74 Zn75 2.035 . S
Zn75 O74 2.035 . S
Zn75 O76 2.028 . S
Zn75 O78 2.028 . S
Zn75 O81 2.035 . S
O76 Zn75 2.028 . S
O76 C82 1.247 . S
O77 Zn73 2.035 . S
O77 C82 1.258 . S
O78 C71 1.247 . S
O78 Zn75 2.028 . S
O79 C71 1.258 . S
O79 Zn73 2.035 . S
O80 Zn73 2.028 . S
O80 C83 1.247 . S
O81 Zn75 2.035 . S
O81 C83 1.258 . S
C82 O76 1.247 . S
C82 O77 1.258 . S
C83 O80 1.247 . S
C83 O81 1.258 . S
C84 O86 1.247 . S
C84 O88 1.258 . S
C85 O92 1.247 . S
C85 O93 1.258 . S
O86 C84 1.247 . S
O86 Zn87 2.028 . S
Zn87 O86 2.028 . S
Zn87 O91 2.035 . S
Zn87 O93 2.035 . S
Zn87 O94 2.028 . S
O88 C84 1.258 . S
O88 Zn89 2.035 . S
Zn89 O88 2.035 . S
Zn89 O90 2.028 . S
Zn89 O92 2.028 . S
Zn89 O95 2.035 . S
O90 Zn89 2.028 . S
O90 C96 1.247 . S
O91 Zn87 2.035 . S
O91 C96 1.258 . S
O92 C85 1.247 . S
O92 Zn89 2.028 . S
O93 C85 1.258 . S
O93 Zn87 2.035 . S
O94 Zn87 2.028 . S
O94 C97 1.247 . S
O95 Zn89 2.035 . S
O95 C97 1.258 . S
C96 O90 1.247 . S
C96 O91 1.258 . S
C97 O94 1.247 . S
C97 O95 1.258 . S
C98 O100 1.247 . S
C98 O102 1.258 . S
C99 O106 1.247 . S
C99 O107 1.258 . S
O100 C98 1.247 . S
O100 Zn101 2.028 . S
Zn101 O100 2.028 . S
Zn101 O105 2.035 . S
Zn101 O107 2.035 . S
Zn101 O108 2.028 . S
O102 C98 1.258 . S
O102 Zn103 2.035 . S
Zn103 O102 2.035 . S
Zn103 O104 2.028 . S
Zn103 O106 2.028 . S
Zn103 O109 2.035 . S
O104 Zn103 2.028 . S
O104 C110 1.247 . S
O105 Zn101 2.035 . S
O105 C110 1.258 . S
O106 C99 1.247 . S
O106 Zn103 2.028 . S
O107 C99 1.258 . S
O107 Zn101 2.035 . S
O108 Zn101 2.028 . S
O108 C111 1.247 . S
O109 Zn103 2.035 . S
O109 C111 1.258 . S
C110 O104 1.247 . S
C110 O105 1.258 . S
C111 O108 1.247 . S
C111 O109 1.258 . S
C112 O114 1.247 . S
C112 O116 1.258 . S
C113 O120 1.247 . S
C113 O121 1.258 . S
O114 C112 1.247 . S
O114 Zn115 2.028 . S
Zn115 O114 2.028 . S
Zn115 O119 2.035 . S
Zn115 O121 2.035 . S
Zn115 O122 2.028 . S
O116 C112 1.258 . S
O116 Zn117 2.035 . S
Zn117 O116 2.035 . S
Zn117 O118 2.028 . S
Zn117 O120 2.028 . S
Zn117 O123 2.035 . S
O118 Zn117 2.028 . S
O118 C124 1.247 . S
O119 Zn115 2.035 . S
O119 C124 1.258 . S
O120 C113 1.247 . S
O120 Zn117 2.028 . S
O121 C113 1.258 . S
O121 Zn115 2.035 . S
O122 Zn115 2.028 . S
O122 C125 1.247 . S
O123 Zn117 2.035 . S
O123 C125 1.258 . S
C124 O118 1.247 . S
C124 O119 1.258 . S
C125 O122 1.247 . S
C125 O123 1.258 . S
C126 O128 1.247 . S
C126 O130 1.258 . S
C127 O134 1.247 . S
C127 O135 1.258 . S
O128 C126 1.247 . S
O128 Zn129 2.028 . S
Zn129 O128 2.028 . S
Zn129 O133 2.035 . S
Zn129 O135 2.035 1_554 S
Zn129 O136 2.028 . S
O130 C126 1.258 . S
O130 Zn131 2.035 . S
Zn131 O130 2.035 . S
Zn131 O132 2.028 . S
Zn131 O134 2.028 1_554 S
Zn131 O137 2.035 . S
O132 Zn131 2.028 . S
O132 C138 1.247 . S
O133 Zn129 2.035 . S
O133 C138 1.258 . S
O134 C127 1.247 . S
O134 Zn131 2.028 1_556 S
O135 C127 1.258 . S
O135 Zn129 2.035 1_556 S
O136 Zn129 2.028 . S
O136 C139 1.247 . S
O137 Zn131 2.035 . S
O137 C139 1.258 . S
C138 O132 1.247 . S
C138 O133 1.258 . S
C139 O136 1.247 . S
C139 O137 1.258 . S
C140 O142 1.247 . S
C140 O144 1.258 . S
C141 O148 1.247 . S
C141 O149 1.258 . S
O142 C140 1.247 . S
O142 Zn143 2.028 . S
Zn143 O142 2.028 . S
Zn143 O147 2.035 . S
Zn143 O149 2.035 . S
Zn143 O150 2.028 . S
O144 C140 1.258 . S
O144 Zn145 2.035 . S
Zn145 O144 2.035 . S
Zn145 O146 2.028 . S
Zn145 O148 2.028 . S
Zn145 O151 2.035 . S
O146 Zn145 2.028 . S
O146 C152 1.247 . S
O147 Zn143 2.035 . S
O147 C152 1.258 . S
O148 C141 1.247 . S
O148 Zn145 2.028 . S
O149 C141 1.258 . S
O149 Zn143 2.035 . S
O150 Zn143 2.028 . S
O150 C153 1.247 . S
O151 Zn145 2.035 . S
O151 C153 1.258 . S
C152 O146 1.247 . S
C152 O147 1.258 . S
C153 O150 1.247 . S
C153 O151 1.258 . S
C154 O156 1.247 . S
C154 O158 1.258 . S
C155 O162 1.247 . S
C155 O163 1.258 . S
O156 C154 1.247 . S
O156 Zn157 2.028 . S
Zn157 O156 2.028 . S
Zn157 O161 2.035 . S
Zn157 O163 2.035 . S
Zn157 O164 2.028 . S
O158 C154 1.258 . S
O158 Zn159 2.035 . S
Zn159 O158 2.035 . S
Zn159 O160 2.028 . S
Zn159 O162 2.028 . S
Zn159 O165 2.035 . S
O160 Zn159 2.028 . S
O160 C166 1.247 . S
O161 Zn157 2.035 . S
O161 C166 1.258 . S
O162 C155 1.247 . S
O162 Zn159 2.028 . S
O163 C155 1.258 . S
O163 Zn157 2.035 . S
O164 Zn157 2.028 . S
O164 C167 1.247 . S
O165 Zn159 2.035 . S
O165 C167 1.258 . S
C166 O160 1.247 . S
C166 O161 1.258 . S
C167 O164 1.247 . S
C167 O165 1.258 . S
C168 O170 1.247 . S
C168 O172 1.258 . S
C169 O176 1.247 . S
C169 O177 1.258 . S
O170 C168 1.247 . S
O170 Zn171 2.028 . S
Zn171 O170 2.028 . S
Zn171 O175 2.035 . S
Zn171 O177 2.035 . S
Zn171 O178 2.028 . S
O172 C168 1.258 . S
O172 Zn173 2.035 . S
Zn173 O172 2.035 . S
Zn173 O174 2.028 . S
Zn173 O176 2.028 . S
Zn173 O179 2.035 . S
O174 Zn173 2.028 . S
O174 C180 1.247 . S
O175 Zn171 2.035 . S
O175 C180 1.258 . S
O176 C169 1.247 . S
O176 Zn173 2.028 . S
O177 C169 1.258 . S
O177 Zn171 2.035 . S
O178 Zn171 2.028 . S
O178 C181 1.247 . S
O179 Zn173 2.035 . S
O179 C181 1.258 . S
C180 O174 1.247 . S
C180 O175 1.258 . S
C181 O178 1.247 . S
C181 O179 1.258 . S
C182 O184 1.247 . S
C182 O186 1.258 . S
C183 O190 1.247 . S
C183 O191 1.258 . S
O184 C182 1.247 . S
O184 Zn185 2.028 . S
Zn185 O184 2.028 . S
Zn185 O189 2.035 . S
Zn185 O191 2.035 . S
Zn185 O192 2.028 . S
O186 C182 1.258 . S
O186 Zn187 2.035 . S
Zn187 O186 2.035 . S
Zn187 O188 2.028 . S
Zn187 O190 2.028 . S
Zn187 O193 2.035 . S
O188 Zn187 2.028 . S
O188 C194 1.247 . S
O189 Zn185 2.035 . S
O189 C194 1.258 . S
O190 C183 1.247 . S
O190 Zn187 2.028 . S
O191 C183 1.258 . S
O191 Zn185 2.035 . S
O192 Zn185 2.028 . S
O192 C195 1.247 . S
O193 Zn187 2.035 . S
O193 C195 1.258 . S
C194 O188 1.247 . S
C194 O189 1.258 . S
C195 O192 1.247 . S
C195 O193 1.258 . S
C196 O198 1.247 . S
C196 O200 1.258 . S
C197 O204 1.247 . S
C197 O205 1.258 . S
O198 C196 1.247 . S
O198 Zn199 2.028 . S
Zn199 O198 2.028 . S
Zn199 O203 2.035 1_554 S
Zn199 O205 2.035 . S
Zn199 O206 2.028 . S
O200 C196 1.258 . S
O200 Zn201 2.035 . S
Zn201 O200 2.035 . S
Zn201 O202 2.028 1_554 S
Zn201 O204 2.028 . S
Zn201 O207 2.035 . S
O202 Zn201 2.028 1_556 S
O202 C208 1.247 . S
O203 Zn199 2.035 1_556 S
O203 C208 1.258 . S
O204 C197 1.247 . S
O204 Zn201 2.028 . S
O205 C197 1.258 . S
O205 Zn199 2.035 . S
O206 Zn199 2.028 . S
O206 C209 1.247 . S
O207 Zn201 2.035 . S
O207 C209 1.258 . S
C208 O202 1.247 . S
C208 O203 1.258 . S
C209 O206 1.247 . S
C209 O207 1.258 . S
C210 O212 1.247 . S
C210 O214 1.258 . S
C211 O218 1.247 . S
C211 O219 1.258 . S
O212 C210 1.247 . S
O212 Zn213 2.028 . S
Zn213 O212 2.028 . S
Zn213 O217 2.035 . S
Zn213 O219 2.035 . S
Zn213 O220 2.028 . S
O214 C210 1.258 . S
O214 Zn215 2.035 . S
Zn215 O214 2.035 . S
Zn215 O216 2.028 . S
Zn215 O218 2.028 . S
Zn215 O221 2.035 . S
O216 Zn215 2.028 . S
O216 C222 1.247 . S
O217 Zn213 2.035 . S
O217 C222 1.258 . S
O218 C211 1.247 . S
O218 Zn215 2.028 . S
O219 C211 1.258 . S
O219 Zn213 2.035 . S
O220 Zn213 2.028 . S
O220 C223 1.247 . S
O221 Zn215 2.035 . S
O221 C223 1.258 . S
C222 O216 1.247 . S
C222 O217 1.258 . S
C223 O220 1.247 . S
C223 O221 1.258 . S
H224 C232 0.950 . S
H225 C237 0.950 . S
H226 C234 0.950 . S
H227 C236 0.950 . S
H228 C238 0.950 . S
H229 C240 0.950 . S
H230 C242 0.950 . S
H231 C243 0.950 . S
C232 H224 0.950 . S
C232 C233 1.386 . S
C232 C234 1.391 . S
C233 C232 1.386 . S
C233 C237 1.393 . S
C234 H226 0.950 . S
C234 C232 1.391 . S
C234 C235 1.400 . S
C235 C234 1.400 . S
C235 C236 1.398 . S
C235 C241 1.491 . S
C236 H227 0.950 . S
C236 C235 1.398 . S
C236 C237 1.391 . S
C237 H225 0.950 . S
C237 C233 1.393 . S
C237 C236 1.391 . S
C238 H228 0.950 . S
C238 C239 1.386 . S
C238 C240 1.391 . S
C239 C238 1.386 . S
C239 C243 1.393 . S
C240 H229 0.950 . S
C240 C238 1.391 . S
C240 C241 1.400 . S
C241 C235 1.491 . S
C241 C240 1.400 . S
C241 C242 1.398 . S
C242 H230 0.950 . S
C242 C241 1.398 . S
C242 C243 1.391 . S
C243 H231 0.950 . S
C243 C239 1.393 . S
C243 C242 1.391 . S
H244 C252 0.950 . S
H245 C257 0.950 . S
H246 C254 0.950 . S
H247 C256 0.950 . S
H248 C258 0.950 . S
H249 C260 0.950 . S
H250 C262 0.950 . S
H251 C263 0.950 . S
C252 H244 0.950 . S
C252 C253 1.386 . S
C252 C254 1.391 . S
C253 C252 1.386 . S
C253 C257 1.393 . S
C254 H246 0.950 . S
C254 C252 1.391 . S
C254 C255 1.400 . S
C255 C254 1.400 . S
C255 C256 1.398 . S
C255 C261 1.491 . S
C256 H247 0.950 . S
C256 C255 1.398 . S
C256 C257 1.391 . S
C257 H245 0.950 . S
C257 C253 1.393 . S
C257 C256 1.391 . S
C258 H248 0.950 . S
C258 C259 1.386 . S
C258 C260 1.391 . S
C259 C258 1.386 . S
C259 C263 1.393 . S
C260 H249 0.950 . S
C260 C258 1.391 . S
C260 C261 1.400 . S
C261 C255 1.491 . S
C261 C260 1.400 . S
C261 C262 1.398 . S
C262 H250 0.950 . S
C262 C261 1.398 . S
C262 C263 1.391 . S
C263 H251 0.950 . S
C263 C259 1.393 . S
C263 C262 1.391 . S
H264 C272 0.950 . S
H265 C277 0.950 . S
H266 C274 0.950 . S
H267 C276 0.950 . S
H268 C278 0.950 . S
H269 C280 0.950 . S
H270 C282 0.950 . S
H271 C283 0.950 1_554 S
C272 H264 0.950 . S
C272 C273 1.386 . S
C272 C274 1.391 . S
C273 C272 1.386 . S
C273 C277 1.393 . S
C274 H266 0.950 . S
C274 C272 1.391 . S
C274 C275 1.400 . S
C275 C274 1.400 . S
C275 C276 1.398 . S
C275 C281 1.491 . S
C276 H267 0.950 . S
C276 C275 1.398 . S
C276 C277 1.391 . S
C277 H265 0.950 . S
C277 C273 1.393 . S
C277 C276 1.391 . S
C278 H268 0.950 . S
C278 C279 1.386 . S
C278 C280 1.391 . S
C279 C278 1.386 . S
C279 C283 1.393 . S
C280 H269 0.950 . S
C280 C278 1.391 . S
C280 C281 1.400 . S
C281 C275 1.491 . S
C281 C280 1.400 . S
C281 C282 1.398 . S
C282 H270 0.950 . S
C282 C281 1.398 . S
C282 C283 1.391 . S
C283 H271 0.950 1_556 S
C283 C279 1.393 . S
C283 C282 1.391 . S
H284 C292 0.950 . S
H285 C297 0.950 . S
H286 C294 0.950 . S
H287 C296 0.950 . S
H288 C298 0.950 . S
H289 C300 0.950 . S
H290 C302 0.950 . S
H291 C303 0.950 . S
C292 H284 0.950 . S
C292 C293 1.386 . S
C292 C294 1.391 . S
C293 C292 1.386 . S
C293 C297 1.393 . S
C294 H286 0.950 . S
C294 C292 1.391 . S
C294 C295 1.400 . S
C295 C294 1.400 . S
C295 C296 1.398 . S
C295 C301 1.491 . S
C296 H287 0.950 . S
C296 C295 1.398 . S
C296 C297 1.391 . S
C297 H285 0.950 . S
C297 C293 1.393 . S
C297 C296 1.391 . S
C298 H288 0.950 . S
C298 C299 1.386 . S
C298 C300 1.391 . S
C299 C298 1.386 . S
C299 C303 1.393 . S
C300 H289 0.950 . S
C300 C298 1.391 . S
C300 C301 1.400 . S
C301 C295 1.491 . S
C301 C300 1.400 . S
C301 C302 1.398 . S
C302 H290 0.950 . S
C302 C301 1.398 . S
C302 C303 1.391 . S
C303 H291 0.950 . S
C303 C299 1.393 . S
C303 C302 1.391 . S
H304 C312 0.950 . S
H305 C317 0.950 . S
H306 C314 0.950 . S
H307 C316 0.950 . S
H308 C318 0.950 . S
H309 C320 0.950 . S
H310 C322 0.950 . S
H311 C323 0.950 . S
C312 H304 0.950 . S
C312 C313 1.386 . S
C312 C314 1.391 . S
C313 C312 1.386 . S
C313 C317 1.393 . S
C314 H306 0.950 . S
C314 C312 1.391 . S
C314 C315 1.400 . S
C315 C314 1.400 . S
C315 C316 1.398 . S
C315 C321 1.491 . S
C316 H307 0.950 . S
C316 C315 1.398 . S
C316 C317 1.391 . S
C317 H305 0.950 . S
C317 C313 1.393 . S
C317 C316 1.391 . S
C318 H308 0.950 . S
C318 C319 1.386 . S
C318 C320 1.391 . S
C319 C318 1.386 . S
C319 C323 1.393 . S
C320 H309 0.950 . S
C320 C318 1.391 . S
C320 C321 1.400 . S
C321 C315 1.491 . S
C321 C320 1.400 . S
C321 C322 1.398 . S
C322 H310 0.950 . S
C322 C321 1.398 . S
C322 C323 1.391 . S
C323 H311 0.950 . S
C323 C319 1.393 . S
C323 C322 1.391 . S
H324 C332 0.950 . S
H325 C337 0.950 . S
H326 C334 0.950 . S
H327 C336 0.950 . S
H328 C338 0.950 . S
H329 C340 0.950 . S
H330 C342 0.950 . S
H331 C343 0.950 . S
C332 H324 0.950 . S
C332 C333 1.386 . S
C332 C334 1.391 . S
C333 C332 1.386 . S
C333 C337 1.393 . S
C334 H326 0.950 . S
C334 C332 1.391 . S
C334 C335 1.400 . S
C335 C334 1.400 . S
C335 C336 1.398 . S
C335 C341 1.491 . S
C336 H327 0.950 . S
C336 C335 1.398 . S
C336 C337 1.391 . S
C337 H325 0.950 . S
C337 C333 1.393 . S
C337 C336 1.391 . S
C338 H328 0.950 . S
C338 C339 1.386 . S
C338 C340 1.391 . S
C339 C338 1.386 . S
C339 C343 1.393 . S
C340 H329 0.950 . S
C340 C338 1.391 . S
C340 C341 1.400 . S
C341 C335 1.491 . S
C341 C340 1.400 . S
C341 C342 1.398 . S
C342 H330 0.950 . S
C342 C341 1.398 . S
C342 C343 1.391 . S
C343 H331 0.950 . S
C343 C339 1.393 . S
C343 C342 1.391 . S
H344 C352 0.950 . S
H345 C357 0.950 . S
H346 C354 0.950 . S
H347 C356 0.950 . S
H348 C358 0.950 . S
H349 C360 0.950 . S
H350 C362 0.950 . S
H351 C363 0.950 . S
C352 H344 0.950 . S
C352 C353 1.386 . S
C352 C354 1.391 . S
C353 C352 1.386 . S
C353 C357 1.393 . S
C354 H346 0.950 . S
C354 C352 1.391 . S
C354 C355 1.400 . S
C355 C354 1.400 . S
C355 C356 1.398 . S
C355 C361 1.491 . S
C356 H347 0.950 . S
C356 C355 1.398 . S
C356 C357 1.391 . S
C357 H345 0.950 . S
C357 C353 1.393 . S
C357 C356 1.391 . S
C358 H348 0.950 . S
C358 C359 1.386 . S
C358 C360 1.391 . S
C359 C358 1.386 . S
C359 C363 1.393 . S
C360 H349 0.950 . S
C360 C358 1.391 . S
C360 C361 1.400 . S
C361 C355 1.491 . S
C361 C360 1.400 . S
C361 C362 1.398 . S
C362 H350 0.950 . S
C362 C361 1.398 . S
C362 C363 1.391 . S
C363 H351 0.950 . S
C363 C359 1.393 . S
C363 C362 1.391 . S
H364 C372 0.950 . S
H365 C377 0.950 . S
H366 C374 0.950 . S
H367 C376 0.950 . S
H368 C378 0.950 . S
H369 C380 0.950 . S
H370 C382 0.950 . S
H371 C383 0.950 . S
C372 H364 0.950 . S
C372 C373 1.386 . S
C372 C374 1.391 . S
C373 C372 1.386 . S
C373 C377 1.393 . S
C374 H366 0.950 . S
C374 C372 1.391 . S
C374 C375 1.400 . S
C375 C374 1.400 . S
C375 C376 1.398 . S
C375 C381 1.491 . S
C376 H367 0.950 . S
C376 C375 1.398 . S
C376 C377 1.391 . S
C377 H365 0.950 . S
C377 C373 1.393 . S
C377 C376 1.391 . S
C378 H368 0.950 . S
C378 C379 1.386 . S
C378 C380 1.391 . S
C379 C378 1.386 . S
C379 C383 1.393 . S
C380 H369 0.950 . S
C380 C378 1.391 . S
C380 C381 1.400 . S
C381 C375 1.491 . S
C381 C380 1.400 . S
C381 C382 1.398 . S
C382 H370 0.950 . S
C382 C381 1.398 . S
C382 C383 1.391 . S
C383 H371 0.950 . S
C383 C379 1.393 . S
C383 C382 1.391 . S
H384 C392 0.950 . S
H385 C397 0.950 . S
H386 C394 0.950 1_565 S
H387 C396 0.950 1_655 S
H388 C398 0.950 . S
H389 C400 0.950 1_545 S
H390 C402 0.950 1_455 S
H391 C403 0.950 . S
C392 H384 0.950 . S
C392 C393 1.386 . S
C392 C394 1.391 . S
C393 C392 1.386 . S
C393 C397 1.393 . S
C394 H386 0.950 1_545 S
C394 C392 1.391 . S
C394 C395 1.400 . S
C395 C394 1.400 . S
C395 C396 1.398 . S
C395 C401 1.491 1_445 S
C396 H387 0.950 1_455 S
C396 C395 1.398 . S
C396 C397 1.391 . S
C397 H385 0.950 . S
C397 C393 1.393 . S
C397 C396 1.391 . S
C398 H388 0.950 . S
C398 C399 1.386 . S
C398 C400 1.391 . S
C399 C398 1.386 . S
C399 C403 1.393 . S
C400 H389 0.950 1_565 S
C400 C398 1.391 . S
C400 C401 1.400 . S
C401 C395 1.491 1_665 S
C401 C400 1.400 . S
C401 C402 1.398 . S
C402 H390 0.950 1_655 S
C402 C401 1.398 . S
C402 C403 1.391 . S
C403 H391 0.950 . S
C403 C399 1.393 . S
C403 C402 1.391 . S
H404 C412 0.950 . S
H405 C417 0.950 . S
H406 C414 0.950 . S
H407 C416 0.950 1_455 S
H408 C418 0.950 . S
H409 C420 0.950 . S
H410 C422 0.950 1_655 S
H411 C423 0.950 . S
C412 H404 0.950 . S
C412 C413 1.386 . S
C412 C414 1.391 . S
C413 C412 1.386 . S
C413 C417 1.393 . S
C414 H406 0.950 . S
C414 C412 1.391 . S
C414 C415 1.400 . S
C415 C414 1.400 . S
C415 C416 1.398 . S
C415 C421 1.491 1_655 S
C416 H407 0.950 1_655 S
C416 C415 1.398 . S
C416 C417 1.391 . S
C417 H405 0.950 . S
C417 C413 1.393 . S
C417 C416 1.391 . S
C418 H408 0.950 . S
C418 C419 1.386 . S
C418 C420 1.391 . S
C419 C418 1.386 . S
C419 C423 1.393 . S
C420 H409 0.950 . S
C420 C418 1.391 . S
C420 C421 1.400 . S
C421 C415 1.491 1_455 S
C421 C420 1.400 . S
C421 C422 1.398 . S
C422 H410 0.950 1_455 S
C422 C421 1.398 . S
C422 C423 1.391 . S
C423 H411 0.950 . S
C423 C419 1.393 . S
C423 C422 1.391 . S
H424 C432 0.950 . S
H425 C437 0.950 . S
H426 C434 0.950 . S
H427 C436 0.950 . S
H428 C438 0.950 . S
H429 C440 0.950 . S
H430 C442 0.950 . S
H431 C443 0.950 . S
C432 H424 0.950 . S
C432 C433 1.386 . S
C432 C434 1.391 . S
C433 C432 1.386 . S
C433 C437 1.393 . S
C434 H426 0.950 . S
C434 C432 1.391 . S
C434 C435 1.400 . S
C435 C434 1.400 . S
C435 C436 1.398 . S
C435 C441 1.491 . S
C436 H427 0.950 . S
C436 C435 1.398 . S
C436 C437 1.391 . S
C437 H425 0.950 . S
C437 C433 1.393 . S
C437 C436 1.391 . S
C438 H428 0.950 . S
C438 C439 1.386 . S
C438 C440 1.391 . S
C439 C438 1.386 . S
C439 C443 1.393 . S
C440 H429 0.950 . S
C440 C438 1.391 . S
C440 C441 1.400 . S
C441 C435 1.491 . S
C441 C440 1.400 . S
C441 C442 1.398 . S
C442 H430 0.950 . S
C442 C441 1.398 . S
C442 C443 1.391 . S
C443 H431 0.950 . S
C443 C439 1.393 . S
C443 C442 1.391 . S
H444 C452 0.950 . S
H445 C457 0.950 . S
H446 C454 0.950 1_545 S
H447 C456 0.950 . S
H448 C458 0.950 1_556 S
H449 C460 0.937 1_566 S
H450 C462 0.950 . S
H451 C463 0.950 . S
C452 H444 0.950 . S
C452 C453 1.386 . S
C452 C454 1.391 . S
C453 C452 1.386 . S
C453 C457 1.393 1_554 S
C454 H446 0.950 1_565 S
C454 C452 1.391 . S
C454 C455 1.400 . S
C455 C454 1.400 . S
C455 C456 1.398 1_554 S
C455 C461 1.491 1_565 S
C456 H447 0.950 . S
C456 C455 1.398 1_556 S
C456 C457 1.391 . S
C457 H445 0.950 . S
C457 C453 1.393 1_556 S
C457 C456 1.391 . S
C458 H448 0.950 1_554 S
C458 C459 1.386 . S
C458 C460 1.392 . S
C459 C458 1.386 . S
C459 C463 1.393 . S
C460 H449 0.937 1_544 S
C460 C458 1.392 . S
C460 C461 1.413 . S
C461 C455 1.491 1_545 S
C461 C460 1.413 . S
C461 C462 1.398 . S
C462 H450 0.950 . S
C462 C461 1.398 . S
C462 C463 1.391 . S
C463 H451 0.950 . S
C463 C459 1.393 . S
C463 C462 1.391 . S
H464 C472 0.950 . S
H465 C477 0.950 . S
H466 C474 0.950 . S
H467 C476 0.950 . S
H468 C478 0.950 . S
H469 C480 0.950 . S
H470 C482 0.950 . S
H471 C483 0.950 . S
C472 H464 0.950 . S
C472 C473 1.386 1_556 S
C472 C474 1.391 . S
C473 C472 1.386 1_554 S
C473 C477 1.393 . S
C474 H466 0.950 . S
C474 C472 1.391 . S
C474 C475 1.400 1_556 S
C475 C474 1.400 1_554 S
C475 C476 1.398 . S
C475 C481 1.491 1_455 S
C476 H467 0.950 . S
C476 C475 1.398 . S
C476 C477 1.391 . S
C477 H465 0.950 . S
C477 C473 1.393 . S
C477 C476 1.391 . S
C478 H468 0.950 . S
C478 C479 1.386 . S
C478 C480 1.391 . S
C479 C478 1.386 . S
C479 C483 1.393 1_554 S
C480 H469 0.950 . S
C480 C478 1.391 . S
C480 C481 1.400 . S
C481 C475 1.491 1_655 S
C481 C480 1.400 . S
C481 C482 1.398 1_554 S
C482 H470 0.950 . S
C482 C481 1.398 1_556 S
C482 C483 1.391 . S
C483 H471 0.950 . S
C483 C479 1.393 1_556 S
C483 C482 1.391 . S
H484 C492 0.950 . S
H485 C497 0.950 . S
H486 C494 0.950 . S
H487 C496 0.950 . S
H488 C498 0.950 . S
H489 C500 0.950 . S
H490 C502 0.950 . S
H491 C503 0.950 . S
C492 H484 0.950 . S
C492 C493 1.386 . S
C492 C494 1.391 . S
C493 C492 1.386 . S
C493 C497 1.393 . S
C494 H486 0.950 . S
C494 C492 1.391 . S
C494 C495 1.400 . S
C495 C494 1.400 . S
C495 C496 1.398 . S
C495 C501 1.491 . S
C496 H487 0.950 . S
C496 C495 1.398 . S
C496 C497 1.391 . S
C497 H485 0.950 . S
C497 C493 1.393 . S
C497 C496 1.391 . S
C498 H488 0.950 . S
C498 C499 1.386 . S
C498 C500 1.391 . S
C499 C498 1.386 . S
C499 C503 1.393 . S
C500 H489 0.950 . S
C500 C498 1.391 . S
C500 C501 1.400 . S
C501 C495 1.491 . S
C501 C500 1.400 . S
C501 C502 1.398 . S
C502 H490 0.950 . S
C502 C501 1.398 . S
C502 C503 1.391 . S
C503 H491 0.950 . S
C503 C499 1.393 . S
C503 C502 1.391 . S
H504 C512 0.950 . S
H505 C517 0.950 . S
H506 C514 0.950 1_565 S
H507 C516 0.950 . S
H508 C518 0.950 . S
H509 C520 0.950 1_545 S
H510 C522 0.950 . S
H511 C523 0.950 . S
C512 H504 0.950 . S
C512 C513 1.386 . S
C512 C514 1.391 . S
C513 C512 1.386 . S
C513 C517 1.393 . S
C514 H506 0.950 1_545 S
C514 C512 1.391 . S
C514 C515 1.400 . S
C515 C514 1.400 . S
C515 C516 1.398 . S
C515 C521 1.491 1_545 S
C516 H507 0.950 . S
C516 C515 1.398 . S
C516 C517 1.391 . S
C517 H505 0.950 . S
C517 C513 1.393 . S
C517 C516 1.391 . S
C518 H508 0.950 . S
C518 C519 1.386 . S
C518 C520 1.391 . S
C519 C518 1.386 . S
C519 C523 1.393 . S
C520 H509 0.950 1_565 S
C520 C518 1.391 . S
C520 C521 1.400 . S
C521 C515 1.491 1_565 S
C521 C520 1.400 . S
C521 C522 1.398 . S
C522 H510 0.950 . S
C522 C521 1.398 . S
C522 C523 1.391 . S
C523 H511 0.950 . S
C523 C519 1.393 . S
C523 C522 1.391 . S
H524 C532 0.950 . S
H525 C537 0.950 . S
H526 C534 0.950 . S
H527 C536 0.950 . S
H528 C538 0.950 . S
H529 C540 0.950 . S
H530 C542 0.950 . S
H531 C543 0.950 . S
C532 H524 0.950 . S
C532 C533 1.386 . S
C532 C534 1.391 . S
C533 C532 1.386 . S
C533 C537 1.393 . S
C534 H526 0.950 . S
C534 C532 1.391 . S
C534 C535 1.400 . S
C535 C534 1.400 . S
C535 C536 1.398 . S
C535 C541 1.491 1_445 S
C536 H527 0.950 . S
C536 C535 1.398 . S
C536 C537 1.391 . S
C537 H525 0.950 . S
C537 C533 1.393 . S
C537 C536 1.391 . S
C538 H528 0.950 . S
C538 C539 1.386 . S
C538 C540 1.391 . S
C539 C538 1.386 . S
C539 C543 1.393 . S
C540 H529 0.950 . S
C540 C538 1.391 . S
C540 C541 1.400 . S
C541 C535 1.491 1_665 S
C541 C540 1.400 . S
C541 C542 1.398 . S
C542 H530 0.950 . S
C542 C541 1.398 . S
C542 C543 1.391 . S
C543 H531 0.950 . S
C543 C539 1.393 . S
C543 C542 1.391 . S
H544 C552 0.950 . S
H545 C557 0.950 . S
H546 C554 0.950 . S
H547 C556 0.950 . S
H548 C558 0.950 . S
H549 C560 0.950 . S
H550 C562 0.950 . S
H551 C563 0.950 . S
C552 H544 0.950 . S
C552 C553 1.386 . S
C552 C554 1.391 . S
C553 C552 1.386 . S
C553 C557 1.393 . S
C554 H546 0.950 . S
C554 C552 1.391 . S
C554 C555 1.400 . S
C555 C554 1.400 . S
C555 C556 1.398 . S
C555 C561 1.491 . S
C556 H547 0.950 . S
C556 C555 1.398 . S
C556 C557 1.391 . S
C557 H545 0.950 . S
C557 C553 1.393 . S
C557 C556 1.391 . S
C558 H548 0.950 . S
C558 C559 1.386 . S
C558 C560 1.391 . S
C559 C558 1.386 . S
C559 C563 1.393 . S
C560 H549 0.950 . S
C560 C558 1.391 . S
C560 C561 1.400 . S
C561 C555 1.491 . S
C561 C560 1.400 . S
C561 C562 1.398 . S
C562 H550 0.950 . S
C562 C561 1.398 . S
C562 C563 1.391 . S
C563 H551 0.950 . S
C563 C559 1.393 . S
C563 C562 1.391 . S
H564 C572 0.950 . S
H565 C577 0.950 . S
H566 C574 0.950 . S
H567 C576 0.950 . S
H568 C578 0.950 . S
H569 C580 0.950 . S
H570 C582 0.950 . S
H571 C583 0.950 . S
C572 H564 0.950 . S
C572 C573 1.386 . S
C572 C574 1.391 . S
C573 C572 1.386 . S
C573 C577 1.393 . S
C574 H566 0.950 . S
C574 C572 1.391 . S
C574 C575 1.400 . S
C575 C574 1.400 . S
C575 C576 1.398 . S
C575 C581 1.491 . S
C576 H567 0.950 . S
C576 C575 1.398 . S
C576 C577 1.391 . S
C577 H565 0.950 . S
C577 C573 1.393 . S
C577 C576 1.391 . S
C578 H568 0.950 . S
C578 C579 1.386 . S
C578 C580 1.391 . S
C579 C578 1.386 . S
C579 C583 1.393 . S
C580 H569 0.950 . S
C580 C578 1.391 . S
C580 C581 1.400 . S
C581 C575 1.491 . S
C581 C580 1.400 . S
C581 C582 1.398 . S
C582 H570 0.950 . S
C582 C581 1.398 . S
C582 C583 1.391 . S
C583 H571 0.950 . S
C583 C579 1.393 . S
C583 C582 1.391 . S
H584 C592 0.950 . S
H585 C597 0.950 . S
H586 C594 0.950 . S
H587 C596 0.950 . S
H588 C598 0.950 . S
H589 C600 0.950 . S
H590 C602 0.950 1_554 S
H591 C603 0.950 . S
C592 H584 0.950 . S
C592 C593 1.386 . S
C592 C594 1.391 . S
C593 C592 1.386 . S
C593 C597 1.393 . S
C594 H586 0.950 . S
C594 C592 1.391 . S
C594 C595 1.400 . S
C595 C594 1.400 . S
C595 C596 1.398 . S
C595 C601 1.491 . S
C596 H587 0.950 . S
C596 C595 1.398 . S
C596 C597 1.391 . S
C597 H585 0.950 . S
C597 C593 1.393 . S
C597 C596 1.391 . S
C598 H588 0.950 . S
C598 C599 1.386 . S
C598 C600 1.391 . S
C599 C598 1.386 . S
C599 C603 1.393 . S
C600 H589 0.950 . S
C600 C598 1.391 . S
C600 C601 1.400 1_556 S
C601 C595 1.491 . S
C601 C600 1.400 1_554 S
C601 C602 1.398 1_554 S
C602 H590 0.950 1_556 S
C602 C601 1.398 1_556 S
C602 C603 1.391 . S
C603 H591 0.950 . S
C603 C599 1.393 . S
C603 C602 1.391 . S
H604 C612 0.950 . S
H605 C617 0.950 . S
H606 C614 0.950 . S
H607 C616 0.950 . S
H608 C618 0.950 . S
H609 C620 0.950 . S
H610 C622 0.950 . S
H611 C623 0.950 . S
C612 H604 0.950 . S
C612 C613 1.386 . S
C612 C614 1.391 . S
C613 C612 1.386 . S
C613 C617 1.393 . S
C614 H606 0.950 . S
C614 C612 1.391 . S
C614 C615 1.400 . S
C615 C614 1.400 . S
C615 C616 1.398 . S
C615 C621 1.491 . S
C616 H607 0.950 . S
C616 C615 1.398 . S
C616 C617 1.391 . S
C617 H605 0.950 . S
C617 C613 1.393 . S
C617 C616 1.391 . S
C618 H608 0.950 . S
C618 C619 1.386 . S
C618 C620 1.391 . S
C619 C618 1.386 . S
C619 C623 1.393 . S
C620 H609 0.950 . S
C620 C618 1.391 . S
C620 C621 1.400 . S
C621 C615 1.491 . S
C621 C620 1.400 . S
C621 C622 1.398 . S
C622 H610 0.950 . S
C622 C621 1.398 . S
C622 C623 1.391 . S
C623 H611 0.950 . S
C623 C619 1.393 . S
C623 C622 1.391 . S
H624 C632 0.950 . S
H625 C637 0.950 . S
H626 C634 0.950 . S
H627 C636 0.950 . S
H628 C638 0.950 . S
H629 C640 0.950 . S
H630 C642 0.950 . S
H631 C643 0.950 . S
C632 H624 0.950 . S
C632 C633 1.386 . S
C632 C634 1.391 . S
C633 C632 1.386 . S
C633 C637 1.393 . S
C634 H626 0.950 . S
C634 C632 1.391 . S
C634 C635 1.400 . S
C635 C634 1.400 . S
C635 C636 1.398 . S
C635 C641 1.491 . S
C636 H627 0.950 . S
C636 C635 1.398 . S
C636 C637 1.391 . S
C637 H625 0.950 . S
C637 C633 1.393 . S
C637 C636 1.391 . S
C638 H628 0.950 . S
C638 C639 1.386 . S
C638 C640 1.391 . S
C639 C638 1.386 . S
C639 C643 1.393 . S
C640 H629 0.950 . S
C640 C638 1.391 . S
C640 C641 1.400 . S
C641 C635 1.491 . S
C641 C640 1.400 . S
C641 C642 1.398 . S
C642 H630 0.950 . S
C642 C641 1.398 . S
C642 C643 1.391 . S
C643 H631 0.950 . S
C643 C639 1.393 . S
C643 C642 1.391 . S
H644 C652 0.950 . S
H645 C657 0.950 . S
H646 C654 0.950 . S
H647 C656 0.950 . S
H648 C658 0.950 . S
H649 C660 0.952 . S
H650 C662 0.950 1_554 S
H651 C663 0.950 . S
C652 H644 0.950 . S
C652 C653 1.386 . S
C652 C654 1.391 . S
C653 C652 1.386 . S
C653 C657 1.393 . S
C654 H646 0.950 . S
C654 C652 1.391 . S
C654 C655 1.400 . S
C655 C654 1.400 . S
C655 C656 1.398 . S
C655 C661 1.491 . S
C656 H647 0.950 . S
C656 C655 1.398 . S
C656 C657 1.391 . S
C657 H645 0.950 . S
C657 C653 1.393 . S
C657 C656 1.391 . S
C658 H648 0.950 . S
C658 C659 1.386 . S
C658 C660 1.391 . S
C659 C658 1.386 . S
C659 C663 1.393 . S
C660 H649 0.952 . S
C660 C658 1.391 . S
C660 C661 1.400 1_556 S
C661 C655 1.491 . S
C661 C660 1.400 1_554 S
C661 C662 1.398 1_554 S
C662 H650 0.950 1_556 S
C662 C661 1.398 1_556 S
C662 C663 1.391 . S
C663 H651 0.950 . S
C663 C659 1.393 . S
C663 C662 1.391 . S
H664 C672 0.950 . S
H665 C677 0.950 . S
H666 C674 0.950 . S
H667 C676 0.950 . S
H668 C678 0.950 . S
H669 C680 0.950 . S
H670 C682 0.950 . S
H671 C683 0.950 . S
C672 H664 0.950 . S
C672 C673 1.386 . S
C672 C674 1.391 . S
C673 C672 1.386 . S
C673 C677 1.393 . S
C674 H666 0.950 . S
C674 C672 1.391 . S
C674 C675 1.400 . S
C675 C674 1.400 . S
C675 C676 1.398 . S
C675 C681 1.491 . S
C676 H667 0.950 . S
C676 C675 1.398 . S
C676 C677 1.391 . S
C677 H665 0.950 . S
C677 C673 1.393 . S
C677 C676 1.391 . S
C678 H668 0.950 . S
C678 C679 1.386 . S
C678 C680 1.391 . S
C679 C678 1.386 . S
C679 C683 1.393 . S
C680 H669 0.950 . S
C680 C678 1.391 . S
C680 C681 1.400 . S
C681 C675 1.491 . S
C681 C680 1.400 . S
C681 C682 1.398 . S
C682 H670 0.950 . S
C682 C681 1.398 . S
C682 C683 1.391 . S
C683 H671 0.950 . S
C683 C679 1.393 . S
C683 C682 1.391 . S
H684 C692 0.950 . S
H685 C697 0.950 . S
H686 C694 0.950 . S
H687 C696 0.950 . S
H688 C698 0.950 . S
H689 C700 0.950 . S
H690 C702 0.950 . S
H691 C703 0.950 . S
C692 H684 0.950 . S
C692 C693 1.386 . S
C692 C694 1.391 . S
C693 C692 1.386 . S
C693 C697 1.393 . S
C694 H686 0.950 . S
C694 C692 1.391 . S
C694 C695 1.400 . S
C695 C694 1.400 . S
C695 C696 1.398 . S
C695 C701 1.491 . S
C696 H687 0.950 . S
C696 C695 1.398 . S
C696 C697 1.391 . S
C697 H685 0.950 . S
C697 C693 1.393 . S
C697 C696 1.391 . S
C698 H688 0.950 . S
C698 C699 1.386 . S
C698 C700 1.391 . S
C699 C698 1.386 . S
C699 C703 1.393 . S
C700 H689 0.950 . S
C700 C698 1.391 . S
C700 C701 1.400 . S
C701 C695 1.491 . S
C701 C700 1.400 . S
C701 C702 1.398 . S
C702 H690 0.950 . S
C702 C701 1.398 . S
C702 C703 1.391 . S
C703 H691 0.950 . S
C703 C699 1.393 . S
C703 C702 1.391 . S
H704 C712 0.950 . S
H705 C717 0.950 . S
H706 C714 0.950 . S
H707 C716 0.950 1_554 S
H708 C718 0.950 . S
H709 C720 0.950 . S
H710 C722 0.950 . S
H711 C723 0.950 . S
C712 H704 0.950 . S
C712 C713 1.386 . S
C712 C714 1.391 . S
C713 C712 1.386 . S
C713 C717 1.393 . S
C714 H706 0.950 . S
C714 C712 1.391 . S
C714 C715 1.400 1_556 S
C715 C714 1.400 1_554 S
C715 C716 1.398 1_554 S
C715 C721 1.491 . S
C716 H707 0.950 1_556 S
C716 C715 1.398 1_556 S
C716 C717 1.391 . S
C717 H705 0.950 . S
C717 C713 1.393 . S
C717 C716 1.391 . S
C718 H708 0.950 . S
C718 C719 1.386 . S
C718 C720 1.391 . S
C719 C718 1.386 . S
C719 C723 1.393 . S
C720 H709 0.950 . S
C720 C718 1.391 . S
C720 C721 1.400 . S
C721 C715 1.491 . S
C721 C720 1.400 . S
C721 C722 1.398 . S
C722 H710 0.950 . S
C722 C721 1.398 . S
C722 C723 1.391 . S
C723 H711 0.950 . S
C723 C719 1.393 . S
C723 C722 1.391 . S
H724 C732 0.950 . S
H725 C737 0.950 . S
H726 C734 0.950 . S
H727 C736 0.950 . S
H728 C738 0.950 . S
H729 C740 0.950 . S
H730 C742 0.950 . S
H731 C743 0.950 . S
C732 H724 0.950 . S
C732 C733 1.386 . S
C732 C734 1.391 . S
C733 C732 1.386 . S
C733 C737 1.393 . S
C734 H726 0.950 . S
C734 C732 1.391 . S
C734 C735 1.400 . S
C735 C734 1.400 . S
C735 C736 1.398 . S
C735 C741 1.491 . S
C736 H727 0.950 . S
C736 C735 1.398 . S
C736 C737 1.391 . S
C737 H725 0.950 . S
C737 C733 1.393 . S
C737 C736 1.391 . S
C738 H728 0.950 . S
C738 C739 1.386 . S
C738 C740 1.391 . S
C739 C738 1.386 . S
C739 C743 1.393 . S
C740 H729 0.950 . S
C740 C738 1.391 . S
C740 C741 1.400 . S
C741 C735 1.491 . S
C741 C740 1.400 . S
C741 C742 1.398 . S
C742 H730 0.950 . S
C742 C741 1.398 . S
C742 C743 1.391 . S
C743 H731 0.950 . S
C743 C739 1.393 . S
C743 C742 1.391 . S
H744 C752 0.950 . S
H745 C757 0.950 . S
H746 C754 0.950 . S
H747 C756 0.950 . S
H748 C758 0.950 . S
H749 C760 0.950 . S
H750 C762 0.950 . S
H751 C763 0.950 . S
C752 H744 0.950 . S
C752 C753 1.386 . S
C752 C754 1.391 . S
C753 C752 1.386 . S
C753 C757 1.393 . S
C754 H746 0.950 . S
C754 C752 1.391 . S
C754 C755 1.400 . S
C755 C754 1.400 . S
C755 C756 1.398 . S
C755 C761 1.491 . S
C756 H747 0.950 . S
C756 C755 1.398 . S
C756 C757 1.391 . S
C757 H745 0.950 . S
C757 C753 1.393 . S
C757 C756 1.391 . S
C758 H748 0.950 . S
C758 C759 1.386 . S
C758 C760 1.391 . S
C759 C758 1.386 . S
C759 C763 1.393 . S
C760 H749 0.950 . S
C760 C758 1.391 . S
C760 C761 1.400 . S
C761 C755 1.491 . S
C761 C760 1.400 . S
C761 C762 1.398 . S
C762 H750 0.950 . S
C762 C761 1.398 . S
C762 C763 1.391 . S
C763 H751 0.950 . S
C763 C759 1.393 . S
C763 C762 1.391 . S
H764 C772 0.950 . S
H765 C777 0.950 . S
H766 C774 0.950 . S
H767 C776 0.950 . S
H768 C778 0.950 . S
H769 C780 0.950 . S
H770 C782 0.950 . S
H771 C783 0.950 . S
C772 H764 0.950 . S
C772 C773 1.386 . S
C772 C774 1.391 . S
C773 C772 1.386 . S
C773 C777 1.393 . S
C774 H766 0.950 . S
C774 C772 1.391 . S
C774 C775 1.400 . S
C775 C774 1.400 . S
C775 C776 1.398 . S
C775 C781 1.491 . S
C776 H767 0.950 . S
C776 C775 1.398 . S
C776 C777 1.391 . S
C777 H765 0.950 . S
C777 C773 1.393 . S
C777 C776 1.391 . S
C778 H768 0.950 . S
C778 C779 1.386 . S
C778 C780 1.391 . S
C779 C778 1.386 . S
C779 C783 1.393 . S
C780 H769 0.950 . S
C780 C778 1.391 . S
C780 C781 1.400 . S
C781 C775 1.491 . S
C781 C780 1.400 . S
C781 C782 1.398 . S
C782 H770 0.950 . S
C782 C781 1.398 . S
C782 C783 1.391 . S
C783 H771 0.950 . S
C783 C779 1.393 . S
C783 C782 1.391 . S
H784 C792 0.950 . S
H785 C797 0.950 . S
H786 C794 0.950 . S
H787 C796 0.950 . S
H788 C798 0.950 . S
H789 C800 0.950 . S
H790 C802 0.950 . S
H791 C803 0.950 . S
C792 H784 0.950 . S
C792 C793 1.386 . S
C792 C794 1.391 . S
C793 C792 1.386 . S
C793 C797 1.393 . S
C794 H786 0.950 . S
C794 C792 1.391 . S
C794 C795 1.400 . S
C795 C794 1.400 . S
C795 C796 1.398 . S
C795 C801 1.491 . S
C796 H787 0.950 . S
C796 C795 1.398 . S
C796 C797 1.391 . S
C797 H785 0.950 . S
C797 C793 1.393 . S
C797 C796 1.391 . S
C798 H788 0.950 . S
C798 C799 1.386 . S
C798 C800 1.391 . S
C799 C798 1.386 . S
C799 C803 1.393 . S
C800 H789 0.950 . S
C800 C798 1.391 . S
C800 C801 1.400 . S
C801 C795 1.491 . S
C801 C800 1.400 . S
C801 C802 1.398 . S
C802 H790 0.950 . S
C802 C801 1.398 . S
C802 C803 1.391 . S
C803 H791 0.950 . S
C803 C799 1.393 . S
C803 C802 1.391 . S
H804 C812 0.950 . S
H805 C817 0.950 . S
H806 C814 0.950 . S
H807 C816 0.950 . S
H808 C818 0.950 . S
H809 C820 0.950 . S
H810 C822 0.950 . S
H811 C823 0.950 . S
C812 H804 0.950 . S
C812 C813 1.386 . S
C812 C814 1.391 . S
C813 C812 1.386 . S
C813 C817 1.393 . S
C814 H806 0.950 . S
C814 C812 1.391 . S
C814 C815 1.400 . S
C815 C814 1.400 . S
C815 C816 1.398 . S
C815 C821 1.491 . S
C816 H807 0.950 . S
C816 C815 1.398 . S
C816 C817 1.391 . S
C817 H805 0.950 . S
C817 C813 1.393 . S
C817 C816 1.391 . S
C818 H808 0.950 . S
C818 C819 1.386 . S
C818 C820 1.391 . S
C819 C818 1.386 . S
C819 C823 1.393 . S
C820 H809 0.950 . S
C820 C818 1.391 . S
C820 C821 1.400 . S
C821 C815 1.491 . S
C821 C820 1.400 . S
C821 C822 1.398 . S
C822 H810 0.950 . S
C822 C821 1.398 . S
C822 C823 1.391 . S
C823 H811 0.950 . S
C823 C819 1.393 . S
C823 C822 1.391 . S
H824 C832 0.950 . S
H825 C837 0.950 . S
H826 C834 0.950 . S
H827 C836 0.950 . S
H828 C838 0.950 . S
H829 C840 0.950 . S
H830 C842 0.950 . S
H831 C843 0.950 . S
C832 H824 0.950 . S
C832 C833 1.386 . S
C832 C834 1.391 . S
C833 C832 1.386 . S
C833 C837 1.393 . S
C834 H826 0.950 . S
C834 C832 1.391 . S
C834 C835 1.400 . S
C835 C834 1.400 . S
C835 C836 1.398 . S
C835 C841 1.491 . S
C836 H827 0.950 . S
C836 C835 1.398 . S
C836 C837 1.391 . S
C837 H825 0.950 . S
C837 C833 1.393 . S
C837 C836 1.391 . S
C838 H828 0.950 . S
C838 C839 1.386 . S
C838 C840 1.391 . S
C839 C838 1.386 . S
C839 C843 1.393 . S
C840 H829 0.950 . S
C840 C838 1.391 . S
C840 C841 1.400 . S
C841 C835 1.491 . S
C841 C840 1.400 . S
C841 C842 1.398 . S
C842 H830 0.950 . S
C842 C841 1.398 . S
C842 C843 1.391 . S
C843 H831 0.950 . S
C843 C839 1.393 . S
C843 C842 1.391 . S
H844 C852 0.950 . S
H845 C857 0.950 . S
H846 C854 0.950 . S
H847 C856 0.950 . S
H848 C858 0.950 . S
H849 C860 0.950 . S
H850 C862 0.950 1_554 S
H851 C863 0.950 . S
C852 H844 0.950 . S
C852 C853 1.386 . S
C852 C854 1.391 . S
C853 C852 1.386 . S
C853 C857 1.393 . S
C854 H846 0.950 . S
C854 C852 1.391 . S
C854 C855 1.400 . S
C855 C854 1.400 . S
C855 C856 1.398 . S
C855 C861 1.491 . S
C856 H847 0.950 . S
C856 C855 1.398 . S
C856 C857 1.391 . S
C857 H845 0.950 . S
C857 C853 1.393 . S
C857 C856 1.391 . S
C858 H848 0.950 . S
C858 C859 1.386 . S
C858 C860 1.391 . S
C859 C858 1.386 . S
C859 C863 1.393 . S
C860 H849 0.950 . S
C860 C858 1.391 . S
C860 C861 1.400 1_556 S
C861 C855 1.491 . S
C861 C860 1.400 1_554 S
C861 C862 1.398 1_554 S
C862 H850 0.950 1_556 S
C862 C861 1.398 1_556 S
C862 C863 1.391 . S
C863 H851 0.950 . S
C863 C859 1.393 . S
C863 C862 1.391 . S
C233 C97 2.094 . S
C239 C13 2.094 . S
C253 C111 2.103 . S
C259 C27 2.091 . S
C273 C41 2.096 . S
C279 C56 2.108 1_556 S
C293 C55 2.097 . S
C299 C83 2.092 . S
C313 C112 2.103 . S
C319 C197 2.104 1_556 S
C333 C223 2.091 . S
C339 C139 2.102 . S
C353 C141 2.105 . S
C359 C168 2.095 . S
C373 C155 2.099 . S
C379 C182 2.093 . S
C393 C12 2.010 . S
C399 C140 2.019 . S
C413 C26 2.015 . S
C419 C154 2.008 . S
C433 C40 2.012 . S
C439 C113 2.004 . S
C453 C54 2.028 . S
C459 C138 2.022 . S
C473 C57 2.023 . S
C479 C196 2.027 . S
C493 C222 2.008 . S
C499 C82 2.015 . S
C513 C96 2.021 . S
C519 C169 2.024 . S
C533 C183 2.025 . S
C539 C110 2.025 . S
C553 C195 0.688 . S
C559 C0 0.681 . S
C573 C14 0.678 . S
C579 C208 0.684 . S
C593 C210 0.683 . S
C599 C28 0.689 . S
C613 C181 0.673 . S
C619 C42 0.670 . S
C633 C166 0.688 . S
C639 C69 0.683 . S
C653 C70 0.691 . S
C659 C125 0.692 . S
C673 C84 0.691 . S
C679 C126 0.688 . S
C693 C98 0.670 . S
C699 C152 0.671 . S
C713 C194 1.736 . S
C719 C1 1.737 . S
C733 C15 1.735 . S
C739 C209 1.732 . S
C753 C29 1.730 . S
C759 C211 1.730 . S
C773 C180 1.740 . S
C779 C43 1.740 . S
C793 C167 1.740 . S
C799 C68 1.741 . S
C813 C124 1.738 . S
C819 C71 1.734 . S
C833 C85 1.730 . S
C839 C127 1.730 . S
C853 C153 1.738 . S
C859 C99 1.740 . S
