# Generated by pormake.
# Topology unl, (4)-cn, num edge types: 1
# Building blocks:
#     Node 0, Type 0, BuildingBlock: NAHDIM_clean_sbu_0, # of connection points: 4
#     Node 1, Type 0, BuildingBlock: NAHDIM_clean_sbu_0, # of connection points: 4
#     Node 2, Type 0, BuildingBlock: NAHDIM_clean_sbu_0, # of connection points: 4
#     Node 3, Type 0, BuildingBlock: NAHDIM_clean_sbu_0, # of connection points: 4
#     Node 4, Type 0, BuildingBlock: NAHDIM_clean_sbu_0, # of connection points: 4
#     Node 5, Type 0, BuildingBlock: NAHDIM_clean_sbu_0, # of connection points: 4
#     Node 6, Type 0, BuildingBlock: NAHDIM_clean_sbu_0, # of connection points: 4
#     Node 7, Type 0, BuildingBlock: NAHDIM_clean_sbu_0, # of connection points: 4
#     Node 8, Type 0, BuildingBlock: NAHDIM_clean_sbu_0, # of connection points: 4
#     Node 9, Type 0, BuildingBlock: NAHDIM_clean_sbu_0, # of connection points: 4
#     Node 10, Type 0, BuildingBlock: NAHDIM_clean_sbu_0, # of connection points: 4
#     Node 11, Type 0, BuildingBlock: NAHDIM_clean_sbu_0, # of connection points: 4
#     Node 12, Type 0, BuildingBlock: NAHDIM_clean_sbu_0, # of connection points: 4
#     Node 13, Type 0, BuildingBlock: NAHDIM_clean_sbu_0, # of connection points: 4
#     Node 14, Type 0, BuildingBlock: NAHDIM_clean_sbu_0, # of connection points: 4
#     Node 15, Type 0, BuildingBlock: NAHDIM_clean_sbu_0, # of connection points: 4
#     Node 16, Type 0, BuildingBlock: NAHDIM_clean_sbu_0, # of connection points: 4
#     Node 17, Type 0, BuildingBlock: NAHDIM_clean_sbu_0, # of connection points: 4
#     Node 18, Type 0, BuildingBlock: NAHDIM_clean_sbu_0, # of connection points: 4
#     Node 19, Type 0, BuildingBlock: NAHDIM_clean_sbu_0, # of connection points: 4
#     Node 20, Type 0, BuildingBlock: NAHDIM_clean_sbu_0, # of connection points: 4
#     Node 21, Type 0, BuildingBlock: NAHDIM_clean_sbu_0, # of connection points: 4
#     Node 22, Type 0, BuildingBlock: NAHDIM_clean_sbu_0, # of connection points: 4
#     Node 23, Type 0, BuildingBlock: NAHDIM_clean_sbu_0, # of connection points: 4
#     Node 24, Type 0, BuildingBlock: NAHDIM_clean_sbu_0, # of connection points: 4
#     Node 25, Type 0, BuildingBlock: NAHDIM_clean_sbu_0, # of connection points: 4
#     Node 26, Type 0, BuildingBlock: NAHDIM_clean_sbu_0, # of connection points: 4
#     Node 27, Type 0, BuildingBlock: NAHDIM_clean_sbu_0, # of connection points: 4
#     Node 28, Type 0, BuildingBlock: NAHDIM_clean_sbu_0, # of connection points: 4
#     Node 29, Type 0, BuildingBlock: NAHDIM_clean_sbu_0, # of connection points: 4
#     Node 30, Type 0, BuildingBlock: NAHDIM_clean_sbu_0, # of connection points: 4
#     Node 31, Type 0, BuildingBlock: NAHDIM_clean_sbu_0, # of connection points: 4
#     Node 32, Type 0, BuildingBlock: NAHDIM_clean_sbu_0, # of connection points: 4
#     Node 33, Type 0, BuildingBlock: NAHDIM_clean_sbu_0, # of connection points: 4
#     Node 34, Type 0, BuildingBlock: NAHDIM_clean_sbu_0, # of connection points: 4
#     Node 35, Type 0, BuildingBlock: NAHDIM_clean_sbu_0, # of connection points: 4
#     Edge 36, Type (0, 0), BuildingBlock: AJUNOK_clean_linker_0, # of connection points: 2
#     Edge 37, Type (0, 0), BuildingBlock: AJUNOK_clean_linker_0, # of connection points: 2
#     Edge 38, Type (0, 0), BuildingBlock: AJUNOK_clean_linker_0, # of connection points: 2
#     Edge 39, Type (0, 0), BuildingBlock: AJUNOK_clean_linker_0, # of connection points: 2
#     Edge 40, Type (0, 0), BuildingBlock: AJUNOK_clean_linker_0, # of connection points: 2
#     Edge 41, Type (0, 0), BuildingBlock: AJUNOK_clean_linker_0, # of connection points: 2
#     Edge 42, Type (0, 0), BuildingBlock: AJUNOK_clean_linker_0, # of connection points: 2
#     Edge 43, Type (0, 0), BuildingBlock: AJUNOK_clean_linker_0, # of connection points: 2
#     Edge 44, Type (0, 0), BuildingBlock: AJUNOK_clean_linker_0, # of connection points: 2
#     Edge 45, Type (0, 0), BuildingBlock: AJUNOK_clean_linker_0, # of connection points: 2
#     Edge 46, Type (0, 0), BuildingBlock: AJUNOK_clean_linker_0, # of connection points: 2
#     Edge 47, Type (0, 0), BuildingBlock: AJUNOK_clean_linker_0, # of connection points: 2
#     Edge 48, Type (0, 0), BuildingBlock: AJUNOK_clean_linker_0, # of connection points: 2
#     Edge 49, Type (0, 0), BuildingBlock: AJUNOK_clean_linker_0, # of connection points: 2
#     Edge 50, Type (0, 0), BuildingBlock: AJUNOK_clean_linker_0, # of connection points: 2
#     Edge 51, Type (0, 0), BuildingBlock: AJUNOK_clean_linker_0, # of connection points: 2
#     Edge 52, Type (0, 0), BuildingBlock: AJUNOK_clean_linker_0, # of connection points: 2
#     Edge 53, Type (0, 0), BuildingBlock: AJUNOK_clean_linker_0, # of connection points: 2
#     Edge 54, Type (0, 0), BuildingBlock: AJUNOK_clean_linker_0, # of connection points: 2
#     Edge 55, Type (0, 0), BuildingBlock: AJUNOK_clean_linker_0, # of connection points: 2
#     Edge 56, Type (0, 0), BuildingBlock: AJUNOK_clean_linker_0, # of connection points: 2
#     Edge 57, Type (0, 0), BuildingBlock: AJUNOK_clean_linker_0, # of connection points: 2
#     Edge 58, Type (0, 0), BuildingBlock: AJUNOK_clean_linker_0, # of connection points: 2
#     Edge 59, Type (0, 0), BuildingBlock: AJUNOK_clean_linker_0, # of connection points: 2
#     Edge 60, Type (0, 0), BuildingBlock: AJUNOK_clean_linker_0, # of connection points: 2
#     Edge 61, Type (0, 0), BuildingBlock: AJUNOK_clean_linker_0, # of connection points: 2
#     Edge 62, Type (0, 0), BuildingBlock: AJUNOK_clean_linker_0, # of connection points: 2
#     Edge 63, Type (0, 0), BuildingBlock: AJUNOK_clean_linker_0, # of connection points: 2
#     Edge 64, Type (0, 0), BuildingBlock: AJUNOK_clean_linker_0, # of connection points: 2
#     Edge 65, Type (0, 0), BuildingBlock: AJUNOK_clean_linker_0, # of connection points: 2
#     Edge 66, Type (0, 0), BuildingBlock: AJUNOK_clean_linker_0, # of connection points: 2
#     Edge 67, Type (0, 0), BuildingBlock: AJUNOK_clean_linker_0, # of connection points: 2
#     Edge 68, Type (0, 0), BuildingBlock: AJUNOK_clean_linker_0, # of connection points: 2
#     Edge 69, Type (0, 0), BuildingBlock: AJUNOK_clean_linker_0, # of connection points: 2
#     Edge 70, Type (0, 0), BuildingBlock: AJUNOK_clean_linker_0, # of connection points: 2
#     Edge 71, Type (0, 0), BuildingBlock: AJUNOK_clean_linker_0, # of connection points: 2
#     Edge 72, Type (0, 0), BuildingBlock: AJUNOK_clean_linker_0, # of connection points: 2
#     Edge 73, Type (0, 0), BuildingBlock: AJUNOK_clean_linker_0, # of connection points: 2
#     Edge 74, Type (0, 0), BuildingBlock: AJUNOK_clean_linker_0, # of connection points: 2
#     Edge 75, Type (0, 0), BuildingBlock: AJUNOK_clean_linker_0, # of connection points: 2
#     Edge 76, Type (0, 0), BuildingBlock: AJUNOK_clean_linker_0, # of connection points: 2
#     Edge 77, Type (0, 0), BuildingBlock: AJUNOK_clean_linker_0, # of connection points: 2
#     Edge 78, Type (0, 0), BuildingBlock: AJUNOK_clean_linker_0, # of connection points: 2
#     Edge 79, Type (0, 0), BuildingBlock: AJUNOK_clean_linker_0, # of connection points: 2
#     Edge 80, Type (0, 0), BuildingBlock: AJUNOK_clean_linker_0, # of connection points: 2
#     Edge 81, Type (0, 0), BuildingBlock: AJUNOK_clean_linker_0, # of connection points: 2
#     Edge 82, Type (0, 0), BuildingBlock: AJUNOK_clean_linker_0, # of connection points: 2
#     Edge 83, Type (0, 0), BuildingBlock: AJUNOK_clean_linker_0, # of connection points: 2
#     Edge 84, Type (0, 0), BuildingBlock: AJUNOK_clean_linker_0, # of connection points: 2
#     Edge 85, Type (0, 0), BuildingBlock: AJUNOK_clean_linker_0, # of connection points: 2
#     Edge 86, Type (0, 0), BuildingBlock: AJUNOK_clean_linker_0, # of connection points: 2
#     Edge 87, Type (0, 0), BuildingBlock: AJUNOK_clean_linker_0, # of connection points: 2
#     Edge 88, Type (0, 0), BuildingBlock: AJUNOK_clean_linker_0, # of connection points: 2
#     Edge 89, Type (0, 0), BuildingBlock: AJUNOK_clean_linker_0, # of connection points: 2
#     Edge 90, Type (0, 0), BuildingBlock: AJUNOK_clean_linker_0, # of connection points: 2
#     Edge 91, Type (0, 0), BuildingBlock: AJUNOK_clean_linker_0, # of connection points: 2
#     Edge 92, Type (0, 0), BuildingBlock: AJUNOK_clean_linker_0, # of connection points: 2
#     Edge 93, Type (0, 0), BuildingBlock: AJUNOK_clean_linker_0, # of connection points: 2
#     Edge 94, Type (0, 0), BuildingBlock: AJUNOK_clean_linker_0, # of connection points: 2
#     Edge 95, Type (0, 0), BuildingBlock: AJUNOK_clean_linker_0, # of connection points: 2
#     Edge 96, Type (0, 0), BuildingBlock: AJUNOK_clean_linker_0, # of connection points: 2
#     Edge 97, Type (0, 0), BuildingBlock: AJUNOK_clean_linker_0, # of connection points: 2
#     Edge 98, Type (0, 0), BuildingBlock: AJUNOK_clean_linker_0, # of connection points: 2
#     Edge 99, Type (0, 0), BuildingBlock: AJUNOK_clean_linker_0, # of connection points: 2
#     Edge 100, Type (0, 0), BuildingBlock: AJUNOK_clean_linker_0, # of connection points: 2
#     Edge 101, Type (0, 0), BuildingBlock: AJUNOK_clean_linker_0, # of connection points: 2
#     Edge 102, Type (0, 0), BuildingBlock: AJUNOK_clean_linker_0, # of connection points: 2
#     Edge 103, Type (0, 0), BuildingBlock: AJUNOK_clean_linker_0, # of connection points: 2
#     Edge 104, Type (0, 0), BuildingBlock: AJUNOK_clean_linker_0, # of connection points: 2
#     Edge 105, Type (0, 0), BuildingBlock: AJUNOK_clean_linker_0, # of connection points: 2
#     Edge 106, Type (0, 0), BuildingBlock: AJUNOK_clean_linker_0, # of connection points: 2
#     Edge 107, Type (0, 0), BuildingBlock: AJUNOK_clean_linker_0, # of connection points: 2
# Relax obj value: 0.179
# Max RMSD: 0.222
# Mean RMSD: 0.222
data_MOF--net-unl--node1-NAHDIM_clean_sbu_0--edge1-AJUNOK_clean_linker_0
_symmetry_space_group_name_H-M    P1
_symmetry_Int_Tables_number       1
_symmetry_cell_setting            triclinic
loop_
_symmetry_equiv_pos_as_xyz
'x, y, z'
_cell_length_a     48.143769
_cell_length_b     48.13978
_cell_length_c     28.924141
_cell_angle_alpha  89.899833
_cell_angle_beta   89.972975
_cell_angle_gamma 119.91922
loop_
_atom_site_label
_atom_site_type_symbol
_atom_site_fract_x
_atom_site_fract_y
_atom_site_fract_z
_atom_type_partial_charge
C0 C 0.2601 0.13061 0.13059 0.0
O1 O 0.24115 0.1101 0.16195 0.0
O2 O 0.1839 0.0674 0.07097 0.0
Zn3 Zn 0.19985 0.11285 0.08971 0.0
O4 O 0.17998 0.11655 0.14886 0.0
C5 C 0.18908 0.13105 0.99726 0.0
O6 O 0.20327 0.11587 0.98085 0.0
O7 O 0.24762 0.13599 0.09553 0.0
C8 C 0.15192 0.11288 0.14868 0.0
O9 O 0.13533 0.10416 0.11012 0.0
C10 C 0.16296 0.04241 0.09179 0.0
O11 O 0.15077 0.04536 0.13085 0.0
O12 O 0.18667 0.1331 0.0407 0.0
C13 C 0.86096 0.13579 0.15007 0.0
O14 O 0.88805 0.14612 0.17256 0.0
O15 O 0.92378 0.12649 0.09598 0.0
Zn16 Zn 0.87906 0.0922 0.11155 0.0
O17 O 0.8756 0.06431 0.16574 0.0
C18 C 0.87517 0.06976 0.01698 0.0
O19 O 0.90163 0.09721 0.01054 0.0
O20 O 0.85203 0.11246 0.12236 0.0
C21 C 0.88477 0.04371 0.16364 0.0
O22 O 0.89949 0.04218 0.1263 0.0
C23 C 0.95042 0.13083 0.111 0.0
O24 O 0.9507 0.11246 0.14441 0.0
O25 O 0.86161 0.06336 0.0564 0.0
C26 C 0.8572 0.74639 0.17885 0.0
O27 O 0.85593 0.76588 0.20941 0.0
O28 O 0.86393 0.81902 0.11396 0.0
Zn29 Zn 0.89577 0.80541 0.13083 0.0
O30 O 0.92239 0.82724 0.18687 0.0
C31 C 0.91872 0.81964 0.03622 0.0
O32 O 0.89046 0.81644 0.02794 0.0
O33 O 0.87286 0.75806 0.14171 0.0
C34 C 0.94786 0.85441 0.185 0.0
O35 O 0.95593 0.87045 0.14587 0.0
C36 C 0.86788 0.84698 0.11873 0.0
O37 O 0.89311 0.86867 0.14115 0.0
O38 O 0.92564 0.8154 0.07707 0.0
C39 C 0.13414 0.25804 0.34326 0.0
O40 O 0.11684 0.2402 0.30861 0.0
O41 O 0.07071 0.17837 0.40276 0.0
Zn42 Zn 0.11671 0.19697 0.38482 0.0
O43 O 0.12474 0.17758 0.32858 0.0
C44 C 0.12876 0.18705 0.47926 0.0
O45 O 0.10758 0.19589 0.48845 0.0
O46 O 0.13736 0.24453 0.37892 0.0
C47 C 0.10463 0.15605 0.30184 0.0
O48 O 0.07385 0.14509 0.30784 0.0
C49 C 0.04682 0.17801 0.3836 0.0
O50 O 0.04966 0.19014 0.34201 0.0
O51 O 0.13709 0.18704 0.43755 0.0
C52 C 0.72729 0.85595 0.35119 0.0
O53 O 0.7432 0.8416 0.33854 0.0
O54 O 0.80336 0.87518 0.39628 0.0
Zn55 Zn 0.79027 0.90659 0.37453 0.0
O56 O 0.81085 0.93098 0.31616 0.0
C57 C 0.80585 0.93451 0.46639 0.0
O58 O 0.80218 0.90664 0.47895 0.0
O59 O 0.74268 0.88416 0.36737 0.0
C60 C 0.84049 0.94524 0.306 0.0
O61 O 0.86061 0.94198 0.33302 0.0
C62 C 0.81748 0.86163 0.37794 0.0
O63 O 0.82698 0.86777 0.3347 0.0
O64 O 0.80192 0.93931 0.4243 0.0
C65 C 0.11649 0.85391 0.35077 0.0
O66 O 0.12108 0.87874 0.32595 0.0
O67 O 0.10634 0.91297 0.42133 0.0
Zn68 Zn 0.07441 0.86942 0.39855 0.0
O69 O 0.04877 0.869 0.3435 0.0
C70 C 0.04866 0.85432 0.49233 0.0
O71 O 0.07792 0.8752 0.50528 0.0
O72 O 0.0969 0.84502 0.38434 0.0
C73 C 0.04122 0.88994 0.33237 0.0
O74 O 0.05225 0.91644 0.35649 0.0
C75 C 0.12418 0.93933 0.40083 0.0
O76 O 0.12249 0.94146 0.35575 0.0
O77 O 0.04279 0.84779 0.44963 0.0
C78 C 0.72898 0.86848 0.84387 0.0
O79 O 0.74885 0.88687 0.81152 0.0
O80 O 0.80139 0.93709 0.90356 0.0
Zn81 Zn 0.7879 0.89114 0.89156 0.0
O82 O 0.8094 0.88556 0.8355 0.0
C83 C 0.80503 0.88786 0.98677 0.0
O84 O 0.80164 0.91309 0.99194 0.0
O85 O 0.74036 0.86638 0.88248 0.0
C86 C 0.8362 0.88646 0.83747 0.0
O87 O 0.8514 0.89287 0.87717 0.0
C88 C 0.82919 0.96053 0.89546 0.0
O89 O 0.84998 0.95539 0.8732 0.0
O90 O 0.7996 0.87427 0.94748 0.0
C91 C 0.11051 0.85664 0.8427 0.0
O92 O 0.09106 0.85735 0.8115 0.0
O93 O 0.04767 0.86796 0.91352 0.0
Zn94 Zn 0.09249 0.89696 0.89145 0.0
O95 O 0.09433 0.92112 0.83345 0.0
C96 C 0.10662 0.92583 0.98308 0.0
O97 O 0.08103 0.89912 0.99579 0.0
O98 O 0.1146 0.87176 0.88032 0.0
C99 C 0.09838 0.94928 0.83593 0.0
O100 O 0.09882 0.96137 0.87676 0.0
C101 C 0.02472 0.87332 0.90664 0.0
O102 O 0.02944 0.89749 0.88016 0.0
O103 O 0.11601 0.92918 0.94131 0.0
C104 C 0.12216 0.25782 0.88101 0.0
O105 O 0.1307 0.2473 0.91717 0.0
O106 O 0.09524 0.17413 0.90102 0.0
Zn107 Zn 0.06868 0.19363 0.88238 0.0
O108 O 0.03642 0.16789 0.83362 0.0
C109 C 0.05384 0.19249 0.97973 0.0
O110 O 0.08269 0.19656 0.98547 0.0
O111 O 0.09624 0.23888 0.86038 0.0
C112 C 0.04074 0.1531 0.80061 0.0
O113 O 0.06844 0.15418 0.79665 0.0
C114 C 0.12063 0.17677 0.88344 0.0
O115 O 0.13227 0.19318 0.84506 0.0
O116 O 0.04385 0.19237 0.93897 0.0
C117 C 0.85819 0.72994 0.616 0.0
O118 O 0.87925 0.73978 0.58223 0.0
O119 O 0.91414 0.81116 0.59062 0.0
Zn120 Zn 0.86852 0.79429 0.60964 0.0
O121 O 0.86246 0.82019 0.659 0.0
C122 C 0.85543 0.7975 0.51217 0.0
O123 O 0.87975 0.79278 0.50571 0.0
O124 O 0.84964 0.74904 0.63223 0.0
C125 C 0.88274 0.84072 0.68669 0.0
O126 O 0.91268 0.8473 0.68526 0.0
C127 C 0.9381 0.81279 0.61149 0.0
O128 O 0.93573 0.80401 0.65499 0.0
O129 O 0.84557 0.79701 0.55318 0.0
C130 C 0.25047 0.12139 0.65871 0.0
O131 O 0.23032 0.12831 0.67921 0.0
O132 O 0.18177 0.10672 0.5879 0.0
Zn133 Zn 0.19324 0.07552 0.61433 0.0
O134 O 0.16763 0.05339 0.67122 0.0
C135 C 0.18663 0.04836 0.52278 0.0
O136 O 0.19473 0.07734 0.5084 0.0
O137 O 0.23976 0.09884 0.62937 0.0
C138 C 0.14301 0.02564 0.66864 0.0
O139 O 0.13349 0.01213 0.62792 0.0
C140 C 0.16511 0.11756 0.60607 0.0
O141 O 0.15322 0.10812 0.64774 0.0
O142 O 0.18515 0.04276 0.56591 0.0
C143 C 0.86136 0.13207 0.63253 0.0
O144 O 0.854 0.10604 0.65643 0.0
O145 O 0.8732 0.07228 0.56881 0.0
Zn146 Zn 0.9049 0.11579 0.59188 0.0
O147 O 0.92668 0.11455 0.65043 0.0
C148 C 0.93402 0.13304 0.5002 0.0
O149 O 0.90463 0.11571 0.48463 0.0
O150 O 0.88312 0.14132 0.60197 0.0
C151 C 0.95054 0.11007 0.6485 0.0
O152 O 0.95903 0.10404 0.60823 0.0
C153 C 0.86798 0.04562 0.58515 0.0
O154 O 0.8836 0.04521 0.62213 0.0
O155 O 0.93879 0.13678 0.54353 0.0
C156 C 0.93867 0.46319 0.48814 0.0
O157 O 0.9203 0.43338 0.50166 0.0
O158 O 0.86952 0.40846 0.42314 0.0
Zn159 Zn 0.88074 0.45259 0.4437 0.0
O160 O 0.85245 0.45339 0.49467 0.0
C161 C 0.86522 0.46418 0.35035 0.0
O162 O 0.86011 0.43527 0.34132 0.0
O163 O 0.92662 0.47634 0.46347 0.0
C164 C 0.82755 0.45473 0.48358 0.0
O165 O 0.81894 0.45144 0.43996 0.0
C166 C 0.84164 0.38409 0.42532 0.0
O167 O 0.81866 0.38678 0.44553 0.0
O168 O 0.87542 0.47615 0.39008 0.0
C169 C 0.51838 0.45607 0.47388 0.0
O170 O 0.53858 0.45596 0.50432 0.0
O171 O 0.58072 0.44285 0.41087 0.0
Zn172 Zn 0.53427 0.41365 0.42677 0.0
O173 O 0.52806 0.38621 0.48284 0.0
C174 C 0.52682 0.382 0.33845 0.0
O175 O 0.5581 0.40016 0.33571 0.0
O176 O 0.51288 0.43964 0.4373 0.0
C177 C 0.53392 0.36321 0.48259 0.0
O178 O 0.54577 0.35764 0.4451 0.0
C179 C 0.60447 0.44283 0.42996 0.0
O180 O 0.59962 0.42369 0.46517 0.0
O181 O 0.51222 0.38411 0.37366 0.0
C182 C 0.52443 0.06511 0.48267 0.0
O183 O 0.52122 0.08515 0.50988 0.0
O184 O 0.53955 0.13848 0.41335 0.0
Zn185 Zn 0.56878 0.12344 0.4374 0.0
O186 O 0.59238 0.14559 0.4952 0.0
C187 C 0.60029 0.13878 0.34736 0.0
O188 O 0.57447 0.13886 0.33297 0.0
O189 O 0.54367 0.07622 0.44872 0.0
C190 C 0.61188 0.17556 0.49739 0.0
O191 O 0.61493 0.19382 0.46173 0.0
C192 C 0.53152 0.15762 0.43086 0.0
O193 O 0.54248 0.17015 0.47172 0.0
O194 O 0.60221 0.13224 0.38942 0.0
C195 C 0.80592 0.6038 0.70126 0.0
O196 O 0.7858 0.59647 0.73596 0.0
O197 O 0.74693 0.52705 0.73669 0.0
Zn198 Zn 0.79035 0.53833 0.71284 0.0
O199 O 0.78881 0.50782 0.66439 0.0
C200 C 0.80582 0.53088 0.80753 0.0
O201 O 0.7797 0.53179 0.81768 0.0
O202 O 0.81217 0.58275 0.68627 0.0
C203 C 0.78312 0.51047 0.62226 0.0
O204 O 0.77562 0.53232 0.61077 0.0
C205 C 0.71978 0.50427 0.72451 0.0
O206 O 0.71805 0.48545 0.69046 0.0
O207 O 0.8154 0.53481 0.76579 0.0
C208 C 0.38846 0.19582 0.68574 0.0
O209 O 0.40687 0.18761 0.66291 0.0
O210 O 0.46271 0.21253 0.73612 0.0
Zn211 Zn 0.44908 0.24408 0.71721 0.0
O212 O 0.46778 0.26763 0.65756 0.0
C213 C 0.48201 0.28098 0.79776 0.0
O214 O 0.4963 0.26382 0.79576 0.0
O215 O 0.40147 0.22022 0.71175 0.0
C216 C 0.49633 0.2791 0.64295 0.0
O217 O 0.51697 0.2747 0.66695 0.0
C218 C 0.47485 0.19838 0.71407 0.0
O219 O 0.48161 0.20437 0.66991 0.0
O220 O 0.46106 0.27661 0.76759 0.0
C221 C 0.7914 0.1996 0.66862 0.0
O222 O 0.79667 0.2253 0.6455 0.0
O223 O 0.77598 0.25646 0.73038 0.0
Zn224 Zn 0.74538 0.2115 0.711 0.0
O225 O 0.71944 0.20758 0.65464 0.0
C226 C 0.71917 0.19984 0.80419 0.0
O227 O 0.74693 0.22466 0.81524 0.0
O228 O 0.76982 0.1887 0.69961 0.0
C229 C 0.70466 0.22281 0.64684 0.0
O230 O 0.70777 0.24527 0.67559 0.0
C231 C 0.78825 0.28295 0.7088 0.0
O232 O 0.78094 0.28363 0.66523 0.0
O233 O 0.71417 0.18998 0.76263 0.0
C234 C 0.3983 0.19259 0.15736 0.0
O235 O 0.41903 0.21186 0.1265 0.0
O236 O 0.47606 0.25518 0.21422 0.0
Zn237 Zn 0.45612 0.20775 0.20467 0.0
O238 O 0.47587 0.19763 0.1509 0.0
C239 C 0.46976 0.20153 0.30133 0.0
O240 O 0.46713 0.22711 0.30781 0.0
O241 O 0.40872 0.18711 0.19459 0.0
C242 C 0.49941 0.21797 0.12692 0.0
O243 O 0.51225 0.24862 0.13633 0.0
C244 C 0.45948 0.26712 0.22919 0.0
O245 O 0.42845 0.24828 0.23436 0.0
O246 O 0.46502 0.18924 0.26119 0.0
C247 C 0.78897 0.2027 0.17398 0.0
O248 O 0.76325 0.19569 0.14968 0.0
O249 O 0.72742 0.21767 0.21771 0.0
Zn250 Zn 0.77444 0.24868 0.21173 0.0
O251 O 0.7851 0.28042 0.16019 0.0
C252 C 0.81407 0.28571 0.28978 0.0
O253 O 0.83706 0.28305 0.2695 0.0
O254 O 0.79878 0.22519 0.20339 0.0
C255 C 0.76902 0.27586 0.12341 0.0
O256 O 0.74287 0.24812 0.11701 0.0
C257 C 0.72078 0.1964 0.24849 0.0
O258 O 0.74454 0.19509 0.26872 0.0
O259 O 0.78662 0.2731 0.27111 0.0
C260 C 0.79775 0.60861 0.20859 0.0
O261 O 0.80289 0.59149 0.17804 0.0
O262 O 0.79437 0.53634 0.26393 0.0
Zn263 Zn 0.76017 0.54678 0.24732 0.0
O264 O 0.7396 0.52776 0.18615 0.0
C265 C 0.72389 0.50998 0.32742 0.0
O266 O 0.74574 0.50127 0.32893 0.0
O267 O 0.77976 0.59442 0.24296 0.0
C268 C 0.71375 0.50099 0.18359 0.0
O269 O 0.70123 0.48446 0.22162 0.0
C270 C 0.79768 0.51424 0.24552 0.0
O271 O 0.77839 0.49729 0.21183 0.0
O272 O 0.72593 0.52971 0.29646 0.0
C273 C 0.52261 0.05866 0.96608 0.0
O274 O 0.54671 0.07967 0.99112 0.0
O275 O 0.57977 0.1307 0.89857 0.0
Zn276 Zn 0.53499 0.11566 0.91984 0.0
O277 O 0.53339 0.13836 0.97692 0.0
C278 C 0.52089 0.13087 0.82819 0.0
O279 O 0.54595 0.12887 0.81501 0.0
O280 O 0.51297 0.0686 0.93244 0.0
C281 C 0.54035 0.16752 0.97521 0.0
O282 O 0.55085 0.18332 0.93611 0.0
C283 C 0.60568 0.14952 0.9193 0.0
O284 O 0.60454 0.16066 0.96025 0.0
O285 O 0.51191 0.12523 0.87016 0.0
C286 C 0.93273 0.45722 0.96868 0.0
O287 O 0.91288 0.46291 0.99261 0.0
O288 O 0.86617 0.45278 0.90288 0.0
Zn289 Zn 0.87515 0.41799 0.92121 0.0
O290 O 0.84992 0.39306 0.97695 0.0
C291 C 0.85863 0.39346 0.82719 0.0
O292 O 0.86305 0.42203 0.81736 0.0
O293 O 0.92181 0.43782 0.93504 0.0
C294 C 0.82248 0.36816 0.97283 0.0
O295 O 0.80959 0.35995 0.93153 0.0
C296 C 0.84755 0.46075 0.92228 0.0
O297 O 0.83165 0.44534 0.95951 0.0
O298 O 0.86355 0.3874 0.86822 0.0
C299 C 0.54911 0.4651 0.99634 0.0
O300 O 0.54934 0.44456 0.0261 0.0
O301 O 0.56233 0.40313 0.93146 0.0
Zn302 Zn 0.59099 0.44928 0.94828 0.0
O303 O 0.61586 0.45262 0.00602 0.0
C304 C 0.61423 0.46133 0.85344 0.0
O305 O 0.58581 0.437 0.84382 0.0
O306 O 0.56547 0.4711 0.9595 0.0
C307 C 0.64613 0.47031 0.00798 0.0
O308 O 0.66176 0.48622 0.97089 0.0
C309 C 0.53458 0.39336 0.91477 0.0
O310 O 0.52369 0.41347 0.91202 0.0
O311 O 0.62116 0.4707 0.89506 0.0
C312 C 0.59039 0.8 0.81931 0.0
O313 O 0.57196 0.78213 0.85327 0.0
O314 O 0.51118 0.73316 0.76958 0.0
Zn315 Zn 0.52969 0.78062 0.77634 0.0
O316 O 0.51079 0.79076 0.83134 0.0
C317 C 0.50872 0.78256 0.68199 0.0
O318 O 0.50499 0.75372 0.67822 0.0
O319 O 0.57742 0.80281 0.78277 0.0
C320 C 0.49282 0.7704 0.8614 0.0
O321 O 0.48596 0.74046 0.85749 0.0
C322 C 0.52731 0.72171 0.75133 0.0
O323 O 0.55711 0.74138 0.73897 0.0
O324 O 0.51888 0.79775 0.71982 0.0
C325 C 0.18265 0.79041 0.81423 0.0
O326 O 0.20276 0.79237 0.8465 0.0
O327 O 0.25053 0.78403 0.75603 0.0
Zn328 Zn 0.2053 0.75201 0.77259 0.0
O329 O 0.20307 0.72973 0.83279 0.0
C330 C 0.19921 0.72481 0.681 0.0
O331 O 0.22417 0.75282 0.67115 0.0
O332 O 0.17962 0.77411 0.77823 0.0
C333 C 0.19916 0.70161 0.8342 0.0
O334 O 0.19736 0.68683 0.79523 0.0
C335 C 0.27239 0.77664 0.75796 0.0
O336 O 0.26549 0.74871 0.77545 0.0
O337 O 0.18715 0.71964 0.72138 0.0
C338 C 0.19514 0.39029 0.81762 0.0
O339 O 0.18405 0.39966 0.78306 0.0
O340 O 0.21231 0.47147 0.80294 0.0
Zn341 Zn 0.24343 0.45736 0.82123 0.0
O342 O 0.2702 0.48238 0.87586 0.0
C343 C 0.26322 0.4662 0.72502 0.0
O344 O 0.23348 0.45901 0.7174 0.0
O345 O 0.22026 0.41086 0.83835 0.0
C346 C 0.29986 0.50272 0.87177 0.0
O347 O 0.31306 0.50878 0.83053 0.0
C348 C 0.22354 0.50088 0.7933 0.0
O349 O 0.25391 0.521 0.8019 0.0
O350 O 0.27204 0.46521 0.76616 0.0
C351 C 0.46163 0.92353 0.01624 0.0
O352 O 0.43772 0.90111 0.99249 0.0
O353 O 0.40243 0.85496 0.07981 0.0
Zn354 Zn 0.44825 0.86846 0.0661 0.0
O355 O 0.45281 0.84534 0.01148 0.0
C356 C 0.45245 0.84979 0.16011 0.0
O357 O 0.42479 0.8487 0.16484 0.0
O358 O 0.47143 0.91536 0.05172 0.0
C359 C 0.44985 0.81767 0.01509 0.0
O360 O 0.44179 0.80294 0.05526 0.0
C361 C 0.37755 0.83107 0.0634 0.0
O362 O 0.38069 0.81316 0.03198 0.0
O363 O 0.46718 0.8587 0.12166 0.0
C364 C 0.06839 0.52715 0.01532 0.0
O365 O 0.08997 0.52318 0.99313 0.0
O366 O 0.13979 0.54364 0.07961 0.0
Zn367 Zn 0.12432 0.57358 0.06097 0.0
O368 O 0.14703 0.59969 0.0043 0.0
C369 C 0.13681 0.59867 0.15534 0.0
O370 O 0.13712 0.57229 0.16598 0.0
O371 O 0.07757 0.54799 0.04717 0.0
C372 C 0.16616 0.62976 0.00676 0.0
O373 O 0.17299 0.64358 0.04749 0.0
C374 C 0.16902 0.55109 0.07823 0.0
O375 O 0.19012 0.57893 0.06061 0.0
O376 O 0.13122 0.6032 0.11389 0.0
C377 C 0.4728 0.52518 0.03826 0.0
O378 O 0.4726 0.54725 0.01171 0.0
O379 O 0.45668 0.58064 0.11463 0.0
Zn380 Zn 0.42916 0.5368 0.08882 0.0
O381 O 0.40571 0.53749 0.03168 0.0
C382 C 0.40008 0.51529 0.17988 0.0
O383 O 0.4286 0.53578 0.19593 0.0
O384 O 0.45569 0.51656 0.0746 0.0
C385 C 0.3798 0.53829 0.03539 0.0
O386 O 0.3699 0.54071 0.07672 0.0
C387 C 0.45937 0.60646 0.09872 0.0
O388 O 0.44423 0.60564 0.06053 0.0
O389 O 0.39602 0.5112 0.13648 0.0
C390 C 0.07481 0.52878 0.53245 0.0
O391 O 0.09508 0.55647 0.51361 0.0
O392 O 0.14267 0.58623 0.58653 0.0
Zn393 Zn 0.13272 0.54142 0.5728 0.0
O394 O 0.15628 0.53806 0.51752 0.0
C395 C 0.16479 0.54388 0.65744 0.0
O396 O 0.17787 0.57479 0.64976 0.0
O397 O 0.08553 0.51591 0.56025 0.0
C398 C 0.18524 0.54427 0.51835 0.0
O399 O 0.20195 0.55552 0.55647 0.0
C400 C 0.16434 0.61262 0.56991 0.0
O401 O 0.18373 0.61255 0.538 0.0
O402 O 0.14419 0.52438 0.62896 0.0
C403 C 0.45237 0.52676 0.51623 0.0
O404 O 0.43198 0.52844 0.4878 0.0
O405 O 0.39357 0.53482 0.60329 0.0
Zn406 Zn 0.43601 0.56504 0.57436 0.0
O407 O 0.43223 0.589 0.51955 0.0
C408 C 0.45501 0.59866 0.6625 0.0
O409 O 0.42651 0.57636 0.67636 0.0
O410 O 0.45765 0.54059 0.55519 0.0
C411 C 0.43628 0.61704 0.52454 0.0
O412 O 0.44081 0.62933 0.56622 0.0
C413 C 0.36649 0.53127 0.5921 0.0
O414 O 0.36463 0.54759 0.55697 0.0
O415 O 0.46398 0.59763 0.62152 0.0
C416 C 0.45544 0.92686 0.51168 0.0
O417 O 0.45968 0.90866 0.48199 0.0
O418 O 0.44702 0.85323 0.56738 0.0
Zn419 Zn 0.41433 0.86597 0.55157 0.0
O420 O 0.39015 0.84665 0.49275 0.0
C421 C 0.3845 0.83945 0.64043 0.0
O422 O 0.40862 0.83426 0.64586 0.0
O423 O 0.43658 0.91367 0.54555 0.0
C424 C 0.36694 0.81806 0.48993 0.0
O425 O 0.35967 0.79882 0.52573 0.0
C426 C 0.44694 0.82777 0.55576 0.0
O427 O 0.42478 0.80766 0.52734 0.0
O428 O 0.38245 0.85263 0.60347 0.0
C429 C 0.19575 0.39703 0.3279 0.0
O430 O 0.21471 0.41633 0.36016 0.0
O431 O 0.26192 0.46996 0.269 0.0
Zn432 Zn 0.21645 0.45685 0.28412 0.0
O433 O 0.21069 0.47712 0.34139 0.0
C434 C 0.21571 0.48605 0.19649 0.0
O435 O 0.24609 0.49417 0.19518 0.0
O436 O 0.19203 0.40914 0.29102 0.0
C437 C 0.2315 0.50175 0.36291 0.0
O438 O 0.26139 0.51662 0.34862 0.0
C439 C 0.28559 0.47212 0.2914 0.0
O440 O 0.28306 0.46613 0.33599 0.0
O441 O 0.19857 0.46981 0.23061 0.0
C442 C 0.58869 0.7965 0.33356 0.0
O443 O 0.57511 0.81392 0.34118 0.0
O444 O 0.51485 0.78103 0.28373 0.0
Zn445 Zn 0.52451 0.74786 0.30849 0.0
O446 O 0.49968 0.72526 0.36594 0.0
C447 C 0.51027 0.7183 0.21706 0.0
O448 O 0.51256 0.74526 0.20265 0.0
O449 O 0.57146 0.76771 0.32046 0.0
C450 C 0.4737 0.69863 0.36235 0.0
O451 O 0.46198 0.68809 0.32099 0.0
C452 C 0.48836 0.78044 0.28833 0.0
O453 O 0.46572 0.7578 0.31371 0.0
O454 O 0.51425 0.7148 0.25962 0.0
C455 C 0.19151 0.79243 0.30903 0.0
O456 O 0.18832 0.76759 0.33243 0.0
O457 O 0.20748 0.73625 0.2514 0.0
Zn458 Zn 0.23795 0.78214 0.26682 0.0
O459 O 0.26499 0.78889 0.32314 0.0
C460 C 0.26305 0.78824 0.17375 0.0
O461 O 0.23602 0.76154 0.16634 0.0
O462 O 0.2124 0.80397 0.27709 0.0
C463 C 0.28073 0.77485 0.33245 0.0
O464 O 0.27816 0.75169 0.30565 0.0
C465 C 0.19751 0.71001 0.27303 0.0
O466 O 0.20807 0.70991 0.31485 0.0
O467 O 0.26801 0.80167 0.2131 0.0
C468 C 0.1642 0.0091 0.02687 0.0
C469 C 0.1502 0.0109 0.06868 0.0
C470 C 0.15063 0.98106 0.00066 0.0
C471 C 0.12248 0.95345 0.01505 0.0
H472 H 0.18536 0.02987 0.0133 0.0
H473 H 0.16192 0.98144 0.96806 0.0
S474 S 0.07813 0.94427 0.1244 0.0
N475 N 0.10792 0.9817 0.12525 0.0
N476 N 0.08237 0.92878 0.07585 0.0
C477 C 0.10914 0.95422 0.05807 0.0
C478 C 0.123 0.98297 0.0849 0.0
C479 C 0.97739 0.16849 0.04536 0.0
C480 C 0.97981 0.15202 0.08409 0.0
C481 C 0.00234 0.18327 0.01335 0.0
C482 C 0.03096 0.18256 0.01885 0.0
H483 H 0.95537 0.16862 0.03817 0.0
H484 H -0.00145 0.19414 0.98294 0.0
S485 S 0.05178 0.14746 0.11828 0.0
N486 N 0.01481 0.13939 0.12915 0.0
N487 N 0.06197 0.16753 0.06901 0.0
C488 C 0.03494 0.1687 0.05947 0.0
C489 C 0.0093 0.15335 0.09208 0.0
C490 C 0.81474 0.84622 0.02197 0.0
C491 C 0.81762 0.87669 0.02485 0.0
C492 C 0.82947 0.83617 0.05428 0.0
C493 C 0.84815 0.85634 0.09053 0.0
H494 H 0.80166 0.83021 0.99379 0.0
H495 H 0.82732 0.81287 0.04933 0.0
S496 S 0.86027 0.93711 0.11666 0.0
N497 N 0.83813 0.92595 0.06939 0.0
N498 N 0.86626 0.90713 0.12992 0.0
C499 C 0.84984 0.88622 0.09536 0.0
C500 C 0.83447 0.89637 0.0626 0.0
C501 C 0.99255 0.15641 0.48775 0.0
C502 C 0.96197 0.14544 0.46867 0.0
C503 C 0.01949 0.16673 0.45973 0.0
C504 C 0.01727 0.16694 0.41126 0.0
H505 H -0.00417 0.1566 0.52483 0.0
H506 H 0.04235 0.17477 0.47652 0.0
S507 S 0.94303 0.14135 0.34354 0.0
N508 N 0.931 0.13574 0.39799 0.0
N509 N 0.98216 0.15572 0.34508 0.0
C510 C 0.98702 0.1566 0.39144 0.0
C511 C 0.95927 0.14566 0.42017 0.0
C512 C 0.80857 0.83005 0.45012 0.0
C513 C 0.82469 0.84084 0.40756 0.0
C514 C 0.8175 0.81436 0.48242 0.0
C515 C 0.84305 0.80879 0.47375 0.0
H516 H 0.78943 0.83465 0.45941 0.0
H517 H 0.80498 0.8077 0.51525 0.0
S518 S 0.8906 0.82868 0.36512 0.0
N519 N 0.86548 0.84215 0.3565 0.0
N520 N 0.88243 0.81257 0.41733 0.0
C521 C 0.85806 0.81751 0.43003 0.0
C522 C 0.84884 0.83354 0.39692 0.0
C523 C 0.15186 -0.00146 0.41439 0.0
C524 C 0.14464 0.96782 0.42916 0.0
C525 C 0.16694 0.02495 0.44418 0.0
C526 C 0.17533 0.02149 0.48963 0.0
H527 H 0.14441 0.00193 0.38052 0.0
H528 H 0.17068 0.04789 0.43213 0.0
S529 S 0.16656 0.94697 0.54181 0.0
N530 N 0.15063 0.93615 0.48987 0.0
N531 N 0.17888 0.98559 0.54569 0.0
C532 C 0.17024 0.99127 0.5035 0.0
C533 C 0.15491 0.96449 0.4733 0.0
C534 C 0.83148 0.01854 0.98515 0.0
C535 C 0.8626 0.04489 0.98058 0.0
C536 C 0.82019 0.99234 0.95534 0.0
C537 C 0.8397 0.99117 0.92 0.0
H538 H 0.81594 0.01759 0.01296 0.0
H539 H 0.79648 0.97218 0.96175 0.0
S540 S 0.92158 0.056 0.88928 0.0
N541 N 0.91163 0.06984 0.93479 0.0
N542 N 0.89046 0.02025 0.8789 0.0
C543 C 0.87014 0.01826 0.91305 0.0
C544 C 0.88157 0.04521 0.94328 0.0
C545 C 0.9703 0.82664 0.00617 0.0
C546 C 0.94335 0.83024 -0.00052 0.0
C547 C -0.00434 0.8392 0.97458 0.0
C548 C -0.00464 0.85628 0.93522 0.0
H549 H 0.97222 0.81459 0.03665 0.0
H550 H 0.01624 0.83655 0.98228 0.0
S551 S 0.92908 0.8699 0.8994 0.0
N552 N 0.91672 0.85004 0.94867 0.0
N553 N 0.96472 0.87403 0.88939 0.0
C554 C 0.96793 0.85884 0.92692 0.0
C555 C 0.94185 0.84571 0.95899 0.0
C556 C 0.13274 0.15957 0.95799 0.0
C557 C 0.13864 0.16475 0.91025 0.0
C558 C 0.14953 0.14914 0.98542 0.0
C559 C 0.17274 0.14291 0.96636 0.0
H560 H 0.11518 0.16395 0.97477 0.0
H561 H 0.14386 0.1456 0.02197 0.0
S562 S 0.19682 0.15186 0.84285 0.0
N563 N 0.16919 0.16264 0.84469 0.0
N564 N 0.2006 0.14228 0.89645 0.0
C565 C 0.17879 0.14762 0.91852 0.0
C566 C 0.16183 0.15877 0.89046 0.0
C567 C 0.96366 0.8126 0.5374 0.0
C568 C 0.96717 0.82138 0.58422 0.0
C569 C 0.99025 0.82222 0.50881 0.0
C570 C 0.0216 0.84143 0.52562 0.0
H571 H 0.94005 0.79837 0.52242 0.0
H572 H 0.98595 0.8152 0.4728 0.0
S573 S 0.04375 0.86941 0.64677 0.0
N574 N 0.00416 0.84882 0.64718 0.0
N575 N 0.05463 0.86757 0.59319 0.0
C576 C 0.02556 0.84947 0.57298 0.0
C577 C -0.00178 0.83925 0.60236 0.0
C578 C 0.16564 0.16812 0.50567 0.0
C579 C 0.14008 0.1734 0.51564 0.0
C580 C 0.17428 0.15126 0.5362 0.0
C581 C 0.15771 0.13884 0.57808 0.0
H582 H 0.1786 0.17625 0.4733 0.0
H583 H 0.19361 0.14718 0.52606 0.0
S584 S 0.09079 0.14862 0.6227 0.0
N585 N 0.09967 0.16693 0.57203 0.0
N586 N 0.11598 0.13506 0.62963 0.0
C587 C 0.13321 0.14543 0.58982 0.0
C588 C 0.12438 0.16275 0.55856 0.0
C589 C 0.84913 0.98788 0.56853 0.0
C590 C 0.84797 0.01591 0.55857 0.0
C591 C 0.83415 0.961 0.53966 0.0
C592 C 0.81762 0.96126 0.49972 0.0
H593 H 0.86279 0.98706 0.59773 0.0
H594 H 0.8368 0.94044 0.54766 0.0
S595 S 0.80313 0.02672 0.46226 0.0
N596 N 0.82558 0.04077 0.50892 0.0
N597 N 0.79777 0.99041 0.45465 0.0
C598 C 0.81457 0.98834 0.49098 0.0
C599 C 0.82964 0.01562 0.52043 0.0
C600 C 0.85258 0.33106 0.3393 0.0
C601 C 0.82095 0.30696 0.33021 0.0
C602 C 0.85917 0.35482 0.37225 0.0
C603 C 0.83441 0.35537 0.39755 0.0
H604 H 0.87231 0.33265 0.31919 0.0
H605 H 0.88382 0.37372 0.37629 0.0
S606 S 0.74801 0.29399 0.39272 0.0
N607 N 0.76501 0.28242 0.35346 0.0
N608 N 0.77738 0.32704 0.41551 0.0
C609 C 0.80292 0.32987 0.39144 0.0
C610 C 0.7962 0.30571 0.3577 0.0
C611 C 0.64264 0.48699 0.37836 0.0
C612 C 0.63667 0.46185 0.40893 0.0
C613 C 0.67138 0.50313 0.35362 0.0
C614 C 0.69532 0.49464 0.35802 0.0
H615 H 0.62466 0.4939 0.3727 0.0
H616 H 0.67438 0.52185 0.32985 0.0
S617 S 0.69217 0.43137 0.43531 0.0
N618 N 0.6577 0.43015 0.44403 0.0
N619 N 0.71156 0.46009 0.39688 0.0
C620 C 0.69015 0.47023 0.38969 0.0
C621 C 0.6609 0.45397 0.41532 0.0
C622 C 0.4976 0.15015 0.36197 0.0
C623 C 0.51221 0.16742 0.40248 0.0
C624 C 0.4827 0.16067 0.33075 0.0
C625 C 0.48173 0.189 0.33854 0.0
H626 H 0.49839 0.12865 0.3534 0.0
H627 H 0.47271 0.14687 0.2995 0.0
S628 S 0.51355 0.24146 0.44178 0.0
N629 N 0.52262 0.21302 0.45065 0.0
N630 N 0.4945 0.23292 0.3918 0.0
C631 C 0.49464 0.20565 0.38021 0.0
C632 C 0.5099 0.19484 0.41221 0.0
C633 C 0.63701 0.45682 0.778 0.0
C634 C 0.63937 0.47499 0.81739 0.0
C635 C 0.66255 0.46722 0.7467 0.0
C636 C 0.69131 0.49627 0.7535 0.0
H637 H 0.6159 0.43365 0.77236 0.0
H638 H 0.66015 0.45168 0.7181 0.0
S639 S 0.7073 0.55519 0.8472 0.0
N640 N 0.67113 0.52507 0.85862 0.0
N641 N 0.71894 0.54494 0.79969 0.0
C642 C 0.69299 0.51574 0.79101 0.0
C643 C 0.6671 0.505 0.823 0.0
C644 C 0.50934 0.17357 0.72569 0.0
C645 C 0.48338 0.17715 0.73986 0.0
C646 C 0.52049 0.15725 0.75351 0.0
C647 C 0.50593 0.14381 0.79632 0.0
H648 H 0.5221 0.18471 0.69402 0.0
H649 H 0.54145 0.15633 0.74213 0.0
S650 S 0.43372 0.14217 0.84514 0.0
N651 N 0.44106 0.16279 0.79665 0.0
N652 N 0.46173 0.13204 0.84868 0.0
C653 C 0.47857 0.14542 0.80924 0.0
C654 C 0.46738 0.16213 0.78109 0.0
C655 C 0.83924 0.33667 0.80564 0.0
C656 C 0.84431 0.36707 0.79297 0.0
C657 C 0.82218 0.31009 0.77719 0.0
C658 C 0.80948 0.31263 0.73463 0.0
H659 H 0.84764 0.333 0.83857 0.0
H660 H 0.8183 0.28712 0.78938 0.0
S661 S 0.81857 0.38734 0.68295 0.0
N662 N 0.83723 0.39871 0.73314 0.0
N663 N 0.80506 0.34843 0.67946 0.0
C664 C 0.81577 0.34314 0.72016 0.0
C665 C 0.83318 0.37042 0.74937 0.0
C666 C 0.526 0.34517 0.27719 0.0
C667 C 0.50926 0.35615 0.30444 0.0
C668 C 0.50964 0.3174 0.25048 0.0
C669 C 0.4759 0.29961 0.24983 0.0
H670 H 0.55192 0.35708 0.27831 0.0
H671 H 0.52365 0.30904 0.23201 0.0
S672 S 0.42106 0.32189 0.3082 0.0
N673 N 0.45727 0.34977 0.32421 0.0
N674 N 0.42644 0.29766 0.27379 0.0
C675 C 0.45894 0.3119 0.27386 0.0
C676 C 0.47564 0.34011 0.30127 0.0
C677 C 0.68289 0.15857 0.30718 0.0
C678 C 0.68793 0.17758 0.26764 0.0
C679 C 0.6539 0.14491 0.33134 0.0
C680 C 0.62856 0.14945 0.31685 0.0
H681 H 0.70197 0.15528 0.32101 0.0
H682 H 0.6518 0.13156 0.3626 0.0
S683 S 0.62773 0.19333 0.21161 0.0
N684 N 0.66388 0.19744 0.21216 0.0
N685 N 0.60917 0.17155 0.25758 0.0
C686 C 0.63235 0.16646 0.27548 0.0
C687 C 0.66208 0.18057 0.25088 0.0
C688 C 0.83277 0.46245 0.28174 0.0
C689 C 0.85315 0.47993 0.3185 0.0
C690 C 0.81626 0.47452 0.25645 0.0
C691 C 0.81951 0.50453 0.26696 0.0
H692 H 0.82817 0.43854 0.27384 0.0
H693 H 0.79965 0.45946 0.23004 0.0
S694 S 0.87427 0.56217 0.35454 0.0
N695 N 0.87885 0.53058 0.36012 0.0
N696 N 0.84789 0.55323 0.31267 0.0
C697 C 0.8417 0.52329 0.30125 0.0
C698 C 0.85851 0.51101 0.32698 0.0
C699 C 0.63653 0.14556 0.85312 0.0
C700 C 0.63645 0.1607 0.89464 0.0
C701 C 0.66386 0.15763 0.82538 0.0
C702 C 0.6924 0.18543 0.83787 0.0
H703 H 0.61497 0.1246 0.84102 0.0
H704 H 0.66218 0.1455 0.79312 0.0
S705 S 0.70598 0.23239 0.9456 0.0
N706 N 0.66815 0.20362 0.94886 0.0
N707 N 0.71977 0.22643 0.89655 0.0
C708 C 0.69333 0.19987 0.8806 0.0
C709 C 0.66531 0.18749 0.90902 0.0
C710 C 0.81192 0.48396 0.90831 0.0
C711 C 0.84047 0.4838 0.89857 0.0
C712 C 0.80189 0.50118 0.88048 0.0
C713 C 0.82003 0.51879 0.8419 0.0
H714 H 0.79627 0.46928 0.93597 0.0
H715 H 0.77883 0.49906 0.88773 0.0
S716 S 0.89975 0.53139 0.80738 0.0
N717 N 0.88909 0.50669 0.85195 0.0
N718 N 0.87013 0.53884 0.79964 0.0
C719 C 0.84991 0.52103 0.83425 0.0
C720 C 0.86016 0.50358 0.86259 0.0
C721 C 0.53333 0.3439 0.88582 0.0
C722 C 0.51795 0.3621 0.89057 0.0
C723 C 0.52082 0.31696 0.85716 0.0
C724 C 0.49243 0.30713 0.83202 0.0
H725 H 0.55596 0.35117 0.90287 0.0
H726 H 0.53425 0.30455 0.85342 0.0
S727 S 0.44021 0.34346 0.83786 0.0
N728 N 0.4708 0.36615 0.87177 0.0
N729 N 0.44731 0.31551 0.8178 0.0
C730 C 0.47569 0.32385 0.8387 0.0
C731 C 0.48841 0.35129 0.86803 0.0
C732 C 0.50622 0.64943 0.67702 0.0
C733 C 0.47482 0.62729 0.69127 0.0
C734 C 0.52389 0.67916 0.69878 0.0
C735 C 0.51074 0.68806 0.73537 0.0
H736 H 0.5169 0.64435 0.6476 0.0
H737 H 0.54735 0.69588 0.68502 0.0
S738 S 0.43147 0.63702 0.79056 0.0
N739 N 0.43276 0.61491 0.74796 0.0
N740 N 0.46596 0.67098 0.7886 0.0
C741 C 0.48028 0.66533 0.75215 0.0
C742 C 0.46233 0.63489 0.73019 0.0
C743 C 0.3535 0.80194 0.70463 0.0
C744 C 0.35814 0.82693 0.67464 0.0
C745 C 0.32644 0.78685 0.73322 0.0
C746 C 0.30313 0.79636 0.73322 0.0
H747 H 0.37012 0.79295 0.70463 0.0
H748 H 0.32329 0.76684 0.75424 0.0
S749 S 0.30665 0.86388 0.66583 0.0
N750 N 0.33904 0.8628 0.65005 0.0
N751 N 0.28835 0.83476 0.70402 0.0
C752 C 0.30862 0.82278 0.70558 0.0
C753 C 0.33605 0.83794 0.67618 0.0
C754 C 0.20392 0.55428 0.72082 0.0
C755 C 0.17652 0.53228 0.69614 0.0
C756 C 0.21792 0.54395 0.75402 0.0
C757 C 0.20499 0.51122 0.76419 0.0
H758 H 0.2155 0.57969 0.71334 0.0
H759 H 0.23971 0.56179 0.77067 0.0
S760 S 0.13108 0.44409 0.71339 0.0
N761 N 0.13524 0.47642 0.68712 0.0
N762 N 0.1614 0.45695 0.74976 0.0
C763 C 0.17643 0.48906 0.74183 0.0
C764 C 0.16227 0.49959 0.7077 0.0
C765 C 0.34424 0.84107 0.11956 0.0
C766 C 0.34607 0.82142 0.08509 0.0
C767 C 0.31663 0.83074 0.14628 0.0
C768 C 0.28953 0.80037 0.13961 0.0
H769 H 0.36477 0.86423 0.12743 0.0
H770 H 0.31702 0.84633 0.17356 0.0
S771 S 0.28031 0.74121 0.04993 0.0
N772 N 0.31717 0.77128 0.04269 0.0
N773 N 0.26505 0.75186 0.09291 0.0
C774 C 0.2901 0.78131 0.10311 0.0
C775 C 0.31842 0.79183 0.07587 0.0
C776 C 0.21255 0.54097 0.10524 0.0
C777 C 0.1797 0.53103 0.10297 0.0
C778 C 0.22382 0.52525 0.1339 0.0
C779 C 0.20271 0.49913 0.1617 0.0
H780 H 0.22992 0.56178 0.08605 0.0
H781 H 0.24944 0.53461 0.13569 0.0
S782 S 0.11401 0.46055 0.16327 0.0
N783 N 0.12579 0.49094 0.12709 0.0
N784 N 0.1471 0.46171 0.18121 0.0
C785 C 0.16964 0.48765 0.15758 0.0
C786 C 0.15811 0.5035 0.12813 0.0
C787 C 0.48586 0.69027 0.14267 0.0
C788 C 0.50075 0.69117 0.18491 0.0
C789 C 0.47365 0.66326 0.11399 0.0
C790 C 0.47603 0.63623 0.12641 0.0
H791 H 0.48251 0.71005 0.13239 0.0
H792 H 0.46134 0.66325 0.08265 0.0
S793 S 0.51683 0.62841 0.2306 0.0
N794 N 0.51997 0.664 0.23565 0.0
N795 N 0.49731 0.61344 0.18184 0.0
C796 C 0.4925 0.63761 0.16737 0.0
C797 C 0.50476 0.66501 0.1966 0.0
C798 C 0.20049 0.67091 0.58679 0.0
C799 C 0.17064 0.64285 0.5924 0.0
C800 C 0.20896 0.6981 0.61392 0.0
C801 C 0.18792 0.69809 0.64773 0.0
H802 H 0.21811 0.67144 0.56295 0.0
H803 H 0.23279 0.71862 0.60998 0.0
S804 S 0.10478 0.63286 0.67019 0.0
N805 N 0.11833 0.6184 0.62989 0.0
N806 N 0.1345 0.6693 0.68114 0.0
C807 C 0.15719 0.67107 0.65135 0.0
C808 C 0.14847 0.64351 0.62358 0.0
C809 C 0.31773 0.48237 0.69493 0.0
C810 C 0.28746 0.47926 0.68755 0.0
C811 C 0.34256 0.49806 0.66292 0.0
C812 C 0.33835 0.51161 0.62219 0.0
H813 H 0.32263 0.47327 0.72633 0.0
H814 H 0.36559 0.5004 0.67112 0.0
S815 S 0.26284 0.50798 0.58459 0.0
N816 N 0.25393 0.48934 0.63499 0.0
N817 N 0.30076 0.51904 0.57477 0.0
C818 C 0.30777 0.50753 0.6133 0.0
C819 C 0.28231 0.4913 0.64594 0.0
C820 C 0.47478 0.7749 0.61246 0.0
C821 C 0.49738 0.79567 0.64486 0.0
C822 C 0.45998 0.78591 0.58151 0.0
C823 C 0.46733 0.81811 0.58172 0.0
H824 H 0.46718 0.74959 0.6125 0.0
H825 H 0.44146 0.76864 0.55899 0.0
S826 S 0.52949 0.88336 0.65369 0.0
N827 N 0.52963 0.85075 0.67098 0.0
N828 N 0.50211 0.87154 0.61268 0.0
C829 C 0.49182 0.83962 0.6114 0.0
C830 C 0.50674 0.82837 0.64303 0.0
C831 C 0.31358 0.47737 0.21711 0.0
C832 C 0.31533 0.48062 0.26551 0.0
C833 C 0.34099 0.48729 0.19029 0.0
C834 C 0.37157 0.50123 0.21051 0.0
H835 H 0.29078 0.46747 0.19938 0.0
H836 H 0.33808 0.48493 0.15311 0.0
S837 S 0.38915 0.51203 0.3363 0.0
N838 N 0.34987 0.49634 0.33315 0.0
N839 N 0.40185 0.5154 0.28241 0.0
C840 C 0.3737 0.50336 0.2591 0.0
C841 C 0.34549 0.49292 0.28667 0.0
C842 C 0.4511 0.79936 0.26181 0.0
C843 C 0.48155 0.80204 0.25986 0.0
C844 C 0.44247 0.81619 0.23088 0.0
C845 C 0.46387 0.83622 0.19656 0.0
H846 H 0.43329 0.78327 0.28633 0.0
H847 H 0.41831 0.8123 0.23272 0.0
S848 S 0.54801 0.85507 0.18064 0.0
N849 N 0.53437 0.82908 0.22371 0.0
N850 N 0.51794 0.86038 0.16546 0.0
C851 C 0.49501 0.84062 0.19592 0.0
C852 C 0.50391 0.82365 0.22761 0.0
C853 C 0.17843 0.65197 0.25849 0.0
C854 C 0.17714 0.67982 0.24792 0.0
C855 C 0.16379 0.62499 0.22966 0.0
C856 C 0.14733 0.62498 0.18937 0.0
H857 H 0.19229 0.65159 0.28773 0.0
H858 H 0.16679 0.60468 0.23784 0.0
S859 S 0.13223 0.68998 0.15127 0.0
N860 N 0.15458 0.70425 0.19799 0.0
N861 N 0.1271 0.65373 0.14398 0.0
C862 C 0.14386 0.65183 0.1805 0.0
C863 C 0.15875 0.6792 0.20974 0.0
C864 C 0.09746 0.12949 0.22491 0.0
C865 C 0.11622 0.14334 0.26451 0.0
C866 C 0.10886 0.11894 0.18815 0.0
C867 C 0.13934 0.12154 0.18979 0.0
H868 H 0.07413 0.12754 0.22169 0.0
H869 H 0.09383 0.10924 0.15789 0.0
S870 S 0.19642 0.15302 0.28814 0.0
N871 N 0.16581 0.15703 0.30472 0.0
N872 N 0.18711 0.13702 0.23607 0.0
C873 C 0.15778 0.13418 0.2301 0.0
C874 C 0.14628 0.14516 0.26729 0.0
C875 C 0.83598 0.9863 0.25945 0.0
C876 C 0.85245 0.96964 0.2688 0.0
C877 C 0.84716 0.01067 0.22623 0.0
C878 C 0.87493 0.01899 0.20024 0.0
H879 H 0.81448 0.98089 0.27854 0.0
H880 H 0.83353 0.0227 0.22037 0.0
S881 S 0.92659 0.98231 0.2108 0.0
N882 N 0.89801 0.96313 0.24956 0.0
N883 N 0.91865 0.00849 0.18588 0.0
C884 C 0.89154 0.00235 0.20885 0.0
C885 C 0.88044 0.97784 0.24348 0.0
C886 C 0.96984 0.84193 0.25486 0.0
C887 C 0.97064 0.86501 0.22416 0.0
C888 C 0.99286 0.85038 0.28955 0.0
C889 C 0.01721 0.88236 0.29565 0.0
H890 H 0.95186 0.81687 0.25128 0.0
H891 H 0.99149 0.83164 0.31189 0.0
S892 S 0.029 0.95228 0.22633 0.0
N893 N -0.00265 0.92145 0.20294 0.0
N894 N 0.04019 0.93747 0.26939 0.0
C895 C 0.01777 0.90592 0.2663 0.0
C896 C -0.00537 0.8972 0.2302 0.0
C897 C 0.89039 0.86885 0.76241 0.0
C898 C 0.87183 0.85514 0.72256 0.0
C899 C 0.87908 0.87981 0.79874 0.0
C900 C 0.84884 0.87764 0.7966 0.0
H901 H 0.91343 0.87024 0.76632 0.0
H902 H 0.89397 0.88951 0.8291 0.0
S903 S 0.7924 0.84697 0.69741 0.0
N904 N 0.82279 0.84242 0.68141 0.0
N905 N 0.80158 0.86295 0.74949 0.0
C906 C 0.83069 0.86537 0.75594 0.0
C907 C 0.84215 0.85411 0.71904 0.0
C908 C 0.11138 0.97325 0.70943 0.0
C909 C 0.12818 0.00694 0.71121 0.0
C910 C 0.1008 0.95479 0.74987 0.0
C911 C 0.1062 0.96929 0.79365 0.0
H912 H 0.10754 0.96092 0.67673 0.0
H913 H 0.089 0.92895 0.74678 0.0
S914 S 0.14575 0.05678 0.81665 0.0
N915 N 0.14743 0.05411 0.75993 0.0
N916 N 0.12722 0.01951 0.83598 0.0
C917 C 0.12134 0.00298 0.79572 0.0
C918 C 0.13245 0.02178 0.75451 0.0
C919 C 0.00243 0.12103 0.68386 0.0
C920 C 0.97133 0.11638 0.68949 0.0
C921 C 0.02429 0.13153 0.72058 0.0
C922 C 0.01594 0.13784 0.76431 0.0
H923 H 0.01052 0.11786 0.65036 0.0
H924 H 0.04832 0.13598 0.71401 0.0
S925 S 0.93583 0.12424 0.79926 0.0
N926 N 0.93208 0.11516 0.74376 0.0
N927 N 0.97315 0.13489 0.81271 0.0
C928 C 0.98427 0.13127 0.77124 0.0
C929 C 0.96198 0.12054 0.73386 0.0
C930 C 0.8044 0.47453 0.59896 0.0
C931 C 0.7898 0.49255 0.58632 0.0
C932 C 0.81534 0.46121 0.56551 0.0
C933 C 0.81173 0.46496 0.5181 0.0
H934 H 0.80869 0.47173 0.63497 0.0
H935 H 0.82751 0.44861 0.57694 0.0
S936 S 0.77288 0.50778 0.46657 0.0
N937 N 0.77053 0.51166 0.52288 0.0
N938 N 0.79081 0.48642 0.46008 0.0
C939 C 0.79558 0.48137 0.50492 0.0
C940 C 0.7847 0.49521 0.53901 0.0
C941 C 0.4915 0.31785 0.59123 0.0
C942 C 0.50665 0.30006 0.60164 0.0
C943 C 0.50092 0.33853 0.55313 0.0
C944 C 0.52542 0.34177 0.52327 0.0
H945 H 0.47244 0.31617 0.6131 0.0
H946 H 0.48851 0.35173 0.54669 0.0
S947 S 0.57247 0.30016 0.53483 0.0
N948 N 0.54746 0.28702 0.57916 0.0
N949 N 0.56468 0.32536 0.50657 0.0
C950 C 0.54064 0.32391 0.53296 0.0
C951 C 0.53142 0.30325 0.57243 0.0
C952 C 0.64252 0.16803 0.56057 0.0
C953 C 0.63447 0.18848 0.53664 0.0
C954 C 0.6655 0.1796 0.59565 0.0
C955 C 0.68093 0.21198 0.60898 0.0
H956 H 0.63157 0.14292 0.55144 0.0
H957 H 0.67097 0.16286 0.61276 0.0
S958 S 0.6677 0.27529 0.55846 0.0
N959 N 0.64341 0.24266 0.52906 0.0
N960 N 0.68612 0.2643 0.59628 0.0
C961 C 0.67268 0.23264 0.58613 0.0
C962 C 0.64963 0.22094 0.54958 0.0
C963 C 0.51309 0.16189 0.05084 0.0
C964 C 0.53272 0.1819 0.01507 0.0
C965 C 0.50285 0.17395 0.08688 0.0
C966 C 0.51205 0.20662 0.08908 0.0
H967 H 0.50475 0.13642 0.05053 0.0
H968 H 0.48734 0.15732 0.11308 0.0
S969 S 0.56508 0.2697 0.00573 0.0
N970 N 0.56227 0.23641 0.98518 0.0
N971 N 0.54321 0.25918 0.05334 0.0
C972 C 0.53257 0.2272 0.05442 0.0
C973 C 0.54283 0.21481 0.01734 0.0
C974 C 0.78072 0.31558 0.00587 0.0
C975 C 0.80715 0.34646 0.01291 0.0
C976 C 0.76793 0.29326 0.04208 0.0
C977 C 0.78105 0.30087 0.08681 0.0
H978 H 0.77035 0.30812 0.97178 0.0
H979 H 0.74821 0.26954 0.0345 0.0
S980 S 0.8479 0.37974 0.12492 0.0
N981 N 0.84421 0.38438 0.06914 0.0
N982 N 0.82024 0.34253 0.13707 0.0
C983 C 0.80652 0.33217 0.09487 0.0
C984 C 0.81953 0.35491 0.058 0.0
C985 C 0.69579 0.49928 0.05564 0.0
C986 C 0.66337 0.4753 0.05244 0.0
C987 C 0.71206 0.50668 0.0979 0.0
C988 C 0.6967 0.49029 0.13876 0.0
H989 H 0.70862 0.51316 0.02551 0.0
H990 H 0.73677 0.52589 0.09858 0.0
S991 S 0.61263 0.42356 0.14859 0.0
N992 N 0.61695 0.43378 0.09345 0.0
N993 N 0.64758 0.4476 0.17286 0.0
C994 C 0.66464 0.46531 0.1358 0.0
C995 C 0.64798 0.45787 0.09269 0.0
C996 C 0.47366 0.82317 0.93657 0.0
C997 C 0.45849 0.80389 0.97548 0.0
C998 C 0.4843 0.81194 0.89994 0.0
C999 C 0.48008 0.78082 0.90033 0.0
H1000 H 0.47802 0.8475 0.93462 0.0
H1001 H 0.49618 0.82802 0.87119 0.0
S1002 S 0.44013 0.71993 0.99289 0.0
N1003 N 0.43861 0.75157 0.01141 0.0
N1004 N 0.45849 0.73035 0.94232 0.0
C1005 C 0.46418 0.76089 0.93844 0.0
C1006 C 0.45344 0.77244 0.97602 0.0
C1007 C 0.18179 0.65123 0.87942 0.0
C1008 C 0.1939 0.68456 0.87898 0.0
C1009 C 0.17379 0.63391 0.92096 0.0
C1010 C 0.17785 0.64922 0.96385 0.0
H1011 H 0.1775 0.63813 0.84736 0.0
H1012 H 0.16378 0.60818 0.91926 0.0
S1013 S 0.21103 0.73656 0.98203 0.0
N1014 N 0.21128 0.73256 0.9254 0.0
N1015 N 0.19645 0.70009 0.00344 0.0
C1016 C 0.19119 0.68276 0.96409 0.0
C1017 C 0.19912 0.70039 0.9217 0.0
C1018 C 0.37254 0.53511 0.9497 0.0
C1019 C 0.35962 0.53314 0.99403 0.0
C1020 C 0.35328 0.52677 0.91017 0.0
C1021 C 0.32022 0.5157 0.91339 0.0
H1022 H 0.39762 0.5424 0.94547 0.0
H1023 H 0.36424 0.52772 0.87704 0.0
S1024 S 0.27513 0.50949 0.02072 0.0
N1025 N 0.3121 0.52197 0.0384 0.0
N1026 N 0.27587 0.50592 0.96403 0.0
C1027 C 0.30724 0.51511 0.95722 0.0
C1028 C 0.32695 0.52396 0.99753 0.0
C1029 C 0.17747 0.51524 0.44388 0.0
C1030 C 0.19849 0.53549 0.47819 0.0
C1031 C 0.18852 0.50462 0.407 0.0
C1032 C 0.22115 0.51409 0.40235 0.0
H1033 H 0.15203 0.50688 0.44584 0.0
H1034 H 0.17118 0.48884 0.38183 0.0
S1035 S 0.28648 0.5679 0.48174 0.0
N1036 N 0.25381 0.56528 0.50459 0.0
N1037 N 0.27463 0.54555 0.43471 0.0
C1038 C 0.24265 0.53488 0.4358 0.0
C1039 C 0.23131 0.54549 0.47384 0.0
C1040 C 0.46091 0.67099 0.48732 0.0
C1041 C 0.44133 0.63753 0.48361 0.0
C1042 C 0.47013 0.69072 0.44809 0.0
C1043 C 0.45975 0.67785 0.40365 0.0
H1044 H 0.47052 0.68196 0.52052 0.0
H1045 H 0.48632 0.71618 0.45258 0.0
S1046 S 0.40441 0.59209 0.37617 0.0
N1047 N 0.40933 0.59264 0.43271 0.0
N1048 N 0.42611 0.62968 0.35892 0.0
C1049 C 0.4384 0.64462 0.39984 0.0
C1050 C 0.42937 0.62448 0.43981 0.0
C1051 C 0.32924 0.77501 0.43607 0.0
C1052 C 0.34629 0.80761 0.4484 0.0
C1053 C 0.30849 0.76454 0.39787 0.0
C1054 C 0.30342 0.78621 0.37161 0.0
H1055 H 0.332 0.75746 0.456 0.0
H1056 H 0.2958 0.73924 0.3895 0.0
S1057 S 0.34249 0.87412 0.38917 0.0
N1058 N 0.35715 0.86155 0.43059 0.0
N1059 N 0.31763 0.84178 0.3598 0.0
C1060 C 0.32039 0.81885 0.38348 0.0
C1061 C 0.34199 0.82959 0.42161 0.0
C1062 C 0.30854 0.14169 0.17642 0.0
C1063 C 0.29542 0.14702 0.13621 0.0
C1064 C 0.34172 0.15659 0.18285 0.0
C1065 C 0.36327 0.17744 0.14932 0.0
H1066 H 0.2931 0.12585 0.20337 0.0
H1067 H 0.35046 0.15157 0.21449 0.0
S1068 S 0.34134 0.19965 0.03767 0.0
N1069 N 0.30668 0.1748 0.06218 0.0
N1070 N 0.36903 0.20277 0.07427 0.0
C1071 C 0.35053 0.18309 0.1089 0.0
C1072 C 0.31665 0.16791 0.10235 0.0
C1073 C 0.83466 0.19373 0.19257 0.0
C1074 C 0.8064 0.1848 0.16744 0.0
C1075 C 0.85191 0.17761 0.18692 0.0
C1076 C 0.84163 0.15182 0.15597 0.0
H1077 H 0.84375 0.21349 0.21676 0.0
H1078 H 0.87357 0.18562 0.20697 0.0
S1079 S 0.76876 0.11842 0.08237 0.0
N1080 N 0.76864 0.14807 0.11074 0.0
N1081 N 0.80098 0.11777 0.10016 0.0
C1082 C 0.81324 0.1424 0.13085 0.0
C1083 C 0.79567 0.15888 0.13656 0.0
C1084 C 0.83089 0.65846 0.16268 0.0
C1085 C 0.81243 0.64377 0.20239 0.0
C1086 C 0.84503 0.69151 0.15543 0.0
C1087 C 0.84141 0.71138 0.18762 0.0
H1088 H 0.83452 0.64438 0.13673 0.0
H1089 H 0.85903 0.7015 0.12425 0.0
S1090 S 0.79529 0.68491 0.29744 0.0
N1091 N 0.79117 0.6517 0.27448 0.0
N1092 N 0.8178 0.71386 0.26086 0.0
C1093 C 0.82297 0.69706 0.22754 0.0
C1094 C 0.80848 0.66329 0.23492 0.0
C1095 C 0.16048 0.34158 0.29766 0.0
C1096 C 0.17982 0.36172 0.33345 0.0
C1097 C 0.14578 0.30819 0.30124 0.0
C1098 C 0.14978 0.29349 0.34078 0.0
H1099 H 0.15673 0.35162 0.26632 0.0
H1100 H 0.13126 0.29385 0.27259 0.0
S1101 S 0.19764 0.33534 0.44483 0.0
N1102 N 0.20186 0.36443 0.41013 0.0
N1103 N 0.17429 0.30176 0.41692 0.0
C1104 C 0.16886 0.31332 0.37707 0.0
C1105 C 0.18385 0.34737 0.3734 0.0
C1106 C 0.64254 0.84223 0.3545 0.0
C1107 C 0.62384 0.8106 0.33857 0.0
C1108 C 0.67584 0.85652 0.35856 0.0
C1109 C 0.69193 0.83983 0.34677 0.0
H1110 H 0.63145 0.85625 0.36383 0.0
H1111 H 0.68904 0.88098 0.3709 0.0
S1112 S 0.65411 0.75616 0.3037 0.0
N1113 N 0.62392 0.76277 0.31125 0.0
N1114 N 0.6865 0.78968 0.31887 0.0
C1115 C 0.67355 0.80808 0.33102 0.0
C1116 C 0.63955 0.79346 0.32695 0.0
C1117 C 0.17599 0.83419 0.29521 0.0
C1118 C 0.17153 0.80707 0.31999 0.0
C1119 C 0.15791 0.84892 0.3052 0.0
C1120 C 0.13461 0.83719 0.34041 0.0
H1121 H 0.19374 0.84435 0.26793 0.0
H1122 H 0.16249 0.86985 0.28524 0.0
S1123 S 0.11287 0.76624 0.4149 0.0
N1124 N 0.14152 0.76865 0.38088 0.0
N1125 N 0.10759 0.79632 0.39965 0.0
C1126 C 0.12963 0.80987 0.36523 0.0
C1127 C 0.14805 0.79483 0.35503 0.0
C1128 C 0.673 0.83305 0.87239 0.0
C1129 C 0.69384 0.85083 0.83605 0.0
C1130 C 0.63971 0.81656 0.86648 0.0
C1131 C 0.62579 0.81713 0.824 0.0
H1132 H 0.6824 0.83197 0.90595 0.0
H1133 H 0.62481 0.80348 0.89572 0.0
S1134 S 0.66968 0.85909 0.71713 0.0
N1135 N 0.69808 0.86729 0.75552 0.0
N1136 N 0.63556 0.83633 0.7444 0.0
C1137 C 0.64633 0.8345 0.78711 0.0
C1138 C 0.68029 0.85131 0.79314 0.0
C1139 C 0.16653 0.8235 0.86135 0.0
C1140 C 0.16373 0.80682 0.82016 0.0
C1141 C 0.14912 0.83929 0.86824 0.0
C1142 C 0.12814 0.83915 0.83423 0.0
H1143 H 0.18233 0.82445 0.88872 0.0
H1144 H 0.15229 0.8518 0.90062 0.0
S1145 S 0.11199 0.79892 0.71996 0.0
N1146 N 0.1382 0.79103 0.74465 0.0
N1147 N 0.10548 0.82075 0.75764 0.0
C1148 C 0.12499 0.8225 0.79282 0.0
C1149 C 0.14276 0.80635 0.78578 0.0
C1150 C 0.14841 0.33456 0.813 0.0
C1151 C 0.17778 0.35644 0.83352 0.0
C1152 C 0.13085 0.30276 0.82833 0.0
C1153 C 0.1419 0.29144 0.86486 0.0
H1154 H 0.1386 0.34204 0.78511 0.0
H1155 H 0.10824 0.28704 0.81156 0.0
S1156 S 0.21818 0.33863 0.92911 0.0
N1157 N 0.21772 0.36421 0.8915 0.0
N1158 N 0.18472 0.3045 0.92025 0.0
C1159 C 0.17151 0.3129 0.88525 0.0
C1160 C 0.18944 0.34534 0.86961 0.0
C1161 C 0.82447 0.68858 0.67476 0.0
C1162 C 0.84528 0.6975 0.63647 0.0
C1163 C 0.81216 0.65842 0.69552 0.0
C1164 C 0.82006 0.63579 0.6789 0.0
H1165 H 0.81758 0.70504 0.68911 0.0
H1166 H 0.79622 0.65288 0.72483 0.0
S1167 S 0.87348 0.64698 0.57927 0.0
N1168 N 0.87322 0.68107 0.5826 0.0
N1169 N 0.85006 0.62435 0.62155 0.0
C1170 C 0.84086 0.64431 0.64058 0.0
C1171 C 0.85345 0.67513 0.61941 0.0
C1172 C 0.30641 0.13374 0.6424 0.0
C1173 C 0.28537 0.1403 0.66773 0.0
C1174 C 0.33957 0.15169 0.64875 0.0
C1175 C 0.35317 0.17701 0.68068 0.0
H1176 H 0.2973 0.1147 0.617 0.0
H1177 H 0.35462 0.14573 0.62805 0.0
S1178 S 0.30862 0.20329 0.75724 0.0
N1179 N 0.28051 0.17342 0.72711 0.0
N1180 N 0.34291 0.20723 0.73908 0.0
C1181 C 0.33244 0.18364 0.7068 0.0
C1182 C 0.29856 0.16528 0.70033 0.0
C1183 C 0.8198 0.13895 0.67441 0.0
C1184 C 0.84429 0.15009 0.64099 0.0
C1185 C 0.803 0.15518 0.68308 0.0
C1186 C 0.80995 0.18326 0.6587 0.0
H1187 H 0.81338 0.11742 0.69412 0.0
H1188 H 0.78432 0.14546 0.70912 0.0
S1189 S 0.87224 0.22281 0.56786 0.0
N1190 N 0.87491 0.19125 0.58353 0.0
N1191 N 0.84333 0.22174 0.59985 0.0
C1192 C 0.8345 0.19481 0.62527 0.0
C1193 C 0.85165 0.17825 0.61642 0.0
C1194 C 0.01953 0.48104 0.53542 0.0
C1195 C 0.04015 0.51291 0.52146 0.0
C1196 C 0.98678 0.46532 0.52486 0.0
C1197 C 0.97325 0.48084 0.50004 0.0
H1198 H 0.02877 0.46792 0.55429 0.0
H1199 H 0.97205 0.44068 0.53601 0.0
S1200 S 0.01659 0.56496 0.4575 0.0
N1201 N 0.04444 0.55987 0.48283 0.0
N1202 N 0.983 0.53042 0.46307 0.0
C1203 C 0.99352 0.51292 0.4865 0.0
C1204 C 0.0269 0.52891 0.49715 0.0
C1205 C 0.49033 0.50722 0.53546 0.0
C1206 C 0.46905 0.5089 0.50371 0.0
C1207 C 0.50625 0.49034 0.52526 0.0
C1208 C 0.50161 0.47435 0.48288 0.0
H1209 H 0.49473 0.51893 0.56876 0.0
H1210 H 0.52219 0.48971 0.55113 0.0
S1211 S 0.449 0.47191 0.38705 0.0
N1212 N 0.4446 0.49353 0.42754 0.0
N1213 N 0.47451 0.46176 0.40832 0.0
C1214 C 0.4806 0.47603 0.4505 0.0
C1215 C 0.46435 0.49329 0.46092 0.0
C1216 C 0.5097 0.00926 0.46056 0.0
C1217 C 0.50625 0.03004 0.49121 0.0
C1218 C 0.49317 0.97608 0.46753 0.0
C1219 C 0.47245 0.96216 0.50548 0.0
H1220 H 0.52535 0.01863 0.43075 0.0
H1221 H 0.49677 0.96128 0.44283 0.0
S1222 S 0.45485 0.00584 0.59616 0.0
N1223 N 0.48042 0.03421 0.56114 0.0
N1224 N 0.44933 0.97181 0.57429 0.0
C1225 C 0.46868 0.9826 0.53648 0.0
C1226 C 0.48556 0.0165 0.52934 0.0
C1227 C 0.51676 0.01377 0.01643 0.0
C1228 C 0.50674 0.02402 0.97749 0.0
C1229 C 0.5021 0.98131 0.02854 0.0
C1230 C 0.47679 0.95768 0.0022 0.0
H1231 H 0.53606 0.03094 0.03804 0.0
H1232 H 0.51071 0.97479 0.05895 0.0
S1233 S 0.44172 0.97172 0.89637 0.0
N1234 N 0.47004 0.00776 0.9122 0.0
N1235 N 0.4425 0.94681 0.9349 0.0
C1236 C 0.46659 0.96753 0.96296 0.0
C1237 C 0.48154 0.00064 0.95063 0.0
C1238 C 0.97893 0.49647 0.01627 0.0
C1239 C 0.96733 0.47391 0.98021 0.0
C1240 C 0.01152 0.51328 0.02744 0.0
C1241 C 0.03396 0.50827 0.00307 0.0
H1242 H 0.96279 0.50145 0.036 0.0
H1243 H 0.01913 0.53051 0.05536 0.0
S1244 S 0.01593 0.4512 0.9062 0.0
N1245 N 0.98085 0.44697 0.92054 0.0
N1246 N 0.04213 0.47859 0.94158 0.0
C1247 C 0.02269 0.48552 0.9672 0.0
C1248 C 0.9894 0.46836 0.95577 0.0
C1249 C 0.51258 0.47434 0.04729 0.0
C1250 C 0.52993 0.48086 0.00571 0.0
C1251 C 0.49426 0.48878 0.05736 0.0
C1252 C 0.49252 0.51041 0.02633 0.0
H1253 H 0.5131 0.45793 0.07249 0.0
H1254 H 0.48143 0.48291 0.08994 0.0
S1255 S 0.5331 0.5354 0.91217 0.0
N1256 N 0.54397 0.51029 0.93289 0.0
N1257 N 0.50956 0.53744 0.95187 0.0
C1258 C 0.50969 0.51715 0.9845 0.0
C1259 C 0.52836 0.50238 0.97419 0.0
loop_
_geom_bond_atom_site_label_1
_geom_bond_atom_site_label_2
_geom_bond_distance
_geom_bond_site_symmetry_2
_ccdc_geom_bond_type
C0 O1 1.160 . S
C0 O7 1.185 . S
O1 C0 1.160 . S
O2 Zn3 1.899 . S
O2 C10 1.284 . S
Zn3 O2 1.899 . S
Zn3 O4 2.032 . S
Zn3 O7 2.086 . S
Zn3 O12 1.977 . S
O4 Zn3 2.032 . S
O4 C8 1.278 . S
C5 O6 1.203 . S
C5 O12 1.267 . S
O6 C5 1.203 . S
O7 C0 1.185 . S
O7 Zn3 2.086 . S
C8 O4 1.278 . S
C8 O9 1.211 . S
O9 C8 1.211 . S
C10 O2 1.284 . S
C10 O11 1.273 . S
O11 C10 1.273 . S
O12 Zn3 1.977 . S
O12 C5 1.267 . S
C13 O14 1.160 . S
C13 O20 1.185 . S
O14 C13 1.160 . S
O15 Zn16 1.899 . S
O15 C23 1.284 . S
Zn16 O15 1.899 . S
Zn16 O17 2.032 . S
Zn16 O20 2.086 . S
Zn16 O25 1.977 . S
O17 Zn16 2.032 . S
O17 C21 1.278 . S
C18 O19 1.203 . S
C18 O25 1.267 . S
O19 C18 1.203 . S
O20 C13 1.185 . S
O20 Zn16 2.086 . S
C21 O17 1.278 . S
C21 O22 1.211 . S
O22 C21 1.211 . S
C23 O15 1.284 . S
C23 O24 1.273 . S
O24 C23 1.273 . S
O25 Zn16 1.977 . S
O25 C18 1.267 . S
C26 O27 1.160 . S
C26 O33 1.185 . S
O27 C26 1.160 . S
O28 Zn29 1.899 . S
O28 C36 1.284 . S
Zn29 O28 1.899 . S
Zn29 O30 2.032 . S
Zn29 O33 2.086 . S
Zn29 O38 1.977 . S
O30 Zn29 2.032 . S
O30 C34 1.278 . S
C31 O32 1.203 . S
C31 O38 1.267 . S
O32 C31 1.203 . S
O33 C26 1.185 . S
O33 Zn29 2.086 . S
C34 O30 1.278 . S
C34 O35 1.211 . S
O35 C34 1.211 . S
C36 O28 1.284 . S
C36 O37 1.273 . S
O37 C36 1.273 . S
O38 Zn29 1.977 . S
O38 C31 1.267 . S
C39 O40 1.160 . S
C39 O46 1.185 . S
O40 C39 1.160 . S
O41 Zn42 1.899 . S
O41 C49 1.284 . S
Zn42 O41 1.899 . S
Zn42 O43 2.032 . S
Zn42 O46 2.086 . S
Zn42 O51 1.977 . S
O43 Zn42 2.032 . S
O43 C47 1.278 . S
C44 O45 1.203 . S
C44 O51 1.267 . S
O45 C44 1.203 . S
O46 C39 1.185 . S
O46 Zn42 2.086 . S
C47 O43 1.278 . S
C47 O48 1.211 . S
O48 C47 1.211 . S
C49 O41 1.284 . S
C49 O50 1.273 . S
O50 C49 1.273 . S
O51 Zn42 1.977 . S
O51 C44 1.267 . S
C52 O53 1.160 . S
C52 O59 1.185 . S
O53 C52 1.160 . S
O54 Zn55 1.899 . S
O54 C62 1.284 . S
Zn55 O54 1.899 . S
Zn55 O56 2.032 . S
Zn55 O59 2.086 . S
Zn55 O64 1.977 . S
O56 Zn55 2.032 . S
O56 C60 1.278 . S
C57 O58 1.203 . S
C57 O64 1.267 . S
O58 C57 1.203 . S
O59 C52 1.185 . S
O59 Zn55 2.086 . S
C60 O56 1.278 . S
C60 O61 1.211 . S
O61 C60 1.211 . S
C62 O54 1.284 . S
C62 O63 1.273 . S
O63 C62 1.273 . S
O64 Zn55 1.977 . S
O64 C57 1.267 . S
C65 O66 1.160 . S
C65 O72 1.185 . S
O66 C65 1.160 . S
O67 Zn68 1.899 . S
O67 C75 1.284 . S
Zn68 O67 1.899 . S
Zn68 O69 2.032 . S
Zn68 O72 2.086 . S
Zn68 O77 1.977 . S
O69 Zn68 2.032 . S
O69 C73 1.278 . S
C70 O71 1.203 . S
C70 O77 1.267 . S
O71 C70 1.203 . S
O72 C65 1.185 . S
O72 Zn68 2.086 . S
C73 O69 1.278 . S
C73 O74 1.211 . S
O74 C73 1.211 . S
C75 O67 1.284 . S
C75 O76 1.273 . S
O76 C75 1.273 . S
O77 Zn68 1.977 . S
O77 C70 1.267 . S
C78 O79 1.160 . S
C78 O85 1.185 . S
O79 C78 1.160 . S
O80 Zn81 1.899 . S
O80 C88 1.284 . S
Zn81 O80 1.899 . S
Zn81 O82 2.032 . S
Zn81 O85 2.086 . S
Zn81 O90 1.977 . S
O82 Zn81 2.032 . S
O82 C86 1.278 . S
C83 O84 1.203 . S
C83 O90 1.267 . S
O84 C83 1.203 . S
O85 C78 1.185 . S
O85 Zn81 2.086 . S
C86 O82 1.278 . S
C86 O87 1.211 . S
O87 C86 1.211 . S
C88 O80 1.284 . S
C88 O89 1.273 . S
O89 C88 1.273 . S
O90 Zn81 1.977 . S
O90 C83 1.267 . S
C91 O92 1.160 . S
C91 O98 1.185 . S
O92 C91 1.160 . S
O93 Zn94 1.899 . S
O93 C101 1.284 . S
Zn94 O93 1.899 . S
Zn94 O95 2.032 . S
Zn94 O98 2.086 . S
Zn94 O103 1.977 . S
O95 Zn94 2.032 . S
O95 C99 1.278 . S
C96 O97 1.203 . S
C96 O103 1.267 . S
O97 C96 1.203 . S
O98 C91 1.185 . S
O98 Zn94 2.086 . S
C99 O95 1.278 . S
C99 O100 1.211 . S
O100 C99 1.211 . S
C101 O93 1.284 . S
C101 O102 1.273 . S
O102 C101 1.273 . S
O103 Zn94 1.977 . S
O103 C96 1.267 . S
C104 O105 1.160 . S
C104 O111 1.185 . S
O105 C104 1.160 . S
O106 Zn107 1.899 . S
O106 C114 1.284 . S
Zn107 O106 1.899 . S
Zn107 O108 2.032 . S
Zn107 O111 2.086 . S
Zn107 O116 1.977 . S
O108 Zn107 2.032 . S
O108 C112 1.278 . S
C109 O110 1.203 . S
C109 O116 1.267 . S
O110 C109 1.203 . S
O111 C104 1.185 . S
O111 Zn107 2.086 . S
C112 O108 1.278 . S
C112 O113 1.211 . S
O113 C112 1.211 . S
C114 O106 1.284 . S
C114 O115 1.273 . S
O115 C114 1.273 . S
O116 Zn107 1.977 . S
O116 C109 1.267 . S
C117 O118 1.160 . S
C117 O124 1.185 . S
O118 C117 1.160 . S
O119 Zn120 1.899 . S
O119 C127 1.284 . S
Zn120 O119 1.899 . S
Zn120 O121 2.032 . S
Zn120 O124 2.086 . S
Zn120 O129 1.977 . S
O121 Zn120 2.032 . S
O121 C125 1.278 . S
C122 O123 1.203 . S
C122 O129 1.267 . S
O123 C122 1.203 . S
O124 C117 1.185 . S
O124 Zn120 2.086 . S
C125 O121 1.278 . S
C125 O126 1.211 . S
O126 C125 1.211 . S
C127 O119 1.284 . S
C127 O128 1.273 . S
O128 C127 1.273 . S
O129 Zn120 1.977 . S
O129 C122 1.267 . S
C130 O131 1.160 . S
C130 O137 1.185 . S
O131 C130 1.160 . S
O132 Zn133 1.899 . S
O132 C140 1.284 . S
Zn133 O132 1.899 . S
Zn133 O134 2.032 . S
Zn133 O137 2.086 . S
Zn133 O142 1.977 . S
O134 Zn133 2.032 . S
O134 C138 1.278 . S
C135 O136 1.203 . S
C135 O142 1.267 . S
O136 C135 1.203 . S
O137 C130 1.185 . S
O137 Zn133 2.086 . S
C138 O134 1.278 . S
C138 O139 1.211 . S
O139 C138 1.211 . S
C140 O132 1.284 . S
C140 O141 1.273 . S
O141 C140 1.273 . S
O142 Zn133 1.977 . S
O142 C135 1.267 . S
C143 O144 1.160 . S
C143 O150 1.185 . S
O144 C143 1.160 . S
O145 Zn146 1.899 . S
O145 C153 1.284 . S
Zn146 O145 1.899 . S
Zn146 O147 2.032 . S
Zn146 O150 2.086 . S
Zn146 O155 1.977 . S
O147 Zn146 2.032 . S
O147 C151 1.278 . S
C148 O149 1.203 . S
C148 O155 1.267 . S
O149 C148 1.203 . S
O150 C143 1.185 . S
O150 Zn146 2.086 . S
C151 O147 1.278 . S
C151 O152 1.211 . S
O152 C151 1.211 . S
C153 O145 1.284 . S
C153 O154 1.273 . S
O154 C153 1.273 . S
O155 Zn146 1.977 . S
O155 C148 1.267 . S
C156 O157 1.160 . S
C156 O163 1.185 . S
O157 C156 1.160 . S
O158 Zn159 1.899 . S
O158 C166 1.284 . S
Zn159 O158 1.899 . S
Zn159 O160 2.032 . S
Zn159 O163 2.086 . S
Zn159 O168 1.977 . S
O160 Zn159 2.032 . S
O160 C164 1.278 . S
C161 O162 1.203 . S
C161 O168 1.267 . S
O162 C161 1.203 . S
O163 C156 1.185 . S
O163 Zn159 2.086 . S
C164 O160 1.278 . S
C164 O165 1.211 . S
O165 C164 1.211 . S
C166 O158 1.284 . S
C166 O167 1.273 . S
O167 C166 1.273 . S
O168 Zn159 1.977 . S
O168 C161 1.267 . S
C169 O170 1.160 . S
C169 O176 1.185 . S
O170 C169 1.160 . S
O171 Zn172 1.899 . S
O171 C179 1.284 . S
Zn172 O171 1.899 . S
Zn172 O173 2.032 . S
Zn172 O176 2.086 . S
Zn172 O181 1.977 . S
O173 Zn172 2.032 . S
O173 C177 1.278 . S
C174 O175 1.203 . S
C174 O181 1.267 . S
O175 C174 1.203 . S
O176 C169 1.185 . S
O176 Zn172 2.086 . S
C177 O173 1.278 . S
C177 O178 1.211 . S
O178 C177 1.211 . S
C179 O171 1.284 . S
C179 O180 1.273 . S
O180 C179 1.273 . S
O181 Zn172 1.977 . S
O181 C174 1.267 . S
C182 O183 1.160 . S
C182 O189 1.185 . S
O183 C182 1.160 . S
O184 Zn185 1.899 . S
O184 C192 1.284 . S
Zn185 O184 1.899 . S
Zn185 O186 2.032 . S
Zn185 O189 2.086 . S
Zn185 O194 1.977 . S
O186 Zn185 2.032 . S
O186 C190 1.278 . S
C187 O188 1.203 . S
C187 O194 1.267 . S
O188 C187 1.203 . S
O189 C182 1.185 . S
O189 Zn185 2.086 . S
C190 O186 1.278 . S
C190 O191 1.211 . S
O191 C190 1.211 . S
C192 O184 1.284 . S
C192 O193 1.273 . S
O193 C192 1.273 . S
O194 Zn185 1.977 . S
O194 C187 1.267 . S
C195 O196 1.160 . S
C195 O202 1.185 . S
O196 C195 1.160 . S
O197 Zn198 1.899 . S
O197 C205 1.284 . S
Zn198 O197 1.899 . S
Zn198 O199 2.032 . S
Zn198 O202 2.086 . S
Zn198 O207 1.977 . S
O199 Zn198 2.032 . S
O199 C203 1.278 . S
C200 O201 1.203 . S
C200 O207 1.267 . S
O201 C200 1.203 . S
O202 C195 1.185 . S
O202 Zn198 2.086 . S
C203 O199 1.278 . S
C203 O204 1.211 . S
O204 C203 1.211 . S
C205 O197 1.284 . S
C205 O206 1.273 . S
O206 C205 1.273 . S
O207 Zn198 1.977 . S
O207 C200 1.267 . S
C208 O209 1.160 . S
C208 O215 1.185 . S
O209 C208 1.160 . S
O210 Zn211 1.899 . S
O210 C218 1.284 . S
Zn211 O210 1.899 . S
Zn211 O212 2.032 . S
Zn211 O215 2.086 . S
Zn211 O220 1.977 . S
O212 Zn211 2.032 . S
O212 C216 1.278 . S
C213 O214 1.203 . S
C213 O220 1.267 . S
O214 C213 1.203 . S
O215 C208 1.185 . S
O215 Zn211 2.086 . S
C216 O212 1.278 . S
C216 O217 1.211 . S
O217 C216 1.211 . S
C218 O210 1.284 . S
C218 O219 1.273 . S
O219 C218 1.273 . S
O220 Zn211 1.977 . S
O220 C213 1.267 . S
C221 O222 1.160 . S
C221 O228 1.185 . S
O222 C221 1.160 . S
O223 Zn224 1.899 . S
O223 C231 1.284 . S
Zn224 O223 1.899 . S
Zn224 O225 2.032 . S
Zn224 O228 2.086 . S
Zn224 O233 1.977 . S
O225 Zn224 2.032 . S
O225 C229 1.278 . S
C226 O227 1.203 . S
C226 O233 1.267 . S
O227 C226 1.203 . S
O228 C221 1.185 . S
O228 Zn224 2.086 . S
C229 O225 1.278 . S
C229 O230 1.211 . S
O230 C229 1.211 . S
C231 O223 1.284 . S
C231 O232 1.273 . S
O232 C231 1.273 . S
O233 Zn224 1.977 . S
O233 C226 1.267 . S
C234 O235 1.160 . S
C234 O241 1.185 . S
O235 C234 1.160 . S
O236 Zn237 1.899 . S
O236 C244 1.284 . S
Zn237 O236 1.899 . S
Zn237 O238 2.032 . S
Zn237 O241 2.086 . S
Zn237 O246 1.977 . S
O238 Zn237 2.032 . S
O238 C242 1.278 . S
C239 O240 1.203 . S
C239 O246 1.267 . S
O240 C239 1.203 . S
O241 C234 1.185 . S
O241 Zn237 2.086 . S
C242 O238 1.278 . S
C242 O243 1.211 . S
O243 C242 1.211 . S
C244 O236 1.284 . S
C244 O245 1.273 . S
O245 C244 1.273 . S
O246 Zn237 1.977 . S
O246 C239 1.267 . S
C247 O248 1.160 . S
C247 O254 1.185 . S
O248 C247 1.160 . S
O249 Zn250 1.899 . S
O249 C257 1.284 . S
Zn250 O249 1.899 . S
Zn250 O251 2.032 . S
Zn250 O254 2.086 . S
Zn250 O259 1.977 . S
O251 Zn250 2.032 . S
O251 C255 1.278 . S
C252 O253 1.203 . S
C252 O259 1.267 . S
O253 C252 1.203 . S
O254 C247 1.185 . S
O254 Zn250 2.086 . S
C255 O251 1.278 . S
C255 O256 1.211 . S
O256 C255 1.211 . S
C257 O249 1.284 . S
C257 O258 1.273 . S
O258 C257 1.273 . S
O259 Zn250 1.977 . S
O259 C252 1.267 . S
C260 O261 1.160 . S
C260 O267 1.185 . S
O261 C260 1.160 . S
O262 Zn263 1.899 . S
O262 C270 1.284 . S
Zn263 O262 1.899 . S
Zn263 O264 2.032 . S
Zn263 O267 2.086 . S
Zn263 O272 1.977 . S
O264 Zn263 2.032 . S
O264 C268 1.278 . S
C265 O266 1.203 . S
C265 O272 1.267 . S
O266 C265 1.203 . S
O267 C260 1.185 . S
O267 Zn263 2.086 . S
C268 O264 1.278 . S
C268 O269 1.211 . S
O269 C268 1.211 . S
C270 O262 1.284 . S
C270 O271 1.273 . S
O271 C270 1.273 . S
O272 Zn263 1.977 . S
O272 C265 1.267 . S
C273 O274 1.160 . S
C273 O280 1.185 . S
O274 C273 1.160 . S
O275 Zn276 1.899 . S
O275 C283 1.284 . S
Zn276 O275 1.899 . S
Zn276 O277 2.032 1_556 S
Zn276 O280 2.086 . S
Zn276 O285 1.977 . S
O277 Zn276 2.032 1_554 S
O277 C281 1.278 . S
C278 O279 1.203 . S
C278 O285 1.267 . S
O279 C278 1.203 . S
O280 C273 1.185 . S
O280 Zn276 2.086 . S
C281 O277 1.278 . S
C281 O282 1.211 1_554 S
O282 C281 1.211 1_556 S
C283 O275 1.284 . S
C283 O284 1.273 . S
O284 C283 1.273 . S
O285 Zn276 1.977 . S
O285 C278 1.267 . S
C286 O287 1.160 . S
C286 O293 1.185 . S
O287 C286 1.160 . S
O288 Zn289 1.899 . S
O288 C296 1.284 . S
Zn289 O288 1.899 . S
Zn289 O290 2.032 1_556 S
Zn289 O293 2.086 . S
Zn289 O298 1.977 . S
O290 Zn289 2.032 1_554 S
O290 C294 1.278 . S
C291 O292 1.203 . S
C291 O298 1.267 . S
O292 C291 1.203 . S
O293 C286 1.185 . S
O293 Zn289 2.086 . S
C294 O290 1.278 . S
C294 O295 1.211 1_554 S
O295 C294 1.211 1_556 S
C296 O288 1.284 . S
C296 O297 1.273 . S
O297 C296 1.273 . S
O298 Zn289 1.977 . S
O298 C291 1.267 . S
C299 O300 1.160 . S
C299 O306 1.185 . S
O300 C299 1.160 . S
O301 Zn302 1.899 . S
O301 C309 1.284 . S
Zn302 O301 1.899 . S
Zn302 O303 2.032 1_556 S
Zn302 O306 2.086 . S
Zn302 O311 1.977 . S
O303 Zn302 2.032 1_554 S
O303 C307 1.278 . S
C304 O305 1.203 . S
C304 O311 1.267 . S
O305 C304 1.203 . S
O306 C299 1.185 . S
O306 Zn302 2.086 . S
C307 O303 1.278 . S
C307 O308 1.211 1_554 S
O308 C307 1.211 1_556 S
C309 O301 1.284 . S
C309 O310 1.273 . S
O310 C309 1.273 . S
O311 Zn302 1.977 . S
O311 C304 1.267 . S
C312 O313 1.160 . S
C312 O319 1.185 . S
O313 C312 1.160 . S
O314 Zn315 1.899 . S
O314 C322 1.284 . S
Zn315 O314 1.899 . S
Zn315 O316 2.032 . S
Zn315 O319 2.086 . S
Zn315 O324 1.977 . S
O316 Zn315 2.032 . S
O316 C320 1.278 . S
C317 O318 1.203 . S
C317 O324 1.267 . S
O318 C317 1.203 . S
O319 C312 1.185 . S
O319 Zn315 2.086 . S
C320 O316 1.278 . S
C320 O321 1.211 . S
O321 C320 1.211 . S
C322 O314 1.284 . S
C322 O323 1.273 . S
O323 C322 1.273 . S
O324 Zn315 1.977 . S
O324 C317 1.267 . S
C325 O326 1.160 . S
C325 O332 1.185 . S
O326 C325 1.160 . S
O327 Zn328 1.899 . S
O327 C335 1.284 . S
Zn328 O327 1.899 . S
Zn328 O329 2.032 . S
Zn328 O332 2.086 . S
Zn328 O337 1.977 . S
O329 Zn328 2.032 . S
O329 C333 1.278 . S
C330 O331 1.203 . S
C330 O337 1.267 . S
O331 C330 1.203 . S
O332 C325 1.185 . S
O332 Zn328 2.086 . S
C333 O329 1.278 . S
C333 O334 1.211 . S
O334 C333 1.211 . S
C335 O327 1.284 . S
C335 O336 1.273 . S
O336 C335 1.273 . S
O337 Zn328 1.977 . S
O337 C330 1.267 . S
C338 O339 1.160 . S
C338 O345 1.185 . S
O339 C338 1.160 . S
O340 Zn341 1.899 . S
O340 C348 1.284 . S
Zn341 O340 1.899 . S
Zn341 O342 2.032 . S
Zn341 O345 2.086 . S
Zn341 O350 1.977 . S
O342 Zn341 2.032 . S
O342 C346 1.278 . S
C343 O344 1.203 . S
C343 O350 1.267 . S
O344 C343 1.203 . S
O345 C338 1.185 . S
O345 Zn341 2.086 . S
C346 O342 1.278 . S
C346 O347 1.211 . S
O347 C346 1.211 . S
C348 O340 1.284 . S
C348 O349 1.273 . S
O349 C348 1.273 . S
O350 Zn341 1.977 . S
O350 C343 1.267 . S
C351 O352 1.160 . S
C351 O358 1.185 . S
O352 C351 1.160 . S
O353 Zn354 1.899 . S
O353 C361 1.284 . S
Zn354 O353 1.899 . S
Zn354 O355 2.032 1_554 S
Zn354 O358 2.086 . S
Zn354 O363 1.977 . S
O355 Zn354 2.032 1_556 S
O355 C359 1.278 . S
C356 O357 1.203 . S
C356 O363 1.267 . S
O357 C356 1.203 . S
O358 C351 1.185 . S
O358 Zn354 2.086 . S
C359 O355 1.278 . S
C359 O360 1.211 1_556 S
O360 C359 1.211 1_554 S
C361 O353 1.284 . S
C361 O362 1.273 . S
O362 C361 1.273 . S
O363 Zn354 1.977 . S
O363 C356 1.267 . S
C364 O365 1.160 . S
C364 O371 1.185 . S
O365 C364 1.160 . S
O366 Zn367 1.899 . S
O366 C374 1.284 . S
Zn367 O366 1.899 . S
Zn367 O368 2.032 1_554 S
Zn367 O371 2.086 . S
Zn367 O376 1.977 . S
O368 Zn367 2.032 1_556 S
O368 C372 1.278 . S
C369 O370 1.203 . S
C369 O376 1.267 . S
O370 C369 1.203 . S
O371 C364 1.185 . S
O371 Zn367 2.086 . S
C372 O368 1.278 . S
C372 O373 1.211 1_556 S
O373 C372 1.211 1_554 S
C374 O366 1.284 . S
C374 O375 1.273 . S
O375 C374 1.273 . S
O376 Zn367 1.977 . S
O376 C369 1.267 . S
C377 O378 1.160 . S
C377 O384 1.185 . S
O378 C377 1.160 . S
O379 Zn380 1.899 . S
O379 C387 1.284 . S
Zn380 O379 1.899 . S
Zn380 O381 2.032 1_554 S
Zn380 O384 2.086 . S
Zn380 O389 1.977 . S
O381 Zn380 2.032 1_556 S
O381 C385 1.278 . S
C382 O383 1.203 . S
C382 O389 1.267 . S
O383 C382 1.203 . S
O384 C377 1.185 . S
O384 Zn380 2.086 . S
C385 O381 1.278 . S
C385 O386 1.211 1_556 S
O386 C385 1.211 1_554 S
C387 O379 1.284 . S
C387 O388 1.273 . S
O388 C387 1.273 . S
O389 Zn380 1.977 . S
O389 C382 1.267 . S
C390 O391 1.160 . S
C390 O397 1.185 . S
O391 C390 1.160 . S
O392 Zn393 1.899 . S
O392 C400 1.284 . S
Zn393 O392 1.899 . S
Zn393 O394 2.032 . S
Zn393 O397 2.086 . S
Zn393 O402 1.977 . S
O394 Zn393 2.032 . S
O394 C398 1.278 . S
C395 O396 1.203 . S
C395 O402 1.267 . S
O396 C395 1.203 . S
O397 C390 1.185 . S
O397 Zn393 2.086 . S
C398 O394 1.278 . S
C398 O399 1.211 . S
O399 C398 1.211 . S
C400 O392 1.284 . S
C400 O401 1.273 . S
O401 C400 1.273 . S
O402 Zn393 1.977 . S
O402 C395 1.267 . S
C403 O404 1.160 . S
C403 O410 1.185 . S
O404 C403 1.160 . S
O405 Zn406 1.899 . S
O405 C413 1.284 . S
Zn406 O405 1.899 . S
Zn406 O407 2.032 . S
Zn406 O410 2.086 . S
Zn406 O415 1.977 . S
O407 Zn406 2.032 . S
O407 C411 1.278 . S
C408 O409 1.203 . S
C408 O415 1.267 . S
O409 C408 1.203 . S
O410 C403 1.185 . S
O410 Zn406 2.086 . S
C411 O407 1.278 . S
C411 O412 1.211 . S
O412 C411 1.211 . S
C413 O405 1.284 . S
C413 O414 1.273 . S
O414 C413 1.273 . S
O415 Zn406 1.977 . S
O415 C408 1.267 . S
C416 O417 1.160 . S
C416 O423 1.185 . S
O417 C416 1.160 . S
O418 Zn419 1.899 . S
O418 C426 1.284 . S
Zn419 O418 1.899 . S
Zn419 O420 2.032 . S
Zn419 O423 2.086 . S
Zn419 O428 1.977 . S
O420 Zn419 2.032 . S
O420 C424 1.278 . S
C421 O422 1.203 . S
C421 O428 1.267 . S
O422 C421 1.203 . S
O423 C416 1.185 . S
O423 Zn419 2.086 . S
C424 O420 1.278 . S
C424 O425 1.211 . S
O425 C424 1.211 . S
C426 O418 1.284 . S
C426 O427 1.273 . S
O427 C426 1.273 . S
O428 Zn419 1.977 . S
O428 C421 1.267 . S
C429 O430 1.160 . S
C429 O436 1.185 . S
O430 C429 1.160 . S
O431 Zn432 1.899 . S
O431 C439 1.284 . S
Zn432 O431 1.899 . S
Zn432 O433 2.032 . S
Zn432 O436 2.086 . S
Zn432 O441 1.977 . S
O433 Zn432 2.032 . S
O433 C437 1.278 . S
C434 O435 1.203 . S
C434 O441 1.267 . S
O435 C434 1.203 . S
O436 C429 1.185 . S
O436 Zn432 2.086 . S
C437 O433 1.278 . S
C437 O438 1.211 . S
O438 C437 1.211 . S
C439 O431 1.284 . S
C439 O440 1.273 . S
O440 C439 1.273 . S
O441 Zn432 1.977 . S
O441 C434 1.267 . S
C442 O443 1.160 . S
C442 O449 1.185 . S
O443 C442 1.160 . S
O444 Zn445 1.899 . S
O444 C452 1.284 . S
Zn445 O444 1.899 . S
Zn445 O446 2.032 . S
Zn445 O449 2.086 . S
Zn445 O454 1.977 . S
O446 Zn445 2.032 . S
O446 C450 1.278 . S
C447 O448 1.203 . S
C447 O454 1.267 . S
O448 C447 1.203 . S
O449 C442 1.185 . S
O449 Zn445 2.086 . S
C450 O446 1.278 . S
C450 O451 1.211 . S
O451 C450 1.211 . S
C452 O444 1.284 . S
C452 O453 1.273 . S
O453 C452 1.273 . S
O454 Zn445 1.977 . S
O454 C447 1.267 . S
C455 O456 1.160 . S
C455 O462 1.185 . S
O456 C455 1.160 . S
O457 Zn458 1.899 . S
O457 C465 1.284 . S
Zn458 O457 1.899 . S
Zn458 O459 2.032 . S
Zn458 O462 2.086 . S
Zn458 O467 1.977 . S
O459 Zn458 2.032 . S
O459 C463 1.278 . S
C460 O461 1.203 . S
C460 O467 1.267 . S
O461 C460 1.203 . S
O462 C455 1.185 . S
O462 Zn458 2.086 . S
C463 O459 1.278 . S
C463 O464 1.211 . S
O464 C463 1.211 . S
C465 O457 1.284 . S
C465 O466 1.273 . S
O466 C465 1.273 . S
O467 Zn458 1.977 . S
O467 C460 1.267 . S
C468 C469 1.369 . S
C468 C470 1.419 1_554 S
C468 H472 0.930 . S
C469 C468 1.369 . S
C469 C478 1.451 . S
C470 C468 1.419 1_556 S
C470 C471 1.363 1_545 S
C470 H473 0.929 . S
C471 C470 1.363 1_565 S
C471 C477 1.428 1_556 S
H472 C468 0.930 . S
H473 C470 0.929 . S
S474 N475 1.613 . S
S474 N476 1.610 . S
N475 S474 1.613 . S
N475 C478 1.346 1_565 S
N476 S474 1.610 . S
N476 C477 1.351 . S
C477 C471 1.428 1_554 S
C477 N476 1.351 . S
C477 C478 1.412 1_565 S
C478 C469 1.451 . S
C478 N475 1.346 1_545 S
C478 C477 1.412 1_545 S
C479 C480 1.369 . S
C479 C481 1.419 1_554 S
C479 H483 0.930 . S
C480 C479 1.369 . S
C480 C489 1.428 1_655 S
C481 C479 1.419 1_556 S
C481 C482 1.363 1_655 S
C481 H484 0.929 . S
C482 C481 1.363 1_455 S
C482 C488 1.428 1_556 S
H483 C479 0.930 . S
H484 C481 0.929 . S
S485 N486 1.613 . S
S485 N487 1.610 . S
N486 S485 1.613 . S
N486 C489 1.350 . S
N487 S485 1.610 . S
N487 C488 1.351 . S
C488 C482 1.428 1_554 S
C488 N487 1.351 . S
C488 C489 1.435 . S
C489 C480 1.428 1_455 S
C489 N486 1.350 . S
C489 C488 1.435 . S
C490 C491 1.369 . S
C490 C492 1.419 1_556 S
C490 H494 0.930 . S
C491 C490 1.369 . S
C491 C500 1.429 1_556 S
C492 C490 1.419 1_554 S
C492 C493 1.363 . S
C492 H495 0.929 . S
C493 C492 1.363 . S
C493 C499 1.428 . S
H494 C490 0.930 . S
H495 C492 0.929 . S
S496 N497 1.613 . S
S496 N498 1.610 . S
N497 S496 1.613 . S
N497 C500 1.350 . S
N498 S496 1.610 . S
N498 C499 1.351 . S
C499 C493 1.428 . S
C499 N498 1.351 . S
C499 C500 1.434 . S
C500 C491 1.429 1_554 S
C500 N497 1.350 . S
C500 C499 1.434 . S
C501 C502 1.369 1_455 S
C501 C503 1.419 . S
C501 H505 0.930 . S
C502 C501 1.369 1_655 S
C502 C511 1.429 . S
C503 C501 1.419 . S
C503 C504 1.363 . S
C503 H506 0.929 . S
C504 C503 1.363 . S
C504 C510 1.428 . S
H505 C501 0.930 . S
H506 C503 0.929 . S
S507 N508 1.613 . S
S507 N509 1.610 . S
N508 S507 1.613 . S
N508 C511 1.350 . S
N509 S507 1.610 . S
N509 C510 1.351 1_655 S
C510 C504 1.428 . S
C510 N509 1.351 1_455 S
C510 C511 1.434 1_455 S
C511 C502 1.429 . S
C511 N508 1.350 . S
C511 C510 1.434 1_655 S
C512 C513 1.369 . S
C512 C514 1.419 . S
C512 H516 0.930 . S
C513 C512 1.369 . S
C513 C522 1.429 . S
C514 C512 1.419 . S
C514 C515 1.363 . S
C514 H517 0.929 . S
C515 C514 1.363 . S
C515 C521 1.428 . S
H516 C512 0.930 . S
H517 C514 0.929 . S
S518 N519 1.613 . S
S518 N520 1.610 . S
N519 S518 1.613 . S
N519 C522 1.350 . S
N520 S518 1.610 . S
N520 C521 1.351 . S
C521 C515 1.428 . S
C521 N520 1.351 . S
C521 C522 1.434 . S
C522 C513 1.429 . S
C522 N519 1.350 . S
C522 C521 1.434 . S
C523 C524 1.369 . S
C523 C525 1.419 1_565 S
C523 H527 0.930 1_565 S
C524 C523 1.369 . S
C524 C533 1.429 . S
C525 C523 1.419 1_545 S
C525 C526 1.363 . S
C525 H528 0.929 . S
C526 C525 1.363 . S
C526 C532 1.428 1_545 S
H527 C523 0.930 1_545 S
H528 C525 0.929 . S
S529 N530 1.613 . S
S529 N531 1.610 . S
N530 S529 1.613 . S
N530 C533 1.350 . S
N531 S529 1.610 . S
N531 C532 1.351 . S
C532 C526 1.428 1_565 S
C532 N531 1.351 . S
C532 C533 1.434 . S
C533 C524 1.429 . S
C533 N530 1.350 . S
C533 C532 1.434 . S
C534 C535 1.369 1_565 S
C534 C536 1.419 1_554 S
C534 H538 0.930 . S
C535 C534 1.369 1_545 S
C535 C544 1.429 1_554 S
C536 C534 1.419 1_556 S
C536 C537 1.363 . S
C536 H539 0.929 . S
C537 C536 1.363 . S
C537 C543 1.428 . S
H538 C534 0.930 . S
H539 C536 0.929 . S
S540 N541 1.613 . S
S540 N542 1.610 . S
N541 S540 1.613 . S
N541 C544 1.350 . S
N542 S540 1.610 . S
N542 C543 1.351 1_545 S
C543 C537 1.428 . S
C543 N542 1.351 1_565 S
C543 C544 1.434 1_565 S
C544 C535 1.429 1_556 S
C544 N541 1.350 . S
C544 C543 1.434 1_545 S
C545 C546 1.369 1_455 S
C545 C547 1.419 1_554 S
C545 H549 0.930 . S
C546 C545 1.369 1_655 S
C546 C555 1.429 1_554 S
C547 C545 1.419 1_556 S
C547 C548 1.363 . S
C547 H550 0.929 . S
C548 C547 1.363 . S
C548 C554 1.428 . S
H549 C545 0.930 . S
H550 C547 0.929 . S
S551 N552 1.613 . S
S551 N553 1.610 . S
N552 S551 1.613 . S
N552 C555 1.350 . S
N553 S551 1.610 . S
N553 C554 1.351 1_655 S
C554 C548 1.428 . S
C554 N553 1.351 1_455 S
C554 C555 1.434 1_455 S
C555 C546 1.429 1_556 S
C555 N552 1.350 . S
C555 C554 1.434 1_655 S
C556 C557 1.369 . S
C556 C558 1.419 1_556 S
C556 H560 0.930 . S
C557 C556 1.369 . S
C557 C566 1.429 . S
C558 C556 1.419 1_554 S
C558 C559 1.363 . S
C558 H561 0.929 . S
C559 C558 1.363 . S
C559 C565 1.428 1_554 S
H560 C556 0.930 . S
H561 C558 0.929 . S
S562 N563 1.613 . S
S562 N564 1.610 . S
N563 S562 1.613 . S
N563 C566 1.350 . S
N564 S562 1.610 . S
N564 C565 1.351 . S
C565 C559 1.428 1_556 S
C565 N564 1.351 . S
C565 C566 1.434 . S
C566 C557 1.429 . S
C566 N563 1.350 . S
C566 C565 1.434 . S
C567 C568 1.369 . S
C567 C569 1.405 1_655 S
C567 H571 0.930 . S
C568 C567 1.369 . S
C568 C577 1.429 . S
C569 C567 1.405 1_455 S
C569 C570 1.362 . S
C569 H572 0.945 . S
C570 C569 1.362 . S
C570 C576 1.428 1_455 S
H571 C567 0.930 . S
H572 C569 0.945 . S
S573 N574 1.613 . S
S573 N575 1.610 1_655 S
N574 S573 1.613 . S
N574 C577 1.350 . S
N575 S573 1.610 1_455 S
N575 C576 1.351 1_455 S
C576 C570 1.428 1_655 S
C576 N575 1.351 1_655 S
C576 C577 1.434 . S
C577 C568 1.429 . S
C577 N574 1.350 . S
C577 C576 1.434 . S
C578 C579 1.369 . S
C578 C580 1.419 . S
C578 H582 0.930 . S
C579 C578 1.369 . S
C579 C588 1.429 . S
C580 C578 1.419 . S
C580 C581 1.363 . S
C580 H583 0.929 . S
C581 C580 1.363 . S
C581 C587 1.428 . S
H582 C578 0.930 . S
H583 C580 0.929 . S
S584 N585 1.613 . S
S584 N586 1.610 . S
N585 S584 1.613 . S
N585 C588 1.350 . S
N586 S584 1.610 . S
N586 C587 1.351 . S
C587 C581 1.428 . S
C587 N586 1.351 . S
C587 C588 1.434 . S
C588 C579 1.429 . S
C588 N585 1.350 . S
C588 C587 1.434 . S
C589 C590 1.369 . S
C589 C591 1.419 1_545 S
C589 H593 0.930 . S
C590 C589 1.369 . S
C590 C599 1.429 . S
C591 C589 1.419 1_565 S
C591 C592 1.363 . S
C591 H594 0.929 . S
C592 C591 1.363 . S
C592 C598 1.428 1_565 S
H593 C589 0.930 . S
H594 C591 0.929 . S
S595 N596 1.613 . S
S595 N597 1.610 . S
N596 S595 1.613 . S
N596 C599 1.350 . S
N597 S595 1.610 . S
N597 C598 1.351 . S
C598 C592 1.428 1_545 S
C598 N597 1.351 . S
C598 C599 1.434 . S
C599 C590 1.429 . S
C599 N596 1.350 . S
C599 C598 1.434 . S
C600 C601 1.369 . S
C600 C602 1.419 . S
C600 H604 0.930 . S
C601 C600 1.369 . S
C601 C610 1.429 . S
C602 C600 1.419 . S
C602 C603 1.363 . S
C602 H605 0.929 . S
C603 C602 1.363 . S
C603 C609 1.428 . S
H604 C600 0.930 . S
H605 C602 0.929 . S
S606 N607 1.613 . S
S606 N608 1.610 . S
N607 S606 1.613 . S
N607 C610 1.350 . S
N608 S606 1.610 . S
N608 C609 1.351 . S
C609 C603 1.428 . S
C609 N608 1.351 . S
C609 C610 1.434 . S
C610 C601 1.429 . S
C610 N607 1.350 . S
C610 C609 1.434 . S
C611 C612 1.369 . S
C611 C613 1.419 . S
C611 H615 0.930 . S
C612 C611 1.369 . S
C612 C621 1.429 . S
C613 C611 1.419 . S
C613 C614 1.363 . S
C613 H616 0.929 . S
C614 C613 1.363 . S
C614 C620 1.428 . S
H615 C611 0.930 . S
H616 C613 0.929 . S
S617 N618 1.613 . S
S617 N619 1.610 . S
N618 S617 1.613 . S
N618 C621 1.350 . S
N619 S617 1.610 . S
N619 C620 1.351 . S
C620 C614 1.428 . S
C620 N619 1.351 . S
C620 C621 1.434 . S
C621 C612 1.429 . S
C621 N618 1.350 . S
C621 C620 1.434 . S
C622 C623 1.369 . S
C622 C624 1.419 . S
C622 H626 0.930 . S
C623 C622 1.369 . S
C623 C632 1.429 . S
C624 C622 1.419 . S
C624 C625 1.363 . S
C624 H627 0.929 . S
C625 C624 1.363 . S
C625 C631 1.428 . S
H626 C622 0.930 . S
H627 C624 0.929 . S
S628 N629 1.613 . S
S628 N630 1.610 . S
N629 S628 1.613 . S
N629 C632 1.350 . S
N630 S628 1.610 . S
N630 C631 1.351 . S
C631 C625 1.428 . S
C631 N630 1.351 . S
C631 C632 1.434 . S
C632 C623 1.429 . S
C632 N629 1.350 . S
C632 C631 1.434 . S
C633 C634 1.369 . S
C633 C635 1.419 . S
C633 H637 0.930 . S
C634 C633 1.369 . S
C634 C643 1.429 . S
C635 C633 1.419 . S
C635 C636 1.363 . S
C635 H638 0.929 . S
C636 C635 1.363 . S
C636 C642 1.428 . S
H637 C633 0.930 . S
H638 C635 0.929 . S
S639 N640 1.613 . S
S639 N641 1.610 . S
N640 S639 1.613 . S
N640 C643 1.350 . S
N641 S639 1.610 . S
N641 C642 1.351 . S
C642 C636 1.428 . S
C642 N641 1.351 . S
C642 C643 1.434 . S
C643 C634 1.429 . S
C643 N640 1.350 . S
C643 C642 1.434 . S
C644 C645 1.369 . S
C644 C646 1.419 . S
C644 H648 0.930 . S
C645 C644 1.369 . S
C645 C654 1.429 . S
C646 C644 1.419 . S
C646 C647 1.363 . S
C646 H649 0.929 . S
C647 C646 1.363 . S
C647 C653 1.428 . S
H648 C644 0.930 . S
H649 C646 0.929 . S
S650 N651 1.613 . S
S650 N652 1.610 . S
N651 S650 1.613 . S
N651 C654 1.350 . S
N652 S650 1.610 . S
N652 C653 1.351 . S
C653 C647 1.428 . S
C653 N652 1.351 . S
C653 C654 1.434 . S
C654 C645 1.429 . S
C654 N651 1.350 . S
C654 C653 1.434 . S
C655 C656 1.369 . S
C655 C657 1.419 . S
C655 H659 0.930 . S
C656 C655 1.369 . S
C656 C665 1.429 . S
C657 C655 1.419 . S
C657 C658 1.363 . S
C657 H660 0.929 . S
C658 C657 1.363 . S
C658 C664 1.428 . S
H659 C655 0.930 . S
H660 C657 0.929 . S
S661 N662 1.613 . S
S661 N663 1.610 . S
N662 S661 1.613 . S
N662 C665 1.350 . S
N663 S661 1.610 . S
N663 C664 1.351 . S
C664 C658 1.428 . S
C664 N663 1.351 . S
C664 C665 1.434 . S
C665 C656 1.429 . S
C665 N662 1.350 . S
C665 C664 1.434 . S
C666 C667 1.369 . S
C666 C668 1.419 . S
C666 H670 0.930 . S
C667 C666 1.369 . S
C667 C676 1.429 . S
C668 C666 1.419 . S
C668 C669 1.363 . S
C668 H671 0.929 . S
C669 C668 1.363 . S
C669 C675 1.428 . S
H670 C666 0.930 . S
H671 C668 0.929 . S
S672 N673 1.613 . S
S672 N674 1.610 . S
N673 S672 1.613 . S
N673 C676 1.350 . S
N674 S672 1.610 . S
N674 C675 1.351 . S
C675 C669 1.428 . S
C675 N674 1.351 . S
C675 C676 1.434 . S
C676 C667 1.429 . S
C676 N673 1.350 . S
C676 C675 1.434 . S
C677 C678 1.369 . S
C677 C679 1.419 . S
C677 H681 0.930 . S
C678 C677 1.369 . S
C678 C687 1.429 . S
C679 C677 1.419 . S
C679 C680 1.363 . S
C679 H682 0.929 . S
C680 C679 1.363 . S
C680 C686 1.428 . S
H681 C677 0.930 . S
H682 C679 0.929 . S
S683 N684 1.613 . S
S683 N685 1.610 . S
N684 S683 1.613 . S
N684 C687 1.350 . S
N685 S683 1.610 . S
N685 C686 1.351 . S
C686 C680 1.428 . S
C686 N685 1.351 . S
C686 C687 1.434 . S
C687 C678 1.429 . S
C687 N684 1.350 . S
C687 C686 1.434 . S
C688 C689 1.369 . S
C688 C690 1.419 . S
C688 H692 0.930 . S
C689 C688 1.369 . S
C689 C698 1.429 . S
C690 C688 1.419 . S
C690 C691 1.363 . S
C690 H693 0.929 . S
C691 C690 1.363 . S
C691 C697 1.428 . S
H692 C688 0.930 . S
H693 C690 0.929 . S
S694 N695 1.613 . S
S694 N696 1.610 . S
N695 S694 1.613 . S
N695 C698 1.350 . S
N696 S694 1.610 . S
N696 C697 1.351 . S
C697 C691 1.428 . S
C697 N696 1.351 . S
C697 C698 1.434 . S
C698 C689 1.429 . S
C698 N695 1.350 . S
C698 C697 1.434 . S
C699 C700 1.369 . S
C699 C701 1.419 . S
C699 H703 0.930 . S
C700 C699 1.369 . S
C700 C709 1.429 . S
C701 C699 1.419 . S
C701 C702 1.363 . S
C701 H704 0.929 . S
C702 C701 1.363 . S
C702 C708 1.428 . S
H703 C699 0.930 . S
H704 C701 0.929 . S
S705 N706 1.613 . S
S705 N707 1.610 . S
N706 S705 1.613 . S
N706 C709 1.350 . S
N707 S705 1.610 . S
N707 C708 1.351 . S
C708 C702 1.428 . S
C708 N707 1.351 . S
C708 C709 1.434 . S
C709 C700 1.429 . S
C709 N706 1.350 . S
C709 C708 1.434 . S
C710 C711 1.369 . S
C710 C712 1.419 . S
C710 H714 0.930 . S
C711 C710 1.369 . S
C711 C720 1.429 . S
C712 C710 1.419 . S
C712 C713 1.363 . S
C712 H715 0.929 . S
C713 C712 1.363 . S
C713 C719 1.428 . S
H714 C710 0.930 . S
H715 C712 0.929 . S
S716 N717 1.613 . S
S716 N718 1.610 . S
N717 S716 1.613 . S
N717 C720 1.350 . S
N718 S716 1.610 . S
N718 C719 1.351 . S
C719 C713 1.428 . S
C719 N718 1.351 . S
C719 C720 1.434 . S
C720 C711 1.429 . S
C720 N717 1.350 . S
C720 C719 1.434 . S
C721 C722 1.369 . S
C721 C723 1.419 . S
C721 H725 0.930 . S
C722 C721 1.369 . S
C722 C731 1.429 . S
C723 C721 1.419 . S
C723 C724 1.363 . S
C723 H726 0.929 . S
C724 C723 1.363 . S
C724 C730 1.428 . S
H725 C721 0.930 . S
H726 C723 0.929 . S
S727 N728 1.613 . S
S727 N729 1.610 . S
N728 S727 1.613 . S
N728 C731 1.350 . S
N729 S727 1.610 . S
N729 C730 1.351 . S
C730 C724 1.428 . S
C730 N729 1.351 . S
C730 C731 1.434 . S
C731 C722 1.429 . S
C731 N728 1.350 . S
C731 C730 1.434 . S
C732 C733 1.369 . S
C732 C734 1.419 . S
C732 H736 0.930 . S
C733 C732 1.369 . S
C733 C742 1.429 . S
C734 C732 1.419 . S
C734 C735 1.363 . S
C734 H737 0.929 . S
C735 C734 1.363 . S
C735 C741 1.428 . S
H736 C732 0.930 . S
H737 C734 0.929 . S
S738 N739 1.613 . S
S738 N740 1.610 . S
N739 S738 1.613 . S
N739 C742 1.350 . S
N740 S738 1.610 . S
N740 C741 1.351 . S
C741 C735 1.428 . S
C741 N740 1.351 . S
C741 C742 1.434 . S
C742 C733 1.429 . S
C742 N739 1.350 . S
C742 C741 1.434 . S
C743 C744 1.369 . S
C743 C745 1.419 . S
C743 H747 0.930 . S
C744 C743 1.369 . S
C744 C753 1.429 . S
C745 C743 1.419 . S
C745 C746 1.363 . S
C745 H748 0.929 . S
C746 C745 1.363 . S
C746 C752 1.428 . S
H747 C743 0.930 . S
H748 C745 0.929 . S
S749 N750 1.613 . S
S749 N751 1.610 . S
N750 S749 1.613 . S
N750 C753 1.350 . S
N751 S749 1.610 . S
N751 C752 1.351 . S
C752 C746 1.428 . S
C752 N751 1.351 . S
C752 C753 1.434 . S
C753 C744 1.429 . S
C753 N750 1.350 . S
C753 C752 1.434 . S
C754 C755 1.369 . S
C754 C756 1.419 . S
C754 H758 0.930 . S
C755 C754 1.369 . S
C755 C764 1.429 . S
C756 C754 1.419 . S
C756 C757 1.363 . S
C756 H759 0.929 . S
C757 C756 1.363 . S
C757 C763 1.428 . S
H758 C754 0.930 . S
H759 C756 0.929 . S
S760 N761 1.613 . S
S760 N762 1.610 . S
N761 S760 1.613 . S
N761 C764 1.350 . S
N762 S760 1.610 . S
N762 C763 1.351 . S
C763 C757 1.428 . S
C763 N762 1.351 . S
C763 C764 1.434 . S
C764 C755 1.429 . S
C764 N761 1.350 . S
C764 C763 1.434 . S
C765 C766 1.369 . S
C765 C767 1.419 . S
C765 H769 0.930 . S
C766 C765 1.369 . S
C766 C775 1.429 . S
C767 C765 1.419 . S
C767 C768 1.363 . S
C767 H770 0.929 . S
C768 C767 1.363 . S
C768 C774 1.428 . S
H769 C765 0.930 . S
H770 C767 0.929 . S
S771 N772 1.613 . S
S771 N773 1.610 . S
N772 S771 1.613 . S
N772 C775 1.350 . S
N773 S771 1.610 . S
N773 C774 1.351 . S
C774 C768 1.428 . S
C774 N773 1.351 . S
C774 C775 1.434 . S
C775 C766 1.429 . S
C775 N772 1.350 . S
C775 C774 1.434 . S
C776 C777 1.369 . S
C776 C778 1.419 . S
C776 H780 0.930 . S
C777 C776 1.369 . S
C777 C786 1.429 . S
C778 C776 1.419 . S
C778 C779 1.363 . S
C778 H781 0.929 . S
C779 C778 1.363 . S
C779 C785 1.428 . S
H780 C776 0.930 . S
H781 C778 0.929 . S
S782 N783 1.613 . S
S782 N784 1.610 . S
N783 S782 1.613 . S
N783 C786 1.350 . S
N784 S782 1.610 . S
N784 C785 1.351 . S
C785 C779 1.428 . S
C785 N784 1.351 . S
C785 C786 1.434 . S
C786 C777 1.429 . S
C786 N783 1.350 . S
C786 C785 1.434 . S
C787 C788 1.369 . S
C787 C789 1.419 . S
C787 H791 0.930 . S
C788 C787 1.369 . S
C788 C797 1.429 . S
C789 C787 1.419 . S
C789 C790 1.363 . S
C789 H792 0.929 . S
C790 C789 1.363 . S
C790 C796 1.428 . S
H791 C787 0.930 . S
H792 C789 0.929 . S
S793 N794 1.613 . S
S793 N795 1.610 . S
N794 S793 1.613 . S
N794 C797 1.350 . S
N795 S793 1.610 . S
N795 C796 1.351 . S
C796 C790 1.428 . S
C796 N795 1.351 . S
C796 C797 1.434 . S
C797 C788 1.429 . S
C797 N794 1.350 . S
C797 C796 1.434 . S
C798 C799 1.369 . S
C798 C800 1.419 . S
C798 H802 0.930 . S
C799 C798 1.369 . S
C799 C808 1.429 . S
C800 C798 1.419 . S
C800 C801 1.363 . S
C800 H803 0.929 . S
C801 C800 1.363 . S
C801 C807 1.428 . S
H802 C798 0.930 . S
H803 C800 0.929 . S
S804 N805 1.613 . S
S804 N806 1.610 . S
N805 S804 1.613 . S
N805 C808 1.350 . S
N806 S804 1.610 . S
N806 C807 1.351 . S
C807 C801 1.428 . S
C807 N806 1.351 . S
C807 C808 1.434 . S
C808 C799 1.429 . S
C808 N805 1.350 . S
C808 C807 1.434 . S
C809 C810 1.369 . S
C809 C811 1.419 . S
C809 H813 0.930 . S
C810 C809 1.369 . S
C810 C819 1.429 . S
C811 C809 1.419 . S
C811 C812 1.363 . S
C811 H814 0.929 . S
C812 C811 1.363 . S
C812 C818 1.428 . S
H813 C809 0.930 . S
H814 C811 0.929 . S
S815 N816 1.613 . S
S815 N817 1.610 . S
N816 S815 1.613 . S
N816 C819 1.350 . S
N817 S815 1.610 . S
N817 C818 1.351 . S
C818 C812 1.428 . S
C818 N817 1.351 . S
C818 C819 1.434 . S
C819 C810 1.429 . S
C819 N816 1.350 . S
C819 C818 1.434 . S
C820 C821 1.369 . S
C820 C822 1.419 . S
C820 H824 0.930 . S
C821 C820 1.369 . S
C821 C830 1.429 . S
C822 C820 1.419 . S
C822 C823 1.363 . S
C822 H825 0.929 . S
C823 C822 1.363 . S
C823 C829 1.428 . S
H824 C820 0.930 . S
H825 C822 0.929 . S
S826 N827 1.613 . S
S826 N828 1.610 . S
N827 S826 1.613 . S
N827 C830 1.350 . S
N828 S826 1.610 . S
N828 C829 1.351 . S
C829 C823 1.428 . S
C829 N828 1.351 . S
C829 C830 1.434 . S
C830 C821 1.429 . S
C830 N827 1.350 . S
C830 C829 1.434 . S
C831 C832 1.369 . S
C831 C833 1.419 . S
C831 H835 0.930 . S
C832 C831 1.369 . S
C832 C841 1.429 . S
C833 C831 1.419 . S
C833 C834 1.363 . S
C833 H836 0.929 . S
C834 C833 1.363 . S
C834 C840 1.428 . S
H835 C831 0.930 . S
H836 C833 0.929 . S
S837 N838 1.613 . S
S837 N839 1.610 . S
N838 S837 1.613 . S
N838 C841 1.350 . S
N839 S837 1.610 . S
N839 C840 1.351 . S
C840 C834 1.428 . S
C840 N839 1.351 . S
C840 C841 1.434 . S
C841 C832 1.429 . S
C841 N838 1.350 . S
C841 C840 1.434 . S
C842 C843 1.369 . S
C842 C844 1.419 . S
C842 H846 0.930 . S
C843 C842 1.369 . S
C843 C852 1.429 . S
C844 C842 1.419 . S
C844 C845 1.363 . S
C844 H847 0.929 . S
C845 C844 1.363 . S
C845 C851 1.428 . S
H846 C842 0.930 . S
H847 C844 0.929 . S
S848 N849 1.613 . S
S848 N850 1.610 . S
N849 S848 1.613 . S
N849 C852 1.350 . S
N850 S848 1.610 . S
N850 C851 1.351 . S
C851 C845 1.428 . S
C851 N850 1.351 . S
C851 C852 1.434 . S
C852 C843 1.429 . S
C852 N849 1.350 . S
C852 C851 1.434 . S
C853 C854 1.369 . S
C853 C855 1.419 . S
C853 H857 0.930 . S
C854 C853 1.369 . S
C854 C863 1.429 . S
C855 C853 1.419 . S
C855 C856 1.363 . S
C855 H858 0.929 . S
C856 C855 1.363 . S
C856 C862 1.428 . S
H857 C853 0.930 . S
H858 C855 0.929 . S
S859 N860 1.613 . S
S859 N861 1.610 . S
N860 S859 1.613 . S
N860 C863 1.350 . S
N861 S859 1.610 . S
N861 C862 1.351 . S
C862 C856 1.428 . S
C862 N861 1.351 . S
C862 C863 1.434 . S
C863 C854 1.429 . S
C863 N860 1.350 . S
C863 C862 1.434 . S
C864 C865 1.369 . S
C864 C866 1.419 . S
C864 H868 0.930 . S
C865 C864 1.369 . S
C865 C874 1.429 . S
C866 C864 1.419 . S
C866 C867 1.363 . S
C866 H869 0.929 . S
C867 C866 1.363 . S
C867 C873 1.428 . S
H868 C864 0.930 . S
H869 C866 0.929 . S
S870 N871 1.613 . S
S870 N872 1.610 . S
N871 S870 1.613 . S
N871 C874 1.350 . S
N872 S870 1.610 . S
N872 C873 1.351 . S
C873 C867 1.428 . S
C873 N872 1.351 . S
C873 C874 1.434 . S
C874 C865 1.429 . S
C874 N871 1.350 . S
C874 C873 1.434 . S
C875 C876 1.369 . S
C875 C877 1.419 1_565 S
C875 H879 0.930 . S
C876 C875 1.369 . S
C876 C885 1.429 . S
C877 C875 1.419 1_545 S
C877 C878 1.363 . S
C877 H880 0.929 . S
C878 C877 1.363 . S
C878 C884 1.428 . S
H879 C875 0.930 . S
H880 C877 0.929 . S
S881 N882 1.613 . S
S881 N883 1.610 1_565 S
N882 S881 1.613 . S
N882 C885 1.350 . S
N883 S881 1.610 1_545 S
N883 C884 1.351 . S
C884 C878 1.428 . S
C884 N883 1.351 . S
C884 C885 1.434 1_545 S
C885 C876 1.429 . S
C885 N882 1.350 . S
C885 C884 1.434 1_565 S
C886 C887 1.369 . S
C886 C888 1.419 1_655 S
C886 H890 0.930 . S
C887 C886 1.369 . S
C887 C896 1.429 . S
C888 C886 1.419 1_455 S
C888 C889 1.363 . S
C888 H891 0.929 . S
C889 C888 1.363 . S
C889 C895 1.428 . S
H890 C886 0.930 . S
H891 C888 0.929 . S
S892 N893 1.613 1_455 S
S892 N894 1.610 . S
N893 S892 1.613 1_655 S
N893 C896 1.350 . S
N894 S892 1.610 . S
N894 C895 1.351 . S
C895 C889 1.428 . S
C895 N894 1.351 . S
C895 C896 1.434 1_455 S
C896 C887 1.429 . S
C896 N893 1.350 . S
C896 C895 1.434 1_655 S
C897 C898 1.369 . S
C897 C899 1.419 . S
C897 H901 0.930 . S
C898 C897 1.369 . S
C898 C907 1.429 . S
C899 C897 1.419 . S
C899 C900 1.363 . S
C899 H902 0.929 . S
C900 C899 1.363 . S
C900 C906 1.428 . S
H901 C897 0.930 . S
H902 C899 0.929 . S
S903 N904 1.613 . S
S903 N905 1.610 . S
N904 S903 1.613 . S
N904 C907 1.350 . S
N905 S903 1.610 . S
N905 C906 1.351 . S
C906 C900 1.428 . S
C906 N905 1.351 . S
C906 C907 1.434 . S
C907 C898 1.429 . S
C907 N904 1.350 . S
C907 C906 1.434 . S
C908 C909 1.369 . S
C908 C910 1.419 1_545 S
C908 H912 0.930 . S
C909 C908 1.369 . S
C909 C918 1.429 . S
C910 C908 1.419 1_565 S
C910 C911 1.363 . S
C910 H913 0.929 . S
C911 C910 1.363 . S
C911 C917 1.428 . S
H912 C908 0.930 . S
H913 C910 0.929 . S
S914 N915 1.613 . S
S914 N916 1.593 1_545 S
N915 S914 1.613 . S
N915 C918 1.350 . S
N916 S914 1.593 1_565 S
N916 C917 1.345 . S
C917 C911 1.428 . S
C917 N916 1.345 . S
C917 C918 1.434 1_565 S
C918 C909 1.429 . S
C918 N915 1.350 . S
C918 C917 1.434 1_545 S
C919 C920 1.369 . S
C919 C921 1.419 1_655 S
C919 H923 0.930 . S
C920 C919 1.369 . S
C920 C929 1.429 . S
C921 C919 1.419 1_455 S
C921 C922 1.363 . S
C921 H924 0.929 . S
C922 C921 1.363 . S
C922 C928 1.428 . S
H923 C919 0.930 . S
H924 C921 0.929 . S
S925 N926 1.613 . S
S925 N927 1.610 1_655 S
N926 S925 1.613 . S
N926 C929 1.350 . S
N927 S925 1.610 1_455 S
N927 C928 1.351 . S
C928 C922 1.428 . S
C928 N927 1.351 . S
C928 C929 1.434 1_455 S
C929 C920 1.429 . S
C929 N926 1.350 . S
C929 C928 1.434 1_655 S
C930 C931 1.369 . S
C930 C932 1.419 . S
C930 H934 0.930 . S
C931 C930 1.369 . S
C931 C940 1.429 . S
C932 C930 1.419 . S
C932 C933 1.363 . S
C932 H935 0.929 . S
C933 C932 1.363 . S
C933 C939 1.428 . S
H934 C930 0.930 . S
H935 C932 0.929 . S
S936 N937 1.613 . S
S936 N938 1.610 . S
N937 S936 1.613 . S
N937 C940 1.350 . S
N938 S936 1.610 . S
N938 C939 1.351 . S
C939 C933 1.428 . S
C939 N938 1.351 . S
C939 C940 1.434 . S
C940 C931 1.429 . S
C940 N937 1.350 . S
C940 C939 1.434 . S
C941 C942 1.369 . S
C941 C943 1.419 . S
C941 H945 0.930 . S
C942 C941 1.369 . S
C942 C951 1.429 . S
C943 C941 1.419 . S
C943 C944 1.363 . S
C943 H946 0.929 . S
C944 C943 1.363 . S
C944 C950 1.428 . S
H945 C941 0.930 . S
H946 C943 0.929 . S
S947 N948 1.613 . S
S947 N949 1.610 . S
N948 S947 1.613 . S
N948 C951 1.350 . S
N949 S947 1.610 . S
N949 C950 1.351 . S
C950 C944 1.428 . S
C950 N949 1.351 . S
C950 C951 1.434 . S
C951 C942 1.429 . S
C951 N948 1.350 . S
C951 C950 1.434 . S
C952 C953 1.369 . S
C952 C954 1.419 . S
C952 H956 0.930 . S
C953 C952 1.369 . S
C953 C962 1.429 . S
C954 C952 1.419 . S
C954 C955 1.363 . S
C954 H957 0.929 . S
C955 C954 1.363 . S
C955 C961 1.428 . S
H956 C952 0.930 . S
H957 C954 0.929 . S
S958 N959 1.613 . S
S958 N960 1.610 . S
N959 S958 1.613 . S
N959 C962 1.350 . S
N960 S958 1.610 . S
N960 C961 1.351 . S
C961 C955 1.428 . S
C961 N960 1.351 . S
C961 C962 1.434 . S
C962 C953 1.429 . S
C962 N959 1.350 . S
C962 C961 1.434 . S
C963 C964 1.369 . S
C963 C965 1.419 . S
C963 H967 0.930 . S
C964 C963 1.369 . S
C964 C973 1.429 . S
C965 C963 1.419 . S
C965 C966 1.363 . S
C965 H968 0.929 . S
C966 C965 1.363 . S
C966 C972 1.428 . S
H967 C963 0.930 . S
H968 C965 0.929 . S
S969 N970 1.613 . S
S969 N971 1.610 . S
N970 S969 1.613 . S
N970 C973 1.350 . S
N971 S969 1.610 . S
N971 C972 1.351 . S
C972 C966 1.428 . S
C972 N971 1.351 . S
C972 C973 1.434 . S
C973 C964 1.429 . S
C973 N970 1.350 . S
C973 C972 1.434 . S
C974 C975 1.369 . S
C974 C976 1.419 . S
C974 H978 0.930 . S
C975 C974 1.369 . S
C975 C984 1.429 . S
C976 C974 1.419 . S
C976 C977 1.363 . S
C976 H979 0.929 . S
C977 C976 1.363 . S
C977 C983 1.428 . S
H978 C974 0.930 . S
H979 C976 0.929 . S
S980 N981 1.613 . S
S980 N982 1.610 . S
N981 S980 1.613 . S
N981 C984 1.350 . S
N982 S980 1.610 . S
N982 C983 1.351 . S
C983 C977 1.428 . S
C983 N982 1.351 . S
C983 C984 1.434 . S
C984 C975 1.429 . S
C984 N981 1.350 . S
C984 C983 1.434 . S
C985 C986 1.369 . S
C985 C987 1.419 . S
C985 H989 0.930 . S
C986 C985 1.369 . S
C986 C995 1.429 . S
C987 C985 1.419 . S
C987 C988 1.363 . S
C987 H990 0.929 . S
C988 C987 1.363 . S
C988 C994 1.428 . S
H989 C985 0.930 . S
H990 C987 0.929 . S
S991 N992 1.613 . S
S991 N993 1.610 . S
N992 S991 1.613 . S
N992 C995 1.350 . S
N993 S991 1.610 . S
N993 C994 1.351 . S
C994 C988 1.428 . S
C994 N993 1.351 . S
C994 C995 1.434 . S
C995 C986 1.429 . S
C995 N992 1.350 . S
C995 C994 1.434 . S
C996 C997 1.369 . S
C996 C998 1.419 . S
C996 H1000 0.930 . S
C997 C996 1.369 . S
C997 C1006 1.429 . S
C998 C996 1.419 . S
C998 C999 1.363 . S
C998 H1001 0.929 . S
C999 C998 1.363 . S
C999 C1005 1.428 . S
H1000 C996 0.930 . S
H1001 C998 0.929 . S
S1002 N1003 1.613 . S
S1002 N1004 1.610 . S
N1003 S1002 1.613 . S
N1003 C1006 1.350 . S
N1004 S1002 1.610 . S
N1004 C1005 1.351 . S
C1005 C999 1.428 . S
C1005 N1004 1.351 . S
C1005 C1006 1.434 . S
C1006 C997 1.429 . S
C1006 N1003 1.350 . S
C1006 C1005 1.434 . S
C1007 C1008 1.369 . S
C1007 C1009 1.419 . S
C1007 H1011 0.930 . S
C1008 C1007 1.369 . S
C1008 C1017 1.429 . S
C1009 C1007 1.419 . S
C1009 C1010 1.363 . S
C1009 H1012 0.929 . S
C1010 C1009 1.363 . S
C1010 C1016 1.428 . S
H1011 C1007 0.930 . S
H1012 C1009 0.929 . S
S1013 N1014 1.613 1_554 S
S1013 N1015 1.610 1_554 S
N1014 S1013 1.613 1_556 S
N1014 C1017 1.350 . S
N1015 S1013 1.610 1_556 S
N1015 C1016 1.351 . S
C1016 C1010 1.428 . S
C1016 N1015 1.351 . S
C1016 C1017 1.434 . S
C1017 C1008 1.429 . S
C1017 N1014 1.350 . S
C1017 C1016 1.434 . S
C1018 C1019 1.369 . S
C1018 C1020 1.419 . S
C1018 H1022 0.930 . S
C1019 C1018 1.369 . S
C1019 C1028 1.429 . S
C1020 C1018 1.419 . S
C1020 C1021 1.363 . S
C1020 H1023 0.929 . S
C1021 C1020 1.363 . S
C1021 C1027 1.428 . S
H1022 C1018 0.930 . S
H1023 C1020 0.929 . S
S1024 N1025 1.613 . S
S1024 N1026 1.610 1_554 S
N1025 S1024 1.613 . S
N1025 C1028 1.350 1_554 S
N1026 S1024 1.610 1_556 S
N1026 C1027 1.351 . S
C1027 C1021 1.428 . S
C1027 N1026 1.351 . S
C1027 C1028 1.434 . S
C1028 C1019 1.429 . S
C1028 N1025 1.350 1_556 S
C1028 C1027 1.434 . S
C1029 C1030 1.369 . S
C1029 C1031 1.419 . S
C1029 H1033 0.930 . S
C1030 C1029 1.369 . S
C1030 C1039 1.429 . S
C1031 C1029 1.419 . S
C1031 C1032 1.363 . S
C1031 H1034 0.929 . S
C1032 C1031 1.363 . S
C1032 C1038 1.428 . S
H1033 C1029 0.930 . S
H1034 C1031 0.929 . S
S1035 N1036 1.613 . S
S1035 N1037 1.610 . S
N1036 S1035 1.613 . S
N1036 C1039 1.350 . S
N1037 S1035 1.610 . S
N1037 C1038 1.351 . S
C1038 C1032 1.428 . S
C1038 N1037 1.351 . S
C1038 C1039 1.434 . S
C1039 C1030 1.429 . S
C1039 N1036 1.350 . S
C1039 C1038 1.434 . S
C1040 C1041 1.369 . S
C1040 C1042 1.419 . S
C1040 H1044 0.930 . S
C1041 C1040 1.369 . S
C1041 C1050 1.429 . S
C1042 C1040 1.419 . S
C1042 C1043 1.363 . S
C1042 H1045 0.929 . S
C1043 C1042 1.363 . S
C1043 C1049 1.428 . S
H1044 C1040 0.930 . S
H1045 C1042 0.929 . S
S1046 N1047 1.613 . S
S1046 N1048 1.610 . S
N1047 S1046 1.613 . S
N1047 C1050 1.350 . S
N1048 S1046 1.610 . S
N1048 C1049 1.351 . S
C1049 C1043 1.428 . S
C1049 N1048 1.351 . S
C1049 C1050 1.434 . S
C1050 C1041 1.429 . S
C1050 N1047 1.350 . S
C1050 C1049 1.434 . S
C1051 C1052 1.369 . S
C1051 C1053 1.419 . S
C1051 H1055 0.930 . S
C1052 C1051 1.369 . S
C1052 C1061 1.429 . S
C1053 C1051 1.419 . S
C1053 C1054 1.363 . S
C1053 H1056 0.929 . S
C1054 C1053 1.363 . S
C1054 C1060 1.428 . S
H1055 C1051 0.930 . S
H1056 C1053 0.929 . S
S1057 N1058 1.613 . S
S1057 N1059 1.610 . S
N1058 S1057 1.613 . S
N1058 C1061 1.350 . S
N1059 S1057 1.610 . S
N1059 C1060 1.351 . S
C1060 C1054 1.428 . S
C1060 N1059 1.351 . S
C1060 C1061 1.434 . S
C1061 C1052 1.429 . S
C1061 N1058 1.350 . S
C1061 C1060 1.434 . S
C1062 C1063 1.369 . S
C1062 C1064 1.419 . S
C1062 H1066 0.930 . S
C1063 C1062 1.369 . S
C1063 C1072 1.429 . S
C1064 C1062 1.419 . S
C1064 C1065 1.363 . S
C1064 H1067 0.929 . S
C1065 C1064 1.363 . S
C1065 C1071 1.428 . S
H1066 C1062 0.930 . S
H1067 C1064 0.929 . S
S1068 N1069 1.613 . S
S1068 N1070 1.610 . S
N1069 S1068 1.613 . S
N1069 C1072 1.350 . S
N1070 S1068 1.610 . S
N1070 C1071 1.351 . S
C1071 C1065 1.428 . S
C1071 N1070 1.351 . S
C1071 C1072 1.434 . S
C1072 C1063 1.429 . S
C1072 N1069 1.350 . S
C1072 C1071 1.434 . S
C1073 C1074 1.369 . S
C1073 C1075 1.419 . S
C1073 H1077 0.930 . S
C1074 C1073 1.369 . S
C1074 C1083 1.429 . S
C1075 C1073 1.419 . S
C1075 C1076 1.363 . S
C1075 H1078 0.929 . S
C1076 C1075 1.363 . S
C1076 C1082 1.428 . S
H1077 C1073 0.930 . S
H1078 C1075 0.929 . S
S1079 N1080 1.613 . S
S1079 N1081 1.610 . S
N1080 S1079 1.613 . S
N1080 C1083 1.350 . S
N1081 S1079 1.610 . S
N1081 C1082 1.351 . S
C1082 C1076 1.428 . S
C1082 N1081 1.351 . S
C1082 C1083 1.434 . S
C1083 C1074 1.429 . S
C1083 N1080 1.350 . S
C1083 C1082 1.434 . S
C1084 C1085 1.369 . S
C1084 C1086 1.419 . S
C1084 H1088 0.930 . S
C1085 C1084 1.369 . S
C1085 C1094 1.429 . S
C1086 C1084 1.419 . S
C1086 C1087 1.363 . S
C1086 H1089 0.929 . S
C1087 C1086 1.363 . S
C1087 C1093 1.428 . S
H1088 C1084 0.930 . S
H1089 C1086 0.929 . S
S1090 N1091 1.613 . S
S1090 N1092 1.610 . S
N1091 S1090 1.613 . S
N1091 C1094 1.350 . S
N1092 S1090 1.610 . S
N1092 C1093 1.351 . S
C1093 C1087 1.428 . S
C1093 N1092 1.351 . S
C1093 C1094 1.434 . S
C1094 C1085 1.429 . S
C1094 N1091 1.350 . S
C1094 C1093 1.434 . S
C1095 C1096 1.369 . S
C1095 C1097 1.419 . S
C1095 H1099 0.930 . S
C1096 C1095 1.369 . S
C1096 C1105 1.429 . S
C1097 C1095 1.419 . S
C1097 C1098 1.363 . S
C1097 H1100 0.929 . S
C1098 C1097 1.363 . S
C1098 C1104 1.428 . S
H1099 C1095 0.930 . S
H1100 C1097 0.929 . S
S1101 N1102 1.613 . S
S1101 N1103 1.610 . S
N1102 S1101 1.613 . S
N1102 C1105 1.350 . S
N1103 S1101 1.610 . S
N1103 C1104 1.351 . S
C1104 C1098 1.428 . S
C1104 N1103 1.351 . S
C1104 C1105 1.434 . S
C1105 C1096 1.429 . S
C1105 N1102 1.350 . S
C1105 C1104 1.434 . S
C1106 C1107 1.369 . S
C1106 C1108 1.419 . S
C1106 H1110 0.930 . S
C1107 C1106 1.369 . S
C1107 C1116 1.429 . S
C1108 C1106 1.419 . S
C1108 C1109 1.363 . S
C1108 H1111 0.929 . S
C1109 C1108 1.363 . S
C1109 C1115 1.428 . S
H1110 C1106 0.930 . S
H1111 C1108 0.929 . S
S1112 N1113 1.613 . S
S1112 N1114 1.610 . S
N1113 S1112 1.613 . S
N1113 C1116 1.350 . S
N1114 S1112 1.610 . S
N1114 C1115 1.351 . S
C1115 C1109 1.428 . S
C1115 N1114 1.351 . S
C1115 C1116 1.434 . S
C1116 C1107 1.429 . S
C1116 N1113 1.350 . S
C1116 C1115 1.434 . S
C1117 C1118 1.369 . S
C1117 C1119 1.419 . S
C1117 H1121 0.930 . S
C1118 C1117 1.369 . S
C1118 C1127 1.429 . S
C1119 C1117 1.419 . S
C1119 C1120 1.363 . S
C1119 H1122 0.929 . S
C1120 C1119 1.363 . S
C1120 C1126 1.428 . S
H1121 C1117 0.930 . S
H1122 C1119 0.929 . S
S1123 N1124 1.613 . S
S1123 N1125 1.610 . S
N1124 S1123 1.613 . S
N1124 C1127 1.350 . S
N1125 S1123 1.610 . S
N1125 C1126 1.351 . S
C1126 C1120 1.428 . S
C1126 N1125 1.351 . S
C1126 C1127 1.434 . S
C1127 C1118 1.429 . S
C1127 N1124 1.350 . S
C1127 C1126 1.434 . S
C1128 C1129 1.369 . S
C1128 C1130 1.419 . S
C1128 H1132 0.930 . S
C1129 C1128 1.369 . S
C1129 C1138 1.429 . S
C1130 C1128 1.419 . S
C1130 C1131 1.363 . S
C1130 H1133 0.929 . S
C1131 C1130 1.363 . S
C1131 C1137 1.428 . S
H1132 C1128 0.930 . S
H1133 C1130 0.929 . S
S1134 N1135 1.613 . S
S1134 N1136 1.610 . S
N1135 S1134 1.613 . S
N1135 C1138 1.350 . S
N1136 S1134 1.610 . S
N1136 C1137 1.351 . S
C1137 C1131 1.428 . S
C1137 N1136 1.351 . S
C1137 C1138 1.434 . S
C1138 C1129 1.429 . S
C1138 N1135 1.350 . S
C1138 C1137 1.434 . S
C1139 C1140 1.369 . S
C1139 C1141 1.419 . S
C1139 H1143 0.930 . S
C1140 C1139 1.369 . S
C1140 C1149 1.429 . S
C1141 C1139 1.419 . S
C1141 C1142 1.363 . S
C1141 H1144 0.929 . S
C1142 C1141 1.363 . S
C1142 C1148 1.428 . S
H1143 C1139 0.930 . S
H1144 C1141 0.929 . S
S1145 N1146 1.613 . S
S1145 N1147 1.610 . S
N1146 S1145 1.613 . S
N1146 C1149 1.350 . S
N1147 S1145 1.610 . S
N1147 C1148 1.351 . S
C1148 C1142 1.428 . S
C1148 N1147 1.351 . S
C1148 C1149 1.434 . S
C1149 C1140 1.429 . S
C1149 N1146 1.350 . S
C1149 C1148 1.434 . S
C1150 C1151 1.369 . S
C1150 C1152 1.419 . S
C1150 H1154 0.930 . S
C1151 C1150 1.369 . S
C1151 C1160 1.429 . S
C1152 C1150 1.419 . S
C1152 C1153 1.363 . S
C1152 H1155 0.929 . S
C1153 C1152 1.363 . S
C1153 C1159 1.428 . S
H1154 C1150 0.930 . S
H1155 C1152 0.929 . S
S1156 N1157 1.613 . S
S1156 N1158 1.610 . S
N1157 S1156 1.613 . S
N1157 C1160 1.350 . S
N1158 S1156 1.610 . S
N1158 C1159 1.351 . S
C1159 C1153 1.428 . S
C1159 N1158 1.351 . S
C1159 C1160 1.434 . S
C1160 C1151 1.429 . S
C1160 N1157 1.350 . S
C1160 C1159 1.434 . S
C1161 C1162 1.369 . S
C1161 C1163 1.419 . S
C1161 H1165 0.930 . S
C1162 C1161 1.369 . S
C1162 C1171 1.429 . S
C1163 C1161 1.419 . S
C1163 C1164 1.363 . S
C1163 H1166 0.929 . S
C1164 C1163 1.363 . S
C1164 C1170 1.428 . S
H1165 C1161 0.930 . S
H1166 C1163 0.929 . S
S1167 N1168 1.613 . S
S1167 N1169 1.610 . S
N1168 S1167 1.613 . S
N1168 C1171 1.350 . S
N1169 S1167 1.610 . S
N1169 C1170 1.351 . S
C1170 C1164 1.428 . S
C1170 N1169 1.351 . S
C1170 C1171 1.434 . S
C1171 C1162 1.429 . S
C1171 N1168 1.350 . S
C1171 C1170 1.434 . S
C1172 C1173 1.369 . S
C1172 C1174 1.419 . S
C1172 H1176 0.930 . S
C1173 C1172 1.369 . S
C1173 C1182 1.429 . S
C1174 C1172 1.419 . S
C1174 C1175 1.363 . S
C1174 H1177 0.929 . S
C1175 C1174 1.363 . S
C1175 C1181 1.428 . S
H1176 C1172 0.930 . S
H1177 C1174 0.929 . S
S1178 N1179 1.613 . S
S1178 N1180 1.610 . S
N1179 S1178 1.613 . S
N1179 C1182 1.350 . S
N1180 S1178 1.610 . S
N1180 C1181 1.351 . S
C1181 C1175 1.428 . S
C1181 N1180 1.351 . S
C1181 C1182 1.434 . S
C1182 C1173 1.429 . S
C1182 N1179 1.350 . S
C1182 C1181 1.434 . S
C1183 C1184 1.369 . S
C1183 C1185 1.419 . S
C1183 H1187 0.930 . S
C1184 C1183 1.369 . S
C1184 C1193 1.429 . S
C1185 C1183 1.419 . S
C1185 C1186 1.363 . S
C1185 H1188 0.929 . S
C1186 C1185 1.363 . S
C1186 C1192 1.428 . S
H1187 C1183 0.930 . S
H1188 C1185 0.929 . S
S1189 N1190 1.613 . S
S1189 N1191 1.610 . S
N1190 S1189 1.613 . S
N1190 C1193 1.350 . S
N1191 S1189 1.610 . S
N1191 C1192 1.351 . S
C1192 C1186 1.428 . S
C1192 N1191 1.351 . S
C1192 C1193 1.434 . S
C1193 C1184 1.429 . S
C1193 N1190 1.350 . S
C1193 C1192 1.434 . S
C1194 C1195 1.369 . S
C1194 C1196 1.419 1_455 S
C1194 H1198 0.930 . S
C1195 C1194 1.369 . S
C1195 C1204 1.429 . S
C1196 C1194 1.419 1_655 S
C1196 C1197 1.363 . S
C1196 H1199 0.929 . S
C1197 C1196 1.363 . S
C1197 C1203 1.428 . S
H1198 C1194 0.930 . S
H1199 C1196 0.929 . S
S1200 N1201 1.613 . S
S1200 N1202 1.610 1_455 S
N1201 S1200 1.613 . S
N1201 C1204 1.350 . S
N1202 S1200 1.610 1_655 S
N1202 C1203 1.351 . S
C1203 C1197 1.428 . S
C1203 N1202 1.351 . S
C1203 C1204 1.434 1_655 S
C1204 C1195 1.429 . S
C1204 N1201 1.350 . S
C1204 C1203 1.434 1_455 S
C1205 C1206 1.369 . S
C1205 C1207 1.419 . S
C1205 H1209 0.930 . S
C1206 C1205 1.369 . S
C1206 C1215 1.429 . S
C1207 C1205 1.419 . S
C1207 C1208 1.363 . S
C1207 H1210 0.929 . S
C1208 C1207 1.363 . S
C1208 C1214 1.428 . S
H1209 C1205 0.930 . S
H1210 C1207 0.929 . S
S1211 N1212 1.613 . S
S1211 N1213 1.610 . S
N1212 S1211 1.613 . S
N1212 C1215 1.350 . S
N1213 S1211 1.610 . S
N1213 C1214 1.351 . S
C1214 C1208 1.428 . S
C1214 N1213 1.351 . S
C1214 C1215 1.434 . S
C1215 C1206 1.429 . S
C1215 N1212 1.350 . S
C1215 C1214 1.434 . S
C1216 C1217 1.369 . S
C1216 C1218 1.419 1_545 S
C1216 H1220 0.930 . S
C1217 C1216 1.369 . S
C1217 C1226 1.429 . S
C1218 C1216 1.419 1_565 S
C1218 C1219 1.363 . S
C1218 H1221 0.929 . S
C1219 C1218 1.363 . S
C1219 C1225 1.428 . S
H1220 C1216 0.930 . S
H1221 C1218 0.929 . S
S1222 N1223 1.613 . S
S1222 N1224 1.610 1_545 S
N1223 S1222 1.613 . S
N1223 C1226 1.350 . S
N1224 S1222 1.610 1_565 S
N1224 C1225 1.351 . S
C1225 C1219 1.428 . S
C1225 N1224 1.351 . S
C1225 C1226 1.434 1_565 S
C1226 C1217 1.429 . S
C1226 N1223 1.350 . S
C1226 C1225 1.434 1_545 S
C1227 C1228 1.369 1_554 S
C1227 C1229 1.419 1_545 S
C1227 H1231 0.930 . S
C1228 C1227 1.369 1_556 S
C1228 C1237 1.429 . S
C1229 C1227 1.419 1_565 S
C1229 C1230 1.363 . S
C1229 H1232 0.929 . S
C1230 C1229 1.363 . S
C1230 C1236 1.428 1_554 S
H1231 C1227 0.930 . S
H1232 C1229 0.929 . S
S1233 N1234 1.613 1_565 S
S1233 N1235 1.610 . S
N1234 S1233 1.613 1_545 S
N1234 C1237 1.350 . S
N1235 S1233 1.610 . S
N1235 C1236 1.351 . S
C1236 C1230 1.428 1_556 S
C1236 N1235 1.351 . S
C1236 C1237 1.434 1_565 S
C1237 C1228 1.429 . S
C1237 N1234 1.350 . S
C1237 C1236 1.434 1_545 S
C1238 C1239 1.369 1_554 S
C1238 C1240 1.419 1_655 S
C1238 H1242 0.930 . S
C1239 C1238 1.369 1_556 S
C1239 C1248 1.429 . S
C1240 C1238 1.419 1_455 S
C1240 C1241 1.363 . S
C1240 H1243 0.929 . S
C1241 C1240 1.363 . S
C1241 C1247 1.428 1_554 S
H1242 C1238 0.930 . S
H1243 C1240 0.929 . S
S1244 N1245 1.613 1_455 S
S1244 N1246 1.610 . S
N1245 S1244 1.613 1_655 S
N1245 C1248 1.350 . S
N1246 S1244 1.610 . S
N1246 C1247 1.351 . S
C1247 C1241 1.428 1_556 S
C1247 N1246 1.351 . S
C1247 C1248 1.434 1_455 S
C1248 C1239 1.429 . S
C1248 N1245 1.350 . S
C1248 C1247 1.434 1_655 S
C1249 C1250 1.369 . S
C1249 C1251 1.419 1_556 S
C1249 H1253 0.930 . S
C1250 C1249 1.369 . S
C1250 C1259 1.429 . S
C1251 C1249 1.419 1_554 S
C1251 C1252 1.363 . S
C1251 H1254 0.929 . S
C1252 C1251 1.363 . S
C1252 C1258 1.428 . S
H1253 C1249 0.930 . S
H1254 C1251 0.929 . S
S1255 N1256 1.613 1_554 S
S1255 N1257 1.610 . S
N1256 S1255 1.613 1_556 S
N1256 C1259 1.350 . S
N1257 S1255 1.610 . S
N1257 C1258 1.351 . S
C1258 C1252 1.428 . S
C1258 N1257 1.351 . S
C1258 C1259 1.434 1_554 S
C1259 C1250 1.429 . S
C1259 N1256 1.350 . S
C1259 C1258 1.434 1_556 S
C469 C10 1.261 . S
C471 C96 1.189 . S
C480 C23 1.261 . S
C482 C109 1.191 . S
C491 C83 1.187 . S
C493 C36 1.261 . S
C502 C148 1.189 . S
C504 C49 1.261 . S
C513 C62 1.261 . S
C515 C122 1.190 . S
C524 C75 1.256 . S
C526 C135 1.194 . S
C535 C18 1.186 . S
C537 C88 1.260 . S
C546 C31 1.186 . S
C548 C101 1.260 . S
C557 C114 1.261 . S
C559 C5 1.189 . S
C568 C127 1.257 . S
C570 C70 1.187 . S
C579 C44 1.186 . S
C581 C140 1.260 . S
C590 C153 1.256 . S
C592 C57 1.190 . S
C601 C252 1.189 . S
C603 C166 1.261 . S
C612 C179 1.259 . S
C614 C265 1.185 . S
C623 C192 1.258 . S
C625 C239 1.186 . S
C634 C304 1.193 . S
C636 C205 1.256 . S
C645 C218 1.256 . S
C647 C278 1.191 . S
C656 C291 1.190 . S
C658 C231 1.261 . S
C667 C174 1.197 . S
C669 C244 1.260 . S
C678 C257 1.256 . S
C680 C187 1.188 . S
C689 C161 1.193 . S
C691 C270 1.257 . S
C700 C283 1.261 . S
C702 C226 1.187 . S
C711 C296 1.260 . S
C713 C200 1.195 . S
C722 C309 1.261 . S
C724 C213 1.193 . S
C733 C408 1.189 . S
C735 C322 1.257 . S
C744 C421 1.195 . S
C746 C335 1.260 . S
C755 C395 1.192 . S
C757 C348 1.260 . S
C766 C361 1.261 . S
C768 C460 1.190 . S
C777 C374 1.259 . S
C779 C434 1.196 . S
C788 C447 1.192 . S
C790 C387 1.256 . S
C799 C400 1.256 . S
C801 C330 1.193 . S
C810 C343 1.184 . S
C812 C413 1.259 . S
C821 C317 1.198 . S
C823 C426 1.259 . S
C832 C439 1.261 . S
C834 C382 1.187 . S
C843 C452 1.257 . S
C845 C356 1.196 . S
C854 C465 1.257 . S
C856 C369 1.195 . S
C865 C47 1.381 . S
C867 C8 1.391 . S
C876 C60 1.391 . S
C878 C21 1.386 . S
C887 C34 1.380 . S
C889 C73 1.393 . S
C898 C125 1.380 . S
C900 C86 1.390 . S
C909 C138 1.390 . S
C911 C99 1.383 . S
C920 C151 1.388 . S
C922 C112 1.384 . S
C931 C203 1.393 . S
C933 C164 1.384 . S
C942 C216 1.386 . S
C944 C177 1.390 . S
C953 C190 1.386 . S
C955 C229 1.390 . S
C964 C281 1.393 . S
C966 C242 1.385 . S
C975 C294 1.386 . S
C977 C255 1.385 . S
C986 C307 1.395 . S
C988 C268 1.381 . S
C997 C359 1.390 . S
C999 C320 1.387 . S
C1008 C333 1.394 . S
C1010 C372 1.381 . S
C1019 C385 1.379 . S
C1021 C346 1.393 . S
C1030 C398 1.394 . S
C1032 C437 1.384 . S
C1041 C411 1.395 . S
C1043 C450 1.381 . S
C1052 C424 1.382 . S
C1054 C463 1.388 . S
C1063 C0 1.440 . S
C1065 C234 1.443 . S
C1074 C247 1.438 . S
C1076 C13 1.445 . S
C1085 C260 1.444 . S
C1087 C26 1.440 . S
C1096 C429 1.438 . S
C1098 C39 1.445 . S
C1107 C442 1.443 . S
C1109 C52 1.440 . S
C1118 C455 1.438 . S
C1120 C65 1.445 . S
C1129 C78 1.438 . S
C1131 C312 1.445 . S
C1140 C325 1.446 . S
C1142 C91 1.439 . S
C1151 C338 1.445 . S
C1153 C104 1.439 . S
C1162 C117 1.442 . S
C1164 C195 1.442 . S
C1173 C130 1.438 . S
C1175 C208 1.445 . S
C1184 C143 1.444 . S
C1186 C221 1.440 . S
C1195 C390 1.439 . S
C1197 C156 1.444 . S
C1206 C403 1.439 . S
C1208 C169 1.445 . S
C1217 C182 1.440 . S
C1219 C416 1.444 . S
C1228 C273 1.443 . S
C1230 C351 1.441 . S
C1239 C286 1.446 . S
C1241 C364 1.439 . S
C1250 C299 1.445 . S
C1252 C377 1.439 . S
