# Generated by pormake.
# Topology ukh, (4)-cn, num edge types: 1
# Building blocks:
#     Node 0, Type 0, BuildingBlock: CEKHIL_clean_sbu_0, # of connection points: 4
#     Node 1, Type 0, BuildingBlock: CEKHIL_clean_sbu_0, # of connection points: 4
#     Node 2, Type 0, BuildingBlock: CEKHIL_clean_sbu_0, # of connection points: 4
#     Node 3, Type 0, BuildingBlock: CEKHIL_clean_sbu_0, # of connection points: 4
#     Node 4, Type 0, BuildingBlock: CEKHIL_clean_sbu_0, # of connection points: 4
#     Node 5, Type 0, BuildingBlock: CEKHIL_clean_sbu_0, # of connection points: 4
#     Node 6, Type 0, BuildingBlock: CEKHIL_clean_sbu_0, # of connection points: 4
#     Node 7, Type 0, BuildingBlock: CEKHIL_clean_sbu_0, # of connection points: 4
#     Node 8, Type 0, BuildingBlock: CEKHIL_clean_sbu_0, # of connection points: 4
#     Node 9, Type 0, BuildingBlock: CEKHIL_clean_sbu_0, # of connection points: 4
#     Node 10, Type 0, BuildingBlock: CEKHIL_clean_sbu_0, # of connection points: 4
#     Node 11, Type 0, BuildingBlock: CEKHIL_clean_sbu_0, # of connection points: 4
#     Edge 12, Type (0, 0), BuildingBlock: XUDNAN_clean_linker_2, # of connection points: 2
#     Edge 13, Type (0, 0), BuildingBlock: XUDNAN_clean_linker_2, # of connection points: 2
#     Edge 14, Type (0, 0), BuildingBlock: XUDNAN_clean_linker_2, # of connection points: 2
#     Edge 15, Type (0, 0), BuildingBlock: XUDNAN_clean_linker_2, # of connection points: 2
#     Edge 16, Type (0, 0), BuildingBlock: XUDNAN_clean_linker_2, # of connection points: 2
#     Edge 17, Type (0, 0), BuildingBlock: XUDNAN_clean_linker_2, # of connection points: 2
#     Edge 18, Type (0, 0), BuildingBlock: XUDNAN_clean_linker_2, # of connection points: 2
#     Edge 19, Type (0, 0), BuildingBlock: XUDNAN_clean_linker_2, # of connection points: 2
#     Edge 20, Type (0, 0), BuildingBlock: XUDNAN_clean_linker_2, # of connection points: 2
#     Edge 21, Type (0, 0), BuildingBlock: XUDNAN_clean_linker_2, # of connection points: 2
#     Edge 22, Type (0, 0), BuildingBlock: XUDNAN_clean_linker_2, # of connection points: 2
#     Edge 23, Type (0, 0), BuildingBlock: XUDNAN_clean_linker_2, # of connection points: 2
#     Edge 24, Type (0, 0), BuildingBlock: XUDNAN_clean_linker_2, # of connection points: 2
#     Edge 25, Type (0, 0), BuildingBlock: XUDNAN_clean_linker_2, # of connection points: 2
#     Edge 26, Type (0, 0), BuildingBlock: XUDNAN_clean_linker_2, # of connection points: 2
#     Edge 27, Type (0, 0), BuildingBlock: XUDNAN_clean_linker_2, # of connection points: 2
#     Edge 28, Type (0, 0), BuildingBlock: XUDNAN_clean_linker_2, # of connection points: 2
#     Edge 29, Type (0, 0), BuildingBlock: XUDNAN_clean_linker_2, # of connection points: 2
#     Edge 30, Type (0, 0), BuildingBlock: XUDNAN_clean_linker_2, # of connection points: 2
#     Edge 31, Type (0, 0), BuildingBlock: XUDNAN_clean_linker_2, # of connection points: 2
#     Edge 32, Type (0, 0), BuildingBlock: XUDNAN_clean_linker_2, # of connection points: 2
#     Edge 33, Type (0, 0), BuildingBlock: XUDNAN_clean_linker_2, # of connection points: 2
#     Edge 34, Type (0, 0), BuildingBlock: XUDNAN_clean_linker_2, # of connection points: 2
#     Edge 35, Type (0, 0), BuildingBlock: XUDNAN_clean_linker_2, # of connection points: 2
# Relax obj value: 0.070
# Max RMSD: 0.091
# Mean RMSD: 0.091
data_MOF--net-ukh--node1-CEKHIL_clean_sbu_0--edge1-XUDNAN_clean_linker_2
_symmetry_space_group_name_H-M    P1
_symmetry_Int_Tables_number       1
_symmetry_cell_setting            triclinic
loop_
_symmetry_equiv_pos_as_xyz
'x, y, z'
_cell_length_a     32.369418
_cell_length_b     32.336676
_cell_length_c     60.749666
_cell_angle_alpha  90.017282
_cell_angle_beta   89.99894
_cell_angle_gamma 120.03643
loop_
_atom_site_label
_atom_site_type_symbol
_atom_site_fract_x
_atom_site_fract_y
_atom_site_fract_z
_atom_type_partial_charge
Co0 Co 0.33199 0.26172 0.04677 0.0
O1 O 0.35942 0.32866 0.05305 0.0
O2 O 0.40139 0.29448 0.04394 0.0
C3 C 0.27403 0.25733 0.02471 0.0
O4 O 0.31325 0.19279 0.03826 0.0
Co5 Co 0.22695 0.1944 0.06205 0.0
O6 O 0.23428 0.14663 0.04472 0.0
C7 C 0.30532 0.22917 0.09434 0.0
C8 C 0.40074 0.33339 0.04896 0.0
C9 C 0.2738 0.15219 0.03754 0.0
O10 O 0.33646 0.24757 0.07883 0.0
O11 O 0.26043 0.21096 0.09113 0.0
O12 O 0.31641 0.27183 0.01685 0.0
O13 O 0.26967 0.25065 0.04567 0.0
Co14 Co 0.08115 0.34228 0.38412 0.0
O15 O 0.04558 0.37095 0.39505 0.0
O16 O 0.10736 0.40673 0.37252 0.0
C17 C 0.01638 0.27329 0.37387 0.0
O18 O 0.12495 0.32161 0.36908 0.0
Co19 Co 0.06642 0.24822 0.4058 0.0
O20 O 0.09595 0.24421 0.37802 0.0
C21 C 0.13034 0.34224 0.42668 0.0
C22 C 0.07292 0.4078 0.38313 0.0
C23 C 0.12301 0.28098 0.36658 0.0
O24 O 0.12389 0.36519 0.41098 0.0
O25 O 0.10926 0.29661 0.42786 0.0
O26 O 0.03397 0.31013 0.36097 0.0
O27 O 0.03575 0.28037 0.39309 0.0
Co28 Co 0.7579 0.06745 0.71791 0.0
O29 O 0.6905 0.02592 0.72228 0.0
O30 O 0.72238 0.0952 0.7049 0.0
C31 C 0.77246 0.00929 0.70699 0.0
O32 O 0.82644 0.11814 0.70967 0.0
Co33 Co 0.82779 0.05154 0.74716 0.0
O34 O 0.87749 0.10388 0.72914 0.0
C35 C 0.77377 0.09352 0.76616 0.0
C36 C 0.68409 0.05697 0.71168 0.0
C37 C 0.86901 0.12769 0.71493 0.0
O38 O 0.7627 0.1007 0.74677 0.0
O39 O 0.79421 0.06905 0.76982 0.0
O40 O 0.75679 0.02859 0.69298 0.0
O41 O 0.77446 0.0226 0.72714 0.0
Co42 Co 0.70037 0.75417 0.05306 0.0
O43 O 0.68831 0.69363 0.06404 0.0
O44 O 0.63251 0.70556 0.04991 0.0
C45 C 0.76421 0.76744 0.03293 0.0
O46 O 0.7035 0.81395 0.03929 0.0
Co47 Co 0.79891 0.84318 0.06545 0.0
O48 O 0.78105 0.87211 0.0413 0.0
C49 C 0.71761 0.807 0.09668 0.0
C50 C 0.64446 0.67553 0.05791 0.0
C51 C 0.7385 0.856 0.03443 0.0
O52 O 0.68965 0.77381 0.08326 0.0
O53 O 0.76205 0.83538 0.09299 0.0
O54 O 0.72157 0.74181 0.02501 0.0
O55 O 0.76673 0.77999 0.05323 0.0
Co56 Co 0.92416 0.67763 0.3875 0.0
O57 O 0.95672 0.64594 0.39861 0.0
O58 O 0.89379 0.6123 0.37665 0.0
C59 C 0.99123 0.74344 0.37634 0.0
O60 O 0.88282 0.70101 0.37229 0.0
Co61 Co 0.9464 0.77584 0.40736 0.0
O62 O 0.91689 0.77975 0.37954 0.0
C63 C 0.8789 0.68498 0.42999 0.0
C64 C 0.92754 0.60937 0.38696 0.0
C65 C 0.88741 0.74255 0.36894 0.0
O66 O 0.88258 0.6592 0.41476 0.0
O67 O 0.9029 0.73072 0.43026 0.0
O68 O 0.97099 0.70592 0.36386 0.0
O69 O 0.97267 0.73882 0.3956 0.0
Co70 Co 0.26166 0.92417 0.70702 0.0
O71 O 0.32374 0.97399 0.71556 0.0
O72 O 0.30932 0.90453 0.70217 0.0
C73 C 0.24423 0.97254 0.68742 0.0
O74 O 0.20033 0.86607 0.69535 0.0
Co75 Co 0.17413 0.93293 0.72252 0.0
O76 O 0.14286 0.88601 0.69858 0.0
C77 C 0.21708 0.89248 0.75255 0.0
C78 C 0.34049 0.94741 0.70882 0.0
C79 C 0.15812 0.85918 0.69126 0.0
O80 O 0.24787 0.89682 0.73793 0.0
O81 O 0.1872 0.90701 0.74981 0.0
O82 O 0.26876 0.95518 0.6786 0.0
O83 O 0.23517 0.96408 0.70812 0.0
Co84 Co 0.7457 0.664 0.62247 0.0
O85 O 0.67799 0.63772 0.62011 0.0
O86 O 0.71258 0.59548 0.62813 0.0
C87 C 0.75889 0.72736 0.64306 0.0
O88 O 0.81552 0.68163 0.62711 0.0
Co89 Co 0.81011 0.76406 0.60139 0.0
O90 O 0.86138 0.75829 0.61635 0.0
C91 C 0.76231 0.67926 0.57302 0.0
C92 C 0.67331 0.59665 0.62494 0.0
C93 C 0.85654 0.72004 0.62488 0.0
O94 O 0.74982 0.6521 0.59009 0.0
O95 O 0.78208 0.72479 0.57418 0.0
O96 O 0.7451 0.68628 0.65231 0.0
O97 O 0.75924 0.72732 0.62184 0.0
Co98 Co 0.08258 0.75627 0.94449 0.0
O99 O 0.03294 0.69509 0.93465 0.0
O100 O 0.09598 0.70553 0.95316 0.0
C101 C 0.03177 0.77798 0.95856 0.0
O102 O 0.13906 0.81632 0.95816 0.0
Co103 Co 0.08502 0.84603 0.92367 0.0
O104 O 0.12938 0.87852 0.94837 0.0
C105 C 0.11711 0.78977 0.89809 0.0
C106 C 0.05491 0.67598 0.94421 0.0
C107 C 0.14999 0.86063 0.9595 0.0
O108 O 0.11732 0.76693 0.91543 0.0
O109 O 0.10076 0.81852 0.89769 0.0
O110 O 0.04413 0.75216 0.97009 0.0
O111 O 0.04713 0.78615 0.93858 0.0
Co112 Co 0.3191 0.06566 0.28123 0.0
O113 O 0.35078 0.03103 0.2735 0.0
O114 O 0.38764 0.105 0.28628 0.0
C115 C 0.26221 0.00721 0.30195 0.0
O116 O 0.29496 0.11072 0.29126 0.0
Co117 Co 0.21389 0.02236 0.26494 0.0
O118 O 0.21549 0.07076 0.28534 0.0
C119 C 0.29394 0.08215 0.2349 0.0
C120 C 0.39003 0.0677 0.27996 0.0
C121 C 0.25321 0.10669 0.29284 0.0
O122 O 0.32485 0.08935 0.24996 0.0
O123 O 0.24894 0.05447 0.23735 0.0
O124 O 0.30375 0.03615 0.31021 0.0
O125 O 0.2582 0.01084 0.281 0.0
Co126 Co 0.25174 0.30913 0.61185 0.0
O127 O 0.31442 0.32247 0.60387 0.0
O128 O 0.30015 0.37072 0.62406 0.0
C129 C 0.22684 0.23351 0.62245 0.0
O130 O 0.18962 0.30287 0.62408 0.0
Co131 Co 0.16703 0.22944 0.58527 0.0
O132 O 0.12871 0.23701 0.60861 0.0
C133 C 0.22962 0.32276 0.56496 0.0
C134 C 0.33131 0.36128 0.61528 0.0
C135 C 0.14474 0.27138 0.62239 0.0
O136 O 0.24729 0.34076 0.58389 0.0
O137 O 0.20138 0.27811 0.56176 0.0
O138 O 0.25057 0.26879 0.63592 0.0
O139 O 0.22292 0.24541 0.60263 0.0
Co140 Co 0.93454 0.25853 0.94665 0.0
O141 O 0.97181 0.32541 0.93972 0.0
O142 O 0.90444 0.29304 0.95863 0.0
C143 C 0.99781 0.25215 0.95743 0.0
O144 O 0.88831 0.1901 0.95756 0.0
Co145 Co 0.95509 0.18726 0.9206 0.0
O146 O 0.9127 0.14165 0.9431 0.0
C147 C 0.89401 0.22164 0.90101 0.0
C148 C 0.94065 0.3313 0.95044 0.0
C149 C 0.88527 0.14876 0.95565 0.0
O150 O 0.89674 0.24549 0.91844 0.0
O151 O 0.91653 0.19886 0.89838 0.0
O152 O 0.97765 0.26751 0.97111 0.0
O153 O 0.98174 0.24508 0.93759 0.0
Co154 Co 0.68202 0.9487 0.28412 0.0
O155 O 0.65098 0.98471 0.27822 0.0
O156 O 0.61376 0.91019 0.29034 0.0
C157 C 0.74194 0.00576 0.30414 0.0
O158 O 0.70626 0.90286 0.29238 0.0
Co159 Co 0.78426 0.99118 0.26426 0.0
O160 O 0.78458 0.94222 0.2837 0.0
C161 C 0.70027 0.93855 0.23569 0.0
C162 C 0.61183 0.94814 0.28475 0.0
C163 C 0.74815 0.90691 0.29245 0.0
O164 O 0.67247 0.92591 0.25254 0.0
O165 O 0.74514 0.96828 0.23675 0.0
O166 O 0.7011 0.97748 0.31322 0.0
O167 O 0.7432 1.00256 0.283 0.0
H168 H 0.54591 0.62034 0.0509 0.0
H169 H 0.67236 0.6104 0.06469 0.0
H170 H 0.62488 0.52308 0.06281 0.0
H171 H 0.46561 0.51658 0.08384 0.0
H172 H 0.41602 0.49711 0.06515 0.0
H173 H 0.46003 0.5596 0.06712 0.0
H174 H 0.47472 0.56203 0.0251 0.0
H175 H 0.43098 0.49946 0.02305 0.0
H176 H 0.4908 0.52101 0.01312 0.0
H177 H 0.56505 0.43635 0.05795 0.0
H178 H 0.49399 0.3556 0.05423 0.0
H179 H 0.40511 0.41982 0.04588 0.0
C180 C 0.56344 0.59973 0.05362 0.0
C181 C 0.61303 0.62262 0.05792 0.0
C182 C 0.63448 0.5941 0.06144 0.0
C183 C 0.60786 0.54422 0.06031 0.0
C184 C 0.55936 0.52274 0.05588 0.0
C185 C 0.53705 0.54936 0.0529 0.0
C186 C 0.48396 0.5167 0.04908 0.0
C187 C 0.45468 0.52287 0.06739 0.0
C188 C 0.46927 0.52533 0.02623 0.0
C189 C 0.48031 0.468 0.05033 0.0
C190 C 0.52434 0.47233 0.05399 0.0
C191 C 0.53021 0.43241 0.05525 0.0
C192 C 0.48978 0.38671 0.05304 0.0
C193 C 0.44408 0.38137 0.04994 0.0
C194 C 0.43957 0.42271 0.04846 0.0
H195 H 0.04861 0.45302 0.41403 0.0
H196 H 0.0629 0.44168 0.34372 0.0
H197 H 0.0209 0.48695 0.33699 0.0
H198 H 0.93497 0.44108 0.41458 0.0
H199 H 0.94773 0.48541 0.43551 0.0
H200 H 0.98024 0.45366 0.43497 0.0
H201 H 0.06059 0.53345 0.43309 0.0
H202 H 0.0284 0.56546 0.43435 0.0
H203 H 0.06936 0.5764 0.41205 0.0
H204 H 0.96876 0.52532 0.33828 0.0
H205 H 0.92898 0.57179 0.34711 0.0
H206 H 0.95638 0.56527 0.41646 0.0
C207 C 0.04403 0.46131 0.39725 0.0
C208 C 0.0593 0.44443 0.37936 0.0
C209 C 0.05226 0.45524 0.35761 0.0
C210 C 0.02784 0.48028 0.35366 0.0
C211 C 0.01169 0.49503 0.37168 0.0
C212 C 0.02104 0.48745 0.39305 0.0
C213 C 1.00167 0.50871 0.40951 0.0
C214 C 0.96392 0.46988 0.42452 0.0
C215 C 0.04243 0.54837 0.42304 0.0
C216 C 0.97929 0.52882 0.39411 0.0
C217 C 0.98441 0.51957 0.37237 0.0
C218 C 0.96507 0.53323 0.35523 0.0
C219 C 0.94192 0.55897 0.36041 0.0
C220 C 0.93928 0.57159 0.38245 0.0
C221 C 0.95753 0.5556 0.39949 0.0
H222 H 0.39777 0.9063 0.71436 0.0
H223 H 0.40133 0.03839 0.69742 0.0
H224 H 0.4887 0.07936 0.69414 0.0
H225 H 0.50156 0.96145 0.74837 0.0
H226 H 0.52344 0.92216 0.74043 0.0
H227 H 0.46043 0.90133 0.73949 0.0
H228 H 0.45825 0.87906 0.69836 0.0
H229 H 0.52131 0.8998 0.6992 0.0
H230 H 0.49797 0.92386 0.67915 0.0
H231 H 0.57582 0.10745 0.69355 0.0
H232 H 0.65784 0.12135 0.6979 0.0
H233 H 0.5997 0.97315 0.71711 0.0
C234 C 0.41705 0.94359 0.70965 0.0
C235 C 0.39275 0.9691 0.70605 0.0
C236 C 0.41923 0.01816 0.70033 0.0
C237 C 0.46891 0.04179 0.69831 0.0
C238 C 0.49205 0.01613 0.70227 0.0
C239 C 0.46721 0.96823 0.70796 0.0
C240 C 0.50154 0.95025 0.71275 0.0
C241 C 0.49643 0.93278 0.73668 0.0
C242 C 0.49433 0.91091 0.69639 0.0
C243 C 0.54914 0.99555 0.70906 0.0
C244 C 0.54278 0.03294 0.70272 0.0
C245 C 0.58135 0.07842 0.69848 0.0
C246 C 0.6278 0.08603 0.70096 0.0
C247 C 0.63522 0.04851 0.7079 0.0
C248 C 0.59522 1.00267 0.71185 0.0
H249 H 0.58848 0.59497 0.62888 0.0
H250 H 0.64898 0.50215 0.62356 0.0
H251 H 0.56739 0.43176 0.62263 0.0
H252 H 0.48689 0.51475 0.66406 0.0
H253 H 0.44713 0.53115 0.65102 0.0
H254 H 0.51009 0.5737 0.65261 0.0
H255 H 0.51297 0.58438 0.61029 0.0
H256 H 0.45017 0.54173 0.60852 0.0
H257 H 0.4922 0.53272 0.59276 0.0
H258 H 0.48023 0.37302 0.6188 0.0
H259 H 0.39301 0.32819 0.61459 0.0
H260 H 0.38771 0.45848 0.6241 0.0
C261 C 0.58462 0.55978 0.62776 0.0
C262 C 0.62508 0.55392 0.62623 0.0
C263 C 0.61853 0.50737 0.62485 0.0
C264 C 0.57234 0.46729 0.62427 0.0
C265 C 0.53326 0.47445 0.62546 0.0
C266 C 0.53889 0.51947 0.62747 0.0
C267 C 0.49098 0.51746 0.62801 0.0
C268 C 0.48333 0.53532 0.65025 0.0
C269 C 0.48633 0.54574 0.60874 0.0
C270 C 0.45732 0.46423 0.62532 0.0
C271 C 0.48266 0.44024 0.62393 0.0
C272 C 0.46006 0.39133 0.62017 0.0
C273 C 0.41043 0.36626 0.6177 0.0
C274 C 0.38348 0.38981 0.6191 0.0
C275 C 0.40727 0.43945 0.62326 0.0
H276 H 0.02434 0.41453 0.95666 0.0
H277 H 0.8722 0.35732 0.94869 0.0
H278 H 0.88546 0.43977 0.94746 0.0
H279 H 0.04281 0.51625 0.99242 0.0
H280 H 0.10106 0.55558 0.98107 0.0
H281 H 0.07907 0.49225 0.98257 0.0
H282 H 0.09317 0.49082 0.9407 0.0
H283 H 0.11461 0.55393 0.93898 0.0
H284 H 0.06567 0.51289 0.92184 0.0
H285 H 0.91632 0.5273 0.94282 0.0
H286 H 0.96036 0.61465 0.93959 0.0
H287 H 0.09323 0.61722 0.95347 0.0
C288 C 0.99377 0.41949 0.95502 0.0
C289 C 0.94716 0.37973 0.95273 0.0
C290 C 0.908 0.38733 0.95067 0.0
C291 C 0.91531 0.43399 0.94985 0.0
C292 C 0.96186 0.47246 0.9517 0.0
C293 C 1.00034 0.46576 0.95479 0.0
C294 C 0.04667 0.51331 0.95645 0.0
C295 C 0.0687 0.51972 0.9795 0.0
C296 C 0.0821 0.51799 0.93841 0.0
C297 C 0.02859 0.54794 0.95276 0.0
C298 C 0.97951 0.52338 0.95007 0.0
C299 C 0.95458 0.54688 0.94526 0.0
C300 C 0.98017 0.59668 0.94332 0.0
C301 C 0.0304 0.62307 0.94635 0.0
C302 C 0.05489 0.59822 0.95129 0.0
H303 H 0.43072 0.03502 0.25066 0.0
H304 H 0.43956 0.0827 0.31801 0.0
H305 H 0.49178 0.04952 0.32732 0.0
H306 H 0.42668 0.92729 0.26079 0.0
H307 H 0.46479 0.93093 0.23835 0.0
H308 H 0.43062 0.96083 0.23639 0.0
H309 H 0.50738 0.04184 0.22914 0.0
H310 H 0.54154 0.01183 0.23017 0.0
H311 H 0.55702 0.06228 0.24787 0.0
H312 H 0.53482 1.00225 0.33003 0.0
H313 H 0.5836 0.96381 0.32408 0.0
H314 H 0.55257 0.95322 0.25433 0.0
C315 C 0.44518 0.03997 0.26715 0.0
C316 C 0.4319 0.06202 0.28358 0.0
C317 C 0.45043 0.06702 0.30511 0.0
C318 C 0.47939 0.04754 0.3106 0.0
C319 C 0.49013 0.02409 0.29422 0.0
C320 C 0.47515 0.02193 0.27274 0.0
C321 C 0.49299 0.99619 0.25807 0.0
C322 C 0.45127 0.95114 0.2478 0.0
C323 C 0.52675 0.03006 0.24027 0.0
C324 C 0.51957 0.98332 0.27474 0.0
C325 C 0.5166 0.99882 0.29559 0.0
C326 C 0.53762 0.99027 0.31375 0.0
C327 C 0.56452 0.96766 0.31031 0.0
C328 C 0.57057 0.95443 0.28888 0.0
C329 C 0.54717 0.96166 0.27096 0.0
H330 H 0.24316 0.11212 0.21142 0.0
H331 H 0.38031 0.11883 0.21302 0.0
H332 H 0.4037 0.16725 0.17867 0.0
H333 H 0.22358 0.09803 0.15517 0.0
H334 H 0.19611 0.13459 0.15361 0.0
H335 H 0.19313 0.104 0.17875 0.0
H336 H 0.23116 0.18466 0.19981 0.0
H337 H 0.23476 0.2156 0.17458 0.0
H338 H 0.28771 0.23347 0.19079 0.0
H339 H 0.40748 0.20868 0.14181 0.0
H340 H 0.39086 0.23645 0.10667 0.0
H341 H 0.25276 0.20509 0.13194 0.0
C342 C 0.27819 0.12366 0.20459 0.0
C343 C 0.30968 0.11113 0.21461 0.0
C344 C 0.35557 0.12787 0.20544 0.0
C345 C 0.36915 0.15551 0.18605 0.0
C346 C 0.33682 0.16694 0.17651 0.0
C347 C 0.29246 0.15175 0.18571 0.0
C348 C 0.26319 0.16693 0.17225 0.0
C349 C 0.21627 0.1233 0.16448 0.0
C350 C 0.25367 0.20227 0.18513 0.0
C351 C 0.29699 0.19131 0.15336 0.0
C352 C 0.3396 0.19169 0.15609 0.0
C353 C 0.37455 0.20922 0.13972 0.0
C354 C 0.36488 0.22513 0.11984 0.0
C355 C 0.32047 0.22297 0.11652 0.0
C356 C 0.28714 0.20746 0.13391 0.0
H357 H 0.19906 0.32605 0.44088 0.0
H358 H 0.13507 0.41337 0.45319 0.0
H359 H 0.17607 0.43714 0.48934 0.0
H360 H 0.17597 0.27416 0.48796 0.0
H361 H 0.22944 0.27069 0.49161 0.0
H362 H 0.21053 0.27502 0.46449 0.0
H363 H 0.29234 0.35053 0.45693 0.0
H364 H 0.31186 0.34621 0.48421 0.0
H365 H 0.31455 0.40076 0.47545 0.0
H366 H 0.2048 0.43266 0.52722 0.0
H367 H 0.21555 0.39911 0.56198 0.0
H368 H 0.25898 0.31312 0.52496 0.0
C369 C 0.19583 0.35216 0.45078 0.0
C370 C 0.16457 0.36836 0.44439 0.0
C371 C 0.15978 0.40146 0.45774 0.0
C372 C 0.18295 0.41504 0.47828 0.0
C373 C 0.21128 0.39578 0.48485 0.0
C374 C 0.21848 0.36567 0.47118 0.0
C375 C 0.24249 0.34241 0.48316 0.0
C376 C 0.21279 0.28738 0.48173 0.0
C377 C 0.29334 0.36112 0.47442 0.0
C378 C 0.24343 0.3602 0.50624 0.0
C379 C 0.22726 0.39257 0.50685 0.0
C380 C 0.21899 0.40865 0.52683 0.0
C381 C 0.2253 0.38959 0.54652 0.0
C382 C 0.23864 0.35415 0.54592 0.0
C383 C 0.24981 0.34105 0.52567 0.0
H384 H 0.74647 0.05895 0.80718 0.0
H385 H 0.79441 0.18639 0.76789 0.0
H386 H 0.81224 0.23466 0.80182 0.0
H387 H 0.70263 0.10221 0.85769 0.0
H388 H 0.72378 0.0727 0.87584 0.0
H389 H 0.69918 0.04708 0.84932 0.0
H390 H 0.77655 0.04568 0.84 0.0
H391 H 0.80147 0.0716 0.86612 0.0
H392 H 0.83315 0.10054 0.84124 0.0
H393 H 0.84767 0.27049 0.83845 0.0
H394 H 0.89287 0.28855 0.87352 0.0
H395 H 0.82038 0.13794 0.88902 0.0
C396 C 0.75822 0.09664 0.80585 0.0
C397 C 0.76885 0.11907 0.78513 0.0
C398 C 0.78523 0.16853 0.78371 0.0
C399 C 0.79552 0.19619 0.80293 0.0
C400 C 0.788 0.1735 0.82331 0.0
C401 C 0.76833 0.12441 0.82484 0.0
C402 C 0.77119 0.10922 0.84805 0.0
C403 C 0.72122 0.08115 0.85833 0.0
C404 C 0.79717 0.08015 0.84887 0.0
C405 C 0.80003 0.15755 0.85882 0.0
C406 C 0.80807 0.19434 0.84463 0.0
C407 C 0.84009 0.24206 0.84999 0.0
C408 C 0.86563 0.25213 0.86989 0.0
C409 C 0.85921 0.21449 0.88384 0.0
C410 C 0.82472 0.16715 0.87868 0.0
H411 H 0.74882 0.89337 0.11503 0.0
H412 H 0.64196 0.74408 0.12297 0.0
H413 H 0.61528 0.76403 0.15781 0.0
H414 H 0.78511 0.91675 0.16837 0.0
H415 H 0.7945 0.9766 0.1686 0.0
H416 H 0.79897 0.95075 0.14322 0.0
H417 H 0.73516 0.9668 0.12574 0.0
H418 H 0.73027 0.99251 0.15126 0.0
H419 H 0.67786 0.9438 0.13888 0.0
H420 H 0.60884 0.80052 0.19442 0.0
H421 H 0.62529 0.84767 0.22872 0.0
H422 H 0.73566 0.97229 0.19504 0.0
C423 C 0.71939 0.86477 0.12394 0.0
C424 C 0.69779 0.8171 0.11653 0.0
C425 C 0.65899 0.78086 0.12845 0.0
C426 C 0.64357 0.79196 0.14816 0.0
C427 C 0.66664 0.83953 0.15524 0.0
C428 C 0.70346 0.87528 0.14324 0.0
C429 C 0.72546 0.92289 0.15485 0.0
C430 C 0.77914 0.94286 0.15901 0.0
C431 C 0.71664 0.9586 0.14191 0.0
C432 C 0.69722 0.90819 0.17596 0.0
C433 C 0.66265 0.86029 0.17583 0.0
C434 C 0.63515 0.8382 0.19448 0.0
C435 C 0.64458 0.86532 0.21387 0.0
C436 C 0.6817 0.91367 0.21448 0.0
C437 C 0.70684 0.93553 0.19502 0.0
H438 H 0.75744 0.716 0.5336 0.0
H439 H 0.76354 0.59706 0.56293 0.0
H440 H 0.77888 0.57429 0.52624 0.0
H441 H 0.70709 0.65737 0.4779 0.0
H442 H 0.74345 0.71369 0.46421 0.0
H443 H 0.72054 0.71236 0.49142 0.0
H444 H 0.80657 0.76974 0.50517 0.0
H445 H 0.82969 0.77092 0.47824 0.0
H446 H 0.85176 0.75327 0.50155 0.0
H447 H 0.81163 0.57619 0.48795 0.0
H448 H 0.85603 0.60204 0.45258 0.0
H449 H 0.82687 0.71879 0.44903 0.0
C450 C 0.76012 0.68404 0.53217 0.0
C451 C 0.75927 0.6583 0.55104 0.0
C452 C 0.76349 0.61699 0.54861 0.0
C453 C 0.77226 0.60382 0.52782 0.0
C454 C 0.77562 0.63172 0.50963 0.0
C455 C 0.76864 0.67046 0.51163 0.0
C456 C 0.78027 0.6987 0.49051 0.0
C457 C 0.73514 0.6953 0.48041 0.0
C458 C 0.81939 0.7512 0.4941 0.0
C459 C 0.7981 0.67195 0.47677 0.0
C460 C 0.7942 0.63268 0.48772 0.0
C461 C 0.81364 0.60607 0.47899 0.0
C462 C 0.83875 0.62088 0.45893 0.0
C463 C 0.84474 0.66233 0.44821 0.0
C464 C 0.82258 0.6868 0.45689 0.0
H465 H 0.07431 0.76768 0.85873 0.0
H466 H 0.20802 0.80714 0.89102 0.0
H467 H 0.24861 0.82537 0.85472 0.0
H468 H 0.0988 0.72091 0.80506 0.0
H469 H 0.06871 0.74574 0.78969 0.0
H470 H 0.04909 0.72318 0.81713 0.0
H471 H 0.05856 0.80481 0.82834 0.0
H472 H 0.07913 0.82799 0.80127 0.0
H473 H 0.11562 0.85836 0.82485 0.0
H474 H 0.2767 0.85629 0.81557 0.0
H475 H 0.28783 0.89302 0.77846 0.0
H476 H 0.13493 0.83335 0.77316 0.0
C477 C 0.11161 0.77767 0.85797 0.0
C478 C 0.13803 0.78524 0.87741 0.0
C479 C 0.18709 0.79995 0.87614 0.0
C480 C 0.21038 0.81063 0.8556 0.0
C481 C 0.18371 0.80554 0.83665 0.0
C482 C 0.13501 0.78828 0.83773 0.0
C483 C 0.11517 0.7923 0.81587 0.0
C484 C 0.08093 0.74257 0.80637 0.0
C485 C 0.09075 0.82269 0.81772 0.0
C486 C 0.16058 0.8174 0.80262 0.0
C487 C 0.1998 0.82388 0.81452 0.0
C488 C 0.24604 0.85037 0.80598 0.0
C489 C 0.25213 0.8712 0.78496 0.0
C490 C 0.21223 0.86619 0.77314 0.0
C491 C 0.16609 0.83788 0.78192 0.0
H492 H 0.13326 0.88358 -0.00039 0.0
H493 H 0.24541 0.91708 0.95237 0.0
H494 H 0.29725 0.99354 0.9716 0.0
H495 H 0.14262 0.98961 -0.00061 0.0
H496 H 0.13039 0.99318 0.02806 0.0
H497 H 0.10802 0.9359 0.01525 0.0
H498 H 0.1503 0.91152 0.04432 0.0
H499 H 0.17196 0.96845 0.05773 0.0
H500 H 0.21331 0.94955 0.04924 0.0
H501 H 0.32936 0.07381 0.99119 0.0
H502 H 0.33899 0.14649 0.00982 0.0
H503 H 0.20428 0.05957 0.04344 0.0
C504 C 0.16994 0.9056 0.99431 0.0
C505 C 0.18623 0.8937 0.97514 0.0
C506 C 0.23319 0.92472 0.96762 0.0
C507 C 0.26264 0.96847 0.97834 0.0
C508 C 0.2445 0.98058 0.99655 0.0
C509 C 0.19939 0.94941 0.00472 0.0
C510 C 0.185 0.9731 0.02223 0.0
C511 C 0.13882 0.97294 0.01583 0.0
C512 C 0.17987 0.94924 0.04472 0.0
C513 C 0.22776 0.02309 0.02184 0.0
C514 C 0.26226 0.02681 0.00731 0.0
C515 C 0.30299 0.07093 0.00298 0.0
C516 C 0.30819 0.11212 0.01359 0.0
C517 C 0.27245 0.10898 0.02808 0.0
C518 C 0.23243 0.06351 0.03249 0.0
H519 H 0.09547 0.21403 0.33516 0.0
H520 H 0.22093 0.3314 0.36477 0.0
H521 H 0.27171 0.30405 0.34641 0.0
H522 H 0.12528 0.1296 0.34365 0.0
H523 H 0.1014 0.09724 0.31832 0.0
H524 H 0.07695 0.13153 0.32984 0.0
H525 H 0.09381 0.17972 0.29364 0.0
H526 H 0.11726 0.14468 0.28169 0.0
H527 H 0.15308 0.20892 0.2821 0.0
H528 H 0.30627 0.25394 0.3292 0.0
H529 H 0.32069 0.19177 0.31279 0.0
H530 H 0.17059 0.10916 0.29549 0.0
C531 C 0.13389 0.23521 0.33691 0.0
C532 C 0.15455 0.27526 0.35092 0.0
C533 C 0.20472 0.30137 0.35354 0.0
C534 C 0.23368 0.28574 0.34335 0.0
C535 C 0.21177 0.2444 0.33043 0.0
C536 C 0.16295 0.22026 0.32685 0.0
C537 C 0.14687 0.17469 0.31407 0.0
C538 C 0.11051 0.13071 0.32727 0.0
C539 C 0.12658 0.17718 0.29154 0.0
C540 C 0.19377 0.17572 0.31167 0.0
C541 C 0.23114 0.21614 0.32095 0.0
C542 C 0.27725 0.22259 0.32158 0.0
C543 C 0.28512 0.18699 0.31234 0.0
C544 C 0.24693 0.14533 0.30281 0.0
C545 C 0.20094 0.14034 0.30253 0.0
H546 H 0.8844 0.1452 0.67074 0.0
H547 H 0.94961 0.19601 0.73461 0.0
H548 H 0.02621 0.2518 0.71676 0.0
H549 H 0.97655 0.13757 0.64906 0.0
H550 H 0.97263 0.15559 0.62143 0.0
H551 H 0.92059 0.12893 0.63866 0.0
H552 H 0.90999 0.20251 0.63296 0.0
H553 H 0.96215 0.22945 0.61559 0.0
H554 H 0.95871 0.26141 0.63918 0.0
H555 H 0.09859 0.29203 0.69249 0.0
H556 H 0.16023 0.30913 0.66423 0.0
H557 H 0.04874 0.23053 0.6162 0.0
C558 C 0.9143 0.16974 0.68083 0.0
C559 C 0.91099 0.16723 0.70398 0.0
C560 C 0.95138 0.19809 0.71681 0.0
C561 C 0.99498 0.22998 0.70681 0.0
C562 C 0.99781 0.23049 0.68391 0.0
C563 C 0.95843 0.20125 0.67105 0.0
C564 C 0.97254 0.20327 0.64713 0.0
C565 C 0.95985 0.1534 0.63859 0.0
C566 C 0.94948 0.22549 0.63287 0.0
C567 C 0.0261 0.23619 0.64873 0.0
C568 C 0.03994 0.25261 0.66995 0.0
C569 C 0.08809 0.28019 0.67571 0.0
C570 C 0.12295 0.28993 0.65954 0.0
C571 C 0.10941 0.27137 0.63799 0.0
C572 C 0.06031 0.24559 0.63249 0.0
H573 H 0.76484 0.87922 0.9923 0.0
H574 H 0.70457 0.9135 0.04802 0.0
H575 H 0.72617 0.99145 0.03108 0.0
H576 H 0.86295 0.98347 0.98874 0.0
H577 H 0.86885 0.98774 0.95921 0.0
H578 H 0.83673 0.93018 0.97206 0.0
H579 H 0.76158 0.90888 0.94886 0.0
H580 H 0.79386 0.96602 0.93531 0.0
H581 H 0.73777 0.94875 0.94864 0.0
H582 H 0.7709 0.07271 0.01166 0.0
H583 H 0.82791 0.14487 0.99062 0.0
H584 H 0.85868 0.05562 0.94821 0.0
C585 C 0.75326 0.90182 0.00012 0.0
C586 C 0.73137 0.88974 0.02098 0.0
C587 C 0.71945 0.92135 0.03156 0.0
C588 C 0.73218 0.96597 0.02215 0.0
C589 C 0.75652 0.9782 0.00208 0.0
C590 C 0.76584 0.94633 0.99095 0.0
C591 C 0.79784 0.96972 0.97129 0.0
C592 C 0.84431 0.96765 0.97295 0.0
C593 C 0.77116 0.947 0.94974 0.0
C594 C 0.80732 0.02029 0.97373 0.0
C595 C 0.78274 0.02469 0.9913 0.0
C596 C 0.78943 0.06931 0.99757 0.0
C597 C 0.82204 0.1102 0.98559 0.0
C598 C 0.84806 0.10624 0.96776 0.0
C599 C 0.83961 0.06034 0.96172 0.0
H600 H 0.83336 0.91062 0.29746 0.0
H601 H 0.68238 0.8196 0.31123 0.0
H602 H 0.69999 0.76034 0.32849 0.0
H603 H 0.86099 0.8173 0.28532 0.0
H604 H 0.91861 0.84954 0.29839 0.0
H605 H 0.89284 0.8817 0.28564 0.0
H606 H 0.90098 0.92648 0.32227 0.0
H607 H 0.92729 0.89499 0.33498 0.0
H608 H 0.87522 0.89253 0.34705 0.0
H609 H 0.7373 0.71316 0.34633 0.0
H610 H 0.78964 0.6886 0.36539 0.0
H611 H 0.91413 0.81304 0.33922 0.0
C612 C 0.80351 0.8781 0.3038 0.0
C613 C 0.75629 0.86984 0.30282 0.0
C614 C 0.71885 0.82681 0.31171 0.0
C615 C 0.72853 0.79284 0.32142 0.0
C616 C 0.77577 0.80244 0.322 0.0
C617 C 0.81247 0.84434 0.31344 0.0
C618 C 0.86063 0.84881 0.31727 0.0
C619 C 0.88466 0.84935 0.29535 0.0
C620 C 0.89288 0.8933 0.33123 0.0
C621 C 0.84581 0.8033 0.32983 0.0
C622 C 0.79675 0.77631 0.33218 0.0
C623 C 0.77563 0.73387 0.34431 0.0
C624 C 0.80551 0.71989 0.35491 0.0
C625 C 0.85575 0.74873 0.35348 0.0
C626 C 0.87577 0.79003 0.34027 0.0
H627 H 0.12999 0.86439 0.65047 0.0
H628 H 0.10427 0.76621 0.70385 0.0
H629 H 0.02517 0.70951 0.68807 0.0
H630 H 0.02583 0.85661 0.65188 0.0
H631 H 0.01716 0.86061 0.62281 0.0
H632 H 0.07642 0.88562 0.63363 0.0
H633 H 0.09467 0.83432 0.607 0.0
H634 H 0.03561 0.80981 0.59552 0.0
H635 H 0.05536 0.77052 0.60608 0.0
H636 H 0.94192 0.67375 0.67155 0.0
H637 H 0.86637 0.66136 0.65512 0.0
H638 H 0.9476 0.78425 0.61297 0.0
C639 C 0.10898 0.82942 0.65788 0.0
C640 C 0.1237 0.81869 0.67783 0.0
C641 C 0.09431 0.77404 0.68803 0.0
C642 C 0.04909 0.7419 0.67927 0.0
C643 C 0.03412 0.75494 0.66024 0.0
C644 C 0.06386 0.79735 0.64939 0.0
C645 C 0.03742 0.80718 0.63148 0.0
C646 C 0.03932 0.85531 0.6352 0.0
C647 C 0.05692 0.80532 0.60867 0.0
C648 C 0.98756 0.76544 0.63479 0.0
C649 C 0.98621 0.73499 0.65109 0.0
C650 C 0.94286 0.69671 0.65837 0.0
C651 C 0.90005 0.68993 0.64898 0.0
C652 C 0.90091 0.72178 0.63275 0.0
C653 C 0.9455 0.75907 0.62529 0.0
H654 H 0.03183 0.25379 -0.0011 0.0
H655 H 0.05409 0.23491 0.93002 0.0
H656 H 0.125 0.22923 0.93995 0.0
H657 H 0.15192 0.32662 0.01317 0.0
H658 H 0.14693 0.30077 0.04001 0.0
H659 H 0.09586 0.29975 0.02772 0.0
H660 H 0.04711 0.20767 0.03202 0.0
H661 H 0.09804 0.20842 0.04444 0.0
H662 H 0.07002 0.17166 0.02062 0.0
H663 H 0.198 0.23425 0.95687 0.0
H664 H 0.26501 0.24383 0.98016 0.0
H665 H 0.19267 0.25496 0.03805 0.0
C666 C 0.05129 0.24782 0.98596 0.0
C667 C 0.03767 0.24492 0.96372 0.0
C668 C 0.06395 0.23715 0.9472 0.0
C669 C 0.10424 0.23388 0.95266 0.0
C670 C 0.11728 0.23773 0.97472 0.0
C671 C 0.09125 0.24387 0.99115 0.0
C672 C 0.11365 0.24824 0.01351 0.0
C673 C 0.12794 0.29673 0.02422 0.0
C674 C 0.08021 0.2065 0.02853 0.0
C675 C 0.15701 0.24493 0.00699 0.0
C676 C 0.1585 0.23888 0.98455 0.0
C677 C 0.19687 0.23816 0.97451 0.0
C678 C 0.23478 0.24383 0.98781 0.0
C679 C 0.23361 0.24968 0.01083 0.0
C680 C 0.19402 0.24973 0.0205 0.0
H681 H 0.82173 0.08762 0.29097 0.0
H682 H 0.7563 0.99505 0.3473 0.0
H683 H 0.8244 0.05013 0.37053 0.0
H684 H 0.94789 0.12957 0.3059 0.0
H685 H 0.96762 0.18947 0.2965 0.0
H686 H 0.91724 0.13952 0.28356 0.0
H687 H 0.86536 0.17821 0.29155 0.0
H688 H 0.91543 0.22809 0.30456 0.0
H689 H 0.86023 0.19427 0.31943 0.0
H690 H 0.89605 0.11734 0.38817 0.0
H691 H 0.9645 0.19476 0.39956 0.0
H692 H 0.98131 0.24564 0.33224 0.0
C693 C 0.82238 0.07859 0.30808 0.0
C694 C 0.78415 0.03716 0.31739 0.0
C695 C 0.78542 0.02677 0.33992 0.0
C696 C 0.82402 0.05762 0.3532 0.0
C697 C 0.86082 0.09876 0.34367 0.0
C698 C 0.86032 0.10944 0.32166 0.0
C699 C 0.90201 0.15816 0.31604 0.0
C700 C 0.93568 0.15391 0.29952 0.0
C701 C 0.8847 0.19164 0.30739 0.0
C702 C 0.92511 0.17369 0.33846 0.0
C703 C 0.90138 0.1385 0.35406 0.0
C704 C 0.91519 0.14508 0.37609 0.0
C705 C 0.95399 0.18912 0.38241 0.0
C706 C 0.9779 0.22607 0.36679 0.0
C707 C 0.96358 0.21797 0.34452 0.0
H708 H 0.76359 0.80923 0.62834 0.0
H709 H 0.78128 0.74251 0.68675 0.0
H710 H 0.79678 0.81317 0.70878 0.0
H711 H 0.85205 0.93471 0.6426 0.0
H712 H 0.81507 0.95683 0.63159 0.0
H713 H 0.81253 0.90438 0.61986 0.0
H714 H 0.72116 0.85658 0.62645 0.0
H715 H 0.72342 0.90872 0.63819 0.0
H716 H 0.69826 0.85401 0.65379 0.0
H717 H 0.80349 0.88744 0.72487 0.0
H718 H 0.79602 0.95756 0.73444 0.0
H719 H 0.77069 0.97434 0.66573 0.0
C720 C 0.77184 0.81002 0.64567 0.0
C721 C 0.77169 0.77077 0.65588 0.0
C722 C 0.78143 0.77242 0.67866 0.0
C723 C 0.79051 0.81246 0.69125 0.0
C724 C 0.78955 0.85031 0.68077 0.0
C725 C 0.78032 0.84938 0.6585 0.0
C726 C 0.77645 0.89234 0.65167 0.0
C727 C 0.81642 0.92394 0.63547 0.0
C728 C 0.72688 0.87697 0.64197 0.0
C729 C 0.7835 0.91684 0.6737 0.0
C730 C 0.79198 0.89255 0.69018 0.0
C731 C 0.79736 0.90704 0.71208 0.0
C732 C 0.79301 0.94688 0.71735 0.0
C733 C 0.78274 0.97128 0.70081 0.0
C734 C 0.77884 0.95653 0.67868 0.0
H735 H 0.84694 0.772 0.0451 0.0
H736 H 0.77583 0.79533 0.99012 0.0
H737 H 0.84524 0.81474 0.96628 0.0
H738 H 0.97318 0.86096 0.02957 0.0
H739 H 0.99418 0.82125 0.038 0.0
H740 H 0.94406 0.81952 0.05184 0.0
H741 H 0.89278 0.72894 0.04346 0.0
H742 H 0.94258 0.73041 0.02965 0.0
H743 H 0.88663 0.70856 0.01538 0.0
H744 H 0.91756 0.82296 0.94771 0.0
H745 H 0.98308 0.81108 0.93465 0.0
H746 H 0.00411 0.7762 0.00114 0.0
C747 C 0.84685 0.78264 0.0282 0.0
C748 C 0.80679 0.78289 0.01934 0.0
C749 C 0.80662 0.79523 0.99705 0.0
C750 C 0.84594 0.80667 0.98351 0.0
C751 C 0.88466 0.80498 0.99255 0.0
C752 C 0.88527 0.7929 0.01435 0.0
C753 C 0.92763 0.78654 0.01916 0.0
C754 C 0.96178 0.82433 0.03562 0.0
C755 C 0.91141 0.7356 0.02738 0.0
C756 C 0.94969 0.79508 0.99648 0.0
C757 C 0.92525 0.80715 0.98153 0.0
C758 C 0.93734 0.81411 0.9593 0.0
C759 C 0.97456 0.80726 0.95204 0.0
C760 C 0.99836 0.79258 0.96692 0.0
C761 C 0.98653 0.7876 0.98947 0.0
H762 H 0.02478 0.76795 0.33423 0.0
H763 H 0.04737 0.82202 0.40117 0.0
H764 H 0.11655 0.89777 0.38876 0.0
H765 H 0.14545 0.81687 0.31973 0.0
H766 H 0.13861 0.83186 0.29191 0.0
H767 H 0.08907 0.783 0.30574 0.0
H768 H 0.03716 0.82192 0.29848 0.0
H769 H 0.08658 0.87095 0.28457 0.0
H770 H 0.05811 0.8824 0.30739 0.0
H771 H 0.18686 0.96376 0.37001 0.0
H772 H 0.25228 0.01857 0.34549 0.0
H773 H 0.18205 0.92397 0.29024 0.0
C774 C 0.04409 0.79591 0.34622 0.0
C775 C 0.03103 0.78924 0.36865 0.0
C776 C 0.0569 0.82656 0.38389 0.0
C777 C 0.09614 0.86966 0.37701 0.0
C778 C 0.10846 0.87496 0.35481 0.0
C779 C 0.08297 0.83939 0.33958 0.0
C780 C 0.10446 0.85389 0.31679 0.0
C781 C 0.12034 0.81935 0.30804 0.0
C782 C 0.06949 0.85751 0.30087 0.0
C783 C 0.14683 0.90261 0.32174 0.0
C784 C 0.14835 0.91402 0.34378 0.0
C785 C 0.18574 0.95564 0.35266 0.0
C786 C 0.22278 0.98636 0.33866 0.0
C787 C 0.22183 0.97541 0.31604 0.0
C788 C 0.1831 0.93338 0.30743 0.0
H789 H 0.23038 0.04387 0.7021 0.0
H790 H 0.222 0.96291 0.64376 0.0
H791 H 0.20105 0.01383 0.62147 0.0
H792 H 0.13689 0.07515 0.68635 0.0
H793 H 0.17165 0.13442 0.69762 0.0
H794 H 0.17517 0.08536 0.70972 0.0
H795 H 0.26702 0.13169 0.70451 0.0
H796 H 0.26376 0.18069 0.69247 0.0
H797 H 0.29147 0.15288 0.67747 0.0
H798 H 0.19127 0.07913 0.60497 0.0
H799 H 0.2012 0.15762 0.59493 0.0
H800 H 0.22092 0.19863 0.66378 0.0
C801 C 0.2226 0.03604 0.68476 0.0
C802 C 0.2272 0.99945 0.67457 0.0
C803 C 0.21843 0.99091 0.65176 0.0
C804 C 0.20612 0.01932 0.63906 0.0
C805 C 0.20312 0.05616 0.64947 0.0
C806 C 0.21135 0.06473 0.67181 0.0
C807 C 0.2132 0.11072 0.67842 0.0
C808 C 0.17175 0.1008 0.69395 0.0
C809 C 0.26174 0.14606 0.68881 0.0
C810 C 0.2069 0.1278 0.65619 0.0
C811 C 0.19962 0.09515 0.63979 0.0
C812 C 0.19622 0.10465 0.61769 0.0
C813 C 0.2019 0.14928 0.61214 0.0
C814 C 0.2119 0.184 0.62861 0.0
C815 C 0.21301 0.17252 0.65091 0.0
loop_
_geom_bond_atom_site_label_1
_geom_bond_atom_site_label_2
_geom_bond_distance
_geom_bond_site_symmetry_2
_ccdc_geom_bond_type
Co0 O1 2.216 . S
Co0 O2 2.091 . S
Co0 O4 2.004 . S
Co0 O10 2.021 . S
Co0 O12 2.137 . S
Co0 O13 2.244 . S
O1 Co0 2.216 . S
O1 C8 1.247 . S
O2 Co0 2.091 . S
O2 C8 1.261 . S
C3 O12 1.247 . S
C3 O13 1.272 . S
O4 Co0 2.004 . S
O4 C9 1.259 . S
Co5 O6 2.061 . S
Co5 O11 2.052 . S
Co5 O13 2.135 . S
O6 Co5 2.061 . S
O6 C9 1.235 . S
C7 O10 1.238 . S
C7 O11 1.241 . S
C8 O1 1.247 . S
C8 O2 1.261 . S
C9 O4 1.259 . S
C9 O6 1.235 . S
O10 Co0 2.021 . S
O10 C7 1.238 . S
O11 Co5 2.052 . S
O11 C7 1.241 . S
O12 Co0 2.137 . S
O12 C3 1.247 . S
O13 Co0 2.244 . S
O13 C3 1.272 . S
O13 Co5 2.135 . S
Co14 O15 2.216 . S
Co14 O16 2.091 . S
Co14 O18 2.004 . S
Co14 O24 2.021 . S
Co14 O26 2.137 . S
Co14 O27 2.244 . S
O15 Co14 2.216 . S
O15 C22 1.247 . S
O16 Co14 2.091 . S
O16 C22 1.261 . S
C17 O26 1.247 . S
C17 O27 1.272 . S
O18 Co14 2.004 . S
O18 C23 1.259 . S
Co19 O20 2.061 . S
Co19 O25 2.052 . S
Co19 O27 2.135 . S
O20 Co19 2.061 . S
O20 C23 1.235 . S
C21 O24 1.238 . S
C21 O25 1.241 . S
C22 O15 1.247 . S
C22 O16 1.261 . S
C23 O18 1.259 . S
C23 O20 1.235 . S
O24 Co14 2.021 . S
O24 C21 1.238 . S
O25 Co19 2.052 . S
O25 C21 1.241 . S
O26 Co14 2.137 . S
O26 C17 1.247 . S
O27 Co14 2.244 . S
O27 C17 1.272 . S
O27 Co19 2.135 . S
Co28 O29 2.216 . S
Co28 O30 2.091 . S
Co28 O32 2.004 . S
Co28 O38 2.021 . S
Co28 O40 2.137 . S
Co28 O41 2.244 . S
O29 Co28 2.216 . S
O29 C36 1.247 . S
O30 Co28 2.091 . S
O30 C36 1.261 . S
C31 O40 1.247 . S
C31 O41 1.272 . S
O32 Co28 2.004 . S
O32 C37 1.259 . S
Co33 O34 2.061 . S
Co33 O39 2.052 . S
Co33 O41 2.135 . S
O34 Co33 2.061 . S
O34 C37 1.235 . S
C35 O38 1.238 . S
C35 O39 1.241 . S
C36 O29 1.247 . S
C36 O30 1.261 . S
C37 O32 1.259 . S
C37 O34 1.235 . S
O38 Co28 2.021 . S
O38 C35 1.238 . S
O39 Co33 2.052 . S
O39 C35 1.241 . S
O40 Co28 2.137 . S
O40 C31 1.247 . S
O41 Co28 2.244 . S
O41 C31 1.272 . S
O41 Co33 2.135 . S
Co42 O43 2.216 . S
Co42 O44 2.091 . S
Co42 O46 2.004 . S
Co42 O52 2.021 . S
Co42 O54 2.137 . S
Co42 O55 2.244 . S
O43 Co42 2.216 . S
O43 C50 1.247 . S
O44 Co42 2.091 . S
O44 C50 1.261 . S
C45 O54 1.247 . S
C45 O55 1.272 . S
O46 Co42 2.004 . S
O46 C51 1.259 . S
Co47 O48 2.061 . S
Co47 O53 2.052 . S
Co47 O55 2.135 . S
O48 Co47 2.061 . S
O48 C51 1.235 . S
C49 O52 1.238 . S
C49 O53 1.241 . S
C50 O43 1.247 . S
C50 O44 1.261 . S
C51 O46 1.259 . S
C51 O48 1.235 . S
O52 Co42 2.021 . S
O52 C49 1.238 . S
O53 Co47 2.052 . S
O53 C49 1.241 . S
O54 Co42 2.137 . S
O54 C45 1.247 . S
O55 Co42 2.244 . S
O55 C45 1.272 . S
O55 Co47 2.135 . S
Co56 O57 2.216 . S
Co56 O58 2.091 . S
Co56 O60 2.004 . S
Co56 O66 2.021 . S
Co56 O68 2.137 . S
Co56 O69 2.244 . S
O57 Co56 2.216 . S
O57 C64 1.247 . S
O58 Co56 2.091 . S
O58 C64 1.261 . S
C59 O68 1.247 . S
C59 O69 1.272 . S
O60 Co56 2.004 . S
O60 C65 1.259 . S
Co61 O62 2.061 . S
Co61 O67 2.052 . S
Co61 O69 2.135 . S
O62 Co61 2.061 . S
O62 C65 1.235 . S
C63 O66 1.238 . S
C63 O67 1.241 . S
C64 O57 1.247 . S
C64 O58 1.261 . S
C65 O60 1.259 . S
C65 O62 1.235 . S
O66 Co56 2.021 . S
O66 C63 1.238 . S
O67 Co61 2.052 . S
O67 C63 1.241 . S
O68 Co56 2.137 . S
O68 C59 1.247 . S
O69 Co56 2.244 . S
O69 C59 1.272 . S
O69 Co61 2.135 . S
Co70 O71 2.216 . S
Co70 O72 2.091 . S
Co70 O74 2.004 . S
Co70 O80 2.021 . S
Co70 O82 2.137 . S
Co70 O83 2.244 . S
O71 Co70 2.216 . S
O71 C78 1.247 . S
O72 Co70 2.091 . S
O72 C78 1.261 . S
C73 O82 1.247 . S
C73 O83 1.272 . S
O74 Co70 2.004 . S
O74 C79 1.259 . S
Co75 O76 2.061 . S
Co75 O81 2.052 . S
Co75 O83 2.135 . S
O76 Co75 2.061 . S
O76 C79 1.235 . S
C77 O80 1.238 . S
C77 O81 1.241 . S
C78 O71 1.247 . S
C78 O72 1.261 . S
C79 O74 1.259 . S
C79 O76 1.235 . S
O80 Co70 2.021 . S
O80 C77 1.238 . S
O81 Co75 2.052 . S
O81 C77 1.241 . S
O82 Co70 2.137 . S
O82 C73 1.247 . S
O83 Co70 2.244 . S
O83 C73 1.272 . S
O83 Co75 2.135 . S
Co84 O85 2.216 . S
Co84 O86 2.091 . S
Co84 O88 2.004 . S
Co84 O94 2.021 . S
Co84 O96 2.137 . S
Co84 O97 2.244 . S
O85 Co84 2.216 . S
O85 C92 1.247 . S
O86 Co84 2.091 . S
O86 C92 1.261 . S
C87 O96 1.247 . S
C87 O97 1.272 . S
O88 Co84 2.004 . S
O88 C93 1.259 . S
Co89 O90 2.061 . S
Co89 O95 2.052 . S
Co89 O97 2.135 . S
O90 Co89 2.061 . S
O90 C93 1.235 . S
C91 O94 1.238 . S
C91 O95 1.241 . S
C92 O85 1.247 . S
C92 O86 1.261 . S
C93 O88 1.259 . S
C93 O90 1.235 . S
O94 Co84 2.021 . S
O94 C91 1.238 . S
O95 Co89 2.052 . S
O95 C91 1.241 . S
O96 Co84 2.137 . S
O96 C87 1.247 . S
O97 Co84 2.244 . S
O97 C87 1.272 . S
O97 Co89 2.135 . S
Co98 O99 2.216 . S
Co98 O100 2.091 . S
Co98 O102 2.004 . S
Co98 O108 2.021 . S
Co98 O110 2.137 . S
Co98 O111 2.244 . S
O99 Co98 2.216 . S
O99 C106 1.247 . S
O100 Co98 2.091 . S
O100 C106 1.261 . S
C101 O110 1.247 . S
C101 O111 1.272 . S
O102 Co98 2.004 . S
O102 C107 1.259 . S
Co103 O104 2.061 . S
Co103 O109 2.052 . S
Co103 O111 2.135 . S
O104 Co103 2.061 . S
O104 C107 1.235 . S
C105 O108 1.238 . S
C105 O109 1.241 . S
C106 O99 1.247 . S
C106 O100 1.261 . S
C107 O102 1.259 . S
C107 O104 1.235 . S
O108 Co98 2.021 . S
O108 C105 1.238 . S
O109 Co103 2.052 . S
O109 C105 1.241 . S
O110 Co98 2.137 . S
O110 C101 1.247 . S
O111 Co98 2.244 . S
O111 C101 1.272 . S
O111 Co103 2.135 . S
Co112 O113 2.216 . S
Co112 O114 2.091 . S
Co112 O116 2.004 . S
Co112 O122 2.021 . S
Co112 O124 2.137 . S
Co112 O125 2.244 . S
O113 Co112 2.216 . S
O113 C120 1.247 . S
O114 Co112 2.091 . S
O114 C120 1.261 . S
C115 O124 1.247 . S
C115 O125 1.272 . S
O116 Co112 2.004 . S
O116 C121 1.259 . S
Co117 O118 2.061 . S
Co117 O123 2.052 . S
Co117 O125 2.135 . S
O118 Co117 2.061 . S
O118 C121 1.235 . S
C119 O122 1.238 . S
C119 O123 1.241 . S
C120 O113 1.247 . S
C120 O114 1.261 . S
C121 O116 1.259 . S
C121 O118 1.235 . S
O122 Co112 2.021 . S
O122 C119 1.238 . S
O123 Co117 2.052 . S
O123 C119 1.241 . S
O124 Co112 2.137 . S
O124 C115 1.247 . S
O125 Co112 2.244 . S
O125 C115 1.272 . S
O125 Co117 2.135 . S
Co126 O127 2.216 . S
Co126 O128 2.091 . S
Co126 O130 2.004 . S
Co126 O136 2.021 . S
Co126 O138 2.137 . S
Co126 O139 2.244 . S
O127 Co126 2.216 . S
O127 C134 1.247 . S
O128 Co126 2.091 . S
O128 C134 1.261 . S
C129 O138 1.247 . S
C129 O139 1.272 . S
O130 Co126 2.004 . S
O130 C135 1.259 . S
Co131 O132 2.061 . S
Co131 O137 2.052 . S
Co131 O139 2.135 . S
O132 Co131 2.061 . S
O132 C135 1.235 . S
C133 O136 1.238 . S
C133 O137 1.241 . S
C134 O127 1.247 . S
C134 O128 1.261 . S
C135 O130 1.259 . S
C135 O132 1.235 . S
O136 Co126 2.021 . S
O136 C133 1.238 . S
O137 Co131 2.052 . S
O137 C133 1.241 . S
O138 Co126 2.137 . S
O138 C129 1.247 . S
O139 Co126 2.244 . S
O139 C129 1.272 . S
O139 Co131 2.135 . S
Co140 O141 2.216 . S
Co140 O142 2.091 . S
Co140 O144 2.004 . S
Co140 O150 2.021 . S
Co140 O152 2.137 . S
Co140 O153 2.244 . S
O141 Co140 2.216 . S
O141 C148 1.247 . S
O142 Co140 2.091 . S
O142 C148 1.261 . S
C143 O152 1.247 . S
C143 O153 1.272 . S
O144 Co140 2.004 . S
O144 C149 1.259 . S
Co145 O146 2.061 . S
Co145 O151 2.052 . S
Co145 O153 2.135 . S
O146 Co145 2.061 . S
O146 C149 1.235 . S
C147 O150 1.238 . S
C147 O151 1.241 . S
C148 O141 1.247 . S
C148 O142 1.261 . S
C149 O144 1.259 . S
C149 O146 1.235 . S
O150 Co140 2.021 . S
O150 C147 1.238 . S
O151 Co145 2.052 . S
O151 C147 1.241 . S
O152 Co140 2.137 . S
O152 C143 1.247 . S
O153 Co140 2.244 . S
O153 C143 1.272 . S
O153 Co145 2.135 . S
Co154 O155 2.216 . S
Co154 O156 2.091 . S
Co154 O158 2.004 . S
Co154 O164 2.021 . S
Co154 O166 2.137 . S
Co154 O167 2.244 . S
O155 Co154 2.216 . S
O155 C162 1.247 . S
O156 Co154 2.091 . S
O156 C162 1.261 . S
C157 O166 1.247 . S
C157 O167 1.272 . S
O158 Co154 2.004 . S
O158 C163 1.259 . S
Co159 O160 2.061 . S
Co159 O165 2.052 . S
Co159 O167 2.135 . S
O160 Co159 2.061 . S
O160 C163 1.235 . S
C161 O164 1.238 . S
C161 O165 1.241 . S
C162 O155 1.247 . S
C162 O156 1.261 . S
C163 O158 1.259 . S
C163 O160 1.235 . S
O164 Co154 2.021 . S
O164 C161 1.238 . S
O165 Co159 2.052 . S
O165 C161 1.241 . S
O166 Co154 2.137 . S
O166 C157 1.247 . S
O167 Co154 2.244 . S
O167 C157 1.272 . S
O167 Co159 2.135 . S
H168 C180 0.930 . S
H169 C182 0.930 . S
H170 C183 0.930 . S
H171 C187 0.959 . S
H172 C187 0.959 . S
H173 C187 0.961 . S
H174 C188 0.959 1_556 S
H175 C188 0.959 1_556 S
H176 C188 0.960 . S
H177 C191 0.929 . S
H178 C192 0.931 . S
H179 C194 0.930 . S
C180 H168 0.930 . S
C180 C181 1.399 . S
C180 C185 1.399 . S
C181 C180 1.399 . S
C181 C182 1.376 . S
C182 H169 0.930 . S
C182 C181 1.376 . S
C182 C183 1.388 . S
C183 H170 0.930 . S
C183 C182 1.388 . S
C183 C184 1.390 . S
C184 C183 1.390 . S
C184 C185 1.394 . S
C184 C190 1.465 . S
C185 C180 1.399 . S
C185 C184 1.394 . S
C185 C186 1.516 . S
C186 C185 1.516 . S
C186 C187 1.502 . S
C186 C188 1.564 . S
C186 C189 1.526 . S
C187 H171 0.959 . S
C187 H172 0.959 . S
C187 H173 0.961 . S
C187 C186 1.502 . S
C188 H174 0.959 1_554 S
C188 H175 0.959 1_554 S
C188 H176 0.960 . S
C188 C186 1.564 . S
C189 C186 1.526 . S
C189 C190 1.396 . S
C189 C194 1.390 . S
C190 C184 1.465 . S
C190 C189 1.396 . S
C190 C191 1.399 . S
C191 H177 0.929 . S
C191 C190 1.399 . S
C191 C192 1.385 . S
C192 H178 0.931 . S
C192 C191 1.385 . S
C192 C193 1.389 . S
C193 C192 1.389 . S
C193 C194 1.387 . S
C194 H179 0.930 . S
C194 C189 1.390 . S
C194 C193 1.387 . S
H195 C207 0.930 . S
H196 C209 0.930 . S
H197 C210 0.930 . S
H198 C214 0.959 . S
H199 C214 0.959 . S
H200 C214 0.961 . S
H201 C215 0.960 . S
H202 C215 0.939 1_655 S
H203 C215 0.959 . S
H204 C218 0.929 1_455 S
H205 C219 0.931 . S
H206 C221 0.930 . S
C207 H195 0.930 . S
C207 C208 1.399 . S
C207 C212 1.399 . S
C208 C207 1.399 . S
C208 C209 1.376 . S
C209 H196 0.930 . S
C209 C208 1.376 . S
C209 C210 1.388 . S
C210 H197 0.930 . S
C210 C209 1.388 . S
C210 C211 1.390 . S
C211 C210 1.390 . S
C211 C212 1.394 . S
C211 C217 1.448 1_455 S
C212 C207 1.399 . S
C212 C211 1.394 . S
C212 C213 1.516 1_455 S
C213 C212 1.516 1_655 S
C213 C214 1.502 . S
C213 C215 1.561 1_655 S
C213 C216 1.526 . S
C214 H198 0.959 . S
C214 H199 0.959 . S
C214 H200 0.961 . S
C214 C213 1.502 . S
C215 H201 0.960 . S
C215 H202 0.939 1_455 S
C215 H203 0.959 . S
C215 C213 1.561 1_455 S
C216 C213 1.526 . S
C216 C217 1.405 . S
C216 C221 1.390 . S
C217 C211 1.448 1_655 S
C217 C216 1.405 . S
C217 C218 1.407 . S
C218 H204 0.929 1_655 S
C218 C217 1.407 . S
C218 C219 1.385 . S
C219 H205 0.931 . S
C219 C218 1.385 . S
C219 C220 1.389 . S
C220 C219 1.389 . S
C220 C221 1.387 . S
C221 H206 0.930 . S
C221 C216 1.390 . S
C221 C220 1.387 . S
H222 C234 0.930 . S
H223 C236 0.930 . S
H224 C237 0.930 . S
H225 C241 0.959 . S
H226 C241 0.959 . S
H227 C241 0.961 . S
H228 C242 0.960 . S
H229 C242 0.961 . S
H230 C242 0.959 1_545 S
H231 C245 0.929 . S
H232 C246 0.931 . S
H233 C248 0.930 . S
C234 H222 0.930 . S
C234 C235 1.399 . S
C234 C239 1.399 . S
C235 C234 1.399 . S
C235 C236 1.376 . S
C236 H223 0.930 . S
C236 C235 1.376 . S
C236 C237 1.388 1_565 S
C237 H224 0.930 . S
C237 C236 1.388 1_545 S
C237 C238 1.390 . S
C238 C237 1.390 . S
C238 C239 1.394 1_545 S
C238 C244 1.465 . S
C239 C234 1.399 . S
C239 C238 1.394 1_565 S
C239 C240 1.516 . S
C240 C239 1.516 . S
C240 C241 1.502 . S
C240 C242 1.561 . S
C240 C243 1.526 1_565 S
C241 H225 0.959 . S
C241 H226 0.959 . S
C241 H227 0.961 . S
C241 C240 1.502 . S
C242 H228 0.960 . S
C242 H229 0.961 . S
C242 H230 0.959 1_565 S
C242 C240 1.561 . S
C243 C240 1.526 1_545 S
C243 C244 1.396 . S
C243 C248 1.390 . S
C244 C238 1.465 . S
C244 C243 1.396 . S
C244 C245 1.399 . S
C245 H231 0.929 . S
C245 C244 1.399 . S
C245 C246 1.385 . S
C246 H232 0.931 . S
C246 C245 1.385 . S
C246 C247 1.389 . S
C247 C246 1.389 . S
C247 C248 1.387 . S
C248 H233 0.930 . S
C248 C243 1.390 . S
C248 C247 1.387 . S
H249 C261 0.930 . S
H250 C263 0.930 . S
H251 C264 0.930 . S
H252 C268 0.959 . S
H253 C268 0.959 . S
H254 C268 0.961 . S
H255 C269 0.960 . S
H256 C269 0.961 . S
H257 C269 0.959 . S
H258 C272 0.929 . S
H259 C273 0.931 . S
H260 C275 0.930 . S
C261 H249 0.930 . S
C261 C262 1.399 . S
C261 C266 1.399 . S
C262 C261 1.399 . S
C262 C263 1.376 . S
C263 H250 0.930 . S
C263 C262 1.376 . S
C263 C264 1.388 . S
C264 H251 0.930 . S
C264 C263 1.388 . S
C264 C265 1.390 . S
C265 C264 1.390 . S
C265 C266 1.394 . S
C265 C271 1.465 . S
C266 C261 1.399 . S
C266 C265 1.394 . S
C266 C267 1.516 . S
C267 C266 1.516 . S
C267 C268 1.502 . S
C267 C269 1.561 . S
C267 C270 1.526 . S
C268 H252 0.959 . S
C268 H253 0.959 . S
C268 H254 0.961 . S
C268 C267 1.502 . S
C269 H255 0.960 . S
C269 H256 0.961 . S
C269 H257 0.959 . S
C269 C267 1.561 . S
C270 C267 1.526 . S
C270 C271 1.396 . S
C270 C275 1.390 . S
C271 C265 1.465 . S
C271 C270 1.396 . S
C271 C272 1.399 . S
C272 H258 0.929 . S
C272 C271 1.399 . S
C272 C273 1.385 . S
C273 H259 0.931 . S
C273 C272 1.385 . S
C273 C274 1.389 . S
C274 C273 1.389 . S
C274 C275 1.387 . S
C275 H260 0.930 . S
C275 C270 1.390 . S
C275 C274 1.387 . S
H276 C288 0.930 . S
H277 C290 0.930 . S
H278 C291 0.930 . S
H279 C295 0.959 . S
H280 C295 0.959 1_554 S
H281 C295 0.961 1_554 S
H282 C296 0.960 1_554 S
H283 C296 0.961 1_554 S
H284 C296 0.959 . S
H285 C299 0.929 . S
H286 C300 0.931 . S
H287 C302 0.930 . S
C288 H276 0.930 . S
C288 C289 1.399 . S
C288 C293 1.399 . S
C289 C288 1.399 . S
C289 C290 1.376 . S
C290 H277 0.930 . S
C290 C289 1.376 . S
C290 C291 1.388 . S
C291 H278 0.930 . S
C291 C290 1.388 . S
C291 C292 1.390 . S
C292 C291 1.390 . S
C292 C293 1.394 . S
C292 C298 1.465 1_655 S
C293 C288 1.399 . S
C293 C292 1.394 . S
C293 C294 1.516 1_655 S
C294 C293 1.516 1_455 S
C294 C295 1.502 1_455 S
C294 C296 1.561 . S
C294 C297 1.526 . S
C295 H279 0.959 . S
C295 H280 0.959 1_556 S
C295 H281 0.961 1_556 S
C295 C294 1.502 1_655 S
C296 H282 0.960 1_556 S
C296 H283 0.961 1_556 S
C296 H284 0.959 . S
C296 C294 1.561 . S
C297 C294 1.526 . S
C297 C298 1.396 . S
C297 C302 1.390 . S
C298 C292 1.465 1_455 S
C298 C297 1.396 . S
C298 C299 1.399 . S
C299 H285 0.929 . S
C299 C298 1.399 . S
C299 C300 1.385 . S
C300 H286 0.931 . S
C300 C299 1.385 . S
C300 C301 1.389 . S
C301 C300 1.389 . S
C301 C302 1.387 . S
C302 H287 0.930 . S
C302 C297 1.390 . S
C302 C301 1.387 . S
H303 C315 0.930 . S
H304 C317 0.930 . S
H305 C318 0.930 . S
H306 C322 0.959 . S
H307 C322 0.959 . S
H308 C322 0.961 . S
H309 C323 0.960 . S
H310 C323 0.961 . S
H311 C323 0.959 . S
H312 C326 0.929 . S
H313 C327 0.931 . S
H314 C329 0.930 . S
C315 H303 0.930 . S
C315 C316 1.399 . S
C315 C320 1.399 . S
C316 C315 1.399 . S
C316 C317 1.376 . S
C317 H304 0.930 . S
C317 C316 1.376 . S
C317 C318 1.388 . S
C318 H305 0.930 . S
C318 C317 1.388 . S
C318 C319 1.390 . S
C319 C318 1.390 . S
C319 C320 1.394 . S
C319 C325 1.465 1_545 S
C320 C315 1.399 . S
C320 C319 1.394 . S
C320 C321 1.516 . S
C321 C320 1.516 . S
C321 C322 1.502 1_545 S
C321 C323 1.561 . S
C321 C324 1.526 1_545 S
C322 H306 0.959 . S
C322 H307 0.959 . S
C322 H308 0.961 . S
C322 C321 1.502 1_565 S
C323 H309 0.960 . S
C323 H310 0.961 . S
C323 H311 0.959 . S
C323 C321 1.561 . S
C324 C321 1.526 1_565 S
C324 C325 1.396 . S
C324 C329 1.390 . S
C325 C319 1.465 1_565 S
C325 C324 1.396 . S
C325 C326 1.399 . S
C326 H312 0.929 . S
C326 C325 1.399 . S
C326 C327 1.385 . S
C327 H313 0.931 . S
C327 C326 1.385 . S
C327 C328 1.389 . S
C328 C327 1.389 . S
C328 C329 1.387 . S
C329 H314 0.930 . S
C329 C324 1.390 . S
C329 C328 1.387 . S
H330 C342 0.930 . S
H331 C344 0.930 . S
H332 C345 0.930 . S
H333 C349 0.959 . S
H334 C349 0.959 . S
H335 C349 0.961 . S
H336 C350 0.960 . S
H337 C350 0.961 . S
H338 C350 0.959 . S
H339 C353 0.929 . S
H340 C354 0.931 . S
H341 C356 0.930 . S
C342 H330 0.930 . S
C342 C343 1.399 . S
C342 C347 1.399 . S
C343 C342 1.399 . S
C343 C344 1.376 . S
C344 H331 0.930 . S
C344 C343 1.376 . S
C344 C345 1.388 . S
C345 H332 0.930 . S
C345 C344 1.388 . S
C345 C346 1.390 . S
C346 C345 1.390 . S
C346 C347 1.394 . S
C346 C352 1.465 . S
C347 C342 1.399 . S
C347 C346 1.394 . S
C347 C348 1.516 . S
C348 C347 1.516 . S
C348 C349 1.502 . S
C348 C350 1.561 . S
C348 C351 1.526 . S
C349 H333 0.959 . S
C349 H334 0.959 . S
C349 H335 0.961 . S
C349 C348 1.502 . S
C350 H336 0.960 . S
C350 H337 0.961 . S
C350 H338 0.959 . S
C350 C348 1.561 . S
C351 C348 1.526 . S
C351 C352 1.396 . S
C351 C356 1.390 . S
C352 C346 1.465 . S
C352 C351 1.396 . S
C352 C353 1.399 . S
C353 H339 0.929 . S
C353 C352 1.399 . S
C353 C354 1.385 . S
C354 H340 0.931 . S
C354 C353 1.385 . S
C354 C355 1.389 . S
C355 C354 1.389 . S
C355 C356 1.387 . S
C356 H341 0.930 . S
C356 C351 1.390 . S
C356 C355 1.387 . S
H357 C369 0.930 . S
H358 C371 0.930 . S
H359 C372 0.930 . S
H360 C376 0.959 . S
H361 C376 0.959 . S
H362 C376 0.961 . S
H363 C377 0.960 . S
H364 C377 0.961 . S
H365 C377 0.959 . S
H366 C380 0.929 . S
H367 C381 0.931 . S
H368 C383 0.930 . S
C369 H357 0.930 . S
C369 C370 1.399 . S
C369 C374 1.399 . S
C370 C369 1.399 . S
C370 C371 1.376 . S
C371 H358 0.930 . S
C371 C370 1.376 . S
C371 C372 1.388 . S
C372 H359 0.930 . S
C372 C371 1.388 . S
C372 C373 1.390 . S
C373 C372 1.390 . S
C373 C374 1.394 . S
C373 C379 1.465 . S
C374 C369 1.399 . S
C374 C373 1.394 . S
C374 C375 1.516 . S
C375 C374 1.516 . S
C375 C376 1.502 . S
C375 C377 1.561 . S
C375 C378 1.526 . S
C376 H360 0.959 . S
C376 H361 0.959 . S
C376 H362 0.961 . S
C376 C375 1.502 . S
C377 H363 0.960 . S
C377 H364 0.961 . S
C377 H365 0.959 . S
C377 C375 1.561 . S
C378 C375 1.526 . S
C378 C379 1.396 . S
C378 C383 1.390 . S
C379 C373 1.465 . S
C379 C378 1.396 . S
C379 C380 1.399 . S
C380 H366 0.929 . S
C380 C379 1.399 . S
C380 C381 1.385 . S
C381 H367 0.931 . S
C381 C380 1.385 . S
C381 C382 1.389 . S
C382 C381 1.389 . S
C382 C383 1.387 . S
C383 H368 0.930 . S
C383 C378 1.390 . S
C383 C382 1.387 . S
H384 C396 0.930 . S
H385 C398 0.930 . S
H386 C399 0.930 . S
H387 C403 0.959 . S
H388 C403 0.959 . S
H389 C403 0.961 . S
H390 C404 0.960 . S
H391 C404 0.961 . S
H392 C404 0.959 . S
H393 C407 0.929 . S
H394 C408 0.931 . S
H395 C410 0.930 . S
C396 H384 0.930 . S
C396 C397 1.399 . S
C396 C401 1.399 . S
C397 C396 1.399 . S
C397 C398 1.376 . S
C398 H385 0.930 . S
C398 C397 1.376 . S
C398 C399 1.388 . S
C399 H386 0.930 . S
C399 C398 1.388 . S
C399 C400 1.390 . S
C400 C399 1.390 . S
C400 C401 1.394 . S
C400 C406 1.465 . S
C401 C396 1.399 . S
C401 C400 1.394 . S
C401 C402 1.516 . S
C402 C401 1.516 . S
C402 C403 1.502 . S
C402 C404 1.561 . S
C402 C405 1.526 . S
C403 H387 0.959 . S
C403 H388 0.959 . S
C403 H389 0.961 . S
C403 C402 1.502 . S
C404 H390 0.960 . S
C404 H391 0.961 . S
C404 H392 0.959 . S
C404 C402 1.561 . S
C405 C402 1.526 . S
C405 C406 1.396 . S
C405 C410 1.390 . S
C406 C400 1.465 . S
C406 C405 1.396 . S
C406 C407 1.399 . S
C407 H393 0.929 . S
C407 C406 1.399 . S
C407 C408 1.385 . S
C408 H394 0.931 . S
C408 C407 1.385 . S
C408 C409 1.389 . S
C409 C408 1.389 . S
C409 C410 1.387 . S
C410 H395 0.930 . S
C410 C405 1.390 . S
C410 C409 1.387 . S
H411 C423 0.930 . S
H412 C425 0.930 . S
H413 C426 0.930 . S
H414 C430 0.959 . S
H415 C430 0.959 . S
H416 C430 0.961 . S
H417 C431 0.960 . S
H418 C431 0.961 . S
H419 C431 0.959 . S
H420 C434 0.929 . S
H421 C435 0.931 . S
H422 C437 0.930 . S
C423 H411 0.930 . S
C423 C424 1.399 . S
C423 C428 1.399 . S
C424 C423 1.399 . S
C424 C425 1.376 . S
C425 H412 0.930 . S
C425 C424 1.376 . S
C425 C426 1.388 . S
C426 H413 0.930 . S
C426 C425 1.388 . S
C426 C427 1.390 . S
C427 C426 1.390 . S
C427 C428 1.394 . S
C427 C433 1.465 . S
C428 C423 1.399 . S
C428 C427 1.394 . S
C428 C429 1.516 . S
C429 C428 1.516 . S
C429 C430 1.502 . S
C429 C431 1.561 . S
C429 C432 1.526 . S
C430 H414 0.959 . S
C430 H415 0.959 . S
C430 H416 0.961 . S
C430 C429 1.502 . S
C431 H417 0.960 . S
C431 H418 0.961 . S
C431 H419 0.959 . S
C431 C429 1.561 . S
C432 C429 1.526 . S
C432 C433 1.396 . S
C432 C437 1.390 . S
C433 C427 1.465 . S
C433 C432 1.396 . S
C433 C434 1.399 . S
C434 H420 0.929 . S
C434 C433 1.399 . S
C434 C435 1.385 . S
C435 H421 0.931 . S
C435 C434 1.385 . S
C435 C436 1.389 . S
C436 C435 1.389 . S
C436 C437 1.387 . S
C437 H422 0.930 . S
C437 C432 1.390 . S
C437 C436 1.387 . S
H438 C450 0.930 . S
H439 C452 0.930 . S
H440 C453 0.930 . S
H441 C457 0.959 . S
H442 C457 0.959 . S
H443 C457 0.961 . S
H444 C458 0.960 . S
H445 C458 0.961 . S
H446 C458 0.959 . S
H447 C461 0.929 . S
H448 C462 0.931 . S
H449 C464 0.930 . S
C450 H438 0.930 . S
C450 C451 1.399 . S
C450 C455 1.399 . S
C451 C450 1.399 . S
C451 C452 1.376 . S
C452 H439 0.930 . S
C452 C451 1.376 . S
C452 C453 1.388 . S
C453 H440 0.930 . S
C453 C452 1.388 . S
C453 C454 1.390 . S
C454 C453 1.390 . S
C454 C455 1.394 . S
C454 C460 1.465 . S
C455 C450 1.399 . S
C455 C454 1.394 . S
C455 C456 1.516 . S
C456 C455 1.516 . S
C456 C457 1.502 . S
C456 C458 1.561 . S
C456 C459 1.526 . S
C457 H441 0.959 . S
C457 H442 0.959 . S
C457 H443 0.961 . S
C457 C456 1.502 . S
C458 H444 0.960 . S
C458 H445 0.961 . S
C458 H446 0.959 . S
C458 C456 1.561 . S
C459 C456 1.526 . S
C459 C460 1.396 . S
C459 C464 1.390 . S
C460 C454 1.465 . S
C460 C459 1.396 . S
C460 C461 1.399 . S
C461 H447 0.929 . S
C461 C460 1.399 . S
C461 C462 1.385 . S
C462 H448 0.931 . S
C462 C461 1.385 . S
C462 C463 1.389 . S
C463 C462 1.389 . S
C463 C464 1.387 . S
C464 H449 0.930 . S
C464 C459 1.390 . S
C464 C463 1.387 . S
H465 C477 0.930 . S
H466 C479 0.930 . S
H467 C480 0.930 . S
H468 C484 0.959 . S
H469 C484 0.959 . S
H470 C484 0.961 . S
H471 C485 0.960 . S
H472 C485 0.961 . S
H473 C485 0.959 . S
H474 C488 0.929 . S
H475 C489 0.931 . S
H476 C491 0.930 . S
C477 H465 0.930 . S
C477 C478 1.399 . S
C477 C482 1.399 . S
C478 C477 1.399 . S
C478 C479 1.376 . S
C479 H466 0.930 . S
C479 C478 1.376 . S
C479 C480 1.388 . S
C480 H467 0.930 . S
C480 C479 1.388 . S
C480 C481 1.390 . S
C481 C480 1.390 . S
C481 C482 1.394 . S
C481 C487 1.465 . S
C482 C477 1.399 . S
C482 C481 1.394 . S
C482 C483 1.516 . S
C483 C482 1.516 . S
C483 C484 1.502 . S
C483 C485 1.561 . S
C483 C486 1.526 . S
C484 H468 0.959 . S
C484 H469 0.959 . S
C484 H470 0.961 . S
C484 C483 1.502 . S
C485 H471 0.960 . S
C485 H472 0.961 . S
C485 H473 0.959 . S
C485 C483 1.561 . S
C486 C483 1.526 . S
C486 C487 1.396 . S
C486 C491 1.390 . S
C487 C481 1.465 . S
C487 C486 1.396 . S
C487 C488 1.399 . S
C488 H474 0.929 . S
C488 C487 1.399 . S
C488 C489 1.385 . S
C489 H475 0.931 . S
C489 C488 1.385 . S
C489 C490 1.389 . S
C490 C489 1.389 . S
C490 C491 1.387 . S
C491 H476 0.930 . S
C491 C486 1.390 . S
C491 C490 1.387 . S
H492 C504 0.916 1_554 S
H493 C506 0.930 . S
H494 C507 0.930 . S
H495 C511 0.959 . S
H496 C511 0.959 . S
H497 C511 0.961 . S
H498 C512 0.960 . S
H499 C512 0.961 . S
H500 C512 0.959 . S
H501 C515 0.929 . S
H502 C516 0.931 . S
H503 C518 0.930 . S
C504 H492 0.916 1_556 S
C504 C505 1.416 . S
C504 C509 1.396 1_556 S
C505 C504 1.416 . S
C505 C506 1.376 . S
C506 H493 0.930 . S
C506 C505 1.376 . S
C506 C507 1.388 . S
C507 H494 0.930 . S
C507 C506 1.388 . S
C507 C508 1.390 . S
C508 C507 1.390 . S
C508 C509 1.394 1_556 S
C508 C514 1.465 1_565 S
C509 C504 1.396 1_554 S
C509 C508 1.394 1_554 S
C509 C510 1.516 . S
C510 C509 1.516 . S
C510 C511 1.502 . S
C510 C512 1.561 . S
C510 C513 1.526 1_565 S
C511 H495 0.959 . S
C511 H496 0.959 . S
C511 H497 0.961 . S
C511 C510 1.502 . S
C512 H498 0.960 . S
C512 H499 0.961 . S
C512 H500 0.959 . S
C512 C510 1.561 . S
C513 C510 1.526 1_545 S
C513 C514 1.396 1_554 S
C513 C518 1.390 . S
C514 C508 1.465 1_545 S
C514 C513 1.396 1_556 S
C514 C515 1.399 . S
C515 H501 0.929 . S
C515 C514 1.399 . S
C515 C516 1.385 . S
C516 H502 0.931 . S
C516 C515 1.385 . S
C516 C517 1.389 1_556 S
C517 C516 1.389 1_554 S
C517 C518 1.387 . S
C518 H503 0.930 . S
C518 C513 1.390 . S
C518 C517 1.387 . S
H519 C531 0.930 . S
H520 C533 0.930 . S
H521 C534 0.930 . S
H522 C538 0.959 . S
H523 C538 0.959 . S
H524 C538 0.961 . S
H525 C539 0.960 . S
H526 C539 0.961 . S
H527 C539 0.959 . S
H528 C542 0.929 . S
H529 C543 0.931 . S
H530 C545 0.930 . S
C531 H519 0.930 . S
C531 C532 1.399 . S
C531 C536 1.399 . S
C532 C531 1.399 . S
C532 C533 1.376 . S
C533 H520 0.930 . S
C533 C532 1.376 . S
C533 C534 1.388 . S
C534 H521 0.930 . S
C534 C533 1.388 . S
C534 C535 1.390 . S
C535 C534 1.390 . S
C535 C536 1.394 . S
C535 C541 1.465 . S
C536 C531 1.399 . S
C536 C535 1.394 . S
C536 C537 1.516 . S
C537 C536 1.516 . S
C537 C538 1.502 . S
C537 C539 1.561 . S
C537 C540 1.526 . S
C538 H522 0.959 . S
C538 H523 0.959 . S
C538 H524 0.961 . S
C538 C537 1.502 . S
C539 H525 0.960 . S
C539 H526 0.961 . S
C539 H527 0.959 . S
C539 C537 1.561 . S
C540 C537 1.526 . S
C540 C541 1.396 . S
C540 C545 1.390 . S
C541 C535 1.465 . S
C541 C540 1.396 . S
C541 C542 1.399 . S
C542 H528 0.929 . S
C542 C541 1.399 . S
C542 C543 1.385 . S
C543 H529 0.931 . S
C543 C542 1.385 . S
C543 C544 1.389 . S
C544 C543 1.389 . S
C544 C545 1.387 . S
C545 H530 0.930 . S
C545 C540 1.390 . S
C545 C544 1.387 . S
H546 C558 0.930 . S
H547 C560 0.930 . S
H548 C561 0.930 . S
H549 C565 0.959 . S
H550 C565 0.959 . S
H551 C565 0.961 . S
H552 C566 0.960 . S
H553 C566 0.961 . S
H554 C566 0.959 . S
H555 C569 0.929 . S
H556 C570 0.931 . S
H557 C572 0.930 . S
C558 H546 0.930 . S
C558 C559 1.399 . S
C558 C563 1.399 . S
C559 C558 1.399 . S
C559 C560 1.376 . S
C560 H547 0.930 . S
C560 C559 1.376 . S
C560 C561 1.388 . S
C561 H548 0.930 . S
C561 C560 1.388 . S
C561 C562 1.390 . S
C562 C561 1.390 . S
C562 C563 1.394 . S
C562 C568 1.465 1_655 S
C563 C558 1.399 . S
C563 C562 1.394 . S
C563 C564 1.516 . S
C564 C563 1.516 . S
C564 C565 1.502 . S
C564 C566 1.561 . S
C564 C567 1.526 1_655 S
C565 H549 0.959 . S
C565 H550 0.959 . S
C565 H551 0.961 . S
C565 C564 1.502 . S
C566 H552 0.960 . S
C566 H553 0.961 . S
C566 H554 0.959 . S
C566 C564 1.561 . S
C567 C564 1.526 1_455 S
C567 C568 1.396 . S
C567 C572 1.390 . S
C568 C562 1.465 1_455 S
C568 C567 1.396 . S
C568 C569 1.399 . S
C569 H555 0.929 . S
C569 C568 1.399 . S
C569 C570 1.385 . S
C570 H556 0.931 . S
C570 C569 1.385 . S
C570 C571 1.389 . S
C571 C570 1.389 . S
C571 C572 1.387 . S
C572 H557 0.930 . S
C572 C567 1.390 . S
C572 C571 1.387 . S
H573 C585 0.913 1_556 S
H574 C587 0.930 . S
H575 C588 0.930 . S
H576 C592 0.959 . S
H577 C592 0.959 . S
H578 C592 0.961 . S
H579 C593 0.960 . S
H580 C593 0.961 . S
H581 C593 0.959 . S
H582 C596 0.929 . S
H583 C597 0.931 . S
H584 C599 0.930 . S
C585 H573 0.913 1_554 S
C585 C586 1.420 . S
C585 C590 1.396 1_554 S
C586 C585 1.420 . S
C586 C587 1.376 . S
C587 H574 0.930 . S
C587 C586 1.376 . S
C587 C588 1.388 . S
C588 H575 0.930 . S
C588 C587 1.388 . S
C588 C589 1.390 . S
C589 C588 1.390 . S
C589 C590 1.394 1_554 S
C589 C595 1.465 1_565 S
C590 C585 1.396 1_556 S
C590 C589 1.394 1_556 S
C590 C591 1.516 . S
C591 C590 1.516 . S
C591 C592 1.502 . S
C591 C593 1.561 . S
C591 C594 1.526 1_565 S
C592 H576 0.959 . S
C592 H577 0.959 . S
C592 H578 0.961 . S
C592 C591 1.502 . S
C593 H579 0.960 . S
C593 H580 0.961 . S
C593 H581 0.959 . S
C593 C591 1.561 . S
C594 C591 1.526 1_545 S
C594 C595 1.396 1_556 S
C594 C599 1.390 . S
C595 C589 1.465 1_545 S
C595 C594 1.396 1_554 S
C595 C596 1.399 . S
C596 H582 0.929 . S
C596 C595 1.399 . S
C596 C597 1.385 . S
C597 H583 0.931 . S
C597 C596 1.385 . S
C597 C598 1.389 1_554 S
C598 C597 1.389 1_556 S
C598 C599 1.387 . S
C599 H584 0.930 . S
C599 C594 1.390 . S
C599 C598 1.387 . S
H600 C612 0.930 . S
H601 C614 0.930 . S
H602 C615 0.930 . S
H603 C619 0.959 . S
H604 C619 0.959 . S
H605 C619 0.961 . S
H606 C620 0.960 . S
H607 C620 0.961 . S
H608 C620 0.959 . S
H609 C623 0.929 . S
H610 C624 0.931 . S
H611 C626 0.930 . S
C612 H600 0.930 . S
C612 C613 1.399 . S
C612 C617 1.399 . S
C613 C612 1.399 . S
C613 C614 1.376 . S
C614 H601 0.930 . S
C614 C613 1.376 . S
C614 C615 1.388 . S
C615 H602 0.930 . S
C615 C614 1.388 . S
C615 C616 1.390 . S
C616 C615 1.390 . S
C616 C617 1.394 . S
C616 C622 1.465 . S
C617 C612 1.399 . S
C617 C616 1.394 . S
C617 C618 1.516 . S
C618 C617 1.516 . S
C618 C619 1.502 . S
C618 C620 1.561 . S
C618 C621 1.526 . S
C619 H603 0.959 . S
C619 H604 0.959 . S
C619 H605 0.961 . S
C619 C618 1.502 . S
C620 H606 0.960 . S
C620 H607 0.961 . S
C620 H608 0.959 . S
C620 C618 1.561 . S
C621 C618 1.526 . S
C621 C622 1.396 . S
C621 C626 1.390 . S
C622 C616 1.465 . S
C622 C621 1.396 . S
C622 C623 1.399 . S
C623 H609 0.929 . S
C623 C622 1.399 . S
C623 C624 1.385 . S
C624 H610 0.931 . S
C624 C623 1.385 . S
C624 C625 1.389 . S
C625 C624 1.389 . S
C625 C626 1.387 . S
C626 H611 0.930 . S
C626 C621 1.390 . S
C626 C625 1.387 . S
H627 C639 0.930 . S
H628 C641 0.930 . S
H629 C642 0.930 . S
H630 C646 0.959 1_655 S
H631 C646 0.959 1_655 S
H632 C646 0.961 . S
H633 C647 0.960 . S
H634 C647 0.961 . S
H635 C647 0.959 . S
H636 C650 0.929 . S
H637 C651 0.931 . S
H638 C653 0.930 . S
C639 H627 0.930 . S
C639 C640 1.399 . S
C639 C644 1.399 . S
C640 C639 1.399 . S
C640 C641 1.376 . S
C641 H628 0.930 . S
C641 C640 1.376 . S
C641 C642 1.388 . S
C642 H629 0.930 . S
C642 C641 1.388 . S
C642 C643 1.390 . S
C643 C642 1.390 . S
C643 C644 1.394 . S
C643 C649 1.465 1_455 S
C644 C639 1.399 . S
C644 C643 1.394 . S
C644 C645 1.516 . S
C645 C644 1.516 . S
C645 C646 1.502 . S
C645 C647 1.561 . S
C645 C648 1.526 1_455 S
C646 H630 0.959 1_455 S
C646 H631 0.959 1_455 S
C646 H632 0.961 . S
C646 C645 1.502 . S
C647 H633 0.960 . S
C647 H634 0.961 . S
C647 H635 0.959 . S
C647 C645 1.561 . S
C648 C645 1.526 1_655 S
C648 C649 1.396 . S
C648 C653 1.390 . S
C649 C643 1.465 1_655 S
C649 C648 1.396 . S
C649 C650 1.399 . S
C650 H636 0.929 . S
C650 C649 1.399 . S
C650 C651 1.385 . S
C651 H637 0.931 . S
C651 C650 1.385 . S
C651 C652 1.389 . S
C652 C651 1.389 . S
C652 C653 1.387 . S
C653 H638 0.930 . S
C653 C648 1.390 . S
C653 C652 1.387 . S
H654 C666 0.930 1_554 S
H655 C668 0.930 . S
H656 C669 0.930 . S
H657 C673 0.959 . S
H658 C673 0.959 . S
H659 C673 0.961 . S
H660 C674 0.960 . S
H661 C674 0.961 . S
H662 C674 0.959 1_556 S
H663 C677 0.929 . S
H664 C678 0.932 1_556 S
H665 C680 0.930 . S
C666 H654 0.930 1_556 S
C666 C667 1.399 . S
C666 C671 1.399 . S
C667 C666 1.399 . S
C667 C668 1.376 . S
C668 H655 0.930 . S
C668 C667 1.376 . S
C668 C669 1.388 . S
C669 H656 0.930 . S
C669 C668 1.388 . S
C669 C670 1.390 . S
C670 C669 1.390 . S
C670 C671 1.394 . S
C670 C676 1.465 . S
C671 C666 1.399 . S
C671 C670 1.394 . S
C671 C672 1.516 1_556 S
C672 C671 1.516 1_554 S
C672 C673 1.502 . S
C672 C674 1.561 . S
C672 C675 1.526 . S
C673 H657 0.959 . S
C673 H658 0.959 . S
C673 H659 0.961 . S
C673 C672 1.502 . S
C674 H660 0.960 . S
C674 H661 0.961 . S
C674 H662 0.959 1_554 S
C674 C672 1.561 . S
C675 C672 1.526 . S
C675 C676 1.396 1_554 S
C675 C680 1.390 . S
C676 C670 1.465 . S
C676 C675 1.396 1_556 S
C676 C677 1.399 . S
C677 H663 0.929 . S
C677 C676 1.399 . S
C677 C678 1.385 1_556 S
C678 H664 0.932 1_554 S
C678 C677 1.385 1_554 S
C678 C679 1.389 . S
C679 C678 1.389 . S
C679 C680 1.387 . S
C680 H665 0.930 . S
C680 C675 1.390 . S
C680 C679 1.387 . S
H681 C693 0.930 . S
H682 C695 0.929 1_565 S
H683 C696 0.930 . S
H684 C700 0.959 . S
H685 C700 0.959 . S
H686 C700 0.961 . S
H687 C701 0.960 . S
H688 C701 0.961 . S
H689 C701 0.959 . S
H690 C704 0.929 . S
H691 C705 0.931 . S
H692 C707 0.930 . S
C693 H681 0.930 . S
C693 C694 1.399 . S
C693 C698 1.399 . S
C694 C693 1.399 . S
C694 C695 1.376 . S
C695 H682 0.929 1_545 S
C695 C694 1.376 . S
C695 C696 1.388 . S
C696 H683 0.930 . S
C696 C695 1.388 . S
C696 C697 1.390 . S
C697 C696 1.390 . S
C697 C698 1.394 . S
C697 C703 1.465 . S
C698 C693 1.399 . S
C698 C697 1.394 . S
C698 C699 1.516 . S
C699 C698 1.516 . S
C699 C700 1.502 . S
C699 C701 1.561 . S
C699 C702 1.526 . S
C700 H684 0.959 . S
C700 H685 0.959 . S
C700 H686 0.961 . S
C700 C699 1.502 . S
C701 H687 0.960 . S
C701 H688 0.961 . S
C701 H689 0.959 . S
C701 C699 1.561 . S
C702 C699 1.526 . S
C702 C703 1.396 . S
C702 C707 1.390 . S
C703 C697 1.465 . S
C703 C702 1.396 . S
C703 C704 1.399 . S
C704 H690 0.929 . S
C704 C703 1.399 . S
C704 C705 1.385 . S
C705 H691 0.931 . S
C705 C704 1.385 . S
C705 C706 1.389 . S
C706 C705 1.389 . S
C706 C707 1.387 . S
C707 H692 0.930 . S
C707 C702 1.390 . S
C707 C706 1.387 . S
H708 C720 0.930 . S
H709 C722 0.930 . S
H710 C723 0.930 . S
H711 C727 0.959 . S
H712 C727 0.959 . S
H713 C727 0.961 . S
H714 C728 0.960 . S
H715 C728 0.961 . S
H716 C728 0.959 . S
H717 C731 0.929 . S
H718 C732 0.931 . S
H719 C734 0.930 . S
C720 H708 0.930 . S
C720 C721 1.399 . S
C720 C725 1.399 . S
C721 C720 1.399 . S
C721 C722 1.376 . S
C722 H709 0.930 . S
C722 C721 1.376 . S
C722 C723 1.388 . S
C723 H710 0.930 . S
C723 C722 1.388 . S
C723 C724 1.390 . S
C724 C723 1.390 . S
C724 C725 1.394 . S
C724 C730 1.465 . S
C725 C720 1.399 . S
C725 C724 1.394 . S
C725 C726 1.516 . S
C726 C725 1.516 . S
C726 C727 1.502 . S
C726 C728 1.561 . S
C726 C729 1.526 . S
C727 H711 0.959 . S
C727 H712 0.959 . S
C727 H713 0.961 . S
C727 C726 1.502 . S
C728 H714 0.960 . S
C728 H715 0.961 . S
C728 H716 0.959 . S
C728 C726 1.561 . S
C729 C726 1.526 . S
C729 C730 1.396 . S
C729 C734 1.390 . S
C730 C724 1.465 . S
C730 C729 1.396 . S
C730 C731 1.399 . S
C731 H717 0.929 . S
C731 C730 1.399 . S
C731 C732 1.385 . S
C732 H718 0.931 . S
C732 C731 1.385 . S
C732 C733 1.389 . S
C733 C732 1.389 . S
C733 C734 1.387 . S
C734 H719 0.930 . S
C734 C729 1.390 . S
C734 C733 1.387 . S
H735 C747 0.930 . S
H736 C749 0.930 . S
H737 C750 0.930 . S
H738 C754 0.959 . S
H739 C754 0.959 . S
H740 C754 0.961 . S
H741 C755 0.960 . S
H742 C755 0.961 . S
H743 C755 0.959 1_556 S
H744 C758 0.929 . S
H745 C759 0.931 . S
H746 C761 0.930 . S
C747 H735 0.930 . S
C747 C748 1.399 . S
C747 C752 1.399 . S
C748 C747 1.399 . S
C748 C749 1.376 . S
C749 H736 0.930 . S
C749 C748 1.376 . S
C749 C750 1.388 1_554 S
C750 H737 0.930 . S
C750 C749 1.388 1_556 S
C750 C751 1.390 . S
C751 C750 1.390 . S
C751 C752 1.394 1_556 S
C751 C757 1.465 . S
C752 C747 1.399 . S
C752 C751 1.394 1_554 S
C752 C753 1.516 . S
C753 C752 1.516 . S
C753 C754 1.502 . S
C753 C755 1.561 . S
C753 C756 1.526 1_554 S
C754 H738 0.959 . S
C754 H739 0.959 . S
C754 H740 0.961 . S
C754 C753 1.502 . S
C755 H741 0.960 . S
C755 H742 0.961 . S
C755 H743 0.959 1_554 S
C755 C753 1.561 . S
C756 C753 1.526 1_556 S
C756 C757 1.396 . S
C756 C761 1.390 . S
C757 C751 1.465 . S
C757 C756 1.396 . S
C757 C758 1.399 . S
C758 H744 0.929 . S
C758 C757 1.399 . S
C758 C759 1.385 . S
C759 H745 0.931 . S
C759 C758 1.385 . S
C759 C760 1.389 . S
C760 C759 1.389 . S
C760 C761 1.387 . S
C761 H746 0.930 . S
C761 C756 1.390 . S
C761 C760 1.387 . S
H762 C774 0.930 . S
H763 C776 0.930 1_655 S
H764 C777 0.930 . S
H765 C781 0.959 . S
H766 C781 0.959 . S
H767 C781 0.961 . S
H768 C782 0.960 . S
H769 C782 0.961 . S
H770 C782 0.959 . S
H771 C785 0.929 . S
H772 C786 0.931 1_545 S
H773 C788 0.930 . S
C774 H762 0.930 . S
C774 C775 1.399 . S
C774 C779 1.399 . S
C775 C774 1.399 . S
C775 C776 1.376 . S
C776 H763 0.930 1_455 S
C776 C775 1.376 . S
C776 C777 1.388 . S
C777 H764 0.930 . S
C777 C776 1.388 . S
C777 C778 1.390 . S
C778 C777 1.390 . S
C778 C779 1.394 . S
C778 C784 1.465 . S
C779 C774 1.399 . S
C779 C778 1.394 . S
C779 C780 1.516 . S
C780 C779 1.516 . S
C780 C781 1.502 . S
C780 C782 1.561 . S
C780 C783 1.526 . S
C781 H765 0.959 . S
C781 H766 0.959 . S
C781 H767 0.961 . S
C781 C780 1.502 . S
C782 H768 0.960 . S
C782 H769 0.961 . S
C782 H770 0.959 . S
C782 C780 1.561 . S
C783 C780 1.526 . S
C783 C784 1.396 . S
C783 C788 1.390 . S
C784 C778 1.465 . S
C784 C783 1.396 . S
C784 C785 1.399 . S
C785 H771 0.929 . S
C785 C784 1.399 . S
C785 C786 1.385 . S
C786 H772 0.931 1_565 S
C786 C785 1.385 . S
C786 C787 1.389 . S
C787 C786 1.389 . S
C787 C788 1.387 . S
C788 H773 0.930 . S
C788 C783 1.390 . S
C788 C787 1.387 . S
H789 C801 0.930 . S
H790 C803 0.930 . S
H791 C804 0.930 . S
H792 C808 0.959 . S
H793 C808 0.959 . S
H794 C808 0.961 . S
H795 C809 0.960 . S
H796 C809 0.961 . S
H797 C809 0.959 . S
H798 C812 0.929 . S
H799 C813 0.931 . S
H800 C815 0.930 . S
C801 H789 0.930 . S
C801 C802 1.399 . S
C801 C806 1.399 . S
C802 C801 1.399 . S
C802 C803 1.376 . S
C803 H790 0.930 . S
C803 C802 1.376 . S
C803 C804 1.388 . S
C804 H791 0.930 . S
C804 C803 1.388 . S
C804 C805 1.390 . S
C805 C804 1.390 . S
C805 C806 1.394 . S
C805 C811 1.465 . S
C806 C801 1.399 . S
C806 C805 1.394 . S
C806 C807 1.516 . S
C807 C806 1.516 . S
C807 C808 1.502 . S
C807 C809 1.561 . S
C807 C810 1.526 . S
C808 H792 0.959 . S
C808 H793 0.959 . S
C808 H794 0.961 . S
C808 C807 1.502 . S
C809 H795 0.960 . S
C809 H796 0.961 . S
C809 H797 0.959 . S
C809 C807 1.561 . S
C810 C807 1.526 . S
C810 C811 1.396 . S
C810 C815 1.390 . S
C811 C805 1.465 . S
C811 C810 1.396 . S
C811 C812 1.399 . S
C812 H798 0.929 . S
C812 C811 1.399 . S
C812 C813 1.385 . S
C813 H799 0.931 . S
C813 C812 1.385 . S
C813 C814 1.389 . S
C814 C813 1.389 . S
C814 C815 1.387 . S
C815 H800 0.930 . S
C815 C810 1.390 . S
C815 C814 1.387 . S
C181 C50 1.361 . S
C193 C8 1.394 . S
C208 C22 1.396 . S
C220 C64 1.364 . S
C235 C78 1.355 . S
C247 C36 1.400 . S
C262 C92 1.363 . S
C274 C134 1.392 . S
C289 C148 1.368 . S
C301 C106 1.386 . S
C316 C120 1.389 . S
C328 C162 1.372 . S
C343 C119 1.591 . S
C355 C7 1.563 . S
C370 C21 1.560 . S
C382 C133 1.546 . S
C397 C35 1.560 . S
C409 C147 1.588 . S
C424 C49 1.566 . S
C436 C161 1.548 . S
C451 C91 1.592 . S
C463 C63 1.609 . S
C478 C105 1.545 . S
C490 C77 1.557 . S
C505 C107 1.197 . S
C517 C9 1.226 . S
C532 C23 1.239 . S
C544 C121 1.237 . S
C559 C37 1.202 . S
C571 C135 1.229 . S
C586 C51 1.186 . S
C598 C149 1.218 . S
C613 C163 1.239 . S
C625 C65 1.218 . S
C640 C79 1.227 . S
C652 C93 1.240 . S
C667 C143 1.471 1_455 S
C679 C3 1.460 . S
C694 C157 1.459 1_545 S
C706 C17 1.471 1_655 S
C721 C87 1.466 . S
C733 C31 1.469 1_565 S
C748 C45 1.456 . S
C760 C101 1.467 1_655 S
C775 C59 1.460 1_455 S
C787 C115 1.459 1_565 S
C802 C73 1.463 1_545 S
C814 C129 1.471 . S
