# Generated by pormake.
# Topology why, (6)-cn, num edge types: 1
# Building blocks:
#     Node 0, Type 0, BuildingBlock: HISSIN_clean_sbu_0, # of connection points: 6
#     Node 1, Type 0, BuildingBlock: HISSIN_clean_sbu_0, # of connection points: 6
#     Node 2, Type 0, BuildingBlock: HISSIN_clean_sbu_0, # of connection points: 6
#     Node 3, Type 0, BuildingBlock: HISSIN_clean_sbu_0, # of connection points: 6
#     Node 4, Type 0, BuildingBlock: HISSIN_clean_sbu_0, # of connection points: 6
#     Node 5, Type 0, BuildingBlock: HISSIN_clean_sbu_0, # of connection points: 6
#     Node 6, Type 0, BuildingBlock: HISSIN_clean_sbu_0, # of connection points: 6
#     Node 7, Type 0, BuildingBlock: HISSIN_clean_sbu_0, # of connection points: 6
#     Node 8, Type 0, BuildingBlock: HISSIN_clean_sbu_0, # of connection points: 6
#     Node 9, Type 0, BuildingBlock: HISSIN_clean_sbu_0, # of connection points: 6
#     Node 10, Type 0, BuildingBlock: HISSIN_clean_sbu_0, # of connection points: 6
#     Node 11, Type 0, BuildingBlock: HISSIN_clean_sbu_0, # of connection points: 6
#     Node 12, Type 0, BuildingBlock: HISSIN_clean_sbu_0, # of connection points: 6
#     Node 13, Type 0, BuildingBlock: HISSIN_clean_sbu_0, # of connection points: 6
#     Node 14, Type 0, BuildingBlock: HISSIN_clean_sbu_0, # of connection points: 6
#     Node 15, Type 0, BuildingBlock: HISSIN_clean_sbu_0, # of connection points: 6
#     Edge 16, Type (0, 0), BuildingBlock: XIVTED_clean_linker_0, # of connection points: 2
#     Edge 17, Type (0, 0), BuildingBlock: XIVTED_clean_linker_0, # of connection points: 2
#     Edge 18, Type (0, 0), BuildingBlock: XIVTED_clean_linker_0, # of connection points: 2
#     Edge 19, Type (0, 0), BuildingBlock: XIVTED_clean_linker_0, # of connection points: 2
#     Edge 20, Type (0, 0), BuildingBlock: XIVTED_clean_linker_0, # of connection points: 2
#     Edge 21, Type (0, 0), BuildingBlock: XIVTED_clean_linker_0, # of connection points: 2
#     Edge 22, Type (0, 0), BuildingBlock: XIVTED_clean_linker_0, # of connection points: 2
#     Edge 23, Type (0, 0), BuildingBlock: XIVTED_clean_linker_0, # of connection points: 2
#     Edge 24, Type (0, 0), BuildingBlock: XIVTED_clean_linker_0, # of connection points: 2
#     Edge 25, Type (0, 0), BuildingBlock: XIVTED_clean_linker_0, # of connection points: 2
#     Edge 26, Type (0, 0), BuildingBlock: XIVTED_clean_linker_0, # of connection points: 2
#     Edge 27, Type (0, 0), BuildingBlock: XIVTED_clean_linker_0, # of connection points: 2
#     Edge 28, Type (0, 0), BuildingBlock: XIVTED_clean_linker_0, # of connection points: 2
#     Edge 29, Type (0, 0), BuildingBlock: XIVTED_clean_linker_0, # of connection points: 2
#     Edge 30, Type (0, 0), BuildingBlock: XIVTED_clean_linker_0, # of connection points: 2
#     Edge 31, Type (0, 0), BuildingBlock: XIVTED_clean_linker_0, # of connection points: 2
#     Edge 32, Type (0, 0), BuildingBlock: XIVTED_clean_linker_0, # of connection points: 2
#     Edge 33, Type (0, 0), BuildingBlock: XIVTED_clean_linker_0, # of connection points: 2
#     Edge 34, Type (0, 0), BuildingBlock: XIVTED_clean_linker_0, # of connection points: 2
#     Edge 35, Type (0, 0), BuildingBlock: XIVTED_clean_linker_0, # of connection points: 2
#     Edge 36, Type (0, 0), BuildingBlock: XIVTED_clean_linker_0, # of connection points: 2
#     Edge 37, Type (0, 0), BuildingBlock: XIVTED_clean_linker_0, # of connection points: 2
#     Edge 38, Type (0, 0), BuildingBlock: XIVTED_clean_linker_0, # of connection points: 2
#     Edge 39, Type (0, 0), BuildingBlock: XIVTED_clean_linker_0, # of connection points: 2
#     Edge 40, Type (0, 0), BuildingBlock: XIVTED_clean_linker_0, # of connection points: 2
#     Edge 41, Type (0, 0), BuildingBlock: XIVTED_clean_linker_0, # of connection points: 2
#     Edge 42, Type (0, 0), BuildingBlock: XIVTED_clean_linker_0, # of connection points: 2
#     Edge 43, Type (0, 0), BuildingBlock: XIVTED_clean_linker_0, # of connection points: 2
#     Edge 44, Type (0, 0), BuildingBlock: XIVTED_clean_linker_0, # of connection points: 2
#     Edge 45, Type (0, 0), BuildingBlock: XIVTED_clean_linker_0, # of connection points: 2
#     Edge 46, Type (0, 0), BuildingBlock: XIVTED_clean_linker_0, # of connection points: 2
#     Edge 47, Type (0, 0), BuildingBlock: XIVTED_clean_linker_0, # of connection points: 2
#     Edge 48, Type (0, 0), BuildingBlock: XIVTED_clean_linker_0, # of connection points: 2
#     Edge 49, Type (0, 0), BuildingBlock: XIVTED_clean_linker_0, # of connection points: 2
#     Edge 50, Type (0, 0), BuildingBlock: XIVTED_clean_linker_0, # of connection points: 2
#     Edge 51, Type (0, 0), BuildingBlock: XIVTED_clean_linker_0, # of connection points: 2
#     Edge 52, Type (0, 0), BuildingBlock: XIVTED_clean_linker_0, # of connection points: 2
#     Edge 53, Type (0, 0), BuildingBlock: XIVTED_clean_linker_0, # of connection points: 2
#     Edge 54, Type (0, 0), BuildingBlock: XIVTED_clean_linker_0, # of connection points: 2
#     Edge 55, Type (0, 0), BuildingBlock: XIVTED_clean_linker_0, # of connection points: 2
#     Edge 56, Type (0, 0), BuildingBlock: XIVTED_clean_linker_0, # of connection points: 2
#     Edge 57, Type (0, 0), BuildingBlock: XIVTED_clean_linker_0, # of connection points: 2
#     Edge 58, Type (0, 0), BuildingBlock: XIVTED_clean_linker_0, # of connection points: 2
#     Edge 59, Type (0, 0), BuildingBlock: XIVTED_clean_linker_0, # of connection points: 2
#     Edge 60, Type (0, 0), BuildingBlock: XIVTED_clean_linker_0, # of connection points: 2
#     Edge 61, Type (0, 0), BuildingBlock: XIVTED_clean_linker_0, # of connection points: 2
#     Edge 62, Type (0, 0), BuildingBlock: XIVTED_clean_linker_0, # of connection points: 2
#     Edge 63, Type (0, 0), BuildingBlock: XIVTED_clean_linker_0, # of connection points: 2
# Relax obj value: 0.413
# Max RMSD: 0.237
# Mean RMSD: 0.237
data_MOF--net-why--node1-HISSIN_clean_sbu_0--edge1-XIVTED_clean_linker_0
_symmetry_space_group_name_H-M    P1
_symmetry_Int_Tables_number       1
_symmetry_cell_setting            triclinic
loop_
_symmetry_equiv_pos_as_xyz
'x, y, z'
_cell_length_a     47.309597
_cell_length_b     47.251193
_cell_length_c     40.544225
_cell_angle_alpha  89.976863
_cell_angle_beta   89.958374
_cell_angle_gamma 90.257286
loop_
_atom_site_label
_atom_site_type_symbol
_atom_site_fract_x
_atom_site_fract_y
_atom_site_fract_z
_atom_type_partial_charge
Eu0 Eu 0.51252 0.23435 0.04674 0.0
Eu1 Eu 0.47286 0.27152 0.09393 0.0
C2 C 0.48914 0.29455 0.02069 0.0
C3 C 0.5564 0.20783 0.97565 0.0
C4 C 0.55208 0.23361 0.95935 0.0
C5 C 0.58291 0.19075 0.92853 0.0
C6 C 0.56321 0.23803 0.92789 0.0
C7 C 0.57175 0.18637 0.96009 0.0
C8 C 0.57887 0.21671 0.91217 0.0
C9 C 0.54432 0.20324 0.00851 0.0
O10 O 0.44098 0.24963 0.05992 0.0
O11 O 0.47068 0.23636 0.01816 0.0
C12 C 0.44489 0.24131 0.0292 0.0
O13 O 0.49907 0.20371 0.08756 0.0
O14 O 0.46817 0.30507 0.13051 0.0
O15 O 0.43166 0.2805 0.11541 0.0
O16 O 0.48657 0.23499 0.12754 0.0
C17 C 0.49243 0.20892 0.11845 0.0
O18 O 0.54407 0.2662 0.06988 0.0
O19 O 0.51266 0.29876 0.08957 0.0
O20 O 0.47174 0.29584 0.04595 0.0
O21 O 0.55425 0.21932 0.03195 0.0
O22 O 0.51687 0.20141 0.00948 0.0
O23 O 0.50817 0.27456 0.01777 0.0
C24 C 0.42605 0.32977 0.12151 0.0
C25 C 0.41294 0.33311 0.09059 0.0
C26 C 0.41328 0.3778 0.13561 0.0
C27 C 0.39938 0.35842 0.08266 0.0
C28 C 0.4265 0.35241 0.14369 0.0
C29 C 0.39925 0.38092 0.10523 0.0
C30 C 0.44069 0.30341 0.12999 0.0
C31 C 0.53863 0.29195 0.08111 0.0
H32 H 0.54004 0.25031 0.97093 0.0
H33 H 0.59515 0.17404 0.91721 0.0
H34 H 0.55938 0.2581 0.9158 0.0
H35 H 0.57516 0.1663 0.97236 0.0
H36 H 0.41292 0.31609 0.07269 0.0
H37 H 0.41301 0.3946 0.15379 0.0
H38 H 0.38864 0.36027 0.05918 0.0
H39 H 0.43684 0.35035 0.16741 0.0
Eu40 Eu 0.74941 0.7666 0.29525 0.0
Eu41 Eu 0.71263 0.72971 0.34624 0.0
C42 C 0.68673 0.74485 0.27424 0.0
C43 C 0.77679 0.81133 0.22366 0.0
C44 C 0.75475 0.83076 0.21928 0.0
C45 C 0.79035 0.81763 0.16637 0.0
C46 C 0.75067 0.84365 0.18867 0.0
C47 C 0.7946 0.80499 0.19707 0.0
C48 C 0.7683 0.8371 0.16177 0.0
C49 C 0.78081 0.79638 0.2551 0.0
O50 O 0.7326 0.69587 0.31287 0.0
O51 O 0.74683 0.72368 0.2696 0.0
C52 C 0.74108 0.69849 0.28193 0.0
O53 O 0.78115 0.75525 0.33579 0.0
O54 O 0.69917 0.68895 0.36611 0.0
O55 O 0.68629 0.72759 0.39037 0.0
O56 O 0.751 0.74264 0.3768 0.0
C57 C 0.77667 0.74874 0.36686 0.0
O58 O 0.716 0.79887 0.31248 0.0
O59 O 0.68705 0.77075 0.34431 0.0
O60 O 0.68468 0.72942 0.30118 0.0
O61 O 0.76874 0.80691 0.28133 0.0
O62 O 0.77845 0.76894 0.25365 0.0
O63 O 0.70831 0.76171 0.26817 0.0
C64 C 0.70047 0.69019 0.42415 0.0
C65 C 0.72893 0.68188 0.42649 0.0
C66 C 0.6949 0.6823 0.48275 0.0
C67 C 0.74009 0.67312 0.4567 0.0
C68 C 0.68368 0.6907 0.45252 0.0
C69 C 0.72312 0.67314 0.48508 0.0
C70 C 0.68876 0.70024 0.39278 0.0
C71 C 0.69243 0.79515 0.32967 0.0
H72 H 0.74056 0.83588 0.23937 0.0
H73 H 0.80406 0.81173 0.14614 0.0
H74 H 0.73379 0.85891 0.1862 0.0
H75 H 0.81158 0.78986 0.19991 0.0
H76 H 0.74249 0.682 0.40495 0.0
H77 H 0.68113 0.68197 0.50411 0.0
H78 H 0.76183 0.66607 0.45785 0.0
H79 H 0.66185 0.69744 0.45126 0.0
Eu80 Eu 0.21788 1.0057 0.54871 0.0
Eu81 Eu 0.25787 0.96812 0.59504 0.0
C82 C 0.23932 0.94517 0.52213 0.0
C83 C 0.17309 1.03381 0.47837 0.0
C84 C 0.15269 1.01263 0.47303 0.0
C85 C 0.17034 1.04677 0.42047 0.0
C86 C 0.14123 1.00857 0.44169 0.0
C87 C 0.18161 1.051 0.45191 0.0
C88 C 0.15011 1.0254 0.41495 0.0
C89 C 0.18667 1.03745 0.5108 0.0
O90 O 0.28995 0.99181 0.56287 0.0
O91 O 0.26001 1.0031 0.52064 0.0
C92 C 0.28593 0.99915 0.5318 0.0
O93 O 0.23043 1.03644 0.58963 0.0
O94 O 0.26186 0.94342 0.64022 0.0
O95 O 0.29813 0.94892 0.60803 0.0
O96 O 0.24784 1.00611 0.62819 0.0
C97 C 0.23966 1.03168 0.61966 0.0
O98 O 0.18621 0.97368 0.57125 0.0
O99 O 0.21769 0.94123 0.59098 0.0
O100 O 0.25642 0.94315 0.54758 0.0
O101 O 0.17662 1.02266 0.53537 0.0
O102 O 0.21419 1.03802 0.51059 0.0
O103 O 0.22111 0.96587 0.51892 0.0
C104 C 0.2905 0.90384 0.63155 0.0
C105 C 0.28934 0.88847 0.66099 0.0
C106 C 0.29537 0.85988 0.60086 0.0
C107 C 0.29137 0.85906 0.66047 0.0
C108 C 0.29302 0.88935 0.60137 0.0
C109 C 0.29469 0.84447 0.63045 0.0
C110 C 0.28713 0.9347 0.63251 0.0
C111 C 0.19167 0.94801 0.58264 0.0
H112 H 0.14569 0.999 0.49294 0.0
H113 H 0.17789 1.05992 0.40041 0.0
H114 H 0.12526 0.99231 0.43849 0.0
H115 H 0.19739 1.06741 0.45545 0.0
H116 H 0.28703 0.89925 0.68442 0.0
H117 H 0.29804 0.84917 0.57745 0.0
H118 H 0.29142 0.84783 0.68377 0.0
H119 H 0.29334 0.90078 0.57821 0.0
Eu120 Eu 0.97977 0.47278 0.79538 0.0
Eu121 Eu 1.01565 0.50969 0.84495 0.0
C122 C 1.042 0.49577 0.77319 0.0
C123 C 0.94968 0.43565 0.72086 0.0
C124 C 0.97311 0.44446 0.70224 0.0
C125 C 0.93323 0.40765 0.67454 0.0
C126 C 0.97681 0.4346 0.67009 0.0
C127 C 0.92958 0.41752 0.70676 0.0
C128 C 0.95714 0.41573 0.65606 0.0
C129 C 0.947 0.44429 0.75541 0.0
O130 O 1.00468 0.54429 0.80828 0.0
O131 O 0.97657 0.51794 0.77358 0.0
C132 C 0.98915 0.54219 0.78141 0.0
O133 O 0.9568 0.47011 0.84525 0.0
O134 O 1.03938 0.54517 0.86554 0.0
O135 O 1.0281 0.50938 0.8966 0.0
O136 O 0.96944 0.51384 0.86071 0.0
C137 C 0.95215 0.49232 0.86381 0.0
O138 O 1.01712 0.44309 0.8039 0.0
O139 O 1.0365 0.46558 0.84851 0.0
O140 O 1.04606 0.50779 0.80212 0.0
O141 O 0.96479 0.43251 0.77567 0.0
O142 O 0.94461 0.4714 0.7606 0.0
O143 O 1.01877 0.48184 0.76562 0.0
C144 C 1.0246 0.55425 0.92013 0.0
C145 C 1.03371 0.55289 0.95287 0.0
C146 C 0.98933 0.58908 0.93566 0.0
C147 C 1.02093 0.56967 0.97685 0.0
C148 C 1.00196 0.57202 0.91171 0.0
C149 C 0.99883 0.58817 0.96845 0.0
C150 C 1.03734 0.53542 0.8956 0.0
C151 C 1.0363 0.44419 0.82746 0.0
H152 H 0.98881 0.45854 0.71279 0.0
H153 H 0.9179 0.39288 0.66457 0.0
H154 H 0.99525 0.44148 0.65635 0.0
H155 H 0.91143 0.41048 0.72092 0.0
H156 H 1.05083 0.53896 0.95987 0.0
H157 H 0.97243 0.60321 0.92854 0.0
H158 H 1.02915 0.56895 0.00177 0.0
H159 H 0.99415 0.57282 0.88661 0.0
Eu160 Eu 0.75567 0.97268 0.88346 0.0
Eu161 Eu 0.71935 1.01234 0.93317 0.0
C162 C 0.73816 1.03663 0.85916 0.0
C163 C 0.80234 0.91401 0.85563 0.0
C164 C 0.81632 0.9128 0.8862 0.0
C165 C 0.81874 0.86684 0.84305 0.0
C166 C 0.832 0.88891 0.8948 0.0
C167 C 0.80336 0.89079 0.83435 0.0
C168 C 0.83343 0.86573 0.87322 0.0
C169 C 0.78494 0.93845 0.8468 0.0
O170 O 0.6874 0.97715 0.92016 0.0
O171 O 0.71115 0.95362 0.87915 0.0
C172 C 0.68873 0.95644 0.89825 0.0
O173 O 0.75528 0.94808 0.93123 0.0
O174 O 0.67934 1.03172 0.94757 0.0
O175 O 0.7182 1.04405 0.97197 0.0
O176 O 0.72243 0.97229 0.96222 0.0
C177 C 0.73933 0.95074 0.95759 0.0
O178 O 0.78963 0.98801 0.91986 0.0
O179 O 0.76278 1.0117 0.95811 0.0
O180 O 0.72716 1.04091 0.88854 0.0
O181 O 0.75802 0.93522 0.8523 0.0
O182 O 0.79424 0.96321 0.85617 0.0
O183 O 0.74868 1.0118 0.85126 0.0
C184 C 0.67701 1.04304 0.00399 0.0
C185 C 0.68365 1.02036 0.02493 0.0
C186 C 0.64363 1.06039 0.04443 0.0
C187 C 0.67029 1.0177 0.0555 0.0
C188 C 0.65711 1.06312 0.01396 0.0
C189 C 0.64995 1.03755 0.0654 0.0
C190 C 0.69074 1.04589 0.97179 0.0
C191 C 0.78725 1.00116 0.94849 0.0
H192 H 0.81521 0.93036 0.90334 0.0
H193 H 0.81996 0.84957 0.82555 0.0
H194 H 0.84319 0.88863 0.9181 0.0
H195 H 0.79237 0.89123 0.81092 0.0
H196 H 0.69897 1.00462 0.01749 0.0
H197 H 0.62817 1.07609 0.05158 0.0
H198 H 0.67528 0.99971 0.07097 0.0
H199 H 0.65188 1.08079 -0.00192 0.0
Eu200 Eu 0.51704 0.51476 0.63505 0.0
Eu201 Eu 0.47703 0.47594 0.68208 0.0
C202 C 0.45268 0.49726 0.61003 0.0
C203 C 0.58064 0.55321 0.60413 0.0
C204 C 0.58791 0.58187 0.60173 0.0
C205 C 0.62907 0.54235 0.61977 0.0
C206 C 0.6155 0.59073 0.60812 0.0
C207 C 0.60131 0.53352 0.61379 0.0
C208 C 0.63645 0.57104 0.61682 0.0
C209 C 0.55113 0.54453 0.59856 0.0
O210 O 0.50967 0.44377 0.66196 0.0
O211 O 0.54194 0.47366 0.63785 0.0
C212 C 0.53486 0.44828 0.64849 0.0
O213 O 0.54214 0.51238 0.68234 0.0
O214 O 0.45938 0.43467 0.69536 0.0
O215 O 0.44507 0.4722 0.7206 0.0
O216 O 0.51642 0.47969 0.71224 0.0
C217 C 0.53845 0.49632 0.70851 0.0
O218 O 0.50021 0.54753 0.67119 0.0
O219 O 0.477 0.51912 0.7086 0.0
O220 O 0.44759 0.48669 0.63944 0.0
O221 O 0.54649 0.5176 0.59381 0.0
O222 O 0.53266 0.55586 0.61836 0.0
O223 O 0.47813 0.5067 0.60239 0.0
C224 C 0.44961 0.43097 0.75198 0.0
C225 C 0.47573 0.43411 0.76788 0.0
C226 C 0.4327 0.40243 0.7977 0.0
C227 C 0.48039 0.42144 0.79844 0.0
C228 C 0.42807 0.41517 0.76703 0.0
C229 C 0.45897 0.40535 0.81365 0.0
C230 C 0.44486 0.44466 0.72004 0.0
C231 C 0.4872 0.54412 0.6997 0.0
H232 H 0.57224 0.59741 0.59471 0.0
H233 H 0.64485 0.52676 0.62624 0.0
H234 H 0.62069 0.61291 0.60487 0.0
H235 H 0.59611 0.51129 0.6165 0.0
H236 H 0.4925 0.44643 0.75668 0.0
H237 H 0.4159 0.38991 0.80863 0.0
H238 H 0.5007 0.42445 0.81026 0.0
H239 H 0.40775 0.41263 0.75504 0.0
Eu240 Eu 0.97242 0.27442 0.38095 0.0
Eu241 Eu 1.0101 0.2391 0.4309 0.0
C242 C 0.99334 0.21161 0.36004 0.0
C243 C 0.94069 0.28879 0.29872 0.0
C244 C 0.94057 0.30964 0.27427 0.0
C245 C 0.93763 0.25241 0.25639 0.0
C246 C 0.93869 0.30202 0.24113 0.0
C247 C 0.93978 0.26007 0.28958 0.0
C248 C 0.93681 0.27335 0.23184 0.0
C249 C 0.94347 0.29715 0.33345 0.0
O250 O 1.04214 0.27095 0.40828 0.0
O251 O 1.01137 0.30278 0.38581 0.0
C252 C 1.03704 0.29638 0.39583 0.0
O253 O 0.96954 0.30152 0.42669 0.0
O254 O 1.05158 0.22407 0.44656 0.0
O255 O 1.01391 0.20805 0.47035 0.0
O256 O 1.00407 0.2801 0.45808 0.0
C257 C 0.98574 0.3005 0.45308 0.0
O258 O 0.93906 0.25494 0.41542 0.0
O259 O 0.96767 0.24123 0.45804 0.0
O260 O 0.99712 0.20677 0.39159 0.0
O261 O 0.93245 0.27995 0.35514 0.0
O262 O 0.96849 0.30607 0.34203 0.0
O263 O 0.98988 0.23781 0.35018 0.0
C264 C 1.05384 0.21449 0.50338 0.0
C265 C 1.05045 0.24087 0.51865 0.0
C266 C 1.0798 0.19779 0.55102 0.0
C267 C 1.06177 0.24575 0.54992 0.0
C268 C 1.06845 0.19295 0.5197 0.0
C269 C 1.07665 0.22428 0.56642 0.0
C270 C 1.04138 0.20918 0.47092 0.0
C271 C 0.94222 0.24655 0.4463 0.0
H272 H 0.94164 0.33185 0.28083 0.0
H273 H 0.93615 0.2302 0.24993 0.0
H274 H 0.93746 0.3187 0.22286 0.0
H275 H 0.94045 0.24354 0.30809 0.0
H276 H 1.03897 0.25765 0.50643 0.0
H277 H 1.09147 0.18097 0.56291 0.0
H278 H 1.05869 0.26625 0.56127 0.0
H279 H 1.07112 0.17244 0.50822 0.0
Eu280 Eu 0.2135 0.73146 0.13401 0.0
Eu281 Eu 0.25236 0.77109 0.17987 0.0
C282 C 0.27734 0.74881 0.10903 0.0
C283 C 0.14889 0.69873 0.09725 0.0
C284 C 0.13134 0.72255 0.10052 0.0
C285 C 1.10743 0.66856 0.09627 0.0
C286 C 1.10196 0.7194 0.10082 0.0
C287 C 0.13672 0.67175 0.0956 0.0
C288 C 1.08972 0.69237 0.09846 0.0
C289 C 0.17983 0.70157 0.0972 0.0
O290 O 0.22029 0.80287 0.15793 0.0
O291 O 0.18738 0.77185 0.1375 0.0
C292 C 0.19458 0.79772 0.14631 0.0
O293 O 0.18808 0.73471 0.18121 0.0
O294 O 0.27069 0.81227 0.19195 0.0
O295 O 0.2842 0.77496 0.21847 0.0
O296 O 0.21314 0.76834 0.2103 0.0
C297 C 0.19135 0.75133 0.20699 0.0
O298 O 0.23691 0.69929 0.16593 0.0
O299 O 0.24908 0.72901 0.20812 0.0
O300 O 0.28261 0.75717 0.13929 0.0
O301 O 0.19006 0.7261 0.08823 0.0
O302 O 0.19261 0.6913 0.12301 0.0
O303 O 0.25138 0.7418 0.10047 0.0
C304 C 0.28034 0.81687 0.24922 0.0
C305 C 0.25844 0.83646 0.25376 0.0
C306 C 0.29234 0.82106 0.30727 0.0
C307 C 0.25356 0.84825 0.2848 0.0
C308 C 0.2974 0.80951 0.27614 0.0
C309 C 0.27023 0.84045 0.31204 0.0
C310 C 0.28452 0.8025 0.21734 0.0
C311 C 0.24446 0.70314 0.19694 0.0
H312 H 0.14029 0.74362 0.10249 0.0
H313 H 1.09863 0.64748 0.09366 0.0
H314 H 1.08881 0.73806 0.10241 0.0
H315 H 0.1499 0.65313 0.09345 0.0
H316 H 0.24483 0.84248 0.23349 0.0
H317 H 0.30537 0.81428 0.32772 0.0
H318 H 0.23671 0.86352 0.28739 0.0
H319 H 0.31428 0.79428 0.27324 0.0
Eu320 Eu 1.01114 0.73491 0.54649 0.0
Eu321 Eu 0.9729 0.77051 0.59513 0.0
C322 C 0.98754 0.79608 0.52295 0.0
C323 C 1.05635 0.7086 0.47547 0.0
C324 C 1.04005 0.71557 0.44764 0.0
C325 C 1.0988 0.71164 0.44203 0.0
C326 C 1.05307 0.72052 0.41726 0.0
C327 C 1.08576 0.70638 0.47232 0.0
C328 C 1.08257 0.71892 0.4143 0.0
C329 C 1.04318 0.70445 0.50804 0.0
O330 O 0.94016 0.75178 0.55929 0.0
O331 O 0.96959 0.73736 0.51771 0.0
C332 C 0.94395 0.74313 0.52859 0.0
O333 O 0.99649 0.70312 0.58546 0.0
O334 O 0.93372 0.77289 0.62319 0.0
O335 O 0.96611 0.80492 0.63009 0.0
O336 O 0.99089 0.7345 0.62666 0.0
C337 C 0.99342 0.70813 0.61702 0.0
O338 O 1.04308 0.76652 0.56965 0.0
O339 O 1.01235 0.7983 0.5923 0.0
O340 O 0.97074 0.79715 0.54886 0.0
O341 O 1.05305 0.71998 0.53201 0.0
O342 O 1.01572 0.70251 0.50877 0.0
O343 O 1.00596 0.77564 0.5186 0.0
C344 C 0.94252 0.78882 0.67739 0.0
C345 C 0.94198 0.8121 0.69865 0.0
C346 C 0.94392 0.75723 0.72479 0.0
C347 C 0.94214 0.80804 0.7327 0.0
C348 C 0.94406 0.76132 0.69065 0.0
C349 C 0.94274 0.78057 0.74615 0.0
C350 C 0.94296 0.7936 0.64159 0.0
C351 C 1.03805 0.79183 0.58245 0.0
H352 H 1.0173 0.7176 0.44935 0.0
H353 H 0.12158 0.71 0.44026 0.0
H354 H 1.04014 0.72634 0.3963 0.0
H355 H 1.0987 0.70096 0.49342 0.0
H356 H 0.94112 0.83343 0.68889 0.0
H357 H 0.9443 0.73587 0.7345 0.0
H358 H 0.94056 0.82646 0.74849 0.0
H359 H 0.94507 0.74299 0.67467 0.0
Eu360 Eu 0.25288 0.26886 0.79426 0.0
Eu361 Eu 0.21554 0.23005 0.84295 0.0
C362 C 0.19052 0.24826 0.77096 0.0
C363 C 0.28172 0.31322 0.7233 0.0
C364 C 0.27326 0.29731 0.69566 0.0
C365 C 0.28276 0.3555 0.6894 0.0
C366 C 0.26961 0.31045 0.66512 0.0
C367 C 0.28674 0.34231 0.71982 0.0
C368 C 0.27396 0.33972 0.66187 0.0
C369 C 0.28463 0.30008 0.75601 0.0
O370 O 0.23833 0.19807 0.80974 0.0
O371 O 0.24945 0.22694 0.7664 0.0
C372 C 0.2452 0.20135 0.7784 0.0
O373 O 0.28401 0.25692 0.83495 0.0
O374 O 0.19734 0.18889 0.85542 0.0
O375 O 0.19355 0.22385 0.88966 0.0
O376 O 0.25382 0.24152 0.87472 0.0
C377 C 0.27942 0.2488 0.86545 0.0
O378 O 0.21947 0.3003 0.81347 0.0
O379 O 0.19001 0.27113 0.8434 0.0
O380 O 0.18706 0.23359 0.79833 0.0
O381 O 0.26887 0.31044 0.77944 0.0
O382 O 0.28574 0.27253 0.75693 0.0
O383 O 0.2133 0.26338 0.76484 0.0
C384 C 0.20425 0.17881 0.91138 0.0
C385 C 0.22662 0.18906 0.93094 0.0
C386 C 0.20817 0.13322 0.93821 0.0
C387 C 0.23938 0.1716 0.95436 0.0
C388 C 0.19534 0.15072 0.91496 0.0
C389 C 0.23019 0.14352 0.95834 0.0
C390 C 0.1916 0.19653 0.88555 0.0
C391 C 0.19568 0.29604 0.83009 0.0
H392 H 0.26906 0.27482 0.69768 0.0
H393 H 0.28644 0.37808 0.68739 0.0
H394 H 0.26255 0.29792 0.6443 0.0
H395 H 0.29335 0.35492 0.74079 0.0
H396 H 0.2342 0.21057 0.92826 0.0
H397 H 0.20013 1.11188 0.9412 0.0
H398 H 0.25621 0.18012 0.96956 0.0
H399 H 0.17837 0.14235 0.89985 0.0
Eu400 Eu 0.72018 0.50597 0.04715 0.0
Eu401 Eu 0.75798 0.46709 0.09607 0.0
C402 C 0.74169 0.44472 0.02256 0.0
C403 C 0.67562 0.53284 0.97663 0.0
C404 C 0.67575 0.5058 0.96242 0.0
C405 C 0.65045 0.55087 0.92907 0.0
C406 C 0.66331 0.5013 0.93167 0.0
C407 C 0.66295 0.55535 0.95986 0.0
C408 C 0.65051 0.52379 0.91464 0.0
C409 C 0.68985 0.53778 0.00816 0.0
O410 O 0.79099 0.48179 0.05858 0.0
O411 O 0.76381 0.50689 0.02185 0.0
C412 C 0.78829 0.49569 0.03052 0.0
O413 O 0.72994 0.53582 0.08986 0.0
O414 O 0.76036 0.43298 0.13218 0.0
O415 O 0.79809 0.45679 0.11951 0.0
O416 O 0.74825 0.50576 0.12834 0.0
C417 C 0.73926 0.53108 0.11988 0.0
O418 O 0.68767 0.47274 0.06566 0.0
O419 O 0.71656 0.44238 0.09403 0.0
O420 O 0.75818 0.44251 0.04848 0.0
O421 O 0.67952 0.52436 0.03359 0.0
O422 O 0.7173 0.53651 0.00707 0.0
O423 O 0.72391 0.46565 0.01854 0.0
C424 C 0.80193 0.40732 0.12489 0.0
C425 C 0.8127 0.40274 0.09299 0.0
C426 C 0.81498 0.35961 0.13997 0.0
C427 C 0.82514 0.37689 0.08488 0.0
C428 C 0.80282 0.3855 0.14814 0.0
C429 C 0.82652 0.35511 0.10838 0.0
C430 C 0.78785 0.43396 0.13324 0.0
C431 C 0.69175 0.44836 0.08114 0.0
H432 H 0.68571 0.48824 0.97497 0.0
H433 H 0.64044 0.56853 0.91675 0.0
H434 H 0.66405 0.48028 0.92106 0.0
H435 H 0.66282 0.57638 0.97051 0.0
H436 H 0.81162 0.41917 0.07439 0.0
H437 H 0.81629 0.34346 0.15887 0.0
H438 H 0.83394 0.37402 0.06044 0.0
H439 H 0.79423 0.38854 0.17266 0.0
Eu440 Eu 0.47592 0.97351 0.29484 0.0
Eu441 Eu 0.51683 1.00973 0.34378 0.0
C442 C 0.53593 0.99723 0.26798 0.0
C443 C 0.44782 0.93368 0.22163 0.0
C444 C 0.47241 0.94122 0.20437 0.0
C445 C 0.43205 0.90637 0.17438 0.0
C446 C 0.47699 0.93118 0.17249 0.0
C447 C 0.4275 0.91647 0.20639 0.0
C448 C 0.45706 0.91331 0.15729 0.0
C449 C 0.44396 0.94319 0.25576 0.0
O450 O 0.50009 1.04417 0.30924 0.0
O451 O 0.47378 1.01806 0.27231 0.0
C452 C 0.48527 1.04235 0.28171 0.0
O453 O 0.44881 0.97837 0.34122 0.0
O454 O 0.54234 1.01115 0.38864 0.0
O455 O 0.53841 1.04858 0.35819 0.0
O456 O 0.47586 1.00736 0.37375 0.0
C457 C 0.45218 0.99333 0.36834 0.0
O458 O 0.5132 0.94319 0.30415 0.0
O459 O 0.53587 0.96536 0.34691 0.0
O460 O 0.54374 1.00444 0.29796 0.0
O461 O 0.46139 0.93234 0.27716 0.0
O462 O 0.44112 0.9704 0.25969 0.0
O463 O 0.51086 0.98684 0.26139 0.0
C464 C 0.58316 1.03877 0.38084 0.0
C465 C 0.59863 1.03673 0.41009 0.0
C466 C 0.62691 1.04535 0.35013 0.0
C467 C 0.62799 1.03937 0.40951 0.0
C468 C 0.59751 1.04237 0.35069 0.0
C469 C 0.64239 1.04425 0.37962 0.0
C470 C 0.55222 1.03629 0.38197 0.0
C471 C 0.5336 0.94383 0.32643 0.0
H472 H 0.48828 0.95455 0.21574 0.0
H473 H 0.41645 0.8924 0.16345 0.0
H474 H 0.49627 0.93722 0.15984 0.0
H475 H 0.40841 0.91044 0.21944 0.0
H476 H 0.58796 1.03363 0.43349 0.0
H477 H 0.63747 1.04915 0.32682 0.0
H478 H 0.63926 1.03903 0.43275 0.0
H479 H 0.58599 1.04342 0.32764 0.0
Eu480 Eu 0.25567 0.47355 0.38267 0.0
Eu481 Eu 0.21775 0.51046 0.43109 0.0
C482 C 0.23599 0.53637 0.36001 0.0
C483 C 0.28676 0.45542 0.30093 0.0
C484 C 0.28564 0.43314 0.27828 0.0
C485 C 0.28969 0.48903 0.25556 0.0
C486 C 0.28684 0.43868 0.24452 0.0
C487 C 0.28818 0.48348 0.28937 0.0
C488 C 0.2893 0.46664 0.23283 0.0
C489 C 0.28479 0.44921 0.33637 0.0
O490 O 0.1855 0.4783 0.40939 0.0
O491 O 0.21595 0.44628 0.38652 0.0
C492 C 0.19037 0.45291 0.39664 0.0
O493 O 0.25732 0.44747 0.42941 0.0
O494 O 0.1766 0.52771 0.44481 0.0
O495 O 0.21417 0.54126 0.47085 0.0
O496 O 0.22235 0.4699 0.4591 0.0
C497 C 0.24058 0.44925 0.45532 0.0
O498 O 0.28899 0.49251 0.4175 0.0
O499 O 0.25997 0.50834 0.45878 0.0
O500 O 0.2319 0.54178 0.39135 0.0
O501 O 0.29542 0.46813 0.3563 0.0
O502 O 0.2603 0.43984 0.34632 0.0
O503 O 0.2392 0.50996 0.35075 0.0
C504 C 0.17272 0.53691 0.50238 0.0
C505 C 0.15303 0.51496 0.5072 0.0
C506 C 0.16905 0.54903 0.56048 0.0
C507 C 0.14146 0.51011 0.53841 0.0
C508 C 0.18039 0.55404 0.5292 0.0
C509 C 0.14955 0.52688 0.56554 0.0
C510 C 0.18667 0.54134 0.47024 0.0
C511 C 0.28549 0.50198 0.44789 0.0
H512 H 0.28416 0.41142 0.28671 0.0
H513 H 0.29167 0.51073 0.24719 0.0
H514 H 0.28711 0.42093 0.22762 0.0
H515 H 0.28844 0.50112 0.30643 0.0
H516 H 0.14675 0.50132 0.487 0.0
H517 H 0.17605 0.56215 0.58081 0.0
H518 H 0.12609 0.49324 0.5412 0.0
H519 H 0.19566 0.571 0.52608 0.0
Eu520 Eu 1.01813 1.01504 0.1352 0.0
Eu521 Eu 0.98008 0.97515 0.18225 0.0
C522 C 0.95427 0.99617 0.11082 0.0
C523 C 1.08259 1.04442 0.09506 0.0
C524 C 1.09891 1.04372 0.12406 0.0
C525 C 0.12546 1.04373 0.06256 0.0
C526 C 0.12842 1.04368 0.12226 0.0
C527 C 1.09606 1.0441 0.06438 0.0
C528 C 0.14197 1.04377 0.09145 0.0
C529 C 1.05162 1.04326 0.09642 0.0
O530 O 1.01149 0.94335 0.15927 0.0
O531 O 1.04429 0.97462 0.13913 0.0
C532 C 1.03717 0.94865 0.14765 0.0
O533 O 1.04366 1.01333 0.18216 0.0
O534 O 0.96478 0.93375 0.1985 0.0
O535 O 0.94692 0.97172 0.21944 0.0
O536 O 1.02012 0.97867 0.21143 0.0
C537 C 1.0413 0.9964 0.20776 0.0
O538 O 0.99521 1.0475 0.16722 0.0
O539 O 0.98312 1.01777 0.20959 0.0
O540 O 0.94951 0.9861 0.14056 0.0
O541 O 1.04058 1.01887 0.08846 0.0
O542 O 1.0397 1.05438 0.12238 0.0
O543 O 0.97961 1.00547 0.10269 0.0
C544 C 0.95246 0.93278 0.25458 0.0
C545 C 0.97694 0.93937 0.27254 0.0
C546 C 0.9359 0.90367 0.29999 0.0
C547 C 0.981 0.928 0.30394 0.0
C548 C 0.93189 0.91504 0.2685 0.0
C549 C 0.96063 0.90984 0.31793 0.0
C550 C 0.94852 0.94426 0.22133 0.0
C551 C 0.9876 1.04366 0.19825 0.0
H552 H 1.08889 1.04332 0.14809 0.0
H553 H 0.13528 1.04449 0.03842 0.0
H554 H 0.14063 1.04384 0.14485 0.0
H555 H 1.08381 1.04423 0.0418 0.0
H556 H 0.99296 0.9532 0.26221 0.0
H557 H 0.91999 0.88948 0.30992 0.0
H558 H 1.0001 0.93345 0.31728 0.0
H559 H 0.91287 0.90978 0.2549 0.0
Eu560 Eu 0.47575 0.77354 0.88197 0.0
Eu561 Eu 0.51245 0.73818 0.93194 0.0
C562 C 0.49325 0.70989 0.86356 0.0
C563 C 0.43235 0.78049 0.80567 0.0
C564 C 0.44384 0.75975 0.78463 0.0
C565 C 0.38681 0.77391 0.77934 0.0
C566 C 0.42706 0.7467 0.76067 0.0
C567 C 0.40364 0.78718 0.80299 0.0
C568 C 0.39843 0.75382 0.75765 0.0
C569 C 0.44972 0.79437 0.83123 0.0
O570 O 0.54182 0.77615 0.92376 0.0
O571 O 0.5197 0.79509 0.87875 0.0
C572 C 0.54087 0.79526 0.90008 0.0
O573 O 0.47713 0.80413 0.92466 0.0
O574 O 0.55269 0.72126 0.94877 0.0
O575 O 0.5137 0.7057 0.97028 0.0
O576 O 0.5037 0.77759 0.96109 0.0
C577 C 0.48936 0.80049 0.95352 0.0
O578 O 0.44142 0.76288 0.91918 0.0
O579 O 0.46706 0.73305 0.95233 0.0
O580 O 0.51516 0.71456 0.8826 0.0
O581 O 0.43904 0.79483 0.86092 0.0
O582 O 0.47661 0.78828 0.8312 0.0
O583 O 0.47193 0.7273 0.86581 0.0
C584 C 0.55286 0.7102 0.00578 0.0
C585 C 0.56987 0.7337 0.01352 0.0
C586 C 0.55641 0.69427 0.06261 0.0
C587 C 0.58028 0.73729 0.04543 0.0
C588 C 0.54622 0.69054 0.03055 0.0
C589 C 0.57362 0.71769 0.07043 0.0
C590 C 0.54118 0.7064 0.9724 0.0
C591 C 0.44315 0.74625 0.94518 0.0
H592 H 0.46586 0.75377 0.78637 0.0
H593 H 0.36495 0.78033 0.77707 0.0
H594 H 0.43654 0.73144 0.74414 0.0
H595 H 0.39427 0.80293 0.819 0.0
H596 H 0.57519 0.74935 -0.00504 0.0
H597 H 0.55055 0.67896 0.0813 0.0
H598 H 0.5939 0.75528 0.05031 0.0
H599 H 0.53294 0.67238 0.02514 0.0
Eu600 Eu 0.7126 0.23134 0.63231 0.0
Eu601 Eu 0.74888 0.2709 0.67939 0.0
C602 C 0.77555 0.25109 0.60922 0.0
C603 C 0.70223 0.18356 0.56032 0.0
C604 C 0.69998 0.15407 0.5582 0.0
C605 C 0.73099 0.18381 0.51048 0.0
C606 C 0.713 0.13955 0.53246 0.0
C607 C 0.71822 0.19833 0.53651 0.0
C608 C 0.72839 0.15428 0.50815 0.0
C609 C 0.68958 0.19828 0.5887 0.0
O610 O 0.71698 0.30186 0.65571 0.0
O611 O 0.68415 0.27016 0.63663 0.0
C612 C 0.6911 0.29626 0.64488 0.0
O613 O 0.68552 0.23194 0.6784 0.0
O614 O 0.76486 0.31279 0.69257 0.0
O615 O 0.7811 0.2757 0.71737 0.0
O616 O 0.70897 0.2661 0.70871 0.0
C617 C 0.68776 0.24838 0.70454 0.0
O618 O 0.73684 0.19999 0.66478 0.0
O619 O 0.74573 0.22931 0.70823 0.0
O620 O 0.7805 0.25657 0.64037 0.0
O621 O 0.69783 0.18942 0.61757 0.0
O622 O 0.68842 0.22583 0.58703 0.0
O623 O 0.74943 0.24631 0.59977 0.0
C624 C 0.7763 0.31672 0.74941 0.0
C625 C 0.75347 0.33481 0.75574 0.0
C626 C 0.79093 0.32107 0.80658 0.0
C627 C 0.74945 0.34597 0.78723 0.0
C628 C 0.79511 0.31016 0.77498 0.0
C629 C 0.76796 0.339 0.81312 0.0
C630 C 0.78 0.30323 0.71702 0.0
C631 C 0.74285 0.20351 0.6963 0.0
H632 H 0.68804 0.14225 0.57645 0.0
H633 H 0.74259 0.19565 0.49197 0.0
H634 H 0.71007 1.11683 0.53087 0.0
H635 H 0.7208 0.22108 0.53786 0.0
H636 H 0.73854 0.34016 0.7365 0.0
H637 H 0.80539 0.31497 0.82598 0.0
H638 H 0.73187 0.36016 0.79122 0.0
H639 H 0.81276 0.29609 0.77065 0.0
H640 H 0.532 0.34984 0.08628 0.0
H641 H 0.69721 0.39145 0.09525 0.0
H642 H 0.5978 0.28751 0.07789 0.0
H643 H 0.63335 0.45216 0.06906 0.0
H644 H 0.66116 0.35401 0.09515 0.0
H645 H 0.56802 0.38734 0.08616 0.0
C646 C 0.55402 0.34382 0.08469 0.0
C647 C 0.56145 0.31494 0.08229 0.0
C648 C 0.6549 0.37549 0.08951 0.0
C649 C 0.6036 0.35879 0.08232 0.0
C650 C 0.67558 0.39716 0.08974 0.0
C651 C 0.66872 0.42556 0.08235 0.0
C652 C 0.6265 0.38178 0.08239 0.0
C653 C 0.64002 0.43089 0.07505 0.0
C654 C 0.5747 0.36551 0.08443 0.0
C655 C 0.59067 0.30917 0.0799 0.0
N656 N 0.62018 0.40946 0.07551 0.0
N657 N 0.61043 0.33066 0.08024 0.0
H658 H 0.65508 0.809 0.37997 0.0
H659 H 0.55391 0.91073 0.27511 0.0
H660 H 0.67719 0.83361 0.28099 0.0
H661 H 0.56576 0.92431 0.3792 0.0
H662 H 0.59277 0.87607 0.27596 0.0
H663 H 0.61703 0.84454 0.3797 0.0
C664 C 0.65213 0.82191 0.35818 0.0
C665 C 0.67001 0.81826 0.33064 0.0
C666 C 0.58678 0.88649 0.29868 0.0
C667 C 0.62511 0.85879 0.32973 0.0
C668 C 0.56431 0.90622 0.2983 0.0
C669 C 0.55602 0.92068 0.32718 0.0
C670 C 0.60098 0.88019 0.32835 0.0
C671 C 0.57104 0.91388 0.35626 0.0
C672 C 0.63026 0.84229 0.35806 0.0
C673 C 0.66451 0.83574 0.30308 0.0
N674 N 0.5923 0.89411 0.35616 0.0
N675 N 0.64256 0.85475 0.30319 0.0
H676 H 0.19799 0.89019 0.59021 0.0
H677 H 1.03215 0.84931 0.59311 0.0
H678 H 0.1326 0.95242 0.5776 0.0
H679 H 1.09694 0.78752 0.57465 0.0
H680 H 1.06833 0.88665 0.59329 0.0
H681 H 0.16186 0.85278 0.59031 0.0
C682 C 0.17604 0.89621 0.58773 0.0
C683 C 0.16877 0.92504 0.58407 0.0
C684 C 1.07476 0.86496 0.5893 0.0
C685 C 0.12645 0.8813 0.58434 0.0
C686 C 1.05399 0.84335 0.58937 0.0
C687 C 1.06106 0.81467 0.58405 0.0
C688 C 1.10345 0.85835 0.58436 0.0
C689 C 1.09007 0.80901 0.57899 0.0
C690 C 0.15529 0.87458 0.58762 0.0
C691 C 0.13963 0.93081 0.58061 0.0
N692 N 1.10995 0.8304 0.57949 0.0
N693 N 0.11979 0.90938 0.58105 0.0
H694 H 1.05975 0.41393 0.77601 0.0
H695 H 0.15675 0.30774 0.87971 0.0
H696 H 1.06694 0.42347 0.88129 0.0
H697 H 0.18232 0.33702 0.78361 0.0
H698 H 0.11892 0.34358 0.88008 0.0
H699 H 1.09878 0.37964 0.77722 0.0
C700 C 1.06922 0.40865 0.79952 0.0
C701 C 1.05952 0.42186 0.82862 0.0
C702 C 0.13288 0.34229 0.85897 0.0
C703 C 1.1047 0.38163 0.83018 0.0
C704 C 0.15462 0.32174 0.85871 0.0
C705 C 0.17338 0.31927 0.83177 0.0
C706 C 0.1288 0.36019 0.83155 0.0
C707 C 0.16894 0.33814 0.80523 0.0
C708 C 1.09178 0.3891 0.80012 0.0
C709 C 1.07336 0.41406 0.85815 0.0
N710 N 0.14712 0.35729 0.80562 0.0
N711 N 1.09477 0.39439 0.85821 0.0
H712 H 0.67218 0.92202 0.84584 0.0
H713 H 0.57319 0.81687 0.95111 0.0
H714 H 0.65222 0.93833 0.94769 0.0
H715 H 0.55946 0.82844 0.847 0.0
H716 H 0.60737 0.85627 0.95025 0.0
H717 H 0.63649 0.88377 0.84544 0.0
C718 C 0.66023 0.91781 0.86812 0.0
C719 C 0.66531 0.9341 0.89673 0.0
C720 C 0.59701 0.85018 0.92751 0.0
C721 C 0.62452 0.88898 0.89671 0.0
C722 C 0.57749 0.8274 0.9279 0.0
C723 C 0.56314 0.81878 0.89904 0.0
C724 C 0.60321 0.86452 0.89787 0.0
C725 C 0.56976 0.83397 0.86994 0.0
C726 C 0.63976 0.8958 0.86784 0.0
C727 C 0.64903 0.92696 0.92481 0.0
N728 N 0.58933 0.85564 0.87005 0.0
N729 N 0.62987 0.90498 0.92418 0.0
H730 H 0.5292 0.38959 0.65751 0.0
H731 H 0.69672 0.35513 0.64924 0.0
H732 H 0.59225 0.45315 0.63638 0.0
H733 H 0.63293 0.29036 0.63929 0.0
H734 H 0.65916 0.39114 0.64946 0.0
H735 H 0.56653 0.35324 0.65586 0.0
C736 C 0.55076 0.39605 0.65243 0.0
C737 C 0.55708 0.42488 0.6468 0.0
C738 C 0.65333 0.36906 0.64712 0.0
C739 C 0.60068 0.3828 0.64551 0.0
C740 C 0.67492 0.34833 0.64697 0.0
C741 C 0.66846 0.31926 0.6439 0.0
C742 C 0.62458 0.36104 0.64487 0.0
C743 C 0.63939 0.31229 0.64134 0.0
C744 C 0.57221 0.37514 0.65148 0.0
C745 C 0.58585 0.43143 0.64058 0.0
N746 N 0.61883 0.33274 0.6421 0.0
N747 N 0.60626 0.41087 0.64033 0.0
H748 H 1.03071 0.35409 0.38734 0.0
H749 H 0.19636 0.39536 0.38693 0.0
H750 H 1.096 0.29222 0.4027 0.0
H751 H 0.13138 0.45721 0.40419 0.0
H752 H 0.16026 0.35798 0.38683 0.0
H753 H 1.06673 0.39162 0.38765 0.0
C754 C 1.05262 0.34817 0.39052 0.0
C755 C 1.05989 0.3194 0.39481 0.0
C756 C 0.15376 0.37968 0.39056 0.0
C757 C 1.10208 0.36329 0.39501 0.0
C758 C 0.17449 0.40132 0.39045 0.0
C759 C 0.16735 0.43005 0.39539 0.0
C760 C 0.12503 0.38629 0.39511 0.0
C761 C 0.13831 0.4357 0.40016 0.0
C762 C 1.0733 0.36988 0.39087 0.0
C763 C 1.08897 0.31378 0.39918 0.0
N764 N 0.11845 0.41427 0.39965 0.0
N765 N 1.10876 0.33526 0.39892 0.0
H766 H 0.19993 0.85661 0.15304 0.0
H767 H 1.03187 0.88968 0.1534 0.0
H768 H 0.13676 0.79199 0.13769 0.0
H769 H 1.09499 0.95455 0.13912 0.0
H770 H 1.06962 0.85381 0.15231 0.0
H771 H 0.1622 0.89253 0.1526 0.0
C772 C 0.17826 0.84982 0.14944 0.0
C773 C 0.17202 0.82083 0.14507 0.0
C774 C 1.07524 0.87589 0.14931 0.0
C775 C 0.12795 0.86244 0.14524 0.0
C776 C 1.05354 0.89653 0.14992 0.0
C777 C 1.05975 0.92559 0.14606 0.0
C778 C 1.10386 0.88401 0.14545 0.0
C779 C 1.08868 0.93264 0.1419 0.0
C780 C 0.15657 0.87049 0.14921 0.0
C781 C 0.14309 0.81386 0.14082 0.0
N782 N 1.10934 0.91229 0.14192 0.0
N783 N 0.12245 0.83422 0.14122 0.0
H784 H 0.33686 0.2541 0.85332 0.0
H785 H 0.38741 0.24347 0.04311 0.0
H786 H 0.27855 0.24025 0.93349 0.0
H787 H 0.44486 0.23774 0.96089 0.0
H788 H 0.34759 0.24483 0.00419 0.0
H789 H 0.37627 0.25114 0.89248 0.0
C790 C 0.33218 0.25051 0.87913 0.0
C791 C 0.30391 0.24743 0.88971 0.0
C792 C 0.36888 0.24311 -0.0054 0.0
C793 C 0.34973 0.24409 0.93542 0.0
C794 C 0.39178 0.24227 0.01693 0.0
C795 C 0.41992 0.24019 0.00565 0.0
C796 C 0.37377 0.24235 0.96031 0.0
C797 C 0.42378 0.23902 0.97113 0.0
C798 C 0.35488 0.24871 0.9016 0.0
C799 C 0.29972 0.2427 0.92379 0.0
N800 N 0.40121 0.24028 0.94995 0.0
N801 N 0.32216 0.24133 0.9452 0.0
H802 H 0.73241 0.58825 0.10812 0.0
H803 H 0.73799 0.6409 0.29745 0.0
H804 H 0.74756 0.5303 0.18823 0.0
H805 H 0.74648 0.6969 0.21408 0.0
H806 H 0.73806 0.60022 0.2593 0.0
H807 H 0.73372 0.62767 0.14728 0.0
C808 C 0.73594 0.58363 0.13395 0.0
C809 C 0.73989 0.55545 0.14446 0.0
C810 C 0.74004 0.6214 0.24936 0.0
C811 C 0.74122 0.60141 0.19031 0.0
C812 C 0.74002 0.64478 0.27123 0.0
C813 C 0.74245 0.67278 0.25937 0.0
C814 C 0.742 0.62573 0.21499 0.0
C815 C 0.74481 0.67599 0.22482 0.0
C816 C 0.73678 0.60637 0.15644 0.0
C817 C 0.74446 0.55142 0.1786 0.0
N818 N 0.74433 0.65305 0.20416 0.0
N819 N 0.74484 0.57392 0.20011 0.0
H820 H 0.45325 1.01092 0.43392 0.0
H821 H 0.28497 0.99795 0.46369 0.0
H822 H 0.39567 0.97894 0.36041 0.0
H823 H 0.34394 1.0019 0.54453 0.0
H824 H 0.32482 0.99654 0.42498 0.0
H825 H 0.41381 1.01294 0.47359 0.0
C826 C 0.43239 1.00434 0.42595 0.0
C827 C 0.42819 0.99464 0.39338 0.0
C828 C 0.32915 0.99786 0.45116 0.0
C829 C 0.38227 0.99736 0.4392 0.0
C830 C 0.30626 0.99887 0.47346 0.0
C831 C 0.31069 1.00026 0.50784 0.0
C832 C 0.35719 0.99865 0.4628 0.0
C833 C 0.33914 1.00095 0.51846 0.0
C834 C 0.40978 1.00546 0.44879 0.0
C835 C 0.40034 0.98644 0.38503 0.0
N836 N 0.36108 1.00032 0.49621 0.0
N837 N 0.37869 0.98817 0.40748 0.0
H838 H 0.98932 0.65063 0.60468 0.0
H839 H 1.00252 0.5985 0.79351 0.0
H840 H 0.9947 0.7092 0.68589 0.0
H841 H 0.97303 0.54407 0.71543 0.0
H842 H 1.00295 0.63848 0.75467 0.0
H843 H 0.98687 0.61131 0.64418 0.0
C844 C 0.99011 0.65538 0.63079 0.0
C845 C 0.99233 0.68371 0.64155 0.0
C846 C 0.99622 0.61785 0.746 0.0
C847 C 0.98966 0.63792 0.68767 0.0
C848 C 0.99593 0.59484 0.76829 0.0
C849 C 0.98749 0.56748 0.7582 0.0
C850 C 0.98855 0.61383 0.71274 0.0
C851 C 0.97942 0.56456 0.72482 0.0
C852 C 0.98859 0.63272 0.65347 0.0
C853 C 0.99307 0.68797 0.67604 0.0
N854 N 0.98037 0.58715 0.7035 0.0
N855 N 0.99193 0.66553 0.69761 0.0
H856 H 0.78767 1.01176 0.01561 0.0
H857 H 0.95638 1.00293 0.04259 0.0
H858 H 0.84452 0.99194 0.9359 0.0
H859 H 0.89648 0.99201 0.12172 0.0
H860 H 0.9168 1.0045 0.00314 0.0
H861 H 0.82767 1.01049 0.05411 0.0
C862 C 0.80856 1.00745 0.00596 0.0
C863 C 0.81234 1.00215 0.97199 0.0
C864 C 0.91229 1.00175 0.02913 0.0
C865 C 0.85901 1.00073 0.01676 0.0
C866 C 0.93499 1.00092 0.05183 0.0
C867 C 0.93016 0.99724 0.08594 0.0
C868 C 0.88413 0.99949 0.04028 0.0
C869 C 0.90163 0.99474 0.0959 0.0
C870 C 0.83151 1.00654 0.02819 0.0
C871 C 0.84024 0.9963 0.96163 0.0
N872 N 0.87997 0.99612 0.07345 0.0
N873 N 0.8623 0.99595 0.98368 0.0
H874 H 0.53776 0.68042 0.83538 0.0
H875 H 0.44781 0.55694 0.74876 0.0
H876 H 0.44676 0.68246 0.83646 0.0
H877 H 0.52558 0.58779 0.70639 0.0
H878 H 0.44871 0.59696 0.78803 0.0
H879 H 0.53573 0.64099 0.79563 0.0
C880 C 0.51732 0.67255 0.82752 0.0
C881 C 0.49241 0.68514 0.83959 0.0
C882 C 0.46553 0.595 0.77006 0.0
C883 C 0.48994 0.63905 0.79408 0.0
C884 C 0.46505 0.57206 0.74756 0.0
C885 C 0.48645 0.56887 0.72363 0.0
C886 C 0.4881 0.61462 0.76969 0.0
C887 C 0.50832 0.58934 0.72385 0.0
C888 C 0.51619 0.65001 0.80462 0.0
C889 C 0.46659 0.67373 0.828 0.0
N890 N 0.50874 0.61089 0.74651 0.0
N891 N 0.46604 0.65135 0.80639 0.0
H892 H 0.83299 0.25399 0.62155 0.0
H893 H 0.8848 0.25046 0.43162 0.0
H894 H 0.77457 0.24559 0.5406 0.0
H895 H 0.94111 0.24074 0.51431 0.0
H896 H 0.84449 0.25106 0.47011 0.0
H897 H 0.8724 0.25186 0.58238 0.0
C898 C 0.82828 0.25177 0.59555 0.0
C899 C 0.79998 0.25004 0.58478 0.0
C900 C 0.86564 0.24866 0.47986 0.0
C901 C 0.84589 0.24768 0.53896 0.0
C902 C 0.88883 0.24827 0.45778 0.0
C903 C 0.9168 0.24532 0.46933 0.0
C904 C 0.87011 0.24651 0.51416 0.0
C905 C 0.92019 0.2428 0.50382 0.0
C906 C 0.851 0.25047 0.57305 0.0
C907 C 0.79579 0.24707 0.55043 0.0
N908 N 0.8974 0.24361 0.52473 0.0
N909 N 0.81828 0.24612 0.52897 0.0
H910 H 0.24021 0.53397 0.29148 0.0
H911 H 0.25031 0.70351 0.26489 0.0
H912 H 0.23536 0.59432 0.37093 0.0
H913 H 0.23971 0.64525 0.18405 0.0
H914 H 0.24837 0.66358 0.30348 0.0
H915 H 0.24312 0.57347 0.25197 0.0
C916 C 0.23969 0.55544 0.30078 0.0
C917 C 0.23738 0.56042 0.33501 0.0
C918 C 0.24659 0.6594 0.27731 0.0
C919 C 0.24105 0.60639 0.28922 0.0
C920 C 0.24787 0.68235 0.25504 0.0
C921 C 0.24537 0.67817 0.2207 0.0
C922 C 0.24296 0.63152 0.26564 0.0
C923 C 0.2419 0.64987 0.21006 0.0
C924 C 0.24137 0.57812 0.27803 0.0
C925 C 0.23697 0.58905 0.34503 0.0
N926 N 0.24087 0.62787 0.23223 0.0
N927 N 0.23886 0.61065 0.3225 0.0
H928 H 0.77525 0.74108 0.43477 0.0
H929 H 0.9446 0.73866 0.46049 0.0
H930 H 0.83447 0.75389 0.35527 0.0
H931 H 0.88614 0.74644 0.54151 0.0
H932 H 0.90469 0.74009 0.42189 0.0
H933 H 0.81499 0.73917 0.47372 0.0
C934 C 0.79654 0.74357 0.42534 0.0
C935 C 0.8011 0.74784 0.39127 0.0
C936 C 0.90049 0.74137 0.4481 0.0
C937 C 0.84741 0.74526 0.43645 0.0
C938 C 0.9234 0.74038 0.47036 0.0
C939 C 0.91913 0.74225 0.50474 0.0
C940 C 0.87258 0.74395 0.45986 0.0
C941 C 0.89083 0.74482 0.51545 0.0
C942 C 0.81936 0.74246 0.44778 0.0
C943 C 0.82953 0.75071 0.38107 0.0
N944 N 0.86887 0.74546 0.4933 0.0
N945 N 0.85134 0.74926 0.40333 0.0
H946 H 0.2489 0.20062 0.71035 0.0
H947 H 0.24893 1.03061 0.68763 0.0
H948 H 0.24333 0.14356 0.79308 0.0
H949 H 0.23372 1.08913 0.60813 0.0
H950 H 0.25097 1.07083 0.72628 0.0
H951 H 0.24778 0.15993 0.67291 0.0
C952 C 0.24772 0.17957 0.72085 0.0
C953 C 0.24637 0.17595 0.75536 0.0
C954 C 0.24718 1.0749 0.70038 0.0
C955 C 0.24501 0.12841 0.71176 0.0
C956 C 0.24605 1.05182 0.67814 0.0
C957 C 0.24106 1.05607 0.64417 0.0
C958 C 0.24372 1.10285 0.68886 0.0
C959 C 0.23751 1.0844 0.63386 0.0
C960 C 0.24692 0.15618 0.69924 0.0
C961 C 0.24454 0.14775 0.76687 0.0
N962 N 0.23903 1.1064 0.65584 0.0
N963 N 0.24402 0.1253 0.74532 0.0
H964 H 0.8305 0.4562 0.02313 0.0
H965 H 0.92565 0.53913 0.89073 0.0
H966 H 0.80268 0.53542 0.98212 0.0
H967 H 0.92237 0.44804 0.89313 0.0
H968 H 0.88609 0.54056 0.93026 0.0
H969 H 0.86923 0.45518 0.98268 0.0
C970 C 0.83265 0.47363 0.00594 0.0
C971 C 0.81307 0.49607 0.00657 0.0
C972 C 0.89398 0.52025 0.92213 0.0
C973 C 0.85826 0.4951 0.95975 0.0
C974 C 0.91673 0.51936 0.89951 0.0
C975 C 0.92762 0.49338 0.88808 0.0
C976 C 0.88219 0.49498 0.93458 0.0
C977 C 0.91483 0.46861 0.90078 0.0
C978 C 0.85478 0.47288 0.98258 0.0
C979 C 0.81708 0.5177 0.98294 0.0
N980 N 0.89324 0.47003 0.9234 0.0
N981 N 0.83922 0.51684 0.96096 0.0
H982 H 0.49623 1.09905 0.29542 0.0
H983 H 0.49181 0.15134 0.10615 0.0
H984 H 0.47238 1.04438 0.21501 0.0
H985 H 0.48943 0.21011 0.18732 0.0
H986 H 0.4887 1.11199 0.14548 0.0
H987 H 0.49737 0.13935 0.25689 0.0
C988 C 0.49098 1.09542 0.26977 0.0
C989 C 0.48386 1.06792 0.25891 0.0
C990 C 0.48884 0.13345 0.15481 0.0
C991 C 0.48585 1.11453 0.21389 0.0
C992 C 0.49074 0.15614 0.13223 0.0
C993 C 0.49092 0.18454 0.14301 0.0
C994 C 0.48752 0.13869 0.18898 0.0
C995 C 0.48933 0.18883 0.17747 0.0
C996 C 0.49169 0.11859 0.24766 0.0
C997 C 0.4776 1.06498 0.22501 0.0
N998 N 0.48791 0.16637 0.19899 0.0
N999 N 0.47897 1.0877 0.20395 0.0
H1000 H 0.28524 0.5068 0.5159 0.0
H1001 H 0.45463 0.50744 0.54219 0.0
H1002 H 0.34333 0.49913 0.43453 0.0
H1003 H 0.39516 0.49035 0.62032 0.0
H1004 H 0.41499 0.50922 0.50279 0.0
H1005 H 0.32534 0.50588 0.55421 0.0
C1006 C 0.3064 0.50523 0.50589 0.0
C1007 C 0.31049 0.50321 0.4715 0.0
C1008 C 0.41059 0.50507 0.52856 0.0
C1009 C 0.35733 0.50215 0.51607 0.0
C1010 C 0.43333 0.50411 0.55124 0.0
C1011 C 0.42865 0.49864 0.58504 0.0
C1012 C 0.38253 0.50104 0.53948 0.0
C1013 C 0.40023 0.49451 0.59474 0.0
C1014 C 0.32944 0.50453 0.52799 0.0
C1015 C 0.33879 0.50084 0.46061 0.0
N1016 N 0.37855 0.49595 0.57236 0.0
N1017 N 0.36089 0.50053 0.48261 0.0
H1018 H 0.98982 0.21329 0.29151 0.0
H1019 H 0.9817 1.04348 0.26626 0.0
H1020 H 0.99456 0.15365 0.37172 0.0
H1021 H 0.99188 1.10157 0.18512 0.0
H1022 H 0.9831 1.08359 0.30465 0.0
H1023 H 0.98765 0.1735 0.25244 0.0
C1024 C 0.99047 0.1919 0.30108 0.0
C1025 C 0.99252 0.18724 0.3354 0.0
C1026 C 0.98491 1.08769 0.27846 0.0
C1027 C 0.98973 0.14086 0.29006 0.0
C1028 C 0.98394 1.06464 0.25629 0.0
C1029 C 0.98648 1.06871 0.22192 0.0
C1030 C 0.98825 1.11557 0.26665 0.0
C1031 C 0.98969 1.09701 0.21115 0.0
C1032 C 0.98922 0.16904 0.27857 0.0
C1033 C 0.99313 0.15869 0.34574 0.0
N1034 N 0.9904 0.1191 0.23321 0.0
N1035 N 0.99167 0.13688 0.32341 0.0
H1036 H 0.33479 0.74796 0.12128 0.0
H1037 H 0.38687 0.75853 0.93275 0.0
H1038 H 0.27601 0.74598 0.04019 0.0
H1039 H 0.44122 0.7298 0.01099 0.0
H1040 H 0.34677 0.75806 0.97142 0.0
H1041 H 0.37408 0.74564 0.08183 0.0
C1042 C 0.32999 0.74709 0.09519 0.0
C1043 C 0.30161 0.74716 0.08444 0.0
C1044 C 0.3674 0.75168 0.98014 0.0
C1045 C 0.34735 0.74482 0.03839 0.0
C1046 C 0.39047 0.75192 0.95797 0.0
C1047 C 0.41782 0.74396 0.96819 0.0
C1048 C 0.37142 0.74405 0.0134 0.0
C1049 C 0.42072 0.73582 0.00154 0.0
C1050 C 0.35262 0.74566 0.07256 0.0
C1051 C 0.29727 0.74589 0.05 0.0
N1052 N 0.3981 0.73635 0.02277 0.0
N1053 N 0.31969 0.74503 0.02842 0.0
H1054 H 0.74473 0.14592 0.68152 0.0
H1055 H 0.72762 1.0934 0.87009 0.0
H1056 H 0.74298 0.20275 0.76457 0.0
H1057 H 0.75096 1.0364 0.79181 0.0
H1058 H 0.72979 0.13293 0.83101 0.0
H1059 H 0.74409 1.10554 0.72003 0.0
C1060 C 0.7444 0.15005 0.70778 0.0
C1061 C 0.74416 0.17819 0.71945 0.0
C1062 C 0.73445 1.11182 0.82225 0.0
C1063 C 0.74285 0.13142 0.76422 0.0
C1064 C 0.73312 1.08901 0.84467 0.0
C1065 C 0.73909 1.06107 0.83465 0.0
C1066 C 0.74148 1.10712 0.78893 0.0
C1067 C 0.7462 1.05732 0.80106 0.0
C1068 C 0.744 0.12684 0.72987 0.0
C1069 C 0.74348 0.18172 0.75404 0.0
N1070 N 0.74704 1.07985 0.7796 0.0
N1071 N 0.74267 0.15887 0.77489 0.0
H1072 H 0.58163 0.18058 0.85914 0.0
H1073 H 0.67747 0.28653 0.75333 0.0
H1074 H 0.60526 0.26475 0.89034 0.0
H1075 H 0.6513 0.2044 0.71775 0.0
H1076 H 0.64795 0.27988 0.80187 0.0
H1077 H 0.60453 0.18945 0.8059 0.0
C1078 C 0.59163 0.20091 0.85479 0.0
C1079 C 0.59162 0.22192 0.87928 0.0
C1080 C 0.6484 0.26336 0.78337 0.0
C1081 C 0.61761 0.23227 0.81843 0.0
C1082 C 0.66528 0.26716 0.7556 0.0
C1083 C 0.66702 0.24587 0.73159 0.0
C1084 C 0.6333 0.23796 0.78746 0.0
C1085 C 0.65055 0.22135 0.73568 0.0
C1086 C 0.60451 0.20602 0.82434 0.0
C1087 C 0.60448 0.24803 0.87212 0.0
N1088 N 0.63458 0.2179 0.76334 0.0
N1089 N 0.61707 0.25238 0.84246 0.0
H1090 H 0.80833 0.85476 0.11702 0.0
H1091 H 0.70051 0.93855 0.00523 0.0
H1092 H 0.71797 0.85023 0.13186 0.0
H1093 H 0.78383 0.91585 0.97105 0.0
H1094 H 0.7068 0.90757 0.05285 0.0
H1095 H 0.80034 0.87835 0.06434 0.0
C1096 C 0.7868 0.85841 0.10912 0.0
C1097 C 0.76379 0.85062 0.12913 0.0
C1098 C 0.72357 0.90911 0.03474 0.0
C1099 C 0.75461 0.87814 0.06909 0.0
C1100 C 0.72004 0.92684 0.00764 0.0
C1101 C 0.74176 0.92984 0.98433 0.0
C1102 C 0.7492 0.8947 0.03886 0.0
C1103 C 0.76656 0.91407 0.98847 0.0
C1104 C 0.78229 0.87197 0.07905 0.0
C1105 C 0.73639 0.8564 0.1177 0.0
N1106 N 0.76977 0.89742 0.01553 0.0
N1107 N 0.73258 0.87004 0.08858 0.0
H1108 H 1.05236 0.95739 0.25557 0.0
H1109 H 0.13632 1.06518 0.36826 0.0
H1110 H 1.07717 1.04044 0.22143 0.0
H1111 H 0.13669 0.97492 0.38531 0.0
H1112 H 1.11441 1.05694 0.31461 0.0
H1113 H 1.08274 0.96351 0.30365 0.0
C1114 C 1.06442 0.97681 0.25805 0.0
C1115 C 1.06211 0.99854 0.23464 0.0
C1116 C 0.11954 1.03895 0.33001 0.0
C1117 C 1.09663 1.00579 0.28974 0.0
C1118 C 0.13213 1.04361 0.36063 0.0
C1119 C 0.13814 1.02072 0.38156 0.0
C1120 C 1.11259 1.01125 0.32041 0.0
C1121 C 0.13182 0.99327 0.37042 0.0
C1122 C 1.08182 0.98025 0.28544 0.0
C1123 C 1.07836 1.02317 0.23893 0.0
N1124 N 0.11914 0.98933 0.34075 0.0
N1125 N 1.09467 1.02631 0.26626 0.0
H1126 H 0.94089 0.33597 0.46416 0.0
H1127 H 1.0072 0.39612 0.63175 0.0
H1128 H 1.02321 0.31367 0.50171 0.0
H1129 H 0.91934 0.40609 0.60574 0.0
H1130 H 1.01533 0.37224 0.57938 0.0
H1131 H 0.93459 0.36789 0.51127 0.0
C1132 C 0.95776 0.33806 0.48204 0.0
C1133 C 0.98252 0.322 0.47918 0.0
C1134 C 0.99429 0.3798 0.58499 0.0
C1135 C 0.97545 0.35828 0.53293 0.0
C1136 C 0.98967 0.39364 0.61481 0.0
C1137 C 0.96251 0.40305 0.6232 0.0
C1138 C 0.9716 0.37526 0.56329 0.0
C1139 C 0.94052 0.39882 0.60044 0.0
C1140 C 0.9541 0.35615 0.50898 0.0
C1141 C 1.00365 0.32541 0.50312 0.0
N1142 N 0.94552 0.38512 0.57154 0.0
N1143 N 0.99959 0.34309 0.52901 0.0
H1144 H 0.59325 1.04213 0.07466 0.0
H1145 H 0.59305 1.01 0.26786 0.0
H1146 H 0.67053 1.02349 0.12666 0.0
H1147 H 0.52132 0.998 0.20334 0.0
H1148 H 0.62228 1.02114 0.21917 0.0
H1149 H 0.56671 1.03335 0.12513 0.0
C1150 C 0.60466 1.03647 0.09685 0.0
C1151 C 0.6341 1.03352 0.09652 0.0
C1152 C 0.60015 1.0159 0.21592 0.0
C1153 C 0.60381 1.02308 0.15436 0.0
C1154 C 0.58351 1.00958 0.24359 0.0
C1155 C 0.55476 1.00288 0.23967 0.0
C1156 C 0.58769 1.01597 0.18446 0.0
C1157 C 0.54341 1.00274 0.20768 0.0
C1158 C 0.58949 1.03122 0.12558 0.0
C1159 C 0.64778 1.02573 0.12589 0.0
N1160 N 0.55984 1.00932 0.18145 0.0
N1161 N 0.6325 1.02078 0.15377 0.0
H1162 H 0.5067 0.37747 0.83285 0.0
H1163 H 0.44532 0.3311 0.00885 0.0
H1164 H 0.42364 0.40083 0.86726 0.0
H1165 H 0.52547 0.3036 0.96942 0.0
H1166 H 0.43854 0.36047 0.95973 0.0
H1167 H 0.51534 0.35379 0.8852 0.0
C1168 C 0.49034 0.37782 0.85155 0.0
C1169 C 0.46439 0.39116 0.84564 0.0
C1170 C 0.45767 0.34812 0.96199 0.0
C1171 C 0.47403 0.36371 0.90566 0.0
C1172 C 0.46162 0.33146 -0.00992 0.0
C1173 C 0.48589 0.31468 -0.00689 0.0
C1174 C 0.47819 0.34803 0.93691 0.0
C1175 C 0.50628 0.31594 0.968 0.0
C1176 C 0.49523 0.36415 0.88141 0.0
C1177 C 0.44381 0.3905 0.87062 0.0
N1178 N 0.5019 0.33219 0.94094 0.0
N1179 N 0.44905 0.37696 0.89955 0.0
H1180 H 0.14908 0.20807 0.76189 0.0
H1181 H 1.10476 0.27187 0.58661 0.0
H1182 H 0.18294 0.28525 0.72032 0.0
H1183 H 1.07824 0.1893 0.62055 0.0
H1184 H 0.12806 0.2799 0.63935 0.0
H1185 H 1.1175 0.20372 0.71418 0.0
C1186 C 0.14958 0.22429 0.743 0.0
C1187 C 0.16886 0.24687 0.74486 0.0
C1188 C 1.11702 0.26006 0.63539 0.0
C1189 C 0.13305 0.24199 0.69038 0.0
C1190 C 1.10355 0.25553 0.60531 0.0
C1191 C 1.08964 0.22981 0.59908 0.0
C1192 C 1.11667 0.23871 0.6595 0.0
C1193 C 1.08912 0.20926 0.62413 0.0
C1194 C 0.13169 0.22172 0.71572 0.0
C1195 C 0.16869 0.26726 0.71968 0.0
N1196 N 1.10257 0.2141 0.65322 0.0
N1197 N 0.15121 0.26423 0.69344 0.0
H1198 H 0.284 0.91045 0.50882 0.0
H1199 H 0.21879 0.85223 0.34022 0.0
H1200 H 0.20153 0.93411 0.47279 0.0
H1201 H 0.30849 0.85583 0.35986 0.0
H1202 H 0.20998 0.87413 0.39376 0.0
H1203 H 0.29075 0.88142 0.45951 0.0
C1204 C 0.26715 0.90921 0.4908 0.0
C1205 C 0.24225 0.92489 0.49473 0.0
C1206 C 0.23156 0.86999 0.38633 0.0
C1207 C 0.24989 0.89182 0.43845 0.0
C1208 C 0.23666 0.85768 0.35567 0.0
C1209 C 0.26448 0.85245 0.34523 0.0
C1210 C 0.25439 0.87687 0.4069 0.0
C1211 C 0.28669 0.85922 0.36687 0.0
C1212 C 0.2711 0.89279 0.4626 0.0
C1213 C 0.22117 0.92258 0.47056 0.0
N1214 N 0.28117 0.87116 0.39663 0.0
N1215 N 0.2255 0.90642 0.44336 0.0
H1216 H 0.12789 0.75352 0.40434 0.0
H1217 H 0.14578 0.71545 0.21419 0.0
H1218 H 1.06875 0.69989 0.35251 0.0
H1219 H 0.19115 0.78291 0.26328 0.0
H1220 H 1.11669 0.70934 0.26372 0.0
H1221 H 0.15151 0.76393 0.35223 0.0
C1222 C 0.11996 0.74388 0.38191 0.0
C1223 C 1.09653 0.72567 0.38266 0.0
C1224 C 0.13284 0.72565 0.26341 0.0
C1225 C 0.12331 0.73755 0.32289 0.0
C1226 C 0.14942 0.72919 0.23516 0.0
C1227 C 0.17116 0.7495 0.23469 0.0
C1228 C 0.13824 0.74243 0.29133 0.0
C1229 C 0.17486 0.76675 0.26256 0.0
C1230 C 0.13329 0.74999 0.35214 0.0
C1231 C 1.08676 0.7141 0.35287 0.0
N1232 N 0.15877 0.76262 0.2898 0.0
N1233 N 1.10037 0.72005 0.32413 0.0
H1234 H 0.24221 0.38672 0.65244 0.0
H1235 H 0.2793 0.40623 0.4627 0.0
H1236 H 0.2919 0.32511 0.59984 0.0
H1237 H 0.20853 0.44628 0.51102 0.0
H1238 H 0.28642 0.37709 0.51215 0.0
H1239 H 0.23244 0.41072 0.60048 0.0
C1240 C 0.25115 0.37835 0.62986 0.0
C1241 C 0.268 0.35407 0.63032 0.0
C1242 C 0.26919 0.39209 0.51161 0.0
C1243 C 0.25685 0.38128 0.57074 0.0
C1244 C 0.26509 0.40868 0.48344 0.0
C1245 C 0.24349 0.42896 0.48281 0.0
C1246 C 0.25174 0.39612 0.53924 0.0
C1247 C 0.22568 0.4312 0.5104 0.0
C1248 C 0.2454 0.39189 0.60019 0.0
C1249 C 0.27875 0.3438 0.60037 0.0
N1250 N 0.2304 0.41523 0.53754 0.0
N1251 N 0.27318 0.35762 0.57168 0.0
H1252 H 0.54488 0.45893 0.75912 0.0
H1253 H 0.65218 0.5575 0.85945 0.0
H1254 H 0.57837 0.53741 0.72052 0.0
H1255 H 0.61772 0.47876 0.89602 0.0
H1256 H 0.62799 0.54938 0.80693 0.0
H1257 H 0.5747 0.46429 0.80754 0.0
C1258 C 0.55864 0.47725 0.76074 0.0
C1259 C 0.55889 0.49793 0.7359 0.0
C1260 C 0.62588 0.53382 0.8264 0.0
C1261 C 0.59311 0.50428 0.79153 0.0
C1262 C 0.63951 0.53853 0.85645 0.0
C1263 C 0.63686 0.51884 0.88223 0.0
C1264 C 0.60942 0.50929 0.82217 0.0
C1265 C 0.6206 0.49439 0.87677 0.0
C1266 C 0.57572 0.48029 0.78843 0.0
C1267 C 0.57748 0.52099 0.73914 0.0
N1268 N 0.6074 0.4904 0.84743 0.0
N1269 N 0.59368 0.5237 0.76666 0.0
H1270 H 0.44692 0.83936 0.96138 0.0
H1271 H 0.50706 0.89148 0.13567 0.0
H1272 H 0.52498 0.81062 0.00474 0.0
H1273 H 0.4211 0.90608 0.10458 0.0
H1274 H 0.51662 0.86863 0.08304 0.0
H1275 H 0.43994 0.87075 0.00896 0.0
C1276 C 0.46278 0.84001 0.98062 0.0
C1277 C 0.48642 0.82223 0.97934 0.0
C1278 C 0.4957 0.87696 0.08759 0.0
C1279 C 0.47858 0.8578 0.03357 0.0
C1280 C 0.49026 0.8902 0.11759 0.0
C1281 C 0.46321 0.90067 0.12458 0.0
C1282 C 0.47395 0.8741 0.06428 0.0
C1283 C 0.44216 0.89797 0.10035 0.0
C1284 C 0.4587 0.85774 0.00782 0.0
C1285 C 0.50627 0.82374 0.00496 0.0
N1286 N 0.44794 0.88486 0.07127 0.0
N1287 N 0.50184 0.84109 0.03105 0.0
H1288 H 0.13757 0.47545 0.59394 0.0
H1289 H 1.07859 0.53994 0.76268 0.0
H1290 H 0.13491 0.56526 0.61364 0.0
H1291 H 1.0536 0.45851 0.72412 0.0
H1292 H 1.109 0.54693 0.71415 0.0
H1293 H 1.11572 0.46665 0.64752 0.0
C1294 C 0.13235 0.49335 0.60942 0.0
C1295 C 0.13775 0.52119 0.59892 0.0
C1296 C 1.09709 0.52742 0.71661 0.0
C1297 C 1.11339 0.51112 0.66072 0.0
C1298 C 1.07997 0.52334 0.74434 0.0
C1299 C 1.06351 0.49871 0.74717 0.0
C1300 C 1.09796 0.50651 0.692 0.0
C1301 C 1.06578 0.47793 0.72264 0.0
C1302 C 0.12009 0.48826 0.64012 0.0
C1303 C 0.13132 0.54344 0.62065 0.0
N1304 N 1.08262 0.48232 0.69603 0.0
N1305 N 0.11936 0.53793 0.65048 0.0
H1306 H 1.00989 0.88738 0.34115 0.0
H1307 H 0.94296 0.83168 0.51075 0.0
H1308 H 0.92299 0.9017 0.36881 0.0
H1309 H 1.02532 0.80819 0.47419 0.0
H1310 H 0.93705 0.86267 0.46273 0.0
H1311 H 1.01762 0.86358 0.39367 0.0
C1312 C 0.99249 0.8858 0.35844 0.0
C1313 C 0.96572 0.89649 0.35051 0.0
C1314 C 0.95648 0.85088 0.46542 0.0
C1315 C 0.97434 0.86885 0.41065 0.0
C1316 C 0.95993 0.83332 0.49289 0.0
C1317 C 0.98458 0.81719 0.49633 0.0
C1318 C 0.97792 0.85238 0.44147 0.0
C1319 C 1.00583 0.82001 0.47238 0.0
C1320 C 0.99687 0.87203 0.38837 0.0
C1321 C 0.94386 0.89342 0.37373 0.0
N1322 N 1.00196 0.83715 0.44594 0.0
N1323 N 0.94863 0.8798 0.40274 0.0
H1324 H 0.59235 0.67678 0.11336 0.0
H1325 H 0.67071 0.78493 0.22994 0.0
H1326 H 0.58141 0.76721 0.10477 0.0
H1327 H 0.6534 0.69901 0.26015 0.0
H1328 H 0.63851 0.77877 0.1834 0.0
H1329 H 0.61486 0.68396 0.16689 0.0
C1330 C 0.59427 0.69812 0.12286 0.0
C1331 C 0.58523 0.72146 0.10421 0.0
C1332 C 0.64144 0.76137 0.20044 0.0
C1333 C 0.61153 0.72977 0.16521 0.0
C1334 C 0.65988 0.76484 0.2269 0.0
C1335 C 0.66478 0.74237 0.24871 0.0
C1336 C 0.62828 0.73505 0.19537 0.0
C1337 C 0.65009 0.71686 0.24388 0.0
C1338 C 0.60723 0.70218 0.1534 0.0
C1339 C 0.5887 0.74862 0.11776 0.0
N1340 N 0.63279 0.71372 0.21736 0.0
N1341 N 0.60188 0.75204 0.14722 0.0
H1342 H 0.78732 0.4117 0.00797 0.0
H1343 H 0.71754 0.34723 0.84511 0.0
H1344 H 0.70264 0.43121 0.97573 0.0
H1345 H 0.80774 0.35673 0.85803 0.0
H1346 H 0.71025 0.36896 0.89904 0.0
H1347 H 0.79332 0.38176 0.95915 0.0
C1348 C 0.76986 0.40932 -0.0091 0.0
C1349 C 0.74453 0.42408 -0.00435 0.0
C1350 C 0.73162 0.36611 0.89006 0.0
C1351 C 0.75124 0.39003 0.94013 0.0
C1352 C 0.73582 0.35391 0.85919 0.0
C1353 C 0.7633 0.35049 0.84673 0.0
C1354 C 0.75504 0.3747 0.90878 0.0
C1355 C 0.78619 0.35876 0.86664 0.0
C1356 C 0.77336 0.39241 0.96302 0.0
C1357 C 0.72262 0.42041 0.97275 0.0
N1358 N 0.78154 0.3706 0.89665 0.0
N1359 N 0.72651 0.40378 0.94589 0.0
H1360 H 0.41289 0.43683 0.1141 0.0
H1361 H 0.26284 0.4441 0.17864 0.0
H1362 H 0.34438 0.38195 0.08476 0.0
H1363 H 0.33108 0.49977 0.20681 0.0
H1364 H 0.28555 0.43697 0.12527 0.0
H1365 H 0.37879 0.47394 0.12643 0.0
C1366 C 0.39069 0.43296 0.10922 0.0
C1367 C 0.38124 0.40598 0.09987 0.0
C1368 C 0.29515 0.45153 0.14262 0.0
C1369 C 0.34213 0.44778 0.11494 0.0
C1370 C 0.28215 0.45558 0.17311 0.0
C1371 C 0.29584 0.47146 0.1976 0.0
C1372 C 0.32237 0.46272 0.13727 0.0
C1373 C 0.32026 0.48664 0.18892 0.0
C1374 C 0.37118 0.45414 0.11623 0.0
C1375 C 0.35246 0.40226 0.09287 0.0
N1376 N 0.3333 0.48113 0.15982 0.0
N1377 N 0.33376 0.42262 0.10164 0.0
H1378 H 0.74975 0.62248 0.49314 0.0
H1379 H 0.65919 0.61713 0.64837 0.0
H1380 H 0.71848 0.694 0.54785 0.0
H1381 H 0.68173 0.54637 0.58682 0.0
H1382 H 0.70192 0.64182 0.63035 0.0
H1383 H 0.74775 0.594 0.54326 0.0
C1384 C 0.74358 0.63254 0.51603 0.0
C1385 C 0.73296 0.66019 0.51619 0.0
C1386 C 0.69811 0.62047 0.62166 0.0
C1387 C 0.72975 0.62759 0.57315 0.0
C1388 C 0.67369 0.6064 0.63194 0.0
C1389 C 0.66632 0.58034 0.61774 0.0
C1390 C 0.71457 0.60865 0.59634 0.0
C1391 C 0.6862 0.56689 0.59754 0.0
C1392 C 0.74232 0.61621 0.54468 0.0
C1393 C 0.72567 0.67231 0.54654 0.0
N1394 N 0.70901 0.58162 0.58649 0.0
N1395 N 0.72335 0.65568 0.57369 0.0
H1396 H 0.33687 0.81691 0.59766 0.0
H1397 H 0.34409 0.7334 0.75743 0.0
H1398 H 0.26782 0.80241 0.66511 0.0
H1399 H 0.41411 0.75238 0.69292 0.0
H1400 H 0.31209 0.73629 0.71038 0.0
H1401 H 0.35853 0.773 0.61612 0.0
C1402 C 0.32566 0.8039 0.61543 0.0
C1403 C 0.30126 0.81391 0.63115 0.0
C1404 C 0.33457 0.73886 0.70621 0.0
C1405 C 0.3264 0.76433 0.65319 0.0
C1406 C 0.35281 0.73723 0.73311 0.0
C1407 C 0.3815 0.74401 0.7292 0.0
C1408 C 0.3451 0.74826 0.67565 0.0
C1409 C 0.39194 0.74788 0.69714 0.0
C1410 C 0.33813 0.77883 0.62612 0.0
C1411 C 0.2874 0.79598 0.65352 0.0
N1412 N 0.3736 0.75093 0.67169 0.0
N1413 N 0.30062 0.77245 0.66471 0.0
H1414 H 1.05511 0.72255 0.05772 0.0
H1415 H 0.98395 0.57894 0.03297 0.0
H1416 H 1.05423 0.65362 0.12743 0.0
H1417 H 0.99185 0.64504 0.96018 0.0
H1418 H 0.98703 0.61453 0.07645 0.0
H1419 H 1.01123 0.70467 0.03404 0.0
C1420 C 1.04509 0.70427 0.06894 0.0
C1421 C 1.05894 0.6887 0.0935 0.0
C1422 C 0.9871 0.62142 0.05097 0.0
C1423 C 1.00938 0.66764 0.06583 0.0
C1424 C 0.98538 0.60108 0.02615 0.0
C1425 C 0.98903 0.60902 -0.00691 0.0
C1426 C 0.99334 0.64961 0.04247 0.0
C1427 C 0.98981 0.63795 0.98547 0.0
C1428 C 1.02004 0.69395 0.05528 0.0
C1429 C 1.04478 0.66548 0.10745 0.0
N1430 N 0.99296 0.65719 0.01004 0.0
N1431 N 1.02119 0.65509 0.09273 0.0
H1432 H 0.88819 0.86837 0.89445 0.0
H1433 H 0.90596 0.74421 0.77656 0.0
H1434 H 0.82335 0.80892 0.86577 0.0
H1435 H 0.96823 0.80865 0.79739 0.0
H1436 H 0.88507 0.7521 0.83068 0.0
H1437 H 0.92388 0.8326 0.88328 0.0
C1438 C 0.88136 0.84741 0.88705 0.0
C1439 C 0.85294 0.84194 0.87944 0.0
C1440 C 0.90392 0.76386 0.82397 0.0
C1441 C 0.89364 0.80137 0.86555 0.0
C1442 C 0.91598 0.75924 0.79305 0.0
C1443 C 0.93797 0.77684 0.78196 0.0
C1444 C 0.91357 0.78665 0.84327 0.0
C1445 C 0.9504 0.79557 0.80455 0.0
C1446 C 0.90179 0.82697 0.88051 0.0
C1447 C 0.84525 0.81431 0.87048 0.0
N1448 N 0.93746 0.80068 0.8338 0.0
N1449 N 0.86557 0.79526 0.86274 0.0
H1450 H 0.87883 0.35113 0.08014 0.0
H1451 H 0.89621 0.2367 0.20971 0.0
H1452 H 0.81244 0.30012 0.12277 0.0
H1453 H 0.96095 0.29394 0.1751 0.0
H1454 H 0.87234 0.24086 0.15677 0.0
H1455 H 0.91228 0.31317 0.0908 0.0
C1456 C 0.87102 0.33147 0.09055 0.0
C1457 C 0.84318 0.32922 0.10218 0.0
C1458 C 0.89232 0.25174 0.16021 0.0
C1459 C 0.88145 0.28625 0.11548 0.0
C1460 C 0.90608 0.24924 0.19048 0.0
C1461 C 0.92977 0.26621 0.19727 0.0
C1462 C 0.90202 0.27189 0.13726 0.0
C1463 C 0.9419 0.2816 0.17126 0.0
C1464 C 0.8902 0.30978 0.09677 0.0
C1465 C 0.83412 0.30312 0.11489 0.0
N1466 N 0.92738 0.28486 0.14269 0.0
N1467 N 0.85341 0.28293 0.12222 0.0
H1468 H 0.23954 0.15963 0.02223 0.0
H1469 H 0.17562 1.08077 0.12563 0.0
H1470 H 0.24451 1.0873 0.95779 0.0
H1471 H 0.17908 1.01604 0.05095 0.0
H1472 H 0.21983 1.10014 0.10526 0.0
H1473 H 0.23871 0.12836 0.06933 0.0
C1474 C 0.24137 0.13707 0.01804 0.0
C1475 C 0.24049 0.12593 0.98602 0.0
C1476 C 0.21136 1.08153 0.09331 0.0
C1477 C 0.23808 1.08955 0.04 0.0
C1478 C 0.18617 1.07011 0.10546 0.0
C1479 C 0.1729 1.04782 0.08863 0.0
C1480 C 0.22253 1.07106 0.06351 0.0
C1481 C 0.18795 1.03427 0.06346 0.0
C1482 C 0.2406 0.11894 0.04519 0.0
C1483 C 0.24366 1.09665 0.98215 0.0
N1484 N 0.21152 1.04665 0.05093 0.0
N1485 N 0.24144 1.07941 0.00878 0.0
H1486 H 0.75757 1.1043 0.50431 0.0
H1487 H 0.6857 1.01888 0.41316 0.0
H1488 H 0.72055 0.16938 0.44392 0.0
H1489 H 0.66772 1.08901 0.34868 0.0
H1490 H 0.72759 1.04326 0.43246 0.0
H1491 H 0.7565 1.07222 0.45732 0.0
C1492 C 0.74973 1.11195 0.48085 0.0
C1493 C 0.7378 0.13898 0.47834 0.0
C1494 C 0.71531 1.05326 0.41332 0.0
C1495 C 0.73468 1.10198 0.42509 0.0
C1496 C 0.69121 1.03911 0.40226 0.0
C1497 C 0.67255 1.05259 0.38059 0.0
C1498 C 0.7202 1.08138 0.40317 0.0
C1499 C 0.6811 1.07823 0.36627 0.0
C1500 C 0.74877 1.09351 0.45401 0.0
C1501 C 0.72912 0.14836 0.4472 0.0
N1502 N 0.70383 1.09225 0.37863 0.0
N1503 N 0.72688 0.12958 0.42204 0.0
loop_
_geom_bond_atom_site_label_1
_geom_bond_atom_site_label_2
_geom_bond_distance
_geom_bond_site_symmetry_2
_ccdc_geom_bond_type
Eu0 C9 2.828 . S
Eu0 O11 2.392 1_556 S
Eu0 O13 2.418 1_556 S
Eu0 O18 2.373 1_556 S
Eu0 O21 2.488 . S
Eu0 O22 2.471 . S
Eu0 O23 2.348 1_556 S
Eu1 O10 2.373 . S
Eu1 O14 2.488 . S
Eu1 O15 2.471 . S
Eu1 O16 2.349 . S
Eu1 O19 2.392 . S
Eu1 O20 2.418 . S
Eu1 C30 2.828 . S
C2 O20 1.244 1_556 S
C2 O23 1.264 1_556 S
C3 C4 1.379 . S
C3 C7 1.373 . S
C3 C9 1.505 . S
C4 C3 1.379 . S
C4 C6 1.369 . S
C4 H32 0.930 . S
C5 C7 1.383 . S
C5 C8 1.382 . S
C5 H33 0.930 . S
C6 C4 1.369 . S
C6 C8 1.392 . S
C6 H34 0.930 . S
C7 C3 1.373 . S
C7 C5 1.383 . S
C7 H35 0.931 . S
C8 C5 1.382 . S
C8 C6 1.392 . S
C9 Eu0 2.828 . S
C9 C3 1.505 . S
C9 O21 1.249 . S
C9 O22 1.244 . S
O10 Eu1 2.373 . S
O10 C12 1.258 . S
O11 Eu0 2.392 1_554 S
O11 C12 1.242 . S
C12 O10 1.258 . S
C12 O11 1.242 . S
O13 Eu0 2.418 1_554 S
O13 C17 1.244 . S
O14 Eu1 2.488 . S
O14 C30 1.249 . S
O15 Eu1 2.471 . S
O15 C30 1.244 . S
O16 Eu1 2.349 . S
O16 C17 1.265 . S
C17 O13 1.244 . S
C17 O16 1.265 . S
O18 Eu0 2.373 1_554 S
O18 C31 1.258 . S
O19 Eu1 2.392 . S
O19 C31 1.242 . S
O20 Eu1 2.418 . S
O20 C2 1.244 1_554 S
O21 Eu0 2.488 . S
O21 C9 1.249 . S
O22 Eu0 2.471 . S
O22 C9 1.244 . S
O23 Eu0 2.348 1_554 S
O23 C2 1.264 1_554 S
C24 C25 1.379 . S
C24 C28 1.373 . S
C24 C30 1.505 . S
C25 C24 1.379 . S
C25 C27 1.369 . S
C25 H36 0.930 . S
C26 C28 1.383 . S
C26 C29 1.382 . S
C26 H37 0.930 . S
C27 C25 1.369 . S
C27 C29 1.392 . S
C27 H38 0.930 . S
C28 C24 1.373 . S
C28 C26 1.383 . S
C28 H39 0.931 . S
C29 C26 1.382 . S
C29 C27 1.392 . S
C30 Eu1 2.828 . S
C30 O14 1.249 . S
C30 O15 1.244 . S
C30 C24 1.505 . S
C31 O18 1.258 . S
C31 O19 1.242 . S
H32 C4 0.930 . S
H33 C5 0.930 . S
H34 C6 0.930 . S
H35 C7 0.931 . S
H36 C25 0.930 . S
H37 C26 0.930 . S
H38 C27 0.930 . S
H39 C28 0.931 . S
Eu40 C49 2.828 . S
Eu40 O51 2.392 . S
Eu40 O53 2.418 . S
Eu40 O58 2.373 . S
Eu40 O61 2.488 . S
Eu40 O62 2.471 . S
Eu40 O63 2.349 . S
Eu41 O50 2.373 . S
Eu41 O54 2.488 . S
Eu41 O55 2.471 . S
Eu41 O56 2.349 . S
Eu41 O59 2.392 . S
Eu41 O60 2.418 . S
Eu41 C70 2.828 . S
C42 O60 1.244 . S
C42 O63 1.265 . S
C43 C44 1.379 . S
C43 C47 1.373 . S
C43 C49 1.505 . S
C44 C43 1.379 . S
C44 C46 1.369 . S
C44 H72 0.930 . S
C45 C47 1.383 . S
C45 C48 1.382 . S
C45 H73 0.930 . S
C46 C44 1.369 . S
C46 C48 1.392 . S
C46 H74 0.930 . S
C47 C43 1.373 . S
C47 C45 1.383 . S
C47 H75 0.931 . S
C48 C45 1.382 . S
C48 C46 1.392 . S
C49 Eu40 2.828 . S
C49 C43 1.505 . S
C49 O61 1.249 . S
C49 O62 1.244 . S
O50 Eu41 2.373 . S
O50 C52 1.258 . S
O51 Eu40 2.392 . S
O51 C52 1.242 . S
C52 O50 1.258 . S
C52 O51 1.242 . S
O53 Eu40 2.418 . S
O53 C57 1.244 . S
O54 Eu41 2.488 . S
O54 C70 1.249 . S
O55 Eu41 2.471 . S
O55 C70 1.244 . S
O56 Eu41 2.349 . S
O56 C57 1.265 . S
C57 O53 1.244 . S
C57 O56 1.265 . S
O58 Eu40 2.373 . S
O58 C71 1.258 . S
O59 Eu41 2.392 . S
O59 C71 1.242 . S
O60 Eu41 2.418 . S
O60 C42 1.244 . S
O61 Eu40 2.488 . S
O61 C49 1.249 . S
O62 Eu40 2.471 . S
O62 C49 1.244 . S
O63 Eu40 2.349 . S
O63 C42 1.265 . S
C64 C65 1.379 . S
C64 C68 1.373 . S
C64 C70 1.505 . S
C65 C64 1.379 . S
C65 C67 1.369 . S
C65 H76 0.930 . S
C66 C68 1.383 . S
C66 C69 1.382 . S
C66 H77 0.930 . S
C67 C65 1.369 . S
C67 C69 1.392 . S
C67 H78 0.930 . S
C68 C64 1.373 . S
C68 C66 1.383 . S
C68 H79 0.931 . S
C69 C66 1.382 . S
C69 C67 1.392 . S
C70 Eu41 2.828 . S
C70 O54 1.249 . S
C70 O55 1.244 . S
C70 C64 1.505 . S
C71 O58 1.258 . S
C71 O59 1.242 . S
H72 C44 0.930 . S
H73 C45 0.930 . S
H74 C46 0.930 . S
H75 C47 0.931 . S
H76 C65 0.930 . S
H77 C66 0.930 . S
H78 C67 0.930 . S
H79 C68 0.931 . S
Eu80 C89 2.828 . S
Eu80 O91 2.392 . S
Eu80 O93 2.418 . S
Eu80 O98 2.373 . S
Eu80 O101 2.488 . S
Eu80 O102 2.471 . S
Eu80 O103 2.349 . S
Eu81 O90 2.373 . S
Eu81 O94 2.488 . S
Eu81 O95 2.471 . S
Eu81 O96 2.349 . S
Eu81 O99 2.392 . S
Eu81 O100 2.418 . S
Eu81 C110 2.828 . S
C82 O100 1.244 . S
C82 O103 1.265 . S
C83 C84 1.379 . S
C83 C87 1.373 . S
C83 C89 1.505 . S
C84 C83 1.379 . S
C84 C86 1.369 . S
C84 H112 0.930 . S
C85 C87 1.383 . S
C85 C88 1.382 . S
C85 H113 0.930 . S
C86 C84 1.369 . S
C86 C88 1.392 . S
C86 H114 0.930 . S
C87 C83 1.373 . S
C87 C85 1.383 . S
C87 H115 0.931 . S
C88 C85 1.382 . S
C88 C86 1.392 . S
C89 Eu80 2.828 . S
C89 C83 1.505 . S
C89 O101 1.249 . S
C89 O102 1.244 . S
O90 Eu81 2.373 . S
O90 C92 1.258 . S
O91 Eu80 2.392 . S
O91 C92 1.242 . S
C92 O90 1.258 . S
C92 O91 1.242 . S
O93 Eu80 2.418 . S
O93 C97 1.244 . S
O94 Eu81 2.488 . S
O94 C110 1.249 . S
O95 Eu81 2.471 . S
O95 C110 1.244 . S
O96 Eu81 2.349 . S
O96 C97 1.265 . S
C97 O93 1.244 . S
C97 O96 1.265 . S
O98 Eu80 2.373 . S
O98 C111 1.258 . S
O99 Eu81 2.392 . S
O99 C111 1.242 . S
O100 Eu81 2.418 . S
O100 C82 1.244 . S
O101 Eu80 2.488 . S
O101 C89 1.249 . S
O102 Eu80 2.471 . S
O102 C89 1.244 . S
O103 Eu80 2.349 . S
O103 C82 1.265 . S
C104 C105 1.379 . S
C104 C108 1.373 . S
C104 C110 1.505 . S
C105 C104 1.379 . S
C105 C107 1.369 . S
C105 H116 0.930 . S
C106 C108 1.383 . S
C106 C109 1.382 . S
C106 H117 0.930 . S
C107 C105 1.369 . S
C107 C109 1.392 . S
C107 H118 0.930 . S
C108 C104 1.373 . S
C108 C106 1.383 . S
C108 H119 0.931 . S
C109 C106 1.382 . S
C109 C107 1.392 . S
C110 Eu81 2.828 . S
C110 O94 1.249 . S
C110 O95 1.244 . S
C110 C104 1.505 . S
C111 O98 1.258 . S
C111 O99 1.242 . S
H112 C84 0.930 . S
H113 C85 0.930 . S
H114 C86 0.930 . S
H115 C87 0.931 . S
H116 C105 0.930 . S
H117 C106 0.930 . S
H118 C107 0.930 . S
H119 C108 0.931 . S
Eu120 C129 2.828 . S
Eu120 O131 2.392 . S
Eu120 O133 2.418 . S
Eu120 O138 2.373 . S
Eu120 O141 2.488 . S
Eu120 O142 2.471 . S
Eu120 O143 2.349 . S
Eu121 O130 2.373 . S
Eu121 O134 2.488 . S
Eu121 O135 2.471 . S
Eu121 O136 2.349 . S
Eu121 O139 2.392 . S
Eu121 O140 2.418 . S
Eu121 C150 2.828 . S
C122 O140 1.244 . S
C122 O143 1.265 . S
C123 C124 1.379 . S
C123 C127 1.373 . S
C123 C129 1.505 . S
C124 C123 1.379 . S
C124 C126 1.369 . S
C124 H152 0.930 . S
C125 C127 1.383 . S
C125 C128 1.382 . S
C125 H153 0.930 . S
C126 C124 1.369 . S
C126 C128 1.392 . S
C126 H154 0.930 . S
C127 C123 1.373 . S
C127 C125 1.383 . S
C127 H155 0.931 . S
C128 C125 1.382 . S
C128 C126 1.392 . S
C129 Eu120 2.828 . S
C129 C123 1.505 . S
C129 O141 1.249 . S
C129 O142 1.244 . S
O130 Eu121 2.373 . S
O130 C132 1.258 . S
O131 Eu120 2.392 . S
O131 C132 1.242 . S
C132 O130 1.258 . S
C132 O131 1.242 . S
O133 Eu120 2.418 . S
O133 C137 1.244 . S
O134 Eu121 2.488 . S
O134 C150 1.249 . S
O135 Eu121 2.471 . S
O135 C150 1.244 . S
O136 Eu121 2.349 . S
O136 C137 1.265 . S
C137 O133 1.244 . S
C137 O136 1.265 . S
O138 Eu120 2.373 . S
O138 C151 1.258 . S
O139 Eu121 2.392 . S
O139 C151 1.242 . S
O140 Eu121 2.418 . S
O140 C122 1.244 . S
O141 Eu120 2.488 . S
O141 C129 1.249 . S
O142 Eu120 2.471 . S
O142 C129 1.244 . S
O143 Eu120 2.349 . S
O143 C122 1.265 . S
C144 C145 1.379 . S
C144 C148 1.373 . S
C144 C150 1.505 . S
C145 C144 1.379 . S
C145 C147 1.369 . S
C145 H156 0.930 . S
C146 C148 1.383 . S
C146 C149 1.382 . S
C146 H157 0.930 . S
C147 C145 1.369 . S
C147 C149 1.392 . S
C147 H158 0.930 . S
C148 C144 1.373 . S
C148 C146 1.383 . S
C148 H159 0.931 . S
C149 C146 1.382 . S
C149 C147 1.392 . S
C150 Eu121 2.828 . S
C150 O134 1.249 . S
C150 O135 1.244 . S
C150 C144 1.505 . S
C151 O138 1.258 . S
C151 O139 1.242 . S
H152 C124 0.930 . S
H153 C125 0.930 . S
H154 C126 0.930 . S
H155 C127 0.931 . S
H156 C145 0.930 . S
H157 C146 0.930 . S
H158 C147 0.930 . S
H159 C148 0.931 . S
Eu160 C169 2.828 . S
Eu160 O171 2.392 . S
Eu160 O173 2.418 . S
Eu160 O178 2.373 . S
Eu160 O181 2.488 . S
Eu160 O182 2.471 . S
Eu160 O183 2.349 . S
Eu161 O170 2.373 1_554 S
Eu161 O174 2.488 . S
Eu161 O175 2.471 . S
Eu161 O176 2.348 1_554 S
Eu161 O179 2.392 1_554 S
Eu161 O180 2.418 1_554 S
Eu161 C190 2.828 . S
C162 O180 1.244 . S
C162 O183 1.265 . S
C163 C164 1.379 . S
C163 C167 1.373 . S
C163 C169 1.505 . S
C164 C163 1.379 . S
C164 C166 1.369 . S
C164 H192 0.930 . S
C165 C167 1.383 . S
C165 C168 1.382 . S
C165 H193 0.930 . S
C166 C164 1.369 . S
C166 C168 1.392 . S
C166 H194 0.930 . S
C167 C163 1.373 . S
C167 C165 1.383 . S
C167 H195 0.931 . S
C168 C165 1.382 . S
C168 C166 1.392 . S
C169 Eu160 2.828 . S
C169 C163 1.505 . S
C169 O181 1.249 . S
C169 O182 1.244 . S
O170 Eu161 2.373 1_556 S
O170 C172 1.258 . S
O171 Eu160 2.392 . S
O171 C172 1.242 . S
C172 O170 1.258 . S
C172 O171 1.242 . S
O173 Eu160 2.418 . S
O173 C177 1.244 1_556 S
O174 Eu161 2.488 . S
O174 C190 1.249 . S
O175 Eu161 2.471 . S
O175 C190 1.244 . S
O176 Eu161 2.348 1_556 S
O176 C177 1.264 1_556 S
C177 O173 1.244 1_554 S
C177 O176 1.264 1_554 S
O178 Eu160 2.373 . S
O178 C191 1.258 . S
O179 Eu161 2.392 1_556 S
O179 C191 1.242 . S
O180 Eu161 2.418 1_556 S
O180 C162 1.244 . S
O181 Eu160 2.488 . S
O181 C169 1.249 . S
O182 Eu160 2.471 . S
O182 C169 1.244 . S
O183 Eu160 2.349 . S
O183 C162 1.265 . S
C184 C185 1.379 . S
C184 C188 1.373 . S
C184 C190 1.505 . S
C185 C184 1.379 . S
C185 C187 1.369 . S
C185 H196 0.930 . S
C186 C188 1.383 . S
C186 C189 1.382 . S
C186 H197 0.930 . S
C187 C185 1.369 . S
C187 C189 1.392 . S
C187 H198 0.930 . S
C188 C184 1.373 . S
C188 C186 1.383 . S
C188 H199 0.931 . S
C189 C186 1.382 . S
C189 C187 1.392 . S
C190 Eu161 2.828 . S
C190 O174 1.249 . S
C190 O175 1.244 . S
C190 C184 1.505 . S
C191 O178 1.258 . S
C191 O179 1.242 . S
H192 C164 0.930 . S
H193 C165 0.930 . S
H194 C166 0.930 . S
H195 C167 0.931 . S
H196 C185 0.930 . S
H197 C186 0.930 . S
H198 C187 0.930 . S
H199 C188 0.931 . S
Eu200 C209 2.828 . S
Eu200 O211 2.392 . S
Eu200 O213 2.418 . S
Eu200 O218 2.373 . S
Eu200 O221 2.488 . S
Eu200 O222 2.471 . S
Eu200 O223 2.349 . S
Eu201 O210 2.373 . S
Eu201 O214 2.488 . S
Eu201 O215 2.471 . S
Eu201 O216 2.349 . S
Eu201 O219 2.392 . S
Eu201 O220 2.418 . S
Eu201 C230 2.828 . S
C202 O220 1.244 . S
C202 O223 1.265 . S
C203 C204 1.379 . S
C203 C207 1.373 . S
C203 C209 1.505 . S
C204 C203 1.379 . S
C204 C206 1.369 . S
C204 H232 0.930 . S
C205 C207 1.383 . S
C205 C208 1.382 . S
C205 H233 0.930 . S
C206 C204 1.369 . S
C206 C208 1.392 . S
C206 H234 0.930 . S
C207 C203 1.373 . S
C207 C205 1.383 . S
C207 H235 0.931 . S
C208 C205 1.382 . S
C208 C206 1.392 . S
C209 Eu200 2.828 . S
C209 C203 1.505 . S
C209 O221 1.249 . S
C209 O222 1.244 . S
O210 Eu201 2.373 . S
O210 C212 1.258 . S
O211 Eu200 2.392 . S
O211 C212 1.242 . S
C212 O210 1.258 . S
C212 O211 1.242 . S
O213 Eu200 2.418 . S
O213 C217 1.244 . S
O214 Eu201 2.488 . S
O214 C230 1.249 . S
O215 Eu201 2.471 . S
O215 C230 1.244 . S
O216 Eu201 2.349 . S
O216 C217 1.265 . S
C217 O213 1.244 . S
C217 O216 1.265 . S
O218 Eu200 2.373 . S
O218 C231 1.258 . S
O219 Eu201 2.392 . S
O219 C231 1.242 . S
O220 Eu201 2.418 . S
O220 C202 1.244 . S
O221 Eu200 2.488 . S
O221 C209 1.249 . S
O222 Eu200 2.471 . S
O222 C209 1.244 . S
O223 Eu200 2.349 . S
O223 C202 1.265 . S
C224 C225 1.379 . S
C224 C228 1.373 . S
C224 C230 1.505 . S
C225 C224 1.379 . S
C225 C227 1.369 . S
C225 H236 0.930 . S
C226 C228 1.383 . S
C226 C229 1.382 . S
C226 H237 0.930 . S
C227 C225 1.369 . S
C227 C229 1.392 . S
C227 H238 0.930 . S
C228 C224 1.373 . S
C228 C226 1.383 . S
C228 H239 0.931 . S
C229 C226 1.382 . S
C229 C227 1.392 . S
C230 Eu201 2.828 . S
C230 O214 1.249 . S
C230 O215 1.244 . S
C230 C224 1.505 . S
C231 O218 1.258 . S
C231 O219 1.242 . S
H232 C204 0.930 . S
H233 C205 0.930 . S
H234 C206 0.930 . S
H235 C207 0.931 . S
H236 C225 0.930 . S
H237 C226 0.930 . S
H238 C227 0.930 . S
H239 C228 0.931 . S
Eu240 C249 2.828 . S
Eu240 O251 2.392 . S
Eu240 O253 2.418 . S
Eu240 O258 2.373 . S
Eu240 O261 2.488 . S
Eu240 O262 2.471 . S
Eu240 O263 2.349 . S
Eu241 O250 2.373 . S
Eu241 O254 2.488 . S
Eu241 O255 2.471 . S
Eu241 O256 2.349 . S
Eu241 O259 2.392 . S
Eu241 O260 2.418 . S
Eu241 C270 2.828 . S
C242 O260 1.244 . S
C242 O263 1.265 . S
C243 C244 1.379 . S
C243 C247 1.373 . S
C243 C249 1.505 . S
C244 C243 1.379 . S
C244 C246 1.369 . S
C244 H272 0.930 . S
C245 C247 1.383 . S
C245 C248 1.382 . S
C245 H273 0.930 . S
C246 C244 1.369 . S
C246 C248 1.392 . S
C246 H274 0.930 . S
C247 C243 1.373 . S
C247 C245 1.383 . S
C247 H275 0.931 . S
C248 C245 1.382 . S
C248 C246 1.392 . S
C249 Eu240 2.828 . S
C249 C243 1.505 . S
C249 O261 1.249 . S
C249 O262 1.244 . S
O250 Eu241 2.373 . S
O250 C252 1.258 . S
O251 Eu240 2.392 . S
O251 C252 1.242 . S
C252 O250 1.258 . S
C252 O251 1.242 . S
O253 Eu240 2.418 . S
O253 C257 1.244 . S
O254 Eu241 2.488 . S
O254 C270 1.249 . S
O255 Eu241 2.471 . S
O255 C270 1.244 . S
O256 Eu241 2.349 . S
O256 C257 1.265 . S
C257 O253 1.244 . S
C257 O256 1.265 . S
O258 Eu240 2.373 . S
O258 C271 1.258 . S
O259 Eu241 2.392 . S
O259 C271 1.242 . S
O260 Eu241 2.418 . S
O260 C242 1.244 . S
O261 Eu240 2.488 . S
O261 C249 1.249 . S
O262 Eu240 2.471 . S
O262 C249 1.244 . S
O263 Eu240 2.349 . S
O263 C242 1.265 . S
C264 C265 1.379 . S
C264 C268 1.373 . S
C264 C270 1.505 . S
C265 C264 1.379 . S
C265 C267 1.369 . S
C265 H276 0.930 . S
C266 C268 1.383 . S
C266 C269 1.382 . S
C266 H277 0.930 . S
C267 C265 1.369 . S
C267 C269 1.392 . S
C267 H278 0.930 . S
C268 C264 1.373 . S
C268 C266 1.383 . S
C268 H279 0.931 . S
C269 C266 1.382 . S
C269 C267 1.392 . S
C270 Eu241 2.828 . S
C270 O254 1.249 . S
C270 O255 1.244 . S
C270 C264 1.505 . S
C271 O258 1.258 . S
C271 O259 1.242 . S
H272 C244 0.930 . S
H273 C245 0.930 . S
H274 C246 0.930 . S
H275 C247 0.931 . S
H276 C265 0.930 . S
H277 C266 0.930 . S
H278 C267 0.930 . S
H279 C268 0.931 . S
Eu280 C289 2.828 . S
Eu280 O291 2.392 . S
Eu280 O293 2.418 . S
Eu280 O298 2.373 . S
Eu280 O301 2.488 . S
Eu280 O302 2.471 . S
Eu280 O303 2.349 . S
Eu281 O290 2.373 . S
Eu281 O294 2.488 . S
Eu281 O295 2.471 . S
Eu281 O296 2.349 . S
Eu281 O299 2.392 . S
Eu281 O300 2.418 . S
Eu281 C310 2.828 . S
C282 O300 1.244 . S
C282 O303 1.265 . S
C283 C284 1.379 . S
C283 C287 1.373 . S
C283 C289 1.505 . S
C284 C283 1.379 . S
C284 C286 1.369 . S
C284 H312 0.930 . S
C285 C287 1.383 . S
C285 C288 1.382 . S
C285 H313 0.930 . S
C286 C284 1.369 . S
C286 C288 1.392 . S
C286 H314 0.930 . S
C287 C283 1.373 . S
C287 C285 1.383 . S
C287 H315 0.931 . S
C288 C285 1.382 . S
C288 C286 1.392 . S
C289 Eu280 2.828 . S
C289 C283 1.505 . S
C289 O301 1.249 . S
C289 O302 1.244 . S
O290 Eu281 2.373 . S
O290 C292 1.258 . S
O291 Eu280 2.392 . S
O291 C292 1.242 . S
C292 O290 1.258 . S
C292 O291 1.242 . S
O293 Eu280 2.418 . S
O293 C297 1.244 . S
O294 Eu281 2.488 . S
O294 C310 1.249 . S
O295 Eu281 2.471 . S
O295 C310 1.244 . S
O296 Eu281 2.349 . S
O296 C297 1.265 . S
C297 O293 1.244 . S
C297 O296 1.265 . S
O298 Eu280 2.373 . S
O298 C311 1.258 . S
O299 Eu281 2.392 . S
O299 C311 1.242 . S
O300 Eu281 2.418 . S
O300 C282 1.244 . S
O301 Eu280 2.488 . S
O301 C289 1.249 . S
O302 Eu280 2.471 . S
O302 C289 1.244 . S
O303 Eu280 2.349 . S
O303 C282 1.265 . S
C304 C305 1.379 . S
C304 C308 1.373 . S
C304 C310 1.505 . S
C305 C304 1.379 . S
C305 C307 1.369 . S
C305 H316 0.930 . S
C306 C308 1.383 . S
C306 C309 1.382 . S
C306 H317 0.930 . S
C307 C305 1.369 . S
C307 C309 1.392 . S
C307 H318 0.930 . S
C308 C304 1.373 . S
C308 C306 1.383 . S
C308 H319 0.931 . S
C309 C306 1.382 . S
C309 C307 1.392 . S
C310 Eu281 2.828 . S
C310 O294 1.249 . S
C310 O295 1.244 . S
C310 C304 1.505 . S
C311 O298 1.258 . S
C311 O299 1.242 . S
H312 C284 0.930 . S
H313 C285 0.930 . S
H314 C286 0.930 . S
H315 C287 0.931 . S
H316 C305 0.930 . S
H317 C306 0.930 . S
H318 C307 0.930 . S
H319 C308 0.931 . S
Eu320 C329 2.828 . S
Eu320 O331 2.392 . S
Eu320 O333 2.418 . S
Eu320 O338 2.373 . S
Eu320 O341 2.488 . S
Eu320 O342 2.471 . S
Eu320 O343 2.349 . S
Eu321 O330 2.373 . S
Eu321 O334 2.488 . S
Eu321 O335 2.471 . S
Eu321 O336 2.349 . S
Eu321 O339 2.392 . S
Eu321 O340 2.418 . S
Eu321 C350 2.828 . S
C322 O340 1.244 . S
C322 O343 1.265 . S
C323 C324 1.379 . S
C323 C327 1.373 . S
C323 C329 1.505 . S
C324 C323 1.379 . S
C324 C326 1.369 . S
C324 H352 0.930 . S
C325 C327 1.383 . S
C325 C328 1.382 . S
C325 H353 0.930 . S
C326 C324 1.369 . S
C326 C328 1.392 . S
C326 H354 0.930 . S
C327 C323 1.373 . S
C327 C325 1.383 . S
C327 H355 0.931 . S
C328 C325 1.382 . S
C328 C326 1.392 . S
C329 Eu320 2.828 . S
C329 C323 1.505 . S
C329 O341 1.249 . S
C329 O342 1.244 . S
O330 Eu321 2.373 . S
O330 C332 1.258 . S
O331 Eu320 2.392 . S
O331 C332 1.242 . S
C332 O330 1.258 . S
C332 O331 1.242 . S
O333 Eu320 2.418 . S
O333 C337 1.244 . S
O334 Eu321 2.488 . S
O334 C350 1.249 . S
O335 Eu321 2.471 . S
O335 C350 1.244 . S
O336 Eu321 2.349 . S
O336 C337 1.265 . S
C337 O333 1.244 . S
C337 O336 1.265 . S
O338 Eu320 2.373 . S
O338 C351 1.258 . S
O339 Eu321 2.392 . S
O339 C351 1.242 . S
O340 Eu321 2.418 . S
O340 C322 1.244 . S
O341 Eu320 2.488 . S
O341 C329 1.249 . S
O342 Eu320 2.471 . S
O342 C329 1.244 . S
O343 Eu320 2.349 . S
O343 C322 1.265 . S
C344 C345 1.379 . S
C344 C348 1.373 . S
C344 C350 1.505 . S
C345 C344 1.379 . S
C345 C347 1.369 . S
C345 H356 0.930 . S
C346 C348 1.383 . S
C346 C349 1.382 . S
C346 H357 0.930 . S
C347 C345 1.369 . S
C347 C349 1.392 . S
C347 H358 0.930 . S
C348 C344 1.373 . S
C348 C346 1.383 . S
C348 H359 0.931 . S
C349 C346 1.382 . S
C349 C347 1.392 . S
C350 Eu321 2.828 . S
C350 O334 1.249 . S
C350 O335 1.244 . S
C350 C344 1.505 . S
C351 O338 1.258 . S
C351 O339 1.242 . S
H352 C324 0.930 . S
H353 C325 0.930 . S
H354 C326 0.930 . S
H355 C327 0.931 . S
H356 C345 0.930 . S
H357 C346 0.930 . S
H358 C347 0.930 . S
H359 C348 0.931 . S
Eu360 C369 2.828 . S
Eu360 O371 2.392 . S
Eu360 O373 2.418 . S
Eu360 O378 2.373 . S
Eu360 O381 2.488 . S
Eu360 O382 2.471 . S
Eu360 O383 2.349 . S
Eu361 O370 2.373 . S
Eu361 O374 2.488 . S
Eu361 O375 2.471 . S
Eu361 O376 2.349 . S
Eu361 O379 2.392 . S
Eu361 O380 2.418 . S
Eu361 C390 2.828 . S
C362 O380 1.244 . S
C362 O383 1.265 . S
C363 C364 1.379 . S
C363 C367 1.373 . S
C363 C369 1.505 . S
C364 C363 1.379 . S
C364 C366 1.369 . S
C364 H392 0.930 . S
C365 C367 1.383 . S
C365 C368 1.382 . S
C365 H393 0.930 . S
C366 C364 1.369 . S
C366 C368 1.392 . S
C366 H394 0.930 . S
C367 C363 1.373 . S
C367 C365 1.383 . S
C367 H395 0.931 . S
C368 C365 1.382 . S
C368 C366 1.392 . S
C369 Eu360 2.828 . S
C369 C363 1.505 . S
C369 O381 1.249 . S
C369 O382 1.244 . S
O370 Eu361 2.373 . S
O370 C372 1.258 . S
O371 Eu360 2.392 . S
O371 C372 1.242 . S
C372 O370 1.258 . S
C372 O371 1.242 . S
O373 Eu360 2.418 . S
O373 C377 1.244 . S
O374 Eu361 2.488 . S
O374 C390 1.249 . S
O375 Eu361 2.471 . S
O375 C390 1.244 . S
O376 Eu361 2.349 . S
O376 C377 1.265 . S
C377 O373 1.244 . S
C377 O376 1.265 . S
O378 Eu360 2.373 . S
O378 C391 1.258 . S
O379 Eu361 2.392 . S
O379 C391 1.242 . S
O380 Eu361 2.418 . S
O380 C362 1.244 . S
O381 Eu360 2.488 . S
O381 C369 1.249 . S
O382 Eu360 2.471 . S
O382 C369 1.244 . S
O383 Eu360 2.349 . S
O383 C362 1.265 . S
C384 C385 1.379 . S
C384 C388 1.373 . S
C384 C390 1.505 . S
C385 C384 1.379 . S
C385 C387 1.369 . S
C385 H396 0.930 . S
C386 C388 1.383 . S
C386 C389 1.382 . S
C386 H397 0.930 . S
C387 C385 1.369 . S
C387 C389 1.392 . S
C387 H398 0.930 . S
C388 C384 1.373 . S
C388 C386 1.383 . S
C388 H399 0.931 . S
C389 C386 1.382 . S
C389 C387 1.392 . S
C390 Eu361 2.828 . S
C390 O374 1.249 . S
C390 O375 1.244 . S
C390 C384 1.505 . S
C391 O378 1.258 . S
C391 O379 1.242 . S
H392 C364 0.930 . S
H393 C365 0.930 . S
H394 C366 0.930 . S
H395 C367 0.931 . S
H396 C385 0.930 . S
H397 C386 0.930 . S
H398 C387 0.930 . S
H399 C388 0.931 . S
Eu400 C409 2.828 . S
Eu400 O411 2.392 1_556 S
Eu400 O413 2.418 1_556 S
Eu400 O418 2.373 1_556 S
Eu400 O421 2.488 . S
Eu400 O422 2.471 . S
Eu400 O423 2.348 1_556 S
Eu401 O410 2.373 . S
Eu401 O414 2.488 . S
Eu401 O415 2.471 . S
Eu401 O416 2.349 . S
Eu401 O419 2.392 . S
Eu401 O420 2.418 . S
Eu401 C430 2.828 . S
C402 O420 1.244 1_556 S
C402 O423 1.264 1_556 S
C403 C404 1.379 . S
C403 C407 1.373 . S
C403 C409 1.505 . S
C404 C403 1.379 . S
C404 C406 1.369 . S
C404 H432 0.930 . S
C405 C407 1.383 . S
C405 C408 1.382 . S
C405 H433 0.930 . S
C406 C404 1.369 . S
C406 C408 1.392 . S
C406 H434 0.930 . S
C407 C403 1.373 . S
C407 C405 1.383 . S
C407 H435 0.931 . S
C408 C405 1.382 . S
C408 C406 1.392 . S
C409 Eu400 2.828 . S
C409 C403 1.505 . S
C409 O421 1.249 . S
C409 O422 1.244 . S
O410 Eu401 2.373 . S
O410 C412 1.258 . S
O411 Eu400 2.392 1_554 S
O411 C412 1.242 . S
C412 O410 1.258 . S
C412 O411 1.242 . S
O413 Eu400 2.418 1_554 S
O413 C417 1.244 . S
O414 Eu401 2.488 . S
O414 C430 1.249 . S
O415 Eu401 2.471 . S
O415 C430 1.244 . S
O416 Eu401 2.349 . S
O416 C417 1.265 . S
C417 O413 1.244 . S
C417 O416 1.265 . S
O418 Eu400 2.373 1_554 S
O418 C431 1.258 . S
O419 Eu401 2.392 . S
O419 C431 1.242 . S
O420 Eu401 2.418 . S
O420 C402 1.244 1_554 S
O421 Eu400 2.488 . S
O421 C409 1.249 . S
O422 Eu400 2.471 . S
O422 C409 1.244 . S
O423 Eu400 2.348 1_554 S
O423 C402 1.264 1_554 S
C424 C425 1.379 . S
C424 C428 1.373 . S
C424 C430 1.505 . S
C425 C424 1.379 . S
C425 C427 1.369 . S
C425 H436 0.930 . S
C426 C428 1.383 . S
C426 C429 1.382 . S
C426 H437 0.930 . S
C427 C425 1.369 . S
C427 C429 1.392 . S
C427 H438 0.930 . S
C428 C424 1.373 . S
C428 C426 1.383 . S
C428 H439 0.931 . S
C429 C426 1.382 . S
C429 C427 1.392 . S
C430 Eu401 2.828 . S
C430 O414 1.249 . S
C430 O415 1.244 . S
C430 C424 1.505 . S
C431 O418 1.258 . S
C431 O419 1.242 . S
H432 C404 0.930 . S
H433 C405 0.930 . S
H434 C406 0.930 . S
H435 C407 0.931 . S
H436 C425 0.930 . S
H437 C426 0.930 . S
H438 C427 0.930 . S
H439 C428 0.931 . S
Eu440 C449 2.828 . S
Eu440 O451 2.392 . S
Eu440 O453 2.418 . S
Eu440 O458 2.373 . S
Eu440 O461 2.488 . S
Eu440 O462 2.471 . S
Eu440 O463 2.349 . S
Eu441 O450 2.373 . S
Eu441 O454 2.488 . S
Eu441 O455 2.471 . S
Eu441 O456 2.349 . S
Eu441 O459 2.392 . S
Eu441 O460 2.418 . S
Eu441 C470 2.828 . S
C442 O460 1.244 . S
C442 O463 1.265 . S
C443 C444 1.379 . S
C443 C447 1.373 . S
C443 C449 1.505 . S
C444 C443 1.379 . S
C444 C446 1.369 . S
C444 H472 0.930 . S
C445 C447 1.383 . S
C445 C448 1.382 . S
C445 H473 0.930 . S
C446 C444 1.369 . S
C446 C448 1.392 . S
C446 H474 0.930 . S
C447 C443 1.373 . S
C447 C445 1.383 . S
C447 H475 0.931 . S
C448 C445 1.382 . S
C448 C446 1.392 . S
C449 Eu440 2.828 . S
C449 C443 1.505 . S
C449 O461 1.249 . S
C449 O462 1.244 . S
O450 Eu441 2.373 . S
O450 C452 1.258 . S
O451 Eu440 2.392 . S
O451 C452 1.242 . S
C452 O450 1.258 . S
C452 O451 1.242 . S
O453 Eu440 2.418 . S
O453 C457 1.244 . S
O454 Eu441 2.488 . S
O454 C470 1.249 . S
O455 Eu441 2.471 . S
O455 C470 1.244 . S
O456 Eu441 2.349 . S
O456 C457 1.265 . S
C457 O453 1.244 . S
C457 O456 1.265 . S
O458 Eu440 2.373 . S
O458 C471 1.258 . S
O459 Eu441 2.392 . S
O459 C471 1.242 . S
O460 Eu441 2.418 . S
O460 C442 1.244 . S
O461 Eu440 2.488 . S
O461 C449 1.249 . S
O462 Eu440 2.471 . S
O462 C449 1.244 . S
O463 Eu440 2.349 . S
O463 C442 1.265 . S
C464 C465 1.379 . S
C464 C468 1.373 . S
C464 C470 1.505 . S
C465 C464 1.379 . S
C465 C467 1.369 . S
C465 H476 0.930 . S
C466 C468 1.383 . S
C466 C469 1.382 . S
C466 H477 0.930 . S
C467 C465 1.369 . S
C467 C469 1.392 . S
C467 H478 0.930 . S
C468 C464 1.373 . S
C468 C466 1.383 . S
C468 H479 0.931 . S
C469 C466 1.382 . S
C469 C467 1.392 . S
C470 Eu441 2.828 . S
C470 O454 1.249 . S
C470 O455 1.244 . S
C470 C464 1.505 . S
C471 O458 1.258 . S
C471 O459 1.242 . S
H472 C444 0.930 . S
H473 C445 0.930 . S
H474 C446 0.930 . S
H475 C447 0.931 . S
H476 C465 0.930 . S
H477 C466 0.930 . S
H478 C467 0.930 . S
H479 C468 0.931 . S
Eu480 C489 2.828 . S
Eu480 O491 2.392 . S
Eu480 O493 2.418 . S
Eu480 O498 2.373 . S
Eu480 O501 2.488 . S
Eu480 O502 2.471 . S
Eu480 O503 2.349 . S
Eu481 O490 2.373 . S
Eu481 O494 2.488 . S
Eu481 O495 2.471 . S
Eu481 O496 2.349 . S
Eu481 O499 2.392 . S
Eu481 O500 2.418 . S
Eu481 C510 2.828 . S
C482 O500 1.244 . S
C482 O503 1.265 . S
C483 C484 1.379 . S
C483 C487 1.373 . S
C483 C489 1.505 . S
C484 C483 1.379 . S
C484 C486 1.369 . S
C484 H512 0.930 . S
C485 C487 1.383 . S
C485 C488 1.382 . S
C485 H513 0.930 . S
C486 C484 1.369 . S
C486 C488 1.392 . S
C486 H514 0.930 . S
C487 C483 1.373 . S
C487 C485 1.383 . S
C487 H515 0.931 . S
C488 C485 1.382 . S
C488 C486 1.392 . S
C489 Eu480 2.828 . S
C489 C483 1.505 . S
C489 O501 1.249 . S
C489 O502 1.244 . S
O490 Eu481 2.373 . S
O490 C492 1.258 . S
O491 Eu480 2.392 . S
O491 C492 1.242 . S
C492 O490 1.258 . S
C492 O491 1.242 . S
O493 Eu480 2.418 . S
O493 C497 1.244 . S
O494 Eu481 2.488 . S
O494 C510 1.249 . S
O495 Eu481 2.471 . S
O495 C510 1.244 . S
O496 Eu481 2.349 . S
O496 C497 1.265 . S
C497 O493 1.244 . S
C497 O496 1.265 . S
O498 Eu480 2.373 . S
O498 C511 1.258 . S
O499 Eu481 2.392 . S
O499 C511 1.242 . S
O500 Eu481 2.418 . S
O500 C482 1.244 . S
O501 Eu480 2.488 . S
O501 C489 1.249 . S
O502 Eu480 2.471 . S
O502 C489 1.244 . S
O503 Eu480 2.349 . S
O503 C482 1.265 . S
C504 C505 1.379 . S
C504 C508 1.373 . S
C504 C510 1.505 . S
C505 C504 1.379 . S
C505 C507 1.369 . S
C505 H516 0.930 . S
C506 C508 1.383 . S
C506 C509 1.382 . S
C506 H517 0.930 . S
C507 C505 1.369 . S
C507 C509 1.392 . S
C507 H518 0.930 . S
C508 C504 1.373 . S
C508 C506 1.383 . S
C508 H519 0.931 . S
C509 C506 1.382 . S
C509 C507 1.392 . S
C510 Eu481 2.828 . S
C510 O494 1.249 . S
C510 O495 1.244 . S
C510 C504 1.505 . S
C511 O498 1.258 . S
C511 O499 1.242 . S
H512 C484 0.930 . S
H513 C485 0.930 . S
H514 C486 0.930 . S
H515 C487 0.931 . S
H516 C505 0.930 . S
H517 C506 0.930 . S
H518 C507 0.930 . S
H519 C508 0.931 . S
Eu520 C529 2.828 . S
Eu520 O531 2.392 . S
Eu520 O533 2.418 . S
Eu520 O538 2.373 . S
Eu520 O541 2.488 . S
Eu520 O542 2.471 . S
Eu520 O543 2.349 . S
Eu521 O530 2.373 . S
Eu521 O534 2.488 . S
Eu521 O535 2.471 . S
Eu521 O536 2.349 . S
Eu521 O539 2.392 . S
Eu521 O540 2.418 . S
Eu521 C550 2.828 . S
C522 O540 1.244 . S
C522 O543 1.265 . S
C523 C524 1.379 . S
C523 C527 1.373 . S
C523 C529 1.505 . S
C524 C523 1.379 . S
C524 C526 1.369 . S
C524 H552 0.930 . S
C525 C527 1.383 . S
C525 C528 1.382 . S
C525 H553 0.930 . S
C526 C524 1.369 . S
C526 C528 1.392 . S
C526 H554 0.930 . S
C527 C523 1.373 . S
C527 C525 1.383 . S
C527 H555 0.931 . S
C528 C525 1.382 . S
C528 C526 1.392 . S
C529 Eu520 2.828 . S
C529 C523 1.505 . S
C529 O541 1.249 . S
C529 O542 1.244 . S
O530 Eu521 2.373 . S
O530 C532 1.258 . S
O531 Eu520 2.392 . S
O531 C532 1.242 . S
C532 O530 1.258 . S
C532 O531 1.242 . S
O533 Eu520 2.418 . S
O533 C537 1.244 . S
O534 Eu521 2.488 . S
O534 C550 1.249 . S
O535 Eu521 2.471 . S
O535 C550 1.244 . S
O536 Eu521 2.349 . S
O536 C537 1.265 . S
C537 O533 1.244 . S
C537 O536 1.265 . S
O538 Eu520 2.373 . S
O538 C551 1.258 . S
O539 Eu521 2.392 . S
O539 C551 1.242 . S
O540 Eu521 2.418 . S
O540 C522 1.244 . S
O541 Eu520 2.488 . S
O541 C529 1.249 . S
O542 Eu520 2.471 . S
O542 C529 1.244 . S
O543 Eu520 2.349 . S
O543 C522 1.265 . S
C544 C545 1.379 . S
C544 C548 1.373 . S
C544 C550 1.505 . S
C545 C544 1.379 . S
C545 C547 1.369 . S
C545 H556 0.930 . S
C546 C548 1.383 . S
C546 C549 1.382 . S
C546 H557 0.930 . S
C547 C545 1.369 . S
C547 C549 1.392 . S
C547 H558 0.930 . S
C548 C544 1.373 . S
C548 C546 1.383 . S
C548 H559 0.931 . S
C549 C546 1.382 . S
C549 C547 1.392 . S
C550 Eu521 2.828 . S
C550 O534 1.249 . S
C550 O535 1.244 . S
C550 C544 1.505 . S
C551 O538 1.258 . S
C551 O539 1.242 . S
H552 C524 0.930 . S
H553 C525 0.930 . S
H554 C526 0.930 . S
H555 C527 0.931 . S
H556 C545 0.930 . S
H557 C546 0.930 . S
H558 C547 0.930 . S
H559 C548 0.931 . S
Eu560 C569 2.828 . S
Eu560 O571 2.392 . S
Eu560 O573 2.418 . S
Eu560 O578 2.373 . S
Eu560 O581 2.488 . S
Eu560 O582 2.471 . S
Eu560 O583 2.349 . S
Eu561 O570 2.373 1_554 S
Eu561 O574 2.488 . S
Eu561 O575 2.471 . S
Eu561 O576 2.348 1_554 S
Eu561 O579 2.392 1_554 S
Eu561 O580 2.418 1_554 S
Eu561 C590 2.828 . S
C562 O580 1.244 . S
C562 O583 1.265 . S
C563 C564 1.379 . S
C563 C567 1.373 . S
C563 C569 1.505 . S
C564 C563 1.379 . S
C564 C566 1.369 . S
C564 H592 0.930 . S
C565 C567 1.383 . S
C565 C568 1.382 . S
C565 H593 0.930 . S
C566 C564 1.369 . S
C566 C568 1.392 . S
C566 H594 0.930 . S
C567 C563 1.373 . S
C567 C565 1.383 . S
C567 H595 0.931 . S
C568 C565 1.382 . S
C568 C566 1.392 . S
C569 Eu560 2.828 . S
C569 C563 1.505 . S
C569 O581 1.249 . S
C569 O582 1.244 . S
O570 Eu561 2.373 1_556 S
O570 C572 1.258 . S
O571 Eu560 2.392 . S
O571 C572 1.242 . S
C572 O570 1.258 . S
C572 O571 1.242 . S
O573 Eu560 2.418 . S
O573 C577 1.244 1_556 S
O574 Eu561 2.488 . S
O574 C590 1.249 . S
O575 Eu561 2.471 . S
O575 C590 1.244 . S
O576 Eu561 2.348 1_556 S
O576 C577 1.264 1_556 S
C577 O573 1.244 1_554 S
C577 O576 1.264 1_554 S
O578 Eu560 2.373 . S
O578 C591 1.258 . S
O579 Eu561 2.392 1_556 S
O579 C591 1.242 . S
O580 Eu561 2.418 1_556 S
O580 C562 1.244 . S
O581 Eu560 2.488 . S
O581 C569 1.249 . S
O582 Eu560 2.471 . S
O582 C569 1.244 . S
O583 Eu560 2.349 . S
O583 C562 1.265 . S
C584 C585 1.379 . S
C584 C588 1.373 . S
C584 C590 1.505 . S
C585 C584 1.379 . S
C585 C587 1.369 . S
C585 H596 0.930 . S
C586 C588 1.383 . S
C586 C589 1.382 . S
C586 H597 0.930 . S
C587 C585 1.369 . S
C587 C589 1.392 . S
C587 H598 0.930 . S
C588 C584 1.373 . S
C588 C586 1.383 . S
C588 H599 0.931 . S
C589 C586 1.382 . S
C589 C587 1.392 . S
C590 Eu561 2.828 . S
C590 O574 1.249 . S
C590 O575 1.244 . S
C590 C584 1.505 . S
C591 O578 1.258 . S
C591 O579 1.242 . S
H592 C564 0.930 . S
H593 C565 0.930 . S
H594 C566 0.930 . S
H595 C567 0.931 . S
H596 C585 0.930 . S
H597 C586 0.930 . S
H598 C587 0.930 . S
H599 C588 0.931 . S
Eu600 C609 2.828 . S
Eu600 O611 2.392 . S
Eu600 O613 2.418 . S
Eu600 O618 2.373 . S
Eu600 O621 2.488 . S
Eu600 O622 2.471 . S
Eu600 O623 2.349 . S
Eu601 O610 2.373 . S
Eu601 O614 2.488 . S
Eu601 O615 2.471 . S
Eu601 O616 2.349 . S
Eu601 O619 2.392 . S
Eu601 O620 2.418 . S
Eu601 C630 2.828 . S
C602 O620 1.244 . S
C602 O623 1.265 . S
C603 C604 1.379 . S
C603 C607 1.373 . S
C603 C609 1.505 . S
C604 C603 1.379 . S
C604 C606 1.369 . S
C604 H632 0.930 . S
C605 C607 1.383 . S
C605 C608 1.382 . S
C605 H633 0.930 . S
C606 C604 1.369 . S
C606 C608 1.392 . S
C606 H634 0.930 . S
C607 C603 1.373 . S
C607 C605 1.383 . S
C607 H635 0.931 . S
C608 C605 1.382 . S
C608 C606 1.392 . S
C609 Eu600 2.828 . S
C609 C603 1.505 . S
C609 O621 1.249 . S
C609 O622 1.244 . S
O610 Eu601 2.373 . S
O610 C612 1.258 . S
O611 Eu600 2.392 . S
O611 C612 1.242 . S
C612 O610 1.258 . S
C612 O611 1.242 . S
O613 Eu600 2.418 . S
O613 C617 1.244 . S
O614 Eu601 2.488 . S
O614 C630 1.249 . S
O615 Eu601 2.471 . S
O615 C630 1.244 . S
O616 Eu601 2.349 . S
O616 C617 1.265 . S
C617 O613 1.244 . S
C617 O616 1.265 . S
O618 Eu600 2.373 . S
O618 C631 1.258 . S
O619 Eu601 2.392 . S
O619 C631 1.242 . S
O620 Eu601 2.418 . S
O620 C602 1.244 . S
O621 Eu600 2.488 . S
O621 C609 1.249 . S
O622 Eu600 2.471 . S
O622 C609 1.244 . S
O623 Eu600 2.349 . S
O623 C602 1.265 . S
C624 C625 1.379 . S
C624 C628 1.373 . S
C624 C630 1.505 . S
C625 C624 1.379 . S
C625 C627 1.369 . S
C625 H636 0.930 . S
C626 C628 1.383 . S
C626 C629 1.382 . S
C626 H637 0.930 . S
C627 C625 1.369 . S
C627 C629 1.392 . S
C627 H638 0.930 . S
C628 C624 1.373 . S
C628 C626 1.383 . S
C628 H639 0.931 . S
C629 C626 1.382 . S
C629 C627 1.392 . S
C630 Eu601 2.828 . S
C630 O614 1.249 . S
C630 O615 1.244 . S
C630 C624 1.505 . S
C631 O618 1.258 . S
C631 O619 1.242 . S
H632 C604 0.930 . S
H633 C605 0.930 . S
H634 C606 0.930 . S
H635 C607 0.931 . S
H636 C625 0.930 . S
H637 C626 0.930 . S
H638 C627 0.930 . S
H639 C628 0.931 . S
H640 C646 0.930 . S
H641 C650 0.930 . S
H642 C655 0.929 . S
H643 C653 0.929 . S
H644 C648 0.929 . S
H645 C654 0.929 . S
C646 H640 0.930 . S
C646 C647 1.367 . S
C646 C654 1.378 . S
C647 C646 1.367 . S
C647 C655 1.433 . S
C648 H644 0.929 . S
C648 C650 1.378 . S
C648 C652 1.350 . S
C649 C652 1.463 . S
C649 C654 1.350 . S
C649 N657 1.427 . S
C650 H641 0.930 . S
C650 C648 1.378 . S
C650 C651 1.367 . S
C651 C650 1.367 . S
C651 C653 1.433 . S
C652 C648 1.350 . S
C652 C649 1.463 . S
C652 N656 1.427 . S
C653 H643 0.929 . S
C653 C651 1.433 . S
C653 N656 1.384 . S
C654 H645 0.929 . S
C654 C646 1.378 . S
C654 C649 1.350 . S
C655 H642 0.929 . S
C655 C647 1.433 . S
C655 N657 1.384 . S
N656 C652 1.427 . S
N656 C653 1.384 . S
N657 C649 1.427 . S
N657 C655 1.384 . S
H658 C664 0.930 . S
H659 C668 0.930 . S
H660 C673 0.929 . S
H661 C671 0.929 . S
H662 C666 0.929 . S
H663 C672 0.929 . S
C664 H658 0.930 . S
C664 C665 1.367 . S
C664 C672 1.378 . S
C665 C664 1.367 . S
C665 C673 1.433 . S
C666 H662 0.929 . S
C666 C668 1.378 . S
C666 C670 1.350 . S
C667 C670 1.463 . S
C667 C672 1.350 . S
C667 N675 1.427 . S
C668 H659 0.930 . S
C668 C666 1.378 . S
C668 C669 1.367 . S
C669 C668 1.367 . S
C669 C671 1.433 . S
C670 C666 1.350 . S
C670 C667 1.463 . S
C670 N674 1.427 . S
C671 H661 0.929 . S
C671 C669 1.433 . S
C671 N674 1.384 . S
C672 H663 0.929 . S
C672 C664 1.378 . S
C672 C667 1.350 . S
C673 H660 0.929 . S
C673 C665 1.433 . S
C673 N675 1.384 . S
N674 C670 1.427 . S
N674 C671 1.384 . S
N675 C667 1.427 . S
N675 C673 1.384 . S
H676 C682 0.930 . S
H677 C686 0.930 . S
H678 C691 0.929 . S
H679 C689 0.929 . S
H680 C684 0.929 . S
H681 C690 0.929 . S
C682 H676 0.930 . S
C682 C683 1.367 . S
C682 C690 1.378 . S
C683 C682 1.367 . S
C683 C691 1.433 . S
C684 H680 0.929 . S
C684 C686 1.378 . S
C684 C688 1.350 . S
C685 C688 1.463 1_455 S
C685 C690 1.350 . S
C685 N693 1.427 . S
C686 H677 0.930 . S
C686 C684 1.378 . S
C686 C687 1.367 . S
C687 C686 1.367 . S
C687 C689 1.433 . S
C688 C684 1.350 . S
C688 C685 1.463 1_655 S
C688 N692 1.427 . S
C689 H679 0.929 . S
C689 C687 1.433 . S
C689 N692 1.384 . S
C690 H681 0.929 . S
C690 C682 1.378 . S
C690 C685 1.350 . S
C691 H678 0.929 . S
C691 C683 1.433 . S
C691 N693 1.384 . S
N692 C688 1.427 . S
N692 C689 1.384 . S
N693 C685 1.427 . S
N693 C691 1.384 . S
H694 C700 0.930 . S
H695 C704 0.930 . S
H696 C709 0.929 . S
H697 C707 0.929 . S
H698 C702 0.929 . S
H699 C708 0.929 . S
C700 H694 0.930 . S
C700 C701 1.367 . S
C700 C708 1.378 . S
C701 C700 1.367 . S
C701 C709 1.433 . S
C702 H698 0.929 . S
C702 C704 1.378 . S
C702 C706 1.350 . S
C703 C706 1.463 1_655 S
C703 C708 1.350 . S
C703 N711 1.427 . S
C704 H695 0.930 . S
C704 C702 1.378 . S
C704 C705 1.367 . S
C705 C704 1.367 . S
C705 C707 1.433 . S
C706 C702 1.350 . S
C706 C703 1.463 1_455 S
C706 N710 1.427 . S
C707 H697 0.929 . S
C707 C705 1.433 . S
C707 N710 1.384 . S
C708 H699 0.929 . S
C708 C700 1.378 . S
C708 C703 1.350 . S
C709 H696 0.929 . S
C709 C701 1.433 . S
C709 N711 1.384 . S
N710 C706 1.427 . S
N710 C707 1.384 . S
N711 C703 1.427 . S
N711 C709 1.384 . S
H712 C718 0.930 . S
H713 C722 0.930 . S
H714 C727 0.949 . S
H715 C725 0.929 . S
H716 C720 0.929 . S
H717 C726 0.929 . S
C718 H712 0.930 . S
C718 C719 1.367 . S
C718 C726 1.378 . S
C719 C718 1.367 . S
C719 C727 1.433 . S
C720 H716 0.929 . S
C720 C722 1.378 . S
C720 C724 1.350 . S
C721 C724 1.463 . S
C721 C726 1.350 . S
C721 N729 1.427 . S
C722 H713 0.930 . S
C722 C720 1.378 . S
C722 C723 1.367 . S
C723 C722 1.367 . S
C723 C725 1.433 . S
C724 C720 1.350 . S
C724 C721 1.463 . S
C724 N728 1.427 . S
C725 H715 0.929 . S
C725 C723 1.433 . S
C725 N728 1.384 . S
C726 H717 0.929 . S
C726 C718 1.378 . S
C726 C721 1.350 . S
C727 H714 0.949 . S
C727 C719 1.433 . S
C727 N729 1.384 . S
N728 C724 1.427 . S
N728 C725 1.384 . S
N729 C721 1.427 . S
N729 C727 1.384 . S
H730 C736 0.930 . S
H731 C740 0.930 . S
H732 C745 0.929 . S
H733 C743 0.929 . S
H734 C738 0.929 . S
H735 C744 0.929 . S
C736 H730 0.930 . S
C736 C737 1.367 . S
C736 C744 1.378 . S
C737 C736 1.367 . S
C737 C745 1.433 . S
C738 H734 0.929 . S
C738 C740 1.378 . S
C738 C742 1.350 . S
C739 C742 1.463 . S
C739 C744 1.350 . S
C739 N747 1.427 . S
C740 H731 0.930 . S
C740 C738 1.378 . S
C740 C741 1.367 . S
C741 C740 1.367 . S
C741 C743 1.433 . S
C742 C738 1.350 . S
C742 C739 1.463 . S
C742 N746 1.427 . S
C743 H733 0.929 . S
C743 C741 1.433 . S
C743 N746 1.384 . S
C744 H735 0.929 . S
C744 C736 1.378 . S
C744 C739 1.350 . S
C745 H732 0.929 . S
C745 C737 1.433 . S
C745 N747 1.384 . S
N746 C742 1.427 . S
N746 C743 1.384 . S
N747 C739 1.427 . S
N747 C745 1.384 . S
H748 C754 0.930 . S
H749 C758 0.930 . S
H750 C763 0.929 . S
H751 C761 0.929 . S
H752 C756 0.929 . S
H753 C762 0.929 . S
C754 H748 0.930 . S
C754 C755 1.367 . S
C754 C762 1.378 . S
C755 C754 1.367 . S
C755 C763 1.433 . S
C756 H752 0.929 . S
C756 C758 1.378 . S
C756 C760 1.350 . S
C757 C760 1.463 1_655 S
C757 C762 1.350 . S
C757 N765 1.432 . S
C758 H749 0.930 . S
C758 C756 1.378 . S
C758 C759 1.367 . S
C759 C758 1.367 . S
C759 C761 1.433 . S
C760 C756 1.350 . S
C760 C757 1.463 1_455 S
C760 N764 1.432 . S
C761 H751 0.929 . S
C761 C759 1.433 . S
C761 N764 1.392 . S
C762 H753 0.929 . S
C762 C754 1.378 . S
C762 C757 1.350 . S
C763 H750 0.929 . S
C763 C755 1.433 . S
C763 N765 1.392 . S
N764 C760 1.432 . S
N764 C761 1.392 . S
N765 C757 1.432 . S
N765 C763 1.392 . S
H766 C772 0.930 . S
H767 C776 0.930 . S
H768 C781 0.929 . S
H769 C779 0.929 . S
H770 C774 0.929 . S
H771 C780 0.929 . S
C772 H766 0.930 . S
C772 C773 1.367 . S
C772 C780 1.378 . S
C773 C772 1.367 . S
C773 C781 1.433 . S
C774 H770 0.929 . S
C774 C776 1.378 . S
C774 C778 1.350 . S
C775 C778 1.463 1_455 S
C775 C780 1.350 . S
C775 N783 1.427 . S
C776 H767 0.930 . S
C776 C774 1.378 . S
C776 C777 1.367 . S
C777 C776 1.367 . S
C777 C779 1.433 . S
C778 C774 1.350 . S
C778 C775 1.463 1_655 S
C778 N782 1.427 . S
C779 H769 0.929 . S
C779 C777 1.433 . S
C779 N782 1.384 . S
C780 H771 0.929 . S
C780 C772 1.378 . S
C780 C775 1.350 . S
C781 H768 0.929 . S
C781 C773 1.433 . S
C781 N783 1.384 . S
N782 C778 1.427 . S
N782 C779 1.384 . S
N783 C775 1.427 . S
N783 C781 1.384 . S
H784 C790 0.930 . S
H785 C794 0.930 1_554 S
H786 C799 0.929 . S
H787 C797 0.929 . S
H788 C792 0.929 . S
H789 C798 0.929 . S
C790 H784 0.930 . S
C790 C791 1.367 . S
C790 C798 1.378 . S
C791 C790 1.367 . S
C791 C799 1.433 . S
C792 H788 0.929 . S
C792 C794 1.378 . S
C792 C796 1.350 . S
C793 C796 1.463 . S
C793 C798 1.350 . S
C793 N801 1.427 . S
C794 H785 0.930 1_556 S
C794 C792 1.378 . S
C794 C795 1.367 . S
C795 C794 1.367 . S
C795 C797 1.433 . S
C796 C792 1.350 . S
C796 C793 1.463 . S
C796 N800 1.427 . S
C797 H787 0.929 . S
C797 C795 1.433 . S
C797 N800 1.384 . S
C798 H789 0.929 . S
C798 C790 1.378 . S
C798 C793 1.350 . S
C799 H786 0.929 . S
C799 C791 1.433 . S
C799 N801 1.384 . S
N800 C796 1.427 . S
N800 C797 1.384 . S
N801 C793 1.427 . S
N801 C799 1.384 . S
H802 C808 0.930 . S
H803 C812 0.930 . S
H804 C817 0.929 . S
H805 C815 0.929 . S
H806 C810 0.929 . S
H807 C816 0.929 . S
C808 H802 0.930 . S
C808 C809 1.367 . S
C808 C816 1.378 . S
C809 C808 1.367 . S
C809 C817 1.433 . S
C810 H806 0.929 . S
C810 C812 1.378 . S
C810 C814 1.350 . S
C811 C814 1.463 . S
C811 C816 1.350 . S
C811 N819 1.427 . S
C812 H803 0.930 . S
C812 C810 1.378 . S
C812 C813 1.367 . S
C813 C812 1.367 . S
C813 C815 1.433 . S
C814 C810 1.350 . S
C814 C811 1.463 . S
C814 N818 1.427 . S
C815 H805 0.929 . S
C815 C813 1.433 . S
C815 N818 1.384 . S
C816 H807 0.929 . S
C816 C808 1.378 . S
C816 C811 1.350 . S
C817 H804 0.929 . S
C817 C809 1.433 . S
C817 N819 1.384 . S
N818 C814 1.427 . S
N818 C815 1.384 . S
N819 C811 1.427 . S
N819 C817 1.384 . S
H820 C826 0.930 . S
H821 C830 0.930 . S
H822 C835 0.929 . S
H823 C833 0.929 . S
H824 C828 0.929 . S
H825 C834 0.929 . S
C826 H820 0.930 . S
C826 C827 1.367 . S
C826 C834 1.378 . S
C827 C826 1.367 . S
C827 C835 1.433 . S
C828 H824 0.929 . S
C828 C830 1.378 . S
C828 C832 1.350 . S
C829 C832 1.463 . S
C829 C834 1.350 . S
C829 N837 1.427 . S
C830 H821 0.930 . S
C830 C828 1.378 . S
C830 C831 1.367 . S
C831 C830 1.367 . S
C831 C833 1.433 . S
C832 C828 1.350 . S
C832 C829 1.463 . S
C832 N836 1.427 . S
C833 H823 0.929 . S
C833 C831 1.433 . S
C833 N836 1.384 . S
C834 H825 0.929 . S
C834 C826 1.378 . S
C834 C829 1.350 . S
C835 H822 0.929 . S
C835 C827 1.433 . S
C835 N837 1.384 . S
N836 C832 1.427 . S
N836 C833 1.384 . S
N837 C829 1.427 . S
N837 C835 1.384 . S
H838 C844 0.930 . S
H839 C848 0.930 . S
H840 C853 0.929 . S
H841 C851 0.929 . S
H842 C846 0.929 . S
H843 C852 0.929 . S
C844 H838 0.930 . S
C844 C845 1.367 . S
C844 C852 1.378 . S
C845 C844 1.367 . S
C845 C853 1.433 . S
C846 H842 0.929 . S
C846 C848 1.378 . S
C846 C850 1.350 . S
C847 C850 1.463 . S
C847 C852 1.350 . S
C847 N855 1.427 . S
C848 H839 0.930 . S
C848 C846 1.378 . S
C848 C849 1.367 . S
C849 C848 1.367 . S
C849 C851 1.433 . S
C850 C846 1.350 . S
C850 C847 1.463 . S
C850 N854 1.427 . S
C851 H841 0.929 . S
C851 C849 1.433 . S
C851 N854 1.384 . S
C852 H843 0.929 . S
C852 C844 1.378 . S
C852 C847 1.350 . S
C853 H840 0.929 . S
C853 C845 1.433 . S
C853 N855 1.384 . S
N854 C850 1.427 . S
N854 C851 1.384 . S
N855 C847 1.427 . S
N855 C853 1.384 . S
H856 C862 0.930 . S
H857 C866 0.930 . S
H858 C871 0.929 . S
H859 C869 0.929 . S
H860 C864 0.929 . S
H861 C870 0.929 . S
C862 H856 0.930 . S
C862 C863 1.367 . S
C862 C870 1.378 . S
C863 C862 1.367 . S
C863 C871 1.433 . S
C864 H860 0.929 . S
C864 C866 1.378 . S
C864 C868 1.350 . S
C865 C868 1.463 . S
C865 C870 1.350 . S
C865 N873 1.427 . S
C866 H857 0.930 . S
C866 C864 1.378 . S
C866 C867 1.367 . S
C867 C866 1.367 . S
C867 C869 1.433 . S
C868 C864 1.350 . S
C868 C865 1.463 . S
C868 N872 1.427 . S
C869 H859 0.929 . S
C869 C867 1.433 . S
C869 N872 1.384 . S
C870 H861 0.929 . S
C870 C862 1.378 . S
C870 C865 1.350 . S
C871 H858 0.929 . S
C871 C863 1.433 . S
C871 N873 1.384 . S
N872 C868 1.427 . S
N872 C869 1.384 . S
N873 C865 1.427 . S
N873 C871 1.384 . S
H874 C880 0.930 . S
H875 C884 0.930 . S
H876 C889 0.929 . S
H877 C887 0.929 . S
H878 C882 0.929 . S
H879 C888 0.929 . S
C880 H874 0.930 . S
C880 C881 1.367 . S
C880 C888 1.378 . S
C881 C880 1.367 . S
C881 C889 1.433 . S
C882 H878 0.929 . S
C882 C884 1.378 . S
C882 C886 1.350 . S
C883 C886 1.463 . S
C883 C888 1.350 . S
C883 N891 1.427 . S
C884 H875 0.930 . S
C884 C882 1.378 . S
C884 C885 1.367 . S
C885 C884 1.367 . S
C885 C887 1.433 . S
C886 C882 1.350 . S
C886 C883 1.463 . S
C886 N890 1.427 . S
C887 H877 0.929 . S
C887 C885 1.433 . S
C887 N890 1.384 . S
C888 H879 0.929 . S
C888 C880 1.378 . S
C888 C883 1.350 . S
C889 H876 0.929 . S
C889 C881 1.433 . S
C889 N891 1.384 . S
N890 C886 1.427 . S
N890 C887 1.384 . S
N891 C883 1.427 . S
N891 C889 1.384 . S
H892 C898 0.930 . S
H893 C902 0.930 . S
H894 C907 0.929 . S
H895 C905 0.929 . S
H896 C900 0.929 . S
H897 C906 0.929 . S
C898 H892 0.930 . S
C898 C899 1.367 . S
C898 C906 1.378 . S
C899 C898 1.367 . S
C899 C907 1.433 . S
C900 H896 0.929 . S
C900 C902 1.378 . S
C900 C904 1.350 . S
C901 C904 1.463 . S
C901 C906 1.350 . S
C901 N909 1.427 . S
C902 H893 0.930 . S
C902 C900 1.378 . S
C902 C903 1.367 . S
C903 C902 1.367 . S
C903 C905 1.433 . S
C904 C900 1.350 . S
C904 C901 1.463 . S
C904 N908 1.427 . S
C905 H895 0.929 . S
C905 C903 1.433 . S
C905 N908 1.384 . S
C906 H897 0.929 . S
C906 C898 1.378 . S
C906 C901 1.350 . S
C907 H894 0.929 . S
C907 C899 1.433 . S
C907 N909 1.384 . S
N908 C904 1.427 . S
N908 C905 1.384 . S
N909 C901 1.427 . S
N909 C907 1.384 . S
H910 C916 0.930 . S
H911 C920 0.930 . S
H912 C925 0.929 . S
H913 C923 0.929 . S
H914 C918 0.929 . S
H915 C924 0.929 . S
C916 H910 0.930 . S
C916 C917 1.367 . S
C916 C924 1.378 . S
C917 C916 1.367 . S
C917 C925 1.433 . S
C918 H914 0.929 . S
C918 C920 1.378 . S
C918 C922 1.350 . S
C919 C922 1.463 . S
C919 C924 1.350 . S
C919 N927 1.427 . S
C920 H911 0.930 . S
C920 C918 1.378 . S
C920 C921 1.367 . S
C921 C920 1.367 . S
C921 C923 1.433 . S
C922 C918 1.350 . S
C922 C919 1.463 . S
C922 N926 1.427 . S
C923 H913 0.929 . S
C923 C921 1.433 . S
C923 N926 1.384 . S
C924 H915 0.929 . S
C924 C916 1.378 . S
C924 C919 1.350 . S
C925 H912 0.929 . S
C925 C917 1.433 . S
C925 N927 1.384 . S
N926 C922 1.427 . S
N926 C923 1.384 . S
N927 C919 1.427 . S
N927 C925 1.384 . S
H928 C934 0.930 . S
H929 C938 0.930 . S
H930 C943 0.929 . S
H931 C941 0.929 . S
H932 C936 0.929 . S
H933 C942 0.929 . S
C934 H928 0.930 . S
C934 C935 1.367 . S
C934 C942 1.378 . S
C935 C934 1.367 . S
C935 C943 1.433 . S
C936 H932 0.929 . S
C936 C938 1.378 . S
C936 C940 1.350 . S
C937 C940 1.463 . S
C937 C942 1.350 . S
C937 N945 1.427 . S
C938 H929 0.930 . S
C938 C936 1.378 . S
C938 C939 1.367 . S
C939 C938 1.367 . S
C939 C941 1.433 . S
C940 C936 1.350 . S
C940 C937 1.463 . S
C940 N944 1.427 . S
C941 H931 0.929 . S
C941 C939 1.433 . S
C941 N944 1.384 . S
C942 H933 0.929 . S
C942 C934 1.378 . S
C942 C937 1.350 . S
C943 H930 0.929 . S
C943 C935 1.433 . S
C943 N945 1.384 . S
N944 C940 1.427 . S
N944 C941 1.384 . S
N945 C937 1.427 . S
N945 C943 1.384 . S
H946 C952 0.930 . S
H947 C956 0.930 . S
H948 C961 0.929 . S
H949 C959 0.929 . S
H950 C954 0.929 . S
H951 C960 0.929 . S
C952 H946 0.930 . S
C952 C953 1.367 . S
C952 C960 1.378 . S
C953 C952 1.367 . S
C953 C961 1.433 . S
C954 H950 0.929 . S
C954 C956 1.378 . S
C954 C958 1.350 . S
C955 C958 1.463 . S
C955 C960 1.350 1_565 S
C955 N963 1.427 . S
C956 H947 0.930 . S
C956 C954 1.378 . S
C956 C957 1.367 . S
C957 C956 1.367 . S
C957 C959 1.433 . S
C958 C954 1.350 . S
C958 C955 1.463 . S
C958 N962 1.427 . S
C959 H949 0.929 . S
C959 C957 1.433 . S
C959 N962 1.384 . S
C960 H951 0.929 . S
C960 C952 1.378 . S
C960 C955 1.350 1_545 S
C961 H948 0.929 . S
C961 C953 1.433 . S
C961 N963 1.384 1_545 S
N962 C958 1.427 . S
N962 C959 1.384 . S
N963 C955 1.427 . S
N963 C961 1.384 1_565 S
H964 C970 0.930 . S
H965 C974 0.930 . S
H966 C979 0.929 . S
H967 C977 0.929 . S
H968 C972 0.929 . S
H969 C978 0.929 . S
C970 H964 0.930 . S
C970 C971 1.367 . S
C970 C978 1.378 . S
C971 C970 1.367 . S
C971 C979 1.433 . S
C972 H968 0.929 . S
C972 C974 1.378 . S
C972 C976 1.350 . S
C973 C976 1.463 . S
C973 C978 1.350 . S
C973 N981 1.427 . S
C974 H965 0.930 . S
C974 C972 1.378 . S
C974 C975 1.367 . S
C975 C974 1.367 . S
C975 C977 1.433 . S
C976 C972 1.350 . S
C976 C973 1.463 . S
C976 N980 1.427 . S
C977 H967 0.929 . S
C977 C975 1.433 . S
C977 N980 1.384 . S
C978 H969 0.929 . S
C978 C970 1.378 . S
C978 C973 1.350 . S
C979 H966 0.929 . S
C979 C971 1.433 . S
C979 N981 1.384 . S
N980 C976 1.427 . S
N980 C977 1.384 . S
N981 C973 1.427 . S
N981 C979 1.384 . S
H982 C988 0.930 . S
H983 C992 0.930 . S
H984 C997 0.929 . S
H985 C995 0.929 . S
H986 C990 0.929 . S
H987 C996 0.929 . S
C988 H982 0.930 . S
C988 C989 1.367 . S
C988 C996 1.378 1_565 S
C989 C988 1.367 . S
C989 C997 1.433 . S
C990 H986 0.929 . S
C990 C992 1.378 . S
C990 C994 1.350 . S
C991 C994 1.463 . S
C991 C996 1.350 . S
C991 N999 1.427 1_545 S
C992 H983 0.930 . S
C992 C990 1.378 . S
C992 C993 1.367 . S
C993 C992 1.367 . S
C993 C995 1.433 . S
C994 C990 1.350 . S
C994 C991 1.463 . S
C994 N998 1.427 . S
C995 H985 0.929 . S
C995 C993 1.433 . S
C995 N998 1.384 . S
C996 H987 0.929 . S
C996 C988 1.378 1_545 S
C996 C991 1.350 . S
C997 H984 0.929 . S
C997 C989 1.433 . S
C997 N999 1.384 . S
N998 C994 1.427 . S
N998 C995 1.384 . S
N999 C991 1.427 1_565 S
N999 C997 1.384 . S
H1000 C1006 0.930 . S
H1001 C1010 0.930 . S
H1002 C1015 0.929 . S
H1003 C1013 0.929 . S
H1004 C1008 0.929 . S
H1005 C1014 0.929 . S
C1006 H1000 0.930 . S
C1006 C1007 1.367 . S
C1006 C1014 1.378 . S
C1007 C1006 1.367 . S
C1007 C1015 1.433 . S
C1008 H1004 0.929 . S
C1008 C1010 1.378 . S
C1008 C1012 1.350 . S
C1009 C1012 1.463 . S
C1009 C1014 1.350 . S
C1009 N1017 1.427 . S
C1010 H1001 0.930 . S
C1010 C1008 1.378 . S
C1010 C1011 1.367 . S
C1011 C1010 1.367 . S
C1011 C1013 1.433 . S
C1012 C1008 1.350 . S
C1012 C1009 1.463 . S
C1012 N1016 1.427 . S
C1013 H1003 0.929 . S
C1013 C1011 1.433 . S
C1013 N1016 1.384 . S
C1014 H1005 0.929 . S
C1014 C1006 1.378 . S
C1014 C1009 1.350 . S
C1015 H1002 0.929 . S
C1015 C1007 1.433 . S
C1015 N1017 1.384 . S
N1016 C1012 1.427 . S
N1016 C1013 1.384 . S
N1017 C1009 1.427 . S
N1017 C1015 1.384 . S
H1018 C1024 0.930 . S
H1019 C1028 0.930 . S
H1020 C1033 0.929 . S
H1021 C1031 0.929 . S
H1022 C1026 0.929 . S
H1023 C1032 0.929 . S
C1024 H1018 0.930 . S
C1024 C1025 1.367 . S
C1024 C1032 1.378 . S
C1025 C1024 1.367 . S
C1025 C1033 1.433 . S
C1026 H1022 0.929 . S
C1026 C1028 1.378 . S
C1026 C1030 1.350 1_565 S
C1027 C1030 1.463 . S
C1027 C1032 1.350 . S
C1027 N1035 1.427 . S
C1028 H1019 0.930 . S
C1028 C1026 1.378 . S
C1028 C1029 1.367 . S
C1029 C1028 1.367 . S
C1029 C1031 1.433 . S
C1030 C1026 1.350 1_545 S
C1030 C1027 1.463 . S
C1030 N1034 1.427 . S
C1031 H1021 0.929 . S
C1031 C1029 1.433 . S
C1031 N1034 1.384 1_565 S
C1032 H1023 0.929 . S
C1032 C1024 1.378 . S
C1032 C1027 1.350 . S
C1033 H1020 0.929 . S
C1033 C1025 1.433 . S
C1033 N1035 1.384 . S
N1034 C1030 1.427 . S
N1034 C1031 1.384 1_545 S
N1035 C1027 1.427 . S
N1035 C1033 1.384 . S
H1036 C1042 0.930 . S
H1037 C1046 0.930 . S
H1038 C1051 0.929 . S
H1039 C1049 0.929 . S
H1040 C1044 0.929 . S
H1041 C1050 0.929 . S
C1042 H1036 0.930 . S
C1042 C1043 1.367 . S
C1042 C1050 1.378 . S
C1043 C1042 1.367 . S
C1043 C1051 1.433 . S
C1044 H1040 0.929 . S
C1044 C1046 1.378 . S
C1044 C1048 1.350 . S
C1045 C1048 1.463 . S
C1045 C1050 1.350 . S
C1045 N1053 1.427 . S
C1046 H1037 0.930 . S
C1046 C1044 1.378 . S
C1046 C1047 1.367 . S
C1047 C1046 1.367 . S
C1047 C1049 1.433 . S
C1048 C1044 1.350 . S
C1048 C1045 1.463 . S
C1048 N1052 1.427 . S
C1049 H1039 0.929 . S
C1049 C1047 1.433 . S
C1049 N1052 1.384 . S
C1050 H1041 0.929 . S
C1050 C1042 1.378 . S
C1050 C1045 1.350 . S
C1051 H1038 0.929 . S
C1051 C1043 1.433 . S
C1051 N1053 1.384 . S
N1052 C1048 1.427 . S
N1052 C1049 1.384 . S
N1053 C1045 1.427 . S
N1053 C1051 1.384 . S
H1054 C1060 0.930 . S
H1055 C1064 0.930 . S
H1056 C1069 0.929 . S
H1057 C1067 0.929 . S
H1058 C1062 0.929 . S
H1059 C1068 0.929 . S
C1060 H1054 0.930 . S
C1060 C1061 1.367 . S
C1060 C1068 1.378 1_545 S
C1061 C1060 1.367 . S
C1061 C1069 1.433 . S
C1062 H1058 0.929 . S
C1062 C1064 1.378 . S
C1062 C1066 1.350 . S
C1063 C1066 1.463 . S
C1063 C1068 1.350 . S
C1063 N1071 1.427 1_565 S
C1064 H1055 0.930 . S
C1064 C1062 1.378 . S
C1064 C1065 1.367 . S
C1065 C1064 1.367 . S
C1065 C1067 1.433 . S
C1066 C1062 1.350 . S
C1066 C1063 1.463 . S
C1066 N1070 1.427 . S
C1067 H1057 0.929 . S
C1067 C1065 1.433 . S
C1067 N1070 1.384 . S
C1068 H1059 0.929 . S
C1068 C1060 1.378 1_565 S
C1068 C1063 1.350 . S
C1069 H1056 0.929 . S
C1069 C1061 1.433 . S
C1069 N1071 1.384 . S
N1070 C1066 1.427 . S
N1070 C1067 1.384 . S
N1071 C1063 1.427 1_545 S
N1071 C1069 1.384 . S
H1072 C1078 0.930 . S
H1073 C1082 0.930 . S
H1074 C1087 0.929 . S
H1075 C1085 0.929 . S
H1076 C1080 0.929 . S
H1077 C1086 0.929 . S
C1078 H1072 0.930 . S
C1078 C1079 1.367 . S
C1078 C1086 1.378 . S
C1079 C1078 1.367 . S
C1079 C1087 1.433 . S
C1080 H1076 0.929 . S
C1080 C1082 1.378 . S
C1080 C1084 1.350 . S
C1081 C1084 1.463 . S
C1081 C1086 1.350 . S
C1081 N1089 1.427 . S
C1082 H1073 0.930 . S
C1082 C1080 1.378 . S
C1082 C1083 1.367 . S
C1083 C1082 1.367 . S
C1083 C1085 1.433 . S
C1084 C1080 1.350 . S
C1084 C1081 1.463 . S
C1084 N1088 1.427 . S
C1085 H1075 0.929 . S
C1085 C1083 1.433 . S
C1085 N1088 1.384 . S
C1086 H1077 0.929 . S
C1086 C1078 1.378 . S
C1086 C1081 1.350 . S
C1087 H1074 0.929 . S
C1087 C1079 1.433 . S
C1087 N1089 1.384 . S
N1088 C1084 1.427 . S
N1088 C1085 1.384 . S
N1089 C1081 1.427 . S
N1089 C1087 1.384 . S
H1090 C1096 0.930 . S
H1091 C1100 0.930 1_556 S
H1092 C1105 0.929 . S
H1093 C1103 0.929 . S
H1094 C1098 0.929 . S
H1095 C1104 0.929 . S
C1096 H1090 0.930 . S
C1096 C1097 1.367 . S
C1096 C1104 1.378 . S
C1097 C1096 1.367 . S
C1097 C1105 1.433 . S
C1098 H1094 0.929 . S
C1098 C1100 1.378 . S
C1098 C1102 1.350 . S
C1099 C1102 1.463 . S
C1099 C1104 1.350 . S
C1099 N1107 1.427 . S
C1100 H1091 0.930 1_554 S
C1100 C1098 1.378 . S
C1100 C1101 1.367 . S
C1101 C1100 1.367 . S
C1101 C1103 1.433 . S
C1102 C1098 1.350 . S
C1102 C1099 1.463 . S
C1102 N1106 1.427 . S
C1103 H1093 0.929 . S
C1103 C1101 1.433 . S
C1103 N1106 1.384 . S
C1104 H1095 0.929 . S
C1104 C1096 1.378 . S
C1104 C1099 1.350 . S
C1105 H1092 0.929 . S
C1105 C1097 1.433 . S
C1105 N1107 1.384 . S
N1106 C1102 1.427 . S
N1106 C1103 1.384 . S
N1107 C1099 1.427 . S
N1107 C1105 1.384 . S
H1108 C1114 0.930 . S
H1109 C1118 0.930 . S
H1110 C1123 0.929 . S
H1111 C1121 0.929 . S
H1112 C1116 0.929 . S
H1113 C1122 0.929 . S
C1114 H1108 0.930 . S
C1114 C1115 1.367 . S
C1114 C1122 1.378 . S
C1115 C1114 1.367 . S
C1115 C1123 1.433 . S
C1116 H1112 0.929 . S
C1116 C1118 1.378 . S
C1116 C1120 1.350 . S
C1117 C1120 1.463 . S
C1117 C1122 1.350 . S
C1117 N1125 1.427 . S
C1118 H1109 0.930 . S
C1118 C1116 1.378 . S
C1118 C1119 1.351 1_655 S
C1119 C1118 1.351 1_455 S
C1119 C1121 1.437 . S
C1120 C1116 1.350 . S
C1120 C1117 1.463 . S
C1120 N1124 1.427 . S
C1121 H1111 0.929 . S
C1121 C1119 1.437 . S
C1121 N1124 1.384 1_455 S
C1122 H1113 0.929 . S
C1122 C1114 1.378 . S
C1122 C1117 1.350 . S
C1123 H1110 0.929 . S
C1123 C1115 1.433 . S
C1123 N1125 1.384 . S
N1124 C1120 1.427 . S
N1124 C1121 1.384 1_655 S
N1125 C1117 1.427 . S
N1125 C1123 1.384 . S
H1126 C1132 0.930 . S
H1127 C1136 0.930 . S
H1128 C1141 0.929 . S
H1129 C1139 0.929 . S
H1130 C1134 0.929 . S
H1131 C1140 0.929 . S
C1132 H1126 0.930 . S
C1132 C1133 1.367 . S
C1132 C1140 1.378 . S
C1133 C1132 1.367 . S
C1133 C1141 1.433 . S
C1134 H1130 0.929 . S
C1134 C1136 1.378 . S
C1134 C1138 1.350 . S
C1135 C1138 1.463 . S
C1135 C1140 1.350 . S
C1135 N1143 1.427 . S
C1136 H1127 0.930 . S
C1136 C1134 1.378 . S
C1136 C1137 1.367 . S
C1137 C1136 1.367 . S
C1137 C1139 1.433 . S
C1138 C1134 1.350 . S
C1138 C1135 1.463 . S
C1138 N1142 1.427 . S
C1139 H1129 0.929 . S
C1139 C1137 1.433 . S
C1139 N1142 1.384 . S
C1140 H1131 0.929 . S
C1140 C1132 1.378 . S
C1140 C1135 1.350 . S
C1141 H1128 0.929 . S
C1141 C1133 1.433 . S
C1141 N1143 1.384 . S
N1142 C1138 1.427 . S
N1142 C1139 1.384 . S
N1143 C1135 1.427 . S
N1143 C1141 1.384 . S
H1144 C1150 0.930 . S
H1145 C1154 0.930 . S
H1146 C1159 0.929 . S
H1147 C1157 0.929 . S
H1148 C1152 0.929 . S
H1149 C1158 0.929 . S
C1150 H1144 0.930 . S
C1150 C1151 1.367 . S
C1150 C1158 1.378 . S
C1151 C1150 1.367 . S
C1151 C1159 1.433 . S
C1152 H1148 0.929 . S
C1152 C1154 1.378 . S
C1152 C1156 1.350 . S
C1153 C1156 1.463 . S
C1153 C1158 1.350 . S
C1153 N1161 1.427 . S
C1154 H1145 0.930 . S
C1154 C1152 1.378 . S
C1154 C1155 1.367 . S
C1155 C1154 1.367 . S
C1155 C1157 1.433 . S
C1156 C1152 1.350 . S
C1156 C1153 1.463 . S
C1156 N1160 1.427 . S
C1157 H1147 0.929 . S
C1157 C1155 1.433 . S
C1157 N1160 1.384 . S
C1158 H1149 0.929 . S
C1158 C1150 1.378 . S
C1158 C1153 1.350 . S
C1159 H1146 0.929 . S
C1159 C1151 1.433 . S
C1159 N1161 1.384 . S
N1160 C1156 1.427 . S
N1160 C1157 1.384 . S
N1161 C1153 1.427 . S
N1161 C1159 1.384 . S
H1162 C1168 0.930 . S
H1163 C1172 0.930 1_554 S
H1164 C1177 0.929 . S
H1165 C1175 0.929 . S
H1166 C1170 0.929 . S
H1167 C1176 0.929 . S
C1168 H1162 0.930 . S
C1168 C1169 1.367 . S
C1168 C1176 1.378 . S
C1169 C1168 1.367 . S
C1169 C1177 1.433 . S
C1170 H1166 0.929 . S
C1170 C1172 1.378 . S
C1170 C1174 1.350 . S
C1171 C1174 1.463 . S
C1171 C1176 1.350 . S
C1171 N1179 1.427 . S
C1172 H1163 0.930 1_556 S
C1172 C1170 1.378 . S
C1172 C1173 1.367 . S
C1173 C1172 1.367 . S
C1173 C1175 1.433 . S
C1174 C1170 1.350 . S
C1174 C1171 1.463 . S
C1174 N1178 1.427 . S
C1175 H1165 0.929 . S
C1175 C1173 1.433 . S
C1175 N1178 1.384 . S
C1176 H1167 0.929 . S
C1176 C1168 1.378 . S
C1176 C1171 1.350 . S
C1177 H1164 0.929 . S
C1177 C1169 1.433 . S
C1177 N1179 1.384 . S
N1178 C1174 1.427 . S
N1178 C1175 1.384 . S
N1179 C1171 1.427 . S
N1179 C1177 1.384 . S
H1180 C1186 0.930 . S
H1181 C1190 0.925 1_655 S
H1182 C1195 0.929 . S
H1183 C1193 0.929 . S
H1184 C1188 0.929 . S
H1185 C1194 0.929 . S
C1186 H1180 0.930 . S
C1186 C1187 1.367 . S
C1186 C1194 1.378 . S
C1187 C1186 1.367 . S
C1187 C1195 1.433 . S
C1188 H1184 0.929 . S
C1188 C1190 1.384 . S
C1188 C1192 1.350 . S
C1189 C1192 1.463 . S
C1189 C1194 1.350 . S
C1189 N1197 1.427 . S
C1190 H1181 0.925 1_455 S
C1190 C1188 1.384 . S
C1190 C1191 1.365 1_455 S
C1191 C1190 1.365 1_655 S
C1191 C1193 1.416 1_655 S
C1192 C1188 1.350 . S
C1192 C1189 1.463 . S
C1192 N1196 1.427 . S
C1193 H1183 0.929 . S
C1193 C1191 1.416 1_455 S
C1193 N1196 1.384 . S
C1194 H1185 0.929 . S
C1194 C1186 1.378 . S
C1194 C1189 1.350 . S
C1195 H1182 0.929 . S
C1195 C1187 1.433 . S
C1195 N1197 1.384 . S
N1196 C1192 1.427 . S
N1196 C1193 1.384 . S
N1197 C1189 1.427 . S
N1197 C1195 1.384 . S
H1198 C1204 0.930 . S
H1199 C1208 0.930 . S
H1200 C1213 0.929 . S
H1201 C1211 0.929 . S
H1202 C1206 0.929 . S
H1203 C1212 0.929 . S
C1204 H1198 0.930 . S
C1204 C1205 1.367 . S
C1204 C1212 1.378 . S
C1205 C1204 1.367 . S
C1205 C1213 1.433 . S
C1206 H1202 0.929 . S
C1206 C1208 1.378 . S
C1206 C1210 1.350 . S
C1207 C1210 1.463 . S
C1207 C1212 1.350 . S
C1207 N1215 1.427 . S
C1208 H1199 0.930 . S
C1208 C1206 1.378 . S
C1208 C1209 1.367 . S
C1209 C1208 1.367 . S
C1209 C1211 1.433 . S
C1210 C1206 1.350 . S
C1210 C1207 1.463 . S
C1210 N1214 1.427 . S
C1211 H1201 0.929 . S
C1211 C1209 1.433 . S
C1211 N1214 1.384 . S
C1212 H1203 0.929 . S
C1212 C1204 1.378 . S
C1212 C1207 1.350 . S
C1213 H1200 0.929 . S
C1213 C1205 1.433 . S
C1213 N1215 1.384 . S
N1214 C1210 1.427 . S
N1214 C1211 1.384 . S
N1215 C1207 1.427 . S
N1215 C1213 1.384 . S
H1216 C1222 0.930 . S
H1217 C1226 0.930 . S
H1218 C1231 0.929 . S
H1219 C1229 0.929 . S
H1220 C1224 0.929 . S
H1221 C1230 0.929 . S
C1222 H1216 0.930 . S
C1222 C1223 1.353 1_455 S
C1222 C1230 1.378 . S
C1223 C1222 1.353 1_655 S
C1223 C1231 1.441 . S
C1224 H1220 0.929 . S
C1224 C1226 1.378 . S
C1224 C1228 1.350 . S
C1225 C1228 1.463 . S
C1225 C1230 1.350 . S
C1225 N1233 1.427 1_455 S
C1226 H1217 0.930 . S
C1226 C1224 1.378 . S
C1226 C1227 1.367 . S
C1227 C1226 1.367 . S
C1227 C1229 1.433 . S
C1228 C1224 1.350 . S
C1228 C1225 1.463 . S
C1228 N1232 1.427 . S
C1229 H1219 0.929 . S
C1229 C1227 1.433 . S
C1229 N1232 1.384 . S
C1230 H1221 0.929 . S
C1230 C1222 1.378 . S
C1230 C1225 1.350 . S
C1231 H1218 0.929 . S
C1231 C1223 1.441 . S
C1231 N1233 1.384 . S
N1232 C1228 1.427 . S
N1232 C1229 1.384 . S
N1233 C1225 1.427 1_655 S
N1233 C1231 1.384 . S
H1234 C1240 0.930 . S
H1235 C1244 0.930 . S
H1236 C1249 0.929 . S
H1237 C1247 0.929 . S
H1238 C1242 0.929 . S
H1239 C1248 0.929 . S
C1240 H1234 0.930 . S
C1240 C1241 1.367 . S
C1240 C1248 1.378 . S
C1241 C1240 1.367 . S
C1241 C1249 1.433 . S
C1242 H1238 0.929 . S
C1242 C1244 1.378 . S
C1242 C1246 1.350 . S
C1243 C1246 1.463 . S
C1243 C1248 1.350 . S
C1243 N1251 1.427 . S
C1244 H1235 0.930 . S
C1244 C1242 1.378 . S
C1244 C1245 1.367 . S
C1245 C1244 1.367 . S
C1245 C1247 1.433 . S
C1246 C1242 1.350 . S
C1246 C1243 1.463 . S
C1246 N1250 1.427 . S
C1247 H1237 0.929 . S
C1247 C1245 1.433 . S
C1247 N1250 1.384 . S
C1248 H1239 0.929 . S
C1248 C1240 1.378 . S
C1248 C1243 1.350 . S
C1249 H1236 0.929 . S
C1249 C1241 1.433 . S
C1249 N1251 1.384 . S
N1250 C1246 1.427 . S
N1250 C1247 1.384 . S
N1251 C1243 1.427 . S
N1251 C1249 1.384 . S
H1252 C1258 0.930 . S
H1253 C1262 0.930 . S
H1254 C1267 0.929 . S
H1255 C1265 0.929 . S
H1256 C1260 0.929 . S
H1257 C1266 0.929 . S
C1258 H1252 0.930 . S
C1258 C1259 1.367 . S
C1258 C1266 1.378 . S
C1259 C1258 1.367 . S
C1259 C1267 1.433 . S
C1260 H1256 0.929 . S
C1260 C1262 1.378 . S
C1260 C1264 1.350 . S
C1261 C1264 1.463 . S
C1261 C1266 1.350 . S
C1261 N1269 1.427 . S
C1262 H1253 0.930 . S
C1262 C1260 1.378 . S
C1262 C1263 1.367 . S
C1263 C1262 1.367 . S
C1263 C1265 1.433 . S
C1264 C1260 1.350 . S
C1264 C1261 1.463 . S
C1264 N1268 1.427 . S
C1265 H1255 0.929 . S
C1265 C1263 1.433 . S
C1265 N1268 1.384 . S
C1266 H1257 0.929 . S
C1266 C1258 1.378 . S
C1266 C1261 1.350 . S
C1267 H1254 0.929 . S
C1267 C1259 1.433 . S
C1267 N1269 1.384 . S
N1268 C1264 1.427 . S
N1268 C1265 1.384 . S
N1269 C1261 1.427 . S
N1269 C1267 1.384 . S
H1270 C1276 0.930 . S
H1271 C1280 0.930 . S
H1272 C1285 0.929 . S
H1273 C1283 0.929 . S
H1274 C1278 0.929 . S
H1275 C1284 0.929 . S
C1276 H1270 0.930 . S
C1276 C1277 1.367 . S
C1276 C1284 1.378 . S
C1277 C1276 1.367 . S
C1277 C1285 1.433 . S
C1278 H1274 0.929 . S
C1278 C1280 1.378 . S
C1278 C1282 1.350 . S
C1279 C1282 1.463 . S
C1279 C1284 1.350 . S
C1279 N1287 1.427 . S
C1280 H1271 0.930 . S
C1280 C1278 1.378 . S
C1280 C1281 1.367 . S
C1281 C1280 1.367 . S
C1281 C1283 1.433 . S
C1282 C1278 1.350 . S
C1282 C1279 1.463 . S
C1282 N1286 1.427 . S
C1283 H1273 0.929 . S
C1283 C1281 1.433 . S
C1283 N1286 1.384 . S
C1284 H1275 0.929 . S
C1284 C1276 1.378 . S
C1284 C1279 1.350 . S
C1285 H1272 0.929 . S
C1285 C1277 1.433 . S
C1285 N1287 1.384 . S
N1286 C1282 1.427 . S
N1286 C1283 1.384 . S
N1287 C1279 1.427 . S
N1287 C1285 1.384 . S
H1288 C1294 0.930 . S
H1289 C1298 0.930 . S
H1290 C1303 0.929 . S
H1291 C1301 0.929 . S
H1292 C1296 0.929 . S
H1293 C1302 0.929 . S
C1294 H1288 0.930 . S
C1294 C1295 1.371 . S
C1294 C1302 1.378 1_455 S
C1295 C1294 1.371 . S
C1295 C1303 1.408 1_455 S
C1296 H1292 0.929 . S
C1296 C1298 1.378 . S
C1296 C1300 1.350 . S
C1297 C1300 1.463 . S
C1297 C1302 1.350 . S
C1297 N1305 1.427 . S
C1298 H1289 0.930 . S
C1298 C1296 1.378 . S
C1298 C1299 1.367 . S
C1299 C1298 1.367 . S
C1299 C1301 1.433 . S
C1300 C1296 1.350 . S
C1300 C1297 1.463 . S
C1300 N1304 1.427 . S
C1301 H1291 0.929 . S
C1301 C1299 1.433 . S
C1301 N1304 1.384 . S
C1302 H1293 0.929 . S
C1302 C1294 1.378 1_655 S
C1302 C1297 1.350 . S
C1303 H1290 0.929 . S
C1303 C1295 1.408 1_655 S
C1303 N1305 1.384 . S
N1304 C1300 1.427 . S
N1304 C1301 1.384 . S
N1305 C1297 1.427 . S
N1305 C1303 1.384 . S
H1306 C1312 0.930 . S
H1307 C1316 0.930 . S
H1308 C1321 0.929 . S
H1309 C1319 0.929 . S
H1310 C1314 0.929 . S
H1311 C1320 0.929 . S
C1312 H1306 0.930 . S
C1312 C1313 1.367 . S
C1312 C1320 1.378 . S
C1313 C1312 1.367 . S
C1313 C1321 1.433 . S
C1314 H1310 0.929 . S
C1314 C1316 1.378 . S
C1314 C1318 1.350 . S
C1315 C1318 1.463 . S
C1315 C1320 1.350 . S
C1315 N1323 1.427 . S
C1316 H1307 0.930 . S
C1316 C1314 1.378 . S
C1316 C1317 1.367 . S
C1317 C1316 1.367 . S
C1317 C1319 1.433 . S
C1318 C1314 1.350 . S
C1318 C1315 1.463 . S
C1318 N1322 1.427 . S
C1319 H1309 0.929 . S
C1319 C1317 1.433 . S
C1319 N1322 1.384 . S
C1320 H1311 0.929 . S
C1320 C1312 1.378 . S
C1320 C1315 1.350 . S
C1321 H1308 0.929 . S
C1321 C1313 1.433 . S
C1321 N1323 1.384 . S
N1322 C1318 1.427 . S
N1322 C1319 1.384 . S
N1323 C1315 1.427 . S
N1323 C1321 1.384 . S
H1324 C1330 0.930 . S
H1325 C1334 0.930 . S
H1326 C1339 0.929 . S
H1327 C1337 0.929 . S
H1328 C1332 0.929 . S
H1329 C1338 0.929 . S
C1330 H1324 0.930 . S
C1330 C1331 1.367 . S
C1330 C1338 1.378 . S
C1331 C1330 1.367 . S
C1331 C1339 1.433 . S
C1332 H1328 0.929 . S
C1332 C1334 1.378 . S
C1332 C1336 1.350 . S
C1333 C1336 1.463 . S
C1333 C1338 1.350 . S
C1333 N1341 1.427 . S
C1334 H1325 0.930 . S
C1334 C1332 1.378 . S
C1334 C1335 1.367 . S
C1335 C1334 1.367 . S
C1335 C1337 1.433 . S
C1336 C1332 1.350 . S
C1336 C1333 1.463 . S
C1336 N1340 1.427 . S
C1337 H1327 0.929 . S
C1337 C1335 1.433 . S
C1337 N1340 1.384 . S
C1338 H1329 0.929 . S
C1338 C1330 1.378 . S
C1338 C1333 1.350 . S
C1339 H1326 0.929 . S
C1339 C1331 1.433 . S
C1339 N1341 1.384 . S
N1340 C1336 1.427 . S
N1340 C1337 1.384 . S
N1341 C1333 1.427 . S
N1341 C1339 1.384 . S
H1342 C1348 0.930 . S
H1343 C1352 0.930 . S
H1344 C1357 0.929 1_554 S
H1345 C1355 0.929 . S
H1346 C1350 0.929 . S
H1347 C1356 0.929 . S
C1348 H1342 0.930 . S
C1348 C1349 1.367 . S
C1348 C1356 1.378 . S
C1349 C1348 1.367 . S
C1349 C1357 1.433 . S
C1350 H1346 0.929 . S
C1350 C1352 1.378 . S
C1350 C1354 1.350 . S
C1351 C1354 1.463 . S
C1351 C1356 1.350 . S
C1351 N1359 1.427 . S
C1352 H1343 0.930 . S
C1352 C1350 1.378 . S
C1352 C1353 1.367 . S
C1353 C1352 1.367 . S
C1353 C1355 1.433 . S
C1354 C1350 1.350 . S
C1354 C1351 1.463 . S
C1354 N1358 1.427 . S
C1355 H1345 0.929 . S
C1355 C1353 1.433 . S
C1355 N1358 1.384 . S
C1356 H1347 0.929 . S
C1356 C1348 1.378 . S
C1356 C1351 1.350 . S
C1357 H1344 0.929 1_556 S
C1357 C1349 1.433 . S
C1357 N1359 1.384 . S
N1358 C1354 1.427 . S
N1358 C1355 1.384 . S
N1359 C1351 1.427 . S
N1359 C1357 1.384 . S
H1360 C1366 0.930 . S
H1361 C1370 0.930 . S
H1362 C1375 0.929 . S
H1363 C1373 0.929 . S
H1364 C1368 0.929 . S
H1365 C1374 0.929 . S
C1366 H1360 0.930 . S
C1366 C1367 1.367 . S
C1366 C1374 1.378 . S
C1367 C1366 1.367 . S
C1367 C1375 1.433 . S
C1368 H1364 0.929 . S
C1368 C1370 1.378 . S
C1368 C1372 1.350 . S
C1369 C1372 1.463 . S
C1369 C1374 1.350 . S
C1369 N1377 1.427 . S
C1370 H1361 0.930 . S
C1370 C1368 1.378 . S
C1370 C1371 1.367 . S
C1371 C1370 1.367 . S
C1371 C1373 1.433 . S
C1372 C1368 1.350 . S
C1372 C1369 1.463 . S
C1372 N1376 1.427 . S
C1373 H1363 0.929 . S
C1373 C1371 1.433 . S
C1373 N1376 1.384 . S
C1374 H1365 0.929 . S
C1374 C1366 1.378 . S
C1374 C1369 1.350 . S
C1375 H1362 0.929 . S
C1375 C1367 1.433 . S
C1375 N1377 1.384 . S
N1376 C1372 1.427 . S
N1376 C1373 1.384 . S
N1377 C1369 1.427 . S
N1377 C1375 1.384 . S
H1378 C1384 0.930 . S
H1379 C1388 0.930 . S
H1380 C1393 0.929 . S
H1381 C1391 0.929 . S
H1382 C1386 0.929 . S
H1383 C1392 0.929 . S
C1384 H1378 0.930 . S
C1384 C1385 1.367 . S
C1384 C1392 1.378 . S
C1385 C1384 1.367 . S
C1385 C1393 1.433 . S
C1386 H1382 0.929 . S
C1386 C1388 1.378 . S
C1386 C1390 1.350 . S
C1387 C1390 1.463 . S
C1387 C1392 1.350 . S
C1387 N1395 1.427 . S
C1388 H1379 0.930 . S
C1388 C1386 1.378 . S
C1388 C1389 1.367 . S
C1389 C1388 1.367 . S
C1389 C1391 1.433 . S
C1390 C1386 1.350 . S
C1390 C1387 1.463 . S
C1390 N1394 1.427 . S
C1391 H1381 0.929 . S
C1391 C1389 1.433 . S
C1391 N1394 1.384 . S
C1392 H1383 0.929 . S
C1392 C1384 1.378 . S
C1392 C1387 1.350 . S
C1393 H1380 0.929 . S
C1393 C1385 1.433 . S
C1393 N1395 1.384 . S
N1394 C1390 1.427 . S
N1394 C1391 1.384 . S
N1395 C1387 1.427 . S
N1395 C1393 1.384 . S
H1396 C1402 0.930 . S
H1397 C1406 0.930 . S
H1398 C1411 0.929 . S
H1399 C1409 0.929 . S
H1400 C1404 0.929 . S
H1401 C1410 0.929 . S
C1402 H1396 0.930 . S
C1402 C1403 1.367 . S
C1402 C1410 1.378 . S
C1403 C1402 1.367 . S
C1403 C1411 1.433 . S
C1404 H1400 0.929 . S
C1404 C1406 1.378 . S
C1404 C1408 1.350 . S
C1405 C1408 1.463 . S
C1405 C1410 1.350 . S
C1405 N1413 1.427 . S
C1406 H1397 0.930 . S
C1406 C1404 1.378 . S
C1406 C1407 1.367 . S
C1407 C1406 1.367 . S
C1407 C1409 1.433 . S
C1408 C1404 1.350 . S
C1408 C1405 1.463 . S
C1408 N1412 1.427 . S
C1409 H1399 0.929 . S
C1409 C1407 1.433 . S
C1409 N1412 1.384 . S
C1410 H1401 0.929 . S
C1410 C1402 1.378 . S
C1410 C1405 1.350 . S
C1411 H1398 0.929 . S
C1411 C1403 1.433 . S
C1411 N1413 1.384 . S
N1412 C1408 1.427 . S
N1412 C1409 1.384 . S
N1413 C1405 1.427 . S
N1413 C1411 1.384 . S
H1414 C1420 0.930 . S
H1415 C1424 0.930 . S
H1416 C1429 0.929 . S
H1417 C1427 0.929 . S
H1418 C1422 0.929 1_554 S
H1419 C1428 0.929 1_556 S
C1420 H1414 0.930 . S
C1420 C1421 1.367 . S
C1420 C1428 1.378 . S
C1421 C1420 1.367 . S
C1421 C1429 1.433 . S
C1422 H1418 0.929 1_556 S
C1422 C1424 1.378 . S
C1422 C1426 1.350 . S
C1423 C1426 1.463 1_454 S
C1423 C1428 1.350 . S
C1423 N1431 1.427 . S
C1424 H1415 0.930 . S
C1424 C1422 1.378 . S
C1424 C1425 1.367 . S
C1425 C1424 1.367 . S
C1425 C1427 1.433 . S
C1426 C1422 1.350 . S
C1426 C1423 1.463 1_656 S
C1426 N1430 1.427 . S
C1427 H1417 0.929 . S
C1427 C1425 1.433 . S
C1427 N1430 1.384 . S
C1428 H1419 0.929 1_554 S
C1428 C1420 1.378 . S
C1428 C1423 1.350 . S
C1429 H1416 0.929 . S
C1429 C1421 1.433 . S
C1429 N1431 1.384 . S
N1430 C1426 1.427 . S
N1430 C1427 1.384 . S
N1431 C1423 1.427 . S
N1431 C1429 1.384 . S
H1432 C1438 0.930 . S
H1433 C1442 0.930 . S
H1434 C1447 0.929 . S
H1435 C1445 0.929 . S
H1436 C1440 0.929 . S
H1437 C1446 0.929 . S
C1438 H1432 0.930 . S
C1438 C1439 1.367 . S
C1438 C1446 1.378 . S
C1439 C1438 1.367 . S
C1439 C1447 1.433 . S
C1440 H1436 0.929 . S
C1440 C1442 1.378 . S
C1440 C1444 1.350 . S
C1441 C1444 1.463 . S
C1441 C1446 1.350 . S
C1441 N1449 1.427 . S
C1442 H1433 0.930 . S
C1442 C1440 1.378 . S
C1442 C1443 1.367 . S
C1443 C1442 1.367 . S
C1443 C1445 1.433 . S
C1444 C1440 1.350 . S
C1444 C1441 1.463 . S
C1444 N1448 1.427 . S
C1445 H1435 0.929 . S
C1445 C1443 1.433 . S
C1445 N1448 1.384 . S
C1446 H1437 0.929 . S
C1446 C1438 1.378 . S
C1446 C1441 1.350 . S
C1447 H1434 0.929 . S
C1447 C1439 1.433 . S
C1447 N1449 1.384 . S
N1448 C1444 1.427 . S
N1448 C1445 1.384 . S
N1449 C1441 1.427 . S
N1449 C1447 1.384 . S
H1450 C1456 0.930 . S
H1451 C1460 0.930 . S
H1452 C1465 0.929 . S
H1453 C1463 0.929 . S
H1454 C1458 0.929 . S
H1455 C1464 0.929 . S
C1456 H1450 0.930 . S
C1456 C1457 1.367 . S
C1456 C1464 1.378 . S
C1457 C1456 1.367 . S
C1457 C1465 1.433 . S
C1458 H1454 0.929 . S
C1458 C1460 1.378 . S
C1458 C1462 1.350 . S
C1459 C1462 1.463 . S
C1459 C1464 1.350 . S
C1459 N1467 1.427 . S
C1460 H1451 0.930 . S
C1460 C1458 1.378 . S
C1460 C1461 1.367 . S
C1461 C1460 1.367 . S
C1461 C1463 1.433 . S
C1462 C1458 1.350 . S
C1462 C1459 1.463 . S
C1462 N1466 1.427 . S
C1463 H1453 0.929 . S
C1463 C1461 1.433 . S
C1463 N1466 1.384 . S
C1464 H1455 0.929 . S
C1464 C1456 1.378 . S
C1464 C1459 1.350 . S
C1465 H1452 0.929 . S
C1465 C1457 1.433 . S
C1465 N1467 1.384 . S
N1466 C1462 1.427 . S
N1466 C1463 1.384 . S
N1467 C1459 1.427 . S
N1467 C1465 1.384 . S
H1468 C1474 0.930 . S
H1469 C1478 0.930 . S
H1470 C1483 0.929 . S
H1471 C1481 0.929 . S
H1472 C1476 0.929 1_556 S
H1473 C1482 0.929 1_554 S
C1474 H1468 0.930 . S
C1474 C1475 1.367 1_565 S
C1474 C1482 1.378 . S
C1475 C1474 1.367 1_545 S
C1475 C1483 1.433 . S
C1476 H1472 0.929 1_554 S
C1476 C1478 1.378 . S
C1476 C1480 1.342 1_545 S
C1477 C1480 1.461 1_446 S
C1477 C1482 1.342 1_545 S
C1477 N1485 1.438 . S
C1478 H1469 0.930 . S
C1478 C1476 1.378 . S
C1478 C1479 1.367 1_545 S
C1479 C1478 1.367 1_565 S
C1479 C1481 1.433 . S
C1480 C1476 1.342 1_565 S
C1480 C1477 1.461 1_664 S
C1480 N1484 1.438 . S
C1481 H1471 0.929 . S
C1481 C1479 1.433 . S
C1481 N1484 1.384 . S
C1482 H1473 0.929 1_556 S
C1482 C1474 1.378 . S
C1482 C1477 1.342 1_565 S
C1483 H1470 0.929 . S
C1483 C1475 1.433 . S
C1483 N1485 1.384 . S
N1484 C1480 1.438 . S
N1484 C1481 1.384 . S
N1485 C1477 1.438 . S
N1485 C1483 1.384 . S
H1486 C1492 0.930 . S
H1487 C1496 0.930 . S
H1488 C1501 0.929 . S
H1489 C1499 0.929 . S
H1490 C1494 0.929 . S
H1491 C1500 0.929 . S
C1492 H1486 0.930 . S
C1492 C1493 1.367 . S
C1492 C1500 1.378 . S
C1493 C1492 1.367 . S
C1493 C1501 1.433 1_545 S
C1494 H1490 0.929 . S
C1494 C1496 1.378 . S
C1494 C1498 1.350 . S
C1495 C1498 1.463 1_545 S
C1495 C1500 1.350 . S
C1495 N1503 1.427 1_545 S
C1496 H1487 0.930 . S
C1496 C1494 1.378 . S
C1496 C1497 1.367 . S
C1497 C1496 1.367 . S
C1497 C1499 1.433 1_565 S
C1498 C1494 1.350 . S
C1498 C1495 1.463 1_565 S
C1498 N1502 1.427 1_565 S
C1499 H1489 0.929 . S
C1499 C1497 1.433 1_545 S
C1499 N1502 1.384 . S
C1500 H1491 0.929 . S
C1500 C1492 1.378 . S
C1500 C1495 1.350 . S
C1501 H1488 0.929 . S
C1501 C1493 1.433 1_565 S
C1501 N1503 1.384 . S
N1502 C1498 1.427 1_545 S
N1502 C1499 1.384 . S
N1503 C1495 1.427 1_565 S
N1503 C1501 1.384 . S
C647 C31 3.092 . S
C651 C431 3.092 . S
C665 C71 3.095 . S
C669 C471 3.093 . S
C683 C111 3.093 . S
C687 C351 3.092 . S
C701 C151 3.096 . S
C705 C391 3.098 . S
C719 C172 3.098 . S
C723 C572 3.096 . S
C737 C212 3.100 . S
C741 C612 3.100 . S
C755 C252 3.093 . S
C759 C492 3.092 . S
C773 C292 3.100 . S
C777 C532 3.100 . S
C791 C377 3.730 . S
C795 C12 3.756 1_556 S
C809 C417 3.729 . S
C813 C52 3.757 . S
C827 C457 3.733 . S
C831 C92 3.754 . S
C845 C337 3.729 . S
C849 C132 3.757 . S
C863 C191 3.755 1_554 S
C867 C522 3.732 . S
C881 C562 3.731 . S
C885 C231 3.756 . S
C899 C602 3.730 . S
C903 C271 3.757 . S
C917 C482 3.733 . S
C921 C311 3.754 . S
C935 C57 3.733 . S
C939 C332 3.754 . S
C953 C372 3.754 . S
C957 C97 3.734 . S
C971 C412 3.753 1_556 S
C975 C137 3.733 . S
C989 C452 3.756 . S
C993 C17 3.729 . S
C1007 C511 3.755 . S
C1011 C202 3.732 . S
C1025 C242 3.734 . S
C1029 C551 3.753 . S
C1043 C282 3.730 . S
C1047 C591 3.757 1_554 S
C1061 C631 3.757 . S
C1065 C162 3.729 . S
C1079 C8 0.412 . S
C1083 C617 0.184 . S
C1097 C48 0.424 . S
C1101 C177 0.179 . S
C1115 C537 0.182 . S
C1119 C88 0.444 . S
C1133 C257 0.149 . S
C1137 C128 0.413 . S
C1151 C189 0.428 . S
C1155 C442 0.175 . S
C1169 C229 0.426 . S
C1173 C2 0.158 . S
C1187 C362 0.148 . S
C1191 C269 0.430 . S
C1205 C82 0.156 . S
C1209 C309 0.377 . S
C1223 C328 0.441 . S
C1227 C297 0.163 . S
C1241 C368 0.429 . S
C1245 C497 0.173 . S
C1259 C217 0.183 . S
C1263 C408 0.417 . S
C1277 C577 0.148 . S
C1281 C448 0.393 . S
C1295 C509 0.429 . S
C1299 C122 0.150 . S
C1313 C549 0.397 . S
C1317 C322 0.147 . S
C1331 C589 0.424 . S
C1335 C42 0.180 . S
C1349 C402 0.156 . S
C1353 C629 0.377 . S
C1367 C29 1.575 . S
C1371 C488 1.575 . S
C1385 C69 1.591 . S
C1389 C208 1.591 . S
C1403 C109 1.584 . S
C1407 C568 1.584 . S
C1421 C288 1.589 . S
C1425 C149 1.589 . S
C1439 C168 1.582 . S
C1443 C349 1.582 . S
C1457 C429 1.578 . S
C1461 C248 1.578 . S
C1475 C389 1.588 . S
C1479 C528 1.588 . S
C1493 C608 1.573 . S
C1497 C469 1.573 . S
