# Generated by pormake.
# Topology uoy, (4)-cn, num edge types: 1
# Building blocks:
#     Node 0, Type 0, BuildingBlock: TATPOV_clean_sbu_0, # of connection points: 4
#     Node 1, Type 0, BuildingBlock: TATPOV_clean_sbu_0, # of connection points: 4
#     Node 2, Type 0, BuildingBlock: TATPOV_clean_sbu_0, # of connection points: 4
#     Node 3, Type 0, BuildingBlock: TATPOV_clean_sbu_0, # of connection points: 4
#     Node 4, Type 0, BuildingBlock: TATPOV_clean_sbu_0, # of connection points: 4
#     Node 5, Type 0, BuildingBlock: TATPOV_clean_sbu_0, # of connection points: 4
#     Node 6, Type 0, BuildingBlock: TATPOV_clean_sbu_0, # of connection points: 4
#     Node 7, Type 0, BuildingBlock: TATPOV_clean_sbu_0, # of connection points: 4
#     Node 8, Type 0, BuildingBlock: TATPOV_clean_sbu_0, # of connection points: 4
#     Node 9, Type 0, BuildingBlock: TATPOV_clean_sbu_0, # of connection points: 4
#     Node 10, Type 0, BuildingBlock: TATPOV_clean_sbu_0, # of connection points: 4
#     Node 11, Type 0, BuildingBlock: TATPOV_clean_sbu_0, # of connection points: 4
#     Node 12, Type 0, BuildingBlock: TATPOV_clean_sbu_0, # of connection points: 4
#     Node 13, Type 0, BuildingBlock: TATPOV_clean_sbu_0, # of connection points: 4
#     Node 14, Type 0, BuildingBlock: TATPOV_clean_sbu_0, # of connection points: 4
#     Node 15, Type 0, BuildingBlock: TATPOV_clean_sbu_0, # of connection points: 4
#     Edge 16, Type (0, 0), BuildingBlock: TEMPAE_clean_linker_10, # of connection points: 2
#     Edge 17, Type (0, 0), BuildingBlock: TEMPAE_clean_linker_10, # of connection points: 2
#     Edge 18, Type (0, 0), BuildingBlock: TEMPAE_clean_linker_10, # of connection points: 2
#     Edge 19, Type (0, 0), BuildingBlock: TEMPAE_clean_linker_10, # of connection points: 2
#     Edge 20, Type (0, 0), BuildingBlock: TEMPAE_clean_linker_10, # of connection points: 2
#     Edge 21, Type (0, 0), BuildingBlock: TEMPAE_clean_linker_10, # of connection points: 2
#     Edge 22, Type (0, 0), BuildingBlock: TEMPAE_clean_linker_10, # of connection points: 2
#     Edge 23, Type (0, 0), BuildingBlock: TEMPAE_clean_linker_10, # of connection points: 2
#     Edge 24, Type (0, 0), BuildingBlock: TEMPAE_clean_linker_10, # of connection points: 2
#     Edge 25, Type (0, 0), BuildingBlock: TEMPAE_clean_linker_10, # of connection points: 2
#     Edge 26, Type (0, 0), BuildingBlock: TEMPAE_clean_linker_10, # of connection points: 2
#     Edge 27, Type (0, 0), BuildingBlock: TEMPAE_clean_linker_10, # of connection points: 2
#     Edge 28, Type (0, 0), BuildingBlock: TEMPAE_clean_linker_10, # of connection points: 2
#     Edge 29, Type (0, 0), BuildingBlock: TEMPAE_clean_linker_10, # of connection points: 2
#     Edge 30, Type (0, 0), BuildingBlock: TEMPAE_clean_linker_10, # of connection points: 2
#     Edge 31, Type (0, 0), BuildingBlock: TEMPAE_clean_linker_10, # of connection points: 2
#     Edge 32, Type (0, 0), BuildingBlock: TEMPAE_clean_linker_10, # of connection points: 2
#     Edge 33, Type (0, 0), BuildingBlock: TEMPAE_clean_linker_10, # of connection points: 2
#     Edge 34, Type (0, 0), BuildingBlock: TEMPAE_clean_linker_10, # of connection points: 2
#     Edge 35, Type (0, 0), BuildingBlock: TEMPAE_clean_linker_10, # of connection points: 2
#     Edge 36, Type (0, 0), BuildingBlock: TEMPAE_clean_linker_10, # of connection points: 2
#     Edge 37, Type (0, 0), BuildingBlock: TEMPAE_clean_linker_10, # of connection points: 2
#     Edge 38, Type (0, 0), BuildingBlock: TEMPAE_clean_linker_10, # of connection points: 2
#     Edge 39, Type (0, 0), BuildingBlock: TEMPAE_clean_linker_10, # of connection points: 2
#     Edge 40, Type (0, 0), BuildingBlock: TEMPAE_clean_linker_10, # of connection points: 2
#     Edge 41, Type (0, 0), BuildingBlock: TEMPAE_clean_linker_10, # of connection points: 2
#     Edge 42, Type (0, 0), BuildingBlock: TEMPAE_clean_linker_10, # of connection points: 2
#     Edge 43, Type (0, 0), BuildingBlock: TEMPAE_clean_linker_10, # of connection points: 2
#     Edge 44, Type (0, 0), BuildingBlock: TEMPAE_clean_linker_10, # of connection points: 2
#     Edge 45, Type (0, 0), BuildingBlock: TEMPAE_clean_linker_10, # of connection points: 2
#     Edge 46, Type (0, 0), BuildingBlock: TEMPAE_clean_linker_10, # of connection points: 2
#     Edge 47, Type (0, 0), BuildingBlock: TEMPAE_clean_linker_10, # of connection points: 2
# Relax obj value: 0.090
# Max RMSD: 0.149
# Mean RMSD: 0.149
data_MOF--net-uoy--node1-TATPOV_clean_sbu_0--edge1-TEMPAE_clean_linker_10
_symmetry_space_group_name_H-M    P1
_symmetry_Int_Tables_number       1
_symmetry_cell_setting            triclinic
loop_
_symmetry_equiv_pos_as_xyz
'x, y, z'
_cell_length_a     27.229339
_cell_length_b     27.29444
_cell_length_c     109.10396
_cell_angle_alpha  90.138558
_cell_angle_beta   90.224799
_cell_angle_gamma 89.987465
loop_
_atom_site_label
_atom_site_type_symbol
_atom_site_fract_x
_atom_site_fract_y
_atom_site_fract_z
_atom_type_partial_charge
Zn0 Zn 0.21851 0.28929 0.17893 0.0
Zn1 Zn 0.15509 0.21603 0.17625 0.0
O2 O 0.15353 0.23712 0.1943 0.0
O3 O 0.20316 0.29992 0.19667 0.0
O4 O 0.09808 0.16841 0.17578 0.0
O5 O 0.1858 0.32976 0.1661 0.0
O6 O 0.14029 0.26506 0.16227 0.0
C7 C 0.1733 0.26946 0.20116 0.0
C8 C 0.26188 0.19391 0.17205 0.0
O9 O 0.21817 0.17743 0.17285 0.0
O10 O 0.27058 0.23906 0.17387 0.0
C11 C 0.07174 0.15935 0.16639 0.0
O12 O 0.08344 0.17915 0.15584 0.0
C13 C 0.15406 0.3083 0.15952 0.0
Zn14 Zn 0.83213 0.82291 0.40423 0.0
Zn15 Zn 0.90817 0.76048 0.40711 0.0
O16 O 0.86488 0.75314 0.4224 0.0
O17 O 0.79744 0.7956 0.41903 0.0
O18 O 0.95508 0.7031 0.40853 0.0
O19 O 0.81764 0.79695 0.38726 0.0
O20 O 0.87811 0.74505 0.39027 0.0
C21 C 0.82251 0.76746 0.42581 0.0
C22 C 0.92947 0.8689 0.40793 0.0
O23 O 0.94684 0.82543 0.40765 0.0
O24 O 0.88357 0.8761 0.40694 0.0
C25 C 0.97263 0.68586 0.41845 0.0
O26 O 0.9649 0.70928 0.42879 0.0
C27 C 0.84385 0.76175 0.3835 0.0
Zn28 Zn 0.19104 0.31222 0.67971 0.0
Zn29 Zn 0.2627 0.37803 0.67962 0.0
O30 O 0.26407 0.35289 0.69746 0.0
O31 O 0.19886 0.30506 0.69791 0.0
O32 O 0.32185 0.42318 0.67861 0.0
O33 O 0.22612 0.26788 0.66799 0.0
O34 O 0.27918 0.32788 0.66603 0.0
C35 C 0.23454 0.3255 0.70335 0.0
C36 C 0.15739 0.4083 0.67301 0.0
O37 O 0.20119 0.42081 0.67588 0.0
O38 O 0.1449 0.36363 0.67314 0.0
C39 C 0.3638 0.4029 0.67964 0.0
O40 O 0.36572 0.35556 0.68175 0.0
C41 C 0.26326 0.28594 0.66274 0.0
Zn42 Zn 0.69852 0.61588 0.92083 0.0
Zn43 Zn 0.6282 0.68552 0.92629 0.0
O44 O 0.6809 0.69236 0.93961 0.0
O45 O 0.73782 0.63704 0.93558 0.0
O46 O 0.5811 0.74086 0.93033 0.0
O47 O 0.70795 0.64976 0.90448 0.0
O48 O 0.65288 0.70525 0.9095 0.0
C49 C 0.72164 0.67169 0.94215 0.0
C50 C 0.6014 0.57611 0.92558 0.0
O51 O 0.58833 0.62082 0.92675 0.0
O52 O 0.6456 0.56515 0.92324 0.0
C53 C 0.55485 0.76062 0.92203 0.0
O54 O 0.55537 0.7419 0.91092 0.0
C55 C 0.68405 0.68832 0.90196 0.0
Zn56 Zn 0.39184 0.34072 0.06886 0.0
Zn57 Zn 0.33567 0.41504 0.05907 0.0
O58 O 0.33646 0.36368 0.04541 0.0
O59 O 0.37743 0.30155 0.05336 0.0
O60 O 0.28417 0.46476 0.0539 0.0
O61 O 0.34617 0.33398 0.08329 0.0
O62 O 0.30253 0.39253 0.0748 0.0
C63 C 0.35341 0.32028 0.04457 0.0
C64 C 0.44317 0.43461 0.06557 0.0
O65 O 0.40233 0.45005 0.06125 0.0
O66 O 0.44719 0.39085 0.06935 0.0
C67 C 0.2416 0.44575 0.05287 0.0
O68 O 0.23758 0.39789 0.05372 0.0
C69 C 0.30885 0.36161 0.08334 0.0
Zn70 Zn 0.75164 0.73846 0.27454 0.0
Zn71 Zn 0.68053 0.67776 0.28036 0.0
O72 O 0.69429 0.6715 0.26188 0.0
O73 O 0.76279 0.71026 0.25776 0.0
O74 O 0.63922 0.61766 0.28364 0.0
O75 O 0.79402 0.72126 0.28901 0.0
O76 O 0.73378 0.67143 0.2937 0.0
C77 C 0.72694 0.68435 0.25421 0.0
C78 C 0.65486 0.78334 0.28042 0.0
O79 O 0.64057 0.74022 0.28317 0.0
O80 O 0.69801 0.79048 0.27642 0.0
C81 C 0.60307 0.60362 0.27711 0.0
O82 O 0.58737 0.63174 0.26816 0.0
C83 C 0.77536 0.69036 0.29625 0.0
Zn84 Zn 0.17978 0.20348 0.55709 0.0
Zn85 Zn 0.25013 0.1341 0.55352 0.0
O86 O 0.25249 0.17997 0.53871 0.0
O87 O 0.19822 0.23871 0.54159 0.0
O88 O 0.30798 0.08901 0.54992 0.0
O89 O 0.21157 0.22256 0.57287 0.0
O90 O 0.26702 0.16474 0.57043 0.0
C91 C 0.23132 0.21905 0.53513 0.0
C92 C 0.14231 0.10354 0.55478 0.0
O93 O 0.18722 0.09165 0.5532 0.0
O94 O 0.13051 0.14778 0.55677 0.0
C95 C 0.33588 0.07067 0.5581 0.0
O96 O 0.32546 0.07798 0.56971 0.0
C97 C 0.24883 0.19958 0.57676 0.0
Zn98 Zn 0.76456 0.7227 0.79726 0.0
Zn99 Zn 0.8408 0.78414 0.80004 0.0
O100 O 0.81528 0.7946 0.78244 0.0
O101 O 0.75014 0.74745 0.78038 0.0
O102 O 0.8892 0.84023 0.80202 0.0
O103 O 0.72861 0.75121 0.81142 0.0
O104 O 0.79433 0.79621 0.81465 0.0
C105 C 0.77937 0.77884 0.77604 0.0
C106 C 0.86018 0.67543 0.80202 0.0
O107 O 0.87789 0.71875 0.80185 0.0
O108 O 0.81452 0.66848 0.80043 0.0
C109 C 0.86974 0.88237 0.80073 0.0
O110 O 0.82255 0.88486 0.79823 0.0
C111 C 0.75176 0.782 0.8179 0.0
Zn112 Zn 0.82232 0.73209 0.66385 0.0
Zn113 Zn 0.75806 0.65673 0.6672 0.0
O114 O 0.75488 0.69915 0.68265 0.0
O115 O 0.80357 0.76265 0.68001 0.0
O116 O 0.70339 0.60767 0.67042 0.0
O117 O 0.78707 0.75146 0.64851 0.0
O118 O 0.73726 0.6888 0.65085 0.0
C119 C 0.77352 0.73907 0.68655 0.0
C120 C 0.86713 0.63429 0.66456 0.0
O121 O 0.8235 0.61879 0.66637 0.0
O122 O 0.8753 0.67964 0.66308 0.0
C123 C 0.67816 0.58745 0.66197 0.0
O124 O 0.69017 0.59516 0.65048 0.0
C125 C 0.75147 0.72575 0.6447 0.0
Zn126 Zn 0.2784 0.24181 0.94099 0.0
Zn127 Zn 0.35069 0.18057 0.93619 0.0
O128 O 0.33414 0.17533 0.95463 0.0
O129 O 0.2653 0.21531 0.95775 0.0
O130 O 0.39616 0.12257 0.93369 0.0
O131 O 0.23856 0.22059 0.92645 0.0
O132 O 0.29903 0.16976 0.92255 0.0
C133 C 0.29991 0.189 0.9618 0.0
C134 C 0.37405 0.28751 0.93534 0.0
O135 O 0.38888 0.24405 0.9331 0.0
O136 O 0.33061 0.29503 0.93909 0.0
C137 C 0.37634 0.08122 0.93584 0.0
O138 O 0.33027 0.08034 0.93938 0.0
C139 C 0.2575 0.18808 0.91968 0.0
Zn140 Zn 0.59715 0.87519 0.15433 0.0
Zn141 Zn 0.66012 0.94147 0.16506 0.0
O142 O 0.65876 0.8859 0.17749 0.0
O143 O 0.61199 0.82977 0.16871 0.0
O144 O 0.71445 0.98655 0.17087 0.0
O145 O 0.6405 0.87001 0.13942 0.0
O146 O 0.69036 0.92142 0.14871 0.0
C147 C 0.6392 0.84352 0.17752 0.0
C148 C 0.55326 0.97043 0.16026 0.0
O149 O 0.59574 0.98112 0.16447 0.0
O150 O 0.54525 0.92878 0.15547 0.0
C151 C 0.75632 0.96575 0.17119 0.0
O152 O 0.75855 0.91829 0.16919 0.0
C153 C 0.68035 0.89388 0.13964 0.0
Zn154 Zn 0.24947 0.19844 0.42793 0.0
Zn155 Zn 0.18269 0.26611 0.42179 0.0
O156 O 0.20256 0.2802 0.43971 0.0
O157 O 0.26582 0.23246 0.44366 0.0
O158 O 0.1422 0.32631 0.41782 0.0
O159 O 0.28979 0.21228 0.41308 0.0
O160 O 0.2355 0.26895 0.40842 0.0
C161 C 0.23684 0.26623 0.44687 0.0
C162 C 0.15043 0.16027 0.42278 0.0
O163 O 0.13979 0.20431 0.41986 0.0
O164 O 0.19279 0.14978 0.4269 0.0
C165 C 0.10473 0.34026 0.42381 0.0
O166 O 0.08741 0.31206 0.43253 0.0
C167 C 0.27488 0.24573 0.40598 0.0
Zn168 Zn 0.80954 0.77988 0.53791 0.0
Zn169 Zn 0.74595 0.85575 0.5375 0.0
O170 O 0.7421 0.82662 0.52006 0.0
O171 O 0.79052 0.76191 0.52063 0.0
O172 O 0.68978 0.9048 0.5381 0.0
O173 O 0.7761 0.74773 0.55203 0.0
O174 O 0.72745 0.81192 0.55218 0.0
C175 C 0.7611 0.78935 0.51484 0.0
C176 C 0.85418 0.87675 0.54186 0.0
O177 O 0.81077 0.8934 0.54029 0.0
O178 O 0.86228 0.831 0.54141 0.0
C179 C 0.64717 0.88569 0.5374 0.0
O180 O 0.64381 0.83814 0.53565 0.0
C181 C 0.74106 0.77129 0.55681 0.0
Zn182 Zn 0.18375 0.35195 0.81749 0.0
Zn183 Zn 0.11981 0.28023 0.81104 0.0
O184 O 0.16762 0.28258 0.79657 0.0
O185 O 0.21712 0.34401 0.80107 0.0
O186 O 0.07582 0.2223 0.80691 0.0
O187 O 0.20543 0.31379 0.83231 0.0
O188 O 0.14947 0.25887 0.82757 0.0
C189 C 0.20326 0.31059 0.79376 0.0
C190 C 0.08344 0.38558 0.81511 0.0
O191 O 0.07515 0.34176 0.81152 0.0
O192 O 0.1259 0.39804 0.81874 0.0
C193 C 0.05199 0.20051 0.8153 0.0
O194 O 0.05335 0.21836 0.8265 0.0
C195 C 0.18289 0.2745 0.83477 0.0
Zn196 Zn 0.76641 0.75123 0.05272 0.0
Zn197 Zn 0.83788 0.69113 0.0528 0.0
O198 O 0.83192 0.71375 0.03473 0.0
O199 O 0.7628 0.75542 0.03466 0.0
O200 O 0.89933 0.64901 0.05203 0.0
O201 O 0.80212 0.8023 0.06218 0.0
O202 O 0.85355 0.74271 0.06638 0.0
C203 C 0.79831 0.73658 0.02892 0.0
C204 C 0.73699 0.65686 0.06107 0.0
O205 O 0.77993 0.64526 0.05738 0.0
O206 O 0.72382 0.70135 0.06119 0.0
C207 C 0.92667 0.63898 0.06117 0.0
O208 O 0.91384 0.65435 0.07212 0.0
C209 C 0.8379 0.78608 0.06835 0.0
Zn210 Zn 0.33832 0.11522 0.29888 0.0
Zn211 Zn 0.40912 0.18368 0.29525 0.0
O212 O 0.35613 0.19727 0.28231 0.0
O213 O 0.2938 0.14909 0.2868 0.0
O214 O 0.45386 0.24224 0.29335 0.0
O215 O 0.33429 0.1345 0.31665 0.0
O216 O 0.38745 0.19323 0.31297 0.0
C217 C 0.31225 0.18294 0.28041 0.0
C218 C 0.43386 0.07623 0.29143 0.0
O219 O 0.44889 0.12039 0.29239 0.0
O220 O 0.38901 0.06583 0.29312 0.0
C221 C 0.47071 0.25844 0.28329 0.0
O222 O 0.46335 0.23335 0.27316 0.0
C223 C 0.35876 0.17121 0.32029 0.0
C224 C 0.22537 0.37879 0.0919 0.0
C225 C 0.27226 0.3579 0.09325 0.0
C226 C 0.19043 0.37551 0.1013 0.0
C227 C 0.20332 0.35193 0.11239 0.0
C228 C 0.25053 0.3305 0.11372 0.0
C229 C 0.28417 0.3334 0.1041 0.0
C230 C 0.14049 0.39828 0.09935 0.0
C231 C 0.26608 0.30516 0.12543 0.0
C232 C 0.16139 0.37524 0.14428 0.0
C233 C 0.14412 0.32826 0.14718 0.0
C234 C 0.17446 0.38689 0.13223 0.0
C235 C 0.16939 0.35082 0.123 0.0
C236 C 0.14275 0.30749 0.12547 0.0
C237 C 0.13041 0.29649 0.13763 0.0
C238 C 0.20066 0.43459 0.12984 0.0
C239 C 0.13375 0.26961 0.11564 0.0
H240 H 0.21577 0.39752 0.08347 0.0
H241 H 0.32031 0.31725 0.10518 0.0
H242 H 0.11143 0.37864 0.10447 0.0
H243 H 0.14131 0.4368 0.10261 0.0
H244 H 0.13044 0.39877 0.08947 0.0
H245 H 0.30428 0.29097 0.12499 0.0
H246 H 0.26359 0.33102 0.13327 0.0
H247 H 0.24117 0.27398 0.12734 0.0
H248 H 0.17033 0.40076 0.15159 0.0
H249 H 0.11555 0.26065 0.13973 0.0
H250 H 0.18892 0.4504 0.12095 0.0
H251 H 0.24081 0.42773 0.12936 0.0
H252 H 0.19381 0.46186 0.13721 0.0
H253 H 0.12508 0.28734 0.10674 0.0
H254 H 0.10319 0.24462 0.11814 0.0
H255 H 0.16744 0.24727 0.1144 0.0
C256 C 0.80204 0.76346 0.36309 0.0
C257 C 0.8361 0.74151 0.37103 0.0
C258 C 0.79634 0.74698 0.351 0.0
C259 C 0.82517 0.70729 0.34673 0.0
C260 C 0.85856 0.68391 0.35478 0.0
C261 C 0.8638 0.70144 0.36683 0.0
C262 C 0.76025 0.77296 0.3427 0.0
C263 C 0.88948 0.64118 0.35058 0.0
C264 C 0.77211 0.65549 0.31741 0.0
C265 C 0.79681 0.68372 0.30864 0.0
C266 C 0.78398 0.65937 0.3299 0.0
C267 C 0.82128 0.69228 0.33366 0.0
C268 C 0.84969 0.71685 0.32475 0.0
C269 C 0.83723 0.71211 0.31232 0.0
C270 C 0.75352 0.63171 0.33912 0.0
C271 C 0.89011 0.75194 0.32837 0.0
H272 H 0.78041 0.79433 0.36624 0.0
H273 H 0.89006 0.68408 0.37292 0.0
H274 H 0.77999 0.78939 0.33484 0.0
H275 H 0.7333 0.7464 0.33892 0.0
H276 H 0.73986 0.80246 0.34752 0.0
H277 H 0.91029 0.62422 0.35825 0.0
H278 H 0.86602 0.61278 0.34623 0.0
H279 H 0.91602 0.65369 0.34357 0.0
H280 H 0.74125 0.63288 0.31465 0.0
H281 H 0.85699 0.73357 0.30561 0.0
H282 H 0.72677 0.65714 0.3434 0.0
H283 H 0.77697 0.61668 0.34654 0.0
H284 H 0.73278 0.60117 0.33478 0.0
H285 H 0.8736 0.78578 0.33223 0.0
H286 H 0.91331 0.7623 0.32043 0.0
H287 H 0.91393 0.73575 0.33556 0.0
C288 C 0.30563 0.18377 0.59461 0.0
C289 C 0.26833 0.2117 0.58909 0.0
C290 C 0.31927 0.19191 0.6069 0.0
C291 C 0.29433 0.22813 0.61381 0.0
C292 C 0.25884 0.25827 0.60803 0.0
C293 C 0.24665 0.24992 0.59576 0.0
C294 C 0.35844 0.16006 0.61258 0.0
C295 C 0.23127 0.29749 0.61501 0.0
C296 C 0.25908 0.22025 0.64688 0.0
C297 C 0.2827 0.26194 0.65158 0.0
C298 C 0.26701 0.20492 0.6348 0.0
C299 C 0.29989 0.23154 0.62733 0.0
C300 C 0.32901 0.26913 0.63257 0.0
C301 C 0.31975 0.28431 0.64465 0.0
C302 C 0.23566 0.1641 0.62963 0.0
C303 C 0.36629 0.29663 0.62507 0.0
H304 H 0.32304 0.15452 0.58948 0.0
H305 H 0.21838 0.27229 0.59155 0.0
H306 H 0.37971 0.18025 0.61967 0.0
H307 H 0.34089 0.1281 0.61704 0.0
H308 H 0.38419 0.14594 0.60553 0.0
H309 H 0.20603 0.31879 0.60903 0.0
H310 H 0.2093 0.28041 0.62241 0.0
H311 H 0.25741 0.32335 0.61939 0.0
H312 H 0.23125 0.20191 0.65227 0.0
H313 H 0.33918 0.31578 0.64833 0.0
H314 H 0.25818 0.13858 0.62408 0.0
H315 H 0.20713 0.17989 0.62351 0.0
H316 H 0.21702 0.14292 0.63694 0.0
H317 H 0.38577 0.27155 0.6187 0.0
H318 H 0.39371 0.31545 0.631 0.0
H319 H 0.34728 0.32478 0.61947 0.0
C320 C 0.76529 0.81157 0.83932 0.0
C321 C 0.73334 0.79311 0.83032 0.0
C322 C 0.75405 0.80669 0.8518 0.0
C323 C 0.71011 0.78274 0.8552 0.0
C324 C 0.67485 0.77049 0.84616 0.0
C325 C 0.68683 0.7761 0.83378 0.0
C326 C 0.79175 0.82191 0.86124 0.0
C327 C 0.62715 0.7456 0.84942 0.0
C328 C 0.71854 0.69049 0.88088 0.0
C329 C 0.69224 0.71374 0.89023 0.0
C330 C 0.72532 0.71323 0.86954 0.0
C331 C 0.70589 0.76075 0.86756 0.0
C332 C 0.68062 0.78516 0.87708 0.0
C333 C 0.67363 0.76111 0.88829 0.0
C334 C 0.75232 0.68577 0.85958 0.0
C335 C 0.66004 0.83606 0.87536 0.0
H336 H 0.80095 0.82571 0.83672 0.0
H337 H 0.66138 0.76295 0.82685 0.0
H338 H 0.77383 0.8376 0.86947 0.0
H339 H 0.81296 0.78924 0.86418 0.0
H340 H 0.81792 0.84921 0.85749 0.0
H341 H 0.60049 0.74629 0.84168 0.0
H342 H 0.63461 0.70678 0.8518 0.0
H343 H 0.61005 0.7632 0.85751 0.0
H344 H 0.73301 0.65394 0.88232 0.0
H345 H 0.65356 0.77946 0.89553 0.0
H346 H 0.78433 0.70744 0.85643 0.0
H347 H 0.72772 0.68023 0.85156 0.0
H348 H 0.76566 0.64937 0.86268 0.0
H349 H 0.68678 0.85995 0.8706 0.0
H350 H 0.65009 0.85335 0.88424 0.0
H351 H 0.62652 0.83416 0.86958 0.0
C352 C 0.68421 0.78207 0.57465 0.0
C353 C 0.72158 0.75547 0.56881 0.0
C354 C 0.67399 0.77463 0.58712 0.0
C355 C 0.70266 0.74081 0.59387 0.0
C356 C 0.73663 0.71031 0.58769 0.0
C357 C 0.74525 0.71767 0.5752 0.0
C358 C 0.6356 0.80597 0.59325 0.0
C359 C 0.76793 0.67358 0.59451 0.0
C360 C 0.75158 0.77259 0.62517 0.0
C361 C 0.73062 0.73578 0.6324 0.0
C362 C 0.73986 0.77685 0.61274 0.0
C363 C 0.70545 0.74411 0.60743 0.0
C364 C 0.68034 0.71021 0.61494 0.0
C365 C 0.69364 0.70601 0.62736 0.0
C366 C 0.7676 0.81369 0.60509 0.0
C367 C 0.64186 0.67616 0.60975 0.0
H368 H 0.66487 0.81061 0.5697 0.0
H369 H 0.77354 0.69628 0.57071 0.0
H370 H 0.61608 0.78515 0.60047 0.0
H371 H 0.65359 0.83792 0.59768 0.0
H372 H 0.60831 0.81997 0.58652 0.0
H373 H 0.78897 0.6495 0.5882 0.0
H374 H 0.79441 0.69332 0.60051 0.0
H375 H 0.74486 0.65025 0.60047 0.0
H376 H 0.77957 0.79636 0.62902 0.0
H377 H 0.67655 0.67802 0.63294 0.0
H378 H 0.74169 0.83658 0.59973 0.0
H379 H 0.79153 0.79414 0.59847 0.0
H380 H 0.79097 0.83829 0.61077 0.0
H381 H 0.62042 0.69408 0.60234 0.0
H382 H 0.6162 0.66356 0.61698 0.0
H383 H 0.66002 0.64337 0.60581 0.0
C384 C 0.19297 0.20331 0.90386 0.0
C385 C 0.23614 0.17894 0.90737 0.0
C386 C 0.18005 0.20785 0.89148 0.0
C387 C 0.21082 0.18709 0.88242 0.0
C388 C 0.25068 0.15699 0.88599 0.0
C389 C 0.26303 0.15333 0.89847 0.0
C390 C 0.13675 0.23969 0.88808 0.0
C391 C 0.28337 0.13286 0.87662 0.0
C392 C 0.16895 0.20504 0.84944 0.0
C393 C 0.19343 0.24865 0.84641 0.0
C394 C 0.17586 0.1829 0.86094 0.0
C395 C 0.20737 0.20536 0.86963 0.0
C396 C 0.23352 0.24831 0.86644 0.0
C397 C 0.22642 0.2692 0.85487 0.0
C398 C 0.14801 0.13666 0.86392 0.0
C399 C 0.26757 0.27353 0.87543 0.0
H400 H 0.17132 0.22235 0.9107 0.0
H401 H 0.29597 0.13361 0.9011 0.0
H402 H 0.15029 0.27547 0.88466 0.0
H403 H 0.11483 0.22255 0.88064 0.0
H404 H 0.11235 0.24664 0.89604 0.0
H405 H 0.30534 0.10267 0.8807 0.0
H406 H 0.26144 0.11807 0.86886 0.0
H407 H 0.30913 0.16046 0.87286 0.0
H408 H 0.1436 0.18869 0.84292 0.0
H409 H 0.24572 0.3027 0.85261 0.0
H410 H 0.11663 0.14572 0.86996 0.0
H411 H 0.17176 0.11029 0.8689 0.0
H412 H 0.13336 0.1186 0.85553 0.0
H413 H 0.24645 0.28611 0.88353 0.0
H414 H 0.28635 0.30571 0.87136 0.0
H415 H 0.29595 0.24752 0.87874 0.0
C416 C 0.84008 0.86288 0.08042 0.0
C417 C 0.85079 0.8127 0.07968 0.0
C418 C 0.82693 0.88421 0.09162 0.0
C419 C 0.82456 0.85436 0.10217 0.0
C420 C 0.84507 0.80668 0.10185 0.0
C421 C 0.85818 0.7862 0.09052 0.0
C422 C 0.80779 0.93606 0.0917 0.0
C423 C 0.84565 0.7746 0.11308 0.0
C424 C 0.76562 0.90301 0.13136 0.0
C425 C 0.71695 0.88687 0.12982 0.0
C426 C 0.80159 0.8927 0.12252 0.0
C427 C 0.78818 0.86651 0.11181 0.0
C428 C 0.73881 0.85114 0.11012 0.0
C429 C 0.70398 0.86134 0.11916 0.0
C430 C 0.85353 0.91009 0.12468 0.0
C431 C 0.72263 0.82331 0.0988 0.0
H432 H 0.83581 0.88387 0.07205 0.0
H433 H 0.86755 0.74763 0.09004 0.0
H434 H 0.76707 0.93537 0.09116 0.0
H435 H 0.81827 0.95516 0.1003 0.0
H436 H 0.8218 0.9573 0.08378 0.0
H437 H 0.87252 0.74419 0.11215 0.0
H438 H 0.85474 0.79625 0.12141 0.0
H439 H 0.80864 0.75842 0.11437 0.0
H440 H 0.77597 0.92278 0.1396 0.0
H441 H 0.66647 0.84893 0.1179 0.0
H442 H 0.85919 0.94514 0.11976 0.0
H443 H 0.88082 0.88338 0.12117 0.0
H444 H 0.86088 0.91672 0.13457 0.0
H445 H 0.73054 0.84511 0.09047 0.0
H446 H 0.68277 0.81463 0.09887 0.0
H447 H 0.74332 0.78841 0.09807 0.0
C448 C 0.27456 0.27673 0.38449 0.0
C449 C 0.29892 0.25201 0.39398 0.0
C450 C 0.29025 0.27189 0.37232 0.0
C451 C 0.3313 0.24191 0.36969 0.0
C452 C 0.35926 0.2216 0.37938 0.0
C453 C 0.34267 0.22687 0.39144 0.0
C454 C 0.25981 0.2946 0.36223 0.0
C455 C 0.40372 0.19002 0.37695 0.0
C456 C 0.32179 0.16441 0.34106 0.0
C457 C 0.35296 0.18918 0.33298 0.0
C458 C 0.31462 0.1814 0.35301 0.0
C459 C 0.33926 0.22427 0.35701 0.0
C460 C 0.37103 0.2494 0.34897 0.0
C461 C 0.37755 0.23152 0.33701 0.0
C462 C 0.28045 0.15345 0.36135 0.0
C463 C 0.39783 0.29518 0.35297 0.0
H464 H 0.24104 0.29674 0.38639 0.0
H465 H 0.36224 0.20845 0.39877 0.0
H466 H 0.2836 0.31043 0.35503 0.0
H467 H 0.23683 0.26583 0.35786 0.0
H468 H 0.23511 0.32374 0.36578 0.0
H469 H 0.42628 0.18469 0.38535 0.0
H470 H 0.39152 0.15351 0.37364 0.0
H471 H 0.4271 0.20632 0.36973 0.0
H472 H 0.3027 0.13168 0.33803 0.0
H473 H 0.40166 0.25092 0.33081 0.0
H474 H 0.25022 0.1777 0.36446 0.0
H475 H 0.30065 0.14108 0.36964 0.0
H476 H 0.2641 0.12085 0.35679 0.0
H477 H 0.37099 0.32386 0.35561 0.0
H478 H 0.42186 0.30996 0.34565 0.0
H479 H 0.42068 0.2874 0.36118 0.0
C480 C 0.18329 0.30371 0.22222 0.0
C481 C 0.17091 0.26424 0.21457 0.0
C482 C 0.19621 0.29583 0.23451 0.0
C483 C 0.19851 0.24729 0.239 0.0
C484 C 0.181 0.20808 0.23169 0.0
C485 C 0.16649 0.21724 0.21959 0.0
C486 C 0.21186 0.33886 0.24231 0.0
C487 C 0.18332 0.15566 0.23606 0.0
C488 C 0.30668 0.2148 0.25921 0.0
C489 C 0.28354 0.20401 0.27029 0.0
C490 C 0.2793 0.22994 0.24903 0.0
C491 C 0.22781 0.2363 0.25014 0.0
C492 C 0.20473 0.22843 0.26156 0.0
C493 C 0.2328 0.21115 0.27146 0.0
C494 C 0.30526 0.23687 0.23693 0.0
C495 C 0.15039 0.23685 0.26326 0.0
H496 H 0.18594 0.34025 0.2184 0.0
H497 H 0.15677 0.18662 0.21371 0.0
H498 H 0.19908 0.33443 0.25189 0.0
H499 H 0.25254 0.34107 0.2425 0.0
H500 H 0.19742 0.37395 0.23862 0.0
H501 H 0.16319 0.13029 0.22985 0.0
H502 H 0.22228 0.14379 0.23653 0.0
H503 H 0.16781 0.15231 0.24539 0.0
H504 H 0.34593 0.20904 0.25835 0.0
H505 H 0.21509 0.20327 0.28012 0.0
H506 H 0.29983 0.27482 0.23359 0.0
H507 H 0.28945 0.21173 0.22995 0.0
H508 H 0.34535 0.22975 0.23762 0.0
H509 H 0.13801 0.26995 0.25823 0.0
H510 H 0.14082 0.24108 0.2731 0.0
H511 H 0.12969 0.20507 0.25957 0.0
C512 C 0.84086 0.75294 0.44782 0.0
C513 C 0.80593 0.7579 0.43844 0.0
C514 C 0.82681 0.7538 0.46015 0.0
C515 C 0.77642 0.75802 0.46317 0.0
C516 C 0.74067 0.75906 0.45372 0.0
C517 C 0.75593 0.75993 0.44143 0.0
C518 C 0.86623 0.75354 0.46994 0.0
C519 C 0.68653 0.76143 0.45657 0.0
C520 C 0.75449 0.73346 0.49682 0.0
C521 C 0.75433 0.78117 0.50159 0.0
C522 C 0.75731 0.72526 0.48414 0.0
C523 C 0.76216 0.76574 0.47616 0.0
C524 C 0.75939 0.81404 0.48091 0.0
C525 C 0.75463 0.82115 0.49359 0.0
C526 C 0.75797 0.6733 0.47938 0.0
C527 C 0.76551 0.85823 0.47275 0.0
H528 H 0.87957 0.75171 0.44555 0.0
H529 H 0.72882 0.76342 0.43418 0.0
H530 H 0.86528 0.78862 0.47511 0.0
H531 H 0.85949 0.72366 0.47659 0.0
H532 H 0.9036 0.74874 0.46606 0.0
H533 H 0.66356 0.75341 0.44837 0.0
H534 H 0.67706 0.73506 0.46392 0.0
H535 H 0.67706 0.79861 0.45994 0.0
H536 H 0.75389 0.70252 0.50304 0.0
H537 H 0.75492 0.85804 0.4973 0.0
H538 H 0.79602 0.66302 0.47685 0.0
H539 H 0.73488 0.66989 0.47102 0.0
H540 H 0.74466 0.64685 0.48634 0.0
H541 H 0.80324 0.85856 0.46894 0.0
H542 H 0.7594 0.89319 0.47776 0.0
H543 H 0.73958 0.85647 0.46491 0.0
C544 C 0.28413 0.31598 0.7226 0.0
C545 C 0.23852 0.32078 0.71675 0.0
C546 C 0.28698 0.3108 0.73541 0.0
C547 C 0.24334 0.31251 0.74244 0.0
C548 C 0.19736 0.31823 0.7365 0.0
C549 C 0.19551 0.32138 0.72373 0.0
C550 C 0.33638 0.30303 0.74141 0.0
C551 C 0.15004 0.32184 0.74365 0.0
C552 C 0.2228 0.26501 0.77449 0.0
C553 C 0.2237 0.30866 0.78127 0.0
C554 C 0.23422 0.26487 0.76196 0.0
C555 C 0.24483 0.30972 0.75603 0.0
C556 C 0.24869 0.35336 0.763 0.0
C557 C 0.23883 0.35212 0.77559 0.0
C558 C 0.23152 0.21729 0.75491 0.0
C559 C 0.25846 0.40221 0.75701 0.0
H560 H 0.31731 0.31521 0.71714 0.0
H561 H 0.16028 0.32562 0.71918 0.0
H562 H 0.34438 0.33337 0.7479 0.0
H563 H 0.3359 0.26865 0.74682 0.0
H564 H 0.36657 0.30088 0.73462 0.0
H565 H 0.1177 0.32849 0.73764 0.0
H566 H 0.14373 0.28748 0.74881 0.0
H567 H 0.1525 0.3521 0.75044 0.0
H568 H 0.21163 0.23126 0.7789 0.0
H569 H 0.23934 0.38601 0.7808 0.0
H570 H 0.26229 0.21448 0.74831 0.0
H571 H 0.19676 0.21597 0.74958 0.0
H572 H 0.23255 0.18504 0.7611 0.0
H573 H 0.28971 0.39963 0.75056 0.0
H574 H 0.26649 0.4314 0.76384 0.0
H575 H 0.22566 0.41332 0.75162 0.0
C576 C 0.83881 0.73229 0.00834 0.0
C577 C 0.79618 0.73488 0.01546 0.0
C578 C 0.83562 0.72691 -0.00446 0.0
C579 C 0.78885 0.72177 -0.01004 0.0
C580 C 0.74583 0.72492 -0.00285 0.0
C581 C 0.75008 0.73239 0.00976 0.0
C582 C 0.88213 0.7257 -0.01192 0.0
C583 C 0.6952 0.71824 -0.00837 0.0
C584 C 0.75188 0.73461 0.95686 0.0
C585 C 0.74787 0.68538 0.9534 0.0
C586 C 0.77095 0.74747 0.96838 0.0
C587 C 0.78377 0.71002 0.97675 0.0
C588 C 0.7824 0.66033 0.97299 0.0
C589 C 0.76526 0.64868 0.96123 0.0
C590 C 0.77412 0.80091 0.97188 0.0
C591 C 0.79426 0.61921 0.98176 0.0
H592 H 0.87447 0.73442 0.01277 0.0
H593 H 0.71705 0.73383 0.01528 0.0
H594 H 0.89011 0.68749 0.98524 0.0
H595 H 0.87789 0.74784 0.97962 0.0
H596 H 0.91417 0.73968 -0.00664 0.0
H597 H 0.66567 0.72045 -0.00139 0.0
H598 H 0.68821 0.74671 0.98461 0.0
H599 H 0.69274 0.68206 -0.01299 0.0
H600 H 0.73904 0.76294 0.95067 0.0
H601 H 0.76198 0.61059 0.95849 0.0
H602 H 0.80833 0.80834 0.97713 0.0
H603 H 0.74266 0.81064 0.97784 0.0
H604 H 0.77312 0.82504 0.9637 0.0
H605 H 0.82969 0.62604 -0.01351 0.0
H606 H 0.79622 0.58312 0.97705 0.0
H607 H 0.76538 0.61728 -0.01111 0.0
C608 C 0.33762 0.31593 0.02211 0.0
C609 C 0.34519 0.29169 0.03325 0.0
C610 C 0.33042 0.28958 0.01122 0.0
C611 C 0.32946 0.23767 0.01153 0.0
C612 C 0.33637 0.21292 0.02279 0.0
C613 C 0.34481 0.24028 0.03351 0.0
C614 C 0.32418 0.31742 -0.00064 0.0
C615 C 0.33429 0.15774 0.0235 0.0
C616 C 0.2661 0.19189 0.98298 0.0
C617 C 0.30635 0.18491 0.9752 0.0
C618 C 0.27308 0.20386 -0.00462 0.0
C619 C 0.32141 0.21011 -6e-05 0.0
C620 C 0.36201 0.198 -0.00754 0.0
C621 C 0.35391 0.18486 0.98018 0.0
C622 C 0.22878 0.21467 0.0032 0.0
C623 C 0.41416 0.20452 -0.00308 0.0
H624 H 0.33821 0.35563 0.02187 0.0
H625 H 0.35023 0.22146 0.04215 0.0
H626 H 0.35209 0.30524 -0.00738 0.0
H627 H 0.2875 0.30968 -0.00466 0.0
H628 H 0.32777 0.35765 0.00065 0.0
H629 H 0.34044 0.1441 0.03297 0.0
H630 H 0.29792 0.14465 0.02025 0.0
H631 H 0.36233 0.1413 0.0174 0.0
H632 H 0.22922 0.19136 0.9792 0.0
H633 H 0.38521 0.17947 0.97421 0.0
H634 H 0.22374 0.25491 0.00392 0.0
H635 H 0.23394 0.20024 0.01262 0.0
H636 H 0.19475 0.19865 -0.00077 0.0
H637 H 0.42318 0.24418 -0.00291 0.0
H638 H 0.44093 0.18568 -0.00914 0.0
H639 H 0.41869 0.19043 0.00638 0.0
C640 C 0.75235 0.6936 0.23239 0.0
C641 C 0.71598 0.68166 0.24094 0.0
C642 C 0.73957 0.70906 0.22055 0.0
C643 C 0.68933 0.71359 0.21735 0.0
C644 C 0.65294 0.69558 0.22539 0.0
C645 C 0.66682 0.67909 0.23706 0.0
C646 C 0.7796 0.72588 0.21201 0.0
C647 C 0.59894 0.69969 0.22238 0.0
C648 C 0.65976 0.82848 0.1994 0.0
C649 C 0.64973 0.80973 0.18772 0.0
C650 C 0.67157 0.79726 0.20914 0.0
C651 C 0.67486 0.74607 0.20705 0.0
C652 C 0.66476 0.72684 0.19525 0.0
C653 C 0.65168 0.75896 0.18573 0.0
C654 C 0.68083 0.81922 0.22167 0.0
C655 C 0.66924 0.67273 0.19259 0.0
H656 H 0.7905 0.6948 0.23526 0.0
H657 H 0.63843 0.66944 0.24356 0.0
H658 H 0.77123 0.71517 0.20241 0.0
H659 H 0.78219 0.76644 0.21234 0.0
H660 H 0.81591 0.71048 0.21464 0.0
H661 H 0.57628 0.67581 0.22834 0.0
H662 H 0.58699 0.7382 0.22376 0.0
H663 H 0.59162 0.68999 0.21267 0.0
H664 H 0.65798 0.8677 0.20096 0.0
H665 H 0.64448 0.74449 0.17664 0.0
H666 H 0.71942 0.81246 0.22449 0.0
H667 H 0.65676 0.80157 0.22856 0.0
H668 H 0.67407 0.85936 0.22188 0.0
H669 H 0.70835 0.66165 0.1933 0.0
H670 H 0.65557 0.66313 0.18328 0.0
H671 H 0.64864 0.65102 0.19944 0.0
C672 C 0.28347 0.28908 0.46562 0.0
C673 C 0.23827 0.28287 0.45966 0.0
C674 C 0.286 0.29167 0.47844 0.0
C675 C 0.24256 0.28546 0.48533 0.0
C676 C 0.19643 0.28377 0.47929 0.0
C677 C 0.19483 0.28337 0.46645 0.0
C678 C 0.33552 0.29646 0.48458 0.0
C679 C 0.14929 0.27647 0.48629 0.0
C680 C 0.25146 0.20479 0.51332 0.0
C681 C 0.24089 0.2379 0.52275 0.0
C682 C 0.25314 0.22025 0.50112 0.0
C683 C 0.24598 0.27047 0.49836 0.0
C684 C 0.23875 0.30469 0.50795 0.0
C685 C 0.23513 0.28777 0.52006 0.0
C686 C 0.25998 0.18228 0.49116 0.0
C687 C 0.23315 0.35875 0.50544 0.0
H688 H 0.31702 0.28926 0.4603 0.0
H689 H 0.15992 0.27841 0.46179 0.0
H690 H 0.33309 0.32005 0.49285 0.0
H691 H 0.34843 0.25979 0.48754 0.0
H692 H 0.36332 0.31204 0.47826 0.0
H693 H 0.11634 0.28122 0.48037 0.0
H694 H 0.14865 0.2389 0.49016 0.0
H695 H 0.14694 0.30257 0.49406 0.0
H696 H 0.25556 0.16617 0.5154 0.0
H697 H 0.22729 0.31344 0.52739 0.0
H698 H 0.29297 0.19097 0.48565 0.0
H699 H 0.22787 0.18263 0.48486 0.0
H700 H 0.26421 0.14467 0.49489 0.0
H701 H 0.25789 0.37067 0.49796 0.0
H702 H 0.24107 0.38104 0.51375 0.0
H703 H 0.19487 0.36649 0.50253 0.0
C704 C 0.75752 0.71882 0.70829 0.0
C705 C 0.76496 0.75451 0.6993 0.0
C706 C 0.75691 0.7314 0.72072 0.0
C707 C 0.76211 0.78117 0.72419 0.0
C708 C 0.76629 0.81781 0.71511 0.0
C709 C 0.76871 0.80391 0.70272 0.0
C710 C 0.75339 0.69102 0.73013 0.0
C711 C 0.7698 0.87137 0.71846 0.0
C712 C 0.72883 0.79546 0.75749 0.0
C713 C 0.77517 0.7918 0.76303 0.0
C714 C 0.72417 0.79748 0.74471 0.0
C715 C 0.76676 0.79355 0.73738 0.0
C716 C 0.81381 0.79335 0.74298 0.0
C717 C 0.81744 0.79334 0.75579 0.0
C718 C 0.67355 0.80005 0.73906 0.0
C719 C 0.8601 0.78808 0.73551 0.0
H720 H 0.75499 0.68057 0.70565 0.0
H721 H 0.77411 0.83156 0.69574 0.0
H722 H 0.78675 0.69111 0.73601 0.0
H723 H 0.72138 0.69727 0.73619 0.0
H724 H 0.74963 0.6542 0.72587 0.0
H725 H 0.76407 0.89543 0.71038 0.0
H726 H 0.7423 0.88088 0.72556 0.0
H727 H 0.80665 0.87923 0.72236 0.0
H728 H 0.69617 0.79481 0.76315 0.0
H729 H 0.85324 0.79027 0.76011 0.0
H730 H 0.66234 0.76305 0.73589 0.0
H731 H 0.67337 0.82461 0.73097 0.0
H732 H 0.64582 0.81332 0.74574 0.0
H733 H 0.86132 0.75089 0.73138 0.0
H734 H 0.89376 0.79337 0.74115 0.0
H735 H 0.86051 0.81485 0.72789 0.0
C736 C 0.00984 0.11483 0.17918 0.0
C737 C 0.02618 0.12989 0.16759 0.0
C738 C 0.96564 0.08889 0.18052 0.0
C739 C 0.93717 0.07739 0.17002 0.0
C740 C 0.95362 0.0921 0.15829 0.0
C741 C 0.99782 0.11827 0.15722 0.0
C742 C 0.94931 0.07389 0.19318 0.0
C743 C 0.92453 0.08013 0.14685 0.0
C744 C 0.84791 0.97066 0.17106 0.0
C745 C 0.80242 0.99456 0.17207 0.0
C746 C 0.89199 0.99713 0.1706 0.0
C747 C 0.89078 0.04889 0.17123 0.0
C748 C 0.84517 0.07327 0.17264 0.0
C749 C 0.80148 0.04581 0.17302 0.0
C750 C 0.93978 0.96971 0.16907 0.0
C751 C 0.84245 0.12843 0.17343 0.0
H752 H 0.03133 0.12378 0.18726 0.0
H753 H 0.01009 0.12973 0.14823 0.0
H754 H 0.91252 0.08945 0.19514 0.0
H755 H 0.94594 0.03344 0.19367 0.0
H756 H 0.97527 0.08625 0.20043 0.0
H757 H 0.94225 0.09433 0.13842 0.0
H758 H 0.92027 0.03986 0.14594 0.0
H759 H 0.88712 0.096 0.14752 0.0
H760 H 0.84913 0.93107 0.17031 0.0
H761 H 0.76655 0.06459 0.17379 0.0
H762 H 0.9659 0.98 0.17647 0.0
H763 H 0.95698 0.9799 0.16024 0.0
H764 H 0.93463 0.92934 0.16922 0.0
H765 H 0.86678 0.14201 0.18088 0.0
H766 H 0.80451 0.14166 0.17516 0.0
H767 H 0.85567 0.14473 0.16475 0.0
C768 C 0.11278 0.4262 0.41605 0.0
C769 C 0.08462 0.39028 0.42196 0.0
C770 C 0.09618 0.47481 0.41513 0.0
C771 C 0.04984 0.48773 0.42001 0.0
C772 C 0.02061 0.45133 0.42567 0.0
C773 C 0.03856 0.40318 0.42669 0.0
C774 C 0.1288 0.51262 0.40919 0.0
C775 C 0.97054 0.46335 0.43076 0.0
C776 C 0.02257 0.62026 0.42868 0.0
C777 C 0.99562 0.63651 0.41849 0.0
C778 C 0.04138 0.5723 0.42917 0.0
C779 C 0.03218 0.53945 0.41935 0.0
C780 C 0.00543 0.55581 0.40899 0.0
C781 C 0.98792 0.60422 0.40863 0.0
C782 C 0.07062 0.5566 0.44027 0.0
C783 C 0.99411 0.52178 0.39841 0.0
H784 H 0.1486 0.4167 0.41246 0.0
H785 H 0.01653 0.37563 0.43122 0.0
H786 H 0.1093 0.53017 0.40142 0.0
H787 H 0.13775 0.54193 0.4159 0.0
H788 H 0.16364 0.49659 0.40576 0.0
H789 H 0.95145 0.43046 0.43436 0.0
H790 H 0.97413 0.49055 0.43828 0.0
H791 H 0.94727 0.48016 0.42353 0.0
H792 H 0.02878 0.64499 0.43632 0.0
H793 H 0.96677 0.61627 0.40076 0.0
H794 H 0.10686 0.54202 0.4374 0.0
H795 H 0.05113 0.52666 0.44509 0.0
H796 H 0.07668 0.5872 0.44684 0.0
H797 H 0.02863 0.50679 0.39455 0.0
H798 H 0.97339 0.54033 0.39096 0.0
H799 H 0.97213 0.49025 0.4017 0.0
C800 C 0.45547 0.40689 0.67827 0.0
C801 C 0.40995 0.43102 0.67782 0.0
C802 C 0.49953 0.43201 0.67603 0.0
C803 C 0.49826 0.48266 0.67331 0.0
C804 C 0.45255 0.50751 0.67304 0.0
C805 C 0.40894 0.48139 0.67528 0.0
C806 C 0.54741 0.40409 0.67639 0.0
C807 C 0.44968 0.56156 0.67023 0.0
C808 C 0.6165 0.55593 0.67711 0.0
C809 C 0.63323 0.55902 0.66497 0.0
C810 C 0.57258 0.53144 0.67995 0.0
C811 C 0.54473 0.50924 0.67046 0.0
C812 C 0.56166 0.51179 0.65822 0.0
C813 C 0.60558 0.53667 0.65562 0.0
C814 C 0.55577 0.5296 0.69311 0.0
C815 C 0.53326 0.48834 0.64783 0.0
H816 H 0.45678 0.368 0.68022 0.0
H817 H 0.374 0.50039 0.67492 0.0
H818 H 0.56531 0.40564 0.66728 0.0
H819 H 0.57294 0.42126 0.68309 0.0
H820 H 0.54226 0.36504 0.67893 0.0
H821 H 0.41153 0.57583 0.67076 0.0
H822 H 0.47304 0.58249 0.67675 0.0
H823 H 0.46401 0.56853 0.66089 0.0
H824 H 0.63742 0.57322 0.6844 0.0
H825 H 0.61807 0.53885 0.64622 0.0
H826 H 0.5523 0.49096 0.69612 0.0
H827 H 0.51893 0.54663 0.69394 0.0
H828 H 0.58148 0.54883 0.69943 0.0
H829 H 0.52914 0.44849 0.64952 0.0
H830 H 0.55142 0.4935 0.63883 0.0
H831 H 0.49577 0.50418 0.64733 0.0
C832 C 0.38033 0.98972 0.93667 0.0
C833 C 0.40369 0.03453 0.93426 0.0
C834 C 0.4048 0.94494 0.93502 0.0
C835 C 0.45396 0.94474 0.93088 0.0
C836 C 0.47802 0.9898 0.92855 0.0
C837 C 0.4526 0.03418 0.93027 0.0
C838 C 0.37779 0.89776 0.9376 0.0
C839 C 0.53047 0.99108 0.92413 0.0
C840 C 0.53012 0.82946 0.93604 0.0
C841 C 0.5275 0.80669 0.9245 0.0
C842 C 0.50655 0.87447 0.93824 0.0
C843 C 0.47965 0.89726 0.92869 0.0
C844 C 0.4765 0.87424 0.91707 0.0
C845 C 0.50042 0.82931 0.91512 0.0
C846 C 0.51066 0.89777 0.95076 0.0
C847 C 0.44799 0.89719 0.90666 0.0
H848 H 0.34259 0.98949 0.93978 0.0
H849 H 0.47098 0.06857 0.9284 0.0
H850 H 0.37546 0.87535 0.92912 0.0
H851 H 0.39822 0.87591 0.9445 0.0
H852 H 0.33998 0.90423 0.94104 0.0
H853 H 0.54435 0.02908 0.92303 0.0
H854 H 0.55466 0.97146 0.93069 0.0
H855 H 0.53331 0.97186 0.91519 0.0
H856 H 0.55105 0.81239 0.94334 0.0
H857 H 0.49821 0.81213 0.90617 0.0
H858 H 0.47356 0.90283 0.95474 0.0
H859 H 0.52754 0.93462 0.94999 0.0
H860 H 0.53306 0.87546 0.9572 0.0
H861 H 0.40904 0.90214 0.90934 0.0
H862 H 0.44922 0.87469 0.89816 0.0
H863 H 0.46299 0.93404 0.90461 0.0
C864 C 0.1502 0.45349 0.05257 0.0
C865 C 0.19643 0.47629 0.05247 0.0
C866 C 0.10678 0.48089 0.05349 0.0
C867 C 0.10936 0.53257 0.05425 0.0
C868 C 0.15576 0.55605 0.05375 0.0
C869 C 0.19879 0.52762 0.0529 0.0
C870 C 0.05817 0.45432 0.05403 0.0
C871 C 0.15998 0.61112 0.05444 0.0
C872 C 0.99113 0.60226 0.04755 0.0
C873 C 0.97357 0.61203 0.05939 0.0
C874 C 0.03579 0.57747 0.04573 0.0
C875 C 0.06346 0.56162 0.056 0.0
C876 C 0.04605 0.57149 0.06797 0.0
C877 C 1.00148 0.59672 0.06952 0.0
C878 C 0.05315 0.56784 0.03282 0.0
C879 C 0.0742 0.55477 0.07916 0.0
H880 H 0.14782 0.41387 0.05224 0.0
H881 H 0.23429 0.54558 0.05284 0.0
H882 H 0.04035 0.46146 0.06299 0.0
H883 H 0.03308 0.46816 0.0468 0.0
H884 H 0.06231 0.41409 0.05287 0.0
H885 H 0.19837 0.62391 0.05319 0.0
H886 H 0.13647 0.62832 0.04732 0.0
H887 H 0.14667 0.62418 0.06347 0.0
H888 H 0.97005 0.61418 0.03965 0.0
H889 H 0.98831 0.60409 0.07871 0.0
H890 H 0.05514 0.52778 0.03115 0.0
H891 H 0.0907 0.58276 0.03158 0.0
H892 H 0.0285 0.58439 0.02583 0.0
H893 H 0.07733 0.51423 0.07913 0.0
H894 H 0.05633 0.56635 0.08784 0.0
H895 H 0.11205 0.56976 0.079 0.0
C896 C 0.5376 0.54055 0.27342 0.0
C897 C 0.58275 0.5536 0.27872 0.0
C898 C 0.51937 0.49251 0.27436 0.0
C899 C 0.54745 0.45638 0.28053 0.0
C900 C 0.59302 0.46939 0.28591 0.0
C901 C 0.60985 0.51789 0.28505 0.0
C902 C 0.47013 0.48035 0.26872 0.0
C903 C 0.62446 0.43184 0.29239 0.0
C904 C 0.48375 0.34184 0.29229 0.0
C905 C 0.49286 0.30806 0.28284 0.0
C906 C 0.50107 0.39022 0.29162 0.0
C907 C 0.52914 0.405 0.28138 0.0
C908 C 0.53952 0.37074 0.27196 0.0
C909 C 0.52078 0.32283 0.27273 0.0
C910 C 0.48842 0.42579 0.30175 0.0
C911 C 0.57024 0.38477 0.26102 0.0
H912 H 0.51642 0.56795 0.26853 0.0
H913 H 0.64501 0.5275 0.28908 0.0
H914 H 0.47467 0.4521 0.26148 0.0
H915 H 0.44542 0.46479 0.27577 0.0
H916 H 0.45209 0.51294 0.2646 0.0
H917 H 0.65921 0.44775 0.29598 0.0
H918 H 0.60393 0.41561 0.30014 0.0
H919 H 0.63358 0.40154 0.28599 0.0
H920 H 0.46178 0.33091 0.30008 0.0
H921 H 0.52803 0.2969 0.26542 0.0
H922 H 0.4677 0.45729 0.29792 0.0
H923 H 0.52247 0.44062 0.30596 0.0
H924 H 0.46599 0.40859 0.30906 0.0
H925 H 0.55178 0.41444 0.25582 0.0
H926 H 0.57663 0.35336 0.25473 0.0
H927 H 0.60632 0.39917 0.26413 0.0
C928 C 0.60422 0.96546 0.54193 0.0
C929 C 0.6019 0.91507 0.53941 0.0
C930 C 0.56141 0.99245 0.54455 0.0
C931 C 0.51524 0.96846 0.54469 0.0
C932 C 0.51265 0.91783 0.54194 0.0
C933 C 0.55586 0.89187 0.53931 0.0
C934 C 0.56567 0.04645 0.54737 0.0
C935 C 0.46427 0.89077 0.54202 0.0
C936 C 0.41097 0.0221 0.56362 0.0
C937 C 0.38138 0.04399 0.5546 0.0
C938 C 0.4548 0.99791 0.56053 0.0
C939 C 0.4697 0.99567 0.54812 0.0
C940 C 0.44017 0.01787 0.53897 0.0
C941 C 0.39633 0.0416 0.54231 0.0
C942 C 0.48502 0.97442 0.57056 0.0
C943 C 0.45482 0.01643 0.52564 0.0
H944 H 0.63956 0.98373 0.54202 0.0
H945 H 0.55352 0.85298 0.53737 0.0
H946 H 0.5412 0.06774 0.54121 0.0
H947 H 0.55355 0.05361 0.5569 0.0
H948 H 0.60384 0.06015 0.54633 0.0
H949 H 0.46829 0.8517 0.53932 0.0
H950 H 0.448 0.89238 0.55132 0.0
H951 H 0.43791 0.90852 0.53565 0.0
H952 H 0.39988 0.02377 0.57314 0.0
H953 H 0.37394 0.05862 0.53528 0.0
H954 H 0.52278 0.98968 0.57056 0.0
H955 H 0.48819 0.93445 0.56885 0.0
H956 H 0.46882 0.9801 0.57978 0.0
H957 H 0.49191 0.03259 0.52451 0.0
H958 H 0.42859 0.03663 0.51969 0.0
H959 H 0.45682 0.97789 0.52243 0.0
C960 C 1.00117 0.12934 0.82223 0.0
C961 C 0.02572 0.15384 0.81276 0.0
C962 C 0.97742 0.0844 0.82014 0.0
C963 C 0.97812 0.06327 0.80828 0.0
C964 C 1.00287 0.08771 0.79867 0.0
C965 C 0.02633 0.13269 0.80102 0.0
C966 C 0.95131 0.05966 0.83063 0.0
C967 C 1.00436 0.06642 0.78589 0.0
C968 C 0.94839 0.92707 0.80561 0.0
C969 C 0.89858 0.9282 0.80228 0.0
C970 C 0.97503 0.97072 0.80742 0.0
C971 C 0.9513 0.01653 0.80586 0.0
C972 C 0.90126 0.01783 0.80234 0.0
C973 C 0.87559 0.97377 0.8006 0.0
C974 C 0.02837 0.96785 0.81117 0.0
C975 C 0.87453 0.06583 0.80058 0.0
H976 H 1.00057 0.1452 0.83135 0.0
H977 H 0.04535 0.15118 0.79365 0.0
H978 H 0.91165 0.05588 0.82844 0.0
H979 H 0.96615 0.0222 0.83198 0.0
H980 H 0.95511 0.08032 0.83937 0.0
H981 H 0.02613 0.08933 0.7795 0.0
H982 H 0.02052 0.02911 0.78613 0.0
H983 H 0.9665 0.06284 0.78221 0.0
H984 H 0.96647 0.89208 0.80692 0.0
H985 H 0.83717 0.97518 0.79799 0.0
H986 H 0.03347 0.98511 0.8203 0.0
H987 H 0.05136 0.98853 0.80459 0.0
H988 H 0.0419 0.92949 0.8116 0.0
H989 H 0.87428 0.08669 0.80932 0.0
H990 H 0.83597 0.06055 0.79749 0.0
H991 H 0.8939 0.08861 0.79372 0.0
C992 C 0.50963 0.03846 0.17115 0.0
C993 C 0.51216 0.00569 0.16126 0.0
C994 C 0.46858 0.06906 0.17272 0.0
C995 C 0.42987 0.06784 0.16399 0.0
C996 C 0.43311 0.03598 0.15377 0.0
C997 C 0.47384 0.00478 0.15263 0.0
C998 C 0.46603 0.10177 0.18388 0.0
C999 C 0.39341 0.03464 0.14407 0.0
C1000 C 0.30276 0.11194 0.1734 0.0
C1001 C 0.30336 0.16061 0.16936 0.0
C1002 C 0.3438 0.08137 0.17177 0.0
C1003 C 0.38578 0.09954 0.16563 0.0
C1004 C 0.38581 0.14819 0.16115 0.0
C1005 C 0.3449 0.17835 0.16324 0.0
C1006 C 0.34272 0.03006 0.1769 0.0
C1007 C 0.42914 0.16849 0.15422 0.0
H1008 H 0.53897 0.03892 0.1779 0.0
H1009 H 0.47584 0.9797 0.14493 0.0
H1010 H 0.46259 0.14062 0.18105 0.0
H1011 H 0.4329 0.09267 0.18931 0.0
H1012 H 0.49891 0.09805 0.18986 0.0
H1013 H 0.40277 0.00977 0.13635 0.0
H1014 H 0.35834 0.0222 0.14815 0.0
H1015 H 0.38713 0.07198 0.14038 0.0
H1016 H 0.27086 0.09829 0.17823 0.0
H1017 H 0.3453 0.21589 0.16002 0.0
H1018 H 0.37316 0.02531 0.18359 0.0
H1019 H 0.34842 1.00294 0.16945 0.0
H1020 H 0.30748 0.02165 0.18154 0.0
H1021 H 0.46198 0.16942 0.16026 0.0
H1022 H 0.42221 0.2061 0.15075 0.0
H1023 H 0.43798 0.14433 0.14634 0.0
C1024 C 0.0105 0.91203 0.40579 0.0
C1025 C 0.96191 0.91172 0.40996 0.0
C1026 C 0.04052 0.9535 0.4075 0.0
C1027 C 0.0219 0.99488 0.41386 0.0
C1028 C 0.97308 0.9943 0.41824 0.0
C1029 C 0.94352 0.95307 0.41608 0.0
C1030 C 0.09203 0.95318 0.40244 0.0
C1031 C 0.95225 0.0369 0.4254 0.0
C1032 C 0.115 0.07983 0.42888 0.0
C1033 C 0.11475 0.12007 0.42092 0.0
C1034 C 0.08436 0.03931 0.4268 0.0
C1035 C 0.0538 0.03827 0.41627 0.0
C1036 C 0.0533 0.0789 0.4082 0.0
C1037 C 0.08328 0.11972 0.41073 0.0
C1038 C 0.08481 0.99755 0.43586 0.0
C1039 C 0.02205 0.07872 0.39674 0.0
H1040 H 0.02468 0.88026 0.40098 0.0
H1041 H 0.90608 0.95282 0.41943 0.0
H1042 H 0.09744 0.98525 0.39635 0.0
H1043 H 0.11903 0.95639 0.41003 0.0
H1044 H 0.10011 0.91925 0.39717 0.0
H1045 H 0.91377 0.03037 0.42832 0.0
H1046 H 0.97506 0.04377 0.43367 0.0
H1047 H 0.95325 0.07067 0.41977 0.0
H1048 H 0.13924 0.08012 0.43679 0.0
H1049 H 0.08354 0.15052 0.40447 0.0
H1050 H 0.09758 0.96352 0.43131 0.0
H1051 H 0.04705 0.99059 0.43923 0.0
H1052 H 0.10906 0.00503 0.44386 0.0
H1053 H 0.032 0.04689 0.39091 0.0
H1054 H 0.02647 0.11276 0.3913 0.0
H1055 H 0.98275 0.07464 0.39917 0.0
C1056 C 0.11658 0.48893 0.67694 0.0
C1057 C 0.11936 0.44528 0.67021 0.0
C1058 C 0.076 0.52044 0.67564 0.0
C1059 C 0.03821 0.50857 0.66716 0.0
C1060 C 0.04233 0.46579 0.65988 0.0
C1061 C 0.08245 0.43429 0.66164 0.0
C1062 C 0.07246 0.56521 0.68374 0.0
C1063 C 1.00376 0.4526 0.65045 0.0
C1064 C 0.90931 0.55871 0.67218 0.0
C1065 C 0.90932 0.60013 0.66463 0.0
C1066 C 0.95121 0.52885 0.67318 0.0
C1067 C 0.99353 0.53991 0.66617 0.0
C1068 C 0.99303 0.58078 0.65822 0.0
C1069 C 0.95122 0.6108 0.65768 0.0
C1070 C 0.95061 0.48614 0.68195 0.0
C1071 C 0.03672 0.5929 0.6503 0.0
H1072 H 0.1448 0.49712 0.68368 0.0
H1073 H 0.08469 0.40056 0.65639 0.0
H1074 H 0.06773 0.59858 0.67808 0.0
H1075 H 0.03966 0.56221 0.6897 0.0
H1076 H 0.10546 0.56995 0.68965 0.0
H1077 H 0.0146 0.42047 0.64481 0.0
H1078 H 0.96864 0.44401 0.65509 0.0
H1079 H 0.99684 0.48413 0.64427 0.0
H1080 H 0.87716 0.55069 0.67765 0.0
H1081 H 0.95122 0.64269 0.65178 0.0
H1082 H 0.98074 0.49016 0.68875 0.0
H1083 H 0.95709 0.45144 0.6769 0.0
H1084 H 0.91523 0.48312 0.68693 0.0
H1085 H 0.06898 0.60151 0.65615 0.0
H1086 H 0.02957 0.6246 0.64418 0.0
H1087 H 0.04664 0.56075 0.64457 0.0
C1088 C 0.4038 0.36966 0.94193 0.0
C1089 C 0.40719 0.32986 0.93383 0.0
C1090 C 0.4344 0.41067 0.94069 0.0
C1091 C 0.46805 0.41265 0.93085 0.0
C1092 C 0.47099 0.37287 0.9225 0.0
C1093 C 0.44108 0.33148 0.92422 0.0
C1094 C 0.43135 0.45141 0.95005 0.0
C1095 C 0.50552 0.37418 0.91171 0.0
C1096 C 0.5185 0.53828 0.92237 0.0
C1097 C 0.56593 0.53589 0.92733 0.0
C1098 C 0.48636 0.49808 0.92326 0.0
C1099 C 0.50161 0.45543 0.92963 0.0
C1100 C 0.54901 0.45367 0.93497 0.0
C1101 C 0.58086 0.49357 0.93356 0.0
C1102 C 0.43659 0.50077 0.91716 0.0
C1103 C 0.5661 0.40971 0.94222 0.0
H1104 H 0.37778 0.36826 0.94942 0.0
H1105 H 0.44331 0.30091 0.91788 0.0
H1106 H 0.46764 0.45652 0.95454 0.0
H1107 H 0.42183 0.48643 0.94549 0.0
H1108 H 0.40358 0.44393 0.95724 0.0
H1109 H 0.50112 0.34175 0.90563 0.0
H1110 H 0.49899 0.40782 0.90625 0.0
H1111 H 0.54408 0.37549 0.915 0.0
H1112 H 0.50721 0.57087 0.91744 0.0
H1113 H 0.61751 0.49191 0.93747 0.0
H1114 H 0.40721 0.49627 0.92407 0.0
H1115 H 0.43264 0.47035 0.91046 0.0
H1116 H 0.43076 0.53606 0.91231 0.0
H1117 H 0.53981 0.40188 0.94971 0.0
H1118 H 0.60317 0.41518 0.94628 0.0
H1119 H 0.56719 0.37688 0.93621 0.0
C1120 C 0.66091 0.63041 0.0718 0.0
C1121 C 0.69977 0.61909 0.06388 0.0
C1122 C 0.62053 0.5989 0.07301 0.0
C1123 C 0.61838 0.5555 0.0659 0.0
C1124 C 0.65849 0.54284 0.05827 0.0
C1125 C 0.69903 0.57459 0.05746 0.0
C1126 C 0.57924 0.61311 0.08151 0.0
C1127 C 0.65738 0.49716 0.05044 0.0
C1128 C 0.52602 0.45626 0.07396 0.0
C1129 C 0.48695 0.46691 0.06596 0.0
C1130 C 0.56876 0.48504 0.07415 0.0
C1131 C 0.57304 0.52488 0.06596 0.0
C1132 C 0.53371 0.53589 0.05786 0.0
C1133 C 0.49091 0.50709 0.05805 0.0
C1134 C 0.60928 0.47285 0.08313 0.0
C1135 C 0.53712 0.57771 0.04887 0.0
H1136 H 0.66147 0.66473 0.07683 0.0
H1137 H 0.72875 0.56598 0.05122 0.0
H1138 H 0.54598 0.62213 0.07606 0.0
H1139 H 0.5697 0.58201 0.08758 0.0
H1140 H 0.58877 0.64531 0.08729 0.0
H1141 H 0.69261 0.491 0.04558 0.0
H1142 H 0.64932 0.46459 0.05615 0.0
H1143 H 0.62751 0.50024 0.04354 0.0
H1144 H 0.52309 0.42544 0.08017 0.0
H1145 H 0.46105 0.51528 0.05179 0.0
H1146 H 0.61727 0.50511 0.08902 0.0
H1147 H 0.6435 0.46391 0.07811 0.0
H1148 H 0.59974 0.44138 0.0891 0.0
H1149 H 0.5422 0.61278 0.05387 0.0
H1150 H 0.50386 0.58074 0.04299 0.0
H1151 H 0.56962 0.57264 0.04289 0.0
C1152 C 0.45241 0.99531 0.28198 0.0
C1153 C 0.46841 0.03589 0.28881 0.0
C1154 C 0.48293 0.95455 0.2802 0.0
C1155 C 0.53004 0.95368 0.28572 0.0
C1156 C 0.54658 0.99479 0.29254 0.0
C1157 C 0.51577 0.03582 0.29385 0.0
C1158 C 0.46455 0.91222 0.2725 0.0
C1159 C 0.59618 0.99481 0.29878 0.0
C1160 C 0.58661 0.82788 0.29102 0.0
C1161 C 0.62163 0.82584 0.28166 0.0
C1162 C 0.5571 0.8697 0.29259 0.0
C1163 C 0.5618 0.9096 0.28437 0.0
C1164 C 0.59631 0.90706 0.27473 0.0
C1165 C 0.62628 0.86553 0.27361 0.0
C1166 C 0.5214 0.8715 0.30313 0.0
C1167 C 0.60136 0.94805 0.26554 0.0
H1168 H 0.41582 0.99547 0.27801 0.0
H1169 H 0.52793 0.06696 0.29925 0.0
H1170 H 0.4912 0.90386 0.26512 0.0
H1171 H 0.46128 0.87892 0.27824 0.0
H1172 H 0.42821 0.9199 0.26826 0.0
H1173 H 0.60352 0.02955 0.30378 0.0
H1174 H 0.59833 0.96397 0.30537 0.0
H1175 H 0.62563 0.98915 0.29192 0.0
H1176 H 0.58328 0.79738 0.2973 0.0
H1177 H 0.65308 0.86382 0.2663 0.0
H1178 H 0.48334 0.87521 0.2996 0.0
H1179 H 0.52901 0.90411 0.30893 0.0
H1180 H 0.52346 0.83823 0.30895 0.0
H1181 H 0.56547 0.95503 0.26102 0.0
H1182 H 0.62898 0.9397 0.25837 0.0
H1183 H 0.61232 0.98238 0.27028 0.0
C1184 C 0.89802 0.95652 0.53881 0.0
C1185 C 0.89589 0.91018 0.54427 0.0
C1186 C 0.93922 0.98693 0.54051 0.0
C1187 C 0.97835 0.97119 0.54817 0.0
C1188 C 0.97565 0.92492 0.55395 0.0
C1189 C 0.93484 0.89468 0.55177 0.0
C1190 C 0.94126 0.03553 0.53395 0.0
C1191 C 0.01571 0.90745 0.5625 0.0
C1192 C 0.10465 0.02975 0.54486 0.0
C1193 C 0.10275 0.06668 0.55378 0.0
C1194 C 0.06431 0.99848 0.54288 0.0
C1195 C 0.02183 1.00338 0.55026 0.0
C1196 C 0.02072 0.03937 0.55962 0.0
C1197 C 0.06084 0.0711 0.56113 0.0
C1198 C 0.06647 0.96134 0.53262 0.0
C1199 C 0.97693 0.04474 0.56797 0.0
H1200 H 0.86815 0.96836 0.53293 0.0
H1201 H 0.9331 0.85897 0.55608 0.0
H1202 H 0.94347 0.06585 0.54072 0.0
H1203 H 0.97482 0.03737 0.52823 0.0
H1204 H 0.90868 0.04162 0.52799 0.0
H1205 H 0.00721 0.87123 0.5666 0.0
H1206 H 0.05096 0.90456 0.55749 0.0
H1207 H 0.02117 0.93443 0.57001 0.0
H1208 H 0.1368 0.02674 0.53908 0.0
H1209 H 0.05944 0.09958 0.56806 0.0
H1210 H 0.03646 0.96849 0.52595 0.0
H1211 H 0.06079 0.92391 0.53628 0.0
H1212 H 0.10209 0.96225 0.52769 0.0
H1213 H 0.94421 0.05584 0.56257 0.0
H1214 H 0.9832 0.0724 0.5753 0.0
H1215 H 0.96829 0.00906 0.57232 0.0
C1216 C 0.94114 0.63199 0.80054 0.0
C1217 C 0.89211 0.63255 0.80437 0.0
C1218 C 0.97066 0.59029 0.80233 0.0
C1219 C 0.95105 0.54887 0.80842 0.0
C1220 C 0.90187 0.5498 0.81255 0.0
C1221 C 0.87282 0.59132 0.81031 0.0
C1222 C 0.02263 0.5903 0.79756 0.0
C1223 C 0.88004 0.50714 0.81944 0.0
C1224 C 0.01315 0.42497 0.80411 0.0
C1225 C 0.04521 0.42383 0.81418 0.0
C1226 C 0.98209 0.4654 0.80213 0.0
C1227 C 0.98218 0.5048 0.81062 0.0
C1228 C 0.01278 0.50253 0.82113 0.0
C1229 C 0.04449 0.46246 0.82267 0.0
C1230 C 0.95075 0.46689 0.79069 0.0
C1231 C 0.01281 0.54291 0.83062 0.0
H1232 H 0.95602 0.66368 0.79588 0.0
H1233 H 0.83502 0.59181 0.8134 0.0
H1234 H 0.04891 0.5858 0.80527 0.0
H1235 H 0.02804 0.55882 0.79125 0.0
H1236 H 0.03173 0.62463 0.79261 0.0
H1237 H 0.84161 0.51423 0.82233 0.0
H1238 H 0.88055 0.47378 0.81362 0.0
H1239 H 0.90249 0.4992 0.82771 0.0
H1240 H 0.01418 0.39545 0.79745 0.0
H1241 H 0.06923 0.46155 0.83048 0.0
H1242 H 0.96157 0.4987 0.78499 0.0
H1243 H 0.91157 0.47192 0.79314 0.0
H1244 H 0.95429 0.43301 0.7851 0.0
H1245 H 0.02693 0.57725 0.82651 0.0
H1246 H 0.03587 0.53375 0.83871 0.0
H1247 H 0.97479 0.55027 0.83376 0.0
loop_
_geom_bond_atom_site_label_1
_geom_bond_atom_site_label_2
_geom_bond_distance
_geom_bond_site_symmetry_2
_ccdc_geom_bond_type
Zn0 O3 2.031 . S
Zn0 O5 2.049 . S
Zn0 O10 2.067 . S
Zn1 O2 1.962 . S
Zn1 O4 1.986 . S
Zn1 O6 1.996 . S
Zn1 O9 1.943 . S
O2 Zn1 1.962 . S
O2 C7 1.254 . S
O3 Zn0 2.031 . S
O3 C7 1.269 . S
O4 Zn1 1.986 . S
O4 C11 1.262 . S
O5 Zn0 2.049 . S
O5 C13 1.260 . S
O6 Zn1 1.996 . S
O6 C13 1.257 . S
C7 O2 1.254 . S
C7 O3 1.269 . S
C8 O9 1.249 . S
C8 O10 1.270 . S
O9 Zn1 1.943 . S
O9 C8 1.249 . S
O10 Zn0 2.067 . S
O10 C8 1.270 . S
C11 O4 1.262 . S
C11 O12 1.232 . S
O12 C11 1.232 . S
C13 O5 1.260 . S
C13 O6 1.257 . S
Zn14 O17 2.031 . S
Zn14 O19 2.049 . S
Zn14 O24 2.067 . S
Zn15 O16 1.962 . S
Zn15 O18 1.986 . S
Zn15 O20 1.996 . S
Zn15 O23 1.943 . S
O16 Zn15 1.962 . S
O16 C21 1.254 . S
O17 Zn14 2.031 . S
O17 C21 1.269 . S
O18 Zn15 1.986 . S
O18 C25 1.262 . S
O19 Zn14 2.049 . S
O19 C27 1.260 . S
O20 Zn15 1.996 . S
O20 C27 1.257 . S
C21 O16 1.254 . S
C21 O17 1.269 . S
C22 O23 1.249 . S
C22 O24 1.270 . S
O23 Zn15 1.943 . S
O23 C22 1.249 . S
O24 Zn14 2.067 . S
O24 C22 1.270 . S
C25 O18 1.262 . S
C25 O26 1.232 . S
O26 C25 1.232 . S
C27 O19 1.260 . S
C27 O20 1.257 . S
Zn28 O31 2.031 . S
Zn28 O33 2.049 . S
Zn28 O38 2.067 . S
Zn29 O30 1.962 . S
Zn29 O32 1.986 . S
Zn29 O34 1.996 . S
Zn29 O37 1.943 . S
O30 Zn29 1.962 . S
O30 C35 1.254 . S
O31 Zn28 2.031 . S
O31 C35 1.269 . S
O32 Zn29 1.986 . S
O32 C39 1.262 . S
O33 Zn28 2.049 . S
O33 C41 1.260 . S
O34 Zn29 1.996 . S
O34 C41 1.257 . S
C35 O30 1.254 . S
C35 O31 1.269 . S
C36 O37 1.249 . S
C36 O38 1.270 . S
O37 Zn29 1.943 . S
O37 C36 1.249 . S
O38 Zn28 2.067 . S
O38 C36 1.270 . S
C39 O32 1.262 . S
C39 O40 1.232 . S
O40 C39 1.232 . S
C41 O33 1.260 . S
C41 O34 1.257 . S
Zn42 O45 2.031 . S
Zn42 O47 2.049 . S
Zn42 O52 2.067 . S
Zn43 O44 1.962 . S
Zn43 O46 1.986 . S
Zn43 O48 1.996 . S
Zn43 O51 1.943 . S
O44 Zn43 1.962 . S
O44 C49 1.254 . S
O45 Zn42 2.031 . S
O45 C49 1.269 . S
O46 Zn43 1.986 . S
O46 C53 1.262 . S
O47 Zn42 2.049 . S
O47 C55 1.260 . S
O48 Zn43 1.996 . S
O48 C55 1.257 . S
C49 O44 1.254 . S
C49 O45 1.269 . S
C50 O51 1.249 . S
C50 O52 1.270 . S
O51 Zn43 1.943 . S
O51 C50 1.249 . S
O52 Zn42 2.067 . S
O52 C50 1.270 . S
C53 O46 1.262 . S
C53 O54 1.232 . S
O54 C53 1.232 . S
C55 O47 1.260 . S
C55 O48 1.257 . S
Zn56 O59 2.031 . S
Zn56 O61 2.049 . S
Zn56 O66 2.067 . S
Zn57 O58 1.962 . S
Zn57 O60 1.986 . S
Zn57 O62 1.996 . S
Zn57 O65 1.943 . S
O58 Zn57 1.962 . S
O58 C63 1.254 . S
O59 Zn56 2.031 . S
O59 C63 1.269 . S
O60 Zn57 1.986 . S
O60 C67 1.262 . S
O61 Zn56 2.049 . S
O61 C69 1.260 . S
O62 Zn57 1.996 . S
O62 C69 1.257 . S
C63 O58 1.254 . S
C63 O59 1.269 . S
C64 O65 1.249 . S
C64 O66 1.270 . S
O65 Zn57 1.943 . S
O65 C64 1.249 . S
O66 Zn56 2.067 . S
O66 C64 1.270 . S
C67 O60 1.262 . S
C67 O68 1.232 . S
O68 C67 1.232 . S
C69 O61 1.260 . S
C69 O62 1.257 . S
Zn70 O73 2.031 . S
Zn70 O75 2.049 . S
Zn70 O80 2.067 . S
Zn71 O72 1.962 . S
Zn71 O74 1.986 . S
Zn71 O76 1.996 . S
Zn71 O79 1.943 . S
O72 Zn71 1.962 . S
O72 C77 1.254 . S
O73 Zn70 2.031 . S
O73 C77 1.269 . S
O74 Zn71 1.986 . S
O74 C81 1.262 . S
O75 Zn70 2.049 . S
O75 C83 1.260 . S
O76 Zn71 1.996 . S
O76 C83 1.257 . S
C77 O72 1.254 . S
C77 O73 1.269 . S
C78 O79 1.249 . S
C78 O80 1.270 . S
O79 Zn71 1.943 . S
O79 C78 1.249 . S
O80 Zn70 2.067 . S
O80 C78 1.270 . S
C81 O74 1.262 . S
C81 O82 1.232 . S
O82 C81 1.232 . S
C83 O75 1.260 . S
C83 O76 1.257 . S
Zn84 O87 2.031 . S
Zn84 O89 2.049 . S
Zn84 O94 2.067 . S
Zn85 O86 1.962 . S
Zn85 O88 1.986 . S
Zn85 O90 1.996 . S
Zn85 O93 1.943 . S
O86 Zn85 1.962 . S
O86 C91 1.254 . S
O87 Zn84 2.031 . S
O87 C91 1.269 . S
O88 Zn85 1.986 . S
O88 C95 1.262 . S
O89 Zn84 2.049 . S
O89 C97 1.260 . S
O90 Zn85 1.996 . S
O90 C97 1.257 . S
C91 O86 1.254 . S
C91 O87 1.269 . S
C92 O93 1.249 . S
C92 O94 1.270 . S
O93 Zn85 1.943 . S
O93 C92 1.249 . S
O94 Zn84 2.067 . S
O94 C92 1.270 . S
C95 O88 1.262 . S
C95 O96 1.232 . S
O96 C95 1.232 . S
C97 O89 1.260 . S
C97 O90 1.257 . S
Zn98 O101 2.031 . S
Zn98 O103 2.049 . S
Zn98 O108 2.067 . S
Zn99 O100 1.962 . S
Zn99 O102 1.986 . S
Zn99 O104 1.996 . S
Zn99 O107 1.943 . S
O100 Zn99 1.962 . S
O100 C105 1.254 . S
O101 Zn98 2.031 . S
O101 C105 1.269 . S
O102 Zn99 1.986 . S
O102 C109 1.262 . S
O103 Zn98 2.049 . S
O103 C111 1.260 . S
O104 Zn99 1.996 . S
O104 C111 1.257 . S
C105 O100 1.254 . S
C105 O101 1.269 . S
C106 O107 1.249 . S
C106 O108 1.270 . S
O107 Zn99 1.943 . S
O107 C106 1.249 . S
O108 Zn98 2.067 . S
O108 C106 1.270 . S
C109 O102 1.262 . S
C109 O110 1.232 . S
O110 C109 1.232 . S
C111 O103 1.260 . S
C111 O104 1.257 . S
Zn112 O115 2.031 . S
Zn112 O117 2.049 . S
Zn112 O122 2.067 . S
Zn113 O114 1.962 . S
Zn113 O116 1.986 . S
Zn113 O118 1.996 . S
Zn113 O121 1.943 . S
O114 Zn113 1.962 . S
O114 C119 1.254 . S
O115 Zn112 2.031 . S
O115 C119 1.269 . S
O116 Zn113 1.986 . S
O116 C123 1.262 . S
O117 Zn112 2.049 . S
O117 C125 1.260 . S
O118 Zn113 1.996 . S
O118 C125 1.257 . S
C119 O114 1.254 . S
C119 O115 1.269 . S
C120 O121 1.249 . S
C120 O122 1.270 . S
O121 Zn113 1.943 . S
O121 C120 1.249 . S
O122 Zn112 2.067 . S
O122 C120 1.270 . S
C123 O116 1.262 . S
C123 O124 1.232 . S
O124 C123 1.232 . S
C125 O117 1.260 . S
C125 O118 1.257 . S
Zn126 O129 2.031 . S
Zn126 O131 2.049 . S
Zn126 O136 2.067 . S
Zn127 O128 1.962 . S
Zn127 O130 1.986 . S
Zn127 O132 1.996 . S
Zn127 O135 1.943 . S
O128 Zn127 1.962 . S
O128 C133 1.254 . S
O129 Zn126 2.031 . S
O129 C133 1.269 . S
O130 Zn127 1.986 . S
O130 C137 1.262 . S
O131 Zn126 2.049 . S
O131 C139 1.260 . S
O132 Zn127 1.996 . S
O132 C139 1.257 . S
C133 O128 1.254 . S
C133 O129 1.269 . S
C134 O135 1.249 . S
C134 O136 1.270 . S
O135 Zn127 1.943 . S
O135 C134 1.249 . S
O136 Zn126 2.067 . S
O136 C134 1.270 . S
C137 O130 1.262 . S
C137 O138 1.232 . S
O138 C137 1.232 . S
C139 O131 1.260 . S
C139 O132 1.257 . S
Zn140 O143 2.031 . S
Zn140 O145 2.049 . S
Zn140 O150 2.067 . S
Zn141 O142 1.962 . S
Zn141 O144 1.986 . S
Zn141 O146 1.996 . S
Zn141 O149 1.943 . S
O142 Zn141 1.962 . S
O142 C147 1.254 . S
O143 Zn140 2.031 . S
O143 C147 1.269 . S
O144 Zn141 1.986 . S
O144 C151 1.262 . S
O145 Zn140 2.049 . S
O145 C153 1.260 . S
O146 Zn141 1.996 . S
O146 C153 1.257 . S
C147 O142 1.254 . S
C147 O143 1.269 . S
C148 O149 1.249 . S
C148 O150 1.270 . S
O149 Zn141 1.943 . S
O149 C148 1.249 . S
O150 Zn140 2.067 . S
O150 C148 1.270 . S
C151 O144 1.262 . S
C151 O152 1.232 . S
O152 C151 1.232 . S
C153 O145 1.260 . S
C153 O146 1.257 . S
Zn154 O157 2.031 . S
Zn154 O159 2.049 . S
Zn154 O164 2.067 . S
Zn155 O156 1.962 . S
Zn155 O158 1.986 . S
Zn155 O160 1.996 . S
Zn155 O163 1.943 . S
O156 Zn155 1.962 . S
O156 C161 1.254 . S
O157 Zn154 2.031 . S
O157 C161 1.269 . S
O158 Zn155 1.986 . S
O158 C165 1.262 . S
O159 Zn154 2.049 . S
O159 C167 1.260 . S
O160 Zn155 1.996 . S
O160 C167 1.257 . S
C161 O156 1.254 . S
C161 O157 1.269 . S
C162 O163 1.249 . S
C162 O164 1.270 . S
O163 Zn155 1.943 . S
O163 C162 1.249 . S
O164 Zn154 2.067 . S
O164 C162 1.270 . S
C165 O158 1.262 . S
C165 O166 1.232 . S
O166 C165 1.232 . S
C167 O159 1.260 . S
C167 O160 1.257 . S
Zn168 O171 2.031 . S
Zn168 O173 2.049 . S
Zn168 O178 2.067 . S
Zn169 O170 1.962 . S
Zn169 O172 1.986 . S
Zn169 O174 1.996 . S
Zn169 O177 1.943 . S
O170 Zn169 1.962 . S
O170 C175 1.254 . S
O171 Zn168 2.031 . S
O171 C175 1.269 . S
O172 Zn169 1.986 . S
O172 C179 1.262 . S
O173 Zn168 2.049 . S
O173 C181 1.260 . S
O174 Zn169 1.996 . S
O174 C181 1.257 . S
C175 O170 1.254 . S
C175 O171 1.269 . S
C176 O177 1.249 . S
C176 O178 1.270 . S
O177 Zn169 1.943 . S
O177 C176 1.249 . S
O178 Zn168 2.067 . S
O178 C176 1.270 . S
C179 O172 1.262 . S
C179 O180 1.232 . S
O180 C179 1.232 . S
C181 O173 1.260 . S
C181 O174 1.257 . S
Zn182 O185 2.031 . S
Zn182 O187 2.049 . S
Zn182 O192 2.067 . S
Zn183 O184 1.962 . S
Zn183 O186 1.986 . S
Zn183 O188 1.996 . S
Zn183 O191 1.943 . S
O184 Zn183 1.962 . S
O184 C189 1.254 . S
O185 Zn182 2.031 . S
O185 C189 1.269 . S
O186 Zn183 1.986 . S
O186 C193 1.262 . S
O187 Zn182 2.049 . S
O187 C195 1.260 . S
O188 Zn183 1.996 . S
O188 C195 1.257 . S
C189 O184 1.254 . S
C189 O185 1.269 . S
C190 O191 1.249 . S
C190 O192 1.270 . S
O191 Zn183 1.943 . S
O191 C190 1.249 . S
O192 Zn182 2.067 . S
O192 C190 1.270 . S
C193 O186 1.262 . S
C193 O194 1.232 . S
O194 C193 1.232 . S
C195 O187 1.260 . S
C195 O188 1.257 . S
Zn196 O199 2.031 . S
Zn196 O201 2.049 . S
Zn196 O206 2.067 . S
Zn197 O198 1.962 . S
Zn197 O200 1.986 . S
Zn197 O202 1.996 . S
Zn197 O205 1.943 . S
O198 Zn197 1.962 . S
O198 C203 1.254 . S
O199 Zn196 2.031 . S
O199 C203 1.269 . S
O200 Zn197 1.986 . S
O200 C207 1.262 . S
O201 Zn196 2.049 . S
O201 C209 1.260 . S
O202 Zn197 1.996 . S
O202 C209 1.257 . S
C203 O198 1.254 . S
C203 O199 1.269 . S
C204 O205 1.249 . S
C204 O206 1.270 . S
O205 Zn197 1.943 . S
O205 C204 1.249 . S
O206 Zn196 2.067 . S
O206 C204 1.270 . S
C207 O200 1.262 . S
C207 O208 1.232 . S
O208 C207 1.232 . S
C209 O201 1.260 . S
C209 O202 1.257 . S
Zn210 O213 2.031 . S
Zn210 O215 2.049 . S
Zn210 O220 2.067 . S
Zn211 O212 1.962 . S
Zn211 O214 1.986 . S
Zn211 O216 1.996 . S
Zn211 O219 1.943 . S
O212 Zn211 1.962 . S
O212 C217 1.254 . S
O213 Zn210 2.031 . S
O213 C217 1.269 . S
O214 Zn211 1.986 . S
O214 C221 1.262 . S
O215 Zn210 2.049 . S
O215 C223 1.260 . S
O216 Zn211 1.996 . S
O216 C223 1.257 . S
C217 O212 1.254 . S
C217 O213 1.269 . S
C218 O219 1.249 . S
C218 O220 1.270 . S
O219 Zn211 1.943 . S
O219 C218 1.249 . S
O220 Zn210 2.067 . S
O220 C218 1.270 . S
C221 O214 1.262 . S
C221 O222 1.232 . S
O222 C221 1.232 . S
C223 O215 1.260 . S
C223 O216 1.257 . S
C224 C225 1.391 . S
C224 C226 1.394 . S
C224 H240 0.931 . S
C225 C224 1.391 . S
C225 C229 1.376 . S
C226 C224 1.394 . S
C226 C227 1.369 . S
C226 C230 1.531 . S
C227 C226 1.369 . S
C227 C228 1.410 . S
C227 C235 1.503 . S
C228 C227 1.410 . S
C228 C229 1.392 . S
C228 C231 1.511 . S
C229 C225 1.376 . S
C229 C228 1.392 . S
C229 H241 0.929 . S
C230 C226 1.531 . S
C230 H242 0.960 . S
C230 H243 0.962 . S
C230 H244 0.960 . S
C231 C228 1.511 . S
C231 H245 0.961 . S
C231 H246 0.961 . S
C231 H247 0.961 . S
C232 C233 1.370 . S
C232 C234 1.363 . S
C232 H248 0.931 . S
C233 C232 1.370 . S
C233 C237 1.408 . S
C234 C232 1.363 . S
C234 C235 1.370 . S
C234 C238 1.524 . S
C235 C227 1.503 . S
C235 C234 1.370 . S
C235 C236 1.403 . S
C236 C235 1.403 . S
C236 C237 1.404 . S
C236 C239 1.539 . S
C237 C233 1.408 . S
C237 C236 1.404 . S
C237 H249 0.930 . S
C238 C234 1.524 . S
C238 H250 0.956 . S
C238 H251 0.961 . S
C238 H252 0.961 . S
C239 C236 1.539 . S
C239 H253 0.958 . S
C239 H254 0.961 . S
C239 H255 0.960 . S
H240 C224 0.931 . S
H241 C229 0.929 . S
H242 C230 0.960 . S
H243 C230 0.962 . S
H244 C230 0.960 . S
H245 C231 0.961 . S
H246 C231 0.961 . S
H247 C231 0.961 . S
H248 C232 0.931 . S
H249 C237 0.930 . S
H250 C238 0.956 . S
H251 C238 0.961 . S
H252 C238 0.961 . S
H253 C239 0.958 . S
H254 C239 0.961 . S
H255 C239 0.960 . S
C256 C257 1.391 . S
C256 C258 1.394 . S
C256 H272 0.931 . S
C257 C256 1.391 . S
C257 C261 1.376 . S
C258 C256 1.394 . S
C258 C259 1.369 . S
C258 C262 1.531 . S
C259 C258 1.369 . S
C259 C260 1.410 . S
C259 C267 1.503 . S
C260 C259 1.410 . S
C260 C261 1.392 . S
C260 C263 1.511 . S
C261 C257 1.376 . S
C261 C260 1.392 . S
C261 H273 0.929 . S
C262 C258 1.531 . S
C262 H274 0.960 . S
C262 H275 0.962 . S
C262 H276 0.960 . S
C263 C260 1.511 . S
C263 H277 0.961 . S
C263 H278 0.961 . S
C263 H279 0.961 . S
C264 C265 1.370 . S
C264 C266 1.363 . S
C264 H280 0.931 . S
C265 C264 1.370 . S
C265 C269 1.408 . S
C266 C264 1.363 . S
C266 C267 1.370 . S
C266 C270 1.524 . S
C267 C259 1.503 . S
C267 C266 1.370 . S
C267 C268 1.403 . S
C268 C267 1.403 . S
C268 C269 1.404 . S
C268 C271 1.539 . S
C269 C265 1.408 . S
C269 C268 1.404 . S
C269 H281 0.930 . S
C270 C266 1.524 . S
C270 H282 0.956 . S
C270 H283 0.961 . S
C270 H284 0.961 . S
C271 C268 1.539 . S
C271 H285 0.958 . S
C271 H286 0.961 . S
C271 H287 0.960 . S
H272 C256 0.931 . S
H273 C261 0.929 . S
H274 C262 0.960 . S
H275 C262 0.962 . S
H276 C262 0.960 . S
H277 C263 0.961 . S
H278 C263 0.961 . S
H279 C263 0.961 . S
H280 C264 0.931 . S
H281 C269 0.930 . S
H282 C270 0.956 . S
H283 C270 0.961 . S
H284 C270 0.961 . S
H285 C271 0.958 . S
H286 C271 0.961 . S
H287 C271 0.960 . S
C288 C289 1.391 . S
C288 C290 1.394 . S
C288 H304 0.931 . S
C289 C288 1.391 . S
C289 C293 1.376 . S
C290 C288 1.394 . S
C290 C291 1.369 . S
C290 C294 1.531 . S
C291 C290 1.369 . S
C291 C292 1.410 . S
C291 C299 1.503 . S
C292 C291 1.410 . S
C292 C293 1.392 . S
C292 C295 1.511 . S
C293 C289 1.376 . S
C293 C292 1.392 . S
C293 H305 0.929 . S
C294 C290 1.531 . S
C294 H306 0.960 . S
C294 H307 0.962 . S
C294 H308 0.960 . S
C295 C292 1.511 . S
C295 H309 0.961 . S
C295 H310 0.961 . S
C295 H311 0.961 . S
C296 C297 1.370 . S
C296 C298 1.363 . S
C296 H312 0.931 . S
C297 C296 1.370 . S
C297 C301 1.408 . S
C298 C296 1.363 . S
C298 C299 1.370 . S
C298 C302 1.524 . S
C299 C291 1.503 . S
C299 C298 1.370 . S
C299 C300 1.403 . S
C300 C299 1.403 . S
C300 C301 1.404 . S
C300 C303 1.539 . S
C301 C297 1.408 . S
C301 C300 1.404 . S
C301 H313 0.930 . S
C302 C298 1.524 . S
C302 H314 0.956 . S
C302 H315 0.961 . S
C302 H316 0.961 . S
C303 C300 1.539 . S
C303 H317 0.958 . S
C303 H318 0.961 . S
C303 H319 0.960 . S
H304 C288 0.931 . S
H305 C293 0.929 . S
H306 C294 0.960 . S
H307 C294 0.962 . S
H308 C294 0.960 . S
H309 C295 0.961 . S
H310 C295 0.961 . S
H311 C295 0.961 . S
H312 C296 0.931 . S
H313 C301 0.930 . S
H314 C302 0.956 . S
H315 C302 0.961 . S
H316 C302 0.961 . S
H317 C303 0.958 . S
H318 C303 0.961 . S
H319 C303 0.960 . S
C320 C321 1.391 . S
C320 C322 1.394 . S
C320 H336 0.931 . S
C321 C320 1.391 . S
C321 C325 1.376 . S
C322 C320 1.394 . S
C322 C323 1.369 . S
C322 C326 1.531 . S
C323 C322 1.369 . S
C323 C324 1.410 . S
C323 C331 1.503 . S
C324 C323 1.410 . S
C324 C325 1.392 . S
C324 C327 1.511 . S
C325 C321 1.376 . S
C325 C324 1.392 . S
C325 H337 0.929 . S
C326 C322 1.531 . S
C326 H338 0.960 . S
C326 H339 0.962 . S
C326 H340 0.960 . S
C327 C324 1.511 . S
C327 H341 0.961 . S
C327 H342 0.961 . S
C327 H343 0.961 . S
C328 C329 1.370 . S
C328 C330 1.363 . S
C328 H344 0.931 . S
C329 C328 1.370 . S
C329 C333 1.408 . S
C330 C328 1.363 . S
C330 C331 1.370 . S
C330 C334 1.524 . S
C331 C323 1.503 . S
C331 C330 1.370 . S
C331 C332 1.403 . S
C332 C331 1.403 . S
C332 C333 1.404 . S
C332 C335 1.539 . S
C333 C329 1.408 . S
C333 C332 1.404 . S
C333 H345 0.930 . S
C334 C330 1.524 . S
C334 H346 0.956 . S
C334 H347 0.961 . S
C334 H348 0.961 . S
C335 C332 1.539 . S
C335 H349 0.958 . S
C335 H350 0.961 . S
C335 H351 0.960 . S
H336 C320 0.931 . S
H337 C325 0.929 . S
H338 C326 0.960 . S
H339 C326 0.962 . S
H340 C326 0.960 . S
H341 C327 0.961 . S
H342 C327 0.961 . S
H343 C327 0.961 . S
H344 C328 0.931 . S
H345 C333 0.930 . S
H346 C334 0.956 . S
H347 C334 0.961 . S
H348 C334 0.961 . S
H349 C335 0.958 . S
H350 C335 0.961 . S
H351 C335 0.960 . S
C352 C353 1.391 . S
C352 C354 1.394 . S
C352 H368 0.931 . S
C353 C352 1.391 . S
C353 C357 1.376 . S
C354 C352 1.394 . S
C354 C355 1.369 . S
C354 C358 1.531 . S
C355 C354 1.369 . S
C355 C356 1.410 . S
C355 C363 1.503 . S
C356 C355 1.410 . S
C356 C357 1.392 . S
C356 C359 1.511 . S
C357 C353 1.376 . S
C357 C356 1.392 . S
C357 H369 0.929 . S
C358 C354 1.531 . S
C358 H370 0.960 . S
C358 H371 0.962 . S
C358 H372 0.960 . S
C359 C356 1.511 . S
C359 H373 0.961 . S
C359 H374 0.961 . S
C359 H375 0.961 . S
C360 C361 1.370 . S
C360 C362 1.363 . S
C360 H376 0.931 . S
C361 C360 1.370 . S
C361 C365 1.408 . S
C362 C360 1.363 . S
C362 C363 1.370 . S
C362 C366 1.524 . S
C363 C355 1.503 . S
C363 C362 1.370 . S
C363 C364 1.403 . S
C364 C363 1.403 . S
C364 C365 1.404 . S
C364 C367 1.539 . S
C365 C361 1.408 . S
C365 C364 1.404 . S
C365 H377 0.930 . S
C366 C362 1.524 . S
C366 H378 0.956 . S
C366 H379 0.961 . S
C366 H380 0.961 . S
C367 C364 1.539 . S
C367 H381 0.958 . S
C367 H382 0.961 . S
C367 H383 0.960 . S
H368 C352 0.931 . S
H369 C357 0.929 . S
H370 C358 0.960 . S
H371 C358 0.962 . S
H372 C358 0.960 . S
H373 C359 0.961 . S
H374 C359 0.961 . S
H375 C359 0.961 . S
H376 C360 0.931 . S
H377 C365 0.930 . S
H378 C366 0.956 . S
H379 C366 0.961 . S
H380 C366 0.961 . S
H381 C367 0.958 . S
H382 C367 0.961 . S
H383 C367 0.960 . S
C384 C385 1.391 . S
C384 C386 1.394 . S
C384 H400 0.931 . S
C385 C384 1.391 . S
C385 C389 1.376 . S
C386 C384 1.394 . S
C386 C387 1.369 . S
C386 C390 1.531 . S
C387 C386 1.369 . S
C387 C388 1.410 . S
C387 C395 1.503 . S
C388 C387 1.410 . S
C388 C389 1.392 . S
C388 C391 1.511 . S
C389 C385 1.376 . S
C389 C388 1.392 . S
C389 H401 0.929 . S
C390 C386 1.531 . S
C390 H402 0.960 . S
C390 H403 0.962 . S
C390 H404 0.960 . S
C391 C388 1.511 . S
C391 H405 0.961 . S
C391 H406 0.961 . S
C391 H407 0.961 . S
C392 C393 1.370 . S
C392 C394 1.363 . S
C392 H408 0.931 . S
C393 C392 1.370 . S
C393 C397 1.408 . S
C394 C392 1.363 . S
C394 C395 1.370 . S
C394 C398 1.524 . S
C395 C387 1.503 . S
C395 C394 1.370 . S
C395 C396 1.403 . S
C396 C395 1.403 . S
C396 C397 1.404 . S
C396 C399 1.539 . S
C397 C393 1.408 . S
C397 C396 1.404 . S
C397 H409 0.930 . S
C398 C394 1.524 . S
C398 H410 0.956 . S
C398 H411 0.961 . S
C398 H412 0.961 . S
C399 C396 1.539 . S
C399 H413 0.958 . S
C399 H414 0.961 . S
C399 H415 0.960 . S
H400 C384 0.931 . S
H401 C389 0.929 . S
H402 C390 0.960 . S
H403 C390 0.962 . S
H404 C390 0.960 . S
H405 C391 0.961 . S
H406 C391 0.961 . S
H407 C391 0.961 . S
H408 C392 0.931 . S
H409 C397 0.930 . S
H410 C398 0.956 . S
H411 C398 0.961 . S
H412 C398 0.961 . S
H413 C399 0.958 . S
H414 C399 0.961 . S
H415 C399 0.960 . S
C416 C417 1.391 . S
C416 C418 1.394 . S
C416 H432 0.931 . S
C417 C416 1.391 . S
C417 C421 1.376 . S
C418 C416 1.394 . S
C418 C419 1.369 . S
C418 C422 1.531 . S
C419 C418 1.369 . S
C419 C420 1.410 . S
C419 C427 1.503 . S
C420 C419 1.410 . S
C420 C421 1.392 . S
C420 C423 1.511 . S
C421 C417 1.376 . S
C421 C420 1.392 . S
C421 H433 0.929 . S
C422 C418 1.531 . S
C422 H434 0.960 . S
C422 H435 0.962 . S
C422 H436 0.960 . S
C423 C420 1.511 . S
C423 H437 0.961 . S
C423 H438 0.961 . S
C423 H439 0.961 . S
C424 C425 1.370 . S
C424 C426 1.363 . S
C424 H440 0.931 . S
C425 C424 1.370 . S
C425 C429 1.408 . S
C426 C424 1.363 . S
C426 C427 1.370 . S
C426 C430 1.524 . S
C427 C419 1.503 . S
C427 C426 1.370 . S
C427 C428 1.403 . S
C428 C427 1.403 . S
C428 C429 1.404 . S
C428 C431 1.539 . S
C429 C425 1.408 . S
C429 C428 1.404 . S
C429 H441 0.930 . S
C430 C426 1.524 . S
C430 H442 0.956 . S
C430 H443 0.961 . S
C430 H444 0.961 . S
C431 C428 1.539 . S
C431 H445 0.958 . S
C431 H446 0.961 . S
C431 H447 0.960 . S
H432 C416 0.931 . S
H433 C421 0.929 . S
H434 C422 0.960 . S
H435 C422 0.962 . S
H436 C422 0.960 . S
H437 C423 0.961 . S
H438 C423 0.961 . S
H439 C423 0.961 . S
H440 C424 0.931 . S
H441 C429 0.930 . S
H442 C430 0.956 . S
H443 C430 0.961 . S
H444 C430 0.961 . S
H445 C431 0.958 . S
H446 C431 0.961 . S
H447 C431 0.960 . S
C448 C449 1.391 . S
C448 C450 1.394 . S
C448 H464 0.931 . S
C449 C448 1.391 . S
C449 C453 1.376 . S
C450 C448 1.394 . S
C450 C451 1.369 . S
C450 C454 1.531 . S
C451 C450 1.369 . S
C451 C452 1.410 . S
C451 C459 1.503 . S
C452 C451 1.410 . S
C452 C453 1.392 . S
C452 C455 1.511 . S
C453 C449 1.376 . S
C453 C452 1.392 . S
C453 H465 0.929 . S
C454 C450 1.531 . S
C454 H466 0.960 . S
C454 H467 0.962 . S
C454 H468 0.960 . S
C455 C452 1.511 . S
C455 H469 0.961 . S
C455 H470 0.961 . S
C455 H471 0.961 . S
C456 C457 1.370 . S
C456 C458 1.363 . S
C456 H472 0.931 . S
C457 C456 1.370 . S
C457 C461 1.408 . S
C458 C456 1.363 . S
C458 C459 1.370 . S
C458 C462 1.524 . S
C459 C451 1.503 . S
C459 C458 1.370 . S
C459 C460 1.403 . S
C460 C459 1.403 . S
C460 C461 1.404 . S
C460 C463 1.539 . S
C461 C457 1.408 . S
C461 C460 1.404 . S
C461 H473 0.930 . S
C462 C458 1.524 . S
C462 H474 0.956 . S
C462 H475 0.961 . S
C462 H476 0.961 . S
C463 C460 1.539 . S
C463 H477 0.958 . S
C463 H478 0.961 . S
C463 H479 0.960 . S
H464 C448 0.931 . S
H465 C453 0.929 . S
H466 C454 0.960 . S
H467 C454 0.962 . S
H468 C454 0.960 . S
H469 C455 0.961 . S
H470 C455 0.961 . S
H471 C455 0.961 . S
H472 C456 0.931 . S
H473 C461 0.930 . S
H474 C462 0.956 . S
H475 C462 0.961 . S
H476 C462 0.961 . S
H477 C463 0.958 . S
H478 C463 0.961 . S
H479 C463 0.960 . S
C480 C481 1.391 . S
C480 C482 1.394 . S
C480 H496 0.931 . S
C481 C480 1.391 . S
C481 C485 1.376 . S
C482 C480 1.394 . S
C482 C483 1.369 . S
C482 C486 1.531 . S
C483 C482 1.369 . S
C483 C484 1.410 . S
C483 C491 1.503 . S
C484 C483 1.410 . S
C484 C485 1.392 . S
C484 C487 1.511 . S
C485 C481 1.376 . S
C485 C484 1.392 . S
C485 H497 0.929 . S
C486 C482 1.531 . S
C486 H498 0.960 . S
C486 H499 0.962 . S
C486 H500 0.960 . S
C487 C484 1.511 . S
C487 H501 0.961 . S
C487 H502 0.961 . S
C487 H503 0.961 . S
C488 C489 1.370 . S
C488 C490 1.363 . S
C488 H504 0.931 . S
C489 C488 1.370 . S
C489 C493 1.408 . S
C490 C488 1.363 . S
C490 C491 1.370 . S
C490 C494 1.524 . S
C491 C483 1.503 . S
C491 C490 1.370 . S
C491 C492 1.403 . S
C492 C491 1.403 . S
C492 C493 1.404 . S
C492 C495 1.539 . S
C493 C489 1.408 . S
C493 C492 1.404 . S
C493 H505 0.930 . S
C494 C490 1.524 . S
C494 H506 0.956 . S
C494 H507 0.961 . S
C494 H508 0.961 . S
C495 C492 1.539 . S
C495 H509 0.958 . S
C495 H510 0.961 . S
C495 H511 0.960 . S
H496 C480 0.931 . S
H497 C485 0.929 . S
H498 C486 0.960 . S
H499 C486 0.962 . S
H500 C486 0.960 . S
H501 C487 0.961 . S
H502 C487 0.961 . S
H503 C487 0.961 . S
H504 C488 0.931 . S
H505 C493 0.930 . S
H506 C494 0.956 . S
H507 C494 0.961 . S
H508 C494 0.961 . S
H509 C495 0.958 . S
H510 C495 0.961 . S
H511 C495 0.960 . S
C512 C513 1.391 . S
C512 C514 1.394 . S
C512 H528 0.931 . S
C513 C512 1.391 . S
C513 C517 1.376 . S
C514 C512 1.394 . S
C514 C515 1.369 . S
C514 C518 1.531 . S
C515 C514 1.369 . S
C515 C516 1.410 . S
C515 C523 1.503 . S
C516 C515 1.410 . S
C516 C517 1.392 . S
C516 C519 1.511 . S
C517 C513 1.376 . S
C517 C516 1.392 . S
C517 H529 0.929 . S
C518 C514 1.531 . S
C518 H530 0.960 . S
C518 H531 0.962 . S
C518 H532 0.960 . S
C519 C516 1.511 . S
C519 H533 0.961 . S
C519 H534 0.961 . S
C519 H535 0.961 . S
C520 C521 1.370 . S
C520 C522 1.363 . S
C520 H536 0.931 . S
C521 C520 1.370 . S
C521 C525 1.408 . S
C522 C520 1.363 . S
C522 C523 1.370 . S
C522 C526 1.524 . S
C523 C515 1.503 . S
C523 C522 1.370 . S
C523 C524 1.403 . S
C524 C523 1.403 . S
C524 C525 1.404 . S
C524 C527 1.539 . S
C525 C521 1.408 . S
C525 C524 1.404 . S
C525 H537 0.930 . S
C526 C522 1.524 . S
C526 H538 0.956 . S
C526 H539 0.961 . S
C526 H540 0.961 . S
C527 C524 1.539 . S
C527 H541 0.958 . S
C527 H542 0.961 . S
C527 H543 0.960 . S
H528 C512 0.931 . S
H529 C517 0.929 . S
H530 C518 0.960 . S
H531 C518 0.962 . S
H532 C518 0.960 . S
H533 C519 0.961 . S
H534 C519 0.961 . S
H535 C519 0.961 . S
H536 C520 0.931 . S
H537 C525 0.930 . S
H538 C526 0.956 . S
H539 C526 0.961 . S
H540 C526 0.961 . S
H541 C527 0.958 . S
H542 C527 0.961 . S
H543 C527 0.960 . S
C544 C545 1.391 . S
C544 C546 1.394 . S
C544 H560 0.931 . S
C545 C544 1.391 . S
C545 C549 1.376 . S
C546 C544 1.394 . S
C546 C547 1.369 . S
C546 C550 1.531 . S
C547 C546 1.369 . S
C547 C548 1.410 . S
C547 C555 1.503 . S
C548 C547 1.410 . S
C548 C549 1.392 . S
C548 C551 1.511 . S
C549 C545 1.376 . S
C549 C548 1.392 . S
C549 H561 0.929 . S
C550 C546 1.531 . S
C550 H562 0.960 . S
C550 H563 0.962 . S
C550 H564 0.960 . S
C551 C548 1.511 . S
C551 H565 0.961 . S
C551 H566 0.961 . S
C551 H567 0.961 . S
C552 C553 1.370 . S
C552 C554 1.363 . S
C552 H568 0.931 . S
C553 C552 1.370 . S
C553 C557 1.408 . S
C554 C552 1.363 . S
C554 C555 1.370 . S
C554 C558 1.524 . S
C555 C547 1.503 . S
C555 C554 1.370 . S
C555 C556 1.403 . S
C556 C555 1.403 . S
C556 C557 1.404 . S
C556 C559 1.539 . S
C557 C553 1.408 . S
C557 C556 1.404 . S
C557 H569 0.930 . S
C558 C554 1.524 . S
C558 H570 0.956 . S
C558 H571 0.961 . S
C558 H572 0.961 . S
C559 C556 1.539 . S
C559 H573 0.958 . S
C559 H574 0.961 . S
C559 H575 0.960 . S
H560 C544 0.931 . S
H561 C549 0.929 . S
H562 C550 0.960 . S
H563 C550 0.962 . S
H564 C550 0.960 . S
H565 C551 0.961 . S
H566 C551 0.961 . S
H567 C551 0.961 . S
H568 C552 0.931 . S
H569 C557 0.930 . S
H570 C558 0.956 . S
H571 C558 0.961 . S
H572 C558 0.961 . S
H573 C559 0.958 . S
H574 C559 0.961 . S
H575 C559 0.960 . S
C576 C577 1.391 . S
C576 C578 1.394 . S
C576 H592 0.931 . S
C577 C576 1.391 . S
C577 C581 1.376 . S
C578 C576 1.394 . S
C578 C579 1.369 . S
C578 C582 1.531 . S
C579 C578 1.369 . S
C579 C580 1.410 . S
C579 C587 1.503 1_554 S
C580 C579 1.410 . S
C580 C581 1.392 . S
C580 C583 1.511 . S
C581 C577 1.376 . S
C581 C580 1.392 . S
C581 H593 0.929 . S
C582 C578 1.531 . S
C582 H594 0.960 1_554 S
C582 H595 0.953 1_554 S
C582 H596 0.960 . S
C583 C580 1.511 . S
C583 H597 0.961 . S
C583 H598 0.961 . S
C583 H599 0.961 . S
C584 C585 1.370 . S
C584 C586 1.363 . S
C584 H600 0.931 . S
C585 C584 1.370 . S
C585 C589 1.408 . S
C586 C584 1.363 . S
C586 C587 1.370 . S
C586 C590 1.524 . S
C587 C579 1.503 1_556 S
C587 C586 1.370 . S
C587 C588 1.403 . S
C588 C587 1.403 . S
C588 C589 1.404 . S
C588 C591 1.539 . S
C589 C585 1.408 . S
C589 C588 1.404 . S
C589 H601 0.930 . S
C590 C586 1.524 . S
C590 H602 0.955 . S
C590 H603 0.961 1_556 S
C590 H604 0.961 . S
C591 C588 1.539 . S
C591 H605 0.958 . S
C591 H606 0.961 . S
C591 H607 0.960 . S
H592 C576 0.931 . S
H593 C581 0.929 . S
H594 C582 0.960 1_556 S
H595 C582 0.953 1_556 S
H596 C582 0.960 . S
H597 C583 0.961 . S
H598 C583 0.961 . S
H599 C583 0.961 . S
H600 C584 0.931 . S
H601 C589 0.930 . S
H602 C590 0.955 . S
H603 C590 0.961 1_554 S
H604 C590 0.961 . S
H605 C591 0.958 . S
H606 C591 0.961 . S
H607 C591 0.960 . S
C608 C609 1.391 . S
C608 C610 1.394 . S
C608 H624 0.931 . S
C609 C608 1.391 . S
C609 C613 1.376 . S
C610 C608 1.394 . S
C610 C611 1.369 . S
C610 C614 1.589 . S
C611 C610 1.369 . S
C611 C612 1.410 . S
C611 C619 1.503 1_554 S
C612 C611 1.410 . S
C612 C613 1.392 . S
C612 C615 1.511 . S
C613 C609 1.376 . S
C613 C612 1.392 . S
C613 H625 0.929 . S
C614 C610 1.589 . S
C614 H626 0.893 1_554 S
C614 H627 0.944 1_554 S
C614 H628 0.996 . S
C615 C612 1.511 . S
C615 H629 0.961 . S
C615 H630 0.961 . S
C615 H631 0.961 . S
C616 C617 1.370 . S
C616 C618 1.363 . S
C616 H632 0.931 . S
C617 C616 1.370 . S
C617 C621 1.408 . S
C618 C616 1.363 . S
C618 C619 1.370 . S
C618 C622 1.524 . S
C619 C611 1.503 1_556 S
C619 C618 1.370 . S
C619 C620 1.403 . S
C620 C619 1.403 . S
C620 C621 1.404 . S
C620 C623 1.539 . S
C621 C617 1.408 . S
C621 C620 1.404 . S
C621 H633 0.930 . S
C622 C618 1.524 . S
C622 H634 0.956 . S
C622 H635 0.961 1_556 S
C622 H636 0.961 . S
C623 C620 1.539 . S
C623 H637 0.958 . S
C623 H638 0.961 . S
C623 H639 0.957 1_556 S
H624 C608 0.931 . S
H625 C613 0.929 . S
H626 C614 0.893 1_556 S
H627 C614 0.944 1_556 S
H628 C614 0.996 . S
H629 C615 0.961 . S
H630 C615 0.961 . S
H631 C615 0.961 . S
H632 C616 0.931 . S
H633 C621 0.930 . S
H634 C622 0.956 . S
H635 C622 0.961 1_554 S
H636 C622 0.961 . S
H637 C623 0.958 . S
H638 C623 0.961 . S
H639 C623 0.957 1_554 S
C640 C641 1.391 . S
C640 C642 1.394 . S
C640 H656 0.931 . S
C641 C640 1.391 . S
C641 C645 1.376 . S
C642 C640 1.394 . S
C642 C643 1.369 . S
C642 C646 1.531 . S
C643 C642 1.369 . S
C643 C644 1.410 . S
C643 C651 1.503 . S
C644 C643 1.410 . S
C644 C645 1.392 . S
C644 C647 1.511 . S
C645 C641 1.376 . S
C645 C644 1.392 . S
C645 H657 0.929 . S
C646 C642 1.531 . S
C646 H658 0.960 . S
C646 H659 0.962 . S
C646 H660 0.960 . S
C647 C644 1.511 . S
C647 H661 0.961 . S
C647 H662 0.961 . S
C647 H663 0.961 . S
C648 C649 1.370 . S
C648 C650 1.363 . S
C648 H664 0.931 . S
C649 C648 1.370 . S
C649 C653 1.408 . S
C650 C648 1.363 . S
C650 C651 1.370 . S
C650 C654 1.524 . S
C651 C643 1.503 . S
C651 C650 1.370 . S
C651 C652 1.403 . S
C652 C651 1.403 . S
C652 C653 1.404 . S
C652 C655 1.539 . S
C653 C649 1.408 . S
C653 C652 1.404 . S
C653 H665 0.930 . S
C654 C650 1.524 . S
C654 H666 0.956 . S
C654 H667 0.961 . S
C654 H668 0.961 . S
C655 C652 1.539 . S
C655 H669 0.958 . S
C655 H670 0.961 . S
C655 H671 0.960 . S
H656 C640 0.931 . S
H657 C645 0.929 . S
H658 C646 0.960 . S
H659 C646 0.962 . S
H660 C646 0.960 . S
H661 C647 0.961 . S
H662 C647 0.961 . S
H663 C647 0.961 . S
H664 C648 0.931 . S
H665 C653 0.930 . S
H666 C654 0.956 . S
H667 C654 0.961 . S
H668 C654 0.961 . S
H669 C655 0.958 . S
H670 C655 0.961 . S
H671 C655 0.960 . S
C672 C673 1.391 . S
C672 C674 1.394 . S
C672 H688 0.931 . S
C673 C672 1.391 . S
C673 C677 1.376 . S
C674 C672 1.394 . S
C674 C675 1.369 . S
C674 C678 1.531 . S
C675 C674 1.369 . S
C675 C676 1.410 . S
C675 C683 1.503 . S
C676 C675 1.410 . S
C676 C677 1.392 . S
C676 C679 1.511 . S
C677 C673 1.376 . S
C677 C676 1.392 . S
C677 H689 0.929 . S
C678 C674 1.531 . S
C678 H690 0.960 . S
C678 H691 0.962 . S
C678 H692 0.960 . S
C679 C676 1.511 . S
C679 H693 0.961 . S
C679 H694 0.961 . S
C679 H695 0.961 . S
C680 C681 1.370 . S
C680 C682 1.363 . S
C680 H696 0.931 . S
C681 C680 1.370 . S
C681 C685 1.408 . S
C682 C680 1.363 . S
C682 C683 1.370 . S
C682 C686 1.524 . S
C683 C675 1.503 . S
C683 C682 1.370 . S
C683 C684 1.403 . S
C684 C683 1.403 . S
C684 C685 1.404 . S
C684 C687 1.539 . S
C685 C681 1.408 . S
C685 C684 1.404 . S
C685 H697 0.930 . S
C686 C682 1.524 . S
C686 H698 0.956 . S
C686 H699 0.961 . S
C686 H700 0.961 . S
C687 C684 1.539 . S
C687 H701 0.958 . S
C687 H702 0.961 . S
C687 H703 0.960 . S
H688 C672 0.931 . S
H689 C677 0.929 . S
H690 C678 0.960 . S
H691 C678 0.962 . S
H692 C678 0.960 . S
H693 C679 0.961 . S
H694 C679 0.961 . S
H695 C679 0.961 . S
H696 C680 0.931 . S
H697 C685 0.930 . S
H698 C686 0.956 . S
H699 C686 0.961 . S
H700 C686 0.961 . S
H701 C687 0.958 . S
H702 C687 0.961 . S
H703 C687 0.960 . S
C704 C705 1.391 . S
C704 C706 1.394 . S
C704 H720 0.931 . S
C705 C704 1.391 . S
C705 C709 1.376 . S
C706 C704 1.394 . S
C706 C707 1.369 . S
C706 C710 1.531 . S
C707 C706 1.369 . S
C707 C708 1.410 . S
C707 C715 1.503 . S
C708 C707 1.410 . S
C708 C709 1.392 . S
C708 C711 1.511 . S
C709 C705 1.376 . S
C709 C708 1.392 . S
C709 H721 0.929 . S
C710 C706 1.531 . S
C710 H722 0.960 . S
C710 H723 0.962 . S
C710 H724 0.960 . S
C711 C708 1.511 . S
C711 H725 0.961 . S
C711 H726 0.961 . S
C711 H727 0.961 . S
C712 C713 1.370 . S
C712 C714 1.363 . S
C712 H728 0.931 . S
C713 C712 1.370 . S
C713 C717 1.408 . S
C714 C712 1.363 . S
C714 C715 1.370 . S
C714 C718 1.524 . S
C715 C707 1.503 . S
C715 C714 1.370 . S
C715 C716 1.403 . S
C716 C715 1.403 . S
C716 C717 1.404 . S
C716 C719 1.539 . S
C717 C713 1.408 . S
C717 C716 1.404 . S
C717 H729 0.930 . S
C718 C714 1.524 . S
C718 H730 0.956 . S
C718 H731 0.961 . S
C718 H732 0.961 . S
C719 C716 1.539 . S
C719 H733 0.958 . S
C719 H734 0.961 . S
C719 H735 0.960 . S
H720 C704 0.931 . S
H721 C709 0.929 . S
H722 C710 0.960 . S
H723 C710 0.962 . S
H724 C710 0.960 . S
H725 C711 0.961 . S
H726 C711 0.961 . S
H727 C711 0.961 . S
H728 C712 0.931 . S
H729 C717 0.930 . S
H730 C718 0.956 . S
H731 C718 0.961 . S
H732 C718 0.961 . S
H733 C719 0.958 . S
H734 C719 0.961 . S
H735 C719 0.960 . S
C736 C737 1.391 . S
C736 C738 1.394 . S
C736 H752 0.931 . S
C737 C736 1.391 . S
C737 C741 1.384 . S
C738 C736 1.394 . S
C738 C739 1.369 . S
C738 C742 1.531 1_455 S
C739 C738 1.369 . S
C739 C740 1.410 1_545 S
C739 C747 1.503 1_445 S
C740 C739 1.410 1_565 S
C740 C741 1.389 1_565 S
C740 C743 1.511 . S
C741 C737 1.384 . S
C741 C740 1.389 1_545 S
C741 H753 0.923 1_545 S
C742 C738 1.531 1_655 S
C742 H754 0.960 . S
C742 H755 0.962 . S
C742 H756 0.960 1_655 S
C743 C740 1.511 . S
C743 H757 0.961 . S
C743 H758 0.961 . S
C743 H759 0.961 . S
C744 C745 1.370 . S
C744 C746 1.363 . S
C744 H760 0.931 . S
C745 C744 1.370 . S
C745 C749 1.408 . S
C746 C744 1.363 . S
C746 C747 1.370 . S
C746 C750 1.524 . S
C747 C739 1.503 1_665 S
C747 C746 1.370 . S
C747 C748 1.403 1_565 S
C748 C747 1.403 1_545 S
C748 C749 1.404 1_545 S
C748 C751 1.539 . S
C749 C745 1.408 . S
C749 C748 1.404 1_565 S
C749 H761 0.930 . S
C750 C746 1.524 . S
C750 H762 0.956 1_655 S
C750 H763 0.961 1_655 S
C750 H764 0.961 . S
C751 C748 1.539 . S
C751 H765 0.958 . S
C751 H766 0.961 . S
C751 H767 0.960 . S
H752 C736 0.931 . S
H753 C741 0.923 1_565 S
H754 C742 0.960 . S
H755 C742 0.962 . S
H756 C742 0.960 1_455 S
H757 C743 0.961 . S
H758 C743 0.961 . S
H759 C743 0.961 . S
H760 C744 0.931 . S
H761 C749 0.930 . S
H762 C750 0.956 1_455 S
H763 C750 0.961 1_455 S
H764 C750 0.961 . S
H765 C751 0.958 . S
H766 C751 0.961 . S
H767 C751 0.960 . S
C768 C769 1.391 . S
C768 C770 1.394 . S
C768 H784 0.931 . S
C769 C768 1.391 . S
C769 C773 1.376 1_455 S
C770 C768 1.394 . S
C770 C771 1.369 . S
C770 C774 1.531 . S
C771 C770 1.369 . S
C771 C772 1.410 1_455 S
C771 C779 1.503 1_455 S
C772 C771 1.410 1_655 S
C772 C773 1.392 . S
C772 C775 1.511 . S
C773 C769 1.376 1_655 S
C773 C772 1.392 . S
C773 H785 0.929 . S
C774 C770 1.531 . S
C774 H786 0.960 . S
C774 H787 0.962 . S
C774 H788 0.960 . S
C775 C772 1.511 . S
C775 H789 0.961 . S
C775 H790 0.961 . S
C775 H791 0.961 . S
C776 C777 1.370 . S
C776 C778 1.363 . S
C776 H792 0.931 . S
C777 C776 1.370 . S
C777 C781 1.408 . S
C778 C776 1.363 . S
C778 C779 1.370 . S
C778 C782 1.524 1_655 S
C779 C771 1.503 1_655 S
C779 C778 1.370 . S
C779 C780 1.403 . S
C780 C779 1.403 . S
C780 C781 1.404 . S
C780 C783 1.539 . S
C781 C777 1.408 . S
C781 C780 1.404 . S
C781 H793 0.930 . S
C782 C778 1.524 1_455 S
C782 H794 0.956 . S
C782 H795 0.961 1_455 S
C782 H796 0.961 1_455 S
C783 C780 1.539 . S
C783 H797 0.958 1_655 S
C783 H798 0.961 . S
C783 H799 0.960 . S
H784 C768 0.931 . S
H785 C773 0.929 . S
H786 C774 0.960 . S
H787 C774 0.962 . S
H788 C774 0.960 . S
H789 C775 0.961 . S
H790 C775 0.961 . S
H791 C775 0.961 . S
H792 C776 0.931 . S
H793 C781 0.930 . S
H794 C782 0.956 . S
H795 C782 0.961 1_655 S
H796 C782 0.961 1_655 S
H797 C783 0.958 1_455 S
H798 C783 0.961 . S
H799 C783 0.960 . S
C800 C801 1.391 . S
C800 C802 1.394 . S
C800 H816 0.931 . S
C801 C800 1.391 . S
C801 C805 1.376 . S
C802 C800 1.394 . S
C802 C803 1.369 . S
C802 C806 1.531 . S
C803 C802 1.369 . S
C803 C804 1.410 . S
C803 C811 1.503 . S
C804 C803 1.410 . S
C804 C805 1.392 . S
C804 C807 1.511 . S
C805 C801 1.376 . S
C805 C804 1.392 . S
C805 H817 0.929 . S
C806 C802 1.531 . S
C806 H818 0.960 . S
C806 H819 0.962 . S
C806 H820 0.960 . S
C807 C804 1.511 . S
C807 H821 0.961 . S
C807 H822 0.961 . S
C807 H823 0.961 . S
C808 C809 1.370 . S
C808 C810 1.363 . S
C808 H824 0.931 . S
C809 C808 1.370 . S
C809 C813 1.408 . S
C810 C808 1.363 . S
C810 C811 1.370 . S
C810 C814 1.524 . S
C811 C803 1.503 . S
C811 C810 1.370 . S
C811 C812 1.403 . S
C812 C811 1.403 . S
C812 C813 1.404 . S
C812 C815 1.539 . S
C813 C809 1.408 . S
C813 C812 1.404 . S
C813 H825 0.930 . S
C814 C810 1.524 . S
C814 H826 0.956 . S
C814 H827 0.961 . S
C814 H828 0.961 . S
C815 C812 1.539 . S
C815 H829 0.958 . S
C815 H830 0.961 . S
C815 H831 0.960 . S
H816 C800 0.931 . S
H817 C805 0.929 . S
H818 C806 0.960 . S
H819 C806 0.962 . S
H820 C806 0.960 . S
H821 C807 0.961 . S
H822 C807 0.961 . S
H823 C807 0.961 . S
H824 C808 0.931 . S
H825 C813 0.930 . S
H826 C814 0.956 . S
H827 C814 0.961 . S
H828 C814 0.961 . S
H829 C815 0.958 . S
H830 C815 0.961 . S
H831 C815 0.960 . S
C832 C833 1.391 . S
C832 C834 1.394 . S
C832 H848 0.931 . S
C833 C832 1.391 . S
C833 C837 1.376 . S
C834 C832 1.394 . S
C834 C835 1.369 . S
C834 C838 1.531 . S
C835 C834 1.369 . S
C835 C836 1.410 . S
C835 C843 1.503 1_545 S
C836 C835 1.410 . S
C836 C837 1.392 . S
C836 C839 1.511 . S
C837 C833 1.376 . S
C837 C836 1.392 . S
C837 H849 0.929 . S
C838 C834 1.531 . S
C838 H850 0.960 1_545 S
C838 H851 0.962 . S
C838 H852 0.960 . S
C839 C836 1.511 . S
C839 H853 0.961 . S
C839 H854 0.961 1_545 S
C839 H855 0.961 . S
C840 C841 1.370 . S
C840 C842 1.363 . S
C840 H856 0.931 . S
C841 C840 1.370 . S
C841 C845 1.408 . S
C842 C840 1.363 . S
C842 C843 1.370 . S
C842 C846 1.524 1_565 S
C843 C835 1.503 1_565 S
C843 C842 1.370 . S
C843 C844 1.403 . S
C844 C843 1.403 . S
C844 C845 1.404 . S
C844 C847 1.539 . S
C845 C841 1.408 . S
C845 C844 1.404 . S
C845 H857 0.930 . S
C846 C842 1.524 1_545 S
C846 H858 0.956 . S
C846 H859 0.961 . S
C846 H860 0.961 1_545 S
C847 C844 1.539 . S
C847 H861 0.958 . S
C847 H862 0.961 . S
C847 H863 0.960 . S
H848 C832 0.931 . S
H849 C837 0.929 . S
H850 C838 0.960 1_565 S
H851 C838 0.962 . S
H852 C838 0.960 . S
H853 C839 0.961 . S
H854 C839 0.961 1_565 S
H855 C839 0.961 . S
H856 C840 0.931 . S
H857 C845 0.930 . S
H858 C846 0.956 . S
H859 C846 0.961 . S
H860 C846 0.961 1_565 S
H861 C847 0.958 . S
H862 C847 0.961 . S
H863 C847 0.960 . S
C864 C865 1.391 . S
C864 C866 1.394 . S
C864 H880 0.931 . S
C865 C864 1.391 . S
C865 C869 1.376 . S
C866 C864 1.394 . S
C866 C867 1.369 . S
C866 C870 1.531 . S
C867 C866 1.369 . S
C867 C868 1.410 . S
C867 C875 1.503 1_455 S
C868 C867 1.410 . S
C868 C869 1.392 . S
C868 C871 1.511 . S
C869 C865 1.376 . S
C869 C868 1.392 . S
C869 H881 0.929 . S
C870 C866 1.531 . S
C870 H882 0.960 1_455 S
C870 H883 0.962 . S
C870 H884 0.960 . S
C871 C868 1.511 . S
C871 H885 0.961 . S
C871 H886 0.961 1_455 S
C871 H887 0.961 1_455 S
C872 C873 1.370 . S
C872 C874 1.363 . S
C872 H888 0.931 . S
C873 C872 1.370 . S
C873 C877 1.408 . S
C874 C872 1.363 . S
C874 C875 1.370 . S
C874 C878 1.524 1_655 S
C875 C867 1.503 1_655 S
C875 C874 1.370 . S
C875 C876 1.403 . S
C876 C875 1.403 . S
C876 C877 1.404 . S
C876 C879 1.539 . S
C877 C873 1.408 . S
C877 C876 1.404 . S
C877 H889 0.930 . S
C878 C874 1.524 1_455 S
C878 H890 0.956 . S
C878 H891 0.961 . S
C878 H892 0.961 1_455 S
C879 C876 1.539 . S
C879 H893 0.958 . S
C879 H894 0.961 . S
C879 H895 0.960 . S
H880 C864 0.931 . S
H881 C869 0.929 . S
H882 C870 0.960 1_655 S
H883 C870 0.962 . S
H884 C870 0.960 . S
H885 C871 0.961 . S
H886 C871 0.961 1_655 S
H887 C871 0.961 1_655 S
H888 C872 0.931 . S
H889 C877 0.930 . S
H890 C878 0.956 . S
H891 C878 0.961 . S
H892 C878 0.961 1_655 S
H893 C879 0.958 . S
H894 C879 0.961 . S
H895 C879 0.960 . S
C896 C897 1.391 . S
C896 C898 1.394 . S
C896 H912 0.931 . S
C897 C896 1.391 . S
C897 C901 1.376 . S
C898 C896 1.394 . S
C898 C899 1.369 . S
C898 C902 1.531 . S
C899 C898 1.369 . S
C899 C900 1.410 . S
C899 C907 1.503 . S
C900 C899 1.410 . S
C900 C901 1.392 . S
C900 C903 1.511 . S
C901 C897 1.376 . S
C901 C900 1.392 . S
C901 H913 0.929 . S
C902 C898 1.531 . S
C902 H914 0.960 . S
C902 H915 0.962 . S
C902 H916 0.960 . S
C903 C900 1.511 . S
C903 H917 0.961 . S
C903 H918 0.961 . S
C903 H919 0.961 . S
C904 C905 1.370 . S
C904 C906 1.363 . S
C904 H920 0.931 . S
C905 C904 1.370 . S
C905 C909 1.408 . S
C906 C904 1.363 . S
C906 C907 1.370 . S
C906 C910 1.524 . S
C907 C899 1.503 . S
C907 C906 1.370 . S
C907 C908 1.403 . S
C908 C907 1.403 . S
C908 C909 1.404 . S
C908 C911 1.539 . S
C909 C905 1.408 . S
C909 C908 1.404 . S
C909 H921 0.930 . S
C910 C906 1.524 . S
C910 H922 0.956 . S
C910 H923 0.961 . S
C910 H924 0.961 . S
C911 C908 1.539 . S
C911 H925 0.958 . S
C911 H926 0.961 . S
C911 H927 0.960 . S
H912 C896 0.931 . S
H913 C901 0.929 . S
H914 C902 0.960 . S
H915 C902 0.962 . S
H916 C902 0.960 . S
H917 C903 0.961 . S
H918 C903 0.961 . S
H919 C903 0.961 . S
H920 C904 0.931 . S
H921 C909 0.930 . S
H922 C910 0.956 . S
H923 C910 0.961 . S
H924 C910 0.961 . S
H925 C911 0.958 . S
H926 C911 0.961 . S
H927 C911 0.960 . S
C928 C929 1.391 . S
C928 C930 1.394 1_565 S
C928 H944 0.931 . S
C929 C928 1.391 . S
C929 C933 1.376 . S
C930 C928 1.394 1_545 S
C930 C931 1.369 . S
C930 C934 1.531 . S
C931 C930 1.369 . S
C931 C932 1.410 1_545 S
C931 C939 1.503 . S
C932 C931 1.410 1_565 S
C932 C933 1.392 . S
C932 C935 1.511 . S
C933 C929 1.376 . S
C933 C932 1.392 . S
C933 H945 0.929 . S
C934 C930 1.531 . S
C934 H946 0.960 . S
C934 H947 0.962 . S
C934 H948 0.960 . S
C935 C932 1.511 . S
C935 H949 0.961 . S
C935 H950 0.961 . S
C935 H951 0.961 1_565 S
C936 C937 1.370 1_565 S
C936 C938 1.363 . S
C936 H952 0.931 . S
C937 C936 1.370 1_545 S
C937 C941 1.408 . S
C938 C936 1.363 . S
C938 C939 1.370 1_565 S
C938 C942 1.524 . S
C939 C931 1.503 . S
C939 C938 1.370 1_545 S
C939 C940 1.403 . S
C940 C939 1.403 . S
C940 C941 1.404 . S
C940 C943 1.539 . S
C941 C937 1.408 . S
C941 C940 1.404 . S
C941 H953 0.930 . S
C942 C938 1.524 . S
C942 H954 0.956 . S
C942 H955 0.961 . S
C942 H956 0.961 . S
C943 C940 1.539 . S
C943 H957 0.958 . S
C943 H958 0.961 . S
C943 H959 0.960 . S
H944 C928 0.931 . S
H945 C933 0.929 . S
H946 C934 0.960 . S
H947 C934 0.962 . S
H948 C934 0.960 . S
H949 C935 0.961 . S
H950 C935 0.961 . S
H951 C935 0.961 1_545 S
H952 C936 0.931 . S
H953 C941 0.930 . S
H954 C942 0.956 . S
H955 C942 0.961 . S
H956 C942 0.961 . S
H957 C943 0.958 . S
H958 C943 0.961 . S
H959 C943 0.960 . S
C960 C961 1.391 1_655 S
C960 C962 1.394 . S
C960 H976 0.931 . S
C961 C960 1.391 1_455 S
C961 C965 1.376 . S
C962 C960 1.394 . S
C962 C963 1.369 1_655 S
C962 C966 1.531 . S
C963 C962 1.369 1_455 S
C963 C964 1.410 . S
C963 C971 1.503 1_445 S
C964 C963 1.410 . S
C964 C965 1.392 . S
C964 C967 1.511 1_545 S
C965 C961 1.376 . S
C965 C964 1.392 . S
C965 H977 0.929 . S
C966 C962 1.531 . S
C966 H978 0.960 . S
C966 H979 0.962 . S
C966 H980 0.960 . S
C967 C964 1.511 1_565 S
C967 H981 0.961 1_565 S
C967 H982 0.961 . S
C967 H983 0.961 . S
C968 C969 1.370 . S
C968 C970 1.363 . S
C968 H984 0.931 . S
C969 C968 1.370 . S
C969 C973 1.408 . S
C970 C968 1.363 . S
C970 C971 1.370 . S
C970 C974 1.524 1_655 S
C971 C963 1.503 1_665 S
C971 C970 1.370 . S
C971 C972 1.403 . S
C972 C971 1.403 . S
C972 C973 1.404 . S
C972 C975 1.539 . S
C973 C969 1.408 . S
C973 C972 1.404 . S
C973 H985 0.930 . S
C974 C970 1.524 1_455 S
C974 H986 0.956 . S
C974 H987 0.961 . S
C974 H988 0.961 . S
C975 C972 1.539 . S
C975 H989 0.958 . S
C975 H990 0.961 . S
C975 H991 0.960 1_565 S
H976 C960 0.931 . S
H977 C965 0.929 . S
H978 C966 0.960 . S
H979 C966 0.962 . S
H980 C966 0.960 . S
H981 C967 0.961 1_545 S
H982 C967 0.961 . S
H983 C967 0.961 . S
H984 C968 0.931 . S
H985 C973 0.930 . S
H986 C974 0.956 . S
H987 C974 0.961 . S
H988 C974 0.961 . S
H989 C975 0.958 . S
H990 C975 0.961 . S
H991 C975 0.960 1_545 S
C992 C993 1.391 1_545 S
C992 C994 1.394 . S
C992 H1008 0.931 . S
C993 C992 1.391 1_565 S
C993 C997 1.376 . S
C994 C992 1.394 . S
C994 C995 1.369 1_545 S
C994 C998 1.531 . S
C995 C994 1.369 1_565 S
C995 C996 1.410 . S
C995 C1003 1.503 1_565 S
C996 C995 1.410 . S
C996 C997 1.392 . S
C996 C999 1.511 . S
C997 C993 1.376 . S
C997 C996 1.392 . S
C997 H1009 0.929 . S
C998 C994 1.531 . S
C998 H1010 0.960 . S
C998 H1011 0.962 . S
C998 H1012 0.960 . S
C999 C996 1.511 . S
C999 H1013 0.961 . S
C999 H1014 0.961 . S
C999 H1015 0.961 . S
C1000 C1001 1.370 . S
C1000 C1002 1.363 . S
C1000 H1016 0.931 . S
C1001 C1000 1.370 . S
C1001 C1005 1.408 . S
C1002 C1000 1.363 . S
C1002 C1003 1.370 . S
C1002 C1006 1.524 . S
C1003 C995 1.503 1_545 S
C1003 C1002 1.370 . S
C1003 C1004 1.403 . S
C1004 C1003 1.403 . S
C1004 C1005 1.404 . S
C1004 C1007 1.539 1_545 S
C1005 C1001 1.408 . S
C1005 C1004 1.404 . S
C1005 H1017 0.930 . S
C1006 C1002 1.524 . S
C1006 H1018 0.956 . S
C1006 H1019 0.961 1_545 S
C1006 H1020 0.961 . S
C1007 C1004 1.539 1_565 S
C1007 H1021 0.958 1_565 S
C1007 H1022 0.961 . S
C1007 H1023 0.960 . S
H1008 C992 0.931 . S
H1009 C997 0.929 . S
H1010 C998 0.960 . S
H1011 C998 0.962 . S
H1012 C998 0.960 . S
H1013 C999 0.961 . S
H1014 C999 0.961 . S
H1015 C999 0.961 . S
H1016 C1000 0.931 . S
H1017 C1005 0.930 . S
H1018 C1006 0.956 . S
H1019 C1006 0.961 1_565 S
H1020 C1006 0.961 . S
H1021 C1007 0.958 1_545 S
H1022 C1007 0.961 . S
H1023 C1007 0.960 . S
C1024 C1025 1.391 . S
C1024 C1026 1.394 1_655 S
C1024 H1040 0.931 1_655 S
C1025 C1024 1.391 . S
C1025 C1029 1.376 . S
C1026 C1024 1.394 1_455 S
C1026 C1027 1.369 1_455 S
C1026 C1030 1.531 . S
C1027 C1026 1.369 1_655 S
C1027 C1028 1.410 . S
C1027 C1035 1.503 1_665 S
C1028 C1027 1.410 . S
C1028 C1029 1.392 . S
C1028 C1031 1.511 1_565 S
C1029 C1025 1.376 . S
C1029 C1028 1.392 . S
C1029 H1041 0.929 . S
C1030 C1026 1.531 . S
C1030 H1042 0.960 . S
C1030 H1043 0.962 . S
C1030 H1044 0.960 . S
C1031 C1028 1.511 1_545 S
C1031 H1045 0.961 1_545 S
C1031 H1046 0.961 . S
C1031 H1047 0.961 . S
C1032 C1033 1.370 . S
C1032 C1034 1.363 . S
C1032 H1048 0.931 . S
C1033 C1032 1.370 . S
C1033 C1037 1.408 . S
C1034 C1032 1.363 . S
C1034 C1035 1.370 . S
C1034 C1038 1.524 . S
C1035 C1027 1.503 1_445 S
C1035 C1034 1.370 . S
C1035 C1036 1.402 1_455 S
C1036 C1035 1.402 1_655 S
C1036 C1037 1.402 1_655 S
C1036 C1039 1.541 . S
C1037 C1033 1.408 . S
C1037 C1036 1.402 1_455 S
C1037 H1049 0.930 . S
C1038 C1034 1.524 . S
C1038 H1050 0.956 1_545 S
C1038 H1051 0.961 1_545 S
C1038 H1052 0.961 . S
C1039 C1036 1.541 . S
C1039 H1053 0.958 . S
C1039 H1054 0.961 . S
C1039 H1055 0.960 . S
H1040 C1024 0.931 1_455 S
H1041 C1029 0.929 . S
H1042 C1030 0.960 . S
H1043 C1030 0.962 . S
H1044 C1030 0.960 . S
H1045 C1031 0.961 1_565 S
H1046 C1031 0.961 . S
H1047 C1031 0.961 . S
H1048 C1032 0.931 . S
H1049 C1037 0.930 . S
H1050 C1038 0.956 1_565 S
H1051 C1038 0.961 1_565 S
H1052 C1038 0.961 . S
H1053 C1039 0.958 . S
H1054 C1039 0.961 . S
H1055 C1039 0.960 . S
C1056 C1057 1.391 . S
C1056 C1058 1.394 . S
C1056 H1072 0.931 . S
C1057 C1056 1.391 . S
C1057 C1061 1.376 . S
C1058 C1056 1.394 . S
C1058 C1059 1.369 . S
C1058 C1062 1.531 . S
C1059 C1058 1.369 . S
C1059 C1060 1.410 . S
C1059 C1067 1.503 1_455 S
C1060 C1059 1.410 . S
C1060 C1061 1.392 . S
C1060 C1063 1.511 . S
C1061 C1057 1.376 . S
C1061 C1060 1.392 . S
C1061 H1073 0.929 . S
C1062 C1058 1.531 . S
C1062 H1074 0.960 1_455 S
C1062 H1075 0.962 1_455 S
C1062 H1076 0.960 . S
C1063 C1060 1.511 . S
C1063 H1077 0.961 . S
C1063 H1078 0.961 . S
C1063 H1079 0.961 . S
C1064 C1065 1.370 . S
C1064 C1066 1.363 . S
C1064 H1080 0.931 . S
C1065 C1064 1.370 . S
C1065 C1069 1.408 . S
C1066 C1064 1.363 . S
C1066 C1067 1.370 . S
C1066 C1070 1.524 . S
C1067 C1059 1.503 1_655 S
C1067 C1066 1.370 . S
C1067 C1068 1.403 . S
C1068 C1067 1.403 . S
C1068 C1069 1.404 . S
C1068 C1071 1.539 1_655 S
C1069 C1065 1.408 . S
C1069 C1068 1.404 . S
C1069 H1081 0.930 . S
C1070 C1066 1.524 . S
C1070 H1082 0.956 . S
C1070 H1083 0.961 . S
C1070 H1084 0.961 . S
C1071 C1068 1.539 1_455 S
C1071 H1085 0.958 . S
C1071 H1086 0.961 1_455 S
C1071 H1087 0.960 . S
H1072 C1056 0.931 . S
H1073 C1061 0.929 . S
H1074 C1062 0.960 1_655 S
H1075 C1062 0.962 1_655 S
H1076 C1062 0.960 . S
H1077 C1063 0.961 . S
H1078 C1063 0.961 . S
H1079 C1063 0.961 . S
H1080 C1064 0.931 . S
H1081 C1069 0.930 . S
H1082 C1070 0.956 . S
H1083 C1070 0.961 . S
H1084 C1070 0.961 . S
H1085 C1071 0.958 . S
H1086 C1071 0.961 1_655 S
H1087 C1071 0.960 . S
C1088 C1089 1.391 . S
C1088 C1090 1.394 . S
C1088 H1104 0.931 . S
C1089 C1088 1.391 . S
C1089 C1093 1.376 . S
C1090 C1088 1.394 . S
C1090 C1091 1.369 . S
C1090 C1094 1.531 . S
C1091 C1090 1.369 . S
C1091 C1092 1.410 . S
C1091 C1099 1.503 . S
C1092 C1091 1.410 . S
C1092 C1093 1.392 . S
C1092 C1095 1.511 . S
C1093 C1089 1.376 . S
C1093 C1092 1.392 . S
C1093 H1105 0.929 . S
C1094 C1090 1.531 . S
C1094 H1106 0.960 . S
C1094 H1107 0.962 . S
C1094 H1108 0.960 . S
C1095 C1092 1.511 . S
C1095 H1109 0.961 . S
C1095 H1110 0.961 . S
C1095 H1111 0.961 . S
C1096 C1097 1.370 . S
C1096 C1098 1.363 . S
C1096 H1112 0.931 . S
C1097 C1096 1.370 . S
C1097 C1101 1.408 . S
C1098 C1096 1.363 . S
C1098 C1099 1.370 . S
C1098 C1102 1.524 . S
C1099 C1091 1.503 . S
C1099 C1098 1.370 . S
C1099 C1100 1.403 . S
C1100 C1099 1.403 . S
C1100 C1101 1.404 . S
C1100 C1103 1.539 . S
C1101 C1097 1.408 . S
C1101 C1100 1.404 . S
C1101 H1113 0.930 . S
C1102 C1098 1.524 . S
C1102 H1114 0.956 . S
C1102 H1115 0.961 . S
C1102 H1116 0.961 . S
C1103 C1100 1.539 . S
C1103 H1117 0.958 . S
C1103 H1118 0.961 . S
C1103 H1119 0.960 . S
H1104 C1088 0.931 . S
H1105 C1093 0.929 . S
H1106 C1094 0.960 . S
H1107 C1094 0.962 . S
H1108 C1094 0.960 . S
H1109 C1095 0.961 . S
H1110 C1095 0.961 . S
H1111 C1095 0.961 . S
H1112 C1096 0.931 . S
H1113 C1101 0.930 . S
H1114 C1102 0.956 . S
H1115 C1102 0.961 . S
H1116 C1102 0.961 . S
H1117 C1103 0.958 . S
H1118 C1103 0.961 . S
H1119 C1103 0.960 . S
C1120 C1121 1.391 . S
C1120 C1122 1.394 . S
C1120 H1136 0.931 . S
C1121 C1120 1.391 . S
C1121 C1125 1.376 . S
C1122 C1120 1.394 . S
C1122 C1123 1.369 . S
C1122 C1126 1.531 . S
C1123 C1122 1.369 . S
C1123 C1124 1.410 . S
C1123 C1131 1.503 . S
C1124 C1123 1.410 . S
C1124 C1125 1.392 . S
C1124 C1127 1.511 . S
C1125 C1121 1.376 . S
C1125 C1124 1.392 . S
C1125 H1137 0.929 . S
C1126 C1122 1.531 . S
C1126 H1138 0.960 . S
C1126 H1139 0.962 . S
C1126 H1140 0.960 . S
C1127 C1124 1.511 . S
C1127 H1141 0.961 . S
C1127 H1142 0.961 . S
C1127 H1143 0.961 . S
C1128 C1129 1.370 . S
C1128 C1130 1.363 . S
C1128 H1144 0.931 . S
C1129 C1128 1.370 . S
C1129 C1133 1.408 . S
C1130 C1128 1.363 . S
C1130 C1131 1.370 . S
C1130 C1134 1.524 . S
C1131 C1123 1.503 . S
C1131 C1130 1.370 . S
C1131 C1132 1.403 . S
C1132 C1131 1.403 . S
C1132 C1133 1.404 . S
C1132 C1135 1.539 . S
C1133 C1129 1.408 . S
C1133 C1132 1.404 . S
C1133 H1145 0.930 . S
C1134 C1130 1.524 . S
C1134 H1146 0.956 . S
C1134 H1147 0.961 . S
C1134 H1148 0.961 . S
C1135 C1132 1.539 . S
C1135 H1149 0.958 . S
C1135 H1150 0.961 . S
C1135 H1151 0.960 . S
H1136 C1120 0.931 . S
H1137 C1125 0.929 . S
H1138 C1126 0.960 . S
H1139 C1126 0.962 . S
H1140 C1126 0.960 . S
H1141 C1127 0.961 . S
H1142 C1127 0.961 . S
H1143 C1127 0.961 . S
H1144 C1128 0.931 . S
H1145 C1133 0.930 . S
H1146 C1134 0.956 . S
H1147 C1134 0.961 . S
H1148 C1134 0.961 . S
H1149 C1135 0.958 . S
H1150 C1135 0.961 . S
H1151 C1135 0.960 . S
C1152 C1153 1.391 . S
C1152 C1154 1.394 . S
C1152 H1168 0.931 . S
C1153 C1152 1.391 . S
C1153 C1157 1.376 . S
C1154 C1152 1.394 . S
C1154 C1155 1.369 . S
C1154 C1158 1.531 . S
C1155 C1154 1.369 . S
C1155 C1156 1.410 . S
C1155 C1163 1.503 1_545 S
C1156 C1155 1.410 . S
C1156 C1157 1.392 . S
C1156 C1159 1.511 . S
C1157 C1153 1.376 . S
C1157 C1156 1.392 . S
C1157 H1169 0.929 . S
C1158 C1154 1.531 . S
C1158 H1170 0.960 1_545 S
C1158 H1171 0.962 1_545 S
C1158 H1172 0.960 . S
C1159 C1156 1.511 . S
C1159 H1173 0.961 . S
C1159 H1174 0.961 . S
C1159 H1175 0.961 . S
C1160 C1161 1.370 . S
C1160 C1162 1.363 . S
C1160 H1176 0.931 . S
C1161 C1160 1.370 . S
C1161 C1165 1.408 . S
C1162 C1160 1.363 . S
C1162 C1163 1.370 . S
C1162 C1166 1.524 . S
C1163 C1155 1.503 1_565 S
C1163 C1162 1.370 . S
C1163 C1164 1.403 . S
C1164 C1163 1.403 . S
C1164 C1165 1.404 . S
C1164 C1167 1.539 . S
C1165 C1161 1.408 . S
C1165 C1164 1.404 . S
C1165 H1177 0.930 . S
C1166 C1162 1.524 . S
C1166 H1178 0.956 . S
C1166 H1179 0.961 . S
C1166 H1180 0.961 . S
C1167 C1164 1.539 . S
C1167 H1181 0.958 . S
C1167 H1182 0.961 . S
C1167 H1183 0.960 1_565 S
H1168 C1152 0.931 . S
H1169 C1157 0.929 . S
H1170 C1158 0.960 1_565 S
H1171 C1158 0.962 1_565 S
H1172 C1158 0.960 . S
H1173 C1159 0.961 . S
H1174 C1159 0.961 . S
H1175 C1159 0.961 . S
H1176 C1160 0.931 . S
H1177 C1165 0.930 . S
H1178 C1166 0.956 . S
H1179 C1166 0.961 . S
H1180 C1166 0.961 . S
H1181 C1167 0.958 . S
H1182 C1167 0.961 . S
H1183 C1167 0.960 1_545 S
C1184 C1185 1.411 . S
C1184 C1186 1.386 1_565 S
C1184 H1200 0.918 1_565 S
C1185 C1184 1.411 . S
C1185 C1189 1.376 . S
C1186 C1184 1.386 1_545 S
C1186 C1187 1.369 1_545 S
C1186 C1190 1.531 . S
C1187 C1186 1.369 1_565 S
C1187 C1188 1.410 . S
C1187 C1195 1.503 1_665 S
C1188 C1187 1.410 . S
C1188 C1189 1.392 . S
C1188 C1191 1.511 1_655 S
C1189 C1185 1.376 . S
C1189 C1188 1.392 . S
C1189 H1201 0.929 . S
C1190 C1186 1.531 . S
C1190 H1202 0.960 . S
C1190 H1203 0.962 . S
C1190 H1204 0.960 . S
C1191 C1188 1.511 1_455 S
C1191 H1205 0.961 1_455 S
C1191 H1206 0.961 . S
C1191 H1207 0.961 . S
C1192 C1193 1.370 . S
C1192 C1194 1.363 . S
C1192 H1208 0.931 . S
C1193 C1192 1.370 . S
C1193 C1197 1.408 . S
C1194 C1192 1.363 . S
C1194 C1195 1.370 . S
C1194 C1198 1.524 . S
C1195 C1187 1.503 1_445 S
C1195 C1194 1.370 . S
C1195 C1196 1.403 . S
C1196 C1195 1.403 . S
C1196 C1197 1.404 . S
C1196 C1199 1.539 1_545 S
C1197 C1193 1.408 . S
C1197 C1196 1.404 . S
C1197 H1209 0.930 . S
C1198 C1194 1.524 . S
C1198 H1210 0.956 1_455 S
C1198 H1211 0.961 1_455 S
C1198 H1212 0.961 . S
C1199 C1196 1.539 1_565 S
C1199 H1213 0.960 . S
C1199 H1214 0.961 . S
C1199 H1215 0.960 . S
H1200 C1184 0.918 1_545 S
H1201 C1189 0.929 . S
H1202 C1190 0.960 . S
H1203 C1190 0.962 . S
H1204 C1190 0.960 . S
H1205 C1191 0.961 1_655 S
H1206 C1191 0.961 . S
H1207 C1191 0.961 . S
H1208 C1192 0.931 . S
H1209 C1197 0.930 . S
H1210 C1198 0.956 1_655 S
H1211 C1198 0.961 1_655 S
H1212 C1198 0.961 . S
H1213 C1199 0.960 . S
H1214 C1199 0.961 . S
H1215 C1199 0.960 . S
C1216 C1217 1.382 1_455 S
C1216 C1218 1.397 . S
C1216 H1232 0.937 . S
C1217 C1216 1.382 1_655 S
C1217 C1221 1.376 . S
C1218 C1216 1.397 . S
C1218 C1219 1.369 1_455 S
C1218 C1222 1.531 . S
C1219 C1218 1.369 1_655 S
C1219 C1220 1.410 . S
C1219 C1227 1.503 1_655 S
C1220 C1219 1.410 . S
C1220 C1221 1.392 . S
C1220 C1223 1.511 . S
C1221 C1217 1.376 . S
C1221 C1220 1.392 . S
C1221 H1233 0.929 . S
C1222 C1218 1.531 . S
C1222 H1234 0.960 . S
C1222 H1235 0.962 . S
C1222 H1236 0.960 . S
C1223 C1220 1.511 . S
C1223 H1237 0.961 . S
C1223 H1238 0.961 . S
C1223 H1239 0.961 . S
C1224 C1225 1.370 . S
C1224 C1226 1.363 . S
C1224 H1240 0.931 . S
C1225 C1224 1.370 . S
C1225 C1229 1.408 . S
C1226 C1224 1.363 . S
C1226 C1227 1.370 . S
C1226 C1230 1.524 . S
C1227 C1219 1.503 1_455 S
C1227 C1226 1.370 . S
C1227 C1228 1.403 . S
C1228 C1227 1.403 . S
C1228 C1229 1.404 . S
C1228 C1231 1.539 1_455 S
C1229 C1225 1.408 . S
C1229 C1228 1.404 . S
C1229 H1241 0.930 . S
C1230 C1226 1.524 . S
C1230 H1242 0.956 . S
C1230 H1243 0.961 1_455 S
C1230 H1244 0.961 . S
C1231 C1228 1.539 1_655 S
C1231 H1245 0.958 1_655 S
C1231 H1246 0.961 . S
C1231 H1247 0.960 . S
H1232 C1216 0.937 . S
H1233 C1221 0.929 . S
H1234 C1222 0.960 . S
H1235 C1222 0.962 . S
H1236 C1222 0.960 . S
H1237 C1223 0.961 . S
H1238 C1223 0.961 . S
H1239 C1223 0.961 . S
H1240 C1224 0.931 . S
H1241 C1229 0.930 . S
H1242 C1230 0.956 . S
H1243 C1230 0.961 1_655 S
H1244 C1230 0.961 . S
H1245 C1231 0.958 1_455 S
H1246 C1231 0.961 . S
H1247 C1231 0.960 . S
C225 C69 1.066 . S
C233 C13 1.097 . S
C257 C27 1.063 . S
C265 C83 1.092 . S
C289 C97 1.149 . S
C297 C41 1.124 . S
C321 C111 1.148 . S
C329 C55 1.127 . S
C353 C181 1.071 . S
C361 C125 1.100 . S
C385 C139 1.065 . S
C393 C195 1.091 . S
C417 C209 1.065 . S
C425 C153 1.091 . S
C449 C167 1.149 . S
C457 C223 1.124 . S
C481 C7 1.222 . S
C489 C217 1.219 . S
C513 C21 1.206 . S
C521 C175 1.214 . S
C545 C35 1.205 . S
C553 C189 1.210 . S
C577 C203 1.202 . S
C585 C49 1.210 . S
C609 C63 1.201 . S
C617 C133 1.210 . S
C641 C77 1.216 . S
C649 C147 1.215 . S
C673 C161 1.216 . S
C681 C91 1.215 . S
C705 C119 1.201 . S
C713 C105 1.210 . S
C737 C11 1.468 . S
C745 C151 1.474 . S
C769 C165 1.478 . S
C777 C25 1.471 . S
C801 C39 1.452 . S
C809 C123 1.475 . S
C833 C137 1.452 . S
C841 C53 1.475 . S
C865 C67 1.449 . S
C873 C207 1.474 . S
C897 C81 1.448 . S
C905 C221 1.473 . S
C929 C179 1.473 . S
C937 C95 1.461 . S
C961 C193 1.459 . S
C969 C109 1.462 . S
C993 C148 1.449 . S
C1001 C8 1.470 . S
C1025 C22 1.442 . S
C1033 C162 1.474 . S
C1057 C36 1.500 . S
C1065 C120 1.458 . S
C1089 C134 1.500 . S
C1097 C50 1.458 . S
C1121 C204 1.432 . S
C1129 C64 1.482 . S
C1153 C218 1.498 . S
C1161 C78 1.461 . S
C1185 C176 1.444 . S
C1193 C92 1.473 . S
C1217 C106 1.446 . S
C1225 C190 1.472 . S
