# Generated by pormake.
# Topology unu, (4)-cn, num edge types: 1
# Building blocks:
#     Node 0, Type 0, BuildingBlock: GALJAG_clean_sbu_0, # of connection points: 4
#     Node 1, Type 0, BuildingBlock: GALJAG_clean_sbu_0, # of connection points: 4
#     Node 2, Type 0, BuildingBlock: GALJAG_clean_sbu_0, # of connection points: 4
#     Node 3, Type 0, BuildingBlock: GALJAG_clean_sbu_0, # of connection points: 4
#     Node 4, Type 0, BuildingBlock: GALJAG_clean_sbu_0, # of connection points: 4
#     Node 5, Type 0, BuildingBlock: GALJAG_clean_sbu_0, # of connection points: 4
#     Node 6, Type 0, BuildingBlock: GALJAG_clean_sbu_0, # of connection points: 4
#     Node 7, Type 0, BuildingBlock: GALJAG_clean_sbu_0, # of connection points: 4
#     Node 8, Type 0, BuildingBlock: GALJAG_clean_sbu_0, # of connection points: 4
#     Node 9, Type 0, BuildingBlock: GALJAG_clean_sbu_0, # of connection points: 4
#     Node 10, Type 0, BuildingBlock: GALJAG_clean_sbu_0, # of connection points: 4
#     Node 11, Type 0, BuildingBlock: GALJAG_clean_sbu_0, # of connection points: 4
#     Node 12, Type 0, BuildingBlock: GALJAG_clean_sbu_0, # of connection points: 4
#     Node 13, Type 0, BuildingBlock: GALJAG_clean_sbu_0, # of connection points: 4
#     Node 14, Type 0, BuildingBlock: GALJAG_clean_sbu_0, # of connection points: 4
#     Node 15, Type 0, BuildingBlock: GALJAG_clean_sbu_0, # of connection points: 4
#     Node 16, Type 0, BuildingBlock: GALJAG_clean_sbu_0, # of connection points: 4
#     Node 17, Type 0, BuildingBlock: GALJAG_clean_sbu_0, # of connection points: 4
#     Node 18, Type 0, BuildingBlock: GALJAG_clean_sbu_0, # of connection points: 4
#     Node 19, Type 0, BuildingBlock: GALJAG_clean_sbu_0, # of connection points: 4
#     Node 20, Type 0, BuildingBlock: GALJAG_clean_sbu_0, # of connection points: 4
#     Node 21, Type 0, BuildingBlock: GALJAG_clean_sbu_0, # of connection points: 4
#     Node 22, Type 0, BuildingBlock: GALJAG_clean_sbu_0, # of connection points: 4
#     Node 23, Type 0, BuildingBlock: GALJAG_clean_sbu_0, # of connection points: 4
#     Node 24, Type 0, BuildingBlock: GALJAG_clean_sbu_0, # of connection points: 4
#     Node 25, Type 0, BuildingBlock: GALJAG_clean_sbu_0, # of connection points: 4
#     Node 26, Type 0, BuildingBlock: GALJAG_clean_sbu_0, # of connection points: 4
#     Node 27, Type 0, BuildingBlock: GALJAG_clean_sbu_0, # of connection points: 4
#     Node 28, Type 0, BuildingBlock: GALJAG_clean_sbu_0, # of connection points: 4
#     Node 29, Type 0, BuildingBlock: GALJAG_clean_sbu_0, # of connection points: 4
#     Node 30, Type 0, BuildingBlock: GALJAG_clean_sbu_0, # of connection points: 4
#     Node 31, Type 0, BuildingBlock: GALJAG_clean_sbu_0, # of connection points: 4
#     Node 32, Type 0, BuildingBlock: GALJAG_clean_sbu_0, # of connection points: 4
#     Node 33, Type 0, BuildingBlock: GALJAG_clean_sbu_0, # of connection points: 4
#     Node 34, Type 0, BuildingBlock: GALJAG_clean_sbu_0, # of connection points: 4
#     Node 35, Type 0, BuildingBlock: GALJAG_clean_sbu_0, # of connection points: 4
#     Edge 36, Type (0, 0), BuildingBlock: UVAHIK_clean_linker_0, # of connection points: 2
#     Edge 37, Type (0, 0), BuildingBlock: UVAHIK_clean_linker_0, # of connection points: 2
#     Edge 38, Type (0, 0), BuildingBlock: UVAHIK_clean_linker_0, # of connection points: 2
#     Edge 39, Type (0, 0), BuildingBlock: UVAHIK_clean_linker_0, # of connection points: 2
#     Edge 40, Type (0, 0), BuildingBlock: UVAHIK_clean_linker_0, # of connection points: 2
#     Edge 41, Type (0, 0), BuildingBlock: UVAHIK_clean_linker_0, # of connection points: 2
#     Edge 42, Type (0, 0), BuildingBlock: UVAHIK_clean_linker_0, # of connection points: 2
#     Edge 43, Type (0, 0), BuildingBlock: UVAHIK_clean_linker_0, # of connection points: 2
#     Edge 44, Type (0, 0), BuildingBlock: UVAHIK_clean_linker_0, # of connection points: 2
#     Edge 45, Type (0, 0), BuildingBlock: UVAHIK_clean_linker_0, # of connection points: 2
#     Edge 46, Type (0, 0), BuildingBlock: UVAHIK_clean_linker_0, # of connection points: 2
#     Edge 47, Type (0, 0), BuildingBlock: UVAHIK_clean_linker_0, # of connection points: 2
#     Edge 48, Type (0, 0), BuildingBlock: UVAHIK_clean_linker_0, # of connection points: 2
#     Edge 49, Type (0, 0), BuildingBlock: UVAHIK_clean_linker_0, # of connection points: 2
#     Edge 50, Type (0, 0), BuildingBlock: UVAHIK_clean_linker_0, # of connection points: 2
#     Edge 51, Type (0, 0), BuildingBlock: UVAHIK_clean_linker_0, # of connection points: 2
#     Edge 52, Type (0, 0), BuildingBlock: UVAHIK_clean_linker_0, # of connection points: 2
#     Edge 53, Type (0, 0), BuildingBlock: UVAHIK_clean_linker_0, # of connection points: 2
#     Edge 54, Type (0, 0), BuildingBlock: UVAHIK_clean_linker_0, # of connection points: 2
#     Edge 55, Type (0, 0), BuildingBlock: UVAHIK_clean_linker_0, # of connection points: 2
#     Edge 56, Type (0, 0), BuildingBlock: UVAHIK_clean_linker_0, # of connection points: 2
#     Edge 57, Type (0, 0), BuildingBlock: UVAHIK_clean_linker_0, # of connection points: 2
#     Edge 58, Type (0, 0), BuildingBlock: UVAHIK_clean_linker_0, # of connection points: 2
#     Edge 59, Type (0, 0), BuildingBlock: UVAHIK_clean_linker_0, # of connection points: 2
#     Edge 60, Type (0, 0), BuildingBlock: UVAHIK_clean_linker_0, # of connection points: 2
#     Edge 61, Type (0, 0), BuildingBlock: UVAHIK_clean_linker_0, # of connection points: 2
#     Edge 62, Type (0, 0), BuildingBlock: UVAHIK_clean_linker_0, # of connection points: 2
#     Edge 63, Type (0, 0), BuildingBlock: UVAHIK_clean_linker_0, # of connection points: 2
#     Edge 64, Type (0, 0), BuildingBlock: UVAHIK_clean_linker_0, # of connection points: 2
#     Edge 65, Type (0, 0), BuildingBlock: UVAHIK_clean_linker_0, # of connection points: 2
#     Edge 66, Type (0, 0), BuildingBlock: UVAHIK_clean_linker_0, # of connection points: 2
#     Edge 67, Type (0, 0), BuildingBlock: UVAHIK_clean_linker_0, # of connection points: 2
#     Edge 68, Type (0, 0), BuildingBlock: UVAHIK_clean_linker_0, # of connection points: 2
#     Edge 69, Type (0, 0), BuildingBlock: UVAHIK_clean_linker_0, # of connection points: 2
#     Edge 70, Type (0, 0), BuildingBlock: UVAHIK_clean_linker_0, # of connection points: 2
#     Edge 71, Type (0, 0), BuildingBlock: UVAHIK_clean_linker_0, # of connection points: 2
#     Edge 72, Type (0, 0), BuildingBlock: UVAHIK_clean_linker_0, # of connection points: 2
#     Edge 73, Type (0, 0), BuildingBlock: UVAHIK_clean_linker_0, # of connection points: 2
#     Edge 74, Type (0, 0), BuildingBlock: UVAHIK_clean_linker_0, # of connection points: 2
#     Edge 75, Type (0, 0), BuildingBlock: UVAHIK_clean_linker_0, # of connection points: 2
#     Edge 76, Type (0, 0), BuildingBlock: UVAHIK_clean_linker_0, # of connection points: 2
#     Edge 77, Type (0, 0), BuildingBlock: UVAHIK_clean_linker_0, # of connection points: 2
#     Edge 78, Type (0, 0), BuildingBlock: UVAHIK_clean_linker_0, # of connection points: 2
#     Edge 79, Type (0, 0), BuildingBlock: UVAHIK_clean_linker_0, # of connection points: 2
#     Edge 80, Type (0, 0), BuildingBlock: UVAHIK_clean_linker_0, # of connection points: 2
#     Edge 81, Type (0, 0), BuildingBlock: UVAHIK_clean_linker_0, # of connection points: 2
#     Edge 82, Type (0, 0), BuildingBlock: UVAHIK_clean_linker_0, # of connection points: 2
#     Edge 83, Type (0, 0), BuildingBlock: UVAHIK_clean_linker_0, # of connection points: 2
#     Edge 84, Type (0, 0), BuildingBlock: UVAHIK_clean_linker_0, # of connection points: 2
#     Edge 85, Type (0, 0), BuildingBlock: UVAHIK_clean_linker_0, # of connection points: 2
#     Edge 86, Type (0, 0), BuildingBlock: UVAHIK_clean_linker_0, # of connection points: 2
#     Edge 87, Type (0, 0), BuildingBlock: UVAHIK_clean_linker_0, # of connection points: 2
#     Edge 88, Type (0, 0), BuildingBlock: UVAHIK_clean_linker_0, # of connection points: 2
#     Edge 89, Type (0, 0), BuildingBlock: UVAHIK_clean_linker_0, # of connection points: 2
#     Edge 90, Type (0, 0), BuildingBlock: UVAHIK_clean_linker_0, # of connection points: 2
#     Edge 91, Type (0, 0), BuildingBlock: UVAHIK_clean_linker_0, # of connection points: 2
#     Edge 92, Type (0, 0), BuildingBlock: UVAHIK_clean_linker_0, # of connection points: 2
#     Edge 93, Type (0, 0), BuildingBlock: UVAHIK_clean_linker_0, # of connection points: 2
#     Edge 94, Type (0, 0), BuildingBlock: UVAHIK_clean_linker_0, # of connection points: 2
#     Edge 95, Type (0, 0), BuildingBlock: UVAHIK_clean_linker_0, # of connection points: 2
#     Edge 96, Type (0, 0), BuildingBlock: UVAHIK_clean_linker_0, # of connection points: 2
#     Edge 97, Type (0, 0), BuildingBlock: UVAHIK_clean_linker_0, # of connection points: 2
#     Edge 98, Type (0, 0), BuildingBlock: UVAHIK_clean_linker_0, # of connection points: 2
#     Edge 99, Type (0, 0), BuildingBlock: UVAHIK_clean_linker_0, # of connection points: 2
#     Edge 100, Type (0, 0), BuildingBlock: UVAHIK_clean_linker_0, # of connection points: 2
#     Edge 101, Type (0, 0), BuildingBlock: UVAHIK_clean_linker_0, # of connection points: 2
#     Edge 102, Type (0, 0), BuildingBlock: UVAHIK_clean_linker_0, # of connection points: 2
#     Edge 103, Type (0, 0), BuildingBlock: UVAHIK_clean_linker_0, # of connection points: 2
#     Edge 104, Type (0, 0), BuildingBlock: UVAHIK_clean_linker_0, # of connection points: 2
#     Edge 105, Type (0, 0), BuildingBlock: UVAHIK_clean_linker_0, # of connection points: 2
#     Edge 106, Type (0, 0), BuildingBlock: UVAHIK_clean_linker_0, # of connection points: 2
#     Edge 107, Type (0, 0), BuildingBlock: UVAHIK_clean_linker_0, # of connection points: 2
# Relax obj value: 0.103
# Max RMSD: 0.228
# Mean RMSD: 0.228
data_MOF--net-unu--node1-GALJAG_clean_sbu_0--edge1-UVAHIK_clean_linker_0
_symmetry_space_group_name_H-M    P1
_symmetry_Int_Tables_number       1
_symmetry_cell_setting            triclinic
loop_
_symmetry_equiv_pos_as_xyz
'x, y, z'
_cell_length_a     59.106239
_cell_length_b     59.144963
_cell_length_c     90.273598
_cell_angle_alpha  90.00352
_cell_angle_beta   90.018292
_cell_angle_gamma 120.01072
loop_
_atom_site_label
_atom_site_type_symbol
_atom_site_fract_x
_atom_site_fract_y
_atom_site_fract_z
_atom_type_partial_charge
In0 In 0.20549 0.05716 0.09021 0.0
O1 O 0.2375 0.05777 0.07532 0.0
O2 O 0.21793 0.02735 0.09131 0.0
C3 C 0.18883 0.08997 0.08237 0.0
C4 C 0.23772 0.08581 0.11199 0.0
C5 C 0.15897 0.01361 0.08801 0.0
O6 O 0.199 0.08186 0.07287 0.0
O7 O 0.18767 0.08174 0.0954 0.0
O8 O 0.16999 0.02234 0.10043 0.0
O9 O 0.17141 0.02704 0.07686 0.0
C10 C 0.2353 0.03744 0.08146 0.0
O11 O 0.2158 0.06572 0.1147 0.0
O12 O 0.24298 0.09112 0.09843 0.0
In13 In 0.94079 0.14711 0.08778 0.0
O14 O 0.93468 0.17292 0.07107 0.0
O15 O 0.96849 0.18981 0.08506 0.0
C16 C 0.90903 0.0958 0.08382 0.0
C17 C 0.91485 0.1545 0.10972 0.0
C18 C 0.98541 0.14646 0.08427 0.0
O19 O 0.91481 0.11166 0.0731 0.0
O20 O 0.91893 0.10606 0.09614 0.0
O21 O 0.97835 0.15037 0.09684 0.0
O22 O 0.96987 0.14282 0.07371 0.0
C23 C 0.95542 0.19324 0.07518 0.0
O24 O 0.93595 0.15437 0.11215 0.0
O25 O 0.90727 0.15082 0.0964 0.0
In26 In 0.84823 0.78511 0.08646 0.0
O27 O 0.82175 0.75401 0.06949 0.0
O28 O 0.80604 0.7725 0.08302 0.0
C29 C 0.89892 0.80283 0.08084 0.0
C30 C 0.84028 0.751 0.10813 0.0
C31 C 0.8511 0.83179 0.08605 0.0
O32 O 0.88233 0.79534 0.07042 0.0
O33 O 0.88966 0.80072 0.09367 0.0
O34 O 0.84654 0.81865 0.09788 0.0
O35 O 0.85422 0.8213 0.07462 0.0
C36 C 0.802 0.75575 0.0732 0.0
O37 O 0.84154 0.77267 0.11078 0.0
O38 O 0.84291 0.74687 0.09468 0.0
In39 In 0.06309 0.21104 0.41287 0.0
O40 O 0.06973 0.24236 0.43015 0.0
O41 O 0.03462 0.22474 0.4173 0.0
C42 C 0.09577 0.19245 0.41682 0.0
C43 C 0.08766 0.24507 0.39093 0.0
C44 C 0.01868 0.16512 0.41498 0.0
O45 O 0.08855 0.20097 0.42766 0.0
O46 O 0.08691 0.19393 0.40437 0.0
O47 O 0.02619 0.17731 0.40277 0.0
O48 O 0.03369 0.17613 0.42586 0.0
C49 C 0.04827 0.24122 0.42704 0.0
O50 O 0.06694 0.2235 0.38858 0.0
O51 O 0.09555 0.24905 0.40419 0.0
In52 In 0.78783 0.85416 0.41104 0.0
O53 O 0.77484 0.84716 0.3868 0.0
O54 O 0.75037 0.85095 0.40281 0.0
C55 C 0.83322 0.85424 0.4113 0.0
C56 C 0.75746 0.80899 0.42508 0.0
C57 C 0.80827 0.90526 0.41673 0.0
O58 O 0.81997 0.85005 0.39953 0.0
O59 O 0.82352 0.85842 0.42273 0.0
O60 O 0.79879 0.88842 0.427 0.0
O61 O 0.80676 0.89608 0.40393 0.0
C62 C 0.75389 0.84738 0.38942 0.0
O63 O 0.75683 0.82943 0.42849 0.0
O64 O 0.77344 0.8117 0.41506 0.0
In65 In 0.14579 0.93671 0.40954 0.0
O66 O 0.15484 0.93324 0.38527 0.0
O67 O 0.15165 0.90447 0.40074 0.0
C68 C 0.14506 0.98163 0.41071 0.0
C69 C 0.18995 0.95048 0.42452 0.0
C70 C 0.09433 0.9045 0.41347 0.0
O71 O 0.15045 0.97378 0.39887 0.0
O72 O 0.13996 0.9667 0.42176 0.0
O73 O 0.11003 0.91199 0.42433 0.0
O74 O 0.1048 0.91282 0.401 0.0
C75 C 0.15578 0.91257 0.38754 0.0
O76 O 0.16949 0.92877 0.42691 0.0
O77 O 0.1876 0.96494 0.41515 0.0
In78 In 0.79286 0.94505 0.90858 0.0
O79 O 0.76555 0.94552 0.92689 0.0
O80 O 0.75732 0.94848 0.90431 0.0
C81 C 0.81755 0.92471 0.92435 0.0
C82 C 0.77297 0.91437 0.88467 0.0
C83 C 0.83286 0.99361 0.90378 0.0
O84 O 0.82525 0.94872 0.92384 0.0
O85 O 0.79596 0.91059 0.91801 0.0
O86 O 0.82931 0.97434 0.89594 0.0
O87 O 0.81549 0.98846 0.91343 0.0
C88 C 0.75067 0.94757 0.91759 0.0
O89 O 0.787 0.93895 0.88356 0.0
O90 O 0.77052 0.90557 0.89766 0.0
In91 In 0.05713 0.85223 0.90747 0.0
O92 O 0.05395 0.81893 0.92222 0.0
O93 O 0.03631 0.81005 0.90086 0.0
C94 C 0.08397 0.89226 0.92648 0.0
C95 C 0.08896 0.85807 0.88487 0.0
C96 C 0.01529 0.85827 0.90362 0.0
O97 O 0.06142 0.87367 0.92948 0.0
O98 O 0.09343 0.88942 0.91462 0.0
O99 O 0.03713 0.87357 0.89774 0.0
O100 O 0.01444 0.83955 0.91074 0.0
C101 C 0.0412 0.80166 0.91254 0.0
O102 O 0.06752 0.85762 0.88281 0.0
O103 O 0.09422 0.85621 0.89821 0.0
In104 In 0.14606 0.19764 0.909 0.0
O105 O 0.14719 0.20788 0.88457 0.0
O106 O 0.14946 0.23502 0.90116 0.0
C107 C 0.14146 0.15131 0.91492 0.0
C108 C 0.19687 0.22733 0.91473 0.0
C109 C 0.09685 0.18349 0.91547 0.0
O110 O 0.14167 0.15884 0.9017 0.0
O111 O 0.14361 0.16725 0.92495 0.0
O112 O 0.11463 0.19435 0.92525 0.0
O113 O 0.10412 0.17986 0.90297 0.0
C114 C 0.14909 0.22982 0.88752 0.0
O115 O 0.18001 0.22948 0.92244 0.0
O116 O 0.18775 0.20984 0.90485 0.0
In117 In 0.93771 0.79194 0.59058 0.0
O118 O 0.93919 0.7629 0.57417 0.0
O119 O 0.95505 0.76708 0.59599 0.0
C120 C 0.90908 0.81268 0.58129 0.0
C121 C 0.90423 0.76149 0.61128 0.0
C122 C 0.98501 0.8352 0.59016 0.0
O123 O 0.91636 0.80116 0.57223 0.0
O124 O 0.91625 0.81342 0.59452 0.0
O125 O 0.97265 0.82578 0.60212 0.0
O126 O 0.97355 0.82264 0.57862 0.0
C127 C 0.95005 0.75555 0.58367 0.0
O128 O 0.92594 0.78142 0.61458 0.0
O129 O 0.89943 0.75742 0.59756 0.0
In130 In 0.20873 0.15122 0.5923 0.0
O131 O 0.23948 0.17186 0.57409 0.0
O132 O 0.22554 0.1934 0.58634 0.0
C133 C 0.18666 0.09929 0.58963 0.0
C134 C 0.24344 0.16054 0.61392 0.0
C135 C 0.16473 0.15354 0.58982 0.0
O136 O 0.19779 0.11436 0.57874 0.0
O137 O 0.18713 0.11058 0.60158 0.0
O138 O 0.17741 0.15885 0.60188 0.0
O139 O 0.17429 0.14703 0.57923 0.0
C140 C 0.2407 0.19355 0.57648 0.0
O141 O 0.22292 0.16172 0.61632 0.0
O142 O 0.24589 0.15449 0.60086 0.0
In143 In 0.85637 0.06673 0.58444 0.0
O144 O 0.84908 0.06898 0.60912 0.0
O145 O 0.84635 0.09557 0.59419 0.0
C146 C 0.86258 0.02497 0.58277 0.0
C147 C 0.80968 0.04771 0.57121 0.0
C148 C 0.90634 0.10326 0.57949 0.0
O149 O 0.85618 0.03153 0.59474 0.0
O150 O 0.86612 0.03972 0.57182 0.0
O151 O 0.89021 0.09352 0.56888 0.0
O152 O 0.89692 0.09503 0.59218 0.0
C153 C 0.84472 0.08774 0.60737 0.0
O154 O 0.82794 0.07073 0.56855 0.0
O155 O 0.81563 0.03468 0.57976 0.0
In156 In 0.87107 0.38663 0.42122 0.0
O157 O 0.90345 0.38397 0.40862 0.0
O158 O 0.8836 0.35763 0.4265 0.0
C159 C 0.85752 0.41907 0.40861 0.0
C160 C 0.90273 0.41804 0.4424 0.0
C161 C 0.82364 0.34395 0.41946 0.0
O162 O 0.86594 0.40696 0.40082 0.0
O163 O 0.85657 0.41501 0.42236 0.0
O164 O 0.83214 0.35655 0.43149 0.0
O165 O 0.83912 0.35295 0.40859 0.0
C166 C 0.90134 0.36555 0.41681 0.0
O167 O 0.88077 0.39827 0.44553 0.0
O168 O 0.90804 0.42182 0.42875 0.0
In169 In 0.62082 0.48736 0.42625 0.0
O170 O 0.61064 0.48822 0.45052 0.0
O171 O 0.58486 0.48762 0.43353 0.0
C172 C 0.66411 0.48553 0.42052 0.0
C173 C 0.63973 0.53793 0.42109 0.0
C174 C 0.58858 0.43766 0.41916 0.0
O175 O 0.65539 0.48333 0.43363 0.0
O176 O 0.6511 0.48897 0.41051 0.0
O177 O 0.59392 0.45569 0.40974 0.0
O178 O 0.59955 0.44511 0.43164 0.0
C179 C 0.5897 0.48824 0.44723 0.0
O180 O 0.62193 0.52077 0.41285 0.0
O181 O 0.64809 0.52925 0.43124 0.0
In182 In 0.51135 0.12571 0.42304 0.0
O183 O 0.47813 0.09323 0.40935 0.0
O184 O 0.46925 0.11275 0.4264 0.0
C185 C 0.55977 0.14151 0.4135 0.0
C186 C 0.50982 0.09401 0.44452 0.0
C187 C 0.51479 0.17234 0.42021 0.0
O188 O 0.54067 0.13219 0.40451 0.0
O189 O 0.5541 0.14221 0.4269 0.0
O190 O 0.51471 0.16282 0.43283 0.0
O191 O 0.5131 0.15824 0.40925 0.0
C192 C 0.46075 0.09511 0.41664 0.0
O193 O 0.51197 0.11603 0.44744 0.0
O194 O 0.50874 0.08855 0.4309 0.0
In195 In 0.71946 0.53682 0.74144 0.0
O196 O 0.727 0.54777 0.71709 0.0
O197 O 0.75432 0.57346 0.73334 0.0
C198 C 0.67527 0.4918 0.74582 0.0
C199 C 0.70277 0.56924 0.74965 0.0
C200 C 0.75175 0.5184 0.74629 0.0
O201 O 0.68247 0.5016 0.733 0.0
O202 O 0.69045 0.50477 0.75631 0.0
O203 O 0.74658 0.52978 0.75661 0.0
O204 O 0.74073 0.51671 0.73402 0.0
C205 C 0.74791 0.56905 0.71981 0.0
O206 O 0.7203 0.56787 0.75714 0.0
O207 O 0.69352 0.55359 0.73889 0.0
In208 In 0.46661 0.18301 0.74062 0.0
O209 O 0.45654 0.18599 0.71655 0.0
O210 O 0.43036 0.18336 0.7338 0.0
C211 C 0.51272 0.1852 0.74388 0.0
C212 C 0.43443 0.132 0.74441 0.0
C213 C 0.48104 0.23019 0.7514 0.0
O214 O 0.50513 0.18877 0.73139 0.0
O215 O 0.49697 0.18044 0.75447 0.0
O216 O 0.47 0.21024 0.75974 0.0
O217 O 0.48481 0.22599 0.73817 0.0
C218 C 0.4353 0.18517 0.72007 0.0
O219 O 0.43565 0.14843 0.75392 0.0
O220 O 0.45002 0.14153 0.73362 0.0
In221 In 0.82137 0.27497 0.74258 0.0
O222 O 0.85536 0.27669 0.75605 0.0
O223 O 0.86333 0.30456 0.73887 0.0
C224 C 0.77396 0.24277 0.75376 0.0
C225 C 0.82152 0.24367 0.72132 0.0
C226 C 0.81699 0.31786 0.74343 0.0
O227 O 0.79366 0.25457 0.76222 0.0
O228 O 0.77858 0.24694 0.74011 0.0
O229 O 0.81726 0.3072 0.73128 0.0
O230 O 0.81892 0.30679 0.75495 0.0
C231 C 0.87235 0.29593 0.7486 0.0
O232 O 0.81872 0.26311 0.71835 0.0
O233 O 0.82413 0.24031 0.73491 0.0
In234 In 0.45455 0.27177 0.24599 0.0
O235 O 0.42282 0.26629 0.2627 0.0
O236 O 0.44055 0.30031 0.24896 0.0
C237 C 0.47301 0.23929 0.25103 0.0
C238 C 0.42108 0.24587 0.22405 0.0
C239 C 0.50062 0.31607 0.24793 0.0
O240 O 0.46436 0.24702 0.26158 0.0
O241 O 0.47173 0.24759 0.23837 0.0
O242 O 0.48884 0.30786 0.23565 0.0
O243 O 0.48908 0.30185 0.25901 0.0
C244 C 0.42385 0.28737 0.25876 0.0
O245 O 0.44257 0.26662 0.22159 0.0
O246 O 0.41688 0.23862 0.23742 0.0
In247 In 0.72626 0.18483 0.24219 0.0
O248 O 0.73538 0.18334 0.21777 0.0
O249 O 0.76068 0.18187 0.23425 0.0
C250 C 0.68266 0.18774 0.2443 0.0
C251 C 0.70645 0.13508 0.25047 0.0
C252 C 0.75889 0.23424 0.25019 0.0
O253 O 0.69168 0.1859 0.23189 0.0
O254 O 0.6958 0.18826 0.2555 0.0
O255 O 0.75076 0.21589 0.25965 0.0
O256 O 0.75076 0.22727 0.23713 0.0
C257 C 0.75558 0.18177 0.22064 0.0
O258 O 0.72639 0.15311 0.25698 0.0
O259 O 0.69674 0.14256 0.2405 0.0
In260 In 0.81509 0.53853 0.24341 0.0
O261 O 0.82058 0.54924 0.21879 0.0
O262 O 0.81768 0.57501 0.2343 0.0
C263 C 0.81497 0.49362 0.24735 0.0
C264 C 0.86171 0.57081 0.25534 0.0
C265 C 0.76402 0.51888 0.24851 0.0
O266 O 0.81836 0.50408 0.23466 0.0
O267 O 0.81162 0.50586 0.25782 0.0
O268 O 0.78075 0.53042 0.25868 0.0
O269 O 0.7733 0.51781 0.23611 0.0
C270 C 0.82048 0.57039 0.22097 0.0
O271 O 0.84142 0.57105 0.25968 0.0
O272 O 0.8581 0.5542 0.2455 0.0
In273 In 0.60857 0.12824 0.92794 0.0
O274 O 0.59689 0.11795 0.95205 0.0
O275 O 0.57139 0.09289 0.93489 0.0
C276 C 0.65362 0.17154 0.92202 0.0
C277 C 0.625 0.09441 0.92346 0.0
C278 C 0.57849 0.14808 0.92069 0.0
O279 O 0.64551 0.16504 0.93523 0.0
O280 O 0.63899 0.15606 0.91205 0.0
O281 O 0.58308 0.13482 0.9113 0.0
O282 O 0.58913 0.15108 0.93324 0.0
C283 C 0.57569 0.09735 0.94863 0.0
O284 O 0.60928 0.09591 0.91439 0.0
O285 O 0.63258 0.11045 0.93412 0.0
In286 In 0.86432 0.47809 0.92799 0.0
O287 O 0.86952 0.47154 0.9524 0.0
O288 O 0.89118 0.46399 0.9362 0.0
C289 C 0.82528 0.48886 0.92769 0.0
C290 C 0.90468 0.52619 0.92324 0.0
C291 C 0.84003 0.43273 0.91319 0.0
O292 O 0.83004 0.47902 0.9389 0.0
O293 O 0.84068 0.49386 0.91689 0.0
O294 O 0.82999 0.4383 0.92387 0.0
O295 O 0.8629 0.45029 0.90963 0.0
C296 C 0.88642 0.46486 0.94975 0.0
O297 O 0.89434 0.51011 0.91265 0.0
O298 O 0.8945 0.51789 0.93577 0.0
In299 In 0.51613 0.3962 0.91853 0.0
O300 O 0.50934 0.40024 0.94309 0.0
O301 O 0.50691 0.42612 0.9275 0.0
C302 C 0.52144 0.35377 0.91844 0.0
C303 C 0.47002 0.37794 0.90469 0.0
C304 C 0.56609 0.43199 0.91268 0.0
O305 O 0.51541 0.36155 0.93008 0.0
O306 O 0.52503 0.36761 0.90706 0.0
O307 O 0.5498 0.42054 0.90233 0.0
O308 O 0.55695 0.42574 0.92558 0.0
C309 C 0.50547 0.4192 0.94086 0.0
O310 O 0.48892 0.40054 0.90192 0.0
O311 O 0.47488 0.36484 0.91381 0.0
In312 In 0.53813 0.72239 0.76509 0.0
O313 O 0.56826 0.72395 0.74833 0.0
O314 O 0.5697 0.71368 0.77089 0.0
C315 C 0.51099 0.74378 0.75429 0.0
C316 C 0.56249 0.75574 0.78734 0.0
C317 C 0.50042 0.67225 0.76259 0.0
O318 O 0.50361 0.72838 0.76519 0.0
O319 O 0.53265 0.74886 0.74859 0.0
O320 O 0.50621 0.68406 0.77494 0.0
O321 O 0.51415 0.68561 0.75176 0.0
C322 C 0.57962 0.71779 0.75813 0.0
O323 O 0.54654 0.73174 0.78967 0.0
O324 O 0.5648 0.76278 0.77395 0.0
In325 In 0.2717 0.81158 0.75681 0.0
O326 O 0.26309 0.81602 0.78083 0.0
O327 O 0.23421 0.80888 0.76426 0.0
C328 C 0.31885 0.81601 0.75356 0.0
C329 C 0.2823 0.85843 0.74736 0.0
C330 C 0.24266 0.76038 0.75172 0.0
O331 O 0.30947 0.81562 0.76625 0.0
O332 O 0.30453 0.81446 0.74277 0.0
O333 O 0.24678 0.77676 0.7415 0.0
O334 O 0.25309 0.77003 0.76406 0.0
C335 C 0.24085 0.81324 0.77776 0.0
O336 O 0.26978 0.83853 0.73912 0.0
O337 O 0.28986 0.85448 0.75966 0.0
In338 In 0.18877 0.45272 0.75586 0.0
O339 O 0.17885 0.43932 0.77995 0.0
O340 O 0.18249 0.41426 0.76429 0.0
C341 C 0.19036 0.49869 0.75436 0.0
C342 C 0.14435 0.4234 0.74089 0.0
C343 C 0.2403 0.47138 0.75288 0.0
O344 O 0.1847 0.48555 0.76625 0.0
O345 O 0.1953 0.48859 0.74337 0.0
O346 O 0.22498 0.46194 0.74188 0.0
O347 O 0.2294 0.47086 0.76498 0.0
C348 C 0.1779 0.41776 0.77748 0.0
O349 O 0.1647 0.42215 0.73806 0.0
O350 O 0.14695 0.43969 0.75069 0.0
In351 In 0.38739 0.87283 0.0784 0.0
O352 O 0.39227 0.88563 0.05411 0.0
O353 O 0.4205 0.91073 0.06997 0.0
C354 C 0.34319 0.82644 0.079 0.0
C355 C 0.37171 0.90284 0.09207 0.0
C356 C 0.41999 0.85465 0.08401 0.0
O357 O 0.35177 0.83948 0.06713 0.0
O358 O 0.35697 0.83691 0.09039 0.0
O359 O 0.41193 0.86342 0.09432 0.0
O360 O 0.41198 0.85571 0.07123 0.0
C361 C 0.413 0.90706 0.05665 0.0
O362 O 0.39326 0.90435 0.09536 0.0
O363 O 0.35824 0.88584 0.08252 0.0
In364 In 0.12062 0.51161 0.07466 0.0
O365 O 0.09043 0.48253 0.09124 0.0
O366 O 0.10873 0.46952 0.07561 0.0
C367 C 0.13829 0.56225 0.07974 0.0
C368 C 0.08467 0.50328 0.05416 0.0
C369 C 0.16753 0.51543 0.07644 0.0
O370 O 0.12941 0.54576 0.09025 0.0
O371 O 0.13755 0.55288 0.06706 0.0
O372 O 0.15567 0.51168 0.06416 0.0
O373 O 0.15565 0.51731 0.08762 0.0
C374 C 0.09224 0.46364 0.08587 0.0
O375 O 0.10598 0.50423 0.05074 0.0
O376 O 0.08213 0.50696 0.06771 0.0
In377 In 0.48066 0.60771 0.0752 0.0
O378 O 0.48266 0.59919 0.05076 0.0
O379 O 0.48435 0.57385 0.06717 0.0
C380 C 0.47794 0.65112 0.07878 0.0
C381 C 0.5303 0.62716 0.08346 0.0
C382 C 0.4307 0.57457 0.08171 0.0
O383 O 0.47979 0.6431 0.06603 0.0
O384 O 0.47732 0.63706 0.08953 0.0
O385 O 0.44816 0.58201 0.0917 0.0
O386 O 0.43877 0.58372 0.06893 0.0
C387 C 0.48448 0.57911 0.05357 0.0
O388 O 0.51219 0.60724 0.08996 0.0
O389 O 0.52295 0.63702 0.07349 0.0
In390 In 0.132 0.61161 0.56894 0.0
O391 O 0.10179 0.61453 0.58344 0.0
O392 O 0.11439 0.63606 0.56309 0.0
C393 C 0.14834 0.57928 0.57807 0.0
C394 C 0.09969 0.57973 0.54819 0.0
C395 C 0.17737 0.65615 0.57247 0.0
O396 O 0.13624 0.58637 0.58686 0.0
O397 O 0.15195 0.58864 0.56515 0.0
O398 O 0.16989 0.64543 0.55987 0.0
O399 O 0.1619 0.64438 0.58306 0.0
C400 C 0.09963 0.62972 0.57429 0.0
O401 O 0.12088 0.60026 0.54478 0.0
O402 O 0.09547 0.57543 0.56193 0.0
In403 In 0.38557 0.51225 0.57111 0.0
O404 O 0.38525 0.4801 0.58547 0.0
O405 O 0.35904 0.4701 0.56694 0.0
C406 C 0.41528 0.56298 0.57658 0.0
C407 C 0.41768 0.51125 0.55086 0.0
C408 C 0.34093 0.51157 0.57643 0.0
O409 O 0.4116 0.54619 0.58653 0.0
O410 O 0.40408 0.55382 0.5643 0.0
O411 O 0.34845 0.51094 0.56331 0.0
O412 O 0.35604 0.51252 0.58669 0.0
C413 C 0.36753 0.46229 0.57747 0.0
O414 O 0.39671 0.51087 0.54715 0.0
O415 O 0.42216 0.51245 0.56465 0.0
In416 In 0.48595 0.87577 0.57573 0.0
O417 O 0.48718 0.88631 0.5513 0.0
O418 O 0.49056 0.91382 0.56783 0.0
C419 C 0.48098 0.82826 0.57703 0.0
C420 C 0.53578 0.90474 0.5843 0.0
C421 C 0.43754 0.86086 0.58519 0.0
O422 O 0.48218 0.83924 0.56474 0.0
O423 O 0.4822 0.8413 0.58839 0.0
O424 O 0.45632 0.86828 0.59428 0.0
O425 O 0.44352 0.86166 0.57173 0.0
C426 C 0.48997 0.90858 0.5542 0.0
O427 O 0.51791 0.90723 0.59054 0.0
O428 O 0.52817 0.88748 0.57436 0.0
In429 In 0.27425 0.45951 0.25634 0.0
O430 O 0.27366 0.42681 0.24215 0.0
O431 O 0.30316 0.4461 0.25872 0.0
C432 C 0.24221 0.47693 0.24821 0.0
C433 C 0.24493 0.42835 0.27827 0.0
C434 C 0.31813 0.50538 0.25295 0.0
O435 O 0.24946 0.46571 0.23889 0.0
O436 O 0.25086 0.4787 0.2612 0.0
O437 O 0.30932 0.49592 0.26567 0.0
O438 O 0.30468 0.49164 0.24212 0.0
C439 C 0.29337 0.42862 0.2489 0.0
O440 O 0.26548 0.44999 0.28086 0.0
O441 O 0.23948 0.42287 0.26472 0.0
In442 In 0.5408 0.81858 0.2534 0.0
O443 O 0.57344 0.84388 0.23689 0.0
O444 O 0.55589 0.86125 0.24985 0.0
C445 C 0.52121 0.76751 0.24824 0.0
C446 C 0.57287 0.82472 0.27594 0.0
C447 C 0.49546 0.81825 0.25097 0.0
O448 O 0.53168 0.78416 0.23792 0.0
O449 O 0.52118 0.77688 0.26078 0.0
O450 O 0.50762 0.82291 0.26319 0.0
O451 O 0.50624 0.81377 0.24016 0.0
C452 C 0.57284 0.86433 0.24038 0.0
O453 O 0.55172 0.82488 0.278 0.0
O454 O 0.57745 0.82157 0.26268 0.0
In455 In 0.18417 0.72491 0.2539 0.0
O456 O 0.15159 0.72422 0.23957 0.0
O457 O 0.14209 0.69532 0.25643 0.0
C458 C 0.23349 0.75883 0.24654 0.0
C459 C 0.18103 0.75387 0.27558 0.0
C460 C 0.18784 0.68201 0.25016 0.0
O461 O 0.21546 0.75075 0.23686 0.0
O462 O 0.22631 0.74984 0.25944 0.0
O463 O 0.18613 0.68999 0.26295 0.0
O464 O 0.18788 0.69585 0.23946 0.0
C465 C 0.13398 0.70452 0.24648 0.0
O466 O 0.18311 0.73393 0.27838 0.0
O467 O 0.18054 0.75879 0.26199 0.0
C468 C 0.25032 0.09608 0.13871 0.0
C469 C 0.25608 0.10224 0.12366 0.0
C470 C 0.268 0.1119 0.14961 0.0
C471 C 0.32361 0.17833 0.15582 0.0
H472 H 0.33847 0.14638 0.18909 0.0
C473 C 0.40771 0.23741 0.19732 0.0
C474 C 0.40219 0.23056 0.21232 0.0
C475 C 0.38983 0.2221 0.18636 0.0
C476 C 0.33433 0.15561 0.17995 0.0
H477 H 0.2848 0.12968 0.10819 0.0
H478 H 0.3156 0.15705 0.12715 0.0
H479 H 0.30682 0.11879 0.17045 0.0
H480 H 0.3735 0.20267 0.22763 0.0
H481 H 0.34234 0.1763 0.20861 0.0
H482 H 0.35112 0.21517 0.16533 0.0
C483 C 0.29736 0.14025 0.13057 0.0
C484 C 0.31618 0.13979 0.16929 0.0
C485 C 0.27977 0.12446 0.11971 0.0
C486 C 0.3784 0.20838 0.21616 0.0
C487 C 0.36059 0.19315 0.20525 0.0
C488 C 0.34176 0.19416 0.1665 0.0
C489 C 0.29169 0.13418 0.14564 0.0
C490 C 0.31062 0.15098 0.15711 0.0
C491 C 0.36615 0.19968 0.19022 0.0
C492 C 0.34728 0.18297 0.17869 0.0
H493 H 0.23218 0.07909 0.14206 0.0
H494 H 0.263 0.10686 0.16115 0.0
H495 H 0.31949 0.18753 0.14665 0.0
H496 H 0.42593 0.25439 0.19406 0.0
H497 H 0.39475 0.22751 0.17485 0.0
C498 C 0.79472 0.17902 0.21321 0.0
C499 C 0.77225 0.17991 0.2091 0.0
C500 C 0.81056 0.17697 0.20248 0.0
C501 C 0.80955 0.15547 0.16423 0.0
H502 H 0.88503 0.19645 0.16764 0.0
C503 C 0.87719 0.15945 0.1175 0.0
C504 C 0.89963 0.15835 0.12139 0.0
C505 C 0.86215 0.1625 0.12833 0.0
C506 C 0.864 0.18465 0.16664 0.0
H507 H 0.74876 0.1795 0.19055 0.0
H508 H 0.77659 0.17599 0.1717 0.0
H509 H 0.85766 0.20143 0.18609 0.0
H510 H 0.92412 0.15984 0.13967 0.0
H511 H 0.89755 0.16495 0.15875 0.0
H512 H 0.81582 0.13859 0.14484 0.0
C513 C 0.7818 0.17667 0.18326 0.0
C514 C 0.84832 0.18754 0.17718 0.0
C515 C 0.76595 0.1788 0.19402 0.0
C516 C 0.90692 0.16065 0.13636 0.0
C517 C 0.89178 0.16369 0.14725 0.0
C518 C 0.82521 0.15255 0.15372 0.0
C519 C 0.80426 0.17571 0.18739 0.0
C520 C 0.82093 0.173 0.17607 0.0
C521 C 0.86912 0.16446 0.14334 0.0
C522 C 0.85261 0.16717 0.15477 0.0
H523 H 0.80006 0.17978 0.22475 0.0
H524 H 0.82751 0.17591 0.20603 0.0
H525 H 0.78851 0.14366 0.16323 0.0
H526 H 0.87115 0.15792 0.10604 0.0
H527 H 0.84511 0.16353 0.12491 0.0
C528 C 0.82382 0.61204 0.21263 0.0
C529 C 0.82309 0.58857 0.20903 0.0
C530 C 0.82583 0.62936 0.20155 0.0
C531 C 0.8138 0.63292 0.16198 0.0
H532 H 0.85923 0.70737 0.16789 0.0
C533 C 0.83553 0.7084 0.11583 0.0
C534 C 0.83688 0.73203 0.11976 0.0
C535 C 0.83335 0.69066 0.12669 0.0
C536 C 0.8462 0.68667 0.16616 0.0
H537 H 0.82401 0.56484 0.19101 0.0
H538 H 0.82767 0.59535 0.17151 0.0
H539 H 0.85736 0.67682 0.18664 0.0
H540 H 0.8366 0.75549 0.13812 0.0
H541 H 0.83252 0.72427 0.1572 0.0
H542 H 0.80259 0.64279 0.14151 0.0
C543 C 0.82647 0.60016 0.18295 0.0
C544 C 0.84519 0.66916 0.17687 0.0
C545 C 0.82452 0.58279 0.19409 0.0
C546 C 0.83565 0.73744 0.13478 0.0
C547 C 0.83348 0.71965 0.14569 0.0
C548 C 0.8148 0.65044 0.15126 0.0
C549 C 0.82715 0.62364 0.1866 0.0
C550 C 0.82892 0.64211 0.17492 0.0
C551 C 0.83245 0.69612 0.14175 0.0
C552 C 0.83098 0.67752 0.15325 0.0
H553 H 0.82269 0.61705 0.22404 0.0
H554 H 0.82591 0.64707 0.20471 0.0
H555 H 0.80078 0.61222 0.16027 0.0
H556 H 0.83648 0.70369 0.10433 0.0
H557 H 0.83294 0.6729 0.12329 0.0
C558 C 0.09491 0.25892 0.36426 0.0
C559 C 0.10229 0.26426 0.3792 0.0
C560 C 0.10971 0.27703 0.35327 0.0
C561 C 0.1759 0.3327 0.3465 0.0
H562 H 0.14302 0.34765 0.31372 0.0
C563 C 0.23482 0.41628 0.30505 0.0
C564 C 0.2283 0.41045 0.29004 0.0
C565 C 0.21903 0.39885 0.31604 0.0
C566 C 0.15248 0.34351 0.32275 0.0
H567 H 0.1305 0.29292 0.39441 0.0
H568 H 0.15598 0.32446 0.37535 0.0
H569 H 0.11589 0.31594 0.33252 0.0
H570 H 0.20014 0.38194 0.27474 0.0
H571 H 0.17283 0.35156 0.29387 0.0
H572 H 0.21246 0.36018 0.33674 0.0
C573 C 0.13913 0.30618 0.37204 0.0
C574 C 0.13694 0.32533 0.33349 0.0
C575 C 0.12441 0.28814 0.38297 0.0
C576 C 0.20565 0.38702 0.28623 0.0
C577 C 0.18989 0.36967 0.29719 0.0
C578 C 0.19142 0.35087 0.33578 0.0
C579 C 0.13213 0.30075 0.35706 0.0
C580 C 0.14849 0.31976 0.34549 0.0
C581 C 0.19642 0.37533 0.31221 0.0
C582 C 0.17989 0.35648 0.32378 0.0
H583 H 0.07795 0.24064 0.36104 0.0
H584 H 0.10394 0.27222 0.34179 0.0
H585 H 0.1854 0.32851 0.35548 0.0
H586 H 0.25214 0.43423 0.3083 0.0
H587 H 0.22442 0.40387 0.32755 0.0
C588 C 0.71206 0.84453 0.38171 0.0
C589 C 0.73492 0.84422 0.37783 0.0
C590 C 0.69416 0.8421 0.37087 0.0
C591 C 0.67292 0.819 0.33278 0.0
H592 H 0.64209 0.86345 0.33484 0.0
C593 C 0.61397 0.82711 0.28461 0.0
C594 C 0.59093 0.82742 0.288 0.0
C595 C 0.63103 0.82897 0.29582 0.0
C596 C 0.65028 0.85068 0.33422 0.0
H597 H 0.75695 0.84097 0.35958 0.0
H598 H 0.72566 0.83689 0.34054 0.0
H599 H 0.67322 0.8671 0.35377 0.0
H600 H 0.56774 0.83015 0.30575 0.0
H601 H 0.59767 0.83329 0.32548 0.0
H602 H 0.65006 0.80264 0.31321 0.0
C603 C 0.72149 0.83877 0.35201 0.0
C604 C 0.66813 0.85278 0.34504 0.0
C605 C 0.73946 0.84122 0.36289 0.0
C606 C 0.58539 0.82989 0.30284 0.0
C607 C 0.60255 0.83178 0.3141 0.0
C608 C 0.65508 0.8169 0.32196 0.0
C609 C 0.6987 0.8393 0.3559 0.0
C610 C 0.67971 0.83702 0.34441 0.0
C611 C 0.62547 0.83116 0.31069 0.0
C612 C 0.64367 0.83281 0.32252 0.0
H613 H 0.70796 0.8467 0.39315 0.0
H614 H 0.67662 0.84217 0.37425 0.0
H615 H 0.68115 0.80627 0.33212 0.0
H616 H 0.61887 0.82536 0.27327 0.0
H617 H 0.64874 0.8289 0.2928 0.0
C618 C 0.16307 0.87648 0.37945 0.0
C619 C 0.16075 0.89831 0.37576 0.0
C620 C 0.16683 0.86214 0.36846 0.0
C621 C 0.15598 0.84659 0.32891 0.0
H622 H 0.20362 0.82022 0.33501 0.0
C623 C 0.17798 0.79277 0.28309 0.0
C624 C 0.17952 0.77066 0.28718 0.0
C625 C 0.17654 0.80891 0.29385 0.0
C626 C 0.19003 0.8272 0.33322 0.0
H627 H 0.16093 0.92252 0.35769 0.0
H628 H 0.16758 0.89736 0.33836 0.0
H629 H 0.20044 0.84836 0.35367 0.0
H630 H 0.18081 0.74808 0.30573 0.0
H631 H 0.17797 0.77622 0.32464 0.0
H632 H 0.14537 0.82526 0.30854 0.0
C633 C 0.16628 0.89129 0.34979 0.0
C634 C 0.18827 0.84338 0.34388 0.0
C635 C 0.16261 0.90575 0.36084 0.0
C636 C 0.17967 0.76502 0.30227 0.0
C637 C 0.17819 0.78121 0.31307 0.0
C638 C 0.15772 0.83039 0.31826 0.0
C639 C 0.1683 0.86925 0.3535 0.0
C640 C 0.17114 0.85315 0.34186 0.0
C641 C 0.17654 0.8033 0.30896 0.0
C642 C 0.17471 0.82046 0.32032 0.0
H643 H 0.16172 0.87026 0.39086 0.0
H644 H 0.16796 0.84508 0.37166 0.0
H645 H 0.14229 0.85345 0.32715 0.0
H646 H 0.17796 0.79772 0.27154 0.0
H647 H 0.17571 0.82597 0.2903 0.0
C648 C 0.59737 0.79983 0.79541 0.0
C649 C 0.58062 0.77334 0.79875 0.0
C650 C 0.61815 0.81556 0.80479 0.0
C651 C 0.66161 0.80992 0.8315 0.0
H652 H 0.68402 0.88229 0.84028 0.0
C653 C 0.74056 0.87066 0.87479 0.0
C654 C 0.75657 0.89761 0.87245 0.0
C655 C 0.72079 0.85538 0.86476 0.0
C656 C 0.67829 0.86224 0.83771 0.0
H657 H 0.5715 0.74289 0.81493 0.0
H658 H 0.60774 0.77051 0.83145 0.0
H659 H 0.64407 0.85618 0.82612 0.0
H660 H 0.76572 0.92941 0.85724 0.0
H661 H 0.73141 0.90256 0.8395 0.0
H662 H 0.69582 0.81596 0.84303 0.0
C663 C 0.60498 0.77898 0.82146 0.0
C664 C 0.65529 0.84724 0.82969 0.0
C665 C 0.58408 0.76326 0.8121 0.0
C666 C 0.75365 0.90868 0.85934 0.0
C667 C 0.73382 0.89337 0.84927 0.0
C668 C 0.68465 0.82494 0.83947 0.0
C669 C 0.62266 0.80508 0.81767 0.0
C670 C 0.64663 0.82089 0.82657 0.0
C671 C 0.71661 0.86673 0.85214 0.0
C672 C 0.6932 0.85124 0.84273 0.0
H673 H 0.59519 0.80813 0.78518 0.0
H674 H 0.63146 0.83556 0.80154 0.0
H675 H 0.65574 0.78981 0.82899 0.0
H676 H 0.74235 0.86157 0.8848 0.0
H677 H 0.70784 0.83499 0.86737 0.0
C678 C 0.13043 0.86153 0.87607 0.0
C679 C 0.10587 0.85855 0.87273 0.0
C680 C 0.14543 0.85889 0.86504 0.0
C681 C 0.13816 0.82606 0.82966 0.0
H682 H 0.21367 0.869 0.82824 0.0
C683 C 0.20058 0.81446 0.78444 0.0
C684 C 0.2245 0.81683 0.78878 0.0
C685 C 0.18593 0.81995 0.7944 0.0
C686 C 0.19262 0.85666 0.82861 0.0
H687 H 0.07813 0.85148 0.85515 0.0
H688 H 0.10452 0.8469 0.83573 0.0
H689 H 0.18888 0.87998 0.8455 0.0
H690 H 0.25159 0.82618 0.80703 0.0
H691 H 0.22575 0.83542 0.82457 0.0
H692 H 0.1419 0.80253 0.81292 0.0
C693 C 0.112 0.85107 0.84695 0.0
C694 C 0.17842 0.86303 0.83843 0.0
C695 C 0.09701 0.85388 0.85802 0.0
C696 C 0.23322 0.82421 0.80339 0.0
C697 C 0.21854 0.82971 0.81338 0.0
C698 C 0.15236 0.81967 0.81985 0.0
C699 C 0.13617 0.8531 0.85042 0.0
C700 C 0.15106 0.84767 0.83915 0.0
C701 C 0.19488 0.82792 0.80893 0.0
C702 C 0.17976 0.83478 0.81929 0.0
H703 H 0.13779 0.86517 0.88733 0.0
H704 H 0.16381 0.86031 0.86811 0.0
H705 H 0.11714 0.8136 0.83013 0.0
H706 H 0.19338 0.8089 0.77323 0.0
H707 H 0.16794 0.81864 0.79058 0.0
C708 C 0.15096 0.24308 0.86093 0.0
C709 C 0.1506 0.24832 0.87607 0.0
C710 C 0.1526 0.26105 0.85029 0.0
C711 C 0.173 0.33079 0.84591 0.0
H712 H 0.13158 0.30748 0.80999 0.0
C713 C 0.16985 0.40301 0.80398 0.0
C714 C 0.17236 0.39804 0.78904 0.0
C715 C 0.16564 0.3844 0.81483 0.0
C716 C 0.14338 0.31426 0.81993 0.0
H717 H 0.15135 0.27625 0.89196 0.0
H718 H 0.15389 0.30726 0.87348 0.0
H719 H 0.12777 0.27541 0.82831 0.0
H720 H 0.17194 0.3696 0.77368 0.0
H721 H 0.16478 0.33736 0.79253 0.0
H722 H 0.1887 0.36962 0.83751 0.0
C723 C 0.15334 0.28957 0.86978 0.0
C724 C 0.14126 0.2959 0.83039 0.0
C725 C 0.15174 0.2717 0.88037 0.0
C726 C 0.17011 0.37401 0.78511 0.0
C727 C 0.16581 0.35544 0.7959 0.0
C728 C 0.17509 0.34914 0.83546 0.0
C729 C 0.15393 0.28455 0.85463 0.0
C730 C 0.15611 0.30396 0.84347 0.0
C731 C 0.16372 0.36047 0.81089 0.0
C732 C 0.16041 0.34107 0.82233 0.0
H733 H 0.15013 0.22521 0.85732 0.0
H734 H 0.15326 0.25675 0.83869 0.0
H735 H 0.185 0.33762 0.85578 0.0
H736 H 0.17145 0.42135 0.8073 0.0
H737 H 0.16386 0.3887 0.82628 0.0
C738 C 0.75563 0.58374 0.69333 0.0
C739 C 0.76358 0.58799 0.70822 0.0
C740 C 0.77029 0.60241 0.68258 0.0
C741 C 0.83611 0.65837 0.67561 0.0
H742 H 0.80112 0.67774 0.64613 0.0
C743 C 0.89319 0.74708 0.63761 0.0
C744 C 0.88644 0.74322 0.62254 0.0
C745 C 0.87732 0.72853 0.64808 0.0
C746 C 0.81114 0.67237 0.65422 0.0
H747 H 0.79303 0.61497 0.72355 0.0
H748 H 0.81837 0.64746 0.70487 0.0
H749 H 0.77523 0.64354 0.66409 0.0
H750 H 0.85746 0.71739 0.60664 0.0
H751 H 0.82988 0.68495 0.62492 0.0
H752 H 0.87198 0.68712 0.66579 0.0
C753 C 0.80108 0.62965 0.70143 0.0
C754 C 0.79633 0.65276 0.66447 0.0
C755 C 0.78647 0.61108 0.71214 0.0
C756 C 0.86315 0.7209 0.61819 0.0
C757 C 0.84729 0.70237 0.62866 0.0
C758 C 0.85089 0.67795 0.66539 0.0
C759 C 0.79315 0.62557 0.68655 0.0
C760 C 0.80869 0.64565 0.6753 0.0
C761 C 0.85442 0.7058 0.64368 0.0
C762 C 0.83857 0.68524 0.65463 0.0
H763 H 0.73805 0.5661 0.69001 0.0
H764 H 0.76385 0.59864 0.67115 0.0
H765 H 0.84618 0.65301 0.68368 0.0
H766 H 0.91099 0.76417 0.64127 0.0
H767 H 0.8831 0.73189 0.65963 0.0
C768 C 0.39518 0.18709 0.71409 0.0
C769 C 0.41706 0.18584 0.70915 0.0
C770 C 0.37708 0.18664 0.70402 0.0
C771 C 0.36775 0.19648 0.66456 0.0
H772 H 0.29424 0.15323 0.67417 0.0
C773 C 0.28647 0.16596 0.6212 0.0
C774 C 0.26344 0.16579 0.62529 0.0
C775 C 0.30553 0.17048 0.63172 0.0
C776 C 0.31467 0.1657 0.67143 0.0
H777 H 0.43743 0.18355 0.68977 0.0
H778 H 0.4055 0.18237 0.67206 0.0
H779 H 0.3272 0.15697 0.69177 0.0
H780 H 0.24239 0.17045 0.64357 0.0
H781 H 0.27591 0.17836 0.66211 0.0
H782 H 0.35513 0.20481 0.64409 0.0
C783 C 0.40254 0.18404 0.68376 0.0
C784 C 0.33359 0.16784 0.6815 0.0
C785 C 0.42076 0.18458 0.69388 0.0
C786 C 0.25993 0.17043 0.64013 0.0
C787 C 0.27904 0.17485 0.65072 0.0
C788 C 0.34882 0.19429 0.65448 0.0
C789 C 0.38036 0.18482 0.68875 0.0
C790 C 0.36035 0.18311 0.67814 0.0
C791 C 0.30203 0.17489 0.6466 0.0
C792 C 0.32208 0.17869 0.65774 0.0
H793 H 0.39189 0.18828 0.7258 0.0
H794 H 0.36051 0.18777 0.70822 0.0
H795 H 0.38818 0.20874 0.66175 0.0
H796 H 0.28977 0.16245 0.60984 0.0
H797 H 0.3228 0.16997 0.62823 0.0
C798 C 0.81862 0.22969 0.69485 0.0
C799 C 0.82167 0.22591 0.70991 0.0
C800 C 0.81906 0.21279 0.68417 0.0
C801 C 0.84253 0.16638 0.67813 0.0
H802 H 0.79426 0.14309 0.64502 0.0
C803 C 0.83984 0.09355 0.63448 0.0
C804 C 0.8389 0.10039 0.6197 0.0
C805 C 0.83556 0.10676 0.64604 0.0
C806 C 0.80795 0.14954 0.65417 0.0
H807 H 0.82729 0.20138 0.72563 0.0
H808 H 0.82788 0.17189 0.70703 0.0
H809 H 0.79136 0.17086 0.66403 0.0
H810 H 0.8322 0.12593 0.60536 0.0
H811 H 0.825 0.14898 0.62542 0.0
H812 H 0.85937 0.14538 0.66817 0.0
C813 C 0.82546 0.18804 0.70344 0.0
C814 C 0.80633 0.16549 0.66503 0.0
C815 C 0.825 0.20487 0.71409 0.0
C816 C 0.83307 0.12022 0.61666 0.0
C817 C 0.82875 0.13331 0.62815 0.0
C818 C 0.84417 0.15045 0.66727 0.0
C819 C 0.8226 0.19185 0.68836 0.0
C820 C 0.82375 0.17427 0.67705 0.0
C821 C 0.83016 0.12692 0.64297 0.0
C822 C 0.82708 0.14209 0.65509 0.0
H823 H 0.81605 0.24576 0.69132 0.0
H824 H 0.81709 0.21639 0.6726 0.0
H825 H 0.85645 0.17309 0.68717 0.0
H826 H 0.84424 0.0783 0.63713 0.0
H827 H 0.83654 0.10124 0.65736 0.0
C828 C 0.05734 0.54019 0.54186 0.0
C829 C 0.08038 0.56241 0.53713 0.0
C830 C 0.03814 0.52441 0.53168 0.0
C831 C 0.02689 0.50722 0.49214 0.0
H832 H 0.95444 0.48302 0.50206 0.0
C833 C 0.94494 0.45729 0.44917 0.0
C834 C 0.92164 0.43515 0.45369 0.0
C835 C 0.96386 0.47283 0.45953 0.0
C836 C 0.97454 0.48937 0.49921 0.0
H837 H 0.1016 0.58535 0.518 0.0
H838 H 0.06789 0.55771 0.50011 0.0
H839 H 0.98883 0.51012 0.51962 0.0
H840 H 0.89962 0.41216 0.47262 0.0
H841 H 0.93294 0.43934 0.49083 0.0
H842 H 0.01264 0.48646 0.47175 0.0
C843 C 0.06481 0.55243 0.51173 0.0
C844 C 0.99425 0.5049 0.50925 0.0
C845 C 0.08407 0.56829 0.52195 0.0
C846 C 0.91738 0.42916 0.46884 0.0
C847 C 0.93641 0.44475 0.47925 0.0
C848 C 0.00719 0.49167 0.48211 0.0
C849 C 0.04153 0.53047 0.51652 0.0
C850 C 0.02064 0.51403 0.50582 0.0
C851 C 0.96001 0.46657 0.47466 0.0
C852 C 0.9808 0.48265 0.48551 0.0
H853 H 0.05396 0.53507 0.55349 0.0
H854 H 0.02064 0.50738 0.5357 0.0
H855 H 0.047 0.5136 0.48928 0.0
H856 H 0.94873 0.46254 0.43757 0.0
H857 H 0.98157 0.48979 0.45566 0.0
C858 C 0.42991 0.50681 0.52486 0.0
C859 C 0.43562 0.50975 0.54007 0.0
C860 C 0.44672 0.50446 0.51487 0.0
C861 C 0.51447 0.51743 0.51096 0.0
H862 H 0.48497 0.46528 0.47991 0.0
C863 C 0.57811 0.4919 0.47355 0.0
C864 C 0.57204 0.48937 0.45838 0.0
C865 C 0.56141 0.49378 0.48385 0.0
C866 C 0.4935 0.48007 0.48846 0.0
H867 H 0.46344 0.51275 0.55676 0.0
H868 H 0.49252 0.50848 0.53942 0.0
H869 H 0.45598 0.47073 0.4969 0.0
H870 H 0.54371 0.48659 0.44211 0.0
H871 H 0.51488 0.49002 0.45996 0.0
H872 H 0.552 0.52682 0.50249 0.0
C873 C 0.4753 0.50828 0.53514 0.0
C874 C 0.47689 0.48324 0.49815 0.0
C875 C 0.45853 0.51058 0.54508 0.0
C876 C 0.54892 0.48846 0.45373 0.0
C877 C 0.53228 0.49027 0.46398 0.0
C878 C 0.53108 0.51427 0.50126 0.0
C879 C 0.46955 0.50508 0.51993 0.0
C880 C 0.48719 0.50199 0.50949 0.0
C881 C 0.53834 0.49303 0.47914 0.0
C882 C 0.52077 0.49562 0.48987 0.0
H883 H 0.41239 0.50613 0.52069 0.0
H884 H 0.44193 0.50229 0.50319 0.0
H885 H 0.523 0.53227 0.51948 0.0
H886 H 0.59581 0.49264 0.47744 0.0
H887 H 0.56647 0.49566 0.49549 0.0
C888 C 0.50928 0.08146 0.47113 0.0
C889 C 0.50838 0.07558 0.456 0.0
C890 C 0.50749 0.06351 0.48183 0.0
C891 C 0.48459 0.99334 0.48687 0.0
H892 H 0.53 0.0167 0.52125 0.0
C893 C 0.49149 0.92148 0.52759 0.0
C894 C 0.49229 0.92736 0.54271 0.0
C895 C 0.49369 0.93958 0.51688 0.0
C896 C 0.51701 0.0099 0.51177 0.0
H897 H 0.50512 0.04645 0.44018 0.0
H898 H 0.50226 0.0154 0.45876 0.0
H899 H 0.53305 0.04856 0.50302 0.0
H900 H 0.49594 0.95668 0.55851 0.0
H901 H 0.4995 0.98798 0.5399 0.0
H902 H 0.46851 0.95469 0.49563 0.0
C903 C 0.50397 0.03364 0.46241 0.0
C904 C 0.51874 0.02816 0.50136 0.0
C905 C 0.50579 0.05153 0.45177 0.0
C906 C 0.49534 0.9516 0.54693 0.0
C907 C 0.49755 0.96963 0.53626 0.0
C908 C 0.48286 0.97508 0.49729 0.0
C909 C 0.5047 0.03935 0.47756 0.0
C910 C 0.50257 0.02007 0.48879 0.0
C911 C 0.49679 0.96387 0.52112 0.0
C912 C 0.49902 0.98317 0.50986 0.0
H913 H 0.51121 0.09983 0.4747 0.0
H914 H 0.50788 0.06836 0.49343 0.0
H915 H 0.4716 0.98654 0.4774 0.0
H916 H 0.48921 0.90296 0.52403 0.0
H917 H 0.49328 0.93469 0.50528 0.0
C918 C 0.41986 0.92232 0.03023 0.0
C919 C 0.42772 0.92668 0.04513 0.0
C920 C 0.4343 0.94116 0.01949 0.0
C921 C 0.48309 0.01131 0.01518 0.0
H922 H 0.49902 0.98941 0.97805 0.0
C923 C 0.56293 0.08308 0.97495 0.0
C924 C 0.55733 0.07912 0.95975 0.0
C925 C 0.54585 0.06492 0.98527 0.0
C926 C 0.49447 0.99583 0.98829 0.0
H927 H 0.45672 0.95413 0.0605 0.0
H928 H 0.4819 0.98667 0.04183 0.0
H929 H 0.47088 0.95661 0.99603 0.0
H930 H 0.52923 0.05344 0.94343 0.0
H931 H 0.49943 0.02202 0.96139 0.0
H932 H 0.50693 0.05055 0.00749 0.0
C933 C 0.46447 0.96897 0.03841 0.0
C934 C 0.47831 0.97703 0.99857 0.0
C935 C 0.45012 0.9502 0.0491 0.0
C936 C 0.53417 0.05697 0.95507 0.0
C937 C 0.51714 0.03887 0.96536 0.0
C938 C 0.49926 0.03011 0.0049 0.0
C939 C 0.45677 0.96469 0.02349 0.0
C940 C 0.47262 0.98457 0.01219 0.0
C941 C 0.5229 0.04249 0.98056 0.0
C942 C 0.50526 0.02258 0.99138 0.0
H943 H 0.40264 0.90438 0.02688 0.0
H944 H 0.42778 0.93741 0.00808 0.0
H945 H 0.47874 0.01772 0.02549 0.0
H946 H 0.58067 0.09997 0.97885 0.0
H947 H 0.55092 0.06813 0.99691 0.0
C948 C 0.89938 0.46684 0.97634 0.0
C949 C 0.90212 0.46177 0.96145 0.0
C950 C 0.91715 0.46803 0.98697 0.0
C951 C 0.97052 0.45318 0.99381 0.0
H952 H 0.9962 0.51265 0.02026 0.0
C953 C 0.06525 0.49109 0.02865 0.0
C954 C 0.06371 0.49773 0.0434 0.0
C955 C 0.04475 0.48519 0.01877 0.0
C956 C 0.98906 0.49581 0.01305 0.0
H957 H 0.92461 0.45248 0.94616 0.0
H958 H 0.95569 0.45487 0.96461 0.0
H959 H 0.9604 0.50322 0.00343 0.0
H960 H 0.03957 0.5034 0.05939 0.0
H961 H 0.00404 0.49318 0.04224 0.0
H962 H -0.00034 0.44614 0.00334 0.0
C963 C 0.93978 0.45771 0.96816 0.0
C964 C 0.96844 0.4903 0.00345 0.0
C965 C 0.92202 0.45647 0.95755 0.0
C966 C 0.04141 0.49846 0.04807 0.0
C967 C 0.02107 0.49271 0.03823 0.0
C968 C 0.99126 0.45876 0.0034 0.0
C969 C 0.938 0.46422 0.98291 0.0
C970 C 0.95892 0.46895 0.9937 0.0
C971 C 0.02248 0.48601 0.02348 0.0
C972 C 0.00074 0.48015 0.01311 0.0
H973 H 0.88417 0.4709 0.97967 0.0
H974 H 0.91495 0.47259 0.99831 0.0
H975 H 0.9635 0.43645 0.98652 0.0
H976 H 0.08219 0.49031 0.02477 0.0
H977 H 0.04645 0.4803 0.00742 0.0
C978 C 0.49617 0.45377 0.94932 0.0
C979 C 0.50068 0.43323 0.95285 0.0
C980 C 0.49297 0.46821 0.96049 0.0
C981 C 0.50892 0.48676 -0.00051 0.0
H982 H 0.45842 0.51005 0.99541 0.0
C983 C 0.48898 0.54104 0.04605 0.0
C984 C 0.4862 0.56245 0.04198 0.0
C985 C 0.49021 0.5248 0.03529 0.0
C986 C 0.47279 0.50392 0.99662 0.0
H987 H 0.50486 0.41128 0.97081 0.0
H988 H 0.49902 0.43648 0.99045 0.0
H989 H 0.46036 0.48128 0.97672 0.0
H990 H 0.48263 0.58377 0.02346 0.0
H991 H 0.48495 0.55536 0.00453 0.0
H992 H 0.52141 0.50947 0.01937 0.0
C993 C 0.49827 0.44157 0.979 0.0
C994 C 0.47386 0.4874 0.98595 0.0
C995 C 0.50145 0.42705 0.96779 0.0
C996 C 0.48475 0.56738 0.0269 0.0
C997 C 0.48592 0.55104 0.01609 0.0
C998 C 0.50781 0.50325 0.01018 0.0
C999 C 0.49419 0.46243 0.97545 0.0
C1000 C 0.49205 0.47877 0.98722 0.0
C1001 C 0.48866 0.52958 0.02019 0.0
C1002 C 0.48982 0.5121 0.00882 0.0
H1003 H 0.4955 0.45903 0.9379 0.0
H1004 H 0.49023 0.48436 0.95737 0.0
H1005 H 0.52343 0.48081 0.00066 0.0
H1006 H 0.49008 0.53669 0.0576 0.0
H1007 H 0.49199 0.50824 0.0388 0.0
C1008 C 0.28027 0.04437 0.07733 0.0
C1009 C 0.2533 0.02738 0.07914 0.0
C1010 C 0.29783 0.03523 0.07958 0.0
C1011 C 0.30052 0.98473 0.10154 0.0
H1012 H 0.35765 0.99382 0.07643 0.0
C1013 C 0.3373 0.91274 0.09921 0.0
C1014 C 0.3639 0.92157 0.09703 0.0
C1015 C 0.3283 0.93044 0.09993 0.0
C1016 C 0.34217 0.99168 0.08374 0.0
H1017 H 0.22333 0.98734 0.08326 0.0
H1018 H 0.25368 0.97136 0.08678 0.0
H1019 H 0.33289 0.01558 0.06996 0.0
H1020 H 0.40225 0.95569 0.09449 0.0
H1021 H 0.38636 0.98696 0.09554 0.0
H1022 H 0.30894 0.96008 0.11499 0.0
C1023 C 0.26143 0.99177 0.08407 0.0
C1024 C 0.32795 0.00401 0.07999 0.0
C1025 C 0.24405 0.00084 0.0819 0.0
C1026 C 0.38168 0.94852 0.09645 0.0
C1027 C 0.37258 0.96632 0.09687 0.0
C1028 C 0.31466 0.9725 0.10528 0.0
C1029 C 0.28849 0.00907 0.08365 0.0
C1030 C 0.30634 -0.00027 0.08855 0.0
C1031 C 0.34569 0.95732 0.09819 0.0
C1032 C 0.33497 0.97503 0.09613 0.0
H1033 H 0.28784 0.06499 0.07536 0.0
H1034 H 0.31863 0.0489 0.07908 0.0
H1035 H 0.28435 0.98167 0.10855 0.0
H1036 H 0.32324 0.89202 0.09949 0.0
H1037 H 0.30745 0.92287 0.1008 0.0
C1038 C 0.08325 0.4183 0.08736 0.0
C1039 C 0.07418 0.43596 0.08921 0.0
C1040 C 0.0657 0.3918 0.08548 0.0
C1041 C 0.99905 0.3379 0.08861 0.0
H1042 H 0.01858 0.31375 0.05348 0.0
C1043 C 0.94532 0.22901 0.07136 0.0
C1044 C 0.96307 0.21983 0.07042 0.0
C1045 C 0.95446 0.25593 0.07123 0.0
C1046 C 0.01273 0.32021 0.06324 0.0
H1047 H 0.03978 0.43971 0.09179 0.0
H1048 H 0.00871 0.39277 0.08865 0.0
H1049 H 0.04333 0.35969 0.06039 0.0
H1050 H 0.00367 0.23094 0.06766 0.0
H1051 H 0.01951 0.27759 0.06687 0.0
H1052 H 0.96913 0.298 0.09179 0.0
C1053 C 0.02948 0.39963 0.08863 0.0
C1054 C 0.02694 0.34645 0.06723 0.0
C1055 C 0.0472 0.42637 0.09057 0.0
C1056 C 0.98964 0.23763 0.06819 0.0
C1057 C 0.99866 0.26433 0.06777 0.0
C1058 C 0.9848 0.31146 0.08462 0.0
C1059 C 0.03869 0.38241 0.08531 0.0
C1060 C 0.0209 0.35536 0.08025 0.0
C1061 C 0.98135 0.27384 0.06985 0.0
C1062 C 0.99216 0.30224 0.07219 0.0
H1063 H 0.10397 0.42524 0.0863 0.0
H1064 H 0.07329 0.37882 0.0833 0.0
H1065 H 0.99394 0.34437 0.09864 0.0
H1066 H 0.92479 0.21557 0.07339 0.0
H1067 H 0.94071 0.26277 0.07281 0.0
C1068 C 0.57589 0.66332 0.0824 0.0
C1069 C 0.55839 0.637 0.08559 0.0
C1070 C 0.60228 0.672 0.08024 0.0
C1071 C 0.65579 0.65844 0.08502 0.0
H1072 H 0.68221 0.70233 0.05008 0.0
C1073 C 0.76512 0.71065 0.06876 0.0
C1074 C 0.77524 0.73775 0.06821 0.0
C1075 C 0.73804 0.69362 0.06831 0.0
C1076 C 0.67508 0.68992 0.05978 0.0
H1077 H 0.55484 0.5994 0.0901 0.0
H1078 H 0.60157 0.61476 0.08637 0.0
H1079 H 0.636 0.68188 0.0563 0.0
H1080 H 0.76566 0.76839 0.06578 0.0
H1081 H 0.7187 0.73887 0.0644 0.0
H1082 H 0.69528 0.66739 0.08874 0.0
C1083 C 0.59469 0.62859 0.08553 0.0
C1084 C 0.64869 0.67835 0.06341 0.0
C1085 C 0.56807 0.61986 0.08778 0.0
C1086 C 0.75824 0.74752 0.06604 0.0
C1087 C 0.73138 0.73059 0.06527 0.0
C1088 C 0.68233 0.67006 0.08137 0.0
C1089 C 0.61176 0.6545 0.08109 0.0
C1090 C 0.63896 0.66335 0.07637 0.0
C1091 C 0.72092 0.70355 0.06698 0.0
C1092 C 0.69235 0.68667 0.069 0.0
H1093 H 0.56891 0.67694 0.08074 0.0
H1094 H 0.61513 0.69225 0.07727 0.0
H1095 H 0.64877 0.64686 0.09503 0.0
H1096 H 0.77793 0.70277 0.07072 0.0
H1097 H 0.73044 0.67284 0.06962 0.0
C1098 C 0.91212 0.33134 0.42327 0.0
C1099 C 0.9197 0.35553 0.41661 0.0
C1100 C 0.93031 0.3234 0.42584 0.0
C1101 C 0.99544 0.33437 0.41598 0.0
H1102 H 0.98709 0.29856 0.45336 0.0
C1103 C 0.05705 0.28659 0.4306 0.0
C1104 C 0.04051 0.25964 0.43259 0.0
C1105 C 0.04692 0.3035 0.43137 0.0
C1106 C 0.98985 0.30878 0.44296 0.0
H1107 H 0.952 0.38995 0.40678 0.0
H1108 H 0.98419 0.37602 0.41133 0.0
H1109 H 0.96 0.3179 0.44797 0.0
H1110 H 0.00122 0.2293 0.4379 0.0
H1111 H 0.98377 0.2588 0.43993 0.0
H1112 H 0.02494 0.32457 0.4109 0.0
C1113 C 0.96404 0.36318 0.41451 0.0
C1114 C 0.9742 0.31965 0.4398 0.0
C1115 C 0.94564 0.3711 0.41183 0.0
C1116 C 0.01437 0.25009 0.43656 0.0
C1117 C 0.00441 0.26698 0.43768 0.0
C1118 C 0.01128 0.32363 0.41921 0.0
C1119 C 0.95667 0.33958 0.42196 0.0
C1120 C 0.97608 0.33164 0.42603 0.0
C1121 C 0.0203 0.29366 0.43446 0.0
C1122 C 0.00796 0.30994 0.43252 0.0
H1123 H 0.89218 0.31883 0.42695 0.0
H1124 H 0.92377 0.30471 0.43114 0.0
H1125 H 0.99738 0.34349 0.40529 0.0
H1126 H 0.07717 0.29424 0.42722 0.0
H1127 H 0.05953 0.32401 0.42886 0.0
C1128 C 0.67247 0.5837 0.4271 0.0
C1129 C 0.64872 0.56607 0.42032 0.0
C1130 C 0.67945 0.60974 0.429 0.0
C1131 C 0.66682 0.66171 0.41684 0.0
H1132 H 0.70137 0.69256 0.45409 0.0
C1133 C 0.71236 0.77194 0.42875 0.0
C1134 C 0.73936 0.78295 0.43091 0.0
C1135 C 0.69582 0.7449 0.43005 0.0
C1136 C 0.69146 0.68414 0.44373 0.0
H1137 H 0.61406 0.56198 0.40962 0.0
H1138 H 0.6263 0.60794 0.413 0.0
H1139 H 0.68301 0.64587 0.44998 0.0
H1140 H 0.77022 0.77517 0.43694 0.0
H1141 H 0.74134 0.72825 0.43991 0.0
H1142 H 0.67597 0.70033 0.41052 0.0
C1143 C 0.63954 0.6015 0.41679 0.0
C1144 C 0.68116 0.65748 0.4413 0.0
C1145 C 0.63259 0.57527 0.41478 0.0
C1146 C 0.74937 0.76705 0.43548 0.0
C1147 C 0.73284 0.74024 0.43713 0.0
C1148 C 0.67696 0.68844 0.41934 0.0
C1149 C 0.66271 0.6188 0.42433 0.0
C1150 C 0.66971 0.64616 0.4276 0.0
C1151 C 0.7061 0.72877 0.43384 0.0
C1152 C 0.69022 0.70001 0.4326 0.0
H1153 H 0.6854 0.57719 0.43136 0.0
H1154 H 0.69785 0.62271 0.43439 0.0
H1155 H 0.6581 0.6536 0.40619 0.0
H1156 H 0.70439 0.78388 0.4249 0.0
H1157 H 0.67526 0.73647 0.42745 0.0
C1158 C 0.41508 0.08414 0.42101 0.0
C1159 C 0.43249 0.07652 0.41554 0.0
C1160 C 0.38891 0.06577 0.42327 0.0
C1161 C 0.33566 0.00015 0.41442 0.0
H1162 H 0.30802 0.00981 0.45139 0.0
C1163 C 0.22577 0.94058 0.42835 0.0
C1164 C 0.21589 0.95758 0.43026 0.0
C1165 C 0.25273 0.95012 0.4293 0.0
C1166 C 0.31552 0.00667 0.44111 0.0
H1167 H 0.43595 0.04398 0.40731 0.0
H1168 H 0.38963 0.01149 0.41122 0.0
H1169 H 0.35451 0.03664 0.44603 0.0
H1170 H 0.22563 0.99706 0.43566 0.0
H1171 H 0.27236 0.01348 0.43795 0.0
H1172 H 0.2963 0.97075 0.40933 0.0
C1173 C 0.39644 0.03179 0.41377 0.0
C1174 C 0.34206 0.02213 0.43798 0.0
C1175 C 0.42285 0.05036 0.41144 0.0
C1176 C 0.23286 0.98356 0.43436 0.0
C1177 C 0.25959 0.99293 0.43563 0.0
C1178 C 0.309 0.98456 0.41759 0.0
C1179 C 0.37948 0.03925 0.42023 0.0
C1180 C 0.35223 0.0198 0.42434 0.0
C1181 C 0.26992 0.97661 0.43249 0.0
C1182 C 0.29856 0.98841 0.43073 0.0
H1183 H 0.42195 0.10423 0.42414 0.0
H1184 H 0.37616 0.07226 0.42781 0.0
H1185 H 0.34297 0.99788 0.40385 0.0
H1186 H 0.21301 0.92057 0.42489 0.0
H1187 H 0.26023 0.93716 0.42685 0.0
C1188 C 0.72938 0.96578 0.93383 0.0
C1189 C 0.72848 0.95114 0.92141 0.0
C1190 C 0.71161 0.97481 0.93512 0.0
C1191 C 0.67449 0.99304 0.9101 0.0
H1192 H 0.65033 0.00843 0.94657 0.0
C1193 C 0.62325 0.055 0.91165 0.0
C1194 C 0.633 0.07447 0.92261 0.0
C1195 C 0.63019 0.03553 0.91171 0.0
C1196 C 0.65694 0.00422 0.93629 0.0
H1197 H 0.70695 0.93198 0.90149 0.0
H1198 H 0.67547 0.94684 0.904 0.0
H1199 H 0.66985 0.98051 0.9472 0.0
H1200 H 0.65779 0.08898 0.9421 0.0
H1201 H 0.66996 0.05551 0.94206 0.0
H1202 H 0.66238 0.0174 0.89926 0.0
C1203 C 0.69029 0.95221 0.91247 0.0
C1204 C 0.66811 0.98826 0.93666 0.0
C1205 C 0.70818 0.94354 0.91109 0.0
C1206 C 0.64986 0.07423 0.9335 0.0
C1207 C 0.65665 0.05485 0.9336 0.0
C1208 C 0.66329 0.00895 0.90973 0.0
C1209 C 0.6926 0.96903 0.92408 0.0
C1210 C 0.67756 0.98298 0.92362 0.0
C1211 C 0.6468 0.03519 0.92278 0.0
C1212 C 0.65504 0.01527 0.92287 0.0
H1213 H 0.74499 0.972 0.94187 0.0
H1214 H 0.71398 0.9878 0.94419 0.0
H1215 H 0.68194 0.98975 0.89986 0.0
H1216 H 0.61012 0.05465 0.90317 0.0
H1217 H 0.62233 0.02059 0.90322 0.0
C1218 C 0.93074 0.56634 0.90782 0.0
C1219 C 0.92615 0.55328 0.92141 0.0
C1220 C 0.94847 0.5932 0.90698 0.0
C1221 C 0.97639 0.65089 0.93132 0.0
H1222 H 0.01823 0.68649 0.89688 0.0
C1223 C 0.0362 0.7636 0.92757 0.0
C1224 C 0.03276 0.77372 0.91423 0.0
C1225 C 0.02746 0.73686 0.92886 0.0
C1226 C 0.00664 0.67679 0.90659 0.0
H1227 H 0.9379 0.55732 0.94447 0.0
H1228 H 0.96923 0.60377 0.94292 0.0
H1229 H 0.99547 0.63885 0.89799 0.0
H1230 H 0.01802 0.76398 0.89172 0.0
H1231 H 0.00272 0.71771 0.89402 0.0
H1232 H 0.987 0.68871 0.93976 0.0
C1233 C 0.95863 0.59367 0.93302 0.0
C1234 C 0.99356 0.64952 0.9072 0.0
C1235 C 0.94078 0.56703 0.93388 0.0
C1236 C 0.02092 0.75679 0.90218 0.0
C1237 C 0.01237 0.73026 0.90343 0.0
C1238 C 0.98949 0.6781 0.93073 0.0
C1239 C 0.96204 0.60728 0.9197 0.0
C1240 C 0.97792 0.63624 0.91947 0.0
C1241 C 0.01536 0.71993 0.91679 0.0
C1242 C 0.00432 0.69133 0.91823 0.0
H1243 H 0.91965 0.55615 0.89806 0.0
H1244 H 0.95054 0.60313 0.89656 0.0
H1245 H 0.96417 0.64131 0.94085 0.0
H1246 H 0.04537 0.77624 0.93701 0.0
H1247 H 0.03012 0.72942 0.93928 0.0
C1248 C 0.4317 0.38419 0.90106 0.0
C1249 C 0.44306 0.36835 0.89972 0.0
C1250 C 0.40447 0.37298 0.90059 0.0
C1251 C 0.34311 0.31353 0.89036 0.0
H1252 H 0.31489 0.32424 0.9268 0.0
C1253 C 0.2422 0.23727 0.9101 0.0
C1254 C 0.22528 0.24543 0.91563 0.0
C1255 C 0.26854 0.25517 0.90785 0.0
C1256 C 0.32237 0.32135 0.91645 0.0
H1257 H 0.43548 0.32906 0.89587 0.0
H1258 H 0.38819 0.30969 0.89439 0.0
H1259 H 0.36141 0.35192 0.9212 0.0
H1260 H 0.22277 0.27849 0.92388 0.0
H1261 H 0.26922 0.31017 0.91987 0.0
H1262 H 0.30442 0.28274 0.88566 0.0
C1263 C 0.40007 0.3306 0.89594 0.0
C1264 C 0.34897 0.33726 0.91322 0.0
C1265 C 0.42711 0.34166 0.89675 0.0
C1266 C 0.23551 0.27168 0.91972 0.0
C1267 C 0.26203 0.28979 0.91734 0.0
C1268 C 0.31659 0.29781 0.89352 0.0
C1269 C 0.38841 0.34594 0.89843 0.0
C1270 C 0.3597 0.33291 0.90036 0.0
C1271 C 0.2786 0.28181 0.9109 0.0
C1272 C 0.30608 0.30089 0.90685 0.0
H1273 H 0.44366 0.40476 0.90365 0.0
H1274 H 0.39592 0.3852 0.90251 0.0
H1275 H 0.35083 0.30997 0.8803 0.0
H1276 H 0.23486 0.21709 0.90697 0.0
H1277 H 0.28092 0.24819 0.90335 0.0
C1278 C 0.96689 0.73254 0.56768 0.0
C1279 C 0.95645 0.73485 0.58116 0.0
C1280 C 0.97748 0.71602 0.56664 0.0
C1281 C 0.00675 0.68791 0.59139 0.0
H1282 H 0.00932 0.65273 0.55578 0.0
C1283 C 0.06408 0.63221 0.58823 0.0
C1284 C 0.08033 0.63848 0.57576 0.0
C1285 C 0.04546 0.64022 0.58905 0.0
C1286 C 0.00872 0.66246 0.56581 0.0
H1287 H 0.94648 0.72026 0.60361 0.0
H1288 H 0.96375 0.69074 0.60163 0.0
H1289 H 0.98177 0.67269 0.55639 0.0
H1290 H 0.08974 0.65785 0.55436 0.0
H1291 H 0.05756 0.67178 0.55584 0.0
H1292 H 0.03398 0.67806 0.60072 0.0
C1293 C 0.9649 0.7023 0.59205 0.0
C1294 C 0.99302 0.67395 0.56614 0.0
C1295 C 0.95484 0.71905 0.59316 0.0
C1296 C 0.07755 0.65273 0.56415 0.0
C1297 C 0.05891 0.6605 0.56491 0.0
C1298 C 0.02227 0.6763 0.59109 0.0
C1299 C 0.97736 0.70139 0.57901 0.0
C1300 C 0.99216 0.68716 0.57887 0.0
C1301 C 0.04266 0.65436 0.57734 0.0
C1302 C 0.02381 0.66389 0.57821 0.0
H1303 H 0.96839 0.74467 0.55832 0.0
H1304 H 0.98702 0.71588 0.55644 0.0
H1305 H 0.00702 0.69837 0.6013 0.0
H1306 H 0.06574 0.62113 0.5973 0.0
H1307 H 0.03312 0.6352 0.59876 0.0
C1308 C 0.28707 0.22736 0.5726 0.0
C1309 C 0.26048 0.21834 0.57002 0.0
C1310 C 0.30542 0.25391 0.57093 0.0
C1311 C 0.31548 0.31638 0.556 0.0
H1312 H 0.34725 0.34615 0.59398 0.0
C1313 C 0.33447 0.41629 0.5726 0.0
C1314 C 0.35856 0.43425 0.57892 0.0
C1315 C 0.32751 0.39025 0.57093 0.0
C1316 C 0.33903 0.33819 0.58322 0.0
H1317 H 0.23221 0.229 0.56277 0.0
H1318 H 0.26423 0.275 0.55914 0.0
H1319 H 0.32752 0.29909 0.58986 0.0
H1320 H 0.39373 0.43888 0.58922 0.0
H1321 H 0.38132 0.39267 0.58638 0.0
H1322 H 0.32591 0.35513 0.54952 0.0
C1323 C 0.27104 0.26185 0.56253 0.0
C1324 C 0.32783 0.3113 0.58083 0.0
C1325 C 0.25271 0.23556 0.56456 0.0
C1326 C 0.37496 0.42532 0.5844 0.0
C1327 C 0.36796 0.39901 0.58268 0.0
C1328 C 0.32674 0.34316 0.55835 0.0
C1329 C 0.29737 0.27149 0.56632 0.0
C1330 C 0.31498 0.30006 0.56741 0.0
C1331 C 0.34454 0.38148 0.57544 0.0
C1332 C 0.33751 0.35415 0.57221 0.0
H1333 H 0.29331 0.2144 0.57715 0.0
H1334 H 0.3256 0.26092 0.57393 0.0
H1335 H 0.30594 0.30822 0.54551 0.0
H1336 H 0.32132 0.42258 0.56841 0.0
H1337 H 0.30894 0.37703 0.56576 0.0
C1338 C 0.7707 0.05337 0.56917 0.0
C1339 C 0.78211 0.03765 0.56732 0.0
C1340 C 0.74354 0.04179 0.5708 0.0
C1341 C 0.69084 0.98047 0.58548 0.0
H1342 H 0.64279 0.00089 0.56953 0.0
C1343 C 0.58079 0.91212 0.58447 0.0
C1344 C 0.56389 0.92192 0.58703 0.0
C1345 C 0.6077 0.92885 0.58403 0.0
C1346 C 0.65613 0.99533 0.57429 0.0
H1347 H 0.77434 0.99813 0.56411 0.0
H1348 H 0.72712 0.97809 0.56638 0.0
H1349 H 0.68917 0.02549 0.56261 0.0
H1350 H 0.56171 0.95671 0.59161 0.0
H1351 H 0.6093 0.98638 0.59074 0.0
H1352 H 0.65806 0.95017 0.59695 0.0
C1353 C 0.73898 0.99916 0.56705 0.0
C1354 C 0.68258 0.00929 0.57025 0.0
C1355 C 0.76595 0.01063 0.56555 0.0
C1356 C 0.57443 0.9487 0.58981 0.0
C1357 C 0.60154 0.96564 0.58914 0.0
C1358 C 0.66459 0.96666 0.58952 0.0
C1359 C 0.72764 0.01445 0.57054 0.0
C1360 C 0.69999 0.00144 0.57547 0.0
C1361 C 0.61837 0.95586 0.58597 0.0
C1362 C 0.6468 0.97344 0.58365 0.0
H1363 H 0.78285 0.07424 0.57078 0.0
H1364 H 0.73528 0.05405 0.57342 0.0
H1365 H 0.70396 0.97447 0.59006 0.0
H1366 H 0.5731 0.89156 0.58221 0.0
H1367 H 0.62008 0.92073 0.58141 0.0
C1368 C 0.70642 0.60849 0.76293 0.0
C1369 C 0.69502 0.58917 0.75193 0.0
C1370 C 0.70016 0.62844 0.76378 0.0
C1371 C 0.67514 0.66271 0.74092 0.0
H1372 H 0.64727 0.67356 0.77733 0.0
C1373 C 0.60337 0.70162 0.74241 0.0
C1374 C 0.60205 0.71413 0.75528 0.0
C1375 C 0.62126 0.6927 0.74153 0.0
C1376 C 0.65561 0.67139 0.76712 0.0
H1377 H 0.6678 0.5753 0.73344 0.0
H1378 H 0.65718 0.6098 0.73493 0.0
H1379 H 0.6667 0.64573 0.77743 0.0
H1380 H 0.61976 0.72959 0.77664 0.0
H1381 H 0.65174 0.71525 0.77483 0.0
H1382 H 0.66357 0.68783 0.73049 0.0
C1383 C 0.67111 0.60984 0.74276 0.0
C1384 C 0.66669 0.65535 0.76722 0.0
C1385 C 0.67704 0.58991 0.74203 0.0
C1386 C 0.62028 0.71968 0.76666 0.0
C1387 C 0.63842 0.71126 0.76567 0.0
C1388 C 0.66429 0.67895 0.74083 0.0
C1389 C 0.68278 0.62946 0.7535 0.0
C1390 C 0.67574 0.65018 0.75403 0.0
C1391 C 0.63832 0.69656 0.75342 0.0
C1392 C 0.65362 0.68283 0.75384 0.0
H1393 H 0.7204 0.60843 0.77066 0.0
H1394 H 0.70925 0.64331 0.77225 0.0
H1395 H 0.68232 0.65925 0.73062 0.0
H1396 H 0.58933 0.69698 0.73356 0.0
H1397 H 0.62048 0.68131 0.73195 0.0
C1398 C 0.41488 0.08748 0.73361 0.0
C1399 C 0.41507 0.10386 0.74495 0.0
C1400 C 0.39577 0.0612 0.73322 0.0
C1401 C 0.35035 0.00731 0.75667 0.0
H1402 H 0.32015 0.97406 0.71904 0.0
C1403 C 0.28102 0.89784 0.75457 0.0
C1404 C 0.28699 0.88458 0.74379 0.0
C1405 C 0.29101 0.92466 0.75348 0.0
C1406 C 0.32844 0.98305 0.72961 0.0
H1407 H 0.39549 0.10552 0.76486 0.0
H1408 H 0.36194 0.05915 0.76427 0.0
H1409 H 0.34918 0.02134 0.72014 0.0
H1410 H 0.3066 0.88816 0.72299 0.0
H1411 H 0.32486 0.93552 0.72116 0.0
H1412 H 0.33052 0.96916 0.7661 0.0
C1413 C 0.37671 0.06683 0.75568 0.0
C1414 C 0.34504 0.01009 0.73025 0.0
C1415 C 0.39589 0.0933 0.75604 0.0
C1416 C 0.30155 0.89809 0.73131 0.0
C1417 C 0.31198 0.92516 0.73032 0.0
C1418 C 0.33384 0.98032 0.75603 0.0
C1419 C 0.37637 0.05059 0.74417 0.0
C1420 C 0.35655 0.02242 0.74375 0.0
C1421 C 0.30771 0.93885 0.74176 0.0
C1422 C 0.32299 0.96781 0.74246 0.0
H1423 H 0.42942 0.095 0.72489 0.0
H1424 H 0.39638 0.0491 0.7244 0.0
H1425 H 0.35918 0.01617 0.76718 0.0
H1426 H 0.26971 0.88764 0.76428 0.0
H1427 H 0.28677 0.93448 0.76226 0.0
C1428 C 0.91099 0.2902 0.75372 0.0
C1429 C 0.90075 0.30619 0.74956 0.0
C1430 C 0.93753 0.29862 0.75138 0.0
C1431 C 0.99193 0.34469 0.72742 0.0
H1432 H 0.03739 0.33796 0.75582 0.0
C1433 C 0.10156 0.41459 0.73138 0.0
C1434 C 0.11826 0.40506 0.73512 0.0
C1435 C 0.07474 0.39759 0.73013 0.0
C1436 C 0.02479 0.33943 0.74763 0.0
H1437 H 0.91036 0.34408 0.74081 0.0
H1438 H 0.9564 0.35897 0.7372 0.0
H1439 H 0.99068 0.31819 0.76118 0.0
H1440 H 0.12055 0.3704 0.7399 0.0
H1441 H 0.07319 0.34042 0.73796 0.0
H1442 H 0.02615 0.36699 0.71422 0.0
C1443 C 0.94401 0.33966 0.74175 0.0
C1444 C 0.99808 0.32821 0.75073 0.0
C1445 C 0.91769 0.33126 0.74399 0.0
C1446 C 0.108 0.37805 0.7367 0.0
C1447 C 0.08097 0.36101 0.73578 0.0
C1448 C 0.01854 0.35598 0.72438 0.0
C1449 C 0.95408 0.32312 0.74489 0.0
C1450 C 0.98157 0.33157 0.74089 0.0
C1451 C 0.06405 0.37079 0.73294 0.0
C1452 C 0.03538 0.35419 0.73465 0.0
H1453 H 0.89825 0.27069 0.75792 0.0
H1454 H 0.94477 0.28551 0.75399 0.0
H1455 H 0.97958 0.34698 0.71941 0.0
H1456 H 0.10907 0.4354 0.73035 0.0
H1457 H 0.06219 0.40573 0.72807 0.0
C1458 C 0.41459 0.3221 0.26608 0.0
C1459 C 0.40531 0.2955 0.26362 0.0
C1460 C 0.39728 0.33158 0.26684 0.0
C1461 C 0.337 0.31997 0.25038 0.0
H1462 H 0.34682 0.37613 0.27655 0.0
C1463 C 0.28625 0.38362 0.24443 0.0
C1464 C 0.30324 0.41033 0.24707 0.0
C1465 C 0.29491 0.36566 0.24663 0.0
C1466 C 0.34383 0.36046 0.26915 0.0
H1467 H 0.3708 0.25765 0.2605 0.0
H1468 H 0.34019 0.2744 0.26158 0.0
H1469 H 0.36763 0.35059 0.28241 0.0
H1470 H 0.34291 0.43955 0.25273 0.0
H1471 H 0.3581 0.40859 0.25616 0.0
H1472 H 0.31406 0.33075 0.23677 0.0
C1473 C 0.36087 0.28779 0.26314 0.0
C1474 C 0.3556 0.34576 0.27256 0.0
C1475 C 0.37828 0.27819 0.2627 0.0
C1476 C 0.32937 0.41902 0.25075 0.0
C1477 C 0.33798 0.40126 0.25287 0.0
C1478 C 0.32518 0.33479 0.24693 0.0
C1479 C 0.37035 0.31469 0.26483 0.0
C1480 C 0.35311 0.32601 0.26296 0.0
C1481 C 0.3206 0.37434 0.25149 0.0
C1482 C 0.32938 0.35584 0.256 0.0
H1483 H 0.43541 0.33581 0.2666 0.0
H1484 H 0.4052 0.35243 0.26799 0.0
H1485 H 0.33492 0.30494 0.24273 0.0
H1486 H 0.26593 0.37646 0.24171 0.0
H1487 H 0.28118 0.345 0.24538 0.0
C1488 C 0.58372 0.90858 0.23254 0.0
C1489 C 0.59215 0.89071 0.23548 0.0
C1490 C 0.60165 0.9352 0.2318 0.0
C1491 C 0.6616 0.9826 0.24915 0.0
H1492 H 0.65417 0.03009 0.22268 0.0
C1493 C 0.7134 0.09719 0.25526 0.0
C1494 C 0.69646 0.10697 0.25257 0.0
C1495 C 0.7047 0.07057 0.25307 0.0
C1496 C 0.65653 0.01708 0.23015 0.0
H1497 H 0.6258 0.8862 0.23941 0.0
H1498 H 0.6575 0.93328 0.23837 0.0
H1499 H 0.63301 0.98381 0.21655 0.0
H1500 H 0.6568 0.09658 0.2469 0.0
H1501 H 0.64157 0.05041 0.24346 0.0
H1502 H 0.68427 0.01596 0.26307 0.0
C1503 C 0.63701 0.92654 0.23643 0.0
C1504 C 0.64455 0.99065 0.22659 0.0
C1505 C 0.61899 0.89969 0.23685 0.0
C1506 C 0.6703 0.08955 0.24893 0.0
C1507 C 0.66166 0.06318 0.24681 0.0
C1508 C 0.67367 0.0092 0.25273 0.0
C1509 C 0.62836 0.94455 0.23431 0.0
C1510 C 0.64609 0.97298 0.23632 0.0
C1511 C 0.67903 0.05362 0.24818 0.0
C1512 C 0.67028 0.02644 0.24354 0.0
H1513 H 0.56306 0.90204 0.23166 0.0
H1514 H 0.59435 0.94859 0.23031 0.0
H1515 H 0.66296 0.96935 0.2569 0.0
H1516 H 0.73374 0.11034 0.25793 0.0
H1517 H 0.71839 0.06358 0.25432 0.0
C1518 C 0.90596 0.58089 0.26272 0.0
C1519 C 0.88835 0.58976 0.26006 0.0
C1520 C 0.93268 0.59852 0.26356 0.0
C1521 C 0.98103 0.65859 0.24698 0.0
H1522 H 0.02744 0.65067 0.27411 0.0
C1523 C 0.09553 0.71055 0.2415 0.0
C1524 C 0.10571 0.69412 0.2447 0.0
C1525 C 0.06882 0.70159 0.2436 0.0
C1526 C 0.01474 0.65312 0.26643 0.0
H1527 H 0.88439 0.62382 0.25659 0.0
H1528 H 0.93166 0.65499 0.25775 0.0
H1529 H 0.98089 0.62935 0.27957 0.0
H1530 H 0.09595 0.65505 0.2513 0.0
H1531 H 0.04964 0.63934 0.25455 0.0
H1532 H 0.01492 0.68143 0.23349 0.0
C1533 C 0.92463 0.63439 0.25944 0.0
C1534 C 0.98815 0.64107 0.26962 0.0
C1535 C 0.89769 0.61668 0.25895 0.0
C1536 C 0.08862 0.66818 0.24888 0.0
C1537 C 0.06215 0.65928 0.25091 0.0
C1538 C 0.00777 0.67066 0.24375 0.0
C1539 C 0.94236 0.62534 0.2614 0.0
C1540 C 0.97089 0.64289 0.25968 0.0
C1541 C 0.05214 0.67616 0.24892 0.0
C1542 C 0.02467 0.66714 0.25317 0.0
H1543 H 0.89914 0.56016 0.2634 0.0
H1544 H 0.94587 0.59094 0.26491 0.0
H1545 H 0.96808 0.66014 0.23908 0.0
H1546 H 0.10841 0.73071 0.23838 0.0
H1547 H 0.06153 0.71494 0.24188 0.0
C1548 C 0.01608 0.14082 0.06773 0.0
C1549 C 0.01 0.14619 0.08188 0.0
C1550 C 0.039 0.14 0.06536 0.0
C1551 C 0.10395 0.16003 0.08131 0.0
H1552 H 0.09723 0.10001 0.06002 0.0
C1553 C 0.17203 0.11894 0.09027 0.0
C1554 C 0.17672 0.10585 0.07877 0.0
C1555 C 0.15601 0.12964 0.08802 0.0
C1556 C 0.09969 0.11726 0.06567 0.0
H1557 H 0.02337 0.15535 0.1046 0.0
H1558 H 0.06341 0.15372 0.1005 0.0
H1559 H 0.06003 0.10694 0.06153 0.0
H1560 H 0.16986 0.09519 0.05558 0.0
H1561 H 0.14166 0.11411 0.05154 0.0
H1562 H 0.14342 0.16994 0.08579 0.0
C1563 C 0.05054 0.1504 0.0912 0.0
C1564 C 0.07829 0.12116 0.0666 0.0
C1565 C 0.02753 0.15113 0.09358 0.0
C1566 C 0.16656 0.10524 0.06462 0.0
C1567 C 0.15027 0.11585 0.06237 0.0
C1568 C 0.12539 0.1562 0.08033 0.0
C1569 C 0.05641 0.14462 0.07708 0.0
C1570 C 0.07998 0.14219 0.07477 0.0
C1571 C 0.14416 0.12742 0.0742 0.0
C1572 C 0.12328 0.13434 0.07286 0.0
H1573 H 0.00302 0.13705 0.05846 0.0
H1574 H 0.04309 0.13574 0.05433 0.0
H1575 H 0.10598 0.1767 0.08743 0.0
H1576 H 0.17972 0.1198 0.10129 0.0
H1577 H 0.15157 0.13813 0.09743 0.0
C1578 C 0.8942 0.05488 0.069 0.0
C1579 C 0.89405 0.06717 0.08227 0.0
C1580 C 0.88479 0.02791 0.06874 0.0
C1581 C 0.87748 0.97682 0.09464 0.0
H1582 H 0.84162 0.9292 0.06222 0.0
C1583 C 0.8481 0.86836 0.09813 0.0
C1584 C 0.85265 0.85749 0.08544 0.0
C1585 C 0.85004 0.89289 0.09747 0.0
C1586 C 0.85179 0.94233 0.07132 0.0
H1587 H 0.88183 0.06084 0.10526 0.0
H1588 H 0.8648 0.01396 0.10471 0.0
H1589 H 0.84949 0.97391 0.06114 0.0
H1590 H 0.86246 0.86359 0.06207 0.0
H1591 H 0.8663 0.90652 0.061 0.0
H1592 H 0.88036 0.9457 0.10472 0.0
C1593 C 0.8729 0.02506 0.09463 0.0
C1594 C 0.85626 0.96791 0.0707 0.0
C1595 C 0.88248 0.05188 0.09492 0.0
C1596 C 0.85883 0.87146 0.07205 0.0
C1597 C 0.86083 0.89599 0.0714 0.0
C1598 C 0.87307 0.95138 0.09525 0.0
C1599 C 0.87496 0.01292 0.08174 0.0
C1600 C 0.86917 0.98543 0.08236 0.0
C1601 C 0.85664 0.90709 0.08412 0.0
C1602 C 0.86025 0.93382 0.0836 0.0
H1603 H 0.90314 0.0663 0.05913 0.0
H1604 H 0.88666 0.01913 0.05863 0.0
H1605 H 0.88805 0.98999 0.10366 0.0
H1606 H 0.84313 0.85796 0.10857 0.0
H1607 H 0.84636 0.90074 0.10743 0.0
C1608 C 0.93899 0.83128 0.06588 0.0
C1609 C 0.92742 0.81628 0.07862 0.0
C1610 C 0.96589 0.84924 0.06565 0.0
C1611 C 0.01597 0.88977 0.09242 0.0
H1612 H 0.06482 0.90878 0.05983 0.0
C1613 C 0.12236 0.97243 0.0986 0.0
C1614 C 0.13361 0.98928 0.08649 0.0
C1615 C 0.09841 0.94936 0.09706 0.0
C1616 C 0.05132 0.90385 0.06899 0.0
H1617 H 0.93497 0.80611 0.10041 0.0
H1618 H 0.98173 0.83689 0.09988 0.0
H1619 H 0.02094 0.87072 0.05751 0.0
H1620 H 0.12877 0.99521 0.06326 0.0
H1621 H 0.08661 0.95542 0.06069 0.0
H1622 H 0.04561 0.9231 0.10376 0.0
C1623 C 0.97012 0.83541 0.09025 0.0
C1624 C 0.02627 0.88201 0.06766 0.0
C1625 C 0.94339 0.8177 0.09051 0.0
C1626 C 0.12056 0.98256 0.07279 0.0
C1627 C 0.09649 0.95962 0.07129 0.0
C1628 C 0.04081 0.91162 0.09371 0.0
C1629 C 0.98143 0.85226 0.07813 0.0
C1630 C 0.00838 0.87474 0.0794 0.0
C1631 C 0.08505 0.94277 0.08342 0.0
C1632 C 0.05884 0.91898 0.08203 0.0
H1633 H 0.92705 0.83061 0.0566 0.0
H1634 H 0.97412 0.86198 0.05615 0.0
H1635 H 0.00241 0.88504 0.10153 0.0
H1636 H 0.13213 0.97698 0.10924 0.0
H1637 H 0.09042 0.93663 0.10658 0.0
C1638 C 0.1092 0.16485 0.4312 0.0
C1639 C 0.11084 0.17888 0.41832 0.0
C1640 C 0.11844 0.14715 0.43114 0.0
C1641 C 0.12766 0.10612 0.40413 0.0
H1642 H 0.15794 0.08844 0.43709 0.0
C1643 C 0.15191 0.02343 0.3996 0.0
C1644 C 0.14494 0.00649 0.41178 0.0
C1645 C 0.15143 0.04677 0.4007 0.0
C1646 C 0.14935 0.09308 0.42782 0.0
H1647 H 0.12558 0.18752 0.39584 0.0
H1648 H 0.14237 0.15743 0.39588 0.0
H1649 H 0.15181 0.12631 0.43893 0.0
H1650 H 0.13234 0.00082 0.43472 0.0
H1651 H 0.13104 0.04122 0.43656 0.0
H1652 H 0.12453 0.07271 0.39313 0.0
C1653 C 0.13324 0.1593 0.40585 0.0
C1654 C 0.14588 0.11478 0.42888 0.0
C1655 C 0.1238 0.17667 0.40586 0.0
C1656 C 0.13782 0.01349 0.42513 0.0
C1657 C 0.13729 0.03677 0.42623 0.0
C1658 C 0.13108 0.08449 0.40308 0.0
C1659 C 0.1296 0.14345 0.41824 0.0
C1660 C 0.13489 0.12146 0.41706 0.0
C1661 C 0.14392 0.05361 0.414 0.0
C1662 C 0.14179 0.07758 0.41493 0.0
H1663 H 0.09916 0.16613 0.44092 0.0
H1664 H 0.11531 0.13521 0.44086 0.0
H1665 H 0.11855 0.11031 0.39494 0.0
H1666 H 0.15766 0.01863 0.38921 0.0
H1667 H 0.15697 0.05948 0.39113 0.0
C1668 C 0.97756 0.12796 0.40447 0.0
C1669 C 0.99406 0.14003 0.41664 0.0
C1670 C 0.95442 0.10408 0.40621 0.0
C1671 C 0.92413 0.04636 0.43048 0.0
H1672 H 0.86084 0.03098 0.4094 0.0
C1673 C 0.83273 0.94419 0.43329 0.0
C1674 C 0.82263 0.93371 0.41928 0.0
C1675 C 0.85028 0.97098 0.43488 0.0
C1676 C 0.87837 0.035 0.41537 0.0
H1677 H 0.99911 0.13685 0.44022 0.0
H1678 H 0.95878 0.09537 0.44325 0.0
H1679 H 0.89894 0.0748 0.4081 0.0
H1680 H 0.82135 0.94311 0.39618 0.0
H1681 H 0.85175 0.9895 0.39892 0.0
H1682 H 0.90392 0.00643 0.43738 0.0
C1683 C 0.96379 0.10413 0.43234 0.0
C1684 C 0.9002 0.06005 0.41458 0.0
C1685 C 0.98687 0.12794 0.4306 0.0
C1686 C 0.82894 0.95063 0.40712 0.0
C1687 C 0.84625 0.9773 0.40871 0.0
C1688 C 0.90233 0.02132 0.43126 0.0
C1689 C 0.94737 0.09183 0.42016 0.0
C1690 C 0.92349 0.06587 0.42189 0.0
C1691 C 0.85777 0.98769 0.42251 0.0
C1692 C 0.87937 0.0152 0.42347 0.0
H1693 H 0.98261 0.13684 0.39359 0.0
H1694 H 0.94236 0.09494 0.39657 0.0
H1695 H 0.94186 0.05011 0.43611 0.0
H1696 H 0.82819 0.93155 0.44284 0.0
H1697 H 0.85861 0.97849 0.44569 0.0
C1698 C 0.0503 0.87765 0.4024 0.0
C1699 C 0.06565 0.88975 0.41496 0.0
C1700 C 0.02348 0.86826 0.40261 0.0
C1701 C 0.96653 0.85338 0.42638 0.0
H1702 H 0.94479 0.87695 0.39193 0.0
C1703 C 0.87249 0.8603 0.4251 0.0
C1704 C 0.85822 0.85427 0.41182 0.0
C1705 C 0.89642 0.86097 0.42566 0.0
C1706 C 0.95031 0.86978 0.40151 0.0
H1707 H 0.06483 0.89994 0.43792 0.0
H1708 H 0.01773 0.88378 0.43826 0.0
H1709 H 0.98865 0.88339 0.39298 0.0
H1710 H 0.85747 0.84358 0.38879 0.0
H1711 H 0.89922 0.84447 0.38978 0.0
H1712 H 0.92814 0.84017 0.435 0.0
C1713 C 0.02645 0.88135 0.42828 0.0
C1714 C 0.97552 0.87348 0.40212 0.0
C1715 C 0.0534 0.89061 0.4281 0.0
C1716 C 0.86813 0.84847 0.39916 0.0
C1717 C 0.89208 0.84907 0.39972 0.0
C1718 C 0.9412 0.84961 0.42576 0.0
C1719 C 0.01142 0.87099 0.41534 0.0
C1720 C 0.984 0.86547 0.41458 0.0
C1721 C 0.90662 0.85557 0.41296 0.0
C1722 C 0.93289 0.85798 0.41335 0.0
H1723 H 0.05922 0.87646 0.39216 0.0
H1724 H 0.01234 0.85977 0.39258 0.0
H1725 H 0.97243 0.84683 0.43608 0.0
H1726 H 0.86534 0.86486 0.43506 0.0
H1727 H 0.90725 0.86642 0.43597 0.0
C1728 C 0.82814 0.88877 0.92591 0.0
C1729 C 0.83552 0.91508 0.92823 0.0
C1730 C 0.84711 0.88122 0.9253 0.0
C1731 C 0.91254 0.90822 0.91199 0.0
H1732 H 0.91437 0.85039 0.93093 0.0
C1733 C 0.99829 0.88928 0.90308 0.0
C1734 C 0.99347 0.86359 0.90408 0.0
C1735 C 0.97843 0.89489 0.90615 0.0
C1736 C 0.91391 0.86632 0.92531 0.0
H1737 H 0.86815 0.95357 0.93321 0.0
H1738 H 0.90113 0.94039 0.93195 0.0
H1739 H 0.88062 0.86075 0.93788 0.0
H1740 H 0.96393 0.82339 0.90824 0.0
H1741 H 0.92886 0.83284 0.91273 0.0
H1742 H 0.94484 0.91331 0.89893 0.0
C1743 C 0.88076 0.92571 0.93051 0.0
C1744 C 0.89471 0.87235 0.92944 0.0
C1745 C 0.86184 0.93317 0.93132 0.0
C1746 C 0.96815 0.84341 0.90744 0.0
C1747 C 0.94815 0.84891 0.91021 0.0
C1748 C 0.93137 0.90191 0.90765 0.0
C1749 C 0.87367 0.89994 0.92687 0.0
C1750 C 0.89406 0.8935 0.9229 0.0
C1751 C 0.95317 0.87482 0.91002 0.0
C1752 C 0.93247 0.88098 0.91431 0.0
H1753 H 0.80801 0.8744 0.92348 0.0
H1754 H 0.84121 0.8612 0.9225 0.0
H1755 H 0.91208 0.92434 0.90659 0.0
H1756 H 0.01776 0.90525 0.90072 0.0
H1757 H 0.98327 0.91512 0.90608 0.0
C1758 C 0.1217 0.93663 0.93104 0.0
C1759 C 0.09533 0.91816 0.93354 0.0
C1760 C 0.13071 0.96321 0.93302 0.0
C1761 C 0.13579 0.01396 0.9231 0.0
H1762 H 0.10739 0.04523 0.94947 0.0
C1763 C 0.13436 0.10746 0.90737 0.0
C1764 C 0.13885 0.12574 0.91854 0.0
C1765 C 0.13154 0.08317 0.91092 0.0
C1766 C 0.11579 0.03694 0.94211 0.0
H1767 H 0.05831 0.91265 0.94144 0.0
H1768 H 0.07377 0.95898 0.94458 0.0
H1769 H 0.09995 0.00157 0.95473 0.0
H1770 H 0.14419 0.13305 0.94219 0.0
H1771 H 0.13973 0.0909 0.94835 0.0
H1772 H 0.15174 0.04925 0.91053 0.0
C1773 C 0.0877 0.95313 0.94129 0.0
C1774 C 0.11132 0.01179 0.94506 0.0
C1775 C 0.0788 0.92647 0.93953 0.0
C1776 C 0.14063 0.11932 0.93332 0.0
C1777 C 0.13793 0.09509 0.93688 0.0
C1778 C 0.14035 0.03907 0.9202 0.0
C1779 C 0.1134 0.97187 0.93726 0.0
C1780 C 0.12089 -0.0002 0.93545 0.0
C1781 C 0.1333 0.07668 0.92573 0.0
C1782 C 0.12998 0.05069 0.92949 0.0
H1783 H 0.13489 0.93069 0.9265 0.0
H1784 H 0.15084 0.97706 0.93028 0.0
H1785 H 0.14313 0.0053 0.91527 0.0
H1786 H 0.13277 0.11181 0.89588 0.0
H1787 H 0.12755 0.06931 0.90207 0.0
C1788 C 0.05534 0.17965 0.90718 0.0
C1789 C 0.06908 0.17438 0.91801 0.0
C1790 C 0.02813 0.16552 0.90679 0.0
C1791 C 0.97675 0.11804 0.89991 0.0
H1792 H 0.92972 0.08662 0.93311 0.0
C1793 C 0.87849 0.02239 0.89471 0.0
C1794 C 0.85739 0.01903 0.90344 0.0
C1795 C 0.90302 0.04475 0.89625 0.0
C1796 C 0.9425 0.09551 0.92369 0.0
H1797 H 0.06552 0.15149 0.93745 0.0
H1798 H 0.01772 0.12605 0.93662 0.0
H1799 H 0.97468 0.12113 0.93757 0.0
H1800 H 0.84505 0.03706 0.92009 0.0
H1801 H 0.88776 0.07634 0.92257 0.0
H1802 H 0.94473 0.09252 0.88603 0.0
C1803 C 0.02786 0.14153 0.9286 0.0
C1804 C 0.96835 0.11509 0.92627 0.0
C1805 C 0.05522 0.15611 0.92914 0.0
C1806 C 0.86097 0.03907 0.91322 0.0
C1807 C 0.8855 0.06147 0.91475 0.0
C1808 C 0.95097 0.09858 0.89734 0.0
C1809 C 0.01409 0.14529 0.917 0.0
C1810 C 0.9859 0.12635 0.91441 0.0
C1811 C 0.90696 0.06429 0.90653 0.0
C1812 C 0.93363 0.08674 0.9092 0.0
H1813 H 0.06574 0.19371 0.89849 0.0
H1814 H 0.01817 0.16948 0.89797 0.0
H1815 H 0.98975 0.12587 0.89049 0.0
H1816 H 0.87637 0.00721 0.88716 0.0
H1817 H 0.91916 0.04615 0.88985 0.0
C1818 C 0.85627 0.98287 0.59289 0.0
C1819 C 0.86479 0.00129 0.58141 0.0
C1820 C 0.85774 0.96014 0.59141 0.0
C1821 C 0.86592 0.91819 0.56367 0.0
H1822 H 0.88675 0.89439 0.59832 0.0
C1823 C 0.90221 0.84249 0.56461 0.0
C1824 C 0.895 0.82633 0.57715 0.0
C1825 C 0.89432 0.86118 0.56327 0.0
C1826 C 0.88054 0.90055 0.58858 0.0
H1827 H 0.88158 0.01046 0.55936 0.0
H1828 H 0.88491 0.97117 0.55693 0.0
H1829 H 0.8825 0.933 0.60005 0.0
H1830 H 0.87182 0.81478 0.59721 0.0
H1831 H 0.85748 0.84666 0.59467 0.0
H1832 H 0.86482 0.88584 0.55216 0.0
C1833 C 0.87653 0.97394 0.56696 0.0
C1834 C 0.87807 0.9227 0.58958 0.0
C1835 C 0.87483 0.99657 0.5684 0.0
C1836 C 0.87778 0.82723 0.5875 0.0
C1837 C 0.86974 0.84558 0.5861 0.0
C1838 C 0.86861 0.89601 0.56264 0.0
C1839 C 0.86804 0.95546 0.57846 0.0
C1840 C 0.87059 0.93176 0.57718 0.0
C1841 C 0.87908 0.86368 0.57443 0.0
C1842 C 0.87573 0.88687 0.57515 0.0
H1843 H 0.84818 0.98587 0.60298 0.0
H1844 H 0.8506 0.94613 0.60039 0.0
H1845 H 0.85991 0.92453 0.55393 0.0
H1846 H 0.91567 0.84223 0.55656 0.0
H1847 H 0.90177 0.87489 0.55414 0.0
C1848 C 0.16213 0.05551 0.60142 0.0
C1849 C 0.17252 0.07053 0.58854 0.0
C1850 C 0.14632 0.02848 0.60054 0.0
C1851 C 0.10145 0.97806 0.57497 0.0
H1852 H 0.09986 0.93138 0.60567 0.0
C1853 C 0.02273 0.86927 0.57577 0.0
C1854 C 0.01037 0.85972 0.58949 0.0
C1855 C 0.04571 0.89338 0.57485 0.0
C1856 C 0.10005 0.9442 0.59704 0.0
H1857 H 0.17547 0.06898 0.56468 0.0
H1858 H 0.14776 0.02143 0.56311 0.0
H1859 H 0.13549 0.97663 0.60512 0.0
H1860 H 0.01276 0.86749 0.61307 0.0
H1861 H 0.05286 0.90979 0.61147 0.0
H1862 H 0.0657 0.94586 0.5671 0.0
C1863 C 0.1517 0.0307 0.57389 0.0
C1864 C 0.12045 0.97008 0.59671 0.0
C1865 C 0.16766 0.05787 0.57478 0.0
C1866 C 0.02188 0.87436 0.60235 0.0
C1867 C 0.04491 0.89851 0.60143 0.0
C1868 C 0.0811 0.95217 0.57528 0.0
C1869 C 0.14047 0.01578 0.58675 0.0
C1870 C 0.12105 0.98747 0.58587 0.0
C1871 C 0.05685 0.90845 0.58764 0.0
C1872 C 0.07988 0.93511 0.5865 0.0
H1873 H 0.16557 0.0647 0.6122 0.0
H1874 H 0.13773 0.01769 0.61064 0.0
H1875 H 0.1011 0.991 0.5666 0.0
H1876 H 0.0144 0.85834 0.56567 0.0
H1877 H 0.05463 0.90035 0.5641 0.0
C1878 C 0.12652 0.14685 0.57466 0.0
C1879 C 0.14049 0.15473 0.58805 0.0
C1880 C 0.10322 0.14721 0.57295 0.0
C1881 C 0.04993 0.1452 0.59503 0.0
H1882 H 0.029 0.16093 0.55744 0.0
C1883 C 0.94972 0.13544 0.58955 0.0
C1884 C 0.93478 0.12002 0.5776 0.0
C1885 C 0.97674 0.146 0.58974 0.0
C1886 C 0.03459 0.15647 0.568 0.0
H1887 H 0.14143 0.1699 0.61002 0.0
H1888 H 0.10084 0.17088 0.60702 0.0
H1889 H 0.07295 0.1672 0.56027 0.0
H1890 H 0.93642 0.10526 0.55592 0.0
H1891 H 0.98384 0.12346 0.55629 0.0
H1892 H 0.0116 0.13396 0.60271 0.0
C1893 C 0.10768 0.16399 0.5979 0.0
C1894 C 0.05972 0.15999 0.56962 0.0
C1895 C 0.13097 0.16352 0.59962 0.0
C1896 C 0.94756 0.11723 0.56523 0.0
C1897 C 0.9747 0.12762 0.56547 0.0
C1898 C 0.02494 0.14178 0.59343 0.0
C1899 C 0.09337 0.15557 0.58459 0.0
C1900 C 0.06756 0.15405 0.58311 0.0
C1901 C 0.98937 0.14108 0.57806 0.0
C1902 C 0.01684 0.1471 0.57986 0.0
H1903 H 0.13336 0.13997 0.56552 0.0
H1904 H 0.09256 0.1402 0.56265 0.0
H1905 H 0.05505 0.13992 0.60548 0.0
H1906 H 0.94033 0.13809 0.59918 0.0
H1907 H 0.98756 0.15686 0.59942 0.0
C1908 C 0.70021 0.49256 0.40336 0.0
C1909 C 0.68709 0.48302 0.4169 0.0
C1910 C 0.72091 0.48871 0.39943 0.0
C1911 C 0.74428 0.44342 0.40426 0.0
H1912 H 0.81397 0.50048 0.39564 0.0
C1913 C 0.82689 0.42297 0.39131 0.0
C1914 C 0.84588 0.43393 0.40247 0.0
C1915 C 0.80956 0.43229 0.38898 0.0
C1916 C 0.79449 0.48438 0.39777 0.0
H1917 H 0.68539 0.4622 0.437 0.0
H1918 H 0.7212 0.45483 0.42991 0.0
H1919 H 0.77852 0.50969 0.40072 0.0
H1920 H 0.86353 0.46455 0.41892 0.0
H1921 H 0.83404 0.4815 0.41447 0.0
H1922 H 0.76013 0.41812 0.40161 0.0
C1923 C 0.71556 0.46549 0.42245 0.0
C1924 C 0.77431 0.48963 0.4007 0.0
C1925 C 0.69523 0.46984 0.42653 0.0
C1926 C 0.84912 0.45596 0.41017 0.0
C1927 C 0.83225 0.46564 0.40762 0.0
C1928 C 0.76427 0.43813 0.40104 0.0
C1929 C 0.72843 0.47475 0.40883 0.0
C1930 C 0.74924 0.46923 0.40435 0.0
C1931 C 0.81147 0.45302 0.39758 0.0
C1932 C 0.78969 0.45859 0.39811 0.0
H1933 H 0.69433 0.50285 0.39575 0.0
H1934 H 0.73057 0.49599 0.38887 0.0
H1935 H 0.72503 0.42738 0.40694 0.0
H1936 H 0.82383 0.40571 0.3854 0.0
H1937 H 0.79369 0.42229 0.38116 0.0
C1938 C 0.5193 0.20844 0.40388 0.0
C1939 C 0.51684 0.19808 0.41819 0.0
C1940 C 0.52181 0.23299 0.40182 0.0
C1941 C 0.51076 0.28248 0.41999 0.0
H1942 H 0.56761 0.33173 0.39509 0.0
C1943 C 0.56075 0.39246 0.42818 0.0
C1944 C 0.57171 0.40956 0.41614 0.0
C1945 C 0.54832 0.36558 0.42613 0.0
C1946 C 0.55123 0.3181 0.40178 0.0
H1947 H 0.51465 0.2051 0.44156 0.0
H1948 H 0.51907 0.24811 0.43799 0.0
H1949 H 0.55743 0.28643 0.39623 0.0
H1950 H 0.57703 0.41205 0.39235 0.0
H1951 H 0.55512 0.36452 0.38867 0.0
H1952 H 0.50494 0.31425 0.42584 0.0
C1953 C 0.51887 0.23711 0.42835 0.0
C1954 C 0.54548 0.29215 0.4025 0.0
C1955 C 0.51654 0.2126 0.43041 0.0
C1956 C 0.56868 0.39923 0.40181 0.0
C1957 C 0.55635 0.3721 0.39974 0.0
C1958 C 0.51638 0.30836 0.41921 0.0
C1959 C 0.52171 0.24764 0.41403 0.0
C1960 C 0.5257 0.27427 0.41195 0.0
C1961 C 0.54661 0.35503 0.41196 0.0
C1962 C 0.53724 0.32668 0.41047 0.0
H1963 H 0.51953 0.19767 0.39422 0.0
H1964 H 0.52378 0.2405 0.39067 0.0
H1965 H 0.49505 0.26899 0.42713 0.0
H1966 H 0.56267 0.3999 0.43936 0.0
H1967 H 0.54141 0.35314 0.43582 0.0
C1968 C 0.77841 0.31391 0.42893 0.0
C1969 C 0.79751 0.32054 0.41796 0.0
C1970 C 0.75344 0.29221 0.42709 0.0
C1971 C 0.70865 0.24678 0.39823 0.0
H1972 H 0.67095 0.20627 0.4326 0.0
C1973 C 0.60469 0.1501 0.41769 0.0
C1974 C 0.58729 0.15402 0.40901 0.0
C1975 C 0.63155 0.16719 0.41668 0.0
C1976 C 0.68128 0.21696 0.42278 0.0
H1977 H 0.8057 0.30942 0.3966 0.0
H1978 H 0.7626 0.27116 0.39362 0.0
H1979 H 0.71517 0.24216 0.43548 0.0
H1980 H 0.58402 0.17779 0.3919 0.0
H1981 H 0.63094 0.20838 0.39042 0.0
H1982 H 0.67488 0.22101 0.38549 0.0
C1983 C 0.7665 0.28303 0.40346 0.0
C1984 C 0.70659 0.23799 0.42451 0.0
C1985 C 0.79131 0.30488 0.40522 0.0
C1986 C 0.59718 0.17417 0.39851 0.0
C1987 C 0.62411 0.19173 0.39773 0.0
C1988 C 0.68338 0.2255 0.39647 0.0
C1989 C 0.74715 0.27647 0.41432 0.0
C1990 C 0.72052 0.25341 0.41231 0.0
C1991 C 0.64152 0.18911 0.40731 0.0
C1992 C 0.66924 0.21044 0.40876 0.0
H1993 H 0.7826 0.32575 0.43881 0.0
H1994 H 0.73896 0.28807 0.43559 0.0
H1995 H 0.71863 0.25835 0.38858 0.0
H1996 H 0.5974 0.13465 0.42589 0.0
H1997 H 0.64436 0.16399 0.42386 0.0
C1998 C 0.7682 0.49414 0.76157 0.0
C1999 C 0.76779 0.50595 0.74816 0.0
C2000 C 0.77834 0.47717 0.76199 0.0
C2001 C 0.78452 0.43264 0.73659 0.0
H2002 H 0.82548 0.42439 0.7674 0.0
C2003 C 0.81589 0.35544 0.73143 0.0
C2004 C 0.81452 0.34145 0.74427 0.0
C2005 C 0.81317 0.37756 0.73232 0.0
C2006 C 0.81382 0.42631 0.75877 0.0
H2007 H 0.77988 0.51161 0.72515 0.0
H2008 H 0.79796 0.48265 0.72598 0.0
H2009 H 0.81645 0.4605 0.76881 0.0
H2010 H 0.80947 0.33969 0.76812 0.0
H2011 H 0.80399 0.37778 0.76963 0.0
H2012 H 0.78108 0.39829 0.72672 0.0
C2013 C 0.78987 0.48575 0.73604 0.0
C2014 C 0.80874 0.44702 0.75958 0.0
C2015 C 0.77966 0.50243 0.73559 0.0
C2016 C 0.81066 0.35013 0.75802 0.0
C2017 C 0.80773 0.3721 0.75891 0.0
C2018 C 0.7894 0.41194 0.73584 0.0
C2019 C 0.78823 0.472 0.74903 0.0
C2020 C 0.79416 0.45044 0.74843 0.0
C2021 C 0.80876 0.386 0.74606 0.0
C2022 C 0.80418 0.40852 0.74687 0.0
H2023 H 0.75906 0.4965 0.77138 0.0
H2024 H 0.77687 0.46682 0.77217 0.0
H2025 H 0.77268 0.43439 0.72801 0.0
H2026 H 0.81909 0.34934 0.7207 0.0
H2027 H 0.81454 0.38806 0.72222 0.0
C2028 C 0.48637 0.27352 0.74671 0.0
C2029 C 0.49016 0.25703 0.75628 0.0
C2030 C 0.50141 0.30049 0.74821 0.0
C2031 C 0.55055 0.35586 0.77016 0.0
H2032 H 0.58326 0.38017 0.73175 0.0
C2033 C 0.64732 0.45336 0.76184 0.0
C2034 C 0.65109 0.46678 0.74841 0.0
C2035 C 0.62499 0.42905 0.76406 0.0
C2036 C 0.57403 0.37404 0.74249 0.0
H2037 H 0.51074 0.25532 0.77568 0.0
H2038 H 0.5376 0.30297 0.77825 0.0
H2039 H 0.54743 0.33591 0.7344 0.0
H2040 H 0.63401 0.46605 0.72706 0.0
H2041 H 0.5946 0.42412 0.73108 0.0
H2042 H 0.57739 0.39421 0.77824 0.0
C2043 C 0.52273 0.29497 0.76972 0.0
C2044 C 0.55348 0.34856 0.74402 0.0
C2045 C 0.50736 0.26778 0.76829 0.0
C2046 C 0.63175 0.45593 0.73744 0.0
C2047 C 0.60923 0.43184 0.73974 0.0
C2048 C 0.57105 0.38164 0.7686 0.0
C2049 C 0.52083 0.31145 0.75916 0.0
C2050 C 0.54156 0.33915 0.75785 0.0
C2051 C 0.6058 0.41782 0.75296 0.0
C2052 C 0.58312 0.39098 0.75473 0.0
H2053 H 0.47312 0.26554 0.73738 0.0
H2054 H 0.49923 0.31277 0.7401 0.0
H2055 H 0.5417 0.34902 0.78094 0.0
H2056 H 0.66198 0.46131 0.77049 0.0
H2057 H 0.62323 0.41873 0.77428 0.0
C2058 C 0.72918 0.20521 0.75154 0.0
C2059 C 0.74679 0.22822 0.75893 0.0
C2060 C 0.70233 0.19551 0.75259 0.0
C2061 C 0.65099 0.20597 0.77044 0.0
H2062 H 0.61888 0.1844 0.73168 0.0
C2063 C 0.54385 0.17898 0.75973 0.0
C2064 C 0.53829 0.1869 0.74619 0.0
C2065 C 0.56822 0.18121 0.76222 0.0
C2066 C 0.62755 0.19058 0.74256 0.0
H2067 H 0.75047 0.25838 0.77392 0.0
H2068 H 0.70357 0.24207 0.77545 0.0
H2069 H 0.66279 0.19234 0.73552 0.0
H2070 H 0.55389 0.20344 0.72464 0.0
H2071 H 0.59671 0.20806 0.72908 0.0
H2072 H 0.61615 0.20568 0.77717 0.0
C2073 C 0.71024 0.23095 0.76914 0.0
C2074 C 0.65267 0.19466 0.74487 0.0
C2075 C 0.73716 0.2403 0.76834 0.0
C2076 C 0.55756 0.19701 0.73515 0.0
C2077 C 0.58206 0.1995 0.73769 0.0
C2078 C 0.62589 0.20212 0.76807 0.0
C2079 C 0.69258 0.20914 0.76068 0.0
C2080 C 0.66486 0.2026 0.75881 0.0
C2081 C 0.58773 0.19167 0.75127 0.0
C2082 C 0.61396 0.19465 0.75404 0.0
H2083 H 0.73627 0.19564 0.74417 0.0
H2084 H 0.68933 0.17817 0.74633 0.0
H2085 H 0.65961 0.21186 0.78134 0.0
H2086 H 0.52931 0.17097 0.76843 0.0
H2087 H 0.57166 0.17456 0.7727 0.0
C2088 C 0.64211 0.18437 0.23348 0.0
C2089 C 0.6584 0.18895 0.24575 0.0
C2090 C 0.61922 0.18563 0.23491 0.0
C2091 C 0.57294 0.18638 0.2627 0.0
H2092 H 0.55662 0.21941 0.23062 0.0
C2093 C 0.50075 0.22665 0.26596 0.0
C2094 C 0.48654 0.22427 0.25302 0.0
C2095 C 0.51869 0.21769 0.26617 0.0
C2096 C 0.56066 0.20978 0.2396 0.0
H2097 H 0.6635 0.19825 0.26919 0.0
H2098 H 0.62402 0.20123 0.27161 0.0
H2099 H 0.59434 0.21366 0.22859 0.0
H2100 H 0.47777 0.20842 0.23076 0.0
H2101 H 0.50846 0.19236 0.23124 0.0
H2102 H 0.53943 0.18336 0.27385 0.0
C2103 C 0.62852 0.19608 0.26094 0.0
C2104 C 0.5823 0.20643 0.23842 0.0
C2105 C 0.65128 0.1946 0.25952 0.0
C2106 C 0.48874 0.21077 0.24082 0.0
C2107 C 0.50642 0.20173 0.24106 0.0
C2108 C 0.55128 0.18992 0.26393 0.0
C2109 C 0.61227 0.19177 0.24863 0.0
C2110 C 0.58875 0.19466 0.24993 0.0
C2111 C 0.52247 0.20619 0.25346 0.0
C2112 C 0.54488 0.20157 0.25234 0.0
H2113 H 0.64698 0.17972 0.22276 0.0
H2114 H 0.60694 0.18172 0.22525 0.0
H2115 H 0.57718 0.177 0.27172 0.0
H2116 H 0.49946 0.2371 0.27548 0.0
H2117 H 0.53081 0.22136 0.27588 0.0
C2118 C 0.78812 0.28003 0.24241 0.0
C2119 C 0.77477 0.26221 0.25386 0.0
C2120 C 0.79883 0.30674 0.24467 0.0
C2121 C 0.78614 0.35065 0.26681 0.0
H2122 H 0.84583 0.40372 0.24515 0.0
C2123 C 0.80961 0.45776 0.26419 0.0
C2124 C 0.81487 0.4689 0.24996 0.0
C2125 C 0.80887 0.43412 0.26674 0.0
C2126 C 0.8291 0.38911 0.25125 0.0
H2127 H 0.76368 0.25834 0.27697 0.0
H2128 H 0.78262 0.30545 0.28104 0.0
H2129 H 0.83911 0.35959 0.24699 0.0
H2130 H 0.82399 0.46429 0.2273 0.0
H2131 H 0.82256 0.42281 0.23174 0.0
H2132 H 0.77575 0.37998 0.27074 0.0
C2133 C 0.78454 0.29861 0.27024 0.0
C2134 C 0.82528 0.36387 0.25235 0.0
C2135 C 0.77392 0.27171 0.26797 0.0
C2136 C 0.81984 0.45615 0.23838 0.0
C2137 C 0.81923 0.43252 0.24095 0.0
C2138 C 0.79004 0.37593 0.26578 0.0
C2139 C 0.79637 0.31633 0.25845 0.0
C2140 C 0.80331 0.34413 0.25976 0.0
C2141 C 0.81351 0.42114 0.25514 0.0
C2142 C 0.81115 0.39523 0.25764 0.0
H2143 H 0.78917 0.27323 0.23142 0.0
H2144 H 0.80751 0.31967 0.2353 0.0
H2145 H 0.76882 0.33589 0.27242 0.0
H2146 H 0.80581 0.46719 0.27337 0.0
H2147 H 0.80465 0.42597 0.27782 0.0
C2148 C 0.71895 0.49812 0.23842 0.0
C2149 C 0.73551 0.50555 0.25081 0.0
C2150 C 0.69207 0.48196 0.24001 0.0
C2151 C 0.64565 0.43006 0.26402 0.0
H2152 H 0.59454 0.43373 0.2387 0.0
C2153 C 0.53754 0.34863 0.26347 0.0
C2154 C 0.52597 0.34046 0.24943 0.0
C2155 C 0.56176 0.37132 0.26501 0.0
C2156 C 0.6086 0.43238 0.2458 0.0
H2157 H 0.73688 0.50311 0.2747 0.0
H2158 H 0.68952 0.47458 0.27754 0.0
H2159 H 0.63921 0.47046 0.23959 0.0
H2160 H 0.5305 0.34982 0.22602 0.0
H2161 H 0.57308 0.38936 0.22867 0.0
H2162 H 0.61533 0.39171 0.26989 0.0
C2163 C 0.69749 0.48122 0.26657 0.0
C2164 C 0.63414 0.45345 0.24636 0.0
C2165 C 0.72452 0.49767 0.26497 0.0
C2166 C 0.53895 0.35565 0.23698 0.0
C2167 C 0.56323 0.37839 0.23852 0.0
C2168 C 0.62011 0.409 0.26346 0.0
C2169 C 0.68108 0.4727 0.25404 0.0
C2170 C 0.65311 0.45228 0.25522 0.0
C2171 C 0.575 0.38637 0.25255 0.0
C2172 C 0.60144 0.40969 0.2541 0.0
H2173 H 0.72688 0.50399 0.22736 0.0
H2174 H 0.6801 0.47557 0.23011 0.0
H2175 H 0.65986 0.42836 0.27078 0.0
H2176 H 0.52794 0.33741 0.27329 0.0
H2177 H 0.57012 0.37709 0.27599 0.0
C2178 C 0.56593 0.17415 0.90426 0.0
C2179 C 0.56297 0.16067 0.91757 0.0
C2180 C 0.55645 0.1916 0.90311 0.0
C2181 C 0.54471 0.23327 0.92819 0.0
H2182 H 0.51614 0.24935 0.89377 0.0
C2183 C 0.51669 0.31331 0.93023 0.0
C2184 C 0.52351 0.32992 0.91791 0.0
C2185 C 0.51849 0.29065 0.92958 0.0
C2186 C 0.52429 0.24518 0.90344 0.0
H2187 H 0.54567 0.15253 0.93945 0.0
H2188 H 0.52837 0.18204 0.93728 0.0
H2189 H 0.52325 0.21196 0.8931 0.0
H2190 H 0.5374 0.33582 0.89522 0.0
H2191 H 0.54113 0.29664 0.8942 0.0
H2192 H 0.54645 0.26661 0.93844 0.0
C2193 C 0.53869 0.18 0.92793 0.0
C2194 C 0.52829 0.22376 0.90305 0.0
C2195 C 0.54841 0.16296 0.92913 0.0
C2196 C 0.532 0.32337 0.90491 0.0
C2197 C 0.53391 0.30079 0.90427 0.0
C2198 C 0.54081 0.25462 0.92856 0.0
C2199 C 0.54376 0.19551 0.91522 0.0
C2200 C 0.53849 0.21756 0.91545 0.0
C2201 C 0.5273 0.28421 0.91662 0.0
C2202 C 0.53058 0.26089 0.91621 0.0
H2203 H 0.57729 0.17278 0.89525 0.0
H2204 H 0.56064 0.20328 0.89318 0.0
H2205 H 0.55325 0.22947 0.93781 0.0
H2206 H 0.50986 0.31775 0.94036 0.0
H2207 H 0.51288 0.27811 0.93923 0.0
C2208 C 0.8387 0.39212 0.90422 0.0
C2209 C 0.82611 0.40662 0.90649 0.0
C2210 C 0.8239 0.36515 0.90167 0.0
C2211 C 0.785 0.3093 0.91196 0.0
H2212 H 0.72114 0.27593 0.88886 0.0
C2213 C 0.69331 0.21361 0.92933 0.0
C2214 C 0.67787 0.19594 0.91825 0.0
C2215 C 0.71514 0.23752 0.92552 0.0
C2216 C 0.7391 0.28478 0.89521 0.0
H2217 H 0.78882 0.40521 0.90677 0.0
H2218 H 0.76314 0.35858 0.90188 0.0
H2219 H 0.75319 0.32169 0.88443 0.0
H2220 H 0.67376 0.18894 0.89454 0.0
H2221 H 0.71178 0.23059 0.88794 0.0
H2222 H 0.77039 0.27266 0.92317 0.0
C2223 C 0.78423 0.36769 0.90213 0.0
C2224 C 0.75739 0.31102 0.8927 0.0
C2225 C 0.7989 0.39437 0.90496 0.0
C2226 C 0.68517 0.20224 0.90334 0.0
C2227 C 0.70691 0.22612 0.89954 0.0
C2228 C 0.76661 0.28307 0.91454 0.0
C2229 C 0.79646 0.3526 0.90106 0.0
C2230 C 0.78013 0.32375 0.90136 0.0
C2231 C 0.72189 0.24422 0.91056 0.0
C2232 C 0.74312 0.27076 0.90649 0.0
H2233 H 0.85967 0.40119 0.90554 0.0
H2234 H 0.83378 0.35394 0.90085 0.0
H2235 H 0.80225 0.31866 0.91891 0.0
H2236 H 0.68817 0.20927 0.94091 0.0
H2237 H 0.7261 0.25118 0.93427 0.0
C2238 C 0.79901 0.50526 0.91462 0.0
C2239 C 0.80191 0.49172 0.92658 0.0
C2240 C 0.77562 0.50537 0.91255 0.0
C2241 C 0.71261 0.48845 0.93109 0.0
H2242 H 0.68705 0.47986 0.89075 0.0
C2243 C 0.60737 0.44187 0.89982 0.0
C2244 C 0.5944 0.44863 0.91039 0.0
C2245 C 0.63458 0.45312 0.90039 0.0
C2246 C 0.69381 0.48215 0.90209 0.0
H2247 H 0.78294 0.46828 0.94597 0.0
H2248 H 0.74195 0.46777 0.94219 0.0
H2249 H 0.73074 0.48719 0.8954 0.0
H2250 H 0.59947 0.47408 0.92886 0.0
H2251 H 0.64692 0.49496 0.92928 0.0
H2252 H 0.67518 0.48152 0.93792 0.0
C2253 C 0.75783 0.47888 0.93455 0.0
C2254 C 0.71909 0.48675 0.90476 0.0
C2255 C 0.78133 0.47904 0.93671 0.0
C2256 C 0.60911 0.46846 0.92064 0.0
C2257 C 0.63627 0.48014 0.92099 0.0
C2258 C 0.68727 0.48351 0.92845 0.0
C2259 C 0.7545 0.49169 0.9223 0.0
C2260 C 0.72865 0.48947 0.91933 0.0
C2261 C 0.64929 0.47166 0.91139 0.0
C2262 C 0.67732 0.47987 0.91392 0.0
H2263 H 0.81464 0.51534 0.90667 0.0
H2264 H 0.77401 0.51589 0.90317 0.0
H2265 H 0.7194 0.49094 0.94244 0.0
H2266 H 0.59637 0.42638 0.89193 0.0
H2267 H 0.64376 0.44589 0.89286 0.0
C2268 C 0.3521 0.81531 0.73686 0.0
C2269 C 0.34385 0.8165 0.75129 0.0
C2270 C 0.37419 0.81297 0.73455 0.0
C2271 C 0.43331 0.8188 0.75223 0.0
H2272 H 0.41967 0.76031 0.7269 0.0
C2273 C 0.46783 0.73989 0.7502 0.0
C2274 C 0.4951 0.75496 0.74908 0.0
C2275 C 0.45226 0.75088 0.74726 0.0
C2276 C 0.42391 0.77695 0.73381 0.0
H2277 H 0.35301 0.81755 0.77462 0.0
H2278 H 0.39171 0.81339 0.77059 0.0
H2279 H 0.38755 0.77462 0.72854 0.0
H2280 H 0.52767 0.79311 0.74371 0.0
H2281 H 0.50019 0.81283 0.73897 0.0
H2282 H 0.4693 0.82031 0.75792 0.0
C2283 C 0.3811 0.81439 0.76106 0.0
C2284 C 0.4056 0.78521 0.73473 0.0
C2285 C 0.35887 0.8166 0.76338 0.0
C2286 C 0.50662 0.7811 0.74451 0.0
C2287 C 0.49099 0.79236 0.7419 0.0
C2288 C 0.45182 0.8107 0.75117 0.0
C2289 C 0.3886 0.81191 0.74663 0.0
C2290 C 0.40976 0.80574 0.74426 0.0
C2291 C 0.46369 0.77734 0.74343 0.0
C2292 C 0.44688 0.78921 0.74229 0.0
H2293 H 0.34105 0.81538 0.7273 0.0
H2294 H 0.37967 0.81139 0.72331 0.0
H2295 H 0.4371 0.83481 0.75957 0.0
H2296 H 0.45853 0.71968 0.75372 0.0
H2297 H 0.4313 0.73895 0.74867 0.0
C2298 C 0.21567 0.71599 0.76198 0.0
C2299 C 0.22816 0.73188 0.74969 0.0
C2300 C 0.20646 0.68926 0.76141 0.0
C2301 C 0.19341 0.63338 0.73719 0.0
H2302 H 0.21503 0.61099 0.77219 0.0
C2303 C 0.19844 0.53811 0.73992 0.0
C2304 C 0.19108 0.52395 0.75326 0.0
C2305 C 0.19978 0.56232 0.73892 0.0
C2306 C 0.20844 0.61672 0.76244 0.0
H2307 H 0.23935 0.73229 0.72682 0.0
H2308 H 0.2237 0.68526 0.72586 0.0
H2309 H 0.22187 0.65492 0.77104 0.0
H2310 H 0.17863 0.52365 0.77587 0.0
H2311 H 0.18074 0.56584 0.77411 0.0
H2312 H 0.18042 0.59504 0.72853 0.0
C2313 C 0.22071 0.69346 0.73589 0.0
C2314 C 0.21236 0.64196 0.76176 0.0
C2315 C 0.22966 0.72034 0.73642 0.0
C2316 C 0.18458 0.53422 0.76549 0.0
C2317 C 0.18587 0.55841 0.76448 0.0
C2318 C 0.18948 0.608 0.73787 0.0
C2319 C 0.20997 0.67787 0.74861 0.0
C2320 C 0.20486 0.65061 0.74917 0.0
C2321 C 0.19377 0.57288 0.75123 0.0
C2322 C 0.19699 0.59942 0.75051 0.0
H2323 H 0.21398 0.72442 0.77229 0.0
H2324 H 0.19759 0.67768 0.77125 0.0
H2325 H 0.18734 0.63945 0.72737 0.0
H2326 H 0.20353 0.53065 0.73029 0.0
H2327 H 0.20622 0.57308 0.72861 0.0
C2328 C 0.47062 0.63505 0.74625 0.0
C2329 C 0.47775 0.64576 0.76055 0.0
C2330 C 0.44744 0.61151 0.74395 0.0
C2331 C 0.39516 0.55305 0.76271 0.0
H2332 H 0.35042 0.55655 0.73245 0.0
C2333 C 0.28387 0.49157 0.76498 0.0
C2334 C 0.26905 0.48401 0.75188 0.0
C2335 C 0.31101 0.50662 0.76447 0.0
C2336 C 0.3628 0.55487 0.7407 0.0
H2337 H 0.46685 0.63957 0.78374 0.0
H2338 H 0.42632 0.59835 0.77974 0.0
H2339 H 0.39543 0.59184 0.7347 0.0
H2340 H 0.2711 0.4851 0.72792 0.0
H2341 H 0.31891 0.51142 0.72697 0.0
H2342 H 0.36236 0.51635 0.76893 0.0
C2343 C 0.43873 0.60814 0.77031 0.0
C2344 C 0.38862 0.57519 0.74203 0.0
C2345 C 0.46186 0.6318 0.7726 0.0
C2346 C 0.28205 0.49071 0.73819 0.0
C2347 C 0.30938 0.5059 0.73766 0.0
C2348 C 0.3694 0.53263 0.76131 0.0
C2349 C 0.43097 0.59807 0.75591 0.0
C2350 C 0.40485 0.57484 0.75331 0.0
C2351 C 0.32412 0.51453 0.75083 0.0
C2352 C 0.35265 0.53368 0.75059 0.0
H2353 H 0.48252 0.6453 0.73674 0.0
H2354 H 0.44212 0.60407 0.73277 0.0
H2355 H 0.40735 0.55205 0.77135 0.0
H2356 H 0.27444 0.48665 0.77572 0.0
H2357 H 0.32157 0.51316 0.77483 0.0
C2358 C 0.43644 0.83181 0.1005 0.0
C2359 C 0.43532 0.84154 0.0865 0.0
C2360 C 0.44694 0.81529 0.10203 0.0
C2361 C 0.48462 0.78951 0.08201 0.0
H2362 H 0.43867 0.72541 0.10297 0.0
C2363 C 0.47948 0.69161 0.06919 0.0
C2364 C 0.47686 0.67527 0.08113 0.0
C2365 C 0.47837 0.7144 0.07153 0.0
C2366 C 0.45197 0.74333 0.09727 0.0
H2367 H 0.44596 0.84332 0.06337 0.0
H2368 H 0.46402 0.81467 0.06598 0.0
H2369 H 0.43143 0.76239 0.10477 0.0
H2370 H 0.4713 0.67008 0.1049 0.0
H2371 H 0.46926 0.70978 0.10897 0.0
H2372 H 0.50449 0.76998 0.07404 0.0
C2373 C 0.457 0.81968 0.07582 0.0
C2374 C 0.4479 0.7646 0.09836 0.0
C2375 C 0.44645 0.83599 0.0743 0.0
C2376 C 0.47329 0.68224 0.09546 0.0
C2377 C 0.47205 0.70493 0.0978 0.0
C2378 C 0.48861 0.7682 0.08087 0.0
C2379 C 0.45664 0.80847 0.0896 0.0
C2380 C 0.46377 0.78771 0.09044 0.0
C2381 C 0.47449 0.72122 0.08586 0.0
C2382 C 0.47195 0.74469 0.08821 0.0
H2383 H 0.42799 0.83581 0.11009 0.0
H2384 H 0.44668 0.8072 0.11283 0.0
H2385 H 0.49746 0.80718 0.07597 0.0
H2386 H 0.48228 0.68675 0.05802 0.0
H2387 H 0.47997 0.72639 0.06208 0.0
C2388 C 0.15409 0.60662 0.06963 0.0
C2389 C 0.15139 0.59077 0.08184 0.0
C2390 C 0.17109 0.63348 0.07021 0.0
C2391 C 0.21272 0.68972 0.09446 0.0
H2392 H 0.25745 0.71338 0.05978 0.0
C2393 C 0.31153 0.78653 0.09294 0.0
C2394 C 0.31893 0.80082 0.07965 0.0
C2395 C 0.28899 0.76199 0.09358 0.0
C2396 C 0.24491 0.70732 0.06944 0.0
H2397 H 0.16286 0.59067 0.10461 0.0
H2398 H 0.19305 0.63793 0.10563 0.0
H2399 H 0.22092 0.66903 0.06067 0.0
H2400 H 0.3082 0.80095 0.05671 0.0
H2401 H 0.26858 0.75823 0.05785 0.0
H2402 H 0.23709 0.72812 0.10328 0.0
C2403 C 0.18181 0.62954 0.09562 0.0
C2404 C 0.22393 0.68183 0.06996 0.0
C2405 C 0.16452 0.60251 0.09507 0.0
C2406 C 0.30308 0.7903 0.06707 0.0
C2407 C 0.28045 0.76578 0.06773 0.0
C2408 C 0.23375 0.71536 0.09392 0.0
C2409 C 0.18602 0.64511 0.08298 0.0
C2410 C 0.2076 0.67268 0.08247 0.0
C2411 C 0.27327 0.75121 0.08096 0.0
C2412 C 0.25017 0.72441 0.08141 0.0
H2413 H 0.14395 0.59808 0.05934 0.0
H2414 H 0.17338 0.64503 0.06042 0.0
H2415 H 0.2004 0.68328 0.10421 0.0
H2416 H 0.32338 0.79413 0.10282 0.0
H2417 H 0.28428 0.75119 0.10388 0.0
C2418 C 0.39094 0.56163 0.09725 0.0
C2419 C 0.40245 0.55841 0.08442 0.0
C2420 C 0.36387 0.55178 0.09774 0.0
C2421 C 0.31235 0.53949 0.07126 0.0
H2422 H 0.26468 0.50966 0.10436 0.0
C2423 C 0.20455 0.51154 0.06576 0.0
C2424 C 0.19331 0.51727 0.07782 0.0
C2425 C 0.22898 0.51339 0.06719 0.0
C2426 C 0.27784 0.51819 0.09505 0.0
H2427 H 0.39482 0.54022 0.06278 0.0
H2428 H 0.3478 0.5225 0.06379 0.0
H2429 H 0.30928 0.51727 0.10646 0.0
H2430 H 0.19867 0.52928 0.10087 0.0
H2431 H 0.24154 0.53325 0.10324 0.0
H2432 H 0.28161 0.54132 0.05997 0.0
C2433 C 0.35951 0.53319 0.07328 0.0
C2434 C 0.30331 0.52245 0.09627 0.0
C2435 C 0.38639 0.54316 0.07274 0.0
C2436 C 0.20684 0.5247 0.09137 0.0
C2437 C 0.23134 0.52675 0.09277 0.0
C2438 C 0.28709 0.53543 0.07009 0.0
C2439 C 0.34813 0.53853 0.08543 0.0
C2440 C 0.32079 0.53307 0.08435 0.0
C2441 C 0.24279 0.52126 0.08068 0.0
C2442 C 0.26946 0.52473 0.08194 0.0
H2443 H 0.403 0.57351 0.10634 0.0
H2444 H 0.35559 0.55616 0.10727 0.0
H2445 H 0.32556 0.54831 0.062 0.0
H2446 H 0.19445 0.50554 0.05523 0.0
H2447 H 0.237 0.50859 0.05772 0.0
C2448 C 0.16336 0.54853 0.57107 0.0
C2449 C 0.1588 0.56221 0.58227 0.0
C2450 C 0.17738 0.5359 0.57403 0.0
C2451 C 0.23006 0.54347 0.59788 0.0
H2452 H 0.22062 0.48301 0.57586 0.0
C2453 C 0.31073 0.51563 0.5942 0.0
C2454 C 0.31645 0.5116 0.57965 0.0
C2455 C 0.28812 0.51673 0.59724 0.0
C2456 C 0.22347 0.49986 0.58212 0.0
H2457 H 0.16383 0.57216 0.60557 0.0
H2458 H 0.1888 0.55004 0.61084 0.0
H2459 H 0.18486 0.49236 0.57733 0.0
H2460 H 0.30268 0.50485 0.55695 0.0
H2461 H 0.26316 0.50676 0.56224 0.0
H2462 H 0.26898 0.55146 0.60222 0.0
C2463 C 0.18149 0.5492 0.59973 0.0
C2464 C 0.203 0.50519 0.583 0.0
C2465 C 0.1671 0.56168 0.59676 0.0
C2466 C 0.29881 0.50804 0.56826 0.0
C2467 C 0.27609 0.50892 0.57132 0.0
C2468 C 0.25048 0.53803 0.59708 0.0
C2469 C 0.18737 0.53679 0.58826 0.0
C2470 C 0.20644 0.52765 0.59037 0.0
C2471 C 0.27065 0.51356 0.58581 0.0
C2472 C 0.2477 0.51674 0.58872 0.0
H2473 H 0.15703 0.54851 0.5598 0.0
H2474 H 0.18178 0.52688 0.56488 0.0
H2475 H 0.23346 0.56106 0.60351 0.0
H2476 H 0.32395 0.51838 0.60323 0.0
H2477 H 0.28437 0.5202 0.60852 0.0
C2478 C 0.43865 0.60794 0.56646 0.0
C2479 C 0.43035 0.59147 0.57889 0.0
C2480 C 0.44956 0.6348 0.56807 0.0
C2481 C 0.44674 0.68199 0.59276 0.0
H2482 H 0.49965 0.73194 0.56612 0.0
C2483 C 0.47648 0.79105 0.59228 0.0
C2484 C 0.47856 0.80223 0.57825 0.0
C2485 C 0.47406 0.76643 0.59364 0.0
C2486 C 0.48478 0.7182 0.57359 0.0
H2487 H 0.42809 0.59022 0.60284 0.0
H2488 H 0.44731 0.63765 0.60573 0.0
H2489 H 0.4912 0.68712 0.56695 0.0
H2490 H 0.47996 0.79652 0.55463 0.0
H2491 H 0.47552 0.75329 0.55698 0.0
H2492 H 0.43989 0.71291 0.59913 0.0
C2493 C 0.44517 0.62958 0.59471 0.0
C2494 C 0.48001 0.69258 0.57411 0.0
C2495 C 0.43438 0.60253 0.59309 0.0
C2496 C 0.47839 0.78838 0.56559 0.0
C2497 C 0.47605 0.76373 0.56695 0.0
C2498 C 0.45158 0.70765 0.59226 0.0
C2499 C 0.45236 0.64592 0.58217 0.0
C2500 C 0.46047 0.67401 0.58343 0.0
C2501 C 0.47374 0.75245 0.581 0.0
C2502 C 0.47023 0.72587 0.58242 0.0
H2503 H 0.43589 0.59996 0.55537 0.0
H2504 H 0.45454 0.64668 0.55817 0.0
H2505 H 0.43132 0.6681 0.5999 0.0
H2506 H 0.47665 0.80129 0.60227 0.0
H2507 H 0.47258 0.75839 0.60461 0.0
C2508 C 0.39291 0.85342 0.58131 0.0
C2509 C 0.40994 0.84826 0.58953 0.0
C2510 C 0.36598 0.83647 0.58197 0.0
C2511 C 0.31347 0.77546 0.6 0.0
H2512 H 0.28312 0.76391 0.56071 0.0
C2513 C 0.20735 0.69396 0.58837 0.0
C2514 C 0.20251 0.68041 0.5749 0.0
C2515 C 0.23137 0.71645 0.59099 0.0
C2516 C 0.29129 0.76666 0.57174 0.0
H2517 H 0.41246 0.82242 0.60553 0.0
H2518 H 0.36549 0.79208 0.60631 0.0
H2519 H 0.32682 0.79992 0.56487 0.0
H2520 H 0.21898 0.67967 0.5536 0.0
H2521 H 0.26125 0.71838 0.5583 0.0
H2522 H 0.27844 0.741 0.60658 0.0
C2523 C 0.37262 0.80956 0.59967 0.0
C2524 C 0.3163 0.78776 0.57423 0.0
C2525 C 0.39959 0.82698 0.59928 0.0
C2526 C 0.22211 0.68984 0.56405 0.0
C2527 C 0.24629 0.71215 0.56674 0.0
C2528 C 0.28853 0.7541 0.59746 0.0
C2529 C 0.35558 0.81347 0.59047 0.0
C2530 C 0.32789 0.79237 0.58836 0.0
C2531 C 0.25127 0.72575 0.58027 0.0
C2532 C 0.27724 0.74923 0.58323 0.0
H2533 H 0.40056 0.86978 0.5737 0.0
H2534 H 0.35347 0.84068 0.57515 0.0
H2535 H 0.32156 0.77848 0.61107 0.0
H2536 H 0.19251 0.68723 0.59691 0.0
H2537 H 0.23424 0.7266 0.60142 0.0
C2538 C 0.21382 0.49453 0.25588 0.0
C2539 C 0.22677 0.48947 0.24445 0.0
C2540 C 0.20371 0.51102 0.25355 0.0
C2541 C 0.21729 0.56767 0.23111 0.0
H2542 H 0.15846 0.56257 0.25301 0.0
C2543 C 0.19394 0.65177 0.23346 0.0
C2544 C 0.18918 0.65801 0.24772 0.0
C2545 C 0.19506 0.62902 0.23102 0.0
C2546 C 0.17495 0.56427 0.24684 0.0
H2547 H 0.23782 0.49622 0.22132 0.0
H2548 H 0.21989 0.52524 0.21713 0.0
H2549 H 0.16426 0.52461 0.25124 0.0
H2550 H 0.18165 0.64523 0.27059 0.0
H2551 H 0.18356 0.6054 0.26634 0.0
H2552 H 0.22825 0.60752 0.22699 0.0
C2553 C 0.21781 0.51655 0.22796 0.0
C2554 C 0.17825 0.54253 0.24579 0.0
C2555 C 0.22784 0.49977 0.2303 0.0
C2556 C 0.18538 0.64095 0.25949 0.0
C2557 C 0.18627 0.61806 0.25703 0.0
C2558 C 0.21387 0.58937 0.23208 0.0
C2559 C 0.20637 0.52299 0.23972 0.0
C2560 C 0.19993 0.54421 0.23832 0.0
C2561 C 0.19118 0.6119 0.24277 0.0
C2562 C 0.1931 0.5881 0.24032 0.0
H2563 H 0.21265 0.48675 0.2669 0.0
H2564 H 0.19532 0.51569 0.26291 0.0
H2565 H 0.23439 0.5698 0.22544 0.0
H2566 H 0.19691 0.66454 0.22416 0.0
H2567 H 0.19875 0.62472 0.21992 0.0
C2568 C 0.49926 0.72785 0.23192 0.0
C2569 C 0.50786 0.73901 0.24599 0.0
C2570 C 0.48284 0.7008 0.23046 0.0
C2571 C 0.45606 0.63786 0.25108 0.0
H2572 H 0.39333 0.61834 0.22828 0.0
C2573 C 0.35791 0.54476 0.26286 0.0
C2574 C 0.34241 0.53058 0.25074 0.0
C2575 C 0.38072 0.56873 0.26067 0.0
C2576 C 0.41089 0.62335 0.23451 0.0
H2577 H 0.5076 0.73065 0.2694 0.0
H2578 H 0.47915 0.68391 0.26691 0.0
H2579 H 0.43009 0.66276 0.22668 0.0
H2580 H 0.33876 0.53017 0.22681 0.0
H2581 H 0.3785 0.57203 0.22301 0.0
H2582 H 0.43638 0.59867 0.25935 0.0
C2583 C 0.48498 0.69573 0.25696 0.0
C2584 C 0.43202 0.6488 0.23354 0.0
C2585 C 0.50116 0.72261 0.25841 0.0
C2586 C 0.35026 0.5407 0.23639 0.0
C2587 C 0.37297 0.5647 0.2342 0.0
C2588 C 0.43489 0.61246 0.2521 0.0
C2589 C 0.47501 0.68454 0.24305 0.0
C2590 C 0.45459 0.65654 0.24211 0.0
C2591 C 0.3884 0.57903 0.24631 0.0
C2592 C 0.41185 0.60511 0.24409 0.0
H2593 H 0.50414 0.74008 0.22217 0.0
H2594 H 0.47566 0.6927 0.21957 0.0
H2595 H 0.47334 0.64309 0.25764 0.0
H2596 H 0.35235 0.53744 0.27405 0.0
H2597 H 0.39202 0.57949 0.27025 0.0
C2598 C 0.46035 0.82591 0.26099 0.0
C2599 C 0.47041 0.81787 0.24934 0.0
C2600 C 0.43632 0.82488 0.25947 0.0
C2601 C 0.38602 0.81718 0.23176 0.0
H2602 H 0.34019 0.79135 0.26585 0.0
C2603 C 0.27283 0.77184 0.23067 0.0
C2604 C 0.26146 0.77572 0.24335 0.0
C2605 C 0.30001 0.78252 0.22994 0.0
C2606 C 0.35286 0.79904 0.25628 0.0
H2607 H 0.46346 0.80286 0.22687 0.0
H2608 H 0.42124 0.80033 0.22437 0.0
H2609 H 0.38427 0.79878 0.26776 0.0
H2610 H 0.26928 0.79586 0.26439 0.0
H2611 H 0.31649 0.81513 0.26291 0.0
H2612 H 0.35388 0.81643 0.22018 0.0
C2613 C 0.43208 0.80797 0.23457 0.0
C2614 C 0.37822 0.80333 0.25739 0.0
C2615 C 0.4562 0.8092 0.23605 0.0
C2616 C 0.27764 0.79243 0.25455 0.0
C2617 C 0.30463 0.80328 0.25375 0.0
C2618 C 0.36045 0.8127 0.23062 0.0
C2619 C 0.4217 0.81555 0.24631 0.0
C2620 C 0.39514 0.81236 0.24515 0.0
C2621 C 0.316 0.7973 0.24184 0.0
C2622 C 0.34361 0.80356 0.24289 0.0
H2623 H 0.47101 0.83292 0.2713 0.0
H2624 H 0.42914 0.83131 0.26864 0.0
H2625 H 0.39863 0.8244 0.22215 0.0
H2626 H 0.26067 0.75883 0.22196 0.0
H2627 H 0.30823 0.77758 0.22061 0.0
loop_
_geom_bond_atom_site_label_1
_geom_bond_atom_site_label_2
_geom_bond_distance
_geom_bond_site_symmetry_2
_ccdc_geom_bond_type
In0 O1 2.294 . S
In0 O2 2.326 . S
In0 O6 2.266 . S
In0 O7 2.326 . S
In0 O8 2.266 . S
In0 O9 2.326 . S
In0 O11 2.294 . S
In0 O12 2.326 . S
O1 In0 2.294 . S
O1 C10 1.240 . S
O2 In0 2.326 . S
O2 C10 1.252 . S
C3 O6 1.252 . S
C3 O7 1.260 . S
C4 O11 1.240 . S
C4 O12 1.252 . S
C5 O8 1.252 . S
C5 O9 1.260 . S
O6 In0 2.266 . S
O6 C3 1.252 . S
O7 In0 2.326 . S
O7 C3 1.260 . S
O8 In0 2.266 . S
O8 C5 1.252 . S
O9 In0 2.326 . S
O9 C5 1.260 . S
C10 O1 1.240 . S
C10 O2 1.252 . S
O11 In0 2.294 . S
O11 C4 1.240 . S
O12 In0 2.326 . S
O12 C4 1.252 . S
In13 O14 2.294 . S
In13 O15 2.326 . S
In13 O19 2.266 . S
In13 O20 2.326 . S
In13 O21 2.266 . S
In13 O22 2.326 . S
In13 O24 2.294 . S
In13 O25 2.326 . S
O14 In13 2.294 . S
O14 C23 1.240 . S
O15 In13 2.326 . S
O15 C23 1.252 . S
C16 O19 1.252 . S
C16 O20 1.260 . S
C17 O24 1.240 . S
C17 O25 1.252 . S
C18 O21 1.252 . S
C18 O22 1.260 . S
O19 In13 2.266 . S
O19 C16 1.252 . S
O20 In13 2.326 . S
O20 C16 1.260 . S
O21 In13 2.266 . S
O21 C18 1.252 . S
O22 In13 2.326 . S
O22 C18 1.260 . S
C23 O14 1.240 . S
C23 O15 1.252 . S
O24 In13 2.294 . S
O24 C17 1.240 . S
O25 In13 2.326 . S
O25 C17 1.252 . S
In26 O27 2.294 . S
In26 O28 2.326 . S
In26 O32 2.266 . S
In26 O33 2.326 . S
In26 O34 2.266 . S
In26 O35 2.326 . S
In26 O37 2.294 . S
In26 O38 2.326 . S
O27 In26 2.294 . S
O27 C36 1.240 . S
O28 In26 2.326 . S
O28 C36 1.252 . S
C29 O32 1.252 . S
C29 O33 1.260 . S
C30 O37 1.240 . S
C30 O38 1.252 . S
C31 O34 1.252 . S
C31 O35 1.260 . S
O32 In26 2.266 . S
O32 C29 1.252 . S
O33 In26 2.326 . S
O33 C29 1.260 . S
O34 In26 2.266 . S
O34 C31 1.252 . S
O35 In26 2.326 . S
O35 C31 1.260 . S
C36 O27 1.240 . S
C36 O28 1.252 . S
O37 In26 2.294 . S
O37 C30 1.240 . S
O38 In26 2.326 . S
O38 C30 1.252 . S
In39 O40 2.294 . S
In39 O41 2.326 . S
In39 O45 2.266 . S
In39 O46 2.326 . S
In39 O47 2.266 . S
In39 O48 2.326 . S
In39 O50 2.294 . S
In39 O51 2.326 . S
O40 In39 2.294 . S
O40 C49 1.240 . S
O41 In39 2.326 . S
O41 C49 1.252 . S
C42 O45 1.252 . S
C42 O46 1.260 . S
C43 O50 1.240 . S
C43 O51 1.252 . S
C44 O47 1.252 . S
C44 O48 1.260 . S
O45 In39 2.266 . S
O45 C42 1.252 . S
O46 In39 2.326 . S
O46 C42 1.260 . S
O47 In39 2.266 . S
O47 C44 1.252 . S
O48 In39 2.326 . S
O48 C44 1.260 . S
C49 O40 1.240 . S
C49 O41 1.252 . S
O50 In39 2.294 . S
O50 C43 1.240 . S
O51 In39 2.326 . S
O51 C43 1.252 . S
In52 O53 2.294 . S
In52 O54 2.326 . S
In52 O58 2.266 . S
In52 O59 2.326 . S
In52 O60 2.266 . S
In52 O61 2.326 . S
In52 O63 2.294 . S
In52 O64 2.326 . S
O53 In52 2.294 . S
O53 C62 1.240 . S
O54 In52 2.326 . S
O54 C62 1.252 . S
C55 O58 1.252 . S
C55 O59 1.260 . S
C56 O63 1.240 . S
C56 O64 1.252 . S
C57 O60 1.252 . S
C57 O61 1.260 . S
O58 In52 2.266 . S
O58 C55 1.252 . S
O59 In52 2.326 . S
O59 C55 1.260 . S
O60 In52 2.266 . S
O60 C57 1.252 . S
O61 In52 2.326 . S
O61 C57 1.260 . S
C62 O53 1.240 . S
C62 O54 1.252 . S
O63 In52 2.294 . S
O63 C56 1.240 . S
O64 In52 2.326 . S
O64 C56 1.252 . S
In65 O66 2.294 . S
In65 O67 2.326 . S
In65 O71 2.266 . S
In65 O72 2.326 . S
In65 O73 2.266 . S
In65 O74 2.326 . S
In65 O76 2.294 . S
In65 O77 2.326 . S
O66 In65 2.294 . S
O66 C75 1.240 . S
O67 In65 2.326 . S
O67 C75 1.252 . S
C68 O71 1.252 . S
C68 O72 1.260 . S
C69 O76 1.240 . S
C69 O77 1.252 . S
C70 O73 1.252 . S
C70 O74 1.260 . S
O71 In65 2.266 . S
O71 C68 1.252 . S
O72 In65 2.326 . S
O72 C68 1.260 . S
O73 In65 2.266 . S
O73 C70 1.252 . S
O74 In65 2.326 . S
O74 C70 1.260 . S
C75 O66 1.240 . S
C75 O67 1.252 . S
O76 In65 2.294 . S
O76 C69 1.240 . S
O77 In65 2.326 . S
O77 C69 1.252 . S
In78 O79 2.294 . S
In78 O80 2.326 . S
In78 O84 2.266 . S
In78 O85 2.326 . S
In78 O86 2.266 . S
In78 O87 2.326 . S
In78 O89 2.294 . S
In78 O90 2.326 . S
O79 In78 2.294 . S
O79 C88 1.240 . S
O80 In78 2.326 . S
O80 C88 1.252 . S
C81 O84 1.252 . S
C81 O85 1.260 . S
C82 O89 1.240 . S
C82 O90 1.252 . S
C83 O86 1.252 . S
C83 O87 1.260 . S
O84 In78 2.266 . S
O84 C81 1.252 . S
O85 In78 2.326 . S
O85 C81 1.260 . S
O86 In78 2.266 . S
O86 C83 1.252 . S
O87 In78 2.326 . S
O87 C83 1.260 . S
C88 O79 1.240 . S
C88 O80 1.252 . S
O89 In78 2.294 . S
O89 C82 1.240 . S
O90 In78 2.326 . S
O90 C82 1.252 . S
In91 O92 2.294 . S
In91 O93 2.326 . S
In91 O97 2.266 . S
In91 O98 2.326 . S
In91 O99 2.266 . S
In91 O100 2.326 . S
In91 O102 2.294 . S
In91 O103 2.326 . S
O92 In91 2.294 . S
O92 C101 1.240 . S
O93 In91 2.326 . S
O93 C101 1.252 . S
C94 O97 1.252 . S
C94 O98 1.260 . S
C95 O102 1.240 . S
C95 O103 1.252 . S
C96 O99 1.252 . S
C96 O100 1.260 . S
O97 In91 2.266 . S
O97 C94 1.252 . S
O98 In91 2.326 . S
O98 C94 1.260 . S
O99 In91 2.266 . S
O99 C96 1.252 . S
O100 In91 2.326 . S
O100 C96 1.260 . S
C101 O92 1.240 . S
C101 O93 1.252 . S
O102 In91 2.294 . S
O102 C95 1.240 . S
O103 In91 2.326 . S
O103 C95 1.252 . S
In104 O105 2.294 . S
In104 O106 2.326 . S
In104 O110 2.266 . S
In104 O111 2.326 . S
In104 O112 2.266 . S
In104 O113 2.326 . S
In104 O115 2.294 . S
In104 O116 2.326 . S
O105 In104 2.294 . S
O105 C114 1.240 . S
O106 In104 2.326 . S
O106 C114 1.252 . S
C107 O110 1.252 . S
C107 O111 1.260 . S
C108 O115 1.240 . S
C108 O116 1.252 . S
C109 O112 1.252 . S
C109 O113 1.260 . S
O110 In104 2.266 . S
O110 C107 1.252 . S
O111 In104 2.326 . S
O111 C107 1.260 . S
O112 In104 2.266 . S
O112 C109 1.252 . S
O113 In104 2.326 . S
O113 C109 1.260 . S
C114 O105 1.240 . S
C114 O106 1.252 . S
O115 In104 2.294 . S
O115 C108 1.240 . S
O116 In104 2.326 . S
O116 C108 1.252 . S
In117 O118 2.294 . S
In117 O119 2.326 . S
In117 O123 2.266 . S
In117 O124 2.326 . S
In117 O125 2.266 . S
In117 O126 2.326 . S
In117 O128 2.294 . S
In117 O129 2.326 . S
O118 In117 2.294 . S
O118 C127 1.240 . S
O119 In117 2.326 . S
O119 C127 1.252 . S
C120 O123 1.252 . S
C120 O124 1.260 . S
C121 O128 1.240 . S
C121 O129 1.252 . S
C122 O125 1.252 . S
C122 O126 1.260 . S
O123 In117 2.266 . S
O123 C120 1.252 . S
O124 In117 2.326 . S
O124 C120 1.260 . S
O125 In117 2.266 . S
O125 C122 1.252 . S
O126 In117 2.326 . S
O126 C122 1.260 . S
C127 O118 1.240 . S
C127 O119 1.252 . S
O128 In117 2.294 . S
O128 C121 1.240 . S
O129 In117 2.326 . S
O129 C121 1.252 . S
In130 O131 2.294 . S
In130 O132 2.326 . S
In130 O136 2.266 . S
In130 O137 2.326 . S
In130 O138 2.266 . S
In130 O139 2.326 . S
In130 O141 2.294 . S
In130 O142 2.326 . S
O131 In130 2.294 . S
O131 C140 1.240 . S
O132 In130 2.326 . S
O132 C140 1.252 . S
C133 O136 1.252 . S
C133 O137 1.260 . S
C134 O141 1.240 . S
C134 O142 1.252 . S
C135 O138 1.252 . S
C135 O139 1.260 . S
O136 In130 2.266 . S
O136 C133 1.252 . S
O137 In130 2.326 . S
O137 C133 1.260 . S
O138 In130 2.266 . S
O138 C135 1.252 . S
O139 In130 2.326 . S
O139 C135 1.260 . S
C140 O131 1.240 . S
C140 O132 1.252 . S
O141 In130 2.294 . S
O141 C134 1.240 . S
O142 In130 2.326 . S
O142 C134 1.252 . S
In143 O144 2.294 . S
In143 O145 2.326 . S
In143 O149 2.266 . S
In143 O150 2.326 . S
In143 O151 2.266 . S
In143 O152 2.326 . S
In143 O154 2.294 . S
In143 O155 2.326 . S
O144 In143 2.294 . S
O144 C153 1.240 . S
O145 In143 2.326 . S
O145 C153 1.252 . S
C146 O149 1.252 . S
C146 O150 1.260 . S
C147 O154 1.240 . S
C147 O155 1.252 . S
C148 O151 1.252 . S
C148 O152 1.260 . S
O149 In143 2.266 . S
O149 C146 1.252 . S
O150 In143 2.326 . S
O150 C146 1.260 . S
O151 In143 2.266 . S
O151 C148 1.252 . S
O152 In143 2.326 . S
O152 C148 1.260 . S
C153 O144 1.240 . S
C153 O145 1.252 . S
O154 In143 2.294 . S
O154 C147 1.240 . S
O155 In143 2.326 . S
O155 C147 1.252 . S
In156 O157 2.294 . S
In156 O158 2.326 . S
In156 O162 2.266 . S
In156 O163 2.326 . S
In156 O164 2.266 . S
In156 O165 2.326 . S
In156 O167 2.294 . S
In156 O168 2.326 . S
O157 In156 2.294 . S
O157 C166 1.240 . S
O158 In156 2.326 . S
O158 C166 1.252 . S
C159 O162 1.252 . S
C159 O163 1.260 . S
C160 O167 1.240 . S
C160 O168 1.252 . S
C161 O164 1.252 . S
C161 O165 1.260 . S
O162 In156 2.266 . S
O162 C159 1.252 . S
O163 In156 2.326 . S
O163 C159 1.260 . S
O164 In156 2.266 . S
O164 C161 1.252 . S
O165 In156 2.326 . S
O165 C161 1.260 . S
C166 O157 1.240 . S
C166 O158 1.252 . S
O167 In156 2.294 . S
O167 C160 1.240 . S
O168 In156 2.326 . S
O168 C160 1.252 . S
In169 O170 2.294 . S
In169 O171 2.326 . S
In169 O175 2.266 . S
In169 O176 2.326 . S
In169 O177 2.266 . S
In169 O178 2.326 . S
In169 O180 2.294 . S
In169 O181 2.326 . S
O170 In169 2.294 . S
O170 C179 1.240 . S
O171 In169 2.326 . S
O171 C179 1.252 . S
C172 O175 1.252 . S
C172 O176 1.260 . S
C173 O180 1.240 . S
C173 O181 1.252 . S
C174 O177 1.252 . S
C174 O178 1.260 . S
O175 In169 2.266 . S
O175 C172 1.252 . S
O176 In169 2.326 . S
O176 C172 1.260 . S
O177 In169 2.266 . S
O177 C174 1.252 . S
O178 In169 2.326 . S
O178 C174 1.260 . S
C179 O170 1.240 . S
C179 O171 1.252 . S
O180 In169 2.294 . S
O180 C173 1.240 . S
O181 In169 2.326 . S
O181 C173 1.252 . S
In182 O183 2.294 . S
In182 O184 2.326 . S
In182 O188 2.266 . S
In182 O189 2.326 . S
In182 O190 2.266 . S
In182 O191 2.326 . S
In182 O193 2.294 . S
In182 O194 2.326 . S
O183 In182 2.294 . S
O183 C192 1.240 . S
O184 In182 2.326 . S
O184 C192 1.252 . S
C185 O188 1.252 . S
C185 O189 1.260 . S
C186 O193 1.240 . S
C186 O194 1.252 . S
C187 O190 1.252 . S
C187 O191 1.260 . S
O188 In182 2.266 . S
O188 C185 1.252 . S
O189 In182 2.326 . S
O189 C185 1.260 . S
O190 In182 2.266 . S
O190 C187 1.252 . S
O191 In182 2.326 . S
O191 C187 1.260 . S
C192 O183 1.240 . S
C192 O184 1.252 . S
O193 In182 2.294 . S
O193 C186 1.240 . S
O194 In182 2.326 . S
O194 C186 1.252 . S
In195 O196 2.294 . S
In195 O197 2.326 . S
In195 O201 2.266 . S
In195 O202 2.326 . S
In195 O203 2.266 . S
In195 O204 2.326 . S
In195 O206 2.294 . S
In195 O207 2.326 . S
O196 In195 2.294 . S
O196 C205 1.240 . S
O197 In195 2.326 . S
O197 C205 1.252 . S
C198 O201 1.252 . S
C198 O202 1.260 . S
C199 O206 1.240 . S
C199 O207 1.252 . S
C200 O203 1.252 . S
C200 O204 1.260 . S
O201 In195 2.266 . S
O201 C198 1.252 . S
O202 In195 2.326 . S
O202 C198 1.260 . S
O203 In195 2.266 . S
O203 C200 1.252 . S
O204 In195 2.326 . S
O204 C200 1.260 . S
C205 O196 1.240 . S
C205 O197 1.252 . S
O206 In195 2.294 . S
O206 C199 1.240 . S
O207 In195 2.326 . S
O207 C199 1.252 . S
In208 O209 2.294 . S
In208 O210 2.326 . S
In208 O214 2.266 . S
In208 O215 2.326 . S
In208 O216 2.266 . S
In208 O217 2.326 . S
In208 O219 2.294 . S
In208 O220 2.326 . S
O209 In208 2.294 . S
O209 C218 1.240 . S
O210 In208 2.326 . S
O210 C218 1.252 . S
C211 O214 1.252 . S
C211 O215 1.260 . S
C212 O219 1.240 . S
C212 O220 1.252 . S
C213 O216 1.252 . S
C213 O217 1.260 . S
O214 In208 2.266 . S
O214 C211 1.252 . S
O215 In208 2.326 . S
O215 C211 1.260 . S
O216 In208 2.266 . S
O216 C213 1.252 . S
O217 In208 2.326 . S
O217 C213 1.260 . S
C218 O209 1.240 . S
C218 O210 1.252 . S
O219 In208 2.294 . S
O219 C212 1.240 . S
O220 In208 2.326 . S
O220 C212 1.252 . S
In221 O222 2.294 . S
In221 O223 2.326 . S
In221 O227 2.266 . S
In221 O228 2.326 . S
In221 O229 2.266 . S
In221 O230 2.326 . S
In221 O232 2.294 . S
In221 O233 2.326 . S
O222 In221 2.294 . S
O222 C231 1.240 . S
O223 In221 2.326 . S
O223 C231 1.252 . S
C224 O227 1.252 . S
C224 O228 1.260 . S
C225 O232 1.240 . S
C225 O233 1.252 . S
C226 O229 1.252 . S
C226 O230 1.260 . S
O227 In221 2.266 . S
O227 C224 1.252 . S
O228 In221 2.326 . S
O228 C224 1.260 . S
O229 In221 2.266 . S
O229 C226 1.252 . S
O230 In221 2.326 . S
O230 C226 1.260 . S
C231 O222 1.240 . S
C231 O223 1.252 . S
O232 In221 2.294 . S
O232 C225 1.240 . S
O233 In221 2.326 . S
O233 C225 1.252 . S
In234 O235 2.294 . S
In234 O236 2.326 . S
In234 O240 2.266 . S
In234 O241 2.326 . S
In234 O242 2.266 . S
In234 O243 2.326 . S
In234 O245 2.294 . S
In234 O246 2.326 . S
O235 In234 2.294 . S
O235 C244 1.240 . S
O236 In234 2.326 . S
O236 C244 1.252 . S
C237 O240 1.252 . S
C237 O241 1.260 . S
C238 O245 1.240 . S
C238 O246 1.252 . S
C239 O242 1.252 . S
C239 O243 1.260 . S
O240 In234 2.266 . S
O240 C237 1.252 . S
O241 In234 2.326 . S
O241 C237 1.260 . S
O242 In234 2.266 . S
O242 C239 1.252 . S
O243 In234 2.326 . S
O243 C239 1.260 . S
C244 O235 1.240 . S
C244 O236 1.252 . S
O245 In234 2.294 . S
O245 C238 1.240 . S
O246 In234 2.326 . S
O246 C238 1.252 . S
In247 O248 2.294 . S
In247 O249 2.326 . S
In247 O253 2.266 . S
In247 O254 2.326 . S
In247 O255 2.266 . S
In247 O256 2.326 . S
In247 O258 2.294 . S
In247 O259 2.326 . S
O248 In247 2.294 . S
O248 C257 1.240 . S
O249 In247 2.326 . S
O249 C257 1.252 . S
C250 O253 1.252 . S
C250 O254 1.260 . S
C251 O258 1.240 . S
C251 O259 1.252 . S
C252 O255 1.252 . S
C252 O256 1.260 . S
O253 In247 2.266 . S
O253 C250 1.252 . S
O254 In247 2.326 . S
O254 C250 1.260 . S
O255 In247 2.266 . S
O255 C252 1.252 . S
O256 In247 2.326 . S
O256 C252 1.260 . S
C257 O248 1.240 . S
C257 O249 1.252 . S
O258 In247 2.294 . S
O258 C251 1.240 . S
O259 In247 2.326 . S
O259 C251 1.252 . S
In260 O261 2.294 . S
In260 O262 2.326 . S
In260 O266 2.266 . S
In260 O267 2.326 . S
In260 O268 2.266 . S
In260 O269 2.326 . S
In260 O271 2.294 . S
In260 O272 2.326 . S
O261 In260 2.294 . S
O261 C270 1.240 . S
O262 In260 2.326 . S
O262 C270 1.252 . S
C263 O266 1.252 . S
C263 O267 1.260 . S
C264 O271 1.240 . S
C264 O272 1.252 . S
C265 O268 1.252 . S
C265 O269 1.260 . S
O266 In260 2.266 . S
O266 C263 1.252 . S
O267 In260 2.326 . S
O267 C263 1.260 . S
O268 In260 2.266 . S
O268 C265 1.252 . S
O269 In260 2.326 . S
O269 C265 1.260 . S
C270 O261 1.240 . S
C270 O262 1.252 . S
O271 In260 2.294 . S
O271 C264 1.240 . S
O272 In260 2.326 . S
O272 C264 1.252 . S
In273 O274 2.294 . S
In273 O275 2.326 . S
In273 O279 2.266 . S
In273 O280 2.326 . S
In273 O281 2.266 . S
In273 O282 2.326 . S
In273 O284 2.294 . S
In273 O285 2.326 . S
O274 In273 2.294 . S
O274 C283 1.240 . S
O275 In273 2.326 . S
O275 C283 1.252 . S
C276 O279 1.252 . S
C276 O280 1.260 . S
C277 O284 1.240 . S
C277 O285 1.252 . S
C278 O281 1.252 . S
C278 O282 1.260 . S
O279 In273 2.266 . S
O279 C276 1.252 . S
O280 In273 2.326 . S
O280 C276 1.260 . S
O281 In273 2.266 . S
O281 C278 1.252 . S
O282 In273 2.326 . S
O282 C278 1.260 . S
C283 O274 1.240 . S
C283 O275 1.252 . S
O284 In273 2.294 . S
O284 C277 1.240 . S
O285 In273 2.326 . S
O285 C277 1.252 . S
In286 O287 2.294 . S
In286 O288 2.326 . S
In286 O292 2.266 . S
In286 O293 2.326 . S
In286 O294 2.266 . S
In286 O295 2.326 . S
In286 O297 2.294 . S
In286 O298 2.326 . S
O287 In286 2.294 . S
O287 C296 1.240 . S
O288 In286 2.326 . S
O288 C296 1.252 . S
C289 O292 1.252 . S
C289 O293 1.260 . S
C290 O297 1.240 . S
C290 O298 1.252 . S
C291 O294 1.252 . S
C291 O295 1.260 . S
O292 In286 2.266 . S
O292 C289 1.252 . S
O293 In286 2.326 . S
O293 C289 1.260 . S
O294 In286 2.266 . S
O294 C291 1.252 . S
O295 In286 2.326 . S
O295 C291 1.260 . S
C296 O287 1.240 . S
C296 O288 1.252 . S
O297 In286 2.294 . S
O297 C290 1.240 . S
O298 In286 2.326 . S
O298 C290 1.252 . S
In299 O300 2.294 . S
In299 O301 2.326 . S
In299 O305 2.266 . S
In299 O306 2.326 . S
In299 O307 2.266 . S
In299 O308 2.326 . S
In299 O310 2.294 . S
In299 O311 2.326 . S
O300 In299 2.294 . S
O300 C309 1.240 . S
O301 In299 2.326 . S
O301 C309 1.252 . S
C302 O305 1.252 . S
C302 O306 1.260 . S
C303 O310 1.240 . S
C303 O311 1.252 . S
C304 O307 1.252 . S
C304 O308 1.260 . S
O305 In299 2.266 . S
O305 C302 1.252 . S
O306 In299 2.326 . S
O306 C302 1.260 . S
O307 In299 2.266 . S
O307 C304 1.252 . S
O308 In299 2.326 . S
O308 C304 1.260 . S
C309 O300 1.240 . S
C309 O301 1.252 . S
O310 In299 2.294 . S
O310 C303 1.240 . S
O311 In299 2.326 . S
O311 C303 1.252 . S
In312 O313 2.294 . S
In312 O314 2.326 . S
In312 O318 2.266 . S
In312 O319 2.326 . S
In312 O320 2.266 . S
In312 O321 2.326 . S
In312 O323 2.294 . S
In312 O324 2.326 . S
O313 In312 2.294 . S
O313 C322 1.240 . S
O314 In312 2.326 . S
O314 C322 1.252 . S
C315 O318 1.252 . S
C315 O319 1.260 . S
C316 O323 1.240 . S
C316 O324 1.252 . S
C317 O320 1.252 . S
C317 O321 1.260 . S
O318 In312 2.266 . S
O318 C315 1.252 . S
O319 In312 2.326 . S
O319 C315 1.260 . S
O320 In312 2.266 . S
O320 C317 1.252 . S
O321 In312 2.326 . S
O321 C317 1.260 . S
C322 O313 1.240 . S
C322 O314 1.252 . S
O323 In312 2.294 . S
O323 C316 1.240 . S
O324 In312 2.326 . S
O324 C316 1.252 . S
In325 O326 2.294 . S
In325 O327 2.326 . S
In325 O331 2.266 . S
In325 O332 2.326 . S
In325 O333 2.266 . S
In325 O334 2.326 . S
In325 O336 2.294 . S
In325 O337 2.326 . S
O326 In325 2.294 . S
O326 C335 1.240 . S
O327 In325 2.326 . S
O327 C335 1.252 . S
C328 O331 1.252 . S
C328 O332 1.260 . S
C329 O336 1.240 . S
C329 O337 1.252 . S
C330 O333 1.252 . S
C330 O334 1.260 . S
O331 In325 2.266 . S
O331 C328 1.252 . S
O332 In325 2.326 . S
O332 C328 1.260 . S
O333 In325 2.266 . S
O333 C330 1.252 . S
O334 In325 2.326 . S
O334 C330 1.260 . S
C335 O326 1.240 . S
C335 O327 1.252 . S
O336 In325 2.294 . S
O336 C329 1.240 . S
O337 In325 2.326 . S
O337 C329 1.252 . S
In338 O339 2.294 . S
In338 O340 2.326 . S
In338 O344 2.266 . S
In338 O345 2.326 . S
In338 O346 2.266 . S
In338 O347 2.326 . S
In338 O349 2.294 . S
In338 O350 2.326 . S
O339 In338 2.294 . S
O339 C348 1.240 . S
O340 In338 2.326 . S
O340 C348 1.252 . S
C341 O344 1.252 . S
C341 O345 1.260 . S
C342 O349 1.240 . S
C342 O350 1.252 . S
C343 O346 1.252 . S
C343 O347 1.260 . S
O344 In338 2.266 . S
O344 C341 1.252 . S
O345 In338 2.326 . S
O345 C341 1.260 . S
O346 In338 2.266 . S
O346 C343 1.252 . S
O347 In338 2.326 . S
O347 C343 1.260 . S
C348 O339 1.240 . S
C348 O340 1.252 . S
O349 In338 2.294 . S
O349 C342 1.240 . S
O350 In338 2.326 . S
O350 C342 1.252 . S
In351 O352 2.294 . S
In351 O353 2.326 . S
In351 O357 2.266 . S
In351 O358 2.326 . S
In351 O359 2.266 . S
In351 O360 2.326 . S
In351 O362 2.294 . S
In351 O363 2.326 . S
O352 In351 2.294 . S
O352 C361 1.240 . S
O353 In351 2.326 . S
O353 C361 1.252 . S
C354 O357 1.252 . S
C354 O358 1.260 . S
C355 O362 1.240 . S
C355 O363 1.252 . S
C356 O359 1.252 . S
C356 O360 1.260 . S
O357 In351 2.266 . S
O357 C354 1.252 . S
O358 In351 2.326 . S
O358 C354 1.260 . S
O359 In351 2.266 . S
O359 C356 1.252 . S
O360 In351 2.326 . S
O360 C356 1.260 . S
C361 O352 1.240 . S
C361 O353 1.252 . S
O362 In351 2.294 . S
O362 C355 1.240 . S
O363 In351 2.326 . S
O363 C355 1.252 . S
In364 O365 2.294 . S
In364 O366 2.326 . S
In364 O370 2.266 . S
In364 O371 2.326 . S
In364 O372 2.266 . S
In364 O373 2.326 . S
In364 O375 2.294 . S
In364 O376 2.326 . S
O365 In364 2.294 . S
O365 C374 1.240 . S
O366 In364 2.326 . S
O366 C374 1.252 . S
C367 O370 1.252 . S
C367 O371 1.260 . S
C368 O375 1.240 . S
C368 O376 1.252 . S
C369 O372 1.252 . S
C369 O373 1.260 . S
O370 In364 2.266 . S
O370 C367 1.252 . S
O371 In364 2.326 . S
O371 C367 1.260 . S
O372 In364 2.266 . S
O372 C369 1.252 . S
O373 In364 2.326 . S
O373 C369 1.260 . S
C374 O365 1.240 . S
C374 O366 1.252 . S
O375 In364 2.294 . S
O375 C368 1.240 . S
O376 In364 2.326 . S
O376 C368 1.252 . S
In377 O378 2.294 . S
In377 O379 2.326 . S
In377 O383 2.266 . S
In377 O384 2.326 . S
In377 O385 2.266 . S
In377 O386 2.326 . S
In377 O388 2.294 . S
In377 O389 2.326 . S
O378 In377 2.294 . S
O378 C387 1.240 . S
O379 In377 2.326 . S
O379 C387 1.252 . S
C380 O383 1.252 . S
C380 O384 1.260 . S
C381 O388 1.240 . S
C381 O389 1.252 . S
C382 O385 1.252 . S
C382 O386 1.260 . S
O383 In377 2.266 . S
O383 C380 1.252 . S
O384 In377 2.326 . S
O384 C380 1.260 . S
O385 In377 2.266 . S
O385 C382 1.252 . S
O386 In377 2.326 . S
O386 C382 1.260 . S
C387 O378 1.240 . S
C387 O379 1.252 . S
O388 In377 2.294 . S
O388 C381 1.240 . S
O389 In377 2.326 . S
O389 C381 1.252 . S
In390 O391 2.294 . S
In390 O392 2.326 . S
In390 O396 2.266 . S
In390 O397 2.326 . S
In390 O398 2.266 . S
In390 O399 2.326 . S
In390 O401 2.294 . S
In390 O402 2.326 . S
O391 In390 2.294 . S
O391 C400 1.240 . S
O392 In390 2.326 . S
O392 C400 1.252 . S
C393 O396 1.252 . S
C393 O397 1.260 . S
C394 O401 1.240 . S
C394 O402 1.252 . S
C395 O398 1.252 . S
C395 O399 1.260 . S
O396 In390 2.266 . S
O396 C393 1.252 . S
O397 In390 2.326 . S
O397 C393 1.260 . S
O398 In390 2.266 . S
O398 C395 1.252 . S
O399 In390 2.326 . S
O399 C395 1.260 . S
C400 O391 1.240 . S
C400 O392 1.252 . S
O401 In390 2.294 . S
O401 C394 1.240 . S
O402 In390 2.326 . S
O402 C394 1.252 . S
In403 O404 2.294 . S
In403 O405 2.326 . S
In403 O409 2.266 . S
In403 O410 2.326 . S
In403 O411 2.266 . S
In403 O412 2.326 . S
In403 O414 2.294 . S
In403 O415 2.326 . S
O404 In403 2.294 . S
O404 C413 1.240 . S
O405 In403 2.326 . S
O405 C413 1.252 . S
C406 O409 1.252 . S
C406 O410 1.260 . S
C407 O414 1.240 . S
C407 O415 1.252 . S
C408 O411 1.252 . S
C408 O412 1.260 . S
O409 In403 2.266 . S
O409 C406 1.252 . S
O410 In403 2.326 . S
O410 C406 1.260 . S
O411 In403 2.266 . S
O411 C408 1.252 . S
O412 In403 2.326 . S
O412 C408 1.260 . S
C413 O404 1.240 . S
C413 O405 1.252 . S
O414 In403 2.294 . S
O414 C407 1.240 . S
O415 In403 2.326 . S
O415 C407 1.252 . S
In416 O417 2.294 . S
In416 O418 2.326 . S
In416 O422 2.266 . S
In416 O423 2.326 . S
In416 O424 2.266 . S
In416 O425 2.326 . S
In416 O427 2.294 . S
In416 O428 2.326 . S
O417 In416 2.294 . S
O417 C426 1.240 . S
O418 In416 2.326 . S
O418 C426 1.252 . S
C419 O422 1.252 . S
C419 O423 1.260 . S
C420 O427 1.240 . S
C420 O428 1.252 . S
C421 O424 1.252 . S
C421 O425 1.260 . S
O422 In416 2.266 . S
O422 C419 1.252 . S
O423 In416 2.326 . S
O423 C419 1.260 . S
O424 In416 2.266 . S
O424 C421 1.252 . S
O425 In416 2.326 . S
O425 C421 1.260 . S
C426 O417 1.240 . S
C426 O418 1.252 . S
O427 In416 2.294 . S
O427 C420 1.240 . S
O428 In416 2.326 . S
O428 C420 1.252 . S
In429 O430 2.294 . S
In429 O431 2.326 . S
In429 O435 2.266 . S
In429 O436 2.326 . S
In429 O437 2.266 . S
In429 O438 2.326 . S
In429 O440 2.294 . S
In429 O441 2.326 . S
O430 In429 2.294 . S
O430 C439 1.240 . S
O431 In429 2.326 . S
O431 C439 1.252 . S
C432 O435 1.252 . S
C432 O436 1.260 . S
C433 O440 1.240 . S
C433 O441 1.252 . S
C434 O437 1.252 . S
C434 O438 1.260 . S
O435 In429 2.266 . S
O435 C432 1.252 . S
O436 In429 2.326 . S
O436 C432 1.260 . S
O437 In429 2.266 . S
O437 C434 1.252 . S
O438 In429 2.326 . S
O438 C434 1.260 . S
C439 O430 1.240 . S
C439 O431 1.252 . S
O440 In429 2.294 . S
O440 C433 1.240 . S
O441 In429 2.326 . S
O441 C433 1.252 . S
In442 O443 2.294 . S
In442 O444 2.326 . S
In442 O448 2.266 . S
In442 O449 2.326 . S
In442 O450 2.266 . S
In442 O451 2.326 . S
In442 O453 2.294 . S
In442 O454 2.326 . S
O443 In442 2.294 . S
O443 C452 1.240 . S
O444 In442 2.326 . S
O444 C452 1.252 . S
C445 O448 1.252 . S
C445 O449 1.260 . S
C446 O453 1.240 . S
C446 O454 1.252 . S
C447 O450 1.252 . S
C447 O451 1.260 . S
O448 In442 2.266 . S
O448 C445 1.252 . S
O449 In442 2.326 . S
O449 C445 1.260 . S
O450 In442 2.266 . S
O450 C447 1.252 . S
O451 In442 2.326 . S
O451 C447 1.260 . S
C452 O443 1.240 . S
C452 O444 1.252 . S
O453 In442 2.294 . S
O453 C446 1.240 . S
O454 In442 2.326 . S
O454 C446 1.252 . S
In455 O456 2.294 . S
In455 O457 2.326 . S
In455 O461 2.266 . S
In455 O462 2.326 . S
In455 O463 2.266 . S
In455 O464 2.326 . S
In455 O466 2.294 . S
In455 O467 2.326 . S
O456 In455 2.294 . S
O456 C465 1.240 . S
O457 In455 2.326 . S
O457 C465 1.252 . S
C458 O461 1.252 . S
C458 O462 1.260 . S
C459 O466 1.240 . S
C459 O467 1.252 . S
C460 O463 1.252 . S
C460 O464 1.260 . S
O461 In455 2.266 . S
O461 C458 1.252 . S
O462 In455 2.326 . S
O462 C458 1.260 . S
O463 In455 2.266 . S
O463 C460 1.252 . S
O464 In455 2.326 . S
O464 C460 1.260 . S
C465 O456 1.240 . S
C465 O457 1.252 . S
O466 In455 2.294 . S
O466 C459 1.240 . S
O467 In455 2.326 . S
O467 C459 1.252 . S
C468 C469 1.349 . S
C468 C470 1.327 . S
C468 H493 0.950 . S
C469 C468 1.349 . S
C469 C485 1.349 . S
C470 C468 1.327 . S
C470 C489 1.429 . S
C470 H494 0.950 . S
C471 C488 1.574 . S
C471 C490 1.368 . S
C471 H495 0.949 . S
H472 C476 0.949 . S
C473 C474 1.349 . S
C473 C475 1.327 . S
C473 H496 0.950 . S
C474 C473 1.349 . S
C474 C486 1.349 . S
C475 C473 1.327 . S
C475 C491 1.429 . S
C475 H497 0.950 . S
C476 H472 0.949 . S
C476 C484 1.574 . S
C476 C492 1.368 . S
H477 C485 0.950 . S
H478 C483 0.950 . S
H479 C484 0.949 . S
H480 C486 0.950 . S
H481 C487 0.950 . S
H482 C488 0.949 . S
C483 H478 0.950 . S
C483 C485 1.327 . S
C483 C489 1.429 . S
C484 C476 1.574 . S
C484 H479 0.949 . S
C484 C490 1.368 . S
C485 C469 1.349 . S
C485 H477 0.950 . S
C485 C483 1.327 . S
C486 C474 1.349 . S
C486 H480 0.950 . S
C486 C487 1.327 . S
C487 H481 0.950 . S
C487 C486 1.327 . S
C487 C491 1.429 . S
C488 C471 1.574 . S
C488 H482 0.949 . S
C488 C492 1.368 . S
C489 C470 1.429 . S
C489 C483 1.429 . S
C489 C490 1.523 . S
C490 C471 1.368 . S
C490 C484 1.368 . S
C490 C489 1.523 . S
C491 C475 1.429 . S
C491 C487 1.429 . S
C491 C492 1.523 . S
C492 C476 1.368 . S
C492 C488 1.368 . S
C492 C491 1.523 . S
H493 C468 0.950 . S
H494 C470 0.950 . S
H495 C471 0.949 . S
H496 C473 0.950 . S
H497 C475 0.950 . S
C498 C499 1.349 . S
C498 C500 1.327 . S
C498 H523 0.950 . S
C499 C498 1.349 . S
C499 C515 1.349 . S
C500 C498 1.327 . S
C500 C519 1.429 . S
C500 H524 0.950 . S
C501 C518 1.574 . S
C501 C520 1.368 . S
C501 H525 0.949 . S
H502 C506 0.949 . S
C503 C504 1.349 . S
C503 C505 1.327 . S
C503 H526 0.950 . S
C504 C503 1.349 . S
C504 C516 1.349 . S
C505 C503 1.327 . S
C505 C521 1.429 . S
C505 H527 0.950 . S
C506 H502 0.949 . S
C506 C514 1.574 . S
C506 C522 1.368 . S
H507 C515 0.950 . S
H508 C513 0.950 . S
H509 C514 0.949 . S
H510 C516 0.950 . S
H511 C517 0.950 . S
H512 C518 0.949 . S
C513 H508 0.950 . S
C513 C515 1.327 . S
C513 C519 1.429 . S
C514 C506 1.574 . S
C514 H509 0.949 . S
C514 C520 1.368 . S
C515 C499 1.349 . S
C515 H507 0.950 . S
C515 C513 1.327 . S
C516 C504 1.349 . S
C516 H510 0.950 . S
C516 C517 1.327 . S
C517 H511 0.950 . S
C517 C516 1.327 . S
C517 C521 1.429 . S
C518 C501 1.574 . S
C518 H512 0.949 . S
C518 C522 1.368 . S
C519 C500 1.429 . S
C519 C513 1.429 . S
C519 C520 1.523 . S
C520 C501 1.368 . S
C520 C514 1.368 . S
C520 C519 1.523 . S
C521 C505 1.429 . S
C521 C517 1.429 . S
C521 C522 1.523 . S
C522 C506 1.368 . S
C522 C518 1.368 . S
C522 C521 1.523 . S
H523 C498 0.950 . S
H524 C500 0.950 . S
H525 C501 0.949 . S
H526 C503 0.950 . S
H527 C505 0.950 . S
C528 C529 1.349 . S
C528 C530 1.327 . S
C528 H553 0.950 . S
C529 C528 1.349 . S
C529 C545 1.349 . S
C530 C528 1.327 . S
C530 C549 1.429 . S
C530 H554 0.950 . S
C531 C548 1.574 . S
C531 C550 1.368 . S
C531 H555 0.949 . S
H532 C536 0.949 . S
C533 C534 1.349 . S
C533 C535 1.327 . S
C533 H556 0.950 . S
C534 C533 1.349 . S
C534 C546 1.349 . S
C535 C533 1.327 . S
C535 C551 1.429 . S
C535 H557 0.950 . S
C536 H532 0.949 . S
C536 C544 1.574 . S
C536 C552 1.368 . S
H537 C545 0.950 . S
H538 C543 0.950 . S
H539 C544 0.949 . S
H540 C546 0.950 . S
H541 C547 0.950 . S
H542 C548 0.949 . S
C543 H538 0.950 . S
C543 C545 1.327 . S
C543 C549 1.429 . S
C544 C536 1.574 . S
C544 H539 0.949 . S
C544 C550 1.368 . S
C545 C529 1.349 . S
C545 H537 0.950 . S
C545 C543 1.327 . S
C546 C534 1.349 . S
C546 H540 0.950 . S
C546 C547 1.327 . S
C547 H541 0.950 . S
C547 C546 1.327 . S
C547 C551 1.429 . S
C548 C531 1.574 . S
C548 H542 0.949 . S
C548 C552 1.368 . S
C549 C530 1.429 . S
C549 C543 1.429 . S
C549 C550 1.523 . S
C550 C531 1.368 . S
C550 C544 1.368 . S
C550 C549 1.523 . S
C551 C535 1.429 . S
C551 C547 1.429 . S
C551 C552 1.523 . S
C552 C536 1.368 . S
C552 C548 1.368 . S
C552 C551 1.523 . S
H553 C528 0.950 . S
H554 C530 0.950 . S
H555 C531 0.949 . S
H556 C533 0.950 . S
H557 C535 0.950 . S
C558 C559 1.349 . S
C558 C560 1.327 . S
C558 H583 0.950 . S
C559 C558 1.349 . S
C559 C575 1.349 . S
C560 C558 1.327 . S
C560 C579 1.429 . S
C560 H584 0.950 . S
C561 C578 1.574 . S
C561 C580 1.368 . S
C561 H585 0.949 . S
H562 C566 0.949 . S
C563 C564 1.349 . S
C563 C565 1.327 . S
C563 H586 0.950 . S
C564 C563 1.349 . S
C564 C576 1.349 . S
C565 C563 1.327 . S
C565 C581 1.429 . S
C565 H587 0.950 . S
C566 H562 0.949 . S
C566 C574 1.574 . S
C566 C582 1.368 . S
H567 C575 0.950 . S
H568 C573 0.950 . S
H569 C574 0.949 . S
H570 C576 0.950 . S
H571 C577 0.950 . S
H572 C578 0.949 . S
C573 H568 0.950 . S
C573 C575 1.327 . S
C573 C579 1.429 . S
C574 C566 1.574 . S
C574 H569 0.949 . S
C574 C580 1.368 . S
C575 C559 1.349 . S
C575 H567 0.950 . S
C575 C573 1.327 . S
C576 C564 1.349 . S
C576 H570 0.950 . S
C576 C577 1.327 . S
C577 H571 0.950 . S
C577 C576 1.327 . S
C577 C581 1.429 . S
C578 C561 1.574 . S
C578 H572 0.949 . S
C578 C582 1.368 . S
C579 C560 1.429 . S
C579 C573 1.429 . S
C579 C580 1.523 . S
C580 C561 1.368 . S
C580 C574 1.368 . S
C580 C579 1.523 . S
C581 C565 1.429 . S
C581 C577 1.429 . S
C581 C582 1.523 . S
C582 C566 1.368 . S
C582 C578 1.368 . S
C582 C581 1.523 . S
H583 C558 0.950 . S
H584 C560 0.950 . S
H585 C561 0.949 . S
H586 C563 0.950 . S
H587 C565 0.950 . S
C588 C589 1.349 . S
C588 C590 1.327 . S
C588 H613 0.950 . S
C589 C588 1.349 . S
C589 C605 1.349 . S
C590 C588 1.327 . S
C590 C609 1.429 . S
C590 H614 0.950 . S
C591 C608 1.574 . S
C591 C610 1.368 . S
C591 H615 0.949 . S
H592 C596 0.949 . S
C593 C594 1.349 . S
C593 C595 1.327 . S
C593 H616 0.950 . S
C594 C593 1.349 . S
C594 C606 1.349 . S
C595 C593 1.327 . S
C595 C611 1.429 . S
C595 H617 0.950 . S
C596 H592 0.949 . S
C596 C604 1.574 . S
C596 C612 1.368 . S
H597 C605 0.950 . S
H598 C603 0.950 . S
H599 C604 0.949 . S
H600 C606 0.950 . S
H601 C607 0.950 . S
H602 C608 0.949 . S
C603 H598 0.950 . S
C603 C605 1.327 . S
C603 C609 1.429 . S
C604 C596 1.574 . S
C604 H599 0.949 . S
C604 C610 1.368 . S
C605 C589 1.349 . S
C605 H597 0.950 . S
C605 C603 1.327 . S
C606 C594 1.349 . S
C606 H600 0.950 . S
C606 C607 1.327 . S
C607 H601 0.950 . S
C607 C606 1.327 . S
C607 C611 1.429 . S
C608 C591 1.574 . S
C608 H602 0.949 . S
C608 C612 1.368 . S
C609 C590 1.429 . S
C609 C603 1.429 . S
C609 C610 1.523 . S
C610 C591 1.368 . S
C610 C604 1.368 . S
C610 C609 1.523 . S
C611 C595 1.429 . S
C611 C607 1.429 . S
C611 C612 1.523 . S
C612 C596 1.368 . S
C612 C608 1.368 . S
C612 C611 1.523 . S
H613 C588 0.950 . S
H614 C590 0.950 . S
H615 C591 0.949 . S
H616 C593 0.950 . S
H617 C595 0.950 . S
C618 C619 1.349 . S
C618 C620 1.327 . S
C618 H643 0.950 . S
C619 C618 1.349 . S
C619 C635 1.349 . S
C620 C618 1.327 . S
C620 C639 1.429 . S
C620 H644 0.950 . S
C621 C638 1.574 . S
C621 C640 1.368 . S
C621 H645 0.949 . S
H622 C626 0.949 . S
C623 C624 1.349 . S
C623 C625 1.327 . S
C623 H646 0.950 . S
C624 C623 1.349 . S
C624 C636 1.349 . S
C625 C623 1.327 . S
C625 C641 1.429 . S
C625 H647 0.950 . S
C626 H622 0.949 . S
C626 C634 1.574 . S
C626 C642 1.368 . S
H627 C635 0.950 . S
H628 C633 0.950 . S
H629 C634 0.949 . S
H630 C636 0.950 . S
H631 C637 0.950 . S
H632 C638 0.949 . S
C633 H628 0.950 . S
C633 C635 1.327 . S
C633 C639 1.429 . S
C634 C626 1.574 . S
C634 H629 0.949 . S
C634 C640 1.368 . S
C635 C619 1.349 . S
C635 H627 0.950 . S
C635 C633 1.327 . S
C636 C624 1.349 . S
C636 H630 0.950 . S
C636 C637 1.327 . S
C637 H631 0.950 . S
C637 C636 1.327 . S
C637 C641 1.429 . S
C638 C621 1.574 . S
C638 H632 0.949 . S
C638 C642 1.368 . S
C639 C620 1.429 . S
C639 C633 1.429 . S
C639 C640 1.523 . S
C640 C621 1.368 . S
C640 C634 1.368 . S
C640 C639 1.523 . S
C641 C625 1.429 . S
C641 C637 1.429 . S
C641 C642 1.523 . S
C642 C626 1.368 . S
C642 C638 1.368 . S
C642 C641 1.523 . S
H643 C618 0.950 . S
H644 C620 0.950 . S
H645 C621 0.949 . S
H646 C623 0.950 . S
H647 C625 0.950 . S
C648 C649 1.349 . S
C648 C650 1.327 . S
C648 H673 0.950 . S
C649 C648 1.349 . S
C649 C665 1.349 . S
C650 C648 1.327 . S
C650 C669 1.429 . S
C650 H674 0.950 . S
C651 C668 1.574 . S
C651 C670 1.368 . S
C651 H675 0.949 . S
H652 C656 0.949 . S
C653 C654 1.349 . S
C653 C655 1.327 . S
C653 H676 0.950 . S
C654 C653 1.349 . S
C654 C666 1.349 . S
C655 C653 1.327 . S
C655 C671 1.429 . S
C655 H677 0.950 . S
C656 H652 0.949 . S
C656 C664 1.574 . S
C656 C672 1.368 . S
H657 C665 0.950 . S
H658 C663 0.950 . S
H659 C664 0.949 . S
H660 C666 0.950 . S
H661 C667 0.950 . S
H662 C668 0.949 . S
C663 H658 0.950 . S
C663 C665 1.327 . S
C663 C669 1.429 . S
C664 C656 1.574 . S
C664 H659 0.949 . S
C664 C670 1.368 . S
C665 C649 1.349 . S
C665 H657 0.950 . S
C665 C663 1.327 . S
C666 C654 1.349 . S
C666 H660 0.950 . S
C666 C667 1.327 . S
C667 H661 0.950 . S
C667 C666 1.327 . S
C667 C671 1.429 . S
C668 C651 1.574 . S
C668 H662 0.949 . S
C668 C672 1.368 . S
C669 C650 1.429 . S
C669 C663 1.429 . S
C669 C670 1.523 . S
C670 C651 1.368 . S
C670 C664 1.368 . S
C670 C669 1.523 . S
C671 C655 1.429 . S
C671 C667 1.429 . S
C671 C672 1.523 . S
C672 C656 1.368 . S
C672 C668 1.368 . S
C672 C671 1.523 . S
H673 C648 0.950 . S
H674 C650 0.950 . S
H675 C651 0.949 . S
H676 C653 0.950 . S
H677 C655 0.950 . S
C678 C679 1.349 . S
C678 C680 1.327 . S
C678 H703 0.950 . S
C679 C678 1.349 . S
C679 C695 1.349 . S
C680 C678 1.327 . S
C680 C699 1.429 . S
C680 H704 0.950 . S
C681 C698 1.574 . S
C681 C700 1.368 . S
C681 H705 0.949 . S
H682 C686 0.949 . S
C683 C684 1.349 . S
C683 C685 1.327 . S
C683 H706 0.950 . S
C684 C683 1.349 . S
C684 C696 1.349 . S
C685 C683 1.327 . S
C685 C701 1.429 . S
C685 H707 0.950 . S
C686 H682 0.949 . S
C686 C694 1.574 . S
C686 C702 1.368 . S
H687 C695 0.950 . S
H688 C693 0.950 . S
H689 C694 0.949 . S
H690 C696 0.950 . S
H691 C697 0.950 . S
H692 C698 0.949 . S
C693 H688 0.950 . S
C693 C695 1.327 . S
C693 C699 1.429 . S
C694 C686 1.574 . S
C694 H689 0.949 . S
C694 C700 1.368 . S
C695 C679 1.349 . S
C695 H687 0.950 . S
C695 C693 1.327 . S
C696 C684 1.349 . S
C696 H690 0.950 . S
C696 C697 1.327 . S
C697 H691 0.950 . S
C697 C696 1.327 . S
C697 C701 1.429 . S
C698 C681 1.574 . S
C698 H692 0.949 . S
C698 C702 1.368 . S
C699 C680 1.429 . S
C699 C693 1.429 . S
C699 C700 1.523 . S
C700 C681 1.368 . S
C700 C694 1.368 . S
C700 C699 1.523 . S
C701 C685 1.429 . S
C701 C697 1.429 . S
C701 C702 1.523 . S
C702 C686 1.368 . S
C702 C698 1.368 . S
C702 C701 1.523 . S
H703 C678 0.950 . S
H704 C680 0.950 . S
H705 C681 0.949 . S
H706 C683 0.950 . S
H707 C685 0.950 . S
C708 C709 1.349 . S
C708 C710 1.327 . S
C708 H733 0.950 . S
C709 C708 1.349 . S
C709 C725 1.349 . S
C710 C708 1.327 . S
C710 C729 1.429 . S
C710 H734 0.950 . S
C711 C728 1.574 . S
C711 C730 1.368 . S
C711 H735 0.949 . S
H712 C716 0.949 . S
C713 C714 1.349 . S
C713 C715 1.327 . S
C713 H736 0.950 . S
C714 C713 1.349 . S
C714 C726 1.349 . S
C715 C713 1.327 . S
C715 C731 1.429 . S
C715 H737 0.950 . S
C716 H712 0.949 . S
C716 C724 1.574 . S
C716 C732 1.368 . S
H717 C725 0.950 . S
H718 C723 0.950 . S
H719 C724 0.949 . S
H720 C726 0.950 . S
H721 C727 0.950 . S
H722 C728 0.949 . S
C723 H718 0.950 . S
C723 C725 1.327 . S
C723 C729 1.429 . S
C724 C716 1.574 . S
C724 H719 0.949 . S
C724 C730 1.368 . S
C725 C709 1.349 . S
C725 H717 0.950 . S
C725 C723 1.327 . S
C726 C714 1.349 . S
C726 H720 0.950 . S
C726 C727 1.327 . S
C727 H721 0.950 . S
C727 C726 1.327 . S
C727 C731 1.429 . S
C728 C711 1.574 . S
C728 H722 0.949 . S
C728 C732 1.368 . S
C729 C710 1.429 . S
C729 C723 1.429 . S
C729 C730 1.523 . S
C730 C711 1.368 . S
C730 C724 1.368 . S
C730 C729 1.523 . S
C731 C715 1.429 . S
C731 C727 1.429 . S
C731 C732 1.523 . S
C732 C716 1.368 . S
C732 C728 1.368 . S
C732 C731 1.523 . S
H733 C708 0.950 . S
H734 C710 0.950 . S
H735 C711 0.949 . S
H736 C713 0.950 . S
H737 C715 0.950 . S
C738 C739 1.349 . S
C738 C740 1.327 . S
C738 H763 0.950 . S
C739 C738 1.349 . S
C739 C755 1.349 . S
C740 C738 1.327 . S
C740 C759 1.429 . S
C740 H764 0.950 . S
C741 C758 1.574 . S
C741 C760 1.368 . S
C741 H765 0.949 . S
H742 C746 0.949 . S
C743 C744 1.349 . S
C743 C745 1.327 . S
C743 H766 0.950 . S
C744 C743 1.349 . S
C744 C756 1.349 . S
C745 C743 1.327 . S
C745 C761 1.429 . S
C745 H767 0.950 . S
C746 H742 0.949 . S
C746 C754 1.574 . S
C746 C762 1.368 . S
H747 C755 0.950 . S
H748 C753 0.950 . S
H749 C754 0.949 . S
H750 C756 0.950 . S
H751 C757 0.950 . S
H752 C758 0.949 . S
C753 H748 0.950 . S
C753 C755 1.327 . S
C753 C759 1.429 . S
C754 C746 1.574 . S
C754 H749 0.949 . S
C754 C760 1.368 . S
C755 C739 1.349 . S
C755 H747 0.950 . S
C755 C753 1.327 . S
C756 C744 1.349 . S
C756 H750 0.950 . S
C756 C757 1.327 . S
C757 H751 0.950 . S
C757 C756 1.327 . S
C757 C761 1.429 . S
C758 C741 1.574 . S
C758 H752 0.949 . S
C758 C762 1.368 . S
C759 C740 1.429 . S
C759 C753 1.429 . S
C759 C760 1.523 . S
C760 C741 1.368 . S
C760 C754 1.368 . S
C760 C759 1.523 . S
C761 C745 1.429 . S
C761 C757 1.429 . S
C761 C762 1.523 . S
C762 C746 1.368 . S
C762 C758 1.368 . S
C762 C761 1.523 . S
H763 C738 0.950 . S
H764 C740 0.950 . S
H765 C741 0.949 . S
H766 C743 0.950 . S
H767 C745 0.950 . S
C768 C769 1.349 . S
C768 C770 1.327 . S
C768 H793 0.950 . S
C769 C768 1.349 . S
C769 C785 1.349 . S
C770 C768 1.327 . S
C770 C789 1.429 . S
C770 H794 0.950 . S
C771 C788 1.574 . S
C771 C790 1.368 . S
C771 H795 0.949 . S
H772 C776 0.949 . S
C773 C774 1.349 . S
C773 C775 1.327 . S
C773 H796 0.950 . S
C774 C773 1.349 . S
C774 C786 1.349 . S
C775 C773 1.327 . S
C775 C791 1.429 . S
C775 H797 0.950 . S
C776 H772 0.949 . S
C776 C784 1.574 . S
C776 C792 1.368 . S
H777 C785 0.950 . S
H778 C783 0.950 . S
H779 C784 0.949 . S
H780 C786 0.950 . S
H781 C787 0.950 . S
H782 C788 0.949 . S
C783 H778 0.950 . S
C783 C785 1.327 . S
C783 C789 1.429 . S
C784 C776 1.574 . S
C784 H779 0.949 . S
C784 C790 1.368 . S
C785 C769 1.349 . S
C785 H777 0.950 . S
C785 C783 1.327 . S
C786 C774 1.349 . S
C786 H780 0.950 . S
C786 C787 1.327 . S
C787 H781 0.950 . S
C787 C786 1.327 . S
C787 C791 1.429 . S
C788 C771 1.574 . S
C788 H782 0.949 . S
C788 C792 1.368 . S
C789 C770 1.429 . S
C789 C783 1.429 . S
C789 C790 1.523 . S
C790 C771 1.368 . S
C790 C784 1.368 . S
C790 C789 1.523 . S
C791 C775 1.429 . S
C791 C787 1.429 . S
C791 C792 1.523 . S
C792 C776 1.368 . S
C792 C788 1.368 . S
C792 C791 1.523 . S
H793 C768 0.950 . S
H794 C770 0.950 . S
H795 C771 0.949 . S
H796 C773 0.950 . S
H797 C775 0.950 . S
C798 C799 1.349 . S
C798 C800 1.327 . S
C798 H823 0.950 . S
C799 C798 1.349 . S
C799 C815 1.349 . S
C800 C798 1.327 . S
C800 C819 1.429 . S
C800 H824 0.950 . S
C801 C818 1.574 . S
C801 C820 1.368 . S
C801 H825 0.949 . S
H802 C806 0.949 . S
C803 C804 1.349 . S
C803 C805 1.327 . S
C803 H826 0.950 . S
C804 C803 1.349 . S
C804 C816 1.349 . S
C805 C803 1.327 . S
C805 C821 1.429 . S
C805 H827 0.950 . S
C806 H802 0.949 . S
C806 C814 1.574 . S
C806 C822 1.368 . S
H807 C815 0.950 . S
H808 C813 0.950 . S
H809 C814 0.949 . S
H810 C816 0.950 . S
H811 C817 0.950 . S
H812 C818 0.949 . S
C813 H808 0.950 . S
C813 C815 1.327 . S
C813 C819 1.429 . S
C814 C806 1.574 . S
C814 H809 0.949 . S
C814 C820 1.368 . S
C815 C799 1.349 . S
C815 H807 0.950 . S
C815 C813 1.327 . S
C816 C804 1.349 . S
C816 H810 0.950 . S
C816 C817 1.327 . S
C817 H811 0.950 . S
C817 C816 1.327 . S
C817 C821 1.429 . S
C818 C801 1.574 . S
C818 H812 0.949 . S
C818 C822 1.368 . S
C819 C800 1.429 . S
C819 C813 1.429 . S
C819 C820 1.523 . S
C820 C801 1.368 . S
C820 C814 1.368 . S
C820 C819 1.523 . S
C821 C805 1.429 . S
C821 C817 1.429 . S
C821 C822 1.523 . S
C822 C806 1.368 . S
C822 C818 1.368 . S
C822 C821 1.523 . S
H823 C798 0.950 . S
H824 C800 0.950 . S
H825 C801 0.949 . S
H826 C803 0.950 . S
H827 C805 0.950 . S
C828 C829 1.349 . S
C828 C830 1.327 . S
C828 H853 0.950 . S
C829 C828 1.349 . S
C829 C845 1.349 . S
C830 C828 1.327 . S
C830 C849 1.429 . S
C830 H854 0.950 . S
C831 C848 1.574 . S
C831 C850 1.368 . S
C831 H855 0.949 . S
H832 C836 0.949 . S
C833 C834 1.349 . S
C833 C835 1.327 . S
C833 H856 0.950 . S
C834 C833 1.349 . S
C834 C846 1.349 . S
C835 C833 1.327 . S
C835 C851 1.429 . S
C835 H857 0.950 . S
C836 H832 0.949 . S
C836 C844 1.574 . S
C836 C852 1.368 . S
H837 C845 0.950 . S
H838 C843 0.950 . S
H839 C844 0.949 . S
H840 C846 0.950 . S
H841 C847 0.950 . S
H842 C848 0.949 . S
C843 H838 0.950 . S
C843 C845 1.327 . S
C843 C849 1.429 . S
C844 C836 1.574 . S
C844 H839 0.949 . S
C844 C850 1.368 1_655 S
C845 C829 1.349 . S
C845 H837 0.950 . S
C845 C843 1.327 . S
C846 C834 1.349 . S
C846 H840 0.950 . S
C846 C847 1.327 . S
C847 H841 0.950 . S
C847 C846 1.327 . S
C847 C851 1.429 . S
C848 C831 1.574 . S
C848 H842 0.949 . S
C848 C852 1.368 1_455 S
C849 C830 1.429 . S
C849 C843 1.429 . S
C849 C850 1.523 . S
C850 C831 1.368 . S
C850 C844 1.368 1_455 S
C850 C849 1.523 . S
C851 C835 1.429 . S
C851 C847 1.429 . S
C851 C852 1.523 . S
C852 C836 1.368 . S
C852 C848 1.368 1_655 S
C852 C851 1.523 . S
H853 C828 0.950 . S
H854 C830 0.950 . S
H855 C831 0.949 . S
H856 C833 0.950 . S
H857 C835 0.950 . S
C858 C859 1.349 . S
C858 C860 1.327 . S
C858 H883 0.950 . S
C859 C858 1.349 . S
C859 C875 1.349 . S
C860 C858 1.327 . S
C860 C879 1.429 . S
C860 H884 0.950 . S
C861 C878 1.574 . S
C861 C880 1.368 . S
C861 H885 0.949 . S
H862 C866 0.949 . S
C863 C864 1.349 . S
C863 C865 1.327 . S
C863 H886 0.950 . S
C864 C863 1.349 . S
C864 C876 1.349 . S
C865 C863 1.327 . S
C865 C881 1.429 . S
C865 H887 0.950 . S
C866 H862 0.949 . S
C866 C874 1.574 . S
C866 C882 1.368 . S
H867 C875 0.950 . S
H868 C873 0.950 . S
H869 C874 0.949 . S
H870 C876 0.950 . S
H871 C877 0.950 . S
H872 C878 0.949 . S
C873 H868 0.950 . S
C873 C875 1.327 . S
C873 C879 1.429 . S
C874 C866 1.574 . S
C874 H869 0.949 . S
C874 C880 1.368 . S
C875 C859 1.349 . S
C875 H867 0.950 . S
C875 C873 1.327 . S
C876 C864 1.349 . S
C876 H870 0.950 . S
C876 C877 1.327 . S
C877 H871 0.950 . S
C877 C876 1.327 . S
C877 C881 1.429 . S
C878 C861 1.574 . S
C878 H872 0.949 . S
C878 C882 1.368 . S
C879 C860 1.429 . S
C879 C873 1.429 . S
C879 C880 1.523 . S
C880 C861 1.368 . S
C880 C874 1.368 . S
C880 C879 1.523 . S
C881 C865 1.429 . S
C881 C877 1.429 . S
C881 C882 1.523 . S
C882 C866 1.368 . S
C882 C878 1.368 . S
C882 C881 1.523 . S
H883 C858 0.950 . S
H884 C860 0.950 . S
H885 C861 0.949 . S
H886 C863 0.950 . S
H887 C865 0.950 . S
C888 C889 1.349 . S
C888 C890 1.327 . S
C888 H913 0.950 . S
C889 C888 1.349 . S
C889 C905 1.349 . S
C890 C888 1.327 . S
C890 C909 1.429 . S
C890 H914 0.950 . S
C891 C908 1.574 . S
C891 C910 1.368 1_565 S
C891 H915 0.949 . S
H892 C896 0.949 . S
C893 C894 1.349 . S
C893 C895 1.327 . S
C893 H916 0.950 . S
C894 C893 1.349 . S
C894 C906 1.349 . S
C895 C893 1.327 . S
C895 C911 1.429 . S
C895 H917 0.950 . S
C896 H892 0.949 . S
C896 C904 1.574 . S
C896 C912 1.368 1_545 S
H897 C905 0.950 . S
H898 C903 0.950 . S
H899 C904 0.949 . S
H900 C906 0.950 . S
H901 C907 0.950 . S
H902 C908 0.949 . S
C903 H898 0.950 . S
C903 C905 1.327 . S
C903 C909 1.429 . S
C904 C896 1.574 . S
C904 H899 0.949 . S
C904 C910 1.368 . S
C905 C889 1.349 . S
C905 H897 0.950 . S
C905 C903 1.327 . S
C906 C894 1.349 . S
C906 H900 0.950 . S
C906 C907 1.327 . S
C907 H901 0.950 . S
C907 C906 1.327 . S
C907 C911 1.429 . S
C908 C891 1.574 . S
C908 H902 0.949 . S
C908 C912 1.368 . S
C909 C890 1.429 . S
C909 C903 1.429 . S
C909 C910 1.523 . S
C910 C891 1.368 1_545 S
C910 C904 1.368 . S
C910 C909 1.523 . S
C911 C895 1.429 . S
C911 C907 1.429 . S
C911 C912 1.523 . S
C912 C896 1.368 1_565 S
C912 C908 1.368 . S
C912 C911 1.523 . S
H913 C888 0.950 . S
H914 C890 0.950 . S
H915 C891 0.949 . S
H916 C893 0.950 . S
H917 C895 0.950 . S
C918 C919 1.349 . S
C918 C920 1.327 . S
C918 H943 0.950 . S
C919 C918 1.349 . S
C919 C935 1.349 . S
C920 C918 1.327 . S
C920 C939 1.429 . S
C920 H944 0.950 . S
C921 C938 1.574 . S
C921 C940 1.368 1_545 S
C921 H945 0.949 . S
H922 C926 0.949 . S
C923 C924 1.349 . S
C923 C925 1.327 . S
C923 H946 0.950 . S
C924 C923 1.349 . S
C924 C936 1.349 . S
C925 C923 1.327 . S
C925 C941 1.429 . S
C925 H947 0.950 . S
C926 H922 0.949 . S
C926 C934 1.574 . S
C926 C942 1.368 1_565 S
H927 C935 0.950 . S
H928 C933 0.950 . S
H929 C934 0.949 . S
H930 C936 0.950 . S
H931 C937 0.950 . S
H932 C938 0.949 . S
C933 H928 0.950 . S
C933 C935 1.327 . S
C933 C939 1.429 . S
C934 C926 1.574 . S
C934 H929 0.949 . S
C934 C940 1.368 1_556 S
C935 C919 1.349 . S
C935 H927 0.950 . S
C935 C933 1.327 . S
C936 C924 1.349 . S
C936 H930 0.950 . S
C936 C937 1.327 . S
C937 H931 0.950 . S
C937 C936 1.327 . S
C937 C941 1.429 . S
C938 C921 1.574 . S
C938 H932 0.949 . S
C938 C942 1.368 1_554 S
C939 C920 1.429 . S
C939 C933 1.429 . S
C939 C940 1.523 . S
C940 C921 1.368 1_565 S
C940 C934 1.368 1_554 S
C940 C939 1.523 . S
C941 C925 1.429 . S
C941 C937 1.429 . S
C941 C942 1.523 . S
C942 C926 1.368 1_545 S
C942 C938 1.368 1_556 S
C942 C941 1.523 . S
H943 C918 0.950 . S
H944 C920 0.950 . S
H945 C921 0.949 . S
H946 C923 0.950 . S
H947 C925 0.950 . S
C948 C949 1.349 . S
C948 C950 1.327 . S
C948 H973 0.950 . S
C949 C948 1.349 . S
C949 C965 1.349 . S
C950 C948 1.327 . S
C950 C969 1.429 . S
C950 H974 0.950 . S
C951 C968 1.525 1_656 S
C951 C970 1.368 . S
C951 H975 0.949 . S
H952 C956 0.949 . S
C953 C954 1.349 . S
C953 C955 1.327 . S
C953 H976 0.950 . S
C954 C953 1.349 . S
C954 C966 1.349 . S
C955 C953 1.327 . S
C955 C971 1.429 . S
C955 H977 0.950 . S
C956 H952 0.949 . S
C956 C964 1.525 1_454 S
C956 C972 1.368 . S
H957 C965 0.950 . S
H958 C963 0.950 . S
H959 C964 0.958 . S
H960 C966 0.950 . S
H961 C967 0.950 . S
H962 C968 0.958 . S
C963 H958 0.950 . S
C963 C965 1.327 . S
C963 C969 1.429 . S
C964 C956 1.525 1_656 S
C964 H959 0.958 . S
C964 C970 1.412 . S
C965 C949 1.349 . S
C965 H957 0.950 . S
C965 C963 1.327 . S
C966 C954 1.349 . S
C966 H960 0.950 . S
C966 C967 1.327 . S
C967 H961 0.950 . S
C967 C966 1.327 . S
C967 C971 1.429 . S
C968 C951 1.525 1_454 S
C968 H962 0.958 . S
C968 C972 1.412 . S
C969 C950 1.429 . S
C969 C963 1.429 . S
C969 C970 1.523 . S
C970 C951 1.368 . S
C970 C964 1.412 . S
C970 C969 1.523 . S
C971 C955 1.429 . S
C971 C967 1.429 . S
C971 C972 1.523 . S
C972 C956 1.368 . S
C972 C968 1.412 . S
C972 C971 1.523 . S
H973 C948 0.950 . S
H974 C950 0.950 . S
H975 C951 0.949 . S
H976 C953 0.950 . S
H977 C955 0.950 . S
C978 C979 1.349 . S
C978 C980 1.327 . S
C978 H1003 0.950 . S
C979 C978 1.349 . S
C979 C995 1.349 . S
C980 C978 1.327 . S
C980 C999 1.429 . S
C980 H1004 0.950 . S
C981 C998 1.573 1_556 S
C981 C1000 1.369 . S
C981 H1005 0.949 . S
H982 C986 0.949 . S
C983 C984 1.349 . S
C983 C985 1.327 . S
C983 H1006 0.950 . S
C984 C983 1.349 . S
C984 C996 1.349 . S
C985 C983 1.327 . S
C985 C1001 1.429 . S
C985 H1007 0.950 . S
C986 H982 0.949 . S
C986 C994 1.573 1_554 S
C986 C1002 1.369 . S
H987 C995 0.950 . S
H988 C993 0.950 . S
H989 C994 0.949 . S
H990 C996 0.950 . S
H991 C997 0.950 . S
H992 C998 0.949 . S
C993 H988 0.950 . S
C993 C995 1.327 . S
C993 C999 1.429 . S
C994 C986 1.573 1_556 S
C994 H989 0.949 . S
C994 C1000 1.368 . S
C995 C979 1.349 . S
C995 H987 0.950 . S
C995 C993 1.327 . S
C996 C984 1.349 . S
C996 H990 0.950 . S
C996 C997 1.327 . S
C997 H991 0.950 . S
C997 C996 1.327 . S
C997 C1001 1.429 . S
C998 C981 1.573 1_554 S
C998 H992 0.949 . S
C998 C1002 1.368 . S
C999 C980 1.429 . S
C999 C993 1.429 . S
C999 C1000 1.523 . S
C1000 C981 1.369 . S
C1000 C994 1.368 . S
C1000 C999 1.523 . S
C1001 C985 1.429 . S
C1001 C997 1.429 . S
C1001 C1002 1.523 . S
C1002 C986 1.369 . S
C1002 C998 1.368 . S
C1002 C1001 1.523 . S
H1003 C978 0.950 . S
H1004 C980 0.950 . S
H1005 C981 0.949 . S
H1006 C983 0.950 . S
H1007 C985 0.950 . S
C1008 C1009 1.349 . S
C1008 C1010 1.327 . S
C1008 H1033 0.950 . S
C1009 C1008 1.349 . S
C1009 C1025 1.349 . S
C1010 C1008 1.327 . S
C1010 C1029 1.429 1_545 S
C1010 H1034 0.950 . S
C1011 C1028 1.574 . S
C1011 C1030 1.368 . S
C1011 H1035 0.949 . S
H1012 C1016 0.949 . S
C1013 C1014 1.349 . S
C1013 C1015 1.327 . S
C1013 H1036 0.950 . S
C1014 C1013 1.349 . S
C1014 C1026 1.349 . S
C1015 C1013 1.327 . S
C1015 C1031 1.429 . S
C1015 H1037 0.950 . S
C1016 H1012 0.949 . S
C1016 C1024 1.574 . S
C1016 C1032 1.368 . S
H1017 C1025 0.942 . S
H1018 C1023 0.950 . S
H1019 C1024 0.969 . S
H1020 C1026 0.950 . S
H1021 C1027 0.950 . S
H1022 C1028 0.949 . S
C1023 H1018 0.950 . S
C1023 C1025 1.327 1_565 S
C1023 C1029 1.429 . S
C1024 C1016 1.574 . S
C1024 H1019 0.969 . S
C1024 C1030 1.368 . S
C1025 C1009 1.349 . S
C1025 H1017 0.942 . S
C1025 C1023 1.327 1_545 S
C1026 C1014 1.349 . S
C1026 H1020 0.950 . S
C1026 C1027 1.327 . S
C1027 H1021 0.950 . S
C1027 C1026 1.327 . S
C1027 C1031 1.429 . S
C1028 C1011 1.574 . S
C1028 H1022 0.949 . S
C1028 C1032 1.368 . S
C1029 C1010 1.429 1_565 S
C1029 C1023 1.429 . S
C1029 C1030 1.523 . S
C1030 C1011 1.368 . S
C1030 C1024 1.368 . S
C1030 C1029 1.523 . S
C1031 C1015 1.429 . S
C1031 C1027 1.429 . S
C1031 C1032 1.523 . S
C1032 C1016 1.368 . S
C1032 C1028 1.368 . S
C1032 C1031 1.523 . S
H1033 C1008 0.950 . S
H1034 C1010 0.950 . S
H1035 C1011 0.949 . S
H1036 C1013 0.950 . S
H1037 C1015 0.950 . S
C1038 C1039 1.349 . S
C1038 C1040 1.327 . S
C1038 H1063 0.950 . S
C1039 C1038 1.349 . S
C1039 C1055 1.349 . S
C1040 C1038 1.327 . S
C1040 C1059 1.429 . S
C1040 H1064 0.950 . S
C1041 C1058 1.574 . S
C1041 C1060 1.368 . S
C1041 H1065 0.949 . S
H1042 C1046 0.949 . S
C1043 C1044 1.349 . S
C1043 C1045 1.327 . S
C1043 H1066 0.950 . S
C1044 C1043 1.349 . S
C1044 C1056 1.349 . S
C1045 C1043 1.327 . S
C1045 C1061 1.429 1_655 S
C1045 H1067 0.950 . S
C1046 H1042 0.949 . S
C1046 C1054 1.574 . S
C1046 C1062 1.368 . S
H1047 C1055 0.950 . S
H1048 C1053 0.950 . S
H1049 C1054 0.949 . S
H1050 C1056 0.962 . S
H1051 C1057 0.950 . S
H1052 C1058 0.952 . S
C1053 H1048 0.950 . S
C1053 C1055 1.327 . S
C1053 C1059 1.429 . S
C1054 C1046 1.574 . S
C1054 H1049 0.949 . S
C1054 C1060 1.368 . S
C1055 C1039 1.349 . S
C1055 H1047 0.950 . S
C1055 C1053 1.327 . S
C1056 C1044 1.349 . S
C1056 H1050 0.962 . S
C1056 C1057 1.327 1_655 S
C1057 H1051 0.950 . S
C1057 C1056 1.327 1_455 S
C1057 C1061 1.429 . S
C1058 C1041 1.574 . S
C1058 H1052 0.952 . S
C1058 C1062 1.368 . S
C1059 C1040 1.429 . S
C1059 C1053 1.429 . S
C1059 C1060 1.523 . S
C1060 C1041 1.368 . S
C1060 C1054 1.368 . S
C1060 C1059 1.523 . S
C1061 C1045 1.429 1_455 S
C1061 C1057 1.429 . S
C1061 C1062 1.523 . S
C1062 C1046 1.368 . S
C1062 C1058 1.368 . S
C1062 C1061 1.523 . S
H1063 C1038 0.950 . S
H1064 C1040 0.950 . S
H1065 C1041 0.949 . S
H1066 C1043 0.950 . S
H1067 C1045 0.950 . S
C1068 C1069 1.349 . S
C1068 C1070 1.327 . S
C1068 H1093 0.950 . S
C1069 C1068 1.349 . S
C1069 C1085 1.349 . S
C1070 C1068 1.327 . S
C1070 C1089 1.429 . S
C1070 H1094 0.950 . S
C1071 C1088 1.574 . S
C1071 C1090 1.368 . S
C1071 H1095 0.949 . S
H1072 C1076 0.949 . S
C1073 C1074 1.349 . S
C1073 C1075 1.327 . S
C1073 H1096 0.950 . S
C1074 C1073 1.349 . S
C1074 C1086 1.349 . S
C1075 C1073 1.327 . S
C1075 C1091 1.429 . S
C1075 H1097 0.950 . S
C1076 H1072 0.949 . S
C1076 C1084 1.574 . S
C1076 C1092 1.368 . S
H1077 C1085 0.950 . S
H1078 C1083 0.950 . S
H1079 C1084 0.949 . S
H1080 C1086 0.950 . S
H1081 C1087 0.950 . S
H1082 C1088 0.949 . S
C1083 H1078 0.950 . S
C1083 C1085 1.327 . S
C1083 C1089 1.429 . S
C1084 C1076 1.574 . S
C1084 H1079 0.949 . S
C1084 C1090 1.368 . S
C1085 C1069 1.349 . S
C1085 H1077 0.950 . S
C1085 C1083 1.327 . S
C1086 C1074 1.349 . S
C1086 H1080 0.950 . S
C1086 C1087 1.327 . S
C1087 H1081 0.950 . S
C1087 C1086 1.327 . S
C1087 C1091 1.429 . S
C1088 C1071 1.574 . S
C1088 H1082 0.949 . S
C1088 C1092 1.368 . S
C1089 C1070 1.429 . S
C1089 C1083 1.429 . S
C1089 C1090 1.523 . S
C1090 C1071 1.368 . S
C1090 C1084 1.368 . S
C1090 C1089 1.523 . S
C1091 C1075 1.429 . S
C1091 C1087 1.429 . S
C1091 C1092 1.523 . S
C1092 C1076 1.368 . S
C1092 C1088 1.368 . S
C1092 C1091 1.523 . S
H1093 C1068 0.950 . S
H1094 C1070 0.950 . S
H1095 C1071 0.949 . S
H1096 C1073 0.950 . S
H1097 C1075 0.950 . S
C1098 C1099 1.349 . S
C1098 C1100 1.327 . S
C1098 H1123 0.950 . S
C1099 C1098 1.349 . S
C1099 C1115 1.349 . S
C1100 C1098 1.327 . S
C1100 C1119 1.429 . S
C1100 H1124 0.950 . S
C1101 C1118 1.574 . S
C1101 C1120 1.368 . S
C1101 H1125 0.949 . S
H1102 C1106 0.949 . S
C1103 C1104 1.349 . S
C1103 C1105 1.327 . S
C1103 H1126 0.950 . S
C1104 C1103 1.349 . S
C1104 C1116 1.349 . S
C1105 C1103 1.327 . S
C1105 C1121 1.429 1_455 S
C1105 H1127 0.950 . S
C1106 H1102 0.949 . S
C1106 C1114 1.574 . S
C1106 C1122 1.368 . S
H1107 C1115 0.950 . S
H1108 C1113 0.950 . S
H1109 C1114 0.949 . S
H1110 C1116 0.948 . S
H1111 C1117 0.950 . S
H1112 C1118 0.953 1_455 S
C1113 H1108 0.950 . S
C1113 C1115 1.327 . S
C1113 C1119 1.429 . S
C1114 C1106 1.574 . S
C1114 H1109 0.949 . S
C1114 C1120 1.368 . S
C1115 C1099 1.349 . S
C1115 H1107 0.950 . S
C1115 C1113 1.327 . S
C1116 C1104 1.349 . S
C1116 H1110 0.948 . S
C1116 C1117 1.327 1_455 S
C1117 H1111 0.950 . S
C1117 C1116 1.327 1_655 S
C1117 C1121 1.429 . S
C1118 C1101 1.574 . S
C1118 H1112 0.953 1_655 S
C1118 C1122 1.368 . S
C1119 C1100 1.429 . S
C1119 C1113 1.429 . S
C1119 C1120 1.523 . S
C1120 C1101 1.368 . S
C1120 C1114 1.368 . S
C1120 C1119 1.523 . S
C1121 C1105 1.429 1_655 S
C1121 C1117 1.429 . S
C1121 C1122 1.523 . S
C1122 C1106 1.368 . S
C1122 C1118 1.368 . S
C1122 C1121 1.523 . S
H1123 C1098 0.950 . S
H1124 C1100 0.950 . S
H1125 C1101 0.949 . S
H1126 C1103 0.950 . S
H1127 C1105 0.950 . S
C1128 C1129 1.349 . S
C1128 C1130 1.327 . S
C1128 H1153 0.950 . S
C1129 C1128 1.349 . S
C1129 C1145 1.349 . S
C1130 C1128 1.327 . S
C1130 C1149 1.429 . S
C1130 H1154 0.950 . S
C1131 C1148 1.574 . S
C1131 C1150 1.368 . S
C1131 H1155 0.949 . S
H1132 C1136 0.949 . S
C1133 C1134 1.349 . S
C1133 C1135 1.327 . S
C1133 H1156 0.950 . S
C1134 C1133 1.349 . S
C1134 C1146 1.349 . S
C1135 C1133 1.327 . S
C1135 C1151 1.429 . S
C1135 H1157 0.950 . S
C1136 H1132 0.949 . S
C1136 C1144 1.574 . S
C1136 C1152 1.368 . S
H1137 C1145 0.950 . S
H1138 C1143 0.950 . S
H1139 C1144 0.949 . S
H1140 C1146 0.950 . S
H1141 C1147 0.950 . S
H1142 C1148 0.949 . S
C1143 H1138 0.950 . S
C1143 C1145 1.327 . S
C1143 C1149 1.429 . S
C1144 C1136 1.574 . S
C1144 H1139 0.949 . S
C1144 C1150 1.368 . S
C1145 C1129 1.349 . S
C1145 H1137 0.950 . S
C1145 C1143 1.327 . S
C1146 C1134 1.349 . S
C1146 H1140 0.950 . S
C1146 C1147 1.327 . S
C1147 H1141 0.950 . S
C1147 C1146 1.327 . S
C1147 C1151 1.429 . S
C1148 C1131 1.574 . S
C1148 H1142 0.949 . S
C1148 C1152 1.368 . S
C1149 C1130 1.429 . S
C1149 C1143 1.429 . S
C1149 C1150 1.523 . S
C1150 C1131 1.368 . S
C1150 C1144 1.368 . S
C1150 C1149 1.523 . S
C1151 C1135 1.429 . S
C1151 C1147 1.429 . S
C1151 C1152 1.523 . S
C1152 C1136 1.368 . S
C1152 C1148 1.368 . S
C1152 C1151 1.523 . S
H1153 C1128 0.950 . S
H1154 C1130 0.950 . S
H1155 C1131 0.949 . S
H1156 C1133 0.950 . S
H1157 C1135 0.950 . S
C1158 C1159 1.349 . S
C1158 C1160 1.327 . S
C1158 H1183 0.950 . S
C1159 C1158 1.349 . S
C1159 C1175 1.349 . S
C1160 C1158 1.327 . S
C1160 C1179 1.429 . S
C1160 H1184 0.950 . S
C1161 C1178 1.574 . S
C1161 C1180 1.368 . S
C1161 H1185 0.949 . S
H1162 C1166 0.949 . S
C1163 C1164 1.349 . S
C1163 C1165 1.327 . S
C1163 H1186 0.950 . S
C1164 C1163 1.349 . S
C1164 C1176 1.349 . S
C1165 C1163 1.327 . S
C1165 C1181 1.429 1_565 S
C1165 H1187 0.950 . S
C1166 H1162 0.949 . S
C1166 C1174 1.574 . S
C1166 C1182 1.368 . S
H1167 C1175 0.950 . S
H1168 C1173 0.950 . S
H1169 C1174 0.949 . S
H1170 C1176 0.957 . S
H1171 C1177 0.950 . S
H1172 C1178 0.947 . S
C1173 H1168 0.950 . S
C1173 C1175 1.327 . S
C1173 C1179 1.429 . S
C1174 C1166 1.574 . S
C1174 H1169 0.949 . S
C1174 C1180 1.368 . S
C1175 C1159 1.349 . S
C1175 H1167 0.950 . S
C1175 C1173 1.327 . S
C1176 C1164 1.349 . S
C1176 H1170 0.957 . S
C1176 C1177 1.327 1_565 S
C1177 H1171 0.950 . S
C1177 C1176 1.327 1_545 S
C1177 C1181 1.429 . S
C1178 C1161 1.574 . S
C1178 H1172 0.947 . S
C1178 C1182 1.368 . S
C1179 C1160 1.429 . S
C1179 C1173 1.429 . S
C1179 C1180 1.523 . S
C1180 C1161 1.368 . S
C1180 C1174 1.368 . S
C1180 C1179 1.523 . S
C1181 C1165 1.429 1_545 S
C1181 C1177 1.429 . S
C1181 C1182 1.523 . S
C1182 C1166 1.368 . S
C1182 C1178 1.368 . S
C1182 C1181 1.523 . S
H1183 C1158 0.950 . S
H1184 C1160 0.950 . S
H1185 C1161 0.949 . S
H1186 C1163 0.950 . S
H1187 C1165 0.950 . S
C1188 C1189 1.349 . S
C1188 C1190 1.327 1_565 S
C1188 H1213 0.960 1_565 S
C1189 C1188 1.349 . S
C1189 C1205 1.349 . S
C1190 C1188 1.327 1_545 S
C1190 C1209 1.429 . S
C1190 H1214 0.950 . S
C1191 C1208 1.574 . S
C1191 C1210 1.368 . S
C1191 H1215 0.949 1_545 S
H1192 C1196 0.949 . S
C1193 C1194 1.349 . S
C1193 C1195 1.327 . S
C1193 H1216 0.950 . S
C1194 C1193 1.349 . S
C1194 C1206 1.349 . S
C1195 C1193 1.327 . S
C1195 C1211 1.429 . S
C1195 H1217 0.950 . S
C1196 H1192 0.949 . S
C1196 C1204 1.574 . S
C1196 C1212 1.368 . S
H1197 C1205 0.950 . S
H1198 C1203 0.950 . S
H1199 C1204 0.949 . S
H1200 C1206 0.950 . S
H1201 C1207 0.950 . S
H1202 C1208 0.949 . S
C1203 H1198 0.950 . S
C1203 C1205 1.327 . S
C1203 C1209 1.429 1_565 S
C1204 C1196 1.574 . S
C1204 H1199 0.949 . S
C1204 C1210 1.368 . S
C1205 C1189 1.349 . S
C1205 H1197 0.950 . S
C1205 C1203 1.327 . S
C1206 C1194 1.349 . S
C1206 H1200 0.950 . S
C1206 C1207 1.327 . S
C1207 H1201 0.950 . S
C1207 C1206 1.327 . S
C1207 C1211 1.429 . S
C1208 C1191 1.574 . S
C1208 H1202 0.949 . S
C1208 C1212 1.368 . S
C1209 C1190 1.429 . S
C1209 C1203 1.429 1_545 S
C1209 C1210 1.523 . S
C1210 C1191 1.368 . S
C1210 C1204 1.368 . S
C1210 C1209 1.523 . S
C1211 C1195 1.429 . S
C1211 C1207 1.429 . S
C1211 C1212 1.523 . S
C1212 C1196 1.368 . S
C1212 C1208 1.368 . S
C1212 C1211 1.523 . S
H1213 C1188 0.960 1_545 S
H1214 C1190 0.950 . S
H1215 C1191 0.949 1_565 S
H1216 C1193 0.950 . S
H1217 C1195 0.950 . S
C1218 C1219 1.349 . S
C1218 C1220 1.327 . S
C1218 H1243 0.950 . S
C1219 C1218 1.349 . S
C1219 C1235 1.349 . S
C1220 C1218 1.327 . S
C1220 C1239 1.429 . S
C1220 H1244 0.950 . S
C1221 C1238 1.574 . S
C1221 C1240 1.368 . S
C1221 H1245 0.949 . S
H1222 C1226 0.949 . S
C1223 C1224 1.349 . S
C1223 C1225 1.327 . S
C1223 H1246 0.950 . S
C1224 C1223 1.349 . S
C1224 C1236 1.349 . S
C1225 C1223 1.327 . S
C1225 C1241 1.429 1_455 S
C1225 H1247 0.950 . S
C1226 H1222 0.949 . S
C1226 C1234 1.574 . S
C1226 C1242 1.368 . S
H1227 C1235 0.950 . S
H1228 C1233 0.950 . S
H1229 C1234 0.949 . S
H1230 C1236 0.962 . S
H1231 C1237 0.950 . S
H1232 C1238 0.953 . S
C1233 H1228 0.950 . S
C1233 C1235 1.327 . S
C1233 C1239 1.429 . S
C1234 C1226 1.574 . S
C1234 H1229 0.949 . S
C1234 C1240 1.368 . S
C1235 C1219 1.349 . S
C1235 H1227 0.950 . S
C1235 C1233 1.327 . S
C1236 C1224 1.349 . S
C1236 H1230 0.962 . S
C1236 C1237 1.327 1_455 S
C1237 H1231 0.950 . S
C1237 C1236 1.327 1_655 S
C1237 C1241 1.429 . S
C1238 C1221 1.574 . S
C1238 H1232 0.953 . S
C1238 C1242 1.368 . S
C1239 C1220 1.429 . S
C1239 C1233 1.429 . S
C1239 C1240 1.523 . S
C1240 C1221 1.368 . S
C1240 C1234 1.368 . S
C1240 C1239 1.523 . S
C1241 C1225 1.429 1_655 S
C1241 C1237 1.429 . S
C1241 C1242 1.523 . S
C1242 C1226 1.368 . S
C1242 C1238 1.368 . S
C1242 C1241 1.523 . S
H1243 C1218 0.950 . S
H1244 C1220 0.950 . S
H1245 C1221 0.949 . S
H1246 C1223 0.950 . S
H1247 C1225 0.950 . S
C1248 C1249 1.349 . S
C1248 C1250 1.327 . S
C1248 H1273 0.950 . S
C1249 C1248 1.349 . S
C1249 C1265 1.349 . S
C1250 C1248 1.327 . S
C1250 C1269 1.429 . S
C1250 H1274 0.950 . S
C1251 C1268 1.574 . S
C1251 C1270 1.368 . S
C1251 H1275 0.949 . S
H1252 C1256 0.949 . S
C1253 C1254 1.349 . S
C1253 C1255 1.327 . S
C1253 H1276 0.950 . S
C1254 C1253 1.349 . S
C1254 C1266 1.349 . S
C1255 C1253 1.327 . S
C1255 C1271 1.429 . S
C1255 H1277 0.950 . S
C1256 H1252 0.949 . S
C1256 C1264 1.574 . S
C1256 C1272 1.368 . S
H1257 C1265 0.950 . S
H1258 C1263 0.950 . S
H1259 C1264 0.949 . S
H1260 C1266 0.950 . S
H1261 C1267 0.950 . S
H1262 C1268 0.949 . S
C1263 H1258 0.950 . S
C1263 C1265 1.327 . S
C1263 C1269 1.429 . S
C1264 C1256 1.574 . S
C1264 H1259 0.949 . S
C1264 C1270 1.368 . S
C1265 C1249 1.349 . S
C1265 H1257 0.950 . S
C1265 C1263 1.327 . S
C1266 C1254 1.349 . S
C1266 H1260 0.950 . S
C1266 C1267 1.327 . S
C1267 H1261 0.950 . S
C1267 C1266 1.327 . S
C1267 C1271 1.429 . S
C1268 C1251 1.574 . S
C1268 H1262 0.949 . S
C1268 C1272 1.368 . S
C1269 C1250 1.429 . S
C1269 C1263 1.429 . S
C1269 C1270 1.523 . S
C1270 C1251 1.368 . S
C1270 C1264 1.368 . S
C1270 C1269 1.523 . S
C1271 C1255 1.429 . S
C1271 C1267 1.429 . S
C1271 C1272 1.523 . S
C1272 C1256 1.368 . S
C1272 C1268 1.368 . S
C1272 C1271 1.523 . S
H1273 C1248 0.950 . S
H1274 C1250 0.950 . S
H1275 C1251 0.949 . S
H1276 C1253 0.950 . S
H1277 C1255 0.950 . S
C1278 C1279 1.349 . S
C1278 C1280 1.327 1_655 S
C1278 H1303 0.947 . S
C1279 C1278 1.349 . S
C1279 C1295 1.349 . S
C1280 C1278 1.327 1_455 S
C1280 C1299 1.429 . S
C1280 H1304 0.950 . S
C1281 C1298 1.574 . S
C1281 C1300 1.368 . S
C1281 H1305 0.948 . S
H1282 C1286 0.949 . S
C1283 C1284 1.349 . S
C1283 C1285 1.327 . S
C1283 H1306 0.950 . S
C1284 C1283 1.349 . S
C1284 C1296 1.349 . S
C1285 C1283 1.327 . S
C1285 C1301 1.429 . S
C1285 H1307 0.950 . S
C1286 H1282 0.949 . S
C1286 C1294 1.574 . S
C1286 C1302 1.368 . S
H1287 C1295 0.950 . S
H1288 C1293 0.950 . S
H1289 C1294 0.949 . S
H1290 C1296 0.950 . S
H1291 C1297 0.950 . S
H1292 C1298 0.949 . S
C1293 H1288 0.950 . S
C1293 C1295 1.327 . S
C1293 C1299 1.429 1_655 S
C1294 C1286 1.574 . S
C1294 H1289 0.949 . S
C1294 C1300 1.368 . S
C1295 C1279 1.349 . S
C1295 H1287 0.950 . S
C1295 C1293 1.327 . S
C1296 C1284 1.349 . S
C1296 H1290 0.950 . S
C1296 C1297 1.327 . S
C1297 H1291 0.950 . S
C1297 C1296 1.327 . S
C1297 C1301 1.429 . S
C1298 C1281 1.574 . S
C1298 H1292 0.949 . S
C1298 C1302 1.368 . S
C1299 C1280 1.429 . S
C1299 C1293 1.429 1_455 S
C1299 C1300 1.523 . S
C1300 C1281 1.368 . S
C1300 C1294 1.368 . S
C1300 C1299 1.523 . S
C1301 C1285 1.429 . S
C1301 C1297 1.429 . S
C1301 C1302 1.523 . S
C1302 C1286 1.368 . S
C1302 C1298 1.368 . S
C1302 C1301 1.523 . S
H1303 C1278 0.947 . S
H1304 C1280 0.950 . S
H1305 C1281 0.948 . S
H1306 C1283 0.950 . S
H1307 C1285 0.950 . S
C1308 C1309 1.349 . S
C1308 C1310 1.327 . S
C1308 H1333 0.950 . S
C1309 C1308 1.349 . S
C1309 C1325 1.349 . S
C1310 C1308 1.327 . S
C1310 C1329 1.429 . S
C1310 H1334 0.950 . S
C1311 C1328 1.574 . S
C1311 C1330 1.368 . S
C1311 H1335 0.949 . S
H1312 C1316 0.949 . S
C1313 C1314 1.349 . S
C1313 C1315 1.327 . S
C1313 H1336 0.950 . S
C1314 C1313 1.349 . S
C1314 C1326 1.349 . S
C1315 C1313 1.327 . S
C1315 C1331 1.429 . S
C1315 H1337 0.950 . S
C1316 H1312 0.949 . S
C1316 C1324 1.574 . S
C1316 C1332 1.368 . S
H1317 C1325 0.950 . S
H1318 C1323 0.950 . S
H1319 C1324 0.949 . S
H1320 C1326 0.950 . S
H1321 C1327 0.950 . S
H1322 C1328 0.949 . S
C1323 H1318 0.950 . S
C1323 C1325 1.327 . S
C1323 C1329 1.429 . S
C1324 C1316 1.574 . S
C1324 H1319 0.949 . S
C1324 C1330 1.368 . S
C1325 C1309 1.349 . S
C1325 H1317 0.950 . S
C1325 C1323 1.327 . S
C1326 C1314 1.349 . S
C1326 H1320 0.950 . S
C1326 C1327 1.327 . S
C1327 H1321 0.950 . S
C1327 C1326 1.327 . S
C1327 C1331 1.429 . S
C1328 C1311 1.574 . S
C1328 H1322 0.949 . S
C1328 C1332 1.368 . S
C1329 C1310 1.429 . S
C1329 C1323 1.429 . S
C1329 C1330 1.523 . S
C1330 C1311 1.368 . S
C1330 C1324 1.368 . S
C1330 C1329 1.523 . S
C1331 C1315 1.429 . S
C1331 C1327 1.429 . S
C1331 C1332 1.523 . S
C1332 C1316 1.368 . S
C1332 C1328 1.368 . S
C1332 C1331 1.523 . S
H1333 C1308 0.950 . S
H1334 C1310 0.950 . S
H1335 C1311 0.949 . S
H1336 C1313 0.950 . S
H1337 C1315 0.950 . S
C1338 C1339 1.349 . S
C1338 C1340 1.327 . S
C1338 H1363 0.950 . S
C1339 C1338 1.349 . S
C1339 C1355 1.349 . S
C1340 C1338 1.327 . S
C1340 C1359 1.429 1_545 S
C1340 H1364 0.950 . S
C1341 C1358 1.574 . S
C1341 C1360 1.368 . S
C1341 H1365 0.949 . S
H1342 C1346 0.949 . S
C1343 C1344 1.349 . S
C1343 C1345 1.327 . S
C1343 H1366 0.950 . S
C1344 C1343 1.349 . S
C1344 C1356 1.349 . S
C1345 C1343 1.327 . S
C1345 C1361 1.429 . S
C1345 H1367 0.950 . S
C1346 H1342 0.949 . S
C1346 C1354 1.574 . S
C1346 C1362 1.368 . S
H1347 C1355 0.950 . S
H1348 C1353 0.950 . S
H1349 C1354 0.949 . S
H1350 C1356 0.950 . S
H1351 C1357 0.950 . S
H1352 C1358 0.949 . S
C1353 H1348 0.950 . S
C1353 C1355 1.327 1_565 S
C1353 C1359 1.429 . S
C1354 C1346 1.574 . S
C1354 H1349 0.949 . S
C1354 C1360 1.368 . S
C1355 C1339 1.349 . S
C1355 H1347 0.950 . S
C1355 C1353 1.327 1_545 S
C1356 C1344 1.349 . S
C1356 H1350 0.950 . S
C1356 C1357 1.327 . S
C1357 H1351 0.950 . S
C1357 C1356 1.327 . S
C1357 C1361 1.429 . S
C1358 C1341 1.574 . S
C1358 H1352 0.949 . S
C1358 C1362 1.368 . S
C1359 C1340 1.429 1_565 S
C1359 C1353 1.429 . S
C1359 C1360 1.523 . S
C1360 C1341 1.368 . S
C1360 C1354 1.368 . S
C1360 C1359 1.523 . S
C1361 C1345 1.429 . S
C1361 C1357 1.429 . S
C1361 C1362 1.523 . S
C1362 C1346 1.368 . S
C1362 C1358 1.368 . S
C1362 C1361 1.523 . S
H1363 C1338 0.950 . S
H1364 C1340 0.950 . S
H1365 C1341 0.949 . S
H1366 C1343 0.950 . S
H1367 C1345 0.950 . S
C1368 C1369 1.349 . S
C1368 C1370 1.327 . S
C1368 H1393 0.950 . S
C1369 C1368 1.349 . S
C1369 C1385 1.349 . S
C1370 C1368 1.327 . S
C1370 C1389 1.429 . S
C1370 H1394 0.950 . S
C1371 C1388 1.574 . S
C1371 C1390 1.368 . S
C1371 H1395 0.949 . S
H1372 C1376 0.949 . S
C1373 C1374 1.349 . S
C1373 C1375 1.327 . S
C1373 H1396 0.950 . S
C1374 C1373 1.349 . S
C1374 C1386 1.349 . S
C1375 C1373 1.327 . S
C1375 C1391 1.429 . S
C1375 H1397 0.950 . S
C1376 H1372 0.949 . S
C1376 C1384 1.574 . S
C1376 C1392 1.368 . S
H1377 C1385 0.950 . S
H1378 C1383 0.950 . S
H1379 C1384 0.949 . S
H1380 C1386 0.950 . S
H1381 C1387 0.950 . S
H1382 C1388 0.949 . S
C1383 H1378 0.950 . S
C1383 C1385 1.327 . S
C1383 C1389 1.429 . S
C1384 C1376 1.574 . S
C1384 H1379 0.949 . S
C1384 C1390 1.368 . S
C1385 C1369 1.349 . S
C1385 H1377 0.950 . S
C1385 C1383 1.327 . S
C1386 C1374 1.349 . S
C1386 H1380 0.950 . S
C1386 C1387 1.327 . S
C1387 H1381 0.950 . S
C1387 C1386 1.327 . S
C1387 C1391 1.429 . S
C1388 C1371 1.574 . S
C1388 H1382 0.949 . S
C1388 C1392 1.368 . S
C1389 C1370 1.429 . S
C1389 C1383 1.429 . S
C1389 C1390 1.523 . S
C1390 C1371 1.368 . S
C1390 C1384 1.368 . S
C1390 C1389 1.523 . S
C1391 C1375 1.429 . S
C1391 C1387 1.429 . S
C1391 C1392 1.523 . S
C1392 C1376 1.368 . S
C1392 C1388 1.368 . S
C1392 C1391 1.523 . S
H1393 C1368 0.950 . S
H1394 C1370 0.950 . S
H1395 C1371 0.949 . S
H1396 C1373 0.950 . S
H1397 C1375 0.950 . S
C1398 C1399 1.349 . S
C1398 C1400 1.327 . S
C1398 H1423 0.950 . S
C1399 C1398 1.349 . S
C1399 C1415 1.349 . S
C1400 C1398 1.327 . S
C1400 C1419 1.429 . S
C1400 H1424 0.950 . S
C1401 C1418 1.574 1_545 S
C1401 C1420 1.368 . S
C1401 H1425 0.949 . S
H1402 C1406 0.949 . S
C1403 C1404 1.349 . S
C1403 C1405 1.327 . S
C1403 H1426 0.950 . S
C1404 C1403 1.349 . S
C1404 C1416 1.349 . S
C1405 C1403 1.327 . S
C1405 C1421 1.429 . S
C1405 H1427 0.950 . S
C1406 H1402 0.949 . S
C1406 C1414 1.574 1_565 S
C1406 C1422 1.368 . S
H1407 C1415 0.950 . S
H1408 C1413 0.950 . S
H1409 C1414 0.949 . S
H1410 C1416 0.950 . S
H1411 C1417 0.950 . S
H1412 C1418 0.949 . S
C1413 H1408 0.950 . S
C1413 C1415 1.327 . S
C1413 C1419 1.429 . S
C1414 C1406 1.574 1_545 S
C1414 H1409 0.949 . S
C1414 C1420 1.368 . S
C1415 C1399 1.349 . S
C1415 H1407 0.950 . S
C1415 C1413 1.327 . S
C1416 C1404 1.349 . S
C1416 H1410 0.950 . S
C1416 C1417 1.327 . S
C1417 H1411 0.950 . S
C1417 C1416 1.327 . S
C1417 C1421 1.429 . S
C1418 C1401 1.574 1_565 S
C1418 H1412 0.949 . S
C1418 C1422 1.368 . S
C1419 C1400 1.429 . S
C1419 C1413 1.429 . S
C1419 C1420 1.523 . S
C1420 C1401 1.368 . S
C1420 C1414 1.368 . S
C1420 C1419 1.523 . S
C1421 C1405 1.429 . S
C1421 C1417 1.429 . S
C1421 C1422 1.523 . S
C1422 C1406 1.368 . S
C1422 C1418 1.368 . S
C1422 C1421 1.523 . S
H1423 C1398 0.950 . S
H1424 C1400 0.950 . S
H1425 C1401 0.949 . S
H1426 C1403 0.950 . S
H1427 C1405 0.950 . S
C1428 C1429 1.349 . S
C1428 C1430 1.327 . S
C1428 H1453 0.950 . S
C1429 C1428 1.349 . S
C1429 C1445 1.349 . S
C1430 C1428 1.327 . S
C1430 C1449 1.429 . S
C1430 H1454 0.950 . S
C1431 C1448 1.574 1_655 S
C1431 C1450 1.368 . S
C1431 H1455 0.949 . S
H1432 C1436 0.949 . S
C1433 C1434 1.349 . S
C1433 C1435 1.327 . S
C1433 H1456 0.950 . S
C1434 C1433 1.349 . S
C1434 C1446 1.349 . S
C1435 C1433 1.327 . S
C1435 C1451 1.429 . S
C1435 H1457 0.950 . S
C1436 H1432 0.949 . S
C1436 C1444 1.574 1_455 S
C1436 C1452 1.368 . S
H1437 C1445 0.950 . S
H1438 C1443 0.950 . S
H1439 C1444 0.949 . S
H1440 C1446 0.950 . S
H1441 C1447 0.950 . S
H1442 C1448 0.949 . S
C1443 H1438 0.950 . S
C1443 C1445 1.327 . S
C1443 C1449 1.429 . S
C1444 C1436 1.574 1_655 S
C1444 H1439 0.949 . S
C1444 C1450 1.368 . S
C1445 C1429 1.349 . S
C1445 H1437 0.950 . S
C1445 C1443 1.327 . S
C1446 C1434 1.349 . S
C1446 H1440 0.950 . S
C1446 C1447 1.327 . S
C1447 H1441 0.950 . S
C1447 C1446 1.327 . S
C1447 C1451 1.429 . S
C1448 C1431 1.574 1_455 S
C1448 H1442 0.949 . S
C1448 C1452 1.368 . S
C1449 C1430 1.429 . S
C1449 C1443 1.429 . S
C1449 C1450 1.523 . S
C1450 C1431 1.368 . S
C1450 C1444 1.368 . S
C1450 C1449 1.523 . S
C1451 C1435 1.429 . S
C1451 C1447 1.429 . S
C1451 C1452 1.523 . S
C1452 C1436 1.368 . S
C1452 C1448 1.368 . S
C1452 C1451 1.523 . S
H1453 C1428 0.950 . S
H1454 C1430 0.950 . S
H1455 C1431 0.949 . S
H1456 C1433 0.950 . S
H1457 C1435 0.950 . S
C1458 C1459 1.349 . S
C1458 C1460 1.327 . S
C1458 H1483 0.950 . S
C1459 C1458 1.349 . S
C1459 C1475 1.349 . S
C1460 C1458 1.327 . S
C1460 C1479 1.429 . S
C1460 H1484 0.950 . S
C1461 C1478 1.574 . S
C1461 C1480 1.368 . S
C1461 H1485 0.949 . S
H1462 C1466 0.949 . S
C1463 C1464 1.349 . S
C1463 C1465 1.327 . S
C1463 H1486 0.950 . S
C1464 C1463 1.349 . S
C1464 C1476 1.349 . S
C1465 C1463 1.327 . S
C1465 C1481 1.429 . S
C1465 H1487 0.950 . S
C1466 H1462 0.949 . S
C1466 C1474 1.574 . S
C1466 C1482 1.368 . S
H1467 C1475 0.950 . S
H1468 C1473 0.950 . S
H1469 C1474 0.949 . S
H1470 C1476 0.950 . S
H1471 C1477 0.950 . S
H1472 C1478 0.949 . S
C1473 H1468 0.950 . S
C1473 C1475 1.327 . S
C1473 C1479 1.429 . S
C1474 C1466 1.574 . S
C1474 H1469 0.949 . S
C1474 C1480 1.368 . S
C1475 C1459 1.349 . S
C1475 H1467 0.950 . S
C1475 C1473 1.327 . S
C1476 C1464 1.349 . S
C1476 H1470 0.950 . S
C1476 C1477 1.327 . S
C1477 H1471 0.950 . S
C1477 C1476 1.327 . S
C1477 C1481 1.429 . S
C1478 C1461 1.574 . S
C1478 H1472 0.949 . S
C1478 C1482 1.368 . S
C1479 C1460 1.429 . S
C1479 C1473 1.429 . S
C1479 C1480 1.523 . S
C1480 C1461 1.368 . S
C1480 C1474 1.368 . S
C1480 C1479 1.523 . S
C1481 C1465 1.429 . S
C1481 C1477 1.429 . S
C1481 C1482 1.523 . S
C1482 C1466 1.368 . S
C1482 C1478 1.368 . S
C1482 C1481 1.523 . S
H1483 C1458 0.950 . S
H1484 C1460 0.950 . S
H1485 C1461 0.949 . S
H1486 C1463 0.950 . S
H1487 C1465 0.950 . S
C1488 C1489 1.349 . S
C1488 C1490 1.327 . S
C1488 H1513 0.950 . S
C1489 C1488 1.349 . S
C1489 C1505 1.349 . S
C1490 C1488 1.327 . S
C1490 C1509 1.429 . S
C1490 H1514 0.950 . S
C1491 C1508 1.574 1_565 S
C1491 C1510 1.368 . S
C1491 H1515 0.949 . S
H1492 C1496 0.949 . S
C1493 C1494 1.349 . S
C1493 C1495 1.327 . S
C1493 H1516 0.950 . S
C1494 C1493 1.349 . S
C1494 C1506 1.349 . S
C1495 C1493 1.327 . S
C1495 C1511 1.429 . S
C1495 H1517 0.950 . S
C1496 H1492 0.949 . S
C1496 C1504 1.574 1_545 S
C1496 C1512 1.368 . S
H1497 C1505 0.950 . S
H1498 C1503 0.950 . S
H1499 C1504 0.949 . S
H1500 C1506 0.950 . S
H1501 C1507 0.950 . S
H1502 C1508 0.949 . S
C1503 H1498 0.950 . S
C1503 C1505 1.327 . S
C1503 C1509 1.429 . S
C1504 C1496 1.574 1_565 S
C1504 H1499 0.949 . S
C1504 C1510 1.368 . S
C1505 C1489 1.349 . S
C1505 H1497 0.950 . S
C1505 C1503 1.327 . S
C1506 C1494 1.349 . S
C1506 H1500 0.950 . S
C1506 C1507 1.327 . S
C1507 H1501 0.950 . S
C1507 C1506 1.327 . S
C1507 C1511 1.429 . S
C1508 C1491 1.574 1_545 S
C1508 H1502 0.949 . S
C1508 C1512 1.368 . S
C1509 C1490 1.429 . S
C1509 C1503 1.429 . S
C1509 C1510 1.523 . S
C1510 C1491 1.368 . S
C1510 C1504 1.368 . S
C1510 C1509 1.523 . S
C1511 C1495 1.429 . S
C1511 C1507 1.429 . S
C1511 C1512 1.523 . S
C1512 C1496 1.368 . S
C1512 C1508 1.368 . S
C1512 C1511 1.523 . S
H1513 C1488 0.950 . S
H1514 C1490 0.950 . S
H1515 C1491 0.949 . S
H1516 C1493 0.950 . S
H1517 C1495 0.950 . S
C1518 C1519 1.349 . S
C1518 C1520 1.327 . S
C1518 H1543 0.950 . S
C1519 C1518 1.349 . S
C1519 C1535 1.349 . S
C1520 C1518 1.327 . S
C1520 C1539 1.429 . S
C1520 H1544 0.950 . S
C1521 C1538 1.574 1_655 S
C1521 C1540 1.368 . S
C1521 H1545 0.949 . S
H1522 C1526 0.949 . S
C1523 C1524 1.349 . S
C1523 C1525 1.327 . S
C1523 H1546 0.950 . S
C1524 C1523 1.349 . S
C1524 C1536 1.349 . S
C1525 C1523 1.327 . S
C1525 C1541 1.429 . S
C1525 H1547 0.950 . S
C1526 H1522 0.949 . S
C1526 C1534 1.574 1_455 S
C1526 C1542 1.368 . S
H1527 C1535 0.950 . S
H1528 C1533 0.950 . S
H1529 C1534 0.949 . S
H1530 C1536 0.950 . S
H1531 C1537 0.950 . S
H1532 C1538 0.949 . S
C1533 H1528 0.950 . S
C1533 C1535 1.327 . S
C1533 C1539 1.429 . S
C1534 C1526 1.574 1_655 S
C1534 H1529 0.949 . S
C1534 C1540 1.368 . S
C1535 C1519 1.349 . S
C1535 H1527 0.950 . S
C1535 C1533 1.327 . S
C1536 C1524 1.349 . S
C1536 H1530 0.950 . S
C1536 C1537 1.327 . S
C1537 H1531 0.950 . S
C1537 C1536 1.327 . S
C1537 C1541 1.429 . S
C1538 C1521 1.574 1_455 S
C1538 H1532 0.949 . S
C1538 C1542 1.368 . S
C1539 C1520 1.429 . S
C1539 C1533 1.429 . S
C1539 C1540 1.523 . S
C1540 C1521 1.368 . S
C1540 C1534 1.368 . S
C1540 C1539 1.523 . S
C1541 C1525 1.429 . S
C1541 C1537 1.429 . S
C1541 C1542 1.523 . S
C1542 C1526 1.368 . S
C1542 C1538 1.368 . S
C1542 C1541 1.523 . S
H1543 C1518 0.950 . S
H1544 C1520 0.950 . S
H1545 C1521 0.949 . S
H1546 C1523 0.950 . S
H1547 C1525 0.950 . S
C1548 C1549 1.349 . S
C1548 C1550 1.327 . S
C1548 H1573 0.950 . S
C1549 C1548 1.349 . S
C1549 C1565 1.349 . S
C1550 C1548 1.327 . S
C1550 C1569 1.429 . S
C1550 H1574 0.950 . S
C1551 C1568 1.574 . S
C1551 C1570 1.368 . S
C1551 H1575 0.949 . S
H1552 C1556 0.949 . S
C1553 C1554 1.349 . S
C1553 C1555 1.327 . S
C1553 H1576 0.950 . S
C1554 C1553 1.349 . S
C1554 C1566 1.349 . S
C1555 C1553 1.327 . S
C1555 C1571 1.429 . S
C1555 H1577 0.950 . S
C1556 H1552 0.949 . S
C1556 C1564 1.574 . S
C1556 C1572 1.368 . S
H1557 C1565 0.950 1_655 S
H1558 C1563 0.950 . S
H1559 C1564 0.949 . S
H1560 C1566 0.950 . S
H1561 C1567 0.950 . S
H1562 C1568 0.949 . S
C1563 H1558 0.950 . S
C1563 C1565 1.327 . S
C1563 C1569 1.429 . S
C1564 C1556 1.574 . S
C1564 H1559 0.949 . S
C1564 C1570 1.368 . S
C1565 C1549 1.349 . S
C1565 H1557 0.950 1_455 S
C1565 C1563 1.327 . S
C1566 C1554 1.349 . S
C1566 H1560 0.950 . S
C1566 C1567 1.327 . S
C1567 H1561 0.950 . S
C1567 C1566 1.327 . S
C1567 C1571 1.429 . S
C1568 C1551 1.574 . S
C1568 H1562 0.949 . S
C1568 C1572 1.368 . S
C1569 C1550 1.429 . S
C1569 C1563 1.429 . S
C1569 C1570 1.523 . S
C1570 C1551 1.368 . S
C1570 C1564 1.368 . S
C1570 C1569 1.523 . S
C1571 C1555 1.429 . S
C1571 C1567 1.429 . S
C1571 C1572 1.523 . S
C1572 C1556 1.368 . S
C1572 C1568 1.368 . S
C1572 C1571 1.523 . S
H1573 C1548 0.950 . S
H1574 C1550 0.950 . S
H1575 C1551 0.949 . S
H1576 C1553 0.950 . S
H1577 C1555 0.950 . S
C1578 C1579 1.349 . S
C1578 C1580 1.327 . S
C1578 H1603 0.950 . S
C1579 C1578 1.349 . S
C1579 C1595 1.349 . S
C1580 C1578 1.327 . S
C1580 C1599 1.429 . S
C1580 H1604 0.950 . S
C1581 C1598 1.574 . S
C1581 C1600 1.368 . S
C1581 H1605 0.949 . S
H1582 C1586 0.949 . S
C1583 C1584 1.349 . S
C1583 C1585 1.327 . S
C1583 H1606 0.950 . S
C1584 C1583 1.349 . S
C1584 C1596 1.349 . S
C1585 C1583 1.327 . S
C1585 C1601 1.429 . S
C1585 H1607 0.950 . S
C1586 H1582 0.949 . S
C1586 C1594 1.574 . S
C1586 C1602 1.368 . S
H1587 C1595 0.950 . S
H1588 C1593 0.950 . S
H1589 C1594 0.942 1_545 S
H1590 C1596 0.950 . S
H1591 C1597 0.950 . S
H1592 C1598 0.949 . S
C1593 H1588 0.950 . S
C1593 C1595 1.327 . S
C1593 C1599 1.429 . S
C1594 C1586 1.574 . S
C1594 H1589 0.942 1_565 S
C1594 C1600 1.368 . S
C1595 C1579 1.349 . S
C1595 H1587 0.950 . S
C1595 C1593 1.327 . S
C1596 C1584 1.349 . S
C1596 H1590 0.950 . S
C1596 C1597 1.327 . S
C1597 H1591 0.950 . S
C1597 C1596 1.327 . S
C1597 C1601 1.429 . S
C1598 C1581 1.574 . S
C1598 H1592 0.949 . S
C1598 C1602 1.368 . S
C1599 C1580 1.429 . S
C1599 C1593 1.429 . S
C1599 C1600 1.523 1_545 S
C1600 C1581 1.368 . S
C1600 C1594 1.368 . S
C1600 C1599 1.523 1_565 S
C1601 C1585 1.429 . S
C1601 C1597 1.429 . S
C1601 C1602 1.523 . S
C1602 C1586 1.368 . S
C1602 C1598 1.368 . S
C1602 C1601 1.523 . S
H1603 C1578 0.950 . S
H1604 C1580 0.950 . S
H1605 C1581 0.949 . S
H1606 C1583 0.950 . S
H1607 C1585 0.950 . S
C1608 C1609 1.349 . S
C1608 C1610 1.327 . S
C1608 H1633 0.950 . S
C1609 C1608 1.349 . S
C1609 C1625 1.349 . S
C1610 C1608 1.327 . S
C1610 C1629 1.429 . S
C1610 H1634 0.950 . S
C1611 C1628 1.574 . S
C1611 C1630 1.368 . S
C1611 H1635 0.949 . S
H1612 C1616 0.949 . S
C1613 C1614 1.349 . S
C1613 C1615 1.327 . S
C1613 H1636 0.950 . S
C1614 C1613 1.349 . S
C1614 C1626 1.349 . S
C1615 C1613 1.327 . S
C1615 C1631 1.429 . S
C1615 H1637 0.950 . S
C1616 H1612 0.949 . S
C1616 C1624 1.574 . S
C1616 C1632 1.368 . S
H1617 C1625 0.950 . S
H1618 C1623 0.950 . S
H1619 C1624 0.949 1_655 S
H1620 C1626 0.950 1_545 S
H1621 C1627 0.950 . S
H1622 C1628 0.949 . S
C1623 H1618 0.950 . S
C1623 C1625 1.327 . S
C1623 C1629 1.429 . S
C1624 C1616 1.574 . S
C1624 H1619 0.949 1_455 S
C1624 C1630 1.368 . S
C1625 C1609 1.349 . S
C1625 H1617 0.950 . S
C1625 C1623 1.327 . S
C1626 C1614 1.349 . S
C1626 H1620 0.950 1_565 S
C1626 C1627 1.327 . S
C1627 H1621 0.950 . S
C1627 C1626 1.327 . S
C1627 C1631 1.429 . S
C1628 C1611 1.574 . S
C1628 H1622 0.949 . S
C1628 C1632 1.368 . S
C1629 C1610 1.429 . S
C1629 C1623 1.429 . S
C1629 C1630 1.523 1_655 S
C1630 C1611 1.368 . S
C1630 C1624 1.368 . S
C1630 C1629 1.523 1_455 S
C1631 C1615 1.429 . S
C1631 C1627 1.429 . S
C1631 C1632 1.523 . S
C1632 C1616 1.368 . S
C1632 C1628 1.368 . S
C1632 C1631 1.523 . S
H1633 C1608 0.950 . S
H1634 C1610 0.950 . S
H1635 C1611 0.949 . S
H1636 C1613 0.950 . S
H1637 C1615 0.950 . S
C1638 C1639 1.349 . S
C1638 C1640 1.327 . S
C1638 H1663 0.950 . S
C1639 C1638 1.349 . S
C1639 C1655 1.349 . S
C1640 C1638 1.327 . S
C1640 C1659 1.429 . S
C1640 H1664 0.950 . S
C1641 C1658 1.574 . S
C1641 C1660 1.368 . S
C1641 H1665 0.949 . S
H1642 C1646 0.949 . S
C1643 C1644 1.349 . S
C1643 C1645 1.327 . S
C1643 H1666 0.950 . S
C1644 C1643 1.349 . S
C1644 C1656 1.349 . S
C1645 C1643 1.327 . S
C1645 C1661 1.429 . S
C1645 H1667 0.950 . S
C1646 H1642 0.949 . S
C1646 C1654 1.574 . S
C1646 C1662 1.368 . S
H1647 C1655 0.950 . S
H1648 C1653 0.950 . S
H1649 C1654 0.949 . S
H1650 C1656 0.950 1_565 S
H1651 C1657 0.950 . S
H1652 C1658 0.949 . S
C1653 H1648 0.950 . S
C1653 C1655 1.327 . S
C1653 C1659 1.429 . S
C1654 C1646 1.574 . S
C1654 H1649 0.949 . S
C1654 C1660 1.368 . S
C1655 C1639 1.349 . S
C1655 H1647 0.950 . S
C1655 C1653 1.327 . S
C1656 C1644 1.349 . S
C1656 H1650 0.950 1_545 S
C1656 C1657 1.327 . S
C1657 H1651 0.950 . S
C1657 C1656 1.327 . S
C1657 C1661 1.429 . S
C1658 C1641 1.574 . S
C1658 H1652 0.949 . S
C1658 C1662 1.368 . S
C1659 C1640 1.429 . S
C1659 C1653 1.429 . S
C1659 C1660 1.523 . S
C1660 C1641 1.368 . S
C1660 C1654 1.368 . S
C1660 C1659 1.523 . S
C1661 C1645 1.429 . S
C1661 C1657 1.429 . S
C1661 C1662 1.523 . S
C1662 C1646 1.368 . S
C1662 C1658 1.368 . S
C1662 C1661 1.523 . S
H1663 C1638 0.950 . S
H1664 C1640 0.950 . S
H1665 C1641 0.949 . S
H1666 C1643 0.950 . S
H1667 C1645 0.950 . S
C1668 C1669 1.349 . S
C1668 C1670 1.327 . S
C1668 H1693 0.950 . S
C1669 C1668 1.349 . S
C1669 C1685 1.366 . S
C1670 C1668 1.327 . S
C1670 C1689 1.429 . S
C1670 H1694 0.950 . S
C1671 C1688 1.574 . S
C1671 C1690 1.368 . S
C1671 H1695 0.949 . S
H1672 C1676 0.949 . S
C1673 C1674 1.349 . S
C1673 C1675 1.327 . S
C1673 H1696 0.950 . S
C1674 C1673 1.349 . S
C1674 C1686 1.349 . S
C1675 C1673 1.327 . S
C1675 C1691 1.429 . S
C1675 H1697 0.950 . S
C1676 H1672 0.949 . S
C1676 C1684 1.574 . S
C1676 C1692 1.368 . S
H1677 C1685 0.926 1_455 S
H1678 C1683 0.950 . S
H1679 C1684 0.949 . S
H1680 C1686 0.950 . S
H1681 C1687 0.950 . S
H1682 C1688 0.949 1_565 S
C1683 H1678 0.950 . S
C1683 C1685 1.334 . S
C1683 C1689 1.429 . S
C1684 C1676 1.574 . S
C1684 H1679 0.949 . S
C1684 C1690 1.368 . S
C1685 C1669 1.366 . S
C1685 H1677 0.926 1_655 S
C1685 C1683 1.334 . S
C1686 C1674 1.349 . S
C1686 H1680 0.950 . S
C1686 C1687 1.327 . S
C1687 H1681 0.950 . S
C1687 C1686 1.327 . S
C1687 C1691 1.429 . S
C1688 C1671 1.574 . S
C1688 H1682 0.949 1_545 S
C1688 C1692 1.368 . S
C1689 C1670 1.429 . S
C1689 C1683 1.429 . S
C1689 C1690 1.523 . S
C1690 C1671 1.368 . S
C1690 C1684 1.368 . S
C1690 C1689 1.523 . S
C1691 C1675 1.429 . S
C1691 C1687 1.429 . S
C1691 C1692 1.523 1_565 S
C1692 C1676 1.368 . S
C1692 C1688 1.368 . S
C1692 C1691 1.523 1_545 S
H1693 C1668 0.950 . S
H1694 C1670 0.950 . S
H1695 C1671 0.949 . S
H1696 C1673 0.950 . S
H1697 C1675 0.950 . S
C1698 C1699 1.349 . S
C1698 C1700 1.327 . S
C1698 H1723 0.950 . S
C1699 C1698 1.349 . S
C1699 C1715 1.349 . S
C1700 C1698 1.327 . S
C1700 C1719 1.429 . S
C1700 H1724 0.950 . S
C1701 C1718 1.574 . S
C1701 C1720 1.368 . S
C1701 H1725 0.949 . S
H1702 C1706 0.949 . S
C1703 C1704 1.349 . S
C1703 C1705 1.327 . S
C1703 H1726 0.950 . S
C1704 C1703 1.349 . S
C1704 C1716 1.349 . S
C1705 C1703 1.327 . S
C1705 C1721 1.429 . S
C1705 H1727 0.950 . S
C1706 H1702 0.949 . S
C1706 C1714 1.574 . S
C1706 C1722 1.368 . S
H1707 C1715 0.950 . S
H1708 C1713 0.950 . S
H1709 C1714 0.978 . S
H1710 C1716 0.950 . S
H1711 C1717 0.950 . S
H1712 C1718 0.949 . S
C1713 H1708 0.950 . S
C1713 C1715 1.327 . S
C1713 C1719 1.429 . S
C1714 C1706 1.574 . S
C1714 H1709 0.978 . S
C1714 C1720 1.368 . S
C1715 C1699 1.349 . S
C1715 H1707 0.950 . S
C1715 C1713 1.327 . S
C1716 C1704 1.349 . S
C1716 H1710 0.950 . S
C1716 C1717 1.327 . S
C1717 H1711 0.950 . S
C1717 C1716 1.327 . S
C1717 C1721 1.429 . S
C1718 C1701 1.574 . S
C1718 H1712 0.949 . S
C1718 C1722 1.368 . S
C1719 C1700 1.429 . S
C1719 C1713 1.429 . S
C1719 C1720 1.523 1_455 S
C1720 C1701 1.368 . S
C1720 C1714 1.368 . S
C1720 C1719 1.523 1_655 S
C1721 C1705 1.429 . S
C1721 C1717 1.429 . S
C1721 C1722 1.523 . S
C1722 C1706 1.368 . S
C1722 C1718 1.368 . S
C1722 C1721 1.523 . S
H1723 C1698 0.950 . S
H1724 C1700 0.950 . S
H1725 C1701 0.949 . S
H1726 C1703 0.950 . S
H1727 C1705 0.950 . S
C1728 C1729 1.349 . S
C1728 C1730 1.327 . S
C1728 H1753 0.950 . S
C1729 C1728 1.349 . S
C1729 C1745 1.349 . S
C1730 C1728 1.327 . S
C1730 C1749 1.429 . S
C1730 H1754 0.950 . S
C1731 C1748 1.574 . S
C1731 C1750 1.368 . S
C1731 H1755 0.949 . S
H1732 C1736 0.949 . S
C1733 C1734 1.349 . S
C1733 C1735 1.327 . S
C1733 H1756 0.950 1_655 S
C1734 C1733 1.349 . S
C1734 C1746 1.349 . S
C1735 C1733 1.327 . S
C1735 C1751 1.429 . S
C1735 H1757 0.950 . S
C1736 H1732 0.949 . S
C1736 C1744 1.574 . S
C1736 C1752 1.368 . S
H1737 C1745 0.950 . S
H1738 C1743 0.950 . S
H1739 C1744 0.949 . S
H1740 C1746 0.950 . S
H1741 C1747 0.950 . S
H1742 C1748 0.949 . S
C1743 H1738 0.950 . S
C1743 C1745 1.327 . S
C1743 C1749 1.429 . S
C1744 C1736 1.574 . S
C1744 H1739 0.949 . S
C1744 C1750 1.368 . S
C1745 C1729 1.349 . S
C1745 H1737 0.950 . S
C1745 C1743 1.327 . S
C1746 C1734 1.349 . S
C1746 H1740 0.950 . S
C1746 C1747 1.327 . S
C1747 H1741 0.950 . S
C1747 C1746 1.327 . S
C1747 C1751 1.429 . S
C1748 C1731 1.574 . S
C1748 H1742 0.949 . S
C1748 C1752 1.368 . S
C1749 C1730 1.429 . S
C1749 C1743 1.429 . S
C1749 C1750 1.523 . S
C1750 C1731 1.368 . S
C1750 C1744 1.368 . S
C1750 C1749 1.523 . S
C1751 C1735 1.429 . S
C1751 C1747 1.429 . S
C1751 C1752 1.523 . S
C1752 C1736 1.368 . S
C1752 C1748 1.368 . S
C1752 C1751 1.523 . S
H1753 C1728 0.950 . S
H1754 C1730 0.950 . S
H1755 C1731 0.949 . S
H1756 C1733 0.950 1_455 S
H1757 C1735 0.950 . S
C1758 C1759 1.349 . S
C1758 C1760 1.327 . S
C1758 H1783 0.950 . S
C1759 C1758 1.349 . S
C1759 C1775 1.349 . S
C1760 C1758 1.327 . S
C1760 C1779 1.429 . S
C1760 H1784 0.950 . S
C1761 C1778 1.574 . S
C1761 C1780 1.368 . S
C1761 H1785 0.949 1_545 S
H1762 C1766 0.949 . S
C1763 C1764 1.349 . S
C1763 C1765 1.327 . S
C1763 H1786 0.950 . S
C1764 C1763 1.349 . S
C1764 C1776 1.349 . S
C1765 C1763 1.327 . S
C1765 C1781 1.429 . S
C1765 H1787 0.950 . S
C1766 H1762 0.949 . S
C1766 C1774 1.574 . S
C1766 C1782 1.368 . S
H1767 C1775 0.950 . S
H1768 C1773 0.950 . S
H1769 C1774 0.949 . S
H1770 C1776 0.950 . S
H1771 C1777 0.950 . S
H1772 C1778 0.949 . S
C1773 H1768 0.950 . S
C1773 C1775 1.327 . S
C1773 C1779 1.429 . S
C1774 C1766 1.574 . S
C1774 H1769 0.949 . S
C1774 C1780 1.368 . S
C1775 C1759 1.349 . S
C1775 H1767 0.950 . S
C1775 C1773 1.327 . S
C1776 C1764 1.349 . S
C1776 H1770 0.950 . S
C1776 C1777 1.327 . S
C1777 H1771 0.950 . S
C1777 C1776 1.327 . S
C1777 C1781 1.429 . S
C1778 C1761 1.574 . S
C1778 H1772 0.949 . S
C1778 C1782 1.368 . S
C1779 C1760 1.429 . S
C1779 C1773 1.429 . S
C1779 C1780 1.523 1_565 S
C1780 C1761 1.368 . S
C1780 C1774 1.368 . S
C1780 C1779 1.523 1_545 S
C1781 C1765 1.429 . S
C1781 C1777 1.429 . S
C1781 C1782 1.523 . S
C1782 C1766 1.368 . S
C1782 C1778 1.368 . S
C1782 C1781 1.523 . S
H1783 C1758 0.950 . S
H1784 C1760 0.950 . S
H1785 C1761 0.949 1_565 S
H1786 C1763 0.950 . S
H1787 C1765 0.950 . S
C1788 C1789 1.349 . S
C1788 C1790 1.327 . S
C1788 H1813 0.950 . S
C1789 C1788 1.349 . S
C1789 C1805 1.349 . S
C1790 C1788 1.327 . S
C1790 C1809 1.429 . S
C1790 H1814 0.950 . S
C1791 C1808 1.574 . S
C1791 C1810 1.368 . S
C1791 H1815 0.949 1_655 S
H1792 C1796 0.949 . S
C1793 C1794 1.349 . S
C1793 C1795 1.327 . S
C1793 H1816 0.933 1_545 S
C1794 C1793 1.349 . S
C1794 C1806 1.349 . S
C1795 C1793 1.327 . S
C1795 C1811 1.429 . S
C1795 H1817 0.950 . S
C1796 H1792 0.949 . S
C1796 C1804 1.574 . S
C1796 C1812 1.368 . S
H1797 C1805 0.950 . S
H1798 C1803 0.950 . S
H1799 C1804 0.949 . S
H1800 C1806 0.950 . S
H1801 C1807 0.950 . S
H1802 C1808 0.949 . S
C1803 H1798 0.950 . S
C1803 C1805 1.327 . S
C1803 C1809 1.429 . S
C1804 C1796 1.574 . S
C1804 H1799 0.949 . S
C1804 C1810 1.368 . S
C1805 C1789 1.349 . S
C1805 H1797 0.950 . S
C1805 C1803 1.327 . S
C1806 C1794 1.349 . S
C1806 H1800 0.950 . S
C1806 C1807 1.327 . S
C1807 H1801 0.950 . S
C1807 C1806 1.327 . S
C1807 C1811 1.429 . S
C1808 C1791 1.574 . S
C1808 H1802 0.949 . S
C1808 C1812 1.368 . S
C1809 C1790 1.429 . S
C1809 C1803 1.429 . S
C1809 C1810 1.523 1_455 S
C1810 C1791 1.368 . S
C1810 C1804 1.368 . S
C1810 C1809 1.523 1_655 S
C1811 C1795 1.429 . S
C1811 C1807 1.429 . S
C1811 C1812 1.523 . S
C1812 C1796 1.368 . S
C1812 C1808 1.368 . S
C1812 C1811 1.523 . S
H1813 C1788 0.950 . S
H1814 C1790 0.950 . S
H1815 C1791 0.949 1_455 S
H1816 C1793 0.933 1_565 S
H1817 C1795 0.950 . S
C1818 C1819 1.349 . S
C1818 C1820 1.327 . S
C1818 H1843 0.950 . S
C1819 C1818 1.349 . S
C1819 C1835 1.349 . S
C1820 C1818 1.327 . S
C1820 C1839 1.429 . S
C1820 H1844 0.950 . S
C1821 C1838 1.574 . S
C1821 C1840 1.368 . S
C1821 H1845 0.949 . S
H1822 C1826 0.949 . S
C1823 C1824 1.349 . S
C1823 C1825 1.327 . S
C1823 H1846 0.950 . S
C1824 C1823 1.349 . S
C1824 C1836 1.349 . S
C1825 C1823 1.327 . S
C1825 C1841 1.429 . S
C1825 H1847 0.950 . S
C1826 H1822 0.949 . S
C1826 C1834 1.574 . S
C1826 C1842 1.368 . S
H1827 C1835 0.950 1_545 S
H1828 C1833 0.950 . S
H1829 C1834 0.949 . S
H1830 C1836 0.950 . S
H1831 C1837 0.950 . S
H1832 C1838 0.949 . S
C1833 H1828 0.950 . S
C1833 C1835 1.327 . S
C1833 C1839 1.429 . S
C1834 C1826 1.574 . S
C1834 H1829 0.949 . S
C1834 C1840 1.368 . S
C1835 C1819 1.349 . S
C1835 H1827 0.950 1_565 S
C1835 C1833 1.327 . S
C1836 C1824 1.349 . S
C1836 H1830 0.950 . S
C1836 C1837 1.327 . S
C1837 H1831 0.950 . S
C1837 C1836 1.327 . S
C1837 C1841 1.429 . S
C1838 C1821 1.574 . S
C1838 H1832 0.949 . S
C1838 C1842 1.368 . S
C1839 C1820 1.429 . S
C1839 C1833 1.429 . S
C1839 C1840 1.523 . S
C1840 C1821 1.368 . S
C1840 C1834 1.368 . S
C1840 C1839 1.523 . S
C1841 C1825 1.429 . S
C1841 C1837 1.429 . S
C1841 C1842 1.523 . S
C1842 C1826 1.368 . S
C1842 C1838 1.368 . S
C1842 C1841 1.523 . S
H1843 C1818 0.950 . S
H1844 C1820 0.950 . S
H1845 C1821 0.949 . S
H1846 C1823 0.950 . S
H1847 C1825 0.950 . S
C1848 C1849 1.349 . S
C1848 C1850 1.327 . S
C1848 H1873 0.950 . S
C1849 C1848 1.349 . S
C1849 C1865 1.349 . S
C1850 C1848 1.327 . S
C1850 C1869 1.429 . S
C1850 H1874 0.950 . S
C1851 C1868 1.574 . S
C1851 C1870 1.368 . S
C1851 H1875 0.949 . S
H1852 C1856 0.949 . S
C1853 C1854 1.349 . S
C1853 C1855 1.327 . S
C1853 H1876 0.950 . S
C1854 C1853 1.349 . S
C1854 C1866 1.349 . S
C1855 C1853 1.327 . S
C1855 C1871 1.429 . S
C1855 H1877 0.950 . S
C1856 H1852 0.949 . S
C1856 C1864 1.574 . S
C1856 C1872 1.368 . S
H1857 C1865 0.950 . S
H1858 C1863 0.950 . S
H1859 C1864 0.949 1_545 S
H1860 C1866 0.950 1_655 S
H1861 C1867 0.950 . S
H1862 C1868 0.949 . S
C1863 H1858 0.950 . S
C1863 C1865 1.327 . S
C1863 C1869 1.429 . S
C1864 C1856 1.574 . S
C1864 H1859 0.949 1_565 S
C1864 C1870 1.368 . S
C1865 C1849 1.349 . S
C1865 H1857 0.950 . S
C1865 C1863 1.327 . S
C1866 C1854 1.349 . S
C1866 H1860 0.950 1_455 S
C1866 C1867 1.327 . S
C1867 H1861 0.950 . S
C1867 C1866 1.327 . S
C1867 C1871 1.429 . S
C1868 C1851 1.574 . S
C1868 H1862 0.949 . S
C1868 C1872 1.368 . S
C1869 C1850 1.429 . S
C1869 C1863 1.429 . S
C1869 C1870 1.523 1_545 S
C1870 C1851 1.368 . S
C1870 C1864 1.368 . S
C1870 C1869 1.523 1_565 S
C1871 C1855 1.429 . S
C1871 C1867 1.429 . S
C1871 C1872 1.523 . S
C1872 C1856 1.368 . S
C1872 C1868 1.368 . S
C1872 C1871 1.523 . S
H1873 C1848 0.950 . S
H1874 C1850 0.950 . S
H1875 C1851 0.949 . S
H1876 C1853 0.950 . S
H1877 C1855 0.950 . S
C1878 C1879 1.349 . S
C1878 C1880 1.327 . S
C1878 H1903 0.950 . S
C1879 C1878 1.349 . S
C1879 C1895 1.349 . S
C1880 C1878 1.327 . S
C1880 C1899 1.429 . S
C1880 H1904 0.950 . S
C1881 C1898 1.574 . S
C1881 C1900 1.368 . S
C1881 H1905 0.949 . S
H1882 C1886 0.949 . S
C1883 C1884 1.349 . S
C1883 C1885 1.327 . S
C1883 H1906 0.950 . S
C1884 C1883 1.349 . S
C1884 C1896 1.349 . S
C1885 C1883 1.327 . S
C1885 C1901 1.429 . S
C1885 H1907 0.950 . S
C1886 H1882 0.949 . S
C1886 C1894 1.574 . S
C1886 C1902 1.368 . S
H1887 C1895 0.950 . S
H1888 C1893 0.950 . S
H1889 C1894 0.949 . S
H1890 C1896 0.950 . S
H1891 C1897 0.950 . S
H1892 C1898 0.949 1_655 S
C1893 H1888 0.950 . S
C1893 C1895 1.327 . S
C1893 C1899 1.429 . S
C1894 C1886 1.574 . S
C1894 H1889 0.949 . S
C1894 C1900 1.368 . S
C1895 C1879 1.349 . S
C1895 H1887 0.950 . S
C1895 C1893 1.327 . S
C1896 C1884 1.349 . S
C1896 H1890 0.950 . S
C1896 C1897 1.327 . S
C1897 H1891 0.950 . S
C1897 C1896 1.327 . S
C1897 C1901 1.429 . S
C1898 C1881 1.574 . S
C1898 H1892 0.949 1_455 S
C1898 C1902 1.368 . S
C1899 C1880 1.429 . S
C1899 C1893 1.429 . S
C1899 C1900 1.523 . S
C1900 C1881 1.368 . S
C1900 C1894 1.368 . S
C1900 C1899 1.523 . S
C1901 C1885 1.429 . S
C1901 C1897 1.429 . S
C1901 C1902 1.523 1_655 S
C1902 C1886 1.368 . S
C1902 C1898 1.368 . S
C1902 C1901 1.523 1_455 S
H1903 C1878 0.950 . S
H1904 C1880 0.950 . S
H1905 C1881 0.949 . S
H1906 C1883 0.950 . S
H1907 C1885 0.950 . S
C1908 C1909 1.349 . S
C1908 C1910 1.327 . S
C1908 H1933 0.950 . S
C1909 C1908 1.349 . S
C1909 C1925 1.349 . S
C1910 C1908 1.327 . S
C1910 C1929 1.429 . S
C1910 H1934 0.950 . S
C1911 C1928 1.574 . S
C1911 C1930 1.368 . S
C1911 H1935 0.949 . S
H1912 C1916 0.949 . S
C1913 C1914 1.349 . S
C1913 C1915 1.327 . S
C1913 H1936 0.950 . S
C1914 C1913 1.349 . S
C1914 C1926 1.349 . S
C1915 C1913 1.327 . S
C1915 C1931 1.429 . S
C1915 H1937 0.950 . S
C1916 H1912 0.949 . S
C1916 C1924 1.574 . S
C1916 C1932 1.368 . S
H1917 C1925 0.950 . S
H1918 C1923 0.950 . S
H1919 C1924 0.949 . S
H1920 C1926 0.950 . S
H1921 C1927 0.950 . S
H1922 C1928 0.949 . S
C1923 H1918 0.950 . S
C1923 C1925 1.327 . S
C1923 C1929 1.429 . S
C1924 C1916 1.574 . S
C1924 H1919 0.949 . S
C1924 C1930 1.368 . S
C1925 C1909 1.349 . S
C1925 H1917 0.950 . S
C1925 C1923 1.327 . S
C1926 C1914 1.349 . S
C1926 H1920 0.950 . S
C1926 C1927 1.327 . S
C1927 H1921 0.950 . S
C1927 C1926 1.327 . S
C1927 C1931 1.429 . S
C1928 C1911 1.574 . S
C1928 H1922 0.949 . S
C1928 C1932 1.368 . S
C1929 C1910 1.429 . S
C1929 C1923 1.429 . S
C1929 C1930 1.523 . S
C1930 C1911 1.368 . S
C1930 C1924 1.368 . S
C1930 C1929 1.523 . S
C1931 C1915 1.429 . S
C1931 C1927 1.429 . S
C1931 C1932 1.523 . S
C1932 C1916 1.368 . S
C1932 C1928 1.368 . S
C1932 C1931 1.523 . S
H1933 C1908 0.950 . S
H1934 C1910 0.950 . S
H1935 C1911 0.949 . S
H1936 C1913 0.950 . S
H1937 C1915 0.950 . S
C1938 C1939 1.349 . S
C1938 C1940 1.327 . S
C1938 H1963 0.950 . S
C1939 C1938 1.349 . S
C1939 C1955 1.349 . S
C1940 C1938 1.327 . S
C1940 C1959 1.429 . S
C1940 H1964 0.950 . S
C1941 C1958 1.574 . S
C1941 C1960 1.368 . S
C1941 H1965 0.949 . S
H1942 C1946 0.949 . S
C1943 C1944 1.349 . S
C1943 C1945 1.327 . S
C1943 H1966 0.950 . S
C1944 C1943 1.349 . S
C1944 C1956 1.349 . S
C1945 C1943 1.327 . S
C1945 C1961 1.429 . S
C1945 H1967 0.950 . S
C1946 H1942 0.949 . S
C1946 C1954 1.574 . S
C1946 C1962 1.368 . S
H1947 C1955 0.950 . S
H1948 C1953 0.950 . S
H1949 C1954 0.949 . S
H1950 C1956 0.950 . S
H1951 C1957 0.950 . S
H1952 C1958 0.949 . S
C1953 H1948 0.950 . S
C1953 C1955 1.327 . S
C1953 C1959 1.429 . S
C1954 C1946 1.574 . S
C1954 H1949 0.949 . S
C1954 C1960 1.368 . S
C1955 C1939 1.349 . S
C1955 H1947 0.950 . S
C1955 C1953 1.327 . S
C1956 C1944 1.349 . S
C1956 H1950 0.950 . S
C1956 C1957 1.327 . S
C1957 H1951 0.950 . S
C1957 C1956 1.327 . S
C1957 C1961 1.429 . S
C1958 C1941 1.574 . S
C1958 H1952 0.949 . S
C1958 C1962 1.368 . S
C1959 C1940 1.429 . S
C1959 C1953 1.429 . S
C1959 C1960 1.523 . S
C1960 C1941 1.368 . S
C1960 C1954 1.368 . S
C1960 C1959 1.523 . S
C1961 C1945 1.429 . S
C1961 C1957 1.429 . S
C1961 C1962 1.523 . S
C1962 C1946 1.368 . S
C1962 C1958 1.368 . S
C1962 C1961 1.523 . S
H1963 C1938 0.950 . S
H1964 C1940 0.950 . S
H1965 C1941 0.949 . S
H1966 C1943 0.950 . S
H1967 C1945 0.950 . S
C1968 C1969 1.349 . S
C1968 C1970 1.327 . S
C1968 H1993 0.950 . S
C1969 C1968 1.349 . S
C1969 C1985 1.349 . S
C1970 C1968 1.327 . S
C1970 C1989 1.429 . S
C1970 H1994 0.950 . S
C1971 C1988 1.574 . S
C1971 C1990 1.368 . S
C1971 H1995 0.949 . S
H1972 C1976 0.949 . S
C1973 C1974 1.349 . S
C1973 C1975 1.327 . S
C1973 H1996 0.950 . S
C1974 C1973 1.349 . S
C1974 C1986 1.349 . S
C1975 C1973 1.327 . S
C1975 C1991 1.429 . S
C1975 H1997 0.950 . S
C1976 H1972 0.949 . S
C1976 C1984 1.574 . S
C1976 C1992 1.368 . S
H1977 C1985 0.950 . S
H1978 C1983 0.950 . S
H1979 C1984 0.949 . S
H1980 C1986 0.950 . S
H1981 C1987 0.950 . S
H1982 C1988 0.949 . S
C1983 H1978 0.950 . S
C1983 C1985 1.327 . S
C1983 C1989 1.429 . S
C1984 C1976 1.574 . S
C1984 H1979 0.949 . S
C1984 C1990 1.368 . S
C1985 C1969 1.349 . S
C1985 H1977 0.950 . S
C1985 C1983 1.327 . S
C1986 C1974 1.349 . S
C1986 H1980 0.950 . S
C1986 C1987 1.327 . S
C1987 H1981 0.950 . S
C1987 C1986 1.327 . S
C1987 C1991 1.429 . S
C1988 C1971 1.574 . S
C1988 H1982 0.949 . S
C1988 C1992 1.368 . S
C1989 C1970 1.429 . S
C1989 C1983 1.429 . S
C1989 C1990 1.523 . S
C1990 C1971 1.368 . S
C1990 C1984 1.368 . S
C1990 C1989 1.523 . S
C1991 C1975 1.429 . S
C1991 C1987 1.429 . S
C1991 C1992 1.523 . S
C1992 C1976 1.368 . S
C1992 C1988 1.368 . S
C1992 C1991 1.523 . S
H1993 C1968 0.950 . S
H1994 C1970 0.950 . S
H1995 C1971 0.949 . S
H1996 C1973 0.950 . S
H1997 C1975 0.950 . S
C1998 C1999 1.349 . S
C1998 C2000 1.327 . S
C1998 H2023 0.950 . S
C1999 C1998 1.349 . S
C1999 C2015 1.349 . S
C2000 C1998 1.327 . S
C2000 C2019 1.429 . S
C2000 H2024 0.950 . S
C2001 C2018 1.574 . S
C2001 C2020 1.368 . S
C2001 H2025 0.949 . S
H2002 C2006 0.949 . S
C2003 C2004 1.349 . S
C2003 C2005 1.327 . S
C2003 H2026 0.950 . S
C2004 C2003 1.349 . S
C2004 C2016 1.349 . S
C2005 C2003 1.327 . S
C2005 C2021 1.429 . S
C2005 H2027 0.950 . S
C2006 H2002 0.949 . S
C2006 C2014 1.574 . S
C2006 C2022 1.368 . S
H2007 C2015 0.950 . S
H2008 C2013 0.950 . S
H2009 C2014 0.949 . S
H2010 C2016 0.950 . S
H2011 C2017 0.950 . S
H2012 C2018 0.949 . S
C2013 H2008 0.950 . S
C2013 C2015 1.327 . S
C2013 C2019 1.429 . S
C2014 C2006 1.574 . S
C2014 H2009 0.949 . S
C2014 C2020 1.368 . S
C2015 C1999 1.349 . S
C2015 H2007 0.950 . S
C2015 C2013 1.327 . S
C2016 C2004 1.349 . S
C2016 H2010 0.950 . S
C2016 C2017 1.327 . S
C2017 H2011 0.950 . S
C2017 C2016 1.327 . S
C2017 C2021 1.429 . S
C2018 C2001 1.574 . S
C2018 H2012 0.949 . S
C2018 C2022 1.368 . S
C2019 C2000 1.429 . S
C2019 C2013 1.429 . S
C2019 C2020 1.523 . S
C2020 C2001 1.368 . S
C2020 C2014 1.368 . S
C2020 C2019 1.523 . S
C2021 C2005 1.429 . S
C2021 C2017 1.429 . S
C2021 C2022 1.523 . S
C2022 C2006 1.368 . S
C2022 C2018 1.368 . S
C2022 C2021 1.523 . S
H2023 C1998 0.950 . S
H2024 C2000 0.950 . S
H2025 C2001 0.949 . S
H2026 C2003 0.950 . S
H2027 C2005 0.950 . S
C2028 C2029 1.349 . S
C2028 C2030 1.327 . S
C2028 H2053 0.950 . S
C2029 C2028 1.349 . S
C2029 C2045 1.349 . S
C2030 C2028 1.327 . S
C2030 C2049 1.429 . S
C2030 H2054 0.950 . S
C2031 C2048 1.574 . S
C2031 C2050 1.368 . S
C2031 H2055 0.949 . S
H2032 C2036 0.949 . S
C2033 C2034 1.349 . S
C2033 C2035 1.327 . S
C2033 H2056 0.950 . S
C2034 C2033 1.349 . S
C2034 C2046 1.349 . S
C2035 C2033 1.327 . S
C2035 C2051 1.429 . S
C2035 H2057 0.950 . S
C2036 H2032 0.949 . S
C2036 C2044 1.574 . S
C2036 C2052 1.368 . S
H2037 C2045 0.950 . S
H2038 C2043 0.950 . S
H2039 C2044 0.949 . S
H2040 C2046 0.950 . S
H2041 C2047 0.950 . S
H2042 C2048 0.949 . S
C2043 H2038 0.950 . S
C2043 C2045 1.327 . S
C2043 C2049 1.429 . S
C2044 C2036 1.574 . S
C2044 H2039 0.949 . S
C2044 C2050 1.368 . S
C2045 C2029 1.349 . S
C2045 H2037 0.950 . S
C2045 C2043 1.327 . S
C2046 C2034 1.349 . S
C2046 H2040 0.950 . S
C2046 C2047 1.327 . S
C2047 H2041 0.950 . S
C2047 C2046 1.327 . S
C2047 C2051 1.429 . S
C2048 C2031 1.574 . S
C2048 H2042 0.949 . S
C2048 C2052 1.368 . S
C2049 C2030 1.429 . S
C2049 C2043 1.429 . S
C2049 C2050 1.523 . S
C2050 C2031 1.368 . S
C2050 C2044 1.368 . S
C2050 C2049 1.523 . S
C2051 C2035 1.429 . S
C2051 C2047 1.429 . S
C2051 C2052 1.523 . S
C2052 C2036 1.368 . S
C2052 C2048 1.368 . S
C2052 C2051 1.523 . S
H2053 C2028 0.950 . S
H2054 C2030 0.950 . S
H2055 C2031 0.949 . S
H2056 C2033 0.950 . S
H2057 C2035 0.950 . S
C2058 C2059 1.349 . S
C2058 C2060 1.327 . S
C2058 H2083 0.950 . S
C2059 C2058 1.349 . S
C2059 C2075 1.349 . S
C2060 C2058 1.327 . S
C2060 C2079 1.429 . S
C2060 H2084 0.950 . S
C2061 C2078 1.574 . S
C2061 C2080 1.368 . S
C2061 H2085 0.949 . S
H2062 C2066 0.949 . S
C2063 C2064 1.349 . S
C2063 C2065 1.327 . S
C2063 H2086 0.950 . S
C2064 C2063 1.349 . S
C2064 C2076 1.349 . S
C2065 C2063 1.327 . S
C2065 C2081 1.429 . S
C2065 H2087 0.950 . S
C2066 H2062 0.949 . S
C2066 C2074 1.574 . S
C2066 C2082 1.368 . S
H2067 C2075 0.950 . S
H2068 C2073 0.950 . S
H2069 C2074 0.949 . S
H2070 C2076 0.950 . S
H2071 C2077 0.950 . S
H2072 C2078 0.949 . S
C2073 H2068 0.950 . S
C2073 C2075 1.327 . S
C2073 C2079 1.429 . S
C2074 C2066 1.574 . S
C2074 H2069 0.949 . S
C2074 C2080 1.368 . S
C2075 C2059 1.349 . S
C2075 H2067 0.950 . S
C2075 C2073 1.327 . S
C2076 C2064 1.349 . S
C2076 H2070 0.950 . S
C2076 C2077 1.327 . S
C2077 H2071 0.950 . S
C2077 C2076 1.327 . S
C2077 C2081 1.429 . S
C2078 C2061 1.574 . S
C2078 H2072 0.949 . S
C2078 C2082 1.368 . S
C2079 C2060 1.429 . S
C2079 C2073 1.429 . S
C2079 C2080 1.523 . S
C2080 C2061 1.368 . S
C2080 C2074 1.368 . S
C2080 C2079 1.523 . S
C2081 C2065 1.429 . S
C2081 C2077 1.429 . S
C2081 C2082 1.523 . S
C2082 C2066 1.368 . S
C2082 C2078 1.368 . S
C2082 C2081 1.523 . S
H2083 C2058 0.950 . S
H2084 C2060 0.950 . S
H2085 C2061 0.949 . S
H2086 C2063 0.950 . S
H2087 C2065 0.950 . S
C2088 C2089 1.349 . S
C2088 C2090 1.327 . S
C2088 H2113 0.950 . S
C2089 C2088 1.349 . S
C2089 C2105 1.349 . S
C2090 C2088 1.327 . S
C2090 C2109 1.429 . S
C2090 H2114 0.950 . S
C2091 C2108 1.574 . S
C2091 C2110 1.368 . S
C2091 H2115 0.949 . S
H2092 C2096 0.949 . S
C2093 C2094 1.349 . S
C2093 C2095 1.327 . S
C2093 H2116 0.950 . S
C2094 C2093 1.349 . S
C2094 C2106 1.349 . S
C2095 C2093 1.327 . S
C2095 C2111 1.429 . S
C2095 H2117 0.950 . S
C2096 H2092 0.949 . S
C2096 C2104 1.574 . S
C2096 C2112 1.368 . S
H2097 C2105 0.950 . S
H2098 C2103 0.950 . S
H2099 C2104 0.949 . S
H2100 C2106 0.950 . S
H2101 C2107 0.950 . S
H2102 C2108 0.949 . S
C2103 H2098 0.950 . S
C2103 C2105 1.327 . S
C2103 C2109 1.429 . S
C2104 C2096 1.574 . S
C2104 H2099 0.949 . S
C2104 C2110 1.368 . S
C2105 C2089 1.349 . S
C2105 H2097 0.950 . S
C2105 C2103 1.327 . S
C2106 C2094 1.349 . S
C2106 H2100 0.950 . S
C2106 C2107 1.327 . S
C2107 H2101 0.950 . S
C2107 C2106 1.327 . S
C2107 C2111 1.429 . S
C2108 C2091 1.574 . S
C2108 H2102 0.949 . S
C2108 C2112 1.368 . S
C2109 C2090 1.429 . S
C2109 C2103 1.429 . S
C2109 C2110 1.523 . S
C2110 C2091 1.368 . S
C2110 C2104 1.368 . S
C2110 C2109 1.523 . S
C2111 C2095 1.429 . S
C2111 C2107 1.429 . S
C2111 C2112 1.523 . S
C2112 C2096 1.368 . S
C2112 C2108 1.368 . S
C2112 C2111 1.523 . S
H2113 C2088 0.950 . S
H2114 C2090 0.950 . S
H2115 C2091 0.949 . S
H2116 C2093 0.950 . S
H2117 C2095 0.950 . S
C2118 C2119 1.349 . S
C2118 C2120 1.327 . S
C2118 H2143 0.950 . S
C2119 C2118 1.349 . S
C2119 C2135 1.349 . S
C2120 C2118 1.327 . S
C2120 C2139 1.429 . S
C2120 H2144 0.950 . S
C2121 C2138 1.574 . S
C2121 C2140 1.368 . S
C2121 H2145 0.949 . S
H2122 C2126 0.949 . S
C2123 C2124 1.349 . S
C2123 C2125 1.327 . S
C2123 H2146 0.950 . S
C2124 C2123 1.349 . S
C2124 C2136 1.349 . S
C2125 C2123 1.327 . S
C2125 C2141 1.429 . S
C2125 H2147 0.950 . S
C2126 H2122 0.949 . S
C2126 C2134 1.574 . S
C2126 C2142 1.368 . S
H2127 C2135 0.950 . S
H2128 C2133 0.950 . S
H2129 C2134 0.949 . S
H2130 C2136 0.950 . S
H2131 C2137 0.950 . S
H2132 C2138 0.949 . S
C2133 H2128 0.950 . S
C2133 C2135 1.327 . S
C2133 C2139 1.429 . S
C2134 C2126 1.574 . S
C2134 H2129 0.949 . S
C2134 C2140 1.368 . S
C2135 C2119 1.349 . S
C2135 H2127 0.950 . S
C2135 C2133 1.327 . S
C2136 C2124 1.349 . S
C2136 H2130 0.950 . S
C2136 C2137 1.327 . S
C2137 H2131 0.950 . S
C2137 C2136 1.327 . S
C2137 C2141 1.429 . S
C2138 C2121 1.574 . S
C2138 H2132 0.949 . S
C2138 C2142 1.368 . S
C2139 C2120 1.429 . S
C2139 C2133 1.429 . S
C2139 C2140 1.523 . S
C2140 C2121 1.368 . S
C2140 C2134 1.368 . S
C2140 C2139 1.523 . S
C2141 C2125 1.429 . S
C2141 C2137 1.429 . S
C2141 C2142 1.523 . S
C2142 C2126 1.368 . S
C2142 C2138 1.368 . S
C2142 C2141 1.523 . S
H2143 C2118 0.950 . S
H2144 C2120 0.950 . S
H2145 C2121 0.949 . S
H2146 C2123 0.950 . S
H2147 C2125 0.950 . S
C2148 C2149 1.349 . S
C2148 C2150 1.327 . S
C2148 H2173 0.950 . S
C2149 C2148 1.349 . S
C2149 C2165 1.349 . S
C2150 C2148 1.327 . S
C2150 C2169 1.429 . S
C2150 H2174 0.950 . S
C2151 C2168 1.574 . S
C2151 C2170 1.368 . S
C2151 H2175 0.949 . S
H2152 C2156 0.949 . S
C2153 C2154 1.349 . S
C2153 C2155 1.327 . S
C2153 H2176 0.950 . S
C2154 C2153 1.349 . S
C2154 C2166 1.349 . S
C2155 C2153 1.327 . S
C2155 C2171 1.429 . S
C2155 H2177 0.950 . S
C2156 H2152 0.949 . S
C2156 C2164 1.574 . S
C2156 C2172 1.368 . S
H2157 C2165 0.950 . S
H2158 C2163 0.950 . S
H2159 C2164 0.949 . S
H2160 C2166 0.950 . S
H2161 C2167 0.950 . S
H2162 C2168 0.949 . S
C2163 H2158 0.950 . S
C2163 C2165 1.327 . S
C2163 C2169 1.429 . S
C2164 C2156 1.574 . S
C2164 H2159 0.949 . S
C2164 C2170 1.368 . S
C2165 C2149 1.349 . S
C2165 H2157 0.950 . S
C2165 C2163 1.327 . S
C2166 C2154 1.349 . S
C2166 H2160 0.950 . S
C2166 C2167 1.327 . S
C2167 H2161 0.950 . S
C2167 C2166 1.327 . S
C2167 C2171 1.429 . S
C2168 C2151 1.574 . S
C2168 H2162 0.949 . S
C2168 C2172 1.368 . S
C2169 C2150 1.429 . S
C2169 C2163 1.429 . S
C2169 C2170 1.523 . S
C2170 C2151 1.368 . S
C2170 C2164 1.368 . S
C2170 C2169 1.523 . S
C2171 C2155 1.429 . S
C2171 C2167 1.429 . S
C2171 C2172 1.523 . S
C2172 C2156 1.368 . S
C2172 C2168 1.368 . S
C2172 C2171 1.523 . S
H2173 C2148 0.950 . S
H2174 C2150 0.950 . S
H2175 C2151 0.949 . S
H2176 C2153 0.950 . S
H2177 C2155 0.950 . S
C2178 C2179 1.349 . S
C2178 C2180 1.327 . S
C2178 H2203 0.950 . S
C2179 C2178 1.349 . S
C2179 C2195 1.349 . S
C2180 C2178 1.327 . S
C2180 C2199 1.429 . S
C2180 H2204 0.950 . S
C2181 C2198 1.574 . S
C2181 C2200 1.368 . S
C2181 H2205 0.949 . S
H2182 C2186 0.949 . S
C2183 C2184 1.349 . S
C2183 C2185 1.327 . S
C2183 H2206 0.950 . S
C2184 C2183 1.349 . S
C2184 C2196 1.349 . S
C2185 C2183 1.327 . S
C2185 C2201 1.429 . S
C2185 H2207 0.950 . S
C2186 H2182 0.949 . S
C2186 C2194 1.574 . S
C2186 C2202 1.368 . S
H2187 C2195 0.950 . S
H2188 C2193 0.950 . S
H2189 C2194 0.949 . S
H2190 C2196 0.950 . S
H2191 C2197 0.950 . S
H2192 C2198 0.949 . S
C2193 H2188 0.950 . S
C2193 C2195 1.327 . S
C2193 C2199 1.429 . S
C2194 C2186 1.574 . S
C2194 H2189 0.949 . S
C2194 C2200 1.368 . S
C2195 C2179 1.349 . S
C2195 H2187 0.950 . S
C2195 C2193 1.327 . S
C2196 C2184 1.349 . S
C2196 H2190 0.950 . S
C2196 C2197 1.327 . S
C2197 H2191 0.950 . S
C2197 C2196 1.327 . S
C2197 C2201 1.429 . S
C2198 C2181 1.574 . S
C2198 H2192 0.949 . S
C2198 C2202 1.368 . S
C2199 C2180 1.429 . S
C2199 C2193 1.429 . S
C2199 C2200 1.523 . S
C2200 C2181 1.368 . S
C2200 C2194 1.368 . S
C2200 C2199 1.523 . S
C2201 C2185 1.429 . S
C2201 C2197 1.429 . S
C2201 C2202 1.523 . S
C2202 C2186 1.368 . S
C2202 C2198 1.368 . S
C2202 C2201 1.523 . S
H2203 C2178 0.950 . S
H2204 C2180 0.950 . S
H2205 C2181 0.949 . S
H2206 C2183 0.950 . S
H2207 C2185 0.950 . S
C2208 C2209 1.349 . S
C2208 C2210 1.327 . S
C2208 H2233 0.950 . S
C2209 C2208 1.349 . S
C2209 C2225 1.349 . S
C2210 C2208 1.327 . S
C2210 C2229 1.429 . S
C2210 H2234 0.950 . S
C2211 C2228 1.574 . S
C2211 C2230 1.368 . S
C2211 H2235 0.949 . S
H2212 C2216 0.949 . S
C2213 C2214 1.349 . S
C2213 C2215 1.327 . S
C2213 H2236 0.950 . S
C2214 C2213 1.349 . S
C2214 C2226 1.349 . S
C2215 C2213 1.327 . S
C2215 C2231 1.429 . S
C2215 H2237 0.950 . S
C2216 H2212 0.949 . S
C2216 C2224 1.574 . S
C2216 C2232 1.368 . S
H2217 C2225 0.950 . S
H2218 C2223 0.950 . S
H2219 C2224 0.949 . S
H2220 C2226 0.950 . S
H2221 C2227 0.950 . S
H2222 C2228 0.949 . S
C2223 H2218 0.950 . S
C2223 C2225 1.327 . S
C2223 C2229 1.429 . S
C2224 C2216 1.574 . S
C2224 H2219 0.949 . S
C2224 C2230 1.368 . S
C2225 C2209 1.349 . S
C2225 H2217 0.950 . S
C2225 C2223 1.327 . S
C2226 C2214 1.349 . S
C2226 H2220 0.950 . S
C2226 C2227 1.327 . S
C2227 H2221 0.950 . S
C2227 C2226 1.327 . S
C2227 C2231 1.429 . S
C2228 C2211 1.574 . S
C2228 H2222 0.949 . S
C2228 C2232 1.368 . S
C2229 C2210 1.429 . S
C2229 C2223 1.429 . S
C2229 C2230 1.523 . S
C2230 C2211 1.368 . S
C2230 C2224 1.368 . S
C2230 C2229 1.523 . S
C2231 C2215 1.429 . S
C2231 C2227 1.429 . S
C2231 C2232 1.523 . S
C2232 C2216 1.368 . S
C2232 C2228 1.368 . S
C2232 C2231 1.523 . S
H2233 C2208 0.950 . S
H2234 C2210 0.950 . S
H2235 C2211 0.949 . S
H2236 C2213 0.950 . S
H2237 C2215 0.950 . S
C2238 C2239 1.349 . S
C2238 C2240 1.327 . S
C2238 H2263 0.950 . S
C2239 C2238 1.349 . S
C2239 C2255 1.349 . S
C2240 C2238 1.327 . S
C2240 C2259 1.429 . S
C2240 H2264 0.950 . S
C2241 C2258 1.574 . S
C2241 C2260 1.368 . S
C2241 H2265 0.949 . S
H2242 C2246 0.949 . S
C2243 C2244 1.349 . S
C2243 C2245 1.327 . S
C2243 H2266 0.950 . S
C2244 C2243 1.349 . S
C2244 C2256 1.349 . S
C2245 C2243 1.327 . S
C2245 C2261 1.429 . S
C2245 H2267 0.950 . S
C2246 H2242 0.949 . S
C2246 C2254 1.574 . S
C2246 C2262 1.368 . S
H2247 C2255 0.950 . S
H2248 C2253 0.950 . S
H2249 C2254 0.949 . S
H2250 C2256 0.950 . S
H2251 C2257 0.950 . S
H2252 C2258 0.949 . S
C2253 H2248 0.950 . S
C2253 C2255 1.327 . S
C2253 C2259 1.429 . S
C2254 C2246 1.574 . S
C2254 H2249 0.949 . S
C2254 C2260 1.368 . S
C2255 C2239 1.349 . S
C2255 H2247 0.950 . S
C2255 C2253 1.327 . S
C2256 C2244 1.349 . S
C2256 H2250 0.950 . S
C2256 C2257 1.327 . S
C2257 H2251 0.950 . S
C2257 C2256 1.327 . S
C2257 C2261 1.429 . S
C2258 C2241 1.574 . S
C2258 H2252 0.949 . S
C2258 C2262 1.368 . S
C2259 C2240 1.429 . S
C2259 C2253 1.429 . S
C2259 C2260 1.523 . S
C2260 C2241 1.368 . S
C2260 C2254 1.368 . S
C2260 C2259 1.523 . S
C2261 C2245 1.429 . S
C2261 C2257 1.429 . S
C2261 C2262 1.523 . S
C2262 C2246 1.368 . S
C2262 C2258 1.368 . S
C2262 C2261 1.523 . S
H2263 C2238 0.950 . S
H2264 C2240 0.950 . S
H2265 C2241 0.949 . S
H2266 C2243 0.950 . S
H2267 C2245 0.950 . S
C2268 C2269 1.349 . S
C2268 C2270 1.327 . S
C2268 H2293 0.950 . S
C2269 C2268 1.349 . S
C2269 C2285 1.349 . S
C2270 C2268 1.327 . S
C2270 C2289 1.429 . S
C2270 H2294 0.950 . S
C2271 C2288 1.574 . S
C2271 C2290 1.368 . S
C2271 H2295 0.949 . S
H2272 C2276 0.949 . S
C2273 C2274 1.349 . S
C2273 C2275 1.327 . S
C2273 H2296 0.950 . S
C2274 C2273 1.349 . S
C2274 C2286 1.349 . S
C2275 C2273 1.327 . S
C2275 C2291 1.429 . S
C2275 H2297 0.950 . S
C2276 H2272 0.949 . S
C2276 C2284 1.574 . S
C2276 C2292 1.368 . S
H2277 C2285 0.950 . S
H2278 C2283 0.950 . S
H2279 C2284 0.949 . S
H2280 C2286 0.950 . S
H2281 C2287 0.950 . S
H2282 C2288 0.949 . S
C2283 H2278 0.950 . S
C2283 C2285 1.327 . S
C2283 C2289 1.429 . S
C2284 C2276 1.574 . S
C2284 H2279 0.949 . S
C2284 C2290 1.368 . S
C2285 C2269 1.349 . S
C2285 H2277 0.950 . S
C2285 C2283 1.327 . S
C2286 C2274 1.349 . S
C2286 H2280 0.950 . S
C2286 C2287 1.327 . S
C2287 H2281 0.950 . S
C2287 C2286 1.327 . S
C2287 C2291 1.429 . S
C2288 C2271 1.574 . S
C2288 H2282 0.949 . S
C2288 C2292 1.368 . S
C2289 C2270 1.429 . S
C2289 C2283 1.429 . S
C2289 C2290 1.523 . S
C2290 C2271 1.368 . S
C2290 C2284 1.368 . S
C2290 C2289 1.523 . S
C2291 C2275 1.429 . S
C2291 C2287 1.429 . S
C2291 C2292 1.523 . S
C2292 C2276 1.368 . S
C2292 C2288 1.368 . S
C2292 C2291 1.523 . S
H2293 C2268 0.950 . S
H2294 C2270 0.950 . S
H2295 C2271 0.949 . S
H2296 C2273 0.950 . S
H2297 C2275 0.950 . S
C2298 C2299 1.349 . S
C2298 C2300 1.327 . S
C2298 H2323 0.950 . S
C2299 C2298 1.349 . S
C2299 C2315 1.349 . S
C2300 C2298 1.327 . S
C2300 C2319 1.429 . S
C2300 H2324 0.950 . S
C2301 C2318 1.574 . S
C2301 C2320 1.368 . S
C2301 H2325 0.949 . S
H2302 C2306 0.949 . S
C2303 C2304 1.349 . S
C2303 C2305 1.327 . S
C2303 H2326 0.950 . S
C2304 C2303 1.349 . S
C2304 C2316 1.349 . S
C2305 C2303 1.327 . S
C2305 C2321 1.429 . S
C2305 H2327 0.950 . S
C2306 H2302 0.949 . S
C2306 C2314 1.574 . S
C2306 C2322 1.368 . S
H2307 C2315 0.950 . S
H2308 C2313 0.950 . S
H2309 C2314 0.949 . S
H2310 C2316 0.950 . S
H2311 C2317 0.950 . S
H2312 C2318 0.949 . S
C2313 H2308 0.950 . S
C2313 C2315 1.327 . S
C2313 C2319 1.429 . S
C2314 C2306 1.574 . S
C2314 H2309 0.949 . S
C2314 C2320 1.368 . S
C2315 C2299 1.349 . S
C2315 H2307 0.950 . S
C2315 C2313 1.327 . S
C2316 C2304 1.349 . S
C2316 H2310 0.950 . S
C2316 C2317 1.327 . S
C2317 H2311 0.950 . S
C2317 C2316 1.327 . S
C2317 C2321 1.429 . S
C2318 C2301 1.574 . S
C2318 H2312 0.949 . S
C2318 C2322 1.368 . S
C2319 C2300 1.429 . S
C2319 C2313 1.429 . S
C2319 C2320 1.523 . S
C2320 C2301 1.368 . S
C2320 C2314 1.368 . S
C2320 C2319 1.523 . S
C2321 C2305 1.429 . S
C2321 C2317 1.429 . S
C2321 C2322 1.523 . S
C2322 C2306 1.368 . S
C2322 C2318 1.368 . S
C2322 C2321 1.523 . S
H2323 C2298 0.950 . S
H2324 C2300 0.950 . S
H2325 C2301 0.949 . S
H2326 C2303 0.950 . S
H2327 C2305 0.950 . S
C2328 C2329 1.349 . S
C2328 C2330 1.327 . S
C2328 H2353 0.950 . S
C2329 C2328 1.349 . S
C2329 C2345 1.349 . S
C2330 C2328 1.327 . S
C2330 C2349 1.429 . S
C2330 H2354 0.950 . S
C2331 C2348 1.574 . S
C2331 C2350 1.368 . S
C2331 H2355 0.949 . S
H2332 C2336 0.949 . S
C2333 C2334 1.349 . S
C2333 C2335 1.327 . S
C2333 H2356 0.950 . S
C2334 C2333 1.349 . S
C2334 C2346 1.349 . S
C2335 C2333 1.327 . S
C2335 C2351 1.429 . S
C2335 H2357 0.950 . S
C2336 H2332 0.949 . S
C2336 C2344 1.574 . S
C2336 C2352 1.368 . S
H2337 C2345 0.950 . S
H2338 C2343 0.950 . S
H2339 C2344 0.949 . S
H2340 C2346 0.950 . S
H2341 C2347 0.950 . S
H2342 C2348 0.949 . S
C2343 H2338 0.950 . S
C2343 C2345 1.327 . S
C2343 C2349 1.429 . S
C2344 C2336 1.574 . S
C2344 H2339 0.949 . S
C2344 C2350 1.368 . S
C2345 C2329 1.349 . S
C2345 H2337 0.950 . S
C2345 C2343 1.327 . S
C2346 C2334 1.349 . S
C2346 H2340 0.950 . S
C2346 C2347 1.327 . S
C2347 H2341 0.950 . S
C2347 C2346 1.327 . S
C2347 C2351 1.429 . S
C2348 C2331 1.574 . S
C2348 H2342 0.949 . S
C2348 C2352 1.368 . S
C2349 C2330 1.429 . S
C2349 C2343 1.429 . S
C2349 C2350 1.523 . S
C2350 C2331 1.368 . S
C2350 C2344 1.368 . S
C2350 C2349 1.523 . S
C2351 C2335 1.429 . S
C2351 C2347 1.429 . S
C2351 C2352 1.523 . S
C2352 C2336 1.368 . S
C2352 C2348 1.368 . S
C2352 C2351 1.523 . S
H2353 C2328 0.950 . S
H2354 C2330 0.950 . S
H2355 C2331 0.949 . S
H2356 C2333 0.950 . S
H2357 C2335 0.950 . S
C2358 C2359 1.349 . S
C2358 C2360 1.327 . S
C2358 H2383 0.950 . S
C2359 C2358 1.349 . S
C2359 C2375 1.349 . S
C2360 C2358 1.327 . S
C2360 C2379 1.429 . S
C2360 H2384 0.950 . S
C2361 C2378 1.574 . S
C2361 C2380 1.368 . S
C2361 H2385 0.949 . S
H2362 C2366 0.949 . S
C2363 C2364 1.349 . S
C2363 C2365 1.327 . S
C2363 H2386 0.950 . S
C2364 C2363 1.349 . S
C2364 C2376 1.349 . S
C2365 C2363 1.327 . S
C2365 C2381 1.429 . S
C2365 H2387 0.950 . S
C2366 H2362 0.949 . S
C2366 C2374 1.574 . S
C2366 C2382 1.368 . S
H2367 C2375 0.950 . S
H2368 C2373 0.950 . S
H2369 C2374 0.949 . S
H2370 C2376 0.950 . S
H2371 C2377 0.950 . S
H2372 C2378 0.949 . S
C2373 H2368 0.950 . S
C2373 C2375 1.327 . S
C2373 C2379 1.429 . S
C2374 C2366 1.574 . S
C2374 H2369 0.949 . S
C2374 C2380 1.368 . S
C2375 C2359 1.349 . S
C2375 H2367 0.950 . S
C2375 C2373 1.327 . S
C2376 C2364 1.349 . S
C2376 H2370 0.950 . S
C2376 C2377 1.327 . S
C2377 H2371 0.950 . S
C2377 C2376 1.327 . S
C2377 C2381 1.429 . S
C2378 C2361 1.574 . S
C2378 H2372 0.949 . S
C2378 C2382 1.368 . S
C2379 C2360 1.429 . S
C2379 C2373 1.429 . S
C2379 C2380 1.523 . S
C2380 C2361 1.368 . S
C2380 C2374 1.368 . S
C2380 C2379 1.523 . S
C2381 C2365 1.429 . S
C2381 C2377 1.429 . S
C2381 C2382 1.523 . S
C2382 C2366 1.368 . S
C2382 C2378 1.368 . S
C2382 C2381 1.523 . S
H2383 C2358 0.950 . S
H2384 C2360 0.950 . S
H2385 C2361 0.949 . S
H2386 C2363 0.950 . S
H2387 C2365 0.950 . S
C2388 C2389 1.349 . S
C2388 C2390 1.327 . S
C2388 H2413 0.950 . S
C2389 C2388 1.349 . S
C2389 C2405 1.349 . S
C2390 C2388 1.327 . S
C2390 C2409 1.429 . S
C2390 H2414 0.950 . S
C2391 C2408 1.574 . S
C2391 C2410 1.368 . S
C2391 H2415 0.949 . S
H2392 C2396 0.949 . S
C2393 C2394 1.349 . S
C2393 C2395 1.327 . S
C2393 H2416 0.950 . S
C2394 C2393 1.349 . S
C2394 C2406 1.349 . S
C2395 C2393 1.327 . S
C2395 C2411 1.429 . S
C2395 H2417 0.950 . S
C2396 H2392 0.949 . S
C2396 C2404 1.574 . S
C2396 C2412 1.368 . S
H2397 C2405 0.950 . S
H2398 C2403 0.950 . S
H2399 C2404 0.949 . S
H2400 C2406 0.950 . S
H2401 C2407 0.950 . S
H2402 C2408 0.949 . S
C2403 H2398 0.950 . S
C2403 C2405 1.327 . S
C2403 C2409 1.429 . S
C2404 C2396 1.574 . S
C2404 H2399 0.949 . S
C2404 C2410 1.368 . S
C2405 C2389 1.349 . S
C2405 H2397 0.950 . S
C2405 C2403 1.327 . S
C2406 C2394 1.349 . S
C2406 H2400 0.950 . S
C2406 C2407 1.327 . S
C2407 H2401 0.950 . S
C2407 C2406 1.327 . S
C2407 C2411 1.429 . S
C2408 C2391 1.574 . S
C2408 H2402 0.949 . S
C2408 C2412 1.368 . S
C2409 C2390 1.429 . S
C2409 C2403 1.429 . S
C2409 C2410 1.523 . S
C2410 C2391 1.368 . S
C2410 C2404 1.368 . S
C2410 C2409 1.523 . S
C2411 C2395 1.429 . S
C2411 C2407 1.429 . S
C2411 C2412 1.523 . S
C2412 C2396 1.368 . S
C2412 C2408 1.368 . S
C2412 C2411 1.523 . S
H2413 C2388 0.950 . S
H2414 C2390 0.950 . S
H2415 C2391 0.949 . S
H2416 C2393 0.950 . S
H2417 C2395 0.950 . S
C2418 C2419 1.349 . S
C2418 C2420 1.327 . S
C2418 H2443 0.950 . S
C2419 C2418 1.349 . S
C2419 C2435 1.349 . S
C2420 C2418 1.327 . S
C2420 C2439 1.429 . S
C2420 H2444 0.950 . S
C2421 C2438 1.574 . S
C2421 C2440 1.368 . S
C2421 H2445 0.949 . S
H2422 C2426 0.949 . S
C2423 C2424 1.349 . S
C2423 C2425 1.327 . S
C2423 H2446 0.950 . S
C2424 C2423 1.349 . S
C2424 C2436 1.349 . S
C2425 C2423 1.327 . S
C2425 C2441 1.429 . S
C2425 H2447 0.950 . S
C2426 H2422 0.949 . S
C2426 C2434 1.574 . S
C2426 C2442 1.368 . S
H2427 C2435 0.950 . S
H2428 C2433 0.950 . S
H2429 C2434 0.949 . S
H2430 C2436 0.950 . S
H2431 C2437 0.950 . S
H2432 C2438 0.949 . S
C2433 H2428 0.950 . S
C2433 C2435 1.327 . S
C2433 C2439 1.429 . S
C2434 C2426 1.574 . S
C2434 H2429 0.949 . S
C2434 C2440 1.368 . S
C2435 C2419 1.349 . S
C2435 H2427 0.950 . S
C2435 C2433 1.327 . S
C2436 C2424 1.349 . S
C2436 H2430 0.950 . S
C2436 C2437 1.327 . S
C2437 H2431 0.950 . S
C2437 C2436 1.327 . S
C2437 C2441 1.429 . S
C2438 C2421 1.574 . S
C2438 H2432 0.949 . S
C2438 C2442 1.368 . S
C2439 C2420 1.429 . S
C2439 C2433 1.429 . S
C2439 C2440 1.523 . S
C2440 C2421 1.368 . S
C2440 C2434 1.368 . S
C2440 C2439 1.523 . S
C2441 C2425 1.429 . S
C2441 C2437 1.429 . S
C2441 C2442 1.523 . S
C2442 C2426 1.368 . S
C2442 C2438 1.368 . S
C2442 C2441 1.523 . S
H2443 C2418 0.950 . S
H2444 C2420 0.950 . S
H2445 C2421 0.949 . S
H2446 C2423 0.950 . S
H2447 C2425 0.950 . S
C2448 C2449 1.349 . S
C2448 C2450 1.327 . S
C2448 H2473 0.950 . S
C2449 C2448 1.349 . S
C2449 C2465 1.349 . S
C2450 C2448 1.327 . S
C2450 C2469 1.429 . S
C2450 H2474 0.950 . S
C2451 C2468 1.574 . S
C2451 C2470 1.368 . S
C2451 H2475 0.949 . S
H2452 C2456 0.949 . S
C2453 C2454 1.349 . S
C2453 C2455 1.327 . S
C2453 H2476 0.950 . S
C2454 C2453 1.349 . S
C2454 C2466 1.349 . S
C2455 C2453 1.327 . S
C2455 C2471 1.429 . S
C2455 H2477 0.950 . S
C2456 H2452 0.949 . S
C2456 C2464 1.574 . S
C2456 C2472 1.368 . S
H2457 C2465 0.950 . S
H2458 C2463 0.950 . S
H2459 C2464 0.949 . S
H2460 C2466 0.950 . S
H2461 C2467 0.950 . S
H2462 C2468 0.949 . S
C2463 H2458 0.950 . S
C2463 C2465 1.327 . S
C2463 C2469 1.429 . S
C2464 C2456 1.574 . S
C2464 H2459 0.949 . S
C2464 C2470 1.368 . S
C2465 C2449 1.349 . S
C2465 H2457 0.950 . S
C2465 C2463 1.327 . S
C2466 C2454 1.349 . S
C2466 H2460 0.950 . S
C2466 C2467 1.327 . S
C2467 H2461 0.950 . S
C2467 C2466 1.327 . S
C2467 C2471 1.429 . S
C2468 C2451 1.574 . S
C2468 H2462 0.949 . S
C2468 C2472 1.368 . S
C2469 C2450 1.429 . S
C2469 C2463 1.429 . S
C2469 C2470 1.523 . S
C2470 C2451 1.368 . S
C2470 C2464 1.368 . S
C2470 C2469 1.523 . S
C2471 C2455 1.429 . S
C2471 C2467 1.429 . S
C2471 C2472 1.523 . S
C2472 C2456 1.368 . S
C2472 C2468 1.368 . S
C2472 C2471 1.523 . S
H2473 C2448 0.950 . S
H2474 C2450 0.950 . S
H2475 C2451 0.949 . S
H2476 C2453 0.950 . S
H2477 C2455 0.950 . S
C2478 C2479 1.349 . S
C2478 C2480 1.327 . S
C2478 H2503 0.950 . S
C2479 C2478 1.349 . S
C2479 C2495 1.349 . S
C2480 C2478 1.327 . S
C2480 C2499 1.429 . S
C2480 H2504 0.950 . S
C2481 C2498 1.574 . S
C2481 C2500 1.368 . S
C2481 H2505 0.949 . S
H2482 C2486 0.949 . S
C2483 C2484 1.349 . S
C2483 C2485 1.327 . S
C2483 H2506 0.950 . S
C2484 C2483 1.349 . S
C2484 C2496 1.349 . S
C2485 C2483 1.327 . S
C2485 C2501 1.429 . S
C2485 H2507 0.950 . S
C2486 H2482 0.949 . S
C2486 C2494 1.574 . S
C2486 C2502 1.368 . S
H2487 C2495 0.950 . S
H2488 C2493 0.950 . S
H2489 C2494 0.949 . S
H2490 C2496 0.950 . S
H2491 C2497 0.950 . S
H2492 C2498 0.949 . S
C2493 H2488 0.950 . S
C2493 C2495 1.327 . S
C2493 C2499 1.429 . S
C2494 C2486 1.574 . S
C2494 H2489 0.949 . S
C2494 C2500 1.368 . S
C2495 C2479 1.349 . S
C2495 H2487 0.950 . S
C2495 C2493 1.327 . S
C2496 C2484 1.349 . S
C2496 H2490 0.950 . S
C2496 C2497 1.327 . S
C2497 H2491 0.950 . S
C2497 C2496 1.327 . S
C2497 C2501 1.429 . S
C2498 C2481 1.574 . S
C2498 H2492 0.949 . S
C2498 C2502 1.368 . S
C2499 C2480 1.429 . S
C2499 C2493 1.429 . S
C2499 C2500 1.523 . S
C2500 C2481 1.368 . S
C2500 C2494 1.368 . S
C2500 C2499 1.523 . S
C2501 C2485 1.429 . S
C2501 C2497 1.429 . S
C2501 C2502 1.523 . S
C2502 C2486 1.368 . S
C2502 C2498 1.368 . S
C2502 C2501 1.523 . S
H2503 C2478 0.950 . S
H2504 C2480 0.950 . S
H2505 C2481 0.949 . S
H2506 C2483 0.950 . S
H2507 C2485 0.950 . S
C2508 C2509 1.349 . S
C2508 C2510 1.327 . S
C2508 H2533 0.950 . S
C2509 C2508 1.349 . S
C2509 C2525 1.349 . S
C2510 C2508 1.327 . S
C2510 C2529 1.429 . S
C2510 H2534 0.950 . S
C2511 C2528 1.574 . S
C2511 C2530 1.368 . S
C2511 H2535 0.949 . S
H2512 C2516 0.949 . S
C2513 C2514 1.349 . S
C2513 C2515 1.327 . S
C2513 H2536 0.950 . S
C2514 C2513 1.349 . S
C2514 C2526 1.349 . S
C2515 C2513 1.327 . S
C2515 C2531 1.429 . S
C2515 H2537 0.950 . S
C2516 H2512 0.949 . S
C2516 C2524 1.574 . S
C2516 C2532 1.368 . S
H2517 C2525 0.950 . S
H2518 C2523 0.950 . S
H2519 C2524 0.949 . S
H2520 C2526 0.950 . S
H2521 C2527 0.950 . S
H2522 C2528 0.949 . S
C2523 H2518 0.950 . S
C2523 C2525 1.327 . S
C2523 C2529 1.429 . S
C2524 C2516 1.574 . S
C2524 H2519 0.949 . S
C2524 C2530 1.368 . S
C2525 C2509 1.349 . S
C2525 H2517 0.950 . S
C2525 C2523 1.327 . S
C2526 C2514 1.349 . S
C2526 H2520 0.950 . S
C2526 C2527 1.327 . S
C2527 H2521 0.950 . S
C2527 C2526 1.327 . S
C2527 C2531 1.429 . S
C2528 C2511 1.574 . S
C2528 H2522 0.949 . S
C2528 C2532 1.368 . S
C2529 C2510 1.429 . S
C2529 C2523 1.429 . S
C2529 C2530 1.523 . S
C2530 C2511 1.368 . S
C2530 C2524 1.368 . S
C2530 C2529 1.523 . S
C2531 C2515 1.429 . S
C2531 C2527 1.429 . S
C2531 C2532 1.523 . S
C2532 C2516 1.368 . S
C2532 C2528 1.368 . S
C2532 C2531 1.523 . S
H2533 C2508 0.950 . S
H2534 C2510 0.950 . S
H2535 C2511 0.949 . S
H2536 C2513 0.950 . S
H2537 C2515 0.950 . S
C2538 C2539 1.349 . S
C2538 C2540 1.327 . S
C2538 H2563 0.950 . S
C2539 C2538 1.349 . S
C2539 C2555 1.349 . S
C2540 C2538 1.327 . S
C2540 C2559 1.429 . S
C2540 H2564 0.950 . S
C2541 C2558 1.574 . S
C2541 C2560 1.368 . S
C2541 H2565 0.949 . S
H2542 C2546 0.949 . S
C2543 C2544 1.349 . S
C2543 C2545 1.327 . S
C2543 H2566 0.950 . S
C2544 C2543 1.349 . S
C2544 C2556 1.349 . S
C2545 C2543 1.327 . S
C2545 C2561 1.429 . S
C2545 H2567 0.950 . S
C2546 H2542 0.949 . S
C2546 C2554 1.574 . S
C2546 C2562 1.368 . S
H2547 C2555 0.950 . S
H2548 C2553 0.950 . S
H2549 C2554 0.949 . S
H2550 C2556 0.950 . S
H2551 C2557 0.950 . S
H2552 C2558 0.949 . S
C2553 H2548 0.950 . S
C2553 C2555 1.327 . S
C2553 C2559 1.429 . S
C2554 C2546 1.574 . S
C2554 H2549 0.949 . S
C2554 C2560 1.368 . S
C2555 C2539 1.349 . S
C2555 H2547 0.950 . S
C2555 C2553 1.327 . S
C2556 C2544 1.349 . S
C2556 H2550 0.950 . S
C2556 C2557 1.327 . S
C2557 H2551 0.950 . S
C2557 C2556 1.327 . S
C2557 C2561 1.429 . S
C2558 C2541 1.574 . S
C2558 H2552 0.949 . S
C2558 C2562 1.368 . S
C2559 C2540 1.429 . S
C2559 C2553 1.429 . S
C2559 C2560 1.523 . S
C2560 C2541 1.368 . S
C2560 C2554 1.368 . S
C2560 C2559 1.523 . S
C2561 C2545 1.429 . S
C2561 C2557 1.429 . S
C2561 C2562 1.523 . S
C2562 C2546 1.368 . S
C2562 C2558 1.368 . S
C2562 C2561 1.523 . S
H2563 C2538 0.950 . S
H2564 C2540 0.950 . S
H2565 C2541 0.949 . S
H2566 C2543 0.950 . S
H2567 C2545 0.950 . S
C2568 C2569 1.349 . S
C2568 C2570 1.327 . S
C2568 H2593 0.950 . S
C2569 C2568 1.349 . S
C2569 C2585 1.349 . S
C2570 C2568 1.327 . S
C2570 C2589 1.429 . S
C2570 H2594 0.950 . S
C2571 C2588 1.574 . S
C2571 C2590 1.368 . S
C2571 H2595 0.949 . S
H2572 C2576 0.949 . S
C2573 C2574 1.349 . S
C2573 C2575 1.327 . S
C2573 H2596 0.950 . S
C2574 C2573 1.349 . S
C2574 C2586 1.349 . S
C2575 C2573 1.327 . S
C2575 C2591 1.429 . S
C2575 H2597 0.950 . S
C2576 H2572 0.949 . S
C2576 C2584 1.574 . S
C2576 C2592 1.368 . S
H2577 C2585 0.950 . S
H2578 C2583 0.950 . S
H2579 C2584 0.949 . S
H2580 C2586 0.950 . S
H2581 C2587 0.950 . S
H2582 C2588 0.949 . S
C2583 H2578 0.950 . S
C2583 C2585 1.327 . S
C2583 C2589 1.429 . S
C2584 C2576 1.574 . S
C2584 H2579 0.949 . S
C2584 C2590 1.368 . S
C2585 C2569 1.349 . S
C2585 H2577 0.950 . S
C2585 C2583 1.327 . S
C2586 C2574 1.349 . S
C2586 H2580 0.950 . S
C2586 C2587 1.327 . S
C2587 H2581 0.950 . S
C2587 C2586 1.327 . S
C2587 C2591 1.429 . S
C2588 C2571 1.574 . S
C2588 H2582 0.949 . S
C2588 C2592 1.368 . S
C2589 C2570 1.429 . S
C2589 C2583 1.429 . S
C2589 C2590 1.523 . S
C2590 C2571 1.368 . S
C2590 C2584 1.368 . S
C2590 C2589 1.523 . S
C2591 C2575 1.429 . S
C2591 C2587 1.429 . S
C2591 C2592 1.523 . S
C2592 C2576 1.368 . S
C2592 C2588 1.368 . S
C2592 C2591 1.523 . S
H2593 C2568 0.950 . S
H2594 C2570 0.950 . S
H2595 C2571 0.949 . S
H2596 C2573 0.950 . S
H2597 C2575 0.950 . S
C2598 C2599 1.349 . S
C2598 C2600 1.327 . S
C2598 H2623 0.950 . S
C2599 C2598 1.349 . S
C2599 C2615 1.349 . S
C2600 C2598 1.327 . S
C2600 C2619 1.429 . S
C2600 H2624 0.950 . S
C2601 C2618 1.574 . S
C2601 C2620 1.368 . S
C2601 H2625 0.949 . S
H2602 C2606 0.949 . S
C2603 C2604 1.349 . S
C2603 C2605 1.327 . S
C2603 H2626 0.950 . S
C2604 C2603 1.349 . S
C2604 C2616 1.349 . S
C2605 C2603 1.327 . S
C2605 C2621 1.429 . S
C2605 H2627 0.950 . S
C2606 H2602 0.949 . S
C2606 C2614 1.574 . S
C2606 C2622 1.368 . S
H2607 C2615 0.950 . S
H2608 C2613 0.950 . S
H2609 C2614 0.949 . S
H2610 C2616 0.950 . S
H2611 C2617 0.950 . S
H2612 C2618 0.949 . S
C2613 H2608 0.950 . S
C2613 C2615 1.327 . S
C2613 C2619 1.429 . S
C2614 C2606 1.574 . S
C2614 H2609 0.949 . S
C2614 C2620 1.368 . S
C2615 C2599 1.349 . S
C2615 H2607 0.950 . S
C2615 C2613 1.327 . S
C2616 C2604 1.349 . S
C2616 H2610 0.950 . S
C2616 C2617 1.327 . S
C2617 H2611 0.950 . S
C2617 C2616 1.327 . S
C2617 C2621 1.429 . S
C2618 C2601 1.574 . S
C2618 H2612 0.949 . S
C2618 C2622 1.368 . S
C2619 C2600 1.429 . S
C2619 C2613 1.429 . S
C2619 C2620 1.523 . S
C2620 C2601 1.368 . S
C2620 C2614 1.368 . S
C2620 C2619 1.523 . S
C2621 C2605 1.429 . S
C2621 C2617 1.429 . S
C2621 C2622 1.523 . S
C2622 C2606 1.368 . S
C2622 C2618 1.368 . S
C2622 C2621 1.523 . S
H2623 C2598 0.950 . S
H2624 C2600 0.950 . S
H2625 C2601 0.949 . S
H2626 C2603 0.950 . S
H2627 C2605 0.950 . S
C469 C4 1.501 . S
C474 C238 1.501 . S
C499 C257 1.501 . S
C504 C17 1.501 . S
C529 C270 1.501 . S
C534 C30 1.501 . S
C559 C43 1.501 . S
C564 C433 1.501 . S
C589 C62 1.501 . S
C594 C446 1.501 . S
C619 C75 1.501 . S
C624 C459 1.501 . S
C649 C316 1.501 . S
C654 C82 1.501 . S
C679 C95 1.501 . S
C684 C335 1.501 . S
C709 C114 1.501 . S
C714 C348 1.501 . S
C739 C205 1.501 . S
C744 C121 1.501 . S
C769 C218 1.501 . S
C774 C134 1.501 . S
C799 C225 1.501 . S
C804 C153 1.501 . S
C829 C394 1.501 . S
C834 C160 1.501 . S
C859 C407 1.501 . S
C864 C179 1.501 . S
C889 C186 1.501 . S
C894 C426 1.501 . S
C919 C361 1.501 . S
C924 C283 1.501 . S
C949 C296 1.501 . S
C954 C368 1.501 . S
C979 C309 1.501 . S
C984 C387 1.501 . S
C1009 C10 1.514 . S
C1014 C355 1.514 . S
C1039 C374 1.514 . S
C1044 C23 1.514 . S
C1069 C381 1.514 . S
C1074 C36 1.514 . S
C1099 C166 1.514 . S
C1104 C49 1.514 . S
C1129 C173 1.514 . S
C1134 C56 1.514 . S
C1159 C192 1.514 . S
C1164 C69 1.514 . S
C1189 C88 1.514 . S
C1194 C277 1.514 . S
C1219 C290 1.514 . S
C1224 C101 1.514 . S
C1249 C303 1.514 . S
C1254 C108 1.514 . S
C1279 C127 1.514 . S
C1284 C400 1.514 . S
C1309 C140 1.514 . S
C1314 C413 1.514 . S
C1339 C147 1.514 . S
C1344 C420 1.514 . S
C1369 C199 1.514 . S
C1374 C322 1.514 . S
C1399 C212 1.514 . S
C1404 C329 1.514 . S
C1429 C231 1.514 . S
C1434 C342 1.514 . S
C1459 C244 1.514 . S
C1464 C439 1.514 . S
C1489 C452 1.514 . S
C1494 C251 1.514 . S
C1519 C264 1.514 . S
C1524 C465 1.514 . S
C1549 C18 1.049 1_455 S
C1554 C3 1.017 . S
C1579 C16 1.017 . S
C1584 C31 1.049 . S
C1609 C29 1.017 . S
C1614 C5 1.049 1_565 S
C1639 C42 1.017 . S
C1644 C68 1.049 1_545 S
C1669 C44 1.049 1_655 S
C1674 C57 1.017 . S
C1699 C70 1.017 . S
C1704 C55 1.049 . S
C1729 C81 1.017 . S
C1734 C96 1.049 1_655 S
C1759 C94 1.017 . S
C1764 C107 1.049 . S
C1789 C109 1.017 . S
C1794 C83 1.049 1_545 S
C1819 C146 1.049 1_565 S
C1824 C120 1.017 . S
C1849 C133 1.017 . S
C1854 C122 1.049 1_455 S
C1879 C135 1.049 . S
C1884 C148 1.017 . S
C1909 C172 1.049 . S
C1914 C159 1.017 . S
C1939 C187 1.049 . S
C1944 C174 1.017 . S
C1969 C161 1.049 . S
C1974 C185 1.017 . S
C1999 C200 1.017 . S
C2004 C226 1.049 . S
C2029 C213 1.017 . S
C2034 C198 1.049 . S
C2059 C224 1.017 . S
C2064 C211 1.049 . S
C2089 C250 1.049 . S
C2094 C237 1.017 . S
C2119 C252 1.017 . S
C2124 C263 1.049 . S
C2149 C265 1.017 . S
C2154 C239 1.049 . S
C2179 C278 1.017 . S
C2184 C302 1.049 . S
C2209 C291 1.017 . S
C2214 C276 1.049 . S
C2239 C289 1.049 . S
C2244 C304 1.017 . S
C2269 C328 1.049 . S
C2274 C315 1.017 . S
C2299 C330 1.017 . S
C2304 C341 1.049 . S
C2329 C317 1.049 . S
C2334 C343 1.017 . S
C2359 C356 1.017 . S
C2364 C380 1.049 . S
C2389 C367 1.017 . S
C2394 C354 1.049 . S
C2419 C382 1.017 . S
C2424 C369 1.049 . S
C2449 C393 1.017 . S
C2454 C408 1.049 . S
C2479 C406 1.017 . S
C2484 C419 1.049 . S
C2509 C421 1.017 . S
C2514 C395 1.049 . S
C2539 C432 1.017 . S
C2544 C460 1.049 . S
C2569 C445 1.017 . S
C2574 C434 1.049 . S
C2599 C447 1.049 . S
C2604 C458 1.017 . S
