# Generated by pormake.
# Topology wlh, (5)-cn, num edge types: 1
# Building blocks:
#     Node 0, Type 0, BuildingBlock: XOMCOT_clean_sbu_1, # of connection points: 5
#     Node 1, Type 0, BuildingBlock: XOMCOT_clean_sbu_1, # of connection points: 5
#     Node 2, Type 0, BuildingBlock: XOMCOT_clean_sbu_1, # of connection points: 5
#     Node 3, Type 0, BuildingBlock: XOMCOT_clean_sbu_1, # of connection points: 5
#     Node 4, Type 0, BuildingBlock: XOMCOT_clean_sbu_1, # of connection points: 5
#     Node 5, Type 0, BuildingBlock: XOMCOT_clean_sbu_1, # of connection points: 5
#     Node 6, Type 0, BuildingBlock: XOMCOT_clean_sbu_1, # of connection points: 5
#     Node 7, Type 0, BuildingBlock: XOMCOT_clean_sbu_1, # of connection points: 5
#     Node 8, Type 0, BuildingBlock: XOMCOT_clean_sbu_1, # of connection points: 5
#     Node 9, Type 0, BuildingBlock: XOMCOT_clean_sbu_1, # of connection points: 5
#     Node 10, Type 0, BuildingBlock: XOMCOT_clean_sbu_1, # of connection points: 5
#     Node 11, Type 0, BuildingBlock: XOMCOT_clean_sbu_1, # of connection points: 5
#     Node 12, Type 0, BuildingBlock: XOMCOT_clean_sbu_1, # of connection points: 5
#     Node 13, Type 0, BuildingBlock: XOMCOT_clean_sbu_1, # of connection points: 5
#     Node 14, Type 0, BuildingBlock: XOMCOT_clean_sbu_1, # of connection points: 5
#     Node 15, Type 0, BuildingBlock: XOMCOT_clean_sbu_1, # of connection points: 5
#     Node 16, Type 0, BuildingBlock: XOMCOT_clean_sbu_1, # of connection points: 5
#     Node 17, Type 0, BuildingBlock: XOMCOT_clean_sbu_1, # of connection points: 5
#     Node 18, Type 0, BuildingBlock: XOMCOT_clean_sbu_1, # of connection points: 5
#     Node 19, Type 0, BuildingBlock: XOMCOT_clean_sbu_1, # of connection points: 5
#     Node 20, Type 0, BuildingBlock: XOMCOT_clean_sbu_1, # of connection points: 5
#     Node 21, Type 0, BuildingBlock: XOMCOT_clean_sbu_1, # of connection points: 5
#     Node 22, Type 0, BuildingBlock: XOMCOT_clean_sbu_1, # of connection points: 5
#     Node 23, Type 0, BuildingBlock: XOMCOT_clean_sbu_1, # of connection points: 5
#     Node 24, Type 0, BuildingBlock: XOMCOT_clean_sbu_1, # of connection points: 5
#     Node 25, Type 0, BuildingBlock: XOMCOT_clean_sbu_1, # of connection points: 5
#     Node 26, Type 0, BuildingBlock: XOMCOT_clean_sbu_1, # of connection points: 5
#     Node 27, Type 0, BuildingBlock: XOMCOT_clean_sbu_1, # of connection points: 5
#     Node 28, Type 0, BuildingBlock: XOMCOT_clean_sbu_1, # of connection points: 5
#     Node 29, Type 0, BuildingBlock: XOMCOT_clean_sbu_1, # of connection points: 5
#     Node 30, Type 0, BuildingBlock: XOMCOT_clean_sbu_1, # of connection points: 5
#     Node 31, Type 0, BuildingBlock: XOMCOT_clean_sbu_1, # of connection points: 5
#     Node 32, Type 0, BuildingBlock: XOMCOT_clean_sbu_1, # of connection points: 5
#     Node 33, Type 0, BuildingBlock: XOMCOT_clean_sbu_1, # of connection points: 5
#     Node 34, Type 0, BuildingBlock: XOMCOT_clean_sbu_1, # of connection points: 5
#     Node 35, Type 0, BuildingBlock: XOMCOT_clean_sbu_1, # of connection points: 5
#     Edge 36, Type (0, 0), BuildingBlock: KIFKEQ_clean_linker_1, # of connection points: 2
#     Edge 37, Type (0, 0), BuildingBlock: KIFKEQ_clean_linker_1, # of connection points: 2
#     Edge 38, Type (0, 0), BuildingBlock: KIFKEQ_clean_linker_1, # of connection points: 2
#     Edge 39, Type (0, 0), BuildingBlock: KIFKEQ_clean_linker_1, # of connection points: 2
#     Edge 40, Type (0, 0), BuildingBlock: KIFKEQ_clean_linker_1, # of connection points: 2
#     Edge 41, Type (0, 0), BuildingBlock: KIFKEQ_clean_linker_1, # of connection points: 2
#     Edge 42, Type (0, 0), BuildingBlock: KIFKEQ_clean_linker_1, # of connection points: 2
#     Edge 43, Type (0, 0), BuildingBlock: KIFKEQ_clean_linker_1, # of connection points: 2
#     Edge 44, Type (0, 0), BuildingBlock: KIFKEQ_clean_linker_1, # of connection points: 2
#     Edge 45, Type (0, 0), BuildingBlock: KIFKEQ_clean_linker_1, # of connection points: 2
#     Edge 46, Type (0, 0), BuildingBlock: KIFKEQ_clean_linker_1, # of connection points: 2
#     Edge 47, Type (0, 0), BuildingBlock: KIFKEQ_clean_linker_1, # of connection points: 2
#     Edge 48, Type (0, 0), BuildingBlock: KIFKEQ_clean_linker_1, # of connection points: 2
#     Edge 49, Type (0, 0), BuildingBlock: KIFKEQ_clean_linker_1, # of connection points: 2
#     Edge 50, Type (0, 0), BuildingBlock: KIFKEQ_clean_linker_1, # of connection points: 2
#     Edge 51, Type (0, 0), BuildingBlock: KIFKEQ_clean_linker_1, # of connection points: 2
#     Edge 52, Type (0, 0), BuildingBlock: KIFKEQ_clean_linker_1, # of connection points: 2
#     Edge 53, Type (0, 0), BuildingBlock: KIFKEQ_clean_linker_1, # of connection points: 2
#     Edge 54, Type (0, 0), BuildingBlock: KIFKEQ_clean_linker_1, # of connection points: 2
#     Edge 55, Type (0, 0), BuildingBlock: KIFKEQ_clean_linker_1, # of connection points: 2
#     Edge 56, Type (0, 0), BuildingBlock: KIFKEQ_clean_linker_1, # of connection points: 2
#     Edge 57, Type (0, 0), BuildingBlock: KIFKEQ_clean_linker_1, # of connection points: 2
#     Edge 58, Type (0, 0), BuildingBlock: KIFKEQ_clean_linker_1, # of connection points: 2
#     Edge 59, Type (0, 0), BuildingBlock: KIFKEQ_clean_linker_1, # of connection points: 2
#     Edge 60, Type (0, 0), BuildingBlock: KIFKEQ_clean_linker_1, # of connection points: 2
#     Edge 61, Type (0, 0), BuildingBlock: KIFKEQ_clean_linker_1, # of connection points: 2
#     Edge 62, Type (0, 0), BuildingBlock: KIFKEQ_clean_linker_1, # of connection points: 2
#     Edge 63, Type (0, 0), BuildingBlock: KIFKEQ_clean_linker_1, # of connection points: 2
#     Edge 64, Type (0, 0), BuildingBlock: KIFKEQ_clean_linker_1, # of connection points: 2
#     Edge 65, Type (0, 0), BuildingBlock: KIFKEQ_clean_linker_1, # of connection points: 2
#     Edge 66, Type (0, 0), BuildingBlock: KIFKEQ_clean_linker_1, # of connection points: 2
#     Edge 67, Type (0, 0), BuildingBlock: KIFKEQ_clean_linker_1, # of connection points: 2
#     Edge 68, Type (0, 0), BuildingBlock: KIFKEQ_clean_linker_1, # of connection points: 2
#     Edge 69, Type (0, 0), BuildingBlock: KIFKEQ_clean_linker_1, # of connection points: 2
#     Edge 70, Type (0, 0), BuildingBlock: KIFKEQ_clean_linker_1, # of connection points: 2
#     Edge 71, Type (0, 0), BuildingBlock: KIFKEQ_clean_linker_1, # of connection points: 2
#     Edge 72, Type (0, 0), BuildingBlock: KIFKEQ_clean_linker_1, # of connection points: 2
#     Edge 73, Type (0, 0), BuildingBlock: KIFKEQ_clean_linker_1, # of connection points: 2
#     Edge 74, Type (0, 0), BuildingBlock: KIFKEQ_clean_linker_1, # of connection points: 2
#     Edge 75, Type (0, 0), BuildingBlock: KIFKEQ_clean_linker_1, # of connection points: 2
#     Edge 76, Type (0, 0), BuildingBlock: KIFKEQ_clean_linker_1, # of connection points: 2
#     Edge 77, Type (0, 0), BuildingBlock: KIFKEQ_clean_linker_1, # of connection points: 2
#     Edge 78, Type (0, 0), BuildingBlock: KIFKEQ_clean_linker_1, # of connection points: 2
#     Edge 79, Type (0, 0), BuildingBlock: KIFKEQ_clean_linker_1, # of connection points: 2
#     Edge 80, Type (0, 0), BuildingBlock: KIFKEQ_clean_linker_1, # of connection points: 2
#     Edge 81, Type (0, 0), BuildingBlock: KIFKEQ_clean_linker_1, # of connection points: 2
#     Edge 82, Type (0, 0), BuildingBlock: KIFKEQ_clean_linker_1, # of connection points: 2
#     Edge 83, Type (0, 0), BuildingBlock: KIFKEQ_clean_linker_1, # of connection points: 2
#     Edge 84, Type (0, 0), BuildingBlock: KIFKEQ_clean_linker_1, # of connection points: 2
#     Edge 85, Type (0, 0), BuildingBlock: KIFKEQ_clean_linker_1, # of connection points: 2
#     Edge 86, Type (0, 0), BuildingBlock: KIFKEQ_clean_linker_1, # of connection points: 2
#     Edge 87, Type (0, 0), BuildingBlock: KIFKEQ_clean_linker_1, # of connection points: 2
#     Edge 88, Type (0, 0), BuildingBlock: KIFKEQ_clean_linker_1, # of connection points: 2
#     Edge 89, Type (0, 0), BuildingBlock: KIFKEQ_clean_linker_1, # of connection points: 2
#     Edge 90, Type (0, 0), BuildingBlock: KIFKEQ_clean_linker_1, # of connection points: 2
#     Edge 91, Type (0, 0), BuildingBlock: KIFKEQ_clean_linker_1, # of connection points: 2
#     Edge 92, Type (0, 0), BuildingBlock: KIFKEQ_clean_linker_1, # of connection points: 2
#     Edge 93, Type (0, 0), BuildingBlock: KIFKEQ_clean_linker_1, # of connection points: 2
#     Edge 94, Type (0, 0), BuildingBlock: KIFKEQ_clean_linker_1, # of connection points: 2
#     Edge 95, Type (0, 0), BuildingBlock: KIFKEQ_clean_linker_1, # of connection points: 2
#     Edge 96, Type (0, 0), BuildingBlock: KIFKEQ_clean_linker_1, # of connection points: 2
#     Edge 97, Type (0, 0), BuildingBlock: KIFKEQ_clean_linker_1, # of connection points: 2
#     Edge 98, Type (0, 0), BuildingBlock: KIFKEQ_clean_linker_1, # of connection points: 2
#     Edge 99, Type (0, 0), BuildingBlock: KIFKEQ_clean_linker_1, # of connection points: 2
#     Edge 100, Type (0, 0), BuildingBlock: KIFKEQ_clean_linker_1, # of connection points: 2
#     Edge 101, Type (0, 0), BuildingBlock: KIFKEQ_clean_linker_1, # of connection points: 2
#     Edge 102, Type (0, 0), BuildingBlock: KIFKEQ_clean_linker_1, # of connection points: 2
#     Edge 103, Type (0, 0), BuildingBlock: KIFKEQ_clean_linker_1, # of connection points: 2
#     Edge 104, Type (0, 0), BuildingBlock: KIFKEQ_clean_linker_1, # of connection points: 2
#     Edge 105, Type (0, 0), BuildingBlock: KIFKEQ_clean_linker_1, # of connection points: 2
#     Edge 106, Type (0, 0), BuildingBlock: KIFKEQ_clean_linker_1, # of connection points: 2
#     Edge 107, Type (0, 0), BuildingBlock: KIFKEQ_clean_linker_1, # of connection points: 2
#     Edge 108, Type (0, 0), BuildingBlock: KIFKEQ_clean_linker_1, # of connection points: 2
#     Edge 109, Type (0, 0), BuildingBlock: KIFKEQ_clean_linker_1, # of connection points: 2
#     Edge 110, Type (0, 0), BuildingBlock: KIFKEQ_clean_linker_1, # of connection points: 2
#     Edge 111, Type (0, 0), BuildingBlock: KIFKEQ_clean_linker_1, # of connection points: 2
#     Edge 112, Type (0, 0), BuildingBlock: KIFKEQ_clean_linker_1, # of connection points: 2
#     Edge 113, Type (0, 0), BuildingBlock: KIFKEQ_clean_linker_1, # of connection points: 2
#     Edge 114, Type (0, 0), BuildingBlock: KIFKEQ_clean_linker_1, # of connection points: 2
#     Edge 115, Type (0, 0), BuildingBlock: KIFKEQ_clean_linker_1, # of connection points: 2
#     Edge 116, Type (0, 0), BuildingBlock: KIFKEQ_clean_linker_1, # of connection points: 2
#     Edge 117, Type (0, 0), BuildingBlock: KIFKEQ_clean_linker_1, # of connection points: 2
#     Edge 118, Type (0, 0), BuildingBlock: KIFKEQ_clean_linker_1, # of connection points: 2
#     Edge 119, Type (0, 0), BuildingBlock: KIFKEQ_clean_linker_1, # of connection points: 2
#     Edge 120, Type (0, 0), BuildingBlock: KIFKEQ_clean_linker_1, # of connection points: 2
#     Edge 121, Type (0, 0), BuildingBlock: KIFKEQ_clean_linker_1, # of connection points: 2
#     Edge 122, Type (0, 0), BuildingBlock: KIFKEQ_clean_linker_1, # of connection points: 2
#     Edge 123, Type (0, 0), BuildingBlock: KIFKEQ_clean_linker_1, # of connection points: 2
#     Edge 124, Type (0, 0), BuildingBlock: KIFKEQ_clean_linker_1, # of connection points: 2
#     Edge 125, Type (0, 0), BuildingBlock: KIFKEQ_clean_linker_1, # of connection points: 2
# Relax obj value: 0.341
# Max RMSD: 0.231
# Mean RMSD: 0.231
data_MOF--net-wlh--node1-XOMCOT_clean_sbu_1--edge1-KIFKEQ_clean_linker_1
_symmetry_space_group_name_H-M    P1
_symmetry_Int_Tables_number       1
_symmetry_cell_setting            triclinic
loop_
_symmetry_equiv_pos_as_xyz
'x, y, z'
_cell_length_a     39.941192
_cell_length_b     39.931888
_cell_length_c     155.91276
_cell_angle_alpha  90.019686
_cell_angle_beta   89.957579
_cell_angle_gamma 120.01729
loop_
_atom_site_label
_atom_site_type_symbol
_atom_site_fract_x
_atom_site_fract_y
_atom_site_fract_z
_atom_type_partial_charge
C0 C 0.14257 0.25888 0.19436 0.0
C1 C 0.15963 0.23632 0.1936 0.0
N2 N 0.13888 0.20772 0.18796 0.0
N3 N 0.1113 0.24446 0.18922 0.0
C4 C 0.11002 0.21356 0.18537 0.0
H5 H 0.15226 0.28415 0.19838 0.0
Co6 Co 0.07845 0.2641 0.18741 0.0
C7 C 0.01395 0.2003 0.17774 0.0
O8 O 0.01417 0.22388 0.17184 0.0
N9 N 0.04513 0.28388 0.18559 0.0
C10 C 0.99339 0.29096 0.18626 0.0
C11 C 0.00794 0.26717 0.1882 0.0
C12 C 0.05251 0.31788 0.18208 0.0
N13 N 0.02146 0.32291 0.18242 0.0
O14 O 0.09826 0.27691 0.17601 0.0
H15 H 0.99244 0.23951 0.19142 0.0
H16 H 0.08033 0.33899 0.17951 0.0
O17 O 0.038 0.21345 0.18391 0.0
C18 C 0.13031 0.30872 0.17597 0.0
O19 O 0.14044 0.32991 0.18297 0.0
N20 N 0.06201 0.25332 0.1988 0.0
C21 C 0.04116 0.24293 0.21605 0.0
C22 C 0.03383 0.21124 0.21087 0.0
C23 C 0.04474 0.21707 0.20225 0.0
C24 C 0.07035 0.28459 0.20377 0.0
C25 C 0.05987 0.28004 0.2124 0.0
H26 H 0.03985 0.19249 0.19842 0.0
H27 H 0.08499 0.31323 0.20097 0.0
H28 H 0.08872 0.196 0.18061 0.0
H29 H 0.18488 0.24024 0.19704 0.0
H30 H 0.96425 0.28499 0.18751 0.0
H31 H 0.02043 0.18223 0.21348 0.0
H32 H 0.066 0.30531 0.21615 0.0
C33 C 0.74512 0.8816 0.19437 0.0
C34 C 0.76701 0.92136 0.19377 0.0
N35 N 0.79622 0.93031 0.18823 0.0
N36 N 0.76057 0.86573 0.18923 0.0
C37 C 0.7914 0.89608 0.18553 0.0
H38 H 0.71963 0.86526 0.19829 0.0
Co39 Co 0.74226 0.81348 0.18723 0.0
C40 C 0.80901 0.81753 0.17779 0.0
O41 O 0.78734 0.79766 0.17127 0.0
N42 N 0.72395 0.76073 0.18518 0.0
C43 C 0.71892 0.70271 0.18561 0.0
C44 C 0.74198 0.7412 0.18754 0.0
C45 C 0.68987 0.73337 0.18184 0.0
N46 N 0.68605 0.69773 0.18203 0.0
O47 O 0.73108 0.8212 0.17574 0.0
H48 H 0.76993 0.75405 0.19063 0.0
H49 H 0.66778 0.7392 0.17953 0.0
O50 O 0.7939 0.82509 0.18416 0.0
C51 C 0.69883 0.82047 0.17545 0.0
O52 O 0.67646 0.80824 0.18227 0.0
N53 N 0.7513 0.80693 0.1987 0.0
C54 C 0.75979 0.79557 0.21601 0.0
C55 C 0.7917 0.82172 0.2111 0.0
C56 C 0.78678 0.82725 0.20246 0.0
C57 C 0.71973 0.78219 0.2034 0.0
C58 C 0.72336 0.77585 0.21207 0.0
H59 H 0.81134 0.84848 0.19887 0.0
H60 H 0.69159 0.76719 0.20038 0.0
H61 H 0.80964 0.89318 0.18081 0.0
H62 H 0.76218 0.94201 0.19726 0.0
H63 H 0.72594 0.68018 0.18672 0.0
H64 H 0.82012 0.83839 0.21395 0.0
H65 H 0.69796 0.75543 0.21562 0.0
C66 C 0.12702 0.86724 0.19558 0.0
C67 C 0.0872 0.84869 0.1954 0.0
N68 N 0.07645 0.86366 0.18893 0.0
N69 N 0.14119 0.89408 0.18932 0.0
C70 C 0.10973 0.89088 0.18532 0.0
H71 H 0.14456 0.86209 0.20008 0.0
Co72 Co 0.19275 0.92879 0.1869 0.0
C73 C 0.18685 0.98836 0.1768 0.0
O74 O 0.2086 0.98706 0.17063 0.0
N75 N 0.24488 0.96398 0.18449 0.0
C76 C 0.30177 0.01834 0.18415 0.0
C77 C 0.26353 1.00211 0.18638 0.0
C78 C 0.2726 0.95762 0.18124 0.0
N79 N 0.30753 0.99033 0.18092 0.0
O80 O 0.18436 0.90765 0.17564 0.0
H81 H 0.25028 0.0171 0.18935 0.0
H82 H 0.26737 0.92959 0.17916 0.0
O83 O 0.17886 0.96649 0.18333 0.0
C84 C 0.18612 0.87672 0.17525 0.0
O85 O 0.19945 0.867 0.18194 0.0
N86 N 0.20008 0.94712 0.19816 0.0
C87 C 0.21202 0.96967 0.21531 0.0
C88 C 0.18624 0.97531 0.21024 0.0
C89 C 0.18043 0.96356 0.20169 0.0
C90 C 0.2248 0.94085 0.203 0.0
C91 C 0.23144 0.95217 0.21158 0.0
H92 H 0.1596 0.96708 0.19797 0.0
H93 H 0.23926 0.92675 0.20016 0.0
H94 H 0.11121 0.90902 0.18001 0.0
H95 H 0.0677 0.82617 0.19974 0.0
H96 H 0.32383 0.04828 0.18505 0.0
H97 H 0.17067 0.98874 0.21285 0.0
H98 H 0.25096 0.94651 0.2153 0.0
C99 C 0.26402 0.1443 0.29974 0.0
C100 C 0.24211 0.16214 0.30037 0.0
N101 N 0.21302 0.14187 0.30594 0.0
N102 N 0.24869 0.11299 0.30488 0.0
C103 C 0.21797 0.11253 0.30862 0.0
H104 H 0.28934 0.15339 0.29577 0.0
Co105 Co 0.26642 0.07853 0.30678 0.0
C106 C 0.1993 0.01631 0.31622 0.0
O107 O 0.22088 0.01843 0.32278 0.0
N108 N 0.284 0.04345 0.30874 0.0
C109 C 0.28671 0.98917 0.30857 0.0
C110 C 0.26486 0.00574 0.30648 0.0
C111 C 0.31774 0.04925 0.31208 0.0
N112 N 0.32002 0.01654 0.31209 0.0
O113 O 0.27783 0.0971 0.3183 0.0
H114 H 0.23694 0.99125 0.30336 0.0
H115 H 0.34016 0.0768 0.31449 0.0
O116 O 0.21452 0.03873 0.30981 0.0
C117 C 0.31034 0.12836 0.31859 0.0
O118 O 0.33266 0.13829 0.31177 0.0
N119 N 0.25733 0.06338 0.29529 0.0
C120 C 0.2491 0.0449 0.2779 0.0
C121 C 0.2172 0.03916 0.28282 0.0
C122 C 0.22199 0.04891 0.2915 0.0
C123 C 0.28886 0.07005 0.2906 0.0
C124 C 0.28535 0.06071 0.2819 0.0
H125 H 0.19744 0.04549 0.29511 0.0
H126 H 0.31693 0.08282 0.29364 0.0
H127 H 0.19979 0.09135 0.31334 0.0
H128 H 0.24676 0.18752 0.29687 0.0
H129 H 0.27899 0.95944 0.3074 0.0
H130 H 0.1887 0.02709 0.28 0.0
H131 H 0.31091 0.06645 0.27831 0.0
C132 C 0.86333 0.12002 0.30061 0.0
C133 C 0.84639 0.08039 0.30133 0.0
N134 N 0.86793 0.07254 0.30673 0.0
N135 N 0.89531 0.13689 0.30554 0.0
C136 C 0.89715 0.10727 0.30922 0.0
H137 H 0.85307 0.1356 0.29676 0.0
Co138 Co 0.92823 0.18945 0.30726 0.0
C139 C 0.99336 0.19081 0.31673 0.0
O140 O 0.99309 0.21411 0.32265 0.0
N141 N 0.96163 0.2427 0.309 0.0
C142 C 0.01335 0.30157 0.3082 0.0
C143 C 0.99864 0.26318 0.30626 0.0
C144 C 0.95453 0.2694 0.31257 0.0
N145 N 0.98556 0.30551 0.31216 0.0
O146 O 0.90923 0.18261 0.31872 0.0
H147 H 0.01392 0.25097 0.30297 0.0
H148 H 0.92693 0.26276 0.31525 0.0
O149 O 0.96903 0.17956 0.31061 0.0
C150 C 0.87762 0.18316 0.31906 0.0
O151 O 0.86684 0.1947 0.31224 0.0
N152 N 0.94393 0.19484 0.29582 0.0
C153 C 0.96371 0.2046 0.2785 0.0
C154 C 0.9711 0.18022 0.28366 0.0
C155 C 0.96076 0.17553 0.29231 0.0
C156 C 0.93552 0.21778 0.29087 0.0
C157 C 0.94552 0.22339 0.28221 0.0
H158 H 0.96589 0.156 0.29613 0.0
H159 H 0.92105 0.23188 0.2937 0.0
H160 H 0.9191 0.111 0.31379 0.0
H161 H 0.82067 0.05906 0.29802 0.0
H162 H 0.04241 0.32472 0.30686 0.0
H163 H 0.98502 0.16512 0.28105 0.0
H164 H 0.93855 0.2418 0.27841 0.0
C165 C 0.8827 0.74457 0.29865 0.0
C166 C 0.9225 0.76637 0.29881 0.0
N167 N 0.93293 0.79236 0.30523 0.0
N168 N 0.86822 0.75717 0.30486 0.0
C169 C 0.89948 0.78591 0.30882 0.0
H170 H 0.86538 0.72158 0.29419 0.0
Co171 Co 0.81651 0.73981 0.30723 0.0
C172 C 0.82157 0.80514 0.31725 0.0
O173 O 0.79997 0.782 0.32342 0.0
N174 N 0.76423 0.72241 0.30961 0.0
C175 C 0.70718 0.7195 0.30988 0.0
C176 C 0.74532 0.74145 0.30758 0.0
C177 C 0.73674 0.68863 0.31305 0.0
N178 N 0.70172 0.6862 0.31333 0.0
O179 O 0.82496 0.72734 0.31853 0.0
H180 H 0.75836 0.76941 0.30447 0.0
H181 H 0.74224 0.66625 0.31532 0.0
O182 O 0.82985 0.79138 0.31075 0.0
C183 C 0.8232 0.69464 0.31888 0.0
O184 O 0.8102 0.67184 0.31214 0.0
N185 N 0.80913 0.75037 0.29595 0.0
C186 C 0.79723 0.76003 0.27874 0.0
C187 C 0.82264 0.79183 0.28377 0.0
C188 C 0.82843 0.78636 0.29236 0.0
C189 C 0.78477 0.71904 0.29115 0.0
C190 C 0.77816 0.72324 0.28253 0.0
H191 H 0.84897 0.81099 0.29606 0.0
H192 H 0.7706 0.69058 0.29403 0.0
H193 H 0.89773 0.80266 0.31408 0.0
H194 H 0.94218 0.7635 0.2945 0.0
H195 H 0.68499 0.72713 0.30891 0.0
H196 H 0.83794 0.82075 0.28111 0.0
H197 H 0.75895 0.69779 0.27884 0.0
C198 C 0.89825 0.7633 0.79549 0.0
C199 C 0.88362 0.78801 0.79479 0.0
N200 N 0.89299 0.80976 0.80196 0.0
N201 N 0.91719 0.76994 0.80301 0.0
C202 C 0.91339 0.79825 0.80679 0.0
H203 H 0.8945 0.74132 0.79091 0.0
Co204 Co 0.93951 0.74372 0.80804 0.0
C205 C 0.01771 0.8049 0.81325 0.0
O206 O 0.03091 0.78145 0.81145 0.0
N207 N 0.96105 0.71665 0.81357 0.0
C208 C 0.98024 0.69579 0.82476 0.0
C209 C 0.97053 0.72233 0.82199 0.0
C210 C 0.96518 0.68599 0.8114 0.0
N211 N 0.97688 0.67301 0.8181 0.0
O212 O 0.9091 0.73706 0.818 0.0
H213 H 0.96925 0.74384 0.82598 0.0
H214 H 0.95762 0.67168 0.80525 0.0
O215 O 0.98161 0.79314 0.81238 0.0
C216 C 0.87889 0.70387 0.81852 0.0
O217 O 0.87384 0.67735 0.81286 0.0
N218 N 0.96643 0.74866 0.79774 0.0
C219 C 0.99193 0.75224 0.78088 0.0
C220 C 0.0057 0.78585 0.78584 0.0
C221 C 0.99198 0.78357 0.79417 0.0
C222 C 0.95198 0.71584 0.79293 0.0
C223 C 0.96484 0.71681 0.78455 0.0
H224 H 0.99992 0.81033 0.79743 0.0
H225 H 0.92857 0.68905 0.79541 0.0
H226 H 0.92494 0.8098 0.81307 0.0
H227 H 0.8663 0.78892 0.78956 0.0
H228 H 0.98797 0.69258 0.83124 0.0
H229 H 0.02508 0.81406 0.78314 0.0
H230 H 0.95271 0.69021 0.78089 0.0
C231 C 0.26337 0.13211 0.7965 0.0
C232 C 0.24273 0.09227 0.79679 0.0
N233 N 0.21685 0.08138 0.80325 0.0
N234 N 0.25036 0.14614 0.80271 0.0
C235 C 0.22237 0.11467 0.80675 0.0
H236 H 0.28619 0.14972 0.79202 0.0
Co237 Co 0.26736 0.1973 0.80543 0.0
C238 C 0.20037 0.19061 0.81509 0.0
O239 O 0.22252 0.2114 0.82147 0.0
N240 N 0.28439 0.24906 0.80816 0.0
C241 C 0.2878 0.30631 0.80869 0.0
C242 C 0.2657 0.26841 0.80621 0.0
C243 C 0.31809 0.276 0.8117 0.0
N244 N 0.32082 0.31113 0.81213 0.0
O245 O 0.27816 0.18695 0.81675 0.0
H246 H 0.23799 0.2559 0.80301 0.0
H247 H 0.34026 0.27007 0.8139 0.0
O248 O 0.21518 0.18334 0.80863 0.0
C249 C 0.31055 0.18803 0.81717 0.0
O250 O 0.33421 0.20211 0.81059 0.0
N251 N 0.25871 0.20657 0.79416 0.0
C252 C 0.2528 0.22095 0.77692 0.0
C253 C 0.21971 0.19606 0.78167 0.0
C254 C 0.22331 0.18892 0.79029 0.0
C255 C 0.29119 0.23063 0.78964 0.0
C256 C 0.2889 0.23837 0.78101 0.0
H257 H 0.19774 0.16847 0.79375 0.0
H258 H 0.31909 0.24363 0.79277 0.0
H259 H 0.2068 0.11628 0.81226 0.0
H260 H 0.24617 0.07296 0.79248 0.0
H261 H 0.28053 0.3288 0.8078 0.0
H262 H 0.19143 0.18133 0.7787 0.0
H263 H 0.31512 0.25782 0.77757 0.0
C264 C 0.88101 0.14014 0.79897 0.0
C265 C 0.92081 0.15825 0.79948 0.0
N266 N 0.93014 0.13773 0.80484 0.0
N267 N 0.86553 0.10845 0.804 0.0
C268 C 0.89615 0.10801 0.80754 0.0
H269 H 0.86439 0.14933 0.79518 0.0
Co270 Co 0.81339 0.0737 0.80598 0.0
C271 C 0.81866 0.01046 0.81505 0.0
O272 O 0.79624 0.00841 0.82144 0.0
N273 N 0.76081 0.03863 0.80802 0.0
C274 C 0.70284 0.98555 0.80762 0.0
C275 C 0.74131 1.00109 0.80563 0.0
C276 C 0.7335 0.04522 0.81144 0.0
N277 N 0.69789 0.01335 0.81127 0.0
O278 O 0.8207 0.09218 0.81748 0.0
H279 H 0.75417 0.98611 0.80247 0.0
H280 H 0.73934 0.07311 0.81377 0.0
O281 O 0.82612 0.0346 0.80901 0.0
C282 C 0.82006 0.12373 0.81789 0.0
O283 O 0.80803 0.13437 0.81113 0.0
N284 N 0.80734 0.05816 0.7945 0.0
C285 C 0.79791 0.0386 0.77717 0.0
C286 C 0.82441 0.03395 0.78219 0.0
C287 C 0.82892 0.04419 0.79083 0.0
C288 C 0.78201 0.0637 0.7897 0.0
C289 C 0.77654 0.05373 0.78102 0.0
H290 H 0.85031 0.04149 0.7945 0.0
H291 H 0.76602 0.07598 0.79264 0.0
H292 H 0.89368 0.0866 0.81214 0.0
H293 H 0.94124 0.184 0.79603 0.0
H294 H 0.6803 0.95599 0.8065 0.0
H295 H 0.84147 0.02233 0.77949 0.0
H296 H 0.75631 0.05848 0.77733 0.0
C297 C 0.75526 0.85209 0.69596 0.0
C298 C 0.77818 0.83534 0.69599 0.0
N299 N 0.8042 0.85114 0.68958 0.0
N300 N 0.76718 0.87862 0.68964 0.0
C301 C 0.79666 0.87703 0.68581 0.0
H302 H 0.73195 0.84599 0.70037 0.0
Co303 Co 0.74822 0.91138 0.68702 0.0
C304 C 0.81271 0.97279 0.677 0.0
O305 O 0.78936 0.9706 0.67082 0.0
N306 N 0.72922 0.94466 0.68444 0.0
C307 C 0.7229 0.9969 0.68452 0.0
C308 C 0.7467 0.98252 0.68656 0.0
C309 C 0.69475 0.93668 0.68112 0.0
N310 N 0.69017 0.96805 0.68112 0.0
O311 O 0.73634 0.8895 0.67577 0.0
H312 H 0.77469 0.9985 0.68961 0.0
H313 H 0.67288 0.90821 0.67902 0.0
O314 O 0.79935 0.95062 0.68349 0.0
C315 C 0.70493 0.85712 0.67586 0.0
O316 O 0.68378 0.8474 0.68287 0.0
N317 N 0.75797 0.9301 0.69825 0.0
C318 C 0.76617 0.9541 0.71526 0.0
C319 C 0.79861 0.96124 0.71037 0.0
C320 C 0.79387 0.94875 0.70187 0.0
C321 C 0.72604 0.92209 0.70294 0.0
C322 C 0.72949 0.9341 0.71145 0.0
H323 H 0.81904 0.95369 0.69827 0.0
H324 H 0.69771 0.90626 0.70003 0.0
H325 H 0.81314 0.89544 0.68051 0.0
H326 H 0.77608 0.8135 0.70042 0.0
H327 H 0.7292 0.02634 0.68547 0.0
H328 H 0.82745 0.97656 0.71306 0.0
H329 H 0.70362 0.92721 0.71505 0.0
C330 C 0.15674 0.88199 0.69741 0.0
C331 C 0.17383 0.92169 0.69688 0.0
N332 N 0.15786 0.93036 0.69024 0.0
N333 N 0.12977 0.8658 0.69121 0.0
C334 C 0.1315 0.89597 0.6869 0.0
H335 H 0.16292 0.86594 0.70212 0.0
Co336 Co 0.09593 0.81348 0.68915 0.0
C337 C 0.03415 0.81782 0.67965 0.0
O338 O 0.03729 0.79871 0.67313 0.0
N339 N 0.06127 0.76079 0.68704 0.0
C340 C 0.00709 0.70372 0.68717 0.0
C341 C 0.02367 0.74197 0.68939 0.0
C342 C 0.06696 0.73309 0.68349 0.0
N343 N 0.03428 0.69804 0.68345 0.0
O344 O 0.11474 0.82136 0.67766 0.0
H345 H 0.00926 0.75516 0.69265 0.0
H346 H 0.09441 0.73847 0.68094 0.0
O347 O 0.05608 0.82535 0.68615 0.0
C348 C 0.14597 0.82011 0.67732 0.0
O349 O 0.15628 0.80821 0.68416 0.0
N350 N 0.08044 0.80635 0.70063 0.0
C351 C 0.06194 0.79328 0.718 0.0
C352 C 0.05409 0.81852 0.71328 0.0
C353 C 0.06385 0.82491 0.7046 0.0
C354 C 0.08904 0.7824 0.70513 0.0
C355 C 0.07978 0.77521 0.71381 0.0
H356 H 0.05881 0.84535 0.70113 0.0
H357 H 0.10311 0.76871 0.70193 0.0
H358 H 0.11285 0.89275 0.68155 0.0
H359 H 0.19604 0.94253 0.70108 0.0
H360 H 0.97743 0.68161 0.68838 0.0
H361 H 0.04126 0.83383 0.71631 0.0
H362 H 0.08624 0.7554 0.71718 0.0
C363 C 0.12582 0.25188 0.69264 0.0
C364 C 0.08624 0.22791 0.69235 0.0
N365 N 0.07835 0.19837 0.68698 0.0
N366 N 0.14261 0.23742 0.68749 0.0
C367 C 0.11298 0.20501 0.6841 0.0
H368 H 0.1414 0.27826 0.69632 0.0
Co369 Co 0.1949 0.259 0.68501 0.0
C370 C 0.19539 0.19269 0.67615 0.0
O371 O 0.21495 0.21363 0.66952 0.0
N372 N 0.24776 0.28079 0.68248 0.0
C373 C 0.30834 0.29235 0.68257 0.0
C374 C 0.27099 0.26723 0.6851 0.0
C375 C 0.27168 0.31412 0.67832 0.0
N376 N 0.3087 0.32183 0.67831 0.0
O377 O 0.18393 0.26755 0.67356 0.0
H378 H 0.26144 0.24097 0.68876 0.0
H379 H 0.26251 0.33301 0.67555 0.0
O380 O 0.1866 0.20813 0.68225 0.0
C381 C 0.18303 0.29903 0.67352 0.0
O382 O 0.19442 0.3206 0.68047 0.0
N383 N 0.20457 0.25287 0.69645 0.0
C384 C 0.21913 0.24948 0.71379 0.0
C385 C 0.19533 0.2156 0.70917 0.0
C386 C 0.18804 0.21794 0.70051 0.0
C387 C 0.22718 0.28619 0.70085 0.0
C388 C 0.23503 0.28517 0.70954 0.0
H389 H 0.16835 0.19177 0.69716 0.0
H390 H 0.23911 0.31372 0.69759 0.0
H391 H 0.1166 0.18705 0.67942 0.0
H392 H 0.065 0.23168 0.69587 0.0
H393 H 0.33327 0.28906 0.68373 0.0
H394 H 0.18161 0.18757 0.71227 0.0
H395 H 0.25349 0.312 0.71288 0.0
C396 C 0.79782 0.59912 0.53076 0.0
C397 C 0.81552 0.57695 0.53052 0.0
N398 N 0.79699 0.54862 0.52468 0.0
N399 N 0.76838 0.58469 0.52511 0.0
C400 C 0.76887 0.55425 0.52147 0.0
H401 H 0.80597 0.6242 0.53476 0.0
Co402 Co 0.73546 0.6032 0.52215 0.0
C403 C 0.67444 0.53609 0.51272 0.0
O404 O 0.67712 0.55771 0.50611 0.0
N405 N 0.70192 0.62146 0.51909 0.0
C406 C 0.6494 0.62728 0.51872 0.0
C407 C 0.66378 0.60368 0.52095 0.0
C408 C 0.71002 0.65591 0.51571 0.0
N409 N 0.67852 0.66019 0.51545 0.0
O410 O 0.75675 0.61224 0.51086 0.0
H411 H 0.64766 0.57581 0.52406 0.0
H412 H 0.73871 0.67813 0.51383 0.0
O413 O 0.69598 0.55122 0.51925 0.0
C414 C 0.78812 0.64455 0.51036 0.0
O415 O 0.798 0.66853 0.51688 0.0
N416 N 0.71706 0.59628 0.53342 0.0
C417 C 0.68597 0.59019 0.54979 0.0
C418 C 0.68526 0.55813 0.54584 0.0
C419 C 0.70075 0.56171 0.53763 0.0
C420 C 0.72055 0.62833 0.53736 0.0
C421 C 0.70442 0.62578 0.54543 0.0
H422 H 0.69956 0.5367 0.53464 0.0
H423 H 0.73461 0.65583 0.53405 0.0
H424 H 0.74956 0.53703 0.51637 0.0
H425 H 0.83977 0.58109 0.53439 0.0
H426 H 0.61984 0.62084 0.51952 0.0
H427 H 0.67288 0.53038 0.54902 0.0
H428 H 0.7057 0.65143 0.54808 0.0
C429 C 0.4035 0.21803 0.52878 0.0
C430 C 0.42566 0.2578 0.52832 0.0
N431 N 0.45569 0.26684 0.52302 0.0
N432 N 0.41958 0.2023 0.52379 0.0
C433 C 0.45111 0.23273 0.52032 0.0
H434 H 0.37733 0.20159 0.53248 0.0
Co435 Co 0.40076 0.1501 0.52174 0.0
C436 C 0.46491 0.15139 0.51178 0.0
O437 O 0.44143 0.12844 0.50581 0.0
N438 N 0.38166 0.09723 0.51967 0.0
C439 C 0.37538 0.03867 0.52008 0.0
C440 C 0.39901 0.07705 0.52203 0.0
C441 C 0.34743 0.0704 0.5163 0.0
N442 N 0.34287 0.03447 0.51648 0.0
O443 O 0.38792 0.15784 0.5104 0.0
H444 H 0.42695 0.0894 0.52512 0.0
H445 H 0.32577 0.07679 0.51396 0.0
O446 O 0.45158 0.16132 0.51809 0.0
C447 C 0.35577 0.1573 0.51011 0.0
O448 O 0.33319 0.14508 0.51689 0.0
N449 N 0.41199 0.1438 0.53305 0.0
C450 C 0.42409 0.13221 0.55013 0.0
C451 C 0.45511 0.15772 0.54492 0.0
C452 C 0.44842 0.16335 0.53641 0.0
C453 C 0.38131 0.11978 0.53806 0.0
C454 C 0.38674 0.11327 0.54661 0.0
H455 H 0.47255 0.18372 0.53256 0.0
H456 H 0.35247 0.10545 0.53538 0.0
H457 H 0.47004 0.23007 0.51576 0.0
H458 H 0.42046 0.2784 0.53172 0.0
H459 H 0.38177 0.01569 0.52118 0.0
H460 H 0.4844 0.17296 0.54736 0.0
H461 H 0.36188 0.09398 0.55046 0.0
C462 C 0.78418 0.20362 0.52801 0.0
C463 C 0.74447 0.18564 0.52734 0.0
N464 N 0.73565 0.2061 0.52183 0.0
N465 N 0.80017 0.23521 0.52295 0.0
C466 C 0.76993 0.23579 0.51924 0.0
H467 H 0.80041 0.19431 0.53191 0.0
Co468 Co 0.85254 0.26899 0.52111 0.0
C469 C 0.8521 0.33418 0.51192 0.0
O470 O 0.87609 0.33564 0.50597 0.0
N471 N 0.90559 0.3032 0.51925 0.0
C472 C 0.96405 0.35552 0.51998 0.0
C473 C 0.9256 0.34032 0.52192 0.0
C474 C 0.93264 0.29651 0.51571 0.0
N475 N 0.96853 0.32793 0.51608 0.0
O476 O 0.84558 0.24998 0.50963 0.0
H477 H 0.91306 0.35531 0.52521 0.0
H478 H 0.92638 0.26886 0.51312 0.0
O479 O 0.84131 0.30905 0.51787 0.0
C480 C 0.84601 0.21828 0.50945 0.0
O481 O 0.85777 0.20821 0.51635 0.0
N482 N 0.85816 0.28467 0.53255 0.0
C483 C 0.86847 0.30452 0.54986 0.0
C484 C 0.84348 0.31135 0.54479 0.0
C485 C 0.8385 0.30096 0.53615 0.0
C486 C 0.88171 0.2768 0.53741 0.0
C487 C 0.88758 0.28682 0.54608 0.0
H488 H 0.81847 0.30562 0.5324 0.0
H489 H 0.89608 0.26273 0.53452 0.0
H490 H 0.77295 0.25716 0.51457 0.0
H491 H 0.72374 0.15992 0.53075 0.0
H492 H 0.98687 0.38476 0.52129 0.0
H493 H 0.82811 0.32488 0.54746 0.0
H494 H 0.90645 0.28025 0.5498 0.0
C495 C 0.93837 0.48033 0.63612 0.0
C496 C 0.91828 0.49969 0.63731 0.0
N497 N 0.88738 0.47797 0.64236 0.0
N498 N 0.92026 0.44652 0.64037 0.0
C499 C 0.88952 0.44595 0.64414 0.0
H500 H 0.96473 0.49038 0.63247 0.0
Co501 Co 0.9372 0.41102 0.64127 0.0
C502 C 0.87394 0.34677 0.65093 0.0
O503 O 0.89841 0.34662 0.65654 0.0
N504 N 0.95439 0.37505 0.64216 0.0
C505 C 0.95634 0.32058 0.64082 0.0
C506 C 0.93478 0.33807 0.63937 0.0
C507 C 0.98814 0.37951 0.64516 0.0
N508 N 0.98995 0.34668 0.64445 0.0
O509 O 0.95238 0.42829 0.65278 0.0
H510 H 0.90656 0.32467 0.63638 0.0
H511 H 0.01086 0.40611 0.64789 0.0
O512 O 0.8862 0.37149 0.64488 0.0
C513 C 0.98536 0.45906 0.65286 0.0
O514 O 0.00596 0.46894 0.64577 0.0
N515 N 0.92434 0.39722 0.62982 0.0
C516 C 0.91127 0.37942 0.61244 0.0
C517 C 0.88057 0.3723 0.61794 0.0
C518 C 0.88776 0.38172 0.62662 0.0
C519 C 0.95469 0.40545 0.62454 0.0
C520 C 0.94878 0.3965 0.61583 0.0
H521 H 0.86396 0.37692 0.63072 0.0
H522 H 0.98363 0.41868 0.62716 0.0
H523 H 0.86897 0.42234 0.64809 0.0
H524 H 0.92625 0.52781 0.6347 0.0
H525 H 0.94818 0.29111 0.63919 0.0
H526 H 0.85132 0.36007 0.61554 0.0
H527 H 0.97331 0.40239 0.61183 0.0
C528 C 0.53457 0.43929 0.63381 0.0
C529 C 0.51887 0.40032 0.63516 0.0
N530 N 0.54665 0.39414 0.63833 0.0
N531 N 0.57234 0.45801 0.63604 0.0
C532 C 0.57872 0.42945 0.63873 0.0
H533 H 0.51903 0.45306 0.63143 0.0
Co534 Co 0.60551 0.5124 0.63665 0.0
C535 C 0.66187 0.50693 0.64294 0.0
O536 O 0.66575 0.50855 0.63456 0.0
N537 N 0.63805 0.56601 0.63758 0.0
C538 C 0.68607 0.62576 0.63508 0.0
C539 C 0.66983 0.58747 0.63276 0.0
C540 C 0.63551 0.59175 0.64278 0.0
N541 N 0.6642 0.62835 0.64133 0.0
O542 O 0.56698 0.51221 0.64446 0.0
H543 H 0.68006 0.57607 0.62776 0.0
H544 H 0.61286 0.584 0.64748 0.0
O545 O 0.63218 0.50618 0.64619 0.0
C546 C 0.53472 0.5116 0.64397 0.0
O547 O 0.5226 0.51725 0.63659 0.0
N548 N 0.58423 0.51985 0.62641 0.0
C549 C 0.58152 0.54113 0.60948 0.0
C550 C 0.58247 0.50741 0.61128 0.0
C551 C 0.58505 0.49801 0.61974 0.0
C552 C 0.58121 0.55194 0.62473 0.0
C553 C 0.58003 0.5632 0.61628 0.0
H554 H 0.59126 0.47498 0.62087 0.0
H555 H 0.58292 0.5709 0.62986 0.0
H556 H 0.60587 0.43441 0.64128 0.0
H557 H 0.48919 0.37836 0.63394 0.0
H558 H 0.71125 0.64994 0.63221 0.0
H559 H 0.58527 0.49061 0.60616 0.0
H560 H 0.58051 0.59015 0.61508 0.0
C561 C 0.56472 0.0693 0.63179 0.0
C562 C 0.60438 0.09255 0.63248 0.0
N563 N 0.61189 0.11906 0.63865 0.0
N564 N 0.54757 0.08128 0.63749 0.0
C565 C 0.57704 0.11116 0.64164 0.0
H566 H 0.54937 0.04578 0.62731 0.0
Co567 Co 0.49519 0.06278 0.63941 0.0
C568 C 0.49984 0.12771 0.64964 0.0
O569 O 0.47886 0.10486 0.65591 0.0
N570 N 0.44247 0.04484 0.64141 0.0
C571 C 0.38575 0.04269 0.64152 0.0
C572 C 0.42399 0.06419 0.63926 0.0
C573 C 0.41462 0.01134 0.64489 0.0
N574 N 0.37981 0.00942 0.64506 0.0
O575 O 0.50194 0.04924 0.65072 0.0
H576 H 0.43748 0.09221 0.63619 0.0
H577 H 0.41975 0.98899 0.64734 0.0
O578 O 0.50721 0.11367 0.64305 0.0
C579 C 0.49972 0.0163 0.65095 0.0
O580 O 0.48734 0.99432 0.64408 0.0
N581 N 0.48943 0.07431 0.62809 0.0
C582 C 0.47638 0.08634 0.61112 0.0
C583 C 0.50272 0.11732 0.61623 0.0
C584 C 0.50909 0.11065 0.62469 0.0
C585 C 0.46487 0.04363 0.62315 0.0
C586 C 0.45767 0.04902 0.61465 0.0
H587 H 0.53003 0.13467 0.62847 0.0
H588 H 0.4503 0.01487 0.62588 0.0
H589 H 0.5731 0.12697 0.6468 0.0
H590 H 0.62588 0.09089 0.62856 0.0
H591 H 0.3639 0.05075 0.64051 0.0
H592 H 0.5186 0.14643 0.61368 0.0
H593 H 0.4371 0.02428 0.61095 0.0
C594 C 0.53664 0.07664 0.13143 0.0
C595 C 0.518 0.09784 0.13159 0.0
N596 N 0.53279 0.12355 0.13807 0.0
N597 N 0.56336 0.08937 0.13771 0.0
C598 C 0.55998 0.11755 0.1417 0.0
H599 H 0.53162 0.05397 0.12693 0.0
Co600 Co 0.59828 0.07287 0.14025 0.0
C601 C 0.65702 0.14065 0.15012 0.0
O602 O 0.65462 0.11927 0.15675 0.0
N603 N 0.63369 0.05647 0.14282 0.0
C604 C 0.68835 0.05462 0.14339 0.0
C605 C 0.67198 0.07646 0.14113 0.0
C606 C 0.62738 0.02226 0.14599 0.0
N607 N 0.66029 0.02046 0.14644 0.0
O608 O 0.57733 0.061 0.15156 0.0
H609 H 0.68698 0.10487 0.13823 0.0
H610 H 0.59922 0.99908 0.1479 0.0
O611 O 0.63604 0.12502 0.14354 0.0
C612 C 0.54609 0.02849 0.15179 0.0
O613 O 0.53688 0.00591 0.14503 0.0
N614 N 0.61625 0.08268 0.12894 0.0
C615 C 0.63746 0.09177 0.1117 0.0
C616 C 0.64241 0.12342 0.1166 0.0
C617 C 0.63129 0.1182 0.12519 0.0
C618 C 0.61083 0.05147 0.12429 0.0
C619 C 0.62151 0.05541 0.11566 0.0
H620 H 0.63385 0.14254 0.12874 0.0
H621 H 0.59773 0.02327 0.12729 0.0
H622 H 0.57797 0.1342 0.14703 0.0
H623 H 0.49552 0.09474 0.12723 0.0
H624 H 0.71844 0.06288 0.14261 0.0
H625 H 0.65465 0.15202 0.11382 0.0
H626 H 0.61641 0.03003 0.11208 0.0
C627 C 0.92741 0.45589 0.13172 0.0
C628 C 0.90539 0.41614 0.13206 0.0
N629 N 0.87955 0.40647 0.13849 0.0
N630 N 0.91508 0.47107 0.13783 0.0
C631 C 0.88627 0.44031 0.14191 0.0
H632 H 0.95044 0.4727 0.12723 0.0
Co633 Co 0.93327 0.52304 0.14 0.0
C634 C 0.86856 0.52065 0.14983 0.0
O635 O 0.89189 0.54326 0.15586 0.0
N636 N 0.95169 0.57565 0.14216 0.0
C637 C 0.95758 0.63404 0.14182 0.0
C638 C 0.93415 0.59568 0.13982 0.0
C639 C 0.98581 0.60254 0.14557 0.0
N640 N 0.99012 0.63836 0.14542 0.0
O641 O 0.94568 0.51509 0.15134 0.0
H642 H 0.90628 0.58324 0.1367 0.0
H643 H 0.00761 0.59629 0.14787 0.0
O644 O 0.88204 0.51093 0.1435 0.0
C645 C 0.97803 0.51608 0.15166 0.0
O646 O 1.00051 0.52815 0.14486 0.0
N647 N 0.92264 0.5298 0.12867 0.0
C648 C 0.91226 0.54081 0.11146 0.0
C649 C 0.88071 0.51548 0.11656 0.0
C650 C 0.88653 0.51018 0.12516 0.0
C651 C 0.95377 0.55392 0.12379 0.0
C652 C 0.94919 0.56014 0.11517 0.0
H653 H 0.86207 0.48976 0.12892 0.0
H654 H 0.98234 0.56831 0.12661 0.0
H655 H 0.86975 0.44268 0.14714 0.0
H656 H 0.90803 0.39595 0.12788 0.0
H657 H 0.95106 0.65695 0.14073 0.0
H658 H 0.85172 0.49997 0.11395 0.0
H659 H 0.97443 0.57932 0.11141 0.0
C660 C 0.5511 0.47459 0.13357 0.0
C661 C 0.59086 0.4923 0.13412 0.0
N662 N 0.59973 0.47144 0.1395 0.0
N663 N 0.53518 0.4428 0.13856 0.0
C664 C 0.56548 0.44189 0.14214 0.0
H665 H 0.53481 0.48417 0.12977 0.0
Co666 Co 0.48305 0.40858 0.14057 0.0
C667 C 0.48778 0.34557 0.14967 0.0
O668 O 0.46873 0.34755 0.15635 0.0
N669 N 0.43038 0.3738 0.14264 0.0
C670 C 0.37294 0.32001 0.14249 0.0
C671 C 0.41128 0.33612 0.14035 0.0
C672 C 0.40281 0.38003 0.14605 0.0
N673 N 0.36756 0.34765 0.14607 0.0
O674 O 0.49107 0.42665 0.15213 0.0
H675 H 0.42428 0.32137 0.13716 0.0
H676 H 0.40837 0.40769 0.14849 0.0
O677 O 0.49483 0.36832 0.14334 0.0
C678 C 0.48957 0.45771 0.15274 0.0
O679 O 0.4765 0.46827 0.14615 0.0
N680 N 0.47628 0.39387 0.12903 0.0
C681 C 0.46566 0.37637 0.11159 0.0
C682 C 0.492 0.37047 0.11638 0.0
C683 C 0.49713 0.37972 0.12509 0.0
C684 C 0.45114 0.40058 0.12447 0.0
C685 C 0.4451 0.39169 0.11575 0.0
H686 H 0.51845 0.37624 0.12859 0.0
H687 H 0.43583 0.41308 0.12763 0.0
H688 H 0.56255 0.42031 0.14674 0.0
H689 H 0.61156 0.51805 0.13072 0.0
H690 H 0.35057 0.29044 0.1413 0.0
H691 H 0.50851 0.35873 0.11344 0.0
H692 H 0.42511 0.39749 0.11226 0.0
C693 C 0.41298 0.2041 0.02899 0.0
C694 C 0.435 0.18635 0.02885 0.0
N695 N 0.46086 0.20184 0.0224 0.0
N696 N 0.42528 0.23095 0.02274 0.0
C697 C 0.4541 0.22857 0.01877 0.0
H698 H 0.38997 0.19835 0.03346 0.0
Co699 Co 0.40708 0.26461 0.02032 0.0
C700 C 0.47189 0.32568 0.01023 0.0
O701 O 0.44863 0.32471 0.00416 0.0
N702 N 0.38875 0.29872 0.01792 0.0
C703 C 0.38358 0.35165 0.01796 0.0
C704 C 0.40676 0.33657 0.02005 0.0
C705 C 0.35456 0.29146 0.01454 0.0
N706 N 0.35067 0.32325 0.01451 0.0
O707 O 0.39411 0.24289 0.00909 0.0
H708 H 0.4348 0.35214 0.02309 0.0
H709 H 0.33246 0.26321 0.01239 0.0
O710 O 0.45827 0.30314 0.01666 0.0
C711 C 0.36204 0.21113 0.00908 0.0
O712 O 0.3405 0.20173 0.01602 0.0
N713 N 0.41807 0.28324 0.03157 0.0
C714 C 0.42842 0.3053 0.04875 0.0
C715 C 0.46008 0.31202 0.04362 0.0
C716 C 0.45427 0.3005 0.03505 0.0
C717 C 0.38689 0.27602 0.03646 0.0
C718 C 0.39143 0.28708 0.04506 0.0
H719 H 0.47881 0.30479 0.03129 0.0
H720 H 0.35827 0.26127 0.03366 0.0
H721 H 0.47061 0.2469 0.01347 0.0
H722 H 0.4323 0.16395 0.03318 0.0
H723 H 0.39054 0.38131 0.01887 0.0
H724 H 0.48914 0.32602 0.0462 0.0
H725 H 0.3661 0.28061 0.04882 0.0
C726 C 0.81078 0.21956 0.0274 0.0
C727 C 0.82856 0.25932 0.02682 0.0
N728 N 0.80831 0.2682 0.02126 0.0
N729 N 0.77953 0.20366 0.02225 0.0
C730 C 0.77901 0.23395 0.01855 0.0
H731 H 0.81995 0.20326 0.03132 0.0
Co732 Co 0.74558 0.15156 0.02019 0.0
C733 C 0.68255 0.1561 0.01105 0.0
O734 O 0.68441 0.13682 0.00441 0.0
N735 N 0.71111 0.09891 0.01808 0.0
C736 C 0.6583 0.04077 0.01862 0.0
C737 C 0.67357 0.07931 0.02048 0.0
C738 C 0.71797 0.07157 0.01479 0.0
N739 N 0.68627 0.03587 0.01506 0.0
O740 O 0.76384 0.15982 0.00864 0.0
H741 H 0.65844 0.0921 0.02359 0.0
H742 H 0.74594 0.0774 0.01252 0.0
O743 O 0.70529 0.16324 0.01738 0.0
C744 C 0.79498 0.15848 0.00804 0.0
O745 O 0.80579 0.14587 0.01467 0.0
N746 N 0.73062 0.14442 0.0317 0.0
C747 C 0.71072 0.13116 0.04899 0.0
C748 C 0.70451 0.15747 0.04427 0.0
C749 C 0.71504 0.16399 0.03564 0.0
C750 C 0.73803 0.11968 0.03623 0.0
C751 C 0.72808 0.11241 0.04489 0.0
H752 H 0.71126 0.18526 0.03219 0.0
H753 H 0.75149 0.10528 0.03307 0.0
H754 H 0.75793 0.23098 0.01382 0.0
H755 H 0.85396 0.28001 0.03032 0.0
H756 H 0.62884 0.01812 0.0198 0.0
H757 H 0.69225 0.1734 0.04726 0.0
H758 H 0.73346 0.09196 0.0483 0.0
C759 C 0.78817 0.59572 0.02725 0.0
C760 C 0.74853 0.57326 0.02652 0.0
N761 N 0.74051 0.54434 0.02096 0.0
N762 N 0.8049 0.58094 0.02218 0.0
C763 C 0.77518 0.54988 0.01839 0.0
H764 H 0.80383 0.62119 0.03121 0.0
Co765 Co 0.85751 0.60067 0.02041 0.0
C766 C 0.85866 0.53729 0.01072 0.0
O767 O 0.88214 0.56109 0.00485 0.0
N768 N 0.9107 0.62055 0.01863 0.0
C769 C 0.96956 0.62768 0.01928 0.0
C770 C 0.93125 0.60401 0.0213 0.0
C771 C 0.93725 0.65431 0.01502 0.0
N772 N 0.97334 0.65937 0.01533 0.0
O773 O 0.85082 0.61355 0.00901 0.0
H774 H 0.91914 0.5765 0.02457 0.0
H775 H 0.93048 0.67522 0.01236 0.0
O776 O 0.84747 0.55017 0.01689 0.0
C777 C 0.85085 0.64547 0.00897 0.0
O778 O 0.86166 0.66652 0.016 0.0
N779 N 0.86291 0.58983 0.03179 0.0
C780 C 0.87315 0.57946 0.04905 0.0
C781 C 0.84909 0.54772 0.04385 0.0
C782 C 0.8441 0.55353 0.03524 0.0
C783 C 0.88554 0.62113 0.03678 0.0
C784 C 0.89134 0.6166 0.04542 0.0
H785 H 0.82465 0.52891 0.03139 0.0
H786 H 0.8994 0.64978 0.03399 0.0
H787 H 0.7788 0.532 0.01369 0.0
H788 H 0.72731 0.57751 0.02992 0.0
H789 H 0.99274 0.62175 0.02054 0.0
H790 H 0.83368 0.51868 0.04645 0.0
H791 H 0.91024 0.6419 0.04919 0.0
C792 C 0.47113 0.92706 0.85957 0.0
C793 C 0.48853 0.90471 0.8592 0.0
N794 N 0.46775 0.87479 0.85386 0.0
N795 N 0.43963 0.9112 0.85449 0.0
C796 C 0.43852 0.87963 0.85106 0.0
H797 H 0.48078 0.9532 0.86328 0.0
Co798 Co 0.40655 0.93018 0.85228 0.0
C799 C 0.34272 0.86461 0.84284 0.0
O800 O 0.34328 0.88722 0.83666 0.0
N801 N 0.37303 0.94943 0.85005 0.0
C802 C 0.32101 0.95613 0.85045 0.0
C803 C 0.33564 0.93253 0.85252 0.0
C804 C 0.38046 0.9834 0.84651 0.0
N805 N 0.34924 0.98821 0.84668 0.0
O806 O 0.42637 0.94099 0.84084 0.0
H807 H 0.3201 0.90498 0.85578 0.0
H808 H 0.40848 0.00475 0.84408 0.0
O809 O 0.36631 0.87881 0.84908 0.0
C810 C 0.45806 0.97305 0.8404 0.0
O811 O 0.46854 0.99642 0.84704 0.0
N812 N 0.3901 0.92128 0.86369 0.0
C813 C 0.37067 0.91403 0.88101 0.0
C814 C 0.36164 0.88126 0.87605 0.0
C815 C 0.37197 0.88553 0.8674 0.0
C816 C 0.39972 0.95352 0.86842 0.0
C817 C 0.39013 0.95056 0.87711 0.0
H818 H 0.36602 0.86011 0.86378 0.0
H819 H 0.41498 0.9817 0.86542 0.0
H820 H 0.41716 0.8609 0.84643 0.0
H821 H 0.51407 0.90974 0.86268 0.0
H822 H 0.29177 0.95004 0.85161 0.0
H823 H 0.3475 0.85264 0.87888 0.0
H824 H 0.39763 0.97657 0.88071 0.0
C825 C 0.07512 0.54305 0.85845 0.0
C826 C 0.09638 0.58285 0.85789 0.0
N827 N 0.12716 0.59251 0.85278 0.0
N828 N 0.09249 0.52782 0.85373 0.0
C829 C 0.12389 0.55862 0.85031 0.0
H830 H 0.04873 0.52624 0.86206 0.0
Co831 Co 0.07543 0.47567 0.85194 0.0
C832 C 0.14292 0.48097 0.84273 0.0
O833 O 0.12164 0.4606 0.83621 0.0
N834 N 0.05831 0.42301 0.85015 0.0
C835 C 0.05527 0.36585 0.85051 0.0
C836 C 0.07759 0.40454 0.85237 0.0
C837 C 0.02405 0.39475 0.84709 0.0
N838 N 0.02153 0.35969 0.84721 0.0
O839 O 0.06477 0.48218 0.84034 0.0
H840 H 0.10585 0.41821 0.85533 0.0
H841 H 1.00129 0.3996 0.84482 0.0
O842 O 0.12733 0.48821 0.84905 0.0
C843 C 0.03142 0.47863 0.83958 0.0
O844 O 0.00806 0.46623 0.84623 0.0
N845 N 0.08406 0.47013 0.86349 0.0
C846 C 0.09147 0.45875 0.88085 0.0
C847 C 0.12389 0.48403 0.87597 0.0
C848 C 0.11951 0.4897 0.86731 0.0
C849 C 0.05205 0.44625 0.86817 0.0
C850 C 0.05509 0.44002 0.87688 0.0
H851 H 0.14454 0.51021 0.86373 0.0
H852 H 0.02401 0.43179 0.8651 0.0
H853 H 0.14368 0.55631 0.84594 0.0
H854 H 0.09002 0.60306 0.8611 0.0
H855 H 0.06292 0.34381 0.85171 0.0
H856 H 0.15231 0.49982 0.87886 0.0
H857 H 0.02934 0.42035 0.88043 0.0
C858 C 0.45867 0.53475 0.86337 0.0
C859 C 0.41888 0.51531 0.8629 0.0
N860 N 0.40861 0.52944 0.85618 0.0
N861 N 0.47318 0.56132 0.85706 0.0
C862 C 0.44206 0.55708 0.85273 0.0
H863 H 0.47593 0.5303 0.86809 0.0
Co864 Co 0.5246 0.59646 0.85478 0.0
C865 C 0.51915 0.65613 0.8447 0.0
O866 O 0.5416 0.6551 0.83867 0.0
N867 N 0.5765 0.63199 0.8525 0.0
C868 C 0.63374 0.68593 0.85248 0.0
C869 C 0.59556 0.66968 0.85478 0.0
C870 C 0.60371 0.62596 0.84886 0.0
N871 N 0.63884 0.65837 0.84876 0.0
O872 O 0.51706 0.57577 0.84347 0.0
H873 H 0.58254 0.68438 0.85799 0.0
H874 H 0.59814 0.59818 0.8465 0.0
O875 O 0.51043 0.63395 0.85119 0.0
C876 C 0.51799 0.54437 0.84325 0.0
O877 O 0.53004 0.53434 0.8501 0.0
N878 N 0.5312 0.61421 0.86605 0.0
C879 C 0.54276 0.63587 0.88323 0.0
C880 C 0.51799 0.64288 0.87813 0.0
C881 C 0.51226 0.63144 0.86955 0.0
C882 C 0.55492 0.60664 0.87092 0.0
C883 C 0.56126 0.61737 0.87954 0.0
H884 H 0.49202 0.63579 0.86581 0.0
H885 H 0.56894 0.59212 0.86808 0.0
H886 H 0.44386 0.5747 0.84728 0.0
H887 H 0.39908 0.49274 0.86719 0.0
H888 H 0.65593 0.71579 0.85341 0.0
H889 H 0.50248 0.65625 0.8808 0.0
H890 H 0.58063 0.61149 0.88326 0.0
C891 C 0.59611 0.81196 0.9679 0.0
C892 C 0.57385 0.82941 0.96845 0.0
N893 N 0.54349 0.80777 0.97362 0.0
N894 N 0.57976 0.77956 0.9727 0.0
C895 C 0.54801 0.778 0.97615 0.0
H896 H 0.62241 0.82207 0.96422 0.0
Co897 Co 0.59803 0.74551 0.97443 0.0
C898 C 0.53284 0.68149 0.98389 0.0
O899 O 0.55571 0.6813 0.98991 0.0
N900 N 0.61639 0.71093 0.97615 0.0
C901 C 0.62056 0.65748 0.97556 0.0
C902 C 0.59805 0.67351 0.97366 0.0
C903 C 0.65034 0.71709 0.97945 0.0
N904 N 0.65351 0.68492 0.97919 0.0
O905 O 0.61014 0.76405 0.98592 0.0
H906 H 0.57018 0.65887 0.97052 0.0
H907 H 0.67231 0.74453 0.982 0.0
O908 O 0.54679 0.70559 0.97773 0.0
C909 C 0.64274 0.79512 0.98635 0.0
O910 O 0.66555 0.80555 0.97961 0.0
N911 N 0.58788 0.73023 0.963 0.0
C912 C 0.5788 0.71098 0.94568 0.0
C913 C 0.54663 0.70254 0.9508 0.0
C914 C 0.55182 0.71279 0.95945 0.0
C915 C 0.61958 0.73954 0.95809 0.0
C916 C 0.6157 0.73002 0.9494 0.0
H917 H 0.52687 0.70713 0.96323 0.0
H918 H 0.64802 0.75427 0.96098 0.0
H919 H 0.52876 0.75577 0.98057 0.0
H920 H 0.57914 0.85549 0.96517 0.0
H921 H 0.61355 0.6281 0.97419 0.0
H922 H 0.51778 0.68873 0.9481 0.0
H923 H 0.64126 0.73704 0.94567 0.0
C924 C 0.2008 0.79358 0.96365 0.0
C925 C 0.18274 0.75378 0.9638 0.0
N926 N 0.19791 0.74325 0.97027 0.0
N927 N 0.22754 0.80798 0.96992 0.0
C928 C 0.22477 0.77665 0.97391 0.0
H929 H 0.19534 0.81096 0.95916 0.0
Co930 Co 0.26159 0.85967 0.97238 0.0
C931 C 0.32167 0.85474 0.98244 0.0
O932 O 0.31949 0.87592 0.98863 0.0
N933 N 0.2962 0.91193 0.97484 0.0
C934 C 0.35018 0.96914 0.97518 0.0
C935 C 0.33416 0.93109 0.97281 0.0
C936 C 0.28972 0.93918 0.97834 0.0
N937 N 0.32223 0.9743 0.97866 0.0
O938 O 0.24047 0.85066 0.98367 0.0
H939 H 0.34922 0.91829 0.96967 0.0
H940 H 0.26178 0.93345 0.98063 0.0
O941 O 0.29998 0.84652 0.97588 0.0
C942 C 0.20937 0.85211 0.98406 0.0
O943 O 0.19948 0.86525 0.97737 0.0
N944 N 0.27969 0.86762 0.9611 0.0
C945 C 0.30082 0.88029 0.94387 0.0
C946 C 0.30883 0.85594 0.94887 0.0
C947 C 0.29767 0.84965 0.95748 0.0
C948 C 0.27134 0.89108 0.95633 0.0
C949 C 0.28178 0.89795 0.9477 0.0
H950 H 0.30274 0.82966 0.96113 0.0
H951 H 0.25628 0.90435 0.95927 0.0
H952 H 0.24293 0.77833 0.97923 0.0
H953 H 0.16036 0.73414 0.95946 0.0
H954 H 0.37997 0.99147 0.97422 0.0
H955 H 0.32267 0.84106 0.94611 0.0
H956 H 0.27513 0.917 0.94407 0.0
C957 C 0.21718 0.41294 0.96512 0.0
C958 C 0.25689 0.43514 0.96583 0.0
N959 N 0.2652 0.46384 0.97148 0.0
N960 N 0.20076 0.42772 0.9703 0.0
C961 C 0.23069 0.45842 0.97412 0.0
H962 H 0.20128 0.38766 0.96113 0.0
Co963 Co 0.14853 0.40896 0.97232 0.0
C964 C 0.15195 0.47582 0.98158 0.0
O965 O 0.13217 0.45429 0.98813 0.0
N966 N 0.09574 0.39024 0.97439 0.0
C967 C 0.03753 0.38472 0.97392 0.0
C968 C 0.07592 0.40781 0.97191 0.0
C969 C 0.06866 0.3564 0.97788 0.0
N970 N 0.03291 0.3523 0.97767 0.0
O971 O 0.1567 0.3986 0.98384 0.0
H972 H 0.0885 0.43549 0.96869 0.0
H973 H 0.07474 0.33468 0.98032 0.0
O974 O 0.15965 0.46062 0.97525 0.0
C975 C 0.15566 0.36624 0.98438 0.0
O976 O 0.14314 0.34292 0.97772 0.0
N977 N 0.14156 0.41715 0.96081 0.0
C978 C 0.12872 0.42386 0.94351 0.0
C979 C 0.1537 0.45662 0.94833 0.0
C980 C 0.16013 0.45259 0.95696 0.0
C981 C 0.11797 0.38485 0.95619 0.0
C982 C 0.111 0.38755 0.94752 0.0
H983 H 0.18051 0.47787 0.96049 0.0
H984 H 0.10434 0.35684 0.95928 0.0
H985 H 0.22728 0.47605 0.97892 0.0
H986 H 0.27793 0.43083 0.96237 0.0
H987 H 0.01482 0.39144 0.97276 0.0
H988 H 0.16875 0.48503 0.94541 0.0
H989 H 0.09161 0.36154 0.94401 0.0
C990 C 0.19357 0.41533 0.46677 0.0
C991 C 0.17574 0.43727 0.46732 0.0
N992 N 0.19567 0.46621 0.47295 0.0
N993 N 0.22452 0.43053 0.47201 0.0
C994 C 0.22485 0.46123 0.47572 0.0
H995 H 0.18452 0.38989 0.46284 0.0
Co996 Co 0.25789 0.41191 0.47426 0.0
C997 C 0.32117 0.47941 0.48344 0.0
O998 O 0.31922 0.45829 0.49009 0.0
N999 N 0.29173 0.39317 0.47657 0.0
C1000 C 0.34401 0.3869 0.4763 0.0
C1001 C 0.32924 0.41035 0.47419 0.0
C1002 C 0.28438 0.35925 0.48012 0.0
N1003 N 0.31575 0.35469 0.48002 0.0
O1004 O 0.23883 0.40217 0.48576 0.0
H1005 H 0.34473 0.43791 0.47093 0.0
H1006 H 0.25632 0.33772 0.48249 0.0
O1007 O 0.2984 0.46379 0.47711 0.0
C1008 C 0.20733 0.36995 0.48627 0.0
O1009 O 0.19677 0.34649 0.47964 0.0
N1010 N 0.27356 0.4195 0.46278 0.0
C1011 C 0.2936 0.42571 0.44551 0.0
C1012 C 0.30066 0.45851 0.45023 0.0
C1013 C 0.28998 0.45472 0.45884 0.0
C1014 C 0.26552 0.38713 0.45826 0.0
C1015 C 0.27546 0.38958 0.4496 0.0
H1016 H 0.29426 0.47999 0.46228 0.0
H1017 H 0.25142 0.35926 0.46141 0.0
H1018 H 0.24558 0.47911 0.48054 0.0
H1019 H 0.15044 0.43257 0.46379 0.0
H1020 H 0.37334 0.39316 0.4752 0.0
H1021 H 0.31361 0.48676 0.44724 0.0
H1022 H 0.2694 0.36355 0.44617 0.0
C1023 C 0.58935 0.79866 0.46578 0.0
C1024 C 0.56795 0.75883 0.46593 0.0
N1025 N 0.54174 0.74802 0.47231 0.0
N1026 N 0.57629 0.81281 0.47196 0.0
C1027 C 0.54766 0.78131 0.47589 0.0
H1028 H 0.61242 0.81622 0.46135 0.0
Co1029 Co 0.59327 0.86449 0.47436 0.0
C1030 C 0.5273 0.85848 0.48428 0.0
O1031 O 0.55008 0.87988 0.49052 0.0
N1032 N 0.6103 0.91672 0.47676 0.0
C1033 C 0.61288 0.97364 0.47703 0.0
C1034 C 0.5909 0.93536 0.47482 0.0
C1035 C 0.64435 0.94452 0.48003 0.0
N1036 N 0.64658 0.97947 0.48029 0.0
O1037 O 0.60535 0.85597 0.48567 0.0
H1038 H 0.56273 0.92209 0.47182 0.0
H1039 H 0.66713 0.93935 0.48214 0.0
O1040 O 0.54146 0.85069 0.47778 0.0
C1041 C 0.63813 0.85794 0.48608 0.0
O1042 O 0.66132 0.87147 0.47942 0.0
N1043 N 0.58316 0.87202 0.46307 0.0
C1044 C 0.57451 0.88417 0.44583 0.0
C1045 C 0.5424 0.85874 0.45078 0.0
C1046 C 0.54737 0.8528 0.4594 0.0
C1047 C 0.61477 0.89643 0.45834 0.0
C1048 C 0.61109 0.90313 0.44971 0.0
H1049 H 0.52258 0.83207 0.46303 0.0
H1050 H 0.64304 0.91066 0.46131 0.0
H1051 H 0.53068 0.78276 0.48114 0.0
H1052 H 0.57129 0.73937 0.46164 0.0
H1053 H 0.60504 0.99569 0.47608 0.0
H1054 H 0.51382 0.84279 0.44798 0.0
H1055 H 0.63661 0.92307 0.44613 0.0
C1056 C 0.21016 0.81157 0.46791 0.0
C1057 C 0.24985 0.82911 0.46857 0.0
N1058 N 0.25831 0.80801 0.47397 0.0
N1059 N 0.19386 0.77967 0.47287 0.0
C1060 C 0.22389 0.77847 0.47652 0.0
H1061 H 0.19415 0.82135 0.46407 0.0
Co1062 Co 0.14146 0.74601 0.47464 0.0
C1063 C 0.14166 0.68194 0.48426 0.0
O1064 O 0.11805 0.68167 0.49016 0.0
N1065 N 0.0884 0.71191 0.47644 0.0
C1066 C 0.03002 0.65942 0.47582 0.0
C1067 C 0.06841 0.67472 0.4738 0.0
C1068 C 0.06142 0.71853 0.48003 0.0
N1069 N 0.0256 0.68701 0.47974 0.0
O1070 O 0.14807 0.76529 0.48607 0.0
H1071 H 0.08096 0.6597 0.47054 0.0
H1072 H 0.06768 0.74611 0.48265 0.0
O1073 O 0.15235 0.70607 0.4781 0.0
C1074 C 0.1472 0.79672 0.48645 0.0
O1075 O 0.13541 0.80744 0.47966 0.0
N1076 N 0.1363 0.72985 0.46323 0.0
C1077 C 0.12722 0.70923 0.44596 0.0
C1078 C 0.15213 0.70299 0.4512 0.0
C1079 C 0.15647 0.71374 0.45982 0.0
C1080 C 0.11274 0.73709 0.45821 0.0
C1081 C 0.10747 0.72665 0.44956 0.0
H1082 H 0.17646 0.70953 0.46369 0.0
H1083 H 0.09791 0.75099 0.46095 0.0
H1084 H 0.22067 0.75673 0.48111 0.0
H1085 H 0.27081 0.85491 0.46522 0.0
H1086 H 0.00723 0.63009 0.47459 0.0
H1087 H 0.16795 0.68965 0.44869 0.0
H1088 H 0.08859 0.73272 0.4457 0.0
C1089 C 0.07797 0.52737 0.36176 0.0
C1090 C 0.10071 0.5105 0.361 0.0
N1091 N 0.12973 0.53184 0.35549 0.0
N1092 N 0.09271 0.55912 0.35676 0.0
C1093 C 0.12397 0.56088 0.35299 0.0
H1094 H 0.05237 0.51721 0.36569 0.0
Co1095 Co 0.07296 0.59193 0.35504 0.0
C1096 C 0.13647 0.65664 0.34546 0.0
O1097 O 0.11272 0.65577 0.33952 0.0
N1098 N 0.05307 0.62526 0.35328 0.0
C1099 C 0.04601 0.67702 0.35404 0.0
C1100 C 0.06961 0.66228 0.35601 0.0
C1101 C 0.01937 0.61818 0.34967 0.0
N1102 N 0.01436 0.64924 0.35005 0.0
O1103 O 0.06093 0.573 0.34357 0.0
H1104 H 0.09705 0.67756 0.35931 0.0
H1105 H 0.99846 0.59059 0.34698 0.0
O1106 O 0.12361 0.63277 0.35167 0.0
C1107 C 0.02878 0.54141 0.3432 0.0
O1108 O 0.00644 0.5303 0.35002 0.0
N1109 N 0.08309 0.60763 0.36647 0.0
C1110 C 0.09256 0.62838 0.38373 0.0
C1111 C 0.12456 0.63602 0.37862 0.0
C1112 C 0.11919 0.62514 0.37 0.0
C1113 C 0.05152 0.59883 0.37138 0.0
C1114 C 0.05561 0.60924 0.38002 0.0
H1115 H 0.14402 0.63042 0.36622 0.0
H1116 H 0.02302 0.58402 0.36853 0.0
H1117 H 0.14185 0.58264 0.34833 0.0
H1118 H 0.09657 0.48495 0.36434 0.0
H1119 H 0.05194 0.7061 0.35535 0.0
H1120 H 0.15346 0.64977 0.38129 0.0
H1121 H 0.03011 0.60285 0.38371 0.0
C1122 C 0.47068 0.5472 0.36351 0.0
C1123 C 0.48856 0.58699 0.36331 0.0
N1124 N 0.47381 0.59728 0.35671 0.0
N1125 N 0.44446 0.53256 0.35713 0.0
C1126 C 0.44739 0.56373 0.35304 0.0
H1127 H 0.47587 0.52999 0.3681 0.0
Co1128 Co 0.41058 0.48076 0.35467 0.0
C1129 C 0.35051 0.48568 0.3445 0.0
O1130 O 0.35205 0.46403 0.33834 0.0
N1131 N 0.37611 0.42846 0.3522 0.0
C1132 C 0.32203 0.37134 0.3518 0.0
C1133 C 0.33802 0.40943 0.35412 0.0
C1134 C 0.3827 0.40106 0.34882 0.0
N1135 N 0.35011 0.366 0.34846 0.0
O1136 O 0.43238 0.4896 0.34344 0.0
H1137 H 0.32285 0.42235 0.35716 0.0
H1138 H 0.41076 0.40666 0.34666 0.0
O1139 O 0.37244 0.49393 0.35102 0.0
C1140 C 0.46391 0.48888 0.3434 0.0
O1141 O 0.47303 0.47626 0.3503 0.0
N1142 N 0.39187 0.47288 0.3659 0.0
C1143 C 0.36929 0.45964 0.38303 0.0
C1144 C 0.36135 0.48384 0.37796 0.0
C1145 C 0.37327 0.49046 0.36941 0.0
C1146 C 0.40022 0.44963 0.37074 0.0
C1147 C 0.38909 0.4425 0.37933 0.0
H1148 H 0.36818 0.51029 0.36569 0.0
H1149 H 0.41577 0.43667 0.3679 0.0
H1150 H 0.4296 0.56185 0.34763 0.0
H1151 H 0.51051 0.60678 0.36771 0.0
H1152 H 0.29216 0.3491 0.35269 0.0
H1153 H 0.34693 0.49832 0.38064 0.0
H1154 H 0.39574 0.4236 0.38303 0.0
C1155 C 0.4546 0.92864 0.36092 0.0
C1156 C 0.41485 0.90652 0.36042 0.0
N1157 N 0.40585 0.87686 0.35501 0.0
N1158 N 0.47041 0.91289 0.35586 0.0
C1159 C 0.44004 0.88165 0.3523 0.0
H1160 H 0.47097 0.95446 0.36474 0.0
Co1161 Co 0.52261 0.93118 0.35385 0.0
C1162 C 0.51888 0.86395 0.34467 0.0
O1163 O 0.5389 0.88532 0.33812 0.0
N1164 N 0.57534 0.94953 0.35181 0.0
C1165 C 0.63355 0.95509 0.35236 0.0
C1166 C 0.59508 0.93188 0.35429 0.0
C1167 C 0.60252 0.9835 0.34839 0.0
N1168 N 0.63826 0.98763 0.34866 0.0
O1169 O 0.51483 0.94189 0.34232 0.0
H1170 H 0.5824 0.90414 0.35749 0.0
H1171 H 0.59652 0.00533 0.34599 0.0
O1172 O 0.51111 0.87938 0.35094 0.0
C1173 C 0.51565 0.97421 0.34205 0.0
O1174 O 0.52765 0.99635 0.3489 0.0
N1175 N 0.52922 0.92281 0.36535 0.0
C1176 C 0.5396 0.91591 0.38279 0.0
C1177 C 0.51406 0.88345 0.37794 0.0
C1178 C 0.50903 0.88758 0.36924 0.0
C1179 C 0.55356 0.95482 0.36997 0.0
C1180 C 0.55947 0.95199 0.37869 0.0
H1181 H 0.48828 0.86259 0.36568 0.0
H1182 H 0.56832 0.98277 0.36685 0.0
H1183 H 0.44288 0.86303 0.34767 0.0
H1184 H 0.39424 0.91147 0.3639 0.0
H1185 H 0.65626 0.94842 0.35356 0.0
H1186 H 0.4981 0.85506 0.38084 0.0
H1187 H 0.57879 0.97793 0.38223 0.0
H1188 H 0.20738 0.20946 0.18665 0.0
H1189 H 0.08421 0.13512 0.18357 0.0
H1190 H 0.21733 0.1556 0.18282 0.0
H1191 H 0.09414 0.08155 0.17965 0.0
H1192 H 0.12876 0.98852 0.18586 0.0
H1193 H 0.11648 0.04203 0.18775 0.0
H1194 H 0.20961 0.11158 0.17025 0.0
H1195 H 0.222 0.05781 0.16835 0.0
C1196 C 0.1825 0.18167 0.18513 0.0
C1197 C 0.14504 0.1765 0.18543 0.0
C1198 C 0.1882 0.15099 0.18285 0.0
C1199 C 0.1565 0.11439 0.18093 0.0
C1200 C 0.1191 0.10937 0.18114 0.0
C1201 C 0.11345 0.14012 0.18332 0.0
C1202 C 0.14633 0.01506 0.18234 0.0
C1203 C 0.17643 0.01904 0.17698 0.0
C1204 C 0.13917 0.04564 0.18339 0.0
C1205 C 0.16223 0.08105 0.17918 0.0
C1206 C 0.19163 0.0847 0.17363 0.0
C1207 C 0.19848 0.05385 0.17248 0.0
H1208 H 0.01457 0.14131 0.18633 0.0
H1209 H 0.94308 0.16661 0.16987 0.0
H1210 H 0.96144 0.07535 0.18816 0.0
H1211 H 0.8897 0.10016 0.17167 0.0
H1212 H 0.79322 0.99662 0.18742 0.0
H1213 H 0.84633 0.0613 0.18391 0.0
H1214 H 0.92202 0.01451 0.18005 0.0
H1215 H 0.86928 0.95018 0.18369 0.0
C1216 C 0.98759 0.13266 0.18303 0.0
C1217 C 0.98297 0.15923 0.17798 0.0
C1218 C 0.9572 0.09477 0.18404 0.0
C1219 C 0.92131 0.08258 0.18009 0.0
C1220 C 0.91692 0.10885 0.17487 0.0
C1221 C 0.94756 0.14676 0.17377 0.0
C1222 C 0.82121 1.00021 0.18583 0.0
C1223 C 0.82703 0.96828 0.18586 0.0
C1224 C 0.8515 0.03715 0.18373 0.0
C1225 C 0.88837 0.043 0.1817 0.0
C1226 C 0.89403 0.01098 0.18163 0.0
C1227 C 0.8637 0.97407 0.18366 0.0
H1228 H 0.84792 0.7918 0.16763 0.0
H1229 H 0.8631 0.86552 0.18931 0.0
H1230 H 0.91334 0.80252 0.16986 0.0
H1231 H 0.92765 0.87552 0.19159 0.0
H1232 H 0.01644 0.84183 0.19984 0.0
H1233 H 0.95231 0.8314 0.19644 0.0
H1234 H 0.9848 0.85661 0.1698 0.0
H1235 H 0.04915 0.86676 0.17321 0.0
C1236 C 0.86524 0.81053 0.17281 0.0
C1237 C 0.84995 0.8272 0.17839 0.0
C1238 C 0.90266 0.81663 0.17408 0.0
C1239 C 0.92528 0.83928 0.18099 0.0
C1240 C 0.91055 0.85719 0.18633 0.0
C1241 C 0.87348 0.85142 0.18502 0.0
C1242 C 0.00978 0.84466 0.19324 0.0
C1243 C 0.03788 0.85523 0.1868 0.0
C1244 C 0.97319 0.83908 0.19131 0.0
C1245 C 0.96368 0.84353 0.18287 0.0
C1246 C 0.99133 0.85295 0.17636 0.0
C1247 C 0.02818 0.85902 0.17832 0.0
H1248 H 0.99341 0.13172 0.30804 0.0
H1249 H 0.06445 0.22885 0.32449 0.0
H1250 H 0.04708 0.11986 0.30608 0.0
H1251 H 0.11837 0.21675 0.32255 0.0
H1252 H 0.21531 0.21086 0.30672 0.0
H1253 H 0.16179 0.22177 0.31026 0.0
H1254 H 0.08706 0.09909 0.31414 0.0
H1255 H 0.14014 0.08817 0.31047 0.0
C1256 C 0.02041 0.15033 0.31131 0.0
C1257 C 0.02474 0.18133 0.31639 0.0
C1258 C 0.05112 0.1434 0.31022 0.0
C1259 C 0.08703 0.16747 0.31413 0.0
C1260 C 0.09114 0.19795 0.31939 0.0
C1261 C 0.06019 0.20465 0.32056 0.0
C1262 C 0.18743 0.18628 0.30832 0.0
C1263 C 0.18198 0.14867 0.30829 0.0
C1264 C 0.15691 0.19255 0.31043 0.0
C1265 C 0.1202 0.16128 0.31248 0.0
C1266 C 0.11492 0.12375 0.31254 0.0
C1267 C 0.14545 0.11754 0.3105 0.0
H1268 H 0.78673 0.83921 0.32592 0.0
H1269 H 0.87874 0.86354 0.30801 0.0
H1270 H 0.79879 0.90529 0.32414 0.0
H1271 H 0.89064 0.92925 0.30623 0.0
H1272 H 0.92307 0.05459 0.31063 0.0
H1273 H 0.91355 0.99103 0.31433 0.0
H1274 H 0.79006 0.94181 0.31184 0.0
H1275 H 0.7996 0.00567 0.30825 0.0
C1276 C 0.80989 0.85882 0.32171 0.0
C1277 C 0.83169 0.84617 0.31708 0.0
C1278 C 0.81655 0.89649 0.32064 0.0
C1279 C 0.84551 0.92235 0.31501 0.0
C1280 C 0.8683 0.9101 0.31065 0.0
C1281 C 0.86134 0.87239 0.31164 0.0
C1282 C 0.89386 0.03032 0.31098 0.0
C1283 C 0.86206 0.03512 0.30913 0.0
C1284 C 0.88844 0.99388 0.31304 0.0
C1285 C 0.85107 0.96145 0.31337 0.0
C1286 C 0.81919 0.96635 0.31171 0.0
C1287 C 0.82464 0.00278 0.30956 0.0
H1288 H 0.16036 0.95234 0.32656 0.0
H1289 H 0.14547 0.00888 0.30447 0.0
H1290 H 0.09523 0.89713 0.32434 0.0
H1291 H 0.08117 0.95382 0.30221 0.0
H1292 H 0.99295 0.8305 0.2943 0.0
H1293 H 0.05676 0.88492 0.29763 0.0
H1294 H 0.02387 0.87895 0.32421 0.0
H1295 H 0.95987 0.824 0.32088 0.0
C1296 C 0.14316 0.95321 0.32129 0.0
C1297 C 0.15845 0.98477 0.3156 0.0
C1298 C 0.1059 0.9216 0.32002 0.0
C1299 C 0.08342 0.9209 0.31301 0.0
C1300 C 0.09816 0.95314 0.30755 0.0
C1301 C 0.13507 0.98473 0.30886 0.0
C1302 C 0.99945 0.84044 0.30087 0.0
C1303 C 0.97133 0.82302 0.30732 0.0
C1304 C 0.03586 0.87186 0.30277 0.0
C1305 C 0.04518 0.88641 0.31117 0.0
C1306 C 0.0175 0.86833 0.31768 0.0
C1307 C 0.98084 0.83711 0.31576 0.0
H1308 H 0.79173 0.94075 0.82329 0.0
H1309 H 0.8768 0.01659 0.80486 0.0
H1310 H 0.80995 0.89163 0.82042 0.0
H1311 H 0.89475 0.96781 0.80201 0.0
H1312 H 0.88081 0.85541 0.7911 0.0
H1313 H 0.86352 0.90414 0.79488 0.0
H1314 H 0.86411 0.87781 0.82173 0.0
H1315 H 0.88053 0.82841 0.81792 0.0
C1316 C 0.81458 0.94713 0.81871 0.0
C1317 C 0.83233 0.9823 0.8142 0.0
C1318 C 0.825 0.91901 0.81707 0.0
C1319 C 0.85333 0.9256 0.81087 0.0
C1320 C 0.87215 0.96145 0.80665 0.0
C1321 C 0.86186 0.98945 0.80831 0.0
C1322 C 0.87697 0.85982 0.7978 0.0
C1323 C 0.88229 0.8382 0.8042 0.0
C1324 C 0.86744 0.88799 0.79998 0.0
C1325 C 0.86274 0.89505 0.80862 0.0
C1326 C 0.86741 0.87299 0.81502 0.0
C1327 C 0.87723 0.84499 0.81284 0.0
H1328 H 0.2198 0.01584 0.80045 0.0
H1329 H 0.14958 0.05832 0.81188 0.0
H1330 H 0.17121 0.95015 0.80423 0.0
H1331 H 0.10186 0.99276 0.81606 0.0
H1332 H 0.00495 0.86562 0.81095 0.0
H1333 H 0.0538 0.93366 0.80948 0.0
H1334 H 0.14283 0.90676 0.81607 0.0
H1335 H 0.0941 0.83862 0.81728 0.0
C1336 C 0.19413 0.01127 0.8038 0.0
C1337 C 0.18871 0.04252 0.80582 0.0
C1338 C 0.16645 0.97357 0.8061 0.0
C1339 C 0.13264 0.96611 0.8105 0.0
C1340 C 0.1274 0.99739 0.81262 0.0
C1341 C 0.15505 0.03512 0.8103 0.0
C1342 C 0.03485 0.87435 0.81226 0.0
C1343 C 0.04573 0.84668 0.81413 0.0
C1344 C 0.06291 0.91342 0.81143 0.0
C1345 C 0.10238 0.92563 0.81251 0.0
C1346 C 0.11283 0.89823 0.81497 0.0
C1347 C 0.08485 0.8592 0.81574 0.0
H1348 H 0.16455 0.22375 0.82374 0.0
H1349 H 0.14341 0.134 0.80544 0.0
H1350 H 0.09811 0.21042 0.82183 0.0
H1351 H 0.07726 0.12075 0.80356 0.0
H1352 H 0.9506 0.0841 0.80838 0.0
H1353 H 0.01511 0.09552 0.81179 0.0
H1354 H 0.0608 0.21861 0.80952 0.0
H1355 H 0.99596 0.20713 0.80618 0.0
C1356 C 0.14558 0.20085 0.81941 0.0
C1357 C 0.1592 0.17999 0.81472 0.0
C1358 C 0.1077 0.19347 0.81826 0.0
C1359 C 0.08257 0.16468 0.81251 0.0
C1360 C 0.09585 0.14295 0.80807 0.0
C1361 C 0.13379 0.15066 0.80912 0.0
C1362 C 0.97431 0.11361 0.8087 0.0
C1363 C 0.96821 0.14475 0.80701 0.0
C1364 C 0.01129 0.12013 0.81059 0.0
C1365 C 0.04299 0.15795 0.81092 0.0
C1366 C 0.03684 0.18916 0.80938 0.0
C1367 C 0.99986 0.1826 0.80738 0.0
H1368 H 0.02441 0.86322 0.69127 0.0
H1369 H 0.97076 0.79101 0.66911 0.0
H1370 H 0.96804 0.87054 0.69327 0.0
H1371 H 0.91416 0.79874 0.67109 0.0
H1372 H 0.83675 0.85601 0.67404 0.0
H1373 H 0.89335 0.84944 0.67097 0.0
H1374 H 0.89969 0.82509 0.69771 0.0
H1375 H 0.84366 0.83216 0.70078 0.0
C1376 C 1.00063 0.84894 0.68681 0.0
C1377 C 1.00187 0.82599 0.68011 0.0
C1378 C 0.96828 0.85311 0.68797 0.0
C1379 C 0.93644 0.83469 0.68242 0.0
C1380 C 0.93831 0.81326 0.67547 0.0
C1381 C 0.97072 0.80886 0.67433 0.0
C1382 C 0.8503 0.84926 0.67924 0.0
C1383 C 0.83585 0.84473 0.68765 0.0
C1384 C 0.88248 0.84524 0.67748 0.0
C1385 C 0.90111 0.83709 0.68411 0.0
C1386 C 0.88622 0.83188 0.69249 0.0
C1387 C 0.85387 0.8355 0.69423 0.0
H1388 H 0.17691 0.9917 0.70057 0.0
H1389 H 0.15403 0.95433 0.67419 0.0
H1390 H 0.18509 0.05435 0.69647 0.0
H1391 H 0.16213 0.01726 0.67006 0.0
H1392 H 0.22421 0.15408 0.66683 0.0
H1393 H 0.21534 0.08977 0.66977 0.0
H1394 H 0.13915 0.07596 0.6908 0.0
H1395 H 0.14709 0.13925 0.68777 0.0
C1396 C 0.17405 0.99703 0.69388 0.0
C1397 C 0.16475 0.96805 0.68771 0.0
C1398 C 0.17837 0.03277 0.69154 0.0
C1399 C 0.17398 0.0406 0.68295 0.0
C1400 C 0.16574 0.01205 0.67672 0.0
C1401 C 0.16086 0.97601 0.67909 0.0
C1402 C 0.20518 0.13709 0.672 0.0
C1403 C 0.18703 0.15224 0.67718 0.0
C1404 C 0.20014 0.10031 0.67369 0.0
C1405 C 0.17712 0.07819 0.68062 0.0
C1406 C 0.15778 0.09271 0.68555 0.0
C1407 C 0.16243 0.12909 0.68381 0.0
H1408 H 0.84526 0.04187 0.66841 0.0
H1409 H 0.87187 0.97562 0.68622 0.0
H1410 H 0.91074 0.09698 0.67019 0.0
H1411 H 0.93703 0.0305 0.68798 0.0
H1412 H 0.06171 0.12561 0.68315 0.0
H1413 H 0.99842 0.07046 0.67969 0.0
H1414 H 0.94685 0.1425 0.68256 0.0
H1415 H 0.01039 0.19787 0.68594 0.0
C1416 C 0.86525 0.03888 0.67259 0.0
C1417 C 0.85342 0.00449 0.67719 0.0
C1418 C 0.90257 0.07051 0.67367 0.0
C1419 C 0.92891 0.06809 0.67926 0.0
C1420 C 0.91748 0.03316 0.68359 0.0
C1421 C 0.8801 1.0018 0.68261 0.0
C1422 C 0.03695 0.12978 0.68295 0.0
C1423 C 0.04101 0.16607 0.68482 0.0
C1424 C 1.00068 0.09814 0.68103 0.0
C1425 C 0.96771 0.10218 0.68085 0.0
C1426 C 0.97182 0.13862 0.68257 0.0
C1427 C 0.00807 0.17019 0.6846 0.0
H1428 H 0.8664 0.55165 0.52462 0.0
H1429 H 0.74496 0.47639 0.51944 0.0
H1430 H 0.87897 0.49951 0.5207 0.0
H1431 H 0.75751 0.42466 0.51543 0.0
H1432 H 0.7911 0.33073 0.5205 0.0
H1433 H 0.77785 0.38314 0.52315 0.0
H1434 H 0.87678 0.45994 0.50775 0.0
H1435 H 0.8902 0.40728 0.50511 0.0
C1436 C 0.84245 0.52401 0.52266 0.0
C1437 C 0.80471 0.51816 0.52235 0.0
C1438 C 0.84967 0.49431 0.52032 0.0
C1439 C 0.81922 0.458 0.51774 0.0
C1440 C 0.78154 0.45222 0.51743 0.0
C1441 C 0.7744 0.48197 0.51967 0.0
C1442 C 0.80984 0.35869 0.51761 0.0
C1443 C 0.84176 0.36489 0.51261 0.0
C1444 C 0.80215 0.38868 0.5191 0.0
C1445 C 0.82639 0.42574 0.5157 0.0
C1446 C 0.85783 0.43178 0.51053 0.0
C1447 C 0.86527 0.40155 0.50895 0.0
H1448 H 0.52982 0.28682 0.51975 0.0
H1449 H 0.45248 0.3327 0.52142 0.0
H1450 H 0.58336 0.3512 0.51635 0.0
H1451 H 0.50623 0.39737 0.51806 0.0
H1452 H 0.60643 0.50008 0.50375 0.0
H1453 H 0.55291 0.43376 0.50567 0.0
H1454 H 0.61935 0.41373 0.52472 0.0
H1455 H 0.67257 0.47976 0.52285 0.0
C1456 C 0.52421 0.31062 0.51931 0.0
C1457 C 0.48697 0.30476 0.52086 0.0
C1458 C 0.5549 0.3475 0.51742 0.0
C1459 C 0.54893 0.37925 0.51693 0.0
C1460 C 0.51157 0.37333 0.51832 0.0
C1461 C 0.48093 0.33647 0.52033 0.0
C1462 C 0.60973 0.48131 0.50826 0.0
C1463 C 0.6436 0.4951 0.51316 0.0
C1464 C 0.57902 0.44353 0.50941 0.0
C1465 C 0.58195 0.41869 0.51537 0.0
C1466 C 0.61637 0.43214 0.52005 0.0
C1467 C 0.64675 0.46999 0.519 0.0
H1468 H 0.71538 0.25919 0.51749 0.0
H1469 H 0.66984 0.13654 0.52074 0.0
H1470 H 0.65089 0.24727 0.51389 0.0
H1471 H 0.60506 0.12462 0.51726 0.0
H1472 H 0.49932 0.11584 0.5035 0.0
H1473 H 0.5661 0.12974 0.5051 0.0
H1474 H 0.58987 0.22447 0.52212 0.0
H1475 H 0.52356 0.21078 0.5205 0.0
C1476 C 0.69167 0.22964 0.51735 0.0
C1477 C 0.69771 0.1988 0.51943 0.0
C1478 C 0.65467 0.22285 0.51535 0.0
C1479 C 0.62288 0.18502 0.5153 0.0
C1480 C 0.62904 0.15406 0.51717 0.0
C1481 C 0.66602 0.1609 0.51926 0.0
C1482 C 0.51901 0.13997 0.50747 0.0
C1483 C 0.50614 0.1621 0.5119 0.0
C1484 C 0.55711 0.14771 0.50845 0.0
C1485 C 0.58318 0.17808 0.51377 0.0
C1486 C 0.57061 0.20106 0.51793 0.0
C1487 C 0.53252 0.19306 0.51703 0.0
H1488 H 0.73088 0.56745 0.64717 0.0
H1489 H 0.66212 0.44336 0.64902 0.0
H1490 H 0.78953 0.56398 0.64953 0.0
H1491 H 0.72059 0.43951 0.6512 0.0
H1492 H 0.87075 0.53013 0.63525 0.0
H1493 H 0.81758 0.54038 0.63878 0.0
H1494 H 0.78121 0.45456 0.65882 0.0
H1495 H 0.83517 0.4446 0.65541 0.0
C1496 C 0.72823 0.53961 0.64853 0.0
C1497 C 0.6921 0.50574 0.64803 0.0
C1498 C 0.7618 0.53751 0.64974 0.0
C1499 C 0.7598 0.50141 0.65036 0.0
C1500 C 0.72318 0.46779 0.65078 0.0
C1501 C 0.68957 0.46995 0.64958 0.0
C1502 C 0.85217 0.51394 0.64054 0.0
C1503 C 0.85741 0.4862 0.64496 0.0
C1504 C 0.82156 0.51997 0.6426 0.0
C1505 C 0.79514 0.49837 0.64911 0.0
C1506 C 0.80091 0.47147 0.65373 0.0
C1507 C 0.8318 0.46562 0.65172 0.0
H1508 H 0.47173 0.16512 0.6595 0.0
H1509 H 0.55485 0.18422 0.63963 0.0
H1510 H 0.48619 0.23203 0.65798 0.0
H1511 H 0.56825 0.25017 0.6379 0.0
H1512 H 0.60315 0.37541 0.63975 0.0
H1513 H 0.59558 0.31344 0.6441 0.0
H1514 H 0.47277 0.26759 0.64727 0.0
H1515 H 0.48059 0.32995 0.64334 0.0
C1516 C 0.49335 0.18368 0.65488 0.0
C1517 C 0.51169 0.16922 0.6496 0.0
C1518 C 0.5014 0.22189 0.65395 0.0
C1519 C 0.52807 0.24638 0.64775 0.0
C1520 C 0.54776 0.23232 0.64278 0.0
C1521 C 0.53973 0.19427 0.64371 0.0
C1522 C 0.57463 0.35236 0.6415 0.0
C1523 C 0.54244 0.35772 0.6411 0.0
C1524 C 0.57023 0.31666 0.64393 0.0
C1525 C 0.53353 0.28543 0.646 0.0
C1526 C 0.50153 0.29109 0.64581 0.0
C1527 C 0.50594 0.32677 0.64341 0.0
H1528 H 0.62636 0.18921 0.64422 0.0
H1529 H 0.68128 0.12208 0.63863 0.0
H1530 H 0.68864 0.24409 0.64825 0.0
H1531 H 0.74406 0.1775 0.64256 0.0
H1532 H 0.84428 0.2744 0.65788 0.0
H1533 H 0.77994 0.2184 0.65548 0.0
H1534 H 0.74888 0.28941 0.64039 0.0
H1535 H 0.81288 0.34521 0.6428 0.0
C1536 C 0.6517 0.18603 0.64393 0.0
C1537 C 0.64886 0.1512 0.64113 0.0
C1538 C 0.68745 0.21762 0.64617 0.0
C1539 C 0.72125 0.21512 0.64573 0.0
C1540 C 0.71844 0.18015 0.64305 0.0
C1541 C 0.68262 0.14858 0.64072 0.0
C1542 C 0.82346 0.27817 0.65418 0.0
C1543 C 0.83365 0.31421 0.65052 0.0
C1544 C 0.7868 0.24603 0.65273 0.0
C1545 C 0.75946 0.24946 0.6477 0.0
C1546 C 0.76921 0.28587 0.64433 0.0
C1547 C 0.80593 0.31782 0.64569 0.0
H1548 H 0.51009 0.1612 0.12722 0.0
H1549 H 0.53635 0.15429 0.15378 0.0
H1550 H 0.4996 0.21486 0.13064 0.0
H1551 H 0.52633 0.20852 0.15721 0.0
H1552 H 0.4633 0.28134 0.15991 0.0
H1553 H 0.47336 0.22635 0.1575 0.0
H1554 H 0.54287 0.28355 0.13522 0.0
H1555 H 0.53338 0.33832 0.13765 0.0
C1556 C 0.51322 0.17087 0.1338 0.0
C1557 C 0.52419 0.1536 0.14022 0.0
C1558 C 0.50761 0.20188 0.13575 0.0
C1559 C 0.51251 0.21615 0.14418 0.0
C1560 C 0.52231 0.19813 0.15066 0.0
C1561 C 0.52832 0.16732 0.14869 0.0
C1562 C 0.48109 0.28235 0.15456 0.0
C1563 C 0.49698 0.314 0.14889 0.0
C1564 C 0.48683 0.25086 0.15318 0.0
C1565 C 0.50834 0.25037 0.14608 0.0
C1566 C 0.52539 0.28266 0.14063 0.0
C1567 C 0.51995 0.31412 0.14203 0.0
H1568 H 0.84065 0.34572 0.12782 0.0
H1569 H 0.84863 0.38098 0.15426 0.0
H1570 H 0.7862 0.2823 0.13143 0.0
H1571 H 0.79366 0.31733 0.15788 0.0
H1572 H 0.72085 0.18017 0.16046 0.0
H1573 H 0.7756 0.24555 0.15816 0.0
H1574 H 0.71748 0.25899 0.13623 0.0
H1575 H 0.66286 0.19446 0.13857 0.0
C1576 C 0.83102 0.33977 0.13442 0.0
C1577 C 0.84885 0.36836 0.14075 0.0
C1578 C 0.79959 0.30361 0.13647 0.0
C1579 C 0.78548 0.29503 0.14492 0.0
C1580 C 0.80396 0.32317 0.15132 0.0
C1581 C 0.83518 0.35961 0.14924 0.0
C1582 C 0.71953 0.19734 0.15523 0.0
C1583 C 0.68781 0.18179 0.14959 0.0
C1584 C 0.75088 0.23472 0.15392 0.0
C1585 C 0.75107 0.257 0.14691 0.0
C1586 C 0.71852 0.24211 0.14155 0.0
C1587 C 0.68722 0.20509 0.1429 0.0
H1588 H 0.66628 0.54042 0.14059 0.0
H1589 H 0.61904 0.41736 0.14351 0.0
H1590 H 0.73071 0.55114 0.14403 0.0
H1591 H 0.68307 0.42806 0.14708 0.0
H1592 H 0.80995 0.46251 0.14083 0.0
H1593 H 0.74425 0.45039 0.13898 0.0
H1594 H 0.76858 0.54444 0.15625 0.0
H1595 H 0.83472 0.55679 0.15809 0.0
C1596 C 0.66965 0.51572 0.14198 0.0
C1597 C 0.63758 0.47807 0.14176 0.0
C1598 C 0.70642 0.52186 0.14405 0.0
C1599 C 0.71193 0.49042 0.14583 0.0
C1600 C 0.67979 0.45284 0.14569 0.0
C1601 C 0.64305 0.44675 0.14371 0.0
C1602 C 0.80122 0.4804 0.1443 0.0
C1603 C 0.82756 0.5107 0.14958 0.0
C1604 C 0.7635 0.47332 0.14327 0.0
C1605 C 0.7513 0.49658 0.14744 0.0
C1606 C 0.77732 0.5263 0.1529 0.0
C1607 C 0.81503 0.53312 0.15401 0.0
H1608 H 0.67605 0.20276 0.0229 0.0
H1609 H 0.61836 0.13175 0.00082 0.0
H1610 H 0.62173 0.21307 0.02525 0.0
H1611 H 0.56388 0.14271 0.00314 0.0
H1612 H 0.49223 0.20623 0.00672 0.0
H1613 H 0.54665 0.19642 0.00332 0.0
H1614 H 0.55293 0.16983 0.0299 0.0
H1615 H 0.49908 0.18002 0.0333 0.0
C1616 C 0.65179 0.1893 0.01854 0.0
C1617 C 0.65131 0.16579 0.01177 0.0
C1618 C 0.62062 0.19525 0.0199 0.0
C1619 C 0.58827 0.1782 0.01447 0.0
C1620 C 0.58844 0.15619 0.00744 0.0
C1621 C 0.61963 0.14993 0.00611 0.0
C1622 C 0.50531 0.19832 0.01182 0.0
C1623 C 0.49145 0.19402 0.02028 0.0
C1624 C 0.53623 0.19243 0.00986 0.0
C1625 C 0.55422 0.18264 0.01635 0.0
C1626 C 0.53995 0.1778 0.02478 0.0
C1627 C 0.50884 0.18325 0.02671 0.0
H1628 H 0.79899 0.47796 0.01921 0.0
H1629 H 0.8966 0.50425 0.0029 0.0
H1630 H 0.78673 0.41223 0.02106 0.0
H1631 H 0.88408 0.438 0.00472 0.0
H1632 H 0.8774 0.33483 0.02055 0.0
H1633 H 0.88858 0.39934 0.01701 0.0
H1634 H 0.76609 0.35164 0.01295 0.0
H1635 H 0.75488 0.28755 0.01664 0.0
C1636 C 0.81761 0.46956 0.01595 0.0
C1637 C 0.84888 0.49634 0.01094 0.0
C1638 C 0.81044 0.43181 0.01697 0.0
C1639 C 0.83454 0.41998 0.01307 0.0
C1640 C 0.86526 0.44644 0.00787 0.0
C1641 C 0.8722 0.48421 0.00677 0.0
C1642 C 0.85292 0.3382 0.01892 0.0
C1643 C 0.81527 0.30609 0.0189 0.0
C1644 C 0.85934 0.37502 0.01679 0.0
C1645 C 0.8282 0.38055 0.0147 0.0
C1646 C 0.79064 0.34836 0.01459 0.0
C1647 C 0.78427 0.31157 0.01664 0.0
H1648 H 0.72187 0.47142 0.01661 0.0
H1649 H 0.67401 0.54659 0.01968 0.0
H1650 H 0.65802 0.41804 0.01283 0.0
H1651 H 0.6099 0.49297 0.016 0.0
H1652 H 0.50624 0.39536 0.00185 0.0
H1653 H 0.57263 0.44884 0.00363 0.0
H1654 H 0.59637 0.37884 0.02092 0.0
H1655 H 0.53037 0.3256 0.01915 0.0
C1656 C 0.69778 0.47665 0.01639 0.0
C1657 C 0.70297 0.51322 0.01847 0.0
C1658 C 0.66117 0.446 0.01429 0.0
C1659 C 0.62894 0.4513 0.01412 0.0
C1660 C 0.63425 0.48809 0.016 0.0
C1661 C 0.67083 0.51867 0.0182 0.0
C1662 C 0.52586 0.39124 0.00592 0.0
C1663 C 0.51306 0.35635 0.01039 0.0
C1664 C 0.56372 0.42194 0.00699 0.0
C1665 C 0.58963 0.41809 0.01245 0.0
C1666 C 0.5772 0.38263 0.01663 0.0
C1667 C 0.53932 0.35219 0.01565 0.0
H1668 H 0.46102 0.65665 0.8537 0.0
H1669 H 0.5536 0.72481 0.83595 0.0
H1670 H 0.44794 0.70981 0.8552 0.0
H1671 H 0.54038 0.77816 0.83745 0.0
H1672 H 0.53675 0.87743 0.85282 0.0
H1673 H 0.54761 0.8236 0.84961 0.0
H1674 H 0.42456 0.74751 0.84677 0.0
H1675 H 0.41372 0.80108 0.85008 0.0
C1676 C 0.4783 0.68286 0.85005 0.0
C1677 C 0.50844 0.68662 0.84473 0.0
C1678 C 0.47068 0.71323 0.85088 0.0
C1679 C 0.49328 0.74821 0.84648 0.0
C1680 C 0.52275 0.75164 0.84098 0.0
C1681 C 0.53008 0.721 0.84006 0.0
C1682 C 0.51209 0.84919 0.85152 0.0
C1683 C 0.47441 0.84348 0.85172 0.0
C1684 C 0.5183 0.8185 0.84959 0.0
C1685 C 0.48692 0.78137 0.84793 0.0
C1686 C 0.44928 0.77576 0.84806 0.0
C1687 C 0.44311 0.8065 0.8499 0.0
H1688 H 0.27312 0.82885 0.83442 0.0
H1689 H 0.34298 0.80722 0.85222 0.0
H1690 H 0.22053 0.76202 0.83619 0.0
H1691 H 0.29059 0.74085 0.85401 0.0
H1692 H 0.20177 0.61434 0.84933 0.0
H1693 H 0.25419 0.67927 0.84596 0.0
H1694 H 0.17509 0.72294 0.8481 0.0
H1695 H 0.12238 0.65769 0.85133 0.0
C1696 C 0.27742 0.80975 0.83863 0.0
C1697 C 0.31214 0.82336 0.84321 0.0
C1698 C 0.2472 0.77161 0.8397 0.0
C1699 C 0.25134 0.74621 0.84527 0.0
C1700 C 0.28656 0.75957 0.84963 0.0
C1701 C 0.31652 0.7977 0.84864 0.0
C1702 C 0.19542 0.63767 0.84898 0.0
C1703 C 0.15787 0.63084 0.85061 0.0
C1704 C 0.22554 0.67494 0.84712 0.0
C1705 C 0.21882 0.70626 0.84678 0.0
C1706 C 0.18113 0.69935 0.84825 0.0
C1707 C 0.15103 0.66208 0.85019 0.0
H1708 H 0.3471 0.50794 0.86658 0.0
H1709 H 0.38332 0.52997 0.8401 0.0
H1710 H 0.28335 0.49683 0.86251 0.0
H1711 H 0.31934 0.51907 0.83601 0.0
H1712 H 0.18207 0.4533 0.83328 0.0
H1713 H 0.24726 0.46424 0.83602 0.0
H1714 H 0.26089 0.54203 0.85669 0.0
H1715 H 0.19662 0.5319 0.85388 0.0
C1716 C 0.34125 0.50991 0.85987 0.0
C1717 C 0.3702 0.51999 0.85366 0.0
C1718 C 0.30493 0.50394 0.85755 0.0
C1719 C 0.29661 0.5075 0.84895 0.0
C1720 C 0.32504 0.51617 0.84268 0.0
C1721 C 0.36163 0.52264 0.84502 0.0
C1722 C 0.19925 0.47319 0.83831 0.0
C1723 C 0.18387 0.49112 0.84348 0.0
C1724 C 0.23648 0.47937 0.83989 0.0
C1725 C 0.25871 0.50335 0.84668 0.0
C1726 C 0.24399 0.52266 0.85155 0.0
C1727 C 0.20714 0.51681 0.84993 0.0
H1728 H 0.38942 0.88886 0.99153 0.0
H1729 H 0.32437 0.79869 0.97305 0.0
H1730 H 0.44356 0.87679 0.9901 0.0
H1731 H 0.3783 0.78678 0.97162 0.0
H1732 H 0.46949 0.75282 0.97686 0.0
H1733 H 0.41523 0.76266 0.98005 0.0
H1734 H 0.49087 0.88623 0.97819 0.0
H1735 H 0.54543 0.87635 0.97511 0.0
C1736 C 0.38647 0.86613 0.98726 0.0
C1737 C 0.35272 0.84481 0.98238 0.0
C1738 C 0.41756 0.85947 0.98639 0.0
C1739 C 0.41522 0.83098 0.98072 0.0
C1740 C 0.38089 0.80875 0.97608 0.0
C1741 C 0.35007 0.81571 0.97687 0.0
C1742 C 0.47468 0.78211 0.97724 0.0
C1743 C 0.51176 0.81384 0.97572 0.0
C1744 C 0.44353 0.78771 0.979 0.0
C1745 C 0.4488 0.8252 0.97937 0.0
C1746 C 0.48602 0.85701 0.97802 0.0
C1747 C 0.51714 0.85137 0.97617 0.0
H1748 H 0.1768 0.68337 0.95936 0.0
H1749 H 0.20098 0.71601 0.98601 0.0
H1750 H 0.1665 0.61928 0.96278 0.0
H1751 H 0.19095 0.65169 0.98944 0.0
H1752 H 0.12588 0.51477 0.99162 0.0
H1753 H 0.13677 0.58025 0.98935 0.0
H1754 H 0.2104 0.59449 0.96775 0.0
H1755 H 0.20028 0.52989 0.97008 0.0
C1756 C 0.17952 0.67671 0.96597 0.0
C1757 C 0.1898 0.70477 0.97241 0.0
C1758 C 0.17401 0.64015 0.96791 0.0
C1759 C 0.17824 0.6306 0.97637 0.0
C1760 C 0.18745 0.65824 0.98287 0.0
C1761 C 0.19346 0.69508 0.9809 0.0
C1762 C 0.14478 0.53208 0.98646 0.0
C1763 C 0.16159 0.51676 0.98093 0.0
C1764 C 0.15098 0.56953 0.98516 0.0
C1765 C 0.17387 0.59216 0.97827 0.0
C1766 C 0.1919 0.57738 0.97298 0.0
C1767 C 0.18603 0.54029 0.97433 0.0
H1768 H 0.49851 0.60986 0.99141 0.0
H1769 H 0.4748 0.68287 0.97507 0.0
H1770 H 0.43254 0.55638 0.98909 0.0
H1771 H 0.40932 0.62965 0.97273 0.0
H1772 H 0.28393 0.53622 0.97631 0.0
H1773 H 0.34751 0.58885 0.98043 0.0
H1774 H 0.39579 0.51449 0.97645 0.0
H1775 H 0.33179 0.46145 0.97246 0.0
C1776 C 0.47907 0.61465 0.98744 0.0
C1777 C 0.49187 0.65051 0.9834 0.0
C1778 C 0.44147 0.58396 0.98604 0.0
C1779 C 0.41583 0.58876 0.98069 0.0
C1780 C 0.42827 0.62509 0.97693 0.0
C1781 C 0.46587 0.65553 0.97824 0.0
C1782 C 0.30797 0.53091 0.97641 0.0
C1783 C 0.30281 0.49463 0.97405 0.0
C1784 C 0.34446 0.56117 0.97871 0.0
C1785 C 0.37667 0.55584 0.97876 0.0
C1786 C 0.37145 0.51937 0.97655 0.0
C1787 C 0.33493 0.48914 0.97417 0.0
H1788 H 0.10454 0.61054 0.49191 0.0
H1789 H 0.20199 0.68378 0.47573 0.0
H1790 H 0.11803 0.55756 0.4899 0.0
H1791 H 0.21524 0.63106 0.47371 0.0
H1792 H 0.24845 0.53892 0.47778 0.0
H1793 H 0.23646 0.59112 0.48167 0.0
H1794 H 0.11424 0.51549 0.47741 0.0
H1795 H 0.12621 0.46288 0.47366 0.0
C1796 C 0.12913 0.6155 0.48803 0.0
C1797 C 0.15211 0.65126 0.48395 0.0
C1798 C 0.13662 0.58509 0.48682 0.0
C1799 C 0.16757 0.5901 0.48161 0.0
C1800 C 0.19136 0.62635 0.47781 0.0
C1801 C 0.18363 0.65651 0.47893 0.0
C1802 C 0.21896 0.53324 0.47778 0.0
C1803 C 0.18827 0.49674 0.47539 0.0
C1804 C 0.21214 0.56325 0.47995 0.0
C1805 C 0.17442 0.55743 0.47984 0.0
C1806 C 0.14358 0.52074 0.47763 0.0
C1807 C 0.15047 0.49076 0.47538 0.0
H1808 H 0.51012 0.72061 0.48795 0.0
H1809 H 0.5046 0.68785 0.46138 0.0
H1810 H 0.45615 0.65597 0.49129 0.0
H1811 H 0.45115 0.62343 0.46471 0.0
H1812 H 0.32774 0.5326 0.47158 0.0
H1813 H 0.38197 0.59736 0.46927 0.0
H1814 H 0.43963 0.58502 0.49143 0.0
H1815 H 0.38529 0.51939 0.49369 0.0
C1816 C 0.49743 0.69959 0.48284 0.0
C1817 C 0.51152 0.70937 0.4744 0.0
C1818 C 0.46677 0.66255 0.48476 0.0
C1819 C 0.44925 0.63475 0.47825 0.0
C1820 C 0.46377 0.64439 0.46984 0.0
C1821 C 0.49465 0.68116 0.46795 0.0
C1822 C 0.35196 0.54343 0.47596 0.0
C1823 C 0.35242 0.52039 0.48272 0.0
C1824 C 0.38307 0.58064 0.47463 0.0
C1825 C 0.41533 0.59605 0.48009 0.0
C1826 C 0.41515 0.57385 0.48711 0.0
C1827 C 0.38403 0.5363 0.4884 0.0
H1828 H 0.27754 0.75369 0.47777 0.0
H1829 H 0.32454 0.87694 0.47544 0.0
H1830 H 0.34158 0.76428 0.48136 0.0
H1831 H 0.38888 0.88756 0.47894 0.0
H1832 H 0.49229 0.89225 0.493 0.0
H1833 H 0.4259 0.87925 0.49124 0.0
H1834 H 0.40349 0.78842 0.47316 0.0
H1835 H 0.46954 0.8013 0.47492 0.0
C1836 C 0.30149 0.78307 0.47811 0.0
C1837 C 0.29601 0.81451 0.47631 0.0
C1838 C 0.3382 0.78911 0.48011 0.0
C1839 C 0.37023 0.82673 0.48043 0.0
C1840 C 0.36466 0.85825 0.47881 0.0
C1841 C 0.32796 0.85218 0.47672 0.0
C1842 C 0.47297 0.86913 0.48876 0.0
C1843 C 0.48614 0.84788 0.48408 0.0
C1844 C 0.43512 0.86193 0.4877 0.0
C1845 C 0.40959 0.83296 0.48203 0.0
C1846 C 0.42239 0.81076 0.47761 0.0
C1847 C 0.46028 0.81827 0.47859 0.0
H1848 H 0.34972 0.54343 0.35358 0.0
H1849 H 0.28117 0.45023 0.33601 0.0
H1850 H 0.29592 0.55525 0.35544 0.0
H1851 H 0.22712 0.46219 0.33787 0.0
H1852 H 0.1284 0.46354 0.35406 0.0
H1853 H 0.18258 0.45403 0.3503 0.0
H1854 H 0.25636 0.57744 0.34741 0.0
H1855 H 0.20247 0.58694 0.35127 0.0
C1856 C 0.32328 0.52576 0.35003 0.0
C1857 C 0.31961 0.4958 0.34467 0.0
C1858 C 0.29252 0.53266 0.35107 0.0
C1859 C 0.25723 0.50951 0.34684 0.0
C1860 C 0.25388 0.48025 0.34128 0.0
C1861 C 0.28491 0.47364 0.34015 0.0
C1862 C 0.1562 0.48857 0.35263 0.0
C1863 C 0.16117 0.52596 0.35299 0.0
C1864 C 0.18709 0.48313 0.35038 0.0
C1865 C 0.2237 0.51501 0.34856 0.0
C1866 C 0.22854 0.55234 0.34883 0.0
C1867 C 0.1976 0.55775 0.35098 0.0
H1868 H 0.54515 0.82469 0.33479 0.0
H1869 H 0.47053 0.81028 0.35624 0.0
H1870 H 0.53452 0.75944 0.33726 0.0
H1871 H 0.4606 0.74588 0.35875 0.0
H1872 H 0.49407 0.65742 0.3675 0.0
H1873 H 0.50412 0.72126 0.36391 0.0
H1874 H 0.4811 0.68808 0.33726 0.0
H1875 H 0.47136 0.62405 0.34087 0.0
C1876 C 0.52624 0.80757 0.33997 0.0
C1877 C 0.50928 0.82305 0.34541 0.0
C1878 C 0.52018 0.77024 0.34138 0.0
C1879 C 0.49729 0.74786 0.3483 0.0
C1880 C 0.47912 0.76277 0.3535 0.0
C1881 C 0.48485 0.79976 0.35205 0.0
C1882 C 0.49161 0.66386 0.36086 0.0
C1883 C 0.48182 0.63565 0.35448 0.0
C1884 C 0.49698 0.70028 0.35881 0.0
C1885 C 0.49306 0.70955 0.35031 0.0
C1886 C 0.48434 0.68176 0.34387 0.0
C1887 C 0.4785 0.64507 0.34594 0.0
H1888 H 0.33925 0.87922 0.35418 0.0
H1889 H 0.38635 0.80349 0.35088 0.0
H1890 H 0.2746 0.82542 0.35094 0.0
H1891 H 0.32207 0.75006 0.3475 0.0
H1892 H 0.19584 0.6575 0.3542 0.0
H1893 H 0.26163 0.7112 0.35582 0.0
H1894 H 0.23564 0.78071 0.33888 0.0
H1895 H 0.16939 0.72678 0.33728 0.0
C1896 C 0.33581 0.85115 0.35275 0.0
C1897 C 0.3679 0.84562 0.35281 0.0
C1898 C 0.2989 0.82047 0.3508 0.0
C1899 C 0.29327 0.78351 0.34897 0.0
C1900 C 0.32544 0.77813 0.34894 0.0
C1901 C 0.36233 0.80883 0.35081 0.0
C1902 C 0.20419 0.68412 0.35076 0.0
C1903 C 0.17736 0.68797 0.34564 0.0
C1904 C 0.24198 0.71482 0.35165 0.0
C1905 C 0.25378 0.75024 0.34751 0.0
C1906 C 0.22724 0.75386 0.34222 0.0
C1907 C 0.18944 0.7229 0.34124 0.0
H1908 H 0.3458 0.40207 0.14659 0.0
H1909 H 0.30722 0.28271 0.15259 0.0
H1910 H 0.28475 0.39404 0.15196 0.0
H1911 H 0.24671 0.27472 0.15809 0.0
H1912 H 0.13101 0.26048 0.16347 0.0
H1913 H 0.18653 0.27108 0.15482 0.0
H1914 H 0.25328 0.38626 0.16533 0.0
H1915 H 0.19772 0.37613 0.17368 0.0
C1916 C 0.32438 0.37419 0.14909 0.0
C1917 C 0.33146 0.34308 0.14918 0.0
C1918 C 0.28931 0.36951 0.15216 0.0
C1919 C 0.26058 0.33366 0.15545 0.0
C1920 C 0.26764 0.3025 0.15544 0.0
C1921 C 0.30252 0.30713 0.15232 0.0
C1922 C 0.15718 0.28844 0.16372 0.0
C1923 C 0.16004 0.31735 0.16932 0.0
C1924 C 0.18921 0.29438 0.15885 0.0
C1925 C 0.22472 0.32932 0.15948 0.0
C1926 C 0.22651 0.35909 0.16462 0.0
C1927 C 0.19458 0.35319 0.16946 0.0
H1928 H 0.63085 0.81847 0.17254 0.0
H1929 H 0.74894 0.87231 0.16361 0.0
H1930 H 0.62099 0.86446 0.16434 0.0
H1931 H 0.73871 0.91786 0.15512 0.0
H1932 H 0.72409 0.02535 0.15368 0.0
H1933 H 0.73238 0.97262 0.15887 0.0
H1934 H 0.61572 0.89055 0.15101 0.0
H1935 H 0.60734 0.94375 0.14592 0.0
C1936 C 0.65443 0.83949 0.16862 0.0
C1937 C 0.69081 0.84199 0.1688 0.0
C1938 C 0.64871 0.86585 0.16387 0.0
C1939 C 0.67921 0.89536 0.15916 0.0
C1940 C 0.71481 0.89601 0.15883 0.0
C1941 C 0.72056 0.86959 0.1636 0.0
C1942 C 0.70034 0.99605 0.15296 0.0
C1943 C 0.665 0.98882 0.14941 0.0
C1944 C 0.70517 0.96569 0.15589 0.0
C1945 C 0.67483 0.92717 0.15532 0.0
C1946 C 0.6396 0.91986 0.15164 0.0
C1947 C 0.6347 0.95034 0.14875 0.0
H1948 H 0.19669 0.81718 0.17051 0.0
H1949 H 0.12608 0.86867 0.16534 0.0
H1950 H 0.15308 0.76084 0.162 0.0
H1951 H 0.08158 0.81177 0.15709 0.0
H1952 H 0.01545 0.71051 0.13924 0.0
H1953 H 0.06793 0.77109 0.14487 0.0
H1954 H 0.09015 0.70738 0.16428 0.0
H1955 H 0.03822 0.64696 0.15852 0.0
C1956 C 0.17217 0.81671 0.16742 0.0
C1957 C 0.16473 0.84725 0.16861 0.0
C1958 C 0.14691 0.78423 0.16262 0.0
C1959 C 0.11332 0.7813 0.15899 0.0
C1960 C 0.10726 0.81304 0.15973 0.0
C1961 C 0.13282 0.84577 0.16446 0.0
C1962 C 0.03162 0.70951 0.1447 0.0
C1963 C 0.02253 0.67394 0.14847 0.0
C1964 C 0.06172 0.74425 0.14794 0.0
C1965 C 0.08335 0.74429 0.15505 0.0
C1966 C 0.07469 0.70856 0.1587 0.0
C1967 C 0.04478 0.67382 0.15542 0.0
H1968 H 0.40373 0.34309 0.34836 0.0
H1969 H 0.28602 0.30712 0.34131 0.0
H1970 H 0.39535 0.28184 0.34299 0.0
H1971 H 0.27772 0.24651 0.33584 0.0
H1972 H 0.26117 0.12995 0.33072 0.0
H1973 H 0.27201 0.18562 0.33934 0.0
H1974 H 0.38887 0.25037 0.32963 0.0
H1975 H 0.37846 0.1946 0.32132 0.0
C1976 C 0.37616 0.32221 0.34562 0.0
C1977 C 0.34557 0.33003 0.34527 0.0
C1978 C 0.37127 0.28703 0.34257 0.0
C1979 C 0.33573 0.25896 0.33902 0.0
C1980 C 0.30517 0.26686 0.33871 0.0
C1981 C 0.31 0.30182 0.34181 0.0
C1982 C 0.28951 0.15568 0.33064 0.0
C1983 C 0.31884 0.15795 0.32527 0.0
C1984 C 0.29561 0.18781 0.33549 0.0
C1985 C 0.33112 0.22284 0.33507 0.0
C1986 C 0.36123 0.22398 0.33018 0.0
C1987 C 0.35518 0.19193 0.32536 0.0
H1988 H 0.64789 0.03632 0.33559 0.0
H1989 H 0.71019 0.01208 0.35491 0.0
H1990 H 0.70873 0.08808 0.32994 0.0
H1991 H 0.77118 0.06431 0.34938 0.0
H1992 H 0.86958 0.12301 0.32896 0.0
H1993 H 0.81244 0.07843 0.33718 0.0
H1994 H 0.76234 0.1508 0.33245 0.0
H1995 H 0.81889 0.19446 0.32399 0.0
C1996 C 0.67455 0.04249 0.33873 0.0
C1997 C 0.67415 0.01987 0.34566 0.0
C1998 C 0.70954 0.07231 0.33551 0.0
C1999 C 0.74506 0.08052 0.3392 0.0
C2000 C 0.74453 0.05848 0.34628 0.0
C2001 C 0.70952 0.0285 0.34946 0.0
C2002 C 0.84685 0.12995 0.3299 0.0
C2003 C 0.84859 0.16211 0.32581 0.0
C2004 C 0.81395 0.10432 0.3346 0.0
C2005 C 0.78233 0.11057 0.33536 0.0
C2006 C 0.78561 0.14447 0.33181 0.0
C2007 C 0.81823 0.16977 0.32705 0.0
H2008 H 0.88187 0.74576 0.32925 0.0
H2009 H 0.81212 0.62415 0.32341 0.0
H2010 H 0.92505 0.73252 0.3378 0.0
H2011 H 0.85442 0.6106 0.33218 0.0
H2012 H 0.96886 0.61153 0.33645 0.0
H2013 H 0.91801 0.62069 0.33031 0.0
H2014 H 0.93618 0.70377 0.35014 0.0
H2015 H 0.98751 0.69491 0.35619 0.0
C2016 C 0.87503 0.71604 0.33003 0.0
C2017 C 0.84376 0.686 0.32562 0.0
C2018 C 0.89982 0.70839 0.33493 0.0
C2019 C 0.89364 0.67051 0.33557 0.0
C2020 C 0.86067 0.64021 0.33165 0.0
C2021 C 0.83617 0.64791 0.3267 0.0
C2022 C 0.96162 0.63131 0.33957 0.0
C2023 C 0.98243 0.65266 0.34677 0.0
C2024 C 0.93234 0.63654 0.33607 0.0
C2025 C 0.9229 0.66304 0.33972 0.0
C2026 C 0.94305 0.6836 0.34707 0.0
C2027 C 0.97249 0.67853 0.35055 0.0
H2028 H 0.81869 0.6341 0.82327 0.0
H2029 H 0.86734 0.75692 0.82715 0.0
H2030 H 0.76188 0.62162 0.83154 0.0
H2031 H 0.80992 0.74457 0.83522 0.0
H2032 H 0.71152 0.70823 0.85421 0.0
H2033 H 0.77188 0.71819 0.84799 0.0
H2034 H 0.70699 0.62935 0.82921 0.0
H2035 H 0.64682 0.61913 0.83552 0.0
C2036 C 0.81735 0.65843 0.82596 0.0
C2037 C 0.84735 0.69649 0.82453 0.0
C2038 C 0.78466 0.65129 0.83064 0.0
C2039 C 0.78102 0.68208 0.83395 0.0
C2040 C 0.81187 0.72013 0.83284 0.0
C2041 C 0.84479 0.72725 0.8282 0.0
C2042 C 0.71021 0.69088 0.84875 0.0
C2043 C 0.6744 0.66299 0.84533 0.0
C2044 C 0.7448 0.69659 0.84518 0.0
C2045 C 0.74436 0.67464 0.83809 0.0
C2046 C 0.70847 0.64632 0.83476 0.0
C2047 C 0.67391 0.64047 0.83836 0.0
H2048 H 0.37989 0.19665 0.82186 0.0
H2049 H 0.25744 0.12718 0.82681 0.0
H2050 H 0.39138 0.15159 0.83012 0.0
H2051 H 0.26863 0.08128 0.83484 0.0
H2052 H 0.30266 0.01409 0.85277 0.0
H2053 H 0.29503 0.0667 0.84708 0.0
H2054 H 0.38103 0.08827 0.82771 0.0
H2055 H 0.38898 0.03605 0.83352 0.0
C2056 C 0.35548 0.17203 0.82485 0.0
C2057 C 0.31777 0.16543 0.82367 0.0
C2058 C 0.362 0.14594 0.8295 0.0
C2059 C 0.3309 0.11231 0.83302 0.0
C2060 C 0.29336 0.10694 0.83228 0.0
C2061 C 0.28688 0.13333 0.82768 0.0
C2062 C 0.31992 0.03007 0.8473 0.0
C2063 C 0.34629 0.02069 0.84357 0.0
C2064 C 0.31554 0.06027 0.84402 0.0
C2065 C 0.33731 0.08182 0.83691 0.0
C2066 C 0.36422 0.07285 0.83329 0.0
C2067 C 0.36876 0.04279 0.8366 0.0
H2068 H 0.82002 0.19073 0.82081 0.0
H2069 H 0.87006 0.12332 0.82994 0.0
H2070 H 0.86629 0.2456 0.82919 0.0
H2071 H 0.91582 0.17811 0.83865 0.0
H2072 H 0.02533 0.29914 0.84057 0.0
H2073 H 0.97202 0.23846 0.83533 0.0
H2074 H 0.89153 0.27613 0.84253 0.0
H2075 H 0.94528 0.33732 0.8476 0.0
C2076 C 0.84024 0.18726 0.82481 0.0
C2077 C 0.84163 0.15279 0.82463 0.0
C2078 C 0.86676 0.21879 0.82967 0.0
C2079 C 0.89528 0.21661 0.83452 0.0
C2080 C 0.89478 0.18109 0.83484 0.0
C2081 C 0.86822 0.14948 0.82994 0.0
C2082 C 0.99622 0.29427 0.84113 0.0
C2083 C 0.98958 0.32318 0.84444 0.0
C2084 C 0.96553 0.25931 0.83817 0.0
C2085 C 0.92731 0.25221 0.8385 0.0
C2086 C 0.9206 0.28077 0.84204 0.0
C2087 C 0.95139 0.31591 0.84494 0.0
H2088 H 0.60813 0.64376 0.64588 0.0
H2089 H 0.73172 0.69185 0.64556 0.0
H2090 H 0.61631 0.70233 0.6527 0.0
H2091 H 0.74028 0.74991 0.65277 0.0
H2092 H 0.74851 0.86077 0.6618 0.0
H2093 H 0.73747 0.80742 0.65231 0.0
H2094 H 0.63172 0.73208 0.66597 0.0
H2095 H 0.64173 0.78534 0.67504 0.0
C2096 C 0.63706 0.66682 0.64737 0.0
C2097 C 0.66926 0.66317 0.64529 0.0
C2098 C 0.64186 0.70044 0.65129 0.0
C2099 C 0.679 0.731 0.65339 0.0
C2100 C 0.71127 0.72745 0.65115 0.0
C2101 C 0.70643 0.69405 0.64708 0.0
C2102 C 0.72247 0.833 0.66261 0.0
C2103 C 0.6961 0.82733 0.6692 0.0
C2104 C 0.71634 0.80223 0.65725 0.0
C2105 C 0.68384 0.76509 0.65839 0.0
C2106 C 0.65678 0.76015 0.66476 0.0
C2107 C 0.6627 0.79084 0.67003 0.0
H2108 H 0.21184 0.81767 0.67454 0.0
H2109 H 0.14594 0.86816 0.66471 0.0
H2110 H 0.26619 0.86061 0.66557 0.0
H2111 H 0.20016 0.9105 0.65544 0.0
H2112 H 0.32188 0.01693 0.65202 0.0
H2113 H 0.26176 0.96634 0.6581 0.0
H2114 H 0.29514 0.8816 0.65185 0.0
H2115 H 0.35592 0.93277 0.64587 0.0
C2116 C 0.20858 0.83728 0.67028 0.0
C2117 C 0.17472 0.8398 0.67041 0.0
C2118 C 0.23979 0.86184 0.66508 0.0
C2119 C 0.23789 0.8895 0.65985 0.0
C2120 C 0.20292 0.8901 0.65952 0.0
C2121 C 0.17164 0.8655 0.66476 0.0
C2122 C 0.31622 0.98746 0.65183 0.0
C2123 C 0.34379 0.97893 0.64848 0.0
C2124 C 0.28154 0.95831 0.65528 0.0
C2125 C 0.27334 0.91972 0.65544 0.0
C2126 C 0.30064 0.91105 0.65193 0.0
C2127 C 0.33554 0.94035 0.64853 0.0
H2128 H 0.18609 0.36753 0.67093 0.0
H2129 H 0.13286 0.25079 0.66118 0.0
H2130 H 0.14207 0.37929 0.66254 0.0
H2131 H 0.08934 0.26306 0.6524 0.0
H2132 H 0.98303 0.27997 0.6504 0.0
H2133 H 0.0344 0.26925 0.6555 0.0
H2134 H 0.11866 0.38779 0.64939 0.0
H2135 H 0.06673 0.3986 0.64452 0.0
C2136 C 0.16561 0.34464 0.66679 0.0
C2137 C 0.16264 0.30806 0.6668 0.0
C2138 C 0.14041 0.3515 0.66191 0.0
C2139 C 0.11165 0.322 0.65685 0.0
C2140 C 0.1106 0.28621 0.65636 0.0
C2141 C 0.13586 0.27929 0.6613 0.0
C2142 C 0.01257 0.3036 0.65005 0.0
C2143 C 0.02081 0.34023 0.64712 0.0
C2144 C 0.04216 0.2974 0.65292 0.0
C2145 C 0.08086 0.32761 0.65287 0.0
C2146 C 0.08918 0.36398 0.64967 0.0
C2147 C 0.05946 0.37028 0.64689 0.0
H2148 H 0.79602 0.59147 0.50075 0.0
H2149 H 0.84743 0.71408 0.50531 0.0
H2150 H 0.85265 0.60331 0.49239 0.0
H2151 H 0.90344 0.72615 0.49676 0.0
H2152 H 0.95294 0.63913 0.47389 0.0
H2153 H 0.89256 0.63015 0.47987 0.0
H2154 H 0.95711 0.71664 0.49912 0.0
H2155 H 0.01731 0.72583 0.49307 0.0
C2156 C 0.81884 0.62104 0.49972 0.0
C2157 C 0.81742 0.65184 0.50371 0.0
C2158 C 0.8514 0.62788 0.49494 0.0
C2159 C 0.88301 0.66569 0.49402 0.0
C2160 C 0.88015 0.69661 0.49752 0.0
C2161 C 0.84785 0.68974 0.50235 0.0
C2162 C 0.95421 0.6562 0.4794 0.0
C2163 C 0.99001 0.68311 0.48302 0.0
C2164 C 0.91956 0.65105 0.48283 0.0
C2165 C 0.91982 0.67264 0.48998 0.0
C2166 C 0.95571 0.7 0.49351 0.0
C2167 C 0.99033 0.70526 0.49006 0.0
H2168 H 0.36228 0.32873 0.47396 0.0
H2169 H 0.27617 0.30719 0.49322 0.0
H2170 H 0.36993 0.27619 0.47971 0.0
H2171 H 0.28423 0.25519 0.49911 0.0
H2172 H 0.28608 0.14787 0.50544 0.0
H2173 H 0.27407 0.19202 0.49696 0.0
H2174 H 0.39657 0.26198 0.49189 0.0
H2175 H 0.40823 0.2169 0.50012 0.0
C2176 C 0.34508 0.31285 0.47945 0.0
C2177 C 0.31876 0.3223 0.48317 0.0
C2178 C 0.34947 0.2827 0.48275 0.0
C2179 C 0.3278 0.26134 0.4899 0.0
C2180 C 0.30094 0.27041 0.49351 0.0
C2181 C 0.29635 0.30037 0.49016 0.0
C2182 C 0.3103 0.17217 0.50232 0.0
C2183 C 0.34808 0.17895 0.50345 0.0
C2184 C 0.30349 0.19776 0.49754 0.0
C2185 C 0.33439 0.23109 0.49387 0.0
C2186 C 0.37198 0.23653 0.49456 0.0
C2187 C 0.37872 0.21061 0.49927 0.0
H2188 H 0.72313 1.00253 0.48016 0.0
H2189 H 0.64174 0.03895 0.48725 0.0
H2190 H 0.77626 0.06405 0.48532 0.0
H2191 H 0.69438 0.0999 0.49251 0.0
H2192 H 0.79501 0.21656 0.49739 0.0
H2193 H 0.74967 0.16065 0.4889 0.0
H2194 H 0.80166 0.09585 0.49861 0.0
H2195 H 0.84749 0.15183 0.50679 0.0
C2196 C 0.71657 0.02357 0.48286 0.0
C2197 C 0.67817 0.01577 0.48331 0.0
C2198 C 0.74701 0.05891 0.4858 0.0
C2199 C 0.73975 0.08718 0.48931 0.0
C2200 C 0.70131 0.07936 0.48967 0.0
C2201 C 0.671 0.04421 0.48669 0.0
C2202 C 0.79748 0.19076 0.49749 0.0
C2203 C 0.82465 0.18854 0.50282 0.0
C2204 C 0.77116 0.15849 0.49271 0.0
C2205 C 0.77147 0.12339 0.49318 0.0
C2206 C 0.80054 0.12229 0.49803 0.0
C2207 C 0.82681 0.15446 0.50277 0.0
H2208 H 0.05457 0.52472 0.65506 0.0
H2209 H 0.9396 0.46121 0.66578 0.0
H2210 H 0.06755 0.58081 0.66357 0.0
H2211 H 0.9531 0.51717 0.6746 0.0
H2212 H 0.96838 0.63899 0.67696 0.0
H2213 H 0.9584 0.578 0.67134 0.0
H2214 H 0.07748 0.6131 0.67694 0.0
H2215 H 0.08752 0.67477 0.68246 0.0
C2216 C 0.0324 0.52235 0.65943 0.0
C2217 C 0.99587 0.48862 0.65966 0.0
C2218 C 0.03995 0.55459 0.66436 0.0
C2219 C 0.01119 0.5539 0.66968 0.0
C2220 C 0.97565 0.51905 0.67042 0.0
C2221 C 0.96804 0.48674 0.66545 0.0
C2222 C 0.99235 0.63358 0.67709 0.0
C2223 C 0.02878 0.66184 0.68016 0.0
C2224 C 0.98656 0.59838 0.67391 0.0
C2225 C 0.01701 0.59029 0.67374 0.0
C2226 C 0.05343 0.61842 0.67689 0.0
C2227 C 0.05928 0.65385 0.68004 0.0
H2228 H 0.53369 0.46352 0.65655 0.0
H2229 H 0.46993 0.51656 0.64689 0.0
H2230 H 0.47954 0.42164 0.6657 0.0
H2231 H 0.41614 0.47585 0.65637 0.0
H2232 H 0.31025 0.35919 0.66373 0.0
H2233 H 0.36696 0.41093 0.65665 0.0
H2234 H 0.43893 0.41115 0.6774 0.0
H2235 H 0.38213 0.35831 0.68424 0.0
C2236 C 0.50861 0.46723 0.6566 0.0
C2237 C 0.50604 0.49325 0.65095 0.0
C2238 C 0.47737 0.4431 0.66187 0.0
C2239 C 0.44297 0.44478 0.66171 0.0
C2240 C 0.44165 0.47291 0.65651 0.0
C2241 C 0.47268 0.49663 0.65114 0.0
C2242 C 0.33816 0.37066 0.6668 0.0
C2243 C 0.34182 0.35448 0.67449 0.0
C2244 C 0.37077 0.40054 0.66278 0.0
C2245 C 0.40784 0.41538 0.66642 0.0
C2246 C 0.41113 0.40004 0.67429 0.0
C2247 C 0.37857 0.36978 0.67824 0.0
H2248 H 0.55827 0.06603 0.66149 0.0
H2249 H 0.48684 0.94498 0.65532 0.0
H2250 H 0.60062 0.05133 0.66992 0.0
H2251 H 0.52825 0.92989 0.66402 0.0
H2252 H 0.64225 0.92891 0.66798 0.0
H2253 H 0.59085 0.93821 0.66216 0.0
H2254 H 0.61199 0.02228 0.68199 0.0
H2255 H 0.664 0.0135 0.68762 0.0
C2256 C 0.55084 0.0361 0.66219 0.0
C2257 C 0.51941 0.00667 0.65771 0.0
C2258 C 0.57517 0.02759 0.66703 0.0
C2259 C 0.56829 0.98942 0.66754 0.0
C2260 C 0.53505 0.9597 0.66358 0.0
C2261 C 0.51105 0.96828 0.65867 0.0
C2262 C 0.63548 0.94892 0.67115 0.0
C2263 C 0.65741 0.97076 0.67819 0.0
C2264 C 0.6059 0.95422 0.66785 0.0
C2265 C 0.59726 0.98119 0.67158 0.0
C2266 C 0.61828 1.00186 0.67884 0.0
C2267 C 0.64807 0.99681 0.68208 0.0
H2268 H 0.33041 0.93672 0.18109 0.0
H2269 H 0.36692 0.05444 0.17388 0.0
H2270 H 0.3917 0.94481 0.17586 0.0
H2271 H 0.42767 0.06246 0.16855 0.0
H2272 H 0.54421 0.07798 0.16377 0.0
H2273 H 0.48832 0.06772 0.17222 0.0
H2274 H 0.42312 0.95094 0.16248 0.0
H2275 H 0.47909 0.96079 0.15432 0.0
C2276 C 0.35142 0.96424 0.17835 0.0
C2277 C 0.34372 0.9949 0.17789 0.0
C2278 C 0.38662 0.96896 0.17537 0.0
C2279 C 0.41483 0.00438 0.17181 0.0
C2280 C 0.40714 0.03507 0.17143 0.0
C2281 C 0.37212 0.03042 0.17445 0.0
C2282 C 0.5183 0.04979 0.16364 0.0
C2283 C 0.516 0.02031 0.15832 0.0
C2284 C 0.48607 0.04402 0.1684 0.0
C2285 C 0.45091 0.00869 0.16792 0.0
C2286 C 0.44964 0.97844 0.16306 0.0
C2287 C 0.4818 0.98416 0.15833 0.0
H2288 H 0.92645 0.45726 0.16194 0.0
H2289 H 0.04827 0.52706 0.15634 0.0
H2290 H 0.93923 0.4136 0.17044 0.0
H2291 H 0.06138 0.48431 0.16506 0.0
H2292 H 0.05998 0.36946 0.16901 0.0
H2293 H 0.0513 0.42088 0.16302 0.0
H2294 H 0.9673 0.4014 0.18274 0.0
H2295 H 0.97566 0.34949 0.18862 0.0
C2296 C 0.95612 0.46404 0.16278 0.0
C2297 C 0.98636 0.49544 0.15844 0.0
C2298 C 0.9635 0.43895 0.16764 0.0
C2299 C 1.00132 0.445 0.16832 0.0
C2300 C 0.03181 0.47815 0.1645 0.0
C2301 C 0.02437 0.50292 0.15957 0.0
C2302 C 0.0401 0.37653 0.17214 0.0
C2303 C 0.01834 0.35518 0.17925 0.0
C2304 C 0.03515 0.40615 0.16872 0.0
C2305 C 0.00853 0.4154 0.17239 0.0
C2306 C 0.98756 0.39471 0.17966 0.0
C2307 C 0.99236 0.36493 0.18304 0.0
H2308 H 0.55145 0.46661 0.16211 0.0
H2309 H 0.47784 0.51563 0.15812 0.0
H2310 H 0.59643 0.52387 0.17025 0.0
H2311 H 0.52199 0.5723 0.16647 0.0
H2312 H 0.63591 0.68773 0.16926 0.0
H2313 H 0.58421 0.62668 0.16369 0.0
H2314 H 0.61104 0.56457 0.18262 0.0
H2315 H 0.66309 0.62575 0.1881 0.0
C2316 C 0.54417 0.48898 0.16325 0.0
C2317 C 0.51122 0.48674 0.15946 0.0
C2318 C 0.57003 0.52194 0.16789 0.0
C2319 C 0.56326 0.55315 0.16889 0.0
C2320 C 0.5287 0.54936 0.16564 0.0
C2321 C 0.50313 0.51667 0.16094 0.0
C2322 C 0.63043 0.6611 0.17231 0.0
C2323 C 0.65385 0.66169 0.17908 0.0
C2324 C 0.60067 0.62598 0.16913 0.0
C2325 C 0.59333 0.59051 0.1727 0.0
C2326 C 0.61619 0.5912 0.17962 0.0
C2327 C 0.64608 0.62633 0.18276 0.0
H2328 H 0.38691 0.03377 0.98551 0.0
H2329 H 0.26794 0.99627 0.97933 0.0
H2330 H 0.39499 0.09395 0.99122 0.0
H2331 H 0.27607 0.05699 0.98498 0.0
H2332 H 0.29457 0.14346 0.00696 0.0
H2333 H 0.28407 0.08785 -0.00144 0.0
H2334 H 0.39894 0.15446 0.98788 0.0
H2335 H 0.40991 0.21002 0.99656 0.0
C2336 C 0.36259 0.03862 0.98525 0.0
C2337 C 0.32674 0.0101 0.98197 0.0
C2338 C 0.36728 0.07331 0.98849 0.0
C2339 C 0.33628 0.08059 0.98852 0.0
C2340 C 0.30049 0.05224 0.98515 0.0
C2341 C 0.29575 0.01736 0.98193 0.0
C2342 C 0.31738 0.14654 0.0027 0.0
C2343 C 0.35323 0.18107 0.0025 0.0
C2344 C 0.31125 0.1146 -0.00217 0.0
C2345 C 0.34082 0.11638 0.99262 0.0
C2346 C 0.3758 0.15182 0.99197 0.0
C2347 C 0.38195 0.18385 0.99686 0.0
H2348 H 0.80315 0.21928 -0.00165 0.0
H2349 H 0.85277 0.14643 0.00273 0.0
H2350 H 0.85985 0.26346 0.98994 0.0
H2351 H 0.90886 0.18976 0.99412 0.0
H2352 H 0.02382 0.30369 0.99072 0.0
H2353 H 0.96319 0.25245 0.99658 0.0
H2354 H 0.89983 0.27666 0.97747 0.0
H2355 H 0.9606 0.32827 0.9717 0.0
C2356 C 0.82553 0.21198 -0.00275 0.0
C2357 C 0.82364 0.17952 0.00122 0.0
C2358 C 0.85816 0.23737 0.99245 0.0
C2359 C 0.88937 0.23059 0.99148 0.0
C2360 C 0.88591 0.19646 0.99492 0.0
C2361 C 0.85355 0.17137 -0.00023 0.0
C2362 C 0.99701 0.29772 0.9877 0.0
C2363 C 0.99712 0.32029 0.98078 0.0
C2364 C 0.96214 0.26822 0.99104 0.0
C2365 C 0.92645 0.26031 0.9875 0.0
C2366 C 0.92665 0.28228 0.98044 0.0
C2367 C 0.96154 0.31192 0.97713 0.0
H2368 H 0.85095 0.71295 0.00677 0.0
H2369 H 0.80325 0.59796 0.99624 0.0
H2370 H 0.80602 0.72332 -0.00169 0.0
H2371 H 0.75887 0.60884 0.98747 0.0
H2372 H 0.64926 0.61969 0.98538 0.0
H2373 H 0.70195 0.61176 0.99075 0.0
H2374 H 0.7828 0.73161 0.98494 0.0
H2375 H 0.72957 0.73957 0.97971 0.0
C2376 C 0.83155 0.69022 0.00245 0.0
C2377 C 0.83035 0.65444 0.00226 0.0
C2378 C 0.80582 0.69627 -0.00245 0.0
C2379 C 0.77831 0.66672 0.99229 0.0
C2380 C 0.77912 0.63194 0.9916 0.0
C2381 C 0.80488 0.62584 0.99653 0.0
C2382 C 0.67833 0.64423 0.98515 0.0
C2383 C 0.68517 0.68032 0.98216 0.0
C2384 C 0.70868 0.63964 0.98819 0.0
C2385 C 0.74679 0.67098 0.98826 0.0
C2386 C 0.75377 0.70694 0.98509 0.0
C2387 C 0.72328 0.71158 0.98211 0.0
H2388 H 0.68839 0.05349 0.82413 0.0
H2389 H 0.62566 0.9644 0.80531 0.0
H2390 H 0.62767 0.04478 0.82975 0.0
H2391 H 0.56477 0.95597 0.81083 0.0
H2392 H 0.4662 0.91941 0.83108 0.0
H2393 H 0.52345 0.93058 0.82308 0.0
H2394 H 0.57418 0.05371 0.827 0.0
H2395 H 0.51754 0.04226 0.83523 0.0
C2396 C 0.66166 0.03247 0.8211 0.0
C2397 C 0.66196 0.00954 0.81431 0.0
C2398 C 0.62672 0.0275 0.8243 0.0
C2399 C 0.5911 0.99966 0.82074 0.0
C2400 C 0.59149 0.97726 0.81382 0.0
C2401 C 0.62646 0.98209 0.81066 0.0
C2402 C 0.48912 0.9489 0.83001 0.0
C2403 C 0.48747 0.97997 0.8338 0.0
C2404 C 0.52208 0.95537 0.82544 0.0
C2405 C 0.5539 0.99307 0.82451 0.0
C2406 C 0.55078 0.02424 0.82778 0.0
C2407 C 0.5181 0.01774 0.83241 0.0
H2408 H 0.01838 0.6529 0.80774 0.0
H2409 H 0.94285 0.61664 0.82972 0.0
H2410 H 0.03016 0.59848 0.81003 0.0
H2411 H 0.9539 0.56264 0.83198 0.0
H2412 H 0.96049 0.45905 0.83351 0.0
H2413 H 0.94364 0.50103 0.82554 0.0
H2414 H 0.06485 0.58419 0.82224 0.0
H2415 H 0.08173 0.54171 0.83011 0.0
C2416 C 0.0037 0.63271 0.81292 0.0
C2417 C 0.97989 0.63873 0.81859 0.0
C2418 C 0.0105 0.60183 0.81425 0.0
C2419 C 0.99276 0.57616 0.82115 0.0
C2420 C 0.96751 0.58144 0.82653 0.0
C2421 C 0.96138 0.61248 0.82529 0.0
C2422 C 0.98353 0.48561 0.8308 0.0
C2423 C 0.02236 0.49738 0.83252 0.0
C2424 C 0.97389 0.50971 0.82626 0.0
C2425 C 1.00291 0.54624 0.82344 0.0
C2426 C 0.04186 0.55616 0.82433 0.0
C2427 C 0.05154 0.5318 0.82883 0.0
H2428 H 0.47014 0.54506 0.83071 0.0
H2429 H 0.51755 0.47674 0.84077 0.0
H2430 H 0.42567 0.49056 0.82179 0.0
H2431 H 0.47253 0.42214 0.83211 0.0
H2432 H 0.39694 0.33259 0.81259 0.0
H2433 H 0.44988 0.39273 0.81836 0.0
H2434 H 0.36865 0.4301 0.82505 0.0
H2435 H 0.31617 0.37047 0.81921 0.0
C2436 C 0.47168 0.51874 0.83088 0.0
C2437 C 0.49713 0.51511 0.83651 0.0
C2438 C 0.44588 0.48733 0.82584 0.0
C2439 C 0.44503 0.45169 0.82633 0.0
C2440 C 0.47243 0.4491 0.83151 0.0
C2441 C 0.49818 0.48045 0.83653 0.0
C2442 C 0.39046 0.35365 0.81531 0.0
C2443 C 0.35231 0.34667 0.81546 0.0
C2444 C 0.4208 0.38819 0.81859 0.0
C2445 C 0.41363 0.41643 0.82213 0.0
C2446 C 0.37548 0.4095 0.82219 0.0
C2447 C 0.34527 0.37514 0.81888 0.0
H2448 H 0.71282 0.85367 0.99135 0.0
H2449 H 0.59052 0.8038 0.99606 0.0
H2450 H 0.72572 0.91063 -0.00035 0.0
H2451 H 0.60312 0.86131 0.00412 0.0
H2452 H 0.63857 0.96434 0.0215 0.0
H2453 H 0.62997 0.90302 0.01624 0.0
H2454 H 0.71698 0.96432 0.99686 0.0
H2455 H 0.7259 0.02551 0.00223 0.0
C2456 C 0.68875 0.85459 0.99432 0.0
C2457 C 0.65069 0.82436 0.99305 0.0
C2458 C 0.69608 0.88744 -0.00101 0.0
C2459 C 0.66544 0.89105 0.00241 0.0
C2460 C 0.6275 0.85954 0.00163 0.0
C2461 C 0.62022 0.82643 -0.00297 0.0
C2462 C 0.65586 0.96468 0.01612 0.0
C2463 C 0.68276 0.99983 0.01224 0.0
C2464 C 0.65094 0.9295 0.0131 0.0
C2465 C 0.67269 0.92855 0.00611 0.0
C2466 C 0.70019 0.96384 0.00236 0.0
C2467 C 0.70527 0.99903 0.00541 0.0
H2468 H 0.98078 0.70503 0.00179 0.0
H2469 H 0.04606 0.68619 0.02133 0.0
H2470 H 0.04061 0.75608 0.9956 0.0
H2471 H 0.10607 0.73773 0.01524 0.0
H2472 H 0.20214 0.79316 0.99429 0.0
H2473 H 0.14586 0.74946 0.00284 0.0
H2474 H 0.09396 0.81971 -0.00252 0.0
H2475 H 0.14967 0.86253 0.98871 0.0
C2476 C 0.00788 0.71226 0.00485 0.0
C2477 C 0.00862 0.69135 0.01202 0.0
C2478 C 0.04229 0.74166 0.00132 0.0
C2479 C 0.07834 0.75114 0.00491 0.0
C2480 C 0.07896 0.73085 0.01222 0.0
C2481 C 0.04453 0.70128 0.01572 0.0
C2482 C 0.17916 0.7998 0.99513 0.0
C2483 C 0.18019 0.83113 0.9908 0.0
C2484 C 0.14679 0.7747 3e-05 0.0
C2485 C 0.11496 0.78064 0.00075 0.0
C2486 C 0.11743 0.81365 0.9969 0.0
C2487 C 0.14955 0.83845 0.99194 0.0
H2488 H 0.2168 0.41905 0.99396 0.0
H2489 H 0.14389 0.29646 0.98968 0.0
H2490 H 0.26125 0.40673 0.00227 0.0
H2491 H 0.18744 0.28386 -0.00177 0.0
H2492 H 0.30109 0.28245 0.0017 0.0
H2493 H 0.24964 0.29155 0.99587 0.0
H2494 H 0.27519 0.38078 0.01466 0.0
H2495 H 0.32708 0.372 0.02037 0.0
C2496 C 0.20955 0.38938 0.99506 0.0
C2497 C 0.17696 0.35872 0.99115 0.0
C2498 C 0.2351 0.38224 -0.00018 0.0
C2499 C 0.22836 0.34427 0.00081 0.0
C2500 C 0.19414 0.31351 -0.00258 0.0
C2501 C 0.16891 0.32068 0.9926 0.0
C2502 C 0.29536 0.30361 0.00466 0.0
C2503 C 0.3184 0.32668 0.01145 0.0
C2504 C 0.26573 0.30881 0.00133 0.0
C2505 C 0.25815 0.337 0.00478 0.0
C2506 C 0.28055 0.35929 0.01175 0.0
C2507 C 0.31034 0.35425 0.01502 0.0
H2508 H 0.97771 0.28883 0.50292 0.0
H2509 H 0.04084 0.37567 0.52216 0.0
H2510 H 0.03831 0.29783 0.49716 0.0
H2511 H 0.10157 0.38448 0.51646 0.0
H2512 H 0.19938 0.42306 0.49586 0.0
H2513 H 0.14236 0.41124 0.50406 0.0
H2514 H 0.0919 0.28837 0.49979 0.0
H2515 H 0.14833 0.30044 0.4914 0.0
C2516 C 0.00447 0.3094 0.50601 0.0
C2517 C 0.00433 0.33166 0.51297 0.0
C2518 C 0.03934 0.31454 0.50272 0.0
C2519 C 0.075 0.34192 0.50634 0.0
C2520 C 0.07478 0.36358 0.51343 0.0
C2521 C 0.0399 0.35853 0.51669 0.0
C2522 C 0.17659 0.39348 0.49689 0.0
C2523 C 0.17822 0.36268 0.49296 0.0
C2524 C 0.14378 0.38665 0.50157 0.0
C2525 C 0.11211 0.34885 0.50246 0.0
C2526 C 0.11522 0.31791 0.49905 0.0
C2527 C 0.14777 0.32477 0.49433 0.0
H2528 H 0.70822 0.8687 0.49088 0.0
H2529 H 0.58599 0.79751 0.49589 0.0
H2530 H 0.7209 0.82491 0.49933 0.0
H2531 H 0.59831 0.75285 0.50407 0.0
H2532 H 0.63203 0.68564 0.5217 0.0
H2533 H 0.62477 0.73883 0.51624 0.0
H2534 H 0.71196 0.76224 0.49704 0.0
H2535 H 0.71972 0.70959 0.50268 0.0
C2536 C 0.68413 0.84402 0.49393 0.0
C2537 C 0.64614 0.83648 0.49271 0.0
C2538 C 0.69133 0.81866 0.49869 0.0
C2539 C 0.66061 0.78488 0.50226 0.0
C2540 C 0.62278 0.77869 0.50149 0.0
C2541 C 0.61564 0.80435 0.4968 0.0
C2542 C 0.64968 0.70226 0.51632 0.0
C2543 C 0.67621 0.69324 0.51256 0.0
C2544 C 0.64552 0.73275 0.51319 0.0
C2545 C 0.66758 0.75482 0.50616 0.0
C2546 C 0.69489 0.74638 0.50255 0.0
C2547 C 0.69929 0.71608 0.50575 0.0
H2548 H 0.20679 0.80418 0.49645 0.0
H2549 H 0.1363 0.85583 0.49134 0.0
H2550 H 0.25121 0.86092 0.50478 0.0
H2551 H 0.1798 0.91198 0.49991 0.0
H2552 H 0.29462 0.02587 0.50341 0.0
H2553 H 0.24269 0.96547 0.49763 0.0
H2554 H 0.26505 0.90168 0.517 0.0
H2555 H 0.3175 0.96225 0.52265 0.0
C2556 C 0.20003 0.82705 0.49737 0.0
C2557 C 0.16819 0.82568 0.49321 0.0
C2558 C 0.22556 0.85971 0.50214 0.0
C2559 C 0.21954 0.89148 0.5029 0.0
C2560 C 0.18596 0.88859 0.49927 0.0
C2561 C 0.16075 0.8562 0.49444 0.0
C2562 C 0.28809 0.999 0.5065 0.0
C2563 C 0.31039 0.99889 0.51344 0.0
C2564 C 0.25817 0.96426 0.50321 0.0
C2565 C 0.24955 0.9285 0.50684 0.0
C2566 C 0.27122 0.92853 0.51395 0.0
C2567 C 0.30132 0.96328 0.51719 0.0
H2568 H 0.94739 0.31355 0.32564 0.0
H2569 H 0.03147 0.378 0.306 0.0
H2570 H 0.95611 0.37363 0.33166 0.0
H2571 H 0.03992 0.43828 0.31192 0.0
H2572 H 0.08056 0.53483 0.33286 0.0
H2573 H 0.06797 0.47861 0.32427 0.0
H2574 H 0.94574 0.42683 0.32957 0.0
H2575 H 0.95866 0.48245 0.33837 0.0
C2576 C 0.96724 0.34051 0.32252 0.0
C2577 C 0.98888 0.34094 0.31538 0.0
C2578 C 0.97221 0.37507 0.32594 0.0
C2579 C 0.99875 0.41097 0.32228 0.0
C2580 C 0.01968 0.41129 0.31499 0.0
C2581 C 0.01484 0.3767 0.3116 0.0
C2582 C 0.05092 0.51193 0.33197 0.0
C2583 C 0.0206 0.51289 0.33632 0.0
C2584 C 0.04365 0.47958 0.32706 0.0
C2585 C 0.00586 0.44776 0.32635 0.0
C2586 C 0.97529 0.45029 0.33017 0.0
C2587 C 0.98262 0.48236 0.33513 0.0
H2588 H 0.46551 0.53839 0.33097 0.0
H2589 H 0.53142 0.48878 0.34126 0.0
H2590 H 0.52128 0.58308 0.32235 0.0
H2591 H 0.58725 0.53399 0.33293 0.0
H2592 H 0.67936 0.60982 0.31385 0.0
H2593 H 0.6184 0.5572 0.3194 0.0
H2594 H 0.58183 0.63939 0.32576 0.0
H2595 H 0.64225 0.69151 0.32014 0.0
C2596 C 0.49158 0.53644 0.33125 0.0
C2597 C 0.49412 0.51024 0.33685 0.0
C2598 C 0.52374 0.56238 0.3264 0.0
C2599 C 0.55906 0.56264 0.32705 0.0
C2600 C 0.56059 0.53459 0.33221 0.0
C2601 C 0.52853 0.50871 0.33704 0.0
C2602 C 0.6583 0.61657 0.31645 0.0
C2603 C 0.66574 0.6549 0.31656 0.0
C2604 C 0.62328 0.58642 0.31961 0.0
C2605 C 0.59499 0.59393 0.323 0.0
C2606 C 0.60243 0.63227 0.32303 0.0
C2607 C 0.63726 0.66229 0.31984 0.0
H2608 H 0.31404 0.95141 0.31882 0.0
H2609 H 0.39662 0.06967 0.31234 0.0
H2610 H 0.36586 0.9423 0.32429 0.0
H2611 H 0.449 0.06048 0.31765 0.0
H2612 H 0.5179 0.04242 0.33933 0.0
H2613 H 0.47312 0.05321 0.33093 0.0
H2614 H 0.42109 0.93656 0.32109 0.0
H2615 H 0.46532 0.9253 0.32982 0.0
C2616 C 0.34341 0.97533 0.31844 0.0
C2617 C 0.35116 0.01133 0.31518 0.0
C2618 C 0.37327 0.97004 0.32153 0.0
C2619 C 0.41181 1.00056 0.32139 0.0
C2620 C 0.41965 0.03643 0.31797 0.0
C2621 C 0.38965 0.0418 0.31494 0.0
C2622 C 0.49742 0.01925 0.33524 0.0
C2623 C 0.49489 0.98284 0.33533 0.0
C2624 C 0.47177 0.02553 0.33037 0.0
C2625 C 0.44297 0.99561 0.32541 0.0
C2626 C 0.44234 0.96002 0.32499 0.0
C2627 C 0.46803 0.95368 0.3299 0.0
H2628 H 0.95507 0.14968 0.26684 0.0
H2629 H 0.99718 0.27212 0.2694 0.0
H2630 H 0.97419 0.15907 0.25178 0.0
H2631 H 0.01521 0.28133 0.25427 0.0
H2632 H 0.08205 0.28765 0.22974 0.0
H2633 H 0.06301 0.27844 0.2448 0.0
H2634 H 0.95532 0.17622 0.23819 0.0
H2635 H 0.97422 0.18552 0.22312 0.0
C2636 C 0.96846 0.1786 0.26419 0.0
C2637 C 0.9747 0.21018 0.26931 0.0
C2638 C 0.97903 0.18391 0.25554 0.0
C2639 C 0.99618 0.22093 0.25184 0.0
C2640 C 1.00239 0.25251 0.25696 0.0
C2641 C 0.99169 0.24718 0.2656 0.0
C2642 C 0.05415 0.26343 0.23149 0.0
C2643 C 0.02964 0.23733 0.22523 0.0
C2644 C 0.04326 0.25815 0.24011 0.0
C2645 C 0.00767 0.22661 0.24267 0.0
C2646 C 0.98317 0.20049 0.23642 0.0
C2647 C 0.99402 0.20581 0.22779 0.0
H2648 H 0.8176 0.78787 0.22337 0.0
H2649 H 0.71278 0.78934 0.22942 0.0
H2650 H 0.82621 0.77887 0.2385 0.0
H2651 H 0.72147 0.78051 0.24457 0.0
H2652 H 0.72941 0.72535 0.26969 0.0
H2653 H 0.72 0.73275 0.2545 0.0
H2654 H 0.84203 0.81467 0.25187 0.0
H2655 H 0.85169 0.80605 0.26695 0.0
C2656 C 0.79655 0.78654 0.22795 0.0
C2657 C 0.76455 0.78939 0.2252 0.0
C2658 C 0.80149 0.78142 0.23661 0.0
C2659 C 0.77459 0.77909 0.24275 0.0
C2660 C 0.74243 0.78166 0.24 0.0
C2661 C 0.73745 0.78672 0.23132 0.0
C2662 C 0.75427 0.74466 0.26585 0.0
C2663 C 0.7913 0.76509 0.26953 0.0
C2664 C 0.74881 0.74923 0.25717 0.0
C2665 C 0.78026 0.7743 0.25198 0.0
C2666 C 0.81726 0.79479 0.25567 0.0
C2667 C 0.82272 0.79022 0.26434 0.0
H2668 H 0.15751 0.96121 0.22708 0.0
H2669 H 0.28003 0.00419 0.22429 0.0
H2670 H 0.16722 0.98021 0.24212 0.0
H2671 H 0.28967 0.02299 0.23938 0.0
H2672 H 0.28226 0.01023 0.26885 0.0
H2673 H 0.27397 0.99276 0.25369 0.0
H2674 H 0.19744 0.03924 0.25088 0.0
H2675 H 0.20586 0.05692 0.26601 0.0
C2676 C 0.18657 0.97506 0.22965 0.0
C2677 C 0.21802 0.98128 0.22448 0.0
C2678 C 0.19212 0.98591 0.23828 0.0
C2679 C 0.22921 0.00316 0.24193 0.0
C2680 C 0.26067 0.00931 0.23677 0.0
C2681 C 0.25513 0.99852 0.22814 0.0
C2682 C 0.26399 0.01709 0.26498 0.0
C2683 C 0.24461 0.03484 0.26865 0.0
C2684 C 0.25924 0.00707 0.2563 0.0
C2685 C 0.23496 0.01452 0.2511 0.0
C2686 C 0.21584 0.03255 0.25475 0.0
C2687 C 0.22064 0.04263 0.26342 0.0
H2688 H 0.06353 0.7973 0.77377 0.0
H2689 H 0.9454 0.71403 0.76721 0.0
H2690 H 0.08045 0.80654 0.75858 0.0
H2691 H 0.96267 0.72209 0.75206 0.0
H2692 H 0.99636 0.78289 0.72597 0.0
H2693 H 0.98018 0.7716 0.74117 0.0
H2694 H 0.08807 0.77457 0.7461 0.0
H2695 H 0.10494 0.7874 0.73096 0.0
C2696 C 0.04127 0.7807 0.76909 0.0
C2697 C 1.00312 0.75498 0.77171 0.0
C2698 C 0.05103 0.78573 0.76039 0.0
C2699 C 0.02286 0.76517 0.75411 0.0
C2700 C 0.98493 0.73875 0.75673 0.0
C2701 C 0.97517 0.73372 0.76543 0.0
C2702 C 0.01678 0.78148 0.73031 0.0
C2703 C 0.05194 0.78607 0.72725 0.0
C2704 C 0.0073 0.77451 0.739 0.0
C2705 C 0.03276 0.772 0.74484 0.0
C2706 C 0.06795 0.77662 0.74179 0.0
C2707 C 0.07742 0.78357 0.73309 0.0
H2708 H 0.19977 0.23496 0.76913 0.0
H2709 H 0.29878 0.22182 0.76386 0.0
H2710 H 0.19322 0.24342 0.75382 0.0
H2711 H 0.29276 0.23113 0.74859 0.0
H2712 H 0.23674 0.19932 0.72171 0.0
H2713 H 0.24609 0.19412 0.73701 0.0
H2714 H 0.22798 0.29029 0.74204 0.0
H2715 H 0.21779 0.29497 0.72673 0.0
C2716 C 0.22016 0.23399 0.7647 0.0
C2717 C 0.24974 0.22767 0.76768 0.0
C2718 C 0.21665 0.2392 0.75596 0.0
C2719 C 0.24248 0.23792 0.75002 0.0
C2720 C 0.27225 0.23194 0.75301 0.0
C2721 C 0.27592 0.22699 0.76176 0.0
C2722 C 0.23467 0.21928 0.72609 0.0
C2723 C 0.22645 0.24749 0.72303 0.0
C2724 C 0.24038 0.21654 0.73483 0.0
C2725 C 0.23776 0.24181 0.74071 0.0
C2726 C 0.22985 0.27024 0.73765 0.0
C2727 C 0.2244 0.27315 0.7289 0.0
H2728 H 0.7305 1.00079 0.76804 0.0
H2729 H 0.85433 0.05243 0.76547 0.0
H2730 H 0.72254 0.98091 0.75302 0.0
H2731 H 0.84637 0.03253 0.7505 0.0
H2732 H 0.81332 0.95073 0.72752 0.0
H2733 H 0.82072 0.97216 0.74238 0.0
H2734 H 0.73608 0.00783 0.7384 0.0
H2735 H 0.72874 0.98649 0.7235 0.0
C2736 C 0.75602 0.00826 0.76424 0.0
C2737 C 0.79302 0.02795 0.76795 0.0
C2738 C 0.75146 0.99687 0.75565 0.0
C2739 C 0.78382 0.00494 0.75059 0.0
C2740 C 0.82083 0.02524 0.75427 0.0
C2741 C 0.82538 0.03663 0.76285 0.0
C2742 C 0.79657 0.9635 0.72978 0.0
C2743 C 0.77053 0.96702 0.72432 0.0
C2744 C 0.8008 0.97575 0.7383 0.0
C2745 C 0.77907 0.99179 0.74155 0.0
C2746 C 0.75288 0.99515 0.73611 0.0
C2747 C 0.74867 0.98292 0.72758 0.0
H2748 H 0.53643 0.5139 0.59518 0.0
H2749 H 0.6487 0.60111 0.6041 0.0
H2750 H 0.5581 0.5305 0.58033 0.0
H2751 H 0.67178 0.61583 0.58944 0.0
H2752 H 0.70675 0.64563 0.56242 0.0
H2753 H 0.67594 0.63992 0.57609 0.0
H2754 H 0.59478 0.51951 0.57078 0.0
H2755 H 0.62246 0.52658 0.55667 0.0
C2756 C 0.56552 0.53721 0.59391 0.0
C2757 C 0.59083 0.55666 0.6007 0.0
C2758 C 0.57831 0.54632 0.58542 0.0
C2759 C 0.61708 0.57408 0.58359 0.0
C2760 C 0.64162 0.59477 0.59047 0.0
C2761 C 0.62848 0.58637 0.59892 0.0
C2762 C 0.68166 0.61815 0.56402 0.0
C2763 C 0.66743 0.58655 0.55834 0.0
C2764 C 0.66428 0.61466 0.572 0.0
C2765 C 0.63288 0.57913 0.57469 0.0
C2766 C 0.61843 0.54762 0.56897 0.0
C2767 C 0.63509 0.55143 0.56089 0.0
H2768 H 0.46647 0.1451 0.60514 0.0
H2769 H 0.46802 0.04256 0.59691 0.0
H2770 H 0.45302 0.15603 0.59047 0.0
H2771 H 0.45462 0.05352 0.58224 0.0
H2772 H 0.39139 0.06354 0.55882 0.0
H2773 H 0.40303 0.05241 0.57363 0.0
H2774 H 0.48472 0.17436 0.57654 0.0
H2775 H 0.47198 0.18569 0.56186 0.0
C2776 C 0.46428 0.12509 0.60018 0.0
C2777 C 0.46837 0.093 0.60218 0.0
C2778 C 0.45656 0.13133 0.59178 0.0
C2779 C 0.45275 0.10564 0.58519 0.0
C2780 C 0.45679 0.07351 0.58719 0.0
C2781 C 0.4645 0.06725 0.5956 0.0
C2782 C 0.41148 0.08802 0.56266 0.0
C2783 C 0.43078 0.12549 0.55917 0.0
C2784 C 0.41848 0.08159 0.57111 0.0
C2785 C 0.44489 0.11249 0.57625 0.0
C2786 C 0.46395 0.14999 0.57278 0.0
C2787 C 0.45697 0.15642 0.56433 0.0
H2788 H 0.85213 0.31385 0.60533 0.0
H2789 H 0.95459 0.42139 0.5987 0.0
H2790 H 0.84145 0.29598 0.59021 0.0
H2791 H 0.94394 0.40347 0.58358 0.0
H2792 H 0.93639 0.33841 0.5588 0.0
H2793 H 0.94617 0.3563 0.57393 0.0
H2794 H 0.82397 0.31484 0.57674 0.0
H2795 H 0.81397 0.29571 0.56168 0.0
C2796 C 0.87214 0.33385 0.60064 0.0
C2797 C 0.90426 0.369 0.60322 0.0
C2798 C 0.86603 0.32361 0.59198 0.0
C2799 C 0.89192 0.34827 0.58571 0.0
C2800 C 0.92384 0.38356 0.58828 0.0
C2801 C 0.92994 0.39382 0.59693 0.0
C2802 C 0.91157 0.33279 0.56267 0.0
C2803 C 0.87441 0.31561 0.55905 0.0
C2804 C 0.91724 0.34344 0.57131 0.0
C2805 C 0.88586 0.33708 0.57652 0.0
C2806 C 0.84868 0.31982 0.5729 0.0
C2807 C 0.84302 0.30925 0.56426 0.0
H2808 H 0.75193 0.12523 0.06232 0.0
H2809 H 0.64394 0.12018 0.05632 0.0
H2810 H 0.73392 0.11475 0.07745 0.0
H2811 H 0.6257 0.10929 0.07141 0.0
H2812 H 0.62588 0.13536 0.09984 0.0
H2813 H 0.64397 0.14434 0.08477 0.0
H2814 H 0.689 0.06647 0.08742 0.0
H2815 H 0.67249 0.05888 0.10264 0.0
C2816 C 0.72416 0.12144 0.06423 0.0
C2817 C 0.69942 0.1237 0.05815 0.0
C2818 C 0.71381 0.11538 0.07289 0.0
C2819 C 0.67843 0.11132 0.07565 0.0
C2820 C 0.65348 0.11302 0.06953 0.0
C2821 C 0.66389 0.11922 0.06089 0.0
C2822 C 0.64006 0.1205 0.09724 0.0
C2823 C 0.64792 0.09656 0.10246 0.0
C2824 C 0.64996 0.12524 0.08857 0.0
C2825 C 0.66783 0.10603 0.08488 0.0
C2826 C 0.67561 0.08197 0.09008 0.0
C2827 C 0.66575 0.07728 0.09878 0.0
H2828 H 0.88366 0.52267 0.05608 0.0
H2829 H 0.87592 0.62362 0.06276 0.0
H2830 H 0.89326 0.51341 0.07115 0.0
H2831 H 0.88567 0.61442 0.07782 0.0
H2832 H 0.94513 0.60871 0.10248 0.0
H2833 H 0.93631 0.61807 0.08736 0.0
H2834 H 0.8571 0.49542 0.08468 0.0
H2835 H 0.86691 0.48589 0.09971 0.0
C2836 C 0.88369 0.5427 0.06077 0.0
C2837 C 0.87902 0.57388 0.05822 0.0
C2838 C 0.88921 0.5374 0.0694 0.0
C2839 C 0.89023 0.56319 0.07567 0.0
C2840 C 0.88561 0.5944 0.07312 0.0
C2841 C 0.88004 0.59967 0.0645 0.0
C2842 C 0.92611 0.58372 0.09864 0.0
C2843 C 0.90671 0.54657 0.10229 0.0
C2844 C 0.92074 0.58913 0.09 0.0
C2845 C 0.89597 0.55749 0.08483 0.0
C2846 C 0.87666 0.52033 0.08848 0.0
C2847 C 0.88194 0.51493 0.09711 0.0
H2848 H 0.39366 0.33796 0.05797 0.0
H2849 H 0.47532 0.29745 0.06036 0.0
H2850 H 0.40252 0.35583 0.07311 0.0
H2851 H 0.48425 0.31543 0.07546 0.0
H2852 H 0.52108 0.39008 0.0996 0.0
H2853 H 0.512 0.37352 0.08442 0.0
H2854 H 0.38875 0.32526 0.08735 0.0
H2855 H 0.3978 0.34174 0.10257 0.0
C2856 C 0.4133 0.33264 0.06174 0.0
C2857 C 0.43387 0.31639 0.05795 0.0
C2858 C 0.41837 0.34288 0.07041 0.0
C2859 C 0.44415 0.33713 0.07548 0.0
C2860 C 0.46467 0.32084 0.07169 0.0
C2861 C 0.45957 0.31057 0.06303 0.0
C2862 C 0.492 0.37566 0.09703 0.0
C2863 C 0.46013 0.36705 0.1023 0.0
C2864 C 0.48681 0.3662 0.08832 0.0
C2865 C 0.44965 0.34795 0.08469 0.0
C2866 C 0.4178 0.33973 0.08994 0.0
C2867 C 0.42299 0.34917 0.09865 0.0
H2868 H 0.36871 0.89425 0.9365 0.0
H2869 H 0.2568 0.88005 0.93045 0.0
H2870 H 0.38556 0.9029 0.92127 0.0
H2871 H 0.27394 0.88947 0.91526 0.0
H2872 H 0.30252 0.86137 0.88847 0.0
H2873 H 0.28598 0.85384 0.9037 0.0
H2874 H 0.39878 0.95057 0.9096 0.0
H2875 H 0.41562 0.95763 0.89438 0.0
C2876 C 0.34774 0.89299 0.93191 0.0
C2877 C 0.31144 0.88646 0.93466 0.0
C2878 C 0.35751 0.89829 0.92321 0.0
C2879 C 0.33106 0.89686 0.91708 0.0
C2880 C 0.29479 0.8904 0.91983 0.0
C2881 C 0.28513 0.88539 0.92853 0.0
C2882 C 0.32383 0.8809 0.89303 0.0
C2883 C 0.36037 0.91006 0.89024 0.0
C2884 C 0.31424 0.87681 0.90173 0.0
C2885 C 0.34109 0.90164 0.90783 0.0
C2886 C 0.37762 0.93083 0.90504 0.0
C2887 C 0.38712 0.9351 0.89633 0.0
H2888 H 0.1456 0.44526 0.88817 0.0
H2889 H 0.04682 0.45762 0.89426 0.0
H2890 H 0.15347 0.43583 0.90336 0.0
H2891 H 0.05441 0.44771 0.90946 0.0
H2892 H 0.11326 0.47674 0.93621 0.0
H2893 H 0.10325 0.48413 0.92102 0.0
H2894 H 0.11787 0.38669 0.91493 0.0
H2895 H 0.12836 0.37959 0.93011 0.0
C2896 C 0.12561 0.44598 0.89277 0.0
C2897 C 0.09565 0.45224 0.89005 0.0
C2898 C 0.1299 0.44024 0.90144 0.0
C2899 C 0.10454 0.44103 0.90758 0.0
C2900 C 0.07453 0.44723 0.90486 0.0
C2901 C 0.07001 0.45258 0.89617 0.0
C2902 C 0.11443 0.45699 0.93161 0.0
C2903 C 0.12165 0.42764 0.93433 0.0
C2904 C 0.10837 0.461 0.92294 0.0
C2905 C 0.10979 0.43598 0.9168 0.0
C2906 C 0.11689 0.40655 0.91952 0.0
C2907 C 0.12257 0.40229 0.9282 0.0
H2908 H 0.52518 0.64251 0.93856 0.0
H2909 H 0.62124 0.75497 0.9321 0.0
H2910 H 0.51663 0.62463 0.92341 0.0
H2911 H 0.61315 0.73681 0.91696 0.0
H2912 H 0.55576 0.70401 0.89023 0.0
H2913 H 0.56448 0.72224 0.90537 0.0
H2914 H 0.55247 0.6117 0.91198 0.0
H2915 H 0.54301 0.59318 0.89687 0.0
C2916 C 0.54439 0.66341 0.93389 0.0
C2917 C 0.57385 0.70013 0.9365 0.0
C2918 C 0.53973 0.65306 0.92524 0.0
C2919 C 0.56427 0.67933 0.91902 0.0
C2920 C 0.59365 0.71611 0.92162 0.0
C2921 C 0.59849 0.72636 0.93028 0.0
C2922 C 0.5548 0.68357 0.89493 0.0
C2923 C 0.5487 0.64719 0.89238 0.0
C2924 C 0.56013 0.69413 0.90358 0.0
C2925 C 0.55916 0.66837 0.90984 0.0
C2926 C 0.55304 0.63199 0.90729 0.0
C2927 C 0.548 0.62155 0.89864 0.0
H2928 H 0.41256 0.46088 0.3967 0.0
H2929 H 0.30011 0.44373 0.39001 0.0
H2930 H 0.39399 0.45105 0.41182 0.0
H2931 H 0.28176 0.43451 0.40516 0.0
H2932 H 0.2508 0.38013 0.43213 0.0
H2933 H 0.26901 0.38693 0.41698 0.0
H2934 H 0.37951 0.48663 0.42307 0.0
H2935 H 0.36156 0.47949 0.43822 0.0
C2936 C 0.3838 0.45477 0.39846 0.0
C2937 C 0.35777 0.45305 0.39219 0.0
C2938 C 0.37331 0.44949 0.40712 0.0
C2939 C 0.33646 0.44207 0.40966 0.0
C2940 C 0.31025 0.43988 0.40337 0.0
C2941 C 0.32086 0.4455 0.39472 0.0
C2942 C 0.27909 0.40326 0.43023 0.0
C2943 C 0.30477 0.4293 0.43634 0.0
C2944 C 0.28936 0.40735 0.42156 0.0
C2945 C 0.32565 0.43732 0.41886 0.0
C2946 C 0.35147 0.46307 0.42499 0.0
C2947 C 0.34108 0.45919 0.43363 0.0
H2948 H 0.48422 0.87271 0.39467 0.0
H2949 H 0.60708 0.95081 0.39194 0.0
H2950 H 0.49315 0.86547 0.40987 0.0
H2951 H 0.61579 0.9448 0.40723 0.0
H2952 H 0.62082 0.88819 0.43249 0.0
H2953 H 0.61265 0.89674 0.4173 0.0
H2954 H 0.50973 0.90222 0.42316 0.0
H2955 H 0.51784 0.8935 0.43835 0.0
C2956 C 0.51315 0.88831 0.39731 0.0
C2957 C 0.54497 0.9122 0.39209 0.0
C2958 C 0.51819 0.88454 0.40605 0.0
C2959 C 0.55517 0.9046 0.40976 0.0
C2960 C 0.58698 0.92865 0.40454 0.0
C2961 C 0.58193 0.93242 0.3958 0.0
C2962 C 0.59669 0.89164 0.43054 0.0
C2963 C 0.56996 0.89016 0.43661 0.0
C2964 C 0.59201 0.89654 0.42184 0.0
C2965 C 0.56053 0.90013 0.41902 0.0
C2966 C 0.53396 0.89893 0.42511 0.0
C2967 C 0.5386 0.89397 0.43381 0.0
H2968 H 0.06001 0.67399 0.43675 0.0
H2969 H 0.183 0.71878 0.43445 0.0
H2970 H 0.05168 0.65509 0.42167 0.0
H2971 H 0.1745 0.69874 0.41946 0.0
H2972 H 0.14899 0.69608 0.39071 0.0
H2973 H 0.15733 0.71586 0.40571 0.0
H2974 H 0.05602 0.60757 0.41244 0.0
H2975 H 0.04773 0.58768 0.39744 0.0
C2976 C 0.08526 0.67989 0.43302 0.0
C2977 C 0.12215 0.69786 0.43679 0.0
C2978 C 0.08044 0.66868 0.42441 0.0
C2979 C 0.11242 0.67534 0.41939 0.0
C2980 C 0.14934 0.69352 0.42315 0.0
C2981 C 0.15415 0.70462 0.43176 0.0
C2982 C 0.12871 0.67634 0.3954 0.0
C2983 C 0.0977 0.6403 0.39288 0.0
C2984 C 0.13347 0.68769 0.40399 0.0
C2985 C 0.10731 0.66329 0.41026 0.0
C2986 C 0.07631 0.62726 0.40774 0.0
C2987 C 0.07157 0.61588 0.39915 0.0
loop_
_geom_bond_atom_site_label_1
_geom_bond_atom_site_label_2
_geom_bond_distance
_geom_bond_site_symmetry_2
_ccdc_geom_bond_type
C0 C1 1.351 . S
C0 N3 1.368 . S
C0 H5 0.931 . S
C1 C0 1.351 . S
C1 N2 1.373 . S
C1 H29 0.930 . S
N2 C1 1.373 . S
N2 C4 1.340 . S
N3 C0 1.368 . S
N3 C4 1.321 . S
N3 Co6 2.135 . S
C4 N2 1.340 . S
C4 N3 1.321 . S
C4 H28 0.930 . S
H5 C0 0.931 . S
Co6 N3 2.135 . S
Co6 N9 2.121 . S
Co6 O14 2.055 . S
Co6 O17 2.039 . S
Co6 N20 2.140 . S
C7 O8 1.227 . S
C7 O17 1.265 . S
O8 C7 1.227 . S
N9 Co6 2.121 . S
N9 C11 1.375 . S
N9 C12 1.313 . S
C10 C11 1.338 . S
C10 N13 1.377 . S
C10 H30 0.930 1_455 S
C11 N9 1.375 . S
C11 C10 1.338 . S
C11 H15 0.935 . S
C12 N9 1.313 . S
C12 N13 1.344 . S
C12 H16 0.930 . S
N13 C10 1.377 . S
N13 C12 1.344 . S
O14 Co6 2.055 . S
O14 C18 1.253 . S
H15 C11 0.935 . S
H16 C12 0.930 . S
O17 Co6 2.039 . S
O17 C7 1.265 . S
C18 O14 1.253 . S
C18 O19 1.227 . S
O19 C18 1.227 . S
N20 Co6 2.140 . S
N20 C23 1.346 . S
N20 C24 1.345 . S
C21 C22 1.387 . S
C21 C25 1.391 . S
C22 C21 1.387 . S
C22 C23 1.369 . S
C22 H31 0.929 . S
C23 N20 1.346 . S
C23 C22 1.369 . S
C23 H26 0.928 . S
C24 N20 1.345 . S
C24 C25 1.371 . S
C24 H27 0.931 . S
C25 C21 1.391 . S
C25 C24 1.371 . S
C25 H32 0.930 . S
H26 C23 0.928 . S
H27 C24 0.931 . S
H28 C4 0.930 . S
H29 C1 0.930 . S
H30 C10 0.930 1_655 S
H31 C22 0.929 . S
H32 C25 0.930 . S
C33 C34 1.351 . S
C33 N36 1.368 . S
C33 H38 0.931 . S
C34 C33 1.351 . S
C34 N35 1.373 . S
C34 H62 0.930 . S
N35 C34 1.373 . S
N35 C37 1.340 . S
N36 C33 1.368 . S
N36 C37 1.321 . S
N36 Co39 2.135 . S
C37 N35 1.340 . S
C37 N36 1.321 . S
C37 H61 0.930 . S
H38 C33 0.931 . S
Co39 N36 2.135 . S
Co39 N42 2.121 . S
Co39 O47 2.055 . S
Co39 O50 2.039 . S
Co39 N53 2.140 . S
C40 O41 1.227 . S
C40 O50 1.265 . S
O41 C40 1.227 . S
N42 Co39 2.121 . S
N42 C44 1.375 . S
N42 C45 1.313 . S
C43 C44 1.338 . S
C43 N46 1.377 . S
C43 H63 0.930 . S
C44 N42 1.375 . S
C44 C43 1.338 . S
C44 H48 0.931 . S
C45 N42 1.313 . S
C45 N46 1.344 . S
C45 H49 0.930 . S
N46 C43 1.377 . S
N46 C45 1.344 . S
O47 Co39 2.055 . S
O47 C51 1.253 . S
H48 C44 0.931 . S
H49 C45 0.930 . S
O50 Co39 2.039 . S
O50 C40 1.265 . S
C51 O47 1.253 . S
C51 O52 1.227 . S
O52 C51 1.227 . S
N53 Co39 2.140 . S
N53 C56 1.346 . S
N53 C57 1.345 . S
C54 C55 1.387 . S
C54 C58 1.391 . S
C55 C54 1.387 . S
C55 C56 1.369 . S
C55 H64 0.929 . S
C56 N53 1.346 . S
C56 C55 1.369 . S
C56 H59 0.928 . S
C57 N53 1.345 . S
C57 C58 1.371 . S
C57 H60 0.931 . S
C58 C54 1.391 . S
C58 C57 1.371 . S
C58 H65 0.930 . S
H59 C56 0.928 . S
H60 C57 0.931 . S
H61 C37 0.930 . S
H62 C34 0.930 . S
H63 C43 0.930 . S
H64 C55 0.929 . S
H65 C58 0.930 . S
C66 C67 1.351 . S
C66 N69 1.368 . S
C66 H71 0.931 . S
C67 C66 1.351 . S
C67 N68 1.373 . S
C67 H95 0.930 . S
N68 C67 1.373 . S
N68 C70 1.340 . S
N69 C66 1.368 . S
N69 C70 1.321 . S
N69 Co72 2.135 . S
C70 N68 1.340 . S
C70 N69 1.321 . S
C70 H94 0.930 . S
H71 C66 0.931 . S
Co72 N69 2.135 . S
Co72 N75 2.121 . S
Co72 O80 2.055 . S
Co72 O83 2.039 . S
Co72 N86 2.140 . S
C73 O74 1.227 . S
C73 O83 1.265 . S
O74 C73 1.227 . S
N75 Co72 2.121 . S
N75 C77 1.375 . S
N75 C78 1.313 . S
C76 C77 1.338 . S
C76 N79 1.377 . S
C76 H96 0.930 1_565 S
C77 N75 1.375 . S
C77 C76 1.338 . S
C77 H81 0.935 . S
C78 N75 1.313 . S
C78 N79 1.344 . S
C78 H82 0.930 . S
N79 C76 1.377 . S
N79 C78 1.344 . S
O80 Co72 2.055 . S
O80 C84 1.253 . S
H81 C77 0.935 . S
H82 C78 0.930 . S
O83 Co72 2.039 . S
O83 C73 1.265 . S
C84 O80 1.253 . S
C84 O85 1.227 . S
O85 C84 1.227 . S
N86 Co72 2.140 . S
N86 C89 1.346 . S
N86 C90 1.345 . S
C87 C88 1.387 . S
C87 C91 1.391 . S
C88 C87 1.387 . S
C88 C89 1.369 . S
C88 H97 0.929 . S
C89 N86 1.346 . S
C89 C88 1.369 . S
C89 H92 0.928 . S
C90 N86 1.345 . S
C90 C91 1.371 . S
C90 H93 0.931 . S
C91 C87 1.391 . S
C91 C90 1.371 . S
C91 H98 0.930 . S
H92 C89 0.928 . S
H93 C90 0.931 . S
H94 C70 0.930 . S
H95 C67 0.930 . S
H96 C76 0.930 1_545 S
H97 C88 0.929 . S
H98 C91 0.930 . S
C99 C100 1.351 . S
C99 N102 1.368 . S
C99 H104 0.931 . S
C100 C99 1.351 . S
C100 N101 1.373 . S
C100 H128 0.930 . S
N101 C100 1.373 . S
N101 C103 1.340 . S
N102 C99 1.368 . S
N102 C103 1.321 . S
N102 Co105 2.135 . S
C103 N101 1.340 . S
C103 N102 1.321 . S
C103 H127 0.930 . S
H104 C99 0.931 . S
Co105 N102 2.135 . S
Co105 N108 2.121 . S
Co105 O113 2.055 . S
Co105 O116 2.039 . S
Co105 N119 2.140 . S
C106 O107 1.227 . S
C106 O116 1.265 . S
O107 C106 1.227 . S
N108 Co105 2.121 . S
N108 C110 1.375 . S
N108 C111 1.313 . S
C109 C110 1.338 . S
C109 N112 1.377 . S
C109 H129 0.930 1_545 S
C110 N108 1.375 . S
C110 C109 1.338 . S
C110 H114 0.934 . S
C111 N108 1.313 . S
C111 N112 1.344 . S
C111 H115 0.930 . S
N112 C109 1.377 . S
N112 C111 1.344 . S
O113 Co105 2.055 . S
O113 C117 1.253 . S
H114 C110 0.934 . S
H115 C111 0.930 . S
O116 Co105 2.039 . S
O116 C106 1.265 . S
C117 O113 1.253 . S
C117 O118 1.227 . S
O118 C117 1.227 . S
N119 Co105 2.140 . S
N119 C122 1.346 . S
N119 C123 1.345 . S
C120 C121 1.387 . S
C120 C124 1.391 . S
C121 C120 1.387 . S
C121 C122 1.369 . S
C121 H130 0.929 . S
C122 N119 1.346 . S
C122 C121 1.369 . S
C122 H125 0.928 . S
C123 N119 1.345 . S
C123 C124 1.371 . S
C123 H126 0.931 . S
C124 C120 1.391 . S
C124 C123 1.371 . S
C124 H131 0.930 . S
H125 C122 0.928 . S
H126 C123 0.931 . S
H127 C103 0.930 . S
H128 C100 0.930 . S
H129 C109 0.930 1_565 S
H130 C121 0.929 . S
H131 C124 0.930 . S
C132 C133 1.351 . S
C132 N135 1.368 . S
C132 H137 0.931 . S
C133 C132 1.351 . S
C133 N134 1.373 . S
C133 H161 0.930 . S
N134 C133 1.373 . S
N134 C136 1.340 . S
N135 C132 1.368 . S
N135 C136 1.321 . S
N135 Co138 2.135 . S
C136 N134 1.340 . S
C136 N135 1.321 . S
C136 H160 0.930 . S
H137 C132 0.931 . S
Co138 N135 2.135 . S
Co138 N141 2.121 . S
Co138 O146 2.055 . S
Co138 O149 2.039 . S
Co138 N152 2.140 . S
C139 O140 1.227 . S
C139 O149 1.265 . S
O140 C139 1.227 . S
N141 Co138 2.121 . S
N141 C143 1.375 . S
N141 C144 1.313 . S
C142 C143 1.338 . S
C142 N145 1.377 . S
C142 H162 0.930 1_655 S
C143 N141 1.375 . S
C143 C142 1.338 . S
C143 H147 0.935 . S
C144 N141 1.313 . S
C144 N145 1.344 . S
C144 H148 0.930 . S
N145 C142 1.377 . S
N145 C144 1.344 . S
O146 Co138 2.055 . S
O146 C150 1.253 . S
H147 C143 0.935 . S
H148 C144 0.930 . S
O149 Co138 2.039 . S
O149 C139 1.265 . S
C150 O146 1.253 . S
C150 O151 1.227 . S
O151 C150 1.227 . S
N152 Co138 2.140 . S
N152 C155 1.346 . S
N152 C156 1.345 . S
C153 C154 1.387 . S
C153 C157 1.391 . S
C154 C153 1.387 . S
C154 C155 1.369 . S
C154 H163 0.929 . S
C155 N152 1.346 . S
C155 C154 1.369 . S
C155 H158 0.928 . S
C156 N152 1.345 . S
C156 C157 1.371 . S
C156 H159 0.931 . S
C157 C153 1.391 . S
C157 C156 1.371 . S
C157 H164 0.930 . S
H158 C155 0.928 . S
H159 C156 0.931 . S
H160 C136 0.930 . S
H161 C133 0.930 . S
H162 C142 0.930 1_455 S
H163 C154 0.929 . S
H164 C157 0.930 . S
C165 C166 1.351 . S
C165 N168 1.368 . S
C165 H170 0.931 . S
C166 C165 1.351 . S
C166 N167 1.373 . S
C166 H194 0.930 . S
N167 C166 1.373 . S
N167 C169 1.340 . S
N168 C165 1.368 . S
N168 C169 1.321 . S
N168 Co171 2.135 . S
C169 N167 1.340 . S
C169 N168 1.321 . S
C169 H193 0.930 . S
H170 C165 0.931 . S
Co171 N168 2.135 . S
Co171 N174 2.121 . S
Co171 O179 2.055 . S
Co171 O182 2.039 . S
Co171 N185 2.140 . S
C172 O173 1.227 . S
C172 O182 1.265 . S
O173 C172 1.227 . S
N174 Co171 2.121 . S
N174 C176 1.375 . S
N174 C177 1.313 . S
C175 C176 1.338 . S
C175 N178 1.377 . S
C175 H195 0.930 . S
C176 N174 1.375 . S
C176 C175 1.338 . S
C176 H180 0.931 . S
C177 N174 1.313 . S
C177 N178 1.344 . S
C177 H181 0.930 . S
N178 C175 1.377 . S
N178 C177 1.344 . S
O179 Co171 2.055 . S
O179 C183 1.253 . S
H180 C176 0.931 . S
H181 C177 0.930 . S
O182 Co171 2.039 . S
O182 C172 1.265 . S
C183 O179 1.253 . S
C183 O184 1.227 . S
O184 C183 1.227 . S
N185 Co171 2.140 . S
N185 C188 1.346 . S
N185 C189 1.345 . S
C186 C187 1.387 . S
C186 C190 1.391 . S
C187 C186 1.387 . S
C187 C188 1.369 . S
C187 H196 0.929 . S
C188 N185 1.346 . S
C188 C187 1.369 . S
C188 H191 0.928 . S
C189 N185 1.345 . S
C189 C190 1.371 . S
C189 H192 0.931 . S
C190 C186 1.391 . S
C190 C189 1.371 . S
C190 H197 0.930 . S
H191 C188 0.928 . S
H192 C189 0.931 . S
H193 C169 0.930 . S
H194 C166 0.930 . S
H195 C175 0.930 . S
H196 C187 0.929 . S
H197 C190 0.930 . S
C198 C199 1.351 . S
C198 N201 1.368 . S
C198 H203 0.931 . S
C199 C198 1.351 . S
C199 N200 1.373 . S
C199 H227 0.930 . S
N200 C199 1.373 . S
N200 C202 1.340 . S
N201 C198 1.368 . S
N201 C202 1.321 . S
N201 Co204 2.135 . S
C202 N200 1.340 . S
C202 N201 1.321 . S
C202 H226 0.930 . S
H203 C198 0.931 . S
Co204 N201 2.135 . S
Co204 N207 2.121 . S
Co204 O212 2.055 . S
Co204 O215 2.039 . S
Co204 N218 2.140 . S
C205 O206 1.227 . S
C205 O215 1.265 . S
O206 C205 1.227 . S
N207 Co204 2.121 . S
N207 C209 1.375 . S
N207 C210 1.313 . S
C208 C209 1.338 . S
C208 N211 1.377 . S
C208 H228 0.930 1_655 S
C209 N207 1.375 . S
C209 C208 1.338 . S
C209 H213 0.935 . S
C210 N207 1.313 . S
C210 N211 1.344 . S
C210 H214 0.930 . S
N211 C208 1.377 . S
N211 C210 1.344 . S
O212 Co204 2.055 . S
O212 C216 1.253 . S
H213 C209 0.935 . S
H214 C210 0.930 . S
O215 Co204 2.039 . S
O215 C205 1.265 . S
C216 O212 1.253 . S
C216 O217 1.227 . S
O217 C216 1.227 . S
N218 Co204 2.140 . S
N218 C221 1.346 . S
N218 C222 1.345 . S
C219 C220 1.387 . S
C219 C223 1.391 . S
C220 C219 1.387 . S
C220 C221 1.369 . S
C220 H229 0.929 . S
C221 N218 1.346 . S
C221 C220 1.369 . S
C221 H224 0.928 . S
C222 N218 1.345 . S
C222 C223 1.371 . S
C222 H225 0.931 . S
C223 C219 1.391 . S
C223 C222 1.371 . S
C223 H230 0.930 . S
H224 C221 0.928 . S
H225 C222 0.931 . S
H226 C202 0.930 . S
H227 C199 0.930 . S
H228 C208 0.930 1_455 S
H229 C220 0.929 . S
H230 C223 0.930 . S
C231 C232 1.351 . S
C231 N234 1.368 . S
C231 H236 0.931 . S
C232 C231 1.351 . S
C232 N233 1.373 . S
C232 H260 0.930 . S
N233 C232 1.373 . S
N233 C235 1.340 . S
N234 C231 1.368 . S
N234 C235 1.321 . S
N234 Co237 2.135 . S
C235 N233 1.340 . S
C235 N234 1.321 . S
C235 H259 0.930 . S
H236 C231 0.931 . S
Co237 N234 2.135 . S
Co237 N240 2.121 . S
Co237 O245 2.055 . S
Co237 O248 2.039 . S
Co237 N251 2.140 . S
C238 O239 1.227 . S
C238 O248 1.265 . S
O239 C238 1.227 . S
N240 Co237 2.121 . S
N240 C242 1.375 . S
N240 C243 1.313 . S
C241 C242 1.338 . S
C241 N244 1.377 . S
C241 H261 0.930 . S
C242 N240 1.375 . S
C242 C241 1.338 . S
C242 H246 0.931 . S
C243 N240 1.313 . S
C243 N244 1.344 . S
C243 H247 0.930 . S
N244 C241 1.377 . S
N244 C243 1.344 . S
O245 Co237 2.055 . S
O245 C249 1.253 . S
H246 C242 0.931 . S
H247 C243 0.930 . S
O248 Co237 2.039 . S
O248 C238 1.265 . S
C249 O245 1.253 . S
C249 O250 1.227 . S
O250 C249 1.227 . S
N251 Co237 2.140 . S
N251 C254 1.346 . S
N251 C255 1.345 . S
C252 C253 1.387 . S
C252 C256 1.391 . S
C253 C252 1.387 . S
C253 C254 1.369 . S
C253 H262 0.929 . S
C254 N251 1.346 . S
C254 C253 1.369 . S
C254 H257 0.928 . S
C255 N251 1.345 . S
C255 C256 1.371 . S
C255 H258 0.931 . S
C256 C252 1.391 . S
C256 C255 1.371 . S
C256 H263 0.930 . S
H257 C254 0.928 . S
H258 C255 0.931 . S
H259 C235 0.930 . S
H260 C232 0.930 . S
H261 C241 0.930 . S
H262 C253 0.929 . S
H263 C256 0.930 . S
C264 C265 1.351 . S
C264 N267 1.368 . S
C264 H269 0.931 . S
C265 C264 1.351 . S
C265 N266 1.373 . S
C265 H293 0.930 . S
N266 C265 1.373 . S
N266 C268 1.340 . S
N267 C264 1.368 . S
N267 C268 1.321 . S
N267 Co270 2.135 . S
C268 N266 1.340 . S
C268 N267 1.321 . S
C268 H292 0.930 . S
H269 C264 0.931 . S
Co270 N267 2.135 . S
Co270 N273 2.121 . S
Co270 O278 2.055 . S
Co270 O281 2.039 . S
Co270 N284 2.140 . S
C271 O272 1.227 . S
C271 O281 1.265 . S
O272 C271 1.227 . S
N273 Co270 2.121 . S
N273 C275 1.375 . S
N273 C276 1.313 . S
C274 C275 1.338 . S
C274 N277 1.377 . S
C274 H294 0.930 1_545 S
C275 N273 1.375 . S
C275 C274 1.338 . S
C275 H279 0.935 . S
C276 N273 1.313 . S
C276 N277 1.344 . S
C276 H280 0.930 . S
N277 C274 1.377 . S
N277 C276 1.344 . S
O278 Co270 2.055 . S
O278 C282 1.253 . S
H279 C275 0.935 . S
H280 C276 0.930 . S
O281 Co270 2.039 . S
O281 C271 1.265 . S
C282 O278 1.253 . S
C282 O283 1.227 . S
O283 C282 1.227 . S
N284 Co270 2.140 . S
N284 C287 1.346 . S
N284 C288 1.345 . S
C285 C286 1.387 . S
C285 C289 1.391 . S
C286 C285 1.387 . S
C286 C287 1.369 . S
C286 H295 0.929 . S
C287 N284 1.346 . S
C287 C286 1.369 . S
C287 H290 0.928 . S
C288 N284 1.345 . S
C288 C289 1.371 . S
C288 H291 0.931 . S
C289 C285 1.391 . S
C289 C288 1.371 . S
C289 H296 0.930 . S
H290 C287 0.928 . S
H291 C288 0.931 . S
H292 C268 0.930 . S
H293 C265 0.930 . S
H294 C274 0.930 1_565 S
H295 C286 0.929 . S
H296 C289 0.930 . S
C297 C298 1.351 . S
C297 N300 1.368 . S
C297 H302 0.931 . S
C298 C297 1.351 . S
C298 N299 1.373 . S
C298 H326 0.930 . S
N299 C298 1.373 . S
N299 C301 1.340 . S
N300 C297 1.368 . S
N300 C301 1.321 . S
N300 Co303 2.135 . S
C301 N299 1.340 . S
C301 N300 1.321 . S
C301 H325 0.930 . S
H302 C297 0.931 . S
Co303 N300 2.135 . S
Co303 N306 2.121 . S
Co303 O311 2.055 . S
Co303 O314 2.039 . S
Co303 N317 2.140 . S
C304 O305 1.227 . S
C304 O314 1.265 . S
O305 C304 1.227 . S
N306 Co303 2.121 . S
N306 C308 1.375 . S
N306 C309 1.313 . S
C307 C308 1.338 . S
C307 N310 1.377 . S
C307 H327 0.930 1_565 S
C308 N306 1.375 . S
C308 C307 1.338 . S
C308 H312 0.934 . S
C309 N306 1.313 . S
C309 N310 1.344 . S
C309 H313 0.930 . S
N310 C307 1.377 . S
N310 C309 1.344 . S
O311 Co303 2.055 . S
O311 C315 1.253 . S
H312 C308 0.934 . S
H313 C309 0.930 . S
O314 Co303 2.039 . S
O314 C304 1.265 . S
C315 O311 1.253 . S
C315 O316 1.227 . S
O316 C315 1.227 . S
N317 Co303 2.140 . S
N317 C320 1.346 . S
N317 C321 1.345 . S
C318 C319 1.387 . S
C318 C322 1.391 . S
C319 C318 1.387 . S
C319 C320 1.369 . S
C319 H328 0.929 . S
C320 N317 1.346 . S
C320 C319 1.369 . S
C320 H323 0.928 . S
C321 N317 1.345 . S
C321 C322 1.371 . S
C321 H324 0.931 . S
C322 C318 1.391 . S
C322 C321 1.371 . S
C322 H329 0.930 . S
H323 C320 0.928 . S
H324 C321 0.931 . S
H325 C301 0.930 . S
H326 C298 0.930 . S
H327 C307 0.930 1_545 S
H328 C319 0.929 . S
H329 C322 0.930 . S
C330 C331 1.351 . S
C330 N333 1.368 . S
C330 H335 0.931 . S
C331 C330 1.351 . S
C331 N332 1.373 . S
C331 H359 0.930 . S
N332 C331 1.373 . S
N332 C334 1.340 . S
N333 C330 1.368 . S
N333 C334 1.321 . S
N333 Co336 2.135 . S
C334 N332 1.340 . S
C334 N333 1.321 . S
C334 H358 0.930 . S
H335 C330 0.931 . S
Co336 N333 2.135 . S
Co336 N339 2.121 . S
Co336 O344 2.055 . S
Co336 O347 2.039 . S
Co336 N350 2.140 . S
C337 O338 1.227 . S
C337 O347 1.265 . S
O338 C337 1.227 . S
N339 Co336 2.121 . S
N339 C341 1.375 . S
N339 C342 1.313 . S
C340 C341 1.338 . S
C340 N343 1.377 . S
C340 H360 0.930 1_455 S
C341 N339 1.375 . S
C341 C340 1.338 . S
C341 H345 0.935 . S
C342 N339 1.313 . S
C342 N343 1.344 . S
C342 H346 0.930 . S
N343 C340 1.377 . S
N343 C342 1.344 . S
O344 Co336 2.055 . S
O344 C348 1.253 . S
H345 C341 0.935 . S
H346 C342 0.930 . S
O347 Co336 2.039 . S
O347 C337 1.265 . S
C348 O344 1.253 . S
C348 O349 1.227 . S
O349 C348 1.227 . S
N350 Co336 2.140 . S
N350 C353 1.346 . S
N350 C354 1.345 . S
C351 C352 1.387 . S
C351 C355 1.391 . S
C352 C351 1.387 . S
C352 C353 1.369 . S
C352 H361 0.929 . S
C353 N350 1.346 . S
C353 C352 1.369 . S
C353 H356 0.928 . S
C354 N350 1.345 . S
C354 C355 1.371 . S
C354 H357 0.931 . S
C355 C351 1.391 . S
C355 C354 1.371 . S
C355 H362 0.930 . S
H356 C353 0.928 . S
H357 C354 0.931 . S
H358 C334 0.930 . S
H359 C331 0.930 . S
H360 C340 0.930 1_655 S
H361 C352 0.929 . S
H362 C355 0.930 . S
C363 C364 1.351 . S
C363 N366 1.368 . S
C363 H368 0.931 . S
C364 C363 1.351 . S
C364 N365 1.373 . S
C364 H392 0.930 . S
N365 C364 1.373 . S
N365 C367 1.340 . S
N366 C363 1.368 . S
N366 C367 1.321 . S
N366 Co369 2.135 . S
C367 N365 1.340 . S
C367 N366 1.321 . S
C367 H391 0.930 . S
H368 C363 0.931 . S
Co369 N366 2.135 . S
Co369 N372 2.121 . S
Co369 O377 2.055 . S
Co369 O380 2.039 . S
Co369 N383 2.140 . S
C370 O371 1.227 . S
C370 O380 1.265 . S
O371 C370 1.227 . S
N372 Co369 2.121 . S
N372 C374 1.375 . S
N372 C375 1.313 . S
C373 C374 1.338 . S
C373 N376 1.377 . S
C373 H393 0.930 . S
C374 N372 1.375 . S
C374 C373 1.338 . S
C374 H378 0.931 . S
C375 N372 1.313 . S
C375 N376 1.344 . S
C375 H379 0.930 . S
N376 C373 1.377 . S
N376 C375 1.344 . S
O377 Co369 2.055 . S
O377 C381 1.253 . S
H378 C374 0.931 . S
H379 C375 0.930 . S
O380 Co369 2.039 . S
O380 C370 1.265 . S
C381 O377 1.253 . S
C381 O382 1.227 . S
O382 C381 1.227 . S
N383 Co369 2.140 . S
N383 C386 1.346 . S
N383 C387 1.345 . S
C384 C385 1.387 . S
C384 C388 1.391 . S
C385 C384 1.387 . S
C385 C386 1.369 . S
C385 H394 0.929 . S
C386 N383 1.346 . S
C386 C385 1.369 . S
C386 H389 0.928 . S
C387 N383 1.345 . S
C387 C388 1.371 . S
C387 H390 0.931 . S
C388 C384 1.391 . S
C388 C387 1.371 . S
C388 H395 0.930 . S
H389 C386 0.928 . S
H390 C387 0.931 . S
H391 C367 0.930 . S
H392 C364 0.930 . S
H393 C373 0.930 . S
H394 C385 0.929 . S
H395 C388 0.930 . S
C396 C397 1.351 . S
C396 N399 1.368 . S
C396 H401 0.931 . S
C397 C396 1.351 . S
C397 N398 1.373 . S
C397 H425 0.930 . S
N398 C397 1.373 . S
N398 C400 1.340 . S
N399 C396 1.368 . S
N399 C400 1.321 . S
N399 Co402 2.135 . S
C400 N398 1.340 . S
C400 N399 1.321 . S
C400 H424 0.930 . S
H401 C396 0.931 . S
Co402 N399 2.135 . S
Co402 N405 2.121 . S
Co402 O410 2.055 . S
Co402 O413 2.039 . S
Co402 N416 2.140 . S
C403 O404 1.227 . S
C403 O413 1.265 . S
O404 C403 1.227 . S
N405 Co402 2.121 . S
N405 C407 1.375 . S
N405 C408 1.313 . S
C406 C407 1.338 . S
C406 N409 1.377 . S
C406 H426 0.930 . S
C407 N405 1.375 . S
C407 C406 1.338 . S
C407 H411 0.931 . S
C408 N405 1.313 . S
C408 N409 1.344 . S
C408 H412 0.930 . S
N409 C406 1.377 . S
N409 C408 1.344 . S
O410 Co402 2.055 . S
O410 C414 1.253 . S
H411 C407 0.931 . S
H412 C408 0.930 . S
O413 Co402 2.039 . S
O413 C403 1.265 . S
C414 O410 1.253 . S
C414 O415 1.227 . S
O415 C414 1.227 . S
N416 Co402 2.140 . S
N416 C419 1.346 . S
N416 C420 1.345 . S
C417 C418 1.387 . S
C417 C421 1.391 . S
C418 C417 1.387 . S
C418 C419 1.369 . S
C418 H427 0.929 . S
C419 N416 1.346 . S
C419 C418 1.369 . S
C419 H422 0.928 . S
C420 N416 1.345 . S
C420 C421 1.371 . S
C420 H423 0.931 . S
C421 C417 1.391 . S
C421 C420 1.371 . S
C421 H428 0.930 . S
H422 C419 0.928 . S
H423 C420 0.931 . S
H424 C400 0.930 . S
H425 C397 0.930 . S
H426 C406 0.930 . S
H427 C418 0.929 . S
H428 C421 0.930 . S
C429 C430 1.351 . S
C429 N432 1.368 . S
C429 H434 0.931 . S
C430 C429 1.351 . S
C430 N431 1.373 . S
C430 H458 0.930 . S
N431 C430 1.373 . S
N431 C433 1.340 . S
N432 C429 1.368 . S
N432 C433 1.321 . S
N432 Co435 2.135 . S
C433 N431 1.340 . S
C433 N432 1.321 . S
C433 H457 0.930 . S
H434 C429 0.931 . S
Co435 N432 2.135 . S
Co435 N438 2.121 . S
Co435 O443 2.055 . S
Co435 O446 2.039 . S
Co435 N449 2.140 . S
C436 O437 1.227 . S
C436 O446 1.265 . S
O437 C436 1.227 . S
N438 Co435 2.121 . S
N438 C440 1.375 . S
N438 C441 1.313 . S
C439 C440 1.338 . S
C439 N442 1.377 . S
C439 H459 0.930 . S
C440 N438 1.375 . S
C440 C439 1.338 . S
C440 H444 0.931 . S
C441 N438 1.313 . S
C441 N442 1.344 . S
C441 H445 0.930 . S
N442 C439 1.377 . S
N442 C441 1.344 . S
O443 Co435 2.055 . S
O443 C447 1.253 . S
H444 C440 0.931 . S
H445 C441 0.930 . S
O446 Co435 2.039 . S
O446 C436 1.265 . S
C447 O443 1.253 . S
C447 O448 1.227 . S
O448 C447 1.227 . S
N449 Co435 2.140 . S
N449 C452 1.346 . S
N449 C453 1.345 . S
C450 C451 1.387 . S
C450 C454 1.391 . S
C451 C450 1.387 . S
C451 C452 1.369 . S
C451 H460 0.929 . S
C452 N449 1.346 . S
C452 C451 1.369 . S
C452 H455 0.928 . S
C453 N449 1.345 . S
C453 C454 1.371 . S
C453 H456 0.931 . S
C454 C450 1.391 . S
C454 C453 1.371 . S
C454 H461 0.930 . S
H455 C452 0.928 . S
H456 C453 0.931 . S
H457 C433 0.930 . S
H458 C430 0.930 . S
H459 C439 0.930 . S
H460 C451 0.929 . S
H461 C454 0.930 . S
C462 C463 1.351 . S
C462 N465 1.368 . S
C462 H467 0.931 . S
C463 C462 1.351 . S
C463 N464 1.373 . S
C463 H491 0.930 . S
N464 C463 1.373 . S
N464 C466 1.340 . S
N465 C462 1.368 . S
N465 C466 1.321 . S
N465 Co468 2.135 . S
C466 N464 1.340 . S
C466 N465 1.321 . S
C466 H490 0.930 . S
H467 C462 0.931 . S
Co468 N465 2.135 . S
Co468 N471 2.121 . S
Co468 O476 2.055 . S
Co468 O479 2.039 . S
Co468 N482 2.140 . S
C469 O470 1.227 . S
C469 O479 1.265 . S
O470 C469 1.227 . S
N471 Co468 2.121 . S
N471 C473 1.375 . S
N471 C474 1.313 . S
C472 C473 1.338 . S
C472 N475 1.377 . S
C472 H492 0.930 . S
C473 N471 1.375 . S
C473 C472 1.338 . S
C473 H477 0.931 . S
C474 N471 1.313 . S
C474 N475 1.344 . S
C474 H478 0.930 . S
N475 C472 1.377 . S
N475 C474 1.344 . S
O476 Co468 2.055 . S
O476 C480 1.253 . S
H477 C473 0.931 . S
H478 C474 0.930 . S
O479 Co468 2.039 . S
O479 C469 1.265 . S
C480 O476 1.253 . S
C480 O481 1.227 . S
O481 C480 1.227 . S
N482 Co468 2.140 . S
N482 C485 1.346 . S
N482 C486 1.345 . S
C483 C484 1.387 . S
C483 C487 1.391 . S
C484 C483 1.387 . S
C484 C485 1.369 . S
C484 H493 0.929 . S
C485 N482 1.346 . S
C485 C484 1.369 . S
C485 H488 0.928 . S
C486 N482 1.345 . S
C486 C487 1.371 . S
C486 H489 0.931 . S
C487 C483 1.391 . S
C487 C486 1.371 . S
C487 H494 0.930 . S
H488 C485 0.928 . S
H489 C486 0.931 . S
H490 C466 0.930 . S
H491 C463 0.930 . S
H492 C472 0.930 . S
H493 C484 0.929 . S
H494 C487 0.930 . S
C495 C496 1.351 . S
C495 N498 1.368 . S
C495 H500 0.931 . S
C496 C495 1.351 . S
C496 N497 1.373 . S
C496 H524 0.930 . S
N497 C496 1.373 . S
N497 C499 1.340 . S
N498 C495 1.368 . S
N498 C499 1.321 . S
N498 Co501 2.135 . S
C499 N497 1.340 . S
C499 N498 1.321 . S
C499 H523 0.930 . S
H500 C495 0.931 . S
Co501 N498 2.135 . S
Co501 N504 2.121 . S
Co501 O509 2.055 . S
Co501 O512 2.039 . S
Co501 N515 2.140 . S
C502 O503 1.227 . S
C502 O512 1.265 . S
O503 C502 1.227 . S
N504 Co501 2.121 . S
N504 C506 1.375 . S
N504 C507 1.313 . S
C505 C506 1.338 . S
C505 N508 1.377 . S
C505 H525 0.930 . S
C506 N504 1.375 . S
C506 C505 1.338 . S
C506 H510 0.931 . S
C507 N504 1.313 . S
C507 N508 1.344 . S
C507 H511 0.930 . S
N508 C505 1.377 . S
N508 C507 1.344 . S
O509 Co501 2.055 . S
O509 C513 1.253 . S
H510 C506 0.931 . S
H511 C507 0.930 . S
O512 Co501 2.039 . S
O512 C502 1.265 . S
C513 O509 1.253 . S
C513 O514 1.227 . S
O514 C513 1.227 . S
N515 Co501 2.140 . S
N515 C518 1.346 . S
N515 C519 1.345 . S
C516 C517 1.387 . S
C516 C520 1.391 . S
C517 C516 1.387 . S
C517 C518 1.369 . S
C517 H526 0.929 . S
C518 N515 1.346 . S
C518 C517 1.369 . S
C518 H521 0.928 . S
C519 N515 1.345 . S
C519 C520 1.371 . S
C519 H522 0.931 . S
C520 C516 1.391 . S
C520 C519 1.371 . S
C520 H527 0.930 1_655 S
H521 C518 0.928 . S
H522 C519 0.931 . S
H523 C499 0.930 . S
H524 C496 0.930 . S
H525 C505 0.930 . S
H526 C517 0.929 . S
H527 C520 0.930 1_455 S
C528 C529 1.351 . S
C528 N531 1.368 . S
C528 H533 0.931 . S
C529 C528 1.351 . S
C529 N530 1.373 . S
C529 H557 0.930 . S
N530 C529 1.373 . S
N530 C532 1.340 . S
N531 C528 1.368 . S
N531 C532 1.321 . S
N531 Co534 2.135 . S
C532 N530 1.340 . S
C532 N531 1.321 . S
C532 H556 0.930 . S
H533 C528 0.931 . S
Co534 N531 2.135 . S
Co534 N537 2.121 . S
Co534 O542 2.055 . S
Co534 O545 2.039 . S
Co534 N548 2.140 . S
C535 O536 1.227 . S
C535 O545 1.265 . S
O536 C535 1.227 . S
N537 Co534 2.121 . S
N537 C539 1.375 . S
N537 C540 1.313 . S
C538 C539 1.338 . S
C538 N541 1.377 . S
C538 H558 0.930 . S
C539 N537 1.375 . S
C539 C538 1.338 . S
C539 H543 0.931 . S
C540 N537 1.313 . S
C540 N541 1.344 . S
C540 H544 0.930 . S
N541 C538 1.377 . S
N541 C540 1.344 . S
O542 Co534 2.055 . S
O542 C546 1.253 . S
H543 C539 0.931 . S
H544 C540 0.930 . S
O545 Co534 2.039 . S
O545 C535 1.265 . S
C546 O542 1.253 . S
C546 O547 1.227 . S
O547 C546 1.227 . S
N548 Co534 2.140 . S
N548 C551 1.346 . S
N548 C552 1.345 . S
C549 C550 1.387 . S
C549 C553 1.391 . S
C550 C549 1.387 . S
C550 C551 1.369 . S
C550 H559 0.929 . S
C551 N548 1.346 . S
C551 C550 1.369 . S
C551 H554 0.928 . S
C552 N548 1.345 . S
C552 C553 1.371 . S
C552 H555 0.931 . S
C553 C549 1.391 . S
C553 C552 1.371 . S
C553 H560 0.930 . S
H554 C551 0.928 . S
H555 C552 0.931 . S
H556 C532 0.930 . S
H557 C529 0.930 . S
H558 C538 0.930 . S
H559 C550 0.929 . S
H560 C553 0.930 . S
C561 C562 1.351 . S
C561 N564 1.368 . S
C561 H566 0.931 . S
C562 C561 1.351 . S
C562 N563 1.373 . S
C562 H590 0.930 . S
N563 C562 1.373 . S
N563 C565 1.340 . S
N564 C561 1.368 . S
N564 C565 1.321 . S
N564 Co567 2.135 . S
C565 N563 1.340 . S
C565 N564 1.321 . S
C565 H589 0.930 . S
H566 C561 0.931 . S
Co567 N564 2.135 . S
Co567 N570 2.121 . S
Co567 O575 2.055 . S
Co567 O578 2.039 . S
Co567 N581 2.140 . S
C568 O569 1.227 . S
C568 O578 1.265 . S
O569 C568 1.227 . S
N570 Co567 2.121 . S
N570 C572 1.375 . S
N570 C573 1.313 . S
C571 C572 1.338 . S
C571 N574 1.377 . S
C571 H591 0.930 . S
C572 N570 1.375 . S
C572 C571 1.338 . S
C572 H576 0.931 . S
C573 N570 1.313 . S
C573 N574 1.344 . S
C573 H577 0.954 . S
N574 C571 1.377 . S
N574 C573 1.344 . S
O575 Co567 2.055 . S
O575 C579 1.253 . S
H576 C572 0.931 . S
H577 C573 0.954 . S
O578 Co567 2.039 . S
O578 C568 1.265 . S
C579 O575 1.253 . S
C579 O580 1.227 . S
O580 C579 1.227 . S
N581 Co567 2.140 . S
N581 C584 1.346 . S
N581 C585 1.345 . S
C582 C583 1.387 . S
C582 C586 1.391 . S
C583 C582 1.387 . S
C583 C584 1.369 . S
C583 H592 0.929 . S
C584 N581 1.346 . S
C584 C583 1.369 . S
C584 H587 0.928 . S
C585 N581 1.345 . S
C585 C586 1.371 . S
C585 H588 0.931 . S
C586 C582 1.391 . S
C586 C585 1.371 . S
C586 H593 0.930 1_545 S
H587 C584 0.928 . S
H588 C585 0.931 . S
H589 C565 0.930 . S
H590 C562 0.930 . S
H591 C571 0.930 . S
H592 C583 0.929 . S
H593 C586 0.930 1_565 S
C594 C595 1.351 . S
C594 N597 1.368 . S
C594 H599 0.931 . S
C595 C594 1.351 . S
C595 N596 1.373 . S
C595 H623 0.930 . S
N596 C595 1.373 . S
N596 C598 1.340 . S
N597 C594 1.368 . S
N597 C598 1.321 . S
N597 Co600 2.135 . S
C598 N596 1.340 . S
C598 N597 1.321 . S
C598 H622 0.930 . S
H599 C594 0.931 . S
Co600 N597 2.135 . S
Co600 N603 2.121 . S
Co600 O608 2.055 . S
Co600 O611 2.039 . S
Co600 N614 2.140 . S
C601 O602 1.227 . S
C601 O611 1.265 . S
O602 C601 1.227 . S
N603 Co600 2.121 . S
N603 C605 1.375 . S
N603 C606 1.313 . S
C604 C605 1.338 . S
C604 N607 1.377 . S
C604 H624 0.930 . S
C605 N603 1.375 . S
C605 C604 1.338 . S
C605 H609 0.931 . S
C606 N603 1.313 . S
C606 N607 1.344 . S
C606 H610 0.930 . S
N607 C604 1.377 . S
N607 C606 1.344 . S
O608 Co600 2.055 . S
O608 C612 1.253 . S
H609 C605 0.931 . S
H610 C606 0.930 . S
O611 Co600 2.039 . S
O611 C601 1.265 . S
C612 O608 1.253 . S
C612 O613 1.227 . S
O613 C612 1.227 . S
N614 Co600 2.140 . S
N614 C617 1.346 . S
N614 C618 1.345 . S
C615 C616 1.387 . S
C615 C619 1.391 . S
C616 C615 1.387 . S
C616 C617 1.369 . S
C616 H625 0.929 . S
C617 N614 1.346 . S
C617 C616 1.369 . S
C617 H620 0.928 . S
C618 N614 1.345 . S
C618 C619 1.371 . S
C618 H621 0.931 . S
C619 C615 1.391 . S
C619 C618 1.371 . S
C619 H626 0.930 1_545 S
H620 C617 0.928 . S
H621 C618 0.931 . S
H622 C598 0.930 . S
H623 C595 0.930 . S
H624 C604 0.930 . S
H625 C616 0.929 . S
H626 C619 0.930 1_565 S
C627 C628 1.351 . S
C627 N630 1.368 . S
C627 H632 0.931 . S
C628 C627 1.351 . S
C628 N629 1.373 . S
C628 H656 0.930 . S
N629 C628 1.373 . S
N629 C631 1.340 . S
N630 C627 1.368 . S
N630 C631 1.321 . S
N630 Co633 2.135 . S
C631 N629 1.340 . S
C631 N630 1.321 . S
C631 H655 0.930 . S
H632 C627 0.931 . S
Co633 N630 2.135 . S
Co633 N636 2.121 . S
Co633 O641 2.055 . S
Co633 O644 2.039 . S
Co633 N647 2.140 . S
C634 O635 1.227 . S
C634 O644 1.265 . S
O635 C634 1.227 . S
N636 Co633 2.121 . S
N636 C638 1.375 . S
N636 C639 1.313 . S
C637 C638 1.338 . S
C637 N640 1.377 . S
C637 H657 0.930 . S
C638 N636 1.375 . S
C638 C637 1.338 . S
C638 H642 0.931 . S
C639 N636 1.313 . S
C639 N640 1.344 . S
C639 H643 0.953 . S
N640 C637 1.377 . S
N640 C639 1.344 . S
O641 Co633 2.055 . S
O641 C645 1.253 . S
H642 C638 0.931 . S
H643 C639 0.953 . S
O644 Co633 2.039 . S
O644 C634 1.265 . S
C645 O641 1.253 . S
C645 O646 1.227 . S
O646 C645 1.227 . S
N647 Co633 2.140 . S
N647 C650 1.346 . S
N647 C651 1.345 . S
C648 C649 1.387 . S
C648 C652 1.391 . S
C649 C648 1.387 . S
C649 C650 1.369 . S
C649 H658 0.929 . S
C650 N647 1.346 . S
C650 C649 1.369 . S
C650 H653 0.928 . S
C651 N647 1.345 . S
C651 C652 1.371 . S
C651 H654 0.931 . S
C652 C648 1.391 . S
C652 C651 1.371 . S
C652 H659 0.930 1_655 S
H653 C650 0.928 . S
H654 C651 0.931 . S
H655 C631 0.930 . S
H656 C628 0.930 . S
H657 C637 0.930 . S
H658 C649 0.929 . S
H659 C652 0.930 1_455 S
C660 C661 1.351 . S
C660 N663 1.368 . S
C660 H665 0.931 . S
C661 C660 1.351 . S
C661 N662 1.373 . S
C661 H689 0.930 . S
N662 C661 1.373 . S
N662 C664 1.340 . S
N663 C660 1.368 . S
N663 C664 1.321 . S
N663 Co666 2.135 . S
C664 N662 1.340 . S
C664 N663 1.321 . S
C664 H688 0.930 . S
H665 C660 0.931 . S
Co666 N663 2.135 . S
Co666 N669 2.121 . S
Co666 O674 2.055 . S
Co666 O677 2.039 . S
Co666 N680 2.140 . S
C667 O668 1.227 . S
C667 O677 1.265 . S
O668 C667 1.227 . S
N669 Co666 2.121 . S
N669 C671 1.375 . S
N669 C672 1.313 . S
C670 C671 1.338 . S
C670 N673 1.377 . S
C670 H690 0.930 . S
C671 N669 1.375 . S
C671 C670 1.338 . S
C671 H675 0.931 . S
C672 N669 1.313 . S
C672 N673 1.344 . S
C672 H676 0.930 . S
N673 C670 1.377 . S
N673 C672 1.344 . S
O674 Co666 2.055 . S
O674 C678 1.253 . S
H675 C671 0.931 . S
H676 C672 0.930 . S
O677 Co666 2.039 . S
O677 C667 1.265 . S
C678 O674 1.253 . S
C678 O679 1.227 . S
O679 C678 1.227 . S
N680 Co666 2.140 . S
N680 C683 1.346 . S
N680 C684 1.345 . S
C681 C682 1.387 . S
C681 C685 1.391 . S
C682 C681 1.387 . S
C682 C683 1.369 . S
C682 H691 0.929 . S
C683 N680 1.346 . S
C683 C682 1.369 . S
C683 H686 0.928 . S
C684 N680 1.345 . S
C684 C685 1.371 . S
C684 H687 0.931 . S
C685 C681 1.391 . S
C685 C684 1.371 . S
C685 H692 0.930 . S
H686 C683 0.928 . S
H687 C684 0.931 . S
H688 C664 0.930 . S
H689 C661 0.930 . S
H690 C670 0.930 . S
H691 C682 0.929 . S
H692 C685 0.930 . S
C693 C694 1.351 . S
C693 N696 1.368 . S
C693 H698 0.931 . S
C694 C693 1.351 . S
C694 N695 1.373 . S
C694 H722 0.930 . S
N695 C694 1.373 . S
N695 C697 1.340 . S
N696 C693 1.368 . S
N696 C697 1.321 . S
N696 Co699 2.135 . S
C697 N695 1.340 . S
C697 N696 1.321 . S
C697 H721 0.930 . S
H698 C693 0.931 . S
Co699 N696 2.135 . S
Co699 N702 2.121 . S
Co699 O707 2.055 . S
Co699 O710 2.039 . S
Co699 N713 2.140 . S
C700 O701 1.227 . S
C700 O710 1.265 . S
O701 C700 1.227 . S
N702 Co699 2.121 . S
N702 C704 1.375 . S
N702 C705 1.313 . S
C703 C704 1.338 . S
C703 N706 1.377 . S
C703 H723 0.930 . S
C704 N702 1.375 . S
C704 C703 1.338 . S
C704 H708 0.931 . S
C705 N702 1.313 . S
C705 N706 1.344 . S
C705 H709 0.930 . S
N706 C703 1.377 . S
N706 C705 1.344 . S
O707 Co699 2.055 . S
O707 C711 1.253 . S
H708 C704 0.931 . S
H709 C705 0.930 . S
O710 Co699 2.039 . S
O710 C700 1.265 . S
C711 O707 1.253 . S
C711 O712 1.227 . S
O712 C711 1.227 . S
N713 Co699 2.140 . S
N713 C716 1.346 . S
N713 C717 1.345 . S
C714 C715 1.387 . S
C714 C718 1.391 . S
C715 C714 1.387 . S
C715 C716 1.369 . S
C715 H724 0.929 . S
C716 N713 1.346 . S
C716 C715 1.369 . S
C716 H719 0.928 . S
C717 N713 1.345 . S
C717 C718 1.371 . S
C717 H720 0.931 . S
C718 C714 1.391 . S
C718 C717 1.371 . S
C718 H725 0.930 . S
H719 C716 0.928 . S
H720 C717 0.931 . S
H721 C697 0.930 . S
H722 C694 0.930 . S
H723 C703 0.930 . S
H724 C715 0.929 . S
H725 C718 0.930 . S
C726 C727 1.351 . S
C726 N729 1.368 . S
C726 H731 0.931 . S
C727 C726 1.351 . S
C727 N728 1.373 . S
C727 H755 0.930 . S
N728 C727 1.373 . S
N728 C730 1.340 . S
N729 C726 1.368 . S
N729 C730 1.321 . S
N729 Co732 2.135 . S
C730 N728 1.340 . S
C730 N729 1.321 . S
C730 H754 0.930 . S
H731 C726 0.931 . S
Co732 N729 2.135 . S
Co732 N735 2.121 . S
Co732 O740 2.055 . S
Co732 O743 2.039 . S
Co732 N746 2.140 . S
C733 O734 1.227 . S
C733 O743 1.265 . S
O734 C733 1.227 . S
N735 Co732 2.121 . S
N735 C737 1.375 . S
N735 C738 1.313 . S
C736 C737 1.338 . S
C736 N739 1.377 . S
C736 H756 0.930 . S
C737 N735 1.375 . S
C737 C736 1.338 . S
C737 H741 0.931 . S
C738 N735 1.313 . S
C738 N739 1.344 . S
C738 H742 0.930 . S
N739 C736 1.377 . S
N739 C738 1.344 . S
O740 Co732 2.055 . S
O740 C744 1.253 . S
H741 C737 0.931 . S
H742 C738 0.930 . S
O743 Co732 2.039 . S
O743 C733 1.265 . S
C744 O740 1.253 . S
C744 O745 1.227 . S
O745 C744 1.227 . S
N746 Co732 2.140 . S
N746 C749 1.346 . S
N746 C750 1.345 . S
C747 C748 1.387 . S
C747 C751 1.391 . S
C748 C747 1.387 . S
C748 C749 1.369 . S
C748 H757 0.929 . S
C749 N746 1.346 . S
C749 C748 1.369 . S
C749 H752 0.928 . S
C750 N746 1.345 . S
C750 C751 1.371 . S
C750 H753 0.931 . S
C751 C747 1.391 . S
C751 C750 1.371 . S
C751 H758 0.930 . S
H752 C749 0.928 . S
H753 C750 0.931 . S
H754 C730 0.930 . S
H755 C727 0.930 . S
H756 C736 0.930 . S
H757 C748 0.929 . S
H758 C751 0.930 . S
C759 C760 1.351 . S
C759 N762 1.368 . S
C759 H764 0.931 . S
C760 C759 1.351 . S
C760 N761 1.373 . S
C760 H788 0.930 . S
N761 C760 1.373 . S
N761 C763 1.340 . S
N762 C759 1.368 . S
N762 C763 1.321 . S
N762 Co765 2.135 . S
C763 N761 1.340 . S
C763 N762 1.321 . S
C763 H787 0.930 . S
H764 C759 0.931 . S
Co765 N762 2.135 . S
Co765 N768 2.121 . S
Co765 O773 2.055 . S
Co765 O776 2.039 . S
Co765 N779 2.140 . S
C766 O767 1.227 . S
C766 O776 1.265 . S
O767 C766 1.227 . S
N768 Co765 2.121 . S
N768 C770 1.375 . S
N768 C771 1.313 . S
C769 C770 1.338 . S
C769 N772 1.377 . S
C769 H789 0.930 . S
C770 N768 1.375 . S
C770 C769 1.338 . S
C770 H774 0.931 . S
C771 N768 1.313 . S
C771 N772 1.344 . S
C771 H775 0.930 . S
N772 C769 1.377 . S
N772 C771 1.344 . S
O773 Co765 2.055 . S
O773 C777 1.253 . S
H774 C770 0.931 . S
H775 C771 0.930 . S
O776 Co765 2.039 . S
O776 C766 1.265 . S
C777 O773 1.253 . S
C777 O778 1.227 . S
O778 C777 1.227 . S
N779 Co765 2.140 . S
N779 C782 1.346 . S
N779 C783 1.345 . S
C780 C781 1.387 . S
C780 C784 1.391 . S
C781 C780 1.387 . S
C781 C782 1.369 . S
C781 H790 0.929 . S
C782 N779 1.346 . S
C782 C781 1.369 . S
C782 H785 0.928 . S
C783 N779 1.345 . S
C783 C784 1.371 . S
C783 H786 0.931 . S
C784 C780 1.391 . S
C784 C783 1.371 . S
C784 H791 0.930 . S
H785 C782 0.928 . S
H786 C783 0.931 . S
H787 C763 0.930 . S
H788 C760 0.930 . S
H789 C769 0.930 . S
H790 C781 0.929 . S
H791 C784 0.930 . S
C792 C793 1.351 . S
C792 N795 1.368 . S
C792 H797 0.931 . S
C793 C792 1.351 . S
C793 N794 1.373 . S
C793 H821 0.930 . S
N794 C793 1.373 . S
N794 C796 1.340 . S
N795 C792 1.368 . S
N795 C796 1.321 . S
N795 Co798 2.135 . S
C796 N794 1.340 . S
C796 N795 1.321 . S
C796 H820 0.930 . S
H797 C792 0.931 . S
Co798 N795 2.135 . S
Co798 N801 2.121 . S
Co798 O806 2.055 . S
Co798 O809 2.039 . S
Co798 N812 2.140 . S
C799 O800 1.227 . S
C799 O809 1.265 . S
O800 C799 1.227 . S
N801 Co798 2.121 . S
N801 C803 1.375 . S
N801 C804 1.313 . S
C802 C803 1.338 . S
C802 N805 1.377 . S
C802 H822 0.930 . S
C803 N801 1.375 . S
C803 C802 1.338 . S
C803 H807 0.931 . S
C804 N801 1.313 . S
C804 N805 1.344 . S
C804 H808 0.930 . S
N805 C802 1.377 . S
N805 C804 1.344 . S
O806 Co798 2.055 . S
O806 C810 1.253 . S
H807 C803 0.931 . S
H808 C804 0.930 . S
O809 Co798 2.039 . S
O809 C799 1.265 . S
C810 O806 1.253 . S
C810 O811 1.227 . S
O811 C810 1.227 . S
N812 Co798 2.140 . S
N812 C815 1.346 . S
N812 C816 1.345 . S
C813 C814 1.387 . S
C813 C817 1.391 . S
C814 C813 1.387 . S
C814 C815 1.369 . S
C814 H823 0.929 . S
C815 N812 1.346 . S
C815 C814 1.369 . S
C815 H818 0.928 . S
C816 N812 1.345 . S
C816 C817 1.371 . S
C816 H819 0.931 . S
C817 C813 1.391 . S
C817 C816 1.371 . S
C817 H824 0.930 1_565 S
H818 C815 0.928 . S
H819 C816 0.931 . S
H820 C796 0.930 . S
H821 C793 0.930 . S
H822 C802 0.930 . S
H823 C814 0.929 . S
H824 C817 0.930 1_545 S
C825 C826 1.351 . S
C825 N828 1.368 . S
C825 H830 0.931 . S
C826 C825 1.351 . S
C826 N827 1.373 . S
C826 H854 0.930 . S
N827 C826 1.373 . S
N827 C829 1.340 . S
N828 C825 1.368 . S
N828 C829 1.321 . S
N828 Co831 2.135 . S
C829 N827 1.340 . S
C829 N828 1.321 . S
C829 H853 0.930 . S
H830 C825 0.931 . S
Co831 N828 2.135 . S
Co831 N834 2.121 . S
Co831 O839 2.055 . S
Co831 O842 2.039 . S
Co831 N845 2.140 . S
C832 O833 1.227 . S
C832 O842 1.265 . S
O833 C832 1.227 . S
N834 Co831 2.121 . S
N834 C836 1.375 . S
N834 C837 1.313 . S
C835 C836 1.338 . S
C835 N838 1.377 . S
C835 H855 0.930 . S
C836 N834 1.375 . S
C836 C835 1.338 . S
C836 H840 0.931 . S
C837 N834 1.313 . S
C837 N838 1.344 . S
C837 H841 0.953 . S
N838 C835 1.377 . S
N838 C837 1.344 . S
O839 Co831 2.055 . S
O839 C843 1.253 . S
H840 C836 0.931 . S
H841 C837 0.953 . S
O842 Co831 2.039 . S
O842 C832 1.265 . S
C843 O839 1.253 . S
C843 O844 1.227 . S
O844 C843 1.227 . S
N845 Co831 2.140 . S
N845 C848 1.346 . S
N845 C849 1.345 . S
C846 C847 1.387 . S
C846 C850 1.391 . S
C847 C846 1.387 . S
C847 C848 1.369 . S
C847 H856 0.929 . S
C848 N845 1.346 . S
C848 C847 1.369 . S
C848 H851 0.928 . S
C849 N845 1.345 . S
C849 C850 1.371 . S
C849 H852 0.931 . S
C850 C846 1.391 . S
C850 C849 1.371 . S
C850 H857 0.930 1_455 S
H851 C848 0.928 . S
H852 C849 0.931 . S
H853 C829 0.930 . S
H854 C826 0.930 . S
H855 C835 0.930 . S
H856 C847 0.929 . S
H857 C850 0.930 1_655 S
C858 C859 1.351 . S
C858 N861 1.368 . S
C858 H863 0.931 . S
C859 C858 1.351 . S
C859 N860 1.373 . S
C859 H887 0.930 . S
N860 C859 1.373 . S
N860 C862 1.340 . S
N861 C858 1.368 . S
N861 C862 1.321 . S
N861 Co864 2.135 . S
C862 N860 1.340 . S
C862 N861 1.321 . S
C862 H886 0.930 . S
H863 C858 0.931 . S
Co864 N861 2.135 . S
Co864 N867 2.121 . S
Co864 O872 2.055 . S
Co864 O875 2.039 . S
Co864 N878 2.140 . S
C865 O866 1.227 . S
C865 O875 1.265 . S
O866 C865 1.227 . S
N867 Co864 2.121 . S
N867 C869 1.375 . S
N867 C870 1.313 . S
C868 C869 1.338 . S
C868 N871 1.377 . S
C868 H888 0.930 . S
C869 N867 1.375 . S
C869 C868 1.338 . S
C869 H873 0.931 . S
C870 N867 1.313 . S
C870 N871 1.344 . S
C870 H874 0.930 . S
N871 C868 1.377 . S
N871 C870 1.344 . S
O872 Co864 2.055 . S
O872 C876 1.253 . S
H873 C869 0.931 . S
H874 C870 0.930 . S
O875 Co864 2.039 . S
O875 C865 1.265 . S
C876 O872 1.253 . S
C876 O877 1.227 . S
O877 C876 1.227 . S
N878 Co864 2.140 . S
N878 C881 1.346 . S
N878 C882 1.345 . S
C879 C880 1.387 . S
C879 C883 1.391 . S
C880 C879 1.387 . S
C880 C881 1.369 . S
C880 H889 0.929 . S
C881 N878 1.346 . S
C881 C880 1.369 . S
C881 H884 0.928 . S
C882 N878 1.345 . S
C882 C883 1.371 . S
C882 H885 0.931 . S
C883 C879 1.391 . S
C883 C882 1.371 . S
C883 H890 0.930 . S
H884 C881 0.928 . S
H885 C882 0.931 . S
H886 C862 0.930 . S
H887 C859 0.930 . S
H888 C868 0.930 . S
H889 C880 0.929 . S
H890 C883 0.930 . S
C891 C892 1.351 . S
C891 N894 1.368 . S
C891 H896 0.931 . S
C892 C891 1.351 . S
C892 N893 1.373 . S
C892 H920 0.930 . S
N893 C892 1.373 . S
N893 C895 1.340 . S
N894 C891 1.368 . S
N894 C895 1.321 . S
N894 Co897 2.135 . S
C895 N893 1.340 . S
C895 N894 1.321 . S
C895 H919 0.930 . S
H896 C891 0.931 . S
Co897 N894 2.135 . S
Co897 N900 2.121 . S
Co897 O905 2.055 . S
Co897 O908 2.039 . S
Co897 N911 2.140 . S
C898 O899 1.227 . S
C898 O908 1.265 . S
O899 C898 1.227 . S
N900 Co897 2.121 . S
N900 C902 1.375 . S
N900 C903 1.313 . S
C901 C902 1.338 . S
C901 N904 1.377 . S
C901 H921 0.930 . S
C902 N900 1.375 . S
C902 C901 1.338 . S
C902 H906 0.931 . S
C903 N900 1.313 . S
C903 N904 1.344 . S
C903 H907 0.930 . S
N904 C901 1.377 . S
N904 C903 1.344 . S
O905 Co897 2.055 . S
O905 C909 1.253 . S
H906 C902 0.931 . S
H907 C903 0.930 . S
O908 Co897 2.039 . S
O908 C898 1.265 . S
C909 O905 1.253 . S
C909 O910 1.227 . S
O910 C909 1.227 . S
N911 Co897 2.140 . S
N911 C914 1.346 . S
N911 C915 1.345 . S
C912 C913 1.387 . S
C912 C916 1.391 . S
C913 C912 1.387 . S
C913 C914 1.369 . S
C913 H922 0.929 . S
C914 N911 1.346 . S
C914 C913 1.369 . S
C914 H917 0.928 . S
C915 N911 1.345 . S
C915 C916 1.371 . S
C915 H918 0.931 . S
C916 C912 1.391 . S
C916 C915 1.371 . S
C916 H923 0.930 . S
H917 C914 0.928 . S
H918 C915 0.931 . S
H919 C895 0.930 . S
H920 C892 0.930 . S
H921 C901 0.930 . S
H922 C913 0.929 . S
H923 C916 0.930 . S
C924 C925 1.351 . S
C924 N927 1.368 . S
C924 H929 0.931 . S
C925 C924 1.351 . S
C925 N926 1.373 . S
C925 H953 0.930 . S
N926 C925 1.373 . S
N926 C928 1.340 . S
N927 C924 1.368 . S
N927 C928 1.321 . S
N927 Co930 2.135 . S
C928 N926 1.340 . S
C928 N927 1.321 . S
C928 H952 0.930 . S
H929 C924 0.931 . S
Co930 N927 2.135 . S
Co930 N933 2.121 . S
Co930 O938 2.055 . S
Co930 O941 2.039 . S
Co930 N944 2.140 . S
C931 O932 1.227 . S
C931 O941 1.265 . S
O932 C931 1.227 . S
N933 Co930 2.121 . S
N933 C935 1.375 . S
N933 C936 1.313 . S
C934 C935 1.338 . S
C934 N937 1.377 . S
C934 H954 0.930 . S
C935 N933 1.375 . S
C935 C934 1.338 . S
C935 H939 0.931 . S
C936 N933 1.313 . S
C936 N937 1.344 . S
C936 H940 0.930 . S
N937 C934 1.377 . S
N937 C936 1.344 . S
O938 Co930 2.055 . S
O938 C942 1.253 . S
H939 C935 0.931 . S
H940 C936 0.930 . S
O941 Co930 2.039 . S
O941 C931 1.265 . S
C942 O938 1.253 . S
C942 O943 1.227 . S
O943 C942 1.227 . S
N944 Co930 2.140 . S
N944 C947 1.346 . S
N944 C948 1.345 . S
C945 C946 1.387 . S
C945 C949 1.391 . S
C946 C945 1.387 . S
C946 C947 1.369 . S
C946 H955 0.929 . S
C947 N944 1.346 . S
C947 C946 1.369 . S
C947 H950 0.928 . S
C948 N944 1.345 . S
C948 C949 1.371 . S
C948 H951 0.931 . S
C949 C945 1.391 . S
C949 C948 1.371 . S
C949 H956 0.930 . S
H950 C947 0.928 . S
H951 C948 0.931 . S
H952 C928 0.930 . S
H953 C925 0.930 . S
H954 C934 0.930 . S
H955 C946 0.929 . S
H956 C949 0.930 . S
C957 C958 1.351 . S
C957 N960 1.368 . S
C957 H962 0.931 . S
C958 C957 1.351 . S
C958 N959 1.373 . S
C958 H986 0.930 . S
N959 C958 1.373 . S
N959 C961 1.340 . S
N960 C957 1.368 . S
N960 C961 1.321 . S
N960 Co963 2.135 . S
C961 N959 1.340 . S
C961 N960 1.321 . S
C961 H985 0.930 . S
H962 C957 0.931 . S
Co963 N960 2.135 . S
Co963 N966 2.121 . S
Co963 O971 2.055 . S
Co963 O974 2.039 . S
Co963 N977 2.140 . S
C964 O965 1.227 . S
C964 O974 1.265 . S
O965 C964 1.227 . S
N966 Co963 2.121 . S
N966 C968 1.375 . S
N966 C969 1.313 . S
C967 C968 1.338 . S
C967 N970 1.377 . S
C967 H987 0.930 . S
C968 N966 1.375 . S
C968 C967 1.338 . S
C968 H972 0.931 . S
C969 N966 1.313 . S
C969 N970 1.344 . S
C969 H973 0.930 . S
N970 C967 1.377 . S
N970 C969 1.344 . S
O971 Co963 2.055 . S
O971 C975 1.253 . S
H972 C968 0.931 . S
H973 C969 0.930 . S
O974 Co963 2.039 . S
O974 C964 1.265 . S
C975 O971 1.253 . S
C975 O976 1.227 . S
O976 C975 1.227 . S
N977 Co963 2.140 . S
N977 C980 1.346 . S
N977 C981 1.345 . S
C978 C979 1.387 . S
C978 C982 1.391 . S
C979 C978 1.387 . S
C979 C980 1.369 . S
C979 H988 0.929 . S
C980 N977 1.346 . S
C980 C979 1.369 . S
C980 H983 0.928 . S
C981 N977 1.345 . S
C981 C982 1.371 . S
C981 H984 0.931 . S
C982 C978 1.391 . S
C982 C981 1.371 . S
C982 H989 0.930 . S
H983 C980 0.928 . S
H984 C981 0.931 . S
H985 C961 0.930 . S
H986 C958 0.930 . S
H987 C967 0.930 . S
H988 C979 0.929 . S
H989 C982 0.930 . S
C990 C991 1.351 . S
C990 N993 1.368 . S
C990 H995 0.931 . S
C991 C990 1.351 . S
C991 N992 1.373 . S
C991 H1019 0.930 . S
N992 C991 1.373 . S
N992 C994 1.340 . S
N993 C990 1.368 . S
N993 C994 1.321 . S
N993 Co996 2.135 . S
C994 N992 1.340 . S
C994 N993 1.321 . S
C994 H1018 0.930 . S
H995 C990 0.931 . S
Co996 N993 2.135 . S
Co996 N999 2.121 . S
Co996 O1004 2.055 . S
Co996 O1007 2.039 . S
Co996 N1010 2.140 . S
C997 O998 1.227 . S
C997 O1007 1.265 . S
O998 C997 1.227 . S
N999 Co996 2.121 . S
N999 C1001 1.375 . S
N999 C1002 1.313 . S
C1000 C1001 1.338 . S
C1000 N1003 1.377 . S
C1000 H1020 0.930 . S
C1001 N999 1.375 . S
C1001 C1000 1.338 . S
C1001 H1005 0.931 . S
C1002 N999 1.313 . S
C1002 N1003 1.344 . S
C1002 H1006 0.930 . S
N1003 C1000 1.377 . S
N1003 C1002 1.344 . S
O1004 Co996 2.055 . S
O1004 C1008 1.253 . S
H1005 C1001 0.931 . S
H1006 C1002 0.930 . S
O1007 Co996 2.039 . S
O1007 C997 1.265 . S
C1008 O1004 1.253 . S
C1008 O1009 1.227 . S
O1009 C1008 1.227 . S
N1010 Co996 2.140 . S
N1010 C1013 1.346 . S
N1010 C1014 1.345 . S
C1011 C1012 1.387 . S
C1011 C1015 1.391 . S
C1012 C1011 1.387 . S
C1012 C1013 1.369 . S
C1012 H1021 0.929 . S
C1013 N1010 1.346 . S
C1013 C1012 1.369 . S
C1013 H1016 0.928 . S
C1014 N1010 1.345 . S
C1014 C1015 1.371 . S
C1014 H1017 0.931 . S
C1015 C1011 1.391 . S
C1015 C1014 1.371 . S
C1015 H1022 0.930 . S
H1016 C1013 0.928 . S
H1017 C1014 0.931 . S
H1018 C994 0.930 . S
H1019 C991 0.930 . S
H1020 C1000 0.930 . S
H1021 C1012 0.929 . S
H1022 C1015 0.930 . S
C1023 C1024 1.351 . S
C1023 N1026 1.368 . S
C1023 H1028 0.931 . S
C1024 C1023 1.351 . S
C1024 N1025 1.373 . S
C1024 H1052 0.930 . S
N1025 C1024 1.373 . S
N1025 C1027 1.340 . S
N1026 C1023 1.368 . S
N1026 C1027 1.321 . S
N1026 Co1029 2.135 . S
C1027 N1025 1.340 . S
C1027 N1026 1.321 . S
C1027 H1051 0.930 . S
H1028 C1023 0.931 . S
Co1029 N1026 2.135 . S
Co1029 N1032 2.121 . S
Co1029 O1037 2.055 . S
Co1029 O1040 2.039 . S
Co1029 N1043 2.140 . S
C1030 O1031 1.227 . S
C1030 O1040 1.265 . S
O1031 C1030 1.227 . S
N1032 Co1029 2.121 . S
N1032 C1034 1.375 . S
N1032 C1035 1.313 . S
C1033 C1034 1.338 . S
C1033 N1036 1.377 . S
C1033 H1053 0.930 . S
C1034 N1032 1.375 . S
C1034 C1033 1.338 . S
C1034 H1038 0.931 . S
C1035 N1032 1.313 . S
C1035 N1036 1.344 . S
C1035 H1039 0.930 . S
N1036 C1033 1.377 . S
N1036 C1035 1.344 . S
O1037 Co1029 2.055 . S
O1037 C1041 1.253 . S
H1038 C1034 0.931 . S
H1039 C1035 0.930 . S
O1040 Co1029 2.039 . S
O1040 C1030 1.265 . S
C1041 O1037 1.253 . S
C1041 O1042 1.227 . S
O1042 C1041 1.227 . S
N1043 Co1029 2.140 . S
N1043 C1046 1.346 . S
N1043 C1047 1.345 . S
C1044 C1045 1.387 . S
C1044 C1048 1.391 . S
C1045 C1044 1.387 . S
C1045 C1046 1.369 . S
C1045 H1054 0.929 . S
C1046 N1043 1.346 . S
C1046 C1045 1.369 . S
C1046 H1049 0.928 . S
C1047 N1043 1.345 . S
C1047 C1048 1.371 . S
C1047 H1050 0.931 . S
C1048 C1044 1.391 . S
C1048 C1047 1.371 . S
C1048 H1055 0.930 . S
H1049 C1046 0.928 . S
H1050 C1047 0.931 . S
H1051 C1027 0.930 . S
H1052 C1024 0.930 . S
H1053 C1033 0.930 . S
H1054 C1045 0.929 . S
H1055 C1048 0.930 . S
C1056 C1057 1.351 . S
C1056 N1059 1.368 . S
C1056 H1061 0.931 . S
C1057 C1056 1.351 . S
C1057 N1058 1.373 . S
C1057 H1085 0.930 . S
N1058 C1057 1.373 . S
N1058 C1060 1.340 . S
N1059 C1056 1.368 . S
N1059 C1060 1.321 . S
N1059 Co1062 2.135 . S
C1060 N1058 1.340 . S
C1060 N1059 1.321 . S
C1060 H1084 0.930 . S
H1061 C1056 0.931 . S
Co1062 N1059 2.135 . S
Co1062 N1065 2.121 . S
Co1062 O1070 2.055 . S
Co1062 O1073 2.039 . S
Co1062 N1076 2.140 . S
C1063 O1064 1.227 . S
C1063 O1073 1.265 . S
O1064 C1063 1.227 . S
N1065 Co1062 2.121 . S
N1065 C1067 1.375 . S
N1065 C1068 1.313 . S
C1066 C1067 1.338 . S
C1066 N1069 1.377 . S
C1066 H1086 0.930 . S
C1067 N1065 1.375 . S
C1067 C1066 1.338 . S
C1067 H1071 0.931 . S
C1068 N1065 1.313 . S
C1068 N1069 1.344 . S
C1068 H1072 0.930 . S
N1069 C1066 1.377 . S
N1069 C1068 1.344 . S
O1070 Co1062 2.055 . S
O1070 C1074 1.253 . S
H1071 C1067 0.931 . S
H1072 C1068 0.930 . S
O1073 Co1062 2.039 . S
O1073 C1063 1.265 . S
C1074 O1070 1.253 . S
C1074 O1075 1.227 . S
O1075 C1074 1.227 . S
N1076 Co1062 2.140 . S
N1076 C1079 1.346 . S
N1076 C1080 1.345 . S
C1077 C1078 1.387 . S
C1077 C1081 1.391 . S
C1078 C1077 1.387 . S
C1078 C1079 1.369 . S
C1078 H1087 0.929 . S
C1079 N1076 1.346 . S
C1079 C1078 1.369 . S
C1079 H1082 0.928 . S
C1080 N1076 1.345 . S
C1080 C1081 1.371 . S
C1080 H1083 0.931 . S
C1081 C1077 1.391 . S
C1081 C1080 1.371 . S
C1081 H1088 0.930 . S
H1082 C1079 0.928 . S
H1083 C1080 0.931 . S
H1084 C1060 0.930 . S
H1085 C1057 0.930 . S
H1086 C1066 0.930 . S
H1087 C1078 0.929 . S
H1088 C1081 0.930 . S
C1089 C1090 1.351 . S
C1089 N1092 1.368 . S
C1089 H1094 0.931 . S
C1090 C1089 1.351 . S
C1090 N1091 1.373 . S
C1090 H1118 0.930 . S
N1091 C1090 1.373 . S
N1091 C1093 1.340 . S
N1092 C1089 1.368 . S
N1092 C1093 1.321 . S
N1092 Co1095 2.135 . S
C1093 N1091 1.340 . S
C1093 N1092 1.321 . S
C1093 H1117 0.930 . S
H1094 C1089 0.931 . S
Co1095 N1092 2.135 . S
Co1095 N1098 2.121 . S
Co1095 O1103 2.055 . S
Co1095 O1106 2.039 . S
Co1095 N1109 2.140 . S
C1096 O1097 1.227 . S
C1096 O1106 1.265 . S
O1097 C1096 1.227 . S
N1098 Co1095 2.121 . S
N1098 C1100 1.375 . S
N1098 C1101 1.313 . S
C1099 C1100 1.338 . S
C1099 N1102 1.377 . S
C1099 H1119 0.930 . S
C1100 N1098 1.375 . S
C1100 C1099 1.338 . S
C1100 H1104 0.931 . S
C1101 N1098 1.313 . S
C1101 N1102 1.344 . S
C1101 H1105 0.930 . S
N1102 C1099 1.377 . S
N1102 C1101 1.344 . S
O1103 Co1095 2.055 . S
O1103 C1107 1.253 . S
H1104 C1100 0.931 . S
H1105 C1101 0.930 . S
O1106 Co1095 2.039 . S
O1106 C1096 1.265 . S
C1107 O1103 1.253 . S
C1107 O1108 1.227 . S
O1108 C1107 1.227 . S
N1109 Co1095 2.140 . S
N1109 C1112 1.346 . S
N1109 C1113 1.345 . S
C1110 C1111 1.387 . S
C1110 C1114 1.391 . S
C1111 C1110 1.387 . S
C1111 C1112 1.369 . S
C1111 H1120 0.929 . S
C1112 N1109 1.346 . S
C1112 C1111 1.369 . S
C1112 H1115 0.928 . S
C1113 N1109 1.345 . S
C1113 C1114 1.371 . S
C1113 H1116 0.931 . S
C1114 C1110 1.391 . S
C1114 C1113 1.371 . S
C1114 H1121 0.930 1_455 S
H1115 C1112 0.928 . S
H1116 C1113 0.931 . S
H1117 C1093 0.930 . S
H1118 C1090 0.930 . S
H1119 C1099 0.930 . S
H1120 C1111 0.929 . S
H1121 C1114 0.930 1_655 S
C1122 C1123 1.351 . S
C1122 N1125 1.368 . S
C1122 H1127 0.931 . S
C1123 C1122 1.351 . S
C1123 N1124 1.373 . S
C1123 H1151 0.930 . S
N1124 C1123 1.373 . S
N1124 C1126 1.340 . S
N1125 C1122 1.368 . S
N1125 C1126 1.321 . S
N1125 Co1128 2.135 . S
C1126 N1124 1.340 . S
C1126 N1125 1.321 . S
C1126 H1150 0.930 . S
H1127 C1122 0.931 . S
Co1128 N1125 2.135 . S
Co1128 N1131 2.121 . S
Co1128 O1136 2.055 . S
Co1128 O1139 2.039 . S
Co1128 N1142 2.140 . S
C1129 O1130 1.227 . S
C1129 O1139 1.265 . S
O1130 C1129 1.227 . S
N1131 Co1128 2.121 . S
N1131 C1133 1.375 . S
N1131 C1134 1.313 . S
C1132 C1133 1.338 . S
C1132 N1135 1.377 . S
C1132 H1152 0.930 . S
C1133 N1131 1.375 . S
C1133 C1132 1.338 . S
C1133 H1137 0.931 . S
C1134 N1131 1.313 . S
C1134 N1135 1.344 . S
C1134 H1138 0.930 . S
N1135 C1132 1.377 . S
N1135 C1134 1.344 . S
O1136 Co1128 2.055 . S
O1136 C1140 1.253 . S
H1137 C1133 0.931 . S
H1138 C1134 0.930 . S
O1139 Co1128 2.039 . S
O1139 C1129 1.265 . S
C1140 O1136 1.253 . S
C1140 O1141 1.227 . S
O1141 C1140 1.227 . S
N1142 Co1128 2.140 . S
N1142 C1145 1.346 . S
N1142 C1146 1.345 . S
C1143 C1144 1.387 . S
C1143 C1147 1.391 . S
C1144 C1143 1.387 . S
C1144 C1145 1.369 . S
C1144 H1153 0.929 . S
C1145 N1142 1.346 . S
C1145 C1144 1.369 . S
C1145 H1148 0.928 . S
C1146 N1142 1.345 . S
C1146 C1147 1.371 . S
C1146 H1149 0.931 . S
C1147 C1143 1.391 . S
C1147 C1146 1.371 . S
C1147 H1154 0.930 . S
H1148 C1145 0.928 . S
H1149 C1146 0.931 . S
H1150 C1126 0.930 . S
H1151 C1123 0.930 . S
H1152 C1132 0.930 . S
H1153 C1144 0.929 . S
H1154 C1147 0.930 . S
C1155 C1156 1.351 . S
C1155 N1158 1.368 . S
C1155 H1160 0.931 . S
C1156 C1155 1.351 . S
C1156 N1157 1.373 . S
C1156 H1184 0.930 . S
N1157 C1156 1.373 . S
N1157 C1159 1.340 . S
N1158 C1155 1.368 . S
N1158 C1159 1.321 . S
N1158 Co1161 2.135 . S
C1159 N1157 1.340 . S
C1159 N1158 1.321 . S
C1159 H1183 0.930 . S
H1160 C1155 0.931 . S
Co1161 N1158 2.135 . S
Co1161 N1164 2.121 . S
Co1161 O1169 2.055 . S
Co1161 O1172 2.039 . S
Co1161 N1175 2.140 . S
C1162 O1163 1.227 . S
C1162 O1172 1.265 . S
O1163 C1162 1.227 . S
N1164 Co1161 2.121 . S
N1164 C1166 1.375 . S
N1164 C1167 1.313 . S
C1165 C1166 1.338 . S
C1165 N1168 1.377 . S
C1165 H1185 0.930 . S
C1166 N1164 1.375 . S
C1166 C1165 1.338 . S
C1166 H1170 0.931 . S
C1167 N1164 1.313 . S
C1167 N1168 1.344 . S
C1167 H1171 0.954 . S
N1168 C1165 1.377 . S
N1168 C1167 1.344 . S
O1169 Co1161 2.055 . S
O1169 C1173 1.253 . S
H1170 C1166 0.931 . S
H1171 C1167 0.954 . S
O1172 Co1161 2.039 . S
O1172 C1162 1.265 . S
C1173 O1169 1.253 . S
C1173 O1174 1.227 . S
O1174 C1173 1.227 . S
N1175 Co1161 2.140 . S
N1175 C1178 1.346 . S
N1175 C1179 1.345 . S
C1176 C1177 1.387 . S
C1176 C1180 1.391 . S
C1177 C1176 1.387 . S
C1177 C1178 1.369 . S
C1177 H1186 0.929 . S
C1178 N1175 1.346 . S
C1178 C1177 1.369 . S
C1178 H1181 0.928 . S
C1179 N1175 1.345 . S
C1179 C1180 1.371 . S
C1179 H1182 0.931 . S
C1180 C1176 1.391 . S
C1180 C1179 1.371 . S
C1180 H1187 0.930 1_565 S
H1181 C1178 0.928 . S
H1182 C1179 0.931 . S
H1183 C1159 0.930 . S
H1184 C1156 0.930 . S
H1185 C1165 0.930 . S
H1186 C1177 0.929 . S
H1187 C1180 0.930 1_545 S
H1188 C1196 0.950 . S
H1189 C1201 0.950 . S
H1190 C1198 0.950 . S
H1191 C1200 0.950 . S
H1192 C1202 0.950 1_565 S
H1193 C1204 0.950 . S
H1194 C1206 0.950 . S
H1195 C1207 0.950 . S
C1196 H1188 0.950 . S
C1196 C1197 1.386 . S
C1196 C1198 1.391 . S
C1197 C1196 1.386 . S
C1197 C1201 1.393 . S
C1198 H1190 0.950 . S
C1198 C1196 1.391 . S
C1198 C1199 1.400 . S
C1199 C1198 1.400 . S
C1199 C1200 1.398 . S
C1199 C1205 1.491 . S
C1200 H1191 0.950 . S
C1200 C1199 1.398 . S
C1200 C1201 1.391 . S
C1201 H1189 0.950 . S
C1201 C1197 1.393 . S
C1201 C1200 1.391 . S
C1202 H1192 0.950 1_545 S
C1202 C1203 1.386 . S
C1202 C1204 1.391 . S
C1203 C1202 1.386 . S
C1203 C1207 1.393 . S
C1204 H1193 0.950 . S
C1204 C1202 1.391 . S
C1204 C1205 1.400 . S
C1205 C1199 1.491 . S
C1205 C1204 1.400 . S
C1205 C1206 1.398 . S
C1206 H1194 0.950 . S
C1206 C1205 1.398 . S
C1206 C1207 1.391 . S
C1207 H1195 0.950 . S
C1207 C1203 1.393 . S
C1207 C1206 1.391 . S
H1208 C1216 0.950 1_455 S
H1209 C1221 0.950 . S
H1210 C1218 0.950 . S
H1211 C1220 0.950 . S
H1212 C1222 0.940 . S
H1213 C1224 0.950 . S
H1214 C1226 0.950 . S
H1215 C1227 0.950 . S
C1216 H1208 0.950 1_655 S
C1216 C1217 1.386 . S
C1216 C1218 1.391 . S
C1217 C1216 1.386 . S
C1217 C1221 1.393 . S
C1218 H1210 0.950 . S
C1218 C1216 1.391 . S
C1218 C1219 1.400 . S
C1219 C1218 1.400 . S
C1219 C1220 1.398 . S
C1219 C1225 1.491 . S
C1220 H1211 0.950 . S
C1220 C1219 1.398 . S
C1220 C1221 1.391 . S
C1221 H1209 0.950 . S
C1221 C1217 1.393 . S
C1221 C1220 1.391 . S
C1222 H1212 0.940 . S
C1222 C1223 1.417 . S
C1222 C1224 1.370 1_565 S
C1223 C1222 1.417 . S
C1223 C1227 1.393 . S
C1224 H1213 0.950 . S
C1224 C1222 1.370 1_545 S
C1224 C1225 1.400 . S
C1225 C1219 1.491 . S
C1225 C1224 1.400 . S
C1225 C1226 1.398 . S
C1226 H1214 0.950 . S
C1226 C1225 1.398 . S
C1226 C1227 1.391 1_545 S
C1227 H1215 0.950 . S
C1227 C1223 1.393 . S
C1227 C1226 1.391 1_565 S
H1228 C1236 0.950 . S
H1229 C1241 0.950 . S
H1230 C1238 0.950 . S
H1231 C1240 0.950 . S
H1232 C1242 0.950 . S
H1233 C1244 0.950 . S
H1234 C1246 0.950 . S
H1235 C1247 0.950 . S
C1236 H1228 0.950 . S
C1236 C1237 1.386 . S
C1236 C1238 1.391 . S
C1237 C1236 1.386 . S
C1237 C1241 1.393 . S
C1238 H1230 0.950 . S
C1238 C1236 1.391 . S
C1238 C1239 1.400 . S
C1239 C1238 1.400 . S
C1239 C1240 1.398 . S
C1239 C1245 1.491 . S
C1240 H1231 0.950 . S
C1240 C1239 1.398 . S
C1240 C1241 1.391 . S
C1241 H1229 0.950 . S
C1241 C1237 1.393 . S
C1241 C1240 1.391 . S
C1242 H1232 0.950 . S
C1242 C1243 1.386 . S
C1242 C1244 1.391 1_455 S
C1243 C1242 1.386 . S
C1243 C1247 1.393 . S
C1244 H1233 0.950 . S
C1244 C1242 1.391 1_655 S
C1244 C1245 1.400 . S
C1245 C1239 1.491 . S
C1245 C1244 1.400 . S
C1245 C1246 1.398 . S
C1246 H1234 0.950 . S
C1246 C1245 1.398 . S
C1246 C1247 1.391 1_655 S
C1247 H1235 0.950 . S
C1247 C1243 1.393 . S
C1247 C1246 1.391 1_455 S
H1248 C1256 0.950 . S
H1249 C1261 0.950 . S
H1250 C1258 0.950 . S
H1251 C1260 0.950 . S
H1252 C1262 0.950 . S
H1253 C1264 0.950 . S
H1254 C1266 0.950 . S
H1255 C1267 0.950 . S
C1256 H1248 0.950 . S
C1256 C1257 1.386 . S
C1256 C1258 1.391 . S
C1257 C1256 1.386 . S
C1257 C1261 1.393 . S
C1258 H1250 0.950 . S
C1258 C1256 1.391 . S
C1258 C1259 1.400 . S
C1259 C1258 1.400 . S
C1259 C1260 1.398 . S
C1259 C1265 1.491 . S
C1260 H1251 0.950 . S
C1260 C1259 1.398 . S
C1260 C1261 1.391 . S
C1261 H1249 0.950 . S
C1261 C1257 1.393 . S
C1261 C1260 1.391 . S
C1262 H1252 0.950 . S
C1262 C1263 1.386 . S
C1262 C1264 1.391 . S
C1263 C1262 1.386 . S
C1263 C1267 1.393 . S
C1264 H1253 0.950 . S
C1264 C1262 1.391 . S
C1264 C1265 1.400 . S
C1265 C1259 1.491 . S
C1265 C1264 1.400 . S
C1265 C1266 1.398 . S
C1266 H1254 0.950 . S
C1266 C1265 1.398 . S
C1266 C1267 1.391 . S
C1267 H1255 0.950 . S
C1267 C1263 1.393 . S
C1267 C1266 1.391 . S
H1268 C1276 0.950 . S
H1269 C1281 0.950 . S
H1270 C1278 0.950 . S
H1271 C1280 0.950 . S
H1272 C1282 0.950 . S
H1273 C1284 0.950 . S
H1274 C1286 0.950 . S
H1275 C1287 0.957 . S
C1276 H1268 0.950 . S
C1276 C1277 1.386 . S
C1276 C1278 1.391 . S
C1277 C1276 1.386 . S
C1277 C1281 1.393 . S
C1278 H1270 0.950 . S
C1278 C1276 1.391 . S
C1278 C1279 1.400 . S
C1279 C1278 1.400 . S
C1279 C1280 1.398 . S
C1279 C1285 1.491 . S
C1280 H1271 0.950 . S
C1280 C1279 1.398 . S
C1280 C1281 1.391 . S
C1281 H1269 0.950 . S
C1281 C1277 1.393 . S
C1281 C1280 1.391 . S
C1282 H1272 0.950 . S
C1282 C1283 1.386 . S
C1282 C1284 1.391 1_545 S
C1283 C1282 1.386 . S
C1283 C1287 1.396 . S
C1284 H1273 0.950 . S
C1284 C1282 1.391 1_565 S
C1284 C1285 1.400 . S
C1285 C1279 1.491 . S
C1285 C1284 1.400 . S
C1285 C1286 1.398 . S
C1286 H1274 0.950 . S
C1286 C1285 1.398 . S
C1286 C1287 1.381 1_565 S
C1287 H1275 0.957 . S
C1287 C1283 1.396 . S
C1287 C1286 1.381 1_545 S
H1288 C1296 0.950 . S
H1289 C1301 0.950 . S
H1290 C1298 0.950 . S
H1291 C1300 0.950 . S
H1292 C1302 0.951 . S
H1293 C1304 0.950 . S
H1294 C1306 0.950 . S
H1295 C1307 0.950 . S
C1296 H1288 0.950 . S
C1296 C1297 1.386 . S
C1296 C1298 1.391 . S
C1297 C1296 1.386 . S
C1297 C1301 1.393 . S
C1298 H1290 0.950 . S
C1298 C1296 1.391 . S
C1298 C1299 1.400 . S
C1299 C1298 1.400 . S
C1299 C1300 1.398 . S
C1299 C1305 1.491 . S
C1300 H1291 0.950 . S
C1300 C1299 1.398 . S
C1300 C1301 1.391 . S
C1301 H1289 0.950 . S
C1301 C1297 1.393 . S
C1301 C1300 1.391 . S
C1302 H1292 0.951 . S
C1302 C1303 1.397 . S
C1302 C1304 1.379 1_655 S
C1303 C1302 1.397 . S
C1303 C1307 1.393 . S
C1304 H1293 0.950 . S
C1304 C1302 1.379 1_455 S
C1304 C1305 1.400 . S
C1305 C1299 1.491 . S
C1305 C1304 1.400 . S
C1305 C1306 1.398 . S
C1306 H1294 0.950 . S
C1306 C1305 1.398 . S
C1306 C1307 1.391 1_455 S
C1307 H1295 0.950 . S
C1307 C1303 1.393 . S
C1307 C1306 1.391 1_655 S
H1308 C1316 0.950 . S
H1309 C1321 0.950 1_545 S
H1310 C1318 0.950 . S
H1311 C1320 0.950 . S
H1312 C1322 0.950 . S
H1313 C1324 0.950 . S
H1314 C1326 0.950 . S
H1315 C1327 0.950 . S
C1316 H1308 0.950 . S
C1316 C1317 1.386 . S
C1316 C1318 1.391 . S
C1317 C1316 1.386 . S
C1317 C1321 1.393 . S
C1318 H1310 0.950 . S
C1318 C1316 1.391 . S
C1318 C1319 1.400 . S
C1319 C1318 1.400 . S
C1319 C1320 1.398 . S
C1319 C1325 1.491 . S
C1320 H1311 0.950 . S
C1320 C1319 1.398 . S
C1320 C1321 1.391 . S
C1321 H1309 0.950 1_565 S
C1321 C1317 1.393 . S
C1321 C1320 1.391 . S
C1322 H1312 0.950 . S
C1322 C1323 1.386 . S
C1322 C1324 1.391 . S
C1323 C1322 1.386 . S
C1323 C1327 1.393 . S
C1324 H1313 0.950 . S
C1324 C1322 1.391 . S
C1324 C1325 1.400 . S
C1325 C1319 1.491 . S
C1325 C1324 1.400 . S
C1325 C1326 1.398 . S
C1326 H1314 0.950 . S
C1326 C1325 1.398 . S
C1326 C1327 1.391 . S
C1327 H1315 0.950 . S
C1327 C1323 1.393 . S
C1327 C1326 1.391 . S
H1328 C1336 0.950 1_545 S
H1329 C1341 0.950 . S
H1330 C1338 0.950 . S
H1331 C1340 0.950 . S
H1332 C1342 0.950 1_655 S
H1333 C1344 0.950 . S
H1334 C1346 0.950 . S
H1335 C1347 0.950 . S
C1336 H1328 0.950 1_565 S
C1336 C1337 1.386 1_565 S
C1336 C1338 1.391 . S
C1337 C1336 1.386 1_545 S
C1337 C1341 1.393 . S
C1338 H1330 0.950 . S
C1338 C1336 1.391 . S
C1338 C1339 1.400 . S
C1339 C1338 1.400 . S
C1339 C1340 1.398 . S
C1339 C1345 1.491 . S
C1340 H1331 0.950 . S
C1340 C1339 1.398 . S
C1340 C1341 1.391 1_565 S
C1341 H1329 0.950 . S
C1341 C1337 1.393 . S
C1341 C1340 1.391 1_545 S
C1342 H1332 0.950 1_455 S
C1342 C1343 1.386 . S
C1342 C1344 1.391 . S
C1343 C1342 1.386 . S
C1343 C1347 1.393 . S
C1344 H1333 0.950 . S
C1344 C1342 1.391 . S
C1344 C1345 1.400 . S
C1345 C1339 1.491 . S
C1345 C1344 1.400 . S
C1345 C1346 1.398 . S
C1346 H1334 0.950 . S
C1346 C1345 1.398 . S
C1346 C1347 1.391 . S
C1347 H1335 0.950 . S
C1347 C1343 1.393 . S
C1347 C1346 1.391 . S
H1348 C1356 0.950 . S
H1349 C1361 0.950 . S
H1350 C1358 0.950 . S
H1351 C1360 0.950 . S
H1352 C1362 0.950 . S
H1353 C1364 0.950 . S
H1354 C1366 0.950 . S
H1355 C1367 0.950 . S
C1356 H1348 0.950 . S
C1356 C1357 1.386 . S
C1356 C1358 1.391 . S
C1357 C1356 1.386 . S
C1357 C1361 1.393 . S
C1358 H1350 0.950 . S
C1358 C1356 1.391 . S
C1358 C1359 1.400 . S
C1359 C1358 1.400 . S
C1359 C1360 1.398 . S
C1359 C1365 1.491 . S
C1360 H1351 0.950 . S
C1360 C1359 1.398 . S
C1360 C1361 1.391 . S
C1361 H1349 0.950 . S
C1361 C1357 1.393 . S
C1361 C1360 1.391 . S
C1362 H1352 0.950 . S
C1362 C1363 1.386 . S
C1362 C1364 1.391 1_655 S
C1363 C1362 1.386 . S
C1363 C1367 1.393 . S
C1364 H1353 0.950 . S
C1364 C1362 1.391 1_455 S
C1364 C1365 1.400 . S
C1365 C1359 1.491 . S
C1365 C1364 1.400 . S
C1365 C1366 1.398 . S
C1366 H1354 0.950 . S
C1366 C1365 1.398 . S
C1366 C1367 1.391 1_455 S
C1367 H1355 0.950 . S
C1367 C1363 1.393 . S
C1367 C1366 1.391 1_655 S
H1368 C1376 0.950 1_455 S
H1369 C1381 0.950 . S
H1370 C1378 0.950 . S
H1371 C1380 0.950 . S
H1372 C1382 0.950 . S
H1373 C1384 0.950 . S
H1374 C1386 0.950 . S
H1375 C1387 0.950 . S
C1376 H1368 0.950 1_655 S
C1376 C1377 1.386 . S
C1376 C1378 1.391 . S
C1377 C1376 1.386 . S
C1377 C1381 1.393 . S
C1378 H1370 0.950 . S
C1378 C1376 1.391 . S
C1378 C1379 1.400 . S
C1379 C1378 1.400 . S
C1379 C1380 1.398 . S
C1379 C1385 1.491 . S
C1380 H1371 0.950 . S
C1380 C1379 1.398 . S
C1380 C1381 1.391 . S
C1381 H1369 0.950 . S
C1381 C1377 1.393 . S
C1381 C1380 1.391 . S
C1382 H1372 0.950 . S
C1382 C1383 1.386 . S
C1382 C1384 1.391 . S
C1383 C1382 1.386 . S
C1383 C1387 1.393 . S
C1384 H1373 0.950 . S
C1384 C1382 1.391 . S
C1384 C1385 1.400 . S
C1385 C1379 1.491 . S
C1385 C1384 1.400 . S
C1385 C1386 1.398 . S
C1386 H1374 0.950 . S
C1386 C1385 1.398 . S
C1386 C1387 1.391 . S
C1387 H1375 0.950 . S
C1387 C1383 1.393 . S
C1387 C1386 1.391 . S
H1388 C1396 0.950 . S
H1389 C1401 0.950 . S
H1390 C1398 0.950 . S
H1391 C1400 0.950 . S
H1392 C1402 0.950 . S
H1393 C1404 0.950 . S
H1394 C1406 0.950 . S
H1395 C1407 0.950 . S
C1396 H1388 0.950 . S
C1396 C1397 1.386 . S
C1396 C1398 1.391 1_565 S
C1397 C1396 1.386 . S
C1397 C1401 1.393 . S
C1398 H1390 0.950 . S
C1398 C1396 1.391 1_545 S
C1398 C1399 1.400 . S
C1399 C1398 1.400 . S
C1399 C1400 1.398 . S
C1399 C1405 1.491 . S
C1400 H1391 0.950 . S
C1400 C1399 1.398 . S
C1400 C1401 1.391 1_545 S
C1401 H1389 0.950 . S
C1401 C1397 1.393 . S
C1401 C1400 1.391 1_565 S
C1402 H1392 0.950 . S
C1402 C1403 1.386 . S
C1402 C1404 1.391 . S
C1403 C1402 1.386 . S
C1403 C1407 1.393 . S
C1404 H1393 0.950 . S
C1404 C1402 1.391 . S
C1404 C1405 1.400 . S
C1405 C1399 1.491 . S
C1405 C1404 1.400 . S
C1405 C1406 1.398 . S
C1406 H1394 0.950 . S
C1406 C1405 1.398 . S
C1406 C1407 1.391 . S
C1407 H1395 0.950 . S
C1407 C1403 1.393 . S
C1407 C1406 1.391 . S
H1408 C1416 0.950 . S
H1409 C1421 0.950 1_565 S
H1410 C1418 0.950 . S
H1411 C1420 0.950 . S
H1412 C1422 0.950 . S
H1413 C1424 0.950 . S
H1414 C1426 0.950 . S
H1415 C1427 0.950 1_455 S
C1416 H1408 0.950 . S
C1416 C1417 1.386 . S
C1416 C1418 1.391 . S
C1417 C1416 1.386 . S
C1417 C1421 1.393 . S
C1418 H1410 0.950 . S
C1418 C1416 1.391 . S
C1418 C1419 1.400 . S
C1419 C1418 1.400 . S
C1419 C1420 1.398 . S
C1419 C1425 1.491 . S
C1420 H1411 0.950 . S
C1420 C1419 1.398 . S
C1420 C1421 1.391 . S
C1421 H1409 0.950 1_545 S
C1421 C1417 1.393 . S
C1421 C1420 1.391 . S
C1422 H1412 0.950 . S
C1422 C1423 1.386 . S
C1422 C1424 1.391 1_455 S
C1423 C1422 1.386 . S
C1423 C1427 1.393 1_455 S
C1424 H1413 0.950 . S
C1424 C1422 1.391 1_655 S
C1424 C1425 1.400 . S
C1425 C1419 1.491 . S
C1425 C1424 1.400 . S
C1425 C1426 1.398 . S
C1426 H1414 0.950 . S
C1426 C1425 1.398 . S
C1426 C1427 1.391 . S
C1427 H1415 0.950 1_655 S
C1427 C1423 1.393 1_655 S
C1427 C1426 1.391 . S
H1428 C1436 0.950 . S
H1429 C1441 0.950 . S
H1430 C1438 0.950 . S
H1431 C1440 0.950 . S
H1432 C1442 0.950 . S
H1433 C1444 0.950 . S
H1434 C1446 0.950 . S
H1435 C1447 0.950 . S
C1436 H1428 0.950 . S
C1436 C1437 1.386 . S
C1436 C1438 1.391 . S
C1437 C1436 1.386 . S
C1437 C1441 1.393 . S
C1438 H1430 0.950 . S
C1438 C1436 1.391 . S
C1438 C1439 1.400 . S
C1439 C1438 1.400 . S
C1439 C1440 1.398 . S
C1439 C1445 1.491 . S
C1440 H1431 0.950 . S
C1440 C1439 1.398 . S
C1440 C1441 1.391 . S
C1441 H1429 0.950 . S
C1441 C1437 1.393 . S
C1441 C1440 1.391 . S
C1442 H1432 0.950 . S
C1442 C1443 1.386 . S
C1442 C1444 1.391 . S
C1443 C1442 1.386 . S
C1443 C1447 1.393 . S
C1444 H1433 0.950 . S
C1444 C1442 1.391 . S
C1444 C1445 1.400 . S
C1445 C1439 1.491 . S
C1445 C1444 1.400 . S
C1445 C1446 1.398 . S
C1446 H1434 0.950 . S
C1446 C1445 1.398 . S
C1446 C1447 1.391 . S
C1447 H1435 0.950 . S
C1447 C1443 1.393 . S
C1447 C1446 1.391 . S
H1448 C1456 0.950 . S
H1449 C1461 0.950 . S
H1450 C1458 0.950 . S
H1451 C1460 0.950 . S
H1452 C1462 0.950 . S
H1453 C1464 0.950 . S
H1454 C1466 0.950 . S
H1455 C1467 0.950 . S
C1456 H1448 0.950 . S
C1456 C1457 1.386 . S
C1456 C1458 1.391 . S
C1457 C1456 1.386 . S
C1457 C1461 1.393 . S
C1458 H1450 0.950 . S
C1458 C1456 1.391 . S
C1458 C1459 1.400 . S
C1459 C1458 1.400 . S
C1459 C1460 1.398 . S
C1459 C1465 1.491 . S
C1460 H1451 0.950 . S
C1460 C1459 1.398 . S
C1460 C1461 1.391 . S
C1461 H1449 0.950 . S
C1461 C1457 1.393 . S
C1461 C1460 1.391 . S
C1462 H1452 0.950 . S
C1462 C1463 1.386 . S
C1462 C1464 1.391 . S
C1463 C1462 1.386 . S
C1463 C1467 1.393 . S
C1464 H1453 0.950 . S
C1464 C1462 1.391 . S
C1464 C1465 1.400 . S
C1465 C1459 1.491 . S
C1465 C1464 1.400 . S
C1465 C1466 1.398 . S
C1466 H1454 0.950 . S
C1466 C1465 1.398 . S
C1466 C1467 1.391 . S
C1467 H1455 0.950 . S
C1467 C1463 1.393 . S
C1467 C1466 1.391 . S
H1468 C1476 0.950 . S
H1469 C1481 0.950 . S
H1470 C1478 0.950 . S
H1471 C1480 0.950 . S
H1472 C1482 0.950 . S
H1473 C1484 0.950 . S
H1474 C1486 0.950 . S
H1475 C1487 0.950 . S
C1476 H1468 0.950 . S
C1476 C1477 1.386 . S
C1476 C1478 1.391 . S
C1477 C1476 1.386 . S
C1477 C1481 1.393 . S
C1478 H1470 0.950 . S
C1478 C1476 1.391 . S
C1478 C1479 1.400 . S
C1479 C1478 1.400 . S
C1479 C1480 1.398 . S
C1479 C1485 1.491 . S
C1480 H1471 0.950 . S
C1480 C1479 1.398 . S
C1480 C1481 1.391 . S
C1481 H1469 0.950 . S
C1481 C1477 1.393 . S
C1481 C1480 1.391 . S
C1482 H1472 0.950 . S
C1482 C1483 1.386 . S
C1482 C1484 1.391 . S
C1483 C1482 1.386 . S
C1483 C1487 1.393 . S
C1484 H1473 0.950 . S
C1484 C1482 1.391 . S
C1484 C1485 1.400 . S
C1485 C1479 1.491 . S
C1485 C1484 1.400 . S
C1485 C1486 1.398 . S
C1486 H1474 0.950 . S
C1486 C1485 1.398 . S
C1486 C1487 1.391 . S
C1487 H1475 0.950 . S
C1487 C1483 1.393 . S
C1487 C1486 1.391 . S
H1488 C1496 0.950 . S
H1489 C1501 0.950 . S
H1490 C1498 0.950 . S
H1491 C1500 0.950 . S
H1492 C1502 0.950 . S
H1493 C1504 0.950 . S
H1494 C1506 0.950 . S
H1495 C1507 0.950 . S
C1496 H1488 0.950 . S
C1496 C1497 1.386 . S
C1496 C1498 1.391 . S
C1497 C1496 1.386 . S
C1497 C1501 1.393 . S
C1498 H1490 0.950 . S
C1498 C1496 1.391 . S
C1498 C1499 1.400 . S
C1499 C1498 1.400 . S
C1499 C1500 1.398 . S
C1499 C1505 1.491 . S
C1500 H1491 0.950 . S
C1500 C1499 1.398 . S
C1500 C1501 1.391 . S
C1501 H1489 0.950 . S
C1501 C1497 1.393 . S
C1501 C1500 1.391 . S
C1502 H1492 0.950 . S
C1502 C1503 1.386 . S
C1502 C1504 1.391 . S
C1503 C1502 1.386 . S
C1503 C1507 1.393 . S
C1504 H1493 0.950 . S
C1504 C1502 1.391 . S
C1504 C1505 1.400 . S
C1505 C1499 1.491 . S
C1505 C1504 1.400 . S
C1505 C1506 1.398 . S
C1506 H1494 0.950 . S
C1506 C1505 1.398 . S
C1506 C1507 1.391 . S
C1507 H1495 0.950 . S
C1507 C1503 1.393 . S
C1507 C1506 1.391 . S
H1508 C1516 0.950 . S
H1509 C1521 0.950 . S
H1510 C1518 0.950 . S
H1511 C1520 0.950 . S
H1512 C1522 0.950 . S
H1513 C1524 0.950 . S
H1514 C1526 0.950 . S
H1515 C1527 0.950 . S
C1516 H1508 0.950 . S
C1516 C1517 1.386 . S
C1516 C1518 1.391 . S
C1517 C1516 1.386 . S
C1517 C1521 1.393 . S
C1518 H1510 0.950 . S
C1518 C1516 1.391 . S
C1518 C1519 1.400 . S
C1519 C1518 1.400 . S
C1519 C1520 1.398 . S
C1519 C1525 1.491 . S
C1520 H1511 0.950 . S
C1520 C1519 1.398 . S
C1520 C1521 1.391 . S
C1521 H1509 0.950 . S
C1521 C1517 1.393 . S
C1521 C1520 1.391 . S
C1522 H1512 0.950 . S
C1522 C1523 1.386 . S
C1522 C1524 1.391 . S
C1523 C1522 1.386 . S
C1523 C1527 1.393 . S
C1524 H1513 0.950 . S
C1524 C1522 1.391 . S
C1524 C1525 1.400 . S
C1525 C1519 1.491 . S
C1525 C1524 1.400 . S
C1525 C1526 1.398 . S
C1526 H1514 0.950 . S
C1526 C1525 1.398 . S
C1526 C1527 1.391 . S
C1527 H1515 0.950 . S
C1527 C1523 1.393 . S
C1527 C1526 1.391 . S
H1528 C1536 0.950 . S
H1529 C1541 0.950 . S
H1530 C1538 0.950 . S
H1531 C1540 0.950 . S
H1532 C1542 0.950 . S
H1533 C1544 0.950 . S
H1534 C1546 0.950 . S
H1535 C1547 0.950 . S
C1536 H1528 0.950 . S
C1536 C1537 1.386 . S
C1536 C1538 1.391 . S
C1537 C1536 1.386 . S
C1537 C1541 1.393 . S
C1538 H1530 0.950 . S
C1538 C1536 1.391 . S
C1538 C1539 1.400 . S
C1539 C1538 1.400 . S
C1539 C1540 1.398 . S
C1539 C1545 1.491 . S
C1540 H1531 0.950 . S
C1540 C1539 1.398 . S
C1540 C1541 1.391 . S
C1541 H1529 0.950 . S
C1541 C1537 1.393 . S
C1541 C1540 1.391 . S
C1542 H1532 0.950 . S
C1542 C1543 1.386 . S
C1542 C1544 1.391 . S
C1543 C1542 1.386 . S
C1543 C1547 1.393 . S
C1544 H1533 0.950 . S
C1544 C1542 1.391 . S
C1544 C1545 1.400 . S
C1545 C1539 1.491 . S
C1545 C1544 1.400 . S
C1545 C1546 1.398 . S
C1546 H1534 0.950 . S
C1546 C1545 1.398 . S
C1546 C1547 1.391 . S
C1547 H1535 0.950 . S
C1547 C1543 1.393 . S
C1547 C1546 1.391 . S
H1548 C1556 0.950 . S
H1549 C1561 0.950 . S
H1550 C1558 0.950 . S
H1551 C1560 0.950 . S
H1552 C1562 0.950 . S
H1553 C1564 0.950 . S
H1554 C1566 0.950 . S
H1555 C1567 0.950 . S
C1556 H1548 0.950 . S
C1556 C1557 1.386 . S
C1556 C1558 1.391 . S
C1557 C1556 1.386 . S
C1557 C1561 1.393 . S
C1558 H1550 0.950 . S
C1558 C1556 1.391 . S
C1558 C1559 1.400 . S
C1559 C1558 1.400 . S
C1559 C1560 1.398 . S
C1559 C1565 1.491 . S
C1560 H1551 0.950 . S
C1560 C1559 1.398 . S
C1560 C1561 1.391 . S
C1561 H1549 0.950 . S
C1561 C1557 1.393 . S
C1561 C1560 1.391 . S
C1562 H1552 0.950 . S
C1562 C1563 1.386 . S
C1562 C1564 1.391 . S
C1563 C1562 1.386 . S
C1563 C1567 1.393 . S
C1564 H1553 0.950 . S
C1564 C1562 1.391 . S
C1564 C1565 1.400 . S
C1565 C1559 1.491 . S
C1565 C1564 1.400 . S
C1565 C1566 1.398 . S
C1566 H1554 0.950 . S
C1566 C1565 1.398 . S
C1566 C1567 1.391 . S
C1567 H1555 0.950 . S
C1567 C1563 1.393 . S
C1567 C1566 1.391 . S
H1568 C1576 0.950 . S
H1569 C1581 0.950 . S
H1570 C1578 0.950 . S
H1571 C1580 0.950 . S
H1572 C1582 0.950 . S
H1573 C1584 0.950 . S
H1574 C1586 0.950 . S
H1575 C1587 0.950 . S
C1576 H1568 0.950 . S
C1576 C1577 1.386 . S
C1576 C1578 1.391 . S
C1577 C1576 1.386 . S
C1577 C1581 1.393 . S
C1578 H1570 0.950 . S
C1578 C1576 1.391 . S
C1578 C1579 1.400 . S
C1579 C1578 1.400 . S
C1579 C1580 1.398 . S
C1579 C1585 1.491 . S
C1580 H1571 0.950 . S
C1580 C1579 1.398 . S
C1580 C1581 1.391 . S
C1581 H1569 0.950 . S
C1581 C1577 1.393 . S
C1581 C1580 1.391 . S
C1582 H1572 0.950 . S
C1582 C1583 1.386 . S
C1582 C1584 1.391 . S
C1583 C1582 1.386 . S
C1583 C1587 1.393 . S
C1584 H1573 0.950 . S
C1584 C1582 1.391 . S
C1584 C1585 1.400 . S
C1585 C1579 1.491 . S
C1585 C1584 1.400 . S
C1585 C1586 1.398 . S
C1586 H1574 0.950 . S
C1586 C1585 1.398 . S
C1586 C1587 1.391 . S
C1587 H1575 0.950 . S
C1587 C1583 1.393 . S
C1587 C1586 1.391 . S
H1588 C1596 0.950 . S
H1589 C1601 0.950 . S
H1590 C1598 0.950 . S
H1591 C1600 0.950 . S
H1592 C1602 0.950 . S
H1593 C1604 0.950 . S
H1594 C1606 0.950 . S
H1595 C1607 0.950 . S
C1596 H1588 0.950 . S
C1596 C1597 1.386 . S
C1596 C1598 1.391 . S
C1597 C1596 1.386 . S
C1597 C1601 1.393 . S
C1598 H1590 0.950 . S
C1598 C1596 1.391 . S
C1598 C1599 1.400 . S
C1599 C1598 1.400 . S
C1599 C1600 1.398 . S
C1599 C1605 1.491 . S
C1600 H1591 0.950 . S
C1600 C1599 1.398 . S
C1600 C1601 1.391 . S
C1601 H1589 0.950 . S
C1601 C1597 1.393 . S
C1601 C1600 1.391 . S
C1602 H1592 0.950 . S
C1602 C1603 1.386 . S
C1602 C1604 1.391 . S
C1603 C1602 1.386 . S
C1603 C1607 1.393 . S
C1604 H1593 0.950 . S
C1604 C1602 1.391 . S
C1604 C1605 1.400 . S
C1605 C1599 1.491 . S
C1605 C1604 1.400 . S
C1605 C1606 1.398 . S
C1606 H1594 0.950 . S
C1606 C1605 1.398 . S
C1606 C1607 1.391 . S
C1607 H1595 0.950 . S
C1607 C1603 1.393 . S
C1607 C1606 1.391 . S
H1608 C1616 0.950 . S
H1609 C1621 0.950 . S
H1610 C1618 0.950 . S
H1611 C1620 0.950 . S
H1612 C1622 0.950 . S
H1613 C1624 0.950 . S
H1614 C1626 0.950 . S
H1615 C1627 0.950 . S
C1616 H1608 0.950 . S
C1616 C1617 1.386 . S
C1616 C1618 1.391 . S
C1617 C1616 1.386 . S
C1617 C1621 1.393 . S
C1618 H1610 0.950 . S
C1618 C1616 1.391 . S
C1618 C1619 1.400 . S
C1619 C1618 1.400 . S
C1619 C1620 1.398 . S
C1619 C1625 1.491 . S
C1620 H1611 0.950 . S
C1620 C1619 1.398 . S
C1620 C1621 1.391 . S
C1621 H1609 0.950 . S
C1621 C1617 1.393 . S
C1621 C1620 1.391 . S
C1622 H1612 0.950 . S
C1622 C1623 1.386 . S
C1622 C1624 1.391 . S
C1623 C1622 1.386 . S
C1623 C1627 1.393 . S
C1624 H1613 0.950 . S
C1624 C1622 1.391 . S
C1624 C1625 1.400 . S
C1625 C1619 1.491 . S
C1625 C1624 1.400 . S
C1625 C1626 1.398 . S
C1626 H1614 0.950 . S
C1626 C1625 1.398 . S
C1626 C1627 1.391 . S
C1627 H1615 0.950 . S
C1627 C1623 1.393 . S
C1627 C1626 1.391 . S
H1628 C1636 0.950 . S
H1629 C1641 0.950 . S
H1630 C1638 0.950 . S
H1631 C1640 0.950 . S
H1632 C1642 0.950 . S
H1633 C1644 0.950 . S
H1634 C1646 0.950 . S
H1635 C1647 0.950 . S
C1636 H1628 0.950 . S
C1636 C1637 1.386 . S
C1636 C1638 1.391 . S
C1637 C1636 1.386 . S
C1637 C1641 1.393 . S
C1638 H1630 0.950 . S
C1638 C1636 1.391 . S
C1638 C1639 1.400 . S
C1639 C1638 1.400 . S
C1639 C1640 1.398 . S
C1639 C1645 1.491 . S
C1640 H1631 0.950 . S
C1640 C1639 1.398 . S
C1640 C1641 1.391 . S
C1641 H1629 0.950 . S
C1641 C1637 1.393 . S
C1641 C1640 1.391 . S
C1642 H1632 0.950 . S
C1642 C1643 1.386 . S
C1642 C1644 1.391 . S
C1643 C1642 1.386 . S
C1643 C1647 1.393 . S
C1644 H1633 0.950 . S
C1644 C1642 1.391 . S
C1644 C1645 1.400 . S
C1645 C1639 1.491 . S
C1645 C1644 1.400 . S
C1645 C1646 1.398 . S
C1646 H1634 0.950 . S
C1646 C1645 1.398 . S
C1646 C1647 1.391 . S
C1647 H1635 0.950 . S
C1647 C1643 1.393 . S
C1647 C1646 1.391 . S
H1648 C1656 0.950 . S
H1649 C1661 0.950 . S
H1650 C1658 0.950 . S
H1651 C1660 0.950 . S
H1652 C1662 0.950 . S
H1653 C1664 0.950 . S
H1654 C1666 0.950 . S
H1655 C1667 0.950 . S
C1656 H1648 0.950 . S
C1656 C1657 1.386 . S
C1656 C1658 1.391 . S
C1657 C1656 1.386 . S
C1657 C1661 1.393 . S
C1658 H1650 0.950 . S
C1658 C1656 1.391 . S
C1658 C1659 1.400 . S
C1659 C1658 1.400 . S
C1659 C1660 1.398 . S
C1659 C1665 1.491 . S
C1660 H1651 0.950 . S
C1660 C1659 1.398 . S
C1660 C1661 1.391 . S
C1661 H1649 0.950 . S
C1661 C1657 1.393 . S
C1661 C1660 1.391 . S
C1662 H1652 0.950 . S
C1662 C1663 1.386 . S
C1662 C1664 1.391 . S
C1663 C1662 1.386 . S
C1663 C1667 1.393 . S
C1664 H1653 0.950 . S
C1664 C1662 1.391 . S
C1664 C1665 1.400 . S
C1665 C1659 1.491 . S
C1665 C1664 1.400 . S
C1665 C1666 1.398 . S
C1666 H1654 0.950 . S
C1666 C1665 1.398 . S
C1666 C1667 1.391 . S
C1667 H1655 0.950 . S
C1667 C1663 1.393 . S
C1667 C1666 1.391 . S
H1668 C1676 0.950 . S
H1669 C1681 0.950 . S
H1670 C1678 0.950 . S
H1671 C1680 0.950 . S
H1672 C1682 0.950 . S
H1673 C1684 0.950 . S
H1674 C1686 0.950 . S
H1675 C1687 0.950 . S
C1676 H1668 0.950 . S
C1676 C1677 1.386 . S
C1676 C1678 1.391 . S
C1677 C1676 1.386 . S
C1677 C1681 1.393 . S
C1678 H1670 0.950 . S
C1678 C1676 1.391 . S
C1678 C1679 1.400 . S
C1679 C1678 1.400 . S
C1679 C1680 1.398 . S
C1679 C1685 1.491 . S
C1680 H1671 0.950 . S
C1680 C1679 1.398 . S
C1680 C1681 1.391 . S
C1681 H1669 0.950 . S
C1681 C1677 1.393 . S
C1681 C1680 1.391 . S
C1682 H1672 0.950 . S
C1682 C1683 1.386 . S
C1682 C1684 1.391 . S
C1683 C1682 1.386 . S
C1683 C1687 1.393 . S
C1684 H1673 0.950 . S
C1684 C1682 1.391 . S
C1684 C1685 1.400 . S
C1685 C1679 1.491 . S
C1685 C1684 1.400 . S
C1685 C1686 1.398 . S
C1686 H1674 0.950 . S
C1686 C1685 1.398 . S
C1686 C1687 1.391 . S
C1687 H1675 0.950 . S
C1687 C1683 1.393 . S
C1687 C1686 1.391 . S
H1688 C1696 0.950 . S
H1689 C1701 0.950 . S
H1690 C1698 0.950 . S
H1691 C1700 0.950 . S
H1692 C1702 0.950 . S
H1693 C1704 0.950 . S
H1694 C1706 0.950 . S
H1695 C1707 0.950 . S
C1696 H1688 0.950 . S
C1696 C1697 1.386 . S
C1696 C1698 1.391 . S
C1697 C1696 1.386 . S
C1697 C1701 1.393 . S
C1698 H1690 0.950 . S
C1698 C1696 1.391 . S
C1698 C1699 1.400 . S
C1699 C1698 1.400 . S
C1699 C1700 1.398 . S
C1699 C1705 1.491 . S
C1700 H1691 0.950 . S
C1700 C1699 1.398 . S
C1700 C1701 1.391 . S
C1701 H1689 0.950 . S
C1701 C1697 1.393 . S
C1701 C1700 1.391 . S
C1702 H1692 0.950 . S
C1702 C1703 1.386 . S
C1702 C1704 1.391 . S
C1703 C1702 1.386 . S
C1703 C1707 1.393 . S
C1704 H1693 0.950 . S
C1704 C1702 1.391 . S
C1704 C1705 1.400 . S
C1705 C1699 1.491 . S
C1705 C1704 1.400 . S
C1705 C1706 1.398 . S
C1706 H1694 0.950 . S
C1706 C1705 1.398 . S
C1706 C1707 1.391 . S
C1707 H1695 0.950 . S
C1707 C1703 1.393 . S
C1707 C1706 1.391 . S
H1708 C1716 0.950 . S
H1709 C1721 0.950 . S
H1710 C1718 0.950 . S
H1711 C1720 0.950 . S
H1712 C1722 0.950 . S
H1713 C1724 0.950 . S
H1714 C1726 0.950 . S
H1715 C1727 0.950 . S
C1716 H1708 0.950 . S
C1716 C1717 1.386 . S
C1716 C1718 1.391 . S
C1717 C1716 1.386 . S
C1717 C1721 1.393 . S
C1718 H1710 0.950 . S
C1718 C1716 1.391 . S
C1718 C1719 1.400 . S
C1719 C1718 1.400 . S
C1719 C1720 1.398 . S
C1719 C1725 1.491 . S
C1720 H1711 0.950 . S
C1720 C1719 1.398 . S
C1720 C1721 1.391 . S
C1721 H1709 0.950 . S
C1721 C1717 1.393 . S
C1721 C1720 1.391 . S
C1722 H1712 0.950 . S
C1722 C1723 1.386 . S
C1722 C1724 1.391 . S
C1723 C1722 1.386 . S
C1723 C1727 1.393 . S
C1724 H1713 0.950 . S
C1724 C1722 1.391 . S
C1724 C1725 1.400 . S
C1725 C1719 1.491 . S
C1725 C1724 1.400 . S
C1725 C1726 1.398 . S
C1726 H1714 0.950 . S
C1726 C1725 1.398 . S
C1726 C1727 1.391 . S
C1727 H1715 0.950 . S
C1727 C1723 1.393 . S
C1727 C1726 1.391 . S
H1728 C1736 0.950 . S
H1729 C1741 0.950 . S
H1730 C1738 0.950 . S
H1731 C1740 0.950 . S
H1732 C1742 0.950 . S
H1733 C1744 0.950 . S
H1734 C1746 0.950 . S
H1735 C1747 0.950 . S
C1736 H1728 0.950 . S
C1736 C1737 1.386 . S
C1736 C1738 1.391 . S
C1737 C1736 1.386 . S
C1737 C1741 1.393 . S
C1738 H1730 0.950 . S
C1738 C1736 1.391 . S
C1738 C1739 1.400 . S
C1739 C1738 1.400 . S
C1739 C1740 1.398 . S
C1739 C1745 1.491 . S
C1740 H1731 0.950 . S
C1740 C1739 1.398 . S
C1740 C1741 1.391 . S
C1741 H1729 0.950 . S
C1741 C1737 1.393 . S
C1741 C1740 1.391 . S
C1742 H1732 0.950 . S
C1742 C1743 1.386 . S
C1742 C1744 1.391 . S
C1743 C1742 1.386 . S
C1743 C1747 1.393 . S
C1744 H1733 0.950 . S
C1744 C1742 1.391 . S
C1744 C1745 1.400 . S
C1745 C1739 1.491 . S
C1745 C1744 1.400 . S
C1745 C1746 1.398 . S
C1746 H1734 0.950 . S
C1746 C1745 1.398 . S
C1746 C1747 1.391 . S
C1747 H1735 0.950 . S
C1747 C1743 1.393 . S
C1747 C1746 1.391 . S
H1748 C1756 0.950 . S
H1749 C1761 0.950 . S
H1750 C1758 0.950 . S
H1751 C1760 0.950 . S
H1752 C1762 0.950 . S
H1753 C1764 0.950 . S
H1754 C1766 0.950 . S
H1755 C1767 0.950 . S
C1756 H1748 0.950 . S
C1756 C1757 1.386 . S
C1756 C1758 1.391 . S
C1757 C1756 1.386 . S
C1757 C1761 1.393 . S
C1758 H1750 0.950 . S
C1758 C1756 1.391 . S
C1758 C1759 1.400 . S
C1759 C1758 1.400 . S
C1759 C1760 1.398 . S
C1759 C1765 1.491 . S
C1760 H1751 0.950 . S
C1760 C1759 1.398 . S
C1760 C1761 1.391 . S
C1761 H1749 0.950 . S
C1761 C1757 1.393 . S
C1761 C1760 1.391 . S
C1762 H1752 0.950 . S
C1762 C1763 1.386 . S
C1762 C1764 1.391 . S
C1763 C1762 1.386 . S
C1763 C1767 1.393 . S
C1764 H1753 0.950 . S
C1764 C1762 1.391 . S
C1764 C1765 1.400 . S
C1765 C1759 1.491 . S
C1765 C1764 1.400 . S
C1765 C1766 1.398 . S
C1766 H1754 0.950 . S
C1766 C1765 1.398 . S
C1766 C1767 1.391 . S
C1767 H1755 0.950 . S
C1767 C1763 1.393 . S
C1767 C1766 1.391 . S
H1768 C1776 0.950 . S
H1769 C1781 0.950 . S
H1770 C1778 0.950 . S
H1771 C1780 0.950 . S
H1772 C1782 0.950 . S
H1773 C1784 0.950 . S
H1774 C1786 0.950 . S
H1775 C1787 0.950 . S
C1776 H1768 0.950 . S
C1776 C1777 1.386 . S
C1776 C1778 1.391 . S
C1777 C1776 1.386 . S
C1777 C1781 1.393 . S
C1778 H1770 0.950 . S
C1778 C1776 1.391 . S
C1778 C1779 1.400 . S
C1779 C1778 1.400 . S
C1779 C1780 1.398 . S
C1779 C1785 1.491 . S
C1780 H1771 0.950 . S
C1780 C1779 1.398 . S
C1780 C1781 1.391 . S
C1781 H1769 0.950 . S
C1781 C1777 1.393 . S
C1781 C1780 1.391 . S
C1782 H1772 0.950 . S
C1782 C1783 1.386 . S
C1782 C1784 1.391 . S
C1783 C1782 1.386 . S
C1783 C1787 1.393 . S
C1784 H1773 0.950 . S
C1784 C1782 1.391 . S
C1784 C1785 1.400 . S
C1785 C1779 1.491 . S
C1785 C1784 1.400 . S
C1785 C1786 1.398 . S
C1786 H1774 0.950 . S
C1786 C1785 1.398 . S
C1786 C1787 1.391 . S
C1787 H1775 0.950 . S
C1787 C1783 1.393 . S
C1787 C1786 1.391 . S
H1788 C1796 0.950 . S
H1789 C1801 0.950 . S
H1790 C1798 0.950 . S
H1791 C1800 0.950 . S
H1792 C1802 0.950 . S
H1793 C1804 0.950 . S
H1794 C1806 0.950 . S
H1795 C1807 0.950 . S
C1796 H1788 0.950 . S
C1796 C1797 1.386 . S
C1796 C1798 1.391 . S
C1797 C1796 1.386 . S
C1797 C1801 1.393 . S
C1798 H1790 0.950 . S
C1798 C1796 1.391 . S
C1798 C1799 1.400 . S
C1799 C1798 1.400 . S
C1799 C1800 1.398 . S
C1799 C1805 1.491 . S
C1800 H1791 0.950 . S
C1800 C1799 1.398 . S
C1800 C1801 1.391 . S
C1801 H1789 0.950 . S
C1801 C1797 1.393 . S
C1801 C1800 1.391 . S
C1802 H1792 0.950 . S
C1802 C1803 1.386 . S
C1802 C1804 1.391 . S
C1803 C1802 1.386 . S
C1803 C1807 1.393 . S
C1804 H1793 0.950 . S
C1804 C1802 1.391 . S
C1804 C1805 1.400 . S
C1805 C1799 1.491 . S
C1805 C1804 1.400 . S
C1805 C1806 1.398 . S
C1806 H1794 0.950 . S
C1806 C1805 1.398 . S
C1806 C1807 1.391 . S
C1807 H1795 0.950 . S
C1807 C1803 1.393 . S
C1807 C1806 1.391 . S
H1808 C1816 0.950 . S
H1809 C1821 0.950 . S
H1810 C1818 0.950 . S
H1811 C1820 0.950 . S
H1812 C1822 0.950 . S
H1813 C1824 0.950 . S
H1814 C1826 0.950 . S
H1815 C1827 0.950 . S
C1816 H1808 0.950 . S
C1816 C1817 1.386 . S
C1816 C1818 1.391 . S
C1817 C1816 1.386 . S
C1817 C1821 1.393 . S
C1818 H1810 0.950 . S
C1818 C1816 1.391 . S
C1818 C1819 1.400 . S
C1819 C1818 1.400 . S
C1819 C1820 1.398 . S
C1819 C1825 1.491 . S
C1820 H1811 0.950 . S
C1820 C1819 1.398 . S
C1820 C1821 1.391 . S
C1821 H1809 0.950 . S
C1821 C1817 1.393 . S
C1821 C1820 1.391 . S
C1822 H1812 0.950 . S
C1822 C1823 1.386 . S
C1822 C1824 1.391 . S
C1823 C1822 1.386 . S
C1823 C1827 1.393 . S
C1824 H1813 0.950 . S
C1824 C1822 1.391 . S
C1824 C1825 1.400 . S
C1825 C1819 1.491 . S
C1825 C1824 1.400 . S
C1825 C1826 1.398 . S
C1826 H1814 0.950 . S
C1826 C1825 1.398 . S
C1826 C1827 1.391 . S
C1827 H1815 0.950 . S
C1827 C1823 1.393 . S
C1827 C1826 1.391 . S
H1828 C1836 0.950 . S
H1829 C1841 0.950 . S
H1830 C1838 0.950 . S
H1831 C1840 0.950 . S
H1832 C1842 0.950 . S
H1833 C1844 0.950 . S
H1834 C1846 0.950 . S
H1835 C1847 0.950 . S
C1836 H1828 0.950 . S
C1836 C1837 1.386 . S
C1836 C1838 1.391 . S
C1837 C1836 1.386 . S
C1837 C1841 1.393 . S
C1838 H1830 0.950 . S
C1838 C1836 1.391 . S
C1838 C1839 1.400 . S
C1839 C1838 1.400 . S
C1839 C1840 1.398 . S
C1839 C1845 1.491 . S
C1840 H1831 0.950 . S
C1840 C1839 1.398 . S
C1840 C1841 1.391 . S
C1841 H1829 0.950 . S
C1841 C1837 1.393 . S
C1841 C1840 1.391 . S
C1842 H1832 0.950 . S
C1842 C1843 1.386 . S
C1842 C1844 1.391 . S
C1843 C1842 1.386 . S
C1843 C1847 1.393 . S
C1844 H1833 0.950 . S
C1844 C1842 1.391 . S
C1844 C1845 1.400 . S
C1845 C1839 1.491 . S
C1845 C1844 1.400 . S
C1845 C1846 1.398 . S
C1846 H1834 0.950 . S
C1846 C1845 1.398 . S
C1846 C1847 1.391 . S
C1847 H1835 0.950 . S
C1847 C1843 1.393 . S
C1847 C1846 1.391 . S
H1848 C1856 0.950 . S
H1849 C1861 0.950 . S
H1850 C1858 0.950 . S
H1851 C1860 0.950 . S
H1852 C1862 0.950 . S
H1853 C1864 0.950 . S
H1854 C1866 0.950 . S
H1855 C1867 0.950 . S
C1856 H1848 0.950 . S
C1856 C1857 1.386 . S
C1856 C1858 1.391 . S
C1857 C1856 1.386 . S
C1857 C1861 1.393 . S
C1858 H1850 0.950 . S
C1858 C1856 1.391 . S
C1858 C1859 1.400 . S
C1859 C1858 1.400 . S
C1859 C1860 1.398 . S
C1859 C1865 1.491 . S
C1860 H1851 0.950 . S
C1860 C1859 1.398 . S
C1860 C1861 1.391 . S
C1861 H1849 0.950 . S
C1861 C1857 1.393 . S
C1861 C1860 1.391 . S
C1862 H1852 0.950 . S
C1862 C1863 1.386 . S
C1862 C1864 1.391 . S
C1863 C1862 1.386 . S
C1863 C1867 1.393 . S
C1864 H1853 0.950 . S
C1864 C1862 1.391 . S
C1864 C1865 1.400 . S
C1865 C1859 1.491 . S
C1865 C1864 1.400 . S
C1865 C1866 1.398 . S
C1866 H1854 0.950 . S
C1866 C1865 1.398 . S
C1866 C1867 1.391 . S
C1867 H1855 0.950 . S
C1867 C1863 1.393 . S
C1867 C1866 1.391 . S
H1868 C1876 0.950 . S
H1869 C1881 0.950 . S
H1870 C1878 0.950 . S
H1871 C1880 0.950 . S
H1872 C1882 0.950 . S
H1873 C1884 0.950 . S
H1874 C1886 0.950 . S
H1875 C1887 0.950 . S
C1876 H1868 0.950 . S
C1876 C1877 1.386 . S
C1876 C1878 1.391 . S
C1877 C1876 1.386 . S
C1877 C1881 1.393 . S
C1878 H1870 0.950 . S
C1878 C1876 1.391 . S
C1878 C1879 1.400 . S
C1879 C1878 1.400 . S
C1879 C1880 1.398 . S
C1879 C1885 1.491 . S
C1880 H1871 0.950 . S
C1880 C1879 1.398 . S
C1880 C1881 1.391 . S
C1881 H1869 0.950 . S
C1881 C1877 1.393 . S
C1881 C1880 1.391 . S
C1882 H1872 0.950 . S
C1882 C1883 1.386 . S
C1882 C1884 1.391 . S
C1883 C1882 1.386 . S
C1883 C1887 1.393 . S
C1884 H1873 0.950 . S
C1884 C1882 1.391 . S
C1884 C1885 1.400 . S
C1885 C1879 1.491 . S
C1885 C1884 1.400 . S
C1885 C1886 1.398 . S
C1886 H1874 0.950 . S
C1886 C1885 1.398 . S
C1886 C1887 1.391 . S
C1887 H1875 0.950 . S
C1887 C1883 1.393 . S
C1887 C1886 1.391 . S
H1888 C1896 0.950 . S
H1889 C1901 0.950 . S
H1890 C1898 0.950 . S
H1891 C1900 0.950 . S
H1892 C1902 0.950 . S
H1893 C1904 0.950 . S
H1894 C1906 0.950 . S
H1895 C1907 0.950 . S
C1896 H1888 0.950 . S
C1896 C1897 1.386 . S
C1896 C1898 1.391 . S
C1897 C1896 1.386 . S
C1897 C1901 1.393 . S
C1898 H1890 0.950 . S
C1898 C1896 1.391 . S
C1898 C1899 1.400 . S
C1899 C1898 1.400 . S
C1899 C1900 1.398 . S
C1899 C1905 1.491 . S
C1900 H1891 0.950 . S
C1900 C1899 1.398 . S
C1900 C1901 1.391 . S
C1901 H1889 0.950 . S
C1901 C1897 1.393 . S
C1901 C1900 1.391 . S
C1902 H1892 0.950 . S
C1902 C1903 1.386 . S
C1902 C1904 1.391 . S
C1903 C1902 1.386 . S
C1903 C1907 1.393 . S
C1904 H1893 0.950 . S
C1904 C1902 1.391 . S
C1904 C1905 1.400 . S
C1905 C1899 1.491 . S
C1905 C1904 1.400 . S
C1905 C1906 1.398 . S
C1906 H1894 0.950 . S
C1906 C1905 1.398 . S
C1906 C1907 1.391 . S
C1907 H1895 0.950 . S
C1907 C1903 1.393 . S
C1907 C1906 1.391 . S
H1908 C1916 0.950 . S
H1909 C1921 0.950 . S
H1910 C1918 0.950 . S
H1911 C1920 0.950 . S
H1912 C1922 0.950 . S
H1913 C1924 0.950 . S
H1914 C1926 0.950 . S
H1915 C1927 0.950 . S
C1916 H1908 0.950 . S
C1916 C1917 1.386 . S
C1916 C1918 1.391 . S
C1917 C1916 1.386 . S
C1917 C1921 1.393 . S
C1918 H1910 0.950 . S
C1918 C1916 1.391 . S
C1918 C1919 1.400 . S
C1919 C1918 1.400 . S
C1919 C1920 1.398 . S
C1919 C1925 1.491 . S
C1920 H1911 0.950 . S
C1920 C1919 1.398 . S
C1920 C1921 1.391 . S
C1921 H1909 0.950 . S
C1921 C1917 1.393 . S
C1921 C1920 1.391 . S
C1922 H1912 0.950 . S
C1922 C1923 1.386 . S
C1922 C1924 1.391 . S
C1923 C1922 1.386 . S
C1923 C1927 1.393 . S
C1924 H1913 0.950 . S
C1924 C1922 1.391 . S
C1924 C1925 1.400 . S
C1925 C1919 1.491 . S
C1925 C1924 1.400 . S
C1925 C1926 1.398 . S
C1926 H1914 0.950 . S
C1926 C1925 1.398 . S
C1926 C1927 1.391 . S
C1927 H1915 0.950 . S
C1927 C1923 1.393 . S
C1927 C1926 1.391 . S
H1928 C1936 0.950 . S
H1929 C1941 0.950 . S
H1930 C1938 0.950 . S
H1931 C1940 0.950 . S
H1932 C1942 0.950 1_545 S
H1933 C1944 0.950 . S
H1934 C1946 0.950 . S
H1935 C1947 0.950 . S
C1936 H1928 0.950 . S
C1936 C1937 1.386 . S
C1936 C1938 1.391 . S
C1937 C1936 1.386 . S
C1937 C1941 1.393 . S
C1938 H1930 0.950 . S
C1938 C1936 1.391 . S
C1938 C1939 1.400 . S
C1939 C1938 1.400 . S
C1939 C1940 1.398 . S
C1939 C1945 1.491 . S
C1940 H1931 0.950 . S
C1940 C1939 1.398 . S
C1940 C1941 1.391 . S
C1941 H1929 0.950 . S
C1941 C1937 1.393 . S
C1941 C1940 1.391 . S
C1942 H1932 0.950 1_565 S
C1942 C1943 1.386 . S
C1942 C1944 1.391 . S
C1943 C1942 1.386 . S
C1943 C1947 1.393 . S
C1944 H1933 0.950 . S
C1944 C1942 1.391 . S
C1944 C1945 1.400 . S
C1945 C1939 1.491 . S
C1945 C1944 1.400 . S
C1945 C1946 1.398 . S
C1946 H1934 0.950 . S
C1946 C1945 1.398 . S
C1946 C1947 1.391 . S
C1947 H1935 0.950 . S
C1947 C1943 1.393 . S
C1947 C1946 1.391 . S
H1948 C1956 0.950 . S
H1949 C1961 0.950 . S
H1950 C1958 0.950 . S
H1951 C1960 0.950 . S
H1952 C1962 0.950 . S
H1953 C1964 0.950 . S
H1954 C1966 0.950 . S
H1955 C1967 0.950 . S
C1956 H1948 0.950 . S
C1956 C1957 1.386 . S
C1956 C1958 1.391 . S
C1957 C1956 1.386 . S
C1957 C1961 1.393 . S
C1958 H1950 0.950 . S
C1958 C1956 1.391 . S
C1958 C1959 1.400 . S
C1959 C1958 1.400 . S
C1959 C1960 1.398 . S
C1959 C1965 1.491 . S
C1960 H1951 0.950 . S
C1960 C1959 1.398 . S
C1960 C1961 1.391 . S
C1961 H1949 0.950 . S
C1961 C1957 1.393 . S
C1961 C1960 1.391 . S
C1962 H1952 0.950 . S
C1962 C1963 1.386 . S
C1962 C1964 1.391 . S
C1963 C1962 1.386 . S
C1963 C1967 1.393 . S
C1964 H1953 0.950 . S
C1964 C1962 1.391 . S
C1964 C1965 1.400 . S
C1965 C1959 1.491 . S
C1965 C1964 1.400 . S
C1965 C1966 1.398 . S
C1966 H1954 0.950 . S
C1966 C1965 1.398 . S
C1966 C1967 1.391 . S
C1967 H1955 0.950 . S
C1967 C1963 1.393 . S
C1967 C1966 1.391 . S
H1968 C1976 0.950 . S
H1969 C1981 0.950 . S
H1970 C1978 0.950 . S
H1971 C1980 0.950 . S
H1972 C1982 0.950 . S
H1973 C1984 0.950 . S
H1974 C1986 0.950 . S
H1975 C1987 0.950 . S
C1976 H1968 0.950 . S
C1976 C1977 1.386 . S
C1976 C1978 1.391 . S
C1977 C1976 1.386 . S
C1977 C1981 1.393 . S
C1978 H1970 0.950 . S
C1978 C1976 1.391 . S
C1978 C1979 1.400 . S
C1979 C1978 1.400 . S
C1979 C1980 1.398 . S
C1979 C1985 1.491 . S
C1980 H1971 0.950 . S
C1980 C1979 1.398 . S
C1980 C1981 1.391 . S
C1981 H1969 0.950 . S
C1981 C1977 1.393 . S
C1981 C1980 1.391 . S
C1982 H1972 0.950 . S
C1982 C1983 1.386 . S
C1982 C1984 1.391 . S
C1983 C1982 1.386 . S
C1983 C1987 1.393 . S
C1984 H1973 0.950 . S
C1984 C1982 1.391 . S
C1984 C1985 1.400 . S
C1985 C1979 1.491 . S
C1985 C1984 1.400 . S
C1985 C1986 1.398 . S
C1986 H1974 0.950 . S
C1986 C1985 1.398 . S
C1986 C1987 1.391 . S
C1987 H1975 0.950 . S
C1987 C1983 1.393 . S
C1987 C1986 1.391 . S
H1988 C1996 0.950 . S
H1989 C2001 0.950 . S
H1990 C1998 0.950 . S
H1991 C2000 0.950 . S
H1992 C2002 0.950 . S
H1993 C2004 0.950 . S
H1994 C2006 0.950 . S
H1995 C2007 0.950 . S
C1996 H1988 0.950 . S
C1996 C1997 1.386 . S
C1996 C1998 1.391 . S
C1997 C1996 1.386 . S
C1997 C2001 1.393 . S
C1998 H1990 0.950 . S
C1998 C1996 1.391 . S
C1998 C1999 1.400 . S
C1999 C1998 1.400 . S
C1999 C2000 1.398 . S
C1999 C2005 1.491 . S
C2000 H1991 0.950 . S
C2000 C1999 1.398 . S
C2000 C2001 1.391 . S
C2001 H1989 0.950 . S
C2001 C1997 1.393 . S
C2001 C2000 1.391 . S
C2002 H1992 0.950 . S
C2002 C2003 1.386 . S
C2002 C2004 1.391 . S
C2003 C2002 1.386 . S
C2003 C2007 1.393 . S
C2004 H1993 0.950 . S
C2004 C2002 1.391 . S
C2004 C2005 1.400 . S
C2005 C1999 1.491 . S
C2005 C2004 1.400 . S
C2005 C2006 1.398 . S
C2006 H1994 0.950 . S
C2006 C2005 1.398 . S
C2006 C2007 1.391 . S
C2007 H1995 0.950 . S
C2007 C2003 1.393 . S
C2007 C2006 1.391 . S
H2008 C2016 0.950 . S
H2009 C2021 0.950 . S
H2010 C2018 0.950 . S
H2011 C2020 0.950 . S
H2012 C2022 0.950 1_455 S
H2013 C2024 0.950 . S
H2014 C2026 0.950 . S
H2015 C2027 0.950 . S
C2016 H2008 0.950 . S
C2016 C2017 1.386 . S
C2016 C2018 1.391 . S
C2017 C2016 1.386 . S
C2017 C2021 1.393 . S
C2018 H2010 0.950 . S
C2018 C2016 1.391 . S
C2018 C2019 1.400 . S
C2019 C2018 1.400 . S
C2019 C2020 1.398 . S
C2019 C2025 1.491 . S
C2020 H2011 0.950 . S
C2020 C2019 1.398 . S
C2020 C2021 1.391 . S
C2021 H2009 0.950 . S
C2021 C2017 1.393 . S
C2021 C2020 1.391 . S
C2022 H2012 0.950 1_655 S
C2022 C2023 1.386 . S
C2022 C2024 1.391 . S
C2023 C2022 1.386 . S
C2023 C2027 1.393 . S
C2024 H2013 0.950 . S
C2024 C2022 1.391 . S
C2024 C2025 1.400 . S
C2025 C2019 1.491 . S
C2025 C2024 1.400 . S
C2025 C2026 1.398 . S
C2026 H2014 0.950 . S
C2026 C2025 1.398 . S
C2026 C2027 1.391 . S
C2027 H2015 0.950 . S
C2027 C2023 1.393 . S
C2027 C2026 1.391 . S
H2028 C2036 0.950 . S
H2029 C2041 0.950 . S
H2030 C2038 0.950 . S
H2031 C2040 0.950 . S
H2032 C2042 0.950 . S
H2033 C2044 0.950 . S
H2034 C2046 0.950 . S
H2035 C2047 0.950 . S
C2036 H2028 0.950 . S
C2036 C2037 1.386 . S
C2036 C2038 1.391 . S
C2037 C2036 1.386 . S
C2037 C2041 1.393 . S
C2038 H2030 0.950 . S
C2038 C2036 1.391 . S
C2038 C2039 1.400 . S
C2039 C2038 1.400 . S
C2039 C2040 1.398 . S
C2039 C2045 1.491 . S
C2040 H2031 0.950 . S
C2040 C2039 1.398 . S
C2040 C2041 1.391 . S
C2041 H2029 0.950 . S
C2041 C2037 1.393 . S
C2041 C2040 1.391 . S
C2042 H2032 0.950 . S
C2042 C2043 1.386 . S
C2042 C2044 1.391 . S
C2043 C2042 1.386 . S
C2043 C2047 1.393 . S
C2044 H2033 0.950 . S
C2044 C2042 1.391 . S
C2044 C2045 1.400 . S
C2045 C2039 1.491 . S
C2045 C2044 1.400 . S
C2045 C2046 1.398 . S
C2046 H2034 0.950 . S
C2046 C2045 1.398 . S
C2046 C2047 1.391 . S
C2047 H2035 0.950 . S
C2047 C2043 1.393 . S
C2047 C2046 1.391 . S
H2048 C2056 0.950 . S
H2049 C2061 0.950 . S
H2050 C2058 0.950 . S
H2051 C2060 0.950 . S
H2052 C2062 0.950 . S
H2053 C2064 0.950 . S
H2054 C2066 0.950 . S
H2055 C2067 0.950 1_565 S
C2056 H2048 0.950 . S
C2056 C2057 1.386 . S
C2056 C2058 1.391 . S
C2057 C2056 1.386 . S
C2057 C2061 1.393 . S
C2058 H2050 0.950 . S
C2058 C2056 1.391 . S
C2058 C2059 1.400 . S
C2059 C2058 1.400 . S
C2059 C2060 1.398 . S
C2059 C2065 1.491 . S
C2060 H2051 0.950 . S
C2060 C2059 1.398 . S
C2060 C2061 1.391 . S
C2061 H2049 0.950 . S
C2061 C2057 1.393 . S
C2061 C2060 1.391 . S
C2062 H2052 0.950 . S
C2062 C2063 1.386 . S
C2062 C2064 1.391 . S
C2063 C2062 1.386 . S
C2063 C2067 1.393 . S
C2064 H2053 0.950 . S
C2064 C2062 1.391 . S
C2064 C2065 1.400 . S
C2065 C2059 1.491 . S
C2065 C2064 1.400 . S
C2065 C2066 1.398 . S
C2066 H2054 0.950 . S
C2066 C2065 1.398 . S
C2066 C2067 1.391 . S
C2067 H2055 0.950 1_545 S
C2067 C2063 1.393 . S
C2067 C2066 1.391 . S
H2068 C2076 0.950 . S
H2069 C2081 0.950 . S
H2070 C2078 0.950 . S
H2071 C2080 0.950 . S
H2072 C2082 0.950 1_455 S
H2073 C2084 0.950 . S
H2074 C2086 0.950 . S
H2075 C2087 0.950 . S
C2076 H2068 0.950 . S
C2076 C2077 1.386 . S
C2076 C2078 1.391 . S
C2077 C2076 1.386 . S
C2077 C2081 1.393 . S
C2078 H2070 0.950 . S
C2078 C2076 1.391 . S
C2078 C2079 1.400 . S
C2079 C2078 1.400 . S
C2079 C2080 1.398 . S
C2079 C2085 1.491 . S
C2080 H2071 0.950 . S
C2080 C2079 1.398 . S
C2080 C2081 1.391 . S
C2081 H2069 0.950 . S
C2081 C2077 1.393 . S
C2081 C2080 1.391 . S
C2082 H2072 0.950 1_655 S
C2082 C2083 1.386 . S
C2082 C2084 1.391 . S
C2083 C2082 1.386 . S
C2083 C2087 1.393 . S
C2084 H2073 0.950 . S
C2084 C2082 1.391 . S
C2084 C2085 1.400 . S
C2085 C2079 1.491 . S
C2085 C2084 1.400 . S
C2085 C2086 1.398 . S
C2086 H2074 0.950 . S
C2086 C2085 1.398 . S
C2086 C2087 1.391 . S
C2087 H2075 0.950 . S
C2087 C2083 1.393 . S
C2087 C2086 1.391 . S
H2088 C2096 0.950 . S
H2089 C2101 0.950 . S
H2090 C2098 0.950 . S
H2091 C2100 0.950 . S
H2092 C2102 0.950 . S
H2093 C2104 0.950 . S
H2094 C2106 0.950 . S
H2095 C2107 0.950 . S
C2096 H2088 0.950 . S
C2096 C2097 1.386 . S
C2096 C2098 1.391 . S
C2097 C2096 1.386 . S
C2097 C2101 1.393 . S
C2098 H2090 0.950 . S
C2098 C2096 1.391 . S
C2098 C2099 1.400 . S
C2099 C2098 1.400 . S
C2099 C2100 1.398 . S
C2099 C2105 1.491 . S
C2100 H2091 0.950 . S
C2100 C2099 1.398 . S
C2100 C2101 1.391 . S
C2101 H2089 0.950 . S
C2101 C2097 1.393 . S
C2101 C2100 1.391 . S
C2102 H2092 0.950 . S
C2102 C2103 1.386 . S
C2102 C2104 1.391 . S
C2103 C2102 1.386 . S
C2103 C2107 1.393 . S
C2104 H2093 0.950 . S
C2104 C2102 1.391 . S
C2104 C2105 1.400 . S
C2105 C2099 1.491 . S
C2105 C2104 1.400 . S
C2105 C2106 1.398 . S
C2106 H2094 0.950 . S
C2106 C2105 1.398 . S
C2106 C2107 1.391 . S
C2107 H2095 0.950 . S
C2107 C2103 1.393 . S
C2107 C2106 1.391 . S
H2108 C2116 0.950 . S
H2109 C2121 0.950 . S
H2110 C2118 0.950 . S
H2111 C2120 0.950 . S
H2112 C2122 0.950 1_545 S
H2113 C2124 0.950 . S
H2114 C2126 0.950 . S
H2115 C2127 0.950 . S
C2116 H2108 0.950 . S
C2116 C2117 1.386 . S
C2116 C2118 1.391 . S
C2117 C2116 1.386 . S
C2117 C2121 1.393 . S
C2118 H2110 0.950 . S
C2118 C2116 1.391 . S
C2118 C2119 1.400 . S
C2119 C2118 1.400 . S
C2119 C2120 1.398 . S
C2119 C2125 1.491 . S
C2120 H2111 0.950 . S
C2120 C2119 1.398 . S
C2120 C2121 1.391 . S
C2121 H2109 0.950 . S
C2121 C2117 1.393 . S
C2121 C2120 1.391 . S
C2122 H2112 0.950 1_565 S
C2122 C2123 1.386 . S
C2122 C2124 1.391 . S
C2123 C2122 1.386 . S
C2123 C2127 1.393 . S
C2124 H2113 0.950 . S
C2124 C2122 1.391 . S
C2124 C2125 1.400 . S
C2125 C2119 1.491 . S
C2125 C2124 1.400 . S
C2125 C2126 1.398 . S
C2126 H2114 0.950 . S
C2126 C2125 1.398 . S
C2126 C2127 1.391 . S
C2127 H2115 0.950 . S
C2127 C2123 1.393 . S
C2127 C2126 1.391 . S
H2128 C2136 0.950 . S
H2129 C2141 0.950 . S
H2130 C2138 0.950 . S
H2131 C2140 0.950 . S
H2132 C2142 0.950 1_655 S
H2133 C2144 0.950 . S
H2134 C2146 0.950 . S
H2135 C2147 0.950 . S
C2136 H2128 0.950 . S
C2136 C2137 1.386 . S
C2136 C2138 1.391 . S
C2137 C2136 1.386 . S
C2137 C2141 1.393 . S
C2138 H2130 0.950 . S
C2138 C2136 1.391 . S
C2138 C2139 1.400 . S
C2139 C2138 1.400 . S
C2139 C2140 1.398 . S
C2139 C2145 1.491 . S
C2140 H2131 0.950 . S
C2140 C2139 1.398 . S
C2140 C2141 1.391 . S
C2141 H2129 0.950 . S
C2141 C2137 1.393 . S
C2141 C2140 1.391 . S
C2142 H2132 0.950 1_455 S
C2142 C2143 1.386 . S
C2142 C2144 1.391 . S
C2143 C2142 1.386 . S
C2143 C2147 1.393 . S
C2144 H2133 0.950 . S
C2144 C2142 1.391 . S
C2144 C2145 1.400 . S
C2145 C2139 1.491 . S
C2145 C2144 1.400 . S
C2145 C2146 1.398 . S
C2146 H2134 0.950 . S
C2146 C2145 1.398 . S
C2146 C2147 1.391 . S
C2147 H2135 0.950 . S
C2147 C2143 1.393 . S
C2147 C2146 1.391 . S
H2148 C2156 0.950 . S
H2149 C2161 0.950 . S
H2150 C2158 0.950 . S
H2151 C2160 0.950 . S
H2152 C2162 0.950 . S
H2153 C2164 0.950 . S
H2154 C2166 0.950 . S
H2155 C2167 0.950 . S
C2156 H2148 0.950 . S
C2156 C2157 1.386 . S
C2156 C2158 1.391 . S
C2157 C2156 1.386 . S
C2157 C2161 1.393 . S
C2158 H2150 0.950 . S
C2158 C2156 1.391 . S
C2158 C2159 1.400 . S
C2159 C2158 1.400 . S
C2159 C2160 1.398 . S
C2159 C2165 1.491 . S
C2160 H2151 0.950 . S
C2160 C2159 1.398 . S
C2160 C2161 1.391 . S
C2161 H2149 0.950 . S
C2161 C2157 1.393 . S
C2161 C2160 1.391 . S
C2162 H2152 0.950 . S
C2162 C2163 1.386 1_655 S
C2162 C2164 1.391 . S
C2163 C2162 1.386 1_455 S
C2163 C2167 1.393 . S
C2164 H2153 0.950 . S
C2164 C2162 1.391 . S
C2164 C2165 1.400 . S
C2165 C2159 1.491 . S
C2165 C2164 1.400 . S
C2165 C2166 1.398 . S
C2166 H2154 0.950 . S
C2166 C2165 1.398 . S
C2166 C2167 1.391 1_655 S
C2167 H2155 0.950 . S
C2167 C2163 1.393 . S
C2167 C2166 1.391 1_455 S
H2168 C2176 0.950 . S
H2169 C2181 0.950 . S
H2170 C2178 0.950 . S
H2171 C2180 0.950 . S
H2172 C2182 0.950 . S
H2173 C2184 0.950 . S
H2174 C2186 0.950 . S
H2175 C2187 0.950 . S
C2176 H2168 0.950 . S
C2176 C2177 1.386 . S
C2176 C2178 1.391 . S
C2177 C2176 1.386 . S
C2177 C2181 1.393 . S
C2178 H2170 0.950 . S
C2178 C2176 1.391 . S
C2178 C2179 1.400 . S
C2179 C2178 1.400 . S
C2179 C2180 1.398 . S
C2179 C2185 1.491 . S
C2180 H2171 0.950 . S
C2180 C2179 1.398 . S
C2180 C2181 1.391 . S
C2181 H2169 0.950 . S
C2181 C2177 1.393 . S
C2181 C2180 1.391 . S
C2182 H2172 0.950 . S
C2182 C2183 1.386 . S
C2182 C2184 1.391 . S
C2183 C2182 1.386 . S
C2183 C2187 1.393 . S
C2184 H2173 0.950 . S
C2184 C2182 1.391 . S
C2184 C2185 1.400 . S
C2185 C2179 1.491 . S
C2185 C2184 1.400 . S
C2185 C2186 1.398 . S
C2186 H2174 0.950 . S
C2186 C2185 1.398 . S
C2186 C2187 1.391 . S
C2187 H2175 0.950 . S
C2187 C2183 1.393 . S
C2187 C2186 1.391 . S
H2188 C2196 0.950 . S
H2189 C2201 0.950 . S
H2190 C2198 0.950 . S
H2191 C2200 0.950 . S
H2192 C2202 0.950 . S
H2193 C2204 0.950 . S
H2194 C2206 0.950 . S
H2195 C2207 0.950 . S
C2196 H2188 0.950 . S
C2196 C2197 1.386 . S
C2196 C2198 1.391 1_565 S
C2197 C2196 1.386 . S
C2197 C2201 1.393 1_565 S
C2198 H2190 0.950 . S
C2198 C2196 1.391 1_545 S
C2198 C2199 1.400 . S
C2199 C2198 1.400 . S
C2199 C2200 1.398 . S
C2199 C2205 1.491 . S
C2200 H2191 0.950 . S
C2200 C2199 1.398 . S
C2200 C2201 1.391 . S
C2201 H2189 0.950 . S
C2201 C2197 1.393 1_545 S
C2201 C2200 1.391 . S
C2202 H2192 0.950 . S
C2202 C2203 1.386 . S
C2202 C2204 1.391 . S
C2203 C2202 1.386 . S
C2203 C2207 1.393 . S
C2204 H2193 0.950 . S
C2204 C2202 1.391 . S
C2204 C2205 1.400 . S
C2205 C2199 1.491 . S
C2205 C2204 1.400 . S
C2205 C2206 1.398 . S
C2206 H2194 0.950 . S
C2206 C2205 1.398 . S
C2206 C2207 1.391 . S
C2207 H2195 0.950 . S
C2207 C2203 1.393 . S
C2207 C2206 1.391 . S
H2208 C2216 0.950 . S
H2209 C2221 0.950 . S
H2210 C2218 0.950 . S
H2211 C2220 0.950 . S
H2212 C2222 0.950 1_655 S
H2213 C2224 0.950 . S
H2214 C2226 0.950 . S
H2215 C2227 0.950 . S
C2216 H2208 0.950 . S
C2216 C2217 1.386 1_455 S
C2216 C2218 1.391 . S
C2217 C2216 1.386 1_655 S
C2217 C2221 1.393 . S
C2218 H2210 0.950 . S
C2218 C2216 1.391 . S
C2218 C2219 1.400 . S
C2219 C2218 1.400 . S
C2219 C2220 1.398 1_455 S
C2219 C2225 1.491 . S
C2220 H2211 0.950 . S
C2220 C2219 1.398 1_655 S
C2220 C2221 1.391 . S
C2221 H2209 0.950 . S
C2221 C2217 1.393 . S
C2221 C2220 1.391 . S
C2222 H2212 0.950 1_455 S
C2222 C2223 1.386 . S
C2222 C2224 1.391 1_455 S
C2223 C2222 1.386 . S
C2223 C2227 1.393 . S
C2224 H2213 0.950 . S
C2224 C2222 1.391 1_655 S
C2224 C2225 1.400 1_655 S
C2225 C2219 1.491 . S
C2225 C2224 1.400 1_455 S
C2225 C2226 1.398 . S
C2226 H2214 0.950 . S
C2226 C2225 1.398 . S
C2226 C2227 1.391 . S
C2227 H2215 0.950 . S
C2227 C2223 1.393 . S
C2227 C2226 1.391 . S
H2228 C2236 0.950 . S
H2229 C2241 0.950 . S
H2230 C2238 0.950 . S
H2231 C2240 0.950 . S
H2232 C2242 0.950 . S
H2233 C2244 0.950 . S
H2234 C2246 0.950 . S
H2235 C2247 0.950 . S
C2236 H2228 0.950 . S
C2236 C2237 1.386 . S
C2236 C2238 1.391 . S
C2237 C2236 1.386 . S
C2237 C2241 1.393 . S
C2238 H2230 0.950 . S
C2238 C2236 1.391 . S
C2238 C2239 1.400 . S
C2239 C2238 1.400 . S
C2239 C2240 1.398 . S
C2239 C2245 1.491 . S
C2240 H2231 0.950 . S
C2240 C2239 1.398 . S
C2240 C2241 1.391 . S
C2241 H2229 0.950 . S
C2241 C2237 1.393 . S
C2241 C2240 1.391 . S
C2242 H2232 0.950 . S
C2242 C2243 1.386 . S
C2242 C2244 1.391 . S
C2243 C2242 1.386 . S
C2243 C2247 1.393 . S
C2244 H2233 0.950 . S
C2244 C2242 1.391 . S
C2244 C2245 1.400 . S
C2245 C2239 1.491 . S
C2245 C2244 1.400 . S
C2245 C2246 1.398 . S
C2246 H2234 0.950 . S
C2246 C2245 1.398 . S
C2246 C2247 1.391 . S
C2247 H2235 0.950 . S
C2247 C2243 1.393 . S
C2247 C2246 1.391 . S
H2248 C2256 0.950 . S
H2249 C2261 0.950 . S
H2250 C2258 0.950 . S
H2251 C2260 0.950 . S
H2252 C2262 0.950 . S
H2253 C2264 0.950 . S
H2254 C2266 0.950 . S
H2255 C2267 0.950 1_545 S
C2256 H2248 0.950 . S
C2256 C2257 1.386 . S
C2256 C2258 1.391 . S
C2257 C2256 1.386 . S
C2257 C2261 1.393 1_545 S
C2258 H2250 0.950 . S
C2258 C2256 1.391 . S
C2258 C2259 1.400 1_545 S
C2259 C2258 1.400 1_565 S
C2259 C2260 1.398 . S
C2259 C2265 1.491 . S
C2260 H2251 0.950 . S
C2260 C2259 1.398 . S
C2260 C2261 1.391 . S
C2261 H2249 0.950 . S
C2261 C2257 1.393 1_565 S
C2261 C2260 1.391 . S
C2262 H2252 0.950 . S
C2262 C2263 1.386 . S
C2262 C2264 1.391 . S
C2263 C2262 1.386 . S
C2263 C2267 1.393 . S
C2264 H2253 0.950 . S
C2264 C2262 1.391 . S
C2264 C2265 1.400 . S
C2265 C2259 1.491 . S
C2265 C2264 1.400 . S
C2265 C2266 1.398 1_565 S
C2266 H2254 0.950 . S
C2266 C2265 1.398 1_545 S
C2266 C2267 1.391 1_545 S
C2267 H2255 0.950 1_565 S
C2267 C2263 1.393 . S
C2267 C2266 1.391 1_565 S
H2268 C2276 0.950 . S
H2269 C2281 0.950 1_545 S
H2270 C2278 0.950 . S
H2271 C2280 0.950 . S
H2272 C2282 0.950 . S
H2273 C2284 0.950 . S
H2274 C2286 0.950 . S
H2275 C2287 0.950 . S
C2276 H2268 0.950 . S
C2276 C2277 1.386 . S
C2276 C2278 1.391 . S
C2277 C2276 1.386 . S
C2277 C2281 1.393 . S
C2278 H2270 0.950 . S
C2278 C2276 1.391 . S
C2278 C2279 1.400 . S
C2279 C2278 1.400 . S
C2279 C2280 1.398 1_565 S
C2279 C2285 1.491 . S
C2280 H2271 0.950 . S
C2280 C2279 1.398 1_545 S
C2280 C2281 1.391 1_545 S
C2281 H2269 0.950 1_565 S
C2281 C2277 1.393 . S
C2281 C2280 1.391 1_565 S
C2282 H2272 0.950 . S
C2282 C2283 1.386 . S
C2282 C2284 1.391 . S
C2283 C2282 1.386 . S
C2283 C2287 1.393 1_545 S
C2284 H2273 0.950 . S
C2284 C2282 1.391 . S
C2284 C2285 1.400 1_545 S
C2285 C2279 1.491 . S
C2285 C2284 1.400 1_565 S
C2285 C2286 1.398 . S
C2286 H2274 0.950 . S
C2286 C2285 1.398 . S
C2286 C2287 1.391 . S
C2287 H2275 0.950 . S
C2287 C2283 1.393 1_565 S
C2287 C2286 1.391 . S
H2288 C2296 0.950 . S
H2289 C2301 0.950 . S
H2290 C2298 0.950 . S
H2291 C2300 0.950 . S
H2292 C2302 0.950 . S
H2293 C2304 0.950 . S
H2294 C2306 0.950 . S
H2295 C2307 0.950 . S
C2296 H2288 0.950 . S
C2296 C2297 1.386 1_455 S
C2296 C2298 1.391 . S
C2297 C2296 1.386 1_655 S
C2297 C2301 1.393 . S
C2298 H2290 0.950 . S
C2298 C2296 1.391 . S
C2298 C2299 1.400 . S
C2299 C2298 1.400 . S
C2299 C2300 1.398 1_455 S
C2299 C2305 1.491 . S
C2300 H2291 0.950 . S
C2300 C2299 1.398 1_655 S
C2300 C2301 1.391 . S
C2301 H2289 0.950 . S
C2301 C2297 1.393 . S
C2301 C2300 1.391 . S
C2302 H2292 0.950 . S
C2302 C2303 1.386 . S
C2302 C2304 1.391 . S
C2303 C2302 1.386 . S
C2303 C2307 1.393 . S
C2304 H2293 0.950 . S
C2304 C2302 1.391 . S
C2304 C2305 1.400 . S
C2305 C2299 1.491 . S
C2305 C2304 1.400 . S
C2305 C2306 1.398 . S
C2306 H2294 0.950 . S
C2306 C2305 1.398 . S
C2306 C2307 1.391 . S
C2307 H2295 0.950 . S
C2307 C2303 1.393 . S
C2307 C2306 1.391 . S
H2308 C2316 0.950 . S
H2309 C2321 0.950 . S
H2310 C2318 0.950 . S
H2311 C2320 0.950 . S
H2312 C2322 0.950 . S
H2313 C2324 0.950 . S
H2314 C2326 0.950 . S
H2315 C2327 0.950 . S
C2316 H2308 0.950 . S
C2316 C2317 1.386 . S
C2316 C2318 1.391 . S
C2317 C2316 1.386 . S
C2317 C2321 1.393 . S
C2318 H2310 0.950 . S
C2318 C2316 1.391 . S
C2318 C2319 1.400 . S
C2319 C2318 1.400 . S
C2319 C2320 1.398 . S
C2319 C2325 1.491 . S
C2320 H2311 0.950 . S
C2320 C2319 1.398 . S
C2320 C2321 1.391 . S
C2321 H2309 0.950 . S
C2321 C2317 1.393 . S
C2321 C2320 1.391 . S
C2322 H2312 0.950 . S
C2322 C2323 1.386 . S
C2322 C2324 1.391 . S
C2323 C2322 1.386 . S
C2323 C2327 1.393 . S
C2324 H2313 0.950 . S
C2324 C2322 1.391 . S
C2324 C2325 1.400 . S
C2325 C2319 1.491 . S
C2325 C2324 1.400 . S
C2325 C2326 1.398 . S
C2326 H2314 0.950 . S
C2326 C2325 1.398 . S
C2326 C2327 1.391 . S
C2327 H2315 0.950 . S
C2327 C2323 1.393 . S
C2327 C2326 1.391 . S
H2328 C2336 0.950 . S
H2329 C2341 0.950 . S
H2330 C2338 0.950 . S
H2331 C2340 0.950 . S
H2332 C2342 0.950 . S
H2333 C2344 0.950 . S
H2334 C2346 0.950 . S
H2335 C2347 0.950 . S
C2336 H2328 0.950 . S
C2336 C2337 1.386 1_545 S
C2336 C2338 1.391 . S
C2337 C2336 1.386 1_565 S
C2337 C2341 1.393 . S
C2338 H2330 0.950 . S
C2338 C2336 1.391 . S
C2338 C2339 1.400 . S
C2339 C2338 1.400 . S
C2339 C2340 1.398 . S
C2339 C2345 1.491 1_556 S
C2340 H2331 0.950 . S
C2340 C2339 1.398 . S
C2340 C2341 1.391 1_545 S
C2341 H2329 0.950 . S
C2341 C2337 1.393 . S
C2341 C2340 1.391 1_565 S
C2342 H2332 0.950 . S
C2342 C2343 1.386 . S
C2342 C2344 1.391 . S
C2343 C2342 1.386 . S
C2343 C2347 1.393 . S
C2344 H2333 0.950 . S
C2344 C2342 1.391 . S
C2344 C2345 1.400 . S
C2345 C2339 1.491 1_554 S
C2345 C2344 1.400 . S
C2345 C2346 1.398 . S
C2346 H2334 0.950 . S
C2346 C2345 1.398 . S
C2346 C2347 1.391 . S
C2347 H2335 0.950 . S
C2347 C2343 1.393 . S
C2347 C2346 1.391 . S
H2348 C2356 0.950 . S
H2349 C2361 0.950 . S
H2350 C2358 1.076 . S
H2351 C2360 0.950 . S
H2352 C2362 0.950 . S
H2353 C2364 0.950 . S
H2354 C2366 0.950 . S
H2355 C2367 0.950 . S
C2356 H2348 0.950 . S
C2356 C2357 1.386 . S
C2356 C2358 1.324 1_554 S
C2357 C2356 1.386 . S
C2357 C2361 1.393 . S
C2358 H2350 1.076 . S
C2358 C2356 1.324 1_556 S
C2358 C2359 1.353 1_556 S
C2359 C2358 1.353 1_554 S
C2359 C2360 1.398 . S
C2359 C2365 1.491 1_554 S
C2360 H2351 0.950 . S
C2360 C2359 1.398 . S
C2360 C2361 1.391 . S
C2361 H2349 0.950 . S
C2361 C2357 1.393 . S
C2361 C2360 1.391 . S
C2362 H2352 0.950 . S
C2362 C2363 1.386 . S
C2362 C2364 1.391 1_456 S
C2363 C2362 1.386 . S
C2363 C2367 1.393 1_455 S
C2364 H2353 0.950 . S
C2364 C2362 1.391 1_654 S
C2364 C2365 1.400 1_554 S
C2365 C2359 1.491 1_556 S
C2365 C2364 1.400 1_556 S
C2365 C2366 1.398 . S
C2366 H2354 0.950 . S
C2366 C2365 1.398 . S
C2366 C2367 1.391 . S
C2367 H2355 0.950 . S
C2367 C2363 1.393 1_655 S
C2367 C2366 1.391 . S
H2368 C2376 0.950 . S
H2369 C2381 0.950 . S
H2370 C2378 0.887 1_556 S
H2371 C2380 0.950 . S
H2372 C2382 0.950 . S
H2373 C2384 0.950 1_554 S
H2374 C2386 0.950 . S
H2375 C2387 0.950 . S
C2376 H2368 0.950 . S
C2376 C2377 1.386 . S
C2376 C2378 1.391 . S
C2377 C2376 1.386 . S
C2377 C2381 1.393 . S
C2378 H2370 0.887 1_554 S
C2378 C2376 1.391 . S
C2378 C2379 1.400 . S
C2379 C2378 1.400 . S
C2379 C2380 1.398 . S
C2379 C2385 1.491 1_554 S
C2380 H2371 0.950 . S
C2380 C2379 1.398 . S
C2380 C2381 1.391 . S
C2381 H2369 0.950 . S
C2381 C2377 1.393 . S
C2381 C2380 1.391 . S
C2382 H2372 0.950 . S
C2382 C2383 1.386 . S
C2382 C2384 1.391 . S
C2383 C2382 1.386 . S
C2383 C2387 1.393 . S
C2384 H2373 0.950 1_556 S
C2384 C2382 1.391 . S
C2384 C2385 1.400 . S
C2385 C2379 1.491 1_556 S
C2385 C2384 1.400 . S
C2385 C2386 1.398 . S
C2386 H2374 0.950 . S
C2386 C2385 1.398 . S
C2386 C2387 1.391 . S
C2387 H2375 0.950 . S
C2387 C2383 1.393 . S
C2387 C2386 1.391 . S
H2388 C2396 0.950 . S
H2389 C2401 0.950 1_565 S
H2390 C2398 0.950 . S
H2391 C2400 0.959 . S
H2392 C2402 0.950 . S
H2393 C2404 0.950 . S
H2394 C2406 0.950 . S
H2395 C2407 0.950 . S
C2396 H2388 0.950 . S
C2396 C2397 1.386 . S
C2396 C2398 1.391 . S
C2397 C2396 1.386 . S
C2397 C2401 1.393 . S
C2398 H2390 0.950 . S
C2398 C2396 1.391 . S
C2398 C2399 1.400 . S
C2399 C2398 1.400 . S
C2399 C2400 1.385 1_545 S
C2399 C2405 1.491 . S
C2400 H2391 0.959 . S
C2400 C2399 1.385 1_565 S
C2400 C2401 1.395 1_565 S
C2401 H2389 0.950 1_545 S
C2401 C2397 1.393 . S
C2401 C2400 1.395 1_545 S
C2402 H2392 0.950 . S
C2402 C2403 1.386 . S
C2402 C2404 1.391 . S
C2403 C2402 1.386 . S
C2403 C2407 1.393 1_565 S
C2404 H2393 0.950 . S
C2404 C2402 1.391 . S
C2404 C2405 1.400 1_565 S
C2405 C2399 1.491 . S
C2405 C2404 1.400 1_545 S
C2405 C2406 1.398 . S
C2406 H2394 0.950 . S
C2406 C2405 1.398 . S
C2406 C2407 1.391 . S
C2407 H2395 0.950 . S
C2407 C2403 1.393 1_545 S
C2407 C2406 1.391 . S
H2408 C2416 0.950 1_455 S
H2409 C2421 0.950 . S
H2410 C2418 0.950 . S
H2411 C2420 0.950 . S
H2412 C2422 0.950 . S
H2413 C2424 0.950 . S
H2414 C2426 0.950 . S
H2415 C2427 0.950 . S
C2416 H2408 0.950 1_655 S
C2416 C2417 1.386 . S
C2416 C2418 1.391 1_655 S
C2417 C2416 1.386 . S
C2417 C2421 1.393 . S
C2418 H2410 0.950 . S
C2418 C2416 1.391 1_455 S
C2418 C2419 1.400 1_455 S
C2419 C2418 1.400 1_655 S
C2419 C2420 1.398 . S
C2419 C2425 1.491 . S
C2420 H2411 0.950 . S
C2420 C2419 1.398 . S
C2420 C2421 1.391 . S
C2421 H2409 0.950 . S
C2421 C2417 1.393 . S
C2421 C2420 1.391 . S
C2422 H2412 0.950 . S
C2422 C2423 1.386 1_655 S
C2422 C2424 1.391 . S
C2423 C2422 1.386 1_455 S
C2423 C2427 1.393 . S
C2424 H2413 0.950 . S
C2424 C2422 1.391 . S
C2424 C2425 1.400 . S
C2425 C2419 1.491 . S
C2425 C2424 1.400 . S
C2425 C2426 1.398 1_655 S
C2426 H2414 0.950 . S
C2426 C2425 1.398 1_455 S
C2426 C2427 1.391 . S
C2427 H2415 0.950 . S
C2427 C2423 1.393 . S
C2427 C2426 1.391 . S
H2428 C2436 0.950 . S
H2429 C2441 0.950 . S
H2430 C2438 0.950 . S
H2431 C2440 0.950 . S
H2432 C2442 0.950 . S
H2433 C2444 0.950 . S
H2434 C2446 0.950 . S
H2435 C2447 0.950 . S
C2436 H2428 0.950 . S
C2436 C2437 1.386 . S
C2436 C2438 1.391 . S
C2437 C2436 1.386 . S
C2437 C2441 1.393 . S
C2438 H2430 0.950 . S
C2438 C2436 1.391 . S
C2438 C2439 1.400 . S
C2439 C2438 1.400 . S
C2439 C2440 1.398 . S
C2439 C2445 1.491 . S
C2440 H2431 0.950 . S
C2440 C2439 1.398 . S
C2440 C2441 1.391 . S
C2441 H2429 0.950 . S
C2441 C2437 1.393 . S
C2441 C2440 1.391 . S
C2442 H2432 0.950 . S
C2442 C2443 1.386 . S
C2442 C2444 1.391 . S
C2443 C2442 1.386 . S
C2443 C2447 1.393 . S
C2444 H2433 0.950 . S
C2444 C2442 1.391 . S
C2444 C2445 1.400 . S
C2445 C2439 1.491 . S
C2445 C2444 1.400 . S
C2445 C2446 1.398 . S
C2446 H2434 0.950 . S
C2446 C2445 1.398 . S
C2446 C2447 1.391 . S
C2447 H2435 0.950 . S
C2447 C2443 1.393 . S
C2447 C2446 1.391 . S
H2448 C2456 0.950 . S
H2449 C2461 0.950 . S
H2450 C2458 0.950 . S
H2451 C2460 1.084 . S
H2452 C2462 0.950 . S
H2453 C2464 0.950 . S
H2454 C2466 0.950 . S
H2455 C2467 0.950 . S
C2456 H2448 0.950 . S
C2456 C2457 1.386 . S
C2456 C2458 1.391 . S
C2457 C2456 1.386 . S
C2457 C2461 1.393 . S
C2458 H2450 0.950 . S
C2458 C2456 1.391 . S
C2458 C2459 1.400 . S
C2459 C2458 1.400 . S
C2459 C2460 1.348 1_556 S
C2459 C2465 1.491 1_556 S
C2460 H2451 1.084 . S
C2460 C2459 1.348 1_554 S
C2460 C2461 1.320 1_554 S
C2461 H2449 0.950 . S
C2461 C2457 1.393 . S
C2461 C2460 1.320 1_556 S
C2462 H2452 0.950 . S
C2462 C2463 1.386 1_565 S
C2462 C2464 1.391 . S
C2463 C2462 1.386 1_545 S
C2463 C2467 1.393 . S
C2464 H2453 0.950 . S
C2464 C2462 1.391 . S
C2464 C2465 1.400 . S
C2465 C2459 1.491 1_554 S
C2465 C2464 1.400 . S
C2465 C2466 1.398 1_554 S
C2466 H2454 0.950 . S
C2466 C2465 1.398 1_556 S
C2466 C2467 1.391 1_566 S
C2467 H2455 0.950 . S
C2467 C2463 1.393 . S
C2467 C2466 1.391 1_544 S
H2468 C2476 0.950 . S
H2469 C2481 0.950 . S
H2470 C2478 0.950 1_556 S
H2471 C2480 0.950 . S
H2472 C2482 0.950 . S
H2473 C2484 0.950 1_554 S
H2474 C2486 0.950 . S
H2475 C2487 0.950 . S
C2476 H2468 0.950 . S
C2476 C2477 1.386 . S
C2476 C2478 1.391 1_655 S
C2477 C2476 1.386 . S
C2477 C2481 1.393 1_655 S
C2478 H2470 0.950 1_554 S
C2478 C2476 1.391 1_455 S
C2478 C2479 1.400 . S
C2479 C2478 1.400 . S
C2479 C2480 1.398 . S
C2479 C2485 1.491 1_554 S
C2480 H2471 0.950 . S
C2480 C2479 1.398 . S
C2480 C2481 1.391 . S
C2481 H2469 0.950 . S
C2481 C2477 1.393 1_455 S
C2481 C2480 1.391 . S
C2482 H2472 0.950 . S
C2482 C2483 1.386 . S
C2482 C2484 1.391 . S
C2483 C2482 1.386 . S
C2483 C2487 1.393 . S
C2484 H2473 0.950 1_556 S
C2484 C2482 1.391 . S
C2484 C2485 1.400 . S
C2485 C2479 1.491 1_556 S
C2485 C2484 1.400 . S
C2485 C2486 1.398 . S
C2486 H2474 0.950 . S
C2486 C2485 1.398 . S
C2486 C2487 1.391 . S
C2487 H2475 0.950 . S
C2487 C2483 1.393 . S
C2487 C2486 1.391 . S
H2488 C2496 0.950 . S
H2489 C2501 0.950 . S
H2490 C2498 0.924 1_554 S
H2491 C2500 0.950 . S
H2492 C2502 0.950 . S
H2493 C2504 0.947 1_556 S
H2494 C2506 0.950 . S
H2495 C2507 0.950 . S
C2496 H2488 0.950 . S
C2496 C2497 1.386 . S
C2496 C2498 1.409 . S
C2497 C2496 1.386 . S
C2497 C2501 1.393 . S
C2498 H2490 0.924 1_556 S
C2498 C2496 1.409 . S
C2498 C2499 1.409 . S
C2499 C2498 1.409 . S
C2499 C2500 1.398 . S
C2499 C2505 1.491 1_556 S
C2500 H2491 0.950 . S
C2500 C2499 1.398 . S
C2500 C2501 1.391 . S
C2501 H2489 0.950 . S
C2501 C2497 1.393 . S
C2501 C2500 1.391 . S
C2502 H2492 0.950 . S
C2502 C2503 1.386 . S
C2502 C2504 1.393 . S
C2503 C2502 1.386 . S
C2503 C2507 1.393 . S
C2504 H2493 0.947 1_554 S
C2504 C2502 1.393 . S
C2504 C2505 1.401 . S
C2505 C2499 1.491 1_554 S
C2505 C2504 1.401 . S
C2505 C2506 1.398 . S
C2506 H2494 0.950 . S
C2506 C2505 1.398 . S
C2506 C2507 1.391 . S
C2507 H2495 0.950 . S
C2507 C2503 1.393 . S
C2507 C2506 1.391 . S
H2508 C2516 0.950 . S
H2509 C2521 0.950 . S
H2510 C2518 0.950 . S
H2511 C2520 0.950 . S
H2512 C2522 0.950 . S
H2513 C2524 0.950 . S
H2514 C2526 0.950 . S
H2515 C2527 0.950 . S
C2516 H2508 0.950 . S
C2516 C2517 1.386 . S
C2516 C2518 1.391 1_655 S
C2517 C2516 1.386 . S
C2517 C2521 1.393 1_655 S
C2518 H2510 0.950 . S
C2518 C2516 1.391 1_455 S
C2518 C2519 1.400 . S
C2519 C2518 1.400 . S
C2519 C2520 1.398 . S
C2519 C2525 1.491 . S
C2520 H2511 0.950 . S
C2520 C2519 1.398 . S
C2520 C2521 1.391 . S
C2521 H2509 0.950 . S
C2521 C2517 1.393 1_455 S
C2521 C2520 1.391 . S
C2522 H2512 0.950 . S
C2522 C2523 1.386 . S
C2522 C2524 1.391 . S
C2523 C2522 1.386 . S
C2523 C2527 1.393 . S
C2524 H2513 0.950 . S
C2524 C2522 1.391 . S
C2524 C2525 1.400 . S
C2525 C2519 1.491 . S
C2525 C2524 1.400 . S
C2525 C2526 1.398 . S
C2526 H2514 0.950 . S
C2526 C2525 1.398 . S
C2526 C2527 1.391 . S
C2527 H2515 0.950 . S
C2527 C2523 1.393 . S
C2527 C2526 1.391 . S
H2528 C2536 0.950 . S
H2529 C2541 0.950 . S
H2530 C2538 0.950 . S
H2531 C2540 0.950 . S
H2532 C2542 0.950 . S
H2533 C2544 0.950 . S
H2534 C2546 0.950 . S
H2535 C2547 0.950 . S
C2536 H2528 0.950 . S
C2536 C2537 1.386 . S
C2536 C2538 1.391 . S
C2537 C2536 1.386 . S
C2537 C2541 1.393 . S
C2538 H2530 0.950 . S
C2538 C2536 1.391 . S
C2538 C2539 1.400 . S
C2539 C2538 1.400 . S
C2539 C2540 1.398 . S
C2539 C2545 1.491 . S
C2540 H2531 0.950 . S
C2540 C2539 1.398 . S
C2540 C2541 1.391 . S
C2541 H2529 0.950 . S
C2541 C2537 1.393 . S
C2541 C2540 1.391 . S
C2542 H2532 0.950 . S
C2542 C2543 1.386 . S
C2542 C2544 1.391 . S
C2543 C2542 1.386 . S
C2543 C2547 1.393 . S
C2544 H2533 0.950 . S
C2544 C2542 1.391 . S
C2544 C2545 1.400 . S
C2545 C2539 1.491 . S
C2545 C2544 1.400 . S
C2545 C2546 1.398 . S
C2546 H2534 0.950 . S
C2546 C2545 1.398 . S
C2546 C2547 1.391 . S
C2547 H2535 0.950 . S
C2547 C2543 1.393 . S
C2547 C2546 1.391 . S
H2548 C2556 0.950 . S
H2549 C2561 0.950 . S
H2550 C2558 0.950 . S
H2551 C2560 0.950 . S
H2552 C2562 0.950 . S
H2553 C2564 0.950 . S
H2554 C2566 0.950 . S
H2555 C2567 0.950 . S
C2556 H2548 0.950 . S
C2556 C2557 1.386 . S
C2556 C2558 1.391 . S
C2557 C2556 1.386 . S
C2557 C2561 1.393 . S
C2558 H2550 0.950 . S
C2558 C2556 1.391 . S
C2558 C2559 1.400 . S
C2559 C2558 1.400 . S
C2559 C2560 1.398 . S
C2559 C2565 1.491 . S
C2560 H2551 0.950 . S
C2560 C2559 1.398 . S
C2560 C2561 1.391 . S
C2561 H2549 0.950 . S
C2561 C2557 1.393 . S
C2561 C2560 1.391 . S
C2562 H2552 0.950 . S
C2562 C2563 1.386 . S
C2562 C2564 1.391 1_545 S
C2563 C2562 1.386 . S
C2563 C2567 1.393 1_545 S
C2564 H2553 0.950 . S
C2564 C2562 1.391 1_565 S
C2564 C2565 1.400 . S
C2565 C2559 1.491 . S
C2565 C2564 1.400 . S
C2565 C2566 1.398 . S
C2566 H2554 0.950 . S
C2566 C2565 1.398 . S
C2566 C2567 1.391 . S
C2567 H2555 0.950 . S
C2567 C2563 1.393 1_565 S
C2567 C2566 1.391 . S
H2568 C2576 0.950 . S
H2569 C2581 0.950 . S
H2570 C2578 0.950 . S
H2571 C2580 0.950 1_455 S
H2572 C2582 0.950 . S
H2573 C2584 0.950 . S
H2574 C2586 0.950 . S
H2575 C2587 0.950 . S
C2576 H2568 0.950 . S
C2576 C2577 1.386 . S
C2576 C2578 1.391 . S
C2577 C2576 1.386 . S
C2577 C2581 1.393 . S
C2578 H2570 0.950 . S
C2578 C2576 1.391 . S
C2578 C2579 1.400 . S
C2579 C2578 1.400 . S
C2579 C2580 1.398 . S
C2579 C2585 1.491 . S
C2580 H2571 0.950 1_655 S
C2580 C2579 1.398 . S
C2580 C2581 1.391 . S
C2581 H2569 0.950 . S
C2581 C2577 1.393 . S
C2581 C2580 1.391 . S
C2582 H2572 0.950 . S
C2582 C2583 1.386 . S
C2582 C2584 1.391 . S
C2583 C2582 1.386 . S
C2583 C2587 1.393 1_455 S
C2584 H2573 0.950 . S
C2584 C2582 1.391 . S
C2584 C2585 1.400 1_455 S
C2585 C2579 1.491 . S
C2585 C2584 1.400 1_655 S
C2585 C2586 1.398 . S
C2586 H2574 0.950 . S
C2586 C2585 1.398 . S
C2586 C2587 1.391 . S
C2587 H2575 0.950 . S
C2587 C2583 1.393 1_655 S
C2587 C2586 1.391 . S
H2588 C2596 0.950 . S
H2589 C2601 0.950 . S
H2590 C2598 0.950 . S
H2591 C2600 0.950 . S
H2592 C2602 0.950 . S
H2593 C2604 0.950 . S
H2594 C2606 0.950 . S
H2595 C2607 0.950 . S
C2596 H2588 0.950 . S
C2596 C2597 1.386 . S
C2596 C2598 1.391 . S
C2597 C2596 1.386 . S
C2597 C2601 1.393 . S
C2598 H2590 0.950 . S
C2598 C2596 1.391 . S
C2598 C2599 1.400 . S
C2599 C2598 1.400 . S
C2599 C2600 1.398 . S
C2599 C2605 1.491 . S
C2600 H2591 0.950 . S
C2600 C2599 1.398 . S
C2600 C2601 1.391 . S
C2601 H2589 0.950 . S
C2601 C2597 1.393 . S
C2601 C2600 1.391 . S
C2602 H2592 0.950 . S
C2602 C2603 1.386 . S
C2602 C2604 1.391 . S
C2603 C2602 1.386 . S
C2603 C2607 1.393 . S
C2604 H2593 0.950 . S
C2604 C2602 1.391 . S
C2604 C2605 1.400 . S
C2605 C2599 1.491 . S
C2605 C2604 1.400 . S
C2605 C2606 1.398 . S
C2606 H2594 0.950 . S
C2606 C2605 1.398 . S
C2606 C2607 1.391 . S
C2607 H2595 0.950 . S
C2607 C2603 1.393 . S
C2607 C2606 1.391 . S
H2608 C2616 0.950 1_565 S
H2609 C2621 0.950 . S
H2610 C2618 0.950 . S
H2611 C2620 0.950 . S
H2612 C2622 0.950 . S
H2613 C2624 0.950 . S
H2614 C2626 0.950 . S
H2615 C2627 0.950 . S
C2616 H2608 0.950 1_545 S
C2616 C2617 1.386 . S
C2616 C2618 1.391 1_545 S
C2617 C2616 1.386 . S
C2617 C2621 1.393 . S
C2618 H2610 0.950 . S
C2618 C2616 1.391 1_565 S
C2618 C2619 1.400 1_565 S
C2619 C2618 1.400 1_545 S
C2619 C2620 1.398 . S
C2619 C2625 1.491 . S
C2620 H2611 0.950 . S
C2620 C2619 1.398 . S
C2620 C2621 1.391 . S
C2621 H2609 0.950 . S
C2621 C2617 1.393 . S
C2621 C2620 1.391 . S
C2622 H2612 0.950 . S
C2622 C2623 1.386 1_545 S
C2622 C2624 1.391 . S
C2623 C2622 1.386 1_565 S
C2623 C2627 1.393 . S
C2624 H2613 0.950 . S
C2624 C2622 1.391 . S
C2624 C2625 1.400 . S
C2625 C2619 1.491 . S
C2625 C2624 1.400 . S
C2625 C2626 1.398 1_545 S
C2626 H2614 0.950 . S
C2626 C2625 1.398 1_565 S
C2626 C2627 1.391 . S
C2627 H2615 0.950 . S
C2627 C2623 1.393 . S
C2627 C2626 1.391 . S
H2628 C2636 0.950 . S
H2629 C2641 0.950 . S
H2630 C2638 0.950 . S
H2631 C2640 0.944 1_455 S
H2632 C2642 0.950 . S
H2633 C2644 0.950 . S
H2634 C2646 0.937 1_655 S
H2635 C2647 0.950 . S
C2636 H2628 0.950 . S
C2636 C2637 1.386 . S
C2636 C2638 1.391 . S
C2637 C2636 1.386 . S
C2637 C2641 1.393 . S
C2638 H2630 0.950 . S
C2638 C2636 1.391 . S
C2638 C2639 1.400 . S
C2639 C2638 1.400 . S
C2639 C2640 1.399 . S
C2639 C2645 1.491 1_655 S
C2640 H2631 0.944 1_655 S
C2640 C2639 1.399 . S
C2640 C2641 1.396 . S
C2641 H2629 0.950 . S
C2641 C2637 1.393 . S
C2641 C2640 1.396 . S
C2642 H2632 0.950 . S
C2642 C2643 1.386 . S
C2642 C2644 1.391 . S
C2643 C2642 1.386 . S
C2643 C2647 1.393 . S
C2644 H2633 0.950 . S
C2644 C2642 1.391 . S
C2644 C2645 1.400 . S
C2645 C2639 1.491 1_455 S
C2645 C2644 1.400 . S
C2645 C2646 1.400 . S
C2646 H2634 0.937 1_455 S
C2646 C2645 1.400 . S
C2646 C2647 1.402 . S
C2647 H2635 0.950 . S
C2647 C2643 1.393 . S
C2647 C2646 1.402 . S
H2648 C2656 0.950 . S
H2649 C2661 0.950 . S
H2650 C2658 0.950 . S
H2651 C2660 0.950 . S
H2652 C2662 0.950 . S
H2653 C2664 0.950 . S
H2654 C2666 0.950 . S
H2655 C2667 0.950 . S
C2656 H2648 0.950 . S
C2656 C2657 1.386 . S
C2656 C2658 1.391 . S
C2657 C2656 1.386 . S
C2657 C2661 1.393 . S
C2658 H2650 0.950 . S
C2658 C2656 1.391 . S
C2658 C2659 1.400 . S
C2659 C2658 1.400 . S
C2659 C2660 1.398 . S
C2659 C2665 1.491 . S
C2660 H2651 0.950 . S
C2660 C2659 1.398 . S
C2660 C2661 1.391 . S
C2661 H2649 0.950 . S
C2661 C2657 1.393 . S
C2661 C2660 1.391 . S
C2662 H2652 0.950 . S
C2662 C2663 1.386 . S
C2662 C2664 1.391 . S
C2663 C2662 1.386 . S
C2663 C2667 1.393 . S
C2664 H2653 0.950 . S
C2664 C2662 1.391 . S
C2664 C2665 1.400 . S
C2665 C2659 1.491 . S
C2665 C2664 1.400 . S
C2665 C2666 1.398 . S
C2666 H2654 0.950 . S
C2666 C2665 1.398 . S
C2666 C2667 1.391 . S
C2667 H2655 0.950 . S
C2667 C2663 1.393 . S
C2667 C2666 1.391 . S
H2668 C2676 0.950 . S
H2669 C2681 0.950 . S
H2670 C2678 0.950 . S
H2671 C2680 0.950 . S
H2672 C2682 0.950 . S
H2673 C2684 0.950 . S
H2674 C2686 0.950 . S
H2675 C2687 0.950 . S
C2676 H2668 0.950 . S
C2676 C2677 1.386 . S
C2676 C2678 1.391 . S
C2677 C2676 1.386 . S
C2677 C2681 1.393 . S
C2678 H2670 0.950 . S
C2678 C2676 1.391 . S
C2678 C2679 1.400 . S
C2679 C2678 1.400 . S
C2679 C2680 1.398 . S
C2679 C2685 1.491 1_565 S
C2680 H2671 0.950 . S
C2680 C2679 1.398 . S
C2680 C2681 1.391 . S
C2681 H2669 0.950 . S
C2681 C2677 1.393 . S
C2681 C2680 1.391 . S
C2682 H2672 0.950 . S
C2682 C2683 1.386 . S
C2682 C2684 1.391 . S
C2683 C2682 1.386 . S
C2683 C2687 1.393 . S
C2684 H2673 0.950 . S
C2684 C2682 1.391 . S
C2684 C2685 1.400 . S
C2685 C2679 1.491 1_545 S
C2685 C2684 1.400 . S
C2685 C2686 1.398 . S
C2686 H2674 0.950 . S
C2686 C2685 1.398 . S
C2686 C2687 1.391 . S
C2687 H2675 0.950 . S
C2687 C2683 1.393 . S
C2687 C2686 1.391 . S
H2688 C2696 0.950 . S
H2689 C2701 0.950 . S
H2690 C2698 0.950 1_455 S
H2691 C2700 0.950 . S
H2692 C2702 0.950 . S
H2693 C2704 0.950 1_655 S
H2694 C2706 0.950 . S
H2695 C2707 0.950 . S
C2696 H2688 0.950 . S
C2696 C2697 1.386 . S
C2696 C2698 1.391 . S
C2697 C2696 1.386 . S
C2697 C2701 1.393 . S
C2698 H2690 0.950 1_655 S
C2698 C2696 1.391 . S
C2698 C2699 1.400 . S
C2699 C2698 1.400 . S
C2699 C2700 1.398 . S
C2699 C2705 1.491 1_655 S
C2700 H2691 0.950 . S
C2700 C2699 1.398 . S
C2700 C2701 1.391 . S
C2701 H2689 0.950 . S
C2701 C2697 1.393 . S
C2701 C2700 1.391 . S
C2702 H2692 0.950 . S
C2702 C2703 1.386 . S
C2702 C2704 1.391 . S
C2703 C2702 1.386 . S
C2703 C2707 1.393 . S
C2704 H2693 0.950 1_455 S
C2704 C2702 1.391 . S
C2704 C2705 1.400 . S
C2705 C2699 1.491 1_455 S
C2705 C2704 1.400 . S
C2705 C2706 1.398 . S
C2706 H2694 0.950 . S
C2706 C2705 1.398 . S
C2706 C2707 1.391 . S
C2707 H2695 0.950 . S
C2707 C2703 1.393 . S
C2707 C2706 1.391 . S
H2708 C2716 0.950 . S
H2709 C2721 0.950 . S
H2710 C2718 0.950 . S
H2711 C2720 0.950 . S
H2712 C2722 0.950 . S
H2713 C2724 0.950 . S
H2714 C2726 0.950 . S
H2715 C2727 0.950 . S
C2716 H2708 0.950 . S
C2716 C2717 1.386 . S
C2716 C2718 1.391 . S
C2717 C2716 1.386 . S
C2717 C2721 1.393 . S
C2718 H2710 0.950 . S
C2718 C2716 1.391 . S
C2718 C2719 1.400 . S
C2719 C2718 1.400 . S
C2719 C2720 1.398 . S
C2719 C2725 1.491 . S
C2720 H2711 0.950 . S
C2720 C2719 1.398 . S
C2720 C2721 1.391 . S
C2721 H2709 0.950 . S
C2721 C2717 1.393 . S
C2721 C2720 1.391 . S
C2722 H2712 0.950 . S
C2722 C2723 1.386 . S
C2722 C2724 1.391 . S
C2723 C2722 1.386 . S
C2723 C2727 1.393 . S
C2724 H2713 0.950 . S
C2724 C2722 1.391 . S
C2724 C2725 1.400 . S
C2725 C2719 1.491 . S
C2725 C2724 1.400 . S
C2725 C2726 1.398 . S
C2726 H2714 0.950 . S
C2726 C2725 1.398 . S
C2726 C2727 1.391 . S
C2727 H2715 0.950 . S
C2727 C2723 1.393 . S
C2727 C2726 1.391 . S
H2728 C2736 0.950 . S
H2729 C2741 0.950 . S
H2730 C2738 0.950 . S
H2731 C2740 0.950 . S
H2732 C2742 0.950 . S
H2733 C2744 0.950 . S
H2734 C2746 0.950 . S
H2735 C2747 0.950 . S
C2736 H2728 0.950 . S
C2736 C2737 1.386 . S
C2736 C2738 1.391 . S
C2737 C2736 1.386 . S
C2737 C2741 1.393 . S
C2738 H2730 0.950 . S
C2738 C2736 1.391 . S
C2738 C2739 1.400 . S
C2739 C2738 1.400 . S
C2739 C2740 1.398 . S
C2739 C2745 1.491 1_545 S
C2740 H2731 0.950 . S
C2740 C2739 1.398 . S
C2740 C2741 1.391 . S
C2741 H2729 0.950 . S
C2741 C2737 1.393 . S
C2741 C2740 1.391 . S
C2742 H2732 0.950 . S
C2742 C2743 1.386 . S
C2742 C2744 1.391 . S
C2743 C2742 1.386 . S
C2743 C2747 1.393 . S
C2744 H2733 0.950 . S
C2744 C2742 1.391 . S
C2744 C2745 1.400 . S
C2745 C2739 1.491 1_565 S
C2745 C2744 1.400 . S
C2745 C2746 1.398 . S
C2746 H2734 0.950 . S
C2746 C2745 1.398 . S
C2746 C2747 1.391 . S
C2747 H2735 0.950 . S
C2747 C2743 1.393 . S
C2747 C2746 1.391 . S
H2748 C2756 0.950 . S
H2749 C2761 0.950 . S
H2750 C2758 0.950 . S
H2751 C2760 0.950 . S
H2752 C2762 0.950 . S
H2753 C2764 0.950 . S
H2754 C2766 0.950 . S
H2755 C2767 0.950 . S
C2756 H2748 0.950 . S
C2756 C2757 1.386 . S
C2756 C2758 1.391 . S
C2757 C2756 1.386 . S
C2757 C2761 1.393 . S
C2758 H2750 0.950 . S
C2758 C2756 1.391 . S
C2758 C2759 1.400 . S
C2759 C2758 1.400 . S
C2759 C2760 1.398 . S
C2759 C2765 1.491 . S
C2760 H2751 0.950 . S
C2760 C2759 1.398 . S
C2760 C2761 1.391 . S
C2761 H2749 0.950 . S
C2761 C2757 1.393 . S
C2761 C2760 1.391 . S
C2762 H2752 0.950 . S
C2762 C2763 1.386 . S
C2762 C2764 1.391 . S
C2763 C2762 1.386 . S
C2763 C2767 1.393 . S
C2764 H2753 0.950 . S
C2764 C2762 1.391 . S
C2764 C2765 1.400 . S
C2765 C2759 1.491 . S
C2765 C2764 1.400 . S
C2765 C2766 1.398 . S
C2766 H2754 0.950 . S
C2766 C2765 1.398 . S
C2766 C2767 1.391 . S
C2767 H2755 0.950 . S
C2767 C2763 1.393 . S
C2767 C2766 1.391 . S
H2768 C2776 0.950 . S
H2769 C2781 0.933 1_565 S
H2770 C2778 0.950 . S
H2771 C2780 0.950 . S
H2772 C2782 0.950 . S
H2773 C2784 0.950 . S
H2774 C2786 0.950 . S
H2775 C2787 0.950 . S
C2776 H2768 0.950 . S
C2776 C2777 1.386 . S
C2776 C2778 1.391 . S
C2777 C2776 1.386 . S
C2777 C2781 1.393 . S
C2778 H2770 0.950 . S
C2778 C2776 1.391 . S
C2778 C2779 1.400 . S
C2779 C2778 1.400 . S
C2779 C2780 1.398 . S
C2779 C2785 1.491 . S
C2780 H2771 0.950 . S
C2780 C2779 1.398 . S
C2780 C2781 1.391 . S
C2781 H2769 0.933 1_545 S
C2781 C2777 1.393 . S
C2781 C2780 1.391 . S
C2782 H2772 0.950 . S
C2782 C2783 1.386 . S
C2782 C2784 1.391 . S
C2783 C2782 1.386 . S
C2783 C2787 1.393 . S
C2784 H2773 0.950 . S
C2784 C2782 1.391 . S
C2784 C2785 1.400 . S
C2785 C2779 1.491 . S
C2785 C2784 1.400 . S
C2785 C2786 1.398 . S
C2786 H2774 0.950 . S
C2786 C2785 1.398 . S
C2786 C2787 1.391 . S
C2787 H2775 0.950 . S
C2787 C2783 1.393 . S
C2787 C2786 1.391 . S
H2788 C2796 0.950 . S
H2789 C2801 0.950 . S
H2790 C2798 0.950 . S
H2791 C2800 0.950 . S
H2792 C2802 0.950 . S
H2793 C2804 0.950 . S
H2794 C2806 0.950 . S
H2795 C2807 0.950 . S
C2796 H2788 0.950 . S
C2796 C2797 1.386 . S
C2796 C2798 1.391 . S
C2797 C2796 1.386 . S
C2797 C2801 1.393 . S
C2798 H2790 0.950 . S
C2798 C2796 1.391 . S
C2798 C2799 1.400 . S
C2799 C2798 1.400 . S
C2799 C2800 1.398 . S
C2799 C2805 1.491 . S
C2800 H2791 0.950 . S
C2800 C2799 1.398 . S
C2800 C2801 1.391 . S
C2801 H2789 0.950 . S
C2801 C2797 1.393 . S
C2801 C2800 1.391 . S
C2802 H2792 0.950 . S
C2802 C2803 1.386 . S
C2802 C2804 1.391 . S
C2803 C2802 1.386 . S
C2803 C2807 1.393 . S
C2804 H2793 0.950 . S
C2804 C2802 1.391 . S
C2804 C2805 1.400 . S
C2805 C2799 1.491 . S
C2805 C2804 1.400 . S
C2805 C2806 1.398 . S
C2806 H2794 0.950 . S
C2806 C2805 1.398 . S
C2806 C2807 1.391 . S
C2807 H2795 0.950 . S
C2807 C2803 1.393 . S
C2807 C2806 1.391 . S
H2808 C2816 0.950 . S
H2809 C2821 0.950 . S
H2810 C2818 0.950 . S
H2811 C2820 0.950 . S
H2812 C2822 0.950 . S
H2813 C2824 0.950 . S
H2814 C2826 0.950 . S
H2815 C2827 0.950 . S
C2816 H2808 0.950 . S
C2816 C2817 1.386 . S
C2816 C2818 1.391 . S
C2817 C2816 1.386 . S
C2817 C2821 1.393 . S
C2818 H2810 0.950 . S
C2818 C2816 1.391 . S
C2818 C2819 1.400 . S
C2819 C2818 1.400 . S
C2819 C2820 1.398 . S
C2819 C2825 1.491 . S
C2820 H2811 0.950 . S
C2820 C2819 1.398 . S
C2820 C2821 1.391 . S
C2821 H2809 0.950 . S
C2821 C2817 1.393 . S
C2821 C2820 1.391 . S
C2822 H2812 0.950 . S
C2822 C2823 1.386 . S
C2822 C2824 1.391 . S
C2823 C2822 1.386 . S
C2823 C2827 1.393 . S
C2824 H2813 0.950 . S
C2824 C2822 1.391 . S
C2824 C2825 1.400 . S
C2825 C2819 1.491 . S
C2825 C2824 1.400 . S
C2825 C2826 1.398 . S
C2826 H2814 0.950 . S
C2826 C2825 1.398 . S
C2826 C2827 1.391 . S
C2827 H2815 0.950 . S
C2827 C2823 1.393 . S
C2827 C2826 1.391 . S
H2828 C2836 0.950 . S
H2829 C2841 0.950 . S
H2830 C2838 0.950 . S
H2831 C2840 0.950 . S
H2832 C2842 0.950 . S
H2833 C2844 0.950 . S
H2834 C2846 0.950 . S
H2835 C2847 0.950 . S
C2836 H2828 0.950 . S
C2836 C2837 1.386 . S
C2836 C2838 1.391 . S
C2837 C2836 1.386 . S
C2837 C2841 1.393 . S
C2838 H2830 0.950 . S
C2838 C2836 1.391 . S
C2838 C2839 1.400 . S
C2839 C2838 1.400 . S
C2839 C2840 1.398 . S
C2839 C2845 1.491 . S
C2840 H2831 0.950 . S
C2840 C2839 1.398 . S
C2840 C2841 1.391 . S
C2841 H2829 0.950 . S
C2841 C2837 1.393 . S
C2841 C2840 1.391 . S
C2842 H2832 0.950 . S
C2842 C2843 1.386 . S
C2842 C2844 1.391 . S
C2843 C2842 1.386 . S
C2843 C2847 1.393 . S
C2844 H2833 0.950 . S
C2844 C2842 1.391 . S
C2844 C2845 1.400 . S
C2845 C2839 1.491 . S
C2845 C2844 1.400 . S
C2845 C2846 1.398 . S
C2846 H2834 0.950 . S
C2846 C2845 1.398 . S
C2846 C2847 1.391 . S
C2847 H2835 0.950 . S
C2847 C2843 1.393 . S
C2847 C2846 1.391 . S
H2848 C2856 0.950 . S
H2849 C2861 0.950 . S
H2850 C2858 0.950 . S
H2851 C2860 0.950 . S
H2852 C2862 0.950 . S
H2853 C2864 0.950 . S
H2854 C2866 0.950 . S
H2855 C2867 0.950 . S
C2856 H2848 0.950 . S
C2856 C2857 1.386 . S
C2856 C2858 1.391 . S
C2857 C2856 1.386 . S
C2857 C2861 1.393 . S
C2858 H2850 0.950 . S
C2858 C2856 1.391 . S
C2858 C2859 1.400 . S
C2859 C2858 1.400 . S
C2859 C2860 1.398 . S
C2859 C2865 1.491 . S
C2860 H2851 0.950 . S
C2860 C2859 1.398 . S
C2860 C2861 1.391 . S
C2861 H2849 0.950 . S
C2861 C2857 1.393 . S
C2861 C2860 1.391 . S
C2862 H2852 0.950 . S
C2862 C2863 1.386 . S
C2862 C2864 1.391 . S
C2863 C2862 1.386 . S
C2863 C2867 1.393 . S
C2864 H2853 0.950 . S
C2864 C2862 1.391 . S
C2864 C2865 1.400 . S
C2865 C2859 1.491 . S
C2865 C2864 1.400 . S
C2865 C2866 1.398 . S
C2866 H2854 0.950 . S
C2866 C2865 1.398 . S
C2866 C2867 1.391 . S
C2867 H2855 0.950 . S
C2867 C2863 1.393 . S
C2867 C2866 1.391 . S
H2868 C2876 0.950 . S
H2869 C2881 0.950 . S
H2870 C2878 0.950 . S
H2871 C2880 0.950 . S
H2872 C2882 0.950 . S
H2873 C2884 0.950 . S
H2874 C2886 0.950 . S
H2875 C2887 0.950 1_545 S
C2876 H2868 0.950 . S
C2876 C2877 1.386 . S
C2876 C2878 1.391 . S
C2877 C2876 1.386 . S
C2877 C2881 1.393 . S
C2878 H2870 0.950 . S
C2878 C2876 1.391 . S
C2878 C2879 1.400 . S
C2879 C2878 1.400 . S
C2879 C2880 1.398 . S
C2879 C2885 1.491 . S
C2880 H2871 0.950 . S
C2880 C2879 1.398 . S
C2880 C2881 1.391 . S
C2881 H2869 0.950 . S
C2881 C2877 1.393 . S
C2881 C2880 1.391 . S
C2882 H2872 0.950 . S
C2882 C2883 1.386 . S
C2882 C2884 1.391 . S
C2883 C2882 1.386 . S
C2883 C2887 1.393 . S
C2884 H2873 0.950 . S
C2884 C2882 1.391 . S
C2884 C2885 1.400 . S
C2885 C2879 1.491 . S
C2885 C2884 1.400 . S
C2885 C2886 1.398 . S
C2886 H2874 0.950 . S
C2886 C2885 1.398 . S
C2886 C2887 1.391 . S
C2887 H2875 0.950 1_565 S
C2887 C2883 1.393 . S
C2887 C2886 1.391 . S
H2888 C2896 0.950 . S
H2889 C2901 0.950 1_655 S
H2890 C2898 0.950 . S
H2891 C2900 0.950 . S
H2892 C2902 0.950 . S
H2893 C2904 0.950 . S
H2894 C2906 0.950 . S
H2895 C2907 0.950 . S
C2896 H2888 0.950 . S
C2896 C2897 1.386 . S
C2896 C2898 1.391 . S
C2897 C2896 1.386 . S
C2897 C2901 1.393 . S
C2898 H2890 0.950 . S
C2898 C2896 1.391 . S
C2898 C2899 1.400 . S
C2899 C2898 1.400 . S
C2899 C2900 1.398 . S
C2899 C2905 1.491 . S
C2900 H2891 0.950 . S
C2900 C2899 1.398 . S
C2900 C2901 1.391 . S
C2901 H2889 0.950 1_455 S
C2901 C2897 1.393 . S
C2901 C2900 1.391 . S
C2902 H2892 0.950 . S
C2902 C2903 1.386 . S
C2902 C2904 1.391 . S
C2903 C2902 1.386 . S
C2903 C2907 1.393 . S
C2904 H2893 0.950 . S
C2904 C2902 1.391 . S
C2904 C2905 1.400 . S
C2905 C2899 1.491 . S
C2905 C2904 1.400 . S
C2905 C2906 1.398 . S
C2906 H2894 0.950 . S
C2906 C2905 1.398 . S
C2906 C2907 1.391 . S
C2907 H2895 0.950 . S
C2907 C2903 1.393 . S
C2907 C2906 1.391 . S
H2908 C2916 0.950 . S
H2909 C2921 0.950 . S
H2910 C2918 0.950 . S
H2911 C2920 0.950 . S
H2912 C2922 0.950 . S
H2913 C2924 0.950 . S
H2914 C2926 0.950 . S
H2915 C2927 0.950 . S
C2916 H2908 0.950 . S
C2916 C2917 1.386 . S
C2916 C2918 1.391 . S
C2917 C2916 1.386 . S
C2917 C2921 1.393 . S
C2918 H2910 0.950 . S
C2918 C2916 1.391 . S
C2918 C2919 1.400 . S
C2919 C2918 1.400 . S
C2919 C2920 1.398 . S
C2919 C2925 1.491 . S
C2920 H2911 0.950 . S
C2920 C2919 1.398 . S
C2920 C2921 1.391 . S
C2921 H2909 0.950 . S
C2921 C2917 1.393 . S
C2921 C2920 1.391 . S
C2922 H2912 0.950 . S
C2922 C2923 1.386 . S
C2922 C2924 1.391 . S
C2923 C2922 1.386 . S
C2923 C2927 1.393 . S
C2924 H2913 0.950 . S
C2924 C2922 1.391 . S
C2924 C2925 1.400 . S
C2925 C2919 1.491 . S
C2925 C2924 1.400 . S
C2925 C2926 1.398 . S
C2926 H2914 0.950 . S
C2926 C2925 1.398 . S
C2926 C2927 1.391 . S
C2927 H2915 0.950 . S
C2927 C2923 1.393 . S
C2927 C2926 1.391 . S
H2928 C2936 0.950 . S
H2929 C2941 0.950 . S
H2930 C2938 0.950 . S
H2931 C2940 0.950 . S
H2932 C2942 0.950 . S
H2933 C2944 0.950 . S
H2934 C2946 0.950 . S
H2935 C2947 0.950 . S
C2936 H2928 0.950 . S
C2936 C2937 1.386 . S
C2936 C2938 1.391 . S
C2937 C2936 1.386 . S
C2937 C2941 1.393 . S
C2938 H2930 0.950 . S
C2938 C2936 1.391 . S
C2938 C2939 1.400 . S
C2939 C2938 1.400 . S
C2939 C2940 1.398 . S
C2939 C2945 1.491 . S
C2940 H2931 0.950 . S
C2940 C2939 1.398 . S
C2940 C2941 1.391 . S
C2941 H2929 0.950 . S
C2941 C2937 1.393 . S
C2941 C2940 1.391 . S
C2942 H2932 0.950 . S
C2942 C2943 1.386 . S
C2942 C2944 1.391 . S
C2943 C2942 1.386 . S
C2943 C2947 1.393 . S
C2944 H2933 0.950 . S
C2944 C2942 1.391 . S
C2944 C2945 1.400 . S
C2945 C2939 1.491 . S
C2945 C2944 1.400 . S
C2945 C2946 1.398 . S
C2946 H2934 0.950 . S
C2946 C2945 1.398 . S
C2946 C2947 1.391 . S
C2947 H2935 0.950 . S
C2947 C2943 1.393 . S
C2947 C2946 1.391 . S
H2948 C2956 0.950 . S
H2949 C2961 0.950 . S
H2950 C2958 0.950 . S
H2951 C2960 0.950 . S
H2952 C2962 0.950 . S
H2953 C2964 0.950 . S
H2954 C2966 0.950 . S
H2955 C2967 0.950 . S
C2956 H2948 0.950 . S
C2956 C2957 1.386 . S
C2956 C2958 1.391 . S
C2957 C2956 1.386 . S
C2957 C2961 1.393 . S
C2958 H2950 0.950 . S
C2958 C2956 1.391 . S
C2958 C2959 1.400 . S
C2959 C2958 1.400 . S
C2959 C2960 1.398 . S
C2959 C2965 1.491 . S
C2960 H2951 0.950 . S
C2960 C2959 1.398 . S
C2960 C2961 1.391 . S
C2961 H2949 0.950 . S
C2961 C2957 1.393 . S
C2961 C2960 1.391 . S
C2962 H2952 0.950 . S
C2962 C2963 1.386 . S
C2962 C2964 1.391 . S
C2963 C2962 1.386 . S
C2963 C2967 1.393 . S
C2964 H2953 0.950 . S
C2964 C2962 1.391 . S
C2964 C2965 1.400 . S
C2965 C2959 1.491 . S
C2965 C2964 1.400 . S
C2965 C2966 1.398 . S
C2966 H2954 0.950 . S
C2966 C2965 1.398 . S
C2966 C2967 1.391 . S
C2967 H2955 0.950 . S
C2967 C2963 1.393 . S
C2967 C2966 1.391 . S
H2968 C2976 0.950 . S
H2969 C2981 0.950 . S
H2970 C2978 0.950 . S
H2971 C2980 0.950 . S
H2972 C2982 0.950 . S
H2973 C2984 0.950 . S
H2974 C2986 0.950 . S
H2975 C2987 0.950 . S
C2976 H2968 0.950 . S
C2976 C2977 1.386 . S
C2976 C2978 1.391 . S
C2977 C2976 1.386 . S
C2977 C2981 1.393 . S
C2978 H2970 0.950 . S
C2978 C2976 1.391 . S
C2978 C2979 1.400 . S
C2979 C2978 1.400 . S
C2979 C2980 1.398 . S
C2979 C2985 1.491 . S
C2980 H2971 0.950 . S
C2980 C2979 1.398 . S
C2980 C2981 1.391 . S
C2981 H2969 0.950 . S
C2981 C2977 1.393 . S
C2981 C2980 1.391 . S
C2982 H2972 0.950 . S
C2982 C2983 1.386 . S
C2982 C2984 1.391 . S
C2983 C2982 1.386 . S
C2983 C2987 1.393 . S
C2984 H2973 0.950 . S
C2984 C2982 1.391 . S
C2984 C2985 1.400 . S
C2985 C2979 1.491 . S
C2985 C2984 1.400 . S
C2985 C2986 1.398 . S
C2986 H2974 0.950 . S
C2986 C2985 1.398 . S
C2986 C2987 1.391 . S
C2987 H2975 0.950 . S
C2987 C2983 1.393 . S
C2987 C2986 1.391 . S
C1197 N2 1.102 . S
C1203 C73 1.101 1_545 S
C1217 C7 1.055 1_655 S
C1223 N35 1.058 . S
C1237 C40 1.079 . S
C1243 N68 1.078 . S
C1257 C139 1.057 1_455 S
C1263 N101 1.057 . S
C1277 C172 1.098 . S
C1283 N134 1.098 . S
C1297 C106 1.063 1_565 S
C1303 N167 1.062 . S
C1317 C271 1.076 1_565 S
C1323 N200 1.081 . S
C1337 N233 1.054 . S
C1343 C205 1.052 1_455 S
C1357 C238 1.056 . S
C1363 N266 1.059 . S
C1377 C337 1.093 1_655 S
C1383 N299 1.092 . S
C1397 N332 1.079 . S
C1403 C370 1.080 . S
C1417 C304 1.053 1_545 S
C1423 N365 1.054 . S
C1437 N398 1.094 . S
C1443 C469 1.095 . S
C1457 N431 1.061 . S
C1463 C403 1.061 . S
C1477 N464 1.057 . S
C1483 C436 1.057 . S
C1497 C535 1.064 . S
C1503 N497 1.063 . S
C1517 C568 1.095 . S
C1523 N530 1.095 . S
C1537 N563 1.066 . S
C1543 C502 1.067 . S
C1557 N596 1.078 . S
C1563 C667 1.079 . S
C1577 N629 1.070 . S
C1583 C601 1.071 . S
C1597 N662 1.063 . S
C1603 C634 1.059 . S
C1617 C733 1.074 . S
C1623 N695 1.072 . S
C1637 C766 1.097 . S
C1643 N728 1.096 . S
C1657 N761 1.101 . S
C1663 C700 1.099 . S
C1677 C865 1.052 . S
C1683 N794 1.054 . S
C1697 C799 1.100 . S
C1703 N827 1.102 . S
C1717 N860 1.087 . S
C1723 C832 1.083 . S
C1737 C931 1.095 . S
C1743 N893 1.094 . S
C1757 N926 1.086 . S
C1763 C964 1.082 . S
C1777 C898 1.086 . S
C1783 N959 1.085 . S
C1797 C1063 1.055 . S
C1803 N992 1.056 . S
C1817 N1025 1.077 . S
C1823 C997 1.073 . S
C1837 N1058 1.098 . S
C1843 C1030 1.098 . S
C1857 C1129 1.094 . S
C1863 N1091 1.094 . S
C1877 C1162 1.075 . S
C1883 N1124 1.080 . S
C1897 N1157 1.063 . S
C1903 C1096 1.059 . S
C1917 N673 1.409 . S
C1923 C18 1.428 . S
C1937 C51 1.418 . S
C1943 N607 1.421 1_565 S
C1957 C84 1.414 . S
C1963 N640 1.425 1_455 S
C1977 N1135 1.415 . S
C1983 C117 1.424 . S
C1997 N1168 1.426 1_545 S
C2003 C150 1.414 . S
C2017 C183 1.429 . S
C2023 N1102 1.409 1_655 S
C2037 C216 1.432 . S
C2043 N871 1.404 . S
C2057 C249 1.431 . S
C2063 N805 1.405 1_545 S
C2077 C282 1.422 . S
C2083 N838 1.414 1_655 S
C2097 N541 1.414 . S
C2103 C315 1.421 . S
C2117 C348 1.425 . S
C2123 N574 1.410 1_565 S
C2137 C381 1.426 . S
C2143 N508 1.409 1_455 S
C2157 C414 1.417 . S
C2163 N1069 1.420 . S
C2177 N1003 1.407 . S
C2183 C447 1.430 . S
C2197 N1036 1.417 . S
C2203 C480 1.421 . S
C2217 C513 1.423 . S
C2223 N343 1.416 . S
C2237 C546 1.431 . S
C2243 N376 1.405 . S
C2257 C579 1.430 . S
C2263 N310 1.405 . S
C2277 N79 1.413 . S
C2283 C612 1.422 . S
C2297 C645 1.415 . S
C2303 N13 1.423 . S
C2317 C678 1.415 . S
C2323 N46 1.425 . S
C2337 N937 1.419 . S
C2343 C711 1.421 . S
C2357 C744 1.412 . S
C2363 N970 1.424 . S
C2377 C777 1.419 . S
C2383 N904 1.417 . S
C2397 N277 1.423 . S
C2403 C810 1.416 . S
C2417 N211 1.407 . S
C2423 C843 1.429 . S
C2437 C876 1.417 . S
C2443 N244 1.420 . S
C2457 C909 1.414 . S
C2463 N739 1.424 . S
C2477 N772 1.422 . S
C2483 C942 1.416 . S
C2497 C975 1.431 . S
C2503 N706 1.404 . S
C2517 N475 1.408 . S
C2523 C1008 1.430 . S
C2537 C1041 1.431 . S
C2543 N409 1.406 . S
C2557 C1074 1.413 . S
C2563 N442 1.424 . S
C2577 N145 1.404 . S
C2583 C1107 1.431 . S
C2597 C1140 1.421 . S
C2603 N178 1.419 . S
C2617 N112 1.419 . S
C2623 C1173 1.421 . S
C2637 C153 1.542 . S
C2643 C21 1.528 . S
C2657 C54 1.536 . S
C2663 C186 1.546 . S
C2677 C87 1.544 . S
C2683 C120 1.545 . S
C2697 C219 1.547 . S
C2703 C351 1.540 . S
C2717 C252 1.522 . S
C2723 C384 1.517 . S
C2737 C285 1.543 . S
C2743 C318 1.546 . S
C2757 C549 1.521 . S
C2763 C417 1.518 . S
C2777 C582 1.536 . S
C2783 C450 1.546 . S
C2797 C516 1.527 . S
C2803 C483 1.541 . S
C2817 C747 1.530 . S
C2823 C615 1.544 . S
C2837 C780 1.533 . S
C2843 C648 1.520 . S
C2857 C714 1.543 . S
C2863 C681 1.547 . S
C2877 C945 1.517 . S
C2883 C813 1.526 . S
C2897 C846 1.542 . S
C2903 C978 1.547 . S
C2917 C912 1.517 . S
C2923 C879 1.524 . S
C2937 C1143 1.517 . S
C2943 C1011 1.523 . S
C2957 C1176 1.521 . S
C2963 C1044 1.535 . S
C2977 C1077 1.544 . S
C2983 C1110 1.530 . S
