# Generated by pormake.
# Topology gis, (4)-cn, num edge types: 1
# Building blocks:
#     Node 0, Type 0, BuildingBlock: ICAMEG_clean_sbu_1, # of connection points: 4
#     Node 1, Type 0, BuildingBlock: ICAMEG_clean_sbu_1, # of connection points: 4
#     Node 2, Type 0, BuildingBlock: ICAMEG_clean_sbu_1, # of connection points: 4
#     Node 3, Type 0, BuildingBlock: ICAMEG_clean_sbu_1, # of connection points: 4
#     Node 4, Type 0, BuildingBlock: ICAMEG_clean_sbu_1, # of connection points: 4
#     Node 5, Type 0, BuildingBlock: ICAMEG_clean_sbu_1, # of connection points: 4
#     Node 6, Type 0, BuildingBlock: ICAMEG_clean_sbu_1, # of connection points: 4
#     Node 7, Type 0, BuildingBlock: ICAMEG_clean_sbu_1, # of connection points: 4
#     Node 8, Type 0, BuildingBlock: ICAMEG_clean_sbu_1, # of connection points: 4
#     Node 9, Type 0, BuildingBlock: ICAMEG_clean_sbu_1, # of connection points: 4
#     Node 10, Type 0, BuildingBlock: ICAMEG_clean_sbu_1, # of connection points: 4
#     Node 11, Type 0, BuildingBlock: ICAMEG_clean_sbu_1, # of connection points: 4
#     Node 12, Type 0, BuildingBlock: ICAMEG_clean_sbu_1, # of connection points: 4
#     Node 13, Type 0, BuildingBlock: ICAMEG_clean_sbu_1, # of connection points: 4
#     Node 14, Type 0, BuildingBlock: ICAMEG_clean_sbu_1, # of connection points: 4
#     Node 15, Type 0, BuildingBlock: ICAMEG_clean_sbu_1, # of connection points: 4
#     Edge 16, Type (0, 0), BuildingBlock: CIFDUS_clean_linker_0, # of connection points: 2
#     Edge 17, Type (0, 0), BuildingBlock: CIFDUS_clean_linker_0, # of connection points: 2
#     Edge 18, Type (0, 0), BuildingBlock: CIFDUS_clean_linker_0, # of connection points: 2
#     Edge 19, Type (0, 0), BuildingBlock: CIFDUS_clean_linker_0, # of connection points: 2
#     Edge 20, Type (0, 0), BuildingBlock: CIFDUS_clean_linker_0, # of connection points: 2
#     Edge 21, Type (0, 0), BuildingBlock: CIFDUS_clean_linker_0, # of connection points: 2
#     Edge 22, Type (0, 0), BuildingBlock: CIFDUS_clean_linker_0, # of connection points: 2
#     Edge 23, Type (0, 0), BuildingBlock: CIFDUS_clean_linker_0, # of connection points: 2
#     Edge 24, Type (0, 0), BuildingBlock: CIFDUS_clean_linker_0, # of connection points: 2
#     Edge 25, Type (0, 0), BuildingBlock: CIFDUS_clean_linker_0, # of connection points: 2
#     Edge 26, Type (0, 0), BuildingBlock: CIFDUS_clean_linker_0, # of connection points: 2
#     Edge 27, Type (0, 0), BuildingBlock: CIFDUS_clean_linker_0, # of connection points: 2
#     Edge 28, Type (0, 0), BuildingBlock: CIFDUS_clean_linker_0, # of connection points: 2
#     Edge 29, Type (0, 0), BuildingBlock: CIFDUS_clean_linker_0, # of connection points: 2
#     Edge 30, Type (0, 0), BuildingBlock: CIFDUS_clean_linker_0, # of connection points: 2
#     Edge 31, Type (0, 0), BuildingBlock: CIFDUS_clean_linker_0, # of connection points: 2
#     Edge 32, Type (0, 0), BuildingBlock: CIFDUS_clean_linker_0, # of connection points: 2
#     Edge 33, Type (0, 0), BuildingBlock: CIFDUS_clean_linker_0, # of connection points: 2
#     Edge 34, Type (0, 0), BuildingBlock: CIFDUS_clean_linker_0, # of connection points: 2
#     Edge 35, Type (0, 0), BuildingBlock: CIFDUS_clean_linker_0, # of connection points: 2
#     Edge 36, Type (0, 0), BuildingBlock: CIFDUS_clean_linker_0, # of connection points: 2
#     Edge 37, Type (0, 0), BuildingBlock: CIFDUS_clean_linker_0, # of connection points: 2
#     Edge 38, Type (0, 0), BuildingBlock: CIFDUS_clean_linker_0, # of connection points: 2
#     Edge 39, Type (0, 0), BuildingBlock: CIFDUS_clean_linker_0, # of connection points: 2
#     Edge 40, Type (0, 0), BuildingBlock: CIFDUS_clean_linker_0, # of connection points: 2
#     Edge 41, Type (0, 0), BuildingBlock: CIFDUS_clean_linker_0, # of connection points: 2
#     Edge 42, Type (0, 0), BuildingBlock: CIFDUS_clean_linker_0, # of connection points: 2
#     Edge 43, Type (0, 0), BuildingBlock: CIFDUS_clean_linker_0, # of connection points: 2
#     Edge 44, Type (0, 0), BuildingBlock: CIFDUS_clean_linker_0, # of connection points: 2
#     Edge 45, Type (0, 0), BuildingBlock: CIFDUS_clean_linker_0, # of connection points: 2
#     Edge 46, Type (0, 0), BuildingBlock: CIFDUS_clean_linker_0, # of connection points: 2
#     Edge 47, Type (0, 0), BuildingBlock: CIFDUS_clean_linker_0, # of connection points: 2
# Relax obj value: 0.027
# Max RMSD: 0.088
# Mean RMSD: 0.087
data_MOF--net-gis--node1-ICAMEG_clean_sbu_1--edge1-CIFDUS_clean_linker_0
_symmetry_space_group_name_H-M    P1
_symmetry_Int_Tables_number       1
_symmetry_cell_setting            triclinic
loop_
_symmetry_equiv_pos_as_xyz
'x, y, z'
_cell_length_a     51.294846
_cell_length_b     51.069113
_cell_length_c     31.697498
_cell_angle_alpha  90.084274
_cell_angle_beta   90.054028
_cell_angle_gamma 89.984993
loop_
_atom_site_label
_atom_site_type_symbol
_atom_site_fract_x
_atom_site_fract_y
_atom_site_fract_z
_atom_type_partial_charge
Co0 Co 0.12674 0.62334 0.07541 0.0
Co1 Co 0.12842 0.62886 0.18418 0.0
O2 O 0.14037 0.61312 0.13106 0.0
C3 C 0.11867 0.5658 0.07633 0.0
O4 O 0.11021 0.56815 0.11523 0.0
C5 C 0.18603 0.63496 0.19149 0.0
O6 O 0.18727 0.64204 0.15173 0.0
O7 O 0.13448 0.66484 0.16187 0.0
O8 O 0.12657 0.66104 0.09242 0.0
H9 H 0.07728 0.69271 0.272 0.0
H10 H 0.17402 0.59027 0.08128 0.0
O11 O 0.12658 0.58586 0.05629 0.0
H12 H 0.20185 0.66996 0.00608 0.0
H13 H 0.12149 0.61934 0.91687 0.0
H14 H 0.08635 0.66051 0.04566 0.0
H15 H 0.1562 0.6646 0.02877 0.0
H16 H 0.13856 0.60719 0.98693 0.0
O17 O 0.16442 0.62835 0.20785 0.0
H18 H 0.09236 0.67218 0.20592 0.0
H19 H 0.13945 0.61906 0.27538 0.0
H20 H 0.06887 0.6734 0.97619 0.0
H21 H 0.21985 0.5947 0.05882 0.0
H22 H 0.08646 0.65274 0.91118 0.0
H23 H 0.23403 0.63481 0.02104 0.0
O24 O 0.08986 0.61945 0.0948 0.0
H25 H 0.15262 0.53512 0.21157 0.0
H26 H 0.08433 0.60226 0.22851 0.0
H27 H 0.07631 0.55741 0.25405 0.0
H28 H 0.11063 0.52347 0.24569 0.0
H29 H 0.1597 0.58019 0.18609 0.0
H30 H 0.12502 0.63915 0.3422 0.0
H31 H 0.09364 0.67619 0.34078 0.0
O32 O 0.09203 0.62982 0.16339 0.0
C33 C 0.13112 0.67474 0.12531 0.0
C34 C 0.09091 0.67654 0.27304 0.0
C35 C 0.11772 0.6465 0.31243 0.0
N36 N 0.11666 0.64435 0.23678 0.0
C37 C 0.09948 0.6648 0.23573 0.0
C38 C 0.12587 0.63524 0.27449 0.0
C39 C 0.10011 0.66728 0.31162 0.0
C40 C 0.18002 0.60769 0.06457 0.0
N41 N 0.16245 0.62713 0.05628 0.0
C42 C 0.206 0.61013 0.05205 0.0
C43 C 0.21395 0.63265 0.0309 0.0
C44 C 0.19591 0.65239 0.02254 0.0
C45 C 0.1701 0.64929 0.03558 0.0
C46 C 0.1137 0.62851 0.94496 0.0
C47 C 0.09421 0.65155 0.01748 0.0
C48 C 0.12324 0.62167 0.98472 0.0
N49 N 0.11357 0.63326 0.02032 0.0
C50 C 0.08419 0.65888 0.97825 0.0
C51 C 0.09405 0.64726 0.94179 0.0
C52 C 0.07916 0.62451 0.13019 0.0
C53 C 0.13753 0.54975 0.21547 0.0
C54 C 0.0993 0.58759 0.22454 0.0
C55 C 0.09468 0.56224 0.23921 0.0
C56 C 0.11395 0.54322 0.23455 0.0
N57 N 0.12247 0.59385 0.20584 0.0
C58 C 0.14147 0.57531 0.20125 0.0
Co59 Co 0.63238 0.88161 0.43703 0.0
Co60 Co 0.62429 0.87766 0.32857 0.0
O61 O 0.64068 0.89249 0.37913 0.0
C62 C 0.62223 0.9386 0.43713 0.0
O63 O 0.61106 0.93523 0.40025 0.0
C64 C 0.68093 0.87039 0.31193 0.0
O65 O 0.6837 0.86312 0.3514 0.0
O66 O 0.63087 0.84132 0.34871 0.0
O67 O 0.63192 0.84391 0.4195 0.0
H68 H 0.56439 0.81682 0.2502 0.0
H69 H 0.67749 0.9165 0.42172 0.0
O70 O 0.6324 0.91918 0.45625 0.0
H71 H 0.71436 0.83709 0.48699 0.0
H72 H 0.64098 0.88526 0.59515 0.0
H73 H 0.59643 0.84287 0.47522 0.0
H74 H 0.667 0.841 0.47503 0.0
H75 H 0.65119 0.89813 0.52203 0.0
O76 O 0.65864 0.87728 0.29817 0.0
H77 H 0.58512 0.83608 0.31326 0.0
H78 H 0.62915 0.88762 0.23611 0.0
H79 H 0.58579 0.82923 0.54782 0.0
H80 H 0.72497 0.91351 0.43339 0.0
H81 H 0.60813 0.8505 0.6084 0.0
H82 H 0.74369 0.87353 0.46613 0.0
O83 O 0.59413 0.8842 0.42639 0.0
H84 H 0.64902 0.97088 0.29811 0.0
H85 H 0.57794 0.90594 0.2942 0.0
H86 H 0.56933 0.95124 0.27126 0.0
H87 H 0.60504 0.98407 0.2731 0.0
H88 H 0.6567 0.92539 0.32113 0.0
H89 H 0.60905 0.86877 0.1722 0.0
H90 H 0.57634 0.83318 0.17904 0.0
O91 O 0.58954 0.87765 0.35677 0.0
C92 C 0.63213 0.83079 0.38516 0.0
C93 C 0.57856 0.83238 0.24682 0.0
C94 C 0.60365 0.86151 0.20304 0.0
N95 N 0.60818 0.86307 0.27839 0.0
C96 C 0.59031 0.8434 0.28241 0.0
C97 C 0.61501 0.87207 0.23934 0.0
C98 C 0.58529 0.84155 0.2069 0.0
C99 C 0.68549 0.89916 0.43634 0.0
N100 N 0.6695 0.87901 0.44784 0.0
C101 C 0.71238 0.89753 0.44272 0.0
C102 C 0.72288 0.87508 0.46103 0.0
C103 C 0.70644 0.85461 0.47272 0.0
C104 C 0.67964 0.85691 0.46578 0.0
C105 C 0.63115 0.87581 0.56902 0.0
C106 C 0.60636 0.85208 0.50142 0.0
C107 C 0.63681 0.88305 0.52756 0.0
N108 N 0.62456 0.87111 0.4944 0.0
C109 C 0.6002 0.84434 0.54245 0.0
C110 C 0.61272 0.8563 0.57643 0.0
C111 C 0.58009 0.8811 0.39355 0.0
C112 C 0.63332 0.95674 0.29705 0.0
C113 C 0.59355 0.92012 0.29522 0.0
C114 C 0.58858 0.94573 0.28208 0.0
C115 C 0.60863 0.96414 0.28309 0.0
N116 N 0.61782 0.91302 0.30888 0.0
C117 C 0.63759 0.93094 0.30988 0.0
Co118 Co 0.3774 0.37462 0.68982 0.0
Co119 Co 0.37605 0.38032 0.58103 0.0
O120 O 0.36385 0.39016 0.63763 0.0
C121 C 0.32042 0.36703 0.69848 0.0
O122 O 0.3195 0.35991 0.65868 0.0
C123 C 0.38288 0.438 0.58304 0.0
O124 O 0.39204 0.43554 0.62151 0.0
O125 O 0.41331 0.38453 0.59801 0.0
O126 O 0.41334 0.37476 0.66694 0.0
H127 H 0.43178 0.33137 0.47721 0.0
H128 H 0.34481 0.42239 0.69411 0.0
O129 O 0.34184 0.37407 0.71509 0.0
H130 H 0.42896 0.44729 0.7579 0.0
H131 H 0.38412 0.36383 0.84741 0.0
H132 H 0.41531 0.3325 0.70915 0.0
H133 H 0.42163 0.40232 0.73215 0.0
H134 H 0.36771 0.38362 0.7816 0.0
O135 O 0.37527 0.4179 0.56266 0.0
H136 H 0.416 0.34373 0.54799 0.0
H137 H 0.36174 0.39676 0.4937 0.0
H138 H 0.43238 0.31229 0.77418 0.0
H139 H 0.35118 0.46755 0.71986 0.0
H140 H 0.41676 0.32796 0.84395 0.0
H141 H 0.39355 0.48027 0.75187 0.0
O142 O 0.37184 0.33853 0.66745 0.0
H143 H 0.28225 0.4079 0.57097 0.0
H144 H 0.34586 0.33883 0.53592 0.0
H145 H 0.29971 0.33299 0.51621 0.0
H146 H 0.26755 0.3677 0.5337 0.0
H147 H 0.32858 0.41283 0.59041 0.0
H148 H 0.37709 0.38514 0.42236 0.0
H149 H 0.41229 0.35215 0.41378 0.0
O150 O 0.37707 0.34255 0.5974 0.0
C151 C 0.42511 0.38 0.63268 0.0
C152 C 0.41638 0.34571 0.48053 0.0
C153 C 0.3857 0.37591 0.44975 0.0
N154 N 0.38785 0.37079 0.52495 0.0
C155 C 0.40731 0.35273 0.52051 0.0
C156 C 0.37713 0.38245 0.49023 0.0
C157 C 0.40545 0.3574 0.44496 0.0
C158 C 0.36321 0.42772 0.70837 0.0
N159 N 0.38282 0.40972 0.71165 0.0
C160 C 0.36674 0.45334 0.72274 0.0
C161 C 0.39053 0.46048 0.74063 0.0
C162 C 0.41041 0.44199 0.74398 0.0
C163 C 0.40619 0.41657 0.7292 0.0
C164 C 0.3911 0.35687 0.8172 0.0
C165 C 0.40853 0.33952 0.7394 0.0
C166 C 0.38185 0.36796 0.77983 0.0
N167 N 0.39067 0.35934 0.74157 0.0
C168 C 0.41822 0.32796 0.77611 0.0
C169 C 0.40943 0.33675 0.81524 0.0
C170 C 0.37396 0.32874 0.63054 0.0
C171 C 0.29609 0.39266 0.56309 0.0
C172 C 0.33198 0.35397 0.54379 0.0
C173 C 0.30588 0.35059 0.53244 0.0
C174 C 0.28785 0.37009 0.54223 0.0
N175 N 0.33991 0.37618 0.56421 0.0
C176 C 0.32235 0.39539 0.57388 0.0
Co177 Co 0.87179 0.13109 0.82912 0.0
Co178 Co 0.8778 0.13075 0.93797 0.0
O179 O 0.86192 0.11813 0.88527 0.0
C180 C 0.81432 0.13924 0.83016 0.0
O181 O 0.81667 0.14816 0.86885 0.0
C182 C 0.884 0.07285 0.94522 0.0
O183 O 0.89052 0.07182 0.90521 0.0
O184 O 0.91365 0.12487 0.91526 0.0
O185 O 0.90946 0.13141 0.84554 0.0
H186 H 0.94094 0.18373 0.02415 0.0
H187 H 0.83884 0.08375 0.83651 0.0
O188 O 0.83432 0.13106 0.81034 0.0
H189 H 0.91791 0.05478 0.76136 0.0
H190 H 0.86711 0.13453 0.6705 0.0
H191 H 0.90855 0.17138 0.79787 0.0
H192 H 0.91271 0.1009 0.78289 0.0
H193 H 0.85539 0.11814 0.74113 0.0
O194 O 0.87785 0.09458 0.96216 0.0
H195 H 0.92039 0.16784 0.95856 0.0
H196 H 0.86887 0.11993 0.02941 0.0
H197 H 0.92101 0.18819 0.72782 0.0
H198 H 0.84311 0.03745 0.8152 0.0
H199 H 0.90022 0.16974 0.66352 0.0
H200 H 0.88292 0.0227 0.77745 0.0
O201 O 0.868 0.16828 0.84767 0.0
H202 H 0.7849 0.10558 0.96704 0.0
H203 H 0.85106 0.17498 0.98219 0.0
H204 H 0.80646 0.1827 0.00833 0.0
H205 H 0.77302 0.14782 1.00088 0.0
H206 H 0.8297 0.09881 0.94095 0.0
H207 H 0.88899 0.13515 0.09573 0.0
H208 H 0.92524 0.16736 0.09337 0.0
O209 O 0.87811 0.16734 0.9165 0.0
C210 C 0.92332 0.12752 0.8784 0.0
C211 C 0.92511 0.16975 0.0256 0.0
C212 C 0.89598 0.14246 0.06577 0.0
N213 N 0.89335 0.1431 0.99015 0.0
C214 C 0.91336 0.16073 0.98858 0.0
C215 C 0.8847 0.13387 0.0281 0.0
C216 C 0.91631 0.16054 0.06443 0.0
C217 C 0.85611 0.0775 0.81977 0.0
N218 N 0.87546 0.09501 0.81086 0.0
C219 C 0.85847 0.05125 0.80793 0.0
C220 C 0.88082 0.04298 0.7868 0.0
C221 C 0.90047 0.06096 0.77779 0.0
C222 C 0.89746 0.08704 0.79019 0.0
C223 C 0.87634 0.14269 0.69828 0.0
C224 C 0.89953 0.16314 0.77001 0.0
C225 C 0.86974 0.13353 0.73836 0.0
N226 N 0.8814 0.14368 0.77357 0.0
C227 C 0.90662 0.17279 0.73044 0.0
C228 C 0.89493 0.16245 0.69438 0.0
C229 C 0.87275 0.17967 0.88271 0.0
C230 C 0.79931 0.12091 0.97055 0.0
C231 C 0.8366 0.15977 0.97862 0.0
C232 C 0.81139 0.16422 0.99363 0.0
C233 C 0.79265 0.14463 0.98947 0.0
N234 N 0.84299 0.13646 0.96009 0.0
C235 C 0.82473 0.11715 0.95598 0.0
Co236 Co 0.12285 0.38159 0.92699 0.0
Co237 Co 0.12418 0.37726 0.81808 0.0
O238 O 0.13633 0.39229 0.8716 0.0
C239 C 0.11542 0.43921 0.92733 0.0
O240 O 0.10672 0.43723 0.88849 0.0
C241 C 0.18138 0.36992 0.81129 0.0
O242 O 0.1818 0.36166 0.85051 0.0
O243 O 0.12992 0.34098 0.83935 0.0
O244 O 0.12245 0.34405 0.90901 0.0
H245 H 0.07236 0.31499 0.72829 0.0
H246 H 0.17033 0.41438 0.92162 0.0
O247 O 0.12302 0.41889 0.94702 0.0
H248 H 0.19791 0.33378 0.99461 0.0
H249 H 0.11813 0.38407 0.08563 0.0
H250 H 0.08236 0.34435 0.95602 0.0
H251 H 0.15221 0.33969 0.97242 0.0
H252 H 0.13503 0.3968 0.01579 0.0
O253 O 0.16021 0.37768 0.79468 0.0
H254 H 0.08766 0.33461 0.79501 0.0
H255 H 0.13537 0.3879 0.72725 0.0
H256 H 0.06505 0.33087 0.02525 0.0
H257 H 0.21622 0.40939 0.94359 0.0
H258 H 0.08296 0.35079 0.09068 0.0
H259 H 0.23027 0.36882 0.98026 0.0
O260 O 0.08593 0.38586 0.90786 0.0
H261 H 0.14927 0.47104 0.79331 0.0
H262 H 0.08031 0.4048 0.77455 0.0
H263 H 0.07269 0.45 0.75029 0.0
H264 H 0.10735 0.48348 0.75957 0.0
H265 H 0.15595 0.42563 0.81751 0.0
H266 H 0.12074 0.36873 0.65981 0.0
H267 H 0.08894 0.33206 0.66006 0.0
O268 O 0.08782 0.37643 0.83887 0.0
C269 C 0.12678 0.33069 0.87568 0.0
C270 C 0.08617 0.33101 0.72776 0.0
C271 C 0.11335 0.36115 0.68933 0.0
N272 N 0.11227 0.36248 0.76503 0.0
C273 C 0.09486 0.34223 0.76544 0.0
C274 C 0.12161 0.37188 0.72763 0.0
C275 C 0.0955 0.34058 0.68949 0.0
C276 C 0.17627 0.39676 0.93786 0.0
N277 N 0.1586 0.37738 0.94582 0.0
C278 C 0.20229 0.39401 0.9501 0.0
C279 C 0.21017 0.37122 0.97062 0.0
C280 C 0.19203 0.35155 0.97865 0.0
C281 C 0.16618 0.35496 0.9659 0.0
C282 C 0.1102 0.37521 0.05736 0.0
C283 C 0.09036 0.35299 0.98437 0.0
C284 C 0.11965 0.38239 0.01772 0.0
N285 N 0.1098 0.3712 0.98189 0.0
C286 C 0.08043 0.34533 0.02347 0.0
C287 C 0.09047 0.35654 0.06016 0.0
C288 C 0.07509 0.38135 0.87235 0.0
C289 C 0.13404 0.45661 0.78901 0.0
C290 C 0.09542 0.41926 0.77891 0.0
C291 C 0.09104 0.44482 0.76497 0.0
C292 C 0.1105 0.46359 0.77014 0.0
N293 N 0.11856 0.41257 0.79741 0.0
C294 C 0.13775 0.43085 0.8025 0.0
Co295 Co 0.87563 0.8753 0.06705 0.0
Co296 Co 0.87424 0.87439 0.17605 0.0
O297 O 0.86201 0.88791 0.12147 0.0
C298 C 0.88269 0.93293 0.05879 0.0
O299 O 0.89196 0.93356 0.09741 0.0
C300 C 0.81633 0.86883 0.18572 0.0
O301 O 0.81451 0.85993 0.14694 0.0
O302 O 0.86788 0.83752 0.15768 0.0
O303 O 0.87692 0.83867 0.08846 0.0
H304 H 0.92582 0.81423 0.26962 0.0
H305 H 0.82751 0.90724 0.06962 0.0
O306 O 0.87463 0.9115 0.04301 0.0
H307 H 0.80144 0.82351 0.00441 0.0
H308 H 0.87989 0.87098 0.90841 0.0
H309 H 0.91716 0.83812 0.04168 0.0
H310 H 0.84704 0.83116 0.0257 0.0
H311 H 0.86273 0.88619 0.97685 0.0
O312 O 0.83825 0.87609 0.20045 0.0
H313 H 0.91031 0.83196 0.20176 0.0
H314 H 0.86395 0.88813 0.26619 0.0
H315 H 0.93475 0.82222 0.97393 0.0
H316 H 0.78169 0.90054 0.04842 0.0
H317 H 0.91609 0.83869 0.90666 0.0
H318 H 0.7684 0.85839 0.01567 0.0
O319 O 0.91248 0.88111 0.08562 0.0
H320 H 0.85065 0.96922 0.19341 0.0
H321 H 0.91869 0.90262 0.21698 0.0
H322 H 0.92705 0.94843 0.23751 0.0
H323 H 0.89285 0.98211 0.22582 0.0
H324 H 0.84323 0.92318 0.17296 0.0
H325 H 0.87881 0.87088 0.33475 0.0
H326 H 0.91004 0.83372 0.33675 0.0
O327 O 0.91069 0.8724 0.15481 0.0
C328 C 0.87197 0.82623 0.12233 0.0
C329 C 0.91226 0.83047 0.26916 0.0
C330 C 0.88585 0.86224 0.30571 0.0
N331 N 0.88633 0.86113 0.22998 0.0
C332 C 0.90344 0.84062 0.23083 0.0
C333 C 0.87745 0.87188 0.26679 0.0
C334 C 0.90338 0.8414 0.30681 0.0
C335 C 0.82189 0.88892 0.05511 0.0
N336 N 0.83994 0.86962 0.0489 0.0
C337 C 0.79592 0.88521 0.04329 0.0
C338 C 0.78846 0.86154 0.02497 0.0
C339 C 0.80698 0.84195 0.01868 0.0
C340 C 0.83277 0.84635 0.03096 0.0
C341 C 0.88816 0.86364 0.93751 0.0
C342 C 0.90885 0.84528 0.01254 0.0
C343 C 0.87857 0.87223 0.97636 0.0
N344 N 0.88885 0.86296 0.01324 0.0
C345 C 0.91893 0.83625 0.97428 0.0
C346 C 0.90847 0.84551 0.93655 0.0
C347 C 0.92342 0.87703 0.12118 0.0
C348 C 0.86568 0.95472 0.19874 0.0
C349 C 0.90378 0.91716 0.21156 0.0
C350 C 0.90858 0.94307 0.2234 0.0
C351 C 0.88938 0.96195 0.21687 0.0
N352 N 0.88048 0.91023 0.19381 0.0
C353 C 0.86155 0.92862 0.18736 0.0
Co354 Co 0.37879 0.62615 0.32877 0.0
Co355 Co 0.37102 0.62332 0.43729 0.0
O356 O 0.36245 0.61194 0.37971 0.0
C357 C 0.32263 0.63429 0.31282 0.0
O358 O 0.32056 0.64255 0.35193 0.0
C359 C 0.38044 0.56623 0.43867 0.0
O360 O 0.39144 0.56899 0.40158 0.0
O361 O 0.4092 0.62018 0.42655 0.0
O362 O 0.41341 0.62623 0.3568 0.0
H363 H 0.41847 0.67639 0.54663 0.0
H364 H 0.34601 0.57858 0.32247 0.0
O365 O 0.34449 0.62645 0.2988 0.0
H366 H 0.43307 0.55158 0.2729 0.0
H367 H 0.39363 0.63322 0.17215 0.0
H368 H 0.41827 0.66724 0.3123 0.0
H369 H 0.42485 0.59717 0.2949 0.0
H370 H 0.37355 0.61526 0.23659 0.0
O371 O 0.37064 0.586 0.45739 0.0
H372 H 0.40751 0.66205 0.47441 0.0
H373 H 0.35224 0.60796 0.52274 0.0
H374 H 0.439 0.6856 0.2487 0.0
H375 H 0.35329 0.53282 0.30038 0.0
H376 H 0.42669 0.66857 0.17799 0.0
H377 H 0.39712 0.51905 0.27553 0.0
O378 O 0.37258 0.6628 0.34803 0.0
H379 H 0.27805 0.5925 0.43444 0.0
H380 H 0.33695 0.66471 0.4745 0.0
H381 H 0.28965 0.66932 0.48637 0.0
H382 H 0.25986 0.63303 0.4663 0.0
H383 H 0.32548 0.5888 0.42285 0.0
H384 H 0.36277 0.62154 0.59551 0.0
H385 H 0.39603 0.65607 0.60779 0.0
O386 O 0.37184 0.66075 0.41885 0.0
C387 C 0.42303 0.62298 0.39347 0.0
C388 C 0.40388 0.66139 0.54168 0.0
C389 C 0.37264 0.63058 0.56912 0.0
N390 N 0.37911 0.63435 0.49437 0.0
C391 C 0.39754 0.65325 0.50086 0.0
C392 C 0.3668 0.62293 0.52785 0.0
C393 C 0.3913 0.64996 0.57599 0.0
C394 C 0.36505 0.57279 0.31129 0.0
N395 N 0.38495 0.59054 0.30986 0.0
C396 C 0.3691 0.54683 0.29899 0.0
C397 C 0.3937 0.5391 0.28512 0.0
C398 C 0.41389 0.55734 0.28367 0.0
C399 C 0.40914 0.58312 0.29629 0.0
C400 C 0.39919 0.64077 0.20278 0.0
C401 C 0.41292 0.65963 0.28165 0.0
C402 C 0.38784 0.63072 0.23938 0.0
N403 N 0.39486 0.64008 0.27818 0.0
C404 C 0.42468 0.67015 0.24575 0.0
C405 C 0.41774 0.6606 0.20608 0.0
C406 C 0.37158 0.67361 0.38432 0.0
C407 C 0.29084 0.60842 0.44342 0.0
C408 C 0.32411 0.64885 0.46562 0.0
C409 C 0.29735 0.65155 0.47249 0.0
C410 C 0.28065 0.63118 0.46125 0.0
N411 N 0.33395 0.62645 0.44817 0.0
C412 C 0.31771 0.60638 0.4371 0.0
Co413 Co 0.63027 0.13388 0.6815 0.0
Co414 Co 0.626 0.12677 0.57308 0.0
O415 O 0.64098 0.11762 0.62815 0.0
C416 C 0.68791 0.14076 0.68123 0.0
O417 O 0.68617 0.14745 0.64135 0.0
C418 C 0.61989 0.06898 0.57743 0.0
O419 O 0.61246 0.07179 0.6168 0.0
O420 O 0.5898 0.12261 0.59506 0.0
O421 O 0.59281 0.13344 0.66357 0.0
H422 H 0.56477 0.17401 0.47554 0.0
H423 H 0.66289 0.08604 0.68283 0.0
O424 O 0.66746 0.13459 0.70168 0.0
H425 H 0.58244 0.06245 0.75885 0.0
H426 H 0.63254 0.14711 0.83895 0.0
H427 H 0.59341 0.17617 0.70477 0.0
H428 H 0.58842 0.107 0.73058 0.0
H429 H 0.6452 0.12633 0.77173 0.0
O430 O 0.62615 0.08894 0.55567 0.0
H431 H 0.5842 0.16267 0.54435 0.0
H432 H 0.63599 0.10935 0.48463 0.0
H433 H 0.58003 0.19735 0.77131 0.0
H434 H 0.65785 0.04131 0.71097 0.0
H435 H 0.59966 0.18283 0.83902 0.0
H436 H 0.61734 0.02925 0.74916 0.0
O437 O 0.63464 0.16964 0.65727 0.0
H438 H 0.71913 0.09947 0.55152 0.0
H439 H 0.65356 0.16784 0.52311 0.0
H440 H 0.69851 0.17364 0.4973 0.0
H441 H 0.73166 0.13928 0.51143 0.0
H442 H 0.67398 0.09459 0.57708 0.0
H443 H 0.61698 0.11996 0.41522 0.0
H444 H 0.58117 0.15257 0.41035 0.0
O445 O 0.62557 0.16481 0.58837 0.0
C446 C 0.5795 0.12756 0.63084 0.0
C447 C 0.58042 0.15983 0.47723 0.0
C448 C 0.6097 0.12947 0.44338 0.0
N449 N 0.61133 0.13552 0.51846 0.0
C450 C 0.59155 0.15338 0.51609 0.0
C451 C 0.62035 0.1235 0.48279 0.0
C452 C 0.58961 0.14777 0.44068 0.0
C453 C 0.64532 0.081 0.69977 0.0
N454 N 0.626 0.09912 0.70512 0.0
C455 C 0.64253 0.05562 0.71548 0.0
C456 C 0.61978 0.04886 0.73685 0.0
C457 C 0.60018 0.06746 0.74226 0.0
C458 C 0.60363 0.09264 0.72605 0.0
C459 C 0.62381 0.15357 0.80966 0.0
C460 C 0.60191 0.16964 0.73414 0.0
C461 C 0.63094 0.14192 0.77149 0.0
N462 N 0.61991 0.14991 0.7344 0.0
C463 C 0.59432 0.18175 0.7717 0.0
C464 C 0.60536 0.17361 0.80968 0.0
C465 C 0.63051 0.17902 0.62055 0.0
C466 C 0.70485 0.11455 0.54507 0.0
C467 C 0.66788 0.15285 0.52954 0.0
C468 C 0.6933 0.15621 0.51473 0.0
C469 C 0.71188 0.13691 0.52264 0.0
N470 N 0.66114 0.13086 0.5515 0.0
C471 C 0.67924 0.11184 0.55932 0.0
Co472 Co 0.86638 0.38294 0.92154 0.0
Co473 Co 0.87657 0.38633 0.8137 0.0
O474 O 0.85913 0.3973 0.86555 0.0
C475 C 0.87616 0.43948 0.92849 0.0
O476 O 0.88792 0.43742 0.89191 0.0
C477 C 0.82086 0.37762 0.79775 0.0
O478 O 0.81973 0.36786 0.83597 0.0
O479 O 0.87139 0.3488 0.82755 0.0
O480 O 0.86718 0.34644 0.89808 0.0
H481 H 0.93978 0.33351 0.72755 0.0
H482 H 0.82147 0.41876 0.90971 0.0
O483 O 0.8661 0.41934 0.94578 0.0
H484 H 0.78363 0.33576 0.96009 0.0
H485 H 0.85515 0.37747 0.079 0.0
H486 H 0.9015 0.34187 0.95532 0.0
H487 H 0.83119 0.34034 0.95129 0.0
H488 H 0.84633 0.39469 0.0077 0.0
O489 O 0.84235 0.38628 0.78329 0.0
H490 H 0.91777 0.34772 0.79285 0.0
H491 H 0.87153 0.4015 0.72326 0.0
H492 H 0.91074 0.32389 0.02597 0.0
H493 H 0.77382 0.41509 0.91831 0.0
H494 H 0.88749 0.34173 0.08843 0.0
H495 H 0.75461 0.37331 0.94352 0.0
O496 O 0.90467 0.38601 0.91322 0.0
H497 H 0.84826 0.4799 0.79664 0.0
H498 H 0.92208 0.41835 0.7861 0.0
H499 H 0.92906 0.46514 0.7706 0.0
H500 H 0.89198 0.49627 0.77583 0.0
H501 H 0.84218 0.43298 0.81221 0.0
H502 H 0.89286 0.38769 0.65713 0.0
H503 H 0.92734 0.35354 0.65906 0.0
O504 O 0.91094 0.38588 0.84309 0.0
C505 C 0.86873 0.33583 0.8616 0.0
C506 C 0.92485 0.34847 0.72632 0.0
C507 C 0.8985 0.37886 0.68679 0.0
N508 N 0.89358 0.37559 0.7619 0.0
C509 C 0.91239 0.35666 0.7632 0.0
C510 C 0.88646 0.38656 0.72431 0.0
C511 C 0.91784 0.3597 0.68789 0.0
C512 C 0.81327 0.40062 0.92113 0.0
N513 N 0.82909 0.37985 0.93019 0.0
C514 C 0.78627 0.39862 0.92576 0.0
C515 C 0.7755 0.37515 0.93984 0.0
C516 C 0.79177 0.35407 0.94911 0.0
C517 C 0.81868 0.35677 0.94401 0.0
C518 C 0.86537 0.36949 0.05202 0.0
C519 C 0.89116 0.34958 0.98232 0.0
C520 C 0.86048 0.3792 0.0116 0.0
N521 N 0.87322 0.36911 0.97738 0.0
C522 C 0.89654 0.33939 0.02225 0.0
C523 C 0.88351 0.34943 0.05729 0.0
C524 C 0.91944 0.38617 0.88093 0.0
C525 C 0.86454 0.46652 0.79411 0.0
C526 C 0.90585 0.43178 0.78849 0.0
C527 C 0.90991 0.45825 0.7796 0.0
C528 C 0.88909 0.47569 0.78251 0.0
N529 N 0.88171 0.42294 0.79985 0.0
C530 C 0.86119 0.43991 0.80269 0.0
Co531 Co 0.37159 0.12772 0.57269 0.0
Co532 Co 0.37792 0.1193 0.68069 0.0
O533 O 0.36231 0.11069 0.62595 0.0
C534 C 0.38074 0.07135 0.55633 0.0
O535 O 0.3912 0.07005 0.59407 0.0
C536 C 0.32107 0.12674 0.69389 0.0
O537 O 0.32025 0.13748 0.65633 0.0
O538 O 0.37298 0.15746 0.67112 0.0
O539 O 0.37217 0.16284 0.60083 0.0
H540 H 0.43778 0.16806 0.77867 0.0
H541 H 0.32582 0.0924 0.57545 0.0
O542 O 0.37144 0.09294 0.54291 0.0
H543 H 0.29104 0.17851 0.53323 0.0
H544 H 0.36565 0.14216 0.41588 0.0
H545 H 0.40871 0.16945 0.54799 0.0
H546 H 0.33812 0.17253 0.54579 0.0
H547 H 0.35407 0.12137 0.48352 0.0
O548 O 0.34258 0.11794 0.70837 0.0
H549 H 0.41811 0.15689 0.70991 0.0
H550 H 0.37003 0.09983 0.76841 0.0
H551 H 0.42071 0.19094 0.48112 0.0
H552 H 0.27861 0.09746 0.56287 0.0
H553 H 0.39912 0.1773 0.41444 0.0
H554 H 0.26094 0.14079 0.54175 0.0
O555 O 0.40949 0.12328 0.58416 0.0
H556 H 0.34954 0.02519 0.68338 0.0
H557 H 0.42259 0.08605 0.70843 0.0
H558 H 0.42925 0.03865 0.7187 0.0
H559 H 0.39255 0.00787 0.70616 0.0
H560 H 0.34379 0.07274 0.67318 0.0
H561 H 0.389 0.11056 0.83787 0.0
H562 H 0.4232 0.14482 0.84327 0.0
O563 O 0.41355 0.12114 0.65467 0.0
C564 C 0.37205 0.1719 0.63838 0.0
C565 C 0.42295 0.15303 0.77671 0.0
C566 C 0.39555 0.12078 0.80994 0.0
N567 N 0.39313 0.12757 0.73512 0.0
C568 C 0.41181 0.14656 0.73785 0.0
C569 C 0.38485 0.11482 0.77054 0.0
C570 C 0.41475 0.14 0.81295 0.0
C571 C 0.3183 0.11124 0.56583 0.0
N572 N 0.33471 0.1321 0.56119 0.0
C573 C 0.29154 0.11402 0.55893 0.0
C574 C 0.28163 0.13835 0.54715 0.0
C575 C 0.29851 0.15952 0.5424 0.0
C576 C 0.32514 0.15603 0.54965 0.0
C577 C 0.37516 0.14831 0.44474 0.0
C578 C 0.39911 0.16353 0.51914 0.0
C579 C 0.36872 0.13657 0.48311 0.0
N580 N 0.38056 0.14434 0.51969 0.0
C581 C 0.40604 0.17571 0.48136 0.0
C582 C 0.39393 0.16803 0.44395 0.0
C583 C 0.42328 0.12194 0.6176 0.0
C584 C 0.36566 0.03842 0.68906 0.0
C585 C 0.40654 0.07278 0.70285 0.0
C586 C 0.41041 0.04596 0.70879 0.0
C587 C 0.38981 0.02871 0.70178 0.0
N588 N 0.38278 0.08214 0.69039 0.0
C589 C 0.36248 0.06536 0.68352 0.0
Co590 Co 0.62599 0.6246 0.31002 0.0
Co591 Co 0.62713 0.62645 0.41915 0.0
O592 O 0.63907 0.61288 0.36467 0.0
C593 C 0.68288 0.63215 0.30459 0.0
O594 O 0.68235 0.64096 0.3435 0.0
C595 C 0.61765 0.56954 0.42193 0.0
O596 O 0.60807 0.57204 0.38375 0.0
O597 O 0.58976 0.6233 0.40242 0.0
O598 O 0.58971 0.62528 0.33171 0.0
H599 H 0.57414 0.68378 0.51533 0.0
H600 H 0.65951 0.57742 0.31429 0.0
O601 O 0.66208 0.62439 0.28665 0.0
H602 H 0.57632 0.54709 0.25335 0.0
H603 H 0.6219 0.62524 0.1513 0.0
H604 H 0.58752 0.66435 0.28227 0.0
H605 H 0.58265 0.5936 0.27173 0.0
H606 H 0.63757 0.61017 0.22074 0.0
O607 O 0.626 0.58963 0.44175 0.0
H608 H 0.58933 0.66695 0.44662 0.0
H609 H 0.63994 0.61348 0.50842 0.0
H610 H 0.57116 0.67987 0.21351 0.0
H611 H 0.6541 0.53076 0.29604 0.0
H612 H 0.58838 0.66028 0.14739 0.0
H613 H 0.61222 0.51531 0.26549 0.0
O614 O 0.63058 0.66183 0.32641 0.0
H615 H 0.71942 0.59493 0.43519 0.0
H616 H 0.65911 0.66878 0.4583 0.0
H617 H 0.70541 0.67348 0.47796 0.0
H618 H 0.7359 0.63637 0.46646 0.0
H619 H 0.67301 0.59114 0.41566 0.0
H620 H 0.62514 0.62956 0.57783 0.0
H621 H 0.59208 0.66504 0.58156 0.0
O622 O 0.62802 0.6634 0.39723 0.0
C623 C 0.57796 0.62414 0.36703 0.0
C624 C 0.58862 0.66838 0.51412 0.0
C625 C 0.61722 0.63792 0.54919 0.0
N626 N 0.61565 0.63942 0.47355 0.0
C627 C 0.59735 0.65883 0.47531 0.0
C628 C 0.62548 0.62886 0.50982 0.0
C629 C 0.59867 0.65784 0.55126 0.0
C630 C 0.64134 0.57089 0.30056 0.0
N631 N 0.62147 0.58823 0.2939 0.0
C632 C 0.63835 0.54443 0.29047 0.0
C633 C 0.61482 0.53577 0.2734 0.0
C634 C 0.59467 0.55358 0.26661 0.0
C635 C 0.59834 0.57989 0.27716 0.0
C636 C 0.6142 0.63389 0.17988 0.0
C637 C 0.59498 0.65561 0.25364 0.0
C638 C 0.62303 0.62546 0.21929 0.0
N639 N 0.61329 0.63621 0.25551 0.0
C640 C 0.5857 0.66453 0.2148 0.0
C641 C 0.59539 0.65354 0.17771 0.0
C642 C 0.63003 0.67445 0.36117 0.0
C643 C 0.70631 0.61121 0.44047 0.0
C644 C 0.67227 0.65256 0.4531 0.0
C645 C 0.69845 0.65532 0.46438 0.0
C646 C 0.71555 0.63448 0.45795 0.0
N647 N 0.66335 0.62967 0.43599 0.0
C648 C 0.67998 0.60914 0.42965 0.0
Co649 Co 0.12306 0.884 0.17674 0.0
Co650 Co 0.13225 0.87603 0.06916 0.0
O651 O 0.14011 0.89281 0.12336 0.0
C652 C 0.17911 0.87602 0.19382 0.0
O653 O 0.18051 0.86501 0.15645 0.0
C654 C 0.12363 0.93251 0.05396 0.0
O655 O 0.11253 0.93347 0.09122 0.0
O656 O 0.09403 0.88025 0.07785 0.0
O657 O 0.08837 0.88228 0.14805 0.0
H658 H 0.08602 0.81301 0.97298 0.0
H659 H 0.15735 0.93059 0.17267 0.0
O660 O 0.15751 0.88526 0.20696 0.0
H661 H 0.07069 0.96449 0.21207 0.0
H662 H 0.10758 0.89213 0.33304 0.0
H663 H 0.08216 0.84626 0.20231 0.0
H664 H 0.07764 0.91714 0.20155 0.0
H665 H 0.12848 0.90312 0.26527 0.0
O666 O 0.13298 0.91101 0.04019 0.0
H667 H 0.09612 0.83419 0.04106 0.0
H668 H 0.15199 0.88306 0.98146 0.0
H669 H 0.06057 0.83482 0.26932 0.0
H670 H 0.15131 0.97809 0.1832 0.0
H671 H 0.07328 0.85783 0.3353 0.0
H672 H 0.1077 0.99532 0.20289 0.0
O673 O 0.12829 0.84589 0.16691 0.0
H674 H 0.22528 0.90669 0.06699 0.0
H675 H 0.1666 0.83155 0.04377 0.0
H676 H 0.21401 0.82581 0.03466 0.0
H677 H 0.24369 0.86357 0.0463 0.0
H678 H 0.17775 0.91151 0.07606 0.0
H679 H 0.14232 0.86258 0.91265 0.0
H680 H 0.1092 0.82721 0.90816 0.0
O681 O 0.13114 0.84075 0.09666 0.0
C682 C 0.0795 0.88152 0.11041 0.0
C683 C 0.10055 0.82834 0.97455 0.0
C684 C 0.13213 0.85619 0.94069 0.0
N685 N 0.12477 0.85967 0.01526 0.0
C686 C 0.1064 0.84035 0.01303 0.0
C687 C 0.13748 0.86774 0.97971 0.0
C688 C 0.11355 0.83634 0.93819 0.0
C689 C 0.13839 0.93793 0.18169 0.0
N690 N 0.11792 0.92112 0.18668 0.0
C691 C 0.13506 0.96485 0.18742 0.0
C692 C 0.11057 0.9745 0.1984 0.0
C693 C 0.08979 0.95722 0.20352 0.0
C694 C 0.09383 0.93043 0.19744 0.0
C695 C 0.10183 0.88201 0.30449 0.0
C696 C 0.08765 0.85648 0.23086 0.0
C697 C 0.11363 0.88811 0.26604 0.0
N698 N 0.10637 0.8755 0.22984 0.0
C699 C 0.07543 0.84986 0.26872 0.0
C700 C 0.08258 0.86277 0.30573 0.0
C701 C 0.13029 0.83157 0.13409 0.0
C702 C 0.21254 0.89012 0.06171 0.0
C703 C 0.17939 0.84806 0.04894 0.0
C704 C 0.20622 0.84471 0.04366 0.0
C705 C 0.22286 0.8659 0.05016 0.0
N706 N 0.16942 0.87188 0.06026 0.0
C707 C 0.18561 0.89276 0.06661 0.0
Co708 Co 0.87039 0.62303 0.08244 0.0
Co709 Co 0.88067 0.61922 0.19025 0.0
O710 O 0.8631 0.60862 0.1383 0.0
C711 C 0.87937 0.56631 0.07518 0.0
O712 O 0.89127 0.56806 0.11172 0.0
C713 C 0.82534 0.6295 0.20514 0.0
O714 O 0.82512 0.63956 0.16708 0.0
O715 O 0.87634 0.65689 0.17648 0.0
O716 O 0.87149 0.65947 0.10608 0.0
H717 H 0.94478 0.6706 0.27709 0.0
H718 H 0.82514 0.58767 0.09429 0.0
O719 O 0.86968 0.58669 0.05801 0.0
H720 H 0.78804 0.6711 0.0441 0.0
H721 H 0.85912 0.62888 0.92499 0.0
H722 H 0.90579 0.66389 0.04893 0.0
H723 H 0.83557 0.66599 0.05271 0.0
H724 H 0.85019 0.61161 0.99619 0.0
O725 O 0.84632 0.62002 0.22026 0.0
H726 H 0.92263 0.65692 0.21155 0.0
H727 H 0.87509 0.60412 0.28057 0.0
H728 H 0.91515 0.68191 0.97838 0.0
H729 H 0.77751 0.59188 0.08588 0.0
H730 H 0.89173 0.66437 0.91579 0.0
H731 H 0.75867 0.63387 0.06079 0.0
O732 O 0.90866 0.61956 0.09084 0.0
H733 H 0.85041 0.52626 0.20693 0.0
H734 H 0.92547 0.58622 0.21803 0.0
H735 H 0.93147 0.53928 0.23349 0.0
H736 H 0.89376 0.50895 0.22797 0.0
H737 H 0.84532 0.57332 0.19144 0.0
H738 H 0.89655 0.6174 0.34695 0.0
H739 H 0.93175 0.65078 0.34542 0.0
O740 O 0.91509 0.61899 0.16101 0.0
C741 C 0.87348 0.66998 0.14259 0.0
C742 C 0.92954 0.65596 0.27815 0.0
C743 C 0.90244 0.62613 0.31736 0.0
N744 N 0.8978 0.62956 0.24221 0.0
C745 C 0.91699 0.64808 0.24113 0.0
C746 C 0.89034 0.61872 0.2797 0.0
C747 C 0.9222 0.64485 0.31648 0.0
C748 C 0.81711 0.6059 0.0829 0.0
N749 N 0.83312 0.62651 0.07378 0.0
C750 C 0.79011 0.60821 0.07838 0.0
C751 C 0.77955 0.6318 0.06436 0.0
C752 C 0.79602 0.6527 0.05502 0.0
C753 C 0.82291 0.6497 0.06001 0.0
C754 C 0.86941 0.63672 0.95203 0.0
C755 C 0.89539 0.6563 0.02187 0.0
C756 C 0.86447 0.62699 0.99239 0.0
N757 N 0.8773 0.6369 0.02668 0.0
C758 C 0.90083 0.66651 0.98199 0.0
C759 C 0.88771 0.65664 0.94689 0.0
C760 C 0.92349 0.61889 0.12311 0.0
C761 C 0.86696 0.5393 0.20959 0.0
C762 C 0.90897 0.57314 0.21553 0.0
C763 C 0.91248 0.54659 0.22439 0.0
C764 C 0.89131 0.52959 0.22132 0.0
N765 N 0.88503 0.5825 0.20406 0.0
C766 C 0.86417 0.56597 0.20105 0.0
Co767 Co 0.13213 0.12922 0.92749 0.0
Co768 Co 0.12419 0.12177 0.81956 0.0
O769 O 0.14064 0.11273 0.8734 0.0
C770 C 0.12375 0.07261 0.94197 0.0
O771 O 0.11308 0.07164 0.90436 0.0
C772 C 0.18086 0.12908 0.80475 0.0
O773 O 0.18209 0.13965 0.84246 0.0
O774 O 0.12923 0.15986 0.82999 0.0
O775 O 0.13102 0.16458 0.9004 0.0
H776 H 0.06272 0.1712 0.72533 0.0
H777 H 0.17795 0.09405 0.92193 0.0
O778 O 0.13279 0.09414 0.95614 0.0
H779 H 0.21308 0.17985 0.96535 0.0
H780 H 0.14029 0.14212 0.08445 0.0
H781 H 0.09527 0.17059 0.95485 0.0
H782 H 0.16585 0.17385 0.95438 0.0
H783 H 0.15095 0.12202 0.01577 0.0
O784 O 0.15914 0.12062 0.79056 0.0
H785 H 0.08344 0.15947 0.79298 0.0
H786 H 0.13085 0.10314 0.73102 0.0
H787 H 0.08417 0.19139 0.0228 0.0
H788 H 0.22532 0.09913 0.93288 0.0
H789 H 0.10676 0.17714 0.08822 0.0
H790 H 0.24316 0.1423 0.9546 0.0
O791 O 0.09412 0.12478 0.9174 0.0
H792 H 0.1526 0.02771 0.81312 0.0
H793 H 0.07915 0.08873 0.79266 0.0
H794 H 0.07237 0.04143 0.78135 0.0
H795 H 0.10927 0.01056 0.79158 0.0
H796 H 0.15846 0.07516 0.82441 0.0
H797 H 0.11082 0.11442 0.66262 0.0
H798 H 0.07641 0.1486 0.65953 0.0
O799 O 0.08892 0.12332 0.84705 0.0
C800 C 0.13059 0.17399 0.86311 0.0
C801 C 0.07763 0.15621 0.72629 0.0
C802 C 0.10465 0.12437 0.69109 0.0
N803 N 0.10816 0.13049 0.76597 0.0
C804 C 0.08937 0.14944 0.76451 0.0
C805 C 0.11596 0.1181 0.72988 0.0
C806 C 0.08534 0.14354 0.68937 0.0
C807 C 0.18556 0.11282 0.93183 0.0
N808 N 0.16916 0.13359 0.93769 0.0
C809 C 0.2124 0.11561 0.93779 0.0
C810 C 0.2224 0.13985 0.94991 0.0
C811 C 0.20554 0.16093 0.95591 0.0
C812 C 0.17881 0.15743 0.94957 0.0
C813 C 0.13036 0.14853 0.05615 0.0
C814 C 0.10531 0.16442 0.98315 0.0
C815 C 0.13628 0.13719 0.01719 0.0
N816 N 0.1239 0.1453 0.98131 0.0
C817 C 0.09888 0.17621 0.02155 0.0
C818 C 0.11154 0.16819 0.05825 0.0
C819 C 0.07979 0.12373 0.88456 0.0
C820 C 0.13639 0.04097 0.80843 0.0
C821 C 0.09529 0.07542 0.79724 0.0
C822 C 0.09134 0.04866 0.7907 0.0
C823 C 0.11206 0.03136 0.79642 0.0
N824 N 0.11921 0.08469 0.80901 0.0
C825 C 0.13963 0.06786 0.81459 0.0
Co826 Co 0.62484 0.38701 0.67523 0.0
Co827 Co 0.63217 0.38266 0.56685 0.0
O828 O 0.64079 0.39757 0.62207 0.0
C829 C 0.68108 0.37895 0.68812 0.0
O830 O 0.68182 0.36933 0.64972 0.0
C831 C 0.62091 0.439 0.56057 0.0
O832 O 0.60983 0.43642 0.5976 0.0
O833 O 0.59405 0.38496 0.57791 0.0
O834 O 0.58977 0.38607 0.64838 0.0
H835 H 0.58635 0.32197 0.46633 0.0
H836 H 0.65884 0.43389 0.67349 0.0
O837 O 0.65973 0.38741 0.70342 0.0
H838 H 0.57297 0.46583 0.72085 0.0
H839 H 0.61255 0.38956 0.83276 0.0
H840 H 0.58468 0.34814 0.69951 0.0
H841 H 0.57986 0.41896 0.70554 0.0
H842 H 0.63198 0.40305 0.76501 0.0
O843 O 0.63103 0.41912 0.54239 0.0
H844 H 0.5972 0.34051 0.5361 0.0
H845 H 0.64936 0.39448 0.47922 0.0
H846 H 0.56455 0.33423 0.76647 0.0
H847 H 0.65287 0.48089 0.68881 0.0
H848 H 0.57849 0.35499 0.83373 0.0
H849 H 0.60965 0.49714 0.71252 0.0
O850 O 0.62999 0.34949 0.66152 0.0
H851 H 0.72402 0.41673 0.56257 0.0
H852 H 0.66735 0.3406 0.53495 0.0
H853 H 0.71468 0.33694 0.52248 0.0
H854 H 0.74335 0.37519 0.53632 0.0
H855 H 0.67662 0.41947 0.57488 0.0
H856 H 0.6389 0.3767 0.40877 0.0
H857 H 0.60727 0.34011 0.40205 0.0
O858 O 0.63283 0.34611 0.59085 0.0
C859 C 0.5802 0.38553 0.61125 0.0
C860 C 0.60023 0.33785 0.46887 0.0
C861 C 0.6297 0.3686 0.43655 0.0
N862 N 0.62406 0.36838 0.51171 0.0
C863 C 0.60651 0.34837 0.50829 0.0
C864 C 0.63551 0.37861 0.47649 0.0
C865 C 0.61196 0.34806 0.43281 0.0
C866 C 0.64007 0.44078 0.68426 0.0
N867 N 0.61978 0.4237 0.68885 0.0
C868 C 0.63677 0.46742 0.69271 0.0
C869 C 0.6125 0.47653 0.70594 0.0
C870 C 0.5919 0.45898 0.71058 0.0
C871 C 0.59591 0.43248 0.7018 0.0
C872 C 0.60626 0.38041 0.80365 0.0
C873 C 0.5907 0.3574 0.72862 0.0
C874 C 0.61722 0.38794 0.76522 0.0
N875 N 0.60927 0.37657 0.72833 0.0
C876 C 0.5793 0.34938 0.76645 0.0
C877 C 0.58715 0.36102 0.80417 0.0
C878 C 0.63222 0.33602 0.62781 0.0
C879 C 0.71172 0.39995 0.5563 0.0
C880 C 0.67971 0.35732 0.54107 0.0
C881 C 0.70648 0.35515 0.53389 0.0
C882 C 0.72256 0.37663 0.54164 0.0
N883 N 0.66923 0.38027 0.55544 0.0
C884 C 0.68485 0.40143 0.56303 0.0
Co885 Co 0.37585 0.87553 0.42532 0.0
Co886 Co 0.37559 0.88136 0.31649 0.0
O887 O 0.36304 0.89133 0.37272 0.0
C888 C 0.38345 0.93263 0.4387 0.0
O889 O 0.39161 0.93424 0.39955 0.0
C890 C 0.31802 0.8755 0.30851 0.0
O891 O 0.31736 0.8657 0.34676 0.0
O892 O 0.37008 0.84354 0.3288 0.0
O893 O 0.37584 0.83995 0.3988 0.0
H894 H 0.42877 0.82857 0.21404 0.0
H895 H 0.32899 0.90943 0.4271 0.0
O896 O 0.37615 0.9107 0.45371 0.0
H897 H 0.29945 0.82349 0.4792 0.0
H898 H 0.3791 0.86366 0.58293 0.0
H899 H 0.4154 0.83527 0.4463 0.0
H900 H 0.3454 0.83046 0.45945 0.0
H901 H 0.36315 0.88293 0.51643 0.0
O902 O 0.33944 0.88335 0.29275 0.0
H903 H 0.41287 0.84173 0.28436 0.0
H904 H 0.36444 0.89976 0.22896 0.0
H905 H 0.43176 0.81531 0.51202 0.0
H906 H 0.28288 0.9034 0.44692 0.0
H907 H 0.41358 0.82951 0.58097 0.0
H908 H 0.26783 0.86015 0.47305 0.0
O909 O 0.41298 0.88082 0.40839 0.0
H910 H 0.34958 0.97614 0.31254 0.0
H911 H 0.41962 0.91283 0.28146 0.0
H912 H 0.42692 0.9598 0.26797 0.0
H913 H 0.39173 0.99181 0.2835 0.0
H914 H 0.3432 0.92898 0.32591 0.0
H915 H 0.37966 0.88709 0.15801 0.0
H916 H 0.41214 0.85132 0.15024 0.0
O917 O 0.41206 0.87896 0.33773 0.0
C918 C 0.3723 0.82993 0.36232 0.0
C919 C 0.41468 0.84424 0.21702 0.0
C920 C 0.3871 0.87707 0.18558 0.0
N921 N 0.38791 0.87163 0.26079 0.0
C922 C 0.40566 0.85183 0.25676 0.0
C923 C 0.37852 0.88413 0.22583 0.0
C924 C 0.40532 0.857 0.18124 0.0
C925 C 0.32263 0.89063 0.43881 0.0
N926 N 0.33988 0.87035 0.4422 0.0
C927 C 0.29648 0.8873 0.44983 0.0
C928 C 0.28804 0.86301 0.46442 0.0
C929 C 0.30576 0.84243 0.46784 0.0
C930 C 0.33175 0.84647 0.45648 0.0
C931 C 0.38714 0.85728 0.55308 0.0
C932 C 0.40729 0.84144 0.47617 0.0
C933 C 0.37823 0.86816 0.51533 0.0
N934 N 0.38822 0.8601 0.47751 0.0
C935 C 0.41667 0.83012 0.51328 0.0
C936 C 0.40648 0.83811 0.55196 0.0
C937 C 0.42434 0.8801 0.37264 0.0
C938 C 0.36503 0.96237 0.30553 0.0
C939 C 0.40424 0.92664 0.28843 0.0
C940 C 0.40846 0.9532 0.28061 0.0
C941 C 0.38871 0.97115 0.2893 0.0
N942 N 0.38096 0.91817 0.30434 0.0
C943 C 0.36149 0.93564 0.31286 0.0
H944 H 0.13016 0.79402 0.07289 0.0
H945 H 0.13313 0.804 0.20816 0.0
H946 H 0.13444 0.75659 0.21742 0.0
H947 H 0.13393 0.71213 0.18723 0.0
H948 H 0.12973 0.70269 0.05188 0.0
H949 H 0.12983 0.74993 0.04287 0.0
C950 C 0.13118 0.78592 0.10446 0.0
C951 C 0.13155 0.80271 0.13971 0.0
C952 C 0.13173 0.75861 0.10967 0.0
C953 C 0.13279 0.79166 0.18035 0.0
C954 C 0.13355 0.76449 0.18573 0.0
C955 C 0.13319 0.72037 0.15573 0.0
C956 C 0.13197 0.70367 0.12036 0.0
C957 C 0.13293 0.74775 0.15062 0.0
C958 C 0.1308 0.71487 0.07981 0.0
C959 C 0.13081 0.74198 0.07452 0.0
H960 H 0.4595 0.88401 0.43803 0.0
H961 H 0.45464 0.87648 0.30232 0.0
H962 H 0.50177 0.87612 0.29741 0.0
H963 H 0.54434 0.87759 0.33062 0.0
H964 H 0.55066 0.88559 0.46589 0.0
H965 H 0.50307 0.88605 0.47171 0.0
C966 C 0.46874 0.88234 0.40739 0.0
C967 C 0.4533 0.8803 0.37068 0.0
C968 C 0.49618 0.88219 0.40454 0.0
C969 C 0.46578 0.87814 0.33125 0.0
C970 C 0.49285 0.8779 0.32828 0.0
C971 C 0.53547 0.87952 0.36151 0.0
C972 C 0.55122 0.88161 0.39772 0.0
C973 C 0.50822 0.87988 0.36463 0.0
C974 C 0.53911 0.884 0.43738 0.0
C975 C 0.51186 0.88426 0.44076 0.0
H976 H 0.3707 0.29135 0.69221 0.0
H977 H 0.37531 0.3008 0.55694 0.0
H978 H 0.37444 0.25355 0.54767 0.0
H979 H 0.3731 0.20948 0.57743 0.0
H980 H 0.3693 0.19949 0.7126 0.0
H981 H 0.36907 0.24692 0.72212 0.0
C982 C 0.37142 0.28312 0.66068 0.0
C983 C 0.37299 0.29981 0.62541 0.0
C984 C 0.37109 0.25575 0.6554 0.0
C985 C 0.37402 0.28862 0.5848 0.0
C986 C 0.37355 0.26151 0.57936 0.0
C987 C 0.37212 0.21758 0.60904 0.0
C988 C 0.3712 0.20077 0.64419 0.0
C989 C 0.37218 0.24488 0.6144 0.0
C990 C 0.37003 0.21183 0.68487 0.0
C991 C 0.36991 0.23901 0.6904 0.0
H992 H 0.04197 0.12577 0.82382 0.0
H993 H 0.05255 0.12085 0.95879 0.0
H994 H 0.00542 0.12109 0.96882 0.0
H995 H 0.96099 0.12336 0.93954 0.0
H996 H 0.95081 0.12922 0.80454 0.0
H997 H 0.99778 0.12789 0.79464 0.0
C998 C 0.03405 0.12465 0.85547 0.0
C999 C 0.05098 0.12328 0.89041 0.0
C1000 C 0.00684 0.12498 0.86117 0.0
C1001 C 0.04014 0.12194 0.93117 0.0
C1002 C 0.01311 0.12208 0.93702 0.0
C1003 C 0.96899 0.12424 0.90792 0.0
C1004 C 0.95214 0.12628 0.87293 0.0
C1005 C 0.99624 0.12369 0.90227 0.0
C1006 C 0.96308 0.12755 0.83221 0.0
C1007 C 0.99006 0.12683 0.82641 0.0
H1008 H 0.13128 0.29399 0.81292 0.0
H1009 H 0.12477 0.30197 0.94828 0.0
H1010 H 0.12619 0.25467 0.95611 0.0
H1011 H 0.12851 0.21095 0.92509 0.0
H1012 H 0.13385 0.20232 0.78978 0.0
H1013 H 0.1337 0.24985 0.78169 0.0
C1014 C 0.13027 0.28542 0.84416 0.0
C1015 C 0.12803 0.30173 0.87989 0.0
C1016 C 0.13085 0.258 0.8486 0.0
C1017 C 0.12659 0.29011 0.92009 0.0
C1018 C 0.12738 0.26295 0.92471 0.0
C1019 C 0.12975 0.21937 0.89376 0.0
C1020 C 0.13122 0.20292 0.85815 0.0
C1021 C 0.12941 0.24671 0.88922 0.0
C1022 C 0.1327 0.21439 0.81785 0.0
C1023 C 0.1326 0.24162 0.81314 0.0
H1024 H 0.95999 0.88303 0.05823 0.0
H1025 H 0.95226 0.87209 0.19291 0.0
H1026 H 0.99913 0.8733 0.20105 0.0
H1027 H 0.04244 0.87701 0.17097 0.0
H1028 H 0.05173 0.88638 0.03649 0.0
H1029 H 0.00434 0.8862 0.02754 0.0
C1030 C 0.96856 0.88098 0.08934 0.0
C1031 C 0.95233 0.87772 0.12483 0.0
C1032 C 0.99592 0.88136 0.09403 0.0
C1033 C 0.96396 0.87487 0.16488 0.0
C1034 C 0.99092 0.87549 0.16972 0.0
C1035 C 0.03422 0.8791 0.13961 0.0
C1036 C 0.05076 0.88177 0.10454 0.0
C1037 C 0.00707 0.87871 0.13461 0.0
C1038 C 0.03954 0.88428 0.06416 0.0
C1039 C 0.0124 0.88419 0.05898 0.0
H1040 H 0.36955 0.70883 0.31928 0.0
H1041 H 0.37164 0.70402 0.45539 0.0
H1042 H 0.37177 0.75156 0.46028 0.0
H1043 H 0.37225 0.79447 0.42647 0.0
H1044 H 0.36971 0.79987 0.29053 0.0
H1045 H 0.36882 0.75216 0.28531 0.0
C1046 C 0.36994 0.71813 0.35006 0.0
C1047 C 0.37064 0.70267 0.38686 0.0
C1048 C 0.36999 0.74564 0.35279 0.0
C1049 C 0.37109 0.71524 0.42642 0.0
C1050 C 0.37121 0.74251 0.42933 0.0
C1051 C 0.37139 0.78533 0.3956 0.0
C1052 C 0.37105 0.80091 0.35898 0.0
C1053 C 0.3708 0.75789 0.39277 0.0
C1054 C 0.36995 0.78849 0.31934 0.0
C1055 C 0.36947 0.76115 0.31628 0.0
H1056 H 0.54303 0.12069 0.5685 0.0
H1057 H 0.55062 0.13246 0.70297 0.0
H1058 H 0.50348 0.13097 0.71072 0.0
H1059 H 0.45989 0.12688 0.67972 0.0
H1060 H 0.45188 0.11651 0.54509 0.0
H1061 H 0.4992 0.11689 0.53732 0.0
C1062 C 0.53443 0.12285 0.59955 0.0
C1063 C 0.5506 0.12652 0.63506 0.0
C1064 C 0.50709 0.12226 0.60389 0.0
C1065 C 0.53889 0.12948 0.67497 0.0
C1066 C 0.51181 0.12865 0.67953 0.0
C1067 C 0.46843 0.1246 0.64864 0.0
C1068 C 0.45217 0.12163 0.61311 0.0
C1069 C 0.49571 0.1251 0.64424 0.0
C1070 C 0.46377 0.11886 0.57309 0.0
C1071 C 0.4909 0.11907 0.56856 0.0
H1072 H 0.86596 0.21483 0.81831 0.0
H1073 H 0.87809 0.21012 0.95306 0.0
H1074 H 0.87679 0.25749 0.95844 0.0
H1075 H 0.87299 0.30047 0.92539 0.0
H1076 H 0.86257 0.30592 0.79049 0.0
H1077 H 0.86239 0.25825 0.78497 0.0
C1078 C 0.86824 0.22414 0.84887 0.0
C1079 C 0.87192 0.20871 0.88516 0.0
C1080 C 0.86782 0.25164 0.85187 0.0
C1081 C 0.87504 0.22128 0.92446 0.0
C1082 C 0.87435 0.24849 0.92769 0.0
C1083 C 0.87054 0.2913 0.89476 0.0
C1084 C 0.86778 0.30686 0.85849 0.0
C1085 C 0.8708 0.26387 0.89165 0.0
C1086 C 0.86481 0.29449 0.81903 0.0
C1087 C 0.8647 0.26718 0.81578 0.0
H1088 H 0.63179 0.70951 0.42672 0.0
H1089 H 0.63137 0.70507 0.29054 0.0
H1090 H 0.63261 0.75258 0.28612 0.0
H1091 H 0.6329 0.79554 0.32036 0.0
H1092 H 0.63341 0.8004 0.45644 0.0
H1093 H 0.63316 0.75274 0.46112 0.0
C1094 C 0.63205 0.71889 0.39604 0.0
C1095 C 0.63145 0.70352 0.35909 0.0
C1096 C 0.63277 0.74641 0.39356 0.0
C1097 C 0.63183 0.7162 0.31964 0.0
C1098 C 0.63252 0.74347 0.31699 0.0
C1099 C 0.63308 0.78626 0.35112 0.0
C1100 C 0.63314 0.80173 0.38793 0.0
C1101 C 0.63288 0.75878 0.3537 0.0
C1102 C 0.63337 0.78915 0.42746 0.0
C1103 C 0.63319 0.76181 0.43023 0.0
H1104 H 0.87423 0.7056 0.07876 0.0
H1105 H 0.86981 0.69962 0.21447 0.0
H1106 H 0.86816 0.74722 0.22034 0.0
H1107 H 0.86867 0.79079 0.18702 0.0
H1108 H 0.87469 0.79609 0.05129 0.0
H1109 H 0.87486 0.74873 0.0457 0.0
C1110 C 0.87282 0.71464 0.10967 0.0
C1111 C 0.87215 0.69893 0.14603 0.0
C1112 C 0.87211 0.74204 0.11295 0.0
C1113 C 0.87044 0.71114 0.18582 0.0
C1114 C 0.86946 0.73842 0.18928 0.0
C1115 C 0.86986 0.7816 0.15621 0.0
C1116 C 0.87143 0.7972 0.11972 0.0
C1117 C 0.87037 0.7541 0.15305 0.0
C1118 C 0.87324 0.7848 0.08006 0.0
C1119 C 0.87342 0.75759 0.07671 0.0
H1120 H 0.62845 0.29841 0.56625 0.0
H1121 H 0.63964 0.30835 0.70044 0.0
H1122 H 0.64061 0.26111 0.70981 0.0
H1123 H 0.63728 0.2168 0.68069 0.0
H1124 H 0.62514 0.20651 0.54681 0.0
H1125 H 0.62559 0.25381 0.53689 0.0
C1126 C 0.63125 0.29027 0.59751 0.0
C1127 C 0.6339 0.30709 0.6325 0.0
C1128 C 0.63156 0.26289 0.60293 0.0
C1129 C 0.63741 0.29604 0.67282 0.0
C1130 C 0.63799 0.26893 0.67832 0.0
C1131 C 0.63483 0.22483 0.64927 0.0
C1132 C 0.63124 0.20792 0.61464 0.0
C1133 C 0.6349 0.25215 0.64369 0.0
C1134 C 0.62799 0.21889 0.5742 0.0
C1135 C 0.62823 0.24603 0.5684 0.0
H1136 H 0.03845 0.38864 0.93467 0.0
H1137 H 0.04665 0.37484 0.80063 0.0
H1138 H 0.99989 0.37584 0.79198 0.0
H1139 H 0.95664 0.38021 0.82133 0.0
H1140 H 0.94665 0.3926 0.95512 0.0
H1141 H 0.994 0.39253 0.96472 0.0
C1142 C 0.02999 0.38591 0.90361 0.0
C1143 C 0.04629 0.38191 0.86845 0.0
C1144 C 0.0027 0.38621 0.89861 0.0
C1145 C 0.03486 0.3782 0.82842 0.0
C1146 C 0.00797 0.3787 0.82327 0.0
C1147 C 0.96469 0.38299 0.85268 0.0
C1148 C 0.94804 0.38648 0.88736 0.0
C1149 C 0.99175 0.38268 0.85804 0.0
C1150 C 0.95899 0.38987 0.92776 0.0
C1151 C 0.98609 0.38983 0.93331 0.0
H1152 H 0.54403 0.61994 0.43369 0.0
H1153 H 0.5467 0.628 0.29791 0.0
H1154 H 0.49953 0.62829 0.29485 0.0
H1155 H 0.45775 0.62665 0.32962 0.0
H1156 H 0.45333 0.61821 0.465 0.0
H1157 H 0.50104 0.61774 0.46908 0.0
C1158 C 0.53429 0.62171 0.40345 0.0
C1159 C 0.54908 0.62392 0.36614 0.0
C1160 C 0.50687 0.62183 0.4017 0.0
C1161 C 0.53603 0.62621 0.32722 0.0
C1162 C 0.50896 0.62641 0.32533 0.0
C1163 C 0.46703 0.6246 0.36019 0.0
C1164 C 0.45185 0.6224 0.39693 0.0
C1165 C 0.49424 0.62427 0.36228 0.0
C1166 C 0.46449 0.61988 0.43613 0.0
C1167 C 0.49178 0.61963 0.4385 0.0
H1168 H 0.54496 0.38017 0.67398 0.0
H1169 H 0.55068 0.39065 0.53915 0.0
H1170 H 0.50307 0.39028 0.53352 0.0
H1171 H 0.4597 0.38669 0.56735 0.0
H1172 H 0.45573 0.37475 0.70229 0.0
H1173 H 0.50274 0.37608 0.70705 0.0
C1174 C 0.53593 0.38246 0.64325 0.0
C1175 C 0.55145 0.38551 0.60711 0.0
C1176 C 0.50875 0.382 0.64018 0.0
C1177 C 0.53923 0.38826 0.56758 0.0
C1178 C 0.51199 0.38806 0.56431 0.0
C1179 C 0.46912 0.38446 0.59778 0.0
C1180 C 0.45397 0.38087 0.63436 0.0
C1181 C 0.49652 0.38491 0.60047 0.0
C1182 C 0.46664 0.37778 0.6735 0.0
C1183 C 0.49366 0.37846 0.67639 0.0
H1184 H 0.04227 0.61607 0.0685 0.0
H1185 H 0.05099 0.63226 0.20179 0.0
H1186 H 0.00427 0.63101 0.21094 0.0
H1187 H 0.96091 0.62576 0.18221 0.0
H1188 H 0.95041 0.61128 0.04905 0.0
H1189 H 0.99772 0.61144 0.03903 0.0
C1190 C 0.03394 0.61928 0.09951 0.0
C1191 C 0.05037 0.62399 0.13433 0.0
C1192 C 0.00667 0.61887 0.10478 0.0
C1193 C 0.03909 0.62833 0.17428 0.0
C1194 C 0.01224 0.62768 0.17971 0.0
C1195 C 0.96884 0.62253 0.15092 0.0
C1196 C 0.95207 0.61843 0.11653 0.0
C1197 C 0.99588 0.62297 0.14529 0.0
C1198 C 0.96286 0.61449 0.07619 0.0
C1199 C 0.98993 0.61458 0.0704 0.0
H1200 H 0.11863 0.55635 0.99195 0.0
H1201 H 0.11775 0.5173 0.11258 0.0
H1202 H 0.11731 0.47471 0.07706 0.0
H1203 H 0.11697 0.4486 0.01174 0.0
H1204 H 0.11535 0.48774 0.8912 0.0
H1205 H 0.11696 0.53028 0.9267 0.0
C1206 C 0.11846 0.53851 0.0105 0.0
C1207 C 0.11839 0.53999 0.05489 0.0
C1208 C 0.1177 0.51413 0.98987 0.0
C1209 C 0.11778 0.5167 0.07841 0.0
C1210 C 0.11757 0.49235 0.05811 0.0
C1211 C 0.11705 0.46644 0.99322 0.0
C1212 C 0.11617 0.465 0.94884 0.0
C1213 C 0.11751 0.49083 0.01386 0.0
C1214 C 0.11595 0.4883 0.92535 0.0
C1215 C 0.11693 0.51263 0.94564 0.0
H1216 H 0.73257 0.86979 0.33205 0.0
H1217 H 0.67997 0.87053 0.22579 0.0
H1218 H 0.71689 0.86957 0.17719 0.0
H1219 H 0.76446 0.86849 0.16461 0.0
H1220 H 0.81669 0.86985 0.27144 0.0
H1221 H 0.7798 0.87002 0.31962 0.0
C1222 C 0.72919 0.86969 0.29827 0.0
C1223 C 0.70353 0.87013 0.28269 0.0
C1224 C 0.75053 0.86954 0.27039 0.0
C1225 C 0.69952 0.87027 0.23874 0.0
C1226 C 0.72064 0.86966 0.21084 0.0
C1227 C 0.76772 0.86879 0.19842 0.0
C1228 C 0.79336 0.86915 0.21423 0.0
C1229 C 0.74628 0.86928 0.22626 0.0
C1230 C 0.79721 0.86974 0.25822 0.0
C1231 C 0.77609 0.86976 0.28594 0.0
H1232 H 0.38232 0.44846 0.49914 0.0
H1233 H 0.38119 0.48599 0.62114 0.0
H1234 H 0.37915 0.52899 0.58722 0.0
H1235 H 0.3782 0.55594 0.52274 0.0
H1236 H 0.38246 0.51832 0.40098 0.0
H1237 H 0.38268 0.47533 0.43491 0.0
C1238 C 0.38152 0.46605 0.51831 0.0
C1239 C 0.38177 0.46404 0.56261 0.0
C1240 C 0.38092 0.49068 0.49861 0.0
C1241 C 0.38109 0.48702 0.58701 0.0
C1242 C 0.37986 0.5116 0.56762 0.0
C1243 C 0.37903 0.5383 0.50367 0.0
C1244 C 0.38015 0.54028 0.4594 0.0
C1245 C 0.37981 0.51367 0.52344 0.0
C1246 C 0.38161 0.5173 0.4351 0.0
C1247 C 0.38172 0.49273 0.45447 0.0
H1248 H 0.69744 0.14131 0.76582 0.0
H1249 H 0.73625 0.13916 0.64512 0.0
H1250 H 0.77861 0.13776 0.68052 0.0
H1251 H 0.80469 0.1373 0.74573 0.0
H1252 H 0.76602 0.14173 0.86637 0.0
H1253 H 0.72359 0.14206 0.83103 0.0
C1254 C 0.71516 0.14047 0.74723 0.0
C1255 C 0.71363 0.14024 0.70281 0.0
C1256 C 0.7395 0.14008 0.76781 0.0
C1257 C 0.73683 0.13944 0.67928 0.0
C1258 C 0.76108 0.13857 0.69953 0.0
C1259 C 0.78698 0.13822 0.76434 0.0
C1260 C 0.78856 0.13934 0.80871 0.0
C1261 C 0.76266 0.13888 0.74376 0.0
C1262 C 0.7654 0.14089 0.83223 0.0
C1263 C 0.74111 0.14104 0.81202 0.0
H1264 H 0.87453 0.44903 0.01266 0.0
H1265 H 0.87573 0.48746 0.89161 0.0
H1266 H 0.87527 0.53026 0.92629 0.0
H1267 H 0.8759 0.55679 0.99114 0.0
H1268 H 0.87857 0.51832 0.11212 0.0
H1269 H 0.87611 0.47556 0.07752 0.0
C1270 C 0.8745 0.46681 0.99397 0.0
C1271 C 0.87505 0.46517 0.94973 0.0
C1272 C 0.87503 0.49132 0.01413 0.0
C1273 C 0.87539 0.48829 0.92577 0.0
C1274 C 0.87509 0.51274 0.94555 0.0
C1275 C 0.87578 0.53902 0.00986 0.0
C1276 C 0.87733 0.54063 0.05404 0.0
C1277 C 0.87512 0.5145 0.98971 0.0
C1278 C 0.8775 0.51751 0.078 0.0
C1279 C 0.87604 0.49308 0.05826 0.0
H1280 H 0.23139 0.12757 0.83085 0.0
H1281 H 0.18354 0.12719 0.71887 0.0
H1282 H 0.22258 0.12663 0.67462 0.0
H1283 H 0.27048 0.12711 0.66765 0.0
H1284 H 0.31822 0.12445 0.77968 0.0
H1285 H 0.2792 0.12523 0.82387 0.0
C1286 C 0.22954 0.12735 0.79675 0.0
C1287 C 0.2046 0.12765 0.77818 0.0
C1288 C 0.25208 0.12648 0.77147 0.0
C1289 C 0.2025 0.12696 0.73396 0.0
C1290 C 0.22483 0.12671 0.70863 0.0
C1291 C 0.27231 0.12667 0.70174 0.0
C1292 C 0.29724 0.12592 0.72033 0.0
C1293 C 0.24973 0.1266 0.72701 0.0
C1294 C 0.29928 0.12499 0.76455 0.0
C1295 C 0.27696 0.12552 0.78986 0.0
H1296 H 0.62008 0.55777 0.50547 0.0
H1297 H 0.61857 0.52231 0.38189 0.0
H1298 H 0.62097 0.47876 0.41356 0.0
H1299 H 0.62255 0.45055 0.47669 0.0
H1300 H 0.62072 0.48614 0.60014 0.0
H1301 H 0.6207 0.52967 0.56837 0.0
C1302 C 0.62038 0.5405 0.48551 0.0
C1303 C 0.61919 0.54327 0.44143 0.0
C1304 C 0.62115 0.51548 0.50396 0.0
C1305 C 0.61933 0.5207 0.41595 0.0
C1306 C 0.62077 0.49578 0.43402 0.0
C1307 C 0.62231 0.46787 0.49653 0.0
C1308 C 0.62172 0.46516 0.54065 0.0
C1309 C 0.62157 0.4929 0.47801 0.0
C1310 C 0.62109 0.48773 0.56607 0.0
C1311 C 0.6211 0.51264 0.54794 0.0
H1312 H 0.26715 0.8774 0.33391 0.0
H1313 H 0.3158 0.87469 0.22299 0.0
H1314 H 0.2773 0.87437 0.17789 0.0
H1315 H 0.22976 0.87438 0.16959 0.0
H1316 H 0.18073 0.87992 0.27971 0.0
H1317 H 0.21926 0.87974 0.32531 0.0
C1318 C 0.26925 0.87673 0.29988 0.0
C1319 C 0.29429 0.87595 0.28189 0.0
C1320 C 0.24694 0.87709 0.27391 0.0
C1321 C 0.29676 0.8754 0.2377 0.0
C1322 C 0.27474 0.87515 0.21181 0.0
C1323 C 0.22753 0.87554 0.20358 0.0
C1324 C 0.20246 0.87697 0.22125 0.0
C1325 C 0.24974 0.87591 0.22954 0.0
C1326 C 0.19986 0.87884 0.26531 0.0
C1327 C 0.22187 0.87866 0.29143 0.0
H1328 H 0.61882 0.05721 0.49386 0.0
H1329 H 0.62317 0.02155 0.61699 0.0
H1330 H 0.6254 0.97811 0.58442 0.0
H1331 H 0.62573 0.9502 0.52082 0.0
H1332 H 0.61855 0.98593 0.39809 0.0
H1333 H 0.61792 0.02937 0.43061 0.0
C1334 C 0.62034 0.03993 0.51359 0.0
C1335 C 0.62094 0.04262 0.55781 0.0
C1336 C 0.62112 0.01502 0.49469 0.0
C1337 C 0.62259 0.02002 0.5829 0.0
C1338 C 0.62394 0.99518 0.56429 0.0
C1339 C 0.62417 0.96752 0.50121 0.0
C1340 C 0.62233 0.96486 0.45707 0.0
C1341 C 0.62319 0.99244 0.52021 0.0
C1342 C 0.61995 0.98745 0.43212 0.0
C1343 C 0.61961 0.0123 0.45069 0.0
H1344 H 0.26979 0.36817 0.67291 0.0
H1345 H 0.31827 0.36508 0.78413 0.0
H1346 H 0.27971 0.36508 0.82902 0.0
H1347 H 0.23202 0.36653 0.83696 0.0
H1348 H 0.18374 0.37158 0.72565 0.0
H1349 H 0.22222 0.37027 0.68086 0.0
C1350 C 0.27186 0.36737 0.70695 0.0
C1351 C 0.29681 0.3666 0.72509 0.0
C1352 C 0.2496 0.36782 0.73272 0.0
C1353 C 0.29924 0.36583 0.76931 0.0
C1354 C 0.2772 0.36578 0.79508 0.0
C1355 C 0.22997 0.36727 0.80292 0.0
C1356 C 0.20507 0.36916 0.78479 0.0
C1357 C 0.25226 0.36687 0.77717 0.0
C1358 C 0.2027 0.3703 0.74056 0.0
C1359 C 0.22471 0.36947 0.7148 0.0
H1360 H 0.88166 0.02179 0.91988 0.0
H1361 H 0.88709 0.07056 0.03083 0.0
H1362 H 0.88762 0.03187 0.07575 0.0
H1363 H 0.88636 0.98396 0.08393 0.0
H1364 H 0.87888 0.93527 0.97318 0.0
H1365 H 0.87929 0.97391 0.92818 0.0
C1366 C 0.88304 0.02391 0.95387 0.0
C1367 C 0.88439 0.04903 0.97187 0.0
C1368 C 0.88291 1.00152 0.97974 0.0
C1369 C 0.88591 0.05146 0.01606 0.0
C1370 C 0.88627 0.02932 0.04186 0.0
C1371 C 0.88486 0.98183 0.04996 0.0
C1372 C 0.88262 0.95674 0.03207 0.0
C1373 C 0.88474 0.00423 0.02411 0.0
C1374 C 0.88048 0.95435 0.98793 0.0
C1375 C 0.88079 0.97646 0.96205 0.0
H1376 H 0.23737 0.63313 0.16845 0.0
H1377 H 0.18677 0.63854 0.27685 0.0
H1378 H 0.22431 0.63932 0.32372 0.0
H1379 H 0.27155 0.63802 0.33451 0.0
H1380 H 0.32252 0.63075 0.22691 0.0
H1381 H 0.285 0.63111 0.17948 0.0
C1382 C 0.23464 0.63458 0.2023 0.0
C1383 C 0.20931 0.63574 0.21903 0.0
C1384 C 0.25641 0.63462 0.22939 0.0
C1385 C 0.20604 0.63741 0.26305 0.0
C1386 C 0.22751 0.63793 0.28999 0.0
C1387 C 0.27445 0.6366 0.30069 0.0
C1388 C 0.29977 0.63442 0.28434 0.0
C1389 C 0.25278 0.63646 0.27357 0.0
C1390 C 0.30319 0.63235 0.2404 0.0
C1391 C 0.28174 0.63261 0.21318 0.0
H1392 H 0.38414 0.02025 0.57977 0.0
H1393 H 0.37659 0.07 0.47055 0.0
H1394 H 0.37741 0.03165 0.42435 0.0
H1395 H 0.38056 0.9838 0.41482 0.0
H1396 H 0.3854 0.93405 0.52445 0.0
H1397 H 0.38537 0.97244 0.57046 0.0
C1398 C 0.3827 0.02268 0.54585 0.0
C1399 C 0.38046 0.04794 0.52864 0.0
C1400 C 0.38272 1.0005 0.51947 0.0
C1401 C 0.37828 0.05076 0.48464 0.0
C1402 C 0.37882 0.02884 0.45816 0.0
C1403 C 0.38167 0.98141 0.44878 0.0
C1404 C 0.38314 0.95613 0.46615 0.0
C1405 C 0.38111 0.0036 0.47519 0.0
C1406 C 0.38421 0.9533 0.51025 0.0
C1407 C 0.38424 0.97525 0.53662 0.0
H1408 H 0.77606 0.63225 0.17571 0.0
H1409 H 0.82059 0.62592 0.29077 0.0
H1410 H 0.78033 0.62684 0.33219 0.0
H1411 H 0.73234 0.62978 0.33546 0.0
H1412 H 0.68825 0.63361 0.21955 0.0
H1413 H 0.72849 0.63338 0.17871 0.0
C1414 C 0.77695 0.63113 0.20987 0.0
C1415 C 0.80118 0.62923 0.23022 0.0
C1416 C 0.75382 0.63125 0.2333 0.0
C1417 C 0.80209 0.62738 0.27443 0.0
C1418 C 0.77911 0.62798 0.2981 0.0
C1419 C 0.73162 0.63065 0.30128 0.0
C1420 C 0.70744 0.63185 0.28053 0.0
C1421 C 0.75486 0.63 0.27786 0.0
C1422 C 0.70668 0.6326 0.23623 0.0
C1423 C 0.72965 0.63252 0.21283 0.0
H1424 H 0.12349 0.98328 0.07971 0.0
H1425 H 0.12602 0.93482 0.96821 0.0
H1426 H 0.12589 0.97383 0.92359 0.0
H1427 H 0.12437 0.02183 0.91618 0.0
H1428 H 0.125 0.07029 0.02776 0.0
H1429 H 0.12464 0.03127 0.07236 0.0
C1430 C 0.12401 0.9813 0.04564 0.0
C1431 C 0.12455 0.95623 0.02727 0.0
C1432 C 0.12449 0.00383 0.02018 0.0
C1433 C 0.12562 0.95392 0.98311 0.0
C1434 C 0.12547 0.97622 0.95756 0.0
C1435 C 0.12443 0.02381 0.95026 0.0
C1436 C 0.12451 0.04888 0.96866 0.0
C1437 C 0.12479 1.00128 0.97573 0.0
C1438 C 0.12497 0.05118 0.01285 0.0
C1439 C 0.1247 0.02889 0.03838 0.0
H1440 H 0.73129 0.3788 0.66133 0.0
H1441 H 0.68393 0.38 0.77378 0.0
H1442 H 0.72306 0.37931 0.81769 0.0
H1443 H 0.77071 0.37791 0.82418 0.0
H1444 H 0.81823 0.37933 0.71196 0.0
H1445 H 0.77908 0.37951 0.66789 0.0
C1446 C 0.72959 0.37888 0.69545 0.0
C1447 C 0.70483 0.37927 0.71432 0.0
C1448 C 0.75217 0.37895 0.72051 0.0
C1449 C 0.70283 0.37974 0.75853 0.0
C1450 C 0.72517 0.37928 0.78367 0.0
C1451 C 0.77246 0.3782 0.79007 0.0
C1452 C 0.79724 0.37839 0.77129 0.0
C1453 C 0.74992 0.37879 0.765 0.0
C1454 C 0.7993 0.37919 0.7271 0.0
C1455 C 0.77696 0.37923 0.7019 0.0
loop_
_geom_bond_atom_site_label_1
_geom_bond_atom_site_label_2
_geom_bond_distance
_geom_bond_site_symmetry_2
_ccdc_geom_bond_type
Co0 O2 2.143 . S
Co0 O8 2.074 . S
Co0 O11 2.093 . S
Co0 O24 2.097 . S
Co0 N41 2.151 . S
Co0 N49 2.214 . S
Co1 O2 2.160 . S
Co1 O7 2.058 . S
Co1 O17 2.057 . S
Co1 O32 2.037 . S
Co1 N36 2.145 . S
Co1 N57 2.257 . S
O2 Co0 2.143 . S
O2 Co1 2.160 . S
C3 O4 1.278 . S
C3 O11 1.224 . S
O4 C3 1.278 . S
C5 O6 1.245 . S
C5 O17 1.232 . S
O6 C5 1.245 . S
O7 Co1 2.058 . S
O7 C33 1.269 . S
O8 Co0 2.074 . S
O8 C33 1.257 . S
H9 C34 0.930 . S
H10 C40 0.930 . S
O11 Co0 2.093 . S
O11 C3 1.224 . S
H12 C44 0.929 . S
H13 C46 0.930 . S
H14 C47 0.930 . S
H15 C45 0.929 . S
H16 C48 0.928 . S
O17 Co1 2.057 . S
O17 C5 1.232 . S
H18 C37 0.929 . S
H19 C38 0.929 . S
H20 C50 0.931 . S
H21 C42 0.929 . S
H22 C51 0.930 . S
H23 C43 0.931 . S
O24 Co0 2.097 . S
O24 C52 1.214 . S
H25 C53 0.929 . S
H26 C54 0.929 . S
H27 C55 0.930 . S
H28 C56 0.929 . S
H29 C58 0.930 . S
H30 C35 0.930 . S
H31 C39 0.930 . S
O32 Co1 2.037 . S
O32 C52 1.234 . S
C33 O7 1.269 . S
C33 O8 1.257 . S
C34 H9 0.930 . S
C34 C37 1.388 . S
C34 C39 1.418 . S
C35 H30 0.930 . S
C35 C38 1.404 . S
C35 C39 1.353 . S
N36 Co1 2.145 . S
N36 C37 1.397 . S
N36 C38 1.334 . S
C37 H18 0.929 . S
C37 C34 1.388 . S
C37 N36 1.397 . S
C38 H19 0.929 . S
C38 C35 1.404 . S
C38 N36 1.334 . S
C39 H31 0.930 . S
C39 C34 1.418 . S
C39 C35 1.353 . S
C40 H10 0.930 . S
C40 N41 1.330 . S
C40 C42 1.446 1_554 S
N41 Co0 2.151 . S
N41 C40 1.330 . S
N41 C45 1.418 . S
C42 H21 0.929 . S
C42 C40 1.446 1_556 S
C42 C43 1.332 . S
C43 H23 0.931 . S
C43 C42 1.332 . S
C43 C44 1.267 . S
C44 H12 0.929 . S
C44 C43 1.267 . S
C44 C45 1.251 1_556 S
C45 H15 0.929 . S
C45 N41 1.418 . S
C45 C44 1.251 1_554 S
C46 H13 0.930 . S
C46 C48 1.406 . S
C46 C51 1.261 . S
C47 H14 0.930 . S
C47 N49 1.325 . S
C47 C50 1.357 1_554 S
C48 H16 0.928 . S
C48 C46 1.406 . S
C48 N49 1.261 1_556 S
N49 Co0 2.214 . S
N49 C47 1.325 . S
N49 C48 1.261 1_554 S
C50 H20 0.931 . S
C50 C47 1.357 1_556 S
C50 C51 1.312 . S
C51 H22 0.930 . S
C51 C46 1.261 . S
C51 C50 1.312 . S
C52 O24 1.214 . S
C52 O32 1.234 . S
C53 H25 0.929 . S
C53 C56 1.391 . S
C53 C58 1.391 . S
C54 H26 0.929 . S
C54 C55 1.390 . S
C54 N57 1.391 . S
C55 H27 0.930 . S
C55 C54 1.390 . S
C55 C56 1.392 . S
C56 H28 0.929 . S
C56 C53 1.391 . S
C56 C55 1.392 . S
N57 Co1 2.257 . S
N57 C54 1.391 . S
N57 C58 1.388 . S
C58 H29 0.930 . S
C58 C53 1.391 . S
C58 N57 1.388 . S
Co59 O61 2.143 . S
Co59 O67 2.074 . S
Co59 O70 2.093 . S
Co59 O83 2.097 . S
Co59 N100 2.151 . S
Co59 N108 2.214 . S
Co60 O61 2.160 . S
Co60 O66 2.058 . S
Co60 O76 2.057 . S
Co60 O91 2.037 . S
Co60 N95 2.145 . S
Co60 N116 2.257 . S
O61 Co59 2.143 . S
O61 Co60 2.160 . S
C62 O63 1.278 . S
C62 O70 1.224 . S
O63 C62 1.278 . S
C64 O65 1.245 . S
C64 O76 1.232 . S
O65 C64 1.245 . S
O66 Co60 2.058 . S
O66 C92 1.269 . S
O67 Co59 2.074 . S
O67 C92 1.257 . S
H68 C93 0.930 . S
H69 C99 0.930 . S
O70 Co59 2.093 . S
O70 C62 1.224 . S
H71 C103 0.929 . S
H72 C105 0.930 . S
H73 C106 0.930 . S
H74 C104 0.929 . S
H75 C107 0.928 . S
O76 Co60 2.057 . S
O76 C64 1.232 . S
H77 C96 0.929 . S
H78 C97 0.929 . S
H79 C109 0.931 . S
H80 C101 0.929 . S
H81 C110 0.930 . S
H82 C102 0.931 . S
O83 Co59 2.097 . S
O83 C111 1.214 . S
H84 C112 0.929 . S
H85 C113 0.929 . S
H86 C114 0.930 . S
H87 C115 0.929 . S
H88 C117 0.930 . S
H89 C94 0.930 . S
H90 C98 0.930 . S
O91 Co60 2.037 . S
O91 C111 1.234 . S
C92 O66 1.269 . S
C92 O67 1.257 . S
C93 H68 0.930 . S
C93 C96 1.388 . S
C93 C98 1.418 . S
C94 H89 0.930 . S
C94 C97 1.404 . S
C94 C98 1.353 . S
N95 Co60 2.145 . S
N95 C96 1.397 . S
N95 C97 1.334 . S
C96 H77 0.929 . S
C96 C93 1.388 . S
C96 N95 1.397 . S
C97 H78 0.929 . S
C97 C94 1.404 . S
C97 N95 1.334 . S
C98 H90 0.930 . S
C98 C93 1.418 . S
C98 C94 1.353 . S
C99 H69 0.930 . S
C99 N100 1.330 . S
C99 C101 1.446 . S
N100 Co59 2.151 . S
N100 C99 1.330 . S
N100 C104 1.418 . S
C101 H80 0.929 . S
C101 C99 1.446 . S
C101 C102 1.332 . S
C102 H82 0.931 . S
C102 C101 1.332 . S
C102 C103 1.267 . S
C103 H71 0.929 . S
C103 C102 1.267 . S
C103 C104 1.251 . S
C104 H74 0.929 . S
C104 N100 1.418 . S
C104 C103 1.251 . S
C105 H72 0.930 . S
C105 C107 1.406 . S
C105 C110 1.261 . S
C106 H73 0.930 . S
C106 N108 1.325 . S
C106 C109 1.357 . S
C107 H75 0.928 . S
C107 C105 1.406 . S
C107 N108 1.261 . S
N108 Co59 2.214 . S
N108 C106 1.325 . S
N108 C107 1.261 . S
C109 H79 0.931 . S
C109 C106 1.357 . S
C109 C110 1.312 . S
C110 H81 0.930 . S
C110 C105 1.261 . S
C110 C109 1.312 . S
C111 O83 1.214 . S
C111 O91 1.234 . S
C112 H84 0.929 . S
C112 C115 1.391 . S
C112 C117 1.391 . S
C113 H85 0.929 . S
C113 C114 1.390 . S
C113 N116 1.391 . S
C114 H86 0.930 . S
C114 C113 1.390 . S
C114 C115 1.392 . S
C115 H87 0.929 . S
C115 C112 1.391 . S
C115 C114 1.392 . S
N116 Co60 2.257 . S
N116 C113 1.391 . S
N116 C117 1.388 . S
C117 H88 0.930 . S
C117 C112 1.391 . S
C117 N116 1.388 . S
Co118 O120 2.143 . S
Co118 O126 2.074 . S
Co118 O129 2.093 . S
Co118 O142 2.097 . S
Co118 N159 2.151 . S
Co118 N167 2.214 . S
Co119 O120 2.160 . S
Co119 O125 2.058 . S
Co119 O135 2.057 . S
Co119 O150 2.037 . S
Co119 N154 2.145 . S
Co119 N175 2.257 . S
O120 Co118 2.143 . S
O120 Co119 2.160 . S
C121 O122 1.278 . S
C121 O129 1.224 . S
O122 C121 1.278 . S
C123 O124 1.245 . S
C123 O135 1.232 . S
O124 C123 1.245 . S
O125 Co119 2.058 . S
O125 C151 1.269 . S
O126 Co118 2.074 . S
O126 C151 1.257 . S
H127 C152 0.930 . S
H128 C158 0.930 . S
O129 Co118 2.093 . S
O129 C121 1.224 . S
H130 C162 0.929 . S
H131 C164 0.930 . S
H132 C165 0.930 . S
H133 C163 0.929 . S
H134 C166 0.928 . S
O135 Co119 2.057 . S
O135 C123 1.232 . S
H136 C155 0.929 . S
H137 C156 0.929 . S
H138 C168 0.931 . S
H139 C160 0.929 . S
H140 C169 0.930 . S
H141 C161 0.931 . S
O142 Co118 2.097 . S
O142 C170 1.214 . S
H143 C171 0.929 . S
H144 C172 0.929 . S
H145 C173 0.930 . S
H146 C174 0.929 . S
H147 C176 0.930 . S
H148 C153 0.930 . S
H149 C157 0.930 . S
O150 Co119 2.037 . S
O150 C170 1.234 . S
C151 O125 1.269 . S
C151 O126 1.257 . S
C152 H127 0.930 . S
C152 C155 1.388 . S
C152 C157 1.418 . S
C153 H148 0.930 . S
C153 C156 1.404 . S
C153 C157 1.353 . S
N154 Co119 2.145 . S
N154 C155 1.397 . S
N154 C156 1.334 . S
C155 H136 0.929 . S
C155 C152 1.388 . S
C155 N154 1.397 . S
C156 H137 0.929 . S
C156 C153 1.404 . S
C156 N154 1.334 . S
C157 H149 0.930 . S
C157 C152 1.418 . S
C157 C153 1.353 . S
C158 H128 0.930 . S
C158 N159 1.330 . S
C158 C160 1.446 . S
N159 Co118 2.151 . S
N159 C158 1.330 . S
N159 C163 1.418 . S
C160 H139 0.929 . S
C160 C158 1.446 . S
C160 C161 1.332 . S
C161 H141 0.931 . S
C161 C160 1.332 . S
C161 C162 1.267 . S
C162 H130 0.929 . S
C162 C161 1.267 . S
C162 C163 1.251 . S
C163 H133 0.929 . S
C163 N159 1.418 . S
C163 C162 1.251 . S
C164 H131 0.930 . S
C164 C166 1.406 . S
C164 C169 1.261 . S
C165 H132 0.930 . S
C165 N167 1.325 . S
C165 C168 1.357 . S
C166 H134 0.928 . S
C166 C164 1.406 . S
C166 N167 1.261 . S
N167 Co118 2.214 . S
N167 C165 1.325 . S
N167 C166 1.261 . S
C168 H138 0.931 . S
C168 C165 1.357 . S
C168 C169 1.312 . S
C169 H140 0.930 . S
C169 C164 1.261 . S
C169 C168 1.312 . S
C170 O142 1.214 . S
C170 O150 1.234 . S
C171 H143 0.929 . S
C171 C174 1.391 . S
C171 C176 1.391 . S
C172 H144 0.929 . S
C172 C173 1.390 . S
C172 N175 1.391 . S
C173 H145 0.930 . S
C173 C172 1.390 . S
C173 C174 1.392 . S
C174 H146 0.929 . S
C174 C171 1.391 . S
C174 C173 1.392 . S
N175 Co119 2.257 . S
N175 C172 1.391 . S
N175 C176 1.388 . S
C176 H147 0.930 . S
C176 C171 1.391 . S
C176 N175 1.388 . S
Co177 O179 2.143 . S
Co177 O185 2.074 . S
Co177 O188 2.093 . S
Co177 O201 2.097 . S
Co177 N218 2.151 . S
Co177 N226 2.214 . S
Co178 O179 2.160 . S
Co178 O184 2.058 . S
Co178 O194 2.057 . S
Co178 O209 2.037 . S
Co178 N213 2.145 . S
Co178 N234 2.257 . S
O179 Co177 2.143 . S
O179 Co178 2.160 . S
C180 O181 1.278 . S
C180 O188 1.224 . S
O181 C180 1.278 . S
C182 O183 1.245 . S
C182 O194 1.232 . S
O183 C182 1.245 . S
O184 Co178 2.058 . S
O184 C210 1.269 . S
O185 Co177 2.074 . S
O185 C210 1.257 . S
H186 C211 0.930 . S
H187 C217 0.930 . S
O188 Co177 2.093 . S
O188 C180 1.224 . S
H189 C221 0.929 . S
H190 C223 0.930 . S
H191 C224 0.930 . S
H192 C222 0.929 . S
H193 C225 0.928 . S
O194 Co178 2.057 . S
O194 C182 1.232 . S
H195 C214 0.929 . S
H196 C215 0.929 . S
H197 C227 0.931 . S
H198 C219 0.929 . S
H199 C228 0.930 . S
H200 C220 0.931 . S
O201 Co177 2.097 . S
O201 C229 1.214 . S
H202 C230 0.929 . S
H203 C231 0.929 . S
H204 C232 0.930 . S
H205 C233 0.929 . S
H206 C235 0.930 . S
H207 C212 0.930 . S
H208 C216 0.930 . S
O209 Co178 2.037 . S
O209 C229 1.234 . S
C210 O184 1.269 . S
C210 O185 1.257 . S
C211 H186 0.930 . S
C211 C214 1.388 1_554 S
C211 C216 1.418 . S
C212 H207 0.930 . S
C212 C215 1.404 . S
C212 C216 1.353 . S
N213 Co178 2.145 . S
N213 C214 1.397 . S
N213 C215 1.334 1_556 S
C214 H195 0.929 . S
C214 C211 1.388 1_556 S
C214 N213 1.397 . S
C215 H196 0.929 . S
C215 C212 1.404 . S
C215 N213 1.334 1_554 S
C216 H208 0.930 . S
C216 C211 1.418 . S
C216 C212 1.353 . S
C217 H187 0.930 . S
C217 N218 1.330 . S
C217 C219 1.446 . S
N218 Co177 2.151 . S
N218 C217 1.330 . S
N218 C222 1.418 . S
C219 H198 0.929 . S
C219 C217 1.446 . S
C219 C220 1.332 . S
C220 H200 0.931 . S
C220 C219 1.332 . S
C220 C221 1.267 . S
C221 H189 0.929 . S
C221 C220 1.267 . S
C221 C222 1.251 . S
C222 H192 0.929 . S
C222 N218 1.418 . S
C222 C221 1.251 . S
C223 H190 0.930 . S
C223 C225 1.406 . S
C223 C228 1.261 . S
C224 H191 0.930 . S
C224 N226 1.325 . S
C224 C227 1.357 . S
C225 H193 0.928 . S
C225 C223 1.406 . S
C225 N226 1.261 . S
N226 Co177 2.214 . S
N226 C224 1.325 . S
N226 C225 1.261 . S
C227 H197 0.931 . S
C227 C224 1.357 . S
C227 C228 1.312 . S
C228 H199 0.930 . S
C228 C223 1.261 . S
C228 C227 1.312 . S
C229 O201 1.214 . S
C229 O209 1.234 . S
C230 H202 0.929 . S
C230 C233 1.391 . S
C230 C235 1.391 . S
C231 H203 0.929 . S
C231 C232 1.390 . S
C231 N234 1.391 . S
C232 H204 0.930 . S
C232 C231 1.390 . S
C232 C233 1.392 . S
C233 H205 0.929 . S
C233 C230 1.391 . S
C233 C232 1.392 . S
N234 Co178 2.257 . S
N234 C231 1.391 . S
N234 C235 1.388 . S
C235 H206 0.930 . S
C235 C230 1.391 . S
C235 N234 1.388 . S
Co236 O238 2.143 . S
Co236 O244 2.074 . S
Co236 O247 2.093 . S
Co236 O260 2.097 . S
Co236 N277 2.151 . S
Co236 N285 2.214 . S
Co237 O238 2.160 . S
Co237 O243 2.058 . S
Co237 O253 2.057 . S
Co237 O268 2.037 . S
Co237 N272 2.145 . S
Co237 N293 2.257 . S
O238 Co236 2.143 . S
O238 Co237 2.160 . S
C239 O240 1.278 . S
C239 O247 1.224 . S
O240 C239 1.278 . S
C241 O242 1.245 . S
C241 O253 1.232 . S
O242 C241 1.245 . S
O243 Co237 2.058 . S
O243 C269 1.269 . S
O244 Co236 2.074 . S
O244 C269 1.257 . S
H245 C270 0.930 . S
H246 C276 0.930 . S
O247 Co236 2.093 . S
O247 C239 1.224 . S
H248 C280 0.929 . S
H249 C282 0.930 . S
H250 C283 0.930 . S
H251 C281 0.929 . S
H252 C284 0.928 . S
O253 Co237 2.057 . S
O253 C241 1.232 . S
H254 C273 0.929 . S
H255 C274 0.929 . S
H256 C286 0.931 . S
H257 C278 0.929 . S
H258 C287 0.930 . S
H259 C279 0.931 . S
O260 Co236 2.097 . S
O260 C288 1.214 . S
H261 C289 0.929 . S
H262 C290 0.929 . S
H263 C291 0.930 . S
H264 C292 0.929 . S
H265 C294 0.930 . S
H266 C271 0.930 . S
H267 C275 0.930 . S
O268 Co237 2.037 . S
O268 C288 1.234 . S
C269 O243 1.269 . S
C269 O244 1.257 . S
C270 H245 0.930 . S
C270 C273 1.388 . S
C270 C275 1.418 . S
C271 H266 0.930 . S
C271 C274 1.404 . S
C271 C275 1.353 . S
N272 Co237 2.145 . S
N272 C273 1.397 . S
N272 C274 1.334 . S
C273 H254 0.929 . S
C273 C270 1.388 . S
C273 N272 1.397 . S
C274 H255 0.929 . S
C274 C271 1.404 . S
C274 N272 1.334 . S
C275 H267 0.930 . S
C275 C270 1.418 . S
C275 C271 1.353 . S
C276 H246 0.930 . S
C276 N277 1.330 . S
C276 C278 1.446 1_556 S
N277 Co236 2.151 . S
N277 C276 1.330 . S
N277 C281 1.418 . S
C278 H257 0.929 . S
C278 C276 1.446 1_554 S
C278 C279 1.332 . S
C279 H259 0.931 . S
C279 C278 1.332 . S
C279 C280 1.267 . S
C280 H248 0.929 . S
C280 C279 1.267 . S
C280 C281 1.251 1_554 S
C281 H251 0.929 . S
C281 N277 1.418 . S
C281 C280 1.251 1_556 S
C282 H249 0.930 . S
C282 C284 1.406 . S
C282 C287 1.261 . S
C283 H250 0.930 . S
C283 N285 1.325 . S
C283 C286 1.357 1_556 S
C284 H252 0.928 . S
C284 C282 1.406 . S
C284 N285 1.261 1_554 S
N285 Co236 2.214 . S
N285 C283 1.325 . S
N285 C284 1.261 1_556 S
C286 H256 0.931 . S
C286 C283 1.357 1_554 S
C286 C287 1.312 . S
C287 H258 0.930 . S
C287 C282 1.261 . S
C287 C286 1.312 . S
C288 O260 1.214 . S
C288 O268 1.234 . S
C289 H261 0.929 . S
C289 C292 1.391 . S
C289 C294 1.391 . S
C290 H262 0.929 . S
C290 C291 1.390 . S
C290 N293 1.391 . S
C291 H263 0.930 . S
C291 C290 1.390 . S
C291 C292 1.392 . S
C292 H264 0.929 . S
C292 C289 1.391 . S
C292 C291 1.392 . S
N293 Co237 2.257 . S
N293 C290 1.391 . S
N293 C294 1.388 . S
C294 H265 0.930 . S
C294 C289 1.391 . S
C294 N293 1.388 . S
Co295 O297 2.143 . S
Co295 O303 2.074 . S
Co295 O306 2.093 . S
Co295 O319 2.097 . S
Co295 N336 2.151 . S
Co295 N344 2.214 . S
Co296 O297 2.160 . S
Co296 O302 2.058 . S
Co296 O312 2.057 . S
Co296 O327 2.037 . S
Co296 N331 2.145 . S
Co296 N352 2.257 . S
O297 Co295 2.143 . S
O297 Co296 2.160 . S
C298 O299 1.278 . S
C298 O306 1.224 . S
O299 C298 1.278 . S
C300 O301 1.245 . S
C300 O312 1.232 . S
O301 C300 1.245 . S
O302 Co296 2.058 . S
O302 C328 1.269 . S
O303 Co295 2.074 . S
O303 C328 1.257 . S
H304 C329 0.930 . S
H305 C335 0.930 . S
O306 Co295 2.093 . S
O306 C298 1.224 . S
H307 C339 0.929 . S
H308 C341 0.930 . S
H309 C342 0.930 . S
H310 C340 0.929 . S
H311 C343 0.928 . S
O312 Co296 2.057 . S
O312 C300 1.232 . S
H313 C332 0.929 . S
H314 C333 0.929 . S
H315 C345 0.931 . S
H316 C337 0.929 . S
H317 C346 0.930 . S
H318 C338 0.931 . S
O319 Co295 2.097 . S
O319 C347 1.214 . S
H320 C348 0.929 . S
H321 C349 0.929 . S
H322 C350 0.930 . S
H323 C351 0.929 . S
H324 C353 0.930 . S
H325 C330 0.930 . S
H326 C334 0.930 . S
O327 Co296 2.037 . S
O327 C347 1.234 . S
C328 O302 1.269 . S
C328 O303 1.257 . S
C329 H304 0.930 . S
C329 C332 1.388 . S
C329 C334 1.418 . S
C330 H325 0.930 . S
C330 C333 1.404 . S
C330 C334 1.353 . S
N331 Co296 2.145 . S
N331 C332 1.397 . S
N331 C333 1.334 . S
C332 H313 0.929 . S
C332 C329 1.388 . S
C332 N331 1.397 . S
C333 H314 0.929 . S
C333 C330 1.404 . S
C333 N331 1.334 . S
C334 H326 0.930 . S
C334 C329 1.418 . S
C334 C330 1.353 . S
C335 H305 0.930 . S
C335 N336 1.330 . S
C335 C337 1.446 1_554 S
N336 Co295 2.151 . S
N336 C335 1.330 . S
N336 C340 1.418 . S
C337 H316 0.929 . S
C337 C335 1.446 1_556 S
C337 C338 1.332 . S
C338 H318 0.931 . S
C338 C337 1.332 . S
C338 C339 1.267 . S
C339 H307 0.929 . S
C339 C338 1.267 . S
C339 C340 1.251 1_556 S
C340 H310 0.929 . S
C340 N336 1.418 . S
C340 C339 1.251 1_554 S
C341 H308 0.930 . S
C341 C343 1.406 . S
C341 C346 1.261 . S
C342 H309 0.930 . S
C342 N344 1.325 . S
C342 C345 1.357 1_554 S
C343 H311 0.928 . S
C343 C341 1.406 . S
C343 N344 1.261 1_556 S
N344 Co295 2.214 . S
N344 C342 1.325 . S
N344 C343 1.261 1_554 S
C345 H315 0.931 . S
C345 C342 1.357 1_556 S
C345 C346 1.312 . S
C346 H317 0.930 . S
C346 C341 1.261 . S
C346 C345 1.312 . S
C347 O319 1.214 . S
C347 O327 1.234 . S
C348 H320 0.929 . S
C348 C351 1.391 . S
C348 C353 1.391 . S
C349 H321 0.929 . S
C349 C350 1.390 . S
C349 N352 1.391 . S
C350 H322 0.930 . S
C350 C349 1.390 . S
C350 C351 1.392 . S
C351 H323 0.929 . S
C351 C348 1.391 . S
C351 C350 1.392 . S
N352 Co296 2.257 . S
N352 C349 1.391 . S
N352 C353 1.388 . S
C353 H324 0.930 . S
C353 C348 1.391 . S
C353 N352 1.388 . S
Co354 O356 2.143 . S
Co354 O362 2.074 . S
Co354 O365 2.093 . S
Co354 O378 2.097 . S
Co354 N395 2.151 . S
Co354 N403 2.214 . S
Co355 O356 2.160 . S
Co355 O361 2.058 . S
Co355 O371 2.057 . S
Co355 O386 2.037 . S
Co355 N390 2.145 . S
Co355 N411 2.257 . S
O356 Co354 2.143 . S
O356 Co355 2.160 . S
C357 O358 1.278 . S
C357 O365 1.224 . S
O358 C357 1.278 . S
C359 O360 1.245 . S
C359 O371 1.232 . S
O360 C359 1.245 . S
O361 Co355 2.058 . S
O361 C387 1.269 . S
O362 Co354 2.074 . S
O362 C387 1.257 . S
H363 C388 0.930 . S
H364 C394 0.930 . S
O365 Co354 2.093 . S
O365 C357 1.224 . S
H366 C398 0.929 . S
H367 C400 0.930 . S
H368 C401 0.930 . S
H369 C399 0.929 . S
H370 C402 0.928 . S
O371 Co355 2.057 . S
O371 C359 1.232 . S
H372 C391 0.929 . S
H373 C392 0.929 . S
H374 C404 0.931 . S
H375 C396 0.929 . S
H376 C405 0.930 . S
H377 C397 0.931 . S
O378 Co354 2.097 . S
O378 C406 1.214 . S
H379 C407 0.929 . S
H380 C408 0.929 . S
H381 C409 0.930 . S
H382 C410 0.929 . S
H383 C412 0.930 . S
H384 C389 0.930 . S
H385 C393 0.930 . S
O386 Co355 2.037 . S
O386 C406 1.234 . S
C387 O361 1.269 . S
C387 O362 1.257 . S
C388 H363 0.930 . S
C388 C391 1.388 . S
C388 C393 1.418 . S
C389 H384 0.930 . S
C389 C392 1.404 . S
C389 C393 1.353 . S
N390 Co355 2.145 . S
N390 C391 1.397 . S
N390 C392 1.334 . S
C391 H372 0.929 . S
C391 C388 1.388 . S
C391 N390 1.397 . S
C392 H373 0.929 . S
C392 C389 1.404 . S
C392 N390 1.334 . S
C393 H385 0.930 . S
C393 C388 1.418 . S
C393 C389 1.353 . S
C394 H364 0.930 . S
C394 N395 1.330 . S
C394 C396 1.446 . S
N395 Co354 2.151 . S
N395 C394 1.330 . S
N395 C399 1.418 . S
C396 H375 0.929 . S
C396 C394 1.446 . S
C396 C397 1.332 . S
C397 H377 0.931 . S
C397 C396 1.332 . S
C397 C398 1.267 . S
C398 H366 0.929 . S
C398 C397 1.267 . S
C398 C399 1.251 . S
C399 H369 0.929 . S
C399 N395 1.418 . S
C399 C398 1.251 . S
C400 H367 0.930 . S
C400 C402 1.406 . S
C400 C405 1.261 . S
C401 H368 0.930 . S
C401 N403 1.325 . S
C401 C404 1.357 . S
C402 H370 0.928 . S
C402 C400 1.406 . S
C402 N403 1.261 . S
N403 Co354 2.214 . S
N403 C401 1.325 . S
N403 C402 1.261 . S
C404 H374 0.931 . S
C404 C401 1.357 . S
C404 C405 1.312 . S
C405 H376 0.930 . S
C405 C400 1.261 . S
C405 C404 1.312 . S
C406 O378 1.214 . S
C406 O386 1.234 . S
C407 H379 0.929 . S
C407 C410 1.391 . S
C407 C412 1.391 . S
C408 H380 0.929 . S
C408 C409 1.390 . S
C408 N411 1.391 . S
C409 H381 0.930 . S
C409 C408 1.390 . S
C409 C410 1.392 . S
C410 H382 0.929 . S
C410 C407 1.391 . S
C410 C409 1.392 . S
N411 Co355 2.257 . S
N411 C408 1.391 . S
N411 C412 1.388 . S
C412 H383 0.930 . S
C412 C407 1.391 . S
C412 N411 1.388 . S
Co413 O415 2.143 . S
Co413 O421 2.074 . S
Co413 O424 2.093 . S
Co413 O437 2.097 . S
Co413 N454 2.151 . S
Co413 N462 2.214 . S
Co414 O415 2.160 . S
Co414 O420 2.058 . S
Co414 O430 2.057 . S
Co414 O445 2.037 . S
Co414 N449 2.145 . S
Co414 N470 2.257 . S
O415 Co413 2.143 . S
O415 Co414 2.160 . S
C416 O417 1.278 . S
C416 O424 1.224 . S
O417 C416 1.278 . S
C418 O419 1.245 . S
C418 O430 1.232 . S
O419 C418 1.245 . S
O420 Co414 2.058 . S
O420 C446 1.269 . S
O421 Co413 2.074 . S
O421 C446 1.257 . S
H422 C447 0.930 . S
H423 C453 0.930 . S
O424 Co413 2.093 . S
O424 C416 1.224 . S
H425 C457 0.929 . S
H426 C459 0.930 . S
H427 C460 0.930 . S
H428 C458 0.929 . S
H429 C461 0.928 . S
O430 Co414 2.057 . S
O430 C418 1.232 . S
H431 C450 0.929 . S
H432 C451 0.929 . S
H433 C463 0.931 . S
H434 C455 0.929 . S
H435 C464 0.930 . S
H436 C456 0.931 . S
O437 Co413 2.097 . S
O437 C465 1.214 . S
H438 C466 0.929 . S
H439 C467 0.929 . S
H440 C468 0.930 . S
H441 C469 0.929 . S
H442 C471 0.930 . S
H443 C448 0.930 . S
H444 C452 0.930 . S
O445 Co414 2.037 . S
O445 C465 1.234 . S
C446 O420 1.269 . S
C446 O421 1.257 . S
C447 H422 0.930 . S
C447 C450 1.388 . S
C447 C452 1.418 . S
C448 H443 0.930 . S
C448 C451 1.404 . S
C448 C452 1.353 . S
N449 Co414 2.145 . S
N449 C450 1.397 . S
N449 C451 1.334 . S
C450 H431 0.929 . S
C450 C447 1.388 . S
C450 N449 1.397 . S
C451 H432 0.929 . S
C451 C448 1.404 . S
C451 N449 1.334 . S
C452 H444 0.930 . S
C452 C447 1.418 . S
C452 C448 1.353 . S
C453 H423 0.930 . S
C453 N454 1.330 . S
C453 C455 1.446 . S
N454 Co413 2.151 . S
N454 C453 1.330 . S
N454 C458 1.418 . S
C455 H434 0.929 . S
C455 C453 1.446 . S
C455 C456 1.332 . S
C456 H436 0.931 . S
C456 C455 1.332 . S
C456 C457 1.267 . S
C457 H425 0.929 . S
C457 C456 1.267 . S
C457 C458 1.251 . S
C458 H428 0.929 . S
C458 N454 1.418 . S
C458 C457 1.251 . S
C459 H426 0.930 . S
C459 C461 1.406 . S
C459 C464 1.261 . S
C460 H427 0.930 . S
C460 N462 1.325 . S
C460 C463 1.357 . S
C461 H429 0.928 . S
C461 C459 1.406 . S
C461 N462 1.261 . S
N462 Co413 2.214 . S
N462 C460 1.325 . S
N462 C461 1.261 . S
C463 H433 0.931 . S
C463 C460 1.357 . S
C463 C464 1.312 . S
C464 H435 0.930 . S
C464 C459 1.261 . S
C464 C463 1.312 . S
C465 O437 1.214 . S
C465 O445 1.234 . S
C466 H438 0.929 . S
C466 C469 1.391 . S
C466 C471 1.391 . S
C467 H439 0.929 . S
C467 C468 1.390 . S
C467 N470 1.391 . S
C468 H440 0.930 . S
C468 C467 1.390 . S
C468 C469 1.392 . S
C469 H441 0.929 . S
C469 C466 1.391 . S
C469 C468 1.392 . S
N470 Co414 2.257 . S
N470 C467 1.391 . S
N470 C471 1.388 . S
C471 H442 0.930 . S
C471 C466 1.391 . S
C471 N470 1.388 . S
Co472 O474 2.143 . S
Co472 O480 2.074 . S
Co472 O483 2.093 . S
Co472 O496 2.097 . S
Co472 N513 2.151 . S
Co472 N521 2.214 . S
Co473 O474 2.160 . S
Co473 O479 2.058 . S
Co473 O489 2.057 . S
Co473 O504 2.037 . S
Co473 N508 2.145 . S
Co473 N529 2.257 . S
O474 Co472 2.143 . S
O474 Co473 2.160 . S
C475 O476 1.278 . S
C475 O483 1.224 . S
O476 C475 1.278 . S
C477 O478 1.245 . S
C477 O489 1.232 . S
O478 C477 1.245 . S
O479 Co473 2.058 . S
O479 C505 1.269 . S
O480 Co472 2.074 . S
O480 C505 1.257 . S
H481 C506 0.930 . S
H482 C512 0.930 . S
O483 Co472 2.093 . S
O483 C475 1.224 . S
H484 C516 0.929 . S
H485 C518 0.930 . S
H486 C519 0.930 . S
H487 C517 0.929 . S
H488 C520 0.928 . S
O489 Co473 2.057 . S
O489 C477 1.232 . S
H490 C509 0.929 . S
H491 C510 0.929 . S
H492 C522 0.931 . S
H493 C514 0.929 . S
H494 C523 0.930 . S
H495 C515 0.931 . S
O496 Co472 2.097 . S
O496 C524 1.214 . S
H497 C525 0.929 . S
H498 C526 0.929 . S
H499 C527 0.930 . S
H500 C528 0.929 . S
H501 C530 0.930 . S
H502 C507 0.930 . S
H503 C511 0.930 . S
O504 Co473 2.037 . S
O504 C524 1.234 . S
C505 O479 1.269 . S
C505 O480 1.257 . S
C506 H481 0.930 . S
C506 C509 1.388 . S
C506 C511 1.418 . S
C507 H502 0.930 . S
C507 C510 1.404 . S
C507 C511 1.353 . S
N508 Co473 2.145 . S
N508 C509 1.397 . S
N508 C510 1.334 . S
C509 H490 0.929 . S
C509 C506 1.388 . S
C509 N508 1.397 . S
C510 H491 0.929 . S
C510 C507 1.404 . S
C510 N508 1.334 . S
C511 H503 0.930 . S
C511 C506 1.418 . S
C511 C507 1.353 . S
C512 H482 0.930 . S
C512 N513 1.330 . S
C512 C514 1.446 1_556 S
N513 Co472 2.151 . S
N513 C512 1.330 . S
N513 C517 1.418 . S
C514 H493 0.929 . S
C514 C512 1.446 1_554 S
C514 C515 1.332 . S
C515 H495 0.931 . S
C515 C514 1.332 . S
C515 C516 1.267 . S
C516 H484 0.929 . S
C516 C515 1.267 . S
C516 C517 1.251 1_554 S
C517 H487 0.929 . S
C517 N513 1.418 . S
C517 C516 1.251 1_556 S
C518 H485 0.930 . S
C518 C520 1.406 . S
C518 C523 1.261 . S
C519 H486 0.930 . S
C519 N521 1.325 . S
C519 C522 1.357 1_556 S
C520 H488 0.928 . S
C520 C518 1.406 . S
C520 N521 1.261 1_554 S
N521 Co472 2.214 . S
N521 C519 1.325 . S
N521 C520 1.261 1_556 S
C522 H492 0.931 . S
C522 C519 1.357 1_554 S
C522 C523 1.312 . S
C523 H494 0.930 . S
C523 C518 1.261 . S
C523 C522 1.312 . S
C524 O496 1.214 . S
C524 O504 1.234 . S
C525 H497 0.929 . S
C525 C528 1.391 . S
C525 C530 1.391 . S
C526 H498 0.929 . S
C526 C527 1.390 . S
C526 N529 1.391 . S
C527 H499 0.930 . S
C527 C526 1.390 . S
C527 C528 1.392 . S
C528 H500 0.929 . S
C528 C525 1.391 . S
C528 C527 1.392 . S
N529 Co473 2.257 . S
N529 C526 1.391 . S
N529 C530 1.388 . S
C530 H501 0.930 . S
C530 C525 1.391 . S
C530 N529 1.388 . S
Co531 O533 2.143 . S
Co531 O539 2.074 . S
Co531 O542 2.093 . S
Co531 O555 2.097 . S
Co531 N572 2.151 . S
Co531 N580 2.214 . S
Co532 O533 2.160 . S
Co532 O538 2.058 . S
Co532 O548 2.057 . S
Co532 O563 2.037 . S
Co532 N567 2.145 . S
Co532 N588 2.257 . S
O533 Co531 2.143 . S
O533 Co532 2.160 . S
C534 O535 1.278 . S
C534 O542 1.224 . S
O535 C534 1.278 . S
C536 O537 1.245 . S
C536 O548 1.232 . S
O537 C536 1.245 . S
O538 Co532 2.058 . S
O538 C564 1.269 . S
O539 Co531 2.074 . S
O539 C564 1.257 . S
H540 C565 0.930 . S
H541 C571 0.930 . S
O542 Co531 2.093 . S
O542 C534 1.224 . S
H543 C575 0.929 . S
H544 C577 0.930 . S
H545 C578 0.930 . S
H546 C576 0.929 . S
H547 C579 0.928 . S
O548 Co532 2.057 . S
O548 C536 1.232 . S
H549 C568 0.929 . S
H550 C569 0.929 . S
H551 C581 0.931 . S
H552 C573 0.929 . S
H553 C582 0.930 . S
H554 C574 0.931 . S
O555 Co531 2.097 . S
O555 C583 1.214 . S
H556 C584 0.929 . S
H557 C585 0.929 . S
H558 C586 0.930 . S
H559 C587 0.929 . S
H560 C589 0.930 . S
H561 C566 0.930 . S
H562 C570 0.930 . S
O563 Co532 2.037 . S
O563 C583 1.234 . S
C564 O538 1.269 . S
C564 O539 1.257 . S
C565 H540 0.930 . S
C565 C568 1.388 . S
C565 C570 1.418 . S
C566 H561 0.930 . S
C566 C569 1.404 . S
C566 C570 1.353 . S
N567 Co532 2.145 . S
N567 C568 1.397 . S
N567 C569 1.334 . S
C568 H549 0.929 . S
C568 C565 1.388 . S
C568 N567 1.397 . S
C569 H550 0.929 . S
C569 C566 1.404 . S
C569 N567 1.334 . S
C570 H562 0.930 . S
C570 C565 1.418 . S
C570 C566 1.353 . S
C571 H541 0.930 . S
C571 N572 1.330 . S
C571 C573 1.446 . S
N572 Co531 2.151 . S
N572 C571 1.330 . S
N572 C576 1.418 . S
C573 H552 0.929 . S
C573 C571 1.446 . S
C573 C574 1.332 . S
C574 H554 0.931 . S
C574 C573 1.332 . S
C574 C575 1.267 . S
C575 H543 0.929 . S
C575 C574 1.267 . S
C575 C576 1.251 . S
C576 H546 0.929 . S
C576 N572 1.418 . S
C576 C575 1.251 . S
C577 H544 0.930 . S
C577 C579 1.406 . S
C577 C582 1.261 . S
C578 H545 0.930 . S
C578 N580 1.325 . S
C578 C581 1.357 . S
C579 H547 0.928 . S
C579 C577 1.406 . S
C579 N580 1.261 . S
N580 Co531 2.214 . S
N580 C578 1.325 . S
N580 C579 1.261 . S
C581 H551 0.931 . S
C581 C578 1.357 . S
C581 C582 1.312 . S
C582 H553 0.930 . S
C582 C577 1.261 . S
C582 C581 1.312 . S
C583 O555 1.214 . S
C583 O563 1.234 . S
C584 H556 0.929 . S
C584 C587 1.391 . S
C584 C589 1.391 . S
C585 H557 0.929 . S
C585 C586 1.390 . S
C585 N588 1.391 . S
C586 H558 0.930 . S
C586 C585 1.390 . S
C586 C587 1.392 . S
C587 H559 0.929 . S
C587 C584 1.391 . S
C587 C586 1.392 . S
N588 Co532 2.257 . S
N588 C585 1.391 . S
N588 C589 1.388 . S
C589 H560 0.930 . S
C589 C584 1.391 . S
C589 N588 1.388 . S
Co590 O592 2.143 . S
Co590 O598 2.074 . S
Co590 O601 2.093 . S
Co590 O614 2.097 . S
Co590 N631 2.151 . S
Co590 N639 2.214 . S
Co591 O592 2.160 . S
Co591 O597 2.058 . S
Co591 O607 2.057 . S
Co591 O622 2.037 . S
Co591 N626 2.145 . S
Co591 N647 2.257 . S
O592 Co590 2.143 . S
O592 Co591 2.160 . S
C593 O594 1.278 . S
C593 O601 1.224 . S
O594 C593 1.278 . S
C595 O596 1.245 . S
C595 O607 1.232 . S
O596 C595 1.245 . S
O597 Co591 2.058 . S
O597 C623 1.269 . S
O598 Co590 2.074 . S
O598 C623 1.257 . S
H599 C624 0.930 . S
H600 C630 0.930 . S
O601 Co590 2.093 . S
O601 C593 1.224 . S
H602 C634 0.929 . S
H603 C636 0.930 . S
H604 C637 0.930 . S
H605 C635 0.929 . S
H606 C638 0.928 . S
O607 Co591 2.057 . S
O607 C595 1.232 . S
H608 C627 0.929 . S
H609 C628 0.929 . S
H610 C640 0.931 . S
H611 C632 0.929 . S
H612 C641 0.930 . S
H613 C633 0.931 . S
O614 Co590 2.097 . S
O614 C642 1.214 . S
H615 C643 0.929 . S
H616 C644 0.929 . S
H617 C645 0.930 . S
H618 C646 0.929 . S
H619 C648 0.930 . S
H620 C625 0.930 . S
H621 C629 0.930 . S
O622 Co591 2.037 . S
O622 C642 1.234 . S
C623 O597 1.269 . S
C623 O598 1.257 . S
C624 H599 0.930 . S
C624 C627 1.388 . S
C624 C629 1.418 . S
C625 H620 0.930 . S
C625 C628 1.404 . S
C625 C629 1.353 . S
N626 Co591 2.145 . S
N626 C627 1.397 . S
N626 C628 1.334 . S
C627 H608 0.929 . S
C627 C624 1.388 . S
C627 N626 1.397 . S
C628 H609 0.929 . S
C628 C625 1.404 . S
C628 N626 1.334 . S
C629 H621 0.930 . S
C629 C624 1.418 . S
C629 C625 1.353 . S
C630 H600 0.930 . S
C630 N631 1.330 . S
C630 C632 1.446 . S
N631 Co590 2.151 . S
N631 C630 1.330 . S
N631 C635 1.418 . S
C632 H611 0.929 . S
C632 C630 1.446 . S
C632 C633 1.332 . S
C633 H613 0.931 . S
C633 C632 1.332 . S
C633 C634 1.267 . S
C634 H602 0.929 . S
C634 C633 1.267 . S
C634 C635 1.251 . S
C635 H605 0.929 . S
C635 N631 1.418 . S
C635 C634 1.251 . S
C636 H603 0.930 . S
C636 C638 1.406 . S
C636 C641 1.261 . S
C637 H604 0.930 . S
C637 N639 1.325 . S
C637 C640 1.357 . S
C638 H606 0.928 . S
C638 C636 1.406 . S
C638 N639 1.261 . S
N639 Co590 2.214 . S
N639 C637 1.325 . S
N639 C638 1.261 . S
C640 H610 0.931 . S
C640 C637 1.357 . S
C640 C641 1.312 . S
C641 H612 0.930 . S
C641 C636 1.261 . S
C641 C640 1.312 . S
C642 O614 1.214 . S
C642 O622 1.234 . S
C643 H615 0.929 . S
C643 C646 1.391 . S
C643 C648 1.391 . S
C644 H616 0.929 . S
C644 C645 1.390 . S
C644 N647 1.391 . S
C645 H617 0.930 . S
C645 C644 1.390 . S
C645 C646 1.392 . S
C646 H618 0.929 . S
C646 C643 1.391 . S
C646 C645 1.392 . S
N647 Co591 2.257 . S
N647 C644 1.391 . S
N647 C648 1.388 . S
C648 H619 0.930 . S
C648 C643 1.391 . S
C648 N647 1.388 . S
Co649 O651 2.143 . S
Co649 O657 2.074 . S
Co649 O660 2.093 . S
Co649 O673 2.097 . S
Co649 N690 2.151 . S
Co649 N698 2.214 . S
Co650 O651 2.160 . S
Co650 O656 2.058 . S
Co650 O666 2.057 . S
Co650 O681 2.037 . S
Co650 N685 2.145 . S
Co650 N706 2.257 . S
O651 Co649 2.143 . S
O651 Co650 2.160 . S
C652 O653 1.278 . S
C652 O660 1.224 . S
O653 C652 1.278 . S
C654 O655 1.245 . S
C654 O666 1.232 . S
O655 C654 1.245 . S
O656 Co650 2.058 . S
O656 C682 1.269 . S
O657 Co649 2.074 . S
O657 C682 1.257 . S
H658 C683 0.930 . S
H659 C689 0.930 . S
O660 Co649 2.093 . S
O660 C652 1.224 . S
H661 C693 0.929 . S
H662 C695 0.930 . S
H663 C696 0.930 . S
H664 C694 0.929 . S
H665 C697 0.928 . S
O666 Co650 2.057 . S
O666 C654 1.232 . S
H667 C686 0.929 . S
H668 C687 0.929 . S
H669 C699 0.931 . S
H670 C691 0.929 . S
H671 C700 0.930 . S
H672 C692 0.931 . S
O673 Co649 2.097 . S
O673 C701 1.214 . S
H674 C702 0.929 . S
H675 C703 0.929 . S
H676 C704 0.930 . S
H677 C705 0.929 . S
H678 C707 0.930 . S
H679 C684 0.930 . S
H680 C688 0.930 . S
O681 Co650 2.037 . S
O681 C701 1.234 . S
C682 O656 1.269 . S
C682 O657 1.257 . S
C683 H658 0.930 . S
C683 C686 1.388 1_556 S
C683 C688 1.418 . S
C684 H679 0.930 . S
C684 C687 1.404 . S
C684 C688 1.353 . S
N685 Co650 2.145 . S
N685 C686 1.397 . S
N685 C687 1.334 1_554 S
C686 H667 0.929 . S
C686 C683 1.388 1_554 S
C686 N685 1.397 . S
C687 H668 0.929 . S
C687 C684 1.404 . S
C687 N685 1.334 1_556 S
C688 H680 0.930 . S
C688 C683 1.418 . S
C688 C684 1.353 . S
C689 H659 0.930 . S
C689 N690 1.330 . S
C689 C691 1.446 . S
N690 Co649 2.151 . S
N690 C689 1.330 . S
N690 C694 1.418 . S
C691 H670 0.929 . S
C691 C689 1.446 . S
C691 C692 1.332 . S
C692 H672 0.931 . S
C692 C691 1.332 . S
C692 C693 1.267 . S
C693 H661 0.929 . S
C693 C692 1.267 . S
C693 C694 1.251 . S
C694 H664 0.929 . S
C694 N690 1.418 . S
C694 C693 1.251 . S
C695 H662 0.930 . S
C695 C697 1.406 . S
C695 C700 1.261 . S
C696 H663 0.930 . S
C696 N698 1.325 . S
C696 C699 1.357 . S
C697 H665 0.928 . S
C697 C695 1.406 . S
C697 N698 1.261 . S
N698 Co649 2.214 . S
N698 C696 1.325 . S
N698 C697 1.261 . S
C699 H669 0.931 . S
C699 C696 1.357 . S
C699 C700 1.312 . S
C700 H671 0.930 . S
C700 C695 1.261 . S
C700 C699 1.312 . S
C701 O673 1.214 . S
C701 O681 1.234 . S
C702 H674 0.929 . S
C702 C705 1.391 . S
C702 C707 1.391 . S
C703 H675 0.929 . S
C703 C704 1.390 . S
C703 N706 1.391 . S
C704 H676 0.930 . S
C704 C703 1.390 . S
C704 C705 1.392 . S
C705 H677 0.929 . S
C705 C702 1.391 . S
C705 C704 1.392 . S
N706 Co650 2.257 . S
N706 C703 1.391 . S
N706 C707 1.388 . S
C707 H678 0.930 . S
C707 C702 1.391 . S
C707 N706 1.388 . S
Co708 O710 2.143 . S
Co708 O716 2.074 . S
Co708 O719 2.093 . S
Co708 O732 2.097 . S
Co708 N749 2.151 . S
Co708 N757 2.214 . S
Co709 O710 2.160 . S
Co709 O715 2.058 . S
Co709 O725 2.057 . S
Co709 O740 2.037 . S
Co709 N744 2.145 . S
Co709 N765 2.257 . S
O710 Co708 2.143 . S
O710 Co709 2.160 . S
C711 O712 1.278 . S
C711 O719 1.224 . S
O712 C711 1.278 . S
C713 O714 1.245 . S
C713 O725 1.232 . S
O714 C713 1.245 . S
O715 Co709 2.058 . S
O715 C741 1.269 . S
O716 Co708 2.074 . S
O716 C741 1.257 . S
H717 C742 0.930 . S
H718 C748 0.930 . S
O719 Co708 2.093 . S
O719 C711 1.224 . S
H720 C752 0.929 . S
H721 C754 0.930 . S
H722 C755 0.930 . S
H723 C753 0.929 . S
H724 C756 0.928 . S
O725 Co709 2.057 . S
O725 C713 1.232 . S
H726 C745 0.929 . S
H727 C746 0.929 . S
H728 C758 0.931 . S
H729 C750 0.929 . S
H730 C759 0.930 . S
H731 C751 0.931 . S
O732 Co708 2.097 . S
O732 C760 1.214 . S
H733 C761 0.929 . S
H734 C762 0.929 . S
H735 C763 0.930 . S
H736 C764 0.929 . S
H737 C766 0.930 . S
H738 C743 0.930 . S
H739 C747 0.930 . S
O740 Co709 2.037 . S
O740 C760 1.234 . S
C741 O715 1.269 . S
C741 O716 1.257 . S
C742 H717 0.930 . S
C742 C745 1.388 . S
C742 C747 1.418 . S
C743 H738 0.930 . S
C743 C746 1.404 . S
C743 C747 1.353 . S
N744 Co709 2.145 . S
N744 C745 1.397 . S
N744 C746 1.334 . S
C745 H726 0.929 . S
C745 C742 1.388 . S
C745 N744 1.397 . S
C746 H727 0.929 . S
C746 C743 1.404 . S
C746 N744 1.334 . S
C747 H739 0.930 . S
C747 C742 1.418 . S
C747 C743 1.353 . S
C748 H718 0.930 . S
C748 N749 1.330 . S
C748 C750 1.446 1_554 S
N749 Co708 2.151 . S
N749 C748 1.330 . S
N749 C753 1.418 . S
C750 H729 0.929 . S
C750 C748 1.446 1_556 S
C750 C751 1.332 . S
C751 H731 0.931 . S
C751 C750 1.332 . S
C751 C752 1.267 . S
C752 H720 0.929 . S
C752 C751 1.267 . S
C752 C753 1.251 1_556 S
C753 H723 0.929 . S
C753 N749 1.418 . S
C753 C752 1.251 1_554 S
C754 H721 0.930 . S
C754 C756 1.406 . S
C754 C759 1.261 . S
C755 H722 0.930 . S
C755 N757 1.325 . S
C755 C758 1.357 1_554 S
C756 H724 0.928 . S
C756 C754 1.406 . S
C756 N757 1.261 1_556 S
N757 Co708 2.214 . S
N757 C755 1.325 . S
N757 C756 1.261 1_554 S
C758 H728 0.931 . S
C758 C755 1.357 1_556 S
C758 C759 1.312 . S
C759 H730 0.930 . S
C759 C754 1.261 . S
C759 C758 1.312 . S
C760 O732 1.214 . S
C760 O740 1.234 . S
C761 H733 0.929 . S
C761 C764 1.391 . S
C761 C766 1.391 . S
C762 H734 0.929 . S
C762 C763 1.390 . S
C762 N765 1.391 . S
C763 H735 0.930 . S
C763 C762 1.390 . S
C763 C764 1.392 . S
C764 H736 0.929 . S
C764 C761 1.391 . S
C764 C763 1.392 . S
N765 Co709 2.257 . S
N765 C762 1.391 . S
N765 C766 1.388 . S
C766 H737 0.930 . S
C766 C761 1.391 . S
C766 N765 1.388 . S
Co767 O769 2.143 . S
Co767 O775 2.074 . S
Co767 O778 2.093 . S
Co767 O791 2.097 . S
Co767 N808 2.151 . S
Co767 N816 2.214 . S
Co768 O769 2.160 . S
Co768 O774 2.058 . S
Co768 O784 2.057 . S
Co768 O799 2.037 . S
Co768 N803 2.145 . S
Co768 N824 2.257 . S
O769 Co767 2.143 . S
O769 Co768 2.160 . S
C770 O771 1.278 . S
C770 O778 1.224 . S
O771 C770 1.278 . S
C772 O773 1.245 . S
C772 O784 1.232 . S
O773 C772 1.245 . S
O774 Co768 2.058 . S
O774 C800 1.269 . S
O775 Co767 2.074 . S
O775 C800 1.257 . S
H776 C801 0.930 . S
H777 C807 0.930 . S
O778 Co767 2.093 . S
O778 C770 1.224 . S
H779 C811 0.929 . S
H780 C813 0.930 . S
H781 C814 0.930 . S
H782 C812 0.929 . S
H783 C815 0.928 . S
O784 Co768 2.057 . S
O784 C772 1.232 . S
H785 C804 0.929 . S
H786 C805 0.929 . S
H787 C817 0.931 . S
H788 C809 0.929 . S
H789 C818 0.930 . S
H790 C810 0.931 . S
O791 Co767 2.097 . S
O791 C819 1.214 . S
H792 C820 0.929 . S
H793 C821 0.929 . S
H794 C822 0.930 . S
H795 C823 0.929 . S
H796 C825 0.930 . S
H797 C802 0.930 . S
H798 C806 0.930 . S
O799 Co768 2.037 . S
O799 C819 1.234 . S
C800 O774 1.269 . S
C800 O775 1.257 . S
C801 H776 0.930 . S
C801 C804 1.388 . S
C801 C806 1.418 . S
C802 H797 0.930 . S
C802 C805 1.404 . S
C802 C806 1.353 . S
N803 Co768 2.145 . S
N803 C804 1.397 . S
N803 C805 1.334 . S
C804 H785 0.929 . S
C804 C801 1.388 . S
C804 N803 1.397 . S
C805 H786 0.929 . S
C805 C802 1.404 . S
C805 N803 1.334 . S
C806 H798 0.930 . S
C806 C801 1.418 . S
C806 C802 1.353 . S
C807 H777 0.930 . S
C807 N808 1.330 . S
C807 C809 1.446 1_556 S
N808 Co767 2.151 . S
N808 C807 1.330 . S
N808 C812 1.418 . S
C809 H788 0.929 . S
C809 C807 1.446 1_554 S
C809 C810 1.332 . S
C810 H790 0.931 . S
C810 C809 1.332 . S
C810 C811 1.267 . S
C811 H779 0.929 . S
C811 C810 1.267 . S
C811 C812 1.251 1_554 S
C812 H782 0.929 . S
C812 N808 1.418 . S
C812 C811 1.251 1_556 S
C813 H780 0.930 . S
C813 C815 1.406 . S
C813 C818 1.261 . S
C814 H781 0.930 . S
C814 N816 1.325 . S
C814 C817 1.357 1_556 S
C815 H783 0.928 . S
C815 C813 1.406 . S
C815 N816 1.261 1_554 S
N816 Co767 2.214 . S
N816 C814 1.325 . S
N816 C815 1.261 1_556 S
C817 H787 0.931 . S
C817 C814 1.357 1_554 S
C817 C818 1.312 . S
C818 H789 0.930 . S
C818 C813 1.261 . S
C818 C817 1.312 . S
C819 O791 1.214 . S
C819 O799 1.234 . S
C820 H792 0.929 . S
C820 C823 1.391 . S
C820 C825 1.391 . S
C821 H793 0.929 . S
C821 C822 1.390 . S
C821 N824 1.391 . S
C822 H794 0.930 . S
C822 C821 1.390 . S
C822 C823 1.392 . S
C823 H795 0.929 . S
C823 C820 1.391 . S
C823 C822 1.392 . S
N824 Co768 2.257 . S
N824 C821 1.391 . S
N824 C825 1.388 . S
C825 H796 0.930 . S
C825 C820 1.391 . S
C825 N824 1.388 . S
Co826 O828 2.143 . S
Co826 O834 2.074 . S
Co826 O837 2.093 . S
Co826 O850 2.097 . S
Co826 N867 2.151 . S
Co826 N875 2.214 . S
Co827 O828 2.160 . S
Co827 O833 2.058 . S
Co827 O843 2.057 . S
Co827 O858 2.037 . S
Co827 N862 2.145 . S
Co827 N883 2.257 . S
O828 Co826 2.143 . S
O828 Co827 2.160 . S
C829 O830 1.278 . S
C829 O837 1.224 . S
O830 C829 1.278 . S
C831 O832 1.245 . S
C831 O843 1.232 . S
O832 C831 1.245 . S
O833 Co827 2.058 . S
O833 C859 1.269 . S
O834 Co826 2.074 . S
O834 C859 1.257 . S
H835 C860 0.930 . S
H836 C866 0.930 . S
O837 Co826 2.093 . S
O837 C829 1.224 . S
H838 C870 0.929 . S
H839 C872 0.930 . S
H840 C873 0.930 . S
H841 C871 0.929 . S
H842 C874 0.928 . S
O843 Co827 2.057 . S
O843 C831 1.232 . S
H844 C863 0.929 . S
H845 C864 0.929 . S
H846 C876 0.931 . S
H847 C868 0.929 . S
H848 C877 0.930 . S
H849 C869 0.931 . S
O850 Co826 2.097 . S
O850 C878 1.214 . S
H851 C879 0.929 . S
H852 C880 0.929 . S
H853 C881 0.930 . S
H854 C882 0.929 . S
H855 C884 0.930 . S
H856 C861 0.930 . S
H857 C865 0.930 . S
O858 Co827 2.037 . S
O858 C878 1.234 . S
C859 O833 1.269 . S
C859 O834 1.257 . S
C860 H835 0.930 . S
C860 C863 1.388 . S
C860 C865 1.418 . S
C861 H856 0.930 . S
C861 C864 1.404 . S
C861 C865 1.353 . S
N862 Co827 2.145 . S
N862 C863 1.397 . S
N862 C864 1.334 . S
C863 H844 0.929 . S
C863 C860 1.388 . S
C863 N862 1.397 . S
C864 H845 0.929 . S
C864 C861 1.404 . S
C864 N862 1.334 . S
C865 H857 0.930 . S
C865 C860 1.418 . S
C865 C861 1.353 . S
C866 H836 0.930 . S
C866 N867 1.330 . S
C866 C868 1.446 . S
N867 Co826 2.151 . S
N867 C866 1.330 . S
N867 C871 1.418 . S
C868 H847 0.929 . S
C868 C866 1.446 . S
C868 C869 1.332 . S
C869 H849 0.931 . S
C869 C868 1.332 . S
C869 C870 1.267 . S
C870 H838 0.929 . S
C870 C869 1.267 . S
C870 C871 1.251 . S
C871 H841 0.929 . S
C871 N867 1.418 . S
C871 C870 1.251 . S
C872 H839 0.930 . S
C872 C874 1.406 . S
C872 C877 1.261 . S
C873 H840 0.930 . S
C873 N875 1.325 . S
C873 C876 1.357 . S
C874 H842 0.928 . S
C874 C872 1.406 . S
C874 N875 1.261 . S
N875 Co826 2.214 . S
N875 C873 1.325 . S
N875 C874 1.261 . S
C876 H846 0.931 . S
C876 C873 1.357 . S
C876 C877 1.312 . S
C877 H848 0.930 . S
C877 C872 1.261 . S
C877 C876 1.312 . S
C878 O850 1.214 . S
C878 O858 1.234 . S
C879 H851 0.929 . S
C879 C882 1.391 . S
C879 C884 1.391 . S
C880 H852 0.929 . S
C880 C881 1.390 . S
C880 N883 1.391 . S
C881 H853 0.930 . S
C881 C880 1.390 . S
C881 C882 1.392 . S
C882 H854 0.929 . S
C882 C879 1.391 . S
C882 C881 1.392 . S
N883 Co827 2.257 . S
N883 C880 1.391 . S
N883 C884 1.388 . S
C884 H855 0.930 . S
C884 C879 1.391 . S
C884 N883 1.388 . S
Co885 O887 2.143 . S
Co885 O893 2.074 . S
Co885 O896 2.093 . S
Co885 O909 2.097 . S
Co885 N926 2.151 . S
Co885 N934 2.214 . S
Co886 O887 2.160 . S
Co886 O892 2.058 . S
Co886 O902 2.057 . S
Co886 O917 2.037 . S
Co886 N921 2.145 . S
Co886 N942 2.257 . S
O887 Co885 2.143 . S
O887 Co886 2.160 . S
C888 O889 1.278 . S
C888 O896 1.224 . S
O889 C888 1.278 . S
C890 O891 1.245 . S
C890 O902 1.232 . S
O891 C890 1.245 . S
O892 Co886 2.058 . S
O892 C918 1.269 . S
O893 Co885 2.074 . S
O893 C918 1.257 . S
H894 C919 0.930 . S
H895 C925 0.930 . S
O896 Co885 2.093 . S
O896 C888 1.224 . S
H897 C929 0.929 . S
H898 C931 0.930 . S
H899 C932 0.930 . S
H900 C930 0.929 . S
H901 C933 0.928 . S
O902 Co886 2.057 . S
O902 C890 1.232 . S
H903 C922 0.929 . S
H904 C923 0.929 . S
H905 C935 0.931 . S
H906 C927 0.929 . S
H907 C936 0.930 . S
H908 C928 0.931 . S
O909 Co885 2.097 . S
O909 C937 1.214 . S
H910 C938 0.929 . S
H911 C939 0.929 . S
H912 C940 0.930 . S
H913 C941 0.929 . S
H914 C943 0.930 . S
H915 C920 0.930 . S
H916 C924 0.930 . S
O917 Co886 2.037 . S
O917 C937 1.234 . S
C918 O892 1.269 . S
C918 O893 1.257 . S
C919 H894 0.930 . S
C919 C922 1.388 . S
C919 C924 1.418 . S
C920 H915 0.930 . S
C920 C923 1.404 . S
C920 C924 1.353 . S
N921 Co886 2.145 . S
N921 C922 1.397 . S
N921 C923 1.334 . S
C922 H903 0.929 . S
C922 C919 1.388 . S
C922 N921 1.397 . S
C923 H904 0.929 . S
C923 C920 1.404 . S
C923 N921 1.334 . S
C924 H916 0.930 . S
C924 C919 1.418 . S
C924 C920 1.353 . S
C925 H895 0.930 . S
C925 N926 1.330 . S
C925 C927 1.446 . S
N926 Co885 2.151 . S
N926 C925 1.330 . S
N926 C930 1.418 . S
C927 H906 0.929 . S
C927 C925 1.446 . S
C927 C928 1.332 . S
C928 H908 0.931 . S
C928 C927 1.332 . S
C928 C929 1.267 . S
C929 H897 0.929 . S
C929 C928 1.267 . S
C929 C930 1.251 . S
C930 H900 0.929 . S
C930 N926 1.418 . S
C930 C929 1.251 . S
C931 H898 0.930 . S
C931 C933 1.406 . S
C931 C936 1.261 . S
C932 H899 0.930 . S
C932 N934 1.325 . S
C932 C935 1.357 . S
C933 H901 0.928 . S
C933 C931 1.406 . S
C933 N934 1.261 . S
N934 Co885 2.214 . S
N934 C932 1.325 . S
N934 C933 1.261 . S
C935 H905 0.931 . S
C935 C932 1.357 . S
C935 C936 1.312 . S
C936 H907 0.930 . S
C936 C931 1.261 . S
C936 C935 1.312 . S
C937 O909 1.214 . S
C937 O917 1.234 . S
C938 H910 0.929 . S
C938 C941 1.391 . S
C938 C943 1.391 . S
C939 H911 0.929 . S
C939 C940 1.390 . S
C939 N942 1.391 . S
C940 H912 0.930 . S
C940 C939 1.390 . S
C940 C941 1.392 . S
C941 H913 0.929 . S
C941 C938 1.391 . S
C941 C940 1.392 . S
N942 Co886 2.257 . S
N942 C939 1.391 . S
N942 C943 1.388 . S
C943 H914 0.930 . S
C943 C938 1.391 . S
C943 N942 1.388 . S
H944 C950 0.930 . S
H945 C953 0.930 . S
H946 C954 0.930 . S
H947 C955 0.930 . S
H948 C958 0.930 . S
H949 C959 0.930 . S
C950 H944 0.930 . S
C950 C951 1.355 . S
C950 C952 1.415 . S
C951 C950 1.355 . S
C951 C953 1.419 . S
C952 C950 1.415 . S
C952 C957 1.425 . S
C952 C959 1.409 . S
C953 H945 0.930 . S
C953 C951 1.419 . S
C953 C954 1.362 . S
C954 H946 0.930 . S
C954 C953 1.362 . S
C954 C957 1.409 . S
C955 H947 0.930 . S
C955 C956 1.355 . S
C955 C957 1.415 . S
C956 C955 1.355 . S
C956 C958 1.419 . S
C957 C952 1.425 . S
C957 C954 1.409 . S
C957 C955 1.415 . S
C958 H948 0.930 . S
C958 C956 1.419 . S
C958 C959 1.362 . S
C959 H949 0.930 . S
C959 C952 1.409 . S
C959 C958 1.362 . S
H960 C966 0.930 . S
H961 C969 0.930 . S
H962 C970 0.930 . S
H963 C971 0.930 . S
H964 C974 0.930 . S
H965 C975 0.930 . S
C966 H960 0.930 . S
C966 C967 1.355 . S
C966 C968 1.415 . S
C967 C966 1.355 . S
C967 C969 1.419 . S
C968 C966 1.415 . S
C968 C973 1.425 . S
C968 C975 1.409 . S
C969 H961 0.930 . S
C969 C967 1.419 . S
C969 C970 1.362 . S
C970 H962 0.930 . S
C970 C969 1.362 . S
C970 C973 1.409 . S
C971 H963 0.930 . S
C971 C972 1.355 . S
C971 C973 1.415 . S
C972 C971 1.355 . S
C972 C974 1.419 . S
C973 C968 1.425 . S
C973 C970 1.409 . S
C973 C971 1.415 . S
C974 H964 0.930 . S
C974 C972 1.419 . S
C974 C975 1.362 . S
C975 H965 0.930 . S
C975 C968 1.409 . S
C975 C974 1.362 . S
H976 C982 0.930 . S
H977 C985 0.930 . S
H978 C986 0.930 . S
H979 C987 0.930 . S
H980 C990 0.930 . S
H981 C991 0.930 . S
C982 H976 0.930 . S
C982 C983 1.355 . S
C982 C984 1.415 . S
C983 C982 1.355 . S
C983 C985 1.419 . S
C984 C982 1.415 . S
C984 C989 1.425 . S
C984 C991 1.409 . S
C985 H977 0.930 . S
C985 C983 1.419 . S
C985 C986 1.362 . S
C986 H978 0.930 . S
C986 C985 1.362 . S
C986 C989 1.409 . S
C987 H979 0.930 . S
C987 C988 1.355 . S
C987 C989 1.415 . S
C988 C987 1.355 . S
C988 C990 1.419 . S
C989 C984 1.425 . S
C989 C986 1.409 . S
C989 C987 1.415 . S
C990 H980 0.930 . S
C990 C988 1.419 . S
C990 C991 1.362 . S
C991 H981 0.930 . S
C991 C984 1.409 . S
C991 C990 1.362 . S
H992 C998 0.930 . S
H993 C1001 0.930 . S
H994 C1002 0.930 . S
H995 C1003 0.930 . S
H996 C1006 0.930 . S
H997 C1007 0.930 . S
C998 H992 0.930 . S
C998 C999 1.355 . S
C998 C1000 1.415 . S
C999 C998 1.355 . S
C999 C1001 1.419 . S
C1000 C998 1.415 . S
C1000 C1005 1.425 1_455 S
C1000 C1007 1.409 1_455 S
C1001 H993 0.930 . S
C1001 C999 1.419 . S
C1001 C1002 1.362 . S
C1002 H994 0.930 . S
C1002 C1001 1.362 . S
C1002 C1005 1.409 1_455 S
C1003 H995 0.930 . S
C1003 C1004 1.355 . S
C1003 C1005 1.415 . S
C1004 C1003 1.355 . S
C1004 C1006 1.419 . S
C1005 C1000 1.425 1_655 S
C1005 C1002 1.409 1_655 S
C1005 C1003 1.415 . S
C1006 H996 0.930 . S
C1006 C1004 1.419 . S
C1006 C1007 1.362 . S
C1007 H997 0.930 . S
C1007 C1000 1.409 1_655 S
C1007 C1006 1.362 . S
H1008 C1014 0.930 . S
H1009 C1017 0.930 . S
H1010 C1018 0.930 . S
H1011 C1019 0.930 . S
H1012 C1022 0.930 . S
H1013 C1023 0.930 . S
C1014 H1008 0.930 . S
C1014 C1015 1.355 . S
C1014 C1016 1.415 . S
C1015 C1014 1.355 . S
C1015 C1017 1.419 . S
C1016 C1014 1.415 . S
C1016 C1021 1.425 . S
C1016 C1023 1.409 . S
C1017 H1009 0.930 . S
C1017 C1015 1.419 . S
C1017 C1018 1.362 . S
C1018 H1010 0.930 . S
C1018 C1017 1.362 . S
C1018 C1021 1.409 . S
C1019 H1011 0.930 . S
C1019 C1020 1.355 . S
C1019 C1021 1.415 . S
C1020 C1019 1.355 . S
C1020 C1022 1.419 . S
C1021 C1016 1.425 . S
C1021 C1018 1.409 . S
C1021 C1019 1.415 . S
C1022 H1012 0.930 . S
C1022 C1020 1.419 . S
C1022 C1023 1.362 . S
C1023 H1013 0.930 . S
C1023 C1016 1.409 . S
C1023 C1022 1.362 . S
H1024 C1030 0.930 . S
H1025 C1033 0.930 . S
H1026 C1034 0.930 . S
H1027 C1035 0.930 . S
H1028 C1038 0.930 . S
H1029 C1039 0.930 . S
C1030 H1024 0.930 . S
C1030 C1031 1.355 . S
C1030 C1032 1.415 . S
C1031 C1030 1.355 . S
C1031 C1033 1.419 . S
C1032 C1030 1.415 . S
C1032 C1037 1.425 1_655 S
C1032 C1039 1.409 1_655 S
C1033 H1025 0.930 . S
C1033 C1031 1.419 . S
C1033 C1034 1.362 . S
C1034 H1026 0.930 . S
C1034 C1033 1.362 . S
C1034 C1037 1.409 1_655 S
C1035 H1027 0.930 . S
C1035 C1036 1.355 . S
C1035 C1037 1.415 . S
C1036 C1035 1.355 . S
C1036 C1038 1.419 . S
C1037 C1032 1.425 1_455 S
C1037 C1034 1.409 1_455 S
C1037 C1035 1.415 . S
C1038 H1028 0.930 . S
C1038 C1036 1.419 . S
C1038 C1039 1.362 . S
C1039 H1029 0.930 . S
C1039 C1032 1.409 1_455 S
C1039 C1038 1.362 . S
H1040 C1046 0.930 . S
H1041 C1049 0.930 . S
H1042 C1050 0.930 . S
H1043 C1051 0.930 . S
H1044 C1054 0.930 . S
H1045 C1055 0.930 . S
C1046 H1040 0.930 . S
C1046 C1047 1.355 . S
C1046 C1048 1.415 . S
C1047 C1046 1.355 . S
C1047 C1049 1.419 . S
C1048 C1046 1.415 . S
C1048 C1053 1.425 . S
C1048 C1055 1.409 . S
C1049 H1041 0.930 . S
C1049 C1047 1.419 . S
C1049 C1050 1.362 . S
C1050 H1042 0.930 . S
C1050 C1049 1.362 . S
C1050 C1053 1.409 . S
C1051 H1043 0.930 . S
C1051 C1052 1.355 . S
C1051 C1053 1.415 . S
C1052 C1051 1.355 . S
C1052 C1054 1.419 . S
C1053 C1048 1.425 . S
C1053 C1050 1.409 . S
C1053 C1051 1.415 . S
C1054 H1044 0.930 . S
C1054 C1052 1.419 . S
C1054 C1055 1.362 . S
C1055 H1045 0.930 . S
C1055 C1048 1.409 . S
C1055 C1054 1.362 . S
H1056 C1062 0.930 . S
H1057 C1065 0.930 . S
H1058 C1066 0.930 . S
H1059 C1067 0.930 . S
H1060 C1070 0.930 . S
H1061 C1071 0.930 . S
C1062 H1056 0.930 . S
C1062 C1063 1.355 . S
C1062 C1064 1.415 . S
C1063 C1062 1.355 . S
C1063 C1065 1.419 . S
C1064 C1062 1.415 . S
C1064 C1069 1.425 . S
C1064 C1071 1.409 . S
C1065 H1057 0.930 . S
C1065 C1063 1.419 . S
C1065 C1066 1.362 . S
C1066 H1058 0.930 . S
C1066 C1065 1.362 . S
C1066 C1069 1.409 . S
C1067 H1059 0.930 . S
C1067 C1068 1.355 . S
C1067 C1069 1.415 . S
C1068 C1067 1.355 . S
C1068 C1070 1.419 . S
C1069 C1064 1.425 . S
C1069 C1066 1.409 . S
C1069 C1067 1.415 . S
C1070 H1060 0.930 . S
C1070 C1068 1.419 . S
C1070 C1071 1.362 . S
C1071 H1061 0.930 . S
C1071 C1064 1.409 . S
C1071 C1070 1.362 . S
H1072 C1078 0.930 . S
H1073 C1081 0.930 . S
H1074 C1082 0.930 . S
H1075 C1083 0.930 . S
H1076 C1086 0.930 . S
H1077 C1087 0.930 . S
C1078 H1072 0.930 . S
C1078 C1079 1.355 . S
C1078 C1080 1.415 . S
C1079 C1078 1.355 . S
C1079 C1081 1.419 . S
C1080 C1078 1.415 . S
C1080 C1085 1.425 . S
C1080 C1087 1.409 . S
C1081 H1073 0.930 . S
C1081 C1079 1.419 . S
C1081 C1082 1.362 . S
C1082 H1074 0.930 . S
C1082 C1081 1.362 . S
C1082 C1085 1.409 . S
C1083 H1075 0.930 . S
C1083 C1084 1.355 . S
C1083 C1085 1.415 . S
C1084 C1083 1.355 . S
C1084 C1086 1.419 . S
C1085 C1080 1.425 . S
C1085 C1082 1.409 . S
C1085 C1083 1.415 . S
C1086 H1076 0.930 . S
C1086 C1084 1.419 . S
C1086 C1087 1.362 . S
C1087 H1077 0.930 . S
C1087 C1080 1.409 . S
C1087 C1086 1.362 . S
H1088 C1094 0.930 . S
H1089 C1097 0.930 . S
H1090 C1098 0.930 . S
H1091 C1099 0.930 . S
H1092 C1102 0.930 . S
H1093 C1103 0.930 . S
C1094 H1088 0.930 . S
C1094 C1095 1.355 . S
C1094 C1096 1.415 . S
C1095 C1094 1.355 . S
C1095 C1097 1.419 . S
C1096 C1094 1.415 . S
C1096 C1101 1.425 . S
C1096 C1103 1.409 . S
C1097 H1089 0.930 . S
C1097 C1095 1.419 . S
C1097 C1098 1.362 . S
C1098 H1090 0.930 . S
C1098 C1097 1.362 . S
C1098 C1101 1.409 . S
C1099 H1091 0.930 . S
C1099 C1100 1.355 . S
C1099 C1101 1.415 . S
C1100 C1099 1.355 . S
C1100 C1102 1.419 . S
C1101 C1096 1.425 . S
C1101 C1098 1.409 . S
C1101 C1099 1.415 . S
C1102 H1092 0.930 . S
C1102 C1100 1.419 . S
C1102 C1103 1.362 . S
C1103 H1093 0.930 . S
C1103 C1096 1.409 . S
C1103 C1102 1.362 . S
H1104 C1110 0.930 . S
H1105 C1113 0.930 . S
H1106 C1114 0.930 . S
H1107 C1115 0.930 . S
H1108 C1118 0.930 . S
H1109 C1119 0.930 . S
C1110 H1104 0.930 . S
C1110 C1111 1.355 . S
C1110 C1112 1.415 . S
C1111 C1110 1.355 . S
C1111 C1113 1.419 . S
C1112 C1110 1.415 . S
C1112 C1117 1.425 . S
C1112 C1119 1.409 . S
C1113 H1105 0.930 . S
C1113 C1111 1.419 . S
C1113 C1114 1.362 . S
C1114 H1106 0.930 . S
C1114 C1113 1.362 . S
C1114 C1117 1.409 . S
C1115 H1107 0.930 . S
C1115 C1116 1.355 . S
C1115 C1117 1.415 . S
C1116 C1115 1.355 . S
C1116 C1118 1.419 . S
C1117 C1112 1.425 . S
C1117 C1114 1.409 . S
C1117 C1115 1.415 . S
C1118 H1108 0.930 . S
C1118 C1116 1.419 . S
C1118 C1119 1.362 . S
C1119 H1109 0.930 . S
C1119 C1112 1.409 . S
C1119 C1118 1.362 . S
H1120 C1126 0.930 . S
H1121 C1129 0.930 . S
H1122 C1130 0.930 . S
H1123 C1131 0.930 . S
H1124 C1134 0.930 . S
H1125 C1135 0.930 . S
C1126 H1120 0.930 . S
C1126 C1127 1.355 . S
C1126 C1128 1.415 . S
C1127 C1126 1.355 . S
C1127 C1129 1.419 . S
C1128 C1126 1.415 . S
C1128 C1133 1.425 . S
C1128 C1135 1.409 . S
C1129 H1121 0.930 . S
C1129 C1127 1.419 . S
C1129 C1130 1.362 . S
C1130 H1122 0.930 . S
C1130 C1129 1.362 . S
C1130 C1133 1.409 . S
C1131 H1123 0.930 . S
C1131 C1132 1.355 . S
C1131 C1133 1.415 . S
C1132 C1131 1.355 . S
C1132 C1134 1.419 . S
C1133 C1128 1.425 . S
C1133 C1130 1.409 . S
C1133 C1131 1.415 . S
C1134 H1124 0.930 . S
C1134 C1132 1.419 . S
C1134 C1135 1.362 . S
C1135 H1125 0.930 . S
C1135 C1128 1.409 . S
C1135 C1134 1.362 . S
H1136 C1142 0.930 . S
H1137 C1145 0.930 . S
H1138 C1146 0.930 . S
H1139 C1147 0.930 . S
H1140 C1150 0.930 . S
H1141 C1151 0.930 . S
C1142 H1136 0.930 . S
C1142 C1143 1.355 . S
C1142 C1144 1.415 . S
C1143 C1142 1.355 . S
C1143 C1145 1.419 . S
C1144 C1142 1.415 . S
C1144 C1149 1.425 1_455 S
C1144 C1151 1.409 1_455 S
C1145 H1137 0.930 . S
C1145 C1143 1.419 . S
C1145 C1146 1.362 . S
C1146 H1138 0.930 . S
C1146 C1145 1.362 . S
C1146 C1149 1.409 1_455 S
C1147 H1139 0.930 . S
C1147 C1148 1.355 . S
C1147 C1149 1.415 . S
C1148 C1147 1.355 . S
C1148 C1150 1.419 . S
C1149 C1144 1.425 1_655 S
C1149 C1146 1.409 1_655 S
C1149 C1147 1.415 . S
C1150 H1140 0.930 . S
C1150 C1148 1.419 . S
C1150 C1151 1.362 . S
C1151 H1141 0.930 . S
C1151 C1144 1.409 1_655 S
C1151 C1150 1.362 . S
H1152 C1158 0.930 . S
H1153 C1161 0.930 . S
H1154 C1162 0.930 . S
H1155 C1163 0.930 . S
H1156 C1166 0.930 . S
H1157 C1167 0.930 . S
C1158 H1152 0.930 . S
C1158 C1159 1.355 . S
C1158 C1160 1.415 . S
C1159 C1158 1.355 . S
C1159 C1161 1.419 . S
C1160 C1158 1.415 . S
C1160 C1165 1.425 . S
C1160 C1167 1.409 . S
C1161 H1153 0.930 . S
C1161 C1159 1.419 . S
C1161 C1162 1.362 . S
C1162 H1154 0.930 . S
C1162 C1161 1.362 . S
C1162 C1165 1.409 . S
C1163 H1155 0.930 . S
C1163 C1164 1.355 . S
C1163 C1165 1.415 . S
C1164 C1163 1.355 . S
C1164 C1166 1.419 . S
C1165 C1160 1.425 . S
C1165 C1162 1.409 . S
C1165 C1163 1.415 . S
C1166 H1156 0.930 . S
C1166 C1164 1.419 . S
C1166 C1167 1.362 . S
C1167 H1157 0.930 . S
C1167 C1160 1.409 . S
C1167 C1166 1.362 . S
H1168 C1174 0.930 . S
H1169 C1177 0.930 . S
H1170 C1178 0.930 . S
H1171 C1179 0.930 . S
H1172 C1182 0.930 . S
H1173 C1183 0.930 . S
C1174 H1168 0.930 . S
C1174 C1175 1.355 . S
C1174 C1176 1.415 . S
C1175 C1174 1.355 . S
C1175 C1177 1.419 . S
C1176 C1174 1.415 . S
C1176 C1181 1.425 . S
C1176 C1183 1.409 . S
C1177 H1169 0.930 . S
C1177 C1175 1.419 . S
C1177 C1178 1.362 . S
C1178 H1170 0.930 . S
C1178 C1177 1.362 . S
C1178 C1181 1.409 . S
C1179 H1171 0.930 . S
C1179 C1180 1.355 . S
C1179 C1181 1.415 . S
C1180 C1179 1.355 . S
C1180 C1182 1.419 . S
C1181 C1176 1.425 . S
C1181 C1178 1.409 . S
C1181 C1179 1.415 . S
C1182 H1172 0.930 . S
C1182 C1180 1.419 . S
C1182 C1183 1.362 . S
C1183 H1173 0.930 . S
C1183 C1176 1.409 . S
C1183 C1182 1.362 . S
H1184 C1190 0.930 . S
H1185 C1193 0.930 . S
H1186 C1194 0.930 . S
H1187 C1195 0.930 . S
H1188 C1198 0.930 . S
H1189 C1199 0.930 . S
C1190 H1184 0.930 . S
C1190 C1191 1.355 . S
C1190 C1192 1.415 . S
C1191 C1190 1.355 . S
C1191 C1193 1.419 . S
C1192 C1190 1.415 . S
C1192 C1197 1.425 1_455 S
C1192 C1199 1.409 1_455 S
C1193 H1185 0.930 . S
C1193 C1191 1.419 . S
C1193 C1194 1.362 . S
C1194 H1186 0.930 . S
C1194 C1193 1.362 . S
C1194 C1197 1.409 1_455 S
C1195 H1187 0.930 . S
C1195 C1196 1.355 . S
C1195 C1197 1.415 . S
C1196 C1195 1.355 . S
C1196 C1198 1.419 . S
C1197 C1192 1.425 1_655 S
C1197 C1194 1.409 1_655 S
C1197 C1195 1.415 . S
C1198 H1188 0.930 . S
C1198 C1196 1.419 . S
C1198 C1199 1.362 . S
C1199 H1189 0.930 . S
C1199 C1192 1.409 1_655 S
C1199 C1198 1.362 . S
H1200 C1206 0.930 . S
H1201 C1209 0.930 . S
H1202 C1210 0.930 . S
H1203 C1211 0.930 . S
H1204 C1214 0.930 . S
H1205 C1215 0.930 . S
C1206 H1200 0.930 . S
C1206 C1207 1.355 . S
C1206 C1208 1.415 1_554 S
C1207 C1206 1.355 . S
C1207 C1209 1.419 . S
C1208 C1206 1.415 1_556 S
C1208 C1213 1.425 1_556 S
C1208 C1215 1.409 . S
C1209 H1201 0.930 . S
C1209 C1207 1.419 . S
C1209 C1210 1.362 . S
C1210 H1202 0.930 . S
C1210 C1209 1.362 . S
C1210 C1213 1.409 . S
C1211 H1203 0.930 . S
C1211 C1212 1.355 . S
C1211 C1213 1.415 1_556 S
C1212 C1211 1.355 . S
C1212 C1214 1.419 . S
C1213 C1208 1.425 1_554 S
C1213 C1210 1.409 . S
C1213 C1211 1.415 1_554 S
C1214 H1204 0.930 . S
C1214 C1212 1.419 . S
C1214 C1215 1.362 . S
C1215 H1205 0.930 . S
C1215 C1208 1.409 . S
C1215 C1214 1.362 . S
H1216 C1222 0.930 . S
H1217 C1225 0.930 . S
H1218 C1226 0.930 . S
H1219 C1227 0.930 . S
H1220 C1230 0.930 . S
H1221 C1231 0.930 . S
C1222 H1216 0.930 . S
C1222 C1223 1.355 . S
C1222 C1224 1.415 . S
C1223 C1222 1.355 . S
C1223 C1225 1.419 . S
C1224 C1222 1.415 . S
C1224 C1229 1.425 . S
C1224 C1231 1.409 . S
C1225 H1217 0.930 . S
C1225 C1223 1.419 . S
C1225 C1226 1.362 . S
C1226 H1218 0.930 . S
C1226 C1225 1.362 . S
C1226 C1229 1.409 . S
C1227 H1219 0.930 . S
C1227 C1228 1.355 . S
C1227 C1229 1.415 . S
C1228 C1227 1.355 . S
C1228 C1230 1.419 . S
C1229 C1224 1.425 . S
C1229 C1226 1.409 . S
C1229 C1227 1.415 . S
C1230 H1220 0.930 . S
C1230 C1228 1.419 . S
C1230 C1231 1.362 . S
C1231 H1221 0.930 . S
C1231 C1224 1.409 . S
C1231 C1230 1.362 . S
H1232 C1238 0.930 . S
H1233 C1241 0.930 . S
H1234 C1242 0.930 . S
H1235 C1243 0.930 . S
H1236 C1246 0.930 . S
H1237 C1247 0.930 . S
C1238 H1232 0.930 . S
C1238 C1239 1.355 . S
C1238 C1240 1.415 . S
C1239 C1238 1.355 . S
C1239 C1241 1.419 . S
C1240 C1238 1.415 . S
C1240 C1245 1.425 . S
C1240 C1247 1.409 . S
C1241 H1233 0.930 . S
C1241 C1239 1.419 . S
C1241 C1242 1.362 . S
C1242 H1234 0.930 . S
C1242 C1241 1.362 . S
C1242 C1245 1.409 . S
C1243 H1235 0.930 . S
C1243 C1244 1.355 . S
C1243 C1245 1.415 . S
C1244 C1243 1.355 . S
C1244 C1246 1.419 . S
C1245 C1240 1.425 . S
C1245 C1242 1.409 . S
C1245 C1243 1.415 . S
C1246 H1236 0.930 . S
C1246 C1244 1.419 . S
C1246 C1247 1.362 . S
C1247 H1237 0.930 . S
C1247 C1240 1.409 . S
C1247 C1246 1.362 . S
H1248 C1254 0.930 . S
H1249 C1257 0.930 . S
H1250 C1258 0.930 . S
H1251 C1259 0.930 . S
H1252 C1262 0.930 . S
H1253 C1263 0.930 . S
C1254 H1248 0.930 . S
C1254 C1255 1.355 . S
C1254 C1256 1.415 . S
C1255 C1254 1.355 . S
C1255 C1257 1.419 . S
C1256 C1254 1.415 . S
C1256 C1261 1.425 . S
C1256 C1263 1.409 . S
C1257 H1249 0.930 . S
C1257 C1255 1.419 . S
C1257 C1258 1.362 . S
C1258 H1250 0.930 . S
C1258 C1257 1.362 . S
C1258 C1261 1.409 . S
C1259 H1251 0.930 . S
C1259 C1260 1.355 . S
C1259 C1261 1.415 . S
C1260 C1259 1.355 . S
C1260 C1262 1.419 . S
C1261 C1256 1.425 . S
C1261 C1258 1.409 . S
C1261 C1259 1.415 . S
C1262 H1252 0.930 . S
C1262 C1260 1.419 . S
C1262 C1263 1.362 . S
C1263 H1253 0.930 . S
C1263 C1256 1.409 . S
C1263 C1262 1.362 . S
H1264 C1270 0.930 . S
H1265 C1273 0.930 . S
H1266 C1274 0.930 . S
H1267 C1275 0.930 . S
H1268 C1278 0.930 . S
H1269 C1279 0.930 . S
C1270 H1264 0.930 . S
C1270 C1271 1.355 . S
C1270 C1272 1.415 1_556 S
C1271 C1270 1.355 . S
C1271 C1273 1.419 . S
C1272 C1270 1.415 1_554 S
C1272 C1277 1.425 1_554 S
C1272 C1279 1.409 . S
C1273 H1265 0.930 . S
C1273 C1271 1.419 . S
C1273 C1274 1.362 . S
C1274 H1266 0.930 . S
C1274 C1273 1.362 . S
C1274 C1277 1.409 . S
C1275 H1267 0.930 . S
C1275 C1276 1.355 . S
C1275 C1277 1.415 1_554 S
C1276 C1275 1.355 . S
C1276 C1278 1.419 . S
C1277 C1272 1.425 1_556 S
C1277 C1274 1.409 . S
C1277 C1275 1.415 1_556 S
C1278 H1268 0.930 . S
C1278 C1276 1.419 . S
C1278 C1279 1.362 . S
C1279 H1269 0.930 . S
C1279 C1272 1.409 . S
C1279 C1278 1.362 . S
H1280 C1286 0.930 . S
H1281 C1289 0.930 . S
H1282 C1290 0.930 . S
H1283 C1291 0.930 . S
H1284 C1294 0.930 . S
H1285 C1295 0.930 . S
C1286 H1280 0.930 . S
C1286 C1287 1.355 . S
C1286 C1288 1.415 . S
C1287 C1286 1.355 . S
C1287 C1289 1.419 . S
C1288 C1286 1.415 . S
C1288 C1293 1.425 . S
C1288 C1295 1.409 . S
C1289 H1281 0.930 . S
C1289 C1287 1.419 . S
C1289 C1290 1.362 . S
C1290 H1282 0.930 . S
C1290 C1289 1.362 . S
C1290 C1293 1.409 . S
C1291 H1283 0.930 . S
C1291 C1292 1.355 . S
C1291 C1293 1.415 . S
C1292 C1291 1.355 . S
C1292 C1294 1.419 . S
C1293 C1288 1.425 . S
C1293 C1290 1.409 . S
C1293 C1291 1.415 . S
C1294 H1284 0.930 . S
C1294 C1292 1.419 . S
C1294 C1295 1.362 . S
C1295 H1285 0.930 . S
C1295 C1288 1.409 . S
C1295 C1294 1.362 . S
H1296 C1302 0.930 . S
H1297 C1305 0.930 . S
H1298 C1306 0.930 . S
H1299 C1307 0.930 . S
H1300 C1310 0.930 . S
H1301 C1311 0.930 . S
C1302 H1296 0.930 . S
C1302 C1303 1.355 . S
C1302 C1304 1.415 . S
C1303 C1302 1.355 . S
C1303 C1305 1.419 . S
C1304 C1302 1.415 . S
C1304 C1309 1.425 . S
C1304 C1311 1.409 . S
C1305 H1297 0.930 . S
C1305 C1303 1.419 . S
C1305 C1306 1.362 . S
C1306 H1298 0.930 . S
C1306 C1305 1.362 . S
C1306 C1309 1.409 . S
C1307 H1299 0.930 . S
C1307 C1308 1.355 . S
C1307 C1309 1.415 . S
C1308 C1307 1.355 . S
C1308 C1310 1.419 . S
C1309 C1304 1.425 . S
C1309 C1306 1.409 . S
C1309 C1307 1.415 . S
C1310 H1300 0.930 . S
C1310 C1308 1.419 . S
C1310 C1311 1.362 . S
C1311 H1301 0.930 . S
C1311 C1304 1.409 . S
C1311 C1310 1.362 . S
H1312 C1318 0.930 . S
H1313 C1321 0.930 . S
H1314 C1322 0.930 . S
H1315 C1323 0.930 . S
H1316 C1326 0.930 . S
H1317 C1327 0.930 . S
C1318 H1312 0.930 . S
C1318 C1319 1.355 . S
C1318 C1320 1.415 . S
C1319 C1318 1.355 . S
C1319 C1321 1.419 . S
C1320 C1318 1.415 . S
C1320 C1325 1.425 . S
C1320 C1327 1.409 . S
C1321 H1313 0.930 . S
C1321 C1319 1.419 . S
C1321 C1322 1.362 . S
C1322 H1314 0.930 . S
C1322 C1321 1.362 . S
C1322 C1325 1.409 . S
C1323 H1315 0.930 . S
C1323 C1324 1.355 . S
C1323 C1325 1.415 . S
C1324 C1323 1.355 . S
C1324 C1326 1.419 . S
C1325 C1320 1.425 . S
C1325 C1322 1.409 . S
C1325 C1323 1.415 . S
C1326 H1316 0.930 . S
C1326 C1324 1.419 . S
C1326 C1327 1.362 . S
C1327 H1317 0.930 . S
C1327 C1320 1.409 . S
C1327 C1326 1.362 . S
H1328 C1334 0.930 . S
H1329 C1337 0.930 . S
H1330 C1338 0.930 . S
H1331 C1339 0.930 . S
H1332 C1342 0.930 . S
H1333 C1343 0.930 . S
C1334 H1328 0.930 . S
C1334 C1335 1.355 . S
C1334 C1336 1.415 . S
C1335 C1334 1.355 . S
C1335 C1337 1.419 . S
C1336 C1334 1.415 . S
C1336 C1341 1.425 1_545 S
C1336 C1343 1.409 1_545 S
C1337 H1329 0.930 . S
C1337 C1335 1.419 . S
C1337 C1338 1.362 . S
C1338 H1330 0.930 . S
C1338 C1337 1.362 . S
C1338 C1341 1.409 1_545 S
C1339 H1331 0.930 . S
C1339 C1340 1.355 . S
C1339 C1341 1.415 . S
C1340 C1339 1.355 . S
C1340 C1342 1.419 . S
C1341 C1336 1.425 1_565 S
C1341 C1338 1.409 1_565 S
C1341 C1339 1.415 . S
C1342 H1332 0.930 . S
C1342 C1340 1.419 . S
C1342 C1343 1.362 . S
C1343 H1333 0.930 . S
C1343 C1336 1.409 1_565 S
C1343 C1342 1.362 . S
H1344 C1350 0.930 . S
H1345 C1353 0.930 . S
H1346 C1354 0.930 . S
H1347 C1355 0.930 . S
H1348 C1358 0.930 . S
H1349 C1359 0.930 . S
C1350 H1344 0.930 . S
C1350 C1351 1.355 . S
C1350 C1352 1.415 . S
C1351 C1350 1.355 . S
C1351 C1353 1.419 . S
C1352 C1350 1.415 . S
C1352 C1357 1.425 . S
C1352 C1359 1.409 . S
C1353 H1345 0.930 . S
C1353 C1351 1.419 . S
C1353 C1354 1.362 . S
C1354 H1346 0.930 . S
C1354 C1353 1.362 . S
C1354 C1357 1.409 . S
C1355 H1347 0.930 . S
C1355 C1356 1.355 . S
C1355 C1357 1.415 . S
C1356 C1355 1.355 . S
C1356 C1358 1.419 . S
C1357 C1352 1.425 . S
C1357 C1354 1.409 . S
C1357 C1355 1.415 . S
C1358 H1348 0.930 . S
C1358 C1356 1.419 . S
C1358 C1359 1.362 . S
C1359 H1349 0.930 . S
C1359 C1352 1.409 . S
C1359 C1358 1.362 . S
H1360 C1366 0.930 . S
H1361 C1369 0.930 . S
H1362 C1370 0.930 . S
H1363 C1371 0.930 . S
H1364 C1374 0.930 . S
H1365 C1375 0.930 . S
C1366 H1360 0.930 . S
C1366 C1367 1.355 . S
C1366 C1368 1.452 . S
C1367 C1366 1.355 . S
C1367 C1369 1.419 . S
C1368 C1366 1.452 . S
C1368 C1373 1.422 1_546 S
C1368 C1375 1.376 1_545 S
C1369 H1361 0.930 . S
C1369 C1367 1.419 . S
C1369 C1370 1.362 1_556 S
C1370 H1362 0.930 . S
C1370 C1369 1.362 1_554 S
C1370 C1373 1.409 1_545 S
C1371 H1363 0.930 . S
C1371 C1372 1.355 . S
C1371 C1373 1.415 . S
C1372 C1371 1.355 . S
C1372 C1374 1.419 . S
C1373 C1368 1.422 1_564 S
C1373 C1370 1.409 1_565 S
C1373 C1371 1.415 . S
C1374 H1364 0.930 . S
C1374 C1372 1.419 . S
C1374 C1375 1.362 1_554 S
C1375 H1365 0.930 . S
C1375 C1368 1.376 1_565 S
C1375 C1374 1.362 1_556 S
H1376 C1382 0.930 . S
H1377 C1385 0.930 . S
H1378 C1386 0.930 . S
H1379 C1387 0.930 . S
H1380 C1390 0.930 . S
H1381 C1391 0.930 . S
C1382 H1376 0.930 . S
C1382 C1383 1.355 . S
C1382 C1384 1.415 . S
C1383 C1382 1.355 . S
C1383 C1385 1.419 . S
C1384 C1382 1.415 . S
C1384 C1389 1.425 . S
C1384 C1391 1.409 . S
C1385 H1377 0.930 . S
C1385 C1383 1.419 . S
C1385 C1386 1.362 . S
C1386 H1378 0.930 . S
C1386 C1385 1.362 . S
C1386 C1389 1.409 . S
C1387 H1379 0.930 . S
C1387 C1388 1.355 . S
C1387 C1389 1.415 . S
C1388 C1387 1.355 . S
C1388 C1390 1.419 . S
C1389 C1384 1.425 . S
C1389 C1386 1.409 . S
C1389 C1387 1.415 . S
C1390 H1380 0.930 . S
C1390 C1388 1.419 . S
C1390 C1391 1.362 . S
C1391 H1381 0.930 . S
C1391 C1384 1.409 . S
C1391 C1390 1.362 . S
H1392 C1398 0.930 . S
H1393 C1401 0.930 . S
H1394 C1402 0.930 . S
H1395 C1403 0.930 . S
H1396 C1406 0.930 . S
H1397 C1407 0.930 . S
C1398 H1392 0.930 . S
C1398 C1399 1.355 . S
C1398 C1400 1.415 . S
C1399 C1398 1.355 . S
C1399 C1401 1.419 . S
C1400 C1398 1.415 . S
C1400 C1405 1.425 1_545 S
C1400 C1407 1.409 1_545 S
C1401 H1393 0.930 . S
C1401 C1399 1.419 . S
C1401 C1402 1.362 . S
C1402 H1394 0.930 . S
C1402 C1401 1.362 . S
C1402 C1405 1.409 1_545 S
C1403 H1395 0.930 . S
C1403 C1404 1.355 . S
C1403 C1405 1.415 . S
C1404 C1403 1.355 . S
C1404 C1406 1.419 . S
C1405 C1400 1.425 1_565 S
C1405 C1402 1.409 1_565 S
C1405 C1403 1.415 . S
C1406 H1396 0.930 . S
C1406 C1404 1.419 . S
C1406 C1407 1.362 . S
C1407 H1397 0.930 . S
C1407 C1400 1.409 1_565 S
C1407 C1406 1.362 . S
H1408 C1414 0.930 . S
H1409 C1417 0.930 . S
H1410 C1418 0.930 . S
H1411 C1419 0.930 . S
H1412 C1422 0.930 . S
H1413 C1423 0.930 . S
C1414 H1408 0.930 . S
C1414 C1415 1.355 . S
C1414 C1416 1.415 . S
C1415 C1414 1.355 . S
C1415 C1417 1.419 . S
C1416 C1414 1.415 . S
C1416 C1421 1.425 . S
C1416 C1423 1.409 . S
C1417 H1409 0.930 . S
C1417 C1415 1.419 . S
C1417 C1418 1.362 . S
C1418 H1410 0.930 . S
C1418 C1417 1.362 . S
C1418 C1421 1.409 . S
C1419 H1411 0.930 . S
C1419 C1420 1.355 . S
C1419 C1421 1.415 . S
C1420 C1419 1.355 . S
C1420 C1422 1.419 . S
C1421 C1416 1.425 . S
C1421 C1418 1.409 . S
C1421 C1419 1.415 . S
C1422 H1412 0.930 . S
C1422 C1420 1.419 . S
C1422 C1423 1.362 . S
C1423 H1413 0.930 . S
C1423 C1416 1.409 . S
C1423 C1422 1.362 . S
H1424 C1430 0.930 . S
H1425 C1433 0.930 . S
H1426 C1434 0.930 1_556 S
H1427 C1435 0.930 . S
H1428 C1438 0.930 . S
H1429 C1439 0.930 1_554 S
C1430 H1424 0.930 . S
C1430 C1431 1.355 . S
C1430 C1432 1.415 . S
C1431 C1430 1.355 . S
C1431 C1433 1.419 . S
C1432 C1430 1.415 . S
C1432 C1437 1.425 1_564 S
C1432 C1439 1.409 1_564 S
C1433 H1425 0.930 . S
C1433 C1431 1.419 . S
C1433 C1434 1.362 . S
C1434 H1426 0.930 1_554 S
C1434 C1433 1.362 . S
C1434 C1437 1.409 1_564 S
C1435 H1427 0.930 . S
C1435 C1436 1.355 . S
C1435 C1437 1.415 . S
C1436 C1435 1.355 . S
C1436 C1438 1.419 . S
C1437 C1432 1.425 1_546 S
C1437 C1434 1.409 1_546 S
C1437 C1435 1.415 . S
C1438 H1428 0.930 . S
C1438 C1436 1.419 . S
C1438 C1439 1.362 . S
C1439 H1429 0.930 1_556 S
C1439 C1432 1.409 1_546 S
C1439 C1438 1.362 . S
H1440 C1446 0.930 . S
H1441 C1449 0.930 . S
H1442 C1450 0.930 . S
H1443 C1451 0.930 . S
H1444 C1454 0.930 . S
H1445 C1455 0.930 . S
C1446 H1440 0.930 . S
C1446 C1447 1.355 . S
C1446 C1448 1.415 . S
C1447 C1446 1.355 . S
C1447 C1449 1.419 . S
C1448 C1446 1.415 . S
C1448 C1453 1.425 . S
C1448 C1455 1.409 . S
C1449 H1441 0.930 . S
C1449 C1447 1.419 . S
C1449 C1450 1.362 . S
C1450 H1442 0.930 . S
C1450 C1449 1.362 . S
C1450 C1453 1.409 . S
C1451 H1443 0.930 . S
C1451 C1452 1.355 . S
C1451 C1453 1.415 . S
C1452 C1451 1.355 . S
C1452 C1454 1.419 . S
C1453 C1448 1.425 . S
C1453 C1450 1.409 . S
C1453 C1451 1.415 . S
C1454 H1444 0.930 . S
C1454 C1452 1.419 . S
C1454 C1455 1.362 . S
C1455 H1445 0.930 . S
C1455 C1448 1.409 . S
C1455 C1454 1.362 . S
C951 C701 1.410 . S
C956 C33 1.424 . S
C967 C937 1.424 . S
C972 C111 1.409 . S
C983 C170 1.427 . S
C988 C564 1.410 . S
C999 C819 1.419 . S
C1004 C210 1.423 . S
C1015 C269 1.425 . S
C1020 C800 1.411 . S
C1031 C347 1.423 . S
C1036 C682 1.407 . S
C1047 C406 1.424 . S
C1052 C918 1.409 . S
C1063 C446 1.415 . S
C1068 C583 1.411 . S
C1079 C229 1.427 . S
C1084 C505 1.415 . S
C1095 C642 1.408 . S
C1100 C92 1.425 . S
C1111 C741 1.410 . S
C1116 C328 1.427 . S
C1127 C878 1.407 . S
C1132 C465 1.426 . S
C1143 C288 1.428 . S
C1148 C524 1.409 . S
C1159 C623 1.418 . S
C1164 C387 1.416 . S
C1175 C859 1.407 . S
C1180 C151 1.426 . S
C1191 C52 1.426 . S
C1196 C760 1.411 . S
C1207 C3 1.414 . S
C1212 C239 1.385 . S
C1223 C64 1.421 . S
C1228 C300 1.409 . S
C1239 C123 1.399 . S
C1244 C359 1.419 . S
C1255 C416 1.389 . S
C1260 C180 1.413 . S
C1271 C475 1.387 . S
C1276 C711 1.410 . S
C1287 C772 1.412 . S
C1292 C536 1.423 . S
C1303 C595 1.397 . S
C1308 C831 1.413 . S
C1319 C890 1.414 . S
C1324 C652 1.419 . S
C1335 C418 1.398 . S
C1340 C62 1.420 . S
C1351 C121 1.387 . S
C1356 C241 1.429 . S
C1367 C182 1.425 . S
C1372 C298 1.383 . S
C1383 C5 1.424 . S
C1388 C357 1.396 . S
C1399 C534 1.425 . S
C1404 C888 1.388 . S
C1415 C713 1.411 . S
C1420 C593 1.427 . S
C1431 C654 1.426 . S
C1436 C770 1.385 . S
C1447 C829 1.397 . S
C1452 C477 1.421 . S
