# Generated by pormake.
# Topology lon, (4)-cn, num edge types: 1
# Building blocks:
#     Node 0, Type 0, BuildingBlock: UXUYUI_clean_sbu_0, # of connection points: 4
#     Node 1, Type 0, BuildingBlock: UXUYUI_clean_sbu_0, # of connection points: 4
#     Node 2, Type 0, BuildingBlock: UXUYUI_clean_sbu_0, # of connection points: 4
#     Node 3, Type 0, BuildingBlock: UXUYUI_clean_sbu_0, # of connection points: 4
#     Edge 4, Type (0, 0), BuildingBlock: MIFKUJ_clean_linker_0, # of connection points: 2
#     Edge 5, Type (0, 0), BuildingBlock: MIFKUJ_clean_linker_0, # of connection points: 2
#     Edge 6, Type (0, 0), BuildingBlock: MIFKUJ_clean_linker_0, # of connection points: 2
#     Edge 7, Type (0, 0), BuildingBlock: MIFKUJ_clean_linker_0, # of connection points: 2
#     Edge 8, Type (0, 0), BuildingBlock: MIFKUJ_clean_linker_0, # of connection points: 2
#     Edge 9, Type (0, 0), BuildingBlock: MIFKUJ_clean_linker_0, # of connection points: 2
#     Edge 10, Type (0, 0), BuildingBlock: MIFKUJ_clean_linker_0, # of connection points: 2
#     Edge 11, Type (0, 0), BuildingBlock: MIFKUJ_clean_linker_0, # of connection points: 2
# Relax obj value: 0.000
# Max RMSD: 0.004
# Mean RMSD: 0.003
data_MOF--net-lon--node1-UXUYUI_clean_sbu_0--edge1-MIFKUJ_clean_linker_0
_symmetry_space_group_name_H-M    P1
_symmetry_Int_Tables_number       1
_symmetry_cell_setting            triclinic
loop_
_symmetry_equiv_pos_as_xyz
'x, y, z'
_cell_length_a     43.870514
_cell_length_b     43.843382
_cell_length_c     71.530613
_cell_angle_alpha  90.052999
_cell_angle_beta   90.056195
_cell_angle_gamma 120.10285
loop_
_atom_site_label
_atom_site_type_symbol
_atom_site_fract_x
_atom_site_fract_y
_atom_site_fract_z
_atom_type_partial_charge
Li0 Li 0.34396 0.67338 0.0914 0.0
Li1 Li 0.36047 0.65257 0.06337 0.0
Li2 Li 0.3613 0.71065 0.06389 0.0
Li3 Li 0.30497 0.65453 0.06269 0.0
C4 C 0.41478 0.70666 0.0924 0.0
N5 N 0.46327 0.72793 0.12119 0.0
C6 C 0.4331 0.68877 0.09581 0.0
C7 C 0.42148 0.73567 0.10346 0.0
C8 C 0.45744 0.69986 0.11047 0.0
C9 C 0.44597 0.74592 0.11801 0.0
C10 C 0.30542 0.59084 0.08004 0.0
C11 C 0.27372 0.53296 0.06611 0.0
N12 N 0.27995 0.51906 0.08165 0.0
C13 C 0.31108 0.5759 0.09598 0.0
C14 C 0.28624 0.56916 0.06507 0.0
C15 C 0.29817 0.53959 0.09648 0.0
C16 C 0.32532 0.68513 0.12739 0.0
N17 N 0.34383 0.67267 0.11809 0.0
C18 C 0.36199 0.65921 0.14696 0.0
C19 C 0.36168 0.65949 0.12745 0.0
C20 C 0.34322 0.67206 0.15702 0.0
C21 C 0.32459 0.68502 0.14691 0.0
H22 H 0.31084 0.69492 0.11963 0.0
H23 H 0.37575 0.6492 0.11975 0.0
C24 C 0.39815 0.63643 0.03692 0.0
N25 N 0.38366 0.62848 0.05428 0.0
C26 C 0.41526 0.61934 0.02976 0.0
C27 C 0.40317 0.58691 0.0587 0.0
C28 C 0.38622 0.60457 0.06526 0.0
C29 C 0.41788 0.59412 0.04068 0.0
H30 H 0.39658 0.65621 0.02863 0.0
H31 H 0.3755 0.59948 0.07922 0.0
C32 C 0.31386 0.72391 0.08022 0.0
N33 N 0.30507 0.78205 0.08086 0.0
C34 C 0.28736 0.72424 0.06951 0.0
C35 C 0.33555 0.75293 0.09146 0.0
C36 C 0.28341 0.75394 0.06998 0.0
C37 C 0.33079 0.78214 0.09153 0.0
C38 C 0.33335 0.66378 0.02605 0.0
C39 C 0.33463 0.68824 0.01308 0.0
C40 C 0.32164 0.62913 0.02038 0.0
C41 C 0.3235 0.6774 0.99473 0.0
C42 C 0.31076 0.61932 1.0019 0.0
N43 N 0.31186 0.64344 0.98957 0.0
C44 C 0.42043 0.77867 0.05863 0.0
C45 C 0.36758 0.77069 0.04515 0.0
C46 C 0.4388 0.81356 0.05244 0.0
N47 N 0.38543 0.75812 0.05503 0.0
C48 C 0.38481 0.8055 0.03884 0.0
C49 C 0.42097 0.82754 0.04244 0.0
H50 H 0.43419 0.76788 0.0662 0.0
H51 H 0.3399 0.75368 0.04218 0.0
C52 C 0.23232 0.60572 0.06509 0.0
N53 N 0.2573 0.63126 0.05408 0.0
C54 C 0.19702 0.58787 0.05951 0.0
C55 C 0.2137 0.6233 0.03148 0.0
C56 C 0.24862 0.64054 0.03765 0.0
C57 C 0.18727 0.5965 0.04245 0.0
H58 H 0.23983 0.59929 0.07827 0.0
H59 H 0.26868 0.66158 0.02938 0.0
O60 O 0.3906 0.69595 0.07823 0.0
O61 O 0.31786 0.62636 0.07935 0.0
O62 O 0.31834 0.69521 0.07979 0.0
O63 O 0.34405 0.67398 0.04409 0.0
H64 H 0.42847 0.66645 0.08729 0.0
H65 H 0.40782 0.75002 0.10089 0.0
H66 H 0.47166 0.68614 0.11333 0.0
H67 H 0.45124 0.76818 0.12675 0.0
H68 H 0.25891 0.51591 0.0546 0.0
H69 H 0.3255 0.59219 0.10779 0.0
H70 H 0.28067 0.58003 0.05287 0.0
H71 H 0.30261 0.52774 0.10867 0.0
H72 H 0.37708 0.64932 0.15406 0.0
H73 H 0.30913 0.69452 0.15398 0.0
H74 H 0.42683 0.62624 0.01595 0.0
H75 H 0.40448 0.56763 0.06759 0.0
H76 H 0.2702 0.70194 0.06083 0.0
H77 H 0.35587 0.75294 0.10001 0.0
H78 H 0.26317 0.75465 0.06167 0.0
H79 H 0.34754 0.80487 0.10008 0.0
H80 H 0.34395 0.71526 0.01716 0.0
H81 H 0.32138 0.61012 0.03005 0.0
H82 H 0.32415 0.696 0.98459 0.0
H83 H 0.30159 0.59256 0.99735 0.0
H84 H 0.46678 0.82922 0.05524 0.0
H85 H 0.3698 0.81509 0.03138 0.0
H86 H 0.17754 0.56791 0.06862 0.0
H87 H 0.20758 0.63074 0.01818 0.0
Li88 Li 0.65798 0.35902 0.56298 0.0
Li89 Li 0.71496 0.36115 0.56381 0.0
Li90 Li 0.65696 0.30315 0.56382 0.0
Li91 Li 0.67694 0.34064 0.59201 0.0
C92 C 0.6705 0.35032 0.52753 0.0
N93 N 0.6552 0.37196 0.49433 0.0
C94 C 0.69651 0.38024 0.51838 0.0
C95 C 0.63688 0.33111 0.51968 0.0
C96 C 0.68821 0.39082 0.50163 0.0
C97 C 0.62961 0.34256 0.50292 0.0
C98 C 0.72601 0.41808 0.587 0.0
C99 C 0.77655 0.4476 0.60732 0.0
N100 N 0.78096 0.47926 0.60183 0.0
C101 C 0.73083 0.45089 0.58168 0.0
C102 C 0.74887 0.41639 0.60002 0.0
C103 C 0.75886 0.48152 0.58929 0.0
C104 C 0.60013 0.36994 0.55713 0.0
N105 N 0.635 0.38318 0.55373 0.0
C106 C 0.63785 0.43159 0.53684 0.0
C107 C 0.65404 0.41358 0.54396 0.0
C108 C 0.60173 0.41839 0.53996 0.0
C109 C 0.58288 0.38714 0.55033 0.0
H110 H 0.58571 0.34615 0.56525 0.0
H111 H 0.68185 0.42379 0.54165 0.0
C112 C 0.77774 0.36507 0.55131 0.0
N113 N 0.7623 0.38469 0.55486 0.0
C114 C 0.81231 0.38108 0.54467 0.0
C115 C 0.81433 0.43717 0.54522 0.0
C116 C 0.77968 0.42003 0.55175 0.0
C117 C 0.83119 0.41769 0.54159 0.0
H118 H 0.76309 0.33688 0.55357 0.0
H119 H 0.76659 0.43495 0.55417 0.0
C120 C 0.59708 0.28973 0.58219 0.0
N121 N 0.53119 0.23098 0.58685 0.0
C122 C 0.58682 0.27358 0.59969 0.0
C123 C 0.57369 0.27623 0.56712 0.0
C124 C 0.55342 0.24385 0.60175 0.0
C125 C 0.54054 0.24644 0.56974 0.0
C126 C 0.71747 0.30575 0.58981 0.0
C127 C 0.70128 0.27 0.59441 0.0
C128 C 0.75174 0.3288 0.59604 0.0
C129 C 0.71932 0.25806 0.60557 0.0
C130 C 0.76892 0.31585 0.60715 0.0
N131 N 0.75247 0.28105 0.61167 0.0
C132 C 0.63897 0.24986 0.53681 0.0
C133 C 0.61415 0.22827 0.56663 0.0
C134 C 0.62308 0.21556 0.52968 0.0
N135 N 0.63413 0.25557 0.55496 0.0
C136 C 0.59725 0.19363 0.56002 0.0
C137 C 0.60163 0.18675 0.54129 0.0
H138 H 0.65547 0.27198 0.52789 0.0
H139 H 0.61131 0.23333 0.58111 0.0
C140 C 0.67867 0.36908 0.62778 0.0
N141 N 0.67641 0.3407 0.61875 0.0
C142 C 0.6784 0.37013 0.6473 0.0
C143 C 0.6724 0.31228 0.64791 0.0
C144 C 0.67288 0.3124 0.62839 0.0
C145 C 0.67532 0.34148 0.65764 0.0
H146 H 0.68053 0.39089 0.61981 0.0
H147 H 0.66995 0.28968 0.62095 0.0
O148 O 0.67795 0.3399 0.5441 0.0
O149 O 0.69884 0.38785 0.57956 0.0
O150 O 0.62976 0.31873 0.5799 0.0
O151 O 0.70024 0.31779 0.57877 0.0
H152 H 0.7227 0.39533 0.52424 0.0
H153 H 0.61661 0.30765 0.52646 0.0
H154 H 0.708 0.41408 0.49446 0.0
H155 H 0.60364 0.32807 0.49674 0.0
H156 H 0.79444 0.44665 0.6174 0.0
H157 H 0.71322 0.45268 0.57173 0.0
H158 H 0.74502 0.39125 0.60461 0.0
H159 H 0.76302 0.50709 0.58522 0.0
H160 H 0.6534 0.45537 0.52879 0.0
H161 H 0.55519 0.37634 0.55341 0.0
H162 H 0.8239 0.36485 0.54174 0.0
H163 H 0.82782 0.46544 0.54321 0.0
H164 H 0.60445 0.28383 0.61155 0.0
H165 H 0.58112 0.28851 0.55352 0.0
H166 H 0.54519 0.23101 0.6152 0.0
H167 H 0.52227 0.23559 0.55816 0.0
H168 H 0.67495 0.2517 0.58956 0.0
H169 H 0.76516 0.35632 0.59217 0.0
H170 H 0.70696 0.23052 0.60936 0.0
H171 H 0.79541 0.33343 0.6121 0.0
H172 H 0.62803 0.21177 0.51529 0.0
H173 H 0.58069 0.17257 0.56951 0.0
H174 H 0.68002 0.3929 0.6542 0.0
H175 H 0.67008 0.28965 0.65528 0.0
Li176 Li 0.36218 0.71129 0.45163 0.0
Li177 Li 0.34342 0.67175 0.42432 0.0
Li178 Li 0.30667 0.65356 0.45367 0.0
Li179 Li 0.36284 0.6541 0.45168 0.0
C180 C 0.3022 0.71334 0.43598 0.0
N181 N 0.269 0.75277 0.43488 0.0
C182 C 0.30251 0.73081 0.41958 0.0
C183 C 0.28453 0.71551 0.45172 0.0
C184 C 0.28573 0.75075 0.41933 0.0
C185 C 0.26802 0.73566 0.45091 0.0
C186 C 0.41317 0.71113 0.42149 0.0
C187 C 0.44186 0.70428 0.39439 0.0
N188 N 0.45698 0.73942 0.39094 0.0
C189 C 0.42918 0.74721 0.41777 0.0
C190 C 0.41974 0.6895 0.40981 0.0
C191 C 0.45119 0.76099 0.40222 0.0
C192 C 0.40938 0.76756 0.4744 0.0
N193 N 0.38645 0.75917 0.45992 0.0
C194 C 0.39943 0.81893 0.45774 0.0
C195 C 0.38148 0.78408 0.45143 0.0
C196 C 0.42318 0.82845 0.47279 0.0
C197 C 0.4281 0.80216 0.48109 0.0
H198 H 0.41318 0.74731 0.48073 0.0
H199 H 0.36376 0.77706 0.43969 0.0
C200 C 0.32626 0.6396 0.38851 0.0
N201 N 0.34166 0.67103 0.39765 0.0
C202 C 0.32532 0.63855 0.36898 0.0
C203 C 0.35596 0.70223 0.36865 0.0
C204 C 0.35602 0.70202 0.38817 0.0
C205 C 0.34047 0.67018 0.35875 0.0
H206 H 0.31459 0.61531 0.39638 0.0
H207 H 0.36786 0.72666 0.39577 0.0
C208 C 0.33988 0.67869 0.48968 0.0
N209 N 0.32603 0.68703 0.52644 0.0
C210 C 0.34183 0.65751 0.50368 0.0
C211 C 0.33145 0.70451 0.49444 0.0
C212 C 0.33456 0.662 0.52216 0.0
C213 C 0.3244 0.70822 0.51308 0.0
C214 C 0.31516 0.59227 0.43757 0.0
C215 C 0.28985 0.56652 0.44926 0.0
C216 C 0.33689 0.58438 0.4268 0.0
C217 C 0.28701 0.53336 0.45017 0.0
C218 C 0.33329 0.55094 0.42813 0.0
N219 N 0.30865 0.52635 0.43969 0.0
C220 C 0.23357 0.62595 0.45135 0.0
C221 C 0.25225 0.61585 0.48061 0.0
C222 C 0.19854 0.60863 0.45729 0.0
N223 N 0.25959 0.6295 0.46305 0.0
C224 C 0.2176 0.59841 0.48716 0.0
C225 C 0.19012 0.59464 0.47547 0.0
H226 H 0.24009 0.63658 0.43734 0.0
H227 H 0.27318 0.61822 0.48952 0.0
C228 C 0.42111 0.6432 0.45486 0.0
N229 N 0.38744 0.6313 0.46055 0.0
C230 C 0.4394 0.62655 0.46091 0.0
C231 C 0.3881 0.58579 0.47863 0.0
C232 C 0.37091 0.60338 0.47234 0.0
C233 C 0.42283 0.59731 0.47289 0.0
H234 H 0.43377 0.66563 0.44561 0.0
H235 H 0.34426 0.59467 0.47682 0.0
O236 O 0.31852 0.6937 0.43642 0.0
O237 O 0.39117 0.69708 0.4365 0.0
O238 O 0.34703 0.67463 0.47151 0.0
O239 O 0.31866 0.62503 0.4367 0.0
H240 H 0.3157 0.72915 0.40719 0.0
H241 H 0.28312 0.70143 0.46436 0.0
H242 H 0.28596 0.76458 0.40676 0.0
H243 H 0.25429 0.73758 0.46301 0.0
H244 H 0.44696 0.68781 0.38515 0.0
H245 H 0.42447 0.76434 0.42669 0.0
H246 H 0.40762 0.66155 0.41253 0.0
H247 H 0.46362 0.78883 0.3991 0.0
H248 H 0.39444 0.83809 0.451 0.0
H249 H 0.44656 0.80826 0.49248 0.0
H250 H 0.3125 0.61319 0.36201 0.0
H251 H 0.36838 0.7273 0.36144 0.0
H252 H 0.34872 0.63768 0.50031 0.0
H253 H 0.33077 0.72182 0.48393 0.0
H254 H 0.33575 0.64562 0.53311 0.0
H255 H 0.31778 0.72807 0.51694 0.0
H256 H 0.27275 0.57215 0.45765 0.0
H257 H 0.35653 0.60398 0.41764 0.0
H258 H 0.26768 0.51323 0.45923 0.0
H259 H 0.35011 0.54456 0.41998 0.0
H260 H 0.17824 0.60581 0.44765 0.0
H261 H 0.21248 0.58831 0.50131 0.0
H262 H 0.46606 0.63615 0.45604 0.0
H263 H 0.37451 0.56368 0.48807 0.0
Li264 Li 0.65887 0.30127 0.95261 0.0
Li265 Li 0.65729 0.35989 0.95186 0.0
Li266 Li 0.67788 0.33908 0.92523 0.0
Li267 Li 0.71266 0.35994 0.95209 0.0
C268 C 0.6089 0.30357 0.92165 0.0
N269 N 0.56834 0.28134 0.88958 0.0
C270 C 0.60096 0.3265 0.91208 0.0
C271 C 0.59606 0.26927 0.915 0.0
C272 C 0.58049 0.31479 0.89586 0.0
C273 C 0.5756 0.25854 0.89874 0.0
C274 C 0.69398 0.35146 0.98764 0.0
C275 C 0.71983 0.39346 0.01281 0.0
N276 N 0.735 0.37517 0.01951 0.0
C277 C 0.70964 0.33297 0.99482 0.0
C278 C 0.69897 0.38189 0.99671 0.0
C279 C 0.73038 0.34544 0.01093 0.0
C280 C 0.65529 0.2404 0.96837 0.0
N281 N 0.63586 0.25469 0.96224 0.0
C282 C 0.58232 0.2017 0.96943 0.0
C283 C 0.60008 0.23628 0.96275 0.0
C284 C 0.60165 0.1861 0.97579 0.0
C285 C 0.63863 0.20597 0.97529 0.0
H286 H 0.68374 0.25564 0.9677 0.0
H287 H 0.58533 0.24846 0.95791 0.0
C288 C 0.6299 0.40591 0.94879 0.0
N289 N 0.63176 0.38184 0.95996 0.0
C290 C 0.61189 0.4229 0.95478 0.0
C291 C 0.59782 0.38972 0.98357 0.0
C292 C 0.61597 0.37329 0.97699 0.0
C293 C 0.59572 0.41502 0.97245 0.0
H294 H 0.64278 0.4122 0.93531 0.0
H295 H 0.6177 0.35383 0.98551 0.0
C296 C 0.71339 0.30343 0.92444 0.0
N297 N 0.73618 0.27594 0.89658 0.0
C298 C 0.74302 0.3257 0.9138 0.0
C299 C 0.69561 0.26711 0.92108 0.0
C300 C 0.75403 0.31131 0.89972 0.0
C301 C 0.70749 0.25374 0.90689 0.0
C302 C 0.72661 0.42008 0.93487 0.0
C303 C 0.7553 0.42705 0.92353 0.0
C304 C 0.72716 0.44733 0.94529 0.0
C305 C 0.78444 0.46112 0.92308 0.0
C306 C 0.75678 0.48107 0.94444 0.0
N307 N 0.78458 0.48719 0.93347 0.0
C308 C 0.6859 0.36902 0.8894 0.0
C309 C 0.6681 0.30837 0.88851 0.0
C310 C 0.68544 0.3703 0.86989 0.0
N311 N 0.67756 0.33844 0.89831 0.0
C312 C 0.66768 0.30852 0.869 0.0
C313 C 0.67642 0.3398 0.85937 0.0
H314 H 0.69246 0.3924 0.89745 0.0
H315 H 0.66046 0.28407 0.8958 0.0
C316 C 0.78002 0.36929 0.95966 0.0
N317 N 0.76002 0.38476 0.96175 0.0
C318 C 0.81445 0.38568 0.96655 0.0
C319 C 0.80713 0.43355 0.97783 0.0
C320 C 0.77277 0.41612 0.97083 0.0
C321 C 0.82848 0.41835 0.9757 0.0
H322 H 0.76918 0.34406 0.95272 0.0
H323 H 0.75617 0.42748 0.97288 0.0
O324 O 0.62969 0.31486 0.93726 0.0
O325 O 0.67427 0.34013 0.97165 0.0
O326 O 0.70229 0.31698 0.93835 0.0
O327 O 0.69783 0.3869 0.93548 0.0
H328 H 0.61089 0.35318 0.91701 0.0
H329 H 0.60229 0.25133 0.92213 0.0
H330 H 0.57433 0.33232 0.88823 0.0
H331 H 0.56567 0.23215 0.89335 0.0
H332 H 0.72411 0.41708 0.01992 0.0
H333 H 0.70618 0.3095 0.98789 0.0
H334 H 0.68732 0.3967 0.99122 0.0
H335 H 0.74287 0.33154 0.01658 0.0
H336 H 0.5538 0.18745 0.96978 0.0
H337 H 0.6545 0.19482 0.97988 0.0
H338 H 0.61124 0.44247 0.94583 0.0
H339 H 0.58533 0.38249 0.99716 0.0
H340 H 0.75737 0.35377 0.9164 0.0
H341 H 0.6726 0.24948 0.92916 0.0
H342 H 0.77682 0.32827 0.89131 0.0
H343 H 0.69384 0.22572 0.90405 0.0
H344 H 0.75504 0.40639 0.91515 0.0
H345 H 0.70522 0.44239 0.95418 0.0
H346 H 0.80692 0.46685 0.91444 0.0
H347 H 0.7577 0.50235 0.95255 0.0
H348 H 0.69155 0.39484 0.86318 0.0
H349 H 0.6608 0.28437 0.86159 0.0
H350 H 0.83006 0.37309 0.96455 0.0
H351 H 0.81667 0.45838 0.98511 0.0
H352 H 0.34204 0.62195 0.18053 0.0
H353 H 0.34215 0.62186 0.2146 0.0
H354 H 0.34166 0.72002 0.21497 0.0
H355 H 0.34379 0.72147 0.18088 0.0
H356 H 0.38525 0.72242 0.24033 0.0
H357 H 0.26606 0.63848 0.224 0.0
H358 H 0.21829 0.58632 0.2082 0.0
H359 H 0.24993 0.51977 0.23592 0.0
H360 H 0.2982 0.57162 0.2517 0.0
H361 H 0.33126 0.714 0.33494 0.0
H362 H 0.33227 0.71417 0.3008 0.0
H363 H 0.34887 0.62522 0.30107 0.0
H364 H 0.34896 0.62543 0.33525 0.0
H365 H 0.29699 0.61796 0.2757 0.0
H366 H 0.41626 0.70376 0.29229 0.0
H367 H 0.46236 0.75663 0.30839 0.0
H368 H 0.42797 0.82065 0.28032 0.0
H369 H 0.38129 0.76803 0.26425 0.0
C370 C 0.34244 0.64381 0.18781 0.0
C371 C 0.34284 0.6717 0.17786 0.0
C372 C 0.342 0.64346 0.20734 0.0
C373 C 0.34129 0.67062 0.2174 0.0
C374 C 0.34201 0.69865 0.20754 0.0
C375 C 0.34283 0.69923 0.188 0.0
C376 C 0.3402 0.67005 0.23819 0.0
C377 C 0.36561 0.69973 0.24802 0.0
C378 C 0.31503 0.64023 0.24831 0.0
C379 C 0.28596 0.60898 0.23889 0.0
C380 C 0.26299 0.61276 0.22661 0.0
C381 C 0.2358 0.58324 0.21768 0.0
C382 C 0.23114 0.54977 0.22101 0.0
C383 C 0.2536 0.54572 0.23333 0.0
C384 C 0.28087 0.57516 0.24228 0.0
C385 C 0.33557 0.69471 0.32779 0.0
C386 C 0.34021 0.6698 0.33792 0.0
C387 C 0.33595 0.69475 0.30826 0.0
C388 C 0.34089 0.66986 0.29843 0.0
C389 C 0.34494 0.6446 0.30842 0.0
C390 C 0.34481 0.64468 0.32796 0.0
C391 C 0.34193 0.67028 0.27771 0.0
C392 C 0.31655 0.64059 0.26793 0.0
C393 C 0.36687 0.7002 0.26764 0.0
C394 C 0.39506 0.7319 0.2772 0.0
C395 C 0.41834 0.72906 0.28966 0.0
C396 C 0.44461 0.75899 0.29877 0.0
C397 C 0.44803 0.79196 0.29542 0.0
C398 C 0.42525 0.79508 0.28292 0.0
C399 C 0.3989 0.76522 0.2738 0.0
H400 H 0.46839 0.81511 0.30248 0.0
H401 H 0.21007 0.52695 0.21409 0.0
H402 H 0.71624 0.39664 0.68104 0.0
H403 H 0.71579 0.39714 0.71523 0.0
H404 H 0.63384 0.28786 0.71548 0.0
H405 H 0.6334 0.28742 0.68129 0.0
H406 H 0.62057 0.32643 0.74042 0.0
H407 H 0.71877 0.3111 0.72449 0.0
H408 H 0.77466 0.32645 0.70876 0.0
H409 H 0.82599 0.42655 0.73688 0.0
H410 H 0.77026 0.41198 0.75259 0.0
H411 H 0.63071 0.28789 0.83536 0.0
H412 H 0.6309 0.28878 0.8013 0.0
H413 H 0.71958 0.39484 0.80193 0.0
H414 H 0.72113 0.39333 0.83599 0.0
H415 H 0.72951 0.35891 0.77635 0.0
H416 H 0.63258 0.37517 0.79252 0.0
H417 H 0.57695 0.36119 0.80812 0.0
H418 H 0.52347 0.26166 0.77952 0.0
H419 H 0.57889 0.27484 0.76393 0.0
C420 C 0.69788 0.3728 0.68836 0.0
C421 C 0.67495 0.34194 0.67843 0.0
C422 C 0.69787 0.37305 0.70791 0.0
C423 C 0.67507 0.34241 0.71791 0.0
C424 C 0.65176 0.31175 0.70804 0.0
C425 C 0.65177 0.31146 0.6885 0.0
C426 C 0.67554 0.34227 0.73866 0.0
C427 C 0.64427 0.33312 0.7483 0.0
C428 C 0.70669 0.3519 0.74892 0.0
C429 C 0.74027 0.36058 0.73958 0.0
C430 C 0.74192 0.33649 0.72722 0.0
C431 C 0.77357 0.34503 0.71832 0.0
C432 C 0.80384 0.37749 0.72179 0.0
C433 C 0.80252 0.40143 0.7342 0.0
C434 C 0.77092 0.39304 0.74311 0.0
C435 C 0.65061 0.31129 0.8283 0.0
C436 C 0.67591 0.34056 0.83853 0.0
C437 C 0.65033 0.31194 0.80877 0.0
C438 C 0.67486 0.34212 0.799 0.0
C439 C 0.70025 0.37131 0.80913 0.0
C440 C 0.70083 0.37053 0.82866 0.0
C441 C 0.67447 0.34304 0.77821 0.0
C442 C 0.70577 0.35232 0.76852 0.0
C443 C 0.64338 0.33376 0.76792 0.0
C444 C 0.60997 0.32587 0.77719 0.0
C445 C 0.60901 0.3502 0.78966 0.0
C446 C 0.57751 0.34243 0.79848 0.0
C447 C 0.54672 0.31052 0.79485 0.0
C448 C 0.54734 0.28635 0.78234 0.0
C449 C 0.57878 0.29397 0.77349 0.0
H450 H 0.52236 0.30456 0.8017 0.0
H451 H 0.82832 0.38405 0.71488 0.0
H452 H 0.46288 0.57862 0.05945 0.0
H453 H 0.49264 0.54815 0.04749 0.0
H454 H 0.44487 0.53832 0.99343 0.0
H455 H 0.41414 0.56787 1.00546 0.0
H456 H 0.44158 0.47753 1.00365 0.0
H457 H 0.53053 0.59956 1.00085 0.0
H458 H 0.56806 0.65981 0.01305 0.0
H459 H 0.61284 0.62106 0.05344 0.0
H460 H 0.5752 0.56047 0.04166 0.0
H461 H 0.55153 0.43063 0.95291 0.0
H462 H 0.52141 0.46123 0.96427 0.0
H463 H 0.56715 0.47088 0.0189 0.0
H464 H 0.59804 0.44107 1.00752 0.0
H465 H 0.5715 0.53209 0.00794 0.0
H466 H 0.48204 0.40995 0.01086 0.0
H467 H 0.44449 0.34975 0.99861 0.0
H468 H 0.40076 0.38888 0.95781 0.0
H469 H 0.43843 0.44943 0.96966 0.0
C470 C 0.45844 0.56971 0.04506 0.0
C471 C 0.43616 0.57574 0.0334 0.0
C472 C 0.47575 0.55259 0.03819 0.0
C473 C 0.47131 0.54132 0.0195 0.0
C474 C 0.44879 0.54692 0.00788 0.0
C475 C 0.43148 0.56408 0.01473 0.0
C476 C 0.48998 0.52348 0.01213 0.0
C477 C 0.47003 0.48966 1.00434 0.0
C478 C 0.52704 0.539 0.0134 0.0
C479 C 0.54979 0.57542 0.02049 0.0
C480 C 0.54817 0.60384 0.01244 0.0
C481 C 0.5695 0.63806 0.01926 0.0
C482 C 0.59275 0.64425 0.03404 0.0
C483 C 0.59478 0.61623 0.04201 0.0
C484 C 0.57348 0.58194 0.03525 0.0
C485 C 0.55537 0.43948 0.9673 0.0
C486 C 0.57711 0.43332 0.97933 0.0
C487 C 0.5379 0.4567 0.97382 0.0
C488 C 0.54175 0.46802 0.99248 0.0
C489 C 0.56371 0.46225 1.00446 0.0
C490 C 0.5811 0.44495 0.99798 0.0
C491 C 0.52309 0.48612 0.99951 0.0
C492 C 0.54305 0.51998 1.00722 0.0
C493 C 0.48605 0.47066 0.99815 0.0
C494 C 0.46333 0.43427 0.99102 0.0
C495 C 0.46463 0.40576 0.99917 0.0
C496 C 0.44329 0.37157 0.99232 0.0
C497 C 0.42033 0.36551 0.9774 0.0
C498 C 0.4186 0.39362 0.96934 0.0
C499 C 0.43992 0.42788 0.97613 0.0
H500 H 0.40382 0.33901 0.97212 0.0
H501 H 0.60925 0.67076 0.0393 0.0
H502 H 0.15697 0.5355 0.49741 0.0
H503 H 0.09626 0.50566 0.5086 0.0
H504 H 0.07784 0.58088 0.47927 0.0
H505 H 0.13904 0.61188 0.46873 0.0
H506 H 0.04977 0.56943 0.51293 0.0
H507 H 0.0471 0.49644 0.46242 0.0
H508 H 0.06572 0.46065 0.44437 0.0
H509 H 0.04016 0.38985 0.49076 0.0
H510 H 0.02183 0.42551 0.50919 0.0
H511 H 0.8625 0.47196 0.51637 0.0
H512 H 0.9234 0.5018 0.50541 0.0
H513 H 0.94433 0.4331 0.53933 0.0
H514 H 0.88367 0.4036 0.55077 0.0
H515 H 0.97072 0.44094 0.50333 0.0
H516 H 0.97306 0.51494 0.55361 0.0
H517 H 0.95352 0.55074 0.57092 0.0
H518 H 0.97876 0.61981 0.52376 0.0
H519 H 0.99798 0.58409 0.50606 0.0
C520 C 0.14016 0.54597 0.49349 0.0
C521 C 0.15296 0.57611 0.48213 0.0
C522 C 0.10528 0.5286 0.49972 0.0
C523 C 0.08228 0.5407 0.49456 0.0
C524 C 0.09503 0.57094 0.48337 0.0
C525 C 0.12996 0.58844 0.4772 0.0
C526 C 0.04506 0.52209 0.50101 0.0
C527 C 0.03237 0.54143 0.51059 0.0
C528 C 0.02249 0.48539 0.49831 0.0
C529 C 0.03343 0.46385 0.48725 0.0
C530 C 0.04572 0.4734 0.46883 0.0
C531 C 0.05617 0.45311 0.45852 0.0
C532 C 0.05422 0.42305 0.46643 0.0
C533 C 0.04171 0.41317 0.48466 0.0
C534 C 0.03126 0.43339 0.49504 0.0
C535 C 0.8801 0.46341 0.52171 0.0
C536 C 0.86812 0.43544 0.53456 0.0
C537 C 0.91489 0.48042 0.51534 0.0
C538 C 0.93845 0.46984 0.52167 0.0
C539 C 0.92653 0.44161 0.53424 0.0
C540 C 0.89178 0.42469 0.54071 0.0
C541 C 0.97557 0.48832 0.5152 0.0
C542 C 0.98819 0.46894 0.50564 0.0
C543 C 0.998 0.52501 0.5178 0.0
C544 C 0.98663 0.54663 0.52845 0.0
C545 C 0.97417 0.53759 0.54687 0.0
C546 C 0.96321 0.5579 0.55677 0.0
C547 C 0.96481 0.58748 0.54843 0.0
C548 C 0.97749 0.59686 0.53019 0.0
C549 C 0.98845 0.57661 0.52023 0.0
H550 H 0.95632 0.60317 0.55611 0.0
H551 H 0.06232 0.40738 0.45842 0.0
H552 H 0.6173 0.16027 1.00689 0.0
H553 H 0.58697 0.09957 0.01837 0.0
H554 H 0.51449 0.06796 0.97192 0.0
H555 H 0.54445 0.12873 0.96053 0.0
H556 H 0.47978 0.03872 1.00275 0.0
H557 H 0.58293 0.04977 0.97343 0.0
H558 H 0.64653 0.07636 0.96723 0.0
H559 H 0.66416 0.05912 0.02433 0.0
H560 H 0.60069 0.03285 0.03094 0.0
H561 H 0.41172 0.85368 0.00938 0.0
H562 H 0.4423 0.91479 0.9987 0.0
H563 H 0.50466 0.94673 0.04912 0.0
H564 H 0.4735 0.88584 0.06025 0.0
H565 H 0.5445 0.97553 0.01668 0.0
H566 H 0.4399 0.96335 0.04534 0.0
H567 H 0.3759 0.93559 0.05058 0.0
H568 H 0.36078 0.95374 0.99322 0.0
H569 H 0.42467 0.98115 0.98756 0.0
C570 C 0.59505 0.14032 0.99906 0.0
C571 C 0.58331 0.14925 0.98278 0.0
C572 C 0.57774 0.10562 1.00562 0.0
C573 C 0.5487 0.07905 0.99588 0.0
C574 C 0.5368 0.08799 0.97969 0.0
C575 C 0.5539 0.12273 0.97321 0.0
C576 C 0.53047 0.042 1.00264 0.0
C577 C 0.49391 0.02479 1.00555 0.0
C578 C 0.54894 0.02396 1.00666 0.0
C579 C 0.58711 0.03967 1.00272 0.0
C580 C 0.60041 0.0519 0.9847 0.0
C581 C 0.63642 0.06687 0.98111 0.0
C582 C 0.65938 0.06951 0.99539 0.0
C583 C 0.64635 0.0571 0.01329 0.0
C584 C 0.61035 0.04214 0.01696 0.0
C585 C 0.43159 0.87369 0.01836 0.0
C586 C 0.43997 0.86472 0.03575 0.0
C587 C 0.44918 0.90861 0.01216 0.0
C588 C 0.47558 0.93529 0.02317 0.0
C589 C 0.48442 0.92648 0.04039 0.0
C590 C 0.46666 0.8916 0.04668 0.0
C591 C 0.49395 0.97241 0.0167 0.0
C592 C 0.53049 0.98957 0.01387 0.0
C593 C 0.47544 0.9903 0.01259 0.0
C594 C 0.43703 0.97399 0.01598 0.0
C595 C 0.42289 0.96115 0.0338 0.0
C596 C 0.38664 0.94553 0.03685 0.0
C597 C 0.36428 0.94282 0.02223 0.0
C598 C 0.37813 0.95581 1.00453 0.0
C599 C 0.41436 0.97142 1.00139 0.0
H600 H 0.33622 0.93072 0.02462 0.0
H601 H 0.68726 0.0811 0.99258 0.0
H602 H 0.53553 0.38962 0.52479 0.0
H603 H 0.50587 0.42042 0.51327 0.0
H604 H 0.59798 0.52036 0.52622 0.0
H605 H 0.62731 0.48969 0.53852 0.0
H606 H 0.54021 0.52026 0.5371 0.0
H607 H 0.57792 0.48942 0.48099 0.0
H608 H 0.58404 0.44982 0.45876 0.0
H609 H 0.47161 0.38919 0.45247 0.0
H610 H 0.46478 0.42816 0.47488 0.0
H611 H 0.49108 0.62699 0.48499 0.0
H612 H 0.52186 0.59675 0.49591 0.0
H613 H 0.42793 0.49622 0.48679 0.0
H614 H 0.39716 0.52628 0.47551 0.0
H615 H 0.48718 0.49724 0.47369 0.0
H616 H 0.45007 0.52849 0.5302 0.0
H617 H 0.44466 0.5688 0.55223 0.0
H618 H 0.55729 0.62974 0.55737 0.0
H619 H 0.56339 0.59005 0.53515 0.0
C620 C 0.5494 0.41814 0.52536 0.0
C621 C 0.58386 0.43715 0.53258 0.0
C622 C 0.53253 0.43575 0.51856 0.0
C623 C 0.54985 0.47275 0.51864 0.0
C624 C 0.58414 0.4918 0.52593 0.0
C625 C 0.601 0.47422 0.5328 0.0
C626 C 0.53201 0.49154 0.51137 0.0
C627 C 0.52908 0.5156 0.52313 0.0
C628 C 0.51681 0.48494 0.49328 0.0
C629 C 0.52083 0.46152 0.47975 0.0
C630 C 0.55448 0.46748 0.47498 0.0
C631 C 0.55809 0.44518 0.46233 0.0
C632 C 0.52823 0.41695 0.45424 0.0
C633 C 0.49471 0.41104 0.45876 0.0
C634 C 0.49096 0.43325 0.47142 0.0
C635 C 0.47706 0.59844 0.48517 0.0
C636 C 0.44165 0.57902 0.47943 0.0
C637 C 0.4946 0.58121 0.49155 0.0
C638 C 0.47708 0.54424 0.49233 0.0
C639 C 0.4419 0.52477 0.48635 0.0
C640 C 0.42429 0.54198 0.48005 0.0
C641 C 0.49541 0.52587 0.49943 0.0
C642 C 0.4984 0.50191 0.48764 0.0
C643 C 0.5108 0.53267 0.51745 0.0
C644 C 0.50719 0.5565 0.53087 0.0
C645 C 0.4737 0.55065 0.53591 0.0
C646 C 0.4705 0.57336 0.54845 0.0
C647 C 0.50062 0.60187 0.55616 0.0
C648 C 0.53399 0.60768 0.55137 0.0
C649 C 0.53733 0.58507 0.53882 0.0
H650 H 0.49809 0.61942 0.56587 0.0
H651 H 0.53108 0.39972 0.44445 0.0
H652 H 0.13811 0.52632 0.04614 0.0
H653 H 0.07679 0.49589 0.03576 0.0
H654 H 0.09059 0.59341 0.01346 0.0
H655 H 0.15142 0.62439 0.02461 0.0
H656 H 0.02959 0.5588 0.03112 0.0
H657 H 0.09036 0.52898 0.98508 0.0
H658 H 0.12836 0.50615 0.97402 0.0
H659 H 0.05716 0.40475 0.99751 0.0
H660 H 0.01896 0.42712 0.00893 0.0
H661 H 0.87813 0.48821 0.97303 0.0
H662 H 0.93849 0.51788 0.98502 0.0
H663 H 0.92196 0.41908 1.00698 0.0
H664 H 0.86163 0.38921 0.99485 0.0
H665 H 0.98391 0.45354 0.99009 0.0
H666 H 0.92249 0.48303 0.0356 0.0
H667 H 0.8844 0.50582 0.04656 0.0
H668 H 0.9567 0.60779 0.02405 0.0
H669 H 0.995 0.58547 0.01273 0.0
C670 C 0.12803 0.54143 0.03924 0.0
C671 C 0.14985 0.57784 0.03615 0.0
C672 C 0.09303 0.52388 0.03311 0.0
C673 C 0.0792 0.54224 0.02356 0.0
C674 C 0.10072 0.57864 0.0207 0.0
C675 C 0.13564 0.59626 0.02692 0.0
C676 C 0.04231 0.52359 0.01656 0.0
C677 C 0.01973 0.53605 0.02195 0.0
C678 C 0.02915 0.49337 1.00497 0.0
C679 C 0.05198 0.47983 0.99801 0.0
C680 C 0.08294 0.50189 0.988 0.0
C681 C 0.10449 0.48902 0.98165 0.0
C682 C 0.09523 0.45405 0.9851 0.0
C683 C 0.06433 0.43184 0.99487 0.0
C684 C 0.0427 0.44459 1.00127 0.0
C685 C 0.88728 0.47287 0.98055 0.0
C686 C 0.8651 0.43639 0.98305 0.0
C687 C 0.92178 0.48986 0.98741 0.0
C688 C 0.93465 0.47081 0.99713 0.0
C689 C 0.91262 0.43433 0.99952 0.0
C690 C 0.87819 0.41728 0.99256 0.0
C691 C 0.97122 0.48883 1.00458 0.0
C692 C 0.99374 0.47625 0.99928 0.0
C693 C 0.98432 0.51894 0.01625 0.0
C694 C 0.96146 0.53248 0.02317 0.0
C695 C 0.93015 0.51024 0.03287 0.0
C696 C 0.90854 0.52309 0.03917 0.0
C697 C 0.91808 0.5582 0.03596 0.0
C698 C 0.94932 0.58058 0.02651 0.0
C699 C 0.97101 0.56786 0.02016 0.0
H700 H 0.90131 0.56809 0.04084 0.0
H701 H 0.11196 0.44414 0.98018 0.0
H702 H 0.58789 0.12627 0.55996 0.0
H703 H 0.55777 0.06605 0.54826 0.0
H704 H 0.54776 0.103 0.49398 0.0
H705 H 0.5752 0.16305 0.50599 0.0
H706 H 0.4901 0.04699 0.50123 0.0
H707 H 0.61074 0.07649 0.50479 0.0
H708 H 0.66878 0.0976 0.51953 0.0
H709 H 0.62198 0.01427 0.55998 0.0
H710 H 0.56356 0.99293 0.54562 0.0
H711 H 0.45066 0.88951 0.45228 0.0
H712 H 0.48115 0.95016 0.46382 0.0
H713 H 0.47159 0.91244 0.52035 0.0
H714 H 0.44004 0.8516 0.50906 0.0
H715 H 0.53949 0.96833 0.51141 0.0
H716 H 0.41818 0.93975 0.5065 0.0
H717 H 0.36168 0.91896 0.49007 0.0
H718 H 0.41288 1.00192 0.44973 0.0
H719 H 0.46981 0.0229 0.46578 0.0
C720 C 0.57885 0.12171 0.5456 0.0
C721 C 0.58413 0.14986 0.53397 0.0
C722 C 0.5621 0.08715 0.53882 0.0
C723 C 0.55106 0.07989 0.5201 0.0
C724 C 0.55619 0.10785 0.50845 0.0
C725 C 0.57236 0.14236 0.51531 0.0
C726 C 0.53349 0.04313 0.51277 0.0
C727 C 0.50128 0.03006 0.50324 0.0
C728 C 0.54759 0.02061 0.5156 0.0
C729 C 0.58272 0.03331 0.52423 0.0
C730 C 0.61279 0.06281 0.51691 0.0
C731 C 0.64576 0.0748 0.52518 0.0
C732 C 0.64905 0.05734 0.54071 0.0
C733 C 0.61938 0.0278 0.54796 0.0
C734 C 0.58634 0.01572 0.53975 0.0
C735 C 0.4546 0.89398 0.4672 0.0
C736 C 0.44264 0.86551 0.47973 0.0
C737 C 0.47224 0.92872 0.47374 0.0
C738 C 0.47842 0.93574 0.49294 0.0
C739 C 0.46715 0.90754 0.50547 0.0
C740 C 0.44925 0.87277 0.49896 0.0
C741 C 0.49639 0.97254 0.49996 0.0
C742 C 0.52857 0.98549 0.50941 0.0
C743 C 0.48258 0.99511 0.4968 0.0
C744 C 0.44831 0.98268 0.48724 0.0
C745 C 0.41744 0.95339 0.49404 0.0
C746 C 0.38533 0.9416 0.48481 0.0
C747 C 0.38371 0.95905 0.46884 0.0
C748 C 0.41418 0.9884 0.46209 0.0
C749 C 0.44637 1.00027 0.47126 0.0
H750 H 0.35883 0.94988 0.46171 0.0
H751 H 0.6746 0.06666 0.5471 0.0
loop_
_geom_bond_atom_site_label_1
_geom_bond_atom_site_label_2
_geom_bond_distance
_geom_bond_site_symmetry_2
_ccdc_geom_bond_type
Li0 N17 1.990 . S
Li0 O60 1.956 . S
Li0 O61 1.970 . S
Li0 O62 1.961 . S
Li1 N25 1.990 . S
Li1 O60 1.970 . S
Li1 O61 1.956 . S
Li1 O63 1.961 . S
Li2 N47 1.990 . S
Li2 O60 1.961 . S
Li2 O62 1.956 . S
Li2 O63 1.970 . S
Li3 N53 1.990 . S
Li3 O61 1.961 . S
Li3 O62 1.970 . S
Li3 O63 1.956 . S
C4 C6 1.348 . S
C4 C7 1.356 . S
C4 O60 1.325 . S
N5 C8 1.314 . S
N5 C9 1.279 . S
C6 C4 1.348 . S
C6 C8 1.353 . S
C6 H64 0.929 . S
C7 C4 1.356 . S
C7 C9 1.358 . S
C7 H65 0.930 . S
C8 N5 1.314 . S
C8 C6 1.353 . S
C8 H66 0.930 . S
C9 N5 1.279 . S
C9 C7 1.358 . S
C9 H67 0.930 . S
C10 C13 1.348 . S
C10 C14 1.356 . S
C10 O61 1.325 . S
C11 N12 1.279 . S
C11 C14 1.358 . S
C11 H68 0.930 . S
N12 C11 1.279 . S
N12 C15 1.314 . S
C13 C10 1.348 . S
C13 C15 1.353 . S
C13 H69 0.929 . S
C14 C10 1.356 . S
C14 C11 1.358 . S
C14 H70 0.930 . S
C15 N12 1.314 . S
C15 C13 1.353 . S
C15 H71 0.930 . S
C16 N17 1.314 . S
C16 C21 1.353 . S
C16 H22 0.930 . S
N17 Li0 1.990 . S
N17 C16 1.314 . S
N17 C19 1.279 . S
C18 C19 1.358 . S
C18 C20 1.356 . S
C18 H72 0.930 . S
C19 N17 1.279 . S
C19 C18 1.358 . S
C19 H23 0.930 . S
C20 C18 1.356 . S
C20 C21 1.348 . S
C21 C16 1.353 . S
C21 C20 1.348 . S
C21 H73 0.929 . S
H22 C16 0.930 . S
H23 C19 0.930 . S
C24 N25 1.314 . S
C24 C26 1.353 . S
C24 H30 0.930 . S
N25 Li1 1.990 . S
N25 C24 1.314 . S
N25 C28 1.279 . S
C26 C24 1.353 . S
C26 C29 1.348 . S
C26 H74 0.929 . S
C27 C28 1.358 . S
C27 C29 1.356 . S
C27 H75 0.930 . S
C28 N25 1.279 . S
C28 C27 1.358 . S
C28 H31 0.930 . S
C29 C26 1.348 . S
C29 C27 1.356 . S
H30 C24 0.930 . S
H31 C28 0.930 . S
C32 C34 1.348 . S
C32 C35 1.356 . S
C32 O62 1.325 . S
N33 C36 1.314 . S
N33 C37 1.279 . S
C34 C32 1.348 . S
C34 C36 1.353 . S
C34 H76 0.929 . S
C35 C32 1.356 . S
C35 C37 1.358 . S
C35 H77 0.930 . S
C36 N33 1.314 . S
C36 C34 1.353 . S
C36 H78 0.930 . S
C37 N33 1.279 . S
C37 C35 1.358 . S
C37 H79 0.930 . S
C38 C39 1.348 . S
C38 C40 1.356 . S
C38 O63 1.325 . S
C39 C38 1.348 . S
C39 C41 1.353 1_554 S
C39 H80 0.929 . S
C40 C38 1.356 . S
C40 C42 1.358 1_554 S
C40 H81 0.930 . S
C41 C39 1.353 1_556 S
C41 N43 1.314 . S
C41 H82 0.930 . S
C42 C40 1.358 1_556 S
C42 N43 1.279 . S
C42 H83 0.930 . S
N43 C41 1.314 . S
N43 C42 1.279 . S
C44 C46 1.353 . S
C44 N47 1.314 . S
C44 H50 0.930 . S
C45 N47 1.279 . S
C45 C48 1.358 . S
C45 H51 0.930 . S
C46 C44 1.353 . S
C46 C49 1.348 . S
C46 H84 0.929 . S
N47 Li2 1.990 . S
N47 C44 1.314 . S
N47 C45 1.279 . S
C48 C45 1.358 . S
C48 C49 1.356 . S
C48 H85 0.930 . S
C49 C46 1.348 . S
C49 C48 1.356 . S
H50 C44 0.930 . S
H51 C45 0.930 . S
C52 N53 1.314 . S
C52 C54 1.353 . S
C52 H58 0.930 . S
N53 Li3 1.990 . S
N53 C52 1.314 . S
N53 C56 1.279 . S
C54 C52 1.353 . S
C54 C57 1.348 . S
C54 H86 0.929 . S
C55 C56 1.358 . S
C55 C57 1.356 . S
C55 H87 0.930 . S
C56 N53 1.279 . S
C56 C55 1.358 . S
C56 H59 0.930 . S
C57 C54 1.348 . S
C57 C55 1.356 . S
H58 C52 0.930 . S
H59 C56 0.930 . S
O60 Li0 1.956 . S
O60 Li1 1.970 . S
O60 Li2 1.961 . S
O60 C4 1.325 . S
O61 Li0 1.970 . S
O61 Li1 1.956 . S
O61 Li3 1.961 . S
O61 C10 1.325 . S
O62 Li0 1.961 . S
O62 Li2 1.956 . S
O62 Li3 1.970 . S
O62 C32 1.325 . S
O63 Li1 1.961 . S
O63 Li2 1.970 . S
O63 Li3 1.956 . S
O63 C38 1.325 . S
H64 C6 0.929 . S
H65 C7 0.930 . S
H66 C8 0.930 . S
H67 C9 0.930 . S
H68 C11 0.930 . S
H69 C13 0.929 . S
H70 C14 0.930 . S
H71 C15 0.930 . S
H72 C18 0.930 . S
H73 C21 0.929 . S
H74 C26 0.929 . S
H75 C27 0.930 . S
H76 C34 0.929 . S
H77 C35 0.930 . S
H78 C36 0.930 . S
H79 C37 0.930 . S
H80 C39 0.929 . S
H81 C40 0.930 . S
H82 C41 0.930 . S
H83 C42 0.930 . S
H84 C46 0.929 . S
H85 C48 0.930 . S
H86 C54 0.929 . S
H87 C55 0.930 . S
Li88 N105 1.990 . S
Li88 O148 1.956 . S
Li88 O149 1.970 . S
Li88 O150 1.961 . S
Li89 N113 1.990 . S
Li89 O148 1.970 . S
Li89 O149 1.956 . S
Li89 O151 1.961 . S
Li90 N135 1.990 . S
Li90 O148 1.961 . S
Li90 O150 1.956 . S
Li90 O151 1.970 . S
Li91 N141 1.990 . S
Li91 O149 1.961 . S
Li91 O150 1.970 . S
Li91 O151 1.956 . S
C92 C94 1.348 . S
C92 C95 1.356 . S
C92 O148 1.325 . S
N93 C96 1.314 . S
N93 C97 1.279 . S
C94 C92 1.348 . S
C94 C96 1.353 . S
C94 H152 0.929 . S
C95 C92 1.356 . S
C95 C97 1.358 . S
C95 H153 0.930 . S
C96 N93 1.314 . S
C96 C94 1.353 . S
C96 H154 0.930 . S
C97 N93 1.279 . S
C97 C95 1.358 . S
C97 H155 0.930 . S
C98 C101 1.348 . S
C98 C102 1.356 . S
C98 O149 1.325 . S
C99 N100 1.279 . S
C99 C102 1.358 . S
C99 H156 0.930 . S
N100 C99 1.279 . S
N100 C103 1.314 . S
C101 C98 1.348 . S
C101 C103 1.353 . S
C101 H157 0.929 . S
C102 C98 1.356 . S
C102 C99 1.358 . S
C102 H158 0.930 . S
C103 N100 1.314 . S
C103 C101 1.353 . S
C103 H159 0.930 . S
C104 N105 1.314 . S
C104 C109 1.353 . S
C104 H110 0.930 . S
N105 Li88 1.990 . S
N105 C104 1.314 . S
N105 C107 1.279 . S
C106 C107 1.358 . S
C106 C108 1.356 . S
C106 H160 0.930 . S
C107 N105 1.279 . S
C107 C106 1.358 . S
C107 H111 0.930 . S
C108 C106 1.356 . S
C108 C109 1.348 . S
C109 C104 1.353 . S
C109 C108 1.348 . S
C109 H161 0.929 . S
H110 C104 0.930 . S
H111 C107 0.930 . S
C112 N113 1.314 . S
C112 C114 1.353 . S
C112 H118 0.930 . S
N113 Li89 1.990 . S
N113 C112 1.314 . S
N113 C116 1.279 . S
C114 C112 1.353 . S
C114 C117 1.348 . S
C114 H162 0.929 . S
C115 C116 1.358 . S
C115 C117 1.356 . S
C115 H163 0.930 . S
C116 N113 1.279 . S
C116 C115 1.358 . S
C116 H119 0.930 . S
C117 C114 1.348 . S
C117 C115 1.356 . S
H118 C112 0.930 . S
H119 C116 0.930 . S
C120 C122 1.348 . S
C120 C123 1.356 . S
C120 O150 1.325 . S
N121 C124 1.314 . S
N121 C125 1.279 . S
C122 C120 1.348 . S
C122 C124 1.353 . S
C122 H164 0.929 . S
C123 C120 1.356 . S
C123 C125 1.358 . S
C123 H165 0.930 . S
C124 N121 1.314 . S
C124 C122 1.353 . S
C124 H166 0.930 . S
C125 N121 1.279 . S
C125 C123 1.358 . S
C125 H167 0.930 . S
C126 C127 1.348 . S
C126 C128 1.356 . S
C126 O151 1.325 . S
C127 C126 1.348 . S
C127 C129 1.353 . S
C127 H168 0.929 . S
C128 C126 1.356 . S
C128 C130 1.358 . S
C128 H169 0.930 . S
C129 C127 1.353 . S
C129 N131 1.314 . S
C129 H170 0.930 . S
C130 C128 1.358 . S
C130 N131 1.279 . S
C130 H171 0.930 . S
N131 C129 1.314 . S
N131 C130 1.279 . S
C132 C134 1.353 . S
C132 N135 1.314 . S
C132 H138 0.930 . S
C133 N135 1.279 . S
C133 C136 1.358 . S
C133 H139 0.930 . S
C134 C132 1.353 . S
C134 C137 1.348 . S
C134 H172 0.929 . S
N135 Li90 1.990 . S
N135 C132 1.314 . S
N135 C133 1.279 . S
C136 C133 1.358 . S
C136 C137 1.356 . S
C136 H173 0.930 . S
C137 C134 1.348 . S
C137 C136 1.356 . S
H138 C132 0.930 . S
H139 C133 0.930 . S
C140 N141 1.314 . S
C140 C142 1.353 . S
C140 H146 0.930 . S
N141 Li91 1.990 . S
N141 C140 1.314 . S
N141 C144 1.279 . S
C142 C140 1.353 . S
C142 C145 1.348 . S
C142 H174 0.929 . S
C143 C144 1.358 . S
C143 C145 1.356 . S
C143 H175 0.930 . S
C144 N141 1.279 . S
C144 C143 1.358 . S
C144 H147 0.930 . S
C145 C142 1.348 . S
C145 C143 1.356 . S
H146 C140 0.930 . S
H147 C144 0.930 . S
O148 Li88 1.956 . S
O148 Li89 1.970 . S
O148 Li90 1.961 . S
O148 C92 1.325 . S
O149 Li88 1.970 . S
O149 Li89 1.956 . S
O149 Li91 1.961 . S
O149 C98 1.325 . S
O150 Li88 1.961 . S
O150 Li90 1.956 . S
O150 Li91 1.970 . S
O150 C120 1.325 . S
O151 Li89 1.961 . S
O151 Li90 1.970 . S
O151 Li91 1.956 . S
O151 C126 1.325 . S
H152 C94 0.929 . S
H153 C95 0.930 . S
H154 C96 0.930 . S
H155 C97 0.930 . S
H156 C99 0.930 . S
H157 C101 0.929 . S
H158 C102 0.930 . S
H159 C103 0.930 . S
H160 C106 0.930 . S
H161 C109 0.929 . S
H162 C114 0.929 . S
H163 C115 0.930 . S
H164 C122 0.929 . S
H165 C123 0.930 . S
H166 C124 0.930 . S
H167 C125 0.930 . S
H168 C127 0.929 . S
H169 C128 0.930 . S
H170 C129 0.930 . S
H171 C130 0.930 . S
H172 C134 0.929 . S
H173 C136 0.930 . S
H174 C142 0.929 . S
H175 C143 0.930 . S
Li176 N193 1.990 . S
Li176 O236 1.956 . S
Li176 O237 1.970 . S
Li176 O238 1.961 . S
Li177 N201 1.990 . S
Li177 O236 1.970 . S
Li177 O237 1.956 . S
Li177 O239 1.961 . S
Li178 N223 1.990 . S
Li178 O236 1.961 . S
Li178 O238 1.956 . S
Li178 O239 1.970 . S
Li179 N229 1.990 . S
Li179 O237 1.961 . S
Li179 O238 1.970 . S
Li179 O239 1.956 . S
C180 C182 1.348 . S
C180 C183 1.356 . S
C180 O236 1.325 . S
N181 C184 1.314 . S
N181 C185 1.279 . S
C182 C180 1.348 . S
C182 C184 1.353 . S
C182 H240 0.929 . S
C183 C180 1.356 . S
C183 C185 1.358 . S
C183 H241 0.930 . S
C184 N181 1.314 . S
C184 C182 1.353 . S
C184 H242 0.930 . S
C185 N181 1.279 . S
C185 C183 1.358 . S
C185 H243 0.930 . S
C186 C189 1.348 . S
C186 C190 1.356 . S
C186 O237 1.325 . S
C187 N188 1.279 . S
C187 C190 1.358 . S
C187 H244 0.930 . S
N188 C187 1.279 . S
N188 C191 1.314 . S
C189 C186 1.348 . S
C189 C191 1.353 . S
C189 H245 0.929 . S
C190 C186 1.356 . S
C190 C187 1.358 . S
C190 H246 0.930 . S
C191 N188 1.314 . S
C191 C189 1.353 . S
C191 H247 0.930 . S
C192 N193 1.314 . S
C192 C197 1.353 . S
C192 H198 0.930 . S
N193 Li176 1.990 . S
N193 C192 1.314 . S
N193 C195 1.279 . S
C194 C195 1.358 . S
C194 C196 1.356 . S
C194 H248 0.930 . S
C195 N193 1.279 . S
C195 C194 1.358 . S
C195 H199 0.930 . S
C196 C194 1.356 . S
C196 C197 1.348 . S
C197 C192 1.353 . S
C197 C196 1.348 . S
C197 H249 0.929 . S
H198 C192 0.930 . S
H199 C195 0.930 . S
C200 N201 1.314 . S
C200 C202 1.353 . S
C200 H206 0.930 . S
N201 Li177 1.990 . S
N201 C200 1.314 . S
N201 C204 1.279 . S
C202 C200 1.353 . S
C202 C205 1.348 . S
C202 H250 0.929 . S
C203 C204 1.358 . S
C203 C205 1.356 . S
C203 H251 0.930 . S
C204 N201 1.279 . S
C204 C203 1.358 . S
C204 H207 0.930 . S
C205 C202 1.348 . S
C205 C203 1.356 . S
H206 C200 0.930 . S
H207 C204 0.930 . S
C208 C210 1.348 . S
C208 C211 1.356 . S
C208 O238 1.325 . S
N209 C212 1.314 . S
N209 C213 1.279 . S
C210 C208 1.348 . S
C210 C212 1.353 . S
C210 H252 0.929 . S
C211 C208 1.356 . S
C211 C213 1.358 . S
C211 H253 0.930 . S
C212 N209 1.314 . S
C212 C210 1.353 . S
C212 H254 0.930 . S
C213 N209 1.279 . S
C213 C211 1.358 . S
C213 H255 0.930 . S
C214 C215 1.348 . S
C214 C216 1.356 . S
C214 O239 1.325 . S
C215 C214 1.348 . S
C215 C217 1.353 . S
C215 H256 0.929 . S
C216 C214 1.356 . S
C216 C218 1.358 . S
C216 H257 0.930 . S
C217 C215 1.353 . S
C217 N219 1.314 . S
C217 H258 0.930 . S
C218 C216 1.358 . S
C218 N219 1.279 . S
C218 H259 0.930 . S
N219 C217 1.314 . S
N219 C218 1.279 . S
C220 C222 1.353 . S
C220 N223 1.314 . S
C220 H226 0.930 . S
C221 N223 1.279 . S
C221 C224 1.358 . S
C221 H227 0.930 . S
C222 C220 1.353 . S
C222 C225 1.348 . S
C222 H260 0.929 . S
N223 Li178 1.990 . S
N223 C220 1.314 . S
N223 C221 1.279 . S
C224 C221 1.358 . S
C224 C225 1.356 . S
C224 H261 0.930 . S
C225 C222 1.348 . S
C225 C224 1.356 . S
H226 C220 0.930 . S
H227 C221 0.930 . S
C228 N229 1.314 . S
C228 C230 1.353 . S
C228 H234 0.930 . S
N229 Li179 1.990 . S
N229 C228 1.314 . S
N229 C232 1.279 . S
C230 C228 1.353 . S
C230 C233 1.348 . S
C230 H262 0.929 . S
C231 C232 1.358 . S
C231 C233 1.356 . S
C231 H263 0.930 . S
C232 N229 1.279 . S
C232 C231 1.358 . S
C232 H235 0.930 . S
C233 C230 1.348 . S
C233 C231 1.356 . S
H234 C228 0.930 . S
H235 C232 0.930 . S
O236 Li176 1.956 . S
O236 Li177 1.970 . S
O236 Li178 1.961 . S
O236 C180 1.325 . S
O237 Li176 1.970 . S
O237 Li177 1.956 . S
O237 Li179 1.961 . S
O237 C186 1.325 . S
O238 Li176 1.961 . S
O238 Li178 1.956 . S
O238 Li179 1.970 . S
O238 C208 1.325 . S
O239 Li177 1.961 . S
O239 Li178 1.970 . S
O239 Li179 1.956 . S
O239 C214 1.325 . S
H240 C182 0.929 . S
H241 C183 0.930 . S
H242 C184 0.930 . S
H243 C185 0.930 . S
H244 C187 0.930 . S
H245 C189 0.929 . S
H246 C190 0.930 . S
H247 C191 0.930 . S
H248 C194 0.930 . S
H249 C197 0.929 . S
H250 C202 0.929 . S
H251 C203 0.930 . S
H252 C210 0.929 . S
H253 C211 0.930 . S
H254 C212 0.930 . S
H255 C213 0.930 . S
H256 C215 0.929 . S
H257 C216 0.930 . S
H258 C217 0.930 . S
H259 C218 0.930 . S
H260 C222 0.929 . S
H261 C224 0.930 . S
H262 C230 0.929 . S
H263 C231 0.930 . S
Li264 N281 1.990 . S
Li264 O324 1.956 . S
Li264 O325 1.970 . S
Li264 O326 1.961 . S
Li265 N289 1.990 . S
Li265 O324 1.970 . S
Li265 O325 1.956 . S
Li265 O327 1.961 . S
Li266 N311 1.990 . S
Li266 O324 1.961 . S
Li266 O326 1.956 . S
Li266 O327 1.970 . S
Li267 N317 1.990 . S
Li267 O325 1.961 . S
Li267 O326 1.970 . S
Li267 O327 1.956 . S
C268 C270 1.348 . S
C268 C271 1.356 . S
C268 O324 1.325 . S
N269 C272 1.314 . S
N269 C273 1.279 . S
C270 C268 1.348 . S
C270 C272 1.353 . S
C270 H328 0.929 . S
C271 C268 1.356 . S
C271 C273 1.358 . S
C271 H329 0.930 . S
C272 N269 1.314 . S
C272 C270 1.353 . S
C272 H330 0.930 . S
C273 N269 1.279 . S
C273 C271 1.358 . S
C273 H331 0.930 . S
C274 C277 1.348 . S
C274 C278 1.356 . S
C274 O325 1.325 . S
C275 N276 1.279 . S
C275 C278 1.358 1_554 S
C275 H332 0.930 . S
N276 C275 1.279 . S
N276 C279 1.314 . S
C277 C274 1.348 . S
C277 C279 1.353 1_556 S
C277 H333 0.929 . S
C278 C274 1.356 . S
C278 C275 1.358 1_556 S
C278 H334 0.930 . S
C279 N276 1.314 . S
C279 C277 1.353 1_554 S
C279 H335 0.930 . S
C280 N281 1.314 . S
C280 C285 1.353 . S
C280 H286 0.930 . S
N281 Li264 1.990 . S
N281 C280 1.314 . S
N281 C283 1.279 . S
C282 C283 1.358 . S
C282 C284 1.356 . S
C282 H336 0.930 . S
C283 N281 1.279 . S
C283 C282 1.358 . S
C283 H287 0.930 . S
C284 C282 1.356 . S
C284 C285 1.348 . S
C285 C280 1.353 . S
C285 C284 1.348 . S
C285 H337 0.929 . S
H286 C280 0.930 . S
H287 C283 0.930 . S
C288 N289 1.314 . S
C288 C290 1.353 . S
C288 H294 0.930 . S
N289 Li265 1.990 . S
N289 C288 1.314 . S
N289 C292 1.279 . S
C290 C288 1.353 . S
C290 C293 1.348 . S
C290 H338 0.929 . S
C291 C292 1.358 . S
C291 C293 1.356 . S
C291 H339 0.930 . S
C292 N289 1.279 . S
C292 C291 1.358 . S
C292 H295 0.930 . S
C293 C290 1.348 . S
C293 C291 1.356 . S
H294 C288 0.930 . S
H295 C292 0.930 . S
C296 C298 1.348 . S
C296 C299 1.356 . S
C296 O326 1.325 . S
N297 C300 1.314 . S
N297 C301 1.279 . S
C298 C296 1.348 . S
C298 C300 1.353 . S
C298 H340 0.929 . S
C299 C296 1.356 . S
C299 C301 1.358 . S
C299 H341 0.930 . S
C300 N297 1.314 . S
C300 C298 1.353 . S
C300 H342 0.930 . S
C301 N297 1.279 . S
C301 C299 1.358 . S
C301 H343 0.930 . S
C302 C303 1.348 . S
C302 C304 1.356 . S
C302 O327 1.325 . S
C303 C302 1.348 . S
C303 C305 1.353 . S
C303 H344 0.929 . S
C304 C302 1.356 . S
C304 C306 1.358 . S
C304 H345 0.930 . S
C305 C303 1.353 . S
C305 N307 1.314 . S
C305 H346 0.930 . S
C306 C304 1.358 . S
C306 N307 1.279 . S
C306 H347 0.930 . S
N307 C305 1.314 . S
N307 C306 1.279 . S
C308 C310 1.353 . S
C308 N311 1.314 . S
C308 H314 0.930 . S
C309 N311 1.279 . S
C309 C312 1.358 . S
C309 H315 0.930 . S
C310 C308 1.353 . S
C310 C313 1.348 . S
C310 H348 0.929 . S
N311 Li266 1.990 . S
N311 C308 1.314 . S
N311 C309 1.279 . S
C312 C309 1.358 . S
C312 C313 1.356 . S
C312 H349 0.930 . S
C313 C310 1.348 . S
C313 C312 1.356 . S
H314 C308 0.930 . S
H315 C309 0.930 . S
C316 N317 1.314 . S
C316 C318 1.353 . S
C316 H322 0.930 . S
N317 Li267 1.990 . S
N317 C316 1.314 . S
N317 C320 1.279 . S
C318 C316 1.353 . S
C318 C321 1.348 . S
C318 H350 0.929 . S
C319 C320 1.358 . S
C319 C321 1.356 . S
C319 H351 0.930 . S
C320 N317 1.279 . S
C320 C319 1.358 . S
C320 H323 0.930 . S
C321 C318 1.348 . S
C321 C319 1.356 . S
H322 C316 0.930 . S
H323 C320 0.930 . S
O324 Li264 1.956 . S
O324 Li265 1.970 . S
O324 Li266 1.961 . S
O324 C268 1.325 . S
O325 Li264 1.970 . S
O325 Li265 1.956 . S
O325 Li267 1.961 . S
O325 C274 1.325 . S
O326 Li264 1.961 . S
O326 Li266 1.956 . S
O326 Li267 1.970 . S
O326 C296 1.325 . S
O327 Li265 1.961 . S
O327 Li266 1.970 . S
O327 Li267 1.956 . S
O327 C302 1.325 . S
H328 C270 0.929 . S
H329 C271 0.930 . S
H330 C272 0.930 . S
H331 C273 0.930 . S
H332 C275 0.930 . S
H333 C277 0.929 . S
H334 C278 0.930 . S
H335 C279 0.930 . S
H336 C282 0.930 . S
H337 C285 0.929 . S
H338 C290 0.929 . S
H339 C291 0.930 . S
H340 C298 0.929 . S
H341 C299 0.930 . S
H342 C300 0.930 . S
H343 C301 0.930 . S
H344 C303 0.929 . S
H345 C304 0.930 . S
H346 C305 0.930 . S
H347 C306 0.930 . S
H348 C310 0.929 . S
H349 C312 0.930 . S
H350 C318 0.929 . S
H351 C319 0.930 . S
H352 C370 0.951 . S
H353 C372 0.951 . S
H354 C374 0.950 . S
H355 C375 0.950 . S
H356 C377 0.950 . S
H357 C380 0.950 . S
H358 C381 0.950 . S
H359 C383 0.950 . S
H360 C384 0.950 . S
H361 C385 0.951 . S
H362 C387 0.951 . S
H363 C389 0.950 . S
H364 C390 0.950 . S
H365 C392 0.950 . S
H366 C395 0.950 . S
H367 C396 0.950 . S
H368 C398 0.950 . S
H369 C399 0.950 . S
C370 H352 0.951 . S
C370 C371 1.366 . S
C370 C372 1.388 . S
C371 C370 1.366 . S
C371 C375 1.385 . S
C372 H353 0.951 . S
C372 C370 1.388 . S
C372 C373 1.366 . S
C373 C372 1.366 . S
C373 C374 1.414 . S
C373 C376 1.499 . S
C374 H354 0.950 . S
C374 C373 1.414 . S
C374 C375 1.374 . S
C375 H355 0.950 . S
C375 C371 1.385 . S
C375 C374 1.374 . S
C376 C373 1.499 . S
C376 C377 1.373 . S
C376 C378 1.389 . S
C377 H356 0.950 . S
C377 C376 1.373 . S
C377 C393 1.377 . S
C378 C376 1.389 . S
C378 C379 1.524 . S
C378 C392 1.377 . S
C379 C378 1.524 . S
C379 C380 1.397 . S
C379 C384 1.363 . S
C380 H357 0.950 . S
C380 C379 1.397 . S
C380 C381 1.334 . S
C381 H358 0.950 . S
C381 C380 1.334 . S
C381 C382 1.287 . S
C382 C381 1.287 . S
C382 C383 1.524 . S
C382 H401 0.913 . S
C383 H359 0.950 . S
C383 C382 1.524 . S
C383 C384 1.415 . S
C384 H360 0.950 . S
C384 C379 1.363 . S
C384 C383 1.415 . S
C385 H361 0.951 . S
C385 C386 1.366 . S
C385 C387 1.388 . S
C386 C385 1.366 . S
C386 C390 1.385 . S
C387 H362 0.951 . S
C387 C385 1.388 . S
C387 C388 1.366 . S
C388 C387 1.366 . S
C388 C389 1.414 . S
C388 C391 1.499 . S
C389 H363 0.950 . S
C389 C388 1.414 . S
C389 C390 1.374 . S
C390 H364 0.950 . S
C390 C386 1.385 . S
C390 C389 1.374 . S
C391 C388 1.499 . S
C391 C392 1.373 . S
C391 C393 1.389 . S
C392 H365 0.950 . S
C392 C378 1.377 . S
C392 C391 1.373 . S
C393 C377 1.377 . S
C393 C391 1.389 . S
C393 C394 1.524 . S
C394 C393 1.524 . S
C394 C395 1.397 . S
C394 C399 1.363 . S
C395 H366 0.950 . S
C395 C394 1.397 . S
C395 C396 1.334 . S
C396 H367 0.950 . S
C396 C395 1.334 . S
C396 C397 1.287 . S
C397 C396 1.287 . S
C397 C398 1.524 . S
C397 H400 0.999 . S
C398 H368 0.950 . S
C398 C397 1.524 . S
C398 C399 1.415 . S
C399 H369 0.950 . S
C399 C394 1.363 . S
C399 C398 1.415 . S
H400 C397 0.999 . S
H401 C382 0.913 . S
H402 C420 0.951 . S
H403 C422 0.951 . S
H404 C424 0.950 . S
H405 C425 0.950 . S
H406 C427 0.950 . S
H407 C430 0.950 . S
H408 C431 0.950 . S
H409 C433 0.950 . S
H410 C434 0.950 . S
H411 C435 0.951 . S
H412 C437 0.951 . S
H413 C439 0.950 . S
H414 C440 0.950 . S
H415 C442 0.950 . S
H416 C445 0.950 . S
H417 C446 0.950 . S
H418 C448 0.950 . S
H419 C449 0.950 . S
C420 H402 0.951 . S
C420 C421 1.366 . S
C420 C422 1.388 . S
C421 C420 1.366 . S
C421 C425 1.385 . S
C422 H403 0.951 . S
C422 C420 1.388 . S
C422 C423 1.366 . S
C423 C422 1.366 . S
C423 C424 1.414 . S
C423 C426 1.499 . S
C424 H404 0.950 . S
C424 C423 1.414 . S
C424 C425 1.374 . S
C425 H405 0.950 . S
C425 C421 1.385 . S
C425 C424 1.374 . S
C426 C423 1.499 . S
C426 C427 1.373 . S
C426 C428 1.389 . S
C427 H406 0.950 . S
C427 C426 1.373 . S
C427 C443 1.377 . S
C428 C426 1.389 . S
C428 C429 1.524 . S
C428 C442 1.377 . S
C429 C428 1.524 . S
C429 C430 1.397 . S
C429 C434 1.363 . S
C430 H407 0.950 . S
C430 C429 1.397 . S
C430 C431 1.334 . S
C431 H408 0.950 . S
C431 C430 1.334 . S
C431 C432 1.287 . S
C432 C431 1.287 . S
C432 C433 1.524 . S
C432 H451 0.913 . S
C433 H409 0.950 . S
C433 C432 1.524 . S
C433 C434 1.415 . S
C434 H410 0.950 . S
C434 C429 1.363 . S
C434 C433 1.415 . S
C435 H411 0.951 . S
C435 C436 1.366 . S
C435 C437 1.388 . S
C436 C435 1.366 . S
C436 C440 1.385 . S
C437 H412 0.951 . S
C437 C435 1.388 . S
C437 C438 1.366 . S
C438 C437 1.366 . S
C438 C439 1.414 . S
C438 C441 1.499 . S
C439 H413 0.950 . S
C439 C438 1.414 . S
C439 C440 1.374 . S
C440 H414 0.950 . S
C440 C436 1.385 . S
C440 C439 1.374 . S
C441 C438 1.499 . S
C441 C442 1.373 . S
C441 C443 1.389 . S
C442 H415 0.950 . S
C442 C428 1.377 . S
C442 C441 1.373 . S
C443 C427 1.377 . S
C443 C441 1.389 . S
C443 C444 1.524 . S
C444 C443 1.524 . S
C444 C445 1.397 . S
C444 C449 1.363 . S
C445 H416 0.950 . S
C445 C444 1.397 . S
C445 C446 1.334 . S
C446 H417 0.950 . S
C446 C445 1.334 . S
C446 C447 1.287 . S
C447 C446 1.287 . S
C447 C448 1.524 . S
C447 H450 0.999 . S
C448 H418 0.950 . S
C448 C447 1.524 . S
C448 C449 1.415 . S
C449 H419 0.950 . S
C449 C444 1.363 . S
C449 C448 1.415 . S
H450 C447 0.999 . S
H451 C432 0.913 . S
H452 C470 0.951 . S
H453 C472 0.951 . S
H454 C474 0.950 1_556 S
H455 C475 0.950 . S
H456 C477 0.950 . S
H457 C480 0.950 . S
H458 C481 0.982 . S
H459 C483 0.950 . S
H460 C484 0.950 . S
H461 C485 0.951 . S
H462 C487 0.951 . S
H463 C489 0.950 1_554 S
H464 C490 0.950 . S
H465 C492 0.953 . S
H466 C495 0.950 . S
H467 C496 0.968 . S
H468 C498 0.950 . S
H469 C499 0.950 . S
C470 H452 0.951 . S
C470 C471 1.366 . S
C470 C472 1.388 . S
C471 C470 1.366 . S
C471 C475 1.385 . S
C472 H453 0.951 . S
C472 C470 1.388 . S
C472 C473 1.366 . S
C473 C472 1.366 . S
C473 C474 1.414 . S
C473 C476 1.499 . S
C474 H454 0.950 1_554 S
C474 C473 1.414 . S
C474 C475 1.374 . S
C475 H455 0.950 . S
C475 C471 1.385 . S
C475 C474 1.374 . S
C476 C473 1.499 . S
C476 C477 1.380 . S
C476 C478 1.389 . S
C477 H456 0.950 . S
C477 C476 1.380 . S
C477 C493 1.369 1_554 S
C478 C476 1.389 . S
C478 C479 1.524 . S
C478 C492 1.363 1_554 S
C479 C478 1.524 . S
C479 C480 1.397 1_554 S
C479 C484 1.363 . S
C480 H457 0.950 . S
C480 C479 1.397 1_556 S
C480 C481 1.341 . S
C481 H458 0.982 . S
C481 C480 1.341 . S
C481 C482 1.251 1_556 S
C482 C481 1.251 1_554 S
C482 C483 1.524 . S
C482 H501 0.913 . S
C483 H459 0.950 . S
C483 C482 1.524 . S
C483 C484 1.415 . S
C484 H460 0.950 . S
C484 C479 1.363 . S
C484 C483 1.415 . S
C485 H461 0.951 . S
C485 C486 1.366 . S
C485 C487 1.388 . S
C486 C485 1.366 . S
C486 C490 1.385 . S
C487 H462 0.951 . S
C487 C485 1.388 . S
C487 C488 1.366 . S
C488 C487 1.366 . S
C488 C489 1.414 . S
C488 C491 1.499 . S
C489 H463 0.950 1_556 S
C489 C488 1.414 . S
C489 C490 1.374 . S
C490 H464 0.950 . S
C490 C486 1.385 . S
C490 C489 1.374 . S
C491 C488 1.499 . S
C491 C492 1.387 . S
C491 C493 1.389 . S
C492 H465 0.953 . S
C492 C478 1.363 1_556 S
C492 C491 1.387 . S
C493 C477 1.369 1_556 S
C493 C491 1.389 . S
C493 C494 1.524 . S
C494 C493 1.524 . S
C494 C495 1.397 1_556 S
C494 C499 1.363 . S
C495 H466 0.950 . S
C495 C494 1.397 1_554 S
C495 C496 1.337 . S
C496 H467 0.968 . S
C496 C495 1.337 . S
C496 C497 1.266 1_554 S
C497 C496 1.266 1_556 S
C497 C498 1.524 . S
C497 H500 0.999 . S
C498 H468 0.950 . S
C498 C497 1.524 . S
C498 C499 1.415 . S
C499 H469 0.950 . S
C499 C494 1.363 . S
C499 C498 1.415 . S
H500 C497 0.999 . S
H501 C482 0.913 . S
H502 C520 0.951 . S
H503 C522 0.951 . S
H504 C524 0.950 . S
H505 C525 0.950 . S
H506 C527 0.950 . S
H507 C530 0.950 . S
H508 C531 0.950 . S
H509 C533 0.950 . S
H510 C534 0.950 . S
H511 C535 0.951 . S
H512 C537 0.951 . S
H513 C539 0.950 . S
H514 C540 0.950 . S
H515 C542 0.950 . S
H516 C545 0.950 . S
H517 C546 0.950 . S
H518 C548 0.950 . S
H519 C549 0.950 . S
C520 H502 0.951 . S
C520 C521 1.366 . S
C520 C522 1.388 . S
C521 C520 1.366 . S
C521 C525 1.385 . S
C522 H503 0.951 . S
C522 C520 1.388 . S
C522 C523 1.366 . S
C523 C522 1.366 . S
C523 C524 1.414 . S
C523 C526 1.499 . S
C524 H504 0.950 . S
C524 C523 1.414 . S
C524 C525 1.374 . S
C525 H505 0.950 . S
C525 C521 1.385 . S
C525 C524 1.374 . S
C526 C523 1.499 . S
C526 C527 1.373 . S
C526 C528 1.389 . S
C527 H506 0.950 . S
C527 C526 1.373 . S
C527 C543 1.377 1_455 S
C528 C526 1.389 . S
C528 C529 1.524 . S
C528 C542 1.377 1_455 S
C529 C528 1.524 . S
C529 C530 1.397 . S
C529 C534 1.363 . S
C530 H507 0.950 . S
C530 C529 1.397 . S
C530 C531 1.334 . S
C531 H508 0.950 . S
C531 C530 1.334 . S
C531 C532 1.287 . S
C532 C531 1.287 . S
C532 C533 1.524 . S
C532 H551 0.913 . S
C533 H509 0.950 . S
C533 C532 1.524 . S
C533 C534 1.415 . S
C534 H510 0.950 . S
C534 C529 1.363 . S
C534 C533 1.415 . S
C535 H511 0.951 . S
C535 C536 1.366 . S
C535 C537 1.388 . S
C536 C535 1.366 . S
C536 C540 1.385 . S
C537 H512 0.951 . S
C537 C535 1.388 . S
C537 C538 1.366 . S
C538 C537 1.366 . S
C538 C539 1.414 . S
C538 C541 1.499 . S
C539 H513 0.950 . S
C539 C538 1.414 . S
C539 C540 1.374 . S
C540 H514 0.950 . S
C540 C536 1.385 . S
C540 C539 1.374 . S
C541 C538 1.499 . S
C541 C542 1.373 . S
C541 C543 1.389 . S
C542 H515 0.950 . S
C542 C528 1.377 1_655 S
C542 C541 1.373 . S
C543 C527 1.377 1_655 S
C543 C541 1.389 . S
C543 C544 1.524 . S
C544 C543 1.524 . S
C544 C545 1.397 . S
C544 C549 1.363 . S
C545 H516 0.950 . S
C545 C544 1.397 . S
C545 C546 1.334 . S
C546 H517 0.950 . S
C546 C545 1.334 . S
C546 C547 1.287 . S
C547 C546 1.287 . S
C547 C548 1.524 . S
C547 H550 0.999 . S
C548 H518 0.950 . S
C548 C547 1.524 . S
C548 C549 1.415 . S
C549 H519 0.950 . S
C549 C544 1.363 . S
C549 C548 1.415 . S
H550 C547 0.999 . S
H551 C532 0.913 . S
H552 C570 0.951 . S
H553 C572 0.951 1_554 S
H554 C574 0.950 . S
H555 C575 0.950 . S
H556 C577 0.950 . S
H557 C580 0.950 . S
H558 C581 0.950 . S
H559 C583 0.950 1_554 S
H560 C584 0.950 . S
H561 C585 0.951 . S
H562 C587 0.951 1_556 S
H563 C589 0.950 . S
H564 C590 0.950 . S
H565 C592 0.950 . S
H566 C595 0.950 . S
H567 C596 0.950 . S
H568 C598 0.950 1_556 S
H569 C599 0.950 . S
C570 H552 0.951 . S
C570 C571 1.366 . S
C570 C572 1.388 . S
C571 C570 1.366 . S
C571 C575 1.385 . S
C572 H553 0.951 1_556 S
C572 C570 1.388 . S
C572 C573 1.366 . S
C573 C572 1.366 . S
C573 C574 1.414 . S
C573 C576 1.499 . S
C574 H554 0.950 . S
C574 C573 1.414 . S
C574 C575 1.374 . S
C575 H555 0.950 . S
C575 C571 1.385 . S
C575 C574 1.374 . S
C576 C573 1.499 . S
C576 C577 1.373 . S
C576 C578 1.389 . S
C577 H556 0.950 . S
C577 C576 1.373 . S
C577 C593 1.377 1_546 S
C578 C576 1.389 . S
C578 C579 1.524 . S
C578 C592 1.377 1_546 S
C579 C578 1.524 . S
C579 C580 1.397 . S
C579 C584 1.363 1_556 S
C580 H557 0.950 . S
C580 C579 1.397 . S
C580 C581 1.334 . S
C581 H558 0.950 . S
C581 C580 1.334 . S
C581 C582 1.287 . S
C582 C581 1.287 . S
C582 C583 1.524 . S
C582 H601 0.913 . S
C583 H559 0.950 1_556 S
C583 C582 1.524 . S
C583 C584 1.415 1_556 S
C584 H560 0.950 . S
C584 C579 1.363 1_554 S
C584 C583 1.415 1_554 S
C585 H561 0.951 . S
C585 C586 1.366 . S
C585 C587 1.388 . S
C586 C585 1.366 . S
C586 C590 1.385 . S
C587 H562 0.951 1_554 S
C587 C585 1.388 . S
C587 C588 1.366 . S
C588 C587 1.366 . S
C588 C589 1.414 . S
C588 C591 1.499 . S
C589 H563 0.950 . S
C589 C588 1.414 . S
C589 C590 1.374 . S
C590 H564 0.950 . S
C590 C586 1.385 . S
C590 C589 1.374 . S
C591 C588 1.499 . S
C591 C592 1.373 . S
C591 C593 1.389 . S
C592 H565 0.950 . S
C592 C578 1.377 1_564 S
C592 C591 1.373 . S
C593 C577 1.377 1_564 S
C593 C591 1.389 . S
C593 C594 1.524 . S
C594 C593 1.524 . S
C594 C595 1.397 . S
C594 C599 1.363 1_554 S
C595 H566 0.950 . S
C595 C594 1.397 . S
C595 C596 1.334 . S
C596 H567 0.950 . S
C596 C595 1.334 . S
C596 C597 1.287 . S
C597 C596 1.287 . S
C597 C598 1.524 . S
C597 H600 0.999 . S
C598 H568 0.950 1_554 S
C598 C597 1.524 . S
C598 C599 1.415 1_554 S
C599 H569 0.950 . S
C599 C594 1.363 1_556 S
C599 C598 1.415 1_556 S
H600 C597 0.999 . S
H601 C582 0.913 . S
H602 C620 0.951 . S
H603 C622 0.951 . S
H604 C624 0.950 . S
H605 C625 0.950 . S
H606 C627 0.950 . S
H607 C630 0.950 . S
H608 C631 0.950 . S
H609 C633 0.950 . S
H610 C634 0.950 . S
H611 C635 0.951 . S
H612 C637 0.951 . S
H613 C639 0.950 . S
H614 C640 0.950 . S
H615 C642 0.950 . S
H616 C645 0.950 . S
H617 C646 0.950 . S
H618 C648 0.950 . S
H619 C649 0.950 . S
C620 H602 0.951 . S
C620 C621 1.366 . S
C620 C622 1.388 . S
C621 C620 1.366 . S
C621 C625 1.385 . S
C622 H603 0.951 . S
C622 C620 1.388 . S
C622 C623 1.366 . S
C623 C622 1.366 . S
C623 C624 1.414 . S
C623 C626 1.499 . S
C624 H604 0.950 . S
C624 C623 1.414 . S
C624 C625 1.374 . S
C625 H605 0.950 . S
C625 C621 1.385 . S
C625 C624 1.374 . S
C626 C623 1.499 . S
C626 C627 1.373 . S
C626 C628 1.389 . S
C627 H606 0.950 . S
C627 C626 1.373 . S
C627 C643 1.377 . S
C628 C626 1.389 . S
C628 C629 1.524 . S
C628 C642 1.377 . S
C629 C628 1.524 . S
C629 C630 1.397 . S
C629 C634 1.363 . S
C630 H607 0.950 . S
C630 C629 1.397 . S
C630 C631 1.334 . S
C631 H608 0.950 . S
C631 C630 1.334 . S
C631 C632 1.287 . S
C632 C631 1.287 . S
C632 C633 1.524 . S
C632 H651 0.913 . S
C633 H609 0.950 . S
C633 C632 1.524 . S
C633 C634 1.415 . S
C634 H610 0.950 . S
C634 C629 1.363 . S
C634 C633 1.415 . S
C635 H611 0.951 . S
C635 C636 1.366 . S
C635 C637 1.388 . S
C636 C635 1.366 . S
C636 C640 1.385 . S
C637 H612 0.951 . S
C637 C635 1.388 . S
C637 C638 1.366 . S
C638 C637 1.366 . S
C638 C639 1.414 . S
C638 C641 1.499 . S
C639 H613 0.950 . S
C639 C638 1.414 . S
C639 C640 1.374 . S
C640 H614 0.950 . S
C640 C636 1.385 . S
C640 C639 1.374 . S
C641 C638 1.499 . S
C641 C642 1.373 . S
C641 C643 1.389 . S
C642 H615 0.950 . S
C642 C628 1.377 . S
C642 C641 1.373 . S
C643 C627 1.377 . S
C643 C641 1.389 . S
C643 C644 1.524 . S
C644 C643 1.524 . S
C644 C645 1.397 . S
C644 C649 1.363 . S
C645 H616 0.950 . S
C645 C644 1.397 . S
C645 C646 1.334 . S
C646 H617 0.950 . S
C646 C645 1.334 . S
C646 C647 1.287 . S
C647 C646 1.287 . S
C647 C648 1.524 . S
C647 H650 0.999 . S
C648 H618 0.950 . S
C648 C647 1.524 . S
C648 C649 1.415 . S
C649 H619 0.950 . S
C649 C644 1.363 . S
C649 C648 1.415 . S
H650 C647 0.999 . S
H651 C632 0.913 . S
H652 C670 0.951 . S
H653 C672 0.951 . S
H654 C674 0.950 1_556 S
H655 C675 0.950 . S
H656 C677 0.950 . S
H657 C680 0.950 . S
H658 C681 0.950 . S
H659 C683 0.950 . S
H660 C684 0.950 1_655 S
H661 C685 0.951 . S
H662 C687 0.951 . S
H663 C689 0.950 1_554 S
H664 C690 0.950 . S
H665 C692 0.950 . S
H666 C695 0.950 . S
H667 C696 0.950 . S
H668 C698 0.950 . S
H669 C699 0.950 1_455 S
C670 H652 0.951 . S
C670 C671 1.366 . S
C670 C672 1.388 . S
C671 C670 1.366 . S
C671 C675 1.385 . S
C672 H653 0.951 . S
C672 C670 1.388 . S
C672 C673 1.366 . S
C673 C672 1.366 . S
C673 C674 1.414 . S
C673 C676 1.499 . S
C674 H654 0.950 1_554 S
C674 C673 1.414 . S
C674 C675 1.374 . S
C675 H655 0.950 . S
C675 C671 1.385 . S
C675 C674 1.374 . S
C676 C673 1.499 . S
C676 C677 1.373 . S
C676 C678 1.389 . S
C677 H656 0.950 . S
C677 C676 1.373 . S
C677 C693 1.377 1_454 S
C678 C676 1.389 . S
C678 C679 1.524 . S
C678 C692 1.377 1_454 S
C679 C678 1.524 . S
C679 C680 1.397 1_554 S
C679 C684 1.363 . S
C680 H657 0.950 . S
C680 C679 1.397 1_556 S
C680 C681 1.334 . S
C681 H658 0.950 . S
C681 C680 1.334 . S
C681 C682 1.287 1_556 S
C682 C681 1.287 1_554 S
C682 C683 1.524 . S
C682 H701 0.913 . S
C683 H659 0.950 . S
C683 C682 1.524 . S
C683 C684 1.415 . S
C684 H660 0.950 1_455 S
C684 C679 1.363 . S
C684 C683 1.415 . S
C685 H661 0.951 . S
C685 C686 1.366 . S
C685 C687 1.388 . S
C686 C685 1.366 . S
C686 C690 1.385 . S
C687 H662 0.951 . S
C687 C685 1.388 . S
C687 C688 1.366 . S
C688 C687 1.366 . S
C688 C689 1.414 . S
C688 C691 1.499 . S
C689 H663 0.950 1_556 S
C689 C688 1.414 . S
C689 C690 1.374 . S
C690 H664 0.950 . S
C690 C686 1.385 . S
C690 C689 1.374 . S
C691 C688 1.499 . S
C691 C692 1.373 . S
C691 C693 1.389 . S
C692 H665 0.950 . S
C692 C678 1.377 1_656 S
C692 C691 1.373 . S
C693 C677 1.377 1_656 S
C693 C691 1.389 . S
C693 C694 1.524 . S
C694 C693 1.524 . S
C694 C695 1.397 1_556 S
C694 C699 1.363 . S
C695 H666 0.950 . S
C695 C694 1.397 1_554 S
C695 C696 1.334 . S
C696 H667 0.950 . S
C696 C695 1.334 . S
C696 C697 1.287 1_554 S
C697 C696 1.287 1_556 S
C697 C698 1.524 . S
C697 H700 0.999 . S
C698 H668 0.950 . S
C698 C697 1.524 . S
C698 C699 1.415 . S
C699 H669 0.950 1_655 S
C699 C694 1.363 . S
C699 C698 1.415 . S
H700 C697 0.999 . S
H701 C682 0.913 . S
H702 C720 0.951 . S
H703 C722 0.951 . S
H704 C724 0.950 . S
H705 C725 0.950 . S
H706 C727 0.950 . S
H707 C730 0.950 . S
H708 C731 0.950 . S
H709 C733 0.950 . S
H710 C734 0.950 . S
H711 C735 0.951 . S
H712 C737 0.951 . S
H713 C739 0.950 . S
H714 C740 0.950 . S
H715 C742 0.950 . S
H716 C745 0.950 . S
H717 C746 0.950 . S
H718 C748 0.950 . S
H719 C749 0.950 . S
C720 H702 0.951 . S
C720 C721 1.366 . S
C720 C722 1.388 . S
C721 C720 1.366 . S
C721 C725 1.385 . S
C722 H703 0.951 . S
C722 C720 1.388 . S
C722 C723 1.366 . S
C723 C722 1.366 . S
C723 C724 1.414 . S
C723 C726 1.499 . S
C724 H704 0.950 . S
C724 C723 1.414 . S
C724 C725 1.374 . S
C725 H705 0.950 . S
C725 C721 1.385 . S
C725 C724 1.374 . S
C726 C723 1.499 . S
C726 C727 1.373 . S
C726 C728 1.389 . S
C727 H706 0.950 . S
C727 C726 1.373 . S
C727 C743 1.377 1_545 S
C728 C726 1.389 . S
C728 C729 1.524 . S
C728 C742 1.377 1_545 S
C729 C728 1.524 . S
C729 C730 1.397 . S
C729 C734 1.363 1_545 S
C730 H707 0.950 . S
C730 C729 1.397 . S
C730 C731 1.334 . S
C731 H708 0.950 . S
C731 C730 1.334 . S
C731 C732 1.287 . S
C732 C731 1.287 . S
C732 C733 1.524 1_545 S
C732 H751 0.913 . S
C733 H709 0.950 . S
C733 C732 1.524 1_565 S
C733 C734 1.415 . S
C734 H710 0.950 . S
C734 C729 1.363 1_565 S
C734 C733 1.415 . S
C735 H711 0.951 . S
C735 C736 1.366 . S
C735 C737 1.388 . S
C736 C735 1.366 . S
C736 C740 1.385 . S
C737 H712 0.951 . S
C737 C735 1.388 . S
C737 C738 1.366 . S
C738 C737 1.366 . S
C738 C739 1.414 . S
C738 C741 1.499 . S
C739 H713 0.950 . S
C739 C738 1.414 . S
C739 C740 1.374 . S
C740 H714 0.950 . S
C740 C736 1.385 . S
C740 C739 1.374 . S
C741 C738 1.499 . S
C741 C742 1.373 . S
C741 C743 1.389 . S
C742 H715 0.950 . S
C742 C728 1.377 1_565 S
C742 C741 1.373 . S
C743 C727 1.377 1_565 S
C743 C741 1.389 . S
C743 C744 1.524 . S
C744 C743 1.524 . S
C744 C745 1.397 . S
C744 C749 1.363 1_565 S
C745 H716 0.950 . S
C745 C744 1.397 . S
C745 C746 1.334 . S
C746 H717 0.950 . S
C746 C745 1.334 . S
C746 C747 1.287 . S
C747 C746 1.287 . S
C747 C748 1.524 1_565 S
C747 H750 0.999 . S
C748 H718 0.950 . S
C748 C747 1.524 1_545 S
C748 C749 1.415 . S
C749 H719 0.950 . S
C749 C744 1.363 1_545 S
C749 C748 1.415 . S
H750 C747 0.999 . S
H751 C732 0.913 . S
C371 C20 1.500 . S
C386 C205 1.500 . S
C421 C145 1.500 . S
C436 C313 1.500 . S
C471 C29 1.493 . S
C486 C293 1.493 . S
C521 C225 1.507 . S
C536 C117 1.507 . S
C571 C284 1.514 . S
C586 C49 1.514 . S
C621 C108 1.507 . S
C636 C233 1.507 . S
C671 C57 1.493 . S
C686 C321 1.493 . S
C721 C137 1.485 . S
C736 C196 1.486 . S
