# Generated by pormake.
# Topology wlt, (5)-cn, num edge types: 1
# Building blocks:
#     Node 0, Type 0, BuildingBlock: XOMCOT_clean_sbu_1, # of connection points: 5
#     Node 1, Type 0, BuildingBlock: XOMCOT_clean_sbu_1, # of connection points: 5
#     Node 2, Type 0, BuildingBlock: XOMCOT_clean_sbu_1, # of connection points: 5
#     Node 3, Type 0, BuildingBlock: XOMCOT_clean_sbu_1, # of connection points: 5
#     Node 4, Type 0, BuildingBlock: XOMCOT_clean_sbu_1, # of connection points: 5
#     Node 5, Type 0, BuildingBlock: XOMCOT_clean_sbu_1, # of connection points: 5
#     Node 6, Type 0, BuildingBlock: XOMCOT_clean_sbu_1, # of connection points: 5
#     Node 7, Type 0, BuildingBlock: XOMCOT_clean_sbu_1, # of connection points: 5
#     Node 8, Type 0, BuildingBlock: XOMCOT_clean_sbu_1, # of connection points: 5
#     Node 9, Type 0, BuildingBlock: XOMCOT_clean_sbu_1, # of connection points: 5
#     Node 10, Type 0, BuildingBlock: XOMCOT_clean_sbu_1, # of connection points: 5
#     Node 11, Type 0, BuildingBlock: XOMCOT_clean_sbu_1, # of connection points: 5
#     Node 12, Type 0, BuildingBlock: XOMCOT_clean_sbu_1, # of connection points: 5
#     Node 13, Type 0, BuildingBlock: XOMCOT_clean_sbu_1, # of connection points: 5
#     Node 14, Type 0, BuildingBlock: XOMCOT_clean_sbu_1, # of connection points: 5
#     Node 15, Type 0, BuildingBlock: XOMCOT_clean_sbu_1, # of connection points: 5
#     Node 16, Type 0, BuildingBlock: XOMCOT_clean_sbu_1, # of connection points: 5
#     Node 17, Type 0, BuildingBlock: XOMCOT_clean_sbu_1, # of connection points: 5
#     Node 18, Type 0, BuildingBlock: XOMCOT_clean_sbu_1, # of connection points: 5
#     Node 19, Type 0, BuildingBlock: XOMCOT_clean_sbu_1, # of connection points: 5
#     Node 20, Type 0, BuildingBlock: XOMCOT_clean_sbu_1, # of connection points: 5
#     Node 21, Type 0, BuildingBlock: XOMCOT_clean_sbu_1, # of connection points: 5
#     Node 22, Type 0, BuildingBlock: XOMCOT_clean_sbu_1, # of connection points: 5
#     Node 23, Type 0, BuildingBlock: XOMCOT_clean_sbu_1, # of connection points: 5
#     Node 24, Type 0, BuildingBlock: XOMCOT_clean_sbu_1, # of connection points: 5
#     Node 25, Type 0, BuildingBlock: XOMCOT_clean_sbu_1, # of connection points: 5
#     Node 26, Type 0, BuildingBlock: XOMCOT_clean_sbu_1, # of connection points: 5
#     Node 27, Type 0, BuildingBlock: XOMCOT_clean_sbu_1, # of connection points: 5
#     Node 28, Type 0, BuildingBlock: XOMCOT_clean_sbu_1, # of connection points: 5
#     Node 29, Type 0, BuildingBlock: XOMCOT_clean_sbu_1, # of connection points: 5
#     Node 30, Type 0, BuildingBlock: XOMCOT_clean_sbu_1, # of connection points: 5
#     Node 31, Type 0, BuildingBlock: XOMCOT_clean_sbu_1, # of connection points: 5
#     Node 32, Type 0, BuildingBlock: XOMCOT_clean_sbu_1, # of connection points: 5
#     Node 33, Type 0, BuildingBlock: XOMCOT_clean_sbu_1, # of connection points: 5
#     Node 34, Type 0, BuildingBlock: XOMCOT_clean_sbu_1, # of connection points: 5
#     Node 35, Type 0, BuildingBlock: XOMCOT_clean_sbu_1, # of connection points: 5
#     Edge 36, Type (0, 0), BuildingBlock: AJUNOK_clean_linker_0, # of connection points: 2
#     Edge 37, Type (0, 0), BuildingBlock: AJUNOK_clean_linker_0, # of connection points: 2
#     Edge 38, Type (0, 0), BuildingBlock: AJUNOK_clean_linker_0, # of connection points: 2
#     Edge 39, Type (0, 0), BuildingBlock: AJUNOK_clean_linker_0, # of connection points: 2
#     Edge 40, Type (0, 0), BuildingBlock: AJUNOK_clean_linker_0, # of connection points: 2
#     Edge 41, Type (0, 0), BuildingBlock: AJUNOK_clean_linker_0, # of connection points: 2
#     Edge 42, Type (0, 0), BuildingBlock: AJUNOK_clean_linker_0, # of connection points: 2
#     Edge 43, Type (0, 0), BuildingBlock: AJUNOK_clean_linker_0, # of connection points: 2
#     Edge 44, Type (0, 0), BuildingBlock: AJUNOK_clean_linker_0, # of connection points: 2
#     Edge 45, Type (0, 0), BuildingBlock: AJUNOK_clean_linker_0, # of connection points: 2
#     Edge 46, Type (0, 0), BuildingBlock: AJUNOK_clean_linker_0, # of connection points: 2
#     Edge 47, Type (0, 0), BuildingBlock: AJUNOK_clean_linker_0, # of connection points: 2
#     Edge 48, Type (0, 0), BuildingBlock: AJUNOK_clean_linker_0, # of connection points: 2
#     Edge 49, Type (0, 0), BuildingBlock: AJUNOK_clean_linker_0, # of connection points: 2
#     Edge 50, Type (0, 0), BuildingBlock: AJUNOK_clean_linker_0, # of connection points: 2
#     Edge 51, Type (0, 0), BuildingBlock: AJUNOK_clean_linker_0, # of connection points: 2
#     Edge 52, Type (0, 0), BuildingBlock: AJUNOK_clean_linker_0, # of connection points: 2
#     Edge 53, Type (0, 0), BuildingBlock: AJUNOK_clean_linker_0, # of connection points: 2
#     Edge 54, Type (0, 0), BuildingBlock: AJUNOK_clean_linker_0, # of connection points: 2
#     Edge 55, Type (0, 0), BuildingBlock: AJUNOK_clean_linker_0, # of connection points: 2
#     Edge 56, Type (0, 0), BuildingBlock: AJUNOK_clean_linker_0, # of connection points: 2
#     Edge 57, Type (0, 0), BuildingBlock: AJUNOK_clean_linker_0, # of connection points: 2
#     Edge 58, Type (0, 0), BuildingBlock: AJUNOK_clean_linker_0, # of connection points: 2
#     Edge 59, Type (0, 0), BuildingBlock: AJUNOK_clean_linker_0, # of connection points: 2
#     Edge 60, Type (0, 0), BuildingBlock: AJUNOK_clean_linker_0, # of connection points: 2
#     Edge 61, Type (0, 0), BuildingBlock: AJUNOK_clean_linker_0, # of connection points: 2
#     Edge 62, Type (0, 0), BuildingBlock: AJUNOK_clean_linker_0, # of connection points: 2
#     Edge 63, Type (0, 0), BuildingBlock: AJUNOK_clean_linker_0, # of connection points: 2
#     Edge 64, Type (0, 0), BuildingBlock: AJUNOK_clean_linker_0, # of connection points: 2
#     Edge 65, Type (0, 0), BuildingBlock: AJUNOK_clean_linker_0, # of connection points: 2
#     Edge 66, Type (0, 0), BuildingBlock: AJUNOK_clean_linker_0, # of connection points: 2
#     Edge 67, Type (0, 0), BuildingBlock: AJUNOK_clean_linker_0, # of connection points: 2
#     Edge 68, Type (0, 0), BuildingBlock: AJUNOK_clean_linker_0, # of connection points: 2
#     Edge 69, Type (0, 0), BuildingBlock: AJUNOK_clean_linker_0, # of connection points: 2
#     Edge 70, Type (0, 0), BuildingBlock: AJUNOK_clean_linker_0, # of connection points: 2
#     Edge 71, Type (0, 0), BuildingBlock: AJUNOK_clean_linker_0, # of connection points: 2
#     Edge 72, Type (0, 0), BuildingBlock: AJUNOK_clean_linker_0, # of connection points: 2
#     Edge 73, Type (0, 0), BuildingBlock: AJUNOK_clean_linker_0, # of connection points: 2
#     Edge 74, Type (0, 0), BuildingBlock: AJUNOK_clean_linker_0, # of connection points: 2
#     Edge 75, Type (0, 0), BuildingBlock: AJUNOK_clean_linker_0, # of connection points: 2
#     Edge 76, Type (0, 0), BuildingBlock: AJUNOK_clean_linker_0, # of connection points: 2
#     Edge 77, Type (0, 0), BuildingBlock: AJUNOK_clean_linker_0, # of connection points: 2
#     Edge 78, Type (0, 0), BuildingBlock: AJUNOK_clean_linker_0, # of connection points: 2
#     Edge 79, Type (0, 0), BuildingBlock: AJUNOK_clean_linker_0, # of connection points: 2
#     Edge 80, Type (0, 0), BuildingBlock: AJUNOK_clean_linker_0, # of connection points: 2
#     Edge 81, Type (0, 0), BuildingBlock: AJUNOK_clean_linker_0, # of connection points: 2
#     Edge 82, Type (0, 0), BuildingBlock: AJUNOK_clean_linker_0, # of connection points: 2
#     Edge 83, Type (0, 0), BuildingBlock: AJUNOK_clean_linker_0, # of connection points: 2
#     Edge 84, Type (0, 0), BuildingBlock: AJUNOK_clean_linker_0, # of connection points: 2
#     Edge 85, Type (0, 0), BuildingBlock: AJUNOK_clean_linker_0, # of connection points: 2
#     Edge 86, Type (0, 0), BuildingBlock: AJUNOK_clean_linker_0, # of connection points: 2
#     Edge 87, Type (0, 0), BuildingBlock: AJUNOK_clean_linker_0, # of connection points: 2
#     Edge 88, Type (0, 0), BuildingBlock: AJUNOK_clean_linker_0, # of connection points: 2
#     Edge 89, Type (0, 0), BuildingBlock: AJUNOK_clean_linker_0, # of connection points: 2
#     Edge 90, Type (0, 0), BuildingBlock: AJUNOK_clean_linker_0, # of connection points: 2
#     Edge 91, Type (0, 0), BuildingBlock: AJUNOK_clean_linker_0, # of connection points: 2
#     Edge 92, Type (0, 0), BuildingBlock: AJUNOK_clean_linker_0, # of connection points: 2
#     Edge 93, Type (0, 0), BuildingBlock: AJUNOK_clean_linker_0, # of connection points: 2
#     Edge 94, Type (0, 0), BuildingBlock: AJUNOK_clean_linker_0, # of connection points: 2
#     Edge 95, Type (0, 0), BuildingBlock: AJUNOK_clean_linker_0, # of connection points: 2
#     Edge 96, Type (0, 0), BuildingBlock: AJUNOK_clean_linker_0, # of connection points: 2
#     Edge 97, Type (0, 0), BuildingBlock: AJUNOK_clean_linker_0, # of connection points: 2
#     Edge 98, Type (0, 0), BuildingBlock: AJUNOK_clean_linker_0, # of connection points: 2
#     Edge 99, Type (0, 0), BuildingBlock: AJUNOK_clean_linker_0, # of connection points: 2
#     Edge 100, Type (0, 0), BuildingBlock: AJUNOK_clean_linker_0, # of connection points: 2
#     Edge 101, Type (0, 0), BuildingBlock: AJUNOK_clean_linker_0, # of connection points: 2
#     Edge 102, Type (0, 0), BuildingBlock: AJUNOK_clean_linker_0, # of connection points: 2
#     Edge 103, Type (0, 0), BuildingBlock: AJUNOK_clean_linker_0, # of connection points: 2
#     Edge 104, Type (0, 0), BuildingBlock: AJUNOK_clean_linker_0, # of connection points: 2
#     Edge 105, Type (0, 0), BuildingBlock: AJUNOK_clean_linker_0, # of connection points: 2
#     Edge 106, Type (0, 0), BuildingBlock: AJUNOK_clean_linker_0, # of connection points: 2
#     Edge 107, Type (0, 0), BuildingBlock: AJUNOK_clean_linker_0, # of connection points: 2
#     Edge 108, Type (0, 0), BuildingBlock: AJUNOK_clean_linker_0, # of connection points: 2
#     Edge 109, Type (0, 0), BuildingBlock: AJUNOK_clean_linker_0, # of connection points: 2
#     Edge 110, Type (0, 0), BuildingBlock: AJUNOK_clean_linker_0, # of connection points: 2
#     Edge 111, Type (0, 0), BuildingBlock: AJUNOK_clean_linker_0, # of connection points: 2
#     Edge 112, Type (0, 0), BuildingBlock: AJUNOK_clean_linker_0, # of connection points: 2
#     Edge 113, Type (0, 0), BuildingBlock: AJUNOK_clean_linker_0, # of connection points: 2
#     Edge 114, Type (0, 0), BuildingBlock: AJUNOK_clean_linker_0, # of connection points: 2
#     Edge 115, Type (0, 0), BuildingBlock: AJUNOK_clean_linker_0, # of connection points: 2
#     Edge 116, Type (0, 0), BuildingBlock: AJUNOK_clean_linker_0, # of connection points: 2
#     Edge 117, Type (0, 0), BuildingBlock: AJUNOK_clean_linker_0, # of connection points: 2
#     Edge 118, Type (0, 0), BuildingBlock: AJUNOK_clean_linker_0, # of connection points: 2
#     Edge 119, Type (0, 0), BuildingBlock: AJUNOK_clean_linker_0, # of connection points: 2
#     Edge 120, Type (0, 0), BuildingBlock: AJUNOK_clean_linker_0, # of connection points: 2
#     Edge 121, Type (0, 0), BuildingBlock: AJUNOK_clean_linker_0, # of connection points: 2
#     Edge 122, Type (0, 0), BuildingBlock: AJUNOK_clean_linker_0, # of connection points: 2
#     Edge 123, Type (0, 0), BuildingBlock: AJUNOK_clean_linker_0, # of connection points: 2
#     Edge 124, Type (0, 0), BuildingBlock: AJUNOK_clean_linker_0, # of connection points: 2
#     Edge 125, Type (0, 0), BuildingBlock: AJUNOK_clean_linker_0, # of connection points: 2
# Relax obj value: 0.198
# Max RMSD: 0.195
# Mean RMSD: 0.195
data_MOF--net-wlt--node1-XOMCOT_clean_sbu_1--edge1-AJUNOK_clean_linker_0
_symmetry_space_group_name_H-M    P1
_symmetry_Int_Tables_number       1
_symmetry_cell_setting            triclinic
loop_
_symmetry_equiv_pos_as_xyz
'x, y, z'
_cell_length_a     48.703874
_cell_length_b     48.727966
_cell_length_c     39.661481
_cell_angle_alpha  89.970243
_cell_angle_beta   90.0123
_cell_angle_gamma 119.99315
loop_
_atom_site_label
_atom_site_type_symbol
_atom_site_fract_x
_atom_site_fract_y
_atom_site_fract_z
_atom_type_partial_charge
C0 C 0.2192 0.19783 0.02842 0.0
C1 C 0.19488 0.20313 0.0201 0.0
N2 N 0.20622 0.23462 0.0193 0.0
N3 N 0.24602 0.22578 0.03288 0.0
C4 C 0.23747 0.24794 0.02691 0.0
H5 H 0.2172 0.17493 0.0322 0.0
Co6 Co 0.2822 0.2271 0.05078 0.0
C7 C 0.32787 0.29412 0.06733 0.0
O8 O 0.33328 0.28271 0.09498 0.0
N9 N 0.31882 0.22738 0.06875 0.0
C10 C 0.36833 0.23609 0.07158 0.0
C11 C 0.34736 0.24122 0.05318 0.0
C12 C 0.32312 0.21347 0.09632 0.0
N13 N 0.35304 0.21884 0.09887 0.0
O14 O 0.29259 0.21734 0.00688 0.0
H15 H 0.35258 0.25427 0.02975 0.0
H16 H 0.3047 0.19862 0.11377 0.0
O17 O 0.30811 0.2747 0.04532 0.0
C18 C 0.28398 0.18788 0.00968 0.0
O19 O 0.27175 0.17352 0.0384 0.0
N20 N 0.26843 0.23098 0.09303 0.0
C21 C 0.24976 0.22879 0.15882 0.0
C22 C 0.25775 0.25563 0.13914 0.0
C23 C 0.26624 0.2559 0.10563 0.0
C24 C 0.25507 0.20298 0.11 0.0
C25 C 0.24642 0.20151 0.14351 0.0
H26 H 0.27182 0.27637 0.09037 0.0
H27 H 0.25303 0.18213 0.09801 0.0
H28 H 0.25339 0.27317 0.02961 0.0
H29 H 0.17058 0.18511 0.01509 0.0
H30 H 0.39292 0.24446 0.06544 0.0
H31 H 0.2585 0.27643 0.14988 0.0
H32 H 0.23903 0.17992 0.15769 0.0
C33 C 0.87563 0.0355 0.03168 0.0
C34 C 0.87033 1.006 0.02297 0.0
N35 N 0.83882 0.98585 0.02216 0.0
N36 N 0.84768 0.03431 0.03634 0.0
C37 C 0.82551 1.00368 0.03018 0.0
H38 H 0.89855 0.05637 0.03554 0.0
Co39 Co 0.8461 0.06886 0.05455 0.0
C40 C 0.77909 0.0466 0.07166 0.0
O41 O 0.79026 0.06301 0.09956 0.0
N42 N 0.84545 0.10482 0.0728 0.0
C43 C 0.83606 0.14512 0.07609 0.0
C44 C 0.83113 0.11919 0.05755 0.0
C45 C 0.85946 0.12304 0.10029 0.0
N46 N 0.85366 0.14727 0.10314 0.0
O47 O 0.85539 0.08919 0.01077 0.0
H48 H 0.81788 0.11126 0.03426 0.0
H49 H 0.87461 0.11969 0.11751 0.0
O50 O 0.79854 0.0469 0.04931 0.0
C51 C 0.88485 0.11008 0.01354 0.0
O52 O 0.89943 0.11174 0.04197 0.0
N53 N 0.84268 0.0511 0.09676 0.0
C54 C 0.84623 0.03414 0.16215 0.0
C55 C 0.819 1.01548 0.14292 0.0
C56 C 0.8181 1.02384 0.10956 0.0
C57 C 0.87089 0.066 0.11333 0.0
C58 C 0.87299 0.05867 0.14663 0.0
H59 H 0.79743 1.00889 0.0946 0.0
H60 H 0.89144 0.08509 0.1012 0.0
H61 H 0.80028 0.99434 0.03301 0.0
H62 H 0.88836 0.9998 0.01764 0.0
H63 H 0.82724 0.16104 0.07027 0.0
H64 H 0.79839 0.99535 0.15389 0.0
H65 H 0.89469 0.07324 0.16049 0.0
C66 C 1.04037 0.85698 0.03357 0.0
C67 C 0.07022 0.8809 0.0254 0.0
N68 N 0.08961 0.8687 0.02317 0.0
N69 N 1.04056 0.82955 0.03647 0.0
C70 C 0.07094 0.83733 0.02979 0.0
H71 H 1.01993 0.85961 0.03818 0.0
Co72 Co 1.00513 0.79318 0.05317 0.0
C73 C 1.02552 0.74682 0.06912 0.0
O74 O 1.00849 0.74134 0.09661 0.0
N75 N 0.9682 0.75633 0.06972 0.0
C76 C 0.92719 0.70688 0.07012 0.0
C77 C 0.95413 0.72827 0.05322 0.0
C78 C 0.94877 0.75134 0.09633 0.0
N79 N 0.92383 0.72154 0.09719 0.0
O80 O 0.98573 0.78413 0.00896 0.0
H81 H 0.96305 0.72362 0.03023 0.0
H82 H 0.95188 0.76908 0.1145 0.0
O83 O 1.02637 0.76693 0.04726 0.0
C84 C 0.96532 0.7933 0.0121 0.0
O85 O 0.96367 0.80557 0.04098 0.0
N86 N 1.02219 0.80562 0.09592 0.0
C87 C 1.03921 0.82308 0.16196 0.0
C88 C 0.05821 0.81602 0.14136 0.0
C89 C 0.04965 0.80805 0.10782 0.0
C90 C 1.0072 0.81801 0.1139 0.0
C91 C 1.01462 0.82598 0.14753 0.0
H92 H 0.06464 0.80314 0.09192 0.0
H93 H 0.98826 0.82023 0.10247 0.0
H94 H 0.07948 0.8207 0.0312 0.0
H95 H 0.07715 0.9055 0.02133 0.0
H96 H 0.9116 0.68236 0.06327 0.0
H97 H 0.07876 0.81572 0.15134 0.0
H98 H 1.00028 0.83272 0.16239 0.0
C99 C 0.21047 0.19844 0.43006 0.0
C100 C 0.2162 0.17442 0.43843 0.0
N101 N 0.24769 0.18676 0.44224 0.0
N102 N 0.23808 0.22608 0.42885 0.0
C103 C 0.26046 0.21832 0.43686 0.0
H104 H 0.18759 0.19578 0.4242 0.0
Co105 Co 0.23934 0.26251 0.4118 0.0
C106 C 0.30584 0.30765 0.39424 0.0
O107 O 0.29409 0.31233 0.36643 0.0
N108 N 0.23959 0.29943 0.39487 0.0
C109 C 0.24876 0.34914 0.39437 0.0
C110 C 0.25423 0.32762 0.4111 0.0
C111 C 0.22493 0.30452 0.36851 0.0
N112 N 0.23023 0.33447 0.36763 0.0
O113 O 0.22978 0.27244 0.45595 0.0
H114 H 0.2681 0.33226 0.43386 0.0
H115 H 0.20985 0.2868 0.35056 0.0
O116 O 0.28692 0.28856 0.41701 0.0
C117 C 0.20017 0.26326 0.45331 0.0
O118 O 0.18563 0.2501 0.42494 0.0
N119 N 0.24335 0.24934 0.36919 0.0
C120 C 0.2431 0.23121 0.30347 0.0
C121 C 0.26848 0.23718 0.32466 0.0
C122 C 0.26778 0.24553 0.35801 0.0
C123 C 0.21626 0.23772 0.35077 0.0
C124 C 0.21589 0.22952 0.31725 0.0
H125 H 0.28726 0.24983 0.37434 0.0
H126 H 0.19526 0.2362 0.3618 0.0
H127 H 0.28563 0.23516 0.43747 0.0
H128 H 0.19844 0.14976 0.44186 0.0
H129 H 0.25805 0.37374 0.40112 0.0
H130 H 0.28901 0.2365 0.31525 0.0
H131 H 0.19521 0.22355 0.30197 0.0
C132 C 0.87091 1.02371 0.43592 0.0
C133 C 0.89515 0.05329 0.44446 0.0
N134 N 0.88364 0.0733 0.44591 0.0
N135 N 0.84395 1.02469 0.432 0.0
C136 C 0.85236 0.05527 0.43844 0.0
H137 H 0.87302 1.00292 0.43177 0.0
Co138 Co 0.80734 0.98987 0.41464 0.0
C139 C 0.76261 1.01223 0.39826 0.0
O140 O 0.75712 0.9957 0.3704 0.0
N141 N 0.77019 0.95365 0.39741 0.0
C142 C 0.72033 0.91339 0.39644 0.0
C143 C 0.74189 0.94017 0.41343 0.0
C144 C 0.76515 0.93406 0.37093 0.0
N145 N 0.73511 0.90953 0.36977 0.0
O146 O 0.79737 0.9699 0.45867 0.0
H147 H 0.73722 0.94929 0.43625 0.0
H148 H 0.78305 0.93673 0.35317 0.0
O149 O 0.78189 1.01194 0.42048 0.0
C150 C 0.80584 0.94896 0.45549 0.0
O151 O 0.81806 0.94711 0.42665 0.0
N152 N 0.82069 1.0072 0.37208 0.0
C153 C 0.84146 1.02501 0.30681 0.0
C154 C 0.83346 0.04377 0.32662 0.0
C155 C 0.82404 0.03493 0.35986 0.0
C156 C 0.83303 0.99178 0.35479 0.0
C157 C 0.84258 0.99956 0.32158 0.0
H158 H 0.81892 0.05005 0.37529 0.0
H159 H 0.83419 0.97235 0.36647 0.0
H160 H 0.83626 0.06442 0.43625 0.0
H161 H 0.91949 0.05961 0.44929 0.0
H162 H 0.69566 0.89821 0.40301 0.0
H163 H 0.83374 0.06448 0.31625 0.0
H164 H 0.84917 0.98482 0.30726 0.0
C165 C 0.04621 0.85992 0.43382 0.0
C166 C 1.0163 0.8538 0.442 0.0
N167 N 0.99731 0.82225 0.44532 0.0
N168 N 0.04648 0.83246 0.43201 0.0
C169 C 1.01629 0.80977 0.43931 0.0
H170 H 0.06636 0.88297 0.42846 0.0
Co171 Co 0.08219 0.83175 0.41576 0.0
C172 C 0.06213 0.76504 0.39987 0.0
O173 O 0.0794 0.77663 0.37253 0.0
N174 N 0.1194 0.83211 0.39962 0.0
C175 C 0.16063 0.82397 0.39976 0.0
C176 C 0.13358 0.8184 0.41647 0.0
C177 C 0.13885 0.84635 0.37294 0.0
N178 N 0.16391 0.84166 0.37241 0.0
O179 O 0.10121 0.84198 0.46017 0.0
H180 H 0.12466 0.80499 0.43956 0.0
H181 H 0.13561 0.86064 0.3544 0.0
O182 O 0.06108 0.78427 0.4216 0.0
C183 C 0.12107 0.87171 0.45736 0.0
O184 O 0.12245 0.88581 0.42866 0.0
N185 N 0.0655 0.82721 0.37285 0.0
C186 C 0.04888 0.82779 0.30667 0.0
C187 C 1.02982 0.80166 0.32716 0.0
C188 C 1.03817 0.80219 0.36077 0.0
C189 C 0.08055 0.85464 0.35492 0.0
C190 C 0.07333 0.85525 0.32124 0.0
H191 H 1.02309 0.78227 0.37663 0.0
H192 H 0.0994 0.87577 0.36645 0.0
H193 H 1.0081 0.78465 0.43878 0.0
H194 H 1.00908 0.87133 0.44537 0.0
H195 H 0.17631 0.81521 0.40691 0.0
H196 H 1.00936 0.78081 0.31706 0.0
H197 H 0.08772 0.87638 0.30645 0.0
C198 C 0.87324 0.86347 0.93357 0.0
C199 C 0.89752 0.85797 0.94135 0.0
N200 N 0.88567 0.82646 0.94367 0.0
N201 N 0.84588 0.83567 0.93127 0.0
C202 C 0.8541 0.8134 0.93802 0.0
H203 H 0.87555 0.88638 0.9288 0.0
Co204 Co 0.80934 0.8343 0.91431 0.0
C205 C 0.76401 0.76761 0.89753 0.0
O206 O 0.75871 0.77899 0.8698 0.0
N207 N 0.77235 0.83402 0.89733 0.0
C208 C 0.72275 0.82525 0.89652 0.0
C209 C 0.74416 0.81984 0.91362 0.0
C210 C 0.76735 0.84831 0.87055 0.0
N211 N 0.73747 0.84326 0.86946 0.0
O212 O 0.79948 0.84381 0.95846 0.0
H213 H 0.73944 0.80629 0.93664 0.0
H214 H 0.7851 0.86293 0.85237 0.0
O215 O 0.78347 0.78683 0.91983 0.0
C216 C 0.8086 0.87337 0.95584 0.0
O217 O 0.82144 0.8879 0.92735 0.0
N218 N 0.82243 0.83031 0.87172 0.0
C219 C 0.84005 0.8311 0.80578 0.0
C220 C 0.83359 0.80524 0.82641 0.0
C221 C 0.82556 0.80568 0.85993 0.0
C222 C 0.83457 0.85773 0.85381 0.0
C223 C 0.84259 0.85842 0.82018 0.0
H224 H 0.82095 0.78588 0.87586 0.0
H225 H 0.83634 0.87868 0.86524 0.0
H226 H 0.83763 0.78814 0.93747 0.0
H227 H 0.92205 0.87589 0.94532 0.0
H228 H 0.69817 0.81625 0.90323 0.0
H229 H 0.83357 0.78454 0.81641 0.0
H230 H 0.84892 0.8794 0.80527 0.0
C231 C 0.21318 1.02365 0.93861 0.0
C232 C 0.21824 0.05341 0.94567 0.0
N233 N 0.24958 0.07411 0.94383 0.0
N234 N 0.24114 1.02516 0.93267 0.0
C235 C 0.26303 0.05632 0.9363 0.0
H236 H 0.19034 1.00227 0.93707 0.0
Co237 Co 0.24294 0.98994 0.91634 0.0
C238 C 0.31089 1.01087 0.90342 0.0
O239 O 0.30084 0.99199 0.8771 0.0
N240 N 0.24338 0.95325 0.89994 0.0
C241 C 0.25039 0.91132 0.89929 0.0
C242 C 0.25648 0.93831 0.91652 0.0
C243 C 0.22886 0.93427 0.87306 0.0
N244 N 0.23277 0.90874 0.87211 0.0
O245 O 0.23259 0.97059 0.96062 0.0
H246 H 0.26947 0.94646 0.93994 0.0
H247 H 0.21542 0.93859 0.8544 0.0
O248 O 0.29035 1.01216 0.92299 0.0
C249 C 0.20316 0.94978 0.95739 0.0
O250 O 0.18917 0.94787 0.92847 0.0
N251 N 0.24754 1.00666 0.87353 0.0
C252 C 0.24418 1.02348 0.80794 0.0
C253 C 0.27206 0.04104 0.8266 0.0
C254 C 0.27299 0.03271 0.85996 0.0
C255 C 0.2192 0.99248 0.85718 0.0
C256 C 0.21712 0.99977 0.82388 0.0
H257 H 0.29409 0.04721 0.87447 0.0
H258 H 0.19833 0.97413 0.86962 0.0
H259 H 0.28813 0.06604 0.93223 0.0
H260 H 0.2002 0.0593 0.95212 0.0
H261 H 0.25765 0.89448 0.90659 0.0
H262 H 0.293 0.06051 0.81529 0.0
H263 H 0.19504 0.98591 0.81039 0.0
C264 C 0.04661 0.201 0.93514 0.0
C265 C 1.01671 0.1774 0.94364 0.0
N266 N 0.99767 0.18999 0.94609 0.0
N267 N 0.04683 0.22864 0.93225 0.0
C268 C 1.01661 0.22128 0.93925 0.0
H269 H 0.06676 0.19797 0.93021 0.0
Co270 Co 0.08234 0.26462 0.91489 0.0
C271 C 0.06222 0.31126 0.89887 0.0
O272 O 0.079 0.31659 0.8712 0.0
N273 N 0.11934 0.30099 0.89763 0.0
C274 C 0.16077 0.3502 0.89616 0.0
C275 C 0.13373 0.32943 0.91337 0.0
C276 C 0.13877 0.30508 0.87126 0.0
N277 N 0.16397 0.33471 0.86981 0.0
O278 O 0.10233 0.27426 0.95881 0.0
H279 H 0.12512 0.3347 0.93621 0.0
H280 H 0.13496 0.28701 0.85324 0.0
O281 O 0.06154 0.29123 0.92072 0.0
C282 C 0.1221 0.26428 0.95578 0.0
O283 O 0.12268 0.25079 0.92734 0.0
N284 N 0.06478 0.25174 0.87241 0.0
C285 C 0.04749 0.23412 0.80647 0.0
C286 C 1.02881 0.24165 0.82702 0.0
C287 C 1.03749 0.24969 0.86052 0.0
C288 C 0.0793 0.23877 0.85455 0.0
C289 C 0.07175 0.23071 0.82097 0.0
H290 H 1.02276 0.25501 0.87639 0.0
H291 H 0.09807 0.23628 0.866 0.0
H292 H 1.00836 0.23815 0.93786 0.0
H293 H 1.00951 0.15274 0.94776 0.0
H294 H 0.17715 0.37459 0.90286 0.0
H295 H 1.00847 0.24235 0.817 0.0
H296 H 0.08582 0.22359 0.80616 0.0
C297 C 0.87468 0.8553 0.53298 0.0
C298 C 0.86947 0.87974 0.52507 0.0
N299 N 0.83797 0.86829 0.52337 0.0
N300 N 0.84671 0.82823 0.536 0.0
C301 C 0.82461 0.83678 0.52954 0.0
H302 H 0.89753 0.85734 0.53738 0.0
Co303 Co 0.84509 0.7917 0.55349 0.0
C304 C 0.77808 0.74625 0.56957 0.0
O305 O 0.7893 0.7411 0.59753 0.0
N306 N 0.84452 0.75476 0.57104 0.0
C307 C 0.8347 0.70485 0.573 0.0
C308 C 0.83022 0.72644 0.55504 0.0
C309 C 0.85822 0.74972 0.59836 0.0
N310 N 0.8522 0.71955 0.60035 0.0
O311 O 0.85505 0.78162 0.5096 0.0
H312 H 0.81734 0.7218 0.53156 0.0
H313 H 0.87248 0.76748 0.6167 0.0
O314 O 0.7976 0.76594 0.54759 0.0
C315 C 0.88452 0.79039 0.51272 0.0
O316 O 0.89871 0.80307 0.54138 0.0
N317 N 0.84085 0.80503 0.59581 0.0
C318 C 0.84241 0.82438 0.66122 0.0
C319 C 0.81609 0.81694 0.64088 0.0
C320 C 0.81614 0.80803 0.6076 0.0
C321 C 0.86847 0.81764 0.61342 0.0
C322 C 0.86958 0.82661 0.64674 0.0
H323 H 0.79607 0.80287 0.59184 0.0
H324 H 0.88932 0.81914 0.60201 0.0
H325 H 0.7993 0.82061 0.53069 0.0
H326 H 0.88757 0.90412 0.52063 0.0
H327 H 0.82637 0.68046 0.56604 0.0
H328 H 0.79545 0.81702 0.65091 0.0
H329 H 0.89081 0.83352 0.66142 0.0
C330 C 0.21562 0.03425 0.53515 0.0
C331 C 0.19138 1.00475 0.52639 0.0
N332 N 0.20302 0.98489 0.52401 0.0
N333 N 0.24269 0.03338 0.5383 0.0
C334 C 0.23437 1.00293 0.53116 0.0
H335 H 0.21346 0.05493 0.53992 0.0
Co336 Co 0.27946 0.06823 0.55538 0.0
C337 C 0.32381 0.04569 0.57239 0.0
O338 O 0.32922 0.06239 0.6001 0.0
N339 N 0.31686 0.10455 0.57227 0.0
C340 C 0.36684 0.14462 0.57228 0.0
C341 C 0.34492 0.11771 0.55578 0.0
C342 C 0.32247 0.12444 0.59864 0.0
N343 N 0.35259 0.14887 0.59917 0.0
O344 O 0.28933 0.08768 0.51117 0.0
H345 H 0.34916 0.10829 0.53293 0.0
H346 H 0.30496 0.12207 0.61678 0.0
O347 O 0.30471 0.04593 0.54992 0.0
C348 C 0.28092 0.10867 0.51416 0.0
O349 O 0.26893 0.11085 0.54301 0.0
N350 N 0.26618 0.05129 0.59803 0.0
C351 C 0.24603 0.03362 0.66343 0.0
C352 C 0.25299 1.01437 0.64316 0.0
C353 C 0.26217 1.02319 0.60989 0.0
C354 C 0.2546 0.06718 0.61573 0.0
C355 C 0.24542 0.05949 0.64905 0.0
H356 H 0.2667 1.00783 0.59417 0.0
H357 H 0.25378 0.08688 0.60428 0.0
H358 H 0.2506 0.99389 0.5326 0.0
H359 H 0.16697 0.99839 0.52201 0.0
H360 H 0.39141 0.15968 0.5652 0.0
H361 H 0.25226 0.99334 0.65323 0.0
H362 H 0.23957 0.0746 0.66372 0.0
C363 C 1.03979 0.19754 0.53475 0.0
C364 C 0.06938 0.20301 0.5261 0.0
N365 N 0.08876 0.23444 0.52227 0.0
N366 N 1.04009 0.22529 0.53637 0.0
C367 C 0.07032 0.24751 0.52847 0.0
H368 H 1.01945 0.17473 0.54052 0.0
Co369 Co 1.00482 0.22675 0.55285 0.0
C370 C 1.02612 0.29381 0.56866 0.0
O371 O 1.00889 0.28251 0.59607 0.0
N372 N 0.96803 0.22716 0.56923 0.0
C373 C 0.92767 0.23664 0.56959 0.0
C374 C 0.9543 0.24142 0.55256 0.0
C375 C 0.94858 0.21319 0.59599 0.0
N376 N 0.92423 0.21899 0.59701 0.0
O377 O 0.98559 0.21665 0.50853 0.0
H378 H 0.9631 0.25444 0.52923 0.0
H379 H 0.95166 0.19887 0.6146 0.0
O380 O 1.02667 0.2743 0.54694 0.0
C381 C 0.96541 0.18701 0.51152 0.0
O382 O 0.96383 0.173 0.54033 0.0
N383 N 1.02162 0.23107 0.59565 0.0
C384 C 1.03834 0.2301 0.66171 0.0
C385 C 0.05764 0.25612 0.6412 0.0
C386 C 0.04923 0.25578 0.60764 0.0
C387 C 1.00624 0.20367 0.61357 0.0
C388 C 1.01352 0.20287 0.64719 0.0
H389 H 0.06449 0.27559 0.59173 0.0
H390 H 0.98708 0.18272 0.6021 0.0
H391 H 0.07893 0.27273 0.52864 0.0
H392 H 0.0761 0.18511 0.52273 0.0
H393 H 0.91168 0.24488 0.56193 0.0
H394 H 0.07835 0.27676 0.65126 0.0
H395 H 0.99891 0.1818 0.66198 0.0
C396 C 0.88159 0.53127 0.37124 0.0
C397 C 0.85742 0.53693 0.36342 0.0
N398 N 0.86963 0.56838 0.35965 0.0
N399 N 0.90925 0.55889 0.37212 0.0
C400 C 0.90129 0.58121 0.36454 0.0
H401 H 0.87904 0.5084 0.37686 0.0
Co402 Co 0.9461 0.56012 0.38807 0.0
C403 C 0.99159 0.62676 0.40505 0.0
O404 O 0.99727 0.61519 0.4324 0.0
N405 N 0.98336 0.56028 0.40396 0.0
C406 C 1.03307 0.56932 0.4036 0.0
C407 C 1.01139 0.57495 0.38739 0.0
C408 C 0.98871 0.54541 0.42994 0.0
N409 N 1.01867 0.55062 0.43033 0.0
O410 O 0.9552 0.55068 0.34349 0.0
H411 H 1.01582 0.58898 0.36478 0.0
H412 H 0.97112 0.53024 0.44798 0.0
O413 O 0.9719 0.60767 0.38282 0.0
C414 C 0.94556 0.52098 0.34608 0.0
O415 O 0.93279 0.50661 0.37463 0.0
N416 N 0.93373 0.56387 0.43111 0.0
C417 C 0.91624 0.56218 0.49731 0.0
C418 C 0.92267 0.58832 0.47716 0.0
C419 C 0.93056 0.5883 0.44348 0.0
C420 C 0.92194 0.53632 0.44871 0.0
C421 C 0.91398 0.53517 0.4824 0.0
H422 H 0.93485 0.60818 0.42782 0.0
H423 H 0.9201 0.5155 0.43688 0.0
H424 H 0.9181 0.60638 0.36377 0.0
H425 H 0.83273 0.51912 0.36027 0.0
H426 H 0.05762 0.57869 0.39651 0.0
H427 H 0.92249 0.60879 0.48755 0.0
H428 H 0.90769 0.514 0.49693 0.0
C429 C 0.5395 0.36745 0.35822 0.0
C430 C 0.53383 0.33776 0.34978 0.0
N431 N 0.50227 0.31786 0.34924 0.0
N432 N 0.51173 0.36663 0.36301 0.0
C433 C 0.48928 0.33602 0.35711 0.0
H434 H 0.56255 0.38819 0.36189 0.0
Co435 Co 0.51085 0.40161 0.38126 0.0
C436 C 0.44412 0.38072 0.39846 0.0
O437 O 0.45583 0.39747 0.42608 0.0
N438 N 0.51096 0.43805 0.39956 0.0
C439 C 0.50227 0.47882 0.40281 0.0
C440 C 0.49726 0.45294 0.38412 0.0
C441 C 0.52472 0.45596 0.42734 0.0
N442 N 0.51932 0.48047 0.43016 0.0
O443 O 0.52057 0.42198 0.33751 0.0
H444 H 0.48426 0.44533 0.36065 0.0
H445 H 0.53935 0.45213 0.44485 0.0
O446 O 0.46329 0.38028 0.37619 0.0
C447 C 0.55014 0.44247 0.34052 0.0
O448 O 0.56436 0.44386 0.36913 0.0
N449 N 0.50703 0.38375 0.42337 0.0
C450 C 0.50938 0.36737 0.48914 0.0
C451 C 0.48246 0.3485 0.46958 0.0
C452 C 0.4821 0.3567 0.43606 0.0
C453 C 0.53511 0.39832 0.44017 0.0
C454 C 0.53666 0.39121 0.47366 0.0
H455 H 0.46153 0.34188 0.4209 0.0
H456 H 0.55595 0.41711 0.42812 0.0
H457 H 0.4641 0.32692 0.36009 0.0
H458 H 0.55164 0.33123 0.34457 0.0
H459 H 0.49381 0.49502 0.39689 0.0
H460 H 0.46167 0.32846 0.48039 0.0
H461 H 0.55832 0.40547 0.48772 0.0
C462 C 0.7051 0.18959 0.36589 0.0
C463 C 0.73472 0.21407 0.35791 0.0
N464 N 0.75525 0.20318 0.35862 0.0
N465 N 0.70659 0.16307 0.37135 0.0
C466 C 0.7375 0.17196 0.36628 0.0
H467 H 0.68392 0.19128 0.36868 0.0
Co468 Co 0.67204 0.12696 0.38976 0.0
C469 C 0.69398 0.08189 0.40671 0.0
O470 O 0.67795 0.07719 0.43483 0.0
N471 N 0.63607 0.09041 0.40823 0.0
C472 C 0.59538 0.04091 0.41124 0.0
C473 C 0.62167 0.06172 0.39303 0.0
C474 C 0.61755 0.08637 0.43543 0.0
N475 N 0.59273 0.05658 0.43777 0.0
O476 O 0.65143 0.11596 0.34612 0.0
H477 H 0.62971 0.05633 0.36986 0.0
H478 H 0.62181 0.10463 0.45339 0.0
O479 O 0.6939 0.10126 0.38447 0.0
C480 C 0.63057 0.12454 0.34938 0.0
O481 O 0.62913 0.13723 0.37804 0.0
N482 N 0.68992 0.14142 0.43173 0.0
C483 C 0.70781 0.16411 0.49628 0.0
C484 C 0.72613 0.15476 0.47755 0.0
C485 C 0.71724 0.14428 0.4446 0.0
C486 C 0.67522 0.15522 0.44772 0.0
C487 C 0.68307 0.16583 0.48057 0.0
H488 H 0.73191 0.13793 0.43 0.0
H489 H 0.65597 0.15631 0.43551 0.0
H490 H 0.7471 0.15632 0.36951 0.0
H491 H 0.74066 0.23808 0.35184 0.0
H492 H 0.57906 1.01637 0.40505 0.0
H493 H 0.74632 0.15451 0.48868 0.0
H494 H 0.66862 0.17334 0.49405 0.0
C495 C 0.87848 0.53469 0.77157 0.0
C496 C 0.88389 0.51056 0.78033 0.0
N497 N 0.91541 0.52222 0.78223 0.0
N498 N 0.90636 0.56175 0.76794 0.0
C499 C 0.92861 0.55351 0.77484 0.0
H500 H 0.85555 0.53236 0.76683 0.0
Co501 Co 0.90756 0.59774 0.74947 0.0
C502 C 0.97432 0.6429 0.73222 0.0
O503 O 0.9628 0.64766 0.70428 0.0
N504 N 0.90764 0.63414 0.73102 0.0
C505 C 0.91642 0.68367 0.72814 0.0
C506 C 0.92219 0.66291 0.74608 0.0
C507 C 0.89257 0.63808 0.70427 0.0
N508 N 0.89758 0.6679 0.70197 0.0
O509 O 0.89772 0.60864 0.79299 0.0
H510 H 0.93605 0.66841 0.76896 0.0
H511 H 0.87808 0.61976 0.68659 0.0
O512 O 0.95514 0.62391 0.75489 0.0
C513 C 0.86813 0.59941 0.7899 0.0
O514 O 0.85382 0.58584 0.76157 0.0
N515 N 0.91172 0.58363 0.70748 0.0
C516 C 0.91104 0.56503 0.64197 0.0
C517 C 0.93708 0.57221 0.66265 0.0
C518 C 0.93656 0.58068 0.69599 0.0
C519 C 0.88422 0.57083 0.68965 0.0
C520 C 0.88355 0.56226 0.65623 0.0
H521 H 0.9565 0.58585 0.71196 0.0
H522 H 0.86317 0.56902 0.7009 0.0
H523 H 0.95386 0.56967 0.77285 0.0
H524 H 0.86592 0.48615 0.78485 0.0
H525 H 0.92485 0.70826 0.73425 0.0
H526 H 0.95796 0.57248 0.65279 0.0
H527 H 0.86247 0.55542 0.6413 0.0
C528 C 0.54561 0.3636 0.76107 0.0
C529 C 0.56948 0.39344 0.7693 0.0
N530 N 0.55702 0.41254 0.77242 0.0
N531 N 0.5179 0.36342 0.75935 0.0
C532 C 0.52551 0.39359 0.76677 0.0
H533 H 0.54843 0.34338 0.75585 0.0
Co534 Co 0.48127 0.32797 0.74304 0.0
C535 C 0.43492 0.3486 0.72797 0.0
O536 O 0.42923 0.33186 0.70024 0.0
N537 N 0.44417 0.29106 0.72674 0.0
C538 C 0.39451 0.25036 0.72641 0.0
C539 C 0.4163 0.27687 0.74364 0.0
C540 C 0.43866 0.27207 0.69959 0.0
N541 N 0.4086 0.24758 0.69852 0.0
O542 O 0.47277 0.30844 0.78714 0.0
H543 H 0.41206 0.28538 0.76714 0.0
H544 H 0.45627 0.27509 0.6813 0.0
O545 O 0.45495 0.34909 0.74972 0.0
C546 C 0.48284 0.2888 0.78348 0.0
O547 O 0.49539 0.28803 0.75444 0.0
N548 N 0.49322 0.34508 0.70029 0.0
C549 C 0.50931 0.36148 0.63393 0.0
C550 C 0.50292 0.38081 0.65478 0.0
C551 C 0.49566 0.37255 0.6885 0.0
C552 C 0.50526 0.32994 0.68201 0.0
C553 C 0.51245 0.33699 0.64823 0.0
H554 H 0.49115 0.3877 0.70463 0.0
H555 H 0.50757 0.31101 0.69329 0.0
H556 H 0.50857 0.40181 0.76697 0.0
H557 H 0.5941 0.40037 0.77327 0.0
H558 H 0.37014 0.2345 0.73367 0.0
H559 H 0.50251 0.40133 0.64488 0.0
H560 H 0.51867 0.32236 0.63318 0.0
C561 C 0.71603 0.19542 0.77343 0.0
C562 C 0.68666 0.19089 0.78165 0.0
N563 N 0.66543 0.15971 0.77964 0.0
N564 N 0.71371 0.16728 0.76654 0.0
C565 C 0.68253 0.14576 0.77101 0.0
H566 H 0.73763 0.21804 0.77146 0.0
Co567 Co 0.74786 0.16536 0.7473 0.0
C568 C 0.72472 0.09848 0.72891 0.0
O569 O 0.7403 0.10997 0.70058 0.0
N570 N 0.78342 0.1644 0.72797 0.0
C571 C 0.82351 0.1547 0.72392 0.0
C572 C 0.79748 0.14945 0.74251 0.0
C573 C 0.80189 0.179 0.70073 0.0
N574 N 0.82636 0.17351 0.69776 0.0
O575 O 0.76882 0.17421 0.79077 0.0
H576 H 0.7894 0.13573 0.7655 0.0
H577 H 0.79784 0.19345 0.68319 0.0
O578 O 0.72555 0.11764 0.75196 0.0
C579 C 0.79031 0.20348 0.78798 0.0
O580 O 0.79238 0.21819 0.75952 0.0
N581 N 0.72966 0.16265 0.70563 0.0
C582 C 0.71218 0.16766 0.64099 0.0
C583 C 0.69327 0.14028 0.65992 0.0
C584 C 0.70199 0.13861 0.69292 0.0
C585 C 0.74475 0.19112 0.68961 0.0
C586 C 0.73713 0.19397 0.65666 0.0
H587 H 0.68706 0.11771 0.70756 0.0
H588 H 0.76425 0.21125 0.7018 0.0
H589 H 0.6723 0.1206 0.76664 0.0
H590 H 0.68138 0.20921 0.78872 0.0
H591 H 0.83953 0.14598 0.72963 0.0
H592 H 0.6729 0.12 0.64885 0.0
H593 H 0.75199 0.21575 0.64305 0.0
C594 C 0.53748 0.19391 0.26964 0.0
C595 C 0.56191 0.18898 0.27861 0.0
N596 N 0.55029 0.15761 0.2823 0.0
N597 N 0.51031 0.16588 0.26791 0.0
C598 C 0.51873 0.14412 0.27649 0.0
H599 H 0.53964 0.21648 0.26325 0.0
Co600 Co 0.4741 0.16323 0.2481 0.0
C601 C 0.43112 0.09624 0.23162 0.0
O602 O 0.42777 0.10724 0.20259 0.0
N603 N 0.43732 0.16162 0.22842 0.0
C604 C 0.38746 0.15208 0.22599 0.0
C605 C 0.40855 0.14653 0.24353 0.0
C606 C 0.43291 0.17653 0.2018 0.0
N607 N 0.40293 0.17111 0.19984 0.0
O608 O 0.46246 0.17399 0.29067 0.0
H609 H 0.40335 0.13268 0.26639 0.0
H610 H 0.45121 0.19224 0.18469 0.0
O611 O 0.44862 0.11582 0.25483 0.0
C612 C 0.47113 0.20334 0.28654 0.0
O613 O 0.48449 0.21698 0.25786 0.0
N614 N 0.48913 0.15811 0.20693 0.0
C615 C 0.51635 0.15903 0.14524 0.0
C616 C 0.50953 0.13479 0.16856 0.0
C617 C 0.49584 0.13472 0.19931 0.0
C618 C 0.50031 0.18413 0.18694 0.0
C619 C 0.51216 0.18433 0.15515 0.0
H620 H 0.49077 0.11585 0.21684 0.0
H621 H 0.4997 0.2048 0.19563 0.0
H622 H 0.5025 0.11881 0.27659 0.0
H623 H 0.58642 0.20718 0.28202 0.0
H624 H 0.3627 0.14283 0.23204 0.0
H625 H 0.51385 0.11556 0.1628 0.0
H626 H 0.51675 0.2037 0.13845 0.0
C627 C 0.87767 0.35788 0.27201 0.0
C628 C 0.88306 0.38751 0.2803 0.0
N629 N 0.91458 0.40756 0.28136 0.0
N630 N 0.90559 0.35887 0.26785 0.0
C631 C 0.92781 0.38951 0.27395 0.0
H632 H 0.85474 0.33704 0.26813 0.0
Co633 Co 0.90702 0.32389 0.25053 0.0
C634 C 0.9737 0.34563 0.23313 0.0
O635 O 0.96217 0.32892 0.20545 0.0
N636 N 0.90751 0.28744 0.23332 0.0
C637 C 0.917 0.24712 0.23201 0.0
C638 C 0.9223 0.27384 0.24918 0.0
C639 C 0.89287 0.26796 0.2068 0.0
N640 N 0.89836 0.24344 0.20541 0.0
O641 O 0.89764 0.30435 0.29466 0.0
H642 H 0.93622 0.2829 0.27194 0.0
H643 H 0.87763 0.27069 0.18912 0.0
O644 O 0.95459 0.34575 0.25566 0.0
C645 C 0.86817 0.28347 0.29194 0.0
O646 O 0.8537 0.28139 0.26332 0.0
N647 N 0.91063 0.34099 0.20795 0.0
C648 C 0.90899 0.35688 0.1418 0.0
C649 C 0.93519 0.3765 0.16192 0.0
C650 C 0.93514 0.36855 0.19559 0.0
C651 C 0.88296 0.32551 0.19048 0.0
C652 C 0.88182 0.33239 0.15678 0.0
H653 H 0.9552 0.38391 0.21113 0.0
H654 H 0.86216 0.30646 0.20229 0.0
H655 H 0.95305 0.39868 0.2715 0.0
H656 H 0.86506 0.39385 0.28518 0.0
H657 H 0.92648 0.23188 0.23839 0.0
H658 H 0.95581 0.39696 0.15144 0.0
H659 H 0.86061 0.31759 0.14226 0.0
C660 C 0.71499 0.5358 0.27099 0.0
C661 C 0.6851 0.51142 0.27827 0.0
N662 N 0.66481 0.5226 0.2771 0.0
N663 N 0.71391 0.56253 0.26552 0.0
C664 C 0.68297 0.55387 0.2699 0.0
H665 H 0.73609 0.5339 0.26864 0.0
Co666 Co 0.74892 0.59864 0.24775 0.0
C667 C 0.72793 0.64462 0.23127 0.0
O668 O 0.74458 0.64986 0.20352 0.0
N669 N 0.78529 0.63518 0.22992 0.0
C670 C 0.82599 0.68469 0.22713 0.0
C671 C 0.80003 0.66363 0.24562 0.0
C672 C 0.80333 0.63959 0.20221 0.0
N673 N 0.82781 0.66952 0.19967 0.0
O674 O 0.76915 0.60892 0.29169 0.0
H675 H 0.79226 0.66877 0.26913 0.0
H676 H 0.79962 0.62127 0.18456 0.0
O677 O 0.72744 0.62474 0.25323 0.0
C678 C 0.79007 0.60038 0.28868 0.0
O679 O 0.79187 0.58795 0.25998 0.0
N680 N 0.73132 0.58498 0.20541 0.0
C681 C 0.71432 0.56492 0.13993 0.0
C682 C 0.69597 0.57387 0.15917 0.0
C683 C 0.70439 0.58299 0.19252 0.0
C684 C 0.74588 0.57134 0.1888 0.0
C685 C 0.73854 0.56213 0.15545 0.0
H686 H 0.6897 0.58911 0.20741 0.0
H687 H 0.76475 0.56948 0.20092 0.0
H688 H 0.67366 0.56973 0.26647 0.0
H689 H 0.6788 0.48727 0.28412 0.0
H690 H 0.84214 0.70928 0.23326 0.0
H691 H 0.67608 0.5748 0.14819 0.0
H692 H 0.7529 0.55476 0.14156 0.0
C693 C 0.54604 0.19241 0.87353 0.0
C694 C 0.54237 0.21717 0.86283 0.0
N695 N 0.51182 0.20581 0.85447 0.0
N696 N 0.51781 0.16521 0.8732 0.0
C697 C 0.49772 0.17413 0.85983 0.0
H698 H 0.56838 0.19427 0.88033 0.0
Co699 Co 0.51304 0.12544 0.88743 0.0
C700 C 0.44511 0.10923 0.89476 0.0
O701 O 0.45514 0.13609 0.91099 0.0
N702 N 0.50939 0.08681 0.90098 0.0
C703 C 0.49517 0.03607 0.90681 0.0
C704 C 0.48954 0.05734 0.88951 0.0
C705 C 0.52698 0.08295 0.92484 0.0
N706 N 0.51888 0.0523 0.92897 0.0
O707 O 0.52199 0.11797 0.84204 0.0
H708 H 0.47207 0.05167 0.8699 0.0
H709 H 0.54481 0.10232 0.93959 0.0
O710 O 0.46562 0.10306 0.88152 0.0
C711 C 0.55134 0.12602 0.84499 0.0
O712 O 0.56526 0.13654 0.87429 0.0
N713 N 0.51013 0.13421 0.93252 0.0
C714 C 0.51856 0.14437 0.00167 0.0
C715 C 0.48955 0.12066 -0.01147 0.0
C716 C 0.48651 0.11476 0.95412 0.0
C717 C 0.5386 0.15688 0.94495 0.0
C718 C 0.5435 0.16209 0.97936 0.0
H719 H 0.46589 0.09352 0.94532 0.0
H720 H 0.55874 0.16887 0.92853 0.0
H721 H 0.47327 0.15782 0.85379 0.0
H722 H 0.56104 0.24162 0.8604 0.0
H723 H 0.48286 1.01065 0.90324 0.0
H724 H 0.4697 0.10574 0.00471 0.0
H725 H 0.56712 0.17866 -0.01183 0.0
C726 C 0.88103 0.36424 0.86941 0.0
C727 C 0.85691 0.3345 0.86123 0.0
N728 N 0.86898 0.31503 0.85855 0.0
N729 N 0.90849 0.36397 0.87161 0.0
C730 C 0.9005 0.33363 0.86441 0.0
H731 H 0.87852 0.38468 0.87449 0.0
Co732 Co 0.94496 0.39907 0.88887 0.0
C733 C 0.99023 0.37753 0.9056 0.0
O734 O 0.99519 0.39382 0.93355 0.0
N735 N 0.9819 0.43557 0.90612 0.0
C736 C 1.03194 0.47546 0.9077 0.0
C737 C 1.01022 0.44922 0.8901 0.0
C738 C 0.98705 0.45471 0.93307 0.0
N739 N 1.01731 0.47874 0.93483 0.0
O740 O 0.95489 0.41895 0.84487 0.0
H741 H 1.01478 0.4406 0.86685 0.0
H742 H 0.96933 0.45162 0.95129 0.0
O743 O 0.97095 0.37753 0.88319 0.0
C744 C 0.94562 0.43928 0.84788 0.0
O745 O 0.93264 0.44049 0.87645 0.0
N746 N 0.93174 0.38166 0.93134 0.0
C747 C 0.91323 0.36429 -0.00294 0.0
C748 C 0.92008 0.34511 0.97653 0.0
C749 C 0.92849 0.35383 0.94309 0.0
C750 C 0.91955 0.39691 0.94919 0.0
C751 C 0.91102 0.38927 0.98266 0.0
H752 H 0.93325 0.33873 0.92717 0.0
H753 H 0.91801 0.41625 0.93782 0.0
H754 H 0.91712 0.32501 0.86474 0.0
H755 H 0.83236 0.3278 0.85721 0.0
H756 H 0.05638 0.49129 0.90066 0.0
H757 H 0.91995 0.32435 -0.01349 0.0
H758 H 0.9045 0.40381 -0.00252 0.0
C759 C 0.70667 0.53333 0.86868 0.0
C760 C 0.73633 0.53882 0.86028 0.0
N761 N 0.75582 0.57029 0.85702 0.0
N762 N 0.70711 0.56113 0.87076 0.0
C763 C 0.73744 0.58338 0.86332 0.0
H764 H 0.68618 0.51048 0.87396 0.0
Co765 Co 0.67189 0.56263 0.88721 0.0
C766 C 0.69346 0.62943 0.90399 0.0
O767 O 0.67639 0.61793 0.93147 0.0
N768 N 0.63517 0.56316 0.9036 0.0
C769 C 0.59473 0.57252 0.90403 0.0
C770 C 0.62164 0.57778 0.88724 0.0
C771 C 0.61547 0.54872 0.93006 0.0
N772 N 0.59085 0.5541 0.93091 0.0
O773 O 0.65319 0.55339 0.84271 0.0
H774 H 0.63089 0.59154 0.86441 0.0
H775 H 0.61819 0.53374 0.94812 0.0
O776 O 0.69398 0.61013 0.882 0.0
C777 C 0.63237 0.52389 0.84515 0.0
O778 O 0.62962 0.50942 0.87395 0.0
N779 N 0.68827 0.56606 0.93009 0.0
C780 C 0.70565 0.56218 -0.00471 0.0
C781 C 0.72454 0.58921 0.97586 0.0
C782 C 0.71589 0.59029 0.94267 0.0
C783 C 0.6727 0.53807 0.94698 0.0
C784 C 0.68024 0.53586 0.98016 0.0
H785 H 0.73115 0.61069 0.92749 0.0
H786 H 0.6534 0.51764 0.93497 0.0
H787 H 0.74615 0.60861 0.86387 0.0
H788 H 0.74305 0.52094 0.85669 0.0
H789 H 0.57951 0.58192 0.8972 0.0
H790 H 0.74525 0.60946 -0.0135 0.0
H791 H 0.66538 0.51434 -0.00583 0.0
C792 C 0.55023 0.86432 0.69578 0.0
C793 C 0.52597 0.86985 0.68802 0.0
N794 N 0.53736 0.90136 0.68802 0.0
N795 N 0.57711 0.89213 0.70064 0.0
C796 C 0.56861 0.91445 0.69555 0.0
H797 H 0.54814 0.84132 0.69892 0.0
Co798 Co 0.61332 0.89315 0.71806 0.0
C799 C 0.65948 0.96013 0.73464 0.0
O800 O 0.66525 0.94865 0.76201 0.0
N801 N 0.64995 0.89315 0.73559 0.0
C802 C 0.69946 0.9018 0.73804 0.0
C803 C 0.67826 0.90653 0.71957 0.0
C804 C 0.65461 0.87991 0.76352 0.0
N805 N 0.68455 0.8853 0.76586 0.0
O806 O 0.62346 0.88357 0.67392 0.0
H807 H 0.68324 0.91916 0.69589 0.0
H808 H 0.63652 0.86574 0.78157 0.0
O809 O 0.63936 0.94077 0.71286 0.0
C810 C 0.61431 0.85396 0.6766 0.0
O811 O 0.60166 0.83955 0.70517 0.0
N812 N 0.59985 0.89679 0.76053 0.0
C813 C 0.58251 0.89411 0.82684 0.0
C814 C 0.59043 0.92124 0.80769 0.0
C815 C 0.59828 0.92177 0.7739 0.0
C816 C 0.58634 0.86855 0.77705 0.0
C817 C 0.57836 0.86682 0.8108 0.0
H818 H 0.60396 0.94252 0.75908 0.0
H819 H 0.58402 0.84778 0.7646 0.0
H820 H 0.58458 0.9396 0.69883 0.0
H821 H 0.50167 0.85196 0.68279 0.0
H822 H 0.724 0.9101 0.7317 0.0
H823 H 0.59172 0.94207 0.81903 0.0
H824 H 0.57103 0.84503 0.8246 0.0
C825 C 0.20922 0.69944 0.70017 0.0
C826 C 0.20408 0.66998 0.69147 0.0
N827 N 0.17259 0.64987 0.68997 0.0
N828 N 0.18119 0.69833 0.70393 0.0
C829 C 0.15914 0.66778 0.69709 0.0
H830 H 0.23205 0.72028 0.70453 0.0
Co831 Co 0.17968 0.73301 0.72223 0.0
C832 C 0.11275 0.71141 0.73913 0.0
O833 O 0.12424 0.72744 0.76721 0.0
N834 N 0.17917 0.76916 0.7406 0.0
C835 C 0.16945 0.80928 0.74337 0.0
C836 C 0.165 0.78349 0.72494 0.0
C837 C 0.19268 0.78738 0.76829 0.0
N838 N 0.18673 0.81156 0.77077 0.0
O839 O 0.18945 0.75357 0.67856 0.0
H840 H 0.15226 0.77568 0.70134 0.0
H841 H 0.20676 0.78349 0.78654 0.0
O842 O 0.13207 0.71138 0.71677 0.0
C843 C 0.21886 0.77454 0.68164 0.0
O844 O 0.23314 0.77621 0.71029 0.0
N845 N 0.17576 0.71499 0.76423 0.0
C846 C 0.17757 0.69757 0.8297 0.0
C847 C 0.15117 0.67857 0.80952 0.0
C848 C 0.15109 0.68733 0.77616 0.0
C849 C 0.20353 0.72989 0.78158 0.0
C850 C 0.20478 0.7222 0.81494 0.0
H851 H 0.13089 0.67249 0.76054 0.0
H852 H 0.2243 0.74923 0.77004 0.0
H853 H 0.13382 0.65852 0.69858 0.0
H854 H 0.22221 0.66388 0.68636 0.0
H855 H 0.1613 0.82554 0.73664 0.0
H856 H 0.13047 0.65806 0.81979 0.0
H857 H 0.22607 0.73662 0.8295 0.0
C858 C 0.37229 0.52229 0.69905 0.0
C859 C 0.40175 0.54691 0.69072 0.0
N860 N 0.42228 0.536 0.69001 0.0
N861 N 0.37389 0.4957 0.70333 0.0
C862 C 0.40467 0.50467 0.69721 0.0
H863 H 0.35112 0.52385 0.70274 0.0
Co864 Co 0.33962 0.45903 0.72117 0.0
C865 C 0.36281 0.41471 0.73707 0.0
O866 O 0.34657 0.40925 0.76515 0.0
N867 N 0.30396 0.42181 0.73911 0.0
C868 C 0.26441 0.37169 0.74166 0.0
C869 C 0.29013 0.39341 0.72334 0.0
C870 C 0.28555 0.41671 0.76671 0.0
N871 N 0.26169 0.38642 0.76903 0.0
O872 O 0.31922 0.4486 0.67733 0.0
H873 H 0.2982 0.38881 0.69972 0.0
H874 H 0.28905 0.43454 0.78496 0.0
O875 O 0.36226 0.43409 0.71515 0.0
C876 C 0.29778 0.45643 0.68051 0.0
O877 O 0.29521 0.46788 0.70955 0.0
N878 N 0.35732 0.47295 0.76337 0.0
C879 C 0.37556 0.49553 0.82799 0.0
C880 C 0.39414 0.48686 0.80874 0.0
C881 C 0.38506 0.47646 0.77578 0.0
C882 C 0.34208 0.48585 0.77998 0.0
C883 C 0.35009 0.49635 0.81286 0.0
H884 H 0.40003 0.47084 0.76073 0.0
H885 H 0.32244 0.4865 0.76813 0.0
H886 H 0.41428 0.48895 0.69923 0.0
H887 H 0.40753 0.57098 0.68525 0.0
H888 H 0.24845 0.34724 0.73484 0.0
H889 H 0.41485 0.4873 0.81938 0.0
H890 H 0.33539 0.50328 0.82675 0.0
C891 C 0.54437 0.86741 0.10063 0.0
C892 C 0.54972 0.84316 0.10911 0.0
N893 N 0.58125 0.85471 0.11061 0.0
N894 N 0.5723 0.89443 0.09703 0.0
C895 C 0.59449 0.88609 0.10381 0.0
H896 H 0.52148 0.86527 0.09619 0.0
Co897 Co 0.57375 0.93049 0.07847 0.0
C898 C 0.6408 0.97591 0.0624 0.0
O899 O 0.62962 0.98017 0.03392 0.0
N900 N 0.57418 0.96703 0.05984 0.0
C901 C 0.5844 1.01701 0.05622 0.0
C902 C 0.58899 0.99582 0.07484 0.0
C903 C 0.55989 0.97133 0.03256 0.0
N904 N 0.56616 1.00151 0.02958 0.0
O905 O 0.56331 0.94106 0.12188 0.0
H906 H 0.60234 1.00108 0.09806 0.0
H907 H 0.54495 0.95304 0.01502 0.0
O908 O 0.62124 0.95669 0.08468 0.0
C909 C 0.53393 0.9327 0.11868 0.0
O910 O 0.5198 0.92038 0.08989 0.0
N911 N 0.57854 0.91661 0.03664 0.0
C912 C 0.5783 0.89686 0.97162 0.0
C913 C 0.60398 0.90398 -0.00714 0.0
C914 C 0.60335 0.91327 0.02585 0.0
C915 C 0.5513 0.90398 0.01837 0.0
C916 C 0.55091 0.89493 -0.01481 0.0
H917 H 0.62311 0.91854 0.04216 0.0
H918 H 0.53022 0.90246 0.02917 0.0
H919 H 0.61978 0.90227 0.10235 0.0
H920 H 0.53171 0.81883 0.11397 0.0
H921 H 0.59317 0.04169 0.06221 0.0
H922 H 0.6247 0.90351 0.98372 0.0
H923 H 0.53005 0.88823 0.96993 0.0
C924 C 0.20345 0.69038 0.10471 0.0
C925 C 0.22769 0.71987 0.11341 0.0
N926 N 0.21628 0.73996 0.11467 0.0
N927 N 0.17658 0.69148 0.10049 0.0
C928 C 0.18504 0.72207 0.10697 0.0
H929 H 0.20556 0.6696 0.10045 0.0
Co930 Co 0.14049 0.65687 0.08206 0.0
C931 C 0.09633 0.67933 0.06356 0.0
O932 O 0.09191 0.66323 0.03556 0.0
N933 N 0.10387 0.62076 0.06369 0.0
C934 C 0.05401 0.58062 0.06079 0.0
C935 C 0.07499 0.60717 0.07852 0.0
C936 C 0.09975 0.60139 0.03727 0.0
N937 N 0.06974 0.57693 0.03497 0.0
O938 O 0.12904 0.63659 0.12579 0.0
H939 H 0.06958 0.61595 0.10113 0.0
H940 H 0.11808 0.60472 0.01983 0.0
O941 O 0.11485 0.67884 0.08661 0.0
C942 C 0.13793 0.61596 0.12313 0.0
O943 O 0.15144 0.61474 0.09496 0.0
N944 N 0.15517 0.67462 0.03999 0.0
C945 C 0.17463 0.69161 0.9745 0.0
C946 C 0.16785 0.71111 -0.00542 0.0
C947 C 0.15887 0.70253 0.02793 0.0
C948 C 0.16769 0.65931 0.02282 0.0
C949 C 0.17666 0.66673 -0.01058 0.0
H950 H 0.15387 0.71771 0.04342 0.0
H951 H 0.16893 0.63994 0.03456 0.0
H952 H 0.16908 0.73136 0.10448 0.0
H953 H 0.25199 0.72611 0.11835 0.0
H954 H 1.0293 0.56485 0.06682 0.0
H955 H 0.16817 0.73185 -0.01576 0.0
H956 H 0.18317 0.65197 0.97499 0.0
C957 C 0.37967 0.52713 0.10436 0.0
C958 C 0.34988 0.52133 0.1126 0.0
N959 N 0.32989 0.4898 0.11228 0.0
N960 N 0.37886 0.49946 0.09888 0.0
C961 C 0.34812 0.47695 0.10409 0.0
H962 H 0.40047 0.55023 0.1013 0.0
Co963 Co 0.414 0.49889 0.0806 0.0
C964 C 0.39292 0.43246 0.0619 0.0
O965 O 0.40921 0.44438 0.03405 0.0
N966 N 0.45052 0.49926 0.06228 0.0
C967 C 0.49125 0.4905 0.05893 0.0
C968 C 0.465 0.48493 0.07728 0.0
C969 C 0.46902 0.51392 0.03511 0.0
N970 N 0.49354 0.50853 0.03223 0.0
O971 O 0.43401 0.50763 0.12454 0.0
H972 H 0.4569 0.4712 0.10026 0.0
H973 H 0.46563 0.52921 0.01813 0.0
O974 O 0.3927 0.45124 0.08477 0.0
C975 C 0.45431 0.53731 0.12237 0.0
O976 O 0.45569 0.55226 0.09431 0.0
N977 N 0.39658 0.49608 0.03837 0.0
C978 C 0.38086 0.50035 0.97274 0.0
C979 C 0.36189 0.47285 -0.00852 0.0
C980 C 0.36965 0.47156 0.02497 0.0
C981 C 0.41148 0.52456 0.02236 0.0
C982 C 0.40479 0.52706 -0.01107 0.0
H983 H 0.35466 0.45057 0.03949 0.0
H984 H 0.43024 0.545 0.03495 0.0
H985 H 0.33902 0.45187 0.10039 0.0
H986 H 0.34337 0.53906 0.11833 0.0
H987 H 0.50729 0.4818 0.06463 0.0
H988 H 0.34218 0.45226 0.97997 0.0
H989 H 0.41957 0.54895 0.97547 0.0
C990 C 0.20669 0.52845 0.60272 0.0
C991 C 0.23095 0.52313 0.61136 0.0
N992 N 0.21968 0.49164 0.61176 0.0
N993 N 0.17993 0.50053 0.59793 0.0
C994 C 0.18845 0.47837 0.60407 0.0
H995 H 0.20866 0.55136 0.59913 0.0
Co996 Co 0.14378 0.49898 0.57936 0.0
C997 C 0.09918 0.43207 0.56203 0.0
O998 O 0.09477 0.44339 0.53374 0.0
N999 N 0.10711 0.49825 0.56074 0.0
C1000 C 0.05724 0.4885 0.55778 0.0
C1001 C 0.0785 0.48382 0.57616 0.0
C1002 C 0.10252 0.512 0.53317 0.0
N1003 N 0.07238 0.50606 0.5306 0.0
O1004 O 0.13274 0.50871 0.623 0.0
H1005 H 0.07341 0.47069 0.59952 0.0
H1006 H 0.12085 0.52709 0.51574 0.0
O1007 O 0.11793 0.45137 0.58475 0.0
C1008 C 0.14099 0.53809 0.62001 0.0
O1009 O 0.15349 0.55246 0.59137 0.0
N1010 N 0.15823 0.49531 0.53739 0.0
C1011 C 0.17951 0.49851 0.47241 0.0
C1012 C 0.17135 0.47167 0.49215 0.0
C1013 C 0.16164 0.47094 0.52528 0.0
C1014 C 0.1711 0.52325 0.52039 0.0
C1015 C 0.18089 0.52515 0.48727 0.0
H1016 H 0.15607 0.45051 0.54062 0.0
H1017 H 0.17206 0.54375 0.53206 0.0
H1018 H 0.17251 0.45311 0.60166 0.0
H1019 H 0.25506 0.54114 0.61719 0.0
H1020 H 1.03255 0.47962 0.56388 0.0
H1021 H 0.17142 0.45116 0.48171 0.0
H1022 H 0.18758 0.54655 0.47302 0.0
C1023 C 0.54428 0.6907 0.60183 0.0
C1024 C 0.54996 0.72039 0.61038 0.0
N1025 N 0.58153 0.74029 0.61105 0.0
N1026 N 0.57205 0.6915 0.59712 0.0
C1027 C 0.59448 0.72209 0.60312 0.0
H1028 H 0.52124 0.66995 0.59819 0.0
Co1029 Co 0.57312 0.65642 0.57936 0.0
C1030 C 0.63979 0.67799 0.56183 0.0
O1031 O 0.62826 0.66149 0.53404 0.0
N1032 N 0.57328 0.61991 0.56168 0.0
C1033 C 0.58213 0.57917 0.56002 0.0
C1034 C 0.58773 0.60589 0.5774 0.0
C1035 C 0.55864 0.60073 0.53493 0.0
N1036 N 0.56369 0.57591 0.53336 0.0
O1037 O 0.56383 0.63665 0.62341 0.0
H1038 H 0.60158 0.61464 0.60024 0.0
H1039 H 0.54373 0.60393 0.51718 0.0
O1040 O 0.62064 0.67801 0.58437 0.0
C1041 C 0.53431 0.61587 0.6209 0.0
O1042 O 0.51967 0.61383 0.59241 0.0
N1043 N 0.57656 0.67374 0.53695 0.0
C1044 C 0.5729 0.69128 0.4718 0.0
C1045 C 0.60002 0.70995 0.49118 0.0
C1046 C 0.60099 0.70125 0.52437 0.0
C1047 C 0.54847 0.65858 0.5202 0.0
C1048 C 0.54633 0.66622 0.48703 0.0
H1049 H 0.62157 0.71621 0.53945 0.0
H1050 H 0.52797 0.63932 0.53219 0.0
H1051 H 0.61966 0.73113 0.60027 0.0
H1052 H 0.53214 0.72686 0.61572 0.0
H1053 H 0.59129 0.56363 0.56629 0.0
H1054 H 0.62048 0.7304 0.48046 0.0
H1055 H 0.52473 0.65156 0.47306 0.0
C1056 C 0.38008 0.86742 0.60164 0.0
C1057 C 0.35033 0.84308 0.60944 0.0
N1058 N 0.33064 0.85489 0.61206 0.0
N1059 N 0.37956 0.89475 0.59962 0.0
C1060 C 0.34908 0.88647 0.60654 0.0
H1061 H 0.40069 0.86517 0.59671 0.0
Co1062 Co 0.4147 0.93147 0.58295 0.0
C1063 C 0.3931 0.97671 0.56605 0.0
O1064 O 0.40997 0.98202 0.53845 0.0
N1065 N 0.45125 0.96862 0.56632 0.0
C1066 C 0.49143 1.0185 0.56567 0.0
C1067 C 0.46491 0.99666 0.58283 0.0
C1068 C 0.47054 0.97407 0.53944 0.0
N1069 N 0.4948 1.00423 0.53828 0.0
O1070 O 0.43388 0.94125 0.6273 0.0
H1071 H 0.45616 1.00092 0.60616 0.0
H1072 H 0.46735 0.95663 0.52083 0.0
O1073 O 0.39265 0.95698 0.58817 0.0
C1074 C 0.45438 0.93216 0.62462 0.0
O1075 O 0.45607 0.91942 0.59609 0.0
N1076 N 0.39803 0.91835 0.54019 0.0
C1077 C 0.3801 0.89669 0.47523 0.0
C1078 C 0.36137 0.90497 0.49473 0.0
C1079 C 0.3703 0.91491 0.52781 0.0
C1080 C 0.41349 0.90587 0.52323 0.0
C1081 C 0.40564 0.89587 0.49017 0.0
H1082 H 0.35517 0.92017 0.54307 0.0
H1083 H 0.433 0.90494 0.53504 0.0
H1084 H 0.34026 0.90293 0.60627 0.0
H1085 H 0.34378 0.81855 0.61326 0.0
H1086 H 0.5074 0.04273 0.57324 0.0
H1087 H 0.3406 0.90449 0.48423 0.0
H1088 H 0.42039 0.88913 0.47607 0.0
C1089 C 0.20675 0.52274 0.19874 0.0
C1090 C 0.20068 0.54658 0.19065 0.0
N1091 N 0.16905 0.53436 0.18914 0.0
N1092 N 0.17917 0.49535 0.2023 0.0
C1093 C 0.15645 0.50308 0.19613 0.0
H1094 H 0.2299 0.52543 0.20293 0.0
Co1095 Co 0.17847 0.45926 0.21947 0.0
C1096 C 0.11198 0.4136 0.23763 0.0
O1097 O 0.12393 0.4084 0.26498 0.0
N1098 N 0.17866 0.42268 0.23665 0.0
C1099 C 0.16962 0.37306 0.23873 0.0
C1100 C 0.1647 0.39434 0.22071 0.0
C1101 C 0.1924 0.41795 0.26408 0.0
N1102 N 0.18681 0.38794 0.26618 0.0
O1103 O 0.18699 0.44879 0.17506 0.0
H1104 H 0.15154 0.3894 0.19739 0.0
H1105 H 0.20702 0.43601 0.28195 0.0
O1106 O 0.1309 0.43334 0.21533 0.0
C1107 C 0.21671 0.45828 0.17702 0.0
O1108 O 0.23172 0.47155 0.20513 0.0
N1109 N 0.17577 0.47306 0.26214 0.0
C1110 C 0.18074 0.49369 0.32765 0.0
C1111 C 0.153 0.48488 0.30923 0.0
C1112 C 0.15135 0.47549 0.27581 0.0
C1113 C 0.20434 0.48645 0.27799 0.0
C1114 C 0.20717 0.49594 0.31131 0.0
H1115 H 0.13031 0.46961 0.26143 0.0
H1116 H 0.22465 0.48794 0.26527 0.0
H1117 H 0.13129 0.48651 0.19818 0.0
H1118 H 0.21826 0.57114 0.18618 0.0
H1119 H 0.16097 0.34848 0.23235 0.0
H1120 H 0.13261 0.48435 0.32085 0.0
H1121 H 0.22919 0.50316 0.32456 0.0
C1122 C 0.54931 0.70026 0.1959 0.0
C1123 C 0.52516 0.67066 0.1873 0.0
N1124 N 0.53647 0.65046 0.18731 0.0
N1125 N 0.576 0.69908 0.20132 0.0
C1126 C 0.56754 0.66836 0.19567 0.0
H1127 H 0.54727 0.72119 0.19918 0.0
Co1128 Co 0.61198 0.73381 0.21977 0.0
C1129 C 0.65681 0.71189 0.23767 0.0
O1130 O 0.66142 0.72808 0.26563 0.0
N1131 N 0.64848 0.76989 0.2382 0.0
C1132 C 0.69825 0.8101 0.24145 0.0
C1133 C 0.67719 0.78416 0.22298 0.0
C1134 C 0.65277 0.7882 0.26565 0.0
N1135 N 0.68285 0.81242 0.26844 0.0
O1136 O 0.62305 0.75427 0.176 0.0
H1137 H 0.68249 0.77612 0.19975 0.0
H1138 H 0.63428 0.7849 0.28287 0.0
O1139 O 0.63791 0.7121 0.2149 0.0
C1140 C 0.61447 0.77517 0.17886 0.0
O1141 O 0.60178 0.77689 0.20741 0.0
N1142 N 0.59747 0.71601 0.26189 0.0
C1143 C 0.57644 0.6989 0.32709 0.0
C1144 C 0.58499 0.68018 0.30794 0.0
C1145 C 0.59454 0.68865 0.27467 0.0
C1146 C 0.58421 0.731 0.27835 0.0
C1147 C 0.57451 0.72359 0.31155 0.0
H1148 H 0.60035 0.67373 0.25979 0.0
H1149 H 0.58295 0.75019 0.26621 0.0
H1150 H 0.58336 0.65902 0.19914 0.0
H1151 H 0.501 0.66443 0.18153 0.0
H1152 H 0.72299 0.82593 0.23559 0.0
H1153 H 0.5853 0.65997 0.31892 0.0
H1154 H 0.56747 0.73824 0.32536 0.0
C1155 C 0.37383 0.86242 0.20287 0.0
C1156 C 0.40353 0.86817 0.19425 0.0
N1157 N 0.42285 0.89969 0.19134 0.0
N1158 N 0.374 0.89008 0.20515 0.0
C1159 C 0.40423 0.91252 0.19759 0.0
H1160 H 0.35348 0.83946 0.20808 0.0
Co1161 Co 0.33879 0.89117 0.22241 0.0
C1162 C 0.35976 0.95799 0.23944 0.0
O1163 O 0.34281 0.94645 0.26698 0.0
N1164 N 0.30217 0.89126 0.23976 0.0
C1165 C 0.26152 0.90023 0.24191 0.0
C1166 C 0.28754 0.90492 0.22368 0.0
C1167 C 0.28402 0.87793 0.2675 0.0
N1168 N 0.25958 0.8835 0.26964 0.0
O1169 O 0.31939 0.88213 0.17821 0.0
H1170 H 0.29546 0.91771 0.20012 0.0
H1171 H 0.2877 0.86362 0.28558 0.0
O1172 O 0.36045 0.93871 0.21753 0.0
C1173 C 0.29909 0.85248 0.18053 0.0
O1174 O 0.29756 0.83772 0.20879 0.0
N1175 N 0.35571 0.89447 0.26494 0.0
C1176 C 0.37199 0.89097 0.33059 0.0
C1177 C 0.39078 0.91824 0.31145 0.0
C1178 C 0.38274 0.91913 0.27798 0.0
C1179 C 0.34073 0.86624 0.28147 0.0
C1180 C 0.34771 0.86416 0.3149 0.0
H1181 H 0.39776 0.93982 0.26306 0.0
H1182 H 0.32178 0.84568 0.26922 0.0
H1183 H 0.41273 0.93772 0.19778 0.0
H1184 H 0.41029 0.85039 0.18999 0.0
H1185 H 0.24546 0.90874 0.23548 0.0
H1186 H 0.41074 0.93887 0.32258 0.0
H1187 H 0.33303 0.84246 0.32871 0.0
C1188 C 0.22085 0.20581 0.2481 0.0
C1189 C 0.24587 0.22974 0.26679 0.0
C1190 C 0.22192 0.20586 0.21294 0.0
C1191 C 0.24792 0.22998 0.19558 0.0
H1192 H 0.20031 0.18705 0.26076 0.0
H1193 H 0.20229 0.18705 0.19923 0.0
S1194 S 0.31964 0.29758 0.23291 0.0
N1195 N 0.29727 0.27815 0.26551 0.0
N1196 N 0.2997 0.27761 0.19929 0.0
C1197 C 0.27322 0.25381 0.21395 0.0
C1198 C 0.27213 0.25381 0.24966 0.0
C1199 C 0.82096 0.03116 0.21697 0.0
C1200 C 0.8455 0.0307 0.1989 0.0
C1201 C 0.82062 0.03053 0.25206 0.0
C1202 C 0.84481 0.02942 0.27017 0.0
H1203 H 0.8021 0.03248 0.2039 0.0
H1204 H 0.80088 0.03018 0.26508 0.0
S1205 S 0.91468 1.02847 0.23457 0.0
N1206 N 0.89465 0.02923 0.20132 0.0
N1207 N 0.89433 1.02866 0.26779 0.0
C1208 C 0.86969 0.02928 0.25245 0.0
C1209 C 0.86999 0.02982 0.21664 0.0
C1210 C 0.04467 0.8503 0.25191 0.0
C1211 C 0.04523 0.82576 0.26992 0.0
C1212 C 1.04347 0.84973 0.21675 0.0
C1213 C 1.04302 0.82473 0.19869 0.0
H1214 H 0.04512 0.86999 0.2651 0.0
H1215 H 1.04288 0.86893 0.20359 0.0
S1216 S 0.04435 0.75499 0.23424 0.0
N1217 N 0.04595 0.77623 0.26737 0.0
N1218 N 1.04262 0.77462 0.20115 0.0
C1219 C 1.04357 0.80007 0.21642 0.0
C1220 C 0.04485 0.80068 0.25214 0.0
C1221 C 0.86551 0.85213 0.71529 0.0
C1222 C 0.84073 0.82674 0.69787 0.0
C1223 C 0.86557 0.85316 0.75045 0.0
C1224 C 0.841 0.82869 0.76906 0.0
H1225 H 0.88496 0.87121 0.70164 0.0
H1226 H 0.88495 0.87313 0.76318 0.0
S1227 S 0.77076 0.75709 0.73515 0.0
N1228 N 0.79134 0.77642 0.70155 0.0
N1229 N 0.79094 0.77886 0.76777 0.0
C1230 C 0.81604 0.80326 0.75191 0.0
C1231 C 0.81599 0.8022 0.71621 0.0
C1232 C 0.26797 1.0262 0.75226 0.0
C1233 C 0.24427 1.02733 0.77129 0.0
C1234 C 0.2676 1.02718 0.71722 0.0
C1235 C 0.24349 0.02929 0.70009 0.0
H1236 H 0.2867 1.02405 0.76452 0.0
H1237 H 0.2867 1.02694 0.70346 0.0
S1238 S 0.17587 0.0327 0.7384 0.0
N1239 N 0.19618 0.03086 0.77083 0.0
N1240 N 0.19507 0.03197 0.7044 0.0
C1241 C 0.21951 0.03026 0.71875 0.0
C1242 C 0.21997 0.02941 0.75455 0.0
C1243 C 1.04202 0.20716 0.71641 0.0
C1244 C 1.04206 0.23203 0.69846 0.0
C1245 C 1.04302 0.20754 0.75158 0.0
C1246 C 1.04386 0.23269 0.76972 0.0
H1247 H 1.04121 0.18732 0.70316 0.0
H1248 H 1.04314 0.18808 0.76468 0.0
S1249 S 0.04425 0.30336 0.73435 0.0
N1250 N 1.04239 0.28209 0.70115 0.0
N1251 N 0.04536 0.28333 0.76739 0.0
C1252 C 0.04396 0.25771 0.75204 0.0
C1253 C 1.04288 0.25729 0.71632 0.0
C1254 C 0.88907 0.53875 0.58698 0.0
C1255 C 0.91341 0.56373 0.60527 0.0
C1256 C 0.88969 0.53869 0.55182 0.0
C1257 C 0.91454 0.56373 0.53406 0.0
H1258 H 0.86945 0.51923 0.59996 0.0
H1259 H 0.87065 0.519 0.53842 0.0
S1260 S 0.98374 0.63472 0.57042 0.0
N1261 N 0.96263 0.61436 0.60334 0.0
N1262 N 0.96428 0.61376 0.53707 0.0
C1263 C 0.93902 0.58882 0.55207 0.0
C1264 C 0.93838 0.58889 0.58779 0.0
C1265 C 0.53319 0.36385 0.54319 0.0
C1266 C 0.50838 0.36455 0.52593 0.0
C1267 C 0.53391 0.36386 0.57834 0.0
C1268 C 0.50991 0.36468 0.59716 0.0
H1269 H 0.55213 0.36332 0.52941 0.0
H1270 H 0.5533 0.36311 0.59088 0.0
S1271 S 0.44007 0.36717 0.56369 0.0
N1272 N 0.45982 0.36706 0.52993 0.0
N1273 N 0.46049 0.36578 0.59621 0.0
C1274 C 0.48501 0.36545 0.58018 0.0
C1275 C 0.48435 0.36559 0.54444 0.0
C1276 C 0.70951 0.14225 0.58649 0.0
C1277 C 0.70935 0.1671 0.6042 0.0
C1278 C 0.71033 0.1423 0.55146 0.0
C1279 C 0.71107 0.16723 0.53299 0.0
H1280 H 0.7096 0.12287 0.59982 0.0
H1281 H 0.70965 0.12229 0.53873 0.0
S1282 S 0.71124 0.23798 0.56751 0.0
N1283 N 0.70986 0.21721 0.60104 0.0
N1284 N 0.71205 0.21761 0.53461 0.0
C1285 C 0.71109 0.19236 0.55031 0.0
C1286 C 0.71012 0.19224 0.58612 0.0
C1287 C 0.50752 0.12569 0.09457 0.0
C1288 C 0.52357 0.15579 0.10972 0.0
C1289 C 0.50786 0.12226 0.05982 0.0
C1290 C 0.52302 0.14883 0.03856 0.0
H1291 H 0.49295 0.10456 0.10924 0.0
H1292 H 0.49498 0.09851 0.04957 0.0
S1293 S 0.57362 0.23241 0.06605 0.0
N1294 N 0.56072 0.21203 0.10139 0.0
N1295 N 0.55757 0.20617 0.03545 0.0
C1296 C 0.54106 0.17895 0.05343 0.0
C1297 C 0.54214 0.18225 0.08913 0.0
C1298 C 0.88613 0.35992 0.08684 0.0
C1299 C 0.91079 0.35976 0.105 0.0
C1300 C 0.88651 0.36043 0.05166 0.0
C1301 C 0.91143 0.36051 0.03377 0.0
H1302 H 0.86652 0.35976 0.09992 0.0
H1303 H 0.86732 0.36091 0.03837 0.0
S1304 S 0.98126 0.35961 0.06979 0.0
N1305 N 0.96024 0.3588 0.10282 0.0
N1306 N 0.96144 0.36069 0.03653 0.0
C1307 C 0.93612 0.36015 0.05166 0.0
C1308 C 0.93573 0.35964 0.08739 0.0
C1309 C 0.71128 0.58799 0.05035 0.0
C1310 C 0.7099 0.56275 0.03192 0.0
C1311 C 0.71187 0.58793 0.08541 0.0
C1312 C 0.71104 0.5626 0.10317 0.0
H1313 H 0.71119 0.60762 0.0376 0.0
H1314 H 0.71342 0.60808 0.09871 0.0
S1315 S 0.70801 0.49118 0.06661 0.0
N1316 N 0.70855 0.51218 0.03365 0.0
N1317 N 0.70894 0.51174 0.10012 0.0
C1318 C 0.70988 0.53728 0.08512 0.0
C1319 C 0.70942 0.53741 0.04931 0.0
C1320 C 0.55566 0.87077 0.91663 0.0
C1321 C 0.58094 0.8948 0.93497 0.0
C1322 C 0.55604 0.87083 0.88145 0.0
C1323 C 0.58165 0.895 0.8637 0.0
H1324 H 0.5353 0.85206 0.92958 0.0
H1325 H 0.5361 0.85208 0.86805 0.0
S1326 S 0.65425 0.96241 0.89989 0.0
N1327 N 0.63244 0.9431 0.93285 0.0
N1328 N 0.63365 0.94242 0.86659 0.0
C1329 C 0.60741 0.9187 0.88168 0.0
C1330 C 0.60698 0.91874 0.91741 0.0
C1331 C 0.20046 0.69401 0.91965 0.0
C1332 C 0.17598 0.69464 0.93771 0.0
C1333 C 0.20044 0.69404 0.88446 0.0
C1334 C 0.1758 0.6944 0.86646 0.0
H1335 H 0.21968 0.69348 0.93282 0.0
H1336 H 0.21981 0.69385 0.87124 0.0
S1337 S 0.10621 0.69598 0.90215 0.0
N1338 N 0.12622 0.695 0.93527 0.0
N1339 N 0.12673 0.69608 0.86899 0.0
C1340 C 0.1512 0.69504 0.88424 0.0
C1341 C 0.15121 0.695 0.91997 0.0
C1342 C 0.38001 0.47548 0.91834 0.0
C1343 C 0.37874 0.49984 0.93588 0.0
C1344 C 0.38047 0.47521 0.88328 0.0
C1345 C 0.37972 0.49931 0.86462 0.0
H1346 H 0.38099 0.45664 0.93184 0.0
H1347 H 0.38049 0.45548 0.87069 0.0
S1348 S 0.37746 0.56897 0.89869 0.0
N1349 N 0.37723 0.5489 0.93237 0.0
N1350 N 0.37879 0.54875 0.86593 0.0
C1351 C 0.37904 0.52415 0.8818 0.0
C1352 C 0.37842 0.52435 0.91761 0.0
C1353 C 0.15678 0.47166 0.38302 0.0
C1354 C 0.1809 0.49656 0.36443 0.0
C1355 C 0.15735 0.47203 0.41809 0.0
C1356 C 0.18208 0.49728 0.43569 0.0
H1357 H 0.13755 0.45151 0.37036 0.0
H1358 H 0.13787 0.45275 0.43152 0.0
S1359 S 0.2511 0.5679 0.39863 0.0
N1360 N 0.23017 0.54709 0.36582 0.0
N1361 N 0.23161 0.54744 0.43227 0.0
C1362 C 0.20654 0.52221 0.41746 0.0
C1363 C 0.20589 0.52191 0.38165 0.0
C1364 C 0.59866 0.69567 0.41696 0.0
C1365 C 0.57366 0.69516 0.4351 0.0
C1366 C 0.59871 0.69588 0.38188 0.0
C1367 C 0.57376 0.69555 0.36384 0.0
H1368 H 0.61801 0.69523 0.42996 0.0
H1369 H 0.61871 0.69683 0.3688 0.0
S1370 S 0.503 0.69461 0.39958 0.0
N1371 N 0.52365 0.69496 0.43278 0.0
N1372 N 0.52344 0.6947 0.36631 0.0
C1373 C 0.54864 0.69516 0.3816 0.0
C1374 C 0.54865 0.69507 0.41742 0.0
C1375 C 0.3741 0.9163 0.38507 0.0
C1376 C 0.37491 0.89177 0.36738 0.0
C1377 C 0.37449 0.91687 0.42014 0.0
C1378 C 0.37566 0.89291 0.43863 0.0
H1379 H 0.37278 0.93501 0.3717 0.0
H1380 H 0.37468 0.93665 0.43284 0.0
S1381 S 0.37713 0.82299 0.40414 0.0
N1382 N 0.37653 0.84276 0.37057 0.0
N1383 N 0.37661 0.84349 0.43705 0.0
C1384 C 0.37599 0.86796 0.42131 0.0
C1385 C 0.37572 0.86744 0.3855 0.0
C1386 C 0.35547 0.3479 0.09459 0.0
C1387 C 0.34185 0.32928 0.06531 0.0
C1388 C 0.37043 0.38118 0.09396 0.0
C1389 C 0.37281 0.39735 0.06392 0.0
H1390 H 0.35502 0.33677 0.11838 0.0
H1391 H 0.38134 0.39432 0.11681 0.0
S1392 S 0.33833 0.36034 0.98109 0.0
N1393 N 0.32957 0.32994 0.00611 0.0
N1394 N 0.35802 0.39233 0.00464 0.0
C1395 C 0.35821 0.37912 0.03477 0.0
C1396 C 0.34263 0.34519 0.03552 0.0
C1397 C 0.69515 1.00395 0.03648 0.0
C1398 C 0.67601 0.99128 0.06561 0.0
C1399 C 0.72845 1.02048 0.03816 0.0
C1400 C 0.7441 1.02547 0.06911 0.0
H1401 H 0.68436 1.00148 0.01196 0.0
H1402 H 0.74195 0.03045 0.01526 0.0
S1403 S 0.70569 0.9945 0.15236 0.0
N1404 N 0.67568 0.98283 0.12592 0.0
N1405 N 0.73809 1.01409 0.12936 0.0
C1406 C 0.72539 1.01184 0.09827 0.0
C1407 C 0.69145 0.99469 0.09646 0.0
C1408 C 0.05091 0.71846 0.09634 0.0
C1409 C 0.04622 0.73232 0.06707 0.0
C1410 C 0.0686 0.70285 0.09567 0.0
C1411 C 0.08201 0.70002 0.06558 0.0
H1412 H 1.04046 0.71924 0.12017 0.0
H1413 H 0.07061 0.69179 0.11852 0.0
S1414 S 0.08017 0.73491 0.98273 0.0
N1415 N 0.05909 0.74436 0.00782 0.0
N1416 N 0.0919 0.7147 0.00625 0.0
C1417 C 0.07875 0.71488 0.03642 0.0
C1418 C 0.06104 0.73113 0.03723 0.0
C1419 C 0.39053 0.35535 0.42612 0.0
C1420 C 0.40894 0.3596 0.39684 0.0
C1421 C 0.35725 0.33698 0.42586 0.0
C1422 C 0.3409 0.32238 0.39619 0.0
H1423 H 0.40182 0.36668 0.44963 0.0
H1424 H 0.34424 0.33538 0.44863 0.0
S1425 S 0.37728 0.32272 0.31362 0.0
N1426 N 0.40787 0.34507 0.33811 0.0
N1427 N 0.34545 0.31102 0.33732 0.0
C1428 C 0.3589 0.32523 0.36707 0.0
C1429 C 0.39283 0.34365 0.36746 0.0
C1430 C 0.73709 0.03745 0.43156 0.0
C1431 C 0.74878 0.03336 0.40085 0.0
C1432 C 0.71998 0.05366 0.433 0.0
C1433 C 0.71419 0.06688 0.40387 0.0
H1434 H 0.74 1.02695 0.45438 0.0
H1435 H 0.71082 0.05539 0.4573 0.0
S1436 S 0.74344 0.06605 0.31786 0.0
N1437 N 0.75585 0.04615 0.34095 0.0
N1438 N 0.72411 0.07684 0.34392 0.0
C1439 C 0.72729 0.06439 0.37333 0.0
C1440 C 0.74441 0.04757 0.37177 0.0
C1441 C 1.01838 0.67812 0.37295 0.0
C1442 C 1.00568 0.66176 0.40317 0.0
C1443 C 1.03601 0.71143 0.37234 0.0
C1444 C 1.04134 0.72986 0.40183 0.0
H1445 H 1.01588 0.66513 0.34991 0.0
H1446 H 0.04594 0.72278 0.34841 0.0
S1447 S 1.00943 0.69817 0.48671 0.0
N1448 N 0.9972 0.66633 0.46294 0.0
N1449 N 1.02983 0.72878 0.46151 0.0
C1450 C 1.02719 0.71373 0.43184 0.0
C1451 C 1.00957 0.67977 0.43257 0.0
C1452 C 0.71922 0.68326 0.93099 0.0
C1453 C 0.71421 0.6646 0.90177 0.0
C1454 C 0.73685 0.71656 0.93008 0.0
C1455 C 0.74986 0.73264 0.8998 0.0
H1456 H 0.70903 0.67213 0.95493 0.0
H1457 H 0.73911 0.72974 0.95289 0.0
S1458 S 0.74699 0.69555 0.81694 0.0
N1459 N 0.72632 0.66516 0.84232 0.0
N1460 N 0.75898 0.72759 0.84032 0.0
C1461 C 0.74627 0.7144 0.87069 0.0
C1462 C 0.72864 0.68047 0.87173 0.0
C1463 C 0.39832 0.05652 0.87837 0.0
C1464 C 0.41097 0.08412 0.89808 0.0
C1465 C 0.3664 0.03261 0.88146 0.0
C1466 C 0.34555 0.03492 0.90463 0.0
H1467 H 0.41306 0.05348 0.86001 0.0
H1468 H 0.35793 1.01228 0.86493 0.0
S1469 S 0.36755 0.10085 0.96494 0.0
N1470 N 0.40038 0.11135 0.94351 0.0
N1471 N 0.34087 0.06621 0.94945 0.0
C1472 C 0.35821 0.06176 0.92552 0.0
C1473 C 0.39068 0.08637 0.92215 0.0
C1474 C 1.01864 0.35497 0.87301 0.0
C1475 C 1.00479 0.35708 0.90312 0.0
C1476 C 1.03672 0.33976 0.8721 0.0
C1477 C 1.04139 0.32562 0.90115 0.0
H1478 H 1.01665 0.3663 0.85036 0.0
H1479 H 0.04746 0.33951 0.84828 0.0
S1480 S 1.00658 0.32135 -0.01458 0.0
N1481 N 0.99465 0.34157 0.96219 0.0
N1482 N 1.02813 0.31264 0.9602 0.0
C1483 C 1.02621 0.32616 0.93099 0.0
C1484 C 1.0081 0.34199 0.93203 0.0
C1485 C 0.724 0.71884 0.59611 0.0
C1486 C 0.74291 0.73159 0.56685 0.0
C1487 C 0.69069 0.70294 0.59481 0.0
C1488 C 0.67482 0.69869 0.56412 0.0
H1489 H 0.73496 0.72074 0.62041 0.0
H1490 H 0.67733 0.69282 0.61776 0.0
S1491 S 0.71266 0.73021 0.48079 0.0
N1492 N 0.74285 0.74097 0.50677 0.0
N1493 N 0.68041 0.71085 0.50406 0.0
C1494 C 0.69333 0.71243 0.53489 0.0
C1495 C 0.72727 0.72896 0.53631 0.0
C1496 C 0.36719 1.00463 0.53891 0.0
C1497 C 0.37257 0.99138 0.56827 0.0
C1498 C 0.3499 1.02066 0.53982 0.0
C1499 C 0.33761 1.02453 0.57022 0.0
H1500 H 0.37685 1.00308 0.51486 0.0
H1501 H 0.34735 0.03125 0.51687 0.0
S1502 S 0.34166 0.99162 0.65355 0.0
N1503 N 0.36159 0.9811 0.62804 0.0
N1504 N 0.3295 1.01146 0.63003 0.0
C1505 C 0.34153 1.01024 0.5995 0.0
C1506 C 0.35884 0.9936 0.59847 0.0
C1507 C 0.05139 0.34783 0.59536 0.0
C1508 C 0.04732 0.32898 0.56651 0.0
C1509 C 0.06972 0.38111 0.59452 0.0
C1510 C 0.08447 0.39704 0.56468 0.0
H1511 H 1.03994 0.33689 0.61894 0.0
H1512 H 0.07118 0.39444 0.61696 0.0
S1513 S 0.0846 0.35941 0.48314 0.0
N1514 N 0.06217 0.32919 0.50806 0.0
N1515 N 0.09613 0.39157 0.50618 0.0
C1516 C 0.08179 0.37859 0.53603 0.0
C1517 C 0.06341 0.34466 0.53701 0.0
C1518 C 0.05879 0.68531 0.76598 0.0
C1519 C 0.07751 0.69128 0.73658 0.0
C1520 C 1.02546 0.66831 0.7649 0.0
C1521 C 1.00936 0.6569 0.73429 0.0
H1522 H 0.06993 0.69422 0.79024 0.0
H1523 H 1.01228 0.66521 0.78795 0.0
S1524 S 0.04658 0.66281 0.65064 0.0
N1525 N 0.07696 0.68188 0.67646 0.0
N1526 N 1.01451 0.65029 0.67414 0.0
C1527 C 1.02766 0.66146 0.70491 0.0
C1528 C 0.06162 0.67849 0.70611 0.0
C1529 C 0.39029 0.38782 0.76311 0.0
C1530 C 0.38395 0.40074 0.73408 0.0
C1531 C 0.40828 0.37253 0.76155 0.0
C1532 C 0.42038 0.36909 0.7308 0.0
H1533 H 0.38086 0.38906 0.78743 0.0
H1534 H 0.41155 0.36216 0.78429 0.0
S1535 S 0.41386 0.40136 0.64802 0.0
N1536 N 0.39379 0.41117 0.67417 0.0
N1537 N 0.42716 0.38217 0.67097 0.0
C1538 C 0.41546 0.38303 0.70182 0.0
C1539 C 0.39744 0.39894 0.70351 0.0
C1540 C 0.6885 1.01404 0.76162 0.0
C1541 C 0.67354 0.99533 0.73273 0.0
C1542 C 0.70342 0.04732 0.76101 0.0
C1543 C 0.70441 0.06341 0.73137 0.0
H1544 H 0.68916 1.00297 0.78506 0.0
H1545 H 0.71544 0.06053 0.78347 0.0
S1546 S 0.6662 1.02621 0.64982 0.0
N1547 N 0.65858 0.99587 0.67446 0.0
N1548 N 0.68696 0.05825 0.67301 0.0
C1549 C 0.68849 0.04511 0.70268 0.0
C1550 C 0.67297 1.01118 0.70342 0.0
C1551 C 0.40127 0.04548 0.2644 0.0
C1552 C 0.41664 0.06128 0.23474 0.0
C1553 C 0.38334 1.01219 0.2655 0.0
C1554 C 0.38032 0.99321 0.23709 0.0
H1555 H 0.40195 0.05891 0.28647 0.0
H1556 H 0.37138 1.00133 0.2889 0.0
S1557 S 0.41943 1.02336 0.15441 0.0
N1558 N 0.42998 0.05561 0.17696 0.0
N1559 N 0.39668 0.99323 0.17927 0.0
C1560 C 0.39696 1.00881 0.20779 0.0
C1561 C 0.41496 0.04272 0.20657 0.0
C1562 C 1.02514 0.36962 0.26499 0.0
C1563 C 1.00867 0.36659 0.23501 0.0
C1564 C 0.05846 0.38531 0.26541 0.0
C1565 C 0.07676 0.39905 0.23597 0.0
H1566 H 1.01223 0.3586 0.28793 0.0
H1567 H 0.0699 0.38622 0.28913 0.0
S1568 S 0.04472 0.40103 0.1518 0.0
N1569 N 1.01297 0.3809 0.17561 0.0
N1570 N 0.07544 0.41072 0.17668 0.0
C1571 C 0.0605 0.39766 0.20624 0.0
C1572 C 1.02655 0.38134 0.2057 0.0
C1573 C 0.68405 0.68797 0.20516 0.0
C1574 C 0.67129 0.6913 0.2355 0.0
C1575 C 0.7018 0.67241 0.20426 0.0
C1576 C 0.70721 0.6591 0.23356 0.0
H1577 H 0.68146 0.69858 0.18226 0.0
H1578 H 0.71173 0.67123 0.18024 0.0
S1579 S 0.67537 0.65813 0.31866 0.0
N1580 N 0.66293 0.67775 0.29519 0.0
N1581 N 0.69587 0.64826 0.2932 0.0
C1582 C 0.6931 0.66084 0.26369 0.0
C1583 C 0.67532 0.67702 0.26472 0.0
C1584 C 0.38714 0.19713 0.11627 0.0
C1585 C 0.36568 0.20741 0.12471 0.0
C1586 C 0.39931 0.18545 0.14096 0.0
C1587 C 0.39043 0.18359 0.175 0.0
H1588 H 0.39415 0.1976 0.09027 0.0
H1589 H 0.41537 0.17731 0.1333 0.0
S1590 S 0.33795 0.21104 0.21085 0.0
N1591 N 0.33808 0.21735 0.16992 0.0
N1592 N 0.36085 0.19533 0.21626 0.0
C1593 C 0.36958 0.19448 0.18392 0.0
C1594 C 0.35723 0.20641 0.1588 0.0
C1595 C 0.88514 0.22614 0.14621 0.0
C1596 C 0.88691 0.21885 0.18019 0.0
C1597 C 0.87423 0.20267 0.1212 0.0
C1598 C 0.86467 0.17102 0.12924 0.0
H1599 H 0.89271 0.2503 0.13885 0.0
H1600 H 0.87371 0.20941 0.09529 0.0
S1601 S 0.86168 0.13895 0.21487 0.0
N1602 N 0.87623 0.17731 0.22084 0.0
N1603 N 0.85567 0.13322 0.17388 0.0
C1604 C 0.86578 0.16329 0.16319 0.0
C1605 C 0.87692 0.18719 0.18865 0.0
C1606 C 0.90668 0.71684 0.15651 0.0
C1607 C 0.89925 0.70828 0.12244 0.0
C1608 C 0.88325 0.70416 0.18156 0.0
C1609 C 0.85149 0.68242 0.1735 0.0
H1610 H 0.93092 0.73311 0.16391 0.0
H1611 H 0.8901 0.71104 0.20752 0.0
S1612 S 0.81907 0.65473 0.0877 0.0
N1613 N 0.85749 0.67831 0.08171 0.0
N1614 N 0.81346 0.65452 0.12878 0.0
C1615 C 0.84362 0.67408 0.13947 0.0
C1616 C 0.86749 0.68699 0.11395 0.0
C1617 C 0.2074 0.35296 0.28363 0.0
C1618 C 0.19741 0.37463 0.2921 0.0
C1619 C 0.21793 0.33984 0.30845 0.0
C1620 C 0.21889 0.34793 0.34265 0.0
H1621 H 0.20752 0.34648 0.25755 0.0
H1622 H 0.2259 0.32364 0.30079 0.0
S1623 S 0.19207 0.40092 0.37842 0.0
N1624 N 0.18698 0.40182 0.33735 0.0
N1625 N 0.20685 0.37723 0.38396 0.0
C1626 C 0.20838 0.36909 0.35155 0.0
C1627 C 0.19763 0.38242 0.32629 0.0
C1628 C 0.73078 0.89162 0.31078 0.0
C1629 C 0.72178 0.88469 0.34482 0.0
C1630 C 0.718 0.86792 0.28601 0.0
C1631 C 0.69573 0.83639 0.29432 0.0
H1632 H 0.74749 0.91566 0.30318 0.0
H1633 H 0.72526 0.87441 0.26007 0.0
S1634 S 0.66673 0.8052 0.38023 0.0
N1635 N 0.69081 0.84357 0.38584 0.0
N1636 N 0.66683 0.79909 0.3393 0.0
C1637 C 0.68693 0.82901 0.32834 0.0
C1638 C 0.69994 0.85314 0.35357 0.0
C1639 C 0.20417 0.86301 0.28776 0.0
C1640 C 0.23597 0.87329 0.29588 0.0
C1641 C 0.18083 0.85284 0.31289 0.0
C1642 C 0.18841 0.85259 0.34709 0.0
H1643 H 0.19722 0.86236 0.26171 0.0
H1644 H 0.15654 0.84462 0.30546 0.0
S1645 S 0.26879 0.88037 0.38193 0.0
N1646 N 0.27422 0.88468 0.34074 0.0
N1647 N 0.23037 0.86559 0.38794 0.0
C1648 C 0.22023 0.86339 0.35562 0.0
C1649 C 0.244 0.87373 0.33003 0.0
C1650 C 0.73218 0.85445 0.80983 0.0
C1651 C 0.72412 0.85424 0.84394 0.0
C1652 C 0.71923 0.86467 0.78449 0.0
C1653 C 0.69775 0.87508 0.79232 0.0
H1654 H 0.74823 0.84615 0.80264 0.0
H1655 H 0.72567 0.86396 0.75852 0.0
S1656 S 0.67164 0.88243 0.87808 0.0
N1657 N 0.69505 0.86743 0.88442 0.0
N1658 N 0.6708 0.88673 0.83686 0.0
C1659 C 0.68999 0.87561 0.8264 0.0
C1660 C 0.70315 0.86516 0.85219 0.0
C1661 C 0.23934 0.8714 0.8355 0.0
C1662 C 0.22049 0.88378 0.84729 0.0
C1663 C 0.22812 0.8477 0.81067 0.0
C1664 C 0.19762 0.83547 0.79676 0.0
H1665 H 0.26317 0.88059 0.84509 0.0
H1666 H 0.24366 0.83932 0.80182 0.0
S1667 S 0.13753 0.85703 0.82219 0.0
N1668 N 0.16893 0.88014 0.84531 0.0
N1669 N 0.14785 0.83566 0.79872 0.0
C1670 C 0.17824 0.84703 0.80904 0.0
C1671 C 0.18966 0.87115 0.83428 0.0
C1672 C 0.20083 0.37843 0.83273 0.0
C1673 C 0.18895 0.34743 0.84498 0.0
C1674 C 0.22466 0.39106 0.80806 0.0
C1675 C 0.23752 0.37315 0.79472 0.0
H1676 H 0.19118 0.39281 0.84186 0.0
H1677 H 0.23269 0.41482 0.79889 0.0
S1678 S 0.21726 0.29217 0.82125 0.0
N1679 N 0.19362 0.30007 0.84391 0.0
N1680 N 0.23831 0.32374 0.79749 0.0
C1681 C 0.22637 0.34239 0.80734 0.0
C1682 C 0.20213 0.32955 0.83248 0.0
C1683 C 0.90493 0.71138 0.66414 0.0
C1684 C 0.88558 0.68051 0.67669 0.0
C1685 C 0.89388 0.72401 0.63928 0.0
C1686 C 0.86307 0.70622 0.62601 0.0
H1687 H 0.92897 0.72569 0.67326 0.0
H1688 H 0.90971 0.74768 0.62996 0.0
S1689 S 0.80186 0.62562 0.65305 0.0
N1690 N 0.83333 0.63343 0.67582 0.0
N1691 N 0.81265 0.65706 0.629 0.0
C1692 C 0.84328 0.67558 0.63881 0.0
C1693 C 0.8545 0.66275 0.66417 0.0
C1694 C 0.37284 0.19172 0.68236 0.0
C1695 C 0.39455 0.22319 0.67315 0.0
C1696 C 0.35907 0.16763 0.65805 0.0
C1697 C 0.36655 0.1741 0.62364 0.0
H1698 H 0.36685 0.18561 0.70863 0.0
H1699 H 0.34287 0.14365 0.66628 0.0
S1700 S 0.41922 0.25317 0.586 0.0
N1701 N 0.42096 0.2599 0.62695 0.0
N1702 N 0.39526 0.21465 0.58136 0.0
C1703 C 0.3877 0.20556 0.61402 0.0
C1704 C 0.40165 0.23009 0.63874 0.0
C1705 C 0.88646 0.17719 0.63545 0.0
C1706 C 0.89944 0.20793 0.62202 0.0
C1707 C 0.86256 0.16612 0.66006 0.0
C1708 C 0.85075 0.18535 0.67222 0.0
H1709 H 0.8946 0.16147 0.62656 0.0
H1710 H 0.85299 0.14217 0.6694 0.0
S1711 S 0.87903 0.26876 0.64757 0.0
N1712 N 0.90009 0.25806 0.6241 0.0
N1713 N 0.8554 0.23739 0.67047 0.0
C1714 C 0.86388 0.21631 0.65933 0.0
C1715 C 0.88815 0.22754 0.63422 0.0
C1716 C 1.02398 0.53736 0.48919 0.0
C1717 C 1.03236 0.53916 0.45498 0.0
C1718 C 1.03714 0.52655 0.51369 0.0
C1719 C 0.05922 0.51716 0.50495 0.0
H1720 H 1.00745 0.54482 0.49715 0.0
H1721 H 1.03032 0.52598 0.53978 0.0
S1722 S 0.08671 0.51433 0.41847 0.0
N1723 N 0.06258 0.52864 0.41335 0.0
N1724 N 0.08733 0.50841 0.4594 0.0
C1725 C 0.06745 0.51835 0.47077 0.0
C1726 C 0.05402 0.52933 0.4458 0.0
C1727 C 0.55081 0.55907 0.47397 0.0
C1728 C 0.55214 0.55147 0.50795 0.0
C1729 C 0.54003 0.53579 0.44875 0.0
C1730 C 0.53014 0.504 0.45652 0.0
H1731 H 0.55868 0.58333 0.46678 0.0
H1732 H 0.53989 0.54279 0.42287 0.0
S1733 S 0.52567 0.47109 0.54205 0.0
N1734 N 0.54051 0.50946 0.54831 0.0
N1735 N 0.52017 0.46574 0.50095 0.0
C1736 C 0.53072 0.49595 0.49048 0.0
C1737 C 0.54173 0.51966 0.51617 0.0
C1738 C 0.55624 1.01285 0.47508 0.0
C1739 C 0.56823 0.04398 0.46314 0.0
C1740 C 0.53234 1.00005 0.49966 0.0
C1741 C 0.51953 1.01791 0.51322 0.0
H1742 H 0.56571 0.99843 0.46562 0.0
H1743 H 0.52409 0.97614 0.50844 0.0
S1744 S 0.54046 0.09942 0.48811 0.0
N1745 N 0.56398 0.09158 0.46515 0.0
N1746 N 0.51919 0.06757 0.51141 0.0
C1747 C 0.53097 0.04889 0.50117 0.0
C1748 C 0.55528 0.06191 0.47612 0.0
C1749 C 0.52324 0.9972 -0.00722 0.0
C1750 C 0.55491 1.01425 0.00372 0.0
C1751 C 0.51172 1.00962 0.96815 0.0
C1752 C 0.53152 0.03945 0.95334 0.0
H1753 H 0.5071 0.97441 0.00389 0.0
H1754 H 0.48696 0.99603 0.96118 0.0
S1755 S 0.61744 0.09153 0.97041 0.0
N1756 N 0.60645 0.06124 -0.00372 0.0
N1757 N 0.58519 0.08432 0.9495 0.0
C1758 C 0.56354 0.05623 0.96338 0.0
C1759 C 0.57513 0.0437 -0.01133 0.0
C1760 C 1.01333 0.51681 0.97279 0.0
C1761 C 1.03082 0.50323 0.96012 0.0
C1762 C 1.02616 0.54078 -0.00272 0.0
C1763 C 0.05692 0.55204 0.01006 0.0
H1764 H 0.98975 0.50917 0.96327 0.0
H1765 H 1.01209 0.55095 0.00594 0.0
S1766 S 0.11097 0.52176 -0.01203 0.0
N1767 N 0.07953 0.50118 0.9639 0.0
N1768 N 0.10354 0.54603 0.01007 0.0
C1769 C 0.07437 0.53816 -0.00186 0.0
C1770 C 0.06134 0.51382 0.97315 0.0
C1771 C 0.54921 0.52964 0.01473 0.0
C1772 C 0.51761 0.52012 0.0064 0.0
C1773 C 0.57294 0.54073 -0.01003 0.0
C1774 C 0.566 0.54273 0.95591 0.0
H1775 H 0.55569 0.52886 0.04068 0.0
H1776 H 0.59702 0.5482 -0.00241 0.0
S1777 S 0.4864 0.51796 0.92051 0.0
N1778 N 0.48027 0.51163 0.96143 0.0
N1779 N 0.52482 0.53247 0.9149 0.0
C1780 C 0.53441 0.5329 0.94717 0.0
C1781 C 0.51024 0.5216 0.9724 0.0
C1782 C 0.29109 0.12135 0.97342 0.0
C1783 C 0.26482 0.10755 0.95164 0.0
C1784 C 0.30072 0.15083 -0.01129 0.0
C1785 C 0.28485 0.16784 0.98229 0.0
H1786 H 0.30227 0.10795 0.98119 0.0
H1787 H 0.31867 0.15888 0.00824 0.0
S1788 S 0.21891 0.14498 0.92205 0.0
N1789 N 0.22643 0.11549 0.92029 0.0
N1790 N 0.24452 0.1707 0.94927 0.0
C1791 C 0.261 0.15599 0.95771 0.0
C1792 C 0.25095 0.12585 0.94236 0.0
C1793 C 0.91611 0.12058 0.96112 0.0
C1794 C 0.90449 0.13202 -0.0134 0.0
C1795 C 0.94553 0.14054 0.9457 0.0
C1796 C 0.96444 0.17261 0.95528 0.0
H1797 H 0.90414 0.09544 0.95563 0.0
H1798 H 0.95461 0.13022 0.92785 0.0
S1799 S 0.94199 0.21487 0.01729 0.0
N1800 N 0.91202 0.17807 0.01783 0.0
N1801 N 0.96717 0.21553 -0.01105 0.0
C1802 C 0.95141 0.185 0.97816 0.0
C1803 C 0.92148 0.16467 -0.0062 0.0
C1804 C 0.9111 0.77771 -0.00642 0.0
C1805 C 0.94353 0.79177 -0.01464 0.0
C1806 C 0.89128 0.78698 0.97754 0.0
C1807 C 0.90336 0.81103 0.95305 0.0
H1808 H 0.90169 0.7616 0.01482 0.0
H1809 H 0.86722 0.77741 -0.01344 0.0
S1810 S 0.98505 0.851 0.91817 0.0
N1811 N 0.98562 0.82763 0.94803 0.0
N1812 N 0.94848 0.8449 0.91745 0.0
C1813 C 0.93488 0.82281 0.94216 0.0
C1814 C 0.95495 0.81317 0.95839 0.0
C1815 C 0.16932 0.24431 0.50631 0.0
C1816 C 0.18074 0.26642 0.4799 0.0
C1817 C 0.14038 0.23601 0.52225 0.0
C1818 C 0.12174 0.24938 0.51224 0.0
H1819 H 0.18106 0.23101 0.51234 0.0
H1820 H 0.13143 0.21732 0.54095 0.0
S1821 S 0.14396 0.31195 0.44754 0.0
N1822 N 0.17342 0.30435 0.44715 0.0
N1823 N 0.11915 0.28878 0.47693 0.0
C1824 C 0.13463 0.27387 0.48824 0.0
C1825 C 0.16408 0.28231 0.47208 0.0
C1826 C 0.78949 0.89457 0.47417 0.0
C1827 C 0.80404 0.92706 0.48228 0.0
C1828 C 0.79851 0.87448 0.49006 0.0
C1829 C 0.82282 0.88632 0.51425 0.0
H1830 H 0.77316 0.88531 0.4531 0.0
H1831 H 0.78853 0.85037 0.48111 0.0
S1832 S 0.86425 0.9681 0.54873 0.0
N1833 N 0.84074 0.96898 0.51922 0.0
N1834 N 0.85757 0.93135 0.54945 0.0
C1835 C 0.83514 0.91793 0.52504 0.0
C1836 C 0.82575 0.93827 0.50899 0.0
C1837 C 0.13213 0.90419 0.50895 0.0
C1838 C 0.14321 0.89175 0.48396 0.0
C1839 C 0.15258 0.9336 0.52411 0.0
C1840 C 0.1848 0.95173 0.51471 0.0
H1841 H 0.10698 0.89279 0.51435 0.0
H1842 H 0.14259 0.94324 0.54168 0.0
S1843 S 0.226 0.92724 0.45345 0.0
N1844 N 0.18891 0.89787 0.45307 0.0
N1845 N 0.22727 0.95301 0.48137 0.0
C1846 C 0.19671 0.93799 0.49212 0.0
C1847 C 0.17588 0.90805 0.47677 0.0
C1848 C 0.83835 0.93483 0.02272 0.0
C1849 C 0.82386 0.9526 0.01344 0.0
C1850 C 0.82962 0.9055 0.00758 0.0
C1851 C 0.80602 0.89287 0.98267 0.0
H1852 H 0.85818 0.94479 0.04006 0.0
H1853 H 0.8437 0.89442 0.01278 0.0
S1854 S 0.75763 0.92735 0.95279 0.0
N1855 N 0.7821 0.95328 0.98061 0.0
N1856 N 0.76582 0.8983 0.95218 0.0
C1857 C 0.78918 0.90874 0.97574 0.0
C1858 C 0.79802 0.93857 -0.00886 0.0
C1859 C 0.14146 0.91845 0.02424 0.0
C1860 C 0.1229 0.88643 0.01434 0.0
C1861 C 0.17104 0.9387 0.00927 0.0
C1862 C 0.18314 0.9276 -0.01605 0.0
H1863 H 0.13202 0.92849 0.042 0.0
H1864 H 0.18278 0.96379 0.01499 0.0
S1865 S 0.14648 0.84511 0.95231 0.0
N1866 N 0.12087 0.84399 0.98037 0.0
N1867 N 0.17632 0.88197 0.95239 0.0
C1868 C 0.16644 0.89502 0.97639 0.0
C1869 C 0.13635 0.8744 -0.00845 0.0
C1870 C 0.15581 0.23534 0.02156 0.0
C1871 C 0.18776 0.24954 0.01115 0.0
C1872 C 0.13481 0.24396 0.00713 0.0
C1873 C 0.14504 0.26714 0.9818 0.0
H1874 H 0.14644 0.21581 0.03927 0.0
H1875 H 0.10983 0.23011 0.01327 0.0
S1876 S 0.2269 0.31434 0.94865 0.0
N1877 N 0.22916 0.2904 0.97661 0.0
N1878 N 0.18974 0.30643 0.94942 0.0
C1879 C 0.17751 0.28362 0.97361 0.0
C1880 C 0.19891 0.27491 -0.01168 0.0
C1881 C 0.91583 0.81045 0.46015 0.0
C1882 C 0.90439 0.78793 0.48618 0.0
C1883 C 0.94516 0.81958 0.44467 0.0
C1884 C 0.96415 0.80663 0.45476 0.0
H1885 H 0.90378 0.82345 0.45417 0.0
H1886 H 0.95409 0.83857 0.42632 0.0
S1887 S 0.94215 0.7433 0.51847 0.0
N1888 N 0.91215 0.7501 0.51856 0.0
N1889 N 0.96714 0.76721 0.48964 0.0
C1890 C 0.9513 0.78173 0.47829 0.0
C1891 C 0.92146 0.77245 0.49397 0.0
C1892 C 0.29576 0.16257 0.49515 0.0
C1893 C 0.2825 0.13021 0.48707 0.0
C1894 C 0.28649 0.18196 0.47819 0.0
C1895 C 0.26324 0.16952 0.45287 0.0
H1896 H 0.31121 0.17223 0.51685 0.0
H1897 H 0.29538 0.20595 0.48706 0.0
S1898 S 0.22575 0.08793 0.41809 0.0
N1899 N 0.24838 0.08783 0.44907 0.0
N1900 N 0.23115 0.1242 0.41676 0.0
C1901 C 0.25235 0.1381 0.4422 0.0
C1902 C 0.26199 0.11846 0.45938 0.0
C1903 C 0.95456 0.1541 0.46032 0.0
C1904 C 0.94341 0.16687 0.48488 0.0
C1905 C 0.93414 0.12452 0.44547 0.0
C1906 C 0.90187 0.10657 0.45472 0.0
H1907 H 0.97973 0.16537 0.45511 0.0
H1908 H 0.94418 0.11461 0.4283 0.0
S1909 S 0.86049 0.13183 0.51483 0.0
N1910 N 0.89761 0.16117 0.51518 0.0
N1911 N 0.85929 0.10574 0.4874 0.0
C1912 C 0.8899 0.12062 0.4768 0.0
C1913 C 0.9107 0.15071 0.49186 0.0
C1914 C 0.92407 0.48822 0.2948 0.0
C1915 C 0.94796 0.50124 0.31937 0.0
C1916 C 0.91512 0.45863 0.28015 0.0
C1917 C 0.92963 0.44093 0.28966 0.0
H1918 H 0.90997 0.49926 0.2895 0.0
H1919 H 0.89514 0.44848 0.26303 0.0
S1920 S 0.99651 0.46706 0.34964 0.0
N1921 N 0.98843 0.49619 0.34975 0.0
N1922 N 0.97168 0.44069 0.32237 0.0
C1923 C 0.95572 0.45528 0.31163 0.0
C1924 C 0.96482 0.48541 0.32647 0.0
C1925 C 0.61743 0.51667 0.30655 0.0
C1926 C 0.63124 0.50457 0.28433 0.0
C1927 C 0.58762 0.49665 0.32115 0.0
C1928 C 0.57037 0.46401 0.31364 0.0
H1929 H 0.631 0.54095 0.31517 0.0
H1930 H 0.57951 0.50611 0.34107 0.0
S1931 S 0.59322 0.42222 0.25173 0.0
N1932 N 0.62309 0.45909 0.25125 0.0
N1933 N 0.5673 0.42162 0.27904 0.0
C1934 C 0.58227 0.45253 0.28858 0.0
C1935 C 0.6127 0.47278 0.27388 0.0
C1936 C 0.55636 0.11827 0.31595 0.0
C1937 C 0.56828 0.14247 0.29163 0.0
C1938 C 0.57623 0.10875 0.3314 0.0
C1939 C 0.60856 0.12272 0.32277 0.0
H1940 H 0.53239 0.1087 0.32525 0.0
H1941 H 0.567 0.09257 0.3526 0.0
S1942 S 0.64954 0.18217 0.25562 0.0
N1943 N 0.61305 0.17628 0.25556 0.0
N1944 N 0.65032 0.15863 0.28514 0.0
C1945 C 0.61977 0.14427 0.29592 0.0
C1946 C 0.59965 0.15415 0.28026 0.0
C1947 C 0.83687 0.58085 0.84269 0.0
C1948 C 0.84835 0.60267 0.81599 0.0
C1949 C 0.80767 0.57236 0.85812 0.0
C1950 C 0.78889 0.58533 0.84737 0.0
H1951 H 0.84879 0.56785 0.84932 0.0
H1952 H 0.79864 0.55384 0.87702 0.0
S1953 S 0.81076 0.64662 0.78129 0.0
N1954 N 0.84061 0.6396 0.78189 0.0
N1955 N 0.78592 0.62377 0.81084 0.0
C1956 C 0.80172 0.60948 0.82301 0.0
C1957 C 0.83139 0.61806 0.80731 0.0
C1958 C 0.51075 0.25617 0.85226 0.0
C1959 C 0.4983 0.22441 0.84175 0.0
C1960 C 0.50221 0.27661 0.83623 0.0
C1961 C 0.48071 0.26596 0.80925 0.0
H1962 H 0.52852 0.26579 0.87193 0.0
H1963 H 0.5146 0.30147 0.84301 0.0
S1964 S 0.43858 0.1846 0.77411 0.0
N1965 N 0.46118 0.18297 0.80418 0.0
N1966 N 0.44499 0.22122 0.7746 0.0
C1967 C 0.46613 0.23374 0.80037 0.0
C1968 C 0.47489 0.21296 0.81648 0.0
C1969 C 0.86391 0.27059 0.8239 0.0
C1970 C 0.85153 0.28206 0.84859 0.0
C1971 C 0.84435 0.24174 0.80734 0.0
C1972 C 0.81187 0.22308 0.81523 0.0
H1973 H 0.88801 0.28534 0.81511 0.0
H1974 H 0.85399 0.23551 0.78595 0.0
S1975 S 0.76959 0.2394 0.88274 0.0
N1976 N 0.80606 0.26996 0.88399 0.0
N1977 N 0.76941 0.21601 0.85248 0.0
C1978 C 0.80016 0.23251 0.84241 0.0
C1979 C 0.81996 0.26199 0.85915 0.0
C1980 C 0.49196 0.23671 0.33754 0.0
C1981 C 0.46869 0.22384 0.3123 0.0
C1982 C 0.50096 0.26647 0.35177 0.0
C1983 C 0.487 0.28442 0.3413 0.0
H1984 H 0.50562 0.22539 0.34374 0.0
H1985 H 0.52058 0.27656 0.36936 0.0
S1986 S 0.42177 0.25891 0.27933 0.0
N1987 N 0.42942 0.22948 0.2801 0.0
N1988 N 0.44608 0.28517 0.30701 0.0
C1989 C 0.46147 0.27028 0.31863 0.0
C1990 C 0.45243 0.24005 0.30407 0.0
C1991 C 0.83123 0.22936 0.31202 0.0
C1992 C 0.84842 0.26208 0.31916 0.0
C1993 C 0.80194 0.20927 0.32757 0.0
C1994 C 0.78859 0.22137 0.35039 0.0
H1995 H 0.83894 0.21984 0.29178 0.0
H1996 H 0.78832 0.18489 0.31927 0.0
S1997 S 0.82678 0.304 0.38214 0.0
N1998 N 0.85204 0.30462 0.35392 0.0
N1999 N 0.79719 0.26702 0.38345 0.0
C2000 C 0.80714 0.2533 0.36037 0.0
C2001 C 0.83706 0.27363 0.34471 0.0
C2002 C 0.86411 0.60684 0.32379 0.0
C2003 C 0.85212 0.58376 0.34931 0.0
C2004 C 0.84434 0.61578 0.30705 0.0
C2005 C 0.81202 0.60239 0.31554 0.0
H2006 H 0.88803 0.61582 0.31458 0.0
H2007 H 0.85367 0.63108 0.28519 0.0
S2008 S 0.77083 0.54595 0.38512 0.0
N2009 N 0.80724 0.55166 0.386 0.0
N2010 N 0.77019 0.56829 0.35412 0.0
C2011 C 0.80073 0.58204 0.34341 0.0
C2012 C 0.82076 0.57274 0.36037 0.0
C2013 C 0.61749 0.11835 0.80844 0.0
C2014 C 0.63198 0.14509 0.78738 0.0
C2015 C 0.58793 0.10894 0.82349 0.0
C2016 C 0.57156 0.12554 0.81756 0.0
H2017 H 0.63035 0.10652 0.81584 0.0
H2018 H 0.5793 0.09048 0.84249 0.0
S2019 S 0.59642 0.19313 0.75917 0.0
N2020 N 0.6254 0.18486 0.75712 0.0
N2021 N 0.57009 0.16723 0.78576 0.0
C2022 C 0.58415 0.15002 0.7937 0.0
C2023 C 0.61434 0.15981 0.77856 0.0
C2024 C 0.91645 0.47193 0.78107 0.0
C2025 C 0.93043 0.50397 0.79105 0.0
C2026 C 0.92518 0.45122 0.79605 0.0
C2027 C 0.94828 0.46184 0.82148 0.0
H2028 H 0.89703 0.46226 0.76324 0.0
H2029 H 0.91147 0.42618 0.79021 0.0
S2030 S 0.99517 0.5441 0.85347 0.0
N2031 N 0.97113 0.54587 0.82526 0.0
N2032 N 0.98743 0.50701 0.85336 0.0
C2033 C 0.9646 0.49439 0.82921 0.0
C2034 C 0.95576 0.51549 0.81399 0.0
C2035 C 0.56052 0.45634 0.80701 0.0
C2036 C 0.57396 0.44535 0.78297 0.0
C2037 C 0.57924 0.48507 0.82407 0.0
C2038 C 0.61191 0.50408 0.81739 0.0
H2039 H 0.53617 0.44133 0.8149 0.0
H2040 H 0.56872 0.49096 0.8449 0.0
S2041 S 0.657 0.4892 0.75194 0.0
N2042 N 0.62075 0.45839 0.74937 0.0
N2043 N 0.65584 0.51207 0.782 0.0
C2044 C 0.62478 0.49515 0.79089 0.0
C2045 C 0.60581 0.46581 0.77357 0.0
C2046 C 0.59195 0.82128 0.62537 0.0
C2047 C 0.61617 0.8341 0.64963 0.0
C2048 C 0.58252 0.79163 0.61057 0.0
C2049 C 0.59689 0.77365 0.61955 0.0
H2050 H 0.57799 0.83254 0.62047 0.0
H2051 H 0.56233 0.78167 0.59373 0.0
S2052 S 0.66434 0.79905 0.67857 0.0
N2053 N 0.65664 0.82844 0.6792 0.0
N2054 N 0.63906 0.77289 0.65146 0.0
C2055 C 0.62323 0.78777 0.6412 0.0
C2056 C 0.63278 0.81794 0.65623 0.0
C2057 C 0.28592 0.84895 0.64684 0.0
C2058 C 0.29762 0.83712 0.6218 0.0
C2059 C 0.25709 0.82894 0.66324 0.0
C2060 C 0.2387 0.79657 0.65484 0.0
H2061 H 0.30048 0.87294 0.65598 0.0
H2062 H 0.25064 0.83814 0.68485 0.0
S2063 S 0.25572 0.75572 0.58637 0.0
N2064 N 0.28607 0.79232 0.58561 0.0
N2065 N 0.23212 0.75483 0.6168 0.0
C2066 C 0.24837 0.78542 0.62736 0.0
C2067 C 0.27782 0.80568 0.61078 0.0
C2068 C 0.22468 0.45089 0.64397 0.0
C2069 C 0.23747 0.47626 0.62102 0.0
C2070 C 0.24412 0.44109 0.65997 0.0
C2071 C 0.27689 0.45586 0.65318 0.0
H2072 H 0.20022 0.44055 0.65191 0.0
H2073 H 0.23402 0.42385 0.68016 0.0
S2074 S 0.3206 0.51912 0.59029 0.0
N2075 N 0.28391 0.51258 0.58842 0.0
N2076 N 0.32027 0.4942 0.61878 0.0
C2077 C 0.28917 0.4788 0.62765 0.0
C2078 C 0.2695 0.48903 0.61155 0.0
C2079 C 0.49474 0.94744 0.13784 0.0
C2080 C 0.51385 0.93413 0.14574 0.0
C2081 C 0.46626 0.93838 0.15512 0.0
C2082 C 0.45558 0.9152 0.18051 0.0
H2083 H 0.50042 0.96286 0.11611 0.0
H2084 H 0.45115 0.94735 0.14645 0.0
S2085 S 0.4995 0.87718 0.21452 0.0
N2086 N 0.52213 0.89982 0.18348 0.0
N2087 N 0.46876 0.88281 0.2162 0.0
C2088 C 0.47604 0.90411 0.19086 0.0
C2089 C 0.50519 0.91361 0.17344 0.0
C2090 C 0.15764 0.60431 0.17559 0.0
C2091 C 0.13491 0.59349 0.14977 0.0
C2092 C 0.1667 0.58392 0.19069 0.0
C2093 C 0.15339 0.55201 0.18047 0.0
H2094 H 0.17095 0.62935 0.18156 0.0
H2095 H 0.18596 0.59378 0.20873 0.0
S2096 S 0.0896 0.51131 0.11717 0.0
N2097 N 0.09665 0.54818 0.11738 0.0
N2098 N 0.11354 0.50989 0.14575 0.0
C2099 C 0.12828 0.54019 0.15724 0.0
C2100 C 0.11911 0.56097 0.14189 0.0
C2101 C 0.4653 0.56982 0.17373 0.0
C2102 C 0.47629 0.5567 0.14938 0.0
C2103 C 0.48587 0.59944 0.18838 0.0
C2104 C 0.51817 0.61705 0.17918 0.0
H2105 H 0.44012 0.55887 0.17876 0.0
H2106 H 0.47595 0.6097 0.20521 0.0
S2107 S 0.55925 0.59079 0.11991 0.0
N2108 N 0.52201 0.56169 0.11951 0.0
N2109 N 0.56065 0.61717 0.14705 0.0
C2110 C 0.53001 0.60261 0.1575 0.0
C2111 C 0.50903 0.57248 0.1426 0.0
C2112 C 0.13348 0.60485 0.65571 0.0
C2113 C 0.15755 0.61688 0.68018 0.0
C2114 C 0.12465 0.57604 0.63924 0.0
C2115 C 0.13912 0.55795 0.64705 0.0
H2116 H 0.12357 0.61915 0.64704 0.0
H2117 H 0.10852 0.56936 0.61803 0.0
S2118 S 0.19889 0.57606 0.71376 0.0
N2119 N 0.19215 0.60608 0.71506 0.0
N2120 N 0.1756 0.55215 0.68386 0.0
C2121 C 0.16062 0.568 0.67395 0.0
C2122 C 0.16986 0.59745 0.69055 0.0
C2123 C 0.46811 0.54194 0.65729 0.0
C2124 C 0.45538 0.55419 0.68071 0.0
C2125 C 0.49712 0.56186 0.64114 0.0
C2126 C 0.51468 0.59457 0.64826 0.0
H2127 H 0.45422 0.51755 0.6491 0.0
H2128 H 0.50433 0.55221 0.62059 0.0
S2129 S 0.49475 0.63689 0.71244 0.0
N2130 N 0.46501 0.6 0.71413 0.0
N2131 N 0.51931 0.63729 0.68346 0.0
C2132 C 0.50395 0.60629 0.67425 0.0
C2133 C 0.4743 0.58612 0.69053 0.0
C2134 C 0.46593 0.91064 0.67568 0.0
C2135 C 0.47661 0.93471 0.65133 0.0
C2136 C 0.48674 0.90172 0.69002 0.0
C2137 C 0.51896 0.91649 0.68045 0.0
H2138 H 0.4408 0.89632 0.68095 0.0
H2139 H 0.47704 0.88153 0.70686 0.0
S2140 S 0.55932 0.98402 0.62125 0.0
N2141 N 0.52201 0.97567 0.62123 0.0
N2142 N 0.56109 0.95905 0.64816 0.0
C2143 C 0.53052 0.94281 0.65885 0.0
C2144 C 0.50931 0.95184 0.64428 0.0
C2145 C 0.24906 0.4799 0.12557 0.0
C2146 C 0.23598 0.45573 0.14985 0.0
C2147 C 0.27872 0.48905 0.11092 0.0
C2148 C 0.29639 0.47442 0.12007 0.0
H2149 H 0.2381 0.49414 0.12065 0.0
H2150 H 0.28899 0.50933 0.09419 0.0
S2151 S 0.27006 0.40675 0.17891 0.0
N2152 N 0.24093 0.41483 0.17941 0.0
N2153 N 0.29651 0.43191 0.1519 0.0
C2154 C 0.28192 0.448 0.14157 0.0
C2155 C 0.25174 0.43872 0.15645 0.0
C2156 C 0.63057 0.82932 0.15963 0.0
C2157 C 0.61615 0.79678 0.15181 0.0
C2158 C 0.62117 0.84911 0.14373 0.0
C2159 C 0.59661 0.83691 0.11982 0.0
H2160 H 0.64705 0.83884 0.18054 0.0
H2161 H 0.63107 0.87328 0.15246 0.0
S2162 S 0.55538 0.75485 0.0861 0.0
N2163 N 0.5793 0.75443 0.11539 0.0
N2164 N 0.56175 0.79149 0.08515 0.0
C2165 C 0.5844 0.80525 0.10929 0.0
C2166 C 0.5942 0.78522 0.12533 0.0
C2167 C 0.28762 0.82036 0.12874 0.0
C2168 C 0.27686 0.83313 0.15369 0.0
C2169 C 0.26689 0.79097 0.11376 0.0
C2170 C 0.23467 0.77325 0.12327 0.0
H2171 H 0.31275 0.83138 0.12339 0.0
H2172 H 0.27664 0.78095 0.09637 0.0
S2173 S 0.19416 0.79883 0.18411 0.0
N2174 N 0.23142 0.82786 0.18444 0.0
N2175 N 0.19249 0.77277 0.15635 0.0
C2176 C 0.22305 0.78741 0.1456 0.0
C2177 C 0.24418 0.81732 0.16081 0.0
loop_
_geom_bond_atom_site_label_1
_geom_bond_atom_site_label_2
_geom_bond_distance
_geom_bond_site_symmetry_2
_ccdc_geom_bond_type
C0 C1 1.351 . S
C0 N3 1.368 . S
C0 H5 0.931 . S
C1 C0 1.351 . S
C1 N2 1.373 . S
C1 H29 0.930 . S
N2 C1 1.373 . S
N2 C4 1.340 . S
N3 C0 1.368 . S
N3 C4 1.321 . S
N3 Co6 2.135 . S
C4 N2 1.340 . S
C4 N3 1.321 . S
C4 H28 0.930 . S
H5 C0 0.931 . S
Co6 N3 2.135 . S
Co6 N9 2.121 . S
Co6 O14 2.055 . S
Co6 O17 2.039 . S
Co6 N20 2.140 . S
C7 O8 1.227 . S
C7 O17 1.265 . S
O8 C7 1.227 . S
N9 Co6 2.121 . S
N9 C11 1.375 . S
N9 C12 1.313 . S
C10 C11 1.338 . S
C10 N13 1.377 . S
C10 H30 0.930 . S
C11 N9 1.375 . S
C11 C10 1.338 . S
C11 H15 0.931 . S
C12 N9 1.313 . S
C12 N13 1.344 . S
C12 H16 0.930 . S
N13 C10 1.377 . S
N13 C12 1.344 . S
O14 Co6 2.055 . S
O14 C18 1.253 . S
H15 C11 0.931 . S
H16 C12 0.930 . S
O17 Co6 2.039 . S
O17 C7 1.265 . S
C18 O14 1.253 . S
C18 O19 1.227 . S
O19 C18 1.227 . S
N20 Co6 2.140 . S
N20 C23 1.346 . S
N20 C24 1.345 . S
C21 C22 1.387 . S
C21 C25 1.391 . S
C22 C21 1.387 . S
C22 C23 1.369 . S
C22 H31 0.929 . S
C23 N20 1.346 . S
C23 C22 1.369 . S
C23 H26 0.928 . S
C24 N20 1.345 . S
C24 C25 1.371 . S
C24 H27 0.931 . S
C25 C21 1.391 . S
C25 C24 1.371 . S
C25 H32 0.930 . S
H26 C23 0.928 . S
H27 C24 0.931 . S
H28 C4 0.930 . S
H29 C1 0.930 . S
H30 C10 0.930 . S
H31 C22 0.929 . S
H32 C25 0.930 . S
C33 C34 1.327 1_545 S
C33 N36 1.381 . S
C33 H38 0.940 . S
C34 C33 1.327 1_565 S
C34 N35 1.373 . S
C34 H62 0.930 . S
N35 C34 1.373 . S
N35 C37 1.340 . S
N36 C33 1.381 . S
N36 C37 1.321 1_545 S
N36 Co39 2.135 . S
C37 N35 1.340 . S
C37 N36 1.321 1_565 S
C37 H61 0.930 . S
H38 C33 0.940 . S
Co39 N36 2.135 . S
Co39 N42 2.121 . S
Co39 O47 2.055 . S
Co39 O50 2.039 . S
Co39 N53 2.140 . S
C40 O41 1.227 1_545 S
C40 O50 1.265 . S
O41 C40 1.227 1_565 S
N42 Co39 2.121 . S
N42 C44 1.375 . S
N42 C45 1.313 . S
C43 C44 1.338 . S
C43 N46 1.377 . S
C43 H63 0.930 . S
C44 N42 1.375 . S
C44 C43 1.338 . S
C44 H48 0.931 . S
C45 N42 1.313 . S
C45 N46 1.344 . S
C45 H49 0.930 . S
N46 C43 1.377 . S
N46 C45 1.344 . S
O47 Co39 2.055 . S
O47 C51 1.253 . S
H48 C44 0.931 . S
H49 C45 0.930 . S
O50 Co39 2.039 . S
O50 C40 1.265 . S
C51 O47 1.253 . S
C51 O52 1.227 . S
O52 C51 1.227 . S
N53 Co39 2.140 . S
N53 C56 1.346 1_545 S
N53 C57 1.345 . S
C54 C55 1.387 1_545 S
C54 C58 1.391 . S
C55 C54 1.387 1_565 S
C55 C56 1.369 . S
C55 H64 0.929 . S
C56 N53 1.346 1_565 S
C56 C55 1.369 . S
C56 H59 0.928 . S
C57 N53 1.345 . S
C57 C58 1.371 . S
C57 H60 0.931 . S
C58 C54 1.391 . S
C58 C57 1.371 . S
C58 H65 0.930 . S
H59 C56 0.928 . S
H60 C57 0.931 . S
H61 C37 0.930 . S
H62 C34 0.930 . S
H63 C43 0.930 . S
H64 C55 0.929 . S
H65 C58 0.930 . S
C66 C67 1.335 1_655 S
C66 N69 1.356 . S
C66 H71 0.955 . S
C67 C66 1.335 1_455 S
C67 N68 1.373 . S
C67 H95 0.930 . S
N68 C67 1.373 . S
N68 C70 1.340 . S
N69 C66 1.356 . S
N69 C70 1.321 1_655 S
N69 Co72 2.135 . S
C70 N68 1.340 . S
C70 N69 1.321 1_455 S
C70 H94 0.930 . S
H71 C66 0.955 . S
Co72 N69 2.135 . S
Co72 N75 2.121 . S
Co72 O80 2.055 . S
Co72 O83 2.039 . S
Co72 N86 2.140 . S
C73 O74 1.227 1_655 S
C73 O83 1.265 . S
O74 C73 1.227 1_455 S
N75 Co72 2.121 . S
N75 C77 1.375 . S
N75 C78 1.313 . S
C76 C77 1.338 . S
C76 N79 1.377 . S
C76 H96 0.930 . S
C77 N75 1.375 . S
C77 C76 1.338 . S
C77 H81 0.931 . S
C78 N75 1.313 . S
C78 N79 1.344 . S
C78 H82 0.930 . S
N79 C76 1.377 . S
N79 C78 1.344 . S
O80 Co72 2.055 . S
O80 C84 1.253 . S
H81 C77 0.931 . S
H82 C78 0.930 . S
O83 Co72 2.039 . S
O83 C73 1.265 . S
C84 O80 1.253 . S
C84 O85 1.227 . S
O85 C84 1.227 . S
N86 Co72 2.140 . S
N86 C89 1.346 1_655 S
N86 C90 1.345 . S
C87 C88 1.387 1_655 S
C87 C91 1.391 . S
C88 C87 1.387 1_455 S
C88 C89 1.369 . S
C88 H97 0.929 . S
C89 N86 1.346 1_455 S
C89 C88 1.369 . S
C89 H92 0.928 . S
C90 N86 1.345 . S
C90 C91 1.371 . S
C90 H93 0.931 . S
C91 C87 1.391 . S
C91 C90 1.371 . S
C91 H98 0.930 . S
H92 C89 0.928 . S
H93 C90 0.931 . S
H94 C70 0.930 . S
H95 C67 0.930 . S
H96 C76 0.930 . S
H97 C88 0.929 . S
H98 C91 0.930 . S
C99 C100 1.351 . S
C99 N102 1.368 . S
C99 H104 0.931 . S
C100 C99 1.351 . S
C100 N101 1.373 . S
C100 H128 0.930 . S
N101 C100 1.373 . S
N101 C103 1.340 . S
N102 C99 1.368 . S
N102 C103 1.321 . S
N102 Co105 2.135 . S
C103 N101 1.340 . S
C103 N102 1.321 . S
C103 H127 0.930 . S
H104 C99 0.931 . S
Co105 N102 2.135 . S
Co105 N108 2.121 . S
Co105 O113 2.055 . S
Co105 O116 2.039 . S
Co105 N119 2.140 . S
C106 O107 1.227 . S
C106 O116 1.265 . S
O107 C106 1.227 . S
N108 Co105 2.121 . S
N108 C110 1.375 . S
N108 C111 1.313 . S
C109 C110 1.338 . S
C109 N112 1.377 . S
C109 H129 0.930 . S
C110 N108 1.375 . S
C110 C109 1.338 . S
C110 H114 0.931 . S
C111 N108 1.313 . S
C111 N112 1.344 . S
C111 H115 0.930 . S
N112 C109 1.377 . S
N112 C111 1.344 . S
O113 Co105 2.055 . S
O113 C117 1.253 . S
H114 C110 0.931 . S
H115 C111 0.930 . S
O116 Co105 2.039 . S
O116 C106 1.265 . S
C117 O113 1.253 . S
C117 O118 1.227 . S
O118 C117 1.227 . S
N119 Co105 2.140 . S
N119 C122 1.346 . S
N119 C123 1.345 . S
C120 C121 1.387 . S
C120 C124 1.391 . S
C121 C120 1.387 . S
C121 C122 1.369 . S
C121 H130 0.929 . S
C122 N119 1.346 . S
C122 C121 1.369 . S
C122 H125 0.928 . S
C123 N119 1.345 . S
C123 C124 1.371 . S
C123 H126 0.931 . S
C124 C120 1.391 . S
C124 C123 1.371 . S
C124 H131 0.930 . S
H125 C122 0.928 . S
H126 C123 0.931 . S
H127 C103 0.930 . S
H128 C100 0.930 . S
H129 C109 0.930 . S
H130 C121 0.929 . S
H131 C124 0.930 . S
C132 C133 1.335 1_565 S
C132 N135 1.356 . S
C132 H137 0.955 . S
C133 C132 1.335 1_545 S
C133 N134 1.373 . S
C133 H161 0.930 . S
N134 C133 1.373 . S
N134 C136 1.340 . S
N135 C132 1.356 . S
N135 C136 1.321 1_565 S
N135 Co138 2.135 . S
C136 N134 1.340 . S
C136 N135 1.321 1_545 S
C136 H160 0.930 . S
H137 C132 0.955 . S
Co138 N135 2.135 . S
Co138 N141 2.121 . S
Co138 O146 2.055 . S
Co138 O149 2.039 . S
Co138 N152 2.140 . S
C139 O140 1.227 1_565 S
C139 O149 1.265 . S
O140 C139 1.227 1_545 S
N141 Co138 2.121 . S
N141 C143 1.375 . S
N141 C144 1.313 . S
C142 C143 1.338 . S
C142 N145 1.377 . S
C142 H162 0.930 . S
C143 N141 1.375 . S
C143 C142 1.338 . S
C143 H147 0.931 . S
C144 N141 1.313 . S
C144 N145 1.344 . S
C144 H148 0.930 . S
N145 C142 1.377 . S
N145 C144 1.344 . S
O146 Co138 2.055 . S
O146 C150 1.253 . S
H147 C143 0.931 . S
H148 C144 0.930 . S
O149 Co138 2.039 . S
O149 C139 1.265 . S
C150 O146 1.253 . S
C150 O151 1.227 . S
O151 C150 1.227 . S
N152 Co138 2.140 . S
N152 C155 1.346 1_565 S
N152 C156 1.345 . S
C153 C154 1.387 1_565 S
C153 C157 1.391 . S
C154 C153 1.387 1_545 S
C154 C155 1.369 . S
C154 H163 0.929 . S
C155 N152 1.346 1_545 S
C155 C154 1.369 . S
C155 H158 0.928 . S
C156 N152 1.345 . S
C156 C157 1.371 . S
C156 H159 0.931 . S
C157 C153 1.391 . S
C157 C156 1.371 . S
C157 H164 0.930 . S
H158 C155 0.928 . S
H159 C156 0.931 . S
H160 C136 0.930 . S
H161 C133 0.930 . S
H162 C142 0.930 . S
H163 C154 0.929 . S
H164 C157 0.930 . S
C165 C166 1.327 1_455 S
C165 N168 1.381 . S
C165 H170 0.940 . S
C166 C165 1.327 1_655 S
C166 N167 1.373 . S
C166 H194 0.930 . S
N167 C166 1.373 . S
N167 C169 1.340 . S
N168 C165 1.381 . S
N168 C169 1.321 1_455 S
N168 Co171 2.135 . S
C169 N167 1.340 . S
C169 N168 1.321 1_655 S
C169 H193 0.930 . S
H170 C165 0.940 . S
Co171 N168 2.135 . S
Co171 N174 2.121 . S
Co171 O179 2.055 . S
Co171 O182 2.039 . S
Co171 N185 2.140 . S
C172 O173 1.227 1_455 S
C172 O182 1.265 . S
O173 C172 1.227 1_655 S
N174 Co171 2.121 . S
N174 C176 1.375 . S
N174 C177 1.313 . S
C175 C176 1.338 . S
C175 N178 1.377 . S
C175 H195 0.930 . S
C176 N174 1.375 . S
C176 C175 1.338 . S
C176 H180 0.931 . S
C177 N174 1.313 . S
C177 N178 1.344 . S
C177 H181 0.930 . S
N178 C175 1.377 . S
N178 C177 1.344 . S
O179 Co171 2.055 . S
O179 C183 1.253 . S
H180 C176 0.931 . S
H181 C177 0.930 . S
O182 Co171 2.039 . S
O182 C172 1.265 . S
C183 O179 1.253 . S
C183 O184 1.227 . S
O184 C183 1.227 . S
N185 Co171 2.140 . S
N185 C188 1.346 1_455 S
N185 C189 1.345 . S
C186 C187 1.387 1_455 S
C186 C190 1.391 . S
C187 C186 1.387 1_655 S
C187 C188 1.369 . S
C187 H196 0.929 . S
C188 N185 1.346 1_655 S
C188 C187 1.369 . S
C188 H191 0.928 . S
C189 N185 1.345 . S
C189 C190 1.371 . S
C189 H192 0.931 . S
C190 C186 1.391 . S
C190 C189 1.371 . S
C190 H197 0.930 . S
H191 C188 0.928 . S
H192 C189 0.931 . S
H193 C169 0.930 . S
H194 C166 0.930 . S
H195 C175 0.930 . S
H196 C187 0.929 . S
H197 C190 0.930 . S
C198 C199 1.351 . S
C198 N201 1.368 . S
C198 H203 0.931 . S
C199 C198 1.351 . S
C199 N200 1.373 . S
C199 H227 0.930 . S
N200 C199 1.373 . S
N200 C202 1.340 . S
N201 C198 1.368 . S
N201 C202 1.321 . S
N201 Co204 2.135 . S
C202 N200 1.340 . S
C202 N201 1.321 . S
C202 H226 0.930 . S
H203 C198 0.931 . S
Co204 N201 2.135 . S
Co204 N207 2.121 . S
Co204 O212 2.055 . S
Co204 O215 2.039 . S
Co204 N218 2.140 . S
C205 O206 1.227 . S
C205 O215 1.265 . S
O206 C205 1.227 . S
N207 Co204 2.121 . S
N207 C209 1.375 . S
N207 C210 1.313 . S
C208 C209 1.338 . S
C208 N211 1.377 . S
C208 H228 0.930 . S
C209 N207 1.375 . S
C209 C208 1.338 . S
C209 H213 0.931 . S
C210 N207 1.313 . S
C210 N211 1.344 . S
C210 H214 0.930 . S
N211 C208 1.377 . S
N211 C210 1.344 . S
O212 Co204 2.055 . S
O212 C216 1.253 . S
H213 C209 0.931 . S
H214 C210 0.930 . S
O215 Co204 2.039 . S
O215 C205 1.265 . S
C216 O212 1.253 . S
C216 O217 1.227 . S
O217 C216 1.227 . S
N218 Co204 2.140 . S
N218 C221 1.346 . S
N218 C222 1.345 . S
C219 C220 1.387 . S
C219 C223 1.391 . S
C220 C219 1.387 . S
C220 C221 1.369 . S
C220 H229 0.929 . S
C221 N218 1.346 . S
C221 C220 1.369 . S
C221 H224 0.928 . S
C222 N218 1.345 . S
C222 C223 1.371 . S
C222 H225 0.931 . S
C223 C219 1.391 . S
C223 C222 1.371 . S
C223 H230 0.930 . S
H224 C221 0.928 . S
H225 C222 0.931 . S
H226 C202 0.930 . S
H227 C199 0.930 . S
H228 C208 0.930 . S
H229 C220 0.929 . S
H230 C223 0.930 . S
C231 C232 1.327 1_565 S
C231 N234 1.381 . S
C231 H236 0.940 . S
C232 C231 1.327 1_545 S
C232 N233 1.373 . S
C232 H260 0.930 . S
N233 C232 1.373 . S
N233 C235 1.340 . S
N234 C231 1.381 . S
N234 C235 1.321 1_565 S
N234 Co237 2.135 . S
C235 N233 1.340 . S
C235 N234 1.321 1_545 S
C235 H259 0.930 . S
H236 C231 0.940 . S
Co237 N234 2.135 . S
Co237 N240 2.121 . S
Co237 O245 2.055 . S
Co237 O248 2.039 . S
Co237 N251 2.140 . S
C238 O239 1.227 1_565 S
C238 O248 1.265 . S
O239 C238 1.227 1_545 S
N240 Co237 2.121 . S
N240 C242 1.375 . S
N240 C243 1.313 . S
C241 C242 1.338 . S
C241 N244 1.377 . S
C241 H261 0.930 . S
C242 N240 1.375 . S
C242 C241 1.338 . S
C242 H246 0.931 . S
C243 N240 1.313 . S
C243 N244 1.344 . S
C243 H247 0.930 . S
N244 C241 1.377 . S
N244 C243 1.344 . S
O245 Co237 2.055 . S
O245 C249 1.253 . S
H246 C242 0.931 . S
H247 C243 0.930 . S
O248 Co237 2.039 . S
O248 C238 1.265 . S
C249 O245 1.253 . S
C249 O250 1.227 . S
O250 C249 1.227 . S
N251 Co237 2.140 . S
N251 C254 1.346 1_565 S
N251 C255 1.345 . S
C252 C253 1.387 1_565 S
C252 C256 1.391 . S
C253 C252 1.387 1_545 S
C253 C254 1.369 . S
C253 H262 0.929 . S
C254 N251 1.346 1_545 S
C254 C253 1.369 . S
C254 H257 0.928 . S
C255 N251 1.345 . S
C255 C256 1.371 . S
C255 H258 0.931 . S
C256 C252 1.391 . S
C256 C255 1.371 . S
C256 H263 0.930 . S
H257 C254 0.928 . S
H258 C255 0.931 . S
H259 C235 0.930 . S
H260 C232 0.930 . S
H261 C241 0.930 . S
H262 C253 0.929 . S
H263 C256 0.930 . S
C264 C265 1.335 1_455 S
C264 N267 1.356 . S
C264 H269 0.955 . S
C265 C264 1.335 1_655 S
C265 N266 1.373 . S
C265 H293 0.930 . S
N266 C265 1.373 . S
N266 C268 1.340 . S
N267 C264 1.356 . S
N267 C268 1.321 1_455 S
N267 Co270 2.135 . S
C268 N266 1.340 . S
C268 N267 1.321 1_655 S
C268 H292 0.930 . S
H269 C264 0.955 . S
Co270 N267 2.135 . S
Co270 N273 2.121 . S
Co270 O278 2.055 . S
Co270 O281 2.039 . S
Co270 N284 2.140 . S
C271 O272 1.227 1_455 S
C271 O281 1.265 . S
O272 C271 1.227 1_655 S
N273 Co270 2.121 . S
N273 C275 1.375 . S
N273 C276 1.313 . S
C274 C275 1.338 . S
C274 N277 1.377 . S
C274 H294 0.930 . S
C275 N273 1.375 . S
C275 C274 1.338 . S
C275 H279 0.931 . S
C276 N273 1.313 . S
C276 N277 1.344 . S
C276 H280 0.930 . S
N277 C274 1.377 . S
N277 C276 1.344 . S
O278 Co270 2.055 . S
O278 C282 1.253 . S
H279 C275 0.931 . S
H280 C276 0.930 . S
O281 Co270 2.039 . S
O281 C271 1.265 . S
C282 O278 1.253 . S
C282 O283 1.227 . S
O283 C282 1.227 . S
N284 Co270 2.140 . S
N284 C287 1.346 1_455 S
N284 C288 1.345 . S
C285 C286 1.387 1_455 S
C285 C289 1.391 . S
C286 C285 1.387 1_655 S
C286 C287 1.369 . S
C286 H295 0.929 . S
C287 N284 1.346 1_655 S
C287 C286 1.369 . S
C287 H290 0.928 . S
C288 N284 1.345 . S
C288 C289 1.371 . S
C288 H291 0.931 . S
C289 C285 1.391 . S
C289 C288 1.371 . S
C289 H296 0.930 . S
H290 C287 0.928 . S
H291 C288 0.931 . S
H292 C268 0.930 . S
H293 C265 0.930 . S
H294 C274 0.930 . S
H295 C286 0.929 . S
H296 C289 0.930 . S
C297 C298 1.351 . S
C297 N300 1.368 . S
C297 H302 0.931 . S
C298 C297 1.351 . S
C298 N299 1.373 . S
C298 H326 0.930 . S
N299 C298 1.373 . S
N299 C301 1.340 . S
N300 C297 1.368 . S
N300 C301 1.321 . S
N300 Co303 2.135 . S
C301 N299 1.340 . S
C301 N300 1.321 . S
C301 H325 0.930 . S
H302 C297 0.931 . S
Co303 N300 2.135 . S
Co303 N306 2.121 . S
Co303 O311 2.055 . S
Co303 O314 2.039 . S
Co303 N317 2.140 . S
C304 O305 1.227 . S
C304 O314 1.265 . S
O305 C304 1.227 . S
N306 Co303 2.121 . S
N306 C308 1.375 . S
N306 C309 1.313 . S
C307 C308 1.338 . S
C307 N310 1.377 . S
C307 H327 0.930 . S
C308 N306 1.375 . S
C308 C307 1.338 . S
C308 H312 0.931 . S
C309 N306 1.313 . S
C309 N310 1.344 . S
C309 H313 0.930 . S
N310 C307 1.377 . S
N310 C309 1.344 . S
O311 Co303 2.055 . S
O311 C315 1.253 . S
H312 C308 0.931 . S
H313 C309 0.930 . S
O314 Co303 2.039 . S
O314 C304 1.265 . S
C315 O311 1.253 . S
C315 O316 1.227 . S
O316 C315 1.227 . S
N317 Co303 2.140 . S
N317 C320 1.346 . S
N317 C321 1.345 . S
C318 C319 1.387 . S
C318 C322 1.391 . S
C319 C318 1.387 . S
C319 C320 1.369 . S
C319 H328 0.929 . S
C320 N317 1.346 . S
C320 C319 1.369 . S
C320 H323 0.928 . S
C321 N317 1.345 . S
C321 C322 1.371 . S
C321 H324 0.931 . S
C322 C318 1.391 . S
C322 C321 1.371 . S
C322 H329 0.930 . S
H323 C320 0.928 . S
H324 C321 0.931 . S
H325 C301 0.930 . S
H326 C298 0.930 . S
H327 C307 0.930 . S
H328 C319 0.929 . S
H329 C322 0.930 . S
C330 C331 1.335 1_545 S
C330 N333 1.356 . S
C330 H335 0.955 . S
C331 C330 1.335 1_565 S
C331 N332 1.373 . S
C331 H359 0.930 . S
N332 C331 1.373 . S
N332 C334 1.340 . S
N333 C330 1.356 . S
N333 C334 1.321 1_545 S
N333 Co336 2.135 . S
C334 N332 1.340 . S
C334 N333 1.321 1_565 S
C334 H358 0.930 . S
H335 C330 0.955 . S
Co336 N333 2.135 . S
Co336 N339 2.121 . S
Co336 O344 2.055 . S
Co336 O347 2.039 . S
Co336 N350 2.140 . S
C337 O338 1.227 1_545 S
C337 O347 1.265 . S
O338 C337 1.227 1_565 S
N339 Co336 2.121 . S
N339 C341 1.375 . S
N339 C342 1.313 . S
C340 C341 1.338 . S
C340 N343 1.377 . S
C340 H360 0.930 . S
C341 N339 1.375 . S
C341 C340 1.338 . S
C341 H345 0.931 . S
C342 N339 1.313 . S
C342 N343 1.344 . S
C342 H346 0.930 . S
N343 C340 1.377 . S
N343 C342 1.344 . S
O344 Co336 2.055 . S
O344 C348 1.253 . S
H345 C341 0.931 . S
H346 C342 0.930 . S
O347 Co336 2.039 . S
O347 C337 1.265 . S
C348 O344 1.253 . S
C348 O349 1.227 . S
O349 C348 1.227 . S
N350 Co336 2.140 . S
N350 C353 1.346 1_545 S
N350 C354 1.345 . S
C351 C352 1.387 1_545 S
C351 C355 1.391 . S
C352 C351 1.387 1_565 S
C352 C353 1.369 . S
C352 H361 0.929 . S
C353 N350 1.346 1_565 S
C353 C352 1.369 . S
C353 H356 0.928 . S
C354 N350 1.345 . S
C354 C355 1.371 . S
C354 H357 0.931 . S
C355 C351 1.391 . S
C355 C354 1.371 . S
C355 H362 0.930 . S
H356 C353 0.928 . S
H357 C354 0.931 . S
H358 C334 0.930 . S
H359 C331 0.930 . S
H360 C340 0.930 . S
H361 C352 0.929 . S
H362 C355 0.930 . S
C363 C364 1.327 1_655 S
C363 N366 1.381 . S
C363 H368 0.940 . S
C364 C363 1.327 1_455 S
C364 N365 1.373 . S
C364 H392 0.930 . S
N365 C364 1.373 . S
N365 C367 1.340 . S
N366 C363 1.381 . S
N366 C367 1.321 1_655 S
N366 Co369 2.135 . S
C367 N365 1.340 . S
C367 N366 1.321 1_455 S
C367 H391 0.930 . S
H368 C363 0.940 . S
Co369 N366 2.135 . S
Co369 N372 2.121 . S
Co369 O377 2.055 . S
Co369 O380 2.039 . S
Co369 N383 2.140 . S
C370 O371 1.227 1_655 S
C370 O380 1.265 . S
O371 C370 1.227 1_455 S
N372 Co369 2.121 . S
N372 C374 1.375 . S
N372 C375 1.313 . S
C373 C374 1.338 . S
C373 N376 1.377 . S
C373 H393 0.930 . S
C374 N372 1.375 . S
C374 C373 1.338 . S
C374 H378 0.931 . S
C375 N372 1.313 . S
C375 N376 1.344 . S
C375 H379 0.930 . S
N376 C373 1.377 . S
N376 C375 1.344 . S
O377 Co369 2.055 . S
O377 C381 1.253 . S
H378 C374 0.931 . S
H379 C375 0.930 . S
O380 Co369 2.039 . S
O380 C370 1.265 . S
C381 O377 1.253 . S
C381 O382 1.227 . S
O382 C381 1.227 . S
N383 Co369 2.140 . S
N383 C386 1.346 1_655 S
N383 C387 1.345 . S
C384 C385 1.387 1_655 S
C384 C388 1.391 . S
C385 C384 1.387 1_455 S
C385 C386 1.369 . S
C385 H394 0.929 . S
C386 N383 1.346 1_455 S
C386 C385 1.369 . S
C386 H389 0.928 . S
C387 N383 1.345 . S
C387 C388 1.371 . S
C387 H390 0.931 . S
C388 C384 1.391 . S
C388 C387 1.371 . S
C388 H395 0.930 . S
H389 C386 0.928 . S
H390 C387 0.931 . S
H391 C367 0.930 . S
H392 C364 0.930 . S
H393 C373 0.930 . S
H394 C385 0.929 . S
H395 C388 0.930 . S
C396 C397 1.351 . S
C396 N399 1.368 . S
C396 H401 0.931 . S
C397 C396 1.351 . S
C397 N398 1.373 . S
C397 H425 0.930 . S
N398 C397 1.373 . S
N398 C400 1.340 . S
N399 C396 1.368 . S
N399 C400 1.321 . S
N399 Co402 2.135 . S
C400 N398 1.340 . S
C400 N399 1.321 . S
C400 H424 0.930 . S
H401 C396 0.931 . S
Co402 N399 2.135 . S
Co402 N405 2.121 . S
Co402 O410 2.055 . S
Co402 O413 2.039 . S
Co402 N416 2.140 . S
C403 O404 1.227 . S
C403 O413 1.265 . S
O404 C403 1.227 . S
N405 Co402 2.121 . S
N405 C407 1.375 . S
N405 C408 1.313 . S
C406 C407 1.338 . S
C406 N409 1.377 . S
C406 H426 0.930 . S
C407 N405 1.375 . S
C407 C406 1.338 . S
C407 H411 0.931 . S
C408 N405 1.313 . S
C408 N409 1.344 . S
C408 H412 0.930 . S
N409 C406 1.377 . S
N409 C408 1.344 . S
O410 Co402 2.055 . S
O410 C414 1.253 . S
H411 C407 0.931 . S
H412 C408 0.930 . S
O413 Co402 2.039 . S
O413 C403 1.265 . S
C414 O410 1.253 . S
C414 O415 1.227 . S
O415 C414 1.227 . S
N416 Co402 2.140 . S
N416 C419 1.346 . S
N416 C420 1.345 . S
C417 C418 1.387 . S
C417 C421 1.391 . S
C418 C417 1.387 . S
C418 C419 1.369 . S
C418 H427 0.929 . S
C419 N416 1.346 . S
C419 C418 1.369 . S
C419 H422 0.928 . S
C420 N416 1.345 . S
C420 C421 1.371 . S
C420 H423 0.931 . S
C421 C417 1.391 . S
C421 C420 1.371 . S
C421 H428 0.930 . S
H422 C419 0.928 . S
H423 C420 0.931 . S
H424 C400 0.930 . S
H425 C397 0.930 . S
H426 C406 0.930 . S
H427 C418 0.929 . S
H428 C421 0.930 . S
C429 C430 1.351 . S
C429 N432 1.368 . S
C429 H434 0.931 . S
C430 C429 1.351 . S
C430 N431 1.373 . S
C430 H458 0.930 . S
N431 C430 1.373 . S
N431 C433 1.340 . S
N432 C429 1.368 . S
N432 C433 1.321 . S
N432 Co435 2.135 . S
C433 N431 1.340 . S
C433 N432 1.321 . S
C433 H457 0.930 . S
H434 C429 0.931 . S
Co435 N432 2.135 . S
Co435 N438 2.121 . S
Co435 O443 2.055 . S
Co435 O446 2.039 . S
Co435 N449 2.140 . S
C436 O437 1.227 . S
C436 O446 1.265 . S
O437 C436 1.227 . S
N438 Co435 2.121 . S
N438 C440 1.375 . S
N438 C441 1.313 . S
C439 C440 1.338 . S
C439 N442 1.377 . S
C439 H459 0.930 . S
C440 N438 1.375 . S
C440 C439 1.338 . S
C440 H444 0.931 . S
C441 N438 1.313 . S
C441 N442 1.344 . S
C441 H445 0.930 . S
N442 C439 1.377 . S
N442 C441 1.344 . S
O443 Co435 2.055 . S
O443 C447 1.253 . S
H444 C440 0.931 . S
H445 C441 0.930 . S
O446 Co435 2.039 . S
O446 C436 1.265 . S
C447 O443 1.253 . S
C447 O448 1.227 . S
O448 C447 1.227 . S
N449 Co435 2.140 . S
N449 C452 1.346 . S
N449 C453 1.345 . S
C450 C451 1.387 . S
C450 C454 1.391 . S
C451 C450 1.387 . S
C451 C452 1.369 . S
C451 H460 0.929 . S
C452 N449 1.346 . S
C452 C451 1.369 . S
C452 H455 0.928 . S
C453 N449 1.345 . S
C453 C454 1.371 . S
C453 H456 0.931 . S
C454 C450 1.391 . S
C454 C453 1.371 . S
C454 H461 0.930 . S
H455 C452 0.928 . S
H456 C453 0.931 . S
H457 C433 0.930 . S
H458 C430 0.930 . S
H459 C439 0.930 . S
H460 C451 0.929 . S
H461 C454 0.930 . S
C462 C463 1.351 . S
C462 N465 1.368 . S
C462 H467 0.931 . S
C463 C462 1.351 . S
C463 N464 1.373 . S
C463 H491 0.930 . S
N464 C463 1.373 . S
N464 C466 1.340 . S
N465 C462 1.368 . S
N465 C466 1.321 . S
N465 Co468 2.135 . S
C466 N464 1.340 . S
C466 N465 1.321 . S
C466 H490 0.930 . S
H467 C462 0.931 . S
Co468 N465 2.135 . S
Co468 N471 2.121 . S
Co468 O476 2.055 . S
Co468 O479 2.039 . S
Co468 N482 2.140 . S
C469 O470 1.227 . S
C469 O479 1.265 . S
O470 C469 1.227 . S
N471 Co468 2.121 . S
N471 C473 1.375 . S
N471 C474 1.313 . S
C472 C473 1.338 . S
C472 N475 1.377 . S
C472 H492 0.930 . S
C473 N471 1.375 . S
C473 C472 1.338 . S
C473 H477 0.931 . S
C474 N471 1.313 . S
C474 N475 1.344 . S
C474 H478 0.930 . S
N475 C472 1.377 . S
N475 C474 1.344 . S
O476 Co468 2.055 . S
O476 C480 1.253 . S
H477 C473 0.931 . S
H478 C474 0.930 . S
O479 Co468 2.039 . S
O479 C469 1.265 . S
C480 O476 1.253 . S
C480 O481 1.227 . S
O481 C480 1.227 . S
N482 Co468 2.140 . S
N482 C485 1.346 . S
N482 C486 1.345 . S
C483 C484 1.387 . S
C483 C487 1.391 . S
C484 C483 1.387 . S
C484 C485 1.369 . S
C484 H493 0.929 . S
C485 N482 1.346 . S
C485 C484 1.369 . S
C485 H488 0.928 . S
C486 N482 1.345 . S
C486 C487 1.371 . S
C486 H489 0.931 . S
C487 C483 1.391 . S
C487 C486 1.371 . S
C487 H494 0.930 . S
H488 C485 0.928 . S
H489 C486 0.931 . S
H490 C466 0.930 . S
H491 C463 0.930 . S
H492 C472 0.930 . S
H493 C484 0.929 . S
H494 C487 0.930 . S
C495 C496 1.351 . S
C495 N498 1.368 . S
C495 H500 0.931 . S
C496 C495 1.351 . S
C496 N497 1.373 . S
C496 H524 0.930 . S
N497 C496 1.373 . S
N497 C499 1.340 . S
N498 C495 1.368 . S
N498 C499 1.321 . S
N498 Co501 2.135 . S
C499 N497 1.340 . S
C499 N498 1.321 . S
C499 H523 0.930 . S
H500 C495 0.931 . S
Co501 N498 2.135 . S
Co501 N504 2.121 . S
Co501 O509 2.055 . S
Co501 O512 2.039 . S
Co501 N515 2.140 . S
C502 O503 1.227 . S
C502 O512 1.265 . S
O503 C502 1.227 . S
N504 Co501 2.121 . S
N504 C506 1.375 . S
N504 C507 1.313 . S
C505 C506 1.338 . S
C505 N508 1.377 . S
C505 H525 0.930 . S
C506 N504 1.375 . S
C506 C505 1.338 . S
C506 H510 0.931 . S
C507 N504 1.313 . S
C507 N508 1.344 . S
C507 H511 0.930 . S
N508 C505 1.377 . S
N508 C507 1.344 . S
O509 Co501 2.055 . S
O509 C513 1.253 . S
H510 C506 0.931 . S
H511 C507 0.930 . S
O512 Co501 2.039 . S
O512 C502 1.265 . S
C513 O509 1.253 . S
C513 O514 1.227 . S
O514 C513 1.227 . S
N515 Co501 2.140 . S
N515 C518 1.346 . S
N515 C519 1.345 . S
C516 C517 1.387 . S
C516 C520 1.391 . S
C517 C516 1.387 . S
C517 C518 1.369 . S
C517 H526 0.929 . S
C518 N515 1.346 . S
C518 C517 1.369 . S
C518 H521 0.928 . S
C519 N515 1.345 . S
C519 C520 1.371 . S
C519 H522 0.931 . S
C520 C516 1.391 . S
C520 C519 1.371 . S
C520 H527 0.930 . S
H521 C518 0.928 . S
H522 C519 0.931 . S
H523 C499 0.930 . S
H524 C496 0.930 . S
H525 C505 0.930 . S
H526 C517 0.929 . S
H527 C520 0.930 . S
C528 C529 1.351 . S
C528 N531 1.368 . S
C528 H533 0.931 . S
C529 C528 1.351 . S
C529 N530 1.373 . S
C529 H557 0.930 . S
N530 C529 1.373 . S
N530 C532 1.340 . S
N531 C528 1.368 . S
N531 C532 1.321 . S
N531 Co534 2.135 . S
C532 N530 1.340 . S
C532 N531 1.321 . S
C532 H556 0.930 . S
H533 C528 0.931 . S
Co534 N531 2.135 . S
Co534 N537 2.121 . S
Co534 O542 2.055 . S
Co534 O545 2.039 . S
Co534 N548 2.140 . S
C535 O536 1.227 . S
C535 O545 1.265 . S
O536 C535 1.227 . S
N537 Co534 2.121 . S
N537 C539 1.375 . S
N537 C540 1.313 . S
C538 C539 1.338 . S
C538 N541 1.377 . S
C538 H558 0.930 . S
C539 N537 1.375 . S
C539 C538 1.338 . S
C539 H543 0.931 . S
C540 N537 1.313 . S
C540 N541 1.344 . S
C540 H544 0.930 . S
N541 C538 1.377 . S
N541 C540 1.344 . S
O542 Co534 2.055 . S
O542 C546 1.253 . S
H543 C539 0.931 . S
H544 C540 0.930 . S
O545 Co534 2.039 . S
O545 C535 1.265 . S
C546 O542 1.253 . S
C546 O547 1.227 . S
O547 C546 1.227 . S
N548 Co534 2.140 . S
N548 C551 1.346 . S
N548 C552 1.345 . S
C549 C550 1.387 . S
C549 C553 1.391 . S
C550 C549 1.387 . S
C550 C551 1.369 . S
C550 H559 0.929 . S
C551 N548 1.346 . S
C551 C550 1.369 . S
C551 H554 0.928 . S
C552 N548 1.345 . S
C552 C553 1.371 . S
C552 H555 0.931 . S
C553 C549 1.391 . S
C553 C552 1.371 . S
C553 H560 0.930 . S
H554 C551 0.928 . S
H555 C552 0.931 . S
H556 C532 0.930 . S
H557 C529 0.930 . S
H558 C538 0.930 . S
H559 C550 0.929 . S
H560 C553 0.930 . S
C561 C562 1.351 . S
C561 N564 1.368 . S
C561 H566 0.931 . S
C562 C561 1.351 . S
C562 N563 1.373 . S
C562 H590 0.930 . S
N563 C562 1.373 . S
N563 C565 1.340 . S
N564 C561 1.368 . S
N564 C565 1.321 . S
N564 Co567 2.135 . S
C565 N563 1.340 . S
C565 N564 1.321 . S
C565 H589 0.930 . S
H566 C561 0.931 . S
Co567 N564 2.135 . S
Co567 N570 2.121 . S
Co567 O575 2.055 . S
Co567 O578 2.039 . S
Co567 N581 2.140 . S
C568 O569 1.227 . S
C568 O578 1.265 . S
O569 C568 1.227 . S
N570 Co567 2.121 . S
N570 C572 1.375 . S
N570 C573 1.313 . S
C571 C572 1.338 . S
C571 N574 1.377 . S
C571 H591 0.930 . S
C572 N570 1.375 . S
C572 C571 1.338 . S
C572 H576 0.931 . S
C573 N570 1.313 . S
C573 N574 1.344 . S
C573 H577 0.930 . S
N574 C571 1.377 . S
N574 C573 1.344 . S
O575 Co567 2.055 . S
O575 C579 1.253 . S
H576 C572 0.931 . S
H577 C573 0.930 . S
O578 Co567 2.039 . S
O578 C568 1.265 . S
C579 O575 1.253 . S
C579 O580 1.227 . S
O580 C579 1.227 . S
N581 Co567 2.140 . S
N581 C584 1.346 . S
N581 C585 1.345 . S
C582 C583 1.387 . S
C582 C586 1.391 . S
C583 C582 1.387 . S
C583 C584 1.369 . S
C583 H592 0.929 . S
C584 N581 1.346 . S
C584 C583 1.369 . S
C584 H587 0.928 . S
C585 N581 1.345 . S
C585 C586 1.371 . S
C585 H588 0.931 . S
C586 C582 1.391 . S
C586 C585 1.371 . S
C586 H593 0.930 . S
H587 C584 0.928 . S
H588 C585 0.931 . S
H589 C565 0.930 . S
H590 C562 0.930 . S
H591 C571 0.930 . S
H592 C583 0.929 . S
H593 C586 0.930 . S
C594 C595 1.351 . S
C594 N597 1.368 . S
C594 H599 0.931 . S
C595 C594 1.351 . S
C595 N596 1.373 . S
C595 H623 0.930 . S
N596 C595 1.373 . S
N596 C598 1.340 . S
N597 C594 1.368 . S
N597 C598 1.321 . S
N597 Co600 2.135 . S
C598 N596 1.340 . S
C598 N597 1.321 . S
C598 H622 0.930 . S
H599 C594 0.931 . S
Co600 N597 2.135 . S
Co600 N603 2.121 . S
Co600 O608 2.055 . S
Co600 O611 2.039 . S
Co600 N614 2.140 . S
C601 O602 1.227 . S
C601 O611 1.265 . S
O602 C601 1.227 . S
N603 Co600 2.121 . S
N603 C605 1.375 . S
N603 C606 1.313 . S
C604 C605 1.338 . S
C604 N607 1.377 . S
C604 H624 0.930 . S
C605 N603 1.375 . S
C605 C604 1.338 . S
C605 H609 0.931 . S
C606 N603 1.313 . S
C606 N607 1.344 . S
C606 H610 0.930 . S
N607 C604 1.377 . S
N607 C606 1.344 . S
O608 Co600 2.055 . S
O608 C612 1.253 . S
H609 C605 0.931 . S
H610 C606 0.930 . S
O611 Co600 2.039 . S
O611 C601 1.265 . S
C612 O608 1.253 . S
C612 O613 1.227 . S
O613 C612 1.227 . S
N614 Co600 2.140 . S
N614 C617 1.346 . S
N614 C618 1.345 . S
C615 C616 1.387 . S
C615 C619 1.391 . S
C616 C615 1.387 . S
C616 C617 1.369 . S
C616 H625 0.929 . S
C617 N614 1.346 . S
C617 C616 1.369 . S
C617 H620 0.928 . S
C618 N614 1.345 . S
C618 C619 1.371 . S
C618 H621 0.931 . S
C619 C615 1.391 . S
C619 C618 1.371 . S
C619 H626 0.930 . S
H620 C617 0.928 . S
H621 C618 0.931 . S
H622 C598 0.930 . S
H623 C595 0.930 . S
H624 C604 0.930 . S
H625 C616 0.929 . S
H626 C619 0.930 . S
C627 C628 1.351 . S
C627 N630 1.368 . S
C627 H632 0.931 . S
C628 C627 1.351 . S
C628 N629 1.373 . S
C628 H656 0.930 . S
N629 C628 1.373 . S
N629 C631 1.340 . S
N630 C627 1.368 . S
N630 C631 1.321 . S
N630 Co633 2.135 . S
C631 N629 1.340 . S
C631 N630 1.321 . S
C631 H655 0.930 . S
H632 C627 0.931 . S
Co633 N630 2.135 . S
Co633 N636 2.121 . S
Co633 O641 2.055 . S
Co633 O644 2.039 . S
Co633 N647 2.140 . S
C634 O635 1.227 . S
C634 O644 1.265 . S
O635 C634 1.227 . S
N636 Co633 2.121 . S
N636 C638 1.375 . S
N636 C639 1.313 . S
C637 C638 1.338 . S
C637 N640 1.377 . S
C637 H657 0.930 . S
C638 N636 1.375 . S
C638 C637 1.338 . S
C638 H642 0.931 . S
C639 N636 1.313 . S
C639 N640 1.344 . S
C639 H643 0.930 . S
N640 C637 1.377 . S
N640 C639 1.344 . S
O641 Co633 2.055 . S
O641 C645 1.253 . S
H642 C638 0.931 . S
H643 C639 0.930 . S
O644 Co633 2.039 . S
O644 C634 1.265 . S
C645 O641 1.253 . S
C645 O646 1.227 . S
O646 C645 1.227 . S
N647 Co633 2.140 . S
N647 C650 1.346 . S
N647 C651 1.345 . S
C648 C649 1.387 . S
C648 C652 1.391 . S
C649 C648 1.387 . S
C649 C650 1.369 . S
C649 H658 0.929 . S
C650 N647 1.346 . S
C650 C649 1.369 . S
C650 H653 0.928 . S
C651 N647 1.345 . S
C651 C652 1.371 . S
C651 H654 0.931 . S
C652 C648 1.391 . S
C652 C651 1.371 . S
C652 H659 0.930 . S
H653 C650 0.928 . S
H654 C651 0.931 . S
H655 C631 0.930 . S
H656 C628 0.930 . S
H657 C637 0.930 . S
H658 C649 0.929 . S
H659 C652 0.930 . S
C660 C661 1.351 . S
C660 N663 1.368 . S
C660 H665 0.931 . S
C661 C660 1.351 . S
C661 N662 1.373 . S
C661 H689 0.930 . S
N662 C661 1.373 . S
N662 C664 1.340 . S
N663 C660 1.368 . S
N663 C664 1.321 . S
N663 Co666 2.135 . S
C664 N662 1.340 . S
C664 N663 1.321 . S
C664 H688 0.930 . S
H665 C660 0.931 . S
Co666 N663 2.135 . S
Co666 N669 2.121 . S
Co666 O674 2.055 . S
Co666 O677 2.039 . S
Co666 N680 2.140 . S
C667 O668 1.227 . S
C667 O677 1.265 . S
O668 C667 1.227 . S
N669 Co666 2.121 . S
N669 C671 1.375 . S
N669 C672 1.313 . S
C670 C671 1.338 . S
C670 N673 1.377 . S
C670 H690 0.930 . S
C671 N669 1.375 . S
C671 C670 1.338 . S
C671 H675 0.931 . S
C672 N669 1.313 . S
C672 N673 1.344 . S
C672 H676 0.930 . S
N673 C670 1.377 . S
N673 C672 1.344 . S
O674 Co666 2.055 . S
O674 C678 1.253 . S
H675 C671 0.931 . S
H676 C672 0.930 . S
O677 Co666 2.039 . S
O677 C667 1.265 . S
C678 O674 1.253 . S
C678 O679 1.227 . S
O679 C678 1.227 . S
N680 Co666 2.140 . S
N680 C683 1.346 . S
N680 C684 1.345 . S
C681 C682 1.387 . S
C681 C685 1.391 . S
C682 C681 1.387 . S
C682 C683 1.369 . S
C682 H691 0.929 . S
C683 N680 1.346 . S
C683 C682 1.369 . S
C683 H686 0.928 . S
C684 N680 1.345 . S
C684 C685 1.371 . S
C684 H687 0.931 . S
C685 C681 1.391 . S
C685 C684 1.371 . S
C685 H692 0.930 . S
H686 C683 0.928 . S
H687 C684 0.931 . S
H688 C664 0.930 . S
H689 C661 0.930 . S
H690 C670 0.930 . S
H691 C682 0.929 . S
H692 C685 0.930 . S
C693 C694 1.351 . S
C693 N696 1.368 . S
C693 H698 0.931 . S
C694 C693 1.351 . S
C694 N695 1.373 . S
C694 H722 0.930 . S
N695 C694 1.373 . S
N695 C697 1.340 . S
N696 C693 1.368 . S
N696 C697 1.321 . S
N696 Co699 2.135 . S
C697 N695 1.340 . S
C697 N696 1.321 . S
C697 H721 0.930 . S
H698 C693 0.931 . S
Co699 N696 2.135 . S
Co699 N702 2.121 . S
Co699 O707 2.055 . S
Co699 O710 2.039 . S
Co699 N713 2.140 . S
C700 O701 1.227 . S
C700 O710 1.265 . S
O701 C700 1.227 . S
N702 Co699 2.121 . S
N702 C704 1.375 . S
N702 C705 1.313 . S
C703 C704 1.338 . S
C703 N706 1.377 . S
C703 H723 0.930 . S
C704 N702 1.375 . S
C704 C703 1.338 . S
C704 H708 0.931 . S
C705 N702 1.313 . S
C705 N706 1.344 . S
C705 H709 0.930 . S
N706 C703 1.377 . S
N706 C705 1.344 . S
O707 Co699 2.055 . S
O707 C711 1.253 . S
H708 C704 0.931 . S
H709 C705 0.930 . S
O710 Co699 2.039 . S
O710 C700 1.265 . S
C711 O707 1.253 . S
C711 O712 1.227 . S
O712 C711 1.227 . S
N713 Co699 2.140 . S
N713 C716 1.346 . S
N713 C717 1.345 . S
C714 C715 1.387 . S
C714 C718 1.391 . S
C715 C714 1.387 . S
C715 C716 1.369 1_554 S
C715 H724 0.929 . S
C716 N713 1.346 . S
C716 C715 1.369 1_556 S
C716 H719 0.928 . S
C717 N713 1.345 . S
C717 C718 1.371 1_556 S
C717 H720 0.931 . S
C718 C714 1.391 . S
C718 C717 1.371 1_554 S
C718 H725 0.930 . S
H719 C716 0.928 . S
H720 C717 0.931 . S
H721 C697 0.930 . S
H722 C694 0.930 . S
H723 C703 0.930 . S
H724 C715 0.929 . S
H725 C718 0.930 . S
C726 C727 1.351 . S
C726 N729 1.368 . S
C726 H731 0.931 . S
C727 C726 1.351 . S
C727 N728 1.373 . S
C727 H755 0.930 . S
N728 C727 1.373 . S
N728 C730 1.340 . S
N729 C726 1.368 . S
N729 C730 1.321 . S
N729 Co732 2.135 . S
C730 N728 1.340 . S
C730 N729 1.321 . S
C730 H754 0.930 . S
H731 C726 0.931 . S
Co732 N729 2.135 . S
Co732 N735 2.121 . S
Co732 O740 2.055 . S
Co732 O743 2.039 . S
Co732 N746 2.140 . S
C733 O734 1.227 . S
C733 O743 1.265 . S
O734 C733 1.227 . S
N735 Co732 2.121 . S
N735 C737 1.375 . S
N735 C738 1.313 . S
C736 C737 1.338 . S
C736 N739 1.377 . S
C736 H756 0.930 . S
C737 N735 1.375 . S
C737 C736 1.338 . S
C737 H741 0.931 . S
C738 N735 1.313 . S
C738 N739 1.344 . S
C738 H742 0.930 . S
N739 C736 1.377 . S
N739 C738 1.344 . S
O740 Co732 2.055 . S
O740 C744 1.253 . S
H741 C737 0.931 . S
H742 C738 0.930 . S
O743 Co732 2.039 . S
O743 C733 1.265 . S
C744 O740 1.253 . S
C744 O745 1.227 . S
O745 C744 1.227 . S
N746 Co732 2.140 . S
N746 C749 1.346 . S
N746 C750 1.345 . S
C747 C748 1.387 . S
C747 C751 1.391 . S
C748 C747 1.387 . S
C748 C749 1.369 1_554 S
C748 H757 0.929 . S
C749 N746 1.346 . S
C749 C748 1.369 1_556 S
C749 H752 0.928 . S
C750 N746 1.345 . S
C750 C751 1.371 1_556 S
C750 H753 0.931 . S
C751 C747 1.391 . S
C751 C750 1.371 1_554 S
C751 H758 0.930 . S
H752 C749 0.928 . S
H753 C750 0.931 . S
H754 C730 0.930 . S
H755 C727 0.930 . S
H756 C736 0.930 . S
H757 C748 0.929 . S
H758 C751 0.930 . S
C759 C760 1.351 . S
C759 N762 1.368 . S
C759 H764 0.931 . S
C760 C759 1.351 . S
C760 N761 1.373 . S
C760 H788 0.930 . S
N761 C760 1.373 . S
N761 C763 1.340 . S
N762 C759 1.368 . S
N762 C763 1.321 . S
N762 Co765 2.135 . S
C763 N761 1.340 . S
C763 N762 1.321 . S
C763 H787 0.930 . S
H764 C759 0.931 . S
Co765 N762 2.135 . S
Co765 N768 2.121 . S
Co765 O773 2.055 . S
Co765 O776 2.039 . S
Co765 N779 2.140 . S
C766 O767 1.227 . S
C766 O776 1.265 . S
O767 C766 1.227 . S
N768 Co765 2.121 . S
N768 C770 1.375 . S
N768 C771 1.313 . S
C769 C770 1.338 . S
C769 N772 1.377 . S
C769 H789 0.930 . S
C770 N768 1.375 . S
C770 C769 1.338 . S
C770 H774 0.931 . S
C771 N768 1.313 . S
C771 N772 1.344 . S
C771 H775 0.930 . S
N772 C769 1.377 . S
N772 C771 1.344 . S
O773 Co765 2.055 . S
O773 C777 1.253 . S
H774 C770 0.931 . S
H775 C771 0.930 . S
O776 Co765 2.039 . S
O776 C766 1.265 . S
C777 O773 1.253 . S
C777 O778 1.227 . S
O778 C777 1.227 . S
N779 Co765 2.140 . S
N779 C782 1.346 . S
N779 C783 1.345 . S
C780 C781 1.387 . S
C780 C784 1.391 . S
C781 C780 1.387 . S
C781 C782 1.369 1_554 S
C781 H790 0.929 . S
C782 N779 1.346 . S
C782 C781 1.369 1_556 S
C782 H785 0.928 . S
C783 N779 1.345 . S
C783 C784 1.371 1_556 S
C783 H786 0.931 . S
C784 C780 1.391 . S
C784 C783 1.371 1_554 S
C784 H791 0.930 . S
H785 C782 0.928 . S
H786 C783 0.931 . S
H787 C763 0.930 . S
H788 C760 0.930 . S
H789 C769 0.930 . S
H790 C781 0.929 . S
H791 C784 0.930 . S
C792 C793 1.351 . S
C792 N795 1.368 . S
C792 H797 0.931 . S
C793 C792 1.351 . S
C793 N794 1.373 . S
C793 H821 0.930 . S
N794 C793 1.373 . S
N794 C796 1.340 . S
N795 C792 1.368 . S
N795 C796 1.321 . S
N795 Co798 2.135 . S
C796 N794 1.340 . S
C796 N795 1.321 . S
C796 H820 0.930 . S
H797 C792 0.931 . S
Co798 N795 2.135 . S
Co798 N801 2.121 . S
Co798 O806 2.055 . S
Co798 O809 2.039 . S
Co798 N812 2.140 . S
C799 O800 1.227 . S
C799 O809 1.265 . S
O800 C799 1.227 . S
N801 Co798 2.121 . S
N801 C803 1.375 . S
N801 C804 1.313 . S
C802 C803 1.338 . S
C802 N805 1.377 . S
C802 H822 0.930 . S
C803 N801 1.375 . S
C803 C802 1.338 . S
C803 H807 0.931 . S
C804 N801 1.313 . S
C804 N805 1.344 . S
C804 H808 0.930 . S
N805 C802 1.377 . S
N805 C804 1.344 . S
O806 Co798 2.055 . S
O806 C810 1.253 . S
H807 C803 0.931 . S
H808 C804 0.930 . S
O809 Co798 2.039 . S
O809 C799 1.265 . S
C810 O806 1.253 . S
C810 O811 1.227 . S
O811 C810 1.227 . S
N812 Co798 2.140 . S
N812 C815 1.346 . S
N812 C816 1.345 . S
C813 C814 1.387 . S
C813 C817 1.391 . S
C814 C813 1.387 . S
C814 C815 1.369 . S
C814 H823 0.929 . S
C815 N812 1.346 . S
C815 C814 1.369 . S
C815 H818 0.928 . S
C816 N812 1.345 . S
C816 C817 1.371 . S
C816 H819 0.931 . S
C817 C813 1.391 . S
C817 C816 1.371 . S
C817 H824 0.930 . S
H818 C815 0.928 . S
H819 C816 0.931 . S
H820 C796 0.930 . S
H821 C793 0.930 . S
H822 C802 0.930 . S
H823 C814 0.929 . S
H824 C817 0.930 . S
C825 C826 1.351 . S
C825 N828 1.368 . S
C825 H830 0.931 . S
C826 C825 1.351 . S
C826 N827 1.373 . S
C826 H854 0.930 . S
N827 C826 1.373 . S
N827 C829 1.340 . S
N828 C825 1.368 . S
N828 C829 1.321 . S
N828 Co831 2.135 . S
C829 N827 1.340 . S
C829 N828 1.321 . S
C829 H853 0.930 . S
H830 C825 0.931 . S
Co831 N828 2.135 . S
Co831 N834 2.121 . S
Co831 O839 2.055 . S
Co831 O842 2.039 . S
Co831 N845 2.140 . S
C832 O833 1.227 . S
C832 O842 1.265 . S
O833 C832 1.227 . S
N834 Co831 2.121 . S
N834 C836 1.375 . S
N834 C837 1.313 . S
C835 C836 1.338 . S
C835 N838 1.377 . S
C835 H855 0.930 . S
C836 N834 1.375 . S
C836 C835 1.338 . S
C836 H840 0.931 . S
C837 N834 1.313 . S
C837 N838 1.344 . S
C837 H841 0.930 . S
N838 C835 1.377 . S
N838 C837 1.344 . S
O839 Co831 2.055 . S
O839 C843 1.253 . S
H840 C836 0.931 . S
H841 C837 0.930 . S
O842 Co831 2.039 . S
O842 C832 1.265 . S
C843 O839 1.253 . S
C843 O844 1.227 . S
O844 C843 1.227 . S
N845 Co831 2.140 . S
N845 C848 1.346 . S
N845 C849 1.345 . S
C846 C847 1.387 . S
C846 C850 1.391 . S
C847 C846 1.387 . S
C847 C848 1.369 . S
C847 H856 0.929 . S
C848 N845 1.346 . S
C848 C847 1.369 . S
C848 H851 0.928 . S
C849 N845 1.345 . S
C849 C850 1.371 . S
C849 H852 0.931 . S
C850 C846 1.391 . S
C850 C849 1.371 . S
C850 H857 0.930 . S
H851 C848 0.928 . S
H852 C849 0.931 . S
H853 C829 0.930 . S
H854 C826 0.930 . S
H855 C835 0.930 . S
H856 C847 0.929 . S
H857 C850 0.930 . S
C858 C859 1.351 . S
C858 N861 1.368 . S
C858 H863 0.931 . S
C859 C858 1.351 . S
C859 N860 1.373 . S
C859 H887 0.930 . S
N860 C859 1.373 . S
N860 C862 1.340 . S
N861 C858 1.368 . S
N861 C862 1.321 . S
N861 Co864 2.135 . S
C862 N860 1.340 . S
C862 N861 1.321 . S
C862 H886 0.930 . S
H863 C858 0.931 . S
Co864 N861 2.135 . S
Co864 N867 2.121 . S
Co864 O872 2.055 . S
Co864 O875 2.039 . S
Co864 N878 2.140 . S
C865 O866 1.227 . S
C865 O875 1.265 . S
O866 C865 1.227 . S
N867 Co864 2.121 . S
N867 C869 1.375 . S
N867 C870 1.313 . S
C868 C869 1.338 . S
C868 N871 1.377 . S
C868 H888 0.930 . S
C869 N867 1.375 . S
C869 C868 1.338 . S
C869 H873 0.931 . S
C870 N867 1.313 . S
C870 N871 1.344 . S
C870 H874 0.930 . S
N871 C868 1.377 . S
N871 C870 1.344 . S
O872 Co864 2.055 . S
O872 C876 1.253 . S
H873 C869 0.931 . S
H874 C870 0.930 . S
O875 Co864 2.039 . S
O875 C865 1.265 . S
C876 O872 1.253 . S
C876 O877 1.227 . S
O877 C876 1.227 . S
N878 Co864 2.140 . S
N878 C881 1.346 . S
N878 C882 1.345 . S
C879 C880 1.387 . S
C879 C883 1.391 . S
C880 C879 1.387 . S
C880 C881 1.369 . S
C880 H889 0.929 . S
C881 N878 1.346 . S
C881 C880 1.369 . S
C881 H884 0.928 . S
C882 N878 1.345 . S
C882 C883 1.371 . S
C882 H885 0.931 . S
C883 C879 1.391 . S
C883 C882 1.371 . S
C883 H890 0.930 . S
H884 C881 0.928 . S
H885 C882 0.931 . S
H886 C862 0.930 . S
H887 C859 0.930 . S
H888 C868 0.930 . S
H889 C880 0.929 . S
H890 C883 0.930 . S
C891 C892 1.351 . S
C891 N894 1.368 . S
C891 H896 0.931 . S
C892 C891 1.351 . S
C892 N893 1.373 . S
C892 H920 0.930 . S
N893 C892 1.373 . S
N893 C895 1.340 . S
N894 C891 1.368 . S
N894 C895 1.321 . S
N894 Co897 2.135 . S
C895 N893 1.340 . S
C895 N894 1.321 . S
C895 H919 0.930 . S
H896 C891 0.931 . S
Co897 N894 2.135 . S
Co897 N900 2.121 . S
Co897 O905 2.055 . S
Co897 O908 2.039 . S
Co897 N911 2.140 . S
C898 O899 1.227 . S
C898 O908 1.265 . S
O899 C898 1.227 . S
N900 Co897 2.121 . S
N900 C902 1.375 . S
N900 C903 1.313 . S
C901 C902 1.338 . S
C901 N904 1.377 . S
C901 H921 0.930 . S
C902 N900 1.375 . S
C902 C901 1.338 . S
C902 H906 0.931 . S
C903 N900 1.313 . S
C903 N904 1.344 . S
C903 H907 0.930 . S
N904 C901 1.377 . S
N904 C903 1.344 . S
O905 Co897 2.055 . S
O905 C909 1.253 . S
H906 C902 0.931 . S
H907 C903 0.930 . S
O908 Co897 2.039 . S
O908 C898 1.265 . S
C909 O905 1.253 . S
C909 O910 1.227 . S
O910 C909 1.227 . S
N911 Co897 2.140 . S
N911 C914 1.346 . S
N911 C915 1.345 . S
C912 C913 1.387 . S
C912 C916 1.391 . S
C913 C912 1.387 . S
C913 C914 1.369 1_556 S
C913 H922 0.929 . S
C914 N911 1.346 . S
C914 C913 1.369 1_554 S
C914 H917 0.928 . S
C915 N911 1.345 . S
C915 C916 1.371 1_554 S
C915 H918 0.931 . S
C916 C912 1.391 . S
C916 C915 1.371 1_556 S
C916 H923 0.930 . S
H917 C914 0.928 . S
H918 C915 0.931 . S
H919 C895 0.930 . S
H920 C892 0.930 . S
H921 C901 0.930 . S
H922 C913 0.929 . S
H923 C916 0.930 . S
C924 C925 1.351 . S
C924 N927 1.368 . S
C924 H929 0.931 . S
C925 C924 1.351 . S
C925 N926 1.373 . S
C925 H953 0.930 . S
N926 C925 1.373 . S
N926 C928 1.340 . S
N927 C924 1.368 . S
N927 C928 1.321 . S
N927 Co930 2.135 . S
C928 N926 1.340 . S
C928 N927 1.321 . S
C928 H952 0.930 . S
H929 C924 0.931 . S
Co930 N927 2.135 . S
Co930 N933 2.121 . S
Co930 O938 2.055 . S
Co930 O941 2.039 . S
Co930 N944 2.140 . S
C931 O932 1.227 . S
C931 O941 1.265 . S
O932 C931 1.227 . S
N933 Co930 2.121 . S
N933 C935 1.375 . S
N933 C936 1.313 . S
C934 C935 1.338 . S
C934 N937 1.377 . S
C934 H954 0.930 . S
C935 N933 1.375 . S
C935 C934 1.338 . S
C935 H939 0.931 . S
C936 N933 1.313 . S
C936 N937 1.344 . S
C936 H940 0.930 . S
N937 C934 1.377 . S
N937 C936 1.344 . S
O938 Co930 2.055 . S
O938 C942 1.253 . S
H939 C935 0.931 . S
H940 C936 0.930 . S
O941 Co930 2.039 . S
O941 C931 1.265 . S
C942 O938 1.253 . S
C942 O943 1.227 . S
O943 C942 1.227 . S
N944 Co930 2.140 . S
N944 C947 1.346 . S
N944 C948 1.345 . S
C945 C946 1.387 . S
C945 C949 1.391 . S
C946 C945 1.387 . S
C946 C947 1.369 1_556 S
C946 H955 0.929 . S
C947 N944 1.346 . S
C947 C946 1.369 1_554 S
C947 H950 0.928 . S
C948 N944 1.345 . S
C948 C949 1.371 1_554 S
C948 H951 0.931 . S
C949 C945 1.391 . S
C949 C948 1.371 1_556 S
C949 H956 0.930 . S
H950 C947 0.928 . S
H951 C948 0.931 . S
H952 C928 0.930 . S
H953 C925 0.930 . S
H954 C934 0.930 . S
H955 C946 0.929 . S
H956 C949 0.930 . S
C957 C958 1.351 . S
C957 N960 1.368 . S
C957 H962 0.931 . S
C958 C957 1.351 . S
C958 N959 1.373 . S
C958 H986 0.930 . S
N959 C958 1.373 . S
N959 C961 1.340 . S
N960 C957 1.368 . S
N960 C961 1.321 . S
N960 Co963 2.135 . S
C961 N959 1.340 . S
C961 N960 1.321 . S
C961 H985 0.930 . S
H962 C957 0.931 . S
Co963 N960 2.135 . S
Co963 N966 2.121 . S
Co963 O971 2.055 . S
Co963 O974 2.039 . S
Co963 N977 2.140 . S
C964 O965 1.227 . S
C964 O974 1.265 . S
O965 C964 1.227 . S
N966 Co963 2.121 . S
N966 C968 1.375 . S
N966 C969 1.313 . S
C967 C968 1.338 . S
C967 N970 1.377 . S
C967 H987 0.930 . S
C968 N966 1.375 . S
C968 C967 1.338 . S
C968 H972 0.931 . S
C969 N966 1.313 . S
C969 N970 1.344 . S
C969 H973 0.930 . S
N970 C967 1.377 . S
N970 C969 1.344 . S
O971 Co963 2.055 . S
O971 C975 1.253 . S
H972 C968 0.931 . S
H973 C969 0.930 . S
O974 Co963 2.039 . S
O974 C964 1.265 . S
C975 O971 1.253 . S
C975 O976 1.227 . S
O976 C975 1.227 . S
N977 Co963 2.140 . S
N977 C980 1.346 . S
N977 C981 1.345 . S
C978 C979 1.387 . S
C978 C982 1.391 . S
C979 C978 1.387 . S
C979 C980 1.369 1_556 S
C979 H988 0.929 . S
C980 N977 1.346 . S
C980 C979 1.369 1_554 S
C980 H983 0.928 . S
C981 N977 1.345 . S
C981 C982 1.371 1_554 S
C981 H984 0.931 . S
C982 C978 1.391 . S
C982 C981 1.371 1_556 S
C982 H989 0.930 . S
H983 C980 0.928 . S
H984 C981 0.931 . S
H985 C961 0.930 . S
H986 C958 0.930 . S
H987 C967 0.930 . S
H988 C979 0.929 . S
H989 C982 0.930 . S
C990 C991 1.351 . S
C990 N993 1.368 . S
C990 H995 0.931 . S
C991 C990 1.351 . S
C991 N992 1.373 . S
C991 H1019 0.930 . S
N992 C991 1.373 . S
N992 C994 1.340 . S
N993 C990 1.368 . S
N993 C994 1.321 . S
N993 Co996 2.135 . S
C994 N992 1.340 . S
C994 N993 1.321 . S
C994 H1018 0.930 . S
H995 C990 0.931 . S
Co996 N993 2.135 . S
Co996 N999 2.121 . S
Co996 O1004 2.055 . S
Co996 O1007 2.039 . S
Co996 N1010 2.140 . S
C997 O998 1.227 . S
C997 O1007 1.265 . S
O998 C997 1.227 . S
N999 Co996 2.121 . S
N999 C1001 1.375 . S
N999 C1002 1.313 . S
C1000 C1001 1.338 . S
C1000 N1003 1.377 . S
C1000 H1020 0.930 . S
C1001 N999 1.375 . S
C1001 C1000 1.338 . S
C1001 H1005 0.931 . S
C1002 N999 1.313 . S
C1002 N1003 1.344 . S
C1002 H1006 0.930 . S
N1003 C1000 1.377 . S
N1003 C1002 1.344 . S
O1004 Co996 2.055 . S
O1004 C1008 1.253 . S
H1005 C1001 0.931 . S
H1006 C1002 0.930 . S
O1007 Co996 2.039 . S
O1007 C997 1.265 . S
C1008 O1004 1.253 . S
C1008 O1009 1.227 . S
O1009 C1008 1.227 . S
N1010 Co996 2.140 . S
N1010 C1013 1.346 . S
N1010 C1014 1.345 . S
C1011 C1012 1.387 . S
C1011 C1015 1.391 . S
C1012 C1011 1.387 . S
C1012 C1013 1.369 . S
C1012 H1021 0.929 . S
C1013 N1010 1.346 . S
C1013 C1012 1.369 . S
C1013 H1016 0.928 . S
C1014 N1010 1.345 . S
C1014 C1015 1.371 . S
C1014 H1017 0.931 . S
C1015 C1011 1.391 . S
C1015 C1014 1.371 . S
C1015 H1022 0.930 . S
H1016 C1013 0.928 . S
H1017 C1014 0.931 . S
H1018 C994 0.930 . S
H1019 C991 0.930 . S
H1020 C1000 0.930 . S
H1021 C1012 0.929 . S
H1022 C1015 0.930 . S
C1023 C1024 1.351 . S
C1023 N1026 1.368 . S
C1023 H1028 0.931 . S
C1024 C1023 1.351 . S
C1024 N1025 1.373 . S
C1024 H1052 0.930 . S
N1025 C1024 1.373 . S
N1025 C1027 1.340 . S
N1026 C1023 1.368 . S
N1026 C1027 1.321 . S
N1026 Co1029 2.135 . S
C1027 N1025 1.340 . S
C1027 N1026 1.321 . S
C1027 H1051 0.930 . S
H1028 C1023 0.931 . S
Co1029 N1026 2.135 . S
Co1029 N1032 2.121 . S
Co1029 O1037 2.055 . S
Co1029 O1040 2.039 . S
Co1029 N1043 2.140 . S
C1030 O1031 1.227 . S
C1030 O1040 1.265 . S
O1031 C1030 1.227 . S
N1032 Co1029 2.121 . S
N1032 C1034 1.375 . S
N1032 C1035 1.313 . S
C1033 C1034 1.338 . S
C1033 N1036 1.377 . S
C1033 H1053 0.930 . S
C1034 N1032 1.375 . S
C1034 C1033 1.338 . S
C1034 H1038 0.931 . S
C1035 N1032 1.313 . S
C1035 N1036 1.344 . S
C1035 H1039 0.930 . S
N1036 C1033 1.377 . S
N1036 C1035 1.344 . S
O1037 Co1029 2.055 . S
O1037 C1041 1.253 . S
H1038 C1034 0.931 . S
H1039 C1035 0.930 . S
O1040 Co1029 2.039 . S
O1040 C1030 1.265 . S
C1041 O1037 1.253 . S
C1041 O1042 1.227 . S
O1042 C1041 1.227 . S
N1043 Co1029 2.140 . S
N1043 C1046 1.346 . S
N1043 C1047 1.345 . S
C1044 C1045 1.387 . S
C1044 C1048 1.391 . S
C1045 C1044 1.387 . S
C1045 C1046 1.369 . S
C1045 H1054 0.929 . S
C1046 N1043 1.346 . S
C1046 C1045 1.369 . S
C1046 H1049 0.928 . S
C1047 N1043 1.345 . S
C1047 C1048 1.371 . S
C1047 H1050 0.931 . S
C1048 C1044 1.391 . S
C1048 C1047 1.371 . S
C1048 H1055 0.930 . S
H1049 C1046 0.928 . S
H1050 C1047 0.931 . S
H1051 C1027 0.930 . S
H1052 C1024 0.930 . S
H1053 C1033 0.930 . S
H1054 C1045 0.929 . S
H1055 C1048 0.930 . S
C1056 C1057 1.351 . S
C1056 N1059 1.368 . S
C1056 H1061 0.931 . S
C1057 C1056 1.351 . S
C1057 N1058 1.373 . S
C1057 H1085 0.930 . S
N1058 C1057 1.373 . S
N1058 C1060 1.340 . S
N1059 C1056 1.368 . S
N1059 C1060 1.321 . S
N1059 Co1062 2.135 . S
C1060 N1058 1.340 . S
C1060 N1059 1.321 . S
C1060 H1084 0.930 . S
H1061 C1056 0.931 . S
Co1062 N1059 2.135 . S
Co1062 N1065 2.121 . S
Co1062 O1070 2.055 . S
Co1062 O1073 2.039 . S
Co1062 N1076 2.140 . S
C1063 O1064 1.227 . S
C1063 O1073 1.265 . S
O1064 C1063 1.227 . S
N1065 Co1062 2.121 . S
N1065 C1067 1.375 . S
N1065 C1068 1.313 . S
C1066 C1067 1.338 . S
C1066 N1069 1.377 . S
C1066 H1086 0.930 . S
C1067 N1065 1.375 . S
C1067 C1066 1.338 . S
C1067 H1071 0.931 . S
C1068 N1065 1.313 . S
C1068 N1069 1.344 . S
C1068 H1072 0.930 . S
N1069 C1066 1.377 . S
N1069 C1068 1.344 . S
O1070 Co1062 2.055 . S
O1070 C1074 1.253 . S
H1071 C1067 0.931 . S
H1072 C1068 0.930 . S
O1073 Co1062 2.039 . S
O1073 C1063 1.265 . S
C1074 O1070 1.253 . S
C1074 O1075 1.227 . S
O1075 C1074 1.227 . S
N1076 Co1062 2.140 . S
N1076 C1079 1.346 . S
N1076 C1080 1.345 . S
C1077 C1078 1.387 . S
C1077 C1081 1.391 . S
C1078 C1077 1.387 . S
C1078 C1079 1.369 . S
C1078 H1087 0.929 . S
C1079 N1076 1.346 . S
C1079 C1078 1.369 . S
C1079 H1082 0.928 . S
C1080 N1076 1.345 . S
C1080 C1081 1.371 . S
C1080 H1083 0.931 . S
C1081 C1077 1.391 . S
C1081 C1080 1.371 . S
C1081 H1088 0.930 . S
H1082 C1079 0.928 . S
H1083 C1080 0.931 . S
H1084 C1060 0.930 . S
H1085 C1057 0.930 . S
H1086 C1066 0.930 . S
H1087 C1078 0.929 . S
H1088 C1081 0.930 . S
C1089 C1090 1.351 . S
C1089 N1092 1.368 . S
C1089 H1094 0.931 . S
C1090 C1089 1.351 . S
C1090 N1091 1.373 . S
C1090 H1118 0.930 . S
N1091 C1090 1.373 . S
N1091 C1093 1.340 . S
N1092 C1089 1.368 . S
N1092 C1093 1.321 . S
N1092 Co1095 2.135 . S
C1093 N1091 1.340 . S
C1093 N1092 1.321 . S
C1093 H1117 0.930 . S
H1094 C1089 0.931 . S
Co1095 N1092 2.135 . S
Co1095 N1098 2.121 . S
Co1095 O1103 2.055 . S
Co1095 O1106 2.039 . S
Co1095 N1109 2.140 . S
C1096 O1097 1.227 . S
C1096 O1106 1.265 . S
O1097 C1096 1.227 . S
N1098 Co1095 2.121 . S
N1098 C1100 1.375 . S
N1098 C1101 1.313 . S
C1099 C1100 1.338 . S
C1099 N1102 1.377 . S
C1099 H1119 0.930 . S
C1100 N1098 1.375 . S
C1100 C1099 1.338 . S
C1100 H1104 0.931 . S
C1101 N1098 1.313 . S
C1101 N1102 1.344 . S
C1101 H1105 0.930 . S
N1102 C1099 1.377 . S
N1102 C1101 1.344 . S
O1103 Co1095 2.055 . S
O1103 C1107 1.253 . S
H1104 C1100 0.931 . S
H1105 C1101 0.930 . S
O1106 Co1095 2.039 . S
O1106 C1096 1.265 . S
C1107 O1103 1.253 . S
C1107 O1108 1.227 . S
O1108 C1107 1.227 . S
N1109 Co1095 2.140 . S
N1109 C1112 1.346 . S
N1109 C1113 1.345 . S
C1110 C1111 1.387 . S
C1110 C1114 1.391 . S
C1111 C1110 1.387 . S
C1111 C1112 1.369 . S
C1111 H1120 0.929 . S
C1112 N1109 1.346 . S
C1112 C1111 1.369 . S
C1112 H1115 0.928 . S
C1113 N1109 1.345 . S
C1113 C1114 1.371 . S
C1113 H1116 0.931 . S
C1114 C1110 1.391 . S
C1114 C1113 1.371 . S
C1114 H1121 0.930 . S
H1115 C1112 0.928 . S
H1116 C1113 0.931 . S
H1117 C1093 0.930 . S
H1118 C1090 0.930 . S
H1119 C1099 0.930 . S
H1120 C1111 0.929 . S
H1121 C1114 0.930 . S
C1122 C1123 1.351 . S
C1122 N1125 1.368 . S
C1122 H1127 0.931 . S
C1123 C1122 1.351 . S
C1123 N1124 1.373 . S
C1123 H1151 0.930 . S
N1124 C1123 1.373 . S
N1124 C1126 1.340 . S
N1125 C1122 1.368 . S
N1125 C1126 1.321 . S
N1125 Co1128 2.135 . S
C1126 N1124 1.340 . S
C1126 N1125 1.321 . S
C1126 H1150 0.930 . S
H1127 C1122 0.931 . S
Co1128 N1125 2.135 . S
Co1128 N1131 2.121 . S
Co1128 O1136 2.055 . S
Co1128 O1139 2.039 . S
Co1128 N1142 2.140 . S
C1129 O1130 1.227 . S
C1129 O1139 1.265 . S
O1130 C1129 1.227 . S
N1131 Co1128 2.121 . S
N1131 C1133 1.375 . S
N1131 C1134 1.313 . S
C1132 C1133 1.338 . S
C1132 N1135 1.377 . S
C1132 H1152 0.930 . S
C1133 N1131 1.375 . S
C1133 C1132 1.338 . S
C1133 H1137 0.931 . S
C1134 N1131 1.313 . S
C1134 N1135 1.344 . S
C1134 H1138 0.930 . S
N1135 C1132 1.377 . S
N1135 C1134 1.344 . S
O1136 Co1128 2.055 . S
O1136 C1140 1.253 . S
H1137 C1133 0.931 . S
H1138 C1134 0.930 . S
O1139 Co1128 2.039 . S
O1139 C1129 1.265 . S
C1140 O1136 1.253 . S
C1140 O1141 1.227 . S
O1141 C1140 1.227 . S
N1142 Co1128 2.140 . S
N1142 C1145 1.346 . S
N1142 C1146 1.345 . S
C1143 C1144 1.387 . S
C1143 C1147 1.391 . S
C1144 C1143 1.387 . S
C1144 C1145 1.369 . S
C1144 H1153 0.929 . S
C1145 N1142 1.346 . S
C1145 C1144 1.369 . S
C1145 H1148 0.928 . S
C1146 N1142 1.345 . S
C1146 C1147 1.371 . S
C1146 H1149 0.931 . S
C1147 C1143 1.391 . S
C1147 C1146 1.371 . S
C1147 H1154 0.930 . S
H1148 C1145 0.928 . S
H1149 C1146 0.931 . S
H1150 C1126 0.930 . S
H1151 C1123 0.930 . S
H1152 C1132 0.930 . S
H1153 C1144 0.929 . S
H1154 C1147 0.930 . S
C1155 C1156 1.351 . S
C1155 N1158 1.368 . S
C1155 H1160 0.931 . S
C1156 C1155 1.351 . S
C1156 N1157 1.373 . S
C1156 H1184 0.930 . S
N1157 C1156 1.373 . S
N1157 C1159 1.340 . S
N1158 C1155 1.368 . S
N1158 C1159 1.321 . S
N1158 Co1161 2.135 . S
C1159 N1157 1.340 . S
C1159 N1158 1.321 . S
C1159 H1183 0.930 . S
H1160 C1155 0.931 . S
Co1161 N1158 2.135 . S
Co1161 N1164 2.121 . S
Co1161 O1169 2.055 . S
Co1161 O1172 2.039 . S
Co1161 N1175 2.140 . S
C1162 O1163 1.227 . S
C1162 O1172 1.265 . S
O1163 C1162 1.227 . S
N1164 Co1161 2.121 . S
N1164 C1166 1.375 . S
N1164 C1167 1.313 . S
C1165 C1166 1.338 . S
C1165 N1168 1.377 . S
C1165 H1185 0.930 . S
C1166 N1164 1.375 . S
C1166 C1165 1.338 . S
C1166 H1170 0.931 . S
C1167 N1164 1.313 . S
C1167 N1168 1.344 . S
C1167 H1171 0.930 . S
N1168 C1165 1.377 . S
N1168 C1167 1.344 . S
O1169 Co1161 2.055 . S
O1169 C1173 1.253 . S
H1170 C1166 0.931 . S
H1171 C1167 0.930 . S
O1172 Co1161 2.039 . S
O1172 C1162 1.265 . S
C1173 O1169 1.253 . S
C1173 O1174 1.227 . S
O1174 C1173 1.227 . S
N1175 Co1161 2.140 . S
N1175 C1178 1.346 . S
N1175 C1179 1.345 . S
C1176 C1177 1.387 . S
C1176 C1180 1.391 . S
C1177 C1176 1.387 . S
C1177 C1178 1.369 . S
C1177 H1186 0.929 . S
C1178 N1175 1.346 . S
C1178 C1177 1.369 . S
C1178 H1181 0.928 . S
C1179 N1175 1.345 . S
C1179 C1180 1.371 . S
C1179 H1182 0.931 . S
C1180 C1176 1.391 . S
C1180 C1179 1.371 . S
C1180 H1187 0.930 . S
H1181 C1178 0.928 . S
H1182 C1179 0.931 . S
H1183 C1159 0.930 . S
H1184 C1156 0.930 . S
H1185 C1165 0.930 . S
H1186 C1177 0.929 . S
H1187 C1180 0.930 . S
C1188 C1189 1.369 . S
C1188 C1190 1.419 . S
C1188 H1192 0.930 . S
C1189 C1188 1.369 . S
C1189 C1198 1.429 . S
C1190 C1188 1.419 . S
C1190 C1191 1.363 . S
C1190 H1193 0.929 . S
C1191 C1190 1.363 . S
C1191 C1197 1.428 . S
H1192 C1188 0.930 . S
H1193 C1190 0.929 . S
S1194 N1195 1.613 . S
S1194 N1196 1.610 . S
N1195 S1194 1.613 . S
N1195 C1198 1.350 . S
N1196 S1194 1.610 . S
N1196 C1197 1.351 . S
C1197 C1191 1.428 . S
C1197 N1196 1.351 . S
C1197 C1198 1.434 . S
C1198 C1189 1.429 . S
C1198 N1195 1.350 . S
C1198 C1197 1.434 . S
C1199 C1200 1.369 1_545 S
C1199 C1201 1.419 . S
C1199 H1203 0.930 . S
C1200 C1199 1.369 1_565 S
C1200 C1209 1.429 . S
C1201 C1199 1.419 . S
C1201 C1202 1.363 . S
C1201 H1204 0.929 . S
C1202 C1201 1.363 . S
C1202 C1208 1.428 1_545 S
H1203 C1199 0.930 . S
H1204 C1201 0.929 . S
S1205 N1206 1.613 . S
S1205 N1207 1.610 . S
N1206 S1205 1.613 . S
N1206 C1209 1.350 . S
N1207 S1205 1.610 . S
N1207 C1208 1.351 . S
C1208 C1202 1.428 1_565 S
C1208 N1207 1.351 . S
C1208 C1209 1.434 . S
C1209 C1200 1.429 . S
C1209 N1206 1.350 . S
C1209 C1208 1.434 . S
C1210 C1211 1.369 1_455 S
C1210 C1212 1.419 . S
C1210 H1214 0.930 . S
C1211 C1210 1.369 1_655 S
C1211 C1220 1.429 . S
C1212 C1210 1.419 . S
C1212 C1213 1.363 . S
C1212 H1215 0.929 . S
C1213 C1212 1.363 . S
C1213 C1219 1.428 1_455 S
H1214 C1210 0.930 . S
H1215 C1212 0.929 . S
S1216 N1217 1.613 . S
S1216 N1218 1.610 . S
N1217 S1216 1.613 . S
N1217 C1220 1.350 . S
N1218 S1216 1.610 . S
N1218 C1219 1.351 . S
C1219 C1213 1.428 1_655 S
C1219 N1218 1.351 . S
C1219 C1220 1.434 . S
C1220 C1211 1.429 . S
C1220 N1217 1.350 . S
C1220 C1219 1.434 . S
C1221 C1222 1.369 . S
C1221 C1223 1.419 . S
C1221 H1225 0.930 . S
C1222 C1221 1.369 . S
C1222 C1231 1.429 . S
C1223 C1221 1.419 . S
C1223 C1224 1.363 . S
C1223 H1226 0.929 . S
C1224 C1223 1.363 . S
C1224 C1230 1.428 . S
H1225 C1221 0.930 . S
H1226 C1223 0.929 . S
S1227 N1228 1.613 . S
S1227 N1229 1.610 . S
N1228 S1227 1.613 . S
N1228 C1231 1.350 . S
N1229 S1227 1.610 . S
N1229 C1230 1.351 . S
C1230 C1224 1.428 . S
C1230 N1229 1.351 . S
C1230 C1231 1.434 . S
C1231 C1222 1.429 . S
C1231 N1228 1.350 . S
C1231 C1230 1.434 . S
C1232 C1233 1.369 . S
C1232 C1234 1.419 . S
C1232 H1236 0.930 . S
C1233 C1232 1.369 . S
C1233 C1242 1.429 1_545 S
C1234 C1232 1.419 . S
C1234 C1235 1.363 1_545 S
C1234 H1237 0.929 . S
C1235 C1234 1.363 1_565 S
C1235 C1241 1.428 . S
H1236 C1232 0.930 . S
H1237 C1234 0.929 . S
S1238 N1239 1.613 . S
S1238 N1240 1.610 . S
N1239 S1238 1.613 . S
N1239 C1242 1.350 . S
N1240 S1238 1.610 . S
N1240 C1241 1.351 . S
C1241 C1235 1.428 . S
C1241 N1240 1.351 . S
C1241 C1242 1.434 . S
C1242 C1233 1.429 1_565 S
C1242 N1239 1.350 . S
C1242 C1241 1.434 . S
C1243 C1244 1.369 1_655 S
C1243 C1245 1.419 . S
C1243 H1247 0.930 . S
C1244 C1243 1.369 1_455 S
C1244 C1253 1.429 . S
C1245 C1243 1.419 . S
C1245 C1246 1.363 . S
C1245 H1248 0.929 . S
C1246 C1245 1.363 . S
C1246 C1252 1.428 1_655 S
H1247 C1243 0.930 . S
H1248 C1245 0.929 . S
S1249 N1250 1.613 . S
S1249 N1251 1.610 . S
N1250 S1249 1.613 . S
N1250 C1253 1.350 . S
N1251 S1249 1.610 . S
N1251 C1252 1.351 . S
C1252 C1246 1.428 1_455 S
C1252 N1251 1.351 . S
C1252 C1253 1.434 . S
C1253 C1244 1.429 . S
C1253 N1250 1.350 . S
C1253 C1252 1.434 . S
C1254 C1255 1.369 . S
C1254 C1256 1.419 . S
C1254 H1258 0.930 . S
C1255 C1254 1.369 . S
C1255 C1264 1.429 . S
C1256 C1254 1.419 . S
C1256 C1257 1.363 . S
C1256 H1259 0.929 . S
C1257 C1256 1.363 . S
C1257 C1263 1.428 . S
H1258 C1254 0.930 . S
H1259 C1256 0.929 . S
S1260 N1261 1.613 . S
S1260 N1262 1.610 . S
N1261 S1260 1.613 . S
N1261 C1264 1.350 . S
N1262 S1260 1.610 . S
N1262 C1263 1.351 . S
C1263 C1257 1.428 . S
C1263 N1262 1.351 . S
C1263 C1264 1.434 . S
C1264 C1255 1.429 . S
C1264 N1261 1.350 . S
C1264 C1263 1.434 . S
C1265 C1266 1.369 . S
C1265 C1267 1.419 . S
C1265 H1269 0.930 . S
C1266 C1265 1.369 . S
C1266 C1275 1.429 . S
C1267 C1265 1.419 . S
C1267 C1268 1.363 . S
C1267 H1270 0.929 . S
C1268 C1267 1.363 . S
C1268 C1274 1.428 . S
H1269 C1265 0.930 . S
H1270 C1267 0.929 . S
S1271 N1272 1.613 . S
S1271 N1273 1.610 . S
N1272 S1271 1.613 . S
N1272 C1275 1.350 . S
N1273 S1271 1.610 . S
N1273 C1274 1.351 . S
C1274 C1268 1.428 . S
C1274 N1273 1.351 . S
C1274 C1275 1.434 . S
C1275 C1266 1.429 . S
C1275 N1272 1.350 . S
C1275 C1274 1.434 . S
C1276 C1277 1.369 . S
C1276 C1278 1.419 . S
C1276 H1280 0.930 . S
C1277 C1276 1.369 . S
C1277 C1286 1.429 . S
C1278 C1276 1.419 . S
C1278 C1279 1.363 . S
C1278 H1281 0.929 . S
C1279 C1278 1.363 . S
C1279 C1285 1.428 . S
H1280 C1276 0.930 . S
H1281 C1278 0.929 . S
S1282 N1283 1.613 . S
S1282 N1284 1.610 . S
N1283 S1282 1.613 . S
N1283 C1286 1.350 . S
N1284 S1282 1.610 . S
N1284 C1285 1.351 . S
C1285 C1279 1.428 . S
C1285 N1284 1.351 . S
C1285 C1286 1.434 . S
C1286 C1277 1.429 . S
C1286 N1283 1.350 . S
C1286 C1285 1.434 . S
C1287 C1288 1.369 . S
C1287 C1289 1.419 . S
C1287 H1291 0.930 . S
C1288 C1287 1.369 . S
C1288 C1297 1.429 . S
C1289 C1287 1.419 . S
C1289 C1290 1.363 . S
C1289 H1292 0.929 . S
C1290 C1289 1.363 . S
C1290 C1296 1.428 . S
H1291 C1287 0.930 . S
H1292 C1289 0.929 . S
S1293 N1294 1.613 . S
S1293 N1295 1.610 . S
N1294 S1293 1.613 . S
N1294 C1297 1.350 . S
N1295 S1293 1.610 . S
N1295 C1296 1.351 . S
C1296 C1290 1.428 . S
C1296 N1295 1.351 . S
C1296 C1297 1.434 . S
C1297 C1288 1.429 . S
C1297 N1294 1.350 . S
C1297 C1296 1.434 . S
C1298 C1299 1.369 . S
C1298 C1300 1.419 . S
C1298 H1302 0.930 . S
C1299 C1298 1.369 . S
C1299 C1308 1.429 . S
C1300 C1298 1.419 . S
C1300 C1301 1.363 . S
C1300 H1303 0.929 . S
C1301 C1300 1.363 . S
C1301 C1307 1.428 . S
H1302 C1298 0.930 . S
H1303 C1300 0.929 . S
S1304 N1305 1.613 . S
S1304 N1306 1.610 . S
N1305 S1304 1.613 . S
N1305 C1308 1.350 . S
N1306 S1304 1.610 . S
N1306 C1307 1.351 . S
C1307 C1301 1.428 . S
C1307 N1306 1.351 . S
C1307 C1308 1.434 . S
C1308 C1299 1.429 . S
C1308 N1305 1.350 . S
C1308 C1307 1.434 . S
C1309 C1310 1.369 . S
C1309 C1311 1.419 . S
C1309 H1313 0.930 . S
C1310 C1309 1.369 . S
C1310 C1319 1.429 . S
C1311 C1309 1.419 . S
C1311 C1312 1.363 . S
C1311 H1314 0.929 . S
C1312 C1311 1.363 . S
C1312 C1318 1.428 . S
H1313 C1309 0.930 . S
H1314 C1311 0.929 . S
S1315 N1316 1.613 . S
S1315 N1317 1.610 . S
N1316 S1315 1.613 . S
N1316 C1319 1.350 . S
N1317 S1315 1.610 . S
N1317 C1318 1.351 . S
C1318 C1312 1.428 . S
C1318 N1317 1.351 . S
C1318 C1319 1.434 . S
C1319 C1310 1.429 . S
C1319 N1316 1.350 . S
C1319 C1318 1.434 . S
C1320 C1321 1.369 . S
C1320 C1322 1.419 . S
C1320 H1324 0.930 . S
C1321 C1320 1.369 . S
C1321 C1330 1.429 . S
C1322 C1320 1.419 . S
C1322 C1323 1.363 . S
C1322 H1325 0.929 . S
C1323 C1322 1.363 . S
C1323 C1329 1.428 . S
H1324 C1320 0.930 . S
H1325 C1322 0.929 . S
S1326 N1327 1.613 . S
S1326 N1328 1.610 . S
N1327 S1326 1.613 . S
N1327 C1330 1.350 . S
N1328 S1326 1.610 . S
N1328 C1329 1.351 . S
C1329 C1323 1.428 . S
C1329 N1328 1.351 . S
C1329 C1330 1.434 . S
C1330 C1321 1.429 . S
C1330 N1327 1.350 . S
C1330 C1329 1.434 . S
C1331 C1332 1.369 . S
C1331 C1333 1.419 . S
C1331 H1335 0.930 . S
C1332 C1331 1.369 . S
C1332 C1341 1.429 . S
C1333 C1331 1.419 . S
C1333 C1334 1.363 . S
C1333 H1336 0.929 . S
C1334 C1333 1.363 . S
C1334 C1340 1.428 . S
H1335 C1331 0.930 . S
H1336 C1333 0.929 . S
S1337 N1338 1.613 . S
S1337 N1339 1.610 . S
N1338 S1337 1.613 . S
N1338 C1341 1.350 . S
N1339 S1337 1.610 . S
N1339 C1340 1.351 . S
C1340 C1334 1.428 . S
C1340 N1339 1.351 . S
C1340 C1341 1.434 . S
C1341 C1332 1.429 . S
C1341 N1338 1.350 . S
C1341 C1340 1.434 . S
C1342 C1343 1.369 . S
C1342 C1344 1.419 . S
C1342 H1346 0.930 . S
C1343 C1342 1.369 . S
C1343 C1352 1.429 . S
C1344 C1342 1.419 . S
C1344 C1345 1.363 . S
C1344 H1347 0.929 . S
C1345 C1344 1.363 . S
C1345 C1351 1.428 . S
H1346 C1342 0.930 . S
H1347 C1344 0.929 . S
S1348 N1349 1.613 . S
S1348 N1350 1.610 . S
N1349 S1348 1.613 . S
N1349 C1352 1.350 . S
N1350 S1348 1.610 . S
N1350 C1351 1.351 . S
C1351 C1345 1.428 . S
C1351 N1350 1.351 . S
C1351 C1352 1.434 . S
C1352 C1343 1.429 . S
C1352 N1349 1.350 . S
C1352 C1351 1.434 . S
C1353 C1354 1.369 . S
C1353 C1355 1.419 . S
C1353 H1357 0.930 . S
C1354 C1353 1.369 . S
C1354 C1363 1.429 . S
C1355 C1353 1.419 . S
C1355 C1356 1.363 . S
C1355 H1358 0.929 . S
C1356 C1355 1.363 . S
C1356 C1362 1.428 . S
H1357 C1353 0.930 . S
H1358 C1355 0.929 . S
S1359 N1360 1.613 . S
S1359 N1361 1.610 . S
N1360 S1359 1.613 . S
N1360 C1363 1.350 . S
N1361 S1359 1.610 . S
N1361 C1362 1.351 . S
C1362 C1356 1.428 . S
C1362 N1361 1.351 . S
C1362 C1363 1.434 . S
C1363 C1354 1.429 . S
C1363 N1360 1.350 . S
C1363 C1362 1.434 . S
C1364 C1365 1.369 . S
C1364 C1366 1.419 . S
C1364 H1368 0.930 . S
C1365 C1364 1.369 . S
C1365 C1374 1.429 . S
C1366 C1364 1.419 . S
C1366 C1367 1.363 . S
C1366 H1369 0.929 . S
C1367 C1366 1.363 . S
C1367 C1373 1.428 . S
H1368 C1364 0.930 . S
H1369 C1366 0.929 . S
S1370 N1371 1.613 . S
S1370 N1372 1.610 . S
N1371 S1370 1.613 . S
N1371 C1374 1.350 . S
N1372 S1370 1.610 . S
N1372 C1373 1.351 . S
C1373 C1367 1.428 . S
C1373 N1372 1.351 . S
C1373 C1374 1.434 . S
C1374 C1365 1.429 . S
C1374 N1371 1.350 . S
C1374 C1373 1.434 . S
C1375 C1376 1.369 . S
C1375 C1377 1.419 . S
C1375 H1379 0.930 . S
C1376 C1375 1.369 . S
C1376 C1385 1.429 . S
C1377 C1375 1.419 . S
C1377 C1378 1.363 . S
C1377 H1380 0.929 . S
C1378 C1377 1.363 . S
C1378 C1384 1.428 . S
H1379 C1375 0.930 . S
H1380 C1377 0.929 . S
S1381 N1382 1.613 . S
S1381 N1383 1.610 . S
N1382 S1381 1.613 . S
N1382 C1385 1.350 . S
N1383 S1381 1.610 . S
N1383 C1384 1.351 . S
C1384 C1378 1.428 . S
C1384 N1383 1.351 . S
C1384 C1385 1.434 . S
C1385 C1376 1.429 . S
C1385 N1382 1.350 . S
C1385 C1384 1.434 . S
C1386 C1387 1.369 . S
C1386 C1388 1.419 . S
C1386 H1390 0.930 . S
C1387 C1386 1.369 . S
C1387 C1396 1.429 . S
C1388 C1386 1.419 . S
C1388 C1389 1.363 . S
C1388 H1391 0.929 . S
C1389 C1388 1.363 . S
C1389 C1395 1.428 . S
H1390 C1386 0.930 . S
H1391 C1388 0.929 . S
S1392 N1393 1.613 . S
S1392 N1394 1.610 . S
N1393 S1392 1.613 . S
N1393 C1396 1.350 . S
N1394 S1392 1.610 . S
N1394 C1395 1.351 . S
C1395 C1389 1.428 . S
C1395 N1394 1.351 . S
C1395 C1396 1.434 . S
C1396 C1387 1.429 . S
C1396 N1393 1.350 . S
C1396 C1395 1.434 . S
C1397 C1398 1.369 . S
C1397 C1399 1.419 . S
C1397 H1401 0.930 . S
C1398 C1397 1.369 . S
C1398 C1407 1.429 . S
C1399 C1397 1.419 . S
C1399 C1400 1.363 . S
C1399 H1402 0.929 1_565 S
C1400 C1399 1.363 . S
C1400 C1406 1.428 . S
H1401 C1397 0.930 . S
H1402 C1399 0.929 1_545 S
S1403 N1404 1.613 . S
S1403 N1405 1.610 . S
N1404 S1403 1.613 . S
N1404 C1407 1.350 . S
N1405 S1403 1.610 . S
N1405 C1406 1.351 . S
C1406 C1400 1.428 . S
C1406 N1405 1.351 . S
C1406 C1407 1.434 . S
C1407 C1398 1.429 . S
C1407 N1404 1.350 . S
C1407 C1406 1.434 . S
C1408 C1409 1.369 . S
C1408 C1410 1.419 . S
C1408 H1412 0.930 . S
C1409 C1408 1.369 . S
C1409 C1418 1.429 . S
C1410 C1408 1.419 . S
C1410 C1411 1.363 . S
C1410 H1413 0.929 . S
C1411 C1410 1.363 . S
C1411 C1417 1.428 . S
H1412 C1408 0.930 . S
H1413 C1410 0.929 . S
S1414 N1415 1.613 . S
S1414 N1416 1.610 1_655 S
N1415 S1414 1.613 . S
N1415 C1418 1.350 1_655 S
N1416 S1414 1.610 1_455 S
N1416 C1417 1.351 . S
C1417 C1411 1.428 . S
C1417 N1416 1.351 . S
C1417 C1418 1.434 . S
C1418 C1409 1.429 . S
C1418 N1415 1.350 1_455 S
C1418 C1417 1.434 . S
C1419 C1420 1.369 . S
C1419 C1421 1.419 . S
C1419 H1423 0.930 . S
C1420 C1419 1.369 . S
C1420 C1429 1.429 . S
C1421 C1419 1.419 . S
C1421 C1422 1.363 . S
C1421 H1424 0.929 . S
C1422 C1421 1.363 . S
C1422 C1428 1.428 . S
H1423 C1419 0.930 . S
H1424 C1421 0.929 . S
S1425 N1426 1.613 . S
S1425 N1427 1.610 . S
N1426 S1425 1.613 . S
N1426 C1429 1.350 . S
N1427 S1425 1.610 . S
N1427 C1428 1.351 . S
C1428 C1422 1.428 . S
C1428 N1427 1.351 . S
C1428 C1429 1.434 . S
C1429 C1420 1.429 . S
C1429 N1426 1.350 . S
C1429 C1428 1.434 . S
C1430 C1431 1.369 . S
C1430 C1432 1.419 . S
C1430 H1434 0.930 1_545 S
C1431 C1430 1.369 . S
C1431 C1440 1.429 . S
C1432 C1430 1.419 . S
C1432 C1433 1.363 . S
C1432 H1435 0.929 . S
C1433 C1432 1.363 . S
C1433 C1439 1.428 . S
H1434 C1430 0.930 1_565 S
H1435 C1432 0.929 . S
S1436 N1437 1.613 . S
S1436 N1438 1.610 . S
N1437 S1436 1.613 . S
N1437 C1440 1.350 . S
N1438 S1436 1.610 . S
N1438 C1439 1.351 . S
C1439 C1433 1.428 . S
C1439 N1438 1.351 . S
C1439 C1440 1.434 . S
C1440 C1431 1.429 . S
C1440 N1437 1.350 . S
C1440 C1439 1.434 . S
C1441 C1442 1.369 . S
C1441 C1443 1.419 . S
C1441 H1445 0.930 . S
C1442 C1441 1.369 . S
C1442 C1451 1.429 . S
C1443 C1441 1.419 . S
C1443 C1444 1.363 . S
C1443 H1446 0.929 . S
C1444 C1443 1.363 . S
C1444 C1450 1.428 . S
H1445 C1441 0.930 . S
H1446 C1443 0.929 . S
S1447 N1448 1.613 1_455 S
S1447 N1449 1.610 . S
N1448 S1447 1.613 1_655 S
N1448 C1451 1.350 . S
N1449 S1447 1.610 . S
N1449 C1450 1.351 1_455 S
C1450 C1444 1.428 . S
C1450 N1449 1.351 1_655 S
C1450 C1451 1.434 . S
C1451 C1442 1.429 . S
C1451 N1448 1.350 . S
C1451 C1450 1.434 . S
C1452 C1453 1.369 . S
C1452 C1454 1.419 . S
C1452 H1456 0.930 . S
C1453 C1452 1.369 . S
C1453 C1462 1.429 . S
C1454 C1452 1.419 . S
C1454 C1455 1.363 . S
C1454 H1457 0.929 . S
C1455 C1454 1.363 . S
C1455 C1461 1.428 . S
H1456 C1452 0.930 . S
H1457 C1454 0.929 . S
S1458 N1459 1.613 . S
S1458 N1460 1.610 . S
N1459 S1458 1.613 . S
N1459 C1462 1.350 . S
N1460 S1458 1.610 . S
N1460 C1461 1.351 . S
C1461 C1455 1.428 . S
C1461 N1460 1.351 . S
C1461 C1462 1.434 . S
C1462 C1453 1.429 . S
C1462 N1459 1.350 . S
C1462 C1461 1.434 . S
C1463 C1464 1.369 . S
C1463 C1465 1.419 . S
C1463 H1467 0.930 . S
C1464 C1463 1.369 . S
C1464 C1473 1.429 . S
C1465 C1463 1.419 . S
C1465 C1466 1.363 . S
C1465 H1468 0.929 1_545 S
C1466 C1465 1.363 . S
C1466 C1472 1.428 . S
H1467 C1463 0.930 . S
H1468 C1465 0.929 1_565 S
S1469 N1470 1.633 . S
S1469 N1471 1.621 . S
N1470 S1469 1.633 . S
N1470 C1473 1.350 . S
N1471 S1469 1.621 . S
N1471 C1472 1.351 . S
C1472 C1466 1.428 . S
C1472 N1471 1.351 . S
C1472 C1473 1.434 . S
C1473 C1464 1.429 . S
C1473 N1470 1.350 . S
C1473 C1472 1.434 . S
C1474 C1475 1.369 . S
C1474 C1476 1.419 . S
C1474 H1478 0.930 . S
C1475 C1474 1.369 . S
C1475 C1484 1.429 . S
C1476 C1474 1.419 . S
C1476 C1477 1.363 . S
C1476 H1479 0.929 . S
C1477 C1476 1.363 . S
C1477 C1483 1.428 . S
H1478 C1474 0.930 . S
H1479 C1476 0.929 . S
S1480 N1481 1.613 1_554 S
S1480 N1482 1.610 1_554 S
N1481 S1480 1.613 1_556 S
N1481 C1484 1.350 . S
N1482 S1480 1.610 1_556 S
N1482 C1483 1.351 . S
C1483 C1477 1.428 . S
C1483 N1482 1.351 . S
C1483 C1484 1.434 . S
C1484 C1475 1.429 . S
C1484 N1481 1.350 . S
C1484 C1483 1.434 . S
C1485 C1486 1.369 . S
C1485 C1487 1.419 . S
C1485 H1489 0.930 . S
C1486 C1485 1.369 . S
C1486 C1495 1.429 . S
C1487 C1485 1.419 . S
C1487 C1488 1.363 . S
C1487 H1490 0.929 . S
C1488 C1487 1.363 . S
C1488 C1494 1.428 . S
H1489 C1485 0.930 . S
H1490 C1487 0.929 . S
S1491 N1492 1.613 . S
S1491 N1493 1.610 . S
N1492 S1491 1.613 . S
N1492 C1495 1.350 . S
N1493 S1491 1.610 . S
N1493 C1494 1.351 . S
C1494 C1488 1.428 . S
C1494 N1493 1.351 . S
C1494 C1495 1.434 . S
C1495 C1486 1.429 . S
C1495 N1492 1.350 . S
C1495 C1494 1.434 . S
C1496 C1497 1.369 . S
C1496 C1498 1.419 . S
C1496 H1500 0.930 . S
C1497 C1496 1.369 . S
C1497 C1506 1.429 . S
C1498 C1496 1.419 . S
C1498 C1499 1.363 . S
C1498 H1501 0.929 . S
C1499 C1498 1.363 . S
C1499 C1505 1.428 . S
H1500 C1496 0.930 . S
H1501 C1498 0.929 . S
S1502 N1503 1.613 . S
S1502 N1504 1.610 . S
N1503 S1502 1.613 . S
N1503 C1506 1.350 . S
N1504 S1502 1.610 . S
N1504 C1505 1.351 . S
C1505 C1499 1.428 . S
C1505 N1504 1.351 . S
C1505 C1506 1.434 . S
C1506 C1497 1.429 . S
C1506 N1503 1.350 . S
C1506 C1505 1.434 . S
C1507 C1508 1.369 . S
C1507 C1509 1.419 . S
C1507 H1511 0.930 . S
C1508 C1507 1.369 . S
C1508 C1517 1.429 . S
C1509 C1507 1.419 . S
C1509 C1510 1.363 . S
C1509 H1512 0.929 . S
C1510 C1509 1.363 . S
C1510 C1516 1.428 . S
H1511 C1507 0.930 . S
H1512 C1509 0.929 . S
S1513 N1514 1.613 . S
S1513 N1515 1.610 . S
N1514 S1513 1.613 . S
N1514 C1517 1.350 . S
N1515 S1513 1.610 . S
N1515 C1516 1.351 . S
C1516 C1510 1.428 . S
C1516 N1515 1.351 . S
C1516 C1517 1.434 . S
C1517 C1508 1.429 . S
C1517 N1514 1.350 . S
C1517 C1516 1.434 . S
C1518 C1519 1.369 . S
C1518 C1520 1.419 1_455 S
C1518 H1522 0.930 . S
C1519 C1518 1.369 . S
C1519 C1528 1.429 . S
C1520 C1518 1.419 1_655 S
C1520 C1521 1.363 . S
C1520 H1523 0.929 . S
C1521 C1520 1.363 . S
C1521 C1527 1.428 . S
H1522 C1518 0.930 . S
H1523 C1520 0.929 . S
S1524 N1525 1.613 1_655 S
S1524 N1526 1.610 . S
N1525 S1524 1.613 1_455 S
N1525 C1528 1.350 . S
N1526 S1524 1.610 . S
N1526 C1527 1.351 . S
C1527 C1521 1.428 . S
C1527 N1526 1.351 . S
C1527 C1528 1.434 1_655 S
C1528 C1519 1.429 . S
C1528 N1525 1.350 . S
C1528 C1527 1.434 1_455 S
C1529 C1530 1.369 . S
C1529 C1531 1.419 . S
C1529 H1533 0.930 . S
C1530 C1529 1.369 . S
C1530 C1539 1.429 . S
C1531 C1529 1.419 . S
C1531 C1532 1.363 . S
C1531 H1534 0.929 . S
C1532 C1531 1.363 . S
C1532 C1538 1.428 . S
H1533 C1529 0.930 . S
H1534 C1531 0.929 . S
S1535 N1536 1.613 . S
S1535 N1537 1.610 . S
N1536 S1535 1.613 . S
N1536 C1539 1.350 . S
N1537 S1535 1.610 . S
N1537 C1538 1.351 . S
C1538 C1532 1.428 . S
C1538 N1537 1.351 . S
C1538 C1539 1.434 . S
C1539 C1530 1.429 . S
C1539 N1536 1.350 . S
C1539 C1538 1.434 . S
C1540 C1541 1.369 . S
C1540 C1542 1.419 1_565 S
C1540 H1544 0.930 . S
C1541 C1540 1.369 . S
C1541 C1550 1.429 . S
C1542 C1540 1.419 1_545 S
C1542 C1543 1.363 . S
C1542 H1545 0.929 . S
C1543 C1542 1.363 . S
C1543 C1549 1.428 . S
H1544 C1540 0.930 . S
H1545 C1542 0.929 . S
S1546 N1547 1.613 1_545 S
S1546 N1548 1.610 . S
N1547 S1546 1.613 1_565 S
N1547 C1550 1.350 . S
N1548 S1546 1.610 . S
N1548 C1549 1.351 . S
C1549 C1543 1.428 . S
C1549 N1548 1.351 . S
C1549 C1550 1.434 1_545 S
C1550 C1541 1.429 . S
C1550 N1547 1.350 . S
C1550 C1549 1.434 1_565 S
C1551 C1552 1.369 . S
C1551 C1553 1.419 1_545 S
C1551 H1555 0.930 . S
C1552 C1551 1.369 . S
C1552 C1561 1.429 . S
C1553 C1551 1.419 1_565 S
C1553 C1554 1.363 . S
C1553 H1556 0.929 . S
C1554 C1553 1.363 . S
C1554 C1560 1.428 . S
H1555 C1551 0.930 . S
H1556 C1553 0.929 . S
S1557 N1558 1.613 . S
S1557 N1559 1.610 1_545 S
N1558 S1557 1.613 . S
N1558 C1561 1.350 . S
N1559 S1557 1.610 1_565 S
N1559 C1560 1.351 . S
C1560 C1554 1.428 . S
C1560 N1559 1.351 . S
C1560 C1561 1.434 1_565 S
C1561 C1552 1.429 . S
C1561 N1558 1.350 . S
C1561 C1560 1.434 1_545 S
C1562 C1563 1.369 . S
C1562 C1564 1.419 1_655 S
C1562 H1566 0.930 . S
C1563 C1562 1.369 . S
C1563 C1572 1.429 . S
C1564 C1562 1.419 1_455 S
C1564 C1565 1.363 . S
C1564 H1567 0.929 . S
C1565 C1564 1.363 . S
C1565 C1571 1.428 . S
H1566 C1562 0.930 . S
H1567 C1564 0.929 . S
S1568 N1569 1.613 . S
S1568 N1570 1.610 1_655 S
N1569 S1568 1.613 . S
N1569 C1572 1.350 . S
N1570 S1568 1.610 1_455 S
N1570 C1571 1.351 . S
C1571 C1565 1.428 . S
C1571 N1570 1.351 . S
C1571 C1572 1.434 1_455 S
C1572 C1563 1.429 . S
C1572 N1569 1.350 . S
C1572 C1571 1.434 1_655 S
C1573 C1574 1.369 . S
C1573 C1575 1.419 . S
C1573 H1577 0.930 . S
C1574 C1573 1.369 . S
C1574 C1583 1.429 . S
C1575 C1573 1.419 . S
C1575 C1576 1.363 . S
C1575 H1578 0.929 . S
C1576 C1575 1.363 . S
C1576 C1582 1.428 . S
H1577 C1573 0.930 . S
H1578 C1575 0.929 . S
S1579 N1580 1.613 . S
S1579 N1581 1.610 . S
N1580 S1579 1.613 . S
N1580 C1583 1.350 . S
N1581 S1579 1.610 . S
N1581 C1582 1.351 . S
C1582 C1576 1.428 . S
C1582 N1581 1.351 . S
C1582 C1583 1.434 . S
C1583 C1574 1.429 . S
C1583 N1580 1.350 . S
C1583 C1582 1.434 . S
C1584 C1585 1.369 . S
C1584 C1586 1.419 . S
C1584 H1588 0.930 . S
C1585 C1584 1.369 . S
C1585 C1594 1.429 . S
C1586 C1584 1.419 . S
C1586 C1587 1.363 . S
C1586 H1589 0.929 . S
C1587 C1586 1.363 . S
C1587 C1593 1.428 . S
H1588 C1584 0.930 . S
H1589 C1586 0.929 . S
S1590 N1591 1.613 . S
S1590 N1592 1.610 . S
N1591 S1590 1.613 . S
N1591 C1594 1.350 . S
N1592 S1590 1.610 . S
N1592 C1593 1.351 . S
C1593 C1587 1.428 . S
C1593 N1592 1.351 . S
C1593 C1594 1.434 . S
C1594 C1585 1.429 . S
C1594 N1591 1.350 . S
C1594 C1593 1.434 . S
C1595 C1596 1.369 . S
C1595 C1597 1.419 . S
C1595 H1599 0.930 . S
C1596 C1595 1.369 . S
C1596 C1605 1.429 . S
C1597 C1595 1.419 . S
C1597 C1598 1.363 . S
C1597 H1600 0.929 . S
C1598 C1597 1.363 . S
C1598 C1604 1.428 . S
H1599 C1595 0.930 . S
H1600 C1597 0.929 . S
S1601 N1602 1.613 . S
S1601 N1603 1.610 . S
N1602 S1601 1.613 . S
N1602 C1605 1.350 . S
N1603 S1601 1.610 . S
N1603 C1604 1.351 . S
C1604 C1598 1.428 . S
C1604 N1603 1.351 . S
C1604 C1605 1.434 . S
C1605 C1596 1.429 . S
C1605 N1602 1.350 . S
C1605 C1604 1.434 . S
C1606 C1607 1.369 . S
C1606 C1608 1.419 . S
C1606 H1610 0.930 . S
C1607 C1606 1.369 . S
C1607 C1616 1.429 . S
C1608 C1606 1.419 . S
C1608 C1609 1.363 . S
C1608 H1611 0.929 . S
C1609 C1608 1.363 . S
C1609 C1615 1.428 . S
H1610 C1606 0.930 . S
H1611 C1608 0.929 . S
S1612 N1613 1.613 . S
S1612 N1614 1.610 . S
N1613 S1612 1.613 . S
N1613 C1616 1.350 . S
N1614 S1612 1.610 . S
N1614 C1615 1.351 . S
C1615 C1609 1.428 . S
C1615 N1614 1.351 . S
C1615 C1616 1.434 . S
C1616 C1607 1.429 . S
C1616 N1613 1.350 . S
C1616 C1615 1.434 . S
C1617 C1618 1.369 . S
C1617 C1619 1.419 . S
C1617 H1621 0.930 . S
C1618 C1617 1.369 . S
C1618 C1627 1.429 . S
C1619 C1617 1.419 . S
C1619 C1620 1.363 . S
C1619 H1622 0.929 . S
C1620 C1619 1.363 . S
C1620 C1626 1.428 . S
H1621 C1617 0.930 . S
H1622 C1619 0.929 . S
S1623 N1624 1.613 . S
S1623 N1625 1.610 . S
N1624 S1623 1.613 . S
N1624 C1627 1.350 . S
N1625 S1623 1.610 . S
N1625 C1626 1.351 . S
C1626 C1620 1.428 . S
C1626 N1625 1.351 . S
C1626 C1627 1.434 . S
C1627 C1618 1.429 . S
C1627 N1624 1.350 . S
C1627 C1626 1.434 . S
C1628 C1629 1.369 . S
C1628 C1630 1.419 . S
C1628 H1632 0.930 . S
C1629 C1628 1.369 . S
C1629 C1638 1.429 . S
C1630 C1628 1.419 . S
C1630 C1631 1.363 . S
C1630 H1633 0.929 . S
C1631 C1630 1.363 . S
C1631 C1637 1.428 . S
H1632 C1628 0.930 . S
H1633 C1630 0.929 . S
S1634 N1635 1.613 . S
S1634 N1636 1.610 . S
N1635 S1634 1.613 . S
N1635 C1638 1.350 . S
N1636 S1634 1.610 . S
N1636 C1637 1.351 . S
C1637 C1631 1.428 . S
C1637 N1636 1.351 . S
C1637 C1638 1.434 . S
C1638 C1629 1.429 . S
C1638 N1635 1.350 . S
C1638 C1637 1.434 . S
C1639 C1640 1.369 . S
C1639 C1641 1.419 . S
C1639 H1643 0.930 . S
C1640 C1639 1.369 . S
C1640 C1649 1.429 . S
C1641 C1639 1.419 . S
C1641 C1642 1.363 . S
C1641 H1644 0.929 . S
C1642 C1641 1.363 . S
C1642 C1648 1.428 . S
H1643 C1639 0.930 . S
H1644 C1641 0.929 . S
S1645 N1646 1.613 . S
S1645 N1647 1.610 . S
N1646 S1645 1.613 . S
N1646 C1649 1.350 . S
N1647 S1645 1.610 . S
N1647 C1648 1.351 . S
C1648 C1642 1.428 . S
C1648 N1647 1.351 . S
C1648 C1649 1.434 . S
C1649 C1640 1.429 . S
C1649 N1646 1.350 . S
C1649 C1648 1.434 . S
C1650 C1651 1.369 . S
C1650 C1652 1.419 . S
C1650 H1654 0.930 . S
C1651 C1650 1.369 . S
C1651 C1660 1.429 . S
C1652 C1650 1.419 . S
C1652 C1653 1.363 . S
C1652 H1655 0.929 . S
C1653 C1652 1.363 . S
C1653 C1659 1.428 . S
H1654 C1650 0.930 . S
H1655 C1652 0.929 . S
S1656 N1657 1.613 . S
S1656 N1658 1.610 . S
N1657 S1656 1.613 . S
N1657 C1660 1.350 . S
N1658 S1656 1.610 . S
N1658 C1659 1.351 . S
C1659 C1653 1.428 . S
C1659 N1658 1.351 . S
C1659 C1660 1.434 . S
C1660 C1651 1.429 . S
C1660 N1657 1.350 . S
C1660 C1659 1.434 . S
C1661 C1662 1.369 . S
C1661 C1663 1.419 . S
C1661 H1665 0.930 . S
C1662 C1661 1.369 . S
C1662 C1671 1.429 . S
C1663 C1661 1.419 . S
C1663 C1664 1.363 . S
C1663 H1666 0.929 . S
C1664 C1663 1.363 . S
C1664 C1670 1.428 . S
H1665 C1661 0.930 . S
H1666 C1663 0.929 . S
S1667 N1668 1.613 . S
S1667 N1669 1.610 . S
N1668 S1667 1.613 . S
N1668 C1671 1.350 . S
N1669 S1667 1.610 . S
N1669 C1670 1.351 . S
C1670 C1664 1.428 . S
C1670 N1669 1.351 . S
C1670 C1671 1.434 . S
C1671 C1662 1.429 . S
C1671 N1668 1.350 . S
C1671 C1670 1.434 . S
C1672 C1673 1.369 . S
C1672 C1674 1.419 . S
C1672 H1676 0.930 . S
C1673 C1672 1.369 . S
C1673 C1682 1.429 . S
C1674 C1672 1.419 . S
C1674 C1675 1.363 . S
C1674 H1677 0.929 . S
C1675 C1674 1.363 . S
C1675 C1681 1.428 . S
H1676 C1672 0.930 . S
H1677 C1674 0.929 . S
S1678 N1679 1.613 . S
S1678 N1680 1.610 . S
N1679 S1678 1.613 . S
N1679 C1682 1.350 . S
N1680 S1678 1.610 . S
N1680 C1681 1.351 . S
C1681 C1675 1.428 . S
C1681 N1680 1.351 . S
C1681 C1682 1.434 . S
C1682 C1673 1.429 . S
C1682 N1679 1.350 . S
C1682 C1681 1.434 . S
C1683 C1684 1.369 . S
C1683 C1685 1.419 . S
C1683 H1687 0.930 . S
C1684 C1683 1.369 . S
C1684 C1693 1.429 . S
C1685 C1683 1.419 . S
C1685 C1686 1.363 . S
C1685 H1688 0.929 . S
C1686 C1685 1.363 . S
C1686 C1692 1.428 . S
H1687 C1683 0.930 . S
H1688 C1685 0.929 . S
S1689 N1690 1.613 . S
S1689 N1691 1.610 . S
N1690 S1689 1.613 . S
N1690 C1693 1.350 . S
N1691 S1689 1.610 . S
N1691 C1692 1.351 . S
C1692 C1686 1.428 . S
C1692 N1691 1.351 . S
C1692 C1693 1.434 . S
C1693 C1684 1.429 . S
C1693 N1690 1.350 . S
C1693 C1692 1.434 . S
C1694 C1695 1.369 . S
C1694 C1696 1.419 . S
C1694 H1698 0.930 . S
C1695 C1694 1.369 . S
C1695 C1704 1.429 . S
C1696 C1694 1.419 . S
C1696 C1697 1.363 . S
C1696 H1699 0.929 . S
C1697 C1696 1.363 . S
C1697 C1703 1.428 . S
H1698 C1694 0.930 . S
H1699 C1696 0.929 . S
S1700 N1701 1.613 . S
S1700 N1702 1.610 . S
N1701 S1700 1.613 . S
N1701 C1704 1.350 . S
N1702 S1700 1.610 . S
N1702 C1703 1.351 . S
C1703 C1697 1.428 . S
C1703 N1702 1.351 . S
C1703 C1704 1.434 . S
C1704 C1695 1.429 . S
C1704 N1701 1.350 . S
C1704 C1703 1.434 . S
C1705 C1706 1.369 . S
C1705 C1707 1.419 . S
C1705 H1709 0.930 . S
C1706 C1705 1.369 . S
C1706 C1715 1.429 . S
C1707 C1705 1.419 . S
C1707 C1708 1.363 . S
C1707 H1710 0.929 . S
C1708 C1707 1.363 . S
C1708 C1714 1.428 . S
H1709 C1705 0.930 . S
H1710 C1707 0.929 . S
S1711 N1712 1.613 . S
S1711 N1713 1.610 . S
N1712 S1711 1.613 . S
N1712 C1715 1.350 . S
N1713 S1711 1.610 . S
N1713 C1714 1.351 . S
C1714 C1708 1.428 . S
C1714 N1713 1.351 . S
C1714 C1715 1.434 . S
C1715 C1706 1.429 . S
C1715 N1712 1.350 . S
C1715 C1714 1.434 . S
C1716 C1717 1.369 . S
C1716 C1718 1.419 . S
C1716 H1720 0.930 . S
C1717 C1716 1.369 . S
C1717 C1726 1.429 1_655 S
C1718 C1716 1.419 . S
C1718 C1719 1.363 1_655 S
C1718 H1721 0.929 . S
C1719 C1718 1.363 1_455 S
C1719 C1725 1.428 . S
H1720 C1716 0.930 . S
H1721 C1718 0.929 . S
S1722 N1723 1.613 . S
S1722 N1724 1.610 . S
N1723 S1722 1.613 . S
N1723 C1726 1.350 . S
N1724 S1722 1.610 . S
N1724 C1725 1.351 . S
C1725 C1719 1.428 . S
C1725 N1724 1.351 . S
C1725 C1726 1.434 . S
C1726 C1717 1.429 1_455 S
C1726 N1723 1.350 . S
C1726 C1725 1.434 . S
C1727 C1728 1.369 . S
C1727 C1729 1.419 . S
C1727 H1731 0.930 . S
C1728 C1727 1.369 . S
C1728 C1737 1.429 . S
C1729 C1727 1.419 . S
C1729 C1730 1.363 . S
C1729 H1732 0.929 . S
C1730 C1729 1.363 . S
C1730 C1736 1.428 . S
H1731 C1727 0.930 . S
H1732 C1729 0.929 . S
S1733 N1734 1.613 . S
S1733 N1735 1.610 . S
N1734 S1733 1.613 . S
N1734 C1737 1.350 . S
N1735 S1733 1.610 . S
N1735 C1736 1.351 . S
C1736 C1730 1.428 . S
C1736 N1735 1.351 . S
C1736 C1737 1.434 . S
C1737 C1728 1.429 . S
C1737 N1734 1.350 . S
C1737 C1736 1.434 . S
C1738 C1739 1.369 1_565 S
C1738 C1740 1.419 . S
C1738 H1742 0.930 . S
C1739 C1738 1.369 1_545 S
C1739 C1748 1.429 . S
C1740 C1738 1.419 . S
C1740 C1741 1.363 . S
C1740 H1743 0.929 . S
C1741 C1740 1.363 . S
C1741 C1747 1.428 1_565 S
H1742 C1738 0.930 . S
H1743 C1740 0.929 . S
S1744 N1745 1.613 . S
S1744 N1746 1.610 . S
N1745 S1744 1.613 . S
N1745 C1748 1.350 . S
N1746 S1744 1.610 . S
N1746 C1747 1.351 . S
C1747 C1741 1.428 1_545 S
C1747 N1746 1.351 . S
C1747 C1748 1.434 . S
C1748 C1739 1.429 . S
C1748 N1745 1.350 . S
C1748 C1747 1.434 . S
C1749 C1750 1.369 . S
C1749 C1751 1.419 1_554 S
C1749 H1753 0.930 . S
C1750 C1749 1.369 . S
C1750 C1759 1.429 1_565 S
C1751 C1749 1.419 1_556 S
C1751 C1752 1.363 1_565 S
C1751 H1754 0.929 . S
C1752 C1751 1.363 1_545 S
C1752 C1758 1.428 . S
H1753 C1749 0.930 . S
H1754 C1751 0.929 . S
S1755 N1756 1.613 1_556 S
S1755 N1757 1.610 . S
N1756 S1755 1.613 1_554 S
N1756 C1759 1.350 . S
N1757 S1755 1.610 . S
N1757 C1758 1.351 . S
C1758 C1752 1.428 . S
C1758 N1757 1.351 . S
C1758 C1759 1.434 1_556 S
C1759 C1750 1.429 1_545 S
C1759 N1756 1.350 . S
C1759 C1758 1.434 1_554 S
C1760 C1761 1.369 . S
C1760 C1762 1.419 1_556 S
C1760 H1764 0.930 . S
C1761 C1760 1.369 . S
C1761 C1770 1.429 1_655 S
C1762 C1760 1.419 1_554 S
C1762 C1763 1.363 1_655 S
C1762 H1765 0.929 . S
C1763 C1762 1.363 1_455 S
C1763 C1769 1.428 . S
H1764 C1760 0.930 . S
H1765 C1762 0.929 . S
S1766 N1767 1.613 1_554 S
S1766 N1768 1.610 . S
N1767 S1766 1.613 1_556 S
N1767 C1770 1.350 . S
N1768 S1766 1.610 . S
N1768 C1769 1.351 . S
C1769 C1763 1.428 . S
C1769 N1768 1.351 . S
C1769 C1770 1.434 1_554 S
C1770 C1761 1.429 1_455 S
C1770 N1767 1.350 . S
C1770 C1769 1.434 1_556 S
C1771 C1772 1.369 . S
C1771 C1773 1.419 . S
C1771 H1775 0.930 . S
C1772 C1771 1.369 . S
C1772 C1781 1.429 1_554 S
C1773 C1771 1.419 . S
C1773 C1774 1.363 1_554 S
C1773 H1776 0.929 . S
C1774 C1773 1.363 1_556 S
C1774 C1780 1.428 . S
H1775 C1771 0.930 . S
H1776 C1773 0.929 . S
S1777 N1778 1.613 . S
S1777 N1779 1.610 . S
N1778 S1777 1.613 . S
N1778 C1781 1.350 . S
N1779 S1777 1.610 . S
N1779 C1780 1.351 . S
C1780 C1774 1.428 . S
C1780 N1779 1.351 . S
C1780 C1781 1.434 . S
C1781 C1772 1.429 1_556 S
C1781 N1778 1.350 . S
C1781 C1780 1.434 . S
C1782 C1783 1.369 1_554 S
C1782 C1784 1.419 . S
C1782 H1786 0.930 . S
C1783 C1782 1.369 1_556 S
C1783 C1792 1.429 . S
C1784 C1782 1.419 . S
C1784 C1785 1.363 . S
C1784 H1787 0.929 . S
C1785 C1784 1.363 . S
C1785 C1791 1.428 1_554 S
H1786 C1782 0.930 . S
H1787 C1784 0.929 . S
S1788 N1789 1.613 . S
S1788 N1790 1.610 . S
N1789 S1788 1.613 . S
N1789 C1792 1.350 . S
N1790 S1788 1.610 . S
N1790 C1791 1.351 . S
C1791 C1785 1.428 1_556 S
C1791 N1790 1.351 . S
C1791 C1792 1.434 . S
C1792 C1783 1.429 . S
C1792 N1789 1.350 . S
C1792 C1791 1.434 . S
C1793 C1794 1.369 1_556 S
C1793 C1795 1.419 . S
C1793 H1797 0.930 . S
C1794 C1793 1.369 1_554 S
C1794 C1803 1.429 . S
C1795 C1793 1.419 . S
C1795 C1796 1.363 . S
C1795 H1798 0.929 . S
C1796 C1795 1.363 . S
C1796 C1802 1.428 1_556 S
H1797 C1793 0.930 . S
H1798 C1795 0.929 . S
S1799 N1800 1.613 . S
S1799 N1801 1.610 . S
N1800 S1799 1.613 . S
N1800 C1803 1.350 . S
N1801 S1799 1.610 . S
N1801 C1802 1.351 . S
C1802 C1796 1.428 1_554 S
C1802 N1801 1.351 . S
C1802 C1803 1.434 . S
C1803 C1794 1.429 . S
C1803 N1800 1.350 . S
C1803 C1802 1.434 . S
C1804 C1805 1.369 . S
C1804 C1806 1.419 . S
C1804 H1808 0.930 . S
C1805 C1804 1.369 . S
C1805 C1814 1.429 1_554 S
C1806 C1804 1.419 . S
C1806 C1807 1.363 1_554 S
C1806 H1809 0.929 . S
C1807 C1806 1.363 1_556 S
C1807 C1813 1.428 . S
H1808 C1804 0.930 . S
H1809 C1806 0.929 . S
S1810 N1811 1.613 . S
S1810 N1812 1.610 . S
N1811 S1810 1.613 . S
N1811 C1814 1.350 . S
N1812 S1810 1.610 . S
N1812 C1813 1.351 . S
C1813 C1807 1.428 . S
C1813 N1812 1.351 . S
C1813 C1814 1.434 . S
C1814 C1805 1.429 1_556 S
C1814 N1811 1.350 . S
C1814 C1813 1.434 . S
C1815 C1816 1.369 . S
C1815 C1817 1.419 . S
C1815 H1819 0.930 . S
C1816 C1815 1.369 . S
C1816 C1825 1.429 . S
C1817 C1815 1.419 . S
C1817 C1818 1.363 . S
C1817 H1820 0.929 . S
C1818 C1817 1.363 . S
C1818 C1824 1.428 . S
H1819 C1815 0.930 . S
H1820 C1817 0.929 . S
S1821 N1822 1.613 . S
S1821 N1823 1.610 . S
N1822 S1821 1.613 . S
N1822 C1825 1.350 . S
N1823 S1821 1.610 . S
N1823 C1824 1.351 . S
C1824 C1818 1.428 . S
C1824 N1823 1.351 . S
C1824 C1825 1.434 . S
C1825 C1816 1.429 . S
C1825 N1822 1.350 . S
C1825 C1824 1.434 . S
C1826 C1827 1.369 . S
C1826 C1828 1.419 . S
C1826 H1830 0.930 . S
C1827 C1826 1.369 . S
C1827 C1836 1.429 . S
C1828 C1826 1.419 . S
C1828 C1829 1.363 . S
C1828 H1831 0.929 . S
C1829 C1828 1.363 . S
C1829 C1835 1.428 . S
H1830 C1826 0.930 . S
H1831 C1828 0.929 . S
S1832 N1833 1.613 . S
S1832 N1834 1.610 . S
N1833 S1832 1.613 . S
N1833 C1836 1.350 . S
N1834 S1832 1.610 . S
N1834 C1835 1.351 . S
C1835 C1829 1.428 . S
C1835 N1834 1.351 . S
C1835 C1836 1.434 . S
C1836 C1827 1.429 . S
C1836 N1833 1.350 . S
C1836 C1835 1.434 . S
C1837 C1838 1.369 . S
C1837 C1839 1.419 . S
C1837 H1841 0.930 . S
C1838 C1837 1.369 . S
C1838 C1847 1.429 . S
C1839 C1837 1.419 . S
C1839 C1840 1.363 . S
C1839 H1842 0.929 . S
C1840 C1839 1.363 . S
C1840 C1846 1.428 . S
H1841 C1837 0.930 . S
H1842 C1839 0.929 . S
S1843 N1844 1.613 . S
S1843 N1845 1.610 . S
N1844 S1843 1.613 . S
N1844 C1847 1.350 . S
N1845 S1843 1.610 . S
N1845 C1846 1.351 . S
C1846 C1840 1.428 . S
C1846 N1845 1.351 . S
C1846 C1847 1.434 . S
C1847 C1838 1.429 . S
C1847 N1844 1.350 . S
C1847 C1846 1.434 . S
C1848 C1849 1.369 . S
C1848 C1850 1.419 1_554 S
C1848 H1852 0.930 . S
C1849 C1848 1.369 . S
C1849 C1858 1.429 1_554 S
C1850 C1848 1.419 1_556 S
C1850 C1851 1.363 . S
C1850 H1853 0.929 . S
C1851 C1850 1.363 . S
C1851 C1857 1.428 . S
H1852 C1848 0.930 . S
H1853 C1850 0.929 . S
S1854 N1855 1.626 . S
S1854 N1856 1.610 . S
N1855 S1854 1.626 . S
N1855 C1858 1.351 . S
N1856 S1854 1.610 . S
N1856 C1857 1.351 . S
C1857 C1851 1.428 . S
C1857 N1856 1.351 . S
C1857 C1858 1.434 . S
C1858 C1849 1.429 1_556 S
C1858 N1855 1.351 . S
C1858 C1857 1.434 . S
C1859 C1860 1.369 . S
C1859 C1861 1.419 1_554 S
C1859 H1863 0.930 . S
C1860 C1859 1.369 . S
C1860 C1869 1.429 . S
C1861 C1859 1.419 1_556 S
C1861 C1862 1.363 . S
C1861 H1864 0.929 . S
C1862 C1861 1.363 . S
C1862 C1868 1.428 . S
H1863 C1859 0.930 . S
H1864 C1861 0.929 . S
S1865 N1866 1.613 1_556 S
S1865 N1867 1.610 . S
N1866 S1865 1.613 1_554 S
N1866 C1869 1.350 . S
N1867 S1865 1.610 . S
N1867 C1868 1.351 . S
C1868 C1862 1.428 . S
C1868 N1867 1.351 . S
C1868 C1869 1.434 1_556 S
C1869 C1860 1.429 . S
C1869 N1866 1.350 . S
C1869 C1868 1.434 1_554 S
C1870 C1871 1.369 . S
C1870 C1872 1.419 . S
C1870 H1874 0.930 . S
C1871 C1870 1.369 . S
C1871 C1880 1.429 1_554 S
C1872 C1870 1.419 . S
C1872 C1873 1.363 1_554 S
C1872 H1875 0.929 . S
C1873 C1872 1.363 1_556 S
C1873 C1879 1.428 . S
H1874 C1870 0.930 . S
H1875 C1872 0.929 . S
S1876 N1877 1.613 . S
S1876 N1878 1.610 . S
N1877 S1876 1.613 . S
N1877 C1880 1.350 . S
N1878 S1876 1.610 . S
N1878 C1879 1.351 . S
C1879 C1873 1.428 . S
C1879 N1878 1.351 . S
C1879 C1880 1.434 . S
C1880 C1871 1.429 1_556 S
C1880 N1877 1.350 . S
C1880 C1879 1.434 . S
C1881 C1882 1.369 . S
C1881 C1883 1.419 . S
C1881 H1885 0.930 . S
C1882 C1881 1.369 . S
C1882 C1891 1.429 . S
C1883 C1881 1.419 . S
C1883 C1884 1.363 . S
C1883 H1886 0.929 . S
C1884 C1883 1.363 . S
C1884 C1890 1.428 . S
H1885 C1881 0.930 . S
H1886 C1883 0.929 . S
S1887 N1888 1.613 . S
S1887 N1889 1.610 . S
N1888 S1887 1.613 . S
N1888 C1891 1.350 . S
N1889 S1887 1.610 . S
N1889 C1890 1.351 . S
C1890 C1884 1.428 . S
C1890 N1889 1.351 . S
C1890 C1891 1.434 . S
C1891 C1882 1.429 . S
C1891 N1888 1.350 . S
C1891 C1890 1.434 . S
C1892 C1893 1.369 . S
C1892 C1894 1.419 . S
C1892 H1896 0.930 . S
C1893 C1892 1.369 . S
C1893 C1902 1.429 . S
C1894 C1892 1.419 . S
C1894 C1895 1.363 . S
C1894 H1897 0.929 . S
C1895 C1894 1.363 . S
C1895 C1901 1.428 . S
H1896 C1892 0.930 . S
H1897 C1894 0.929 . S
S1898 N1899 1.613 . S
S1898 N1900 1.610 . S
N1899 S1898 1.613 . S
N1899 C1902 1.350 . S
N1900 S1898 1.610 . S
N1900 C1901 1.351 . S
C1901 C1895 1.428 . S
C1901 N1900 1.351 . S
C1901 C1902 1.434 . S
C1902 C1893 1.429 . S
C1902 N1899 1.350 . S
C1902 C1901 1.434 . S
C1903 C1904 1.369 . S
C1903 C1905 1.419 . S
C1903 H1907 0.930 . S
C1904 C1903 1.369 . S
C1904 C1913 1.429 . S
C1905 C1903 1.419 . S
C1905 C1906 1.363 . S
C1905 H1908 0.929 . S
C1906 C1905 1.363 . S
C1906 C1912 1.428 . S
H1907 C1903 0.930 . S
H1908 C1905 0.929 . S
S1909 N1910 1.613 . S
S1909 N1911 1.610 . S
N1910 S1909 1.613 . S
N1910 C1913 1.350 . S
N1911 S1909 1.610 . S
N1911 C1912 1.351 . S
C1912 C1906 1.428 . S
C1912 N1911 1.351 . S
C1912 C1913 1.434 . S
C1913 C1904 1.429 . S
C1913 N1910 1.350 . S
C1913 C1912 1.434 . S
C1914 C1915 1.369 . S
C1914 C1916 1.419 . S
C1914 H1918 0.930 . S
C1915 C1914 1.369 . S
C1915 C1924 1.429 . S
C1916 C1914 1.419 . S
C1916 C1917 1.363 . S
C1916 H1919 0.929 . S
C1917 C1916 1.363 . S
C1917 C1923 1.428 . S
H1918 C1914 0.930 . S
H1919 C1916 0.929 . S
S1920 N1921 1.613 . S
S1920 N1922 1.610 . S
N1921 S1920 1.613 . S
N1921 C1924 1.350 . S
N1922 S1920 1.610 . S
N1922 C1923 1.351 . S
C1923 C1917 1.428 . S
C1923 N1922 1.351 . S
C1923 C1924 1.434 . S
C1924 C1915 1.429 . S
C1924 N1921 1.350 . S
C1924 C1923 1.434 . S
C1925 C1926 1.369 . S
C1925 C1927 1.419 . S
C1925 H1929 0.930 . S
C1926 C1925 1.369 . S
C1926 C1935 1.429 . S
C1927 C1925 1.419 . S
C1927 C1928 1.363 . S
C1927 H1930 0.929 . S
C1928 C1927 1.363 . S
C1928 C1934 1.428 . S
H1929 C1925 0.930 . S
H1930 C1927 0.929 . S
S1931 N1932 1.613 . S
S1931 N1933 1.610 . S
N1932 S1931 1.613 . S
N1932 C1935 1.350 . S
N1933 S1931 1.610 . S
N1933 C1934 1.351 . S
C1934 C1928 1.428 . S
C1934 N1933 1.351 . S
C1934 C1935 1.434 . S
C1935 C1926 1.429 . S
C1935 N1932 1.350 . S
C1935 C1934 1.434 . S
C1936 C1937 1.369 . S
C1936 C1938 1.419 . S
C1936 H1940 0.930 . S
C1937 C1936 1.369 . S
C1937 C1946 1.429 . S
C1938 C1936 1.419 . S
C1938 C1939 1.363 . S
C1938 H1941 0.929 . S
C1939 C1938 1.363 . S
C1939 C1945 1.428 . S
H1940 C1936 0.930 . S
H1941 C1938 0.929 . S
S1942 N1943 1.613 . S
S1942 N1944 1.610 . S
N1943 S1942 1.613 . S
N1943 C1946 1.350 . S
N1944 S1942 1.610 . S
N1944 C1945 1.351 . S
C1945 C1939 1.428 . S
C1945 N1944 1.351 . S
C1945 C1946 1.434 . S
C1946 C1937 1.429 . S
C1946 N1943 1.350 . S
C1946 C1945 1.434 . S
C1947 C1948 1.369 . S
C1947 C1949 1.419 . S
C1947 H1951 0.930 . S
C1948 C1947 1.369 . S
C1948 C1957 1.429 . S
C1949 C1947 1.419 . S
C1949 C1950 1.363 . S
C1949 H1952 0.929 . S
C1950 C1949 1.363 . S
C1950 C1956 1.428 . S
H1951 C1947 0.930 . S
H1952 C1949 0.929 . S
S1953 N1954 1.613 . S
S1953 N1955 1.610 . S
N1954 S1953 1.613 . S
N1954 C1957 1.350 . S
N1955 S1953 1.610 . S
N1955 C1956 1.351 . S
C1956 C1950 1.428 . S
C1956 N1955 1.351 . S
C1956 C1957 1.434 . S
C1957 C1948 1.429 . S
C1957 N1954 1.350 . S
C1957 C1956 1.434 . S
C1958 C1959 1.369 . S
C1958 C1960 1.419 . S
C1958 H1962 0.930 . S
C1959 C1958 1.369 . S
C1959 C1968 1.429 . S
C1960 C1958 1.419 . S
C1960 C1961 1.363 . S
C1960 H1963 0.929 . S
C1961 C1960 1.363 . S
C1961 C1967 1.428 . S
H1962 C1958 0.930 . S
H1963 C1960 0.929 . S
S1964 N1965 1.613 . S
S1964 N1966 1.610 . S
N1965 S1964 1.613 . S
N1965 C1968 1.350 . S
N1966 S1964 1.610 . S
N1966 C1967 1.351 . S
C1967 C1961 1.428 . S
C1967 N1966 1.351 . S
C1967 C1968 1.434 . S
C1968 C1959 1.429 . S
C1968 N1965 1.350 . S
C1968 C1967 1.434 . S
C1969 C1970 1.369 . S
C1969 C1971 1.419 . S
C1969 H1973 0.930 . S
C1970 C1969 1.369 . S
C1970 C1979 1.429 . S
C1971 C1969 1.419 . S
C1971 C1972 1.363 . S
C1971 H1974 0.929 . S
C1972 C1971 1.363 . S
C1972 C1978 1.428 . S
H1973 C1969 0.930 . S
H1974 C1971 0.929 . S
S1975 N1976 1.613 . S
S1975 N1977 1.610 . S
N1976 S1975 1.613 . S
N1976 C1979 1.350 . S
N1977 S1975 1.610 . S
N1977 C1978 1.351 . S
C1978 C1972 1.428 . S
C1978 N1977 1.351 . S
C1978 C1979 1.434 . S
C1979 C1970 1.429 . S
C1979 N1976 1.350 . S
C1979 C1978 1.434 . S
C1980 C1981 1.369 . S
C1980 C1982 1.419 . S
C1980 H1984 0.930 . S
C1981 C1980 1.369 . S
C1981 C1990 1.429 . S
C1982 C1980 1.419 . S
C1982 C1983 1.363 . S
C1982 H1985 0.929 . S
C1983 C1982 1.363 . S
C1983 C1989 1.428 . S
H1984 C1980 0.930 . S
H1985 C1982 0.929 . S
S1986 N1987 1.613 . S
S1986 N1988 1.610 . S
N1987 S1986 1.613 . S
N1987 C1990 1.350 . S
N1988 S1986 1.610 . S
N1988 C1989 1.351 . S
C1989 C1983 1.428 . S
C1989 N1988 1.351 . S
C1989 C1990 1.434 . S
C1990 C1981 1.429 . S
C1990 N1987 1.350 . S
C1990 C1989 1.434 . S
C1991 C1992 1.369 . S
C1991 C1993 1.419 . S
C1991 H1995 0.930 . S
C1992 C1991 1.369 . S
C1992 C2001 1.429 . S
C1993 C1991 1.419 . S
C1993 C1994 1.363 . S
C1993 H1996 0.929 . S
C1994 C1993 1.363 . S
C1994 C2000 1.428 . S
H1995 C1991 0.930 . S
H1996 C1993 0.929 . S
S1997 N1998 1.613 . S
S1997 N1999 1.610 . S
N1998 S1997 1.613 . S
N1998 C2001 1.350 . S
N1999 S1997 1.610 . S
N1999 C2000 1.351 . S
C2000 C1994 1.428 . S
C2000 N1999 1.351 . S
C2000 C2001 1.434 . S
C2001 C1992 1.429 . S
C2001 N1998 1.350 . S
C2001 C2000 1.434 . S
C2002 C2003 1.369 . S
C2002 C2004 1.419 . S
C2002 H2006 0.930 . S
C2003 C2002 1.369 . S
C2003 C2012 1.429 . S
C2004 C2002 1.419 . S
C2004 C2005 1.363 . S
C2004 H2007 0.929 . S
C2005 C2004 1.363 . S
C2005 C2011 1.428 . S
H2006 C2002 0.930 . S
H2007 C2004 0.929 . S
S2008 N2009 1.613 . S
S2008 N2010 1.610 . S
N2009 S2008 1.613 . S
N2009 C2012 1.350 . S
N2010 S2008 1.610 . S
N2010 C2011 1.351 . S
C2011 C2005 1.428 . S
C2011 N2010 1.351 . S
C2011 C2012 1.434 . S
C2012 C2003 1.429 . S
C2012 N2009 1.350 . S
C2012 C2011 1.434 . S
C2013 C2014 1.369 . S
C2013 C2015 1.419 . S
C2013 H2017 0.930 . S
C2014 C2013 1.369 . S
C2014 C2023 1.429 . S
C2015 C2013 1.419 . S
C2015 C2016 1.363 . S
C2015 H2018 0.929 . S
C2016 C2015 1.363 . S
C2016 C2022 1.428 . S
H2017 C2013 0.930 . S
H2018 C2015 0.929 . S
S2019 N2020 1.613 . S
S2019 N2021 1.610 . S
N2020 S2019 1.613 . S
N2020 C2023 1.350 . S
N2021 S2019 1.610 . S
N2021 C2022 1.351 . S
C2022 C2016 1.428 . S
C2022 N2021 1.351 . S
C2022 C2023 1.434 . S
C2023 C2014 1.429 . S
C2023 N2020 1.350 . S
C2023 C2022 1.434 . S
C2024 C2025 1.369 . S
C2024 C2026 1.419 . S
C2024 H2028 0.930 . S
C2025 C2024 1.369 . S
C2025 C2034 1.429 . S
C2026 C2024 1.419 . S
C2026 C2027 1.363 . S
C2026 H2029 0.929 . S
C2027 C2026 1.363 . S
C2027 C2033 1.428 . S
H2028 C2024 0.930 . S
H2029 C2026 0.929 . S
S2030 N2031 1.613 . S
S2030 N2032 1.610 . S
N2031 S2030 1.613 . S
N2031 C2034 1.350 . S
N2032 S2030 1.610 . S
N2032 C2033 1.351 . S
C2033 C2027 1.428 . S
C2033 N2032 1.351 . S
C2033 C2034 1.434 . S
C2034 C2025 1.429 . S
C2034 N2031 1.350 . S
C2034 C2033 1.434 . S
C2035 C2036 1.369 . S
C2035 C2037 1.419 . S
C2035 H2039 0.930 . S
C2036 C2035 1.369 . S
C2036 C2045 1.429 . S
C2037 C2035 1.419 . S
C2037 C2038 1.363 . S
C2037 H2040 0.929 . S
C2038 C2037 1.363 . S
C2038 C2044 1.428 . S
H2039 C2035 0.930 . S
H2040 C2037 0.929 . S
S2041 N2042 1.613 . S
S2041 N2043 1.610 . S
N2042 S2041 1.613 . S
N2042 C2045 1.350 . S
N2043 S2041 1.610 . S
N2043 C2044 1.351 . S
C2044 C2038 1.428 . S
C2044 N2043 1.351 . S
C2044 C2045 1.434 . S
C2045 C2036 1.429 . S
C2045 N2042 1.350 . S
C2045 C2044 1.434 . S
C2046 C2047 1.369 . S
C2046 C2048 1.419 . S
C2046 H2050 0.930 . S
C2047 C2046 1.369 . S
C2047 C2056 1.429 . S
C2048 C2046 1.419 . S
C2048 C2049 1.363 . S
C2048 H2051 0.929 . S
C2049 C2048 1.363 . S
C2049 C2055 1.428 . S
H2050 C2046 0.930 . S
H2051 C2048 0.929 . S
S2052 N2053 1.613 . S
S2052 N2054 1.610 . S
N2053 S2052 1.613 . S
N2053 C2056 1.350 . S
N2054 S2052 1.610 . S
N2054 C2055 1.351 . S
C2055 C2049 1.428 . S
C2055 N2054 1.351 . S
C2055 C2056 1.434 . S
C2056 C2047 1.429 . S
C2056 N2053 1.350 . S
C2056 C2055 1.434 . S
C2057 C2058 1.369 . S
C2057 C2059 1.419 . S
C2057 H2061 0.930 . S
C2058 C2057 1.369 . S
C2058 C2067 1.429 . S
C2059 C2057 1.419 . S
C2059 C2060 1.363 . S
C2059 H2062 0.929 . S
C2060 C2059 1.363 . S
C2060 C2066 1.428 . S
H2061 C2057 0.930 . S
H2062 C2059 0.929 . S
S2063 N2064 1.613 . S
S2063 N2065 1.610 . S
N2064 S2063 1.613 . S
N2064 C2067 1.350 . S
N2065 S2063 1.610 . S
N2065 C2066 1.351 . S
C2066 C2060 1.428 . S
C2066 N2065 1.351 . S
C2066 C2067 1.434 . S
C2067 C2058 1.429 . S
C2067 N2064 1.350 . S
C2067 C2066 1.434 . S
C2068 C2069 1.369 . S
C2068 C2070 1.419 . S
C2068 H2072 0.930 . S
C2069 C2068 1.369 . S
C2069 C2078 1.429 . S
C2070 C2068 1.419 . S
C2070 C2071 1.363 . S
C2070 H2073 0.929 . S
C2071 C2070 1.363 . S
C2071 C2077 1.428 . S
H2072 C2068 0.930 . S
H2073 C2070 0.929 . S
S2074 N2075 1.613 . S
S2074 N2076 1.610 . S
N2075 S2074 1.613 . S
N2075 C2078 1.350 . S
N2076 S2074 1.610 . S
N2076 C2077 1.351 . S
C2077 C2071 1.428 . S
C2077 N2076 1.351 . S
C2077 C2078 1.434 . S
C2078 C2069 1.429 . S
C2078 N2075 1.350 . S
C2078 C2077 1.434 . S
C2079 C2080 1.369 . S
C2079 C2081 1.419 . S
C2079 H2083 0.930 . S
C2080 C2079 1.369 . S
C2080 C2089 1.429 . S
C2081 C2079 1.419 . S
C2081 C2082 1.363 . S
C2081 H2084 0.929 . S
C2082 C2081 1.363 . S
C2082 C2088 1.428 . S
H2083 C2079 0.930 . S
H2084 C2081 0.929 . S
S2085 N2086 1.613 . S
S2085 N2087 1.610 . S
N2086 S2085 1.613 . S
N2086 C2089 1.350 . S
N2087 S2085 1.610 . S
N2087 C2088 1.351 . S
C2088 C2082 1.428 . S
C2088 N2087 1.351 . S
C2088 C2089 1.434 . S
C2089 C2080 1.429 . S
C2089 N2086 1.350 . S
C2089 C2088 1.434 . S
C2090 C2091 1.369 . S
C2090 C2092 1.419 . S
C2090 H2094 0.930 . S
C2091 C2090 1.369 . S
C2091 C2100 1.429 . S
C2092 C2090 1.419 . S
C2092 C2093 1.363 . S
C2092 H2095 0.929 . S
C2093 C2092 1.363 . S
C2093 C2099 1.428 . S
H2094 C2090 0.930 . S
H2095 C2092 0.929 . S
S2096 N2097 1.613 . S
S2096 N2098 1.610 . S
N2097 S2096 1.613 . S
N2097 C2100 1.350 . S
N2098 S2096 1.610 . S
N2098 C2099 1.351 . S
C2099 C2093 1.428 . S
C2099 N2098 1.351 . S
C2099 C2100 1.434 . S
C2100 C2091 1.429 . S
C2100 N2097 1.350 . S
C2100 C2099 1.434 . S
C2101 C2102 1.369 . S
C2101 C2103 1.419 . S
C2101 H2105 0.930 . S
C2102 C2101 1.369 . S
C2102 C2111 1.429 . S
C2103 C2101 1.419 . S
C2103 C2104 1.363 . S
C2103 H2106 0.929 . S
C2104 C2103 1.363 . S
C2104 C2110 1.428 . S
H2105 C2101 0.930 . S
H2106 C2103 0.929 . S
S2107 N2108 1.613 . S
S2107 N2109 1.610 . S
N2108 S2107 1.613 . S
N2108 C2111 1.350 . S
N2109 S2107 1.610 . S
N2109 C2110 1.351 . S
C2110 C2104 1.428 . S
C2110 N2109 1.351 . S
C2110 C2111 1.434 . S
C2111 C2102 1.429 . S
C2111 N2108 1.350 . S
C2111 C2110 1.434 . S
C2112 C2113 1.369 . S
C2112 C2114 1.419 . S
C2112 H2116 0.930 . S
C2113 C2112 1.369 . S
C2113 C2122 1.429 . S
C2114 C2112 1.419 . S
C2114 C2115 1.363 . S
C2114 H2117 0.929 . S
C2115 C2114 1.363 . S
C2115 C2121 1.428 . S
H2116 C2112 0.930 . S
H2117 C2114 0.929 . S
S2118 N2119 1.613 . S
S2118 N2120 1.610 . S
N2119 S2118 1.613 . S
N2119 C2122 1.350 . S
N2120 S2118 1.610 . S
N2120 C2121 1.351 . S
C2121 C2115 1.428 . S
C2121 N2120 1.351 . S
C2121 C2122 1.434 . S
C2122 C2113 1.429 . S
C2122 N2119 1.350 . S
C2122 C2121 1.434 . S
C2123 C2124 1.369 . S
C2123 C2125 1.419 . S
C2123 H2127 0.930 . S
C2124 C2123 1.369 . S
C2124 C2133 1.429 . S
C2125 C2123 1.419 . S
C2125 C2126 1.363 . S
C2125 H2128 0.929 . S
C2126 C2125 1.363 . S
C2126 C2132 1.428 . S
H2127 C2123 0.930 . S
H2128 C2125 0.929 . S
S2129 N2130 1.613 . S
S2129 N2131 1.610 . S
N2130 S2129 1.613 . S
N2130 C2133 1.350 . S
N2131 S2129 1.610 . S
N2131 C2132 1.351 . S
C2132 C2126 1.428 . S
C2132 N2131 1.351 . S
C2132 C2133 1.434 . S
C2133 C2124 1.429 . S
C2133 N2130 1.350 . S
C2133 C2132 1.434 . S
C2134 C2135 1.369 . S
C2134 C2136 1.419 . S
C2134 H2138 0.930 . S
C2135 C2134 1.369 . S
C2135 C2144 1.429 . S
C2136 C2134 1.419 . S
C2136 C2137 1.363 . S
C2136 H2139 0.929 . S
C2137 C2136 1.363 . S
C2137 C2143 1.428 . S
H2138 C2134 0.930 . S
H2139 C2136 0.929 . S
S2140 N2141 1.613 . S
S2140 N2142 1.610 . S
N2141 S2140 1.613 . S
N2141 C2144 1.350 . S
N2142 S2140 1.610 . S
N2142 C2143 1.351 . S
C2143 C2137 1.428 . S
C2143 N2142 1.351 . S
C2143 C2144 1.434 . S
C2144 C2135 1.429 . S
C2144 N2141 1.350 . S
C2144 C2143 1.434 . S
C2145 C2146 1.369 . S
C2145 C2147 1.419 . S
C2145 H2149 0.930 . S
C2146 C2145 1.369 . S
C2146 C2155 1.429 . S
C2147 C2145 1.419 . S
C2147 C2148 1.363 . S
C2147 H2150 0.929 . S
C2148 C2147 1.363 . S
C2148 C2154 1.428 . S
H2149 C2145 0.930 . S
H2150 C2147 0.929 . S
S2151 N2152 1.613 . S
S2151 N2153 1.610 . S
N2152 S2151 1.613 . S
N2152 C2155 1.350 . S
N2153 S2151 1.610 . S
N2153 C2154 1.351 . S
C2154 C2148 1.428 . S
C2154 N2153 1.351 . S
C2154 C2155 1.434 . S
C2155 C2146 1.429 . S
C2155 N2152 1.350 . S
C2155 C2154 1.434 . S
C2156 C2157 1.369 . S
C2156 C2158 1.419 . S
C2156 H2160 0.930 . S
C2157 C2156 1.369 . S
C2157 C2166 1.429 . S
C2158 C2156 1.419 . S
C2158 C2159 1.363 . S
C2158 H2161 0.929 . S
C2159 C2158 1.363 . S
C2159 C2165 1.428 . S
H2160 C2156 0.930 . S
H2161 C2158 0.929 . S
S2162 N2163 1.613 . S
S2162 N2164 1.610 . S
N2163 S2162 1.613 . S
N2163 C2166 1.350 . S
N2164 S2162 1.610 . S
N2164 C2165 1.351 . S
C2165 C2159 1.428 . S
C2165 N2164 1.351 . S
C2165 C2166 1.434 . S
C2166 C2157 1.429 . S
C2166 N2163 1.350 . S
C2166 C2165 1.434 . S
C2167 C2168 1.369 . S
C2167 C2169 1.419 . S
C2167 H2171 0.930 . S
C2168 C2167 1.369 . S
C2168 C2177 1.429 . S
C2169 C2167 1.419 . S
C2169 C2170 1.363 . S
C2169 H2172 0.929 . S
C2170 C2169 1.363 . S
C2170 C2176 1.428 . S
H2171 C2167 0.930 . S
H2172 C2169 0.929 . S
S2173 N2174 1.613 . S
S2173 N2175 1.610 . S
N2174 S2173 1.613 . S
N2174 C2177 1.350 . S
N2175 S2173 1.610 . S
N2175 C2176 1.351 . S
C2176 C2170 1.428 . S
C2176 N2175 1.351 . S
C2176 C2177 1.434 . S
C2177 C2168 1.429 . S
C2177 N2174 1.350 . S
C2177 C2176 1.434 . S
C1189 C120 0.714 . S
C1191 C21 0.723 . S
C1200 C54 0.731 1_565 S
C1202 C153 0.720 1_545 S
C1211 C186 0.726 1_655 S
C1213 C87 0.716 1_455 S
C1222 C318 0.729 . S
C1224 C219 0.717 . S
C1233 C252 0.717 1_545 S
C1235 C351 0.729 1_565 S
C1244 C384 0.723 1_455 S
C1246 C285 0.716 1_655 S
C1255 C516 0.715 . S
C1257 C417 0.720 . S
C1266 C450 0.715 . S
C1268 C549 0.726 . S
C1277 C582 0.724 . S
C1279 C483 0.729 . S
C1288 C615 0.722 . S
C1290 C714 0.729 . S
C1299 C648 0.726 . S
C1301 C747 0.716 . S
C1310 C780 0.722 . S
C1312 C681 0.729 . S
C1321 C912 0.714 . S
C1323 C813 0.721 . S
C1332 C945 0.723 . S
C1334 C846 0.716 . S
C1343 C978 0.727 . S
C1345 C879 0.729 . S
C1354 C1110 0.728 . S
C1356 C1011 0.727 . S
C1365 C1044 0.727 . S
C1367 C1143 0.728 . S
C1376 C1176 0.732 . S
C1378 C1077 0.720 . S
C1387 C7 1.782 . S
C1389 C964 1.776 . S
C1398 C898 1.782 . S
C1400 C40 1.776 1_565 S
C1409 C73 1.782 1_455 S
C1411 C931 1.780 . S
C1420 C436 1.784 . S
C1422 C106 1.777 . S
C1431 C139 1.776 1_545 S
C1433 C469 1.778 . S
C1442 C403 1.776 . S
C1444 C172 1.783 1_655 S
C1453 C766 1.777 . S
C1455 C205 1.777 . S
C1464 C700 1.775 . S
C1466 C238 1.782 1_545 S
C1475 C733 1.776 . S
C1477 C271 1.782 1_655 S
C1486 C304 1.782 . S
C1488 C1030 1.776 . S
C1497 C1063 1.782 . S
C1499 C337 1.776 1_565 S
C1508 C370 1.783 1_455 S
C1510 C997 1.776 . S
C1519 C832 1.781 . S
C1521 C502 1.781 . S
C1530 C865 1.779 . S
C1532 C535 1.782 . S
C1541 C799 1.783 . S
C1543 C568 1.776 . S
C1552 C601 1.775 . S
C1554 C1162 1.779 . S
C1563 C634 1.775 . S
C1565 C1096 1.780 . S
C1574 C1129 1.775 . S
C1576 C667 1.779 . S
C1585 N13 1.379 . S
C1587 N607 1.387 . S
C1596 N640 1.387 . S
C1598 N46 1.382 . S
C1607 N79 1.389 . S
C1609 N673 1.380 . S
C1618 N1102 1.379 . S
C1620 N112 1.387 . S
C1629 N145 1.387 . S
C1631 N1135 1.382 . S
C1640 N1168 1.380 . S
C1642 N178 1.387 . S
C1651 N211 1.383 . S
C1653 N805 1.384 . S
C1662 N244 1.389 . S
C1664 N838 1.381 . S
C1673 N277 1.387 . S
C1675 N871 1.382 . S
C1684 N508 1.386 . S
C1686 N310 1.382 . S
C1695 N541 1.380 . S
C1697 N343 1.387 . S
C1706 N376 1.380 . S
C1708 N574 1.387 . S
C1717 N409 1.388 . S
C1719 N1003 1.380 . S
C1728 N1036 1.389 . S
C1730 N442 1.381 . S
C1739 N475 1.384 . S
C1741 N1069 1.384 . S
C1750 N904 1.383 . S
C1752 N706 1.384 . S
C1761 N739 1.381 . S
C1763 N937 1.386 . S
C1772 N970 1.379 . S
C1774 N772 1.388 . S
C1783 N233 1.536 . S
C1785 C18 1.612 . S
C1794 C51 1.613 . S
C1796 N266 1.529 . S
C1805 C84 1.612 . S
C1807 N200 1.532 . S
C1816 C117 1.612 . S
C1818 N365 1.533 . S
C1827 C150 1.613 . S
C1829 N299 1.530 . S
C1838 C183 1.613 . S
C1840 N332 1.529 . S
C1849 N35 1.536 . S
C1851 C216 1.612 . S
C1860 N68 1.536 . S
C1862 C249 1.612 . S
C1871 N2 1.528 . S
C1873 C282 1.613 . S
C1882 C315 1.612 . S
C1884 N167 1.532 . S
C1893 C348 1.612 . S
C1895 N101 1.532 . S
C1904 C381 1.613 . S
C1906 N134 1.528 . S
C1915 C414 1.611 . S
C1917 N629 1.536 . S
C1926 N662 1.534 . S
C1928 C447 1.612 . S
C1937 N596 1.536 . S
C1939 C480 1.612 . S
C1948 C513 1.612 . S
C1950 N761 1.536 . S
C1959 N695 1.531 . S
C1961 C546 1.612 . S
C1970 N728 1.537 . S
C1972 C579 1.612 . S
C1981 C612 1.613 . S
C1983 N431 1.529 . S
C1992 C645 1.613 . S
C1994 N464 1.529 . S
C2003 N398 1.531 . S
C2005 C678 1.612 . S
C2014 N563 1.530 . S
C2016 C711 1.613 . S
C2025 N497 1.529 . S
C2027 C744 1.612 . S
C2036 N530 1.527 . S
C2038 C777 1.613 . S
C2047 C810 1.612 . S
C2049 N1025 1.532 . S
C2058 N1058 1.529 . S
C2060 C843 1.613 . S
C2069 N992 1.533 . S
C2071 C876 1.612 . S
C2080 C909 1.614 . S
C2082 N1157 1.528 . S
C2091 C942 1.611 . S
C2093 N1091 1.535 . S
C2102 C975 1.613 . S
C2104 N1124 1.530 . S
C2113 N827 1.528 . S
C2115 C1008 1.613 . S
C2124 N860 1.530 . S
C2126 C1041 1.613 . S
C2135 C1074 1.613 . S
C2137 N794 1.528 . S
C2146 C1107 1.612 . S
C2148 N959 1.532 . S
C2157 C1140 1.613 . S
C2159 N893 1.530 . S
C2168 C1173 1.612 . S
C2170 N926 1.534 . S
