# Generated by pormake.
# Topology lvt-a, (3)-cn, num edge types: 1
# Building blocks:
#     Node 0, Type 0, BuildingBlock: WUSLED_clean_sbu_0, # of connection points: 3
#     Node 1, Type 0, BuildingBlock: WUSLED_clean_sbu_0, # of connection points: 3
#     Node 2, Type 0, BuildingBlock: WUSLED_clean_sbu_0, # of connection points: 3
#     Node 3, Type 0, BuildingBlock: WUSLED_clean_sbu_0, # of connection points: 3
#     Node 4, Type 0, BuildingBlock: WUSLED_clean_sbu_0, # of connection points: 3
#     Node 5, Type 0, BuildingBlock: WUSLED_clean_sbu_0, # of connection points: 3
#     Node 6, Type 0, BuildingBlock: WUSLED_clean_sbu_0, # of connection points: 3
#     Node 7, Type 0, BuildingBlock: WUSLED_clean_sbu_0, # of connection points: 3
#     Node 8, Type 0, BuildingBlock: WUSLED_clean_sbu_0, # of connection points: 3
#     Node 9, Type 0, BuildingBlock: WUSLED_clean_sbu_0, # of connection points: 3
#     Node 10, Type 0, BuildingBlock: WUSLED_clean_sbu_0, # of connection points: 3
#     Node 11, Type 0, BuildingBlock: WUSLED_clean_sbu_0, # of connection points: 3
#     Node 12, Type 0, BuildingBlock: WUSLED_clean_sbu_0, # of connection points: 3
#     Node 13, Type 0, BuildingBlock: WUSLED_clean_sbu_0, # of connection points: 3
#     Node 14, Type 0, BuildingBlock: WUSLED_clean_sbu_0, # of connection points: 3
#     Node 15, Type 0, BuildingBlock: WUSLED_clean_sbu_0, # of connection points: 3
#     Node 16, Type 0, BuildingBlock: WUSLED_clean_sbu_0, # of connection points: 3
#     Node 17, Type 0, BuildingBlock: WUSLED_clean_sbu_0, # of connection points: 3
#     Node 18, Type 0, BuildingBlock: WUSLED_clean_sbu_0, # of connection points: 3
#     Node 19, Type 0, BuildingBlock: WUSLED_clean_sbu_0, # of connection points: 3
#     Node 20, Type 0, BuildingBlock: WUSLED_clean_sbu_0, # of connection points: 3
#     Node 21, Type 0, BuildingBlock: WUSLED_clean_sbu_0, # of connection points: 3
#     Node 22, Type 0, BuildingBlock: WUSLED_clean_sbu_0, # of connection points: 3
#     Node 23, Type 0, BuildingBlock: WUSLED_clean_sbu_0, # of connection points: 3
#     Node 24, Type 0, BuildingBlock: WUSLED_clean_sbu_0, # of connection points: 3
#     Node 25, Type 0, BuildingBlock: WUSLED_clean_sbu_0, # of connection points: 3
#     Node 26, Type 0, BuildingBlock: WUSLED_clean_sbu_0, # of connection points: 3
#     Node 27, Type 0, BuildingBlock: WUSLED_clean_sbu_0, # of connection points: 3
#     Node 28, Type 0, BuildingBlock: WUSLED_clean_sbu_0, # of connection points: 3
#     Node 29, Type 0, BuildingBlock: WUSLED_clean_sbu_0, # of connection points: 3
#     Node 30, Type 0, BuildingBlock: WUSLED_clean_sbu_0, # of connection points: 3
#     Node 31, Type 0, BuildingBlock: WUSLED_clean_sbu_0, # of connection points: 3
#     Edge 32, Type (0, 0), BuildingBlock: AJUNOK_clean_linker_0, # of connection points: 2
#     Edge 33, Type (0, 0), BuildingBlock: AJUNOK_clean_linker_0, # of connection points: 2
#     Edge 34, Type (0, 0), BuildingBlock: AJUNOK_clean_linker_0, # of connection points: 2
#     Edge 35, Type (0, 0), BuildingBlock: AJUNOK_clean_linker_0, # of connection points: 2
#     Edge 36, Type (0, 0), BuildingBlock: AJUNOK_clean_linker_0, # of connection points: 2
#     Edge 37, Type (0, 0), BuildingBlock: AJUNOK_clean_linker_0, # of connection points: 2
#     Edge 38, Type (0, 0), BuildingBlock: AJUNOK_clean_linker_0, # of connection points: 2
#     Edge 39, Type (0, 0), BuildingBlock: AJUNOK_clean_linker_0, # of connection points: 2
#     Edge 40, Type (0, 0), BuildingBlock: AJUNOK_clean_linker_0, # of connection points: 2
#     Edge 41, Type (0, 0), BuildingBlock: AJUNOK_clean_linker_0, # of connection points: 2
#     Edge 42, Type (0, 0), BuildingBlock: AJUNOK_clean_linker_0, # of connection points: 2
#     Edge 43, Type (0, 0), BuildingBlock: AJUNOK_clean_linker_0, # of connection points: 2
#     Edge 44, Type (0, 0), BuildingBlock: AJUNOK_clean_linker_0, # of connection points: 2
#     Edge 45, Type (0, 0), BuildingBlock: AJUNOK_clean_linker_0, # of connection points: 2
#     Edge 46, Type (0, 0), BuildingBlock: AJUNOK_clean_linker_0, # of connection points: 2
#     Edge 47, Type (0, 0), BuildingBlock: AJUNOK_clean_linker_0, # of connection points: 2
#     Edge 48, Type (0, 0), BuildingBlock: AJUNOK_clean_linker_0, # of connection points: 2
#     Edge 49, Type (0, 0), BuildingBlock: AJUNOK_clean_linker_0, # of connection points: 2
#     Edge 50, Type (0, 0), BuildingBlock: AJUNOK_clean_linker_0, # of connection points: 2
#     Edge 51, Type (0, 0), BuildingBlock: AJUNOK_clean_linker_0, # of connection points: 2
#     Edge 52, Type (0, 0), BuildingBlock: AJUNOK_clean_linker_0, # of connection points: 2
#     Edge 53, Type (0, 0), BuildingBlock: AJUNOK_clean_linker_0, # of connection points: 2
#     Edge 54, Type (0, 0), BuildingBlock: AJUNOK_clean_linker_0, # of connection points: 2
#     Edge 55, Type (0, 0), BuildingBlock: AJUNOK_clean_linker_0, # of connection points: 2
#     Edge 56, Type (0, 0), BuildingBlock: AJUNOK_clean_linker_0, # of connection points: 2
#     Edge 57, Type (0, 0), BuildingBlock: AJUNOK_clean_linker_0, # of connection points: 2
#     Edge 58, Type (0, 0), BuildingBlock: AJUNOK_clean_linker_0, # of connection points: 2
#     Edge 59, Type (0, 0), BuildingBlock: AJUNOK_clean_linker_0, # of connection points: 2
#     Edge 60, Type (0, 0), BuildingBlock: AJUNOK_clean_linker_0, # of connection points: 2
#     Edge 61, Type (0, 0), BuildingBlock: AJUNOK_clean_linker_0, # of connection points: 2
#     Edge 62, Type (0, 0), BuildingBlock: AJUNOK_clean_linker_0, # of connection points: 2
#     Edge 63, Type (0, 0), BuildingBlock: AJUNOK_clean_linker_0, # of connection points: 2
#     Edge 64, Type (0, 0), BuildingBlock: AJUNOK_clean_linker_0, # of connection points: 2
#     Edge 65, Type (0, 0), BuildingBlock: AJUNOK_clean_linker_0, # of connection points: 2
#     Edge 66, Type (0, 0), BuildingBlock: AJUNOK_clean_linker_0, # of connection points: 2
#     Edge 67, Type (0, 0), BuildingBlock: AJUNOK_clean_linker_0, # of connection points: 2
#     Edge 68, Type (0, 0), BuildingBlock: AJUNOK_clean_linker_0, # of connection points: 2
#     Edge 69, Type (0, 0), BuildingBlock: AJUNOK_clean_linker_0, # of connection points: 2
#     Edge 70, Type (0, 0), BuildingBlock: AJUNOK_clean_linker_0, # of connection points: 2
#     Edge 71, Type (0, 0), BuildingBlock: AJUNOK_clean_linker_0, # of connection points: 2
#     Edge 72, Type (0, 0), BuildingBlock: AJUNOK_clean_linker_0, # of connection points: 2
#     Edge 73, Type (0, 0), BuildingBlock: AJUNOK_clean_linker_0, # of connection points: 2
#     Edge 74, Type (0, 0), BuildingBlock: AJUNOK_clean_linker_0, # of connection points: 2
#     Edge 75, Type (0, 0), BuildingBlock: AJUNOK_clean_linker_0, # of connection points: 2
#     Edge 76, Type (0, 0), BuildingBlock: AJUNOK_clean_linker_0, # of connection points: 2
#     Edge 77, Type (0, 0), BuildingBlock: AJUNOK_clean_linker_0, # of connection points: 2
#     Edge 78, Type (0, 0), BuildingBlock: AJUNOK_clean_linker_0, # of connection points: 2
#     Edge 79, Type (0, 0), BuildingBlock: AJUNOK_clean_linker_0, # of connection points: 2
# Relax obj value: 0.110
# Max RMSD: 0.101
# Mean RMSD: 0.094
data_MOF--net-lvt-a--node1-WUSLED_clean_sbu_0--edge1-AJUNOK_clean_linker_0
_symmetry_space_group_name_H-M    P1
_symmetry_Int_Tables_number       1
_symmetry_cell_setting            triclinic
loop_
_symmetry_equiv_pos_as_xyz
'x, y, z'
_cell_length_a     75.337394
_cell_length_b     78.624706
_cell_length_c     128.43515
_cell_angle_alpha  89.987827
_cell_angle_beta   90.02324
_cell_angle_gamma 90.000785
loop_
_atom_site_label
_atom_site_type_symbol
_atom_site_fract_x
_atom_site_fract_y
_atom_site_fract_z
_atom_type_partial_charge
C0 C 0.15474 0.51275 0.05023 0.0
C1 C 0.14277 0.50194 0.04508 0.0
C2 C 0.1577 0.50725 0.0286 0.0
C3 C 0.14432 0.49913 0.03437 0.0
C4 C 0.1698 0.51791 0.0338 0.0
C5 C 0.16831 0.52064 0.04454 0.0
U6 U 0.1248 0.51465 0.0737 0.0
O7 O 0.12903 0.50802 0.09021 0.0
O8 O 0.12125 0.534 0.08585 0.0
C9 C 0.12626 0.52371 0.09337 0.0
C10 C 0.15249 0.51653 0.06139 0.0
C11 C 0.13915 0.53063 0.10089 0.0
C12 C 0.16329 0.54983 0.10539 0.0
C13 C 0.15229 0.54233 0.09789 0.0
C14 C 0.14859 0.53359 0.1189 0.0
C15 C 0.16142 0.54568 0.116 0.0
C16 C 0.13757 0.52616 0.11141 0.0
C17 C 0.07623 0.50164 0.06898 0.0
C18 C 0.0512 0.50907 0.08002 0.0
C19 C 0.04686 0.49066 0.06511 0.0
C20 C 0.06495 0.49169 0.06282 0.0
C21 C 0.03972 0.49965 0.07359 0.0
C22 C 0.06935 0.51007 0.07773 0.0
C23 C 0.09474 0.50398 0.06568 0.0
O24 O 0.14218 0.5296 0.06341 0.0
O25 O 0.14925 0.50334 0.0674 0.0
O26 O 0.1065 0.49367 0.06984 0.0
O27 O 0.10017 0.51984 0.06517 0.0
H28 H 0.13206 0.49588 0.04932 0.0
H29 H 0.13477 0.49094 0.03055 0.0
H30 H 0.18037 0.52415 0.02955 0.0
H31 H 0.17762 0.52907 0.04838 0.0
H32 H 0.17282 0.55933 0.10292 0.0
H33 H 0.15374 0.54598 0.0898 0.0
H34 H 0.14691 0.53006 0.12699 0.0
H35 H 0.12752 0.51715 0.11388 0.0
H36 H 0.04609 0.51591 0.0867 0.0
H37 H 0.03833 0.48338 0.05998 0.0
H38 H 0.07004 0.48512 0.05603 0.0
H39 H 0.07791 0.51775 0.08261 0.0
C40 C 0.73588 0.88913 0.30047 0.0
C41 C 0.74855 0.87835 0.29591 0.0
C42 C 0.74329 0.89124 0.27893 0.0
C43 C 0.75226 0.87944 0.28526 0.0
C44 C 0.73055 0.90197 0.28352 0.0
C45 C 0.72693 0.90095 0.29421 0.0
U46 U 0.73237 0.86139 0.32434 0.0
O47 O 0.73895 0.86579 0.34085 0.0
O48 O 0.71176 0.85888 0.33634 0.0
C49 C 0.72248 0.86349 0.34392 0.0
C50 C 0.7313 0.88744 0.3116 0.0
C51 C 0.71544 0.87602 0.35139 0.0
C52 C 0.6977 0.90095 0.35556 0.0
C53 C 0.70523 0.89 0.34817 0.0
C54 C 0.7109 0.88433 0.36943 0.0
C55 C 0.70039 0.89817 0.36628 0.0
C56 C 0.71836 0.87339 0.36205 0.0
C57 C 0.74609 0.8144 0.32013 0.0
C58 C 0.73479 0.78787 0.3273 0.0
C59 C 0.76332 0.7884 0.31862 0.0
C60 C 0.76144 0.80585 0.31688 0.0
C61 C 0.74984 0.77915 0.32364 0.0
C62 C 0.73294 0.80537 0.32558 0.0
C63 C 0.74347 0.83221 0.31684 0.0
O64 O 0.71743 0.87781 0.31354 0.0
O65 O 0.7447 0.88448 0.31792 0.0
O66 O 0.75424 0.84358 0.32089 0.0
O67 O 0.72696 0.83749 0.31611 0.0
H68 H 0.75547 0.86895 0.30057 0.0
H69 H 0.76215 0.87101 0.28197 0.0
H70 H 0.72307 0.91089 0.27883 0.0
H71 H 0.71693 0.90921 0.29755 0.0
H72 H 0.68966 0.91153 0.35291 0.0
H73 H 0.70283 0.89227 0.33997 0.0
H74 H 0.71291 0.88163 0.37761 0.0
H75 H 0.72613 0.86261 0.36469 0.0
H76 H 0.72405 0.78105 0.33104 0.0
H77 H 0.77511 0.78204 0.31578 0.0
H78 H 0.77173 0.81256 0.31265 0.0
H79 H 0.72095 0.81168 0.32818 0.0
C80 C 0.346 0.48815 0.5497 0.0
C81 C 0.36154 0.49045 0.54385 0.0
C82 C 0.34403 0.49597 0.52828 0.0
C83 C 0.36057 0.49421 0.53324 0.0
C84 C 0.32846 0.49347 0.53414 0.0
C85 C 0.32945 0.48963 0.54479 0.0
U86 U 0.37468 0.48627 0.57347 0.0
O87 O 0.37022 0.49332 0.58988 0.0
O88 O 0.37797 0.46721 0.58581 0.0
C89 C 0.37313 0.47776 0.59323 0.0
C90 C 0.3473 0.48445 0.56092 0.0
C91 C 0.36051 0.471 0.60093 0.0
C92 C 0.33473 0.45395 0.60551 0.0
C93 C 0.34542 0.46172 0.59794 0.0
C94 C 0.35378 0.46517 0.61907 0.0
C95 C 0.33899 0.45538 0.61614 0.0
C96 C 0.36441 0.47291 0.61153 0.0
C97 C 0.42351 0.49923 0.56878 0.0
C98 C 0.45091 0.48893 0.57659 0.0
C99 C 0.45088 0.51521 0.56675 0.0
C100 C 0.43269 0.51342 0.56496 0.0
C101 C 0.46027 0.50279 0.57239 0.0
C102 C 0.43266 0.48718 0.57484 0.0
C103 C 0.40493 0.49662 0.56556 0.0
O104 O 0.35724 0.47125 0.56327 0.0
O105 O 0.3505 0.49774 0.56684 0.0
O106 O 0.39312 0.5071 0.56951 0.0
O107 O 0.39942 0.48077 0.56513 0.0
H108 H 0.37446 0.48933 0.5475 0.0
H109 H 0.3728 0.49563 0.5289 0.0
H110 H 0.31554 0.49473 0.53052 0.0
H111 H 0.31732 0.4879 0.5492 0.0
H112 H 0.32358 0.44626 0.60302 0.0
H113 H 0.34223 0.46006 0.58978 0.0
H114 H 0.35733 0.46654 0.6272 0.0
H115 H 0.37601 0.48003 0.61397 0.0
H116 H 0.45782 0.47901 0.58082 0.0
H117 H 0.45773 0.52608 0.56347 0.0
H118 H 0.42589 0.52286 0.56027 0.0
H119 H 0.42586 0.47611 0.57789 0.0
C120 C 0.76549 0.11306 0.79947 0.0
C121 C 0.75364 0.12476 0.79499 0.0
C122 C 0.7568 0.11097 0.77812 0.0
C123 C 0.7493 0.12369 0.78442 0.0
C124 C 0.76873 0.09933 0.78261 0.0
C125 C 0.77299 0.10034 0.79322 0.0
U126 U 0.77012 0.14043 0.82345 0.0
O127 O 0.76501 0.13567 0.84006 0.0
O128 O 0.79173 0.14301 0.8349 0.0
C129 C 0.78172 0.13796 0.8427 0.0
C130 C 0.77072 0.11464 0.81049 0.0
C131 C 0.78974 0.12553 0.85 0.0
C132 C 0.78764 0.10073 0.86135 0.0
C133 C 0.78034 0.11124 0.85363 0.0
C134 C 0.81392 0.11841 0.86181 0.0
C135 C 0.80447 0.10428 0.86557 0.0
C136 C 0.80663 0.12891 0.85414 0.0
C137 C 0.75567 0.1872 0.82014 0.0
C138 C 0.76548 0.21169 0.83017 0.0
C139 C 0.74122 0.21455 0.8179 0.0
C140 C 0.74266 0.19732 0.81541 0.0
C141 C 0.75277 0.22198 0.8252 0.0
C142 C 0.76687 0.19439 0.82769 0.0
C143 C 0.75807 0.16962 0.81648 0.0
O144 O 0.78454 0.12446 0.81218 0.0
O145 O 0.75767 0.11733 0.8171 0.0
O146 O 0.7478 0.15803 0.82073 0.0
O147 O 0.77457 0.16458 0.8153 0.0
H148 H 0.74792 0.13487 0.79964 0.0
H149 H 0.74037 0.13306 0.78112 0.0
H150 H 0.77474 0.08943 0.77792 0.0
H151 H 0.78228 0.0913 0.79651 0.0
H152 H 0.77989 0.09011 0.86421 0.0
H153 H 0.7672 0.10837 0.8507 0.0
H154 H 0.82695 0.12143 0.86486 0.0
H155 H 0.81409 0.13994 0.85158 0.0
H156 H 0.77455 0.2171 0.83581 0.0
H157 H 0.73157 0.22222 0.81377 0.0
H158 H 0.73397 0.19201 0.80952 0.0
H159 H 0.777 0.18676 0.83145 0.0
C160 C 0.15468 0.48951 0.96222 0.0
C161 C 0.14272 0.50062 0.96712 0.0
C162 C 0.15764 0.49631 0.98373 0.0
C163 C 0.14422 0.50403 0.97777 0.0
C164 C 0.16955 0.48512 0.97881 0.0
C165 C 0.16811 0.48179 0.96813 0.0
U166 U 0.12494 0.48669 0.93872 0.0
O167 O 0.12917 0.49293 0.92217 0.0
O168 O 0.12161 0.467 0.92674 0.0
C169 C 0.12652 0.47716 0.91914 0.0
C170 C 0.15256 0.48527 0.95112 0.0
C171 C 0.13956 0.47017 0.91175 0.0
C172 C 0.16554 0.45296 0.90787 0.0
C173 C 0.15413 0.4605 0.91514 0.0
C174 C 0.14827 0.46513 0.8938 0.0
C175 C 0.16265 0.4551 0.89712 0.0
C176 C 0.13685 0.47259 0.90106 0.0
C177 C 0.07632 0.49977 0.94324 0.0
C178 C 0.05138 0.49229 0.93214 0.0
C179 C 0.04692 0.51067 0.94705 0.0
C180 C 0.06499 0.50968 0.94938 0.0
C181 C 0.03985 0.50168 0.93855 0.0
C182 C 0.06952 0.49133 0.93447 0.0
C183 C 0.09483 0.4975 0.94658 0.0
O184 O 0.1423 0.47211 0.94924 0.0
O185 O 0.14936 0.49823 0.94491 0.0
O186 O 0.10659 0.50772 0.94235 0.0
O187 O 0.10026 0.48166 0.94723 0.0
H188 H 0.13205 0.50648 0.96274 0.0
H189 H 0.13462 0.5124 0.98139 0.0
H190 H 0.17996 0.47896 0.98325 0.0
H191 H 0.17735 0.47305 0.9645 0.0
H192 H 0.17653 0.44531 0.91064 0.0
H193 H 0.15647 0.45851 0.92337 0.0
H194 H 0.14549 0.46673 0.88558 0.0
H195 H 0.12563 0.47995 0.8983 0.0
H196 H 0.04632 0.48546 0.92544 0.0
H197 H 0.03834 0.51793 0.95216 0.0
H198 H 0.07003 0.51626 0.95619 0.0
H199 H 0.07813 0.48367 0.92961 0.0
C200 C 0.76549 0.8893 0.21268 0.0
C201 C 0.75142 0.87984 0.21692 0.0
C202 C 0.75748 0.89149 0.23415 0.0
C203 C 0.74742 0.88099 0.22753 0.0
C204 C 0.77158 0.90093 0.22987 0.0
C205 C 0.77549 0.89989 0.21922 0.0
U206 U 0.76974 0.86132 0.18889 0.0
O207 O 0.76458 0.86569 0.17225 0.0
O208 O 0.79129 0.85836 0.17745 0.0
C209 C 0.78127 0.86328 0.16962 0.0
C210 C 0.77054 0.88738 0.20163 0.0
C211 C 0.78932 0.87556 0.16225 0.0
C212 C 0.7878 0.90094 0.15137 0.0
C213 C 0.78045 0.89043 0.15907 0.0
C214 C 0.81309 0.88208 0.15006 0.0
C215 C 0.80417 0.89682 0.14674 0.0
C216 C 0.80573 0.87158 0.1577 0.0
C217 C 0.75534 0.81467 0.19276 0.0
C218 C 0.76366 0.79071 0.18184 0.0
C219 C 0.7432 0.78664 0.19618 0.0
C220 C 0.74432 0.80393 0.19857 0.0
C221 C 0.75315 0.77976 0.18793 0.0
C222 C 0.76476 0.80806 0.18424 0.0
C223 C 0.7577 0.83234 0.19621 0.0
O224 O 0.78433 0.87751 0.19997 0.0
O225 O 0.75744 0.88463 0.19506 0.0
O226 O 0.74743 0.84379 0.19181 0.0
O227 O 0.77422 0.83739 0.19728 0.0
H228 H 0.74365 0.87139 0.21206 0.0
H229 H 0.73648 0.87356 0.23058 0.0
H230 H 0.7799 0.90879 0.23478 0.0
H231 H 0.78657 0.90708 0.21614 0.0
H232 H 0.78045 0.91205 0.14886 0.0
H233 H 0.76768 0.89378 0.16235 0.0
H234 H 0.82576 0.87862 0.14669 0.0
H235 H 0.81278 0.86012 0.15993 0.0
H236 H 0.77124 0.7858 0.17534 0.0
H237 H 0.73508 0.77852 0.20104 0.0
H238 H 0.73698 0.80882 0.20518 0.0
H239 H 0.77328 0.81622 0.17963 0.0
C240 C 0.3471 0.51433 0.46198 0.0
C241 C 0.36237 0.51103 0.4679 0.0
C242 C 0.3445 0.50863 0.4836 0.0
C243 C 0.36109 0.50824 0.47861 0.0
C244 C 0.32914 0.51139 0.4776 0.0
C245 C 0.33045 0.51432 0.46686 0.0
U246 U 0.37626 0.51601 0.43835 0.0
O247 O 0.37165 0.51097 0.4217 0.0
O248 O 0.381 0.53612 0.42677 0.0
C249 C 0.3755 0.52669 0.41897 0.0
C250 C 0.3488 0.51828 0.45081 0.0
C251 C 0.36343 0.53515 0.41157 0.0
C252 C 0.33423 0.54004 0.404 0.0
C253 C 0.34515 0.53162 0.4112 0.0
C254 C 0.35974 0.55554 0.39752 0.0
C255 C 0.34144 0.55223 0.39719 0.0
C256 C 0.37061 0.54708 0.40464 0.0
C257 C 0.42451 0.50107 0.44289 0.0
C258 C 0.45272 0.51186 0.43646 0.0
C259 C 0.45116 0.48379 0.44416 0.0
C260 C 0.43293 0.48586 0.44572 0.0
C261 C 0.46135 0.49701 0.43985 0.0
C262 C 0.43444 0.51389 0.43795 0.0
C263 C 0.40592 0.50385 0.44607 0.0
O264 O 0.35936 0.53115 0.44875 0.0
O265 O 0.35154 0.50513 0.4447 0.0
O266 O 0.39385 0.49419 0.44163 0.0
O267 O 0.40091 0.51977 0.44712 0.0
H268 H 0.37534 0.51085 0.46425 0.0
H269 H 0.37309 0.50583 0.48302 0.0
H270 H 0.3162 0.51168 0.48128 0.0
H271 H 0.31852 0.5168 0.4624 0.0
H272 H 0.32015 0.53728 0.40387 0.0
H273 H 0.33931 0.52245 0.41648 0.0
H274 H 0.36568 0.56465 0.39224 0.0
H275 H 0.38469 0.5499 0.40475 0.0
H276 H 0.46023 0.52225 0.43309 0.0
H277 H 0.45739 0.47204 0.44663 0.0
H278 H 0.4255 0.47578 0.44949 0.0
H279 H 0.42825 0.52572 0.43562 0.0
C280 C 0.73508 0.11301 0.71195 0.0
C281 C 0.74678 0.12454 0.71671 0.0
C282 C 0.74205 0.11094 0.73352 0.0
C283 C 0.75032 0.12344 0.72738 0.0
C284 C 0.73045 0.09932 0.72871 0.0
C285 C 0.72699 0.10036 0.71801 0.0
U286 U 0.73219 0.1407 0.68805 0.0
O287 O 0.73862 0.13612 0.67155 0.0
O288 O 0.7116 0.14354 0.67605 0.0
C289 C 0.72221 0.13877 0.66847 0.0
C290 C 0.73064 0.11469 0.70081 0.0
C291 C 0.71486 0.12637 0.66105 0.0
C292 C 0.69967 0.09984 0.65712 0.0
C293 C 0.70748 0.11089 0.66436 0.0
C294 C 0.70695 0.11943 0.6432 0.0
C295 C 0.6991 0.10412 0.64647 0.0
C296 C 0.71472 0.13045 0.65043 0.0
C297 C 0.74655 0.18749 0.6922 0.0
C298 C 0.73558 0.214 0.68483 0.0
C299 C 0.76385 0.21343 0.69381 0.0
C300 C 0.76184 0.19601 0.69559 0.0
C301 C 0.75056 0.2227 0.68862 0.0
C302 C 0.7336 0.19653 0.68658 0.0
C303 C 0.74373 0.16973 0.69553 0.0
O304 O 0.71694 0.12451 0.69881 0.0
O305 O 0.74415 0.11747 0.69455 0.0
O306 O 0.75433 0.15822 0.69147 0.0
O307 O 0.72716 0.16466 0.69628 0.0
H308 H 0.75302 0.13454 0.7122 0.0
H309 H 0.75924 0.1326 0.7309 0.0
H310 H 0.72407 0.08942 0.73323 0.0
H311 H 0.71788 0.09139 0.71448 0.0
H312 H 0.69401 0.08798 0.65984 0.0
H313 H 0.70756 0.10749 0.67253 0.0
H314 H 0.70665 0.12312 0.63508 0.0
H315 H 0.72036 0.14234 0.64773 0.0
H316 H 0.72498 0.22084 0.68096 0.0
H317 H 0.77558 0.21977 0.69676 0.0
H318 H 0.77197 0.18929 0.69995 0.0
H319 H 0.72166 0.19024 0.68388 0.0
C320 C 0.84819 0.48741 0.96198 0.0
C321 C 0.8587 0.50005 0.96664 0.0
C322 C 0.84557 0.49396 0.98357 0.0
C323 C 0.85735 0.50334 0.9773 0.0
C324 C 0.83504 0.48131 0.97887 0.0
C325 C 0.83631 0.47811 0.96817 0.0
U326 U 0.87797 0.4849 0.93848 0.0
O327 O 0.88159 0.46525 0.92651 0.0
O328 O 0.87375 0.4911 0.92191 0.0
C329 C 0.87664 0.47537 0.91889 0.0
C330 C 0.85038 0.48318 0.95087 0.0
C331 C 0.86389 0.46827 0.91135 0.0
C332 C 0.83938 0.44946 0.90692 0.0
C333 C 0.85035 0.45705 0.91441 0.0
C334 C 0.85499 0.46461 0.89329 0.0
C335 C 0.84169 0.45304 0.89627 0.0
C336 C 0.86596 0.47214 0.90076 0.0
C337 C 0.92638 0.49865 0.94309 0.0
C338 C 0.9515 0.49153 0.93204 0.0
C339 C 0.95559 0.50998 0.94696 0.0
C340 C 0.93753 0.50873 0.94925 0.0
C341 C 0.96285 0.5011 0.93847 0.0
C342 C 0.93337 0.4903 0.93434 0.0
C343 C 0.9079 0.49611 0.94639 0.0
O344 O 0.85336 0.49613 0.94462 0.0
O345 O 0.8608 0.47012 0.949 0.0
O346 O 0.9027 0.4802 0.94702 0.0
O347 O 0.896 0.50618 0.94214 0.0
H348 H 0.86815 0.50725 0.96205 0.0
H349 H 0.86561 0.51318 0.98067 0.0
H350 H 0.82617 0.47356 0.98351 0.0
H351 H 0.82828 0.46813 0.96475 0.0
H352 H 0.82947 0.44037 0.90945 0.0
H353 H 0.84853 0.45386 0.92254 0.0
H354 H 0.85703 0.4677 0.88516 0.0
H355 H 0.87632 0.48077 0.89825 0.0
H356 H 0.9567 0.48477 0.92536 0.0
H357 H 0.96402 0.51737 0.95208 0.0
H358 H 0.93235 0.51524 0.95604 0.0
H359 H 0.9249 0.48251 0.92946 0.0
C360 C 0.26591 0.11407 0.71275 0.0
C361 C 0.26379 0.12916 0.71846 0.0
C362 C 0.25671 0.11293 0.73407 0.0
C363 C 0.25935 0.1286 0.72901 0.0
C364 C 0.25906 0.09781 0.72836 0.0
C365 C 0.26358 0.09839 0.71777 0.0
U366 U 0.26934 0.14074 0.68866 0.0
O367 O 0.2895 0.14287 0.67639 0.0
O368 O 0.26205 0.13626 0.67225 0.0
C369 C 0.27841 0.13848 0.66895 0.0
C370 C 0.27018 0.11489 0.70156 0.0
C371 C 0.28507 0.12625 0.66118 0.0
C372 C 0.30375 0.10235 0.65617 0.0
C373 C 0.29614 0.11258 0.66393 0.0
C374 C 0.28885 0.11899 0.64292 0.0
C375 C 0.30039 0.10563 0.64557 0.0
C376 C 0.28127 0.12917 0.65065 0.0
C377 C 0.25674 0.18785 0.69288 0.0
C378 C 0.26474 0.21188 0.68192 0.0
C379 C 0.24451 0.21581 0.69639 0.0
C380 C 0.24578 0.19853 0.69877 0.0
C381 C 0.25426 0.22275 0.68808 0.0
C382 C 0.26598 0.19453 0.68431 0.0
C383 C 0.25909 0.17014 0.69627 0.0
O384 O 0.25658 0.11808 0.69544 0.0
O385 O 0.28427 0.124 0.69924 0.0
O386 O 0.27555 0.16465 0.69669 0.0
O387 O 0.24799 0.15895 0.69235 0.0
H388 H 0.26555 0.14141 0.71473 0.0
H389 H 0.25807 0.14045 0.73323 0.0
H390 H 0.25713 0.08556 0.73205 0.0
H391 H 0.26513 0.08661 0.71348 0.0
H392 H 0.31281 0.09232 0.65845 0.0
H393 H 0.2993 0.11013 0.67202 0.0
H394 H 0.28595 0.12178 0.63483 0.0
H395 H 0.27279 0.13967 0.64837 0.0
H396 H 0.27217 0.21685 0.67538 0.0
H397 H 0.23642 0.22388 0.70131 0.0
H398 H 0.23857 0.19359 0.70541 0.0
H399 H 0.27444 0.18643 0.67963 0.0
C400 C 0.65252 0.51499 0.4622 0.0
C401 C 0.63695 0.51274 0.46804 0.0
C402 C 0.65434 0.50953 0.48389 0.0
C403 C 0.63785 0.51007 0.47878 0.0
C404 C 0.66996 0.51139 0.47799 0.0
C405 C 0.66904 0.51418 0.46722 0.0
U406 U 0.62437 0.51579 0.43811 0.0
O407 O 0.62117 0.53466 0.42565 0.0
O408 O 0.62956 0.50866 0.42178 0.0
C409 C 0.62664 0.52417 0.41835 0.0
C410 C 0.65134 0.51824 0.45093 0.0
C411 C 0.63976 0.5311 0.41099 0.0
C412 C 0.66546 0.54871 0.40713 0.0
C413 C 0.65414 0.54102 0.41439 0.0
C414 C 0.6485 0.5362 0.39305 0.0
C415 C 0.66266 0.5465 0.39638 0.0
C416 C 0.63718 0.52857 0.4003 0.0
C417 C 0.57547 0.50218 0.44256 0.0
C418 C 0.54699 0.51269 0.43635 0.0
C419 C 0.54912 0.48446 0.44378 0.0
C420 C 0.56733 0.48677 0.44528 0.0
C421 C 0.53866 0.49763 0.43964 0.0
C422 C 0.56525 0.51497 0.43779 0.0
C423 C 0.59403 0.50517 0.44577 0.0
O424 O 0.64844 0.50473 0.44515 0.0
O425 O 0.64129 0.53124 0.44836 0.0
O426 O 0.59932 0.52109 0.44617 0.0
O427 O 0.60608 0.49479 0.44197 0.0
H428 H 0.62407 0.51314 0.46429 0.0
H429 H 0.62564 0.50833 0.4831 0.0
H430 H 0.68283 0.51096 0.48175 0.0
H431 H 0.68119 0.51581 0.46282 0.0
H432 H 0.67628 0.55657 0.40991 0.0
H433 H 0.65636 0.54312 0.42262 0.0
H434 H 0.64579 0.53453 0.38483 0.0
H435 H 0.62608 0.52104 0.39753 0.0
H436 H 0.53924 0.52304 0.43312 0.0
H437 H 0.54311 0.47257 0.44618 0.0
H438 H 0.57496 0.47671 0.44893 0.0
H439 H 0.57118 0.52698 0.43556 0.0
C440 C 0.23371 0.88732 0.21244 0.0
C441 C 0.23636 0.87251 0.21834 0.0
C442 C 0.24192 0.88949 0.23387 0.0
C443 C 0.24041 0.87358 0.22894 0.0
C444 C 0.2394 0.90432 0.2279 0.0
C445 C 0.23529 0.90324 0.21727 0.0
U446 U 0.22992 0.85995 0.18855 0.0
O447 O 0.20973 0.85807 0.17626 0.0
O448 O 0.23731 0.86413 0.17212 0.0
C449 C 0.2209 0.86232 0.16883 0.0
C450 C 0.22951 0.88607 0.20126 0.0
C451 C 0.21453 0.87489 0.16115 0.0
C452 C 0.19596 0.89893 0.15625 0.0
C453 C 0.20306 0.88823 0.16393 0.0
C454 C 0.21211 0.88343 0.143 0.0
C455 C 0.20027 0.89653 0.14568 0.0
C456 C 0.21917 0.87274 0.15066 0.0
C457 C 0.24173 0.81265 0.19303 0.0
C458 C 0.23313 0.78838 0.18243 0.0
C459 C 0.25409 0.78475 0.19658 0.0
C460 C 0.25296 0.80208 0.19882 0.0
C461 C 0.24393 0.77763 0.1885 0.0
C462 C 0.23204 0.80579 0.18468 0.0
C463 C 0.23962 0.83046 0.19629 0.0
O464 O 0.24308 0.88248 0.19521 0.0
O465 O 0.2153 0.87706 0.19904 0.0
O466 O 0.22326 0.83621 0.19666 0.0
O467 O 0.25093 0.84143 0.19234 0.0
H468 H 0.23527 0.8601 0.21473 0.0
H469 H 0.2422 0.86192 0.23332 0.0
H470 H 0.24084 0.91677 0.23142 0.0
H471 H 0.23343 0.91481 0.21282 0.0
H472 H 0.18663 0.90872 0.15855 0.0
H473 H 0.19925 0.89009 0.17198 0.0
H474 H 0.21576 0.88131 0.13495 0.0
H475 H 0.22797 0.86251 0.14835 0.0
H476 H 0.22538 0.78327 0.17606 0.0
H477 H 0.26243 0.77678 0.20142 0.0
H478 H 0.26053 0.80716 0.2053 0.0
H479 H 0.22336 0.8138 0.18007 0.0
C480 C 0.84797 0.51362 0.04993 0.0
C481 C 0.85824 0.50057 0.04552 0.0
C482 C 0.8453 0.50616 0.02846 0.0
C483 C 0.85686 0.49684 0.0349 0.0
C484 C 0.83497 0.51917 0.03293 0.0
C485 C 0.83627 0.52282 0.04358 0.0
U486 U 0.8781 0.51728 0.07327 0.0
O487 O 0.88225 0.53805 0.08452 0.0
O488 O 0.87411 0.51274 0.09 0.0
C489 C 0.87719 0.52871 0.09248 0.0
C490 C 0.8504 0.51852 0.06093 0.0
C491 C 0.86475 0.53686 0.09984 0.0
C492 C 0.8365 0.53816 0.10902 0.0
C493 C 0.84751 0.53058 0.10155 0.0
C494 C 0.85967 0.55846 0.11305 0.0
C495 C 0.84248 0.55218 0.11486 0.0
C496 C 0.87066 0.55087 0.10563 0.0
C497 C 0.92624 0.50253 0.06891 0.0
C498 C 0.95135 0.50984 0.07992 0.0
C499 C 0.95545 0.49116 0.06511 0.0
C500 C 0.93738 0.49236 0.06281 0.0
C501 C 0.96271 0.50018 0.07354 0.0
C502 C 0.93322 0.51103 0.07761 0.0
C503 C 0.90775 0.50499 0.0656 0.0
O504 O 0.85325 0.50596 0.0675 0.0
O505 O 0.86106 0.53152 0.0624 0.0
O506 O 0.90276 0.52089 0.06447 0.0
O507 O 0.89577 0.49548 0.07024 0.0
H508 H 0.86757 0.49345 0.05023 0.0
H509 H 0.86498 0.48674 0.0317 0.0
H510 H 0.82628 0.52687 0.02815 0.0
H511 H 0.82844 0.5331 0.04681 0.0
H512 H 0.82343 0.53284 0.11036 0.0
H513 H 0.84263 0.51973 0.09722 0.0
H514 H 0.86461 0.56931 0.11736 0.0
H515 H 0.88392 0.55589 0.10447 0.0
H516 H 0.95655 0.5167 0.08656 0.0
H517 H 0.96388 0.48369 0.06003 0.0
H518 H 0.9322 0.48574 0.05606 0.0
H519 H 0.92475 0.51889 0.08243 0.0
C520 C 0.23287 0.11497 0.8 0.0
C521 C 0.23644 0.12986 0.79435 0.0
C522 C 0.24024 0.11336 0.77847 0.0
C523 C 0.24007 0.12907 0.78369 0.0
C524 C 0.2371 0.0984 0.7842 0.0
C525 C 0.23336 0.09921 0.79489 0.0
U526 U 0.22939 0.14185 0.82408 0.0
O527 O 0.20835 0.1446 0.83586 0.0
O528 O 0.23526 0.13709 0.84061 0.0
C529 C 0.21874 0.1397 0.84352 0.0
C530 C 0.22839 0.11604 0.81115 0.0
C531 C 0.21096 0.12758 0.85103 0.0
C532 C 0.20979 0.09996 0.8596 0.0
C533 C 0.21697 0.11072 0.85197 0.0
C534 C 0.19046 0.1227 0.86534 0.0
C535 C 0.19646 0.10586 0.86638 0.0
C536 C 0.19764 0.13341 0.85776 0.0
C537 C 0.24325 0.18872 0.82033 0.0
C538 C 0.23368 0.21336 0.83029 0.0
C539 C 0.25763 0.21604 0.81781 0.0
C540 C 0.25613 0.19877 0.81543 0.0
C541 C 0.24627 0.22358 0.82517 0.0
C542 C 0.23223 0.19602 0.82792 0.0
C543 C 0.24081 0.17107 0.8168 0.0
O544 O 0.24186 0.11894 0.81741 0.0
O545 O 0.2145 0.12554 0.81326 0.0
O546 O 0.2243 0.16587 0.81591 0.0
O547 O 0.2514 0.15963 0.82094 0.0
H548 H 0.23627 0.14214 0.79818 0.0
H549 H 0.24279 0.14076 0.77952 0.0
H550 H 0.23719 0.08613 0.78036 0.0
H551 H 0.23069 0.08758 0.79913 0.0
H552 H 0.21489 0.08713 0.86032 0.0
H553 H 0.22731 0.10593 0.8469 0.0
H554 H 0.18011 0.12758 0.87037 0.0
H555 H 0.19285 0.14639 0.8572 0.0
H556 H 0.22476 0.21886 0.83598 0.0
H557 H 0.26718 0.22365 0.81357 0.0
H558 H 0.26468 0.19338 0.8095 0.0
H559 H 0.22221 0.18845 0.83181 0.0
C560 C 0.6517 0.48742 0.54982 0.0
C561 C 0.63624 0.49042 0.54401 0.0
C562 C 0.6539 0.49588 0.52849 0.0
C563 C 0.63731 0.4945 0.53344 0.0
C564 C 0.66938 0.49273 0.53432 0.0
C565 C 0.66829 0.48857 0.54492 0.0
U566 U 0.62309 0.48482 0.57362 0.0
O567 O 0.61979 0.46522 0.58565 0.0
O568 O 0.62781 0.49106 0.59013 0.0
C569 C 0.6249 0.47536 0.59322 0.0
C570 C 0.65034 0.48326 0.56096 0.0
C571 C 0.63787 0.46817 0.60056 0.0
C572 C 0.6652 0.45286 0.60425 0.0
C573 C 0.65376 0.46075 0.59712 0.0
C574 C 0.64522 0.4602 0.61832 0.0
C575 C 0.66088 0.45226 0.61491 0.0
C576 C 0.63381 0.46804 0.61121 0.0
C577 C 0.57436 0.49864 0.56917 0.0
C578 C 0.54678 0.48848 0.5768 0.0
C579 C 0.54718 0.51489 0.56709 0.0
C580 C 0.56537 0.51297 0.56538 0.0
C581 C 0.5376 0.50248 0.57262 0.0
C582 C 0.56504 0.48659 0.57512 0.0
C583 C 0.59292 0.49587 0.56596 0.0
O584 O 0.64734 0.49632 0.56711 0.0
O585 O 0.64022 0.47009 0.5631 0.0
O586 O 0.59818 0.47997 0.56529 0.0
O587 O 0.60488 0.50603 0.57007 0.0
H588 H 0.6233 0.48955 0.54765 0.0
H589 H 0.62513 0.49641 0.52912 0.0
H590 H 0.68233 0.49369 0.5307 0.0
H591 H 0.68036 0.48631 0.54929 0.0
H592 H 0.67734 0.4471 0.60142 0.0
H593 H 0.65715 0.46081 0.58892 0.0
H594 H 0.6415 0.45988 0.62647 0.0
H595 H 0.62159 0.47371 0.614 0.0
H596 H 0.53972 0.47857 0.58095 0.0
H597 H 0.54047 0.52586 0.56383 0.0
H598 H 0.57232 0.5224 0.56077 0.0
H599 H 0.57169 0.47541 0.57813 0.0
C600 C 0.26696 0.88788 0.2997 0.0
C601 C 0.26406 0.873 0.2939 0.0
C602 C 0.25877 0.88979 0.27827 0.0
C603 C 0.26008 0.87394 0.28329 0.0
C604 C 0.26161 0.90469 0.28411 0.0
C605 C 0.26568 0.90373 0.29475 0.0
U606 U 0.27027 0.86078 0.32371 0.0
O607 O 0.29065 0.85846 0.33587 0.0
O608 O 0.26337 0.86534 0.34016 0.0
C609 C 0.27976 0.863 0.34337 0.0
C610 C 0.27123 0.88673 0.31088 0.0
C611 C 0.28672 0.87545 0.35091 0.0
C612 C 0.30271 0.90144 0.3551 0.0
C613 C 0.29505 0.89055 0.34771 0.0
C614 C 0.29336 0.8825 0.36892 0.0
C615 C 0.30221 0.89738 0.36578 0.0
C616 C 0.28573 0.87165 0.36156 0.0
C617 C 0.25693 0.81357 0.31936 0.0
C618 C 0.26865 0.78605 0.32468 0.0
C619 C 0.2382 0.7884 0.31881 0.0
C620 C 0.24047 0.80588 0.31738 0.0
C621 C 0.25245 0.77822 0.32214 0.0
C622 C 0.2709 0.80358 0.32329 0.0
C623 C 0.25963 0.83146 0.31619 0.0
O624 O 0.25764 0.88357 0.317 0.0
O625 O 0.28523 0.87742 0.3131 0.0
O626 O 0.27611 0.83687 0.3156 0.0
O627 O 0.24867 0.84276 0.32013 0.0
H628 H 0.2649 0.86064 0.2976 0.0
H629 H 0.25786 0.86226 0.27901 0.0
H630 H 0.26092 0.91706 0.28042 0.0
H631 H 0.26789 0.91534 0.2991 0.0
H632 H 0.30915 0.91298 0.35245 0.0
H633 H 0.29586 0.89374 0.33952 0.0
H634 H 0.29281 0.87898 0.37707 0.0
H635 H 0.27937 0.86005 0.36417 0.0
H636 H 0.27984 0.7785 0.32727 0.0
H637 H 0.22546 0.78275 0.317 0.0
H638 H 0.2295 0.81331 0.31436 0.0
H639 H 0.28375 0.80915 0.32492 0.0
C640 C 0.65451 0.02033 0.54926 0.0
C641 C 0.6435 0.00709 0.54574 0.0
C642 C 0.65519 0.01008 0.52815 0.0
C643 C 0.64396 0.00192 0.53533 0.0
C644 C 0.66647 0.0231 0.53173 0.0
C645 C 0.6661 0.02819 0.54219 0.0
U646 U 0.6259 0.02915 0.57267 0.0
O647 O 0.6299 0.02521 0.58951 0.0
O648 O 0.62427 0.05079 0.58345 0.0
C649 C 0.62841 0.04151 0.59163 0.0
C650 C 0.65314 0.02664 0.56006 0.0
C651 C 0.64138 0.04873 0.59908 0.0
C652 C 0.66177 0.07112 0.60446 0.0
C653 C 0.65145 0.0633 0.59674 0.0
C654 C 0.65272 0.04956 0.61683 0.0
C655 C 0.66215 0.06457 0.61466 0.0
C656 C 0.64239 0.04179 0.60913 0.0
C657 C 0.57636 0.01814 0.56899 0.0
C658 C 0.55138 0.0293 0.57884 0.0
C659 C 0.54683 0.00661 0.56635 0.0
C660 C 0.56494 0.00663 0.56406 0.0
C661 C 0.53979 0.01818 0.5736 0.0
C662 C 0.56956 0.02928 0.57655 0.0
C663 C 0.59497 0.01899 0.56558 0.0
O664 O 0.64394 0.04072 0.56116 0.0
O665 O 0.64937 0.01513 0.56717 0.0
O666 O 0.60617 0.00878 0.57033 0.0
O667 O 0.60135 0.03434 0.56404 0.0
H668 H 0.63435 0.00087 0.55102 0.0
H669 H 0.63544 0.99157 0.53289 0.0
H670 H 0.67525 0.02964 0.52639 0.0
H671 H 0.67462 0.0385 0.54472 0.0
H672 H 0.66892 0.08266 0.60256 0.0
H673 H 0.65096 0.06897 0.58907 0.0
H674 H 0.65307 0.044 0.62454 0.0
H675 H 0.63474 0.03058 0.61114 0.0
H676 H 0.54634 0.03816 0.58458 0.0
H677 H 0.53822 0.99796 0.56215 0.0
H678 H 0.56996 0.99796 0.5582 0.0
H679 H 0.57822 0.03821 0.58049 0.0
C680 C 0.2356 0.40635 0.79964 0.0
C681 C 0.23794 0.39139 0.79384 0.0
C682 C 0.24409 0.40802 0.77826 0.0
C683 C 0.24204 0.39222 0.78325 0.0
C684 C 0.24155 0.423 0.78407 0.0
C685 C 0.23738 0.42216 0.79469 0.0
U686 U 0.23243 0.37937 0.82367 0.0
O687 O 0.23982 0.38399 0.84006 0.0
O688 O 0.21235 0.37732 0.83599 0.0
C689 C 0.22343 0.38203 0.84336 0.0
C690 C 0.23154 0.40529 0.81083 0.0
C691 C 0.21682 0.39485 0.85079 0.0
C692 C 0.19727 0.41835 0.85528 0.0
C693 C 0.20466 0.40749 0.8478 0.0
C694 C 0.21461 0.40451 0.86872 0.0
C695 C 0.202 0.41683 0.86584 0.0
C696 C 0.22193 0.39363 0.86126 0.0
C697 C 0.24452 0.33214 0.8198 0.0
C698 C 0.23461 0.30785 0.82998 0.0
C699 C 0.25831 0.30452 0.8174 0.0
C700 C 0.25711 0.32177 0.8149 0.0
C701 C 0.24692 0.29732 0.82486 0.0
C702 C 0.23347 0.32516 0.8275 0.0
C703 C 0.24241 0.3498 0.8162 0.0
O704 O 0.21747 0.39616 0.81316 0.0
O705 O 0.24524 0.40195 0.81684 0.0
O706 O 0.25364 0.36097 0.82002 0.0
O707 O 0.22603 0.35549 0.81568 0.0
H708 H 0.23658 0.37906 0.79752 0.0
H709 H 0.24347 0.38045 0.77894 0.0
H710 H 0.24304 0.43534 0.78042 0.0
H711 H 0.23564 0.43383 0.79906 0.0
H712 H 0.18736 0.42751 0.85284 0.0
H713 H 0.2005 0.40865 0.83976 0.0
H714 H 0.21859 0.4031 0.87678 0.0
H715 H 0.23128 0.38396 0.86372 0.0
H716 H 0.22567 0.30261 0.83575 0.0
H717 H 0.26766 0.29667 0.81316 0.0
H718 H 0.26568 0.32691 0.8089 0.0
H719 H 0.22367 0.33298 0.8314 0.0
C720 C 0.84693 0.97815 0.04898 0.0
C721 C 0.86235 0.98147 0.0432 0.0
C722 C 0.84452 0.98939 0.02813 0.0
C723 C 0.86116 0.98702 0.03289 0.0
C724 C 0.82907 0.98616 0.03398 0.0
C725 C 0.83028 0.98055 0.04432 0.0
U726 U 0.87596 0.96994 0.07223 0.0
O727 O 0.87238 0.97468 0.08903 0.0
O728 O 0.87755 0.94878 0.08336 0.0
C729 C 0.87383 0.95848 0.09141 0.0
C730 C 0.84835 0.97237 0.05987 0.0
C731 C 0.86092 0.95168 0.09898 0.0
C732 C 0.83569 0.93376 0.10343 0.0
C733 C 0.84656 0.94143 0.09591 0.0
C734 C 0.85305 0.94693 0.1171 0.0
C735 C 0.83893 0.9363 0.11411 0.0
C736 C 0.86389 0.95455 0.10961 0.0
C737 C 0.92555 0.98024 0.06805 0.0
C738 C 0.95074 0.96935 0.07785 0.0
C739 C 0.9549 0.9922 0.06542 0.0
C740 C 0.93679 0.99193 0.06313 0.0
C741 C 0.96213 0.98071 0.07266 0.0
C742 C 0.93255 0.96912 0.07557 0.0
C743 C 0.90687 0.97936 0.06475 0.0
O744 O 0.8573 0.95818 0.06119 0.0
O745 O 0.85273 0.98426 0.06659 0.0
O746 O 0.89589 0.98993 0.06936 0.0
O747 O 0.90027 0.96401 0.06354 0.0
H748 H 0.87533 0.97975 0.04668 0.0
H749 H 0.87329 0.98932 0.02859 0.0
H750 H 0.81607 0.98819 0.03061 0.0
H751 H 0.81824 0.97817 0.04869 0.0
H752 H 0.82491 0.92563 0.1009 0.0
H753 H 0.84402 0.93903 0.08774 0.0
H754 H 0.85617 0.94883 0.12525 0.0
H755 H 0.87499 0.96229 0.11214 0.0
H756 H 0.95593 0.96054 0.08357 0.0
H757 H 0.96337 0.00102 0.06126 0.0
H758 H 0.93162 1.0006 0.05731 0.0
H759 H 0.92403 0.96007 0.0795 0.0
C760 C 0.26196 0.59269 0.3003 0.0
C761 C 0.24898 0.60296 0.29559 0.0
C762 C 0.25523 0.59018 0.27871 0.0
C763 C 0.2456 0.60166 0.28492 0.0
C764 C 0.26819 0.57987 0.28346 0.0
C765 C 0.27147 0.58108 0.29417 0.0
U766 U 0.26583 0.6217 0.32352 0.0
O767 O 0.25938 0.61833 0.34014 0.0
O768 O 0.28657 0.62479 0.33538 0.0
C769 C 0.2759 0.62075 0.3431 0.0
C770 C 0.26647 0.59489 0.3114 0.0
C771 C 0.283 0.60882 0.35089 0.0
C772 C 0.30167 0.58487 0.35578 0.0
C773 C 0.29354 0.59482 0.34808 0.0
C774 C 0.28818 0.60236 0.36914 0.0
C775 C 0.29943 0.58884 0.36638 0.0
C776 C 0.28009 0.61227 0.36146 0.0
C777 C 0.25341 0.66868 0.31856 0.0
C778 C 0.26622 0.69549 0.32434 0.0
C779 C 0.236 0.69469 0.31794 0.0
C780 C 0.23746 0.67716 0.31636 0.0
C781 C 0.25056 0.70413 0.32161 0.0
C782 C 0.26765 0.67792 0.32283 0.0
C783 C 0.25534 0.65068 0.31546 0.0
O784 O 0.28052 0.60437 0.31317 0.0
O785 O 0.2531 0.59842 0.31763 0.0
O786 O 0.24433 0.63976 0.31976 0.0
O787 O 0.27165 0.64488 0.31467 0.0
H788 H 0.24163 0.61219 0.30013 0.0
H789 H 0.23553 0.60975 0.28151 0.0
H790 H 0.27615 0.57121 0.27886 0.0
H791 H 0.28172 0.57323 0.29763 0.0
H792 H 0.31026 0.57449 0.35346 0.0
H793 H 0.2959 0.5919 0.33995 0.0
H794 H 0.28594 0.60549 0.37724 0.0
H795 H 0.27192 0.62296 0.36378 0.0
H796 H 0.27765 0.70242 0.3272 0.0
H797 H 0.22362 0.70095 0.31601 0.0
H798 H 0.22628 0.67029 0.31311 0.0
H799 H 0.28009 0.67171 0.32466 0.0
C800 C 0.65445 0.98049 0.46307 0.0
C801 C 0.64427 0.99441 0.46646 0.0
C802 C 0.65523 0.99076 0.48418 0.0
C803 C 0.64479 0.99958 0.47687 0.0
C804 C 0.66571 0.97706 0.48072 0.0
C805 C 0.6653 0.97197 0.47026 0.0
U806 U 0.62555 0.9716 0.43977 0.0
O807 O 0.62924 0.97571 0.42292 0.0
O808 O 0.62392 0.95003 0.42893 0.0
C809 C 0.62779 0.95942 0.42076 0.0
C810 C 0.65294 0.97418 0.45226 0.0
C811 C 0.64073 0.95238 0.41327 0.0
C812 C 0.66426 0.93255 0.40863 0.0
C813 C 0.65348 0.94023 0.41619 0.0
C814 C 0.65009 0.94945 0.39524 0.0
C815 C 0.66252 0.93694 0.39805 0.0
C816 C 0.63933 0.95707 0.40277 0.0
C817 C 0.5759 0.98271 0.44374 0.0
C818 C 0.54855 0.96944 0.43774 0.0
C819 C 0.54809 0.99834 0.44426 0.0
C820 C 0.56639 0.9976 0.44595 0.0
C821 C 0.5389 0.98415 0.44035 0.0
C822 C 0.56691 0.96873 0.4394 0.0
C823 C 0.59467 0.98164 0.44697 0.0
O824 O 0.64378 0.96006 0.45119 0.0
O825 O 0.64906 0.98567 0.44516 0.0
O826 O 0.60582 0.99194 0.44226 0.0
O827 O 0.60113 0.96631 0.44849 0.0
H828 H 0.6357 0.00117 0.4611 0.0
H829 H 0.63692 0.01045 0.47921 0.0
H830 H 0.67388 0.97001 0.48616 0.0
H831 H 0.67317 0.96114 0.46783 0.0
H832 H 0.6735 0.92275 0.41103 0.0
H833 H 0.6548 0.93634 0.42424 0.0
H834 H 0.64851 0.95316 0.38717 0.0
H835 H 0.62955 0.96638 0.40034 0.0
H836 H 0.5418 0.95821 0.43487 0.0
H837 H 0.54103 0.00988 0.44628 0.0
H838 H 0.57304 0.00851 0.44932 0.0
H839 H 0.57392 0.95706 0.43763 0.0
C840 C 0.2645 0.40584 0.71204 0.0
C841 C 0.26119 0.39106 0.71785 0.0
C842 C 0.25822 0.40786 0.73365 0.0
C843 C 0.25809 0.39205 0.72855 0.0
C844 C 0.26102 0.42272 0.72777 0.0
C845 C 0.26424 0.4217 0.71704 0.0
U846 U 0.26747 0.37822 0.68832 0.0
O847 O 0.26165 0.3825 0.67172 0.0
O848 O 0.28846 0.37486 0.6766 0.0
C849 C 0.27818 0.3797 0.66888 0.0
C850 C 0.26868 0.40448 0.70088 0.0
C851 C 0.28617 0.39179 0.66147 0.0
C852 C 0.28932 0.42005 0.65394 0.0
C853 C 0.28144 0.40908 0.66121 0.0
C854 C 0.30677 0.39661 0.64723 0.0
C855 C 0.30208 0.41389 0.64688 0.0
C856 C 0.29885 0.38568 0.65442 0.0
C857 C 0.25422 0.33147 0.69265 0.0
C858 C 0.26287 0.30764 0.68171 0.0
C859 C 0.24291 0.3032 0.69625 0.0
C860 C 0.24364 0.32052 0.69859 0.0
C861 C 0.25283 0.2965 0.68794 0.0
C862 C 0.26357 0.32503 0.68405 0.0
C863 C 0.25626 0.34922 0.69603 0.0
O864 O 0.28256 0.39496 0.69877 0.0
O865 O 0.25506 0.40132 0.69477 0.0
O866 O 0.2456 0.36039 0.69169 0.0
O867 O 0.27271 0.3546 0.69688 0.0
H868 H 0.2612 0.3787 0.71411 0.0
H869 H 0.25563 0.38044 0.73285 0.0
H870 H 0.26113 0.43505 0.73153 0.0
H871 H 0.26673 0.43324 0.71267 0.0
H872 H 0.28567 0.43338 0.65393 0.0
H873 H 0.27174 0.4141 0.66662 0.0
H874 H 0.3165 0.39151 0.64186 0.0
H875 H 0.30266 0.37239 0.65448 0.0
H876 H 0.27041 0.30286 0.67516 0.0
H877 H 0.23514 0.29491 0.70122 0.0
H878 H 0.23637 0.32529 0.70526 0.0
H879 H 0.27174 0.33335 0.67934 0.0
C880 C 0.84652 0.02327 0.96397 0.0
C881 C 0.86199 0.01967 0.96966 0.0
C882 C 0.84431 0.0123 0.98487 0.0
C883 C 0.8609 0.01429 0.98001 0.0
C884 C 0.82882 0.01588 0.97914 0.0
C885 C 0.82993 0.02133 0.96877 0.0
U886 U 0.8753 0.03114 0.94058 0.0
O887 O 0.87144 0.02636 0.9238 0.0
O888 O 0.87693 0.05224 0.92941 0.0
C889 C 0.87302 0.04254 0.92139 0.0
C890 C 0.84785 0.02898 0.95307 0.0
C891 C 0.86014 0.04943 0.91382 0.0
C892 C 0.83574 0.06828 0.90923 0.0
C893 C 0.84644 0.06054 0.9168 0.0
C894 C 0.85189 0.05348 0.89568 0.0
C895 C 0.83847 0.06497 0.89858 0.0
C896 C 0.86257 0.04579 0.90323 0.0
C897 C 0.92486 0.02041 0.94446 0.0
C898 C 0.95056 0.03208 0.93548 0.0
C899 C 0.95361 0.00671 0.94605 0.0
C900 C 0.93554 0.00733 0.94842 0.0
C901 C 0.96136 0.01916 0.93965 0.0
C902 C 0.93241 0.03265 0.93783 0.0
C903 C 0.90625 0.02149 0.94789 0.0
O904 O 0.85691 0.04309 0.95169 0.0
O905 O 0.85203 0.01704 0.94635 0.0
O906 O 0.89507 0.01097 0.94339 0.0
O907 O 0.89979 0.03688 0.94916 0.0
H908 H 0.87493 0.02103 0.96607 0.0
H909 H 0.87305 0.01154 0.9842 0.0
H910 H 0.81587 0.01468 0.98273 0.0
H911 H 0.81786 0.02407 0.9645 0.0
H912 H 0.82549 0.07708 0.91168 0.0
H913 H 0.84431 0.06355 0.92493 0.0
H914 H 0.85462 0.05096 0.88755 0.0
H915 H 0.87317 0.03738 0.90077 0.0
H916 H 0.95621 0.04183 0.93054 0.0
H917 H 0.96167 0.99683 0.94955 0.0
H918 H 0.92998 0.99784 0.95359 0.0
H919 H 0.92438 0.04284 0.93466 0.0
C920 C 0.23669 0.59305 0.21213 0.0
C921 C 0.25026 0.60272 0.21675 0.0
C922 C 0.2436 0.59037 0.23371 0.0
C923 C 0.25373 0.60133 0.22741 0.0
C924 C 0.23004 0.58068 0.22905 0.0
C925 C 0.22667 0.58198 0.21836 0.0
U926 U 0.23261 0.62176 0.18866 0.0
O927 O 0.23903 0.61793 0.17208 0.0
O928 O 0.21181 0.62433 0.17678 0.0
C929 C 0.22245 0.61993 0.16913 0.0
C930 C 0.23217 0.59523 0.20103 0.0
C931 C 0.21548 0.60718 0.16179 0.0
C932 C 0.19787 0.58202 0.15797 0.0
C933 C 0.20547 0.59319 0.16521 0.0
C934 C 0.21068 0.59839 0.14387 0.0
C935 C 0.20029 0.58459 0.14722 0.0
C936 C 0.2182 0.60957 0.15109 0.0
C937 C 0.24468 0.66879 0.19315 0.0
C938 C 0.23533 0.69267 0.18244 0.0
C939 C 0.25592 0.69712 0.19668 0.0
C940 C 0.25543 0.67977 0.19897 0.0
C941 C 0.24558 0.70383 0.18854 0.0
C942 C 0.23488 0.67526 0.18472 0.0
C943 C 0.24297 0.65098 0.19648 0.0
O944 O 0.21808 0.60464 0.19923 0.0
O945 O 0.24551 0.59873 0.19478 0.0
O946 O 0.25398 0.64005 0.19222 0.0
O947 O 0.22664 0.64522 0.19721 0.0
H948 H 0.25803 0.61153 0.21214 0.0
H949 H 0.26427 0.60894 0.23075 0.0
H950 H 0.22169 0.57246 0.23372 0.0
H951 H 0.21598 0.57459 0.21498 0.0
H952 H 0.18994 0.57147 0.16076 0.0
H953 H 0.20325 0.59109 0.17344 0.0
H954 H 0.21251 0.60088 0.13564 0.0
H955 H 0.22582 0.62034 0.14831 0.0
H956 H 0.22746 0.69746 0.17602 0.0
H957 H 0.26386 0.70542 0.20155 0.0
H958 H 0.26306 0.67499 0.2055 0.0
H959 H 0.22656 0.66692 0.1801 0.0
C960 C 0.347 0.97798 0.46443 0.0
C961 C 0.36275 0.98115 0.46994 0.0
C962 C 0.34581 0.99043 0.48505 0.0
C963 C 0.36217 0.98721 0.48016 0.0
C964 C 0.33003 0.98702 0.47956 0.0
C965 C 0.33063 0.98089 0.46931 0.0
U966 U 0.37493 0.96975 0.4408 0.0
O967 O 0.37629 0.9486 0.42965 0.0
O968 O 0.3707 0.97448 0.42405 0.0
C969 C 0.37217 0.95829 0.42165 0.0
C970 C 0.34784 0.97202 0.45356 0.0
C971 C 0.35926 0.95142 0.41404 0.0
C972 C 0.33827 0.92969 0.40844 0.0
C973 C 0.34847 0.93729 0.4163 0.0
C974 C 0.34888 0.95061 0.3961 0.0
C975 C 0.33874 0.936 0.39819 0.0
C976 C 0.35907 0.95818 0.40393 0.0
C977 C 0.42468 0.98095 0.44451 0.0
C978 C 0.45218 0.96823 0.43832 0.0
C979 C 0.45212 0.99719 0.44474 0.0
C980 C 0.43389 0.99607 0.44659 0.0
C981 C 0.46153 0.98318 0.44078 0.0
C982 C 0.43389 0.96713 0.44014 0.0
C983 C 0.40599 0.97957 0.44786 0.0
O984 O 0.35175 0.98385 0.4467 0.0
O985 O 0.35686 0.95789 0.45214 0.0
O986 O 0.39965 0.96414 0.44919 0.0
O987 O 0.39467 0.99001 0.44342 0.0
H988 H 0.37553 0.97895 0.46631 0.0
H989 H 0.37455 0.98931 0.48425 0.0
H990 H 0.31725 0.98936 0.48314 0.0
H991 H 0.31834 0.97854 0.46517 0.0
H992 H 0.33056 0.91846 0.41029 0.0
H993 H 0.34834 0.93179 0.42403 0.0
H994 H 0.3492 0.95599 0.38834 0.0
H995 H 0.36728 0.96905 0.40199 0.0
H996 H 0.45912 0.95714 0.43542 0.0
H997 H 0.45896 0.0089 0.44665 0.0
H998 H 0.42708 0.00687 0.44998 0.0
H999 H 0.42711 0.95529 0.43847 0.0
C1000 C 0.76347 0.596 0.21133 0.0
C1001 C 0.74958 0.60565 0.21562 0.0
C1002 C 0.75645 0.59488 0.23294 0.0
C1003 C 0.74601 0.60497 0.22629 0.0
C1004 C 0.77006 0.5849 0.22859 0.0
C1005 C 0.77356 0.58548 0.21788 0.0
U1006 U 0.76755 0.62423 0.1878 0.0
O1007 O 0.78857 0.62723 0.17608 0.0
O1008 O 0.76157 0.62039 0.17117 0.0
C1009 C 0.77812 0.62291 0.16832 0.0
C1010 C 0.7683 0.59783 0.20025 0.0
C1011 C 0.7855 0.61068 0.16081 0.0
C1012 C 0.80087 0.58434 0.15667 0.0
C1013 C 0.793 0.59518 0.164 0.0
C1014 C 0.79351 0.60422 0.14292 0.0
C1015 C 0.80126 0.58878 0.14606 0.0
C1016 C 0.78567 0.61502 0.15023 0.0
C1017 C 0.75416 0.67094 0.19226 0.0
C1018 C 0.76274 0.69498 0.18147 0.0
C1019 C 0.74254 0.69909 0.19593 0.0
C1020 C 0.7434 0.68174 0.1982 0.0
C1021 C 0.75251 0.70596 0.18769 0.0
C1022 C 0.76357 0.67757 0.18374 0.0
C1023 C 0.75628 0.65316 0.19557 0.0
O1024 O 0.75508 0.6009 0.19381 0.0
O1025 O 0.78224 0.60745 0.1985 0.0
O1026 O 0.77274 0.64781 0.1964 0.0
O1027 O 0.74565 0.642 0.19121 0.0
H1028 H 0.74166 0.61396 0.21075 0.0
H1029 H 0.73514 0.61248 0.22934 0.0
H1030 H 0.77834 0.57701 0.23352 0.0
H1031 H 0.7844 0.57803 0.21475 0.0
H1032 H 0.80679 0.57253 0.15931 0.0
H1033 H 0.79299 0.59163 0.17215 0.0
H1034 H 0.79398 0.60823 0.13486 0.0
H1035 H 0.78005 0.62699 0.14764 0.0
H1036 H 0.77033 0.6999 0.17497 0.0
H1037 H 0.73463 0.70725 0.20089 0.0
H1038 H 0.73607 0.67683 0.20481 0.0
H1039 H 0.77188 0.66937 0.17903 0.0
C1040 C 0.15345 0.02227 0.9632 0.0
C1041 C 0.14276 0.00873 0.96662 0.0
C1042 C 0.15436 0.01164 0.98424 0.0
C1043 C 0.14334 0.00337 0.97699 0.0
C1044 C 0.16533 0.02496 0.98075 0.0
C1045 C 0.16485 0.03025 0.97033 0.0
U1046 U 0.12426 0.03137 0.94011 0.0
O1047 O 0.12234 0.05309 0.92938 0.0
O1048 O 0.12754 0.0275 0.92323 0.0
C1049 C 0.1257 0.04376 0.92112 0.0
C1050 C 0.15186 0.02879 0.95244 0.0
C1051 C 0.13808 0.05097 0.91342 0.0
C1052 C 0.1659 0.06462 0.90865 0.0
C1053 C 0.15495 0.05706 0.91619 0.0
C1054 C 0.14329 0.05983 0.89556 0.0
C1055 C 0.16016 0.06609 0.89825 0.0
C1056 C 0.13242 0.05231 0.90306 0.0
C1057 C 0.07493 0.01999 0.9441 0.0
C1058 C 0.04917 0.03179 0.93524 0.0
C1059 C 0.04612 0.00644 0.94582 0.0
C1060 C 0.06424 0.00697 0.94811 0.0
C1061 C 0.03835 0.01894 0.93946 0.0
C1062 C 0.06735 0.03227 0.9375 0.0
C1063 C 0.09358 0.02101 0.94745 0.0
O1064 O 0.14798 0.0174 0.94528 0.0
O1065 O 0.14261 0.04287 0.95148 0.0
O1066 O 0.09991 0.03639 0.94898 0.0
O1067 O 0.10477 0.01086 0.94267 0.0
H1068 H 0.13375 0.00241 0.9613 0.0
H1069 H 0.13506 0.99279 0.97935 0.0
H1070 H 0.17395 0.03159 0.98615 0.0
H1071 H 0.17312 0.04079 0.96788 0.0
H1072 H 0.1788 0.0694 0.91096 0.0
H1073 H 0.15952 0.05617 0.92417 0.0
H1074 H 0.13826 0.06118 0.88771 0.0
H1075 H 0.11938 0.0478 0.9008 0.0
H1076 H 0.0435 0.04157 0.93032 0.0
H1077 H 0.03807 0.9966 0.94936 0.0
H1078 H 0.06982 0.99745 0.95326 0.0
H1079 H 0.07539 0.04242 0.93429 0.0
C1080 C 0.73627 0.40666 0.71247 0.0
C1081 C 0.74798 0.39523 0.71732 0.0
C1082 C 0.74277 0.4088 0.73407 0.0
C1083 C 0.75129 0.39637 0.72801 0.0
C1084 C 0.73117 0.42033 0.72918 0.0
C1085 C 0.72795 0.41926 0.71846 0.0
U1086 U 0.73363 0.37887 0.6886 0.0
O1087 O 0.71321 0.376 0.67652 0.0
O1088 O 0.74028 0.38352 0.67211 0.0
C1089 C 0.72384 0.38106 0.66901 0.0
C1090 C 0.73201 0.40491 0.70132 0.0
C1091 C 0.71659 0.39357 0.66156 0.0
C1092 C 0.69423 0.41429 0.65641 0.0
C1093 C 0.70201 0.40396 0.66404 0.0
C1094 C 0.71594 0.40457 0.64386 0.0
C1095 C 0.70086 0.4144 0.64617 0.0
C1096 C 0.72365 0.39421 0.65146 0.0
C1097 C 0.74753 0.332 0.69268 0.0
C1098 C 0.73628 0.30577 0.68509 0.0
C1099 C 0.76446 0.30582 0.69417 0.0
C1100 C 0.76267 0.32323 0.69606 0.0
C1101 C 0.7511 0.29681 0.68888 0.0
C1102 C 0.73453 0.32323 0.68694 0.0
C1103 C 0.74491 0.34974 0.69608 0.0
O1104 O 0.74562 0.40204 0.69514 0.0
O1105 O 0.71831 0.39513 0.69927 0.0
O1106 O 0.72839 0.35496 0.69683 0.0
O1107 O 0.75563 0.36119 0.69207 0.0
H1108 H 0.75439 0.38528 0.71286 0.0
H1109 H 0.7602 0.38727 0.73159 0.0
H1110 H 0.7246 0.43017 0.73365 0.0
H1111 H 0.71882 0.42814 0.71486 0.0
H1112 H 0.68264 0.42174 0.65843 0.0
H1113 H 0.69633 0.40377 0.67179 0.0
H1114 H 0.72161 0.4047 0.63611 0.0
H1115 H 0.73493 0.38636 0.64938 0.0
H1116 H 0.72562 0.29914 0.68114 0.0
H1117 H 0.77607 0.29928 0.69712 0.0
H1118 H 0.77284 0.32974 0.7005 0.0
H1119 H 0.72271 0.32971 0.68423 0.0
C1120 C 0.34843 0.02473 0.5491 0.0
C1121 C 0.36393 0.02062 0.54358 0.0
C1122 C 0.34649 0.01397 0.52815 0.0
C1123 C 0.36297 0.0153 0.53322 0.0
C1124 C 0.33093 0.01769 0.53377 0.0
C1125 C 0.33191 0.02311 0.54416 0.0
U1126 U 0.37708 0.03279 0.57248 0.0
O1127 O 0.37983 0.05488 0.58291 0.0
O1128 O 0.37286 0.02984 0.58934 0.0
C1129 C 0.37533 0.04613 0.59122 0.0
C1130 C 0.34971 0.03092 0.5599 0.0
C1131 C 0.36289 0.05452 0.59847 0.0
C1132 C 0.33442 0.05667 0.60736 0.0
C1133 C 0.34539 0.04882 0.59994 0.0
C1134 C 0.35823 0.07609 0.61175 0.0
C1135 C 0.3408 0.07033 0.61339 0.0
C1136 C 0.36915 0.06824 0.6044 0.0
C1137 C 0.4262 0.02017 0.56888 0.0
C1138 C 0.45148 0.0307 0.57873 0.0
C1139 C 0.45539 0.00786 0.56628 0.0
C1140 C 0.43729 0.00835 0.56397 0.0
C1141 C 0.46276 0.01925 0.57352 0.0
C1142 C 0.43331 0.03116 0.57643 0.0
C1143 C 0.40761 0.02144 0.56548 0.0
O1144 O 0.3533 0.01922 0.56691 0.0
O1145 O 0.35929 0.04477 0.56106 0.0
O1146 O 0.40172 0.03691 0.56373 0.0
O1147 O 0.39613 0.01177 0.57041 0.0
H1148 H 0.37681 0.02165 0.54729 0.0
H1149 H 0.37514 0.01218 0.52916 0.0
H1150 H 0.31805 0.01673 0.53005 0.0
H1151 H 0.3198 0.02618 0.54831 0.0
H1152 H 0.32094 0.05216 0.60833 0.0
H1153 H 0.34023 0.03828 0.59543 0.0
H1154 H 0.36354 0.08652 0.6163 0.0
H1155 H 0.38263 0.07279 0.60342 0.0
H1156 H 0.45677 0.03944 0.58447 0.0
H1157 H 0.46376 0.99897 0.5621 0.0
H1158 H 0.43203 0.99979 0.55812 0.0
H1159 H 0.4249 0.04032 0.58034 0.0
C1160 C 0.73787 0.59534 0.29954 0.0
C1161 C 0.75115 0.60569 0.29521 0.0
C1162 C 0.74463 0.59465 0.27791 0.0
C1163 C 0.7546 0.60523 0.28452 0.0
C1164 C 0.73161 0.58402 0.2823 0.0
C1165 C 0.72824 0.58439 0.29303 0.0
U1166 U 0.7341 0.62268 0.3235 0.0
O1167 O 0.7134 0.62503 0.33546 0.0
O1168 O 0.74058 0.61813 0.34002 0.0
C1169 C 0.72406 0.62027 0.34303 0.0
C1170 C 0.73326 0.59676 0.31068 0.0
C1171 C 0.717 0.60758 0.3504 0.0
C1172 C 0.69728 0.58408 0.35468 0.0
C1173 C 0.70489 0.59498 0.34729 0.0
C1174 C 0.71422 0.59789 0.3683 0.0
C1175 C 0.70173 0.58554 0.36529 0.0
C1176 C 0.72176 0.60878 0.36093 0.0
C1177 C 0.74734 0.66979 0.31955 0.0
C1178 C 0.73563 0.69598 0.32696 0.0
C1179 C 0.7641 0.6961 0.3182 0.0
C1180 C 0.76251 0.67866 0.31632 0.0
C1181 C 0.75051 0.70502 0.32333 0.0
C1182 C 0.73408 0.67849 0.32511 0.0
C1183 C 0.745 0.65202 0.31614 0.0
O1184 O 0.7466 0.59971 0.31704 0.0
O1185 O 0.7193 0.60624 0.31265 0.0
O1186 O 0.72856 0.64658 0.31532 0.0
O1187 O 0.75584 0.6407 0.32018 0.0
H1188 H 0.75871 0.61434 0.30006 0.0
H1189 H 0.76502 0.61326 0.28142 0.0
H1190 H 0.7237 0.57575 0.2774 0.0
H1191 H 0.71786 0.57639 0.29621 0.0
H1192 H 0.68747 0.57491 0.35213 0.0
H1193 H 0.701 0.59382 0.3392 0.0
H1194 H 0.71798 0.59926 0.3764 0.0
H1195 H 0.73107 0.61842 0.36349 0.0
H1196 H 0.72481 0.70254 0.33078 0.0
H1197 H 0.77576 0.70271 0.31538 0.0
H1198 H 0.77289 0.67221 0.31201 0.0
H1199 H 0.72223 0.67193 0.32769 0.0
C1200 C 0.15409 0.9804 0.04906 0.0
C1201 C 0.14358 0.99418 0.04578 0.0
C1202 C 0.15469 0.99126 0.02805 0.0
C1203 C 0.14402 0.99964 0.03542 0.0
C1204 C 0.16547 0.9777 0.03139 0.0
C1205 C 0.16515 0.97231 0.0418 0.0
U1206 U 0.12544 0.97071 0.07233 0.0
O1207 O 0.12407 0.94886 0.08298 0.0
O1208 O 0.1292 0.97442 0.08921 0.0
C1209 C 0.12786 0.95807 0.09123 0.0
C1210 C 0.15272 0.9738 0.05981 0.0
C1211 C 0.14088 0.95094 0.09864 0.0
C1212 C 0.16548 0.93209 0.10287 0.0
C1213 C 0.1545 0.93989 0.09546 0.0
C1214 C 0.14973 0.94665 0.11667 0.0
C1215 C 0.16311 0.93528 0.11357 0.0
C1216 C 0.13876 0.95439 0.10928 0.0
C1217 C 0.07581 0.98145 0.06852 0.0
C1218 C 0.05067 0.97013 0.07817 0.0
C1219 C 0.04633 0.99308 0.06583 0.0
C1220 C 0.06447 0.99308 0.06362 0.0
C1221 C 0.03917 0.98138 0.07296 0.0
C1222 C 0.06889 0.97016 0.07596 0.0
C1223 C 0.09448 0.98071 0.06521 0.0
O1224 O 0.1488 0.98508 0.06702 0.0
O1225 O 0.14368 0.95958 0.06077 0.0
O1226 O 0.10098 0.96542 0.06363 0.0
O1227 O 0.10554 0.99094 0.07004 0.0
H1228 H 0.13484 1.00061 0.0512 0.0
H1229 H 0.1359 0.0104 0.03318 0.0
H1230 H 0.17382 0.97097 0.0259 0.0
H1231 H 0.17327 0.9616 0.04413 0.0
H1232 H 0.17571 0.92339 0.10026 0.0
H1233 H 0.15641 0.93702 0.08729 0.0
H1234 H 0.1473 0.94909 0.12485 0.0
H1235 H 0.12824 0.96275 0.11191 0.0
H1236 H 0.04555 0.96117 0.08382 0.0
H1237 H 0.03779 0.00182 0.06166 0.0
H1238 H 0.06958 0.00186 0.05785 0.0
H1239 H 0.07748 0.96115 0.07988 0.0
C1240 C 0.76432 0.40538 0.80016 0.0
C1241 C 0.75282 0.39366 0.79542 0.0
C1242 C 0.75625 0.40809 0.77877 0.0
C1243 C 0.74878 0.39503 0.78482 0.0
C1244 C 0.76785 0.41975 0.78353 0.0
C1245 C 0.7718 0.41844 0.79416 0.0
U1246 U 0.76836 0.3774 0.82391 0.0
O1247 O 0.78933 0.37476 0.83568 0.0
O1248 O 0.76235 0.38188 0.84048 0.0
C1249 C 0.77893 0.37956 0.84336 0.0
C1250 C 0.76916 0.40355 0.81123 0.0
C1251 C 0.78632 0.39223 0.85062 0.0
C1252 C 0.80508 0.41664 0.85437 0.0
C1253 C 0.79716 0.40562 0.84717 0.0
C1254 C 0.79098 0.40135 0.86849 0.0
C1255 C 0.80217 0.41454 0.86511 0.0
C1256 C 0.78313 0.39032 0.86131 0.0
C1257 C 0.75478 0.33057 0.82017 0.0
C1258 C 0.76478 0.30617 0.83023 0.0
C1259 C 0.74075 0.30304 0.81783 0.0
C1260 C 0.74199 0.3203 0.81536 0.0
C1261 C 0.75229 0.29574 0.82519 0.0
C1262 C 0.76596 0.32349 0.82778 0.0
C1263 C 0.757 0.34821 0.81657 0.0
O1264 O 0.75588 0.40052 0.81761 0.0
O1265 O 0.78302 0.39383 0.813 0.0
O1266 O 0.77346 0.35351 0.81562 0.0
O1267 O 0.74638 0.35959 0.82073 0.0
H1268 H 0.74713 0.38331 0.79988 0.0
H1269 H 0.74011 0.38565 0.78131 0.0
H1270 H 0.77383 0.42989 0.77902 0.0
H1271 H 0.78083 0.42751 0.79766 0.0
H1272 H 0.81363 0.42672 0.85155 0.0
H1273 H 0.79976 0.40735 0.83894 0.0
H1274 H 0.78875 0.3992 0.87672 0.0
H1275 H 0.77487 0.38001 0.86412 0.0
H1276 H 0.77384 0.30086 0.83592 0.0
H1277 H 0.73126 0.29526 0.81366 0.0
H1278 H 0.73332 0.32552 0.80943 0.0
H1279 H 0.77591 0.33124 0.83161 0.0
C1280 C 0.15888 0.48564 1.0021 0.0
C1281 C 0.15872 0.49944 0.99512 0.0
C1282 C 0.15874 0.48827 0.01291 0.0
C1283 C 0.1587 0.50479 0.01714 0.0
H1284 H 0.15865 0.47272 0.99919 0.0
H1285 H 0.1586 0.47729 0.01801 0.0
S1286 S 0.15887 0.54517 1.0022 0.0
N1287 N 0.15901 0.53018 0.99319 0.0
N1288 N 0.15872 0.53512 0.01349 0.0
C1289 C 0.15891 0.51868 0.01024 0.0
C1290 C 0.15889 0.516 0.99924 0.0
C1291 C 0.75098 0.87664 0.25102 0.0
C1292 C 0.7537 0.89194 0.24555 0.0
C1293 C 0.74764 0.87658 0.26176 0.0
C1294 C 0.74684 0.89181 0.26751 0.0
H1295 H 0.75164 0.86456 0.24699 0.0
H1296 H 0.74554 0.86446 0.26559 0.0
S1297 S 0.75292 0.93535 0.25691 0.0
N1298 N 0.75503 0.92279 0.24668 0.0
N1299 N 0.74926 0.92264 0.26691 0.0
C1300 C 0.74951 0.90722 0.26214 0.0
C1301 C 0.75287 0.90728 0.25118 0.0
C1302 C 0.33245 0.49065 0.5102 0.0
C1303 C 0.34319 0.50023 0.517 0.0
C1304 C 0.33255 0.4937 0.49941 0.0
C1305 C 0.34344 0.50638 0.49506 0.0
H1306 H 0.32433 0.48039 0.51319 0.0
H1307 H 0.32448 0.48574 0.49441 0.0
S1308 S 0.37214 0.53646 0.50959 0.0
N1309 N 0.3636 0.52404 0.51867 0.0
N1310 N 0.36395 0.52957 0.49844 0.0
C1311 C 0.35367 0.51647 0.50181 0.0
C1312 C 0.3535 0.51345 0.51276 0.0
C1313 C 0.76652 0.10993 0.75945 0.0
C1314 C 0.75267 0.11023 0.7668 0.0
C1315 C 0.76297 0.11006 0.74871 0.0
C1316 C 0.74544 0.11024 0.74492 0.0
H1317 H 0.78022 0.10997 0.76202 0.0
H1318 H 0.77405 0.11001 0.74333 0.0
S1319 S 0.70446 0.11063 0.76092 0.0
N1320 N 0.72075 0.11035 0.76952 0.0
N1321 N 0.71409 0.11062 0.74937 0.0
C1322 C 0.73148 0.11027 0.75218 0.0
C1323 C 0.73509 0.11029 0.76311 0.0
C1324 C 0.86081 0.50118 0.01147 0.0
C1325 C 0.84481 0.50284 0.01704 0.0
C1326 C 0.86087 0.49832 1.0007 0.0
C1327 C 0.84495 0.49697 0.99502 0.0
H1328 H 0.87343 0.5023 0.01545 0.0
H1329 H 0.87355 0.49703 0.99679 0.0
S1330 S 0.79943 0.50026 1.00589 0.0
N1331 N 0.81257 0.50261 0.01608 0.0
N1332 N 0.8127 0.49769 0.99578 0.0
C1333 C 0.82883 0.49857 1.00048 0.0
C1334 C 0.82877 0.50145 0.01148 0.0
C1335 C 0.25684 0.10195 0.763 0.0
C1336 C 0.24361 0.1127 0.76706 0.0
C1337 C 0.26081 0.10185 0.7523 0.0
C1338 C 0.25165 0.11247 0.74528 0.0
H1339 H 0.26449 0.09387 0.76815 0.0
H1340 H 0.27142 0.09372 0.74955 0.0
S1341 S 0.21432 0.14135 0.75185 0.0
N1342 N 0.22039 0.13316 0.76314 0.0
N1343 N 0.22769 0.13288 0.74308 0.0
C1344 C 0.23796 0.1228 0.74922 0.0
C1345 C 0.23399 0.12294 0.76009 0.0
C1346 C 0.66549 0.49387 0.49964 0.0
C1347 C 0.6551 0.50699 0.49534 0.0
C1348 C 0.66536 0.49058 0.51039 0.0
C1349 C 0.65489 0.50033 0.51724 0.0
H1350 H 0.67336 0.48578 0.49461 0.0
H1351 H 0.67312 0.48002 0.51332 0.0
S1352 S 0.6272 0.53756 0.51002 0.0
N1353 N 0.63531 0.5307 0.49884 0.0
N1354 N 0.6352 0.52467 0.51902 0.0
C1355 C 0.64503 0.51393 0.51307 0.0
C1356 C 0.64511 0.51721 0.50214 0.0
C1357 C 0.2642 0.88038 0.2599 0.0
C1358 C 0.25465 0.89057 0.26694 0.0
C1359 C 0.26017 0.88032 0.24923 0.0
C1360 C 0.24636 0.89042 0.24517 0.0
H1361 H 0.27493 0.87238 0.26265 0.0
H1362 H 0.26795 0.8723 0.24412 0.0
S1363 S 0.21673 0.91872 0.26042 0.0
N1364 N 0.23047 0.9107 0.26915 0.0
N1365 N 0.22277 0.91051 0.24913 0.0
C1366 C 0.23672 0.90071 0.25213 0.0
C1367 C 0.24088 0.9008 0.263 0.0
C1368 C 0.6709 0.00232 0.51153 0.0
C1369 C 0.65493 0.00522 0.51693 0.0
C1370 C 0.67091 0.99756 0.50098 0.0
C1371 C 0.65494 0.99565 0.49539 0.0
H1372 H 0.68351 0.00356 0.51551 0.0
H1373 H 0.68353 0.99553 0.49714 0.0
S1374 S 0.6095 0.00185 0.5059 0.0
N1375 N 0.62271 0.00614 0.51581 0.0
N1376 N 0.6227 0.99674 0.49614 0.0
C1377 C 0.63888 0.99851 0.50071 0.0
C1378 C 0.63888 0.00337 0.51143 0.0
C1379 C 0.2423 0.41912 0.74939 0.0
C1380 C 0.25557 0.40867 0.7451 0.0
C1381 C 0.23889 0.41914 0.76014 0.0
C1382 C 0.24868 0.40874 0.76699 0.0
H1383 H 0.23416 0.42697 0.74436 0.0
H1384 H 0.22819 0.42699 0.76308 0.0
S1385 S 0.28643 0.38081 0.75978 0.0
N1386 N 0.27955 0.38882 0.7486 0.0
N1387 N 0.27332 0.38898 0.76878 0.0
C1388 C 0.26247 0.39878 0.76282 0.0
C1389 C 0.26586 0.39871 0.75189 0.0
C1390 C 0.85409 0.00917 0.01387 0.0
C1391 C 0.84349 0.99543 0.01715 0.0
C1392 C 0.85405 0.01466 1.00348 0.0
C1393 C 0.84339 0.00667 0.99593 0.0
H1394 H 0.86251 0.01576 0.01939 0.0
H1395 H 0.86246 0.02528 1.00133 0.0
S1396 S 0.81377 0.96967 1.00033 0.0
N1397 N 0.82237 0.97366 0.01191 0.0
N1398 N 0.82224 0.98406 0.99239 0.0
C1399 C 0.83261 0.993 0.99909 0.0
C1400 C 0.83268 0.98737 0.00969 0.0
C1401 C 0.24858 0.60505 0.25078 0.0
C1402 C 0.24669 0.58978 0.24517 0.0
C1403 C 0.2513 0.605 0.26158 0.0
C1404 C 0.25228 0.58969 0.26723 0.0
H1405 H 0.24774 0.61719 0.24682 0.0
H1406 H 0.2528 0.6171 0.26552 0.0
S1407 S 0.24827 0.5462 0.25625 0.0
N1408 N 0.24632 0.55889 0.24606 0.0
N1409 N 0.25094 0.55882 0.26641 0.0
C1410 C 0.25043 0.57431 0.26173 0.0
C1411 C 0.2477 0.57436 0.2507 0.0
C1412 C 0.33448 0.98959 0.50349 0.0
C1413 C 0.34533 0.99724 0.49588 0.0
C1414 C 0.33463 0.99527 0.51387 0.0
C1415 C 0.34566 0.00877 0.51702 0.0
H1416 H 0.32616 0.97886 0.50146 0.0
H1417 H 0.3264 0.98876 0.51952 0.0
S1418 S 0.37486 0.03446 0.4999 0.0
N1419 N 0.36617 0.02002 0.49207 0.0
N1420 N 0.36654 0.03055 0.51155 0.0
C1421 C 0.35609 0.01688 0.50943 0.0
C1422 C 0.35591 0.01116 0.49888 0.0
C1423 C 0.74941 0.57968 0.26083 0.0
C1424 C 0.74756 0.59496 0.26644 0.0
C1425 C 0.75237 0.57973 0.25003 0.0
C1426 C 0.75342 0.59507 0.2444 0.0
H1427 H 0.74877 0.56757 0.26484 0.0
H1428 H 0.75366 0.56766 0.24603 0.0
S1429 S 0.74934 0.63857 0.25539 0.0
N1430 N 0.74666 0.62584 0.26549 0.0
N1431 N 0.75269 0.62596 0.2453 0.0
C1432 C 0.75159 0.61044 0.24992 0.0
C1433 C 0.74857 0.61038 0.2609 0.0
C1434 C 0.17019 0.00386 1.00084 0.0
C1435 C 0.15417 0.00655 0.99543 0.0
C1436 C 0.17027 0.99884 0.01134 0.0
C1437 C 0.15433 0.99646 0.01688 0.0
H1438 H 0.18279 0.00546 0.99689 0.0
H1439 H 0.18292 0.99697 0.01519 0.0
S1440 S 0.10879 0.00199 0.00634 0.0
N1441 N 0.12195 0.00679 0.9965 0.0
N1442 N 0.12208 0.99691 0.01608 0.0
C1443 C 0.13823 0.99912 0.01156 0.0
C1444 C 0.13815 0.00425 1.00089 0.0
C1445 C 0.76649 0.40975 0.76022 0.0
C1446 C 0.75244 0.40914 0.76743 0.0
C1447 C 0.76325 0.40978 0.74946 0.0
C1448 C 0.74583 0.40945 0.7455 0.0
H1449 H 0.78011 0.40981 0.76293 0.0
H1450 H 0.77447 0.41005 0.74419 0.0
S1451 S 0.70441 0.40831 0.76108 0.0
N1452 N 0.72045 0.40861 0.76985 0.0
N1453 N 0.71436 0.40865 0.74963 0.0
C1454 C 0.73166 0.40915 0.75262 0.0
C1455 C 0.73496 0.40897 0.76357 0.0
C1456 C 0.9918 0.48485 0.07484 0.0
C1457 C 0.98225 0.50023 0.07514 0.0
C1458 C 0.01041 0.48472 0.07485 0.0
C1459 C 0.02019 0.49996 0.07516 0.0
H1460 H 0.98482 0.47283 0.07432 0.0
H1461 H 0.01722 0.47261 0.07433 0.0
S1462 S 0.00155 0.54361 0.07607 0.0
N1463 N 0.98398 0.53108 0.0759 0.0
N1464 N 0.01894 0.53083 0.07592 0.0
C1465 C 0.01082 0.51539 0.07584 0.0
C1466 C 0.99186 0.51553 0.07583 0.0
C1467 C 0.75502 0.75112 0.31501 0.0
C1468 C 0.75078 0.76027 0.32409 0.0
C1469 C 0.75519 0.73333 0.31494 0.0
C1470 C 0.75112 0.7239 0.32394 0.0
H1471 H 0.75781 0.75777 0.3078 0.0
H1472 H 0.75808 0.72689 0.30768 0.0
S1473 S 0.74052 0.74171 0.34995 0.0
N1474 N 0.74335 0.7586 0.34248 0.0
N1475 N 0.74367 0.72504 0.34234 0.0
C1476 C 0.74718 0.73286 0.33314 0.0
C1477 C 0.74701 0.75105 0.33321 0.0
C1478 C 0.50831 0.50639 0.56385 0.0
C1479 C 0.51791 0.50335 0.57306 0.0
C1480 C 0.48974 0.50647 0.56379 0.0
C1481 C 0.47997 0.50351 0.57294 0.0
H1482 H 0.51521 0.50829 0.55654 0.0
H1483 H 0.48299 0.50842 0.55644 0.0
S1484 S 0.4987 0.49628 0.59929 0.0
N1485 N 0.51628 0.49823 0.5917 0.0
N1486 N 0.48126 0.4984 0.5916 0.0
C1487 C 0.48936 0.50079 0.58226 0.0
C1488 C 0.50835 0.5007 0.58232 0.0
C1489 C 0.76841 0.25004 0.82581 0.0
C1490 C 0.75257 0.2407 0.82681 0.0
C1491 C 0.7683 0.26787 0.8258 0.0
C1492 C 0.75233 0.27703 0.82679 0.0
H1493 H 0.78089 0.24354 0.8245 0.0
H1494 H 0.78069 0.27452 0.82449 0.0
S1495 S 0.70767 0.25861 0.83128 0.0
N1496 N 0.7208 0.24191 0.83 0.0
N1497 N 0.72058 0.27545 0.82998 0.0
C1498 C 0.73656 0.26785 0.82841 0.0
C1499 C 0.73667 0.24969 0.82842 0.0
C1500 C 0.99192 0.51646 0.93724 0.0
C1501 C 0.98239 0.50108 0.93688 0.0
C1502 C 0.01053 0.5166 0.93726 0.0
C1503 C 0.02032 0.50137 0.93692 0.0
H1504 H 0.98493 0.52847 0.93779 0.0
H1505 H 0.01732 0.52871 0.93782 0.0
S1506 S 0.00171 0.45771 0.93586 0.0
N1507 N 0.98413 0.47024 0.93603 0.0
N1508 N 0.01909 0.4705 0.93607 0.0
C1509 C 0.01096 0.48593 0.93618 0.0
C1510 C 0.992 0.48579 0.93616 0.0
C1511 C 0.73706 0.73408 0.18614 0.0
C1512 C 0.75296 0.72469 0.18616 0.0
C1513 C 0.73722 0.75192 0.18619 0.0
C1514 C 0.75328 0.76105 0.18627 0.0
H1515 H 0.72439 0.72758 0.18636 0.0
H1516 H 0.72466 0.75862 0.18646 0.0
S1517 S 0.79857 0.7425 0.18629 0.0
N1518 N 0.7852 0.72586 0.1861 0.0
N1519 N 0.7855 0.75936 0.18621 0.0
C1520 C 0.76927 0.75183 0.18591 0.0
C1521 C 0.76911 0.73366 0.18585 0.0
C1522 C 0.49058 0.50044 0.43064 0.0
C1523 C 0.48104 0.49594 0.43966 0.0
C1524 C 0.50922 0.50061 0.43059 0.0
C1525 C 0.51899 0.49625 0.43955 0.0
H1526 H 0.48357 0.50397 0.4236 0.0
H1527 H 0.51605 0.50426 0.42351 0.0
S1528 S 0.50036 0.48467 0.46534 0.0
N1529 N 0.4828 0.48773 0.45788 0.0
N1530 N 0.51772 0.488 0.45778 0.0
C1531 C 0.5096 0.4917 0.44859 0.0
C1532 C 0.49067 0.49155 0.44865 0.0
C1533 C 0.75568 0.26854 0.69733 0.0
C1534 C 0.75184 0.27794 0.68828 0.0
C1535 C 0.75555 0.25074 0.69727 0.0
C1536 C 0.75156 0.24157 0.68816 0.0
H1537 H 0.75835 0.27499 0.70461 0.0
H1538 H 0.75812 0.24412 0.70451 0.0
S1539 S 0.74203 0.26006 0.66217 0.0
N1540 N 0.74493 0.27675 0.6698 0.0
N1541 N 0.74466 0.24319 0.66969 0.0
C1542 C 0.74805 0.25077 0.67899 0.0
C1543 C 0.7482 0.26896 0.67905 0.0
C1544 C 0.23801 0.25043 0.6864 0.0
C1545 C 0.25417 0.24145 0.68641 0.0
C1546 C 0.23766 0.26826 0.68637 0.0
C1547 C 0.25346 0.2778 0.68634 0.0
H1548 H 0.22553 0.2436 0.68671 0.0
H1549 H 0.22492 0.27464 0.68666 0.0
S1550 S 0.29926 0.26044 0.68626 0.0
N1551 N 0.28637 0.24345 0.68621 0.0
N1552 N 0.28572 0.27695 0.68615 0.0
C1553 C 0.2697 0.26899 0.68596 0.0
C1554 C 0.27006 0.25083 0.68599 0.0
C1555 C 0.26017 0.74996 0.18672 0.0
C1556 C 0.24398 0.7589 0.18694 0.0
C1557 C 0.26057 0.73213 0.18674 0.0
C1558 C 0.24481 0.72254 0.18698 0.0
H1559 H 0.27264 0.75682 0.18681 0.0
H1560 H 0.27334 0.72579 0.18685 0.0
S1561 S 0.19897 0.73978 0.18755 0.0
N1562 N 0.21179 0.7568 0.18726 0.0
N1563 N 0.21255 0.7233 0.18728 0.0
C1564 C 0.22853 0.7313 0.18682 0.0
C1565 C 0.22811 0.74947 0.18681 0.0
C1566 C 0.2307 0.25167 0.82577 0.0
C1567 C 0.24654 0.24231 0.8267 0.0
C1568 C 0.23086 0.2695 0.82569 0.0
C1569 C 0.24686 0.27863 0.82653 0.0
H1570 H 0.21818 0.24518 0.82459 0.0
H1571 H 0.21845 0.27617 0.82446 0.0
S1572 S 0.29159 0.26016 0.83076 0.0
N1573 N 0.27839 0.24348 0.82964 0.0
N1574 N 0.27869 0.27702 0.82948 0.0
C1575 C 0.26266 0.26944 0.82807 0.0
C1576 C 0.2625 0.25128 0.82815 0.0
C1577 C 0.25604 0.73197 0.33071 0.0
C1578 C 0.24992 0.72302 0.32191 0.0
C1579 C 0.25652 0.74983 0.33083 0.0
C1580 C 0.25088 0.75938 0.32217 0.0
H1581 H 0.26056 0.7251 0.33752 0.0
H1582 H 0.26141 0.75621 0.33774 0.0
S1583 S 0.23493 0.74207 0.29697 0.0
N1584 N 0.23888 0.7251 0.30416 0.0
N1585 N 0.23973 0.75855 0.30442 0.0
C1586 C 0.24475 0.75058 0.31334 0.0
C1587 C 0.24428 0.73245 0.31321 0.0
C1588 C 0.49174 0.0044 0.57654 0.0
C1589 C 0.48231 0.01966 0.57506 0.0
C1590 C 0.51035 0.00414 0.57655 0.0
C1591 C 0.52025 0.01913 0.57509 0.0
H1592 H 0.48467 0.99249 0.57742 0.0
H1593 H 0.51705 0.99204 0.57745 0.0
S1594 S 0.50195 0.06242 0.57096 0.0
N1595 N 0.48427 0.05018 0.57224 0.0
N1596 N 0.51924 0.04969 0.57228 0.0
C1597 C 0.511 0.03457 0.57398 0.0
C1598 C 0.49204 0.03483 0.57396 0.0
C1599 C 0.00978 0.99552 0.07589 0.0
C1600 C 0.01961 0.9805 0.0744 0.0
C1601 C 0.99117 0.99536 0.07581 0.0
C1602 C 0.98167 0.98017 0.07424 0.0
H1603 H 0.01655 0.00758 0.07686 0.0
H1604 H 0.98416 0.0073 0.07672 0.0
S1605 S 0.00108 0.93736 0.07004 0.0
N1606 N 0.01844 0.94997 0.07146 0.0
N1607 N 0.98347 0.94968 0.07132 0.0
C1608 C 0.99131 0.96496 0.07311 0.0
C1609 C 0.01028 0.96513 0.07319 0.0
C1610 C 0.50956 0.98989 0.44868 0.0
C1611 C 0.51918 0.98427 0.43995 0.0
C1612 C 0.49099 0.98965 0.44878 0.0
C1613 C 0.48123 0.98377 0.44016 0.0
H1614 H 0.51644 0.99418 0.4556 0.0
H1615 H 0.48422 0.99377 0.45578 0.0
S1616 S 0.49999 0.96877 0.41509 0.0
N1617 N 0.51756 0.97339 0.42225 0.0
N1618 N 0.48254 0.97292 0.42246 0.0
C1619 C 0.49064 0.97831 0.43131 0.0
C1620 C 0.50962 0.97857 0.4312 0.0
C1621 C 0.00922 0.03419 0.94019 0.0
C1622 C 0.0188 0.01926 0.93798 0.0
C1623 C 0.9906 0.03425 0.94023 0.0
C1624 C 0.98089 0.01937 0.93807 0.0
H1625 H 0.01615 0.04573 0.94237 0.0
H1626 H 0.98378 0.04582 0.94245 0.0
S1627 S 0.99965 0.97767 0.93027 0.0
N1628 N 0.01721 0.98973 0.93247 0.0
N1629 N 0.98221 0.98983 0.93256 0.0
C1630 C 0.9903 0.00462 0.93529 0.0
C1631 C 0.00925 0.00456 0.93524 0.0
C1632 C 0.17268 0.57076 0.14044 0.0
C1633 C 0.19104 0.57363 0.1395 0.0
C1634 C 0.16333 0.5615 0.1329 0.0
C1635 C 0.17196 0.55469 0.12411 0.0
H1636 H 0.16538 0.57614 0.14691 0.0
H1637 H 0.14912 0.56005 0.13382 0.0
S1638 S 0.22022 0.55708 0.11856 0.0
N1639 N 0.21775 0.56793 0.12948 0.0
N1640 N 0.20018 0.55041 0.11532 0.0
C1641 C 0.19041 0.55704 0.12323 0.0
C1642 C 0.19994 0.56652 0.13091 0.0
C1643 C 0.67303 0.91214 0.37336 0.0
C1644 C 0.69136 0.90899 0.37419 0.0
C1645 C 0.66393 0.92134 0.38104 0.0
C1646 C 0.67277 0.9278 0.38986 0.0
H1647 H 0.66555 0.90705 0.36686 0.0
H1648 H 0.64973 0.92306 0.38018 0.0
S1649 S 0.72105 0.92456 0.39518 0.0
N1650 N 0.71828 0.91406 0.38416 0.0
N1651 N 0.70115 0.93139 0.39859 0.0
C1652 C 0.69119 0.92513 0.39065 0.0
C1653 C 0.70047 0.91574 0.38282 0.0
C1654 C 0.33848 0.43533 0.63124 0.0
C1655 C 0.32907 0.44558 0.62415 0.0
C1656 C 0.32963 0.42537 0.63864 0.0
C1657 C 0.31099 0.42534 0.63931 0.0
H1658 H 0.35284 0.43472 0.63093 0.0
H1659 H 0.33744 0.41754 0.64386 0.0
S1660 S 0.28014 0.45032 0.62279 0.0
N1661 N 0.30008 0.45545 0.61844 0.0
N1662 N 0.28338 0.43661 0.63235 0.0
C1663 C 0.30139 0.43575 0.6324 0.0
C1664 C 0.31043 0.44584 0.6248 0.0
C1665 C 0.82723 0.09229 0.891 0.0
C1666 C 0.8284 0.07445 0.89045 0.0
C1667 C 0.81927 0.10175 0.883 0.0
C1668 C 0.81205 0.09376 0.87414 0.0
H1669 H 0.83298 0.09907 0.89752 0.0
H1670 H 0.81886 0.11547 0.88373 0.0
S1671 S 0.81089 0.04729 0.86917 0.0
N1672 N 0.82092 0.04909 0.88056 0.0
N1673 N 0.8062 0.06688 0.86544 0.0
C1674 C 0.81271 0.0759 0.87362 0.0
C1675 C 0.82086 0.06626 0.88177 0.0
C1676 C 0.17669 0.42839 0.89045 0.0
C1677 C 0.17381 0.44598 0.88938 0.0
C1678 C 0.18605 0.41918 0.8829 0.0
C1679 C 0.19297 0.42719 0.87397 0.0
H1680 H 0.1712 0.42158 0.89704 0.0
H1681 H 0.18747 0.40558 0.88393 0.0
S1682 S 0.19071 0.47332 0.86803 0.0
N1683 N 0.1797 0.47129 0.87908 0.0
N1684 N 0.1974 0.45399 0.86488 0.0
C1685 C 0.19065 0.44487 0.87295 0.0
C1686 C 0.18106 0.45425 0.88065 0.0
C1687 C 0.81827 0.89965 0.12914 0.0
C1688 C 0.81185 0.90746 0.13826 0.0
C1689 C 0.82642 0.90916 0.12123 0.0
C1690 C 0.8286 0.92687 0.12214 0.0
H1691 H 0.8171 0.88601 0.12813 0.0
H1692 H 0.83155 0.90249 0.11449 0.0
S1693 S 0.8134 0.95361 0.14421 0.0
N1694 N 0.8078 0.93407 0.1476 0.0
N1695 N 0.82287 0.95198 0.13266 0.0
C1696 C 0.82183 0.93491 0.13109 0.0
C1697 C 0.81349 0.92523 0.13915 0.0
C1698 C 0.30937 0.56173 0.37501 0.0
C1699 C 0.30963 0.57962 0.37452 0.0
C1700 C 0.31928 0.55291 0.38256 0.0
C1701 C 0.33 0.56168 0.38975 0.0
H1702 H 0.30144 0.55453 0.36953 0.0
H1703 H 0.31889 0.53914 0.38262 0.0
S1704 S 0.33522 0.60846 0.39178 0.0
N1705 N 0.32146 0.60574 0.38191 0.0
N1706 N 0.33995 0.5892 0.39607 0.0
C1707 C 0.33024 0.57954 0.38939 0.0
C1708 C 0.32009 0.5885 0.38179 0.0
C1709 C 0.68918 0.07961 0.62154 0.0
C1710 C 0.6717 0.07383 0.62309 0.0
C1711 C 0.69809 0.08904 0.62922 0.0
C1712 C 0.68987 0.09307 0.63876 0.0
H1713 H 0.69602 0.07686 0.61431 0.0
H1714 H 0.71151 0.09328 0.62766 0.0
S1715 S 0.64388 0.08181 0.64643 0.0
N1716 N 0.64629 0.07334 0.63476 0.0
N1717 N 0.66302 0.09102 0.64916 0.0
C1718 C 0.67243 0.08731 0.64042 0.0
C1719 C 0.66336 0.07772 0.63261 0.0
C1720 C 0.83016 0.42742 0.87207 0.0
C1721 C 0.81166 0.42534 0.87283 0.0
C1722 C 0.83967 0.43656 0.8796 0.0
C1723 C 0.83106 0.44403 0.88819 0.0
H1724 H 0.83743 0.42153 0.86575 0.0
H1725 H 0.85396 0.43743 0.87882 0.0
S1726 S 0.78257 0.44378 0.8932 0.0
N1727 N 0.78491 0.43246 0.88246 0.0
N1728 N 0.80278 0.44974 0.8966 0.0
C1729 C 0.8125 0.44244 0.8889 0.0
C1730 C 0.80282 0.43309 0.88122 0.0
C1731 C 0.31863 0.10512 0.62929 0.0
C1732 C 0.30986 0.0961 0.63723 0.0
C1733 C 0.32829 0.09666 0.62154 0.0
C1734 C 0.32949 0.0788 0.62135 0.0
H1735 H 0.31835 0.1189 0.62918 0.0
H1736 H 0.33497 0.10418 0.61566 0.0
S1737 S 0.30849 0.04918 0.64017 0.0
N1738 N 0.30255 0.06827 0.64427 0.0
N1739 N 0.32088 0.05233 0.62974 0.0
C1740 C 0.32053 0.06958 0.62913 0.0
C1741 C 0.31074 0.07822 0.63708 0.0
C1742 C 0.6855 0.58287 0.38224 0.0
C1743 C 0.69262 0.57502 0.37331 0.0
C1744 C 0.67623 0.57348 0.38975 0.0
C1745 C 0.67365 0.55585 0.38864 0.0
H1746 H 0.68673 0.59649 0.38331 0.0
H1747 H 0.6706 0.58017 0.39635 0.0
S1748 S 0.69109 0.52891 0.36725 0.0
N1749 N 0.69749 0.54836 0.36417 0.0
N1750 N 0.67998 0.5307 0.37828 0.0
C1751 C 0.68107 0.54775 0.3799 0.0
C1752 C 0.69055 0.55733 0.37224 0.0
C1753 C 0.17529 0.90812 0.1209 0.0
C1754 C 0.1737 0.92592 0.12153 0.0
C1755 C 0.18408 0.89881 0.12866 0.0
C1756 C 0.19166 0.9069 0.13738 0.0
H1757 H 0.16925 0.90125 0.1145 0.0
H1758 H 0.18456 0.88508 0.12796 0.0
S1759 S 0.19277 0.95342 0.14217 0.0
N1760 N 0.18152 0.95141 0.1312 0.0
N1761 N 0.19808 0.93391 0.14578 0.0
C1762 C 0.19059 0.92474 0.13796 0.0
C1763 C 0.18162 0.93423 0.13005 0.0
C1764 C 0.83821 0.56398 0.13283 0.0
C1765 C 0.83109 0.56026 0.12295 0.0
C1766 C 0.82825 0.57263 0.14038 0.0
C1767 C 0.81078 0.57801 0.13833 0.0
H1768 H 0.8517 0.56034 0.13471 0.0
H1769 H 0.83449 0.57563 0.14775 0.0
S1770 S 0.78556 0.57062 0.11392 0.0
N1771 N 0.80525 0.56216 0.11166 0.0
N1772 N 0.7864 0.57813 0.12592 0.0
C1773 C 0.80329 0.57391 0.12861 0.0
C1774 C 0.81344 0.56508 0.12091 0.0
C1775 C 0.17806 0.09131 0.89252 0.0
C1776 C 0.1711 0.07511 0.89031 0.0
C1777 C 0.18663 0.10094 0.88482 0.0
C1778 C 0.1887 0.09472 0.8746 0.0
H1779 H 0.17629 0.09688 0.90017 0.0
H1780 H 0.19146 0.11349 0.88684 0.0
S1781 S 0.17399 0.0525 0.865 0.0
N1782 N 0.16788 0.05279 0.87734 0.0
N1783 N 0.18366 0.07101 0.86282 0.0
C1784 C 0.18238 0.07827 0.87239 0.0
C1785 C 0.17364 0.06847 0.88024 0.0
C1786 C 0.68646 0.44115 0.63957 0.0
C1787 C 0.69159 0.42417 0.63786 0.0
C1788 C 0.67692 0.45028 0.63202 0.0
C1789 C 0.67215 0.44279 0.62246 0.0
H1790 H 0.68979 0.44741 0.64682 0.0
H1791 H 0.67315 0.46329 0.6337 0.0
S1792 S 0.6815 0.39839 0.61437 0.0
N1793 N 0.69064 0.40005 0.62601 0.0
N1794 N 0.67279 0.41722 0.61185 0.0
C1795 C 0.67728 0.42586 0.62063 0.0
C1796 C 0.68696 0.41656 0.62831 0.0
C1797 C 0.30274 0.91271 0.38296 0.0
C1798 C 0.31141 0.90814 0.37366 0.0
C1799 C 0.31155 0.92189 0.3908 0.0
C1800 C 0.32937 0.92689 0.38963 0.0
H1801 H 0.28903 0.90909 0.38422 0.0
H1802 H 0.30435 0.9251 0.39783 0.0
S1803 S 0.35843 0.91717 0.36707 0.0
N1804 N 0.33907 0.90876 0.36394 0.0
N1805 N 0.35559 0.926 0.37861 0.0
C1806 C 0.33819 0.92242 0.38037 0.0
C1807 C 0.32923 0.91307 0.3724 0.0
loop_
_geom_bond_atom_site_label_1
_geom_bond_atom_site_label_2
_geom_bond_distance
_geom_bond_site_symmetry_2
_ccdc_geom_bond_type
C0 C1 1.264 . S
C0 C5 1.479 . S
C0 C10 1.465 . S
C1 C0 1.264 . S
C1 C3 1.339 . S
C1 H28 0.931 . S
C2 C3 1.395 . S
C2 C4 1.320 . S
C3 C1 1.339 . S
C3 C2 1.395 . S
C3 H29 0.929 . S
C4 C2 1.320 . S
C4 C5 1.405 . S
C4 H30 0.930 . S
C5 C0 1.479 . S
C5 C4 1.405 . S
C5 H31 0.931 . S
U6 O7 2.454 . S
U6 O8 2.458 . S
U6 C9 2.984 . S
U6 C10 2.847 . S
U6 C23 2.882 . S
U6 O24 2.441 . S
U6 O25 2.420 . S
U6 O26 2.455 . S
U6 O27 2.449 . S
O7 U6 2.454 . S
O7 C9 1.353 . S
O8 U6 2.458 . S
O8 C9 1.286 . S
C9 U6 2.984 . S
C9 O7 1.353 . S
C9 O8 1.286 . S
C9 C11 1.363 . S
C10 C0 1.465 . S
C10 U6 2.847 . S
C10 O24 1.249 . S
C10 O25 1.202 . S
C11 C9 1.363 . S
C11 C13 1.408 . S
C11 C16 1.342 . S
C12 C13 1.310 . S
C12 C15 1.461 . S
C12 H32 0.932 . S
C13 C11 1.408 . S
C13 C12 1.310 . S
C13 H33 0.930 . S
C14 C15 1.474 . S
C14 C16 1.285 . S
C14 H34 0.929 . S
C15 C12 1.461 . S
C15 C14 1.474 . S
C16 C11 1.342 . S
C16 C14 1.285 . S
C16 H35 0.930 . S
C17 C20 1.424 . S
C17 C22 1.245 . S
C17 C23 1.428 . S
C18 C21 1.260 . S
C18 C22 1.477 . S
C18 H36 0.932 . S
C19 C20 1.384 . S
C19 C21 1.479 . S
C19 H37 0.929 . S
C20 C17 1.424 . S
C20 C19 1.384 . S
C20 H38 0.928 . S
C21 C18 1.260 . S
C21 C19 1.479 . S
C22 C17 1.245 . S
C22 C18 1.477 . S
C22 H39 0.932 . S
C23 U6 2.882 . S
C23 C17 1.428 . S
C23 O26 1.301 . S
C23 O27 1.282 . S
O24 U6 2.441 . S
O24 C10 1.249 . S
O25 U6 2.420 . S
O25 C10 1.202 . S
O26 U6 2.455 . S
O26 C23 1.301 . S
O27 U6 2.449 . S
O27 C23 1.282 . S
H28 C1 0.931 . S
H29 C3 0.929 . S
H30 C4 0.930 . S
H31 C5 0.931 . S
H32 C12 0.932 . S
H33 C13 0.930 . S
H34 C14 0.929 . S
H35 C16 0.930 . S
H36 C18 0.932 . S
H37 C19 0.929 . S
H38 C20 0.928 . S
H39 C22 0.932 . S
C40 C41 1.264 . S
C40 C45 1.479 . S
C40 C50 1.465 . S
C41 C40 1.264 . S
C41 C43 1.339 . S
C41 H68 0.931 . S
C42 C43 1.395 . S
C42 C44 1.320 . S
C43 C41 1.339 . S
C43 C42 1.395 . S
C43 H69 0.929 . S
C44 C42 1.320 . S
C44 C45 1.405 . S
C44 H70 0.930 . S
C45 C40 1.479 . S
C45 C44 1.405 . S
C45 H71 0.931 . S
U46 O47 2.454 . S
U46 O48 2.458 . S
U46 C49 2.984 . S
U46 C50 2.847 . S
U46 C63 2.882 . S
U46 O64 2.441 . S
U46 O65 2.420 . S
U46 O66 2.455 . S
U46 O67 2.449 . S
O47 U46 2.454 . S
O47 C49 1.353 . S
O48 U46 2.458 . S
O48 C49 1.286 . S
C49 U46 2.984 . S
C49 O47 1.353 . S
C49 O48 1.286 . S
C49 C51 1.363 . S
C50 C40 1.465 . S
C50 U46 2.847 . S
C50 O64 1.249 . S
C50 O65 1.202 . S
C51 C49 1.363 . S
C51 C53 1.408 . S
C51 C56 1.342 . S
C52 C53 1.310 . S
C52 C55 1.461 . S
C52 H72 0.932 . S
C53 C51 1.408 . S
C53 C52 1.310 . S
C53 H73 0.930 . S
C54 C55 1.474 . S
C54 C56 1.285 . S
C54 H74 0.929 . S
C55 C52 1.461 . S
C55 C54 1.474 . S
C56 C51 1.342 . S
C56 C54 1.285 . S
C56 H75 0.930 . S
C57 C60 1.424 . S
C57 C62 1.245 . S
C57 C63 1.428 . S
C58 C61 1.260 . S
C58 C62 1.477 . S
C58 H76 0.932 . S
C59 C60 1.384 . S
C59 C61 1.479 . S
C59 H77 0.929 . S
C60 C57 1.424 . S
C60 C59 1.384 . S
C60 H78 0.928 . S
C61 C58 1.260 . S
C61 C59 1.479 . S
C62 C57 1.245 . S
C62 C58 1.477 . S
C62 H79 0.932 . S
C63 U46 2.882 . S
C63 C57 1.428 . S
C63 O66 1.301 . S
C63 O67 1.282 . S
O64 U46 2.441 . S
O64 C50 1.249 . S
O65 U46 2.420 . S
O65 C50 1.202 . S
O66 U46 2.455 . S
O66 C63 1.301 . S
O67 U46 2.449 . S
O67 C63 1.282 . S
H68 C41 0.931 . S
H69 C43 0.929 . S
H70 C44 0.930 . S
H71 C45 0.931 . S
H72 C52 0.932 . S
H73 C53 0.930 . S
H74 C54 0.929 . S
H75 C56 0.930 . S
H76 C58 0.932 . S
H77 C59 0.929 . S
H78 C60 0.928 . S
H79 C62 0.932 . S
C80 C81 1.264 . S
C80 C85 1.479 . S
C80 C90 1.465 . S
C81 C80 1.264 . S
C81 C83 1.339 . S
C81 H108 0.931 . S
C82 C83 1.395 . S
C82 C84 1.320 . S
C83 C81 1.339 . S
C83 C82 1.395 . S
C83 H109 0.929 . S
C84 C82 1.320 . S
C84 C85 1.405 . S
C84 H110 0.930 . S
C85 C80 1.479 . S
C85 C84 1.405 . S
C85 H111 0.931 . S
U86 O87 2.454 . S
U86 O88 2.458 . S
U86 C89 2.984 . S
U86 C90 2.847 . S
U86 C103 2.882 . S
U86 O104 2.441 . S
U86 O105 2.420 . S
U86 O106 2.455 . S
U86 O107 2.449 . S
O87 U86 2.454 . S
O87 C89 1.353 . S
O88 U86 2.458 . S
O88 C89 1.286 . S
C89 U86 2.984 . S
C89 O87 1.353 . S
C89 O88 1.286 . S
C89 C91 1.363 . S
C90 C80 1.465 . S
C90 U86 2.847 . S
C90 O104 1.249 . S
C90 O105 1.202 . S
C91 C89 1.363 . S
C91 C93 1.408 . S
C91 C96 1.342 . S
C92 C93 1.310 . S
C92 C95 1.461 . S
C92 H112 0.932 . S
C93 C91 1.408 . S
C93 C92 1.310 . S
C93 H113 0.930 . S
C94 C95 1.474 . S
C94 C96 1.285 . S
C94 H114 0.929 . S
C95 C92 1.461 . S
C95 C94 1.474 . S
C96 C91 1.342 . S
C96 C94 1.285 . S
C96 H115 0.930 . S
C97 C100 1.424 . S
C97 C102 1.245 . S
C97 C103 1.428 . S
C98 C101 1.260 . S
C98 C102 1.477 . S
C98 H116 0.932 . S
C99 C100 1.384 . S
C99 C101 1.479 . S
C99 H117 0.929 . S
C100 C97 1.424 . S
C100 C99 1.384 . S
C100 H118 0.928 . S
C101 C98 1.260 . S
C101 C99 1.479 . S
C102 C97 1.245 . S
C102 C98 1.477 . S
C102 H119 0.932 . S
C103 U86 2.882 . S
C103 C97 1.428 . S
C103 O106 1.301 . S
C103 O107 1.282 . S
O104 U86 2.441 . S
O104 C90 1.249 . S
O105 U86 2.420 . S
O105 C90 1.202 . S
O106 U86 2.455 . S
O106 C103 1.301 . S
O107 U86 2.449 . S
O107 C103 1.282 . S
H108 C81 0.931 . S
H109 C83 0.929 . S
H110 C84 0.930 . S
H111 C85 0.931 . S
H112 C92 0.932 . S
H113 C93 0.930 . S
H114 C94 0.929 . S
H115 C96 0.930 . S
H116 C98 0.932 . S
H117 C99 0.929 . S
H118 C100 0.928 . S
H119 C102 0.932 . S
C120 C121 1.264 . S
C120 C125 1.479 . S
C120 C130 1.465 . S
C121 C120 1.264 . S
C121 C123 1.339 . S
C121 H148 0.931 . S
C122 C123 1.395 . S
C122 C124 1.320 . S
C123 C121 1.339 . S
C123 C122 1.395 . S
C123 H149 0.929 . S
C124 C122 1.320 . S
C124 C125 1.405 . S
C124 H150 0.930 . S
C125 C120 1.479 . S
C125 C124 1.405 . S
C125 H151 0.931 . S
U126 O127 2.454 . S
U126 O128 2.458 . S
U126 C129 2.984 . S
U126 C130 2.847 . S
U126 C143 2.882 . S
U126 O144 2.441 . S
U126 O145 2.420 . S
U126 O146 2.455 . S
U126 O147 2.449 . S
O127 U126 2.454 . S
O127 C129 1.353 . S
O128 U126 2.458 . S
O128 C129 1.286 . S
C129 U126 2.984 . S
C129 O127 1.353 . S
C129 O128 1.286 . S
C129 C131 1.363 . S
C130 C120 1.465 . S
C130 U126 2.847 . S
C130 O144 1.249 . S
C130 O145 1.202 . S
C131 C129 1.363 . S
C131 C133 1.408 . S
C131 C136 1.342 . S
C132 C133 1.310 . S
C132 C135 1.461 . S
C132 H152 0.932 . S
C133 C131 1.408 . S
C133 C132 1.310 . S
C133 H153 0.930 . S
C134 C135 1.474 . S
C134 C136 1.285 . S
C134 H154 0.929 . S
C135 C132 1.461 . S
C135 C134 1.474 . S
C136 C131 1.342 . S
C136 C134 1.285 . S
C136 H155 0.930 . S
C137 C140 1.424 . S
C137 C142 1.245 . S
C137 C143 1.428 . S
C138 C141 1.260 . S
C138 C142 1.477 . S
C138 H156 0.932 . S
C139 C140 1.384 . S
C139 C141 1.479 . S
C139 H157 0.929 . S
C140 C137 1.424 . S
C140 C139 1.384 . S
C140 H158 0.928 . S
C141 C138 1.260 . S
C141 C139 1.479 . S
C142 C137 1.245 . S
C142 C138 1.477 . S
C142 H159 0.932 . S
C143 U126 2.882 . S
C143 C137 1.428 . S
C143 O146 1.301 . S
C143 O147 1.282 . S
O144 U126 2.441 . S
O144 C130 1.249 . S
O145 U126 2.420 . S
O145 C130 1.202 . S
O146 U126 2.455 . S
O146 C143 1.301 . S
O147 U126 2.449 . S
O147 C143 1.282 . S
H148 C121 0.931 . S
H149 C123 0.929 . S
H150 C124 0.930 . S
H151 C125 0.931 . S
H152 C132 0.932 . S
H153 C133 0.930 . S
H154 C134 0.929 . S
H155 C136 0.930 . S
H156 C138 0.932 . S
H157 C139 0.929 . S
H158 C140 0.928 . S
H159 C142 0.932 . S
C160 C161 1.264 . S
C160 C165 1.479 . S
C160 C170 1.465 . S
C161 C160 1.264 . S
C161 C163 1.339 . S
C161 H188 0.931 . S
C162 C163 1.395 . S
C162 C164 1.320 . S
C163 C161 1.339 . S
C163 C162 1.395 . S
C163 H189 0.929 . S
C164 C162 1.320 . S
C164 C165 1.405 . S
C164 H190 0.930 . S
C165 C160 1.479 . S
C165 C164 1.405 . S
C165 H191 0.931 . S
U166 O167 2.454 . S
U166 O168 2.458 . S
U166 C169 2.984 . S
U166 C170 2.847 . S
U166 C183 2.882 . S
U166 O184 2.441 . S
U166 O185 2.420 . S
U166 O186 2.455 . S
U166 O187 2.449 . S
O167 U166 2.454 . S
O167 C169 1.353 . S
O168 U166 2.458 . S
O168 C169 1.286 . S
C169 U166 2.984 . S
C169 O167 1.353 . S
C169 O168 1.286 . S
C169 C171 1.363 . S
C170 C160 1.465 . S
C170 U166 2.847 . S
C170 O184 1.249 . S
C170 O185 1.202 . S
C171 C169 1.363 . S
C171 C173 1.408 . S
C171 C176 1.342 . S
C172 C173 1.310 . S
C172 C175 1.461 . S
C172 H192 0.932 . S
C173 C171 1.408 . S
C173 C172 1.310 . S
C173 H193 0.930 . S
C174 C175 1.474 . S
C174 C176 1.285 . S
C174 H194 0.929 . S
C175 C172 1.461 . S
C175 C174 1.474 . S
C176 C171 1.342 . S
C176 C174 1.285 . S
C176 H195 0.930 . S
C177 C180 1.424 . S
C177 C182 1.245 . S
C177 C183 1.428 . S
C178 C181 1.260 . S
C178 C182 1.477 . S
C178 H196 0.932 . S
C179 C180 1.384 . S
C179 C181 1.479 . S
C179 H197 0.929 . S
C180 C177 1.424 . S
C180 C179 1.384 . S
C180 H198 0.928 . S
C181 C178 1.260 . S
C181 C179 1.479 . S
C182 C177 1.245 . S
C182 C178 1.477 . S
C182 H199 0.932 . S
C183 U166 2.882 . S
C183 C177 1.428 . S
C183 O186 1.301 . S
C183 O187 1.282 . S
O184 U166 2.441 . S
O184 C170 1.249 . S
O185 U166 2.420 . S
O185 C170 1.202 . S
O186 U166 2.455 . S
O186 C183 1.301 . S
O187 U166 2.449 . S
O187 C183 1.282 . S
H188 C161 0.931 . S
H189 C163 0.929 . S
H190 C164 0.930 . S
H191 C165 0.931 . S
H192 C172 0.932 . S
H193 C173 0.930 . S
H194 C174 0.929 . S
H195 C176 0.930 . S
H196 C178 0.932 . S
H197 C179 0.929 . S
H198 C180 0.928 . S
H199 C182 0.932 . S
C200 C201 1.264 . S
C200 C205 1.479 . S
C200 C210 1.465 . S
C201 C200 1.264 . S
C201 C203 1.339 . S
C201 H228 0.931 . S
C202 C203 1.395 . S
C202 C204 1.320 . S
C203 C201 1.339 . S
C203 C202 1.395 . S
C203 H229 0.929 . S
C204 C202 1.320 . S
C204 C205 1.405 . S
C204 H230 0.930 . S
C205 C200 1.479 . S
C205 C204 1.405 . S
C205 H231 0.931 . S
U206 O207 2.454 . S
U206 O208 2.458 . S
U206 C209 2.984 . S
U206 C210 2.847 . S
U206 C223 2.882 . S
U206 O224 2.441 . S
U206 O225 2.420 . S
U206 O226 2.455 . S
U206 O227 2.449 . S
O207 U206 2.454 . S
O207 C209 1.353 . S
O208 U206 2.458 . S
O208 C209 1.286 . S
C209 U206 2.984 . S
C209 O207 1.353 . S
C209 O208 1.286 . S
C209 C211 1.363 . S
C210 C200 1.465 . S
C210 U206 2.847 . S
C210 O224 1.249 . S
C210 O225 1.202 . S
C211 C209 1.363 . S
C211 C213 1.408 . S
C211 C216 1.342 . S
C212 C213 1.310 . S
C212 C215 1.461 . S
C212 H232 0.932 . S
C213 C211 1.408 . S
C213 C212 1.310 . S
C213 H233 0.930 . S
C214 C215 1.474 . S
C214 C216 1.285 . S
C214 H234 0.929 . S
C215 C212 1.461 . S
C215 C214 1.474 . S
C216 C211 1.342 . S
C216 C214 1.285 . S
C216 H235 0.930 . S
C217 C220 1.424 . S
C217 C222 1.245 . S
C217 C223 1.428 . S
C218 C221 1.260 . S
C218 C222 1.477 . S
C218 H236 0.932 . S
C219 C220 1.384 . S
C219 C221 1.479 . S
C219 H237 0.929 . S
C220 C217 1.424 . S
C220 C219 1.384 . S
C220 H238 0.928 . S
C221 C218 1.260 . S
C221 C219 1.479 . S
C222 C217 1.245 . S
C222 C218 1.477 . S
C222 H239 0.932 . S
C223 U206 2.882 . S
C223 C217 1.428 . S
C223 O226 1.301 . S
C223 O227 1.282 . S
O224 U206 2.441 . S
O224 C210 1.249 . S
O225 U206 2.420 . S
O225 C210 1.202 . S
O226 U206 2.455 . S
O226 C223 1.301 . S
O227 U206 2.449 . S
O227 C223 1.282 . S
H228 C201 0.931 . S
H229 C203 0.929 . S
H230 C204 0.930 . S
H231 C205 0.931 . S
H232 C212 0.932 . S
H233 C213 0.930 . S
H234 C214 0.929 . S
H235 C216 0.930 . S
H236 C218 0.932 . S
H237 C219 0.929 . S
H238 C220 0.928 . S
H239 C222 0.932 . S
C240 C241 1.264 . S
C240 C245 1.479 . S
C240 C250 1.465 . S
C241 C240 1.264 . S
C241 C243 1.339 . S
C241 H268 0.931 . S
C242 C243 1.395 . S
C242 C244 1.320 . S
C243 C241 1.339 . S
C243 C242 1.395 . S
C243 H269 0.929 . S
C244 C242 1.320 . S
C244 C245 1.405 . S
C244 H270 0.930 . S
C245 C240 1.479 . S
C245 C244 1.405 . S
C245 H271 0.931 . S
U246 O247 2.454 . S
U246 O248 2.458 . S
U246 C249 2.984 . S
U246 C250 2.847 . S
U246 C263 2.882 . S
U246 O264 2.441 . S
U246 O265 2.420 . S
U246 O266 2.455 . S
U246 O267 2.449 . S
O247 U246 2.454 . S
O247 C249 1.353 . S
O248 U246 2.458 . S
O248 C249 1.286 . S
C249 U246 2.984 . S
C249 O247 1.353 . S
C249 O248 1.286 . S
C249 C251 1.363 . S
C250 C240 1.465 . S
C250 U246 2.847 . S
C250 O264 1.249 . S
C250 O265 1.202 . S
C251 C249 1.363 . S
C251 C253 1.408 . S
C251 C256 1.342 . S
C252 C253 1.310 . S
C252 C255 1.461 . S
C252 H272 0.932 . S
C253 C251 1.408 . S
C253 C252 1.310 . S
C253 H273 0.930 . S
C254 C255 1.474 . S
C254 C256 1.285 . S
C254 H274 0.929 . S
C255 C252 1.461 . S
C255 C254 1.474 . S
C256 C251 1.342 . S
C256 C254 1.285 . S
C256 H275 0.930 . S
C257 C260 1.424 . S
C257 C262 1.245 . S
C257 C263 1.428 . S
C258 C261 1.260 . S
C258 C262 1.477 . S
C258 H276 0.932 . S
C259 C260 1.384 . S
C259 C261 1.479 . S
C259 H277 0.929 . S
C260 C257 1.424 . S
C260 C259 1.384 . S
C260 H278 0.928 . S
C261 C258 1.260 . S
C261 C259 1.479 . S
C262 C257 1.245 . S
C262 C258 1.477 . S
C262 H279 0.932 . S
C263 U246 2.882 . S
C263 C257 1.428 . S
C263 O266 1.301 . S
C263 O267 1.282 . S
O264 U246 2.441 . S
O264 C250 1.249 . S
O265 U246 2.420 . S
O265 C250 1.202 . S
O266 U246 2.455 . S
O266 C263 1.301 . S
O267 U246 2.449 . S
O267 C263 1.282 . S
H268 C241 0.931 . S
H269 C243 0.929 . S
H270 C244 0.930 . S
H271 C245 0.931 . S
H272 C252 0.932 . S
H273 C253 0.930 . S
H274 C254 0.929 . S
H275 C256 0.930 . S
H276 C258 0.932 . S
H277 C259 0.929 . S
H278 C260 0.928 . S
H279 C262 0.932 . S
C280 C281 1.264 . S
C280 C285 1.479 . S
C280 C290 1.465 . S
C281 C280 1.264 . S
C281 C283 1.339 . S
C281 H308 0.931 . S
C282 C283 1.395 . S
C282 C284 1.320 . S
C283 C281 1.339 . S
C283 C282 1.395 . S
C283 H309 0.929 . S
C284 C282 1.320 . S
C284 C285 1.405 . S
C284 H310 0.930 . S
C285 C280 1.479 . S
C285 C284 1.405 . S
C285 H311 0.931 . S
U286 O287 2.454 . S
U286 O288 2.458 . S
U286 C289 2.984 . S
U286 C290 2.847 . S
U286 C303 2.882 . S
U286 O304 2.441 . S
U286 O305 2.420 . S
U286 O306 2.455 . S
U286 O307 2.449 . S
O287 U286 2.454 . S
O287 C289 1.353 . S
O288 U286 2.458 . S
O288 C289 1.286 . S
C289 U286 2.984 . S
C289 O287 1.353 . S
C289 O288 1.286 . S
C289 C291 1.363 . S
C290 C280 1.465 . S
C290 U286 2.847 . S
C290 O304 1.249 . S
C290 O305 1.202 . S
C291 C289 1.363 . S
C291 C293 1.408 . S
C291 C296 1.342 . S
C292 C293 1.310 . S
C292 C295 1.461 . S
C292 H312 0.932 . S
C293 C291 1.408 . S
C293 C292 1.310 . S
C293 H313 0.930 . S
C294 C295 1.474 . S
C294 C296 1.285 . S
C294 H314 0.929 . S
C295 C292 1.461 . S
C295 C294 1.474 . S
C296 C291 1.342 . S
C296 C294 1.285 . S
C296 H315 0.930 . S
C297 C300 1.424 . S
C297 C302 1.245 . S
C297 C303 1.428 . S
C298 C301 1.260 . S
C298 C302 1.477 . S
C298 H316 0.932 . S
C299 C300 1.384 . S
C299 C301 1.479 . S
C299 H317 0.929 . S
C300 C297 1.424 . S
C300 C299 1.384 . S
C300 H318 0.928 . S
C301 C298 1.260 . S
C301 C299 1.479 . S
C302 C297 1.245 . S
C302 C298 1.477 . S
C302 H319 0.932 . S
C303 U286 2.882 . S
C303 C297 1.428 . S
C303 O306 1.301 . S
C303 O307 1.282 . S
O304 U286 2.441 . S
O304 C290 1.249 . S
O305 U286 2.420 . S
O305 C290 1.202 . S
O306 U286 2.455 . S
O306 C303 1.301 . S
O307 U286 2.449 . S
O307 C303 1.282 . S
H308 C281 0.931 . S
H309 C283 0.929 . S
H310 C284 0.930 . S
H311 C285 0.931 . S
H312 C292 0.932 . S
H313 C293 0.930 . S
H314 C294 0.929 . S
H315 C296 0.930 . S
H316 C298 0.932 . S
H317 C299 0.929 . S
H318 C300 0.928 . S
H319 C302 0.932 . S
C320 C321 1.264 . S
C320 C325 1.479 . S
C320 C330 1.465 . S
C321 C320 1.264 . S
C321 C323 1.339 . S
C321 H348 0.931 . S
C322 C323 1.395 . S
C322 C324 1.320 . S
C323 C321 1.339 . S
C323 C322 1.395 . S
C323 H349 0.929 . S
C324 C322 1.320 . S
C324 C325 1.405 . S
C324 H350 0.930 . S
C325 C320 1.479 . S
C325 C324 1.405 . S
C325 H351 0.931 . S
U326 O327 2.454 . S
U326 O328 2.458 . S
U326 C329 2.984 . S
U326 C330 2.847 . S
U326 C343 2.882 . S
U326 O344 2.441 . S
U326 O345 2.420 . S
U326 O346 2.455 . S
U326 O347 2.449 . S
O327 U326 2.454 . S
O327 C329 1.353 . S
O328 U326 2.458 . S
O328 C329 1.286 . S
C329 U326 2.984 . S
C329 O327 1.353 . S
C329 O328 1.286 . S
C329 C331 1.363 . S
C330 C320 1.465 . S
C330 U326 2.847 . S
C330 O344 1.249 . S
C330 O345 1.202 . S
C331 C329 1.363 . S
C331 C333 1.408 . S
C331 C336 1.342 . S
C332 C333 1.310 . S
C332 C335 1.461 . S
C332 H352 0.932 . S
C333 C331 1.408 . S
C333 C332 1.310 . S
C333 H353 0.930 . S
C334 C335 1.474 . S
C334 C336 1.285 . S
C334 H354 0.929 . S
C335 C332 1.461 . S
C335 C334 1.474 . S
C336 C331 1.342 . S
C336 C334 1.285 . S
C336 H355 0.930 . S
C337 C340 1.424 . S
C337 C342 1.245 . S
C337 C343 1.428 . S
C338 C341 1.260 . S
C338 C342 1.477 . S
C338 H356 0.932 . S
C339 C340 1.384 . S
C339 C341 1.479 . S
C339 H357 0.929 . S
C340 C337 1.424 . S
C340 C339 1.384 . S
C340 H358 0.928 . S
C341 C338 1.260 . S
C341 C339 1.479 . S
C342 C337 1.245 . S
C342 C338 1.477 . S
C342 H359 0.932 . S
C343 U326 2.882 . S
C343 C337 1.428 . S
C343 O346 1.301 . S
C343 O347 1.282 . S
O344 U326 2.441 . S
O344 C330 1.249 . S
O345 U326 2.420 . S
O345 C330 1.202 . S
O346 U326 2.455 . S
O346 C343 1.301 . S
O347 U326 2.449 . S
O347 C343 1.282 . S
H348 C321 0.931 . S
H349 C323 0.929 . S
H350 C324 0.930 . S
H351 C325 0.931 . S
H352 C332 0.932 . S
H353 C333 0.930 . S
H354 C334 0.929 . S
H355 C336 0.930 . S
H356 C338 0.932 . S
H357 C339 0.929 . S
H358 C340 0.928 . S
H359 C342 0.932 . S
C360 C361 1.264 . S
C360 C365 1.479 . S
C360 C370 1.465 . S
C361 C360 1.264 . S
C361 C363 1.339 . S
C361 H388 0.931 . S
C362 C363 1.395 . S
C362 C364 1.320 . S
C363 C361 1.339 . S
C363 C362 1.395 . S
C363 H389 0.929 . S
C364 C362 1.320 . S
C364 C365 1.405 . S
C364 H390 0.930 . S
C365 C360 1.479 . S
C365 C364 1.405 . S
C365 H391 0.931 . S
U366 O367 2.454 . S
U366 O368 2.458 . S
U366 C369 2.984 . S
U366 C370 2.847 . S
U366 C383 2.882 . S
U366 O384 2.441 . S
U366 O385 2.420 . S
U366 O386 2.455 . S
U366 O387 2.449 . S
O367 U366 2.454 . S
O367 C369 1.353 . S
O368 U366 2.458 . S
O368 C369 1.286 . S
C369 U366 2.984 . S
C369 O367 1.353 . S
C369 O368 1.286 . S
C369 C371 1.363 . S
C370 C360 1.465 . S
C370 U366 2.847 . S
C370 O384 1.249 . S
C370 O385 1.202 . S
C371 C369 1.363 . S
C371 C373 1.408 . S
C371 C376 1.342 . S
C372 C373 1.310 . S
C372 C375 1.461 . S
C372 H392 0.932 . S
C373 C371 1.408 . S
C373 C372 1.310 . S
C373 H393 0.930 . S
C374 C375 1.474 . S
C374 C376 1.285 . S
C374 H394 0.929 . S
C375 C372 1.461 . S
C375 C374 1.474 . S
C376 C371 1.342 . S
C376 C374 1.285 . S
C376 H395 0.930 . S
C377 C380 1.424 . S
C377 C382 1.245 . S
C377 C383 1.428 . S
C378 C381 1.260 . S
C378 C382 1.477 . S
C378 H396 0.932 . S
C379 C380 1.384 . S
C379 C381 1.479 . S
C379 H397 0.929 . S
C380 C377 1.424 . S
C380 C379 1.384 . S
C380 H398 0.928 . S
C381 C378 1.260 . S
C381 C379 1.479 . S
C382 C377 1.245 . S
C382 C378 1.477 . S
C382 H399 0.932 . S
C383 U366 2.882 . S
C383 C377 1.428 . S
C383 O386 1.301 . S
C383 O387 1.282 . S
O384 U366 2.441 . S
O384 C370 1.249 . S
O385 U366 2.420 . S
O385 C370 1.202 . S
O386 U366 2.455 . S
O386 C383 1.301 . S
O387 U366 2.449 . S
O387 C383 1.282 . S
H388 C361 0.931 . S
H389 C363 0.929 . S
H390 C364 0.930 . S
H391 C365 0.931 . S
H392 C372 0.932 . S
H393 C373 0.930 . S
H394 C374 0.929 . S
H395 C376 0.930 . S
H396 C378 0.932 . S
H397 C379 0.929 . S
H398 C380 0.928 . S
H399 C382 0.932 . S
C400 C401 1.264 . S
C400 C405 1.479 . S
C400 C410 1.465 . S
C401 C400 1.264 . S
C401 C403 1.339 . S
C401 H428 0.931 . S
C402 C403 1.395 . S
C402 C404 1.320 . S
C403 C401 1.339 . S
C403 C402 1.395 . S
C403 H429 0.929 . S
C404 C402 1.320 . S
C404 C405 1.405 . S
C404 H430 0.930 . S
C405 C400 1.479 . S
C405 C404 1.405 . S
C405 H431 0.931 . S
U406 O407 2.454 . S
U406 O408 2.458 . S
U406 C409 2.984 . S
U406 C410 2.847 . S
U406 C423 2.882 . S
U406 O424 2.441 . S
U406 O425 2.420 . S
U406 O426 2.455 . S
U406 O427 2.449 . S
O407 U406 2.454 . S
O407 C409 1.353 . S
O408 U406 2.458 . S
O408 C409 1.286 . S
C409 U406 2.984 . S
C409 O407 1.353 . S
C409 O408 1.286 . S
C409 C411 1.363 . S
C410 C400 1.465 . S
C410 U406 2.847 . S
C410 O424 1.249 . S
C410 O425 1.202 . S
C411 C409 1.363 . S
C411 C413 1.408 . S
C411 C416 1.342 . S
C412 C413 1.310 . S
C412 C415 1.461 . S
C412 H432 0.932 . S
C413 C411 1.408 . S
C413 C412 1.310 . S
C413 H433 0.930 . S
C414 C415 1.474 . S
C414 C416 1.285 . S
C414 H434 0.929 . S
C415 C412 1.461 . S
C415 C414 1.474 . S
C416 C411 1.342 . S
C416 C414 1.285 . S
C416 H435 0.930 . S
C417 C420 1.424 . S
C417 C422 1.245 . S
C417 C423 1.428 . S
C418 C421 1.260 . S
C418 C422 1.477 . S
C418 H436 0.932 . S
C419 C420 1.384 . S
C419 C421 1.479 . S
C419 H437 0.929 . S
C420 C417 1.424 . S
C420 C419 1.384 . S
C420 H438 0.928 . S
C421 C418 1.260 . S
C421 C419 1.479 . S
C422 C417 1.245 . S
C422 C418 1.477 . S
C422 H439 0.932 . S
C423 U406 2.882 . S
C423 C417 1.428 . S
C423 O426 1.301 . S
C423 O427 1.282 . S
O424 U406 2.441 . S
O424 C410 1.249 . S
O425 U406 2.420 . S
O425 C410 1.202 . S
O426 U406 2.455 . S
O426 C423 1.301 . S
O427 U406 2.449 . S
O427 C423 1.282 . S
H428 C401 0.931 . S
H429 C403 0.929 . S
H430 C404 0.930 . S
H431 C405 0.931 . S
H432 C412 0.932 . S
H433 C413 0.930 . S
H434 C414 0.929 . S
H435 C416 0.930 . S
H436 C418 0.932 . S
H437 C419 0.929 . S
H438 C420 0.928 . S
H439 C422 0.932 . S
C440 C441 1.264 . S
C440 C445 1.479 . S
C440 C450 1.465 . S
C441 C440 1.264 . S
C441 C443 1.339 . S
C441 H468 0.931 . S
C442 C443 1.395 . S
C442 C444 1.320 . S
C443 C441 1.339 . S
C443 C442 1.395 . S
C443 H469 0.929 . S
C444 C442 1.320 . S
C444 C445 1.405 . S
C444 H470 0.930 . S
C445 C440 1.479 . S
C445 C444 1.405 . S
C445 H471 0.931 . S
U446 O447 2.454 . S
U446 O448 2.458 . S
U446 C449 2.984 . S
U446 C450 2.847 . S
U446 C463 2.882 . S
U446 O464 2.441 . S
U446 O465 2.420 . S
U446 O466 2.455 . S
U446 O467 2.449 . S
O447 U446 2.454 . S
O447 C449 1.353 . S
O448 U446 2.458 . S
O448 C449 1.286 . S
C449 U446 2.984 . S
C449 O447 1.353 . S
C449 O448 1.286 . S
C449 C451 1.363 . S
C450 C440 1.465 . S
C450 U446 2.847 . S
C450 O464 1.249 . S
C450 O465 1.202 . S
C451 C449 1.363 . S
C451 C453 1.408 . S
C451 C456 1.342 . S
C452 C453 1.310 . S
C452 C455 1.461 . S
C452 H472 0.932 . S
C453 C451 1.408 . S
C453 C452 1.310 . S
C453 H473 0.930 . S
C454 C455 1.474 . S
C454 C456 1.285 . S
C454 H474 0.929 . S
C455 C452 1.461 . S
C455 C454 1.474 . S
C456 C451 1.342 . S
C456 C454 1.285 . S
C456 H475 0.930 . S
C457 C460 1.424 . S
C457 C462 1.245 . S
C457 C463 1.428 . S
C458 C461 1.260 . S
C458 C462 1.477 . S
C458 H476 0.932 . S
C459 C460 1.384 . S
C459 C461 1.479 . S
C459 H477 0.929 . S
C460 C457 1.424 . S
C460 C459 1.384 . S
C460 H478 0.928 . S
C461 C458 1.260 . S
C461 C459 1.479 . S
C462 C457 1.245 . S
C462 C458 1.477 . S
C462 H479 0.932 . S
C463 U446 2.882 . S
C463 C457 1.428 . S
C463 O466 1.301 . S
C463 O467 1.282 . S
O464 U446 2.441 . S
O464 C450 1.249 . S
O465 U446 2.420 . S
O465 C450 1.202 . S
O466 U446 2.455 . S
O466 C463 1.301 . S
O467 U446 2.449 . S
O467 C463 1.282 . S
H468 C441 0.931 . S
H469 C443 0.929 . S
H470 C444 0.930 . S
H471 C445 0.931 . S
H472 C452 0.932 . S
H473 C453 0.930 . S
H474 C454 0.929 . S
H475 C456 0.930 . S
H476 C458 0.932 . S
H477 C459 0.929 . S
H478 C460 0.928 . S
H479 C462 0.932 . S
C480 C481 1.264 . S
C480 C485 1.479 . S
C480 C490 1.465 . S
C481 C480 1.264 . S
C481 C483 1.339 . S
C481 H508 0.931 . S
C482 C483 1.395 . S
C482 C484 1.320 . S
C483 C481 1.339 . S
C483 C482 1.395 . S
C483 H509 0.929 . S
C484 C482 1.320 . S
C484 C485 1.405 . S
C484 H510 0.930 . S
C485 C480 1.479 . S
C485 C484 1.405 . S
C485 H511 0.931 . S
U486 O487 2.454 . S
U486 O488 2.458 . S
U486 C489 2.984 . S
U486 C490 2.847 . S
U486 C503 2.882 . S
U486 O504 2.441 . S
U486 O505 2.420 . S
U486 O506 2.455 . S
U486 O507 2.449 . S
O487 U486 2.454 . S
O487 C489 1.353 . S
O488 U486 2.458 . S
O488 C489 1.286 . S
C489 U486 2.984 . S
C489 O487 1.353 . S
C489 O488 1.286 . S
C489 C491 1.363 . S
C490 C480 1.465 . S
C490 U486 2.847 . S
C490 O504 1.249 . S
C490 O505 1.202 . S
C491 C489 1.363 . S
C491 C493 1.408 . S
C491 C496 1.342 . S
C492 C493 1.310 . S
C492 C495 1.461 . S
C492 H512 0.932 . S
C493 C491 1.408 . S
C493 C492 1.310 . S
C493 H513 0.930 . S
C494 C495 1.474 . S
C494 C496 1.285 . S
C494 H514 0.929 . S
C495 C492 1.461 . S
C495 C494 1.474 . S
C496 C491 1.342 . S
C496 C494 1.285 . S
C496 H515 0.930 . S
C497 C500 1.424 . S
C497 C502 1.245 . S
C497 C503 1.428 . S
C498 C501 1.260 . S
C498 C502 1.477 . S
C498 H516 0.932 . S
C499 C500 1.384 . S
C499 C501 1.479 . S
C499 H517 0.929 . S
C500 C497 1.424 . S
C500 C499 1.384 . S
C500 H518 0.928 . S
C501 C498 1.260 . S
C501 C499 1.479 . S
C502 C497 1.245 . S
C502 C498 1.477 . S
C502 H519 0.932 . S
C503 U486 2.882 . S
C503 C497 1.428 . S
C503 O506 1.301 . S
C503 O507 1.282 . S
O504 U486 2.441 . S
O504 C490 1.249 . S
O505 U486 2.420 . S
O505 C490 1.202 . S
O506 U486 2.455 . S
O506 C503 1.301 . S
O507 U486 2.449 . S
O507 C503 1.282 . S
H508 C481 0.931 . S
H509 C483 0.929 . S
H510 C484 0.930 . S
H511 C485 0.931 . S
H512 C492 0.932 . S
H513 C493 0.930 . S
H514 C494 0.929 . S
H515 C496 0.930 . S
H516 C498 0.932 . S
H517 C499 0.929 . S
H518 C500 0.928 . S
H519 C502 0.932 . S
C520 C521 1.264 . S
C520 C525 1.479 . S
C520 C530 1.465 . S
C521 C520 1.264 . S
C521 C523 1.339 . S
C521 H548 0.931 . S
C522 C523 1.395 . S
C522 C524 1.320 . S
C523 C521 1.339 . S
C523 C522 1.395 . S
C523 H549 0.929 . S
C524 C522 1.320 . S
C524 C525 1.405 . S
C524 H550 0.930 . S
C525 C520 1.479 . S
C525 C524 1.405 . S
C525 H551 0.931 . S
U526 O527 2.454 . S
U526 O528 2.458 . S
U526 C529 2.984 . S
U526 C530 2.847 . S
U526 C543 2.882 . S
U526 O544 2.441 . S
U526 O545 2.420 . S
U526 O546 2.455 . S
U526 O547 2.449 . S
O527 U526 2.454 . S
O527 C529 1.353 . S
O528 U526 2.458 . S
O528 C529 1.286 . S
C529 U526 2.984 . S
C529 O527 1.353 . S
C529 O528 1.286 . S
C529 C531 1.363 . S
C530 C520 1.465 . S
C530 U526 2.847 . S
C530 O544 1.249 . S
C530 O545 1.202 . S
C531 C529 1.363 . S
C531 C533 1.408 . S
C531 C536 1.342 . S
C532 C533 1.310 . S
C532 C535 1.461 . S
C532 H552 0.932 . S
C533 C531 1.408 . S
C533 C532 1.310 . S
C533 H553 0.930 . S
C534 C535 1.474 . S
C534 C536 1.285 . S
C534 H554 0.929 . S
C535 C532 1.461 . S
C535 C534 1.474 . S
C536 C531 1.342 . S
C536 C534 1.285 . S
C536 H555 0.930 . S
C537 C540 1.424 . S
C537 C542 1.245 . S
C537 C543 1.428 . S
C538 C541 1.260 . S
C538 C542 1.477 . S
C538 H556 0.932 . S
C539 C540 1.384 . S
C539 C541 1.479 . S
C539 H557 0.929 . S
C540 C537 1.424 . S
C540 C539 1.384 . S
C540 H558 0.928 . S
C541 C538 1.260 . S
C541 C539 1.479 . S
C542 C537 1.245 . S
C542 C538 1.477 . S
C542 H559 0.932 . S
C543 U526 2.882 . S
C543 C537 1.428 . S
C543 O546 1.301 . S
C543 O547 1.282 . S
O544 U526 2.441 . S
O544 C530 1.249 . S
O545 U526 2.420 . S
O545 C530 1.202 . S
O546 U526 2.455 . S
O546 C543 1.301 . S
O547 U526 2.449 . S
O547 C543 1.282 . S
H548 C521 0.931 . S
H549 C523 0.929 . S
H550 C524 0.930 . S
H551 C525 0.931 . S
H552 C532 0.932 . S
H553 C533 0.930 . S
H554 C534 0.929 . S
H555 C536 0.930 . S
H556 C538 0.932 . S
H557 C539 0.929 . S
H558 C540 0.928 . S
H559 C542 0.932 . S
C560 C561 1.264 . S
C560 C565 1.479 . S
C560 C570 1.465 . S
C561 C560 1.264 . S
C561 C563 1.339 . S
C561 H588 0.931 . S
C562 C563 1.395 . S
C562 C564 1.320 . S
C563 C561 1.339 . S
C563 C562 1.395 . S
C563 H589 0.929 . S
C564 C562 1.320 . S
C564 C565 1.405 . S
C564 H590 0.930 . S
C565 C560 1.479 . S
C565 C564 1.405 . S
C565 H591 0.931 . S
U566 O567 2.454 . S
U566 O568 2.458 . S
U566 C569 2.984 . S
U566 C570 2.847 . S
U566 C583 2.882 . S
U566 O584 2.441 . S
U566 O585 2.420 . S
U566 O586 2.455 . S
U566 O587 2.449 . S
O567 U566 2.454 . S
O567 C569 1.353 . S
O568 U566 2.458 . S
O568 C569 1.286 . S
C569 U566 2.984 . S
C569 O567 1.353 . S
C569 O568 1.286 . S
C569 C571 1.363 . S
C570 C560 1.465 . S
C570 U566 2.847 . S
C570 O584 1.249 . S
C570 O585 1.202 . S
C571 C569 1.363 . S
C571 C573 1.408 . S
C571 C576 1.342 . S
C572 C573 1.310 . S
C572 C575 1.461 . S
C572 H592 0.932 . S
C573 C571 1.408 . S
C573 C572 1.310 . S
C573 H593 0.930 . S
C574 C575 1.474 . S
C574 C576 1.285 . S
C574 H594 0.929 . S
C575 C572 1.461 . S
C575 C574 1.474 . S
C576 C571 1.342 . S
C576 C574 1.285 . S
C576 H595 0.930 . S
C577 C580 1.424 . S
C577 C582 1.245 . S
C577 C583 1.428 . S
C578 C581 1.260 . S
C578 C582 1.477 . S
C578 H596 0.932 . S
C579 C580 1.384 . S
C579 C581 1.479 . S
C579 H597 0.929 . S
C580 C577 1.424 . S
C580 C579 1.384 . S
C580 H598 0.928 . S
C581 C578 1.260 . S
C581 C579 1.479 . S
C582 C577 1.245 . S
C582 C578 1.477 . S
C582 H599 0.932 . S
C583 U566 2.882 . S
C583 C577 1.428 . S
C583 O586 1.301 . S
C583 O587 1.282 . S
O584 U566 2.441 . S
O584 C570 1.249 . S
O585 U566 2.420 . S
O585 C570 1.202 . S
O586 U566 2.455 . S
O586 C583 1.301 . S
O587 U566 2.449 . S
O587 C583 1.282 . S
H588 C561 0.931 . S
H589 C563 0.929 . S
H590 C564 0.930 . S
H591 C565 0.931 . S
H592 C572 0.932 . S
H593 C573 0.930 . S
H594 C574 0.929 . S
H595 C576 0.930 . S
H596 C578 0.932 . S
H597 C579 0.929 . S
H598 C580 0.928 . S
H599 C582 0.932 . S
C600 C601 1.264 . S
C600 C605 1.479 . S
C600 C610 1.465 . S
C601 C600 1.264 . S
C601 C603 1.339 . S
C601 H628 0.931 . S
C602 C603 1.395 . S
C602 C604 1.320 . S
C603 C601 1.339 . S
C603 C602 1.395 . S
C603 H629 0.929 . S
C604 C602 1.320 . S
C604 C605 1.405 . S
C604 H630 0.930 . S
C605 C600 1.479 . S
C605 C604 1.405 . S
C605 H631 0.931 . S
U606 O607 2.454 . S
U606 O608 2.458 . S
U606 C609 2.984 . S
U606 C610 2.847 . S
U606 C623 2.882 . S
U606 O624 2.441 . S
U606 O625 2.420 . S
U606 O626 2.455 . S
U606 O627 2.449 . S
O607 U606 2.454 . S
O607 C609 1.353 . S
O608 U606 2.458 . S
O608 C609 1.286 . S
C609 U606 2.984 . S
C609 O607 1.353 . S
C609 O608 1.286 . S
C609 C611 1.363 . S
C610 C600 1.465 . S
C610 U606 2.847 . S
C610 O624 1.249 . S
C610 O625 1.202 . S
C611 C609 1.363 . S
C611 C613 1.408 . S
C611 C616 1.342 . S
C612 C613 1.310 . S
C612 C615 1.461 . S
C612 H632 0.932 . S
C613 C611 1.408 . S
C613 C612 1.310 . S
C613 H633 0.930 . S
C614 C615 1.474 . S
C614 C616 1.285 . S
C614 H634 0.929 . S
C615 C612 1.461 . S
C615 C614 1.474 . S
C616 C611 1.342 . S
C616 C614 1.285 . S
C616 H635 0.930 . S
C617 C620 1.424 . S
C617 C622 1.245 . S
C617 C623 1.428 . S
C618 C621 1.260 . S
C618 C622 1.477 . S
C618 H636 0.932 . S
C619 C620 1.384 . S
C619 C621 1.479 . S
C619 H637 0.929 . S
C620 C617 1.424 . S
C620 C619 1.384 . S
C620 H638 0.928 . S
C621 C618 1.260 . S
C621 C619 1.479 . S
C622 C617 1.245 . S
C622 C618 1.477 . S
C622 H639 0.932 . S
C623 U606 2.882 . S
C623 C617 1.428 . S
C623 O626 1.301 . S
C623 O627 1.282 . S
O624 U606 2.441 . S
O624 C610 1.249 . S
O625 U606 2.420 . S
O625 C610 1.202 . S
O626 U606 2.455 . S
O626 C623 1.301 . S
O627 U606 2.449 . S
O627 C623 1.282 . S
H628 C601 0.931 . S
H629 C603 0.929 . S
H630 C604 0.930 . S
H631 C605 0.931 . S
H632 C612 0.932 . S
H633 C613 0.930 . S
H634 C614 0.929 . S
H635 C616 0.930 . S
H636 C618 0.932 . S
H637 C619 0.929 . S
H638 C620 0.928 . S
H639 C622 0.932 . S
C640 C641 1.264 . S
C640 C645 1.479 . S
C640 C650 1.465 . S
C641 C640 1.264 . S
C641 C643 1.339 . S
C641 H668 0.931 . S
C642 C643 1.395 . S
C642 C644 1.320 . S
C643 C641 1.339 . S
C643 C642 1.395 . S
C643 H669 0.929 . S
C644 C642 1.320 . S
C644 C645 1.405 . S
C644 H670 0.930 . S
C645 C640 1.479 . S
C645 C644 1.405 . S
C645 H671 0.931 . S
U646 O647 2.454 1_565 S
U646 O648 2.458 1_565 S
U646 C649 2.984 1_565 S
U646 C650 2.847 . S
U646 C663 2.882 . S
U646 O664 2.441 . S
U646 O665 2.420 . S
U646 O666 2.455 . S
U646 O667 2.449 . S
O647 U646 2.454 1_545 S
O647 C649 1.353 . S
O648 U646 2.458 1_545 S
O648 C649 1.286 . S
C649 U646 2.984 1_545 S
C649 O647 1.353 . S
C649 O648 1.286 . S
C649 C651 1.363 . S
C650 C640 1.465 . S
C650 U646 2.847 . S
C650 O664 1.249 . S
C650 O665 1.202 . S
C651 C649 1.363 . S
C651 C653 1.408 . S
C651 C656 1.342 . S
C652 C653 1.310 . S
C652 C655 1.461 . S
C652 H672 0.932 . S
C653 C651 1.408 . S
C653 C652 1.310 . S
C653 H673 0.930 . S
C654 C655 1.474 . S
C654 C656 1.285 . S
C654 H674 0.929 . S
C655 C652 1.461 . S
C655 C654 1.474 . S
C656 C651 1.342 . S
C656 C654 1.285 . S
C656 H675 0.930 . S
C657 C660 1.424 . S
C657 C662 1.245 . S
C657 C663 1.428 . S
C658 C661 1.260 . S
C658 C662 1.477 . S
C658 H676 0.932 . S
C659 C660 1.384 . S
C659 C661 1.479 . S
C659 H677 0.929 . S
C660 C657 1.424 . S
C660 C659 1.384 . S
C660 H678 0.928 . S
C661 C658 1.260 . S
C661 C659 1.479 . S
C662 C657 1.245 . S
C662 C658 1.477 . S
C662 H679 0.932 . S
C663 U646 2.882 . S
C663 C657 1.428 . S
C663 O666 1.301 . S
C663 O667 1.282 . S
O664 U646 2.441 . S
O664 C650 1.249 . S
O665 U646 2.420 . S
O665 C650 1.202 . S
O666 U646 2.455 . S
O666 C663 1.301 . S
O667 U646 2.449 . S
O667 C663 1.282 . S
H668 C641 0.931 . S
H669 C643 0.929 . S
H670 C644 0.930 . S
H671 C645 0.931 . S
H672 C652 0.932 . S
H673 C653 0.930 . S
H674 C654 0.929 . S
H675 C656 0.930 . S
H676 C658 0.932 . S
H677 C659 0.929 . S
H678 C660 0.928 . S
H679 C662 0.932 . S
C680 C681 1.264 . S
C680 C685 1.479 . S
C680 C690 1.465 . S
C681 C680 1.264 . S
C681 C683 1.339 . S
C681 H708 0.931 . S
C682 C683 1.395 . S
C682 C684 1.320 . S
C683 C681 1.339 . S
C683 C682 1.395 . S
C683 H709 0.929 . S
C684 C682 1.320 . S
C684 C685 1.405 . S
C684 H710 0.930 . S
C685 C680 1.479 . S
C685 C684 1.405 . S
C685 H711 0.931 . S
U686 O687 2.454 . S
U686 O688 2.458 . S
U686 C689 2.984 . S
U686 C690 2.847 . S
U686 C703 2.882 . S
U686 O704 2.441 . S
U686 O705 2.420 . S
U686 O706 2.455 . S
U686 O707 2.449 . S
O687 U686 2.454 . S
O687 C689 1.353 . S
O688 U686 2.458 . S
O688 C689 1.286 . S
C689 U686 2.984 . S
C689 O687 1.353 . S
C689 O688 1.286 . S
C689 C691 1.363 . S
C690 C680 1.465 . S
C690 U686 2.847 . S
C690 O704 1.249 . S
C690 O705 1.202 . S
C691 C689 1.363 . S
C691 C693 1.408 . S
C691 C696 1.342 . S
C692 C693 1.310 . S
C692 C695 1.461 . S
C692 H712 0.932 . S
C693 C691 1.408 . S
C693 C692 1.310 . S
C693 H713 0.930 . S
C694 C695 1.474 . S
C694 C696 1.285 . S
C694 H714 0.929 . S
C695 C692 1.461 . S
C695 C694 1.474 . S
C696 C691 1.342 . S
C696 C694 1.285 . S
C696 H715 0.930 . S
C697 C700 1.424 . S
C697 C702 1.245 . S
C697 C703 1.428 . S
C698 C701 1.260 . S
C698 C702 1.477 . S
C698 H716 0.932 . S
C699 C700 1.384 . S
C699 C701 1.479 . S
C699 H717 0.929 . S
C700 C697 1.424 . S
C700 C699 1.384 . S
C700 H718 0.928 . S
C701 C698 1.260 . S
C701 C699 1.479 . S
C702 C697 1.245 . S
C702 C698 1.477 . S
C702 H719 0.932 . S
C703 U686 2.882 . S
C703 C697 1.428 . S
C703 O706 1.301 . S
C703 O707 1.282 . S
O704 U686 2.441 . S
O704 C690 1.249 . S
O705 U686 2.420 . S
O705 C690 1.202 . S
O706 U686 2.455 . S
O706 C703 1.301 . S
O707 U686 2.449 . S
O707 C703 1.282 . S
H708 C681 0.931 . S
H709 C683 0.929 . S
H710 C684 0.930 . S
H711 C685 0.931 . S
H712 C692 0.932 . S
H713 C693 0.930 . S
H714 C694 0.929 . S
H715 C696 0.930 . S
H716 C698 0.932 . S
H717 C699 0.929 . S
H718 C700 0.928 . S
H719 C702 0.932 . S
C720 C721 1.264 . S
C720 C725 1.479 . S
C720 C730 1.465 . S
C721 C720 1.264 . S
C721 C723 1.339 . S
C721 H748 0.931 . S
C722 C723 1.395 . S
C722 C724 1.320 . S
C723 C721 1.339 . S
C723 C722 1.395 . S
C723 H749 0.929 . S
C724 C722 1.320 . S
C724 C725 1.405 . S
C724 H750 0.930 . S
C725 C720 1.479 . S
C725 C724 1.405 . S
C725 H751 0.931 . S
U726 O727 2.454 1_545 S
U726 O728 2.458 1_545 S
U726 C729 2.984 1_545 S
U726 C730 2.847 . S
U726 C743 2.882 . S
U726 O744 2.441 . S
U726 O745 2.420 . S
U726 O746 2.455 . S
U726 O747 2.449 . S
O727 U726 2.454 1_565 S
O727 C729 1.353 . S
O728 U726 2.458 1_565 S
O728 C729 1.286 . S
C729 U726 2.984 1_565 S
C729 O727 1.353 . S
C729 O728 1.286 . S
C729 C731 1.363 . S
C730 C720 1.465 . S
C730 U726 2.847 . S
C730 O744 1.249 . S
C730 O745 1.202 . S
C731 C729 1.363 . S
C731 C733 1.408 . S
C731 C736 1.342 . S
C732 C733 1.310 . S
C732 C735 1.461 . S
C732 H752 0.932 . S
C733 C731 1.408 . S
C733 C732 1.310 . S
C733 H753 0.930 . S
C734 C735 1.474 . S
C734 C736 1.285 . S
C734 H754 0.929 . S
C735 C732 1.461 . S
C735 C734 1.474 . S
C736 C731 1.342 . S
C736 C734 1.285 . S
C736 H755 0.930 . S
C737 C740 1.424 . S
C737 C742 1.245 . S
C737 C743 1.428 . S
C738 C741 1.260 . S
C738 C742 1.477 . S
C738 H756 0.932 . S
C739 C740 1.384 . S
C739 C741 1.479 . S
C739 H757 0.929 . S
C740 C737 1.424 . S
C740 C739 1.384 . S
C740 H758 0.928 . S
C741 C738 1.260 . S
C741 C739 1.479 . S
C742 C737 1.245 . S
C742 C738 1.477 . S
C742 H759 0.932 . S
C743 U726 2.882 . S
C743 C737 1.428 . S
C743 O746 1.301 . S
C743 O747 1.282 . S
O744 U726 2.441 . S
O744 C730 1.249 . S
O745 U726 2.420 . S
O745 C730 1.202 . S
O746 U726 2.455 . S
O746 C743 1.301 . S
O747 U726 2.449 . S
O747 C743 1.282 . S
H748 C721 0.931 . S
H749 C723 0.929 . S
H750 C724 0.930 . S
H751 C725 0.931 . S
H752 C732 0.932 . S
H753 C733 0.930 . S
H754 C734 0.929 . S
H755 C736 0.930 . S
H756 C738 0.932 . S
H757 C739 0.929 . S
H758 C740 0.928 . S
H759 C742 0.932 . S
C760 C761 1.264 . S
C760 C765 1.479 . S
C760 C770 1.465 . S
C761 C760 1.264 . S
C761 C763 1.339 . S
C761 H788 0.931 . S
C762 C763 1.395 . S
C762 C764 1.320 . S
C763 C761 1.339 . S
C763 C762 1.395 . S
C763 H789 0.929 . S
C764 C762 1.320 . S
C764 C765 1.405 . S
C764 H790 0.930 . S
C765 C760 1.479 . S
C765 C764 1.405 . S
C765 H791 0.931 . S
U766 O767 2.454 . S
U766 O768 2.458 . S
U766 C769 2.984 . S
U766 C770 2.847 . S
U766 C783 2.882 . S
U766 O784 2.441 . S
U766 O785 2.420 . S
U766 O786 2.455 . S
U766 O787 2.449 . S
O767 U766 2.454 . S
O767 C769 1.353 . S
O768 U766 2.458 . S
O768 C769 1.286 . S
C769 U766 2.984 . S
C769 O767 1.353 . S
C769 O768 1.286 . S
C769 C771 1.363 . S
C770 C760 1.465 . S
C770 U766 2.847 . S
C770 O784 1.249 . S
C770 O785 1.202 . S
C771 C769 1.363 . S
C771 C773 1.408 . S
C771 C776 1.342 . S
C772 C773 1.310 . S
C772 C775 1.461 . S
C772 H792 0.932 . S
C773 C771 1.408 . S
C773 C772 1.310 . S
C773 H793 0.930 . S
C774 C775 1.474 . S
C774 C776 1.285 . S
C774 H794 0.929 . S
C775 C772 1.461 . S
C775 C774 1.474 . S
C776 C771 1.342 . S
C776 C774 1.285 . S
C776 H795 0.930 . S
C777 C780 1.424 . S
C777 C782 1.245 . S
C777 C783 1.428 . S
C778 C781 1.260 . S
C778 C782 1.477 . S
C778 H796 0.932 . S
C779 C780 1.384 . S
C779 C781 1.479 . S
C779 H797 0.929 . S
C780 C777 1.424 . S
C780 C779 1.384 . S
C780 H798 0.928 . S
C781 C778 1.260 . S
C781 C779 1.479 . S
C782 C777 1.245 . S
C782 C778 1.477 . S
C782 H799 0.932 . S
C783 U766 2.882 . S
C783 C777 1.428 . S
C783 O786 1.301 . S
C783 O787 1.282 . S
O784 U766 2.441 . S
O784 C770 1.249 . S
O785 U766 2.420 . S
O785 C770 1.202 . S
O786 U766 2.455 . S
O786 C783 1.301 . S
O787 U766 2.449 . S
O787 C783 1.282 . S
H788 C761 0.931 . S
H789 C763 0.929 . S
H790 C764 0.930 . S
H791 C765 0.931 . S
H792 C772 0.932 . S
H793 C773 0.930 . S
H794 C774 0.929 . S
H795 C776 0.930 . S
H796 C778 0.932 . S
H797 C779 0.929 . S
H798 C780 0.928 . S
H799 C782 0.932 . S
C800 C801 1.264 . S
C800 C805 1.479 . S
C800 C810 1.465 . S
C801 C800 1.264 . S
C801 C803 1.339 . S
C801 H828 0.931 . S
C802 C803 1.395 . S
C802 C804 1.320 . S
C803 C801 1.339 . S
C803 C802 1.395 . S
C803 H829 0.929 . S
C804 C802 1.320 . S
C804 C805 1.405 . S
C804 H830 0.930 . S
C805 C800 1.479 . S
C805 C804 1.405 . S
C805 H831 0.931 . S
U806 O807 2.454 1_545 S
U806 O808 2.458 1_545 S
U806 C809 2.984 1_545 S
U806 C810 2.847 . S
U806 C823 2.882 . S
U806 O824 2.441 . S
U806 O825 2.420 . S
U806 O826 2.455 . S
U806 O827 2.449 . S
O807 U806 2.454 1_565 S
O807 C809 1.353 . S
O808 U806 2.458 1_565 S
O808 C809 1.286 . S
C809 U806 2.984 1_565 S
C809 O807 1.353 . S
C809 O808 1.286 . S
C809 C811 1.363 . S
C810 C800 1.465 . S
C810 U806 2.847 . S
C810 O824 1.249 . S
C810 O825 1.202 . S
C811 C809 1.363 . S
C811 C813 1.408 . S
C811 C816 1.342 . S
C812 C813 1.310 . S
C812 C815 1.461 . S
C812 H832 0.932 . S
C813 C811 1.408 . S
C813 C812 1.310 . S
C813 H833 0.930 . S
C814 C815 1.474 . S
C814 C816 1.285 . S
C814 H834 0.929 . S
C815 C812 1.461 . S
C815 C814 1.474 . S
C816 C811 1.342 . S
C816 C814 1.285 . S
C816 H835 0.930 . S
C817 C820 1.424 . S
C817 C822 1.245 . S
C817 C823 1.428 . S
C818 C821 1.260 . S
C818 C822 1.477 . S
C818 H836 0.932 . S
C819 C820 1.384 . S
C819 C821 1.479 . S
C819 H837 0.929 . S
C820 C817 1.424 . S
C820 C819 1.384 . S
C820 H838 0.928 . S
C821 C818 1.260 . S
C821 C819 1.479 . S
C822 C817 1.245 . S
C822 C818 1.477 . S
C822 H839 0.932 . S
C823 U806 2.882 . S
C823 C817 1.428 . S
C823 O826 1.301 . S
C823 O827 1.282 . S
O824 U806 2.441 . S
O824 C810 1.249 . S
O825 U806 2.420 . S
O825 C810 1.202 . S
O826 U806 2.455 . S
O826 C823 1.301 . S
O827 U806 2.449 . S
O827 C823 1.282 . S
H828 C801 0.931 . S
H829 C803 0.929 . S
H830 C804 0.930 . S
H831 C805 0.931 . S
H832 C812 0.932 . S
H833 C813 0.930 . S
H834 C814 0.929 . S
H835 C816 0.930 . S
H836 C818 0.932 . S
H837 C819 0.929 . S
H838 C820 0.928 . S
H839 C822 0.932 . S
C840 C841 1.264 . S
C840 C845 1.479 . S
C840 C850 1.465 . S
C841 C840 1.264 . S
C841 C843 1.339 . S
C841 H868 0.931 . S
C842 C843 1.395 . S
C842 C844 1.320 . S
C843 C841 1.339 . S
C843 C842 1.395 . S
C843 H869 0.929 . S
C844 C842 1.320 . S
C844 C845 1.405 . S
C844 H870 0.930 . S
C845 C840 1.479 . S
C845 C844 1.405 . S
C845 H871 0.931 . S
U846 O847 2.454 . S
U846 O848 2.458 . S
U846 C849 2.984 . S
U846 C850 2.847 . S
U846 C863 2.882 . S
U846 O864 2.441 . S
U846 O865 2.420 . S
U846 O866 2.455 . S
U846 O867 2.449 . S
O847 U846 2.454 . S
O847 C849 1.353 . S
O848 U846 2.458 . S
O848 C849 1.286 . S
C849 U846 2.984 . S
C849 O847 1.353 . S
C849 O848 1.286 . S
C849 C851 1.363 . S
C850 C840 1.465 . S
C850 U846 2.847 . S
C850 O864 1.249 . S
C850 O865 1.202 . S
C851 C849 1.363 . S
C851 C853 1.408 . S
C851 C856 1.342 . S
C852 C853 1.310 . S
C852 C855 1.461 . S
C852 H872 0.932 . S
C853 C851 1.408 . S
C853 C852 1.310 . S
C853 H873 0.930 . S
C854 C855 1.474 . S
C854 C856 1.285 . S
C854 H874 0.929 . S
C855 C852 1.461 . S
C855 C854 1.474 . S
C856 C851 1.342 . S
C856 C854 1.285 . S
C856 H875 0.930 . S
C857 C860 1.424 . S
C857 C862 1.245 . S
C857 C863 1.428 . S
C858 C861 1.260 . S
C858 C862 1.477 . S
C858 H876 0.932 . S
C859 C860 1.384 . S
C859 C861 1.479 . S
C859 H877 0.929 . S
C860 C857 1.424 . S
C860 C859 1.384 . S
C860 H878 0.928 . S
C861 C858 1.260 . S
C861 C859 1.479 . S
C862 C857 1.245 . S
C862 C858 1.477 . S
C862 H879 0.932 . S
C863 U846 2.882 . S
C863 C857 1.428 . S
C863 O866 1.301 . S
C863 O867 1.282 . S
O864 U846 2.441 . S
O864 C850 1.249 . S
O865 U846 2.420 . S
O865 C850 1.202 . S
O866 U846 2.455 . S
O866 C863 1.301 . S
O867 U846 2.449 . S
O867 C863 1.282 . S
H868 C841 0.931 . S
H869 C843 0.929 . S
H870 C844 0.930 . S
H871 C845 0.931 . S
H872 C852 0.932 . S
H873 C853 0.930 . S
H874 C854 0.929 . S
H875 C856 0.930 . S
H876 C858 0.932 . S
H877 C859 0.929 . S
H878 C860 0.928 . S
H879 C862 0.932 . S
C880 C881 1.264 . S
C880 C885 1.479 . S
C880 C890 1.465 . S
C881 C880 1.264 . S
C881 C883 1.339 . S
C881 H908 0.931 . S
C882 C883 1.395 . S
C882 C884 1.320 . S
C883 C881 1.339 . S
C883 C882 1.395 . S
C883 H909 0.929 . S
C884 C882 1.320 . S
C884 C885 1.405 . S
C884 H910 0.930 . S
C885 C880 1.479 . S
C885 C884 1.405 . S
C885 H911 0.931 . S
U886 O887 2.454 1_565 S
U886 O888 2.458 1_565 S
U886 C889 2.984 1_565 S
U886 C890 2.847 . S
U886 C903 2.882 . S
U886 O904 2.441 . S
U886 O905 2.420 . S
U886 O906 2.455 . S
U886 O907 2.449 . S
O887 U886 2.454 1_545 S
O887 C889 1.353 . S
O888 U886 2.458 1_545 S
O888 C889 1.286 . S
C889 U886 2.984 1_545 S
C889 O887 1.353 . S
C889 O888 1.286 . S
C889 C891 1.363 . S
C890 C880 1.465 . S
C890 U886 2.847 . S
C890 O904 1.249 . S
C890 O905 1.202 . S
C891 C889 1.363 . S
C891 C893 1.408 . S
C891 C896 1.342 . S
C892 C893 1.310 . S
C892 C895 1.461 . S
C892 H912 0.932 . S
C893 C891 1.408 . S
C893 C892 1.310 . S
C893 H913 0.930 . S
C894 C895 1.474 . S
C894 C896 1.285 . S
C894 H914 0.929 . S
C895 C892 1.461 . S
C895 C894 1.474 . S
C896 C891 1.342 . S
C896 C894 1.285 . S
C896 H915 0.930 . S
C897 C900 1.424 . S
C897 C902 1.245 . S
C897 C903 1.428 . S
C898 C901 1.260 . S
C898 C902 1.477 . S
C898 H916 0.932 . S
C899 C900 1.384 . S
C899 C901 1.479 . S
C899 H917 0.929 . S
C900 C897 1.424 . S
C900 C899 1.384 . S
C900 H918 0.928 . S
C901 C898 1.260 . S
C901 C899 1.479 . S
C902 C897 1.245 . S
C902 C898 1.477 . S
C902 H919 0.932 . S
C903 U886 2.882 . S
C903 C897 1.428 . S
C903 O906 1.301 . S
C903 O907 1.282 . S
O904 U886 2.441 . S
O904 C890 1.249 . S
O905 U886 2.420 . S
O905 C890 1.202 . S
O906 U886 2.455 . S
O906 C903 1.301 . S
O907 U886 2.449 . S
O907 C903 1.282 . S
H908 C881 0.931 . S
H909 C883 0.929 . S
H910 C884 0.930 . S
H911 C885 0.931 . S
H912 C892 0.932 . S
H913 C893 0.930 . S
H914 C894 0.929 . S
H915 C896 0.930 . S
H916 C898 0.932 . S
H917 C899 0.929 . S
H918 C900 0.928 . S
H919 C902 0.932 . S
C920 C921 1.264 . S
C920 C925 1.479 . S
C920 C930 1.465 . S
C921 C920 1.264 . S
C921 C923 1.339 . S
C921 H948 0.931 . S
C922 C923 1.395 . S
C922 C924 1.320 . S
C923 C921 1.339 . S
C923 C922 1.395 . S
C923 H949 0.929 . S
C924 C922 1.320 . S
C924 C925 1.405 . S
C924 H950 0.930 . S
C925 C920 1.479 . S
C925 C924 1.405 . S
C925 H951 0.931 . S
U926 O927 2.454 . S
U926 O928 2.458 . S
U926 C929 2.984 . S
U926 C930 2.847 . S
U926 C943 2.882 . S
U926 O944 2.441 . S
U926 O945 2.420 . S
U926 O946 2.455 . S
U926 O947 2.449 . S
O927 U926 2.454 . S
O927 C929 1.353 . S
O928 U926 2.458 . S
O928 C929 1.286 . S
C929 U926 2.984 . S
C929 O927 1.353 . S
C929 O928 1.286 . S
C929 C931 1.363 . S
C930 C920 1.465 . S
C930 U926 2.847 . S
C930 O944 1.249 . S
C930 O945 1.202 . S
C931 C929 1.363 . S
C931 C933 1.408 . S
C931 C936 1.342 . S
C932 C933 1.310 . S
C932 C935 1.461 . S
C932 H952 0.932 . S
C933 C931 1.408 . S
C933 C932 1.310 . S
C933 H953 0.930 . S
C934 C935 1.474 . S
C934 C936 1.285 . S
C934 H954 0.929 . S
C935 C932 1.461 . S
C935 C934 1.474 . S
C936 C931 1.342 . S
C936 C934 1.285 . S
C936 H955 0.930 . S
C937 C940 1.424 . S
C937 C942 1.245 . S
C937 C943 1.428 . S
C938 C941 1.260 . S
C938 C942 1.477 . S
C938 H956 0.932 . S
C939 C940 1.384 . S
C939 C941 1.479 . S
C939 H957 0.929 . S
C940 C937 1.424 . S
C940 C939 1.384 . S
C940 H958 0.928 . S
C941 C938 1.260 . S
C941 C939 1.479 . S
C942 C937 1.245 . S
C942 C938 1.477 . S
C942 H959 0.932 . S
C943 U926 2.882 . S
C943 C937 1.428 . S
C943 O946 1.301 . S
C943 O947 1.282 . S
O944 U926 2.441 . S
O944 C930 1.249 . S
O945 U926 2.420 . S
O945 C930 1.202 . S
O946 U926 2.455 . S
O946 C943 1.301 . S
O947 U926 2.449 . S
O947 C943 1.282 . S
H948 C921 0.931 . S
H949 C923 0.929 . S
H950 C924 0.930 . S
H951 C925 0.931 . S
H952 C932 0.932 . S
H953 C933 0.930 . S
H954 C934 0.929 . S
H955 C936 0.930 . S
H956 C938 0.932 . S
H957 C939 0.929 . S
H958 C940 0.928 . S
H959 C942 0.932 . S
C960 C961 1.264 . S
C960 C965 1.479 . S
C960 C970 1.465 1_545 S
C961 C960 1.264 . S
C961 C963 1.339 . S
C961 H988 0.931 . S
C962 C963 1.395 . S
C962 C964 1.320 . S
C963 C961 1.339 . S
C963 C962 1.395 . S
C963 H989 0.929 . S
C964 C962 1.320 . S
C964 C965 1.404 . S
C964 H990 0.930 . S
C965 C960 1.479 . S
C965 C964 1.404 . S
C965 H991 0.932 1_545 S
U966 O967 2.454 . S
U966 O968 2.458 . S
U966 C969 2.984 . S
U966 C970 2.847 . S
U966 C983 2.882 . S
U966 O984 2.441 . S
U966 O985 2.420 . S
U966 O986 2.455 . S
U966 O987 2.449 . S
O967 U966 2.454 . S
O967 C969 1.353 . S
O968 U966 2.458 . S
O968 C969 1.286 . S
C969 U966 2.984 . S
C969 O967 1.353 . S
C969 O968 1.286 . S
C969 C971 1.363 . S
C970 C960 1.465 1_565 S
C970 U966 2.847 . S
C970 O984 1.249 . S
C970 O985 1.202 . S
C971 C969 1.363 . S
C971 C973 1.408 . S
C971 C976 1.342 . S
C972 C973 1.310 . S
C972 C975 1.461 . S
C972 H992 0.932 . S
C973 C971 1.408 . S
C973 C972 1.310 . S
C973 H993 0.930 . S
C974 C975 1.474 . S
C974 C976 1.285 . S
C974 H994 0.929 . S
C975 C972 1.461 . S
C975 C974 1.474 . S
C976 C971 1.342 . S
C976 C974 1.285 . S
C976 H995 0.930 . S
C977 C980 1.425 . S
C977 C982 1.245 1_545 S
C977 C983 1.427 1_545 S
C978 C981 1.260 . S
C978 C982 1.473 1_545 S
C978 H996 0.932 . S
C979 C980 1.384 . S
C979 C981 1.479 . S
C979 H997 0.929 . S
C980 C977 1.425 . S
C980 C979 1.384 . S
C980 H998 0.928 . S
C981 C978 1.260 . S
C981 C979 1.479 . S
C982 C977 1.245 1_565 S
C982 C978 1.473 1_565 S
C982 H999 0.936 . S
C983 U966 2.882 . S
C983 C977 1.427 1_565 S
C983 O986 1.301 . S
C983 O987 1.282 . S
O984 U966 2.441 . S
O984 C970 1.249 . S
O985 U966 2.420 . S
O985 C970 1.202 . S
O986 U966 2.455 . S
O986 C983 1.301 . S
O987 U966 2.449 . S
O987 C983 1.282 . S
H988 C961 0.931 . S
H989 C963 0.929 . S
H990 C964 0.930 . S
H991 C965 0.932 1_565 S
H992 C972 0.932 . S
H993 C973 0.930 . S
H994 C974 0.929 . S
H995 C976 0.930 . S
H996 C978 0.932 . S
H997 C979 0.929 . S
H998 C980 0.928 . S
H999 C982 0.936 . S
C1000 C1001 1.264 . S
C1000 C1005 1.479 . S
C1000 C1010 1.465 . S
C1001 C1000 1.264 . S
C1001 C1003 1.339 . S
C1001 H1028 0.931 . S
C1002 C1003 1.395 . S
C1002 C1004 1.320 . S
C1003 C1001 1.339 . S
C1003 C1002 1.395 . S
C1003 H1029 0.929 . S
C1004 C1002 1.320 . S
C1004 C1005 1.405 . S
C1004 H1030 0.930 . S
C1005 C1000 1.479 . S
C1005 C1004 1.405 . S
C1005 H1031 0.931 . S
U1006 O1007 2.454 . S
U1006 O1008 2.458 . S
U1006 C1009 2.984 . S
U1006 C1010 2.847 . S
U1006 C1023 2.882 . S
U1006 O1024 2.441 . S
U1006 O1025 2.420 . S
U1006 O1026 2.455 . S
U1006 O1027 2.449 . S
O1007 U1006 2.454 . S
O1007 C1009 1.353 . S
O1008 U1006 2.458 . S
O1008 C1009 1.286 . S
C1009 U1006 2.984 . S
C1009 O1007 1.353 . S
C1009 O1008 1.286 . S
C1009 C1011 1.363 . S
C1010 C1000 1.465 . S
C1010 U1006 2.847 . S
C1010 O1024 1.249 . S
C1010 O1025 1.202 . S
C1011 C1009 1.363 . S
C1011 C1013 1.408 . S
C1011 C1016 1.342 . S
C1012 C1013 1.310 . S
C1012 C1015 1.461 . S
C1012 H1032 0.932 . S
C1013 C1011 1.408 . S
C1013 C1012 1.310 . S
C1013 H1033 0.930 . S
C1014 C1015 1.474 . S
C1014 C1016 1.285 . S
C1014 H1034 0.929 . S
C1015 C1012 1.461 . S
C1015 C1014 1.474 . S
C1016 C1011 1.342 . S
C1016 C1014 1.285 . S
C1016 H1035 0.930 . S
C1017 C1020 1.424 . S
C1017 C1022 1.245 . S
C1017 C1023 1.428 . S
C1018 C1021 1.260 . S
C1018 C1022 1.477 . S
C1018 H1036 0.932 . S
C1019 C1020 1.384 . S
C1019 C1021 1.479 . S
C1019 H1037 0.929 . S
C1020 C1017 1.424 . S
C1020 C1019 1.384 . S
C1020 H1038 0.928 . S
C1021 C1018 1.260 . S
C1021 C1019 1.479 . S
C1022 C1017 1.245 . S
C1022 C1018 1.477 . S
C1022 H1039 0.932 . S
C1023 U1006 2.882 . S
C1023 C1017 1.428 . S
C1023 O1026 1.301 . S
C1023 O1027 1.282 . S
O1024 U1006 2.441 . S
O1024 C1010 1.249 . S
O1025 U1006 2.420 . S
O1025 C1010 1.202 . S
O1026 U1006 2.455 . S
O1026 C1023 1.301 . S
O1027 U1006 2.449 . S
O1027 C1023 1.282 . S
H1028 C1001 0.931 . S
H1029 C1003 0.929 . S
H1030 C1004 0.930 . S
H1031 C1005 0.931 . S
H1032 C1012 0.932 . S
H1033 C1013 0.930 . S
H1034 C1014 0.929 . S
H1035 C1016 0.930 . S
H1036 C1018 0.932 . S
H1037 C1019 0.929 . S
H1038 C1020 0.928 . S
H1039 C1022 0.932 . S
C1040 C1041 1.264 . S
C1040 C1045 1.479 . S
C1040 C1050 1.465 1_565 S
C1041 C1040 1.264 . S
C1041 C1043 1.339 . S
C1041 H1068 0.931 . S
C1042 C1043 1.395 . S
C1042 C1044 1.320 . S
C1043 C1041 1.339 . S
C1043 C1042 1.395 . S
C1043 H1069 0.929 . S
C1044 C1042 1.320 . S
C1044 C1045 1.403 . S
C1044 H1070 0.930 . S
C1045 C1040 1.479 . S
C1045 C1044 1.403 . S
C1045 H1071 0.932 1_565 S
U1046 O1047 2.454 . S
U1046 O1048 2.458 . S
U1046 C1049 2.984 . S
U1046 C1050 2.847 . S
U1046 C1063 2.882 . S
U1046 O1064 2.441 . S
U1046 O1065 2.420 . S
U1046 O1066 2.455 . S
U1046 O1067 2.449 . S
O1047 U1046 2.454 . S
O1047 C1049 1.353 . S
O1048 U1046 2.458 . S
O1048 C1049 1.286 . S
C1049 U1046 2.984 . S
C1049 O1047 1.353 . S
C1049 O1048 1.286 . S
C1049 C1051 1.363 . S
C1050 C1040 1.465 1_545 S
C1050 U1046 2.847 . S
C1050 O1064 1.249 . S
C1050 O1065 1.202 . S
C1051 C1049 1.363 . S
C1051 C1053 1.408 . S
C1051 C1056 1.342 . S
C1052 C1053 1.310 . S
C1052 C1055 1.461 . S
C1052 H1072 0.932 . S
C1053 C1051 1.408 . S
C1053 C1052 1.310 . S
C1053 H1073 0.930 . S
C1054 C1055 1.474 . S
C1054 C1056 1.285 . S
C1054 H1074 0.929 . S
C1055 C1052 1.461 . S
C1055 C1054 1.474 . S
C1056 C1051 1.342 . S
C1056 C1054 1.285 . S
C1056 H1075 0.930 . S
C1057 C1060 1.425 . S
C1057 C1062 1.245 1_565 S
C1057 C1063 1.427 1_565 S
C1058 C1061 1.260 . S
C1058 C1062 1.473 1_565 S
C1058 H1076 0.932 . S
C1059 C1060 1.384 . S
C1059 C1061 1.479 . S
C1059 H1077 0.929 . S
C1060 C1057 1.425 . S
C1060 C1059 1.384 . S
C1060 H1078 0.928 . S
C1061 C1058 1.260 . S
C1061 C1059 1.479 . S
C1062 C1057 1.245 1_545 S
C1062 C1058 1.473 1_545 S
C1062 H1079 0.936 . S
C1063 U1046 2.882 . S
C1063 C1057 1.427 1_545 S
C1063 O1066 1.301 . S
C1063 O1067 1.282 . S
O1064 U1046 2.441 . S
O1064 C1050 1.249 . S
O1065 U1046 2.420 . S
O1065 C1050 1.202 . S
O1066 U1046 2.455 . S
O1066 C1063 1.301 . S
O1067 U1046 2.449 . S
O1067 C1063 1.282 . S
H1068 C1041 0.931 . S
H1069 C1043 0.929 . S
H1070 C1044 0.930 . S
H1071 C1045 0.932 1_545 S
H1072 C1052 0.932 . S
H1073 C1053 0.930 . S
H1074 C1054 0.929 . S
H1075 C1056 0.930 . S
H1076 C1058 0.932 . S
H1077 C1059 0.929 . S
H1078 C1060 0.928 . S
H1079 C1062 0.936 . S
C1080 C1081 1.264 . S
C1080 C1085 1.479 . S
C1080 C1090 1.465 . S
C1081 C1080 1.264 . S
C1081 C1083 1.339 . S
C1081 H1108 0.931 . S
C1082 C1083 1.395 . S
C1082 C1084 1.320 . S
C1083 C1081 1.339 . S
C1083 C1082 1.395 . S
C1083 H1109 0.929 . S
C1084 C1082 1.320 . S
C1084 C1085 1.405 . S
C1084 H1110 0.930 . S
C1085 C1080 1.479 . S
C1085 C1084 1.405 . S
C1085 H1111 0.931 . S
U1086 O1087 2.454 . S
U1086 O1088 2.458 . S
U1086 C1089 2.984 . S
U1086 C1090 2.847 . S
U1086 C1103 2.882 . S
U1086 O1104 2.441 . S
U1086 O1105 2.420 . S
U1086 O1106 2.455 . S
U1086 O1107 2.449 . S
O1087 U1086 2.454 . S
O1087 C1089 1.353 . S
O1088 U1086 2.458 . S
O1088 C1089 1.286 . S
C1089 U1086 2.984 . S
C1089 O1087 1.353 . S
C1089 O1088 1.286 . S
C1089 C1091 1.363 . S
C1090 C1080 1.465 . S
C1090 U1086 2.847 . S
C1090 O1104 1.249 . S
C1090 O1105 1.202 . S
C1091 C1089 1.363 . S
C1091 C1093 1.408 . S
C1091 C1096 1.342 . S
C1092 C1093 1.310 . S
C1092 C1095 1.461 . S
C1092 H1112 0.932 . S
C1093 C1091 1.408 . S
C1093 C1092 1.310 . S
C1093 H1113 0.930 . S
C1094 C1095 1.474 . S
C1094 C1096 1.285 . S
C1094 H1114 0.929 . S
C1095 C1092 1.461 . S
C1095 C1094 1.474 . S
C1096 C1091 1.342 . S
C1096 C1094 1.285 . S
C1096 H1115 0.930 . S
C1097 C1100 1.424 . S
C1097 C1102 1.245 . S
C1097 C1103 1.428 . S
C1098 C1101 1.260 . S
C1098 C1102 1.477 . S
C1098 H1116 0.932 . S
C1099 C1100 1.384 . S
C1099 C1101 1.479 . S
C1099 H1117 0.929 . S
C1100 C1097 1.424 . S
C1100 C1099 1.384 . S
C1100 H1118 0.928 . S
C1101 C1098 1.260 . S
C1101 C1099 1.479 . S
C1102 C1097 1.245 . S
C1102 C1098 1.477 . S
C1102 H1119 0.932 . S
C1103 U1086 2.882 . S
C1103 C1097 1.428 . S
C1103 O1106 1.301 . S
C1103 O1107 1.282 . S
O1104 U1086 2.441 . S
O1104 C1090 1.249 . S
O1105 U1086 2.420 . S
O1105 C1090 1.202 . S
O1106 U1086 2.455 . S
O1106 C1103 1.301 . S
O1107 U1086 2.449 . S
O1107 C1103 1.282 . S
H1108 C1081 0.931 . S
H1109 C1083 0.929 . S
H1110 C1084 0.930 . S
H1111 C1085 0.931 . S
H1112 C1092 0.932 . S
H1113 C1093 0.930 . S
H1114 C1094 0.929 . S
H1115 C1096 0.930 . S
H1116 C1098 0.932 . S
H1117 C1099 0.929 . S
H1118 C1100 0.928 . S
H1119 C1102 0.932 . S
C1120 C1121 1.264 . S
C1120 C1125 1.479 . S
C1120 C1130 1.465 1_565 S
C1121 C1120 1.264 . S
C1121 C1123 1.339 . S
C1121 H1148 0.931 . S
C1122 C1123 1.395 . S
C1122 C1124 1.320 . S
C1123 C1121 1.339 . S
C1123 C1122 1.395 . S
C1123 H1149 0.929 . S
C1124 C1122 1.320 . S
C1124 C1125 1.404 . S
C1124 H1150 0.930 . S
C1125 C1120 1.479 . S
C1125 C1124 1.404 . S
C1125 H1151 0.932 1_565 S
U1126 O1127 2.454 . S
U1126 O1128 2.458 . S
U1126 C1129 2.984 . S
U1126 C1130 2.847 . S
U1126 C1143 2.882 . S
U1126 O1144 2.441 . S
U1126 O1145 2.420 . S
U1126 O1146 2.455 . S
U1126 O1147 2.449 . S
O1127 U1126 2.454 . S
O1127 C1129 1.353 . S
O1128 U1126 2.458 . S
O1128 C1129 1.286 . S
C1129 U1126 2.984 . S
C1129 O1127 1.353 . S
C1129 O1128 1.286 . S
C1129 C1131 1.363 . S
C1130 C1120 1.465 1_545 S
C1130 U1126 2.847 . S
C1130 O1144 1.249 . S
C1130 O1145 1.202 . S
C1131 C1129 1.363 . S
C1131 C1133 1.408 . S
C1131 C1136 1.342 . S
C1132 C1133 1.310 . S
C1132 C1135 1.461 . S
C1132 H1152 0.932 . S
C1133 C1131 1.408 . S
C1133 C1132 1.310 . S
C1133 H1153 0.930 . S
C1134 C1135 1.474 . S
C1134 C1136 1.285 . S
C1134 H1154 0.929 . S
C1135 C1132 1.461 . S
C1135 C1134 1.474 . S
C1136 C1131 1.342 . S
C1136 C1134 1.285 . S
C1136 H1155 0.930 . S
C1137 C1140 1.425 . S
C1137 C1142 1.245 1_565 S
C1137 C1143 1.427 1_565 S
C1138 C1141 1.260 . S
C1138 C1142 1.473 1_565 S
C1138 H1156 0.932 . S
C1139 C1140 1.384 . S
C1139 C1141 1.479 . S
C1139 H1157 0.929 . S
C1140 C1137 1.425 . S
C1140 C1139 1.384 . S
C1140 H1158 0.928 . S
C1141 C1138 1.260 . S
C1141 C1139 1.479 . S
C1142 C1137 1.245 1_545 S
C1142 C1138 1.473 1_545 S
C1142 H1159 0.936 . S
C1143 U1126 2.882 . S
C1143 C1137 1.427 1_545 S
C1143 O1146 1.301 . S
C1143 O1147 1.282 . S
O1144 U1126 2.441 . S
O1144 C1130 1.249 . S
O1145 U1126 2.420 . S
O1145 C1130 1.202 . S
O1146 U1126 2.455 . S
O1146 C1143 1.301 . S
O1147 U1126 2.449 . S
O1147 C1143 1.282 . S
H1148 C1121 0.931 . S
H1149 C1123 0.929 . S
H1150 C1124 0.930 . S
H1151 C1125 0.932 1_545 S
H1152 C1132 0.932 . S
H1153 C1133 0.930 . S
H1154 C1134 0.929 . S
H1155 C1136 0.930 . S
H1156 C1138 0.932 . S
H1157 C1139 0.929 . S
H1158 C1140 0.928 . S
H1159 C1142 0.936 . S
C1160 C1161 1.264 . S
C1160 C1165 1.479 . S
C1160 C1170 1.465 . S
C1161 C1160 1.264 . S
C1161 C1163 1.339 . S
C1161 H1188 0.931 . S
C1162 C1163 1.395 . S
C1162 C1164 1.320 . S
C1163 C1161 1.339 . S
C1163 C1162 1.395 . S
C1163 H1189 0.929 . S
C1164 C1162 1.320 . S
C1164 C1165 1.405 . S
C1164 H1190 0.930 . S
C1165 C1160 1.479 . S
C1165 C1164 1.405 . S
C1165 H1191 0.931 . S
U1166 O1167 2.454 . S
U1166 O1168 2.458 . S
U1166 C1169 2.984 . S
U1166 C1170 2.847 . S
U1166 C1183 2.882 . S
U1166 O1184 2.441 . S
U1166 O1185 2.420 . S
U1166 O1186 2.455 . S
U1166 O1187 2.449 . S
O1167 U1166 2.454 . S
O1167 C1169 1.353 . S
O1168 U1166 2.458 . S
O1168 C1169 1.286 . S
C1169 U1166 2.984 . S
C1169 O1167 1.353 . S
C1169 O1168 1.286 . S
C1169 C1171 1.363 . S
C1170 C1160 1.465 . S
C1170 U1166 2.847 . S
C1170 O1184 1.249 . S
C1170 O1185 1.202 . S
C1171 C1169 1.363 . S
C1171 C1173 1.408 . S
C1171 C1176 1.342 . S
C1172 C1173 1.310 . S
C1172 C1175 1.461 . S
C1172 H1192 0.932 . S
C1173 C1171 1.408 . S
C1173 C1172 1.310 . S
C1173 H1193 0.930 . S
C1174 C1175 1.474 . S
C1174 C1176 1.285 . S
C1174 H1194 0.929 . S
C1175 C1172 1.461 . S
C1175 C1174 1.474 . S
C1176 C1171 1.342 . S
C1176 C1174 1.285 . S
C1176 H1195 0.930 . S
C1177 C1180 1.424 . S
C1177 C1182 1.245 . S
C1177 C1183 1.428 . S
C1178 C1181 1.260 . S
C1178 C1182 1.477 . S
C1178 H1196 0.932 . S
C1179 C1180 1.384 . S
C1179 C1181 1.479 . S
C1179 H1197 0.929 . S
C1180 C1177 1.424 . S
C1180 C1179 1.384 . S
C1180 H1198 0.928 . S
C1181 C1178 1.260 . S
C1181 C1179 1.479 . S
C1182 C1177 1.245 . S
C1182 C1178 1.477 . S
C1182 H1199 0.932 . S
C1183 U1166 2.882 . S
C1183 C1177 1.428 . S
C1183 O1186 1.301 . S
C1183 O1187 1.282 . S
O1184 U1166 2.441 . S
O1184 C1170 1.249 . S
O1185 U1166 2.420 . S
O1185 C1170 1.202 . S
O1186 U1166 2.455 . S
O1186 C1183 1.301 . S
O1187 U1166 2.449 . S
O1187 C1183 1.282 . S
H1188 C1161 0.931 . S
H1189 C1163 0.929 . S
H1190 C1164 0.930 . S
H1191 C1165 0.931 . S
H1192 C1172 0.932 . S
H1193 C1173 0.930 . S
H1194 C1174 0.929 . S
H1195 C1176 0.930 . S
H1196 C1178 0.932 . S
H1197 C1179 0.929 . S
H1198 C1180 0.928 . S
H1199 C1182 0.932 . S
C1200 C1201 1.264 . S
C1200 C1205 1.479 . S
C1200 C1210 1.465 1_545 S
C1201 C1200 1.264 . S
C1201 C1203 1.339 . S
C1201 H1228 0.931 . S
C1202 C1203 1.395 . S
C1202 C1204 1.320 . S
C1203 C1201 1.339 . S
C1203 C1202 1.395 . S
C1203 H1229 0.929 . S
C1204 C1202 1.320 . S
C1204 C1205 1.404 . S
C1204 H1230 0.930 . S
C1205 C1200 1.479 . S
C1205 C1204 1.404 . S
C1205 H1231 0.932 1_545 S
U1206 O1207 2.454 . S
U1206 O1208 2.458 . S
U1206 C1209 2.984 . S
U1206 C1210 2.847 . S
U1206 C1223 2.882 . S
U1206 O1224 2.441 . S
U1206 O1225 2.420 . S
U1206 O1226 2.455 . S
U1206 O1227 2.449 . S
O1207 U1206 2.454 . S
O1207 C1209 1.353 . S
O1208 U1206 2.458 . S
O1208 C1209 1.286 . S
C1209 U1206 2.984 . S
C1209 O1207 1.353 . S
C1209 O1208 1.286 . S
C1209 C1211 1.363 . S
C1210 C1200 1.465 1_565 S
C1210 U1206 2.847 . S
C1210 O1224 1.249 . S
C1210 O1225 1.202 . S
C1211 C1209 1.363 . S
C1211 C1213 1.408 . S
C1211 C1216 1.342 . S
C1212 C1213 1.310 . S
C1212 C1215 1.461 . S
C1212 H1232 0.932 . S
C1213 C1211 1.408 . S
C1213 C1212 1.310 . S
C1213 H1233 0.930 . S
C1214 C1215 1.474 . S
C1214 C1216 1.285 . S
C1214 H1234 0.929 . S
C1215 C1212 1.461 . S
C1215 C1214 1.474 . S
C1216 C1211 1.342 . S
C1216 C1214 1.285 . S
C1216 H1235 0.930 . S
C1217 C1220 1.425 . S
C1217 C1222 1.245 1_545 S
C1217 C1223 1.427 1_545 S
C1218 C1221 1.260 . S
C1218 C1222 1.473 1_545 S
C1218 H1236 0.932 . S
C1219 C1220 1.384 . S
C1219 C1221 1.479 . S
C1219 H1237 0.929 . S
C1220 C1217 1.425 . S
C1220 C1219 1.384 . S
C1220 H1238 0.928 . S
C1221 C1218 1.260 . S
C1221 C1219 1.479 . S
C1222 C1217 1.245 1_565 S
C1222 C1218 1.473 1_565 S
C1222 H1239 0.936 . S
C1223 U1206 2.882 . S
C1223 C1217 1.427 1_565 S
C1223 O1226 1.301 . S
C1223 O1227 1.282 . S
O1224 U1206 2.441 . S
O1224 C1210 1.249 . S
O1225 U1206 2.420 . S
O1225 C1210 1.202 . S
O1226 U1206 2.455 . S
O1226 C1223 1.301 . S
O1227 U1206 2.449 . S
O1227 C1223 1.282 . S
H1228 C1201 0.931 . S
H1229 C1203 0.929 . S
H1230 C1204 0.930 . S
H1231 C1205 0.932 1_565 S
H1232 C1212 0.932 . S
H1233 C1213 0.930 . S
H1234 C1214 0.929 . S
H1235 C1216 0.930 . S
H1236 C1218 0.932 . S
H1237 C1219 0.929 . S
H1238 C1220 0.928 . S
H1239 C1222 0.936 . S
C1240 C1241 1.264 . S
C1240 C1245 1.479 . S
C1240 C1250 1.465 . S
C1241 C1240 1.264 . S
C1241 C1243 1.339 . S
C1241 H1268 0.931 . S
C1242 C1243 1.395 . S
C1242 C1244 1.320 . S
C1243 C1241 1.339 . S
C1243 C1242 1.395 . S
C1243 H1269 0.929 . S
C1244 C1242 1.320 . S
C1244 C1245 1.405 . S
C1244 H1270 0.930 . S
C1245 C1240 1.479 . S
C1245 C1244 1.405 . S
C1245 H1271 0.931 . S
U1246 O1247 2.454 . S
U1246 O1248 2.458 . S
U1246 C1249 2.984 . S
U1246 C1250 2.847 . S
U1246 C1263 2.882 . S
U1246 O1264 2.441 . S
U1246 O1265 2.420 . S
U1246 O1266 2.455 . S
U1246 O1267 2.449 . S
O1247 U1246 2.454 . S
O1247 C1249 1.353 . S
O1248 U1246 2.458 . S
O1248 C1249 1.286 . S
C1249 U1246 2.984 . S
C1249 O1247 1.353 . S
C1249 O1248 1.286 . S
C1249 C1251 1.363 . S
C1250 C1240 1.465 . S
C1250 U1246 2.847 . S
C1250 O1264 1.249 . S
C1250 O1265 1.202 . S
C1251 C1249 1.363 . S
C1251 C1253 1.408 . S
C1251 C1256 1.342 . S
C1252 C1253 1.310 . S
C1252 C1255 1.461 . S
C1252 H1272 0.932 . S
C1253 C1251 1.408 . S
C1253 C1252 1.310 . S
C1253 H1273 0.930 . S
C1254 C1255 1.474 . S
C1254 C1256 1.285 . S
C1254 H1274 0.929 . S
C1255 C1252 1.461 . S
C1255 C1254 1.474 . S
C1256 C1251 1.342 . S
C1256 C1254 1.285 . S
C1256 H1275 0.930 . S
C1257 C1260 1.424 . S
C1257 C1262 1.245 . S
C1257 C1263 1.428 . S
C1258 C1261 1.260 . S
C1258 C1262 1.477 . S
C1258 H1276 0.932 . S
C1259 C1260 1.384 . S
C1259 C1261 1.479 . S
C1259 H1277 0.929 . S
C1260 C1257 1.424 . S
C1260 C1259 1.384 . S
C1260 H1278 0.928 . S
C1261 C1258 1.260 . S
C1261 C1259 1.479 . S
C1262 C1257 1.245 . S
C1262 C1258 1.477 . S
C1262 H1279 0.932 . S
C1263 U1246 2.882 . S
C1263 C1257 1.428 . S
C1263 O1266 1.301 . S
C1263 O1267 1.282 . S
O1264 U1246 2.441 . S
O1264 C1250 1.249 . S
O1265 U1246 2.420 . S
O1265 C1250 1.202 . S
O1266 U1246 2.455 . S
O1266 C1263 1.301 . S
O1267 U1246 2.449 . S
O1267 C1263 1.282 . S
H1268 C1241 0.931 . S
H1269 C1243 0.929 . S
H1270 C1244 0.930 . S
H1271 C1245 0.931 . S
H1272 C1252 0.932 . S
H1273 C1253 0.930 . S
H1274 C1254 0.929 . S
H1275 C1256 0.930 . S
H1276 C1258 0.932 . S
H1277 C1259 0.929 . S
H1278 C1260 0.928 . S
H1279 C1262 0.932 . S
C1280 C1281 1.369 . S
C1280 C1282 1.419 . S
C1280 H1284 0.930 . S
C1281 C1280 1.369 . S
C1281 C1290 1.429 1_556 S
C1282 C1280 1.419 . S
C1282 C1283 1.363 1_556 S
C1282 H1285 0.929 . S
C1283 C1282 1.363 1_554 S
C1283 C1289 1.428 . S
H1284 C1280 0.930 . S
H1285 C1282 0.929 . S
S1286 N1287 1.613 . S
S1286 N1288 1.610 . S
N1287 S1286 1.613 . S
N1287 C1290 1.350 . S
N1288 S1286 1.610 . S
N1288 C1289 1.351 . S
C1289 C1283 1.428 . S
C1289 N1288 1.351 . S
C1289 C1290 1.434 . S
C1290 C1281 1.429 1_554 S
C1290 N1287 1.350 . S
C1290 C1289 1.434 . S
C1291 C1292 1.369 . S
C1291 C1293 1.419 . S
C1291 H1295 0.930 . S
C1292 C1291 1.369 . S
C1292 C1301 1.429 . S
C1293 C1291 1.419 . S
C1293 C1294 1.363 . S
C1293 H1296 0.929 . S
C1294 C1293 1.363 . S
C1294 C1300 1.428 . S
H1295 C1291 0.930 . S
H1296 C1293 0.929 . S
S1297 N1298 1.613 . S
S1297 N1299 1.610 . S
N1298 S1297 1.613 . S
N1298 C1301 1.350 . S
N1299 S1297 1.610 . S
N1299 C1300 1.351 . S
C1300 C1294 1.428 . S
C1300 N1299 1.351 . S
C1300 C1301 1.434 . S
C1301 C1292 1.429 . S
C1301 N1298 1.350 . S
C1301 C1300 1.434 . S
C1302 C1303 1.369 . S
C1302 C1304 1.419 . S
C1302 H1306 0.930 . S
C1303 C1302 1.369 . S
C1303 C1312 1.429 . S
C1304 C1302 1.419 . S
C1304 C1305 1.363 . S
C1304 H1307 0.929 . S
C1305 C1304 1.363 . S
C1305 C1311 1.428 . S
H1306 C1302 0.930 . S
H1307 C1304 0.929 . S
S1308 N1309 1.613 . S
S1308 N1310 1.610 . S
N1309 S1308 1.613 . S
N1309 C1312 1.350 . S
N1310 S1308 1.610 . S
N1310 C1311 1.351 . S
C1311 C1305 1.428 . S
C1311 N1310 1.351 . S
C1311 C1312 1.434 . S
C1312 C1303 1.429 . S
C1312 N1309 1.350 . S
C1312 C1311 1.434 . S
C1313 C1314 1.369 . S
C1313 C1315 1.419 . S
C1313 H1317 0.930 . S
C1314 C1313 1.369 . S
C1314 C1323 1.429 . S
C1315 C1313 1.419 . S
C1315 C1316 1.363 . S
C1315 H1318 0.929 . S
C1316 C1315 1.363 . S
C1316 C1322 1.428 . S
H1317 C1313 0.930 . S
H1318 C1315 0.929 . S
S1319 N1320 1.613 . S
S1319 N1321 1.610 . S
N1320 S1319 1.613 . S
N1320 C1323 1.350 . S
N1321 S1319 1.610 . S
N1321 C1322 1.351 . S
C1322 C1316 1.428 . S
C1322 N1321 1.351 . S
C1322 C1323 1.434 . S
C1323 C1314 1.429 . S
C1323 N1320 1.350 . S
C1323 C1322 1.434 . S
C1324 C1325 1.369 . S
C1324 C1326 1.419 1_554 S
C1324 H1328 0.930 . S
C1325 C1324 1.369 . S
C1325 C1334 1.429 . S
C1326 C1324 1.419 1_556 S
C1326 C1327 1.363 . S
C1326 H1329 0.929 . S
C1327 C1326 1.363 . S
C1327 C1333 1.428 . S
H1328 C1324 0.930 . S
H1329 C1326 0.929 . S
S1330 N1331 1.613 1_556 S
S1330 N1332 1.610 . S
N1331 S1330 1.613 1_554 S
N1331 C1334 1.350 . S
N1332 S1330 1.610 . S
N1332 C1333 1.351 . S
C1333 C1327 1.428 . S
C1333 N1332 1.351 . S
C1333 C1334 1.434 1_556 S
C1334 C1325 1.429 . S
C1334 N1331 1.350 . S
C1334 C1333 1.434 1_554 S
C1335 C1336 1.369 . S
C1335 C1337 1.419 . S
C1335 H1339 0.930 . S
C1336 C1335 1.369 . S
C1336 C1345 1.429 . S
C1337 C1335 1.419 . S
C1337 C1338 1.363 . S
C1337 H1340 0.929 . S
C1338 C1337 1.363 . S
C1338 C1344 1.428 . S
H1339 C1335 0.930 . S
H1340 C1337 0.929 . S
S1341 N1342 1.613 . S
S1341 N1343 1.610 . S
N1342 S1341 1.613 . S
N1342 C1345 1.350 . S
N1343 S1341 1.610 . S
N1343 C1344 1.351 . S
C1344 C1338 1.428 . S
C1344 N1343 1.351 . S
C1344 C1345 1.434 . S
C1345 C1336 1.429 . S
C1345 N1342 1.350 . S
C1345 C1344 1.434 . S
C1346 C1347 1.369 . S
C1346 C1348 1.419 . S
C1346 H1350 0.930 . S
C1347 C1346 1.369 . S
C1347 C1356 1.429 . S
C1348 C1346 1.419 . S
C1348 C1349 1.363 . S
C1348 H1351 0.929 . S
C1349 C1348 1.363 . S
C1349 C1355 1.428 . S
H1350 C1346 0.930 . S
H1351 C1348 0.929 . S
S1352 N1353 1.613 . S
S1352 N1354 1.610 . S
N1353 S1352 1.613 . S
N1353 C1356 1.350 . S
N1354 S1352 1.610 . S
N1354 C1355 1.351 . S
C1355 C1349 1.428 . S
C1355 N1354 1.351 . S
C1355 C1356 1.434 . S
C1356 C1347 1.429 . S
C1356 N1353 1.350 . S
C1356 C1355 1.434 . S
C1357 C1358 1.369 . S
C1357 C1359 1.419 . S
C1357 H1361 0.930 . S
C1358 C1357 1.369 . S
C1358 C1367 1.429 . S
C1359 C1357 1.419 . S
C1359 C1360 1.363 . S
C1359 H1362 0.929 . S
C1360 C1359 1.363 . S
C1360 C1366 1.428 . S
H1361 C1357 0.930 . S
H1362 C1359 0.929 . S
S1363 N1364 1.613 . S
S1363 N1365 1.610 . S
N1364 S1363 1.613 . S
N1364 C1367 1.350 . S
N1365 S1363 1.610 . S
N1365 C1366 1.351 . S
C1366 C1360 1.428 . S
C1366 N1365 1.351 . S
C1366 C1367 1.434 . S
C1367 C1358 1.429 . S
C1367 N1364 1.350 . S
C1367 C1366 1.434 . S
C1368 C1369 1.369 . S
C1368 C1370 1.419 1_565 S
C1368 H1372 0.930 . S
C1369 C1368 1.369 . S
C1369 C1378 1.429 . S
C1370 C1368 1.419 1_545 S
C1370 C1371 1.363 . S
C1370 H1373 0.929 . S
C1371 C1370 1.363 . S
C1371 C1377 1.428 . S
H1372 C1368 0.930 . S
H1373 C1370 0.929 . S
S1374 N1375 1.613 1_545 S
S1374 N1376 1.610 . S
N1375 S1374 1.613 1_565 S
N1375 C1378 1.350 . S
N1376 S1374 1.610 . S
N1376 C1377 1.351 . S
C1377 C1371 1.428 . S
C1377 N1376 1.351 . S
C1377 C1378 1.434 1_545 S
C1378 C1369 1.429 . S
C1378 N1375 1.350 . S
C1378 C1377 1.434 1_565 S
C1379 C1380 1.369 . S
C1379 C1381 1.419 . S
C1379 H1383 0.930 . S
C1380 C1379 1.369 . S
C1380 C1389 1.429 . S
C1381 C1379 1.419 . S
C1381 C1382 1.363 . S
C1381 H1384 0.929 . S
C1382 C1381 1.363 . S
C1382 C1388 1.428 . S
H1383 C1379 0.930 . S
H1384 C1381 0.929 . S
S1385 N1386 1.613 . S
S1385 N1387 1.610 . S
N1386 S1385 1.613 . S
N1386 C1389 1.350 . S
N1387 S1385 1.610 . S
N1387 C1388 1.351 . S
C1388 C1382 1.428 . S
C1388 N1387 1.351 . S
C1388 C1389 1.434 . S
C1389 C1380 1.429 . S
C1389 N1386 1.350 . S
C1389 C1388 1.434 . S
C1390 C1391 1.369 . S
C1390 C1392 1.435 1_554 S
C1390 H1394 0.930 . S
C1391 C1390 1.369 . S
C1391 C1400 1.429 1_545 S
C1392 C1390 1.435 1_556 S
C1392 C1393 1.345 1_545 S
C1392 H1395 0.932 . S
C1393 C1392 1.345 1_565 S
C1393 C1399 1.428 . S
H1394 C1390 0.930 . S
H1395 C1392 0.932 . S
S1396 N1397 1.613 . S
S1396 N1398 1.610 1_554 S
N1397 S1396 1.613 . S
N1397 C1400 1.350 . S
N1398 S1396 1.610 1_556 S
N1398 C1399 1.351 . S
C1399 C1393 1.428 . S
C1399 N1398 1.351 . S
C1399 C1400 1.434 1_556 S
C1400 C1391 1.429 1_565 S
C1400 N1397 1.350 . S
C1400 C1399 1.434 1_554 S
C1401 C1402 1.369 . S
C1401 C1403 1.419 . S
C1401 H1405 0.930 . S
C1402 C1401 1.369 . S
C1402 C1411 1.429 . S
C1403 C1401 1.419 . S
C1403 C1404 1.363 . S
C1403 H1406 0.929 . S
C1404 C1403 1.363 . S
C1404 C1410 1.428 . S
H1405 C1401 0.930 . S
H1406 C1403 0.929 . S
S1407 N1408 1.613 . S
S1407 N1409 1.610 . S
N1408 S1407 1.613 . S
N1408 C1411 1.350 . S
N1409 S1407 1.610 . S
N1409 C1410 1.351 . S
C1410 C1404 1.428 . S
C1410 N1409 1.351 . S
C1410 C1411 1.434 . S
C1411 C1402 1.429 . S
C1411 N1408 1.350 . S
C1411 C1410 1.434 . S
C1412 C1413 1.369 1_565 S
C1412 C1414 1.419 . S
C1412 H1416 0.930 . S
C1413 C1412 1.369 1_545 S
C1413 C1422 1.429 . S
C1414 C1412 1.419 . S
C1414 C1415 1.363 . S
C1414 H1417 0.929 . S
C1415 C1414 1.363 . S
C1415 C1421 1.428 1_565 S
H1416 C1412 0.930 . S
H1417 C1414 0.929 . S
S1418 N1419 1.613 . S
S1418 N1420 1.610 . S
N1419 S1418 1.613 . S
N1419 C1422 1.350 . S
N1420 S1418 1.610 . S
N1420 C1421 1.351 . S
C1421 C1415 1.428 1_545 S
C1421 N1420 1.351 . S
C1421 C1422 1.434 . S
C1422 C1413 1.429 . S
C1422 N1419 1.350 . S
C1422 C1421 1.434 . S
C1423 C1424 1.369 . S
C1423 C1425 1.419 . S
C1423 H1427 0.930 . S
C1424 C1423 1.369 . S
C1424 C1433 1.429 . S
C1425 C1423 1.419 . S
C1425 C1426 1.363 . S
C1425 H1428 0.929 . S
C1426 C1425 1.363 . S
C1426 C1432 1.428 . S
H1427 C1423 0.930 . S
H1428 C1425 0.929 . S
S1429 N1430 1.613 . S
S1429 N1431 1.610 . S
N1430 S1429 1.613 . S
N1430 C1433 1.350 . S
N1431 S1429 1.610 . S
N1431 C1432 1.351 . S
C1432 C1426 1.428 . S
C1432 N1431 1.351 . S
C1432 C1433 1.434 . S
C1433 C1424 1.429 . S
C1433 N1430 1.350 . S
C1433 C1432 1.434 . S
C1434 C1435 1.369 . S
C1434 C1436 1.419 1_566 S
C1434 H1438 0.930 . S
C1435 C1434 1.369 . S
C1435 C1444 1.429 . S
C1436 C1434 1.419 1_544 S
C1436 C1437 1.363 . S
C1436 H1439 0.929 . S
C1437 C1436 1.363 . S
C1437 C1443 1.428 . S
H1438 C1434 0.930 . S
H1439 C1436 0.929 . S
S1440 N1441 1.613 1_545 S
S1440 N1442 1.610 1_556 S
N1441 S1440 1.613 1_565 S
N1441 C1444 1.350 . S
N1442 S1440 1.610 1_554 S
N1442 C1443 1.351 . S
C1443 C1437 1.428 . S
C1443 N1442 1.351 . S
C1443 C1444 1.434 1_544 S
C1444 C1435 1.429 . S
C1444 N1441 1.350 . S
C1444 C1443 1.434 1_566 S
C1445 C1446 1.369 . S
C1445 C1447 1.419 . S
C1445 H1449 0.930 . S
C1446 C1445 1.369 . S
C1446 C1455 1.429 . S
C1447 C1445 1.419 . S
C1447 C1448 1.363 . S
C1447 H1450 0.929 . S
C1448 C1447 1.363 . S
C1448 C1454 1.428 . S
H1449 C1445 0.930 . S
H1450 C1447 0.929 . S
S1451 N1452 1.613 . S
S1451 N1453 1.610 . S
N1452 S1451 1.613 . S
N1452 C1455 1.350 . S
N1453 S1451 1.610 . S
N1453 C1454 1.351 . S
C1454 C1448 1.428 . S
C1454 N1453 1.351 . S
C1454 C1455 1.434 . S
C1455 C1446 1.429 . S
C1455 N1452 1.350 . S
C1455 C1454 1.434 . S
C1456 C1457 1.369 . S
C1456 C1458 1.419 1_655 S
C1456 H1460 0.930 . S
C1457 C1456 1.369 . S
C1457 C1466 1.429 . S
C1458 C1456 1.419 1_455 S
C1458 C1459 1.363 . S
C1458 H1461 0.929 . S
C1459 C1458 1.363 . S
C1459 C1465 1.428 . S
H1460 C1456 0.930 . S
H1461 C1458 0.929 . S
S1462 N1463 1.619 1_455 S
S1462 N1464 1.605 . S
N1463 S1462 1.619 1_655 S
N1463 C1466 1.350 . S
N1464 S1462 1.605 . S
N1464 C1465 1.351 . S
C1465 C1459 1.428 . S
C1465 N1464 1.351 . S
C1465 C1466 1.434 1_455 S
C1466 C1457 1.429 . S
C1466 N1463 1.350 . S
C1466 C1465 1.434 1_655 S
C1467 C1468 1.369 . S
C1467 C1469 1.419 . S
C1467 H1471 0.930 . S
C1468 C1467 1.369 . S
C1468 C1477 1.429 . S
C1469 C1467 1.419 . S
C1469 C1470 1.363 . S
C1469 H1472 0.929 . S
C1470 C1469 1.363 . S
C1470 C1476 1.428 . S
H1471 C1467 0.930 . S
H1472 C1469 0.929 . S
S1473 N1474 1.613 . S
S1473 N1475 1.610 . S
N1474 S1473 1.613 . S
N1474 C1477 1.350 . S
N1475 S1473 1.610 . S
N1475 C1476 1.351 . S
C1476 C1470 1.428 . S
C1476 N1475 1.351 . S
C1476 C1477 1.434 . S
C1477 C1468 1.429 . S
C1477 N1474 1.350 . S
C1477 C1476 1.434 . S
C1478 C1479 1.369 . S
C1478 C1480 1.419 . S
C1478 H1482 0.930 . S
C1479 C1478 1.369 . S
C1479 C1488 1.429 . S
C1480 C1478 1.419 . S
C1480 C1481 1.363 . S
C1480 H1483 0.929 . S
C1481 C1480 1.363 . S
C1481 C1487 1.428 . S
H1482 C1478 0.930 . S
H1483 C1480 0.929 . S
S1484 N1485 1.613 . S
S1484 N1486 1.610 . S
N1485 S1484 1.613 . S
N1485 C1488 1.350 . S
N1486 S1484 1.610 . S
N1486 C1487 1.351 . S
C1487 C1481 1.428 . S
C1487 N1486 1.351 . S
C1487 C1488 1.434 . S
C1488 C1479 1.429 . S
C1488 N1485 1.350 . S
C1488 C1487 1.434 . S
C1489 C1490 1.369 . S
C1489 C1491 1.419 . S
C1489 H1493 0.930 . S
C1490 C1489 1.369 . S
C1490 C1499 1.429 . S
C1491 C1489 1.419 . S
C1491 C1492 1.363 . S
C1491 H1494 0.929 . S
C1492 C1491 1.363 . S
C1492 C1498 1.428 . S
H1493 C1489 0.930 . S
H1494 C1491 0.929 . S
S1495 N1496 1.613 . S
S1495 N1497 1.610 . S
N1496 S1495 1.613 . S
N1496 C1499 1.350 . S
N1497 S1495 1.610 . S
N1497 C1498 1.351 . S
C1498 C1492 1.428 . S
C1498 N1497 1.351 . S
C1498 C1499 1.434 . S
C1499 C1490 1.429 . S
C1499 N1496 1.350 . S
C1499 C1498 1.434 . S
C1500 C1501 1.369 . S
C1500 C1502 1.419 1_655 S
C1500 H1504 0.930 . S
C1501 C1500 1.369 . S
C1501 C1510 1.429 . S
C1502 C1500 1.419 1_455 S
C1502 C1503 1.363 . S
C1502 H1505 0.929 . S
C1503 C1502 1.363 . S
C1503 C1509 1.428 . S
H1504 C1500 0.930 . S
H1505 C1502 0.929 . S
S1506 N1507 1.618 1_455 S
S1506 N1508 1.606 . S
N1507 S1506 1.618 1_655 S
N1507 C1510 1.350 . S
N1508 S1506 1.606 . S
N1508 C1509 1.351 . S
C1509 C1503 1.428 . S
C1509 N1508 1.351 . S
C1509 C1510 1.434 1_455 S
C1510 C1501 1.429 . S
C1510 N1507 1.350 . S
C1510 C1509 1.434 1_655 S
C1511 C1512 1.369 . S
C1511 C1513 1.419 . S
C1511 H1515 0.930 . S
C1512 C1511 1.369 . S
C1512 C1521 1.429 . S
C1513 C1511 1.419 . S
C1513 C1514 1.363 . S
C1513 H1516 0.929 . S
C1514 C1513 1.363 . S
C1514 C1520 1.428 . S
H1515 C1511 0.930 . S
H1516 C1513 0.929 . S
S1517 N1518 1.613 . S
S1517 N1519 1.610 . S
N1518 S1517 1.613 . S
N1518 C1521 1.350 . S
N1519 S1517 1.610 . S
N1519 C1520 1.351 . S
C1520 C1514 1.428 . S
C1520 N1519 1.351 . S
C1520 C1521 1.434 . S
C1521 C1512 1.429 . S
C1521 N1518 1.350 . S
C1521 C1520 1.434 . S
C1522 C1523 1.369 . S
C1522 C1524 1.419 . S
C1522 H1526 0.930 . S
C1523 C1522 1.369 . S
C1523 C1532 1.429 . S
C1524 C1522 1.419 . S
C1524 C1525 1.363 . S
C1524 H1527 0.929 . S
C1525 C1524 1.363 . S
C1525 C1531 1.428 . S
H1526 C1522 0.930 . S
H1527 C1524 0.929 . S
S1528 N1529 1.613 . S
S1528 N1530 1.610 . S
N1529 S1528 1.613 . S
N1529 C1532 1.350 . S
N1530 S1528 1.610 . S
N1530 C1531 1.351 . S
C1531 C1525 1.428 . S
C1531 N1530 1.351 . S
C1531 C1532 1.434 . S
C1532 C1523 1.429 . S
C1532 N1529 1.350 . S
C1532 C1531 1.434 . S
C1533 C1534 1.369 . S
C1533 C1535 1.419 . S
C1533 H1537 0.930 . S
C1534 C1533 1.369 . S
C1534 C1543 1.429 . S
C1535 C1533 1.419 . S
C1535 C1536 1.363 . S
C1535 H1538 0.929 . S
C1536 C1535 1.363 . S
C1536 C1542 1.428 . S
H1537 C1533 0.930 . S
H1538 C1535 0.929 . S
S1539 N1540 1.613 . S
S1539 N1541 1.610 . S
N1540 S1539 1.613 . S
N1540 C1543 1.350 . S
N1541 S1539 1.610 . S
N1541 C1542 1.351 . S
C1542 C1536 1.428 . S
C1542 N1541 1.351 . S
C1542 C1543 1.434 . S
C1543 C1534 1.429 . S
C1543 N1540 1.350 . S
C1543 C1542 1.434 . S
C1544 C1545 1.369 . S
C1544 C1546 1.419 . S
C1544 H1548 0.930 . S
C1545 C1544 1.369 . S
C1545 C1554 1.429 . S
C1546 C1544 1.419 . S
C1546 C1547 1.363 . S
C1546 H1549 0.929 . S
C1547 C1546 1.363 . S
C1547 C1553 1.428 . S
H1548 C1544 0.930 . S
H1549 C1546 0.929 . S
S1550 N1551 1.613 . S
S1550 N1552 1.610 . S
N1551 S1550 1.613 . S
N1551 C1554 1.350 . S
N1552 S1550 1.610 . S
N1552 C1553 1.351 . S
C1553 C1547 1.428 . S
C1553 N1552 1.351 . S
C1553 C1554 1.434 . S
C1554 C1545 1.429 . S
C1554 N1551 1.350 . S
C1554 C1553 1.434 . S
C1555 C1556 1.369 . S
C1555 C1557 1.419 . S
C1555 H1559 0.930 . S
C1556 C1555 1.369 . S
C1556 C1565 1.429 . S
C1557 C1555 1.419 . S
C1557 C1558 1.363 . S
C1557 H1560 0.929 . S
C1558 C1557 1.363 . S
C1558 C1564 1.428 . S
H1559 C1555 0.930 . S
H1560 C1557 0.929 . S
S1561 N1562 1.613 . S
S1561 N1563 1.610 . S
N1562 S1561 1.613 . S
N1562 C1565 1.350 . S
N1563 S1561 1.610 . S
N1563 C1564 1.351 . S
C1564 C1558 1.428 . S
C1564 N1563 1.351 . S
C1564 C1565 1.434 . S
C1565 C1556 1.429 . S
C1565 N1562 1.350 . S
C1565 C1564 1.434 . S
C1566 C1567 1.369 . S
C1566 C1568 1.419 . S
C1566 H1570 0.930 . S
C1567 C1566 1.369 . S
C1567 C1576 1.429 . S
C1568 C1566 1.419 . S
C1568 C1569 1.363 . S
C1568 H1571 0.929 . S
C1569 C1568 1.363 . S
C1569 C1575 1.428 . S
H1570 C1566 0.930 . S
H1571 C1568 0.929 . S
S1572 N1573 1.613 . S
S1572 N1574 1.610 . S
N1573 S1572 1.613 . S
N1573 C1576 1.350 . S
N1574 S1572 1.610 . S
N1574 C1575 1.351 . S
C1575 C1569 1.428 . S
C1575 N1574 1.351 . S
C1575 C1576 1.434 . S
C1576 C1567 1.429 . S
C1576 N1573 1.350 . S
C1576 C1575 1.434 . S
C1577 C1578 1.369 . S
C1577 C1579 1.419 . S
C1577 H1581 0.930 . S
C1578 C1577 1.369 . S
C1578 C1587 1.429 . S
C1579 C1577 1.419 . S
C1579 C1580 1.363 . S
C1579 H1582 0.929 . S
C1580 C1579 1.363 . S
C1580 C1586 1.428 . S
H1581 C1577 0.930 . S
H1582 C1579 0.929 . S
S1583 N1584 1.613 . S
S1583 N1585 1.610 . S
N1584 S1583 1.613 . S
N1584 C1587 1.350 . S
N1585 S1583 1.610 . S
N1585 C1586 1.351 . S
C1586 C1580 1.428 . S
C1586 N1585 1.351 . S
C1586 C1587 1.434 . S
C1587 C1578 1.429 . S
C1587 N1584 1.350 . S
C1587 C1586 1.434 . S
C1588 C1589 1.369 . S
C1588 C1590 1.419 . S
C1588 H1592 0.930 . S
C1589 C1588 1.369 . S
C1589 C1598 1.429 . S
C1590 C1588 1.419 . S
C1590 C1591 1.363 . S
C1590 H1593 0.929 . S
C1591 C1590 1.363 . S
C1591 C1597 1.428 . S
H1592 C1588 0.930 . S
H1593 C1590 0.929 . S
S1594 N1595 1.613 . S
S1594 N1596 1.610 . S
N1595 S1594 1.613 . S
N1595 C1598 1.350 1_545 S
N1596 S1594 1.610 . S
N1596 C1597 1.351 1_545 S
C1597 C1591 1.428 . S
C1597 N1596 1.351 1_565 S
C1597 C1598 1.434 . S
C1598 C1589 1.429 . S
C1598 N1595 1.350 1_565 S
C1598 C1597 1.434 . S
C1599 C1600 1.369 . S
C1599 C1601 1.419 1_455 S
C1599 H1603 0.930 . S
C1600 C1599 1.369 . S
C1600 C1609 1.429 . S
C1601 C1599 1.419 1_655 S
C1601 C1602 1.363 . S
C1601 H1604 0.929 . S
C1602 C1601 1.363 . S
C1602 C1608 1.428 . S
H1603 C1599 0.930 . S
H1604 C1601 0.929 . S
S1605 N1606 1.618 1_655 S
S1605 N1607 1.605 . S
N1606 S1605 1.618 1_455 S
N1606 C1609 1.350 1_565 S
N1607 S1605 1.605 . S
N1607 C1608 1.351 1_565 S
C1608 C1602 1.428 . S
C1608 N1607 1.351 1_545 S
C1608 C1609 1.434 1_655 S
C1609 C1600 1.429 . S
C1609 N1606 1.350 1_545 S
C1609 C1608 1.434 1_455 S
C1610 C1611 1.369 . S
C1610 C1612 1.419 . S
C1610 H1614 0.930 1_545 S
C1611 C1610 1.369 . S
C1611 C1620 1.429 . S
C1612 C1610 1.419 . S
C1612 C1613 1.363 . S
C1612 H1615 0.929 1_545 S
C1613 C1612 1.363 . S
C1613 C1619 1.428 . S
H1614 C1610 0.930 1_565 S
H1615 C1612 0.929 1_565 S
S1616 N1617 1.613 . S
S1616 N1618 1.610 . S
N1617 S1616 1.613 . S
N1617 C1620 1.350 . S
N1618 S1616 1.610 . S
N1618 C1619 1.351 . S
C1619 C1613 1.428 . S
C1619 N1618 1.351 . S
C1619 C1620 1.434 . S
C1620 C1611 1.429 . S
C1620 N1617 1.350 . S
C1620 C1619 1.434 . S
C1621 C1622 1.369 . S
C1621 C1623 1.419 1_455 S
C1621 H1625 0.930 . S
C1622 C1621 1.369 . S
C1622 C1631 1.429 . S
C1623 C1621 1.419 1_655 S
C1623 C1624 1.363 . S
C1623 H1626 0.929 . S
C1624 C1623 1.363 . S
C1624 C1630 1.428 . S
H1625 C1621 0.930 . S
H1626 C1623 0.929 . S
S1627 N1628 1.618 1_655 S
S1627 N1629 1.605 . S
N1628 S1627 1.618 1_455 S
N1628 C1631 1.350 . S
N1629 S1627 1.605 . S
N1629 C1630 1.351 . S
C1630 C1624 1.428 . S
C1630 N1629 1.351 . S
C1630 C1631 1.434 1_655 S
C1631 C1622 1.429 . S
C1631 N1628 1.350 . S
C1631 C1630 1.434 1_455 S
C1632 C1633 1.369 . S
C1632 C1634 1.419 . S
C1632 H1636 0.930 . S
C1633 C1632 1.369 . S
C1633 C1642 1.429 . S
C1634 C1632 1.419 . S
C1634 C1635 1.363 . S
C1634 H1637 0.929 . S
C1635 C1634 1.363 . S
C1635 C1641 1.428 . S
H1636 C1632 0.930 . S
H1637 C1634 0.929 . S
S1638 N1639 1.613 . S
S1638 N1640 1.610 . S
N1639 S1638 1.613 . S
N1639 C1642 1.350 . S
N1640 S1638 1.610 . S
N1640 C1641 1.351 . S
C1641 C1635 1.428 . S
C1641 N1640 1.351 . S
C1641 C1642 1.434 . S
C1642 C1633 1.429 . S
C1642 N1639 1.350 . S
C1642 C1641 1.434 . S
C1643 C1644 1.369 . S
C1643 C1645 1.419 . S
C1643 H1647 0.930 . S
C1644 C1643 1.369 . S
C1644 C1653 1.429 . S
C1645 C1643 1.419 . S
C1645 C1646 1.363 . S
C1645 H1648 0.929 . S
C1646 C1645 1.363 . S
C1646 C1652 1.428 . S
H1647 C1643 0.930 . S
H1648 C1645 0.929 . S
S1649 N1650 1.613 . S
S1649 N1651 1.610 . S
N1650 S1649 1.613 . S
N1650 C1653 1.350 . S
N1651 S1649 1.610 . S
N1651 C1652 1.351 . S
C1652 C1646 1.428 . S
C1652 N1651 1.351 . S
C1652 C1653 1.434 . S
C1653 C1644 1.429 . S
C1653 N1650 1.350 . S
C1653 C1652 1.434 . S
C1654 C1655 1.369 . S
C1654 C1656 1.419 . S
C1654 H1658 0.930 . S
C1655 C1654 1.369 . S
C1655 C1664 1.429 . S
C1656 C1654 1.419 . S
C1656 C1657 1.363 . S
C1656 H1659 0.929 . S
C1657 C1656 1.363 . S
C1657 C1663 1.428 . S
H1658 C1654 0.930 . S
H1659 C1656 0.929 . S
S1660 N1661 1.613 . S
S1660 N1662 1.610 . S
N1661 S1660 1.613 . S
N1661 C1664 1.350 . S
N1662 S1660 1.610 . S
N1662 C1663 1.351 . S
C1663 C1657 1.428 . S
C1663 N1662 1.351 . S
C1663 C1664 1.434 . S
C1664 C1655 1.429 . S
C1664 N1661 1.350 . S
C1664 C1663 1.434 . S
C1665 C1666 1.369 . S
C1665 C1667 1.419 . S
C1665 H1669 0.930 . S
C1666 C1665 1.369 . S
C1666 C1675 1.429 . S
C1667 C1665 1.419 . S
C1667 C1668 1.363 . S
C1667 H1670 0.929 . S
C1668 C1667 1.363 . S
C1668 C1674 1.428 . S
H1669 C1665 0.930 . S
H1670 C1667 0.929 . S
S1671 N1672 1.613 . S
S1671 N1673 1.610 . S
N1672 S1671 1.613 . S
N1672 C1675 1.350 . S
N1673 S1671 1.610 . S
N1673 C1674 1.351 . S
C1674 C1668 1.428 . S
C1674 N1673 1.351 . S
C1674 C1675 1.434 . S
C1675 C1666 1.429 . S
C1675 N1672 1.350 . S
C1675 C1674 1.434 . S
C1676 C1677 1.369 . S
C1676 C1678 1.419 . S
C1676 H1680 0.930 . S
C1677 C1676 1.369 . S
C1677 C1686 1.429 . S
C1678 C1676 1.419 . S
C1678 C1679 1.363 . S
C1678 H1681 0.929 . S
C1679 C1678 1.363 . S
C1679 C1685 1.428 . S
H1680 C1676 0.930 . S
H1681 C1678 0.929 . S
S1682 N1683 1.613 . S
S1682 N1684 1.610 . S
N1683 S1682 1.613 . S
N1683 C1686 1.350 . S
N1684 S1682 1.610 . S
N1684 C1685 1.351 . S
C1685 C1679 1.428 . S
C1685 N1684 1.351 . S
C1685 C1686 1.434 . S
C1686 C1677 1.429 . S
C1686 N1683 1.350 . S
C1686 C1685 1.434 . S
C1687 C1688 1.369 . S
C1687 C1689 1.419 . S
C1687 H1691 0.930 . S
C1688 C1687 1.369 . S
C1688 C1697 1.429 . S
C1689 C1687 1.419 . S
C1689 C1690 1.363 . S
C1689 H1692 0.929 . S
C1690 C1689 1.363 . S
C1690 C1696 1.428 . S
H1691 C1687 0.930 . S
H1692 C1689 0.929 . S
S1693 N1694 1.613 . S
S1693 N1695 1.610 . S
N1694 S1693 1.613 . S
N1694 C1697 1.350 . S
N1695 S1693 1.610 . S
N1695 C1696 1.351 . S
C1696 C1690 1.428 . S
C1696 N1695 1.351 . S
C1696 C1697 1.434 . S
C1697 C1688 1.429 . S
C1697 N1694 1.350 . S
C1697 C1696 1.434 . S
C1698 C1699 1.369 . S
C1698 C1700 1.419 . S
C1698 H1702 0.930 . S
C1699 C1698 1.369 . S
C1699 C1708 1.429 . S
C1700 C1698 1.419 . S
C1700 C1701 1.363 . S
C1700 H1703 0.929 . S
C1701 C1700 1.363 . S
C1701 C1707 1.428 . S
H1702 C1698 0.930 . S
H1703 C1700 0.929 . S
S1704 N1705 1.613 . S
S1704 N1706 1.610 . S
N1705 S1704 1.613 . S
N1705 C1708 1.350 . S
N1706 S1704 1.610 . S
N1706 C1707 1.351 . S
C1707 C1701 1.428 . S
C1707 N1706 1.351 . S
C1707 C1708 1.434 . S
C1708 C1699 1.429 . S
C1708 N1705 1.350 . S
C1708 C1707 1.434 . S
C1709 C1710 1.369 . S
C1709 C1711 1.419 . S
C1709 H1713 0.930 . S
C1710 C1709 1.369 . S
C1710 C1719 1.429 . S
C1711 C1709 1.419 . S
C1711 C1712 1.363 . S
C1711 H1714 0.929 . S
C1712 C1711 1.363 . S
C1712 C1718 1.428 . S
H1713 C1709 0.930 . S
H1714 C1711 0.929 . S
S1715 N1716 1.613 . S
S1715 N1717 1.610 . S
N1716 S1715 1.613 . S
N1716 C1719 1.350 . S
N1717 S1715 1.610 . S
N1717 C1718 1.351 . S
C1718 C1712 1.428 . S
C1718 N1717 1.351 . S
C1718 C1719 1.434 . S
C1719 C1710 1.429 . S
C1719 N1716 1.350 . S
C1719 C1718 1.434 . S
C1720 C1721 1.369 . S
C1720 C1722 1.419 . S
C1720 H1724 0.930 . S
C1721 C1720 1.369 . S
C1721 C1730 1.429 . S
C1722 C1720 1.419 . S
C1722 C1723 1.363 . S
C1722 H1725 0.929 . S
C1723 C1722 1.363 . S
C1723 C1729 1.428 . S
H1724 C1720 0.930 . S
H1725 C1722 0.929 . S
S1726 N1727 1.613 . S
S1726 N1728 1.610 . S
N1727 S1726 1.613 . S
N1727 C1730 1.350 . S
N1728 S1726 1.610 . S
N1728 C1729 1.351 . S
C1729 C1723 1.428 . S
C1729 N1728 1.351 . S
C1729 C1730 1.434 . S
C1730 C1721 1.429 . S
C1730 N1727 1.350 . S
C1730 C1729 1.434 . S
C1731 C1732 1.369 . S
C1731 C1733 1.419 . S
C1731 H1735 0.930 . S
C1732 C1731 1.369 . S
C1732 C1741 1.429 . S
C1733 C1731 1.419 . S
C1733 C1734 1.363 . S
C1733 H1736 0.929 . S
C1734 C1733 1.363 . S
C1734 C1740 1.428 . S
H1735 C1731 0.930 . S
H1736 C1733 0.929 . S
S1737 N1738 1.613 . S
S1737 N1739 1.610 . S
N1738 S1737 1.613 . S
N1738 C1741 1.350 . S
N1739 S1737 1.610 . S
N1739 C1740 1.351 . S
C1740 C1734 1.428 . S
C1740 N1739 1.351 . S
C1740 C1741 1.434 . S
C1741 C1732 1.429 . S
C1741 N1738 1.350 . S
C1741 C1740 1.434 . S
C1742 C1743 1.369 . S
C1742 C1744 1.419 . S
C1742 H1746 0.930 . S
C1743 C1742 1.369 . S
C1743 C1752 1.429 . S
C1744 C1742 1.419 . S
C1744 C1745 1.363 . S
C1744 H1747 0.929 . S
C1745 C1744 1.363 . S
C1745 C1751 1.428 . S
H1746 C1742 0.930 . S
H1747 C1744 0.929 . S
S1748 N1749 1.613 . S
S1748 N1750 1.610 . S
N1749 S1748 1.613 . S
N1749 C1752 1.350 . S
N1750 S1748 1.610 . S
N1750 C1751 1.351 . S
C1751 C1745 1.428 . S
C1751 N1750 1.351 . S
C1751 C1752 1.434 . S
C1752 C1743 1.429 . S
C1752 N1749 1.350 . S
C1752 C1751 1.434 . S
C1753 C1754 1.369 . S
C1753 C1755 1.419 . S
C1753 H1757 0.930 . S
C1754 C1753 1.369 . S
C1754 C1763 1.429 . S
C1755 C1753 1.419 . S
C1755 C1756 1.363 . S
C1755 H1758 0.929 . S
C1756 C1755 1.363 . S
C1756 C1762 1.428 . S
H1757 C1753 0.930 . S
H1758 C1755 0.929 . S
S1759 N1760 1.613 . S
S1759 N1761 1.610 . S
N1760 S1759 1.613 . S
N1760 C1763 1.350 . S
N1761 S1759 1.610 . S
N1761 C1762 1.351 . S
C1762 C1756 1.428 . S
C1762 N1761 1.351 . S
C1762 C1763 1.434 . S
C1763 C1754 1.429 . S
C1763 N1760 1.350 . S
C1763 C1762 1.434 . S
C1764 C1765 1.369 . S
C1764 C1766 1.419 . S
C1764 H1768 0.930 . S
C1765 C1764 1.369 . S
C1765 C1774 1.429 . S
C1766 C1764 1.419 . S
C1766 C1767 1.363 . S
C1766 H1769 0.929 . S
C1767 C1766 1.363 . S
C1767 C1773 1.428 . S
H1768 C1764 0.930 . S
H1769 C1766 0.929 . S
S1770 N1771 1.613 . S
S1770 N1772 1.610 . S
N1771 S1770 1.613 . S
N1771 C1774 1.350 . S
N1772 S1770 1.610 . S
N1772 C1773 1.351 . S
C1773 C1767 1.428 . S
C1773 N1772 1.351 . S
C1773 C1774 1.434 . S
C1774 C1765 1.429 . S
C1774 N1771 1.350 . S
C1774 C1773 1.434 . S
C1775 C1776 1.369 . S
C1775 C1777 1.419 . S
C1775 H1779 0.930 . S
C1776 C1775 1.369 . S
C1776 C1785 1.429 . S
C1777 C1775 1.419 . S
C1777 C1778 1.363 . S
C1777 H1780 0.929 . S
C1778 C1777 1.363 . S
C1778 C1784 1.428 . S
H1779 C1775 0.930 . S
H1780 C1777 0.929 . S
S1781 N1782 1.613 . S
S1781 N1783 1.610 . S
N1782 S1781 1.613 . S
N1782 C1785 1.350 . S
N1783 S1781 1.610 . S
N1783 C1784 1.351 . S
C1784 C1778 1.428 . S
C1784 N1783 1.351 . S
C1784 C1785 1.434 . S
C1785 C1776 1.429 . S
C1785 N1782 1.350 . S
C1785 C1784 1.434 . S
C1786 C1787 1.369 . S
C1786 C1788 1.419 . S
C1786 H1790 0.930 . S
C1787 C1786 1.369 . S
C1787 C1796 1.429 . S
C1788 C1786 1.419 . S
C1788 C1789 1.363 . S
C1788 H1791 0.929 . S
C1789 C1788 1.363 . S
C1789 C1795 1.428 . S
H1790 C1786 0.930 . S
H1791 C1788 0.929 . S
S1792 N1793 1.613 . S
S1792 N1794 1.610 . S
N1793 S1792 1.613 . S
N1793 C1796 1.350 . S
N1794 S1792 1.610 . S
N1794 C1795 1.351 . S
C1795 C1789 1.428 . S
C1795 N1794 1.351 . S
C1795 C1796 1.434 . S
C1796 C1787 1.429 . S
C1796 N1793 1.350 . S
C1796 C1795 1.434 . S
C1797 C1798 1.369 . S
C1797 C1799 1.419 . S
C1797 H1801 0.930 . S
C1798 C1797 1.369 . S
C1798 C1807 1.429 . S
C1799 C1797 1.419 . S
C1799 C1800 1.363 . S
C1799 H1802 0.929 . S
C1800 C1799 1.363 . S
C1800 C1806 1.428 . S
H1801 C1797 0.930 . S
H1802 C1799 0.929 . S
S1803 N1804 1.613 . S
S1803 N1805 1.610 . S
N1804 S1803 1.613 . S
N1804 C1807 1.350 . S
N1805 S1803 1.610 . S
N1805 C1806 1.351 . S
C1806 C1800 1.428 . S
C1806 N1805 1.351 . S
C1806 C1807 1.434 . S
C1807 C1798 1.429 . S
C1807 N1804 1.350 . S
C1807 C1806 1.434 . S
C1281 C162 2.299 . S
C1283 C2 2.295 . S
C1292 C202 2.349 . S
C1294 C42 2.353 . S
C1303 C82 2.300 . S
C1305 C242 2.294 . S
C1314 C122 2.354 . S
C1316 C282 2.349 . S
C1325 C482 2.117 . S
C1327 C322 2.113 . S
C1336 C522 2.165 . S
C1338 C362 2.174 . S
C1347 C402 2.108 . S
C1349 C562 2.117 . S
C1358 C602 2.175 . S
C1360 C442 2.168 . S
C1369 C642 2.082 . S
C1371 C802 2.077 . S
C1380 C842 2.293 . S
C1382 C682 2.297 . S
C1391 C722 2.080 . S
C1393 C882 2.079 . S
C1402 C922 2.293 . S
C1404 C762 2.297 . S
C1413 C962 1.936 . S
C1415 C1122 1.926 . S
C1424 C1162 2.110 . S
C1426 C1002 2.115 . S
C1435 C1042 1.929 . S
C1437 C1202 1.931 . S
C1446 C1242 2.118 . S
C1448 C1082 2.110 . S
C1457 C501 1.862 . S
C1459 C21 1.932 . S
C1468 C61 1.925 . S
C1470 C1181 1.863 . S
C1479 C581 1.867 . S
C1481 C101 1.934 . S
C1490 C141 1.922 . S
C1492 C1261 1.863 . S
C1501 C341 1.862 . S
C1503 C181 1.933 . S
C1512 C1021 1.861 . S
C1514 C221 1.925 . S
C1523 C261 1.932 . S
C1525 C421 1.863 . S
C1534 C1101 1.861 . S
C1536 C301 1.925 . S
C1545 C381 1.853 . S
C1547 C861 1.927 . S
C1556 C461 1.852 . S
C1558 C941 1.926 . S
C1567 C541 1.858 . S
C1569 C701 1.927 . S
C1578 C781 1.926 . S
C1580 C621 1.853 . S
C1589 C1141 1.742 . S
C1591 C661 1.798 . S
C1600 C1221 1.744 . S
C1602 C741 1.799 . S
C1611 C821 1.798 . S
C1613 C981 1.748 . S
C1622 C1061 1.747 . S
C1624 C901 1.797 . S
C1633 C935 1.882 . S
C1635 C15 1.876 . S
C1644 C55 1.779 . S
C1646 C815 1.793 . S
C1655 C95 1.879 . S
C1657 C855 1.880 . S
C1666 C895 1.801 . S
C1668 C135 1.768 . S
C1677 C175 1.881 . S
C1679 C695 1.877 . S
C1688 C215 1.774 . S
C1690 C735 1.796 . S
C1699 C775 1.877 . S
C1701 C255 1.877 . S
C1710 C655 1.798 . S
C1712 C295 1.767 . S
C1721 C1255 1.872 . S
C1723 C335 1.870 . S
C1732 C375 1.767 . S
C1734 C1135 1.789 . S
C1743 C1175 1.867 . S
C1745 C415 1.872 . S
C1754 C1215 1.794 . S
C1756 C455 1.761 . S
C1765 C495 1.865 . S
C1767 C1015 1.873 . S
C1776 C1055 1.795 . S
C1778 C535 1.759 . S
C1787 C1095 1.873 . S
C1789 C575 1.866 . S
C1798 C615 1.764 . S
C1800 C975 1.786 . S
