# Generated by pormake.
# Topology bcg, (8)-cn, num edge types: 1
# Building blocks:
#     Node 0, Type 0, BuildingBlock: XADDAJ01_clean_sbu_3, # of connection points: 8
#     Node 1, Type 0, BuildingBlock: XADDAJ01_clean_sbu_3, # of connection points: 8
#     Node 2, Type 0, BuildingBlock: XADDAJ01_clean_sbu_3, # of connection points: 8
#     Node 3, Type 0, BuildingBlock: XADDAJ01_clean_sbu_3, # of connection points: 8
#     Edge 4, Type (0, 0), BuildingBlock: TEMPAE_clean_linker_10, # of connection points: 2
#     Edge 5, Type (0, 0), BuildingBlock: TEMPAE_clean_linker_10, # of connection points: 2
#     Edge 6, Type (0, 0), BuildingBlock: TEMPAE_clean_linker_10, # of connection points: 2
#     Edge 7, Type (0, 0), BuildingBlock: TEMPAE_clean_linker_10, # of connection points: 2
#     Edge 8, Type (0, 0), BuildingBlock: TEMPAE_clean_linker_10, # of connection points: 2
#     Edge 9, Type (0, 0), BuildingBlock: TEMPAE_clean_linker_10, # of connection points: 2
#     Edge 10, Type (0, 0), BuildingBlock: TEMPAE_clean_linker_10, # of connection points: 2
#     Edge 11, Type (0, 0), BuildingBlock: TEMPAE_clean_linker_10, # of connection points: 2
#     Edge 12, Type (0, 0), BuildingBlock: TEMPAE_clean_linker_10, # of connection points: 2
#     Edge 13, Type (0, 0), BuildingBlock: TEMPAE_clean_linker_10, # of connection points: 2
#     Edge 14, Type (0, 0), BuildingBlock: TEMPAE_clean_linker_10, # of connection points: 2
#     Edge 15, Type (0, 0), BuildingBlock: TEMPAE_clean_linker_10, # of connection points: 2
#     Edge 16, Type (0, 0), BuildingBlock: TEMPAE_clean_linker_10, # of connection points: 2
#     Edge 17, Type (0, 0), BuildingBlock: TEMPAE_clean_linker_10, # of connection points: 2
#     Edge 18, Type (0, 0), BuildingBlock: TEMPAE_clean_linker_10, # of connection points: 2
#     Edge 19, Type (0, 0), BuildingBlock: TEMPAE_clean_linker_10, # of connection points: 2
# Relax obj value: 0.164
# Max RMSD: 0.232
# Mean RMSD: 0.232
data_MOF--net-bcg--node1-XADDAJ01_clean_sbu_3--edge1-TEMPAE_clean_linker_10
_symmetry_space_group_name_H-M    P1
_symmetry_Int_Tables_number       1
_symmetry_cell_setting            triclinic
loop_
_symmetry_equiv_pos_as_xyz
'x, y, z'
_cell_length_a     22.096476
_cell_length_b     18.03644
_cell_length_c     33.877768
_cell_angle_alpha  79.634793
_cell_angle_beta   90.025822
_cell_angle_gamma 90.099806
loop_
_atom_site_label
_atom_site_type_symbol
_atom_site_fract_x
_atom_site_fract_y
_atom_site_fract_z
_atom_type_partial_charge
C0 C 0.09341 0.30702 0.05531 0.0
C1 C 0.03691 0.30171 0.03629 0.0
C2 C 0.98363 0.28646 0.05933 0.0
C3 C 0.98803 0.27394 0.10135 0.0
C4 C 0.04334 0.28003 0.12084 0.0
C5 C 0.09596 0.29588 0.0975 0.0
O6 O 0.21475 0.18732 0.97321 0.0
Tb7 Tb 0.21586 0.30624 0.97678 0.0
Tb8 Tb 0.33405 0.2073 0.02557 0.0
O9 O 0.17014 0.33172 0.91959 0.0
O10 O 0.25122 0.14073 0.03562 0.0
O11 O 0.14334 0.36665 0.99485 0.0
C12 C 0.39831 0.18473 0.96792 0.0
O13 O 0.19711 0.28885 0.03859 0.0
O14 O 0.33226 0.32511 0.03115 0.0
O15 O 0.29871 0.37292 0.96835 0.0
C16 C 0.1493 0.333 0.03249 0.0
C17 C 0.36025 0.18661 0.11467 0.0
O18 O 0.30084 0.18787 0.11613 0.0
C19 C 0.21473 0.13537 0.00562 0.0
C20 C 0.33381 0.37781 -0.00092 0.0
O21 O 0.38707 0.18936 0.07994 0.0
C22 C 0.45545 0.21163 0.94708 0.0
C23 C 0.51293 0.23578 0.88434 0.0
C24 C 0.4589 0.21474 0.90533 0.0
C25 C 0.50723 0.22958 0.96806 0.0
C26 C 0.56165 0.25115 0.94729 0.0
C27 C 0.56353 0.25445 0.90561 0.0
C28 C 0.19146 0.30278 0.88956 0.0
O29 O 0.24171 0.26335 0.89469 0.0
O30 O 0.40293 0.14528 0.0045 0.0
O31 O 0.35235 0.23195 0.96368 0.0
H32 H 0.03394 0.31283 0.00384 0.0
H33 H 0.94709 0.26307 0.11904 0.0
H34 H 0.13887 0.30202 0.11211 0.0
H35 H 0.41963 0.19964 0.88925 0.0
H36 H 0.50544 0.22609 0.00031 0.0
H37 H 0.60603 0.26762 0.88989 0.0
C38 C 0.57995 0.85021 0.05593 0.0
C39 C 0.5287 0.82424 0.03792 0.0
C40 C 0.47459 0.81028 0.05982 0.0
C41 C 0.47199 0.82477 0.09899 0.0
C42 C 0.52279 0.85058 0.11688 0.0
C43 C 0.57689 0.86325 0.09547 0.0
O44 O 0.73385 0.73237 0.97417 0.0
Tb45 Tb 0.69194 0.84268 0.97247 0.0
Tb46 Tb 0.85237 0.69546 0.01983 0.0
O47 O 0.63636 0.8601 0.91822 0.0
O48 O 0.76565 0.6367 0.02183 0.0
O49 O 0.64507 0.91315 0.00486 0.0
C50 C 0.9083 0.67983 0.95778 0.0
O51 O 0.66382 0.79487 0.03031 0.0
O52 O 0.80389 0.80159 0.01487 0.0
O53 O 0.77743 0.90325 0.97051 0.0
C54 C 0.63864 0.85799 0.03576 0.0
C55 C 0.88152 0.65252 0.10904 0.0
O56 O 0.8243 0.63232 0.10983 0.0
C57 C 0.72084 0.67037 -0.00016 0.0
C58 C 0.82009 0.86628 0.99289 0.0
O59 O 0.90686 0.67834 0.07418 0.0
C60 C 0.96935 0.66956 0.94304 0.0
C61 C 0.03391 0.65574 0.88677 0.0
C62 C 0.97611 0.66063 0.90301 0.0
C63 C 1.02056 0.67242 0.96737 0.0
C64 C 0.07876 0.66712 0.95135 0.0
C65 C 0.08461 0.66017 0.911 0.0
C66 C 0.63426 0.80895 0.89498 0.0
O67 O 0.66571 0.74667 0.90443 0.0
O68 O 0.88504 0.62289 0.98305 0.0
O69 O 0.89729 0.74572 0.96764 0.0
H70 H 0.5316 0.81296 0.00768 0.0
H71 H 0.43017 0.8154 0.11598 0.0
H72 H 0.61663 0.882 0.10975 0.0
H73 H 0.9364 0.65842 0.88443 0.0
H74 H 1.015 0.67951 -0.00174 0.0
H75 H 0.12933 0.66141 0.89776 0.0
C76 C 0.08268 0.69856 0.4429 0.0
C77 C 0.02806 0.70855 0.4632 0.0
C78 C 0.97341 0.72265 0.44146 0.0
C79 C 0.97457 0.72955 0.39958 0.0
C80 C 0.028 0.71913 0.37913 0.0
C81 C 0.08189 0.70365 0.40097 0.0
O82 O 0.20345 0.81612 0.52784 0.0
Tb83 Tb 0.20801 0.70024 0.51964 0.0
Tb84 Tb 0.32317 0.81717 0.4739 0.0
O85 O 0.16638 0.66924 0.57791 0.0
O86 O 0.23799 0.87902 0.46788 0.0
O87 O 0.13698 0.63754 0.50122 0.0
C88 C 0.38869 0.83865 0.53127 0.0
O89 O 0.18569 0.72347 0.45841 0.0
O90 O 0.32782 0.7018 0.46372 0.0
O91 O 0.29409 0.64125 0.52466 0.0
C92 C 0.14022 0.67527 0.46418 0.0
C93 C 0.34149 0.84249 0.38449 0.0
O94 O 0.28578 0.8164 0.38692 0.0
C95 C 0.19896 0.87214 0.49757 0.0
C96 C 0.33037 0.64482 0.49372 0.0
O97 O 0.36905 0.85215 0.41747 0.0
C98 C 0.44652 0.81556 0.55215 0.0
C99 C 0.50396 0.79981 0.61489 0.0
C100 C 0.44921 0.81424 0.59378 0.0
C101 C 0.49935 0.7999 0.53152 0.0
C102 C 0.55455 0.78439 0.55244 0.0
C103 C 0.55611 0.7866 0.59363 0.0
C104 C 0.19122 0.69535 0.60785 0.0
O105 O 0.24225 0.73318 0.60162 0.0
O106 O 0.39207 0.87941 0.49497 0.0
O107 O 0.34425 0.78901 0.53533 0.0
H108 H 0.02755 0.70221 0.49562 0.0
H109 H 0.93261 0.73961 0.38284 0.0
H110 H 0.12313 0.69379 0.38536 0.0
H111 H 0.40855 0.82537 0.60961 0.0
H112 H 0.49748 0.7999 0.49956 0.0
H113 H 0.59918 0.77986 0.60915 0.0
C114 C 0.58839 0.20668 0.44142 0.0
C115 C 0.53419 0.21194 0.46233 0.0
C116 C 0.47932 0.22157 0.44118 0.0
C117 C 0.47947 0.22929 0.39933 0.0
C118 C 0.53336 0.22505 0.37835 0.0
C119 C 0.58779 0.21252 0.39954 0.0
O120 O 0.74743 0.32795 0.51655 0.0
Tb121 Tb 0.70025 0.21979 0.52419 0.0
Tb122 Tb 0.8585 0.35572 0.47114 0.0
O123 O 0.64461 0.21186 0.57794 0.0
O124 O 0.77471 0.41941 0.46565 0.0
O125 O 0.6537 0.14614 0.49336 0.0
C126 C 0.91359 0.37961 0.53207 0.0
O127 O 0.67171 0.26375 0.46606 0.0
O128 O 0.81317 0.24695 0.47779 0.0
O129 O 0.78456 0.15717 0.52923 0.0
C130 C 0.64695 0.19978 0.46171 0.0
C131 C 0.90184 0.38112 0.38408 0.0
O132 O 0.85283 0.42295 0.3795 0.0
C133 C 0.73213 0.38842 0.49045 0.0
C134 C 0.82771 0.18857 0.50519 0.0
O135 O 0.91683 0.34721 0.42042 0.0
C136 C 0.97257 0.36673 0.55141 0.0
C137 C 0.03372 0.36205 0.61127 0.0
C138 C 0.97834 0.37628 0.59142 0.0
C139 C 0.02173 0.34078 0.53149 0.0
C140 C 0.07706 0.32522 0.55159 0.0
C141 C 0.0828 0.33742 0.59109 0.0
C142 C 0.66757 0.18159 0.61296 0.0
O143 O 0.72269 0.15406 0.61407 0.0
O144 O 0.91127 0.42897 0.49831 0.0
O145 O 0.88183 0.31854 0.53103 0.0
H146 H 0.53465 0.20771 0.49467 0.0
H147 H 0.43707 0.23765 0.38295 0.0
H148 H 0.62973 0.20882 0.38338 0.0
H149 H 0.93986 0.39449 0.60709 0.0
H150 H 1.0164 0.331 0.50102 0.0
H151 H 0.12565 0.3263 0.60666 0.0
C152 C 0.65542 0.32703 0.95289 0.0
C153 C 0.61888 0.26473 0.96826 0.0
C154 C 0.71431 0.33433 0.96746 0.0
C155 C 0.73773 0.27764 -0.00198 0.0
C156 C 0.70008 0.21626 0.01489 0.0
C157 C 0.64104 0.21067 -9e-05 0.0
C158 C 0.75214 0.40155 0.94919 0.0
C159 C 0.72277 0.15545 0.04809 0.0
C160 C 0.90934 0.25182 0.00867 0.0
C161 C 0.92205 0.28873 0.04079 0.0
C162 C 0.84974 0.24867 0.99403 0.0
C163 C 0.80161 0.28245 0.01223 0.0
C164 C 0.81464 0.32095 0.04411 0.0
C165 C 0.8745 0.32475 0.0574 0.0
C166 C 0.83815 0.20733 0.95981 0.0
C167 C 0.76555 0.35852 0.06439 0.0
H168 H 0.63834 0.36926 0.92859 0.0
H169 H 0.61329 0.16208 0.01166 0.0
H170 H 0.76697 0.43285 0.97284 0.0
H171 H 0.79351 0.38226 0.93548 0.0
H172 H 0.72713 0.44093 0.92585 0.0
H173 H 0.68733 0.11293 0.05902 0.0
H174 H 0.7619 0.12628 0.03721 0.0
H175 H 0.73884 0.18089 0.0737 0.0
H176 H 0.94563 0.22372 0.99572 0.0
H177 H 0.88401 0.35544 0.08143 0.0
H178 H 0.80755 0.24021 0.93724 0.0
H179 H 0.81565 0.15274 0.97149 0.0
H180 H 0.88072 0.19584 0.94461 0.0
H181 H 0.75179 0.41115 0.04429 0.0
H182 H 0.78108 0.37332 0.09319 0.0
H183 H 0.72504 0.32179 0.07034 0.0
C184 C 0.13979 0.73071 -0.00202 0.0
C185 C 0.13464 0.67434 0.97463 0.0
C186 C 0.19618 0.74822 0.01303 0.0
C187 C 0.24832 0.70847 0.0043 0.0
C188 C 0.24275 0.64849 0.98286 0.0
C189 C 0.1858 0.63144 0.96883 0.0
C190 C 0.20044 0.81139 0.03671 0.0
C191 C 0.29722 0.60553 0.97226 0.0
C192 C 0.39786 0.81161 0.00541 0.0
C193 C 0.42039 0.7791 0.04316 0.0
C194 C 0.34236 0.78772 0.99185 0.0
C195 C 0.30885 0.73076 0.01691 0.0
C196 C 0.33275 0.69571 0.05429 0.0
C197 C 0.38842 0.72008 0.06686 0.0
C198 C 0.31889 0.82456 0.9512 0.0
C199 C 0.29896 0.63356 0.08134 0.0
H200 H 0.10047 0.76372 0.00274 0.0
H201 H 0.18183 0.58656 0.95154 0.0
H202 H 0.22388 0.79156 0.06566 0.0
H203 H 0.22756 0.85841 0.01978 0.0
H204 H 0.15528 0.83354 0.04294 0.0
H205 H 0.28416 0.55105 0.9637 0.0
H206 H 0.32106 0.63994 0.94645 0.0
H207 H 0.32979 0.59441 0.99748 0.0
H208 H 0.42266 0.85715 0.9871 0.0
H209 H 0.40657 0.69385 0.09575 0.0
H210 H 0.27629 0.85514 0.95478 0.0
H211 H 0.30825 0.78098 0.93291 0.0
H212 H 0.35195 0.86499 0.93453 0.0
H213 H 0.32347 0.61319 0.10986 0.0
H214 H 0.29192 0.58519 0.06572 0.0
H215 H 0.2536 0.65388 0.08853 0.0
C216 C 0.65134 0.71186 0.55292 0.0
C217 C 0.61217 0.76741 0.53266 0.0
C218 C 0.70995 0.70218 0.5388 0.0
C219 C 0.7303 0.74854 0.5031 0.0
C220 C 0.69009 0.80217 0.48128 0.0
C221 C 0.63149 0.81108 0.49634 0.0
C222 C 0.75077 0.64377 0.56289 0.0
C223 C 0.70959 0.85161 0.44261 0.0
C224 C 0.90105 0.77524 0.48707 0.0
C225 C 0.9133 0.72459 0.46122 0.0
C226 C 0.84169 0.78351 0.50107 0.0
C227 C 0.79365 0.74039 0.48879 0.0
C228 C 0.8064 0.68779 0.46361 0.0
C229 C 0.86586 0.6803 0.45038 0.0
C230 C 0.83004 0.83965 0.52822 0.0
C231 C 0.75697 0.64038 0.44994 0.0
H232 H 0.6365 0.67676 0.58063 0.0
H233 H 0.60184 0.85431 0.48057 0.0
H234 H 0.76662 0.60337 0.54403 0.0
H235 H 0.79147 0.67161 0.57278 0.0
H236 H 0.72781 0.61163 0.58981 0.0
H237 H 0.67214 0.88759 0.4281 0.0
H238 H 0.74744 0.88854 0.4486 0.0
H239 H 0.72651 0.8164 0.42128 0.0
H240 H 0.93735 0.81014 0.49517 0.0
H241 H 0.8752 0.64058 0.43063 0.0
H242 H 0.80386 0.81303 0.55501 0.0
H243 H 0.80259 0.88699 0.51202 0.0
H244 H 0.8726 0.86282 0.53841 0.0
H245 H 0.73343 0.60738 0.47628 0.0
H246 H 0.77462 0.60081 0.43109 0.0
H247 H 0.72274 0.67742 0.43238 0.0
C248 C 0.14812 0.3298 0.49381 0.0
C249 C 0.12966 0.29588 0.53236 0.0
C250 C 0.20367 0.31061 0.47839 0.0
C251 C 0.24108 0.25656 0.50228 0.0
C252 C 0.22062 0.21851 0.54001 0.0
C253 C 0.16502 0.23853 0.55454 0.0
C254 C 0.22385 0.35112 0.4376 0.0
C255 C 0.25874 0.15933 0.56587 0.0
C256 C 0.37348 0.17773 0.45276 0.0
C257 C 0.42086 0.2237 0.46167 0.0
C258 C 0.31479 0.18675 0.46643 0.0
C259 C 0.30336 0.24359 0.48918 0.0
C260 C 0.3515 0.28854 0.49944 0.0
C261 C 0.41013 0.27731 0.48593 0.0
C262 C 0.26478 0.13786 0.45488 0.0
C263 C 0.34064 0.34972 0.52374 0.0
H264 H 0.12081 0.3741 0.47664 0.0
H265 H 0.14995 0.21084 0.58399 0.0
H266 H 0.26336 0.38755 0.44098 0.0
H267 H 0.23851 0.3099 0.41888 0.0
H268 H 0.18743 0.38682 0.42151 0.0
H269 H 0.23424 0.13129 0.59315 0.0
H270 H 0.27305 0.11572 0.54854 0.0
H271 H 0.3004 0.1858 0.57534 0.0
H272 H 0.38216 0.13602 0.43405 0.0
H273 H 0.44692 0.3128 0.49259 0.0
H274 H 0.23674 0.17174 0.43111 0.0
H275 H 0.23486 0.11749 0.48085 0.0
H276 H 0.28267 0.08844 0.44324 0.0
H277 H 0.30463 0.3885 0.50969 0.0
H278 H 0.38187 0.38348 0.52648 0.0
H279 H 0.32492 0.3241 0.55427 0.0
C280 C 0.60899 0.67492 0.98496 0.0
C281 C 0.66032 0.63403 0.00046 0.0
C282 C 0.5529 0.63907 0.98259 0.0
C283 C 0.54794 0.56046 0.99625 0.0
C284 C 0.59942 0.51881 0.0121 0.0
C285 C 0.65476 0.55622 0.01436 0.0
C286 C 0.49877 0.68505 0.96564 0.0
C287 C 0.59614 0.43461 0.02655 0.0
C288 C 0.39895 0.46473 0.02951 0.0
C289 C 0.38286 0.43388 0.99589 0.0
C290 C 0.45068 0.51 0.0291 0.0
C291 C 0.48868 0.52163 0.99489 0.0
C292 C 0.47191 0.49169 0.96051 0.0
C293 C 0.41846 0.44914 0.9612 0.0
C294 C 0.46595 0.54254 0.06594 0.0
C295 C 0.51219 0.50078 0.92395 0.0
H296 H 0.61242 0.73503 0.97475 0.0
H297 H 0.69414 0.52405 0.02616 0.0
H298 H 0.47898 0.66176 0.94037 0.0
H299 H 0.4632 0.68133 0.98898 0.0
H300 H 0.51032 0.74517 0.95472 0.0
H301 H 0.6416 0.40893 0.03222 0.0
H302 H 0.56979 0.42258 0.05485 0.0
H303 H 0.57251 0.40672 0.00427 0.0
H304 H 0.3713 0.45271 0.05635 0.0
H305 H 0.40656 0.42389 0.93551 0.0
H306 H 0.48079 0.60209 0.0575 0.0
H307 H 0.50392 0.51034 0.08219 0.0
H308 H 0.42687 0.53989 0.08678 0.0
H309 H 0.52172 0.56129 0.91271 0.0
H310 H 0.49178 0.47605 0.89927 0.0
H311 H 0.55624 0.47274 0.93217 0.0
C312 C 0.62688 0.38577 0.51689 0.0
C313 C 0.66961 0.41825 0.48851 0.0
C314 C 0.56866 0.41556 0.51799 0.0
C315 C 0.55313 0.48176 0.49062 0.0
C316 C 0.59632 0.5155 0.4619 0.0
C317 C 0.65358 0.48222 0.46058 0.0
C318 C 0.52592 0.3763 0.54984 0.0
C319 C 0.58324 0.58882 0.43394 0.0
C320 C 0.39203 0.54974 0.46718 0.0
C321 C 0.38315 0.59522 0.49601 0.0
C322 C 0.44615 0.50954 0.46605 0.0
C323 C 0.49334 0.5183 0.49328 0.0
C324 C 0.48395 0.56399 0.52269 0.0
C325 C 0.42844 0.60092 0.5241 0.0
C326 C 0.45249 0.46007 0.43475 0.0
C327 C 0.53304 0.57559 0.55198 0.0
H328 H 0.63931 0.33776 0.53914 0.0
H329 H 0.68641 0.50774 0.43852 0.0
H330 H 0.4799 0.40062 0.54797 0.0
H331 H 0.52262 0.31567 0.54775 0.0
H332 H 0.54484 0.37892 0.57993 0.0
H333 H 0.62281 0.60978 0.41493 0.0
H334 H 0.54476 0.58141 0.41401 0.0
H335 H 0.57007 0.63247 0.45162 0.0
H336 H 0.35682 0.5461 0.44528 0.0
H337 H 0.42152 0.63735 0.54593 0.0
H338 H 0.48856 0.41709 0.44199 0.0
H339 H 0.46313 0.49586 0.40537 0.0
H340 H 0.40903 0.43093 0.43111 0.0
H341 H 0.54008 0.5226 0.57377 0.0
H342 H 0.52156 0.62077 0.56905 0.0
H343 H 0.57643 0.59003 0.53592 0.0
C344 C 0.11599 0.09117 0.03532 0.0
C345 C 0.16459 0.08103 0.01041 0.0
C346 C 0.06146 0.05183 0.03352 0.0
C347 C 0.05617 0.99999 0.00679 0.0
C348 C 0.10674 0.98643 0.98334 0.0
C349 C 0.15998 0.02847 0.98482 0.0
C350 C 1.00869 0.06808 0.05893 0.0
C351 C 0.10424 0.93084 0.95497 0.0
C352 C 0.92247 0.86477 0.02443 0.0
C353 C 0.88218 0.8971 0.99427 0.0
C354 C 0.9796 0.89651 0.02863 0.0
C355 C 0.99686 0.96309 0.00207 0.0
C356 C 0.95642 0.996 0.97137 0.0
C357 C 0.89964 0.96253 0.96779 0.0
C358 C 1.01992 0.85807 0.06213 0.0
C359 C 0.97245 0.06786 0.94301 0.0
H360 H 0.11943 0.1332 0.05445 0.0
H361 H 0.19747 0.02173 0.96511 0.0
H362 H 0.96953 0.0883 0.03941 0.0
H363 H 0.99448 0.0155 0.07912 0.0
H364 H 1.01979 0.11118 0.07749 0.0
H365 H 0.14946 0.90551 0.95203 0.0
H366 H 0.07118 0.88492 0.96476 0.0
H367 H 0.09062 0.96086 0.92478 0.0
H368 H 0.90875 0.81566 0.04572 0.0
H369 H 0.86847 0.98852 0.9447 0.0
H370 H 0.99469 0.84998 0.09094 0.0
H371 H 0.06219 0.88923 0.06574 0.0
H372 H 0.03196 0.80117 0.05648 0.0
H373 H 0.98206 0.11326 0.96033 0.0
H374 H 0.93571 0.08688 0.92116 0.0
H375 H 1.01407 0.05945 0.92608 0.0
C376 C 0.89404 0.10902 0.47195 0.0
C377 C 0.8856 0.15026 0.5027 0.0
C378 C 0.94728 0.06796 0.46969 0.0
C379 C 0.99408 0.07118 0.49791 0.0
C380 C 0.98631 0.11499 0.52832 0.0
C381 C 0.93135 0.15276 0.53094 0.0
C382 C 0.95218 0.01817 0.43843 0.0
C383 C 0.03495 0.11961 0.55901 0.0
C384 C 0.09891 0.90375 0.52331 0.0
C385 C 0.14784 0.925 0.49735 0.0
C386 C 0.04871 0.9506 0.52362 0.0
C387 C 0.04795 0.02197 0.49815 0.0
C388 C 0.09757 0.04458 0.47219 0.0
C389 C 0.1466 0.99506 0.47161 0.0
C390 C 0.9973 0.92275 0.55187 0.0
C391 C 0.09998 0.12174 0.44602 0.0
H392 H 0.85793 0.10675 0.45049 0.0
H393 H 0.9242 0.1838 0.5551 0.0
H394 H 0.99273 0.03375 0.41944 0.0
H395 H 0.9577 0.95856 0.45348 0.0
H396 H 0.91169 0.02215 0.41871 0.0
H397 H 0.02815 0.16851 0.5743 0.0
H398 H 0.03403 0.06763 0.58214 0.0
H399 H 0.08035 0.12377 0.54481 0.0
H400 H 0.09907 0.84939 0.54317 0.0
H401 H 0.18417 0.01148 0.4514 0.0
H402 H 0.95344 0.94934 0.54185 0.0
H403 H 1.00779 0.9356 0.58196 0.0
H404 H 0.99215 0.86061 0.55534 0.0
H405 H 0.13359 0.12416 0.42146 0.0
H406 H 0.11312 0.16366 0.4648 0.0
H407 H 0.05531 0.13887 0.4325 0.0
C408 C 0.50067 0.29025 0.31088 0.0
C409 C 0.53063 0.22972 0.33454 0.0
C410 C 0.48364 0.2869 0.27144 0.0
C411 C 0.49601 0.22084 0.25582 0.0
C412 C 0.53173 0.16297 0.27828 0.0
C413 C 0.54869 0.16815 0.31758 0.0
C414 C 0.4479 0.35129 0.24786 0.0
C415 C 0.54661 0.09177 0.26299 0.0
C416 C 0.37038 0.17185 0.18892 0.0
C417 C 0.39647 0.19069 0.1508 0.0
C418 C 0.40341 0.17872 0.2234 0.0
C419 C 0.46323 0.20763 0.21948 0.0
C420 C 0.48986 0.22675 0.18104 0.0
C421 C 0.45638 0.21707 0.14712 0.0
C422 C 0.37424 0.15489 0.26405 0.0
C423 C 0.55292 0.25934 0.1757 0.0
H424 H 0.48742 0.33828 0.32409 0.0
H425 H 0.57175 0.12127 0.33604 0.0
H426 H 0.46354 0.36403 0.21624 0.0
H427 H 0.39942 0.33519 0.24763 0.0
H428 H 0.45164 0.40321 0.26107 0.0
H429 H 0.58895 0.06583 0.27676 0.0
H430 H 0.5093 0.05106 0.2716 0.0
H431 H 0.55137 0.10148 0.2299 0.0
H432 H 0.32428 0.15094 0.19186 0.0
H433 H 0.47652 0.23251 0.11761 0.0
H434 H 0.36792 0.20474 0.27859 0.0
H435 H 0.40406 0.11476 0.28379 0.0
H436 H 0.32949 0.12764 0.26202 0.0
H437 H 0.55457 0.31356 0.18681 0.0
H438 H 0.56767 0.26947 0.14382 0.0
H439 H 0.58571 0.22081 0.19374 0.0
C440 C 0.52657 0.79959 0.18951 0.0
C441 C 0.51768 0.8612 0.15858 0.0
C442 C 0.50469 0.80085 0.22821 0.0
C443 C 0.47338 0.86537 0.23573 0.0
C444 C 0.468 0.9295 0.2049 0.0
C445 C 0.49029 0.92652 0.16659 0.0
C446 C 0.51027 0.73084 0.25997 0.0
C447 C 0.43436 0.99943 0.21046 0.0
C448 C 0.34584 0.83826 0.31145 0.0
C449 C 0.37464 0.85293 0.34607 0.0
C450 C 0.37777 0.84204 0.27547 0.0
C451 C 0.43988 0.86198 0.27392 0.0
C452 C 0.46906 0.87813 0.30863 0.0
C453 C 0.43602 0.87323 0.34434 0.0
C454 C 0.34518 0.8233 0.23927 0.0
C455 C 0.53546 0.89786 0.30918 0.0
H456 H 0.5467 0.74858 0.18266 0.0
H457 H 0.48247 0.97345 0.14219 0.0
H458 H 0.53214 0.74476 0.28719 0.0
H459 H 0.4645 0.70823 0.26877 0.0
H460 H 0.53708 0.68606 0.2495 0.0
H461 H 0.46117 0.04984 0.19722 0.0
H462 H 0.39098 1.00239 0.19371 0.0
H463 H 0.42435 1.00184 0.24224 0.0
H464 H 0.29845 0.82239 0.31259 0.0
H465 H 0.45881 0.88408 0.37108 0.0
H466 H 0.37059 0.77977 0.22675 0.0
H467 H 0.34256 0.8743 0.21553 0.0
H468 H 0.29845 0.80235 0.24647 0.0
H469 H 0.56124 0.84676 0.3226 0.0
H470 H 0.54343 0.94077 0.3284 0.0
H471 H 0.55396 0.91922 0.27884 0.0
C472 C 0.54862 0.75135 0.68271 0.0
C473 C 0.5087 0.80086 0.65881 0.0
C474 C 0.56122 0.75828 0.72242 0.0
C475 C 0.53106 0.8139 0.73967 0.0
C476 C 0.48745 0.86067 0.71672 0.0
C477 C 0.47744 0.85432 0.67642 0.0
C478 C 0.60906 0.70809 0.74526 0.0
C479 C 0.45283 0.92001 0.73343 0.0
C480 C 0.55138 0.77344 0.85253 0.0
C481 C 0.59948 0.82155 0.85737 0.0
C482 C 0.52434 0.7757 0.81481 0.0
C483 C 0.54832 0.82434 0.7809 0.0
C484 C 0.59491 0.87587 0.78617 0.0
C485 C 0.61942 0.87454 0.82461 0.0
C486 C 0.47199 0.72368 0.81092 0.0
C487 C 0.62172 0.92857 0.75082 0.0
H488 H 0.57162 0.70815 0.66996 0.0
H489 H 0.44666 0.89326 0.65842 0.0
H490 H 0.64547 0.74316 0.75511 0.0
H491 H 0.58919 0.67362 0.77259 0.0
H492 H 0.62978 0.66948 0.72698 0.0
H493 H 0.40468 0.92018 0.72395 0.0
H494 H 0.4546 0.91224 0.76664 0.0
H495 H 0.47185 0.97611 0.7206 0.0
H496 H 0.53604 0.73259 0.87803 0.0
H497 H 0.65692 0.91141 0.82854 0.0
H498 H 0.48734 0.67716 0.79596 0.0
H499 H 0.43584 0.75469 0.79201 0.0
H500 H 0.45257 0.69869 0.8406 0.0
H501 H 0.65694 0.96602 0.76002 0.0
H502 H 0.58565 0.96395 0.73423 0.0
H503 H 0.64241 0.89536 0.72974 0.0
C504 C 0.49937 0.16944 0.8257 0.0
C505 C 0.51937 0.23266 0.84087 0.0
C506 C 0.51457 0.15992 0.7866 0.0
C507 C 0.55096 0.21465 0.76218 0.0
C508 C 0.56798 0.28079 0.7765 0.0
C509 C 0.55179 0.28909 0.81553 0.0
C510 C 0.49492 0.0889 0.77255 0.0
C511 C 0.60659 0.34077 0.75155 0.0
C512 C 0.66155 0.15509 0.68797 0.0
C513 C 0.63444 0.1839 0.65092 0.0
C514 C 0.63376 0.16257 0.7243 0.0
C515 C 0.57715 0.19945 0.72378 0.0
C516 C 0.54823 0.22581 0.68657 0.0
C517 C 0.57728 0.21789 0.65056 0.0
C518 C 0.66626 0.13358 0.76325 0.0
C519 C 0.48739 0.26415 0.68475 0.0
H520 H 0.47469 0.12527 0.84513 0.0
H521 H 0.56656 0.33868 0.82684 0.0
H522 H 0.48109 0.10114 0.74057 0.0
H523 H 0.53345 0.04898 0.77532 0.0
H524 H 0.45677 0.06074 0.79072 0.0
H525 H 0.61135 0.39172 0.7655 0.0
H526 H 0.6524 0.3178 0.74788 0.0
H527 H 0.58696 0.35774 0.72114 0.0
H528 H 0.70547 0.12823 0.68867 0.0
H529 H 0.5557 0.23971 0.62213 0.0
H530 H 0.6363 0.09528 0.78391 0.0
H531 H 0.6781 0.1815 0.77827 0.0
H532 H 0.70845 0.10281 0.75867 0.0
H533 H 0.45457 0.22824 0.70438 0.0
H534 H 0.46892 0.2765 0.65376 0.0
H535 H 0.4915 0.31791 0.69611 0.0
C536 C 0.99208 0.771 0.30961 0.0
C537 C 0.02459 0.71602 0.33569 0.0
C538 C 0.97745 0.76101 0.27058 0.0
C539 C 0.99552 0.69421 0.25739 0.0
C540 C 0.03183 0.64101 0.28271 0.0
C541 C 0.04612 0.65263 0.32155 0.0
C542 C 0.93917 0.81962 0.24451 0.0
C543 C 0.05242 0.56961 0.26971 0.0
C544 C 0.8862 0.62921 0.18407 0.0
C545 C 0.91434 0.65507 0.14704 0.0
C546 C 0.91338 0.6392 0.22021 0.0
C547 C 0.97011 0.67618 0.21941 0.0
C548 C 1.00006 0.69944 0.18229 0.0
C549 C 0.97192 0.68824 0.14655 0.0
C550 C 0.88009 0.61295 0.25917 0.0
C551 C 0.0605 0.73908 0.18007 0.0
H552 H 0.97578 0.82039 0.32041 0.0
H553 H 0.07084 0.6097 0.34172 0.0
H554 H 0.95882 0.83427 0.21397 0.0
H555 H 0.89321 0.79644 0.24138 0.0
H556 H 0.93476 0.87195 0.25727 0.0
H557 H 0.08376 0.53641 0.29172 0.0
H558 H 1.01258 0.53403 0.26594 0.0
H559 H 0.07553 0.58336 0.24025 0.0
H560 H 0.842 0.60284 0.18485 0.0
H561 H 0.9943 0.70764 0.11813 0.0
H562 H 0.86666 0.66246 0.27241 0.0
H563 H 0.91009 0.57754 0.28112 0.0
H564 H 0.83873 0.58008 0.25504 0.0
H565 H 0.05481 0.79548 0.18831 0.0
H566 H 0.08061 0.74661 0.14955 0.0
H567 H 0.09272 0.70713 0.20182 0.0
C568 C 0.91739 0.40034 0.30975 0.0
C569 C 0.93628 0.36718 0.34843 0.0
C570 C 0.94561 0.38275 0.27549 0.0
C571 C 0.99413 0.33064 0.27984 0.0
C572 C 1.0155 0.29982 0.31875 0.0
C573 C 0.98615 0.31815 0.35262 0.0
C574 C 0.9226 0.41885 0.23453 0.0
C575 C 0.06866 0.24659 0.32456 0.0
C576 C 1.00379 0.23215 0.19036 0.0
C577 C 0.0432 0.27993 0.16495 0.0
C578 C 0.99081 0.24463 0.2292 0.0
C579 C 1.01899 0.30529 0.24348 0.0
C580 C 0.06419 0.34784 0.21975 0.0
C581 C 0.07526 0.33523 0.18065 0.0
C582 C 0.94289 0.19698 0.25349 0.0
C583 C 0.09788 0.41111 0.23359 0.0
H584 H 0.87938 0.43886 0.30612 0.0
H585 H 1.00158 0.29282 0.38237 0.0
H586 H 0.95934 0.45247 0.21751 0.0
H587 H 0.90887 0.37477 0.21728 0.0
H588 H 0.8833 0.45639 0.23626 0.0
H589 H 0.08287 0.23225 0.35649 0.0
H590 H 0.05674 0.1937 0.31395 0.0
H591 H 0.10764 0.27216 0.30633 0.0
H592 H 0.98019 0.18763 0.17898 0.0
H593 H 0.10603 0.37254 0.16158 0.0
H594 H 0.90159 0.23141 0.25479 0.0
H595 H 0.95854 0.17769 0.28476 0.0
H596 H 0.93053 0.14685 0.24035 0.0
H597 H 0.07993 0.46535 0.21717 0.0
H598 H 0.14658 0.40901 0.22574 0.0
H599 H 0.09399 0.40976 0.26633 0.0
C600 C 0.10798 0.35916 0.84396 0.0
C601 C 0.15843 0.31158 0.85113 0.0
C602 C 0.07749 0.36929 0.80705 0.0
C603 C 0.09839 0.3311 0.7766 0.0
C604 C 0.14697 0.27947 0.78469 0.0
C605 C 0.17683 0.27105 0.82165 0.0
C606 C 0.02386 0.42187 0.80143 0.0
C607 C 0.16849 0.23422 0.75396 0.0
C608 C 1.00577 0.32302 0.68322 0.0
C609 C 0.04114 0.36766 0.65385 0.0
C610 C 0.02217 0.31323 0.72388 0.0
C611 C 0.07457 0.34989 0.73507 0.0
C612 C 0.10819 0.39856 0.70545 0.0
C613 C 0.0907 0.40718 0.66528 0.0
C614 C 0.98647 0.25904 0.75434 0.0
C615 C 0.16572 0.43726 0.71477 0.0
H616 H 0.09272 0.38971 0.8669 0.0
H617 H 0.21492 0.2328 0.8273 0.0
H618 H 0.99935 0.42282 0.77283 0.0
H619 H 0.99153 0.40542 0.82659 0.0
H620 H 0.03919 0.47979 0.8028 0.0
H621 H 0.19772 0.18633 0.76758 0.0
H622 H 0.12949 0.21176 0.73909 0.0
H623 H 0.1951 0.27109 0.73047 0.0
H624 H 0.96794 0.29161 0.67412 0.0
H625 H 0.11805 0.44164 0.6424 0.0
H626 H 0.97063 0.28767 0.77879 0.0
H627 H 1.01603 0.21168 0.76814 0.0
H628 H 0.94655 0.23563 0.74081 0.0
H629 H 0.16672 0.49614 0.69808 0.0
H630 H 0.20499 0.40796 0.70417 0.0
H631 H 0.17182 0.43761 0.74714 0.0
C632 C 0.17918 0.73245 0.67461 0.0
C633 C 0.16023 0.68821 0.64686 0.0
C634 C 0.1507 0.72684 0.71189 0.0
C635 C 0.10269 0.6749 0.7219 0.0
C636 C 0.08251 0.63108 0.69374 0.0
C637 C 0.11132 0.63864 0.65632 0.0
C638 C 0.17343 0.77466 0.74112 0.0
C639 C 0.03279 0.57349 0.70395 0.0
C640 C 0.09014 0.60579 0.83364 0.0
C641 C 0.04322 0.65074 0.84402 0.0
C642 C 0.10898 0.61166 0.79389 0.0
C643 C 0.07829 0.66138 0.76331 0.0
C644 C 0.02805 0.70317 0.7732 0.0
C645 C 1.0112 0.69761 0.8136 0.0
C646 C 0.16467 0.56814 0.78609 0.0
C647 C 0.99525 0.75824 0.74157 0.0
H648 H 0.21649 0.7716 0.66726 0.0
H649 H 0.09656 0.6043 0.63493 0.0
H650 H 0.13506 0.80287 0.75349 0.0
H651 H 0.19621 0.73813 0.76666 0.0
H652 H 0.20614 0.81837 0.72705 0.0
H653 H 1.01914 0.54798 0.67779 0.0
H654 H 0.04891 0.52815 0.72811 0.0
H655 H 0.99247 0.59914 0.71555 0.0
H656 H 0.11442 0.56835 0.85697 0.0
H657 H 0.97536 0.73321 0.82149 0.0
H658 H 0.20479 0.59353 0.79827 0.0
H659 H 0.17282 0.56794 0.75391 0.0
H660 H 0.16132 0.50908 0.80237 0.0
H661 H 0.02541 0.80681 0.7305 0.0
H662 H 0.95315 0.77983 0.75337 0.0
H663 H 0.98356 0.73163 0.71549 0.0
loop_
_geom_bond_atom_site_label_1
_geom_bond_atom_site_label_2
_geom_bond_distance
_geom_bond_site_symmetry_2
_ccdc_geom_bond_type
C0 C1 1.386 . S
C0 C5 1.384 . S
C0 C16 1.497 . S
C1 C0 1.386 . S
C1 C2 1.393 1_455 S
C1 H32 0.932 1_455 S
C2 C1 1.393 1_655 S
C2 C3 1.387 . S
C3 C2 1.387 . S
C3 C4 1.392 1_655 S
C3 H33 0.930 . S
C4 C3 1.392 1_455 S
C4 C5 1.402 . S
C5 C0 1.384 . S
C5 C4 1.402 . S
C5 H34 0.930 . S
O6 Tb7 2.288 . S
O6 C19 1.253 1_556 S
Tb7 O6 2.288 . S
Tb7 O9 2.303 . S
Tb7 O11 2.430 . S
Tb7 O13 2.459 1_556 S
Tb7 O15 2.301 . S
Tb7 C16 2.808 1_556 S
Tb8 O10 2.301 . S
Tb8 C12 2.808 1_554 S
Tb8 O14 2.288 . S
Tb8 O21 2.303 . S
Tb8 O30 2.430 . S
Tb8 O31 2.459 1_554 S
O9 Tb7 2.303 . S
O9 C28 1.255 . S
O10 Tb8 2.301 . S
O10 C19 1.243 . S
O11 Tb7 2.430 . S
O11 C16 1.248 1_556 S
C12 Tb8 2.808 1_556 S
C12 C22 1.497 . S
C12 O30 1.248 1_556 S
C12 O31 1.260 . S
O13 Tb7 2.459 1_554 S
O13 C16 1.260 . S
O14 Tb8 2.288 . S
O14 C20 1.257 . S
O15 Tb7 2.301 . S
O15 C20 1.237 1_556 S
C16 C0 1.497 . S
C16 Tb7 2.808 1_554 S
C16 O11 1.248 1_554 S
C16 O13 1.260 . S
C17 O18 1.255 . S
C17 O21 1.255 . S
O18 C17 1.255 . S
C19 O6 1.253 1_554 S
C19 O10 1.243 . S
C20 O14 1.257 . S
C20 O15 1.237 1_554 S
O21 Tb8 2.303 . S
O21 C17 1.255 . S
C22 C12 1.497 . S
C22 C24 1.384 . S
C22 C25 1.386 . S
C23 C24 1.402 . S
C23 C27 1.392 . S
C24 C22 1.384 . S
C24 C23 1.402 . S
C24 H35 0.930 . S
C25 C22 1.386 . S
C25 C26 1.393 . S
C25 H36 0.932 . S
C26 C25 1.393 . S
C26 C27 1.387 . S
C27 C23 1.392 . S
C27 C26 1.387 . S
C27 H37 0.930 . S
C28 O9 1.255 . S
C28 O29 1.255 . S
O29 C28 1.255 . S
O30 Tb8 2.430 . S
O30 C12 1.248 1_554 S
O31 Tb8 2.459 1_556 S
O31 C12 1.260 . S
H32 C1 0.932 1_655 S
H33 C3 0.930 . S
H34 C5 0.930 . S
H35 C24 0.930 . S
H36 C25 0.932 . S
H37 C27 0.930 . S
C38 C39 1.386 . S
C38 C43 1.384 . S
C38 C54 1.497 . S
C39 C38 1.386 . S
C39 C40 1.393 . S
C39 H70 0.932 . S
C40 C39 1.393 . S
C40 C41 1.387 . S
C41 C40 1.387 . S
C41 C42 1.392 . S
C41 H71 0.930 . S
C42 C41 1.392 . S
C42 C43 1.402 . S
C43 C38 1.384 . S
C43 C42 1.402 . S
C43 H72 0.930 . S
O44 Tb45 2.288 . S
O44 C57 1.253 1_556 S
Tb45 O44 2.288 . S
Tb45 O47 2.303 . S
Tb45 O49 2.430 . S
Tb45 O51 2.459 1_556 S
Tb45 O53 2.301 . S
Tb45 C54 2.808 1_556 S
Tb46 O48 2.301 . S
Tb46 C50 2.808 1_554 S
Tb46 O52 2.288 . S
Tb46 O59 2.303 . S
Tb46 O68 2.430 . S
Tb46 O69 2.459 1_554 S
O47 Tb45 2.303 . S
O47 C66 1.255 . S
O48 Tb46 2.301 . S
O48 C57 1.243 . S
O49 Tb45 2.430 . S
O49 C54 1.248 1_556 S
C50 Tb46 2.808 1_556 S
C50 C60 1.497 . S
C50 O68 1.248 1_556 S
C50 O69 1.260 . S
O51 Tb45 2.459 1_554 S
O51 C54 1.260 . S
O52 Tb46 2.288 . S
O52 C58 1.257 . S
O53 Tb45 2.301 . S
O53 C58 1.237 1_556 S
C54 C38 1.497 . S
C54 Tb45 2.808 1_554 S
C54 O49 1.248 1_554 S
C54 O51 1.260 . S
C55 O56 1.255 . S
C55 O59 1.255 . S
O56 C55 1.255 . S
C57 O44 1.253 1_554 S
C57 O48 1.243 . S
C58 O52 1.257 . S
C58 O53 1.237 1_554 S
O59 Tb46 2.303 . S
O59 C55 1.255 . S
C60 C50 1.497 . S
C60 C62 1.384 . S
C60 C63 1.386 . S
C61 C62 1.402 . S
C61 C65 1.392 1_655 S
C62 C60 1.384 . S
C62 C61 1.402 . S
C62 H73 0.930 . S
C63 C60 1.386 . S
C63 C64 1.393 1_655 S
C63 H74 0.932 1_655 S
C64 C63 1.393 1_455 S
C64 C65 1.387 . S
C65 C61 1.392 1_455 S
C65 C64 1.387 . S
C65 H75 0.930 . S
C66 O47 1.255 . S
C66 O67 1.255 . S
O67 C66 1.255 . S
O68 Tb46 2.430 . S
O68 C50 1.248 1_554 S
O69 Tb46 2.459 1_556 S
O69 C50 1.260 . S
H70 C39 0.932 . S
H71 C41 0.930 . S
H72 C43 0.930 . S
H73 C62 0.930 . S
H74 C63 0.932 1_455 S
H75 C65 0.930 . S
C76 C77 1.386 . S
C76 C81 1.384 . S
C76 C92 1.497 . S
C77 C76 1.386 . S
C77 C78 1.393 1_455 S
C77 H108 0.932 1_455 S
C78 C77 1.393 1_655 S
C78 C79 1.387 . S
C79 C78 1.387 . S
C79 C80 1.392 1_655 S
C79 H109 0.930 . S
C80 C79 1.392 1_455 S
C80 C81 1.402 . S
C81 C76 1.384 . S
C81 C80 1.402 . S
C81 H110 0.930 . S
O82 Tb83 2.288 . S
O82 C95 1.257 . S
Tb83 O82 2.288 . S
Tb83 O85 2.303 . S
Tb83 O87 2.430 . S
Tb83 O89 2.459 . S
Tb83 O91 2.301 . S
Tb83 C92 2.808 . S
Tb84 O86 2.301 . S
Tb84 C88 2.808 . S
Tb84 O90 2.288 . S
Tb84 O97 2.303 . S
Tb84 O106 2.430 . S
Tb84 O107 2.459 . S
O85 Tb83 2.303 . S
O85 C104 1.255 . S
O86 Tb84 2.301 . S
O86 C95 1.237 . S
O87 Tb83 2.430 . S
O87 C92 1.248 . S
C88 Tb84 2.808 . S
C88 C98 1.497 . S
C88 O106 1.248 . S
C88 O107 1.260 . S
O89 Tb83 2.459 . S
O89 C92 1.260 . S
O90 Tb84 2.288 . S
O90 C96 1.257 . S
O91 Tb83 2.301 . S
O91 C96 1.237 . S
C92 C76 1.497 . S
C92 Tb83 2.808 . S
C92 O87 1.248 . S
C92 O89 1.260 . S
C93 O94 1.255 . S
C93 O97 1.255 . S
O94 C93 1.255 . S
C95 O82 1.257 . S
C95 O86 1.237 . S
C96 O90 1.257 . S
C96 O91 1.237 . S
O97 Tb84 2.303 . S
O97 C93 1.255 . S
C98 C88 1.497 . S
C98 C100 1.384 . S
C98 C101 1.386 . S
C99 C100 1.402 . S
C99 C103 1.392 . S
C100 C98 1.384 . S
C100 C99 1.402 . S
C100 H111 0.930 . S
C101 C98 1.386 . S
C101 C102 1.393 . S
C101 H112 0.932 . S
C102 C101 1.393 . S
C102 C103 1.387 . S
C103 C99 1.392 . S
C103 C102 1.387 . S
C103 H113 0.930 . S
C104 O85 1.255 . S
C104 O105 1.255 . S
O105 C104 1.255 . S
O106 Tb84 2.430 . S
O106 C88 1.248 . S
O107 Tb84 2.459 . S
O107 C88 1.260 . S
H108 C77 0.932 1_655 S
H109 C79 0.930 . S
H110 C81 0.930 . S
H111 C100 0.930 . S
H112 C101 0.932 . S
H113 C103 0.930 . S
C114 C115 1.386 . S
C114 C119 1.384 . S
C114 C130 1.497 . S
C115 C114 1.386 . S
C115 C116 1.393 . S
C115 H146 0.932 . S
C116 C115 1.393 . S
C116 C117 1.387 . S
C117 C116 1.387 . S
C117 C118 1.392 . S
C117 H147 0.930 . S
C118 C117 1.392 . S
C118 C119 1.402 . S
C119 C114 1.384 . S
C119 C118 1.402 . S
C119 H148 0.930 . S
O120 Tb121 2.288 . S
O120 C133 1.257 . S
Tb121 O120 2.288 . S
Tb121 O123 2.303 . S
Tb121 O125 2.430 . S
Tb121 O127 2.459 . S
Tb121 O129 2.301 . S
Tb121 C130 2.808 . S
Tb122 O124 2.301 . S
Tb122 C126 2.808 . S
Tb122 O128 2.288 . S
Tb122 O135 2.303 . S
Tb122 O144 2.430 . S
Tb122 O145 2.459 . S
O123 Tb121 2.303 . S
O123 C142 1.255 . S
O124 Tb122 2.301 . S
O124 C133 1.237 . S
O125 Tb121 2.430 . S
O125 C130 1.248 . S
C126 Tb122 2.808 . S
C126 C136 1.497 . S
C126 O144 1.248 . S
C126 O145 1.260 . S
O127 Tb121 2.459 . S
O127 C130 1.260 . S
O128 Tb122 2.288 . S
O128 C134 1.257 . S
O129 Tb121 2.301 . S
O129 C134 1.237 . S
C130 C114 1.497 . S
C130 Tb121 2.808 . S
C130 O125 1.248 . S
C130 O127 1.260 . S
C131 O132 1.255 . S
C131 O135 1.255 . S
O132 C131 1.255 . S
C133 O120 1.257 . S
C133 O124 1.237 . S
C134 O128 1.257 . S
C134 O129 1.237 . S
O135 Tb122 2.303 . S
O135 C131 1.255 . S
C136 C126 1.497 . S
C136 C138 1.384 . S
C136 C139 1.386 . S
C137 C138 1.402 . S
C137 C141 1.392 1_655 S
C138 C136 1.384 . S
C138 C137 1.402 . S
C138 H149 0.930 . S
C139 C136 1.386 . S
C139 C140 1.393 1_655 S
C139 H150 0.932 1_655 S
C140 C139 1.393 1_455 S
C140 C141 1.387 . S
C141 C137 1.392 1_455 S
C141 C140 1.387 . S
C141 H151 0.930 . S
C142 O123 1.255 . S
C142 O143 1.255 . S
O143 C142 1.255 . S
O144 Tb122 2.430 . S
O144 C126 1.248 . S
O145 Tb122 2.459 . S
O145 C126 1.260 . S
H146 C115 0.932 . S
H147 C117 0.930 . S
H148 C119 0.930 . S
H149 C138 0.930 . S
H150 C139 0.932 1_455 S
H151 C141 0.930 . S
C152 C153 1.391 . S
C152 C154 1.394 . S
C152 H168 0.931 . S
C153 C152 1.391 . S
C153 C157 1.376 . S
C154 C152 1.394 . S
C154 C155 1.381 . S
C154 C158 1.531 . S
C155 C154 1.381 . S
C155 C156 1.410 1_556 S
C155 C163 1.493 1_556 S
C156 C155 1.410 1_554 S
C156 C157 1.392 1_554 S
C156 C159 1.511 . S
C157 C153 1.376 . S
C157 C156 1.392 1_556 S
C157 H169 0.929 . S
C158 C154 1.531 . S
C158 H170 0.960 . S
C158 H171 0.962 . S
C158 H172 0.960 . S
C159 C156 1.511 . S
C159 H173 0.961 . S
C159 H174 0.961 . S
C159 H175 0.961 . S
C160 C161 1.370 . S
C160 C162 1.363 1_554 S
C160 H176 0.931 1_554 S
C161 C160 1.370 . S
C161 C165 1.408 . S
C162 C160 1.363 1_556 S
C162 C163 1.370 1_556 S
C162 C166 1.524 . S
C163 C155 1.493 1_554 S
C163 C162 1.370 1_554 S
C163 C164 1.403 . S
C164 C163 1.403 . S
C164 C165 1.404 . S
C164 C167 1.539 . S
C165 C161 1.408 . S
C165 C164 1.404 . S
C165 H177 0.930 . S
C166 C162 1.524 . S
C166 H178 0.956 . S
C166 H179 0.961 . S
C166 H180 0.961 . S
C167 C164 1.539 . S
C167 H181 0.958 . S
C167 H182 0.961 . S
C167 H183 0.960 . S
H168 C152 0.931 . S
H169 C157 0.929 . S
H170 C158 0.960 . S
H171 C158 0.962 . S
H172 C158 0.960 . S
H173 C159 0.961 . S
H174 C159 0.961 . S
H175 C159 0.961 . S
H176 C160 0.931 1_556 S
H177 C165 0.930 . S
H178 C166 0.956 . S
H179 C166 0.961 . S
H180 C166 0.961 . S
H181 C167 0.958 . S
H182 C167 0.961 . S
H183 C167 0.960 . S
C184 C185 1.391 . S
C184 C186 1.394 1_556 S
C184 H200 0.931 1_556 S
C185 C184 1.391 . S
C185 C189 1.376 . S
C186 C184 1.394 1_554 S
C186 C187 1.369 1_554 S
C186 C190 1.531 . S
C187 C186 1.369 1_556 S
C187 C188 1.410 . S
C187 C195 1.503 1_556 S
C188 C187 1.410 . S
C188 C189 1.392 . S
C188 C191 1.511 . S
C189 C185 1.376 . S
C189 C188 1.392 . S
C189 H201 0.929 . S
C190 C186 1.531 . S
C190 H202 0.960 . S
C190 H203 0.962 . S
C190 H204 0.960 . S
C191 C188 1.511 . S
C191 H205 0.961 . S
C191 H206 0.961 . S
C191 H207 0.961 . S
C192 C193 1.370 . S
C192 C194 1.363 . S
C192 H208 0.931 . S
C193 C192 1.370 . S
C193 C197 1.408 . S
C194 C192 1.363 . S
C194 C195 1.370 . S
C194 C198 1.524 . S
C195 C187 1.503 1_554 S
C195 C194 1.370 . S
C195 C196 1.403 . S
C196 C195 1.403 . S
C196 C197 1.404 . S
C196 C199 1.539 . S
C197 C193 1.408 . S
C197 C196 1.404 . S
C197 H209 0.930 . S
C198 C194 1.524 . S
C198 H210 0.956 . S
C198 H211 0.961 1_554 S
C198 H212 0.961 . S
C199 C196 1.539 . S
C199 H213 0.958 . S
C199 H214 0.961 . S
C199 H215 0.960 1_554 S
H200 C184 0.931 1_554 S
H201 C189 0.929 . S
H202 C190 0.960 . S
H203 C190 0.962 . S
H204 C190 0.960 . S
H205 C191 0.961 . S
H206 C191 0.961 . S
H207 C191 0.961 . S
H208 C192 0.931 . S
H209 C197 0.930 . S
H210 C198 0.956 . S
H211 C198 0.961 1_556 S
H212 C198 0.961 . S
H213 C199 0.958 . S
H214 C199 0.961 . S
H215 C199 0.960 1_556 S
C216 C217 1.391 . S
C216 C218 1.394 . S
C216 H232 0.931 . S
C217 C216 1.391 . S
C217 C221 1.376 . S
C218 C216 1.394 . S
C218 C219 1.369 . S
C218 C222 1.531 . S
C219 C218 1.369 . S
C219 C220 1.410 . S
C219 C227 1.503 . S
C220 C219 1.410 . S
C220 C221 1.392 . S
C220 C223 1.511 . S
C221 C217 1.376 . S
C221 C220 1.392 . S
C221 H233 0.929 . S
C222 C218 1.531 . S
C222 H234 0.960 . S
C222 H235 0.962 . S
C222 H236 0.960 . S
C223 C220 1.511 . S
C223 H237 0.961 . S
C223 H238 0.961 . S
C223 H239 0.961 . S
C224 C225 1.370 . S
C224 C226 1.363 . S
C224 H240 0.931 . S
C225 C224 1.370 . S
C225 C229 1.408 . S
C226 C224 1.363 . S
C226 C227 1.370 . S
C226 C230 1.524 . S
C227 C219 1.503 . S
C227 C226 1.370 . S
C227 C228 1.403 . S
C228 C227 1.403 . S
C228 C229 1.404 . S
C228 C231 1.539 . S
C229 C225 1.408 . S
C229 C228 1.404 . S
C229 H241 0.930 . S
C230 C226 1.524 . S
C230 H242 0.956 . S
C230 H243 0.961 . S
C230 H244 0.961 . S
C231 C228 1.539 . S
C231 H245 0.958 . S
C231 H246 0.961 . S
C231 H247 0.960 . S
H232 C216 0.931 . S
H233 C221 0.929 . S
H234 C222 0.960 . S
H235 C222 0.962 . S
H236 C222 0.960 . S
H237 C223 0.961 . S
H238 C223 0.961 . S
H239 C223 0.961 . S
H240 C224 0.931 . S
H241 C229 0.930 . S
H242 C230 0.956 . S
H243 C230 0.961 . S
H244 C230 0.961 . S
H245 C231 0.958 . S
H246 C231 0.961 . S
H247 C231 0.960 . S
C248 C249 1.391 . S
C248 C250 1.394 . S
C248 H264 0.931 . S
C249 C248 1.391 . S
C249 C253 1.376 . S
C250 C248 1.394 . S
C250 C251 1.369 . S
C250 C254 1.531 . S
C251 C250 1.369 . S
C251 C252 1.410 . S
C251 C259 1.503 . S
C252 C251 1.410 . S
C252 C253 1.392 . S
C252 C255 1.511 . S
C253 C249 1.376 . S
C253 C252 1.392 . S
C253 H265 0.929 . S
C254 C250 1.531 . S
C254 H266 0.960 . S
C254 H267 0.962 . S
C254 H268 0.960 . S
C255 C252 1.511 . S
C255 H269 0.961 . S
C255 H270 0.961 . S
C255 H271 0.961 . S
C256 C257 1.370 . S
C256 C258 1.363 . S
C256 H272 0.931 . S
C257 C256 1.370 . S
C257 C261 1.408 . S
C258 C256 1.363 . S
C258 C259 1.370 . S
C258 C262 1.524 . S
C259 C251 1.503 . S
C259 C258 1.370 . S
C259 C260 1.403 . S
C260 C259 1.403 . S
C260 C261 1.404 . S
C260 C263 1.539 . S
C261 C257 1.408 . S
C261 C260 1.404 . S
C261 H273 0.930 . S
C262 C258 1.524 . S
C262 H274 0.956 . S
C262 H275 0.961 . S
C262 H276 0.961 . S
C263 C260 1.539 . S
C263 H277 0.958 . S
C263 H278 0.961 . S
C263 H279 0.960 . S
H264 C248 0.931 . S
H265 C253 0.929 . S
H266 C254 0.960 . S
H267 C254 0.962 . S
H268 C254 0.960 . S
H269 C255 0.961 . S
H270 C255 0.961 . S
H271 C255 0.961 . S
H272 C256 0.931 . S
H273 C261 0.930 . S
H274 C262 0.956 . S
H275 C262 0.961 . S
H276 C262 0.961 . S
H277 C263 0.958 . S
H278 C263 0.961 . S
H279 C263 0.960 . S
C280 C281 1.391 . S
C280 C282 1.394 . S
C280 H296 0.931 . S
C281 C280 1.391 . S
C281 C285 1.376 1_556 S
C282 C280 1.394 . S
C282 C283 1.369 . S
C282 C286 1.531 . S
C283 C282 1.369 . S
C283 C284 1.410 1_556 S
C283 C291 1.503 . S
C284 C283 1.410 1_554 S
C284 C285 1.392 . S
C284 C287 1.511 . S
C285 C281 1.376 1_554 S
C285 C284 1.392 . S
C285 H297 0.929 . S
C286 C282 1.531 . S
C286 H298 0.960 . S
C286 H299 0.962 . S
C286 H300 0.960 . S
C287 C284 1.511 . S
C287 H301 0.961 . S
C287 H302 0.961 . S
C287 H303 0.961 . S
C288 C289 1.370 . S
C288 C290 1.363 . S
C288 H304 0.931 . S
C289 C288 1.370 . S
C289 C293 1.408 1_554 S
C290 C288 1.363 . S
C290 C291 1.370 1_554 S
C290 C294 1.524 . S
C291 C283 1.503 . S
C291 C290 1.370 1_556 S
C291 C292 1.403 . S
C292 C291 1.403 . S
C292 C293 1.404 . S
C292 C295 1.539 . S
C293 C289 1.408 1_556 S
C293 C292 1.404 . S
C293 H305 0.930 . S
C294 C290 1.524 . S
C294 H306 0.956 . S
C294 H307 0.961 . S
C294 H308 0.961 . S
C295 C292 1.539 . S
C295 H309 0.958 . S
C295 H310 0.961 . S
C295 H311 0.960 . S
H296 C280 0.931 . S
H297 C285 0.929 . S
H298 C286 0.960 . S
H299 C286 0.962 . S
H300 C286 0.960 . S
H301 C287 0.961 . S
H302 C287 0.961 . S
H303 C287 0.961 . S
H304 C288 0.931 . S
H305 C293 0.930 . S
H306 C294 0.956 . S
H307 C294 0.961 . S
H308 C294 0.961 . S
H309 C295 0.958 . S
H310 C295 0.961 . S
H311 C295 0.960 . S
C312 C313 1.391 . S
C312 C314 1.394 . S
C312 H328 0.931 . S
C313 C312 1.391 . S
C313 C317 1.376 . S
C314 C312 1.394 . S
C314 C315 1.369 . S
C314 C318 1.531 . S
C315 C314 1.369 . S
C315 C316 1.410 . S
C315 C323 1.503 . S
C316 C315 1.410 . S
C316 C317 1.392 . S
C316 C319 1.511 . S
C317 C313 1.376 . S
C317 C316 1.392 . S
C317 H329 0.929 . S
C318 C314 1.531 . S
C318 H330 0.960 . S
C318 H331 0.962 . S
C318 H332 0.960 . S
C319 C316 1.511 . S
C319 H333 0.961 . S
C319 H334 0.961 . S
C319 H335 0.961 . S
C320 C321 1.370 . S
C320 C322 1.363 . S
C320 H336 0.931 . S
C321 C320 1.370 . S
C321 C325 1.408 . S
C322 C320 1.363 . S
C322 C323 1.370 . S
C322 C326 1.524 . S
C323 C315 1.503 . S
C323 C322 1.370 . S
C323 C324 1.403 . S
C324 C323 1.403 . S
C324 C325 1.404 . S
C324 C327 1.539 . S
C325 C321 1.408 . S
C325 C324 1.404 . S
C325 H337 0.930 . S
C326 C322 1.524 . S
C326 H338 0.956 . S
C326 H339 0.961 . S
C326 H340 0.961 . S
C327 C324 1.539 . S
C327 H341 0.958 . S
C327 H342 0.961 . S
C327 H343 0.960 . S
H328 C312 0.931 . S
H329 C317 0.929 . S
H330 C318 0.960 . S
H331 C318 0.962 . S
H332 C318 0.960 . S
H333 C319 0.961 . S
H334 C319 0.961 . S
H335 C319 0.961 . S
H336 C320 0.931 . S
H337 C325 0.930 . S
H338 C326 0.956 . S
H339 C326 0.961 . S
H340 C326 0.961 . S
H341 C327 0.958 . S
H342 C327 0.961 . S
H343 C327 0.960 . S
C344 C345 1.391 1_554 S
C344 C346 1.394 . S
C344 H360 0.931 . S
C345 C344 1.391 1_556 S
C345 C349 1.376 . S
C346 C344 1.394 . S
C346 C347 1.369 1_554 S
C346 C350 1.518 1_455 S
C347 C346 1.369 1_556 S
C347 C348 1.410 . S
C347 C355 1.503 1_445 S
C348 C347 1.410 . S
C348 C349 1.392 . S
C348 C351 1.511 . S
C349 C345 1.376 . S
C349 C348 1.392 . S
C349 H361 0.929 . S
C350 C346 1.518 1_655 S
C350 H362 0.979 . S
C350 H363 0.959 1_655 S
C350 H364 0.957 1_655 S
C351 C348 1.511 . S
C351 H365 0.961 1_545 S
C351 H366 0.961 1_545 S
C351 H367 0.961 . S
C352 C353 1.370 . S
C352 C354 1.363 . S
C352 H368 0.931 . S
C353 C352 1.370 . S
C353 C357 1.408 1_554 S
C354 C352 1.363 . S
C354 C355 1.368 1_554 S
C354 C358 1.524 1_655 S
C355 C347 1.503 1_665 S
C355 C354 1.368 1_556 S
C355 C356 1.405 1_565 S
C356 C355 1.405 1_545 S
C356 C357 1.404 1_545 S
C356 C359 1.539 . S
C357 C353 1.408 1_556 S
C357 C356 1.404 1_565 S
C357 H369 0.930 1_565 S
C358 C354 1.524 1_455 S
C358 H370 0.956 . S
C358 H371 0.961 . S
C358 H372 0.961 . S
C359 C356 1.539 . S
C359 H373 0.958 . S
C359 H374 0.961 . S
C359 H375 0.960 . S
H360 C344 0.931 . S
H361 C349 0.929 . S
H362 C350 0.979 . S
H363 C350 0.959 1_455 S
H364 C350 0.957 1_455 S
H365 C351 0.961 1_565 S
H366 C351 0.961 1_565 S
H367 C351 0.961 . S
H368 C352 0.931 . S
H369 C357 0.930 1_545 S
H370 C358 0.956 . S
H371 C358 0.961 . S
H372 C358 0.961 . S
H373 C359 0.958 . S
H374 C359 0.961 . S
H375 C359 0.960 . S
C376 C377 1.391 . S
C376 C378 1.394 . S
C376 H392 0.931 . S
C377 C376 1.391 . S
C377 C381 1.376 . S
C378 C376 1.394 . S
C378 C379 1.369 . S
C378 C382 1.531 . S
C379 C378 1.369 . S
C379 C380 1.410 . S
C379 C387 1.503 1_645 S
C380 C379 1.410 . S
C380 C381 1.392 . S
C380 C383 1.511 . S
C381 C377 1.376 . S
C381 C380 1.392 . S
C381 H393 0.929 . S
C382 C378 1.531 . S
C382 H394 0.960 1_655 S
C382 H395 0.962 . S
C382 H396 0.960 . S
C383 C380 1.511 . S
C383 H397 0.961 . S
C383 H398 0.961 1_645 S
C383 H399 0.961 1_655 S
C384 C385 1.370 . S
C384 C386 1.363 . S
C384 H400 0.931 . S
C385 C384 1.370 . S
C385 C389 1.408 . S
C386 C384 1.363 . S
C386 C387 1.370 . S
C386 C390 1.524 1_455 S
C387 C379 1.503 1_465 S
C387 C386 1.370 . S
C387 C388 1.403 1_565 S
C388 C387 1.403 1_545 S
C388 C389 1.404 1_545 S
C388 C391 1.539 . S
C389 C385 1.408 . S
C389 C388 1.404 1_565 S
C389 H401 0.930 1_565 S
C390 C386 1.524 1_655 S
C390 H402 0.956 . S
C390 H403 0.961 . S
C390 H404 0.961 . S
C391 C388 1.539 . S
C391 H405 0.958 . S
C391 H406 0.961 . S
C391 H407 0.960 . S
H392 C376 0.931 . S
H393 C381 0.929 . S
H394 C382 0.960 1_455 S
H395 C382 0.962 . S
H396 C382 0.960 . S
H397 C383 0.961 . S
H398 C383 0.961 1_465 S
H399 C383 0.961 1_455 S
H400 C384 0.931 . S
H401 C389 0.930 1_545 S
H402 C390 0.956 . S
H403 C390 0.961 . S
H404 C390 0.961 . S
H405 C391 0.958 . S
H406 C391 0.961 . S
H407 C391 0.960 . S
C408 C409 1.391 . S
C408 C410 1.394 . S
C408 H424 0.931 . S
C409 C408 1.391 . S
C409 C413 1.376 . S
C410 C408 1.394 . S
C410 C411 1.369 . S
C410 C414 1.531 . S
C411 C410 1.369 . S
C411 C412 1.410 . S
C411 C419 1.503 . S
C412 C411 1.410 . S
C412 C413 1.392 . S
C412 C415 1.511 . S
C413 C409 1.376 . S
C413 C412 1.392 . S
C413 H425 0.929 . S
C414 C410 1.531 . S
C414 H426 0.960 . S
C414 H427 0.962 . S
C414 H428 0.960 . S
C415 C412 1.511 . S
C415 H429 0.961 . S
C415 H430 0.961 . S
C415 H431 0.961 . S
C416 C417 1.370 . S
C416 C418 1.363 . S
C416 H432 0.931 . S
C417 C416 1.370 . S
C417 C421 1.408 . S
C418 C416 1.363 . S
C418 C419 1.370 . S
C418 C422 1.524 . S
C419 C411 1.503 . S
C419 C418 1.370 . S
C419 C420 1.403 . S
C420 C419 1.403 . S
C420 C421 1.404 . S
C420 C423 1.539 . S
C421 C417 1.408 . S
C421 C420 1.404 . S
C421 H433 0.930 . S
C422 C418 1.524 . S
C422 H434 0.956 . S
C422 H435 0.961 . S
C422 H436 0.961 . S
C423 C420 1.539 . S
C423 H437 0.958 . S
C423 H438 0.961 . S
C423 H439 0.960 . S
H424 C408 0.931 . S
H425 C413 0.929 . S
H426 C414 0.960 . S
H427 C414 0.962 . S
H428 C414 0.960 . S
H429 C415 0.961 . S
H430 C415 0.961 . S
H431 C415 0.961 . S
H432 C416 0.931 . S
H433 C421 0.930 . S
H434 C422 0.956 . S
H435 C422 0.961 . S
H436 C422 0.961 . S
H437 C423 0.958 . S
H438 C423 0.961 . S
H439 C423 0.960 . S
C440 C441 1.391 . S
C440 C442 1.394 . S
C440 H456 0.931 . S
C441 C440 1.391 . S
C441 C445 1.376 . S
C442 C440 1.394 . S
C442 C443 1.369 . S
C442 C446 1.531 . S
C443 C442 1.369 . S
C443 C444 1.410 . S
C443 C451 1.503 . S
C444 C443 1.410 . S
C444 C445 1.392 . S
C444 C447 1.511 . S
C445 C441 1.376 . S
C445 C444 1.392 . S
C445 H457 0.929 . S
C446 C442 1.531 . S
C446 H458 0.960 . S
C446 H459 0.962 . S
C446 H460 0.960 . S
C447 C444 1.511 . S
C447 H461 0.961 . S
C447 H462 0.961 . S
C447 H463 0.961 . S
C448 C449 1.370 . S
C448 C450 1.363 . S
C448 H464 0.931 . S
C449 C448 1.370 . S
C449 C453 1.408 . S
C450 C448 1.363 . S
C450 C451 1.370 . S
C450 C454 1.524 . S
C451 C443 1.503 . S
C451 C450 1.370 . S
C451 C452 1.403 . S
C452 C451 1.403 . S
C452 C453 1.404 . S
C452 C455 1.539 . S
C453 C449 1.408 . S
C453 C452 1.404 . S
C453 H465 0.930 . S
C454 C450 1.524 . S
C454 H466 0.956 . S
C454 H467 0.961 . S
C454 H468 0.961 . S
C455 C452 1.539 . S
C455 H469 0.958 . S
C455 H470 0.961 . S
C455 H471 0.960 . S
H456 C440 0.931 . S
H457 C445 0.929 . S
H458 C446 0.960 . S
H459 C446 0.962 . S
H460 C446 0.960 . S
H461 C447 0.961 . S
H462 C447 0.961 . S
H463 C447 0.961 . S
H464 C448 0.931 . S
H465 C453 0.930 . S
H466 C454 0.956 . S
H467 C454 0.961 . S
H468 C454 0.961 . S
H469 C455 0.958 . S
H470 C455 0.961 . S
H471 C455 0.960 . S
C472 C473 1.391 . S
C472 C474 1.394 . S
C472 H488 0.931 . S
C473 C472 1.391 . S
C473 C477 1.376 . S
C474 C472 1.394 . S
C474 C475 1.369 . S
C474 C478 1.531 . S
C475 C474 1.369 . S
C475 C476 1.410 . S
C475 C483 1.503 . S
C476 C475 1.410 . S
C476 C477 1.392 . S
C476 C479 1.511 . S
C477 C473 1.376 . S
C477 C476 1.392 . S
C477 H489 0.929 . S
C478 C474 1.531 . S
C478 H490 0.960 . S
C478 H491 0.962 . S
C478 H492 0.960 . S
C479 C476 1.511 . S
C479 H493 0.961 . S
C479 H494 0.961 . S
C479 H495 0.961 . S
C480 C481 1.370 . S
C480 C482 1.363 . S
C480 H496 0.931 . S
C481 C480 1.370 . S
C481 C485 1.408 . S
C482 C480 1.363 . S
C482 C483 1.370 . S
C482 C486 1.524 . S
C483 C475 1.503 . S
C483 C482 1.370 . S
C483 C484 1.403 . S
C484 C483 1.403 . S
C484 C485 1.404 . S
C484 C487 1.539 . S
C485 C481 1.408 . S
C485 C484 1.404 . S
C485 H497 0.930 . S
C486 C482 1.524 . S
C486 H498 0.956 . S
C486 H499 0.961 . S
C486 H500 0.961 . S
C487 C484 1.539 . S
C487 H501 0.958 . S
C487 H502 0.961 . S
C487 H503 0.960 . S
H488 C472 0.931 . S
H489 C477 0.929 . S
H490 C478 0.960 . S
H491 C478 0.962 . S
H492 C478 0.960 . S
H493 C479 0.961 . S
H494 C479 0.961 . S
H495 C479 0.961 . S
H496 C480 0.931 . S
H497 C485 0.930 . S
H498 C486 0.956 . S
H499 C486 0.961 . S
H500 C486 0.961 . S
H501 C487 0.958 . S
H502 C487 0.961 . S
H503 C487 0.960 . S
C504 C505 1.391 . S
C504 C506 1.394 . S
C504 H520 0.931 . S
C505 C504 1.391 . S
C505 C509 1.376 . S
C506 C504 1.394 . S
C506 C507 1.369 . S
C506 C510 1.531 . S
C507 C506 1.369 . S
C507 C508 1.410 . S
C507 C515 1.503 . S
C508 C507 1.410 . S
C508 C509 1.392 . S
C508 C511 1.511 . S
C509 C505 1.376 . S
C509 C508 1.392 . S
C509 H521 0.929 . S
C510 C506 1.531 . S
C510 H522 0.960 . S
C510 H523 0.962 . S
C510 H524 0.960 . S
C511 C508 1.511 . S
C511 H525 0.961 . S
C511 H526 0.961 . S
C511 H527 0.961 . S
C512 C513 1.370 . S
C512 C514 1.363 . S
C512 H528 0.931 . S
C513 C512 1.370 . S
C513 C517 1.408 . S
C514 C512 1.363 . S
C514 C515 1.370 . S
C514 C518 1.524 . S
C515 C507 1.503 . S
C515 C514 1.370 . S
C515 C516 1.403 . S
C516 C515 1.403 . S
C516 C517 1.404 . S
C516 C519 1.539 . S
C517 C513 1.408 . S
C517 C516 1.404 . S
C517 H529 0.930 . S
C518 C514 1.524 . S
C518 H530 0.956 . S
C518 H531 0.961 . S
C518 H532 0.961 . S
C519 C516 1.539 . S
C519 H533 0.958 . S
C519 H534 0.961 . S
C519 H535 0.960 . S
H520 C504 0.931 . S
H521 C509 0.929 . S
H522 C510 0.960 . S
H523 C510 0.962 . S
H524 C510 0.960 . S
H525 C511 0.961 . S
H526 C511 0.961 . S
H527 C511 0.961 . S
H528 C512 0.931 . S
H529 C517 0.930 . S
H530 C518 0.956 . S
H531 C518 0.961 . S
H532 C518 0.961 . S
H533 C519 0.958 . S
H534 C519 0.961 . S
H535 C519 0.960 . S
C536 C537 1.391 1_655 S
C536 C538 1.394 . S
C536 H552 0.931 . S
C537 C536 1.391 1_455 S
C537 C541 1.376 . S
C538 C536 1.394 . S
C538 C539 1.369 . S
C538 C542 1.531 . S
C539 C538 1.369 . S
C539 C540 1.410 1_655 S
C539 C547 1.503 . S
C540 C539 1.410 1_455 S
C540 C541 1.392 . S
C540 C543 1.511 . S
C541 C537 1.376 . S
C541 C540 1.392 . S
C541 H553 0.929 . S
C542 C538 1.531 . S
C542 H554 0.960 . S
C542 H555 0.962 . S
C542 H556 0.960 . S
C543 C540 1.511 . S
C543 H557 0.961 . S
C543 H558 0.961 . S
C543 H559 0.961 . S
C544 C545 1.370 . S
C544 C546 1.363 . S
C544 H560 0.931 . S
C545 C544 1.370 . S
C545 C549 1.408 . S
C546 C544 1.363 . S
C546 C547 1.370 . S
C546 C550 1.524 . S
C547 C539 1.503 . S
C547 C546 1.370 . S
C547 C548 1.403 . S
C548 C547 1.403 . S
C548 C549 1.404 . S
C548 C551 1.539 1_655 S
C549 C545 1.408 . S
C549 C548 1.404 . S
C549 H561 0.930 . S
C550 C546 1.524 . S
C550 H562 0.956 . S
C550 H563 0.961 . S
C550 H564 0.961 . S
C551 C548 1.539 1_455 S
C551 H565 0.958 . S
C551 H566 0.961 . S
C551 H567 0.960 . S
H552 C536 0.931 . S
H553 C541 0.929 . S
H554 C542 0.960 . S
H555 C542 0.962 . S
H556 C542 0.960 . S
H557 C543 0.961 . S
H558 C543 0.961 . S
H559 C543 0.961 . S
H560 C544 0.931 . S
H561 C549 0.930 . S
H562 C550 0.956 . S
H563 C550 0.961 . S
H564 C550 0.961 . S
H565 C551 0.958 . S
H566 C551 0.961 . S
H567 C551 0.960 . S
C568 C569 1.391 . S
C568 C570 1.394 . S
C568 H584 0.931 . S
C569 C568 1.391 . S
C569 C573 1.376 . S
C570 C568 1.394 . S
C570 C571 1.369 . S
C570 C574 1.531 . S
C571 C570 1.369 . S
C571 C572 1.410 . S
C571 C579 1.503 . S
C572 C571 1.410 . S
C572 C573 1.392 . S
C572 C575 1.511 1_655 S
C573 C569 1.376 . S
C573 C572 1.392 . S
C573 H585 0.929 . S
C574 C570 1.531 . S
C574 H586 0.960 . S
C574 H587 0.962 . S
C574 H588 0.960 . S
C575 C572 1.511 1_455 S
C575 H589 0.961 1_455 S
C575 H590 0.961 . S
C575 H591 0.961 . S
C576 C577 1.370 1_655 S
C576 C578 1.363 . S
C576 H592 0.931 . S
C577 C576 1.370 1_455 S
C577 C581 1.408 . S
C578 C576 1.363 . S
C578 C579 1.370 . S
C578 C582 1.524 . S
C579 C571 1.503 . S
C579 C578 1.370 . S
C579 C580 1.403 1_655 S
C580 C579 1.403 1_455 S
C580 C581 1.404 . S
C580 C583 1.539 . S
C581 C577 1.408 . S
C581 C580 1.404 . S
C581 H593 0.930 . S
C582 C578 1.524 . S
C582 H594 0.956 . S
C582 H595 0.961 . S
C582 H596 0.961 . S
C583 C580 1.539 . S
C583 H597 0.958 . S
C583 H598 0.961 . S
C583 H599 0.960 . S
H584 C568 0.931 . S
H585 C573 0.929 . S
H586 C574 0.960 . S
H587 C574 0.962 . S
H588 C574 0.960 . S
H589 C575 0.961 1_655 S
H590 C575 0.961 . S
H591 C575 0.961 . S
H592 C576 0.931 . S
H593 C581 0.930 . S
H594 C582 0.956 . S
H595 C582 0.961 . S
H596 C582 0.961 . S
H597 C583 0.958 . S
H598 C583 0.961 . S
H599 C583 0.960 . S
C600 C601 1.391 . S
C600 C602 1.394 . S
C600 H616 0.931 . S
C601 C600 1.391 . S
C601 C605 1.376 . S
C602 C600 1.394 . S
C602 C603 1.369 . S
C602 C606 1.531 1_455 S
C603 C602 1.369 . S
C603 C604 1.410 . S
C603 C611 1.503 . S
C604 C603 1.410 . S
C604 C605 1.392 . S
C604 C607 1.511 . S
C605 C601 1.376 . S
C605 C604 1.392 . S
C605 H617 0.929 . S
C606 C602 1.531 1_655 S
C606 H618 0.960 . S
C606 H619 0.962 . S
C606 H620 0.960 . S
C607 C604 1.511 . S
C607 H621 0.961 . S
C607 H622 0.961 . S
C607 H623 0.961 . S
C608 C609 1.370 . S
C608 C610 1.363 . S
C608 H624 0.931 . S
C609 C608 1.370 . S
C609 C613 1.408 1_655 S
C610 C608 1.363 . S
C610 C611 1.370 1_655 S
C610 C614 1.524 . S
C611 C603 1.503 . S
C611 C610 1.370 1_455 S
C611 C612 1.403 . S
C612 C611 1.403 . S
C612 C613 1.404 . S
C612 C615 1.539 . S
C613 C609 1.408 1_455 S
C613 C612 1.404 . S
C613 H625 0.930 . S
C614 C610 1.524 . S
C614 H626 0.956 . S
C614 H627 0.961 1_655 S
C614 H628 0.961 . S
C615 C612 1.539 . S
C615 H629 0.958 . S
C615 H630 0.961 . S
C615 H631 0.960 . S
H616 C600 0.931 . S
H617 C605 0.929 . S
H618 C606 0.960 . S
H619 C606 0.962 . S
H620 C606 0.960 . S
H621 C607 0.961 . S
H622 C607 0.961 . S
H623 C607 0.961 . S
H624 C608 0.931 . S
H625 C613 0.930 . S
H626 C614 0.956 . S
H627 C614 0.961 1_455 S
H628 C614 0.961 . S
H629 C615 0.958 . S
H630 C615 0.961 . S
H631 C615 0.960 . S
C632 C633 1.391 . S
C632 C634 1.394 . S
C632 H648 0.931 . S
C633 C632 1.391 . S
C633 C637 1.376 . S
C634 C632 1.394 . S
C634 C635 1.369 . S
C634 C638 1.531 . S
C635 C634 1.369 . S
C635 C636 1.410 . S
C635 C643 1.503 . S
C636 C635 1.410 . S
C636 C637 1.392 . S
C636 C639 1.511 . S
C637 C633 1.376 . S
C637 C636 1.392 . S
C637 H649 0.929 . S
C638 C634 1.531 . S
C638 H650 0.960 . S
C638 H651 0.962 . S
C638 H652 0.960 . S
C639 C636 1.511 . S
C639 H653 0.961 . S
C639 H654 0.961 . S
C639 H655 0.961 1_455 S
C640 C641 1.370 1_455 S
C640 C642 1.363 . S
C640 H656 0.931 . S
C641 C640 1.370 1_655 S
C641 C645 1.408 . S
C642 C640 1.363 . S
C642 C643 1.370 . S
C642 C646 1.524 . S
C643 C635 1.503 . S
C643 C642 1.370 . S
C643 C644 1.403 1_455 S
C644 C643 1.403 1_655 S
C644 C645 1.404 . S
C644 C647 1.539 . S
C645 C641 1.408 . S
C645 C644 1.404 . S
C645 H657 0.930 . S
C646 C642 1.524 . S
C646 H658 0.956 . S
C646 H659 0.961 . S
C646 H660 0.961 . S
C647 C644 1.539 . S
C647 H661 0.958 . S
C647 H662 0.961 . S
C647 H663 0.960 . S
H648 C632 0.931 . S
H649 C637 0.929 . S
H650 C638 0.960 . S
H651 C638 0.962 . S
H652 C638 0.960 . S
H653 C639 0.961 . S
H654 C639 0.961 . S
H655 C639 0.961 1_655 S
H656 C640 0.931 . S
H657 C645 0.930 . S
H658 C646 0.956 . S
H659 C646 0.961 . S
H660 C646 0.961 . S
H661 C647 0.958 . S
H662 C647 0.961 . S
H663 C647 0.960 . S
C153 C26 2.007 . S
C161 C2 2.027 . S
C185 C64 2.022 . S
C193 C40 2.020 . S
C217 C102 2.015 . S
C225 C78 2.025 . S
C249 C140 2.026 . S
C257 C116 2.019 . S
C281 C57 1.648 1_556 S
C289 C20 1.639 . S
C313 C133 1.650 . S
C321 C96 1.639 . S
C345 C19 1.631 1_556 S
C353 C58 1.646 . S
C377 C134 1.630 . S
C385 C95 1.648 . S
C409 C118 1.230 . S
C417 C17 1.235 . S
C441 C42 1.233 . S
C449 C93 1.226 . S
C473 C99 1.167 . S
C481 C66 1.206 . S
C505 C23 1.195 . S
C513 C142 1.235 . S
C537 C80 1.218 . S
C545 C55 1.238 . S
C569 C131 1.228 . S
C577 C4 1.206 . S
C601 C28 1.176 . S
C609 C137 1.167 . S
C633 C104 1.250 . S
C641 C61 1.207 . S
