# Generated by pormake.
# Topology wlg, (5)-cn, num edge types: 1
# Building blocks:
#     Node 0, Type 0, BuildingBlock: BEQFEK_clean_sbu_0, # of connection points: 5
#     Node 1, Type 0, BuildingBlock: BEQFEK_clean_sbu_0, # of connection points: 5
#     Node 2, Type 0, BuildingBlock: BEQFEK_clean_sbu_0, # of connection points: 5
#     Node 3, Type 0, BuildingBlock: BEQFEK_clean_sbu_0, # of connection points: 5
#     Node 4, Type 0, BuildingBlock: BEQFEK_clean_sbu_0, # of connection points: 5
#     Node 5, Type 0, BuildingBlock: BEQFEK_clean_sbu_0, # of connection points: 5
#     Node 6, Type 0, BuildingBlock: BEQFEK_clean_sbu_0, # of connection points: 5
#     Node 7, Type 0, BuildingBlock: BEQFEK_clean_sbu_0, # of connection points: 5
#     Node 8, Type 0, BuildingBlock: BEQFEK_clean_sbu_0, # of connection points: 5
#     Node 9, Type 0, BuildingBlock: BEQFEK_clean_sbu_0, # of connection points: 5
#     Node 10, Type 0, BuildingBlock: BEQFEK_clean_sbu_0, # of connection points: 5
#     Node 11, Type 0, BuildingBlock: BEQFEK_clean_sbu_0, # of connection points: 5
#     Node 12, Type 0, BuildingBlock: BEQFEK_clean_sbu_0, # of connection points: 5
#     Node 13, Type 0, BuildingBlock: BEQFEK_clean_sbu_0, # of connection points: 5
#     Node 14, Type 0, BuildingBlock: BEQFEK_clean_sbu_0, # of connection points: 5
#     Node 15, Type 0, BuildingBlock: BEQFEK_clean_sbu_0, # of connection points: 5
#     Node 16, Type 0, BuildingBlock: BEQFEK_clean_sbu_0, # of connection points: 5
#     Node 17, Type 0, BuildingBlock: BEQFEK_clean_sbu_0, # of connection points: 5
#     Node 18, Type 0, BuildingBlock: BEQFEK_clean_sbu_0, # of connection points: 5
#     Node 19, Type 0, BuildingBlock: BEQFEK_clean_sbu_0, # of connection points: 5
#     Node 20, Type 0, BuildingBlock: BEQFEK_clean_sbu_0, # of connection points: 5
#     Node 21, Type 0, BuildingBlock: BEQFEK_clean_sbu_0, # of connection points: 5
#     Node 22, Type 0, BuildingBlock: BEQFEK_clean_sbu_0, # of connection points: 5
#     Node 23, Type 0, BuildingBlock: BEQFEK_clean_sbu_0, # of connection points: 5
#     Node 24, Type 0, BuildingBlock: BEQFEK_clean_sbu_0, # of connection points: 5
#     Node 25, Type 0, BuildingBlock: BEQFEK_clean_sbu_0, # of connection points: 5
#     Node 26, Type 0, BuildingBlock: BEQFEK_clean_sbu_0, # of connection points: 5
#     Node 27, Type 0, BuildingBlock: BEQFEK_clean_sbu_0, # of connection points: 5
#     Node 28, Type 0, BuildingBlock: BEQFEK_clean_sbu_0, # of connection points: 5
#     Node 29, Type 0, BuildingBlock: BEQFEK_clean_sbu_0, # of connection points: 5
#     Node 30, Type 0, BuildingBlock: BEQFEK_clean_sbu_0, # of connection points: 5
#     Node 31, Type 0, BuildingBlock: BEQFEK_clean_sbu_0, # of connection points: 5
#     Node 32, Type 0, BuildingBlock: BEQFEK_clean_sbu_0, # of connection points: 5
#     Node 33, Type 0, BuildingBlock: BEQFEK_clean_sbu_0, # of connection points: 5
#     Node 34, Type 0, BuildingBlock: BEQFEK_clean_sbu_0, # of connection points: 5
#     Node 35, Type 0, BuildingBlock: BEQFEK_clean_sbu_0, # of connection points: 5
#     Edge 36, Type (0, 0), BuildingBlock: CIFDUS_clean_linker_0, # of connection points: 2
#     Edge 37, Type (0, 0), BuildingBlock: CIFDUS_clean_linker_0, # of connection points: 2
#     Edge 38, Type (0, 0), BuildingBlock: CIFDUS_clean_linker_0, # of connection points: 2
#     Edge 39, Type (0, 0), BuildingBlock: CIFDUS_clean_linker_0, # of connection points: 2
#     Edge 40, Type (0, 0), BuildingBlock: CIFDUS_clean_linker_0, # of connection points: 2
#     Edge 41, Type (0, 0), BuildingBlock: CIFDUS_clean_linker_0, # of connection points: 2
#     Edge 42, Type (0, 0), BuildingBlock: CIFDUS_clean_linker_0, # of connection points: 2
#     Edge 43, Type (0, 0), BuildingBlock: CIFDUS_clean_linker_0, # of connection points: 2
#     Edge 44, Type (0, 0), BuildingBlock: CIFDUS_clean_linker_0, # of connection points: 2
#     Edge 45, Type (0, 0), BuildingBlock: CIFDUS_clean_linker_0, # of connection points: 2
#     Edge 46, Type (0, 0), BuildingBlock: CIFDUS_clean_linker_0, # of connection points: 2
#     Edge 47, Type (0, 0), BuildingBlock: CIFDUS_clean_linker_0, # of connection points: 2
#     Edge 48, Type (0, 0), BuildingBlock: CIFDUS_clean_linker_0, # of connection points: 2
#     Edge 49, Type (0, 0), BuildingBlock: CIFDUS_clean_linker_0, # of connection points: 2
#     Edge 50, Type (0, 0), BuildingBlock: CIFDUS_clean_linker_0, # of connection points: 2
#     Edge 51, Type (0, 0), BuildingBlock: CIFDUS_clean_linker_0, # of connection points: 2
#     Edge 52, Type (0, 0), BuildingBlock: CIFDUS_clean_linker_0, # of connection points: 2
#     Edge 53, Type (0, 0), BuildingBlock: CIFDUS_clean_linker_0, # of connection points: 2
#     Edge 54, Type (0, 0), BuildingBlock: CIFDUS_clean_linker_0, # of connection points: 2
#     Edge 55, Type (0, 0), BuildingBlock: CIFDUS_clean_linker_0, # of connection points: 2
#     Edge 56, Type (0, 0), BuildingBlock: CIFDUS_clean_linker_0, # of connection points: 2
#     Edge 57, Type (0, 0), BuildingBlock: CIFDUS_clean_linker_0, # of connection points: 2
#     Edge 58, Type (0, 0), BuildingBlock: CIFDUS_clean_linker_0, # of connection points: 2
#     Edge 59, Type (0, 0), BuildingBlock: CIFDUS_clean_linker_0, # of connection points: 2
#     Edge 60, Type (0, 0), BuildingBlock: CIFDUS_clean_linker_0, # of connection points: 2
#     Edge 61, Type (0, 0), BuildingBlock: CIFDUS_clean_linker_0, # of connection points: 2
#     Edge 62, Type (0, 0), BuildingBlock: CIFDUS_clean_linker_0, # of connection points: 2
#     Edge 63, Type (0, 0), BuildingBlock: CIFDUS_clean_linker_0, # of connection points: 2
#     Edge 64, Type (0, 0), BuildingBlock: CIFDUS_clean_linker_0, # of connection points: 2
#     Edge 65, Type (0, 0), BuildingBlock: CIFDUS_clean_linker_0, # of connection points: 2
#     Edge 66, Type (0, 0), BuildingBlock: CIFDUS_clean_linker_0, # of connection points: 2
#     Edge 67, Type (0, 0), BuildingBlock: CIFDUS_clean_linker_0, # of connection points: 2
#     Edge 68, Type (0, 0), BuildingBlock: CIFDUS_clean_linker_0, # of connection points: 2
#     Edge 69, Type (0, 0), BuildingBlock: CIFDUS_clean_linker_0, # of connection points: 2
#     Edge 70, Type (0, 0), BuildingBlock: CIFDUS_clean_linker_0, # of connection points: 2
#     Edge 71, Type (0, 0), BuildingBlock: CIFDUS_clean_linker_0, # of connection points: 2
#     Edge 72, Type (0, 0), BuildingBlock: CIFDUS_clean_linker_0, # of connection points: 2
#     Edge 73, Type (0, 0), BuildingBlock: CIFDUS_clean_linker_0, # of connection points: 2
#     Edge 74, Type (0, 0), BuildingBlock: CIFDUS_clean_linker_0, # of connection points: 2
#     Edge 75, Type (0, 0), BuildingBlock: CIFDUS_clean_linker_0, # of connection points: 2
#     Edge 76, Type (0, 0), BuildingBlock: CIFDUS_clean_linker_0, # of connection points: 2
#     Edge 77, Type (0, 0), BuildingBlock: CIFDUS_clean_linker_0, # of connection points: 2
#     Edge 78, Type (0, 0), BuildingBlock: CIFDUS_clean_linker_0, # of connection points: 2
#     Edge 79, Type (0, 0), BuildingBlock: CIFDUS_clean_linker_0, # of connection points: 2
#     Edge 80, Type (0, 0), BuildingBlock: CIFDUS_clean_linker_0, # of connection points: 2
#     Edge 81, Type (0, 0), BuildingBlock: CIFDUS_clean_linker_0, # of connection points: 2
#     Edge 82, Type (0, 0), BuildingBlock: CIFDUS_clean_linker_0, # of connection points: 2
#     Edge 83, Type (0, 0), BuildingBlock: CIFDUS_clean_linker_0, # of connection points: 2
#     Edge 84, Type (0, 0), BuildingBlock: CIFDUS_clean_linker_0, # of connection points: 2
#     Edge 85, Type (0, 0), BuildingBlock: CIFDUS_clean_linker_0, # of connection points: 2
#     Edge 86, Type (0, 0), BuildingBlock: CIFDUS_clean_linker_0, # of connection points: 2
#     Edge 87, Type (0, 0), BuildingBlock: CIFDUS_clean_linker_0, # of connection points: 2
#     Edge 88, Type (0, 0), BuildingBlock: CIFDUS_clean_linker_0, # of connection points: 2
#     Edge 89, Type (0, 0), BuildingBlock: CIFDUS_clean_linker_0, # of connection points: 2
#     Edge 90, Type (0, 0), BuildingBlock: CIFDUS_clean_linker_0, # of connection points: 2
#     Edge 91, Type (0, 0), BuildingBlock: CIFDUS_clean_linker_0, # of connection points: 2
#     Edge 92, Type (0, 0), BuildingBlock: CIFDUS_clean_linker_0, # of connection points: 2
#     Edge 93, Type (0, 0), BuildingBlock: CIFDUS_clean_linker_0, # of connection points: 2
#     Edge 94, Type (0, 0), BuildingBlock: CIFDUS_clean_linker_0, # of connection points: 2
#     Edge 95, Type (0, 0), BuildingBlock: CIFDUS_clean_linker_0, # of connection points: 2
#     Edge 96, Type (0, 0), BuildingBlock: CIFDUS_clean_linker_0, # of connection points: 2
#     Edge 97, Type (0, 0), BuildingBlock: CIFDUS_clean_linker_0, # of connection points: 2
#     Edge 98, Type (0, 0), BuildingBlock: CIFDUS_clean_linker_0, # of connection points: 2
#     Edge 99, Type (0, 0), BuildingBlock: CIFDUS_clean_linker_0, # of connection points: 2
#     Edge 100, Type (0, 0), BuildingBlock: CIFDUS_clean_linker_0, # of connection points: 2
#     Edge 101, Type (0, 0), BuildingBlock: CIFDUS_clean_linker_0, # of connection points: 2
#     Edge 102, Type (0, 0), BuildingBlock: CIFDUS_clean_linker_0, # of connection points: 2
#     Edge 103, Type (0, 0), BuildingBlock: CIFDUS_clean_linker_0, # of connection points: 2
#     Edge 104, Type (0, 0), BuildingBlock: CIFDUS_clean_linker_0, # of connection points: 2
#     Edge 105, Type (0, 0), BuildingBlock: CIFDUS_clean_linker_0, # of connection points: 2
#     Edge 106, Type (0, 0), BuildingBlock: CIFDUS_clean_linker_0, # of connection points: 2
#     Edge 107, Type (0, 0), BuildingBlock: CIFDUS_clean_linker_0, # of connection points: 2
#     Edge 108, Type (0, 0), BuildingBlock: CIFDUS_clean_linker_0, # of connection points: 2
#     Edge 109, Type (0, 0), BuildingBlock: CIFDUS_clean_linker_0, # of connection points: 2
#     Edge 110, Type (0, 0), BuildingBlock: CIFDUS_clean_linker_0, # of connection points: 2
#     Edge 111, Type (0, 0), BuildingBlock: CIFDUS_clean_linker_0, # of connection points: 2
#     Edge 112, Type (0, 0), BuildingBlock: CIFDUS_clean_linker_0, # of connection points: 2
#     Edge 113, Type (0, 0), BuildingBlock: CIFDUS_clean_linker_0, # of connection points: 2
#     Edge 114, Type (0, 0), BuildingBlock: CIFDUS_clean_linker_0, # of connection points: 2
#     Edge 115, Type (0, 0), BuildingBlock: CIFDUS_clean_linker_0, # of connection points: 2
#     Edge 116, Type (0, 0), BuildingBlock: CIFDUS_clean_linker_0, # of connection points: 2
#     Edge 117, Type (0, 0), BuildingBlock: CIFDUS_clean_linker_0, # of connection points: 2
#     Edge 118, Type (0, 0), BuildingBlock: CIFDUS_clean_linker_0, # of connection points: 2
#     Edge 119, Type (0, 0), BuildingBlock: CIFDUS_clean_linker_0, # of connection points: 2
#     Edge 120, Type (0, 0), BuildingBlock: CIFDUS_clean_linker_0, # of connection points: 2
#     Edge 121, Type (0, 0), BuildingBlock: CIFDUS_clean_linker_0, # of connection points: 2
#     Edge 122, Type (0, 0), BuildingBlock: CIFDUS_clean_linker_0, # of connection points: 2
#     Edge 123, Type (0, 0), BuildingBlock: CIFDUS_clean_linker_0, # of connection points: 2
#     Edge 124, Type (0, 0), BuildingBlock: CIFDUS_clean_linker_0, # of connection points: 2
#     Edge 125, Type (0, 0), BuildingBlock: CIFDUS_clean_linker_0, # of connection points: 2
# Relax obj value: 0.285
# Max RMSD: 0.181
# Mean RMSD: 0.181
data_MOF--net-wlg--node1-BEQFEK_clean_sbu_0--edge1-CIFDUS_clean_linker_0
_symmetry_space_group_name_H-M    P1
_symmetry_Int_Tables_number       1
_symmetry_cell_setting            triclinic
loop_
_symmetry_equiv_pos_as_xyz
'x, y, z'
_cell_length_a     49.801608
_cell_length_b     49.776137
_cell_length_c     61.690521
_cell_angle_alpha  90.033365
_cell_angle_beta   89.981126
_cell_angle_gamma 119.98368
loop_
_atom_site_label
_atom_site_type_symbol
_atom_site_fract_x
_atom_site_fract_y
_atom_site_fract_z
_atom_type_partial_charge
Co0 Co 0.96863 0.17552 0.16175 0.0
Co1 Co 0.02836 0.171 0.15441 0.0
C2 C 0.96503 0.11739 0.14488 0.0
O3 O 0.95276 0.13316 0.151 0.0
O4 O 0.99436 0.12918 0.14469 0.0
C5 C 0.91018 0.16765 0.15081 0.0
O6 O 0.91341 0.15371 0.13374 0.0
C7 C 0.07282 0.15047 0.14404 0.0
C8 C 0.1179 0.19385 0.14622 0.0
C9 C 0.10455 0.16252 0.14155 0.0
N10 N 0.06763 0.17383 0.14889 0.0
N11 N 0.09474 0.19959 0.1506 0.0
C12 C 0.04835 0.11694 0.14541 0.0
H13 H 0.03123 0.11364 0.15811 0.0
H14 H 0.03629 0.10944 0.12958 0.0
H15 H 0.05834 0.10208 0.14958 0.0
C16 C 0.00194 0.22986 0.13297 0.0
N17 N 7e-05 0.20546 0.14375 0.0
N18 N 0.02504 0.20346 0.1398 0.0
C19 C 0.04325 0.2264 0.12586 0.0
C20 C 0.02941 0.24403 0.12137 0.0
C21 C 0.97813 0.23975 0.13428 0.0
H22 H 0.97068 0.23872 0.15135 0.0
H23 H 0.95754 0.22346 0.12465 0.0
H24 H 0.9872 0.26359 0.12791 0.0
O25 O 0.98304 0.17698 0.19137 0.0
O26 O 0.02573 0.17414 0.18676 0.0
H27 H 0.09244 0.24636 0.12499 0.0
H28 H 0.07476 0.24023 0.09884 0.0
C29 C 0.07194 0.23011 0.11529 0.0
H30 H 0.0709 0.20741 0.11396 0.0
H31 H 0.0975 0.22094 0.15535 0.0
O32 O 0.93245 0.181 0.16413 0.0
C33 C 0.00607 0.17584 0.19909 0.0
Co34 Co 0.80452 0.781 0.16786 0.0
Co35 Co 0.81832 0.84846 0.15745 0.0
C36 C 0.86566 0.82999 0.1492 0.0
O37 O 0.84722 0.80312 0.1566 0.0
O38 O 0.85755 0.85048 0.1478 0.0
C39 C 0.80697 0.72648 0.16001 0.0
O40 O 0.82584 0.74366 0.14452 0.0
C41 C 0.84624 0.9153 0.14909 0.0
C42 C 0.80532 0.92139 0.14766 0.0
C43 C 0.83741 0.93759 0.14627 0.0
N44 N 0.82051 0.88731 0.15118 0.0
N45 N 0.7962 0.89127 0.15069 0.0
C46 C 0.8782 0.92078 0.15341 0.0
H47 H 0.87716 0.90294 0.16467 0.0
H48 H 0.88875 0.9193 0.13794 0.0
H49 H 0.89315 0.94391 0.16079 0.0
C50 C 0.75094 0.76451 0.13955 0.0
N51 N 0.77683 0.78588 0.14964 0.0
N52 N 0.78335 0.81388 0.14356 0.0
C53 C 0.76242 0.81088 0.12836 0.0
C54 C 0.7409 0.77958 0.12573 0.0
C55 C 0.73731 0.73026 0.14225 0.0
H56 H 0.73498 0.72445 0.15976 0.0
H57 H 0.75331 0.72325 0.13506 0.0
H58 H 0.7144 0.71703 0.13421 0.0
O59 O 0.80593 0.79699 0.19682 0.0
O60 O 0.81564 0.84483 0.19006 0.0
H61 H 0.74731 0.84364 0.12295 0.0
H62 H 0.75601 0.82985 0.09873 0.0
C63 C 0.76357 0.83705 0.11568 0.0
H64 H 0.7874 0.85726 0.11554 0.0
H65 H 0.77345 0.87365 0.15338 0.0
O66 O 0.79313 0.73715 0.17136 0.0
C67 C 0.81112 0.82333 0.20334 0.0
Co68 Co 0.2068 0.02704 0.14652 0.0
Co69 Co 0.13889 0.97181 0.13969 0.0
C70 C 0.15701 0.03755 0.12899 0.0
O71 O 0.18462 0.0474 0.1353 0.0
O72 O 0.13711 0.00876 0.1292 0.0
C73 C 0.26142 0.08247 0.13536 0.0
O74 O 0.24556 0.08008 0.11774 0.0
C75 C 0.07184 0.93628 0.13281 0.0
C76 C 0.06124 0.88764 0.13353 0.0
C77 C 0.0476 0.90586 0.13106 0.0
N78 N 0.09861 0.93601 0.13503 0.0
N79 N 0.09195 0.90679 0.13599 0.0
C80 C 0.06913 0.96455 0.13673 0.0
H81 H 0.08714 0.98024 0.14835 0.0
H82 H 0.07231 0.97697 0.12118 0.0
H83 H 0.04623 0.95846 0.14365 0.0
C84 C 0.22143 0.98646 0.12012 0.0
N85 N 0.20071 0.99285 0.12928 0.0
N86 N 0.17237 0.96979 0.12553 0.0
C87 C 0.17449 0.94847 0.11318 0.0
C88 C 0.2055 0.95808 0.1097 0.0
C89 C 0.25577 0.00628 0.12269 0.0
H90 H 0.26144 0.01291 0.13997 0.0
H91 H 0.26387 0.02791 0.1132 0.0
H92 H 0.26813 0.99422 0.117 0.0
O93 O 0.1927 0.01415 0.17622 0.0
O94 O 0.14494 0.97454 0.17188 0.0
H95 H 0.14188 0.89994 0.1143 0.0
H96 H 0.15425 0.91493 0.08759 0.0
C97 C 0.14778 0.92009 0.10365 0.0
H98 H 0.12748 0.92334 0.10167 0.0
H99 H 0.10803 0.89983 0.13945 0.0
O100 O 0.25036 0.06031 0.14892 0.0
C101 C 0.16737 0.99286 0.18404 0.0
Co102 Co 0.1812 0.97173 0.34981 0.0
Co103 Co 0.17571 0.03118 0.35695 0.0
C104 C 0.12482 0.96688 0.36955 0.0
O105 O 0.1405 0.95458 0.36329 0.0
O106 O 0.13554 0.99605 0.36814 0.0
C107 C 0.17114 0.91507 0.33478 0.0
O108 O 0.14787 0.91621 0.32566 0.0
C109 C 0.15799 0.07429 0.37616 0.0
C110 C 0.18481 0.11612 0.35614 0.0
C111 C 0.16227 0.10368 0.37214 0.0
N112 N 0.17664 0.06947 0.3629 0.0
N113 N 0.19287 0.09476 0.35116 0.0
C114 C 0.13662 0.05105 0.39232 0.0
H115 H 0.11447 0.03489 0.38418 0.0
H116 H 0.14697 0.03742 0.39873 0.0
H117 H 0.13182 0.06263 0.40593 0.0
C118 C 0.23862 0.00875 0.37472 0.0
N119 N 0.2121 0.00483 0.36615 0.0
N120 N 0.21058 0.03025 0.36897 0.0
C121 C 0.23657 0.0515 0.37918 0.0
C122 C 0.25536 0.03859 0.38309 0.0
C123 C 0.24729 0.98396 0.37509 0.0
H124 H 0.2267 0.9614 0.37931 0.0
H125 H 0.26594 0.98919 0.38701 0.0
H126 H 0.25519 0.98179 0.35869 0.0
O127 O 0.17878 0.985 0.32024 0.0
O128 O 0.17643 0.02803 0.32476 0.0
H129 H 0.24438 0.09501 0.3672 0.0
H130 H 0.26735 0.09847 0.39063 0.0
C131 C 0.24434 0.08432 0.38296 0.0
H132 H 0.22619 0.08452 0.39327 0.0
H133 H 0.20837 0.09688 0.33899 0.0
O134 O 0.18984 0.93751 0.34667 0.0
C135 C 0.1771 0.00776 0.31251 0.0
Co136 Co 0.03279 0.20864 0.36414 0.0
Co137 Co 0.9723 0.14625 0.37323 0.0
C138 C 0.03554 0.15473 0.38246 0.0
O139 O 0.04874 0.18334 0.37759 0.0
O140 O 0.00619 0.13763 0.3812 0.0
C141 C 0.09097 0.24951 0.34932 0.0
O142 O 0.08943 0.22272 0.34589 0.0
C143 C 0.92853 0.08636 0.39265 0.0
C144 C 0.88577 0.07372 0.37436 0.0
C145 C 0.89856 0.06207 0.38898 0.0
N146 N 0.93338 0.11062 0.38029 0.0
N147 N 0.90748 0.10314 0.36976 0.0
C148 C 0.95213 0.08704 0.40797 0.0
H149 H 0.9668 0.11084 0.41445 0.0
H150 H 0.94074 0.07059 0.42157 0.0
H151 H 0.9673 0.08039 0.39916 0.0
C152 C 0.99818 0.23332 0.38813 0.0
N153 N 0.00131 0.20962 0.38072 0.0
N154 N 0.97714 0.18324 0.3866 0.0
C155 C 0.95867 0.1893 0.39925 0.0
C156 C 0.97113 0.22153 0.4006 0.0
C157 C 0.01885 0.26611 0.38085 0.0
H158 H 0.02823 0.26644 0.3645 0.0
H159 H 0.03864 0.27789 0.39225 0.0
H160 H 0.0061 0.27906 0.38015 0.0
O161 O 0.01773 0.19236 0.33523 0.0
O162 O 0.97246 0.14982 0.34069 0.0
H163 H 0.91008 0.15666 0.40001 0.0
H164 H 0.92667 0.17305 0.42616 0.0
C165 C 0.93068 0.16445 0.41059 0.0
H166 H 0.93369 0.14424 0.41394 0.0
H167 H 0.90521 0.11747 0.35846 0.0
O168 O 0.06848 0.24998 0.35868 0.0
C169 C 0.99331 0.16922 0.32796 0.0
Co170 Co 0.79493 0.82733 0.37034 0.0
Co171 Co 0.85907 0.83114 0.37521 0.0
C172 C 0.84916 0.88421 0.38798 0.0
O173 O 0.82058 0.86886 0.38304 0.0
O174 O 0.86661 0.87244 0.38579 0.0
C175 C 0.7497 0.83917 0.357 0.0
O176 O 0.77464 0.86225 0.34826 0.0
C177 C 0.92539 0.85319 0.37958 0.0
C178 C 0.92767 0.81009 0.37798 0.0
C179 C 0.94597 0.84199 0.37997 0.0
N180 N 0.89631 0.82898 0.3785 0.0
N181 N 0.89792 0.80333 0.37708 0.0
C182 C 0.93324 0.88608 0.37604 0.0
H183 H 0.93493 0.89707 0.39199 0.0
H184 H 0.95563 0.89952 0.36739 0.0
H185 H 0.91507 0.88689 0.36618 0.0
C186 C 0.77445 0.77045 0.39595 0.0
N187 N 0.79703 0.79615 0.38642 0.0
N188 N 0.8241 0.79837 0.39021 0.0
C189 C 0.81948 0.77469 0.40338 0.0
C190 C 0.78786 0.75593 0.40699 0.0
C191 C 0.74073 0.76043 0.39467 0.0
H192 H 0.73346 0.75735 0.37742 0.0
H193 H 0.737 0.77891 0.40156 0.0
H194 H 0.72621 0.73853 0.40366 0.0
O195 O 0.80719 0.8278 0.34014 0.0
O196 O 0.85159 0.82799 0.34316 0.0
H197 H 0.84699 0.75278 0.4029 0.0
H198 H 0.83846 0.76067 0.42947 0.0
C199 C 0.84454 0.77005 0.41278 0.0
H200 H 0.86678 0.79227 0.4133 0.0
H201 H 0.87891 0.78135 0.37434 0.0
O202 O 0.75251 0.81977 0.36873 0.0
C203 C 0.83029 0.82771 0.33158 0.0
Co204 Co 0.03937 0.82511 0.85608 0.0
Co205 Co 0.982 0.83368 0.86342 0.0
C206 C 0.04644 0.8827 0.87627 0.0
O207 O 0.0572 0.86565 0.87003 0.0
O208 O 0.0176 0.87358 0.87462 0.0
C209 C 0.09616 0.82746 0.86569 0.0
O210 O 0.09438 0.84017 0.8839 0.0
C211 C 0.939 0.8549 0.87746 0.0
C212 C 0.89557 0.82023 0.86168 0.0
C213 C 0.90865 0.84768 0.87336 0.0
N214 N 0.94369 0.83304 0.86828 0.0
N215 N 0.91749 0.81222 0.85909 0.0
C216 C 0.96316 0.88194 0.88998 0.0
H217 H 0.9771 0.87464 0.89976 0.0
H218 H 0.95249 0.89167 0.90094 0.0
H219 H 0.97886 0.90017 0.87847 0.0
C220 C 0.001 0.76802 0.88128 0.0
N221 N 0.00572 0.79457 0.87214 0.0
N222 N 0.98148 0.79794 0.87569 0.0
C223 C 0.96044 0.77334 0.88727 0.0
C224 C 0.97213 0.75359 0.89117 0.0
C225 C 0.02328 0.7562 0.87962 0.0
H226 H 0.03191 0.75886 0.86274 0.0
H227 H 0.04346 0.77031 0.89029 0.0
H228 H 0.01239 0.73148 0.88446 0.0
O229 O 0.02741 0.82889 0.82639 0.0
O230 O 0.98572 0.83339 0.83121 0.0
H231 H 0.91304 0.75954 0.88157 0.0
H232 H 0.92105 0.75277 0.90886 0.0
C233 C 0.93011 0.76913 0.89499 0.0
H234 H 0.93281 0.79178 0.89989 0.0
H235 H 0.91501 0.79333 0.85012 0.0
O236 O 0.0735 0.81662 0.85258 0.0
C237 C 0.00546 0.83207 0.8188 0.0
Co238 Co 0.17179 0.21221 0.84832 0.0
Co239 Co 0.17027 0.14929 0.85399 0.0
C240 C 0.11494 0.15744 0.86363 0.0
O241 O 0.1299 0.18625 0.8596 0.0
O242 O 0.12774 0.14094 0.86169 0.0
C243 C 0.16309 0.26307 0.8573 0.0
O244 O 0.1472 0.24584 0.87385 0.0
C245 C 0.15216 0.09141 0.87619 0.0
C246 C 0.17192 0.06976 0.85524 0.0
C247 C 0.15189 0.0638 0.87253 0.0
N248 N 0.17073 0.11237 0.86146 0.0
N249 N 0.18304 0.09949 0.84925 0.0
C250 C 0.13475 0.09776 0.8933 0.0
H251 H 0.14763 0.12265 0.89791 0.0
H252 H 0.13106 0.08306 0.90777 0.0
H253 H 0.11179 0.09235 0.88696 0.0
C254 C 0.2282 0.23436 0.87498 0.0
N255 N 0.20223 0.21127 0.86612 0.0
N256 N 0.20243 0.18505 0.86801 0.0
C257 C 0.2291 0.19078 0.87762 0.0
C258 C 0.24652 0.22239 0.88233 0.0
C259 C 0.23537 0.26735 0.87585 0.0
H260 H 0.24244 0.27785 0.8595 0.0
H261 H 0.21431 0.26808 0.88065 0.0
H262 H 0.2541 0.28115 0.88765 0.0
O263 O 0.17373 0.19847 0.81852 0.0
O264 O 0.17547 0.15495 0.82212 0.0
H265 H 0.23409 0.15406 0.86383 0.0
H266 H 0.26441 0.17793 0.88265 0.0
C267 C 0.23928 0.16718 0.87924 0.0
H268 H 0.22593 0.15047 0.89231 0.0
H269 H 0.19721 0.11023 0.83586 0.0
O270 O 0.1776 0.25401 0.84515 0.0
C271 C 0.17553 0.17596 0.81029 0.0
Co272 Co 0.79115 0.96563 0.84797 0.0
Co273 Co 0.85287 0.02907 0.85106 0.0
C274 C 0.8491 0.96838 0.86294 0.0
O275 O 0.82009 0.95307 0.8595 0.0
O276 O 0.86438 0.9976 0.86003 0.0
C277 C 0.74237 0.90552 0.86006 0.0
O278 O 0.7603 0.90938 0.87678 0.0
C279 C 0.91258 0.07574 0.86851 0.0
C280 C 0.92533 0.11545 0.8467 0.0
C281 C 0.9367 0.10504 0.86321 0.0
N282 N 0.88842 0.06893 0.85545 0.0
N283 N 0.896 0.09299 0.84268 0.0
C284 C 0.91243 0.05436 0.8856 0.0
H285 H 0.88877 0.04039 0.89248 0.0
H286 H 0.92914 0.06764 0.8987 0.0
H287 H 0.91915 0.03825 0.87828 0.0
C288 C 0.76845 0.00099 0.8737 0.0
N289 N 0.79143 0.99804 0.8646 0.0
N290 N 0.81747 0.02474 0.86595 0.0
C291 C 0.81186 0.04567 0.87573 0.0
C292 C 0.78048 0.03137 0.88097 0.0
C293 C 0.73543 0.97534 0.87461 0.0
H294 H 0.73453 0.95364 0.87993 0.0
H295 H 0.72155 0.98085 0.88594 0.0
H296 H 0.7252 0.97138 0.85814 0.0
O297 O 0.80215 0.97859 0.81731 0.0
O298 O 0.84455 0.02494 0.81955 0.0
H299 H 0.84326 0.08845 0.86036 0.0
H300 H 0.82575 0.0933 0.88441 0.0
C301 C 0.83524 0.07955 0.87697 0.0
H302 H 0.85562 0.0828 0.88641 0.0
H303 H 0.88181 0.09337 0.83038 0.0
O304 O 0.75014 0.92768 0.84676 0.0
C305 C 0.82365 0.0029 0.80838 0.0
Co306 Co 0.81697 0.0282 0.64188 0.0
Co307 Co 0.82972 0.97318 0.63544 0.0
C308 C 0.8782 0.03996 0.62665 0.0
O309 O 0.86 0.04989 0.63166 0.0
O310 O 0.86945 0.01118 0.62742 0.0
C311 C 0.82243 0.08159 0.65741 0.0
O312 O 0.84529 0.08006 0.66683 0.0
C313 C 0.85834 0.93809 0.61947 0.0
C314 C 0.83191 0.89384 0.63703 0.0
C315 C 0.85797 0.91064 0.62421 0.0
N316 N 0.83431 0.93793 0.62955 0.0
N317 N 0.8182 0.91109 0.63964 0.0
C318 C 0.88117 0.96417 0.60561 0.0
H319 H 0.86941 0.97489 0.59686 0.0
H320 H 0.8921 0.95586 0.59368 0.0
H321 H 0.89951 0.98203 0.61607 0.0
C322 C 0.76545 0.99006 0.61203 0.0
N323 N 0.7908 0.99533 0.6232 0.0
N324 N 0.79561 0.97182 0.62048 0.0
C325 C 0.77322 0.95067 0.60751 0.0
C326 C 0.75342 0.96159 0.60167 0.0
C327 C 0.752 0.01104 0.61272 0.0
H328 H 0.74951 0.01628 0.62984 0.0
H329 H 0.76824 0.0333 0.60469 0.0
H330 H 0.72906 0.0006 0.60464 0.0
O331 O 0.81592 0.01307 0.67144 0.0
O332 O 0.82348 0.97306 0.66743 0.0
H333 H 0.76392 0.90498 0.61503 0.0
H334 H 0.75394 0.90937 0.58758 0.0
C335 C 0.77102 0.92075 0.60084 0.0
H336 H 0.79411 0.92507 0.59546 0.0
H337 H 0.79907 0.9054 0.64952 0.0
O338 O 0.80481 0.06003 0.64449 0.0
C339 C 0.8187 0.99108 0.67943 0.0
Co340 Co 0.97996 0.79311 0.65619 0.0
Co341 Co 0.03546 0.85807 0.64384 0.0
C342 C 0.96978 0.84092 0.63438 0.0
O343 O 0.96011 0.81387 0.64185 0.0
O344 O 0.99856 0.86107 0.63446 0.0
C345 C 0.92338 0.73814 0.64947 0.0
O346 O 0.92375 0.75213 0.63133 0.0
C347 C 0.07489 0.91979 0.62462 0.0
C348 C 0.12031 0.93313 0.63919 0.0
C349 C 0.10495 0.9446 0.62689 0.0
N350 N 0.0725 0.89532 0.63559 0.0
N351 N 0.09993 0.90331 0.6439 0.0
C352 C 0.04897 0.91889 0.61179 0.0
H353 H 0.0349 0.89572 0.60423 0.0
H354 H 0.05798 0.93681 0.59888 0.0
H355 H 0.03382 0.92308 0.62279 0.0
C356 C 0.01593 0.77181 0.63133 0.0
N357 N 0.01209 0.79475 0.63929 0.0
N358 N 0.03411 0.82161 0.63203 0.0
C359 C 0.05187 0.8164 0.61801 0.0
C360 C 0.04099 0.78441 0.61703 0.0
C361 C 0.99739 0.73897 0.63909 0.0
H362 H 0.99067 0.73857 0.65628 0.0
H363 H 0.97589 0.72654 0.62931 0.0
H364 H 0.0108 0.72672 0.63781 0.0
O365 O 0.99479 0.81205 0.68431 0.0
O366 O 0.03624 0.85739 0.67665 0.0
H367 H 0.09947 0.8506 0.61354 0.0
H368 H 0.07915 0.83247 0.58875 0.0
C369 C 0.07714 0.84147 0.60477 0.0
H370 H 0.07246 0.86081 0.60227 0.0
H371 H 0.10432 0.8889 0.65376 0.0
O372 O 0.94675 0.75064 0.66193 0.0
C373 C 0.01764 0.83763 0.69034 0.0
Co374 Co 0.20697 0.18009 0.64281 0.0
Co375 Co 0.14299 0.1771 0.63758 0.0
C376 C 0.15195 0.12246 0.62706 0.0
O377 O 0.18067 0.13781 0.63155 0.0
O378 O 0.13492 0.1348 0.62863 0.0
C379 C 0.2527 0.16818 0.65648 0.0
O380 O 0.22834 0.14606 0.66645 0.0
C381 C 0.07702 0.15578 0.63021 0.0
C382 C 0.0745 0.19841 0.63506 0.0
C383 C 0.05655 0.16713 0.63028 0.0
N384 N 0.10587 0.17952 0.63372 0.0
N385 N 0.10405 0.2048 0.63705 0.0
C386 C 0.06885 0.1225 0.63122 0.0
H387 H 0.08336 0.11972 0.64362 0.0
H388 H 0.07338 0.11544 0.61519 0.0
H389 H 0.0443 0.10693 0.63577 0.0
C390 C 0.2276 0.23545 0.6153 0.0
N391 N 0.20491 0.21028 0.62528 0.0
N392 N 0.17817 0.20907 0.62211 0.0
C393 C 0.18313 0.2333 0.6094 0.0
C394 C 0.21476 0.25119 0.60503 0.0
C395 C 0.26103 0.24411 0.61575 0.0
H396 H 0.26315 0.22373 0.61106 0.0
H397 H 0.27523 0.26354 0.60454 0.0
H398 H 0.27005 0.25074 0.63252 0.0
O399 O 0.19501 0.18189 0.67298 0.0
O400 O 0.15074 0.18192 0.66938 0.0
H401 H 0.1569 0.25596 0.6146 0.0
H402 H 0.16384 0.25222 0.58668 0.0
C403 C 0.15845 0.24029 0.60253 0.0
H404 H 0.13587 0.21858 0.60117 0.0
H405 H 0.1227 0.22613 0.6417 0.0
O406 O 0.24932 0.18694 0.64442 0.0
C407 C 0.17208 0.18276 0.68121 0.0
Co408 Co 0.62911 0.50991 0.484 0.0
Co409 Co 0.6863 0.50159 0.47375 0.0
C410 C 0.6218 0.45168 0.46397 0.0
O411 O 0.61103 0.46803 0.47166 0.0
O412 O 0.65084 0.46205 0.46303 0.0
C413 C 0.57327 0.50745 0.47266 0.0
O414 O 0.57786 0.49647 0.45452 0.0
C415 C 0.726 0.47564 0.46333 0.0
C416 C 0.77309 0.51648 0.463 0.0
C417 C 0.75697 0.48464 0.45987 0.0
N418 N 0.72384 0.5011 0.46719 0.0
N419 N 0.75218 0.52536 0.46745 0.0
C420 C 0.69972 0.44332 0.46691 0.0
H421 H 0.68382 0.44329 0.4795 0.0
H422 H 0.68669 0.43427 0.45155 0.0
H423 H 0.70814 0.42762 0.47241 0.0
C424 C 0.66593 0.56706 0.45845 0.0
N425 N 0.66172 0.54026 0.46685 0.0
N426 N 0.68489 0.53615 0.46099 0.0
C427 C 0.70367 0.55965 0.44763 0.0
C428 C 0.69256 0.58013 0.44597 0.0
C429 C 0.64483 0.57983 0.46241 0.0
H430 H 0.62343 0.56645 0.45268 0.0
H431 H 0.65592 0.60464 0.45772 0.0
H432 H 0.63812 0.57711 0.47977 0.0
O433 O 0.64328 0.5081 0.51308 0.0
O434 O 0.68412 0.50266 0.5063 0.0
H435 H 0.75248 0.57789 0.44478 0.0
H436 H 0.73298 0.57268 0.4195 0.0
C437 C 0.73102 0.56223 0.43573 0.0
H438 H 0.72881 0.53909 0.43372 0.0
H439 H 0.75741 0.5478 0.47149 0.0
O440 O 0.59405 0.51733 0.48723 0.0
C441 C 0.6656 0.50475 0.51959 0.0
Co442 Co 0.47779 0.11792 0.48969 0.0
Co443 Co 0.48908 0.18538 0.48438 0.0
C444 C 0.53991 0.17109 0.47666 0.0
O445 O 0.52148 0.14273 0.48106 0.0
O446 O 0.53063 0.19076 0.47673 0.0
C447 C 0.48639 0.06991 0.5018 0.0
O448 O 0.50795 0.09325 0.51293 0.0
C449 C 0.51242 0.25184 0.47552 0.0
C450 C 0.46998 0.25474 0.48039 0.0
C451 C 0.50102 0.27231 0.47484 0.0
N452 N 0.48883 0.22339 0.48035 0.0
N453 N 0.46373 0.22548 0.48364 0.0
C454 C 0.54566 0.25972 0.47514 0.0
H455 H 0.54938 0.24527 0.48707 0.0
H456 H 0.55146 0.25492 0.45875 0.0
H457 H 0.56157 0.28436 0.47936 0.0
C458 C 0.42563 0.10383 0.46035 0.0
N459 N 0.45145 0.1242 0.47103 0.0
N460 N 0.45663 0.15256 0.46779 0.0
C461 C 0.43447 0.15097 0.45433 0.0
C462 C 0.41396 0.12014 0.44949 0.0
C463 C 0.41126 0.06938 0.46211 0.0
H464 H 0.40871 0.06267 0.47946 0.0
H465 H 0.42695 0.06224 0.45456 0.0
H466 H 0.3883 0.05706 0.45402 0.0
O467 O 0.4742 0.12874 0.51962 0.0
O468 O 0.48169 0.17639 0.51609 0.0
H469 H 0.41786 0.18304 0.45608 0.0
H470 H 0.4223 0.17271 0.4291 0.0
C471 C 0.43289 0.17812 0.44551 0.0
H472 H 0.45636 0.1988 0.4445 0.0
H473 H 0.44247 0.20705 0.48868 0.0
O474 O 0.46844 0.07459 0.48974 0.0
C475 C 0.47647 0.1532 0.5278 0.0
Co476 Co 0.88415 0.36971 0.49449 0.0
Co477 Co 0.81569 0.31871 0.48503 0.0
C478 C 0.83846 0.38407 0.47271 0.0
O479 O 0.86499 0.39177 0.48042 0.0
O480 O 0.81679 0.35595 0.47277 0.0
C481 C 0.94052 0.42003 0.48109 0.0
O482 O 0.92599 0.41325 0.46238 0.0
C483 C 0.74901 0.28486 0.4766 0.0
C484 C 0.73804 0.2362 0.47417 0.0
C485 C 0.72471 0.25487 0.47285 0.0
N486 N 0.7754 0.28392 0.47904 0.0
N487 N 0.76853 0.25466 0.47801 0.0
C488 C 0.74678 0.31321 0.48128 0.0
H489 H 0.76555 0.32885 0.49248 0.0
H490 H 0.74917 0.3258 0.46591 0.0
H491 H 0.7242 0.30698 0.48886 0.0
C492 C 0.89664 0.32449 0.472 0.0
N493 N 0.87697 0.33354 0.47934 0.0
N494 N 0.84873 0.31399 0.47271 0.0
C495 C 0.85002 0.29348 0.45899 0.0
C496 C 0.88045 0.29864 0.45845 0.0
C497 C 0.92955 0.33928 0.4796 0.0
H498 H 0.93219 0.35111 0.49535 0.0
H499 H 0.94489 0.35694 0.46762 0.0
H500 H 0.93683 0.3217 0.48163 0.0
O501 O 0.86768 0.36008 0.5236 0.0
O502 O 0.81895 0.32305 0.51785 0.0
H503 H 0.81114 0.2494 0.45015 0.0
H504 H 0.83335 0.2728 0.42763 0.0
C505 C 0.82408 0.27343 0.44387 0.0
H506 H 0.80779 0.28242 0.44224 0.0
H507 H 0.78436 0.24713 0.48079 0.0
O508 O 0.92807 0.40163 0.49694 0.0
C509 C 0.84086 0.34093 0.53061 0.0
Co510 Co 0.83859 0.29676 0.69945 0.0
Co511 Co 0.83473 0.35782 0.7009 0.0
C512 C 0.78421 0.29646 0.71902 0.0
O513 O 0.799 0.28261 0.71427 0.0
O514 O 0.79549 0.32521 0.7149 0.0
C515 C 0.825 0.23772 0.68962 0.0
O516 O 0.80112 0.23867 0.68145 0.0
C517 C 0.81214 0.4015 0.70804 0.0
C518 C 0.85338 0.44732 0.70247 0.0
C519 C 0.82243 0.43305 0.70842 0.0
N520 N 0.83614 0.39726 0.70332 0.0
N521 N 0.8606 0.42481 0.6995 0.0
C522 C 0.77916 0.37583 0.70871 0.0
H523 H 0.77325 0.36778 0.72568 0.0
H524 H 0.76317 0.38382 0.70304 0.0
H525 H 0.77584 0.35639 0.69817 0.0
C526 C 0.89699 0.33606 0.72247 0.0
N527 N 0.87114 0.33223 0.71275 0.0
N528 N 0.86986 0.35799 0.71432 0.0
C529 C 0.89486 0.37885 0.72574 0.0
C530 C 0.91295 0.36572 0.73101 0.0
C531 C 0.9064 0.31182 0.72288 0.0
H532 H 0.90442 0.30225 0.70634 0.0
H533 H 0.89036 0.29254 0.73361 0.0
H534 H 0.93052 0.32127 0.72874 0.0
O535 O 0.83374 0.30439 0.66896 0.0
O536 O 0.8326 0.34834 0.66904 0.0
H537 H 0.91441 0.42764 0.72147 0.0
H538 H 0.91297 0.41598 0.7491 0.0
C539 C 0.90011 0.40956 0.73351 0.0
H540 H 0.8777 0.40886 0.73577 0.0
H541 H 0.88202 0.42825 0.69432 0.0
O542 O 0.84591 0.2615 0.69936 0.0
C543 C 0.8316 0.3255 0.65893 0.0
Co544 Co 0.69995 0.55559 0.67901 0.0
Co545 Co 0.65168 0.48965 0.69556 0.0
C546 C 0.71918 0.51257 0.69906 0.0
O547 O 0.72505 0.53777 0.68991 0.0
O548 O 0.69144 0.49171 0.70313 0.0
C549 C 0.75296 0.61257 0.68519 0.0
O550 O 0.75269 0.59912 0.70358 0.0
C551 C 0.62007 0.42429 0.70728 0.0
C552 C 0.57296 0.41408 0.71609 0.0
C553 C 0.59138 0.40053 0.71427 0.0
N554 N 0.61887 0.45066 0.70593 0.0
N555 N 0.59047 0.44426 0.71086 0.0
C556 C 0.64649 0.42127 0.69848 0.0
H557 H 0.65898 0.439 0.6858 0.0
H558 H 0.66291 0.42483 0.7118 0.0
H559 H 0.63817 0.39803 0.69123 0.0
C560 C 0.66355 0.57354 0.70669 0.0
N561 N 0.66908 0.55174 0.69856 0.0
N562 N 0.65068 0.52489 0.70779 0.0
C563 C 0.63455 0.52946 0.72363 0.0
C564 C 0.64167 0.56049 0.72325 0.0
C565 C 0.67734 0.60543 0.69721 0.0
H566 H 0.68246 0.60492 0.67977 0.0
H567 H 0.69941 0.62113 0.70565 0.0
H568 H 0.6613 0.61471 0.69885 0.0
O569 O 0.68236 0.53527 0.65194 0.0
O570 O 0.64731 0.48791 0.66274 0.0
H571 H 0.59149 0.49448 0.73712 0.0
H572 H 0.62032 0.51763 0.75682 0.0
C573 C 0.6166 0.50606 0.74083 0.0
H574 H 0.62384 0.48834 0.74176 0.0
H575 H 0.58254 0.46 0.7096 0.0
O576 O 0.73015 0.59885 0.67237 0.0
C577 C 0.66155 0.50768 0.64773 0.0
Co578 Co 0.45377 0.15426 0.69615 0.0
Co579 Co 0.52096 0.1648 0.69856 0.0
C580 C 0.50762 0.21599 0.70831 0.0
O581 O 0.47888 0.19767 0.70515 0.0
O582 O 0.52714 0.20664 0.70648 0.0
C583 C 0.40617 0.1629 0.68443 0.0
O584 O 0.43006 0.18486 0.67396 0.0
C585 C 0.58236 0.18214 0.71578 0.0
C586 C 0.59655 0.15619 0.69402 0.0
C587 C 0.6068 0.17704 0.71114 0.0
N588 N 0.55911 0.1653 0.70192 0.0
N589 N 0.56764 0.14969 0.68906 0.0
C590 C 0.58024 0.20159 0.73345 0.0
H591 H 0.55586 0.19133 0.73901 0.0
H592 H 0.5953 0.20356 0.74734 0.0
H593 H 0.5877 0.22511 0.72705 0.0
C594 C 0.44162 0.10204 0.72518 0.0
N595 N 0.46099 0.12779 0.71407 0.0
N596 N 0.48931 0.13225 0.71528 0.0
C597 C 0.48884 0.10926 0.72713 0.0
C598 C 0.45855 0.08927 0.73378 0.0
C599 C 0.40745 0.08965 0.72694 0.0
H600 H 0.40295 0.10896 0.73022 0.0
H601 H 0.397 0.0721 0.74002 0.0
H602 H 0.39632 0.07893 0.71126 0.0
O603 O 0.46333 0.15079 0.66562 0.0
O604 O 0.51063 0.15704 0.66727 0.0
H605 H 0.52438 0.10257 0.71332 0.0
H606 H 0.51049 0.08341 0.73893 0.0
C607 C 0.51614 0.10459 0.7296 0.0
H608 H 0.53523 0.12506 0.7378 0.0
H609 H 0.55392 0.13505 0.67661 0.0
O610 O 0.41032 0.14461 0.69649 0.0
C611 C 0.48689 0.15227 0.65647 0.0
Co612 Co 0.70065 0.15063 0.18387 0.0
Co613 Co 0.64261 0.15826 0.18103 0.0
C614 C 0.70542 0.21013 0.19574 0.0
O615 O 0.71783 0.19324 0.19488 0.0
O616 O 0.67712 0.1993 0.1906 0.0
C617 C 0.75554 0.15307 0.19931 0.0
O618 O 0.75321 0.16931 0.21525 0.0
C619 C 0.60161 0.17864 0.19772 0.0
C620 C 0.5642 0.16114 0.17339 0.0
C621 C 0.57553 0.17985 0.19161 0.0
N622 N 0.60595 0.16068 0.18357 0.0
N623 N 0.58315 0.14972 0.16927 0.0
C624 C 0.622 0.19409 0.21687 0.0
H625 H 0.63295 0.18059 0.22242 0.0
H626 H 0.60842 0.19642 0.23027 0.0
H627 H 0.64055 0.2176 0.21226 0.0
C628 C 0.65677 0.09509 0.20931 0.0
N629 N 0.66433 0.12162 0.19876 0.0
N630 N 0.63975 0.12488 0.19754 0.0
C631 C 0.61566 0.10046 0.20718 0.0
C632 C 0.62559 0.0807 0.21497 0.0
C633 C 0.67831 0.0825 0.21182 0.0
H634 H 0.68858 0.08257 0.19584 0.0
H635 H 0.69758 0.09793 0.22279 0.0
H636 H 0.66636 0.0586 0.21844 0.0
O637 O 0.69281 0.15125 0.15248 0.0
O638 O 0.64922 0.15299 0.14995 0.0
H639 H 0.57412 0.093 0.19169 0.0
H640 H 0.56795 0.07532 0.21824 0.0
C641 C 0.58361 0.09585 0.20833 0.0
H642 H 0.58458 0.11673 0.21554 0.0
H643 H 0.58152 0.13591 0.15604 0.0
O644 O 0.7339 0.14061 0.18545 0.0
C645 C 0.67172 0.15175 0.14116 0.0
Co646 Co 0.84409 0.53515 0.18105 0.0
Co647 Co 0.84398 0.47242 0.18363 0.0
C648 C 0.78665 0.47693 0.19302 0.0
O649 O 0.80137 0.50616 0.19045 0.0
O650 O 0.80022 0.46115 0.19076 0.0
C651 C 0.83046 0.58378 0.18883 0.0
O652 O 0.80751 0.5628 0.20052 0.0
C653 C 0.82901 0.41197 0.20067 0.0
C654 C 0.85767 0.39956 0.18037 0.0
C655 C 0.83445 0.38784 0.19592 0.0
N656 N 0.84749 0.4364 0.18817 0.0
N657 N 0.86505 0.42908 0.17637 0.0
C658 C 0.80689 0.41211 0.21702 0.0
H659 H 0.81635 0.4357 0.224 0.0
H660 H 0.80247 0.39515 0.23015 0.0
H661 H 0.78462 0.40575 0.20899 0.0
C662 C 0.8984 0.55519 0.20983 0.0
N663 N 0.874 0.53312 0.19879 0.0
N664 N 0.87401 0.50675 0.20016 0.0
C665 C 0.89852 0.51122 0.2122 0.0
C666 C 0.91489 0.54212 0.21873 0.0
C667 C 0.90718 0.58868 0.20986 0.0
H668 H 0.90698 0.5963 0.193 0.0
H669 H 0.88965 0.59142 0.21921 0.0
H670 H 0.93046 0.60373 0.21696 0.0
O671 O 0.84801 0.5254 0.15064 0.0
O672 O 0.85049 0.48214 0.15206 0.0
H673 H 0.91451 0.48058 0.20211 0.0
H674 H 0.9242 0.49374 0.22986 0.0
C675 C 0.90616 0.48636 0.21711 0.0
H676 H 0.88497 0.46514 0.22258 0.0
H677 H 0.88087 0.44363 0.16475 0.0
O678 O 0.84966 0.5772 0.18027 0.0
C679 C 0.85057 0.50402 0.14129 0.0
Co680 Co 0.44901 0.29357 0.1762 0.0
Co681 Co 0.51746 0.34935 0.17808 0.0
C682 C 0.50007 0.28545 0.19382 0.0
O683 O 0.47172 0.2754 0.1895 0.0
O684 O 0.52051 0.31361 0.19016 0.0
C685 C 0.39472 0.23802 0.18867 0.0
O686 O 0.41135 0.24004 0.20576 0.0
C687 C 0.58205 0.39146 0.19219 0.0
C688 C 0.59515 0.43211 0.17124 0.0
C689 C 0.60682 0.42029 0.18656 0.0
N690 N 0.55706 0.38643 0.18058 0.0
N691 N 0.5651 0.41092 0.16816 0.0
C692 C 0.58197 0.36921 0.20849 0.0
H693 H 0.55909 0.35672 0.21667 0.0
H694 H 0.60045 0.38146 0.22077 0.0
H695 H 0.58614 0.35197 0.20003 0.0
C696 C 0.43736 0.33796 0.20058 0.0
N697 N 0.4566 0.33008 0.19083 0.0
N698 N 0.48519 0.35361 0.19177 0.0
C699 C 0.48496 0.37743 0.20207 0.0
C700 C 0.45456 0.36835 0.20793 0.0
C701 C 0.40329 0.31628 0.20322 0.0
H702 H 0.39909 0.293 0.2079 0.0
H703 H 0.39315 0.3246 0.21572 0.0
H704 H 0.39157 0.31403 0.18748 0.0
O705 O 0.46154 0.30187 0.14562 0.0
O706 O 0.50927 0.3423 0.1464 0.0
H707 H 0.50805 0.4251 0.21366 0.0
H708 H 0.53172 0.40688 0.21259 0.0
C709 C 0.51297 0.40894 0.20445 0.0
H710 H 0.52129 0.41889 0.18812 0.0
H711 H 0.5503 0.41275 0.15705 0.0
O712 O 0.40518 0.2604 0.17529 0.0
C713 C 0.48595 0.32181 0.13594 0.0
Co714 Co 0.48302 0.37444 0.97116 0.0
Co715 Co 0.49798 0.32088 0.96385 0.0
C716 C 0.54111 0.3868 0.94922 0.0
O717 O 0.52275 0.39575 0.95587 0.0
O718 O 0.53432 0.3586 0.95121 0.0
C719 C 0.48 0.4292 0.96407 0.0
O720 O 0.49413 0.43039 0.9458 0.0
C721 C 0.53022 0.28606 0.95516 0.0
C722 C 0.49261 0.2374 0.95735 0.0
C723 C 0.52416 0.25562 0.95346 0.0
N724 N 0.50333 0.28566 0.95873 0.0
N725 N 0.48111 0.25644 0.9606 0.0
C726 C 0.56131 0.31463 0.95751 0.0
H727 H 0.55966 0.33198 0.9678 0.0
H728 H 0.56997 0.32464 0.94123 0.0
H729 H 0.57819 0.30919 0.96516 0.0
C730 C 0.42535 0.33057 0.94875 0.0
N731 N 0.45359 0.33836 0.95645 0.0
N732 N 0.45977 0.31603 0.95217 0.0
C733 C 0.43563 0.29368 0.94087 0.0
C734 C 0.41296 0.30192 0.93875 0.0
C735 C 0.41024 0.34979 0.95185 0.0
H736 H 0.42266 0.37118 0.94196 0.0
H737 H 0.38545 0.33703 0.94705 0.0
H738 H 0.41219 0.35689 0.96909 0.0
O739 O 0.49094 0.36499 0.00035 0.0
O740 O 0.49883 0.32521 0.99614 0.0
H741 H 0.42208 0.24562 0.94078 0.0
H742 H 0.42221 0.26107 0.91464 0.0
C743 C 0.43488 0.26629 0.93028 0.0
H744 H 0.4587 0.27082 0.9272 0.0
H745 H 0.45842 0.24945 0.96519 0.0
O746 O 0.4699 0.40523 0.9759 0.0
C747 C 0.49658 0.34478 0.00818 0.0
Co748 Co 0.62977 0.11499 0.97012 0.0
Co749 Co 0.68708 0.18272 0.97188 0.0
C750 C 0.62371 0.17045 0.95962 0.0
O751 O 0.61309 0.1415 0.96141 0.0
O752 O 0.6523 0.18967 0.96281 0.0
C753 C 0.56899 0.06471 0.96271 0.0
O754 O 0.56381 0.08712 0.95706 0.0
C755 C 0.72997 0.2474 0.95974 0.0
C756 C 0.77068 0.25905 0.98024 0.0
C757 C 0.75892 0.2717 0.96561 0.0
N758 N 0.72471 0.22182 0.97064 0.0
N759 N 0.74927 0.2289 0.98273 0.0
C760 C 0.70795 0.24804 0.94353 0.0
H761 H 0.69539 0.22542 0.93501 0.0
H762 H 0.72042 0.26683 0.93149 0.0
H763 H 0.69072 0.25211 0.95211 0.0
C764 C 0.67324 0.10442 0.94434 0.0
N765 N 0.66569 0.12364 0.9545 0.0
N766 N 0.68985 0.15188 0.95487 0.0
C767 C 0.7137 0.15143 0.94479 0.0
C768 C 0.70401 0.12132 0.93781 0.0
C769 C 0.65241 0.06994 0.94366 0.0
H770 H 0.64329 0.06136 0.96016 0.0
H771 H 0.63231 0.06431 0.93301 0.0
H772 H 0.66449 0.05778 0.93768 0.0
O773 O 0.63877 0.12236 0.00119 0.0
O774 O 0.67999 0.1697 0.00305 0.0
H775 H 0.75735 0.18383 0.95866 0.0
H776 H 0.75949 0.17493 0.93054 0.0
C777 C 0.74551 0.17901 0.94272 0.0
H778 H 0.74389 0.19961 0.93793 0.0
H779 H 0.75104 0.21335 0.99316 0.0
O780 O 0.59638 0.07107 0.96749 0.0
C781 C 0.65919 0.145 0.01216 0.0
Co782 Co 0.87021 0.50908 0.97264 0.0
Co783 Co 0.80669 0.50683 0.97091 0.0
C784 C 0.81397 0.45137 0.95982 0.0
O785 O 0.84329 0.4669 0.96135 0.0
O786 O 0.79764 0.46398 0.96357 0.0
C787 C 0.91385 0.49236 0.98183 0.0
O788 O 0.88788 0.46638 0.98551 0.0
C789 C 0.74872 0.49031 0.94973 0.0
C790 C 0.72714 0.50864 0.97207 0.0
C791 C 0.72132 0.49035 0.95374 0.0
N792 N 0.76931 0.50705 0.96519 0.0
N793 N 0.75653 0.51848 0.9783 0.0
C794 C 0.75557 0.47477 0.93152 0.0
H795 H 0.78051 0.48839 0.92715 0.0
H796 H 0.74105 0.47223 0.91716 0.0
H797 H 0.75059 0.45143 0.93673 0.0
C798 C 0.88857 0.56463 0.94486 0.0
N799 N 0.86737 0.53933 0.95564 0.0
N800 N 0.84049 0.53835 0.95499 0.0
C801 C 0.84378 0.56326 0.94407 0.0
C802 C 0.87442 0.58085 0.93717 0.0
C803 C 0.92171 0.573 0.94221 0.0
H804 H 0.92328 0.55168 0.94019 0.0
H805 H 0.93244 0.58845 0.92803 0.0
H806 H 0.93476 0.58511 0.95705 0.0
O807 O 0.85869 0.51076 0.00321 0.0
O808 O 0.81545 0.51327 0.00239 0.0
H809 H 0.80773 0.56851 0.95875 0.0
H810 H 0.82807 0.59608 0.9375 0.0
C811 C 0.81889 0.57171 0.94268 0.0
H812 H 0.80092 0.55596 0.93102 0.0
H813 H 0.76721 0.53147 0.99217 0.0
O814 O 0.91264 0.51573 0.97475 0.0
C815 C 0.83733 0.51301 0.01289 0.0
Co816 Co 0.30266 0.84941 0.81559 0.0
Co817 Co 0.35729 0.8365 0.80774 0.0
C818 C 0.29107 0.79003 0.79633 0.0
O819 O 0.28193 0.80848 0.80237 0.0
O820 O 0.31952 0.79755 0.79774 0.0
C821 C 0.24809 0.85107 0.80619 0.0
O822 O 0.24945 0.83828 0.78789 0.0
C823 C 0.39461 0.81071 0.79061 0.0
C824 C 0.43782 0.83685 0.80935 0.0
C825 C 0.42243 0.81181 0.79543 0.0
N826 N 0.3933 0.8333 0.80169 0.0
N827 N 0.41953 0.84928 0.8125 0.0
C828 C 0.36962 0.7887 0.77567 0.0
H829 H 0.35841 0.80052 0.76764 0.0
H830 H 0.37914 0.77968 0.76318 0.0
H831 H 0.35182 0.76897 0.78519 0.0
C832 C 0.34205 0.90395 0.78863 0.0
N833 N 0.33634 0.8776 0.79856 0.0
N834 N 0.35954 0.87255 0.79503 0.0
C835 C 0.38099 0.8959 0.78281 0.0
C836 C 0.37046 0.91641 0.77832 0.0
C837 C 0.32107 0.91736 0.78971 0.0
H838 H 0.31372 0.91709 0.80672 0.0
H839 H 0.29999 0.90273 0.77995 0.0
H840 H 0.33253 0.94146 0.78341 0.0
O841 O 0.31553 0.84575 0.84498 0.0
O842 O 0.35572 0.83875 0.83994 0.0
H843 H 0.42623 0.90355 0.78974 0.0
H844 H 0.42262 0.91698 0.76326 0.0
C845 C 0.41077 0.89837 0.77552 0.0
H846 H 0.40616 0.87586 0.76863 0.0
H847 H 0.42409 0.86737 0.82314 0.0
O848 O 0.2705 0.8607 0.81946 0.0
C849 C 0.33703 0.84174 0.85243 0.0
Co850 Co 0.15203 0.45861 0.8173 0.0
Co851 Co 0.15622 0.52281 0.81602 0.0
C852 C 0.21159 0.51432 0.80748 0.0
O853 O 0.19569 0.48497 0.80859 0.0
O854 O 0.19901 0.53082 0.81054 0.0
C855 C 0.15888 0.40724 0.80564 0.0
O856 O 0.17671 0.42586 0.79025 0.0
C857 C 0.17731 0.58202 0.7958 0.0
C858 C 0.15898 0.60452 0.81727 0.0
C859 C 0.17882 0.61007 0.79992 0.0
N860 N 0.15819 0.56114 0.8103 0.0
N861 N 0.14672 0.57448 0.82285 0.0
C862 C 0.19404 0.57507 0.77849 0.0
H863 H 0.18012 0.5504 0.77346 0.0
H864 H 0.19867 0.59046 0.76428 0.0
H865 H 0.21651 0.57897 0.78484 0.0
C866 C 0.09943 0.44322 0.78719 0.0
N867 N 0.12419 0.46346 0.7989 0.0
N868 N 0.12599 0.49072 0.79847 0.0
C869 C 0.10228 0.48872 0.7867 0.0
C870 C 0.08454 0.45848 0.77909 0.0
C871 C 0.09007 0.40982 0.78427 0.0
H872 H 0.11079 0.4079 0.78043 0.0
H873 H 0.07282 0.39887 0.77107 0.0
H874 H 0.08009 0.39723 0.79967 0.0
O875 O 0.14751 0.46828 0.84791 0.0
O876 O 0.14641 0.51235 0.84703 0.0
H877 H 0.07128 0.50618 0.77868 0.0
H878 H 0.11219 0.53298 0.77469 0.0
C879 C 0.09483 0.51432 0.78523 0.0
H880 H 0.09642 0.5243 0.80158 0.0
H881 H 0.13217 0.56369 0.83606 0.0
O882 O 0.1441 0.41591 0.81784 0.0
C883 C 0.14495 0.48958 0.85746 0.0
Co884 Co 0.54654 0.69451 0.82609 0.0
Co885 Co 0.47951 0.63958 0.81707 0.0
C886 C 0.49735 0.70459 0.80559 0.0
O887 O 0.52484 0.71415 0.81219 0.0
O888 O 0.47684 0.67598 0.80661 0.0
C889 C 0.60236 0.74802 0.814 0.0
O890 O 0.58735 0.74378 0.79566 0.0
C891 C 0.41531 0.59846 0.80209 0.0
C892 C 0.40492 0.55389 0.81684 0.0
C893 C 0.39152 0.56815 0.80541 0.0
N894 N 0.44125 0.60203 0.81155 0.0
N895 N 0.43494 0.57515 0.82007 0.0
C896 C 0.41377 0.6235 0.78975 0.0
H897 H 0.43561 0.63752 0.78061 0.0
H898 H 0.39405 0.61365 0.7782 0.0
H899 H 0.41089 0.63891 0.80136 0.0
C900 C 0.56273 0.65253 0.80239 0.0
N901 N 0.54194 0.65992 0.81006 0.0
N902 N 0.51391 0.63836 0.80437 0.0
C903 C 0.51603 0.61744 0.79168 0.0
C904 C 0.54719 0.62528 0.79014 0.0
C905 C 0.59624 0.66986 0.80872 0.0
H906 H 0.59901 0.68113 0.82471 0.0
H907 H 0.60946 0.68824 0.79656 0.0
H908 H 0.60593 0.6541 0.80967 0.0
O909 O 0.53042 0.6824 0.85553 0.0
O910 O 0.4836 0.64203 0.8495 0.0
H911 H 0.47804 0.5709 0.7903 0.0
H912 H 0.49597 0.58653 0.76437 0.0
C913 C 0.4888 0.59201 0.78002 0.0
H914 H 0.47122 0.59897 0.77681 0.0
H915 H 0.45082 0.57166 0.82889 0.0
O916 O 0.58999 0.72795 0.82894 0.0
C917 C 0.5047 0.66058 0.86245 0.0
Co918 Co 0.5092 0.63242 0.0277 0.0
Co919 Co 0.4995 0.68884 0.03637 0.0
C920 C 0.44955 0.624 0.04609 0.0
O921 O 0.46718 0.61385 0.03989 0.0
O922 O 0.4587 0.65293 0.04571 0.0
C923 C 0.5041 0.57358 0.03445 0.0
O924 O 0.48873 0.5729 0.05194 0.0
C925 C 0.47594 0.7317 0.04341 0.0
C926 C 0.51889 0.77731 0.04264 0.0
C927 C 0.48697 0.76346 0.04454 0.0
N928 N 0.50031 0.72715 0.04171 0.0
N929 N 0.52586 0.75455 0.04097 0.0
C930 C 0.44308 0.70644 0.04005 0.0
H931 H 0.44232 0.68853 0.02899 0.0
H932 H 0.43298 0.69543 0.05588 0.0
H933 H 0.42876 0.71552 0.0329 0.0
C934 C 0.56388 0.66867 0.05565 0.0
N935 N 0.53834 0.66483 0.0454 0.0
N936 N 0.53313 0.68744 0.05082 0.0
C937 C 0.55452 0.7055 0.06572 0.0
C938 C 0.57501 0.69457 0.06885 0.0
C939 C 0.57625 0.64691 0.05357 0.0
H940 H 0.55964 0.62442 0.06117 0.0
H941 H 0.59917 0.65623 0.06156 0.0
H942 H 0.57815 0.64246 0.03617 0.0
O943 O 0.50832 0.64666 0.99841 0.0
O944 O 0.50333 0.68789 0.00403 0.0
H945 H 0.57179 0.75402 0.07 0.0
H946 H 0.5622 0.7325 0.09471 0.0
C947 C 0.55478 0.73178 0.07767 0.0
H948 H 0.53143 0.72938 0.07761 0.0
H949 H 0.54792 0.75777 0.03814 0.0
O950 O 0.51778 0.59835 0.02338 0.0
C951 C 0.50598 0.66926 0.99125 0.0
Co952 Co 0.35875 0.87162 0.01806 0.0
Co953 Co 0.29952 0.80699 0.0252 0.0
C954 C 0.36443 0.82108 0.03794 0.0
O955 O 0.37678 0.84922 0.03211 0.0
O956 O 0.33535 0.80267 0.03601 0.0
C957 C 0.41535 0.91577 0.00311 0.0
O958 O 0.41518 0.88998 0.99829 0.0
C959 C 0.25964 0.74534 0.04333 0.0
C960 C 0.21795 0.72797 0.02288 0.0
C961 C 0.23218 0.71868 0.03805 0.0
N962 N 0.26203 0.76906 0.03143 0.0
N963 N 0.23663 0.75861 0.01957 0.0
C964 C 0.28396 0.74785 0.05869 0.0
H965 H 0.29556 0.771 0.06656 0.0
H966 H 0.27372 0.72946 0.07126 0.0
H967 H 0.30147 0.74499 0.04949 0.0
C968 C 0.32138 0.89248 0.04217 0.0
N969 N 0.32558 0.86972 0.03422 0.0
N970 N 0.3001 0.84283 0.03696 0.0
C971 C 0.27849 0.84777 0.04641 0.0
C972 C 0.29123 0.87956 0.04996 0.0
C973 C 0.34605 0.92597 0.04219 0.0
H974 H 0.36881 0.92813 0.046 0.0
H975 H 0.34103 0.93943 0.05425 0.0
H976 H 0.34756 0.93583 0.02581 0.0
O977 O 0.34529 0.85492 0.9887 0.0
O978 O 0.30171 0.81016 0.99303 0.0
H979 H 0.23075 0.83195 0.05575 0.0
H980 H 0.24461 0.80504 0.06075 0.0
C981 C 0.24548 0.82282 0.04948 0.0
H982 H 0.23596 0.81133 0.0337 0.0
H983 H 0.23319 0.77176 0.00789 0.0
O984 O 0.39228 0.91421 0.01307 0.0
C985 C 0.32232 0.8308 0.98086 0.0
Co986 Co 0.10849 0.47333 0.02481 0.0
Co987 Co 0.17711 0.48736 0.02925 0.0
C988 C 0.15858 0.53562 0.0385 0.0
O989 O 0.13021 0.51648 0.03494 0.0
O990 O 0.179 0.52749 0.03663 0.0
C991 C 0.05395 0.47731 0.02922 0.0
O992 O 0.07221 0.50148 0.04114 0.0
C993 C 0.23971 0.51504 0.04737 0.0
C994 C 0.2604 0.49303 0.02766 0.0
C995 C 0.26752 0.51596 0.04303 0.0
N996 N 0.21742 0.49308 0.03485 0.0
N997 N 0.22989 0.47972 0.02332 0.0
C998 C 0.23431 0.53462 0.06318 0.0
H999 H 0.21041 0.52146 0.06978 0.0
H1000 H 0.25136 0.54223 0.07664 0.0
H1001 H 0.23697 0.55548 0.05479 0.0
C1002 C 0.09746 0.42208 0.05459 0.0
N1003 N 0.11653 0.4476 0.04312 0.0
N1004 N 0.14514 0.45291 0.04478 0.0
C1005 C 0.14505 0.43039 0.05699 0.0
C1006 C 0.11474 0.40997 0.0637 0.0
C1007 C 0.06348 0.41029 0.05716 0.0
H1008 H 0.05921 0.43007 0.05836 0.0
H1009 H 0.05412 0.3956 0.07183 0.0
H1010 H 0.05108 0.39645 0.04265 0.0
O1011 O 0.12217 0.47296 0.99474 0.0
O1012 O 0.16985 0.48036 0.99757 0.0
H1013 H 0.16711 0.4042 0.06705 0.0
H1014 H 0.18954 0.44579 0.07117 0.0
C1015 C 0.17306 0.4271 0.06023 0.0
H1016 H 0.18479 0.42988 0.04445 0.0
H1017 H 0.21794 0.46265 0.01164 0.0
O1018 O 0.0638 0.45982 0.02215 0.0
C1019 C 0.14662 0.47567 0.98613 0.0
Co1020 Co 0.35772 0.48145 0.50474 0.0
Co1021 Co 0.29858 0.48785 0.50798 0.0
C1022 C 0.36275 0.5409 0.51807 0.0
O1023 O 0.37515 0.52433 0.5149 0.0
O1024 O 0.33368 0.52963 0.51578 0.0
C1025 C 0.41398 0.48564 0.51832 0.0
O1026 O 0.40997 0.49907 0.53537 0.0
C1027 C 0.25895 0.50852 0.52742 0.0
C1028 C 0.21977 0.49077 0.50452 0.0
C1029 C 0.23278 0.51037 0.52218 0.0
N1030 N 0.26172 0.48962 0.51317 0.0
N1031 N 0.23783 0.4785 0.49979 0.0
C1032 C 0.28094 0.52402 0.54582 0.0
H1033 H 0.29085 0.50951 0.55124 0.0
H1034 H 0.26903 0.52813 0.55955 0.0
H1035 H 0.30032 0.54661 0.54038 0.0
C1036 C 0.31907 0.42665 0.53252 0.0
N1037 N 0.32435 0.45279 0.52235 0.0
N1038 N 0.29932 0.45534 0.52363 0.0
C1039 C 0.27718 0.43067 0.53443 0.0
C1040 C 0.28896 0.41169 0.54051 0.0
C1041 C 0.34135 0.41475 0.53245 0.0
H1042 H 0.34915 0.41468 0.51562 0.0
H1043 H 0.36208 0.43065 0.54212 0.0
H1044 H 0.33085 0.39103 0.53933 0.0
O1045 O 0.34446 0.47953 0.47424 0.0
O1046 O 0.30085 0.48138 0.47641 0.0
H1047 H 0.23351 0.42139 0.52166 0.0
H1048 H 0.23096 0.40373 0.54783 0.0
C1049 C 0.24485 0.42459 0.53768 0.0
H1050 H 0.24564 0.44502 0.54556 0.0
H1051 H 0.23498 0.46424 0.48656 0.0
O1052 O 0.39282 0.47384 0.50404 0.0
C1053 C 0.32135 0.47937 0.4653 0.0
Co1054 Co 0.51417 0.87219 0.51983 0.0
Co1055 Co 0.50766 0.8065 0.51554 0.0
C1056 C 0.45552 0.81516 0.53173 0.0
O1057 O 0.47206 0.84444 0.53028 0.0
O1058 O 0.46628 0.79754 0.52673 0.0
C1059 C 0.50137 0.91866 0.51419 0.0
O1060 O 0.47923 0.89535 0.50338 0.0
C1061 C 0.48963 0.74259 0.52643 0.0
C1062 C 0.51535 0.73153 0.50227 0.0
C1063 C 0.49327 0.71852 0.51851 0.0
N1064 N 0.50818 0.76842 0.51516 0.0
N1065 N 0.52384 0.76177 0.50092 0.0
C1066 C 0.46883 0.74119 0.54442 0.0
H1067 H 0.47957 0.76362 0.55326 0.0
H1068 H 0.46414 0.72212 0.55585 0.0
H1069 H 0.44654 0.73694 0.53744 0.0
C1070 C 0.56924 0.88369 0.54537 0.0
N1071 N 0.54352 0.86486 0.53403 0.0
N1072 N 0.54099 0.83733 0.5323 0.0
C1073 C 0.56525 0.83783 0.54241 0.0
C1074 C 0.58407 0.86733 0.551 0.0
C1075 C 0.57908 0.91667 0.55073 0.0
H1076 H 0.55856 0.91851 0.55546 0.0
H1077 H 0.59626 0.92558 0.56411 0.0
H1078 H 0.58946 0.93122 0.53611 0.0
O1079 O 0.51432 0.86615 0.48829 0.0
O1080 O 0.51096 0.82018 0.48484 0.0
H1081 H 0.57279 0.80523 0.52486 0.0
H1082 H 0.5936 0.81718 0.55011 0.0
C1083 C 0.57155 0.81142 0.54195 0.0
H1084 H 0.55208 0.79089 0.54984 0.0
H1085 H 0.53929 0.77753 0.48963 0.0
O1086 O 0.52165 0.91465 0.52383 0.0
C1087 C 0.51276 0.84445 0.47653 0.0
Co1088 Co 0.1183 0.64087 0.50813 0.0
Co1089 Co 0.18685 0.6902 0.51763 0.0
C1090 C 0.16618 0.62499 0.52578 0.0
O1091 O 0.13969 0.61851 0.51853 0.0
O1092 O 0.18792 0.653 0.52739 0.0
C1093 C 0.06405 0.58895 0.52242 0.0
O1094 O 0.08012 0.59547 0.54047 0.0
C1095 C 0.25382 0.72916 0.52531 0.0
C1096 C 0.25927 0.77597 0.52667 0.0
C1097 C 0.27576 0.76037 0.52819 0.0
N1098 N 0.22579 0.72662 0.52302 0.0
N1099 N 0.22933 0.75473 0.52346 0.0
C1100 C 0.25955 0.70273 0.52146 0.0
H1101 H 0.24131 0.68512 0.51081 0.0
H1102 H 0.25901 0.69167 0.53719 0.0
H1103 H 0.28239 0.71083 0.51364 0.0
C1104 C 0.10691 0.68331 0.53526 0.0
N1105 N 0.12579 0.67448 0.52614 0.0
N1106 N 0.15442 0.69316 0.5324 0.0
C1107 C 0.15435 0.71282 0.54744 0.0
C1108 C 0.12427 0.70814 0.54937 0.0
C1109 C 0.07362 0.66954 0.52879 0.0
H1110 H 0.06974 0.65853 0.51258 0.0
H1111 H 0.05879 0.65137 0.54064 0.0
H1112 H 0.06675 0.68758 0.52826 0.0
O1113 O 0.13185 0.65519 0.47881 0.0
O1114 O 0.18171 0.68796 0.48499 0.0
H1115 H 0.19433 0.75603 0.55654 0.0
H1116 H 0.17298 0.73164 0.57891 0.0
C1117 C 0.18126 0.73168 0.56219 0.0
H1118 H 0.19721 0.72216 0.56246 0.0
H1119 H 0.21144 0.75952 0.52085 0.0
O1120 O 0.07465 0.60806 0.50679 0.0
C1121 C 0.15895 0.67382 0.47194 0.0
Co1122 Co 0.15543 0.69775 0.30087 0.0
Co1123 Co 0.1615 0.63845 0.30334 0.0
C1124 C 0.21544 0.7007 0.29108 0.0
O1125 O 0.19936 0.71401 0.29237 0.0
O1126 O 0.20334 0.67183 0.29477 0.0
C1127 C 0.16647 0.75587 0.3094 0.0
O1128 O 0.18826 0.7542 0.32029 0.0
C1129 C 0.17908 0.59548 0.2861 0.0
C1130 C 0.16291 0.55921 0.31127 0.0
C1131 C 0.18017 0.56925 0.29231 0.0
N1132 N 0.1627 0.60103 0.30091 0.0
N1133 N 0.15259 0.57898 0.31574 0.0
C1134 C 0.1929 0.61495 0.26631 0.0
H1135 H 0.17866 0.62526 0.26111 0.0
H1136 H 0.19457 0.60092 0.25293 0.0
H1137 H 0.21647 0.63421 0.27009 0.0
C1138 C 0.10203 0.65647 0.27283 0.0
N1139 N 0.12741 0.66269 0.28441 0.0
N1140 N 0.12955 0.63745 0.28574 0.0
C1141 C 0.10548 0.61425 0.27509 0.0
C1142 C 0.08711 0.62548 0.26654 0.0
C1143 C 0.09204 0.67973 0.26842 0.0
H1144 H 0.11257 0.70254 0.26458 0.0
H1145 H 0.07534 0.6723 0.25476 0.0
H1146 H 0.08096 0.68255 0.28319 0.0
O1147 O 0.15034 0.68687 0.33206 0.0
O1148 O 0.15559 0.64512 0.33437 0.0
H1149 H 0.07487 0.56506 0.2693 0.0
H1150 H 0.11571 0.57935 0.26487 0.0
C1151 C 0.09858 0.58133 0.27525 0.0
H1152 H 0.101 0.57466 0.29197 0.0
H1153 H 0.14006 0.57835 0.32949 0.0
O1154 O 0.14744 0.73255 0.2983 0.0
C1155 C 0.15137 0.66589 0.34314 0.0
Co1156 Co 0.29796 0.44219 0.29955 0.0
Co1157 Co 0.35053 0.51125 0.29193 0.0
C1158 C 0.28318 0.49027 0.28431 0.0
O1159 O 0.27517 0.46278 0.28996 0.0
O1160 O 0.31162 0.51132 0.28396 0.0
C1161 C 0.24078 0.38646 0.29413 0.0
O1162 O 0.23462 0.40394 0.28154 0.0
C1163 C 0.38343 0.57858 0.28572 0.0
C1164 C 0.43178 0.59025 0.28012 0.0
C1165 C 0.41285 0.6033 0.2811 0.0
N1166 N 0.38474 0.5522 0.28617 0.0
N1167 N 0.41394 0.55955 0.28346 0.0
C1168 C 0.35597 0.58047 0.29355 0.0
H1169 H 0.34134 0.56063 0.30432 0.0
H1170 H 0.3421 0.58011 0.27941 0.0
H1171 H 0.36341 0.60219 0.3028 0.0
C1172 C 0.33597 0.42985 0.26942 0.0
N1173 N 0.33077 0.44999 0.2806 0.0
N1174 N 0.35259 0.47866 0.27617 0.0
C1175 C 0.37187 0.47727 0.26128 0.0
C1176 C 0.36217 0.44642 0.25689 0.0
C1177 C 0.31648 0.39534 0.27124 0.0
H1178 H 0.3137 0.38855 0.28858 0.0
H1179 H 0.29309 0.38786 0.26457 0.0
H1180 H 0.32683 0.38333 0.26235 0.0
O1181 O 0.31285 0.45673 0.32888 0.0
O1182 O 0.35094 0.50516 0.32411 0.0
H1183 H 0.41972 0.51121 0.25781 0.0
H1184 H 0.39928 0.4979 0.23275 0.0
C1185 C 0.39736 0.50437 0.24967 0.0
H1186 H 0.39292 0.52407 0.24938 0.0
H1187 H 0.42197 0.5439 0.28478 0.0
O1188 O 0.26762 0.39749 0.30236 0.0
C1189 C 0.33404 0.48232 0.33646 0.0
Co1190 Co 0.54981 0.84627 0.30621 0.0
Co1191 Co 0.48314 0.83751 0.30601 0.0
C1192 C 0.49676 0.78755 0.29071 0.0
O1193 O 0.52564 0.80541 0.29343 0.0
O1194 O 0.47744 0.79663 0.29491 0.0
C1195 C 0.59653 0.83644 0.31718 0.0
O1196 O 0.5718 0.81234 0.32524 0.0
C1197 C 0.41951 0.81819 0.29186 0.0
C1198 C 0.40784 0.84671 0.31299 0.0
C1199 C 0.39544 0.82338 0.29754 0.0
N1200 N 0.44467 0.83722 0.30364 0.0
N1201 N 0.43758 0.85439 0.3161 0.0
C1202 C 0.41899 0.796 0.27529 0.0
H1203 H 0.44201 0.80585 0.26736 0.0
H1204 H 0.40096 0.79081 0.26284 0.0
H1205 H 0.41389 0.7741 0.28345 0.0
C1206 C 0.56435 0.90307 0.28288 0.0
N1207 N 0.54375 0.87589 0.29182 0.0
N1208 N 0.51596 0.8729 0.29147 0.0
C1209 C 0.51816 0.89855 0.28222 0.0
C1210 C 0.54903 0.91863 0.27665 0.0
C1211 C 0.59824 0.91404 0.28089 0.0
H1212 H 0.60147 0.8948 0.27498 0.0
H1213 H 0.6099 0.93395 0.26959 0.0
H1214 H 0.60918 0.92107 0.29713 0.0
O1215 O 0.53844 0.84329 0.33684 0.0
O1216 O 0.49222 0.83966 0.33778 0.0
H1217 H 0.48584 0.90865 0.29755 0.0
H1218 H 0.49805 0.92596 0.27114 0.0
C1219 C 0.49193 0.90502 0.28093 0.0
H1220 H 0.47131 0.88472 0.27383 0.0
H1221 H 0.45276 0.87063 0.32728 0.0
O1222 O 0.59321 0.85636 0.30647 0.0
C1223 C 0.5155 0.84096 0.34737 0.0
H1224 H 0.08667 0.11165 0.11581 0.0
H1225 H 0.16128 0.17636 0.15681 0.0
H1226 H 0.18669 0.14542 0.1535 0.0
H1227 H 0.18416 0.09681 0.14308 0.0
H1228 H 0.10672 0.02909 0.10548 0.0
H1229 H 0.08554 0.06405 0.10367 0.0
C1230 C 0.10824 0.11874 0.12429 0.0
C1231 C 0.12141 0.14556 0.13729 0.0
C1232 C 0.12204 0.10016 0.12305 0.0
C1233 C 0.15036 0.15548 0.14704 0.0
C1234 C 0.16484 0.13774 0.14523 0.0
C1235 C 0.16294 0.08989 0.13413 0.0
C1236 C 0.14686 0.06028 0.12458 0.0
C1237 C 0.15038 0.10956 0.13387 0.0
C1238 C 0.11932 0.05162 0.11315 0.0
C1239 C 0.10722 0.07159 0.11214 0.0
H1240 H 0.89596 0.9726 0.12886 0.0
H1241 H 0.82215 0.98011 0.15977 0.0
H1242 H 0.85406 0.03636 0.15983 0.0
H1243 H 0.90386 0.08297 0.15397 0.0
H1244 H 0.97973 0.07625 0.12597 0.0
H1245 H 0.94625 0.02002 0.12238 0.0
C1246 C 0.88706 0.98642 0.13607 0.0
C1247 C 0.85698 0.97191 0.145 0.0
C1248 C 0.90593 0.01891 0.13664 0.0
C1249 C 0.8453 0.9905 0.15304 0.0
C1250 C 0.86358 0.02273 0.15315 0.0
C1251 C 0.91314 0.06937 0.14684 0.0
C1252 C 0.9444 0.08389 0.14034 0.0
C1253 C 0.89408 0.03712 0.14538 0.0
C1254 C 0.95586 0.06571 0.13123 0.0
C1255 C 0.93671 0.03353 0.1292 0.0
H1256 H 0.00126 0.85162 0.14669 0.0
H1257 H 0.01755 0.93308 0.11123 0.0
H1258 H 0.96252 0.91669 0.11331 0.0
H1259 H 0.9101 0.88062 0.12732 0.0
H1260 H 0.89393 0.79729 0.16032 0.0
H1261 H 0.94833 0.8127 0.15657 0.0
C1262 C 0.99279 0.8657 0.13923 0.0
C1263 C 0.01379 0.89433 0.12982 0.0
C1264 C 0.96102 0.85574 0.13998 0.0
C1265 C 0.00221 0.9118 0.1197 0.0
C1266 C 0.97063 0.90225 0.12063 0.0
C1267 C 0.91844 0.86572 0.13351 0.0
C1268 C 0.89796 0.83806 0.14433 0.0
C1269 C 0.9499 0.87458 0.13119 0.0
C1270 C 0.9091 0.81879 0.15198 0.0
C1271 C 0.9403 0.82761 0.14993 0.0
H1272 H 0.09987 0.07405 0.37992 0.0
H1273 H 0.1818 0.16466 0.37883 0.0
H1274 H 0.14992 0.1887 0.38472 0.0
H1275 H 0.09848 0.18398 0.38634 0.0
H1276 H 0.01676 0.09302 0.38646 0.0
H1277 H 0.04906 0.0691 0.38582 0.0
C1278 C 0.11102 0.09894 0.38188 0.0
C1279 C 0.14333 0.11747 0.37932 0.0
C1280 C 0.09252 0.11259 0.38502 0.0
C1281 C 0.157 0.14987 0.38085 0.0
C1282 C 0.13878 0.16362 0.38419 0.0
C1283 C 0.08767 0.15891 0.38665 0.0
C1284 C 0.05509 0.1404 0.38635 0.0
C1285 C 0.10643 0.14522 0.38573 0.0
C1286 C 0.04165 0.10794 0.38681 0.0
C1287 C 0.06016 0.09418 0.38625 0.0
H1288 H 0.92833 0.0288 0.3941 0.0
H1289 H 0.83748 0.01962 0.39423 0.0
H1290 H 0.81376 0.96321 0.39637 0.0
H1291 H 0.81905 0.91675 0.39423 0.0
H1292 H 0.91037 0.92692 0.39435 0.0
H1293 H 0.93372 0.98295 0.39705 0.0
C1294 C 0.90344 0.01485 0.39562 0.0
C1295 C 0.88479 0.02868 0.39441 0.0
C1296 C 0.89 0.9825 0.39671 0.0
C1297 C 0.8524 0.00961 0.39525 0.0
C1298 C 0.83881 0.97735 0.39642 0.0
C1299 C 0.84406 0.93114 0.39522 0.0
C1300 C 0.86291 0.9175 0.39371 0.0
C1301 C 0.85741 0.96352 0.39654 0.0
C1302 C 0.89525 0.93661 0.39525 0.0
C1303 C 0.90866 0.96877 0.39673 0.0
H1304 H 0.9849 0.898 0.39893 0.0
H1305 H 0.98445 0.82545 0.36031 0.0
H1306 H 0.04051 0.8567 0.35574 0.0
H1307 H 0.08845 0.90638 0.35947 0.0
H1308 H 0.08846 0.98099 0.39512 0.0
H1309 H 0.03344 0.94753 0.40353 0.0
C1310 C 0.99694 0.88923 0.38918 0.0
C1311 C 0.98031 0.8599 0.37928 0.0
C1312 C 0.02899 0.90782 0.3859 0.0
C1313 C 0.9966 0.84813 0.36783 0.0
C1314 C 0.02864 0.86605 0.36511 0.0
C1315 C 0.07656 0.91527 0.36932 0.0
C1316 C 0.09246 0.94623 0.37653 0.0
C1317 C 0.04489 0.8962 0.37359 0.0
C1318 C 0.07664 0.9574 0.38914 0.0
C1319 C 0.04523 0.93824 0.394 0.0
H1320 H 0.82379 0.90802 0.8753 0.0
H1321 H 0.91159 0.99033 0.86224 0.0
H1322 H 0.9382 0.96075 0.86642 0.0
H1323 H 0.93576 0.91058 0.86956 0.0
H1324 H 0.84823 0.82801 0.88223 0.0
H1325 H 0.82215 0.85861 0.88201 0.0
C1326 C 0.84881 0.91962 0.87364 0.0
C1327 C 0.8656 0.95139 0.86837 0.0
C1328 C 0.86396 0.90235 0.87574 0.0
C1329 C 0.89803 0.966 0.86641 0.0
C1330 C 0.91329 0.94903 0.86865 0.0
C1331 C 0.91123 0.89938 0.87315 0.0
C1332 C 0.89407 0.86709 0.87638 0.0
C1333 C 0.8964 0.91707 0.87282 0.0
C1334 C 0.86196 0.85286 0.87987 0.0
C1335 C 0.84705 0.87033 0.87971 0.0
H1336 H 0.03588 0.93116 0.8815 0.0
H1337 H 0.10796 0.90717 0.88503 0.0
H1338 H 0.1472 0.9618 0.88712 0.0
H1339 H 0.16155 0.01639 0.88226 0.0
H1340 H 0.08951 0.04008 0.87732 0.0
H1341 H 0.05004 0.98597 0.88192 0.0
C1342 C 0.06007 0.9378 0.88327 0.0
C1343 C 0.06889 0.91504 0.88265 0.0
C1344 C 0.08272 0.96941 0.88408 0.0
C1345 C 0.10044 0.92418 0.8851 0.0
C1346 C 0.123 0.95548 0.88624 0.0
C1347 C 0.13722 0.00971 0.88277 0.0
C1348 C 0.12859 0.03231 0.87978 0.0
C1349 C 0.1145 0.9783 0.88484 0.0
C1350 C 0.09697 0.02341 0.88026 0.0
C1351 C 0.07425 0.99228 0.88255 0.0
H1352 H 0.08134 0.18603 0.87078 0.0
H1353 H 0.07273 0.09541 0.86652 0.0
H1354 H 0.01656 0.07111 0.86905 0.0
H1355 H 0.97011 0.07582 0.86742 0.0
H1356 H 0.97806 0.16609 0.86972 0.0
H1357 H 0.03451 0.19044 0.87269 0.0
C1358 C 0.06725 0.16094 0.87072 0.0
C1359 C 0.08136 0.14262 0.86839 0.0
C1360 C 0.03486 0.1471 0.87157 0.0
C1361 C 0.06265 0.11014 0.86844 0.0
C1362 C 0.03044 0.09619 0.86972 0.0
C1363 C 0.98397 0.1007 0.86948 0.0
C1364 C 0.96988 0.11912 0.86882 0.0
C1365 C 0.0163 0.11446 0.87068 0.0
C1366 C 0.98844 0.15148 0.87039 0.0
C1367 C 0.02066 0.16537 0.87201 0.0
H1368 H 0.97784 0.89886 0.62933 0.0
H1369 H 0.90907 0.8018 0.62429 0.0
H1370 H 0.86872 0.81511 0.61834 0.0
H1371 H 0.8521 0.85406 0.61838 0.0
H1372 H 0.92078 0.95069 0.62608 0.0
H1373 H 0.96179 0.93789 0.62659 0.0
C1374 C 0.95417 0.88064 0.62646 0.0
C1375 C 0.94654 0.84942 0.62742 0.0
C1376 C 0.9309 0.8884 0.6235 0.0
C1377 C 0.91561 0.82607 0.62384 0.0
C1378 C 0.89246 0.83363 0.62046 0.0
C1379 C 0.87611 0.87232 0.61976 0.0
C1380 C 0.88324 0.90334 0.62156 0.0
C1381 C 0.89969 0.86468 0.62087 0.0
C1382 C 0.91446 0.92674 0.62369 0.0
C1383 C 0.93806 0.91939 0.62438 0.0
H1384 H 0.07392 0.97714 0.62633 0.0
H1385 H 0.1647 0.98772 0.61774 0.0
H1386 H 0.18722 0.04392 0.61495 0.0
H1387 H 0.18152 0.09007 0.61818 0.0
H1388 H 0.09026 0.07862 0.6262 0.0
H1389 H 0.06737 0.02253 0.62494 0.0
C1390 C 0.09839 0.99136 0.62287 0.0
C1391 C 0.11744 0.97795 0.62179 0.0
C1392 C 0.11116 0.02362 0.62128 0.0
C1393 C 0.14945 0.99737 0.6185 0.0
C1394 C 0.16236 0.02952 0.61693 0.0
C1395 C 0.15656 0.07535 0.61931 0.0
C1396 C 0.13772 0.08874 0.62251 0.0
C1397 C 0.1435 0.04295 0.61879 0.0
C1398 C 0.10541 0.06919 0.62375 0.0
C1399 C 0.09226 0.03698 0.62317 0.0
H1400 H 0.91193 0.0977 0.6431 0.0
H1401 H 0.91773 0.03292 0.59961 0.0
H1402 H 0.97331 0.06856 0.5949 0.0
H1403 H 0.02067 0.11656 0.6051 0.0
H1404 H 0.01541 0.17879 0.65137 0.0
H1405 H 0.95898 0.1465 0.65226 0.0
C1406 C 0.9253 0.09158 0.63236 0.0
C1407 C 0.91091 0.06261 0.62189 0.0
C1408 C 0.9573 0.1118 0.6302 0.0
C1409 C 0.92847 0.05485 0.60814 0.0
C1410 C 0.96018 0.07528 0.60537 0.0
C1411 C 0.00721 0.12282 0.61562 0.0
C1412 C 0.02228 0.14937 0.62878 0.0
C1413 C 0.97495 0.10347 0.61674 0.0
C1414 C 0.0044 0.15817 0.64135 0.0
C1415 C 0.97215 0.13963 0.64196 0.0
H1416 H 0.81369 0.49567 0.47268 0.0
H1417 H 0.73239 0.42955 0.43753 0.0
H1418 H 0.75166 0.39313 0.43683 0.0
H1419 H 0.78908 0.37807 0.44964 0.0
H1420 H 0.87182 0.44552 0.48294 0.0
H1421 H 0.85501 0.48371 0.48021 0.0
C1422 C 0.80036 0.47346 0.46462 0.0
C1423 C 0.77082 0.46464 0.45628 0.0
C1424 C 0.81191 0.45287 0.46385 0.0
C1425 C 0.75434 0.43619 0.44526 0.0
C1426 C 0.76552 0.41547 0.4446 0.0
C1427 C 0.80365 0.40127 0.456 0.0
C1428 C 0.83134 0.40867 0.46684 0.0
C1429 C 0.7938 0.42317 0.45449 0.0
C1430 C 0.85028 0.43906 0.47461 0.0
C1431 C 0.8406 0.46092 0.4732 0.0
H1432 H 0.56335 0.41732 0.47889 0.0
H1433 H 0.63177 0.41151 0.43936 0.0
H1434 H 0.59853 0.35509 0.43721 0.0
H1435 H 0.55191 0.30731 0.44918 0.0
H1436 H 0.48702 0.3139 0.49217 0.0
H1437 H 0.51641 0.37023 0.48963 0.0
C1438 C 0.57083 0.40384 0.46946 0.0
C1439 C 0.60009 0.41856 0.45941 0.0
C1440 C 0.55225 0.37151 0.46903 0.0
C1441 C 0.60946 0.40068 0.44739 0.0
C1442 C 0.59049 0.36844 0.4462 0.0
C1443 C 0.54456 0.32104 0.45838 0.0
C1444 C 0.518 0.30637 0.47159 0.0
C1445 C 0.56227 0.35355 0.45753 0.0
C1446 C 0.50768 0.32455 0.4822 0.0
C1447 C 0.52451 0.3568 0.48081 0.0
H1448 H 0.67714 0.19751 0.48179 0.0
H1449 H 0.69611 0.28581 0.45589 0.0
H1450 H 0.64078 0.26784 0.45461 0.0
H1451 H 0.58665 0.22744 0.46237 0.0
H1452 H 0.56846 0.13787 0.48533 0.0
H1453 H 0.62361 0.15575 0.48558 0.0
C1454 C 0.66928 0.21287 0.47575 0.0
C1455 C 0.69102 0.24356 0.47007 0.0
C1456 C 0.63736 0.20204 0.47432 0.0
C1457 C 0.68018 0.26273 0.46171 0.0
C1458 C 0.64839 0.25228 0.4606 0.0
C1459 C 0.59474 0.21177 0.46722 0.0
C1460 C 0.5733 0.18145 0.47401 0.0
C1461 C 0.62674 0.22211 0.46723 0.0
C1462 C 0.58428 0.16136 0.48003 0.0
C1463 C 0.61592 0.17157 0.48029 0.0
H1464 H 0.82909 0.48547 0.68967 0.0
H1465 H 0.77491 0.41592 0.73736 0.0
H1466 H 0.7388 0.43541 0.73965 0.0
H1467 H 0.71982 0.46901 0.72541 0.0
H1468 H 0.77587 0.54092 0.67954 0.0
H1469 H 0.81434 0.52427 0.67969 0.0
C1470 C 0.80963 0.47488 0.70078 0.0
C1471 C 0.80376 0.44826 0.71245 0.0
C1472 C 0.78924 0.48664 0.70236 0.0
C1473 C 0.77897 0.43535 0.72726 0.0
C1474 C 0.75846 0.44669 0.72877 0.0
C1475 C 0.74066 0.4813 0.71569 0.0
C1476 C 0.74468 0.50582 0.70225 0.0
C1477 C 0.76282 0.4717 0.71588 0.0
C1478 C 0.77208 0.52186 0.69 0.0
C1479 C 0.79407 0.51227 0.68997 0.0
H1480 H 0.53282 0.353 0.70938 0.0
H1481 H 0.62487 0.3722 0.72605 0.0
H1482 H 0.60717 0.31679 0.72609 0.0
H1483 H 0.56581 0.26269 0.7194 0.0
H1484 H 0.47317 0.24436 0.70518 0.0
H1485 H 0.49077 0.29942 0.70675 0.0
C1486 C 0.54904 0.34514 0.71319 0.0
C1487 C 0.58047 0.3669 0.71664 0.0
C1488 C 0.53854 0.31324 0.71375 0.0
C1489 C 0.60091 0.35615 0.72208 0.0
C1490 C 0.5907 0.32436 0.72242 0.0
C1491 C 0.54944 0.27072 0.71685 0.0
C1492 C 0.51829 0.24929 0.71195 0.0
C1493 C 0.55966 0.30268 0.71784 0.0
C1494 C 0.49732 0.26018 0.70892 0.0
C1495 C 0.50735 0.29177 0.70973 0.0
H1496 H 0.64103 0.23732 0.72458 0.0
H1497 H 0.64582 0.15405 0.71437 0.0
H1498 H 0.70189 0.18328 0.71968 0.0
H1499 H 0.74964 0.23357 0.72157 0.0
H1500 H 0.74445 0.31658 0.73176 0.0
H1501 H 0.68814 0.28602 0.73305 0.0
C1502 C 0.65393 0.22514 0.72449 0.0
C1503 C 0.63912 0.19344 0.71919 0.0
C1504 C 0.68618 0.24215 0.7273 0.0
C1505 C 0.65671 0.17848 0.71834 0.0
C1506 C 0.68877 0.19518 0.72134 0.0
C1507 C 0.73632 0.24501 0.72459 0.0
C1508 C 0.75134 0.2776 0.72578 0.0
C1509 C 0.70385 0.22725 0.72498 0.0
C1510 C 0.73358 0.29177 0.73008 0.0
C1511 C 0.70129 0.27424 0.73084 0.0
H1512 H 0.55856 0.29553 0.2004 0.0
H1513 H 0.46231 0.22352 0.20117 0.0
H1514 H 0.47741 0.18408 0.20314 0.0
H1515 H 0.51782 0.16979 0.19904 0.0
H1516 H 0.61382 0.24177 0.19761 0.0
H1517 H 0.59901 0.28127 0.20184 0.0
C1518 C 0.54088 0.27129 0.20149 0.0
C1519 C 0.50942 0.26261 0.20012 0.0
C1520 C 0.54968 0.24857 0.20234 0.0
C1521 C 0.48679 0.23099 0.20184 0.0
C1522 C 0.49536 0.2083 0.20289 0.0
C1523 C 0.53541 0.19411 0.20019 0.0
C1524 C 0.56677 0.20285 0.19826 0.0
C1525 C 0.5267 0.21678 0.20225 0.0
C1526 C 0.58952 0.23438 0.19962 0.0
C1527 C 0.58105 0.25706 0.20176 0.0
H1528 H 0.77175 0.35519 0.19832 0.0
H1529 H 0.85275 0.34535 0.20318 0.0
H1530 H 0.81958 0.28893 0.20612 0.0
H1531 H 0.76767 0.24252 0.20384 0.0
H1532 H 0.68749 0.25376 0.19701 0.0
H1533 H 0.72028 0.30968 0.19929 0.0
C1534 C 0.78226 0.34097 0.20095 0.0
C1535 C 0.81469 0.35453 0.20108 0.0
C1536 C 0.76313 0.30873 0.2022 0.0
C1537 C 0.82781 0.33541 0.20327 0.0
C1538 C 0.80886 0.3032 0.20489 0.0
C1539 C 0.75728 0.25715 0.20322 0.0
C1540 C 0.72501 0.24374 0.20031 0.0
C1541 C 0.77647 0.28956 0.20386 0.0
C1542 C 0.71208 0.26319 0.19947 0.0
C1543 C 0.73089 0.29531 0.20058 0.0
H1544 H 0.75085 0.50351 0.19867 0.0
H1545 H 0.74531 0.41432 0.19393 0.0
H1546 H 0.68884 0.38859 0.19397 0.0
H1547 H 0.64129 0.39185 0.19104 0.0
H1548 H 0.6471 0.48116 0.19399 0.0
H1549 H 0.70328 0.50645 0.1987 0.0
C1550 C 0.73738 0.4784 0.19795 0.0
C1551 C 0.75251 0.46096 0.19624 0.0
C1552 C 0.70489 0.46378 0.1974 0.0
C1553 C 0.73447 0.42842 0.19538 0.0
C1554 C 0.70208 0.41365 0.19524 0.0
C1555 C 0.65468 0.41672 0.19343 0.0
C1556 C 0.63999 0.43459 0.19249 0.0
C1557 C 0.68706 0.43114 0.1957 0.0
C1558 C 0.6579 0.46694 0.19475 0.0
C1559 C 0.69 0.48139 0.19741 0.0
H1560 H 0.51506 0.19963 0.96574 0.0
H1561 H 0.58195 0.28368 0.93355 0.0
H1562 H 0.61901 0.26527 0.93285 0.0
H1563 H 0.63316 0.22556 0.94269 0.0
H1564 H 0.56347 0.13979 0.9716 0.0
H1565 H 0.52671 0.15827 0.97162 0.0
C1566 C 0.53766 0.21398 0.95844 0.0
C1567 C 0.54615 0.24378 0.95084 0.0
C1568 C 0.55841 0.20274 0.95728 0.0
C1569 C 0.5753 0.2615 0.94086 0.0
C1570 C 0.59643 0.25075 0.9401 0.0
C1571 C 0.60987 0.21092 0.94882 0.0
C1572 C 0.60121 0.1814 0.95718 0.0
C1573 C 0.58844 0.22157 0.94861 0.0
C1574 C 0.57078 0.1625 0.96487 0.0
C1575 C 0.5497 0.17311 0.96505 0.0
H1576 H 0.73041 0.30609 0.96138 0.0
H1577 H 0.82007 0.31267 0.95951 0.0
H1578 H 0.84504 0.36894 0.95514 0.0
H1579 H 0.84152 0.41631 0.95478 0.0
H1580 H 0.7517 0.40958 0.95789 0.0
H1581 H 0.72659 0.35314 0.95798 0.0
C1582 C 0.7553 0.31963 0.95926 0.0
C1583 C 0.77333 0.30512 0.96036 0.0
C1584 C 0.76947 0.35197 0.95702 0.0
C1585 C 0.8057 0.32331 0.95859 0.0
C1586 C 0.81997 0.35545 0.9561 0.0
C1587 C 0.81642 0.40257 0.95513 0.0
C1588 C 0.7986 0.41733 0.95641 0.0
C1589 C 0.80211 0.37008 0.95571 0.0
C1590 C 0.76608 0.39899 0.95685 0.0
C1591 C 0.75166 0.36664 0.95705 0.0
H1592 H 0.67441 0.50228 0.94831 0.0
H1593 H 0.69712 0.42962 0.94162 0.0
H1594 H 0.64317 0.39195 0.93494 0.0
H1595 H 0.58882 0.37804 0.93727 0.0
H1596 H 0.56517 0.44963 0.94676 0.0
H1597 H 0.61984 0.48912 0.94558 0.0
C1598 C 0.66757 0.47833 0.94483 0.0
C1599 C 0.68995 0.46903 0.94516 0.0
C1600 C 0.63612 0.45637 0.9418 0.0
C1601 C 0.68079 0.43786 0.94078 0.0
C1602 C 0.64968 0.41604 0.9373 0.0
C1603 C 0.5955 0.40226 0.93867 0.0
C1604 C 0.57289 0.41064 0.94271 0.0
C1605 C 0.62705 0.42482 0.93863 0.0
C1606 C 0.58205 0.44234 0.94399 0.0
C1607 C 0.61339 0.46501 0.94343 0.0
H1608 H 0.48042 0.82055 0.79155 0.0
H1609 H 0.3843 0.74854 0.79341 0.0
H1610 H 0.39925 0.70911 0.79336 0.0
H1611 H 0.43941 0.69496 0.79755 0.0
H1612 H 0.53571 0.76664 0.79849 0.0
H1613 H 0.52093 0.80601 0.79274 0.0
C1614 C 0.46276 0.7962 0.79151 0.0
C1615 C 0.43126 0.78773 0.79191 0.0
C1616 C 0.47157 0.77343 0.79237 0.0
C1617 C 0.40867 0.75604 0.79215 0.0
C1618 C 0.41722 0.73329 0.79254 0.0
C1619 C 0.45723 0.71909 0.79612 0.0
C1620 C 0.48858 0.72774 0.79872 0.0
C1621 C 0.44858 0.74172 0.79325 0.0
C1622 C 0.51134 0.75925 0.79678 0.0
C1623 C 0.50293 0.78185 0.79352 0.0
H1624 H 0.29834 0.73968 0.7912 0.0
H1625 H 0.22975 0.76844 0.78827 0.0
H1626 H 0.18856 0.71451 0.78623 0.0
H1627 H 0.17172 0.6592 0.79077 0.0
H1628 H 0.24063 0.63113 0.79509 0.0
H1629 H 0.28179 0.68448 0.79051 0.0
C1630 C 0.27452 0.73427 0.78951 0.0
C1631 C 0.26724 0.7581 0.79027 0.0
C1632 C 0.25083 0.70316 0.78868 0.0
C1633 C 0.23608 0.75054 0.78806 0.0
C1634 C 0.21242 0.71966 0.78694 0.0
C1635 C 0.19574 0.6648 0.79015 0.0
C1636 C 0.20302 0.6412 0.7929 0.0
C1637 C 0.21946 0.69578 0.78811 0.0
C1638 C 0.23422 0.64862 0.79229 0.0
C1639 C 0.25791 0.6793 0.79001 0.0
H1640 H 0.24605 0.48713 0.79778 0.0
H1641 H 0.25392 0.57613 0.81061 0.0
H1642 H 0.3102 0.60091 0.80948 0.0
H1643 H 0.35694 0.59663 0.80846 0.0
H1644 H 0.34991 0.50819 0.79549 0.0
H1645 H 0.29341 0.48375 0.79353 0.0
C1646 C 0.26005 0.51201 0.80009 0.0
C1647 C 0.24564 0.52965 0.80437 0.0
C1648 C 0.29255 0.52618 0.79963 0.0
C1649 C 0.26423 0.5619 0.80723 0.0
C1650 C 0.29651 0.57613 0.8067 0.0
C1651 C 0.34329 0.57228 0.80434 0.0
C1652 C 0.35777 0.55443 0.80159 0.0
C1653 C 0.3109 0.55843 0.80331 0.0
C1654 C 0.33934 0.52249 0.79748 0.0
C1655 C 0.30705 0.50851 0.79638 0.0
H1656 H 0.42416 0.84376 0.02642 0.0
H1657 H 0.35093 0.77135 0.06421 0.0
H1658 H 0.3833 0.74805 0.07091 0.0
H1659 H 0.4315 0.74686 0.06419 0.0
H1660 H 0.50331 0.81821 0.02477 0.0
H1661 H 0.4729 0.84404 0.02127 0.0
C1662 C 0.41537 0.82311 0.03638 0.0
C1663 C 0.38492 0.80895 0.04448 0.0
C1664 C 0.43393 0.80971 0.03988 0.0
C1665 C 0.37393 0.78219 0.05731 0.0
C1666 C 0.39253 0.769 0.06125 0.0
C1667 C 0.44029 0.76782 0.05459 0.0
C1668 C 0.46919 0.78003 0.04417 0.0
C1669 C 0.42231 0.78217 0.05218 0.0
C1670 C 0.48096 0.80809 0.03274 0.0
C1671 C 0.46354 0.82283 0.03064 0.0
H1672 H 0.217 0.58554 0.03894 0.0
H1673 H 0.12103 0.55976 0.04737 0.0
H1674 H 0.13557 0.61424 0.04966 0.0
H1675 H 0.17522 0.66951 0.04613 0.0
H1676 H 0.2707 0.69448 0.03651 0.0
H1677 H 0.25681 0.64034 0.03839 0.0
C1678 C 0.1993 0.59173 0.04177 0.0
C1679 C 0.16798 0.56846 0.04288 0.0
C1680 C 0.20777 0.62315 0.0429 0.0
C1681 C 0.14535 0.5771 0.04629 0.0
C1682 C 0.15362 0.60832 0.04759 0.0
C1683 C 0.19297 0.66302 0.04485 0.0
C1684 C 0.22402 0.68611 0.04182 0.0
C1685 C 0.18469 0.63157 0.04541 0.0
C1686 C 0.2468 0.67743 0.03979 0.0
C1687 C 0.23881 0.64631 0.04051 0.0
H1688 H 0.40031 0.63368 0.0499 0.0
H1689 H 0.42522 0.56225 0.05381 0.0
H1690 H 0.37074 0.52259 0.05567 0.0
H1691 H 0.31599 0.50762 0.05159 0.0
H1692 H 0.29102 0.57873 0.04623 0.0
H1693 H 0.34518 0.61881 0.04994 0.0
C1694 C 0.39386 0.60952 0.05163 0.0
C1695 C 0.41691 0.60103 0.05139 0.0
C1696 C 0.36232 0.5866 0.05233 0.0
C1697 C 0.40803 0.56952 0.05367 0.0
C1698 C 0.37682 0.54672 0.05469 0.0
C1699 C 0.32241 0.53191 0.05169 0.0
C1700 C 0.29942 0.54008 0.04897 0.0
C1701 C 0.35376 0.55491 0.0533 0.0
C1702 C 0.30802 0.57164 0.04895 0.0
C1703 C 0.33915 0.59469 0.05077 0.0
H1704 H 0.22153 0.6294 0.53583 0.0
H1705 H 0.125 0.56262 0.5248 0.0
H1706 H 0.13675 0.52059 0.52538 0.0
H1707 H 0.17536 0.50347 0.52458 0.0
H1708 H 0.27204 0.57115 0.5334 0.0
H1709 H 0.2592 0.61167 0.53861 0.0
C1710 C 0.20293 0.60563 0.53394 0.0
C1711 C 0.17252 0.59934 0.52996 0.0
C1712 C 0.20988 0.58154 0.53389 0.0
C1713 C 0.14872 0.56828 0.52766 0.0
C1714 C 0.1554 0.54416 0.52793 0.0
C1715 C 0.19351 0.52699 0.5281 0.0
C1716 C 0.22453 0.53392 0.52906 0.0
C1717 C 0.18605 0.55062 0.53034 0.0
C1718 C 0.24785 0.56461 0.53339 0.0
C1719 C 0.24057 0.5881 0.53601 0.0
H1720 H 0.4256 0.57287 0.52233 0.0
H1721 H 0.34545 0.58484 0.52267 0.0
H1722 H 0.37898 0.64081 0.52517 0.0
H1723 H 0.43075 0.6863 0.52312 0.0
H1724 H 0.51117 0.67517 0.52096 0.0
H1725 H 0.47774 0.61872 0.52289 0.0
C1726 C 0.41539 0.58765 0.52325 0.0
C1727 C 0.38294 0.57451 0.52233 0.0
C1728 C 0.43487 0.61996 0.52408 0.0
C1729 C 0.37024 0.59413 0.52352 0.0
C1730 C 0.38944 0.62624 0.52479 0.0
C1731 C 0.44109 0.67167 0.52388 0.0
C1732 C 0.47343 0.68489 0.52242 0.0
C1733 C 0.42175 0.6394 0.52459 0.0
C1734 C 0.48632 0.66545 0.52228 0.0
C1735 C 0.46723 0.63324 0.52334 0.0
H1736 H 0.31089 0.73685 0.54541 0.0
H1737 H 0.31791 0.81912 0.51643 0.0
H1738 H 0.37415 0.84439 0.51758 0.0
H1739 H 0.42103 0.84176 0.52368 0.0
H1740 H 0.41485 0.7581 0.54899 0.0
H1741 H 0.3584 0.73432 0.55185 0.0
C1742 C 0.32459 0.75995 0.5388 0.0
C1743 C 0.30998 0.77554 0.53009 0.0
C1744 C 0.35707 0.77407 0.53879 0.0
C1745 C 0.32839 0.80632 0.52296 0.0
C1746 C 0.36062 0.82083 0.52355 0.0
C1747 C 0.40744 0.81847 0.53015 0.0
C1748 C 0.42207 0.80166 0.53609 0.0
C1749 C 0.37515 0.80472 0.53103 0.0
C1750 C 0.40407 0.77139 0.54416 0.0
C1751 C 0.37183 0.75783 0.54579 0.0
H1752 H 0.29026 0.54597 0.27185 0.0
H1753 H 0.22057 0.4528 0.28929 0.0
H1754 H 0.18146 0.46846 0.29058 0.0
H1755 H 0.16853 0.5101 0.29161 0.0
H1756 H 0.23947 0.60383 0.27679 0.0
H1757 H 0.27625 0.58648 0.26946 0.0
C1758 C 0.26652 0.52902 0.27574 0.0
C1759 C 0.25868 0.49849 0.28094 0.0
C1760 C 0.24421 0.53833 0.27699 0.0
C1761 C 0.22749 0.47661 0.28541 0.0
C1762 C 0.20503 0.48555 0.28627 0.0
C1763 C 0.19188 0.52657 0.28634 0.0
C1764 C 0.20092 0.55809 0.28436 0.0
C1765 C 0.21337 0.51658 0.28285 0.0
C1766 C 0.23135 0.57928 0.27771 0.0
C1767 C 0.25268 0.56944 0.27384 0.0
H1768 H 0.4383 0.74143 0.27914 0.0
H1769 H 0.53123 0.75915 0.29129 0.0
H1770 H 0.51352 0.70422 0.28879 0.0
H1771 H 0.47138 0.65085 0.28623 0.0
H1772 H 0.3793 0.63232 0.27026 0.0
H1773 H 0.39689 0.68753 0.27155 0.0
C1774 C 0.4547 0.7333 0.28098 0.0
C1775 C 0.48595 0.75454 0.28569 0.0
C1776 C 0.44445 0.70137 0.27936 0.0
C1777 C 0.50698 0.74352 0.28773 0.0
C1778 C 0.49689 0.71197 0.28642 0.0
C1779 C 0.45506 0.65874 0.28291 0.0
C1780 C 0.4236 0.63705 0.2795 0.0
C1781 C 0.46559 0.69065 0.28274 0.0
C1782 C 0.40319 0.64806 0.2745 0.0
C1783 C 0.41337 0.67984 0.27481 0.0
H1784 H 0.25089 0.76371 0.28764 0.0
H1785 H 0.25682 0.68004 0.28756 0.0
H1786 H 0.31312 0.71075 0.2873 0.0
H1787 H 0.36037 0.76091 0.29144 0.0
H1788 H 0.35521 0.84482 0.29256 0.0
H1789 H 0.29885 0.81441 0.28839 0.0
C1790 C 0.26446 0.75215 0.28718 0.0
C1791 C 0.24946 0.71952 0.28768 0.0
C1792 C 0.29701 0.77 0.28751 0.0
C1793 C 0.26755 0.70505 0.28715 0.0
C1794 C 0.29986 0.72262 0.28712 0.0
C1795 C 0.34718 0.77272 0.28994 0.0
C1796 C 0.36209 0.80517 0.29188 0.0
C1797 C 0.31482 0.75507 0.28784 0.0
C1798 C 0.34426 0.81986 0.29097 0.0
C1799 C 0.31205 0.80248 0.28862 0.0
H1800 H 0.03938 0.1885 0.29852 0.0
H1801 H 0.93972 0.14121 0.30413 0.0
H1802 H 0.93505 0.1391 0.26451 0.0
H1803 H 0.95954 0.1527 0.22848 0.0
H1804 H 0.05909 0.19739 0.223 0.0
H1805 H 0.06364 0.19854 0.26257 0.0
C1806 C 0.0166 0.17764 0.29107 0.0
C1807 C 0.9899 0.16534 0.30418 0.0
C1808 C 0.01416 0.1762 0.2684 0.0
C1809 C 0.96057 0.15084 0.29435 0.0
C1810 C 0.95793 0.14977 0.27174 0.0
C1811 C 0.98224 0.16271 0.23597 0.0
C1812 C 0.00901 0.17537 0.2229 0.0
C1813 C 0.98459 0.16273 0.25864 0.0
C1814 C 0.03821 0.18764 0.23275 0.0
C1815 C 0.04079 0.18833 0.25533 0.0
H1816 H 0.8073 0.85187 0.30257 0.0
H1817 H 0.85657 0.80129 0.30717 0.0
H1818 H 0.855 0.79574 0.2677 0.0
H1819 H 0.83759 0.80329 0.23218 0.0
H1820 H 0.79167 0.85698 0.22702 0.0
H1821 H 0.794 0.8635 0.26657 0.0
C1822 C 0.81781 0.83976 0.29488 0.0
C1823 C 0.83174 0.82668 0.30771 0.0
C1824 C 0.81728 0.83716 0.2722 0.0
C1825 C 0.84573 0.81152 0.29761 0.0
C1826 C 0.84472 0.80824 0.27508 0.0
C1827 C 0.82812 0.81645 0.23975 0.0
C1828 C 0.81402 0.82924 0.22688 0.0
C1829 C 0.83021 0.82062 0.26228 0.0
C1830 C 0.80248 0.84684 0.23671 0.0
C1831 C 0.80377 0.85048 0.25926 0.0
H1832 H 0.19084 0.03971 0.21295 0.0
H1833 H 0.13636 0.94008 0.20816 0.0
H1834 H 0.13438 0.93594 0.2478 0.0
H1835 H 0.15008 0.96079 0.28365 0.0
H1836 H 0.20128 0.0606 0.28836 0.0
H1837 H 0.20252 0.06468 0.24876 0.0
C1838 C 0.17847 0.01711 0.22063 0.0
C1839 C 0.16411 0.99018 0.20779 0.0
C1840 C 0.17691 0.01502 0.2433 0.0
C1841 C 0.14762 0.96106 0.2178 0.0
C1842 C 0.14659 0.95872 0.24041 0.0
C1843 C 0.16142 0.98341 0.27596 0.0
C1844 C 0.17592 0.01038 0.28878 0.0
C1845 C 0.16145 0.98554 0.25329 0.0
C1846 C 0.19002 0.03957 0.27875 0.0
C1847 C 0.19081 0.04189 0.25616 0.0
H1848 H 0.97239 0.82213 0.71963 0.0
H1849 H 0.07176 0.86655 0.71359 0.0
H1850 H 0.07685 0.86939 0.75326 0.0
H1851 H 0.05239 0.8556 0.78948 0.0
H1852 H 0.95304 0.81348 0.79503 0.0
H1853 H 0.94848 0.81337 0.75555 0.0
C1854 C 0.99519 0.83271 0.72702 0.0
C1855 C 0.02167 0.8438 0.71384 0.0
C1856 C 0.99783 0.8344 0.74965 0.0
C1857 C 0.05111 0.85792 0.72349 0.0
C1858 C 0.05395 0.85932 0.74612 0.0
C1859 C 0.02977 0.84651 0.782 0.0
C1860 C 0.003 0.83411 0.79507 0.0
C1861 C 0.0274 0.84703 0.75933 0.0
C1862 C 0.97391 0.823 0.78528 0.0
C1863 C 0.97131 0.82289 0.76274 0.0
H1864 H 0.15279 0.1991 0.78038 0.0
H1865 H 0.20192 0.1486 0.78686 0.0
H1866 H 0.20592 0.14704 0.74737 0.0
H1867 H 0.19566 0.16034 0.71109 0.0
H1868 H 0.14328 0.20755 0.70466 0.0
H1869 H 0.14031 0.21013 0.74413 0.0
C1870 C 0.16444 0.18782 0.77313 0.0
C1871 C 0.1773 0.17422 0.78647 0.0
C1872 C 0.16606 0.18645 0.75049 0.0
C1873 C 0.19185 0.15922 0.7769 0.0
C1874 C 0.19421 0.1584 0.75435 0.0
C1875 C 0.1837 0.17129 0.71836 0.0
C1876 C 0.16995 0.18402 0.70503 0.0
C1877 C 0.18147 0.17202 0.74101 0.0
C1878 C 0.15404 0.19763 0.71461 0.0
C1879 C 0.15239 0.19914 0.73715 0.0
H1880 H 0.80466 0.95638 0.7789 0.0
H1881 H 0.84494 0.05555 0.78456 0.0
H1882 H 0.84612 0.06036 0.7451 0.0
H1883 H 0.83583 0.03649 0.70913 0.0
H1884 H 0.79949 0.93795 0.70299 0.0
H1885 H 0.79673 0.93268 0.74257 0.0
C1886 C 0.81357 0.97899 0.77144 0.0
C1887 C 0.82445 0.00556 0.78455 0.0
C1888 C 0.81495 0.98166 0.74874 0.0
C1889 C 0.83645 0.0348 0.77476 0.0
C1890 C 0.83709 0.03755 0.75223 0.0
C1891 C 0.8272 0.01382 0.71646 0.0
C1892 C 0.81756 0.98757 0.70323 0.0
C1893 C 0.8264 0.01115 0.73909 0.0
C1894 C 0.807 0.95846 0.7129 0.0
C1895 C 0.80537 0.95546 0.73549 0.0
H1896 H 0.62065 0.48119 0.55018 0.0
H1897 H 0.71969 0.52466 0.54169 0.0
H1898 H 0.72671 0.52698 0.58106 0.0
H1899 H 0.70494 0.52074 0.6176 0.0
H1900 H 0.60597 0.4754 0.62653 0.0
H1901 H 0.59842 0.46918 0.58707 0.0
C1902 C 0.64374 0.49098 0.55699 0.0
C1903 C 0.66972 0.50326 0.54315 0.0
C1904 C 0.6475 0.49184 0.57957 0.0
C1905 C 0.69944 0.51525 0.55206 0.0
C1906 C 0.70343 0.51664 0.57453 0.0
C1907 C 0.68169 0.50911 0.61086 0.0
C1908 C 0.656 0.49882 0.62473 0.0
C1909 C 0.67769 0.5056 0.58838 0.0
C1910 C 0.62599 0.48341 0.61604 0.0
C1911 C 0.62175 0.4801 0.59355 0.0
H1912 H 0.46166 0.17343 0.62707 0.0
H1913 H 0.51263 0.12473 0.63288 0.0
H1914 H 0.51243 0.1194 0.59342 0.0
H1915 H 0.49828 0.12916 0.55738 0.0
H1916 H 0.45199 0.1824 0.55121 0.0
H1917 H 0.44978 0.1855 0.5908 0.0
C1918 C 0.47258 0.16154 0.61963 0.0
C1919 C 0.48689 0.1492 0.63273 0.0
C1920 C 0.47323 0.15947 0.59697 0.0
C1921 C 0.50149 0.13436 0.62303 0.0
C1922 C 0.50133 0.13129 0.60052 0.0
C1923 C 0.48756 0.14128 0.56475 0.0
C1924 C 0.47497 0.15523 0.55154 0.0
C1925 C 0.48732 0.14379 0.58736 0.0
C1926 C 0.46173 0.17145 0.56116 0.0
C1927 C 0.46045 0.17318 0.58372 0.0
H1928 H 0.84438 0.37146 0.62973 0.0
H1929 H 0.80993 0.27308 0.63459 0.0
H1930 H 0.80607 0.26824 0.59522 0.0
H1931 H 0.81617 0.29261 0.55903 0.0
H1932 H 0.85466 0.3915 0.55438 0.0
H1933 H 0.85281 0.39547 0.59376 0.0
C1934 C 0.83575 0.34895 0.62217 0.0
C1935 C 0.82767 0.32278 0.63509 0.0
C1936 C 0.83427 0.34639 0.59944 0.0
C1937 C 0.81665 0.29373 0.62502 0.0
C1938 C 0.81433 0.29087 0.60248 0.0
C1939 C 0.82355 0.31483 0.56672 0.0
C1940 C 0.83535 0.34168 0.55399 0.0
C1941 C 0.82356 0.31711 0.58948 0.0
C1942 C 0.84544 0.37053 0.56401 0.0
C1943 C 0.8445 0.37283 0.58649 0.0
H1944 H 0.62518 0.12729 0.11158 0.0
H1945 H 0.72478 0.17803 0.11745 0.0
H1946 H 0.73004 0.18132 0.078 0.0
H1947 H 0.70616 0.17015 0.04166 0.0
H1948 H 0.60665 0.11554 0.03601 0.0
H1949 H 0.60149 0.11333 0.07539 0.0
C1950 C 0.64799 0.13903 0.10417 0.0
C1951 C 0.67451 0.15253 0.11733 0.0
C1952 C 0.65086 0.14013 0.0815 0.0
C1953 C 0.70399 0.16735 0.1076 0.0
C1954 C 0.70703 0.16933 0.08506 0.0
C1955 C 0.68341 0.15778 0.04912 0.0
C1956 C 0.65686 0.14315 0.03602 0.0
C1957 C 0.68062 0.15588 0.07183 0.0
C1958 C 0.62747 0.12686 0.04581 0.0
C1959 C 0.62447 0.12566 0.06832 0.0
H1960 H 0.82716 0.52905 0.11348 0.0
H1961 H 0.87628 0.47815 0.11545 0.0
H1962 H 0.87751 0.47753 0.07576 0.0
H1963 H 0.86388 0.49083 0.04061 0.0
H1964 H 0.8114 0.53837 0.03885 0.0
H1965 H 0.8122 0.54094 0.07846 0.0
C1966 C 0.83833 0.518 0.10522 0.0
C1967 C 0.85187 0.5039 0.11735 0.0
C1968 C 0.83823 0.51706 0.08249 0.0
C1969 C 0.86574 0.48918 0.10645 0.0
C1970 C 0.86646 0.48885 0.08379 0.0
C1971 C 0.85275 0.50189 0.0489 0.0
C1972 C 0.83777 0.51459 0.03683 0.0
C1973 C 0.85269 0.50263 0.07166 0.0
C1974 C 0.82304 0.52841 0.04779 0.0
C1975 C 0.82354 0.52993 0.07041 0.0
H1976 H 0.47182 0.2953 0.0353 0.0
H1977 H 0.53028 0.3947 0.03364 0.0
H1978 H 0.53427 0.3963 0.07317 0.0
H1979 H 0.51848 0.36977 0.10833 0.0
H1980 H 0.45567 0.27098 0.11017 0.0
H1981 H 0.45592 0.2687 0.07061 0.0
C1982 C 0.48574 0.31716 0.04367 0.0
C1983 C 0.50091 0.3448 0.03175 0.0
C1984 C 0.48686 0.31803 0.06644 0.0
C1985 C 0.51844 0.37315 0.04263 0.0
C1986 C 0.52068 0.37409 0.06519 0.0
C1987 C 0.50507 0.34775 0.10003 0.0
C1988 C 0.4871 0.32063 0.11208 0.0
C1989 C 0.50457 0.34674 0.07728 0.0
C1990 C 0.46953 0.29224 0.10118 0.0
C1991 C 0.46972 0.29088 0.07858 0.0
H1992 H 0.29016 0.81671 0.88133 0.0
H1993 H 0.38977 0.86247 0.87638 0.0
H1994 H 0.39395 0.86248 0.91597 0.0
H1995 H 0.36918 0.85152 0.95188 0.0
H1996 H 0.26942 0.80255 0.9567 0.0
H1997 H 0.26525 0.80144 0.91712 0.0
C1998 C 0.31276 0.82661 0.88897 0.0
C1999 C 0.33967 0.83998 0.87611 0.0
C2000 C 0.31488 0.82591 0.9116 0.0
C2001 C 0.3688 0.85216 0.88605 0.0
C2002 C 0.37116 0.85223 0.90863 0.0
C2003 C 0.34654 0.84047 0.94422 0.0
C2004 C 0.31962 0.82744 0.95709 0.0
C2005 C 0.34437 0.83949 0.92154 0.0
C2006 C 0.29042 0.81271 0.94707 0.0
C2007 C 0.28805 0.81221 0.92449 0.0
H2008 H 0.16856 0.46598 0.88634 0.0
H2009 H 0.11377 0.51084 0.88183 0.0
H2010 H 0.10814 0.50895 0.92132 0.0
H2011 H 0.11958 0.49532 0.95708 0.0
H2012 H 0.17837 0.45489 0.96183 0.0
H2013 H 0.18171 0.45421 0.92223 0.0
C2014 C 0.15524 0.47516 0.89403 0.0
C2015 C 0.14134 0.48827 0.88126 0.0
C2016 C 0.15291 0.47482 0.91673 0.0
C2017 C 0.12464 0.50063 0.89138 0.0
C2018 C 0.12139 0.49951 0.91392 0.0
C2019 C 0.13294 0.48617 0.94941 0.0
C2020 C 0.14846 0.47487 0.96227 0.0
C2021 C 0.13551 0.48675 0.92674 0.0
C2022 C 0.16621 0.46366 0.95221 0.0
C2023 C 0.16809 0.46324 0.92961 0.0
H2024 H 0.48085 0.62396 0.96117 0.0
H2025 H 0.53087 0.72344 0.9684 0.0
H2026 H 0.53452 0.72952 0.92888 0.0
H2027 H 0.52559 0.70628 0.89243 0.0
H2028 H 0.47229 0.60686 0.88528 0.0
H2029 H 0.46758 0.60088 0.92474 0.0
C2030 C 0.49243 0.64697 0.95405 0.0
C2031 C 0.50596 0.67325 0.96756 0.0
C2032 C 0.49386 0.65021 0.93143 0.0
C2033 C 0.52037 0.70293 0.95825 0.0
C2034 C 0.52253 0.70637 0.9357 0.0
C2035 C 0.51284 0.68333 0.89956 0.0
C2036 C 0.49962 0.65699 0.88608 0.0
C2037 C 0.50972 0.68016 0.92217 0.0
C2038 C 0.48266 0.62741 0.89539 0.0
C2039 C 0.48008 0.62401 0.91791 0.0
H2040 H 0.36806 0.50475 0.43597 0.0
H2041 H 0.26854 0.44988 0.44139 0.0
H2042 H 0.26396 0.4455 0.40188 0.0
H2043 H 0.28825 0.45694 0.36597 0.0
H2044 H 0.38727 0.5156 0.36005 0.0
H2045 H 0.39221 0.51908 0.39969 0.0
C2046 C 0.34541 0.49179 0.42844 0.0
C2047 C 0.31866 0.47734 0.44148 0.0
C2048 C 0.34294 0.49015 0.40573 0.0
C2049 C 0.2894 0.46112 0.43162 0.0
C2050 C 0.2868 0.45859 0.40908 0.0
C2051 C 0.31093 0.47043 0.37339 0.0
C2052 C 0.33744 0.48568 0.36022 0.0
C2053 C 0.3134 0.47293 0.39602 0.0
C2054 C 0.3666 0.50363 0.36993 0.0
C2055 C 0.36939 0.50553 0.39254 0.0
H2056 H 0.53033 0.81732 0.44577 0.0
H2057 H 0.49152 0.87712 0.45406 0.0
H2058 H 0.48709 0.88002 0.4148 0.0
H2059 H 0.49464 0.86577 0.37786 0.0
H2060 H 0.53749 0.80957 0.36985 0.0
H2061 H 0.53976 0.80485 0.40909 0.0
C2062 C 0.52092 0.83096 0.43895 0.0
C2063 C 0.51124 0.84691 0.45275 0.0
C2064 C 0.51905 0.83309 0.41637 0.0
C2065 C 0.49934 0.86478 0.44373 0.0
C2066 C 0.49666 0.86635 0.42129 0.0
C2067 C 0.50426 0.85239 0.3848 0.0
C2068 C 0.51571 0.83791 0.3711 0.0
C2069 C 0.50643 0.85059 0.40743 0.0
C2070 C 0.5286 0.82098 0.38016 0.0
C2071 C 0.5299 0.81825 0.40257 0.0
H2072 H 0.19499 0.67712 0.37338 0.0
H2073 H 0.10074 0.65674 0.36528 0.0
H2074 H 0.09509 0.65862 0.40464 0.0
H2075 H 0.11674 0.66516 0.44118 0.0
H2076 H 0.21212 0.68896 0.44954 0.0
H2077 H 0.21793 0.68737 0.4102 0.0
C2078 C 0.17324 0.67294 0.38038 0.0
C2079 C 0.14806 0.66621 0.36676 0.0
C2080 C 0.17057 0.67506 0.40292 0.0
C2081 C 0.12018 0.66157 0.37568 0.0
C2082 C 0.11703 0.66277 0.39809 0.0
C2083 C 0.13888 0.67023 0.43438 0.0
C2084 C 0.16391 0.67699 0.44823 0.0
C2085 C 0.14205 0.66943 0.41184 0.0
C2086 C 0.19256 0.68387 0.4392 0.0
C2087 C 0.19581 0.6827 0.41673 0.0
H2088 H 0.06396 0.3537 0.05566 0.0
H2089 H 0.13937 0.4014 0.10081 0.0
H2090 H 0.12075 0.3537 0.12188 0.0
H2091 H 0.08211 0.29852 0.12795 0.0
H2092 H 0.00396 0.25246 0.08491 0.0
H2093 H 0.02407 0.29947 0.06267 0.0
C2094 C 0.07609 0.35376 0.07027 0.0
C2095 C 0.10314 0.38102 0.07659 0.0
C2096 C 0.06465 0.32653 0.08267 0.0
C2097 C 0.11884 0.38057 0.09538 0.0
C2098 C 0.10807 0.35337 0.10751 0.0
C2099 C 0.06967 0.29891 0.11364 0.0
C2100 C 0.0418 0.27227 0.10787 0.0
C2101 C 0.08097 0.32623 0.10134 0.0
C2102 C 0.02551 0.27285 0.08952 0.0
C2103 C 0.037 0.29966 0.07686 0.0
H2104 H 0.63447 0.724 0.05535 0.0
H2105 H 0.57786 0.69572 0.11283 0.0
H2106 H 0.62444 0.71956 0.13565 0.0
H2107 H 0.68144 0.74891 0.1391 0.0
H2108 H 0.73812 0.77808 0.08165 0.0
H2109 H 0.69156 0.75368 0.05882 0.0
C2110 C 0.63253 0.72308 0.07288 0.0
C2111 C 0.60306 0.7083 0.08254 0.0
C2112 C 0.65938 0.73711 0.0858 0.0
C2113 C 0.60048 0.70717 0.10519 0.0
C2114 C 0.62704 0.72076 0.11818 0.0
C2115 C 0.68342 0.74987 0.12157 0.0
C2116 C 0.7129 0.76534 0.11194 0.0
C2117 C 0.6566 0.73588 0.10865 0.0
C2118 C 0.7155 0.76655 0.08929 0.0
C2119 C 0.68895 0.7525 0.07629 0.0
H2120 H 0.24021 0.96964 0.07341 0.0
H2121 H 0.19932 0.90494 0.12608 0.0
H2122 H 0.22215 0.87456 0.1124 0.0
H2123 H 0.25526 0.86748 0.08593 0.0
H2124 H 0.2924 0.92978 0.03152 0.0
H2125 H 0.27 0.96023 0.04539 0.0
C2126 C 0.23631 0.9488 0.08174 0.0
C2127 C 0.21839 0.93944 0.10069 0.0
C2128 C 0.24901 0.9312 0.07353 0.0
C2129 C 0.21312 0.91239 0.11141 0.0
C2130 C 0.22619 0.89511 0.10363 0.0
C2131 C 0.25798 0.88743 0.07697 0.0
C2132 C 0.27571 0.89655 0.05787 0.0
C2133 C 0.24431 0.90437 0.08475 0.0
C2134 C 0.27937 0.92265 0.04651 0.0
C2135 C 0.26641 0.93998 0.05435 0.0
H2136 H 0.27583 0.07152 0.42054 0.0
H2137 H 0.30593 0.03909 0.36601 0.0
H2138 H 0.3576 0.06068 0.38191 0.0
H2139 H 0.39424 0.08837 0.41175 0.0
H2140 H 0.36531 0.12415 0.46485 0.0
H2141 H 0.31339 0.10225 0.44905 0.0
C2142 C 0.29389 0.06967 0.41201 0.0
C2143 C 0.2871 0.05361 0.39224 0.0
C2144 C 0.32373 0.08274 0.42103 0.0
C2145 C 0.31054 0.05098 0.38145 0.0
C2146 C 0.34011 0.06342 0.39047 0.0
C2147 C 0.37646 0.09133 0.41971 0.0
C2148 C 0.38319 0.10755 0.43937 0.0
C2149 C 0.34693 0.07917 0.41033 0.0
C2150 C 0.36035 0.11164 0.44964 0.0
C2151 C 0.33076 0.09913 0.44065 0.0
H2152 H 0.93994 0.31788 0.44391 0.0
H2153 H 0.84857 0.23681 0.44642 0.0
H2154 H 0.86725 0.20755 0.42637 0.0
H2155 H 0.91002 0.20459 0.40869 0.0
H2156 H 0.00364 0.27934 0.41918 0.0
H2157 H 0.98384 0.31119 0.43408 0.0
C2158 C 0.92403 0.29357 0.44106 0.0
C2159 C 0.89245 0.28026 0.44667 0.0
C2160 C 0.93558 0.2756 0.43167 0.0
C2161 C 0.87256 0.24873 0.44155 0.0
C2162 C 0.88342 0.23153 0.43041 0.0
C2163 C 0.92637 0.22735 0.41484 0.0
C2164 C 0.95852 0.23956 0.41196 0.0
C2165 C 0.91498 0.24468 0.4255 0.0
C2166 C 0.97881 0.26962 0.41985 0.0
C2167 C 0.9675 0.28782 0.4288 0.0
H2168 H 0.75043 0.70073 0.38816 0.0
H2169 H 0.7894 0.74312 0.44972 0.0
H2170 H 0.7629 0.69216 0.46738 0.0
H2171 H 0.72865 0.63534 0.4651 0.0
H2172 H 0.69052 0.59285 0.40345 0.0
H2173 H 0.71644 0.64393 0.38584 0.0
C2174 C 0.75297 0.69864 0.40544 0.0
C2175 C 0.77181 0.72534 0.41771 0.0
C2176 C 0.73779 0.66933 0.41536 0.0
C2177 C 0.77519 0.72267 0.44003 0.0
C2178 C 0.75998 0.69363 0.45009 0.0
C2179 C 0.7261 0.63749 0.44782 0.0
C2180 C 0.70783 0.61078 0.43545 0.0
C2181 C 0.74127 0.6668 0.43791 0.0
C2182 C 0.70454 0.61337 0.41313 0.0
C2183 C 0.71933 0.64246 0.40313 0.0
H2184 H 0.91752 0.70234 0.88134 0.0
H2185 H 0.99376 0.73768 0.92634 0.0
H2186 H 0.97032 0.68731 0.94471 0.0
H2187 H 0.92805 0.63318 0.94786 0.0
H2188 H 0.85336 0.59679 0.90147 0.0
H2189 H 0.87597 0.64753 0.88381 0.0
C2190 C 0.92876 0.69892 0.89527 0.0
C2191 C 0.95711 0.7235 0.90266 0.0
C2192 C 0.91545 0.66974 0.90541 0.0
C2193 C 0.97184 0.71893 0.92049 0.0
C2194 C 0.95849 0.69019 0.93093 0.0
C2195 C 0.91698 0.63627 0.9337 0.0
C2196 C 0.88906 0.61132 0.92598 0.0
C2197 C 0.93038 0.66537 0.92346 0.0
C2198 C 0.87471 0.61578 0.90783 0.0
C2199 C 0.88766 0.64474 0.89771 0.0
H2200 H 0.27275 0.20904 0.91632 0.0
H2201 H 0.29365 0.2753 0.86493 0.0
H2202 H 0.34672 0.30626 0.8781 0.0
H2203 H 0.38739 0.31486 0.90453 0.0
H2204 H 0.36822 0.24634 0.95378 0.0
H2205 H 0.31461 0.21548 0.94097 0.0
C2206 C 0.28906 0.23008 0.9079 0.0
C2207 C 0.27911 0.24019 0.88996 0.0
C2208 C 0.31991 0.24725 0.91514 0.0
C2209 C 0.30047 0.2675 0.87919 0.0
C2210 C 0.33092 0.28508 0.88657 0.0
C2211 C 0.37138 0.29308 0.91231 0.0
C2212 C 0.38134 0.28279 0.93006 0.0
C2213 C 0.34087 0.2753 0.90461 0.0
C2214 C 0.36078 0.25451 0.94003 0.0
C2215 C 0.3302 0.23699 0.93276 0.0
H2216 H 0.69301 0.08634 0.90173 0.0
H2217 H 0.75733 0.12751 0.95464 0.0
H2218 H 0.78669 0.10312 0.94191 0.0
H2219 H 0.79282 0.0683 0.91639 0.0
H2220 H 0.72927 0.02846 0.86287 0.0
H2221 H 0.70035 0.05329 0.8754 0.0
C2222 C 0.71358 0.09004 0.91033 0.0
C2223 C 0.72312 0.10868 0.92901 0.0
C2224 C 0.73014 0.07576 0.903 0.0
C2225 C 0.74981 0.11349 0.94007 0.0
C2226 C 0.76642 0.09936 0.9329 0.0
C2227 C 0.77276 0.0653 0.90743 0.0
C2228 C 0.76302 0.04641 0.88885 0.0
C2229 C 0.75664 0.08021 0.91449 0.0
C2230 C 0.73688 0.04247 0.87744 0.0
C2231 C 0.7205 0.05687 0.88449 0.0
H2232 H 0.63782 0.9189 0.5406 0.0
H2233 H 0.59791 0.84304 0.58599 0.0
H2234 H 0.64778 0.86419 0.6048 0.0
H2235 H 0.70221 0.90598 0.60936 0.0
H2236 H 0.74094 0.98309 0.56499 0.0
H2237 H 0.69214 0.95998 0.54472 0.0
C2238 C 0.64011 0.90711 0.55466 0.0
C2239 C 0.61439 0.87954 0.56197 0.0
C2240 C 0.66861 0.91969 0.56553 0.0
C2241 C 0.61758 0.86419 0.58001 0.0
C2242 C 0.646 0.87634 0.59079 0.0
C2243 C 0.69992 0.91738 0.59507 0.0
C2244 C 0.72489 0.94603 0.58852 0.0
C2245 C 0.67162 0.90423 0.58381 0.0
C2246 C 0.72184 0.96096 0.57021 0.0
C2247 C 0.694 0.94782 0.55869 0.0
H2248 H 0.1007 0.80241 0.60421 0.0
H2249 H 0.00632 0.72724 0.59832 0.0
H2250 H 0.02418 0.69566 0.58036 0.0
H2251 H 0.06662 0.68905 0.56688 0.0
H2252 H 0.1578 0.76977 0.56135 0.0
H2253 H 0.14148 0.79924 0.58357 0.0
C2254 C 0.08382 0.7795 0.59855 0.0
C2255 C 0.05219 0.76699 0.60358 0.0
C2256 C 0.0939 0.7622 0.58642 0.0
C2257 C 0.03097 0.73703 0.596 0.0
C2258 C 0.04111 0.71899 0.58534 0.0
C2259 C 0.08289 0.71331 0.56969 0.0
C2260 C 0.11377 0.72655 0.56252 0.0
C2261 C 0.07257 0.73127 0.58058 0.0
C2262 C 0.13435 0.75801 0.56739 0.0
C2263 C 0.12483 0.7753 0.57979 0.0
H2264 H 0.20686 0.27023 0.5652 0.0
H2265 H 0.26106 0.30297 0.62371 0.0
H2266 H 0.28951 0.35545 0.60881 0.0
H2267 H 0.2985 0.39239 0.57921 0.0
H2268 H 0.24141 0.36065 0.52204 0.0
H2269 H 0.21389 0.30765 0.53645 0.0
C2270 C 0.22443 0.289 0.57484 0.0
C2271 C 0.23169 0.28282 0.59558 0.0
C2272 C 0.24005 0.31931 0.56641 0.0
C2273 C 0.25524 0.30716 0.60762 0.0
C2274 C 0.27139 0.33719 0.59917 0.0
C2275 C 0.27992 0.37377 0.57005 0.0
C2276 C 0.2718 0.38011 0.5497 0.0
C2277 C 0.26395 0.34357 0.57861 0.0
C2278 C 0.24778 0.35608 0.53783 0.0
C2279 C 0.23217 0.32586 0.54603 0.0
H2280 H 0.03068 0.40687 0.78997 0.0
H2281 H 0.07114 0.48002 0.74251 0.0
H2282 H 0.02107 0.45876 0.724 0.0
H2283 H 0.96578 0.41869 0.72107 0.0
H2284 H 0.92616 0.34428 0.76759 0.0
H2285 H 0.97586 0.36643 0.78671 0.0
C2286 C 0.02857 0.41788 0.77542 0.0
C2287 C 0.05448 0.44487 0.76752 0.0
C2288 C -0.00015 0.40532 0.76478 0.0
C2289 C 0.05138 0.45928 0.74889 0.0
C2290 C 0.02282 0.44713 0.73832 0.0
C2291 C 0.96813 0.40757 0.73549 0.0
C2292 C 0.94259 0.38002 0.74302 0.0
C2293 C 0.99689 0.42016 0.74612 0.0
C2294 C 0.94571 0.36549 0.76155 0.0
C2295 C 0.97406 0.37812 0.77244 0.0
H2296 H 0.58314 0.53608 0.7406 0.0
H2297 H 0.67165 0.62068 0.7379 0.0
H2298 H 0.64937 0.64859 0.75566 0.0
H2299 H 0.60425 0.64931 0.77078 0.0
H2300 H 0.521 0.56225 0.78366 0.0
H2301 H 0.54153 0.53497 0.76288 0.0
C2302 C 0.59798 0.56036 0.74439 0.0
C2303 C 0.6289 0.57629 0.73698 0.0
C2304 C 0.58569 0.57596 0.7562 0.0
C2305 C 0.64735 0.60796 0.74213 0.0
C2306 C 0.63474 0.62397 0.75265 0.0
C2307 C 0.59079 0.62429 0.76982 0.0
C2308 C 0.56063 0.60824 0.77856 0.0
C2309 C 0.6038 0.60826 0.75953 0.0
C2310 C 0.54361 0.57573 0.77633 0.0
C2311 C 0.5556 0.5599 0.76475 0.0
H2312 H 0.42075 0.96997 0.79055 0.0
H2313 H 0.35345 0.92797 0.73946 0.0
H2314 H 0.37535 0.97796 0.7207 0.0
H2315 H 0.41248 0.03394 0.71966 0.0
H2316 H 0.47772 0.07686 0.77187 0.0
H2317 H 0.45807 0.02629 0.78947 0.0
C2318 C 0.41134 0.9719 0.77514 0.0
C2319 C 0.38596 0.94564 0.7661 0.0
C2320 C 0.4235 0.00083 0.76486 0.0
C2321 C 0.37329 0.94808 0.74642 0.0
C2322 C 0.38566 0.97659 0.73583 0.0
C2323 C 0.42217 0.03215 0.73497 0.0
C2324 C 0.44639 0.05887 0.74455 0.0
C2325 C 0.41048 0.00318 0.74505 0.0
C2326 C 0.45914 0.05641 0.76422 0.0
C2327 C 0.4479 0.02758 0.77426 0.0
H2328 H 0.63367 0.06007 0.25353 0.0
H2329 H 0.57491 0.03168 0.19712 0.0
H2330 H 0.54441 0.97906 0.21176 0.0
H2331 H 0.53632 0.94039 0.23994 0.0
H2332 H 0.59498 0.96929 0.29645 0.0
H2333 H 0.62367 0.02235 0.28261 0.0
C2334 C 0.61407 0.04229 0.24458 0.0
C2335 C 0.60643 0.04946 0.22436 0.0
C2336 C 0.59673 0.01222 0.25311 0.0
C2337 C 0.58099 0.02651 0.21281 0.0
C2338 C 0.56365 0.99648 0.22114 0.0
C2339 C 0.55505 0.95851 0.2493 0.0
C2340 C 0.5637 0.95112 0.26909 0.0
C2341 C 0.57148 0.98897 0.24119 0.0
C2342 C 0.58816 0.97457 0.28108 0.0
C2343 C 0.60455 0.00485 0.27318 0.0
H2344 H 0.96852 0.54293 0.20917 0.0
H2345 H 0.92785 0.57791 0.25476 0.0
H2346 H 0.97759 0.60697 0.27363 0.0
H2347 H 0.03284 0.62272 0.27693 0.0
H2348 H 0.07374 0.58812 0.23124 0.0
H2349 H 0.02375 0.55825 0.21275 0.0
C2350 C 0.97058 0.55668 0.22338 0.0
C2351 C 0.94469 0.55833 0.23065 0.0
C2352 C -0.00072 0.57338 0.23405 0.0
C2353 C 0.9476 0.57647 0.24888 0.0
C2354 C 0.97598 0.59304 0.25965 0.0
C2355 C 0.03078 0.60881 0.26282 0.0
C2356 C 0.05685 0.60766 0.25534 0.0
C2357 C 0.00203 0.59182 0.2523 0.0
C2358 C 0.05388 0.58921 0.23727 0.0
C2359 C 0.02536 0.57221 0.22671 0.0
H2360 H 0.40679 0.37588 0.19497 0.0
H2361 H 0.4754 0.40181 0.24529 0.0
H2362 H 0.45467 0.43109 0.2638 0.0
H2363 H 0.41497 0.44678 0.26671 0.0
H2364 H 0.34353 0.4168 0.21823 0.0
H2365 H 0.36711 0.39143 0.19789 0.0
C2366 C 0.41711 0.38793 0.21001 0.0
C2367 C 0.44268 0.38694 0.21871 0.0
C2368 C 0.40447 0.40388 0.22084 0.0
C2369 C 0.45603 0.40274 0.23812 0.0
C2370 C 0.44405 0.41927 0.24877 0.0
C2371 C 0.40496 0.435 0.25153 0.0
C2372 C 0.37792 0.43375 0.2437 0.0
C2373 C 0.41811 0.41976 0.24039 0.0
C2374 C 0.36456 0.4181 0.2243 0.0
C2375 C 0.37795 0.40356 0.21279 0.0
H2376 H 0.89343 0.18338 0.18847 0.0
H2377 H 0.85809 0.14228 0.12573 0.0
H2378 H 0.80644 0.13189 0.13604 0.0
H2379 H 0.77167 0.13473 0.16263 0.0
H2380 H 0.80692 0.17652 0.22521 0.0
H2381 H 0.85837 0.1857 0.21531 0.0
C2382 C 0.87451 0.17236 0.17697 0.0
C2383 C 0.87962 0.16375 0.15631 0.0
C2384 C 0.84486 0.16614 0.18308 0.0
C2385 C 0.85479 0.14925 0.14169 0.0
C2386 C 0.82523 0.14315 0.14761 0.0
C2387 C 0.79047 0.14553 0.17425 0.0
C2388 C 0.78547 0.15491 0.19465 0.0
C2389 C 0.82001 0.15136 0.16828 0.0
C2390 C 0.81016 0.16903 0.20942 0.0
C2391 C 0.83961 0.17447 0.20372 0.0
H2392 H 0.78818 0.60122 0.19886 0.0
H2393 H 0.87485 0.63181 0.1653 0.0
H2394 H 0.87418 0.67779 0.15253 0.0
H2395 H 0.8488 0.70887 0.15041 0.0
H2396 H 0.76291 0.67945 0.18458 0.0
H2397 H 0.76325 0.63309 0.19737 0.0
C2398 C 0.80706 0.61807 0.18891 0.0
C2399 C 0.83148 0.61303 0.18301 0.0
C2400 C 0.80647 0.6444 0.18149 0.0
C2401 C 0.85574 0.63508 0.17007 0.0
C2402 C 0.85533 0.66133 0.16267 0.0
C2403 C 0.82996 0.69215 0.16046 0.0
C2404 C 0.80572 0.69737 0.16639 0.0
C2405 C 0.83067 0.66603 0.1681 0.0
C2406 C 0.78176 0.67581 0.17974 0.0
C2407 C 0.78202 0.64941 0.18712 0.0
H2408 H 0.36689 0.22093 0.1493 0.0
H2409 H 0.36276 0.18698 0.21431 0.0
H2410 H 0.32234 0.13526 0.20316 0.0
H2411 H 0.28894 0.09966 0.17487 0.0
H2412 H 0.29331 0.13362 0.10982 0.0
H2413 H 0.33352 0.18536 0.12103 0.0
C2414 C 0.3569 0.20234 0.16113 0.0
C2415 C 0.36771 0.20785 0.18265 0.0
C2416 C 0.33418 0.17258 0.15451 0.0
C2417 C 0.35476 0.18338 0.19767 0.0
C2418 C 0.3318 0.15377 0.19127 0.0
C2419 C 0.29891 0.11827 0.16305 0.0
C2420 C 0.28822 0.11273 0.14149 0.0
C2421 C 0.32161 0.14804 0.16968 0.0
C2422 C 0.3012 0.13721 0.12648 0.0
C2423 C 0.32404 0.16685 0.13291 0.0
H2424 H 0.13521 0.86396 0.31044 0.0
H2425 H 0.21614 0.90525 0.35168 0.0
H2426 H 0.22213 0.85989 0.34687 0.0
H2427 H 0.20388 0.80831 0.33168 0.0
H2428 H 0.1228 0.76651 0.29064 0.0
H2429 H 0.11749 0.81253 0.29459 0.0
C2430 C 0.1542 0.86308 0.31835 0.0
C2431 C 0.17512 0.8879 0.33146 0.0
C2432 C 0.15749 0.83691 0.31556 0.0
C2433 C 0.19965 0.88643 0.34155 0.0
C2434 C 0.20311 0.86051 0.33881 0.0
C2435 C 0.18506 0.80923 0.32353 0.0
C2436 C 0.16371 0.78399 0.31095 0.0
C2437 C 0.18208 0.83558 0.32596 0.0
C2438 C 0.13954 0.78564 0.30045 0.0
C2439 C 0.13646 0.8119 0.30272 0.0
H2440 H 0.18397 0.37568 0.30443 0.0
H2441 H 0.24141 0.33353 0.30433 0.0
H2442 H 0.19973 0.28698 0.32172 0.0
H2443 H 0.14735 0.25904 0.33741 0.0
H2444 H 0.09189 0.30344 0.34003 0.0
H2445 H 0.13276 0.34883 0.32147 0.0
C2446 C 0.18713 0.35607 0.30795 0.0
C2447 C 0.21527 0.35752 0.30282 0.0
C2448 C 0.16371 0.33019 0.31867 0.0
C2449 C 0.21965 0.33254 0.30799 0.0
C2450 C 0.19596 0.30612 0.31799 0.0
C2451 C 0.14431 0.27873 0.33398 0.0
C2452 C 0.1167 0.27794 0.33999 0.0
C2453 C 0.168 0.30483 0.32354 0.0
C2454 C 0.11306 0.30363 0.33566 0.0
C2455 C 0.13629 0.32947 0.32492 0.0
H2456 H 0.73643 0.87474 0.33089 0.0
H2457 H 0.69374 0.79369 0.372 0.0
H2458 H 0.64254 0.78551 0.3628 0.0
H2459 H 0.61012 0.80115 0.34307 0.0
H2460 H 0.65249 0.8823 0.30209 0.0
H2461 H 0.70385 0.89054 0.31119 0.0
C2462 C 0.71595 0.85534 0.3379 0.0
C2463 C 0.71886 0.83487 0.35211 0.0
C2464 C 0.68662 0.85069 0.33248 0.0
C2465 C 0.6921 0.80981 0.36103 0.0
C2466 C 0.66283 0.80506 0.35575 0.0
C2467 C 0.63055 0.82059 0.33604 0.0
C2468 C 0.62754 0.84105 0.3219 0.0
C2469 C 0.65986 0.8253 0.34145 0.0
C2470 C 0.65424 0.8662 0.31301 0.0
C2471 C 0.68358 0.87096 0.31823 0.0
H2472 H 0.23353 0.86099 0.84665 0.0
H2473 H 0.19585 0.83333 0.78217 0.0
H2474 H 0.14495 0.82188 0.79532 0.0
H2475 H 0.11116 0.81863 0.82514 0.0
H2476 H 0.14873 0.84631 0.88964 0.0
H2477 H 0.19979 0.85819 0.87645 0.0
C2478 C 0.21431 0.85282 0.83538 0.0
C2479 C 0.21849 0.84808 0.81343 0.0
C2480 C 0.18505 0.84572 0.84312 0.0
C2481 C 0.19326 0.83724 0.79912 0.0
C2482 C 0.16412 0.83049 0.80665 0.0
C2483 C 0.1304 0.82695 0.83641 0.0
C2484 C 0.12612 0.83142 0.85839 0.0
C2485 C 0.1597 0.83427 0.82866 0.0
C2486 C 0.1514 0.84254 0.87268 0.0
C2487 C 0.18062 0.84952 0.86512 0.0
H2488 H 0.18468 0.29717 0.82055 0.0
H2489 H 0.13576 0.29003 0.88004 0.0
H2490 H 0.12847 0.33286 0.86853 0.0
H2491 H 0.13593 0.37205 0.8417 0.0
H2492 H 0.1853 0.37974 0.78235 0.0
H2493 H 0.19192 0.33632 0.79357 0.0
C2494 C 0.17261 0.30511 0.83109 0.0
C2495 C 0.16087 0.29051 0.85116 0.0
C2496 C 0.16821 0.32946 0.82428 0.0
C2497 C 0.14511 0.30094 0.86454 0.0
C2498 C 0.14079 0.32531 0.85793 0.0
C2499 C 0.14787 0.36407 0.83108 0.0
C2500 C 0.16005 0.37904 0.81119 0.0
C2501 C 0.15209 0.33958 0.83779 0.0
C2502 C 0.17566 0.36855 0.79772 0.0
C2503 C 0.17959 0.34385 0.80418 0.0
H2504 H 0.71207 0.88571 0.82177 0.0
H2505 H 0.7135 0.85565 0.88717 0.0
H2506 H 0.67141 0.80359 0.87828 0.0
H2507 H 0.63407 0.76691 0.85203 0.0
H2508 H 0.63328 0.79704 0.78651 0.0
H2509 H 0.67579 0.84874 0.79531 0.0
C2510 C 0.70303 0.86786 0.83415 0.0
C2511 C 0.71569 0.8746 0.85516 0.0
C2512 C 0.67926 0.83793 0.82884 0.0
C2513 C 0.70403 0.85108 0.8709 0.0
C2514 C 0.68007 0.82129 0.86581 0.0
C2515 C 0.64337 0.78467 0.83959 0.0
C2516 C 0.63044 0.77809 0.81864 0.0
C2517 C 0.66758 0.81445 0.84482 0.0
C2518 C 0.64278 0.80144 0.80276 0.0
C2519 C 0.66699 0.83107 0.8078 0.0
H2520 H 0.85807 0.13146 0.68255 0.0
H2521 H 0.77648 0.09133 0.64199 0.0
H2522 H 0.76965 0.13589 0.649 0.0
H2523 H 0.78744 0.18648 0.66608 0.0
H2524 H 0.86959 0.22688 0.7061 0.0
H2525 H 0.87553 0.18167 0.69988 0.0
C2526 C 0.83873 0.13238 0.67526 0.0
C2527 C 0.81784 0.10816 0.66174 0.0
C2528 C 0.83506 0.15804 0.67926 0.0
C2529 C 0.79293 0.10972 0.65242 0.0
C2530 C 0.789 0.13516 0.65643 0.0
C2531 C 0.80658 0.18536 0.67354 0.0
C2532 C 0.82805 0.20999 0.68653 0.0
C2533 C 0.81 0.15948 0.66975 0.0
C2534 C 0.85277 0.20823 0.69601 0.0
C2535 C 0.85619 0.18242 0.69246 0.0
H2536 H 0.86537 0.71911 0.63479 0.0
H2537 H 0.9161 0.6993 0.68286 0.0
H2538 H 0.86748 0.66018 0.69921 0.0
H2539 H 0.81084 0.63216 0.70004 0.0
H2540 H 0.75994 0.65145 0.65183 0.0
H2541 H 0.80859 0.69093 0.63559 0.0
C2542 C 0.86579 0.70594 0.64866 0.0
C2543 C 0.89423 0.71195 0.65756 0.0
C2544 C 0.83783 0.68392 0.65819 0.0
C2545 C 0.89444 0.695 0.6757 0.0
C2546 C 0.86669 0.6728 0.68514 0.0
C2547 C 0.81037 0.64532 0.68618 0.0
C2548 C 0.78192 0.63911 0.67722 0.0
C2549 C 0.8383 0.66735 0.67666 0.0
C2550 C 0.78164 0.65598 0.65905 0.0
C2551 C 0.80939 0.67835 0.64968 0.0
H2552 H 0.39153 0.19903 0.66024 0.0
H2553 H 0.35135 0.11941 0.70268 0.0
H2554 H 0.30018 0.11406 0.6977 0.0
H2555 H 0.26705 0.13193 0.68114 0.0
H2556 H 0.30762 0.2116 0.63871 0.0
H2557 H 0.35864 0.21695 0.64387 0.0
C2558 C 0.37162 0.18049 0.66843 0.0
C2559 C 0.37523 0.15964 0.6818 0.0
C2560 C 0.3424 0.17754 0.66548 0.0
C2561 C 0.34918 0.13578 0.6923 0.0
C2562 C 0.31993 0.1327 0.68945 0.0
C2563 C 0.28703 0.15046 0.673 0.0
C2564 C 0.28353 0.1713 0.65954 0.0
C2565 C 0.3163 0.15343 0.67605 0.0
C2566 C 0.30967 0.19521 0.64914 0.0
C2567 C 0.33885 0.1983 0.65208 0.0
H2568 H 0.43439 0.47558 0.48012 0.0
H2569 H 0.46283 0.50463 0.54616 0.0
H2570 H 0.5152 0.51537 0.53754 0.0
H2571 H 0.5529 0.51713 0.51115 0.0
H2572 H 0.52435 0.4886 0.44503 0.0
H2573 H 0.47201 0.47758 0.45376 0.0
C2574 C 0.45192 0.48394 0.49272 0.0
C2575 C 0.44468 0.48914 0.51379 0.0
C2576 C 0.48204 0.49062 0.48756 0.0
C2577 C 0.46779 0.50033 0.52983 0.0
C2578 C 0.49776 0.50663 0.52489 0.0
C2579 C 0.53532 0.50877 0.49858 0.0
C2580 C 0.54255 0.50377 0.47745 0.0
C2581 C 0.5052 0.50213 0.50376 0.0
C2582 C 0.51943 0.49273 0.46141 0.0
C2583 C 0.48945 0.48626 0.46641 0.0
H2584 H 0.52433 0.05465 0.52335 0.0
H2585 H 0.44341 0.01628 0.48214 0.0
H2586 H 0.44078 0.96596 0.48277 0.0
H2587 H 0.46197 0.93336 0.49437 0.0
H2588 H 0.54328 0.97172 0.53517 0.0
H2589 H 0.5452 0.02177 0.53534 0.0
C2590 C 0.50603 0.03527 0.51456 0.0
C2591 C 0.48411 0.03921 0.5027 0.0
C2592 C 0.50477 0.00651 0.51487 0.0
C2593 C 0.46059 0.01387 0.49137 0.0
C2594 C 0.45908 0.98511 0.49171 0.0
C2595 C 0.48012 0.95262 0.50335 0.0
C2596 C 0.50249 0.94885 0.51471 0.0
C2597 C 0.48114 0.98125 0.5033 0.0
C2598 C 0.52581 0.97405 0.52626 0.0
C2599 C 0.52692 0.00265 0.52637 0.0
H2600 H 0.96411 0.44692 0.52006 0.0
H2601 H 0.97426 0.46473 0.45119 0.0
H2602 H 0.01188 0.51922 0.45804 0.0
H2603 H 0.0409 0.56182 0.48352 0.0
H2604 H 0.0311 0.54405 0.55238 0.0
H2605 H 0.99358 0.48946 0.54556 0.0
C2606 C 0.97484 0.46259 0.50651 0.0
C2607 C 0.96645 0.45173 0.48513 0.0
C2608 C 0.99595 0.49396 0.51057 0.0
C2609 C 0.98038 0.47246 0.4678 0.0
C2610 C 0.00171 0.50366 0.4717 0.0
C2611 C 0.03026 0.54613 0.49707 0.0
C2612 C 0.03856 0.55703 0.51845 0.0
C2613 C 0.00932 0.51472 0.49302 0.0
C2614 C 0.02493 0.53626 0.53579 0.0
C2615 C 0.00367 0.50502 0.53189 0.0
H2616 H 0.46736 0.43825 0.00538 0.0
H2617 H 0.50009 0.48483 0.94387 0.0
H2618 H 0.51213 0.53404 0.96068 0.0
H2619 H 0.51482 0.5639 0.99291 0.0
H2620 H 0.48191 0.51745 0.05441 0.0
H2621 H 0.46917 0.468 0.03752 0.0
C2622 C 0.47675 0.45906 0.99554 0.0
C2623 C 0.4828 0.45785 0.97337 0.0
C2624 C 0.4842 0.48733 0.00539 0.0
C2625 C 0.49514 0.4851 0.96095 0.0
C2626 C 0.50225 0.51328 0.97058 0.0
C2627 C 0.50521 0.54305 0.00272 0.0
C2628 C 0.49959 0.54438 0.02495 0.0
C2629 C 0.49734 0.51471 0.99284 0.0
C2630 C 0.48665 0.51705 0.03731 0.0
C2631 C 0.47916 0.48877 0.02764 0.0
H2632 H 0.51116 0.05124 0.9732 0.0
H2633 H 0.56818 0.00944 0.96407 0.0
H2634 H 0.52506 0.95912 0.97549 0.0
H2635 H 0.47188 0.9278 0.98925 0.0
H2636 H 0.41646 0.97097 0.00061 0.0
H2637 H 0.45857 0.02033 0.98729 0.0
C2638 C 0.51404 0.03103 0.97342 0.0
C2639 C 0.5426 0.03384 0.96762 0.0
C2640 C 0.48965 0.00266 0.98066 0.0
C2641 C 0.54627 0.00767 0.96839 0.0
C2642 C 0.52171 0.97902 0.97498 0.0
C2643 C 0.46903 0.94802 0.98879 0.0
C2644 C 0.44115 0.9458 0.99587 0.0
C2645 C 0.49343 0.97636 0.98139 0.0
C2646 C 0.4378 0.97218 0.99535 0.0
C2647 C 0.46177 0.00034 0.98765 0.0
H2648 H 0.04209 0.52367 0.02204 0.0
H2649 H 0.00211 0.42461 0.01585 0.0
H2650 H 0.95541 0.42073 0.99955 0.0
H2651 H 0.92599 0.44567 0.98766 0.0
H2652 H 0.96761 0.54516 0.992 0.0
H2653 H 0.01415 0.54885 0.00812 0.0
C2654 C 0.023 0.50118 0.01734 0.0
C2655 C 0.02511 0.47435 0.0205 0.0
C2656 C 0.99685 0.49933 0.00742 0.0
C2657 C 0.00069 0.44548 0.01378 0.0
C2658 C 0.97414 0.44331 0.0044 0.0
C2659 C 0.94537 0.46817 0.992 0.0
C2660 C 0.94338 0.49509 0.9888 0.0
C2661 C 0.97201 0.4701 0.00117 0.0
C2662 C 0.9687 0.52414 0.99422 0.0
C2663 C 0.99518 0.52623 0.0036 0.0
loop_
_geom_bond_atom_site_label_1
_geom_bond_atom_site_label_2
_geom_bond_distance
_geom_bond_site_symmetry_2
_ccdc_geom_bond_type
Co0 O3 1.970 . S
Co0 N17 2.004 . S
Co0 O25 1.967 . S
Co0 O32 1.920 . S
Co1 O4 1.966 1_455 S
Co1 N10 2.022 . S
Co1 N18 1.993 . S
Co1 O26 1.941 . S
C2 O3 1.258 . S
C2 O4 1.263 . S
O3 Co0 1.970 . S
O3 C2 1.258 . S
O4 Co1 1.966 1_655 S
O4 C2 1.263 . S
C5 O6 1.235 . S
C5 O32 1.289 . S
O6 C5 1.235 . S
C7 C9 1.400 . S
C7 N10 1.351 . S
C7 C12 1.501 . S
C8 C9 1.387 . S
C8 N11 1.341 . S
C9 C7 1.400 . S
C9 C8 1.387 . S
N10 Co1 2.022 . S
N10 C7 1.351 . S
N10 N11 1.365 . S
N11 C8 1.341 . S
N11 N10 1.365 . S
N11 H31 0.862 . S
C12 C7 1.501 . S
C12 H13 0.961 . S
C12 H14 0.961 . S
C12 H15 0.960 . S
H13 C12 0.961 . S
H14 C12 0.961 . S
H15 C12 0.960 . S
C16 N17 1.349 1_455 S
C16 C20 1.401 . S
C16 C21 1.499 1_455 S
N17 Co0 2.004 . S
N17 C16 1.349 1_655 S
N17 N18 1.360 1_655 S
N18 Co1 1.993 . S
N18 N17 1.360 1_455 S
N18 C19 1.346 . S
C19 N18 1.346 . S
C19 C20 1.396 . S
C19 C29 1.510 . S
C20 C16 1.401 . S
C20 C19 1.396 . S
C21 C16 1.499 1_655 S
C21 H22 0.959 . S
C21 H23 0.960 . S
C21 H24 0.961 . S
H22 C21 0.959 . S
H23 C21 0.960 . S
H24 C21 0.961 . S
O25 Co0 1.967 . S
O25 C33 1.258 1_655 S
O26 Co1 1.941 . S
O26 C33 1.266 . S
H27 C29 0.959 . S
H28 C29 0.961 . S
C29 C19 1.510 . S
C29 H27 0.959 . S
C29 H28 0.961 . S
C29 H30 0.960 . S
H30 C29 0.960 . S
H31 N11 0.862 . S
O32 Co0 1.920 . S
O32 C5 1.289 . S
C33 O25 1.258 1_455 S
C33 O26 1.266 . S
Co34 O37 1.970 . S
Co34 N51 1.989 . S
Co34 O59 1.967 . S
Co34 O66 1.920 . S
Co35 O38 1.966 . S
Co35 N44 2.022 . S
Co35 N52 1.993 . S
Co35 O60 1.941 . S
C36 O37 1.258 . S
C36 O38 1.263 . S
O37 Co34 1.970 . S
O37 C36 1.258 . S
O38 Co35 1.966 . S
O38 C36 1.263 . S
C39 O40 1.235 . S
C39 O66 1.289 . S
O40 C39 1.235 . S
C41 C43 1.400 . S
C41 N44 1.351 . S
C41 C46 1.501 . S
C42 C43 1.387 . S
C42 N45 1.341 . S
C43 C41 1.400 . S
C43 C42 1.387 . S
N44 Co35 2.022 . S
N44 C41 1.351 . S
N44 N45 1.365 . S
N45 C42 1.341 . S
N45 N44 1.365 . S
N45 H65 0.862 . S
C46 C41 1.501 . S
C46 H47 0.961 . S
C46 H48 0.961 . S
C46 H49 0.960 . S
H47 C46 0.961 . S
H48 C46 0.961 . S
H49 C46 0.960 . S
C50 N51 1.342 . S
C50 C54 1.401 . S
C50 C55 1.499 . S
N51 Co34 1.989 . S
N51 C50 1.342 . S
N51 N52 1.388 . S
N52 Co35 1.993 . S
N52 N51 1.388 . S
N52 C53 1.346 . S
C53 N52 1.346 . S
C53 C54 1.396 . S
C53 C63 1.510 . S
C54 C50 1.401 . S
C54 C53 1.396 . S
C55 C50 1.499 . S
C55 H56 0.959 . S
C55 H57 0.960 . S
C55 H58 0.961 . S
H56 C55 0.959 . S
H57 C55 0.960 . S
H58 C55 0.961 . S
O59 Co34 1.967 . S
O59 C67 1.258 . S
O60 Co35 1.941 . S
O60 C67 1.266 . S
H61 C63 0.959 . S
H62 C63 0.961 . S
C63 C53 1.510 . S
C63 H61 0.959 . S
C63 H62 0.961 . S
C63 H64 0.960 . S
H64 C63 0.960 . S
H65 N45 0.862 . S
O66 Co34 1.920 . S
O66 C39 1.289 . S
C67 O59 1.258 . S
C67 O60 1.266 . S
Co68 O71 1.970 . S
Co68 N85 2.012 . S
Co68 O93 1.967 . S
Co68 O100 1.920 . S
Co69 O72 1.966 1_565 S
Co69 N78 2.022 . S
Co69 N86 1.993 . S
Co69 O94 1.941 . S
C70 O71 1.258 . S
C70 O72 1.263 . S
O71 Co68 1.970 . S
O71 C70 1.258 . S
O72 Co69 1.966 1_545 S
O72 C70 1.263 . S
C73 O74 1.235 . S
C73 O100 1.289 . S
O74 C73 1.235 . S
C75 C77 1.400 . S
C75 N78 1.351 . S
C75 C80 1.501 . S
C76 C77 1.387 . S
C76 N79 1.341 . S
C77 C75 1.400 . S
C77 C76 1.387 . S
N78 Co69 2.022 . S
N78 C75 1.351 . S
N78 N79 1.365 . S
N79 C76 1.341 . S
N79 N78 1.365 . S
N79 H99 0.862 . S
C80 C75 1.501 . S
C80 H81 0.961 . S
C80 H82 0.961 . S
C80 H83 0.960 . S
H81 C80 0.961 . S
H82 C80 0.961 . S
H83 C80 0.960 . S
C84 N85 1.325 1_565 S
C84 C88 1.401 . S
C84 C89 1.499 1_565 S
N85 Co68 2.012 . S
N85 C84 1.325 1_545 S
N85 N86 1.379 1_545 S
N86 Co69 1.993 . S
N86 N85 1.379 1_565 S
N86 C87 1.346 . S
C87 N86 1.346 . S
C87 C88 1.396 . S
C87 C97 1.510 . S
C88 C84 1.401 . S
C88 C87 1.396 . S
C89 C84 1.499 1_545 S
C89 H90 0.959 . S
C89 H91 0.960 . S
C89 H92 0.961 . S
H90 C89 0.959 . S
H91 C89 0.960 . S
H92 C89 0.961 . S
O93 Co68 1.967 . S
O93 C101 1.258 1_545 S
O94 Co69 1.941 . S
O94 C101 1.266 . S
H95 C97 0.959 . S
H96 C97 0.961 . S
C97 C87 1.510 . S
C97 H95 0.959 . S
C97 H96 0.961 . S
C97 H98 0.960 . S
H98 C97 0.960 . S
H99 N79 0.862 . S
O100 Co68 1.920 . S
O100 C73 1.289 . S
C101 O93 1.258 1_565 S
C101 O94 1.266 . S
Co102 O105 1.970 . S
Co102 N119 2.004 . S
Co102 O127 1.967 . S
Co102 O134 1.920 . S
Co103 O106 1.966 1_545 S
Co103 N112 2.022 . S
Co103 N120 1.993 . S
Co103 O128 1.941 . S
C104 O105 1.258 . S
C104 O106 1.263 . S
O105 Co102 1.970 . S
O105 C104 1.258 . S
O106 Co103 1.966 1_565 S
O106 C104 1.263 . S
C107 O108 1.235 . S
C107 O134 1.289 . S
O108 C107 1.235 . S
C109 C111 1.400 . S
C109 N112 1.351 . S
C109 C114 1.501 . S
C110 C111 1.387 . S
C110 N113 1.341 . S
C111 C109 1.400 . S
C111 C110 1.387 . S
N112 Co103 2.022 . S
N112 C109 1.351 . S
N112 N113 1.365 . S
N113 C110 1.341 . S
N113 N112 1.365 . S
N113 H133 0.862 . S
C114 C109 1.501 . S
C114 H115 0.961 . S
C114 H116 0.961 . S
C114 H117 0.960 . S
H115 C114 0.961 . S
H116 C114 0.961 . S
H117 C114 0.960 . S
C118 N119 1.349 1_545 S
C118 C122 1.401 . S
C118 C123 1.499 1_545 S
N119 Co102 2.004 . S
N119 C118 1.349 1_565 S
N119 N120 1.360 1_565 S
N120 Co103 1.993 . S
N120 N119 1.360 1_545 S
N120 C121 1.346 . S
C121 N120 1.346 . S
C121 C122 1.396 . S
C121 C131 1.510 . S
C122 C118 1.401 . S
C122 C121 1.396 . S
C123 C118 1.499 1_565 S
C123 H124 0.959 . S
C123 H125 0.960 . S
C123 H126 0.961 . S
H124 C123 0.959 . S
H125 C123 0.960 . S
H126 C123 0.961 . S
O127 Co102 1.967 . S
O127 C135 1.258 1_565 S
O128 Co103 1.941 . S
O128 C135 1.266 . S
H129 C131 0.959 . S
H130 C131 0.961 . S
C131 C121 1.510 . S
C131 H129 0.959 . S
C131 H130 0.961 . S
C131 H132 0.960 . S
H132 C131 0.960 . S
H133 N113 0.862 . S
O134 Co102 1.920 . S
O134 C107 1.289 . S
C135 O127 1.258 1_545 S
C135 O128 1.266 . S
Co136 O139 1.970 . S
Co136 N153 2.012 . S
Co136 O161 1.967 . S
Co136 O168 1.920 . S
Co137 O140 1.966 1_655 S
Co137 N146 2.022 . S
Co137 N154 1.993 . S
Co137 O162 1.941 . S
C138 O139 1.258 . S
C138 O140 1.263 . S
O139 Co136 1.970 . S
O139 C138 1.258 . S
O140 Co137 1.966 1_455 S
O140 C138 1.263 . S
C141 O142 1.235 . S
C141 O168 1.289 . S
O142 C141 1.235 . S
C143 C145 1.400 . S
C143 N146 1.351 . S
C143 C148 1.501 . S
C144 C145 1.387 . S
C144 N147 1.341 . S
C145 C143 1.400 . S
C145 C144 1.387 . S
N146 Co137 2.022 . S
N146 C143 1.351 . S
N146 N147 1.365 . S
N147 C144 1.341 . S
N147 N146 1.365 . S
N147 H167 0.862 . S
C148 C143 1.501 . S
C148 H149 0.961 . S
C148 H150 0.961 . S
C148 H151 0.960 . S
H149 C148 0.961 . S
H150 C148 0.961 . S
H151 C148 0.960 . S
C152 N153 1.325 1_655 S
C152 C156 1.401 . S
C152 C157 1.499 1_655 S
N153 Co136 2.012 . S
N153 C152 1.325 1_455 S
N153 N154 1.379 1_455 S
N154 Co137 1.993 . S
N154 N153 1.379 1_655 S
N154 C155 1.346 . S
C155 N154 1.346 . S
C155 C156 1.396 . S
C155 C165 1.510 . S
C156 C152 1.401 . S
C156 C155 1.396 . S
C157 C152 1.499 1_455 S
C157 H158 0.959 . S
C157 H159 0.960 . S
C157 H160 0.961 . S
H158 C157 0.959 . S
H159 C157 0.960 . S
H160 C157 0.961 . S
O161 Co136 1.967 . S
O161 C169 1.258 1_455 S
O162 Co137 1.941 . S
O162 C169 1.266 . S
H163 C165 0.959 . S
H164 C165 0.961 . S
C165 C155 1.510 . S
C165 H163 0.959 . S
C165 H164 0.961 . S
C165 H166 0.960 . S
H166 C165 0.960 . S
H167 N147 0.862 . S
O168 Co136 1.920 . S
O168 C141 1.289 . S
C169 O161 1.258 1_655 S
C169 O162 1.266 . S
Co170 O173 1.970 . S
Co170 N187 1.989 . S
Co170 O195 1.967 . S
Co170 O202 1.920 . S
Co171 O174 1.966 . S
Co171 N180 2.022 . S
Co171 N188 1.993 . S
Co171 O196 1.941 . S
C172 O173 1.258 . S
C172 O174 1.263 . S
O173 Co170 1.970 . S
O173 C172 1.258 . S
O174 Co171 1.966 . S
O174 C172 1.263 . S
C175 O176 1.235 . S
C175 O202 1.289 . S
O176 C175 1.235 . S
C177 C179 1.400 . S
C177 N180 1.351 . S
C177 C182 1.501 . S
C178 C179 1.387 . S
C178 N181 1.341 . S
C179 C177 1.400 . S
C179 C178 1.387 . S
N180 Co171 2.022 . S
N180 C177 1.351 . S
N180 N181 1.365 . S
N181 C178 1.341 . S
N181 N180 1.365 . S
N181 H201 0.862 . S
C182 C177 1.501 . S
C182 H183 0.961 . S
C182 H184 0.961 . S
C182 H185 0.960 . S
H183 C182 0.961 . S
H184 C182 0.961 . S
H185 C182 0.960 . S
C186 N187 1.342 . S
C186 C190 1.401 . S
C186 C191 1.499 . S
N187 Co170 1.989 . S
N187 C186 1.342 . S
N187 N188 1.388 . S
N188 Co171 1.993 . S
N188 N187 1.388 . S
N188 C189 1.346 . S
C189 N188 1.346 . S
C189 C190 1.396 . S
C189 C199 1.510 . S
C190 C186 1.401 . S
C190 C189 1.396 . S
C191 C186 1.499 . S
C191 H192 0.959 . S
C191 H193 0.960 . S
C191 H194 0.961 . S
H192 C191 0.959 . S
H193 C191 0.960 . S
H194 C191 0.961 . S
O195 Co170 1.967 . S
O195 C203 1.258 . S
O196 Co171 1.941 . S
O196 C203 1.266 . S
H197 C199 0.959 . S
H198 C199 0.961 . S
C199 C189 1.510 . S
C199 H197 0.959 . S
C199 H198 0.961 . S
C199 H200 0.960 . S
H200 C199 0.960 . S
H201 N181 0.862 . S
O202 Co170 1.920 . S
O202 C175 1.289 . S
C203 O195 1.258 . S
C203 O196 1.266 . S
Co204 O207 1.970 . S
Co204 N221 2.004 . S
Co204 O229 1.967 . S
Co204 O236 1.920 . S
Co205 O208 1.966 1_655 S
Co205 N214 2.022 . S
Co205 N222 1.993 . S
Co205 O230 1.941 . S
C206 O207 1.258 . S
C206 O208 1.263 . S
O207 Co204 1.970 . S
O207 C206 1.258 . S
O208 Co205 1.966 1_455 S
O208 C206 1.263 . S
C209 O210 1.235 . S
C209 O236 1.289 . S
O210 C209 1.235 . S
C211 C213 1.400 . S
C211 N214 1.351 . S
C211 C216 1.501 . S
C212 C213 1.387 . S
C212 N215 1.341 . S
C213 C211 1.400 . S
C213 C212 1.387 . S
N214 Co205 2.022 . S
N214 C211 1.351 . S
N214 N215 1.365 . S
N215 C212 1.341 . S
N215 N214 1.365 . S
N215 H235 0.862 . S
C216 C211 1.501 . S
C216 H217 0.961 . S
C216 H218 0.961 . S
C216 H219 0.960 . S
H217 C216 0.961 . S
H218 C216 0.961 . S
H219 C216 0.960 . S
C220 N221 1.349 1_655 S
C220 C224 1.401 . S
C220 C225 1.499 1_655 S
N221 Co204 2.004 . S
N221 C220 1.349 1_455 S
N221 N222 1.360 1_455 S
N222 Co205 1.993 . S
N222 N221 1.360 1_655 S
N222 C223 1.346 . S
C223 N222 1.346 . S
C223 C224 1.396 . S
C223 C233 1.510 . S
C224 C220 1.401 . S
C224 C223 1.396 . S
C225 C220 1.499 1_455 S
C225 H226 0.959 . S
C225 H227 0.960 . S
C225 H228 0.961 . S
H226 C225 0.959 . S
H227 C225 0.960 . S
H228 C225 0.961 . S
O229 Co204 1.967 . S
O229 C237 1.258 1_455 S
O230 Co205 1.941 . S
O230 C237 1.266 . S
H231 C233 0.959 . S
H232 C233 0.961 . S
C233 C223 1.510 . S
C233 H231 0.959 . S
C233 H232 0.961 . S
C233 H234 0.960 . S
H234 C233 0.960 . S
H235 N215 0.862 . S
O236 Co204 1.920 . S
O236 C209 1.289 . S
C237 O229 1.258 1_655 S
C237 O230 1.266 . S
Co238 O241 1.970 . S
Co238 N255 1.989 . S
Co238 O263 1.967 . S
Co238 O270 1.920 . S
Co239 O242 1.966 . S
Co239 N248 2.022 . S
Co239 N256 1.993 . S
Co239 O264 1.941 . S
C240 O241 1.258 . S
C240 O242 1.263 . S
O241 Co238 1.970 . S
O241 C240 1.258 . S
O242 Co239 1.966 . S
O242 C240 1.263 . S
C243 O244 1.235 . S
C243 O270 1.289 . S
O244 C243 1.235 . S
C245 C247 1.400 . S
C245 N248 1.351 . S
C245 C250 1.501 . S
C246 C247 1.387 . S
C246 N249 1.341 . S
C247 C245 1.400 . S
C247 C246 1.387 . S
N248 Co239 2.022 . S
N248 C245 1.351 . S
N248 N249 1.365 . S
N249 C246 1.341 . S
N249 N248 1.365 . S
N249 H269 0.862 . S
C250 C245 1.501 . S
C250 H251 0.961 . S
C250 H252 0.961 . S
C250 H253 0.960 . S
H251 C250 0.961 . S
H252 C250 0.961 . S
H253 C250 0.960 . S
C254 N255 1.342 . S
C254 C258 1.401 . S
C254 C259 1.499 . S
N255 Co238 1.989 . S
N255 C254 1.342 . S
N255 N256 1.388 . S
N256 Co239 1.993 . S
N256 N255 1.388 . S
N256 C257 1.346 . S
C257 N256 1.346 . S
C257 C258 1.396 . S
C257 C267 1.510 . S
C258 C254 1.401 . S
C258 C257 1.396 . S
C259 C254 1.499 . S
C259 H260 0.959 . S
C259 H261 0.960 . S
C259 H262 0.961 . S
H260 C259 0.959 . S
H261 C259 0.960 . S
H262 C259 0.961 . S
O263 Co238 1.967 . S
O263 C271 1.258 . S
O264 Co239 1.941 . S
O264 C271 1.266 . S
H265 C267 0.959 . S
H266 C267 0.961 . S
C267 C257 1.510 . S
C267 H265 0.959 . S
C267 H266 0.961 . S
C267 H268 0.960 . S
H268 C267 0.960 . S
H269 N249 0.862 . S
O270 Co238 1.920 . S
O270 C243 1.289 . S
C271 O263 1.258 . S
C271 O264 1.266 . S
Co272 O275 1.970 . S
Co272 N289 2.012 . S
Co272 O297 1.967 . S
Co272 O304 1.920 . S
Co273 O276 1.966 1_545 S
Co273 N282 2.022 . S
Co273 N290 1.993 . S
Co273 O298 1.941 . S
C274 O275 1.258 . S
C274 O276 1.263 . S
O275 Co272 1.970 . S
O275 C274 1.258 . S
O276 Co273 1.966 1_565 S
O276 C274 1.263 . S
C277 O278 1.235 . S
C277 O304 1.289 . S
O278 C277 1.235 . S
C279 C281 1.400 . S
C279 N282 1.351 . S
C279 C284 1.501 . S
C280 C281 1.387 . S
C280 N283 1.341 . S
C281 C279 1.400 . S
C281 C280 1.387 . S
N282 Co273 2.022 . S
N282 C279 1.351 . S
N282 N283 1.365 . S
N283 C280 1.341 . S
N283 N282 1.365 . S
N283 H303 0.862 . S
C284 C279 1.501 . S
C284 H285 0.961 . S
C284 H286 0.961 . S
C284 H287 0.960 . S
H285 C284 0.961 . S
H286 C284 0.961 . S
H287 C284 0.960 . S
C288 N289 1.325 1_545 S
C288 C292 1.401 . S
C288 C293 1.499 1_545 S
N289 Co272 2.012 . S
N289 C288 1.325 1_565 S
N289 N290 1.379 1_565 S
N290 Co273 1.993 . S
N290 N289 1.379 1_545 S
N290 C291 1.346 . S
C291 N290 1.346 . S
C291 C292 1.396 . S
C291 C301 1.510 . S
C292 C288 1.401 . S
C292 C291 1.396 . S
C293 C288 1.499 1_565 S
C293 H294 0.959 . S
C293 H295 0.960 . S
C293 H296 0.961 . S
H294 C293 0.959 . S
H295 C293 0.960 . S
H296 C293 0.961 . S
O297 Co272 1.967 . S
O297 C305 1.258 1_565 S
O298 Co273 1.941 . S
O298 C305 1.266 . S
H299 C301 0.959 . S
H300 C301 0.961 . S
C301 C291 1.510 . S
C301 H299 0.959 . S
C301 H300 0.961 . S
C301 H302 0.960 . S
H302 C301 0.960 . S
H303 N283 0.862 . S
O304 Co272 1.920 . S
O304 C277 1.289 . S
C305 O297 1.258 1_545 S
C305 O298 1.266 . S
Co306 O309 1.970 . S
Co306 N323 2.004 . S
Co306 O331 1.967 . S
Co306 O338 1.920 . S
Co307 O310 1.966 1_565 S
Co307 N316 2.022 . S
Co307 N324 1.993 . S
Co307 O332 1.941 . S
C308 O309 1.258 . S
C308 O310 1.263 . S
O309 Co306 1.970 . S
O309 C308 1.258 . S
O310 Co307 1.966 1_545 S
O310 C308 1.263 . S
C311 O312 1.235 . S
C311 O338 1.289 . S
O312 C311 1.235 . S
C313 C315 1.400 . S
C313 N316 1.351 . S
C313 C318 1.501 . S
C314 C315 1.387 . S
C314 N317 1.341 . S
C315 C313 1.400 . S
C315 C314 1.387 . S
N316 Co307 2.022 . S
N316 C313 1.351 . S
N316 N317 1.365 . S
N317 C314 1.341 . S
N317 N316 1.365 . S
N317 H337 0.862 . S
C318 C313 1.501 . S
C318 H319 0.961 . S
C318 H320 0.961 . S
C318 H321 0.960 . S
H319 C318 0.961 . S
H320 C318 0.961 . S
H321 C318 0.960 . S
C322 N323 1.349 1_565 S
C322 C326 1.401 . S
C322 C327 1.499 1_565 S
N323 Co306 2.004 . S
N323 C322 1.349 1_545 S
N323 N324 1.360 1_545 S
N324 Co307 1.993 . S
N324 N323 1.360 1_565 S
N324 C325 1.346 . S
C325 N324 1.346 . S
C325 C326 1.396 . S
C325 C335 1.510 . S
C326 C322 1.401 . S
C326 C325 1.396 . S
C327 C322 1.499 1_545 S
C327 H328 0.959 . S
C327 H329 0.960 . S
C327 H330 0.961 . S
H328 C327 0.959 . S
H329 C327 0.960 . S
H330 C327 0.961 . S
O331 Co306 1.967 . S
O331 C339 1.258 1_545 S
O332 Co307 1.941 . S
O332 C339 1.266 . S
H333 C335 0.959 . S
H334 C335 0.961 . S
C335 C325 1.510 . S
C335 H333 0.959 . S
C335 H334 0.961 . S
C335 H336 0.960 . S
H336 C335 0.960 . S
H337 N317 0.862 . S
O338 Co306 1.920 . S
O338 C311 1.289 . S
C339 O331 1.258 1_565 S
C339 O332 1.266 . S
Co340 O343 1.970 . S
Co340 N357 2.012 . S
Co340 O365 1.967 . S
Co340 O372 1.920 . S
Co341 O344 1.966 1_455 S
Co341 N350 2.022 . S
Co341 N358 1.993 . S
Co341 O366 1.941 . S
C342 O343 1.258 . S
C342 O344 1.263 . S
O343 Co340 1.970 . S
O343 C342 1.258 . S
O344 Co341 1.966 1_655 S
O344 C342 1.263 . S
C345 O346 1.235 . S
C345 O372 1.289 . S
O346 C345 1.235 . S
C347 C349 1.400 . S
C347 N350 1.351 . S
C347 C352 1.501 . S
C348 C349 1.387 . S
C348 N351 1.341 . S
C349 C347 1.400 . S
C349 C348 1.387 . S
N350 Co341 2.022 . S
N350 C347 1.351 . S
N350 N351 1.365 . S
N351 C348 1.341 . S
N351 N350 1.365 . S
N351 H371 0.862 . S
C352 C347 1.501 . S
C352 H353 0.961 . S
C352 H354 0.961 . S
C352 H355 0.960 . S
H353 C352 0.961 . S
H354 C352 0.961 . S
H355 C352 0.960 . S
C356 N357 1.325 1_455 S
C356 C360 1.401 . S
C356 C361 1.499 1_455 S
N357 Co340 2.012 . S
N357 C356 1.325 1_655 S
N357 N358 1.379 1_655 S
N358 Co341 1.993 . S
N358 N357 1.379 1_455 S
N358 C359 1.346 . S
C359 N358 1.346 . S
C359 C360 1.396 . S
C359 C369 1.510 . S
C360 C356 1.401 . S
C360 C359 1.396 . S
C361 C356 1.499 1_655 S
C361 H362 0.959 . S
C361 H363 0.960 . S
C361 H364 0.961 . S
H362 C361 0.959 . S
H363 C361 0.960 . S
H364 C361 0.961 . S
O365 Co340 1.967 . S
O365 C373 1.258 1_655 S
O366 Co341 1.941 . S
O366 C373 1.266 . S
H367 C369 0.959 . S
H368 C369 0.961 . S
C369 C359 1.510 . S
C369 H367 0.959 . S
C369 H368 0.961 . S
C369 H370 0.960 . S
H370 C369 0.960 . S
H371 N351 0.862 . S
O372 Co340 1.920 . S
O372 C345 1.289 . S
C373 O365 1.258 1_455 S
C373 O366 1.266 . S
Co374 O377 1.970 . S
Co374 N391 1.989 . S
Co374 O399 1.967 . S
Co374 O406 1.920 . S
Co375 O378 1.966 . S
Co375 N384 2.022 . S
Co375 N392 1.993 . S
Co375 O400 1.941 . S
C376 O377 1.258 . S
C376 O378 1.263 . S
O377 Co374 1.970 . S
O377 C376 1.258 . S
O378 Co375 1.966 . S
O378 C376 1.263 . S
C379 O380 1.235 . S
C379 O406 1.289 . S
O380 C379 1.235 . S
C381 C383 1.400 . S
C381 N384 1.351 . S
C381 C386 1.501 . S
C382 C383 1.387 . S
C382 N385 1.341 . S
C383 C381 1.400 . S
C383 C382 1.387 . S
N384 Co375 2.022 . S
N384 C381 1.351 . S
N384 N385 1.365 . S
N385 C382 1.341 . S
N385 N384 1.365 . S
N385 H405 0.862 . S
C386 C381 1.501 . S
C386 H387 0.961 . S
C386 H388 0.961 . S
C386 H389 0.960 . S
H387 C386 0.961 . S
H388 C386 0.961 . S
H389 C386 0.960 . S
C390 N391 1.342 . S
C390 C394 1.401 . S
C390 C395 1.499 . S
N391 Co374 1.989 . S
N391 C390 1.342 . S
N391 N392 1.388 . S
N392 Co375 1.993 . S
N392 N391 1.388 . S
N392 C393 1.346 . S
C393 N392 1.346 . S
C393 C394 1.396 . S
C393 C403 1.510 . S
C394 C390 1.401 . S
C394 C393 1.396 . S
C395 C390 1.499 . S
C395 H396 0.959 . S
C395 H397 0.960 . S
C395 H398 0.961 . S
H396 C395 0.959 . S
H397 C395 0.960 . S
H398 C395 0.961 . S
O399 Co374 1.967 . S
O399 C407 1.258 . S
O400 Co375 1.941 . S
O400 C407 1.266 . S
H401 C403 0.959 . S
H402 C403 0.961 . S
C403 C393 1.510 . S
C403 H401 0.959 . S
C403 H402 0.961 . S
C403 H404 0.960 . S
H404 C403 0.960 . S
H405 N385 0.862 . S
O406 Co374 1.920 . S
O406 C379 1.289 . S
C407 O399 1.258 . S
C407 O400 1.266 . S
Co408 O411 1.970 . S
Co408 N425 1.989 . S
Co408 O433 1.967 . S
Co408 O440 1.920 . S
Co409 O412 1.966 . S
Co409 N418 2.022 . S
Co409 N426 1.993 . S
Co409 O434 1.941 . S
C410 O411 1.258 . S
C410 O412 1.263 . S
O411 Co408 1.970 . S
O411 C410 1.258 . S
O412 Co409 1.966 . S
O412 C410 1.263 . S
C413 O414 1.235 . S
C413 O440 1.289 . S
O414 C413 1.235 . S
C415 C417 1.400 . S
C415 N418 1.351 . S
C415 C420 1.501 . S
C416 C417 1.387 . S
C416 N419 1.341 . S
C417 C415 1.400 . S
C417 C416 1.387 . S
N418 Co409 2.022 . S
N418 C415 1.351 . S
N418 N419 1.365 . S
N419 C416 1.341 . S
N419 N418 1.365 . S
N419 H439 0.862 . S
C420 C415 1.501 . S
C420 H421 0.961 . S
C420 H422 0.961 . S
C420 H423 0.960 . S
H421 C420 0.961 . S
H422 C420 0.961 . S
H423 C420 0.960 . S
C424 N425 1.342 . S
C424 C428 1.401 . S
C424 C429 1.499 . S
N425 Co408 1.989 . S
N425 C424 1.342 . S
N425 N426 1.388 . S
N426 Co409 1.993 . S
N426 N425 1.388 . S
N426 C427 1.346 . S
C427 N426 1.346 . S
C427 C428 1.396 . S
C427 C437 1.510 . S
C428 C424 1.401 . S
C428 C427 1.396 . S
C429 C424 1.499 . S
C429 H430 0.959 . S
C429 H431 0.960 . S
C429 H432 0.961 . S
H430 C429 0.959 . S
H431 C429 0.960 . S
H432 C429 0.961 . S
O433 Co408 1.967 . S
O433 C441 1.258 . S
O434 Co409 1.941 . S
O434 C441 1.266 . S
H435 C437 0.959 . S
H436 C437 0.961 . S
C437 C427 1.510 . S
C437 H435 0.959 . S
C437 H436 0.961 . S
C437 H438 0.960 . S
H438 C437 0.960 . S
H439 N419 0.862 . S
O440 Co408 1.920 . S
O440 C413 1.289 . S
C441 O433 1.258 . S
C441 O434 1.266 . S
Co442 O445 1.970 . S
Co442 N459 1.989 . S
Co442 O467 1.967 . S
Co442 O474 1.920 . S
Co443 O446 1.966 . S
Co443 N452 2.022 . S
Co443 N460 1.993 . S
Co443 O468 1.941 . S
C444 O445 1.258 . S
C444 O446 1.263 . S
O445 Co442 1.970 . S
O445 C444 1.258 . S
O446 Co443 1.966 . S
O446 C444 1.263 . S
C447 O448 1.235 . S
C447 O474 1.289 . S
O448 C447 1.235 . S
C449 C451 1.400 . S
C449 N452 1.351 . S
C449 C454 1.501 . S
C450 C451 1.387 . S
C450 N453 1.341 . S
C451 C449 1.400 . S
C451 C450 1.387 . S
N452 Co443 2.022 . S
N452 C449 1.351 . S
N452 N453 1.365 . S
N453 C450 1.341 . S
N453 N452 1.365 . S
N453 H473 0.862 . S
C454 C449 1.501 . S
C454 H455 0.961 . S
C454 H456 0.961 . S
C454 H457 0.960 . S
H455 C454 0.961 . S
H456 C454 0.961 . S
H457 C454 0.960 . S
C458 N459 1.342 . S
C458 C462 1.401 . S
C458 C463 1.499 . S
N459 Co442 1.989 . S
N459 C458 1.342 . S
N459 N460 1.388 . S
N460 Co443 1.993 . S
N460 N459 1.388 . S
N460 C461 1.346 . S
C461 N460 1.346 . S
C461 C462 1.396 . S
C461 C471 1.510 . S
C462 C458 1.401 . S
C462 C461 1.396 . S
C463 C458 1.499 . S
C463 H464 0.959 . S
C463 H465 0.960 . S
C463 H466 0.961 . S
H464 C463 0.959 . S
H465 C463 0.960 . S
H466 C463 0.961 . S
O467 Co442 1.967 . S
O467 C475 1.258 . S
O468 Co443 1.941 . S
O468 C475 1.266 . S
H469 C471 0.959 . S
H470 C471 0.961 . S
C471 C461 1.510 . S
C471 H469 0.959 . S
C471 H470 0.961 . S
C471 H472 0.960 . S
H472 C471 0.960 . S
H473 N453 0.862 . S
O474 Co442 1.920 . S
O474 C447 1.289 . S
C475 O467 1.258 . S
C475 O468 1.266 . S
Co476 O479 1.970 . S
Co476 N493 1.989 . S
Co476 O501 1.967 . S
Co476 O508 1.920 . S
Co477 O480 1.966 . S
Co477 N486 2.022 . S
Co477 N494 1.993 . S
Co477 O502 1.941 . S
C478 O479 1.258 . S
C478 O480 1.263 . S
O479 Co476 1.970 . S
O479 C478 1.258 . S
O480 Co477 1.966 . S
O480 C478 1.263 . S
C481 O482 1.235 . S
C481 O508 1.289 . S
O482 C481 1.235 . S
C483 C485 1.400 . S
C483 N486 1.351 . S
C483 C488 1.501 . S
C484 C485 1.387 . S
C484 N487 1.341 . S
C485 C483 1.400 . S
C485 C484 1.387 . S
N486 Co477 2.022 . S
N486 C483 1.351 . S
N486 N487 1.365 . S
N487 C484 1.341 . S
N487 N486 1.365 . S
N487 H507 0.862 . S
C488 C483 1.501 . S
C488 H489 0.961 . S
C488 H490 0.961 . S
C488 H491 0.960 . S
H489 C488 0.961 . S
H490 C488 0.961 . S
H491 C488 0.960 . S
C492 N493 1.342 . S
C492 C496 1.401 . S
C492 C497 1.499 . S
N493 Co476 1.989 . S
N493 C492 1.342 . S
N493 N494 1.388 . S
N494 Co477 1.993 . S
N494 N493 1.388 . S
N494 C495 1.346 . S
C495 N494 1.346 . S
C495 C496 1.396 . S
C495 C505 1.510 . S
C496 C492 1.401 . S
C496 C495 1.396 . S
C497 C492 1.499 . S
C497 H498 0.959 . S
C497 H499 0.960 . S
C497 H500 0.961 . S
H498 C497 0.959 . S
H499 C497 0.960 . S
H500 C497 0.961 . S
O501 Co476 1.967 . S
O501 C509 1.258 . S
O502 Co477 1.941 . S
O502 C509 1.266 . S
H503 C505 0.959 . S
H504 C505 0.961 . S
C505 C495 1.510 . S
C505 H503 0.959 . S
C505 H504 0.961 . S
C505 H506 0.960 . S
H506 C505 0.960 . S
H507 N487 0.862 . S
O508 Co476 1.920 . S
O508 C481 1.289 . S
C509 O501 1.258 . S
C509 O502 1.266 . S
Co510 O513 1.970 . S
Co510 N527 1.989 . S
Co510 O535 1.967 . S
Co510 O542 1.920 . S
Co511 O514 1.966 . S
Co511 N520 2.022 . S
Co511 N528 1.993 . S
Co511 O536 1.941 . S
C512 O513 1.258 . S
C512 O514 1.263 . S
O513 Co510 1.970 . S
O513 C512 1.258 . S
O514 Co511 1.966 . S
O514 C512 1.263 . S
C515 O516 1.235 . S
C515 O542 1.289 . S
O516 C515 1.235 . S
C517 C519 1.400 . S
C517 N520 1.351 . S
C517 C522 1.501 . S
C518 C519 1.387 . S
C518 N521 1.341 . S
C519 C517 1.400 . S
C519 C518 1.387 . S
N520 Co511 2.022 . S
N520 C517 1.351 . S
N520 N521 1.365 . S
N521 C518 1.341 . S
N521 N520 1.365 . S
N521 H541 0.862 . S
C522 C517 1.501 . S
C522 H523 0.961 . S
C522 H524 0.961 . S
C522 H525 0.960 . S
H523 C522 0.961 . S
H524 C522 0.961 . S
H525 C522 0.960 . S
C526 N527 1.342 . S
C526 C530 1.401 . S
C526 C531 1.499 . S
N527 Co510 1.989 . S
N527 C526 1.342 . S
N527 N528 1.388 . S
N528 Co511 1.993 . S
N528 N527 1.388 . S
N528 C529 1.346 . S
C529 N528 1.346 . S
C529 C530 1.396 . S
C529 C539 1.510 . S
C530 C526 1.401 . S
C530 C529 1.396 . S
C531 C526 1.499 . S
C531 H532 0.959 . S
C531 H533 0.960 . S
C531 H534 0.961 . S
H532 C531 0.959 . S
H533 C531 0.960 . S
H534 C531 0.961 . S
O535 Co510 1.967 . S
O535 C543 1.258 . S
O536 Co511 1.941 . S
O536 C543 1.266 . S
H537 C539 0.959 . S
H538 C539 0.961 . S
C539 C529 1.510 . S
C539 H537 0.959 . S
C539 H538 0.961 . S
C539 H540 0.960 . S
H540 C539 0.960 . S
H541 N521 0.862 . S
O542 Co510 1.920 . S
O542 C515 1.289 . S
C543 O535 1.258 . S
C543 O536 1.266 . S
Co544 O547 1.970 . S
Co544 N561 1.989 . S
Co544 O569 1.967 . S
Co544 O576 1.920 . S
Co545 O548 1.966 . S
Co545 N554 2.022 . S
Co545 N562 1.993 . S
Co545 O570 1.941 . S
C546 O547 1.258 . S
C546 O548 1.263 . S
O547 Co544 1.970 . S
O547 C546 1.258 . S
O548 Co545 1.966 . S
O548 C546 1.263 . S
C549 O550 1.235 . S
C549 O576 1.289 . S
O550 C549 1.235 . S
C551 C553 1.400 . S
C551 N554 1.351 . S
C551 C556 1.501 . S
C552 C553 1.387 . S
C552 N555 1.341 . S
C553 C551 1.400 . S
C553 C552 1.387 . S
N554 Co545 2.022 . S
N554 C551 1.351 . S
N554 N555 1.365 . S
N555 C552 1.341 . S
N555 N554 1.365 . S
N555 H575 0.862 . S
C556 C551 1.501 . S
C556 H557 0.961 . S
C556 H558 0.961 . S
C556 H559 0.960 . S
H557 C556 0.961 . S
H558 C556 0.961 . S
H559 C556 0.960 . S
C560 N561 1.342 . S
C560 C564 1.401 . S
C560 C565 1.499 . S
N561 Co544 1.989 . S
N561 C560 1.342 . S
N561 N562 1.388 . S
N562 Co545 1.993 . S
N562 N561 1.388 . S
N562 C563 1.346 . S
C563 N562 1.346 . S
C563 C564 1.396 . S
C563 C573 1.510 . S
C564 C560 1.401 . S
C564 C563 1.396 . S
C565 C560 1.499 . S
C565 H566 0.959 . S
C565 H567 0.960 . S
C565 H568 0.961 . S
H566 C565 0.959 . S
H567 C565 0.960 . S
H568 C565 0.961 . S
O569 Co544 1.967 . S
O569 C577 1.258 . S
O570 Co545 1.941 . S
O570 C577 1.266 . S
H571 C573 0.959 . S
H572 C573 0.961 . S
C573 C563 1.510 . S
C573 H571 0.959 . S
C573 H572 0.961 . S
C573 H574 0.960 . S
H574 C573 0.960 . S
H575 N555 0.862 . S
O576 Co544 1.920 . S
O576 C549 1.289 . S
C577 O569 1.258 . S
C577 O570 1.266 . S
Co578 O581 1.970 . S
Co578 N595 1.989 . S
Co578 O603 1.967 . S
Co578 O610 1.920 . S
Co579 O582 1.966 . S
Co579 N588 2.022 . S
Co579 N596 1.993 . S
Co579 O604 1.941 . S
C580 O581 1.258 . S
C580 O582 1.263 . S
O581 Co578 1.970 . S
O581 C580 1.258 . S
O582 Co579 1.966 . S
O582 C580 1.263 . S
C583 O584 1.235 . S
C583 O610 1.289 . S
O584 C583 1.235 . S
C585 C587 1.400 . S
C585 N588 1.351 . S
C585 C590 1.501 . S
C586 C587 1.387 . S
C586 N589 1.341 . S
C587 C585 1.400 . S
C587 C586 1.387 . S
N588 Co579 2.022 . S
N588 C585 1.351 . S
N588 N589 1.365 . S
N589 C586 1.341 . S
N589 N588 1.365 . S
N589 H609 0.862 . S
C590 C585 1.501 . S
C590 H591 0.961 . S
C590 H592 0.961 . S
C590 H593 0.960 . S
H591 C590 0.961 . S
H592 C590 0.961 . S
H593 C590 0.960 . S
C594 N595 1.342 . S
C594 C598 1.401 . S
C594 C599 1.499 . S
N595 Co578 1.989 . S
N595 C594 1.342 . S
N595 N596 1.388 . S
N596 Co579 1.993 . S
N596 N595 1.388 . S
N596 C597 1.346 . S
C597 N596 1.346 . S
C597 C598 1.396 . S
C597 C607 1.510 . S
C598 C594 1.401 . S
C598 C597 1.396 . S
C599 C594 1.499 . S
C599 H600 0.959 . S
C599 H601 0.960 . S
C599 H602 0.961 . S
H600 C599 0.959 . S
H601 C599 0.960 . S
H602 C599 0.961 . S
O603 Co578 1.967 . S
O603 C611 1.258 . S
O604 Co579 1.941 . S
O604 C611 1.266 . S
H605 C607 0.959 . S
H606 C607 0.961 . S
C607 C597 1.510 . S
C607 H605 0.959 . S
C607 H606 0.961 . S
C607 H608 0.960 . S
H608 C607 0.960 . S
H609 N589 0.862 . S
O610 Co578 1.920 . S
O610 C583 1.289 . S
C611 O603 1.258 . S
C611 O604 1.266 . S
Co612 O615 1.970 . S
Co612 N629 1.989 . S
Co612 O637 1.967 . S
Co612 O644 1.920 . S
Co613 O616 1.966 . S
Co613 N622 2.022 . S
Co613 N630 1.993 . S
Co613 O638 1.941 . S
C614 O615 1.258 . S
C614 O616 1.263 . S
O615 Co612 1.970 . S
O615 C614 1.258 . S
O616 Co613 1.966 . S
O616 C614 1.263 . S
C617 O618 1.235 . S
C617 O644 1.289 . S
O618 C617 1.235 . S
C619 C621 1.400 . S
C619 N622 1.351 . S
C619 C624 1.501 . S
C620 C621 1.387 . S
C620 N623 1.341 . S
C621 C619 1.400 . S
C621 C620 1.387 . S
N622 Co613 2.022 . S
N622 C619 1.351 . S
N622 N623 1.365 . S
N623 C620 1.341 . S
N623 N622 1.365 . S
N623 H643 0.862 . S
C624 C619 1.501 . S
C624 H625 0.961 . S
C624 H626 0.961 . S
C624 H627 0.960 . S
H625 C624 0.961 . S
H626 C624 0.961 . S
H627 C624 0.960 . S
C628 N629 1.342 . S
C628 C632 1.401 . S
C628 C633 1.499 . S
N629 Co612 1.989 . S
N629 C628 1.342 . S
N629 N630 1.388 . S
N630 Co613 1.993 . S
N630 N629 1.388 . S
N630 C631 1.346 . S
C631 N630 1.346 . S
C631 C632 1.396 . S
C631 C641 1.510 . S
C632 C628 1.401 . S
C632 C631 1.396 . S
C633 C628 1.499 . S
C633 H634 0.959 . S
C633 H635 0.960 . S
C633 H636 0.961 . S
H634 C633 0.959 . S
H635 C633 0.960 . S
H636 C633 0.961 . S
O637 Co612 1.967 . S
O637 C645 1.258 . S
O638 Co613 1.941 . S
O638 C645 1.266 . S
H639 C641 0.959 . S
H640 C641 0.961 . S
C641 C631 1.510 . S
C641 H639 0.959 . S
C641 H640 0.961 . S
C641 H642 0.960 . S
H642 C641 0.960 . S
H643 N623 0.862 . S
O644 Co612 1.920 . S
O644 C617 1.289 . S
C645 O637 1.258 . S
C645 O638 1.266 . S
Co646 O649 1.970 . S
Co646 N663 1.989 . S
Co646 O671 1.967 . S
Co646 O678 1.920 . S
Co647 O650 1.966 . S
Co647 N656 2.022 . S
Co647 N664 1.993 . S
Co647 O672 1.941 . S
C648 O649 1.258 . S
C648 O650 1.263 . S
O649 Co646 1.970 . S
O649 C648 1.258 . S
O650 Co647 1.966 . S
O650 C648 1.263 . S
C651 O652 1.235 . S
C651 O678 1.289 . S
O652 C651 1.235 . S
C653 C655 1.400 . S
C653 N656 1.351 . S
C653 C658 1.501 . S
C654 C655 1.387 . S
C654 N657 1.341 . S
C655 C653 1.400 . S
C655 C654 1.387 . S
N656 Co647 2.022 . S
N656 C653 1.351 . S
N656 N657 1.365 . S
N657 C654 1.341 . S
N657 N656 1.365 . S
N657 H677 0.862 . S
C658 C653 1.501 . S
C658 H659 0.961 . S
C658 H660 0.961 . S
C658 H661 0.960 . S
H659 C658 0.961 . S
H660 C658 0.961 . S
H661 C658 0.960 . S
C662 N663 1.342 . S
C662 C666 1.401 . S
C662 C667 1.499 . S
N663 Co646 1.989 . S
N663 C662 1.342 . S
N663 N664 1.388 . S
N664 Co647 1.993 . S
N664 N663 1.388 . S
N664 C665 1.346 . S
C665 N664 1.346 . S
C665 C666 1.396 . S
C665 C675 1.510 . S
C666 C662 1.401 . S
C666 C665 1.396 . S
C667 C662 1.499 . S
C667 H668 0.959 . S
C667 H669 0.960 . S
C667 H670 0.961 . S
H668 C667 0.959 . S
H669 C667 0.960 . S
H670 C667 0.961 . S
O671 Co646 1.967 . S
O671 C679 1.258 . S
O672 Co647 1.941 . S
O672 C679 1.266 . S
H673 C675 0.959 . S
H674 C675 0.961 . S
C675 C665 1.510 . S
C675 H673 0.959 . S
C675 H674 0.961 . S
C675 H676 0.960 . S
H676 C675 0.960 . S
H677 N657 0.862 . S
O678 Co646 1.920 . S
O678 C651 1.289 . S
C679 O671 1.258 . S
C679 O672 1.266 . S
Co680 O683 1.970 . S
Co680 N697 1.989 . S
Co680 O705 1.967 . S
Co680 O712 1.920 . S
Co681 O684 1.966 . S
Co681 N690 2.022 . S
Co681 N698 1.993 . S
Co681 O706 1.941 . S
C682 O683 1.258 . S
C682 O684 1.263 . S
O683 Co680 1.970 . S
O683 C682 1.258 . S
O684 Co681 1.966 . S
O684 C682 1.263 . S
C685 O686 1.235 . S
C685 O712 1.289 . S
O686 C685 1.235 . S
C687 C689 1.400 . S
C687 N690 1.351 . S
C687 C692 1.501 . S
C688 C689 1.387 . S
C688 N691 1.341 . S
C689 C687 1.400 . S
C689 C688 1.387 . S
N690 Co681 2.022 . S
N690 C687 1.351 . S
N690 N691 1.365 . S
N691 C688 1.341 . S
N691 N690 1.365 . S
N691 H711 0.862 . S
C692 C687 1.501 . S
C692 H693 0.961 . S
C692 H694 0.961 . S
C692 H695 0.960 . S
H693 C692 0.961 . S
H694 C692 0.961 . S
H695 C692 0.960 . S
C696 N697 1.342 . S
C696 C700 1.401 . S
C696 C701 1.499 . S
N697 Co680 1.989 . S
N697 C696 1.342 . S
N697 N698 1.388 . S
N698 Co681 1.993 . S
N698 N697 1.388 . S
N698 C699 1.346 . S
C699 N698 1.346 . S
C699 C700 1.396 . S
C699 C709 1.510 . S
C700 C696 1.401 . S
C700 C699 1.396 . S
C701 C696 1.499 . S
C701 H702 0.959 . S
C701 H703 0.960 . S
C701 H704 0.961 . S
H702 C701 0.959 . S
H703 C701 0.960 . S
H704 C701 0.961 . S
O705 Co680 1.967 . S
O705 C713 1.258 . S
O706 Co681 1.941 . S
O706 C713 1.266 . S
H707 C709 0.959 . S
H708 C709 0.961 . S
C709 C699 1.510 . S
C709 H707 0.959 . S
C709 H708 0.961 . S
C709 H710 0.960 . S
H710 C709 0.960 . S
H711 N691 0.862 . S
O712 Co680 1.920 . S
O712 C685 1.289 . S
C713 O705 1.258 . S
C713 O706 1.266 . S
Co714 O717 1.970 . S
Co714 N731 1.989 . S
Co714 O739 1.967 1_556 S
Co714 O746 1.920 . S
Co715 O718 1.966 . S
Co715 N724 2.022 . S
Co715 N732 1.993 . S
Co715 O740 1.941 1_556 S
C716 O717 1.258 . S
C716 O718 1.263 . S
O717 Co714 1.970 . S
O717 C716 1.258 . S
O718 Co715 1.966 . S
O718 C716 1.263 . S
C719 O720 1.235 . S
C719 O746 1.289 . S
O720 C719 1.235 . S
C721 C723 1.400 . S
C721 N724 1.351 . S
C721 C726 1.501 . S
C722 C723 1.387 . S
C722 N725 1.341 . S
C723 C721 1.400 . S
C723 C722 1.387 . S
N724 Co715 2.022 . S
N724 C721 1.351 . S
N724 N725 1.365 . S
N725 C722 1.341 . S
N725 N724 1.365 . S
N725 H745 0.862 . S
C726 C721 1.501 . S
C726 H727 0.961 . S
C726 H728 0.961 . S
C726 H729 0.960 . S
H727 C726 0.961 . S
H728 C726 0.961 . S
H729 C726 0.960 . S
C730 N731 1.342 . S
C730 C734 1.401 . S
C730 C735 1.499 . S
N731 Co714 1.989 . S
N731 C730 1.342 . S
N731 N732 1.388 . S
N732 Co715 1.993 . S
N732 N731 1.388 . S
N732 C733 1.346 . S
C733 N732 1.346 . S
C733 C734 1.396 . S
C733 C743 1.510 . S
C734 C730 1.401 . S
C734 C733 1.396 . S
C735 C730 1.499 . S
C735 H736 0.959 . S
C735 H737 0.960 . S
C735 H738 0.961 . S
H736 C735 0.959 . S
H737 C735 0.960 . S
H738 C735 0.961 . S
O739 Co714 1.967 1_554 S
O739 C747 1.258 . S
O740 Co715 1.941 1_554 S
O740 C747 1.266 . S
H741 C743 0.959 . S
H742 C743 0.961 . S
C743 C733 1.510 . S
C743 H741 0.959 . S
C743 H742 0.961 . S
C743 H744 0.960 . S
H744 C743 0.960 . S
H745 N725 0.862 . S
O746 Co714 1.920 . S
O746 C719 1.289 . S
C747 O739 1.258 . S
C747 O740 1.266 . S
Co748 O751 1.970 . S
Co748 N765 1.989 . S
Co748 O773 1.967 1_556 S
Co748 O780 1.920 . S
Co749 O752 1.966 . S
Co749 N758 2.022 . S
Co749 N766 1.993 . S
Co749 O774 1.941 1_556 S
C750 O751 1.258 . S
C750 O752 1.263 . S
O751 Co748 1.970 . S
O751 C750 1.258 . S
O752 Co749 1.966 . S
O752 C750 1.263 . S
C753 O754 1.235 . S
C753 O780 1.289 . S
O754 C753 1.235 . S
C755 C757 1.400 . S
C755 N758 1.351 . S
C755 C760 1.501 . S
C756 C757 1.387 . S
C756 N759 1.341 . S
C757 C755 1.400 . S
C757 C756 1.387 . S
N758 Co749 2.022 . S
N758 C755 1.351 . S
N758 N759 1.365 . S
N759 C756 1.341 . S
N759 N758 1.365 . S
N759 H779 0.862 . S
C760 C755 1.501 . S
C760 H761 0.961 . S
C760 H762 0.961 . S
C760 H763 0.960 . S
H761 C760 0.961 . S
H762 C760 0.961 . S
H763 C760 0.960 . S
C764 N765 1.342 . S
C764 C768 1.401 . S
C764 C769 1.499 . S
N765 Co748 1.989 . S
N765 C764 1.342 . S
N765 N766 1.388 . S
N766 Co749 1.993 . S
N766 N765 1.388 . S
N766 C767 1.346 . S
C767 N766 1.346 . S
C767 C768 1.396 . S
C767 C777 1.510 . S
C768 C764 1.401 . S
C768 C767 1.396 . S
C769 C764 1.499 . S
C769 H770 0.959 . S
C769 H771 0.960 . S
C769 H772 0.961 . S
H770 C769 0.959 . S
H771 C769 0.960 . S
H772 C769 0.961 . S
O773 Co748 1.967 1_554 S
O773 C781 1.258 . S
O774 Co749 1.941 1_554 S
O774 C781 1.266 . S
H775 C777 0.959 . S
H776 C777 0.961 . S
C777 C767 1.510 . S
C777 H775 0.959 . S
C777 H776 0.961 . S
C777 H778 0.960 . S
H778 C777 0.960 . S
H779 N759 0.862 . S
O780 Co748 1.920 . S
O780 C753 1.289 . S
C781 O773 1.258 . S
C781 O774 1.266 . S
Co782 O785 1.970 . S
Co782 N799 1.989 . S
Co782 O807 1.967 1_556 S
Co782 O814 1.920 . S
Co783 O786 1.966 . S
Co783 N792 2.022 . S
Co783 N800 1.993 . S
Co783 O808 1.941 1_556 S
C784 O785 1.258 . S
C784 O786 1.263 . S
O785 Co782 1.970 . S
O785 C784 1.258 . S
O786 Co783 1.966 . S
O786 C784 1.263 . S
C787 O788 1.235 . S
C787 O814 1.289 . S
O788 C787 1.235 . S
C789 C791 1.400 . S
C789 N792 1.351 . S
C789 C794 1.501 . S
C790 C791 1.387 . S
C790 N793 1.341 . S
C791 C789 1.400 . S
C791 C790 1.387 . S
N792 Co783 2.022 . S
N792 C789 1.351 . S
N792 N793 1.365 . S
N793 C790 1.341 . S
N793 N792 1.365 . S
N793 H813 0.862 . S
C794 C789 1.501 . S
C794 H795 0.961 . S
C794 H796 0.961 . S
C794 H797 0.960 . S
H795 C794 0.961 . S
H796 C794 0.961 . S
H797 C794 0.960 . S
C798 N799 1.342 . S
C798 C802 1.401 . S
C798 C803 1.499 . S
N799 Co782 1.989 . S
N799 C798 1.342 . S
N799 N800 1.388 . S
N800 Co783 1.993 . S
N800 N799 1.388 . S
N800 C801 1.346 . S
C801 N800 1.346 . S
C801 C802 1.396 . S
C801 C811 1.510 . S
C802 C798 1.401 . S
C802 C801 1.396 . S
C803 C798 1.499 . S
C803 H804 0.959 . S
C803 H805 0.960 . S
C803 H806 0.961 . S
H804 C803 0.959 . S
H805 C803 0.960 . S
H806 C803 0.961 . S
O807 Co782 1.967 1_554 S
O807 C815 1.258 . S
O808 Co783 1.941 1_554 S
O808 C815 1.266 . S
H809 C811 0.959 . S
H810 C811 0.961 . S
C811 C801 1.510 . S
C811 H809 0.959 . S
C811 H810 0.961 . S
C811 H812 0.960 . S
H812 C811 0.960 . S
H813 N793 0.862 . S
O814 Co782 1.920 . S
O814 C787 1.289 . S
C815 O807 1.258 . S
C815 O808 1.266 . S
Co816 O819 1.970 . S
Co816 N833 1.989 . S
Co816 O841 1.967 . S
Co816 O848 1.920 . S
Co817 O820 1.966 . S
Co817 N826 2.022 . S
Co817 N834 1.993 . S
Co817 O842 1.941 . S
C818 O819 1.258 . S
C818 O820 1.263 . S
O819 Co816 1.970 . S
O819 C818 1.258 . S
O820 Co817 1.966 . S
O820 C818 1.263 . S
C821 O822 1.235 . S
C821 O848 1.289 . S
O822 C821 1.235 . S
C823 C825 1.400 . S
C823 N826 1.351 . S
C823 C828 1.501 . S
C824 C825 1.387 . S
C824 N827 1.341 . S
C825 C823 1.400 . S
C825 C824 1.387 . S
N826 Co817 2.022 . S
N826 C823 1.351 . S
N826 N827 1.365 . S
N827 C824 1.341 . S
N827 N826 1.365 . S
N827 H847 0.862 . S
C828 C823 1.501 . S
C828 H829 0.961 . S
C828 H830 0.961 . S
C828 H831 0.960 . S
H829 C828 0.961 . S
H830 C828 0.961 . S
H831 C828 0.960 . S
C832 N833 1.342 . S
C832 C836 1.401 . S
C832 C837 1.499 . S
N833 Co816 1.989 . S
N833 C832 1.342 . S
N833 N834 1.388 . S
N834 Co817 1.993 . S
N834 N833 1.388 . S
N834 C835 1.346 . S
C835 N834 1.346 . S
C835 C836 1.396 . S
C835 C845 1.510 . S
C836 C832 1.401 . S
C836 C835 1.396 . S
C837 C832 1.499 . S
C837 H838 0.959 . S
C837 H839 0.960 . S
C837 H840 0.961 . S
H838 C837 0.959 . S
H839 C837 0.960 . S
H840 C837 0.961 . S
O841 Co816 1.967 . S
O841 C849 1.258 . S
O842 Co817 1.941 . S
O842 C849 1.266 . S
H843 C845 0.959 . S
H844 C845 0.961 . S
C845 C835 1.510 . S
C845 H843 0.959 . S
C845 H844 0.961 . S
C845 H846 0.960 . S
H846 C845 0.960 . S
H847 N827 0.862 . S
O848 Co816 1.920 . S
O848 C821 1.289 . S
C849 O841 1.258 . S
C849 O842 1.266 . S
Co850 O853 1.970 . S
Co850 N867 1.989 . S
Co850 O875 1.967 . S
Co850 O882 1.920 . S
Co851 O854 1.966 . S
Co851 N860 2.022 . S
Co851 N868 1.993 . S
Co851 O876 1.941 . S
C852 O853 1.258 . S
C852 O854 1.263 . S
O853 Co850 1.970 . S
O853 C852 1.258 . S
O854 Co851 1.966 . S
O854 C852 1.263 . S
C855 O856 1.235 . S
C855 O882 1.289 . S
O856 C855 1.235 . S
C857 C859 1.400 . S
C857 N860 1.351 . S
C857 C862 1.501 . S
C858 C859 1.387 . S
C858 N861 1.341 . S
C859 C857 1.400 . S
C859 C858 1.387 . S
N860 Co851 2.022 . S
N860 C857 1.351 . S
N860 N861 1.365 . S
N861 C858 1.341 . S
N861 N860 1.365 . S
N861 H881 0.862 . S
C862 C857 1.501 . S
C862 H863 0.961 . S
C862 H864 0.961 . S
C862 H865 0.960 . S
H863 C862 0.961 . S
H864 C862 0.961 . S
H865 C862 0.960 . S
C866 N867 1.342 . S
C866 C870 1.401 . S
C866 C871 1.499 . S
N867 Co850 1.989 . S
N867 C866 1.342 . S
N867 N868 1.388 . S
N868 Co851 1.993 . S
N868 N867 1.388 . S
N868 C869 1.346 . S
C869 N868 1.346 . S
C869 C870 1.396 . S
C869 C879 1.510 . S
C870 C866 1.401 . S
C870 C869 1.396 . S
C871 C866 1.499 . S
C871 H872 0.959 . S
C871 H873 0.960 . S
C871 H874 0.961 . S
H872 C871 0.959 . S
H873 C871 0.960 . S
H874 C871 0.961 . S
O875 Co850 1.967 . S
O875 C883 1.258 . S
O876 Co851 1.941 . S
O876 C883 1.266 . S
H877 C879 0.959 . S
H878 C879 0.961 . S
C879 C869 1.510 . S
C879 H877 0.959 . S
C879 H878 0.961 . S
C879 H880 0.960 . S
H880 C879 0.960 . S
H881 N861 0.862 . S
O882 Co850 1.920 . S
O882 C855 1.289 . S
C883 O875 1.258 . S
C883 O876 1.266 . S
Co884 O887 1.970 . S
Co884 N901 1.989 . S
Co884 O909 1.967 . S
Co884 O916 1.920 . S
Co885 O888 1.966 . S
Co885 N894 2.022 . S
Co885 N902 1.993 . S
Co885 O910 1.941 . S
C886 O887 1.258 . S
C886 O888 1.263 . S
O887 Co884 1.970 . S
O887 C886 1.258 . S
O888 Co885 1.966 . S
O888 C886 1.263 . S
C889 O890 1.235 . S
C889 O916 1.289 . S
O890 C889 1.235 . S
C891 C893 1.400 . S
C891 N894 1.351 . S
C891 C896 1.501 . S
C892 C893 1.387 . S
C892 N895 1.341 . S
C893 C891 1.400 . S
C893 C892 1.387 . S
N894 Co885 2.022 . S
N894 C891 1.351 . S
N894 N895 1.365 . S
N895 C892 1.341 . S
N895 N894 1.365 . S
N895 H915 0.862 . S
C896 C891 1.501 . S
C896 H897 0.961 . S
C896 H898 0.961 . S
C896 H899 0.960 . S
H897 C896 0.961 . S
H898 C896 0.961 . S
H899 C896 0.960 . S
C900 N901 1.342 . S
C900 C904 1.401 . S
C900 C905 1.499 . S
N901 Co884 1.989 . S
N901 C900 1.342 . S
N901 N902 1.388 . S
N902 Co885 1.993 . S
N902 N901 1.388 . S
N902 C903 1.346 . S
C903 N902 1.346 . S
C903 C904 1.396 . S
C903 C913 1.510 . S
C904 C900 1.401 . S
C904 C903 1.396 . S
C905 C900 1.499 . S
C905 H906 0.959 . S
C905 H907 0.960 . S
C905 H908 0.961 . S
H906 C905 0.959 . S
H907 C905 0.960 . S
H908 C905 0.961 . S
O909 Co884 1.967 . S
O909 C917 1.258 . S
O910 Co885 1.941 . S
O910 C917 1.266 . S
H911 C913 0.959 . S
H912 C913 0.961 . S
C913 C903 1.510 . S
C913 H911 0.959 . S
C913 H912 0.961 . S
C913 H914 0.960 . S
H914 C913 0.960 . S
H915 N895 0.862 . S
O916 Co884 1.920 . S
O916 C889 1.289 . S
C917 O909 1.258 . S
C917 O910 1.266 . S
Co918 O921 1.970 . S
Co918 N935 1.989 . S
Co918 O943 1.967 1_554 S
Co918 O950 1.920 . S
Co919 O922 1.966 . S
Co919 N928 2.022 . S
Co919 N936 1.993 . S
Co919 O944 1.941 1_554 S
C920 O921 1.258 . S
C920 O922 1.263 . S
O921 Co918 1.970 . S
O921 C920 1.258 . S
O922 Co919 1.966 . S
O922 C920 1.263 . S
C923 O924 1.235 . S
C923 O950 1.289 . S
O924 C923 1.235 . S
C925 C927 1.400 . S
C925 N928 1.351 . S
C925 C930 1.501 . S
C926 C927 1.387 . S
C926 N929 1.341 . S
C927 C925 1.400 . S
C927 C926 1.387 . S
N928 Co919 2.022 . S
N928 C925 1.351 . S
N928 N929 1.365 . S
N929 C926 1.341 . S
N929 N928 1.365 . S
N929 H949 0.862 . S
C930 C925 1.501 . S
C930 H931 0.961 . S
C930 H932 0.961 . S
C930 H933 0.960 . S
H931 C930 0.961 . S
H932 C930 0.961 . S
H933 C930 0.960 . S
C934 N935 1.342 . S
C934 C938 1.401 . S
C934 C939 1.499 . S
N935 Co918 1.989 . S
N935 C934 1.342 . S
N935 N936 1.388 . S
N936 Co919 1.993 . S
N936 N935 1.388 . S
N936 C937 1.346 . S
C937 N936 1.346 . S
C937 C938 1.396 . S
C937 C947 1.510 . S
C938 C934 1.401 . S
C938 C937 1.396 . S
C939 C934 1.499 . S
C939 H940 0.959 . S
C939 H941 0.960 . S
C939 H942 0.961 . S
H940 C939 0.959 . S
H941 C939 0.960 . S
H942 C939 0.961 . S
O943 Co918 1.967 1_556 S
O943 C951 1.258 . S
O944 Co919 1.941 1_556 S
O944 C951 1.266 . S
H945 C947 0.959 . S
H946 C947 0.961 . S
C947 C937 1.510 . S
C947 H945 0.959 . S
C947 H946 0.961 . S
C947 H948 0.960 . S
H948 C947 0.960 . S
H949 N929 0.862 . S
O950 Co918 1.920 . S
O950 C923 1.289 . S
C951 O943 1.258 . S
C951 O944 1.266 . S
Co952 O955 1.970 . S
Co952 N969 1.989 . S
Co952 O977 1.967 1_554 S
Co952 O984 1.920 . S
Co953 O956 1.966 . S
Co953 N962 2.022 . S
Co953 N970 1.993 . S
Co953 O978 1.941 1_554 S
C954 O955 1.258 . S
C954 O956 1.263 . S
O955 Co952 1.970 . S
O955 C954 1.258 . S
O956 Co953 1.966 . S
O956 C954 1.263 . S
C957 O958 1.235 . S
C957 O984 1.289 . S
O958 C957 1.235 . S
C959 C961 1.400 . S
C959 N962 1.351 . S
C959 C964 1.501 . S
C960 C961 1.387 . S
C960 N963 1.341 . S
C961 C959 1.400 . S
C961 C960 1.387 . S
N962 Co953 2.022 . S
N962 C959 1.351 . S
N962 N963 1.365 . S
N963 C960 1.341 . S
N963 N962 1.365 . S
N963 H983 0.862 . S
C964 C959 1.501 . S
C964 H965 0.961 . S
C964 H966 0.961 . S
C964 H967 0.960 . S
H965 C964 0.961 . S
H966 C964 0.961 . S
H967 C964 0.960 . S
C968 N969 1.342 . S
C968 C972 1.401 . S
C968 C973 1.499 . S
N969 Co952 1.989 . S
N969 C968 1.342 . S
N969 N970 1.388 . S
N970 Co953 1.993 . S
N970 N969 1.388 . S
N970 C971 1.346 . S
C971 N970 1.346 . S
C971 C972 1.396 . S
C971 C981 1.510 . S
C972 C968 1.401 . S
C972 C971 1.396 . S
C973 C968 1.499 . S
C973 H974 0.959 . S
C973 H975 0.960 . S
C973 H976 0.961 . S
H974 C973 0.959 . S
H975 C973 0.960 . S
H976 C973 0.961 . S
O977 Co952 1.967 1_556 S
O977 C985 1.258 . S
O978 Co953 1.941 1_556 S
O978 C985 1.266 . S
H979 C981 0.959 . S
H980 C981 0.961 . S
C981 C971 1.510 . S
C981 H979 0.959 . S
C981 H980 0.961 . S
C981 H982 0.960 . S
H982 C981 0.960 . S
H983 N963 0.862 . S
O984 Co952 1.920 . S
O984 C957 1.289 . S
C985 O977 1.258 . S
C985 O978 1.266 . S
Co986 O989 1.970 . S
Co986 N1003 1.989 . S
Co986 O1011 1.967 1_554 S
Co986 O1018 1.920 . S
Co987 O990 1.966 . S
Co987 N996 2.022 . S
Co987 N1004 1.993 . S
Co987 O1012 1.941 1_554 S
C988 O989 1.258 . S
C988 O990 1.263 . S
O989 Co986 1.970 . S
O989 C988 1.258 . S
O990 Co987 1.966 . S
O990 C988 1.263 . S
C991 O992 1.235 . S
C991 O1018 1.289 . S
O992 C991 1.235 . S
C993 C995 1.400 . S
C993 N996 1.351 . S
C993 C998 1.501 . S
C994 C995 1.387 . S
C994 N997 1.341 . S
C995 C993 1.400 . S
C995 C994 1.387 . S
N996 Co987 2.022 . S
N996 C993 1.351 . S
N996 N997 1.365 . S
N997 C994 1.341 . S
N997 N996 1.365 . S
N997 H1017 0.862 . S
C998 C993 1.501 . S
C998 H999 0.961 . S
C998 H1000 0.961 . S
C998 H1001 0.960 . S
H999 C998 0.961 . S
H1000 C998 0.961 . S
H1001 C998 0.960 . S
C1002 N1003 1.342 . S
C1002 C1006 1.401 . S
C1002 C1007 1.499 . S
N1003 Co986 1.989 . S
N1003 C1002 1.342 . S
N1003 N1004 1.388 . S
N1004 Co987 1.993 . S
N1004 N1003 1.388 . S
N1004 C1005 1.346 . S
C1005 N1004 1.346 . S
C1005 C1006 1.396 . S
C1005 C1015 1.510 . S
C1006 C1002 1.401 . S
C1006 C1005 1.396 . S
C1007 C1002 1.499 . S
C1007 H1008 0.959 . S
C1007 H1009 0.960 . S
C1007 H1010 0.961 . S
H1008 C1007 0.959 . S
H1009 C1007 0.960 . S
H1010 C1007 0.961 . S
O1011 Co986 1.967 1_556 S
O1011 C1019 1.258 . S
O1012 Co987 1.941 1_556 S
O1012 C1019 1.266 . S
H1013 C1015 0.959 . S
H1014 C1015 0.961 . S
C1015 C1005 1.510 . S
C1015 H1013 0.959 . S
C1015 H1014 0.961 . S
C1015 H1016 0.960 . S
H1016 C1015 0.960 . S
H1017 N997 0.862 . S
O1018 Co986 1.920 . S
O1018 C991 1.289 . S
C1019 O1011 1.258 . S
C1019 O1012 1.266 . S
Co1020 O1023 1.970 . S
Co1020 N1037 1.989 . S
Co1020 O1045 1.967 . S
Co1020 O1052 1.920 . S
Co1021 O1024 1.966 . S
Co1021 N1030 2.022 . S
Co1021 N1038 1.993 . S
Co1021 O1046 1.941 . S
C1022 O1023 1.258 . S
C1022 O1024 1.263 . S
O1023 Co1020 1.970 . S
O1023 C1022 1.258 . S
O1024 Co1021 1.966 . S
O1024 C1022 1.263 . S
C1025 O1026 1.235 . S
C1025 O1052 1.289 . S
O1026 C1025 1.235 . S
C1027 C1029 1.400 . S
C1027 N1030 1.351 . S
C1027 C1032 1.501 . S
C1028 C1029 1.387 . S
C1028 N1031 1.341 . S
C1029 C1027 1.400 . S
C1029 C1028 1.387 . S
N1030 Co1021 2.022 . S
N1030 C1027 1.351 . S
N1030 N1031 1.365 . S
N1031 C1028 1.341 . S
N1031 N1030 1.365 . S
N1031 H1051 0.862 . S
C1032 C1027 1.501 . S
C1032 H1033 0.961 . S
C1032 H1034 0.961 . S
C1032 H1035 0.960 . S
H1033 C1032 0.961 . S
H1034 C1032 0.961 . S
H1035 C1032 0.960 . S
C1036 N1037 1.342 . S
C1036 C1040 1.401 . S
C1036 C1041 1.499 . S
N1037 Co1020 1.989 . S
N1037 C1036 1.342 . S
N1037 N1038 1.388 . S
N1038 Co1021 1.993 . S
N1038 N1037 1.388 . S
N1038 C1039 1.346 . S
C1039 N1038 1.346 . S
C1039 C1040 1.396 . S
C1039 C1049 1.510 . S
C1040 C1036 1.401 . S
C1040 C1039 1.396 . S
C1041 C1036 1.499 . S
C1041 H1042 0.959 . S
C1041 H1043 0.960 . S
C1041 H1044 0.961 . S
H1042 C1041 0.959 . S
H1043 C1041 0.960 . S
H1044 C1041 0.961 . S
O1045 Co1020 1.967 . S
O1045 C1053 1.258 . S
O1046 Co1021 1.941 . S
O1046 C1053 1.266 . S
H1047 C1049 0.959 . S
H1048 C1049 0.961 . S
C1049 C1039 1.510 . S
C1049 H1047 0.959 . S
C1049 H1048 0.961 . S
C1049 H1050 0.960 . S
H1050 C1049 0.960 . S
H1051 N1031 0.862 . S
O1052 Co1020 1.920 . S
O1052 C1025 1.289 . S
C1053 O1045 1.258 . S
C1053 O1046 1.266 . S
Co1054 O1057 1.970 . S
Co1054 N1071 1.989 . S
Co1054 O1079 1.967 . S
Co1054 O1086 1.920 . S
Co1055 O1058 1.966 . S
Co1055 N1064 2.022 . S
Co1055 N1072 1.993 . S
Co1055 O1080 1.941 . S
C1056 O1057 1.258 . S
C1056 O1058 1.263 . S
O1057 Co1054 1.970 . S
O1057 C1056 1.258 . S
O1058 Co1055 1.966 . S
O1058 C1056 1.263 . S
C1059 O1060 1.235 . S
C1059 O1086 1.289 . S
O1060 C1059 1.235 . S
C1061 C1063 1.400 . S
C1061 N1064 1.351 . S
C1061 C1066 1.501 . S
C1062 C1063 1.387 . S
C1062 N1065 1.341 . S
C1063 C1061 1.400 . S
C1063 C1062 1.387 . S
N1064 Co1055 2.022 . S
N1064 C1061 1.351 . S
N1064 N1065 1.365 . S
N1065 C1062 1.341 . S
N1065 N1064 1.365 . S
N1065 H1085 0.862 . S
C1066 C1061 1.501 . S
C1066 H1067 0.961 . S
C1066 H1068 0.961 . S
C1066 H1069 0.960 . S
H1067 C1066 0.961 . S
H1068 C1066 0.961 . S
H1069 C1066 0.960 . S
C1070 N1071 1.342 . S
C1070 C1074 1.401 . S
C1070 C1075 1.499 . S
N1071 Co1054 1.989 . S
N1071 C1070 1.342 . S
N1071 N1072 1.388 . S
N1072 Co1055 1.993 . S
N1072 N1071 1.388 . S
N1072 C1073 1.346 . S
C1073 N1072 1.346 . S
C1073 C1074 1.396 . S
C1073 C1083 1.510 . S
C1074 C1070 1.401 . S
C1074 C1073 1.396 . S
C1075 C1070 1.499 . S
C1075 H1076 0.959 . S
C1075 H1077 0.960 . S
C1075 H1078 0.961 . S
H1076 C1075 0.959 . S
H1077 C1075 0.960 . S
H1078 C1075 0.961 . S
O1079 Co1054 1.967 . S
O1079 C1087 1.258 . S
O1080 Co1055 1.941 . S
O1080 C1087 1.266 . S
H1081 C1083 0.959 . S
H1082 C1083 0.961 . S
C1083 C1073 1.510 . S
C1083 H1081 0.959 . S
C1083 H1082 0.961 . S
C1083 H1084 0.960 . S
H1084 C1083 0.960 . S
H1085 N1065 0.862 . S
O1086 Co1054 1.920 . S
O1086 C1059 1.289 . S
C1087 O1079 1.258 . S
C1087 O1080 1.266 . S
Co1088 O1091 1.970 . S
Co1088 N1105 1.989 . S
Co1088 O1113 1.967 . S
Co1088 O1120 1.920 . S
Co1089 O1092 1.966 . S
Co1089 N1098 2.022 . S
Co1089 N1106 1.993 . S
Co1089 O1114 1.941 . S
C1090 O1091 1.258 . S
C1090 O1092 1.263 . S
O1091 Co1088 1.970 . S
O1091 C1090 1.258 . S
O1092 Co1089 1.966 . S
O1092 C1090 1.263 . S
C1093 O1094 1.235 . S
C1093 O1120 1.289 . S
O1094 C1093 1.235 . S
C1095 C1097 1.400 . S
C1095 N1098 1.351 . S
C1095 C1100 1.501 . S
C1096 C1097 1.387 . S
C1096 N1099 1.341 . S
C1097 C1095 1.400 . S
C1097 C1096 1.387 . S
N1098 Co1089 2.022 . S
N1098 C1095 1.351 . S
N1098 N1099 1.365 . S
N1099 C1096 1.341 . S
N1099 N1098 1.365 . S
N1099 H1119 0.862 . S
C1100 C1095 1.501 . S
C1100 H1101 0.961 . S
C1100 H1102 0.961 . S
C1100 H1103 0.960 . S
H1101 C1100 0.961 . S
H1102 C1100 0.961 . S
H1103 C1100 0.960 . S
C1104 N1105 1.342 . S
C1104 C1108 1.401 . S
C1104 C1109 1.499 . S
N1105 Co1088 1.989 . S
N1105 C1104 1.342 . S
N1105 N1106 1.388 . S
N1106 Co1089 1.993 . S
N1106 N1105 1.388 . S
N1106 C1107 1.346 . S
C1107 N1106 1.346 . S
C1107 C1108 1.396 . S
C1107 C1117 1.510 . S
C1108 C1104 1.401 . S
C1108 C1107 1.396 . S
C1109 C1104 1.499 . S
C1109 H1110 0.959 . S
C1109 H1111 0.960 . S
C1109 H1112 0.961 . S
H1110 C1109 0.959 . S
H1111 C1109 0.960 . S
H1112 C1109 0.961 . S
O1113 Co1088 1.967 . S
O1113 C1121 1.258 . S
O1114 Co1089 1.941 . S
O1114 C1121 1.266 . S
H1115 C1117 0.959 . S
H1116 C1117 0.961 . S
C1117 C1107 1.510 . S
C1117 H1115 0.959 . S
C1117 H1116 0.961 . S
C1117 H1118 0.960 . S
H1118 C1117 0.960 . S
H1119 N1099 0.862 . S
O1120 Co1088 1.920 . S
O1120 C1093 1.289 . S
C1121 O1113 1.258 . S
C1121 O1114 1.266 . S
Co1122 O1125 1.970 . S
Co1122 N1139 1.989 . S
Co1122 O1147 1.967 . S
Co1122 O1154 1.920 . S
Co1123 O1126 1.966 . S
Co1123 N1132 2.022 . S
Co1123 N1140 1.993 . S
Co1123 O1148 1.941 . S
C1124 O1125 1.258 . S
C1124 O1126 1.263 . S
O1125 Co1122 1.970 . S
O1125 C1124 1.258 . S
O1126 Co1123 1.966 . S
O1126 C1124 1.263 . S
C1127 O1128 1.235 . S
C1127 O1154 1.289 . S
O1128 C1127 1.235 . S
C1129 C1131 1.400 . S
C1129 N1132 1.351 . S
C1129 C1134 1.501 . S
C1130 C1131 1.387 . S
C1130 N1133 1.341 . S
C1131 C1129 1.400 . S
C1131 C1130 1.387 . S
N1132 Co1123 2.022 . S
N1132 C1129 1.351 . S
N1132 N1133 1.365 . S
N1133 C1130 1.341 . S
N1133 N1132 1.365 . S
N1133 H1153 0.862 . S
C1134 C1129 1.501 . S
C1134 H1135 0.961 . S
C1134 H1136 0.961 . S
C1134 H1137 0.960 . S
H1135 C1134 0.961 . S
H1136 C1134 0.961 . S
H1137 C1134 0.960 . S
C1138 N1139 1.342 . S
C1138 C1142 1.401 . S
C1138 C1143 1.499 . S
N1139 Co1122 1.989 . S
N1139 C1138 1.342 . S
N1139 N1140 1.388 . S
N1140 Co1123 1.993 . S
N1140 N1139 1.388 . S
N1140 C1141 1.346 . S
C1141 N1140 1.346 . S
C1141 C1142 1.396 . S
C1141 C1151 1.510 . S
C1142 C1138 1.401 . S
C1142 C1141 1.396 . S
C1143 C1138 1.499 . S
C1143 H1144 0.959 . S
C1143 H1145 0.960 . S
C1143 H1146 0.961 . S
H1144 C1143 0.959 . S
H1145 C1143 0.960 . S
H1146 C1143 0.961 . S
O1147 Co1122 1.967 . S
O1147 C1155 1.258 . S
O1148 Co1123 1.941 . S
O1148 C1155 1.266 . S
H1149 C1151 0.959 . S
H1150 C1151 0.961 . S
C1151 C1141 1.510 . S
C1151 H1149 0.959 . S
C1151 H1150 0.961 . S
C1151 H1152 0.960 . S
H1152 C1151 0.960 . S
H1153 N1133 0.862 . S
O1154 Co1122 1.920 . S
O1154 C1127 1.289 . S
C1155 O1147 1.258 . S
C1155 O1148 1.266 . S
Co1156 O1159 1.970 . S
Co1156 N1173 1.989 . S
Co1156 O1181 1.967 . S
Co1156 O1188 1.920 . S
Co1157 O1160 1.966 . S
Co1157 N1166 2.022 . S
Co1157 N1174 1.993 . S
Co1157 O1182 1.941 . S
C1158 O1159 1.258 . S
C1158 O1160 1.263 . S
O1159 Co1156 1.970 . S
O1159 C1158 1.258 . S
O1160 Co1157 1.966 . S
O1160 C1158 1.263 . S
C1161 O1162 1.235 . S
C1161 O1188 1.289 . S
O1162 C1161 1.235 . S
C1163 C1165 1.400 . S
C1163 N1166 1.351 . S
C1163 C1168 1.501 . S
C1164 C1165 1.387 . S
C1164 N1167 1.341 . S
C1165 C1163 1.400 . S
C1165 C1164 1.387 . S
N1166 Co1157 2.022 . S
N1166 C1163 1.351 . S
N1166 N1167 1.365 . S
N1167 C1164 1.341 . S
N1167 N1166 1.365 . S
N1167 H1187 0.862 . S
C1168 C1163 1.501 . S
C1168 H1169 0.961 . S
C1168 H1170 0.961 . S
C1168 H1171 0.960 . S
H1169 C1168 0.961 . S
H1170 C1168 0.961 . S
H1171 C1168 0.960 . S
C1172 N1173 1.342 . S
C1172 C1176 1.401 . S
C1172 C1177 1.499 . S
N1173 Co1156 1.989 . S
N1173 C1172 1.342 . S
N1173 N1174 1.388 . S
N1174 Co1157 1.993 . S
N1174 N1173 1.388 . S
N1174 C1175 1.346 . S
C1175 N1174 1.346 . S
C1175 C1176 1.396 . S
C1175 C1185 1.510 . S
C1176 C1172 1.401 . S
C1176 C1175 1.396 . S
C1177 C1172 1.499 . S
C1177 H1178 0.959 . S
C1177 H1179 0.960 . S
C1177 H1180 0.961 . S
H1178 C1177 0.959 . S
H1179 C1177 0.960 . S
H1180 C1177 0.961 . S
O1181 Co1156 1.967 . S
O1181 C1189 1.258 . S
O1182 Co1157 1.941 . S
O1182 C1189 1.266 . S
H1183 C1185 0.959 . S
H1184 C1185 0.961 . S
C1185 C1175 1.510 . S
C1185 H1183 0.959 . S
C1185 H1184 0.961 . S
C1185 H1186 0.960 . S
H1186 C1185 0.960 . S
H1187 N1167 0.862 . S
O1188 Co1156 1.920 . S
O1188 C1161 1.289 . S
C1189 O1181 1.258 . S
C1189 O1182 1.266 . S
Co1190 O1193 1.970 . S
Co1190 N1207 1.989 . S
Co1190 O1215 1.967 . S
Co1190 O1222 1.920 . S
Co1191 O1194 1.966 . S
Co1191 N1200 2.022 . S
Co1191 N1208 1.993 . S
Co1191 O1216 1.941 . S
C1192 O1193 1.258 . S
C1192 O1194 1.263 . S
O1193 Co1190 1.970 . S
O1193 C1192 1.258 . S
O1194 Co1191 1.966 . S
O1194 C1192 1.263 . S
C1195 O1196 1.235 . S
C1195 O1222 1.289 . S
O1196 C1195 1.235 . S
C1197 C1199 1.400 . S
C1197 N1200 1.351 . S
C1197 C1202 1.501 . S
C1198 C1199 1.387 . S
C1198 N1201 1.341 . S
C1199 C1197 1.400 . S
C1199 C1198 1.387 . S
N1200 Co1191 2.022 . S
N1200 C1197 1.351 . S
N1200 N1201 1.365 . S
N1201 C1198 1.341 . S
N1201 N1200 1.365 . S
N1201 H1221 0.862 . S
C1202 C1197 1.501 . S
C1202 H1203 0.961 . S
C1202 H1204 0.961 . S
C1202 H1205 0.960 . S
H1203 C1202 0.961 . S
H1204 C1202 0.961 . S
H1205 C1202 0.960 . S
C1206 N1207 1.342 . S
C1206 C1210 1.401 . S
C1206 C1211 1.499 . S
N1207 Co1190 1.989 . S
N1207 C1206 1.342 . S
N1207 N1208 1.388 . S
N1208 Co1191 1.993 . S
N1208 N1207 1.388 . S
N1208 C1209 1.346 . S
C1209 N1208 1.346 . S
C1209 C1210 1.396 . S
C1209 C1219 1.510 . S
C1210 C1206 1.401 . S
C1210 C1209 1.396 . S
C1211 C1206 1.499 . S
C1211 H1212 0.959 . S
C1211 H1213 0.960 . S
C1211 H1214 0.961 . S
H1212 C1211 0.959 . S
H1213 C1211 0.960 . S
H1214 C1211 0.961 . S
O1215 Co1190 1.967 . S
O1215 C1223 1.258 . S
O1216 Co1191 1.941 . S
O1216 C1223 1.266 . S
H1217 C1219 0.959 . S
H1218 C1219 0.961 . S
C1219 C1209 1.510 . S
C1219 H1217 0.959 . S
C1219 H1218 0.961 . S
C1219 H1220 0.960 . S
H1220 C1219 0.960 . S
H1221 N1201 0.862 . S
O1222 Co1190 1.920 . S
O1222 C1195 1.289 . S
C1223 O1215 1.258 . S
C1223 O1216 1.266 . S
H1224 C1230 0.930 . S
H1225 C1233 0.930 . S
H1226 C1234 0.930 . S
H1227 C1235 0.930 . S
H1228 C1238 0.930 . S
H1229 C1239 0.930 . S
C1230 H1224 0.930 . S
C1230 C1231 1.355 . S
C1230 C1232 1.415 . S
C1231 C1230 1.355 . S
C1231 C1233 1.419 . S
C1232 C1230 1.415 . S
C1232 C1237 1.425 . S
C1232 C1239 1.409 . S
C1233 H1225 0.930 . S
C1233 C1231 1.419 . S
C1233 C1234 1.362 . S
C1234 H1226 0.930 . S
C1234 C1233 1.362 . S
C1234 C1237 1.409 . S
C1235 H1227 0.930 . S
C1235 C1236 1.355 . S
C1235 C1237 1.415 . S
C1236 C1235 1.355 . S
C1236 C1238 1.419 . S
C1237 C1232 1.425 . S
C1237 C1234 1.409 . S
C1237 C1235 1.415 . S
C1238 H1228 0.930 . S
C1238 C1236 1.419 . S
C1238 C1239 1.362 . S
C1239 H1229 0.930 . S
C1239 C1232 1.409 . S
C1239 C1238 1.362 . S
H1240 C1246 0.930 . S
H1241 C1249 0.930 . S
H1242 C1250 0.930 . S
H1243 C1251 0.930 . S
H1244 C1254 0.930 . S
H1245 C1255 0.930 . S
C1246 H1240 0.930 . S
C1246 C1247 1.355 . S
C1246 C1248 1.415 1_565 S
C1247 C1246 1.355 . S
C1247 C1249 1.419 . S
C1248 C1246 1.415 1_545 S
C1248 C1253 1.425 . S
C1248 C1255 1.409 . S
C1249 H1241 0.930 . S
C1249 C1247 1.419 . S
C1249 C1250 1.362 1_565 S
C1250 H1242 0.930 . S
C1250 C1249 1.362 1_545 S
C1250 C1253 1.409 . S
C1251 H1243 0.930 . S
C1251 C1252 1.355 . S
C1251 C1253 1.415 . S
C1252 C1251 1.355 . S
C1252 C1254 1.419 . S
C1253 C1248 1.425 . S
C1253 C1250 1.409 . S
C1253 C1251 1.415 . S
C1254 H1244 0.930 . S
C1254 C1252 1.419 . S
C1254 C1255 1.362 . S
C1255 H1245 0.930 . S
C1255 C1248 1.409 . S
C1255 C1254 1.362 . S
H1256 C1262 0.930 . S
H1257 C1265 0.930 . S
H1258 C1266 0.930 . S
H1259 C1267 0.930 . S
H1260 C1270 0.930 . S
H1261 C1271 0.930 . S
C1262 H1256 0.930 . S
C1262 C1263 1.355 . S
C1262 C1264 1.415 1_455 S
C1263 C1262 1.355 . S
C1263 C1265 1.419 . S
C1264 C1262 1.415 1_655 S
C1264 C1269 1.425 . S
C1264 C1271 1.409 . S
C1265 H1257 0.930 . S
C1265 C1263 1.419 . S
C1265 C1266 1.362 1_455 S
C1266 H1258 0.930 . S
C1266 C1265 1.362 1_655 S
C1266 C1269 1.409 . S
C1267 H1259 0.930 . S
C1267 C1268 1.355 . S
C1267 C1269 1.415 . S
C1268 C1267 1.355 . S
C1268 C1270 1.419 . S
C1269 C1264 1.425 . S
C1269 C1266 1.409 . S
C1269 C1267 1.415 . S
C1270 H1260 0.930 . S
C1270 C1268 1.419 . S
C1270 C1271 1.362 . S
C1271 H1261 0.930 . S
C1271 C1264 1.409 . S
C1271 C1270 1.362 . S
H1272 C1278 0.930 . S
H1273 C1281 0.930 . S
H1274 C1282 0.930 . S
H1275 C1283 0.930 . S
H1276 C1286 0.930 . S
H1277 C1287 0.930 . S
C1278 H1272 0.930 . S
C1278 C1279 1.355 . S
C1278 C1280 1.415 . S
C1279 C1278 1.355 . S
C1279 C1281 1.419 . S
C1280 C1278 1.415 . S
C1280 C1285 1.425 . S
C1280 C1287 1.409 . S
C1281 H1273 0.930 . S
C1281 C1279 1.419 . S
C1281 C1282 1.362 . S
C1282 H1274 0.930 . S
C1282 C1281 1.362 . S
C1282 C1285 1.409 . S
C1283 H1275 0.930 . S
C1283 C1284 1.355 . S
C1283 C1285 1.415 . S
C1284 C1283 1.355 . S
C1284 C1286 1.419 . S
C1285 C1280 1.425 . S
C1285 C1282 1.409 . S
C1285 C1283 1.415 . S
C1286 H1276 0.930 . S
C1286 C1284 1.419 . S
C1286 C1287 1.362 . S
C1287 H1277 0.930 . S
C1287 C1280 1.409 . S
C1287 C1286 1.362 . S
H1288 C1294 0.930 . S
H1289 C1297 0.930 . S
H1290 C1298 0.930 . S
H1291 C1299 0.930 . S
H1292 C1302 0.930 . S
H1293 C1303 0.930 . S
C1294 H1288 0.930 . S
C1294 C1295 1.355 . S
C1294 C1296 1.415 1_545 S
C1295 C1294 1.355 . S
C1295 C1297 1.419 . S
C1296 C1294 1.415 1_565 S
C1296 C1301 1.425 . S
C1296 C1303 1.409 . S
C1297 H1289 0.930 . S
C1297 C1295 1.419 . S
C1297 C1298 1.362 1_545 S
C1298 H1290 0.930 . S
C1298 C1297 1.362 1_565 S
C1298 C1301 1.409 . S
C1299 H1291 0.930 . S
C1299 C1300 1.355 . S
C1299 C1301 1.415 . S
C1300 C1299 1.355 . S
C1300 C1302 1.419 . S
C1301 C1296 1.425 . S
C1301 C1298 1.409 . S
C1301 C1299 1.415 . S
C1302 H1292 0.930 . S
C1302 C1300 1.419 . S
C1302 C1303 1.362 . S
C1303 H1293 0.930 . S
C1303 C1296 1.409 . S
C1303 C1302 1.362 . S
H1304 C1310 0.930 . S
H1305 C1313 0.930 . S
H1306 C1314 0.930 . S
H1307 C1315 0.930 . S
H1308 C1318 0.930 . S
H1309 C1319 0.930 . S
C1310 H1304 0.930 . S
C1310 C1311 1.355 . S
C1310 C1312 1.415 1_655 S
C1311 C1310 1.355 . S
C1311 C1313 1.419 . S
C1312 C1310 1.415 1_455 S
C1312 C1317 1.425 . S
C1312 C1319 1.409 . S
C1313 H1305 0.930 . S
C1313 C1311 1.419 . S
C1313 C1314 1.362 1_655 S
C1314 H1306 0.930 . S
C1314 C1313 1.362 1_455 S
C1314 C1317 1.409 . S
C1315 H1307 0.930 . S
C1315 C1316 1.355 . S
C1315 C1317 1.415 . S
C1316 C1315 1.355 . S
C1316 C1318 1.419 . S
C1317 C1312 1.425 . S
C1317 C1314 1.409 . S
C1317 C1315 1.415 . S
C1318 H1308 0.930 . S
C1318 C1316 1.419 . S
C1318 C1319 1.362 . S
C1319 H1309 0.930 . S
C1319 C1312 1.409 . S
C1319 C1318 1.362 . S
H1320 C1326 0.930 . S
H1321 C1329 0.930 . S
H1322 C1330 0.930 . S
H1323 C1331 0.930 . S
H1324 C1334 0.930 . S
H1325 C1335 0.930 . S
C1326 H1320 0.930 . S
C1326 C1327 1.355 . S
C1326 C1328 1.415 . S
C1327 C1326 1.355 . S
C1327 C1329 1.419 . S
C1328 C1326 1.415 . S
C1328 C1333 1.425 . S
C1328 C1335 1.409 . S
C1329 H1321 0.930 . S
C1329 C1327 1.419 . S
C1329 C1330 1.362 . S
C1330 H1322 0.930 . S
C1330 C1329 1.362 . S
C1330 C1333 1.409 . S
C1331 H1323 0.930 . S
C1331 C1332 1.355 . S
C1331 C1333 1.415 . S
C1332 C1331 1.355 . S
C1332 C1334 1.419 . S
C1333 C1328 1.425 . S
C1333 C1330 1.409 . S
C1333 C1331 1.415 . S
C1334 H1324 0.930 . S
C1334 C1332 1.419 . S
C1334 C1335 1.362 . S
C1335 H1325 0.930 . S
C1335 C1328 1.409 . S
C1335 C1334 1.362 . S
H1336 C1342 0.930 . S
H1337 C1345 0.930 . S
H1338 C1346 0.930 . S
H1339 C1347 0.930 . S
H1340 C1350 0.930 . S
H1341 C1351 0.930 . S
C1342 H1336 0.930 . S
C1342 C1343 1.355 . S
C1342 C1344 1.415 . S
C1343 C1342 1.355 . S
C1343 C1345 1.419 . S
C1344 C1342 1.415 . S
C1344 C1349 1.425 . S
C1344 C1351 1.409 . S
C1345 H1337 0.930 . S
C1345 C1343 1.419 . S
C1345 C1346 1.362 . S
C1346 H1338 0.930 . S
C1346 C1345 1.362 . S
C1346 C1349 1.409 . S
C1347 H1339 0.930 . S
C1347 C1348 1.355 . S
C1347 C1349 1.415 1_545 S
C1348 C1347 1.355 . S
C1348 C1350 1.419 . S
C1349 C1344 1.425 . S
C1349 C1346 1.409 . S
C1349 C1347 1.415 1_565 S
C1350 H1340 0.930 . S
C1350 C1348 1.419 . S
C1350 C1351 1.362 1_545 S
C1351 H1341 0.930 . S
C1351 C1344 1.409 . S
C1351 C1350 1.362 1_565 S
H1352 C1358 0.930 . S
H1353 C1361 0.930 . S
H1354 C1362 0.930 . S
H1355 C1363 0.930 . S
H1356 C1366 0.930 . S
H1357 C1367 0.930 . S
C1358 H1352 0.930 . S
C1358 C1359 1.355 . S
C1358 C1360 1.415 . S
C1359 C1358 1.355 . S
C1359 C1361 1.419 . S
C1360 C1358 1.415 . S
C1360 C1365 1.425 . S
C1360 C1367 1.409 . S
C1361 H1353 0.930 . S
C1361 C1359 1.419 . S
C1361 C1362 1.362 . S
C1362 H1354 0.930 . S
C1362 C1361 1.362 . S
C1362 C1365 1.409 . S
C1363 H1355 0.930 . S
C1363 C1364 1.355 . S
C1363 C1365 1.415 1_655 S
C1364 C1363 1.355 . S
C1364 C1366 1.419 . S
C1365 C1360 1.425 . S
C1365 C1362 1.409 . S
C1365 C1363 1.415 1_455 S
C1366 H1356 0.930 . S
C1366 C1364 1.419 . S
C1366 C1367 1.362 1_655 S
C1367 H1357 0.930 . S
C1367 C1360 1.409 . S
C1367 C1366 1.362 1_455 S
H1368 C1374 0.930 . S
H1369 C1377 0.930 . S
H1370 C1378 0.930 . S
H1371 C1379 0.930 . S
H1372 C1382 0.930 . S
H1373 C1383 0.930 . S
C1374 H1368 0.930 . S
C1374 C1375 1.355 . S
C1374 C1376 1.415 . S
C1375 C1374 1.355 . S
C1375 C1377 1.419 . S
C1376 C1374 1.415 . S
C1376 C1381 1.425 . S
C1376 C1383 1.409 . S
C1377 H1369 0.930 . S
C1377 C1375 1.419 . S
C1377 C1378 1.362 . S
C1378 H1370 0.930 . S
C1378 C1377 1.362 . S
C1378 C1381 1.409 . S
C1379 H1371 0.930 . S
C1379 C1380 1.355 . S
C1379 C1381 1.415 . S
C1380 C1379 1.355 . S
C1380 C1382 1.419 . S
C1381 C1376 1.425 . S
C1381 C1378 1.409 . S
C1381 C1379 1.415 . S
C1382 H1372 0.930 . S
C1382 C1380 1.419 . S
C1382 C1383 1.362 . S
C1383 H1373 0.930 . S
C1383 C1376 1.409 . S
C1383 C1382 1.362 . S
H1384 C1390 0.930 . S
H1385 C1393 0.930 . S
H1386 C1394 0.930 . S
H1387 C1395 0.930 . S
H1388 C1398 0.930 . S
H1389 C1399 0.930 . S
C1390 H1384 0.930 . S
C1390 C1391 1.355 . S
C1390 C1392 1.415 1_565 S
C1391 C1390 1.355 . S
C1391 C1393 1.419 . S
C1392 C1390 1.415 1_545 S
C1392 C1397 1.425 . S
C1392 C1399 1.409 . S
C1393 H1385 0.930 . S
C1393 C1391 1.419 . S
C1393 C1394 1.362 1_565 S
C1394 H1386 0.930 . S
C1394 C1393 1.362 1_545 S
C1394 C1397 1.409 . S
C1395 H1387 0.930 . S
C1395 C1396 1.355 . S
C1395 C1397 1.415 . S
C1396 C1395 1.355 . S
C1396 C1398 1.419 . S
C1397 C1392 1.425 . S
C1397 C1394 1.409 . S
C1397 C1395 1.415 . S
C1398 H1388 0.930 . S
C1398 C1396 1.419 . S
C1398 C1399 1.362 . S
C1399 H1389 0.930 . S
C1399 C1392 1.409 . S
C1399 C1398 1.362 . S
H1400 C1406 0.930 . S
H1401 C1409 0.930 . S
H1402 C1410 0.930 . S
H1403 C1411 0.930 . S
H1404 C1414 0.930 . S
H1405 C1415 0.930 . S
C1406 H1400 0.930 . S
C1406 C1407 1.355 . S
C1406 C1408 1.415 . S
C1407 C1406 1.355 . S
C1407 C1409 1.419 . S
C1408 C1406 1.415 . S
C1408 C1413 1.425 . S
C1408 C1415 1.409 . S
C1409 H1401 0.930 . S
C1409 C1407 1.419 . S
C1409 C1410 1.362 . S
C1410 H1402 0.930 . S
C1410 C1409 1.362 . S
C1410 C1413 1.409 . S
C1411 H1403 0.930 . S
C1411 C1412 1.355 . S
C1411 C1413 1.415 1_455 S
C1412 C1411 1.355 . S
C1412 C1414 1.419 . S
C1413 C1408 1.425 . S
C1413 C1410 1.409 . S
C1413 C1411 1.415 1_655 S
C1414 H1404 0.930 . S
C1414 C1412 1.419 . S
C1414 C1415 1.362 1_455 S
C1415 H1405 0.930 . S
C1415 C1408 1.409 . S
C1415 C1414 1.362 1_655 S
H1416 C1422 0.930 . S
H1417 C1425 0.930 . S
H1418 C1426 0.930 . S
H1419 C1427 0.930 . S
H1420 C1430 0.930 . S
H1421 C1431 0.930 . S
C1422 H1416 0.930 . S
C1422 C1423 1.355 . S
C1422 C1424 1.415 . S
C1423 C1422 1.355 . S
C1423 C1425 1.419 . S
C1424 C1422 1.415 . S
C1424 C1429 1.425 . S
C1424 C1431 1.409 . S
C1425 H1417 0.930 . S
C1425 C1423 1.419 . S
C1425 C1426 1.362 . S
C1426 H1418 0.930 . S
C1426 C1425 1.362 . S
C1426 C1429 1.409 . S
C1427 H1419 0.930 . S
C1427 C1428 1.355 . S
C1427 C1429 1.415 . S
C1428 C1427 1.355 . S
C1428 C1430 1.419 . S
C1429 C1424 1.425 . S
C1429 C1426 1.409 . S
C1429 C1427 1.415 . S
C1430 H1420 0.930 . S
C1430 C1428 1.419 . S
C1430 C1431 1.362 . S
C1431 H1421 0.930 . S
C1431 C1424 1.409 . S
C1431 C1430 1.362 . S
H1432 C1438 0.930 . S
H1433 C1441 0.930 . S
H1434 C1442 0.930 . S
H1435 C1443 0.930 . S
H1436 C1446 0.930 . S
H1437 C1447 0.930 . S
C1438 H1432 0.930 . S
C1438 C1439 1.355 . S
C1438 C1440 1.415 . S
C1439 C1438 1.355 . S
C1439 C1441 1.419 . S
C1440 C1438 1.415 . S
C1440 C1445 1.425 . S
C1440 C1447 1.409 . S
C1441 H1433 0.930 . S
C1441 C1439 1.419 . S
C1441 C1442 1.362 . S
C1442 H1434 0.930 . S
C1442 C1441 1.362 . S
C1442 C1445 1.409 . S
C1443 H1435 0.930 . S
C1443 C1444 1.355 . S
C1443 C1445 1.415 . S
C1444 C1443 1.355 . S
C1444 C1446 1.419 . S
C1445 C1440 1.425 . S
C1445 C1442 1.409 . S
C1445 C1443 1.415 . S
C1446 H1436 0.930 . S
C1446 C1444 1.419 . S
C1446 C1447 1.362 . S
C1447 H1437 0.930 . S
C1447 C1440 1.409 . S
C1447 C1446 1.362 . S
H1448 C1454 0.930 . S
H1449 C1457 0.930 . S
H1450 C1458 0.930 . S
H1451 C1459 0.930 . S
H1452 C1462 0.930 . S
H1453 C1463 0.930 . S
C1454 H1448 0.930 . S
C1454 C1455 1.355 . S
C1454 C1456 1.415 . S
C1455 C1454 1.355 . S
C1455 C1457 1.419 . S
C1456 C1454 1.415 . S
C1456 C1461 1.425 . S
C1456 C1463 1.409 . S
C1457 H1449 0.930 . S
C1457 C1455 1.419 . S
C1457 C1458 1.362 . S
C1458 H1450 0.930 . S
C1458 C1457 1.362 . S
C1458 C1461 1.409 . S
C1459 H1451 0.930 . S
C1459 C1460 1.355 . S
C1459 C1461 1.415 . S
C1460 C1459 1.355 . S
C1460 C1462 1.419 . S
C1461 C1456 1.425 . S
C1461 C1458 1.409 . S
C1461 C1459 1.415 . S
C1462 H1452 0.930 . S
C1462 C1460 1.419 . S
C1462 C1463 1.362 . S
C1463 H1453 0.930 . S
C1463 C1456 1.409 . S
C1463 C1462 1.362 . S
H1464 C1470 0.930 . S
H1465 C1473 0.930 . S
H1466 C1474 0.930 . S
H1467 C1475 0.930 . S
H1468 C1478 0.930 . S
H1469 C1479 0.930 . S
C1470 H1464 0.930 . S
C1470 C1471 1.355 . S
C1470 C1472 1.415 . S
C1471 C1470 1.355 . S
C1471 C1473 1.419 . S
C1472 C1470 1.415 . S
C1472 C1477 1.425 . S
C1472 C1479 1.409 . S
C1473 H1465 0.930 . S
C1473 C1471 1.419 . S
C1473 C1474 1.362 . S
C1474 H1466 0.930 . S
C1474 C1473 1.362 . S
C1474 C1477 1.409 . S
C1475 H1467 0.930 . S
C1475 C1476 1.355 . S
C1475 C1477 1.415 . S
C1476 C1475 1.355 . S
C1476 C1478 1.419 . S
C1477 C1472 1.425 . S
C1477 C1474 1.409 . S
C1477 C1475 1.415 . S
C1478 H1468 0.930 . S
C1478 C1476 1.419 . S
C1478 C1479 1.362 . S
C1479 H1469 0.930 . S
C1479 C1472 1.409 . S
C1479 C1478 1.362 . S
H1480 C1486 0.930 . S
H1481 C1489 0.930 . S
H1482 C1490 0.930 . S
H1483 C1491 0.930 . S
H1484 C1494 0.930 . S
H1485 C1495 0.930 . S
C1486 H1480 0.930 . S
C1486 C1487 1.355 . S
C1486 C1488 1.415 . S
C1487 C1486 1.355 . S
C1487 C1489 1.419 . S
C1488 C1486 1.415 . S
C1488 C1493 1.425 . S
C1488 C1495 1.409 . S
C1489 H1481 0.930 . S
C1489 C1487 1.419 . S
C1489 C1490 1.362 . S
C1490 H1482 0.930 . S
C1490 C1489 1.362 . S
C1490 C1493 1.409 . S
C1491 H1483 0.930 . S
C1491 C1492 1.355 . S
C1491 C1493 1.415 . S
C1492 C1491 1.355 . S
C1492 C1494 1.419 . S
C1493 C1488 1.425 . S
C1493 C1490 1.409 . S
C1493 C1491 1.415 . S
C1494 H1484 0.930 . S
C1494 C1492 1.419 . S
C1494 C1495 1.362 . S
C1495 H1485 0.930 . S
C1495 C1488 1.409 . S
C1495 C1494 1.362 . S
H1496 C1502 0.930 . S
H1497 C1505 0.930 . S
H1498 C1506 0.930 . S
H1499 C1507 0.930 . S
H1500 C1510 0.930 . S
H1501 C1511 0.930 . S
C1502 H1496 0.930 . S
C1502 C1503 1.355 . S
C1502 C1504 1.415 . S
C1503 C1502 1.355 . S
C1503 C1505 1.419 . S
C1504 C1502 1.415 . S
C1504 C1509 1.425 . S
C1504 C1511 1.409 . S
C1505 H1497 0.930 . S
C1505 C1503 1.419 . S
C1505 C1506 1.362 . S
C1506 H1498 0.930 . S
C1506 C1505 1.362 . S
C1506 C1509 1.409 . S
C1507 H1499 0.930 . S
C1507 C1508 1.355 . S
C1507 C1509 1.415 . S
C1508 C1507 1.355 . S
C1508 C1510 1.419 . S
C1509 C1504 1.425 . S
C1509 C1506 1.409 . S
C1509 C1507 1.415 . S
C1510 H1500 0.930 . S
C1510 C1508 1.419 . S
C1510 C1511 1.362 . S
C1511 H1501 0.930 . S
C1511 C1504 1.409 . S
C1511 C1510 1.362 . S
H1512 C1518 0.930 . S
H1513 C1521 0.930 . S
H1514 C1522 0.930 . S
H1515 C1523 0.930 . S
H1516 C1526 0.930 . S
H1517 C1527 0.930 . S
C1518 H1512 0.930 . S
C1518 C1519 1.355 . S
C1518 C1520 1.415 . S
C1519 C1518 1.355 . S
C1519 C1521 1.419 . S
C1520 C1518 1.415 . S
C1520 C1525 1.425 . S
C1520 C1527 1.409 . S
C1521 H1513 0.930 . S
C1521 C1519 1.419 . S
C1521 C1522 1.362 . S
C1522 H1514 0.930 . S
C1522 C1521 1.362 . S
C1522 C1525 1.409 . S
C1523 H1515 0.930 . S
C1523 C1524 1.355 . S
C1523 C1525 1.415 . S
C1524 C1523 1.355 . S
C1524 C1526 1.419 . S
C1525 C1520 1.425 . S
C1525 C1522 1.409 . S
C1525 C1523 1.415 . S
C1526 H1516 0.930 . S
C1526 C1524 1.419 . S
C1526 C1527 1.362 . S
C1527 H1517 0.930 . S
C1527 C1520 1.409 . S
C1527 C1526 1.362 . S
H1528 C1534 0.930 . S
H1529 C1537 0.930 . S
H1530 C1538 0.930 . S
H1531 C1539 0.930 . S
H1532 C1542 0.930 . S
H1533 C1543 0.930 . S
C1534 H1528 0.930 . S
C1534 C1535 1.355 . S
C1534 C1536 1.415 . S
C1535 C1534 1.355 . S
C1535 C1537 1.419 . S
C1536 C1534 1.415 . S
C1536 C1541 1.425 . S
C1536 C1543 1.409 . S
C1537 H1529 0.930 . S
C1537 C1535 1.419 . S
C1537 C1538 1.362 . S
C1538 H1530 0.930 . S
C1538 C1537 1.362 . S
C1538 C1541 1.409 . S
C1539 H1531 0.930 . S
C1539 C1540 1.355 . S
C1539 C1541 1.415 . S
C1540 C1539 1.355 . S
C1540 C1542 1.419 . S
C1541 C1536 1.425 . S
C1541 C1538 1.409 . S
C1541 C1539 1.415 . S
C1542 H1532 0.930 . S
C1542 C1540 1.419 . S
C1542 C1543 1.362 . S
C1543 H1533 0.930 . S
C1543 C1536 1.409 . S
C1543 C1542 1.362 . S
H1544 C1550 0.930 . S
H1545 C1553 0.930 . S
H1546 C1554 0.930 . S
H1547 C1555 0.930 . S
H1548 C1558 0.930 . S
H1549 C1559 0.930 . S
C1550 H1544 0.930 . S
C1550 C1551 1.355 . S
C1550 C1552 1.415 . S
C1551 C1550 1.355 . S
C1551 C1553 1.419 . S
C1552 C1550 1.415 . S
C1552 C1557 1.425 . S
C1552 C1559 1.409 . S
C1553 H1545 0.930 . S
C1553 C1551 1.419 . S
C1553 C1554 1.362 . S
C1554 H1546 0.930 . S
C1554 C1553 1.362 . S
C1554 C1557 1.409 . S
C1555 H1547 0.930 . S
C1555 C1556 1.355 . S
C1555 C1557 1.415 . S
C1556 C1555 1.355 . S
C1556 C1558 1.419 . S
C1557 C1552 1.425 . S
C1557 C1554 1.409 . S
C1557 C1555 1.415 . S
C1558 H1548 0.930 . S
C1558 C1556 1.419 . S
C1558 C1559 1.362 . S
C1559 H1549 0.930 . S
C1559 C1552 1.409 . S
C1559 C1558 1.362 . S
H1560 C1566 0.930 . S
H1561 C1569 0.930 . S
H1562 C1570 0.930 . S
H1563 C1571 0.930 . S
H1564 C1574 0.930 . S
H1565 C1575 0.930 . S
C1566 H1560 0.930 . S
C1566 C1567 1.355 . S
C1566 C1568 1.415 . S
C1567 C1566 1.355 . S
C1567 C1569 1.419 . S
C1568 C1566 1.415 . S
C1568 C1573 1.425 . S
C1568 C1575 1.409 . S
C1569 H1561 0.930 . S
C1569 C1567 1.419 . S
C1569 C1570 1.362 . S
C1570 H1562 0.930 . S
C1570 C1569 1.362 . S
C1570 C1573 1.409 . S
C1571 H1563 0.930 . S
C1571 C1572 1.355 . S
C1571 C1573 1.415 . S
C1572 C1571 1.355 . S
C1572 C1574 1.419 . S
C1573 C1568 1.425 . S
C1573 C1570 1.409 . S
C1573 C1571 1.415 . S
C1574 H1564 0.930 . S
C1574 C1572 1.419 . S
C1574 C1575 1.362 . S
C1575 H1565 0.930 . S
C1575 C1568 1.409 . S
C1575 C1574 1.362 . S
H1576 C1582 0.930 . S
H1577 C1585 0.930 . S
H1578 C1586 0.930 . S
H1579 C1587 0.930 . S
H1580 C1590 0.930 . S
H1581 C1591 0.930 . S
C1582 H1576 0.930 . S
C1582 C1583 1.355 . S
C1582 C1584 1.415 . S
C1583 C1582 1.355 . S
C1583 C1585 1.419 . S
C1584 C1582 1.415 . S
C1584 C1589 1.425 . S
C1584 C1591 1.409 . S
C1585 H1577 0.930 . S
C1585 C1583 1.419 . S
C1585 C1586 1.362 . S
C1586 H1578 0.930 . S
C1586 C1585 1.362 . S
C1586 C1589 1.409 . S
C1587 H1579 0.930 . S
C1587 C1588 1.355 . S
C1587 C1589 1.415 . S
C1588 C1587 1.355 . S
C1588 C1590 1.419 . S
C1589 C1584 1.425 . S
C1589 C1586 1.409 . S
C1589 C1587 1.415 . S
C1590 H1580 0.930 . S
C1590 C1588 1.419 . S
C1590 C1591 1.362 . S
C1591 H1581 0.930 . S
C1591 C1584 1.409 . S
C1591 C1590 1.362 . S
H1592 C1598 0.930 . S
H1593 C1601 0.930 . S
H1594 C1602 0.930 . S
H1595 C1603 0.930 . S
H1596 C1606 0.930 . S
H1597 C1607 0.930 . S
C1598 H1592 0.930 . S
C1598 C1599 1.355 . S
C1598 C1600 1.415 . S
C1599 C1598 1.355 . S
C1599 C1601 1.419 . S
C1600 C1598 1.415 . S
C1600 C1605 1.425 . S
C1600 C1607 1.409 . S
C1601 H1593 0.930 . S
C1601 C1599 1.419 . S
C1601 C1602 1.362 . S
C1602 H1594 0.930 . S
C1602 C1601 1.362 . S
C1602 C1605 1.409 . S
C1603 H1595 0.930 . S
C1603 C1604 1.355 . S
C1603 C1605 1.415 . S
C1604 C1603 1.355 . S
C1604 C1606 1.419 . S
C1605 C1600 1.425 . S
C1605 C1602 1.409 . S
C1605 C1603 1.415 . S
C1606 H1596 0.930 . S
C1606 C1604 1.419 . S
C1606 C1607 1.362 . S
C1607 H1597 0.930 . S
C1607 C1600 1.409 . S
C1607 C1606 1.362 . S
H1608 C1614 0.930 . S
H1609 C1617 0.930 . S
H1610 C1618 0.930 . S
H1611 C1619 0.930 . S
H1612 C1622 0.930 . S
H1613 C1623 0.930 . S
C1614 H1608 0.930 . S
C1614 C1615 1.355 . S
C1614 C1616 1.415 . S
C1615 C1614 1.355 . S
C1615 C1617 1.419 . S
C1616 C1614 1.415 . S
C1616 C1621 1.425 . S
C1616 C1623 1.409 . S
C1617 H1609 0.930 . S
C1617 C1615 1.419 . S
C1617 C1618 1.362 . S
C1618 H1610 0.930 . S
C1618 C1617 1.362 . S
C1618 C1621 1.409 . S
C1619 H1611 0.930 . S
C1619 C1620 1.355 . S
C1619 C1621 1.415 . S
C1620 C1619 1.355 . S
C1620 C1622 1.419 . S
C1621 C1616 1.425 . S
C1621 C1618 1.409 . S
C1621 C1619 1.415 . S
C1622 H1612 0.930 . S
C1622 C1620 1.419 . S
C1622 C1623 1.362 . S
C1623 H1613 0.930 . S
C1623 C1616 1.409 . S
C1623 C1622 1.362 . S
H1624 C1630 0.930 . S
H1625 C1633 0.930 . S
H1626 C1634 0.930 . S
H1627 C1635 0.930 . S
H1628 C1638 0.930 . S
H1629 C1639 0.930 . S
C1630 H1624 0.930 . S
C1630 C1631 1.355 . S
C1630 C1632 1.415 . S
C1631 C1630 1.355 . S
C1631 C1633 1.419 . S
C1632 C1630 1.415 . S
C1632 C1637 1.425 . S
C1632 C1639 1.409 . S
C1633 H1625 0.930 . S
C1633 C1631 1.419 . S
C1633 C1634 1.362 . S
C1634 H1626 0.930 . S
C1634 C1633 1.362 . S
C1634 C1637 1.409 . S
C1635 H1627 0.930 . S
C1635 C1636 1.355 . S
C1635 C1637 1.415 . S
C1636 C1635 1.355 . S
C1636 C1638 1.419 . S
C1637 C1632 1.425 . S
C1637 C1634 1.409 . S
C1637 C1635 1.415 . S
C1638 H1628 0.930 . S
C1638 C1636 1.419 . S
C1638 C1639 1.362 . S
C1639 H1629 0.930 . S
C1639 C1632 1.409 . S
C1639 C1638 1.362 . S
H1640 C1646 0.930 . S
H1641 C1649 0.930 . S
H1642 C1650 0.930 . S
H1643 C1651 0.930 . S
H1644 C1654 0.930 . S
H1645 C1655 0.930 . S
C1646 H1640 0.930 . S
C1646 C1647 1.355 . S
C1646 C1648 1.415 . S
C1647 C1646 1.355 . S
C1647 C1649 1.419 . S
C1648 C1646 1.415 . S
C1648 C1653 1.425 . S
C1648 C1655 1.409 . S
C1649 H1641 0.930 . S
C1649 C1647 1.419 . S
C1649 C1650 1.362 . S
C1650 H1642 0.930 . S
C1650 C1649 1.362 . S
C1650 C1653 1.409 . S
C1651 H1643 0.930 . S
C1651 C1652 1.355 . S
C1651 C1653 1.415 . S
C1652 C1651 1.355 . S
C1652 C1654 1.419 . S
C1653 C1648 1.425 . S
C1653 C1650 1.409 . S
C1653 C1651 1.415 . S
C1654 H1644 0.930 . S
C1654 C1652 1.419 . S
C1654 C1655 1.362 . S
C1655 H1645 0.930 . S
C1655 C1648 1.409 . S
C1655 C1654 1.362 . S
H1656 C1662 0.930 . S
H1657 C1665 0.930 . S
H1658 C1666 0.930 . S
H1659 C1667 0.930 . S
H1660 C1670 0.930 . S
H1661 C1671 0.930 1_556 S
C1662 H1656 0.930 . S
C1662 C1663 1.355 . S
C1662 C1664 1.415 . S
C1663 C1662 1.355 . S
C1663 C1665 1.419 . S
C1664 C1662 1.415 . S
C1664 C1669 1.425 . S
C1664 C1671 1.409 . S
C1665 H1657 0.930 . S
C1665 C1663 1.419 . S
C1665 C1666 1.362 . S
C1666 H1658 0.930 . S
C1666 C1665 1.362 . S
C1666 C1669 1.409 . S
C1667 H1659 0.930 . S
C1667 C1668 1.355 . S
C1667 C1669 1.415 . S
C1668 C1667 1.355 . S
C1668 C1670 1.419 . S
C1669 C1664 1.425 . S
C1669 C1666 1.409 . S
C1669 C1667 1.415 . S
C1670 H1660 0.930 . S
C1670 C1668 1.419 . S
C1670 C1671 1.362 . S
C1671 H1661 0.930 1_554 S
C1671 C1664 1.409 . S
C1671 C1670 1.362 . S
H1672 C1678 0.930 . S
H1673 C1681 0.930 . S
H1674 C1682 0.930 . S
H1675 C1683 0.930 . S
H1676 C1686 0.930 . S
H1677 C1687 0.930 . S
C1678 H1672 0.930 . S
C1678 C1679 1.355 . S
C1678 C1680 1.415 . S
C1679 C1678 1.355 . S
C1679 C1681 1.419 . S
C1680 C1678 1.415 . S
C1680 C1685 1.425 . S
C1680 C1687 1.409 . S
C1681 H1673 0.930 . S
C1681 C1679 1.419 . S
C1681 C1682 1.362 . S
C1682 H1674 0.930 . S
C1682 C1681 1.362 . S
C1682 C1685 1.409 . S
C1683 H1675 0.930 . S
C1683 C1684 1.355 . S
C1683 C1685 1.415 . S
C1684 C1683 1.355 . S
C1684 C1686 1.419 . S
C1685 C1680 1.425 . S
C1685 C1682 1.409 . S
C1685 C1683 1.415 . S
C1686 H1676 0.930 . S
C1686 C1684 1.419 . S
C1686 C1687 1.362 . S
C1687 H1677 0.930 . S
C1687 C1680 1.409 . S
C1687 C1686 1.362 . S
H1688 C1694 0.930 . S
H1689 C1697 0.930 . S
H1690 C1698 0.930 . S
H1691 C1699 0.930 . S
H1692 C1702 0.930 . S
H1693 C1703 0.930 . S
C1694 H1688 0.930 . S
C1694 C1695 1.355 . S
C1694 C1696 1.415 . S
C1695 C1694 1.355 . S
C1695 C1697 1.419 . S
C1696 C1694 1.415 . S
C1696 C1701 1.425 . S
C1696 C1703 1.409 . S
C1697 H1689 0.930 . S
C1697 C1695 1.419 . S
C1697 C1698 1.362 . S
C1698 H1690 0.930 . S
C1698 C1697 1.362 . S
C1698 C1701 1.409 . S
C1699 H1691 0.930 . S
C1699 C1700 1.355 . S
C1699 C1701 1.415 . S
C1700 C1699 1.355 . S
C1700 C1702 1.419 . S
C1701 C1696 1.425 . S
C1701 C1698 1.409 . S
C1701 C1699 1.415 . S
C1702 H1692 0.930 . S
C1702 C1700 1.419 . S
C1702 C1703 1.362 . S
C1703 H1693 0.930 . S
C1703 C1696 1.409 . S
C1703 C1702 1.362 . S
H1704 C1710 0.930 . S
H1705 C1713 0.930 . S
H1706 C1714 0.930 . S
H1707 C1715 0.930 . S
H1708 C1718 0.930 . S
H1709 C1719 0.930 . S
C1710 H1704 0.930 . S
C1710 C1711 1.355 . S
C1710 C1712 1.415 . S
C1711 C1710 1.355 . S
C1711 C1713 1.419 . S
C1712 C1710 1.415 . S
C1712 C1717 1.425 . S
C1712 C1719 1.409 . S
C1713 H1705 0.930 . S
C1713 C1711 1.419 . S
C1713 C1714 1.362 . S
C1714 H1706 0.930 . S
C1714 C1713 1.362 . S
C1714 C1717 1.409 . S
C1715 H1707 0.930 . S
C1715 C1716 1.355 . S
C1715 C1717 1.415 . S
C1716 C1715 1.355 . S
C1716 C1718 1.419 . S
C1717 C1712 1.425 . S
C1717 C1714 1.409 . S
C1717 C1715 1.415 . S
C1718 H1708 0.930 . S
C1718 C1716 1.419 . S
C1718 C1719 1.362 . S
C1719 H1709 0.930 . S
C1719 C1712 1.409 . S
C1719 C1718 1.362 . S
H1720 C1726 0.930 . S
H1721 C1729 0.930 . S
H1722 C1730 0.930 . S
H1723 C1731 0.930 . S
H1724 C1734 0.930 . S
H1725 C1735 0.930 . S
C1726 H1720 0.930 . S
C1726 C1727 1.355 . S
C1726 C1728 1.415 . S
C1727 C1726 1.355 . S
C1727 C1729 1.419 . S
C1728 C1726 1.415 . S
C1728 C1733 1.425 . S
C1728 C1735 1.409 . S
C1729 H1721 0.930 . S
C1729 C1727 1.419 . S
C1729 C1730 1.362 . S
C1730 H1722 0.930 . S
C1730 C1729 1.362 . S
C1730 C1733 1.409 . S
C1731 H1723 0.930 . S
C1731 C1732 1.355 . S
C1731 C1733 1.415 . S
C1732 C1731 1.355 . S
C1732 C1734 1.419 . S
C1733 C1728 1.425 . S
C1733 C1730 1.409 . S
C1733 C1731 1.415 . S
C1734 H1724 0.930 . S
C1734 C1732 1.419 . S
C1734 C1735 1.362 . S
C1735 H1725 0.930 . S
C1735 C1728 1.409 . S
C1735 C1734 1.362 . S
H1736 C1742 0.930 . S
H1737 C1745 0.930 . S
H1738 C1746 0.930 . S
H1739 C1747 0.930 . S
H1740 C1750 0.930 . S
H1741 C1751 0.930 . S
C1742 H1736 0.930 . S
C1742 C1743 1.355 . S
C1742 C1744 1.415 . S
C1743 C1742 1.355 . S
C1743 C1745 1.419 . S
C1744 C1742 1.415 . S
C1744 C1749 1.425 . S
C1744 C1751 1.409 . S
C1745 H1737 0.930 . S
C1745 C1743 1.419 . S
C1745 C1746 1.362 . S
C1746 H1738 0.930 . S
C1746 C1745 1.362 . S
C1746 C1749 1.409 . S
C1747 H1739 0.930 . S
C1747 C1748 1.355 . S
C1747 C1749 1.415 . S
C1748 C1747 1.355 . S
C1748 C1750 1.419 . S
C1749 C1744 1.425 . S
C1749 C1746 1.409 . S
C1749 C1747 1.415 . S
C1750 H1740 0.930 . S
C1750 C1748 1.419 . S
C1750 C1751 1.362 . S
C1751 H1741 0.930 . S
C1751 C1744 1.409 . S
C1751 C1750 1.362 . S
H1752 C1758 0.930 . S
H1753 C1761 0.930 . S
H1754 C1762 0.930 . S
H1755 C1763 0.930 . S
H1756 C1766 0.930 . S
H1757 C1767 0.930 . S
C1758 H1752 0.930 . S
C1758 C1759 1.355 . S
C1758 C1760 1.415 . S
C1759 C1758 1.355 . S
C1759 C1761 1.419 . S
C1760 C1758 1.415 . S
C1760 C1765 1.425 . S
C1760 C1767 1.409 . S
C1761 H1753 0.930 . S
C1761 C1759 1.419 . S
C1761 C1762 1.362 . S
C1762 H1754 0.930 . S
C1762 C1761 1.362 . S
C1762 C1765 1.409 . S
C1763 H1755 0.930 . S
C1763 C1764 1.355 . S
C1763 C1765 1.415 . S
C1764 C1763 1.355 . S
C1764 C1766 1.419 . S
C1765 C1760 1.425 . S
C1765 C1762 1.409 . S
C1765 C1763 1.415 . S
C1766 H1756 0.930 . S
C1766 C1764 1.419 . S
C1766 C1767 1.362 . S
C1767 H1757 0.930 . S
C1767 C1760 1.409 . S
C1767 C1766 1.362 . S
H1768 C1774 0.930 . S
H1769 C1777 0.930 . S
H1770 C1778 0.930 . S
H1771 C1779 0.930 . S
H1772 C1782 0.930 . S
H1773 C1783 0.930 . S
C1774 H1768 0.930 . S
C1774 C1775 1.355 . S
C1774 C1776 1.415 . S
C1775 C1774 1.355 . S
C1775 C1777 1.419 . S
C1776 C1774 1.415 . S
C1776 C1781 1.425 . S
C1776 C1783 1.409 . S
C1777 H1769 0.930 . S
C1777 C1775 1.419 . S
C1777 C1778 1.362 . S
C1778 H1770 0.930 . S
C1778 C1777 1.362 . S
C1778 C1781 1.409 . S
C1779 H1771 0.930 . S
C1779 C1780 1.355 . S
C1779 C1781 1.415 . S
C1780 C1779 1.355 . S
C1780 C1782 1.419 . S
C1781 C1776 1.425 . S
C1781 C1778 1.409 . S
C1781 C1779 1.415 . S
C1782 H1772 0.930 . S
C1782 C1780 1.419 . S
C1782 C1783 1.362 . S
C1783 H1773 0.930 . S
C1783 C1776 1.409 . S
C1783 C1782 1.362 . S
H1784 C1790 0.930 . S
H1785 C1793 0.930 . S
H1786 C1794 0.930 . S
H1787 C1795 0.930 . S
H1788 C1798 0.930 . S
H1789 C1799 0.930 . S
C1790 H1784 0.930 . S
C1790 C1791 1.355 . S
C1790 C1792 1.415 . S
C1791 C1790 1.355 . S
C1791 C1793 1.419 . S
C1792 C1790 1.415 . S
C1792 C1797 1.425 . S
C1792 C1799 1.409 . S
C1793 H1785 0.930 . S
C1793 C1791 1.419 . S
C1793 C1794 1.362 . S
C1794 H1786 0.930 . S
C1794 C1793 1.362 . S
C1794 C1797 1.409 . S
C1795 H1787 0.930 . S
C1795 C1796 1.355 . S
C1795 C1797 1.415 . S
C1796 C1795 1.355 . S
C1796 C1798 1.419 . S
C1797 C1792 1.425 . S
C1797 C1794 1.409 . S
C1797 C1795 1.415 . S
C1798 H1788 0.930 . S
C1798 C1796 1.419 . S
C1798 C1799 1.362 . S
C1799 H1789 0.930 . S
C1799 C1792 1.409 . S
C1799 C1798 1.362 . S
H1800 C1806 0.930 . S
H1801 C1809 0.930 . S
H1802 C1810 0.930 . S
H1803 C1811 0.930 . S
H1804 C1814 0.930 . S
H1805 C1815 0.930 . S
C1806 H1800 0.930 . S
C1806 C1807 1.355 1_455 S
C1806 C1808 1.415 . S
C1807 C1806 1.355 1_655 S
C1807 C1809 1.419 . S
C1808 C1806 1.415 . S
C1808 C1813 1.425 1_455 S
C1808 C1815 1.409 . S
C1809 H1801 0.930 . S
C1809 C1807 1.419 . S
C1809 C1810 1.362 . S
C1810 H1802 0.930 . S
C1810 C1809 1.362 . S
C1810 C1813 1.409 . S
C1811 H1803 0.930 . S
C1811 C1812 1.355 1_655 S
C1811 C1813 1.415 . S
C1812 C1811 1.355 1_455 S
C1812 C1814 1.419 . S
C1813 C1808 1.425 1_655 S
C1813 C1810 1.409 . S
C1813 C1811 1.415 . S
C1814 H1804 0.930 . S
C1814 C1812 1.419 . S
C1814 C1815 1.362 . S
C1815 H1805 0.930 . S
C1815 C1808 1.409 . S
C1815 C1814 1.362 . S
H1816 C1822 0.930 . S
H1817 C1825 0.930 . S
H1818 C1826 0.930 . S
H1819 C1827 0.930 . S
H1820 C1830 0.930 . S
H1821 C1831 0.930 . S
C1822 H1816 0.930 . S
C1822 C1823 1.355 . S
C1822 C1824 1.415 . S
C1823 C1822 1.355 . S
C1823 C1825 1.419 . S
C1824 C1822 1.415 . S
C1824 C1829 1.425 . S
C1824 C1831 1.409 . S
C1825 H1817 0.930 . S
C1825 C1823 1.419 . S
C1825 C1826 1.362 . S
C1826 H1818 0.930 . S
C1826 C1825 1.362 . S
C1826 C1829 1.409 . S
C1827 H1819 0.930 . S
C1827 C1828 1.355 . S
C1827 C1829 1.415 . S
C1828 C1827 1.355 . S
C1828 C1830 1.419 . S
C1829 C1824 1.425 . S
C1829 C1826 1.409 . S
C1829 C1827 1.415 . S
C1830 H1820 0.930 . S
C1830 C1828 1.419 . S
C1830 C1831 1.362 . S
C1831 H1821 0.930 . S
C1831 C1824 1.409 . S
C1831 C1830 1.362 . S
H1832 C1838 0.930 . S
H1833 C1841 0.930 . S
H1834 C1842 0.930 . S
H1835 C1843 0.930 . S
H1836 C1846 0.930 . S
H1837 C1847 0.930 . S
C1838 H1832 0.930 . S
C1838 C1839 1.355 1_545 S
C1838 C1840 1.415 . S
C1839 C1838 1.355 1_565 S
C1839 C1841 1.419 . S
C1840 C1838 1.415 . S
C1840 C1845 1.425 1_545 S
C1840 C1847 1.409 . S
C1841 H1833 0.930 . S
C1841 C1839 1.419 . S
C1841 C1842 1.362 . S
C1842 H1834 0.930 . S
C1842 C1841 1.362 . S
C1842 C1845 1.409 . S
C1843 H1835 0.930 . S
C1843 C1844 1.355 1_565 S
C1843 C1845 1.415 . S
C1844 C1843 1.355 1_545 S
C1844 C1846 1.419 . S
C1845 C1840 1.425 1_565 S
C1845 C1842 1.409 . S
C1845 C1843 1.415 . S
C1846 H1836 0.930 . S
C1846 C1844 1.419 . S
C1846 C1847 1.362 . S
C1847 H1837 0.930 . S
C1847 C1840 1.409 . S
C1847 C1846 1.362 . S
H1848 C1854 0.930 . S
H1849 C1857 0.930 . S
H1850 C1858 0.930 . S
H1851 C1859 0.930 . S
H1852 C1862 0.930 . S
H1853 C1863 0.930 . S
C1854 H1848 0.930 . S
C1854 C1855 1.355 1_655 S
C1854 C1856 1.415 . S
C1855 C1854 1.355 1_455 S
C1855 C1857 1.419 . S
C1856 C1854 1.415 . S
C1856 C1861 1.425 1_655 S
C1856 C1863 1.409 . S
C1857 H1849 0.930 . S
C1857 C1855 1.419 . S
C1857 C1858 1.362 . S
C1858 H1850 0.930 . S
C1858 C1857 1.362 . S
C1858 C1861 1.409 . S
C1859 H1851 0.930 . S
C1859 C1860 1.355 1_455 S
C1859 C1861 1.415 . S
C1860 C1859 1.355 1_655 S
C1860 C1862 1.419 . S
C1861 C1856 1.425 1_455 S
C1861 C1858 1.409 . S
C1861 C1859 1.415 . S
C1862 H1852 0.930 . S
C1862 C1860 1.419 . S
C1862 C1863 1.362 . S
C1863 H1853 0.930 . S
C1863 C1856 1.409 . S
C1863 C1862 1.362 . S
H1864 C1870 0.930 . S
H1865 C1873 0.930 . S
H1866 C1874 0.930 . S
H1867 C1875 0.930 . S
H1868 C1878 0.930 . S
H1869 C1879 0.930 . S
C1870 H1864 0.930 . S
C1870 C1871 1.355 . S
C1870 C1872 1.415 . S
C1871 C1870 1.355 . S
C1871 C1873 1.419 . S
C1872 C1870 1.415 . S
C1872 C1877 1.425 . S
C1872 C1879 1.409 . S
C1873 H1865 0.930 . S
C1873 C1871 1.419 . S
C1873 C1874 1.362 . S
C1874 H1866 0.930 . S
C1874 C1873 1.362 . S
C1874 C1877 1.409 . S
C1875 H1867 0.930 . S
C1875 C1876 1.355 . S
C1875 C1877 1.415 . S
C1876 C1875 1.355 . S
C1876 C1878 1.419 . S
C1877 C1872 1.425 . S
C1877 C1874 1.409 . S
C1877 C1875 1.415 . S
C1878 H1868 0.930 . S
C1878 C1876 1.419 . S
C1878 C1879 1.362 . S
C1879 H1869 0.930 . S
C1879 C1872 1.409 . S
C1879 C1878 1.362 . S
H1880 C1886 0.930 . S
H1881 C1889 0.930 . S
H1882 C1890 0.930 . S
H1883 C1891 0.930 . S
H1884 C1894 0.930 . S
H1885 C1895 0.930 . S
C1886 H1880 0.930 . S
C1886 C1887 1.356 . S
C1886 C1888 1.415 . S
C1887 C1886 1.356 . S
C1887 C1889 1.417 1_545 S
C1888 C1886 1.415 . S
C1888 C1893 1.425 1_545 S
C1888 C1895 1.409 . S
C1889 H1881 0.930 . S
C1889 C1887 1.417 1_565 S
C1889 C1890 1.362 . S
C1890 H1882 0.930 . S
C1890 C1889 1.362 . S
C1890 C1893 1.409 . S
C1891 H1883 0.930 . S
C1891 C1892 1.356 . S
C1891 C1893 1.415 . S
C1892 C1891 1.356 . S
C1892 C1894 1.417 1_565 S
C1893 C1888 1.425 1_565 S
C1893 C1890 1.409 . S
C1893 C1891 1.415 . S
C1894 H1884 0.930 . S
C1894 C1892 1.417 1_545 S
C1894 C1895 1.362 . S
C1895 H1885 0.930 . S
C1895 C1888 1.409 . S
C1895 C1894 1.362 . S
H1896 C1902 0.930 . S
H1897 C1905 0.930 . S
H1898 C1906 0.930 . S
H1899 C1907 0.930 . S
H1900 C1910 0.930 . S
H1901 C1911 0.930 . S
C1902 H1896 0.930 . S
C1902 C1903 1.355 . S
C1902 C1904 1.415 . S
C1903 C1902 1.355 . S
C1903 C1905 1.419 . S
C1904 C1902 1.415 . S
C1904 C1909 1.425 . S
C1904 C1911 1.409 . S
C1905 H1897 0.930 . S
C1905 C1903 1.419 . S
C1905 C1906 1.362 . S
C1906 H1898 0.930 . S
C1906 C1905 1.362 . S
C1906 C1909 1.409 . S
C1907 H1899 0.930 . S
C1907 C1908 1.355 . S
C1907 C1909 1.415 . S
C1908 C1907 1.355 . S
C1908 C1910 1.419 . S
C1909 C1904 1.425 . S
C1909 C1906 1.409 . S
C1909 C1907 1.415 . S
C1910 H1900 0.930 . S
C1910 C1908 1.419 . S
C1910 C1911 1.362 . S
C1911 H1901 0.930 . S
C1911 C1904 1.409 . S
C1911 C1910 1.362 . S
H1912 C1918 0.930 . S
H1913 C1921 0.930 . S
H1914 C1922 0.930 . S
H1915 C1923 0.930 . S
H1916 C1926 0.930 . S
H1917 C1927 0.930 . S
C1918 H1912 0.930 . S
C1918 C1919 1.355 . S
C1918 C1920 1.415 . S
C1919 C1918 1.355 . S
C1919 C1921 1.419 . S
C1920 C1918 1.415 . S
C1920 C1925 1.425 . S
C1920 C1927 1.409 . S
C1921 H1913 0.930 . S
C1921 C1919 1.419 . S
C1921 C1922 1.362 . S
C1922 H1914 0.930 . S
C1922 C1921 1.362 . S
C1922 C1925 1.409 . S
C1923 H1915 0.930 . S
C1923 C1924 1.355 . S
C1923 C1925 1.415 . S
C1924 C1923 1.355 . S
C1924 C1926 1.419 . S
C1925 C1920 1.425 . S
C1925 C1922 1.409 . S
C1925 C1923 1.415 . S
C1926 H1916 0.930 . S
C1926 C1924 1.419 . S
C1926 C1927 1.362 . S
C1927 H1917 0.930 . S
C1927 C1920 1.409 . S
C1927 C1926 1.362 . S
H1928 C1934 0.930 . S
H1929 C1937 0.930 . S
H1930 C1938 0.930 . S
H1931 C1939 0.930 . S
H1932 C1942 0.930 . S
H1933 C1943 0.930 . S
C1934 H1928 0.930 . S
C1934 C1935 1.355 . S
C1934 C1936 1.415 . S
C1935 C1934 1.355 . S
C1935 C1937 1.419 . S
C1936 C1934 1.415 . S
C1936 C1941 1.425 . S
C1936 C1943 1.409 . S
C1937 H1929 0.930 . S
C1937 C1935 1.419 . S
C1937 C1938 1.362 . S
C1938 H1930 0.930 . S
C1938 C1937 1.362 . S
C1938 C1941 1.409 . S
C1939 H1931 0.930 . S
C1939 C1940 1.355 . S
C1939 C1941 1.415 . S
C1940 C1939 1.355 . S
C1940 C1942 1.419 . S
C1941 C1936 1.425 . S
C1941 C1938 1.409 . S
C1941 C1939 1.415 . S
C1942 H1932 0.930 . S
C1942 C1940 1.419 . S
C1942 C1943 1.362 . S
C1943 H1933 0.930 . S
C1943 C1936 1.409 . S
C1943 C1942 1.362 . S
H1944 C1950 0.930 . S
H1945 C1953 0.930 . S
H1946 C1954 0.930 . S
H1947 C1955 0.930 . S
H1948 C1958 0.930 . S
H1949 C1959 0.930 . S
C1950 H1944 0.930 . S
C1950 C1951 1.355 . S
C1950 C1952 1.415 . S
C1951 C1950 1.355 . S
C1951 C1953 1.419 . S
C1952 C1950 1.415 . S
C1952 C1957 1.425 . S
C1952 C1959 1.409 . S
C1953 H1945 0.930 . S
C1953 C1951 1.419 . S
C1953 C1954 1.362 . S
C1954 H1946 0.930 . S
C1954 C1953 1.362 . S
C1954 C1957 1.409 . S
C1955 H1947 0.930 . S
C1955 C1956 1.355 . S
C1955 C1957 1.415 . S
C1956 C1955 1.355 . S
C1956 C1958 1.419 . S
C1957 C1952 1.425 . S
C1957 C1954 1.409 . S
C1957 C1955 1.415 . S
C1958 H1948 0.930 . S
C1958 C1956 1.419 . S
C1958 C1959 1.362 . S
C1959 H1949 0.930 . S
C1959 C1952 1.409 . S
C1959 C1958 1.362 . S
H1960 C1966 0.930 . S
H1961 C1969 0.930 . S
H1962 C1970 0.930 . S
H1963 C1971 0.930 . S
H1964 C1974 0.930 . S
H1965 C1975 0.930 . S
C1966 H1960 0.930 . S
C1966 C1967 1.355 . S
C1966 C1968 1.415 . S
C1967 C1966 1.355 . S
C1967 C1969 1.419 . S
C1968 C1966 1.415 . S
C1968 C1973 1.425 . S
C1968 C1975 1.409 . S
C1969 H1961 0.930 . S
C1969 C1967 1.419 . S
C1969 C1970 1.362 . S
C1970 H1962 0.930 . S
C1970 C1969 1.362 . S
C1970 C1973 1.409 . S
C1971 H1963 0.930 . S
C1971 C1972 1.355 . S
C1971 C1973 1.415 . S
C1972 C1971 1.355 . S
C1972 C1974 1.419 . S
C1973 C1968 1.425 . S
C1973 C1970 1.409 . S
C1973 C1971 1.415 . S
C1974 H1964 0.930 . S
C1974 C1972 1.419 . S
C1974 C1975 1.362 . S
C1975 H1965 0.930 . S
C1975 C1968 1.409 . S
C1975 C1974 1.362 . S
H1976 C1982 0.930 . S
H1977 C1985 0.930 . S
H1978 C1986 0.930 . S
H1979 C1987 0.930 . S
H1980 C1990 0.930 . S
H1981 C1991 0.930 . S
C1982 H1976 0.930 . S
C1982 C1983 1.355 . S
C1982 C1984 1.415 . S
C1983 C1982 1.355 . S
C1983 C1985 1.419 . S
C1984 C1982 1.415 . S
C1984 C1989 1.425 . S
C1984 C1991 1.409 . S
C1985 H1977 0.930 . S
C1985 C1983 1.419 . S
C1985 C1986 1.362 . S
C1986 H1978 0.930 . S
C1986 C1985 1.362 . S
C1986 C1989 1.409 . S
C1987 H1979 0.930 . S
C1987 C1988 1.355 . S
C1987 C1989 1.415 . S
C1988 C1987 1.355 . S
C1988 C1990 1.419 . S
C1989 C1984 1.425 . S
C1989 C1986 1.409 . S
C1989 C1987 1.415 . S
C1990 H1980 0.930 . S
C1990 C1988 1.419 . S
C1990 C1991 1.362 . S
C1991 H1981 0.930 . S
C1991 C1984 1.409 . S
C1991 C1990 1.362 . S
H1992 C1998 0.930 . S
H1993 C2001 0.930 . S
H1994 C2002 0.930 . S
H1995 C2003 0.930 . S
H1996 C2006 0.930 . S
H1997 C2007 0.930 . S
C1998 H1992 0.930 . S
C1998 C1999 1.355 . S
C1998 C2000 1.415 . S
C1999 C1998 1.355 . S
C1999 C2001 1.419 . S
C2000 C1998 1.415 . S
C2000 C2005 1.425 . S
C2000 C2007 1.409 . S
C2001 H1993 0.930 . S
C2001 C1999 1.419 . S
C2001 C2002 1.362 . S
C2002 H1994 0.930 . S
C2002 C2001 1.362 . S
C2002 C2005 1.409 . S
C2003 H1995 0.930 . S
C2003 C2004 1.355 . S
C2003 C2005 1.415 . S
C2004 C2003 1.355 . S
C2004 C2006 1.419 . S
C2005 C2000 1.425 . S
C2005 C2002 1.409 . S
C2005 C2003 1.415 . S
C2006 H1996 0.930 . S
C2006 C2004 1.419 . S
C2006 C2007 1.362 . S
C2007 H1997 0.930 . S
C2007 C2000 1.409 . S
C2007 C2006 1.362 . S
H2008 C2014 0.930 . S
H2009 C2017 0.930 . S
H2010 C2018 0.930 . S
H2011 C2019 0.930 . S
H2012 C2022 0.930 . S
H2013 C2023 0.930 . S
C2014 H2008 0.930 . S
C2014 C2015 1.355 . S
C2014 C2016 1.415 . S
C2015 C2014 1.355 . S
C2015 C2017 1.419 . S
C2016 C2014 1.415 . S
C2016 C2021 1.425 . S
C2016 C2023 1.409 . S
C2017 H2009 0.930 . S
C2017 C2015 1.419 . S
C2017 C2018 1.362 . S
C2018 H2010 0.930 . S
C2018 C2017 1.362 . S
C2018 C2021 1.409 . S
C2019 H2011 0.930 . S
C2019 C2020 1.355 . S
C2019 C2021 1.415 . S
C2020 C2019 1.355 . S
C2020 C2022 1.419 . S
C2021 C2016 1.425 . S
C2021 C2018 1.409 . S
C2021 C2019 1.415 . S
C2022 H2012 0.930 . S
C2022 C2020 1.419 . S
C2022 C2023 1.362 . S
C2023 H2013 0.930 . S
C2023 C2016 1.409 . S
C2023 C2022 1.362 . S
H2024 C2030 0.930 . S
H2025 C2033 0.930 . S
H2026 C2034 0.930 . S
H2027 C2035 0.930 . S
H2028 C2038 0.930 . S
H2029 C2039 0.930 . S
C2030 H2024 0.930 . S
C2030 C2031 1.355 . S
C2030 C2032 1.415 . S
C2031 C2030 1.355 . S
C2031 C2033 1.419 . S
C2032 C2030 1.415 . S
C2032 C2037 1.425 . S
C2032 C2039 1.409 . S
C2033 H2025 0.930 . S
C2033 C2031 1.419 . S
C2033 C2034 1.362 . S
C2034 H2026 0.930 . S
C2034 C2033 1.362 . S
C2034 C2037 1.409 . S
C2035 H2027 0.930 . S
C2035 C2036 1.355 . S
C2035 C2037 1.415 . S
C2036 C2035 1.355 . S
C2036 C2038 1.419 . S
C2037 C2032 1.425 . S
C2037 C2034 1.409 . S
C2037 C2035 1.415 . S
C2038 H2028 0.930 . S
C2038 C2036 1.419 . S
C2038 C2039 1.362 . S
C2039 H2029 0.930 . S
C2039 C2032 1.409 . S
C2039 C2038 1.362 . S
H2040 C2046 0.930 . S
H2041 C2049 0.930 . S
H2042 C2050 0.930 . S
H2043 C2051 0.930 . S
H2044 C2054 0.930 . S
H2045 C2055 0.930 . S
C2046 H2040 0.930 . S
C2046 C2047 1.355 . S
C2046 C2048 1.415 . S
C2047 C2046 1.355 . S
C2047 C2049 1.419 . S
C2048 C2046 1.415 . S
C2048 C2053 1.425 . S
C2048 C2055 1.409 . S
C2049 H2041 0.930 . S
C2049 C2047 1.419 . S
C2049 C2050 1.362 . S
C2050 H2042 0.930 . S
C2050 C2049 1.362 . S
C2050 C2053 1.409 . S
C2051 H2043 0.930 . S
C2051 C2052 1.355 . S
C2051 C2053 1.415 . S
C2052 C2051 1.355 . S
C2052 C2054 1.419 . S
C2053 C2048 1.425 . S
C2053 C2050 1.409 . S
C2053 C2051 1.415 . S
C2054 H2044 0.930 . S
C2054 C2052 1.419 . S
C2054 C2055 1.362 . S
C2055 H2045 0.930 . S
C2055 C2048 1.409 . S
C2055 C2054 1.362 . S
H2056 C2062 0.930 . S
H2057 C2065 0.930 . S
H2058 C2066 0.930 . S
H2059 C2067 0.930 . S
H2060 C2070 0.930 . S
H2061 C2071 0.930 . S
C2062 H2056 0.930 . S
C2062 C2063 1.355 . S
C2062 C2064 1.415 . S
C2063 C2062 1.355 . S
C2063 C2065 1.419 . S
C2064 C2062 1.415 . S
C2064 C2069 1.425 . S
C2064 C2071 1.409 . S
C2065 H2057 0.930 . S
C2065 C2063 1.419 . S
C2065 C2066 1.362 . S
C2066 H2058 0.930 . S
C2066 C2065 1.362 . S
C2066 C2069 1.409 . S
C2067 H2059 0.930 . S
C2067 C2068 1.355 . S
C2067 C2069 1.415 . S
C2068 C2067 1.355 . S
C2068 C2070 1.419 . S
C2069 C2064 1.425 . S
C2069 C2066 1.409 . S
C2069 C2067 1.415 . S
C2070 H2060 0.930 . S
C2070 C2068 1.419 . S
C2070 C2071 1.362 . S
C2071 H2061 0.930 . S
C2071 C2064 1.409 . S
C2071 C2070 1.362 . S
H2072 C2078 0.930 . S
H2073 C2081 0.930 . S
H2074 C2082 0.930 . S
H2075 C2083 0.930 . S
H2076 C2086 0.930 . S
H2077 C2087 0.930 . S
C2078 H2072 0.930 . S
C2078 C2079 1.355 . S
C2078 C2080 1.415 . S
C2079 C2078 1.355 . S
C2079 C2081 1.419 . S
C2080 C2078 1.415 . S
C2080 C2085 1.425 . S
C2080 C2087 1.409 . S
C2081 H2073 0.930 . S
C2081 C2079 1.419 . S
C2081 C2082 1.362 . S
C2082 H2074 0.930 . S
C2082 C2081 1.362 . S
C2082 C2085 1.409 . S
C2083 H2075 0.930 . S
C2083 C2084 1.355 . S
C2083 C2085 1.415 . S
C2084 C2083 1.355 . S
C2084 C2086 1.419 . S
C2085 C2080 1.425 . S
C2085 C2082 1.409 . S
C2085 C2083 1.415 . S
C2086 H2076 0.930 . S
C2086 C2084 1.419 . S
C2086 C2087 1.362 . S
C2087 H2077 0.930 . S
C2087 C2080 1.409 . S
C2087 C2086 1.362 . S
H2088 C2094 0.930 . S
H2089 C2097 0.930 . S
H2090 C2098 0.930 . S
H2091 C2099 0.930 . S
H2092 C2102 0.930 . S
H2093 C2103 0.930 . S
C2094 H2088 0.930 . S
C2094 C2095 1.355 . S
C2094 C2096 1.415 . S
C2095 C2094 1.355 . S
C2095 C2097 1.419 . S
C2096 C2094 1.415 . S
C2096 C2101 1.425 . S
C2096 C2103 1.409 . S
C2097 H2089 0.930 . S
C2097 C2095 1.419 . S
C2097 C2098 1.362 . S
C2098 H2090 0.930 . S
C2098 C2097 1.362 . S
C2098 C2101 1.409 . S
C2099 H2091 0.930 . S
C2099 C2100 1.355 . S
C2099 C2101 1.415 . S
C2100 C2099 1.355 . S
C2100 C2102 1.419 . S
C2101 C2096 1.425 . S
C2101 C2098 1.409 . S
C2101 C2099 1.415 . S
C2102 H2092 0.930 . S
C2102 C2100 1.419 . S
C2102 C2103 1.362 . S
C2103 H2093 0.930 . S
C2103 C2096 1.409 . S
C2103 C2102 1.362 . S
H2104 C2110 0.930 . S
H2105 C2113 0.930 . S
H2106 C2114 0.930 . S
H2107 C2115 0.930 . S
H2108 C2118 0.930 . S
H2109 C2119 0.930 . S
C2110 H2104 0.930 . S
C2110 C2111 1.355 . S
C2110 C2112 1.415 . S
C2111 C2110 1.355 . S
C2111 C2113 1.419 . S
C2112 C2110 1.415 . S
C2112 C2117 1.425 . S
C2112 C2119 1.409 . S
C2113 H2105 0.930 . S
C2113 C2111 1.419 . S
C2113 C2114 1.362 . S
C2114 H2106 0.930 . S
C2114 C2113 1.362 . S
C2114 C2117 1.409 . S
C2115 H2107 0.930 . S
C2115 C2116 1.355 . S
C2115 C2117 1.415 . S
C2116 C2115 1.355 . S
C2116 C2118 1.419 . S
C2117 C2112 1.425 . S
C2117 C2114 1.409 . S
C2117 C2115 1.415 . S
C2118 H2108 0.930 . S
C2118 C2116 1.419 . S
C2118 C2119 1.362 . S
C2119 H2109 0.930 . S
C2119 C2112 1.409 . S
C2119 C2118 1.362 . S
H2120 C2126 0.930 . S
H2121 C2129 0.930 . S
H2122 C2130 0.930 . S
H2123 C2131 0.930 . S
H2124 C2134 0.930 . S
H2125 C2135 0.930 . S
C2126 H2120 0.930 . S
C2126 C2127 1.355 . S
C2126 C2128 1.415 . S
C2127 C2126 1.355 . S
C2127 C2129 1.419 . S
C2128 C2126 1.415 . S
C2128 C2133 1.425 . S
C2128 C2135 1.409 . S
C2129 H2121 0.930 . S
C2129 C2127 1.419 . S
C2129 C2130 1.362 . S
C2130 H2122 0.930 . S
C2130 C2129 1.362 . S
C2130 C2133 1.409 . S
C2131 H2123 0.930 . S
C2131 C2132 1.355 . S
C2131 C2133 1.415 . S
C2132 C2131 1.355 . S
C2132 C2134 1.419 . S
C2133 C2128 1.425 . S
C2133 C2130 1.409 . S
C2133 C2131 1.415 . S
C2134 H2124 0.930 . S
C2134 C2132 1.419 . S
C2134 C2135 1.362 . S
C2135 H2125 0.930 . S
C2135 C2128 1.409 . S
C2135 C2134 1.362 . S
H2136 C2142 0.930 . S
H2137 C2145 0.930 . S
H2138 C2146 0.930 . S
H2139 C2147 0.930 . S
H2140 C2150 0.930 . S
H2141 C2151 0.930 . S
C2142 H2136 0.930 . S
C2142 C2143 1.355 . S
C2142 C2144 1.415 . S
C2143 C2142 1.355 . S
C2143 C2145 1.419 . S
C2144 C2142 1.415 . S
C2144 C2149 1.425 . S
C2144 C2151 1.409 . S
C2145 H2137 0.930 . S
C2145 C2143 1.419 . S
C2145 C2146 1.362 . S
C2146 H2138 0.930 . S
C2146 C2145 1.362 . S
C2146 C2149 1.409 . S
C2147 H2139 0.930 . S
C2147 C2148 1.355 . S
C2147 C2149 1.415 . S
C2148 C2147 1.355 . S
C2148 C2150 1.419 . S
C2149 C2144 1.425 . S
C2149 C2146 1.409 . S
C2149 C2147 1.415 . S
C2150 H2140 0.930 . S
C2150 C2148 1.419 . S
C2150 C2151 1.362 . S
C2151 H2141 0.930 . S
C2151 C2144 1.409 . S
C2151 C2150 1.362 . S
H2152 C2158 0.930 . S
H2153 C2161 0.930 . S
H2154 C2162 0.930 . S
H2155 C2163 0.930 . S
H2156 C2166 0.930 . S
H2157 C2167 0.930 . S
C2158 H2152 0.930 . S
C2158 C2159 1.355 . S
C2158 C2160 1.415 . S
C2159 C2158 1.355 . S
C2159 C2161 1.419 . S
C2160 C2158 1.415 . S
C2160 C2165 1.425 . S
C2160 C2167 1.409 . S
C2161 H2153 0.930 . S
C2161 C2159 1.419 . S
C2161 C2162 1.362 . S
C2162 H2154 0.930 . S
C2162 C2161 1.362 . S
C2162 C2165 1.409 . S
C2163 H2155 0.930 . S
C2163 C2164 1.355 . S
C2163 C2165 1.415 . S
C2164 C2163 1.355 . S
C2164 C2166 1.419 . S
C2165 C2160 1.425 . S
C2165 C2162 1.409 . S
C2165 C2163 1.415 . S
C2166 H2156 0.930 . S
C2166 C2164 1.419 . S
C2166 C2167 1.362 . S
C2167 H2157 0.930 . S
C2167 C2160 1.409 . S
C2167 C2166 1.362 . S
H2168 C2174 0.930 . S
H2169 C2177 0.930 . S
H2170 C2178 0.930 . S
H2171 C2179 0.930 . S
H2172 C2182 0.930 . S
H2173 C2183 0.930 . S
C2174 H2168 0.930 . S
C2174 C2175 1.355 . S
C2174 C2176 1.415 . S
C2175 C2174 1.355 . S
C2175 C2177 1.419 . S
C2176 C2174 1.415 . S
C2176 C2181 1.425 . S
C2176 C2183 1.409 . S
C2177 H2169 0.930 . S
C2177 C2175 1.419 . S
C2177 C2178 1.362 . S
C2178 H2170 0.930 . S
C2178 C2177 1.362 . S
C2178 C2181 1.409 . S
C2179 H2171 0.930 . S
C2179 C2180 1.355 . S
C2179 C2181 1.415 . S
C2180 C2179 1.355 . S
C2180 C2182 1.419 . S
C2181 C2176 1.425 . S
C2181 C2178 1.409 . S
C2181 C2179 1.415 . S
C2182 H2172 0.930 . S
C2182 C2180 1.419 . S
C2182 C2183 1.362 . S
C2183 H2173 0.930 . S
C2183 C2176 1.409 . S
C2183 C2182 1.362 . S
H2184 C2190 0.930 . S
H2185 C2193 0.930 . S
H2186 C2194 0.930 . S
H2187 C2195 0.930 . S
H2188 C2198 0.930 . S
H2189 C2199 0.930 . S
C2190 H2184 0.930 . S
C2190 C2191 1.355 . S
C2190 C2192 1.415 . S
C2191 C2190 1.355 . S
C2191 C2193 1.419 . S
C2192 C2190 1.415 . S
C2192 C2197 1.425 . S
C2192 C2199 1.409 . S
C2193 H2185 0.930 . S
C2193 C2191 1.419 . S
C2193 C2194 1.362 . S
C2194 H2186 0.930 . S
C2194 C2193 1.362 . S
C2194 C2197 1.409 . S
C2195 H2187 0.930 . S
C2195 C2196 1.355 . S
C2195 C2197 1.415 . S
C2196 C2195 1.355 . S
C2196 C2198 1.419 . S
C2197 C2192 1.425 . S
C2197 C2194 1.409 . S
C2197 C2195 1.415 . S
C2198 H2188 0.930 . S
C2198 C2196 1.419 . S
C2198 C2199 1.362 . S
C2199 H2189 0.930 . S
C2199 C2192 1.409 . S
C2199 C2198 1.362 . S
H2200 C2206 0.930 . S
H2201 C2209 0.930 . S
H2202 C2210 0.930 . S
H2203 C2211 0.930 . S
H2204 C2214 0.930 . S
H2205 C2215 0.930 . S
C2206 H2200 0.930 . S
C2206 C2207 1.355 . S
C2206 C2208 1.415 . S
C2207 C2206 1.355 . S
C2207 C2209 1.419 . S
C2208 C2206 1.415 . S
C2208 C2213 1.425 . S
C2208 C2215 1.409 . S
C2209 H2201 0.930 . S
C2209 C2207 1.419 . S
C2209 C2210 1.362 . S
C2210 H2202 0.930 . S
C2210 C2209 1.362 . S
C2210 C2213 1.409 . S
C2211 H2203 0.930 . S
C2211 C2212 1.355 . S
C2211 C2213 1.415 . S
C2212 C2211 1.355 . S
C2212 C2214 1.419 . S
C2213 C2208 1.425 . S
C2213 C2210 1.409 . S
C2213 C2211 1.415 . S
C2214 H2204 0.930 . S
C2214 C2212 1.419 . S
C2214 C2215 1.362 . S
C2215 H2205 0.930 . S
C2215 C2208 1.409 . S
C2215 C2214 1.362 . S
H2216 C2222 0.930 . S
H2217 C2225 0.930 . S
H2218 C2226 0.930 . S
H2219 C2227 0.930 . S
H2220 C2230 0.930 . S
H2221 C2231 0.930 . S
C2222 H2216 0.930 . S
C2222 C2223 1.355 . S
C2222 C2224 1.415 . S
C2223 C2222 1.355 . S
C2223 C2225 1.419 . S
C2224 C2222 1.415 . S
C2224 C2229 1.425 . S
C2224 C2231 1.409 . S
C2225 H2217 0.930 . S
C2225 C2223 1.419 . S
C2225 C2226 1.362 . S
C2226 H2218 0.930 . S
C2226 C2225 1.362 . S
C2226 C2229 1.409 . S
C2227 H2219 0.930 . S
C2227 C2228 1.355 . S
C2227 C2229 1.415 . S
C2228 C2227 1.355 . S
C2228 C2230 1.419 . S
C2229 C2224 1.425 . S
C2229 C2226 1.409 . S
C2229 C2227 1.415 . S
C2230 H2220 0.930 . S
C2230 C2228 1.419 . S
C2230 C2231 1.362 . S
C2231 H2221 0.930 . S
C2231 C2224 1.409 . S
C2231 C2230 1.362 . S
H2232 C2238 0.930 . S
H2233 C2241 0.930 . S
H2234 C2242 0.930 . S
H2235 C2243 0.930 . S
H2236 C2246 0.930 . S
H2237 C2247 0.930 . S
C2238 H2232 0.930 . S
C2238 C2239 1.355 . S
C2238 C2240 1.415 . S
C2239 C2238 1.355 . S
C2239 C2241 1.419 . S
C2240 C2238 1.415 . S
C2240 C2245 1.425 . S
C2240 C2247 1.409 . S
C2241 H2233 0.930 . S
C2241 C2239 1.419 . S
C2241 C2242 1.362 . S
C2242 H2234 0.930 . S
C2242 C2241 1.362 . S
C2242 C2245 1.409 . S
C2243 H2235 0.930 . S
C2243 C2244 1.355 . S
C2243 C2245 1.415 . S
C2244 C2243 1.355 . S
C2244 C2246 1.419 . S
C2245 C2240 1.425 . S
C2245 C2242 1.409 . S
C2245 C2243 1.415 . S
C2246 H2236 0.930 . S
C2246 C2244 1.419 . S
C2246 C2247 1.362 . S
C2247 H2237 0.930 . S
C2247 C2240 1.409 . S
C2247 C2246 1.362 . S
H2248 C2254 0.930 . S
H2249 C2257 0.930 . S
H2250 C2258 0.930 . S
H2251 C2259 0.930 . S
H2252 C2262 0.930 . S
H2253 C2263 0.930 . S
C2254 H2248 0.930 . S
C2254 C2255 1.355 . S
C2254 C2256 1.415 . S
C2255 C2254 1.355 . S
C2255 C2257 1.419 . S
C2256 C2254 1.415 . S
C2256 C2261 1.425 . S
C2256 C2263 1.409 . S
C2257 H2249 0.930 . S
C2257 C2255 1.419 . S
C2257 C2258 1.362 . S
C2258 H2250 0.930 . S
C2258 C2257 1.362 . S
C2258 C2261 1.409 . S
C2259 H2251 0.930 . S
C2259 C2260 1.355 . S
C2259 C2261 1.415 . S
C2260 C2259 1.355 . S
C2260 C2262 1.419 . S
C2261 C2256 1.425 . S
C2261 C2258 1.409 . S
C2261 C2259 1.415 . S
C2262 H2252 0.930 . S
C2262 C2260 1.419 . S
C2262 C2263 1.362 . S
C2263 H2253 0.930 . S
C2263 C2256 1.409 . S
C2263 C2262 1.362 . S
H2264 C2270 0.930 . S
H2265 C2273 0.930 . S
H2266 C2274 0.930 . S
H2267 C2275 0.930 . S
H2268 C2278 0.930 . S
H2269 C2279 0.930 . S
C2270 H2264 0.930 . S
C2270 C2271 1.355 . S
C2270 C2272 1.415 . S
C2271 C2270 1.355 . S
C2271 C2273 1.419 . S
C2272 C2270 1.415 . S
C2272 C2277 1.425 . S
C2272 C2279 1.409 . S
C2273 H2265 0.930 . S
C2273 C2271 1.419 . S
C2273 C2274 1.362 . S
C2274 H2266 0.930 . S
C2274 C2273 1.362 . S
C2274 C2277 1.409 . S
C2275 H2267 0.930 . S
C2275 C2276 1.355 . S
C2275 C2277 1.415 . S
C2276 C2275 1.355 . S
C2276 C2278 1.419 . S
C2277 C2272 1.425 . S
C2277 C2274 1.409 . S
C2277 C2275 1.415 . S
C2278 H2268 0.930 . S
C2278 C2276 1.419 . S
C2278 C2279 1.362 . S
C2279 H2269 0.930 . S
C2279 C2272 1.409 . S
C2279 C2278 1.362 . S
H2280 C2286 0.930 . S
H2281 C2289 0.930 . S
H2282 C2290 0.930 . S
H2283 C2291 0.930 . S
H2284 C2294 0.930 . S
H2285 C2295 0.930 . S
C2286 H2280 0.930 . S
C2286 C2287 1.355 . S
C2286 C2288 1.415 . S
C2287 C2286 1.355 . S
C2287 C2289 1.419 . S
C2288 C2286 1.415 . S
C2288 C2293 1.425 1_455 S
C2288 C2295 1.409 1_455 S
C2289 H2281 0.930 . S
C2289 C2287 1.419 . S
C2289 C2290 1.362 . S
C2290 H2282 0.930 . S
C2290 C2289 1.362 . S
C2290 C2293 1.409 1_455 S
C2291 H2283 0.930 . S
C2291 C2292 1.355 . S
C2291 C2293 1.415 . S
C2292 C2291 1.355 . S
C2292 C2294 1.419 . S
C2293 C2288 1.425 1_655 S
C2293 C2290 1.409 1_655 S
C2293 C2291 1.415 . S
C2294 H2284 0.930 . S
C2294 C2292 1.419 . S
C2294 C2295 1.362 . S
C2295 H2285 0.930 . S
C2295 C2288 1.409 1_655 S
C2295 C2294 1.362 . S
H2296 C2302 0.930 . S
H2297 C2305 0.930 . S
H2298 C2306 0.930 . S
H2299 C2307 0.930 . S
H2300 C2310 0.930 . S
H2301 C2311 0.930 . S
C2302 H2296 0.930 . S
C2302 C2303 1.355 . S
C2302 C2304 1.415 . S
C2303 C2302 1.355 . S
C2303 C2305 1.419 . S
C2304 C2302 1.415 . S
C2304 C2309 1.425 . S
C2304 C2311 1.409 . S
C2305 H2297 0.930 . S
C2305 C2303 1.419 . S
C2305 C2306 1.362 . S
C2306 H2298 0.930 . S
C2306 C2305 1.362 . S
C2306 C2309 1.409 . S
C2307 H2299 0.930 . S
C2307 C2308 1.355 . S
C2307 C2309 1.415 . S
C2308 C2307 1.355 . S
C2308 C2310 1.419 . S
C2309 C2304 1.425 . S
C2309 C2306 1.409 . S
C2309 C2307 1.415 . S
C2310 H2300 0.930 . S
C2310 C2308 1.419 . S
C2310 C2311 1.362 . S
C2311 H2301 0.930 . S
C2311 C2304 1.409 . S
C2311 C2310 1.362 . S
H2312 C2318 0.930 . S
H2313 C2321 0.930 . S
H2314 C2322 0.930 . S
H2315 C2323 0.930 . S
H2316 C2326 0.930 . S
H2317 C2327 0.930 . S
C2318 H2312 0.930 . S
C2318 C2319 1.355 . S
C2318 C2320 1.404 1_565 S
C2319 C2318 1.355 . S
C2319 C2321 1.419 . S
C2320 C2318 1.404 1_545 S
C2320 C2325 1.431 1_545 S
C2320 C2327 1.417 . S
C2321 H2313 0.930 . S
C2321 C2319 1.419 . S
C2321 C2322 1.362 . S
C2322 H2314 0.930 . S
C2322 C2321 1.362 . S
C2322 C2325 1.417 . S
C2323 H2315 0.930 . S
C2323 C2324 1.355 . S
C2323 C2325 1.405 1_545 S
C2324 C2323 1.355 . S
C2324 C2326 1.419 . S
C2325 C2320 1.431 1_565 S
C2325 C2322 1.417 . S
C2325 C2323 1.405 1_565 S
C2326 H2316 0.930 . S
C2326 C2324 1.419 . S
C2326 C2327 1.362 . S
C2327 H2317 0.930 . S
C2327 C2320 1.417 . S
C2327 C2326 1.362 . S
H2328 C2334 0.930 . S
H2329 C2337 0.930 . S
H2330 C2338 0.941 . S
H2331 C2339 0.930 . S
H2332 C2342 0.930 . S
H2333 C2343 0.940 . S
C2334 H2328 0.930 . S
C2334 C2335 1.355 . S
C2334 C2336 1.415 . S
C2335 C2334 1.355 . S
C2335 C2337 1.419 . S
C2336 C2334 1.415 . S
C2336 C2341 1.425 1_545 S
C2336 C2343 1.415 . S
C2337 H2329 0.930 . S
C2337 C2335 1.419 . S
C2337 C2338 1.347 1_545 S
C2338 H2330 0.941 . S
C2338 C2337 1.347 1_565 S
C2338 C2341 1.415 . S
C2339 H2331 0.930 . S
C2339 C2340 1.355 . S
C2339 C2341 1.415 . S
C2340 C2339 1.355 . S
C2340 C2342 1.419 . S
C2341 C2336 1.425 1_565 S
C2341 C2338 1.415 . S
C2341 C2339 1.415 . S
C2342 H2332 0.930 . S
C2342 C2340 1.419 . S
C2342 C2343 1.347 1_565 S
C2343 H2333 0.940 . S
C2343 C2336 1.415 . S
C2343 C2342 1.347 1_545 S
H2344 C2350 0.930 . S
H2345 C2353 0.930 . S
H2346 C2354 0.930 . S
H2347 C2355 0.930 . S
H2348 C2358 0.930 . S
H2349 C2359 0.930 . S
C2350 H2344 0.930 . S
C2350 C2351 1.355 . S
C2350 C2352 1.415 . S
C2351 C2350 1.355 . S
C2351 C2353 1.419 . S
C2352 C2350 1.415 . S
C2352 C2357 1.425 1_655 S
C2352 C2359 1.409 1_655 S
C2353 H2345 0.930 . S
C2353 C2351 1.419 . S
C2353 C2354 1.362 . S
C2354 H2346 0.930 . S
C2354 C2353 1.362 . S
C2354 C2357 1.409 1_655 S
C2355 H2347 0.930 . S
C2355 C2356 1.355 . S
C2355 C2357 1.415 . S
C2356 C2355 1.355 . S
C2356 C2358 1.419 . S
C2357 C2352 1.425 1_455 S
C2357 C2354 1.409 1_455 S
C2357 C2355 1.415 . S
C2358 H2348 0.930 . S
C2358 C2356 1.419 . S
C2358 C2359 1.362 . S
C2359 H2349 0.930 . S
C2359 C2352 1.409 1_455 S
C2359 C2358 1.362 . S
H2360 C2366 0.930 . S
H2361 C2369 0.930 . S
H2362 C2370 0.930 . S
H2363 C2371 0.930 . S
H2364 C2374 0.930 . S
H2365 C2375 0.930 . S
C2366 H2360 0.930 . S
C2366 C2367 1.355 . S
C2366 C2368 1.415 . S
C2367 C2366 1.355 . S
C2367 C2369 1.419 . S
C2368 C2366 1.415 . S
C2368 C2373 1.425 . S
C2368 C2375 1.409 . S
C2369 H2361 0.930 . S
C2369 C2367 1.419 . S
C2369 C2370 1.362 . S
C2370 H2362 0.930 . S
C2370 C2369 1.362 . S
C2370 C2373 1.409 . S
C2371 H2363 0.930 . S
C2371 C2372 1.355 . S
C2371 C2373 1.415 . S
C2372 C2371 1.355 . S
C2372 C2374 1.419 . S
C2373 C2368 1.425 . S
C2373 C2370 1.409 . S
C2373 C2371 1.415 . S
C2374 H2364 0.930 . S
C2374 C2372 1.419 . S
C2374 C2375 1.362 . S
C2375 H2365 0.930 . S
C2375 C2368 1.409 . S
C2375 C2374 1.362 . S
H2376 C2382 0.930 . S
H2377 C2385 0.930 . S
H2378 C2386 0.930 . S
H2379 C2387 0.930 . S
H2380 C2390 0.930 . S
H2381 C2391 0.930 . S
C2382 H2376 0.930 . S
C2382 C2383 1.355 . S
C2382 C2384 1.415 . S
C2383 C2382 1.355 . S
C2383 C2385 1.419 . S
C2384 C2382 1.415 . S
C2384 C2389 1.425 . S
C2384 C2391 1.409 . S
C2385 H2377 0.930 . S
C2385 C2383 1.419 . S
C2385 C2386 1.362 . S
C2386 H2378 0.930 . S
C2386 C2385 1.362 . S
C2386 C2389 1.409 . S
C2387 H2379 0.930 . S
C2387 C2388 1.355 . S
C2387 C2389 1.415 . S
C2388 C2387 1.355 . S
C2388 C2390 1.419 . S
C2389 C2384 1.425 . S
C2389 C2386 1.409 . S
C2389 C2387 1.415 . S
C2390 H2380 0.930 . S
C2390 C2388 1.419 . S
C2390 C2391 1.362 . S
C2391 H2381 0.930 . S
C2391 C2384 1.409 . S
C2391 C2390 1.362 . S
H2392 C2398 0.930 . S
H2393 C2401 0.930 . S
H2394 C2402 0.930 . S
H2395 C2403 0.930 . S
H2396 C2406 0.930 . S
H2397 C2407 0.930 . S
C2398 H2392 0.930 . S
C2398 C2399 1.355 . S
C2398 C2400 1.415 . S
C2399 C2398 1.355 . S
C2399 C2401 1.419 . S
C2400 C2398 1.415 . S
C2400 C2405 1.425 . S
C2400 C2407 1.409 . S
C2401 H2393 0.930 . S
C2401 C2399 1.419 . S
C2401 C2402 1.362 . S
C2402 H2394 0.930 . S
C2402 C2401 1.362 . S
C2402 C2405 1.409 . S
C2403 H2395 0.930 . S
C2403 C2404 1.355 . S
C2403 C2405 1.415 . S
C2404 C2403 1.355 . S
C2404 C2406 1.419 . S
C2405 C2400 1.425 . S
C2405 C2402 1.409 . S
C2405 C2403 1.415 . S
C2406 H2396 0.930 . S
C2406 C2404 1.419 . S
C2406 C2407 1.362 . S
C2407 H2397 0.930 . S
C2407 C2400 1.409 . S
C2407 C2406 1.362 . S
H2408 C2414 0.930 . S
H2409 C2417 0.930 . S
H2410 C2418 0.930 . S
H2411 C2419 0.930 . S
H2412 C2422 0.930 . S
H2413 C2423 0.930 . S
C2414 H2408 0.930 . S
C2414 C2415 1.355 . S
C2414 C2416 1.415 . S
C2415 C2414 1.355 . S
C2415 C2417 1.419 . S
C2416 C2414 1.415 . S
C2416 C2421 1.425 . S
C2416 C2423 1.409 . S
C2417 H2409 0.930 . S
C2417 C2415 1.419 . S
C2417 C2418 1.362 . S
C2418 H2410 0.930 . S
C2418 C2417 1.362 . S
C2418 C2421 1.409 . S
C2419 H2411 0.930 . S
C2419 C2420 1.355 . S
C2419 C2421 1.415 . S
C2420 C2419 1.355 . S
C2420 C2422 1.419 . S
C2421 C2416 1.425 . S
C2421 C2418 1.409 . S
C2421 C2419 1.415 . S
C2422 H2412 0.930 . S
C2422 C2420 1.419 . S
C2422 C2423 1.362 . S
C2423 H2413 0.930 . S
C2423 C2416 1.409 . S
C2423 C2422 1.362 . S
H2424 C2430 0.930 . S
H2425 C2433 0.930 . S
H2426 C2434 0.930 . S
H2427 C2435 0.930 . S
H2428 C2438 0.930 . S
H2429 C2439 0.930 . S
C2430 H2424 0.930 . S
C2430 C2431 1.355 . S
C2430 C2432 1.415 . S
C2431 C2430 1.355 . S
C2431 C2433 1.419 . S
C2432 C2430 1.415 . S
C2432 C2437 1.425 . S
C2432 C2439 1.409 . S
C2433 H2425 0.930 . S
C2433 C2431 1.419 . S
C2433 C2434 1.362 . S
C2434 H2426 0.930 . S
C2434 C2433 1.362 . S
C2434 C2437 1.409 . S
C2435 H2427 0.930 . S
C2435 C2436 1.355 . S
C2435 C2437 1.415 . S
C2436 C2435 1.355 . S
C2436 C2438 1.419 . S
C2437 C2432 1.425 . S
C2437 C2434 1.409 . S
C2437 C2435 1.415 . S
C2438 H2428 0.930 . S
C2438 C2436 1.419 . S
C2438 C2439 1.362 . S
C2439 H2429 0.930 . S
C2439 C2432 1.409 . S
C2439 C2438 1.362 . S
H2440 C2446 0.930 . S
H2441 C2449 0.930 . S
H2442 C2450 0.930 . S
H2443 C2451 0.930 . S
H2444 C2454 0.930 . S
H2445 C2455 0.930 . S
C2446 H2440 0.930 . S
C2446 C2447 1.355 . S
C2446 C2448 1.415 . S
C2447 C2446 1.355 . S
C2447 C2449 1.419 . S
C2448 C2446 1.415 . S
C2448 C2453 1.425 . S
C2448 C2455 1.409 . S
C2449 H2441 0.930 . S
C2449 C2447 1.419 . S
C2449 C2450 1.362 . S
C2450 H2442 0.930 . S
C2450 C2449 1.362 . S
C2450 C2453 1.409 . S
C2451 H2443 0.930 . S
C2451 C2452 1.355 . S
C2451 C2453 1.415 . S
C2452 C2451 1.355 . S
C2452 C2454 1.419 . S
C2453 C2448 1.425 . S
C2453 C2450 1.409 . S
C2453 C2451 1.415 . S
C2454 H2444 0.930 . S
C2454 C2452 1.419 . S
C2454 C2455 1.362 . S
C2455 H2445 0.930 . S
C2455 C2448 1.409 . S
C2455 C2454 1.362 . S
H2456 C2462 0.930 . S
H2457 C2465 0.930 . S
H2458 C2466 0.930 . S
H2459 C2467 0.930 . S
H2460 C2470 0.930 . S
H2461 C2471 0.930 . S
C2462 H2456 0.930 . S
C2462 C2463 1.355 . S
C2462 C2464 1.415 . S
C2463 C2462 1.355 . S
C2463 C2465 1.419 . S
C2464 C2462 1.415 . S
C2464 C2469 1.425 . S
C2464 C2471 1.409 . S
C2465 H2457 0.930 . S
C2465 C2463 1.419 . S
C2465 C2466 1.362 . S
C2466 H2458 0.930 . S
C2466 C2465 1.362 . S
C2466 C2469 1.409 . S
C2467 H2459 0.930 . S
C2467 C2468 1.355 . S
C2467 C2469 1.415 . S
C2468 C2467 1.355 . S
C2468 C2470 1.419 . S
C2469 C2464 1.425 . S
C2469 C2466 1.409 . S
C2469 C2467 1.415 . S
C2470 H2460 0.930 . S
C2470 C2468 1.419 . S
C2470 C2471 1.362 . S
C2471 H2461 0.930 . S
C2471 C2464 1.409 . S
C2471 C2470 1.362 . S
H2472 C2478 0.930 . S
H2473 C2481 0.930 . S
H2474 C2482 0.930 . S
H2475 C2483 0.930 . S
H2476 C2486 0.930 . S
H2477 C2487 0.930 . S
C2478 H2472 0.930 . S
C2478 C2479 1.355 . S
C2478 C2480 1.415 . S
C2479 C2478 1.355 . S
C2479 C2481 1.419 . S
C2480 C2478 1.415 . S
C2480 C2485 1.425 . S
C2480 C2487 1.409 . S
C2481 H2473 0.930 . S
C2481 C2479 1.419 . S
C2481 C2482 1.362 . S
C2482 H2474 0.930 . S
C2482 C2481 1.362 . S
C2482 C2485 1.409 . S
C2483 H2475 0.930 . S
C2483 C2484 1.355 . S
C2483 C2485 1.415 . S
C2484 C2483 1.355 . S
C2484 C2486 1.419 . S
C2485 C2480 1.425 . S
C2485 C2482 1.409 . S
C2485 C2483 1.415 . S
C2486 H2476 0.930 . S
C2486 C2484 1.419 . S
C2486 C2487 1.362 . S
C2487 H2477 0.930 . S
C2487 C2480 1.409 . S
C2487 C2486 1.362 . S
H2488 C2494 0.930 . S
H2489 C2497 0.930 . S
H2490 C2498 0.930 . S
H2491 C2499 0.930 . S
H2492 C2502 0.930 . S
H2493 C2503 0.930 . S
C2494 H2488 0.930 . S
C2494 C2495 1.355 . S
C2494 C2496 1.415 . S
C2495 C2494 1.355 . S
C2495 C2497 1.419 . S
C2496 C2494 1.415 . S
C2496 C2501 1.425 . S
C2496 C2503 1.409 . S
C2497 H2489 0.930 . S
C2497 C2495 1.419 . S
C2497 C2498 1.362 . S
C2498 H2490 0.930 . S
C2498 C2497 1.362 . S
C2498 C2501 1.409 . S
C2499 H2491 0.930 . S
C2499 C2500 1.355 . S
C2499 C2501 1.415 . S
C2500 C2499 1.355 . S
C2500 C2502 1.419 . S
C2501 C2496 1.425 . S
C2501 C2498 1.409 . S
C2501 C2499 1.415 . S
C2502 H2492 0.930 . S
C2502 C2500 1.419 . S
C2502 C2503 1.362 . S
C2503 H2493 0.930 . S
C2503 C2496 1.409 . S
C2503 C2502 1.362 . S
H2504 C2510 0.930 . S
H2505 C2513 0.930 . S
H2506 C2514 0.930 . S
H2507 C2515 0.930 . S
H2508 C2518 0.930 . S
H2509 C2519 0.930 . S
C2510 H2504 0.930 . S
C2510 C2511 1.355 . S
C2510 C2512 1.415 . S
C2511 C2510 1.355 . S
C2511 C2513 1.419 . S
C2512 C2510 1.415 . S
C2512 C2517 1.425 . S
C2512 C2519 1.409 . S
C2513 H2505 0.930 . S
C2513 C2511 1.419 . S
C2513 C2514 1.362 . S
C2514 H2506 0.930 . S
C2514 C2513 1.362 . S
C2514 C2517 1.409 . S
C2515 H2507 0.930 . S
C2515 C2516 1.355 . S
C2515 C2517 1.415 . S
C2516 C2515 1.355 . S
C2516 C2518 1.419 . S
C2517 C2512 1.425 . S
C2517 C2514 1.409 . S
C2517 C2515 1.415 . S
C2518 H2508 0.930 . S
C2518 C2516 1.419 . S
C2518 C2519 1.362 . S
C2519 H2509 0.930 . S
C2519 C2512 1.409 . S
C2519 C2518 1.362 . S
H2520 C2526 0.930 . S
H2521 C2529 0.930 . S
H2522 C2530 0.930 . S
H2523 C2531 0.930 . S
H2524 C2534 0.930 . S
H2525 C2535 0.930 . S
C2526 H2520 0.930 . S
C2526 C2527 1.355 . S
C2526 C2528 1.415 . S
C2527 C2526 1.355 . S
C2527 C2529 1.419 . S
C2528 C2526 1.415 . S
C2528 C2533 1.425 . S
C2528 C2535 1.409 . S
C2529 H2521 0.930 . S
C2529 C2527 1.419 . S
C2529 C2530 1.362 . S
C2530 H2522 0.930 . S
C2530 C2529 1.362 . S
C2530 C2533 1.409 . S
C2531 H2523 0.930 . S
C2531 C2532 1.355 . S
C2531 C2533 1.415 . S
C2532 C2531 1.355 . S
C2532 C2534 1.419 . S
C2533 C2528 1.425 . S
C2533 C2530 1.409 . S
C2533 C2531 1.415 . S
C2534 H2524 0.930 . S
C2534 C2532 1.419 . S
C2534 C2535 1.362 . S
C2535 H2525 0.930 . S
C2535 C2528 1.409 . S
C2535 C2534 1.362 . S
H2536 C2542 0.930 . S
H2537 C2545 0.930 . S
H2538 C2546 0.930 . S
H2539 C2547 0.930 . S
H2540 C2550 0.930 . S
H2541 C2551 0.930 . S
C2542 H2536 0.930 . S
C2542 C2543 1.355 . S
C2542 C2544 1.415 . S
C2543 C2542 1.355 . S
C2543 C2545 1.419 . S
C2544 C2542 1.415 . S
C2544 C2549 1.425 . S
C2544 C2551 1.409 . S
C2545 H2537 0.930 . S
C2545 C2543 1.419 . S
C2545 C2546 1.362 . S
C2546 H2538 0.930 . S
C2546 C2545 1.362 . S
C2546 C2549 1.409 . S
C2547 H2539 0.930 . S
C2547 C2548 1.355 . S
C2547 C2549 1.415 . S
C2548 C2547 1.355 . S
C2548 C2550 1.419 . S
C2549 C2544 1.425 . S
C2549 C2546 1.409 . S
C2549 C2547 1.415 . S
C2550 H2540 0.930 . S
C2550 C2548 1.419 . S
C2550 C2551 1.362 . S
C2551 H2541 0.930 . S
C2551 C2544 1.409 . S
C2551 C2550 1.362 . S
H2552 C2558 0.930 . S
H2553 C2561 0.930 . S
H2554 C2562 0.930 . S
H2555 C2563 0.930 . S
H2556 C2566 0.930 . S
H2557 C2567 0.930 . S
C2558 H2552 0.930 . S
C2558 C2559 1.355 . S
C2558 C2560 1.415 . S
C2559 C2558 1.355 . S
C2559 C2561 1.419 . S
C2560 C2558 1.415 . S
C2560 C2565 1.425 . S
C2560 C2567 1.409 . S
C2561 H2553 0.930 . S
C2561 C2559 1.419 . S
C2561 C2562 1.362 . S
C2562 H2554 0.930 . S
C2562 C2561 1.362 . S
C2562 C2565 1.409 . S
C2563 H2555 0.930 . S
C2563 C2564 1.355 . S
C2563 C2565 1.415 . S
C2564 C2563 1.355 . S
C2564 C2566 1.419 . S
C2565 C2560 1.425 . S
C2565 C2562 1.409 . S
C2565 C2563 1.415 . S
C2566 H2556 0.930 . S
C2566 C2564 1.419 . S
C2566 C2567 1.362 . S
C2567 H2557 0.930 . S
C2567 C2560 1.409 . S
C2567 C2566 1.362 . S
H2568 C2574 0.930 . S
H2569 C2577 0.930 . S
H2570 C2578 0.930 . S
H2571 C2579 0.930 . S
H2572 C2582 0.930 . S
H2573 C2583 0.930 . S
C2574 H2568 0.930 . S
C2574 C2575 1.355 . S
C2574 C2576 1.415 . S
C2575 C2574 1.355 . S
C2575 C2577 1.419 . S
C2576 C2574 1.415 . S
C2576 C2581 1.425 . S
C2576 C2583 1.409 . S
C2577 H2569 0.930 . S
C2577 C2575 1.419 . S
C2577 C2578 1.362 . S
C2578 H2570 0.930 . S
C2578 C2577 1.362 . S
C2578 C2581 1.409 . S
C2579 H2571 0.930 . S
C2579 C2580 1.355 . S
C2579 C2581 1.415 . S
C2580 C2579 1.355 . S
C2580 C2582 1.419 . S
C2581 C2576 1.425 . S
C2581 C2578 1.409 . S
C2581 C2579 1.415 . S
C2582 H2572 0.930 . S
C2582 C2580 1.419 . S
C2582 C2583 1.362 . S
C2583 H2573 0.930 . S
C2583 C2576 1.409 . S
C2583 C2582 1.362 . S
H2584 C2590 0.930 . S
H2585 C2593 0.930 . S
H2586 C2594 0.930 . S
H2587 C2595 0.930 . S
H2588 C2598 0.930 . S
H2589 C2599 0.930 . S
C2590 H2584 0.930 . S
C2590 C2591 1.355 . S
C2590 C2592 1.415 . S
C2591 C2590 1.355 . S
C2591 C2593 1.419 . S
C2592 C2590 1.415 . S
C2592 C2597 1.425 1_545 S
C2592 C2599 1.409 1_545 S
C2593 H2585 0.930 . S
C2593 C2591 1.419 . S
C2593 C2594 1.362 . S
C2594 H2586 0.930 . S
C2594 C2593 1.362 . S
C2594 C2597 1.409 1_545 S
C2595 H2587 0.930 . S
C2595 C2596 1.355 . S
C2595 C2597 1.415 . S
C2596 C2595 1.355 . S
C2596 C2598 1.419 . S
C2597 C2592 1.425 1_565 S
C2597 C2594 1.409 1_565 S
C2597 C2595 1.415 . S
C2598 H2588 0.930 . S
C2598 C2596 1.419 . S
C2598 C2599 1.362 . S
C2599 H2589 0.930 . S
C2599 C2592 1.409 1_565 S
C2599 C2598 1.362 . S
H2600 C2606 0.930 . S
H2601 C2609 0.930 . S
H2602 C2610 0.930 1_455 S
H2603 C2611 0.930 . S
H2604 C2614 0.930 . S
H2605 C2615 0.930 1_655 S
C2606 H2600 0.930 . S
C2606 C2607 1.355 . S
C2606 C2608 1.415 . S
C2607 C2606 1.355 . S
C2607 C2609 1.419 . S
C2608 C2606 1.415 . S
C2608 C2613 1.425 1_655 S
C2608 C2615 1.409 1_655 S
C2609 H2601 0.930 . S
C2609 C2607 1.419 . S
C2609 C2610 1.362 . S
C2610 H2602 0.930 1_655 S
C2610 C2609 1.362 . S
C2610 C2613 1.409 1_655 S
C2611 H2603 0.930 . S
C2611 C2612 1.355 . S
C2611 C2613 1.415 . S
C2612 C2611 1.355 . S
C2612 C2614 1.419 . S
C2613 C2608 1.425 1_455 S
C2613 C2610 1.409 1_455 S
C2613 C2611 1.415 . S
C2614 H2604 0.930 . S
C2614 C2612 1.419 . S
C2614 C2615 1.362 . S
C2615 H2605 0.930 1_455 S
C2615 C2608 1.409 1_455 S
C2615 C2614 1.362 . S
H2616 C2622 0.930 . S
H2617 C2625 0.930 . S
H2618 C2626 0.930 . S
H2619 C2627 0.930 . S
H2620 C2630 0.930 . S
H2621 C2631 0.930 . S
C2622 H2616 0.930 . S
C2622 C2623 1.355 . S
C2622 C2624 1.415 . S
C2623 C2622 1.355 . S
C2623 C2625 1.419 . S
C2624 C2622 1.415 . S
C2624 C2629 1.425 1_556 S
C2624 C2631 1.409 . S
C2625 H2617 0.930 . S
C2625 C2623 1.419 . S
C2625 C2626 1.362 1_556 S
C2626 H2618 0.930 . S
C2626 C2625 1.362 1_554 S
C2626 C2629 1.409 . S
C2627 H2619 0.930 . S
C2627 C2628 1.355 . S
C2627 C2629 1.415 . S
C2628 C2627 1.355 . S
C2628 C2630 1.419 . S
C2629 C2624 1.425 1_554 S
C2629 C2626 1.409 . S
C2629 C2627 1.415 . S
C2630 H2620 0.930 . S
C2630 C2628 1.419 . S
C2630 C2631 1.362 1_554 S
C2631 H2621 0.930 . S
C2631 C2624 1.409 . S
C2631 C2630 1.362 1_556 S
H2632 C2638 0.930 . S
H2633 C2641 0.930 . S
H2634 C2642 0.930 . S
H2635 C2643 0.930 . S
H2636 C2646 0.930 . S
H2637 C2647 0.930 . S
C2638 H2632 0.930 . S
C2638 C2639 1.355 . S
C2638 C2640 1.415 1_545 S
C2639 C2638 1.355 . S
C2639 C2641 1.419 1_556 S
C2640 C2638 1.415 1_565 S
C2640 C2645 1.425 1_566 S
C2640 C2647 1.409 . S
C2641 H2633 0.930 . S
C2641 C2639 1.419 1_554 S
C2641 C2642 1.362 . S
C2642 H2634 0.930 . S
C2642 C2641 1.362 . S
C2642 C2645 1.409 . S
C2643 H2635 0.930 . S
C2643 C2644 1.355 . S
C2643 C2645 1.415 1_565 S
C2644 C2643 1.355 . S
C2644 C2646 1.419 1_554 S
C2645 C2640 1.425 1_544 S
C2645 C2642 1.409 . S
C2645 C2643 1.415 1_545 S
C2646 H2636 0.930 . S
C2646 C2644 1.419 1_556 S
C2646 C2647 1.362 . S
C2647 H2637 0.930 . S
C2647 C2640 1.409 . S
C2647 C2646 1.362 . S
H2648 C2654 0.930 . S
H2649 C2657 0.930 . S
H2650 C2658 0.930 . S
H2651 C2659 0.930 . S
H2652 C2662 0.930 . S
H2653 C2663 0.930 . S
C2654 H2648 0.930 . S
C2654 C2655 1.355 . S
C2654 C2656 1.413 . S
C2655 C2654 1.355 . S
C2655 C2657 1.419 1_554 S
C2656 C2654 1.413 . S
C2656 C2661 1.425 1_454 S
C2656 C2663 1.411 1_455 S
C2657 H2649 0.930 . S
C2657 C2655 1.419 1_556 S
C2657 C2658 1.362 . S
C2658 H2650 0.930 . S
C2658 C2657 1.362 . S
C2658 C2661 1.411 1_455 S
C2659 H2651 0.930 . S
C2659 C2660 1.355 . S
C2659 C2661 1.413 . S
C2660 C2659 1.355 . S
C2660 C2662 1.419 1_556 S
C2661 C2656 1.425 1_656 S
C2661 C2658 1.411 1_655 S
C2661 C2659 1.413 . S
C2662 H2652 0.930 . S
C2662 C2660 1.419 1_554 S
C2662 C2663 1.362 . S
C2663 H2653 0.930 . S
C2663 C2656 1.411 1_655 S
C2663 C2662 1.362 . S
C1231 C9 1.274 . S
C1236 C70 1.476 . S
C1247 C43 1.283 . S
C1252 C2 1.480 . S
C1263 C77 1.396 . S
C1268 C36 1.501 . S
C1279 C111 1.383 . S
C1284 C138 1.504 . S
C1295 C145 1.307 . S
C1300 C172 1.489 . S
C1311 C179 1.273 . S
C1316 C104 1.475 . S
C1327 C274 1.502 . S
C1332 C213 1.365 . S
C1343 C206 1.482 . S
C1348 C247 1.347 . S
C1359 C240 1.501 . S
C1364 C281 1.358 . S
C1375 C342 1.475 . S
C1380 C315 1.313 . S
C1391 C349 1.390 . S
C1396 C376 1.504 . S
C1407 C308 1.474 . S
C1412 C383 1.273 . S
C1423 C417 1.360 . S
C1428 C478 1.486 . S
C1439 C410 1.493 . S
C1444 C451 1.322 . S
C1455 C485 1.396 . S
C1460 C444 1.502 . S
C1471 C519 1.396 . S
C1476 C546 1.501 . S
C1487 C553 1.391 . S
C1492 C580 1.497 . S
C1503 C587 1.342 . S
C1508 C512 1.498 . S
C1519 C682 1.472 . S
C1524 C621 1.285 . S
C1535 C655 1.365 . S
C1540 C614 1.502 . S
C1551 C648 1.503 . S
C1556 C689 1.373 . S
C1567 C723 1.352 . S
C1572 C750 1.483 . S
C1583 C757 1.393 . S
C1588 C784 1.504 . S
C1599 C791 1.339 . S
C1604 C716 1.480 . S
C1615 C825 1.328 . S
C1620 C886 1.478 . S
C1631 C818 1.480 . S
C1636 C859 1.337 . S
C1647 C852 1.502 . S
C1652 C893 1.369 . S
C1663 C954 1.484 . S
C1668 C927 1.293 . S
C1679 C988 1.474 . S
C1684 C961 1.306 . S
C1695 C920 1.473 . S
C1700 C995 1.273 . S
C1711 C1090 1.485 . S
C1716 C1029 1.357 . S
C1727 C1022 1.497 . S
C1732 C1063 1.341 . S
C1743 C1097 1.302 . S
C1748 C1056 1.487 . S
C1759 C1158 1.482 . S
C1764 C1131 1.346 . S
C1775 C1192 1.499 . S
C1780 C1165 1.394 . S
C1791 C1124 1.499 . S
C1796 C1199 1.352 . S
C1807 C169 1.219 . S
C1812 C33 1.200 . S
C1823 C203 1.219 . S
C1828 C67 1.203 . S
C1839 C101 1.218 . S
C1844 C135 1.204 . S
C1855 C373 1.215 . S
C1860 C237 1.210 . S
C1871 C271 1.207 . S
C1876 C407 1.217 . S
C1887 C305 1.215 . S
C1892 C339 1.197 . S
C1903 C441 1.218 . S
C1908 C577 1.198 . S
C1919 C611 1.210 . S
C1924 C475 1.198 . S
C1935 C543 1.197 . S
C1940 C509 1.212 . S
C1951 C645 1.209 . S
C1956 C781 1.198 . S
C1967 C679 1.217 . S
C1972 C815 1.207 . S
C1983 C747 1.214 . S
C1988 C713 1.196 . S
C1999 C849 1.205 . S
C2004 C985 1.218 . S
C2015 C883 1.217 . S
C2020 C1019 1.208 . S
C2031 C951 1.217 . S
C2036 C917 1.208 . S
C2047 C1053 1.216 . S
C2052 C1189 1.197 . S
C2063 C1087 1.201 . S
C2068 C1223 1.204 . S
C2079 C1155 1.211 . S
C2084 C1121 1.197 . S
C2095 C1006 1.821 . S
C2100 C20 1.815 . S
C2111 C938 1.821 . S
C2116 C54 1.816 . S
C2127 C88 1.816 . S
C2132 C972 1.804 . S
C2143 C122 1.805 . S
C2148 C462 1.808 . S
C2159 C496 1.821 . S
C2164 C156 1.809 . S
C2175 C190 1.806 . S
C2180 C428 1.819 . S
C2191 C224 1.818 . S
C2196 C802 1.820 . S
C2207 C258 1.812 . S
C2212 C734 1.803 . S
C2223 C768 1.809 . S
C2228 C292 1.804 . S
C2239 C1074 1.821 . S
C2244 C326 1.815 . S
C2255 C360 1.807 . S
C2260 C1108 1.820 . S
C2271 C394 1.803 . S
C2276 C1040 1.813 . S
C2287 C870 1.821 . S
C2292 C530 1.814 . S
C2303 C564 1.805 . S
C2308 C904 1.817 . S
C2319 C836 1.812 . S
C2324 C598 1.821 . S
C2335 C632 1.805 . S
C2340 C1210 1.808 . S
C2351 C666 1.814 . S
C2356 C1142 1.821 . S
C2367 C700 1.820 . S
C2372 C1176 1.808 . S
C2383 C5 1.502 . S
C2388 C617 1.502 . S
C2399 C651 1.500 . S
C2404 C39 1.500 . S
C2415 C685 1.523 . S
C2420 C73 1.523 . S
C2431 C107 1.561 . S
C2436 C1127 1.561 . S
C2447 C1161 1.559 . S
C2452 C141 1.559 . S
C2463 C175 1.521 . S
C2468 C1195 1.521 . S
C2479 C821 1.555 . S
C2484 C209 1.555 . S
C2495 C243 1.535 . S
C2500 C855 1.535 . S
C2511 C277 1.504 . S
C2516 C889 1.504 . S
C2527 C311 1.525 . S
C2532 C515 1.525 . S
C2543 C345 1.543 . S
C2548 C549 1.543 . S
C2559 C583 1.554 . S
C2564 C379 1.554 . S
C2575 C1025 1.530 . S
C2580 C413 1.530 . S
C2591 C447 1.539 . S
C2596 C1059 1.539 . S
C2607 C481 1.525 . S
C2612 C1093 1.525 . S
C2623 C719 1.500 . S
C2628 C923 1.500 . S
C2639 C753 1.501 . S
C2644 C957 1.501 . S
C2655 C991 1.534 . S
C2660 C787 1.534 . S
