# Generated by pormake.
# Topology upa, (4)-cn, num edge types: 1
# Building blocks:
#     Node 0, Type 0, BuildingBlock: AZAVOO_clean_sbu_0, # of connection points: 4
#     Node 1, Type 0, BuildingBlock: AZAVOO_clean_sbu_0, # of connection points: 4
#     Node 2, Type 0, BuildingBlock: AZAVOO_clean_sbu_0, # of connection points: 4
#     Node 3, Type 0, BuildingBlock: AZAVOO_clean_sbu_0, # of connection points: 4
#     Node 4, Type 0, BuildingBlock: AZAVOO_clean_sbu_0, # of connection points: 4
#     Node 5, Type 0, BuildingBlock: AZAVOO_clean_sbu_0, # of connection points: 4
#     Node 6, Type 0, BuildingBlock: AZAVOO_clean_sbu_0, # of connection points: 4
#     Node 7, Type 0, BuildingBlock: AZAVOO_clean_sbu_0, # of connection points: 4
#     Edge 8, Type (0, 0), BuildingBlock: MIFKUJ_clean_linker_0, # of connection points: 2
#     Edge 9, Type (0, 0), BuildingBlock: MIFKUJ_clean_linker_0, # of connection points: 2
#     Edge 10, Type (0, 0), BuildingBlock: MIFKUJ_clean_linker_0, # of connection points: 2
#     Edge 11, Type (0, 0), BuildingBlock: MIFKUJ_clean_linker_0, # of connection points: 2
#     Edge 12, Type (0, 0), BuildingBlock: MIFKUJ_clean_linker_0, # of connection points: 2
#     Edge 13, Type (0, 0), BuildingBlock: MIFKUJ_clean_linker_0, # of connection points: 2
#     Edge 14, Type (0, 0), BuildingBlock: MIFKUJ_clean_linker_0, # of connection points: 2
#     Edge 15, Type (0, 0), BuildingBlock: MIFKUJ_clean_linker_0, # of connection points: 2
#     Edge 16, Type (0, 0), BuildingBlock: MIFKUJ_clean_linker_0, # of connection points: 2
#     Edge 17, Type (0, 0), BuildingBlock: MIFKUJ_clean_linker_0, # of connection points: 2
#     Edge 18, Type (0, 0), BuildingBlock: MIFKUJ_clean_linker_0, # of connection points: 2
#     Edge 19, Type (0, 0), BuildingBlock: MIFKUJ_clean_linker_0, # of connection points: 2
#     Edge 20, Type (0, 0), BuildingBlock: MIFKUJ_clean_linker_0, # of connection points: 2
#     Edge 21, Type (0, 0), BuildingBlock: MIFKUJ_clean_linker_0, # of connection points: 2
#     Edge 22, Type (0, 0), BuildingBlock: MIFKUJ_clean_linker_0, # of connection points: 2
#     Edge 23, Type (0, 0), BuildingBlock: MIFKUJ_clean_linker_0, # of connection points: 2
# Relax obj value: 0.214
# Max RMSD: 0.200
# Mean RMSD: 0.200
data_MOF--net-upa--node1-AZAVOO_clean_sbu_0--edge1-MIFKUJ_clean_linker_0
_symmetry_space_group_name_H-M    P1
_symmetry_Int_Tables_number       1
_symmetry_cell_setting            triclinic
loop_
_symmetry_equiv_pos_as_xyz
'x, y, z'
_cell_length_a     35.459518
_cell_length_b     35.448482
_cell_length_c     54.942033
_cell_angle_alpha  90.03866
_cell_angle_beta   90.009249
_cell_angle_gamma 89.787169
loop_
_atom_site_label
_atom_site_type_symbol
_atom_site_fract_x
_atom_site_fract_y
_atom_site_fract_z
_atom_type_partial_charge
Mg0 Mg 0.11525 0.24946 0.33227 0.0
O1 O 0.09899 0.18747 0.32981 0.0
O2 O 0.14397 0.1511 0.34585 0.0
Mg3 Mg 0.19129 0.19068 0.35771 0.0
C4 C 0.11184 0.15513 0.33571 0.0
C5 C 0.03538 0.27656 0.31687 0.0
O6 O 0.03695 0.2887 0.33944 0.0
O7 O 0.15688 0.24322 0.30035 0.0
O8 O 0.20196 0.20858 0.31835 0.0
O9 O 0.09077 0.2508 0.36974 0.0
O10 O 0.1504 0.2373 0.36205 0.0
C11 C 0.18873 0.22619 0.29997 0.0
C12 C 0.12335 0.2397 0.3776 0.0
O13 O 0.06459 0.26139 0.30754 0.0
Mg14 Mg 0.25163 0.60758 0.84325 0.0
O15 O 0.31411 0.59273 0.84241 0.0
O16 O 0.34874 0.6351 0.86224 0.0
Mg17 Mg 0.30728 0.6816 0.87374 0.0
C18 C 0.34573 0.60429 0.8504 0.0
C19 C 0.25376 0.52576 0.8263 0.0
O20 O 0.27037 0.52618 0.84766 0.0
O21 O 0.25965 0.65223 0.81267 0.0
O22 O 0.29264 0.69442 0.83415 0.0
O23 O 0.24888 0.58082 0.88035 0.0
O24 O 0.2605 0.64117 0.87416 0.0
C25 C 0.27671 0.684 0.81442 0.0
C26 C 0.25839 0.61331 0.889 0.0
O27 O 0.24178 0.5569 0.81752 0.0
Mg28 Mg 0.87608 0.74238 0.3408 0.0
O29 O 0.88551 0.80549 0.34479 0.0
O30 O 0.83841 0.83419 0.3646 0.0
Mg31 Mg 0.79623 0.78716 0.37279 0.0
C32 C 0.87028 0.8349 0.35387 0.0
C33 C 0.9574 0.75458 0.32299 0.0
O34 O 0.95751 0.76844 0.34517 0.0
O35 O 0.83236 0.7523 0.31025 0.0
O36 O 0.78619 0.77958 0.33201 0.0
O37 O 0.90249 0.73545 0.37746 0.0
O38 O 0.84137 0.74414 0.37154 0.0
C39 C 0.79966 0.76753 0.3119 0.0
C40 C 0.86929 0.74166 0.38641 0.0
O41 O 0.92691 0.7406 0.3147 0.0
Mg42 Mg 0.75973 0.36818 0.83537 0.0
O43 O 0.69607 0.37362 0.8331 0.0
O44 O 0.66805 0.32845 0.85472 0.0
Mg45 Mg 0.71563 0.2902 0.8689 0.0
C46 C 0.66649 0.35795 0.84142 0.0
C47 C 0.77992 0.44517 0.81389 0.0
O48 O 0.79835 0.4449 0.83463 0.0
O49 O 0.75884 0.32017 0.80691 0.0
O50 O 0.73437 0.27482 0.83041 0.0
O51 O 0.75622 0.40026 0.8705 0.0
O52 O 0.75448 0.33812 0.86791 0.0
C53 C 0.74851 0.286 0.81032 0.0
C54 C 0.7508 0.36804 0.88092 0.0
O55 O 0.76289 0.41536 0.80723 0.0
Mg56 Mg 0.61343 0.23836 0.1549 0.0
O57 O 0.60014 0.30075 0.15927 0.0
O58 O 0.64532 0.3357 0.14248 0.0
Mg59 Mg 0.69018 0.29439 0.12834 0.0
C60 C 0.61381 0.33271 0.15352 0.0
C61 C 0.536 0.20851 0.17188 0.0
O62 O 0.53881 0.19345 0.1501 0.0
O63 O 0.65736 0.24082 0.18594 0.0
O64 O 0.70288 0.27265 0.16656 0.0
O65 O 0.58651 0.2414 0.11792 0.0
O66 O 0.64717 0.25031 0.12474 0.0
C67 C 0.69043 0.25513 0.18516 0.0
C68 C 0.61932 0.25108 0.10979 0.0
O69 O 0.56381 0.22693 0.18033 0.0
Mg70 Mg 0.21854 0.1087 0.66467 0.0
O71 O 0.15714 0.09026 0.66809 0.0
O72 O 0.11788 0.13452 0.65414 0.0
Mg73 Mg 0.15501 0.18375 0.64211 0.0
C74 C 0.12394 0.10202 0.66335 0.0
C75 C 0.22209 0.02552 0.67912 0.0
O76 O 0.20296 0.02626 0.65866 0.0
O77 O 0.21272 0.1492 0.69754 0.0
O78 O 0.17505 0.1932 0.68111 0.0
O79 O 0.22022 0.08658 0.6264 0.0
O80 O 0.2024 0.14447 0.63607 0.0
C81 C 0.1945 0.18042 0.69885 0.0
C82 C 0.20625 0.11869 0.61977 0.0
O83 O 0.23459 0.05655 0.68765 0.0
Mg84 Mg 0.38073 0.74987 0.15961 0.0
O85 O 0.38703 0.68644 0.16264 0.0
O86 O 0.34605 0.65727 0.13835 0.0
Mg87 Mg 0.30953 0.70376 0.12124 0.0
C88 C 0.37322 0.65644 0.1536 0.0
C89 C 0.44704 0.78197 0.18922 0.0
O90 O 0.44161 0.80849 0.17288 0.0
O91 O 0.32843 0.7483 0.18483 0.0
O92 O 0.28806 0.7219 0.15862 0.0
O93 O 0.41801 0.74673 0.12668 0.0
O94 O 0.35574 0.74409 0.12534 0.0
C95 C 0.29536 0.73655 0.17933 0.0
C96 C 0.38751 0.74151 0.11424 0.0
O97 O 0.42388 0.75472 0.19028 0.0
Mg98 Mg 0.71652 0.86864 0.65904 0.0
O99 O 0.77975 0.87074 0.66442 0.0
O100 O 0.80855 0.82352 0.6449 0.0
Mg101 Mg 0.76098 0.78645 0.62972 0.0
C102 C 0.80957 0.85335 0.65792 0.0
C103 C 0.699 0.94851 0.67602 0.0
O104 O 0.6844 0.94693 0.65406 0.0
O105 O 0.71273 0.82308 0.68886 0.0
O106 O 0.73906 0.77518 0.66812 0.0
O107 O 0.72557 0.89757 0.6233 0.0
O108 O 0.72355 0.83562 0.62774 0.0
C109 C 0.72333 0.78862 0.68715 0.0
C110 C 0.72965 0.86429 0.61406 0.0
O111 O 0.7124 0.91844 0.68531 0.0
H112 H 0.03973 0.15352 0.31798 0.0
H113 H -0.00358 0.10019 0.31781 0.0
H114 H 0.08405 0.0282 0.3465 0.0
H115 H 0.1278 0.08133 0.34667 0.0
H116 H 0.04008 -0.0072 0.31102 0.0
H117 H 0.0227 0.0667 0.38452 0.0
H118 H 0.01022 0.12561 0.40709 0.0
H119 H 0.9028 0.13654 0.37162 0.0
H120 H 0.91492 0.07794 0.34857 0.0
H121 H 0.94467 0.84292 0.3622 0.0
H122 H 0.98243 0.89985 0.35802 0.0
H123 H 0.88274 0.96308 0.33828 0.0
H124 H 0.84428 0.90606 0.34389 0.0
H125 H 0.92886 0.0052 0.36545 0.0
H126 H 0.94356 0.92963 0.29377 0.0
H127 H 0.9533 0.86791 0.27394 0.0
H128 H 0.06367 0.85982 0.30565 0.0
H129 H 0.05446 0.9213 0.32591 0.0
C130 C 0.05006 0.12627 0.32395 0.0
C131 C 0.08719 0.12183 0.33262 0.0
C132 C 0.02519 0.09584 0.32387 0.0
C133 C 0.03693 0.06047 0.33247 0.0
C134 C 0.07447 0.05537 0.33985 0.0
C135 C 0.09939 0.08581 0.34001 0.0
C136 C 0.0095 0.02946 0.33537 0.0
C137 C 0.01585 -0.00455 0.32296 0.0
C138 C 0.97741 0.03327 0.35053 0.0
C139 C 0.96988 0.06818 0.36464 0.0
C140 C -0.00347 0.08181 0.38142 0.0
C141 C 0.98951 0.11512 0.39431 0.0
C142 C 0.95578 0.13486 0.39074 0.0
C143 C 0.92894 0.12125 0.37434 0.0
C144 C 0.93586 0.08799 0.36137 0.0
C145 C 0.93079 0.86904 0.35713 0.0
C146 C 0.89179 0.87018 0.35295 0.0
C147 C 0.95236 0.90151 0.35469 0.0
C148 C 0.9356 0.93543 0.34706 0.0
C149 C 0.89628 0.93709 0.34394 0.0
C150 C 0.8744 0.90463 0.34707 0.0
C151 C 0.95968 0.96837 0.34136 0.0
C152 C 0.95272 0.00274 0.35319 0.0
C153 C -0.00897 0.96504 0.32549 0.0
C154 C -0.00178 0.92995 0.31146 0.0
C155 C 0.96997 0.91475 0.29642 0.0
C156 C 0.9753 0.87973 0.28523 0.0
C157 C 0.00886 0.85979 0.2888 0.0
C158 C 0.03754 0.87517 0.30311 0.0
C159 C 0.03236 0.9102 0.31435 0.0
H160 H 0.01273 0.83258 0.28026 0.0
H161 H 0.9504 0.16065 0.40073 0.0
H162 H 0.41922 0.61832 0.86341 0.0
H163 H 0.47338 0.57566 0.85942 0.0
H164 H 0.40154 0.49123 0.82728 0.0
H165 H 0.34782 0.53373 0.83048 0.0
H166 H 0.48766 0.5087 0.87885 0.0
H167 H 0.44905 0.4392 0.78673 0.0
H168 H 0.4162 0.45565 0.74857 0.0
H169 H 0.44229 0.5726 0.75966 0.0
H170 H 0.47568 0.55679 0.79771 0.0
H171 H 0.59938 0.34527 0.86486 0.0
H172 H 0.543 0.38526 0.86371 0.0
H173 H 0.59517 0.45571 0.80942 0.0
H174 H 0.65125 0.4158 0.81015 0.0
H175 H 0.52094 0.44728 0.80047 0.0
H176 H 0.60062 0.47938 0.86805 0.0
H177 H 0.63716 0.46521 0.90517 0.0
H178 H 0.53589 0.43091 0.94167 0.0
H179 H 0.49883 0.44418 0.9046 0.0
C180 C 0.41506 0.59082 0.85525 0.0
C181 C 0.37919 0.57962 0.84711 0.0
C182 C 0.44598 0.5664 0.85312 0.0
C183 C 0.4416 0.53039 0.84283 0.0
C184 C 0.4058 0.51912 0.83485 0.0
C185 C 0.37503 0.54353 0.83677 0.0
C186 C 0.47422 0.50426 0.84068 0.0
C187 C 0.49493 0.49533 0.8617 0.0
C188 C 0.48401 0.48705 0.81827 0.0
C189 C 0.46458 0.49681 0.79517 0.0
C190 C 0.44793 0.46839 0.78096 0.0
C191 C 0.42918 0.47762 0.75937 0.0
C192 C 0.42707 0.51516 0.75173 0.0
C193 C 0.44383 0.54355 0.76564 0.0
C194 C 0.46263 0.53448 0.78723 0.0
C195 C 0.59854 0.36875 0.85228 0.0
C196 C 0.63001 0.37758 0.83781 0.0
C197 C 0.56639 0.3917 0.85175 0.0
C198 C 0.56525 0.42381 0.8368 0.0
C199 C 0.59555 0.43117 0.82116 0.0
C200 C 0.62766 0.40834 0.82169 0.0
C201 C 0.53388 0.45137 0.83867 0.0
C202 C 0.5135 0.46058 0.81761 0.0
C203 C 0.52494 0.46944 0.86093 0.0
C204 C 0.547 0.46243 0.88347 0.0
C205 C 0.58617 0.46862 0.88395 0.0
C206 C 0.60698 0.46074 0.90498 0.0
C207 C 0.58887 0.44709 0.92575 0.0
C208 C 0.54988 0.44143 0.92556 0.0
C209 C 0.52896 0.44913 0.90454 0.0
H210 H 0.60503 0.44096 0.942 0.0
H211 H 0.4125 0.52225 0.73503 0.0
H212 H 0.62947 0.40589 0.14085 0.0
H213 H 0.58787 0.46077 0.14467 0.0
H214 H 0.50343 0.39144 0.17893 0.0
H215 H 0.54485 0.33675 0.17563 0.0
H216 H 0.52029 0.47217 0.12442 0.0
H217 H 0.45221 0.44392 0.21847 0.0
H218 H 0.46909 0.41515 0.25789 0.0
H219 H 0.586 0.439 0.24488 0.0
H220 H 0.56977 0.46833 0.20555 0.0
H221 H 0.35818 0.5866 0.13466 0.0
H222 H 0.39705 0.52969 0.13843 0.0
H223 H 0.47035 0.58763 0.18862 0.0
H224 H 0.43184 0.64436 0.18498 0.0
H225 H 0.46054 0.51416 0.20156 0.0
H226 H 0.49099 0.58622 0.13011 0.0
H227 H 0.47587 0.61836 0.09152 0.0
H228 H 0.44178 0.51296 0.06007 0.0
H229 H 0.45565 0.48033 0.09873 0.0
C230 C 0.60228 0.40241 0.14952 0.0
C231 C 0.59057 0.36686 0.15793 0.0
C232 C 0.57846 0.43377 0.15156 0.0
C233 C 0.54262 0.43021 0.16215 0.0
C234 C 0.53116 0.39497 0.17098 0.0
C235 C 0.55492 0.36366 0.16901 0.0
C236 C 0.51655 0.46297 0.16313 0.0
C237 C 0.50727 0.48135 0.14129 0.0
C238 C 0.49974 0.4751 0.18517 0.0
C239 C 0.50978 0.458 0.20896 0.0
C240 C 0.4815 0.44316 0.22407 0.0
C241 C 0.49096 0.42673 0.24639 0.0
C242 C 0.52861 0.42515 0.25385 0.0
C243 C 0.55686 0.44011 0.23904 0.0
C244 C 0.54756 0.4566 0.21672 0.0
C245 C 0.38223 0.58701 0.14674 0.0
C246 C 0.39231 0.62023 0.15907 0.0
C247 C 0.40439 0.55451 0.1489 0.0
C248 C 0.43692 0.55475 0.16349 0.0
C249 C 0.44545 0.58694 0.1772 0.0
C250 C 0.42342 0.61941 0.17499 0.0
C251 C 0.46398 0.5229 0.16285 0.0
C252 C 0.47345 0.50477 0.1847 0.0
C253 C 0.4815 0.51144 0.14089 0.0
C254 C 0.47399 0.53088 0.11742 0.0
C255 C 0.47999 0.56992 0.11504 0.0
C256 C 0.4716 0.58825 0.09315 0.0
C257 C 0.45776 0.56773 0.07338 0.0
C258 C 0.45242 0.52882 0.07543 0.0
C259 C 0.46046 0.51041 0.09734 0.0
H260 H 0.45126 0.58195 0.05646 0.0
H261 H 0.53587 0.41239 0.27113 0.0
H262 H 0.04848 0.11666 0.65753 0.0
H263 H -0.00361 0.07193 0.66069 0.0
H264 H 0.07495 0.98334 0.67938 0.0
H265 H 0.12691 0.02786 0.67698 0.0
H266 H 0.98265 0.0109 0.63457 0.0
H267 H 0.03397 0.91902 0.71466 0.0
H268 H 0.07209 0.92557 0.75201 0.0
H269 H 0.04111 0.04254 0.75697 0.0
H270 H 0.00262 0.03661 0.71976 0.0
H271 H 0.87724 0.84364 0.63471 0.0
H272 H 0.93391 0.88215 0.63987 0.0
H273 H 0.88078 0.94182 0.69917 0.0
H274 H 0.82415 0.90369 0.69414 0.0
H275 H 0.959 0.92924 0.70631 0.0
H276 H 0.87206 0.97823 0.64638 0.0
H277 H 0.83195 0.97197 0.60994 0.0
H278 H 0.92943 0.946 0.56663 0.0
H279 H 0.97008 0.95146 0.60296 0.0
C280 C 0.05464 0.08777 0.66261 0.0
C281 C 0.09192 0.07592 0.66702 0.0
C282 C 0.02485 0.06221 0.6643 0.0
C283 C 0.03173 0.02435 0.67041 0.0
C284 C 0.06885 0.01254 0.67505 0.0
C285 C 0.09859 0.03809 0.67357 0.0
C286 C 0.00029 -0.00309 0.67106 0.0
C287 C 0.97752 -0.00687 0.65029 0.0
C288 C -0.00657 0.97375 0.69158 0.0
C289 C 0.01564 0.9774 0.71434 0.0
C290 C 0.03513 0.94607 0.72381 0.0
C291 C 0.05686 0.94969 0.74492 0.0
C292 C 0.05907 0.98446 0.75683 0.0
C293 C 0.03946 0.01565 0.74769 0.0
C294 C 0.01774 0.01219 0.72657 0.0
C295 C 0.87801 0.86426 0.64926 0.0
C296 C 0.84612 0.87096 0.66383 0.0
C297 C 0.91032 0.88628 0.65214 0.0
C298 C 0.91122 0.91506 0.66971 0.0
C299 C 0.88056 0.91979 0.68549 0.0
C300 C 0.84817 0.89809 0.68249 0.0
C301 C 0.94196 0.94308 0.66978 0.0
C302 C 0.9644 0.94699 0.69063 0.0
C303 C 0.94821 0.96677 0.64948 0.0
C304 C 0.92406 0.96493 0.62743 0.0
C305 C 0.88493 0.97105 0.62911 0.0
C306 C 0.86209 0.96762 0.60848 0.0
C307 C 0.87812 0.95849 0.58599 0.0
C308 C 0.91706 0.95301 0.58407 0.0
C309 C 0.94002 0.95629 0.60468 0.0
H310 H 0.86038 0.95571 0.57006 0.0
H311 H 0.07592 0.98721 0.77315 0.0
H312 H 0.07014 0.23448 0.41362 0.0
H313 H 0.07905 0.21035 0.45508 0.0
H314 H 0.19657 0.18971 0.43985 0.0
H315 H 0.18845 0.21502 0.39896 0.0
H316 H 0.15452 0.12713 0.46285 0.0
H317 H 0.18037 0.26148 0.47041 0.0
H318 H 0.16414 0.32886 0.46617 0.0
H319 H 0.06701 0.31336 0.5117 0.0
H320 H 0.08241 0.2457 0.51592 0.0
H321 H 0.2422 0.10075 0.57763 0.0
H322 H 0.22261 0.11724 0.53618 0.0
H323 H 0.11953 0.16554 0.56444 0.0
H324 H 0.13967 0.15007 0.6057 0.0
H325 H 0.14782 0.21215 0.53448 0.0
H326 H 0.12226 0.08082 0.53084 0.0
H327 H 0.13431 0.0126 0.53504 0.0
H328 H 0.22377 0.01959 0.4826 0.0
H329 H 0.21262 0.08799 0.47832 0.0
C330 C 0.0979 0.22493 0.41913 0.0
C331 C 0.12849 0.22621 0.40285 0.0
C332 C 0.10287 0.21106 0.44275 0.0
C333 C 0.13837 0.19798 0.45032 0.0
C334 C 0.16887 0.19926 0.43417 0.0
C335 C 0.1641 0.21367 0.41077 0.0
C336 C 0.14427 0.1838 0.47529 0.0
C337 C 0.15333 0.14561 0.47858 0.0
C338 C 0.14143 0.20782 0.4957 0.0
C339 C 0.13227 0.24848 0.49323 0.0
C340 C 0.15535 0.27237 0.47932 0.0
C341 C 0.14635 0.31062 0.47696 0.0
C342 C 0.11449 0.32536 0.48859 0.0
C343 C 0.09163 0.30189 0.50266 0.0
C344 C 0.10049 0.2636 0.50505 0.0
C345 C 0.21522 0.11454 0.57485 0.0
C346 C 0.19276 0.12489 0.59478 0.0
C347 C 0.20392 0.1238 0.5512 0.0
C348 C 0.16946 0.14258 0.54712 0.0
C349 C 0.14639 0.15146 0.56709 0.0
C350 C 0.15801 0.14282 0.59069 0.0
C351 C 0.15857 0.15518 0.52231 0.0
C352 C 0.14861 0.19324 0.51894 0.0
C353 C 0.15992 0.13078 0.50189 0.0
C354 C 0.16681 0.08963 0.50442 0.0
C355 C 0.14471 0.06788 0.52034 0.0
C356 C 0.15135 0.02916 0.52271 0.0
C357 C 0.17985 0.01179 0.50914 0.0
C358 C 0.20173 0.0331 0.49312 0.0
C359 C 0.19523 0.07184 0.49069 0.0
H360 H 0.18493 0.9818 0.51099 0.0
H361 H 0.10758 0.35499 0.48676 0.0
H362 H 0.25221 0.67483 0.91751 0.0
H363 H 0.28599 0.68771 0.95522 0.0
H364 H 0.33477 0.57601 0.95329 0.0
H365 H 0.29948 0.56247 0.91572 0.0
H366 H 0.32003 0.59674 0.99935 0.0
H367 H 0.38653 0.64967 0.93393 0.0
H368 H 0.39509 0.68431 0.89546 0.0
H369 H 0.35719 0.78649 0.92977 0.0
H370 H 0.34775 0.75236 0.96836 0.0
H371 H 0.43142 0.68495 0.09541 0.0
H372 H 0.42298 0.65404 0.05555 0.0
H373 H 0.33571 0.73451 0.03764 0.0
H374 H 0.34327 0.76443 0.07739 0.0
H375 H 0.38962 0.71799 0.99888 0.0
H376 H 0.31268 0.6557 0.06217 0.0
H377 H 0.30366 0.61669 0.09884 0.0
H378 H 0.36788 0.52702 0.06629 0.0
H379 H 0.37821 0.56592 0.02967 0.0
C380 C 0.26951 0.65276 0.92541 0.0
C381 C 0.27341 0.61776 0.91377 0.0
C382 C 0.28908 0.66022 0.94681 0.0
C383 C 0.31387 0.63325 0.95663 0.0
C384 C 0.31611 0.59734 0.94587 0.0
C385 C 0.29584 0.58958 0.92454 0.0
C386 C 0.33811 0.64379 0.97754 0.0
C387 C 0.33608 0.62273 0.9991 0.0
C388 C 0.35975 0.6773 0.97707 0.0
C389 C 0.36636 0.69838 0.95408 0.0
C390 C 0.3799 0.67951 0.93327 0.0
C391 C 0.38488 0.69905 0.91143 0.0
C392 C 0.37667 0.73757 0.91017 0.0
C393 C 0.36358 0.75665 0.93078 0.0
C394 C 0.35848 0.73723 0.95268 0.0
C395 C 0.41121 0.69648 0.0826 0.0
C396 C 0.38818 0.7272 0.08917 0.0
C397 C 0.40624 0.67871 0.06002 0.0
C398 C 0.37872 0.69207 0.04374 0.0
C399 C 0.35721 0.72394 0.04992 0.0
C400 C 0.36154 0.74102 0.07256 0.0
C401 C 0.36969 0.67204 0.02089 0.0
C402 C 0.3747 0.69132 0.99888 0.0
C403 C 0.35169 0.63646 0.02086 0.0
C404 C 0.34669 0.61394 0.04333 0.0
C405 C 0.32546 0.62795 0.063 0.0
C406 C 0.32003 0.6058 0.08375 0.0
C407 C 0.33528 0.56943 0.08489 0.0
C408 C 0.35624 0.55525 0.0654 0.0
C409 C 0.36195 0.57735 0.04467 0.0
H410 H 0.33064 0.5521 0.1008 0.0
H411 H 0.38047 0.75264 0.89323 0.0
H412 H 0.79385 0.89656 0.59667 0.0
H413 H 0.8291 0.87714 0.56029 0.0
H414 H 0.74005 0.79921 0.54192 0.0
H415 H 0.70639 0.81685 0.57899 0.0
H416 H 0.80266 0.7648 0.53822 0.0
H417 H 0.75905 0.88925 0.51077 0.0
H418 H 0.75421 0.95849 0.51456 0.0
H419 H 0.87497 0.96719 0.51386 0.0
H420 H 0.88048 0.89797 0.51021 0.0
H421 H 0.80516 0.73469 0.41264 0.0
H422 H 0.79337 0.75669 0.45407 0.0
H423 H 0.90844 0.79476 0.45961 0.0
H424 H 0.9207 0.77208 0.41799 0.0
H425 H 0.84968 0.84975 0.47335 0.0
H426 H 0.89098 0.7253 0.49219 0.0
H427 H 0.89451 0.65616 0.48779 0.0
H428 H 0.77662 0.64736 0.50459 0.0
H429 H 0.77222 0.71651 0.50873 0.0
C430 C 0.78162 0.87592 0.58447 0.0
C431 C 0.74732 0.85842 0.59025 0.0
C432 C 0.80175 0.86476 0.56374 0.0
C433 C 0.78719 0.83678 0.5482 0.0
C434 C 0.75207 0.8206 0.55366 0.0
C435 C 0.73262 0.83092 0.57466 0.0
C436 C 0.80865 0.82269 0.5268 0.0
C437 C 0.81269 0.78347 0.524 0.0
C438 C 0.82355 0.84694 0.50874 0.0
C439 C 0.82017 0.88851 0.51042 0.0
C440 C 0.78454 0.90596 0.51149 0.0
C441 C 0.78169 0.94518 0.5136 0.0
C442 C 0.81426 0.96721 0.5145 0.0
C443 C 0.84977 0.95009 0.51316 0.0
C444 C 0.85277 0.91089 0.51103 0.0
C445 C 0.82811 0.74729 0.42278 0.0
C446 C 0.86386 0.75156 0.41221 0.0
C447 C 0.82135 0.75983 0.44641 0.0
C448 C 0.85008 0.77724 0.45983 0.0
C449 C 0.886 0.7813 0.44948 0.0
C450 C 0.89299 0.76811 0.42586 0.0
C451 C 0.84143 0.79206 0.48435 0.0
C452 C 0.84013 0.83126 0.48781 0.0
C453 C 0.82876 0.76784 0.50299 0.0
C454 C 0.83125 0.72616 0.50065 0.0
C455 C 0.86574 0.70866 0.49477 0.0
C456 C 0.8679 0.66945 0.49236 0.0
C457 C 0.8358 0.64739 0.49588 0.0
C458 C 0.80147 0.66449 0.50187 0.0
C459 C 0.79914 0.70369 0.50429 0.0
H460 H 0.83754 0.61703 0.494 0.0
H461 H 0.81199 -0.00244 0.51619 0.0
H462 H 0.71192 0.42221 0.90669 0.0
H463 H 0.67755 0.41306 0.94515 0.0
H464 H 0.71679 0.29779 0.94798 0.0
H465 H 0.75104 0.30671 0.91007 0.0
H466 H 0.6397 0.30406 0.9557 0.0
H467 H 0.75797 0.36373 0.98225 0.0
H468 H 0.8032 0.41644 0.98325 0.0
H469 H 0.71603 0.49098 0.00882 0.0
H470 H 0.67021 0.43872 0.0077 0.0
H471 H 0.68552 0.26296 0.08656 0.0
H472 H 0.69584 0.29435 0.04786 0.0
H473 H 0.57575 0.30784 0.03847 0.0
H474 H 0.56507 0.27648 0.07782 0.0
H475 H 0.67683 0.3663 0.03289 0.0
H476 H 0.56283 0.29983 0.97465 0.0
H477 H 0.52119 0.24415 0.97368 0.0
H478 H 0.60488 0.17916 0.01176 0.0
H479 H 0.64709 0.23433 0.0127 0.0
C480 C 0.71361 0.39516 0.91579 0.0
C481 C 0.73404 0.36509 0.9054 0.0
C482 C 0.69374 0.3899 0.93757 0.0
C483 C 0.69426 0.35458 0.94915 0.0
C484 C 0.71552 0.32505 0.93909 0.0
C485 C 0.73527 0.33027 0.91751 0.0
C486 C 0.67358 0.34761 0.97207 0.0
C487 C 0.6472 0.31818 0.97254 0.0
C488 C 0.6831 0.36625 0.99393 0.0
C489 C 0.71063 0.39752 0.9946 0.0
C490 C 0.74842 0.39144 0.9879 0.0
C491 C 0.77416 0.42121 0.98852 0.0
C492 C 0.76247 0.45707 0.99602 0.0
C493 C 0.72503 0.46322 0.00297 0.0
C494 C 0.69917 0.43354 0.00235 0.0
C495 C 0.6612 0.27279 0.07643 0.0
C496 C 0.62448 0.26755 0.08535 0.0
C497 C 0.66719 0.29088 0.05433 0.0
C498 C 0.63662 0.30385 0.04048 0.0
C499 C 0.59972 0.29816 0.04901 0.0
C500 C 0.59367 0.28006 0.07135 0.0
C501 C 0.64434 0.32158 0.01664 0.0
C502 C 0.66809 0.35319 0.01596 0.0
C503 C 0.6327 0.30471 0.99459 0.0
C504 C 0.6078 0.27129 0.99404 0.0
C505 C 0.57229 0.27362 0.9828 0.0
C506 C 0.54862 0.24217 0.98224 0.0
C507 C 0.56032 0.20819 0.99275 0.0
C508 C 0.59578 0.20554 0.00374 0.0
C509 C 0.61956 0.2369 0.00431 0.0
H510 H 0.54195 0.18388 0.99231 0.0
H511 H 0.78244 0.48008 0.9965 0.0
H512 H 0.51537 0.24945 0.21203 0.0
H513 H 0.45304 0.25325 0.23077 0.0
H514 H 0.41117 0.17073 0.17981 0.0
H515 H 0.47325 0.16753 0.16055 0.0
H516 H 0.36217 0.22581 0.18355 0.0
H517 H 0.42829 0.14841 0.24019 0.0
H518 H 0.47981 0.12951 0.26779 0.0
H519 H 0.45956 0.22756 0.31189 0.0
H520 H 0.40821 0.24734 0.28435 0.0
H521 H 0.20205 0.17682 0.26299 0.0
H522 H 0.25816 0.17646 0.23662 0.0
H523 H 0.29241 0.2832 0.2669 0.0
H524 H 0.2359 0.28413 0.29262 0.0
H525 H 0.3434 0.2144 0.2727 0.0
H526 H 0.2754 0.29001 0.21412 0.0
H527 H 0.22242 0.30437 0.18655 0.0
H528 H 0.24464 0.20276 0.14636 0.0
H529 H 0.29745 0.18749 0.17395 0.0
C530 C 0.49304 0.23176 0.20498 0.0
C531 C 0.49935 0.20807 0.18485 0.0
C532 C 0.45736 0.23394 0.21574 0.0
C533 C 0.42738 0.21204 0.20685 0.0
C534 C 0.43378 0.18797 0.18696 0.0
C535 C 0.46937 0.18601 0.17607 0.0
C536 C 0.38925 0.21485 0.21802 0.0
C537 C 0.35806 0.2228 0.20302 0.0
C538 C 0.38375 0.21129 0.24345 0.0
C539 C 0.41464 0.19955 0.26006 0.0
C540 C 0.43502 0.16611 0.25566 0.0
C541 C 0.46415 0.15521 0.27132 0.0
C542 C 0.47302 0.17737 0.29155 0.0
C543 C 0.45269 0.21045 0.2962 0.0
C544 C 0.42354 0.2215 0.28058 0.0
C545 C 0.22068 0.20097 0.26307 0.0
C546 C 0.21446 0.23091 0.27931 0.0
C547 C 0.25278 0.20063 0.24821 0.0
C548 C 0.27933 0.2298 0.24991 0.0
C549 C 0.27207 0.26061 0.26525 0.0
C550 C 0.2397 0.26129 0.27972 0.0
C551 C 0.31677 0.22583 0.23828 0.0
C552 C 0.34771 0.21741 0.25325 0.0
C553 C 0.32185 0.2283 0.21285 0.0
C554 C 0.29007 0.23736 0.1963 0.0
C555 C 0.26872 0.27049 0.19958 0.0
C556 C 0.23879 0.27886 0.1839 0.0
C557 C 0.23008 0.25442 0.16476 0.0
C558 C 0.25137 0.22162 0.16122 0.0
C559 C 0.28132 0.21311 0.17687 0.0
H560 H 0.20691 0.26096 0.15263 0.0
H561 H 0.49558 0.16888 0.30365 0.0
H562 H 0.22699 0.68872 0.77566 0.0
H563 H 0.21767 0.74365 0.74884 0.0
H564 H 0.31244 0.79891 0.78243 0.0
H565 H 0.3224 0.74458 0.80865 0.0
H566 H 0.24247 0.84035 0.78402 0.0
H567 H 0.32263 0.77143 0.72758 0.0
H568 H 0.33941 0.71677 0.70194 0.0
H569 H 0.23609 0.72964 0.66197 0.0
H570 H 0.21845 0.78409 0.68762 0.0
H571 H 0.26759 0.00988 0.7185 0.0
H572 H 0.27671 0.94875 0.73854 0.0
H573 H 0.19804 0.89765 0.68861 0.0
H574 H 0.18956 0.95811 0.66824 0.0
H575 H 0.25478 0.85185 0.69442 0.0
H576 H 0.17288 0.91845 0.74785 0.0
H577 H 0.15056 0.97141 0.77319 0.0
H578 H 0.24841 0.96076 0.81878 0.0
H579 H 0.27158 0.908 0.79349 0.0
C580 C 0.24646 0.71212 0.77681 0.0
C581 C 0.27515 0.71237 0.79452 0.0
C582 C 0.24098 0.74356 0.76159 0.0
C583 C 0.26408 0.77554 0.76394 0.0
C584 C 0.29404 0.77473 0.78051 0.0
C585 C 0.2997 0.7435 0.79547 0.0
C586 C 0.25579 0.81115 0.75072 0.0
C587 C 0.24549 0.84299 0.76444 0.0
C588 C 0.25836 0.81419 0.72513 0.0
C589 C 0.26902 0.78153 0.70971 0.0
C590 C 0.30331 0.76237 0.71349 0.0
C591 C 0.31302 0.73148 0.69891 0.0
C592 C 0.28877 0.71966 0.68039 0.0
C593 C 0.25481 0.73878 0.67635 0.0
C594 C 0.24496 0.76967 0.69089 0.0
C595 C 0.25225 0.98562 0.71182 0.0
C596 C 0.22785 0.98896 0.69178 0.0
C597 C 0.25737 0.95067 0.72333 0.0
C598 C 0.23777 0.91852 0.71526 0.0
C599 C 0.21359 0.92187 0.69517 0.0
C600 C 0.2087 0.95662 0.68358 0.0
C601 C 0.24223 0.88147 0.72779 0.0
C602 C 0.2516 0.84931 0.71399 0.0
C603 C 0.23798 0.87786 0.75331 0.0
C604 C 0.22415 0.9095 0.76863 0.0
C605 C 0.18978 0.92758 0.76317 0.0
C606 C 0.17694 0.95753 0.77755 0.0
C607 C 0.1981 0.96951 0.79755 0.0
C608 C 0.23208 0.95148 0.80326 0.0
C609 C 0.24506 0.92152 0.78892 0.0
H610 H 0.18812 -0.00729 0.80866 0.0
H611 H 0.29634 0.69575 0.66912 0.0
H612 H 0.76879 0.82975 0.29164 0.0
H613 H 0.712 0.83168 0.26639 0.0
H614 H 0.7127 0.7101 0.26227 0.0
H615 H 0.77076 0.70839 0.28661 0.0
H616 H 0.68228 0.73816 0.22195 0.0
H617 H 0.66376 0.75636 0.30712 0.0
H618 H 0.6741 0.78528 0.34739 0.0
H619 H 0.63585 0.8922 0.32 0.0
H620 H 0.62585 0.86403 0.27943 0.0
H621 H 0.48137 0.72038 0.20965 0.0
H622 H 0.54461 0.71723 0.2276 0.0
H623 H 0.55728 0.83711 0.21755 0.0
H624 H 0.49442 0.84043 0.19915 0.0
H625 H 0.58029 0.80786 0.26481 0.0
H626 H 0.59793 0.78492 0.17863 0.0
H627 H 0.58567 0.75161 0.14004 0.0
H628 H 0.62247 0.64737 0.17213 0.0
H629 H 0.63444 0.68 0.21105 0.0
C630 C 0.75771 0.80359 0.28439 0.0
C631 C 0.77413 0.76895 0.29083 0.0
C632 C 0.72501 0.80464 0.27025 0.0
C633 C 0.70735 0.77098 0.2631 0.0
C634 C 0.72562 0.73643 0.26771 0.0
C635 C 0.75892 0.73545 0.28147 0.0
C636 C 0.66816 0.77179 0.25336 0.0
C637 C 0.65995 0.75311 0.23145 0.0
C638 C 0.63879 0.79118 0.26575 0.0
C639 C 0.64441 0.80817 0.29018 0.0
C640 C 0.65778 0.7861 0.30964 0.0
C641 C 0.66357 0.80235 0.33252 0.0
C642 C 0.65572 0.84057 0.33624 0.0
C643 C 0.64197 0.86261 0.31708 0.0
C644 C 0.63622 0.84651 0.29414 0.0
C645 C 0.49739 0.74617 0.21159 0.0
C646 C 0.48291 0.7807 0.20301 0.0
C647 C 0.5336 0.74425 0.22167 0.0
C648 C 0.55569 0.77688 0.22366 0.0
C649 C 0.54069 0.81161 0.21607 0.0
C650 C 0.50479 0.81345 0.20561 0.0
C651 C 0.5947 0.77483 0.23331 0.0
C652 C 0.60273 0.79307 0.25531 0.0
C653 C 0.62357 0.75439 0.22127 0.0
C654 C 0.61669 0.73483 0.19783 0.0
C655 C 0.60309 0.75484 0.17753 0.0
C656 C 0.59626 0.73609 0.15558 0.0
C657 C 0.60318 0.69737 0.15366 0.0
C658 C 0.61707 0.67735 0.17366 0.0
C659 C 0.62391 0.69596 0.19566 0.0
H660 H 0.59786 0.68291 0.13665 0.0
H661 H 0.66021 0.8531 0.35397 0.0
H662 H 0.73655 0.2921 0.76091 0.0
H663 H 0.73482 0.23951 0.73151 0.0
H664 H 0.76996 0.16255 0.788 0.0
H665 H 0.77139 0.21434 0.8171 0.0
H666 H 0.80277 0.14556 0.74331 0.0
H667 H 0.67844 0.17546 0.77744 0.0
H668 H 0.62459 0.2182 0.78491 0.0
H669 H 0.61005 0.23321 0.70792 0.0
H670 H 0.66416 0.1909 0.70003 0.0
H671 H 0.73314 0.9636 0.71979 0.0
H672 H 0.74701 0.0256 0.73716 0.0
H673 H 0.69293 0.07935 0.6759 0.0
H674 H 0.67821 0.01766 0.65874 0.0
H675 H 0.67341 0.11395 0.71577 0.0
H676 H 0.78961 0.07563 0.68078 0.0
H677 H 0.84379 0.034 0.67207 0.0
H678 H 0.87551 0.03623 0.74746 0.0
H679 H 0.82114 0.07744 0.75673 0.0
C680 C 0.74477 0.26408 0.76677 0.0
C681 C 0.75373 0.25711 0.79126 0.0
C682 C 0.74366 0.23411 0.75006 0.0
C683 C 0.75197 0.19707 0.75767 0.0
C684 C 0.7635 0.19081 0.78171 0.0
C685 C 0.76408 0.22042 0.79835 0.0
C686 C 0.74488 0.16393 0.74184 0.0
C687 C 0.77455 0.13857 0.73721 0.0
C688 C 0.70822 0.15532 0.7334 0.0
C689 C 0.67556 0.18043 0.73816 0.0
C690 C 0.6639 0.1881 0.76212 0.0
C691 C 0.63333 0.2122 0.76643 0.0
C692 C 0.61398 0.22851 0.7469 0.0
C693 C 0.62511 0.22064 0.72303 0.0
C694 C 0.65571 0.1966 0.71862 0.0
C695 C 0.72389 0.98861 0.71013 0.0
C696 C 0.70461 0.98564 0.68786 0.0
C697 C 0.73218 0.02406 0.71995 0.0
C698 C 0.72169 0.05719 0.70757 0.0
C699 C 0.70151 0.05424 0.6857 0.0
C700 C 0.69308 0.01887 0.67594 0.0
C701 C 0.73116 0.0949 0.71768 0.0
C702 C 0.70188 0.12108 0.7213 0.0
C703 C 0.7683 0.10436 0.72492 0.0
C704 C 0.80106 0.07945 0.71949 0.0
C705 C 0.80793 0.06701 0.69556 0.0
C706 C 0.83872 0.0435 0.69051 0.0
C707 C 0.86305 0.03242 0.7092 0.0
C708 C 0.85663 0.04483 0.733 0.0
C709 C 0.82584 0.0683 0.73816 0.0
H710 H 0.88695 0.01434 0.70523 0.0
H711 H 0.59032 0.24716 0.75027 0.0
H712 H 0.01833 0.24143 0.27385 0.0
H713 H 0.95657 0.23638 0.25444 0.0
H714 H 0.90769 0.30562 0.3109 0.0
H715 H 0.96923 0.31007 0.33074 0.0
H716 H 0.86336 0.24731 0.30213 0.0
H717 H 0.92387 0.34067 0.25329 0.0
H718 H 0.97432 0.36823 0.22814 0.0
H719 H 0.96245 0.27843 0.17624 0.0
H720 H 0.91225 0.25004 0.20126 0.0
H721 H 0.69401 0.28735 0.23044 0.0
H722 H 0.7502 0.28824 0.25685 0.0
H723 H 0.806 0.21004 0.20848 0.0
H724 H 0.75031 0.2093 0.18229 0.0
H725 H 0.84498 0.27607 0.21461 0.0
H726 H 0.78386 0.1829 0.26454 0.0
H727 H 0.73257 0.1573 0.28983 0.0
H728 H 0.74413 0.24989 0.33967 0.0
H729 H 0.79519 0.27635 0.31447 0.0
C730 C -0.00545 0.25595 0.282 0.0
C731 C -0.0012 0.27633 0.30379 0.0
C732 C 0.9592 0.25304 0.27088 0.0
C733 C 0.92745 0.27089 0.28109 0.0
C734 C 0.9317 0.29154 0.30271 0.0
C735 C 0.967 0.29425 0.31394 0.0
C736 C 0.8898 0.26759 0.26932 0.0
C737 C 0.85921 0.25413 0.28307 0.0
C738 C 0.88437 0.27604 0.2444 0.0
C739 C 0.91453 0.29305 0.22927 0.0
C740 C 0.93221 0.32664 0.23661 0.0
C741 C 0.96073 0.34244 0.22236 0.0
C742 C 0.97165 0.32504 0.20063 0.0
C743 C 0.954 0.29185 0.19309 0.0
C744 C 0.92548 0.27592 0.20728 0.0
C745 C 0.71777 0.26924 0.22612 0.0
C746 C 0.71791 0.24787 0.20461 0.0
C747 C 0.74988 0.26992 0.24107 0.0
C748 C 0.78236 0.24936 0.23451 0.0
C749 C 0.78134 0.22618 0.21383 0.0
C750 C 0.74945 0.2255 0.19902 0.0
C751 C 0.8188 0.25513 0.24726 0.0
C752 C 0.84914 0.26932 0.23369 0.0
C753 C 0.82378 0.24767 0.27233 0.0
C754 C 0.79305 0.23185 0.28746 0.0
C755 C 0.77522 0.19802 0.28076 0.0
C756 C 0.74625 0.18329 0.29511 0.0
C757 C 0.73502 0.20202 0.3163 0.0
C758 C 0.75281 0.23545 0.32322 0.0
C759 C 0.78179 0.25031 0.30892 0.0
H760 H 0.71259 0.19057 0.3274 0.0
H761 H -0.00627 0.33731 0.18962 0.0
H762 H 0.1412 0.22449 0.72 0.0
H763 H 0.15226 0.27985 0.74552 0.0
H764 H 0.27071 0.25232 0.74877 0.0
H765 H 0.25961 0.19635 0.72338 0.0
H766 H 0.18436 0.29675 0.79074 0.0
H767 H 0.31666 0.33781 0.73677 0.0
H768 H 0.3465 0.32475 0.69704 0.0
H769 H 0.23781 0.30346 0.66552 0.0
H770 H 0.20733 0.31696 0.70493 0.0
H771 H 0.27237 0.4561 0.84327 0.0
H772 H 0.2622 0.39515 0.82402 0.0
H773 H 0.21309 0.45027 0.76162 0.0
H774 H 0.22314 0.51206 0.78093 0.0
H775 H 0.26391 0.3921 0.74927 0.0
H776 H 0.15624 0.41041 0.80117 0.0
H777 H 0.12377 0.42461 0.83981 0.0
H778 H 0.17778 0.32949 0.87356 0.0
H779 H 0.211 0.31502 0.8352 0.0
C780 C 0.16937 0.22947 0.72691 0.0
C781 C 0.19954 0.20612 0.71977 0.0
C782 C 0.17567 0.26117 0.74144 0.0
C783 C 0.21237 0.27054 0.74871 0.0
C784 C 0.24219 0.24571 0.74318 0.0
C785 C 0.23578 0.21354 0.72891 0.0
C786 C 0.21955 0.30813 0.75971 0.0
C787 C 0.20203 0.31746 0.7818 0.0
C788 C 0.24188 0.33551 0.74775 0.0
C789 C 0.25981 0.32793 0.72386 0.0
C790 C 0.29915 0.33045 0.72133 0.0
C791 C 0.31617 0.32298 0.69887 0.0
C792 C 0.29408 0.31314 0.67879 0.0
C793 C 0.25491 0.31093 0.6811 0.0
C794 C 0.23775 0.31845 0.7035 0.0
C795 C 0.25943 0.4555 0.82542 0.0
C796 C 0.24835 0.48909 0.8137 0.0
C797 C 0.25358 0.42049 0.81447 0.0
C798 C 0.23654 0.4181 0.79152 0.0
C799 C 0.22622 0.45152 0.77941 0.0
C800 C 0.23187 0.48677 0.79047 0.0
C801 C 0.22918 0.38054 0.78051 0.0
C802 C 0.24658 0.37126 0.75837 0.0
C803 C 0.20647 0.35332 0.79233 0.0
C804 C 0.18637 0.36184 0.81537 0.0
C805 C 0.16142 0.3927 0.81688 0.0
C806 C 0.14284 0.40076 0.83872 0.0
C807 C 0.14878 0.37802 0.85914 0.0
C808 C 0.17324 0.3471 0.85774 0.0
C809 C 0.19192 0.33894 0.83595 0.0
H810 H 0.13436 0.38431 0.87604 0.0
H811 H 0.30731 0.30732 0.66143 0.0
H812 H 0.29629 0.7465 0.22937 0.0
H813 H 0.24104 0.75237 0.25643 0.0
H814 H 0.16719 0.74356 0.19433 0.0
H815 H 0.22125 0.73752 0.16759 0.0
H816 H 0.14723 0.80184 0.22498 0.0
H817 H 0.18064 0.66912 0.22862 0.0
H818 H 0.22317 0.61554 0.23714 0.0
H819 H 0.23167 0.65014 0.31185 0.0
H820 H 0.18955 0.70428 0.30367 0.0
H821 H 0.97038 0.72326 0.27794 0.0
H822 H 0.02973 0.72313 0.25492 0.0
H823 H 0.08323 0.78702 0.31192 0.0
H824 H 0.02453 0.78688 0.33523 0.0
H825 H 0.11553 0.70458 0.28648 0.0
H826 H 0.11713 0.85736 0.25918 0.0
H827 H 0.07599 0.91042 0.24696 0.0
H828 H -0.00328 0.83258 0.21609 0.0
H829 H 0.03779 0.77923 0.22768 0.0
C830 C 0.26824 0.74596 0.22158 0.0
C831 C 0.26323 0.7413 0.19635 0.0
C832 C 0.23677 0.74919 0.23701 0.0
C833 C 0.20004 0.74833 0.22733 0.0
C834 C 0.19522 0.74438 0.20218 0.0
C835 C 0.22631 0.7407 0.18693 0.0
C836 C 0.16602 0.75113 0.24293 0.0
C837 C 0.14046 0.78066 0.23854 0.0
C838 C 0.15709 0.72348 0.26055 0.0
C839 C 0.18237 0.691 0.26547 0.0
C840 C 0.19187 0.66551 0.24681 0.0
C841 C 0.21584 0.63499 0.25158 0.0
C842 C 0.23022 0.62951 0.275 0.0
C843 C 0.22058 0.65448 0.29371 0.0
C844 C 0.19666 0.68507 0.28902 0.0
C845 C -0.0053 0.73743 0.28553 0.0
C846 C -0.00736 0.75508 0.30842 0.0
C847 C 0.02851 0.73743 0.27233 0.0
C848 C 0.06056 0.7556 0.28161 0.0
C849 C 0.05866 0.77317 0.30439 0.0
C850 C 0.02505 0.77294 0.31768 0.0
C851 C 0.0966 0.75481 0.26807 0.0
C852 C 0.12262 0.72592 0.27311 0.0
C853 C 0.10583 0.78276 0.25078 0.0
C854 C 0.08004 0.81433 0.24484 0.0
C855 C 0.09081 0.85162 0.24989 0.0
C856 C 0.06766 0.88175 0.24291 0.0
C857 C 0.03372 0.87488 0.23079 0.0
C858 C 0.02291 0.83786 0.22558 0.0
C859 C 0.04605 0.80765 0.23245 0.0
H860 H 0.01577 0.89822 0.22547 0.0
H861 H 0.24876 0.60586 0.27866 0.0
H862 H 0.73152 0.45983 0.77615 0.0
H863 H 0.71797 0.52095 0.75748 0.0
H864 H 0.80196 0.57319 0.80311 0.0
H865 H 0.81512 0.51232 0.82222 0.0
H866 H 0.73965 0.61499 0.80253 0.0
H867 H 0.81823 0.55653 0.74233 0.0
H868 H 0.83871 0.50651 0.714 0.0
H869 H 0.73401 0.51595 0.67516 0.0
H870 H 0.7127 0.56571 0.70346 0.0
H871 H 0.76068 0.78435 0.73035 0.0
H872 H 0.76501 0.72776 0.75601 0.0
H873 H 0.67841 0.67466 0.71287 0.0
H874 H 0.67471 0.73077 0.68711 0.0
H875 H 0.74165 0.63394 0.71314 0.0
H876 H 0.66447 0.69512 0.77324 0.0
H877 H 0.64599 0.74611 0.8014 0.0
H878 H 0.75039 0.73309 0.84015 0.0
H879 H 0.76974 0.68234 0.812 0.0
C880 C 0.74747 0.48421 0.782 0.0
C881 C 0.77452 0.48115 0.80061 0.0
C882 C 0.73966 0.51919 0.77133 0.0
C883 C 0.75908 0.55169 0.7788 0.0
C884 C 0.7865 0.54856 0.79711 0.0
C885 C 0.79417 0.51367 0.80789 0.0
C886 C 0.7505 0.589 0.76773 0.0
C887 C 0.74051 0.61929 0.78299 0.0
C888 C 0.75098 0.59448 0.74223 0.0
C889 C 0.76373 0.56458 0.72517 0.0
C890 C 0.79946 0.54773 0.72786 0.0
C891 C 0.81123 0.51946 0.71179 0.0
C892 C 0.78763 0.50798 0.69283 0.0
C893 C 0.75224 0.52483 0.68987 0.0
C894 C 0.74031 0.55309 0.70591 0.0
C895 C 0.74143 0.7612 0.72716 0.0
C896 C 0.71699 0.76187 0.70708 0.0
C897 C 0.74403 0.72881 0.74169 0.0
C898 C 0.72213 0.69686 0.73627 0.0
C899 C 0.69563 0.69888 0.71734 0.0
C900 C 0.69323 0.73103 0.7028 0.0
C901 C 0.73031 0.65989 0.74788 0.0
C902 C 0.74053 0.62966 0.73268 0.0
C903 C 0.73029 0.65466 0.7734 0.0
C904 C 0.71871 0.68516 0.79036 0.0
C905 C 0.68364 0.70335 0.78763 0.0
C906 C 0.67297 0.73216 0.80362 0.0
C907 C 0.69704 0.7429 0.82252 0.0
C908 C 0.73179 0.72477 0.82549 0.0
C909 C 0.7426 0.69595 0.80954 0.0
H910 H 0.68873 0.76521 0.83488 0.0
H911 H 0.79681 0.4861 0.68041 0.0
loop_
_geom_bond_atom_site_label_1
_geom_bond_atom_site_label_2
_geom_bond_distance
_geom_bond_site_symmetry_2
_ccdc_geom_bond_type
Mg0 O1 2.028 . S
Mg0 O7 1.986 . S
Mg0 O9 2.114 . S
Mg0 O10 2.251 . S
Mg0 O13 2.010 . S
O1 Mg0 2.028 . S
O1 C4 1.250 . S
O2 Mg3 2.028 . S
O2 C4 1.248 . S
Mg3 O2 2.028 . S
Mg3 O8 2.032 . S
Mg3 O10 2.079 . S
C4 O1 1.250 . S
C4 O2 1.248 . S
C5 O6 1.264 . S
C5 O13 1.249 . S
O6 C5 1.264 . S
O7 Mg0 1.986 . S
O7 C11 1.246 . S
O8 Mg3 2.032 . S
O8 C11 1.259 . S
O9 Mg0 2.114 . S
O9 C12 1.252 . S
O10 Mg0 2.251 . S
O10 Mg3 2.079 . S
O10 C12 1.273 . S
C11 O7 1.246 . S
C11 O8 1.259 . S
C12 O9 1.252 . S
C12 O10 1.273 . S
O13 Mg0 2.010 . S
O13 C5 1.249 . S
Mg14 O15 2.028 . S
Mg14 O21 1.986 . S
Mg14 O23 2.114 . S
Mg14 O24 2.251 . S
Mg14 O27 2.010 . S
O15 Mg14 2.028 . S
O15 C18 1.250 . S
O16 Mg17 2.028 . S
O16 C18 1.248 . S
Mg17 O16 2.028 . S
Mg17 O22 2.032 . S
Mg17 O24 2.079 . S
C18 O15 1.250 . S
C18 O16 1.248 . S
C19 O20 1.264 . S
C19 O27 1.249 . S
O20 C19 1.264 . S
O21 Mg14 1.986 . S
O21 C25 1.246 . S
O22 Mg17 2.032 . S
O22 C25 1.259 . S
O23 Mg14 2.114 . S
O23 C26 1.252 . S
O24 Mg14 2.251 . S
O24 Mg17 2.079 . S
O24 C26 1.273 . S
C25 O21 1.246 . S
C25 O22 1.259 . S
C26 O23 1.252 . S
C26 O24 1.273 . S
O27 Mg14 2.010 . S
O27 C19 1.249 . S
Mg28 O29 2.028 . S
Mg28 O35 1.986 . S
Mg28 O37 2.114 . S
Mg28 O38 2.251 . S
Mg28 O41 2.010 . S
O29 Mg28 2.028 . S
O29 C32 1.250 . S
O30 Mg31 2.028 . S
O30 C32 1.248 . S
Mg31 O30 2.028 . S
Mg31 O36 2.032 . S
Mg31 O38 2.079 . S
C32 O29 1.250 . S
C32 O30 1.248 . S
C33 O34 1.264 . S
C33 O41 1.249 . S
O34 C33 1.264 . S
O35 Mg28 1.986 . S
O35 C39 1.246 . S
O36 Mg31 2.032 . S
O36 C39 1.259 . S
O37 Mg28 2.114 . S
O37 C40 1.252 . S
O38 Mg28 2.251 . S
O38 Mg31 2.079 . S
O38 C40 1.273 . S
C39 O35 1.246 . S
C39 O36 1.259 . S
C40 O37 1.252 . S
C40 O38 1.273 . S
O41 Mg28 2.010 . S
O41 C33 1.249 . S
Mg42 O43 2.028 . S
Mg42 O49 1.986 . S
Mg42 O51 2.114 . S
Mg42 O52 2.251 . S
Mg42 O55 2.010 . S
O43 Mg42 2.028 . S
O43 C46 1.250 . S
O44 Mg45 2.028 . S
O44 C46 1.248 . S
Mg45 O44 2.028 . S
Mg45 O50 2.032 . S
Mg45 O52 2.079 . S
C46 O43 1.250 . S
C46 O44 1.248 . S
C47 O48 1.264 . S
C47 O55 1.249 . S
O48 C47 1.264 . S
O49 Mg42 1.986 . S
O49 C53 1.246 . S
O50 Mg45 2.032 . S
O50 C53 1.259 . S
O51 Mg42 2.114 . S
O51 C54 1.252 . S
O52 Mg42 2.251 . S
O52 Mg45 2.079 . S
O52 C54 1.273 . S
C53 O49 1.246 . S
C53 O50 1.259 . S
C54 O51 1.252 . S
C54 O52 1.273 . S
O55 Mg42 2.010 . S
O55 C47 1.249 . S
Mg56 O57 2.028 . S
Mg56 O63 1.986 . S
Mg56 O65 2.114 . S
Mg56 O66 2.251 . S
Mg56 O69 2.010 . S
O57 Mg56 2.028 . S
O57 C60 1.250 . S
O58 Mg59 2.028 . S
O58 C60 1.248 . S
Mg59 O58 2.028 . S
Mg59 O64 2.032 . S
Mg59 O66 2.079 . S
C60 O57 1.250 . S
C60 O58 1.248 . S
C61 O62 1.264 . S
C61 O69 1.249 . S
O62 C61 1.264 . S
O63 Mg56 1.986 . S
O63 C67 1.246 . S
O64 Mg59 2.032 . S
O64 C67 1.259 . S
O65 Mg56 2.114 . S
O65 C68 1.252 . S
O66 Mg56 2.251 . S
O66 Mg59 2.079 . S
O66 C68 1.273 . S
C67 O63 1.246 . S
C67 O64 1.259 . S
C68 O65 1.252 . S
C68 O66 1.273 . S
O69 Mg56 2.010 . S
O69 C61 1.249 . S
Mg70 O71 2.028 . S
Mg70 O77 1.986 . S
Mg70 O79 2.114 . S
Mg70 O80 2.251 . S
Mg70 O83 2.010 . S
O71 Mg70 2.028 . S
O71 C74 1.250 . S
O72 Mg73 2.028 . S
O72 C74 1.248 . S
Mg73 O72 2.028 . S
Mg73 O78 2.032 . S
Mg73 O80 2.079 . S
C74 O71 1.250 . S
C74 O72 1.248 . S
C75 O76 1.264 . S
C75 O83 1.249 . S
O76 C75 1.264 . S
O77 Mg70 1.986 . S
O77 C81 1.246 . S
O78 Mg73 2.032 . S
O78 C81 1.259 . S
O79 Mg70 2.114 . S
O79 C82 1.252 . S
O80 Mg70 2.251 . S
O80 Mg73 2.079 . S
O80 C82 1.273 . S
C81 O77 1.246 . S
C81 O78 1.259 . S
C82 O79 1.252 . S
C82 O80 1.273 . S
O83 Mg70 2.010 . S
O83 C75 1.249 . S
Mg84 O85 2.028 . S
Mg84 O91 1.986 . S
Mg84 O93 2.114 . S
Mg84 O94 2.251 . S
Mg84 O97 2.010 . S
O85 Mg84 2.028 . S
O85 C88 1.250 . S
O86 Mg87 2.028 . S
O86 C88 1.248 . S
Mg87 O86 2.028 . S
Mg87 O92 2.032 . S
Mg87 O94 2.079 . S
C88 O85 1.250 . S
C88 O86 1.248 . S
C89 O90 1.264 . S
C89 O97 1.249 . S
O90 C89 1.264 . S
O91 Mg84 1.986 . S
O91 C95 1.246 . S
O92 Mg87 2.032 . S
O92 C95 1.259 . S
O93 Mg84 2.114 . S
O93 C96 1.252 . S
O94 Mg84 2.251 . S
O94 Mg87 2.079 . S
O94 C96 1.273 . S
C95 O91 1.246 . S
C95 O92 1.259 . S
C96 O93 1.252 . S
C96 O94 1.273 . S
O97 Mg84 2.010 . S
O97 C89 1.249 . S
Mg98 O99 2.028 . S
Mg98 O105 1.986 . S
Mg98 O107 2.114 . S
Mg98 O108 2.251 . S
Mg98 O111 2.010 . S
O99 Mg98 2.028 . S
O99 C102 1.250 . S
O100 Mg101 2.028 . S
O100 C102 1.248 . S
Mg101 O100 2.028 . S
Mg101 O106 2.032 . S
Mg101 O108 2.079 . S
C102 O99 1.250 . S
C102 O100 1.248 . S
C103 O104 1.264 . S
C103 O111 1.249 . S
O104 C103 1.264 . S
O105 Mg98 1.986 . S
O105 C109 1.246 . S
O106 Mg101 2.032 . S
O106 C109 1.259 . S
O107 Mg98 2.114 . S
O107 C110 1.252 . S
O108 Mg98 2.251 . S
O108 Mg101 2.079 . S
O108 C110 1.273 . S
C109 O105 1.246 . S
C109 O106 1.259 . S
C110 O107 1.252 . S
C110 O108 1.273 . S
O111 Mg98 2.010 . S
O111 C103 1.249 . S
H112 C130 0.951 . S
H113 C132 0.951 1_655 S
H114 C134 0.950 . S
H115 C135 0.950 . S
H116 C137 0.950 . S
H117 C140 0.950 1_455 S
H118 C141 0.950 . S
H119 C143 0.950 . S
H120 C144 0.950 . S
H121 C145 0.951 . S
H122 C147 0.951 1_455 S
H123 C149 0.950 . S
H124 C150 0.950 . S
H125 C152 0.950 . S
H126 C155 0.950 1_655 S
H127 C156 0.950 . S
H128 C158 0.950 . S
H129 C159 0.950 . S
C130 H112 0.951 . S
C130 C131 1.366 . S
C130 C132 1.388 . S
C131 C130 1.366 . S
C131 C135 1.385 . S
C132 H113 0.951 1_455 S
C132 C130 1.388 . S
C132 C133 1.366 . S
C133 C132 1.366 . S
C133 C134 1.414 . S
C133 C136 1.499 . S
C134 H114 0.950 . S
C134 C133 1.414 . S
C134 C135 1.374 . S
C135 H115 0.950 . S
C135 C131 1.385 . S
C135 C134 1.374 . S
C136 C133 1.499 . S
C136 C137 1.373 . S
C136 C138 1.389 1_455 S
C137 H116 0.950 . S
C137 C136 1.373 . S
C137 C153 1.377 1_545 S
C138 C136 1.389 1_655 S
C138 C139 1.524 . S
C138 C152 1.377 1_545 S
C139 C138 1.524 . S
C139 C140 1.397 . S
C139 C144 1.363 . S
C140 H117 0.950 1_655 S
C140 C139 1.397 . S
C140 C141 1.334 . S
C141 H118 0.950 . S
C141 C140 1.334 . S
C141 C142 1.287 . S
C142 C141 1.287 . S
C142 C143 1.524 . S
C142 H161 0.913 . S
C143 H119 0.950 . S
C143 C142 1.524 . S
C143 C144 1.415 . S
C144 H120 0.950 . S
C144 C139 1.363 . S
C144 C143 1.415 . S
C145 H121 0.951 . S
C145 C146 1.366 . S
C145 C147 1.388 . S
C146 C145 1.366 . S
C146 C150 1.385 . S
C147 H122 0.951 1_655 S
C147 C145 1.388 . S
C147 C148 1.366 . S
C148 C147 1.366 . S
C148 C149 1.414 . S
C148 C151 1.499 . S
C149 H123 0.950 . S
C149 C148 1.414 . S
C149 C150 1.374 . S
C150 H124 0.950 . S
C150 C146 1.385 . S
C150 C149 1.374 . S
C151 C148 1.499 . S
C151 C152 1.373 . S
C151 C153 1.389 1_655 S
C152 H125 0.950 . S
C152 C138 1.377 1_565 S
C152 C151 1.373 . S
C153 C137 1.377 1_565 S
C153 C151 1.389 1_455 S
C153 C154 1.524 . S
C154 C153 1.524 . S
C154 C155 1.397 . S
C154 C159 1.363 . S
C155 H126 0.950 1_455 S
C155 C154 1.397 . S
C155 C156 1.334 . S
C156 H127 0.950 . S
C156 C155 1.334 . S
C156 C157 1.287 . S
C157 C156 1.287 . S
C157 C158 1.524 . S
C157 H160 0.999 . S
C158 H128 0.950 . S
C158 C157 1.524 . S
C158 C159 1.415 . S
C159 H129 0.950 . S
C159 C154 1.363 . S
C159 C158 1.415 . S
H160 C157 0.999 . S
H161 C142 0.913 . S
H162 C180 0.951 . S
H163 C182 0.951 . S
H164 C184 0.950 . S
H165 C185 0.950 . S
H166 C187 0.950 . S
H167 C190 0.950 . S
H168 C191 0.950 . S
H169 C193 0.950 . S
H170 C194 0.950 . S
H171 C195 0.951 . S
H172 C197 0.951 . S
H173 C199 0.950 . S
H174 C200 0.950 . S
H175 C202 0.950 . S
H176 C205 0.950 . S
H177 C206 0.950 . S
H178 C208 0.950 . S
H179 C209 0.950 . S
C180 H162 0.951 . S
C180 C181 1.366 . S
C180 C182 1.388 . S
C181 C180 1.366 . S
C181 C185 1.385 . S
C182 H163 0.951 . S
C182 C180 1.388 . S
C182 C183 1.366 . S
C183 C182 1.366 . S
C183 C184 1.414 . S
C183 C186 1.499 . S
C184 H164 0.950 . S
C184 C183 1.414 . S
C184 C185 1.374 . S
C185 H165 0.950 . S
C185 C181 1.385 . S
C185 C184 1.374 . S
C186 C183 1.499 . S
C186 C187 1.373 . S
C186 C188 1.389 . S
C187 H166 0.950 . S
C187 C186 1.373 . S
C187 C203 1.377 . S
C188 C186 1.389 . S
C188 C189 1.524 . S
C188 C202 1.377 . S
C189 C188 1.524 . S
C189 C190 1.397 . S
C189 C194 1.363 . S
C190 H167 0.950 . S
C190 C189 1.397 . S
C190 C191 1.334 . S
C191 H168 0.950 . S
C191 C190 1.334 . S
C191 C192 1.287 . S
C192 C191 1.287 . S
C192 C193 1.524 . S
C192 H211 0.913 . S
C193 H169 0.950 . S
C193 C192 1.524 . S
C193 C194 1.415 . S
C194 H170 0.950 . S
C194 C189 1.363 . S
C194 C193 1.415 . S
C195 H171 0.951 . S
C195 C196 1.366 . S
C195 C197 1.388 . S
C196 C195 1.366 . S
C196 C200 1.385 . S
C197 H172 0.951 . S
C197 C195 1.388 . S
C197 C198 1.366 . S
C198 C197 1.366 . S
C198 C199 1.414 . S
C198 C201 1.499 . S
C199 H173 0.950 . S
C199 C198 1.414 . S
C199 C200 1.374 . S
C200 H174 0.950 . S
C200 C196 1.385 . S
C200 C199 1.374 . S
C201 C198 1.499 . S
C201 C202 1.373 . S
C201 C203 1.389 . S
C202 H175 0.950 . S
C202 C188 1.377 . S
C202 C201 1.373 . S
C203 C187 1.377 . S
C203 C201 1.389 . S
C203 C204 1.524 . S
C204 C203 1.524 . S
C204 C205 1.397 . S
C204 C209 1.363 . S
C205 H176 0.950 . S
C205 C204 1.397 . S
C205 C206 1.334 . S
C206 H177 0.950 . S
C206 C205 1.334 . S
C206 C207 1.287 . S
C207 C206 1.287 . S
C207 C208 1.524 . S
C207 H210 0.999 . S
C208 H178 0.950 . S
C208 C207 1.524 . S
C208 C209 1.415 . S
C209 H179 0.950 . S
C209 C204 1.363 . S
C209 C208 1.415 . S
H210 C207 0.999 . S
H211 C192 0.913 . S
H212 C230 0.951 . S
H213 C232 0.951 . S
H214 C234 0.950 . S
H215 C235 0.950 . S
H216 C237 0.950 . S
H217 C240 0.950 . S
H218 C241 0.950 . S
H219 C243 0.950 . S
H220 C244 0.950 . S
H221 C245 0.951 . S
H222 C247 0.951 . S
H223 C249 0.950 . S
H224 C250 0.950 . S
H225 C252 0.950 . S
H226 C255 0.950 . S
H227 C256 0.950 . S
H228 C258 0.950 . S
H229 C259 0.950 . S
C230 H212 0.951 . S
C230 C231 1.366 . S
C230 C232 1.388 . S
C231 C230 1.366 . S
C231 C235 1.385 . S
C232 H213 0.951 . S
C232 C230 1.388 . S
C232 C233 1.366 . S
C233 C232 1.366 . S
C233 C234 1.414 . S
C233 C236 1.499 . S
C234 H214 0.950 . S
C234 C233 1.414 . S
C234 C235 1.374 . S
C235 H215 0.950 . S
C235 C231 1.385 . S
C235 C234 1.374 . S
C236 C233 1.499 . S
C236 C237 1.373 . S
C236 C238 1.389 . S
C237 H216 0.950 . S
C237 C236 1.373 . S
C237 C253 1.377 . S
C238 C236 1.389 . S
C238 C239 1.524 . S
C238 C252 1.377 . S
C239 C238 1.524 . S
C239 C240 1.397 . S
C239 C244 1.363 . S
C240 H217 0.950 . S
C240 C239 1.397 . S
C240 C241 1.334 . S
C241 H218 0.950 . S
C241 C240 1.334 . S
C241 C242 1.287 . S
C242 C241 1.287 . S
C242 C243 1.524 . S
C242 H261 0.913 . S
C243 H219 0.950 . S
C243 C242 1.524 . S
C243 C244 1.415 . S
C244 H220 0.950 . S
C244 C239 1.363 . S
C244 C243 1.415 . S
C245 H221 0.951 . S
C245 C246 1.366 . S
C245 C247 1.388 . S
C246 C245 1.366 . S
C246 C250 1.385 . S
C247 H222 0.951 . S
C247 C245 1.388 . S
C247 C248 1.366 . S
C248 C247 1.366 . S
C248 C249 1.414 . S
C248 C251 1.499 . S
C249 H223 0.950 . S
C249 C248 1.414 . S
C249 C250 1.374 . S
C250 H224 0.950 . S
C250 C246 1.385 . S
C250 C249 1.374 . S
C251 C248 1.499 . S
C251 C252 1.373 . S
C251 C253 1.389 . S
C252 H225 0.950 . S
C252 C238 1.377 . S
C252 C251 1.373 . S
C253 C237 1.377 . S
C253 C251 1.389 . S
C253 C254 1.524 . S
C254 C253 1.524 . S
C254 C255 1.397 . S
C254 C259 1.363 . S
C255 H226 0.950 . S
C255 C254 1.397 . S
C255 C256 1.334 . S
C256 H227 0.950 . S
C256 C255 1.334 . S
C256 C257 1.287 . S
C257 C256 1.287 . S
C257 C258 1.524 . S
C257 H260 0.999 . S
C258 H228 0.950 . S
C258 C257 1.524 . S
C258 C259 1.415 . S
C259 H229 0.950 . S
C259 C254 1.363 . S
C259 C258 1.415 . S
H260 C257 0.999 . S
H261 C242 0.913 . S
H262 C280 0.951 . S
H263 C282 0.951 . S
H264 C284 0.950 . S
H265 C285 0.950 . S
H266 C287 0.950 . S
H267 C290 0.950 . S
H268 C291 0.950 . S
H269 C293 0.950 . S
H270 C294 0.950 . S
H271 C295 0.951 . S
H272 C297 0.951 . S
H273 C299 0.950 . S
H274 C300 0.950 . S
H275 C302 0.950 . S
H276 C305 0.950 . S
H277 C306 0.950 . S
H278 C308 0.950 . S
H279 C309 0.950 . S
C280 H262 0.951 . S
C280 C281 1.366 . S
C280 C282 1.388 . S
C281 C280 1.366 . S
C281 C285 1.385 . S
C282 H263 0.951 . S
C282 C280 1.388 . S
C282 C283 1.366 . S
C283 C282 1.366 . S
C283 C284 1.414 . S
C283 C286 1.499 . S
C284 H264 0.950 . S
C284 C283 1.414 . S
C284 C285 1.374 . S
C285 H265 0.950 . S
C285 C281 1.385 . S
C285 C284 1.374 . S
C286 C283 1.499 . S
C286 C287 1.373 . S
C286 C288 1.389 1_545 S
C287 H266 0.950 . S
C287 C286 1.373 . S
C287 C303 1.377 1_455 S
C288 C286 1.389 1_565 S
C288 C289 1.524 . S
C288 C302 1.377 1_455 S
C289 C288 1.524 . S
C289 C290 1.397 . S
C289 C294 1.363 . S
C290 H267 0.950 . S
C290 C289 1.397 . S
C290 C291 1.334 . S
C291 H268 0.950 . S
C291 C290 1.334 . S
C291 C292 1.287 . S
C292 C291 1.287 . S
C292 C293 1.524 . S
C292 H311 0.913 . S
C293 H269 0.950 . S
C293 C292 1.524 . S
C293 C294 1.415 . S
C294 H270 0.950 . S
C294 C289 1.363 . S
C294 C293 1.415 . S
C295 H271 0.951 . S
C295 C296 1.366 . S
C295 C297 1.388 . S
C296 C295 1.366 . S
C296 C300 1.385 . S
C297 H272 0.951 . S
C297 C295 1.388 . S
C297 C298 1.366 . S
C298 C297 1.366 . S
C298 C299 1.414 . S
C298 C301 1.499 . S
C299 H273 0.950 . S
C299 C298 1.414 . S
C299 C300 1.374 . S
C300 H274 0.950 . S
C300 C296 1.385 . S
C300 C299 1.374 . S
C301 C298 1.499 . S
C301 C302 1.373 . S
C301 C303 1.389 1_565 S
C302 H275 0.950 . S
C302 C288 1.377 1_655 S
C302 C301 1.373 . S
C303 C287 1.377 1_655 S
C303 C301 1.389 1_545 S
C303 C304 1.524 . S
C304 C303 1.524 . S
C304 C305 1.397 . S
C304 C309 1.363 . S
C305 H276 0.950 . S
C305 C304 1.397 . S
C305 C306 1.334 . S
C306 H277 0.950 . S
C306 C305 1.334 . S
C306 C307 1.287 . S
C307 C306 1.287 . S
C307 C308 1.524 . S
C307 H310 0.999 . S
C308 H278 0.950 . S
C308 C307 1.524 . S
C308 C309 1.415 . S
C309 H279 0.950 . S
C309 C304 1.363 . S
C309 C308 1.415 . S
H310 C307 0.999 . S
H311 C292 0.913 . S
H312 C330 0.951 . S
H313 C332 0.951 . S
H314 C334 0.950 . S
H315 C335 0.950 . S
H316 C337 0.950 . S
H317 C340 0.950 . S
H318 C341 0.950 . S
H319 C343 0.950 . S
H320 C344 0.950 . S
H321 C345 0.951 . S
H322 C347 0.951 . S
H323 C349 0.950 . S
H324 C350 0.950 . S
H325 C352 0.950 . S
H326 C355 0.950 . S
H327 C356 0.950 . S
H328 C358 0.950 1_565 S
H329 C359 0.950 . S
C330 H312 0.951 . S
C330 C331 1.366 . S
C330 C332 1.388 . S
C331 C330 1.366 . S
C331 C335 1.385 . S
C332 H313 0.951 . S
C332 C330 1.388 . S
C332 C333 1.366 . S
C333 C332 1.366 . S
C333 C334 1.414 . S
C333 C336 1.499 . S
C334 H314 0.950 . S
C334 C333 1.414 . S
C334 C335 1.374 . S
C335 H315 0.950 . S
C335 C331 1.385 . S
C335 C334 1.374 . S
C336 C333 1.499 . S
C336 C337 1.373 . S
C336 C338 1.389 . S
C337 H316 0.950 . S
C337 C336 1.373 . S
C337 C353 1.377 . S
C338 C336 1.389 . S
C338 C339 1.524 . S
C338 C352 1.377 . S
C339 C338 1.524 . S
C339 C340 1.397 . S
C339 C344 1.363 . S
C340 H317 0.950 . S
C340 C339 1.397 . S
C340 C341 1.334 . S
C341 H318 0.950 . S
C341 C340 1.334 . S
C341 C342 1.287 . S
C342 C341 1.287 . S
C342 C343 1.524 . S
C342 H361 0.913 . S
C343 H319 0.950 . S
C343 C342 1.524 . S
C343 C344 1.415 . S
C344 H320 0.950 . S
C344 C339 1.363 . S
C344 C343 1.415 . S
C345 H321 0.951 . S
C345 C346 1.366 . S
C345 C347 1.388 . S
C346 C345 1.366 . S
C346 C350 1.385 . S
C347 H322 0.951 . S
C347 C345 1.388 . S
C347 C348 1.366 . S
C348 C347 1.366 . S
C348 C349 1.414 . S
C348 C351 1.499 . S
C349 H323 0.950 . S
C349 C348 1.414 . S
C349 C350 1.374 . S
C350 H324 0.950 . S
C350 C346 1.385 . S
C350 C349 1.374 . S
C351 C348 1.499 . S
C351 C352 1.373 . S
C351 C353 1.389 . S
C352 H325 0.950 . S
C352 C338 1.377 . S
C352 C351 1.373 . S
C353 C337 1.377 . S
C353 C351 1.389 . S
C353 C354 1.524 . S
C354 C353 1.524 . S
C354 C355 1.397 . S
C354 C359 1.363 . S
C355 H326 0.950 . S
C355 C354 1.397 . S
C355 C356 1.334 . S
C356 H327 0.950 . S
C356 C355 1.334 . S
C356 C357 1.279 1_545 S
C357 C356 1.279 1_565 S
C357 C358 1.521 1_565 S
C357 H360 1.012 . S
C358 H328 0.950 1_545 S
C358 C357 1.521 1_545 S
C358 C359 1.415 . S
C359 H329 0.950 . S
C359 C354 1.363 . S
C359 C358 1.415 . S
H360 C357 1.012 . S
H361 C342 0.913 . S
H362 C380 0.951 . S
H363 C382 0.951 . S
H364 C384 0.950 . S
H365 C385 0.950 . S
H366 C387 0.950 . S
H367 C390 0.950 . S
H368 C391 0.950 . S
H369 C393 0.950 . S
H370 C394 0.950 . S
H371 C395 0.951 . S
H372 C397 0.951 . S
H373 C399 0.950 . S
H374 C400 0.950 . S
H375 C402 0.950 . S
H376 C405 0.950 . S
H377 C406 0.950 . S
H378 C408 0.950 . S
H379 C409 0.950 . S
C380 H362 0.951 . S
C380 C381 1.366 . S
C380 C382 1.388 . S
C381 C380 1.366 . S
C381 C385 1.385 . S
C382 H363 0.951 . S
C382 C380 1.388 . S
C382 C383 1.366 . S
C383 C382 1.366 . S
C383 C384 1.414 . S
C383 C386 1.499 . S
C384 H364 0.950 . S
C384 C383 1.414 . S
C384 C385 1.374 . S
C385 H365 0.950 . S
C385 C381 1.385 . S
C385 C384 1.374 . S
C386 C383 1.499 . S
C386 C387 1.373 . S
C386 C388 1.389 . S
C387 H366 0.950 . S
C387 C386 1.373 . S
C387 C403 1.377 1_556 S
C388 C386 1.389 . S
C388 C389 1.524 . S
C388 C402 1.377 1_556 S
C389 C388 1.524 . S
C389 C390 1.397 . S
C389 C394 1.363 . S
C390 H367 0.950 . S
C390 C389 1.397 . S
C390 C391 1.334 . S
C391 H368 0.950 . S
C391 C390 1.334 . S
C391 C392 1.287 . S
C392 C391 1.287 . S
C392 C393 1.524 . S
C392 H411 0.913 . S
C393 H369 0.950 . S
C393 C392 1.524 . S
C393 C394 1.415 . S
C394 H370 0.950 . S
C394 C389 1.363 . S
C394 C393 1.415 . S
C395 H371 0.951 . S
C395 C396 1.366 . S
C395 C397 1.388 . S
C396 C395 1.366 . S
C396 C400 1.385 . S
C397 H372 0.951 . S
C397 C395 1.388 . S
C397 C398 1.366 . S
C398 C397 1.366 . S
C398 C399 1.414 . S
C398 C401 1.499 . S
C399 H373 0.950 . S
C399 C398 1.414 . S
C399 C400 1.374 . S
C400 H374 0.950 . S
C400 C396 1.385 . S
C400 C399 1.374 . S
C401 C398 1.499 . S
C401 C402 1.373 . S
C401 C403 1.389 . S
C402 H375 0.950 . S
C402 C388 1.377 1_554 S
C402 C401 1.373 . S
C403 C387 1.377 1_554 S
C403 C401 1.389 . S
C403 C404 1.524 . S
C404 C403 1.524 . S
C404 C405 1.397 . S
C404 C409 1.363 . S
C405 H376 0.950 . S
C405 C404 1.397 . S
C405 C406 1.334 . S
C406 H377 0.950 . S
C406 C405 1.334 . S
C406 C407 1.287 . S
C407 C406 1.287 . S
C407 C408 1.524 . S
C407 H410 0.999 . S
C408 H378 0.950 . S
C408 C407 1.524 . S
C408 C409 1.415 . S
C409 H379 0.950 . S
C409 C404 1.363 . S
C409 C408 1.415 . S
H410 C407 0.999 . S
H411 C392 0.913 . S
H412 C430 0.951 . S
H413 C432 0.951 . S
H414 C434 0.950 . S
H415 C435 0.950 . S
H416 C437 0.950 . S
H417 C440 0.950 . S
H418 C441 0.950 . S
H419 C443 0.954 . S
H420 C444 0.950 . S
H421 C445 0.951 . S
H422 C447 0.951 . S
H423 C449 0.950 . S
H424 C450 0.950 . S
H425 C452 0.950 . S
H426 C455 0.950 . S
H427 C456 0.950 . S
H428 C458 0.950 . S
H429 C459 0.950 . S
C430 H412 0.951 . S
C430 C431 1.366 . S
C430 C432 1.388 . S
C431 C430 1.366 . S
C431 C435 1.385 . S
C432 H413 0.951 . S
C432 C430 1.388 . S
C432 C433 1.366 . S
C433 C432 1.366 . S
C433 C434 1.414 . S
C433 C436 1.499 . S
C434 H414 0.950 . S
C434 C433 1.414 . S
C434 C435 1.374 . S
C435 H415 0.950 . S
C435 C431 1.385 . S
C435 C434 1.374 . S
C436 C433 1.499 . S
C436 C437 1.373 . S
C436 C438 1.389 . S
C437 H416 0.950 . S
C437 C436 1.373 . S
C437 C453 1.377 . S
C438 C436 1.389 . S
C438 C439 1.524 . S
C438 C452 1.377 . S
C439 C438 1.524 . S
C439 C440 1.397 . S
C439 C444 1.363 . S
C440 H417 0.950 . S
C440 C439 1.397 . S
C440 C441 1.334 . S
C441 H418 0.950 . S
C441 C440 1.334 . S
C441 C442 1.287 1_565 S
C442 C441 1.287 1_545 S
C442 C443 1.524 1_545 S
C442 H461 0.913 . S
C443 H419 0.954 . S
C443 C442 1.524 1_565 S
C443 C444 1.415 . S
C444 H420 0.950 . S
C444 C439 1.363 . S
C444 C443 1.415 . S
C445 H421 0.951 . S
C445 C446 1.366 . S
C445 C447 1.388 . S
C446 C445 1.366 . S
C446 C450 1.385 . S
C447 H422 0.951 . S
C447 C445 1.388 . S
C447 C448 1.366 . S
C448 C447 1.366 . S
C448 C449 1.414 . S
C448 C451 1.499 . S
C449 H423 0.950 . S
C449 C448 1.414 . S
C449 C450 1.374 . S
C450 H424 0.950 . S
C450 C446 1.385 . S
C450 C449 1.374 . S
C451 C448 1.499 . S
C451 C452 1.373 . S
C451 C453 1.389 . S
C452 H425 0.950 . S
C452 C438 1.377 . S
C452 C451 1.373 . S
C453 C437 1.377 . S
C453 C451 1.389 . S
C453 C454 1.524 . S
C454 C453 1.524 . S
C454 C455 1.397 . S
C454 C459 1.363 . S
C455 H426 0.950 . S
C455 C454 1.397 . S
C455 C456 1.334 . S
C456 H427 0.950 . S
C456 C455 1.334 . S
C456 C457 1.287 . S
C457 C456 1.287 . S
C457 C458 1.524 . S
C457 H460 0.999 . S
C458 H428 0.950 . S
C458 C457 1.524 . S
C458 C459 1.415 . S
C459 H429 0.950 . S
C459 C454 1.363 . S
C459 C458 1.415 . S
H460 C457 0.999 . S
H461 C442 0.913 . S
H462 C480 0.951 . S
H463 C482 0.951 . S
H464 C484 0.950 . S
H465 C485 0.950 . S
H466 C487 0.950 . S
H467 C490 0.950 . S
H468 C491 0.950 . S
H469 C493 0.950 . S
H470 C494 0.950 . S
H471 C495 0.951 . S
H472 C497 0.951 . S
H473 C499 0.950 . S
H474 C500 0.950 . S
H475 C502 0.950 . S
H476 C505 0.950 . S
H477 C506 0.950 . S
H478 C508 0.950 . S
H479 C509 0.950 . S
C480 H462 0.951 . S
C480 C481 1.366 . S
C480 C482 1.388 . S
C481 C480 1.366 . S
C481 C485 1.385 . S
C482 H463 0.951 . S
C482 C480 1.388 . S
C482 C483 1.366 . S
C483 C482 1.366 . S
C483 C484 1.414 . S
C483 C486 1.499 . S
C484 H464 0.950 . S
C484 C483 1.414 . S
C484 C485 1.374 . S
C485 H465 0.950 . S
C485 C481 1.385 . S
C485 C484 1.374 . S
C486 C483 1.499 . S
C486 C487 1.373 . S
C486 C488 1.389 . S
C487 H466 0.950 . S
C487 C486 1.373 . S
C487 C503 1.377 1_556 S
C488 C486 1.389 . S
C488 C489 1.524 . S
C488 C502 1.377 1_556 S
C489 C488 1.524 . S
C489 C490 1.397 . S
C489 C494 1.363 1_556 S
C490 H467 0.950 . S
C490 C489 1.397 . S
C490 C491 1.334 . S
C491 H468 0.950 . S
C491 C490 1.334 . S
C491 C492 1.287 . S
C492 C491 1.287 . S
C492 C493 1.524 1_556 S
C492 H511 0.913 . S
C493 H469 0.950 . S
C493 C492 1.524 1_554 S
C493 C494 1.415 . S
C494 H470 0.950 . S
C494 C489 1.363 1_554 S
C494 C493 1.415 . S
C495 H471 0.951 . S
C495 C496 1.366 . S
C495 C497 1.388 . S
C496 C495 1.366 . S
C496 C500 1.385 . S
C497 H472 0.951 . S
C497 C495 1.388 . S
C497 C498 1.366 . S
C498 C497 1.366 . S
C498 C499 1.414 . S
C498 C501 1.499 . S
C499 H473 0.950 . S
C499 C498 1.414 . S
C499 C500 1.374 . S
C500 H474 0.950 . S
C500 C496 1.385 . S
C500 C499 1.374 . S
C501 C498 1.499 . S
C501 C502 1.373 . S
C501 C503 1.389 . S
C502 H475 0.950 . S
C502 C488 1.377 1_554 S
C502 C501 1.373 . S
C503 C487 1.377 1_554 S
C503 C501 1.389 . S
C503 C504 1.524 . S
C504 C503 1.524 . S
C504 C505 1.397 . S
C504 C509 1.363 1_554 S
C505 H476 0.950 . S
C505 C504 1.397 . S
C505 C506 1.334 . S
C506 H477 0.950 . S
C506 C505 1.334 . S
C506 C507 1.287 . S
C507 C506 1.287 . S
C507 C508 1.524 1_554 S
C507 H510 1.001 . S
C508 H478 0.950 . S
C508 C507 1.524 1_556 S
C508 C509 1.415 . S
C509 H479 0.950 . S
C509 C504 1.363 1_556 S
C509 C508 1.415 . S
H510 C507 1.001 . S
H511 C492 0.913 . S
H512 C530 0.951 . S
H513 C532 0.951 . S
H514 C534 0.950 . S
H515 C535 0.950 . S
H516 C537 0.950 . S
H517 C540 0.950 . S
H518 C541 0.950 . S
H519 C543 0.950 . S
H520 C544 0.950 . S
H521 C545 0.951 . S
H522 C547 0.951 . S
H523 C549 0.950 . S
H524 C550 0.950 . S
H525 C552 0.950 . S
H526 C555 0.950 . S
H527 C556 0.950 . S
H528 C558 0.950 . S
H529 C559 0.950 . S
C530 H512 0.951 . S
C530 C531 1.366 . S
C530 C532 1.388 . S
C531 C530 1.366 . S
C531 C535 1.385 . S
C532 H513 0.951 . S
C532 C530 1.388 . S
C532 C533 1.366 . S
C533 C532 1.366 . S
C533 C534 1.414 . S
C533 C536 1.499 . S
C534 H514 0.950 . S
C534 C533 1.414 . S
C534 C535 1.374 . S
C535 H515 0.950 . S
C535 C531 1.385 . S
C535 C534 1.374 . S
C536 C533 1.499 . S
C536 C537 1.373 . S
C536 C538 1.389 . S
C537 H516 0.950 . S
C537 C536 1.373 . S
C537 C553 1.377 . S
C538 C536 1.389 . S
C538 C539 1.524 . S
C538 C552 1.377 . S
C539 C538 1.524 . S
C539 C540 1.397 . S
C539 C544 1.363 . S
C540 H517 0.950 . S
C540 C539 1.397 . S
C540 C541 1.334 . S
C541 H518 0.950 . S
C541 C540 1.334 . S
C541 C542 1.287 . S
C542 C541 1.287 . S
C542 C543 1.524 . S
C542 H561 0.913 . S
C543 H519 0.950 . S
C543 C542 1.524 . S
C543 C544 1.415 . S
C544 H520 0.950 . S
C544 C539 1.363 . S
C544 C543 1.415 . S
C545 H521 0.951 . S
C545 C546 1.366 . S
C545 C547 1.388 . S
C546 C545 1.366 . S
C546 C550 1.385 . S
C547 H522 0.951 . S
C547 C545 1.388 . S
C547 C548 1.366 . S
C548 C547 1.366 . S
C548 C549 1.414 . S
C548 C551 1.499 . S
C549 H523 0.950 . S
C549 C548 1.414 . S
C549 C550 1.374 . S
C550 H524 0.950 . S
C550 C546 1.385 . S
C550 C549 1.374 . S
C551 C548 1.499 . S
C551 C552 1.373 . S
C551 C553 1.389 . S
C552 H525 0.950 . S
C552 C538 1.377 . S
C552 C551 1.373 . S
C553 C537 1.377 . S
C553 C551 1.389 . S
C553 C554 1.524 . S
C554 C553 1.524 . S
C554 C555 1.397 . S
C554 C559 1.363 . S
C555 H526 0.950 . S
C555 C554 1.397 . S
C555 C556 1.334 . S
C556 H527 0.950 . S
C556 C555 1.334 . S
C556 C557 1.287 . S
C557 C556 1.287 . S
C557 C558 1.524 . S
C557 H560 0.999 . S
C558 H528 0.950 . S
C558 C557 1.524 . S
C558 C559 1.415 . S
C559 H529 0.950 . S
C559 C554 1.363 . S
C559 C558 1.415 . S
H560 C557 0.999 . S
H561 C542 0.913 . S
H562 C580 0.951 . S
H563 C582 0.951 . S
H564 C584 0.950 . S
H565 C585 0.950 . S
H566 C587 0.950 . S
H567 C590 0.950 . S
H568 C591 0.950 . S
H569 C593 0.950 . S
H570 C594 0.950 . S
H571 C595 0.951 . S
H572 C597 0.951 . S
H573 C599 0.950 . S
H574 C600 0.950 . S
H575 C602 0.950 . S
H576 C605 0.950 . S
H577 C606 0.950 . S
H578 C608 0.950 . S
H579 C609 0.950 . S
C580 H562 0.951 . S
C580 C581 1.366 . S
C580 C582 1.388 . S
C581 C580 1.366 . S
C581 C585 1.385 . S
C582 H563 0.951 . S
C582 C580 1.388 . S
C582 C583 1.366 . S
C583 C582 1.366 . S
C583 C584 1.414 . S
C583 C586 1.499 . S
C584 H564 0.950 . S
C584 C583 1.414 . S
C584 C585 1.374 . S
C585 H565 0.950 . S
C585 C581 1.385 . S
C585 C584 1.374 . S
C586 C583 1.499 . S
C586 C587 1.373 . S
C586 C588 1.389 . S
C587 H566 0.950 . S
C587 C586 1.373 . S
C587 C603 1.377 . S
C588 C586 1.389 . S
C588 C589 1.524 . S
C588 C602 1.377 . S
C589 C588 1.524 . S
C589 C590 1.397 . S
C589 C594 1.363 . S
C590 H567 0.950 . S
C590 C589 1.397 . S
C590 C591 1.334 . S
C591 H568 0.950 . S
C591 C590 1.334 . S
C591 C592 1.287 . S
C592 C591 1.287 . S
C592 C593 1.524 . S
C592 H611 0.913 . S
C593 H569 0.950 . S
C593 C592 1.524 . S
C593 C594 1.415 . S
C594 H570 0.950 . S
C594 C589 1.363 . S
C594 C593 1.415 . S
C595 H571 0.951 . S
C595 C596 1.366 . S
C595 C597 1.388 . S
C596 C595 1.366 . S
C596 C600 1.385 . S
C597 H572 0.951 . S
C597 C595 1.388 . S
C597 C598 1.366 . S
C598 C597 1.366 . S
C598 C599 1.414 . S
C598 C601 1.499 . S
C599 H573 0.950 . S
C599 C598 1.414 . S
C599 C600 1.374 . S
C600 H574 0.950 . S
C600 C596 1.385 . S
C600 C599 1.374 . S
C601 C598 1.499 . S
C601 C602 1.373 . S
C601 C603 1.389 . S
C602 H575 0.950 . S
C602 C588 1.377 . S
C602 C601 1.373 . S
C603 C587 1.377 . S
C603 C601 1.389 . S
C603 C604 1.524 . S
C604 C603 1.524 . S
C604 C605 1.397 . S
C604 C609 1.363 . S
C605 H576 0.950 . S
C605 C604 1.397 . S
C605 C606 1.334 . S
C606 H577 0.950 . S
C606 C605 1.334 . S
C606 C607 1.287 . S
C607 C606 1.287 . S
C607 C608 1.524 . S
C607 H610 0.999 . S
C608 H578 0.950 . S
C608 C607 1.524 . S
C608 C609 1.415 . S
C609 H579 0.950 . S
C609 C604 1.363 . S
C609 C608 1.415 . S
H610 C607 0.999 . S
H611 C592 0.913 . S
H612 C630 0.951 . S
H613 C632 0.951 . S
H614 C634 0.950 . S
H615 C635 0.950 . S
H616 C637 0.950 . S
H617 C640 0.950 . S
H618 C641 0.950 . S
H619 C643 0.950 . S
H620 C644 0.950 . S
H621 C645 0.951 . S
H622 C647 0.951 . S
H623 C649 0.950 . S
H624 C650 0.950 . S
H625 C652 0.950 . S
H626 C655 0.950 . S
H627 C656 0.950 . S
H628 C658 0.950 . S
H629 C659 0.950 . S
C630 H612 0.951 . S
C630 C631 1.366 . S
C630 C632 1.388 . S
C631 C630 1.366 . S
C631 C635 1.385 . S
C632 H613 0.951 . S
C632 C630 1.388 . S
C632 C633 1.366 . S
C633 C632 1.366 . S
C633 C634 1.414 . S
C633 C636 1.499 . S
C634 H614 0.950 . S
C634 C633 1.414 . S
C634 C635 1.374 . S
C635 H615 0.950 . S
C635 C631 1.385 . S
C635 C634 1.374 . S
C636 C633 1.499 . S
C636 C637 1.373 . S
C636 C638 1.389 . S
C637 H616 0.950 . S
C637 C636 1.373 . S
C637 C653 1.377 . S
C638 C636 1.389 . S
C638 C639 1.524 . S
C638 C652 1.377 . S
C639 C638 1.524 . S
C639 C640 1.397 . S
C639 C644 1.363 . S
C640 H617 0.950 . S
C640 C639 1.397 . S
C640 C641 1.334 . S
C641 H618 0.950 . S
C641 C640 1.334 . S
C641 C642 1.287 . S
C642 C641 1.287 . S
C642 C643 1.524 . S
C642 H661 0.913 . S
C643 H619 0.950 . S
C643 C642 1.524 . S
C643 C644 1.415 . S
C644 H620 0.950 . S
C644 C639 1.363 . S
C644 C643 1.415 . S
C645 H621 0.951 . S
C645 C646 1.366 . S
C645 C647 1.388 . S
C646 C645 1.366 . S
C646 C650 1.385 . S
C647 H622 0.951 . S
C647 C645 1.388 . S
C647 C648 1.366 . S
C648 C647 1.366 . S
C648 C649 1.414 . S
C648 C651 1.499 . S
C649 H623 0.950 . S
C649 C648 1.414 . S
C649 C650 1.374 . S
C650 H624 0.950 . S
C650 C646 1.385 . S
C650 C649 1.374 . S
C651 C648 1.499 . S
C651 C652 1.373 . S
C651 C653 1.389 . S
C652 H625 0.950 . S
C652 C638 1.377 . S
C652 C651 1.373 . S
C653 C637 1.377 . S
C653 C651 1.389 . S
C653 C654 1.524 . S
C654 C653 1.524 . S
C654 C655 1.397 . S
C654 C659 1.363 . S
C655 H626 0.950 . S
C655 C654 1.397 . S
C655 C656 1.334 . S
C656 H627 0.950 . S
C656 C655 1.334 . S
C656 C657 1.287 . S
C657 C656 1.287 . S
C657 C658 1.524 . S
C657 H660 0.999 . S
C658 H628 0.950 . S
C658 C657 1.524 . S
C658 C659 1.415 . S
C659 H629 0.950 . S
C659 C654 1.363 . S
C659 C658 1.415 . S
H660 C657 0.999 . S
H661 C642 0.913 . S
H662 C680 0.951 . S
H663 C682 0.951 . S
H664 C684 0.950 . S
H665 C685 0.950 . S
H666 C687 0.950 . S
H667 C690 0.950 . S
H668 C691 0.950 . S
H669 C693 0.950 . S
H670 C694 0.950 . S
H671 C695 0.948 1_565 S
H672 C697 0.951 . S
H673 C699 0.950 . S
H674 C700 0.950 . S
H675 C702 0.950 . S
H676 C705 0.950 . S
H677 C706 0.950 . S
H678 C708 0.950 . S
H679 C709 0.950 . S
C680 H662 0.951 . S
C680 C681 1.366 . S
C680 C682 1.388 . S
C681 C680 1.366 . S
C681 C685 1.385 . S
C682 H663 0.951 . S
C682 C680 1.388 . S
C682 C683 1.366 . S
C683 C682 1.366 . S
C683 C684 1.414 . S
C683 C686 1.499 . S
C684 H664 0.950 . S
C684 C683 1.414 . S
C684 C685 1.374 . S
C685 H665 0.950 . S
C685 C681 1.385 . S
C685 C684 1.374 . S
C686 C683 1.499 . S
C686 C687 1.373 . S
C686 C688 1.389 . S
C687 H666 0.950 . S
C687 C686 1.373 . S
C687 C703 1.377 . S
C688 C686 1.389 . S
C688 C689 1.524 . S
C688 C702 1.377 . S
C689 C688 1.524 . S
C689 C690 1.397 . S
C689 C694 1.363 . S
C690 H667 0.950 . S
C690 C689 1.397 . S
C690 C691 1.334 . S
C691 H668 0.950 . S
C691 C690 1.334 . S
C691 C692 1.287 . S
C692 C691 1.287 . S
C692 C693 1.524 . S
C692 H711 0.913 . S
C693 H669 0.950 . S
C693 C692 1.524 . S
C693 C694 1.415 . S
C694 H670 0.950 . S
C694 C689 1.363 . S
C694 C693 1.415 . S
C695 H671 0.948 1_545 S
C695 C696 1.366 . S
C695 C697 1.388 . S
C696 C695 1.366 . S
C696 C700 1.385 . S
C697 H672 0.951 . S
C697 C695 1.388 . S
C697 C698 1.366 . S
C698 C697 1.366 . S
C698 C699 1.414 . S
C698 C701 1.499 . S
C699 H673 0.950 . S
C699 C698 1.414 . S
C699 C700 1.374 . S
C700 H674 0.950 . S
C700 C696 1.385 . S
C700 C699 1.374 . S
C701 C698 1.499 . S
C701 C702 1.373 . S
C701 C703 1.389 . S
C702 H675 0.950 . S
C702 C688 1.377 . S
C702 C701 1.373 . S
C703 C687 1.377 . S
C703 C701 1.389 . S
C703 C704 1.524 . S
C704 C703 1.524 . S
C704 C705 1.397 . S
C704 C709 1.363 . S
C705 H676 0.950 . S
C705 C704 1.397 . S
C705 C706 1.334 . S
C706 H677 0.950 . S
C706 C705 1.334 . S
C706 C707 1.287 . S
C707 C706 1.287 . S
C707 C708 1.524 . S
C707 H710 0.999 . S
C708 H678 0.950 . S
C708 C707 1.524 . S
C708 C709 1.415 . S
C709 H679 0.950 . S
C709 C704 1.363 . S
C709 C708 1.415 . S
H710 C707 0.999 . S
H711 C692 0.913 . S
H712 C730 0.951 . S
H713 C732 0.951 . S
H714 C734 0.950 . S
H715 C735 0.950 . S
H716 C737 0.950 . S
H717 C740 0.950 . S
H718 C741 0.950 . S
H719 C743 0.950 . S
H720 C744 0.950 . S
H721 C745 0.951 . S
H722 C747 0.951 . S
H723 C749 0.950 . S
H724 C750 0.950 . S
H725 C752 0.950 . S
H726 C755 0.950 . S
H727 C756 0.950 . S
H728 C758 0.950 . S
H729 C759 0.950 . S
C730 H712 0.951 . S
C730 C731 1.366 . S
C730 C732 1.388 . S
C731 C730 1.366 . S
C731 C735 1.385 . S
C732 H713 0.951 . S
C732 C730 1.388 . S
C732 C733 1.366 . S
C733 C732 1.366 . S
C733 C734 1.414 . S
C733 C736 1.499 . S
C734 H714 0.950 . S
C734 C733 1.414 . S
C734 C735 1.374 . S
C735 H715 0.950 . S
C735 C731 1.385 . S
C735 C734 1.374 . S
C736 C733 1.499 . S
C736 C737 1.373 . S
C736 C738 1.389 . S
C737 H716 0.950 . S
C737 C736 1.373 . S
C737 C753 1.377 . S
C738 C736 1.389 . S
C738 C739 1.524 . S
C738 C752 1.377 . S
C739 C738 1.524 . S
C739 C740 1.397 . S
C739 C744 1.363 . S
C740 H717 0.950 . S
C740 C739 1.397 . S
C740 C741 1.334 . S
C741 H718 0.950 . S
C741 C740 1.334 . S
C741 C742 1.287 . S
C742 C741 1.287 . S
C742 C743 1.524 . S
C742 H761 0.913 . S
C743 H719 0.950 . S
C743 C742 1.524 . S
C743 C744 1.415 . S
C744 H720 0.950 . S
C744 C739 1.363 . S
C744 C743 1.415 . S
C745 H721 0.951 . S
C745 C746 1.366 . S
C745 C747 1.388 . S
C746 C745 1.366 . S
C746 C750 1.385 . S
C747 H722 0.951 . S
C747 C745 1.388 . S
C747 C748 1.366 . S
C748 C747 1.366 . S
C748 C749 1.414 . S
C748 C751 1.499 . S
C749 H723 0.950 . S
C749 C748 1.414 . S
C749 C750 1.374 . S
C750 H724 0.950 . S
C750 C746 1.385 . S
C750 C749 1.374 . S
C751 C748 1.499 . S
C751 C752 1.373 . S
C751 C753 1.389 . S
C752 H725 0.950 . S
C752 C738 1.377 . S
C752 C751 1.373 . S
C753 C737 1.377 . S
C753 C751 1.389 . S
C753 C754 1.524 . S
C754 C753 1.524 . S
C754 C755 1.397 . S
C754 C759 1.363 . S
C755 H726 0.950 . S
C755 C754 1.397 . S
C755 C756 1.334 . S
C756 H727 0.950 . S
C756 C755 1.334 . S
C756 C757 1.287 . S
C757 C756 1.287 . S
C757 C758 1.524 . S
C757 H760 0.999 . S
C758 H728 0.950 . S
C758 C757 1.524 . S
C758 C759 1.415 . S
C759 H729 0.950 . S
C759 C754 1.363 . S
C759 C758 1.415 . S
H760 C757 0.999 . S
H761 C742 0.913 . S
H762 C780 0.951 . S
H763 C782 0.951 . S
H764 C784 0.950 . S
H765 C785 0.950 . S
H766 C787 0.950 . S
H767 C790 0.950 . S
H768 C791 0.950 . S
H769 C793 0.950 . S
H770 C794 0.950 . S
H771 C795 0.951 . S
H772 C797 0.951 . S
H773 C799 0.950 . S
H774 C800 0.950 . S
H775 C802 0.950 . S
H776 C805 0.950 . S
H777 C806 0.950 . S
H778 C808 0.950 . S
H779 C809 0.950 . S
C780 H762 0.951 . S
C780 C781 1.366 . S
C780 C782 1.388 . S
C781 C780 1.366 . S
C781 C785 1.385 . S
C782 H763 0.951 . S
C782 C780 1.388 . S
C782 C783 1.366 . S
C783 C782 1.366 . S
C783 C784 1.414 . S
C783 C786 1.499 . S
C784 H764 0.950 . S
C784 C783 1.414 . S
C784 C785 1.374 . S
C785 H765 0.950 . S
C785 C781 1.385 . S
C785 C784 1.374 . S
C786 C783 1.499 . S
C786 C787 1.373 . S
C786 C788 1.389 . S
C787 H766 0.950 . S
C787 C786 1.373 . S
C787 C803 1.377 . S
C788 C786 1.389 . S
C788 C789 1.524 . S
C788 C802 1.377 . S
C789 C788 1.524 . S
C789 C790 1.397 . S
C789 C794 1.363 . S
C790 H767 0.950 . S
C790 C789 1.397 . S
C790 C791 1.334 . S
C791 H768 0.950 . S
C791 C790 1.334 . S
C791 C792 1.287 . S
C792 C791 1.287 . S
C792 C793 1.524 . S
C792 H811 0.913 . S
C793 H769 0.950 . S
C793 C792 1.524 . S
C793 C794 1.415 . S
C794 H770 0.950 . S
C794 C789 1.363 . S
C794 C793 1.415 . S
C795 H771 0.951 . S
C795 C796 1.366 . S
C795 C797 1.388 . S
C796 C795 1.366 . S
C796 C800 1.385 . S
C797 H772 0.951 . S
C797 C795 1.388 . S
C797 C798 1.366 . S
C798 C797 1.366 . S
C798 C799 1.414 . S
C798 C801 1.499 . S
C799 H773 0.950 . S
C799 C798 1.414 . S
C799 C800 1.374 . S
C800 H774 0.950 . S
C800 C796 1.385 . S
C800 C799 1.374 . S
C801 C798 1.499 . S
C801 C802 1.373 . S
C801 C803 1.389 . S
C802 H775 0.950 . S
C802 C788 1.377 . S
C802 C801 1.373 . S
C803 C787 1.377 . S
C803 C801 1.389 . S
C803 C804 1.524 . S
C804 C803 1.524 . S
C804 C805 1.397 . S
C804 C809 1.363 . S
C805 H776 0.950 . S
C805 C804 1.397 . S
C805 C806 1.334 . S
C806 H777 0.950 . S
C806 C805 1.334 . S
C806 C807 1.287 . S
C807 C806 1.287 . S
C807 C808 1.524 . S
C807 H810 0.999 . S
C808 H778 0.950 . S
C808 C807 1.524 . S
C808 C809 1.415 . S
C809 H779 0.950 . S
C809 C804 1.363 . S
C809 C808 1.415 . S
H810 C807 0.999 . S
H811 C792 0.913 . S
H812 C830 0.951 . S
H813 C832 0.951 . S
H814 C834 0.950 . S
H815 C835 0.950 . S
H816 C837 0.950 . S
H817 C840 0.950 . S
H818 C841 0.950 . S
H819 C843 0.950 . S
H820 C844 0.950 . S
H821 C845 0.951 . S
H822 C847 0.951 . S
H823 C849 0.950 . S
H824 C850 0.950 . S
H825 C852 0.950 . S
H826 C855 0.950 . S
H827 C856 0.950 . S
H828 C858 0.950 . S
H829 C859 0.950 . S
C830 H812 0.951 . S
C830 C831 1.366 . S
C830 C832 1.388 . S
C831 C830 1.366 . S
C831 C835 1.385 . S
C832 H813 0.951 . S
C832 C830 1.388 . S
C832 C833 1.366 . S
C833 C832 1.366 . S
C833 C834 1.414 . S
C833 C836 1.499 . S
C834 H814 0.950 . S
C834 C833 1.414 . S
C834 C835 1.374 . S
C835 H815 0.950 . S
C835 C831 1.385 . S
C835 C834 1.374 . S
C836 C833 1.499 . S
C836 C837 1.373 . S
C836 C838 1.389 . S
C837 H816 0.950 . S
C837 C836 1.373 . S
C837 C853 1.377 . S
C838 C836 1.389 . S
C838 C839 1.524 . S
C838 C852 1.377 . S
C839 C838 1.524 . S
C839 C840 1.397 . S
C839 C844 1.363 . S
C840 H817 0.950 . S
C840 C839 1.397 . S
C840 C841 1.334 . S
C841 H818 0.950 . S
C841 C840 1.334 . S
C841 C842 1.287 . S
C842 C841 1.287 . S
C842 C843 1.524 . S
C842 H861 0.913 . S
C843 H819 0.950 . S
C843 C842 1.524 . S
C843 C844 1.415 . S
C844 H820 0.950 . S
C844 C839 1.363 . S
C844 C843 1.415 . S
C845 H821 0.951 . S
C845 C846 1.366 . S
C845 C847 1.388 . S
C846 C845 1.366 . S
C846 C850 1.385 . S
C847 H822 0.951 . S
C847 C845 1.388 . S
C847 C848 1.366 . S
C848 C847 1.366 . S
C848 C849 1.414 . S
C848 C851 1.499 . S
C849 H823 0.950 . S
C849 C848 1.414 . S
C849 C850 1.374 . S
C850 H824 0.950 . S
C850 C846 1.385 . S
C850 C849 1.374 . S
C851 C848 1.499 . S
C851 C852 1.373 . S
C851 C853 1.389 . S
C852 H825 0.950 . S
C852 C838 1.377 . S
C852 C851 1.373 . S
C853 C837 1.377 . S
C853 C851 1.389 . S
C853 C854 1.524 . S
C854 C853 1.524 . S
C854 C855 1.397 . S
C854 C859 1.363 . S
C855 H826 0.950 . S
C855 C854 1.397 . S
C855 C856 1.334 . S
C856 H827 0.950 . S
C856 C855 1.334 . S
C856 C857 1.287 . S
C857 C856 1.287 . S
C857 C858 1.524 . S
C857 H860 0.999 . S
C858 H828 0.950 . S
C858 C857 1.524 . S
C858 C859 1.415 . S
C859 H829 0.950 . S
C859 C854 1.363 . S
C859 C858 1.415 . S
H860 C857 0.999 . S
H861 C842 0.913 . S
H862 C880 0.951 . S
H863 C882 0.951 . S
H864 C884 0.950 . S
H865 C885 0.950 . S
H866 C887 0.950 . S
H867 C890 0.950 . S
H868 C891 0.950 . S
H869 C893 0.950 . S
H870 C894 0.950 . S
H871 C895 0.951 . S
H872 C897 0.951 . S
H873 C899 0.950 . S
H874 C900 0.950 . S
H875 C902 0.950 . S
H876 C905 0.950 . S
H877 C906 0.950 . S
H878 C908 0.950 . S
H879 C909 0.950 . S
C880 H862 0.951 . S
C880 C881 1.366 . S
C880 C882 1.388 . S
C881 C880 1.366 . S
C881 C885 1.385 . S
C882 H863 0.951 . S
C882 C880 1.388 . S
C882 C883 1.366 . S
C883 C882 1.366 . S
C883 C884 1.414 . S
C883 C886 1.499 . S
C884 H864 0.950 . S
C884 C883 1.414 . S
C884 C885 1.374 . S
C885 H865 0.950 . S
C885 C881 1.385 . S
C885 C884 1.374 . S
C886 C883 1.499 . S
C886 C887 1.373 . S
C886 C888 1.389 . S
C887 H866 0.950 . S
C887 C886 1.373 . S
C887 C903 1.377 . S
C888 C886 1.389 . S
C888 C889 1.524 . S
C888 C902 1.377 . S
C889 C888 1.524 . S
C889 C890 1.397 . S
C889 C894 1.363 . S
C890 H867 0.950 . S
C890 C889 1.397 . S
C890 C891 1.334 . S
C891 H868 0.950 . S
C891 C890 1.334 . S
C891 C892 1.287 . S
C892 C891 1.287 . S
C892 C893 1.524 . S
C892 H911 0.913 . S
C893 H869 0.950 . S
C893 C892 1.524 . S
C893 C894 1.415 . S
C894 H870 0.950 . S
C894 C889 1.363 . S
C894 C893 1.415 . S
C895 H871 0.951 . S
C895 C896 1.366 . S
C895 C897 1.388 . S
C896 C895 1.366 . S
C896 C900 1.385 . S
C897 H872 0.951 . S
C897 C895 1.388 . S
C897 C898 1.366 . S
C898 C897 1.366 . S
C898 C899 1.414 . S
C898 C901 1.499 . S
C899 H873 0.950 . S
C899 C898 1.414 . S
C899 C900 1.374 . S
C900 H874 0.950 . S
C900 C896 1.385 . S
C900 C899 1.374 . S
C901 C898 1.499 . S
C901 C902 1.373 . S
C901 C903 1.389 . S
C902 H875 0.950 . S
C902 C888 1.377 . S
C902 C901 1.373 . S
C903 C887 1.377 . S
C903 C901 1.389 . S
C903 C904 1.524 . S
C904 C903 1.524 . S
C904 C905 1.397 . S
C904 C909 1.363 . S
C905 H876 0.950 . S
C905 C904 1.397 . S
C905 C906 1.334 . S
C906 H877 0.950 . S
C906 C905 1.334 . S
C906 C907 1.287 . S
C907 C906 1.287 . S
C907 C908 1.524 . S
C907 H910 0.999 . S
C908 H878 0.950 . S
C908 C907 1.524 . S
C908 C909 1.415 . S
C909 H879 0.950 . S
C909 C904 1.363 . S
C909 C908 1.415 . S
H910 C907 0.999 . S
H911 C892 0.913 . S
C131 C4 0.329 . S
C146 C32 0.326 . S
C181 C18 0.327 . S
C196 C46 0.329 . S
C231 C60 0.327 . S
C246 C88 0.330 . S
C281 C74 0.327 . S
C296 C102 0.329 . S
C331 C12 1.491 . S
C346 C82 1.491 . S
C381 C26 1.491 . S
C396 C96 1.491 . S
C431 C110 1.491 . S
C446 C40 1.490 . S
C481 C54 1.490 . S
C496 C68 1.491 . S
C531 C61 1.398 . S
C546 C11 1.438 . S
C581 C25 1.439 . S
C596 C75 1.397 1_565 S
C631 C39 1.439 . S
C646 C89 1.397 . S
C681 C53 1.439 . S
C696 C103 1.396 1_545 S
C731 C5 1.398 1_655 S
C746 C67 1.438 . S
C781 C81 1.439 . S
C796 C19 1.398 . S
C831 C95 1.439 . S
C846 C33 1.396 1_455 S
C881 C47 1.398 . S
C896 C109 1.438 . S
