# Generated by pormake.
# Topology unc, (4)-cn, num edge types: 1
# Building blocks:
#     Node 0, Type 0, BuildingBlock: UXUYUI_clean_sbu_0, # of connection points: 4
#     Node 1, Type 0, BuildingBlock: UXUYUI_clean_sbu_0, # of connection points: 4
#     Node 2, Type 0, BuildingBlock: UXUYUI_clean_sbu_0, # of connection points: 4
#     Node 3, Type 0, BuildingBlock: UXUYUI_clean_sbu_0, # of connection points: 4
#     Edge 4, Type (0, 0), BuildingBlock: UVAHIK_clean_linker_0, # of connection points: 2
#     Edge 5, Type (0, 0), BuildingBlock: UVAHIK_clean_linker_0, # of connection points: 2
#     Edge 6, Type (0, 0), BuildingBlock: UVAHIK_clean_linker_0, # of connection points: 2
#     Edge 7, Type (0, 0), BuildingBlock: UVAHIK_clean_linker_0, # of connection points: 2
#     Edge 8, Type (0, 0), BuildingBlock: UVAHIK_clean_linker_0, # of connection points: 2
#     Edge 9, Type (0, 0), BuildingBlock: UVAHIK_clean_linker_0, # of connection points: 2
#     Edge 10, Type (0, 0), BuildingBlock: UVAHIK_clean_linker_0, # of connection points: 2
#     Edge 11, Type (0, 0), BuildingBlock: UVAHIK_clean_linker_0, # of connection points: 2
# Relax obj value: 0.184
# Max RMSD: 0.213
# Mean RMSD: 0.213
data_MOF--net-unc--node1-UXUYUI_clean_sbu_0--edge1-UVAHIK_clean_linker_0
_symmetry_space_group_name_H-M    P1
_symmetry_Int_Tables_number       1
_symmetry_cell_setting            triclinic
loop_
_symmetry_equiv_pos_as_xyz
'x, y, z'
_cell_length_a     51.665756
_cell_length_b     51.660387
_cell_length_c     39.016775
_cell_angle_alpha  90.007334
_cell_angle_beta   90.01242
_cell_angle_gamma 90.016182
loop_
_atom_site_label
_atom_site_type_symbol
_atom_site_fract_x
_atom_site_fract_y
_atom_site_fract_z
_atom_type_partial_charge
Li0 Li 0.01741 0.67862 0.00106 0.0
Li1 Li 0.98662 0.64714 0.02377 0.0
Li2 Li 0.00707 0.64098 0.96783 0.0
Li3 Li 0.9741 0.67402 0.97695 0.0
C4 C 0.04079 0.62233 0.01294 0.0
N5 N 0.07445 0.58084 0.0099 0.0
C6 C 0.03537 0.59965 0.03113 0.0
C7 C 0.06341 0.62397 0.99341 0.0
C8 C 0.05263 0.57888 0.02923 0.0
C9 C 0.08014 0.60276 0.99211 0.0
C10 C 0.97581 0.69071 0.05577 0.0
C11 C 0.94295 0.68986 0.09965 0.0
N12 N 0.96033 0.69948 0.12254 0.0
C13 C 0.99331 0.70071 0.07967 0.0
C14 C 0.95037 0.68537 0.06575 0.0
C15 C 0.98512 0.70498 0.11332 0.0
C16 C 0.03984 0.72803 0.01041 0.0
N17 N 0.04382 0.70213 0.01354 0.0
C18 C 0.08551 0.7092 0.03808 0.0
C19 C 0.06604 0.6925 0.02709 0.0
C20 C 0.08201 0.73604 0.03508 0.0
C21 C 0.05893 0.74546 0.02078 0.0
H22 H 0.02167 0.73512 0.00038 0.0
H23 H 0.06846 0.67186 0.02993 0.0
C24 C 0.95632 0.61259 0.06338 0.0
N25 N 0.97616 0.62984 0.06407 0.0
C26 C 0.95027 0.59822 0.0926 0.0
C27 C 0.98474 0.62028 0.12275 0.0
C28 C 0.99029 0.63395 0.0929 0.0
C29 C 0.96485 0.60171 0.12269 0.0
H30 H 0.94573 0.60941 0.03985 0.0
H31 H 0.00627 0.64746 0.09242 0.0
C32 C 0.02117 0.69684 0.93824 0.0
N33 N 0.04977 0.73774 0.91281 0.0
C34 C 0.00917 0.7205 0.93121 0.0
C35 C 0.04766 0.6939 0.93208 0.0
C36 C 0.02398 0.74096 0.91839 0.0
C37 C 0.0618 0.71484 0.91932 0.0
C38 C 0.94807 0.63144 0.96334 0.0
C39 C 0.94894 0.62182 0.92988 0.0
C40 C 0.9242 0.63729 0.97831 0.0
C41 C 0.92585 0.61847 0.91178 0.0
C42 C 0.90155 0.63372 0.95933 0.0
N43 N 0.90284 0.62447 0.92674 0.0
C44 C 0.01881 0.5907 0.94476 0.0
C45 C 0.02938 0.62432 0.90588 0.0
C46 C 0.02808 0.57211 0.92197 0.0
N47 N 0.01991 0.61621 0.93651 0.0
C48 C 0.03836 0.60636 0.882 0.0
C49 C 0.03781 0.57979 0.88987 0.0
H50 H 0.01066 0.58481 0.96905 0.0
H51 H 0.0295 0.64472 0.89974 0.0
C52 C 0.93299 0.70956 0.97524 0.0
N53 N 0.94659 0.69231 0.95616 0.0
C54 C 0.9133 0.72412 0.96028 0.0
C55 C 0.92189 0.70272 0.90633 0.0
C56 C 0.9416 0.68876 0.92229 0.0
C57 C 0.90753 0.72085 0.92533 0.0
H58 H 0.93778 0.71239 0.00192 0.0
H59 H 0.9531 0.67521 0.90765 0.0
O60 O 0.02402 0.6428 0.01422 0.0
O61 O 0.98354 0.68608 0.02281 0.0
O62 O 0.0071 0.67669 0.95124 0.0
O63 O 0.97047 0.63521 0.98131 0.0
H64 H 0.01794 0.59798 0.0463 0.0
H65 H 0.06785 0.64135 0.9791 0.0
H66 H 0.04863 0.56117 0.04304 0.0
H67 H 0.09763 0.6037 0.97692 0.0
H68 H 0.92338 0.68564 0.10779 0.0
H69 H 0.01308 0.70492 0.07243 0.0
H70 H 0.93661 0.67754 0.04759 0.0
H71 H -0.00151 0.71259 0.13213 0.0
H72 H 0.10309 0.70122 0.0489 0.0
H73 H 0.05539 0.76606 0.01856 0.0
H74 H 0.93506 0.58384 0.0912 0.0
H75 H 0.99626 0.62389 0.14544 0.0
H76 H 0.98871 0.72313 0.9359 0.0
H77 H 0.05723 0.67572 0.9374 0.0
H78 H 0.01499 0.75942 0.91299 0.0
H79 H 0.08234 0.7129 0.91464 0.0
H80 H 0.96725 0.61721 0.91791 0.0
H81 H 0.92322 0.64479 0.00417 0.0
H82 H 0.92622 0.61117 0.8858 0.0
H83 H 0.88296 0.63835 0.9705 0.0
H84 H 0.02751 0.55195 0.92948 0.0
H85 H 0.04503 0.61326 0.85733 0.0
H86 H 0.90319 0.73827 0.97577 0.0
H87 H 0.91801 0.69939 0.87942 0.0
Li88 Li 0.35073 0.98505 0.27631 0.0
Li89 Li 0.31968 0.01901 0.26265 0.0
Li90 Li 0.31753 0.97635 0.23232 0.0
Li91 Li 0.35087 0.00819 0.21938 0.0
C92 C 0.30292 0.96702 0.30539 0.0
N93 N 0.28376 0.93242 0.35311 0.0
C94 C 0.28939 0.976 0.33405 0.0
C95 C 0.30635 0.94042 0.30078 0.0
C96 C 0.27996 0.95821 0.35796 0.0
C97 C 0.2966 0.92325 0.32523 0.0
C98 C 0.36155 0.04426 0.28438 0.0
C99 C 0.36303 0.09084 0.28807 0.0
N100 N 0.36753 0.08903 0.32233 0.0
C101 C 0.36647 0.04285 0.31956 0.0
C102 C 0.36008 0.06843 0.26842 0.0
C103 C 0.36934 0.06571 0.33832 0.0
C104 C 0.39588 0.96309 0.3047 0.0
N105 N 0.37134 0.97088 0.3118 0.0
C106 C 0.37702 0.96123 0.3711 0.0
C107 C 0.36175 0.97012 0.34419 0.0
C108 C 0.40266 0.95354 0.36481 0.0
C109 C 0.41197 0.95422 0.33097 0.0
H110 H 0.40311 0.96431 0.27873 0.0
H111 H 0.34251 0.97718 0.34941 0.0
C112 C 0.2845 0.06083 0.26292 0.0
N113 N 0.29985 0.04569 0.28284 0.0
C114 C 0.2692 0.08001 0.27778 0.0
C115 C 0.28577 0.0676 0.33337 0.0
C116 C 0.30076 0.04868 0.31741 0.0
C117 C 0.2696 0.08346 0.31349 0.0
H118 H 0.28376 0.05772 0.23558 0.0
H119 H 0.31296 0.03615 0.33263 0.0
C120 C 0.36324 0.94662 0.21931 0.0
N121 N 0.37949 0.89799 0.19886 0.0
C122 C 0.37118 0.94234 0.18552 0.0
C123 C 0.3642 0.92625 0.24287 0.0
C124 C 0.37913 0.9176 0.17562 0.0
C125 C 0.37231 0.9018 0.23201 0.0
C126 C 0.30885 0.02415 0.18327 0.0
C127 C 0.29687 0.01125 0.15605 0.0
C128 C 0.3169 0.04978 0.17904 0.0
C129 C 0.29357 0.02408 0.12483 0.0
C130 C 0.31328 0.06194 0.14742 0.0
N131 N 0.30182 0.04894 0.12118 0.0
C132 C 0.27321 0.94433 0.22769 0.0
C133 C 0.30257 0.94117 0.1812 0.0
C134 C 0.25694 0.92603 0.21262 0.0
N135 N 0.29572 0.95116 0.21211 0.0
C136 C 0.28676 0.92304 0.16501 0.0
C137 C 0.26369 0.91519 0.18087 0.0
H138 H 0.26771 0.95328 0.25163 0.0
H139 H 0.32003 0.94773 0.16873 0.0
C140 C 0.39187 0.03658 0.18795 0.0
N141 N 0.37163 0.02021 0.18283 0.0
C142 C 0.40746 0.04402 0.16036 0.0
C143 C 0.38051 0.01816 0.12297 0.0
C144 C 0.36575 0.01101 0.15119 0.0
C145 C 0.40201 0.03447 0.12738 0.0
H146 H 0.39621 0.04341 0.21352 0.0
H147 H 0.34972 -0.00219 0.14795 0.0
O148 O 0.31247 0.98427 0.28191 0.0
O149 O 0.35835 0.02209 0.26566 0.0
O150 O 0.35562 0.97084 0.22949 0.0
O151 O 0.31254 0.01175 0.21389 0.0
H152 H 0.28626 0.99648 0.33789 0.0
H153 H 0.31595 0.93308 0.27825 0.0
H154 H 0.2696 0.96492 0.38036 0.0
H155 H 0.29913 0.90261 0.32193 0.0
H156 H 0.36179 0.10968 0.27607 0.0
H157 H 0.36783 0.02434 0.33231 0.0
H158 H 0.35673 0.06988 0.24116 0.0
H159 H 0.37296 0.0649 0.36561 0.0
H160 H 0.36894 0.96083 0.39671 0.0
H161 H 0.43173 0.94889 0.32502 0.0
H162 H 0.25665 0.09152 0.26159 0.0
H163 H 0.28679 0.06974 0.36095 0.0
H164 H 0.37106 0.95788 0.16703 0.0
H165 H 0.35911 0.92928 0.2694 0.0
H166 H 0.38508 0.914 0.14946 0.0
H167 H 0.37303 0.88587 0.24999 0.0
H168 H 0.2902 0.99154 0.15895 0.0
H169 H 0.32599 0.06012 0.19987 0.0
H170 H 0.28445 0.01428 0.10351 0.0
H171 H 0.3196 0.08171 0.14375 0.0
H172 H 0.23902 0.92083 0.22527 0.0
H173 H 0.29255 0.91518 0.14044 0.0
H174 H 0.424 0.05641 0.16498 0.0
H175 H 0.37526 0.0107 0.09798 0.0
Li176 Li 0.00983 0.35253 0.52639 0.0
Li177 Li 0.97604 0.32127 0.51292 0.0
Li178 Li 0.01844 0.31883 0.4859 0.0
Li179 Li 0.98776 0.35266 0.47108 0.0
C180 C 0.02362 0.29376 0.54392 0.0
N181 N 0.05198 0.24977 0.55849 0.0
C182 C 0.01128 0.26974 0.54638 0.0
C183 C 0.05035 0.29543 0.54909 0.0
C184 C 0.02597 0.24773 0.55376 0.0
C185 C 0.06435 0.27296 0.55632 0.0
C186 C 0.95115 0.36217 0.53568 0.0
C187 C 0.90479 0.35924 0.54177 0.0
N188 N 0.90707 0.3655 0.5755 0.0
C189 C 0.95304 0.36869 0.57036 0.0
C190 C 0.92684 0.35755 0.52118 0.0
C191 C 0.93052 0.37024 0.59007 0.0
C192 C 0.02125 0.39954 0.55966 0.0
N193 N 0.02379 0.3734 0.56166 0.0
C194 C 0.04479 0.37679 0.61595 0.0
C195 C 0.03526 0.36184 0.589 0.0
C196 C 0.04252 0.40384 0.61453 0.0
C197 C 0.03081 0.41526 0.58581 0.0
H198 H 0.01145 0.40812 0.53797 0.0
H199 H 0.03659 0.341 0.59017 0.0
C200 C 0.93378 0.28652 0.51205 0.0
N201 N 0.94908 0.30142 0.53233 0.0
C202 C 0.91461 0.27102 0.5266 0.0
C203 C 0.92722 0.28676 0.58256 0.0
C204 C 0.94631 0.30173 0.56695 0.0
C205 C 0.91119 0.27093 0.56237 0.0
H206 H 0.9368 0.2863 0.48465 0.0
H207 H 0.9591 0.31349 0.58241 0.0
C208 C 0.04211 0.37596 0.48467 0.0
N209 N 0.07516 0.41713 0.49618 0.0
C210 C 0.03591 0.40059 0.47231 0.0
C211 C 0.06518 0.37226 0.50277 0.0
C212 C 0.05288 0.42115 0.47839 0.0
C213 C 0.0816 0.39333 0.50839 0.0
C214 C 0.97539 0.31376 0.43155 0.0
C215 C 0.99256 0.30783 0.40502 0.0
C216 C 0.9496 0.31962 0.42396 0.0
C217 C 0.98366 0.30803 0.37121 0.0
C218 C 0.94147 0.31966 0.38981 0.0
N219 N 0.95852 0.31392 0.36436 0.0
C220 C 0.03817 0.27055 0.4655 0.0
C221 C 0.06757 0.30557 0.45995 0.0
C222 C 0.05693 0.25316 0.45412 0.0
N223 N 0.04394 0.2961 0.46863 0.0
C224 C 0.08687 0.28891 0.4483 0.0
C225 C 0.08169 0.26231 0.4455 0.0
H226 H 0.01903 0.2637 0.4721 0.0
H227 H 0.07147 0.32602 0.4622 0.0
C228 C 0.95561 0.39002 0.43903 0.0
N229 N 0.97648 0.3743 0.43505 0.0
C230 C 0.94931 0.408 0.41366 0.0
C231 C 0.98572 0.39268 0.38037 0.0
C232 C 0.99128 0.37504 0.40632 0.0
C233 C 0.96486 0.40985 0.38424 0.0
H234 H 0.94445 0.38927 0.46242 0.0
H235 H 0.00797 0.36251 0.40417 0.0
O236 O 0.00968 0.31546 0.53604 0.0
O237 O 0.973 0.36017 0.51608 0.0
O238 O 0.02561 0.35562 0.47933 0.0
O239 O 0.98382 0.31407 0.46477 0.0
H240 H 0.99065 0.26804 0.5423 0.0
H241 H 0.06022 0.31383 0.54705 0.0
H242 H 0.0167 0.229 0.55559 0.0
H243 H 0.08507 0.27394 0.56011 0.0
H244 H 0.88587 0.35551 0.53095 0.0
H245 H 0.97169 0.37228 0.58203 0.0
H246 H 0.92506 0.35234 0.49443 0.0
H247 H 0.93169 0.37515 0.61698 0.0
H248 H 0.05364 0.36734 0.63778 0.0
H249 H 0.02829 0.43604 0.58416 0.0
H250 H 0.90307 0.25875 0.51008 0.0
H251 H 0.92512 0.28756 0.61015 0.0
H252 H 0.01808 0.40392 0.45851 0.0
H253 H 0.07016 0.35341 0.51286 0.0
H254 H 0.04828 0.44033 0.46909 0.0
H255 H 0.09941 0.39077 0.52256 0.0
H256 H 0.0126 0.30335 0.41042 0.0
H257 H 0.9361 0.32438 0.44418 0.0
H258 H 0.99675 0.30359 0.35039 0.0
H259 H 0.92162 0.32432 0.38353 0.0
H260 H 0.05205 0.23285 0.45178 0.0
H261 H 0.10575 0.29671 0.44207 0.0
H262 H 0.93326 0.42111 0.41777 0.0
H263 H -0.00197 0.39333 0.35791 0.0
Li264 Li 0.64228 0.00623 0.77253 0.0
Li265 Li 0.67495 0.97627 0.75821 0.0
Li266 Li 0.67586 0.01985 0.73526 0.0
Li267 Li 0.64299 0.98838 0.71635 0.0
C268 C 0.68434 0.00383 0.8174 0.0
N269 N 0.69447 0.99256 0.88533 0.0
C270 C 0.66901 0.98591 0.83499 0.0
C271 C 0.70483 0.01599 0.83436 0.0
C272 C 0.67444 0.98049 0.86932 0.0
C273 C 0.70963 0.01005 0.86871 0.0
C274 C 0.63211 0.94435 0.75248 0.0
C275 C 0.64074 0.90539 0.72036 0.0
N276 N 0.6215 0.89312 0.73772 0.0
C277 C 0.6124 0.93136 0.76995 0.0
C278 C 0.6464 0.93129 0.72741 0.0
C279 C 0.60734 0.90545 0.76215 0.0
C280 C 0.59412 0.00814 0.8029 0.0
N281 N 0.6186 0.01725 0.80656 0.0
C282 C 0.6066 0.04099 0.85661 0.0
C283 C 0.62513 0.03362 0.83245 0.0
C284 C 0.58116 0.03155 0.85377 0.0
C285 C 0.57497 0.0152 0.82616 0.0
H286 H 0.5895 0.99548 0.78168 0.0
H287 H 0.6447 0.04089 0.83437 0.0
C288 C 0.72132 0.94883 0.76275 0.0
N289 N 0.69641 0.94905 0.77383 0.0
C290 C 0.73808 0.92915 0.77306 0.0
C291 C 0.70314 0.91033 0.80595 0.0
C292 C 0.68715 0.93049 0.79524 0.0
C293 C 0.72901 0.90945 0.79484 0.0
H294 H 0.72814 0.96404 0.74596 0.0
H295 H 0.66732 0.93123 0.80394 0.0
C296 C 0.62315 0.0453 0.73845 0.0
N297 N 0.59178 0.08513 0.76093 0.0
C298 C 0.59697 0.0458 0.72947 0.0
C299 C 0.63343 0.06516 0.75864 0.0
C300 C 0.58142 0.06608 0.74116 0.0
C301 C 0.61724 0.0851 0.7698 0.0
C302 C 0.68891 0.99149 0.6772 0.0
C303 C 0.67671 0.01097 0.65826 0.0
C304 C 0.70907 0.97734 0.66244 0.0
C305 C 0.68488 0.01589 0.62476 0.0
C306 C 0.71665 0.98283 0.62885 0.0
N307 N 0.70451 0.00184 0.61087 0.0
C308 C 0.7234 0.04483 0.72776 0.0
C309 C 0.68783 0.06765 0.70404 0.0
C310 C 0.74046 0.06409 0.7169 0.0
N311 N 0.6977 0.047 0.72116 0.0
C312 C 0.70413 0.08745 0.69295 0.0
C313 C 0.73087 0.08578 0.69921 0.0
H314 H 0.73063 0.02797 0.74113 0.0
H315 H 0.66731 0.06867 0.69878 0.0
C316 C 0.59553 0.9764 0.68941 0.0
N317 N 0.62102 0.976 0.68103 0.0
C318 C 0.577 0.96768 0.66622 0.0
C319 C 0.61135 0.95757 0.62635 0.0
C320 C 0.62928 0.96624 0.65056 0.0
C321 C 0.58477 0.9585 0.63391 0.0
H322 H 0.58965 0.98337 0.71435 0.0
H323 H 0.64969 0.96509 0.64491 0.0
O324 O 0.67963 0.00946 0.7837 0.0
O325 O 0.63702 0.96978 0.75986 0.0
O326 O 0.63858 0.02527 0.72805 0.0
O327 O 0.68165 0.9865 0.71026 0.0
H328 H 0.65303 0.97632 0.82241 0.0
H329 H 0.7169 0.02987 0.82107 0.0
H330 H 0.66272 0.96668 0.88323 0.0
H331 H 0.72543 0.01932 0.88215 0.0
H332 H 0.65165 0.89506 0.70105 0.0
H333 H 0.60113 0.94123 0.78935 0.0
H334 H 0.6617 0.94095 0.71354 0.0
H335 H 0.59215 0.89516 0.7755 0.0
H336 H 0.61228 0.05348 0.87759 0.0
H337 H 0.55551 0.00794 0.82247 0.0
H338 H 0.75797 0.92954 0.76436 0.0
H339 H 0.6952 0.89543 0.8224 0.0
H340 H 0.58872 0.03067 0.71375 0.0
H341 H 0.65361 0.06492 0.76611 0.0
H342 H 0.56109 0.06665 0.73453 0.0
H343 H 0.62489 0.10049 0.78565 0.0
H344 H 0.66101 0.02208 0.66912 0.0
H345 H 0.71876 0.96226 0.67682 0.0
H346 H 0.67559 0.03087 0.6098 0.0
H347 H 0.73221 0.97201 0.61708 0.0
H348 H 0.76096 0.06175 0.72176 0.0
H349 H 0.69584 0.10392 0.67977 0.0
H350 H 0.5568 0.96807 0.6736 0.0
H351 H 0.61825 0.95068 0.60178 0.0
C352 C 0.98195 0.57581 0.17188 0.0
C353 C 0.96062 0.58492 0.15305 0.0
C354 C 0.97839 0.55935 0.19974 0.0
C355 C 0.93468 0.51083 0.2344 0.0
H356 H 0.9767 0.51979 0.31594 0.0
C357 C 0.93581 0.43768 0.34791 0.0
C358 C 0.96078 0.43095 0.35913 0.0
C359 C 0.93231 0.45818 0.32492 0.0
C360 C 0.96485 0.51703 0.29332 0.0
H361 H 0.91873 0.58398 0.14905 0.0
H362 H 0.91259 0.55464 0.19767 0.0
H363 H 0.97657 0.55329 0.27197 0.0
H364 H 0.00155 0.44062 0.35558 0.0
H365 H 0.99552 0.47593 0.31527 0.0
H366 H 0.92363 0.4741 0.25539 0.0
C367 C 0.93204 0.56041 0.19066 0.0
C368 C 0.96475 0.53619 0.26822 0.0
C369 C 0.93558 0.57712 0.16282 0.0
C370 C 0.98211 0.44509 0.34703 0.0
C371 C 0.97862 0.46557 0.32432 0.0
C372 C 0.93479 0.49157 0.25959 0.0
C373 C 0.95345 0.55141 0.20936 0.0
C374 C 0.95029 0.53294 0.23805 0.0
C375 C 0.95371 0.47243 0.31314 0.0
C376 C 0.95052 0.49417 0.28878 0.0
H377 H 0.00154 0.58082 0.16459 0.0
H378 H 0.99531 0.55226 0.2132 0.0
H379 H 0.92345 0.50779 0.21129 0.0
H380 H 0.91904 0.42702 0.35676 0.0
H381 H 0.91289 0.46309 0.31671 0.0
C382 C 0.41871 0.96072 0.42449 0.0
C383 C 0.41997 0.94662 0.39374 0.0
C384 C 0.43545 0.95516 0.45146 0.0
C385 C 0.49938 0.92899 0.46938 0.0
H386 H 0.4757 0.93436 0.56346 0.0
C387 C 0.56944 0.92989 0.58566 0.0
C388 C 0.56513 0.95084 0.60801 0.0
C389 C 0.55115 0.9235 0.5606 0.0
C390 C 0.48257 0.93269 0.53732 0.0
H391 H 0.43963 0.91528 0.36744 0.0
H392 H 0.46932 0.90577 0.41473 0.0
H393 H 0.44415 0.93322 0.51697 0.0
H394 H 0.53828 0.9816 0.6212 0.0
H395 H 0.50639 0.97018 0.57814 0.0
H396 H 0.53788 0.9294 0.4898 0.0
C397 C 0.45526 0.92115 0.41774 0.0
C398 C 0.46455 0.93205 0.51074 0.0
C399 C 0.43834 0.92665 0.39069 0.0
C400 C 0.54201 0.96499 0.60501 0.0
C401 C 0.52371 0.95847 0.58028 0.0
C402 C 0.51745 0.92956 0.49604 0.0
C403 C 0.45399 0.93543 0.44836 0.0
C404 C 0.4728 0.93118 0.47645 0.0
C405 C 0.52813 0.93777 0.5577 0.0
C406 C 0.5092 0.93237 0.53015 0.0
H407 H 0.40527 0.97665 0.42746 0.0
H408 H 0.43441 0.96693 0.47439 0.0
H409 H 0.50631 0.92844 0.44319 0.0
H410 H 0.58689 0.91837 0.58756 0.0
H411 H 0.55496 0.9074 0.54355 0.0
C412 C 0.06634 0.56557 0.84097 0.0
C413 C 0.04613 0.56022 0.86415 0.0
C414 C 0.0727 0.54791 0.81519 0.0
C415 C 0.06781 0.48004 0.78948 0.0
H416 H 0.06012 0.50598 0.6968 0.0
C417 C 0.04267 0.41351 0.67712 0.0
C418 C 0.05066 0.41999 0.64386 0.0
C419 C 0.04817 0.42989 0.70457 0.0
C420 C 0.06304 0.49841 0.72238 0.0
H421 H 0.01715 0.53166 0.87844 0.0
H422 H 0.02901 0.50063 0.83439 0.0
H423 H 0.05954 0.53611 0.74476 0.0
H424 H 0.07173 0.4479 0.61327 0.0
H425 H 0.08211 0.47629 0.66146 0.0
H426 H 0.07119 0.44234 0.76739 0.0
C427 C 0.03985 0.51853 0.8363 0.0
C428 C 0.0626 0.51573 0.74984 0.0
C429 C 0.03315 0.53633 0.86164 0.0
C430 C 0.06514 0.44265 0.63869 0.0
C431 C 0.07097 0.45891 0.66627 0.0
C432 C 0.06868 0.46275 0.76201 0.0
C433 C 0.05937 0.52434 0.81254 0.0
C434 C 0.06418 0.50658 0.78362 0.0
C435 C 0.06209 0.45299 0.69946 0.0
C436 C 0.06541 0.47162 0.72817 0.0
H437 H 0.07714 0.58349 0.84251 0.0
H438 H 0.08791 0.55271 0.79716 0.0
H439 H 0.06934 0.47262 0.81537 0.0
H440 H 0.03119 0.3963 0.6817 0.0
H441 H 0.04052 0.4249 0.72954 0.0
C442 C 0.43037 0.06484 0.09337 0.0
C443 C 0.41921 0.04021 0.09787 0.0
C444 C 0.44634 0.06984 0.06513 0.0
C445 C 0.46055 0.04573 0.97853 0.0
H446 H 0.53007 0.07218 0.99214 0.0
C447 C 0.54358 0.01882 0.89042 0.0
C448 C 0.5613 0.03788 0.87995 0.0
C449 C 0.52476 0.02441 0.91481 0.0
C450 C 0.51053 0.06529 0.98782 0.0
H451 H 0.41703 0.0013 0.07698 0.0
H452 H 0.44423 0.01016 0.02779 0.0
H453 H 0.49916 0.07275 0.03978 0.0
H454 H 0.57314 0.07784 0.88713 0.0
H455 H 0.54035 0.08741 0.93072 0.0
H456 H 0.4721 0.03725 0.92714 0.0
C457 C 0.44027 0.02574 0.04563 0.0
C458 C 0.49288 0.06563 0.01502 0.0
C459 C 0.42462 0.02069 0.07383 0.0
C460 C 0.55991 0.06266 0.89486 0.0
C461 C 0.54113 0.0682 0.91965 0.0
C462 C 0.47811 0.0454 0.95146 0.0
C463 C 0.45116 0.05036 0.04085 0.0
C464 C 0.46809 0.05489 0.0109 0.0
C465 C 0.52328 0.04913 0.92962 0.0
C466 C 0.50355 0.05422 0.95623 0.0
H467 H 0.42647 0.08032 0.11136 0.0
H468 H 0.45461 0.08896 0.062 0.0
H469 H 0.44137 0.03781 0.97454 0.0
H470 H 0.54449 -0.00065 0.8802 0.0
H471 H 0.51165 0.00914 0.92265 0.0
C472 C 0.24019 0.89873 0.1292 0.0
C473 C 0.24647 0.89618 0.16407 0.0
C474 C 0.22347 0.8811 0.11354 0.0
C475 C 0.19784 0.81529 0.12101 0.0
H476 H 0.14021 0.84144 0.06754 0.0
C477 C 0.11319 0.75005 0.08034 0.0
C478 C 0.10198 0.75407 0.048 0.0
C479 C 0.13174 0.76718 0.09296 0.0
C480 C 0.15643 0.83378 0.08189 0.0
H481 H 0.2407 0.87304 0.20976 0.0
H482 H 0.2115 0.8421 0.18231 0.0
H483 H 0.17134 0.87168 0.09218 0.0
H484 H 0.1016 0.77883 0.00321 0.0
H485 H 0.13448 0.80861 0.02493 0.0
H486 H 0.1832 0.77741 0.1106 0.0
C487 C 0.21951 0.85774 0.16715 0.0
C488 C 0.17419 0.85111 0.09607 0.0
C489 C 0.236 0.87553 0.1829 0.0
C490 C 0.10978 0.77547 0.02838 0.0
C491 C 0.12854 0.79251 0.04088 0.0
C492 C 0.18024 0.79794 0.10659 0.0
C493 C 0.21298 0.86046 0.13238 0.0
C494 C 0.19488 0.84203 0.11605 0.0
C495 C 0.13968 0.7886 0.07337 0.0
C496 C 0.15915 0.80699 0.08719 0.0
H497 H 0.24787 0.91462 0.11419 0.0
H498 H 0.21884 0.88352 0.08665 0.0
H499 H 0.21386 0.80779 0.13594 0.0
H500 H 0.10721 0.73391 0.09622 0.0
H501 H 0.1395 0.76387 0.11837 0.0
C502 C 0.24903 0.12737 0.31523 0.0
C503 C 0.25246 0.10278 0.32993 0.0
C504 C 0.23182 0.14507 0.32978 0.0
C505 C 0.17389 0.14766 0.38395 0.0
H506 H 0.19021 0.22077 0.39066 0.0
C507 C 0.10561 0.2203 0.45009 0.0
C508 C 0.10203 0.24422 0.43366 0.0
C509 C 0.12479 0.20325 0.43893 0.0
C510 C 0.1853 0.20044 0.38866 0.0
H511 H 0.24074 0.07753 0.37155 0.0
H512 H 0.21098 0.10859 0.39723 0.0
H513 H 0.22266 0.19069 0.36876 0.0
H514 H 0.1155 0.26896 0.39246 0.0
H515 H 0.1489 0.23912 0.3728 0.0
H516 H 0.13646 0.15738 0.40342 0.0
C517 C 0.22144 0.11408 0.3743 0.0
C518 C 0.20388 0.18324 0.37617 0.0
C519 C 0.23869 0.09642 0.35982 0.0
C520 C 0.11805 0.25079 0.4059 0.0
C521 C 0.1372 0.23373 0.3947 0.0
C522 C 0.15531 0.16486 0.39638 0.0
C523 C 0.21764 0.13849 0.35924 0.0
C524 C 0.19832 0.15669 0.37355 0.0
C525 C 0.14075 0.20976 0.41106 0.0
C526 C 0.16077 0.19144 0.39872 0.0
H527 H 0.25958 0.1329 0.29239 0.0
H528 H 0.22914 0.16366 0.31744 0.0
H529 H 0.16891 0.12737 0.38171 0.0
H530 H 0.0938 0.2149 0.47189 0.0
H531 H 0.12731 0.18508 0.45238 0.0
C532 C 0.77 0.11406 0.70689 0.0
C533 C 0.74869 0.10633 0.68692 0.0
C534 C 0.78705 0.13298 0.69494 0.0
C535 C 0.79248 0.1873 0.63495 0.0
H536 H 0.86612 0.17315 0.6389 0.0
C537 C 0.86755 0.24945 0.56282 0.0
C538 C 0.89164 0.25376 0.57856 0.0
C539 C 0.84964 0.23246 0.57741 0.0
C540 C 0.84565 0.17763 0.6381 0.0
H541 H 0.72873 0.11241 0.6386 0.0
H542 H 0.75826 0.14578 0.61813 0.0
H543 H 0.83563 0.14186 0.66237 0.0
H544 H 0.91568 0.24365 0.62221 0.0
H545 H 0.8841 0.21492 0.64828 0.0
H546 H 0.80241 0.22317 0.61098 0.0
C547 C 0.7616 0.13728 0.64312 0.0
C548 C 0.82821 0.15965 0.65146 0.0
C549 C 0.74467 0.1182 0.65492 0.0
C550 C 0.8972 0.24105 0.60957 0.0
C551 C 0.87922 0.22425 0.62429 0.0
C552 C 0.80993 0.20542 0.62185 0.0
C553 C 0.78303 0.14471 0.66292 0.0
C554 C 0.80147 0.16424 0.64981 0.0
C555 C 0.85533 0.21954 0.60821 0.0
C556 C 0.83673 0.20072 0.62307 0.0
H557 H 0.77341 0.10566 0.73191 0.0
H558 H 0.80329 0.1386 0.71087 0.0
H559 H 0.77194 0.19141 0.63371 0.0
H560 H 0.86249 0.25917 0.53917 0.0
H561 H 0.83154 0.22909 0.56413 0.0
C562 C 0.76475 0.87765 0.78332 0.0
C563 C 0.74641 0.88818 0.80602 0.0
C564 C 0.78131 0.85788 0.794 0.0
C565 C 0.78834 0.80611 0.85749 0.0
H566 H 0.86193 0.81383 0.84091 0.0
C567 C 0.86467 0.74373 0.9264 0.0
C568 C 0.88738 0.73702 0.90866 0.0
C569 C 0.84659 0.76043 0.91168 0.0
C570 C 0.84141 0.81107 0.84521 0.0
H571 H 0.73129 0.88621 0.85789 0.0
H572 H 0.75985 0.85133 0.87619 0.0
H573 H 0.83196 0.84624 0.81903 0.0
H574 H 0.90853 0.74221 0.86108 0.0
H575 H 0.8765 0.77045 0.83489 0.0
H576 H 0.79766 0.77089 0.88348 0.0
C577 C 0.76123 0.85832 0.85008 0.0
C578 C 0.82427 0.82971 0.83277 0.0
C579 C 0.74485 0.87826 0.83953 0.0
C580 C 0.89115 0.74675 0.87538 0.0
C581 C 0.87295 0.76327 0.86054 0.0
C582 C 0.80544 0.78731 0.86965 0.0
C583 C 0.77969 0.84804 0.82747 0.0
C584 C 0.79763 0.82755 0.83913 0.0
C585 C 0.85064 0.77064 0.87872 0.0
C586 C 0.83222 0.78972 0.864 0.0
H587 H 0.76617 0.88448 0.75715 0.0
H588 H 0.79522 0.85008 0.77598 0.0
H589 H 0.76782 0.80385 0.86235 0.0
H590 H 0.86094 0.73626 0.95186 0.0
H591 H 0.82977 0.76587 0.92659 0.0
loop_
_geom_bond_atom_site_label_1
_geom_bond_atom_site_label_2
_geom_bond_distance
_geom_bond_site_symmetry_2
_ccdc_geom_bond_type
Li0 N17 1.990 . S
Li0 O60 1.956 . S
Li0 O61 1.970 1_455 S
Li0 O62 1.961 1_554 S
Li1 N25 1.990 . S
Li1 O60 1.970 1_655 S
Li1 O61 1.956 . S
Li1 O63 1.961 1_554 S
Li2 N47 1.990 . S
Li2 O60 1.961 1_556 S
Li2 O62 1.956 . S
Li2 O63 1.970 1_455 S
Li3 N53 1.990 . S
Li3 O61 1.961 1_556 S
Li3 O62 1.970 1_655 S
Li3 O63 1.956 . S
C4 C6 1.348 . S
C4 C7 1.356 1_554 S
C4 O60 1.325 . S
N5 C8 1.314 . S
N5 C9 1.279 . S
C6 C4 1.348 . S
C6 C8 1.353 . S
C6 H64 0.929 . S
C7 C4 1.356 1_556 S
C7 C9 1.358 1_556 S
C7 H65 0.930 . S
C8 N5 1.314 . S
C8 C6 1.353 . S
C8 H66 0.930 . S
C9 N5 1.279 . S
C9 C7 1.358 1_554 S
C9 H67 0.930 1_554 S
C10 C13 1.348 1_655 S
C10 C14 1.356 . S
C10 O61 1.325 . S
C11 N12 1.279 . S
C11 C14 1.358 . S
C11 H68 0.930 . S
N12 C11 1.279 . S
N12 C15 1.314 . S
C13 C10 1.348 1_455 S
C13 C15 1.353 1_455 S
C13 H69 0.929 . S
C14 C10 1.356 . S
C14 C11 1.358 . S
C14 H70 0.930 . S
C15 N12 1.314 . S
C15 C13 1.353 1_655 S
C15 H71 0.930 1_655 S
C16 N17 1.314 . S
C16 C21 1.353 . S
C16 H22 0.930 1_554 S
N17 Li0 1.990 . S
N17 C16 1.314 . S
N17 C19 1.279 . S
C18 C19 1.358 . S
C18 C20 1.356 . S
C18 H72 0.930 . S
C19 N17 1.279 . S
C19 C18 1.358 . S
C19 H23 0.930 . S
C20 C18 1.356 . S
C20 C21 1.348 . S
C21 C16 1.353 . S
C21 C20 1.348 . S
C21 H73 0.929 . S
H22 C16 0.930 1_556 S
H23 C19 0.930 . S
C24 N25 1.314 . S
C24 C26 1.353 . S
C24 H30 0.930 . S
N25 Li1 1.990 . S
N25 C24 1.314 . S
N25 C28 1.279 . S
C26 C24 1.353 . S
C26 C29 1.348 . S
C26 H74 0.929 . S
C27 C28 1.358 . S
C27 C29 1.356 . S
C27 H75 0.930 . S
C28 N25 1.279 . S
C28 C27 1.358 . S
C28 H31 0.930 . S
C29 C26 1.348 . S
C29 C27 1.356 . S
H30 C24 0.930 . S
H31 C28 0.930 . S
C32 C34 1.348 1_455 S
C32 C35 1.356 . S
C32 O62 1.325 . S
N33 C36 1.314 . S
N33 C37 1.279 . S
C34 C32 1.348 1_655 S
C34 C36 1.353 1_655 S
C34 H76 0.929 . S
C35 C32 1.356 . S
C35 C37 1.358 . S
C35 H77 0.930 . S
C36 N33 1.314 . S
C36 C34 1.353 1_455 S
C36 H78 0.930 1_455 S
C37 N33 1.279 . S
C37 C35 1.358 . S
C37 H79 0.930 . S
C38 C39 1.348 . S
C38 C40 1.356 1_556 S
C38 O63 1.325 . S
C39 C38 1.348 . S
C39 C41 1.353 . S
C39 H80 0.929 . S
C40 C38 1.356 1_554 S
C40 C42 1.358 1_554 S
C40 H81 0.930 . S
C41 C39 1.353 . S
C41 N43 1.314 . S
C41 H82 0.930 . S
C42 C40 1.358 1_556 S
C42 N43 1.279 . S
C42 H83 0.930 1_556 S
N43 C41 1.314 . S
N43 C42 1.279 . S
C44 C46 1.353 . S
C44 N47 1.314 . S
C44 H50 0.930 . S
C45 N47 1.279 . S
C45 C48 1.358 . S
C45 H51 0.930 . S
C46 C44 1.353 . S
C46 C49 1.348 . S
C46 H84 0.929 . S
N47 Li2 1.990 . S
N47 C44 1.314 . S
N47 C45 1.279 . S
C48 C45 1.358 . S
C48 C49 1.356 . S
C48 H85 0.930 . S
C49 C46 1.348 . S
C49 C48 1.356 . S
H50 C44 0.930 . S
H51 C45 0.930 . S
C52 N53 1.314 . S
C52 C54 1.353 . S
C52 H58 0.930 1_556 S
N53 Li3 1.990 . S
N53 C52 1.314 . S
N53 C56 1.279 . S
C54 C52 1.353 . S
C54 C57 1.348 . S
C54 H86 0.929 . S
C55 C56 1.358 . S
C55 C57 1.356 . S
C55 H87 0.930 . S
C56 N53 1.279 . S
C56 C55 1.358 . S
C56 H59 0.930 . S
C57 C54 1.348 . S
C57 C55 1.356 . S
H58 C52 0.930 1_554 S
H59 C56 0.930 . S
O60 Li0 1.956 . S
O60 Li1 1.970 1_455 S
O60 Li2 1.961 1_554 S
O60 C4 1.325 . S
O61 Li0 1.970 1_655 S
O61 Li1 1.956 . S
O61 Li3 1.961 1_554 S
O61 C10 1.325 . S
O62 Li0 1.961 1_556 S
O62 Li2 1.956 . S
O62 Li3 1.970 1_455 S
O62 C32 1.325 . S
O63 Li1 1.961 1_556 S
O63 Li2 1.970 1_655 S
O63 Li3 1.956 . S
O63 C38 1.325 . S
H64 C6 0.929 . S
H65 C7 0.930 . S
H66 C8 0.930 . S
H67 C9 0.930 1_556 S
H68 C11 0.930 . S
H69 C13 0.929 . S
H70 C14 0.930 . S
H71 C15 0.930 1_455 S
H72 C18 0.930 . S
H73 C21 0.929 . S
H74 C26 0.929 . S
H75 C27 0.930 . S
H76 C34 0.929 . S
H77 C35 0.930 . S
H78 C36 0.930 1_655 S
H79 C37 0.930 . S
H80 C39 0.929 . S
H81 C40 0.930 . S
H82 C41 0.930 . S
H83 C42 0.930 1_554 S
H84 C46 0.929 . S
H85 C48 0.930 . S
H86 C54 0.929 . S
H87 C55 0.930 . S
Li88 N105 1.990 . S
Li88 O148 1.956 . S
Li88 O149 1.970 1_565 S
Li88 O150 1.961 . S
Li89 N113 1.990 . S
Li89 O148 1.970 1_545 S
Li89 O149 1.956 . S
Li89 O151 1.961 . S
Li90 N135 1.990 . S
Li90 O148 1.961 . S
Li90 O150 1.956 . S
Li90 O151 1.970 1_565 S
Li91 N141 1.990 . S
Li91 O149 1.961 . S
Li91 O150 1.970 1_545 S
Li91 O151 1.956 . S
C92 C94 1.348 1_565 S
C92 C95 1.356 . S
C92 O148 1.325 . S
N93 C96 1.314 . S
N93 C97 1.279 . S
C94 C92 1.348 1_545 S
C94 C96 1.353 1_545 S
C94 H152 0.929 . S
C95 C92 1.356 . S
C95 C97 1.358 . S
C95 H153 0.930 . S
C96 N93 1.314 . S
C96 C94 1.353 1_565 S
C96 H154 0.930 1_565 S
C97 N93 1.279 . S
C97 C95 1.358 . S
C97 H155 0.930 . S
C98 C101 1.348 . S
C98 C102 1.356 . S
C98 O149 1.325 . S
C99 N100 1.279 . S
C99 C102 1.358 . S
C99 H156 0.930 . S
N100 C99 1.279 . S
N100 C103 1.314 . S
C101 C98 1.348 . S
C101 C103 1.353 . S
C101 H157 0.929 . S
C102 C98 1.356 . S
C102 C99 1.358 . S
C102 H158 0.930 . S
C103 N100 1.314 . S
C103 C101 1.353 . S
C103 H159 0.930 . S
C104 N105 1.314 . S
C104 C109 1.353 . S
C104 H110 0.930 . S
N105 Li88 1.990 . S
N105 C104 1.314 . S
N105 C107 1.279 . S
C106 C107 1.358 . S
C106 C108 1.356 . S
C106 H160 0.930 . S
C107 N105 1.279 . S
C107 C106 1.358 . S
C107 H111 0.930 . S
C108 C106 1.356 . S
C108 C109 1.348 . S
C109 C104 1.353 . S
C109 C108 1.348 . S
C109 H161 0.929 . S
H110 C104 0.930 . S
H111 C107 0.930 . S
C112 N113 1.314 . S
C112 C114 1.353 . S
C112 H118 0.930 . S
N113 Li89 1.990 . S
N113 C112 1.314 . S
N113 C116 1.279 . S
C114 C112 1.353 . S
C114 C117 1.348 . S
C114 H162 0.929 . S
C115 C116 1.358 . S
C115 C117 1.356 . S
C115 H163 0.930 . S
C116 N113 1.279 . S
C116 C115 1.358 . S
C116 H119 0.930 . S
C117 C114 1.348 . S
C117 C115 1.356 . S
H118 C112 0.930 . S
H119 C116 0.930 . S
C120 C122 1.348 . S
C120 C123 1.356 . S
C120 O150 1.325 . S
N121 C124 1.314 . S
N121 C125 1.279 . S
C122 C120 1.348 . S
C122 C124 1.353 . S
C122 H164 0.929 . S
C123 C120 1.356 . S
C123 C125 1.358 . S
C123 H165 0.930 . S
C124 N121 1.314 . S
C124 C122 1.353 . S
C124 H166 0.930 . S
C125 N121 1.279 . S
C125 C123 1.358 . S
C125 H167 0.930 . S
C126 C127 1.348 1_545 S
C126 C128 1.356 . S
C126 O151 1.325 . S
C127 C126 1.348 1_565 S
C127 C129 1.353 1_565 S
C127 H168 0.929 . S
C128 C126 1.356 . S
C128 C130 1.358 . S
C128 H169 0.930 . S
C129 C127 1.353 1_545 S
C129 N131 1.314 . S
C129 H170 0.930 1_545 S
C130 C128 1.358 . S
C130 N131 1.279 . S
C130 H171 0.930 . S
N131 C129 1.314 . S
N131 C130 1.279 . S
C132 C134 1.353 . S
C132 N135 1.314 . S
C132 H138 0.930 . S
C133 N135 1.279 . S
C133 C136 1.358 . S
C133 H139 0.930 . S
C134 C132 1.353 . S
C134 C137 1.348 . S
C134 H172 0.929 . S
N135 Li90 1.990 . S
N135 C132 1.314 . S
N135 C133 1.279 . S
C136 C133 1.358 . S
C136 C137 1.356 . S
C136 H173 0.930 . S
C137 C134 1.348 . S
C137 C136 1.356 . S
H138 C132 0.930 . S
H139 C133 0.930 . S
C140 N141 1.314 . S
C140 C142 1.353 . S
C140 H146 0.930 . S
N141 Li91 1.990 . S
N141 C140 1.314 . S
N141 C144 1.279 . S
C142 C140 1.353 . S
C142 C145 1.348 . S
C142 H174 0.929 . S
C143 C144 1.358 . S
C143 C145 1.356 . S
C143 H175 0.930 . S
C144 N141 1.279 . S
C144 C143 1.358 . S
C144 H147 0.930 . S
C145 C142 1.348 . S
C145 C143 1.356 . S
H146 C140 0.930 . S
H147 C144 0.930 . S
O148 Li88 1.956 . S
O148 Li89 1.970 1_565 S
O148 Li90 1.961 . S
O148 C92 1.325 . S
O149 Li88 1.970 1_545 S
O149 Li89 1.956 . S
O149 Li91 1.961 . S
O149 C98 1.325 . S
O150 Li88 1.961 . S
O150 Li90 1.956 . S
O150 Li91 1.970 1_565 S
O150 C120 1.325 . S
O151 Li89 1.961 . S
O151 Li90 1.970 1_545 S
O151 Li91 1.956 . S
O151 C126 1.325 . S
H152 C94 0.929 . S
H153 C95 0.930 . S
H154 C96 0.930 1_545 S
H155 C97 0.930 . S
H156 C99 0.930 . S
H157 C101 0.929 . S
H158 C102 0.930 . S
H159 C103 0.930 . S
H160 C106 0.930 . S
H161 C109 0.929 . S
H162 C114 0.929 . S
H163 C115 0.930 . S
H164 C122 0.929 . S
H165 C123 0.930 . S
H166 C124 0.930 . S
H167 C125 0.930 . S
H168 C127 0.929 . S
H169 C128 0.930 . S
H170 C129 0.930 1_565 S
H171 C130 0.930 . S
H172 C134 0.929 . S
H173 C136 0.930 . S
H174 C142 0.929 . S
H175 C143 0.930 . S
Li176 N193 1.990 . S
Li176 O236 1.956 . S
Li176 O237 1.970 1_455 S
Li176 O238 1.961 . S
Li177 N201 1.990 . S
Li177 O236 1.970 1_655 S
Li177 O237 1.956 . S
Li177 O239 1.961 . S
Li178 N223 1.990 . S
Li178 O236 1.961 . S
Li178 O238 1.956 . S
Li178 O239 1.970 1_455 S
Li179 N229 1.990 . S
Li179 O237 1.961 . S
Li179 O238 1.970 1_655 S
Li179 O239 1.956 . S
C180 C182 1.348 1_455 S
C180 C183 1.356 . S
C180 O236 1.325 . S
N181 C184 1.314 . S
N181 C185 1.279 . S
C182 C180 1.348 1_655 S
C182 C184 1.353 1_655 S
C182 H240 0.929 . S
C183 C180 1.356 . S
C183 C185 1.358 . S
C183 H241 0.930 . S
C184 N181 1.314 . S
C184 C182 1.353 1_455 S
C184 H242 0.930 1_455 S
C185 N181 1.279 . S
C185 C183 1.358 . S
C185 H243 0.930 . S
C186 C189 1.348 . S
C186 C190 1.356 . S
C186 O237 1.325 . S
C187 N188 1.279 . S
C187 C190 1.358 . S
C187 H244 0.930 . S
N188 C187 1.279 . S
N188 C191 1.314 . S
C189 C186 1.348 . S
C189 C191 1.353 . S
C189 H245 0.929 . S
C190 C186 1.356 . S
C190 C187 1.358 . S
C190 H246 0.930 . S
C191 N188 1.314 . S
C191 C189 1.353 . S
C191 H247 0.930 . S
C192 N193 1.314 . S
C192 C197 1.353 . S
C192 H198 0.930 . S
N193 Li176 1.990 . S
N193 C192 1.314 . S
N193 C195 1.279 . S
C194 C195 1.358 . S
C194 C196 1.356 . S
C194 H248 0.930 . S
C195 N193 1.279 . S
C195 C194 1.358 . S
C195 H199 0.930 . S
C196 C194 1.356 . S
C196 C197 1.348 . S
C197 C192 1.353 . S
C197 C196 1.348 . S
C197 H249 0.929 . S
H198 C192 0.930 . S
H199 C195 0.930 . S
C200 N201 1.314 . S
C200 C202 1.353 . S
C200 H206 0.930 . S
N201 Li177 1.990 . S
N201 C200 1.314 . S
N201 C204 1.279 . S
C202 C200 1.353 . S
C202 C205 1.348 . S
C202 H250 0.929 . S
C203 C204 1.358 . S
C203 C205 1.356 . S
C203 H251 0.930 . S
C204 N201 1.279 . S
C204 C203 1.358 . S
C204 H207 0.930 . S
C205 C202 1.348 . S
C205 C203 1.356 . S
H206 C200 0.930 . S
H207 C204 0.930 . S
C208 C210 1.348 . S
C208 C211 1.356 . S
C208 O238 1.325 . S
N209 C212 1.314 . S
N209 C213 1.279 . S
C210 C208 1.348 . S
C210 C212 1.353 . S
C210 H252 0.929 . S
C211 C208 1.356 . S
C211 C213 1.358 . S
C211 H253 0.930 . S
C212 N209 1.314 . S
C212 C210 1.353 . S
C212 H254 0.930 . S
C213 N209 1.279 . S
C213 C211 1.358 . S
C213 H255 0.930 . S
C214 C215 1.348 1_655 S
C214 C216 1.356 . S
C214 O239 1.325 . S
C215 C214 1.348 1_455 S
C215 C217 1.353 1_455 S
C215 H256 0.929 . S
C216 C214 1.356 . S
C216 C218 1.358 . S
C216 H257 0.930 . S
C217 C215 1.353 1_655 S
C217 N219 1.314 . S
C217 H258 0.930 1_655 S
C218 C216 1.358 . S
C218 N219 1.279 . S
C218 H259 0.930 . S
N219 C217 1.314 . S
N219 C218 1.279 . S
C220 C222 1.353 . S
C220 N223 1.314 . S
C220 H226 0.930 . S
C221 N223 1.279 . S
C221 C224 1.358 . S
C221 H227 0.930 . S
C222 C220 1.353 . S
C222 C225 1.348 . S
C222 H260 0.929 . S
N223 Li178 1.990 . S
N223 C220 1.314 . S
N223 C221 1.279 . S
C224 C221 1.358 . S
C224 C225 1.356 . S
C224 H261 0.930 . S
C225 C222 1.348 . S
C225 C224 1.356 . S
H226 C220 0.930 . S
H227 C221 0.930 . S
C228 N229 1.314 . S
C228 C230 1.353 . S
C228 H234 0.930 . S
N229 Li179 1.990 . S
N229 C228 1.314 . S
N229 C232 1.279 . S
C230 C228 1.353 . S
C230 C233 1.348 . S
C230 H262 0.929 . S
C231 C232 1.358 . S
C231 C233 1.356 . S
C231 H263 0.930 . S
C232 N229 1.279 . S
C232 C231 1.358 . S
C232 H235 0.930 . S
C233 C230 1.348 . S
C233 C231 1.356 . S
H234 C228 0.930 . S
H235 C232 0.930 . S
O236 Li176 1.956 . S
O236 Li177 1.970 1_455 S
O236 Li178 1.961 . S
O236 C180 1.325 . S
O237 Li176 1.970 1_655 S
O237 Li177 1.956 . S
O237 Li179 1.961 . S
O237 C186 1.325 . S
O238 Li176 1.961 . S
O238 Li178 1.956 . S
O238 Li179 1.970 1_455 S
O238 C208 1.325 . S
O239 Li177 1.961 . S
O239 Li178 1.970 1_655 S
O239 Li179 1.956 . S
O239 C214 1.325 . S
H240 C182 0.929 . S
H241 C183 0.930 . S
H242 C184 0.930 1_655 S
H243 C185 0.930 . S
H244 C187 0.930 . S
H245 C189 0.929 . S
H246 C190 0.930 . S
H247 C191 0.930 . S
H248 C194 0.930 . S
H249 C197 0.929 . S
H250 C202 0.929 . S
H251 C203 0.930 . S
H252 C210 0.929 . S
H253 C211 0.930 . S
H254 C212 0.930 . S
H255 C213 0.930 . S
H256 C215 0.929 . S
H257 C216 0.930 . S
H258 C217 0.930 1_455 S
H259 C218 0.930 . S
H260 C222 0.929 . S
H261 C224 0.930 . S
H262 C230 0.929 . S
H263 C231 0.930 . S
Li264 N281 1.990 . S
Li264 O324 1.956 . S
Li264 O325 1.970 1_545 S
Li264 O326 1.961 . S
Li265 N289 1.990 . S
Li265 O324 1.970 1_565 S
Li265 O325 1.956 . S
Li265 O327 1.961 . S
Li266 N311 1.990 . S
Li266 O324 1.961 . S
Li266 O326 1.956 . S
Li266 O327 1.970 1_545 S
Li267 N317 1.990 . S
Li267 O325 1.961 . S
Li267 O326 1.970 1_565 S
Li267 O327 1.956 . S
C268 C270 1.348 1_545 S
C268 C271 1.356 . S
C268 O324 1.325 . S
N269 C272 1.314 . S
N269 C273 1.279 . S
C270 C268 1.348 1_565 S
C270 C272 1.353 1_565 S
C270 H328 0.929 . S
C271 C268 1.356 . S
C271 C273 1.358 . S
C271 H329 0.930 . S
C272 N269 1.314 . S
C272 C270 1.353 1_545 S
C272 H330 0.930 1_545 S
C273 N269 1.279 . S
C273 C271 1.358 . S
C273 H331 0.930 . S
C274 C277 1.348 . S
C274 C278 1.356 . S
C274 O325 1.325 . S
C275 N276 1.279 . S
C275 C278 1.358 . S
C275 H332 0.930 . S
N276 C275 1.279 . S
N276 C279 1.314 . S
C277 C274 1.348 . S
C277 C279 1.353 . S
C277 H333 0.929 . S
C278 C274 1.356 . S
C278 C275 1.358 . S
C278 H334 0.930 . S
C279 N276 1.314 . S
C279 C277 1.353 . S
C279 H335 0.930 . S
C280 N281 1.314 . S
C280 C285 1.353 . S
C280 H286 0.930 . S
N281 Li264 1.990 . S
N281 C280 1.314 . S
N281 C283 1.279 . S
C282 C283 1.358 . S
C282 C284 1.356 . S
C282 H336 0.930 . S
C283 N281 1.279 . S
C283 C282 1.358 . S
C283 H287 0.930 . S
C284 C282 1.356 . S
C284 C285 1.348 . S
C285 C280 1.353 . S
C285 C284 1.348 . S
C285 H337 0.929 . S
H286 C280 0.930 . S
H287 C283 0.930 . S
C288 N289 1.314 . S
C288 C290 1.353 . S
C288 H294 0.930 . S
N289 Li265 1.990 . S
N289 C288 1.314 . S
N289 C292 1.279 . S
C290 C288 1.353 . S
C290 C293 1.348 . S
C290 H338 0.929 . S
C291 C292 1.358 . S
C291 C293 1.356 . S
C291 H339 0.930 . S
C292 N289 1.279 . S
C292 C291 1.358 . S
C292 H295 0.930 . S
C293 C290 1.348 . S
C293 C291 1.356 . S
H294 C288 0.930 . S
H295 C292 0.930 . S
C296 C298 1.348 . S
C296 C299 1.356 . S
C296 O326 1.325 . S
N297 C300 1.314 . S
N297 C301 1.279 . S
C298 C296 1.348 . S
C298 C300 1.353 . S
C298 H340 0.929 . S
C299 C296 1.356 . S
C299 C301 1.358 . S
C299 H341 0.930 . S
C300 N297 1.314 . S
C300 C298 1.353 . S
C300 H342 0.930 . S
C301 N297 1.279 . S
C301 C299 1.358 . S
C301 H343 0.930 . S
C302 C303 1.348 1_565 S
C302 C304 1.356 . S
C302 O327 1.325 . S
C303 C302 1.348 1_545 S
C303 C305 1.353 1_545 S
C303 H344 0.929 . S
C304 C302 1.356 . S
C304 C306 1.358 . S
C304 H345 0.930 . S
C305 C303 1.353 1_565 S
C305 N307 1.314 . S
C305 H346 0.930 1_565 S
C306 C304 1.358 . S
C306 N307 1.279 . S
C306 H347 0.930 . S
N307 C305 1.314 . S
N307 C306 1.279 . S
C308 C310 1.353 . S
C308 N311 1.314 . S
C308 H314 0.930 . S
C309 N311 1.279 . S
C309 C312 1.358 . S
C309 H315 0.930 . S
C310 C308 1.353 . S
C310 C313 1.348 . S
C310 H348 0.929 . S
N311 Li266 1.990 . S
N311 C308 1.314 . S
N311 C309 1.279 . S
C312 C309 1.358 . S
C312 C313 1.356 . S
C312 H349 0.930 . S
C313 C310 1.348 . S
C313 C312 1.356 . S
H314 C308 0.930 . S
H315 C309 0.930 . S
C316 N317 1.314 . S
C316 C318 1.353 . S
C316 H322 0.930 . S
N317 Li267 1.990 . S
N317 C316 1.314 . S
N317 C320 1.279 . S
C318 C316 1.353 . S
C318 C321 1.348 . S
C318 H350 0.929 . S
C319 C320 1.358 . S
C319 C321 1.356 . S
C319 H351 0.930 . S
C320 N317 1.279 . S
C320 C319 1.358 . S
C320 H323 0.930 . S
C321 C318 1.348 . S
C321 C319 1.356 . S
H322 C316 0.930 . S
H323 C320 0.930 . S
O324 Li264 1.956 . S
O324 Li265 1.970 1_545 S
O324 Li266 1.961 . S
O324 C268 1.325 . S
O325 Li264 1.970 1_565 S
O325 Li265 1.956 . S
O325 Li267 1.961 . S
O325 C274 1.325 . S
O326 Li264 1.961 . S
O326 Li266 1.956 . S
O326 Li267 1.970 1_545 S
O326 C296 1.325 . S
O327 Li265 1.961 . S
O327 Li266 1.970 1_565 S
O327 Li267 1.956 . S
O327 C302 1.325 . S
H328 C270 0.929 . S
H329 C271 0.930 . S
H330 C272 0.930 1_565 S
H331 C273 0.930 . S
H332 C275 0.930 . S
H333 C277 0.929 . S
H334 C278 0.930 . S
H335 C279 0.930 . S
H336 C282 0.930 . S
H337 C285 0.929 . S
H338 C290 0.929 . S
H339 C291 0.930 . S
H340 C298 0.929 . S
H341 C299 0.930 . S
H342 C300 0.930 . S
H343 C301 0.930 . S
H344 C303 0.929 . S
H345 C304 0.930 . S
H346 C305 0.930 1_545 S
H347 C306 0.930 . S
H348 C310 0.929 . S
H349 C312 0.930 . S
H350 C318 0.929 . S
H351 C319 0.930 . S
C352 C353 1.349 . S
C352 C354 1.327 . S
C352 H377 0.950 1_655 S
C353 C352 1.349 . S
C353 C369 1.349 . S
C354 C352 1.327 . S
C354 C373 1.429 . S
C354 H378 0.950 1_655 S
C355 C372 1.574 . S
C355 C374 1.368 . S
C355 H379 0.949 . S
H356 C360 0.949 1_455 S
C357 C358 1.349 . S
C357 C359 1.327 . S
C357 H380 0.950 . S
C358 C357 1.349 . S
C358 C370 1.349 . S
C359 C357 1.327 . S
C359 C375 1.429 . S
C359 H381 0.950 . S
C360 H356 0.949 1_655 S
C360 C368 1.574 . S
C360 C376 1.368 . S
H361 C369 0.950 . S
H362 C367 0.950 . S
H363 C368 0.949 1_455 S
H364 C370 0.950 1_455 S
H365 C371 0.950 1_455 S
H366 C372 0.949 . S
C367 H362 0.950 . S
C367 C369 1.327 . S
C367 C373 1.429 . S
C368 C360 1.574 . S
C368 H363 0.949 1_655 S
C368 C374 1.368 . S
C369 C353 1.349 . S
C369 H361 0.950 . S
C369 C367 1.327 . S
C370 C358 1.349 . S
C370 H364 0.950 1_655 S
C370 C371 1.327 . S
C371 H365 0.950 1_655 S
C371 C370 1.327 . S
C371 C375 1.429 . S
C372 C355 1.574 . S
C372 H366 0.949 . S
C372 C376 1.368 . S
C373 C354 1.429 . S
C373 C367 1.429 . S
C373 C374 1.523 . S
C374 C355 1.368 . S
C374 C368 1.368 . S
C374 C373 1.523 . S
C375 C359 1.429 . S
C375 C371 1.429 . S
C375 C376 1.523 . S
C376 C360 1.368 . S
C376 C372 1.368 . S
C376 C375 1.523 . S
H377 C352 0.950 1_455 S
H378 C354 0.950 1_455 S
H379 C355 0.949 . S
H380 C357 0.950 . S
H381 C359 0.950 . S
C382 C383 1.349 . S
C382 C384 1.327 . S
C382 H407 0.950 1_565 S
C383 C382 1.349 . S
C383 C399 1.349 . S
C384 C382 1.327 . S
C384 C403 1.429 . S
C384 H408 0.950 1_565 S
C385 C402 1.574 . S
C385 C404 1.368 . S
C385 H409 0.949 . S
H386 C390 0.949 1_545 S
C387 C388 1.349 . S
C387 C389 1.327 . S
C387 H410 0.950 . S
C388 C387 1.349 . S
C388 C400 1.349 . S
C389 C387 1.327 . S
C389 C405 1.429 . S
C389 H411 0.950 . S
C390 H386 0.949 1_565 S
C390 C398 1.574 . S
C390 C406 1.368 . S
H391 C399 0.950 . S
H392 C397 0.950 . S
H393 C398 0.949 1_545 S
H394 C400 0.950 1_545 S
H395 C401 0.950 1_545 S
H396 C402 0.949 . S
C397 H392 0.950 . S
C397 C399 1.327 . S
C397 C403 1.429 . S
C398 C390 1.574 . S
C398 H393 0.949 1_565 S
C398 C404 1.368 . S
C399 C383 1.349 . S
C399 H391 0.950 . S
C399 C397 1.327 . S
C400 C388 1.349 . S
C400 H394 0.950 1_565 S
C400 C401 1.327 . S
C401 H395 0.950 1_565 S
C401 C400 1.327 . S
C401 C405 1.429 . S
C402 C385 1.574 . S
C402 H396 0.949 . S
C402 C406 1.368 . S
C403 C384 1.429 . S
C403 C397 1.429 . S
C403 C404 1.523 . S
C404 C385 1.368 . S
C404 C398 1.368 . S
C404 C403 1.523 . S
C405 C389 1.429 . S
C405 C401 1.429 . S
C405 C406 1.523 . S
C406 C390 1.368 . S
C406 C402 1.368 . S
C406 C405 1.523 . S
H407 C382 0.950 1_545 S
H408 C384 0.950 1_545 S
H409 C385 0.949 . S
H410 C387 0.950 . S
H411 C389 0.950 . S
C412 C413 1.349 . S
C412 C414 1.327 . S
C412 H437 0.950 . S
C413 C412 1.349 . S
C413 C429 1.349 . S
C414 C412 1.327 . S
C414 C433 1.429 . S
C414 H438 0.950 . S
C415 C432 1.574 . S
C415 C434 1.368 . S
C415 H439 0.949 . S
H416 C420 0.949 . S
C417 C418 1.349 . S
C417 C419 1.327 . S
C417 H440 0.950 . S
C418 C417 1.349 . S
C418 C430 1.349 . S
C419 C417 1.327 . S
C419 C435 1.429 . S
C419 H441 0.950 . S
C420 H416 0.949 . S
C420 C428 1.574 . S
C420 C436 1.368 . S
H421 C429 0.950 . S
H422 C427 0.950 . S
H423 C428 0.949 . S
H424 C430 0.950 . S
H425 C431 0.950 . S
H426 C432 0.949 . S
C427 H422 0.950 . S
C427 C429 1.327 . S
C427 C433 1.429 . S
C428 C420 1.574 . S
C428 H423 0.949 . S
C428 C434 1.368 . S
C429 C413 1.349 . S
C429 H421 0.950 . S
C429 C427 1.327 . S
C430 C418 1.349 . S
C430 H424 0.950 . S
C430 C431 1.327 . S
C431 H425 0.950 . S
C431 C430 1.327 . S
C431 C435 1.429 . S
C432 C415 1.574 . S
C432 H426 0.949 . S
C432 C436 1.368 . S
C433 C414 1.429 . S
C433 C427 1.429 . S
C433 C434 1.523 . S
C434 C415 1.368 . S
C434 C428 1.368 . S
C434 C433 1.523 . S
C435 C419 1.429 . S
C435 C431 1.429 . S
C435 C436 1.523 . S
C436 C420 1.368 . S
C436 C432 1.368 . S
C436 C435 1.523 . S
H437 C412 0.950 . S
H438 C414 0.950 . S
H439 C415 0.949 . S
H440 C417 0.950 . S
H441 C419 0.950 . S
C442 C443 1.349 . S
C442 C444 1.327 . S
C442 H467 0.950 . S
C443 C442 1.349 . S
C443 C459 1.349 . S
C444 C442 1.327 . S
C444 C463 1.429 . S
C444 H468 0.950 . S
C445 C462 1.574 1_554 S
C445 C464 1.368 . S
C445 H469 0.949 1_545 S
H446 C450 0.949 . S
C447 C448 1.349 . S
C447 C449 1.327 . S
C447 H470 0.950 1_545 S
C448 C447 1.349 . S
C448 C460 1.349 . S
C449 C447 1.327 . S
C449 C465 1.429 . S
C449 H471 0.950 1_545 S
C450 H446 0.949 . S
C450 C458 1.574 1_556 S
C450 C466 1.368 . S
H451 C459 0.950 1_565 S
H452 C457 0.950 1_565 S
H453 C458 0.949 . S
H454 C460 0.950 . S
H455 C461 0.950 . S
H456 C462 0.949 1_565 S
C457 H452 0.950 1_545 S
C457 C459 1.327 . S
C457 C463 1.429 . S
C458 C450 1.574 1_554 S
C458 H453 0.949 . S
C458 C464 1.368 . S
C459 C443 1.349 . S
C459 H451 0.950 1_545 S
C459 C457 1.327 . S
C460 C448 1.349 . S
C460 H454 0.950 . S
C460 C461 1.327 . S
C461 H455 0.950 . S
C461 C460 1.327 . S
C461 C465 1.429 . S
C462 C445 1.574 1_556 S
C462 H456 0.949 1_545 S
C462 C466 1.368 . S
C463 C444 1.429 . S
C463 C457 1.429 . S
C463 C464 1.523 . S
C464 C445 1.368 . S
C464 C458 1.368 . S
C464 C463 1.523 . S
C465 C449 1.429 . S
C465 C461 1.429 . S
C465 C466 1.523 . S
C466 C450 1.368 . S
C466 C462 1.368 . S
C466 C465 1.523 . S
H467 C442 0.950 . S
H468 C444 0.950 . S
H469 C445 0.949 1_565 S
H470 C447 0.950 1_565 S
H471 C449 0.950 1_565 S
C472 C473 1.349 . S
C472 C474 1.327 . S
C472 H497 0.950 . S
C473 C472 1.349 . S
C473 C489 1.349 . S
C474 C472 1.327 . S
C474 C493 1.429 . S
C474 H498 0.950 . S
C475 C492 1.574 . S
C475 C494 1.368 . S
C475 H499 0.949 . S
H476 C480 0.949 . S
C477 C478 1.349 . S
C477 C479 1.327 . S
C477 H500 0.950 . S
C478 C477 1.349 . S
C478 C490 1.349 . S
C479 C477 1.327 . S
C479 C495 1.429 . S
C479 H501 0.950 . S
C480 H476 0.949 . S
C480 C488 1.574 . S
C480 C496 1.368 . S
H481 C489 0.950 . S
H482 C487 0.950 . S
H483 C488 0.949 . S
H484 C490 0.950 . S
H485 C491 0.950 . S
H486 C492 0.949 . S
C487 H482 0.950 . S
C487 C489 1.327 . S
C487 C493 1.429 . S
C488 C480 1.574 . S
C488 H483 0.949 . S
C488 C494 1.368 . S
C489 C473 1.349 . S
C489 H481 0.950 . S
C489 C487 1.327 . S
C490 C478 1.349 . S
C490 H484 0.950 . S
C490 C491 1.327 . S
C491 H485 0.950 . S
C491 C490 1.327 . S
C491 C495 1.429 . S
C492 C475 1.574 . S
C492 H486 0.949 . S
C492 C496 1.368 . S
C493 C474 1.429 . S
C493 C487 1.429 . S
C493 C494 1.523 . S
C494 C475 1.368 . S
C494 C488 1.368 . S
C494 C493 1.523 . S
C495 C479 1.429 . S
C495 C491 1.429 . S
C495 C496 1.523 . S
C496 C480 1.368 . S
C496 C492 1.368 . S
C496 C495 1.523 . S
H497 C472 0.950 . S
H498 C474 0.950 . S
H499 C475 0.949 . S
H500 C477 0.950 . S
H501 C479 0.950 . S
C502 C503 1.349 . S
C502 C504 1.327 . S
C502 H527 0.950 . S
C503 C502 1.349 . S
C503 C519 1.349 . S
C504 C502 1.327 . S
C504 C523 1.429 . S
C504 H528 0.950 . S
C505 C522 1.574 . S
C505 C524 1.368 . S
C505 H529 0.949 . S
H506 C510 0.949 . S
C507 C508 1.349 . S
C507 C509 1.327 . S
C507 H530 0.950 . S
C508 C507 1.349 . S
C508 C520 1.349 . S
C509 C507 1.327 . S
C509 C525 1.429 . S
C509 H531 0.950 . S
C510 H506 0.949 . S
C510 C518 1.574 . S
C510 C526 1.368 . S
H511 C519 0.950 . S
H512 C517 0.950 . S
H513 C518 0.949 . S
H514 C520 0.950 . S
H515 C521 0.950 . S
H516 C522 0.949 . S
C517 H512 0.950 . S
C517 C519 1.327 . S
C517 C523 1.429 . S
C518 C510 1.574 . S
C518 H513 0.949 . S
C518 C524 1.368 . S
C519 C503 1.349 . S
C519 H511 0.950 . S
C519 C517 1.327 . S
C520 C508 1.349 . S
C520 H514 0.950 . S
C520 C521 1.327 . S
C521 H515 0.950 . S
C521 C520 1.327 . S
C521 C525 1.429 . S
C522 C505 1.574 . S
C522 H516 0.949 . S
C522 C526 1.368 . S
C523 C504 1.429 . S
C523 C517 1.429 . S
C523 C524 1.523 . S
C524 C505 1.368 . S
C524 C518 1.368 . S
C524 C523 1.523 . S
C525 C509 1.429 . S
C525 C521 1.429 . S
C525 C526 1.523 . S
C526 C510 1.368 . S
C526 C522 1.368 . S
C526 C525 1.523 . S
H527 C502 0.950 . S
H528 C504 0.950 . S
H529 C505 0.949 . S
H530 C507 0.950 . S
H531 C509 0.950 . S
C532 C533 1.349 . S
C532 C534 1.327 . S
C532 H557 0.950 . S
C533 C532 1.349 . S
C533 C549 1.349 . S
C534 C532 1.327 . S
C534 C553 1.429 . S
C534 H558 0.950 . S
C535 C552 1.574 . S
C535 C554 1.368 . S
C535 H559 0.949 . S
H536 C540 0.949 . S
C537 C538 1.349 . S
C537 C539 1.327 . S
C537 H560 0.950 . S
C538 C537 1.349 . S
C538 C550 1.349 . S
C539 C537 1.327 . S
C539 C555 1.429 . S
C539 H561 0.950 . S
C540 H536 0.949 . S
C540 C548 1.574 . S
C540 C556 1.368 . S
H541 C549 0.950 . S
H542 C547 0.950 . S
H543 C548 0.949 . S
H544 C550 0.950 . S
H545 C551 0.950 . S
H546 C552 0.949 . S
C547 H542 0.950 . S
C547 C549 1.327 . S
C547 C553 1.429 . S
C548 C540 1.574 . S
C548 H543 0.949 . S
C548 C554 1.368 . S
C549 C533 1.349 . S
C549 H541 0.950 . S
C549 C547 1.327 . S
C550 C538 1.349 . S
C550 H544 0.950 . S
C550 C551 1.327 . S
C551 H545 0.950 . S
C551 C550 1.327 . S
C551 C555 1.429 . S
C552 C535 1.574 . S
C552 H546 0.949 . S
C552 C556 1.368 . S
C553 C534 1.429 . S
C553 C547 1.429 . S
C553 C554 1.523 . S
C554 C535 1.368 . S
C554 C548 1.368 . S
C554 C553 1.523 . S
C555 C539 1.429 . S
C555 C551 1.429 . S
C555 C556 1.523 . S
C556 C540 1.368 . S
C556 C552 1.368 . S
C556 C555 1.523 . S
H557 C532 0.950 . S
H558 C534 0.950 . S
H559 C535 0.949 . S
H560 C537 0.950 . S
H561 C539 0.950 . S
C562 C563 1.349 . S
C562 C564 1.327 . S
C562 H587 0.950 . S
C563 C562 1.349 . S
C563 C579 1.349 . S
C564 C562 1.327 . S
C564 C583 1.429 . S
C564 H588 0.950 . S
C565 C582 1.574 . S
C565 C584 1.368 . S
C565 H589 0.949 . S
H566 C570 0.949 . S
C567 C568 1.349 . S
C567 C569 1.327 . S
C567 H590 0.950 . S
C568 C567 1.349 . S
C568 C580 1.349 . S
C569 C567 1.327 . S
C569 C585 1.429 . S
C569 H591 0.950 . S
C570 H566 0.949 . S
C570 C578 1.574 . S
C570 C586 1.368 . S
H571 C579 0.950 . S
H572 C577 0.950 . S
H573 C578 0.949 . S
H574 C580 0.950 . S
H575 C581 0.950 . S
H576 C582 0.949 . S
C577 H572 0.950 . S
C577 C579 1.327 . S
C577 C583 1.429 . S
C578 C570 1.574 . S
C578 H573 0.949 . S
C578 C584 1.368 . S
C579 C563 1.349 . S
C579 H571 0.950 . S
C579 C577 1.327 . S
C580 C568 1.349 . S
C580 H574 0.950 . S
C580 C581 1.327 . S
C581 H575 0.950 . S
C581 C580 1.327 . S
C581 C585 1.429 . S
C582 C565 1.574 . S
C582 H576 0.949 . S
C582 C586 1.368 . S
C583 C564 1.429 . S
C583 C577 1.429 . S
C583 C584 1.523 . S
C584 C565 1.368 . S
C584 C578 1.368 . S
C584 C583 1.523 . S
C585 C569 1.429 . S
C585 C581 1.429 . S
C585 C586 1.523 . S
C586 C570 1.368 . S
C586 C582 1.368 . S
C586 C585 1.523 . S
H587 C562 0.950 . S
H588 C564 0.950 . S
H589 C565 0.949 . S
H590 C567 0.950 . S
H591 C569 0.950 . S
C353 C29 0.709 . S
C358 C233 0.706 . S
C383 C108 0.709 . S
C388 C321 0.709 . S
C413 C49 0.709 . S
C418 C196 0.712 . S
C443 C145 0.709 . S
C448 C284 0.709 . S
C473 C137 1.591 . S
C478 C20 1.589 . S
C503 C117 1.591 . S
C508 C225 1.585 . S
C533 C313 1.591 . S
C538 C205 1.592 . S
C563 C293 1.591 . S
C568 C57 1.599 . S
