# Generated by pormake.
# Topology uoq, (4)-cn, num edge types: 1
# Building blocks:
#     Node 0, Type 0, BuildingBlock: ICAMEG_clean_sbu_1, # of connection points: 4
#     Node 1, Type 0, BuildingBlock: ICAMEG_clean_sbu_1, # of connection points: 4
#     Node 2, Type 0, BuildingBlock: ICAMEG_clean_sbu_1, # of connection points: 4
#     Node 3, Type 0, BuildingBlock: ICAMEG_clean_sbu_1, # of connection points: 4
#     Node 4, Type 0, BuildingBlock: ICAMEG_clean_sbu_1, # of connection points: 4
#     Node 5, Type 0, BuildingBlock: ICAMEG_clean_sbu_1, # of connection points: 4
#     Node 6, Type 0, BuildingBlock: ICAMEG_clean_sbu_1, # of connection points: 4
#     Node 7, Type 0, BuildingBlock: ICAMEG_clean_sbu_1, # of connection points: 4
#     Node 8, Type 0, BuildingBlock: ICAMEG_clean_sbu_1, # of connection points: 4
#     Node 9, Type 0, BuildingBlock: ICAMEG_clean_sbu_1, # of connection points: 4
#     Node 10, Type 0, BuildingBlock: ICAMEG_clean_sbu_1, # of connection points: 4
#     Node 11, Type 0, BuildingBlock: ICAMEG_clean_sbu_1, # of connection points: 4
#     Edge 12, Type (0, 0), BuildingBlock: MIFKUJ_clean_linker_0, # of connection points: 2
#     Edge 13, Type (0, 0), BuildingBlock: MIFKUJ_clean_linker_0, # of connection points: 2
#     Edge 14, Type (0, 0), BuildingBlock: MIFKUJ_clean_linker_0, # of connection points: 2
#     Edge 15, Type (0, 0), BuildingBlock: MIFKUJ_clean_linker_0, # of connection points: 2
#     Edge 16, Type (0, 0), BuildingBlock: MIFKUJ_clean_linker_0, # of connection points: 2
#     Edge 17, Type (0, 0), BuildingBlock: MIFKUJ_clean_linker_0, # of connection points: 2
#     Edge 18, Type (0, 0), BuildingBlock: MIFKUJ_clean_linker_0, # of connection points: 2
#     Edge 19, Type (0, 0), BuildingBlock: MIFKUJ_clean_linker_0, # of connection points: 2
#     Edge 20, Type (0, 0), BuildingBlock: MIFKUJ_clean_linker_0, # of connection points: 2
#     Edge 21, Type (0, 0), BuildingBlock: MIFKUJ_clean_linker_0, # of connection points: 2
#     Edge 22, Type (0, 0), BuildingBlock: MIFKUJ_clean_linker_0, # of connection points: 2
#     Edge 23, Type (0, 0), BuildingBlock: MIFKUJ_clean_linker_0, # of connection points: 2
#     Edge 24, Type (0, 0), BuildingBlock: MIFKUJ_clean_linker_0, # of connection points: 2
#     Edge 25, Type (0, 0), BuildingBlock: MIFKUJ_clean_linker_0, # of connection points: 2
#     Edge 26, Type (0, 0), BuildingBlock: MIFKUJ_clean_linker_0, # of connection points: 2
#     Edge 27, Type (0, 0), BuildingBlock: MIFKUJ_clean_linker_0, # of connection points: 2
#     Edge 28, Type (0, 0), BuildingBlock: MIFKUJ_clean_linker_0, # of connection points: 2
#     Edge 29, Type (0, 0), BuildingBlock: MIFKUJ_clean_linker_0, # of connection points: 2
#     Edge 30, Type (0, 0), BuildingBlock: MIFKUJ_clean_linker_0, # of connection points: 2
#     Edge 31, Type (0, 0), BuildingBlock: MIFKUJ_clean_linker_0, # of connection points: 2
#     Edge 32, Type (0, 0), BuildingBlock: MIFKUJ_clean_linker_0, # of connection points: 2
#     Edge 33, Type (0, 0), BuildingBlock: MIFKUJ_clean_linker_0, # of connection points: 2
#     Edge 34, Type (0, 0), BuildingBlock: MIFKUJ_clean_linker_0, # of connection points: 2
#     Edge 35, Type (0, 0), BuildingBlock: MIFKUJ_clean_linker_0, # of connection points: 2
# Relax obj value: 0.256
# Max RMSD: 0.234
# Mean RMSD: 0.234
data_MOF--net-uoq--node1-ICAMEG_clean_sbu_1--edge1-MIFKUJ_clean_linker_0
_symmetry_space_group_name_H-M    P1
_symmetry_Int_Tables_number       1
_symmetry_cell_setting            triclinic
loop_
_symmetry_equiv_pos_as_xyz
'x, y, z'
_cell_length_a     78.824691
_cell_length_b     78.778953
_cell_length_c     31.388092
_cell_angle_alpha  90.011581
_cell_angle_beta   89.985244
_cell_angle_gamma 120.03463
loop_
_atom_site_label
_atom_site_type_symbol
_atom_site_fract_x
_atom_site_fract_y
_atom_site_fract_z
_atom_type_partial_charge
Co0 Co 0.3153 0.44594 0.31592 0.0
Co1 Co 0.32535 0.45884 0.21005 0.0
O2 O 0.3078 0.45129 0.2599 0.0
C3 C 0.30127 0.47337 0.34071 0.0
O4 O 0.31075 0.48479 0.30841 0.0
C5 C 0.28353 0.43497 0.17437 0.0
O6 O 0.27637 0.43035 0.21306 0.0
O7 O 0.32854 0.43498 0.21796 0.0
O8 O 0.33035 0.43479 0.28924 0.0
H9 H 0.38621 0.47077 0.13288 0.0
H10 H 0.2732 0.43172 0.30136 0.0
O11 O 0.3008 0.45714 0.34607 0.0
H12 H 0.27742 0.37224 0.32752 0.0
H13 H 0.30369 0.42317 0.46859 0.0
H14 H 0.35226 0.45094 0.35258 0.0
H15 H 0.30711 0.40493 0.32974 0.0
H16 H 0.29439 0.42997 0.39835 0.0
O17 O 0.30217 0.44409 0.1688 0.0
H18 H 0.36383 0.46187 0.19429 0.0
H19 H 0.32411 0.47128 0.12045 0.0
H20 H 0.36211 0.44419 0.42219 0.0
H21 H 0.24309 0.39932 0.29967 0.0
H22 H 0.33774 0.43019 0.4808 0.0
H23 H 0.24512 0.36929 0.31266 0.0
O24 O 0.33929 0.47214 0.31588 0.0
H25 H 0.28959 0.49706 0.20951 0.0
H26 H 0.35341 0.50081 0.19064 0.0
H27 H 0.35123 0.53075 0.18356 0.0
H28 H 0.3191 0.52901 0.19267 0.0
H29 H 0.29248 0.46764 0.2172 0.0
H30 H 0.34594 0.48002 0.05816 0.0
H31 H 0.3773 0.47991 0.06418 0.0
O32 O 0.34906 0.4749 0.24769 0.0
C33 C 0.33311 0.42968 0.25275 0.0
C34 C 0.3726 0.4709 0.12987 0.0
C35 C 0.34998 0.47605 0.08791 0.0
N36 N 0.34268 0.46607 0.16107 0.0
C37 C 0.35988 0.46591 0.16457 0.0
C38 C 0.33762 0.47098 0.12327 0.0
C39 C 0.36758 0.47601 0.09133 0.0
C40 C 0.27417 0.41873 0.3074 0.0
N41 N 0.29189 0.42023 0.31551 0.0
C42 C 0.25708 0.40042 0.30626 0.0
C43 C 0.25824 0.38358 0.31351 0.0
C44 C 0.27637 0.38523 0.32184 0.0
C45 C 0.29314 0.40378 0.3228 0.0
C46 C 0.31443 0.42924 0.44328 0.0
C47 C 0.34153 0.44478 0.37784 0.0
C48 C 0.30927 0.43317 0.40346 0.0
N49 N 0.32273 0.44075 0.37127 0.0
C50 C 0.34721 0.44102 0.41724 0.0
C51 C 0.33354 0.43318 0.45011 0.0
C52 C 0.35213 0.48047 0.28671 0.0
C53 C 0.30364 0.49798 0.20496 0.0
C54 C 0.33936 0.49984 0.19466 0.0
C55 C 0.33822 0.51689 0.19056 0.0
C56 C 0.3202 0.51591 0.19566 0.0
N57 N 0.32302 0.4822 0.20325 0.0
C58 C 0.30535 0.48123 0.20883 0.0
Co59 Co 0.87309 0.30899 0.64357 0.0
Co60 Co 0.87263 0.32371 0.54143 0.0
O61 O 0.86168 0.30375 0.58639 0.0
C62 C 0.83142 0.29422 0.66807 0.0
O63 O 0.83144 0.30832 0.6457 0.0
C64 C 0.86045 0.28477 0.49613 0.0
O65 O 0.86628 0.27844 0.52852 0.0
O66 O 0.89905 0.32568 0.54865 0.0
O67 O 0.90006 0.32571 0.6203 0.0
H68 H 0.92343 0.38719 0.47569 0.0
H69 H 0.8472 0.26771 0.61705 0.0
O70 O 0.84647 0.2922 0.66879 0.0
H71 H 0.91044 0.27271 0.65328 0.0
H72 H 0.87949 0.29153 0.79481 0.0
H73 H 0.90336 0.34452 0.68815 0.0
H74 H 0.90604 0.30144 0.6599 0.0
H75 H 0.86613 0.28479 0.7218 0.0
O76 O 0.8636 0.30235 0.49609 0.0
H77 H 0.90907 0.36212 0.53206 0.0
H78 H 0.85965 0.32714 0.4539 0.0
H79 H 0.91714 0.35189 0.76073 0.0
H80 H 0.85089 0.2385 0.61041 0.0
H81 H 0.90518 0.32529 0.81468 0.0
H82 H 0.88271 0.24092 0.62847 0.0
O83 O 0.87001 0.33243 0.64828 0.0
H84 H 0.79911 0.2886 0.53152 0.0
H85 H 0.85945 0.35322 0.53565 0.0
H86 H 0.8274 0.35145 0.53056 0.0
H87 H 0.79693 0.31896 0.52827 0.0
H88 H 0.83142 0.29103 0.53718 0.0
H89 H 0.87357 0.35174 0.39654 0.0
H90 H 0.90565 0.38208 0.4073 0.0
O91 O 0.88072 0.34578 0.58396 0.0
C92 C 0.90839 0.32901 0.58405 0.0
C93 C 0.90944 0.37404 0.47062 0.0
C94 C 0.88147 0.35413 0.42618 0.0
N95 N 0.88353 0.34318 0.49638 0.0
C96 C 0.90122 0.3598 0.50246 0.0
C97 C 0.8737 0.34021 0.45874 0.0
C98 C 0.89946 0.37116 0.43225 0.0
C99 C 0.86104 0.26882 0.62524 0.0
N100 N 0.87637 0.28625 0.6388 0.0
C101 C 0.86307 0.25226 0.6213 0.0
C102 C 0.88093 0.25364 0.63138 0.0
C103 C 0.8965 0.27147 0.64525 0.0
C104 C 0.89394 0.28771 0.64877 0.0
C105 C 0.88482 0.30324 0.77159 0.0
C106 C 0.89814 0.33284 0.71136 0.0
C107 C 0.8773 0.29952 0.7302 0.0
N108 N 0.88403 0.31422 0.70065 0.0
C109 C 0.90595 0.33712 0.75247 0.0
C110 C 0.89922 0.32219 0.78273 0.0
C111 C 0.87606 0.34681 0.62253 0.0
C112 C 0.81228 0.30285 0.53231 0.0
C113 C 0.84628 0.33902 0.53478 0.0
C114 C 0.82816 0.33812 0.53183 0.0
C115 C 0.81107 0.31989 0.53054 0.0
N116 N 0.84737 0.32225 0.53625 0.0
C117 C 0.83065 0.30432 0.53532 0.0
Co118 Co 0.55885 0.86372 0.98103 0.0
Co119 Co 0.55398 0.87255 0.8748 0.0
O120 O 0.55556 0.8563 0.92072 0.0
C121 C 0.52636 0.82925 0.02307 0.0
O122 O 0.51976 0.8409 0.03469 0.0
C123 C 0.57869 0.85558 0.84057 0.0
O124 O 0.58376 0.8541 0.87955 0.0
O125 O 0.57872 0.89674 0.89562 0.0
O126 O 0.57654 0.89172 0.96633 0.0
H127 H 0.55539 0.93237 0.81478 0.0
H128 H 0.5653 0.8311 0.95595 0.0
O129 O 0.541 0.83556 0.99781 0.0
H130 H 0.62841 0.88184 0.01542 0.0
H131 H 0.56991 0.85689 0.1369 0.0
H132 H 0.55855 0.89585 0.02961 0.0
H133 H 0.60014 0.88708 0.01244 0.0
H134 H 0.56606 0.84756 0.06105 0.0
O135 O 0.56908 0.8645 0.83393 0.0
H136 H 0.55712 0.91162 0.87144 0.0
H137 H 0.54746 0.86769 0.78057 0.0
H138 H 0.56237 0.9057 0.10513 0.0
H139 H 0.59304 0.825 0.95928 0.0
H140 H 0.5681 0.88618 0.15936 0.0
H141 H 0.62494 0.85054 0.98891 0.0
O142 O 0.53617 0.86806 0.97777 0.0
H143 H 0.51041 0.8011 0.83907 0.0
H144 H 0.51485 0.86568 0.84704 0.0
H145 H 0.48396 0.83691 0.82397 0.0
H146 H 0.48162 0.80433 0.81959 0.0
H147 H 0.54089 0.83015 0.86261 0.0
H148 H 0.54583 0.88805 0.72292 0.0
H149 H 0.54972 0.92062 0.73988 0.0
O150 O 0.5377 0.87991 0.91198 0.0
C151 C 0.5839 0.90283 0.93403 0.0
C152 C 0.55367 0.9182 0.80699 0.0
C153 C 0.54834 0.89335 0.75542 0.0
N154 N 0.55243 0.88846 0.82939 0.0
C155 C 0.55461 0.90637 0.83895 0.0
C156 C 0.54939 0.88192 0.78821 0.0
C157 C 0.5505 0.91161 0.76496 0.0
C158 C 0.57906 0.84221 0.96934 0.0
N159 N 0.58112 0.85952 0.98367 0.0
C160 C 0.59475 0.8387 0.97093 0.0
C161 C 0.61265 0.85305 0.98747 0.0
C162 C 0.61462 0.87063 1.00224 0.0
C163 C 0.59861 0.87362 1.0001 0.0
C164 C 0.56744 0.86553 0.11355 0.0
C165 C 0.56107 0.88728 0.05299 0.0
C166 C 0.56525 0.86032 0.07054 0.0
N167 N 0.5621 0.87115 0.04085 0.0
C168 C 0.56322 0.89294 0.09571 0.0
C169 C 0.56642 0.88196 0.12613 0.0
C170 C 0.53057 0.87586 0.94967 0.0
C171 C 0.51128 0.81524 0.84061 0.0
C172 C 0.51396 0.85157 0.84543 0.0
C173 C 0.49642 0.83532 0.83222 0.0
C174 C 0.49512 0.81705 0.82975 0.0
N175 N 0.52984 0.84975 0.85568 0.0
C176 C 0.52858 0.83182 0.85371 0.0
Co177 Co 0.69998 0.56272 0.31157 0.0
Co178 Co 0.68874 0.55408 0.20422 0.0
O179 O 0.70596 0.55834 0.25338 0.0
C180 C 0.70357 0.53276 0.36075 0.0
O181 O 0.68515 0.52577 0.37151 0.0
C182 C 0.73097 0.57795 0.17164 0.0
O183 O 0.73733 0.58261 0.21085 0.0
O184 O 0.68764 0.57865 0.21861 0.0
O185 O 0.68826 0.57842 0.29041 0.0
H186 H 0.63009 0.54984 0.13069 0.0
H187 H 0.74075 0.57197 0.29419 0.0
O188 O 0.7117 0.54699 0.33441 0.0
H189 H 0.74628 0.63442 0.33997 0.0
H190 H 0.71431 0.57915 0.46742 0.0
H191 H 0.66524 0.56069 0.35315 0.0
H192 H 0.71403 0.60426 0.33652 0.0
H193 H 0.72182 0.57361 0.39427 0.0
O194 O 0.71247 0.56886 0.16437 0.0
H195 H 0.65176 0.55465 0.19167 0.0
H196 H 0.68943 0.54462 0.11209 0.0
H197 H 0.65703 0.56584 0.42607 0.0
H198 H 0.77336 0.6017 0.29813 0.0
H199 H 0.68167 0.57513 0.48384 0.0
H200 H 0.77626 0.63325 0.32089 0.0
O201 O 0.67391 0.53862 0.30787 0.0
H202 H 0.71977 0.51186 0.18837 0.0
H203 H 0.65816 0.51349 0.18031 0.0
H204 H 0.65778 0.48259 0.16579 0.0
H205 H 0.68877 0.48165 0.16946 0.0
H206 H 0.71946 0.54233 0.20334 0.0
H207 H 0.66829 0.53987 0.05018 0.0
H208 H 0.63832 0.54239 0.05927 0.0
O209 O 0.66456 0.53813 0.24021 0.0
C210 C 0.68536 0.5846 0.25522 0.0
C211 C 0.64312 0.54872 0.1263 0.0
C212 C 0.66457 0.54316 0.08111 0.0
N213 N 0.6719 0.55003 0.15553 0.0
C214 C 0.65544 0.55144 0.16074 0.0
C215 C 0.67656 0.54598 0.11629 0.0
C216 C 0.64775 0.54455 0.08624 0.0
C217 C 0.7419 0.5856 0.30447 0.0
N218 N 0.72546 0.58639 0.31467 0.0
C219 C 0.7604 0.60241 0.30648 0.0
C220 C 0.76202 0.62011 0.31918 0.0
C221 C 0.7452 0.62079 0.32979 0.0
C222 C 0.72695 0.60369 0.3274 0.0
C223 C 0.70342 0.57502 0.44261 0.0
C224 C 0.67603 0.56471 0.37812 0.0
C225 C 0.70761 0.57192 0.40107 0.0
N226 N 0.69401 0.56691 0.36939 0.0
C227 C 0.6713 0.5676 0.41936 0.0
C228 C 0.68512 0.5728 0.45175 0.0
C229 C 0.66105 0.53175 0.27853 0.0
C230 C 0.7062 0.51213 0.18624 0.0
C231 C 0.67174 0.51328 0.18192 0.0
C232 C 0.67142 0.4957 0.17365 0.0
C233 C 0.6888 0.49518 0.17573 0.0
N234 N 0.68891 0.52996 0.19166 0.0
C235 C 0.70595 0.52944 0.19435 0.0
Co236 Co 0.14637 0.70044 0.64751 0.0
Co237 Co 0.1419 0.68753 0.54022 0.0
O238 O 0.15583 0.70516 0.58838 0.0
C239 C 0.17921 0.70135 0.69491 0.0
O240 O 0.16674 0.68332 0.70675 0.0
C241 C 0.1586 0.72938 0.50645 0.0
O242 O 0.16105 0.73613 0.54547 0.0
O243 O 0.11624 0.68592 0.5572 0.0
O244 O 0.11903 0.69081 0.62818 0.0
H245 H 0.08678 0.62738 0.47236 0.0
H246 H 0.18001 0.73957 0.62623 0.0
O247 O 0.17386 0.71012 0.6685 0.0
H248 H 0.12825 0.75219 0.6778 0.0
H249 H 0.14847 0.71662 0.80367 0.0
H250 H 0.11222 0.66804 0.69125 0.0
H251 H 0.12269 0.71849 0.67505 0.0
H252 H 0.16038 0.72275 0.72948 0.0
O253 O 0.14941 0.71082 0.50006 0.0
H254 H 0.10473 0.64977 0.53165 0.0
H255 H 0.1498 0.68782 0.44678 0.0
H256 H 0.09972 0.6614 0.76495 0.0
H257 H 0.18642 0.77356 0.62943 0.0
H258 H 0.11792 0.68577 0.82179 0.0
H259 H 0.16037 0.78003 0.65507 0.0
O260 O 0.14166 0.67321 0.64498 0.0
H261 H 0.21467 0.72027 0.51377 0.0
H262 H 0.15227 0.65754 0.51351 0.0
H263 H 0.1827 0.65807 0.49313 0.0
H264 H 0.21419 0.68965 0.49268 0.0
H265 H 0.18404 0.71902 0.53485 0.0
H266 H 0.13225 0.66596 0.38655 0.0
H267 H 0.10053 0.63544 0.39914 0.0
O268 O 0.13507 0.66388 0.5766 0.0
C269 C 0.10907 0.68611 0.59388 0.0
C270 C 0.10057 0.64066 0.46644 0.0
C271 C 0.12607 0.66232 0.41828 0.0
N272 N 0.12822 0.67017 0.49275 0.0
C273 C 0.11079 0.6534 0.49991 0.0
C274 C 0.13588 0.67472 0.45252 0.0
C275 C 0.10829 0.64519 0.42537 0.0
C276 C 0.16866 0.74227 0.63778 0.0
N277 N 0.1509 0.72702 0.64994 0.0
C278 C 0.17235 0.76155 0.63935 0.0
C279 C 0.15772 0.76517 0.65367 0.0
C280 C 0.13968 0.74955 0.6663 0.0
C281 C 0.13652 0.73047 0.66426 0.0
C282 C 0.14041 0.70589 0.77918 0.0
C283 C 0.12019 0.67876 0.71577 0.0
C284 C 0.14709 0.70927 0.73712 0.0
N285 N 0.13699 0.69577 0.70601 0.0
C286 C 0.11305 0.6749 0.75746 0.0
C287 C 0.12327 0.68858 0.78933 0.0
C288 C 0.13657 0.66035 0.61575 0.0
C289 C 0.20102 0.70644 0.51349 0.0
C290 C 0.16589 0.67133 0.51369 0.0
C291 C 0.18309 0.67154 0.502 0.0
C292 C 0.20075 0.68925 0.50174 0.0
N293 N 0.16618 0.68828 0.52453 0.0
C294 C 0.18353 0.70565 0.52511 0.0
Co295 Co 0.45016 0.13821 0.97609 0.0
Co296 Co 0.46068 0.14073 0.86959 0.0
O297 O 0.45374 0.15081 0.92017 0.0
C298 C 0.47551 0.18036 0.99998 0.0
O299 O 0.48707 0.18316 0.96741 0.0
C300 C 0.43647 0.15869 0.83639 0.0
O301 O 0.43225 0.16117 0.8755 0.0
O302 O 0.43682 0.11392 0.87907 0.0
O303 O 0.43992 0.11192 0.94963 0.0
H304 H 0.47097 0.09121 0.79024 0.0
H305 H 0.4327 0.16345 0.96275 0.0
O306 O 0.46014 0.16385 0.00586 0.0
H307 H 0.37707 0.09806 0.99715 0.0
H308 H 0.43118 0.12663 0.13118 0.0
H309 H 0.45896 0.1084 0.01065 0.0
H310 H 0.41077 0.10373 0.99544 0.0
H311 H 0.43483 0.14187 0.06064 0.0
O312 O 0.44553 0.1492 0.82979 0.0
H313 H 0.46305 0.10498 0.85264 0.0
H314 H 0.47209 0.15421 0.77952 0.0
H315 H 0.45543 0.0927 0.08052 0.0
H316 H 0.39922 0.15849 0.96461 0.0
H317 H 0.44145 0.1018 0.14143 0.0
H318 H 0.37111 0.12558 0.98177 0.0
O319 O 0.47714 0.14256 0.97289 0.0
H320 H 0.49923 0.21473 0.86727 0.0
H321 H 0.50237 0.1543 0.84801 0.0
H322 H 0.5323 0.18634 0.83918 0.0
H323 H 0.53086 0.2169 0.84848 0.0
H324 H 0.46981 0.18249 0.87661 0.0
H325 H 0.47985 0.14083 0.71625 0.0
H326 H 0.47943 0.10916 0.72141 0.0
O327 O 0.47718 0.13303 0.90561 0.0
C328 C 0.4329 0.10405 0.9138 0.0
C329 C 0.47122 0.10503 0.7876 0.0
C330 C 0.47617 0.13286 0.74606 0.0
N331 N 0.46712 0.13039 0.81983 0.0
C332 C 0.46679 0.11293 0.82286 0.0
C333 C 0.47166 0.14031 0.78197 0.0
C334 C 0.47595 0.1151 0.74898 0.0
C335 C 0.42054 0.14911 0.97038 0.0
N336 N 0.42368 0.13389 0.97865 0.0
C337 C 0.40162 0.14638 0.97134 0.0
C338 C 0.38586 0.12791 0.98093 0.0
C339 C 0.38918 0.11246 0.98953 0.0
C340 C 0.4083 0.11574 0.98828 0.0
C341 C 0.43727 0.12253 0.10488 0.0
C342 C 0.45279 0.1124 0.03691 0.0
C343 C 0.43942 0.13114 0.06488 0.0
N344 N 0.44704 0.12599 0.03146 0.0
C345 C 0.45086 0.10347 0.07645 0.0
C346 C 0.44303 0.10859 0.11061 0.0
C347 C 0.48452 0.13727 0.94318 0.0
C348 C 0.50001 0.20152 0.86259 0.0
C349 C 0.50153 0.16747 0.85201 0.0
C350 C 0.51857 0.1856 0.84697 0.0
C351 C 0.51776 0.20273 0.8522 0.0
N352 N 0.48405 0.16633 0.86161 0.0
C353 C 0.48326 0.18312 0.86738 0.0
Co354 Co 0.56425 0.69416 0.36619 0.0
Co355 Co 0.55543 0.68543 0.47268 0.0
O356 O 0.56189 0.70293 0.42323 0.0
C357 C 0.53886 0.71116 0.34508 0.0
O358 O 0.52634 0.70023 0.37462 0.0
C359 C 0.58061 0.72733 0.50658 0.0
O360 O 0.58474 0.73414 0.46756 0.0
O361 O 0.57894 0.68226 0.45988 0.0
O362 O 0.57395 0.67706 0.38964 0.0
H363 H 0.54541 0.62465 0.54718 0.0
H364 H 0.58337 0.73695 0.38134 0.0
O365 O 0.55478 0.71098 0.3398 0.0
H366 H 0.6368 0.72498 0.33959 0.0
H367 H 0.58061 0.70251 0.20962 0.0
H368 H 0.5534 0.65547 0.32856 0.0
H369 H 0.60269 0.69772 0.3428 0.0
H370 H 0.5788 0.71378 0.2819 0.0
O371 O 0.57136 0.70873 0.5129 0.0
H372 H 0.5527 0.64692 0.48607 0.0
H373 H 0.54548 0.68692 0.56419 0.0
H374 H 0.55505 0.6436 0.2569 0.0
H375 H 0.61729 0.76471 0.37802 0.0
H376 H 0.56874 0.66719 0.19678 0.0
H377 H 0.64429 0.75878 0.35717 0.0
O378 O 0.53702 0.6721 0.37052 0.0
H379 H 0.51811 0.72188 0.48481 0.0
H380 H 0.51387 0.65746 0.49597 0.0
H381 H 0.48455 0.6601 0.50989 0.0
H382 H 0.48658 0.69253 0.50485 0.0
H383 H 0.54687 0.71853 0.47018 0.0
H384 H 0.53836 0.66518 0.6262 0.0
H385 H 0.53819 0.63374 0.61789 0.0
O386 O 0.53808 0.66155 0.43622 0.0
C387 C 0.58177 0.67604 0.42424 0.0
C388 C 0.54542 0.6383 0.5512 0.0
C389 C 0.5415 0.66106 0.59557 0.0
N390 N 0.5495 0.66819 0.52146 0.0
C391 C 0.5495 0.65096 0.51669 0.0
C392 C 0.54565 0.67336 0.56035 0.0
C393 C 0.54139 0.64342 0.59087 0.0
C394 C 0.59504 0.73428 0.37211 0.0
N395 N 0.59105 0.71572 0.36262 0.0
C396 C 0.61422 0.75004 0.37034 0.0
C397 C 0.62936 0.74671 0.35867 0.0
C398 C 0.62517 0.72774 0.34884 0.0
C399 C 0.60582 0.71235 0.35095 0.0
C400 C 0.57463 0.69209 0.23556 0.0
C401 C 0.55945 0.66586 0.30265 0.0
C402 C 0.57352 0.69838 0.27654 0.0
N403 N 0.56606 0.68532 0.3095 0.0
C404 C 0.56031 0.65904 0.26209 0.0
C405 C 0.56797 0.67227 0.22838 0.0
C406 C 0.52995 0.65908 0.39959 0.0
C407 C 0.51709 0.7077 0.48767 0.0
C408 C 0.51496 0.67166 0.49376 0.0
C409 C 0.49826 0.67305 0.50165 0.0
C410 C 0.4994 0.69123 0.49879 0.0
N411 N 0.53243 0.68795 0.4837 0.0
C412 C 0.53348 0.70574 0.47989 0.0
Co413 Co 0.87259 0.55651 0.7045 0.0
Co414 Co 0.87909 0.55182 0.81067 0.0
O415 O 0.86445 0.55509 0.76381 0.0
C416 C 0.83568 0.5283 0.66235 0.0
O417 O 0.84469 0.51877 0.65136 0.0
C418 C 0.86245 0.57696 0.84438 0.0
O419 O 0.86045 0.5815 0.80527 0.0
O420 O 0.90399 0.57605 0.79107 0.0
O421 O 0.90084 0.56949 0.72097 0.0
H422 H 0.93639 0.54978 0.87512 0.0
H423 H 0.84589 0.57192 0.72327 0.0
O424 O 0.84434 0.54341 0.68623 0.0
H425 H 0.90625 0.62843 0.66765 0.0
H426 H 0.87148 0.56905 0.54734 0.0
H427 H 0.90022 0.54744 0.65959 0.0
H428 H 0.90356 0.59598 0.67365 0.0
H429 H 0.86153 0.56759 0.62229 0.0
O430 O 0.87152 0.56749 0.85116 0.0
H431 H 0.9173 0.55322 0.81698 0.0
H432 H 0.87237 0.54433 0.90425 0.0
H433 H 0.91045 0.54848 0.58493 0.0
H434 H 0.84785 0.60403 0.71685 0.0
H435 H 0.89603 0.55934 0.52817 0.0
H436 H 0.87825 0.6326 0.68909 0.0
O437 O 0.87074 0.53064 0.71132 0.0
H438 H 0.8067 0.51024 0.83976 0.0
H439 H 0.86995 0.5117 0.83673 0.0
H440 H 0.83998 0.48116 0.85655 0.0
H441 H 0.80807 0.48032 0.85851 0.0
H442 H 0.83689 0.54032 0.81943 0.0
H443 H 0.89108 0.541 0.96337 0.0
H444 H 0.9233 0.54363 0.94895 0.0
O445 O 0.88596 0.53485 0.77391 0.0
C446 C 0.9113 0.57822 0.75349 0.0
C447 C 0.92236 0.54859 0.8818 0.0
C448 C 0.89695 0.54369 0.93134 0.0
N449 N 0.89373 0.54897 0.85714 0.0
C450 C 0.91147 0.5505 0.84899 0.0
C451 C 0.88646 0.54569 0.89774 0.0
C452 C 0.91502 0.54515 0.92322 0.0
C453 C 0.85911 0.58421 0.71075 0.0
N454 N 0.8746 0.58203 0.69907 0.0
C455 C 0.86016 0.60239 0.70737 0.0
C456 C 0.87722 0.61842 0.69186 0.0
C457 C 0.89296 0.61609 0.67988 0.0
C458 C 0.89138 0.59769 0.68366 0.0
C459 C 0.87784 0.56425 0.57174 0.0
C460 C 0.89391 0.5522 0.6351 0.0
C461 C 0.87232 0.56346 0.61428 0.0
N462 N 0.8804 0.55756 0.64538 0.0
C463 C 0.89974 0.55275 0.59286 0.0
C464 C 0.89163 0.55883 0.56103 0.0
C465 C 0.87906 0.52545 0.73899 0.0
C466 C 0.82055 0.51048 0.83952 0.0
C467 C 0.85615 0.51153 0.83761 0.0
C468 C 0.83922 0.49416 0.84886 0.0
C469 C 0.82132 0.49369 0.84992 0.0
N470 N 0.85536 0.52805 0.8279 0.0
C471 C 0.83779 0.52758 0.82833 0.0
Co472 Co 0.31759 0.87667 0.02529 0.0
Co473 Co 0.32781 0.87515 0.13123 0.0
O474 O 0.31029 0.86429 0.08168 0.0
C475 C 0.30458 0.8352 1.00167 0.0
O476 O 0.31579 0.83442 0.03166 0.0
C477 C 0.28586 0.85578 0.16653 0.0
O478 O 0.2788 0.85305 0.12773 0.0
O479 O 0.32957 0.90147 0.12231 0.0
O480 O 0.33212 0.90331 0.05093 0.0
H481 H 0.38753 0.92636 0.20815 0.0
H482 H 0.27561 0.84846 0.0412 0.0
O483 O 0.30324 0.85052 0.99682 0.0
H484 H 0.27868 0.91107 0.00745 0.0
H485 H 0.30597 0.88564 0.87119 0.0
H486 H 0.35437 0.90849 0.98778 0.0
H487 H 0.30865 0.90863 0.00719 0.0
H488 H 0.29663 0.87064 0.94252 0.0
O489 O 0.30446 0.86577 0.17239 0.0
H490 H 0.36532 0.91186 0.1468 0.0
H491 H 0.32733 0.86196 0.22087 0.0
H492 H 0.36428 0.92403 0.91706 0.0
H493 H 0.2452 0.85017 0.04126 0.0
H494 H 0.34 0.9126 0.85814 0.0
H495 H 0.24664 0.88168 0.02447 0.0
O496 O 0.34186 0.87496 0.02635 0.0
H497 H 0.29543 0.8013 0.1326 0.0
H498 H 0.35762 0.86346 0.14968 0.0
H499 H 0.35738 0.83222 0.15599 0.0
H500 H 0.3261 0.80079 0.14768 0.0
H501 H 0.29638 0.83278 0.12565 0.0
H502 H 0.34902 0.87601 0.28313 0.0
H503 H 0.37942 0.9084 0.27696 0.0
O504 O 0.3517 0.88388 0.0938 0.0
C505 C 0.33393 0.91117 0.08725 0.0
C506 C 0.37433 0.91223 0.21123 0.0
C507 C 0.3527 0.88399 0.25333 0.0
N508 N 0.34504 0.88609 0.18015 0.0
C509 C 0.36171 0.90393 0.17657 0.0
C510 C 0.34042 0.87615 0.21799 0.0
C511 C 0.36977 0.90215 0.24984 0.0
C512 C 0.27633 0.8622 0.03372 0.0
N513 N 0.29391 0.87845 0.02462 0.0
C514 C 0.25907 0.86309 0.03387 0.0
C515 C 0.25989 0.88077 0.02447 0.0
C516 C 0.27787 0.89727 0.01498 0.0
C517 C 0.29482 0.89583 0.01516 0.0
C518 C 0.31669 0.89075 0.8966 0.0
C519 C 0.34369 0.90347 0.96237 0.0
C520 C 0.3115 0.88226 0.93703 0.0
N521 N 0.32492 0.8887 0.96934 0.0
C522 C 0.3494 0.91231 0.92236 0.0
C523 C 0.33578 0.90588 0.88931 0.0
C524 C 0.35485 0.88059 0.05546 0.0
C525 C 0.30912 0.81489 0.1368 0.0
C526 C 0.3439 0.8499 0.14621 0.0
C527 C 0.34388 0.83223 0.14979 0.0
C528 C 0.32634 0.81461 0.14512 0.0
N529 N 0.32693 0.85013 0.13846 0.0
C530 C 0.30972 0.83286 0.13336 0.0
Co531 Co 0.45297 0.31549 0.3582 0.0
Co532 Co 0.46009 0.32789 0.46583 0.0
O533 O 0.45745 0.31081 0.41746 0.0
C534 C 0.48581 0.31612 0.31159 0.0
O535 O 0.49059 0.33389 0.29924 0.0
C536 C 0.43575 0.2857 0.49825 0.0
O537 O 0.43226 0.27916 0.45899 0.0
O538 O 0.43574 0.32868 0.44779 0.0
O539 O 0.43411 0.32385 0.37674 0.0
H540 H 0.46218 0.38656 0.53435 0.0
H541 H 0.44924 0.27696 0.37864 0.0
O542 O 0.47194 0.30711 0.33842 0.0
H543 H 0.38454 0.26161 0.32342 0.0
H544 H 0.44167 0.2998 0.20127 0.0
H545 H 0.44951 0.3468 0.31395 0.0
H546 H 0.41135 0.29589 0.32913 0.0
H547 H 0.44675 0.29374 0.27607 0.0
O548 O 0.44445 0.30422 0.50515 0.0
H549 H 0.45918 0.36487 0.47469 0.0
H550 H 0.46692 0.3273 0.55956 0.0
H551 H 0.44394 0.35314 0.23955 0.0
H552 H 0.42302 0.24245 0.37234 0.0
H553 H 0.44011 0.3296 0.18278 0.0
H554 H 0.39035 0.23459 0.34483 0.0
O555 O 0.47467 0.34322 0.36161 0.0
H556 H 0.50193 0.29711 0.49188 0.0
H557 H 0.49979 0.35856 0.49489 0.0
H558 H 0.53016 0.35902 0.51549 0.0
H559 H 0.53133 0.32809 0.51446 0.0
H560 H 0.47205 0.29737 0.47083 0.0
H561 H 0.46982 0.34848 0.62015 0.0
H562 H 0.46752 0.3784 0.60775 0.0
O563 O 0.47674 0.35195 0.43033 0.0
C564 C 0.42837 0.32816 0.41092 0.0
C565 C 0.46317 0.37355 0.54018 0.0
C566 C 0.46742 0.35216 0.58834 0.0
N567 N 0.46273 0.34475 0.51356 0.0
C568 C 0.46147 0.3612 0.50651 0.0
C569 C 0.46565 0.34015 0.55389 0.0
C570 C 0.46616 0.36896 0.58135 0.0
C571 C 0.43511 0.27367 0.36635 0.0
N572 N 0.43178 0.28847 0.35471 0.0
C573 C 0.42029 0.25409 0.36304 0.0
C574 C 0.40195 0.2497 0.34767 0.0
C575 C 0.39867 0.26485 0.33574 0.0
C576 C 0.41384 0.28426 0.33947 0.0
C577 C 0.44326 0.31012 0.22586 0.0
C578 C 0.44769 0.33642 0.28936 0.0
C579 C 0.44619 0.30681 0.26823 0.0
N580 N 0.44846 0.31994 0.29936 0.0
C581 C 0.4446 0.34011 0.24737 0.0
C582 C 0.44243 0.32687 0.21547 0.0
C583 C 0.48193 0.35591 0.39134 0.0
C584 C 0.50156 0.31066 0.49285 0.0
C585 C 0.50015 0.34504 0.49419 0.0
C586 C 0.51741 0.34539 0.50598 0.0
C587 C 0.51806 0.32804 0.50541 0.0
N588 N 0.4839 0.32788 0.48246 0.0
C589 C 0.48456 0.31088 0.48123 0.0
Co590 Co 0.14291 0.45145 0.6893 0.0
Co591 Co 0.1397 0.45775 0.7962 0.0
O592 O 0.15264 0.4532 0.74752 0.0
C593 C 0.18555 0.47946 0.67556 0.0
O594 O 0.18606 0.49012 0.70818 0.0
C595 C 0.15786 0.43384 0.83016 0.0
O596 O 0.16141 0.4305 0.79116 0.0
O597 O 0.11416 0.43355 0.77996 0.0
O598 O 0.11508 0.439 0.70942 0.0
H599 H 0.08493 0.46219 0.86735 0.0
H600 H 0.1689 0.43506 0.70551 0.0
O601 O 0.17005 0.46361 0.66609 0.0
H602 H 0.10711 0.37959 0.65211 0.0
H603 H 0.143 0.44195 0.53068 0.0
H604 H 0.11556 0.46204 0.64858 0.0
H605 H 0.11089 0.41247 0.65931 0.0
H606 H 0.15158 0.43962 0.60518 0.0
O607 O 0.1477 0.44226 0.83626 0.0
H608 H 0.10214 0.45733 0.80712 0.0
H609 H 0.14901 0.46664 0.88877 0.0
H610 H 0.10803 0.46614 0.57449 0.0
H611 H 0.16586 0.40246 0.69822 0.0
H612 H 0.1213 0.45554 0.51493 0.0
H613 H 0.13476 0.37443 0.67148 0.0
O614 O 0.14585 0.47776 0.69585 0.0
H615 H 0.21292 0.499 0.81609 0.0
H616 H 0.1501 0.4983 0.82145 0.0
H617 H 0.18068 0.52881 0.83795 0.0
H618 H 0.2124 0.52926 0.83583 0.0
H619 H 0.18214 0.46903 0.79861 0.0
H620 H 0.1322 0.47137 0.94993 0.0
H621 H 0.09997 0.46926 0.9394 0.0
O622 O 0.13227 0.47445 0.76013 0.0
C623 C 0.10582 0.43046 0.74333 0.0
C624 C 0.09898 0.46316 0.87234 0.0
C625 C 0.12549 0.46828 0.9187 0.0
N626 N 0.12656 0.46171 0.84432 0.0
C627 C 0.1088 0.46045 0.83832 0.0
C628 C 0.13489 0.46548 0.88394 0.0
C629 C 0.10741 0.46711 0.91276 0.0
C630 C 0.15534 0.42293 0.69379 0.0
N631 N 0.14004 0.42563 0.68326 0.0
C632 C 0.1537 0.40451 0.68976 0.0
C633 C 0.13624 0.38879 0.67477 0.0
C634 C 0.12071 0.39167 0.66395 0.0
C635 C 0.1229 0.4103 0.66836 0.0
C636 C 0.13693 0.44637 0.55641 0.0
C637 C 0.12158 0.45755 0.6229 0.0
C638 C 0.14157 0.44492 0.5987 0.0
N639 N 0.13394 0.45053 0.63133 0.0
C640 C 0.11717 0.45982 0.58097 0.0
C641 C 0.12475 0.45401 0.54757 0.0
C642 C 0.13815 0.48329 0.72431 0.0
C643 C 0.19917 0.49892 0.81766 0.0
C644 C 0.1638 0.4983 0.82041 0.0
C645 C 0.18109 0.51566 0.82983 0.0
C646 C 0.19888 0.51591 0.82861 0.0
N647 N 0.16411 0.48156 0.81024 0.0
C648 C 0.18158 0.48185 0.80826 0.0
Co649 Co 0.69665 0.13403 0.03506 0.0
Co650 Co 0.68365 0.13612 0.1379 0.0
O651 O 0.70289 0.14624 0.09149 0.0
C652 C 0.71148 0.17531 0.00629 0.0
O653 O 0.69775 0.17606 0.02849 0.0
C654 C 0.72287 0.14794 0.18215 0.0
O655 O 0.72857 0.14075 0.15115 0.0
O656 O 0.6812 0.10935 0.1317 0.0
O657 O 0.67997 0.10747 0.06014 0.0
H658 H 0.62098 0.08672 0.20877 0.0
H659 H 0.7383 0.15984 0.05878 0.0
O660 O 0.71337 0.16019 0.00776 0.0
H661 H 0.73187 0.09562 0.02621 0.0
H662 H 0.71167 0.12544 0.8832 0.0
H663 H 0.66031 0.10349 0.99335 0.0
H664 H 0.7034 0.10046 0.02024 0.0
H665 H 0.71965 0.1395 0.95554 0.0
O666 O 0.70563 0.14564 0.18173 0.0
H667 H 0.6452 0.1001 0.15058 0.0
H668 H 0.68177 0.15037 0.22518 0.0
H669 H 0.65173 0.08895 0.92152 0.0
H670 H 0.76726 0.15572 0.06474 0.0
H671 H 0.67749 0.1 0.86577 0.0
H672 H 0.76413 0.12341 0.04847 0.0
O673 O 0.67334 0.1374 0.0314 0.0
H674 H 0.7197 0.20983 0.14063 0.0
H675 H 0.65477 0.15002 0.14651 0.0
H676 H 0.65708 0.18236 0.1492 0.0
H677 H 0.68974 0.21259 0.14641 0.0
H678 H 0.7167 0.17718 0.13745 0.0
H679 H 0.65803 0.13744 0.28429 0.0
H680 H 0.62732 0.10544 0.27624 0.0
O681 O 0.66103 0.12778 0.09693 0.0
C682 C 0.67712 0.09955 0.09675 0.0
C683 C 0.63429 0.1007 0.21265 0.0
C684 C 0.6551 0.12914 0.25506 0.0
N685 N 0.66488 0.12601 0.18436 0.0
C686 C 0.64806 0.10836 0.17978 0.0
C687 C 0.66854 0.13635 0.22151 0.0
C688 C 0.63787 0.1112 0.25051 0.0
C689 C 0.73688 0.14579 0.05132 0.0
N690 N 0.71921 0.13044 0.03902 0.0
C691 C 0.7533 0.14352 0.05489 0.0
C692 C 0.75153 0.12538 0.0458 0.0
C693 C 0.73344 0.10978 0.03333 0.0
C694 C 0.71735 0.11259 0.03012 0.0
C695 C 0.70031 0.12053 0.90719 0.0
C696 C 0.67164 0.10828 0.96939 0.0
C697 C 0.70474 0.12845 0.94822 0.0
N698 N 0.69048 0.12229 0.97872 0.0
C699 C 0.66667 0.10004 0.9287 0.0
C700 C 0.68113 0.10626 0.89743 0.0
C701 C 0.65942 0.1319 0.05825 0.0
C702 C 0.70538 0.19677 0.14198 0.0
C703 C 0.66902 0.16306 0.14506 0.0
C704 C 0.67024 0.18136 0.14673 0.0
C705 C 0.68857 0.19831 0.14518 0.0
N706 N 0.68557 0.16165 0.14201 0.0
C707 C 0.70359 0.17822 0.14034 0.0
H708 H 0.32056 0.39111 0.2318 0.0
H709 H 0.33564 0.37205 0.25659 0.0
H710 H 0.38424 0.42486 0.30799 0.0
H711 H 0.36975 0.44375 0.2813 0.0
H712 H 0.39855 0.40462 0.28679 0.0
H713 H 0.34219 0.3897 0.36913 0.0
H714 H 0.30757 0.3789 0.38452 0.0
H715 H 0.29028 0.32193 0.33345 0.0
H716 H 0.32483 0.33245 0.31746 0.0
H717 H 0.4293 0.36089 0.44428 0.0
H718 H 0.41151 0.37682 0.41703 0.0
H719 H 0.37796 0.32761 0.33394 0.0
H720 H 0.39574 0.31178 0.36081 0.0
H721 H 0.35581 0.34505 0.37149 0.0
H722 H 0.41725 0.3649 0.29217 0.0
H723 H 0.45307 0.37811 0.29369 0.0
H724 H 0.4612 0.42961 0.35833 0.0
H725 H 0.4256 0.41691 0.35692 0.0
C726 C 0.33491 0.3987 0.24649 0.0
C727 C 0.3442 0.41901 0.25362 0.0
C728 C 0.34336 0.38774 0.26171 0.0
C729 C 0.36098 0.3968 0.28542 0.0
C730 C 0.37073 0.4173 0.28998 0.0
C731 C 0.36248 0.42819 0.27433 0.0
C732 C 0.36886 0.38514 0.30755 0.0
C733 C 0.38907 0.39167 0.30536 0.0
C734 C 0.35685 0.36826 0.33262 0.0
C735 C 0.33606 0.36192 0.34165 0.0
C736 C 0.33099 0.37492 0.36087 0.0
C737 C 0.31139 0.36884 0.36978 0.0
C738 C 0.29673 0.34976 0.35985 0.0
C739 C 0.30165 0.33671 0.34105 0.0
C740 C 0.32124 0.34272 0.3321 0.0
C741 C 0.41765 0.35313 0.42141 0.0
C742 C 0.41397 0.335 0.40485 0.0
C743 C 0.4076 0.36236 0.40545 0.0
C744 C 0.39351 0.35355 0.37292 0.0
C745 C 0.38873 0.33476 0.35889 0.0
C746 C 0.39894 0.32569 0.37438 0.0
C747 C 0.38525 0.36461 0.35038 0.0
C748 C 0.36507 0.35793 0.3525 0.0
C749 C 0.39734 0.38179 0.32667 0.0
C750 C 0.4188 0.38996 0.32454 0.0
C751 C 0.42672 0.3791 0.30648 0.0
C752 C 0.44695 0.38645 0.30737 0.0
C753 C 0.45936 0.40456 0.32625 0.0
C754 C 0.45162 0.41557 0.34367 0.0
C755 C 0.43143 0.40837 0.34265 0.0
H756 H 0.47496 0.40999 0.32739 0.0
H757 H 0.28157 0.34506 0.36684 0.0
H758 H 0.93206 0.31291 0.58507 0.0
H759 H 0.96597 0.32888 0.61138 0.0
H760 H 0.96637 0.38372 0.62096 0.0
H761 H 0.93287 0.36787 0.59347 0.0
H762 H 1.00081 0.39119 0.59756 0.0
H763 H 0.95615 0.35037 0.70673 0.0
H764 H 0.93013 0.31889 0.73552 0.0
H765 H 0.9676 0.29423 0.72281 0.0
H766 H 0.99372 0.32538 0.69284 0.0
H767 H 0.07925 0.44261 0.73933 0.0
H768 H 0.04576 0.4243 0.71146 0.0
H769 H 0.05079 0.37239 0.70187 0.0
H770 H 0.08433 0.3908 0.73043 0.0
H771 H 0.01383 0.36212 0.72477 0.0
H772 H 0.0556 0.39993 0.60757 0.0
H773 H 0.0793 0.42854 0.56595 0.0
H774 H 0.04684 0.45781 0.59232 0.0
H775 H 0.02254 0.429 0.633 0.0
C776 C 0.93978 0.32857 0.59091 0.0
C777 C 0.93007 0.3393 0.58568 0.0
C778 C 0.95903 0.33763 0.60692 0.0
C779 C 0.96878 0.35752 0.61926 0.0
C780 C 0.95936 0.36841 0.61185 0.0
C781 C 0.94024 0.3594 0.59552 0.0
C782 C 0.98838 0.36694 0.64131 0.0
C783 C 1.00346 0.38489 0.62575 0.0
C784 C 0.99228 0.35865 0.67763 0.0
C785 C 0.97685 0.34017 0.69716 0.0
C786 C 0.95883 0.33822 0.70991 0.0
C787 C 0.94405 0.32043 0.7264 0.0
C788 C 0.9472 0.30458 0.73096 0.0
C789 C 0.96517 0.30651 0.71919 0.0
C790 C 0.97997 0.32422 0.70241 0.0
C791 C 0.07292 0.4271 0.73284 0.0
C792 C 0.08422 0.418 0.73842 0.0
C793 C 0.05386 0.41668 0.71608 0.0
C794 C 0.04565 0.39693 0.70364 0.0
C795 C 0.05662 0.38756 0.71112 0.0
C796 C 0.07575 0.39802 0.72794 0.0
C797 C 0.02613 0.3865 0.68117 0.0
C798 C 0.01109 0.3684 0.6967 0.0
C799 C 0.02214 0.39459 0.64478 0.0
C800 C 0.03746 0.41249 0.62366 0.0
C801 C 0.05369 0.41259 0.60495 0.0
C802 C 0.06716 0.4288 0.58132 0.0
C803 C 0.06469 0.44509 0.57679 0.0
C804 C 0.04875 0.44521 0.59593 0.0
C805 C 0.03507 0.4289 0.61904 0.0
H806 H 0.075 0.45757 0.55811 0.0
H807 H 0.93571 0.29082 0.74367 0.0
H808 H 0.60399 0.91788 0.00794 0.0
H809 H 0.62041 0.95144 0.03259 0.0
H810 H 0.61132 0.97053 0.91049 0.0
H811 H 0.59447 0.93627 0.88489 0.0
H812 H 0.65011 0.99725 0.9536 0.0
H813 H 0.58118 0.96652 0.97816 0.0
H814 H 0.54906 0.93919 1.00057 0.0
H815 H 0.57056 0.94355 0.12812 0.0
H816 H 0.60294 0.97069 0.10627 0.0
H817 H 0.63849 0.07494 0.0847 0.0
H818 H 0.62347 0.04172 0.05556 0.0
H819 H 0.67808 0.04228 0.0719 0.0
H820 H 0.69324 0.07588 0.09978 0.0
H821 H 0.61497 0.00654 0.07458 0.0
H822 H 0.68529 0.01793 0.99088 0.0
H823 H 0.71677 0.04517 0.96506 0.0
H824 H 0.69044 0.08097 0.9482 0.0
H825 H 0.65871 0.05389 0.97321 0.0
C826 C 0.60577 0.92907 0.98551 0.0
C827 C 0.5977 0.92405 0.94415 0.0
C828 C 0.6152 0.94842 0.99999 0.0
C829 C 0.61695 0.96359 0.97379 0.0
C830 C 0.61015 0.95907 0.93143 0.0
C831 C 0.60056 0.93945 0.91673 0.0
C832 C 0.6243 0.98355 0.99278 0.0
C833 C 0.64241 0.99933 0.97988 0.0
C834 C 0.61417 0.98644 0.02681 0.0
C835 C 0.59454 0.97057 0.0405 0.0
C836 C 0.57909 0.96159 0.01095 0.0
C837 C 0.56084 0.94613 0.02354 0.0
C838 C 0.55779 0.93962 0.06572 0.0
C839 C 0.57296 0.94862 0.09544 0.0
C840 C 0.59126 0.96405 0.08298 0.0
C841 C 0.64703 0.06762 0.08388 0.0
C842 C 0.66688 0.07782 0.0959 0.0
C843 C 0.63849 0.04865 0.06662 0.0
C844 C 0.64964 0.03941 0.06043 0.0
C845 C 0.66915 0.04908 0.07535 0.0
C846 C 0.67774 0.06816 0.09232 0.0
C847 C 0.64116 0.02035 0.03619 0.0
C848 C 0.62275 1.00464 0.04818 0.0
C849 C 0.65085 0.0177 1.00073 0.0
C850 C 0.66966 0.03391 0.98428 0.0
C851 C 0.68618 0.03157 0.98136 0.0
C852 C 0.70407 0.047 0.9669 0.0
C853 C 0.70559 0.0648 0.95505 0.0
C854 C 0.68921 0.06718 0.95738 0.0
C855 C 0.67127 0.0518 0.97172 0.0
H856 H 0.71947 0.07677 0.94405 0.0
H857 H 0.54367 0.9276 0.07539 0.0
H858 H 0.64798 0.57616 0.23924 0.0
H859 H 0.63185 0.59324 0.26832 0.0
H860 H 0.68744 0.63922 0.31526 0.0
H861 H 0.70344 0.62176 0.28694 0.0
H862 H 0.66267 0.62946 0.37609 0.0
H863 H 0.66005 0.64538 0.23031 0.0
H864 H 0.65306 0.63926 0.15352 0.0
H865 H 0.59183 0.60208 0.1805 0.0
H866 H 0.59848 0.60775 0.25752 0.0
H867 H 0.62123 0.69059 0.43792 0.0
H868 H 0.64071 0.67657 0.40932 0.0
H869 H 0.58759 0.62522 0.36842 0.0
H870 H 0.56834 0.63916 0.39675 0.0
H871 H 0.61282 0.64 0.30373 0.0
H872 H 0.61612 0.62353 0.44996 0.0
H873 H 0.62341 0.63021 0.52653 0.0
H874 H 0.68402 0.66964 0.49771 0.0
H875 H 0.67704 0.6634 0.42088 0.0
C876 C 0.65691 0.59036 0.25392 0.0
C877 C 0.67713 0.59788 0.25948 0.0
C878 C 0.64761 0.6001 0.27109 0.0
C879 C 0.65831 0.61776 0.29403 0.0
C880 C 0.6787 0.62568 0.29791 0.0
C881 C 0.68794 0.61583 0.28111 0.0
C882 C 0.64812 0.62714 0.31639 0.0
C883 C 0.65204 0.63207 0.35988 0.0
C884 C 0.63385 0.63029 0.29604 0.0
C885 C 0.6298 0.62685 0.24973 0.0
C886 C 0.64511 0.63578 0.2199 0.0
C887 C 0.64121 0.63241 0.17632 0.0
C888 C 0.62202 0.62025 0.16214 0.0
C889 C 0.60669 0.61147 0.19152 0.0
C890 C 0.61052 0.61477 0.23514 0.0
C891 C 0.61373 0.67593 0.42461 0.0
C892 C 0.5932 0.66576 0.42065 0.0
C893 C 0.62488 0.668 0.4077 0.0
C894 C 0.6157 0.64978 0.38633 0.0
C895 C 0.59513 0.63928 0.38443 0.0
C896 C 0.58408 0.64715 0.40126 0.0
C897 C 0.62726 0.64211 0.36334 0.0
C898 C 0.62358 0.63751 0.31975 0.0
C899 C 0.6418 0.63938 0.38351 0.0
C900 C 0.64601 0.64317 0.42965 0.0
C901 C 0.63097 0.63377 0.45993 0.0
C902 C 0.63505 0.63744 0.50338 0.0
C903 C 0.65416 0.65039 0.51697 0.0
C904 C 0.66923 0.65965 0.48713 0.0
C905 C 0.66522 0.65604 0.44363 0.0
H906 H 0.65729 0.65321 0.55062 0.0
H907 H 0.61903 0.61766 0.12839 0.0
H908 H 0.93926 0.61498 0.78395 0.0
H909 H 0.97336 0.63498 0.75857 0.0
H910 H 0.96553 0.58738 0.6775 0.0
H911 H 0.93203 0.5676 0.70289 0.0
H912 H 1.00105 0.60415 0.70942 0.0
H913 H 0.9618 0.62675 0.63846 0.0
H914 H 0.9393 0.63992 0.63492 0.0
H915 H 0.98084 0.69135 0.70314 0.0
H916 H 1.00358 0.67841 0.70722 0.0
H917 H 0.07799 0.65269 0.56039 0.0
H918 H 0.04429 0.63561 0.58779 0.0
H919 H 0.05818 0.68439 0.67099 0.0
H920 H 0.09167 0.70144 0.64358 0.0
H921 H 0.0205 0.66816 0.64134 0.0
H922 H 0.06098 0.64577 0.70665 0.0
H923 H 0.08331 0.63234 0.70605 0.0
H924 H 0.03887 0.5797 0.64643 0.0
H925 H 0.0164 0.59297 0.64581 0.0
C926 C 0.94502 0.6087 0.76151 0.0
C927 C 0.93287 0.5897 0.74542 0.0
C928 C 0.96447 0.6202 0.74657 0.0
C929 C 0.97212 0.61287 0.71543 0.0
C930 C 0.9602 0.59353 0.70131 0.0
C931 C 0.94092 0.58221 0.71587 0.0
C932 C 0.99205 0.62529 0.6957 0.0
C933 C 1.00519 0.61808 0.69434 0.0
C934 C 0.9978 0.64363 0.67621 0.0
C935 C 0.98427 0.65153 0.67355 0.0
C936 C 0.96607 0.64081 0.65293 0.0
C937 C 0.95329 0.64824 0.65081 0.0
C938 C 0.95858 0.66641 0.66901 0.0
C939 C 0.97673 0.67725 0.68916 0.0
C940 C 0.98959 0.6699 0.69132 0.0
C941 C 0.07369 0.66008 0.58334 0.0
C942 C 0.08764 0.67848 0.59974 0.0
C943 C 0.05443 0.65018 0.59949 0.0
C944 C 0.04868 0.65849 0.63227 0.0
C945 C 0.06215 0.67753 0.64603 0.0
C946 C 0.08138 0.68731 0.63021 0.0
C947 C 0.02932 0.64689 0.65466 0.0
C948 C 0.01637 0.65427 0.65661 0.0
C949 C 0.0237 0.62864 0.67451 0.0
C950 C 0.03705 0.62045 0.6758 0.0
C951 C 0.056 0.63139 0.69314 0.0
C952 C 0.0687 0.62381 0.69299 0.0
C953 C 0.06255 0.60522 0.67604 0.0
C954 C 0.04365 0.59413 0.65939 0.0
C955 C 0.03092 0.60167 0.65929 0.0
H956 H 0.07241 0.5994 0.67591 0.0
H957 H 0.94864 0.67213 0.66737 0.0
H958 H 0.37268 0.93756 0.08919 0.0
H959 H 0.38841 0.97071 0.05978 0.0
H960 H 0.33188 0.96631 0.04646 0.0
H961 H 0.31616 0.93284 0.07508 0.0
H962 H 0.35032 0.97868 0.97518 0.0
H963 H 0.36915 0.9992 0.11889 0.0
H964 H 0.38314 1.00022 0.18972 0.0
H965 H 0.43934 0.01885 0.13297 0.0
H966 H 0.42562 0.01767 0.06171 0.0
H967 H 0.39299 0.08119 0.91526 0.0
H968 H 0.37468 0.04798 0.94536 0.0
H969 H 0.42813 0.04571 0.9524 0.0
H970 H 0.4463 0.0788 0.92245 0.0
H971 H 0.41012 0.03737 0.0283 0.0
H972 H 0.39062 0.01574 0.88438 0.0
H973 H 0.37647 0.01507 0.81393 0.0
H974 H 0.32122 0.99919 0.87238 0.0
H975 H 0.33513 1.00002 0.94328 0.0
C976 C 0.36371 0.94406 0.08216 0.0
C977 C 0.34322 0.93283 0.08617 0.0
C978 C 0.37271 0.96303 0.06476 0.0
C979 C 0.36147 0.97135 0.05092 0.0
C980 C 0.34101 0.96043 0.05683 0.0
C981 C 0.33201 0.94139 0.07405 0.0
C982 C 0.37086 0.99058 0.02721 0.0
C983 C 0.36319 0.99159 0.98733 0.0
C984 C 0.38799 0.00748 0.04206 0.0
C985 C 0.39629 0.00816 0.08488 0.0
C986 C 0.38445 1.00336 0.12146 0.0
C987 C 0.39234 1.00399 0.1617 0.0
C988 C 0.4121 0.00954 0.16583 0.0
C989 C 0.42403 0.01452 0.12972 0.0
C990 C 0.4162 0.01389 0.0894 0.0
C991 C 0.4006 0.07315 0.92104 0.0
C992 C 0.42098 0.08235 0.91495 0.0
C993 C 0.39017 0.05423 0.9389 0.0
C994 C 0.39996 0.04418 0.95143 0.0
C995 C 0.42015 0.05302 0.94316 0.0
C996 C 0.43051 0.07183 0.92522 0.0
C997 C 0.38967 0.02536 0.9763 0.0
C998 C 0.39718 0.02445 0.01637 0.0
C999 C 0.37236 0.00862 0.96175 0.0
C1000 C 0.36398 0.00816 0.91919 0.0
C1001 C 0.37551 0.01228 0.88226 0.0
C1002 C 0.36752 0.01183 0.84223 0.0
C1003 C 0.34797 0.00715 0.83869 0.0
C1004 C 0.33637 1.00285 0.87517 0.0
C1005 C 0.34429 1.00329 0.91529 0.0
H1006 H 0.34181 0.0068 0.80767 0.0
H1007 H 0.41819 0.01003 0.19702 0.0
H1008 H 0.15291 0.43588 0.91712 0.0
H1009 H 0.17292 0.43438 0.97514 0.0
H1010 H 0.20894 0.42612 0.88349 0.0
H1011 H 0.18842 0.42656 0.82595 0.0
H1012 H 0.20699 0.40573 0.94591 0.0
H1013 H 0.22188 0.4722 0.938 0.0
H1014 H 0.21495 0.49945 0.93677 0.0
H1015 H 0.19111 0.48457 0.06317 0.0
H1016 H 0.19759 0.457 0.06487 0.0
H1017 H 0.2908 0.43814 0.08738 0.0
H1018 H 0.26901 0.43657 0.02947 0.0
H1019 H 0.22422 0.42628 0.12122 0.0
H1020 H 0.24558 0.42731 0.17887 0.0
H1021 H 0.23116 0.45625 0.05947 0.0
H1022 H 0.21817 0.3894 0.0639 0.0
H1023 H 0.22747 0.36382 0.06173 0.0
H1024 H 0.25178 0.38274 0.93668 0.0
H1025 H 0.24286 0.40862 0.93837 0.0
C1026 C 0.16494 0.43351 0.90933 0.0
C1027 C 0.16889 0.43132 0.86651 0.0
C1028 C 0.17662 0.43287 0.94268 0.0
C1029 C 0.19299 0.43059 0.93427 0.0
C1030 C 0.19657 0.42792 0.89152 0.0
C1031 C 0.18472 0.42819 0.85834 0.0
C1032 C 0.20649 0.4312 0.96945 0.0
C1033 C 0.2124 0.417 0.97028 0.0
C1034 C 0.21373 0.44571 1.00204 0.0
C1035 C 0.21003 0.46241 1.00139 0.0
C1036 C 0.21505 0.47467 0.96544 0.0
C1037 C 0.21121 0.49017 0.96465 0.0
C1038 C 0.20255 0.49371 0.99983 0.0
C1039 C 0.19778 0.48179 0.03592 0.0
C1040 C 0.20154 0.46622 0.03682 0.0
C1041 C 0.27624 0.43531 0.09525 0.0
C1042 C 0.27002 0.43269 0.1381 0.0
C1043 C 0.26376 0.43446 0.06201 0.0
C1044 C 0.24485 0.43133 0.0707 0.0
C1045 C 0.23867 0.42875 0.1134 0.0
C1046 C 0.25094 0.42921 0.14646 0.0
C1047 C 0.23151 0.43084 0.03562 0.0
C1048 C 0.2257 0.44506 0.03491 0.0
C1049 C 0.22476 0.41668 1.00257 0.0
C1050 C 0.23003 0.40107 1.00145 0.0
C1051 C 0.22565 0.38822 0.0361 0.0
C1052 C 0.23082 0.37364 0.03492 0.0
C1053 C 0.24026 0.37169 0.99914 0.0
C1054 C 0.2445 0.38428 0.96441 0.0
C1055 C 0.23937 0.3989 0.96544 0.0
H1056 H 0.24425 0.3604 0.99829 0.0
H1057 H 0.19958 0.50571 0.99917 0.0
H1058 H 0.83611 0.28887 0.43963 0.0
H1059 H 0.81374 0.26518 0.3873 0.0
H1060 H 0.83371 0.22515 0.42146 0.0
H1061 H 0.8559 0.24866 0.47482 0.0
H1062 H 0.82963 0.23005 0.32767 0.0
H1063 H 0.79277 0.21529 0.45955 0.0
H1064 H 0.78011 0.22449 0.52198 0.0
H1065 H 0.74987 0.24403 0.43947 0.0
H1066 H 0.7626 0.23521 0.37652 0.0
H1067 H 0.75602 0.14824 0.2121 0.0
H1068 H 0.77944 0.16999 0.26566 0.0
H1069 H 0.74638 0.19983 0.27914 0.0
H1070 H 0.72229 0.17719 0.22828 0.0
H1071 H 0.75806 0.19999 0.35075 0.0
H1072 H 0.79415 0.21791 0.22033 0.0
H1073 H 0.80813 0.21317 0.15411 0.0
H1074 H 0.84081 0.193 0.22665 0.0
H1075 H 0.82683 0.1974 0.2933 0.0
C1076 C 0.83597 0.27513 0.43584 0.0
C1077 C 0.84799 0.27082 0.46163 0.0
C1078 C 0.82304 0.26152 0.40587 0.0
C1079 C 0.8219 0.24326 0.40022 0.0
C1080 C 0.83428 0.2391 0.42497 0.0
C1081 C 0.84697 0.25259 0.45561 0.0
C1082 C 0.80731 0.22834 0.36967 0.0
C1083 C 0.81397 0.22324 0.33296 0.0
C1084 C 0.78683 0.21991 0.3755 0.0
C1085 C 0.77877 0.22474 0.41334 0.0
C1086 C 0.78352 0.22166 0.45472 0.0
C1087 C 0.77632 0.22679 0.4902 0.0
C1088 C 0.76423 0.23488 0.4847 0.0
C1089 C 0.75925 0.23778 0.44369 0.0
C1090 C 0.76643 0.23269 0.40811 0.0
C1091 C 0.75368 0.15936 0.22673 0.0
C1092 C 0.73715 0.16083 0.2157 0.0
C1093 C 0.76729 0.17206 0.2572 0.0
C1094 C 0.76527 0.18719 0.2764 0.0
C1095 C 0.74859 0.18847 0.26544 0.0
C1096 C 0.73472 0.17543 0.23601 0.0
C1097 C 0.78022 0.20155 0.30787 0.0
C1098 C 0.77367 0.20664 0.34501 0.0
C1099 C 0.80084 0.21043 0.3017 0.0
C1100 C 0.80927 0.20777 0.26175 0.0
C1101 C 0.80422 0.21233 0.22213 0.0
C1102 C 0.81215 0.20973 0.18453 0.0
C1103 C 0.8253 0.20273 0.18617 0.0
C1104 C 0.83059 0.19838 0.22543 0.0
C1105 C 0.82267 0.20094 0.26313 0.0
H1106 H 0.83143 0.20072 0.15703 0.0
H1107 H 0.7587 0.23888 0.5122 0.0
H1108 H 0.58919 0.82734 0.84775 0.0
H1109 H 0.59032 0.80616 0.79264 0.0
H1110 H 0.57517 0.83595 0.69785 0.0
H1111 H 0.57306 0.85665 0.75365 0.0
H1112 H 0.55647 0.80004 0.67821 0.0
H1113 H 0.62401 0.84147 0.71189 0.0
H1114 H 0.65338 0.85824 0.75736 0.0
H1115 H 0.64484 0.80262 0.79931 0.0
H1116 H 0.61526 0.78551 0.75448 0.0
H1117 H 0.5877 0.76505 0.50063 0.0
H1118 H 0.58835 0.78658 0.55746 0.0
H1119 H 0.57973 0.74297 0.65094 0.0
H1120 H 0.57847 0.72092 0.59382 0.0
H1121 H 0.61081 0.78555 0.67019 0.0
H1122 H 0.5428 0.74488 0.63165 0.0
H1123 H 0.51571 0.72999 0.5798 0.0
H1124 H 0.52773 0.78721 0.54093 0.0
H1125 H 0.55519 0.80247 0.59193 0.0
C1126 C 0.58631 0.82963 0.81513 0.0
C1127 C 0.58124 0.84401 0.80543 0.0
C1128 C 0.58706 0.81745 0.7833 0.0
C1129 C 0.58325 0.81947 0.74027 0.0
C1130 C 0.57825 0.83391 0.73046 0.0
C1131 C 0.57719 0.84593 0.76251 0.0
C1132 C 0.58401 0.80626 0.70604 0.0
C1133 C 0.56855 0.79718 0.6764 0.0
C1134 C 0.59953 0.80199 0.70317 0.0
C1135 C 0.61731 0.81221 0.73015 0.0
C1136 C 0.62832 0.83282 0.73105 0.0
C1137 C 0.64501 0.84239 0.75667 0.0
C1138 C 0.65094 0.8315 0.7813 0.0
C1139 C 0.64021 0.81103 0.78026 0.0
C1140 C 0.62349 0.80139 0.75472 0.0
C1141 C 0.58617 0.76001 0.53325 0.0
C1142 C 0.58312 0.74114 0.54235 0.0
C1143 C 0.58646 0.7724 0.56583 0.0
C1144 C 0.58406 0.7665 0.6087 0.0
C1145 C 0.58167 0.74795 0.61821 0.0
C1146 C 0.58096 0.73533 0.58544 0.0
C1147 C 0.58333 0.77948 0.64305 0.0
C1148 C 0.59879 0.78849 0.67242 0.0
C1149 C 0.56803 0.78397 0.64518 0.0
C1150 C 0.55119 0.77482 0.61532 0.0
C1151 C 0.53978 0.7543 0.61181 0.0
C1152 C 0.52434 0.74579 0.5826 0.0
C1153 C 0.52003 0.75765 0.55702 0.0
C1154 C 0.5311 0.77804 0.56072 0.0
C1155 C 0.54661 0.78663 0.58979 0.0
H1156 H 0.50809 0.75103 0.53438 0.0
H1157 H 0.66387 0.83894 0.80111 0.0
H1158 H 0.76874 0.58568 0.18084 0.0
H1159 H 0.79111 0.58621 0.12678 0.0
H1160 H 0.74845 0.57582 0.02924 0.0
H1161 H 0.72542 0.57416 0.08406 0.0
H1162 H 0.76393 0.55576 0.00853 0.0
H1163 H 0.79394 0.62305 0.04957 0.0
H1164 H 0.80756 0.65133 0.09853 0.0
H1165 H 0.85086 0.63733 0.14126 0.0
H1166 H 0.83734 0.60881 0.09293 0.0
H1167 H 0.83294 0.5856 0.83669 0.0
H1168 H 0.81168 0.58657 0.89217 0.0
H1169 H 0.84385 0.57502 0.98758 0.0
H1170 H 0.86501 0.57346 0.93181 0.0
H1171 H 0.83435 0.60664 0.00824 0.0
H1172 H 0.80331 0.53907 0.96411 0.0
H1173 H 0.79005 0.51243 0.91106 0.0
H1174 H 0.74878 0.52941 0.86937 0.0
H1175 H 0.76199 0.55635 0.92186 0.0
C1176 C 0.76409 0.58373 0.14787 0.0
C1177 C 0.7452 0.58012 0.1371 0.0
C1178 C 0.77708 0.58415 0.11663 0.0
C1179 C 0.77195 0.58154 0.07314 0.0
C1180 C 0.75305 0.57798 0.06225 0.0
C1181 C 0.73985 0.57717 0.09373 0.0
C1182 C 0.78603 0.582 0.03956 0.0
C1183 C 0.77923 0.56713 0.00837 0.0
C1184 C 0.80629 0.59652 0.03894 0.0
C1185 C 0.8145 0.61369 0.06791 0.0
C1186 C 0.80628 0.62593 0.06961 0.0
C1187 C 0.814 0.64201 0.09722 0.0
C1188 C 0.83003 0.6461 0.12307 0.0
C1189 C 0.83842 0.63414 0.12126 0.0
C1190 C 0.83076 0.61802 0.09373 0.0
C1191 C 0.83574 0.58345 0.86947 0.0
C1192 C 0.8509 0.57953 0.87948 0.0
C1193 C 0.82342 0.58394 0.90127 0.0
C1194 C 0.826 0.58082 0.94428 0.0
C1195 C 0.8415 0.57751 0.95473 0.0
C1196 C 0.85363 0.57663 0.92272 0.0
C1197 C 0.81215 0.58049 0.9778 0.0
C1198 C 0.81901 0.59536 0.00873 0.0
C1199 C 0.79193 0.5662 0.97778 0.0
C1200 C 0.78377 0.54985 0.94662 0.0
C1201 C 0.79151 0.53723 0.9434 0.0
C1202 C 0.78399 0.52205 0.91346 0.0
C1203 C 0.76863 0.51927 0.88674 0.0
C1204 C 0.76071 0.5316 0.89004 0.0
C1205 C 0.76819 0.54682 0.91992 0.0
H1206 H 0.76284 0.50752 0.86355 0.0
H1207 H 0.83598 0.65855 0.14443 0.0
H1208 H 0.15553 0.72236 0.41959 0.0
H1209 H 0.17608 0.74431 0.3627 0.0
H1210 H 0.20879 0.78944 0.45553 0.0
H1211 H 0.18772 0.76793 0.51201 0.0
H1212 H 0.20693 0.80706 0.39072 0.0
H1213 H 0.22503 0.7582 0.40688 0.0
H1214 H 0.21987 0.72469 0.41137 0.0
H1215 H 0.19873 0.7135 0.28252 0.0
H1216 H 0.20342 0.74684 0.27753 0.0
H1217 H 0.29247 0.86054 0.25369 0.0
H1218 H 0.27059 0.84009 0.31138 0.0
H1219 H 0.22719 0.80379 0.21873 0.0
H1220 H 0.24858 0.82433 0.16131 0.0
H1221 H 0.23547 0.78223 0.28361 0.0
H1222 H 0.21863 0.83334 0.27153 0.0
H1223 H 0.22604 0.86769 0.271 0.0
H1224 H 0.24894 0.87564 0.39811 0.0
H1225 H 0.24191 0.84139 0.39916 0.0
C1226 C 0.16694 0.73703 0.42788 0.0
C1227 C 0.16983 0.74323 0.4707 0.0
C1228 C 0.17891 0.74961 0.3952 0.0
C1229 C 0.19453 0.76861 0.40436 0.0
C1230 C 0.19702 0.77497 0.44702 0.0
C1231 C 0.18486 0.76254 0.47955 0.0
C1232 C 0.20842 0.78174 0.36999 0.0
C1233 C 0.21329 0.80155 0.36778 0.0
C1234 C 0.21695 0.77492 0.33938 0.0
C1235 C 0.21439 0.75496 0.34197 0.0
C1236 C 0.21917 0.74855 0.37958 0.0
C1237 C 0.21633 0.72959 0.38222 0.0
C1238 C 0.20893 0.71696 0.34728 0.0
C1239 C 0.20442 0.72329 0.30958 0.0
C1240 C 0.20717 0.74222 0.30683 0.0
C1241 C 0.27819 0.84834 0.24559 0.0
C1242 C 0.27234 0.84431 0.20258 0.0
C1243 C 0.26567 0.83659 0.27868 0.0
C1244 C 0.24714 0.82026 0.26964 0.0
C1245 C 0.24135 0.8162 0.22678 0.0
C1246 C 0.25363 0.82813 0.19386 0.0
C1247 C 0.23376 0.80733 0.30452 0.0
C1248 C 0.22905 0.78761 0.30675 0.0
C1249 C 0.2258 0.81434 0.33578 0.0
C1250 C 0.22994 0.83488 0.33524 0.0
C1251 C 0.22541 0.84247 0.29922 0.0
C1252 C 0.2295 0.86191 0.29886 0.0
C1253 C 0.23801 0.87386 0.33445 0.0
C1254 C 0.24238 0.86638 0.37054 0.0
C1255 C 0.23833 0.84695 0.37104 0.0
H1256 H 0.24117 0.88891 0.33412 0.0
H1257 H 0.20674 0.70228 0.34939 0.0
H1258 H 0.42833 0.18861 0.8426 0.0
H1259 H 0.42723 0.2093 0.78638 0.0
H1260 H 0.4375 0.17552 0.69235 0.0
H1261 H 0.43967 0.1553 0.74922 0.0
H1262 H 0.45741 0.21086 0.66916 0.0
H1263 H 0.39028 0.17358 0.71129 0.0
H1264 H 0.36216 0.1595 0.76066 0.0
H1265 H 0.37562 0.21736 0.79806 0.0
H1266 H 0.40398 0.23179 0.74929 0.0
H1267 H 0.42845 0.24787 0.49225 0.0
H1268 H 0.4274 0.22621 0.54924 0.0
H1269 H 0.43596 0.26987 0.64259 0.0
H1270 H 0.43747 0.29195 0.58541 0.0
H1271 H 0.40596 0.22954 0.66484 0.0
H1272 H 0.47327 0.26608 0.61985 0.0
H1273 H 0.49986 0.27897 0.56669 0.0
H1274 H 0.48391 0.22025 0.53055 0.0
H1275 H 0.457 0.20701 0.58309 0.0
C1276 C 0.43013 0.18533 0.80996 0.0
C1277 C 0.43387 0.16999 0.80076 0.0
C1278 C 0.42939 0.19724 0.77748 0.0
C1279 C 0.43182 0.19395 0.73435 0.0
C1280 C 0.43548 0.17853 0.72504 0.0
C1281 C 0.43658 0.16681 0.75771 0.0
C1282 C 0.43112 0.2069 0.69945 0.0
C1283 C 0.44592 0.2146 0.66811 0.0
C1284 C 0.41644 0.21238 0.69768 0.0
C1285 C 0.39936 0.20376 0.72692 0.0
C1286 C 0.38732 0.1833 0.73024 0.0
C1287 C 0.37132 0.17526 0.75809 0.0
C1288 C 0.36714 0.18753 0.78255 0.0
C1289 C 0.3789 0.20788 0.77912 0.0
C1290 C 0.39492 0.21599 0.75135 0.0
C1291 C 0.4299 0.25289 0.52487 0.0
C1292 C 0.43299 0.27178 0.53393 0.0
C1293 C 0.42938 0.24044 0.55756 0.0
C1294 C 0.43169 0.24632 0.60046 0.0
C1295 C 0.43412 0.2649 0.60986 0.0
C1296 C 0.43498 0.27755 0.57703 0.0
C1297 C 0.43217 0.2333 0.63506 0.0
C1298 C 0.41736 0.22566 0.66615 0.0
C1299 C 0.44664 0.22764 0.63624 0.0
C1300 C 0.463 0.23555 0.60511 0.0
C1301 C 0.47533 0.25591 0.60034 0.0
C1302 C 0.49047 0.26329 0.57034 0.0
C1303 C 0.49354 0.25044 0.54515 0.0
C1304 C 0.4815 0.23019 0.55004 0.0
C1305 C 0.46631 0.22274 0.57995 0.0
H1306 H 0.50526 0.25617 0.52193 0.0
H1307 H 0.35475 0.18128 0.8041 0.0
H1308 H 0.18285 0.48822 0.59432 0.0
H1309 H 0.20594 0.49402 0.53666 0.0
H1310 H 0.24625 0.49205 0.62685 0.0
H1311 H 0.2232 0.48688 0.68517 0.0
H1312 H 0.2659 0.5178 0.56223 0.0
H1313 H 0.21482 0.45161 0.57585 0.0
H1314 H 0.1808 0.42437 0.58248 0.0
H1315 H 0.16728 0.43788 0.45899 0.0
H1316 H 0.20113 0.46551 0.45201 0.0
H1317 H 0.30037 0.46664 0.4253 0.0
H1318 H 0.28416 0.47503 0.48102 0.0
H1319 H 0.26539 0.50221 0.38745 0.0
H1320 H 0.28233 0.49443 0.33123 0.0
H1321 H 0.23573 0.46619 0.45122 0.0
H1322 H 0.29061 0.53249 0.43967 0.0
H1323 H 0.32557 0.55787 0.43844 0.0
H1324 H 0.33316 0.54058 0.56347 0.0
H1325 H 0.29831 0.51483 0.56512 0.0
C1326 C 0.19693 0.48965 0.60193 0.0
C1327 C 0.20138 0.48716 0.64391 0.0
C1328 C 0.21005 0.49285 0.56901 0.0
C1329 C 0.22763 0.49304 0.5773 0.0
C1330 C 0.23274 0.49191 0.61975 0.0
C1331 C 0.21964 0.48899 0.653 0.0
C1332 C 0.23943 0.49224 0.54126 0.0
C1333 C 0.25933 0.50649 0.53804 0.0
C1334 C 0.23084 0.47744 0.50967 0.0
C1335 C 0.21047 0.46076 0.51358 0.0
C1336 C 0.20455 0.44888 0.55024 0.0
C1337 C 0.18531 0.43335 0.55404 0.0
C1338 C 0.17191 0.42938 0.52114 0.0
C1339 C 0.1777 0.44097 0.48441 0.0
C1340 C 0.19691 0.45658 0.48053 0.0
C1341 C 0.29298 0.47461 0.4166 0.0
C1342 C 0.29245 0.47978 0.37394 0.0
C1343 C 0.28386 0.47949 0.4485 0.0
C1344 C 0.27374 0.48933 0.43831 0.0
C1345 C 0.27334 0.49478 0.39585 0.0
C1346 C 0.28295 0.49033 0.36388 0.0
C1347 C 0.26205 0.49197 0.47173 0.0
C1348 C 0.24217 0.47777 0.4749 0.0
C1349 C 0.27081 0.50646 0.50373 0.0
C1350 C 0.29188 0.52159 0.50231 0.0
C1351 C 0.29978 0.5339 0.46664 0.0
C1352 C 0.31957 0.54842 0.46595 0.0
C1353 C 0.33156 0.55086 0.50089 0.0
C1354 C 0.32384 0.5387 0.53646 0.0
C1355 C 0.30408 0.52414 0.53729 0.0
H1356 H 0.34685 0.56218 0.50041 0.0
H1357 H 0.15702 0.41733 0.52412 0.0
H1358 H 0.82443 0.26061 0.70745 0.0
H1359 H 0.79978 0.24202 0.76116 0.0
H1360 H 0.77639 0.28093 0.74855 0.0
H1361 H 0.80135 0.2999 0.69447 0.0
H1362 H 0.78235 0.27484 0.83257 0.0
H1363 H 0.7498 0.23521 0.71263 0.0
H1364 H 0.74643 0.21698 0.64638 0.0
H1365 H 0.76057 0.17831 0.71406 0.0
H1366 H 0.76433 0.1965 0.78062 0.0
H1367 H 0.707 0.20613 0.97925 0.0
H1368 H 0.72386 0.22828 0.91921 0.0
H1369 H 0.75894 0.20089 0.90107 0.0
H1370 H 0.74243 0.17896 0.96052 0.0
H1371 H 0.74088 0.2024 0.82725 0.0
H1372 H 0.77862 0.24563 0.94341 0.0
H1373 H 0.7828 0.26428 0.00947 0.0
H1374 H 0.75856 0.2961 0.94814 0.0
H1375 H 0.754 0.27743 0.88184 0.0
C1376 C 0.81392 0.26513 0.71559 0.0
C1377 C 0.81486 0.28175 0.69665 0.0
C1378 C 0.79977 0.25442 0.74626 0.0
C1379 C 0.78615 0.26 0.75867 0.0
C1380 C 0.78675 0.27636 0.73932 0.0
C1381 C 0.80092 0.28709 0.70826 0.0
C1382 C 0.77206 0.24907 0.79335 0.0
C1383 C 0.77288 0.25905 0.83109 0.0
C1384 C 0.75987 0.22846 0.79154 0.0
C1385 C 0.75743 0.2173 0.75164 0.0
C1386 C 0.75231 0.2229 0.71336 0.0
C1387 C 0.75031 0.21256 0.67574 0.0
C1388 C 0.7533 0.19651 0.676 0.0
C1389 C 0.75825 0.19074 0.71391 0.0
C1390 C 0.76028 0.20105 0.75162 0.0
C1391 C 0.71855 0.20508 0.96291 0.0
C1392 C 0.72326 0.19067 0.97451 0.0
C1393 C 0.72811 0.2177 0.92856 0.0
C1394 C 0.74251 0.21607 0.90546 0.0
C1395 C 0.74772 0.20224 0.91816 0.0
C1396 C 0.73829 0.18975 0.95233 0.0
C1397 C 0.75178 0.22806 0.86691 0.0
C1398 C 0.74998 0.21824 0.82839 0.0
C1399 C 0.763 0.24877 0.86805 0.0
C1400 C 0.76572 0.25995 0.90788 0.0
C1401 C 0.774 0.25647 0.94415 0.0
C1402 C 0.77648 0.26707 0.9816 0.0
C1403 C 0.77088 0.28132 0.98305 0.0
C1404 C 0.76285 0.28503 0.947 0.0
C1405 C 0.76032 0.27445 0.90948 0.0
H1406 H 0.77282 0.28952 0.01207 0.0
H1407 H 0.75176 0.18853 0.64683 0.0
H1408 H 0.54469 0.8076 0.02655 0.0
H1409 H 0.53982 0.78308 0.07962 0.0
H1410 H 0.49033 0.78568 0.13073 0.0
H1411 H 0.49554 0.8108 0.07832 0.0
H1412 H 0.51375 0.78959 0.19236 0.0
H1413 H 0.48521 0.74346 0.08024 0.0
H1414 H 0.4821 0.72959 0.00835 0.0
H1415 H 0.53475 0.72714 0.02781 0.0
H1416 H 0.53835 0.74127 0.0996 0.0
H1417 H 0.50606 0.7152 0.34252 0.0
H1418 H 0.49735 0.73143 0.28671 0.0
H1419 H 0.55147 0.74761 0.22134 0.0
H1420 H 0.5604 0.73194 0.27655 0.0
H1421 H 0.51791 0.72956 0.16833 0.0
H1422 H 0.5484 0.78096 0.27545 0.0
H1423 H 0.55121 0.79481 0.3473 0.0
H1424 H 0.49309 0.78615 0.33652 0.0
H1425 H 0.48985 0.77199 0.26476 0.0
C1426 C 0.53242 0.8026 0.04825 0.0
C1427 C 0.52057 0.81126 0.04827 0.0
C1428 C 0.52961 0.78849 0.07867 0.0
C1429 C 0.51462 0.7824 0.10921 0.0
C1430 C 0.50202 0.79016 0.10763 0.0
C1431 C 0.50496 0.80445 0.07746 0.0
C1432 C 0.51353 0.76956 0.14512 0.0
C1433 C 0.51413 0.77617 0.18702 0.0
C1434 C 0.51424 0.75215 0.13841 0.0
C1435 C 0.51209 0.74352 0.09529 0.0
C1436 C 0.4962 0.74008 0.06911 0.0
C1437 C 0.49434 0.73215 0.02837 0.0
C1438 C 0.50823 0.72751 0.0135 0.0
C1439 C 0.52399 0.73074 0.03938 0.0
C1440 C 0.52593 0.73868 0.08013 0.0
C1441 C 0.51616 0.72237 0.31644 0.0
C1442 C 0.53388 0.72217 0.314 0.0
C1443 C 0.51114 0.73157 0.28458 0.0
C1444 C 0.52371 0.74053 0.24975 0.0
C1445 C 0.54148 0.7406 0.24771 0.0
C1446 C 0.54659 0.73168 0.27954 0.0
C1447 C 0.51868 0.74996 0.21497 0.0
C1448 C 0.51698 0.74269 0.17342 0.0
C1449 C 0.51681 0.76665 0.22199 0.0
C1450 C 0.51878 0.77518 0.26503 0.0
C1451 C 0.53615 0.78183 0.28858 0.0
C1452 C 0.53784 0.78978 0.32924 0.0
C1453 C 0.52231 0.79129 0.34653 0.0
C1454 C 0.50509 0.78492 0.32313 0.0
C1455 C 0.50332 0.77694 0.28247 0.0
H1456 H 0.52365 0.79745 0.37801 0.0
H1457 H 0.50677 0.72138 0.98195 0.0
H1458 H 0.69132 0.50262 0.41767 0.0
H1459 H 0.71147 0.4974 0.4693 0.0
H1460 H 0.76356 0.54576 0.41509 0.0
H1461 H 0.7436 0.55085 0.36287 0.0
H1462 H 0.77052 0.51738 0.43834 0.0
H1463 H 0.74119 0.55225 0.50254 0.0
H1464 H 0.71382 0.55713 0.52398 0.0
H1465 H 0.68912 0.50438 0.59843 0.0
H1466 H 0.71629 0.4991 0.57723 0.0
H1467 H 0.81905 0.55153 0.65698 0.0
H1468 H 0.79372 0.54792 0.60696 0.0
H1469 H 0.78638 0.49252 0.5648 0.0
H1470 H 0.81199 0.49619 0.61411 0.0
H1471 H 0.75604 0.52274 0.5901 0.0
H1472 H 0.78108 0.48977 0.45709 0.0
H1473 H 0.8105 0.48841 0.43561 0.0
H1474 H 0.84721 0.54346 0.49777 0.0
H1475 H 0.81805 0.54525 0.51929 0.0
C1476 C 0.7071 0.51191 0.41618 0.0
C1477 C 0.71584 0.52729 0.38643 0.0
C1478 C 0.71858 0.50896 0.44588 0.0
C1479 C 0.73897 0.52147 0.44665 0.0
C1480 C 0.74784 0.53599 0.41521 0.0
C1481 C 0.73638 0.53887 0.38532 0.0
C1482 C 0.75099 0.52034 0.48175 0.0
C1483 C 0.76725 0.51839 0.47152 0.0
C1484 C 0.74693 0.52198 0.52506 0.0
C1485 C 0.73065 0.52518 0.53795 0.0
C1486 C 0.72985 0.54163 0.52325 0.0
C1487 C 0.71438 0.54447 0.53538 0.0
C1488 C 0.69969 0.53103 0.56236 0.0
C1489 C 0.70048 0.51476 0.57745 0.0
C1490 C 0.71592 0.51184 0.56545 0.0
C1491 C 0.81175 0.53836 0.63777 0.0
C1492 C 0.81771 0.52426 0.63911 0.0
C1493 C 0.79727 0.53633 0.60914 0.0
C1494 C 0.78847 0.52016 0.58151 0.0
C1495 C 0.79329 0.50531 0.58521 0.0
C1496 C 0.80787 0.5074 0.61355 0.0
C1497 C 0.7755 0.51967 0.54669 0.0
C1498 C 0.75911 0.5214 0.55696 0.0
C1499 C 0.77968 0.51827 0.50335 0.0
C1500 C 0.79736 0.51751 0.49016 0.0
C1501 C 0.79544 0.5016 0.46607 0.0
C1502 C 0.81207 0.50075 0.45394 0.0
C1503 C 0.83071 0.5158 0.46551 0.0
C1504 C 0.83277 0.53177 0.48907 0.0
C1505 C 0.81619 0.5327 0.50127 0.0
H1506 H 0.84356 0.51511 0.45612 0.0
H1507 H 0.68773 0.53327 0.57169 0.0
H1508 H 0.20408 0.74104 0.69366 0.0
H1509 H 0.23016 0.76035 0.74416 0.0
H1510 H 0.22182 0.7073 0.80351 0.0
H1511 H 0.19528 0.6878 0.75355 0.0
H1512 H 0.22158 0.73076 0.86166 0.0
H1513 H 0.26483 0.73876 0.74876 0.0
H1514 H 0.27804 0.74553 0.67566 0.0
H1515 H 0.2884 0.80436 0.6844 0.0
H1516 H 0.27499 0.79788 0.75734 0.0
H1517 H 0.29838 0.79751 0.00569 0.0
H1518 H 0.28156 0.77129 0.95252 0.0
H1519 H 0.27153 0.81046 0.87446 0.0
H1520 H 0.28791 0.83633 0.92679 0.0
H1521 H 0.28547 0.78962 0.82814 0.0
H1522 H 0.23588 0.77831 0.93504 0.0
H1523 H 0.22237 0.77135 0.00793 0.0
H1524 H 0.22463 0.71801 0.00966 0.0
H1525 H 0.23841 0.72481 0.93692 0.0
C1526 C 0.20808 0.73342 0.71673 0.0
C1527 C 0.1975 0.71285 0.71965 0.0
C1528 C 0.22309 0.74452 0.74561 0.0
C1529 C 0.22808 0.73531 0.77762 0.0
C1530 C 0.21823 0.71475 0.77918 0.0
C1531 C 0.2031 0.70362 0.75046 0.0
C1532 C 0.24212 0.74723 0.81174 0.0
C1533 C 0.23579 0.74332 0.85432 0.0
C1534 C 0.26061 0.76374 0.80237 0.0
C1535 C 0.26881 0.76779 0.75853 0.0
C1536 C 0.26981 0.75311 0.73502 0.0
C1537 C 0.27735 0.7569 0.69361 0.0
C1538 C 0.28404 0.77535 0.67538 0.0
C1539 C 0.28323 0.79007 0.69857 0.0
C1540 C 0.27569 0.78636 0.73999 0.0
C1541 C 0.29258 0.80047 0.97716 0.0
C1542 C 0.29441 0.81899 0.97064 0.0
C1543 C 0.28302 0.78552 0.94685 0.0
C1544 C 0.27538 0.789 0.9095 0.0
C1545 C 0.27743 0.80751 0.90288 0.0
C1546 C 0.2867 0.82226 0.93313 0.0
C1547 C 0.26457 0.77342 0.87744 0.0
C1548 C 0.27151 0.7767 0.83534 0.0
C1549 C 0.24671 0.75628 0.88722 0.0
C1550 C 0.23841 0.7522 0.93084 0.0
C1551 C 0.23366 0.76519 0.95113 0.0
C1552 C 0.22593 0.76126 0.99237 0.0
C1553 C 0.22272 0.74428 0.01348 0.0
C1554 C 0.22718 0.73118 0.99332 0.0
C1555 C 0.23495 0.73506 0.95209 0.0
H1556 H 0.21672 0.74126 0.0454 0.0
H1557 H 0.28986 0.77825 0.64331 0.0
H1558 H 0.49744 0.22049 0.99085 0.0
H1559 H 0.5036 0.24529 0.04555 0.0
H1560 H 0.47198 0.19927 0.13752 0.0
H1561 H 0.46523 0.17478 0.08315 0.0
H1562 H 0.45989 0.22352 0.14315 0.0
H1563 H 0.52368 0.22999 0.13707 0.0
H1564 H 0.55423 0.23552 0.10295 0.0
H1565 H 0.56712 0.29301 0.06392 0.0
H1566 H 0.53651 0.28772 0.09734 0.0
H1567 H 0.47955 0.27927 0.32774 0.0
H1568 H 0.483 0.2576 0.27719 0.0
H1569 H 0.50866 0.30458 0.18537 0.0
H1570 H 0.50581 0.32651 0.23608 0.0
H1571 H 0.52455 0.28083 0.17918 0.0
H1572 H 0.45876 0.27226 0.18563 0.0
H1573 H 0.42832 0.26542 0.22273 0.0
H1574 H 0.42013 0.21016 0.2659 0.0
H1575 H 0.45041 0.21655 0.22896 0.0
C1576 C 0.49194 0.21578 0.02284 0.0
C1577 C 0.48065 0.19573 0.03259 0.0
C1578 C 0.49553 0.22992 0.05415 0.0
C1579 C 0.48829 0.22418 0.09585 0.0
C1580 C 0.47756 0.20413 0.10562 0.0
C1581 C 0.47369 0.19011 0.07439 0.0
C1582 C 0.49084 0.23874 0.12913 0.0
C1583 C 0.47411 0.23588 0.15128 0.0
C1584 C 0.50929 0.25514 0.13942 0.0
C1585 C 0.5277 0.25837 0.1193 0.0
C1586 C 0.53295 0.24375 0.12091 0.0
C1587 C 0.55029 0.24685 0.10175 0.0
C1588 C 0.56258 0.26459 0.08117 0.0
C1589 C 0.55757 0.27927 0.0798 0.0
C1590 C 0.54024 0.27623 0.09888 0.0
C1591 C 0.48643 0.28516 0.29724 0.0
C1592 C 0.49213 0.30454 0.28573 0.0
C1593 C 0.48829 0.27272 0.26828 0.0
C1594 C 0.49557 0.27934 0.22708 0.0
C1595 C 0.50285 0.29913 0.21686 0.0
C1596 C 0.5012 0.31165 0.24597 0.0
C1597 C 0.49368 0.26527 0.1934 0.0
C1598 C 0.51042 0.26836 0.17099 0.0
C1599 C 0.47527 0.24885 0.18317 0.0
C1600 C 0.45691 0.24494 0.20478 0.0
C1601 C 0.45049 0.25868 0.20315 0.0
C1602 C 0.43329 0.2549 0.22414 0.0
C1603 C 0.4224 0.23746 0.24684 0.0
C1604 C 0.4286 0.22368 0.24837 0.0
C1605 C 0.44573 0.22733 0.22729 0.0
H1606 H 0.40911 0.23459 0.26307 0.0
H1607 H 0.576 0.26696 0.06637 0.0
H1608 H 0.36822 0.49095 0.36649 0.0
H1609 H 0.39918 0.51959 0.38693 0.0
H1610 H 0.41056 0.53786 0.25543 0.0
H1611 H 0.3803 0.50847 0.2345 0.0
H1612 H 0.44313 0.5464 0.28898 0.0
H1613 H 0.39148 0.5579 0.33405 0.0
H1614 H 0.36055 0.54914 0.37107 0.0
H1615 H 0.38651 0.54843 0.49081 0.0
H1616 H 0.41754 0.55695 0.45442 0.0
H1617 H 0.51043 0.6473 0.32345 0.0
H1618 H 0.48104 0.6163 0.30667 0.0
H1619 H 0.47905 0.59648 0.43554 0.0
H1620 H 0.50859 0.62759 0.45285 0.0
H1621 H 0.44239 0.58846 0.40585 0.0
H1622 H 0.49536 0.57949 0.35736 0.0
H1623 H 0.52579 0.58906 0.31744 0.0
H1624 H 0.49666 0.58669 0.20014 0.0
H1625 H 0.46612 0.57742 0.23945 0.0
C1626 C 0.37733 0.501 0.34181 0.0
C1627 C 0.37147 0.49752 0.29883 0.0
C1628 C 0.39505 0.51752 0.35363 0.0
C1629 C 0.40708 0.53139 0.323 0.0
C1630 C 0.40156 0.52758 0.2799 0.0
C1631 C 0.38409 0.51077 0.26793 0.0
C1632 C 0.42515 0.54998 0.33584 0.0
C1633 C 0.44284 0.55566 0.31423 0.0
C1634 C 0.42508 0.5621 0.36926 0.0
C1635 C 0.40676 0.55787 0.39146 0.0
C1636 C 0.39058 0.55586 0.36827 0.0
C1637 C 0.37303 0.55091 0.38912 0.0
C1638 C 0.37155 0.54814 0.43321 0.0
C1639 C 0.38768 0.55054 0.45664 0.0
C1640 C 0.40526 0.55545 0.43593 0.0
C1641 C 0.50382 0.6364 0.34839 0.0
C1642 C 0.512 0.64004 0.38959 0.0
C1643 C 0.48699 0.61861 0.33863 0.0
C1644 C 0.47789 0.60394 0.3697 0.0
C1645 C 0.48581 0.60756 0.41101 0.0
C1646 C 0.50276 0.62536 0.42081 0.0
C1647 C 0.46018 0.58483 0.35878 0.0
C1648 C 0.44261 0.57911 0.38073 0.0
C1649 C 0.46029 0.57286 0.32521 0.0
C1650 C 0.47849 0.57789 0.3014 0.0
C1651 C 0.49546 0.5811 0.32308 0.0
C1652 C 0.51273 0.58648 0.30056 0.0
C1653 C 0.51317 0.58852 0.25629 0.0
C1654 C 0.4963 0.58511 0.23444 0.0
C1655 C 0.479 0.57978 0.25682 0.0
H1656 H 0.52656 0.59272 0.23892 0.0
H1657 H 0.3579 0.54409 0.44919 0.0
H1658 H 0.86363 0.50016 0.67159 0.0
H1659 H 0.86495 0.47046 0.65769 0.0
H1660 H 0.89995 0.4807 0.77046 0.0
H1661 H 0.89851 0.51058 0.78521 0.0
H1662 H 0.91328 0.46859 0.69628 0.0
H1663 H 0.8552 0.44846 0.77874 0.0
H1664 H 0.82412 0.44714 0.79676 0.0
H1665 H 0.79967 0.41955 0.67673 0.0
H1666 H 0.83076 0.42106 0.65762 0.0
H1667 H 0.86432 0.35403 0.69947 0.0
H1668 H 0.86663 0.38457 0.72414 0.0
H1669 H 0.89404 0.41259 0.6057 0.0
H1670 H 0.89184 0.38215 0.58071 0.0
H1671 H 0.85054 0.40532 0.6921 0.0
H1672 H 0.92725 0.46109 0.62615 0.0
H1673 H 0.95865 0.46267 0.61007 0.0
H1674 H 0.94628 0.41831 0.70394 0.0
H1675 H 0.91497 0.41669 0.72106 0.0
C1676 C 0.87167 0.49625 0.69358 0.0
C1677 C 0.88083 0.50781 0.72979 0.0
C1678 C 0.87241 0.47919 0.68548 0.0
C1679 C 0.88244 0.47327 0.71314 0.0
C1680 C 0.89213 0.485 0.74867 0.0
C1681 C 0.89122 0.50204 0.75712 0.0
C1682 C 0.88207 0.45443 0.70533 0.0
C1683 C 0.8996 0.45474 0.69549 0.0
C1684 C 0.86424 0.43631 0.70489 0.0
C1685 C 0.84537 0.43501 0.71662 0.0
C1686 C 0.84324 0.44223 0.75605 0.0
C1687 C 0.82562 0.44144 0.76648 0.0
C1688 C 0.80994 0.43329 0.73788 0.0
C1689 C 0.81184 0.42587 0.69884 0.0
C1690 C 0.82946 0.42668 0.6882 0.0
C1691 C 0.87094 0.36669 0.67866 0.0
C1692 C 0.87793 0.36556 0.63805 0.0
C1693 C 0.87218 0.38415 0.69281 0.0
C1694 C 0.88063 0.40096 0.66697 0.0
C1695 C 0.88767 0.39991 0.62648 0.0
C1696 C 0.88634 0.38243 0.61217 0.0
C1697 C 0.88172 0.41946 0.68198 0.0
C1698 C 0.86428 0.41911 0.6931 0.0
C1699 C 0.89967 0.43749 0.68398 0.0
C1700 C 0.91868 0.43866 0.67459 0.0
C1701 C 0.93128 0.45175 0.64352 0.0
C1702 C 0.94906 0.45264 0.6342 0.0
C1703 C 0.95443 0.44056 0.65588 0.0
C1704 C 0.94208 0.42762 0.68707 0.0
C1705 C 0.9243 0.4267 0.69656 0.0
H1706 H 0.96818 0.44125 0.64856 0.0
H1707 H 0.7963 0.43269 0.746 0.0
H1708 H 0.50825 0.88465 0.8965 0.0
H1709 H 0.47981 0.88762 0.91518 0.0
H1710 H 0.48821 0.87961 0.04791 0.0
H1711 H 0.51614 0.87574 0.02925 0.0
H1712 H 0.45161 0.85866 0.03168 0.0
H1713 H 0.49902 0.92515 1.00359 0.0
H1714 H 0.52467 0.953 0.9631 0.0
H1715 H 0.48361 0.94265 0.86266 0.0
H1716 H 0.45777 0.91451 0.90226 0.0
H1717 H 0.38527 0.8881 0.10952 0.0
H1718 H 0.41633 0.88988 0.09188 0.0
H1719 H 0.40046 0.88163 0.95901 0.0
H1720 H 0.36911 0.87937 0.97631 0.0
H1721 H 0.44108 0.91181 0.97727 0.0
H1722 H 0.39391 0.84399 0.00969 0.0
H1723 H 0.36906 0.81808 0.05566 0.0
H1724 H 0.4117 0.83371 0.15521 0.0
H1725 H 0.43672 0.85999 0.11011 0.0
C1726 C 0.50412 0.88354 0.92968 0.0
C1727 C 0.51443 0.87968 0.96121 0.0
C1728 C 0.48786 0.8854 0.94043 0.0
C1729 C 0.4818 0.88397 0.9831 0.0
C1730 C 0.49242 0.88064 0.01474 0.0
C1731 C 0.50848 0.87849 1.00396 0.0
C1732 C 0.46407 0.88529 0.99463 0.0
C1733 C 0.44953 0.87048 0.0202 0.0
C1734 C 0.46106 0.90056 0.9795 0.0
C1735 C 0.47649 0.9176 0.95574 0.0
C1736 C 0.49549 0.92872 0.97274 0.0
C1737 C 0.51006 0.94457 0.94996 0.0
C1738 C 0.50578 0.94956 0.91029 0.0
C1739 C 0.4869 0.93875 0.89337 0.0
C1740 C 0.47228 0.92285 0.91599 0.0
C1741 C 0.3883 0.88666 0.0765 0.0
C1742 C 0.37444 0.88325 0.04446 0.0
C1743 C 0.40615 0.88777 0.06648 0.0
C1744 C 0.41067 0.88577 0.02416 0.0
C1745 C 0.39728 0.88321 0.99187 0.0
C1746 C 0.3793 0.88182 1.00191 0.0
C1747 C 0.42883 0.88521 0.01395 0.0
C1748 C 0.44334 0.9001 0.9887 0.0
C1749 C 0.43202 0.87026 0.03004 0.0
C1750 C 0.41714 0.85408 0.05666 0.0
C1751 C 0.39796 0.84198 0.04148 0.0
C1752 C 0.38384 0.82723 0.06737 0.0
C1753 C 0.38879 0.82428 0.10835 0.0
C1754 C 0.40788 0.83603 0.12347 0.0
C1755 C 0.42204 0.85085 0.09775 0.0
H1756 H 0.37783 0.81287 0.12837 0.0
H1757 H 0.51708 0.96184 0.89268 0.0
H1758 H 0.64685 0.51626 0.35748 0.0
H1759 H 0.61547 0.48763 0.3752 0.0
H1760 H 0.59864 0.48056 0.24285 0.0
H1761 H 0.63006 0.50949 0.22471 0.0
H1762 H 0.56835 0.47434 0.29389 0.0
H1763 H 0.61449 0.45164 0.28887 0.0
H1764 H 0.64525 0.45227 0.30681 0.0
H1765 H 0.62901 0.44366 0.43897 0.0
H1766 H 0.59827 0.44328 0.42191 0.0
H1767 H 0.49211 0.37309 0.31224 0.0
H1768 H 0.52077 0.40455 0.29324 0.0
H1769 H 0.5373 0.41559 0.42557 0.0
H1770 H 0.5085 0.38442 0.44499 0.0
H1771 H 0.56764 0.41946 0.37298 0.0
H1772 H 0.52536 0.44721 0.38134 0.0
H1773 H 0.49679 0.45122 0.36742 0.0
H1774 H 0.50598 0.45078 0.23262 0.0
H1775 H 0.53498 0.44729 0.24592 0.0
C1776 C 0.63655 0.50868 0.33196 0.0
C1777 C 0.64125 0.5151 0.28946 0.0
C1778 C 0.61856 0.49222 0.34222 0.0
C1779 C 0.6048 0.48162 0.31029 0.0
C1780 C 0.60907 0.48838 0.26804 0.0
C1781 C 0.6271 0.50493 0.2577 0.0
C1782 C 0.5861 0.46342 0.32115 0.0
C1783 C 0.56823 0.4622 0.3105 0.0
C1784 C 0.58583 0.44773 0.34387 0.0
C1785 C 0.60414 0.44759 0.35414 0.0
C1786 C 0.61753 0.44999 0.32179 0.0
C1787 C 0.63496 0.4503 0.3318 0.0
C1788 C 0.6391 0.44805 0.37402 0.0
C1789 C 0.62579 0.44542 0.40629 0.0
C1790 C 0.60835 0.44514 0.39646 0.0
C1791 C 0.5017 0.3823 0.33743 0.0
C1792 C 0.49807 0.37599 0.38019 0.0
C1793 C 0.51805 0.40036 0.32649 0.0
C1794 C 0.53127 0.41244 0.35793 0.0
C1795 C 0.52736 0.4065 0.40071 0.0
C1796 C 0.51084 0.38862 0.41177 0.0
C1797 C 0.54991 0.43045 0.34591 0.0
C1798 C 0.56778 0.43156 0.35616 0.0
C1799 C 0.55021 0.44605 0.32296 0.0
C1800 C 0.53212 0.44675 0.3146 0.0
C1801 C 0.52114 0.44776 0.34874 0.0
C1802 C 0.505 0.45014 0.34097 0.0
C1803 C 0.49952 0.45119 0.29913 0.0
C1804 C 0.51023 0.44995 0.265 0.0
C1805 C 0.52659 0.4479 0.27263 0.0
H1806 H 0.48696 0.45295 0.29318 0.0
H1807 H 0.65262 0.44831 0.38171 0.0
H1808 H 0.13476 0.6315 0.56347 0.0
H1809 H 0.13244 0.6006 0.58421 0.0
H1810 H 0.12753 0.61291 0.71616 0.0
H1811 H 0.13074 0.64431 0.69573 0.0
H1812 H 0.15145 0.59988 0.71196 0.0
H1813 H 0.08771 0.57718 0.65505 0.0
H1814 H 0.06317 0.57418 0.60234 0.0
H1815 H 0.08546 0.54926 0.51203 0.0
H1816 H 0.11039 0.55243 0.56391 0.0
H1817 H 0.12613 0.50284 0.77821 0.0
H1818 H 0.12291 0.53152 0.76196 0.0
H1819 H 0.14011 0.53057 0.63201 0.0
H1820 H 0.14368 0.5022 0.64793 0.0
H1821 H 0.1078 0.53678 0.63941 0.0
H1822 H 0.17278 0.56166 0.69847 0.0
H1823 H 0.19573 0.5635 0.75411 0.0
H1824 H 0.16852 0.58328 0.84462 0.0
H1825 H 0.14515 0.58119 0.78968 0.0
C1826 C 0.13309 0.62765 0.59689 0.0
C1827 C 0.13313 0.64058 0.62787 0.0
C1828 C 0.13162 0.60982 0.60877 0.0
C1829 C 0.12961 0.60418 0.65184 0.0
C1830 C 0.12916 0.61686 0.68275 0.0
C1831 C 0.13093 0.63484 0.67095 0.0
C1832 C 0.12876 0.58547 0.66471 0.0
C1833 C 0.14162 0.58606 0.69652 0.0
C1834 C 0.11614 0.56733 0.64445 0.0
C1835 C 0.10104 0.5652 0.61328 0.0
C1836 C 0.08747 0.57118 0.62385 0.0
C1837 C 0.07348 0.56944 0.59414 0.0
C1838 C 0.07278 0.56157 0.55386 0.0
C1839 C 0.08604 0.55537 0.54323 0.0
C1840 C 0.1001 0.55713 0.57279 0.0
C1841 C 0.12925 0.50871 0.74617 0.0
C1842 C 0.13538 0.50026 0.71456 0.0
C1843 C 0.12735 0.5251 0.73692 0.0
C1844 C 0.13136 0.53327 0.69579 0.0
C1845 C 0.13692 0.52453 0.66393 0.0
C1846 C 0.13904 0.50832 0.67323 0.0
C1847 C 0.13055 0.55137 0.68616 0.0
C1848 C 0.11743 0.55064 0.65498 0.0
C1849 C 0.1427 0.5693 0.70738 0.0
C1850 C 0.15709 0.57107 0.74009 0.0
C1851 C 0.17161 0.56628 0.73031 0.0
C1852 C 0.1847 0.56737 0.76171 0.0
C1853 C 0.18355 0.57345 0.8029 0.0
C1854 C 0.16937 0.57854 0.81272 0.0
C1855 C 0.1562 0.57741 0.78146 0.0
H1856 H 0.19368 0.57426 0.82718 0.0
H1857 H 0.06193 0.56023 0.5309 0.0
H1858 H 0.64812 0.13494 0.97707 0.0
H1859 H 0.61791 0.1339 0.95494 0.0
H1860 H 0.59815 0.125 0.08552 0.0
H1861 H 0.62773 0.12484 0.10746 0.0
H1862 H 0.56845 0.10409 0.03933 0.0
H1863 H 0.61929 0.17126 0.03143 0.0
H1864 H 0.65111 0.19908 0.00913 0.0
H1865 H 0.63339 0.18753 0.87805 0.0
H1866 H 0.60155 0.15943 0.89953 0.0
H1867 H 0.50074 0.13899 0.02149 0.0
H1868 H 0.52973 0.13651 0.03788 0.0
H1869 H 0.53737 0.12929 0.90444 0.0
H1870 H 0.50808 0.13129 0.88765 0.0
H1871 H 0.57266 0.15777 0.94904 0.0
H1872 H 0.52004 0.09086 0.96201 0.0
H1873 H 0.48813 0.06491 0.98911 0.0
H1874 H 0.50958 0.07865 0.11749 0.0
H1875 H 0.54153 0.10492 0.09118 0.0
C1876 C 0.63732 0.13266 1.00111 0.0
C1877 C 0.64062 0.13033 0.04424 0.0
C1878 C 0.62004 0.1322 0.98841 0.0
C1879 C 0.60583 0.12988 0.01862 0.0
C1880 C 0.60885 0.12695 0.06148 0.0
C1881 C 0.62593 0.12702 0.07408 0.0
C1882 C 0.58799 0.13077 0.00585 0.0
C1883 C 0.56948 0.11597 0.01994 0.0
C1884 C 0.58908 0.1461 0.98007 0.0
C1885 C 0.60812 0.16312 0.96706 0.0
C1886 C 0.62223 0.17458 0.99783 0.0
C1887 C 0.64026 0.1904 0.98534 0.0
C1888 C 0.64429 0.19503 0.94219 0.0
C1889 C 0.63026 0.1839 0.91145 0.0
C1890 C 0.61221 0.16803 0.92377 0.0
C1891 C 0.50852 0.13685 0.9955 0.0
C1892 C 0.50204 0.13547 0.95313 0.0
C1893 C 0.5251 0.13541 1.005 0.0
C1894 C 0.53573 0.13272 0.9724 0.0
C1895 C 0.52943 0.13144 0.93008 0.0
C1896 C 0.51265 0.13258 0.92057 0.0
C1897 C 0.55335 0.13119 0.98269 0.0
C1898 C 0.57175 0.14588 0.9682 0.0
C1899 C 0.55221 0.11601 0.00882 0.0
C1900 C 0.53313 0.09997 0.02463 0.0
C1901 C 0.51791 0.08844 0.99604 0.0
C1902 C 0.49982 0.07366 0.01125 0.0
C1903 C 0.49681 0.07017 0.055 0.0
C1904 C 0.51192 0.08139 0.08361 0.0
C1905 C 0.53003 0.09621 0.06856 0.0
H1906 H 0.48279 0.05873 0.06672 0.0
H1907 H 0.65827 0.20728 0.93259 0.0
loop_
_geom_bond_atom_site_label_1
_geom_bond_atom_site_label_2
_geom_bond_distance
_geom_bond_site_symmetry_2
_ccdc_geom_bond_type
Co0 O2 2.143 . S
Co0 O8 2.074 . S
Co0 O11 2.093 . S
Co0 O24 2.097 . S
Co0 N41 2.151 . S
Co0 N49 2.214 . S
Co1 O2 2.160 . S
Co1 O7 2.058 . S
Co1 O17 2.057 . S
Co1 O32 2.037 . S
Co1 N36 2.145 . S
Co1 N57 2.257 . S
O2 Co0 2.143 . S
O2 Co1 2.160 . S
C3 O4 1.278 . S
C3 O11 1.224 . S
O4 C3 1.278 . S
C5 O6 1.245 . S
C5 O17 1.232 . S
O6 C5 1.245 . S
O7 Co1 2.058 . S
O7 C33 1.269 . S
O8 Co0 2.074 . S
O8 C33 1.257 . S
H9 C34 0.930 . S
H10 C40 0.930 . S
O11 Co0 2.093 . S
O11 C3 1.224 . S
H12 C44 0.929 . S
H13 C46 0.930 . S
H14 C47 0.930 . S
H15 C45 0.929 . S
H16 C48 0.928 . S
O17 Co1 2.057 . S
O17 C5 1.232 . S
H18 C37 0.929 . S
H19 C38 0.929 . S
H20 C50 0.931 . S
H21 C42 0.929 . S
H22 C51 0.930 . S
H23 C43 0.931 . S
O24 Co0 2.097 . S
O24 C52 1.214 . S
H25 C53 0.929 . S
H26 C54 0.929 . S
H27 C55 0.930 . S
H28 C56 0.929 . S
H29 C58 0.930 . S
H30 C35 0.930 . S
H31 C39 0.930 . S
O32 Co1 2.037 . S
O32 C52 1.234 . S
C33 O7 1.269 . S
C33 O8 1.257 . S
C34 H9 0.930 . S
C34 C37 1.388 . S
C34 C39 1.418 . S
C35 H30 0.930 . S
C35 C38 1.404 . S
C35 C39 1.353 . S
N36 Co1 2.145 . S
N36 C37 1.397 . S
N36 C38 1.334 . S
C37 H18 0.929 . S
C37 C34 1.388 . S
C37 N36 1.397 . S
C38 H19 0.929 . S
C38 C35 1.404 . S
C38 N36 1.334 . S
C39 H31 0.930 . S
C39 C34 1.418 . S
C39 C35 1.353 . S
C40 H10 0.930 . S
C40 N41 1.330 . S
C40 C42 1.446 . S
N41 Co0 2.151 . S
N41 C40 1.330 . S
N41 C45 1.418 . S
C42 H21 0.929 . S
C42 C40 1.446 . S
C42 C43 1.332 . S
C43 H23 0.931 . S
C43 C42 1.332 . S
C43 C44 1.267 . S
C44 H12 0.929 . S
C44 C43 1.267 . S
C44 C45 1.251 . S
C45 H15 0.929 . S
C45 N41 1.418 . S
C45 C44 1.251 . S
C46 H13 0.930 . S
C46 C48 1.406 . S
C46 C51 1.261 . S
C47 H14 0.930 . S
C47 N49 1.325 . S
C47 C50 1.357 . S
C48 H16 0.928 . S
C48 C46 1.406 . S
C48 N49 1.261 . S
N49 Co0 2.214 . S
N49 C47 1.325 . S
N49 C48 1.261 . S
C50 H20 0.931 . S
C50 C47 1.357 . S
C50 C51 1.312 . S
C51 H22 0.930 . S
C51 C46 1.261 . S
C51 C50 1.312 . S
C52 O24 1.214 . S
C52 O32 1.234 . S
C53 H25 0.929 . S
C53 C56 1.391 . S
C53 C58 1.391 . S
C54 H26 0.929 . S
C54 C55 1.390 . S
C54 N57 1.391 . S
C55 H27 0.930 . S
C55 C54 1.390 . S
C55 C56 1.392 . S
C56 H28 0.929 . S
C56 C53 1.391 . S
C56 C55 1.392 . S
N57 Co1 2.257 . S
N57 C54 1.391 . S
N57 C58 1.388 . S
C58 H29 0.930 . S
C58 C53 1.391 . S
C58 N57 1.388 . S
Co59 O61 2.143 . S
Co59 O67 2.074 . S
Co59 O70 2.093 . S
Co59 O83 2.097 . S
Co59 N100 2.151 . S
Co59 N108 2.214 . S
Co60 O61 2.160 . S
Co60 O66 2.058 . S
Co60 O76 2.057 . S
Co60 O91 2.037 . S
Co60 N95 2.145 . S
Co60 N116 2.257 . S
O61 Co59 2.143 . S
O61 Co60 2.160 . S
C62 O63 1.278 . S
C62 O70 1.224 . S
O63 C62 1.278 . S
C64 O65 1.245 . S
C64 O76 1.232 . S
O65 C64 1.245 . S
O66 Co60 2.058 . S
O66 C92 1.269 . S
O67 Co59 2.074 . S
O67 C92 1.257 . S
H68 C93 0.930 . S
H69 C99 0.930 . S
O70 Co59 2.093 . S
O70 C62 1.224 . S
H71 C103 0.929 . S
H72 C105 0.930 . S
H73 C106 0.930 . S
H74 C104 0.929 . S
H75 C107 0.928 . S
O76 Co60 2.057 . S
O76 C64 1.232 . S
H77 C96 0.929 . S
H78 C97 0.929 . S
H79 C109 0.931 . S
H80 C101 0.929 . S
H81 C110 0.930 . S
H82 C102 0.931 . S
O83 Co59 2.097 . S
O83 C111 1.214 . S
H84 C112 0.929 . S
H85 C113 0.929 . S
H86 C114 0.930 . S
H87 C115 0.929 . S
H88 C117 0.930 . S
H89 C94 0.930 . S
H90 C98 0.930 . S
O91 Co60 2.037 . S
O91 C111 1.234 . S
C92 O66 1.269 . S
C92 O67 1.257 . S
C93 H68 0.930 . S
C93 C96 1.388 . S
C93 C98 1.418 . S
C94 H89 0.930 . S
C94 C97 1.404 . S
C94 C98 1.353 . S
N95 Co60 2.145 . S
N95 C96 1.397 . S
N95 C97 1.334 . S
C96 H77 0.929 . S
C96 C93 1.388 . S
C96 N95 1.397 . S
C97 H78 0.929 . S
C97 C94 1.404 . S
C97 N95 1.334 . S
C98 H90 0.930 . S
C98 C93 1.418 . S
C98 C94 1.353 . S
C99 H69 0.930 . S
C99 N100 1.330 . S
C99 C101 1.446 . S
N100 Co59 2.151 . S
N100 C99 1.330 . S
N100 C104 1.418 . S
C101 H80 0.929 . S
C101 C99 1.446 . S
C101 C102 1.332 . S
C102 H82 0.931 . S
C102 C101 1.332 . S
C102 C103 1.267 . S
C103 H71 0.929 . S
C103 C102 1.267 . S
C103 C104 1.251 . S
C104 H74 0.929 . S
C104 N100 1.418 . S
C104 C103 1.251 . S
C105 H72 0.930 . S
C105 C107 1.406 . S
C105 C110 1.261 . S
C106 H73 0.930 . S
C106 N108 1.325 . S
C106 C109 1.357 . S
C107 H75 0.928 . S
C107 C105 1.406 . S
C107 N108 1.261 . S
N108 Co59 2.214 . S
N108 C106 1.325 . S
N108 C107 1.261 . S
C109 H79 0.931 . S
C109 C106 1.357 . S
C109 C110 1.312 . S
C110 H81 0.930 . S
C110 C105 1.261 . S
C110 C109 1.312 . S
C111 O83 1.214 . S
C111 O91 1.234 . S
C112 H84 0.929 . S
C112 C115 1.391 . S
C112 C117 1.391 . S
C113 H85 0.929 . S
C113 C114 1.390 . S
C113 N116 1.391 . S
C114 H86 0.930 . S
C114 C113 1.390 . S
C114 C115 1.392 . S
C115 H87 0.929 . S
C115 C112 1.391 . S
C115 C114 1.392 . S
N116 Co60 2.257 . S
N116 C113 1.391 . S
N116 C117 1.388 . S
C117 H88 0.930 . S
C117 C112 1.391 . S
C117 N116 1.388 . S
Co118 O120 2.143 1_554 S
Co118 O126 2.074 1_554 S
Co118 O129 2.093 . S
Co118 O142 2.097 . S
Co118 N159 2.151 . S
Co118 N167 2.214 . S
Co119 O120 2.160 . S
Co119 O125 2.058 . S
Co119 O135 2.057 . S
Co119 O150 2.037 . S
Co119 N154 2.145 . S
Co119 N175 2.257 . S
O120 Co118 2.143 1_556 S
O120 Co119 2.160 . S
C121 O122 1.278 1_554 S
C121 O129 1.224 . S
O122 C121 1.278 1_556 S
C123 O124 1.245 . S
C123 O135 1.232 . S
O124 C123 1.245 . S
O125 Co119 2.058 . S
O125 C151 1.269 . S
O126 Co118 2.074 1_556 S
O126 C151 1.257 . S
H127 C152 0.930 . S
H128 C158 0.930 . S
O129 Co118 2.093 . S
O129 C121 1.224 . S
H130 C162 0.929 . S
H131 C164 0.930 . S
H132 C165 0.930 . S
H133 C163 0.929 . S
H134 C166 0.928 . S
O135 Co119 2.057 . S
O135 C123 1.232 . S
H136 C155 0.929 . S
H137 C156 0.929 . S
H138 C168 0.931 . S
H139 C160 0.929 . S
H140 C169 0.930 . S
H141 C161 0.931 . S
O142 Co118 2.097 . S
O142 C170 1.201 1_554 S
H143 C171 0.929 . S
H144 C172 0.929 . S
H145 C173 0.930 . S
H146 C174 0.929 . S
H147 C176 0.930 . S
H148 C153 0.930 . S
H149 C157 0.930 . S
O150 Co119 2.037 . S
O150 C170 1.234 . S
C151 O125 1.269 . S
C151 O126 1.257 . S
C152 H127 0.930 . S
C152 C155 1.388 . S
C152 C157 1.418 . S
C153 H148 0.930 . S
C153 C156 1.404 . S
C153 C157 1.353 . S
N154 Co119 2.145 . S
N154 C155 1.397 . S
N154 C156 1.334 . S
C155 H136 0.929 . S
C155 C152 1.388 . S
C155 N154 1.397 . S
C156 H137 0.929 . S
C156 C153 1.404 . S
C156 N154 1.334 . S
C157 H149 0.930 . S
C157 C152 1.418 . S
C157 C153 1.353 . S
C158 H128 0.930 . S
C158 N159 1.330 . S
C158 C160 1.446 . S
N159 Co118 2.151 . S
N159 C158 1.330 . S
N159 C163 1.418 . S
C160 H139 0.929 . S
C160 C158 1.446 . S
C160 C161 1.332 . S
C161 H141 0.931 . S
C161 C160 1.332 . S
C161 C162 1.267 . S
C162 H130 0.929 . S
C162 C161 1.267 . S
C162 C163 1.251 . S
C163 H133 0.929 . S
C163 N159 1.418 . S
C163 C162 1.251 . S
C164 H131 0.930 . S
C164 C166 1.406 . S
C164 C169 1.261 . S
C165 H132 0.930 . S
C165 N167 1.325 . S
C165 C168 1.357 . S
C166 H134 0.928 . S
C166 C164 1.406 . S
C166 N167 1.261 . S
N167 Co118 2.214 . S
N167 C165 1.325 . S
N167 C166 1.261 . S
C168 H138 0.931 . S
C168 C165 1.357 . S
C168 C169 1.312 . S
C169 H140 0.930 . S
C169 C164 1.261 . S
C169 C168 1.312 . S
C170 O142 1.201 1_556 S
C170 O150 1.234 . S
C171 H143 0.929 . S
C171 C174 1.391 . S
C171 C176 1.391 . S
C172 H144 0.929 . S
C172 C173 1.390 . S
C172 N175 1.391 . S
C173 H145 0.930 . S
C173 C172 1.390 . S
C173 C174 1.392 . S
C174 H146 0.929 . S
C174 C171 1.391 . S
C174 C173 1.392 . S
N175 Co119 2.257 . S
N175 C172 1.391 . S
N175 C176 1.388 . S
C176 H147 0.930 . S
C176 C171 1.391 . S
C176 N175 1.388 . S
Co177 O179 2.143 . S
Co177 O185 2.074 . S
Co177 O188 2.093 . S
Co177 O201 2.097 . S
Co177 N218 2.151 . S
Co177 N226 2.214 . S
Co178 O179 2.160 . S
Co178 O184 2.058 . S
Co178 O194 2.057 . S
Co178 O209 2.037 . S
Co178 N213 2.145 . S
Co178 N234 2.257 . S
O179 Co177 2.143 . S
O179 Co178 2.160 . S
C180 O181 1.278 . S
C180 O188 1.224 . S
O181 C180 1.278 . S
C182 O183 1.245 . S
C182 O194 1.232 . S
O183 C182 1.245 . S
O184 Co178 2.058 . S
O184 C210 1.269 . S
O185 Co177 2.074 . S
O185 C210 1.257 . S
H186 C211 0.930 . S
H187 C217 0.930 . S
O188 Co177 2.093 . S
O188 C180 1.224 . S
H189 C221 0.929 . S
H190 C223 0.930 . S
H191 C224 0.930 . S
H192 C222 0.929 . S
H193 C225 0.928 . S
O194 Co178 2.057 . S
O194 C182 1.232 . S
H195 C214 0.929 . S
H196 C215 0.929 . S
H197 C227 0.931 . S
H198 C219 0.929 . S
H199 C228 0.930 . S
H200 C220 0.931 . S
O201 Co177 2.097 . S
O201 C229 1.214 . S
H202 C230 0.929 . S
H203 C231 0.929 . S
H204 C232 0.930 . S
H205 C233 0.929 . S
H206 C235 0.930 . S
H207 C212 0.930 . S
H208 C216 0.930 . S
O209 Co178 2.037 . S
O209 C229 1.234 . S
C210 O184 1.269 . S
C210 O185 1.257 . S
C211 H186 0.930 . S
C211 C214 1.388 . S
C211 C216 1.418 . S
C212 H207 0.930 . S
C212 C215 1.404 . S
C212 C216 1.353 . S
N213 Co178 2.145 . S
N213 C214 1.397 . S
N213 C215 1.334 . S
C214 H195 0.929 . S
C214 C211 1.388 . S
C214 N213 1.397 . S
C215 H196 0.929 . S
C215 C212 1.404 . S
C215 N213 1.334 . S
C216 H208 0.930 . S
C216 C211 1.418 . S
C216 C212 1.353 . S
C217 H187 0.930 . S
C217 N218 1.330 . S
C217 C219 1.446 . S
N218 Co177 2.151 . S
N218 C217 1.330 . S
N218 C222 1.418 . S
C219 H198 0.929 . S
C219 C217 1.446 . S
C219 C220 1.332 . S
C220 H200 0.931 . S
C220 C219 1.332 . S
C220 C221 1.267 . S
C221 H189 0.929 . S
C221 C220 1.267 . S
C221 C222 1.251 . S
C222 H192 0.929 . S
C222 N218 1.418 . S
C222 C221 1.251 . S
C223 H190 0.930 . S
C223 C225 1.406 . S
C223 C228 1.261 . S
C224 H191 0.930 . S
C224 N226 1.325 . S
C224 C227 1.357 . S
C225 H193 0.928 . S
C225 C223 1.406 . S
C225 N226 1.261 . S
N226 Co177 2.214 . S
N226 C224 1.325 . S
N226 C225 1.261 . S
C227 H197 0.931 . S
C227 C224 1.357 . S
C227 C228 1.312 . S
C228 H199 0.930 . S
C228 C223 1.261 . S
C228 C227 1.312 . S
C229 O201 1.214 . S
C229 O209 1.234 . S
C230 H202 0.929 . S
C230 C233 1.391 . S
C230 C235 1.391 . S
C231 H203 0.929 . S
C231 C232 1.390 . S
C231 N234 1.391 . S
C232 H204 0.930 . S
C232 C231 1.390 . S
C232 C233 1.392 . S
C233 H205 0.929 . S
C233 C230 1.391 . S
C233 C232 1.392 . S
N234 Co178 2.257 . S
N234 C231 1.391 . S
N234 C235 1.388 . S
C235 H206 0.930 . S
C235 C230 1.391 . S
C235 N234 1.388 . S
Co236 O238 2.143 . S
Co236 O244 2.074 . S
Co236 O247 2.093 . S
Co236 O260 2.097 . S
Co236 N277 2.151 . S
Co236 N285 2.214 . S
Co237 O238 2.160 . S
Co237 O243 2.058 . S
Co237 O253 2.057 . S
Co237 O268 2.037 . S
Co237 N272 2.145 . S
Co237 N293 2.257 . S
O238 Co236 2.143 . S
O238 Co237 2.160 . S
C239 O240 1.278 . S
C239 O247 1.224 . S
O240 C239 1.278 . S
C241 O242 1.245 . S
C241 O253 1.232 . S
O242 C241 1.245 . S
O243 Co237 2.058 . S
O243 C269 1.269 . S
O244 Co236 2.074 . S
O244 C269 1.257 . S
H245 C270 0.930 . S
H246 C276 0.930 . S
O247 Co236 2.093 . S
O247 C239 1.224 . S
H248 C280 0.929 . S
H249 C282 0.930 . S
H250 C283 0.930 . S
H251 C281 0.929 . S
H252 C284 0.928 . S
O253 Co237 2.057 . S
O253 C241 1.232 . S
H254 C273 0.929 . S
H255 C274 0.929 . S
H256 C286 0.931 . S
H257 C278 0.929 . S
H258 C287 0.930 . S
H259 C279 0.931 . S
O260 Co236 2.097 . S
O260 C288 1.214 . S
H261 C289 0.929 . S
H262 C290 0.929 . S
H263 C291 0.930 . S
H264 C292 0.929 . S
H265 C294 0.930 . S
H266 C271 0.930 . S
H267 C275 0.930 . S
O268 Co237 2.037 . S
O268 C288 1.234 . S
C269 O243 1.269 . S
C269 O244 1.257 . S
C270 H245 0.930 . S
C270 C273 1.388 . S
C270 C275 1.418 . S
C271 H266 0.930 . S
C271 C274 1.404 . S
C271 C275 1.353 . S
N272 Co237 2.145 . S
N272 C273 1.397 . S
N272 C274 1.334 . S
C273 H254 0.929 . S
C273 C270 1.388 . S
C273 N272 1.397 . S
C274 H255 0.929 . S
C274 C271 1.404 . S
C274 N272 1.334 . S
C275 H267 0.930 . S
C275 C270 1.418 . S
C275 C271 1.353 . S
C276 H246 0.930 . S
C276 N277 1.330 . S
C276 C278 1.446 . S
N277 Co236 2.151 . S
N277 C276 1.330 . S
N277 C281 1.418 . S
C278 H257 0.929 . S
C278 C276 1.446 . S
C278 C279 1.332 . S
C279 H259 0.931 . S
C279 C278 1.332 . S
C279 C280 1.267 . S
C280 H248 0.929 . S
C280 C279 1.267 . S
C280 C281 1.251 . S
C281 H251 0.929 . S
C281 N277 1.418 . S
C281 C280 1.251 . S
C282 H249 0.930 . S
C282 C284 1.406 . S
C282 C287 1.261 . S
C283 H250 0.930 . S
C283 N285 1.325 . S
C283 C286 1.357 . S
C284 H252 0.928 . S
C284 C282 1.406 . S
C284 N285 1.261 . S
N285 Co236 2.214 . S
N285 C283 1.325 . S
N285 C284 1.261 . S
C286 H256 0.931 . S
C286 C283 1.357 . S
C286 C287 1.312 . S
C287 H258 0.930 . S
C287 C282 1.261 . S
C287 C286 1.312 . S
C288 O260 1.214 . S
C288 O268 1.234 . S
C289 H261 0.929 . S
C289 C292 1.391 . S
C289 C294 1.391 . S
C290 H262 0.929 . S
C290 C291 1.390 . S
C290 N293 1.391 . S
C291 H263 0.930 . S
C291 C290 1.390 . S
C291 C292 1.392 . S
C292 H264 0.929 . S
C292 C289 1.391 . S
C292 C291 1.392 . S
N293 Co237 2.257 . S
N293 C290 1.391 . S
N293 C294 1.388 . S
C294 H265 0.930 . S
C294 C289 1.391 . S
C294 N293 1.388 . S
Co295 O297 2.143 1_554 S
Co295 O303 2.074 1_554 S
Co295 O306 2.093 . S
Co295 O319 2.097 . S
Co295 N336 2.151 . S
Co295 N344 2.214 . S
Co296 O297 2.160 . S
Co296 O302 2.058 . S
Co296 O312 2.057 . S
Co296 O327 2.037 . S
Co296 N331 2.145 . S
Co296 N352 2.257 . S
O297 Co295 2.143 1_556 S
O297 Co296 2.160 . S
C298 O299 1.278 1_554 S
C298 O306 1.224 . S
O299 C298 1.278 1_556 S
C300 O301 1.245 . S
C300 O312 1.232 . S
O301 C300 1.245 . S
O302 Co296 2.058 . S
O302 C328 1.269 . S
O303 Co295 2.074 1_556 S
O303 C328 1.257 . S
H304 C329 0.930 . S
H305 C335 0.930 . S
O306 Co295 2.093 . S
O306 C298 1.224 . S
H307 C339 0.929 . S
H308 C341 0.930 . S
H309 C342 0.930 . S
H310 C340 0.929 . S
H311 C343 0.928 . S
O312 Co296 2.057 . S
O312 C300 1.232 . S
H313 C332 0.929 . S
H314 C333 0.929 . S
H315 C345 0.931 . S
H316 C337 0.929 . S
H317 C346 0.930 . S
H318 C338 0.931 . S
O319 Co295 2.097 . S
O319 C347 1.201 1_554 S
H320 C348 0.929 . S
H321 C349 0.929 . S
H322 C350 0.930 . S
H323 C351 0.929 . S
H324 C353 0.930 . S
H325 C330 0.930 . S
H326 C334 0.930 . S
O327 Co296 2.037 . S
O327 C347 1.234 . S
C328 O302 1.269 . S
C328 O303 1.257 . S
C329 H304 0.930 . S
C329 C332 1.388 . S
C329 C334 1.418 . S
C330 H325 0.930 . S
C330 C333 1.404 . S
C330 C334 1.353 . S
N331 Co296 2.145 . S
N331 C332 1.397 . S
N331 C333 1.334 . S
C332 H313 0.929 . S
C332 C329 1.388 . S
C332 N331 1.397 . S
C333 H314 0.929 . S
C333 C330 1.404 . S
C333 N331 1.334 . S
C334 H326 0.930 . S
C334 C329 1.418 . S
C334 C330 1.353 . S
C335 H305 0.930 . S
C335 N336 1.330 . S
C335 C337 1.446 . S
N336 Co295 2.151 . S
N336 C335 1.330 . S
N336 C340 1.418 . S
C337 H316 0.929 . S
C337 C335 1.446 . S
C337 C338 1.332 . S
C338 H318 0.931 . S
C338 C337 1.332 . S
C338 C339 1.267 . S
C339 H307 0.929 . S
C339 C338 1.267 . S
C339 C340 1.251 . S
C340 H310 0.929 . S
C340 N336 1.418 . S
C340 C339 1.251 . S
C341 H308 0.930 . S
C341 C343 1.406 . S
C341 C346 1.261 . S
C342 H309 0.930 . S
C342 N344 1.325 . S
C342 C345 1.357 . S
C343 H311 0.928 . S
C343 C341 1.406 . S
C343 N344 1.261 . S
N344 Co295 2.214 . S
N344 C342 1.325 . S
N344 C343 1.261 . S
C345 H315 0.931 . S
C345 C342 1.357 . S
C345 C346 1.312 . S
C346 H317 0.930 . S
C346 C341 1.261 . S
C346 C345 1.312 . S
C347 O319 1.201 1_556 S
C347 O327 1.234 . S
C348 H320 0.929 . S
C348 C351 1.391 . S
C348 C353 1.391 . S
C349 H321 0.929 . S
C349 C350 1.390 . S
C349 N352 1.391 . S
C350 H322 0.930 . S
C350 C349 1.390 . S
C350 C351 1.392 . S
C351 H323 0.929 . S
C351 C348 1.391 . S
C351 C350 1.392 . S
N352 Co296 2.257 . S
N352 C349 1.391 . S
N352 C353 1.388 . S
C353 H324 0.930 . S
C353 C348 1.391 . S
C353 N352 1.388 . S
Co354 O356 2.143 . S
Co354 O362 2.074 . S
Co354 O365 2.093 . S
Co354 O378 2.097 . S
Co354 N395 2.151 . S
Co354 N403 2.214 . S
Co355 O356 2.160 . S
Co355 O361 2.058 . S
Co355 O371 2.057 . S
Co355 O386 2.037 . S
Co355 N390 2.145 . S
Co355 N411 2.257 . S
O356 Co354 2.143 . S
O356 Co355 2.160 . S
C357 O358 1.278 . S
C357 O365 1.224 . S
O358 C357 1.278 . S
C359 O360 1.245 . S
C359 O371 1.232 . S
O360 C359 1.245 . S
O361 Co355 2.058 . S
O361 C387 1.269 . S
O362 Co354 2.074 . S
O362 C387 1.257 . S
H363 C388 0.930 . S
H364 C394 0.930 . S
O365 Co354 2.093 . S
O365 C357 1.224 . S
H366 C398 0.929 . S
H367 C400 0.930 . S
H368 C401 0.930 . S
H369 C399 0.929 . S
H370 C402 0.928 . S
O371 Co355 2.057 . S
O371 C359 1.232 . S
H372 C391 0.929 . S
H373 C392 0.929 . S
H374 C404 0.931 . S
H375 C396 0.929 . S
H376 C405 0.930 . S
H377 C397 0.931 . S
O378 Co354 2.097 . S
O378 C406 1.214 . S
H379 C407 0.929 . S
H380 C408 0.929 . S
H381 C409 0.930 . S
H382 C410 0.929 . S
H383 C412 0.930 . S
H384 C389 0.930 . S
H385 C393 0.930 . S
O386 Co355 2.037 . S
O386 C406 1.234 . S
C387 O361 1.269 . S
C387 O362 1.257 . S
C388 H363 0.930 . S
C388 C391 1.388 . S
C388 C393 1.418 . S
C389 H384 0.930 . S
C389 C392 1.404 . S
C389 C393 1.353 . S
N390 Co355 2.145 . S
N390 C391 1.397 . S
N390 C392 1.334 . S
C391 H372 0.929 . S
C391 C388 1.388 . S
C391 N390 1.397 . S
C392 H373 0.929 . S
C392 C389 1.404 . S
C392 N390 1.334 . S
C393 H385 0.930 . S
C393 C388 1.418 . S
C393 C389 1.353 . S
C394 H364 0.930 . S
C394 N395 1.330 . S
C394 C396 1.446 . S
N395 Co354 2.151 . S
N395 C394 1.330 . S
N395 C399 1.418 . S
C396 H375 0.929 . S
C396 C394 1.446 . S
C396 C397 1.332 . S
C397 H377 0.931 . S
C397 C396 1.332 . S
C397 C398 1.267 . S
C398 H366 0.929 . S
C398 C397 1.267 . S
C398 C399 1.251 . S
C399 H369 0.929 . S
C399 N395 1.418 . S
C399 C398 1.251 . S
C400 H367 0.930 . S
C400 C402 1.406 . S
C400 C405 1.261 . S
C401 H368 0.930 . S
C401 N403 1.325 . S
C401 C404 1.357 . S
C402 H370 0.928 . S
C402 C400 1.406 . S
C402 N403 1.261 . S
N403 Co354 2.214 . S
N403 C401 1.325 . S
N403 C402 1.261 . S
C404 H374 0.931 . S
C404 C401 1.357 . S
C404 C405 1.312 . S
C405 H376 0.930 . S
C405 C400 1.261 . S
C405 C404 1.312 . S
C406 O378 1.214 . S
C406 O386 1.234 . S
C407 H379 0.929 . S
C407 C410 1.391 . S
C407 C412 1.391 . S
C408 H380 0.929 . S
C408 C409 1.390 . S
C408 N411 1.391 . S
C409 H381 0.930 . S
C409 C408 1.390 . S
C409 C410 1.392 . S
C410 H382 0.929 . S
C410 C407 1.391 . S
C410 C409 1.392 . S
N411 Co355 2.257 . S
N411 C408 1.391 . S
N411 C412 1.388 . S
C412 H383 0.930 . S
C412 C407 1.391 . S
C412 N411 1.388 . S
Co413 O415 2.143 . S
Co413 O421 2.074 . S
Co413 O424 2.093 . S
Co413 O437 2.097 . S
Co413 N454 2.151 . S
Co413 N462 2.214 . S
Co414 O415 2.160 . S
Co414 O420 2.058 . S
Co414 O430 2.057 . S
Co414 O445 2.037 . S
Co414 N449 2.145 . S
Co414 N470 2.257 . S
O415 Co413 2.143 . S
O415 Co414 2.160 . S
C416 O417 1.278 . S
C416 O424 1.224 . S
O417 C416 1.278 . S
C418 O419 1.245 . S
C418 O430 1.232 . S
O419 C418 1.245 . S
O420 Co414 2.058 . S
O420 C446 1.269 . S
O421 Co413 2.074 . S
O421 C446 1.257 . S
H422 C447 0.930 . S
H423 C453 0.930 . S
O424 Co413 2.093 . S
O424 C416 1.224 . S
H425 C457 0.929 . S
H426 C459 0.930 . S
H427 C460 0.930 . S
H428 C458 0.929 . S
H429 C461 0.928 . S
O430 Co414 2.057 . S
O430 C418 1.232 . S
H431 C450 0.929 . S
H432 C451 0.929 . S
H433 C463 0.931 . S
H434 C455 0.929 . S
H435 C464 0.930 . S
H436 C456 0.931 . S
O437 Co413 2.097 . S
O437 C465 1.214 . S
H438 C466 0.929 . S
H439 C467 0.929 . S
H440 C468 0.930 . S
H441 C469 0.929 . S
H442 C471 0.930 . S
H443 C448 0.930 . S
H444 C452 0.930 . S
O445 Co414 2.037 . S
O445 C465 1.234 . S
C446 O420 1.269 . S
C446 O421 1.257 . S
C447 H422 0.930 . S
C447 C450 1.388 . S
C447 C452 1.418 . S
C448 H443 0.930 . S
C448 C451 1.404 . S
C448 C452 1.353 . S
N449 Co414 2.145 . S
N449 C450 1.397 . S
N449 C451 1.334 . S
C450 H431 0.929 . S
C450 C447 1.388 . S
C450 N449 1.397 . S
C451 H432 0.929 . S
C451 C448 1.404 . S
C451 N449 1.334 . S
C452 H444 0.930 . S
C452 C447 1.418 . S
C452 C448 1.353 . S
C453 H423 0.930 . S
C453 N454 1.330 . S
C453 C455 1.446 . S
N454 Co413 2.151 . S
N454 C453 1.330 . S
N454 C458 1.418 . S
C455 H434 0.929 . S
C455 C453 1.446 . S
C455 C456 1.332 . S
C456 H436 0.931 . S
C456 C455 1.332 . S
C456 C457 1.267 . S
C457 H425 0.929 . S
C457 C456 1.267 . S
C457 C458 1.251 . S
C458 H428 0.929 . S
C458 N454 1.418 . S
C458 C457 1.251 . S
C459 H426 0.930 . S
C459 C461 1.406 . S
C459 C464 1.261 . S
C460 H427 0.930 . S
C460 N462 1.325 . S
C460 C463 1.357 . S
C461 H429 0.928 . S
C461 C459 1.406 . S
C461 N462 1.261 . S
N462 Co413 2.214 . S
N462 C460 1.325 . S
N462 C461 1.261 . S
C463 H433 0.931 . S
C463 C460 1.357 . S
C463 C464 1.312 . S
C464 H435 0.930 . S
C464 C459 1.261 . S
C464 C463 1.312 . S
C465 O437 1.214 . S
C465 O445 1.234 . S
C466 H438 0.929 . S
C466 C469 1.391 . S
C466 C471 1.391 . S
C467 H439 0.929 . S
C467 C468 1.390 . S
C467 N470 1.391 . S
C468 H440 0.930 . S
C468 C467 1.390 . S
C468 C469 1.392 . S
C469 H441 0.929 . S
C469 C466 1.391 . S
C469 C468 1.392 . S
N470 Co414 2.257 . S
N470 C467 1.391 . S
N470 C471 1.388 . S
C471 H442 0.930 . S
C471 C466 1.391 . S
C471 N470 1.388 . S
Co472 O474 2.143 1_556 S
Co472 O480 2.074 1_556 S
Co472 O483 2.093 . S
Co472 O496 2.097 . S
Co472 N513 2.151 . S
Co472 N521 2.214 . S
Co473 O474 2.160 . S
Co473 O479 2.058 . S
Co473 O489 2.057 . S
Co473 O504 2.037 . S
Co473 N508 2.145 . S
Co473 N529 2.257 . S
O474 Co472 2.143 1_554 S
O474 Co473 2.160 . S
C475 O476 1.278 1_556 S
C475 O483 1.224 . S
O476 C475 1.278 1_554 S
C477 O478 1.245 . S
C477 O489 1.232 . S
O478 C477 1.245 . S
O479 Co473 2.058 . S
O479 C505 1.269 . S
O480 Co472 2.074 1_554 S
O480 C505 1.257 . S
H481 C506 0.930 . S
H482 C512 0.930 . S
O483 Co472 2.093 . S
O483 C475 1.224 . S
H484 C516 0.929 . S
H485 C518 0.930 . S
H486 C519 0.930 . S
H487 C517 0.929 . S
H488 C520 0.928 . S
O489 Co473 2.057 . S
O489 C477 1.232 . S
H490 C509 0.929 . S
H491 C510 0.929 . S
H492 C522 0.931 . S
H493 C514 0.929 . S
H494 C523 0.930 . S
H495 C515 0.931 . S
O496 Co472 2.097 . S
O496 C524 1.201 1_556 S
H497 C525 0.929 . S
H498 C526 0.929 . S
H499 C527 0.930 . S
H500 C528 0.929 . S
H501 C530 0.930 . S
H502 C507 0.930 . S
H503 C511 0.930 . S
O504 Co473 2.037 . S
O504 C524 1.234 . S
C505 O479 1.269 . S
C505 O480 1.257 . S
C506 H481 0.930 . S
C506 C509 1.388 . S
C506 C511 1.418 . S
C507 H502 0.930 . S
C507 C510 1.404 . S
C507 C511 1.353 . S
N508 Co473 2.145 . S
N508 C509 1.397 . S
N508 C510 1.334 . S
C509 H490 0.929 . S
C509 C506 1.388 . S
C509 N508 1.397 . S
C510 H491 0.929 . S
C510 C507 1.404 . S
C510 N508 1.334 . S
C511 H503 0.930 . S
C511 C506 1.418 . S
C511 C507 1.353 . S
C512 H482 0.930 . S
C512 N513 1.330 . S
C512 C514 1.446 . S
N513 Co472 2.151 . S
N513 C512 1.330 . S
N513 C517 1.418 . S
C514 H493 0.929 . S
C514 C512 1.446 . S
C514 C515 1.332 . S
C515 H495 0.931 . S
C515 C514 1.332 . S
C515 C516 1.267 . S
C516 H484 0.929 . S
C516 C515 1.267 . S
C516 C517 1.251 . S
C517 H487 0.929 . S
C517 N513 1.418 . S
C517 C516 1.251 . S
C518 H485 0.930 . S
C518 C520 1.406 . S
C518 C523 1.261 . S
C519 H486 0.930 . S
C519 N521 1.325 . S
C519 C522 1.357 . S
C520 H488 0.928 . S
C520 C518 1.406 . S
C520 N521 1.261 . S
N521 Co472 2.214 . S
N521 C519 1.325 . S
N521 C520 1.261 . S
C522 H492 0.931 . S
C522 C519 1.357 . S
C522 C523 1.312 . S
C523 H494 0.930 . S
C523 C518 1.261 . S
C523 C522 1.312 . S
C524 O496 1.201 1_554 S
C524 O504 1.234 . S
C525 H497 0.929 . S
C525 C528 1.391 . S
C525 C530 1.391 . S
C526 H498 0.929 . S
C526 C527 1.390 . S
C526 N529 1.391 . S
C527 H499 0.930 . S
C527 C526 1.390 . S
C527 C528 1.392 . S
C528 H500 0.929 . S
C528 C525 1.391 . S
C528 C527 1.392 . S
N529 Co473 2.257 . S
N529 C526 1.391 . S
N529 C530 1.388 . S
C530 H501 0.930 . S
C530 C525 1.391 . S
C530 N529 1.388 . S
Co531 O533 2.143 . S
Co531 O539 2.074 . S
Co531 O542 2.093 . S
Co531 O555 2.097 . S
Co531 N572 2.151 . S
Co531 N580 2.214 . S
Co532 O533 2.160 . S
Co532 O538 2.058 . S
Co532 O548 2.057 . S
Co532 O563 2.037 . S
Co532 N567 2.145 . S
Co532 N588 2.257 . S
O533 Co531 2.143 . S
O533 Co532 2.160 . S
C534 O535 1.278 . S
C534 O542 1.224 . S
O535 C534 1.278 . S
C536 O537 1.245 . S
C536 O548 1.232 . S
O537 C536 1.245 . S
O538 Co532 2.058 . S
O538 C564 1.269 . S
O539 Co531 2.074 . S
O539 C564 1.257 . S
H540 C565 0.930 . S
H541 C571 0.930 . S
O542 Co531 2.093 . S
O542 C534 1.224 . S
H543 C575 0.929 . S
H544 C577 0.930 . S
H545 C578 0.930 . S
H546 C576 0.929 . S
H547 C579 0.928 . S
O548 Co532 2.057 . S
O548 C536 1.232 . S
H549 C568 0.929 . S
H550 C569 0.929 . S
H551 C581 0.931 . S
H552 C573 0.929 . S
H553 C582 0.930 . S
H554 C574 0.931 . S
O555 Co531 2.097 . S
O555 C583 1.214 . S
H556 C584 0.929 . S
H557 C585 0.929 . S
H558 C586 0.930 . S
H559 C587 0.929 . S
H560 C589 0.930 . S
H561 C566 0.930 . S
H562 C570 0.930 . S
O563 Co532 2.037 . S
O563 C583 1.234 . S
C564 O538 1.269 . S
C564 O539 1.257 . S
C565 H540 0.930 . S
C565 C568 1.388 . S
C565 C570 1.418 . S
C566 H561 0.930 . S
C566 C569 1.404 . S
C566 C570 1.353 . S
N567 Co532 2.145 . S
N567 C568 1.397 . S
N567 C569 1.334 . S
C568 H549 0.929 . S
C568 C565 1.388 . S
C568 N567 1.397 . S
C569 H550 0.929 . S
C569 C566 1.404 . S
C569 N567 1.334 . S
C570 H562 0.930 . S
C570 C565 1.418 . S
C570 C566 1.353 . S
C571 H541 0.930 . S
C571 N572 1.330 . S
C571 C573 1.446 . S
N572 Co531 2.151 . S
N572 C571 1.330 . S
N572 C576 1.418 . S
C573 H552 0.929 . S
C573 C571 1.446 . S
C573 C574 1.332 . S
C574 H554 0.931 . S
C574 C573 1.332 . S
C574 C575 1.267 . S
C575 H543 0.929 . S
C575 C574 1.267 . S
C575 C576 1.251 . S
C576 H546 0.929 . S
C576 N572 1.418 . S
C576 C575 1.251 . S
C577 H544 0.930 . S
C577 C579 1.406 . S
C577 C582 1.261 . S
C578 H545 0.930 . S
C578 N580 1.325 . S
C578 C581 1.357 . S
C579 H547 0.928 . S
C579 C577 1.406 . S
C579 N580 1.261 . S
N580 Co531 2.214 . S
N580 C578 1.325 . S
N580 C579 1.261 . S
C581 H551 0.931 . S
C581 C578 1.357 . S
C581 C582 1.312 . S
C582 H553 0.930 . S
C582 C577 1.261 . S
C582 C581 1.312 . S
C583 O555 1.214 . S
C583 O563 1.234 . S
C584 H556 0.929 . S
C584 C587 1.391 . S
C584 C589 1.391 . S
C585 H557 0.929 . S
C585 C586 1.390 . S
C585 N588 1.391 . S
C586 H558 0.930 . S
C586 C585 1.390 . S
C586 C587 1.392 . S
C587 H559 0.929 . S
C587 C584 1.391 . S
C587 C586 1.392 . S
N588 Co532 2.257 . S
N588 C585 1.391 . S
N588 C589 1.388 . S
C589 H560 0.930 . S
C589 C584 1.391 . S
C589 N588 1.388 . S
Co590 O592 2.143 . S
Co590 O598 2.074 . S
Co590 O601 2.093 . S
Co590 O614 2.097 . S
Co590 N631 2.151 . S
Co590 N639 2.214 . S
Co591 O592 2.160 . S
Co591 O597 2.058 . S
Co591 O607 2.057 . S
Co591 O622 2.037 . S
Co591 N626 2.145 . S
Co591 N647 2.257 . S
O592 Co590 2.143 . S
O592 Co591 2.160 . S
C593 O594 1.278 . S
C593 O601 1.224 . S
O594 C593 1.278 . S
C595 O596 1.245 . S
C595 O607 1.232 . S
O596 C595 1.245 . S
O597 Co591 2.058 . S
O597 C623 1.269 . S
O598 Co590 2.074 . S
O598 C623 1.257 . S
H599 C624 0.930 . S
H600 C630 0.930 . S
O601 Co590 2.093 . S
O601 C593 1.224 . S
H602 C634 0.929 . S
H603 C636 0.930 . S
H604 C637 0.930 . S
H605 C635 0.929 . S
H606 C638 0.928 . S
O607 Co591 2.057 . S
O607 C595 1.232 . S
H608 C627 0.929 . S
H609 C628 0.929 . S
H610 C640 0.931 . S
H611 C632 0.929 . S
H612 C641 0.930 . S
H613 C633 0.931 . S
O614 Co590 2.097 . S
O614 C642 1.214 . S
H615 C643 0.929 . S
H616 C644 0.929 . S
H617 C645 0.930 . S
H618 C646 0.929 . S
H619 C648 0.930 . S
H620 C625 0.930 . S
H621 C629 0.930 . S
O622 Co591 2.037 . S
O622 C642 1.234 . S
C623 O597 1.269 . S
C623 O598 1.257 . S
C624 H599 0.930 . S
C624 C627 1.388 . S
C624 C629 1.418 . S
C625 H620 0.930 . S
C625 C628 1.404 . S
C625 C629 1.353 . S
N626 Co591 2.145 . S
N626 C627 1.397 . S
N626 C628 1.334 . S
C627 H608 0.929 . S
C627 C624 1.388 . S
C627 N626 1.397 . S
C628 H609 0.929 . S
C628 C625 1.404 . S
C628 N626 1.334 . S
C629 H621 0.930 . S
C629 C624 1.418 . S
C629 C625 1.353 . S
C630 H600 0.930 . S
C630 N631 1.330 . S
C630 C632 1.446 . S
N631 Co590 2.151 . S
N631 C630 1.330 . S
N631 C635 1.418 . S
C632 H611 0.929 . S
C632 C630 1.446 . S
C632 C633 1.332 . S
C633 H613 0.931 . S
C633 C632 1.332 . S
C633 C634 1.267 . S
C634 H602 0.929 . S
C634 C633 1.267 . S
C634 C635 1.251 . S
C635 H605 0.929 . S
C635 N631 1.418 . S
C635 C634 1.251 . S
C636 H603 0.930 . S
C636 C638 1.406 . S
C636 C641 1.261 . S
C637 H604 0.930 . S
C637 N639 1.325 . S
C637 C640 1.357 . S
C638 H606 0.928 . S
C638 C636 1.406 . S
C638 N639 1.261 . S
N639 Co590 2.214 . S
N639 C637 1.325 . S
N639 C638 1.261 . S
C640 H610 0.931 . S
C640 C637 1.357 . S
C640 C641 1.312 . S
C641 H612 0.930 . S
C641 C636 1.261 . S
C641 C640 1.312 . S
C642 O614 1.214 . S
C642 O622 1.234 . S
C643 H615 0.929 . S
C643 C646 1.391 . S
C643 C648 1.391 . S
C644 H616 0.929 . S
C644 C645 1.390 . S
C644 N647 1.391 . S
C645 H617 0.930 . S
C645 C644 1.390 . S
C645 C646 1.392 . S
C646 H618 0.929 . S
C646 C643 1.391 . S
C646 C645 1.392 . S
N647 Co591 2.257 . S
N647 C644 1.391 . S
N647 C648 1.388 . S
C648 H619 0.930 . S
C648 C643 1.391 . S
C648 N647 1.388 . S
Co649 O651 2.143 1_556 S
Co649 O657 2.074 1_556 S
Co649 O660 2.093 . S
Co649 O673 2.097 . S
Co649 N690 2.151 . S
Co649 N698 2.214 . S
Co650 O651 2.160 . S
Co650 O656 2.058 . S
Co650 O666 2.057 . S
Co650 O681 2.037 . S
Co650 N685 2.145 . S
Co650 N706 2.257 . S
O651 Co649 2.143 1_554 S
O651 Co650 2.160 . S
C652 O653 1.278 1_556 S
C652 O660 1.224 . S
O653 C652 1.278 1_554 S
C654 O655 1.245 . S
C654 O666 1.232 . S
O655 C654 1.245 . S
O656 Co650 2.058 . S
O656 C682 1.269 . S
O657 Co649 2.074 1_554 S
O657 C682 1.257 . S
H658 C683 0.930 . S
H659 C689 0.930 . S
O660 Co649 2.093 . S
O660 C652 1.224 . S
H661 C693 0.929 . S
H662 C695 0.930 . S
H663 C696 0.930 . S
H664 C694 0.929 . S
H665 C697 0.928 . S
O666 Co650 2.057 . S
O666 C654 1.232 . S
H667 C686 0.929 . S
H668 C687 0.929 . S
H669 C699 0.931 . S
H670 C691 0.929 . S
H671 C700 0.930 . S
H672 C692 0.931 . S
O673 Co649 2.097 . S
O673 C701 1.201 1_556 S
H674 C702 0.929 . S
H675 C703 0.929 . S
H676 C704 0.930 . S
H677 C705 0.929 . S
H678 C707 0.930 . S
H679 C684 0.930 . S
H680 C688 0.930 . S
O681 Co650 2.037 . S
O681 C701 1.234 . S
C682 O656 1.269 . S
C682 O657 1.257 . S
C683 H658 0.930 . S
C683 C686 1.388 . S
C683 C688 1.418 . S
C684 H679 0.930 . S
C684 C687 1.404 . S
C684 C688 1.353 . S
N685 Co650 2.145 . S
N685 C686 1.397 . S
N685 C687 1.334 . S
C686 H667 0.929 . S
C686 C683 1.388 . S
C686 N685 1.397 . S
C687 H668 0.929 . S
C687 C684 1.404 . S
C687 N685 1.334 . S
C688 H680 0.930 . S
C688 C683 1.418 . S
C688 C684 1.353 . S
C689 H659 0.930 . S
C689 N690 1.330 . S
C689 C691 1.446 . S
N690 Co649 2.151 . S
N690 C689 1.330 . S
N690 C694 1.418 . S
C691 H670 0.929 . S
C691 C689 1.446 . S
C691 C692 1.332 . S
C692 H672 0.931 . S
C692 C691 1.332 . S
C692 C693 1.267 . S
C693 H661 0.929 . S
C693 C692 1.267 . S
C693 C694 1.251 . S
C694 H664 0.929 . S
C694 N690 1.418 . S
C694 C693 1.251 . S
C695 H662 0.930 . S
C695 C697 1.406 . S
C695 C700 1.261 . S
C696 H663 0.930 . S
C696 N698 1.325 . S
C696 C699 1.357 . S
C697 H665 0.928 . S
C697 C695 1.406 . S
C697 N698 1.261 . S
N698 Co649 2.214 . S
N698 C696 1.325 . S
N698 C697 1.261 . S
C699 H669 0.931 . S
C699 C696 1.357 . S
C699 C700 1.312 . S
C700 H671 0.930 . S
C700 C695 1.261 . S
C700 C699 1.312 . S
C701 O673 1.201 1_554 S
C701 O681 1.234 . S
C702 H674 0.929 . S
C702 C705 1.391 . S
C702 C707 1.391 . S
C703 H675 0.929 . S
C703 C704 1.390 . S
C703 N706 1.391 . S
C704 H676 0.930 . S
C704 C703 1.390 . S
C704 C705 1.392 . S
C705 H677 0.929 . S
C705 C702 1.391 . S
C705 C704 1.392 . S
N706 Co650 2.257 . S
N706 C703 1.391 . S
N706 C707 1.388 . S
C707 H678 0.930 . S
C707 C702 1.391 . S
C707 N706 1.388 . S
H708 C726 0.951 . S
H709 C728 0.951 . S
H710 C730 0.950 . S
H711 C731 0.950 . S
H712 C733 0.950 . S
H713 C736 0.950 . S
H714 C737 0.950 . S
H715 C739 0.950 . S
H716 C740 0.950 . S
H717 C741 0.951 . S
H718 C743 0.951 . S
H719 C745 0.950 . S
H720 C746 0.950 . S
H721 C748 0.950 . S
H722 C751 0.950 . S
H723 C752 0.950 . S
H724 C754 0.950 . S
H725 C755 0.950 . S
C726 H708 0.951 . S
C726 C727 1.366 . S
C726 C728 1.388 . S
C727 C726 1.366 . S
C727 C731 1.385 . S
C728 H709 0.951 . S
C728 C726 1.388 . S
C728 C729 1.366 . S
C729 C728 1.366 . S
C729 C730 1.414 . S
C729 C732 1.499 . S
C730 H710 0.950 . S
C730 C729 1.414 . S
C730 C731 1.374 . S
C731 H711 0.950 . S
C731 C727 1.385 . S
C731 C730 1.374 . S
C732 C729 1.499 . S
C732 C733 1.373 . S
C732 C734 1.389 . S
C733 H712 0.950 . S
C733 C732 1.373 . S
C733 C749 1.377 . S
C734 C732 1.389 . S
C734 C735 1.524 . S
C734 C748 1.377 . S
C735 C734 1.524 . S
C735 C736 1.397 . S
C735 C740 1.363 . S
C736 H713 0.950 . S
C736 C735 1.397 . S
C736 C737 1.334 . S
C737 H714 0.950 . S
C737 C736 1.334 . S
C737 C738 1.287 . S
C738 C737 1.287 . S
C738 C739 1.524 . S
C738 H757 0.913 . S
C739 H715 0.950 . S
C739 C738 1.524 . S
C739 C740 1.415 . S
C740 H716 0.950 . S
C740 C735 1.363 . S
C740 C739 1.415 . S
C741 H717 0.951 . S
C741 C742 1.366 . S
C741 C743 1.388 . S
C742 C741 1.366 . S
C742 C746 1.385 . S
C743 H718 0.951 . S
C743 C741 1.388 . S
C743 C744 1.366 . S
C744 C743 1.366 . S
C744 C745 1.414 . S
C744 C747 1.499 . S
C745 H719 0.950 . S
C745 C744 1.414 . S
C745 C746 1.374 . S
C746 H720 0.950 . S
C746 C742 1.385 . S
C746 C745 1.374 . S
C747 C744 1.499 . S
C747 C748 1.373 . S
C747 C749 1.389 . S
C748 H721 0.950 . S
C748 C734 1.377 . S
C748 C747 1.373 . S
C749 C733 1.377 . S
C749 C747 1.389 . S
C749 C750 1.524 . S
C750 C749 1.524 . S
C750 C751 1.397 . S
C750 C755 1.363 . S
C751 H722 0.950 . S
C751 C750 1.397 . S
C751 C752 1.334 . S
C752 H723 0.950 . S
C752 C751 1.334 . S
C752 C753 1.287 . S
C753 C752 1.287 . S
C753 C754 1.524 . S
C753 H756 0.999 . S
C754 H724 0.950 . S
C754 C753 1.524 . S
C754 C755 1.415 . S
C755 H725 0.950 . S
C755 C750 1.363 . S
C755 C754 1.415 . S
H756 C753 0.999 . S
H757 C738 0.913 . S
H758 C776 0.951 . S
H759 C778 0.951 . S
H760 C780 0.950 . S
H761 C781 0.950 . S
H762 C783 0.950 . S
H763 C786 0.950 . S
H764 C787 0.950 . S
H765 C789 0.950 . S
H766 C790 0.950 . S
H767 C791 0.951 . S
H768 C793 0.951 . S
H769 C795 0.950 . S
H770 C796 0.950 . S
H771 C798 0.950 . S
H772 C801 0.950 . S
H773 C802 0.950 . S
H774 C804 0.950 . S
H775 C805 0.950 . S
C776 H758 0.951 . S
C776 C777 1.366 . S
C776 C778 1.388 . S
C777 C776 1.366 . S
C777 C781 1.385 . S
C778 H759 0.951 . S
C778 C776 1.388 . S
C778 C779 1.366 . S
C779 C778 1.366 . S
C779 C780 1.414 . S
C779 C782 1.499 . S
C780 H760 0.950 . S
C780 C779 1.414 . S
C780 C781 1.374 . S
C781 H761 0.950 . S
C781 C777 1.385 . S
C781 C780 1.374 . S
C782 C779 1.499 . S
C782 C783 1.373 . S
C782 C784 1.389 . S
C783 H762 0.950 . S
C783 C782 1.373 . S
C783 C799 1.377 1_655 S
C784 C782 1.389 . S
C784 C785 1.524 . S
C784 C798 1.377 1_655 S
C785 C784 1.524 . S
C785 C786 1.397 . S
C785 C790 1.363 . S
C786 H763 0.950 . S
C786 C785 1.397 . S
C786 C787 1.334 . S
C787 H764 0.950 . S
C787 C786 1.334 . S
C787 C788 1.287 . S
C788 C787 1.287 . S
C788 C789 1.524 . S
C788 H807 0.913 . S
C789 H765 0.950 . S
C789 C788 1.524 . S
C789 C790 1.415 . S
C790 H766 0.950 . S
C790 C785 1.363 . S
C790 C789 1.415 . S
C791 H767 0.951 . S
C791 C792 1.366 . S
C791 C793 1.388 . S
C792 C791 1.366 . S
C792 C796 1.385 . S
C793 H768 0.951 . S
C793 C791 1.388 . S
C793 C794 1.366 . S
C794 C793 1.366 . S
C794 C795 1.414 . S
C794 C797 1.499 . S
C795 H769 0.950 . S
C795 C794 1.414 . S
C795 C796 1.374 . S
C796 H770 0.950 . S
C796 C792 1.385 . S
C796 C795 1.374 . S
C797 C794 1.499 . S
C797 C798 1.373 . S
C797 C799 1.389 . S
C798 H771 0.950 . S
C798 C784 1.377 1_455 S
C798 C797 1.373 . S
C799 C783 1.377 1_455 S
C799 C797 1.389 . S
C799 C800 1.524 . S
C800 C799 1.524 . S
C800 C801 1.397 . S
C800 C805 1.363 . S
C801 H772 0.950 . S
C801 C800 1.397 . S
C801 C802 1.334 . S
C802 H773 0.950 . S
C802 C801 1.334 . S
C802 C803 1.287 . S
C803 C802 1.287 . S
C803 C804 1.524 . S
C803 H806 0.999 . S
C804 H774 0.950 . S
C804 C803 1.524 . S
C804 C805 1.415 . S
C805 H775 0.950 . S
C805 C800 1.363 . S
C805 C804 1.415 . S
H806 C803 0.999 . S
H807 C788 0.913 . S
H808 C826 0.951 . S
H809 C828 0.951 1_554 S
H810 C830 0.950 . S
H811 C831 0.950 . S
H812 C833 0.950 . S
H813 C836 0.950 . S
H814 C837 0.950 . S
H815 C839 0.950 . S
H816 C840 0.950 . S
H817 C841 0.951 . S
H818 C843 0.951 1_556 S
H819 C845 0.950 . S
H820 C846 0.950 . S
H821 C848 0.950 . S
H822 C851 0.950 . S
H823 C852 0.950 . S
H824 C854 0.950 . S
H825 C855 0.950 . S
C826 H808 0.951 . S
C826 C827 1.366 . S
C826 C828 1.388 . S
C827 C826 1.366 . S
C827 C831 1.385 . S
C828 H809 0.951 1_556 S
C828 C826 1.388 . S
C828 C829 1.366 . S
C829 C828 1.366 . S
C829 C830 1.414 . S
C829 C832 1.499 . S
C830 H810 0.950 . S
C830 C829 1.414 . S
C830 C831 1.374 . S
C831 H811 0.950 . S
C831 C827 1.385 . S
C831 C830 1.374 . S
C832 C829 1.499 . S
C832 C833 1.373 . S
C832 C834 1.389 1_556 S
C833 H812 0.950 . S
C833 C832 1.373 . S
C833 C849 1.377 1_565 S
C834 C832 1.389 1_554 S
C834 C835 1.524 . S
C834 C848 1.377 1_565 S
C835 C834 1.524 . S
C835 C836 1.397 . S
C835 C840 1.363 . S
C836 H813 0.950 . S
C836 C835 1.397 . S
C836 C837 1.334 . S
C837 H814 0.950 . S
C837 C836 1.334 . S
C837 C838 1.287 . S
C838 C837 1.287 . S
C838 C839 1.524 . S
C838 H857 0.913 . S
C839 H815 0.950 . S
C839 C838 1.524 . S
C839 C840 1.415 . S
C840 H816 0.950 . S
C840 C835 1.363 . S
C840 C839 1.415 . S
C841 H817 0.951 . S
C841 C842 1.366 . S
C841 C843 1.388 . S
C842 C841 1.366 . S
C842 C846 1.385 . S
C843 H818 0.951 1_554 S
C843 C841 1.388 . S
C843 C844 1.366 . S
C844 C843 1.366 . S
C844 C845 1.414 . S
C844 C847 1.499 . S
C845 H819 0.950 . S
C845 C844 1.414 . S
C845 C846 1.374 . S
C846 H820 0.950 . S
C846 C842 1.385 . S
C846 C845 1.374 . S
C847 C844 1.499 . S
C847 C848 1.373 . S
C847 C849 1.389 1_554 S
C848 H821 0.950 . S
C848 C834 1.377 1_545 S
C848 C847 1.373 . S
C849 C833 1.377 1_545 S
C849 C847 1.389 1_556 S
C849 C850 1.524 . S
C850 C849 1.524 . S
C850 C851 1.397 . S
C850 C855 1.363 . S
C851 H822 0.950 . S
C851 C850 1.397 . S
C851 C852 1.334 . S
C852 H823 0.950 . S
C852 C851 1.334 . S
C852 C853 1.287 . S
C853 C852 1.287 . S
C853 C854 1.524 . S
C853 H856 0.999 . S
C854 H824 0.950 . S
C854 C853 1.524 . S
C854 C855 1.415 . S
C855 H825 0.950 . S
C855 C850 1.363 . S
C855 C854 1.415 . S
H856 C853 0.999 . S
H857 C838 0.913 . S
H858 C876 0.951 . S
H859 C878 0.951 . S
H860 C880 0.950 . S
H861 C881 0.950 . S
H862 C883 0.950 . S
H863 C886 0.950 . S
H864 C887 0.950 . S
H865 C889 0.950 . S
H866 C890 0.950 . S
H867 C891 0.951 . S
H868 C893 0.951 . S
H869 C895 0.950 . S
H870 C896 0.950 . S
H871 C898 0.950 . S
H872 C901 0.950 . S
H873 C902 0.950 . S
H874 C904 0.950 . S
H875 C905 0.950 . S
C876 H858 0.951 . S
C876 C877 1.366 . S
C876 C878 1.388 . S
C877 C876 1.366 . S
C877 C881 1.385 . S
C878 H859 0.951 . S
C878 C876 1.388 . S
C878 C879 1.366 . S
C879 C878 1.366 . S
C879 C880 1.414 . S
C879 C882 1.499 . S
C880 H860 0.950 . S
C880 C879 1.414 . S
C880 C881 1.374 . S
C881 H861 0.950 . S
C881 C877 1.385 . S
C881 C880 1.374 . S
C882 C879 1.499 . S
C882 C883 1.373 . S
C882 C884 1.389 . S
C883 H862 0.950 . S
C883 C882 1.373 . S
C883 C899 1.377 . S
C884 C882 1.389 . S
C884 C885 1.524 . S
C884 C898 1.377 . S
C885 C884 1.524 . S
C885 C886 1.397 . S
C885 C890 1.363 . S
C886 H863 0.950 . S
C886 C885 1.397 . S
C886 C887 1.334 . S
C887 H864 0.950 . S
C887 C886 1.334 . S
C887 C888 1.287 . S
C888 C887 1.287 . S
C888 C889 1.524 . S
C888 H907 0.913 . S
C889 H865 0.950 . S
C889 C888 1.524 . S
C889 C890 1.415 . S
C890 H866 0.950 . S
C890 C885 1.363 . S
C890 C889 1.415 . S
C891 H867 0.951 . S
C891 C892 1.366 . S
C891 C893 1.388 . S
C892 C891 1.366 . S
C892 C896 1.385 . S
C893 H868 0.951 . S
C893 C891 1.388 . S
C893 C894 1.366 . S
C894 C893 1.366 . S
C894 C895 1.414 . S
C894 C897 1.499 . S
C895 H869 0.950 . S
C895 C894 1.414 . S
C895 C896 1.374 . S
C896 H870 0.950 . S
C896 C892 1.385 . S
C896 C895 1.374 . S
C897 C894 1.499 . S
C897 C898 1.373 . S
C897 C899 1.389 . S
C898 H871 0.950 . S
C898 C884 1.377 . S
C898 C897 1.373 . S
C899 C883 1.377 . S
C899 C897 1.389 . S
C899 C900 1.524 . S
C900 C899 1.524 . S
C900 C901 1.397 . S
C900 C905 1.363 . S
C901 H872 0.950 . S
C901 C900 1.397 . S
C901 C902 1.334 . S
C902 H873 0.950 . S
C902 C901 1.334 . S
C902 C903 1.287 . S
C903 C902 1.287 . S
C903 C904 1.524 . S
C903 H906 0.999 . S
C904 H874 0.950 . S
C904 C903 1.524 . S
C904 C905 1.415 . S
C905 H875 0.950 . S
C905 C900 1.363 . S
C905 C904 1.415 . S
H906 C903 0.999 . S
H907 C888 0.913 . S
H908 C926 0.951 . S
H909 C928 0.951 . S
H910 C930 0.950 . S
H911 C931 0.950 . S
H912 C933 0.950 . S
H913 C936 0.950 . S
H914 C937 0.950 . S
H915 C939 0.950 1_455 S
H916 C940 0.987 . S
H917 C941 0.951 . S
H918 C943 0.951 . S
H919 C945 0.950 . S
H920 C946 0.950 . S
H921 C948 0.950 . S
H922 C951 0.950 . S
H923 C952 0.950 . S
H924 C954 0.950 1_655 S
H925 C955 0.987 . S
C926 H908 0.951 . S
C926 C927 1.366 . S
C926 C928 1.388 . S
C927 C926 1.366 . S
C927 C931 1.385 . S
C928 H909 0.951 . S
C928 C926 1.388 . S
C928 C929 1.366 . S
C929 C928 1.366 . S
C929 C930 1.414 . S
C929 C932 1.499 . S
C930 H910 0.950 . S
C930 C929 1.414 . S
C930 C931 1.374 . S
C931 H911 0.950 . S
C931 C927 1.385 . S
C931 C930 1.374 . S
C932 C929 1.499 . S
C932 C933 1.373 . S
C932 C934 1.389 . S
C933 H912 0.950 . S
C933 C932 1.373 . S
C933 C949 1.377 1_655 S
C934 C932 1.389 . S
C934 C935 1.524 . S
C934 C948 1.377 1_655 S
C935 C934 1.524 . S
C935 C936 1.397 . S
C935 C940 1.349 1_655 S
C936 H913 0.950 . S
C936 C935 1.397 . S
C936 C937 1.334 . S
C937 H914 0.950 . S
C937 C936 1.334 . S
C937 C938 1.287 . S
C938 C937 1.287 . S
C938 C939 1.524 . S
C938 H957 0.913 . S
C939 H915 0.950 1_655 S
C939 C938 1.524 . S
C939 C940 1.393 1_655 S
C940 H916 0.987 . S
C940 C935 1.349 1_455 S
C940 C939 1.393 1_455 S
C941 H917 0.951 . S
C941 C942 1.366 . S
C941 C943 1.388 . S
C942 C941 1.366 . S
C942 C946 1.385 . S
C943 H918 0.951 . S
C943 C941 1.388 . S
C943 C944 1.366 . S
C944 C943 1.366 . S
C944 C945 1.414 . S
C944 C947 1.499 . S
C945 H919 0.950 . S
C945 C944 1.414 . S
C945 C946 1.374 . S
C946 H920 0.950 . S
C946 C942 1.385 . S
C946 C945 1.374 . S
C947 C944 1.499 . S
C947 C948 1.373 . S
C947 C949 1.389 . S
C948 H921 0.950 . S
C948 C934 1.377 1_455 S
C948 C947 1.373 . S
C949 C933 1.377 1_455 S
C949 C947 1.389 . S
C949 C950 1.524 . S
C950 C949 1.524 . S
C950 C951 1.397 . S
C950 C955 1.350 1_455 S
C951 H922 0.950 . S
C951 C950 1.397 . S
C951 C952 1.334 . S
C952 H923 0.950 . S
C952 C951 1.334 . S
C952 C953 1.287 . S
C953 C952 1.287 . S
C953 C954 1.524 . S
C953 H956 0.999 . S
C954 H924 0.950 1_455 S
C954 C953 1.524 . S
C954 C955 1.393 1_455 S
C955 H925 0.987 . S
C955 C950 1.350 1_655 S
C955 C954 1.393 1_655 S
H956 C953 0.999 . S
H957 C938 0.913 . S
H958 C976 0.951 . S
H959 C978 0.951 . S
H960 C980 0.951 1_556 S
H961 C981 0.950 . S
H962 C983 0.950 . S
H963 C986 0.950 . S
H964 C987 0.950 . S
H965 C989 0.950 . S
H966 C990 0.950 . S
H967 C991 0.951 . S
H968 C993 0.951 . S
H969 C995 0.951 1_554 S
H970 C996 0.950 . S
H971 C998 0.950 . S
H972 C1001 0.950 . S
H973 C1002 0.950 . S
H974 C1004 0.950 . S
H975 C1005 0.950 . S
C976 H958 0.951 . S
C976 C977 1.366 . S
C976 C978 1.388 . S
C977 C976 1.366 . S
C977 C981 1.385 . S
C978 H959 0.951 . S
C978 C976 1.388 . S
C978 C979 1.366 . S
C979 C978 1.366 . S
C979 C980 1.414 . S
C979 C982 1.499 . S
C980 H960 0.951 1_554 S
C980 C979 1.414 . S
C980 C981 1.374 . S
C981 H961 0.950 . S
C981 C977 1.385 . S
C981 C980 1.374 . S
C982 C979 1.499 . S
C982 C983 1.373 1_554 S
C982 C984 1.389 . S
C983 H962 0.950 . S
C983 C982 1.373 1_556 S
C983 C999 1.377 1_565 S
C984 C982 1.389 . S
C984 C985 1.524 . S
C984 C998 1.377 1_565 S
C985 C984 1.524 . S
C985 C986 1.397 . S
C985 C990 1.363 1_565 S
C986 H963 0.950 . S
C986 C985 1.397 . S
C986 C987 1.334 . S
C987 H964 0.950 . S
C987 C986 1.334 . S
C987 C988 1.287 . S
C988 C987 1.287 . S
C988 C989 1.524 1_565 S
C988 H1007 0.913 . S
C989 H965 0.950 . S
C989 C988 1.524 1_545 S
C989 C990 1.415 . S
C990 H966 0.950 . S
C990 C985 1.363 1_545 S
C990 C989 1.415 . S
C991 H967 0.951 . S
C991 C992 1.366 . S
C991 C993 1.388 . S
C992 C991 1.366 . S
C992 C996 1.385 . S
C993 H968 0.951 . S
C993 C991 1.388 . S
C993 C994 1.366 . S
C994 C993 1.366 . S
C994 C995 1.414 . S
C994 C997 1.499 . S
C995 H969 0.951 1_556 S
C995 C994 1.414 . S
C995 C996 1.374 . S
C996 H970 0.950 . S
C996 C992 1.385 . S
C996 C995 1.374 . S
C997 C994 1.499 . S
C997 C998 1.373 1_556 S
C997 C999 1.389 . S
C998 H971 0.950 . S
C998 C984 1.377 1_545 S
C998 C997 1.373 1_554 S
C999 C983 1.377 1_545 S
C999 C997 1.389 . S
C999 C1000 1.524 . S
C1000 C999 1.524 . S
C1000 C1001 1.397 . S
C1000 C1005 1.363 1_545 S
C1001 H972 0.950 . S
C1001 C1000 1.397 . S
C1001 C1002 1.334 . S
C1002 H973 0.950 . S
C1002 C1001 1.334 . S
C1002 C1003 1.287 . S
C1003 C1002 1.287 . S
C1003 C1004 1.524 1_545 S
C1003 H1006 0.999 . S
C1004 H974 0.950 . S
C1004 C1003 1.524 1_565 S
C1004 C1005 1.415 . S
C1005 H975 0.950 . S
C1005 C1000 1.363 1_565 S
C1005 C1004 1.415 . S
H1006 C1003 0.999 . S
H1007 C988 0.913 . S
H1008 C1026 0.951 . S
H1009 C1028 0.951 . S
H1010 C1030 0.950 . S
H1011 C1031 0.950 . S
H1012 C1033 0.950 . S
H1013 C1036 0.950 . S
H1014 C1037 0.950 . S
H1015 C1039 0.950 . S
H1016 C1040 0.950 . S
H1017 C1041 0.951 . S
H1018 C1043 0.951 . S
H1019 C1045 0.950 . S
H1020 C1046 0.950 . S
H1021 C1048 0.950 . S
H1022 C1051 0.950 . S
H1023 C1052 0.950 . S
H1024 C1054 0.950 . S
H1025 C1055 0.950 . S
C1026 H1008 0.951 . S
C1026 C1027 1.366 . S
C1026 C1028 1.388 . S
C1027 C1026 1.366 . S
C1027 C1031 1.385 . S
C1028 H1009 0.951 . S
C1028 C1026 1.388 . S
C1028 C1029 1.366 . S
C1029 C1028 1.366 . S
C1029 C1030 1.414 . S
C1029 C1032 1.499 . S
C1030 H1010 0.950 . S
C1030 C1029 1.414 . S
C1030 C1031 1.374 . S
C1031 H1011 0.950 . S
C1031 C1027 1.385 . S
C1031 C1030 1.374 . S
C1032 C1029 1.499 . S
C1032 C1033 1.373 . S
C1032 C1034 1.389 1_556 S
C1033 H1012 0.950 . S
C1033 C1032 1.373 . S
C1033 C1049 1.377 . S
C1034 C1032 1.389 1_554 S
C1034 C1035 1.524 . S
C1034 C1048 1.377 . S
C1035 C1034 1.524 . S
C1035 C1036 1.397 1_554 S
C1035 C1040 1.363 . S
C1036 H1013 0.950 . S
C1036 C1035 1.397 1_556 S
C1036 C1037 1.334 . S
C1037 H1014 0.950 . S
C1037 C1036 1.334 . S
C1037 C1038 1.287 1_556 S
C1038 C1037 1.287 1_554 S
C1038 C1039 1.524 . S
C1038 H1057 0.913 . S
C1039 H1015 0.950 . S
C1039 C1038 1.524 . S
C1039 C1040 1.415 . S
C1040 H1016 0.950 . S
C1040 C1035 1.363 . S
C1040 C1039 1.415 . S
C1041 H1017 0.951 . S
C1041 C1042 1.366 . S
C1041 C1043 1.388 . S
C1042 C1041 1.366 . S
C1042 C1046 1.385 . S
C1043 H1018 0.951 . S
C1043 C1041 1.388 . S
C1043 C1044 1.366 . S
C1044 C1043 1.366 . S
C1044 C1045 1.414 . S
C1044 C1047 1.499 . S
C1045 H1019 0.950 . S
C1045 C1044 1.414 . S
C1045 C1046 1.374 . S
C1046 H1020 0.950 . S
C1046 C1042 1.385 . S
C1046 C1045 1.374 . S
C1047 C1044 1.499 . S
C1047 C1048 1.373 . S
C1047 C1049 1.389 1_554 S
C1048 H1021 0.950 . S
C1048 C1034 1.377 . S
C1048 C1047 1.373 . S
C1049 C1033 1.377 . S
C1049 C1047 1.389 1_556 S
C1049 C1050 1.524 . S
C1050 C1049 1.524 . S
C1050 C1051 1.397 1_556 S
C1050 C1055 1.363 . S
C1051 H1022 0.950 . S
C1051 C1050 1.397 1_554 S
C1051 C1052 1.334 . S
C1052 H1023 0.950 . S
C1052 C1051 1.334 . S
C1052 C1053 1.287 1_554 S
C1053 C1052 1.287 1_556 S
C1053 C1054 1.524 . S
C1053 H1056 0.999 . S
C1054 H1024 0.950 . S
C1054 C1053 1.524 . S
C1054 C1055 1.415 . S
C1055 H1025 0.950 . S
C1055 C1050 1.363 . S
C1055 C1054 1.415 . S
H1056 C1053 0.999 . S
H1057 C1038 0.913 . S
H1058 C1076 0.951 . S
H1059 C1078 0.951 . S
H1060 C1080 0.950 . S
H1061 C1081 0.950 . S
H1062 C1083 0.950 . S
H1063 C1086 0.950 . S
H1064 C1087 0.950 . S
H1065 C1089 0.950 . S
H1066 C1090 0.950 . S
H1067 C1091 0.951 . S
H1068 C1093 0.951 . S
H1069 C1095 0.950 . S
H1070 C1096 0.950 . S
H1071 C1098 0.950 . S
H1072 C1101 0.950 . S
H1073 C1102 0.950 . S
H1074 C1104 0.950 . S
H1075 C1105 0.950 . S
C1076 H1058 0.951 . S
C1076 C1077 1.366 . S
C1076 C1078 1.388 . S
C1077 C1076 1.366 . S
C1077 C1081 1.385 . S
C1078 H1059 0.951 . S
C1078 C1076 1.388 . S
C1078 C1079 1.366 . S
C1079 C1078 1.366 . S
C1079 C1080 1.414 . S
C1079 C1082 1.499 . S
C1080 H1060 0.950 . S
C1080 C1079 1.414 . S
C1080 C1081 1.374 . S
C1081 H1061 0.950 . S
C1081 C1077 1.385 . S
C1081 C1080 1.374 . S
C1082 C1079 1.499 . S
C1082 C1083 1.373 . S
C1082 C1084 1.389 . S
C1083 H1062 0.950 . S
C1083 C1082 1.373 . S
C1083 C1099 1.377 . S
C1084 C1082 1.389 . S
C1084 C1085 1.524 . S
C1084 C1098 1.377 . S
C1085 C1084 1.524 . S
C1085 C1086 1.397 . S
C1085 C1090 1.363 . S
C1086 H1063 0.950 . S
C1086 C1085 1.397 . S
C1086 C1087 1.334 . S
C1087 H1064 0.950 . S
C1087 C1086 1.334 . S
C1087 C1088 1.287 . S
C1088 C1087 1.287 . S
C1088 C1089 1.524 . S
C1088 H1107 0.913 . S
C1089 H1065 0.950 . S
C1089 C1088 1.524 . S
C1089 C1090 1.415 . S
C1090 H1066 0.950 . S
C1090 C1085 1.363 . S
C1090 C1089 1.415 . S
C1091 H1067 0.951 . S
C1091 C1092 1.366 . S
C1091 C1093 1.388 . S
C1092 C1091 1.366 . S
C1092 C1096 1.385 . S
C1093 H1068 0.951 . S
C1093 C1091 1.388 . S
C1093 C1094 1.366 . S
C1094 C1093 1.366 . S
C1094 C1095 1.414 . S
C1094 C1097 1.499 . S
C1095 H1069 0.950 . S
C1095 C1094 1.414 . S
C1095 C1096 1.374 . S
C1096 H1070 0.950 . S
C1096 C1092 1.385 . S
C1096 C1095 1.374 . S
C1097 C1094 1.499 . S
C1097 C1098 1.373 . S
C1097 C1099 1.389 . S
C1098 H1071 0.950 . S
C1098 C1084 1.377 . S
C1098 C1097 1.373 . S
C1099 C1083 1.377 . S
C1099 C1097 1.389 . S
C1099 C1100 1.524 . S
C1100 C1099 1.524 . S
C1100 C1101 1.397 . S
C1100 C1105 1.363 . S
C1101 H1072 0.950 . S
C1101 C1100 1.397 . S
C1101 C1102 1.334 . S
C1102 H1073 0.950 . S
C1102 C1101 1.334 . S
C1102 C1103 1.287 . S
C1103 C1102 1.287 . S
C1103 C1104 1.524 . S
C1103 H1106 0.999 . S
C1104 H1074 0.950 . S
C1104 C1103 1.524 . S
C1104 C1105 1.415 . S
C1105 H1075 0.950 . S
C1105 C1100 1.363 . S
C1105 C1104 1.415 . S
H1106 C1103 0.999 . S
H1107 C1088 0.913 . S
H1108 C1126 0.951 . S
H1109 C1128 0.951 . S
H1110 C1130 0.950 . S
H1111 C1131 0.950 . S
H1112 C1133 0.950 . S
H1113 C1136 0.950 . S
H1114 C1137 0.950 . S
H1115 C1139 0.950 . S
H1116 C1140 0.950 . S
H1117 C1141 0.951 . S
H1118 C1143 0.951 . S
H1119 C1145 0.950 . S
H1120 C1146 0.950 . S
H1121 C1148 0.950 . S
H1122 C1151 0.950 . S
H1123 C1152 0.950 . S
H1124 C1154 0.950 . S
H1125 C1155 0.950 . S
C1126 H1108 0.951 . S
C1126 C1127 1.366 . S
C1126 C1128 1.388 . S
C1127 C1126 1.366 . S
C1127 C1131 1.385 . S
C1128 H1109 0.951 . S
C1128 C1126 1.388 . S
C1128 C1129 1.366 . S
C1129 C1128 1.366 . S
C1129 C1130 1.414 . S
C1129 C1132 1.499 . S
C1130 H1110 0.950 . S
C1130 C1129 1.414 . S
C1130 C1131 1.374 . S
C1131 H1111 0.950 . S
C1131 C1127 1.385 . S
C1131 C1130 1.374 . S
C1132 C1129 1.499 . S
C1132 C1133 1.373 . S
C1132 C1134 1.389 . S
C1133 H1112 0.950 . S
C1133 C1132 1.373 . S
C1133 C1149 1.377 . S
C1134 C1132 1.389 . S
C1134 C1135 1.524 . S
C1134 C1148 1.377 . S
C1135 C1134 1.524 . S
C1135 C1136 1.397 . S
C1135 C1140 1.363 . S
C1136 H1113 0.950 . S
C1136 C1135 1.397 . S
C1136 C1137 1.334 . S
C1137 H1114 0.950 . S
C1137 C1136 1.334 . S
C1137 C1138 1.287 . S
C1138 C1137 1.287 . S
C1138 C1139 1.524 . S
C1138 H1157 0.913 . S
C1139 H1115 0.950 . S
C1139 C1138 1.524 . S
C1139 C1140 1.415 . S
C1140 H1116 0.950 . S
C1140 C1135 1.363 . S
C1140 C1139 1.415 . S
C1141 H1117 0.951 . S
C1141 C1142 1.366 . S
C1141 C1143 1.388 . S
C1142 C1141 1.366 . S
C1142 C1146 1.385 . S
C1143 H1118 0.951 . S
C1143 C1141 1.388 . S
C1143 C1144 1.366 . S
C1144 C1143 1.366 . S
C1144 C1145 1.414 . S
C1144 C1147 1.499 . S
C1145 H1119 0.950 . S
C1145 C1144 1.414 . S
C1145 C1146 1.374 . S
C1146 H1120 0.950 . S
C1146 C1142 1.385 . S
C1146 C1145 1.374 . S
C1147 C1144 1.499 . S
C1147 C1148 1.373 . S
C1147 C1149 1.389 . S
C1148 H1121 0.950 . S
C1148 C1134 1.377 . S
C1148 C1147 1.373 . S
C1149 C1133 1.377 . S
C1149 C1147 1.389 . S
C1149 C1150 1.524 . S
C1150 C1149 1.524 . S
C1150 C1151 1.397 . S
C1150 C1155 1.363 . S
C1151 H1122 0.950 . S
C1151 C1150 1.397 . S
C1151 C1152 1.334 . S
C1152 H1123 0.950 . S
C1152 C1151 1.334 . S
C1152 C1153 1.287 . S
C1153 C1152 1.287 . S
C1153 C1154 1.524 . S
C1153 H1156 0.999 . S
C1154 H1124 0.950 . S
C1154 C1153 1.524 . S
C1154 C1155 1.415 . S
C1155 H1125 0.950 . S
C1155 C1150 1.363 . S
C1155 C1154 1.415 . S
H1156 C1153 0.999 . S
H1157 C1138 0.913 . S
H1158 C1176 0.951 . S
H1159 C1178 0.951 . S
H1160 C1180 0.950 . S
H1161 C1181 0.950 . S
H1162 C1183 0.950 . S
H1163 C1186 0.950 . S
H1164 C1187 0.950 . S
H1165 C1189 0.950 . S
H1166 C1190 0.950 . S
H1167 C1191 0.951 . S
H1168 C1193 0.951 . S
H1169 C1195 0.950 . S
H1170 C1196 0.950 . S
H1171 C1198 0.950 . S
H1172 C1201 0.950 . S
H1173 C1202 0.950 . S
H1174 C1204 0.950 . S
H1175 C1205 0.950 . S
C1176 H1158 0.951 . S
C1176 C1177 1.366 . S
C1176 C1178 1.388 . S
C1177 C1176 1.366 . S
C1177 C1181 1.385 . S
C1178 H1159 0.951 . S
C1178 C1176 1.388 . S
C1178 C1179 1.366 . S
C1179 C1178 1.366 . S
C1179 C1180 1.414 . S
C1179 C1182 1.499 . S
C1180 H1160 0.950 . S
C1180 C1179 1.414 . S
C1180 C1181 1.374 . S
C1181 H1161 0.950 . S
C1181 C1177 1.385 . S
C1181 C1180 1.374 . S
C1182 C1179 1.499 . S
C1182 C1183 1.373 1_554 S
C1182 C1184 1.389 . S
C1183 H1162 0.950 . S
C1183 C1182 1.373 1_556 S
C1183 C1199 1.377 . S
C1184 C1182 1.389 . S
C1184 C1185 1.524 . S
C1184 C1198 1.377 . S
C1185 C1184 1.524 . S
C1185 C1186 1.397 . S
C1185 C1190 1.363 . S
C1186 H1163 0.950 . S
C1186 C1185 1.397 . S
C1186 C1187 1.334 . S
C1187 H1164 0.950 . S
C1187 C1186 1.334 . S
C1187 C1188 1.287 . S
C1188 C1187 1.287 . S
C1188 C1189 1.524 . S
C1188 H1207 0.913 . S
C1189 H1165 0.950 . S
C1189 C1188 1.524 . S
C1189 C1190 1.415 . S
C1190 H1166 0.950 . S
C1190 C1185 1.363 . S
C1190 C1189 1.415 . S
C1191 H1167 0.951 . S
C1191 C1192 1.366 . S
C1191 C1193 1.388 . S
C1192 C1191 1.366 . S
C1192 C1196 1.385 . S
C1193 H1168 0.951 . S
C1193 C1191 1.388 . S
C1193 C1194 1.366 . S
C1194 C1193 1.366 . S
C1194 C1195 1.414 . S
C1194 C1197 1.499 . S
C1195 H1169 0.950 . S
C1195 C1194 1.414 . S
C1195 C1196 1.374 . S
C1196 H1170 0.950 . S
C1196 C1192 1.385 . S
C1196 C1195 1.374 . S
C1197 C1194 1.499 . S
C1197 C1198 1.373 1_556 S
C1197 C1199 1.389 . S
C1198 H1171 0.950 . S
C1198 C1184 1.377 . S
C1198 C1197 1.373 1_554 S
C1199 C1183 1.377 . S
C1199 C1197 1.389 . S
C1199 C1200 1.524 . S
C1200 C1199 1.524 . S
C1200 C1201 1.397 . S
C1200 C1205 1.363 . S
C1201 H1172 0.950 . S
C1201 C1200 1.397 . S
C1201 C1202 1.334 . S
C1202 H1173 0.950 . S
C1202 C1201 1.334 . S
C1202 C1203 1.287 . S
C1203 C1202 1.287 . S
C1203 C1204 1.524 . S
C1203 H1206 0.999 . S
C1204 H1174 0.950 . S
C1204 C1203 1.524 . S
C1204 C1205 1.415 . S
C1205 H1175 0.950 . S
C1205 C1200 1.363 . S
C1205 C1204 1.415 . S
H1206 C1203 0.999 . S
H1207 C1188 0.913 . S
H1208 C1226 0.951 . S
H1209 C1228 0.951 . S
H1210 C1230 0.950 . S
H1211 C1231 0.950 . S
H1212 C1233 0.950 . S
H1213 C1236 0.950 . S
H1214 C1237 0.950 . S
H1215 C1239 0.950 . S
H1216 C1240 0.950 . S
H1217 C1241 0.951 . S
H1218 C1243 0.951 . S
H1219 C1245 0.950 . S
H1220 C1246 0.950 . S
H1221 C1248 0.950 . S
H1222 C1251 0.950 . S
H1223 C1252 0.950 . S
H1224 C1254 0.950 . S
H1225 C1255 0.950 . S
C1226 H1208 0.951 . S
C1226 C1227 1.366 . S
C1226 C1228 1.388 . S
C1227 C1226 1.366 . S
C1227 C1231 1.385 . S
C1228 H1209 0.951 . S
C1228 C1226 1.388 . S
C1228 C1229 1.366 . S
C1229 C1228 1.366 . S
C1229 C1230 1.414 . S
C1229 C1232 1.499 . S
C1230 H1210 0.950 . S
C1230 C1229 1.414 . S
C1230 C1231 1.374 . S
C1231 H1211 0.950 . S
C1231 C1227 1.385 . S
C1231 C1230 1.374 . S
C1232 C1229 1.499 . S
C1232 C1233 1.373 . S
C1232 C1234 1.389 . S
C1233 H1212 0.950 . S
C1233 C1232 1.373 . S
C1233 C1249 1.377 . S
C1234 C1232 1.389 . S
C1234 C1235 1.524 . S
C1234 C1248 1.377 . S
C1235 C1234 1.524 . S
C1235 C1236 1.397 . S
C1235 C1240 1.363 . S
C1236 H1213 0.950 . S
C1236 C1235 1.397 . S
C1236 C1237 1.334 . S
C1237 H1214 0.950 . S
C1237 C1236 1.334 . S
C1237 C1238 1.287 . S
C1238 C1237 1.287 . S
C1238 C1239 1.524 . S
C1238 H1257 0.913 . S
C1239 H1215 0.950 . S
C1239 C1238 1.524 . S
C1239 C1240 1.415 . S
C1240 H1216 0.950 . S
C1240 C1235 1.363 . S
C1240 C1239 1.415 . S
C1241 H1217 0.951 . S
C1241 C1242 1.366 . S
C1241 C1243 1.388 . S
C1242 C1241 1.366 . S
C1242 C1246 1.385 . S
C1243 H1218 0.951 . S
C1243 C1241 1.388 . S
C1243 C1244 1.366 . S
C1244 C1243 1.366 . S
C1244 C1245 1.414 . S
C1244 C1247 1.499 . S
C1245 H1219 0.950 . S
C1245 C1244 1.414 . S
C1245 C1246 1.374 . S
C1246 H1220 0.950 . S
C1246 C1242 1.385 . S
C1246 C1245 1.374 . S
C1247 C1244 1.499 . S
C1247 C1248 1.373 . S
C1247 C1249 1.389 . S
C1248 H1221 0.950 . S
C1248 C1234 1.377 . S
C1248 C1247 1.373 . S
C1249 C1233 1.377 . S
C1249 C1247 1.389 . S
C1249 C1250 1.524 . S
C1250 C1249 1.524 . S
C1250 C1251 1.397 . S
C1250 C1255 1.363 . S
C1251 H1222 0.950 . S
C1251 C1250 1.397 . S
C1251 C1252 1.334 . S
C1252 H1223 0.950 . S
C1252 C1251 1.334 . S
C1252 C1253 1.287 . S
C1253 C1252 1.287 . S
C1253 C1254 1.524 . S
C1253 H1256 0.999 . S
C1254 H1224 0.950 . S
C1254 C1253 1.524 . S
C1254 C1255 1.415 . S
C1255 H1225 0.950 . S
C1255 C1250 1.363 . S
C1255 C1254 1.415 . S
H1256 C1253 0.999 . S
H1257 C1238 0.913 . S
H1258 C1276 0.951 . S
H1259 C1278 0.951 . S
H1260 C1280 0.950 . S
H1261 C1281 0.950 . S
H1262 C1283 0.950 . S
H1263 C1286 0.950 . S
H1264 C1287 0.950 . S
H1265 C1289 0.950 . S
H1266 C1290 0.950 . S
H1267 C1291 0.951 . S
H1268 C1293 0.951 . S
H1269 C1295 0.950 . S
H1270 C1296 0.950 . S
H1271 C1298 0.950 . S
H1272 C1301 0.950 . S
H1273 C1302 0.950 . S
H1274 C1304 0.950 . S
H1275 C1305 0.950 . S
C1276 H1258 0.951 . S
C1276 C1277 1.366 . S
C1276 C1278 1.388 . S
C1277 C1276 1.366 . S
C1277 C1281 1.385 . S
C1278 H1259 0.951 . S
C1278 C1276 1.388 . S
C1278 C1279 1.366 . S
C1279 C1278 1.366 . S
C1279 C1280 1.414 . S
C1279 C1282 1.499 . S
C1280 H1260 0.950 . S
C1280 C1279 1.414 . S
C1280 C1281 1.374 . S
C1281 H1261 0.950 . S
C1281 C1277 1.385 . S
C1281 C1280 1.374 . S
C1282 C1279 1.499 . S
C1282 C1283 1.373 . S
C1282 C1284 1.389 . S
C1283 H1262 0.950 . S
C1283 C1282 1.373 . S
C1283 C1299 1.377 . S
C1284 C1282 1.389 . S
C1284 C1285 1.524 . S
C1284 C1298 1.377 . S
C1285 C1284 1.524 . S
C1285 C1286 1.397 . S
C1285 C1290 1.363 . S
C1286 H1263 0.950 . S
C1286 C1285 1.397 . S
C1286 C1287 1.334 . S
C1287 H1264 0.950 . S
C1287 C1286 1.334 . S
C1287 C1288 1.287 . S
C1288 C1287 1.287 . S
C1288 C1289 1.524 . S
C1288 H1307 0.913 . S
C1289 H1265 0.950 . S
C1289 C1288 1.524 . S
C1289 C1290 1.415 . S
C1290 H1266 0.950 . S
C1290 C1285 1.363 . S
C1290 C1289 1.415 . S
C1291 H1267 0.951 . S
C1291 C1292 1.366 . S
C1291 C1293 1.388 . S
C1292 C1291 1.366 . S
C1292 C1296 1.385 . S
C1293 H1268 0.951 . S
C1293 C1291 1.388 . S
C1293 C1294 1.366 . S
C1294 C1293 1.366 . S
C1294 C1295 1.414 . S
C1294 C1297 1.499 . S
C1295 H1269 0.950 . S
C1295 C1294 1.414 . S
C1295 C1296 1.374 . S
C1296 H1270 0.950 . S
C1296 C1292 1.385 . S
C1296 C1295 1.374 . S
C1297 C1294 1.499 . S
C1297 C1298 1.373 . S
C1297 C1299 1.389 . S
C1298 H1271 0.950 . S
C1298 C1284 1.377 . S
C1298 C1297 1.373 . S
C1299 C1283 1.377 . S
C1299 C1297 1.389 . S
C1299 C1300 1.524 . S
C1300 C1299 1.524 . S
C1300 C1301 1.397 . S
C1300 C1305 1.363 . S
C1301 H1272 0.950 . S
C1301 C1300 1.397 . S
C1301 C1302 1.334 . S
C1302 H1273 0.950 . S
C1302 C1301 1.334 . S
C1302 C1303 1.287 . S
C1303 C1302 1.287 . S
C1303 C1304 1.524 . S
C1303 H1306 0.999 . S
C1304 H1274 0.950 . S
C1304 C1303 1.524 . S
C1304 C1305 1.415 . S
C1305 H1275 0.950 . S
C1305 C1300 1.363 . S
C1305 C1304 1.415 . S
H1306 C1303 0.999 . S
H1307 C1288 0.913 . S
H1308 C1326 0.951 . S
H1309 C1328 0.951 . S
H1310 C1330 0.950 . S
H1311 C1331 0.950 . S
H1312 C1333 0.950 . S
H1313 C1336 0.950 . S
H1314 C1337 0.950 . S
H1315 C1339 0.950 . S
H1316 C1340 0.950 . S
H1317 C1341 0.951 . S
H1318 C1343 0.951 . S
H1319 C1345 0.950 . S
H1320 C1346 0.950 . S
H1321 C1348 0.950 . S
H1322 C1351 0.950 . S
H1323 C1352 0.950 . S
H1324 C1354 0.950 . S
H1325 C1355 0.950 . S
C1326 H1308 0.951 . S
C1326 C1327 1.366 . S
C1326 C1328 1.388 . S
C1327 C1326 1.366 . S
C1327 C1331 1.385 . S
C1328 H1309 0.951 . S
C1328 C1326 1.388 . S
C1328 C1329 1.366 . S
C1329 C1328 1.366 . S
C1329 C1330 1.414 . S
C1329 C1332 1.499 . S
C1330 H1310 0.950 . S
C1330 C1329 1.414 . S
C1330 C1331 1.374 . S
C1331 H1311 0.950 . S
C1331 C1327 1.385 . S
C1331 C1330 1.374 . S
C1332 C1329 1.499 . S
C1332 C1333 1.373 . S
C1332 C1334 1.389 . S
C1333 H1312 0.950 . S
C1333 C1332 1.373 . S
C1333 C1349 1.377 . S
C1334 C1332 1.389 . S
C1334 C1335 1.524 . S
C1334 C1348 1.377 . S
C1335 C1334 1.524 . S
C1335 C1336 1.397 . S
C1335 C1340 1.363 . S
C1336 H1313 0.950 . S
C1336 C1335 1.397 . S
C1336 C1337 1.334 . S
C1337 H1314 0.950 . S
C1337 C1336 1.334 . S
C1337 C1338 1.287 . S
C1338 C1337 1.287 . S
C1338 C1339 1.524 . S
C1338 H1357 0.913 . S
C1339 H1315 0.950 . S
C1339 C1338 1.524 . S
C1339 C1340 1.415 . S
C1340 H1316 0.950 . S
C1340 C1335 1.363 . S
C1340 C1339 1.415 . S
C1341 H1317 0.951 . S
C1341 C1342 1.366 . S
C1341 C1343 1.388 . S
C1342 C1341 1.366 . S
C1342 C1346 1.385 . S
C1343 H1318 0.951 . S
C1343 C1341 1.388 . S
C1343 C1344 1.366 . S
C1344 C1343 1.366 . S
C1344 C1345 1.414 . S
C1344 C1347 1.499 . S
C1345 H1319 0.950 . S
C1345 C1344 1.414 . S
C1345 C1346 1.374 . S
C1346 H1320 0.950 . S
C1346 C1342 1.385 . S
C1346 C1345 1.374 . S
C1347 C1344 1.499 . S
C1347 C1348 1.373 . S
C1347 C1349 1.389 . S
C1348 H1321 0.950 . S
C1348 C1334 1.377 . S
C1348 C1347 1.373 . S
C1349 C1333 1.377 . S
C1349 C1347 1.389 . S
C1349 C1350 1.524 . S
C1350 C1349 1.524 . S
C1350 C1351 1.397 . S
C1350 C1355 1.363 . S
C1351 H1322 0.950 . S
C1351 C1350 1.397 . S
C1351 C1352 1.334 . S
C1352 H1323 0.950 . S
C1352 C1351 1.334 . S
C1352 C1353 1.287 . S
C1353 C1352 1.287 . S
C1353 C1354 1.524 . S
C1353 H1356 0.999 . S
C1354 H1324 0.950 . S
C1354 C1353 1.524 . S
C1354 C1355 1.415 . S
C1355 H1325 0.950 . S
C1355 C1350 1.363 . S
C1355 C1354 1.415 . S
H1356 C1353 0.999 . S
H1357 C1338 0.913 . S
H1358 C1376 0.951 . S
H1359 C1378 0.951 . S
H1360 C1380 0.950 . S
H1361 C1381 0.950 . S
H1362 C1383 0.950 . S
H1363 C1386 0.950 . S
H1364 C1387 0.950 . S
H1365 C1389 0.950 . S
H1366 C1390 0.950 . S
H1367 C1391 0.951 . S
H1368 C1393 0.951 . S
H1369 C1395 0.950 . S
H1370 C1396 0.950 . S
H1371 C1398 0.950 . S
H1372 C1401 0.950 . S
H1373 C1402 0.950 1_554 S
H1374 C1404 0.950 . S
H1375 C1405 0.950 . S
C1376 H1358 0.951 . S
C1376 C1377 1.366 . S
C1376 C1378 1.388 . S
C1377 C1376 1.366 . S
C1377 C1381 1.385 . S
C1378 H1359 0.951 . S
C1378 C1376 1.388 . S
C1378 C1379 1.366 . S
C1379 C1378 1.366 . S
C1379 C1380 1.414 . S
C1379 C1382 1.499 . S
C1380 H1360 0.950 . S
C1380 C1379 1.414 . S
C1380 C1381 1.374 . S
C1381 H1361 0.950 . S
C1381 C1377 1.385 . S
C1381 C1380 1.374 . S
C1382 C1379 1.499 . S
C1382 C1383 1.373 . S
C1382 C1384 1.389 . S
C1383 H1362 0.950 . S
C1383 C1382 1.373 . S
C1383 C1399 1.377 . S
C1384 C1382 1.389 . S
C1384 C1385 1.524 . S
C1384 C1398 1.377 . S
C1385 C1384 1.524 . S
C1385 C1386 1.397 . S
C1385 C1390 1.363 . S
C1386 H1363 0.950 . S
C1386 C1385 1.397 . S
C1386 C1387 1.334 . S
C1387 H1364 0.950 . S
C1387 C1386 1.334 . S
C1387 C1388 1.287 . S
C1388 C1387 1.287 . S
C1388 C1389 1.524 . S
C1388 H1407 0.913 . S
C1389 H1365 0.950 . S
C1389 C1388 1.524 . S
C1389 C1390 1.415 . S
C1390 H1366 0.950 . S
C1390 C1385 1.363 . S
C1390 C1389 1.415 . S
C1391 H1367 0.951 . S
C1391 C1392 1.366 . S
C1391 C1393 1.388 . S
C1392 C1391 1.366 . S
C1392 C1396 1.385 . S
C1393 H1368 0.951 . S
C1393 C1391 1.388 . S
C1393 C1394 1.366 . S
C1394 C1393 1.366 . S
C1394 C1395 1.414 . S
C1394 C1397 1.499 . S
C1395 H1369 0.950 . S
C1395 C1394 1.414 . S
C1395 C1396 1.374 . S
C1396 H1370 0.950 . S
C1396 C1392 1.385 . S
C1396 C1395 1.374 . S
C1397 C1394 1.499 . S
C1397 C1398 1.373 . S
C1397 C1399 1.389 . S
C1398 H1371 0.950 . S
C1398 C1384 1.377 . S
C1398 C1397 1.373 . S
C1399 C1383 1.377 . S
C1399 C1397 1.389 . S
C1399 C1400 1.524 . S
C1400 C1399 1.524 . S
C1400 C1401 1.397 . S
C1400 C1405 1.363 . S
C1401 H1372 0.950 . S
C1401 C1400 1.397 . S
C1401 C1402 1.334 . S
C1402 H1373 0.950 1_556 S
C1402 C1401 1.334 . S
C1402 C1403 1.287 . S
C1403 C1402 1.287 . S
C1403 C1404 1.524 . S
C1403 H1406 0.999 1_556 S
C1404 H1374 0.950 . S
C1404 C1403 1.524 . S
C1404 C1405 1.415 . S
C1405 H1375 0.950 . S
C1405 C1400 1.363 . S
C1405 C1404 1.415 . S
H1406 C1403 0.999 1_554 S
H1407 C1388 0.913 . S
H1408 C1426 0.974 . S
H1409 C1428 0.951 . S
H1410 C1430 0.950 . S
H1411 C1431 0.950 . S
H1412 C1433 0.950 . S
H1413 C1436 0.950 . S
H1414 C1437 0.950 . S
H1415 C1439 0.950 . S
H1416 C1440 0.950 . S
H1417 C1441 0.951 . S
H1418 C1443 0.951 . S
H1419 C1445 0.950 . S
H1420 C1446 0.950 . S
H1421 C1448 0.950 . S
H1422 C1451 0.950 . S
H1423 C1452 0.950 . S
H1424 C1454 0.950 . S
H1425 C1455 0.950 . S
C1426 H1408 0.974 . S
C1426 C1427 1.366 . S
C1426 C1428 1.388 . S
C1427 C1426 1.366 . S
C1427 C1431 1.385 . S
C1428 H1409 0.951 . S
C1428 C1426 1.388 . S
C1428 C1429 1.366 . S
C1429 C1428 1.366 . S
C1429 C1430 1.414 . S
C1429 C1432 1.499 . S
C1430 H1410 0.950 . S
C1430 C1429 1.414 . S
C1430 C1431 1.374 . S
C1431 H1411 0.950 . S
C1431 C1427 1.385 . S
C1431 C1430 1.374 . S
C1432 C1429 1.499 . S
C1432 C1433 1.373 . S
C1432 C1434 1.389 . S
C1433 H1412 0.950 . S
C1433 C1432 1.373 . S
C1433 C1449 1.377 . S
C1434 C1432 1.389 . S
C1434 C1435 1.524 . S
C1434 C1448 1.377 . S
C1435 C1434 1.524 . S
C1435 C1436 1.397 . S
C1435 C1440 1.363 . S
C1436 H1413 0.950 . S
C1436 C1435 1.397 . S
C1436 C1437 1.334 . S
C1437 H1414 0.950 . S
C1437 C1436 1.334 . S
C1437 C1438 1.287 . S
C1438 C1437 1.287 . S
C1438 C1439 1.524 . S
C1438 H1457 0.913 1_554 S
C1439 H1415 0.950 . S
C1439 C1438 1.524 . S
C1439 C1440 1.415 . S
C1440 H1416 0.950 . S
C1440 C1435 1.363 . S
C1440 C1439 1.415 . S
C1441 H1417 0.951 . S
C1441 C1442 1.366 . S
C1441 C1443 1.388 . S
C1442 C1441 1.366 . S
C1442 C1446 1.385 . S
C1443 H1418 0.951 . S
C1443 C1441 1.388 . S
C1443 C1444 1.366 . S
C1444 C1443 1.366 . S
C1444 C1445 1.414 . S
C1444 C1447 1.499 . S
C1445 H1419 0.950 . S
C1445 C1444 1.414 . S
C1445 C1446 1.374 . S
C1446 H1420 0.950 . S
C1446 C1442 1.385 . S
C1446 C1445 1.374 . S
C1447 C1444 1.499 . S
C1447 C1448 1.373 . S
C1447 C1449 1.389 . S
C1448 H1421 0.950 . S
C1448 C1434 1.377 . S
C1448 C1447 1.373 . S
C1449 C1433 1.377 . S
C1449 C1447 1.389 . S
C1449 C1450 1.524 . S
C1450 C1449 1.524 . S
C1450 C1451 1.397 . S
C1450 C1455 1.363 . S
C1451 H1422 0.950 . S
C1451 C1450 1.397 . S
C1451 C1452 1.334 . S
C1452 H1423 0.950 . S
C1452 C1451 1.334 . S
C1452 C1453 1.287 . S
C1453 C1452 1.287 . S
C1453 C1454 1.524 . S
C1453 H1456 0.999 . S
C1454 H1424 0.950 . S
C1454 C1453 1.524 . S
C1454 C1455 1.415 . S
C1455 H1425 0.950 . S
C1455 C1450 1.363 . S
C1455 C1454 1.415 . S
H1456 C1453 0.999 . S
H1457 C1438 0.913 1_556 S
H1458 C1476 0.951 . S
H1459 C1478 0.951 . S
H1460 C1480 0.950 . S
H1461 C1481 0.950 . S
H1462 C1483 0.950 . S
H1463 C1486 0.950 . S
H1464 C1487 0.950 . S
H1465 C1489 0.950 . S
H1466 C1490 0.950 . S
H1467 C1491 0.951 . S
H1468 C1493 0.951 . S
H1469 C1495 0.950 . S
H1470 C1496 0.950 . S
H1471 C1498 0.950 . S
H1472 C1501 0.950 . S
H1473 C1502 0.950 . S
H1474 C1504 0.950 . S
H1475 C1505 0.950 . S
C1476 H1458 0.951 . S
C1476 C1477 1.366 . S
C1476 C1478 1.388 . S
C1477 C1476 1.366 . S
C1477 C1481 1.385 . S
C1478 H1459 0.951 . S
C1478 C1476 1.388 . S
C1478 C1479 1.366 . S
C1479 C1478 1.366 . S
C1479 C1480 1.414 . S
C1479 C1482 1.499 . S
C1480 H1460 0.950 . S
C1480 C1479 1.414 . S
C1480 C1481 1.374 . S
C1481 H1461 0.950 . S
C1481 C1477 1.385 . S
C1481 C1480 1.374 . S
C1482 C1479 1.499 . S
C1482 C1483 1.373 . S
C1482 C1484 1.389 . S
C1483 H1462 0.950 . S
C1483 C1482 1.373 . S
C1483 C1499 1.377 . S
C1484 C1482 1.389 . S
C1484 C1485 1.524 . S
C1484 C1498 1.377 . S
C1485 C1484 1.524 . S
C1485 C1486 1.397 . S
C1485 C1490 1.363 . S
C1486 H1463 0.950 . S
C1486 C1485 1.397 . S
C1486 C1487 1.334 . S
C1487 H1464 0.950 . S
C1487 C1486 1.334 . S
C1487 C1488 1.287 . S
C1488 C1487 1.287 . S
C1488 C1489 1.524 . S
C1488 H1507 0.913 . S
C1489 H1465 0.950 . S
C1489 C1488 1.524 . S
C1489 C1490 1.415 . S
C1490 H1466 0.950 . S
C1490 C1485 1.363 . S
C1490 C1489 1.415 . S
C1491 H1467 0.951 . S
C1491 C1492 1.366 . S
C1491 C1493 1.388 . S
C1492 C1491 1.366 . S
C1492 C1496 1.385 . S
C1493 H1468 0.951 . S
C1493 C1491 1.388 . S
C1493 C1494 1.366 . S
C1494 C1493 1.366 . S
C1494 C1495 1.414 . S
C1494 C1497 1.499 . S
C1495 H1469 0.950 . S
C1495 C1494 1.414 . S
C1495 C1496 1.374 . S
C1496 H1470 0.950 . S
C1496 C1492 1.385 . S
C1496 C1495 1.374 . S
C1497 C1494 1.499 . S
C1497 C1498 1.373 . S
C1497 C1499 1.389 . S
C1498 H1471 0.950 . S
C1498 C1484 1.377 . S
C1498 C1497 1.373 . S
C1499 C1483 1.377 . S
C1499 C1497 1.389 . S
C1499 C1500 1.524 . S
C1500 C1499 1.524 . S
C1500 C1501 1.397 . S
C1500 C1505 1.363 . S
C1501 H1472 0.950 . S
C1501 C1500 1.397 . S
C1501 C1502 1.334 . S
C1502 H1473 0.950 . S
C1502 C1501 1.334 . S
C1502 C1503 1.287 . S
C1503 C1502 1.287 . S
C1503 C1504 1.524 . S
C1503 H1506 0.999 . S
C1504 H1474 0.950 . S
C1504 C1503 1.524 . S
C1504 C1505 1.415 . S
C1505 H1475 0.950 . S
C1505 C1500 1.363 . S
C1505 C1504 1.415 . S
H1506 C1503 0.999 . S
H1507 C1488 0.913 . S
H1508 C1526 0.951 . S
H1509 C1528 0.951 . S
H1510 C1530 0.950 . S
H1511 C1531 0.950 . S
H1512 C1533 0.950 . S
H1513 C1536 0.950 . S
H1514 C1537 0.950 . S
H1515 C1539 0.950 . S
H1516 C1540 0.950 . S
H1517 C1541 0.933 1_554 S
H1518 C1543 0.951 . S
H1519 C1545 0.950 . S
H1520 C1546 0.950 . S
H1521 C1548 0.950 . S
H1522 C1551 0.950 . S
H1523 C1552 0.950 . S
H1524 C1554 0.950 . S
H1525 C1555 0.950 . S
C1526 H1508 0.951 . S
C1526 C1527 1.366 . S
C1526 C1528 1.388 . S
C1527 C1526 1.366 . S
C1527 C1531 1.385 . S
C1528 H1509 0.951 . S
C1528 C1526 1.388 . S
C1528 C1529 1.366 . S
C1529 C1528 1.366 . S
C1529 C1530 1.414 . S
C1529 C1532 1.499 . S
C1530 H1510 0.950 . S
C1530 C1529 1.414 . S
C1530 C1531 1.374 . S
C1531 H1511 0.950 . S
C1531 C1527 1.385 . S
C1531 C1530 1.374 . S
C1532 C1529 1.499 . S
C1532 C1533 1.373 . S
C1532 C1534 1.389 . S
C1533 H1512 0.950 . S
C1533 C1532 1.373 . S
C1533 C1549 1.377 . S
C1534 C1532 1.389 . S
C1534 C1535 1.524 . S
C1534 C1548 1.377 . S
C1535 C1534 1.524 . S
C1535 C1536 1.397 . S
C1535 C1540 1.363 . S
C1536 H1513 0.950 . S
C1536 C1535 1.397 . S
C1536 C1537 1.334 . S
C1537 H1514 0.950 . S
C1537 C1536 1.334 . S
C1537 C1538 1.287 . S
C1538 C1537 1.287 . S
C1538 C1539 1.524 . S
C1538 H1557 0.913 . S
C1539 H1515 0.950 . S
C1539 C1538 1.524 . S
C1539 C1540 1.415 . S
C1540 H1516 0.950 . S
C1540 C1535 1.363 . S
C1540 C1539 1.415 . S
C1541 H1517 0.933 1_556 S
C1541 C1542 1.366 . S
C1541 C1543 1.388 . S
C1542 C1541 1.366 . S
C1542 C1546 1.385 . S
C1543 H1518 0.951 . S
C1543 C1541 1.388 . S
C1543 C1544 1.366 . S
C1544 C1543 1.366 . S
C1544 C1545 1.414 . S
C1544 C1547 1.499 . S
C1545 H1519 0.950 . S
C1545 C1544 1.414 . S
C1545 C1546 1.374 . S
C1546 H1520 0.950 . S
C1546 C1542 1.385 . S
C1546 C1545 1.374 . S
C1547 C1544 1.499 . S
C1547 C1548 1.373 . S
C1547 C1549 1.389 . S
C1548 H1521 0.950 . S
C1548 C1534 1.377 . S
C1548 C1547 1.373 . S
C1549 C1533 1.377 . S
C1549 C1547 1.389 . S
C1549 C1550 1.524 . S
C1550 C1549 1.524 . S
C1550 C1551 1.397 . S
C1550 C1555 1.363 . S
C1551 H1522 0.950 . S
C1551 C1550 1.397 . S
C1551 C1552 1.334 . S
C1552 H1523 0.950 . S
C1552 C1551 1.334 . S
C1552 C1553 1.287 . S
C1553 C1552 1.287 . S
C1553 C1554 1.524 . S
C1553 H1556 0.999 1_556 S
C1554 H1524 0.950 . S
C1554 C1553 1.524 . S
C1554 C1555 1.415 . S
C1555 H1525 0.950 . S
C1555 C1550 1.363 . S
C1555 C1554 1.415 . S
H1556 C1553 0.999 1_554 S
H1557 C1538 0.913 . S
H1558 C1576 0.951 . S
H1559 C1578 0.951 . S
H1560 C1580 0.950 . S
H1561 C1581 0.950 . S
H1562 C1583 0.950 . S
H1563 C1586 0.950 . S
H1564 C1587 0.950 . S
H1565 C1589 0.950 . S
H1566 C1590 0.950 . S
H1567 C1591 0.951 . S
H1568 C1593 0.951 . S
H1569 C1595 0.950 . S
H1570 C1596 0.950 . S
H1571 C1598 0.950 . S
H1572 C1601 0.950 . S
H1573 C1602 0.950 . S
H1574 C1604 0.950 . S
H1575 C1605 0.950 . S
C1576 H1558 0.951 . S
C1576 C1577 1.366 . S
C1576 C1578 1.388 . S
C1577 C1576 1.366 . S
C1577 C1581 1.385 . S
C1578 H1559 0.951 . S
C1578 C1576 1.388 . S
C1578 C1579 1.366 . S
C1579 C1578 1.366 . S
C1579 C1580 1.414 . S
C1579 C1582 1.499 . S
C1580 H1560 0.950 . S
C1580 C1579 1.414 . S
C1580 C1581 1.374 . S
C1581 H1561 0.950 . S
C1581 C1577 1.385 . S
C1581 C1580 1.374 . S
C1582 C1579 1.499 . S
C1582 C1583 1.373 . S
C1582 C1584 1.389 . S
C1583 H1562 0.950 . S
C1583 C1582 1.373 . S
C1583 C1599 1.377 . S
C1584 C1582 1.389 . S
C1584 C1585 1.524 . S
C1584 C1598 1.377 . S
C1585 C1584 1.524 . S
C1585 C1586 1.397 . S
C1585 C1590 1.363 . S
C1586 H1563 0.950 . S
C1586 C1585 1.397 . S
C1586 C1587 1.334 . S
C1587 H1564 0.950 . S
C1587 C1586 1.334 . S
C1587 C1588 1.287 . S
C1588 C1587 1.287 . S
C1588 C1589 1.524 . S
C1588 H1607 0.913 . S
C1589 H1565 0.950 . S
C1589 C1588 1.524 . S
C1589 C1590 1.415 . S
C1590 H1566 0.950 . S
C1590 C1585 1.363 . S
C1590 C1589 1.415 . S
C1591 H1567 0.951 . S
C1591 C1592 1.366 . S
C1591 C1593 1.388 . S
C1592 C1591 1.366 . S
C1592 C1596 1.385 . S
C1593 H1568 0.951 . S
C1593 C1591 1.388 . S
C1593 C1594 1.366 . S
C1594 C1593 1.366 . S
C1594 C1595 1.414 . S
C1594 C1597 1.499 . S
C1595 H1569 0.950 . S
C1595 C1594 1.414 . S
C1595 C1596 1.374 . S
C1596 H1570 0.950 . S
C1596 C1592 1.385 . S
C1596 C1595 1.374 . S
C1597 C1594 1.499 . S
C1597 C1598 1.373 . S
C1597 C1599 1.389 . S
C1598 H1571 0.950 . S
C1598 C1584 1.377 . S
C1598 C1597 1.373 . S
C1599 C1583 1.377 . S
C1599 C1597 1.389 . S
C1599 C1600 1.524 . S
C1600 C1599 1.524 . S
C1600 C1601 1.397 . S
C1600 C1605 1.363 . S
C1601 H1572 0.950 . S
C1601 C1600 1.397 . S
C1601 C1602 1.334 . S
C1602 H1573 0.950 . S
C1602 C1601 1.334 . S
C1602 C1603 1.287 . S
C1603 C1602 1.287 . S
C1603 C1604 1.524 . S
C1603 H1606 0.999 . S
C1604 H1574 0.950 . S
C1604 C1603 1.524 . S
C1604 C1605 1.415 . S
C1605 H1575 0.950 . S
C1605 C1600 1.363 . S
C1605 C1604 1.415 . S
H1606 C1603 0.999 . S
H1607 C1588 0.913 . S
H1608 C1626 0.951 . S
H1609 C1628 0.951 . S
H1610 C1630 0.950 . S
H1611 C1631 0.950 . S
H1612 C1633 0.950 . S
H1613 C1636 0.950 . S
H1614 C1637 0.950 . S
H1615 C1639 0.950 . S
H1616 C1640 0.950 . S
H1617 C1641 0.951 . S
H1618 C1643 0.951 . S
H1619 C1645 0.950 . S
H1620 C1646 0.950 . S
H1621 C1648 0.950 . S
H1622 C1651 0.950 . S
H1623 C1652 0.950 . S
H1624 C1654 0.950 . S
H1625 C1655 0.950 . S
C1626 H1608 0.951 . S
C1626 C1627 1.366 . S
C1626 C1628 1.388 . S
C1627 C1626 1.366 . S
C1627 C1631 1.385 . S
C1628 H1609 0.951 . S
C1628 C1626 1.388 . S
C1628 C1629 1.366 . S
C1629 C1628 1.366 . S
C1629 C1630 1.414 . S
C1629 C1632 1.499 . S
C1630 H1610 0.950 . S
C1630 C1629 1.414 . S
C1630 C1631 1.374 . S
C1631 H1611 0.950 . S
C1631 C1627 1.385 . S
C1631 C1630 1.374 . S
C1632 C1629 1.499 . S
C1632 C1633 1.373 . S
C1632 C1634 1.389 . S
C1633 H1612 0.950 . S
C1633 C1632 1.373 . S
C1633 C1649 1.377 . S
C1634 C1632 1.389 . S
C1634 C1635 1.524 . S
C1634 C1648 1.377 . S
C1635 C1634 1.524 . S
C1635 C1636 1.397 . S
C1635 C1640 1.363 . S
C1636 H1613 0.950 . S
C1636 C1635 1.397 . S
C1636 C1637 1.334 . S
C1637 H1614 0.950 . S
C1637 C1636 1.334 . S
C1637 C1638 1.287 . S
C1638 C1637 1.287 . S
C1638 C1639 1.524 . S
C1638 H1657 0.913 . S
C1639 H1615 0.950 . S
C1639 C1638 1.524 . S
C1639 C1640 1.415 . S
C1640 H1616 0.950 . S
C1640 C1635 1.363 . S
C1640 C1639 1.415 . S
C1641 H1617 0.951 . S
C1641 C1642 1.366 . S
C1641 C1643 1.388 . S
C1642 C1641 1.366 . S
C1642 C1646 1.385 . S
C1643 H1618 0.951 . S
C1643 C1641 1.388 . S
C1643 C1644 1.366 . S
C1644 C1643 1.366 . S
C1644 C1645 1.414 . S
C1644 C1647 1.499 . S
C1645 H1619 0.950 . S
C1645 C1644 1.414 . S
C1645 C1646 1.374 . S
C1646 H1620 0.950 . S
C1646 C1642 1.385 . S
C1646 C1645 1.374 . S
C1647 C1644 1.499 . S
C1647 C1648 1.373 . S
C1647 C1649 1.389 . S
C1648 H1621 0.950 . S
C1648 C1634 1.377 . S
C1648 C1647 1.373 . S
C1649 C1633 1.377 . S
C1649 C1647 1.389 . S
C1649 C1650 1.524 . S
C1650 C1649 1.524 . S
C1650 C1651 1.397 . S
C1650 C1655 1.363 . S
C1651 H1622 0.950 . S
C1651 C1650 1.397 . S
C1651 C1652 1.334 . S
C1652 H1623 0.950 . S
C1652 C1651 1.334 . S
C1652 C1653 1.287 . S
C1653 C1652 1.287 . S
C1653 C1654 1.524 . S
C1653 H1656 0.999 . S
C1654 H1624 0.950 . S
C1654 C1653 1.524 . S
C1654 C1655 1.415 . S
C1655 H1625 0.950 . S
C1655 C1650 1.363 . S
C1655 C1654 1.415 . S
H1656 C1653 0.999 . S
H1657 C1638 0.913 . S
H1658 C1676 0.951 . S
H1659 C1678 0.951 . S
H1660 C1680 0.950 . S
H1661 C1681 0.950 . S
H1662 C1683 0.950 . S
H1663 C1686 0.950 . S
H1664 C1687 0.950 . S
H1665 C1689 0.950 . S
H1666 C1690 0.950 . S
H1667 C1691 0.951 . S
H1668 C1693 0.951 . S
H1669 C1695 0.950 . S
H1670 C1696 0.950 . S
H1671 C1698 0.950 . S
H1672 C1701 0.950 . S
H1673 C1702 0.950 . S
H1674 C1704 0.950 . S
H1675 C1705 0.950 . S
C1676 H1658 0.951 . S
C1676 C1677 1.366 . S
C1676 C1678 1.388 . S
C1677 C1676 1.366 . S
C1677 C1681 1.385 . S
C1678 H1659 0.951 . S
C1678 C1676 1.388 . S
C1678 C1679 1.366 . S
C1679 C1678 1.366 . S
C1679 C1680 1.414 . S
C1679 C1682 1.499 . S
C1680 H1660 0.950 . S
C1680 C1679 1.414 . S
C1680 C1681 1.374 . S
C1681 H1661 0.950 . S
C1681 C1677 1.385 . S
C1681 C1680 1.374 . S
C1682 C1679 1.499 . S
C1682 C1683 1.373 . S
C1682 C1684 1.389 . S
C1683 H1662 0.950 . S
C1683 C1682 1.373 . S
C1683 C1699 1.377 . S
C1684 C1682 1.389 . S
C1684 C1685 1.524 . S
C1684 C1698 1.377 . S
C1685 C1684 1.524 . S
C1685 C1686 1.397 . S
C1685 C1690 1.363 . S
C1686 H1663 0.950 . S
C1686 C1685 1.397 . S
C1686 C1687 1.334 . S
C1687 H1664 0.950 . S
C1687 C1686 1.334 . S
C1687 C1688 1.287 . S
C1688 C1687 1.287 . S
C1688 C1689 1.524 . S
C1688 H1707 0.913 . S
C1689 H1665 0.950 . S
C1689 C1688 1.524 . S
C1689 C1690 1.415 . S
C1690 H1666 0.950 . S
C1690 C1685 1.363 . S
C1690 C1689 1.415 . S
C1691 H1667 0.951 . S
C1691 C1692 1.366 . S
C1691 C1693 1.388 . S
C1692 C1691 1.366 . S
C1692 C1696 1.385 . S
C1693 H1668 0.951 . S
C1693 C1691 1.388 . S
C1693 C1694 1.366 . S
C1694 C1693 1.366 . S
C1694 C1695 1.414 . S
C1694 C1697 1.499 . S
C1695 H1669 0.950 . S
C1695 C1694 1.414 . S
C1695 C1696 1.374 . S
C1696 H1670 0.950 . S
C1696 C1692 1.385 . S
C1696 C1695 1.374 . S
C1697 C1694 1.499 . S
C1697 C1698 1.373 . S
C1697 C1699 1.389 . S
C1698 H1671 0.950 . S
C1698 C1684 1.377 . S
C1698 C1697 1.373 . S
C1699 C1683 1.377 . S
C1699 C1697 1.389 . S
C1699 C1700 1.524 . S
C1700 C1699 1.524 . S
C1700 C1701 1.397 . S
C1700 C1705 1.363 . S
C1701 H1672 0.950 . S
C1701 C1700 1.397 . S
C1701 C1702 1.334 . S
C1702 H1673 0.950 . S
C1702 C1701 1.334 . S
C1702 C1703 1.287 . S
C1703 C1702 1.287 . S
C1703 C1704 1.524 . S
C1703 H1706 0.999 . S
C1704 H1674 0.950 . S
C1704 C1703 1.524 . S
C1704 C1705 1.415 . S
C1705 H1675 0.950 . S
C1705 C1700 1.363 . S
C1705 C1704 1.415 . S
H1706 C1703 0.999 . S
H1707 C1688 0.913 . S
H1708 C1726 0.951 . S
H1709 C1728 0.951 . S
H1710 C1730 0.950 . S
H1711 C1731 0.950 . S
H1712 C1733 0.950 . S
H1713 C1736 0.950 . S
H1714 C1737 0.950 . S
H1715 C1739 0.950 . S
H1716 C1740 0.950 . S
H1717 C1741 0.951 . S
H1718 C1743 0.951 . S
H1719 C1745 0.950 . S
H1720 C1746 0.950 . S
H1721 C1748 0.950 . S
H1722 C1751 0.950 . S
H1723 C1752 0.950 . S
H1724 C1754 0.950 . S
H1725 C1755 0.950 . S
C1726 H1708 0.951 . S
C1726 C1727 1.366 . S
C1726 C1728 1.388 . S
C1727 C1726 1.366 . S
C1727 C1731 1.385 1_556 S
C1728 H1709 0.951 . S
C1728 C1726 1.388 . S
C1728 C1729 1.366 . S
C1729 C1728 1.366 . S
C1729 C1730 1.414 1_556 S
C1729 C1732 1.499 . S
C1730 H1710 0.950 . S
C1730 C1729 1.414 1_554 S
C1730 C1731 1.374 . S
C1731 H1711 0.950 . S
C1731 C1727 1.385 1_554 S
C1731 C1730 1.374 . S
C1732 C1729 1.499 . S
C1732 C1733 1.373 1_556 S
C1732 C1734 1.389 . S
C1733 H1712 0.950 . S
C1733 C1732 1.373 1_554 S
C1733 C1749 1.377 . S
C1734 C1732 1.389 . S
C1734 C1735 1.524 . S
C1734 C1748 1.377 . S
C1735 C1734 1.524 . S
C1735 C1736 1.397 . S
C1735 C1740 1.363 . S
C1736 H1713 0.950 . S
C1736 C1735 1.397 . S
C1736 C1737 1.334 . S
C1737 H1714 0.950 . S
C1737 C1736 1.334 . S
C1737 C1738 1.287 . S
C1738 C1737 1.287 . S
C1738 C1739 1.524 . S
C1738 H1757 0.913 . S
C1739 H1715 0.950 . S
C1739 C1738 1.524 . S
C1739 C1740 1.415 . S
C1740 H1716 0.950 . S
C1740 C1735 1.363 . S
C1740 C1739 1.415 . S
C1741 H1717 0.951 . S
C1741 C1742 1.366 . S
C1741 C1743 1.388 . S
C1742 C1741 1.366 . S
C1742 C1746 1.385 1_554 S
C1743 H1718 0.951 . S
C1743 C1741 1.388 . S
C1743 C1744 1.366 . S
C1744 C1743 1.366 . S
C1744 C1745 1.414 1_554 S
C1744 C1747 1.499 . S
C1745 H1719 0.950 . S
C1745 C1744 1.414 1_556 S
C1745 C1746 1.374 . S
C1746 H1720 0.950 . S
C1746 C1742 1.385 1_556 S
C1746 C1745 1.374 . S
C1747 C1744 1.499 . S
C1747 C1748 1.373 1_554 S
C1747 C1749 1.389 . S
C1748 H1721 0.950 . S
C1748 C1734 1.377 . S
C1748 C1747 1.373 1_556 S
C1749 C1733 1.377 . S
C1749 C1747 1.389 . S
C1749 C1750 1.524 . S
C1750 C1749 1.524 . S
C1750 C1751 1.397 . S
C1750 C1755 1.363 . S
C1751 H1722 0.950 . S
C1751 C1750 1.397 . S
C1751 C1752 1.334 . S
C1752 H1723 0.950 . S
C1752 C1751 1.334 . S
C1752 C1753 1.287 . S
C1753 C1752 1.287 . S
C1753 C1754 1.524 . S
C1753 H1756 0.999 . S
C1754 H1724 0.950 . S
C1754 C1753 1.524 . S
C1754 C1755 1.415 . S
C1755 H1725 0.950 . S
C1755 C1750 1.363 . S
C1755 C1754 1.415 . S
H1756 C1753 0.999 . S
H1757 C1738 0.913 . S
H1758 C1776 0.951 . S
H1759 C1778 0.951 . S
H1760 C1780 0.950 . S
H1761 C1781 0.950 . S
H1762 C1783 0.950 . S
H1763 C1786 0.950 . S
H1764 C1787 0.950 . S
H1765 C1789 0.950 . S
H1766 C1790 0.950 . S
H1767 C1791 0.951 . S
H1768 C1793 0.951 . S
H1769 C1795 0.950 . S
H1770 C1796 0.950 . S
H1771 C1798 0.950 . S
H1772 C1801 0.950 . S
H1773 C1802 0.950 . S
H1774 C1804 0.950 . S
H1775 C1805 0.950 . S
C1776 H1758 0.951 . S
C1776 C1777 1.366 . S
C1776 C1778 1.388 . S
C1777 C1776 1.366 . S
C1777 C1781 1.385 . S
C1778 H1759 0.951 . S
C1778 C1776 1.388 . S
C1778 C1779 1.366 . S
C1779 C1778 1.366 . S
C1779 C1780 1.414 . S
C1779 C1782 1.499 . S
C1780 H1760 0.950 . S
C1780 C1779 1.414 . S
C1780 C1781 1.374 . S
C1781 H1761 0.950 . S
C1781 C1777 1.385 . S
C1781 C1780 1.374 . S
C1782 C1779 1.499 . S
C1782 C1783 1.373 . S
C1782 C1784 1.389 . S
C1783 H1762 0.950 . S
C1783 C1782 1.373 . S
C1783 C1799 1.377 . S
C1784 C1782 1.389 . S
C1784 C1785 1.524 . S
C1784 C1798 1.377 . S
C1785 C1784 1.524 . S
C1785 C1786 1.397 . S
C1785 C1790 1.363 . S
C1786 H1763 0.950 . S
C1786 C1785 1.397 . S
C1786 C1787 1.334 . S
C1787 H1764 0.950 . S
C1787 C1786 1.334 . S
C1787 C1788 1.287 . S
C1788 C1787 1.287 . S
C1788 C1789 1.524 . S
C1788 H1807 0.913 . S
C1789 H1765 0.950 . S
C1789 C1788 1.524 . S
C1789 C1790 1.415 . S
C1790 H1766 0.950 . S
C1790 C1785 1.363 . S
C1790 C1789 1.415 . S
C1791 H1767 0.951 . S
C1791 C1792 1.366 . S
C1791 C1793 1.388 . S
C1792 C1791 1.366 . S
C1792 C1796 1.385 . S
C1793 H1768 0.951 . S
C1793 C1791 1.388 . S
C1793 C1794 1.366 . S
C1794 C1793 1.366 . S
C1794 C1795 1.414 . S
C1794 C1797 1.499 . S
C1795 H1769 0.950 . S
C1795 C1794 1.414 . S
C1795 C1796 1.374 . S
C1796 H1770 0.950 . S
C1796 C1792 1.385 . S
C1796 C1795 1.374 . S
C1797 C1794 1.499 . S
C1797 C1798 1.373 . S
C1797 C1799 1.389 . S
C1798 H1771 0.950 . S
C1798 C1784 1.377 . S
C1798 C1797 1.373 . S
C1799 C1783 1.377 . S
C1799 C1797 1.389 . S
C1799 C1800 1.524 . S
C1800 C1799 1.524 . S
C1800 C1801 1.397 . S
C1800 C1805 1.363 . S
C1801 H1772 0.950 . S
C1801 C1800 1.397 . S
C1801 C1802 1.334 . S
C1802 H1773 0.950 . S
C1802 C1801 1.334 . S
C1802 C1803 1.287 . S
C1803 C1802 1.287 . S
C1803 C1804 1.524 . S
C1803 H1806 0.999 . S
C1804 H1774 0.950 . S
C1804 C1803 1.524 . S
C1804 C1805 1.415 . S
C1805 H1775 0.950 . S
C1805 C1800 1.363 . S
C1805 C1804 1.415 . S
H1806 C1803 0.999 . S
H1807 C1788 0.913 . S
H1808 C1826 0.951 . S
H1809 C1828 0.951 . S
H1810 C1830 0.950 . S
H1811 C1831 0.950 . S
H1812 C1833 0.950 . S
H1813 C1836 0.950 . S
H1814 C1837 0.950 . S
H1815 C1839 0.950 . S
H1816 C1840 0.950 . S
H1817 C1841 0.951 . S
H1818 C1843 0.951 . S
H1819 C1845 0.950 . S
H1820 C1846 0.950 . S
H1821 C1848 0.950 . S
H1822 C1851 0.950 . S
H1823 C1852 0.950 . S
H1824 C1854 0.950 . S
H1825 C1855 0.950 . S
C1826 H1808 0.951 . S
C1826 C1827 1.366 . S
C1826 C1828 1.388 . S
C1827 C1826 1.366 . S
C1827 C1831 1.385 . S
C1828 H1809 0.951 . S
C1828 C1826 1.388 . S
C1828 C1829 1.366 . S
C1829 C1828 1.366 . S
C1829 C1830 1.414 . S
C1829 C1832 1.499 . S
C1830 H1810 0.950 . S
C1830 C1829 1.414 . S
C1830 C1831 1.374 . S
C1831 H1811 0.950 . S
C1831 C1827 1.385 . S
C1831 C1830 1.374 . S
C1832 C1829 1.499 . S
C1832 C1833 1.373 . S
C1832 C1834 1.389 . S
C1833 H1812 0.950 . S
C1833 C1832 1.373 . S
C1833 C1849 1.377 . S
C1834 C1832 1.389 . S
C1834 C1835 1.524 . S
C1834 C1848 1.377 . S
C1835 C1834 1.524 . S
C1835 C1836 1.397 . S
C1835 C1840 1.363 . S
C1836 H1813 0.950 . S
C1836 C1835 1.397 . S
C1836 C1837 1.334 . S
C1837 H1814 0.950 . S
C1837 C1836 1.334 . S
C1837 C1838 1.287 . S
C1838 C1837 1.287 . S
C1838 C1839 1.524 . S
C1838 H1857 0.913 . S
C1839 H1815 0.950 . S
C1839 C1838 1.524 . S
C1839 C1840 1.415 . S
C1840 H1816 0.950 . S
C1840 C1835 1.363 . S
C1840 C1839 1.415 . S
C1841 H1817 0.951 . S
C1841 C1842 1.366 . S
C1841 C1843 1.388 . S
C1842 C1841 1.366 . S
C1842 C1846 1.385 . S
C1843 H1818 0.951 . S
C1843 C1841 1.388 . S
C1843 C1844 1.366 . S
C1844 C1843 1.366 . S
C1844 C1845 1.414 . S
C1844 C1847 1.499 . S
C1845 H1819 0.950 . S
C1845 C1844 1.414 . S
C1845 C1846 1.374 . S
C1846 H1820 0.950 . S
C1846 C1842 1.385 . S
C1846 C1845 1.374 . S
C1847 C1844 1.499 . S
C1847 C1848 1.373 . S
C1847 C1849 1.389 . S
C1848 H1821 0.950 . S
C1848 C1834 1.377 . S
C1848 C1847 1.373 . S
C1849 C1833 1.377 . S
C1849 C1847 1.389 . S
C1849 C1850 1.524 . S
C1850 C1849 1.524 . S
C1850 C1851 1.397 . S
C1850 C1855 1.363 . S
C1851 H1822 0.950 . S
C1851 C1850 1.397 . S
C1851 C1852 1.334 . S
C1852 H1823 0.950 . S
C1852 C1851 1.334 . S
C1852 C1853 1.287 . S
C1853 C1852 1.287 . S
C1853 C1854 1.524 . S
C1853 H1856 0.999 . S
C1854 H1824 0.950 . S
C1854 C1853 1.524 . S
C1854 C1855 1.415 . S
C1855 H1825 0.950 . S
C1855 C1850 1.363 . S
C1855 C1854 1.415 . S
H1856 C1853 0.999 . S
H1857 C1838 0.913 . S
H1858 C1876 0.951 . S
H1859 C1878 0.951 . S
H1860 C1880 0.950 . S
H1861 C1881 0.950 . S
H1862 C1883 0.950 . S
H1863 C1886 0.950 1_554 S
H1864 C1887 0.950 . S
H1865 C1889 0.950 . S
H1866 C1890 0.950 . S
H1867 C1891 0.951 . S
H1868 C1893 0.951 . S
H1869 C1895 0.950 . S
H1870 C1896 0.950 . S
H1871 C1898 0.950 . S
H1872 C1901 0.950 1_556 S
H1873 C1902 0.950 . S
H1874 C1904 0.950 . S
H1875 C1905 0.950 . S
C1876 H1858 0.951 . S
C1876 C1877 1.366 1_556 S
C1876 C1878 1.388 . S
C1877 C1876 1.366 1_554 S
C1877 C1881 1.385 . S
C1878 H1859 0.951 . S
C1878 C1876 1.388 . S
C1878 C1879 1.366 1_556 S
C1879 C1878 1.366 1_554 S
C1879 C1880 1.414 . S
C1879 C1882 1.499 . S
C1880 H1860 0.950 . S
C1880 C1879 1.414 . S
C1880 C1881 1.374 . S
C1881 H1861 0.950 . S
C1881 C1877 1.385 . S
C1881 C1880 1.374 . S
C1882 C1879 1.499 . S
C1882 C1883 1.373 . S
C1882 C1884 1.389 1_554 S
C1883 H1862 0.950 . S
C1883 C1882 1.373 . S
C1883 C1899 1.377 . S
C1884 C1882 1.389 1_556 S
C1884 C1885 1.524 . S
C1884 C1898 1.377 . S
C1885 C1884 1.524 . S
C1885 C1886 1.397 . S
C1885 C1890 1.363 . S
C1886 H1863 0.950 1_556 S
C1886 C1885 1.397 . S
C1886 C1887 1.334 . S
C1887 H1864 0.950 . S
C1887 C1886 1.334 . S
C1887 C1888 1.287 . S
C1888 C1887 1.287 . S
C1888 C1889 1.524 . S
C1888 H1907 0.913 . S
C1889 H1865 0.950 . S
C1889 C1888 1.524 . S
C1889 C1890 1.415 . S
C1890 H1866 0.950 . S
C1890 C1885 1.363 . S
C1890 C1889 1.415 . S
C1891 H1867 0.951 . S
C1891 C1892 1.366 1_554 S
C1891 C1893 1.388 . S
C1892 C1891 1.366 1_556 S
C1892 C1896 1.385 . S
C1893 H1868 0.951 . S
C1893 C1891 1.388 . S
C1893 C1894 1.366 1_554 S
C1894 C1893 1.366 1_556 S
C1894 C1895 1.414 . S
C1894 C1897 1.499 . S
C1895 H1869 0.950 . S
C1895 C1894 1.414 . S
C1895 C1896 1.374 . S
C1896 H1870 0.950 . S
C1896 C1892 1.385 . S
C1896 C1895 1.374 . S
C1897 C1894 1.499 . S
C1897 C1898 1.373 . S
C1897 C1899 1.389 1_556 S
C1898 H1871 0.950 . S
C1898 C1884 1.377 . S
C1898 C1897 1.373 . S
C1899 C1883 1.377 . S
C1899 C1897 1.389 1_554 S
C1899 C1900 1.524 . S
C1900 C1899 1.524 . S
C1900 C1901 1.397 . S
C1900 C1905 1.363 . S
C1901 H1872 0.950 1_554 S
C1901 C1900 1.397 . S
C1901 C1902 1.334 . S
C1902 H1873 0.950 . S
C1902 C1901 1.334 . S
C1902 C1903 1.287 . S
C1903 C1902 1.287 . S
C1903 C1904 1.524 . S
C1903 H1906 0.999 . S
C1904 H1874 0.950 . S
C1904 C1903 1.524 . S
C1904 C1905 1.415 . S
C1905 H1875 0.950 . S
C1905 C1900 1.363 . S
C1905 C1904 1.415 . S
H1906 C1903 0.999 . S
H1907 C1888 0.913 . S
C727 C33 1.480 . S
C742 C564 1.480 . S
C777 C92 1.480 . S
C792 C623 1.480 . S
C827 C151 1.480 . S
C842 C682 1.480 . S
C877 C210 1.479 . S
C892 C387 1.479 . S
C927 C446 1.479 . S
C942 C269 1.479 . S
C977 C505 1.479 . S
C992 C328 1.479 . S
C1027 C595 2.140 . S
C1042 C5 2.140 . S
C1077 C64 2.140 . S
C1092 C654 2.140 . S
C1127 C123 2.140 . S
C1142 C359 2.140 . S
C1177 C182 2.140 . S
C1192 C418 2.140 . S
C1227 C241 2.140 . S
C1242 C477 2.140 . S
C1277 C300 2.140 . S
C1292 C536 2.140 . S
C1327 C593 0.651 . S
C1342 C3 0.651 . S
C1377 C62 0.650 . S
C1392 C652 0.650 . S
C1427 C121 0.650 . S
C1442 C357 0.650 . S
C1477 C180 0.651 . S
C1492 C416 0.652 . S
C1527 C239 0.650 . S
C1542 C475 0.650 . S
C1577 C298 0.651 . S
C1592 C534 0.651 . S
C1627 C52 1.799 . S
C1642 C406 1.799 . S
C1677 C465 1.799 . S
C1692 C111 1.799 . S
C1727 C170 1.799 . S
C1742 C524 1.799 . S
C1777 C229 1.799 . S
C1792 C583 1.799 . S
C1827 C288 1.799 . S
C1842 C642 1.799 . S
C1877 C701 1.799 . S
C1892 C347 1.799 . S
