# Generated by pormake.
# Topology snv-x, (7)-cn, num edge types: 1
# Building blocks:
#     Node 0, Type 0, BuildingBlock: OLANEW_clean_sbu_3, # of connection points: 7
#     Node 1, Type 0, BuildingBlock: OLANEW_clean_sbu_3, # of connection points: 7
#     Node 2, Type 0, BuildingBlock: OLANEW_clean_sbu_3, # of connection points: 7
#     Node 3, Type 0, BuildingBlock: OLANEW_clean_sbu_3, # of connection points: 7
#     Node 4, Type 0, BuildingBlock: OLANEW_clean_sbu_3, # of connection points: 7
#     Node 5, Type 0, BuildingBlock: OLANEW_clean_sbu_3, # of connection points: 7
#     Node 6, Type 0, BuildingBlock: OLANEW_clean_sbu_3, # of connection points: 7
#     Node 7, Type 0, BuildingBlock: OLANEW_clean_sbu_3, # of connection points: 7
#     Node 8, Type 0, BuildingBlock: OLANEW_clean_sbu_3, # of connection points: 7
#     Node 9, Type 0, BuildingBlock: OLANEW_clean_sbu_3, # of connection points: 7
#     Node 10, Type 0, BuildingBlock: OLANEW_clean_sbu_3, # of connection points: 7
#     Node 11, Type 0, BuildingBlock: OLANEW_clean_sbu_3, # of connection points: 7
#     Node 12, Type 0, BuildingBlock: OLANEW_clean_sbu_3, # of connection points: 7
#     Node 13, Type 0, BuildingBlock: OLANEW_clean_sbu_3, # of connection points: 7
#     Node 14, Type 0, BuildingBlock: OLANEW_clean_sbu_3, # of connection points: 7
#     Node 15, Type 0, BuildingBlock: OLANEW_clean_sbu_3, # of connection points: 7
#     Node 16, Type 0, BuildingBlock: OLANEW_clean_sbu_3, # of connection points: 7
#     Node 17, Type 0, BuildingBlock: OLANEW_clean_sbu_3, # of connection points: 7
#     Node 18, Type 0, BuildingBlock: OLANEW_clean_sbu_3, # of connection points: 7
#     Node 19, Type 0, BuildingBlock: OLANEW_clean_sbu_3, # of connection points: 7
#     Node 20, Type 0, BuildingBlock: OLANEW_clean_sbu_3, # of connection points: 7
#     Node 21, Type 0, BuildingBlock: OLANEW_clean_sbu_3, # of connection points: 7
#     Node 22, Type 0, BuildingBlock: OLANEW_clean_sbu_3, # of connection points: 7
#     Node 23, Type 0, BuildingBlock: OLANEW_clean_sbu_3, # of connection points: 7
#     Edge 24, Type (0, 0), None
#     Edge 25, Type (0, 0), None
#     Edge 26, Type (0, 0), None
#     Edge 27, Type (0, 0), None
#     Edge 28, Type (0, 0), None
#     Edge 29, Type (0, 0), None
#     Edge 30, Type (0, 0), None
#     Edge 31, Type (0, 0), None
#     Edge 32, Type (0, 0), None
#     Edge 33, Type (0, 0), None
#     Edge 34, Type (0, 0), None
#     Edge 35, Type (0, 0), None
#     Edge 36, Type (0, 0), None
#     Edge 37, Type (0, 0), None
#     Edge 38, Type (0, 0), None
#     Edge 39, Type (0, 0), None
#     Edge 40, Type (0, 0), None
#     Edge 41, Type (0, 0), None
#     Edge 42, Type (0, 0), None
#     Edge 43, Type (0, 0), None
#     Edge 44, Type (0, 0), None
#     Edge 45, Type (0, 0), None
#     Edge 46, Type (0, 0), None
#     Edge 47, Type (0, 0), None
#     Edge 48, Type (0, 0), None
#     Edge 49, Type (0, 0), None
#     Edge 50, Type (0, 0), None
#     Edge 51, Type (0, 0), None
#     Edge 52, Type (0, 0), None
#     Edge 53, Type (0, 0), None
#     Edge 54, Type (0, 0), None
#     Edge 55, Type (0, 0), None
#     Edge 56, Type (0, 0), None
#     Edge 57, Type (0, 0), None
#     Edge 58, Type (0, 0), None
#     Edge 59, Type (0, 0), None
#     Edge 60, Type (0, 0), None
#     Edge 61, Type (0, 0), None
#     Edge 62, Type (0, 0), None
#     Edge 63, Type (0, 0), None
#     Edge 64, Type (0, 0), None
#     Edge 65, Type (0, 0), None
#     Edge 66, Type (0, 0), None
#     Edge 67, Type (0, 0), None
#     Edge 68, Type (0, 0), None
#     Edge 69, Type (0, 0), None
#     Edge 70, Type (0, 0), None
#     Edge 71, Type (0, 0), None
#     Edge 72, Type (0, 0), None
#     Edge 73, Type (0, 0), None
#     Edge 74, Type (0, 0), None
#     Edge 75, Type (0, 0), None
#     Edge 76, Type (0, 0), None
#     Edge 77, Type (0, 0), None
#     Edge 78, Type (0, 0), None
#     Edge 79, Type (0, 0), None
#     Edge 80, Type (0, 0), None
#     Edge 81, Type (0, 0), None
#     Edge 82, Type (0, 0), None
#     Edge 83, Type (0, 0), None
#     Edge 84, Type (0, 0), None
#     Edge 85, Type (0, 0), None
#     Edge 86, Type (0, 0), None
#     Edge 87, Type (0, 0), None
#     Edge 88, Type (0, 0), None
#     Edge 89, Type (0, 0), None
#     Edge 90, Type (0, 0), None
#     Edge 91, Type (0, 0), None
#     Edge 92, Type (0, 0), None
#     Edge 93, Type (0, 0), None
#     Edge 94, Type (0, 0), None
#     Edge 95, Type (0, 0), None
#     Edge 96, Type (0, 0), None
#     Edge 97, Type (0, 0), None
#     Edge 98, Type (0, 0), None
#     Edge 99, Type (0, 0), None
#     Edge 100, Type (0, 0), None
#     Edge 101, Type (0, 0), None
#     Edge 102, Type (0, 0), None
#     Edge 103, Type (0, 0), None
#     Edge 104, Type (0, 0), None
#     Edge 105, Type (0, 0), None
#     Edge 106, Type (0, 0), None
#     Edge 107, Type (0, 0), None
# Relax obj value: 0.283
# Max RMSD: 0.260
# Mean RMSD: 0.260
data_MOF--net-snv-x--node1-OLANEW_clean_sbu_3--edge1-none
_symmetry_space_group_name_H-M    P1
_symmetry_Int_Tables_number       1
_symmetry_cell_setting            triclinic
loop_
_symmetry_equiv_pos_as_xyz
'x, y, z'
_cell_length_a     38.030057
_cell_length_b     38.030391
_cell_length_c     38.028242
_cell_angle_alpha  89.999453
_cell_angle_beta   90.002929
_cell_angle_gamma 90.000536
loop_
_atom_site_label
_atom_site_type_symbol
_atom_site_fract_x
_atom_site_fract_y
_atom_site_fract_z
_atom_type_partial_charge
C0 C 0.26814 0.45737 0.37265 0.0
C1 C 0.28497 0.48215 0.39404 0.0
C2 C 0.26365 0.50501 0.41436 0.0
C3 C 0.2265 0.50218 0.41354 0.0
C4 C 0.21162 0.47707 0.39123 0.0
N5 N 0.23303 0.45714 0.37207 0.0
C6 C 0.17432 0.46692 0.38726 0.0
C7 C 0.13283 0.43098 0.35132 0.0
C8 C 0.10861 0.41852 0.37633 0.0
C9 C 0.07502 0.40784 0.36607 0.0
C10 C 0.06499 0.40966 0.33086 0.0
C11 C 0.08848 0.42263 0.30587 0.0
C12 C 0.12212 0.43335 0.31602 0.0
Cd13 Cd 0.11361 0.52186 0.41827 0.0
Cd14 Cd 0.10923 0.61924 0.35707 0.0
C15 C 0.26628 0.37156 0.32381 0.0
C16 C 0.27647 0.33692 0.27149 0.0
C17 C 0.25298 0.3125 0.28661 0.0
C18 C 0.25676 0.30832 0.32336 0.0
C19 C 0.25975 0.34017 0.34223 0.0
C20 C 0.2766 0.36991 0.28838 0.0
Co21 Co 0.21198 0.42116 0.34815 0.0
N22 N 0.20697 0.39086 0.38968 0.0
N23 N 0.19122 0.38527 0.32376 0.0
C24 C 0.18069 0.35757 0.3425 0.0
C25 C 0.16538 0.32931 0.32462 0.0
C26 C 0.16216 0.33176 0.28759 0.0
C27 C 0.17432 0.36186 0.26929 0.0
C28 C 0.18952 0.38902 0.2889 0.0
N29 N 0.2145 0.44564 0.30262 0.0
N30 N 0.16756 0.44245 0.36148 0.0
N31 N 0.25898 0.40446 0.33998 0.0
O32 O 0.0552 0.58696 0.33757 0.0
O33 O 0.08384 0.55578 0.37511 0.0
C34 C 0.05797 0.48194 0.46038 0.0
O35 O 0.06893 0.472 0.43026 0.0
O36 O 0.07077 0.51124 0.47077 0.0
C37 C 0.15086 0.58943 0.4327 0.0
O38 O 0.15181 0.56263 0.45271 0.0
O39 O 0.12396 0.59233 0.41323 0.0
C40 C 0.18892 0.36106 0.3803 0.0
O41 O 0.17989 0.33699 0.40343 0.0
O42 O 0.15141 0.54203 0.36084 0.0
O43 O 0.15627 0.58934 0.32603 0.0
C44 C 0.20327 0.42331 0.27664 0.0
O45 O 0.1998 0.43369 0.24385 0.0
C46 C 0.21728 0.48313 0.29738 0.0
C47 C 0.19148 0.5038 0.31221 0.0
C48 C 0.19296 0.53996 0.31199 0.0
C49 C 0.2187 0.55654 0.29011 0.0
C50 C 0.24422 0.53629 0.27055 0.0
C51 C 0.2435 0.49904 0.27614 0.0
C52 C 0.05834 0.55832 0.35433 0.0
O53 O 0.15134 0.47299 0.41331 0.0
C54 C 0.16579 0.55828 0.33423 0.0
C55 C 0.21069 0.40215 0.42574 0.0
C56 C 0.24364 0.41193 0.43886 0.0
C57 C 0.24621 0.43001 0.47071 0.0
C58 C 0.21602 0.43791 0.4901 0.0
C59 C 0.18288 0.42606 0.47878 0.0
C60 C 0.1808 0.40699 0.44709 0.0
C61 C 0.2833 0.42722 0.35344 0.0
O62 O 0.31721 0.42067 0.35249 0.0
H63 H 0.31334 0.48312 0.39595 0.0
H64 H 0.27588 0.52414 0.43151 0.0
H65 H 0.21014 0.51848 0.43006 0.0
H66 H 0.11515 0.41717 0.40377 0.0
H67 H 1.03895 0.40136 0.32302 0.0
H68 H 0.13925 0.44421 0.29626 0.0
H69 H 0.24409 0.29054 0.27096 0.0
H70 H 0.25855 0.34081 0.37064 0.0
H71 H 0.28702 0.3931 0.27555 0.0
H72 H 0.15664 0.30608 0.33853 0.0
H73 H 0.15048 0.31027 0.27306 0.0
H74 H 0.17189 0.3637 0.241 0.0
H75 H 0.16879 0.49161 0.3234 0.0
H76 H 0.21801 0.58484 0.28815 0.0
H77 H 0.26279 0.48203 0.26415 0.0
H78 H 0.26726 0.40651 0.42403 0.0
H79 H 0.21886 0.45272 0.51419 0.0
H80 H 0.15574 0.39729 0.43819 0.0
C81 C 0.63232 0.26813 0.37265 0.0
C82 C 0.60754 0.28497 0.39403 0.0
C83 C 0.58468 0.26364 0.41435 0.0
C84 C 0.58751 0.2265 0.41353 0.0
C85 C 0.61261 0.21161 0.39123 0.0
N86 N 0.63254 0.23302 0.37207 0.0
C87 C 0.62277 0.17431 0.38727 0.0
C88 C 0.65871 0.13282 0.35133 0.0
C89 C 0.67117 0.1086 0.37634 0.0
C90 C 0.68184 0.07501 0.36608 0.0
C91 C 0.68003 0.06499 0.33087 0.0
C92 C 0.66705 0.08848 0.30588 0.0
C93 C 0.65634 0.12212 0.31603 0.0
Cd94 Cd 0.56782 0.1136 0.41827 0.0
Cd95 Cd 0.47044 0.10922 0.35706 0.0
C96 C 0.71813 0.26627 0.32381 0.0
C97 C 0.75277 0.27646 0.27149 0.0
C98 C 0.77719 0.25297 0.28662 0.0
C99 C 0.78137 0.25675 0.32337 0.0
C100 C 0.74952 0.25974 0.34223 0.0
C101 C 0.71978 0.27659 0.28838 0.0
Co102 Co 0.66853 0.21197 0.34815 0.0
N103 N 0.69883 0.20697 0.38968 0.0
N104 N 0.70442 0.19122 0.32376 0.0
C105 C 0.73212 0.18069 0.34251 0.0
C106 C 0.76038 0.16537 0.32463 0.0
C107 C 0.75793 0.16215 0.2876 0.0
C108 C 0.72783 0.17431 0.2693 0.0
C109 C 0.70067 0.18952 0.28891 0.0
N110 N 0.64405 0.21449 0.30262 0.0
N111 N 0.64724 0.16756 0.36148 0.0
N112 N 0.68522 0.25897 0.33998 0.0
O113 O 0.50272 0.05519 0.33756 0.0
O114 O 0.53391 0.08384 0.3751 0.0
C115 C 0.60774 0.05796 0.46038 0.0
O116 O 0.61769 0.06892 0.43025 0.0
O117 O 0.57845 0.07076 0.47076 0.0
C118 C 0.50025 0.15085 0.43269 0.0
O119 O 0.52705 0.15179 0.45271 0.0
O120 O 0.49735 0.12395 0.41322 0.0
C121 C 0.72863 0.18892 0.38031 0.0
O122 O 0.7527 0.17988 0.40344 0.0
O123 O 0.54765 0.1514 0.36084 0.0
O124 O 0.50034 0.15626 0.32602 0.0
C125 C 0.66638 0.20326 0.27665 0.0
O126 O 0.656 0.1998 0.24385 0.0
C127 C 0.60656 0.21727 0.29738 0.0
C128 C 0.58589 0.19147 0.31221 0.0
C129 C 0.54973 0.19295 0.31199 0.0
C130 C 0.53315 0.21869 0.29011 0.0
C131 C 0.5534 0.24422 0.27055 0.0
C132 C 0.59065 0.24349 0.27614 0.0
C133 C 0.53137 0.05834 0.35433 0.0
O134 O 0.61669 0.15133 0.41331 0.0
C135 C 0.53141 0.16578 0.33423 0.0
C136 C 0.68754 0.21069 0.42575 0.0
C137 C 0.67776 0.24364 0.43886 0.0
C138 C 0.65968 0.24621 0.47071 0.0
C139 C 0.65178 0.21602 0.49011 0.0
C140 C 0.66362 0.18288 0.47878 0.0
C141 C 0.6827 0.18079 0.44709 0.0
C142 C 0.66247 0.28329 0.35344 0.0
O143 O 0.66902 0.31721 0.35249 0.0
H144 H 0.60657 0.31334 0.39594 0.0
H145 H 0.56555 0.27588 0.4315 0.0
H146 H 0.57121 0.21013 0.43006 0.0
H147 H 0.67252 0.11515 0.40379 0.0
H148 H 0.68833 1.03895 0.32304 0.0
H149 H 0.64548 0.13925 0.29627 0.0
H150 H 0.79916 0.24408 0.27097 0.0
H151 H 0.74887 0.25854 0.37065 0.0
H152 H 0.69659 0.28701 0.27554 0.0
H153 H 0.78361 0.15663 0.33855 0.0
H154 H 0.77942 0.15047 0.27307 0.0
H155 H 0.72599 0.17188 0.24101 0.0
H156 H 0.59807 0.16878 0.3234 0.0
H157 H 0.50484 0.21801 0.28815 0.0
H158 H 0.60766 0.26279 0.26415 0.0
H159 H 0.68318 0.26725 0.42403 0.0
H160 H 0.63697 0.21886 0.5142 0.0
H161 H 0.6924 0.15574 0.4382 0.0
C162 C 0.82156 0.63231 0.37265 0.0
C163 C 0.80473 0.60753 0.39403 0.0
C164 C 0.82605 0.58467 0.41435 0.0
C165 C 0.86319 0.5875 0.41353 0.0
C166 C 0.87808 0.61261 0.39123 0.0
N167 N 0.85667 0.63253 0.37207 0.0
C168 C 0.91538 0.62276 0.38726 0.0
C169 C 0.95686 0.6587 0.35132 0.0
C170 C 0.98109 0.67117 0.37634 0.0
C171 C 1.01468 0.68184 0.36608 0.0
C172 C 1.0247 0.68003 0.33087 0.0
C173 C 1.00121 0.66705 0.30588 0.0
C174 C 0.96757 0.65634 0.31603 0.0
Cd175 Cd 0.9761 0.56781 0.41827 0.0
Cd176 Cd 0.98046 0.47043 0.35707 0.0
C177 C 0.82341 0.71813 0.32381 0.0
C178 C 0.81322 0.75277 0.27149 0.0
C179 C 0.83671 0.77719 0.28662 0.0
C180 C 0.83293 0.78136 0.32337 0.0
C181 C 0.82994 0.74951 0.34223 0.0
C182 C 0.8131 0.71978 0.28837 0.0
Co183 Co 0.87772 0.66852 0.34815 0.0
N184 N 0.88272 0.69882 0.38968 0.0
N185 N 0.89847 0.70441 0.32376 0.0
C186 C 0.909 0.73211 0.3425 0.0
C187 C 0.92431 0.76037 0.32463 0.0
C188 C 0.92753 0.75792 0.28759 0.0
C189 C 0.91537 0.72783 0.26929 0.0
C190 C 0.90017 0.70066 0.2889 0.0
N191 N 0.8752 0.64404 0.30262 0.0
N192 N 0.92213 0.64723 0.36148 0.0
N193 N 0.83071 0.68521 0.33998 0.0
O194 O 1.03449 0.5027 0.33757 0.0
O195 O 1.00586 0.5339 0.37511 0.0
C196 C 1.03173 0.60774 0.46038 0.0
O197 O 1.02077 0.61768 0.43025 0.0
O198 O 1.01893 0.57845 0.47077 0.0
C199 C 0.93884 0.50024 0.4327 0.0
O200 O 0.93789 0.52705 0.45271 0.0
O201 O 0.96574 0.49734 0.41323 0.0
C202 C 0.90077 0.72863 0.3803 0.0
O203 O 0.9098 0.75269 0.40343 0.0
O204 O 0.93829 0.54765 0.36084 0.0
O205 O 0.93343 0.50034 0.32603 0.0
C206 C 0.88643 0.66638 0.27664 0.0
O207 O 0.88989 0.656 0.24385 0.0
C208 C 0.87242 0.60656 0.29738 0.0
C209 C 0.89822 0.58588 0.31221 0.0
C210 C 0.89674 0.54972 0.31199 0.0
C211 C 0.871 0.53314 0.29011 0.0
C212 C 0.84547 0.55339 0.27055 0.0
C213 C 0.8462 0.59064 0.27614 0.0
C214 C 1.03136 0.53135 0.35434 0.0
O215 O 0.93836 0.61668 0.41331 0.0
C216 C 0.92391 0.5314 0.33423 0.0
C217 C 0.879 0.68753 0.42574 0.0
C218 C 0.84605 0.67775 0.43885 0.0
C219 C 0.84347 0.65967 0.47071 0.0
C220 C 0.87366 0.65177 0.4901 0.0
C221 C 0.90681 0.66362 0.47878 0.0
C222 C 0.90889 0.68269 0.44709 0.0
C223 C 0.8064 0.66246 0.35344 0.0
O224 O 0.77248 0.66901 0.35249 0.0
H225 H 0.77635 0.60656 0.39594 0.0
H226 H 0.81382 0.56554 0.4315 0.0
H227 H 0.87956 0.5712 0.43006 0.0
H228 H 0.97454 0.67252 0.40378 0.0
H229 H 0.05074 0.68833 0.32303 0.0
H230 H 0.95044 0.64547 0.29626 0.0
H231 H 0.8456 0.79916 0.27098 0.0
H232 H 0.83114 0.74886 0.37065 0.0
H233 H 0.80268 0.69659 0.27554 0.0
H234 H 0.93305 0.78361 0.33854 0.0
H235 H 0.93921 0.77942 0.27306 0.0
H236 H 0.9178 0.72599 0.241 0.0
H237 H 0.92091 0.59807 0.3234 0.0
H238 H 0.87168 0.50484 0.28815 0.0
H239 H 0.8269 0.60765 0.26415 0.0
H240 H 0.82243 0.68317 0.42402 0.0
H241 H 0.87083 0.63696 0.51419 0.0
H242 H 0.93395 0.69239 0.4382 0.0
C243 C 0.45737 0.82156 0.37264 0.0
C244 C 0.48216 0.80472 0.39403 0.0
C245 C 0.50501 0.82605 0.41435 0.0
C246 C 0.50218 0.86319 0.41353 0.0
C247 C 0.47708 0.87808 0.39123 0.0
N248 N 0.45715 0.85667 0.37206 0.0
C249 C 0.46692 0.91538 0.38726 0.0
C250 C 0.43098 0.95686 0.35131 0.0
C251 C 0.41852 0.98108 0.37632 0.0
C252 C 0.40784 1.01467 0.36606 0.0
C253 C 0.40966 1.02469 0.33085 0.0
C254 C 0.42263 1.0012 0.30586 0.0
C255 C 0.43335 0.96757 0.31601 0.0
Cd256 Cd 0.52187 0.97609 0.41826 0.0
Cd257 Cd 0.61926 0.98046 0.35707 0.0
C258 C 0.37156 0.82341 0.3238 0.0
C259 C 0.33691 0.81322 0.27149 0.0
C260 C 0.31249 0.83671 0.28662 0.0
C261 C 0.30833 0.83292 0.32336 0.0
C262 C 0.34017 0.82994 0.34223 0.0
C263 C 0.36991 0.81309 0.28837 0.0
Co264 Co 0.42116 0.87771 0.34814 0.0
N265 N 0.39086 0.88272 0.38967 0.0
N266 N 0.38528 0.89846 0.32375 0.0
C267 C 0.35757 0.90899 0.34249 0.0
C268 C 0.32931 0.92431 0.32461 0.0
C269 C 0.33176 0.92753 0.28758 0.0
C270 C 0.36186 0.91536 0.26928 0.0
C271 C 0.38902 0.90016 0.28889 0.0
N272 N 0.44564 0.87519 0.30261 0.0
N273 N 0.44246 0.92213 0.36147 0.0
N274 N 0.40447 0.83071 0.33997 0.0
O275 O 0.58698 1.03449 0.33756 0.0
O276 O 0.55579 1.00585 0.37511 0.0
C277 C 0.48195 1.03172 0.46037 0.0
O278 O 0.472 1.02076 0.43025 0.0
O279 O 0.51124 1.01892 0.47076 0.0
C280 C 0.58944 0.93883 0.4327 0.0
O281 O 0.56263 0.93788 0.45271 0.0
O282 O 0.59234 0.96572 0.41322 0.0
C283 C 0.36106 0.90077 0.38029 0.0
O284 O 0.337 0.9098 0.40341 0.0
O285 O 0.54204 0.93828 0.36083 0.0
O286 O 0.58935 0.93342 0.32603 0.0
C287 C 0.42331 0.88642 0.27663 0.0
O288 O 0.43369 0.88988 0.24384 0.0
C289 C 0.48313 0.87241 0.29737 0.0
C290 C 0.5038 0.89821 0.3122 0.0
C291 C 0.53997 0.89673 0.31198 0.0
C292 C 0.55654 0.87099 0.29011 0.0
C293 C 0.5363 0.84546 0.27055 0.0
C294 C 0.49905 0.84619 0.27613 0.0
C295 C 0.55834 1.03135 0.35434 0.0
O296 O 0.473 0.93836 0.4133 0.0
C297 C 0.55828 0.9239 0.33423 0.0
C298 C 0.40216 0.879 0.42573 0.0
C299 C 0.41193 0.84605 0.43885 0.0
C300 C 0.43001 0.84347 0.4707 0.0
C301 C 0.43791 0.87366 0.4901 0.0
C302 C 0.42607 0.90681 0.47877 0.0
C303 C 0.407 0.90889 0.44708 0.0
C304 C 0.42722 0.80639 0.35343 0.0
O305 O 0.42067 0.77248 0.35249 0.0
H306 H 0.48312 0.77635 0.39595 0.0
H307 H 0.52414 0.81382 0.4315 0.0
H308 H 0.51848 0.87956 0.43006 0.0
H309 H 0.41717 0.97454 0.40376 0.0
H310 H 0.40136 0.05073 0.32301 0.0
H311 H 0.44421 0.95043 0.29625 0.0
H312 H 0.29053 0.84559 0.27096 0.0
H313 H 0.34082 0.83113 0.37064 0.0
H314 H 0.3931 0.80268 0.27554 0.0
H315 H 0.30608 0.93305 0.33852 0.0
H316 H 0.31027 0.93921 0.27305 0.0
H317 H 0.3637 0.91779 0.24099 0.0
H318 H 0.49162 0.9209 0.32339 0.0
H319 H 0.58485 0.87167 0.28815 0.0
H320 H 0.48203 0.82689 0.26414 0.0
H321 H 0.40651 0.82243 0.42401 0.0
H322 H 0.45273 0.87083 0.51419 0.0
H323 H 0.39729 0.93395 0.43819 0.0
C324 C 0.26814 0.63231 0.7171 0.0
C325 C 0.28497 0.60753 0.69571 0.0
C326 C 0.26365 0.58467 0.67539 0.0
C327 C 0.22651 0.5875 0.67621 0.0
C328 C 0.21162 0.61261 0.69851 0.0
N329 N 0.23303 0.63254 0.71767 0.0
C330 C 0.17432 0.62276 0.70248 0.0
C331 C 0.13283 0.6587 0.73842 0.0
C332 C 0.10861 0.67116 0.7134 0.0
C333 C 0.07502 0.68183 0.72366 0.0
C334 C 0.065 0.68002 0.75887 0.0
C335 C 0.08848 0.66705 0.78386 0.0
C336 C 0.12212 0.65633 0.77371 0.0
Cd337 Cd 0.1136 0.56781 0.67148 0.0
Cd338 Cd 0.10922 0.47043 0.73268 0.0
C339 C 0.26628 0.71813 0.76594 0.0
C340 C 0.27647 0.75277 0.81825 0.0
C341 C 0.25298 0.77719 0.80312 0.0
C342 C 0.25676 0.78136 0.76637 0.0
C343 C 0.25975 0.74951 0.74751 0.0
C344 C 0.2766 0.71978 0.80137 0.0
Co345 Co 0.21198 0.66852 0.74159 0.0
N346 N 0.20697 0.69882 0.70007 0.0
N347 N 0.19123 0.70441 0.76599 0.0
C348 C 0.18069 0.73211 0.74724 0.0
C349 C 0.16538 0.76037 0.76512 0.0
C350 C 0.16216 0.75792 0.80216 0.0
C351 C 0.17432 0.72782 0.82045 0.0
C352 C 0.18953 0.70066 0.80084 0.0
N353 N 0.2145 0.64404 0.78712 0.0
N354 N 0.16756 0.64723 0.72826 0.0
N355 N 0.25898 0.68522 0.74977 0.0
O356 O 0.0552 0.50272 0.75218 0.0
O357 O 0.08384 0.5339 0.71464 0.0
C358 C 0.05796 0.60774 0.62937 0.0
O359 O 0.06893 0.61768 0.65949 0.0
O360 O 0.07076 0.57844 0.61898 0.0
C361 C 0.15085 0.50024 0.65705 0.0
O362 O 0.1518 0.52704 0.63703 0.0
O363 O 0.12395 0.49734 0.67652 0.0
C364 C 0.18892 0.72863 0.70944 0.0
O365 O 0.17989 0.75269 0.68632 0.0
O366 O 0.15141 0.54764 0.72891 0.0
O367 O 0.15627 0.50033 0.76372 0.0
C368 C 0.20327 0.66637 0.8131 0.0
O369 O 0.19981 0.65599 0.8459 0.0
C370 C 0.21728 0.60655 0.79237 0.0
C371 C 0.19148 0.58588 0.77753 0.0
C372 C 0.19296 0.54972 0.77776 0.0
C373 C 0.2187 0.53314 0.79963 0.0
C374 C 0.24422 0.55339 0.81919 0.0
C375 C 0.2435 0.59064 0.8136 0.0
C376 C 0.05835 0.53136 0.73541 0.0
O377 O 0.15134 0.61668 0.67643 0.0
C378 C 0.16579 0.5314 0.75552 0.0
C379 C 0.21069 0.68753 0.664 0.0
C380 C 0.24365 0.67776 0.65089 0.0
C381 C 0.24622 0.65967 0.61904 0.0
C382 C 0.21603 0.65178 0.59964 0.0
C383 C 0.18289 0.66362 0.61096 0.0
C384 C 0.1808 0.68269 0.64266 0.0
C385 C 0.2833 0.66246 0.73631 0.0
O386 O 0.31721 0.66902 0.73726 0.0
H387 H 0.31335 0.60657 0.6938 0.0
H388 H 0.27588 0.56555 0.65824 0.0
H389 H 0.21014 0.5712 0.65968 0.0
H390 H 0.11515 0.67251 0.68596 0.0
H391 H 1.03895 0.68831 0.7667 0.0
H392 H 0.13926 0.64547 0.79348 0.0
H393 H 0.24409 0.79916 0.81877 0.0
H394 H 0.25856 0.74886 0.7191 0.0
H395 H 0.28701 0.69659 0.81421 0.0
H396 H 0.15664 0.7836 0.75121 0.0
H397 H 0.15048 0.77941 0.81668 0.0
H398 H 0.17189 0.72598 0.84874 0.0
H399 H 0.16879 0.59807 0.76634 0.0
H400 H 0.21801 0.50484 0.80159 0.0
H401 H 0.2628 0.60765 0.82559 0.0
H402 H 0.26726 0.68318 0.66572 0.0
H403 H 0.21886 0.63696 0.57555 0.0
H404 H 0.15574 0.69239 0.65155 0.0
C405 C 0.45738 0.26813 0.71709 0.0
C406 C 0.48216 0.28496 0.6957 0.0
C407 C 0.50502 0.26364 0.67538 0.0
C408 C 0.50219 0.2265 0.67621 0.0
C409 C 0.47708 0.21161 0.69851 0.0
N410 N 0.45715 0.23302 0.71767 0.0
C411 C 0.46693 0.17431 0.70247 0.0
C412 C 0.43099 0.13282 0.73842 0.0
C413 C 0.41853 0.1086 0.7134 0.0
C414 C 0.40786 0.07501 0.72366 0.0
C415 C 0.40967 0.06499 0.75887 0.0
C416 C 0.42264 0.08848 0.78386 0.0
C417 C 0.43336 0.12212 0.77371 0.0
Cd418 Cd 0.52188 0.1136 0.67148 0.0
Cd419 Cd 0.61926 0.10922 0.73268 0.0
C420 C 0.37156 0.26627 0.76593 0.0
C421 C 0.33693 0.27646 0.81825 0.0
C422 C 0.31251 0.25297 0.80312 0.0
C423 C 0.30833 0.25675 0.76638 0.0
C424 C 0.34018 0.25974 0.74751 0.0
C425 C 0.36992 0.27659 0.80136 0.0
Co426 Co 0.42116 0.21197 0.74159 0.0
N427 N 0.39086 0.20696 0.70006 0.0
N428 N 0.38528 0.19122 0.76598 0.0
C429 C 0.35758 0.18068 0.74723 0.0
C430 C 0.32932 0.16537 0.76511 0.0
C431 C 0.33177 0.16215 0.80215 0.0
C432 C 0.36187 0.17431 0.82045 0.0
C433 C 0.38903 0.18951 0.80084 0.0
N434 N 0.44565 0.21449 0.78712 0.0
N435 N 0.44246 0.16756 0.72826 0.0
N436 N 0.40447 0.25897 0.74976 0.0
O437 O 0.58697 0.05519 0.75218 0.0
O438 O 0.55579 0.08384 0.71464 0.0
C439 C 0.48195 0.05796 0.62937 0.0
O440 O 0.47201 0.06892 0.65949 0.0
O441 O 0.51125 0.07076 0.61898 0.0
C442 C 0.58945 0.15084 0.65705 0.0
O443 O 0.56265 0.15179 0.63703 0.0
O444 O 0.59235 0.12395 0.67652 0.0
C445 C 0.36106 0.18891 0.70943 0.0
O446 O 0.337 0.17988 0.68631 0.0
O447 O 0.54205 0.1514 0.72891 0.0
O448 O 0.58936 0.15626 0.76372 0.0
C449 C 0.42332 0.20326 0.8131 0.0
O450 O 0.4337 0.1998 0.84589 0.0
C451 C 0.48314 0.21727 0.79236 0.0
C452 C 0.50381 0.19147 0.77753 0.0
C453 C 0.53997 0.19295 0.77776 0.0
C454 C 0.55655 0.21869 0.79963 0.0
C455 C 0.5363 0.24422 0.81919 0.0
C456 C 0.49905 0.24349 0.8136 0.0
C457 C 0.55833 0.05834 0.73542 0.0
O458 O 0.47301 0.15133 0.67643 0.0
C459 C 0.55829 0.16578 0.75552 0.0
C460 C 0.40216 0.21068 0.664 0.0
C461 C 0.41193 0.24363 0.65088 0.0
C462 C 0.43002 0.2462 0.61903 0.0
C463 C 0.43791 0.21601 0.59964 0.0
C464 C 0.42607 0.18287 0.61096 0.0
C465 C 0.407 0.18079 0.64265 0.0
C466 C 0.42723 0.28329 0.7363 0.0
O467 O 0.42067 0.3172 0.73725 0.0
H468 H 0.48312 0.31334 0.69379 0.0
H469 H 0.52415 0.27587 0.65824 0.0
H470 H 0.51849 0.21013 0.65968 0.0
H471 H 0.41718 0.11514 0.68596 0.0
H472 H 0.40137 1.03894 0.76671 0.0
H473 H 0.44422 0.13925 0.79348 0.0
H474 H 0.29054 0.24408 0.81878 0.0
H475 H 0.34082 0.25854 0.71909 0.0
H476 H 0.39311 0.28701 0.81419 0.0
H477 H 0.30609 0.15663 0.7512 0.0
H478 H 0.31028 0.15047 0.81667 0.0
H479 H 0.36371 0.17188 0.84874 0.0
H480 H 0.49162 0.16878 0.76634 0.0
H481 H 0.58485 0.21801 0.80159 0.0
H482 H 0.48204 0.26279 0.82559 0.0
H483 H 0.40651 0.26725 0.66571 0.0
H484 H 0.45273 0.21885 0.57555 0.0
H485 H 0.39729 0.15573 0.65154 0.0
C486 C 0.82156 0.45737 0.71709 0.0
C487 C 0.80473 0.48215 0.69571 0.0
C488 C 0.82606 0.505 0.67539 0.0
C489 C 0.8632 0.50218 0.67621 0.0
C490 C 0.87808 0.47707 0.69851 0.0
N491 N 0.85668 0.45714 0.71767 0.0
C492 C 0.91538 0.46692 0.70249 0.0
C493 C 0.95687 0.43098 0.73843 0.0
C494 C 0.98109 0.41852 0.71342 0.0
C495 C 1.01469 0.40785 0.72368 0.0
C496 C 1.02471 0.40966 0.7589 0.0
C497 C 1.00122 0.42263 0.78388 0.0
C498 C 0.96758 0.43335 0.77373 0.0
Cd499 Cd 0.97609 0.52187 0.67148 0.0
Cd500 Cd 0.98046 0.61925 0.73267 0.0
C501 C 0.82342 0.37155 0.76594 0.0
C502 C 0.81323 0.33692 0.81826 0.0
C503 C 0.83672 0.3125 0.80314 0.0
C504 C 0.83294 0.30832 0.76639 0.0
C505 C 0.82995 0.34017 0.74752 0.0
C506 C 0.8131 0.36991 0.80137 0.0
Co507 Co 0.87773 0.42116 0.7416 0.0
N508 N 0.88273 0.39086 0.70007 0.0
N509 N 0.89848 0.38527 0.76599 0.0
C510 C 0.90901 0.35757 0.74725 0.0
C511 C 0.92432 0.32931 0.76513 0.0
C512 C 0.92754 0.33176 0.80217 0.0
C513 C 0.91538 0.36186 0.82047 0.0
C514 C 0.90018 0.38902 0.80085 0.0
N515 N 0.8752 0.44564 0.78713 0.0
N516 N 0.92214 0.44245 0.72827 0.0
N517 N 0.83072 0.40446 0.74977 0.0
O518 O 1.03449 0.58698 0.75218 0.0
O519 O 1.00586 0.55579 0.71463 0.0
C520 C 1.03173 0.48194 0.62936 0.0
O521 O 1.02077 0.472 0.65949 0.0
O522 O 1.01892 0.51124 0.61898 0.0
C523 C 0.93884 0.58943 0.65704 0.0
O524 O 0.93789 0.56263 0.63703 0.0
O525 O 0.96573 0.59234 0.67652 0.0
C526 C 0.90078 0.36105 0.70945 0.0
O527 O 0.90981 0.33699 0.68633 0.0
O528 O 0.93829 0.54203 0.72891 0.0
O529 O 0.93342 0.58935 0.76371 0.0
C530 C 0.88643 0.42331 0.81311 0.0
O531 O 0.88989 0.43369 0.8459 0.0
C532 C 0.87242 0.48313 0.79237 0.0
C533 C 0.89822 0.5038 0.77754 0.0
C534 C 0.89674 0.53996 0.77776 0.0
C535 C 0.871 0.55654 0.79963 0.0
C536 C 0.84547 0.53629 0.81919 0.0
C537 C 0.8462 0.49904 0.81361 0.0
C538 C 1.03136 0.55834 0.7354 0.0
O539 O 0.93836 0.47299 0.67644 0.0
C540 C 0.9239 0.55828 0.75551 0.0
C541 C 0.87901 0.40215 0.66401 0.0
C542 C 0.84606 0.41192 0.65089 0.0
C543 C 0.84349 0.43 0.61904 0.0
C544 C 0.87368 0.4379 0.59964 0.0
C545 C 0.90682 0.42606 0.61097 0.0
C546 C 0.90891 0.40699 0.64266 0.0
C547 C 0.80641 0.42722 0.73631 0.0
O548 O 0.77249 0.42066 0.73725 0.0
H549 H 0.77636 0.48311 0.69379 0.0
H550 H 0.81382 0.52413 0.65824 0.0
H551 H 0.87957 0.51848 0.65968 0.0
H552 H 0.97455 0.41717 0.68598 0.0
H553 H 0.05075 0.40136 0.76673 0.0
H554 H 0.95045 0.44421 0.79349 0.0
H555 H 0.8456 0.29053 0.81879 0.0
H556 H 0.83115 0.34081 0.71911 0.0
H557 H 0.80268 0.3931 0.8142 0.0
H558 H 0.93307 0.30608 0.75122 0.0
H559 H 0.93922 0.31027 0.8167 0.0
H560 H 0.91781 0.3637 0.84876 0.0
H561 H 0.92091 0.49162 0.76635 0.0
H562 H 0.87168 0.58484 0.80159 0.0
H563 H 0.8269 0.48202 0.8256 0.0
H564 H 0.82245 0.4065 0.66572 0.0
H565 H 0.87084 0.45272 0.57555 0.0
H566 H 0.93397 0.39729 0.65156 0.0
C567 C 0.63232 0.82156 0.7171 0.0
C568 C 0.60754 0.80472 0.69571 0.0
C569 C 0.58468 0.82605 0.67539 0.0
C570 C 0.58751 0.86319 0.67621 0.0
C571 C 0.61262 0.87808 0.69852 0.0
N572 N 0.63255 0.85667 0.71768 0.0
C573 C 0.62278 0.91538 0.70249 0.0
C574 C 0.65871 0.95686 0.73843 0.0
C575 C 0.67118 0.98108 0.71342 0.0
C576 C 0.68185 1.01467 0.72368 0.0
C577 C 0.68004 1.0247 0.7589 0.0
C578 C 0.66706 1.00121 0.78388 0.0
C579 C 0.65635 0.96757 0.77373 0.0
Cd580 Cd 0.56782 0.97609 0.67148 0.0
Cd581 Cd 0.47044 0.98046 0.73267 0.0
C582 C 0.71814 0.82341 0.76594 0.0
C583 C 0.75279 0.81322 0.81825 0.0
C584 C 0.7772 0.83671 0.80313 0.0
C585 C 0.78137 0.83293 0.76638 0.0
C586 C 0.74952 0.82994 0.74751 0.0
C587 C 0.71979 0.8131 0.80137 0.0
Co588 Co 0.66854 0.87772 0.7416 0.0
N589 N 0.69883 0.88272 0.70007 0.0
N590 N 0.70442 0.89846 0.766 0.0
C591 C 0.73212 0.909 0.74725 0.0
C592 C 0.76039 0.92431 0.76513 0.0
C593 C 0.75793 0.92753 0.80217 0.0
C594 C 0.72784 0.91536 0.82047 0.0
C595 C 0.70067 0.90016 0.80085 0.0
N596 N 0.64405 0.87519 0.78713 0.0
N597 N 0.64724 0.92213 0.72828 0.0
N598 N 0.68523 0.83071 0.74977 0.0
O599 O 0.50271 1.03448 0.75218 0.0
O600 O 0.53391 1.00586 0.71463 0.0
C601 C 0.60775 1.03173 0.62937 0.0
O602 O 0.61769 1.02076 0.65949 0.0
O603 O 0.57846 1.01892 0.61898 0.0
C604 C 0.50026 0.93883 0.65705 0.0
O605 O 0.52706 0.93789 0.63703 0.0
O606 O 0.49736 0.96573 0.67652 0.0
C607 C 0.72864 0.90077 0.70945 0.0
O608 O 0.7527 0.9098 0.68633 0.0
O609 O 0.54766 0.93828 0.72891 0.0
O610 O 0.50035 0.93342 0.76372 0.0
C611 C 0.66639 0.88642 0.81311 0.0
O612 O 0.65601 0.88988 0.84591 0.0
C613 C 0.60657 0.87241 0.79237 0.0
C614 C 0.58589 0.89821 0.77754 0.0
C615 C 0.54973 0.89673 0.77776 0.0
C616 C 0.53315 0.87099 0.79963 0.0
C617 C 0.5534 0.84546 0.8192 0.0
C618 C 0.59065 0.84619 0.81361 0.0
C619 C 0.53136 1.03135 0.73541 0.0
O620 O 0.6167 0.93836 0.67644 0.0
C621 C 0.53141 0.9239 0.75552 0.0
C622 C 0.68754 0.879 0.66401 0.0
C623 C 0.67777 0.84605 0.6509 0.0
C624 C 0.65968 0.84348 0.61904 0.0
C625 C 0.65179 0.87367 0.59965 0.0
C626 C 0.66363 0.90681 0.61097 0.0
C627 C 0.6827 0.9089 0.64267 0.0
C628 C 0.66247 0.8064 0.73631 0.0
O629 O 0.66903 0.77248 0.73725 0.0
H630 H 0.60658 0.77635 0.6938 0.0
H631 H 0.56555 0.81382 0.65824 0.0
H632 H 0.57121 0.87956 0.65968 0.0
H633 H 0.67253 0.97454 0.68598 0.0
H634 H 0.68834 0.05074 0.76673 0.0
H635 H 0.64548 0.95043 0.79349 0.0
H636 H 0.79917 0.84559 0.81878 0.0
H637 H 0.74887 0.83114 0.7191 0.0
H638 H 0.6966 0.80268 0.81421 0.0
H639 H 0.78362 0.93305 0.75122 0.0
H640 H 0.77943 0.93921 0.8167 0.0
H641 H 0.726 0.91779 0.84876 0.0
H642 H 0.59808 0.9209 0.76635 0.0
H643 H 0.50485 0.87167 0.80159 0.0
H644 H 0.60767 0.82689 0.8256 0.0
H645 H 0.68319 0.82244 0.66573 0.0
H646 H 0.63697 0.87083 0.57556 0.0
H647 H 0.6924 0.93395 0.65156 0.0
C648 C 0.37265 0.26813 0.45738 0.0
C649 C 0.39404 0.28496 0.48216 0.0
C650 C 0.41435 0.26364 0.50503 0.0
C651 C 0.41352 0.22649 0.5022 0.0
C652 C 0.39122 0.21161 0.47709 0.0
N653 N 0.37206 0.23302 0.45716 0.0
C654 C 0.38724 0.17431 0.46694 0.0
C655 C 0.35129 0.13283 0.431 0.0
C656 C 0.37629 0.1086 0.41855 0.0
C657 C 0.36603 0.07501 0.40787 0.0
C658 C 0.33081 0.065 0.40968 0.0
C659 C 0.30583 0.08849 0.42265 0.0
C660 C 0.31599 0.12213 0.43337 0.0
Cd661 Cd 0.41823 0.1136 0.5219 0.0
Cd662 Cd 0.35703 0.10922 0.61928 0.0
C663 C 0.3238 0.26628 0.37156 0.0
C664 C 0.2715 0.27648 0.33693 0.0
C665 C 0.28659 0.25299 0.31249 0.0
C666 C 0.32334 0.25674 0.30832 0.0
C667 C 0.34221 0.25972 0.34017 0.0
C668 C 0.28838 0.27663 0.36992 0.0
Co669 Co 0.34813 0.21197 0.42117 0.0
N670 N 0.38966 0.20695 0.39088 0.0
N671 N 0.32374 0.19123 0.38529 0.0
C672 C 0.34248 0.18068 0.35759 0.0
C673 C 0.3246 0.16537 0.32933 0.0
C674 C 0.28757 0.16216 0.33178 0.0
C675 C 0.26927 0.17433 0.36187 0.0
C676 C 0.28888 0.18953 0.38903 0.0
N677 N 0.30261 0.21451 0.44565 0.0
N678 N 0.36145 0.16756 0.44248 0.0
N679 N 0.33998 0.25898 0.40447 0.0
O680 O 0.33753 0.05519 0.58699 0.0
O681 O 0.37507 0.08383 0.55581 0.0
C682 C 0.46035 0.05796 0.48197 0.0
O683 O 0.43023 0.06893 0.47203 0.0
O684 O 0.47073 0.07076 0.51127 0.0
C685 C 0.43265 0.15086 0.58945 0.0
O686 O 0.45268 0.1518 0.56266 0.0
O687 O 0.41318 0.12396 0.59236 0.0
C688 C 0.38028 0.1889 0.36108 0.0
O689 O 0.4034 0.17986 0.33702 0.0
O690 O 0.36081 0.15141 0.54206 0.0
O691 O 0.32599 0.15626 0.58937 0.0
C692 C 0.27663 0.20328 0.42332 0.0
O693 O 0.24383 0.19983 0.4337 0.0
C694 C 0.29736 0.21729 0.48314 0.0
C695 C 0.31219 0.19149 0.50382 0.0
C696 C 0.31196 0.19296 0.53998 0.0
C697 C 0.29009 0.2187 0.55656 0.0
C698 C 0.27053 0.24423 0.53631 0.0
C699 C 0.27612 0.24351 0.49906 0.0
C700 C 0.3543 0.05834 0.55834 0.0
O701 O 0.41328 0.15133 0.47302 0.0
C702 C 0.3342 0.16579 0.5583 0.0
C703 C 0.42572 0.21067 0.40217 0.0
C704 C 0.43884 0.24362 0.41194 0.0
C705 C 0.47069 0.2462 0.43002 0.0
C706 C 0.49008 0.21601 0.43793 0.0
C707 C 0.47875 0.18286 0.4261 0.0
C708 C 0.44706 0.18078 0.40702 0.0
C709 C 0.35344 0.28329 0.42723 0.0
O710 O 0.3525 0.31721 0.42067 0.0
H711 H 0.39596 0.31334 0.48313 0.0
H712 H 0.4315 0.27587 0.52415 0.0
H713 H 0.43005 0.21012 0.5185 0.0
H714 H 0.40374 0.11514 0.4172 0.0
H715 H 0.32298 1.03896 0.40139 0.0
H716 H 0.29623 0.13927 0.44423 0.0
H717 H 0.27093 0.24412 0.29053 0.0
H718 H 0.37062 0.2585 0.34081 0.0
H719 H 0.27556 0.28707 0.39311 0.0
H720 H 0.33851 0.15662 0.3061 0.0
H721 H 0.27304 0.15048 0.31028 0.0
H722 H 0.24098 0.17191 0.36371 0.0
H723 H 0.32338 0.1688 0.49163 0.0
H724 H 0.28812 0.21801 0.58487 0.0
H725 H 0.26413 0.26281 0.48204 0.0
H726 H 0.42401 0.26724 0.40651 0.0
H727 H 0.51417 0.21884 0.45275 0.0
H728 H 0.43817 0.15572 0.39733 0.0
C729 C 0.82155 0.37264 0.45738 0.0
C730 C 0.80472 0.39403 0.48216 0.0
C731 C 0.82605 0.41434 0.50503 0.0
C732 C 0.86319 0.41351 0.5022 0.0
C733 C 0.87808 0.39121 0.4771 0.0
N734 N 0.85667 0.37206 0.45717 0.0
C735 C 0.91538 0.38724 0.46695 0.0
C736 C 0.95686 0.35129 0.43102 0.0
C737 C 0.98109 0.3763 0.41856 0.0
C738 C 1.01468 0.36604 0.40789 0.0
C739 C 1.0247 0.33082 0.4097 0.0
C740 C 1.0012 0.30584 0.42267 0.0
C741 C 0.96756 0.31599 0.43338 0.0
Cd742 Cd 0.97609 0.41823 0.52191 0.0
Cd743 Cd 0.98047 0.35702 0.61928 0.0
C744 C 0.82341 0.32379 0.37157 0.0
C745 C 0.81321 0.27149 0.33694 0.0
C746 C 0.8367 0.28658 0.3125 0.0
C747 C 0.83295 0.32333 0.30833 0.0
C748 C 0.82997 0.3422 0.34017 0.0
C749 C 0.81306 0.28837 0.36993 0.0
Co750 Co 0.87772 0.34813 0.42118 0.0
N751 N 0.88273 0.38966 0.39088 0.0
N752 N 0.89847 0.32374 0.3853 0.0
C753 C 0.90901 0.34248 0.3576 0.0
C754 C 0.92432 0.3246 0.32934 0.0
C755 C 0.92753 0.28757 0.33179 0.0
C756 C 0.91536 0.26927 0.36188 0.0
C757 C 0.90016 0.28888 0.38904 0.0
N758 N 0.87518 0.3026 0.44566 0.0
N759 N 0.92213 0.36145 0.44248 0.0
N760 N 0.83071 0.33997 0.40448 0.0
O761 O 1.0345 0.33752 0.587 0.0
O762 O 1.00586 0.37507 0.55581 0.0
C763 C 1.03173 0.46034 0.48198 0.0
O764 O 1.02076 0.43022 0.47204 0.0
O765 O 1.01893 0.47073 0.51128 0.0
C766 C 0.93884 0.43264 0.58947 0.0
O767 O 0.93789 0.45268 0.56268 0.0
O768 O 0.96573 0.41317 0.59237 0.0
C769 C 0.90079 0.38028 0.36108 0.0
O770 O 0.90983 0.4034 0.33702 0.0
O771 O 0.93828 0.3608 0.54207 0.0
O772 O 0.93343 0.32599 0.58938 0.0
C773 C 0.88641 0.27663 0.42333 0.0
O774 O 0.88986 0.24383 0.43371 0.0
C775 C 0.87241 0.29736 0.48315 0.0
C776 C 0.8982 0.31218 0.50383 0.0
C777 C 0.89673 0.31196 0.53999 0.0
C778 C 0.87099 0.29008 0.55657 0.0
C779 C 0.84546 0.27053 0.53632 0.0
C780 C 0.84618 0.27612 0.49907 0.0
C781 C 1.03135 0.35429 0.55835 0.0
O782 O 0.93836 0.41328 0.47303 0.0
C783 C 0.9239 0.33419 0.55831 0.0
C784 C 0.87901 0.42572 0.40218 0.0
C785 C 0.84606 0.43883 0.41194 0.0
C786 C 0.84349 0.47069 0.43003 0.0
C787 C 0.87368 0.49008 0.43793 0.0
C788 C 0.90682 0.47875 0.4261 0.0
C789 C 0.90891 0.44706 0.40703 0.0
C790 C 0.8064 0.35343 0.42723 0.0
O791 O 0.77248 0.35249 0.42067 0.0
H792 H 0.77635 0.39594 0.48312 0.0
H793 H 0.81381 0.43149 0.52415 0.0
H794 H 0.87956 0.43004 0.51851 0.0
H795 H 0.97455 0.40374 0.41721 0.0
H796 H 0.05074 0.32299 0.40141 0.0
H797 H 0.95042 0.29623 0.44424 0.0
H798 H 0.84557 0.27091 0.29054 0.0
H799 H 0.83119 0.37061 0.34081 0.0
H800 H 0.80262 0.27556 0.39312 0.0
H801 H 0.93308 0.33851 0.30611 0.0
H802 H 0.93922 0.27304 0.3103 0.0
H803 H 0.91779 0.24098 0.36372 0.0
H804 H 0.9209 0.32338 0.49164 0.0
H805 H 0.87168 0.28812 0.58487 0.0
H806 H 0.82688 0.26413 0.48205 0.0
H807 H 0.82245 0.42401 0.40651 0.0
H808 H 0.87084 0.51416 0.45275 0.0
H809 H 0.93397 0.43817 0.39733 0.0
C810 C 0.71704 0.82154 0.45739 0.0
C811 C 0.69566 0.80471 0.48217 0.0
C812 C 0.67534 0.82604 0.50503 0.0
C813 C 0.67617 0.86318 0.50221 0.0
C814 C 0.69847 0.87807 0.4771 0.0
N815 N 0.71763 0.85665 0.45717 0.0
C816 C 0.70245 0.91537 0.46695 0.0
C817 C 0.73839 0.95685 0.43101 0.0
C818 C 0.71338 0.98108 0.41855 0.0
C819 C 0.72365 1.01467 0.40788 0.0
C820 C 0.75886 1.02468 0.40969 0.0
C821 C 0.78385 1.00119 0.42266 0.0
C822 C 0.77369 0.96755 0.43338 0.0
Cd823 Cd 0.67146 0.97608 0.5219 0.0
Cd824 Cd 0.73267 0.98046 0.61928 0.0
C825 C 0.76588 0.8234 0.37157 0.0
C826 C 0.81818 0.8132 0.33695 0.0
C827 C 0.8031 0.83669 0.31251 0.0
C828 C 0.76635 0.83294 0.30833 0.0
C829 C 0.74748 0.82996 0.34018 0.0
C830 C 0.8013 0.81304 0.36994 0.0
Co831 Co 0.74155 0.8777 0.42118 0.0
N832 N 0.70002 0.88272 0.39088 0.0
N833 N 0.76594 0.89845 0.38529 0.0
C834 C 0.74719 0.909 0.35759 0.0
C835 C 0.76507 0.92431 0.32933 0.0
C836 C 0.80211 0.92752 0.33178 0.0
C837 C 0.82041 0.91535 0.36187 0.0
C838 C 0.80079 0.90015 0.38904 0.0
N839 N 0.78708 0.87517 0.44566 0.0
N840 N 0.72823 0.92212 0.44248 0.0
N841 N 0.74971 0.8307 0.40448 0.0
O842 O 0.75217 1.03448 0.587 0.0
O843 O 0.71462 1.00585 0.55581 0.0
C844 C 0.62935 1.03172 0.48198 0.0
O845 O 0.65947 1.02075 0.47203 0.0
O846 O 0.61896 1.01892 0.51127 0.0
C847 C 0.65705 0.93882 0.58946 0.0
O848 O 0.63701 0.93788 0.56267 0.0
O849 O 0.67652 0.96572 0.59237 0.0
C850 C 0.70939 0.90078 0.36108 0.0
O851 O 0.68627 0.90982 0.33702 0.0
O852 O 0.72889 0.93827 0.54207 0.0
O853 O 0.76371 0.93342 0.58937 0.0
C854 C 0.81306 0.8864 0.42332 0.0
O855 O 0.84585 0.88985 0.4337 0.0
C856 C 0.79233 0.87239 0.48315 0.0
C857 C 0.7775 0.89819 0.50383 0.0
C858 C 0.77773 0.89672 0.53999 0.0
C859 C 0.79961 0.87098 0.55657 0.0
C860 C 0.81916 0.84545 0.53632 0.0
C861 C 0.81357 0.84617 0.49907 0.0
C862 C 0.7354 1.03134 0.55835 0.0
O863 O 0.67641 0.93835 0.47303 0.0
C864 C 0.7555 0.92389 0.55831 0.0
C865 C 0.66396 0.879 0.40218 0.0
C866 C 0.65084 0.84605 0.41195 0.0
C867 C 0.61899 0.84348 0.43003 0.0
C868 C 0.5996 0.87367 0.43794 0.0
C869 C 0.61093 0.90681 0.4261 0.0
C870 C 0.64262 0.9089 0.40703 0.0
C871 C 0.73625 0.80638 0.42723 0.0
O872 O 0.73719 0.77247 0.42068 0.0
H873 H 0.69374 0.77634 0.48313 0.0
H874 H 0.6582 0.8138 0.52416 0.0
H875 H 0.65965 0.87955 0.51851 0.0
H876 H 0.68594 0.97454 0.4172 0.0
H877 H 0.7667 0.05072 0.40139 0.0
H878 H 0.79345 0.95041 0.44423 0.0
H879 H 0.81876 0.84557 0.29055 0.0
H880 H 0.71906 0.83118 0.34081 0.0
H881 H 0.81412 0.8026 0.39312 0.0
H882 H 0.75116 0.93306 0.3061 0.0
H883 H 0.81663 0.93921 0.31029 0.0
H884 H 0.8487 0.91778 0.36371 0.0
H885 H 0.76631 0.92089 0.49164 0.0
H886 H 0.80157 0.87167 0.58487 0.0
H887 H 0.82555 0.82687 0.48205 0.0
H888 H 0.66567 0.82244 0.40652 0.0
H889 H 0.57552 0.87084 0.45276 0.0
H890 H 0.65151 0.93396 0.39733 0.0
C891 C 0.26814 0.71704 0.45738 0.0
C892 C 0.28498 0.69565 0.48217 0.0
C893 C 0.26365 0.67533 0.50503 0.0
C894 C 0.22651 0.67616 0.5022 0.0
C895 C 0.21162 0.69847 0.4771 0.0
N896 N 0.23303 0.71762 0.45716 0.0
C897 C 0.17432 0.70244 0.46694 0.0
C898 C 0.13284 0.73839 0.43101 0.0
C899 C 0.10861 0.71338 0.41855 0.0
C900 C 0.07502 0.72365 0.40788 0.0
C901 C 0.065 0.75886 0.40969 0.0
C902 C 0.0885 0.78384 0.42266 0.0
C903 C 0.12214 0.77369 0.43337 0.0
Cd904 Cd 0.11361 0.67145 0.5219 0.0
Cd905 Cd 0.10924 0.73265 0.61928 0.0
C906 C 0.26629 0.76588 0.37156 0.0
C907 C 0.27648 0.81818 0.33694 0.0
C908 C 0.25299 0.80309 0.3125 0.0
C909 C 0.25674 0.76634 0.30833 0.0
C910 C 0.25973 0.74747 0.34017 0.0
C911 C 0.27664 0.8013 0.36993 0.0
Co912 Co 0.21198 0.74154 0.42117 0.0
N913 N 0.20697 0.70002 0.39088 0.0
N914 N 0.19123 0.76594 0.38529 0.0
C915 C 0.18069 0.74719 0.35759 0.0
C916 C 0.16537 0.76507 0.32933 0.0
C917 C 0.16216 0.80211 0.33178 0.0
C918 C 0.17434 0.8204 0.36187 0.0
C919 C 0.18954 0.80079 0.38903 0.0
N920 N 0.21452 0.78707 0.44566 0.0
N921 N 0.16757 0.72823 0.44248 0.0
N922 N 0.25899 0.7497 0.40448 0.0
O923 O 0.05521 0.75215 0.587 0.0
O924 O 0.08385 0.71461 0.55581 0.0
C925 C 0.05797 0.62934 0.48198 0.0
O926 O 0.06894 0.65946 0.47203 0.0
O927 O 0.07077 0.61896 0.51128 0.0
C928 C 0.15087 0.65704 0.58946 0.0
O929 O 0.15181 0.637 0.56267 0.0
O930 O 0.12398 0.67651 0.59236 0.0
C931 C 0.18891 0.70939 0.36108 0.0
O932 O 0.17986 0.68627 0.33702 0.0
O933 O 0.15142 0.72888 0.54206 0.0
O934 O 0.15628 0.76369 0.58937 0.0
C935 C 0.20329 0.81305 0.42332 0.0
O936 O 0.19984 0.84585 0.4337 0.0
C937 C 0.2173 0.79232 0.48315 0.0
C938 C 0.1915 0.77749 0.50382 0.0
C939 C 0.19297 0.77772 0.53998 0.0
C940 C 0.21871 0.7996 0.55656 0.0
C941 C 0.24424 0.81915 0.53631 0.0
C942 C 0.24352 0.81356 0.49906 0.0
C943 C 0.05835 0.73539 0.55835 0.0
O944 O 0.15134 0.6764 0.47302 0.0
C945 C 0.1658 0.75549 0.5583 0.0
C946 C 0.21068 0.66396 0.40217 0.0
C947 C 0.24364 0.65084 0.41194 0.0
C948 C 0.24621 0.61899 0.43003 0.0
C949 C 0.21602 0.5996 0.43794 0.0
C950 C 0.18288 0.61093 0.4261 0.0
C951 C 0.18079 0.64262 0.40702 0.0
C952 C 0.2833 0.73624 0.42723 0.0
O953 O 0.31722 0.73719 0.42068 0.0
H954 H 0.31335 0.69373 0.48313 0.0
H955 H 0.27589 0.65819 0.52416 0.0
H956 H 0.21014 0.65964 0.51851 0.0
H957 H 0.11515 0.68594 0.4172 0.0
H958 H 1.03896 0.7667 0.40139 0.0
H959 H 0.13928 0.79345 0.44423 0.0
H960 H 0.24412 0.81876 0.29054 0.0
H961 H 0.25851 0.71906 0.34081 0.0
H962 H 0.28708 0.81412 0.39312 0.0
H963 H 0.15662 0.75116 0.3061 0.0
H964 H 0.15048 0.81663 0.31028 0.0
H965 H 0.17191 0.84869 0.36371 0.0
H966 H 0.1688 0.7663 0.49163 0.0
H967 H 0.21802 0.80156 0.58487 0.0
H968 H 0.26282 0.82555 0.48205 0.0
H969 H 0.26725 0.66567 0.40651 0.0
H970 H 0.21886 0.57551 0.45276 0.0
H971 H 0.15573 0.65151 0.39733 0.0
C972 C 0.37265 0.82155 0.63236 0.0
C973 C 0.39403 0.80471 0.60757 0.0
C974 C 0.41435 0.82604 0.58471 0.0
C975 C 0.41352 0.86318 0.58754 0.0
C976 C 0.39122 0.87807 0.61264 0.0
N977 N 0.37207 0.85666 0.63258 0.0
C978 C 0.38725 0.91537 0.6228 0.0
C979 C 0.3513 0.95685 0.65873 0.0
C980 C 0.37631 0.98108 0.67119 0.0
C981 C 0.36605 1.01467 0.68186 0.0
C982 C 0.33083 1.02469 0.68005 0.0
C983 C 0.30585 1.00119 0.66708 0.0
C984 C 0.316 0.96755 0.65637 0.0
Cd985 Cd 0.41824 0.97608 0.56784 0.0
Cd986 Cd 0.35703 0.98045 0.47045 0.0
C987 C 0.32381 0.8234 0.71818 0.0
C988 C 0.27151 0.8132 0.7528 0.0
C989 C 0.28659 0.8367 0.77724 0.0
C990 C 0.32334 0.83294 0.78141 0.0
C991 C 0.34222 0.82996 0.74957 0.0
C992 C 0.28839 0.81305 0.71981 0.0
Co993 Co 0.34815 0.87771 0.66857 0.0
N994 N 0.38967 0.88272 0.69886 0.0
N995 N 0.32375 0.89846 0.70445 0.0
C996 C 0.3425 0.909 0.73215 0.0
C997 C 0.32462 0.92432 0.76041 0.0
C998 C 0.28759 0.92753 0.75796 0.0
C999 C 0.26929 0.91535 0.72787 0.0
C1000 C 0.2889 0.90015 0.70071 0.0
N1001 N 0.30262 0.87517 0.64409 0.0
N1002 N 0.36146 0.92212 0.64726 0.0
N1003 N 0.33998 0.8307 0.68527 0.0
O1004 O 0.33753 1.03448 0.50273 0.0
O1005 O 0.37508 1.00585 0.53392 0.0
C1006 C 0.46035 1.03172 0.60776 0.0
O1007 O 0.43023 1.02075 0.61771 0.0
O1008 O 0.47074 1.01892 0.57847 0.0
C1009 C 0.43265 0.93882 0.50028 0.0
O1010 O 0.45268 0.93788 0.52707 0.0
O1011 O 0.41318 0.96571 0.49737 0.0
C1012 C 0.3803 0.90078 0.72866 0.0
O1013 O 0.40342 0.90982 0.75272 0.0
O1014 O 0.36081 0.93827 0.54768 0.0
O1015 O 0.32599 0.93341 0.50037 0.0
C1016 C 0.27664 0.8864 0.66642 0.0
O1017 O 0.24384 0.88985 0.65604 0.0
C1018 C 0.29737 0.8724 0.60659 0.0
C1019 C 0.31219 0.8982 0.58592 0.0
C1020 C 0.31196 0.89672 0.54976 0.0
C1021 C 0.29009 0.87098 0.53318 0.0
C1022 C 0.27053 0.84545 0.55343 0.0
C1023 C 0.27613 0.84617 0.59068 0.0
C1024 C 0.35431 1.03135 0.53137 0.0
O1025 O 0.41328 0.93835 0.61671 0.0
C1026 C 0.3342 0.92389 0.53143 0.0
C1027 C 0.42573 0.87901 0.68757 0.0
C1028 C 0.43885 0.84605 0.6778 0.0
C1029 C 0.4707 0.84348 0.65971 0.0
C1030 C 0.49009 0.87367 0.65181 0.0
C1031 C 0.47876 0.90681 0.66364 0.0
C1032 C 0.44707 0.9089 0.68272 0.0
C1033 C 0.35344 0.80639 0.66251 0.0
O1034 O 0.3525 0.77247 0.66907 0.0
H1035 H 0.39595 0.77634 0.60661 0.0
H1036 H 0.4315 0.81381 0.56558 0.0
H1037 H 0.43004 0.87955 0.57123 0.0
H1038 H 0.40375 0.97454 0.67254 0.0
H1039 H 0.323 0.05073 0.68835 0.0
H1040 H 0.29624 0.95041 0.64551 0.0
H1041 H 0.27093 0.84557 0.7992 0.0
H1042 H 0.37063 0.83118 0.74893 0.0
H1043 H 0.27557 0.80261 0.69662 0.0
H1044 H 0.33854 0.93307 0.78364 0.0
H1045 H 0.27306 0.93921 0.77945 0.0
H1046 H 0.241 0.91778 0.72603 0.0
H1047 H 0.32339 0.92089 0.5981 0.0
H1048 H 0.28812 0.87167 0.50487 0.0
H1049 H 0.26414 0.82687 0.6077 0.0
H1050 H 0.42402 0.82244 0.68323 0.0
H1051 H 0.51418 0.87084 0.63699 0.0
H1052 H 0.43818 0.93396 0.69241 0.0
C1053 C 0.26813 0.37264 0.63236 0.0
C1054 C 0.28497 0.39403 0.60758 0.0
C1055 C 0.26364 0.41434 0.58472 0.0
C1056 C 0.2265 0.41351 0.58754 0.0
C1057 C 0.21161 0.39121 0.61265 0.0
N1058 N 0.23302 0.37205 0.63258 0.0
C1059 C 0.17431 0.38723 0.62279 0.0
C1060 C 0.13283 0.35128 0.65873 0.0
C1061 C 0.1086 0.37629 0.67118 0.0
C1062 C 0.07501 0.36602 0.68186 0.0
C1063 C 0.065 0.33081 0.68004 0.0
C1064 C 0.08849 0.30583 0.66707 0.0
C1065 C 0.12213 0.31598 0.65636 0.0
Cd1066 Cd 0.1136 0.41823 0.56784 0.0
Cd1067 Cd 0.10923 0.35702 0.47045 0.0
C1068 C 0.26628 0.32379 0.71818 0.0
C1069 C 0.27648 0.27149 0.7528 0.0
C1070 C 0.253 0.28658 0.77724 0.0
C1071 C 0.25675 0.32332 0.78142 0.0
C1072 C 0.25972 0.3422 0.74957 0.0
C1073 C 0.27664 0.28837 0.71981 0.0
Co1074 Co 0.21197 0.34813 0.66857 0.0
N1075 N 0.20696 0.38965 0.69886 0.0
N1076 N 0.19123 0.32373 0.70445 0.0
C1077 C 0.18068 0.34247 0.73215 0.0
C1078 C 0.16537 0.32459 0.76041 0.0
C1079 C 0.16216 0.28756 0.75796 0.0
C1080 C 0.17433 0.26926 0.72787 0.0
C1081 C 0.18953 0.28888 0.7007 0.0
N1082 N 0.21451 0.3026 0.64408 0.0
N1083 N 0.16756 0.36144 0.64726 0.0
N1084 N 0.25898 0.33997 0.68527 0.0
O1085 O 0.0552 0.33752 0.50273 0.0
O1086 O 0.08383 0.37508 0.53392 0.0
C1087 C 0.05796 0.46034 0.60776 0.0
O1088 O 0.06893 0.43022 0.61771 0.0
O1089 O 0.07077 0.47073 0.57847 0.0
C1090 C 0.15087 0.43264 0.50028 0.0
O1091 O 0.15181 0.45267 0.52707 0.0
O1092 O 0.12397 0.41317 0.49737 0.0
C1093 C 0.1889 0.38028 0.72866 0.0
O1094 O 0.17986 0.4034 0.75272 0.0
O1095 O 0.15141 0.3608 0.54768 0.0
O1096 O 0.15627 0.32599 0.50037 0.0
C1097 C 0.20329 0.27662 0.66642 0.0
O1098 O 0.19983 0.24382 0.65604 0.0
C1099 C 0.21729 0.29735 0.60659 0.0
C1100 C 0.19149 0.31218 0.58592 0.0
C1101 C 0.19296 0.31195 0.54975 0.0
C1102 C 0.2187 0.29008 0.53317 0.0
C1103 C 0.24423 0.27052 0.55343 0.0
C1104 C 0.24351 0.27611 0.59068 0.0
C1105 C 0.05833 0.3543 0.53137 0.0
O1106 O 0.15133 0.41327 0.61672 0.0
C1107 C 0.16579 0.33419 0.53143 0.0
C1108 C 0.21067 0.42571 0.68757 0.0
C1109 C 0.24363 0.43883 0.6778 0.0
C1110 C 0.2462 0.47068 0.65972 0.0
C1111 C 0.21601 0.49007 0.65181 0.0
C1112 C 0.18287 0.47874 0.66364 0.0
C1113 C 0.18078 0.44705 0.68272 0.0
C1114 C 0.28329 0.35343 0.66251 0.0
O1115 O 0.31721 0.35249 0.66907 0.0
H1116 H 0.31334 0.39594 0.60662 0.0
H1117 H 0.27587 0.43149 0.56559 0.0
H1118 H 0.21013 0.43003 0.57124 0.0
H1119 H 0.11514 0.40373 0.67254 0.0
H1120 H 1.03895 0.32297 0.68834 0.0
H1121 H 0.13927 0.29622 0.6455 0.0
H1122 H 0.24413 0.27091 0.79921 0.0
H1123 H 0.2585 0.37061 0.74893 0.0
H1124 H 0.28707 0.27555 0.69662 0.0
H1125 H 0.15662 0.3385 0.78364 0.0
H1126 H 0.15048 0.27303 0.77945 0.0
H1127 H 0.17191 0.24097 0.72602 0.0
H1128 H 0.1688 0.32337 0.5981 0.0
H1129 H 0.21802 0.28812 0.50487 0.0
H1130 H 0.26281 0.26412 0.60769 0.0
H1131 H 0.26724 0.424 0.68323 0.0
H1132 H 0.21885 0.51416 0.63699 0.0
H1133 H 0.15572 0.43816 0.69241 0.0
C1134 C 0.71705 0.26813 0.63236 0.0
C1135 C 0.69566 0.28496 0.60758 0.0
C1136 C 0.67535 0.26363 0.58472 0.0
C1137 C 0.67618 0.22649 0.58754 0.0
C1138 C 0.69848 0.21161 0.61265 0.0
N1139 N 0.71764 0.23302 0.63258 0.0
C1140 C 0.70246 0.17431 0.6228 0.0
C1141 C 0.73841 0.13283 0.65874 0.0
C1142 C 0.7134 0.1086 0.6712 0.0
C1143 C 0.72367 0.07501 0.68187 0.0
C1144 C 0.75889 0.06499 0.68006 0.0
C1145 C 0.78387 0.08849 0.66709 0.0
C1146 C 0.77371 0.12213 0.65637 0.0
Cd1147 Cd 0.67146 0.1136 0.56784 0.0
Cd1148 Cd 0.73266 0.10923 0.47046 0.0
C1149 C 0.7659 0.26628 0.71818 0.0
C1150 C 0.8182 0.27647 0.75281 0.0
C1151 C 0.80311 0.25299 0.77725 0.0
C1152 C 0.76636 0.25674 0.78142 0.0
C1153 C 0.74749 0.25972 0.74957 0.0
C1154 C 0.80132 0.27663 0.71982 0.0
Co1155 Co 0.74156 0.21197 0.66857 0.0
N1156 N 0.70004 0.20695 0.69887 0.0
N1157 N 0.76596 0.19122 0.70446 0.0
C1158 C 0.74721 0.18068 0.73216 0.0
C1159 C 0.7651 0.16537 0.76042 0.0
C1160 C 0.80213 0.16216 0.75797 0.0
C1161 C 0.82043 0.17433 0.72788 0.0
C1162 C 0.80081 0.18953 0.70071 0.0
N1163 N 0.78709 0.21451 0.64409 0.0
N1164 N 0.72825 0.16756 0.64727 0.0
N1165 N 0.74972 0.25898 0.68527 0.0
O1166 O 0.75217 0.0552 0.50273 0.0
O1167 O 0.71461 0.08383 0.53393 0.0
C1168 C 0.62935 0.05796 0.60777 0.0
O1169 O 0.65947 0.06893 0.61772 0.0
O1170 O 0.61896 0.07076 0.57847 0.0
C1171 C 0.65705 0.15086 0.50029 0.0
O1172 O 0.63702 0.15181 0.52708 0.0
O1173 O 0.67652 0.12397 0.49738 0.0
C1174 C 0.70941 0.1889 0.72867 0.0
O1175 O 0.68629 0.17985 0.75273 0.0
O1176 O 0.72889 0.15141 0.54768 0.0
O1177 O 0.7637 0.15627 0.50038 0.0
C1178 C 0.81307 0.20328 0.66643 0.0
O1179 O 0.84587 0.19983 0.65605 0.0
C1180 C 0.79234 0.21729 0.6066 0.0
C1181 C 0.77751 0.19149 0.58592 0.0
C1182 C 0.77774 0.19296 0.54976 0.0
C1183 C 0.79961 0.2187 0.53318 0.0
C1184 C 0.81917 0.24423 0.55343 0.0
C1185 C 0.81357 0.24351 0.59068 0.0
C1186 C 0.73539 0.05833 0.53138 0.0
O1187 O 0.67642 0.15132 0.61672 0.0
C1188 C 0.7555 0.16579 0.53144 0.0
C1189 C 0.66398 0.21067 0.68757 0.0
C1190 C 0.65086 0.24362 0.67781 0.0
C1191 C 0.61901 0.2462 0.65972 0.0
C1192 C 0.59962 0.21601 0.65181 0.0
C1193 C 0.61094 0.18286 0.66365 0.0
C1194 C 0.64264 0.18077 0.68272 0.0
C1195 C 0.73626 0.28329 0.66252 0.0
O1196 O 0.7372 0.31721 0.66907 0.0
H1197 H 0.69374 0.31333 0.60662 0.0
H1198 H 0.6582 0.27587 0.56559 0.0
H1199 H 0.65965 0.21012 0.57124 0.0
H1200 H 0.68596 0.11514 0.67255 0.0
H1201 H 0.76672 1.03895 0.68836 0.0
H1202 H 0.79347 0.13927 0.64552 0.0
H1203 H 0.81877 0.24412 0.79922 0.0
H1204 H 0.71907 0.2585 0.74893 0.0
H1205 H 0.81414 0.28707 0.69663 0.0
H1206 H 0.75119 0.15661 0.78365 0.0
H1207 H 0.81666 0.15048 0.77946 0.0
H1208 H 0.84872 0.17191 0.72604 0.0
H1209 H 0.76632 0.16879 0.59811 0.0
H1210 H 0.80157 0.21801 0.50488 0.0
H1211 H 0.82557 0.26281 0.6077 0.0
H1212 H 0.66569 0.26724 0.68323 0.0
H1213 H 0.57553 0.21884 0.63699 0.0
H1214 H 0.65153 0.15571 0.69242 0.0
C1215 C 0.82155 0.71704 0.63236 0.0
C1216 C 0.80472 0.69565 0.60757 0.0
C1217 C 0.82605 0.67534 0.58471 0.0
C1218 C 0.86319 0.67617 0.58754 0.0
C1219 C 0.87808 0.69847 0.61265 0.0
N1220 N 0.85666 0.71762 0.63258 0.0
C1221 C 0.91538 0.70245 0.6228 0.0
C1222 C 0.95686 0.73839 0.65874 0.0
C1223 C 0.98109 0.71339 0.6712 0.0
C1224 C 1.01468 0.72365 0.68187 0.0
C1225 C 1.02469 0.75886 0.68006 0.0
C1226 C 1.0012 0.78385 0.66709 0.0
C1227 C 0.96756 0.77369 0.65637 0.0
Cd1228 Cd 0.97609 0.67145 0.56784 0.0
Cd1229 Cd 0.98045 0.73265 0.47046 0.0
C1230 C 0.82341 0.76588 0.71818 0.0
C1231 C 0.81322 0.81818 0.7528 0.0
C1232 C 0.83671 0.80309 0.77724 0.0
C1233 C 0.83295 0.76634 0.78142 0.0
C1234 C 0.82997 0.74747 0.74957 0.0
C1235 C 0.81305 0.8013 0.71981 0.0
Co1236 Co 0.87771 0.74155 0.66857 0.0
N1237 N 0.88273 0.70002 0.69886 0.0
N1238 N 0.89846 0.76594 0.70446 0.0
C1239 C 0.90901 0.74719 0.73215 0.0
C1240 C 0.92433 0.76507 0.76042 0.0
C1241 C 0.92754 0.8021 0.75797 0.0
C1242 C 0.91536 0.8204 0.72788 0.0
C1243 C 0.90016 0.80079 0.70071 0.0
N1244 N 0.87518 0.78707 0.64409 0.0
N1245 N 0.92213 0.72823 0.64727 0.0
N1246 N 0.83071 0.7497 0.68527 0.0
O1247 O 1.03448 0.75215 0.50273 0.0
O1248 O 1.00586 0.7146 0.53393 0.0
C1249 C 1.03172 0.62934 0.60777 0.0
O1250 O 1.02076 0.65946 0.61771 0.0
O1251 O 1.01892 0.61895 0.57847 0.0
C1252 C 0.93882 0.65704 0.50029 0.0
O1253 O 0.93788 0.63701 0.52708 0.0
O1254 O 0.96571 0.67651 0.49738 0.0
C1255 C 0.90079 0.70939 0.72867 0.0
O1256 O 0.90983 0.68627 0.75273 0.0
O1257 O 0.93828 0.72888 0.54768 0.0
O1258 O 0.93341 0.76369 0.50037 0.0
C1259 C 0.88641 0.81305 0.66643 0.0
O1260 O 0.88986 0.84585 0.65605 0.0
C1261 C 0.8724 0.79232 0.6066 0.0
C1262 C 0.8982 0.7775 0.58592 0.0
C1263 C 0.89673 0.77773 0.54976 0.0
C1264 C 0.87099 0.7996 0.53318 0.0
C1265 C 0.84546 0.81916 0.55343 0.0
C1266 C 0.84618 0.81356 0.59068 0.0
C1267 C 1.03136 0.73538 0.53138 0.0
O1268 O 0.93836 0.67641 0.61672 0.0
C1269 C 0.92389 0.75549 0.53144 0.0
C1270 C 0.87901 0.66396 0.68757 0.0
C1271 C 0.84606 0.65084 0.6778 0.0
C1272 C 0.84349 0.61899 0.65971 0.0
C1273 C 0.87368 0.5996 0.65181 0.0
C1274 C 0.90682 0.61093 0.66364 0.0
C1275 C 0.90891 0.64262 0.68272 0.0
C1276 C 0.80639 0.73624 0.66251 0.0
O1277 O 0.77248 0.73719 0.66907 0.0
H1278 H 0.77635 0.69373 0.60661 0.0
H1279 H 0.81382 0.65819 0.56558 0.0
H1280 H 0.87956 0.65965 0.57124 0.0
H1281 H 0.97455 0.68594 0.67255 0.0
H1282 H 0.05074 0.7667 0.68836 0.0
H1283 H 0.95042 0.79345 0.64552 0.0
H1284 H 0.84558 0.81876 0.7992 0.0
H1285 H 0.83119 0.71906 0.74893 0.0
H1286 H 0.80261 0.81412 0.69662 0.0
H1287 H 0.93308 0.75116 0.78365 0.0
H1288 H 0.93922 0.81663 0.77946 0.0
H1289 H 0.91779 0.84869 0.72604 0.0
H1290 H 0.92089 0.7663 0.59811 0.0
H1291 H 0.87167 0.80156 0.50488 0.0
H1292 H 0.82688 0.82555 0.6077 0.0
H1293 H 0.82245 0.66567 0.68323 0.0
H1294 H 0.87084 0.57551 0.63699 0.0
H1295 H 0.93397 0.65151 0.69241 0.0
C1296 C 0.45737 0.37263 0.26818 0.0
C1297 C 0.48216 0.39401 0.28502 0.0
C1298 C 0.50502 0.41433 0.26369 0.0
C1299 C 0.50219 0.4135 0.22655 0.0
C1300 C 0.47708 0.39121 0.21166 0.0
N1301 N 0.45715 0.37205 0.23307 0.0
C1302 C 0.46692 0.38724 0.17436 0.0
C1303 C 0.43098 0.35131 0.13287 0.0
C1304 C 0.41852 0.37632 0.10865 0.0
C1305 C 0.40784 0.36606 0.07506 0.0
C1306 C 0.40965 0.33085 0.06503 0.0
C1307 C 0.42262 0.30587 0.08852 0.0
C1308 C 0.43334 0.31601 0.12216 0.0
Cd1309 Cd 0.52187 0.41823 0.11363 0.0
Cd1310 Cd 0.61925 0.35703 0.10926 0.0
C1311 C 0.37155 0.3238 0.26633 0.0
C1312 C 0.33692 0.27149 0.27648 0.0
C1313 C 0.31248 0.2866 0.253 0.0
C1314 C 0.30833 0.32334 0.25679 0.0
C1315 C 0.34016 0.34222 0.25979 0.0
C1316 C 0.36991 0.28837 0.27664 0.0
Co1317 Co 0.42115 0.34814 0.21202 0.0
N1318 N 0.39086 0.38967 0.20702 0.0
N1319 N 0.38527 0.32375 0.19127 0.0
C1320 C 0.35757 0.3425 0.18073 0.0
C1321 C 0.3293 0.32463 0.16542 0.0
C1322 C 0.33175 0.2876 0.16219 0.0
C1323 C 0.36184 0.26929 0.17436 0.0
C1324 C 0.38901 0.2889 0.18956 0.0
N1325 N 0.44563 0.30261 0.21454 0.0
N1326 N 0.44245 0.36146 0.16761 0.0
N1327 N 0.40446 0.33997 0.25903 0.0
O1328 O 0.58697 0.33753 0.05523 0.0
O1329 O 0.55578 0.37507 0.08387 0.0
C1330 C 0.48195 0.46034 0.05799 0.0
O1331 O 0.472 0.43022 0.06896 0.0
O1332 O 0.51124 0.47072 0.0708 0.0
C1333 C 0.58944 0.43266 0.15089 0.0
O1334 O 0.56264 0.45267 0.15183 0.0
O1335 O 0.59234 0.41318 0.124 0.0
C1336 C 0.36106 0.3803 0.18896 0.0
O1337 O 0.337 0.40343 0.17993 0.0
O1338 O 0.54203 0.3608 0.15144 0.0
O1339 O 0.58934 0.32598 0.1563 0.0
C1340 C 0.42329 0.27663 0.20331 0.0
O1341 O 0.43367 0.24384 0.19985 0.0
C1342 C 0.48312 0.29736 0.21732 0.0
C1343 C 0.50379 0.31218 0.19152 0.0
C1344 C 0.53995 0.31195 0.19299 0.0
C1345 C 0.55653 0.29007 0.21873 0.0
C1346 C 0.53628 0.27052 0.24425 0.0
C1347 C 0.49903 0.27611 0.24354 0.0
C1348 C 0.55832 0.3543 0.05837 0.0
O1349 O 0.473 0.41328 0.15138 0.0
C1350 C 0.55827 0.33419 0.16582 0.0
C1351 C 0.40217 0.42573 0.21074 0.0
C1352 C 0.41194 0.43884 0.24369 0.0
C1353 C 0.43003 0.47069 0.24626 0.0
C1354 C 0.43793 0.49008 0.21607 0.0
C1355 C 0.42608 0.47876 0.18293 0.0
C1356 C 0.407 0.44707 0.18084 0.0
C1357 C 0.42722 0.35342 0.28334 0.0
O1358 O 0.42067 0.35247 0.31726 0.0
H1359 H 0.48313 0.39592 0.3134 0.0
H1360 H 0.52416 0.43147 0.27593 0.0
H1361 H 0.51849 0.43003 0.21018 0.0
H1362 H 0.41717 0.40376 0.11519 0.0
H1363 H 0.40134 0.32302 1.03899 0.0
H1364 H 0.4442 0.29625 0.1393 0.0
H1365 H 0.2905 0.27095 0.24412 0.0
H1366 H 0.3408 0.37063 0.25859 0.0
H1367 H 0.3931 0.27553 0.28706 0.0
H1368 H 0.30608 0.33855 0.15667 0.0
H1369 H 0.31026 0.27308 0.1505 0.0
H1370 H 0.36368 0.241 0.17192 0.0
H1371 H 0.4916 0.32338 0.16883 0.0
H1372 H 0.58483 0.28811 0.21804 0.0
H1373 H 0.48202 0.26412 0.26284 0.0
H1374 H 0.40653 0.42401 0.2673 0.0
H1375 H 0.45274 0.51417 0.2189 0.0
H1376 H 0.3973 0.43818 0.15578 0.0
C1377 C 0.45737 0.71706 0.82157 0.0
C1378 C 0.48215 0.69568 0.80473 0.0
C1379 C 0.50501 0.67536 0.82605 0.0
C1380 C 0.50219 0.67618 0.8632 0.0
C1381 C 0.47708 0.69848 0.87809 0.0
N1382 N 0.45715 0.71763 0.85668 0.0
C1383 C 0.46693 0.70244 0.91539 0.0
C1384 C 0.43099 0.73838 0.95688 0.0
C1385 C 0.41853 0.71336 0.9811 0.0
C1386 C 0.40786 0.72362 1.0147 0.0
C1387 C 0.40967 0.75883 1.02472 0.0
C1388 C 0.42263 0.78382 1.00123 0.0
C1389 C 0.43335 0.77367 0.96759 0.0
Cd1390 Cd 0.52188 0.67145 0.97611 0.0
Cd1391 Cd 0.61925 0.73265 0.98049 0.0
C1392 C 0.37155 0.76589 0.82343 0.0
C1393 C 0.33692 0.8182 0.81326 0.0
C1394 C 0.31248 0.8031 0.83674 0.0
C1395 C 0.30833 0.76635 0.83296 0.0
C1396 C 0.34016 0.74747 0.82996 0.0
C1397 C 0.36991 0.80133 0.8131 0.0
Co1398 Co 0.42116 0.74155 0.87773 0.0
N1399 N 0.39086 0.70002 0.88274 0.0
N1400 N 0.38527 0.76594 0.89848 0.0
C1401 C 0.35757 0.74719 0.90902 0.0
C1402 C 0.32931 0.76506 0.92433 0.0
C1403 C 0.33176 0.8021 0.92755 0.0
C1404 C 0.36185 0.8204 0.91539 0.0
C1405 C 0.38902 0.80079 0.90019 0.0
N1406 N 0.44564 0.78708 0.87521 0.0
N1407 N 0.44246 0.72822 0.92214 0.0
N1408 N 0.40446 0.74972 0.83072 0.0
O1409 O 0.58697 0.75215 1.03452 0.0
O1410 O 0.55579 0.71461 1.00588 0.0
C1411 C 0.48195 0.62934 1.03176 0.0
O1412 O 0.47201 0.65946 1.02079 0.0
O1413 O 0.51125 0.61896 1.01896 0.0
C1414 C 0.58945 0.65702 0.93886 0.0
O1415 O 0.56265 0.63701 0.93791 0.0
O1416 O 0.59235 0.6765 0.96575 0.0
C1417 C 0.36106 0.70939 0.90079 0.0
O1418 O 0.337 0.68627 0.90982 0.0
O1419 O 0.54204 0.72888 0.93831 0.0
O1420 O 0.58934 0.76369 0.93345 0.0
C1421 C 0.4233 0.81306 0.88644 0.0
O1422 O 0.43368 0.84585 0.8899 0.0
C1423 C 0.48312 0.79233 0.87243 0.0
C1424 C 0.5038 0.7775 0.89823 0.0
C1425 C 0.53996 0.77773 0.89676 0.0
C1426 C 0.55654 0.79961 0.87102 0.0
C1427 C 0.53629 0.81917 0.84549 0.0
C1428 C 0.49904 0.81357 0.84621 0.0
C1429 C 0.55833 0.73538 1.03137 0.0
O1430 O 0.47301 0.6764 0.93837 0.0
C1431 C 0.55828 0.75549 0.92393 0.0
C1432 C 0.40216 0.66396 0.87902 0.0
C1433 C 0.41194 0.65085 0.84606 0.0
C1434 C 0.43002 0.619 0.84349 0.0
C1435 C 0.43792 0.5996 0.87369 0.0
C1436 C 0.42608 0.61093 0.90683 0.0
C1437 C 0.407 0.64262 0.90891 0.0
C1438 C 0.42721 0.73627 0.80641 0.0
O1439 O 0.42066 0.73722 0.77249 0.0
H1440 H 0.48312 0.69377 0.77635 0.0
H1441 H 0.52415 0.65822 0.81382 0.0
H1442 H 0.51849 0.65966 0.87957 0.0
H1443 H 0.41718 0.68592 0.97456 0.0
H1444 H 0.40137 0.76666 0.05076 0.0
H1445 H 0.44421 0.79344 0.95046 0.0
H1446 H 0.2905 0.81875 0.84561 0.0
H1447 H 0.3408 0.71906 0.83116 0.0
H1448 H 0.3931 0.81416 0.80268 0.0
H1449 H 0.30608 0.75115 0.93308 0.0
H1450 H 0.31027 0.81662 0.93924 0.0
H1451 H 0.36369 0.84869 0.91782 0.0
H1452 H 0.49161 0.7663 0.92092 0.0
H1453 H 0.58484 0.80157 0.87171 0.0
H1454 H 0.48202 0.82556 0.82691 0.0
H1455 H 0.40652 0.66568 0.82245 0.0
H1456 H 0.45274 0.57552 0.87085 0.0
H1457 H 0.3973 0.65151 0.93397 0.0
C1458 C 0.37263 0.45736 0.82156 0.0
C1459 C 0.39401 0.48215 0.80472 0.0
C1460 C 0.41433 0.50501 0.82605 0.0
C1461 C 0.41351 0.50218 0.86319 0.0
C1462 C 0.39121 0.47707 0.87808 0.0
N1463 N 0.37205 0.45714 0.85667 0.0
C1464 C 0.38725 0.46691 0.91538 0.0
C1465 C 0.35131 0.43097 0.95687 0.0
C1466 C 0.37633 0.41851 0.98109 0.0
C1467 C 0.36607 0.40784 1.01469 0.0
C1468 C 0.33086 0.40964 1.02471 0.0
C1469 C 0.30587 0.42261 1.00122 0.0
C1470 C 0.31602 0.43333 0.96758 0.0
Cd1471 Cd 0.41824 0.52186 0.97611 0.0
Cd1472 Cd 0.35704 0.61924 0.98048 0.0
C1473 C 0.3238 0.37154 0.82342 0.0
C1474 C 0.27149 0.3369 0.81326 0.0
C1475 C 0.2866 0.31246 0.83674 0.0
C1476 C 0.32335 0.30832 0.83295 0.0
C1477 C 0.34222 0.34015 0.82995 0.0
C1478 C 0.28836 0.36989 0.8131 0.0
Co1479 Co 0.34814 0.42114 0.87772 0.0
N1480 N 0.38967 0.39085 0.88273 0.0
N1481 N 0.32375 0.38526 0.89847 0.0
C1482 C 0.34251 0.35756 0.90901 0.0
C1483 C 0.32463 0.3293 0.92433 0.0
C1484 C 0.2876 0.33174 0.92755 0.0
C1485 C 0.26929 0.36183 0.91538 0.0
C1486 C 0.2889 0.389 0.90018 0.0
N1487 N 0.30261 0.44562 0.8752 0.0
N1488 N 0.36147 0.44244 0.92214 0.0
N1489 N 0.33997 0.40445 0.83071 0.0
O1490 O 0.33754 0.58696 1.03451 0.0
O1491 O 0.37508 0.55577 1.00587 0.0
C1492 C 0.46035 0.48194 1.03175 0.0
O1493 O 0.43023 0.47199 1.02078 0.0
O1494 O 0.47073 0.51123 1.01895 0.0
C1495 C 0.43265 0.58942 0.93884 0.0
O1496 O 0.45269 0.56263 0.9379 0.0
O1497 O 0.41318 0.59233 0.96574 0.0
C1498 C 0.3803 0.36105 0.90078 0.0
O1499 O 0.40343 0.33699 0.90981 0.0
O1500 O 0.36081 0.54202 0.9383 0.0
O1501 O 0.32599 0.58933 0.93345 0.0
C1502 C 0.27663 0.42328 0.88643 0.0
O1503 O 0.24384 0.43366 0.8899 0.0
C1504 C 0.29736 0.48311 0.87243 0.0
C1505 C 0.31219 0.50378 0.89823 0.0
C1506 C 0.31196 0.53994 0.89676 0.0
C1507 C 0.29008 0.55652 0.87102 0.0
C1508 C 0.27052 0.53627 0.84549 0.0
C1509 C 0.27612 0.49902 0.84621 0.0
C1510 C 0.35431 0.55831 1.03137 0.0
O1511 O 0.41329 0.473 0.93836 0.0
C1512 C 0.3342 0.55826 0.92392 0.0
C1513 C 0.42573 0.40215 0.87901 0.0
C1514 C 0.43884 0.41193 0.84605 0.0
C1515 C 0.47069 0.43002 0.84348 0.0
C1516 C 0.49009 0.43791 0.87367 0.0
C1517 C 0.47877 0.42607 0.90682 0.0
C1518 C 0.44708 0.40699 0.9089 0.0
C1519 C 0.35342 0.42721 0.8064 0.0
O1520 O 0.35247 0.42065 0.77248 0.0
H1521 H 0.39592 0.48311 0.77635 0.0
H1522 H 0.43147 0.52414 0.81381 0.0
H1523 H 0.43003 0.51848 0.87956 0.0
H1524 H 0.40377 0.41716 0.97455 0.0
H1525 H 0.32303 0.40134 0.05075 0.0
H1526 H 0.29625 0.44419 0.95045 0.0
H1527 H 0.27096 0.29049 0.84561 0.0
H1528 H 0.37064 0.3408 0.83115 0.0
H1529 H 0.27553 0.39308 0.80268 0.0
H1530 H 0.33855 0.30607 0.93307 0.0
H1531 H 0.27308 0.31025 0.93924 0.0
H1532 H 0.241 0.36367 0.91782 0.0
H1533 H 0.32339 0.4916 0.92092 0.0
H1534 H 0.28812 0.58482 0.87171 0.0
H1535 H 0.26413 0.48201 0.82691 0.0
H1536 H 0.42401 0.40651 0.82244 0.0
H1537 H 0.51417 0.45273 0.87084 0.0
H1538 H 0.43819 0.39729 0.93396 0.0
C1539 C 0.63233 0.37263 0.82156 0.0
C1540 C 0.60754 0.39401 0.80473 0.0
C1541 C 0.58468 0.41432 0.82605 0.0
C1542 C 0.58751 0.4135 0.8632 0.0
C1543 C 0.61262 0.39121 0.87809 0.0
N1544 N 0.63255 0.37205 0.85668 0.0
C1545 C 0.62278 0.38724 0.91539 0.0
C1546 C 0.65872 0.3513 0.95688 0.0
C1547 C 0.67118 0.37631 0.9811 0.0
C1548 C 0.68185 0.36605 1.01469 0.0
C1549 C 0.68005 0.33084 1.02472 0.0
C1550 C 0.66707 0.30585 1.00123 0.0
C1551 C 0.65636 0.316 0.96758 0.0
Cd1552 Cd 0.56782 0.41823 0.97611 0.0
Cd1553 Cd 0.47044 0.35703 0.98046 0.0
C1554 C 0.71815 0.32379 0.82342 0.0
C1555 C 0.75278 0.27149 0.81327 0.0
C1556 C 0.77722 0.28659 0.83674 0.0
C1557 C 0.78137 0.32334 0.83296 0.0
C1558 C 0.74954 0.34222 0.82996 0.0
C1559 C 0.71979 0.28836 0.8131 0.0
Co1560 Co 0.66854 0.34813 0.87773 0.0
N1561 N 0.69884 0.38967 0.88274 0.0
N1562 N 0.70443 0.32375 0.89848 0.0
C1563 C 0.73213 0.3425 0.90902 0.0
C1564 C 0.76039 0.32462 0.92434 0.0
C1565 C 0.75795 0.28759 0.92756 0.0
C1566 C 0.72786 0.26929 0.91539 0.0
C1567 C 0.70069 0.28889 0.90018 0.0
N1568 N 0.64407 0.3026 0.8752 0.0
N1569 N 0.64725 0.36146 0.92214 0.0
N1570 N 0.68524 0.33997 0.83072 0.0
O1571 O 0.50271 0.33753 1.0345 0.0
O1572 O 0.53391 0.37508 1.00588 0.0
C1573 C 0.60775 0.46034 1.03175 0.0
O1574 O 0.61769 0.43022 1.02078 0.0
O1575 O 0.57845 0.47073 1.01894 0.0
C1576 C 0.50027 0.43265 0.93883 0.0
O1577 O 0.52706 0.45268 0.93789 0.0
O1578 O 0.49736 0.41318 0.96573 0.0
C1579 C 0.72864 0.3803 0.90079 0.0
O1580 O 0.7527 0.40342 0.90982 0.0
O1581 O 0.54766 0.3608 0.9383 0.0
O1582 O 0.50036 0.32599 0.93344 0.0
C1583 C 0.66641 0.27663 0.88644 0.0
O1584 O 0.65603 0.24383 0.8899 0.0
C1585 C 0.60658 0.29735 0.87243 0.0
C1586 C 0.58591 0.31218 0.89823 0.0
C1587 C 0.54974 0.31195 0.89675 0.0
C1588 C 0.53317 0.29007 0.87101 0.0
C1589 C 0.55342 0.27051 0.84549 0.0
C1590 C 0.59067 0.27611 0.84621 0.0
C1591 C 0.53135 0.35431 1.03138 0.0
O1592 O 0.6167 0.41328 0.93837 0.0
C1593 C 0.53142 0.33419 0.92392 0.0
C1594 C 0.68754 0.42572 0.87902 0.0
C1595 C 0.67776 0.43884 0.84606 0.0
C1596 C 0.65967 0.47069 0.84349 0.0
C1597 C 0.65178 0.49008 0.87368 0.0
C1598 C 0.66362 0.47876 0.90683 0.0
C1599 C 0.6827 0.44707 0.90891 0.0
C1600 C 0.66248 0.35342 0.80641 0.0
O1601 O 0.66903 0.35248 0.77249 0.0
H1602 H 0.60658 0.39592 0.77635 0.0
H1603 H 0.56555 0.43147 0.81382 0.0
H1604 H 0.57121 0.43002 0.87957 0.0
H1605 H 0.67253 0.40375 0.97456 0.0
H1606 H 0.68835 0.32301 0.05076 0.0
H1607 H 0.6455 0.29624 0.95045 0.0
H1608 H 0.79919 0.27094 0.84562 0.0
H1609 H 0.7489 0.37063 0.83116 0.0
H1610 H 0.6966 0.27553 0.80268 0.0
H1611 H 0.78362 0.33854 0.93308 0.0
H1612 H 0.77944 0.27307 0.93924 0.0
H1613 H 0.72602 0.241 0.91782 0.0
H1614 H 0.59809 0.32338 0.92092 0.0
H1615 H 0.50486 0.28811 0.8717 0.0
H1616 H 0.60768 0.26412 0.82691 0.0
H1617 H 0.68318 0.42401 0.82245 0.0
H1618 H 0.63696 0.51417 0.87085 0.0
H1619 H 0.6924 0.43818 0.93397 0.0
C1620 C 0.71706 0.63233 0.82157 0.0
C1621 C 0.69568 0.60754 0.80473 0.0
C1622 C 0.67536 0.58468 0.82606 0.0
C1623 C 0.67619 0.58751 0.8632 0.0
C1624 C 0.69848 0.61262 0.87809 0.0
N1625 N 0.71764 0.63255 0.85668 0.0
C1626 C 0.70246 0.62277 0.91539 0.0
C1627 C 0.7384 0.65871 0.95688 0.0
C1628 C 0.71339 0.67116 0.98111 0.0
C1629 C 0.72365 0.68183 1.0147 0.0
C1630 C 0.75886 0.68002 1.02472 0.0
C1631 C 0.78385 0.66706 1.00123 0.0
C1632 C 0.77369 0.65634 0.96759 0.0
Cd1633 Cd 0.67146 0.56782 0.97611 0.0
Cd1634 Cd 0.73266 0.47044 0.98048 0.0
C1635 C 0.7659 0.71814 0.82343 0.0
C1636 C 0.81821 0.75277 0.81326 0.0
C1637 C 0.80311 0.77721 0.83674 0.0
C1638 C 0.76636 0.78137 0.83296 0.0
C1639 C 0.74748 0.74953 0.82997 0.0
C1640 C 0.80133 0.71978 0.8131 0.0
Co1641 Co 0.74156 0.66854 0.87773 0.0
N1642 N 0.70003 0.69883 0.88274 0.0
N1643 N 0.76595 0.70442 0.89848 0.0
C1644 C 0.74721 0.73212 0.90902 0.0
C1645 C 0.76508 0.76038 0.92434 0.0
C1646 C 0.80212 0.75793 0.92755 0.0
C1647 C 0.82042 0.72784 0.91539 0.0
C1648 C 0.80081 0.70068 0.90018 0.0
N1649 N 0.78709 0.64406 0.8752 0.0
N1650 N 0.72824 0.64724 0.92215 0.0
N1651 N 0.74973 0.68523 0.83072 0.0
O1652 O 0.75216 0.50272 1.03452 0.0
O1653 O 0.71461 0.53391 1.00587 0.0
C1654 C 0.62934 0.60774 1.03175 0.0
O1655 O 0.65946 0.61769 1.02078 0.0
O1656 O 0.61896 0.57845 1.01895 0.0
C1657 C 0.65704 0.50026 0.93884 0.0
O1658 O 0.63701 0.52705 0.9379 0.0
O1659 O 0.67651 0.49736 0.96574 0.0
C1660 C 0.70941 0.72863 0.90079 0.0
O1661 O 0.68628 0.75269 0.90983 0.0
O1662 O 0.72889 0.54766 0.9383 0.0
O1663 O 0.7637 0.50035 0.93345 0.0
C1664 C 0.81307 0.66639 0.88644 0.0
O1665 O 0.84586 0.65601 0.8899 0.0
C1666 C 0.79234 0.60657 0.87243 0.0
C1667 C 0.77751 0.58589 0.89823 0.0
C1668 C 0.77774 0.54973 0.89675 0.0
C1669 C 0.79961 0.53316 0.87102 0.0
C1670 C 0.81917 0.55341 0.84549 0.0
C1671 C 0.81358 0.59065 0.84621 0.0
C1672 C 0.73539 0.53137 1.03137 0.0
O1673 O 0.67641 0.61669 0.93837 0.0
C1674 C 0.7555 0.53141 0.92392 0.0
C1675 C 0.66397 0.68753 0.87902 0.0
C1676 C 0.65086 0.67776 0.84607 0.0
C1677 C 0.619 0.65967 0.8435 0.0
C1678 C 0.59962 0.65177 0.8737 0.0
C1679 C 0.61094 0.66361 0.90684 0.0
C1680 C 0.64263 0.68269 0.90892 0.0
C1681 C 0.73627 0.66248 0.80641 0.0
O1682 O 0.73721 0.66903 0.77249 0.0
H1683 H 0.69376 0.60658 0.77636 0.0
H1684 H 0.65821 0.56555 0.81382 0.0
H1685 H 0.65966 0.57121 0.87957 0.0
H1686 H 0.68595 0.67251 0.97456 0.0
H1687 H 0.7667 0.68832 0.05076 0.0
H1688 H 0.79346 0.64548 0.95045 0.0
H1689 H 0.81876 0.79919 0.84561 0.0
H1690 H 0.71907 0.74889 0.83117 0.0
H1691 H 0.81416 0.69659 0.80268 0.0
H1692 H 0.75117 0.78361 0.93308 0.0
H1693 H 0.81664 0.77942 0.93924 0.0
H1694 H 0.84871 0.726 0.91782 0.0
H1695 H 0.76631 0.59808 0.92092 0.0
H1696 H 0.80158 0.50485 0.8717 0.0
H1697 H 0.82557 0.60767 0.82691 0.0
H1698 H 0.66568 0.68318 0.82245 0.0
H1699 H 0.57553 0.63695 0.87086 0.0
H1700 H 0.65153 0.69239 0.93398 0.0
C1701 C 0.63232 0.71706 0.26818 0.0
C1702 C 0.60754 0.69567 0.28501 0.0
C1703 C 0.58468 0.67536 0.26368 0.0
C1704 C 0.5875 0.67618 0.22654 0.0
C1705 C 0.61261 0.69848 0.21165 0.0
N1706 N 0.63255 0.71763 0.23306 0.0
C1707 C 0.62277 0.70244 0.17435 0.0
C1708 C 0.65871 0.73838 0.13286 0.0
C1709 C 0.67117 0.71337 0.10864 0.0
C1710 C 0.68184 0.72363 0.07505 0.0
C1711 C 0.68003 0.75884 0.06503 0.0
C1712 C 0.66707 0.78382 0.08851 0.0
C1713 C 0.65635 0.77368 0.12216 0.0
Cd1714 Cd 0.56782 0.67145 0.11363 0.0
Cd1715 Cd 0.47044 0.73265 0.10925 0.0
C1716 C 0.71814 0.76589 0.26632 0.0
C1717 C 0.75278 0.8182 0.27648 0.0
C1718 C 0.77722 0.8031 0.25301 0.0
C1719 C 0.78137 0.76635 0.25679 0.0
C1720 C 0.74953 0.74747 0.25978 0.0
C1721 C 0.71978 0.80132 0.27664 0.0
Co1722 Co 0.66854 0.74155 0.21201 0.0
N1723 N 0.69883 0.70002 0.20701 0.0
N1724 N 0.70442 0.76594 0.19126 0.0
C1725 C 0.73212 0.74719 0.18073 0.0
C1726 C 0.76038 0.76506 0.16541 0.0
C1727 C 0.75794 0.8021 0.16219 0.0
C1728 C 0.72785 0.8204 0.17436 0.0
C1729 C 0.70068 0.80079 0.18956 0.0
N1730 N 0.64406 0.78708 0.21454 0.0
N1731 N 0.64724 0.72823 0.1676 0.0
N1732 N 0.68523 0.74972 0.25902 0.0
O1733 O 0.50271 0.75215 0.05522 0.0
O1734 O 0.5339 0.7146 0.08386 0.0
C1735 C 0.60774 0.62934 0.05799 0.0
O1736 O 0.61768 0.65946 0.06895 0.0
O1737 O 0.57845 0.61895 0.07079 0.0
C1738 C 0.50025 0.65702 0.15088 0.0
O1739 O 0.52705 0.63701 0.15183 0.0
O1740 O 0.49735 0.6765 0.12399 0.0
C1741 C 0.72863 0.70939 0.18896 0.0
O1742 O 0.75269 0.68627 0.17992 0.0
O1743 O 0.54766 0.72888 0.15143 0.0
O1744 O 0.50035 0.76369 0.15629 0.0
C1745 C 0.6664 0.81306 0.2033 0.0
O1746 O 0.65602 0.84585 0.19984 0.0
C1747 C 0.60657 0.79233 0.21731 0.0
C1748 C 0.5859 0.7775 0.19151 0.0
C1749 C 0.54974 0.77773 0.19298 0.0
C1750 C 0.53316 0.79961 0.21872 0.0
C1751 C 0.55341 0.81917 0.24425 0.0
C1752 C 0.59066 0.81357 0.24353 0.0
C1753 C 0.53135 0.73538 0.05836 0.0
O1754 O 0.61669 0.6764 0.15137 0.0
C1755 C 0.53141 0.75549 0.16582 0.0
C1756 C 0.68753 0.66396 0.21073 0.0
C1757 C 0.67775 0.65085 0.24368 0.0
C1758 C 0.65967 0.61899 0.24625 0.0
C1759 C 0.65177 0.5996 0.21606 0.0
C1760 C 0.66362 0.61092 0.18292 0.0
C1761 C 0.68269 0.64262 0.18083 0.0
C1762 C 0.66248 0.73626 0.28334 0.0
O1763 O 0.66903 0.73721 0.31726 0.0
H1764 H 0.60657 0.69376 0.31339 0.0
H1765 H 0.56554 0.65821 0.27592 0.0
H1766 H 0.5712 0.65966 0.21017 0.0
H1767 H 0.67251 0.68593 0.11519 0.0
H1768 H 0.68833 0.76667 1.03898 0.0
H1769 H 0.64549 0.79344 0.13929 0.0
H1770 H 0.79919 0.81875 0.24414 0.0
H1771 H 0.74889 0.71906 0.25858 0.0
H1772 H 0.69659 0.81415 0.28706 0.0
H1773 H 0.78361 0.75115 0.15667 0.0
H1774 H 0.77943 0.81662 0.15051 0.0
H1775 H 0.72601 0.84869 0.17192 0.0
H1776 H 0.59808 0.76631 0.16882 0.0
H1777 H 0.50486 0.80157 0.21803 0.0
H1778 H 0.60767 0.82556 0.26283 0.0
H1779 H 0.68317 0.66568 0.26729 0.0
H1780 H 0.63696 0.57551 0.21889 0.0
H1781 H 0.6924 0.65151 0.15577 0.0
C1782 C 0.37263 0.63232 0.26817 0.0
C1783 C 0.39402 0.60754 0.28501 0.0
C1784 C 0.41433 0.58468 0.26368 0.0
C1785 C 0.41351 0.58751 0.22654 0.0
C1786 C 0.39121 0.61262 0.21165 0.0
N1787 N 0.37205 0.63255 0.23306 0.0
C1788 C 0.38724 0.62277 0.17435 0.0
C1789 C 0.35129 0.65871 0.13286 0.0
C1790 C 0.3763 0.67117 0.10863 0.0
C1791 C 0.36604 0.68184 0.07504 0.0
C1792 C 0.33083 0.68003 0.06502 0.0
C1793 C 0.30584 0.66706 0.08851 0.0
C1794 C 0.316 0.65634 0.12216 0.0
Cd1795 Cd 0.41824 0.56782 0.11363 0.0
Cd1796 Cd 0.35704 0.47044 0.10927 0.0
C1797 C 0.32379 0.71814 0.26632 0.0
C1798 C 0.27149 0.75277 0.27648 0.0
C1799 C 0.28659 0.77721 0.253 0.0
C1800 C 0.32333 0.78136 0.25678 0.0
C1801 C 0.34221 0.74953 0.25978 0.0
C1802 C 0.28836 0.71978 0.27664 0.0
Co1803 Co 0.34813 0.66854 0.21201 0.0
N1804 N 0.38966 0.69883 0.207 0.0
N1805 N 0.32374 0.70442 0.19126 0.0
C1806 C 0.34249 0.73212 0.18072 0.0
C1807 C 0.32461 0.76038 0.16541 0.0
C1808 C 0.28758 0.75794 0.16219 0.0
C1809 C 0.26928 0.72784 0.17435 0.0
C1810 C 0.28889 0.70068 0.18956 0.0
N1811 N 0.3026 0.64406 0.21454 0.0
N1812 N 0.36145 0.64724 0.16759 0.0
N1813 N 0.33997 0.68523 0.25902 0.0
O1814 O 0.33754 0.5027 0.05523 0.0
O1815 O 0.37509 0.5339 0.08386 0.0
C1816 C 0.46035 0.60774 0.05799 0.0
O1817 O 0.43023 0.61769 0.06896 0.0
O1818 O 0.47074 0.57845 0.0708 0.0
C1819 C 0.43266 0.50027 0.15091 0.0
O1820 O 0.45269 0.52706 0.15185 0.0
O1821 O 0.41318 0.49736 0.12401 0.0
C1822 C 0.38029 0.72863 0.18895 0.0
O1823 O 0.40341 0.75269 0.17991 0.0
O1824 O 0.36081 0.54766 0.15144 0.0
O1825 O 0.326 0.50035 0.1563 0.0
C1826 C 0.27663 0.66639 0.2033 0.0
O1827 O 0.24383 0.65602 0.19984 0.0
C1828 C 0.29735 0.60657 0.21731 0.0
C1829 C 0.31218 0.5859 0.19151 0.0
C1830 C 0.31196 0.54974 0.19299 0.0
C1831 C 0.29008 0.53316 0.21873 0.0
C1832 C 0.27052 0.55341 0.24425 0.0
C1833 C 0.27611 0.59066 0.24353 0.0
C1834 C 0.35432 0.53134 0.05836 0.0
O1835 O 0.41328 0.61669 0.15137 0.0
C1836 C 0.3342 0.53142 0.16582 0.0
C1837 C 0.42572 0.68753 0.21072 0.0
C1838 C 0.43884 0.67776 0.24367 0.0
C1839 C 0.47069 0.65967 0.24624 0.0
C1840 C 0.49008 0.65177 0.21605 0.0
C1841 C 0.47875 0.66361 0.1829 0.0
C1842 C 0.44706 0.68269 0.18082 0.0
C1843 C 0.35343 0.66248 0.28333 0.0
O1844 O 0.35248 0.66903 0.31725 0.0
H1845 H 0.39593 0.60657 0.31338 0.0
H1846 H 0.43148 0.56555 0.27591 0.0
H1847 H 0.43003 0.5712 0.21017 0.0
H1848 H 0.40375 0.67252 0.11518 0.0
H1849 H 0.32299 0.68833 1.03898 0.0
H1850 H 0.29623 0.64549 0.13929 0.0
H1851 H 0.27094 0.79918 0.24413 0.0
H1852 H 0.37063 0.74889 0.25858 0.0
H1853 H 0.27553 0.69659 0.28706 0.0
H1854 H 0.33853 0.78361 0.15666 0.0
H1855 H 0.27306 0.77943 0.1505 0.0
H1856 H 0.24099 0.726 0.17192 0.0
H1857 H 0.32338 0.59808 0.16882 0.0
H1858 H 0.28812 0.50485 0.21804 0.0
H1859 H 0.26412 0.60767 0.26283 0.0
H1860 H 0.42401 0.68318 0.26729 0.0
H1861 H 0.51416 0.63695 0.21888 0.0
H1862 H 0.43817 0.69239 0.15576 0.0
C1863 C 0.71707 0.45736 0.26817 0.0
C1864 C 0.69568 0.48214 0.28501 0.0
C1865 C 0.67537 0.505 0.26368 0.0
C1866 C 0.67619 0.50217 0.22654 0.0
C1867 C 0.69849 0.47706 0.21165 0.0
N1868 N 0.71764 0.45713 0.23306 0.0
C1869 C 0.70245 0.46691 0.17435 0.0
C1870 C 0.73839 0.43097 0.13286 0.0
C1871 C 0.71338 0.41852 0.10864 0.0
C1872 C 0.72364 0.40784 0.07504 0.0
C1873 C 0.75885 0.40965 0.06502 0.0
C1874 C 0.78384 0.42262 0.08852 0.0
C1875 C 0.77369 0.43334 0.12216 0.0
Cd1876 Cd 0.67146 0.52187 0.11363 0.0
Cd1877 Cd 0.73265 0.61925 0.10927 0.0
C1878 C 0.7659 0.37154 0.26632 0.0
C1879 C 0.81821 0.3369 0.27648 0.0
C1880 C 0.8031 0.31246 0.253 0.0
C1881 C 0.76635 0.30831 0.25679 0.0
C1882 C 0.74748 0.34015 0.25978 0.0
C1883 C 0.80133 0.36989 0.27664 0.0
Co1884 Co 0.74156 0.42114 0.21201 0.0
N1885 N 0.70003 0.39085 0.207 0.0
N1886 N 0.76595 0.38526 0.19126 0.0
C1887 C 0.7472 0.35756 0.18072 0.0
C1888 C 0.76508 0.3293 0.16541 0.0
C1889 C 0.80211 0.33175 0.16219 0.0
C1890 C 0.82041 0.36184 0.17436 0.0
C1891 C 0.80081 0.389 0.18956 0.0
N1892 N 0.78709 0.44562 0.21454 0.0
N1893 N 0.72824 0.44244 0.1676 0.0
N1894 N 0.74973 0.40445 0.25902 0.0
O1895 O 0.75215 0.58698 0.05523 0.0
O1896 O 0.71461 0.55578 0.08386 0.0
C1897 C 0.62935 0.48194 0.05799 0.0
O1898 O 0.65947 0.472 0.06895 0.0
O1899 O 0.61896 0.51124 0.07079 0.0
C1900 C 0.65704 0.58942 0.1509 0.0
O1901 O 0.63701 0.56263 0.15184 0.0
O1902 O 0.67651 0.59233 0.12401 0.0
C1903 C 0.7094 0.36105 0.18895 0.0
O1904 O 0.68628 0.33699 0.17992 0.0
O1905 O 0.72889 0.54203 0.15144 0.0
O1906 O 0.7637 0.58933 0.1563 0.0
C1907 C 0.81307 0.42329 0.20331 0.0
O1908 O 0.84586 0.43367 0.19985 0.0
C1909 C 0.79234 0.48311 0.21731 0.0
C1910 C 0.77751 0.50379 0.19151 0.0
C1911 C 0.77774 0.53995 0.19299 0.0
C1912 C 0.79961 0.55652 0.21872 0.0
C1913 C 0.81917 0.53628 0.24425 0.0
C1914 C 0.81358 0.49903 0.24353 0.0
C1915 C 0.73538 0.55834 0.05836 0.0
O1916 O 0.67641 0.47299 0.15137 0.0
C1917 C 0.7555 0.55827 0.16582 0.0
C1918 C 0.66397 0.40215 0.21072 0.0
C1919 C 0.65086 0.41192 0.24367 0.0
C1920 C 0.61901 0.43001 0.24624 0.0
C1921 C 0.59962 0.43791 0.21605 0.0
C1922 C 0.61094 0.42607 0.18291 0.0
C1923 C 0.64263 0.40699 0.18082 0.0
C1924 C 0.73627 0.4272 0.28333 0.0
O1925 O 0.73722 0.42065 0.31725 0.0
H1926 H 0.69377 0.4831 0.31338 0.0
H1927 H 0.65822 0.52413 0.27592 0.0
H1928 H 0.65967 0.51848 0.21017 0.0
H1929 H 0.68594 0.41717 0.11518 0.0
H1930 H 0.76669 0.40136 1.03898 0.0
H1931 H 0.79345 0.4442 0.13929 0.0
H1932 H 0.81875 0.29049 0.24413 0.0
H1933 H 0.71906 0.34079 0.25858 0.0
H1934 H 0.81417 0.39308 0.28706 0.0
H1935 H 0.75117 0.30607 0.15666 0.0
H1936 H 0.81664 0.31025 0.15051 0.0
H1937 H 0.8487 0.36368 0.17193 0.0
H1938 H 0.76631 0.4916 0.16882 0.0
H1939 H 0.80158 0.58483 0.21804 0.0
H1940 H 0.82557 0.48201 0.26283 0.0
H1941 H 0.66569 0.4065 0.26729 0.0
H1942 H 0.57553 0.45273 0.21889 0.0
H1943 H 0.65152 0.39729 0.15576 0.0
loop_
_geom_bond_atom_site_label_1
_geom_bond_atom_site_label_2
_geom_bond_distance
_geom_bond_site_symmetry_2
_ccdc_geom_bond_type
C0 C1 1.359 . S
C0 N5 1.330 . S
C0 C61 1.504 . S
C1 C0 1.359 . S
C1 C2 1.366 . S
C1 H63 0.929 . S
C2 C1 1.366 . S
C2 C3 1.415 . S
C2 H64 0.932 . S
C3 C2 1.415 . S
C3 C4 1.366 . S
C3 H65 0.931 . S
C4 C3 1.366 . S
C4 N5 1.325 . S
C4 C6 1.516 . S
N5 C0 1.330 . S
N5 C4 1.325 . S
N5 Co21 1.869 . S
C6 C4 1.516 . S
C6 N30 1.316 . S
C6 O53 1.263 . S
C7 C8 1.421 . S
C7 C12 1.360 . S
C7 N30 1.436 . S
C8 C7 1.421 . S
C8 C9 1.379 . S
C8 H66 0.929 . S
C9 C8 1.379 . S
C9 C10 1.417 . S
C10 C9 1.417 . S
C10 C11 1.352 . S
C10 H67 0.929 . S
C11 C10 1.352 . S
C11 C12 1.393 . S
C12 C7 1.360 . S
C12 C11 1.393 . S
C12 H68 0.931 . S
Cd13 O33 2.329 . S
Cd13 O35 2.350 . S
Cd13 O36 2.277 . S
Cd13 O38 2.173 . S
Cd13 O42 2.263 . S
Cd13 O53 2.366 . S
Cd14 O32 2.352 . S
Cd14 O39 2.250 . S
Cd14 O43 2.308 . S
C15 C19 1.403 . S
C15 C20 1.370 . S
C15 N31 1.423 . S
C16 C17 1.389 . S
C16 C20 1.389 . S
C17 C16 1.389 . S
C17 C18 1.379 . S
C17 H69 0.929 . S
C18 C17 1.379 . S
C18 C19 1.405 . S
C19 C15 1.403 . S
C19 C18 1.405 . S
C19 H70 0.932 . S
C20 C15 1.370 . S
C20 C16 1.389 . S
C20 H71 0.931 . S
Co21 N5 1.869 . S
Co21 N22 1.955 . S
Co21 N23 1.864 . S
Co21 N29 1.958 . S
Co21 N30 1.953 . S
Co21 N31 1.974 . S
N22 Co21 1.955 . S
N22 C40 1.329 . S
N22 C55 1.432 . S
N23 Co21 1.864 . S
N23 C24 1.327 . S
N23 C28 1.342 . S
C24 N23 1.327 . S
C24 C25 1.407 . S
C24 C40 1.481 . S
C25 C24 1.407 . S
C25 C26 1.364 . S
C25 H72 0.930 . S
C26 C25 1.364 . S
C26 C27 1.390 . S
C26 H73 0.931 . S
C27 C26 1.390 . S
C27 C28 1.346 . S
C27 H74 0.930 . S
C28 N23 1.342 . S
C28 C27 1.346 . S
C28 C44 1.516 . S
N29 Co21 1.958 . S
N29 C44 1.324 . S
N29 C46 1.427 . S
N30 C6 1.316 . S
N30 C7 1.436 . S
N30 Co21 1.953 . S
N31 C15 1.423 . S
N31 Co21 1.974 . S
N31 C61 1.309 . S
O32 Cd14 2.352 . S
O32 C52 1.235 . S
O33 Cd13 2.329 . S
O33 C52 1.270 . S
C34 O35 1.270 . S
C34 O36 1.248 . S
O35 Cd13 2.350 . S
O35 C34 1.270 . S
O36 Cd13 2.277 . S
O36 C34 1.248 . S
C37 O38 1.277 . S
C37 O39 1.230 . S
O38 Cd13 2.173 . S
O38 C37 1.277 . S
O39 Cd14 2.250 . S
O39 C37 1.230 . S
C40 N22 1.329 . S
C40 C24 1.481 . S
C40 O41 1.246 . S
O41 C40 1.246 . S
O42 Cd13 2.263 . S
O42 C54 1.258 . S
O43 Cd14 2.308 . S
O43 C54 1.274 . S
C44 C28 1.516 . S
C44 N29 1.324 . S
C44 O45 1.238 . S
O45 C44 1.238 . S
C46 N29 1.427 . S
C46 C47 1.394 . S
C46 C51 1.395 . S
C47 C46 1.394 . S
C47 C48 1.380 . S
C47 H75 0.929 . S
C48 C47 1.380 . S
C48 C49 1.384 . S
C48 C54 1.495 . S
C49 C48 1.384 . S
C49 C50 1.382 . S
C49 H76 0.930 . S
C50 C49 1.382 . S
C50 C51 1.398 . S
C51 C46 1.395 . S
C51 C50 1.398 . S
C51 H77 0.930 . S
C52 O32 1.235 . S
C52 O33 1.270 . S
O53 C6 1.263 . S
O53 Cd13 2.366 . S
C54 O42 1.258 . S
C54 O43 1.274 . S
C54 C48 1.495 . S
C55 N22 1.432 . S
C55 C56 1.381 . S
C55 C60 1.385 . S
C56 C55 1.381 . S
C56 C57 1.371 . S
C56 H78 0.932 . S
C57 C56 1.371 . S
C57 C58 1.400 . S
C58 C57 1.400 . S
C58 C59 1.351 . S
C58 H79 0.930 . S
C59 C58 1.351 . S
C59 C60 1.388 . S
C60 C55 1.385 . S
C60 C59 1.388 . S
C60 H80 0.929 . S
C61 C0 1.504 . S
C61 N31 1.309 . S
C61 O62 1.258 . S
O62 C61 1.258 . S
H63 C1 0.929 . S
H64 C2 0.932 . S
H65 C3 0.931 . S
H66 C8 0.929 . S
H67 C10 0.929 . S
H68 C12 0.931 . S
H69 C17 0.929 . S
H70 C19 0.932 . S
H71 C20 0.931 . S
H72 C25 0.930 . S
H73 C26 0.931 . S
H74 C27 0.930 . S
H75 C47 0.929 . S
H76 C49 0.930 . S
H77 C51 0.930 . S
H78 C56 0.932 . S
H79 C58 0.930 . S
H80 C60 0.929 . S
C81 C82 1.359 . S
C81 N86 1.330 . S
C81 C142 1.504 . S
C82 C81 1.359 . S
C82 C83 1.366 . S
C82 H144 0.929 . S
C83 C82 1.366 . S
C83 C84 1.415 . S
C83 H145 0.932 . S
C84 C83 1.415 . S
C84 C85 1.366 . S
C84 H146 0.931 . S
C85 C84 1.366 . S
C85 N86 1.325 . S
C85 C87 1.516 . S
N86 C81 1.330 . S
N86 C85 1.325 . S
N86 Co102 1.869 . S
C87 C85 1.516 . S
C87 N111 1.316 . S
C87 O134 1.263 . S
C88 C89 1.421 . S
C88 C93 1.360 . S
C88 N111 1.436 . S
C89 C88 1.421 . S
C89 C90 1.379 . S
C89 H147 0.929 . S
C90 C89 1.379 . S
C90 C91 1.417 . S
C91 C90 1.417 . S
C91 C92 1.352 . S
C91 H148 0.929 . S
C92 C91 1.352 . S
C92 C93 1.393 . S
C93 C88 1.360 . S
C93 C92 1.393 . S
C93 H149 0.931 . S
Cd94 O114 2.329 . S
Cd94 O116 2.350 . S
Cd94 O117 2.277 . S
Cd94 O119 2.173 . S
Cd94 O123 2.263 . S
Cd94 O134 2.366 . S
Cd95 O113 2.352 . S
Cd95 O120 2.250 . S
Cd95 O124 2.308 . S
C96 C100 1.403 . S
C96 C101 1.370 . S
C96 N112 1.423 . S
C97 C98 1.389 . S
C97 C101 1.389 . S
C98 C97 1.389 . S
C98 C99 1.379 . S
C98 H150 0.929 . S
C99 C98 1.379 . S
C99 C100 1.405 . S
C100 C96 1.403 . S
C100 C99 1.405 . S
C100 H151 0.932 . S
C101 C96 1.370 . S
C101 C97 1.389 . S
C101 H152 0.931 . S
Co102 N86 1.869 . S
Co102 N103 1.955 . S
Co102 N104 1.864 . S
Co102 N110 1.958 . S
Co102 N111 1.953 . S
Co102 N112 1.974 . S
N103 Co102 1.955 . S
N103 C121 1.329 . S
N103 C136 1.432 . S
N104 Co102 1.864 . S
N104 C105 1.327 . S
N104 C109 1.342 . S
C105 N104 1.327 . S
C105 C106 1.407 . S
C105 C121 1.481 . S
C106 C105 1.407 . S
C106 C107 1.364 . S
C106 H153 0.930 . S
C107 C106 1.364 . S
C107 C108 1.390 . S
C107 H154 0.931 . S
C108 C107 1.390 . S
C108 C109 1.346 . S
C108 H155 0.930 . S
C109 N104 1.342 . S
C109 C108 1.346 . S
C109 C125 1.516 . S
N110 Co102 1.958 . S
N110 C125 1.324 . S
N110 C127 1.427 . S
N111 C87 1.316 . S
N111 C88 1.436 . S
N111 Co102 1.953 . S
N112 C96 1.423 . S
N112 Co102 1.974 . S
N112 C142 1.309 . S
O113 Cd95 2.352 . S
O113 C133 1.235 . S
O114 Cd94 2.329 . S
O114 C133 1.270 . S
C115 O116 1.270 . S
C115 O117 1.248 . S
O116 Cd94 2.350 . S
O116 C115 1.270 . S
O117 Cd94 2.277 . S
O117 C115 1.248 . S
C118 O119 1.277 . S
C118 O120 1.230 . S
O119 Cd94 2.173 . S
O119 C118 1.277 . S
O120 Cd95 2.250 . S
O120 C118 1.230 . S
C121 N103 1.329 . S
C121 C105 1.481 . S
C121 O122 1.246 . S
O122 C121 1.246 . S
O123 Cd94 2.263 . S
O123 C135 1.258 . S
O124 Cd95 2.308 . S
O124 C135 1.274 . S
C125 C109 1.516 . S
C125 N110 1.324 . S
C125 O126 1.238 . S
O126 C125 1.238 . S
C127 N110 1.427 . S
C127 C128 1.394 . S
C127 C132 1.395 . S
C128 C127 1.394 . S
C128 C129 1.380 . S
C128 H156 0.929 . S
C129 C128 1.380 . S
C129 C130 1.384 . S
C129 C135 1.495 . S
C130 C129 1.384 . S
C130 C131 1.382 . S
C130 H157 0.930 . S
C131 C130 1.382 . S
C131 C132 1.398 . S
C132 C127 1.395 . S
C132 C131 1.398 . S
C132 H158 0.930 . S
C133 O113 1.235 . S
C133 O114 1.270 . S
O134 C87 1.263 . S
O134 Cd94 2.366 . S
C135 O123 1.258 . S
C135 O124 1.274 . S
C135 C129 1.495 . S
C136 N103 1.432 . S
C136 C137 1.381 . S
C136 C141 1.385 . S
C137 C136 1.381 . S
C137 C138 1.371 . S
C137 H159 0.932 . S
C138 C137 1.371 . S
C138 C139 1.400 . S
C139 C138 1.400 . S
C139 C140 1.351 . S
C139 H160 0.930 . S
C140 C139 1.351 . S
C140 C141 1.388 . S
C141 C136 1.385 . S
C141 C140 1.388 . S
C141 H161 0.929 . S
C142 C81 1.504 . S
C142 N112 1.309 . S
C142 O143 1.258 . S
O143 C142 1.258 . S
H144 C82 0.929 . S
H145 C83 0.932 . S
H146 C84 0.931 . S
H147 C89 0.929 . S
H148 C91 0.929 . S
H149 C93 0.931 . S
H150 C98 0.929 . S
H151 C100 0.932 . S
H152 C101 0.931 . S
H153 C106 0.930 . S
H154 C107 0.931 . S
H155 C108 0.930 . S
H156 C128 0.929 . S
H157 C130 0.930 . S
H158 C132 0.930 . S
H159 C137 0.932 . S
H160 C139 0.930 . S
H161 C141 0.929 . S
C162 C163 1.359 . S
C162 N167 1.330 . S
C162 C223 1.504 . S
C163 C162 1.359 . S
C163 C164 1.366 . S
C163 H225 0.929 . S
C164 C163 1.366 . S
C164 C165 1.415 . S
C164 H226 0.932 . S
C165 C164 1.415 . S
C165 C166 1.366 . S
C165 H227 0.931 . S
C166 C165 1.366 . S
C166 N167 1.325 . S
C166 C168 1.516 . S
N167 C162 1.330 . S
N167 C166 1.325 . S
N167 Co183 1.869 . S
C168 C166 1.516 . S
C168 N192 1.316 . S
C168 O215 1.263 . S
C169 C170 1.421 . S
C169 C174 1.360 . S
C169 N192 1.436 . S
C170 C169 1.421 . S
C170 C171 1.379 . S
C170 H228 0.929 . S
C171 C170 1.379 . S
C171 C172 1.417 . S
C172 C171 1.417 . S
C172 C173 1.352 . S
C172 H229 0.929 . S
C173 C172 1.352 . S
C173 C174 1.393 . S
C174 C169 1.360 . S
C174 C173 1.393 . S
C174 H230 0.931 . S
Cd175 O195 2.329 . S
Cd175 O197 2.350 . S
Cd175 O198 2.277 . S
Cd175 O200 2.173 . S
Cd175 O204 2.263 . S
Cd175 O215 2.366 . S
Cd176 O194 2.352 . S
Cd176 O201 2.250 . S
Cd176 O205 2.308 . S
C177 C181 1.403 . S
C177 C182 1.370 . S
C177 N193 1.423 . S
C178 C179 1.389 . S
C178 C182 1.389 . S
C179 C178 1.389 . S
C179 C180 1.379 . S
C179 H231 0.929 . S
C180 C179 1.379 . S
C180 C181 1.405 . S
C181 C177 1.403 . S
C181 C180 1.405 . S
C181 H232 0.932 . S
C182 C177 1.370 . S
C182 C178 1.389 . S
C182 H233 0.931 . S
Co183 N167 1.869 . S
Co183 N184 1.955 . S
Co183 N185 1.864 . S
Co183 N191 1.958 . S
Co183 N192 1.953 . S
Co183 N193 1.974 . S
N184 Co183 1.955 . S
N184 C202 1.329 . S
N184 C217 1.432 . S
N185 Co183 1.864 . S
N185 C186 1.327 . S
N185 C190 1.342 . S
C186 N185 1.327 . S
C186 C187 1.407 . S
C186 C202 1.481 . S
C187 C186 1.407 . S
C187 C188 1.364 . S
C187 H234 0.930 . S
C188 C187 1.364 . S
C188 C189 1.390 . S
C188 H235 0.931 . S
C189 C188 1.390 . S
C189 C190 1.346 . S
C189 H236 0.930 . S
C190 N185 1.342 . S
C190 C189 1.346 . S
C190 C206 1.516 . S
N191 Co183 1.958 . S
N191 C206 1.324 . S
N191 C208 1.427 . S
N192 C168 1.316 . S
N192 C169 1.436 . S
N192 Co183 1.953 . S
N193 C177 1.423 . S
N193 Co183 1.974 . S
N193 C223 1.309 . S
O194 Cd176 2.352 . S
O194 C214 1.235 . S
O195 Cd175 2.329 . S
O195 C214 1.270 . S
C196 O197 1.270 . S
C196 O198 1.248 . S
O197 Cd175 2.350 . S
O197 C196 1.270 . S
O198 Cd175 2.277 . S
O198 C196 1.248 . S
C199 O200 1.277 . S
C199 O201 1.230 . S
O200 Cd175 2.173 . S
O200 C199 1.277 . S
O201 Cd176 2.250 . S
O201 C199 1.230 . S
C202 N184 1.329 . S
C202 C186 1.481 . S
C202 O203 1.246 . S
O203 C202 1.246 . S
O204 Cd175 2.263 . S
O204 C216 1.258 . S
O205 Cd176 2.308 . S
O205 C216 1.274 . S
C206 C190 1.516 . S
C206 N191 1.324 . S
C206 O207 1.238 . S
O207 C206 1.238 . S
C208 N191 1.427 . S
C208 C209 1.394 . S
C208 C213 1.395 . S
C209 C208 1.394 . S
C209 C210 1.380 . S
C209 H237 0.929 . S
C210 C209 1.380 . S
C210 C211 1.384 . S
C210 C216 1.495 . S
C211 C210 1.384 . S
C211 C212 1.382 . S
C211 H238 0.930 . S
C212 C211 1.382 . S
C212 C213 1.398 . S
C213 C208 1.395 . S
C213 C212 1.398 . S
C213 H239 0.930 . S
C214 O194 1.235 . S
C214 O195 1.270 . S
O215 C168 1.263 . S
O215 Cd175 2.366 . S
C216 O204 1.258 . S
C216 O205 1.274 . S
C216 C210 1.495 . S
C217 N184 1.432 . S
C217 C218 1.381 . S
C217 C222 1.385 . S
C218 C217 1.381 . S
C218 C219 1.371 . S
C218 H240 0.932 . S
C219 C218 1.371 . S
C219 C220 1.400 . S
C220 C219 1.400 . S
C220 C221 1.351 . S
C220 H241 0.930 . S
C221 C220 1.351 . S
C221 C222 1.388 . S
C222 C217 1.385 . S
C222 C221 1.388 . S
C222 H242 0.929 . S
C223 C162 1.504 . S
C223 N193 1.309 . S
C223 O224 1.258 . S
O224 C223 1.258 . S
H225 C163 0.929 . S
H226 C164 0.932 . S
H227 C165 0.931 . S
H228 C170 0.929 . S
H229 C172 0.929 . S
H230 C174 0.931 . S
H231 C179 0.929 . S
H232 C181 0.932 . S
H233 C182 0.931 . S
H234 C187 0.930 . S
H235 C188 0.931 . S
H236 C189 0.930 . S
H237 C209 0.929 . S
H238 C211 0.930 . S
H239 C213 0.930 . S
H240 C218 0.932 . S
H241 C220 0.930 . S
H242 C222 0.929 . S
C243 C244 1.359 . S
C243 N248 1.330 . S
C243 C304 1.504 . S
C244 C243 1.359 . S
C244 C245 1.366 . S
C244 H306 0.929 . S
C245 C244 1.366 . S
C245 C246 1.415 . S
C245 H307 0.932 . S
C246 C245 1.415 . S
C246 C247 1.366 . S
C246 H308 0.931 . S
C247 C246 1.366 . S
C247 N248 1.325 . S
C247 C249 1.516 . S
N248 C243 1.330 . S
N248 C247 1.325 . S
N248 Co264 1.869 . S
C249 C247 1.516 . S
C249 N273 1.316 . S
C249 O296 1.263 . S
C250 C251 1.421 . S
C250 C255 1.360 . S
C250 N273 1.436 . S
C251 C250 1.421 . S
C251 C252 1.379 . S
C251 H309 0.929 . S
C252 C251 1.379 . S
C252 C253 1.417 . S
C253 C252 1.417 . S
C253 C254 1.352 . S
C253 H310 0.929 . S
C254 C253 1.352 . S
C254 C255 1.393 . S
C255 C250 1.360 . S
C255 C254 1.393 . S
C255 H311 0.931 . S
Cd256 O276 2.329 . S
Cd256 O278 2.350 . S
Cd256 O279 2.277 . S
Cd256 O281 2.173 . S
Cd256 O285 2.263 . S
Cd256 O296 2.366 . S
Cd257 O275 2.352 . S
Cd257 O282 2.250 . S
Cd257 O286 2.308 . S
C258 C262 1.403 . S
C258 C263 1.370 . S
C258 N274 1.423 . S
C259 C260 1.389 . S
C259 C263 1.389 . S
C260 C259 1.389 . S
C260 C261 1.379 . S
C260 H312 0.929 . S
C261 C260 1.379 . S
C261 C262 1.405 . S
C262 C258 1.403 . S
C262 C261 1.405 . S
C262 H313 0.932 . S
C263 C258 1.370 . S
C263 C259 1.389 . S
C263 H314 0.931 . S
Co264 N248 1.869 . S
Co264 N265 1.955 . S
Co264 N266 1.864 . S
Co264 N272 1.958 . S
Co264 N273 1.953 . S
Co264 N274 1.974 . S
N265 Co264 1.955 . S
N265 C283 1.329 . S
N265 C298 1.432 . S
N266 Co264 1.864 . S
N266 C267 1.327 . S
N266 C271 1.342 . S
C267 N266 1.327 . S
C267 C268 1.407 . S
C267 C283 1.481 . S
C268 C267 1.407 . S
C268 C269 1.364 . S
C268 H315 0.930 . S
C269 C268 1.364 . S
C269 C270 1.390 . S
C269 H316 0.931 . S
C270 C269 1.390 . S
C270 C271 1.346 . S
C270 H317 0.930 . S
C271 N266 1.342 . S
C271 C270 1.346 . S
C271 C287 1.516 . S
N272 Co264 1.958 . S
N272 C287 1.324 . S
N272 C289 1.427 . S
N273 C249 1.316 . S
N273 C250 1.436 . S
N273 Co264 1.953 . S
N274 C258 1.423 . S
N274 Co264 1.974 . S
N274 C304 1.309 . S
O275 Cd257 2.352 . S
O275 C295 1.235 . S
O276 Cd256 2.329 . S
O276 C295 1.270 . S
C277 O278 1.270 . S
C277 O279 1.248 . S
O278 Cd256 2.350 . S
O278 C277 1.270 . S
O279 Cd256 2.277 . S
O279 C277 1.248 . S
C280 O281 1.277 . S
C280 O282 1.230 . S
O281 Cd256 2.173 . S
O281 C280 1.277 . S
O282 Cd257 2.250 . S
O282 C280 1.230 . S
C283 N265 1.329 . S
C283 C267 1.481 . S
C283 O284 1.246 . S
O284 C283 1.246 . S
O285 Cd256 2.263 . S
O285 C297 1.258 . S
O286 Cd257 2.308 . S
O286 C297 1.274 . S
C287 C271 1.516 . S
C287 N272 1.324 . S
C287 O288 1.238 . S
O288 C287 1.238 . S
C289 N272 1.427 . S
C289 C290 1.394 . S
C289 C294 1.395 . S
C290 C289 1.394 . S
C290 C291 1.380 . S
C290 H318 0.929 . S
C291 C290 1.380 . S
C291 C292 1.384 . S
C291 C297 1.495 . S
C292 C291 1.384 . S
C292 C293 1.382 . S
C292 H319 0.930 . S
C293 C292 1.382 . S
C293 C294 1.398 . S
C294 C289 1.395 . S
C294 C293 1.398 . S
C294 H320 0.930 . S
C295 O275 1.235 . S
C295 O276 1.270 . S
O296 C249 1.263 . S
O296 Cd256 2.366 . S
C297 O285 1.258 . S
C297 O286 1.274 . S
C297 C291 1.495 . S
C298 N265 1.432 . S
C298 C299 1.381 . S
C298 C303 1.385 . S
C299 C298 1.381 . S
C299 C300 1.371 . S
C299 H321 0.932 . S
C300 C299 1.371 . S
C300 C301 1.400 . S
C301 C300 1.400 . S
C301 C302 1.351 . S
C301 H322 0.930 . S
C302 C301 1.351 . S
C302 C303 1.388 . S
C303 C298 1.385 . S
C303 C302 1.388 . S
C303 H323 0.929 . S
C304 C243 1.504 . S
C304 N274 1.309 . S
C304 O305 1.258 . S
O305 C304 1.258 . S
H306 C244 0.929 . S
H307 C245 0.932 . S
H308 C246 0.931 . S
H309 C251 0.929 . S
H310 C253 0.929 . S
H311 C255 0.931 . S
H312 C260 0.929 . S
H313 C262 0.932 . S
H314 C263 0.931 . S
H315 C268 0.930 . S
H316 C269 0.931 . S
H317 C270 0.930 . S
H318 C290 0.929 . S
H319 C292 0.930 . S
H320 C294 0.930 . S
H321 C299 0.932 . S
H322 C301 0.930 . S
H323 C303 0.929 . S
C324 C325 1.359 . S
C324 N329 1.330 . S
C324 C385 1.504 . S
C325 C324 1.359 . S
C325 C326 1.366 . S
C325 H387 0.929 . S
C326 C325 1.366 . S
C326 C327 1.415 . S
C326 H388 0.932 . S
C327 C326 1.415 . S
C327 C328 1.366 . S
C327 H389 0.931 . S
C328 C327 1.366 . S
C328 N329 1.325 . S
C328 C330 1.516 . S
N329 C324 1.330 . S
N329 C328 1.325 . S
N329 Co345 1.869 . S
C330 C328 1.516 . S
C330 N354 1.316 . S
C330 O377 1.263 . S
C331 C332 1.421 . S
C331 C336 1.360 . S
C331 N354 1.436 . S
C332 C331 1.421 . S
C332 C333 1.379 . S
C332 H390 0.929 . S
C333 C332 1.379 . S
C333 C334 1.417 . S
C334 C333 1.417 . S
C334 C335 1.352 . S
C334 H391 0.929 . S
C335 C334 1.352 . S
C335 C336 1.393 . S
C336 C331 1.360 . S
C336 C335 1.393 . S
C336 H392 0.931 . S
Cd337 O357 2.329 . S
Cd337 O359 2.350 . S
Cd337 O360 2.277 . S
Cd337 O362 2.173 . S
Cd337 O366 2.263 . S
Cd337 O377 2.366 . S
Cd338 O356 2.352 . S
Cd338 O363 2.250 . S
Cd338 O367 2.308 . S
C339 C343 1.403 . S
C339 C344 1.370 . S
C339 N355 1.423 . S
C340 C341 1.389 . S
C340 C344 1.389 . S
C341 C340 1.389 . S
C341 C342 1.379 . S
C341 H393 0.929 . S
C342 C341 1.379 . S
C342 C343 1.405 . S
C343 C339 1.403 . S
C343 C342 1.405 . S
C343 H394 0.932 . S
C344 C339 1.370 . S
C344 C340 1.389 . S
C344 H395 0.931 . S
Co345 N329 1.869 . S
Co345 N346 1.955 . S
Co345 N347 1.864 . S
Co345 N353 1.958 . S
Co345 N354 1.953 . S
Co345 N355 1.974 . S
N346 Co345 1.955 . S
N346 C364 1.329 . S
N346 C379 1.432 . S
N347 Co345 1.864 . S
N347 C348 1.327 . S
N347 C352 1.342 . S
C348 N347 1.327 . S
C348 C349 1.407 . S
C348 C364 1.481 . S
C349 C348 1.407 . S
C349 C350 1.364 . S
C349 H396 0.930 . S
C350 C349 1.364 . S
C350 C351 1.390 . S
C350 H397 0.931 . S
C351 C350 1.390 . S
C351 C352 1.346 . S
C351 H398 0.930 . S
C352 N347 1.342 . S
C352 C351 1.346 . S
C352 C368 1.516 . S
N353 Co345 1.958 . S
N353 C368 1.324 . S
N353 C370 1.427 . S
N354 C330 1.316 . S
N354 C331 1.436 . S
N354 Co345 1.953 . S
N355 C339 1.423 . S
N355 Co345 1.974 . S
N355 C385 1.309 . S
O356 Cd338 2.352 . S
O356 C376 1.235 . S
O357 Cd337 2.329 . S
O357 C376 1.270 . S
C358 O359 1.270 . S
C358 O360 1.248 . S
O359 Cd337 2.350 . S
O359 C358 1.270 . S
O360 Cd337 2.277 . S
O360 C358 1.248 . S
C361 O362 1.277 . S
C361 O363 1.230 . S
O362 Cd337 2.173 . S
O362 C361 1.277 . S
O363 Cd338 2.250 . S
O363 C361 1.230 . S
C364 N346 1.329 . S
C364 C348 1.481 . S
C364 O365 1.246 . S
O365 C364 1.246 . S
O366 Cd337 2.263 . S
O366 C378 1.258 . S
O367 Cd338 2.308 . S
O367 C378 1.274 . S
C368 C352 1.516 . S
C368 N353 1.324 . S
C368 O369 1.238 . S
O369 C368 1.238 . S
C370 N353 1.427 . S
C370 C371 1.394 . S
C370 C375 1.395 . S
C371 C370 1.394 . S
C371 C372 1.380 . S
C371 H399 0.929 . S
C372 C371 1.380 . S
C372 C373 1.384 . S
C372 C378 1.495 . S
C373 C372 1.384 . S
C373 C374 1.382 . S
C373 H400 0.930 . S
C374 C373 1.382 . S
C374 C375 1.398 . S
C375 C370 1.395 . S
C375 C374 1.398 . S
C375 H401 0.930 . S
C376 O356 1.235 . S
C376 O357 1.270 . S
O377 C330 1.263 . S
O377 Cd337 2.366 . S
C378 O366 1.258 . S
C378 O367 1.274 . S
C378 C372 1.495 . S
C379 N346 1.432 . S
C379 C380 1.381 . S
C379 C384 1.385 . S
C380 C379 1.381 . S
C380 C381 1.371 . S
C380 H402 0.932 . S
C381 C380 1.371 . S
C381 C382 1.400 . S
C382 C381 1.400 . S
C382 C383 1.351 . S
C382 H403 0.930 . S
C383 C382 1.351 . S
C383 C384 1.388 . S
C384 C379 1.385 . S
C384 C383 1.388 . S
C384 H404 0.929 . S
C385 C324 1.504 . S
C385 N355 1.309 . S
C385 O386 1.258 . S
O386 C385 1.258 . S
H387 C325 0.929 . S
H388 C326 0.932 . S
H389 C327 0.931 . S
H390 C332 0.929 . S
H391 C334 0.929 . S
H392 C336 0.931 . S
H393 C341 0.929 . S
H394 C343 0.932 . S
H395 C344 0.931 . S
H396 C349 0.930 . S
H397 C350 0.931 . S
H398 C351 0.930 . S
H399 C371 0.929 . S
H400 C373 0.930 . S
H401 C375 0.930 . S
H402 C380 0.932 . S
H403 C382 0.930 . S
H404 C384 0.929 . S
C405 C406 1.359 . S
C405 N410 1.330 . S
C405 C466 1.504 . S
C406 C405 1.359 . S
C406 C407 1.366 . S
C406 H468 0.929 . S
C407 C406 1.366 . S
C407 C408 1.415 . S
C407 H469 0.932 . S
C408 C407 1.415 . S
C408 C409 1.366 . S
C408 H470 0.931 . S
C409 C408 1.366 . S
C409 N410 1.325 . S
C409 C411 1.516 . S
N410 C405 1.330 . S
N410 C409 1.325 . S
N410 Co426 1.869 . S
C411 C409 1.516 . S
C411 N435 1.316 . S
C411 O458 1.263 . S
C412 C413 1.421 . S
C412 C417 1.360 . S
C412 N435 1.436 . S
C413 C412 1.421 . S
C413 C414 1.379 . S
C413 H471 0.929 . S
C414 C413 1.379 . S
C414 C415 1.417 . S
C415 C414 1.417 . S
C415 C416 1.352 . S
C415 H472 0.929 . S
C416 C415 1.352 . S
C416 C417 1.393 . S
C417 C412 1.360 . S
C417 C416 1.393 . S
C417 H473 0.931 . S
Cd418 O438 2.329 . S
Cd418 O440 2.350 . S
Cd418 O441 2.277 . S
Cd418 O443 2.173 . S
Cd418 O447 2.263 . S
Cd418 O458 2.366 . S
Cd419 O437 2.352 . S
Cd419 O444 2.250 . S
Cd419 O448 2.308 . S
C420 C424 1.403 . S
C420 C425 1.370 . S
C420 N436 1.423 . S
C421 C422 1.389 . S
C421 C425 1.389 . S
C422 C421 1.389 . S
C422 C423 1.379 . S
C422 H474 0.929 . S
C423 C422 1.379 . S
C423 C424 1.405 . S
C424 C420 1.403 . S
C424 C423 1.405 . S
C424 H475 0.932 . S
C425 C420 1.370 . S
C425 C421 1.389 . S
C425 H476 0.931 . S
Co426 N410 1.869 . S
Co426 N427 1.955 . S
Co426 N428 1.864 . S
Co426 N434 1.958 . S
Co426 N435 1.953 . S
Co426 N436 1.974 . S
N427 Co426 1.955 . S
N427 C445 1.329 . S
N427 C460 1.432 . S
N428 Co426 1.864 . S
N428 C429 1.327 . S
N428 C433 1.342 . S
C429 N428 1.327 . S
C429 C430 1.407 . S
C429 C445 1.481 . S
C430 C429 1.407 . S
C430 C431 1.364 . S
C430 H477 0.930 . S
C431 C430 1.364 . S
C431 C432 1.390 . S
C431 H478 0.931 . S
C432 C431 1.390 . S
C432 C433 1.346 . S
C432 H479 0.930 . S
C433 N428 1.342 . S
C433 C432 1.346 . S
C433 C449 1.516 . S
N434 Co426 1.958 . S
N434 C449 1.324 . S
N434 C451 1.427 . S
N435 C411 1.316 . S
N435 C412 1.436 . S
N435 Co426 1.953 . S
N436 C420 1.423 . S
N436 Co426 1.974 . S
N436 C466 1.309 . S
O437 Cd419 2.352 . S
O437 C457 1.235 . S
O438 Cd418 2.329 . S
O438 C457 1.270 . S
C439 O440 1.270 . S
C439 O441 1.248 . S
O440 Cd418 2.350 . S
O440 C439 1.270 . S
O441 Cd418 2.277 . S
O441 C439 1.248 . S
C442 O443 1.277 . S
C442 O444 1.230 . S
O443 Cd418 2.173 . S
O443 C442 1.277 . S
O444 Cd419 2.250 . S
O444 C442 1.230 . S
C445 N427 1.329 . S
C445 C429 1.481 . S
C445 O446 1.246 . S
O446 C445 1.246 . S
O447 Cd418 2.263 . S
O447 C459 1.258 . S
O448 Cd419 2.308 . S
O448 C459 1.274 . S
C449 C433 1.516 . S
C449 N434 1.324 . S
C449 O450 1.238 . S
O450 C449 1.238 . S
C451 N434 1.427 . S
C451 C452 1.394 . S
C451 C456 1.395 . S
C452 C451 1.394 . S
C452 C453 1.380 . S
C452 H480 0.929 . S
C453 C452 1.380 . S
C453 C454 1.384 . S
C453 C459 1.495 . S
C454 C453 1.384 . S
C454 C455 1.382 . S
C454 H481 0.930 . S
C455 C454 1.382 . S
C455 C456 1.398 . S
C456 C451 1.395 . S
C456 C455 1.398 . S
C456 H482 0.930 . S
C457 O437 1.235 . S
C457 O438 1.270 . S
O458 C411 1.263 . S
O458 Cd418 2.366 . S
C459 O447 1.258 . S
C459 O448 1.274 . S
C459 C453 1.495 . S
C460 N427 1.432 . S
C460 C461 1.381 . S
C460 C465 1.385 . S
C461 C460 1.381 . S
C461 C462 1.371 . S
C461 H483 0.932 . S
C462 C461 1.371 . S
C462 C463 1.400 . S
C463 C462 1.400 . S
C463 C464 1.351 . S
C463 H484 0.930 . S
C464 C463 1.351 . S
C464 C465 1.388 . S
C465 C460 1.385 . S
C465 C464 1.388 . S
C465 H485 0.929 . S
C466 C405 1.504 . S
C466 N436 1.309 . S
C466 O467 1.258 . S
O467 C466 1.258 . S
H468 C406 0.929 . S
H469 C407 0.932 . S
H470 C408 0.931 . S
H471 C413 0.929 . S
H472 C415 0.929 . S
H473 C417 0.931 . S
H474 C422 0.929 . S
H475 C424 0.932 . S
H476 C425 0.931 . S
H477 C430 0.930 . S
H478 C431 0.931 . S
H479 C432 0.930 . S
H480 C452 0.929 . S
H481 C454 0.930 . S
H482 C456 0.930 . S
H483 C461 0.932 . S
H484 C463 0.930 . S
H485 C465 0.929 . S
C486 C487 1.359 . S
C486 N491 1.330 . S
C486 C547 1.504 . S
C487 C486 1.359 . S
C487 C488 1.366 . S
C487 H549 0.929 . S
C488 C487 1.366 . S
C488 C489 1.415 . S
C488 H550 0.932 . S
C489 C488 1.415 . S
C489 C490 1.366 . S
C489 H551 0.931 . S
C490 C489 1.366 . S
C490 N491 1.325 . S
C490 C492 1.516 . S
N491 C486 1.330 . S
N491 C490 1.325 . S
N491 Co507 1.869 . S
C492 C490 1.516 . S
C492 N516 1.316 . S
C492 O539 1.263 . S
C493 C494 1.421 . S
C493 C498 1.360 . S
C493 N516 1.436 . S
C494 C493 1.421 . S
C494 C495 1.379 . S
C494 H552 0.929 . S
C495 C494 1.379 . S
C495 C496 1.417 . S
C496 C495 1.417 . S
C496 C497 1.352 . S
C496 H553 0.929 . S
C497 C496 1.352 . S
C497 C498 1.393 . S
C498 C493 1.360 . S
C498 C497 1.393 . S
C498 H554 0.931 . S
Cd499 O519 2.329 . S
Cd499 O521 2.350 . S
Cd499 O522 2.277 . S
Cd499 O524 2.173 . S
Cd499 O528 2.263 . S
Cd499 O539 2.366 . S
Cd500 O518 2.352 . S
Cd500 O525 2.250 . S
Cd500 O529 2.308 . S
C501 C505 1.403 . S
C501 C506 1.370 . S
C501 N517 1.423 . S
C502 C503 1.389 . S
C502 C506 1.389 . S
C503 C502 1.389 . S
C503 C504 1.379 . S
C503 H555 0.929 . S
C504 C503 1.379 . S
C504 C505 1.405 . S
C505 C501 1.403 . S
C505 C504 1.405 . S
C505 H556 0.932 . S
C506 C501 1.370 . S
C506 C502 1.389 . S
C506 H557 0.931 . S
Co507 N491 1.869 . S
Co507 N508 1.955 . S
Co507 N509 1.864 . S
Co507 N515 1.958 . S
Co507 N516 1.953 . S
Co507 N517 1.974 . S
N508 Co507 1.955 . S
N508 C526 1.329 . S
N508 C541 1.432 . S
N509 Co507 1.864 . S
N509 C510 1.327 . S
N509 C514 1.342 . S
C510 N509 1.327 . S
C510 C511 1.407 . S
C510 C526 1.481 . S
C511 C510 1.407 . S
C511 C512 1.364 . S
C511 H558 0.930 . S
C512 C511 1.364 . S
C512 C513 1.390 . S
C512 H559 0.931 . S
C513 C512 1.390 . S
C513 C514 1.346 . S
C513 H560 0.930 . S
C514 N509 1.342 . S
C514 C513 1.346 . S
C514 C530 1.516 . S
N515 Co507 1.958 . S
N515 C530 1.324 . S
N515 C532 1.427 . S
N516 C492 1.316 . S
N516 C493 1.436 . S
N516 Co507 1.953 . S
N517 C501 1.423 . S
N517 Co507 1.974 . S
N517 C547 1.309 . S
O518 Cd500 2.352 . S
O518 C538 1.235 . S
O519 Cd499 2.329 . S
O519 C538 1.270 . S
C520 O521 1.270 . S
C520 O522 1.248 . S
O521 Cd499 2.350 . S
O521 C520 1.270 . S
O522 Cd499 2.277 . S
O522 C520 1.248 . S
C523 O524 1.277 . S
C523 O525 1.230 . S
O524 Cd499 2.173 . S
O524 C523 1.277 . S
O525 Cd500 2.250 . S
O525 C523 1.230 . S
C526 N508 1.329 . S
C526 C510 1.481 . S
C526 O527 1.246 . S
O527 C526 1.246 . S
O528 Cd499 2.263 . S
O528 C540 1.258 . S
O529 Cd500 2.308 . S
O529 C540 1.274 . S
C530 C514 1.516 . S
C530 N515 1.324 . S
C530 O531 1.238 . S
O531 C530 1.238 . S
C532 N515 1.427 . S
C532 C533 1.394 . S
C532 C537 1.395 . S
C533 C532 1.394 . S
C533 C534 1.380 . S
C533 H561 0.929 . S
C534 C533 1.380 . S
C534 C535 1.384 . S
C534 C540 1.495 . S
C535 C534 1.384 . S
C535 C536 1.382 . S
C535 H562 0.930 . S
C536 C535 1.382 . S
C536 C537 1.398 . S
C537 C532 1.395 . S
C537 C536 1.398 . S
C537 H563 0.930 . S
C538 O518 1.235 . S
C538 O519 1.270 . S
O539 C492 1.263 . S
O539 Cd499 2.366 . S
C540 O528 1.258 . S
C540 O529 1.274 . S
C540 C534 1.495 . S
C541 N508 1.432 . S
C541 C542 1.381 . S
C541 C546 1.385 . S
C542 C541 1.381 . S
C542 C543 1.371 . S
C542 H564 0.932 . S
C543 C542 1.371 . S
C543 C544 1.400 . S
C544 C543 1.400 . S
C544 C545 1.351 . S
C544 H565 0.930 . S
C545 C544 1.351 . S
C545 C546 1.388 . S
C546 C541 1.385 . S
C546 C545 1.388 . S
C546 H566 0.929 . S
C547 C486 1.504 . S
C547 N517 1.309 . S
C547 O548 1.258 . S
O548 C547 1.258 . S
H549 C487 0.929 . S
H550 C488 0.932 . S
H551 C489 0.931 . S
H552 C494 0.929 . S
H553 C496 0.929 . S
H554 C498 0.931 . S
H555 C503 0.929 . S
H556 C505 0.932 . S
H557 C506 0.931 . S
H558 C511 0.930 . S
H559 C512 0.931 . S
H560 C513 0.930 . S
H561 C533 0.929 . S
H562 C535 0.930 . S
H563 C537 0.930 . S
H564 C542 0.932 . S
H565 C544 0.930 . S
H566 C546 0.929 . S
C567 C568 1.359 . S
C567 N572 1.330 . S
C567 C628 1.504 . S
C568 C567 1.359 . S
C568 C569 1.366 . S
C568 H630 0.929 . S
C569 C568 1.366 . S
C569 C570 1.415 . S
C569 H631 0.932 . S
C570 C569 1.415 . S
C570 C571 1.366 . S
C570 H632 0.931 . S
C571 C570 1.366 . S
C571 N572 1.325 . S
C571 C573 1.516 . S
N572 C567 1.330 . S
N572 C571 1.325 . S
N572 Co588 1.869 . S
C573 C571 1.516 . S
C573 N597 1.316 . S
C573 O620 1.263 . S
C574 C575 1.421 . S
C574 C579 1.360 . S
C574 N597 1.436 . S
C575 C574 1.421 . S
C575 C576 1.379 . S
C575 H633 0.929 . S
C576 C575 1.379 . S
C576 C577 1.417 . S
C577 C576 1.417 . S
C577 C578 1.352 . S
C577 H634 0.929 . S
C578 C577 1.352 . S
C578 C579 1.393 . S
C579 C574 1.360 . S
C579 C578 1.393 . S
C579 H635 0.931 . S
Cd580 O600 2.329 . S
Cd580 O602 2.350 . S
Cd580 O603 2.277 . S
Cd580 O605 2.173 . S
Cd580 O609 2.263 . S
Cd580 O620 2.366 . S
Cd581 O599 2.352 . S
Cd581 O606 2.250 . S
Cd581 O610 2.308 . S
C582 C586 1.403 . S
C582 C587 1.370 . S
C582 N598 1.423 . S
C583 C584 1.389 . S
C583 C587 1.389 . S
C584 C583 1.389 . S
C584 C585 1.379 . S
C584 H636 0.929 . S
C585 C584 1.379 . S
C585 C586 1.405 . S
C586 C582 1.403 . S
C586 C585 1.405 . S
C586 H637 0.932 . S
C587 C582 1.370 . S
C587 C583 1.389 . S
C587 H638 0.931 . S
Co588 N572 1.869 . S
Co588 N589 1.955 . S
Co588 N590 1.864 . S
Co588 N596 1.958 . S
Co588 N597 1.953 . S
Co588 N598 1.974 . S
N589 Co588 1.955 . S
N589 C607 1.329 . S
N589 C622 1.432 . S
N590 Co588 1.864 . S
N590 C591 1.327 . S
N590 C595 1.342 . S
C591 N590 1.327 . S
C591 C592 1.407 . S
C591 C607 1.481 . S
C592 C591 1.407 . S
C592 C593 1.364 . S
C592 H639 0.930 . S
C593 C592 1.364 . S
C593 C594 1.390 . S
C593 H640 0.931 . S
C594 C593 1.390 . S
C594 C595 1.346 . S
C594 H641 0.930 . S
C595 N590 1.342 . S
C595 C594 1.346 . S
C595 C611 1.516 . S
N596 Co588 1.958 . S
N596 C611 1.324 . S
N596 C613 1.427 . S
N597 C573 1.316 . S
N597 C574 1.436 . S
N597 Co588 1.953 . S
N598 C582 1.423 . S
N598 Co588 1.974 . S
N598 C628 1.309 . S
O599 Cd581 2.352 . S
O599 C619 1.235 . S
O600 Cd580 2.329 . S
O600 C619 1.270 . S
C601 O602 1.270 . S
C601 O603 1.248 . S
O602 Cd580 2.350 . S
O602 C601 1.270 . S
O603 Cd580 2.277 . S
O603 C601 1.248 . S
C604 O605 1.277 . S
C604 O606 1.230 . S
O605 Cd580 2.173 . S
O605 C604 1.277 . S
O606 Cd581 2.250 . S
O606 C604 1.230 . S
C607 N589 1.329 . S
C607 C591 1.481 . S
C607 O608 1.246 . S
O608 C607 1.246 . S
O609 Cd580 2.263 . S
O609 C621 1.258 . S
O610 Cd581 2.308 . S
O610 C621 1.274 . S
C611 C595 1.516 . S
C611 N596 1.324 . S
C611 O612 1.238 . S
O612 C611 1.238 . S
C613 N596 1.427 . S
C613 C614 1.394 . S
C613 C618 1.395 . S
C614 C613 1.394 . S
C614 C615 1.380 . S
C614 H642 0.929 . S
C615 C614 1.380 . S
C615 C616 1.384 . S
C615 C621 1.495 . S
C616 C615 1.384 . S
C616 C617 1.382 . S
C616 H643 0.930 . S
C617 C616 1.382 . S
C617 C618 1.398 . S
C618 C613 1.395 . S
C618 C617 1.398 . S
C618 H644 0.930 . S
C619 O599 1.235 . S
C619 O600 1.270 . S
O620 C573 1.263 . S
O620 Cd580 2.366 . S
C621 O609 1.258 . S
C621 O610 1.274 . S
C621 C615 1.495 . S
C622 N589 1.432 . S
C622 C623 1.381 . S
C622 C627 1.385 . S
C623 C622 1.381 . S
C623 C624 1.371 . S
C623 H645 0.932 . S
C624 C623 1.371 . S
C624 C625 1.400 . S
C625 C624 1.400 . S
C625 C626 1.351 . S
C625 H646 0.930 . S
C626 C625 1.351 . S
C626 C627 1.388 . S
C627 C622 1.385 . S
C627 C626 1.388 . S
C627 H647 0.929 . S
C628 C567 1.504 . S
C628 N598 1.309 . S
C628 O629 1.258 . S
O629 C628 1.258 . S
H630 C568 0.929 . S
H631 C569 0.932 . S
H632 C570 0.931 . S
H633 C575 0.929 . S
H634 C577 0.929 . S
H635 C579 0.931 . S
H636 C584 0.929 . S
H637 C586 0.932 . S
H638 C587 0.931 . S
H639 C592 0.930 . S
H640 C593 0.931 . S
H641 C594 0.930 . S
H642 C614 0.929 . S
H643 C616 0.930 . S
H644 C618 0.930 . S
H645 C623 0.932 . S
H646 C625 0.930 . S
H647 C627 0.929 . S
C648 C649 1.359 . S
C648 N653 1.330 . S
C648 C709 1.504 . S
C649 C648 1.359 . S
C649 C650 1.366 . S
C649 H711 0.929 . S
C650 C649 1.366 . S
C650 C651 1.415 . S
C650 H712 0.932 . S
C651 C650 1.415 . S
C651 C652 1.366 . S
C651 H713 0.931 . S
C652 C651 1.366 . S
C652 N653 1.325 . S
C652 C654 1.516 . S
N653 C648 1.330 . S
N653 C652 1.325 . S
N653 Co669 1.869 . S
C654 C652 1.516 . S
C654 N678 1.316 . S
C654 O701 1.263 . S
C655 C656 1.421 . S
C655 C660 1.360 . S
C655 N678 1.436 . S
C656 C655 1.421 . S
C656 C657 1.379 . S
C656 H714 0.929 . S
C657 C656 1.379 . S
C657 C658 1.417 . S
C658 C657 1.417 . S
C658 C659 1.352 . S
C658 H715 0.929 . S
C659 C658 1.352 . S
C659 C660 1.393 . S
C660 C655 1.360 . S
C660 C659 1.393 . S
C660 H716 0.931 . S
Cd661 O681 2.329 . S
Cd661 O683 2.350 . S
Cd661 O684 2.277 . S
Cd661 O686 2.173 . S
Cd661 O690 2.263 . S
Cd661 O701 2.366 . S
Cd662 O680 2.352 . S
Cd662 O687 2.250 . S
Cd662 O691 2.308 . S
C663 C667 1.403 . S
C663 C668 1.370 . S
C663 N679 1.423 . S
C664 C665 1.389 . S
C664 C668 1.389 . S
C665 C664 1.389 . S
C665 C666 1.379 . S
C665 H717 0.929 . S
C666 C665 1.379 . S
C666 C667 1.405 . S
C667 C663 1.403 . S
C667 C666 1.405 . S
C667 H718 0.932 . S
C668 C663 1.370 . S
C668 C664 1.389 . S
C668 H719 0.931 . S
Co669 N653 1.869 . S
Co669 N670 1.955 . S
Co669 N671 1.864 . S
Co669 N677 1.958 . S
Co669 N678 1.953 . S
Co669 N679 1.974 . S
N670 Co669 1.955 . S
N670 C688 1.329 . S
N670 C703 1.432 . S
N671 Co669 1.864 . S
N671 C672 1.327 . S
N671 C676 1.342 . S
C672 N671 1.327 . S
C672 C673 1.407 . S
C672 C688 1.481 . S
C673 C672 1.407 . S
C673 C674 1.364 . S
C673 H720 0.930 . S
C674 C673 1.364 . S
C674 C675 1.390 . S
C674 H721 0.931 . S
C675 C674 1.390 . S
C675 C676 1.346 . S
C675 H722 0.930 . S
C676 N671 1.342 . S
C676 C675 1.346 . S
C676 C692 1.516 . S
N677 Co669 1.958 . S
N677 C692 1.324 . S
N677 C694 1.427 . S
N678 C654 1.316 . S
N678 C655 1.436 . S
N678 Co669 1.953 . S
N679 C663 1.423 . S
N679 Co669 1.974 . S
N679 C709 1.309 . S
O680 Cd662 2.352 . S
O680 C700 1.235 . S
O681 Cd661 2.329 . S
O681 C700 1.270 . S
C682 O683 1.270 . S
C682 O684 1.248 . S
O683 Cd661 2.350 . S
O683 C682 1.270 . S
O684 Cd661 2.277 . S
O684 C682 1.248 . S
C685 O686 1.277 . S
C685 O687 1.230 . S
O686 Cd661 2.173 . S
O686 C685 1.277 . S
O687 Cd662 2.250 . S
O687 C685 1.230 . S
C688 N670 1.329 . S
C688 C672 1.481 . S
C688 O689 1.246 . S
O689 C688 1.246 . S
O690 Cd661 2.263 . S
O690 C702 1.258 . S
O691 Cd662 2.308 . S
O691 C702 1.274 . S
C692 C676 1.516 . S
C692 N677 1.324 . S
C692 O693 1.238 . S
O693 C692 1.238 . S
C694 N677 1.427 . S
C694 C695 1.394 . S
C694 C699 1.395 . S
C695 C694 1.394 . S
C695 C696 1.380 . S
C695 H723 0.929 . S
C696 C695 1.380 . S
C696 C697 1.384 . S
C696 C702 1.495 . S
C697 C696 1.384 . S
C697 C698 1.382 . S
C697 H724 0.930 . S
C698 C697 1.382 . S
C698 C699 1.398 . S
C699 C694 1.395 . S
C699 C698 1.398 . S
C699 H725 0.930 . S
C700 O680 1.235 . S
C700 O681 1.270 . S
O701 C654 1.263 . S
O701 Cd661 2.366 . S
C702 O690 1.258 . S
C702 O691 1.274 . S
C702 C696 1.495 . S
C703 N670 1.432 . S
C703 C704 1.381 . S
C703 C708 1.385 . S
C704 C703 1.381 . S
C704 C705 1.371 . S
C704 H726 0.932 . S
C705 C704 1.371 . S
C705 C706 1.400 . S
C706 C705 1.400 . S
C706 C707 1.351 . S
C706 H727 0.930 . S
C707 C706 1.351 . S
C707 C708 1.388 . S
C708 C703 1.385 . S
C708 C707 1.388 . S
C708 H728 0.929 . S
C709 C648 1.504 . S
C709 N679 1.309 . S
C709 O710 1.258 . S
O710 C709 1.258 . S
H711 C649 0.929 . S
H712 C650 0.932 . S
H713 C651 0.931 . S
H714 C656 0.929 . S
H715 C658 0.929 . S
H716 C660 0.931 . S
H717 C665 0.929 . S
H718 C667 0.932 . S
H719 C668 0.931 . S
H720 C673 0.930 . S
H721 C674 0.931 . S
H722 C675 0.930 . S
H723 C695 0.929 . S
H724 C697 0.930 . S
H725 C699 0.930 . S
H726 C704 0.932 . S
H727 C706 0.930 . S
H728 C708 0.929 . S
C729 C730 1.359 . S
C729 N734 1.330 . S
C729 C790 1.504 . S
C730 C729 1.359 . S
C730 C731 1.366 . S
C730 H792 0.929 . S
C731 C730 1.366 . S
C731 C732 1.415 . S
C731 H793 0.932 . S
C732 C731 1.415 . S
C732 C733 1.366 . S
C732 H794 0.931 . S
C733 C732 1.366 . S
C733 N734 1.325 . S
C733 C735 1.516 . S
N734 C729 1.330 . S
N734 C733 1.325 . S
N734 Co750 1.869 . S
C735 C733 1.516 . S
C735 N759 1.316 . S
C735 O782 1.263 . S
C736 C737 1.421 . S
C736 C741 1.360 . S
C736 N759 1.436 . S
C737 C736 1.421 . S
C737 C738 1.379 . S
C737 H795 0.929 . S
C738 C737 1.379 . S
C738 C739 1.417 . S
C739 C738 1.417 . S
C739 C740 1.352 . S
C739 H796 0.929 . S
C740 C739 1.352 . S
C740 C741 1.393 . S
C741 C736 1.360 . S
C741 C740 1.393 . S
C741 H797 0.931 . S
Cd742 O762 2.329 . S
Cd742 O764 2.350 . S
Cd742 O765 2.277 . S
Cd742 O767 2.173 . S
Cd742 O771 2.263 . S
Cd742 O782 2.366 . S
Cd743 O761 2.352 . S
Cd743 O768 2.250 . S
Cd743 O772 2.308 . S
C744 C748 1.403 . S
C744 C749 1.370 . S
C744 N760 1.423 . S
C745 C746 1.389 . S
C745 C749 1.389 . S
C746 C745 1.389 . S
C746 C747 1.379 . S
C746 H798 0.929 . S
C747 C746 1.379 . S
C747 C748 1.405 . S
C748 C744 1.403 . S
C748 C747 1.405 . S
C748 H799 0.932 . S
C749 C744 1.370 . S
C749 C745 1.389 . S
C749 H800 0.931 . S
Co750 N734 1.869 . S
Co750 N751 1.955 . S
Co750 N752 1.864 . S
Co750 N758 1.958 . S
Co750 N759 1.953 . S
Co750 N760 1.974 . S
N751 Co750 1.955 . S
N751 C769 1.329 . S
N751 C784 1.432 . S
N752 Co750 1.864 . S
N752 C753 1.327 . S
N752 C757 1.342 . S
C753 N752 1.327 . S
C753 C754 1.407 . S
C753 C769 1.481 . S
C754 C753 1.407 . S
C754 C755 1.364 . S
C754 H801 0.930 . S
C755 C754 1.364 . S
C755 C756 1.390 . S
C755 H802 0.931 . S
C756 C755 1.390 . S
C756 C757 1.346 . S
C756 H803 0.930 . S
C757 N752 1.342 . S
C757 C756 1.346 . S
C757 C773 1.516 . S
N758 Co750 1.958 . S
N758 C773 1.324 . S
N758 C775 1.427 . S
N759 C735 1.316 . S
N759 C736 1.436 . S
N759 Co750 1.953 . S
N760 C744 1.423 . S
N760 Co750 1.974 . S
N760 C790 1.309 . S
O761 Cd743 2.352 . S
O761 C781 1.235 . S
O762 Cd742 2.329 . S
O762 C781 1.270 . S
C763 O764 1.270 . S
C763 O765 1.248 . S
O764 Cd742 2.350 . S
O764 C763 1.270 . S
O765 Cd742 2.277 . S
O765 C763 1.248 . S
C766 O767 1.277 . S
C766 O768 1.230 . S
O767 Cd742 2.173 . S
O767 C766 1.277 . S
O768 Cd743 2.250 . S
O768 C766 1.230 . S
C769 N751 1.329 . S
C769 C753 1.481 . S
C769 O770 1.246 . S
O770 C769 1.246 . S
O771 Cd742 2.263 . S
O771 C783 1.258 . S
O772 Cd743 2.308 . S
O772 C783 1.274 . S
C773 C757 1.516 . S
C773 N758 1.324 . S
C773 O774 1.238 . S
O774 C773 1.238 . S
C775 N758 1.427 . S
C775 C776 1.394 . S
C775 C780 1.395 . S
C776 C775 1.394 . S
C776 C777 1.380 . S
C776 H804 0.929 . S
C777 C776 1.380 . S
C777 C778 1.384 . S
C777 C783 1.495 . S
C778 C777 1.384 . S
C778 C779 1.382 . S
C778 H805 0.930 . S
C779 C778 1.382 . S
C779 C780 1.398 . S
C780 C775 1.395 . S
C780 C779 1.398 . S
C780 H806 0.930 . S
C781 O761 1.235 . S
C781 O762 1.270 . S
O782 C735 1.263 . S
O782 Cd742 2.366 . S
C783 O771 1.258 . S
C783 O772 1.274 . S
C783 C777 1.495 . S
C784 N751 1.432 . S
C784 C785 1.381 . S
C784 C789 1.385 . S
C785 C784 1.381 . S
C785 C786 1.371 . S
C785 H807 0.932 . S
C786 C785 1.371 . S
C786 C787 1.400 . S
C787 C786 1.400 . S
C787 C788 1.351 . S
C787 H808 0.930 . S
C788 C787 1.351 . S
C788 C789 1.388 . S
C789 C784 1.385 . S
C789 C788 1.388 . S
C789 H809 0.929 . S
C790 C729 1.504 . S
C790 N760 1.309 . S
C790 O791 1.258 . S
O791 C790 1.258 . S
H792 C730 0.929 . S
H793 C731 0.932 . S
H794 C732 0.931 . S
H795 C737 0.929 . S
H796 C739 0.929 . S
H797 C741 0.931 . S
H798 C746 0.929 . S
H799 C748 0.932 . S
H800 C749 0.931 . S
H801 C754 0.930 . S
H802 C755 0.931 . S
H803 C756 0.930 . S
H804 C776 0.929 . S
H805 C778 0.930 . S
H806 C780 0.930 . S
H807 C785 0.932 . S
H808 C787 0.930 . S
H809 C789 0.929 . S
C810 C811 1.359 . S
C810 N815 1.330 . S
C810 C871 1.504 . S
C811 C810 1.359 . S
C811 C812 1.366 . S
C811 H873 0.929 . S
C812 C811 1.366 . S
C812 C813 1.415 . S
C812 H874 0.932 . S
C813 C812 1.415 . S
C813 C814 1.366 . S
C813 H875 0.931 . S
C814 C813 1.366 . S
C814 N815 1.325 . S
C814 C816 1.516 . S
N815 C810 1.330 . S
N815 C814 1.325 . S
N815 Co831 1.869 . S
C816 C814 1.516 . S
C816 N840 1.316 . S
C816 O863 1.263 . S
C817 C818 1.421 . S
C817 C822 1.360 . S
C817 N840 1.436 . S
C818 C817 1.421 . S
C818 C819 1.379 . S
C818 H876 0.929 . S
C819 C818 1.379 . S
C819 C820 1.417 . S
C820 C819 1.417 . S
C820 C821 1.352 . S
C820 H877 0.929 . S
C821 C820 1.352 . S
C821 C822 1.393 . S
C822 C817 1.360 . S
C822 C821 1.393 . S
C822 H878 0.931 . S
Cd823 O843 2.329 . S
Cd823 O845 2.350 . S
Cd823 O846 2.277 . S
Cd823 O848 2.173 . S
Cd823 O852 2.263 . S
Cd823 O863 2.366 . S
Cd824 O842 2.352 . S
Cd824 O849 2.250 . S
Cd824 O853 2.308 . S
C825 C829 1.403 . S
C825 C830 1.370 . S
C825 N841 1.423 . S
C826 C827 1.389 . S
C826 C830 1.389 . S
C827 C826 1.389 . S
C827 C828 1.379 . S
C827 H879 0.929 . S
C828 C827 1.379 . S
C828 C829 1.405 . S
C829 C825 1.403 . S
C829 C828 1.405 . S
C829 H880 0.932 . S
C830 C825 1.370 . S
C830 C826 1.389 . S
C830 H881 0.931 . S
Co831 N815 1.869 . S
Co831 N832 1.955 . S
Co831 N833 1.864 . S
Co831 N839 1.958 . S
Co831 N840 1.953 . S
Co831 N841 1.974 . S
N832 Co831 1.955 . S
N832 C850 1.329 . S
N832 C865 1.432 . S
N833 Co831 1.864 . S
N833 C834 1.327 . S
N833 C838 1.342 . S
C834 N833 1.327 . S
C834 C835 1.407 . S
C834 C850 1.481 . S
C835 C834 1.407 . S
C835 C836 1.364 . S
C835 H882 0.930 . S
C836 C835 1.364 . S
C836 C837 1.390 . S
C836 H883 0.931 . S
C837 C836 1.390 . S
C837 C838 1.346 . S
C837 H884 0.930 . S
C838 N833 1.342 . S
C838 C837 1.346 . S
C838 C854 1.516 . S
N839 Co831 1.958 . S
N839 C854 1.324 . S
N839 C856 1.427 . S
N840 C816 1.316 . S
N840 C817 1.436 . S
N840 Co831 1.953 . S
N841 C825 1.423 . S
N841 Co831 1.974 . S
N841 C871 1.309 . S
O842 Cd824 2.352 . S
O842 C862 1.235 . S
O843 Cd823 2.329 . S
O843 C862 1.270 . S
C844 O845 1.270 . S
C844 O846 1.248 . S
O845 Cd823 2.350 . S
O845 C844 1.270 . S
O846 Cd823 2.277 . S
O846 C844 1.248 . S
C847 O848 1.277 . S
C847 O849 1.230 . S
O848 Cd823 2.173 . S
O848 C847 1.277 . S
O849 Cd824 2.250 . S
O849 C847 1.230 . S
C850 N832 1.329 . S
C850 C834 1.481 . S
C850 O851 1.246 . S
O851 C850 1.246 . S
O852 Cd823 2.263 . S
O852 C864 1.258 . S
O853 Cd824 2.308 . S
O853 C864 1.274 . S
C854 C838 1.516 . S
C854 N839 1.324 . S
C854 O855 1.238 . S
O855 C854 1.238 . S
C856 N839 1.427 . S
C856 C857 1.394 . S
C856 C861 1.395 . S
C857 C856 1.394 . S
C857 C858 1.380 . S
C857 H885 0.929 . S
C858 C857 1.380 . S
C858 C859 1.384 . S
C858 C864 1.495 . S
C859 C858 1.384 . S
C859 C860 1.382 . S
C859 H886 0.930 . S
C860 C859 1.382 . S
C860 C861 1.398 . S
C861 C856 1.395 . S
C861 C860 1.398 . S
C861 H887 0.930 . S
C862 O842 1.235 . S
C862 O843 1.270 . S
O863 C816 1.263 . S
O863 Cd823 2.366 . S
C864 O852 1.258 . S
C864 O853 1.274 . S
C864 C858 1.495 . S
C865 N832 1.432 . S
C865 C866 1.381 . S
C865 C870 1.385 . S
C866 C865 1.381 . S
C866 C867 1.371 . S
C866 H888 0.932 . S
C867 C866 1.371 . S
C867 C868 1.400 . S
C868 C867 1.400 . S
C868 C869 1.351 . S
C868 H889 0.930 . S
C869 C868 1.351 . S
C869 C870 1.388 . S
C870 C865 1.385 . S
C870 C869 1.388 . S
C870 H890 0.929 . S
C871 C810 1.504 . S
C871 N841 1.309 . S
C871 O872 1.258 . S
O872 C871 1.258 . S
H873 C811 0.929 . S
H874 C812 0.932 . S
H875 C813 0.931 . S
H876 C818 0.929 . S
H877 C820 0.929 . S
H878 C822 0.931 . S
H879 C827 0.929 . S
H880 C829 0.932 . S
H881 C830 0.931 . S
H882 C835 0.930 . S
H883 C836 0.931 . S
H884 C837 0.930 . S
H885 C857 0.929 . S
H886 C859 0.930 . S
H887 C861 0.930 . S
H888 C866 0.932 . S
H889 C868 0.930 . S
H890 C870 0.929 . S
C891 C892 1.359 . S
C891 N896 1.330 . S
C891 C952 1.504 . S
C892 C891 1.359 . S
C892 C893 1.366 . S
C892 H954 0.929 . S
C893 C892 1.366 . S
C893 C894 1.415 . S
C893 H955 0.932 . S
C894 C893 1.415 . S
C894 C895 1.366 . S
C894 H956 0.931 . S
C895 C894 1.366 . S
C895 N896 1.325 . S
C895 C897 1.516 . S
N896 C891 1.330 . S
N896 C895 1.325 . S
N896 Co912 1.869 . S
C897 C895 1.516 . S
C897 N921 1.316 . S
C897 O944 1.263 . S
C898 C899 1.421 . S
C898 C903 1.360 . S
C898 N921 1.436 . S
C899 C898 1.421 . S
C899 C900 1.379 . S
C899 H957 0.929 . S
C900 C899 1.379 . S
C900 C901 1.417 . S
C901 C900 1.417 . S
C901 C902 1.352 . S
C901 H958 0.929 . S
C902 C901 1.352 . S
C902 C903 1.393 . S
C903 C898 1.360 . S
C903 C902 1.393 . S
C903 H959 0.931 . S
Cd904 O924 2.329 . S
Cd904 O926 2.350 . S
Cd904 O927 2.277 . S
Cd904 O929 2.173 . S
Cd904 O933 2.263 . S
Cd904 O944 2.366 . S
Cd905 O923 2.352 . S
Cd905 O930 2.250 . S
Cd905 O934 2.308 . S
C906 C910 1.403 . S
C906 C911 1.370 . S
C906 N922 1.423 . S
C907 C908 1.389 . S
C907 C911 1.389 . S
C908 C907 1.389 . S
C908 C909 1.379 . S
C908 H960 0.929 . S
C909 C908 1.379 . S
C909 C910 1.405 . S
C910 C906 1.403 . S
C910 C909 1.405 . S
C910 H961 0.932 . S
C911 C906 1.370 . S
C911 C907 1.389 . S
C911 H962 0.931 . S
Co912 N896 1.869 . S
Co912 N913 1.955 . S
Co912 N914 1.864 . S
Co912 N920 1.958 . S
Co912 N921 1.953 . S
Co912 N922 1.974 . S
N913 Co912 1.955 . S
N913 C931 1.329 . S
N913 C946 1.432 . S
N914 Co912 1.864 . S
N914 C915 1.327 . S
N914 C919 1.342 . S
C915 N914 1.327 . S
C915 C916 1.407 . S
C915 C931 1.481 . S
C916 C915 1.407 . S
C916 C917 1.364 . S
C916 H963 0.930 . S
C917 C916 1.364 . S
C917 C918 1.390 . S
C917 H964 0.931 . S
C918 C917 1.390 . S
C918 C919 1.346 . S
C918 H965 0.930 . S
C919 N914 1.342 . S
C919 C918 1.346 . S
C919 C935 1.516 . S
N920 Co912 1.958 . S
N920 C935 1.324 . S
N920 C937 1.427 . S
N921 C897 1.316 . S
N921 C898 1.436 . S
N921 Co912 1.953 . S
N922 C906 1.423 . S
N922 Co912 1.974 . S
N922 C952 1.309 . S
O923 Cd905 2.352 . S
O923 C943 1.235 . S
O924 Cd904 2.329 . S
O924 C943 1.270 . S
C925 O926 1.270 . S
C925 O927 1.248 . S
O926 Cd904 2.350 . S
O926 C925 1.270 . S
O927 Cd904 2.277 . S
O927 C925 1.248 . S
C928 O929 1.277 . S
C928 O930 1.230 . S
O929 Cd904 2.173 . S
O929 C928 1.277 . S
O930 Cd905 2.250 . S
O930 C928 1.230 . S
C931 N913 1.329 . S
C931 C915 1.481 . S
C931 O932 1.246 . S
O932 C931 1.246 . S
O933 Cd904 2.263 . S
O933 C945 1.258 . S
O934 Cd905 2.308 . S
O934 C945 1.274 . S
C935 C919 1.516 . S
C935 N920 1.324 . S
C935 O936 1.238 . S
O936 C935 1.238 . S
C937 N920 1.427 . S
C937 C938 1.394 . S
C937 C942 1.395 . S
C938 C937 1.394 . S
C938 C939 1.380 . S
C938 H966 0.929 . S
C939 C938 1.380 . S
C939 C940 1.384 . S
C939 C945 1.495 . S
C940 C939 1.384 . S
C940 C941 1.382 . S
C940 H967 0.930 . S
C941 C940 1.382 . S
C941 C942 1.398 . S
C942 C937 1.395 . S
C942 C941 1.398 . S
C942 H968 0.930 . S
C943 O923 1.235 . S
C943 O924 1.270 . S
O944 C897 1.263 . S
O944 Cd904 2.366 . S
C945 O933 1.258 . S
C945 O934 1.274 . S
C945 C939 1.495 . S
C946 N913 1.432 . S
C946 C947 1.381 . S
C946 C951 1.385 . S
C947 C946 1.381 . S
C947 C948 1.371 . S
C947 H969 0.932 . S
C948 C947 1.371 . S
C948 C949 1.400 . S
C949 C948 1.400 . S
C949 C950 1.351 . S
C949 H970 0.930 . S
C950 C949 1.351 . S
C950 C951 1.388 . S
C951 C946 1.385 . S
C951 C950 1.388 . S
C951 H971 0.929 . S
C952 C891 1.504 . S
C952 N922 1.309 . S
C952 O953 1.258 . S
O953 C952 1.258 . S
H954 C892 0.929 . S
H955 C893 0.932 . S
H956 C894 0.931 . S
H957 C899 0.929 . S
H958 C901 0.929 . S
H959 C903 0.931 . S
H960 C908 0.929 . S
H961 C910 0.932 . S
H962 C911 0.931 . S
H963 C916 0.930 . S
H964 C917 0.931 . S
H965 C918 0.930 . S
H966 C938 0.929 . S
H967 C940 0.930 . S
H968 C942 0.930 . S
H969 C947 0.932 . S
H970 C949 0.930 . S
H971 C951 0.929 . S
C972 C973 1.359 . S
C972 N977 1.330 . S
C972 C1033 1.504 . S
C973 C972 1.359 . S
C973 C974 1.366 . S
C973 H1035 0.929 . S
C974 C973 1.366 . S
C974 C975 1.415 . S
C974 H1036 0.932 . S
C975 C974 1.415 . S
C975 C976 1.366 . S
C975 H1037 0.931 . S
C976 C975 1.366 . S
C976 N977 1.325 . S
C976 C978 1.516 . S
N977 C972 1.330 . S
N977 C976 1.325 . S
N977 Co993 1.869 . S
C978 C976 1.516 . S
C978 N1002 1.316 . S
C978 O1025 1.263 . S
C979 C980 1.421 . S
C979 C984 1.360 . S
C979 N1002 1.436 . S
C980 C979 1.421 . S
C980 C981 1.379 . S
C980 H1038 0.929 . S
C981 C980 1.379 . S
C981 C982 1.417 . S
C982 C981 1.417 . S
C982 C983 1.352 . S
C982 H1039 0.929 . S
C983 C982 1.352 . S
C983 C984 1.393 . S
C984 C979 1.360 . S
C984 C983 1.393 . S
C984 H1040 0.931 . S
Cd985 O1005 2.329 . S
Cd985 O1007 2.350 . S
Cd985 O1008 2.277 . S
Cd985 O1010 2.173 . S
Cd985 O1014 2.263 . S
Cd985 O1025 2.366 . S
Cd986 O1004 2.352 . S
Cd986 O1011 2.250 . S
Cd986 O1015 2.308 . S
C987 C991 1.403 . S
C987 C992 1.370 . S
C987 N1003 1.423 . S
C988 C989 1.389 . S
C988 C992 1.389 . S
C989 C988 1.389 . S
C989 C990 1.379 . S
C989 H1041 0.929 . S
C990 C989 1.379 . S
C990 C991 1.405 . S
C991 C987 1.403 . S
C991 C990 1.405 . S
C991 H1042 0.932 . S
C992 C987 1.370 . S
C992 C988 1.389 . S
C992 H1043 0.931 . S
Co993 N977 1.869 . S
Co993 N994 1.955 . S
Co993 N995 1.864 . S
Co993 N1001 1.958 . S
Co993 N1002 1.953 . S
Co993 N1003 1.974 . S
N994 Co993 1.955 . S
N994 C1012 1.329 . S
N994 C1027 1.432 . S
N995 Co993 1.864 . S
N995 C996 1.327 . S
N995 C1000 1.342 . S
C996 N995 1.327 . S
C996 C997 1.407 . S
C996 C1012 1.481 . S
C997 C996 1.407 . S
C997 C998 1.364 . S
C997 H1044 0.930 . S
C998 C997 1.364 . S
C998 C999 1.390 . S
C998 H1045 0.931 . S
C999 C998 1.390 . S
C999 C1000 1.346 . S
C999 H1046 0.930 . S
C1000 N995 1.342 . S
C1000 C999 1.346 . S
C1000 C1016 1.516 . S
N1001 Co993 1.958 . S
N1001 C1016 1.324 . S
N1001 C1018 1.427 . S
N1002 C978 1.316 . S
N1002 C979 1.436 . S
N1002 Co993 1.953 . S
N1003 C987 1.423 . S
N1003 Co993 1.974 . S
N1003 C1033 1.309 . S
O1004 Cd986 2.352 . S
O1004 C1024 1.235 . S
O1005 Cd985 2.329 . S
O1005 C1024 1.270 . S
C1006 O1007 1.270 . S
C1006 O1008 1.248 . S
O1007 Cd985 2.350 . S
O1007 C1006 1.270 . S
O1008 Cd985 2.277 . S
O1008 C1006 1.248 . S
C1009 O1010 1.277 . S
C1009 O1011 1.230 . S
O1010 Cd985 2.173 . S
O1010 C1009 1.277 . S
O1011 Cd986 2.250 . S
O1011 C1009 1.230 . S
C1012 N994 1.329 . S
C1012 C996 1.481 . S
C1012 O1013 1.246 . S
O1013 C1012 1.246 . S
O1014 Cd985 2.263 . S
O1014 C1026 1.258 . S
O1015 Cd986 2.308 . S
O1015 C1026 1.274 . S
C1016 C1000 1.516 . S
C1016 N1001 1.324 . S
C1016 O1017 1.238 . S
O1017 C1016 1.238 . S
C1018 N1001 1.427 . S
C1018 C1019 1.394 . S
C1018 C1023 1.395 . S
C1019 C1018 1.394 . S
C1019 C1020 1.380 . S
C1019 H1047 0.929 . S
C1020 C1019 1.380 . S
C1020 C1021 1.384 . S
C1020 C1026 1.495 . S
C1021 C1020 1.384 . S
C1021 C1022 1.382 . S
C1021 H1048 0.930 . S
C1022 C1021 1.382 . S
C1022 C1023 1.398 . S
C1023 C1018 1.395 . S
C1023 C1022 1.398 . S
C1023 H1049 0.930 . S
C1024 O1004 1.235 . S
C1024 O1005 1.270 . S
O1025 C978 1.263 . S
O1025 Cd985 2.366 . S
C1026 O1014 1.258 . S
C1026 O1015 1.274 . S
C1026 C1020 1.495 . S
C1027 N994 1.432 . S
C1027 C1028 1.381 . S
C1027 C1032 1.385 . S
C1028 C1027 1.381 . S
C1028 C1029 1.371 . S
C1028 H1050 0.932 . S
C1029 C1028 1.371 . S
C1029 C1030 1.400 . S
C1030 C1029 1.400 . S
C1030 C1031 1.351 . S
C1030 H1051 0.930 . S
C1031 C1030 1.351 . S
C1031 C1032 1.388 . S
C1032 C1027 1.385 . S
C1032 C1031 1.388 . S
C1032 H1052 0.929 . S
C1033 C972 1.504 . S
C1033 N1003 1.309 . S
C1033 O1034 1.258 . S
O1034 C1033 1.258 . S
H1035 C973 0.929 . S
H1036 C974 0.932 . S
H1037 C975 0.931 . S
H1038 C980 0.929 . S
H1039 C982 0.929 . S
H1040 C984 0.931 . S
H1041 C989 0.929 . S
H1042 C991 0.932 . S
H1043 C992 0.931 . S
H1044 C997 0.930 . S
H1045 C998 0.931 . S
H1046 C999 0.930 . S
H1047 C1019 0.929 . S
H1048 C1021 0.930 . S
H1049 C1023 0.930 . S
H1050 C1028 0.932 . S
H1051 C1030 0.930 . S
H1052 C1032 0.929 . S
C1053 C1054 1.359 . S
C1053 N1058 1.330 . S
C1053 C1114 1.504 . S
C1054 C1053 1.359 . S
C1054 C1055 1.366 . S
C1054 H1116 0.929 . S
C1055 C1054 1.366 . S
C1055 C1056 1.415 . S
C1055 H1117 0.932 . S
C1056 C1055 1.415 . S
C1056 C1057 1.366 . S
C1056 H1118 0.931 . S
C1057 C1056 1.366 . S
C1057 N1058 1.325 . S
C1057 C1059 1.516 . S
N1058 C1053 1.330 . S
N1058 C1057 1.325 . S
N1058 Co1074 1.869 . S
C1059 C1057 1.516 . S
C1059 N1083 1.316 . S
C1059 O1106 1.263 . S
C1060 C1061 1.421 . S
C1060 C1065 1.360 . S
C1060 N1083 1.436 . S
C1061 C1060 1.421 . S
C1061 C1062 1.379 . S
C1061 H1119 0.929 . S
C1062 C1061 1.379 . S
C1062 C1063 1.417 . S
C1063 C1062 1.417 . S
C1063 C1064 1.352 . S
C1063 H1120 0.929 . S
C1064 C1063 1.352 . S
C1064 C1065 1.393 . S
C1065 C1060 1.360 . S
C1065 C1064 1.393 . S
C1065 H1121 0.931 . S
Cd1066 O1086 2.329 . S
Cd1066 O1088 2.350 . S
Cd1066 O1089 2.277 . S
Cd1066 O1091 2.173 . S
Cd1066 O1095 2.263 . S
Cd1066 O1106 2.366 . S
Cd1067 O1085 2.352 . S
Cd1067 O1092 2.250 . S
Cd1067 O1096 2.308 . S
C1068 C1072 1.403 . S
C1068 C1073 1.370 . S
C1068 N1084 1.423 . S
C1069 C1070 1.389 . S
C1069 C1073 1.389 . S
C1070 C1069 1.389 . S
C1070 C1071 1.379 . S
C1070 H1122 0.929 . S
C1071 C1070 1.379 . S
C1071 C1072 1.405 . S
C1072 C1068 1.403 . S
C1072 C1071 1.405 . S
C1072 H1123 0.932 . S
C1073 C1068 1.370 . S
C1073 C1069 1.389 . S
C1073 H1124 0.931 . S
Co1074 N1058 1.869 . S
Co1074 N1075 1.955 . S
Co1074 N1076 1.864 . S
Co1074 N1082 1.958 . S
Co1074 N1083 1.953 . S
Co1074 N1084 1.974 . S
N1075 Co1074 1.955 . S
N1075 C1093 1.329 . S
N1075 C1108 1.432 . S
N1076 Co1074 1.864 . S
N1076 C1077 1.327 . S
N1076 C1081 1.342 . S
C1077 N1076 1.327 . S
C1077 C1078 1.407 . S
C1077 C1093 1.481 . S
C1078 C1077 1.407 . S
C1078 C1079 1.364 . S
C1078 H1125 0.930 . S
C1079 C1078 1.364 . S
C1079 C1080 1.390 . S
C1079 H1126 0.931 . S
C1080 C1079 1.390 . S
C1080 C1081 1.346 . S
C1080 H1127 0.930 . S
C1081 N1076 1.342 . S
C1081 C1080 1.346 . S
C1081 C1097 1.516 . S
N1082 Co1074 1.958 . S
N1082 C1097 1.324 . S
N1082 C1099 1.427 . S
N1083 C1059 1.316 . S
N1083 C1060 1.436 . S
N1083 Co1074 1.953 . S
N1084 C1068 1.423 . S
N1084 Co1074 1.974 . S
N1084 C1114 1.309 . S
O1085 Cd1067 2.352 . S
O1085 C1105 1.235 . S
O1086 Cd1066 2.329 . S
O1086 C1105 1.270 . S
C1087 O1088 1.270 . S
C1087 O1089 1.248 . S
O1088 Cd1066 2.350 . S
O1088 C1087 1.270 . S
O1089 Cd1066 2.277 . S
O1089 C1087 1.248 . S
C1090 O1091 1.277 . S
C1090 O1092 1.230 . S
O1091 Cd1066 2.173 . S
O1091 C1090 1.277 . S
O1092 Cd1067 2.250 . S
O1092 C1090 1.230 . S
C1093 N1075 1.329 . S
C1093 C1077 1.481 . S
C1093 O1094 1.246 . S
O1094 C1093 1.246 . S
O1095 Cd1066 2.263 . S
O1095 C1107 1.258 . S
O1096 Cd1067 2.308 . S
O1096 C1107 1.274 . S
C1097 C1081 1.516 . S
C1097 N1082 1.324 . S
C1097 O1098 1.238 . S
O1098 C1097 1.238 . S
C1099 N1082 1.427 . S
C1099 C1100 1.394 . S
C1099 C1104 1.395 . S
C1100 C1099 1.394 . S
C1100 C1101 1.380 . S
C1100 H1128 0.929 . S
C1101 C1100 1.380 . S
C1101 C1102 1.384 . S
C1101 C1107 1.495 . S
C1102 C1101 1.384 . S
C1102 C1103 1.382 . S
C1102 H1129 0.930 . S
C1103 C1102 1.382 . S
C1103 C1104 1.398 . S
C1104 C1099 1.395 . S
C1104 C1103 1.398 . S
C1104 H1130 0.930 . S
C1105 O1085 1.235 . S
C1105 O1086 1.270 . S
O1106 C1059 1.263 . S
O1106 Cd1066 2.366 . S
C1107 O1095 1.258 . S
C1107 O1096 1.274 . S
C1107 C1101 1.495 . S
C1108 N1075 1.432 . S
C1108 C1109 1.381 . S
C1108 C1113 1.385 . S
C1109 C1108 1.381 . S
C1109 C1110 1.371 . S
C1109 H1131 0.932 . S
C1110 C1109 1.371 . S
C1110 C1111 1.400 . S
C1111 C1110 1.400 . S
C1111 C1112 1.351 . S
C1111 H1132 0.930 . S
C1112 C1111 1.351 . S
C1112 C1113 1.388 . S
C1113 C1108 1.385 . S
C1113 C1112 1.388 . S
C1113 H1133 0.929 . S
C1114 C1053 1.504 . S
C1114 N1084 1.309 . S
C1114 O1115 1.258 . S
O1115 C1114 1.258 . S
H1116 C1054 0.929 . S
H1117 C1055 0.932 . S
H1118 C1056 0.931 . S
H1119 C1061 0.929 . S
H1120 C1063 0.929 . S
H1121 C1065 0.931 . S
H1122 C1070 0.929 . S
H1123 C1072 0.932 . S
H1124 C1073 0.931 . S
H1125 C1078 0.930 . S
H1126 C1079 0.931 . S
H1127 C1080 0.930 . S
H1128 C1100 0.929 . S
H1129 C1102 0.930 . S
H1130 C1104 0.930 . S
H1131 C1109 0.932 . S
H1132 C1111 0.930 . S
H1133 C1113 0.929 . S
C1134 C1135 1.359 . S
C1134 N1139 1.330 . S
C1134 C1195 1.504 . S
C1135 C1134 1.359 . S
C1135 C1136 1.366 . S
C1135 H1197 0.929 . S
C1136 C1135 1.366 . S
C1136 C1137 1.415 . S
C1136 H1198 0.932 . S
C1137 C1136 1.415 . S
C1137 C1138 1.366 . S
C1137 H1199 0.931 . S
C1138 C1137 1.366 . S
C1138 N1139 1.325 . S
C1138 C1140 1.516 . S
N1139 C1134 1.330 . S
N1139 C1138 1.325 . S
N1139 Co1155 1.869 . S
C1140 C1138 1.516 . S
C1140 N1164 1.316 . S
C1140 O1187 1.263 . S
C1141 C1142 1.421 . S
C1141 C1146 1.360 . S
C1141 N1164 1.436 . S
C1142 C1141 1.421 . S
C1142 C1143 1.379 . S
C1142 H1200 0.929 . S
C1143 C1142 1.379 . S
C1143 C1144 1.417 . S
C1144 C1143 1.417 . S
C1144 C1145 1.352 . S
C1144 H1201 0.929 . S
C1145 C1144 1.352 . S
C1145 C1146 1.393 . S
C1146 C1141 1.360 . S
C1146 C1145 1.393 . S
C1146 H1202 0.931 . S
Cd1147 O1167 2.329 . S
Cd1147 O1169 2.350 . S
Cd1147 O1170 2.277 . S
Cd1147 O1172 2.173 . S
Cd1147 O1176 2.263 . S
Cd1147 O1187 2.366 . S
Cd1148 O1166 2.352 . S
Cd1148 O1173 2.250 . S
Cd1148 O1177 2.308 . S
C1149 C1153 1.403 . S
C1149 C1154 1.370 . S
C1149 N1165 1.423 . S
C1150 C1151 1.389 . S
C1150 C1154 1.389 . S
C1151 C1150 1.389 . S
C1151 C1152 1.379 . S
C1151 H1203 0.929 . S
C1152 C1151 1.379 . S
C1152 C1153 1.405 . S
C1153 C1149 1.403 . S
C1153 C1152 1.405 . S
C1153 H1204 0.932 . S
C1154 C1149 1.370 . S
C1154 C1150 1.389 . S
C1154 H1205 0.931 . S
Co1155 N1139 1.869 . S
Co1155 N1156 1.955 . S
Co1155 N1157 1.864 . S
Co1155 N1163 1.958 . S
Co1155 N1164 1.953 . S
Co1155 N1165 1.974 . S
N1156 Co1155 1.955 . S
N1156 C1174 1.329 . S
N1156 C1189 1.432 . S
N1157 Co1155 1.864 . S
N1157 C1158 1.327 . S
N1157 C1162 1.342 . S
C1158 N1157 1.327 . S
C1158 C1159 1.407 . S
C1158 C1174 1.481 . S
C1159 C1158 1.407 . S
C1159 C1160 1.364 . S
C1159 H1206 0.930 . S
C1160 C1159 1.364 . S
C1160 C1161 1.390 . S
C1160 H1207 0.931 . S
C1161 C1160 1.390 . S
C1161 C1162 1.346 . S
C1161 H1208 0.930 . S
C1162 N1157 1.342 . S
C1162 C1161 1.346 . S
C1162 C1178 1.516 . S
N1163 Co1155 1.958 . S
N1163 C1178 1.324 . S
N1163 C1180 1.427 . S
N1164 C1140 1.316 . S
N1164 C1141 1.436 . S
N1164 Co1155 1.953 . S
N1165 C1149 1.423 . S
N1165 Co1155 1.974 . S
N1165 C1195 1.309 . S
O1166 Cd1148 2.352 . S
O1166 C1186 1.235 . S
O1167 Cd1147 2.329 . S
O1167 C1186 1.270 . S
C1168 O1169 1.270 . S
C1168 O1170 1.248 . S
O1169 Cd1147 2.350 . S
O1169 C1168 1.270 . S
O1170 Cd1147 2.277 . S
O1170 C1168 1.248 . S
C1171 O1172 1.277 . S
C1171 O1173 1.230 . S
O1172 Cd1147 2.173 . S
O1172 C1171 1.277 . S
O1173 Cd1148 2.250 . S
O1173 C1171 1.230 . S
C1174 N1156 1.329 . S
C1174 C1158 1.481 . S
C1174 O1175 1.246 . S
O1175 C1174 1.246 . S
O1176 Cd1147 2.263 . S
O1176 C1188 1.258 . S
O1177 Cd1148 2.308 . S
O1177 C1188 1.274 . S
C1178 C1162 1.516 . S
C1178 N1163 1.324 . S
C1178 O1179 1.238 . S
O1179 C1178 1.238 . S
C1180 N1163 1.427 . S
C1180 C1181 1.394 . S
C1180 C1185 1.395 . S
C1181 C1180 1.394 . S
C1181 C1182 1.380 . S
C1181 H1209 0.929 . S
C1182 C1181 1.380 . S
C1182 C1183 1.384 . S
C1182 C1188 1.495 . S
C1183 C1182 1.384 . S
C1183 C1184 1.382 . S
C1183 H1210 0.930 . S
C1184 C1183 1.382 . S
C1184 C1185 1.398 . S
C1185 C1180 1.395 . S
C1185 C1184 1.398 . S
C1185 H1211 0.930 . S
C1186 O1166 1.235 . S
C1186 O1167 1.270 . S
O1187 C1140 1.263 . S
O1187 Cd1147 2.366 . S
C1188 O1176 1.258 . S
C1188 O1177 1.274 . S
C1188 C1182 1.495 . S
C1189 N1156 1.432 . S
C1189 C1190 1.381 . S
C1189 C1194 1.385 . S
C1190 C1189 1.381 . S
C1190 C1191 1.371 . S
C1190 H1212 0.932 . S
C1191 C1190 1.371 . S
C1191 C1192 1.400 . S
C1192 C1191 1.400 . S
C1192 C1193 1.351 . S
C1192 H1213 0.930 . S
C1193 C1192 1.351 . S
C1193 C1194 1.388 . S
C1194 C1189 1.385 . S
C1194 C1193 1.388 . S
C1194 H1214 0.929 . S
C1195 C1134 1.504 . S
C1195 N1165 1.309 . S
C1195 O1196 1.258 . S
O1196 C1195 1.258 . S
H1197 C1135 0.929 . S
H1198 C1136 0.932 . S
H1199 C1137 0.931 . S
H1200 C1142 0.929 . S
H1201 C1144 0.929 . S
H1202 C1146 0.931 . S
H1203 C1151 0.929 . S
H1204 C1153 0.932 . S
H1205 C1154 0.931 . S
H1206 C1159 0.930 . S
H1207 C1160 0.931 . S
H1208 C1161 0.930 . S
H1209 C1181 0.929 . S
H1210 C1183 0.930 . S
H1211 C1185 0.930 . S
H1212 C1190 0.932 . S
H1213 C1192 0.930 . S
H1214 C1194 0.929 . S
C1215 C1216 1.359 . S
C1215 N1220 1.330 . S
C1215 C1276 1.504 . S
C1216 C1215 1.359 . S
C1216 C1217 1.366 . S
C1216 H1278 0.929 . S
C1217 C1216 1.366 . S
C1217 C1218 1.415 . S
C1217 H1279 0.932 . S
C1218 C1217 1.415 . S
C1218 C1219 1.366 . S
C1218 H1280 0.931 . S
C1219 C1218 1.366 . S
C1219 N1220 1.325 . S
C1219 C1221 1.516 . S
N1220 C1215 1.330 . S
N1220 C1219 1.325 . S
N1220 Co1236 1.869 . S
C1221 C1219 1.516 . S
C1221 N1245 1.316 . S
C1221 O1268 1.263 . S
C1222 C1223 1.421 . S
C1222 C1227 1.360 . S
C1222 N1245 1.436 . S
C1223 C1222 1.421 . S
C1223 C1224 1.379 . S
C1223 H1281 0.929 . S
C1224 C1223 1.379 . S
C1224 C1225 1.417 . S
C1225 C1224 1.417 . S
C1225 C1226 1.352 . S
C1225 H1282 0.929 . S
C1226 C1225 1.352 . S
C1226 C1227 1.393 . S
C1227 C1222 1.360 . S
C1227 C1226 1.393 . S
C1227 H1283 0.931 . S
Cd1228 O1248 2.329 . S
Cd1228 O1250 2.350 . S
Cd1228 O1251 2.277 . S
Cd1228 O1253 2.173 . S
Cd1228 O1257 2.263 . S
Cd1228 O1268 2.366 . S
Cd1229 O1247 2.352 . S
Cd1229 O1254 2.250 . S
Cd1229 O1258 2.308 . S
C1230 C1234 1.403 . S
C1230 C1235 1.370 . S
C1230 N1246 1.423 . S
C1231 C1232 1.389 . S
C1231 C1235 1.389 . S
C1232 C1231 1.389 . S
C1232 C1233 1.379 . S
C1232 H1284 0.929 . S
C1233 C1232 1.379 . S
C1233 C1234 1.405 . S
C1234 C1230 1.403 . S
C1234 C1233 1.405 . S
C1234 H1285 0.932 . S
C1235 C1230 1.370 . S
C1235 C1231 1.389 . S
C1235 H1286 0.931 . S
Co1236 N1220 1.869 . S
Co1236 N1237 1.955 . S
Co1236 N1238 1.864 . S
Co1236 N1244 1.958 . S
Co1236 N1245 1.953 . S
Co1236 N1246 1.974 . S
N1237 Co1236 1.955 . S
N1237 C1255 1.329 . S
N1237 C1270 1.432 . S
N1238 Co1236 1.864 . S
N1238 C1239 1.327 . S
N1238 C1243 1.342 . S
C1239 N1238 1.327 . S
C1239 C1240 1.407 . S
C1239 C1255 1.481 . S
C1240 C1239 1.407 . S
C1240 C1241 1.364 . S
C1240 H1287 0.930 . S
C1241 C1240 1.364 . S
C1241 C1242 1.390 . S
C1241 H1288 0.931 . S
C1242 C1241 1.390 . S
C1242 C1243 1.346 . S
C1242 H1289 0.930 . S
C1243 N1238 1.342 . S
C1243 C1242 1.346 . S
C1243 C1259 1.516 . S
N1244 Co1236 1.958 . S
N1244 C1259 1.324 . S
N1244 C1261 1.427 . S
N1245 C1221 1.316 . S
N1245 C1222 1.436 . S
N1245 Co1236 1.953 . S
N1246 C1230 1.423 . S
N1246 Co1236 1.974 . S
N1246 C1276 1.309 . S
O1247 Cd1229 2.352 . S
O1247 C1267 1.235 . S
O1248 Cd1228 2.329 . S
O1248 C1267 1.270 . S
C1249 O1250 1.270 . S
C1249 O1251 1.248 . S
O1250 Cd1228 2.350 . S
O1250 C1249 1.270 . S
O1251 Cd1228 2.277 . S
O1251 C1249 1.248 . S
C1252 O1253 1.277 . S
C1252 O1254 1.230 . S
O1253 Cd1228 2.173 . S
O1253 C1252 1.277 . S
O1254 Cd1229 2.250 . S
O1254 C1252 1.230 . S
C1255 N1237 1.329 . S
C1255 C1239 1.481 . S
C1255 O1256 1.246 . S
O1256 C1255 1.246 . S
O1257 Cd1228 2.263 . S
O1257 C1269 1.258 . S
O1258 Cd1229 2.308 . S
O1258 C1269 1.274 . S
C1259 C1243 1.516 . S
C1259 N1244 1.324 . S
C1259 O1260 1.238 . S
O1260 C1259 1.238 . S
C1261 N1244 1.427 . S
C1261 C1262 1.394 . S
C1261 C1266 1.395 . S
C1262 C1261 1.394 . S
C1262 C1263 1.380 . S
C1262 H1290 0.929 . S
C1263 C1262 1.380 . S
C1263 C1264 1.384 . S
C1263 C1269 1.495 . S
C1264 C1263 1.384 . S
C1264 C1265 1.382 . S
C1264 H1291 0.930 . S
C1265 C1264 1.382 . S
C1265 C1266 1.398 . S
C1266 C1261 1.395 . S
C1266 C1265 1.398 . S
C1266 H1292 0.930 . S
C1267 O1247 1.235 . S
C1267 O1248 1.270 . S
O1268 C1221 1.263 . S
O1268 Cd1228 2.366 . S
C1269 O1257 1.258 . S
C1269 O1258 1.274 . S
C1269 C1263 1.495 . S
C1270 N1237 1.432 . S
C1270 C1271 1.381 . S
C1270 C1275 1.385 . S
C1271 C1270 1.381 . S
C1271 C1272 1.371 . S
C1271 H1293 0.932 . S
C1272 C1271 1.371 . S
C1272 C1273 1.400 . S
C1273 C1272 1.400 . S
C1273 C1274 1.351 . S
C1273 H1294 0.930 . S
C1274 C1273 1.351 . S
C1274 C1275 1.388 . S
C1275 C1270 1.385 . S
C1275 C1274 1.388 . S
C1275 H1295 0.929 . S
C1276 C1215 1.504 . S
C1276 N1246 1.309 . S
C1276 O1277 1.258 . S
O1277 C1276 1.258 . S
H1278 C1216 0.929 . S
H1279 C1217 0.932 . S
H1280 C1218 0.931 . S
H1281 C1223 0.929 . S
H1282 C1225 0.929 . S
H1283 C1227 0.931 . S
H1284 C1232 0.929 . S
H1285 C1234 0.932 . S
H1286 C1235 0.931 . S
H1287 C1240 0.930 . S
H1288 C1241 0.931 . S
H1289 C1242 0.930 . S
H1290 C1262 0.929 . S
H1291 C1264 0.930 . S
H1292 C1266 0.930 . S
H1293 C1271 0.932 . S
H1294 C1273 0.930 . S
H1295 C1275 0.929 . S
C1296 C1297 1.359 . S
C1296 N1301 1.330 . S
C1296 C1357 1.504 . S
C1297 C1296 1.359 . S
C1297 C1298 1.366 . S
C1297 H1359 0.929 . S
C1298 C1297 1.366 . S
C1298 C1299 1.415 . S
C1298 H1360 0.932 . S
C1299 C1298 1.415 . S
C1299 C1300 1.366 . S
C1299 H1361 0.931 . S
C1300 C1299 1.366 . S
C1300 N1301 1.325 . S
C1300 C1302 1.516 . S
N1301 C1296 1.330 . S
N1301 C1300 1.325 . S
N1301 Co1317 1.869 . S
C1302 C1300 1.516 . S
C1302 N1326 1.316 . S
C1302 O1349 1.263 . S
C1303 C1304 1.421 . S
C1303 C1308 1.360 . S
C1303 N1326 1.436 . S
C1304 C1303 1.421 . S
C1304 C1305 1.379 . S
C1304 H1362 0.929 . S
C1305 C1304 1.379 . S
C1305 C1306 1.417 . S
C1306 C1305 1.417 . S
C1306 C1307 1.352 . S
C1306 H1363 0.929 . S
C1307 C1306 1.352 . S
C1307 C1308 1.393 . S
C1308 C1303 1.360 . S
C1308 C1307 1.393 . S
C1308 H1364 0.931 . S
Cd1309 O1329 2.329 . S
Cd1309 O1331 2.350 . S
Cd1309 O1332 2.277 . S
Cd1309 O1334 2.173 . S
Cd1309 O1338 2.263 . S
Cd1309 O1349 2.366 . S
Cd1310 O1328 2.352 . S
Cd1310 O1335 2.250 . S
Cd1310 O1339 2.308 . S
C1311 C1315 1.403 . S
C1311 C1316 1.370 . S
C1311 N1327 1.423 . S
C1312 C1313 1.389 . S
C1312 C1316 1.389 . S
C1313 C1312 1.389 . S
C1313 C1314 1.379 . S
C1313 H1365 0.929 . S
C1314 C1313 1.379 . S
C1314 C1315 1.405 . S
C1315 C1311 1.403 . S
C1315 C1314 1.405 . S
C1315 H1366 0.932 . S
C1316 C1311 1.370 . S
C1316 C1312 1.389 . S
C1316 H1367 0.931 . S
Co1317 N1301 1.869 . S
Co1317 N1318 1.955 . S
Co1317 N1319 1.864 . S
Co1317 N1325 1.958 . S
Co1317 N1326 1.953 . S
Co1317 N1327 1.974 . S
N1318 Co1317 1.955 . S
N1318 C1336 1.329 . S
N1318 C1351 1.432 . S
N1319 Co1317 1.864 . S
N1319 C1320 1.327 . S
N1319 C1324 1.342 . S
C1320 N1319 1.327 . S
C1320 C1321 1.407 . S
C1320 C1336 1.481 . S
C1321 C1320 1.407 . S
C1321 C1322 1.364 . S
C1321 H1368 0.930 . S
C1322 C1321 1.364 . S
C1322 C1323 1.390 . S
C1322 H1369 0.931 . S
C1323 C1322 1.390 . S
C1323 C1324 1.346 . S
C1323 H1370 0.930 . S
C1324 N1319 1.342 . S
C1324 C1323 1.346 . S
C1324 C1340 1.516 . S
N1325 Co1317 1.958 . S
N1325 C1340 1.324 . S
N1325 C1342 1.427 . S
N1326 C1302 1.316 . S
N1326 C1303 1.436 . S
N1326 Co1317 1.953 . S
N1327 C1311 1.423 . S
N1327 Co1317 1.974 . S
N1327 C1357 1.309 . S
O1328 Cd1310 2.352 . S
O1328 C1348 1.235 . S
O1329 Cd1309 2.329 . S
O1329 C1348 1.270 . S
C1330 O1331 1.270 . S
C1330 O1332 1.248 . S
O1331 Cd1309 2.350 . S
O1331 C1330 1.270 . S
O1332 Cd1309 2.277 . S
O1332 C1330 1.248 . S
C1333 O1334 1.277 . S
C1333 O1335 1.230 . S
O1334 Cd1309 2.173 . S
O1334 C1333 1.277 . S
O1335 Cd1310 2.250 . S
O1335 C1333 1.230 . S
C1336 N1318 1.329 . S
C1336 C1320 1.481 . S
C1336 O1337 1.246 . S
O1337 C1336 1.246 . S
O1338 Cd1309 2.263 . S
O1338 C1350 1.258 . S
O1339 Cd1310 2.308 . S
O1339 C1350 1.274 . S
C1340 C1324 1.516 . S
C1340 N1325 1.324 . S
C1340 O1341 1.238 . S
O1341 C1340 1.238 . S
C1342 N1325 1.427 . S
C1342 C1343 1.394 . S
C1342 C1347 1.395 . S
C1343 C1342 1.394 . S
C1343 C1344 1.380 . S
C1343 H1371 0.929 . S
C1344 C1343 1.380 . S
C1344 C1345 1.384 . S
C1344 C1350 1.495 . S
C1345 C1344 1.384 . S
C1345 C1346 1.382 . S
C1345 H1372 0.930 . S
C1346 C1345 1.382 . S
C1346 C1347 1.398 . S
C1347 C1342 1.395 . S
C1347 C1346 1.398 . S
C1347 H1373 0.930 . S
C1348 O1328 1.235 . S
C1348 O1329 1.270 . S
O1349 C1302 1.263 . S
O1349 Cd1309 2.366 . S
C1350 O1338 1.258 . S
C1350 O1339 1.274 . S
C1350 C1344 1.495 . S
C1351 N1318 1.432 . S
C1351 C1352 1.381 . S
C1351 C1356 1.385 . S
C1352 C1351 1.381 . S
C1352 C1353 1.371 . S
C1352 H1374 0.932 . S
C1353 C1352 1.371 . S
C1353 C1354 1.400 . S
C1354 C1353 1.400 . S
C1354 C1355 1.351 . S
C1354 H1375 0.930 . S
C1355 C1354 1.351 . S
C1355 C1356 1.388 . S
C1356 C1351 1.385 . S
C1356 C1355 1.388 . S
C1356 H1376 0.929 . S
C1357 C1296 1.504 . S
C1357 N1327 1.309 . S
C1357 O1358 1.258 . S
O1358 C1357 1.258 . S
H1359 C1297 0.929 . S
H1360 C1298 0.932 . S
H1361 C1299 0.931 . S
H1362 C1304 0.929 . S
H1363 C1306 0.929 . S
H1364 C1308 0.931 . S
H1365 C1313 0.929 . S
H1366 C1315 0.932 . S
H1367 C1316 0.931 . S
H1368 C1321 0.930 . S
H1369 C1322 0.931 . S
H1370 C1323 0.930 . S
H1371 C1343 0.929 . S
H1372 C1345 0.930 . S
H1373 C1347 0.930 . S
H1374 C1352 0.932 . S
H1375 C1354 0.930 . S
H1376 C1356 0.929 . S
C1377 C1378 1.359 . S
C1377 N1382 1.330 . S
C1377 C1438 1.504 . S
C1378 C1377 1.359 . S
C1378 C1379 1.366 . S
C1378 H1440 0.929 . S
C1379 C1378 1.366 . S
C1379 C1380 1.415 . S
C1379 H1441 0.932 . S
C1380 C1379 1.415 . S
C1380 C1381 1.366 . S
C1380 H1442 0.931 . S
C1381 C1380 1.366 . S
C1381 N1382 1.325 . S
C1381 C1383 1.516 . S
N1382 C1377 1.330 . S
N1382 C1381 1.325 . S
N1382 Co1398 1.869 . S
C1383 C1381 1.516 . S
C1383 N1407 1.316 . S
C1383 O1430 1.263 . S
C1384 C1385 1.421 . S
C1384 C1389 1.360 . S
C1384 N1407 1.436 . S
C1385 C1384 1.421 . S
C1385 C1386 1.379 . S
C1385 H1443 0.929 . S
C1386 C1385 1.379 . S
C1386 C1387 1.417 . S
C1387 C1386 1.417 . S
C1387 C1388 1.352 . S
C1387 H1444 0.929 . S
C1388 C1387 1.352 . S
C1388 C1389 1.393 . S
C1389 C1384 1.360 . S
C1389 C1388 1.393 . S
C1389 H1445 0.931 . S
Cd1390 O1410 2.329 . S
Cd1390 O1412 2.350 . S
Cd1390 O1413 2.277 . S
Cd1390 O1415 2.173 . S
Cd1390 O1419 2.263 . S
Cd1390 O1430 2.366 . S
Cd1391 O1409 2.352 . S
Cd1391 O1416 2.250 . S
Cd1391 O1420 2.308 . S
C1392 C1396 1.403 . S
C1392 C1397 1.370 . S
C1392 N1408 1.423 . S
C1393 C1394 1.389 . S
C1393 C1397 1.389 . S
C1394 C1393 1.389 . S
C1394 C1395 1.379 . S
C1394 H1446 0.929 . S
C1395 C1394 1.379 . S
C1395 C1396 1.405 . S
C1396 C1392 1.403 . S
C1396 C1395 1.405 . S
C1396 H1447 0.932 . S
C1397 C1392 1.370 . S
C1397 C1393 1.389 . S
C1397 H1448 0.931 . S
Co1398 N1382 1.869 . S
Co1398 N1399 1.955 . S
Co1398 N1400 1.864 . S
Co1398 N1406 1.958 . S
Co1398 N1407 1.953 . S
Co1398 N1408 1.974 . S
N1399 Co1398 1.955 . S
N1399 C1417 1.329 . S
N1399 C1432 1.432 . S
N1400 Co1398 1.864 . S
N1400 C1401 1.327 . S
N1400 C1405 1.342 . S
C1401 N1400 1.327 . S
C1401 C1402 1.407 . S
C1401 C1417 1.481 . S
C1402 C1401 1.407 . S
C1402 C1403 1.364 . S
C1402 H1449 0.930 . S
C1403 C1402 1.364 . S
C1403 C1404 1.390 . S
C1403 H1450 0.931 . S
C1404 C1403 1.390 . S
C1404 C1405 1.346 . S
C1404 H1451 0.930 . S
C1405 N1400 1.342 . S
C1405 C1404 1.346 . S
C1405 C1421 1.516 . S
N1406 Co1398 1.958 . S
N1406 C1421 1.324 . S
N1406 C1423 1.427 . S
N1407 C1383 1.316 . S
N1407 C1384 1.436 . S
N1407 Co1398 1.953 . S
N1408 C1392 1.423 . S
N1408 Co1398 1.974 . S
N1408 C1438 1.309 . S
O1409 Cd1391 2.352 . S
O1409 C1429 1.235 . S
O1410 Cd1390 2.329 . S
O1410 C1429 1.270 . S
C1411 O1412 1.270 . S
C1411 O1413 1.248 . S
O1412 Cd1390 2.350 . S
O1412 C1411 1.270 . S
O1413 Cd1390 2.277 . S
O1413 C1411 1.248 . S
C1414 O1415 1.277 . S
C1414 O1416 1.230 . S
O1415 Cd1390 2.173 . S
O1415 C1414 1.277 . S
O1416 Cd1391 2.250 . S
O1416 C1414 1.230 . S
C1417 N1399 1.329 . S
C1417 C1401 1.481 . S
C1417 O1418 1.246 . S
O1418 C1417 1.246 . S
O1419 Cd1390 2.263 . S
O1419 C1431 1.258 . S
O1420 Cd1391 2.308 . S
O1420 C1431 1.274 . S
C1421 C1405 1.516 . S
C1421 N1406 1.324 . S
C1421 O1422 1.238 . S
O1422 C1421 1.238 . S
C1423 N1406 1.427 . S
C1423 C1424 1.394 . S
C1423 C1428 1.395 . S
C1424 C1423 1.394 . S
C1424 C1425 1.380 . S
C1424 H1452 0.929 . S
C1425 C1424 1.380 . S
C1425 C1426 1.384 . S
C1425 C1431 1.495 . S
C1426 C1425 1.384 . S
C1426 C1427 1.382 . S
C1426 H1453 0.930 . S
C1427 C1426 1.382 . S
C1427 C1428 1.398 . S
C1428 C1423 1.395 . S
C1428 C1427 1.398 . S
C1428 H1454 0.930 . S
C1429 O1409 1.235 . S
C1429 O1410 1.270 . S
O1430 C1383 1.263 . S
O1430 Cd1390 2.366 . S
C1431 O1419 1.258 . S
C1431 O1420 1.274 . S
C1431 C1425 1.495 . S
C1432 N1399 1.432 . S
C1432 C1433 1.381 . S
C1432 C1437 1.385 . S
C1433 C1432 1.381 . S
C1433 C1434 1.371 . S
C1433 H1455 0.932 . S
C1434 C1433 1.371 . S
C1434 C1435 1.400 . S
C1435 C1434 1.400 . S
C1435 C1436 1.351 . S
C1435 H1456 0.930 . S
C1436 C1435 1.351 . S
C1436 C1437 1.388 . S
C1437 C1432 1.385 . S
C1437 C1436 1.388 . S
C1437 H1457 0.929 . S
C1438 C1377 1.504 . S
C1438 N1408 1.309 . S
C1438 O1439 1.258 . S
O1439 C1438 1.258 . S
H1440 C1378 0.929 . S
H1441 C1379 0.932 . S
H1442 C1380 0.931 . S
H1443 C1385 0.929 . S
H1444 C1387 0.929 . S
H1445 C1389 0.931 . S
H1446 C1394 0.929 . S
H1447 C1396 0.932 . S
H1448 C1397 0.931 . S
H1449 C1402 0.930 . S
H1450 C1403 0.931 . S
H1451 C1404 0.930 . S
H1452 C1424 0.929 . S
H1453 C1426 0.930 . S
H1454 C1428 0.930 . S
H1455 C1433 0.932 . S
H1456 C1435 0.930 . S
H1457 C1437 0.929 . S
C1458 C1459 1.359 . S
C1458 N1463 1.330 . S
C1458 C1519 1.504 . S
C1459 C1458 1.359 . S
C1459 C1460 1.366 . S
C1459 H1521 0.929 . S
C1460 C1459 1.366 . S
C1460 C1461 1.415 . S
C1460 H1522 0.932 . S
C1461 C1460 1.415 . S
C1461 C1462 1.366 . S
C1461 H1523 0.931 . S
C1462 C1461 1.366 . S
C1462 N1463 1.325 . S
C1462 C1464 1.516 . S
N1463 C1458 1.330 . S
N1463 C1462 1.325 . S
N1463 Co1479 1.869 . S
C1464 C1462 1.516 . S
C1464 N1488 1.316 . S
C1464 O1511 1.263 . S
C1465 C1466 1.421 . S
C1465 C1470 1.360 . S
C1465 N1488 1.436 . S
C1466 C1465 1.421 . S
C1466 C1467 1.379 . S
C1466 H1524 0.929 . S
C1467 C1466 1.379 . S
C1467 C1468 1.417 . S
C1468 C1467 1.417 . S
C1468 C1469 1.352 . S
C1468 H1525 0.929 . S
C1469 C1468 1.352 . S
C1469 C1470 1.393 . S
C1470 C1465 1.360 . S
C1470 C1469 1.393 . S
C1470 H1526 0.931 . S
Cd1471 O1491 2.329 . S
Cd1471 O1493 2.350 . S
Cd1471 O1494 2.277 . S
Cd1471 O1496 2.173 . S
Cd1471 O1500 2.263 . S
Cd1471 O1511 2.366 . S
Cd1472 O1490 2.352 . S
Cd1472 O1497 2.250 . S
Cd1472 O1501 2.308 . S
C1473 C1477 1.403 . S
C1473 C1478 1.370 . S
C1473 N1489 1.423 . S
C1474 C1475 1.389 . S
C1474 C1478 1.389 . S
C1475 C1474 1.389 . S
C1475 C1476 1.379 . S
C1475 H1527 0.929 . S
C1476 C1475 1.379 . S
C1476 C1477 1.405 . S
C1477 C1473 1.403 . S
C1477 C1476 1.405 . S
C1477 H1528 0.932 . S
C1478 C1473 1.370 . S
C1478 C1474 1.389 . S
C1478 H1529 0.931 . S
Co1479 N1463 1.869 . S
Co1479 N1480 1.955 . S
Co1479 N1481 1.864 . S
Co1479 N1487 1.958 . S
Co1479 N1488 1.953 . S
Co1479 N1489 1.974 . S
N1480 Co1479 1.955 . S
N1480 C1498 1.329 . S
N1480 C1513 1.432 . S
N1481 Co1479 1.864 . S
N1481 C1482 1.327 . S
N1481 C1486 1.342 . S
C1482 N1481 1.327 . S
C1482 C1483 1.407 . S
C1482 C1498 1.481 . S
C1483 C1482 1.407 . S
C1483 C1484 1.364 . S
C1483 H1530 0.930 . S
C1484 C1483 1.364 . S
C1484 C1485 1.390 . S
C1484 H1531 0.931 . S
C1485 C1484 1.390 . S
C1485 C1486 1.346 . S
C1485 H1532 0.930 . S
C1486 N1481 1.342 . S
C1486 C1485 1.346 . S
C1486 C1502 1.516 . S
N1487 Co1479 1.958 . S
N1487 C1502 1.324 . S
N1487 C1504 1.427 . S
N1488 C1464 1.316 . S
N1488 C1465 1.436 . S
N1488 Co1479 1.953 . S
N1489 C1473 1.423 . S
N1489 Co1479 1.974 . S
N1489 C1519 1.309 . S
O1490 Cd1472 2.352 . S
O1490 C1510 1.235 . S
O1491 Cd1471 2.329 . S
O1491 C1510 1.270 . S
C1492 O1493 1.270 . S
C1492 O1494 1.248 . S
O1493 Cd1471 2.350 . S
O1493 C1492 1.270 . S
O1494 Cd1471 2.277 . S
O1494 C1492 1.248 . S
C1495 O1496 1.277 . S
C1495 O1497 1.230 . S
O1496 Cd1471 2.173 . S
O1496 C1495 1.277 . S
O1497 Cd1472 2.250 . S
O1497 C1495 1.230 . S
C1498 N1480 1.329 . S
C1498 C1482 1.481 . S
C1498 O1499 1.246 . S
O1499 C1498 1.246 . S
O1500 Cd1471 2.263 . S
O1500 C1512 1.258 . S
O1501 Cd1472 2.308 . S
O1501 C1512 1.274 . S
C1502 C1486 1.516 . S
C1502 N1487 1.324 . S
C1502 O1503 1.238 . S
O1503 C1502 1.238 . S
C1504 N1487 1.427 . S
C1504 C1505 1.394 . S
C1504 C1509 1.395 . S
C1505 C1504 1.394 . S
C1505 C1506 1.380 . S
C1505 H1533 0.929 . S
C1506 C1505 1.380 . S
C1506 C1507 1.384 . S
C1506 C1512 1.495 . S
C1507 C1506 1.384 . S
C1507 C1508 1.382 . S
C1507 H1534 0.930 . S
C1508 C1507 1.382 . S
C1508 C1509 1.398 . S
C1509 C1504 1.395 . S
C1509 C1508 1.398 . S
C1509 H1535 0.930 . S
C1510 O1490 1.235 . S
C1510 O1491 1.270 . S
O1511 C1464 1.263 . S
O1511 Cd1471 2.366 . S
C1512 O1500 1.258 . S
C1512 O1501 1.274 . S
C1512 C1506 1.495 . S
C1513 N1480 1.432 . S
C1513 C1514 1.381 . S
C1513 C1518 1.385 . S
C1514 C1513 1.381 . S
C1514 C1515 1.371 . S
C1514 H1536 0.932 . S
C1515 C1514 1.371 . S
C1515 C1516 1.400 . S
C1516 C1515 1.400 . S
C1516 C1517 1.351 . S
C1516 H1537 0.930 . S
C1517 C1516 1.351 . S
C1517 C1518 1.388 . S
C1518 C1513 1.385 . S
C1518 C1517 1.388 . S
C1518 H1538 0.929 . S
C1519 C1458 1.504 . S
C1519 N1489 1.309 . S
C1519 O1520 1.258 . S
O1520 C1519 1.258 . S
H1521 C1459 0.929 . S
H1522 C1460 0.932 . S
H1523 C1461 0.931 . S
H1524 C1466 0.929 . S
H1525 C1468 0.929 . S
H1526 C1470 0.931 . S
H1527 C1475 0.929 . S
H1528 C1477 0.932 . S
H1529 C1478 0.931 . S
H1530 C1483 0.930 . S
H1531 C1484 0.931 . S
H1532 C1485 0.930 . S
H1533 C1505 0.929 . S
H1534 C1507 0.930 . S
H1535 C1509 0.930 . S
H1536 C1514 0.932 . S
H1537 C1516 0.930 . S
H1538 C1518 0.929 . S
C1539 C1540 1.359 . S
C1539 N1544 1.330 . S
C1539 C1600 1.504 . S
C1540 C1539 1.359 . S
C1540 C1541 1.366 . S
C1540 H1602 0.929 . S
C1541 C1540 1.366 . S
C1541 C1542 1.415 . S
C1541 H1603 0.932 . S
C1542 C1541 1.415 . S
C1542 C1543 1.366 . S
C1542 H1604 0.931 . S
C1543 C1542 1.366 . S
C1543 N1544 1.325 . S
C1543 C1545 1.516 . S
N1544 C1539 1.330 . S
N1544 C1543 1.325 . S
N1544 Co1560 1.869 . S
C1545 C1543 1.516 . S
C1545 N1569 1.316 . S
C1545 O1592 1.263 . S
C1546 C1547 1.421 . S
C1546 C1551 1.360 . S
C1546 N1569 1.436 . S
C1547 C1546 1.421 . S
C1547 C1548 1.379 . S
C1547 H1605 0.929 . S
C1548 C1547 1.379 . S
C1548 C1549 1.417 . S
C1549 C1548 1.417 . S
C1549 C1550 1.352 . S
C1549 H1606 0.929 . S
C1550 C1549 1.352 . S
C1550 C1551 1.393 . S
C1551 C1546 1.360 . S
C1551 C1550 1.393 . S
C1551 H1607 0.931 . S
Cd1552 O1572 2.329 . S
Cd1552 O1574 2.350 . S
Cd1552 O1575 2.277 . S
Cd1552 O1577 2.173 . S
Cd1552 O1581 2.263 . S
Cd1552 O1592 2.366 . S
Cd1553 O1571 2.352 . S
Cd1553 O1578 2.250 . S
Cd1553 O1582 2.308 . S
C1554 C1558 1.403 . S
C1554 C1559 1.370 . S
C1554 N1570 1.423 . S
C1555 C1556 1.389 . S
C1555 C1559 1.389 . S
C1556 C1555 1.389 . S
C1556 C1557 1.379 . S
C1556 H1608 0.929 . S
C1557 C1556 1.379 . S
C1557 C1558 1.405 . S
C1558 C1554 1.403 . S
C1558 C1557 1.405 . S
C1558 H1609 0.932 . S
C1559 C1554 1.370 . S
C1559 C1555 1.389 . S
C1559 H1610 0.931 . S
Co1560 N1544 1.869 . S
Co1560 N1561 1.955 . S
Co1560 N1562 1.864 . S
Co1560 N1568 1.958 . S
Co1560 N1569 1.953 . S
Co1560 N1570 1.974 . S
N1561 Co1560 1.955 . S
N1561 C1579 1.329 . S
N1561 C1594 1.432 . S
N1562 Co1560 1.864 . S
N1562 C1563 1.327 . S
N1562 C1567 1.342 . S
C1563 N1562 1.327 . S
C1563 C1564 1.407 . S
C1563 C1579 1.481 . S
C1564 C1563 1.407 . S
C1564 C1565 1.364 . S
C1564 H1611 0.930 . S
C1565 C1564 1.364 . S
C1565 C1566 1.390 . S
C1565 H1612 0.931 . S
C1566 C1565 1.390 . S
C1566 C1567 1.346 . S
C1566 H1613 0.930 . S
C1567 N1562 1.342 . S
C1567 C1566 1.346 . S
C1567 C1583 1.516 . S
N1568 Co1560 1.958 . S
N1568 C1583 1.324 . S
N1568 C1585 1.427 . S
N1569 C1545 1.316 . S
N1569 C1546 1.436 . S
N1569 Co1560 1.953 . S
N1570 C1554 1.423 . S
N1570 Co1560 1.974 . S
N1570 C1600 1.309 . S
O1571 Cd1553 2.352 . S
O1571 C1591 1.235 . S
O1572 Cd1552 2.329 . S
O1572 C1591 1.270 . S
C1573 O1574 1.270 . S
C1573 O1575 1.248 . S
O1574 Cd1552 2.350 . S
O1574 C1573 1.270 . S
O1575 Cd1552 2.277 . S
O1575 C1573 1.248 . S
C1576 O1577 1.277 . S
C1576 O1578 1.230 . S
O1577 Cd1552 2.173 . S
O1577 C1576 1.277 . S
O1578 Cd1553 2.250 . S
O1578 C1576 1.230 . S
C1579 N1561 1.329 . S
C1579 C1563 1.481 . S
C1579 O1580 1.246 . S
O1580 C1579 1.246 . S
O1581 Cd1552 2.263 . S
O1581 C1593 1.258 . S
O1582 Cd1553 2.308 . S
O1582 C1593 1.274 . S
C1583 C1567 1.516 . S
C1583 N1568 1.324 . S
C1583 O1584 1.238 . S
O1584 C1583 1.238 . S
C1585 N1568 1.427 . S
C1585 C1586 1.394 . S
C1585 C1590 1.395 . S
C1586 C1585 1.394 . S
C1586 C1587 1.380 . S
C1586 H1614 0.929 . S
C1587 C1586 1.380 . S
C1587 C1588 1.384 . S
C1587 C1593 1.495 . S
C1588 C1587 1.384 . S
C1588 C1589 1.382 . S
C1588 H1615 0.930 . S
C1589 C1588 1.382 . S
C1589 C1590 1.398 . S
C1590 C1585 1.395 . S
C1590 C1589 1.398 . S
C1590 H1616 0.930 . S
C1591 O1571 1.235 . S
C1591 O1572 1.270 . S
O1592 C1545 1.263 . S
O1592 Cd1552 2.366 . S
C1593 O1581 1.258 . S
C1593 O1582 1.274 . S
C1593 C1587 1.495 . S
C1594 N1561 1.432 . S
C1594 C1595 1.381 . S
C1594 C1599 1.385 . S
C1595 C1594 1.381 . S
C1595 C1596 1.371 . S
C1595 H1617 0.932 . S
C1596 C1595 1.371 . S
C1596 C1597 1.400 . S
C1597 C1596 1.400 . S
C1597 C1598 1.351 . S
C1597 H1618 0.930 . S
C1598 C1597 1.351 . S
C1598 C1599 1.388 . S
C1599 C1594 1.385 . S
C1599 C1598 1.388 . S
C1599 H1619 0.929 . S
C1600 C1539 1.504 . S
C1600 N1570 1.309 . S
C1600 O1601 1.258 . S
O1601 C1600 1.258 . S
H1602 C1540 0.929 . S
H1603 C1541 0.932 . S
H1604 C1542 0.931 . S
H1605 C1547 0.929 . S
H1606 C1549 0.929 . S
H1607 C1551 0.931 . S
H1608 C1556 0.929 . S
H1609 C1558 0.932 . S
H1610 C1559 0.931 . S
H1611 C1564 0.930 . S
H1612 C1565 0.931 . S
H1613 C1566 0.930 . S
H1614 C1586 0.929 . S
H1615 C1588 0.930 . S
H1616 C1590 0.930 . S
H1617 C1595 0.932 . S
H1618 C1597 0.930 . S
H1619 C1599 0.929 . S
C1620 C1621 1.359 . S
C1620 N1625 1.330 . S
C1620 C1681 1.504 . S
C1621 C1620 1.359 . S
C1621 C1622 1.366 . S
C1621 H1683 0.929 . S
C1622 C1621 1.366 . S
C1622 C1623 1.415 . S
C1622 H1684 0.932 . S
C1623 C1622 1.415 . S
C1623 C1624 1.366 . S
C1623 H1685 0.931 . S
C1624 C1623 1.366 . S
C1624 N1625 1.325 . S
C1624 C1626 1.516 . S
N1625 C1620 1.330 . S
N1625 C1624 1.325 . S
N1625 Co1641 1.869 . S
C1626 C1624 1.516 . S
C1626 N1650 1.316 . S
C1626 O1673 1.263 . S
C1627 C1628 1.421 . S
C1627 C1632 1.360 . S
C1627 N1650 1.436 . S
C1628 C1627 1.421 . S
C1628 C1629 1.379 . S
C1628 H1686 0.929 . S
C1629 C1628 1.379 . S
C1629 C1630 1.417 . S
C1630 C1629 1.417 . S
C1630 C1631 1.352 . S
C1630 H1687 0.929 . S
C1631 C1630 1.352 . S
C1631 C1632 1.393 . S
C1632 C1627 1.360 . S
C1632 C1631 1.393 . S
C1632 H1688 0.931 . S
Cd1633 O1653 2.329 . S
Cd1633 O1655 2.350 . S
Cd1633 O1656 2.277 . S
Cd1633 O1658 2.173 . S
Cd1633 O1662 2.263 . S
Cd1633 O1673 2.366 . S
Cd1634 O1652 2.352 . S
Cd1634 O1659 2.250 . S
Cd1634 O1663 2.308 . S
C1635 C1639 1.403 . S
C1635 C1640 1.370 . S
C1635 N1651 1.423 . S
C1636 C1637 1.389 . S
C1636 C1640 1.389 . S
C1637 C1636 1.389 . S
C1637 C1638 1.379 . S
C1637 H1689 0.929 . S
C1638 C1637 1.379 . S
C1638 C1639 1.405 . S
C1639 C1635 1.403 . S
C1639 C1638 1.405 . S
C1639 H1690 0.932 . S
C1640 C1635 1.370 . S
C1640 C1636 1.389 . S
C1640 H1691 0.931 . S
Co1641 N1625 1.869 . S
Co1641 N1642 1.955 . S
Co1641 N1643 1.864 . S
Co1641 N1649 1.958 . S
Co1641 N1650 1.953 . S
Co1641 N1651 1.974 . S
N1642 Co1641 1.955 . S
N1642 C1660 1.329 . S
N1642 C1675 1.432 . S
N1643 Co1641 1.864 . S
N1643 C1644 1.327 . S
N1643 C1648 1.342 . S
C1644 N1643 1.327 . S
C1644 C1645 1.407 . S
C1644 C1660 1.481 . S
C1645 C1644 1.407 . S
C1645 C1646 1.364 . S
C1645 H1692 0.930 . S
C1646 C1645 1.364 . S
C1646 C1647 1.390 . S
C1646 H1693 0.931 . S
C1647 C1646 1.390 . S
C1647 C1648 1.346 . S
C1647 H1694 0.930 . S
C1648 N1643 1.342 . S
C1648 C1647 1.346 . S
C1648 C1664 1.516 . S
N1649 Co1641 1.958 . S
N1649 C1664 1.324 . S
N1649 C1666 1.427 . S
N1650 C1626 1.316 . S
N1650 C1627 1.436 . S
N1650 Co1641 1.953 . S
N1651 C1635 1.423 . S
N1651 Co1641 1.974 . S
N1651 C1681 1.309 . S
O1652 Cd1634 2.352 . S
O1652 C1672 1.235 . S
O1653 Cd1633 2.329 . S
O1653 C1672 1.270 . S
C1654 O1655 1.270 . S
C1654 O1656 1.248 . S
O1655 Cd1633 2.350 . S
O1655 C1654 1.270 . S
O1656 Cd1633 2.277 . S
O1656 C1654 1.248 . S
C1657 O1658 1.277 . S
C1657 O1659 1.230 . S
O1658 Cd1633 2.173 . S
O1658 C1657 1.277 . S
O1659 Cd1634 2.250 . S
O1659 C1657 1.230 . S
C1660 N1642 1.329 . S
C1660 C1644 1.481 . S
C1660 O1661 1.246 . S
O1661 C1660 1.246 . S
O1662 Cd1633 2.263 . S
O1662 C1674 1.258 . S
O1663 Cd1634 2.308 . S
O1663 C1674 1.274 . S
C1664 C1648 1.516 . S
C1664 N1649 1.324 . S
C1664 O1665 1.238 . S
O1665 C1664 1.238 . S
C1666 N1649 1.427 . S
C1666 C1667 1.394 . S
C1666 C1671 1.395 . S
C1667 C1666 1.394 . S
C1667 C1668 1.380 . S
C1667 H1695 0.929 . S
C1668 C1667 1.380 . S
C1668 C1669 1.384 . S
C1668 C1674 1.495 . S
C1669 C1668 1.384 . S
C1669 C1670 1.382 . S
C1669 H1696 0.930 . S
C1670 C1669 1.382 . S
C1670 C1671 1.398 . S
C1671 C1666 1.395 . S
C1671 C1670 1.398 . S
C1671 H1697 0.930 . S
C1672 O1652 1.235 . S
C1672 O1653 1.270 . S
O1673 C1626 1.263 . S
O1673 Cd1633 2.366 . S
C1674 O1662 1.258 . S
C1674 O1663 1.274 . S
C1674 C1668 1.495 . S
C1675 N1642 1.432 . S
C1675 C1676 1.381 . S
C1675 C1680 1.385 . S
C1676 C1675 1.381 . S
C1676 C1677 1.371 . S
C1676 H1698 0.932 . S
C1677 C1676 1.371 . S
C1677 C1678 1.400 . S
C1678 C1677 1.400 . S
C1678 C1679 1.351 . S
C1678 H1699 0.930 . S
C1679 C1678 1.351 . S
C1679 C1680 1.388 . S
C1680 C1675 1.385 . S
C1680 C1679 1.388 . S
C1680 H1700 0.929 . S
C1681 C1620 1.504 . S
C1681 N1651 1.309 . S
C1681 O1682 1.258 . S
O1682 C1681 1.258 . S
H1683 C1621 0.929 . S
H1684 C1622 0.932 . S
H1685 C1623 0.931 . S
H1686 C1628 0.929 . S
H1687 C1630 0.929 . S
H1688 C1632 0.931 . S
H1689 C1637 0.929 . S
H1690 C1639 0.932 . S
H1691 C1640 0.931 . S
H1692 C1645 0.930 . S
H1693 C1646 0.931 . S
H1694 C1647 0.930 . S
H1695 C1667 0.929 . S
H1696 C1669 0.930 . S
H1697 C1671 0.930 . S
H1698 C1676 0.932 . S
H1699 C1678 0.930 . S
H1700 C1680 0.929 . S
C1701 C1702 1.359 . S
C1701 N1706 1.330 . S
C1701 C1762 1.504 . S
C1702 C1701 1.359 . S
C1702 C1703 1.366 . S
C1702 H1764 0.929 . S
C1703 C1702 1.366 . S
C1703 C1704 1.415 . S
C1703 H1765 0.932 . S
C1704 C1703 1.415 . S
C1704 C1705 1.366 . S
C1704 H1766 0.931 . S
C1705 C1704 1.366 . S
C1705 N1706 1.325 . S
C1705 C1707 1.516 . S
N1706 C1701 1.330 . S
N1706 C1705 1.325 . S
N1706 Co1722 1.869 . S
C1707 C1705 1.516 . S
C1707 N1731 1.316 . S
C1707 O1754 1.263 . S
C1708 C1709 1.421 . S
C1708 C1713 1.360 . S
C1708 N1731 1.436 . S
C1709 C1708 1.421 . S
C1709 C1710 1.379 . S
C1709 H1767 0.929 . S
C1710 C1709 1.379 . S
C1710 C1711 1.417 . S
C1711 C1710 1.417 . S
C1711 C1712 1.352 . S
C1711 H1768 0.929 . S
C1712 C1711 1.352 . S
C1712 C1713 1.393 . S
C1713 C1708 1.360 . S
C1713 C1712 1.393 . S
C1713 H1769 0.931 . S
Cd1714 O1734 2.329 . S
Cd1714 O1736 2.350 . S
Cd1714 O1737 2.277 . S
Cd1714 O1739 2.173 . S
Cd1714 O1743 2.263 . S
Cd1714 O1754 2.366 . S
Cd1715 O1733 2.352 . S
Cd1715 O1740 2.250 . S
Cd1715 O1744 2.308 . S
C1716 C1720 1.403 . S
C1716 C1721 1.370 . S
C1716 N1732 1.423 . S
C1717 C1718 1.389 . S
C1717 C1721 1.389 . S
C1718 C1717 1.389 . S
C1718 C1719 1.379 . S
C1718 H1770 0.929 . S
C1719 C1718 1.379 . S
C1719 C1720 1.405 . S
C1720 C1716 1.403 . S
C1720 C1719 1.405 . S
C1720 H1771 0.932 . S
C1721 C1716 1.370 . S
C1721 C1717 1.389 . S
C1721 H1772 0.931 . S
Co1722 N1706 1.869 . S
Co1722 N1723 1.955 . S
Co1722 N1724 1.864 . S
Co1722 N1730 1.958 . S
Co1722 N1731 1.953 . S
Co1722 N1732 1.974 . S
N1723 Co1722 1.955 . S
N1723 C1741 1.329 . S
N1723 C1756 1.432 . S
N1724 Co1722 1.864 . S
N1724 C1725 1.327 . S
N1724 C1729 1.342 . S
C1725 N1724 1.327 . S
C1725 C1726 1.407 . S
C1725 C1741 1.481 . S
C1726 C1725 1.407 . S
C1726 C1727 1.364 . S
C1726 H1773 0.930 . S
C1727 C1726 1.364 . S
C1727 C1728 1.390 . S
C1727 H1774 0.931 . S
C1728 C1727 1.390 . S
C1728 C1729 1.346 . S
C1728 H1775 0.930 . S
C1729 N1724 1.342 . S
C1729 C1728 1.346 . S
C1729 C1745 1.516 . S
N1730 Co1722 1.958 . S
N1730 C1745 1.324 . S
N1730 C1747 1.427 . S
N1731 C1707 1.316 . S
N1731 C1708 1.436 . S
N1731 Co1722 1.953 . S
N1732 C1716 1.423 . S
N1732 Co1722 1.974 . S
N1732 C1762 1.309 . S
O1733 Cd1715 2.352 . S
O1733 C1753 1.235 . S
O1734 Cd1714 2.329 . S
O1734 C1753 1.270 . S
C1735 O1736 1.270 . S
C1735 O1737 1.248 . S
O1736 Cd1714 2.350 . S
O1736 C1735 1.270 . S
O1737 Cd1714 2.277 . S
O1737 C1735 1.248 . S
C1738 O1739 1.277 . S
C1738 O1740 1.230 . S
O1739 Cd1714 2.173 . S
O1739 C1738 1.277 . S
O1740 Cd1715 2.250 . S
O1740 C1738 1.230 . S
C1741 N1723 1.329 . S
C1741 C1725 1.481 . S
C1741 O1742 1.246 . S
O1742 C1741 1.246 . S
O1743 Cd1714 2.263 . S
O1743 C1755 1.258 . S
O1744 Cd1715 2.308 . S
O1744 C1755 1.274 . S
C1745 C1729 1.516 . S
C1745 N1730 1.324 . S
C1745 O1746 1.238 . S
O1746 C1745 1.238 . S
C1747 N1730 1.427 . S
C1747 C1748 1.394 . S
C1747 C1752 1.395 . S
C1748 C1747 1.394 . S
C1748 C1749 1.380 . S
C1748 H1776 0.929 . S
C1749 C1748 1.380 . S
C1749 C1750 1.384 . S
C1749 C1755 1.495 . S
C1750 C1749 1.384 . S
C1750 C1751 1.382 . S
C1750 H1777 0.930 . S
C1751 C1750 1.382 . S
C1751 C1752 1.398 . S
C1752 C1747 1.395 . S
C1752 C1751 1.398 . S
C1752 H1778 0.930 . S
C1753 O1733 1.235 . S
C1753 O1734 1.270 . S
O1754 C1707 1.263 . S
O1754 Cd1714 2.366 . S
C1755 O1743 1.258 . S
C1755 O1744 1.274 . S
C1755 C1749 1.495 . S
C1756 N1723 1.432 . S
C1756 C1757 1.381 . S
C1756 C1761 1.385 . S
C1757 C1756 1.381 . S
C1757 C1758 1.371 . S
C1757 H1779 0.932 . S
C1758 C1757 1.371 . S
C1758 C1759 1.400 . S
C1759 C1758 1.400 . S
C1759 C1760 1.351 . S
C1759 H1780 0.930 . S
C1760 C1759 1.351 . S
C1760 C1761 1.388 . S
C1761 C1756 1.385 . S
C1761 C1760 1.388 . S
C1761 H1781 0.929 . S
C1762 C1701 1.504 . S
C1762 N1732 1.309 . S
C1762 O1763 1.258 . S
O1763 C1762 1.258 . S
H1764 C1702 0.929 . S
H1765 C1703 0.932 . S
H1766 C1704 0.931 . S
H1767 C1709 0.929 . S
H1768 C1711 0.929 . S
H1769 C1713 0.931 . S
H1770 C1718 0.929 . S
H1771 C1720 0.932 . S
H1772 C1721 0.931 . S
H1773 C1726 0.930 . S
H1774 C1727 0.931 . S
H1775 C1728 0.930 . S
H1776 C1748 0.929 . S
H1777 C1750 0.930 . S
H1778 C1752 0.930 . S
H1779 C1757 0.932 . S
H1780 C1759 0.930 . S
H1781 C1761 0.929 . S
C1782 C1783 1.359 . S
C1782 N1787 1.330 . S
C1782 C1843 1.504 . S
C1783 C1782 1.359 . S
C1783 C1784 1.366 . S
C1783 H1845 0.929 . S
C1784 C1783 1.366 . S
C1784 C1785 1.415 . S
C1784 H1846 0.932 . S
C1785 C1784 1.415 . S
C1785 C1786 1.366 . S
C1785 H1847 0.931 . S
C1786 C1785 1.366 . S
C1786 N1787 1.325 . S
C1786 C1788 1.516 . S
N1787 C1782 1.330 . S
N1787 C1786 1.325 . S
N1787 Co1803 1.869 . S
C1788 C1786 1.516 . S
C1788 N1812 1.316 . S
C1788 O1835 1.263 . S
C1789 C1790 1.421 . S
C1789 C1794 1.360 . S
C1789 N1812 1.436 . S
C1790 C1789 1.421 . S
C1790 C1791 1.379 . S
C1790 H1848 0.929 . S
C1791 C1790 1.379 . S
C1791 C1792 1.417 . S
C1792 C1791 1.417 . S
C1792 C1793 1.352 . S
C1792 H1849 0.929 . S
C1793 C1792 1.352 . S
C1793 C1794 1.393 . S
C1794 C1789 1.360 . S
C1794 C1793 1.393 . S
C1794 H1850 0.931 . S
Cd1795 O1815 2.329 . S
Cd1795 O1817 2.350 . S
Cd1795 O1818 2.277 . S
Cd1795 O1820 2.173 . S
Cd1795 O1824 2.263 . S
Cd1795 O1835 2.366 . S
Cd1796 O1814 2.352 . S
Cd1796 O1821 2.250 . S
Cd1796 O1825 2.308 . S
C1797 C1801 1.403 . S
C1797 C1802 1.370 . S
C1797 N1813 1.423 . S
C1798 C1799 1.389 . S
C1798 C1802 1.389 . S
C1799 C1798 1.389 . S
C1799 C1800 1.379 . S
C1799 H1851 0.929 . S
C1800 C1799 1.379 . S
C1800 C1801 1.405 . S
C1801 C1797 1.403 . S
C1801 C1800 1.405 . S
C1801 H1852 0.932 . S
C1802 C1797 1.370 . S
C1802 C1798 1.389 . S
C1802 H1853 0.931 . S
Co1803 N1787 1.869 . S
Co1803 N1804 1.955 . S
Co1803 N1805 1.864 . S
Co1803 N1811 1.958 . S
Co1803 N1812 1.953 . S
Co1803 N1813 1.974 . S
N1804 Co1803 1.955 . S
N1804 C1822 1.329 . S
N1804 C1837 1.432 . S
N1805 Co1803 1.864 . S
N1805 C1806 1.327 . S
N1805 C1810 1.342 . S
C1806 N1805 1.327 . S
C1806 C1807 1.407 . S
C1806 C1822 1.481 . S
C1807 C1806 1.407 . S
C1807 C1808 1.364 . S
C1807 H1854 0.930 . S
C1808 C1807 1.364 . S
C1808 C1809 1.390 . S
C1808 H1855 0.931 . S
C1809 C1808 1.390 . S
C1809 C1810 1.346 . S
C1809 H1856 0.930 . S
C1810 N1805 1.342 . S
C1810 C1809 1.346 . S
C1810 C1826 1.516 . S
N1811 Co1803 1.958 . S
N1811 C1826 1.324 . S
N1811 C1828 1.427 . S
N1812 C1788 1.316 . S
N1812 C1789 1.436 . S
N1812 Co1803 1.953 . S
N1813 C1797 1.423 . S
N1813 Co1803 1.974 . S
N1813 C1843 1.309 . S
O1814 Cd1796 2.352 . S
O1814 C1834 1.235 . S
O1815 Cd1795 2.329 . S
O1815 C1834 1.270 . S
C1816 O1817 1.270 . S
C1816 O1818 1.248 . S
O1817 Cd1795 2.350 . S
O1817 C1816 1.270 . S
O1818 Cd1795 2.277 . S
O1818 C1816 1.248 . S
C1819 O1820 1.277 . S
C1819 O1821 1.230 . S
O1820 Cd1795 2.173 . S
O1820 C1819 1.277 . S
O1821 Cd1796 2.250 . S
O1821 C1819 1.230 . S
C1822 N1804 1.329 . S
C1822 C1806 1.481 . S
C1822 O1823 1.246 . S
O1823 C1822 1.246 . S
O1824 Cd1795 2.263 . S
O1824 C1836 1.258 . S
O1825 Cd1796 2.308 . S
O1825 C1836 1.274 . S
C1826 C1810 1.516 . S
C1826 N1811 1.324 . S
C1826 O1827 1.238 . S
O1827 C1826 1.238 . S
C1828 N1811 1.427 . S
C1828 C1829 1.394 . S
C1828 C1833 1.395 . S
C1829 C1828 1.394 . S
C1829 C1830 1.380 . S
C1829 H1857 0.929 . S
C1830 C1829 1.380 . S
C1830 C1831 1.384 . S
C1830 C1836 1.495 . S
C1831 C1830 1.384 . S
C1831 C1832 1.382 . S
C1831 H1858 0.930 . S
C1832 C1831 1.382 . S
C1832 C1833 1.398 . S
C1833 C1828 1.395 . S
C1833 C1832 1.398 . S
C1833 H1859 0.930 . S
C1834 O1814 1.235 . S
C1834 O1815 1.270 . S
O1835 C1788 1.263 . S
O1835 Cd1795 2.366 . S
C1836 O1824 1.258 . S
C1836 O1825 1.274 . S
C1836 C1830 1.495 . S
C1837 N1804 1.432 . S
C1837 C1838 1.381 . S
C1837 C1842 1.385 . S
C1838 C1837 1.381 . S
C1838 C1839 1.371 . S
C1838 H1860 0.932 . S
C1839 C1838 1.371 . S
C1839 C1840 1.400 . S
C1840 C1839 1.400 . S
C1840 C1841 1.351 . S
C1840 H1861 0.930 . S
C1841 C1840 1.351 . S
C1841 C1842 1.388 . S
C1842 C1837 1.385 . S
C1842 C1841 1.388 . S
C1842 H1862 0.929 . S
C1843 C1782 1.504 . S
C1843 N1813 1.309 . S
C1843 O1844 1.258 . S
O1844 C1843 1.258 . S
H1845 C1783 0.929 . S
H1846 C1784 0.932 . S
H1847 C1785 0.931 . S
H1848 C1790 0.929 . S
H1849 C1792 0.929 . S
H1850 C1794 0.931 . S
H1851 C1799 0.929 . S
H1852 C1801 0.932 . S
H1853 C1802 0.931 . S
H1854 C1807 0.930 . S
H1855 C1808 0.931 . S
H1856 C1809 0.930 . S
H1857 C1829 0.929 . S
H1858 C1831 0.930 . S
H1859 C1833 0.930 . S
H1860 C1838 0.932 . S
H1861 C1840 0.930 . S
H1862 C1842 0.929 . S
C1863 C1864 1.359 . S
C1863 N1868 1.330 . S
C1863 C1924 1.504 . S
C1864 C1863 1.359 . S
C1864 C1865 1.366 . S
C1864 H1926 0.929 . S
C1865 C1864 1.366 . S
C1865 C1866 1.415 . S
C1865 H1927 0.932 . S
C1866 C1865 1.415 . S
C1866 C1867 1.366 . S
C1866 H1928 0.931 . S
C1867 C1866 1.366 . S
C1867 N1868 1.325 . S
C1867 C1869 1.516 . S
N1868 C1863 1.330 . S
N1868 C1867 1.325 . S
N1868 Co1884 1.869 . S
C1869 C1867 1.516 . S
C1869 N1893 1.316 . S
C1869 O1916 1.263 . S
C1870 C1871 1.421 . S
C1870 C1875 1.360 . S
C1870 N1893 1.436 . S
C1871 C1870 1.421 . S
C1871 C1872 1.379 . S
C1871 H1929 0.929 . S
C1872 C1871 1.379 . S
C1872 C1873 1.417 . S
C1873 C1872 1.417 . S
C1873 C1874 1.352 . S
C1873 H1930 0.929 . S
C1874 C1873 1.352 . S
C1874 C1875 1.393 . S
C1875 C1870 1.360 . S
C1875 C1874 1.393 . S
C1875 H1931 0.931 . S
Cd1876 O1896 2.329 . S
Cd1876 O1898 2.350 . S
Cd1876 O1899 2.277 . S
Cd1876 O1901 2.173 . S
Cd1876 O1905 2.263 . S
Cd1876 O1916 2.366 . S
Cd1877 O1895 2.352 . S
Cd1877 O1902 2.250 . S
Cd1877 O1906 2.308 . S
C1878 C1882 1.403 . S
C1878 C1883 1.370 . S
C1878 N1894 1.423 . S
C1879 C1880 1.389 . S
C1879 C1883 1.389 . S
C1880 C1879 1.389 . S
C1880 C1881 1.379 . S
C1880 H1932 0.929 . S
C1881 C1880 1.379 . S
C1881 C1882 1.405 . S
C1882 C1878 1.403 . S
C1882 C1881 1.405 . S
C1882 H1933 0.932 . S
C1883 C1878 1.370 . S
C1883 C1879 1.389 . S
C1883 H1934 0.931 . S
Co1884 N1868 1.869 . S
Co1884 N1885 1.955 . S
Co1884 N1886 1.864 . S
Co1884 N1892 1.958 . S
Co1884 N1893 1.953 . S
Co1884 N1894 1.974 . S
N1885 Co1884 1.955 . S
N1885 C1903 1.329 . S
N1885 C1918 1.432 . S
N1886 Co1884 1.864 . S
N1886 C1887 1.327 . S
N1886 C1891 1.342 . S
C1887 N1886 1.327 . S
C1887 C1888 1.407 . S
C1887 C1903 1.481 . S
C1888 C1887 1.407 . S
C1888 C1889 1.364 . S
C1888 H1935 0.930 . S
C1889 C1888 1.364 . S
C1889 C1890 1.390 . S
C1889 H1936 0.931 . S
C1890 C1889 1.390 . S
C1890 C1891 1.346 . S
C1890 H1937 0.930 . S
C1891 N1886 1.342 . S
C1891 C1890 1.346 . S
C1891 C1907 1.516 . S
N1892 Co1884 1.958 . S
N1892 C1907 1.324 . S
N1892 C1909 1.427 . S
N1893 C1869 1.316 . S
N1893 C1870 1.436 . S
N1893 Co1884 1.953 . S
N1894 C1878 1.423 . S
N1894 Co1884 1.974 . S
N1894 C1924 1.309 . S
O1895 Cd1877 2.352 . S
O1895 C1915 1.235 . S
O1896 Cd1876 2.329 . S
O1896 C1915 1.270 . S
C1897 O1898 1.270 . S
C1897 O1899 1.248 . S
O1898 Cd1876 2.350 . S
O1898 C1897 1.270 . S
O1899 Cd1876 2.277 . S
O1899 C1897 1.248 . S
C1900 O1901 1.277 . S
C1900 O1902 1.230 . S
O1901 Cd1876 2.173 . S
O1901 C1900 1.277 . S
O1902 Cd1877 2.250 . S
O1902 C1900 1.230 . S
C1903 N1885 1.329 . S
C1903 C1887 1.481 . S
C1903 O1904 1.246 . S
O1904 C1903 1.246 . S
O1905 Cd1876 2.263 . S
O1905 C1917 1.258 . S
O1906 Cd1877 2.308 . S
O1906 C1917 1.274 . S
C1907 C1891 1.516 . S
C1907 N1892 1.324 . S
C1907 O1908 1.238 . S
O1908 C1907 1.238 . S
C1909 N1892 1.427 . S
C1909 C1910 1.394 . S
C1909 C1914 1.395 . S
C1910 C1909 1.394 . S
C1910 C1911 1.380 . S
C1910 H1938 0.929 . S
C1911 C1910 1.380 . S
C1911 C1912 1.384 . S
C1911 C1917 1.495 . S
C1912 C1911 1.384 . S
C1912 C1913 1.382 . S
C1912 H1939 0.930 . S
C1913 C1912 1.382 . S
C1913 C1914 1.398 . S
C1914 C1909 1.395 . S
C1914 C1913 1.398 . S
C1914 H1940 0.930 . S
C1915 O1895 1.235 . S
C1915 O1896 1.270 . S
O1916 C1869 1.263 . S
O1916 Cd1876 2.366 . S
C1917 O1905 1.258 . S
C1917 O1906 1.274 . S
C1917 C1911 1.495 . S
C1918 N1885 1.432 . S
C1918 C1919 1.381 . S
C1918 C1923 1.385 . S
C1919 C1918 1.381 . S
C1919 C1920 1.371 . S
C1919 H1941 0.932 . S
C1920 C1919 1.371 . S
C1920 C1921 1.400 . S
C1921 C1920 1.400 . S
C1921 C1922 1.351 . S
C1921 H1942 0.930 . S
C1922 C1921 1.351 . S
C1922 C1923 1.388 . S
C1923 C1918 1.385 . S
C1923 C1922 1.388 . S
C1923 H1943 0.929 . S
C1924 C1863 1.504 . S
C1924 N1894 1.309 . S
C1924 O1925 1.258 . S
O1925 C1924 1.258 . S
H1926 C1864 0.929 . S
H1927 C1865 0.932 . S
H1928 C1866 0.931 . S
H1929 C1871 0.929 . S
H1930 C1873 0.929 . S
H1931 C1875 0.931 . S
H1932 C1880 0.929 . S
H1933 C1882 0.932 . S
H1934 C1883 0.931 . S
H1935 C1888 0.930 . S
H1936 C1889 0.931 . S
H1937 C1890 0.930 . S
H1938 C1910 0.929 . S
H1939 C1912 0.930 . S
H1940 C1914 0.930 . S
H1941 C1919 0.932 . S
H1942 C1921 0.930 . S
H1943 C1923 0.929 . S
C59 C1090 2.636 . S
C140 C1171 2.636 . S
C221 C1252 2.636 . S
C302 C1009 2.636 . S
C383 C928 2.636 . S
C464 C685 2.636 . S
C545 C766 2.636 . S
C626 C847 2.636 . S
C707 C118 2.636 . S
C788 C199 2.636 . S
C869 C280 2.636 . S
C950 C37 2.636 . S
C604 C1031 2.636 . S
C1112 C361 2.636 . S
C1193 C442 2.636 . S
C1274 C523 2.636 . S
C1355 C1819 2.636 . S
C1436 C1495 2.636 . S
C1517 C1576 2.636 . S
C1598 C1657 2.636 . S
C1679 C1414 2.636 . S
C1760 C1900 2.636 . S
C1841 C1738 2.636 . S
C1922 C1333 2.636 . S
C50 C1832 4.195 . S
C131 C1346 4.195 . S
C1913 C212 4.195 . S
C1751 C293 4.195 . S
C374 C1508 4.195 . S
C455 C1589 4.195 . S
C1670 C536 4.195 . S
C1427 C617 4.195 . S
C1103 C698 4.195 . S
C1184 C779 4.195 . S
C1265 C860 4.195 . S
C941 C1022 4.195 . S
C214 C52 2.207 1_655 S
C295 C133 2.207 1_565 S
C538 C376 2.207 1_655 S
C619 C457 2.207 1_565 S
C1024 C700 2.207 1_565 S
C781 C1105 2.207 1_655 S
C862 C1186 2.207 1_565 S
C1267 C943 2.207 1_655 S
C1591 C1348 2.207 1_556 S
C1429 C1753 2.207 1_556 S
C1510 C1834 2.207 1_556 S
C1672 C1915 2.207 1_556 S
C664 C18 2.026 . S
C99 C745 2.026 . S
C180 C826 2.026 . S
C907 C261 2.026 . S
C342 C988 2.026 . S
C423 C1069 2.026 . S
C1150 C504 2.026 . S
C585 C1231 2.026 . S
C1312 C666 2.026 . S
C1879 C747 2.026 . S
C1717 C828 2.026 . S
C1798 C909 2.026 . S
C990 C1393 2.026 . S
C1071 C1474 2.026 . S
C1152 C1555 2.026 . S
C1233 C1636 2.026 . S
C1314 C16 2.026 . S
C340 C1395 2.026 . S
C421 C1476 2.026 . S
C1557 C502 2.026 . S
C1638 C583 2.026 . S
C1719 C178 2.026 . S
C1800 C259 2.026 . S
C1881 C97 2.026 . S
C763 C34 4.949 1_655 S
C844 C115 4.949 1_565 S
C196 C925 4.949 1_655 S
C277 C682 4.949 1_565 S
C1249 C358 4.949 1_655 S
C1006 C439 4.949 1_565 S
C520 C1087 4.949 1_655 S
C601 C1168 4.949 1_565 S
C1492 C1330 4.949 1_556 S
C1411 C1816 4.949 1_556 S
C1573 C1897 4.949 1_556 S
C1654 C1735 4.949 1_556 S
