# Generated by pormake.
# Topology lcy-e, (6)-cn, num edge types: 1
# Building blocks:
#     Node 0, Type 0, BuildingBlock: KUMJIN_clean_sbu_0, # of connection points: 6
#     Node 1, Type 0, BuildingBlock: KUMJIN_clean_sbu_0, # of connection points: 6
#     Node 2, Type 0, BuildingBlock: KUMJIN_clean_sbu_0, # of connection points: 6
#     Node 3, Type 0, BuildingBlock: KUMJIN_clean_sbu_0, # of connection points: 6
#     Node 4, Type 0, BuildingBlock: KUMJIN_clean_sbu_0, # of connection points: 6
#     Node 5, Type 0, BuildingBlock: KUMJIN_clean_sbu_0, # of connection points: 6
#     Node 6, Type 0, BuildingBlock: KUMJIN_clean_sbu_0, # of connection points: 6
#     Node 7, Type 0, BuildingBlock: KUMJIN_clean_sbu_0, # of connection points: 6
#     Node 8, Type 0, BuildingBlock: KUMJIN_clean_sbu_0, # of connection points: 6
#     Node 9, Type 0, BuildingBlock: KUMJIN_clean_sbu_0, # of connection points: 6
#     Node 10, Type 0, BuildingBlock: KUMJIN_clean_sbu_0, # of connection points: 6
#     Node 11, Type 0, BuildingBlock: KUMJIN_clean_sbu_0, # of connection points: 6
#     Edge 12, Type (0, 0), BuildingBlock: OJICUG_clean_linker_0, # of connection points: 2
#     Edge 13, Type (0, 0), BuildingBlock: OJICUG_clean_linker_0, # of connection points: 2
#     Edge 14, Type (0, 0), BuildingBlock: OJICUG_clean_linker_0, # of connection points: 2
#     Edge 15, Type (0, 0), BuildingBlock: OJICUG_clean_linker_0, # of connection points: 2
#     Edge 16, Type (0, 0), BuildingBlock: OJICUG_clean_linker_0, # of connection points: 2
#     Edge 17, Type (0, 0), BuildingBlock: OJICUG_clean_linker_0, # of connection points: 2
#     Edge 18, Type (0, 0), BuildingBlock: OJICUG_clean_linker_0, # of connection points: 2
#     Edge 19, Type (0, 0), BuildingBlock: OJICUG_clean_linker_0, # of connection points: 2
#     Edge 20, Type (0, 0), BuildingBlock: OJICUG_clean_linker_0, # of connection points: 2
#     Edge 21, Type (0, 0), BuildingBlock: OJICUG_clean_linker_0, # of connection points: 2
#     Edge 22, Type (0, 0), BuildingBlock: OJICUG_clean_linker_0, # of connection points: 2
#     Edge 23, Type (0, 0), BuildingBlock: OJICUG_clean_linker_0, # of connection points: 2
#     Edge 24, Type (0, 0), BuildingBlock: OJICUG_clean_linker_0, # of connection points: 2
#     Edge 25, Type (0, 0), BuildingBlock: OJICUG_clean_linker_0, # of connection points: 2
#     Edge 26, Type (0, 0), BuildingBlock: OJICUG_clean_linker_0, # of connection points: 2
#     Edge 27, Type (0, 0), BuildingBlock: OJICUG_clean_linker_0, # of connection points: 2
#     Edge 28, Type (0, 0), BuildingBlock: OJICUG_clean_linker_0, # of connection points: 2
#     Edge 29, Type (0, 0), BuildingBlock: OJICUG_clean_linker_0, # of connection points: 2
#     Edge 30, Type (0, 0), BuildingBlock: OJICUG_clean_linker_0, # of connection points: 2
#     Edge 31, Type (0, 0), BuildingBlock: OJICUG_clean_linker_0, # of connection points: 2
#     Edge 32, Type (0, 0), BuildingBlock: OJICUG_clean_linker_0, # of connection points: 2
#     Edge 33, Type (0, 0), BuildingBlock: OJICUG_clean_linker_0, # of connection points: 2
#     Edge 34, Type (0, 0), BuildingBlock: OJICUG_clean_linker_0, # of connection points: 2
#     Edge 35, Type (0, 0), BuildingBlock: OJICUG_clean_linker_0, # of connection points: 2
#     Edge 36, Type (0, 0), BuildingBlock: OJICUG_clean_linker_0, # of connection points: 2
#     Edge 37, Type (0, 0), BuildingBlock: OJICUG_clean_linker_0, # of connection points: 2
#     Edge 38, Type (0, 0), BuildingBlock: OJICUG_clean_linker_0, # of connection points: 2
#     Edge 39, Type (0, 0), BuildingBlock: OJICUG_clean_linker_0, # of connection points: 2
#     Edge 40, Type (0, 0), BuildingBlock: OJICUG_clean_linker_0, # of connection points: 2
#     Edge 41, Type (0, 0), BuildingBlock: OJICUG_clean_linker_0, # of connection points: 2
#     Edge 42, Type (0, 0), BuildingBlock: OJICUG_clean_linker_0, # of connection points: 2
#     Edge 43, Type (0, 0), BuildingBlock: OJICUG_clean_linker_0, # of connection points: 2
#     Edge 44, Type (0, 0), BuildingBlock: OJICUG_clean_linker_0, # of connection points: 2
#     Edge 45, Type (0, 0), BuildingBlock: OJICUG_clean_linker_0, # of connection points: 2
#     Edge 46, Type (0, 0), BuildingBlock: OJICUG_clean_linker_0, # of connection points: 2
#     Edge 47, Type (0, 0), BuildingBlock: OJICUG_clean_linker_0, # of connection points: 2
# Relax obj value: 0.100
# Max RMSD: 0.294
# Mean RMSD: 0.293
data_MOF--net-lcy-e--node1-KUMJIN_clean_sbu_0--edge1-OJICUG_clean_linker_0
_symmetry_space_group_name_H-M    P1
_symmetry_Int_Tables_number       1
_symmetry_cell_setting            triclinic
loop_
_symmetry_equiv_pos_as_xyz
'x, y, z'
_cell_length_a     33.894076
_cell_length_b     33.938944
_cell_length_c     33.785241
_cell_angle_alpha  89.649863
_cell_angle_beta   90.718802
_cell_angle_gamma 90.62193
loop_
_atom_site_label
_atom_site_type_symbol
_atom_site_fract_x
_atom_site_fract_y
_atom_site_fract_z
_atom_type_partial_charge
Eu0 Eu 0.14629 0.21481 0.55419 0.0
C1 C 0.04139 0.2949 0.43523 0.0
C2 C 0.04139 0.24876 0.38055 0.0
C3 C 0.98728 0.29436 0.38713 0.0
C4 C 0.06005 0.26535 0.41425 0.0
C5 C 1.00468 0.30949 0.42174 0.0
C6 C 1.00522 0.26364 0.36698 0.0
C7 C 1.00555 0.35487 0.47636 0.0
N8 N 0.05908 0.30976 0.46831 0.0
C9 C 0.04214 0.3402 0.48823 0.0
C10 C 0.98667 0.33943 0.44301 0.0
Eu11 Eu 0.12485 0.28935 0.47957 0.0
N12 N 0.0959 0.25232 0.42696 0.0
C13 C 0.11402 0.22222 0.40764 0.0
C14 C 0.05965 0.21773 0.36119 0.0
C15 C 0.09596 0.20425 0.37499 0.0
H16 H 0.05733 0.35498 0.51226 0.0
H17 H 0.11019 0.18002 0.3604 0.0
H18 H 0.99077 0.2515 0.34093 0.0
H19 H 0.99248 0.37892 0.49232 0.0
H20 H 0.14172 0.21051 0.41773 0.0
H21 H 0.16828 0.29675 0.69089 0.0
H22 H 0.04591 0.20393 0.33561 0.0
H23 H 0.20316 0.13689 0.53007 0.0
H24 H 0.13049 0.26164 0.63908 0.0
H25 H 0.27324 0.11727 0.53648 0.0
H26 H 0.95934 0.30553 0.37621 0.0
H27 H 0.24138 0.29668 0.68974 0.0
H28 H 0.30279 0.26784 0.66144 0.0
H29 H 0.95854 0.35132 0.4335 0.0
H30 H 0.33169 0.21689 0.6195 0.0
N31 N 0.1807 0.24548 0.60701 0.0
C32 C 0.16198 0.26383 0.63696 0.0
C33 C 0.22467 0.28238 0.66627 0.0
C34 C 0.24355 0.25977 0.63782 0.0
C35 C 0.18351 0.28291 0.66681 0.0
C36 C 0.22026 0.2406 0.60872 0.0
H37 H 0.32051 0.15928 0.57397 0.0
N38 N 0.2117 0.19039 0.56173 0.0
C39 C 0.26332 0.14413 0.55008 0.0
C40 C 0.23636 0.21178 0.58543 0.0
C41 C 0.22376 0.15512 0.54669 0.0
C42 C 0.28997 0.16805 0.57109 0.0
C43 C 0.27634 0.20161 0.59026 0.0
O44 O 0.12822 0.15315 0.56119 0.0
O45 O 0.10365 0.23453 0.50817 0.0
O46 O 0.09742 0.3065 0.53996 0.0
O47 O 0.09259 0.24706 0.57392 0.0
O48 O 0.11905 0.17593 0.50585 0.0
O49 O 0.12237 0.19251 0.61026 0.0
O50 O 0.12384 0.3536 0.4739 0.0
O51 O 0.15318 0.28102 0.53933 0.0
O52 O 0.19455 0.21443 0.50911 0.0
O53 O 0.17711 0.25487 0.4559 0.0
O54 O 0.1874 0.305 0.4953 0.0
O55 O 0.14318 0.31754 0.42411 0.0
C56 C 0.09531 0.20224 0.49197 0.0
C57 C 0.12999 0.12449 0.62478 0.0
C58 C 0.11471 0.06438 0.66228 0.0
C59 C 0.10221 0.09625 0.63839 0.0
C60 C 0.1549 0.06101 0.67191 0.0
C61 C 0.16992 0.12054 0.63515 0.0
C62 C 0.18225 0.08885 0.65846 0.0
C63 C 0.0837 0.28441 0.5697 0.0
C64 C 0.11768 0.15652 0.59787 0.0
C65 C 0.30068 0.22369 0.61602 0.0
C66 C 0.28426 0.25278 0.63983 0.0
C67 C 0.18507 0.30024 0.53301 0.0
C68 C 0.14168 0.38863 0.41343 0.0
C69 C 0.16567 0.38878 0.37949 0.0
C70 C 0.16897 0.42307 0.356 0.0
C71 C 0.14713 0.45649 0.36614 0.0
C72 C 0.12072 0.42258 0.4231 0.0
C73 C 0.12326 0.45617 0.39939 0.0
C74 C 0.20067 0.22919 0.47362 0.0
C75 C 0.13566 0.35264 0.4373 0.0
H76 H 0.07138 0.09867 0.62991 0.0
H77 H 0.16525 0.03621 0.6892 0.0
H78 H 0.19162 0.14171 0.62488 0.0
H79 H 0.21322 0.08557 0.66578 0.0
H80 H 0.18196 0.3627 0.37169 0.0
H81 H 0.14837 0.48298 0.3481 0.0
H82 H 0.10154 0.42286 0.44851 0.0
H83 H 0.10649 0.48204 0.4067 0.0
Eu84 Eu 0.98389 0.87114 0.73894 0.0
C85 C 0.10441 0.97799 0.8125 0.0
C86 C 0.15543 0.97881 0.76261 0.0
C87 C 0.14879 0.03463 0.8064 0.0
C88 C 0.12392 0.95931 0.7819 0.0
C89 C 0.11688 0.01587 0.82495 0.0
C90 C 0.16791 0.01623 0.77528 0.0
C91 C 0.06601 0.01416 0.87419 0.0
N92 N 0.07311 0.95965 0.82977 0.0
C93 C 0.05466 0.97678 0.86108 0.0
C94 C 0.09714 0.03388 0.85597 0.0
Eu95 Eu 0.06175 0.89349 0.81043 0.0
N96 N 0.11136 0.92299 0.76996 0.0
C97 C 0.12914 0.90505 0.73866 0.0
C98 C 0.1733 0.96047 0.73067 0.0
C99 C 0.15977 0.92368 0.7184 0.0
H100 H 0.03224 0.96124 0.87757 0.0
H101 H 0.17297 0.90952 0.69326 0.0
H102 H 0.19224 0.03135 0.761 0.0
H103 H 0.05124 0.02737 0.89895 0.0
H104 H 0.11931 0.87704 0.72755 0.0
H105 H 0.85865 0.84626 0.83541 0.0
H106 H 0.19733 0.97464 0.71501 0.0
H107 H 1.00548 0.81813 0.65787 0.0
H108 H 0.90958 0.88448 0.79961 0.0
H109 H 0.9958 0.75017 0.63293 0.0
H110 H 0.1588 0.06357 0.81577 0.0
H111 H 0.85102 0.77485 0.8222 0.0
H112 H 0.87119 0.71608 0.78249 0.0
H113 H 0.10609 0.06277 0.86646 0.0
H114 H 0.90964 0.68952 0.72757 0.0
N115 N 0.93364 0.8355 0.77174 0.0
C116 C 0.90813 0.85334 0.79643 0.0
C117 C 0.87414 0.7916 0.8077 0.0
C118 C 0.89846 0.77404 0.77975 0.0
C119 C 0.87851 0.83176 0.81546 0.0
C120 C 0.92815 0.79725 0.76174 0.0
H121 H 0.95582 0.70218 0.67114 0.0
N122 N 0.97445 0.80727 0.71126 0.0
C123 C 0.98297 0.75872 0.66072 0.0
C124 C 0.94963 0.78247 0.73079 0.0
C125 C 0.98845 0.79704 0.67489 0.0
C126 C 0.96053 0.73169 0.68246 0.0
C127 C 0.94226 0.74385 0.71717 0.0
O128 O 0.97205 0.89295 0.67917 0.0
O129 O 0.03094 0.91514 0.75518 0.0
O130 O 1.00208 0.9194 0.83139 0.0
O131 O 0.97131 0.92739 0.77055 0.0
O132 O 0.03009 0.8943 0.69718 0.0
O133 O 0.92541 0.89311 0.72177 0.0
O134 O 0.07369 0.89626 0.8737 0.0
O135 O 1.00226 0.86404 0.80376 0.0
O136 O 0.03121 0.82617 0.73213 0.0
O137 O 0.08389 0.84262 0.77433 0.0
O138 O 0.04597 0.83154 0.82966 0.0
O139 O 0.11931 0.87352 0.83489 0.0
C140 C 0.04481 0.92057 0.72087 0.0
C141 C 0.90796 0.88706 0.65382 0.0
C142 C 0.87702 0.89931 0.58952 0.0
C143 C 0.89945 0.91268 0.62208 0.0
C144 C 0.86264 0.86035 0.5893 0.0
C145 C 0.89316 0.84832 0.65332 0.0
C146 C 0.87048 0.83513 0.62118 0.0
C147 C 0.974 0.93516 0.80847 0.0
C148 C 0.93515 0.90022 0.68526 0.0
C149 C 0.91517 0.71949 0.73719 0.0
C150 C 0.8932 0.73462 0.76839 0.0
C151 C 1.0085 0.83232 0.82302 0.0
C152 C 0.13539 0.87773 0.9064 0.0
C153 C 0.17146 0.85638 0.90643 0.0
C154 C 0.19448 0.85277 0.94187 0.0
C155 C 0.1807 0.87118 0.97615 0.0
C156 C 0.12385 0.89635 0.94129 0.0
C157 C 0.14633 0.89311 0.9757 0.0
C158 C 0.06702 0.82101 0.74646 0.0
C159 C 0.10943 0.88265 0.87084 0.0
H160 H 0.9112 0.94254 0.62215 0.0
H161 H 0.84505 0.84957 0.56456 0.0
H162 H 0.89955 0.82819 0.67745 0.0
H163 H 0.85924 0.80517 0.62081 0.0
H164 H 0.18109 0.84234 0.87957 0.0
H165 H 0.19677 0.86898 1.00371 0.0
H166 H 0.09721 0.91369 0.94212 0.0
H167 H 0.13693 0.90761 1.00238 0.0
Eu168 Eu 0.41374 0.73321 0.97976 0.0
C169 C 0.29894 0.84883 0.06267 0.0
C170 C 0.29764 0.89972 1.01211 0.0
C171 C 0.2449 0.89527 0.06005 0.0
C172 C 0.3162 0.86742 0.03067 0.0
C173 C 0.26293 0.86235 0.0776 0.0
C174 C 0.26206 0.91374 0.02716 0.0
C175 C 0.26628 0.81091 0.12728 0.0
N176 N 0.31744 0.81754 0.07927 0.0
C177 C 0.30235 0.79913 0.11185 0.0
C178 C 0.2464 0.84263 0.11001 0.0
Eu179 Eu 0.3806 0.80289 0.05549 0.0
N180 N 0.35089 0.85351 1.01733 0.0
C181 C 0.3692 0.87131 0.98609 0.0
C182 C 0.31555 0.91712 0.97917 0.0
C183 C 0.35154 0.90284 0.96613 0.0
H184 H 0.31842 0.77554 0.12616 0.0
H185 H 0.36585 0.91624 0.94087 0.0
H186 H 0.24743 0.93864 1.01342 0.0
H187 H 0.25416 0.79593 0.15282 0.0
H188 H 0.39704 0.86089 0.97586 0.0
H189 H 0.42169 0.59996 0.07326 0.0
H190 H 0.30201 0.94172 0.96381 0.0
H191 H 0.47916 0.76521 0.91211 0.0
H192 H 0.39449 0.6621 0.05111 0.0
H193 H 0.54653 0.7514 0.89117 0.0
H194 H 0.21731 0.90625 0.07121 0.0
H195 H 0.48918 0.58186 0.05423 0.0
H196 H 0.55102 0.59937 1.01873 0.0
H197 H 0.21864 0.85197 0.12221 0.0
H198 H 0.58603 0.64218 0.97172 0.0
N199 N 0.4422 0.6779 1.01341 0.0
C200 C 0.42194 0.65369 0.03889 0.0
C201 C 0.47627 0.60863 0.04247 0.0
C202 C 0.49769 0.63395 1.01774 0.0
C203 C 0.43809 0.61849 0.05294 0.0
C204 C 0.47947 0.66851 1.00291 0.0
H205 H 0.58459 0.69856 0.924 0.0
N206 N 0.48005 0.72402 0.96012 0.0
C207 C 0.53405 0.73531 0.91585 0.0
C208 C 0.4992 0.69269 0.97631 0.0
C209 C 0.49604 0.74365 0.92853 0.0
C210 C 0.5553 0.70534 0.9343 0.0
C211 C 0.5376 0.68286 0.96412 0.0
O212 O 0.40907 0.72712 0.9158 0.0
O213 O 0.37219 0.78034 0.99591 0.0
O214 O 0.33745 0.74798 0.05763 0.0
O215 O 0.3636 0.70747 1.00928 0.0
O216 O 0.36709 0.76226 0.93907 0.0
O217 O 0.38799 0.67962 0.95376 0.0
O218 O 0.39282 0.81693 0.11672 0.0
O219 O 0.42641 0.75547 0.04488 0.0
O220 O 0.44459 0.78947 0.9679 0.0
O221 O 0.44016 0.82203 0.02795 0.0
O222 O 0.38981 0.75108 0.09445 0.0
O223 O 0.41076 0.8591 0.07284 0.0
C224 C 0.35102 0.78406 0.96502 0.0
C225 C 0.39785 0.66529 0.88543 0.0
C226 C 0.37244 0.62858 0.82844 0.0
C227 C 0.36588 0.65289 0.86121 0.0
C228 C 0.41109 0.61694 0.82019 0.0
C229 C 0.43619 0.65341 0.87672 0.0
C230 C 0.44271 0.62936 0.84414 0.0
C231 C 0.33801 0.71449 0.03649 0.0
C232 C 0.39087 0.69307 0.91758 0.0
C233 C 0.55644 0.64982 0.98048 0.0
C234 C 0.53647 0.62534 1.00711 0.0
C235 C 0.42121 0.73721 0.07847 0.0
C236 C 0.40294 0.88264 0.14039 0.0
C237 C 0.42659 0.91782 0.14258 0.0
C238 C 0.42473 0.94279 0.17636 0.0
C239 C 0.39957 0.9315 0.20713 0.0
C240 C 0.37644 0.87453 0.17116 0.0
C241 C 0.37515 0.8985 0.20424 0.0
C242 C 0.45616 0.81677 0.9927 0.0
C243 C 0.4097 0.85099 0.11049 0.0
H244 H 0.33617 0.66228 0.86766 0.0
H245 H 0.4168 0.59833 0.795 0.0
H246 H 0.46103 0.66317 0.89476 0.0
H247 H 0.4724 0.62047 0.83727 0.0
H248 H 0.44724 0.92474 0.11926 0.0
H249 H 0.39866 0.94852 0.23375 0.0
H250 H 0.35776 0.84844 0.17075 0.0
H251 H 0.35564 0.89096 0.22832 0.0
Eu252 Eu 0.5485 0.15097 0.23196 0.0
C253 C 0.43541 0.04369 0.30729 0.0
C254 C 0.38103 0.04422 0.25974 0.0
C255 C 0.39047 0.98741 0.30257 0.0
C256 C 0.41367 0.06326 0.27802 0.0
C257 C 0.42399 1.00539 0.31948 0.0
C258 C 0.36904 1.00681 0.27286 0.0
C259 C 0.47806 1.00586 0.36653 0.0
N260 N 0.46741 0.06186 0.32395 0.0
C261 C 0.48789 0.04398 0.3542 0.0
C262 C 0.44609 0.98638 0.34898 0.0
Eu263 Eu 0.47653 0.12868 0.30585 0.0
N264 N 0.42475 0.10029 0.26675 0.0
C265 C 0.40494 0.11909 0.23658 0.0
C266 C 0.36127 0.06319 0.22863 0.0
C267 C 0.37354 0.10062 0.21679 0.0
H268 H 0.51091 0.05932 0.37041 0.0
H269 H 0.3587 0.11543 0.19246 0.0
H270 H 0.34366 0.99214 0.25953 0.0
H271 H 0.49454 0.99195 0.39034 0.0
H272 H 0.41365 0.14771 0.22608 0.0
H273 H 0.68292 0.171 0.32135 0.0
H274 H 0.33664 0.0491 0.2134 0.0
H275 H 0.5259 0.20886 0.1527 0.0
H276 H 0.63263 0.13364 0.28336 0.0
H277 H 0.53338 0.27885 0.13255 0.0
H278 H 0.38114 0.95819 0.31186 0.0
H279 H 0.68286 0.24392 0.31913 0.0
H280 H 0.65719 0.30528 0.28652 0.0
H281 H 0.43817 0.95699 0.35902 0.0
H282 H 0.61613 0.33515 0.2341 0.0
N283 N 0.60187 0.18418 0.2638 0.0
C284 C 0.63152 0.16515 0.28344 0.0
C285 C 0.66024 0.22746 0.30317 0.0
C286 C 0.6328 0.24662 0.27868 0.0
C287 C 0.66048 0.18637 0.3044 0.0
C288 C 0.60383 0.22378 0.2587 0.0
H289 H 0.57091 0.32518 0.17538 0.0
N290 N 0.55658 0.21655 0.20752 0.0
C291 C 0.54635 0.2686 0.16012 0.0
C292 C 0.58056 0.24054 0.22933 0.0
C293 C 0.54229 0.2291 0.17148 0.0
C294 C 0.56738 0.2947 0.1845 0.0
C295 C 0.58602 0.28051 0.21885 0.0
O296 O 0.55619 0.13263 0.17099 0.0
O297 O 0.50382 0.10597 0.25066 0.0
O298 O 0.53786 0.1039 0.32514 0.0
O299 O 0.56366 0.09459 0.26331 0.0
O300 O 0.50045 0.12443 0.19212 0.0
O301 O 0.60544 0.12909 0.21167 0.0
O302 O 0.47018 0.12529 0.37023 0.0
O303 O 0.53495 0.15925 0.29792 0.0
O304 O 0.50122 0.19674 0.22641 0.0
O305 O 0.45215 0.18138 0.27176 0.0
O306 O 0.49049 0.1916 0.32234 0.0
O307 O 0.42022 0.14393 0.33272 0.0
C308 C 0.48785 0.09852 0.21736 0.0
C309 C 0.61878 0.1366 0.14349 0.0
C310 C 0.65241 0.12137 0.08258 0.0
C311 C 0.63103 0.1089 0.11564 0.0
C312 C 0.66144 0.1615 0.07745 0.0
C313 C 0.62834 0.17658 0.13839 0.0
C314 C 0.64944 0.18896 0.10529 0.0
C315 C 0.56439 0.08774 0.30151 0.0
C316 C 0.59309 0.12367 0.17551 0.0
C317 C 0.61208 0.30422 0.24124 0.0
C318 C 0.63541 0.28726 0.27119 0.0
C319 C 0.52802 0.19095 0.31694 0.0
C320 C 0.40863 0.13993 0.40373 0.0
C321 C 0.37435 0.16349 0.40365 0.0
C322 C 0.35034 0.16468 0.43749 0.0
C323 C 0.3604 0.14118 0.47048 0.0
C324 C 0.41797 0.11726 0.4373 0.0
C325 C 0.3938 0.11768 0.47028 0.0
C326 C 0.46709 0.20318 0.24294 0.0
C327 C 0.43321 0.13587 0.36827 0.0
H328 H 0.62364 0.07793 0.11944 0.0
H329 H 0.67788 0.17149 0.05191 0.0
H330 H 0.61915 0.1982 0.15965 0.0
H331 H 0.65639 0.21989 0.10112 0.0
H332 H 0.36667 0.18099 0.37779 0.0
H333 H 0.34208 0.14069 0.49652 0.0
H334 H 0.44351 0.09832 0.43768 0.0
H335 H 0.40086 0.09953 0.49579 0.0
Eu336 Eu 0.63174 0.22577 0.5505 0.0
C337 C 0.7449 0.34908 0.4836 0.0
C338 C 0.73894 0.40004 0.53298 0.0
C339 C 0.79877 0.39584 0.49444 0.0
C340 C 0.72317 0.36723 0.51255 0.0
C341 C 0.78288 0.36335 0.47406 0.0
C342 C 0.77676 0.41429 0.52363 0.0
C343 C 0.78563 0.31425 0.42282 0.0
N344 N 0.72875 0.31783 0.46432 0.0
C345 C 0.74783 0.30143 0.43308 0.0
C346 C 0.80344 0.34512 0.44368 0.0
Eu347 Eu 0.66287 0.3008 0.47995 0.0
N348 N 0.68682 0.35259 0.52107 0.0
C349 C 0.6644 0.37006 0.54929 0.0
C350 C 0.71622 0.41763 0.56215 0.0
C351 C 0.67893 0.40236 0.57052 0.0
H352 H 0.73356 0.27895 0.41524 0.0
H353 H 0.66122 0.41558 0.59322 0.0
H354 H 0.78926 0.43967 0.53872 0.0
H355 H 0.80068 0.30079 0.39836 0.0
H356 H 0.63563 0.3588 0.55657 0.0
H357 H 0.59879 0.10965 0.44333 0.0
H358 H 0.72714 0.44302 0.57836 0.0
H359 H 0.58392 0.24474 0.63401 0.0
H360 H 0.64112 0.15473 0.48002 0.0
H361 H 0.5187 0.23051 0.66373 0.0
H362 H 0.82786 0.40723 0.4875 0.0
H363 H 0.52835 0.10195 0.46017 0.0
H364 H 0.47353 0.11815 0.50615 0.0
H365 H 0.83262 0.3553 0.43543 0.0
H366 H 0.45131 0.15136 0.56623 0.0
N367 N 0.59504 0.17672 0.51611 0.0
C368 C 0.6106 0.15281 0.48803 0.0
C369 C 0.5468 0.12273 0.47637 0.0
C370 C 0.53184 0.14458 0.50764 0.0
C371 C 0.58656 0.12644 0.4671 0.0
C372 C 0.55702 0.1717 0.52729 0.0
H373 H 0.46864 0.19178 0.62624 0.0
N374 N 0.57011 0.21483 0.58043 0.0
C375 C 0.52532 0.2197 0.63452 0.0
C376 C 0.54432 0.1909 0.5608 0.0
C377 C 0.56209 0.22767 0.61774 0.0
C378 C 0.49711 0.19789 0.61322 0.0
C379 C 0.50666 0.18259 0.57619 0.0
O380 O 0.65587 0.21724 0.61023 0.0
O381 O 0.67923 0.27033 0.5363 0.0
O382 O 0.70247 0.24515 0.46965 0.0
O383 O 0.67933 0.19968 0.51611 0.0
O384 O 0.65492 0.2729 0.59227 0.0
O385 O 0.65096 0.16744 0.5714 0.0
O386 O 0.66602 0.32137 0.41962 0.0
O387 O 0.61834 0.25187 0.48827 0.0
O388 O 0.58432 0.27046 0.55416 0.0
O389 O 0.60368 0.31881 0.50871 0.0
O390 O 0.64966 0.25535 0.43507 0.0
O391 O 0.62772 0.35317 0.4591 0.0
C392 C 0.68299 0.28589 0.57008 0.0
C393 C 0.65011 0.15549 0.64116 0.0
C394 C 0.66693 0.12612 0.70538 0.0
C395 C 0.67849 0.1462 0.6707 0.0
C396 C 0.62707 0.11628 0.71058 0.0
C397 C 0.61062 0.14422 0.64659 0.0
C398 C 0.59915 0.12519 0.68135 0.0
C399 C 0.7026 0.20956 0.48712 0.0
C400 C 0.66134 0.17968 0.60659 0.0
C401 C 0.48063 0.15759 0.55527 0.0
C402 C 0.4932 0.13873 0.52098 0.0
C403 C 0.62234 0.23654 0.45371 0.0
C404 C 0.63434 0.37794 0.38927 0.0
C405 C 0.61198 0.41352 0.39076 0.0
C406 C 0.60629 0.43678 0.35567 0.0
C407 C 0.6234 0.42376 0.3205 0.0
C408 C 0.65157 0.36755 0.35319 0.0
C409 C 0.64615 0.39019 0.31939 0.0
C410 C 0.57898 0.30425 0.5357 0.0
C411 C 0.6429 0.35131 0.42391 0.0
H412 H 0.7091 0.15494 0.66697 0.0
H413 H 0.61755 0.10167 0.73745 0.0
H414 H 0.58854 0.15042 0.62418 0.0
H415 H 0.56847 0.11739 0.68572 0.0
H416 H 0.59911 0.42269 0.41835 0.0
H417 H 0.61923 0.43984 0.29328 0.0
H418 H 0.66956 0.34153 0.35075 0.0
H419 H 0.65958 0.38153 0.29192 0.0
Eu420 Eu 0.97794 0.40529 0.73247 0.0
C421 C 0.05519 0.29842 0.85487 0.0
C422 C 1.01127 0.3024 0.91062 0.0
C423 C 0.0485 0.24271 0.90006 0.0
C424 C 0.02745 0.31882 0.87587 0.0
C425 C 0.06657 0.26034 0.86712 0.0
C426 C 0.02115 0.26387 0.92201 0.0
C427 C 0.11726 0.26248 0.81757 0.0
N428 N 0.07345 0.31711 0.82452 0.0
C429 C 0.10583 0.30075 0.80757 0.0
C430 C 0.09712 0.2419 0.8471 0.0
Eu431 Eu 0.05154 0.38158 0.80829 0.0
N432 N 0.01843 0.35588 0.86401 0.0
C433 C 0.99592 0.3793 0.88718 0.0
C434 C 0.98695 0.32581 0.93374 0.0
C435 C 0.97977 0.36468 0.92227 0.0
H436 H 0.1223 0.31699 0.78547 0.0
H437 H 0.96196 0.38345 0.94048 0.0
H438 H 1.00866 0.25059 0.94834 0.0
H439 H 0.14194 0.24913 0.80291 0.0
H440 H 0.99083 0.40947 0.87889 0.0
H441 H 0.05845 0.42809 0.59343 0.0
H442 H 0.97446 0.31452 0.96096 0.0
H443 H 0.90168 0.46326 0.75926 0.0
H444 H 0.02466 0.38935 0.64385 0.0
H445 H 0.8818 0.53248 0.75273 0.0
H446 H 0.05668 0.2134 0.90978 0.0
H447 H 0.05705 0.50076 0.59527 0.0
H448 H 0.02611 0.56043 0.62236 0.0
H449 H 0.10649 0.21252 0.85537 0.0
H450 H 0.97771 0.59002 0.66658 0.0
N451 N 1.00756 0.43922 0.67815 0.0
C452 C 0.02488 0.42092 0.64683 0.0
C453 C 0.04282 0.4838 0.61845 0.0
C454 C 0.02062 0.5022 0.64745 0.0
C455 C 0.04357 0.44286 0.61722 0.0
C456 C 1.00271 0.47885 0.67709 0.0
H457 H 0.92234 0.57934 0.71393 0.0
N458 N 0.95445 0.4709 0.7261 0.0
C459 C 0.9085 0.52265 0.73883 0.0
C460 C 0.97496 0.49519 0.70166 0.0
C461 C 0.92 0.4834 0.74248 0.0
C462 C 0.93151 0.54898 0.71698 0.0
C463 C 0.96445 0.53515 0.69701 0.0
O464 O 0.91403 0.39399 0.73169 0.0
O465 O 0.98817 0.37325 0.79076 0.0
O466 O 0.05523 0.33464 0.75815 0.0
O467 O 0.01943 0.36365 0.70629 0.0
O468 O 0.96445 0.34131 0.74343 0.0
O469 O 0.9479 0.38302 0.67929 0.0
O470 O 0.11295 0.39828 0.81931 0.0
O471 O 0.04083 0.42108 0.75519 0.0
O472 O 0.96338 0.43759 0.78895 0.0
O473 O 0.02499 0.44247 0.8185 0.0
O474 O 0.09325 0.38789 0.75942 0.0
O475 O 0.06996 0.41301 0.86265 0.0
C476 C 0.97422 0.33992 0.78013 0.0
C477 C 0.87881 0.39027 0.67019 0.0
C478 C 0.81912 0.36972 0.63339 0.0
C479 C 0.85252 0.36013 0.6569 0.0
C480 C 0.81253 0.4094 0.62394 0.0
C481 C 0.87184 0.42944 0.65926 0.0
C482 C 0.83877 0.43889 0.63637 0.0
C483 C 0.04273 0.33644 0.72053 0.0
C484 C 0.91325 0.38072 0.69549 0.0
C485 C 0.98504 0.5592 0.67021 0.0
C486 C 1.01293 0.5426 0.64532 0.0
C487 C 0.07448 0.41419 0.73911 0.0
C488 C 0.1363 0.4042 0.88581 0.0
C489 C 0.13751 0.42587 0.9217 0.0
C490 C 0.16913 0.42084 0.94898 0.0
C491 C 0.19891 0.39422 0.93971 0.0
C492 C 0.16596 0.37656 0.87866 0.0
C493 C 0.19705 0.37183 0.9054 0.0
C494 C 0.98866 0.45521 0.81309 0.0
C495 C 0.10712 0.41332 0.85401 0.0
H496 H 0.85767 0.32972 0.66527 0.0
H497 H 0.78649 0.4177 0.60742 0.0
H498 H 0.89181 0.45275 0.66864 0.0
H499 H 0.83315 0.4693 0.62857 0.0
H500 H 0.11499 0.44741 0.92759 0.0
H501 H 0.22382 0.39082 0.95925 0.0
H502 H 0.16593 0.35938 0.85175 0.0
H503 H 0.22027 0.35121 0.89915 0.0
Eu504 Eu 0.89891 0.80025 0.05571 0.0
C505 C 0.78419 0.68035 0.97576 0.0
C506 C 0.78842 0.6274 0.02389 0.0
C507 C 0.73259 0.6301 0.9783 0.0
C508 C 0.80438 0.66162 1.00601 0.0
C509 C 0.74782 0.66504 0.96177 0.0
C510 C 0.75272 0.61147 1.00952 0.0
C511 C 0.74496 0.71902 0.91501 0.0
N512 N 0.80007 0.71358 0.95995 0.0
C513 C 0.78149 0.73254 0.92929 0.0
C514 C 0.728 0.68509 0.93133 0.0
Eu515 Eu 0.8647 0.73134 0.98052 0.0
N516 N 0.83913 0.67744 1.01864 0.0
C517 C 0.85906 0.66051 0.04977 0.0
C518 C 0.80874 0.61021 0.05572 0.0
C519 C 0.84413 0.62706 0.06887 0.0
H520 H 0.79535 0.75754 0.91492 0.0
H521 H 0.85986 0.61448 0.09391 0.0
H522 H 0.74015 0.58506 0.02267 0.0
H523 H 0.73031 0.73433 0.89087 0.0
H524 H 0.88543 0.67374 0.06171 0.0
H525 H 0.92577 0.92289 0.95364 0.0
H526 H 0.79722 0.58421 0.07052 0.0
H527 H 0.95477 0.76957 0.13272 0.0
H528 H 0.8877 0.8717 0.98424 0.0
H529 H 0.02232 0.78009 0.1596 0.0
H530 H 0.70482 0.61773 0.96776 0.0
H531 H 0.99422 0.93756 0.97646 0.0
H532 H 0.0512 0.9196 0.02052 0.0
H533 H 0.6999 0.67438 0.91992 0.0
H534 H 0.07821 0.87896 0.07464 0.0
N535 N 0.93322 0.85302 0.02418 0.0
C536 C 0.91681 0.8767 0.99566 0.0
C537 C 0.97728 0.91425 0.99055 0.0
C538 C 0.99396 0.89058 0.02024 0.0
C539 C 0.93859 0.90688 0.97811 0.0
C540 C 0.97092 0.85976 0.03679 0.0
H541 H 0.06761 0.82724 0.12676 0.0
N542 N 0.96287 0.8086 0.08392 0.0
C543 C 1.0127 0.79592 0.13337 0.0
C544 C 0.98629 0.83662 0.0671 0.0
C545 C 0.97459 0.79003 0.11812 0.0
C546 C 0.03818 0.82251 0.11471 0.0
C547 C 0.02484 0.84396 0.08178 0.0
O548 O 0.88381 0.80568 0.11819 0.0
O549 O 0.85011 0.75957 0.03712 0.0
O550 O 0.8272 0.78846 0.97222 0.0
O551 O 0.85038 0.82906 0.02312 0.0
O552 O 0.86855 0.75371 0.09507 0.0
O553 O 0.87748 0.85609 0.07944 0.0
O554 O 0.86522 0.717 0.91814 0.0
O555 O 0.91251 0.77676 0.99244 0.0
O556 O 0.9447 0.75387 0.05602 0.0
O557 O 0.92022 0.70673 1.01185 0.0
O558 O 0.87713 0.78306 0.94202 0.0
O559 O 0.90361 0.68472 0.95742 0.0
C560 C 0.84184 0.74318 0.06958 0.0
C561 C 0.88522 0.8682 0.14869 0.0
C562 C 0.8702 0.90104 0.21125 0.0
C563 C 0.85777 0.87856 0.17817 0.0
C564 C 0.90994 0.91254 0.21437 0.0
C565 C 0.92456 0.88082 0.15247 0.0
C566 C 0.93679 0.90277 0.18519 0.0
C567 C 0.82741 0.82232 0.99246 0.0
C568 C 0.8733 0.84243 0.11542 0.0
C569 C 0.04836 0.87334 0.06412 0.0
C570 C 0.03294 0.89661 0.03344 0.0
C571 C 0.9097 0.79466 0.95857 0.0
C572 C 0.88549 0.6541 0.89487 0.0
C573 C 0.91473 0.62452 0.8918 0.0
C574 C 0.91158 0.59547 0.86185 0.0
C575 C 0.87928 0.59637 0.83552 0.0
C576 C 0.85324 0.65334 0.86822 0.0
C577 C 0.85035 0.62486 0.83885 0.0
C578 C 0.94659 0.7198 0.03818 0.0
C579 C 0.89099 0.68897 0.92114 0.0
H580 H 0.82734 0.86863 0.17575 0.0
H581 H 0.92038 0.92872 0.23984 0.0
H582 H 0.94596 0.87332 0.13039 0.0
H583 H 0.96737 0.91188 0.18822 0.0
H584 H 0.94018 0.62485 0.91153 0.0
H585 H 0.87634 0.57468 0.81226 0.0
H586 H 0.83057 0.67555 0.86915 0.0
H587 H 0.8257 0.62516 0.81817 0.0
Eu588 Eu 0.4818 0.64269 0.30235 0.0
C589 C 0.59823 0.53566 0.22841 0.0
C590 C 0.6523 0.5362 0.27632 0.0
C591 C 0.64383 0.48071 0.23211 0.0
C592 C 0.6195 0.55481 0.25825 0.0
C593 C 0.61017 0.49816 0.21545 0.0
C594 C 0.66462 0.49951 0.26268 0.0
C595 C 0.55659 0.49864 0.16791 0.0
N596 N 0.56651 0.55369 0.21152 0.0
C597 C 0.54659 0.53622 0.18064 0.0
C598 C 0.58847 0.47947 0.18542 0.0
Eu599 Eu 0.55718 0.6201 0.22996 0.0
N600 N 0.60808 0.59117 0.26998 0.0
C601 C 0.62784 0.60961 0.3005 0.0
C602 C 0.6721 0.555 0.30752 0.0
C603 C 0.65956 0.59171 0.31984 0.0
H604 H 0.52401 0.55159 0.16415 0.0
H605 H 0.6744 0.60641 0.34427 0.0
H606 H 0.68999 0.48513 0.27593 0.0
H607 H 0.54044 0.485 0.14367 0.0
H608 H 0.61903 0.6375 0.31172 0.0
H609 H 0.38017 0.68828 0.18556 0.0
H610 H 0.69699 0.54136 0.32239 0.0
H611 H 0.5114 0.69156 0.38509 0.0
H612 H 0.41899 0.64131 0.22434 0.0
H613 H 0.50331 0.75752 0.41486 0.0
H614 H 0.65358 0.45217 0.22215 0.0
H615 H 0.36685 0.75435 0.21205 0.0
H616 H 0.38048 0.80485 0.2643 0.0
H617 H 0.59666 0.45062 0.17491 0.0
H618 H 0.41585 0.82443 0.32514 0.0
N619 N 0.43581 0.6827 0.26827 0.0
C620 C 0.41524 0.67036 0.23563 0.0
C621 C 0.38562 0.73432 0.22857 0.0
C622 C 0.40518 0.74629 0.26322 0.0
C623 C 0.39169 0.69654 0.21422 0.0
C624 C 0.43125 0.71979 0.28223 0.0
H625 H 0.46192 0.80724 0.38098 0.0
N626 N 0.47712 0.70515 0.33365 0.0
C627 C 0.48908 0.7506 0.38687 0.0
C628 C 0.45223 0.73125 0.31587 0.0
C629 C 0.49371 0.71347 0.36997 0.0
C630 C 0.46569 0.77859 0.36765 0.0
C631 C 0.4463 0.7689 0.33216 0.0
O632 O 0.46953 0.61134 0.35789 0.0
O633 O 0.52728 0.59898 0.28492 0.0
O634 O 0.49535 0.59449 0.20833 0.0
O635 O 0.46093 0.59111 0.2673 0.0
O636 O 0.52897 0.61692 0.34353 0.0
O637 O 0.42088 0.62967 0.32208 0.0
O638 O 0.56832 0.61842 0.16629 0.0
O639 O 0.49925 0.65087 0.23685 0.0
O640 O 0.52851 0.68961 0.30744 0.0
O641 O 0.58075 0.6705 0.26771 0.0
O642 O 0.54505 0.68288 0.21301 0.0
O643 O 0.6143 0.64127 0.20622 0.0
C644 C 0.54282 0.592 0.31851 0.0
C645 C 0.41189 0.62567 0.39257 0.0
C646 C 0.38593 0.61191 0.46004 0.0
C647 C 0.39648 0.59864 0.42133 0.0
C648 C 0.39536 0.65173 0.4689 0.0
C649 C 0.41364 0.66562 0.40176 0.0
C650 C 0.40734 0.67823 0.43994 0.0
C651 C 0.46486 0.5814 0.23006 0.0
C652 C 0.43138 0.61298 0.35542 0.0
C653 C 0.42054 0.79533 0.31317 0.0
C654 C 0.40021 0.78413 0.27867 0.0
C655 C 0.50766 0.68311 0.2187 0.0
C656 C 0.63011 0.64014 0.13498 0.0
C657 C 0.66565 0.66346 0.13602 0.0
C658 C 0.68818 0.66933 0.10092 0.0
C659 C 0.67468 0.65089 0.06607 0.0
C660 C 0.61887 0.62196 0.09935 0.0
C661 C 0.64101 0.6272 0.06542 0.0
C662 C 0.56439 0.69381 0.29387 0.0
C663 C 0.604 0.63324 0.16987 0.0
H664 H 0.39347 0.56791 0.41348 0.0
H665 H 0.39362 0.66395 0.49806 0.0
H666 H 0.42154 0.68711 0.37975 0.0
H667 H 0.41222 0.70891 0.44734 0.0
H668 H 0.67507 0.67746 0.16332 0.0
H669 H 0.6904 0.65472 0.03881 0.0
H670 H 0.59268 0.60343 0.09755 0.0
H671 H 0.63183 0.61296 0.03819 0.0
Eu672 Eu 0.21982 0.54286 0.15789 0.0
C673 C 0.29838 0.42958 0.0458 0.0
C674 C 0.25397 0.37296 0.04708 0.0
C675 C 0.29878 0.38197 0.99221 0.0
C676 C 0.26942 0.40741 0.06494 0.0
C677 C 0.31295 0.41713 1.009 0.0
C678 C 0.26964 0.35979 1.01138 0.0
C679 C 0.35693 0.47352 1.00909 0.0
N680 N 0.31261 0.46293 0.06315 0.0
C681 C 0.34232 0.48429 0.04587 0.0
C682 C 0.34214 0.43984 0.99051 0.0
Eu683 Eu 0.29296 0.47249 0.1291 0.0
N684 N 0.25609 0.41956 0.10062 0.0
C685 C 0.22638 0.39916 0.1191 0.0
C686 C 0.22322 0.35256 0.0656 0.0
C687 C 0.2091 0.366 0.10154 0.0
H688 H 0.35625 0.5088 0.06099 0.0
H689 H 0.18508 0.3506 0.11598 0.0
H690 H 0.25853 0.33304 0.99766 0.0
H691 H 0.38042 0.49059 0.99564 0.0
H692 H 0.21452 0.40873 0.14675 0.0
H693 H 0.32299 0.66307 0.18352 0.0
H694 H 0.21009 0.32647 0.05234 0.0
H695 H 0.1433 0.51291 0.21317 0.0
H696 H 0.29786 0.60478 0.1507 0.0
H697 H 0.1166 0.52454 0.28 0.0
H698 H 0.30993 0.3718 0.96419 0.0
H699 H 0.30219 0.67843 0.25178 0.0
H700 H 0.25866 0.66145 0.30903 0.0
H701 H 0.35404 0.43116 0.96229 0.0
H702 H 0.20331 0.62256 0.33567 0.0
N703 N 0.25557 0.59116 0.19417 0.0
C704 C 0.28564 0.61267 0.1784 0.0
C705 C 0.28924 0.65352 0.23624 0.0
C706 C 0.25971 0.6302 0.25339 0.0
C707 C 0.30165 0.64489 0.19822 0.0
C708 C 0.24265 0.59919 0.23101 0.0
H709 H 0.15039 0.57139 0.32517 0.0
N710 N 0.19338 0.55016 0.22212 0.0
C711 C 0.14337 0.53942 0.27082 0.0
C712 C 0.21111 0.57765 0.24568 0.0
C713 C 0.15858 0.53279 0.2332 0.0
C714 C 0.16257 0.56585 0.29626 0.0
C715 C 0.19622 0.58616 0.28345 0.0
O716 O 0.15838 0.55294 0.14054 0.0
O717 O 0.23629 0.49916 0.11286 0.0
O718 O 0.30348 0.5346 0.0981 0.0
O719 O 0.24197 0.56362 0.10031 0.0
O720 O 0.17883 0.4952 0.13131 0.0
O721 O 0.20032 0.60128 0.13985 0.0
O722 O 0.35798 0.46968 0.12868 0.0
O723 O 0.28689 0.53075 0.15883 0.0
O724 O 0.22073 0.49707 0.20499 0.0
O725 O 0.25993 0.44599 0.18239 0.0
O726 O 0.31082 0.4854 0.19159 0.0
O727 O 0.32239 0.41781 0.1454 0.0
C728 C 0.20366 0.48277 0.10554 0.0
C729 C 0.13269 0.61705 0.14346 0.0
C730 C 0.0734 0.6525 0.1243 0.0
C731 C 0.10435 0.62742 0.11462 0.0
C732 C 0.07114 0.66742 0.16285 0.0
C733 C 0.13024 0.63215 0.18185 0.0
C734 C 0.09951 0.65733 0.19142 0.0
C735 C 0.27812 0.56345 0.08803 0.0
C736 C 0.16411 0.59013 0.13267 0.0
C737 C 0.21428 0.61575 0.30655 0.0
C738 C 0.24578 0.63792 0.29141 0.0
C739 C 0.30789 0.52306 0.18947 0.0
C740 C 0.39353 0.40903 0.14662 0.0
C741 C 0.39247 0.37295 0.16804 0.0
C742 C 0.42725 0.35099 0.17374 0.0
C743 C 0.46257 0.36488 0.15718 0.0
C744 C 0.42935 0.42212 0.13056 0.0
C745 C 0.46353 0.40005 0.13566 0.0
C746 C 0.23565 0.46175 0.20834 0.0
C747 C 0.35751 0.43265 0.13982 0.0
H748 H 0.10621 0.61582 0.08486 0.0
H749 H 0.04748 0.68698 0.17073 0.0
H750 H 0.15194 0.62451 0.20428 0.0
H751 H 0.09764 0.669 0.22107 0.0
H752 H 0.36508 0.36234 0.18069 0.0
H753 H 0.48954 0.34831 0.16083 0.0
H754 H 0.43089 0.44929 0.11363 0.0
H755 H 0.49094 0.41027 0.12289 0.0
Eu756 Eu 0.8022 0.05891 0.89935 0.0
C757 C 0.67976 0.98036 0.79353 0.0
C758 C 0.62592 0.02692 0.79498 0.0
C759 C 0.63116 0.98203 0.73979 0.0
C760 C 0.65983 1.01014 0.81279 0.0
C761 C 0.66551 0.96618 0.75674 0.0
C762 C 0.61152 1.0124 0.75877 0.0
C763 C 0.72005 0.92119 0.7557 0.0
N764 N 0.71332 0.96576 0.81015 0.0
C765 C 0.73312 0.93603 0.79206 0.0
C766 C 0.68612 0.9363 0.73794 0.0
Eu767 Eu 0.72717 0.98579 0.87586 0.0
N768 N 0.67438 0.02383 0.84787 0.0
C769 C 0.65678 0.05534 0.8656 0.0
C770 C 0.60764 0.05831 0.81367 0.0
C771 C 0.62351 0.0729 0.84881 0.0
H772 H 0.75804 0.92202 0.80616 0.0
H773 H 0.61021 0.09791 0.863 0.0
H774 H 0.58539 0.02478 0.74497 0.0
H775 H 0.73575 0.89748 0.74179 0.0
H776 H 0.66869 0.06886 0.89188 0.0
H777 H 0.94121 0.98433 0.92539 0.0
H778 H 0.58174 0.07202 0.80078 0.0
H779 H 0.77189 0.13703 0.9528 0.0
H780 H 0.88625 1.01125 0.8862 0.0
H781 H 0.77843 0.1618 0.02152 0.0
H782 H 0.61974 0.97126 0.71173 0.0
H783 H 0.94196 0.99177 0.99831 0.0
H784 H 0.91237 0.02199 0.0582 0.0
H785 H 0.6759 0.92449 0.70986 0.0
H786 H 0.86782 0.07184 0.08456 0.0
N787 N 0.85476 0.03106 0.93568 0.0
C788 C 0.88501 1.01233 0.91784 0.0
C789 C 0.91715 1.00255 0.98106 0.0
C790 C 0.88744 0.0242 0.9989 0.0
C791 C 0.91674 0.99808 0.94005 0.0
C792 C 0.85683 0.03945 0.97484 0.0
H793 H 0.81926 0.12563 0.07054 0.0
N794 N 0.80676 0.08624 0.964 0.0
C795 C 0.79329 0.13516 1.01301 0.0
C796 C 0.83211 0.06802 0.9895 0.0
C797 C 0.78965 0.12117 0.97429 0.0
C798 C 0.81623 0.11454 0.04065 0.0
C799 C 0.83698 0.08128 0.02876 0.0
O800 O 0.80827 0.11824 0.87434 0.0
O801 O 0.7573 0.04028 0.85403 0.0
O802 O 0.78765 0.96579 0.85131 0.0
O803 O 0.82291 0.0245 0.84712 0.0
O804 O 0.75326 0.09735 0.87615 0.0
O805 O 0.85987 0.08309 0.88113 0.0
O806 O 0.72107 0.92113 0.87445 0.0
O807 O 0.78586 0.99357 0.90648 0.0
O808 O 0.75764 0.05767 0.94828 0.0
O809 O 0.7028 0.02228 0.92584 0.0
O810 O 0.74036 0.97113 0.93936 0.0
O811 O 0.67389 0.95749 0.89823 0.0
C812 C 0.74116 0.07329 0.84896 0.0
C813 C 0.86735 0.1527 0.8857 0.0
C814 C 0.89796 0.21799 0.87489 0.0
C815 C 0.88202 0.18212 0.85972 0.0
C816 C 0.89733 0.22366 0.91624 0.0
C817 C 0.86934 0.15897 0.92649 0.0
C818 C 0.88291 0.1946 0.94154 0.0
C819 C 0.81884 0.98679 0.83938 0.0
C820 C 0.84629 0.11738 0.87076 0.0
C821 C 0.8643 0.06267 0.05405 0.0
C822 C 0.88961 0.03419 0.03909 0.0
C823 C 0.77803 0.97548 0.93865 0.0
C824 C 0.66253 0.88679 0.89995 0.0
C825 C 0.62655 0.88986 0.92032 0.0
C826 C 0.60395 0.85593 0.92857 0.0
C827 C 0.61745 0.81902 0.91651 0.0
C828 C 0.67554 0.84953 0.8883 0.0
C829 C 0.65305 0.81588 0.89655 0.0
C830 C 0.72076 0.04579 0.95148 0.0
C831 C 0.68646 0.9222 0.89087 0.0
H832 H 0.88028 0.17721 0.8281 0.0
H833 H 0.90935 0.25001 0.9298 0.0
H834 H 0.8603 0.13633 0.94688 0.0
H835 H 0.883 0.19944 0.97317 0.0
H836 H 0.61586 0.9184 0.92928 0.0
H837 H 0.60021 0.79263 0.92228 0.0
H838 H 0.70302 0.8464 0.87264 0.0
H839 H 0.66312 0.78728 0.88723 0.0
Eu840 Eu 0.73775 0.97318 0.40447 0.0
C841 C 0.85247 0.04776 0.29298 0.0
C842 C 0.90583 1.0006 0.29191 0.0
C843 C 0.89413 0.04287 0.23496 0.0
C844 C 0.87416 0.01832 0.31178 0.0
C845 C 0.86261 0.06039 0.25444 0.0
C846 C 0.91571 1.01317 0.25366 0.0
C847 C 0.81126 0.10879 0.25744 0.0
N848 N 0.82185 0.06433 0.31218 0.0
C849 C 0.80229 0.09555 0.29547 0.0
C850 C 0.8413 0.09091 0.23666 0.0
Eu851 Eu 0.81317 0.04419 0.37879 0.0
N852 N 0.86394 1.00632 0.34882 0.0
C853 C 0.88421 0.97617 0.36691 0.0
C854 C 0.92666 0.97046 0.31082 0.0
C855 C 0.9154 0.95783 0.34818 0.0
H856 H 0.78063 0.11175 0.31171 0.0
H857 H 0.93074 0.93384 0.3627 0.0
H858 H 0.94003 1.00002 0.23819 0.0
H859 H 0.7955 0.13338 0.24453 0.0
H860 H 0.87629 0.96434 0.39521 0.0
H861 H 0.59569 0.04426 0.42225 0.0
H862 H 0.95129 0.95641 0.29669 0.0
H863 H 0.76641 0.89666 0.46226 0.0
H864 H 0.65082 0.01564 0.38618 0.0
H865 H 0.76047 0.87476 0.53205 0.0
H866 H 0.90224 0.05229 0.20543 0.0
H867 H 0.59568 0.04225 0.49542 0.0
H868 H 0.62514 0.01438 0.55786 0.0
H869 H 0.84844 0.10151 0.20727 0.0
H870 H 0.67021 0.96621 0.58816 0.0
N871 N 0.68359 1.00075 0.43768 0.0
C872 C 0.65245 0.01693 0.41787 0.0
C873 C 0.62059 0.03068 0.47959 0.0
C874 C 0.65056 1.01032 0.49953 0.0
C875 C 0.62066 0.03231 0.43835 0.0
C876 C 0.68154 0.9945 0.47725 0.0
H877 H 0.71971 0.91264 0.57832 0.0
N878 N 0.73143 0.94768 0.47002 0.0
C879 C 0.7454 0.90094 0.52185 0.0
C880 C 0.70635 0.96689 0.49407 0.0
C881 C 0.74849 0.9132 0.48242 0.0
C882 C 0.72259 0.92258 0.54795 0.0
C883 C 0.70155 0.95514 0.53384 0.0
O884 O 0.73016 0.91077 0.39058 0.0
O885 O 0.78251 0.98938 0.35875 0.0
O886 O 0.75256 0.06347 0.35229 0.0
O887 O 0.71566 1.00562 0.35101 0.0
O888 O 0.78561 0.93294 0.38231 0.0
O889 O 0.68337 0.95125 0.37661 0.0
O890 O 0.82061 0.10811 0.37775 0.0
O891 O 0.75479 0.0387 0.40918 0.0
O892 O 0.78151 0.97639 0.45477 0.0
O893 O 0.83759 1.00542 0.42822 0.0
O894 O 0.80105 0.06137 0.44165 0.0
O895 O 0.86967 0.07101 0.39779 0.0
C896 C 0.79803 0.95606 0.35457 0.0
C897 C 0.6656 0.88545 0.39012 0.0
C898 C 0.62837 0.82511 0.37783 0.0
C899 C 0.654 0.85492 0.36454 0.0
C900 C 0.61392 0.82645 0.41656 0.0
C901 C 0.65073 0.8867 0.42862 0.0
C902 C 0.62488 0.85728 0.4417 0.0
C903 C 0.72105 0.04251 0.34067 0.0
C904 C 0.69445 0.91473 0.37673 0.0
C905 C 0.67384 0.97433 0.55734 0.0
C906 C 0.64825 1.00186 0.54014 0.0
C907 C 0.76322 0.05794 0.44053 0.0
C908 C 0.88134 0.14238 0.39701 0.0
C909 C 0.91763 0.14173 0.41836 0.0
C910 C 0.93911 0.17713 0.42489 0.0
C911 C 0.92379 0.21246 0.40947 0.0
C912 C 0.86776 0.17813 0.38121 0.0
C913 C 0.88893 0.21285 0.38736 0.0
C914 C 0.81946 0.98405 0.45533 0.0
C915 C 0.857 0.10651 0.39069 0.0
H916 H 0.66566 0.85379 0.33481 0.0
H917 H 0.59403 0.80367 0.42725 0.0
H918 H 0.65931 0.91018 0.44855 0.0
H919 H 0.61357 0.85819 0.47149 0.0
H920 H 0.92855 0.11424 0.43049 0.0
H921 H 0.93889 0.2401 0.41436 0.0
H922 H 0.84054 0.17936 0.3641 0.0
H923 H 0.87811 0.24032 0.37521 0.0
Eu924 Eu 0.30059 0.47642 0.65596 0.0
C925 C 0.23154 0.59695 0.53779 0.0
C926 C 0.26799 0.65791 0.54939 0.0
C927 C 0.23481 0.64746 0.48628 0.0
C928 C 0.2545 0.62055 0.5625 0.0
C929 C 0.22109 0.61056 0.4995 0.0
C930 C 0.25819 0.67106 0.51116 0.0
C931 C 0.17992 0.55276 0.49159 0.0
N932 N 0.21733 0.56203 0.55192 0.0
C933 C 0.19018 0.541 0.52999 0.0
C934 C 0.19569 0.58753 0.47613 0.0
Eu935 Eu 0.22894 0.55031 0.62051 0.0
N936 N 0.26312 0.60747 0.59959 0.0
C937 C 0.28456 0.63059 0.62511 0.0
C938 C 0.29046 0.68131 0.57531 0.0
C939 C 0.2989 0.66748 0.61332 0.0
H940 H 0.17421 0.51631 0.54242 0.0
H941 H 0.31638 0.68522 0.63363 0.0
H942 H 0.26814 0.6997 0.50072 0.0
H943 H 0.15863 0.53574 0.47452 0.0
H944 H 0.29209 0.62033 0.65407 0.0
H945 H 0.19255 0.35995 0.69551 0.0
H946 H 0.30136 0.71008 0.56628 0.0
H947 H 0.37824 0.50943 0.71037 0.0
H948 H 0.22829 0.40114 0.65079 0.0
H949 H 0.4057 0.50194 0.7778 0.0
H950 H 0.22683 0.65838 0.45709 0.0
H951 H 0.21185 0.35559 0.76589 0.0
H952 H 0.25847 0.37502 0.81979 0.0
H953 H 0.18681 0.59712 0.44672 0.0
H954 H 0.31658 0.4129 0.842 0.0
N955 N 0.26649 0.42753 0.69491 0.0
C956 C 0.23776 0.4021 0.68105 0.0
C957 C 0.22763 0.37551 0.74634 0.0
C958 C 0.25911 0.39864 0.7601 0.0
C959 C 0.21706 0.37731 0.70663 0.0
C960 C 0.27792 0.4252 0.73364 0.0
H961 H 0.37161 0.45955 0.82655 0.0
N962 N 0.32785 0.47288 0.72105 0.0
C963 C 0.37854 0.48685 0.76963 0.0
C964 C 0.30987 0.44774 0.74674 0.0
C965 C 0.36272 0.49113 0.73151 0.0
C966 C 0.35922 0.46292 0.79703 0.0
C967 C 0.32477 0.4427 0.78573 0.0
O968 O 0.36326 0.47946 0.64177 0.0
O969 O 0.29229 0.53182 0.61748 0.0
O970 O 0.2184 0.48965 0.587 0.0
O971 O 0.26277 0.44463 0.61484 0.0
O972 O 0.31559 0.48227 0.59105 0.0
O973 O 0.33358 0.42236 0.64474 0.0
O974 O 0.16894 0.56915 0.60903 0.0
O975 O 0.23774 0.49856 0.65995 0.0
O976 O 0.30876 0.53096 0.69263 0.0
O977 O 0.25309 0.56929 0.68157 0.0
O978 O 0.1804 0.51904 0.65006 0.0
O979 O 0.2047 0.59935 0.65482 0.0
C980 C 0.30705 0.51864 0.58562 0.0
C981 C 0.40453 0.42306 0.64459 0.0
C982 C 0.46441 0.39172 0.6207 0.0
C983 C 0.42681 0.40772 0.6132 0.0
C984 C 0.47966 0.39202 0.65952 0.0
C985 C 0.41992 0.42164 0.68322 0.0
C986 C 0.45753 0.40682 0.6905 0.0
C987 C 0.23415 0.45351 0.59031 0.0
C988 C 0.36611 0.44154 0.63617 0.0
C989 C 0.30566 0.41685 0.81197 0.0
C990 C 0.27266 0.39521 0.79931 0.0
C991 C 0.2013 0.49447 0.66989 0.0
C992 C 0.1366 0.62146 0.64427 0.0
C993 C 0.14053 0.65635 0.66652 0.0
C994 C 0.10746 0.68025 0.67215 0.0
C995 C 0.07064 0.66876 0.65647 0.0
C996 C 0.0994 0.61066 0.62871 0.0
C997 C 0.06673 0.63433 0.63476 0.0
C998 C 0.28473 0.55931 0.7026 0.0
C999 C 0.17076 0.59636 0.63621 0.0
H1000 H 0.41472 0.40762 0.58333 0.0
H1001 H 0.50839 0.37967 0.66601 0.0
H1002 H 0.40295 0.43164 0.70783 0.0
H1003 H 0.46933 0.40621 0.72041 0.0
H1004 H 0.16909 0.66546 0.67825 0.0
H1005 H 0.04492 0.68697 0.66047 0.0
H1006 H 0.09559 0.58402 0.61154 0.0
H1007 H 0.03831 0.62653 0.62205 0.0
C1008 C 0.23507 0.34769 0.55742 0.0
C1009 C 0.19512 0.33799 0.55329 0.0
H1010 H 0.27851 0.39211 0.5681 0.0
C1011 C 0.16757 0.36912 0.55567 0.0
H1012 H 0.25729 0.32535 0.55353 0.0
C1013 C 0.17958 0.40813 0.56429 0.0
C1014 C 0.21966 0.41729 0.56948 0.0
H1015 H 0.13669 0.36406 0.54983 0.0
H1016 H 0.15753 0.43064 0.56793 0.0
C1017 C 0.24712 0.38649 0.56463 0.0
C1018 C 0.87472 0.94129 0.85453 0.0
C1019 C 0.85624 0.96822 0.82846 0.0
H1020 H 0.92872 0.9128 0.87206 0.0
C1021 C 0.8795 0.98823 0.80068 0.0
H1022 H 0.85835 0.92707 0.87777 0.0
C1023 C 0.9198 0.98138 0.79852 0.0
C1024 C 0.93824 0.95383 0.8237 0.0
H1025 H 0.8666 1.01041 0.78142 0.0
H1026 H 0.93635 0.99605 0.77536 0.0
C1027 C 0.91563 0.93499 0.85296 0.0
C1028 C 0.28845 0.67475 0.07589 0.0
C1029 C 0.31538 0.67762 0.04548 0.0
H1030 H 0.25272 0.63686 0.10996 0.0
C1031 C 0.32544 0.64219 0.02522 0.0
H1032 H 0.27879 0.70077 0.09129 0.0
C1033 C 0.31532 0.60506 0.03973 0.0
C1034 C 0.29043 0.60219 0.07164 0.0
H1035 H 0.34421 0.64232 0.99968 0.0
H1036 H 0.32632 0.57886 0.02558 0.0
C1037 C 0.27442 0.63753 0.08711 0.0
C1038 C 0.62129 0.08599 0.34952 0.0
C1039 C 0.60215 0.071 0.31582 0.0
H1040 H 0.6756 0.0934 0.38111 0.0
C1041 C 0.62436 0.04907 0.28886 0.0
H1042 H 0.60479 0.10064 0.37212 0.0
C1043 C 0.66481 0.04401 0.29448 0.0
C1044 C 0.68446 0.06117 0.32684 0.0
H1045 H 0.61056 0.03678 0.26252 0.0
H1046 H 0.68057 0.02528 0.27432 0.0
C1047 C 0.66234 0.08295 0.35393 0.0
C1048 C 0.73588 0.14605 0.50148 0.0
C1049 C 0.72504 0.17484 0.47301 0.0
H1050 H 0.75319 0.0865 0.51361 0.0
C1051 C 0.72536 0.16402 0.43305 0.0
H1052 H 0.73571 0.15304 0.53274 0.0
C1053 C 0.73577 0.12543 0.4222 0.0
C1054 C 0.74401 0.09594 0.45097 0.0
H1055 H 0.71637 0.18484 0.41032 0.0
H1056 H 0.73804 0.1194 0.39112 0.0
C1057 C 0.74478 0.10739 0.49071 0.0
C1058 C 0.11633 0.4298 0.68262 0.0
C1059 C 0.10164 0.44187 0.71908 0.0
H1060 H 0.16228 0.43316 0.64037 0.0
C1061 C 0.12626 0.4662 0.7427 0.0
H1062 H 0.09969 0.40979 0.66424 0.0
C1063 C 0.16389 0.47826 0.72961 0.0
C1064 C 0.17832 0.46582 0.69285 0.0
H1065 H 0.11712 0.4744 0.77212 0.0
H1066 H 0.18078 0.49922 0.74719 0.0
C1067 C 0.15368 0.44131 0.66985 0.0
C1068 C 0.79854 0.90594 0.92389 0.0
C1069 C 0.79706 0.93798 0.95052 0.0
H1070 H 0.80847 0.84394 0.91567 0.0
C1071 C 0.80019 0.92965 0.99096 0.0
H1072 H 0.79344 0.91003 0.89272 0.0
C1073 C 0.80541 0.891 1.00432 0.0
C1074 C 0.80891 0.85922 0.97762 0.0
H1075 H 0.79693 0.95294 1.01245 0.0
H1076 H 0.80824 0.88622 0.03596 0.0
C1077 C 0.80521 0.86723 0.93713 0.0
C1078 C 0.41013 0.57257 0.17767 0.0
C1079 C 0.42803 0.56207 0.21404 0.0
H1080 H 0.35778 0.56935 0.14085 0.0
C1081 C 0.40496 0.5407 0.24146 0.0
H1082 H 0.42643 0.58983 0.15619 0.0
C1083 C 0.36524 0.53209 0.23423 0.0
C1084 C 0.34683 0.54261 0.19843 0.0
H1085 H 0.41727 0.53206 0.26994 0.0
H1086 H 0.349 0.51573 0.2565 0.0
C1087 C 0.37011 0.56229 0.16965 0.0
C1088 C 0.58462 0.18171 0.36523 0.0
C1089 C 0.55172 0.20312 0.35304 0.0
H1090 H 0.63224 0.17465 0.40662 0.0
C1091 C 0.53809 0.23227 0.37927 0.0
H1092 H 0.59478 0.1585 0.34712 0.0
C1093 C 0.55793 0.24022 0.41557 0.0
C1094 C 0.59191 0.21914 0.42666 0.0
H1095 H 0.51216 0.24919 0.37156 0.0
H1096 H 0.54823 0.26448 0.43358 0.0
C1097 C 0.60495 0.19004 0.40054 0.0
C1098 C 0.03889 0.28277 0.62675 0.0
C1099 C 0.06958 0.30203 0.60652 0.0
H1100 H 1.00738 0.2768 0.68117 0.0
C1101 C 0.09514 0.32707 0.62796 0.0
H1102 H 0.01954 0.26224 0.6113 0.0
C1103 C 0.09141 0.33071 0.669 0.0
C1104 C 0.05952 0.31336 0.68875 0.0
H1105 H 0.12056 0.34035 0.61408 0.0
H1106 H 0.11242 0.34876 0.68523 0.0
C1107 C 0.03336 0.28913 0.66716 0.0
C1108 C 0.96106 0.78767 0.85872 0.0
C1109 C 0.98459 0.82153 0.85843 0.0
H1110 H 0.91879 0.75345 0.88898 0.0
C1111 C 0.99011 0.84157 0.89467 0.0
H1112 H 0.95904 0.76923 0.83282 0.0
C1113 C 0.9704 0.82936 0.92927 0.0
C1114 C 0.94218 0.79897 0.92822 0.0
H1115 H 1.01012 0.86646 0.89657 0.0
H1116 H 0.97702 0.84399 0.95641 0.0
C1117 C 0.93918 0.77754 0.89228 0.0
C1118 C 0.4704 0.73517 0.18096 0.0
C1119 C 0.48558 0.6971 0.18272 0.0
H1120 H 0.43979 0.77805 0.14747 0.0
C1121 C 0.48799 0.6764 0.14675 0.0
H1122 H 0.47087 0.75345 0.20713 0.0
C1123 C 0.47301 0.69227 0.11098 0.0
C1124 C 0.45246 0.72789 0.10995 0.0
H1125 H 0.50248 0.64822 0.14593 0.0
H1126 H 0.478 0.67657 0.08445 0.0
C1127 C 0.45329 0.74975 0.14575 0.0
C1128 C 0.19075 0.3992 0.28896 0.0
C1129 C 0.19493 0.4255 0.32092 0.0
H1130 H 0.20134 0.38979 0.22686 0.0
C1131 C 0.21989 0.45846 0.31685 0.0
H1132 H 0.17168 0.37351 0.29143 0.0
C1133 C 0.23692 0.46731 0.28061 0.0
C1134 C 0.22944 0.44349 0.24744 0.0
H1135 H 0.22395 0.47903 0.34102 0.0
H1136 H 0.2533 0.49479 0.27765 0.0
C1137 C 0.20783 0.4083 0.25217 0.0
C1138 C 0.87888 0.91422 0.51718 0.0
C1139 C 0.86838 0.92552 0.55552 0.0
H1140 H 0.87221 0.92507 0.45492 0.0
C1141 C 0.84612 0.95971 0.56063 0.0
H1142 H 0.8959 0.88782 0.51266 0.0
C1143 C 0.83231 0.98074 0.52763 0.0
C1144 C 0.84165 0.96849 0.48929 0.0
H1145 H 0.83739 0.96869 0.58994 0.0
H1146 H 0.81281 1.00541 0.53191 0.0
C1147 C 0.86578 0.93572 0.48427 0.0
C1148 C 0.3064 0.55796 0.77303 0.0
C1149 C 0.2956 0.58047 0.73965 0.0
H1150 H 0.33961 0.55562 0.82742 0.0
C1151 C 0.30263 0.62139 0.7405 0.0
H1152 H 0.29961 0.5268 0.77416 0.0
C1153 C 0.32486 0.63821 0.77166 0.0
C1154 C 0.33981 0.61438 0.80243 0.0
H1155 H 0.29366 0.64006 0.7161 0.0
H1156 H 0.33282 0.66918 0.77019 0.0
C1157 C 0.32877 0.57452 0.80381 0.0
C1158 C 0.70606 0.0818 0.05497 0.0
C1159 C 0.66654 0.09313 0.05338 0.0
H1160 H 0.75355 0.05559 0.02421 0.0
C1161 C 0.64292 0.08283 0.02052 0.0
H1162 H 0.7246 0.08928 0.08025 0.0
C1163 C 0.65979 0.06457 0.98784 0.0
C1164 C 0.70038 0.05683 0.98793 0.0
H1165 H 0.6122 0.09124 1.0191 0.0
H1166 H 0.64178 0.05902 0.96172 0.0
C1167 C 0.72268 0.06326 0.02267 0.0
C1168 C 0.69965 0.14144 0.76983 0.0
C1169 C 0.69495 0.11591 0.73761 0.0
H1170 H 0.71716 0.14757 0.83064 0.0
C1171 C 0.70959 0.07745 0.74064 0.0
H1172 H 0.68869 0.17127 0.76805 0.0
C1173 C 0.72677 0.06418 0.77615 0.0
C1174 C 0.72727 0.08827 0.80985 0.0
H1175 H 0.70603 0.05714 0.71621 0.0
H1176 H 0.73821 0.0346 0.77766 0.0
C1177 C 0.71546 0.12768 0.80572 0.0
C1178 C 0.21662 0.47898 0.03255 0.0
C1179 C 0.19178 0.47027 0.0646 0.0
H1180 H 0.22897 0.47014 0.97118 0.0
C1181 C 0.1559 0.4504 0.05669 0.0
H1182 H 0.24368 0.49565 0.03704 0.0
C1183 C 0.14667 0.43691 1.01819 0.0
C1184 C 0.1732 0.44302 0.98695 0.0
H1185 H 0.13566 0.44409 0.0805 0.0
H1186 H 0.11989 0.41986 1.01333 0.0
C1187 C 0.20784 0.465 0.99452 0.0
C1188 C 0.82858 0.90247 0.31442 0.0
C1189 C 0.81193 0.94019 0.31599 0.0
H1190 H 0.85891 0.86 0.2794 0.0
C1191 C 0.80812 0.96177 0.2804 0.0
H1192 H 0.83084 0.88451 0.34094 0.0
C1193 C 0.82472 0.9479 0.2452 0.0
C1194 C 0.84371 0.91128 0.24445 0.0
H1195 H 0.79376 0.99009 0.28013 0.0
H1196 H 0.8243 0.96657 0.21907 0.0
C1197 C 0.84429 0.88822 0.2791 0.0
C1198 C 0.3375 0.52365 0.51694 0.0
C1199 C 0.32569 0.54167 0.5525 0.0
H1200 H 0.36686 0.52988 0.46109 0.0
C1201 C 0.33697 0.58065 0.55803 0.0
H1202 H 0.33189 0.4925 0.51246 0.0
C1203 C 0.35339 0.60313 0.52769 0.0
C1204 C 0.3656 0.58627 0.49156 0.0
H1205 H 0.3346 0.59374 0.58664 0.0
H1206 H 0.35657 0.63388 0.53437 0.0
C1207 C 0.35771 0.54539 0.48721 0.0
C1208 C 0.27291 0.2282 0.4828 0.0
C1209 C 0.24026 0.22162 0.45765 0.0
H1210 H 0.33345 0.21604 0.49553 0.0
C1211 C 0.2459 0.20238 0.4215 0.0
H1212 H 0.26947 0.24352 0.51057 0.0
C1213 C 0.28307 0.18656 0.41266 0.0
C1214 C 0.31467 0.1898 0.44004 0.0
H1215 H 0.22112 0.19707 0.40162 0.0
H1216 H 0.28621 0.1693 0.38605 0.0
C1217 C 0.30959 0.21254 0.47414 0.0
C1218 C 0.08245 0.99937 0.64985 0.0
C1219 C 0.08779 0.03196 0.67471 0.0
H1220 H 0.06575 0.9385 0.64529 0.0
C1221 C 0.07453 0.02936 0.71391 0.0
H1222 H 0.09215 1.00077 0.61944 0.0
C1223 C 0.05806 0.99399 0.72837 0.0
C1224 C 0.05747 0.95984 0.70492 0.0
H1225 H 0.07835 0.05411 0.73375 0.0
H1226 H 0.0473 0.99295 0.75834 0.0
C1227 C 0.06777 0.96362 0.66485 0.0
C1228 C 0.26283 0.83582 0.91638 0.0
C1229 C 0.23316 0.83119 0.94489 0.0
H1230 H 0.32328 0.82515 0.90092 0.0
C1231 C 0.24245 0.8092 0.97935 0.0
H1232 H 0.25702 0.85227 0.88941 0.0
C1233 C 0.28046 0.79435 0.98615 0.0
C1234 C 0.3108 0.80132 0.95906 0.0
H1235 H 0.22033 0.8039 1.00167 0.0
H1236 H 0.2859 0.77754 1.0128 0.0
C1237 C 0.30101 0.82079 0.92329 0.0
C1238 C 0.45482 0.0516 0.16825 0.0
C1239 C 0.47492 0.05782 0.20454 0.0
H1240 H 0.42401 1.01035 0.13018 0.0
C1241 C 0.48381 0.02446 0.22782 0.0
H1242 H 0.44826 0.07641 0.14907 0.0
C1243 C 0.47008 0.98671 0.21696 0.0
C1244 C 0.44785 0.98069 0.18185 0.0
H1245 H 0.50057 0.02761 0.25513 0.0
H1246 H 0.4755 0.96226 0.23699 0.0
C1247 C 0.44139 0.01359 0.15709 0.0
C1248 C 0.79013 0.32186 0.58355 0.0
C1249 C 0.78855 0.34026 0.62075 0.0
H1250 H 0.7586 0.28849 0.53894 0.0
C1251 C 0.75348 0.33721 0.64222 0.0
H1252 H 0.81664 0.32414 0.56605 0.0
C1253 C 0.71988 0.31878 0.62588 0.0
C1254 C 0.72037 0.30272 0.5876 0.0
H1255 H 0.75137 0.35117 0.67085 0.0
H1256 H 0.69294 0.31843 0.64278 0.0
C1257 C 0.75662 0.30233 0.56761 0.0
C1258 C 0.98106 0.52813 0.80892 0.0
C1259 C 0.97685 0.49313 0.83087 0.0
H1260 H 0.96373 0.58845 0.80183 0.0
C1261 C 0.95707 0.49436 0.86716 0.0
H1262 H 0.9963 0.528 0.78095 0.0
C1263 C 0.93953 0.52942 0.87989 0.0
C1264 C 0.94091 0.56362 0.85621 0.0
H1265 H 0.95324 0.46781 0.88465 0.0
H1266 H 0.92222 0.52893 0.90662 0.0
C1267 C 0.96288 0.56286 0.82115 0.0
C1268 C 0.76881 0.7346 0.05603 0.0
C1269 C 0.80171 0.72726 0.08055 0.0
H1270 H 0.70759 0.72361 0.04394 0.0
C1271 C 0.79551 0.70535 0.11565 0.0
H1272 H 0.77194 0.75233 0.02948 0.0
C1273 C 0.75805 0.68865 0.12424 0.0
C1274 C 0.72573 0.69381 0.09809 0.0
H1275 H 0.82001 0.69984 0.13573 0.0
H1276 H 0.75495 0.67009 0.15021 0.0
C1277 C 0.73164 0.71825 0.06462 0.0
C1278 C 0.59287 0.50775 0.37655 0.0
C1279 C 0.58365 0.47485 0.35275 0.0
H1280 H 0.58735 0.57061 0.38445 0.0
C1281 C 0.55818 0.48085 0.31989 0.0
H1282 H 0.61257 0.50459 0.40182 0.0
C1283 C 0.54501 0.51851 0.30927 0.0
C1284 C 0.55621 0.55176 0.3314 0.0
H1285 H 0.55003 0.45641 0.30089 0.0
H1286 H 0.52658 0.52164 0.28303 0.0
C1287 C 0.57893 0.54571 0.3662 0.0
C1288 C 0.45228 0.31185 0.23125 0.0
C1289 C 0.42834 0.31374 0.19705 0.0
H1290 H 0.4826 0.27477 0.27302 0.0
C1291 C 0.41232 0.2786 0.18153 0.0
H1292 H 0.46552 0.33844 0.24335 0.0
C1293 C 0.42232 0.24204 0.19846 0.0
C1294 C 0.44789 0.24031 0.23145 0.0
H1295 H 0.39453 0.27923 0.15468 0.0
H1296 H 0.41211 0.21515 0.18437 0.0
C1297 C 0.46195 0.2755 0.24827 0.0
C1298 C 0.93703 0.31811 0.83963 0.0
C1299 C 0.95728 0.30851 0.80541 0.0
H1300 H 0.90186 0.29848 0.88743 0.0
C1301 C 0.95421 0.26966 0.79117 0.0
H1302 H 0.93503 0.34844 0.8488 0.0
C1303 C 0.93404 0.24036 0.81273 0.0
C1304 C 0.91609 0.2494 0.84895 0.0
H1305 H 0.9672 0.26199 0.76312 0.0
H1306 H 0.93329 0.21068 0.80123 0.0
C1307 C 0.91716 0.28911 0.86131 0.0
C1308 C 1.00577 0.64567 0.09533 0.0
C1309 C 0.04323 0.66363 0.09463 0.0
H1310 H 0.94552 0.6485 0.07617 0.0
C1311 C 0.04988 0.69591 0.06943 0.0
H1312 H 1.00011 0.62096 0.11498 0.0
C1313 C 0.01859 0.71198 0.04759 0.0
C1314 C 0.98046 0.69552 0.05007 0.0
H1315 H 0.07856 0.7103 0.06877 0.0
H1316 H 0.02358 0.73888 0.03083 0.0
C1317 C 0.97462 0.66131 0.0729 0.0
C1318 C 0.59433 0.79784 0.31773 0.0
C1319 C 0.61724 0.79182 0.35209 0.0
H1320 H 0.55917 0.77046 0.27195 0.0
C1321 C 0.62642 0.75333 0.36408 0.0
H1322 H 0.5866 0.82737 0.30832 0.0
C1323 C 0.61145 0.72113 0.34307 0.0
C1324 C 0.58713 0.72703 0.30982 0.0
H1325 H 0.64394 0.7482 0.39061 0.0
H1326 H 0.617 0.69173 0.35426 0.0
C1327 C 0.5789 0.7655 0.29694 0.0
C1328 C 0.54138 0.3683 0.54369 0.0
C1329 C 0.54405 0.32718 0.54871 0.0
H1330 H 0.51277 0.42156 0.56212 0.0
C1331 C 0.51487 0.30791 0.57127 0.0
H1332 H 0.5628 0.38411 0.52595 0.0
C1333 C 0.48716 0.3291 0.5923 0.0
C1334 C 0.48664 0.37025 0.59018 0.0
H1335 H 0.5144 0.27628 0.57425 0.0
H1336 H 0.46742 0.31336 0.61202 0.0
C1337 C 0.51277 0.38972 0.56432 0.0
C1338 C 0.10204 0.7525 0.66911 0.0
C1339 C 0.11023 0.71876 0.69176 0.0
H1340 H 0.0822 0.81206 0.66941 0.0
C1341 C 0.11134 0.72124 0.73324 0.0
H1342 H 0.1006 0.75095 0.63709 0.0
C1343 C 0.1009 0.75639 0.75181 0.0
C1344 C 0.08904 0.78885 0.72886 0.0
H1345 H 0.11691 0.69525 0.75113 0.0
H1346 H 0.09872 0.75708 0.78376 0.0
C1347 C 0.09136 0.78725 0.68753 0.0
C1348 C 0.52329 0.84676 1.00436 0.0
C1349 C 0.49054 0.84016 0.97933 0.0
H1350 H 0.58599 0.85757 1.00742 0.0
C1351 C 0.49446 0.84693 0.9384 0.0
H1352 H 0.52115 0.84135 0.03589 0.0
C1353 C 0.53121 0.85547 0.92227 0.0
C1354 C 0.56467 0.85825 0.94679 0.0
H1355 H 0.46968 0.84202 0.91837 0.0
H1356 H 0.53399 0.85694 0.89037 0.0
C1357 C 0.56032 0.8557 0.98808 0.0
C1358 C 1.00827 0.15229 0.4391 0.0
C1359 C 0.9776 0.17871 0.447 0.0
H1360 H 0.07 0.13916 0.44699 0.0
C1361 C 0.98543 0.21013 0.47302 0.0
H1362 H 1.00324 0.12767 0.41938 0.0
C1363 C 0.02332 0.21679 0.48828 0.0
C1364 C 0.05468 0.19238 0.47789 0.0
H1365 H 0.96241 0.23054 0.48062 0.0
H1366 H 0.02823 0.2419 0.50742 0.0
C1367 C 0.04651 0.15902 0.45459 0.0
loop_
_geom_bond_atom_site_label_1
_geom_bond_atom_site_label_2
_geom_bond_distance
_geom_bond_site_symmetry_2
_ccdc_geom_bond_type
Eu0 N31 2.657 . S
Eu0 N38 2.609 . S
Eu0 O44 2.558 . S
Eu0 O45 2.612 . S
Eu0 O47 2.339 . S
Eu0 O48 2.563 . S
Eu0 O49 2.419 . S
Eu0 O51 2.380 . S
Eu0 O52 2.432 . S
Eu0 C64 2.848 . S
C1 C4 1.429 . S
C1 C5 1.411 1_455 S
C1 N8 1.377 . S
C2 C4 1.420 . S
C2 C6 1.423 1_455 S
C2 C14 1.392 . S
C3 C5 1.420 . S
C3 C6 1.351 . S
C3 H26 0.931 . S
C4 C1 1.429 . S
C4 C2 1.420 . S
C4 N12 1.362 . S
C5 C1 1.411 1_655 S
C5 C3 1.420 . S
C5 C10 1.395 . S
C6 C2 1.423 1_655 S
C6 C3 1.351 . S
C6 H18 0.930 . S
C7 C9 1.400 1_655 S
C7 C10 1.386 . S
C7 H19 0.930 . S
N8 C1 1.377 . S
N8 C9 1.321 . S
N8 Eu11 2.609 . S
C9 C7 1.400 1_455 S
C9 N8 1.321 . S
C9 H16 0.930 . S
C10 C5 1.395 . S
C10 C7 1.386 . S
C10 H29 0.930 . S
Eu11 N8 2.609 . S
Eu11 N12 2.657 . S
Eu11 O45 2.380 . S
Eu11 O46 2.432 . S
Eu11 O50 2.558 . S
Eu11 O51 2.612 . S
Eu11 O53 2.339 . S
Eu11 O54 2.563 . S
Eu11 O55 2.419 . S
Eu11 C75 2.848 . S
N12 C4 1.362 . S
N12 Eu11 2.657 . S
N12 C13 1.334 . S
C13 N12 1.334 . S
C13 C15 1.413 . S
C13 H20 0.929 . S
C14 C2 1.392 . S
C14 C15 1.367 . S
C14 H22 0.930 . S
C15 C13 1.413 . S
C15 C14 1.367 . S
C15 H17 0.930 . S
H16 C9 0.930 . S
H17 C15 0.930 . S
H18 C6 0.930 . S
H19 C7 0.930 . S
H20 C13 0.929 . S
H21 C35 0.930 . S
H22 C14 0.930 . S
H23 C41 0.930 . S
H24 C32 0.929 . S
H25 C39 0.930 . S
H26 C3 0.931 . S
H27 C33 0.930 . S
H28 C66 0.930 . S
H29 C10 0.930 . S
H30 C65 0.931 . S
N31 Eu0 2.657 . S
N31 C32 1.334 . S
N31 C36 1.362 . S
C32 H24 0.929 . S
C32 N31 1.334 . S
C32 C35 1.413 . S
C33 H27 0.930 . S
C33 C34 1.392 . S
C33 C35 1.367 . S
C34 C33 1.392 . S
C34 C36 1.420 . S
C34 C66 1.423 . S
C35 H21 0.930 . S
C35 C32 1.413 . S
C35 C33 1.367 . S
C36 N31 1.362 . S
C36 C34 1.420 . S
C36 C40 1.429 . S
H37 C42 0.930 . S
N38 Eu0 2.609 . S
N38 C40 1.377 . S
N38 C41 1.321 . S
C39 H25 0.930 . S
C39 C41 1.400 . S
C39 C42 1.386 . S
C40 C36 1.429 . S
C40 N38 1.377 . S
C40 C43 1.411 . S
C41 H23 0.930 . S
C41 N38 1.321 . S
C41 C39 1.400 . S
C42 H37 0.930 . S
C42 C39 1.386 . S
C42 C43 1.395 . S
C43 C40 1.411 . S
C43 C42 1.395 . S
C43 C65 1.420 . S
O44 Eu0 2.558 . S
O44 C64 1.257 . S
O45 Eu0 2.612 . S
O45 Eu11 2.380 . S
O45 C56 1.276 . S
O46 Eu11 2.432 . S
O46 C63 1.264 . S
O47 Eu0 2.339 . S
O47 C63 1.254 . S
O48 Eu0 2.563 . S
O48 C56 1.235 . S
O49 Eu0 2.419 . S
O49 C64 1.249 . S
O50 Eu11 2.558 . S
O50 C75 1.257 . S
O51 Eu0 2.380 . S
O51 Eu11 2.612 . S
O51 C67 1.276 . S
O52 Eu0 2.432 . S
O52 C74 1.264 . S
O53 Eu11 2.339 . S
O53 C74 1.254 . S
O54 Eu11 2.563 . S
O54 C67 1.235 . S
O55 Eu11 2.419 . S
O55 C75 1.249 . S
C56 O45 1.276 . S
C56 O48 1.235 . S
C57 C59 1.393 . S
C57 C61 1.395 . S
C57 C64 1.492 . S
C58 C59 1.392 . S
C58 C60 1.386 . S
C59 C57 1.393 . S
C59 C58 1.392 . S
C59 H76 0.930 . S
C60 C58 1.386 . S
C60 C62 1.395 . S
C60 H77 0.930 . S
C61 C57 1.395 . S
C61 C62 1.379 . S
C61 H78 0.930 . S
C62 C60 1.395 . S
C62 C61 1.379 . S
C62 H79 0.930 . S
C63 O46 1.264 . S
C63 O47 1.254 . S
C64 Eu0 2.848 . S
C64 O44 1.257 . S
C64 O49 1.249 . S
C64 C57 1.492 . S
C65 H30 0.931 . S
C65 C43 1.420 . S
C65 C66 1.351 . S
C66 H28 0.930 . S
C66 C34 1.423 . S
C66 C65 1.351 . S
C67 O51 1.276 . S
C67 O54 1.235 . S
C68 C69 1.393 . S
C68 C72 1.395 . S
C68 C75 1.492 . S
C69 C68 1.393 . S
C69 C70 1.392 . S
C69 H80 0.930 . S
C70 C69 1.392 . S
C70 C71 1.386 . S
C71 C70 1.386 . S
C71 C73 1.395 . S
C71 H81 0.930 . S
C72 C68 1.395 . S
C72 C73 1.379 . S
C72 H82 0.930 . S
C73 C71 1.395 . S
C73 C72 1.379 . S
C73 H83 0.930 . S
C74 O52 1.264 . S
C74 O53 1.254 . S
C75 Eu11 2.848 . S
C75 O50 1.257 . S
C75 O55 1.249 . S
C75 C68 1.492 . S
H76 C59 0.930 . S
H77 C60 0.930 . S
H78 C61 0.930 . S
H79 C62 0.930 . S
H80 C69 0.930 . S
H81 C71 0.930 . S
H82 C72 0.930 . S
H83 C73 0.930 . S
Eu84 N115 2.657 . S
Eu84 N122 2.609 . S
Eu84 O128 2.558 . S
Eu84 O129 2.612 1_655 S
Eu84 O131 2.339 . S
Eu84 O132 2.563 . S
Eu84 O133 2.419 . S
Eu84 O135 2.380 . S
Eu84 O136 2.432 1_655 S
Eu84 C148 2.848 . S
C85 C88 1.429 . S
C85 C89 1.411 1_565 S
C85 N92 1.377 . S
C86 C88 1.420 . S
C86 C90 1.423 1_565 S
C86 C98 1.392 . S
C87 C89 1.420 . S
C87 C90 1.351 . S
C87 H110 0.931 . S
C88 C85 1.429 . S
C88 C86 1.420 . S
C88 N96 1.362 . S
C89 C85 1.411 1_545 S
C89 C87 1.420 . S
C89 C94 1.395 . S
C90 C86 1.423 1_545 S
C90 C87 1.351 . S
C90 H102 0.930 . S
C91 C93 1.400 1_545 S
C91 C94 1.386 . S
C91 H103 0.930 . S
N92 C85 1.377 . S
N92 C93 1.321 . S
N92 Eu95 2.609 . S
C93 C91 1.400 1_565 S
C93 N92 1.321 . S
C93 H100 0.930 . S
C94 C89 1.395 . S
C94 C91 1.386 . S
C94 H113 0.930 . S
Eu95 N92 2.609 . S
Eu95 N96 2.657 . S
Eu95 O129 2.380 . S
Eu95 O130 2.432 1_455 S
Eu95 O134 2.558 . S
Eu95 O135 2.612 1_455 S
Eu95 O137 2.339 . S
Eu95 O138 2.563 . S
Eu95 O139 2.419 . S
Eu95 C159 2.848 . S
N96 C88 1.362 . S
N96 Eu95 2.657 . S
N96 C97 1.334 . S
C97 N96 1.334 . S
C97 C99 1.413 . S
C97 H104 0.929 . S
C98 C86 1.392 . S
C98 C99 1.367 . S
C98 H106 0.930 . S
C99 C97 1.413 . S
C99 C98 1.367 . S
C99 H101 0.930 . S
H100 C93 0.930 . S
H101 C99 0.930 . S
H102 C90 0.930 . S
H103 C91 0.930 . S
H104 C97 0.929 . S
H105 C119 0.930 . S
H106 C98 0.930 . S
H107 C125 0.930 . S
H108 C116 0.929 . S
H109 C123 0.930 . S
H110 C87 0.931 . S
H111 C117 0.930 . S
H112 C150 0.930 . S
H113 C94 0.930 . S
H114 C149 0.931 . S
N115 Eu84 2.657 . S
N115 C116 1.334 . S
N115 C120 1.362 . S
C116 H108 0.929 . S
C116 N115 1.334 . S
C116 C119 1.413 . S
C117 H111 0.930 . S
C117 C118 1.392 . S
C117 C119 1.367 . S
C118 C117 1.392 . S
C118 C120 1.420 . S
C118 C150 1.423 . S
C119 H105 0.930 . S
C119 C116 1.413 . S
C119 C117 1.367 . S
C120 N115 1.362 . S
C120 C118 1.420 . S
C120 C124 1.429 . S
H121 C126 0.930 . S
N122 Eu84 2.609 . S
N122 C124 1.377 . S
N122 C125 1.321 . S
C123 H109 0.930 . S
C123 C125 1.400 . S
C123 C126 1.386 . S
C124 C120 1.429 . S
C124 N122 1.377 . S
C124 C127 1.411 . S
C125 H107 0.930 . S
C125 N122 1.321 . S
C125 C123 1.400 . S
C126 H121 0.930 . S
C126 C123 1.386 . S
C126 C127 1.395 . S
C127 C124 1.411 . S
C127 C126 1.395 . S
C127 C149 1.420 . S
O128 Eu84 2.558 . S
O128 C148 1.257 . S
O129 Eu84 2.612 1_455 S
O129 Eu95 2.380 . S
O129 C140 1.276 . S
O130 Eu95 2.432 1_655 S
O130 C147 1.264 . S
O131 Eu84 2.339 . S
O131 C147 1.254 . S
O132 Eu84 2.563 . S
O132 C140 1.235 1_655 S
O133 Eu84 2.419 . S
O133 C148 1.249 . S
O134 Eu95 2.558 . S
O134 C159 1.257 . S
O135 Eu84 2.380 . S
O135 Eu95 2.612 1_655 S
O135 C151 1.276 . S
O136 Eu84 2.432 1_455 S
O136 C158 1.264 . S
O137 Eu95 2.339 . S
O137 C158 1.254 . S
O138 Eu95 2.563 . S
O138 C151 1.235 1_455 S
O139 Eu95 2.419 . S
O139 C159 1.249 . S
C140 O129 1.276 . S
C140 O132 1.235 1_455 S
C141 C143 1.393 . S
C141 C145 1.395 . S
C141 C148 1.492 . S
C142 C143 1.392 . S
C142 C144 1.386 . S
C143 C141 1.393 . S
C143 C142 1.392 . S
C143 H160 0.930 . S
C144 C142 1.386 . S
C144 C146 1.395 . S
C144 H161 0.930 . S
C145 C141 1.395 . S
C145 C146 1.379 . S
C145 H162 0.930 . S
C146 C144 1.395 . S
C146 C145 1.379 . S
C146 H163 0.930 . S
C147 O130 1.264 . S
C147 O131 1.254 . S
C148 Eu84 2.848 . S
C148 O128 1.257 . S
C148 O133 1.249 . S
C148 C141 1.492 . S
C149 H114 0.931 . S
C149 C127 1.420 . S
C149 C150 1.351 . S
C150 H112 0.930 . S
C150 C118 1.423 . S
C150 C149 1.351 . S
C151 O135 1.276 . S
C151 O138 1.235 1_655 S
C152 C153 1.393 . S
C152 C156 1.395 . S
C152 C159 1.492 . S
C153 C152 1.393 . S
C153 C154 1.392 . S
C153 H164 0.930 . S
C154 C153 1.392 . S
C154 C155 1.386 . S
C155 C154 1.386 . S
C155 C157 1.395 . S
C155 H165 0.930 . S
C156 C152 1.395 . S
C156 C157 1.379 . S
C156 H166 0.930 . S
C157 C155 1.395 . S
C157 C156 1.379 . S
C157 H167 0.930 . S
C158 O136 1.264 . S
C158 O137 1.254 . S
C159 Eu95 2.848 . S
C159 O134 1.257 . S
C159 O139 1.249 . S
C159 C152 1.492 . S
H160 C143 0.930 . S
H161 C144 0.930 . S
H162 C145 0.930 . S
H163 C146 0.930 . S
H164 C153 0.930 . S
H165 C155 0.930 . S
H166 C156 0.930 . S
H167 C157 0.930 . S
Eu168 N199 2.668 . S
Eu168 N206 2.609 . S
Eu168 O212 2.558 . S
Eu168 O213 2.612 . S
Eu168 O215 2.339 1_556 S
Eu168 O216 2.563 . S
Eu168 O217 2.419 . S
Eu168 O219 2.380 1_556 S
Eu168 O220 2.432 . S
Eu168 C232 2.848 . S
C169 C172 1.429 . S
C169 C173 1.411 . S
C169 N176 1.377 . S
C170 C172 1.420 1_556 S
C170 C174 1.423 . S
C170 C182 1.392 . S
C171 C173 1.420 . S
C171 C174 1.351 1_554 S
C171 H194 0.931 . S
C172 C169 1.429 . S
C172 C170 1.420 1_554 S
C172 N180 1.358 1_554 S
C173 C169 1.411 . S
C173 C171 1.420 . S
C173 C178 1.395 . S
C174 C170 1.423 . S
C174 C171 1.351 1_556 S
C174 H186 0.930 . S
C175 C177 1.400 . S
C175 C178 1.386 . S
C175 H187 0.930 . S
N176 C169 1.377 . S
N176 C177 1.321 . S
N176 Eu179 2.609 . S
C177 C175 1.400 . S
C177 N176 1.321 . S
C177 H184 0.930 . S
C178 C173 1.395 . S
C178 C175 1.386 . S
C178 H197 0.930 . S
Eu179 N176 2.609 . S
Eu179 N180 2.647 1_554 S
Eu179 O213 2.380 1_554 S
Eu179 O214 2.432 . S
Eu179 O218 2.558 . S
Eu179 O219 2.612 . S
Eu179 O221 2.339 1_554 S
Eu179 O222 2.563 . S
Eu179 O223 2.419 . S
Eu179 C243 2.848 . S
N180 C172 1.358 1_556 S
N180 Eu179 2.647 1_556 S
N180 C181 1.348 . S
C181 N180 1.348 . S
C181 C183 1.413 . S
C181 H188 0.929 . S
C182 C170 1.392 . S
C182 C183 1.367 . S
C182 H190 0.930 . S
C183 C181 1.413 . S
C183 C182 1.367 . S
C183 H185 0.930 . S
H184 C177 0.930 . S
H185 C183 0.930 . S
H186 C174 0.930 . S
H187 C175 0.930 . S
H188 C181 0.929 . S
H189 C203 0.930 . S
H190 C182 0.930 . S
H191 C209 0.930 . S
H192 C200 0.929 . S
H193 C207 0.930 . S
H194 C171 0.931 . S
H195 C201 0.930 . S
H196 C234 0.934 . S
H197 C178 0.930 . S
H198 C233 0.931 . S
N199 Eu168 2.668 . S
N199 C200 1.318 1_556 S
N199 C204 1.367 . S
C200 H192 0.929 . S
C200 N199 1.318 1_554 S
C200 C203 1.413 . S
C201 H195 0.930 . S
C201 C202 1.392 . S
C201 C203 1.367 . S
C202 C201 1.392 . S
C202 C204 1.420 1_554 S
C202 C234 1.425 . S
C203 H189 0.930 . S
C203 C200 1.413 . S
C203 C201 1.367 . S
C204 N199 1.367 . S
C204 C202 1.420 1_556 S
C204 C208 1.429 . S
H205 C210 0.930 . S
N206 Eu168 2.609 . S
N206 C208 1.377 . S
N206 C209 1.321 . S
C207 H193 0.930 . S
C207 C209 1.400 . S
C207 C210 1.386 . S
C208 C204 1.429 . S
C208 N206 1.377 . S
C208 C211 1.411 . S
C209 H191 0.930 . S
C209 N206 1.321 . S
C209 C207 1.400 . S
C210 H205 0.930 . S
C210 C207 1.386 . S
C210 C211 1.395 . S
C211 C208 1.411 . S
C211 C210 1.395 . S
C211 C233 1.420 . S
O212 Eu168 2.558 . S
O212 C232 1.257 . S
O213 Eu168 2.612 . S
O213 Eu179 2.380 1_556 S
O213 C224 1.276 . S
O214 Eu179 2.432 . S
O214 C231 1.264 . S
O215 Eu168 2.339 1_554 S
O215 C231 1.254 . S
O216 Eu168 2.563 . S
O216 C224 1.235 . S
O217 Eu168 2.419 . S
O217 C232 1.249 . S
O218 Eu179 2.558 . S
O218 C243 1.257 . S
O219 Eu168 2.380 1_554 S
O219 Eu179 2.612 . S
O219 C235 1.276 . S
O220 Eu168 2.432 . S
O220 C242 1.264 . S
O221 Eu179 2.339 1_556 S
O221 C242 1.254 . S
O222 Eu179 2.563 . S
O222 C235 1.235 . S
O223 Eu179 2.419 . S
O223 C243 1.249 . S
C224 O213 1.276 . S
C224 O216 1.235 . S
C225 C227 1.393 . S
C225 C229 1.395 . S
C225 C232 1.492 . S
C226 C227 1.392 . S
C226 C228 1.386 . S
C227 C225 1.393 . S
C227 C226 1.392 . S
C227 H244 0.930 . S
C228 C226 1.386 . S
C228 C230 1.395 . S
C228 H245 0.930 . S
C229 C225 1.395 . S
C229 C230 1.379 . S
C229 H246 0.930 . S
C230 C228 1.395 . S
C230 C229 1.379 . S
C230 H247 0.930 . S
C231 O214 1.264 . S
C231 O215 1.254 . S
C232 Eu168 2.848 . S
C232 O212 1.257 . S
C232 O217 1.249 . S
C232 C225 1.492 . S
C233 H198 0.931 . S
C233 C211 1.420 . S
C233 C234 1.344 1_556 S
C234 H196 0.934 . S
C234 C202 1.425 . S
C234 C233 1.344 1_554 S
C235 O219 1.276 . S
C235 O222 1.235 . S
C236 C237 1.393 . S
C236 C240 1.395 . S
C236 C243 1.492 . S
C237 C236 1.393 . S
C237 C238 1.392 . S
C237 H248 0.930 . S
C238 C237 1.392 . S
C238 C239 1.386 . S
C239 C238 1.386 . S
C239 C241 1.395 . S
C239 H249 0.930 . S
C240 C236 1.395 . S
C240 C241 1.379 . S
C240 H250 0.930 . S
C241 C239 1.395 . S
C241 C240 1.379 . S
C241 H251 0.930 . S
C242 O220 1.264 . S
C242 O221 1.254 . S
C243 Eu179 2.848 . S
C243 O218 1.257 . S
C243 O223 1.249 . S
C243 C236 1.492 . S
H244 C227 0.930 . S
H245 C228 0.930 . S
H246 C229 0.930 . S
H247 C230 0.930 . S
H248 C237 0.930 . S
H249 C239 0.930 . S
H250 C240 0.930 . S
H251 C241 0.930 . S
Eu252 N283 2.657 . S
Eu252 N290 2.609 . S
Eu252 O296 2.558 . S
Eu252 O297 2.612 . S
Eu252 O299 2.339 . S
Eu252 O300 2.563 . S
Eu252 O301 2.419 . S
Eu252 O303 2.380 . S
Eu252 O304 2.432 . S
Eu252 C316 2.848 . S
C253 C256 1.429 . S
C253 C257 1.411 1_545 S
C253 N260 1.377 . S
C254 C256 1.420 . S
C254 C258 1.423 1_545 S
C254 C266 1.392 . S
C255 C257 1.420 . S
C255 C258 1.351 . S
C255 H278 0.931 . S
C256 C253 1.429 . S
C256 C254 1.420 . S
C256 N264 1.362 . S
C257 C253 1.411 1_565 S
C257 C255 1.420 . S
C257 C262 1.395 . S
C258 C254 1.423 1_565 S
C258 C255 1.351 . S
C258 H270 0.930 . S
C259 C261 1.400 1_565 S
C259 C262 1.386 . S
C259 H271 0.930 . S
N260 C253 1.377 . S
N260 C261 1.321 . S
N260 Eu263 2.609 . S
C261 C259 1.400 1_545 S
C261 N260 1.321 . S
C261 H268 0.930 . S
C262 C257 1.395 . S
C262 C259 1.386 . S
C262 H281 0.930 . S
Eu263 N260 2.609 . S
Eu263 N264 2.657 . S
Eu263 O297 2.380 . S
Eu263 O298 2.432 . S
Eu263 O302 2.558 . S
Eu263 O303 2.612 . S
Eu263 O305 2.339 . S
Eu263 O306 2.563 . S
Eu263 O307 2.419 . S
Eu263 C327 2.848 . S
N264 C256 1.362 . S
N264 Eu263 2.657 . S
N264 C265 1.334 . S
C265 N264 1.334 . S
C265 C267 1.413 . S
C265 H272 0.929 . S
C266 C254 1.392 . S
C266 C267 1.367 . S
C266 H274 0.930 . S
C267 C265 1.413 . S
C267 C266 1.367 . S
C267 H269 0.930 . S
H268 C261 0.930 . S
H269 C267 0.930 . S
H270 C258 0.930 . S
H271 C259 0.930 . S
H272 C265 0.929 . S
H273 C287 0.930 . S
H274 C266 0.930 . S
H275 C293 0.930 . S
H276 C284 0.929 . S
H277 C291 0.930 . S
H278 C255 0.931 . S
H279 C285 0.930 . S
H280 C318 0.930 . S
H281 C262 0.930 . S
H282 C317 0.931 . S
N283 Eu252 2.657 . S
N283 C284 1.334 . S
N283 C288 1.362 . S
C284 H276 0.929 . S
C284 N283 1.334 . S
C284 C287 1.413 . S
C285 H279 0.930 . S
C285 C286 1.392 . S
C285 C287 1.367 . S
C286 C285 1.392 . S
C286 C288 1.420 . S
C286 C318 1.423 . S
C287 H273 0.930 . S
C287 C284 1.413 . S
C287 C285 1.367 . S
C288 N283 1.362 . S
C288 C286 1.420 . S
C288 C292 1.429 . S
H289 C294 0.930 . S
N290 Eu252 2.609 . S
N290 C292 1.377 . S
N290 C293 1.321 . S
C291 H277 0.930 . S
C291 C293 1.400 . S
C291 C294 1.386 . S
C292 C288 1.429 . S
C292 N290 1.377 . S
C292 C295 1.411 . S
C293 H275 0.930 . S
C293 N290 1.321 . S
C293 C291 1.400 . S
C294 H289 0.930 . S
C294 C291 1.386 . S
C294 C295 1.395 . S
C295 C292 1.411 . S
C295 C294 1.395 . S
C295 C317 1.420 . S
O296 Eu252 2.558 . S
O296 C316 1.257 . S
O297 Eu252 2.612 . S
O297 Eu263 2.380 . S
O297 C308 1.276 . S
O298 Eu263 2.432 . S
O298 C315 1.264 . S
O299 Eu252 2.339 . S
O299 C315 1.254 . S
O300 Eu252 2.563 . S
O300 C308 1.235 . S
O301 Eu252 2.419 . S
O301 C316 1.249 . S
O302 Eu263 2.558 . S
O302 C327 1.257 . S
O303 Eu252 2.380 . S
O303 Eu263 2.612 . S
O303 C319 1.276 . S
O304 Eu252 2.432 . S
O304 C326 1.264 . S
O305 Eu263 2.339 . S
O305 C326 1.254 . S
O306 Eu263 2.563 . S
O306 C319 1.235 . S
O307 Eu263 2.419 . S
O307 C327 1.249 . S
C308 O297 1.276 . S
C308 O300 1.235 . S
C309 C311 1.393 . S
C309 C313 1.395 . S
C309 C316 1.492 . S
C310 C311 1.392 . S
C310 C312 1.386 . S
C311 C309 1.393 . S
C311 C310 1.392 . S
C311 H328 0.930 . S
C312 C310 1.386 . S
C312 C314 1.395 . S
C312 H329 0.930 . S
C313 C309 1.395 . S
C313 C314 1.379 . S
C313 H330 0.930 . S
C314 C312 1.395 . S
C314 C313 1.379 . S
C314 H331 0.930 . S
C315 O298 1.264 . S
C315 O299 1.254 . S
C316 Eu252 2.848 . S
C316 O296 1.257 . S
C316 O301 1.249 . S
C316 C309 1.492 . S
C317 H282 0.931 . S
C317 C295 1.420 . S
C317 C318 1.351 . S
C318 H280 0.930 . S
C318 C286 1.423 . S
C318 C317 1.351 . S
C319 O303 1.276 . S
C319 O306 1.235 . S
C320 C321 1.393 . S
C320 C324 1.395 . S
C320 C327 1.492 . S
C321 C320 1.393 . S
C321 C322 1.392 . S
C321 H332 0.930 . S
C322 C321 1.392 . S
C322 C323 1.386 . S
C323 C322 1.386 . S
C323 C325 1.395 . S
C323 H333 0.930 . S
C324 C320 1.395 . S
C324 C325 1.379 . S
C324 H334 0.930 . S
C325 C323 1.395 . S
C325 C324 1.379 . S
C325 H335 0.930 . S
C326 O304 1.264 . S
C326 O305 1.254 . S
C327 Eu263 2.848 . S
C327 O302 1.257 . S
C327 O307 1.249 . S
C327 C320 1.492 . S
H328 C311 0.930 . S
H329 C312 0.930 . S
H330 C313 0.930 . S
H331 C314 0.930 . S
H332 C321 0.930 . S
H333 C323 0.930 . S
H334 C324 0.930 . S
H335 C325 0.930 . S
Eu336 N367 2.657 . S
Eu336 N374 2.609 . S
Eu336 O380 2.558 . S
Eu336 O381 2.612 . S
Eu336 O383 2.339 . S
Eu336 O384 2.563 . S
Eu336 O385 2.419 . S
Eu336 O387 2.380 . S
Eu336 O388 2.432 . S
Eu336 C400 2.848 . S
C337 C340 1.429 . S
C337 C341 1.411 . S
C337 N344 1.377 . S
C338 C340 1.420 . S
C338 C342 1.423 . S
C338 C350 1.392 . S
C339 C341 1.420 . S
C339 C342 1.351 . S
C339 H362 0.931 . S
C340 C337 1.429 . S
C340 C338 1.420 . S
C340 N348 1.362 . S
C341 C337 1.411 . S
C341 C339 1.420 . S
C341 C346 1.395 . S
C342 C338 1.423 . S
C342 C339 1.351 . S
C342 H354 0.930 . S
C343 C345 1.400 . S
C343 C346 1.386 . S
C343 H355 0.930 . S
N344 C337 1.377 . S
N344 C345 1.321 . S
N344 Eu347 2.609 . S
C345 C343 1.400 . S
C345 N344 1.321 . S
C345 H352 0.930 . S
C346 C341 1.395 . S
C346 C343 1.386 . S
C346 H365 0.930 . S
Eu347 N344 2.609 . S
Eu347 N348 2.657 . S
Eu347 O381 2.380 . S
Eu347 O382 2.432 . S
Eu347 O386 2.558 . S
Eu347 O387 2.612 . S
Eu347 O389 2.339 . S
Eu347 O390 2.563 . S
Eu347 O391 2.419 . S
Eu347 C411 2.848 . S
N348 C340 1.362 . S
N348 Eu347 2.657 . S
N348 C349 1.334 . S
C349 N348 1.334 . S
C349 C351 1.413 . S
C349 H356 0.929 . S
C350 C338 1.392 . S
C350 C351 1.367 . S
C350 H358 0.930 . S
C351 C349 1.413 . S
C351 C350 1.367 . S
C351 H353 0.930 . S
H352 C345 0.930 . S
H353 C351 0.930 . S
H354 C342 0.930 . S
H355 C343 0.930 . S
H356 C349 0.929 . S
H357 C371 0.930 . S
H358 C350 0.930 . S
H359 C377 0.930 . S
H360 C368 0.929 . S
H361 C375 0.930 . S
H362 C339 0.931 . S
H363 C369 0.930 . S
H364 C402 0.930 . S
H365 C346 0.930 . S
H366 C401 0.931 . S
N367 Eu336 2.657 . S
N367 C368 1.334 . S
N367 C372 1.362 . S
C368 H360 0.929 . S
C368 N367 1.334 . S
C368 C371 1.413 . S
C369 H363 0.930 . S
C369 C370 1.392 . S
C369 C371 1.367 . S
C370 C369 1.392 . S
C370 C372 1.420 . S
C370 C402 1.423 . S
C371 H357 0.930 . S
C371 C368 1.413 . S
C371 C369 1.367 . S
C372 N367 1.362 . S
C372 C370 1.420 . S
C372 C376 1.429 . S
H373 C378 0.930 . S
N374 Eu336 2.609 . S
N374 C376 1.377 . S
N374 C377 1.321 . S
C375 H361 0.930 . S
C375 C377 1.400 . S
C375 C378 1.386 . S
C376 C372 1.429 . S
C376 N374 1.377 . S
C376 C379 1.411 . S
C377 H359 0.930 . S
C377 N374 1.321 . S
C377 C375 1.400 . S
C378 H373 0.930 . S
C378 C375 1.386 . S
C378 C379 1.395 . S
C379 C376 1.411 . S
C379 C378 1.395 . S
C379 C401 1.420 . S
O380 Eu336 2.558 . S
O380 C400 1.257 . S
O381 Eu336 2.612 . S
O381 Eu347 2.380 . S
O381 C392 1.276 . S
O382 Eu347 2.432 . S
O382 C399 1.264 . S
O383 Eu336 2.339 . S
O383 C399 1.254 . S
O384 Eu336 2.563 . S
O384 C392 1.235 . S
O385 Eu336 2.419 . S
O385 C400 1.249 . S
O386 Eu347 2.558 . S
O386 C411 1.257 . S
O387 Eu336 2.380 . S
O387 Eu347 2.612 . S
O387 C403 1.276 . S
O388 Eu336 2.432 . S
O388 C410 1.264 . S
O389 Eu347 2.339 . S
O389 C410 1.254 . S
O390 Eu347 2.563 . S
O390 C403 1.235 . S
O391 Eu347 2.419 . S
O391 C411 1.249 . S
C392 O381 1.276 . S
C392 O384 1.235 . S
C393 C395 1.393 . S
C393 C397 1.395 . S
C393 C400 1.492 . S
C394 C395 1.392 . S
C394 C396 1.386 . S
C395 C393 1.393 . S
C395 C394 1.392 . S
C395 H412 0.930 . S
C396 C394 1.386 . S
C396 C398 1.395 . S
C396 H413 0.930 . S
C397 C393 1.395 . S
C397 C398 1.379 . S
C397 H414 0.930 . S
C398 C396 1.395 . S
C398 C397 1.379 . S
C398 H415 0.930 . S
C399 O382 1.264 . S
C399 O383 1.254 . S
C400 Eu336 2.848 . S
C400 O380 1.257 . S
C400 O385 1.249 . S
C400 C393 1.492 . S
C401 H366 0.931 . S
C401 C379 1.420 . S
C401 C402 1.351 . S
C402 H364 0.930 . S
C402 C370 1.423 . S
C402 C401 1.351 . S
C403 O387 1.276 . S
C403 O390 1.235 . S
C404 C405 1.393 . S
C404 C408 1.395 . S
C404 C411 1.492 . S
C405 C404 1.393 . S
C405 C406 1.392 . S
C405 H416 0.930 . S
C406 C405 1.392 . S
C406 C407 1.386 . S
C407 C406 1.386 . S
C407 C409 1.395 . S
C407 H417 0.930 . S
C408 C404 1.395 . S
C408 C409 1.379 . S
C408 H418 0.930 . S
C409 C407 1.395 . S
C409 C408 1.379 . S
C409 H419 0.930 . S
C410 O388 1.264 . S
C410 O389 1.254 . S
C411 Eu347 2.848 . S
C411 O386 1.257 . S
C411 O391 1.249 . S
C411 C404 1.492 . S
H412 C395 0.930 . S
H413 C396 0.930 . S
H414 C397 0.930 . S
H415 C398 0.930 . S
H416 C405 0.930 . S
H417 C407 0.930 . S
H418 C408 0.930 . S
H419 C409 0.930 . S
Eu420 N451 2.669 . S
Eu420 N458 2.609 . S
Eu420 O464 2.558 . S
Eu420 O465 2.612 . S
Eu420 O467 2.339 1_655 S
Eu420 O468 2.563 . S
Eu420 O469 2.419 . S
Eu420 O471 2.380 1_655 S
Eu420 O472 2.432 . S
Eu420 C484 2.848 . S
C421 C424 1.429 . S
C421 C425 1.411 . S
C421 N428 1.377 . S
C422 C424 1.420 1_655 S
C422 C426 1.423 . S
C422 C434 1.392 . S
C423 C425 1.420 . S
C423 C426 1.351 1_455 S
C423 H446 0.931 . S
C424 C421 1.429 . S
C424 C422 1.420 1_455 S
C424 N432 1.362 1_455 S
C425 C421 1.411 . S
C425 C423 1.420 . S
C425 C430 1.395 . S
C426 C422 1.423 . S
C426 C423 1.351 1_655 S
C426 H438 0.930 . S
C427 C429 1.400 . S
C427 C430 1.386 . S
C427 H439 0.930 . S
N428 C421 1.377 . S
N428 C429 1.321 . S
N428 Eu431 2.609 . S
C429 C427 1.400 . S
C429 N428 1.321 . S
C429 H436 0.930 . S
C430 C425 1.395 . S
C430 C427 1.386 . S
C430 H449 0.930 . S
Eu431 N428 2.609 . S
Eu431 N432 2.657 1_455 S
Eu431 O465 2.380 1_455 S
Eu431 O466 2.432 . S
Eu431 O470 2.558 . S
Eu431 O471 2.612 . S
Eu431 O473 2.339 1_455 S
Eu431 O474 2.563 . S
Eu431 O475 2.419 . S
Eu431 C495 2.848 . S
N432 C424 1.362 1_655 S
N432 Eu431 2.657 1_655 S
N432 C433 1.334 . S
C433 N432 1.334 . S
C433 C435 1.413 . S
C433 H440 0.929 . S
C434 C422 1.392 . S
C434 C435 1.367 . S
C434 H442 0.930 . S
C435 C433 1.413 . S
C435 C434 1.367 . S
C435 H437 0.930 . S
H436 C429 0.930 . S
H437 C435 0.930 . S
H438 C426 0.930 . S
H439 C427 0.930 . S
H440 C433 0.929 . S
H441 C455 0.930 . S
H442 C434 0.930 . S
H443 C461 0.930 . S
H444 C452 0.929 . S
H445 C459 0.930 . S
H446 C423 0.931 . S
H447 C453 0.930 . S
H448 C486 0.939 . S
H449 C430 0.930 . S
H450 C485 0.931 . S
N451 Eu420 2.669 . S
N451 C452 1.316 1_655 S
N451 C456 1.367 . S
C452 H444 0.929 . S
C452 N451 1.316 1_455 S
C452 C455 1.413 . S
C453 H447 0.930 . S
C453 C454 1.392 . S
C453 C455 1.367 . S
C454 C453 1.392 . S
C454 C456 1.420 1_455 S
C454 C486 1.427 . S
C455 H441 0.930 . S
C455 C452 1.413 . S
C455 C453 1.367 . S
C456 N451 1.367 . S
C456 C454 1.420 1_655 S
C456 C460 1.429 . S
H457 C462 0.930 . S
N458 Eu420 2.609 . S
N458 C460 1.377 . S
N458 C461 1.321 . S
C459 H445 0.930 . S
C459 C461 1.400 . S
C459 C462 1.386 . S
C460 C456 1.429 . S
C460 N458 1.377 . S
C460 C463 1.411 . S
C461 H443 0.930 . S
C461 N458 1.321 . S
C461 C459 1.400 . S
C462 H457 0.930 . S
C462 C459 1.386 . S
C462 C463 1.395 . S
C463 C460 1.411 . S
C463 C462 1.395 . S
C463 C485 1.420 . S
O464 Eu420 2.558 . S
O464 C484 1.257 . S
O465 Eu420 2.612 . S
O465 Eu431 2.380 1_655 S
O465 C476 1.276 . S
O466 Eu431 2.432 . S
O466 C483 1.264 . S
O467 Eu420 2.339 1_455 S
O467 C483 1.254 . S
O468 Eu420 2.563 . S
O468 C476 1.235 . S
O469 Eu420 2.419 . S
O469 C484 1.249 . S
O470 Eu431 2.558 . S
O470 C495 1.257 . S
O471 Eu420 2.380 1_455 S
O471 Eu431 2.612 . S
O471 C487 1.276 . S
O472 Eu420 2.432 . S
O472 C494 1.264 . S
O473 Eu431 2.339 1_655 S
O473 C494 1.254 . S
O474 Eu431 2.563 . S
O474 C487 1.235 . S
O475 Eu431 2.419 . S
O475 C495 1.249 . S
C476 O465 1.276 . S
C476 O468 1.235 . S
C477 C479 1.393 . S
C477 C481 1.395 . S
C477 C484 1.492 . S
C478 C479 1.392 . S
C478 C480 1.386 . S
C479 C477 1.393 . S
C479 C478 1.392 . S
C479 H496 0.930 . S
C480 C478 1.386 . S
C480 C482 1.395 . S
C480 H497 0.930 . S
C481 C477 1.395 . S
C481 C482 1.379 . S
C481 H498 0.930 . S
C482 C480 1.395 . S
C482 C481 1.379 . S
C482 H499 0.930 . S
C483 O466 1.264 . S
C483 O467 1.254 . S
C484 Eu420 2.848 . S
C484 O464 1.257 . S
C484 O469 1.249 . S
C484 C477 1.492 . S
C485 H450 0.931 . S
C485 C463 1.420 . S
C485 C486 1.337 1_655 S
C486 H448 0.939 . S
C486 C454 1.427 . S
C486 C485 1.337 1_455 S
C487 O471 1.276 . S
C487 O474 1.235 . S
C488 C489 1.393 . S
C488 C492 1.395 . S
C488 C495 1.492 . S
C489 C488 1.393 . S
C489 C490 1.392 . S
C489 H500 0.930 . S
C490 C489 1.392 . S
C490 C491 1.386 . S
C491 C490 1.386 . S
C491 C493 1.395 . S
C491 H501 0.930 . S
C492 C488 1.395 . S
C492 C493 1.379 . S
C492 H502 0.930 . S
C493 C491 1.395 . S
C493 C492 1.379 . S
C493 H503 0.930 . S
C494 O472 1.264 . S
C494 O473 1.254 . S
C495 Eu431 2.848 . S
C495 O470 1.257 . S
C495 O475 1.249 . S
C495 C488 1.492 . S
H496 C479 0.930 . S
H497 C480 0.930 . S
H498 C481 0.930 . S
H499 C482 0.930 . S
H500 C489 0.930 . S
H501 C491 0.930 . S
H502 C492 0.930 . S
H503 C493 0.930 . S
Eu504 N535 2.669 . S
Eu504 N542 2.609 . S
Eu504 O548 2.558 . S
Eu504 O549 2.612 . S
Eu504 O551 2.339 1_554 S
Eu504 O552 2.563 . S
Eu504 O553 2.419 . S
Eu504 O555 2.380 1_554 S
Eu504 O556 2.432 . S
Eu504 C568 2.848 . S
C505 C508 1.429 . S
C505 C509 1.411 . S
C505 N512 1.377 . S
C506 C508 1.420 1_554 S
C506 C510 1.423 . S
C506 C518 1.392 . S
C507 C509 1.420 . S
C507 C510 1.351 1_556 S
C507 H530 0.931 . S
C508 C505 1.429 . S
C508 C506 1.420 1_556 S
C508 N516 1.362 1_556 S
C509 C505 1.411 . S
C509 C507 1.420 . S
C509 C514 1.395 . S
C510 C506 1.423 . S
C510 C507 1.351 1_554 S
C510 H522 0.930 . S
C511 C513 1.400 . S
C511 C514 1.386 . S
C511 H523 0.930 . S
N512 C505 1.377 . S
N512 C513 1.321 . S
N512 Eu515 2.609 . S
C513 C511 1.400 . S
C513 N512 1.321 . S
C513 H520 0.930 . S
C514 C509 1.395 . S
C514 C511 1.386 . S
C514 H533 0.930 . S
Eu515 N512 2.609 . S
Eu515 N516 2.657 1_556 S
Eu515 O549 2.380 1_556 S
Eu515 O550 2.432 . S
Eu515 O554 2.558 . S
Eu515 O555 2.612 . S
Eu515 O557 2.339 1_556 S
Eu515 O558 2.563 . S
Eu515 O559 2.419 . S
Eu515 C579 2.848 . S
N516 C508 1.362 1_554 S
N516 Eu515 2.657 1_554 S
N516 C517 1.334 . S
C517 N516 1.334 . S
C517 C519 1.413 . S
C517 H524 0.929 . S
C518 C506 1.392 . S
C518 C519 1.367 . S
C518 H526 0.930 . S
C519 C517 1.413 . S
C519 C518 1.367 . S
C519 H521 0.930 . S
H520 C513 0.930 . S
H521 C519 0.930 . S
H522 C510 0.930 . S
H523 C511 0.930 . S
H524 C517 0.929 . S
H525 C539 0.930 . S
H526 C518 0.930 . S
H527 C545 0.930 . S
H528 C536 0.929 . S
H529 C543 0.930 . S
H530 C507 0.931 . S
H531 C537 0.930 . S
H532 C570 0.940 . S
H533 C514 0.930 . S
H534 C569 0.931 . S
N535 Eu504 2.669 . S
N535 C536 1.316 1_554 S
N535 C540 1.367 . S
C536 H528 0.929 . S
C536 N535 1.316 1_556 S
C536 C539 1.413 . S
C537 H531 0.930 . S
C537 C538 1.392 . S
C537 C539 1.367 . S
C538 C537 1.392 . S
C538 C540 1.420 1_556 S
C538 C570 1.428 1_655 S
C539 H525 0.930 . S
C539 C536 1.413 . S
C539 C537 1.367 . S
C540 N535 1.367 . S
C540 C538 1.420 1_554 S
C540 C544 1.429 . S
H541 C546 0.930 . S
N542 Eu504 2.609 . S
N542 C544 1.377 . S
N542 C545 1.321 . S
C543 H529 0.930 . S
C543 C545 1.400 1_455 S
C543 C546 1.386 . S
C544 C540 1.429 . S
C544 N542 1.377 . S
C544 C547 1.411 1_655 S
C545 H527 0.930 . S
C545 N542 1.321 . S
C545 C543 1.400 1_655 S
C546 H541 0.930 . S
C546 C543 1.386 . S
C546 C547 1.395 . S
C547 C544 1.411 1_455 S
C547 C546 1.395 . S
C547 C569 1.420 . S
O548 Eu504 2.558 . S
O548 C568 1.257 . S
O549 Eu504 2.612 . S
O549 Eu515 2.380 1_554 S
O549 C560 1.276 . S
O550 Eu515 2.432 . S
O550 C567 1.264 . S
O551 Eu504 2.339 1_556 S
O551 C567 1.254 . S
O552 Eu504 2.563 . S
O552 C560 1.235 . S
O553 Eu504 2.419 . S
O553 C568 1.249 . S
O554 Eu515 2.558 . S
O554 C579 1.257 . S
O555 Eu504 2.380 1_556 S
O555 Eu515 2.612 . S
O555 C571 1.276 . S
O556 Eu504 2.432 . S
O556 C578 1.264 . S
O557 Eu515 2.339 1_554 S
O557 C578 1.254 . S
O558 Eu515 2.563 . S
O558 C571 1.235 . S
O559 Eu515 2.419 . S
O559 C579 1.249 . S
C560 O549 1.276 . S
C560 O552 1.235 . S
C561 C563 1.393 . S
C561 C565 1.395 . S
C561 C568 1.492 . S
C562 C563 1.392 . S
C562 C564 1.386 . S
C563 C561 1.393 . S
C563 C562 1.392 . S
C563 H580 0.930 . S
C564 C562 1.386 . S
C564 C566 1.395 . S
C564 H581 0.930 . S
C565 C561 1.395 . S
C565 C566 1.379 . S
C565 H582 0.930 . S
C566 C564 1.395 . S
C566 C565 1.379 . S
C566 H583 0.930 . S
C567 O550 1.264 . S
C567 O551 1.254 . S
C568 Eu504 2.848 . S
C568 O548 1.257 . S
C568 O553 1.249 . S
C568 C561 1.492 . S
C569 H534 0.931 . S
C569 C547 1.420 . S
C569 C570 1.336 1_554 S
C570 H532 0.940 . S
C570 C538 1.428 1_455 S
C570 C569 1.336 1_556 S
C571 O555 1.276 . S
C571 O558 1.235 . S
C572 C573 1.393 . S
C572 C576 1.395 . S
C572 C579 1.492 . S
C573 C572 1.393 . S
C573 C574 1.392 . S
C573 H584 0.930 . S
C574 C573 1.392 . S
C574 C575 1.386 . S
C575 C574 1.386 . S
C575 C577 1.395 . S
C575 H585 0.930 . S
C576 C572 1.395 . S
C576 C577 1.379 . S
C576 H586 0.930 . S
C577 C575 1.395 . S
C577 C576 1.379 . S
C577 H587 0.930 . S
C578 O556 1.264 . S
C578 O557 1.254 . S
C579 Eu515 2.848 . S
C579 O554 1.257 . S
C579 O559 1.249 . S
C579 C572 1.492 . S
H580 C563 0.930 . S
H581 C564 0.930 . S
H582 C565 0.930 . S
H583 C566 0.930 . S
H584 C573 0.930 . S
H585 C575 0.930 . S
H586 C576 0.930 . S
H587 C577 0.930 . S
Eu588 N619 2.657 . S
Eu588 N626 2.609 . S
Eu588 O632 2.558 . S
Eu588 O633 2.612 . S
Eu588 O635 2.339 . S
Eu588 O636 2.563 . S
Eu588 O637 2.419 . S
Eu588 O639 2.380 . S
Eu588 O640 2.432 . S
Eu588 C652 2.848 . S
C589 C592 1.429 . S
C589 C593 1.411 . S
C589 N596 1.377 . S
C590 C592 1.420 . S
C590 C594 1.423 . S
C590 C602 1.392 . S
C591 C593 1.420 . S
C591 C594 1.351 . S
C591 H614 0.931 . S
C592 C589 1.429 . S
C592 C590 1.420 . S
C592 N600 1.362 . S
C593 C589 1.411 . S
C593 C591 1.420 . S
C593 C598 1.395 . S
C594 C590 1.423 . S
C594 C591 1.351 . S
C594 H606 0.930 . S
C595 C597 1.400 . S
C595 C598 1.386 . S
C595 H607 0.930 . S
N596 C589 1.377 . S
N596 C597 1.321 . S
N596 Eu599 2.609 . S
C597 C595 1.400 . S
C597 N596 1.321 . S
C597 H604 0.930 . S
C598 C593 1.395 . S
C598 C595 1.386 . S
C598 H617 0.930 . S
Eu599 N596 2.609 . S
Eu599 N600 2.657 . S
Eu599 O633 2.380 . S
Eu599 O634 2.432 . S
Eu599 O638 2.558 . S
Eu599 O639 2.612 . S
Eu599 O641 2.339 . S
Eu599 O642 2.563 . S
Eu599 O643 2.419 . S
Eu599 C663 2.848 . S
N600 C592 1.362 . S
N600 Eu599 2.657 . S
N600 C601 1.334 . S
C601 N600 1.334 . S
C601 C603 1.413 . S
C601 H608 0.929 . S
C602 C590 1.392 . S
C602 C603 1.367 . S
C602 H610 0.930 . S
C603 C601 1.413 . S
C603 C602 1.367 . S
C603 H605 0.930 . S
H604 C597 0.930 . S
H605 C603 0.930 . S
H606 C594 0.930 . S
H607 C595 0.930 . S
H608 C601 0.929 . S
H609 C623 0.930 . S
H610 C602 0.930 . S
H611 C629 0.930 . S
H612 C620 0.929 . S
H613 C627 0.930 . S
H614 C591 0.931 . S
H615 C621 0.930 . S
H616 C654 0.930 . S
H617 C598 0.930 . S
H618 C653 0.931 . S
N619 Eu588 2.657 . S
N619 C620 1.334 . S
N619 C624 1.362 . S
C620 H612 0.929 . S
C620 N619 1.334 . S
C620 C623 1.413 . S
C621 H615 0.930 . S
C621 C622 1.392 . S
C621 C623 1.367 . S
C622 C621 1.392 . S
C622 C624 1.420 . S
C622 C654 1.423 . S
C623 H609 0.930 . S
C623 C620 1.413 . S
C623 C621 1.367 . S
C624 N619 1.362 . S
C624 C622 1.420 . S
C624 C628 1.429 . S
H625 C630 0.930 . S
N626 Eu588 2.609 . S
N626 C628 1.377 . S
N626 C629 1.321 . S
C627 H613 0.930 . S
C627 C629 1.400 . S
C627 C630 1.386 . S
C628 C624 1.429 . S
C628 N626 1.377 . S
C628 C631 1.411 . S
C629 H611 0.930 . S
C629 N626 1.321 . S
C629 C627 1.400 . S
C630 H625 0.930 . S
C630 C627 1.386 . S
C630 C631 1.395 . S
C631 C628 1.411 . S
C631 C630 1.395 . S
C631 C653 1.420 . S
O632 Eu588 2.558 . S
O632 C652 1.257 . S
O633 Eu588 2.612 . S
O633 Eu599 2.380 . S
O633 C644 1.276 . S
O634 Eu599 2.432 . S
O634 C651 1.264 . S
O635 Eu588 2.339 . S
O635 C651 1.254 . S
O636 Eu588 2.563 . S
O636 C644 1.235 . S
O637 Eu588 2.419 . S
O637 C652 1.249 . S
O638 Eu599 2.558 . S
O638 C663 1.257 . S
O639 Eu588 2.380 . S
O639 Eu599 2.612 . S
O639 C655 1.276 . S
O640 Eu588 2.432 . S
O640 C662 1.264 . S
O641 Eu599 2.339 . S
O641 C662 1.254 . S
O642 Eu599 2.563 . S
O642 C655 1.235 . S
O643 Eu599 2.419 . S
O643 C663 1.249 . S
C644 O633 1.276 . S
C644 O636 1.235 . S
C645 C647 1.393 . S
C645 C649 1.395 . S
C645 C652 1.492 . S
C646 C647 1.392 . S
C646 C648 1.386 . S
C647 C645 1.393 . S
C647 C646 1.392 . S
C647 H664 0.930 . S
C648 C646 1.386 . S
C648 C650 1.395 . S
C648 H665 0.930 . S
C649 C645 1.395 . S
C649 C650 1.379 . S
C649 H666 0.930 . S
C650 C648 1.395 . S
C650 C649 1.379 . S
C650 H667 0.930 . S
C651 O634 1.264 . S
C651 O635 1.254 . S
C652 Eu588 2.848 . S
C652 O632 1.257 . S
C652 O637 1.249 . S
C652 C645 1.492 . S
C653 H618 0.931 . S
C653 C631 1.420 . S
C653 C654 1.351 . S
C654 H616 0.930 . S
C654 C622 1.423 . S
C654 C653 1.351 . S
C655 O639 1.276 . S
C655 O642 1.235 . S
C656 C657 1.393 . S
C656 C660 1.395 . S
C656 C663 1.492 . S
C657 C656 1.393 . S
C657 C658 1.392 . S
C657 H668 0.930 . S
C658 C657 1.392 . S
C658 C659 1.386 . S
C659 C658 1.386 . S
C659 C661 1.395 . S
C659 H669 0.930 . S
C660 C656 1.395 . S
C660 C661 1.379 . S
C660 H670 0.930 . S
C661 C659 1.395 . S
C661 C660 1.379 . S
C661 H671 0.930 . S
C662 O640 1.264 . S
C662 O641 1.254 . S
C663 Eu599 2.848 . S
C663 O638 1.257 . S
C663 O643 1.249 . S
C663 C656 1.492 . S
H664 C647 0.930 . S
H665 C648 0.930 . S
H666 C649 0.930 . S
H667 C650 0.930 . S
H668 C657 0.930 . S
H669 C659 0.930 . S
H670 C660 0.930 . S
H671 C661 0.930 . S
Eu672 N703 2.657 . S
Eu672 N710 2.609 . S
Eu672 O716 2.558 . S
Eu672 O717 2.612 . S
Eu672 O719 2.339 . S
Eu672 O720 2.563 . S
Eu672 O721 2.419 . S
Eu672 O723 2.380 . S
Eu672 O724 2.432 . S
Eu672 C736 2.848 . S
C673 C676 1.429 . S
C673 C677 1.411 1_554 S
C673 N680 1.377 . S
C674 C676 1.420 . S
C674 C678 1.423 1_554 S
C674 C686 1.392 . S
C675 C677 1.420 . S
C675 C678 1.351 . S
C675 H698 0.931 . S
C676 C673 1.429 . S
C676 C674 1.420 . S
C676 N684 1.362 . S
C677 C673 1.411 1_556 S
C677 C675 1.420 . S
C677 C682 1.395 . S
C678 C674 1.423 1_556 S
C678 C675 1.351 . S
C678 H690 0.930 . S
C679 C681 1.400 1_556 S
C679 C682 1.386 . S
C679 H691 0.930 . S
N680 C673 1.377 . S
N680 C681 1.321 . S
N680 Eu683 2.609 . S
C681 C679 1.400 1_554 S
C681 N680 1.321 . S
C681 H688 0.930 . S
C682 C677 1.395 . S
C682 C679 1.386 . S
C682 H701 0.930 . S
Eu683 N680 2.609 . S
Eu683 N684 2.657 . S
Eu683 O717 2.380 . S
Eu683 O718 2.432 . S
Eu683 O722 2.558 . S
Eu683 O723 2.612 . S
Eu683 O725 2.339 . S
Eu683 O726 2.563 . S
Eu683 O727 2.419 . S
Eu683 C747 2.848 . S
N684 C676 1.362 . S
N684 Eu683 2.657 . S
N684 C685 1.334 . S
C685 N684 1.334 . S
C685 C687 1.413 . S
C685 H692 0.929 . S
C686 C674 1.392 . S
C686 C687 1.367 . S
C686 H694 0.930 . S
C687 C685 1.413 . S
C687 C686 1.367 . S
C687 H689 0.930 . S
H688 C681 0.930 . S
H689 C687 0.930 . S
H690 C678 0.930 . S
H691 C679 0.930 . S
H692 C685 0.929 . S
H693 C707 0.930 . S
H694 C686 0.930 . S
H695 C713 0.930 . S
H696 C704 0.929 . S
H697 C711 0.930 . S
H698 C675 0.931 . S
H699 C705 0.930 . S
H700 C738 0.930 . S
H701 C682 0.930 . S
H702 C737 0.931 . S
N703 Eu672 2.657 . S
N703 C704 1.334 . S
N703 C708 1.362 . S
C704 H696 0.929 . S
C704 N703 1.334 . S
C704 C707 1.413 . S
C705 H699 0.930 . S
C705 C706 1.392 . S
C705 C707 1.367 . S
C706 C705 1.392 . S
C706 C708 1.420 . S
C706 C738 1.423 . S
C707 H693 0.930 . S
C707 C704 1.413 . S
C707 C705 1.367 . S
C708 N703 1.362 . S
C708 C706 1.420 . S
C708 C712 1.429 . S
H709 C714 0.930 . S
N710 Eu672 2.609 . S
N710 C712 1.377 . S
N710 C713 1.321 . S
C711 H697 0.930 . S
C711 C713 1.400 . S
C711 C714 1.386 . S
C712 C708 1.429 . S
C712 N710 1.377 . S
C712 C715 1.411 . S
C713 H695 0.930 . S
C713 N710 1.321 . S
C713 C711 1.400 . S
C714 H709 0.930 . S
C714 C711 1.386 . S
C714 C715 1.395 . S
C715 C712 1.411 . S
C715 C714 1.395 . S
C715 C737 1.420 . S
O716 Eu672 2.558 . S
O716 C736 1.257 . S
O717 Eu672 2.612 . S
O717 Eu683 2.380 . S
O717 C728 1.276 . S
O718 Eu683 2.432 . S
O718 C735 1.264 . S
O719 Eu672 2.339 . S
O719 C735 1.254 . S
O720 Eu672 2.563 . S
O720 C728 1.235 . S
O721 Eu672 2.419 . S
O721 C736 1.249 . S
O722 Eu683 2.558 . S
O722 C747 1.257 . S
O723 Eu672 2.380 . S
O723 Eu683 2.612 . S
O723 C739 1.276 . S
O724 Eu672 2.432 . S
O724 C746 1.264 . S
O725 Eu683 2.339 . S
O725 C746 1.254 . S
O726 Eu683 2.563 . S
O726 C739 1.235 . S
O727 Eu683 2.419 . S
O727 C747 1.249 . S
C728 O717 1.276 . S
C728 O720 1.235 . S
C729 C731 1.393 . S
C729 C733 1.395 . S
C729 C736 1.492 . S
C730 C731 1.392 . S
C730 C732 1.386 . S
C731 C729 1.393 . S
C731 C730 1.392 . S
C731 H748 0.930 . S
C732 C730 1.386 . S
C732 C734 1.395 . S
C732 H749 0.930 . S
C733 C729 1.395 . S
C733 C734 1.379 . S
C733 H750 0.930 . S
C734 C732 1.395 . S
C734 C733 1.379 . S
C734 H751 0.930 . S
C735 O718 1.264 . S
C735 O719 1.254 . S
C736 Eu672 2.848 . S
C736 O716 1.257 . S
C736 O721 1.249 . S
C736 C729 1.492 . S
C737 H702 0.931 . S
C737 C715 1.420 . S
C737 C738 1.351 . S
C738 H700 0.930 . S
C738 C706 1.423 . S
C738 C737 1.351 . S
C739 O723 1.276 . S
C739 O726 1.235 . S
C740 C741 1.393 . S
C740 C744 1.395 . S
C740 C747 1.492 . S
C741 C740 1.393 . S
C741 C742 1.392 . S
C741 H752 0.930 . S
C742 C741 1.392 . S
C742 C743 1.386 . S
C743 C742 1.386 . S
C743 C745 1.395 . S
C743 H753 0.930 . S
C744 C740 1.395 . S
C744 C745 1.379 . S
C744 H754 0.930 . S
C745 C743 1.395 . S
C745 C744 1.379 . S
C745 H755 0.930 . S
C746 O724 1.264 . S
C746 O725 1.254 . S
C747 Eu683 2.848 . S
C747 O722 1.257 . S
C747 O727 1.249 . S
C747 C740 1.492 . S
H748 C731 0.930 . S
H749 C732 0.930 . S
H750 C733 0.930 . S
H751 C734 0.930 . S
H752 C741 0.930 . S
H753 C743 0.930 . S
H754 C744 0.930 . S
H755 C745 0.930 . S
Eu756 N787 2.657 . S
Eu756 N794 2.609 . S
Eu756 O800 2.558 . S
Eu756 O801 2.612 . S
Eu756 O803 2.339 . S
Eu756 O804 2.563 . S
Eu756 O805 2.419 . S
Eu756 O807 2.380 1_545 S
Eu756 O808 2.432 . S
Eu756 C820 2.848 . S
C757 C760 1.429 . S
C757 C761 1.411 . S
C757 N764 1.377 . S
C758 C760 1.420 1_545 S
C758 C762 1.423 . S
C758 C770 1.392 . S
C759 C761 1.420 . S
C759 C762 1.351 1_565 S
C759 H782 0.931 . S
C760 C757 1.429 . S
C760 C758 1.420 1_565 S
C760 N768 1.362 1_565 S
C761 C757 1.411 . S
C761 C759 1.420 . S
C761 C766 1.395 . S
C762 C758 1.423 . S
C762 C759 1.351 1_545 S
C762 H774 0.930 . S
C763 C765 1.400 . S
C763 C766 1.386 . S
C763 H775 0.930 . S
N764 C757 1.377 . S
N764 C765 1.321 . S
N764 Eu767 2.609 . S
C765 C763 1.400 . S
C765 N764 1.321 . S
C765 H772 0.930 . S
C766 C761 1.395 . S
C766 C763 1.386 . S
C766 H785 0.930 . S
Eu767 N764 2.609 . S
Eu767 N768 2.657 1_565 S
Eu767 O801 2.380 1_565 S
Eu767 O802 2.432 . S
Eu767 O806 2.558 . S
Eu767 O807 2.612 . S
Eu767 O809 2.339 1_565 S
Eu767 O810 2.563 . S
Eu767 O811 2.419 . S
Eu767 C831 2.848 . S
N768 C760 1.362 1_545 S
N768 Eu767 2.657 1_545 S
N768 C769 1.334 . S
C769 N768 1.334 . S
C769 C771 1.413 . S
C769 H776 0.929 . S
C770 C758 1.392 . S
C770 C771 1.367 . S
C770 H778 0.930 . S
C771 C769 1.413 . S
C771 C770 1.367 . S
C771 H773 0.930 . S
H772 C765 0.930 . S
H773 C771 0.930 . S
H774 C762 0.930 . S
H775 C763 0.930 . S
H776 C769 0.929 . S
H777 C791 0.930 . S
H778 C770 0.930 . S
H779 C797 0.930 . S
H780 C788 0.929 . S
H781 C795 0.930 . S
H782 C759 0.931 . S
H783 C789 0.930 . S
H784 C822 0.930 1_565 S
H785 C766 0.930 . S
H786 C821 0.931 . S
N787 Eu756 2.657 . S
N787 C788 1.334 1_545 S
N787 C792 1.362 . S
C788 H780 0.929 . S
C788 N787 1.334 1_565 S
C788 C791 1.413 . S
C789 H783 0.930 . S
C789 C790 1.392 . S
C789 C791 1.367 . S
C790 C789 1.392 . S
C790 C792 1.420 1_565 S
C790 C822 1.423 1_566 S
C791 H777 0.930 . S
C791 C788 1.413 . S
C791 C789 1.367 . S
C792 N787 1.362 . S
C792 C790 1.420 1_545 S
C792 C796 1.429 . S
H793 C798 0.930 . S
N794 Eu756 2.609 . S
N794 C796 1.377 . S
N794 C797 1.321 . S
C795 H781 0.930 . S
C795 C797 1.400 1_554 S
C795 C798 1.386 . S
C796 C792 1.429 . S
C796 N794 1.377 . S
C796 C799 1.411 1_556 S
C797 H779 0.930 . S
C797 N794 1.321 . S
C797 C795 1.400 1_556 S
C798 H793 0.930 . S
C798 C795 1.386 . S
C798 C799 1.395 . S
C799 C796 1.411 1_554 S
C799 C798 1.395 . S
C799 C821 1.420 . S
O800 Eu756 2.558 . S
O800 C820 1.257 . S
O801 Eu756 2.612 . S
O801 Eu767 2.380 1_545 S
O801 C812 1.276 . S
O802 Eu767 2.432 . S
O802 C819 1.264 . S
O803 Eu756 2.339 . S
O803 C819 1.254 1_545 S
O804 Eu756 2.563 . S
O804 C812 1.235 . S
O805 Eu756 2.419 . S
O805 C820 1.249 . S
O806 Eu767 2.558 . S
O806 C831 1.257 . S
O807 Eu756 2.380 1_565 S
O807 Eu767 2.612 . S
O807 C823 1.276 . S
O808 Eu756 2.432 . S
O808 C830 1.264 . S
O809 Eu767 2.339 1_545 S
O809 C830 1.254 . S
O810 Eu767 2.563 . S
O810 C823 1.235 . S
O811 Eu767 2.419 . S
O811 C831 1.249 . S
C812 O801 1.276 . S
C812 O804 1.235 . S
C813 C815 1.393 . S
C813 C817 1.395 . S
C813 C820 1.492 . S
C814 C815 1.392 . S
C814 C816 1.386 . S
C815 C813 1.393 . S
C815 C814 1.392 . S
C815 H832 0.930 . S
C816 C814 1.386 . S
C816 C818 1.395 . S
C816 H833 0.930 . S
C817 C813 1.395 . S
C817 C818 1.379 . S
C817 H834 0.930 . S
C818 C816 1.395 . S
C818 C817 1.379 . S
C818 H835 0.930 . S
C819 O802 1.264 . S
C819 O803 1.254 1_565 S
C820 Eu756 2.848 . S
C820 O800 1.257 . S
C820 O805 1.249 . S
C820 C813 1.492 . S
C821 H786 0.931 . S
C821 C799 1.420 . S
C821 C822 1.351 . S
C822 H784 0.930 1_545 S
C822 C790 1.423 1_544 S
C822 C821 1.351 . S
C823 O807 1.276 . S
C823 O810 1.235 . S
C824 C825 1.393 . S
C824 C828 1.395 . S
C824 C831 1.492 . S
C825 C824 1.393 . S
C825 C826 1.392 . S
C825 H836 0.930 . S
C826 C825 1.392 . S
C826 C827 1.386 . S
C827 C826 1.386 . S
C827 C829 1.395 . S
C827 H837 0.930 . S
C828 C824 1.395 . S
C828 C829 1.379 . S
C828 H838 0.930 . S
C829 C827 1.395 . S
C829 C828 1.379 . S
C829 H839 0.930 . S
C830 O808 1.264 . S
C830 O809 1.254 . S
C831 Eu767 2.848 . S
C831 O806 1.257 . S
C831 O811 1.249 . S
C831 C824 1.492 . S
H832 C815 0.930 . S
H833 C816 0.930 . S
H834 C817 0.930 . S
H835 C818 0.930 . S
H836 C825 0.930 . S
H837 C827 0.930 . S
H838 C828 0.930 . S
H839 C829 0.930 . S
Eu840 N871 2.657 . S
Eu840 N878 2.609 . S
Eu840 O884 2.558 . S
Eu840 O885 2.612 . S
Eu840 O887 2.347 . S
Eu840 O888 2.563 . S
Eu840 O889 2.419 . S
Eu840 O891 2.380 1_565 S
Eu840 O892 2.432 . S
Eu840 C904 2.848 . S
C841 C844 1.429 . S
C841 C845 1.411 . S
C841 N848 1.377 . S
C842 C844 1.420 1_565 S
C842 C846 1.423 . S
C842 C854 1.392 . S
C843 C845 1.420 . S
C843 C846 1.351 1_545 S
C843 H866 0.931 . S
C844 C841 1.429 . S
C844 C842 1.420 1_545 S
C844 N852 1.362 1_545 S
C845 C841 1.411 . S
C845 C843 1.420 . S
C845 C850 1.395 . S
C846 C842 1.423 . S
C846 C843 1.351 1_565 S
C846 H858 0.930 . S
C847 C849 1.400 . S
C847 C850 1.386 . S
C847 H859 0.930 . S
N848 C841 1.377 . S
N848 C849 1.321 . S
N848 Eu851 2.609 . S
C849 C847 1.400 . S
C849 N848 1.321 . S
C849 H856 0.930 . S
C850 C845 1.395 . S
C850 C847 1.386 . S
C850 H869 0.930 . S
Eu851 N848 2.609 . S
Eu851 N852 2.657 1_545 S
Eu851 O885 2.380 1_545 S
Eu851 O886 2.432 . S
Eu851 O890 2.558 . S
Eu851 O891 2.612 . S
Eu851 O893 2.339 1_545 S
Eu851 O894 2.563 . S
Eu851 O895 2.419 . S
Eu851 C915 2.848 . S
N852 C844 1.362 1_565 S
N852 Eu851 2.657 1_565 S
N852 C853 1.334 . S
C853 N852 1.334 . S
C853 C855 1.413 . S
C853 H860 0.929 . S
C854 C842 1.392 . S
C854 C855 1.367 . S
C854 H862 0.930 . S
C855 C853 1.413 . S
C855 C854 1.367 . S
C855 H857 0.930 . S
H856 C849 0.930 . S
H857 C855 0.930 . S
H858 C846 0.930 . S
H859 C847 0.930 . S
H860 C853 0.929 . S
H861 C875 0.930 . S
H862 C854 0.930 . S
H863 C881 0.930 . S
H864 C872 0.929 . S
H865 C879 0.930 . S
H866 C843 0.931 . S
H867 C873 0.930 . S
H868 C906 0.930 1_545 S
H869 C850 0.930 . S
H870 C905 0.931 . S
N871 Eu840 2.657 . S
N871 C872 1.334 1_565 S
N871 C876 1.362 . S
C872 H864 0.929 . S
C872 N871 1.334 1_545 S
C872 C875 1.413 . S
C873 H867 0.930 . S
C873 C874 1.392 . S
C873 C875 1.367 . S
C874 C873 1.392 . S
C874 C876 1.420 1_545 S
C874 C906 1.423 1_545 S
C875 H861 0.930 . S
C875 C872 1.413 . S
C875 C873 1.367 . S
C876 N871 1.362 . S
C876 C874 1.420 1_565 S
C876 C880 1.429 . S
H877 C882 0.930 . S
N878 Eu840 2.609 . S
N878 C880 1.377 . S
N878 C881 1.321 . S
C879 H865 0.930 . S
C879 C881 1.400 . S
C879 C882 1.386 . S
C880 C876 1.429 . S
C880 N878 1.377 . S
C880 C883 1.411 . S
C881 H863 0.930 . S
C881 N878 1.321 . S
C881 C879 1.400 . S
C882 H877 0.930 . S
C882 C879 1.386 . S
C882 C883 1.395 . S
C883 C880 1.411 . S
C883 C882 1.395 . S
C883 C905 1.420 . S
O884 Eu840 2.558 . S
O884 C904 1.257 . S
O885 Eu840 2.612 . S
O885 Eu851 2.380 1_565 S
O885 C896 1.276 . S
O886 Eu851 2.432 . S
O886 C903 1.264 . S
O887 Eu840 2.347 . S
O887 C903 1.245 1_565 S
O888 Eu840 2.563 . S
O888 C896 1.235 . S
O889 Eu840 2.419 . S
O889 C904 1.249 . S
O890 Eu851 2.558 . S
O890 C915 1.257 . S
O891 Eu840 2.380 1_545 S
O891 Eu851 2.612 . S
O891 C907 1.276 . S
O892 Eu840 2.432 . S
O892 C914 1.264 . S
O893 Eu851 2.339 1_565 S
O893 C914 1.254 . S
O894 Eu851 2.563 . S
O894 C907 1.235 . S
O895 Eu851 2.419 . S
O895 C915 1.249 . S
C896 O885 1.276 . S
C896 O888 1.235 . S
C897 C899 1.393 . S
C897 C901 1.395 . S
C897 C904 1.492 . S
C898 C899 1.392 . S
C898 C900 1.386 . S
C899 C897 1.393 . S
C899 C898 1.392 . S
C899 H916 0.930 . S
C900 C898 1.386 . S
C900 C902 1.395 . S
C900 H917 0.930 . S
C901 C897 1.395 . S
C901 C902 1.379 . S
C901 H918 0.930 . S
C902 C900 1.395 . S
C902 C901 1.379 . S
C902 H919 0.930 . S
C903 O886 1.264 . S
C903 O887 1.245 1_545 S
C904 Eu840 2.848 . S
C904 O884 1.257 . S
C904 O889 1.249 . S
C904 C897 1.492 . S
C905 H870 0.931 . S
C905 C883 1.420 . S
C905 C906 1.351 . S
C906 H868 0.930 1_565 S
C906 C874 1.423 1_565 S
C906 C905 1.351 . S
C907 O891 1.276 . S
C907 O894 1.235 . S
C908 C909 1.393 . S
C908 C912 1.395 . S
C908 C915 1.492 . S
C909 C908 1.393 . S
C909 C910 1.392 . S
C909 H920 0.930 . S
C910 C909 1.392 . S
C910 C911 1.386 . S
C911 C910 1.386 . S
C911 C913 1.395 . S
C911 H921 0.930 . S
C912 C908 1.395 . S
C912 C913 1.379 . S
C912 H922 0.930 . S
C913 C911 1.395 . S
C913 C912 1.379 . S
C913 H923 0.930 . S
C914 O892 1.264 . S
C914 O893 1.254 . S
C915 Eu851 2.848 . S
C915 O890 1.257 . S
C915 O895 1.249 . S
C915 C908 1.492 . S
H916 C899 0.930 . S
H917 C900 0.930 . S
H918 C901 0.930 . S
H919 C902 0.930 . S
H920 C909 0.930 . S
H921 C911 0.930 . S
H922 C912 0.930 . S
H923 C913 0.930 . S
Eu924 N955 2.657 . S
Eu924 N962 2.609 . S
Eu924 O968 2.558 . S
Eu924 O969 2.612 . S
Eu924 O971 2.339 . S
Eu924 O972 2.563 . S
Eu924 O973 2.419 . S
Eu924 O975 2.380 . S
Eu924 O976 2.432 . S
Eu924 C988 2.848 . S
C925 C928 1.429 . S
C925 C929 1.411 . S
C925 N932 1.377 . S
C926 C928 1.420 . S
C926 C930 1.423 . S
C926 C938 1.392 . S
C927 C929 1.420 . S
C927 C930 1.351 . S
C927 H950 0.931 . S
C928 C925 1.429 . S
C928 C926 1.420 . S
C928 N936 1.362 . S
C929 C925 1.411 . S
C929 C927 1.420 . S
C929 C934 1.395 . S
C930 C926 1.423 . S
C930 C927 1.351 . S
C930 H942 0.930 . S
C931 C933 1.400 . S
C931 C934 1.386 . S
C931 H943 0.930 . S
N932 C925 1.377 . S
N932 C933 1.321 . S
N932 Eu935 2.609 . S
C933 C931 1.400 . S
C933 N932 1.321 . S
C933 H940 0.930 . S
C934 C929 1.395 . S
C934 C931 1.386 . S
C934 H953 0.930 . S
Eu935 N932 2.609 . S
Eu935 N936 2.657 . S
Eu935 O969 2.380 . S
Eu935 O970 2.432 . S
Eu935 O974 2.558 . S
Eu935 O975 2.612 . S
Eu935 O977 2.339 . S
Eu935 O978 2.563 . S
Eu935 O979 2.419 . S
Eu935 C999 2.848 . S
N936 C928 1.362 . S
N936 Eu935 2.657 . S
N936 C937 1.334 . S
C937 N936 1.334 . S
C937 C939 1.413 . S
C937 H944 0.929 . S
C938 C926 1.392 . S
C938 C939 1.367 . S
C938 H946 0.930 . S
C939 C937 1.413 . S
C939 C938 1.367 . S
C939 H941 0.930 . S
H940 C933 0.930 . S
H941 C939 0.930 . S
H942 C930 0.930 . S
H943 C931 0.930 . S
H944 C937 0.929 . S
H945 C959 0.930 . S
H946 C938 0.930 . S
H947 C965 0.930 . S
H948 C956 0.929 . S
H949 C963 0.930 . S
H950 C927 0.931 . S
H951 C957 0.930 . S
H952 C990 0.930 . S
H953 C934 0.930 . S
H954 C989 0.931 . S
N955 Eu924 2.657 . S
N955 C956 1.334 . S
N955 C960 1.362 . S
C956 H948 0.929 . S
C956 N955 1.334 . S
C956 C959 1.413 . S
C957 H951 0.930 . S
C957 C958 1.392 . S
C957 C959 1.367 . S
C958 C957 1.392 . S
C958 C960 1.420 . S
C958 C990 1.423 . S
C959 H945 0.930 . S
C959 C956 1.413 . S
C959 C957 1.367 . S
C960 N955 1.362 . S
C960 C958 1.420 . S
C960 C964 1.429 . S
H961 C966 0.930 . S
N962 Eu924 2.609 . S
N962 C964 1.377 . S
N962 C965 1.321 . S
C963 H949 0.930 . S
C963 C965 1.400 . S
C963 C966 1.386 . S
C964 C960 1.429 . S
C964 N962 1.377 . S
C964 C967 1.411 . S
C965 H947 0.930 . S
C965 N962 1.321 . S
C965 C963 1.400 . S
C966 H961 0.930 . S
C966 C963 1.386 . S
C966 C967 1.395 . S
C967 C964 1.411 . S
C967 C966 1.395 . S
C967 C989 1.420 . S
O968 Eu924 2.558 . S
O968 C988 1.257 . S
O969 Eu924 2.612 . S
O969 Eu935 2.380 . S
O969 C980 1.276 . S
O970 Eu935 2.432 . S
O970 C987 1.264 . S
O971 Eu924 2.339 . S
O971 C987 1.254 . S
O972 Eu924 2.563 . S
O972 C980 1.235 . S
O973 Eu924 2.419 . S
O973 C988 1.249 . S
O974 Eu935 2.558 . S
O974 C999 1.257 . S
O975 Eu924 2.380 . S
O975 Eu935 2.612 . S
O975 C991 1.276 . S
O976 Eu924 2.432 . S
O976 C998 1.264 . S
O977 Eu935 2.339 . S
O977 C998 1.254 . S
O978 Eu935 2.563 . S
O978 C991 1.235 . S
O979 Eu935 2.419 . S
O979 C999 1.249 . S
C980 O969 1.276 . S
C980 O972 1.235 . S
C981 C983 1.393 . S
C981 C985 1.395 . S
C981 C988 1.492 . S
C982 C983 1.392 . S
C982 C984 1.386 . S
C983 C981 1.393 . S
C983 C982 1.392 . S
C983 H1000 0.930 . S
C984 C982 1.386 . S
C984 C986 1.395 . S
C984 H1001 0.930 . S
C985 C981 1.395 . S
C985 C986 1.379 . S
C985 H1002 0.930 . S
C986 C984 1.395 . S
C986 C985 1.379 . S
C986 H1003 0.930 . S
C987 O970 1.264 . S
C987 O971 1.254 . S
C988 Eu924 2.848 . S
C988 O968 1.257 . S
C988 O973 1.249 . S
C988 C981 1.492 . S
C989 H954 0.931 . S
C989 C967 1.420 . S
C989 C990 1.351 . S
C990 H952 0.930 . S
C990 C958 1.423 . S
C990 C989 1.351 . S
C991 O975 1.276 . S
C991 O978 1.235 . S
C992 C993 1.393 . S
C992 C996 1.395 . S
C992 C999 1.492 . S
C993 C992 1.393 . S
C993 C994 1.392 . S
C993 H1004 0.930 . S
C994 C993 1.392 . S
C994 C995 1.386 . S
C995 C994 1.386 . S
C995 C997 1.395 . S
C995 H1005 0.930 . S
C996 C992 1.395 . S
C996 C997 1.379 . S
C996 H1006 0.930 . S
C997 C995 1.395 . S
C997 C996 1.379 . S
C997 H1007 0.930 . S
C998 O976 1.264 . S
C998 O977 1.254 . S
C999 Eu935 2.848 . S
C999 O974 1.257 . S
C999 O979 1.249 . S
C999 C992 1.492 . S
H1000 C983 0.930 . S
H1001 C984 0.930 . S
H1002 C985 0.930 . S
H1003 C986 0.930 . S
H1004 C993 0.930 . S
H1005 C995 0.930 . S
H1006 C996 0.930 . S
H1007 C997 0.930 . S
C1008 C1009 1.387 . S
C1008 H1012 0.950 . S
C1008 C1017 1.390 . S
C1009 C1008 1.387 . S
C1009 C1011 1.387 . S
H1010 C1017 0.950 . S
C1011 C1009 1.387 . S
C1011 C1013 1.390 . S
C1011 H1015 0.950 . S
H1012 C1008 0.950 . S
C1013 C1011 1.390 . S
C1013 C1014 1.387 . S
C1013 H1016 0.950 . S
C1014 C1013 1.387 . S
C1014 C1017 1.387 . S
H1015 C1011 0.950 . S
H1016 C1013 0.950 . S
C1017 C1008 1.390 . S
C1017 H1010 0.950 . S
C1017 C1014 1.387 . S
C1018 C1019 1.387 . S
C1018 H1022 0.950 . S
C1018 C1027 1.390 . S
C1019 C1018 1.387 . S
C1019 C1021 1.387 . S
H1020 C1027 0.950 . S
C1021 C1019 1.387 . S
C1021 C1023 1.390 . S
C1021 H1025 0.950 1_565 S
H1022 C1018 0.950 . S
C1023 C1021 1.390 . S
C1023 C1024 1.387 . S
C1023 H1026 0.950 . S
C1024 C1023 1.387 . S
C1024 C1027 1.387 . S
H1025 C1021 0.950 1_545 S
H1026 C1023 0.950 . S
C1027 C1018 1.390 . S
C1027 H1020 0.950 . S
C1027 C1024 1.387 . S
C1028 C1029 1.387 . S
C1028 H1032 0.950 . S
C1028 C1037 1.390 . S
C1029 C1028 1.387 . S
C1029 C1031 1.387 . S
H1030 C1037 0.950 . S
C1031 C1029 1.387 . S
C1031 C1033 1.390 . S
C1031 H1035 0.950 1_554 S
H1032 C1028 0.950 . S
C1033 C1031 1.390 . S
C1033 C1034 1.387 . S
C1033 H1036 0.950 . S
C1034 C1033 1.387 . S
C1034 C1037 1.387 . S
H1035 C1031 0.950 1_556 S
H1036 C1033 0.950 . S
C1037 C1028 1.390 . S
C1037 H1030 0.950 . S
C1037 C1034 1.387 . S
C1038 C1039 1.387 . S
C1038 H1042 0.950 . S
C1038 C1047 1.390 . S
C1039 C1038 1.387 . S
C1039 C1041 1.387 . S
H1040 C1047 0.950 . S
C1041 C1039 1.387 . S
C1041 C1043 1.390 . S
C1041 H1045 0.950 1_545 S
H1042 C1038 0.950 . S
C1043 C1041 1.390 . S
C1043 C1044 1.387 . S
C1043 H1046 0.950 1_545 S
C1044 C1043 1.387 . S
C1044 C1047 1.387 . S
H1045 C1041 0.950 1_565 S
H1046 C1043 0.950 1_565 S
C1047 C1038 1.390 . S
C1047 H1040 0.950 . S
C1047 C1044 1.387 . S
C1048 C1049 1.387 . S
C1048 H1052 0.950 . S
C1048 C1057 1.390 . S
C1049 C1048 1.387 . S
C1049 C1051 1.387 . S
H1050 C1057 0.950 . S
C1051 C1049 1.387 . S
C1051 C1053 1.390 . S
C1051 H1055 0.950 . S
H1052 C1048 0.950 . S
C1053 C1051 1.390 . S
C1053 C1054 1.387 . S
C1053 H1056 0.950 . S
C1054 C1053 1.387 . S
C1054 C1057 1.387 . S
H1055 C1051 0.950 . S
H1056 C1053 0.950 . S
C1057 C1048 1.390 . S
C1057 H1050 0.950 . S
C1057 C1054 1.387 . S
C1058 C1059 1.387 . S
C1058 H1062 0.950 . S
C1058 C1067 1.390 . S
C1059 C1058 1.387 . S
C1059 C1061 1.387 . S
H1060 C1067 0.950 . S
C1061 C1059 1.387 . S
C1061 C1063 1.390 . S
C1061 H1065 0.950 . S
H1062 C1058 0.950 . S
C1063 C1061 1.390 . S
C1063 C1064 1.387 . S
C1063 H1066 0.950 . S
C1064 C1063 1.387 . S
C1064 C1067 1.387 . S
H1065 C1061 0.950 . S
H1066 C1063 0.950 . S
C1067 C1058 1.390 . S
C1067 H1060 0.950 . S
C1067 C1064 1.387 . S
C1068 C1069 1.387 . S
C1068 H1072 0.950 . S
C1068 C1077 1.390 . S
C1069 C1068 1.387 . S
C1069 C1071 1.387 . S
H1070 C1077 0.950 . S
C1071 C1069 1.387 . S
C1071 C1073 1.390 . S
C1071 H1075 0.950 1_556 S
H1072 C1068 0.950 . S
C1073 C1071 1.390 . S
C1073 C1074 1.387 . S
C1073 H1076 0.950 1_556 S
C1074 C1073 1.387 . S
C1074 C1077 1.387 . S
H1075 C1071 0.950 1_554 S
H1076 C1073 0.950 1_554 S
C1077 C1068 1.390 . S
C1077 H1070 0.950 . S
C1077 C1074 1.387 . S
C1078 C1079 1.387 . S
C1078 H1082 0.950 . S
C1078 C1087 1.390 . S
C1079 C1078 1.387 . S
C1079 C1081 1.387 . S
H1080 C1087 0.950 . S
C1081 C1079 1.387 . S
C1081 C1083 1.390 . S
C1081 H1085 0.950 . S
H1082 C1078 0.950 . S
C1083 C1081 1.390 . S
C1083 C1084 1.387 . S
C1083 H1086 0.950 . S
C1084 C1083 1.387 . S
C1084 C1087 1.387 . S
H1085 C1081 0.950 . S
H1086 C1083 0.950 . S
C1087 C1078 1.390 . S
C1087 H1080 0.950 . S
C1087 C1084 1.387 . S
C1088 C1089 1.387 . S
C1088 H1092 0.950 . S
C1088 C1097 1.390 . S
C1089 C1088 1.387 . S
C1089 C1091 1.387 . S
H1090 C1097 0.950 . S
C1091 C1089 1.387 . S
C1091 C1093 1.390 . S
C1091 H1095 0.950 . S
H1092 C1088 0.950 . S
C1093 C1091 1.390 . S
C1093 C1094 1.387 . S
C1093 H1096 0.950 . S
C1094 C1093 1.387 . S
C1094 C1097 1.387 . S
H1095 C1091 0.950 . S
H1096 C1093 0.950 . S
C1097 C1088 1.390 . S
C1097 H1090 0.950 . S
C1097 C1094 1.387 . S
C1098 C1099 1.387 . S
C1098 H1102 0.950 . S
C1098 C1107 1.390 . S
C1099 C1098 1.387 . S
C1099 C1101 1.387 . S
H1100 C1107 0.950 . S
C1101 C1099 1.387 . S
C1101 C1103 1.390 . S
C1101 H1105 0.950 . S
H1102 C1098 0.950 . S
C1103 C1101 1.390 . S
C1103 C1104 1.387 . S
C1103 H1106 0.950 . S
C1104 C1103 1.387 . S
C1104 C1107 1.387 . S
H1105 C1101 0.950 . S
H1106 C1103 0.950 . S
C1107 C1098 1.390 . S
C1107 H1100 0.950 . S
C1107 C1104 1.387 . S
C1108 C1109 1.387 . S
C1108 H1112 0.950 . S
C1108 C1117 1.390 . S
C1109 C1108 1.387 . S
C1109 C1111 1.387 . S
H1110 C1117 0.950 . S
C1111 C1109 1.387 . S
C1111 C1113 1.390 . S
C1111 H1115 0.950 . S
H1112 C1108 0.950 . S
C1113 C1111 1.390 . S
C1113 C1114 1.387 . S
C1113 H1116 0.950 . S
C1114 C1113 1.387 . S
C1114 C1117 1.387 . S
H1115 C1111 0.950 . S
H1116 C1113 0.950 . S
C1117 C1108 1.390 . S
C1117 H1110 0.950 . S
C1117 C1114 1.387 . S
C1118 C1119 1.387 . S
C1118 H1122 0.950 . S
C1118 C1127 1.390 . S
C1119 C1118 1.387 . S
C1119 C1121 1.387 . S
H1120 C1127 0.950 . S
C1121 C1119 1.387 . S
C1121 C1123 1.390 . S
C1121 H1125 0.950 . S
H1122 C1118 0.950 . S
C1123 C1121 1.390 . S
C1123 C1124 1.387 . S
C1123 H1126 0.950 . S
C1124 C1123 1.387 . S
C1124 C1127 1.387 . S
H1125 C1121 0.950 . S
H1126 C1123 0.950 . S
C1127 C1118 1.390 . S
C1127 H1120 0.950 . S
C1127 C1124 1.387 . S
C1128 C1129 1.387 . S
C1128 H1132 0.950 . S
C1128 C1137 1.390 . S
C1129 C1128 1.387 . S
C1129 C1131 1.387 . S
H1130 C1137 0.950 . S
C1131 C1129 1.387 . S
C1131 C1133 1.390 . S
C1131 H1135 0.950 . S
H1132 C1128 0.950 . S
C1133 C1131 1.390 . S
C1133 C1134 1.387 . S
C1133 H1136 0.950 . S
C1134 C1133 1.387 . S
C1134 C1137 1.387 . S
H1135 C1131 0.950 . S
H1136 C1133 0.950 . S
C1137 C1128 1.390 . S
C1137 H1130 0.950 . S
C1137 C1134 1.387 . S
C1138 C1139 1.387 . S
C1138 H1142 0.950 . S
C1138 C1147 1.390 . S
C1139 C1138 1.387 . S
C1139 C1141 1.387 . S
H1140 C1147 0.950 . S
C1141 C1139 1.387 . S
C1141 C1143 1.390 . S
C1141 H1145 0.966 . S
H1142 C1138 0.950 . S
C1143 C1141 1.390 . S
C1143 C1144 1.387 . S
C1143 H1146 0.950 1_565 S
C1144 C1143 1.387 . S
C1144 C1147 1.387 . S
H1145 C1141 0.966 . S
H1146 C1143 0.950 1_545 S
C1147 C1138 1.390 . S
C1147 H1140 0.950 . S
C1147 C1144 1.387 . S
C1148 C1149 1.387 . S
C1148 H1152 0.950 . S
C1148 C1157 1.390 . S
C1149 C1148 1.387 . S
C1149 C1151 1.387 . S
H1150 C1157 0.950 . S
C1151 C1149 1.387 . S
C1151 C1153 1.390 . S
C1151 H1155 0.950 . S
H1152 C1148 0.950 . S
C1153 C1151 1.390 . S
C1153 C1154 1.387 . S
C1153 H1156 0.950 . S
C1154 C1153 1.387 . S
C1154 C1157 1.387 . S
H1155 C1151 0.950 . S
H1156 C1153 0.950 . S
C1157 C1148 1.390 . S
C1157 H1150 0.950 . S
C1157 C1154 1.387 . S
C1158 C1159 1.387 . S
C1158 H1162 0.950 . S
C1158 C1167 1.390 1_554 S
C1159 C1158 1.387 . S
C1159 C1161 1.387 . S
H1160 C1167 0.950 . S
C1161 C1159 1.387 . S
C1161 C1163 1.390 1_554 S
C1161 H1165 0.950 . S
H1162 C1158 0.950 . S
C1163 C1161 1.390 1_556 S
C1163 C1164 1.387 . S
C1163 H1166 0.950 . S
C1164 C1163 1.387 . S
C1164 C1167 1.387 . S
H1165 C1161 0.950 . S
H1166 C1163 0.950 . S
C1167 C1158 1.390 1_556 S
C1167 H1160 0.950 . S
C1167 C1164 1.387 . S
C1168 C1169 1.387 . S
C1168 H1172 0.950 . S
C1168 C1177 1.390 . S
C1169 C1168 1.387 . S
C1169 C1171 1.387 . S
H1170 C1177 0.950 . S
C1171 C1169 1.387 . S
C1171 C1173 1.390 . S
C1171 H1175 0.950 . S
H1172 C1168 0.950 . S
C1173 C1171 1.390 . S
C1173 C1174 1.387 . S
C1173 H1176 0.950 . S
C1174 C1173 1.387 . S
C1174 C1177 1.387 . S
H1175 C1171 0.950 . S
H1176 C1173 0.950 . S
C1177 C1168 1.390 . S
C1177 H1170 0.950 . S
C1177 C1174 1.387 . S
C1178 C1179 1.387 . S
C1178 H1182 0.950 . S
C1178 C1187 1.390 1_554 S
C1179 C1178 1.387 . S
C1179 C1181 1.387 . S
H1180 C1187 0.950 . S
C1181 C1179 1.387 . S
C1181 C1183 1.390 1_554 S
C1181 H1185 0.950 . S
H1182 C1178 0.950 . S
C1183 C1181 1.390 1_556 S
C1183 C1184 1.387 . S
C1183 H1186 0.950 . S
C1184 C1183 1.387 . S
C1184 C1187 1.387 . S
H1185 C1181 0.950 . S
H1186 C1183 0.950 . S
C1187 C1178 1.390 1_556 S
C1187 H1180 0.950 . S
C1187 C1184 1.387 . S
C1188 C1189 1.387 . S
C1188 H1192 0.950 . S
C1188 C1197 1.390 . S
C1189 C1188 1.387 . S
C1189 C1191 1.387 . S
H1190 C1197 0.950 . S
C1191 C1189 1.387 . S
C1191 C1193 1.390 . S
C1191 H1195 0.950 . S
H1192 C1188 0.950 . S
C1193 C1191 1.390 . S
C1193 C1194 1.387 . S
C1193 H1196 0.950 . S
C1194 C1193 1.387 . S
C1194 C1197 1.387 . S
H1195 C1191 0.950 . S
H1196 C1193 0.950 . S
C1197 C1188 1.390 . S
C1197 H1190 0.950 . S
C1197 C1194 1.387 . S
C1198 C1199 1.387 . S
C1198 H1202 0.950 . S
C1198 C1207 1.390 . S
C1199 C1198 1.387 . S
C1199 C1201 1.387 . S
H1200 C1207 0.950 . S
C1201 C1199 1.387 . S
C1201 C1203 1.390 . S
C1201 H1205 0.950 . S
H1202 C1198 0.950 . S
C1203 C1201 1.390 . S
C1203 C1204 1.387 . S
C1203 H1206 0.950 . S
C1204 C1203 1.387 . S
C1204 C1207 1.387 . S
H1205 C1201 0.950 . S
H1206 C1203 0.950 . S
C1207 C1198 1.390 . S
C1207 H1200 0.950 . S
C1207 C1204 1.387 . S
C1208 C1209 1.387 . S
C1208 H1212 0.950 . S
C1208 C1217 1.390 . S
C1209 C1208 1.387 . S
C1209 C1211 1.387 . S
H1210 C1217 0.950 . S
C1211 C1209 1.387 . S
C1211 C1213 1.390 . S
C1211 H1215 0.950 . S
H1212 C1208 0.950 . S
C1213 C1211 1.390 . S
C1213 C1214 1.387 . S
C1213 H1216 0.950 . S
C1214 C1213 1.387 . S
C1214 C1217 1.387 . S
H1215 C1211 0.950 . S
H1216 C1213 0.950 . S
C1217 C1208 1.390 . S
C1217 H1210 0.950 . S
C1217 C1214 1.387 . S
C1218 C1219 1.387 . S
C1218 H1222 0.950 . S
C1218 C1227 1.390 1_545 S
C1219 C1218 1.387 . S
C1219 C1221 1.387 . S
H1220 C1227 0.950 1_655 S
C1221 C1219 1.387 . S
C1221 C1223 1.390 1_545 S
C1221 H1225 0.950 . S
H1222 C1218 0.950 . S
C1223 C1221 1.390 1_565 S
C1223 C1224 1.387 . S
C1223 H1226 0.950 . S
C1224 C1223 1.387 . S
C1224 C1227 1.387 . S
H1225 C1221 0.950 . S
H1226 C1223 0.950 . S
C1227 C1218 1.390 1_565 S
C1227 H1220 0.950 1_455 S
C1227 C1224 1.387 . S
C1228 C1229 1.387 . S
C1228 H1232 0.950 . S
C1228 C1237 1.390 . S
C1229 C1228 1.387 . S
C1229 C1231 1.387 . S
H1230 C1237 0.950 . S
C1231 C1229 1.387 . S
C1231 C1233 1.390 . S
C1231 H1235 0.950 . S
H1232 C1228 0.950 . S
C1233 C1231 1.390 . S
C1233 C1234 1.387 . S
C1233 H1236 0.950 . S
C1234 C1233 1.387 . S
C1234 C1237 1.387 . S
H1235 C1231 0.950 . S
H1236 C1233 0.950 . S
C1237 C1228 1.390 . S
C1237 H1230 0.950 . S
C1237 C1234 1.387 . S
C1238 C1239 1.387 . S
C1238 H1242 0.950 . S
C1238 C1247 1.390 1_545 S
C1239 C1238 1.387 . S
C1239 C1241 1.387 1_545 S
H1240 C1247 0.950 . S
C1241 C1239 1.387 1_565 S
C1241 C1243 1.390 . S
C1241 H1245 0.950 1_565 S
H1242 C1238 0.950 . S
C1243 C1241 1.390 . S
C1243 C1244 1.387 . S
C1243 H1246 0.950 . S
C1244 C1243 1.387 . S
C1244 C1247 1.387 . S
H1245 C1241 0.950 1_545 S
H1246 C1243 0.950 . S
C1247 C1238 1.390 1_565 S
C1247 H1240 0.950 . S
C1247 C1244 1.387 . S
C1248 C1249 1.387 . S
C1248 H1252 0.950 . S
C1248 C1257 1.390 . S
C1249 C1248 1.387 . S
C1249 C1251 1.387 . S
H1250 C1257 0.950 . S
C1251 C1249 1.387 . S
C1251 C1253 1.390 . S
C1251 H1255 0.950 . S
H1252 C1248 0.950 . S
C1253 C1251 1.390 . S
C1253 C1254 1.387 . S
C1253 H1256 0.950 . S
C1254 C1253 1.387 . S
C1254 C1257 1.387 . S
H1255 C1251 0.950 . S
H1256 C1253 0.950 . S
C1257 C1248 1.390 . S
C1257 H1250 0.950 . S
C1257 C1254 1.387 . S
C1258 C1259 1.387 . S
C1258 H1262 0.950 . S
C1258 C1267 1.390 . S
C1259 C1258 1.387 . S
C1259 C1261 1.387 . S
H1260 C1267 0.950 . S
C1261 C1259 1.387 . S
C1261 C1263 1.390 . S
C1261 H1265 0.950 . S
H1262 C1258 0.950 . S
C1263 C1261 1.390 . S
C1263 C1264 1.387 . S
C1263 H1266 0.950 . S
C1264 C1263 1.387 . S
C1264 C1267 1.387 . S
H1265 C1261 0.950 . S
H1266 C1263 0.950 . S
C1267 C1258 1.390 . S
C1267 H1260 0.950 . S
C1267 C1264 1.387 . S
C1268 C1269 1.387 . S
C1268 H1272 0.950 . S
C1268 C1277 1.390 . S
C1269 C1268 1.387 . S
C1269 C1271 1.387 . S
H1270 C1277 0.950 . S
C1271 C1269 1.387 . S
C1271 C1273 1.390 . S
C1271 H1275 0.950 . S
H1272 C1268 0.950 . S
C1273 C1271 1.390 . S
C1273 C1274 1.387 . S
C1273 H1276 0.950 . S
C1274 C1273 1.387 . S
C1274 C1277 1.387 . S
H1275 C1271 0.950 . S
H1276 C1273 0.950 . S
C1277 C1268 1.390 . S
C1277 H1270 0.950 . S
C1277 C1274 1.387 . S
C1278 C1279 1.387 . S
C1278 H1282 0.950 . S
C1278 C1287 1.390 . S
C1279 C1278 1.387 . S
C1279 C1281 1.387 . S
H1280 C1287 0.950 . S
C1281 C1279 1.387 . S
C1281 C1283 1.390 . S
C1281 H1285 0.950 . S
H1282 C1278 0.950 . S
C1283 C1281 1.390 . S
C1283 C1284 1.387 . S
C1283 H1286 0.950 . S
C1284 C1283 1.387 . S
C1284 C1287 1.387 . S
H1285 C1281 0.950 . S
H1286 C1283 0.950 . S
C1287 C1278 1.390 . S
C1287 H1280 0.950 . S
C1287 C1284 1.387 . S
C1288 C1289 1.387 . S
C1288 H1292 0.950 . S
C1288 C1297 1.390 . S
C1289 C1288 1.387 . S
C1289 C1291 1.387 . S
H1290 C1297 0.950 . S
C1291 C1289 1.387 . S
C1291 C1293 1.390 . S
C1291 H1295 0.950 . S
H1292 C1288 0.950 . S
C1293 C1291 1.390 . S
C1293 C1294 1.387 . S
C1293 H1296 0.950 . S
C1294 C1293 1.387 . S
C1294 C1297 1.387 . S
H1295 C1291 0.950 . S
H1296 C1293 0.950 . S
C1297 C1288 1.390 . S
C1297 H1290 0.950 . S
C1297 C1294 1.387 . S
C1298 C1299 1.387 . S
C1298 H1302 0.950 . S
C1298 C1307 1.390 . S
C1299 C1298 1.387 . S
C1299 C1301 1.387 . S
H1300 C1307 0.950 . S
C1301 C1299 1.387 . S
C1301 C1303 1.390 . S
C1301 H1305 0.950 . S
H1302 C1298 0.950 . S
C1303 C1301 1.390 . S
C1303 C1304 1.387 . S
C1303 H1306 0.950 . S
C1304 C1303 1.387 . S
C1304 C1307 1.387 . S
H1305 C1301 0.950 . S
H1306 C1303 0.950 . S
C1307 C1298 1.390 . S
C1307 H1300 0.950 . S
C1307 C1304 1.387 . S
C1308 C1309 1.387 . S
C1308 H1312 0.950 . S
C1308 C1317 1.390 1_455 S
C1309 C1308 1.387 . S
C1309 C1311 1.387 . S
H1310 C1317 0.950 . S
C1311 C1309 1.387 . S
C1311 C1313 1.390 . S
C1311 H1315 0.950 . S
H1312 C1308 0.950 . S
C1313 C1311 1.390 . S
C1313 C1314 1.387 1_455 S
C1313 H1316 0.947 1_454 S
C1314 C1313 1.387 1_655 S
C1314 C1317 1.387 . S
H1315 C1311 0.950 . S
H1316 C1313 0.947 1_656 S
C1317 C1308 1.390 1_655 S
C1317 H1310 0.950 . S
C1317 C1314 1.387 . S
C1318 C1319 1.387 . S
C1318 H1322 0.950 . S
C1318 C1327 1.390 . S
C1319 C1318 1.387 . S
C1319 C1321 1.387 . S
H1320 C1327 0.950 . S
C1321 C1319 1.387 . S
C1321 C1323 1.390 . S
C1321 H1325 0.950 . S
H1322 C1318 0.950 . S
C1323 C1321 1.390 . S
C1323 C1324 1.387 . S
C1323 H1326 0.950 . S
C1324 C1323 1.387 . S
C1324 C1327 1.387 . S
H1325 C1321 0.950 . S
H1326 C1323 0.950 . S
C1327 C1318 1.390 . S
C1327 H1320 0.950 . S
C1327 C1324 1.387 . S
C1328 C1329 1.387 . S
C1328 H1332 0.950 . S
C1328 C1337 1.390 . S
C1329 C1328 1.387 . S
C1329 C1331 1.387 . S
H1330 C1337 0.950 . S
C1331 C1329 1.387 . S
C1331 C1333 1.390 . S
C1331 H1335 0.950 . S
H1332 C1328 0.950 . S
C1333 C1331 1.390 . S
C1333 C1334 1.387 . S
C1333 H1336 0.950 . S
C1334 C1333 1.387 . S
C1334 C1337 1.387 . S
H1335 C1331 0.950 . S
H1336 C1333 0.950 . S
C1337 C1328 1.390 . S
C1337 H1330 0.950 . S
C1337 C1334 1.387 . S
C1338 C1339 1.387 . S
C1338 H1342 0.950 . S
C1338 C1347 1.390 . S
C1339 C1338 1.387 . S
C1339 C1341 1.387 . S
H1340 C1347 0.950 . S
C1341 C1339 1.387 . S
C1341 C1343 1.390 . S
C1341 H1345 0.950 . S
H1342 C1338 0.950 . S
C1343 C1341 1.390 . S
C1343 C1344 1.387 . S
C1343 H1346 0.950 . S
C1344 C1343 1.387 . S
C1344 C1347 1.387 . S
H1345 C1341 0.950 . S
H1346 C1343 0.950 . S
C1347 C1338 1.390 . S
C1347 H1340 0.950 . S
C1347 C1344 1.387 . S
C1348 C1349 1.387 . S
C1348 H1352 0.950 1_556 S
C1348 C1357 1.390 . S
C1349 C1348 1.387 . S
C1349 C1351 1.387 . S
H1350 C1357 0.950 . S
C1351 C1349 1.387 . S
C1351 C1353 1.390 . S
C1351 H1355 0.950 . S
H1352 C1348 0.950 1_554 S
C1353 C1351 1.390 . S
C1353 C1354 1.387 . S
C1353 H1356 0.950 . S
C1354 C1353 1.387 . S
C1354 C1357 1.387 . S
H1355 C1351 0.950 . S
H1356 C1353 0.950 . S
C1357 C1348 1.390 . S
C1357 H1350 0.950 . S
C1357 C1354 1.387 . S
C1358 C1359 1.387 . S
C1358 H1362 0.950 . S
C1358 C1367 1.390 1_655 S
C1359 C1358 1.387 . S
C1359 C1361 1.387 . S
H1360 C1367 0.950 . S
C1361 C1359 1.387 . S
C1361 C1363 1.390 1_655 S
C1361 H1365 0.950 . S
H1362 C1358 0.950 . S
C1363 C1361 1.390 1_455 S
C1363 C1364 1.387 . S
C1363 H1366 0.950 . S
C1364 C1363 1.387 . S
C1364 C1367 1.387 . S
H1365 C1361 0.950 . S
H1366 C1363 0.950 . S
C1367 C1358 1.390 1_455 S
C1367 H1360 0.950 . S
C1367 C1364 1.387 . S
C1009 C67 1.616 . S
C1014 C987 1.702 . S
C1019 C819 1.658 . S
C1024 C147 1.681 . S
C1029 C231 1.613 . S
C1034 C735 1.608 . S
C1039 C315 1.643 . S
C1044 C903 1.636 . S
C1049 C399 1.759 . S
C1054 C907 1.664 . S
C1059 C487 1.698 . S
C1064 C991 1.705 . S
C1069 C823 1.638 . S
C1074 C567 1.720 . S
C1079 C651 1.690 . S
C1084 C739 1.604 . S
C1089 C319 1.698 . S
C1094 C403 1.697 . S
C1099 C63 1.655 . S
C1104 C483 1.666 . S
C1109 C151 1.695 . S
C1114 C571 1.710 . S
C1119 C655 1.705 . S
C1124 C235 1.699 . S
C1129 C70 1.754 . S
C1134 C746 1.859 . S
C1139 C142 1.457 . S
C1144 C914 1.689 . S
C1149 C998 1.744 . S
C1154 C226 1.493 . S
C1159 C310 1.517 . S
C1164 C830 1.778 . S
C1169 C394 1.514 . S
C1174 C812 1.783 . S
C1179 C728 1.959 . S
C1184 C490 1.801 . S
C1189 C896 1.868 . S
C1194 C562 1.578 . S
C1199 C980 1.834 . S
C1204 C646 1.551 . S
C1209 C74 1.866 . S
C1214 C322 1.751 . S
C1219 C58 1.588 . S
C1224 C140 1.876 . S
C1229 C154 1.825 . S
C1234 C224 1.985 . S
C1239 C308 1.959 . S
C1244 C238 1.804 . S
C1249 C478 1.513 . S
C1254 C392 1.781 . S
C1259 C494 1.762 . S
C1264 C574 1.670 . S
C1269 C560 1.861 . S
C1274 C658 1.718 . S
C1279 C406 1.742 . S
C1284 C644 1.887 . S
C1289 C742 1.701 . S
C1294 C326 1.807 . S
C1299 C476 1.825 . S
C1304 C814 1.539 . S
C1309 C730 1.509 . S
C1314 C578 1.761 . S
C1319 C898 1.464 . S
C1324 C662 1.702 . S
C1329 C410 1.696 . S
C1334 C982 1.456 . S
C1339 C994 1.637 . S
C1344 C158 1.736 . S
C1349 C242 1.743 . S
C1354 C826 1.650 . S
C1359 C910 1.730 . S
C1364 C56 1.876 . S
