# Generated by pormake.
# Topology uou, (4)-cn, num edge types: 1
# Building blocks:
#     Node 0, Type 0, BuildingBlock: GALJAG_clean_sbu_0, # of connection points: 4
#     Node 1, Type 0, BuildingBlock: GALJAG_clean_sbu_0, # of connection points: 4
#     Node 2, Type 0, BuildingBlock: GALJAG_clean_sbu_0, # of connection points: 4
#     Node 3, Type 0, BuildingBlock: GALJAG_clean_sbu_0, # of connection points: 4
#     Node 4, Type 0, BuildingBlock: GALJAG_clean_sbu_0, # of connection points: 4
#     Node 5, Type 0, BuildingBlock: GALJAG_clean_sbu_0, # of connection points: 4
#     Node 6, Type 0, BuildingBlock: GALJAG_clean_sbu_0, # of connection points: 4
#     Node 7, Type 0, BuildingBlock: GALJAG_clean_sbu_0, # of connection points: 4
#     Node 8, Type 0, BuildingBlock: GALJAG_clean_sbu_0, # of connection points: 4
#     Node 9, Type 0, BuildingBlock: GALJAG_clean_sbu_0, # of connection points: 4
#     Node 10, Type 0, BuildingBlock: GALJAG_clean_sbu_0, # of connection points: 4
#     Node 11, Type 0, BuildingBlock: GALJAG_clean_sbu_0, # of connection points: 4
#     Node 12, Type 0, BuildingBlock: GALJAG_clean_sbu_0, # of connection points: 4
#     Node 13, Type 0, BuildingBlock: GALJAG_clean_sbu_0, # of connection points: 4
#     Node 14, Type 0, BuildingBlock: GALJAG_clean_sbu_0, # of connection points: 4
#     Node 15, Type 0, BuildingBlock: GALJAG_clean_sbu_0, # of connection points: 4
#     Edge 16, Type (0, 0), BuildingBlock: XIVTED_clean_linker_0, # of connection points: 2
#     Edge 17, Type (0, 0), BuildingBlock: XIVTED_clean_linker_0, # of connection points: 2
#     Edge 18, Type (0, 0), BuildingBlock: XIVTED_clean_linker_0, # of connection points: 2
#     Edge 19, Type (0, 0), BuildingBlock: XIVTED_clean_linker_0, # of connection points: 2
#     Edge 20, Type (0, 0), BuildingBlock: XIVTED_clean_linker_0, # of connection points: 2
#     Edge 21, Type (0, 0), BuildingBlock: XIVTED_clean_linker_0, # of connection points: 2
#     Edge 22, Type (0, 0), BuildingBlock: XIVTED_clean_linker_0, # of connection points: 2
#     Edge 23, Type (0, 0), BuildingBlock: XIVTED_clean_linker_0, # of connection points: 2
#     Edge 24, Type (0, 0), BuildingBlock: XIVTED_clean_linker_0, # of connection points: 2
#     Edge 25, Type (0, 0), BuildingBlock: XIVTED_clean_linker_0, # of connection points: 2
#     Edge 26, Type (0, 0), BuildingBlock: XIVTED_clean_linker_0, # of connection points: 2
#     Edge 27, Type (0, 0), BuildingBlock: XIVTED_clean_linker_0, # of connection points: 2
#     Edge 28, Type (0, 0), BuildingBlock: XIVTED_clean_linker_0, # of connection points: 2
#     Edge 29, Type (0, 0), BuildingBlock: XIVTED_clean_linker_0, # of connection points: 2
#     Edge 30, Type (0, 0), BuildingBlock: XIVTED_clean_linker_0, # of connection points: 2
#     Edge 31, Type (0, 0), BuildingBlock: XIVTED_clean_linker_0, # of connection points: 2
#     Edge 32, Type (0, 0), BuildingBlock: XIVTED_clean_linker_0, # of connection points: 2
#     Edge 33, Type (0, 0), BuildingBlock: XIVTED_clean_linker_0, # of connection points: 2
#     Edge 34, Type (0, 0), BuildingBlock: XIVTED_clean_linker_0, # of connection points: 2
#     Edge 35, Type (0, 0), BuildingBlock: XIVTED_clean_linker_0, # of connection points: 2
#     Edge 36, Type (0, 0), BuildingBlock: XIVTED_clean_linker_0, # of connection points: 2
#     Edge 37, Type (0, 0), BuildingBlock: XIVTED_clean_linker_0, # of connection points: 2
#     Edge 38, Type (0, 0), BuildingBlock: XIVTED_clean_linker_0, # of connection points: 2
#     Edge 39, Type (0, 0), BuildingBlock: XIVTED_clean_linker_0, # of connection points: 2
#     Edge 40, Type (0, 0), BuildingBlock: XIVTED_clean_linker_0, # of connection points: 2
#     Edge 41, Type (0, 0), BuildingBlock: XIVTED_clean_linker_0, # of connection points: 2
#     Edge 42, Type (0, 0), BuildingBlock: XIVTED_clean_linker_0, # of connection points: 2
#     Edge 43, Type (0, 0), BuildingBlock: XIVTED_clean_linker_0, # of connection points: 2
#     Edge 44, Type (0, 0), BuildingBlock: XIVTED_clean_linker_0, # of connection points: 2
#     Edge 45, Type (0, 0), BuildingBlock: XIVTED_clean_linker_0, # of connection points: 2
#     Edge 46, Type (0, 0), BuildingBlock: XIVTED_clean_linker_0, # of connection points: 2
#     Edge 47, Type (0, 0), BuildingBlock: XIVTED_clean_linker_0, # of connection points: 2
# Relax obj value: 0.005
# Max RMSD: 0.017
# Mean RMSD: 0.017
data_MOF--net-uou--node1-GALJAG_clean_sbu_0--edge1-XIVTED_clean_linker_0
_symmetry_space_group_name_H-M    P1
_symmetry_Int_Tables_number       1
_symmetry_cell_setting            triclinic
loop_
_symmetry_equiv_pos_as_xyz
'x, y, z'
_cell_length_a     36.047803
_cell_length_b     43.753094
_cell_length_c     55.154897
_cell_angle_alpha  89.957545
_cell_angle_beta   90.055491
_cell_angle_gamma 90.055481
loop_
_atom_site_label
_atom_site_type_symbol
_atom_site_fract_x
_atom_site_fract_y
_atom_site_fract_z
_atom_type_partial_charge
In0 In 0.05718 0.0804 0.10787 0.0
O1 O 0.12059 0.08141 0.10555 0.0
O2 O 0.09358 0.03844 0.11011 0.0
C3 C 0.038 0.13972 0.103 0.0
C4 C 0.03166 0.05469 0.06686 0.0
C5 C 0.03632 0.07105 0.15412 0.0
O6 O 0.07151 0.13123 0.10356 0.0
O7 O 0.01465 0.11835 0.10463 0.0
O8 O 0.01607 0.0635 0.1364 0.0
O9 O 0.06686 0.08315 0.14846 0.0
C10 C 0.12377 0.05274 0.10777 0.0
O11 O 0.01987 0.04701 0.08756 0.0
O12 O 0.05563 0.07574 0.06691 0.0
In13 In 0.43277 0.91295 0.11029 0.0
O14 O 0.36948 0.91201 0.10646 0.0
O15 O 0.39577 0.95428 0.1149 0.0
C16 C 0.45371 0.85463 0.10281 0.0
C17 C 0.45992 0.93964 0.07012 0.0
C18 C 0.45006 0.9175 0.15763 0.0
O19 O 0.42001 0.86268 0.10283 0.0
O20 O 0.47663 0.87607 0.10617 0.0
O21 O 0.46536 0.93422 0.1418 0.0
O22 O 0.42642 0.89888 0.1495 0.0
C23 C 0.36588 0.94027 0.11066 0.0
O24 O 0.47385 0.94442 0.09084 0.0
O25 O 0.43316 0.92104 0.0698 0.0
In26 In 0.55565 0.91324 0.37676 0.0
O27 O 0.51192 0.93664 0.40048 0.0
O28 O 0.5669 0.9324 0.41424 0.0
C29 C 0.52735 0.91769 0.33164 0.0
C30 C 0.62238 0.93934 0.36969 0.0
C31 C 0.54015 0.85454 0.3878 0.0
O32 O 0.52156 0.93797 0.34749 0.0
O33 O 0.54703 0.8956 0.33861 0.0
O34 O 0.57254 0.86318 0.38218 0.0
O35 O 0.5163 0.87561 0.38849 0.0
C36 C 0.53429 0.94173 0.41766 0.0
O37 O 0.61914 0.91215 0.37727 0.0
O38 O 0.59215 0.95275 0.36526 0.0
In39 In 0.93166 0.07909 0.37285 0.0
O40 O 0.96903 0.04609 0.39345 0.0
O41 O 0.93146 0.07356 0.41376 0.0
C42 C 0.95346 0.07088 0.32669 0.0
C43 C 0.86566 0.05038 0.37121 0.0
C44 C 0.95095 0.13825 0.37895 0.0
O45 O 0.97314 0.06249 0.34445 0.0
O46 O 0.92313 0.08333 0.33228 0.0
O47 O 0.9174 0.12975 0.37859 0.0
O48 O 0.97421 0.117 0.37644 0.0
C49 C 0.9561 0.05308 0.41401 0.0
O50 O 0.86806 0.07914 0.37327 0.0
O51 O 0.89629 0.03656 0.37002 0.0
In52 In 0.93451 0.91649 0.87477 0.0
O53 O 0.97175 0.94964 0.89532 0.0
O54 O 0.93529 0.92124 0.91575 0.0
C55 C 0.95585 0.92623 0.82864 0.0
C56 C 0.86797 0.94439 0.87462 0.0
C57 C 0.95424 0.85725 0.87983 0.0
O58 O 0.97573 0.93393 0.8465 0.0
O59 O 0.92548 0.91368 0.83411 0.0
O60 O 0.92064 0.86547 0.87891 0.0
O61 O 0.97735 0.8788 0.8784 0.0
C62 C 0.95949 0.94211 0.91594 0.0
O63 O 0.87098 0.91567 0.87668 0.0
O64 O 0.89828 0.95857 0.87256 0.0
In65 In 0.55566 0.07954 0.87813 0.0
O66 O 0.61932 0.08085 0.88013 0.0
O67 O 0.59291 0.03893 0.87102 0.0
C68 C 0.53473 0.13774 0.8863 0.0
C69 C 0.53125 0.05249 0.91894 0.0
C70 C 0.53271 0.07473 0.83183 0.0
O71 O 0.56847 0.13016 0.88428 0.0
O72 O 0.51193 0.11589 0.88473 0.0
O73 O 0.5221 0.05624 0.84802 0.0
O74 O 0.55472 0.09523 0.83901 0.0
C75 C 0.62292 0.05287 0.8749 0.0
O76 O 0.51552 0.04855 0.89867 0.0
O77 O 0.55863 0.07047 0.91858 0.0
In78 In 0.4361 0.07382 0.61083 0.0
O79 O 0.46809 0.03527 0.59229 0.0
O80 O 0.44875 0.07218 0.5705 0.0
C81 C 0.45442 0.06883 0.65802 0.0
C82 C 0.36724 0.04947 0.60898 0.0
C83 C 0.45918 0.13178 0.6047 0.0
O84 O 0.4708 0.0536 0.64179 0.0
O85 O 0.42894 0.08608 0.65043 0.0
O86 O 0.42528 0.12431 0.60328 0.0
O87 O 0.48122 0.10995 0.60891 0.0
C88 C 0.46542 0.04691 0.5714 0.0
O89 O 0.37291 0.07761 0.60534 0.0
O90 O 0.39595 0.0342 0.61362 0.0
In91 In 0.05167 0.91916 0.60849 0.0
O92 O 0.01476 0.95303 0.58833 0.0
O93 O 0.04905 0.92341 0.56752 0.0
C94 C 0.03147 0.92924 0.6548 0.0
C95 C 0.11927 0.94536 0.60743 0.0
C96 C 0.03149 0.8599 0.60416 0.0
O97 O 0.01114 0.93671 0.63711 0.0
O98 O 0.06182 0.91691 0.64908 0.0
O99 O 0.0651 0.86815 0.60449 0.0
O100 O 0.00846 0.88145 0.60578 0.0
C101 C 0.02569 0.94487 0.56756 0.0
O102 O 0.1149 0.91677 0.60548 0.0
O103 O 0.08971 0.9604 0.61003 0.0
In104 In 0.5538 0.57645 0.11073 0.0
O105 O 0.6171 0.57762 0.10814 0.0
O106 O 0.59051 0.53461 0.11342 0.0
C107 C 0.53543 0.63581 0.10478 0.0
C108 C 0.52842 0.5502 0.06982 0.0
C109 C 0.53291 0.56832 0.15722 0.0
O110 O 0.5688 0.62707 0.10597 0.0
O111 O 0.51177 0.61468 0.10646 0.0
O112 O 0.51229 0.56086 0.13966 0.0
O113 O 0.56374 0.57968 0.15128 0.0
C114 C 0.62057 0.54902 0.11074 0.0
O115 O 0.51669 0.54258 0.09055 0.0
O116 O 0.55227 0.57133 0.06982 0.0
In117 In 0.93505 0.41744 0.11084 0.0
O118 O 0.87164 0.41565 0.10861 0.0
O119 O 0.89782 0.45891 0.1134 0.0
C120 C 0.95469 0.3583 0.10541 0.0
C121 C 0.95998 0.44382 0.06992 0.0
C122 C 0.95657 0.4265 0.15704 0.0
O123 O 0.92113 0.36662 0.10609 0.0
O124 O 0.9779 0.37973 0.10727 0.0
O125 O 0.97645 0.43433 0.13924 0.0
O126 O 0.92605 0.41426 0.15149 0.0
C127 C 0.8679 0.44425 0.11099 0.0
O128 O 0.97168 0.45148 0.09065 0.0
O129 O 0.93638 0.4225 0.0699 0.0
In130 In 0.05582 0.41583 0.37685 0.0
O131 O 0.01911 0.45001 0.39667 0.0
O132 O 0.05419 0.4213 0.41778 0.0
C133 C 0.03451 0.4252 0.33064 0.0
C134 C 0.12321 0.44246 0.37705 0.0
C135 C 0.03583 0.35661 0.38199 0.0
O136 O 0.01459 0.43288 0.34844 0.0
O137 O 0.06499 0.41292 0.33619 0.0
O138 O 0.06942 0.36483 0.38093 0.0
O139 O 0.01277 0.37819 0.38074 0.0
C140 C 0.03065 0.44262 0.41749 0.0
O141 O 0.11917 0.41395 0.37994 0.0
O142 O 0.09346 0.45711 0.37393 0.0
In143 In 0.43585 0.57761 0.3779 0.0
O144 O 0.47283 0.54318 0.39756 0.0
O145 O 0.43792 0.57188 0.41874 0.0
C146 C 0.45528 0.56963 0.33116 0.0
C147 C 0.36847 0.55101 0.37787 0.0
C148 C 0.45676 0.63633 0.38447 0.0
O149 O 0.47547 0.56062 0.34848 0.0
O150 O 0.42556 0.58255 0.33745 0.0
O151 O 0.42311 0.62817 0.38502 0.0
O152 O 0.47944 0.61495 0.38067 0.0
C153 C 0.46147 0.55057 0.41842 0.0
O154 O 0.37243 0.57965 0.37989 0.0
O155 O 0.3983 0.53621 0.37576 0.0
In156 In 0.43391 0.41573 0.87519 0.0
O157 O 0.37048 0.41481 0.87768 0.0
O158 O 0.39738 0.45757 0.87182 0.0
C159 C 0.45376 0.35678 0.88176 0.0
C160 C 0.45871 0.44238 0.91606 0.0
C161 C 0.45514 0.42315 0.82871 0.0
O162 O 0.42014 0.36489 0.88052 0.0
O163 O 0.47683 0.3783 0.8798 0.0
O164 O 0.47503 0.43185 0.84628 0.0
O165 O 0.42477 0.41094 0.83463 0.0
C166 C 0.36722 0.44339 0.87472 0.0
O167 O 0.47079 0.44976 0.89535 0.0
O168 O 0.4348 0.42129 0.91605 0.0
In169 In 0.05477 0.57853 0.87574 0.0
O170 O 0.11826 0.57972 0.87816 0.0
O171 O 0.09139 0.53667 0.87381 0.0
C172 C 0.03444 0.63766 0.88045 0.0
C173 C 0.02906 0.5529 0.91673 0.0
C174 C 0.03458 0.56903 0.82937 0.0
O175 O 0.06811 0.62955 0.88041 0.0
O176 O 0.01153 0.61604 0.87836 0.0
O177 O 0.01434 0.56106 0.84697 0.0
O178 O 0.06476 0.58163 0.83523 0.0
C179 C 0.12155 0.55102 0.87609 0.0
O180 O 0.01739 0.54516 0.896 0.0
O181 O 0.05303 0.57394 0.91671 0.0
In182 In 0.93446 0.5802 0.60981 0.0
O183 O 0.97245 0.54705 0.58993 0.0
O184 O 0.93667 0.57526 0.56886 0.0
C185 C 0.95469 0.57061 0.65619 0.0
C186 C 0.86794 0.55221 0.609 0.0
C187 C 0.9537 0.6396 0.60503 0.0
O188 O 0.97514 0.56318 0.63857 0.0
O189 O 0.92428 0.5828 0.65036 0.0
O190 O 0.92018 0.63109 0.60557 0.0
O191 O 0.977 0.61825 0.60667 0.0
C192 C 0.96088 0.55444 0.56911 0.0
O193 O 0.87106 0.58089 0.60672 0.0
O194 O 0.89814 0.5381 0.61177 0.0
In195 In 0.55986 0.41026 0.6096 0.0
O196 O 0.5227 0.4439 0.58938 0.0
O197 O 0.55868 0.41556 0.56865 0.0
C198 C 0.53831 0.4189 0.65589 0.0
C199 C 0.62642 0.43819 0.60939 0.0
C200 C 0.54079 0.35095 0.604 0.0
O201 O 0.51828 0.42658 0.6381 0.0
O202 O 0.56896 0.40699 0.65029 0.0
O203 O 0.57424 0.35931 0.606 0.0
O204 O 0.51751 0.3724 0.60463 0.0
C205 C 0.53469 0.43655 0.56866 0.0
O206 O 0.62324 0.40961 0.60649 0.0
O207 O 0.59626 0.45222 0.61256 0.0
H208 H 0.29656 0.9155 0.10481 0.0
H209 H 0.19351 0.07778 0.10686 0.0
H210 H 0.35332 0.00139 0.11522 0.0
H211 H 0.13591 0.99129 0.10859 0.0
H212 H 0.25269 0.0503 0.10731 0.0
H213 H 0.23741 0.94299 0.10367 0.0
C214 C 0.29654 0.94012 0.10688 0.0
C215 C 0.32982 0.9562 0.11017 0.0
C216 C 0.22708 0.03735 0.10761 0.0
C217 C 0.26246 0.98778 0.10876 0.0
C218 C 0.19335 0.05303 0.1073 0.0
C219 C 0.15982 0.03678 0.10774 0.0
C220 C 0.22722 0.00522 0.10821 0.0
C221 C 0.16115 0.00472 0.10831 0.0
C222 C 0.26282 0.9558 0.10624 0.0
C223 C 0.32827 0.98809 0.11271 0.0
N224 N 0.19428 0.98999 0.1085 0.0
N225 N 0.29517 0.00284 0.11191 0.0
H226 H 0.63452 -0.00088 0.35815 0.0
H227 H 0.85499 0.98873 0.37162 0.0
H228 H 0.69209 0.91603 0.37712 0.0
H229 H 0.79534 0.0741 0.36833 0.0
H230 H 0.79611 0.96119 0.36983 0.0
H231 H 0.69374 0.02625 0.35763 0.0
C232 C 0.65968 0.98652 0.36205 0.0
C233 C 0.6584 0.95527 0.36775 0.0
C234 C 0.79586 0.98594 0.36951 0.0
C235 C 0.72629 0.98625 0.36725 0.0
C236 C 0.82946 0.0017 0.3705 0.0
C237 C 0.83001 0.03377 0.37018 0.0
C238 C 0.76251 0.00234 0.368 0.0
C239 C 0.79612 0.04938 0.3687 0.0
C240 C 0.69346 0.00208 0.36185 0.0
C241 C 0.69184 0.94013 0.37267 0.0
N242 N 0.7637 0.03349 0.36762 0.0
N243 N 0.72445 0.95578 0.37233 0.0
H244 H 0.85627 0.00592 0.87442 0.0
H245 H 0.63533 0.99212 0.86791 0.0
H246 H 0.79793 0.91975 0.87475 0.0
H247 H 0.69261 0.07733 0.88037 0.0
H248 H 0.69482 0.96555 0.86777 0.0
H249 H 0.79686 0.03268 0.87418 0.0
C250 C 0.83092 0.99261 0.87443 0.0
C251 C 0.83201 0.96054 0.8746 0.0
C252 C 0.69444 0.99005 0.87053 0.0
C253 C 0.76387 0.99108 0.87425 0.0
C254 C 0.66048 0.00528 0.87054 0.0
C255 C 0.65905 0.037 0.87416 0.0
C256 C 0.72732 0.00666 0.87403 0.0
C257 C 0.69249 0.05285 0.87752 0.0
C258 C 0.79701 0.00793 0.87434 0.0
C259 C 0.79833 0.94449 0.87465 0.0
N260 N 0.7253 0.03751 0.87735 0.0
N261 N 0.7656 0.95994 0.87441 0.0
H262 H 0.18768 0.91833 0.60534 0.0
H263 H 0.29931 0.07703 0.60327 0.0
H264 H 0.13433 0.00652 0.60804 0.0
H265 H 0.35113 0.98884 0.61212 0.0
H266 H 0.23853 0.05175 0.60207 0.0
H267 H 0.24807 0.94391 0.60486 0.0
C268 C 0.1887 0.94307 0.6058 0.0
C269 C 0.156 0.96033 0.60681 0.0
C270 C 0.26325 0.03797 0.60427 0.0
C271 C 0.22491 0.98978 0.60621 0.0
C272 C 0.29788 0.05238 0.60492 0.0
C273 C 0.33024 0.03501 0.60787 0.0
C274 C 0.26108 0.00598 0.60644 0.0
C275 C 0.32687 0.00314 0.60991 0.0
C276 C 0.22315 0.95768 0.60556 0.0
C277 C 0.1589 0.99233 0.60734 0.0
N278 N 0.29296 0.98968 0.60913 0.0
N279 N 0.19274 0.00603 0.60702 0.0
H280 H 0.85453 0.50549 0.11275 0.0
H281 H 0.63366 0.48771 0.11325 0.0
H282 H 0.79861 0.41837 0.1089 0.0
H283 H 0.68987 0.57458 0.10799 0.0
H284 H 0.69371 0.4619 0.11316 0.0
H285 H 0.79444 0.53113 0.11252 0.0
C286 C 0.82956 0.49174 0.11187 0.0
C287 C 0.83153 0.45974 0.11085 0.0
C288 C 0.69295 0.48659 0.11199 0.0
C289 C 0.76259 0.48899 0.11061 0.0
C290 C 0.65868 0.50136 0.11208 0.0
C291 C 0.65682 0.53335 0.11064 0.0
C292 C 0.72566 0.50393 0.11056 0.0
C293 C 0.69007 0.54988 0.10912 0.0
C294 C 0.79525 0.50642 0.1117 0.0
C295 C 0.79831 0.44309 0.10969 0.0
N296 N 0.72315 0.53498 0.10917 0.0
N297 N 0.76517 0.45792 0.10965 0.0
H298 H 0.2994 0.57719 0.37925 0.0
H299 H 0.19215 0.41647 0.38096 0.0
H300 H 0.35459 0.48977 0.37689 0.0
H301 H 0.13714 0.5036 0.37402 0.0
H302 H 0.25203 0.44298 0.38147 0.0
H303 H 0.23948 0.55072 0.37933 0.0
C304 C 0.29889 0.55245 0.37876 0.0
C305 C 0.33196 0.53565 0.37802 0.0
C306 C 0.22685 0.45629 0.37981 0.0
C307 C 0.26367 0.50521 0.37816 0.0
C308 C 0.1927 0.44116 0.37954 0.0
C309 C 0.15969 0.45786 0.3774 0.0
C310 C 0.22793 0.48835 0.37804 0.0
C311 C 0.16195 0.48982 0.37565 0.0
C312 C 0.26472 0.53734 0.37878 0.0
C313 C 0.32974 0.50362 0.37742 0.0
N314 N 0.19547 0.50402 0.37603 0.0
N315 N 0.2962 0.48945 0.37753 0.0
H316 H 0.13382 0.48959 0.87527 0.0
H317 H 0.3549 0.50473 0.8714 0.0
H318 H 0.19138 0.57608 0.87717 0.0
H319 H 0.29754 0.41858 0.87852 0.0
H320 H 0.29531 0.53119 0.872 0.0
H321 H 0.19343 0.4632 0.87507 0.0
C322 C 0.15905 0.50305 0.87565 0.0
C323 C 0.15767 0.5351 0.87622 0.0
C324 C 0.2957 0.50651 0.87346 0.0
C325 C 0.2261 0.50498 0.87593 0.0
C326 C 0.32972 0.49136 0.87307 0.0
C327 C 0.33115 0.45938 0.8749 0.0
C328 C 0.26277 0.48958 0.87559 0.0
C329 C 0.29768 0.44325 0.87706 0.0
C330 C 0.19309 0.48794 0.87557 0.0
C331 C 0.19121 0.55134 0.87674 0.0
N332 N 0.26484 0.45853 0.87731 0.0
N333 N 0.22409 0.5361 0.87652 0.0
H334 H 0.69619 0.4137 0.60557 0.0
H335 H 0.79806 0.5768 0.60658 0.0
H336 H 0.63835 0.49961 0.61208 0.0
H337 H 0.85611 0.4907 0.61024 0.0
H338 H 0.73905 0.54896 0.60621 0.0
H339 H 0.75518 0.44156 0.60492 0.0
C340 C 0.69593 0.4384 0.60686 0.0
C341 C 0.66239 0.45437 0.60894 0.0
C342 C 0.76472 0.53617 0.6071 0.0
C343 C 0.72959 0.48638 0.60814 0.0
C344 C 0.79837 0.55206 0.60728 0.0
C345 C 0.83197 0.53604 0.6085 0.0
C346 C 0.76475 0.50404 0.60803 0.0
C347 C 0.83081 0.50397 0.60935 0.0
C348 C 0.72956 0.4543 0.60651 0.0
C349 C 0.6636 0.48638 0.61052 0.0
N350 N 0.79778 0.48904 0.60908 0.0
N351 N 0.69662 0.50133 0.61006 0.0
H352 H 0.91056 0.07588 0.28622 0.0
H353 H 0.07969 0.07499 0.1945 0.0
H354 H 0.02278 0.05776 0.3094 0.0
H355 H 0.96699 0.05842 0.17155 0.0
H356 H 0.05965 0.07151 0.23678 0.0
H357 H 0.93073 0.07241 0.24401 0.0
C358 C 0.93944 0.07105 0.2824 0.0
C359 C 0.96512 0.06721 0.30126 0.0
C360 C 0.03938 0.06838 0.22249 0.0
C361 C 0.98838 0.06349 0.25311 0.0
C362 C 0.05075 0.07047 0.19839 0.0
C363 C 0.02488 0.06711 0.17957 0.0
C364 C 0.00178 0.06341 0.22777 0.0
C365 C 0.98778 0.06115 0.18556 0.0
C366 C 0.95088 0.06895 0.25833 0.0
C367 C 0.00214 0.06085 0.29534 0.0
N368 N 0.97724 0.05981 0.20918 0.0
N369 N 0.01278 0.0595 0.27173 0.0
H370 H 0.43526 0.8745 0.19178 0.0
H371 H 0.50807 0.96869 0.3055 0.0
H372 H 0.48574 0.96323 0.18262 0.0
H373 H 0.51425 0.87039 0.30112 0.0
H374 H 0.48763 0.97011 0.26285 0.0
H375 H 0.45165 0.87577 0.23475 0.0
C376 C 0.44966 0.89433 0.19886 0.0
C377 C 0.4594 0.91873 0.18365 0.0
C378 C 0.49339 0.94831 0.27137 0.0
C379 C 0.47776 0.92044 0.2328 0.0
C380 C 0.50476 0.94747 0.29562 0.0
C381 C 0.51289 0.91938 0.30669 0.0
C382 C 0.48931 0.92084 0.25849 0.0
C383 C 0.50844 0.89251 0.29317 0.0
C384 C 0.45906 0.89498 0.22333 0.0
C385 C 0.47802 0.94387 0.19376 0.0
N386 N 0.49674 0.89389 0.26982 0.0
N387 N 0.48651 0.94417 0.21783 0.0
H388 H 0.96242 0.94252 0.67235 0.0
H389 H 0.02502 0.94014 0.8115 0.0
H390 H 0.07498 0.92502 0.69512 0.0
H391 H 0.91272 0.9226 0.78815 0.0
H392 H 0.04382 0.94467 0.76891 0.0
H393 H 0.94379 0.94543 0.71502 0.0
C394 C 0.98324 0.93958 0.68633 0.0
C395 C 0.02021 0.93331 0.68028 0.0
C396 C 0.01505 0.93998 0.77317 0.0
C397 C -0.00078 0.93676 0.7289 0.0
C398 C 0.00431 0.93749 0.79741 0.0
C399 C 0.96735 0.93078 0.80326 0.0
C400 C 0.98849 0.93615 0.75477 0.0
C401 C 0.94157 0.92755 0.78437 0.0
C402 C 0.97258 0.94112 0.71063 0.0
C403 C 0.04611 0.92967 0.69906 0.0
N404 N 0.95263 0.93028 0.76094 0.0
N405 N 0.03512 0.93143 0.72256 0.0
H406 H 0.49057 0.02311 0.68257 0.0
H407 H 0.52846 0.12144 0.79962 0.0
H408 H 0.44248 0.11258 0.69195 0.0
H409 H 0.50882 0.02454 0.80644 0.0
H410 H 0.50825 0.11898 0.75729 0.0
H411 H 0.50847 0.02324 0.72572 0.0
C412 C 0.48384 0.04272 0.69371 0.0
C413 C 0.46505 0.06787 0.68381 0.0
C414 C 0.50833 0.09829 0.76809 0.0
C415 C 0.48586 0.06836 0.73255 0.0
C416 C 0.51995 0.09964 0.79215 0.0
C417 C 0.52014 0.07316 0.80645 0.0
C418 C 0.49775 0.07014 0.75811 0.0
C419 C 0.50879 0.04547 0.79595 0.0
C420 C 0.49384 0.0427 0.71822 0.0
C421 C 0.45681 0.09269 0.69894 0.0
N422 N 0.49837 0.04458 0.77223 0.0
N423 N 0.46766 0.09248 0.7225 0.0
H424 H 0.57732 0.57084 0.19715 0.0
H425 H 0.41126 0.577 0.29134 0.0
H426 H 0.46326 0.55851 0.17546 0.0
H427 H 0.52321 0.55458 0.31258 0.0
H428 H 0.42977 0.57356 0.24875 0.0
H429 H 0.55826 0.56812 0.23963 0.0
C430 C 0.54826 0.56743 0.20136 0.0
C431 C 0.52177 0.56498 0.18282 0.0
C432 C 0.4502 0.56917 0.26273 0.0
C433 C 0.49977 0.56218 0.23132 0.0
C434 C 0.43972 0.57124 0.28702 0.0
C435 C 0.46582 0.56615 0.30547 0.0
C436 C 0.48719 0.56247 0.25688 0.0
C437 C 0.50225 0.55866 0.29889 0.0
C438 C 0.53744 0.56578 0.22559 0.0
C439 C 0.48454 0.56047 0.18925 0.0
N440 N 0.51198 0.55733 0.2751 0.0
N441 N 0.47455 0.55953 0.21301 0.0
H442 H 0.96523 0.43879 0.31356 0.0
H443 H 0.02602 0.43957 0.17417 0.0
H444 H 0.07728 0.42099 0.29004 0.0
H445 H 0.91381 0.42212 0.19762 0.0
H446 H 0.04534 0.4427 0.21674 0.0
H447 H 0.94599 0.44261 0.27101 0.0
C448 C 0.9858 0.43593 0.29944 0.0
C449 C 0.02281 0.42937 0.30524 0.0
C450 C 0.01648 0.43833 0.21251 0.0
C451 C 0.00115 0.43389 0.25677 0.0
C452 C 0.00544 0.43666 0.18828 0.0
C453 C 0.96835 0.43038 0.18245 0.0
C454 C 0.99011 0.43411 0.23094 0.0
C455 C 0.94275 0.42677 0.20138 0.0
C456 C 0.97481 0.438 0.27522 0.0
C457 C 0.04839 0.42586 0.28629 0.0
N458 N 0.95411 0.4287 0.22481 0.0
N459 N 0.03709 0.42818 0.26287 0.0
H460 H 0.58135 0.41488 0.69644 0.0
H461 H 0.41209 0.41714 0.78833 0.0
H462 H 0.46885 0.43148 0.67317 0.0
H463 H 0.52454 0.4353 0.81103 0.0
H464 H 0.43225 0.41907 0.74602 0.0
H465 H 0.5612 0.41898 0.73866 0.0
C466 C 0.55242 0.4195 0.70024 0.0
C467 C 0.52667 0.42277 0.68133 0.0
C468 C 0.45245 0.42286 0.76025 0.0
C469 C 0.50342 0.4272 0.72951 0.0
C470 C 0.44101 0.42167 0.78438 0.0
C471 C 0.46675 0.42599 0.80316 0.0
C472 C 0.49001 0.42789 0.75488 0.0
C473 C 0.50383 0.43188 0.79706 0.0
C474 C 0.54098 0.42195 0.72431 0.0
C475 C 0.48957 0.42884 0.68724 0.0
N476 N 0.51446 0.43235 0.77341 0.0
N477 N 0.47895 0.43057 0.71085 0.0
H478 H 0.07843 0.5734 0.78932 0.0
H479 H 0.91077 0.57416 0.69628 0.0
H480 H 0.96562 0.55584 0.81144 0.0
H481 H 0.02368 0.55753 0.67403 0.0
H482 H 0.93014 0.56994 0.73867 0.0
H483 H 0.05903 0.57004 0.74692 0.0
C484 C 0.04959 0.56868 0.78522 0.0
C485 C 0.02351 0.56503 0.80385 0.0
C486 C 0.95061 0.56696 0.72451 0.0
C487 C 0.00111 0.56147 0.75548 0.0
C488 C 0.93962 0.56948 0.70034 0.0
C489 C 0.96574 0.56633 0.68169 0.0
C490 C 0.98809 0.56175 0.73003 0.0
C491 C 0.0027 0.56013 0.68791 0.0
C492 C 0.03858 0.56666 0.76105 0.0
C493 C 0.98657 0.55881 0.79758 0.0
N494 N 0.01289 0.55836 0.7116 0.0
N495 N 0.97635 0.55755 0.77388 0.0
H496 H 0.08227 0.1907 0.1013 0.0
H497 H 0.91062 0.30735 0.10223 0.0
H498 H 0.96759 0.16235 0.10117 0.0
H499 H 0.02523 0.33584 0.10372 0.0
H500 H 0.93097 0.25405 0.10003 0.0
H501 H 0.06204 0.24412 0.10035 0.0
C502 C 0.05286 0.19573 0.10096 0.0
C503 C 0.02658 0.17209 0.10138 0.0
C504 C 0.95168 0.27196 0.10077 0.0
C505 C 0.00318 0.23306 0.10037 0.0
C506 C 0.94005 0.30238 0.102 0.0
C507 C 0.96627 0.32602 0.10322 0.0
C508 C 0.9898 0.26515 0.10077 0.0
C509 C 0.00406 0.31831 0.10286 0.0
C510 C 0.0413 0.22621 0.10045 0.0
C511 C 0.98881 0.17987 0.10092 0.0
N512 N 0.01469 0.28856 0.10173 0.0
N513 N 0.97826 0.20966 0.1005 0.0
H514 H 0.40998 0.80395 0.09715 0.0
H515 H 0.58039 0.6864 0.10319 0.0
H516 H 0.52439 0.83206 0.10308 0.0
H517 H 0.46547 0.6589 0.10059 0.0
H518 H 0.56088 0.73994 0.10054 0.0
H519 H 0.43017 0.75063 0.09561 0.0
C520 C 0.43936 0.7989 0.09798 0.0
C521 C 0.46553 0.82244 0.10034 0.0
C522 C 0.53995 0.72218 0.10046 0.0
C523 C 0.48889 0.76149 0.0987 0.0
C524 C 0.55109 0.69163 0.10196 0.0
C525 C 0.52451 0.66821 0.10221 0.0
C526 C 0.50196 0.7293 0.09919 0.0
C527 C 0.4869 0.67625 0.10055 0.0
C528 C 0.4509 0.76846 0.09714 0.0
C529 C 0.50326 0.8146 0.10132 0.0
N530 N 0.47676 0.70609 0.09917 0.0
N531 N 0.51381 0.7848 0.10059 0.0
H532 H 0.41406 0.68678 0.39385 0.0
H533 H 0.58453 0.80388 0.38384 0.0
H534 H 0.52737 0.65873 0.3822 0.0
H535 H 0.47196 0.83138 0.39888 0.0
H536 H 0.56482 0.75032 0.38538 0.0
H537 H 0.43518 0.73977 0.39761 0.0
C538 C 0.44338 0.69177 0.39215 0.0
C539 C 0.46897 0.66836 0.38759 0.0
C540 C 0.54449 0.76807 0.38853 0.0
C541 C 0.49338 0.72889 0.39183 0.0
C542 C 0.55577 0.79864 0.38772 0.0
C543 C 0.52982 0.8221 0.39113 0.0
C544 C 0.50696 0.76095 0.39268 0.0
C545 C 0.49288 0.81401 0.39606 0.0
C546 C 0.45546 0.72201 0.39433 0.0
C547 C 0.50666 0.67609 0.38564 0.0
N548 N 0.48252 0.78416 0.39652 0.0
N549 N 0.5177 0.70569 0.38766 0.0
H550 H 0.07952 0.30538 0.38333 0.0
H551 H 0.90702 0.18924 0.38292 0.0
H552 H 0.96515 0.33435 0.38436 0.0
H553 H 0.0215 0.16068 0.38054 0.0
H554 H 0.92764 0.24254 0.38542 0.0
H555 H 0.05879 0.25209 0.3843 0.0
C556 C 0.05006 0.30052 0.38388 0.0
C557 C 0.02403 0.3243 0.38369 0.0
C558 C 0.94825 0.22459 0.38443 0.0
C559 C 3e-05 0.26342 0.38472 0.0
C560 C 0.93646 0.19418 0.38302 0.0
C561 C 0.96257 0.17053 0.38144 0.0
C562 C 0.98641 0.23136 0.38424 0.0
C563 C 0.00039 0.17821 0.38166 0.0
C564 C 0.03821 0.2701 0.3844 0.0
C565 C 0.98618 0.3167 0.38443 0.0
N566 N 0.01116 0.20793 0.38296 0.0
N567 N 0.97533 0.28695 0.38483 0.0
H568 H 0.96356 0.65945 0.88097 0.0
H569 H 0.02488 0.83535 0.88308 0.0
H570 H 0.07764 0.6892 0.88363 0.0
H571 H 0.91074 0.8057 0.88082 0.0
H572 H 0.04459 0.78203 0.88469 0.0
H573 H 0.94365 0.71275 0.88228 0.0
C574 C 0.98445 0.67722 0.88192 0.0
C575 C 0.02235 0.66988 0.88214 0.0
C576 C 0.01522 0.78712 0.88392 0.0
C577 C -0.00031 0.73106 0.88358 0.0
C578 C 0.00392 0.81759 0.883 0.0
C579 C 0.96608 0.82497 0.88175 0.0
C580 C 0.98851 0.76375 0.88352 0.0
C581 C 0.94019 0.80103 0.88175 0.0
C582 C 0.97303 0.70767 0.88266 0.0
C583 C 0.04815 0.69384 0.88339 0.0
N584 N 0.95189 0.77148 0.88254 0.0
N585 N 0.03635 0.72336 0.884 0.0
H586 H 0.52446 0.33514 0.88524 0.0
H587 H 0.46375 0.15914 0.88978 0.0
H588 H 0.41034 0.30531 0.88497 0.0
H589 H 0.57765 0.18944 0.88787 0.0
H590 H 0.44359 0.21245 0.89066 0.0
H591 H 0.54429 0.28201 0.88866 0.0
C592 C 0.50353 0.31738 0.88598 0.0
C593 C 0.46566 0.32465 0.88472 0.0
C594 C 0.473 0.20747 0.89018 0.0
C595 C 0.48823 0.26362 0.88861 0.0
C596 C 0.48455 0.17703 0.88973 0.0
C597 C 0.52246 0.16985 0.88867 0.0
C598 C 0.49954 0.23097 0.88954 0.0
C599 C 0.54816 0.19394 0.88865 0.0
C600 C 0.5149 0.28702 0.88793 0.0
C601 C 0.43981 0.3007 0.88583 0.0
N602 N 0.53622 0.22342 0.88896 0.0
N603 N 0.45158 0.27124 0.88762 0.0
H604 H 0.53043 0.15307 0.60706 0.0
H605 H 0.47074 0.32887 0.59762 0.0
H606 H 0.41747 0.18323 0.59728 0.0
H607 H 0.58433 0.29949 0.60557 0.0
H608 H 0.4512 0.27553 0.59592 0.0
H609 H 0.55113 0.20625 0.60505 0.0
C610 C 0.50998 0.17088 0.60438 0.0
C611 C 0.47213 0.16373 0.60241 0.0
C612 C 0.48043 0.28067 0.59794 0.0
C613 C 0.49564 0.22468 0.60017 0.0
C614 C 0.49163 0.31116 0.59892 0.0
C615 C 0.52923 0.31863 0.60183 0.0
C616 C 0.50698 0.25735 0.59999 0.0
C617 C 0.55505 0.29473 0.60335 0.0
C618 C 0.52184 0.20125 0.60324 0.0
C619 C 0.4469 0.18772 0.59893 0.0
N620 N 0.54343 0.26514 0.60251 0.0
N621 N 0.45909 0.21711 0.59801 0.0
H622 H 0.96079 0.83754 0.60305 0.0
H623 H 0.02416 0.66218 0.6029 0.0
H624 H 0.07521 0.80871 0.60201 0.0
H625 H 0.90961 0.6907 0.60327 0.0
H626 H 0.04325 0.71568 0.60139 0.0
H627 H 0.94145 0.78402 0.60196 0.0
C628 C 0.98187 0.81992 0.60251 0.0
C629 C 0.01969 0.82758 0.60267 0.0
C630 C 0.01393 0.7103 0.60173 0.0
C631 C -0.00229 0.7662 0.60147 0.0
C632 C 0.00298 0.67973 0.60258 0.0
C633 C 0.96521 0.67198 0.60326 0.0
C634 C 0.98692 0.7334 0.60159 0.0
C635 C 0.93902 0.69567 0.60278 0.0
C636 C 0.97079 0.78936 0.60189 0.0
C637 C 0.04576 0.80382 0.60193 0.0
N638 N 0.95038 0.72533 0.60205 0.0
N639 N 0.03429 0.7742 0.60143 0.0
H640 H 0.93586 0.93056 0.96206 0.0
H641 H 0.05462 0.0665 0.02066 0.0
H642 H 0.00878 0.98923 0.92096 0.0
H643 H 0.98267 0.00729 0.062 0.0
H644 H 0.03761 0.0388 0.98387 0.0
H645 H 0.95275 0.95827 -0.0011 0.0
C646 C 0.95558 0.94919 0.96082 0.0
C647 C 0.97098 0.95763 0.93845 0.0
C648 C 0.02545 0.03189 0.00096 0.0
C649 C 0.99024 0.98956 0.98048 0.0
C650 C 0.03508 0.04775 0.02197 0.0
C651 C 0.02001 0.03916 0.04439 0.0
C652 C 0.00059 0.00723 0.00239 0.0
C653 C -0.0051 0.01467 0.04506 0.0
C654 C 0.96514 0.96505 0.98185 0.0
C655 C -0.0037 0.98197 0.93786 0.0
N656 N 0.98602 -0.00049 0.02435 0.0
N657 N 0.00509 -0.00288 0.95858 0.0
H658 H 0.47545 0.01059 0.9242 0.0
H659 H 0.51506 0.98251 0.06558 0.0
H660 H 0.5612 0.05747 0.96426 0.0
H661 H 0.43258 0.93335 0.02433 0.0
H662 H 0.53248 0.01042 0.02878 0.0
H663 H 0.45876 0.98261 0.96101 0.0
C664 C 0.49065 0.01508 0.94078 0.0
C665 C 0.51972 0.03636 0.9412 0.0
C666 C 0.51065 0.99345 0.02778 0.0
C667 C 0.50096 0.00437 0.98335 0.0
C668 C 0.50078 0.97749 0.04876 0.0
C669 C 0.47235 0.95562 0.04799 0.0
C670 C 0.49186 0.98751 0.00592 0.0
C671 C 0.45467 0.95004 0.02575 0.0
C672 C 0.4812 -0.00095 0.96177 0.0
C673 C 0.53857 0.04125 0.96315 0.0
N674 N 0.46465 0.96592 0.00563 0.0
N675 N 0.52889 0.02535 0.98334 0.0
H676 H 0.49628 0.0729 0.53141 0.0
H677 H 0.46885 0.93734 0.44232 0.0
H678 H 0.46286 0.98605 0.56129 0.0
H679 H 0.57584 0.98149 0.44389 0.0
H680 H 0.45332 0.96244 0.48103 0.0
H681 H 0.51405 0.04689 0.49361 0.0
C682 C 0.49287 0.04836 0.52998 0.0
C683 C 0.47847 0.03142 0.54939 0.0
C684 C 0.4801 0.96656 0.47274 0.0
C685 C 0.49718 0.00211 0.50634 0.0
C686 C 0.48883 0.95252 0.45073 0.0
C687 C 0.52361 0.95746 0.44012 0.0
C688 C 0.50589 0.98634 0.48354 0.0
C689 C 0.54878 0.9771 0.45168 0.0
C690 C 0.50295 0.03366 0.50855 0.0
C691 C 0.47431 -0.00027 0.54674 0.0
N692 N 0.53925 0.99122 0.47269 0.0
N693 N 0.48311 0.98605 0.52538 0.0
H694 H 0.97673 0.99224 0.56273 0.0
H695 H 0.00614 0.00659 0.41917 0.0
H696 H 0.04787 0.93269 0.52128 0.0
H697 H 0.93163 0.06396 0.46003 0.0
H698 H 0.02251 0.97971 0.45655 0.0
H699 H 0.95988 0.01896 0.52534 0.0
C700 C 0.98865 0.98471 0.54574 0.0
C701 C 0.01372 0.96025 0.54507 0.0
C702 C 0.00262 -0.00179 0.45736 0.0
C703 C 0.99483 0.99077 0.50229 0.0
C704 C 0.99336 0.01361 0.43604 0.0
C705 C 0.96753 0.03752 0.43654 0.0
C706 C 0.98592 0.00681 0.47933 0.0
C707 C 0.95172 0.04564 0.45886 0.0
C708 C 0.9791 -1e-05 0.52441 0.0
C709 C 0.02841 0.95144 0.5226 0.0
N710 N 0.96114 0.03029 0.47937 0.0
N711 N 0.01881 0.96674 0.50211 0.0
H712 H 0.47929 0.50286 0.06483 0.0
H713 H 0.50777 0.48978 0.92104 0.0
H714 H 0.55123 0.56221 0.02362 0.0
H715 H 0.43548 0.43068 0.96221 0.0
H716 H 0.52433 0.5165 0.95848 0.0
H717 H 0.46253 0.47628 0.02737 0.0
C718 C 0.49142 0.51037 0.04788 0.0
C719 C 0.51666 0.53475 0.04731 0.0
C720 C 0.50489 0.49765 0.95934 0.0
C721 C 0.49784 0.5044 0.00442 0.0
C722 C 0.49551 0.48236 0.93798 0.0
C723 C 0.47025 0.45799 0.93855 0.0
C724 C 0.48885 0.4885 0.98141 0.0
C725 C 0.45511 0.44935 0.96097 0.0
C726 C 0.48192 0.49516 0.02651 0.0
C727 C 0.53162 0.54351 0.02487 0.0
N728 N 0.46461 0.46461 0.98149 0.0
N729 N 0.52204 0.52832 0.00433 0.0
H730 H 0.00854 0.49153 0.06521 0.0
H731 H 0.97988 0.50564 0.92153 0.0
H732 H 0.93709 0.4321 0.02367 0.0
H733 H 0.05171 0.56482 0.963 0.0
H734 H 0.96324 0.47875 0.95886 0.0
H735 H 0.02482 0.51868 0.02792 0.0
C736 C -0.00358 0.48412 0.04822 0.0
C737 C 0.97146 0.45955 0.04749 0.0
C738 C 0.98257 0.49767 0.95981 0.0
C739 C 0.98973 0.49056 0.00483 0.0
C740 C 0.99199 0.51307 0.93852 0.0
C741 C 0.0172 0.53747 0.9392 0.0
C742 C -0.00147 0.50674 0.98192 0.0
C743 C 0.03214 0.54611 0.96167 0.0
C744 C 0.00563 0.49966 0.02695 0.0
C745 C 0.95649 0.45093 0.02502 0.0
N746 N 0.02264 0.53072 0.98214 0.0
N747 N 0.96581 0.46645 0.00459 0.0
H748 H 0.0107 0.50766 0.56494 0.0
H749 H 0.98185 0.49015 0.42154 0.0
H750 H 0.93818 0.56531 0.52266 0.0
H751 H 0.05366 0.43199 0.46391 0.0
H752 H 0.96553 0.51806 0.45841 0.0
H753 H 0.02758 0.48012 0.528 0.0
C754 C -0.0015 0.51462 0.54785 0.0
C755 C 0.97301 0.53877 0.54683 0.0
C756 C 0.9848 0.49915 0.45966 0.0
C757 C 0.99194 0.50729 0.50456 0.0
C758 C 0.99404 0.48317 0.43863 0.0
C759 C 0.0191 0.45873 0.43971 0.0
C760 C 0.0008 0.49064 0.4819 0.0
C761 C 0.03416 0.45069 0.46229 0.0
C762 C 0.00805 0.49885 0.52678 0.0
C763 C 0.95797 0.54682 0.52425 0.0
N764 N 0.02482 0.46664 0.48249 0.0
N765 N 0.9676 0.53107 0.504 0.0
H766 H 0.55752 0.42511 0.52236 0.0
H767 H 0.43956 0.56217 0.46482 0.0
H768 H 0.4859 0.48405 0.564 0.0
H769 H 0.50964 0.50249 0.42273 0.0
H770 H 0.45682 0.53412 0.50139 0.0
H771 H 0.54034 0.45304 0.48565 0.0
C772 C 0.53803 0.44385 0.52375 0.0
C773 C 0.52308 0.45229 0.54624 0.0
C774 C 0.46851 0.52716 0.48419 0.0
C775 C 0.50348 0.48447 0.50434 0.0
C776 C 0.45873 0.54322 0.4633 0.0
C777 C 0.47322 0.53462 0.44072 0.0
C778 C 0.49295 0.50229 0.48251 0.0
C779 C 0.49788 0.50988 0.43979 0.0
C780 C 0.5283 0.45983 0.50279 0.0
C781 C 0.49804 0.47677 0.54702 0.0
N782 N 0.50693 0.49453 0.4604 0.0
N783 N 0.48907 0.49205 0.52637 0.0
loop_
_geom_bond_atom_site_label_1
_geom_bond_atom_site_label_2
_geom_bond_distance
_geom_bond_site_symmetry_2
_ccdc_geom_bond_type
In0 O1 2.294 . S
In0 O2 2.326 . S
In0 O6 2.266 . S
In0 O7 2.326 . S
In0 O8 2.266 . S
In0 O9 2.326 . S
In0 O11 2.294 . S
In0 O12 2.326 . S
O1 In0 2.294 . S
O1 C10 1.240 . S
O2 In0 2.326 . S
O2 C10 1.252 . S
C3 O6 1.252 . S
C3 O7 1.260 . S
C4 O11 1.240 . S
C4 O12 1.252 . S
C5 O8 1.252 . S
C5 O9 1.260 . S
O6 In0 2.266 . S
O6 C3 1.252 . S
O7 In0 2.326 . S
O7 C3 1.260 . S
O8 In0 2.266 . S
O8 C5 1.252 . S
O9 In0 2.326 . S
O9 C5 1.260 . S
C10 O1 1.240 . S
C10 O2 1.252 . S
O11 In0 2.294 . S
O11 C4 1.240 . S
O12 In0 2.326 . S
O12 C4 1.252 . S
In13 O14 2.294 . S
In13 O15 2.326 . S
In13 O19 2.266 . S
In13 O20 2.326 . S
In13 O21 2.266 . S
In13 O22 2.326 . S
In13 O24 2.294 . S
In13 O25 2.326 . S
O14 In13 2.294 . S
O14 C23 1.240 . S
O15 In13 2.326 . S
O15 C23 1.252 . S
C16 O19 1.252 . S
C16 O20 1.260 . S
C17 O24 1.240 . S
C17 O25 1.252 . S
C18 O21 1.252 . S
C18 O22 1.260 . S
O19 In13 2.266 . S
O19 C16 1.252 . S
O20 In13 2.326 . S
O20 C16 1.260 . S
O21 In13 2.266 . S
O21 C18 1.252 . S
O22 In13 2.326 . S
O22 C18 1.260 . S
C23 O14 1.240 . S
C23 O15 1.252 . S
O24 In13 2.294 . S
O24 C17 1.240 . S
O25 In13 2.326 . S
O25 C17 1.252 . S
In26 O27 2.294 . S
In26 O28 2.326 . S
In26 O32 2.266 . S
In26 O33 2.326 . S
In26 O34 2.266 . S
In26 O35 2.326 . S
In26 O37 2.294 . S
In26 O38 2.326 . S
O27 In26 2.294 . S
O27 C36 1.240 . S
O28 In26 2.326 . S
O28 C36 1.252 . S
C29 O32 1.252 . S
C29 O33 1.260 . S
C30 O37 1.240 . S
C30 O38 1.252 . S
C31 O34 1.252 . S
C31 O35 1.260 . S
O32 In26 2.266 . S
O32 C29 1.252 . S
O33 In26 2.326 . S
O33 C29 1.260 . S
O34 In26 2.266 . S
O34 C31 1.252 . S
O35 In26 2.326 . S
O35 C31 1.260 . S
C36 O27 1.240 . S
C36 O28 1.252 . S
O37 In26 2.294 . S
O37 C30 1.240 . S
O38 In26 2.326 . S
O38 C30 1.252 . S
In39 O40 2.294 . S
In39 O41 2.326 . S
In39 O45 2.266 . S
In39 O46 2.326 . S
In39 O47 2.266 . S
In39 O48 2.326 . S
In39 O50 2.294 . S
In39 O51 2.326 . S
O40 In39 2.294 . S
O40 C49 1.240 . S
O41 In39 2.326 . S
O41 C49 1.252 . S
C42 O45 1.252 . S
C42 O46 1.260 . S
C43 O50 1.240 . S
C43 O51 1.252 . S
C44 O47 1.252 . S
C44 O48 1.260 . S
O45 In39 2.266 . S
O45 C42 1.252 . S
O46 In39 2.326 . S
O46 C42 1.260 . S
O47 In39 2.266 . S
O47 C44 1.252 . S
O48 In39 2.326 . S
O48 C44 1.260 . S
C49 O40 1.240 . S
C49 O41 1.252 . S
O50 In39 2.294 . S
O50 C43 1.240 . S
O51 In39 2.326 . S
O51 C43 1.252 . S
In52 O53 2.294 . S
In52 O54 2.326 . S
In52 O58 2.266 . S
In52 O59 2.326 . S
In52 O60 2.266 . S
In52 O61 2.326 . S
In52 O63 2.294 . S
In52 O64 2.326 . S
O53 In52 2.294 . S
O53 C62 1.240 . S
O54 In52 2.326 . S
O54 C62 1.252 . S
C55 O58 1.252 . S
C55 O59 1.260 . S
C56 O63 1.240 . S
C56 O64 1.252 . S
C57 O60 1.252 . S
C57 O61 1.260 . S
O58 In52 2.266 . S
O58 C55 1.252 . S
O59 In52 2.326 . S
O59 C55 1.260 . S
O60 In52 2.266 . S
O60 C57 1.252 . S
O61 In52 2.326 . S
O61 C57 1.260 . S
C62 O53 1.240 . S
C62 O54 1.252 . S
O63 In52 2.294 . S
O63 C56 1.240 . S
O64 In52 2.326 . S
O64 C56 1.252 . S
In65 O66 2.294 . S
In65 O67 2.326 . S
In65 O71 2.266 . S
In65 O72 2.326 . S
In65 O73 2.266 . S
In65 O74 2.326 . S
In65 O76 2.294 . S
In65 O77 2.326 . S
O66 In65 2.294 . S
O66 C75 1.240 . S
O67 In65 2.326 . S
O67 C75 1.252 . S
C68 O71 1.252 . S
C68 O72 1.260 . S
C69 O76 1.240 . S
C69 O77 1.252 . S
C70 O73 1.252 . S
C70 O74 1.260 . S
O71 In65 2.266 . S
O71 C68 1.252 . S
O72 In65 2.326 . S
O72 C68 1.260 . S
O73 In65 2.266 . S
O73 C70 1.252 . S
O74 In65 2.326 . S
O74 C70 1.260 . S
C75 O66 1.240 . S
C75 O67 1.252 . S
O76 In65 2.294 . S
O76 C69 1.240 . S
O77 In65 2.326 . S
O77 C69 1.252 . S
In78 O79 2.294 . S
In78 O80 2.326 . S
In78 O84 2.266 . S
In78 O85 2.326 . S
In78 O86 2.266 . S
In78 O87 2.326 . S
In78 O89 2.294 . S
In78 O90 2.326 . S
O79 In78 2.294 . S
O79 C88 1.240 . S
O80 In78 2.326 . S
O80 C88 1.252 . S
C81 O84 1.252 . S
C81 O85 1.260 . S
C82 O89 1.240 . S
C82 O90 1.252 . S
C83 O86 1.252 . S
C83 O87 1.260 . S
O84 In78 2.266 . S
O84 C81 1.252 . S
O85 In78 2.326 . S
O85 C81 1.260 . S
O86 In78 2.266 . S
O86 C83 1.252 . S
O87 In78 2.326 . S
O87 C83 1.260 . S
C88 O79 1.240 . S
C88 O80 1.252 . S
O89 In78 2.294 . S
O89 C82 1.240 . S
O90 In78 2.326 . S
O90 C82 1.252 . S
In91 O92 2.294 . S
In91 O93 2.326 . S
In91 O97 2.266 . S
In91 O98 2.326 . S
In91 O99 2.266 . S
In91 O100 2.326 . S
In91 O102 2.294 . S
In91 O103 2.326 . S
O92 In91 2.294 . S
O92 C101 1.240 . S
O93 In91 2.326 . S
O93 C101 1.252 . S
C94 O97 1.252 . S
C94 O98 1.260 . S
C95 O102 1.240 . S
C95 O103 1.252 . S
C96 O99 1.252 . S
C96 O100 1.260 . S
O97 In91 2.266 . S
O97 C94 1.252 . S
O98 In91 2.326 . S
O98 C94 1.260 . S
O99 In91 2.266 . S
O99 C96 1.252 . S
O100 In91 2.326 . S
O100 C96 1.260 . S
C101 O92 1.240 . S
C101 O93 1.252 . S
O102 In91 2.294 . S
O102 C95 1.240 . S
O103 In91 2.326 . S
O103 C95 1.252 . S
In104 O105 2.294 . S
In104 O106 2.326 . S
In104 O110 2.266 . S
In104 O111 2.326 . S
In104 O112 2.266 . S
In104 O113 2.326 . S
In104 O115 2.294 . S
In104 O116 2.326 . S
O105 In104 2.294 . S
O105 C114 1.240 . S
O106 In104 2.326 . S
O106 C114 1.252 . S
C107 O110 1.252 . S
C107 O111 1.260 . S
C108 O115 1.240 . S
C108 O116 1.252 . S
C109 O112 1.252 . S
C109 O113 1.260 . S
O110 In104 2.266 . S
O110 C107 1.252 . S
O111 In104 2.326 . S
O111 C107 1.260 . S
O112 In104 2.266 . S
O112 C109 1.252 . S
O113 In104 2.326 . S
O113 C109 1.260 . S
C114 O105 1.240 . S
C114 O106 1.252 . S
O115 In104 2.294 . S
O115 C108 1.240 . S
O116 In104 2.326 . S
O116 C108 1.252 . S
In117 O118 2.294 . S
In117 O119 2.326 . S
In117 O123 2.266 . S
In117 O124 2.326 . S
In117 O125 2.266 . S
In117 O126 2.326 . S
In117 O128 2.294 . S
In117 O129 2.326 . S
O118 In117 2.294 . S
O118 C127 1.240 . S
O119 In117 2.326 . S
O119 C127 1.252 . S
C120 O123 1.252 . S
C120 O124 1.260 . S
C121 O128 1.240 . S
C121 O129 1.252 . S
C122 O125 1.252 . S
C122 O126 1.260 . S
O123 In117 2.266 . S
O123 C120 1.252 . S
O124 In117 2.326 . S
O124 C120 1.260 . S
O125 In117 2.266 . S
O125 C122 1.252 . S
O126 In117 2.326 . S
O126 C122 1.260 . S
C127 O118 1.240 . S
C127 O119 1.252 . S
O128 In117 2.294 . S
O128 C121 1.240 . S
O129 In117 2.326 . S
O129 C121 1.252 . S
In130 O131 2.294 . S
In130 O132 2.326 . S
In130 O136 2.266 . S
In130 O137 2.326 . S
In130 O138 2.266 . S
In130 O139 2.326 . S
In130 O141 2.294 . S
In130 O142 2.326 . S
O131 In130 2.294 . S
O131 C140 1.240 . S
O132 In130 2.326 . S
O132 C140 1.252 . S
C133 O136 1.252 . S
C133 O137 1.260 . S
C134 O141 1.240 . S
C134 O142 1.252 . S
C135 O138 1.252 . S
C135 O139 1.260 . S
O136 In130 2.266 . S
O136 C133 1.252 . S
O137 In130 2.326 . S
O137 C133 1.260 . S
O138 In130 2.266 . S
O138 C135 1.252 . S
O139 In130 2.326 . S
O139 C135 1.260 . S
C140 O131 1.240 . S
C140 O132 1.252 . S
O141 In130 2.294 . S
O141 C134 1.240 . S
O142 In130 2.326 . S
O142 C134 1.252 . S
In143 O144 2.294 . S
In143 O145 2.326 . S
In143 O149 2.266 . S
In143 O150 2.326 . S
In143 O151 2.266 . S
In143 O152 2.326 . S
In143 O154 2.294 . S
In143 O155 2.326 . S
O144 In143 2.294 . S
O144 C153 1.240 . S
O145 In143 2.326 . S
O145 C153 1.252 . S
C146 O149 1.252 . S
C146 O150 1.260 . S
C147 O154 1.240 . S
C147 O155 1.252 . S
C148 O151 1.252 . S
C148 O152 1.260 . S
O149 In143 2.266 . S
O149 C146 1.252 . S
O150 In143 2.326 . S
O150 C146 1.260 . S
O151 In143 2.266 . S
O151 C148 1.252 . S
O152 In143 2.326 . S
O152 C148 1.260 . S
C153 O144 1.240 . S
C153 O145 1.252 . S
O154 In143 2.294 . S
O154 C147 1.240 . S
O155 In143 2.326 . S
O155 C147 1.252 . S
In156 O157 2.294 . S
In156 O158 2.326 . S
In156 O162 2.266 . S
In156 O163 2.326 . S
In156 O164 2.266 . S
In156 O165 2.326 . S
In156 O167 2.294 . S
In156 O168 2.326 . S
O157 In156 2.294 . S
O157 C166 1.240 . S
O158 In156 2.326 . S
O158 C166 1.252 . S
C159 O162 1.252 . S
C159 O163 1.260 . S
C160 O167 1.240 . S
C160 O168 1.252 . S
C161 O164 1.252 . S
C161 O165 1.260 . S
O162 In156 2.266 . S
O162 C159 1.252 . S
O163 In156 2.326 . S
O163 C159 1.260 . S
O164 In156 2.266 . S
O164 C161 1.252 . S
O165 In156 2.326 . S
O165 C161 1.260 . S
C166 O157 1.240 . S
C166 O158 1.252 . S
O167 In156 2.294 . S
O167 C160 1.240 . S
O168 In156 2.326 . S
O168 C160 1.252 . S
In169 O170 2.294 . S
In169 O171 2.326 . S
In169 O175 2.266 . S
In169 O176 2.326 . S
In169 O177 2.266 . S
In169 O178 2.326 . S
In169 O180 2.294 . S
In169 O181 2.326 . S
O170 In169 2.294 . S
O170 C179 1.240 . S
O171 In169 2.326 . S
O171 C179 1.252 . S
C172 O175 1.252 . S
C172 O176 1.260 . S
C173 O180 1.240 . S
C173 O181 1.252 . S
C174 O177 1.252 . S
C174 O178 1.260 . S
O175 In169 2.266 . S
O175 C172 1.252 . S
O176 In169 2.326 . S
O176 C172 1.260 . S
O177 In169 2.266 . S
O177 C174 1.252 . S
O178 In169 2.326 . S
O178 C174 1.260 . S
C179 O170 1.240 . S
C179 O171 1.252 . S
O180 In169 2.294 . S
O180 C173 1.240 . S
O181 In169 2.326 . S
O181 C173 1.252 . S
In182 O183 2.294 . S
In182 O184 2.326 . S
In182 O188 2.266 . S
In182 O189 2.326 . S
In182 O190 2.266 . S
In182 O191 2.326 . S
In182 O193 2.294 . S
In182 O194 2.326 . S
O183 In182 2.294 . S
O183 C192 1.240 . S
O184 In182 2.326 . S
O184 C192 1.252 . S
C185 O188 1.252 . S
C185 O189 1.260 . S
C186 O193 1.240 . S
C186 O194 1.252 . S
C187 O190 1.252 . S
C187 O191 1.260 . S
O188 In182 2.266 . S
O188 C185 1.252 . S
O189 In182 2.326 . S
O189 C185 1.260 . S
O190 In182 2.266 . S
O190 C187 1.252 . S
O191 In182 2.326 . S
O191 C187 1.260 . S
C192 O183 1.240 . S
C192 O184 1.252 . S
O193 In182 2.294 . S
O193 C186 1.240 . S
O194 In182 2.326 . S
O194 C186 1.252 . S
In195 O196 2.294 . S
In195 O197 2.326 . S
In195 O201 2.266 . S
In195 O202 2.326 . S
In195 O203 2.266 . S
In195 O204 2.326 . S
In195 O206 2.294 . S
In195 O207 2.326 . S
O196 In195 2.294 . S
O196 C205 1.240 . S
O197 In195 2.326 . S
O197 C205 1.252 . S
C198 O201 1.252 . S
C198 O202 1.260 . S
C199 O206 1.240 . S
C199 O207 1.252 . S
C200 O203 1.252 . S
C200 O204 1.260 . S
O201 In195 2.266 . S
O201 C198 1.252 . S
O202 In195 2.326 . S
O202 C198 1.260 . S
O203 In195 2.266 . S
O203 C200 1.252 . S
O204 In195 2.326 . S
O204 C200 1.260 . S
C205 O196 1.240 . S
C205 O197 1.252 . S
O206 In195 2.294 . S
O206 C199 1.240 . S
O207 In195 2.326 . S
O207 C199 1.252 . S
H208 C214 0.930 . S
H209 C218 0.930 . S
H210 C223 0.929 1_545 S
H211 C221 0.929 1_565 S
H212 C216 0.929 . S
H213 C222 0.929 . S
C214 H208 0.930 . S
C214 C215 1.367 . S
C214 C222 1.378 . S
C215 C214 1.367 . S
C215 C223 1.433 . S
C216 H212 0.929 . S
C216 C218 1.378 . S
C216 C220 1.350 . S
C217 C220 1.463 1_565 S
C217 C222 1.350 . S
C217 N225 1.427 1_565 S
C218 H209 0.930 . S
C218 C216 1.378 . S
C218 C219 1.367 . S
C219 C218 1.367 . S
C219 C221 1.433 . S
C220 C216 1.350 . S
C220 C217 1.463 1_545 S
C220 N224 1.427 1_545 S
C221 H211 0.929 1_545 S
C221 C219 1.433 . S
C221 N224 1.384 1_545 S
C222 H213 0.929 . S
C222 C214 1.378 . S
C222 C217 1.350 . S
C223 H210 0.929 1_565 S
C223 C215 1.433 . S
C223 N225 1.384 1_565 S
N224 C220 1.427 1_565 S
N224 C221 1.384 1_565 S
N225 C217 1.427 1_545 S
N225 C223 1.384 1_545 S
H226 C232 0.930 . S
H227 C236 0.930 . S
H228 C241 0.929 . S
H229 C239 0.929 . S
H230 C234 0.929 1_565 S
H231 C240 0.929 1_545 S
C232 H226 0.930 . S
C232 C233 1.367 . S
C232 C240 1.378 . S
C233 C232 1.367 . S
C233 C241 1.433 . S
C234 H230 0.929 1_545 S
C234 C236 1.378 . S
C234 C238 1.350 . S
C235 C238 1.463 1_565 S
C235 C240 1.350 . S
C235 N243 1.427 . S
C236 H227 0.930 . S
C236 C234 1.378 . S
C236 C237 1.367 . S
C237 C236 1.367 . S
C237 C239 1.433 . S
C238 C234 1.350 . S
C238 C235 1.463 1_545 S
C238 N242 1.427 . S
C239 H229 0.929 . S
C239 C237 1.433 . S
C239 N242 1.384 . S
C240 H231 0.929 1_565 S
C240 C232 1.378 . S
C240 C235 1.350 . S
C241 H228 0.929 . S
C241 C233 1.433 . S
C241 N243 1.384 . S
N242 C238 1.427 . S
N242 C239 1.384 . S
N243 C235 1.427 . S
N243 C241 1.384 . S
H244 C250 0.937 . S
H245 C254 0.937 . S
H246 C259 0.929 . S
H247 C257 0.929 . S
H248 C252 0.929 . S
H249 C258 0.929 . S
C250 H244 0.937 . S
C250 C251 1.367 . S
C250 C258 1.378 1_565 S
C251 C250 1.367 . S
C251 C259 1.433 . S
C252 H248 0.929 . S
C252 C254 1.378 1_565 S
C252 C256 1.350 1_565 S
C253 C256 1.463 1_565 S
C253 C258 1.350 1_565 S
C253 N261 1.427 . S
C254 H245 0.937 . S
C254 C252 1.378 1_545 S
C254 C255 1.367 . S
C255 C254 1.367 . S
C255 C257 1.433 . S
C256 C252 1.350 1_545 S
C256 C253 1.463 1_545 S
C256 N260 1.427 . S
C257 H247 0.929 . S
C257 C255 1.433 . S
C257 N260 1.384 . S
C258 H249 0.929 . S
C258 C250 1.378 1_545 S
C258 C253 1.350 1_545 S
C259 H246 0.929 . S
C259 C251 1.433 . S
C259 N261 1.384 . S
N260 C256 1.427 . S
N260 C257 1.384 . S
N261 C253 1.427 . S
N261 C259 1.384 . S
H262 C268 0.930 . S
H263 C272 0.930 . S
H264 C277 0.929 1_545 S
H265 C275 0.929 1_565 S
H266 C270 0.929 . S
H267 C276 0.929 . S
C268 H262 0.930 . S
C268 C269 1.367 . S
C268 C276 1.378 . S
C269 C268 1.367 . S
C269 C277 1.433 . S
C270 H266 0.929 . S
C270 C272 1.378 . S
C270 C274 1.350 . S
C271 C274 1.463 1_565 S
C271 C276 1.350 . S
C271 N279 1.427 1_565 S
C272 H263 0.930 . S
C272 C270 1.378 . S
C272 C273 1.367 . S
C273 C272 1.367 . S
C273 C275 1.433 . S
C274 C270 1.350 . S
C274 C271 1.463 1_545 S
C274 N278 1.427 1_545 S
C275 H265 0.929 1_545 S
C275 C273 1.433 . S
C275 N278 1.384 1_545 S
C276 H267 0.929 . S
C276 C268 1.378 . S
C276 C271 1.350 . S
C277 H264 0.929 1_565 S
C277 C269 1.433 . S
C277 N279 1.384 1_565 S
N278 C274 1.427 1_565 S
N278 C275 1.384 1_565 S
N279 C271 1.427 1_545 S
N279 C277 1.384 1_545 S
H280 C286 0.930 . S
H281 C290 0.930 . S
H282 C295 0.929 . S
H283 C293 0.929 . S
H284 C288 0.929 . S
H285 C294 0.929 . S
C286 H280 0.930 . S
C286 C287 1.367 . S
C286 C294 1.378 . S
C287 C286 1.367 . S
C287 C295 1.433 . S
C288 H284 0.929 . S
C288 C290 1.378 . S
C288 C292 1.350 . S
C289 C292 1.463 . S
C289 C294 1.350 . S
C289 N297 1.427 . S
C290 H281 0.930 . S
C290 C288 1.378 . S
C290 C291 1.367 . S
C291 C290 1.367 . S
C291 C293 1.433 . S
C292 C288 1.350 . S
C292 C289 1.463 . S
C292 N296 1.427 . S
C293 H283 0.929 . S
C293 C291 1.433 . S
C293 N296 1.384 . S
C294 H285 0.929 . S
C294 C286 1.378 . S
C294 C289 1.350 . S
C295 H282 0.929 . S
C295 C287 1.433 . S
C295 N297 1.384 . S
N296 C292 1.427 . S
N296 C293 1.384 . S
N297 C289 1.427 . S
N297 C295 1.384 . S
H298 C304 0.930 . S
H299 C308 0.930 . S
H300 C313 0.929 . S
H301 C311 0.929 . S
H302 C306 0.929 . S
H303 C312 0.929 . S
C304 H298 0.930 . S
C304 C305 1.367 . S
C304 C312 1.378 . S
C305 C304 1.367 . S
C305 C313 1.433 . S
C306 H302 0.929 . S
C306 C308 1.378 . S
C306 C310 1.350 . S
C307 C310 1.463 . S
C307 C312 1.350 . S
C307 N315 1.427 . S
C308 H299 0.930 . S
C308 C306 1.378 . S
C308 C309 1.367 . S
C309 C308 1.367 . S
C309 C311 1.433 . S
C310 C306 1.350 . S
C310 C307 1.463 . S
C310 N314 1.427 . S
C311 H301 0.929 . S
C311 C309 1.433 . S
C311 N314 1.384 . S
C312 H303 0.929 . S
C312 C304 1.378 . S
C312 C307 1.350 . S
C313 H300 0.929 . S
C313 C305 1.433 . S
C313 N315 1.384 . S
N314 C310 1.427 . S
N314 C311 1.384 . S
N315 C307 1.427 . S
N315 C313 1.384 . S
H316 C322 0.930 . S
H317 C326 0.930 . S
H318 C331 0.929 . S
H319 C329 0.929 . S
H320 C324 0.929 . S
H321 C330 0.929 . S
C322 H316 0.930 . S
C322 C323 1.367 . S
C322 C330 1.378 . S
C323 C322 1.367 . S
C323 C331 1.433 . S
C324 H320 0.929 . S
C324 C326 1.378 . S
C324 C328 1.350 . S
C325 C328 1.463 . S
C325 C330 1.350 . S
C325 N333 1.427 . S
C326 H317 0.930 . S
C326 C324 1.378 . S
C326 C327 1.367 . S
C327 C326 1.367 . S
C327 C329 1.433 . S
C328 C324 1.350 . S
C328 C325 1.463 . S
C328 N332 1.427 . S
C329 H319 0.929 . S
C329 C327 1.433 . S
C329 N332 1.384 . S
C330 H321 0.929 . S
C330 C322 1.378 . S
C330 C325 1.350 . S
C331 H318 0.929 . S
C331 C323 1.433 . S
C331 N333 1.384 . S
N332 C328 1.427 . S
N332 C329 1.384 . S
N333 C325 1.427 . S
N333 C331 1.384 . S
H334 C340 0.930 . S
H335 C344 0.930 . S
H336 C349 0.929 . S
H337 C347 0.929 . S
H338 C342 0.929 . S
H339 C348 0.929 . S
C340 H334 0.930 . S
C340 C341 1.367 . S
C340 C348 1.378 . S
C341 C340 1.367 . S
C341 C349 1.433 . S
C342 H338 0.929 . S
C342 C344 1.378 . S
C342 C346 1.350 . S
C343 C346 1.463 . S
C343 C348 1.350 . S
C343 N351 1.427 . S
C344 H335 0.930 . S
C344 C342 1.378 . S
C344 C345 1.367 . S
C345 C344 1.367 . S
C345 C347 1.433 . S
C346 C342 1.350 . S
C346 C343 1.463 . S
C346 N350 1.427 . S
C347 H337 0.929 . S
C347 C345 1.433 . S
C347 N350 1.384 . S
C348 H339 0.929 . S
C348 C340 1.378 . S
C348 C343 1.350 . S
C349 H336 0.929 . S
C349 C341 1.433 . S
C349 N351 1.384 . S
N350 C346 1.427 . S
N350 C347 1.384 . S
N351 C343 1.427 . S
N351 C349 1.384 . S
H352 C358 0.930 . S
H353 C362 0.930 . S
H354 C367 0.929 . S
H355 C365 0.929 . S
H356 C360 0.929 . S
H357 C366 0.929 . S
C358 H352 0.930 . S
C358 C359 1.367 . S
C358 C366 1.378 . S
C359 C358 1.367 . S
C359 C367 1.433 1_655 S
C360 H356 0.929 . S
C360 C362 1.378 . S
C360 C364 1.350 . S
C361 C364 1.463 1_655 S
C361 C366 1.350 . S
C361 N369 1.427 1_655 S
C362 H353 0.930 . S
C362 C360 1.378 . S
C362 C363 1.367 . S
C363 C362 1.367 . S
C363 C365 1.433 1_455 S
C364 C360 1.350 . S
C364 C361 1.463 1_455 S
C364 N368 1.427 1_455 S
C365 H355 0.929 . S
C365 C363 1.433 1_655 S
C365 N368 1.384 . S
C366 H357 0.929 . S
C366 C358 1.378 . S
C366 C361 1.350 . S
C367 H354 0.929 . S
C367 C359 1.433 1_455 S
C367 N369 1.384 . S
N368 C364 1.427 1_655 S
N368 C365 1.384 . S
N369 C361 1.427 1_455 S
N369 C367 1.384 . S
H370 C376 0.930 . S
H371 C380 0.930 . S
H372 C385 0.929 . S
H373 C383 0.929 . S
H374 C378 0.929 . S
H375 C384 0.929 . S
C376 H370 0.930 . S
C376 C377 1.367 . S
C376 C384 1.378 . S
C377 C376 1.367 . S
C377 C385 1.433 . S
C378 H374 0.929 . S
C378 C380 1.378 . S
C378 C382 1.350 . S
C379 C382 1.463 . S
C379 C384 1.350 . S
C379 N387 1.427 . S
C380 H371 0.930 . S
C380 C378 1.378 . S
C380 C381 1.367 . S
C381 C380 1.367 . S
C381 C383 1.433 . S
C382 C378 1.350 . S
C382 C379 1.463 . S
C382 N386 1.427 . S
C383 H373 0.929 . S
C383 C381 1.433 . S
C383 N386 1.384 . S
C384 H375 0.929 . S
C384 C376 1.378 . S
C384 C379 1.350 . S
C385 H372 0.929 . S
C385 C377 1.433 . S
C385 N387 1.384 . S
N386 C382 1.427 . S
N386 C383 1.384 . S
N387 C379 1.427 . S
N387 C385 1.384 . S
H388 C394 0.930 . S
H389 C398 0.930 . S
H390 C403 0.929 . S
H391 C401 0.929 . S
H392 C396 0.929 . S
H393 C402 0.929 . S
C394 H388 0.930 . S
C394 C395 1.367 1_655 S
C394 C402 1.378 . S
C395 C394 1.367 1_455 S
C395 C403 1.433 . S
C396 H392 0.929 . S
C396 C398 1.378 . S
C396 C400 1.350 1_455 S
C397 C400 1.463 1_455 S
C397 C402 1.350 1_455 S
C397 N405 1.427 . S
C398 H389 0.930 . S
C398 C396 1.378 . S
C398 C399 1.367 1_455 S
C399 C398 1.367 1_655 S
C399 C401 1.433 . S
C400 C396 1.350 1_655 S
C400 C397 1.463 1_655 S
C400 N404 1.427 . S
C401 H391 0.929 . S
C401 C399 1.433 . S
C401 N404 1.384 . S
C402 H393 0.929 . S
C402 C394 1.378 . S
C402 C397 1.350 1_655 S
C403 H390 0.929 . S
C403 C395 1.433 . S
C403 N405 1.384 . S
N404 C400 1.427 . S
N404 C401 1.384 . S
N405 C397 1.427 . S
N405 C403 1.384 . S
H406 C412 0.930 . S
H407 C416 0.930 . S
H408 C421 0.929 . S
H409 C419 0.929 . S
H410 C414 0.929 . S
H411 C420 0.929 . S
C412 H406 0.930 . S
C412 C413 1.367 . S
C412 C420 1.378 . S
C413 C412 1.367 . S
C413 C421 1.433 . S
C414 H410 0.929 . S
C414 C416 1.378 . S
C414 C418 1.350 . S
C415 C418 1.463 . S
C415 C420 1.350 . S
C415 N423 1.427 . S
C416 H407 0.930 . S
C416 C414 1.378 . S
C416 C417 1.367 . S
C417 C416 1.367 . S
C417 C419 1.433 . S
C418 C414 1.350 . S
C418 C415 1.463 . S
C418 N422 1.427 . S
C419 H409 0.929 . S
C419 C417 1.433 . S
C419 N422 1.384 . S
C420 H411 0.929 . S
C420 C412 1.378 . S
C420 C415 1.350 . S
C421 H408 0.929 . S
C421 C413 1.433 . S
C421 N423 1.384 . S
N422 C418 1.427 . S
N422 C419 1.384 . S
N423 C415 1.427 . S
N423 C421 1.384 . S
H424 C430 0.930 . S
H425 C434 0.930 . S
H426 C439 0.929 . S
H427 C437 0.929 . S
H428 C432 0.929 . S
H429 C438 0.929 . S
C430 H424 0.930 . S
C430 C431 1.367 . S
C430 C438 1.378 . S
C431 C430 1.367 . S
C431 C439 1.433 . S
C432 H428 0.929 . S
C432 C434 1.378 . S
C432 C436 1.350 . S
C433 C436 1.463 . S
C433 C438 1.350 . S
C433 N441 1.427 . S
C434 H425 0.930 . S
C434 C432 1.378 . S
C434 C435 1.367 . S
C435 C434 1.367 . S
C435 C437 1.433 . S
C436 C432 1.350 . S
C436 C433 1.463 . S
C436 N440 1.427 . S
C437 H427 0.929 . S
C437 C435 1.433 . S
C437 N440 1.384 . S
C438 H429 0.929 . S
C438 C430 1.378 . S
C438 C433 1.350 . S
C439 H426 0.929 . S
C439 C431 1.433 . S
C439 N441 1.384 . S
N440 C436 1.427 . S
N440 C437 1.384 . S
N441 C433 1.427 . S
N441 C439 1.384 . S
H442 C448 0.930 . S
H443 C452 0.930 . S
H444 C457 0.929 . S
H445 C455 0.929 . S
H446 C450 0.929 . S
H447 C456 0.929 . S
C448 H442 0.930 . S
C448 C449 1.367 1_655 S
C448 C456 1.378 . S
C449 C448 1.367 1_455 S
C449 C457 1.433 . S
C450 H446 0.929 . S
C450 C452 1.378 . S
C450 C454 1.350 1_455 S
C451 C454 1.463 1_455 S
C451 C456 1.350 1_455 S
C451 N459 1.427 . S
C452 H443 0.930 . S
C452 C450 1.378 . S
C452 C453 1.367 1_455 S
C453 C452 1.367 1_655 S
C453 C455 1.433 . S
C454 C450 1.350 1_655 S
C454 C451 1.463 1_655 S
C454 N458 1.427 . S
C455 H445 0.929 . S
C455 C453 1.433 . S
C455 N458 1.384 . S
C456 H447 0.929 . S
C456 C448 1.378 . S
C456 C451 1.350 1_655 S
C457 H444 0.929 . S
C457 C449 1.433 . S
C457 N459 1.384 . S
N458 C454 1.427 . S
N458 C455 1.384 . S
N459 C451 1.427 . S
N459 C457 1.384 . S
H460 C466 0.930 . S
H461 C470 0.930 . S
H462 C475 0.929 . S
H463 C473 0.929 . S
H464 C468 0.929 . S
H465 C474 0.929 . S
C466 H460 0.930 . S
C466 C467 1.367 . S
C466 C474 1.378 . S
C467 C466 1.367 . S
C467 C475 1.433 . S
C468 H464 0.929 . S
C468 C470 1.378 . S
C468 C472 1.350 . S
C469 C472 1.463 . S
C469 C474 1.350 . S
C469 N477 1.427 . S
C470 H461 0.930 . S
C470 C468 1.378 . S
C470 C471 1.367 . S
C471 C470 1.367 . S
C471 C473 1.433 . S
C472 C468 1.350 . S
C472 C469 1.463 . S
C472 N476 1.427 . S
C473 H463 0.929 . S
C473 C471 1.433 . S
C473 N476 1.384 . S
C474 H465 0.929 . S
C474 C466 1.378 . S
C474 C469 1.350 . S
C475 H462 0.929 . S
C475 C467 1.433 . S
C475 N477 1.384 . S
N476 C472 1.427 . S
N476 C473 1.384 . S
N477 C469 1.427 . S
N477 C475 1.384 . S
H478 C484 0.930 . S
H479 C488 0.930 . S
H480 C493 0.929 . S
H481 C491 0.929 . S
H482 C486 0.929 . S
H483 C492 0.929 . S
C484 H478 0.930 . S
C484 C485 1.367 . S
C484 C492 1.378 . S
C485 C484 1.367 . S
C485 C493 1.433 1_455 S
C486 H482 0.929 . S
C486 C488 1.378 . S
C486 C490 1.350 . S
C487 C490 1.463 1_455 S
C487 C492 1.350 . S
C487 N495 1.427 1_455 S
C488 H479 0.930 . S
C488 C486 1.378 . S
C488 C489 1.367 . S
C489 C488 1.367 . S
C489 C491 1.433 1_655 S
C490 C486 1.350 . S
C490 C487 1.463 1_655 S
C490 N494 1.427 1_655 S
C491 H481 0.929 . S
C491 C489 1.433 1_455 S
C491 N494 1.384 . S
C492 H483 0.929 . S
C492 C484 1.378 . S
C492 C487 1.350 . S
C493 H480 0.929 . S
C493 C485 1.433 1_655 S
C493 N495 1.384 . S
N494 C490 1.427 1_455 S
N494 C491 1.384 . S
N495 C487 1.427 1_655 S
N495 C493 1.384 . S
H496 C502 0.930 . S
H497 C506 0.930 . S
H498 C511 0.929 . S
H499 C509 0.929 . S
H500 C504 0.929 . S
H501 C510 0.929 . S
C502 H496 0.930 . S
C502 C503 1.367 . S
C502 C510 1.378 . S
C503 C502 1.367 . S
C503 C511 1.433 . S
C504 H500 0.929 . S
C504 C506 1.378 . S
C504 C508 1.350 . S
C505 C508 1.463 1_455 S
C505 C510 1.350 . S
C505 N513 1.427 . S
C506 H497 0.930 . S
C506 C504 1.378 . S
C506 C507 1.367 . S
C507 C506 1.367 . S
C507 C509 1.433 . S
C508 C504 1.350 . S
C508 C505 1.463 1_655 S
C508 N512 1.427 . S
C509 H499 0.929 . S
C509 C507 1.433 . S
C509 N512 1.384 . S
C510 H501 0.929 . S
C510 C502 1.378 . S
C510 C505 1.350 . S
C511 H498 0.929 . S
C511 C503 1.433 . S
C511 N513 1.384 . S
N512 C508 1.427 . S
N512 C509 1.384 . S
N513 C505 1.427 . S
N513 C511 1.384 . S
H514 C520 0.930 . S
H515 C524 0.930 . S
H516 C529 0.929 . S
H517 C527 0.929 . S
H518 C522 0.929 . S
H519 C528 0.929 . S
C520 H514 0.930 . S
C520 C521 1.367 . S
C520 C528 1.378 . S
C521 C520 1.367 . S
C521 C529 1.433 . S
C522 H518 0.929 . S
C522 C524 1.378 . S
C522 C526 1.350 . S
C523 C526 1.463 . S
C523 C528 1.350 . S
C523 N531 1.427 . S
C524 H515 0.930 . S
C524 C522 1.378 . S
C524 C525 1.367 . S
C525 C524 1.367 . S
C525 C527 1.433 . S
C526 C522 1.350 . S
C526 C523 1.463 . S
C526 N530 1.427 . S
C527 H517 0.929 . S
C527 C525 1.433 . S
C527 N530 1.384 . S
C528 H519 0.929 . S
C528 C520 1.378 . S
C528 C523 1.350 . S
C529 H516 0.929 . S
C529 C521 1.433 . S
C529 N531 1.384 . S
N530 C526 1.427 . S
N530 C527 1.384 . S
N531 C523 1.427 . S
N531 C529 1.384 . S
H532 C538 0.930 . S
H533 C542 0.930 . S
H534 C547 0.929 . S
H535 C545 0.929 . S
H536 C540 0.929 . S
H537 C546 0.929 . S
C538 H532 0.930 . S
C538 C539 1.367 . S
C538 C546 1.378 . S
C539 C538 1.367 . S
C539 C547 1.433 . S
C540 H536 0.929 . S
C540 C542 1.378 . S
C540 C544 1.350 . S
C541 C544 1.463 . S
C541 C546 1.350 . S
C541 N549 1.427 . S
C542 H533 0.930 . S
C542 C540 1.378 . S
C542 C543 1.367 . S
C543 C542 1.367 . S
C543 C545 1.433 . S
C544 C540 1.350 . S
C544 C541 1.463 . S
C544 N548 1.427 . S
C545 H535 0.929 . S
C545 C543 1.433 . S
C545 N548 1.384 . S
C546 H537 0.929 . S
C546 C538 1.378 . S
C546 C541 1.350 . S
C547 H534 0.929 . S
C547 C539 1.433 . S
C547 N549 1.384 . S
N548 C544 1.427 . S
N548 C545 1.384 . S
N549 C541 1.427 . S
N549 C547 1.384 . S
H550 C556 0.930 . S
H551 C560 0.930 . S
H552 C565 0.929 . S
H553 C563 0.929 . S
H554 C558 0.929 . S
H555 C564 0.929 . S
C556 H550 0.930 . S
C556 C557 1.367 . S
C556 C564 1.378 . S
C557 C556 1.367 . S
C557 C565 1.433 1_455 S
C558 H554 0.929 . S
C558 C560 1.378 . S
C558 C562 1.350 . S
C559 C562 1.463 1_455 S
C559 C564 1.350 . S
C559 N567 1.427 1_455 S
C560 H551 0.930 . S
C560 C558 1.378 . S
C560 C561 1.367 . S
C561 C560 1.367 . S
C561 C563 1.433 1_655 S
C562 C558 1.350 . S
C562 C559 1.463 1_655 S
C562 N566 1.427 1_655 S
C563 H553 0.929 . S
C563 C561 1.433 1_455 S
C563 N566 1.384 . S
C564 H555 0.929 . S
C564 C556 1.378 . S
C564 C559 1.350 . S
C565 H552 0.929 . S
C565 C557 1.433 1_655 S
C565 N567 1.384 . S
N566 C562 1.427 1_455 S
N566 C563 1.384 . S
N567 C559 1.427 1_655 S
N567 C565 1.384 . S
H568 C574 0.930 . S
H569 C578 0.930 . S
H570 C583 0.929 . S
H571 C581 0.929 . S
H572 C576 0.929 . S
H573 C582 0.929 . S
C574 H568 0.930 . S
C574 C575 1.367 1_655 S
C574 C582 1.378 . S
C575 C574 1.367 1_455 S
C575 C583 1.433 . S
C576 H572 0.929 . S
C576 C578 1.378 . S
C576 C580 1.350 1_455 S
C577 C580 1.463 1_455 S
C577 C582 1.350 1_455 S
C577 N585 1.427 . S
C578 H569 0.930 . S
C578 C576 1.378 . S
C578 C579 1.367 1_455 S
C579 C578 1.367 1_655 S
C579 C581 1.433 . S
C580 C576 1.350 1_655 S
C580 C577 1.463 1_655 S
C580 N584 1.427 . S
C581 H571 0.929 . S
C581 C579 1.433 . S
C581 N584 1.384 . S
C582 H573 0.929 . S
C582 C574 1.378 . S
C582 C577 1.350 1_655 S
C583 H570 0.929 . S
C583 C575 1.433 . S
C583 N585 1.384 . S
N584 C580 1.427 . S
N584 C581 1.384 . S
N585 C577 1.427 . S
N585 C583 1.384 . S
H586 C592 0.930 . S
H587 C596 0.930 . S
H588 C601 0.929 . S
H589 C599 0.929 . S
H590 C594 0.929 . S
H591 C600 0.929 . S
C592 H586 0.930 . S
C592 C593 1.367 . S
C592 C600 1.378 . S
C593 C592 1.367 . S
C593 C601 1.433 . S
C594 H590 0.929 . S
C594 C596 1.378 . S
C594 C598 1.350 . S
C595 C598 1.463 . S
C595 C600 1.350 . S
C595 N603 1.427 . S
C596 H587 0.930 . S
C596 C594 1.378 . S
C596 C597 1.367 . S
C597 C596 1.367 . S
C597 C599 1.433 . S
C598 C594 1.350 . S
C598 C595 1.463 . S
C598 N602 1.427 . S
C599 H589 0.929 . S
C599 C597 1.433 . S
C599 N602 1.384 . S
C600 H591 0.929 . S
C600 C592 1.378 . S
C600 C595 1.350 . S
C601 H588 0.929 . S
C601 C593 1.433 . S
C601 N603 1.384 . S
N602 C598 1.427 . S
N602 C599 1.384 . S
N603 C595 1.427 . S
N603 C601 1.384 . S
H604 C610 0.930 . S
H605 C614 0.930 . S
H606 C619 0.929 . S
H607 C617 0.929 . S
H608 C612 0.929 . S
H609 C618 0.929 . S
C610 H604 0.930 . S
C610 C611 1.367 . S
C610 C618 1.378 . S
C611 C610 1.367 . S
C611 C619 1.433 . S
C612 H608 0.929 . S
C612 C614 1.378 . S
C612 C616 1.350 . S
C613 C616 1.463 . S
C613 C618 1.350 . S
C613 N621 1.427 . S
C614 H605 0.930 . S
C614 C612 1.378 . S
C614 C615 1.367 . S
C615 C614 1.367 . S
C615 C617 1.433 . S
C616 C612 1.350 . S
C616 C613 1.463 . S
C616 N620 1.427 . S
C617 H607 0.929 . S
C617 C615 1.433 . S
C617 N620 1.384 . S
C618 H609 0.929 . S
C618 C610 1.378 . S
C618 C613 1.350 . S
C619 H606 0.929 . S
C619 C611 1.433 . S
C619 N621 1.384 . S
N620 C616 1.427 . S
N620 C617 1.384 . S
N621 C613 1.427 . S
N621 C619 1.384 . S
H622 C628 0.930 . S
H623 C632 0.930 . S
H624 C637 0.929 . S
H625 C635 0.929 . S
H626 C630 0.929 . S
H627 C636 0.929 . S
C628 H622 0.930 . S
C628 C629 1.367 1_655 S
C628 C636 1.378 . S
C629 C628 1.367 1_455 S
C629 C637 1.433 . S
C630 H626 0.929 . S
C630 C632 1.378 . S
C630 C634 1.350 1_455 S
C631 C634 1.463 1_455 S
C631 C636 1.350 1_455 S
C631 N639 1.427 . S
C632 H623 0.930 . S
C632 C630 1.378 . S
C632 C633 1.367 1_455 S
C633 C632 1.367 1_655 S
C633 C635 1.433 . S
C634 C630 1.350 1_655 S
C634 C631 1.463 1_655 S
C634 N638 1.427 . S
C635 H625 0.929 . S
C635 C633 1.433 . S
C635 N638 1.384 . S
C636 H627 0.929 . S
C636 C628 1.378 . S
C636 C631 1.350 1_655 S
C637 H624 0.929 . S
C637 C629 1.433 . S
C637 N639 1.384 . S
N638 C634 1.427 . S
N638 C635 1.384 . S
N639 C631 1.427 . S
N639 C637 1.384 . S
H640 C646 0.930 . S
H641 C650 0.930 . S
H642 C655 0.929 . S
H643 C653 0.929 . S
H644 C648 0.929 1_565 S
H645 C654 0.929 1_545 S
C646 H640 0.930 . S
C646 C647 1.367 . S
C646 C654 1.378 . S
C647 C646 1.367 . S
C647 C655 1.433 1_655 S
C648 H644 0.929 1_545 S
C648 C650 1.378 . S
C648 C652 1.350 . S
C649 C652 1.463 1_666 S
C649 C654 1.350 . S
C649 N657 1.427 1_655 S
C650 H641 0.930 . S
C650 C648 1.378 . S
C650 C651 1.367 . S
C651 C650 1.367 . S
C651 C653 1.433 1_455 S
C652 C648 1.350 . S
C652 C649 1.463 1_444 S
C652 N656 1.427 1_455 S
C653 H643 0.929 . S
C653 C651 1.433 1_655 S
C653 N656 1.384 . S
C654 H645 0.929 1_565 S
C654 C646 1.378 . S
C654 C649 1.350 . S
C655 H642 0.929 . S
C655 C647 1.433 1_455 S
C655 N657 1.384 . S
N656 C652 1.427 1_655 S
N656 C653 1.384 . S
N657 C649 1.427 1_455 S
N657 C655 1.384 . S
H658 C664 0.930 . S
H659 C668 0.930 . S
H660 C673 0.929 . S
H661 C671 0.929 . S
H662 C666 0.929 . S
H663 C672 0.929 . S
C664 H658 0.930 . S
C664 C665 1.367 . S
C664 C672 1.378 1_545 S
C665 C664 1.367 . S
C665 C673 1.433 . S
C666 H662 0.929 . S
C666 C668 1.378 1_545 S
C666 C670 1.350 1_545 S
C667 C670 1.463 1_546 S
C667 C672 1.350 1_545 S
C667 N675 1.427 . S
C668 H659 0.930 . S
C668 C666 1.378 1_565 S
C668 C669 1.367 . S
C669 C668 1.367 . S
C669 C671 1.433 . S
C670 C666 1.350 1_565 S
C670 C667 1.463 1_564 S
C670 N674 1.427 . S
C671 H661 0.929 . S
C671 C669 1.433 . S
C671 N674 1.384 . S
C672 H663 0.929 . S
C672 C664 1.378 1_565 S
C672 C667 1.350 1_565 S
C673 H660 0.929 . S
C673 C665 1.433 . S
C673 N675 1.384 . S
N674 C670 1.427 . S
N674 C671 1.384 . S
N675 C667 1.427 . S
N675 C673 1.384 . S
H676 C682 0.930 . S
H677 C686 0.930 . S
H678 C691 0.929 . S
H679 C689 0.929 . S
H680 C684 0.929 . S
H681 C690 0.929 . S
C682 H676 0.930 . S
C682 C683 1.367 . S
C682 C690 1.378 . S
C683 C682 1.367 . S
C683 C691 1.433 . S
C684 H680 0.929 . S
C684 C686 1.378 . S
C684 C688 1.350 . S
C685 C688 1.463 1_545 S
C685 C690 1.350 . S
C685 N693 1.427 1_545 S
C686 H677 0.930 . S
C686 C684 1.378 . S
C686 C687 1.367 . S
C687 C686 1.367 . S
C687 C689 1.433 . S
C688 C684 1.350 . S
C688 C685 1.463 1_565 S
C688 N692 1.427 1_565 S
C689 H679 0.929 . S
C689 C687 1.433 . S
C689 N692 1.384 1_565 S
C690 H681 0.929 . S
C690 C682 1.378 . S
C690 C685 1.350 . S
C691 H678 0.929 . S
C691 C683 1.433 . S
C691 N693 1.384 1_545 S
N692 C688 1.427 1_545 S
N692 C689 1.384 1_545 S
N693 C685 1.427 1_565 S
N693 C691 1.384 1_565 S
H694 C700 0.930 . S
H695 C704 0.930 . S
H696 C709 0.926 1_655 S
H697 C707 0.926 1_455 S
H698 C702 0.929 . S
H699 C708 0.929 . S
C700 H694 0.930 . S
C700 C701 1.367 . S
C700 C708 1.378 1_565 S
C701 C700 1.367 . S
C701 C709 1.440 . S
C702 H698 0.929 . S
C702 C704 1.378 1_565 S
C702 C706 1.350 1_565 S
C703 C706 1.463 1_465 S
C703 C708 1.350 1_565 S
C703 N711 1.427 1_455 S
C704 H695 0.930 . S
C704 C702 1.378 1_545 S
C704 C705 1.367 . S
C705 C704 1.367 . S
C705 C707 1.440 . S
C706 C702 1.350 1_545 S
C706 C703 1.463 1_645 S
C706 N710 1.427 1_655 S
C707 H697 0.926 1_655 S
C707 C705 1.440 . S
C707 N710 1.381 1_655 S
C708 H699 0.929 . S
C708 C700 1.378 1_545 S
C708 C703 1.350 1_545 S
C709 H696 0.926 1_455 S
C709 C701 1.440 . S
C709 N711 1.381 1_455 S
N710 C706 1.427 1_455 S
N710 C707 1.381 1_455 S
N711 C703 1.427 1_655 S
N711 C709 1.381 1_655 S
H712 C718 0.930 . S
H713 C722 0.930 . S
H714 C727 0.929 . S
H715 C725 0.929 . S
H716 C720 0.929 . S
H717 C726 0.929 . S
C718 H712 0.930 . S
C718 C719 1.367 . S
C718 C726 1.378 . S
C719 C718 1.367 . S
C719 C727 1.433 . S
C720 H716 0.929 . S
C720 C722 1.378 . S
C720 C724 1.350 . S
C721 C724 1.463 1_554 S
C721 C726 1.350 . S
C721 N729 1.427 . S
C722 H713 0.930 . S
C722 C720 1.378 . S
C722 C723 1.367 . S
C723 C722 1.367 . S
C723 C725 1.433 . S
C724 C720 1.350 . S
C724 C721 1.463 1_556 S
C724 N728 1.427 . S
C725 H715 0.929 . S
C725 C723 1.433 . S
C725 N728 1.384 . S
C726 H717 0.929 . S
C726 C718 1.378 . S
C726 C721 1.350 . S
C727 H714 0.929 . S
C727 C719 1.433 . S
C727 N729 1.384 . S
N728 C724 1.427 . S
N728 C725 1.384 . S
N729 C721 1.427 . S
N729 C727 1.384 . S
H730 C736 0.930 1_455 S
H731 C740 0.930 1_655 S
H732 C745 0.929 . S
H733 C743 0.929 . S
H734 C738 0.929 . S
H735 C744 0.929 . S
C736 H730 0.930 1_655 S
C736 C737 1.367 . S
C736 C744 1.378 1_655 S
C737 C736 1.367 . S
C737 C745 1.433 . S
C738 H734 0.929 . S
C738 C740 1.378 1_655 S
C738 C742 1.350 1_655 S
C739 C742 1.463 1_654 S
C739 C744 1.350 1_655 S
C739 N747 1.427 . S
C740 H731 0.930 1_455 S
C740 C738 1.378 1_455 S
C740 C741 1.367 . S
C741 C740 1.367 . S
C741 C743 1.433 . S
C742 C738 1.350 1_455 S
C742 C739 1.463 1_456 S
C742 N746 1.427 . S
C743 H733 0.929 . S
C743 C741 1.433 . S
C743 N746 1.384 . S
C744 H735 0.929 . S
C744 C736 1.378 1_455 S
C744 C739 1.350 1_455 S
C745 H732 0.929 . S
C745 C737 1.433 . S
C745 N747 1.384 . S
N746 C742 1.427 . S
N746 C743 1.384 . S
N747 C739 1.427 . S
N747 C745 1.384 . S
H748 C754 0.936 . S
H749 C758 0.936 . S
H750 C763 0.929 . S
H751 C761 0.929 . S
H752 C756 0.929 . S
H753 C762 0.929 . S
C754 H748 0.936 . S
C754 C755 1.358 1_455 S
C754 C762 1.381 . S
C755 C754 1.358 1_655 S
C755 C763 1.433 . S
C756 H752 0.929 . S
C756 C758 1.381 . S
C756 C760 1.350 1_655 S
C757 C760 1.463 1_655 S
C757 C762 1.350 1_655 S
C757 N765 1.427 . S
C758 H749 0.936 . S
C758 C756 1.381 . S
C758 C759 1.358 1_655 S
C759 C758 1.358 1_455 S
C759 C761 1.433 . S
C760 C756 1.350 1_455 S
C760 C757 1.463 1_455 S
C760 N764 1.427 . S
C761 H751 0.929 . S
C761 C759 1.433 . S
C761 N764 1.384 . S
C762 H753 0.929 . S
C762 C754 1.381 . S
C762 C757 1.350 1_455 S
C763 H750 0.929 . S
C763 C755 1.433 . S
C763 N765 1.384 . S
N764 C760 1.427 . S
N764 C761 1.384 . S
N765 C757 1.427 . S
N765 C763 1.384 . S
H766 C772 0.930 . S
H767 C776 0.930 . S
H768 C781 0.929 . S
H769 C779 0.929 . S
H770 C774 0.929 . S
H771 C780 0.929 . S
C772 H766 0.930 . S
C772 C773 1.367 . S
C772 C780 1.378 . S
C773 C772 1.367 . S
C773 C781 1.433 . S
C774 H770 0.929 . S
C774 C776 1.378 . S
C774 C778 1.350 . S
C775 C778 1.463 . S
C775 C780 1.350 . S
C775 N783 1.427 . S
C776 H767 0.930 . S
C776 C774 1.378 . S
C776 C777 1.367 . S
C777 C776 1.367 . S
C777 C779 1.433 . S
C778 C774 1.350 . S
C778 C775 1.463 . S
C778 N782 1.427 . S
C779 H769 0.929 . S
C779 C777 1.433 . S
C779 N782 1.384 . S
C780 H771 0.929 . S
C780 C772 1.378 . S
C780 C775 1.350 . S
C781 H768 0.929 . S
C781 C773 1.433 . S
C781 N783 1.384 . S
N782 C778 1.427 . S
N782 C779 1.384 . S
N783 C775 1.427 . S
N783 C781 1.384 . S
C215 C23 1.507 . S
C219 C10 1.507 . S
C233 C30 1.506 . S
C237 C43 1.506 . S
C251 C56 1.506 . S
C255 C75 1.506 . S
C269 C95 1.507 . S
C273 C82 1.507 . S
C287 C127 1.506 . S
C291 C114 1.506 . S
C305 C147 1.507 . S
C309 C134 1.507 . S
C323 C179 1.506 . S
C327 C166 1.506 . S
C341 C199 1.507 . S
C345 C186 1.507 . S
C359 C42 1.520 . S
C363 C5 1.521 . S
C377 C18 1.520 . S
C381 C29 1.522 . S
C395 C94 1.522 . S
C399 C55 1.521 . S
C413 C81 1.522 . S
C417 C70 1.521 . S
C431 C109 1.521 . S
C435 C146 1.520 . S
C449 C133 1.521 . S
C453 C122 1.522 . S
C467 C198 1.520 . S
C471 C161 1.521 . S
C485 C174 1.521 . S
C489 C185 1.520 . S
C503 C3 1.453 . S
C507 C120 1.455 . S
C521 C16 1.455 . S
C525 C107 1.454 . S
C539 C148 1.455 . S
C543 C31 1.453 . S
C557 C135 1.455 . S
C561 C44 1.454 . S
C575 C172 1.453 . S
C579 C57 1.454 . S
C593 C159 1.455 . S
C597 C68 1.453 . S
C611 C83 1.453 . S
C615 C200 1.454 . S
C629 C96 1.453 . S
C633 C187 1.454 . S
C647 C62 1.530 . S
C651 C4 1.530 . S
C665 C69 1.530 . S
C669 C17 1.530 . S
C683 C88 1.531 . S
C687 C36 1.531 . S
C701 C101 1.530 . S
C705 C49 1.530 . S
C719 C108 1.530 . S
C723 C160 1.530 . S
C737 C121 1.530 . S
C741 C173 1.530 . S
C755 C192 1.530 . S
C759 C140 1.530 . S
C773 C205 1.531 . S
C777 C153 1.531 . S
