# Generated by pormake.
# Topology wgr, (5)-cn, num edge types: 1
# Building blocks:
#     Node 0, Type 0, BuildingBlock: BEQFEK_clean_sbu_0, # of connection points: 5
#     Node 1, Type 0, BuildingBlock: BEQFEK_clean_sbu_0, # of connection points: 5
#     Node 2, Type 0, BuildingBlock: BEQFEK_clean_sbu_0, # of connection points: 5
#     Node 3, Type 0, BuildingBlock: BEQFEK_clean_sbu_0, # of connection points: 5
#     Node 4, Type 0, BuildingBlock: BEQFEK_clean_sbu_0, # of connection points: 5
#     Node 5, Type 0, BuildingBlock: BEQFEK_clean_sbu_0, # of connection points: 5
#     Node 6, Type 0, BuildingBlock: BEQFEK_clean_sbu_0, # of connection points: 5
#     Node 7, Type 0, BuildingBlock: BEQFEK_clean_sbu_0, # of connection points: 5
#     Node 8, Type 0, BuildingBlock: BEQFEK_clean_sbu_0, # of connection points: 5
#     Node 9, Type 0, BuildingBlock: BEQFEK_clean_sbu_0, # of connection points: 5
#     Node 10, Type 0, BuildingBlock: BEQFEK_clean_sbu_0, # of connection points: 5
#     Node 11, Type 0, BuildingBlock: BEQFEK_clean_sbu_0, # of connection points: 5
#     Node 12, Type 0, BuildingBlock: BEQFEK_clean_sbu_0, # of connection points: 5
#     Node 13, Type 0, BuildingBlock: BEQFEK_clean_sbu_0, # of connection points: 5
#     Node 14, Type 0, BuildingBlock: BEQFEK_clean_sbu_0, # of connection points: 5
#     Node 15, Type 0, BuildingBlock: BEQFEK_clean_sbu_0, # of connection points: 5
#     Node 16, Type 0, BuildingBlock: BEQFEK_clean_sbu_0, # of connection points: 5
#     Node 17, Type 0, BuildingBlock: BEQFEK_clean_sbu_0, # of connection points: 5
#     Node 18, Type 0, BuildingBlock: BEQFEK_clean_sbu_0, # of connection points: 5
#     Node 19, Type 0, BuildingBlock: BEQFEK_clean_sbu_0, # of connection points: 5
#     Node 20, Type 0, BuildingBlock: BEQFEK_clean_sbu_0, # of connection points: 5
#     Node 21, Type 0, BuildingBlock: BEQFEK_clean_sbu_0, # of connection points: 5
#     Node 22, Type 0, BuildingBlock: BEQFEK_clean_sbu_0, # of connection points: 5
#     Node 23, Type 0, BuildingBlock: BEQFEK_clean_sbu_0, # of connection points: 5
#     Node 24, Type 0, BuildingBlock: BEQFEK_clean_sbu_0, # of connection points: 5
#     Node 25, Type 0, BuildingBlock: BEQFEK_clean_sbu_0, # of connection points: 5
#     Node 26, Type 0, BuildingBlock: BEQFEK_clean_sbu_0, # of connection points: 5
#     Node 27, Type 0, BuildingBlock: BEQFEK_clean_sbu_0, # of connection points: 5
#     Node 28, Type 0, BuildingBlock: BEQFEK_clean_sbu_0, # of connection points: 5
#     Node 29, Type 0, BuildingBlock: BEQFEK_clean_sbu_0, # of connection points: 5
#     Node 30, Type 0, BuildingBlock: BEQFEK_clean_sbu_0, # of connection points: 5
#     Node 31, Type 0, BuildingBlock: BEQFEK_clean_sbu_0, # of connection points: 5
#     Edge 32, Type (0, 0), BuildingBlock: AJUNOK_clean_linker_0, # of connection points: 2
#     Edge 33, Type (0, 0), BuildingBlock: AJUNOK_clean_linker_0, # of connection points: 2
#     Edge 34, Type (0, 0), BuildingBlock: AJUNOK_clean_linker_0, # of connection points: 2
#     Edge 35, Type (0, 0), BuildingBlock: AJUNOK_clean_linker_0, # of connection points: 2
#     Edge 36, Type (0, 0), BuildingBlock: AJUNOK_clean_linker_0, # of connection points: 2
#     Edge 37, Type (0, 0), BuildingBlock: AJUNOK_clean_linker_0, # of connection points: 2
#     Edge 38, Type (0, 0), BuildingBlock: AJUNOK_clean_linker_0, # of connection points: 2
#     Edge 39, Type (0, 0), BuildingBlock: AJUNOK_clean_linker_0, # of connection points: 2
#     Edge 40, Type (0, 0), BuildingBlock: AJUNOK_clean_linker_0, # of connection points: 2
#     Edge 41, Type (0, 0), BuildingBlock: AJUNOK_clean_linker_0, # of connection points: 2
#     Edge 42, Type (0, 0), BuildingBlock: AJUNOK_clean_linker_0, # of connection points: 2
#     Edge 43, Type (0, 0), BuildingBlock: AJUNOK_clean_linker_0, # of connection points: 2
#     Edge 44, Type (0, 0), BuildingBlock: AJUNOK_clean_linker_0, # of connection points: 2
#     Edge 45, Type (0, 0), BuildingBlock: AJUNOK_clean_linker_0, # of connection points: 2
#     Edge 46, Type (0, 0), BuildingBlock: AJUNOK_clean_linker_0, # of connection points: 2
#     Edge 47, Type (0, 0), BuildingBlock: AJUNOK_clean_linker_0, # of connection points: 2
#     Edge 48, Type (0, 0), BuildingBlock: AJUNOK_clean_linker_0, # of connection points: 2
#     Edge 49, Type (0, 0), BuildingBlock: AJUNOK_clean_linker_0, # of connection points: 2
#     Edge 50, Type (0, 0), BuildingBlock: AJUNOK_clean_linker_0, # of connection points: 2
#     Edge 51, Type (0, 0), BuildingBlock: AJUNOK_clean_linker_0, # of connection points: 2
#     Edge 52, Type (0, 0), BuildingBlock: AJUNOK_clean_linker_0, # of connection points: 2
#     Edge 53, Type (0, 0), BuildingBlock: AJUNOK_clean_linker_0, # of connection points: 2
#     Edge 54, Type (0, 0), BuildingBlock: AJUNOK_clean_linker_0, # of connection points: 2
#     Edge 55, Type (0, 0), BuildingBlock: AJUNOK_clean_linker_0, # of connection points: 2
#     Edge 56, Type (0, 0), BuildingBlock: AJUNOK_clean_linker_0, # of connection points: 2
#     Edge 57, Type (0, 0), BuildingBlock: AJUNOK_clean_linker_0, # of connection points: 2
#     Edge 58, Type (0, 0), BuildingBlock: AJUNOK_clean_linker_0, # of connection points: 2
#     Edge 59, Type (0, 0), BuildingBlock: AJUNOK_clean_linker_0, # of connection points: 2
#     Edge 60, Type (0, 0), BuildingBlock: AJUNOK_clean_linker_0, # of connection points: 2
#     Edge 61, Type (0, 0), BuildingBlock: AJUNOK_clean_linker_0, # of connection points: 2
#     Edge 62, Type (0, 0), BuildingBlock: AJUNOK_clean_linker_0, # of connection points: 2
#     Edge 63, Type (0, 0), BuildingBlock: AJUNOK_clean_linker_0, # of connection points: 2
#     Edge 64, Type (0, 0), BuildingBlock: AJUNOK_clean_linker_0, # of connection points: 2
#     Edge 65, Type (0, 0), BuildingBlock: AJUNOK_clean_linker_0, # of connection points: 2
#     Edge 66, Type (0, 0), BuildingBlock: AJUNOK_clean_linker_0, # of connection points: 2
#     Edge 67, Type (0, 0), BuildingBlock: AJUNOK_clean_linker_0, # of connection points: 2
#     Edge 68, Type (0, 0), BuildingBlock: AJUNOK_clean_linker_0, # of connection points: 2
#     Edge 69, Type (0, 0), BuildingBlock: AJUNOK_clean_linker_0, # of connection points: 2
#     Edge 70, Type (0, 0), BuildingBlock: AJUNOK_clean_linker_0, # of connection points: 2
#     Edge 71, Type (0, 0), BuildingBlock: AJUNOK_clean_linker_0, # of connection points: 2
#     Edge 72, Type (0, 0), BuildingBlock: AJUNOK_clean_linker_0, # of connection points: 2
#     Edge 73, Type (0, 0), BuildingBlock: AJUNOK_clean_linker_0, # of connection points: 2
#     Edge 74, Type (0, 0), BuildingBlock: AJUNOK_clean_linker_0, # of connection points: 2
#     Edge 75, Type (0, 0), BuildingBlock: AJUNOK_clean_linker_0, # of connection points: 2
#     Edge 76, Type (0, 0), BuildingBlock: AJUNOK_clean_linker_0, # of connection points: 2
#     Edge 77, Type (0, 0), BuildingBlock: AJUNOK_clean_linker_0, # of connection points: 2
#     Edge 78, Type (0, 0), BuildingBlock: AJUNOK_clean_linker_0, # of connection points: 2
#     Edge 79, Type (0, 0), BuildingBlock: AJUNOK_clean_linker_0, # of connection points: 2
#     Edge 80, Type (0, 0), BuildingBlock: AJUNOK_clean_linker_0, # of connection points: 2
#     Edge 81, Type (0, 0), BuildingBlock: AJUNOK_clean_linker_0, # of connection points: 2
#     Edge 82, Type (0, 0), BuildingBlock: AJUNOK_clean_linker_0, # of connection points: 2
#     Edge 83, Type (0, 0), BuildingBlock: AJUNOK_clean_linker_0, # of connection points: 2
#     Edge 84, Type (0, 0), BuildingBlock: AJUNOK_clean_linker_0, # of connection points: 2
#     Edge 85, Type (0, 0), BuildingBlock: AJUNOK_clean_linker_0, # of connection points: 2
#     Edge 86, Type (0, 0), BuildingBlock: AJUNOK_clean_linker_0, # of connection points: 2
#     Edge 87, Type (0, 0), BuildingBlock: AJUNOK_clean_linker_0, # of connection points: 2
#     Edge 88, Type (0, 0), BuildingBlock: AJUNOK_clean_linker_0, # of connection points: 2
#     Edge 89, Type (0, 0), BuildingBlock: AJUNOK_clean_linker_0, # of connection points: 2
#     Edge 90, Type (0, 0), BuildingBlock: AJUNOK_clean_linker_0, # of connection points: 2
#     Edge 91, Type (0, 0), BuildingBlock: AJUNOK_clean_linker_0, # of connection points: 2
#     Edge 92, Type (0, 0), BuildingBlock: AJUNOK_clean_linker_0, # of connection points: 2
#     Edge 93, Type (0, 0), BuildingBlock: AJUNOK_clean_linker_0, # of connection points: 2
#     Edge 94, Type (0, 0), BuildingBlock: AJUNOK_clean_linker_0, # of connection points: 2
#     Edge 95, Type (0, 0), BuildingBlock: AJUNOK_clean_linker_0, # of connection points: 2
#     Edge 96, Type (0, 0), BuildingBlock: AJUNOK_clean_linker_0, # of connection points: 2
#     Edge 97, Type (0, 0), BuildingBlock: AJUNOK_clean_linker_0, # of connection points: 2
#     Edge 98, Type (0, 0), BuildingBlock: AJUNOK_clean_linker_0, # of connection points: 2
#     Edge 99, Type (0, 0), BuildingBlock: AJUNOK_clean_linker_0, # of connection points: 2
#     Edge 100, Type (0, 0), BuildingBlock: AJUNOK_clean_linker_0, # of connection points: 2
#     Edge 101, Type (0, 0), BuildingBlock: AJUNOK_clean_linker_0, # of connection points: 2
#     Edge 102, Type (0, 0), BuildingBlock: AJUNOK_clean_linker_0, # of connection points: 2
#     Edge 103, Type (0, 0), BuildingBlock: AJUNOK_clean_linker_0, # of connection points: 2
#     Edge 104, Type (0, 0), BuildingBlock: AJUNOK_clean_linker_0, # of connection points: 2
#     Edge 105, Type (0, 0), BuildingBlock: AJUNOK_clean_linker_0, # of connection points: 2
#     Edge 106, Type (0, 0), BuildingBlock: AJUNOK_clean_linker_0, # of connection points: 2
#     Edge 107, Type (0, 0), BuildingBlock: AJUNOK_clean_linker_0, # of connection points: 2
#     Edge 108, Type (0, 0), BuildingBlock: AJUNOK_clean_linker_0, # of connection points: 2
#     Edge 109, Type (0, 0), BuildingBlock: AJUNOK_clean_linker_0, # of connection points: 2
#     Edge 110, Type (0, 0), BuildingBlock: AJUNOK_clean_linker_0, # of connection points: 2
#     Edge 111, Type (0, 0), BuildingBlock: AJUNOK_clean_linker_0, # of connection points: 2
# Relax obj value: 0.155
# Max RMSD: 0.221
# Mean RMSD: 0.221
data_MOF--net-wgr--node1-BEQFEK_clean_sbu_0--edge1-AJUNOK_clean_linker_0
_symmetry_space_group_name_H-M    P1
_symmetry_Int_Tables_number       1
_symmetry_cell_setting            triclinic
loop_
_symmetry_equiv_pos_as_xyz
'x, y, z'
_cell_length_a     20.710455
_cell_length_b     20.74967
_cell_length_c     121.8719
_cell_angle_alpha  89.994516
_cell_angle_beta   90.146966
_cell_angle_gamma 90.078936
loop_
_atom_site_label
_atom_site_type_symbol
_atom_site_fract_x
_atom_site_fract_y
_atom_site_fract_z
_atom_type_partial_charge
Co0 Co 0.35941 0.03784 0.21297 0.0
Co1 Co 0.35907 0.03151 0.18707 0.0
C2 C 0.25488 0.09846 0.19871 0.0
O3 O 0.28079 0.08619 0.20799 0.0
O4 O 0.27658 0.07433 0.18986 0.0
C5 C 0.30743 0.00879 0.23428 0.0
O6 O 0.25513 0.99534 0.22859 0.0
C7 C 0.32541 0.00968 0.16372 0.0
C8 C 0.42132 0.98848 0.1567 0.0
C9 C 0.35641 0.99282 0.15403 0.0
N10 N 0.37 0.0144 0.17174 0.0
N11 N 0.42723 0.00216 0.16745 0.0
C12 C 0.25514 0.02353 0.16531 0.0
H13 H 0.24965 0.07224 0.16894 0.0
H14 H 0.23446 0.98833 0.17119 0.0
H15 H 0.2279 0.02181 0.15748 0.0
C16 C 0.38022 0.89779 0.20999 0.0
N17 N 0.37251 0.95755 0.20592 0.0
N18 N 0.36711 0.95404 0.1952 0.0
C19 C 0.36682 0.89154 0.19216 0.0
C20 C 0.37587 0.85327 0.20145 0.0
C21 C 0.39121 0.88372 0.2219 0.0
H22 H 0.42347 0.92083 0.22552 0.0
H23 H 0.34448 0.88534 0.22631 0.0
H24 H 0.41306 0.83534 0.22304 0.0
O25 O 0.42899 0.09712 0.20948 0.0
O26 O 0.42457 0.09815 0.19127 0.0
H27 H 0.39061 0.86932 0.17553 0.0
H28 H 0.32602 0.82055 0.18103 0.0
C29 C 0.34751 0.86947 0.18092 0.0
H30 H 0.31146 0.90299 0.17741 0.0
H31 H 0.47027 0.00209 0.17192 0.0
O32 O 0.35759 0.02758 0.22921 0.0
C33 C 0.44699 0.11997 0.2003 0.0
Co34 Co 0.20643 0.09151 0.46149 0.0
Co35 Co 0.2025 0.11559 0.43591 0.0
C36 C 0.14254 0.99773 0.44721 0.0
O37 O 0.16382 0.011 0.45677 0.0
O38 O 0.15571 0.03352 0.43898 0.0
C39 C 0.20099 0.05031 0.48426 0.0
O40 O 0.16425 0.0039 0.48038 0.0
C41 C 0.23018 0.07845 0.41313 0.0
C42 C 0.22588 0.17209 0.40454 0.0
C43 C 0.2383 0.10717 0.40295 0.0
N44 N 0.21391 0.1243 0.42041 0.0
N45 N 0.21058 0.18004 0.41519 0.0
C46 C 0.24381 0.00993 0.41614 0.0
H47 H 0.19977 0.98066 0.41465 0.0
H48 H 0.25677 0.00628 0.42496 0.0
H49 H 0.28344 0.99019 0.41103 0.0
C50 C 0.34662 0.09674 0.45685 0.0
N51 N 0.28467 0.10519 0.45377 0.0
N52 N 0.28282 0.12062 0.44332 0.0
C53 C 0.34369 0.12579 0.43956 0.0
C54 C 0.3865 0.10911 0.4479 0.0
C55 C 0.36589 0.06866 0.46769 0.0
H56 H 0.32952 0.03266 0.47036 0.0
H57 H 0.41403 0.04544 0.46733 0.0
H58 H 0.36735 0.10774 0.4739 0.0
O59 O 0.1396 0.15877 0.45857 0.0
O60 O 0.14208 0.1819 0.44079 0.0
H61 H 0.41266 0.15863 0.4275 0.0
H62 H 0.35047 0.10561 0.42235 0.0
C63 C 0.36078 0.14562 0.42811 0.0
H64 H 0.33092 0.18753 0.42563 0.0
H65 H 0.19974 0.22382 0.41896 0.0
O66 O 0.22391 0.09177 0.47764 0.0
C67 C 0.11781 0.18949 0.45028 0.0
Co68 Co 0.15047 0.96038 0.71358 0.0
Co69 Co 0.15093 0.95187 0.68754 0.0
C70 C 0.25421 0.8913 0.70125 0.0
O71 O 0.22908 0.91288 0.71001 0.0
O72 O 0.23174 0.9058 0.69182 0.0
C73 C 0.20299 0.97599 0.73521 0.0
O74 O 0.25708 0.96397 0.73001 0.0
C75 C 0.19032 0.97471 0.66434 0.0
C76 C 0.09865 0.95483 0.65569 0.0
C77 C 0.16219 0.97306 0.65393 0.0
N78 N 0.14523 0.95853 0.67182 0.0
N79 N 0.09072 0.9464 0.66654 0.0
C80 C 0.2593 0.98901 0.66713 0.0
H81 H 0.2655 0.0417 0.66823 0.0
H82 H 0.2917 0.97292 0.66042 0.0
H83 H 0.27323 0.96518 0.67491 0.0
C84 C 0.14526 0.09971 0.70819 0.0
N85 N 0.14357 0.03717 0.7052 0.0
N86 N 0.13917 0.03334 0.69446 0.0
C87 C 0.13365 0.09328 0.69032 0.0
C88 C 0.13845 0.13789 0.69884 0.0
C89 C 0.16369 0.12135 0.7195 0.0
H90 H 0.12064 0.11906 0.72489 0.0
H91 H 0.20092 0.08867 0.7229 0.0
H92 H 0.18343 0.17099 0.71957 0.0
O93 O 0.0807 0.89611 0.71037 0.0
O94 O 0.08422 0.89104 0.6922 0.0
H95 H 0.08831 0.07363 0.67486 0.0
H96 H 0.10638 0.15773 0.67717 0.0
C97 C 0.12394 0.10772 0.6784 0.0
H98 H 0.17025 0.10169 0.67399 0.0
H99 H 0.04784 0.93283 0.67038 0.0
O100 O 0.15062 0.97835 0.72972 0.0
C101 C 0.06221 0.87109 0.70132 0.0
Co102 Co 0.29095 0.90702 0.96281 0.0
Co103 Co 0.2824 0.90463 0.93699 0.0
C104 C 0.34681 0.01186 0.94811 0.0
O105 O 0.33621 0.98626 0.95745 0.0
O106 O 0.32115 0.9897 0.93938 0.0
C107 C 0.26523 0.96161 0.98416 0.0
O108 O 0.25489 0.01481 0.97858 0.0
C109 C 0.25899 0.93227 0.91352 0.0
C110 C 0.23993 0.83447 0.90709 0.0
C111 C 0.24264 0.89872 0.90405 0.0
N112 N 0.26498 0.88975 0.92179 0.0
N113 N 0.25408 0.83136 0.91786 0.0
C114 C 0.2712 0.00307 0.91468 0.0
H115 H 0.31976 0.01067 0.91832 0.0
H116 H 0.23527 0.02415 0.92038 0.0
H117 H 0.26907 0.02835 0.90668 0.0
C118 C 0.15133 0.88108 0.96023 0.0
N119 N 0.21064 0.88947 0.95599 0.0
N120 N 0.206 0.89363 0.94527 0.0
C121 C 0.14312 0.89228 0.94238 0.0
C122 C 0.10582 0.88362 0.95179 0.0
C123 C 0.1386 0.87225 0.97223 0.0
H124 H 0.17605 0.84056 0.97587 0.0
H125 H 0.14116 0.91964 0.97641 0.0
H126 H 0.09017 0.85081 0.97362 0.0
O127 O 0.35411 0.84069 0.95948 0.0
O128 O 0.35333 0.84465 0.94124 0.0
H129 H 0.11905 0.86679 0.92587 0.0
H130 H 0.07062 0.93152 0.93135 0.0
C131 C 0.11968 0.91034 0.93115 0.0
H132 H 0.15276 0.94615 0.92746 0.0
H133 H 0.25523 0.78946 0.92259 0.0
O134 O 0.28115 0.91083 0.97901 0.0
C135 C 0.37788 0.82515 0.95024 0.0
Co136 Co 0.34782 0.96162 0.30412 0.0
Co137 Co 0.3443 0.95308 0.33011 0.0
C138 C 0.23893 0.89773 0.31627 0.0
O139 O 0.26675 0.91793 0.30763 0.0
O140 O 0.26093 0.91092 0.32581 0.0
C141 C 0.30892 0.95682 0.28139 0.0
O142 O 0.26454 0.91774 0.28526 0.0
C143 C 0.30584 0.98203 0.35296 0.0
C144 C 0.39896 0.97029 0.36161 0.0
C145 C 0.33539 0.98869 0.36313 0.0
N146 N 0.35021 0.96132 0.34573 0.0
N147 N 0.40542 0.95316 0.35102 0.0
C148 C 0.23862 0.0015 0.34993 0.0
H149 H 0.23425 0.00818 0.34092 0.0
H150 H 0.22509 0.04662 0.35424 0.0
H151 H 0.20463 0.96311 0.35255 0.0
C152 C 0.35533 0.10038 0.30939 0.0
N153 N 0.3563 0.03796 0.31244 0.0
N154 N 0.35906 0.03434 0.3232 0.0
C155 C 0.3639 0.0945 0.3273 0.0
C156 C 0.3598 0.13868 0.31873 0.0
C157 C 0.34143 0.12191 0.29789 0.0
H158 H 0.30104 0.09302 0.29446 0.0
H159 H 0.3287 0.1737 0.29746 0.0
H160 H 0.38461 0.113 0.29274 0.0
O161 O 0.41509 0.89541 0.30756 0.0
O162 O 0.40939 0.88967 0.32572 0.0
H163 H 0.38826 0.16078 0.34036 0.0
H164 H 0.32711 0.10212 0.34366 0.0
C165 C 0.37296 0.10993 0.33921 0.0
H166 H 0.41009 0.07771 0.34279 0.0
H167 H 0.44826 0.93873 0.34729 0.0
O168 O 0.35003 0.981 0.28801 0.0
C169 C 0.43205 0.86975 0.31665 0.0
Co170 Co 0.28809 0.10192 0.55262 0.0
Co171 Co 0.28689 0.07911 0.5783 0.0
C172 C 0.34641 0.98331 0.56417 0.0
O173 O 0.33216 0.01936 0.55603 0.0
O174 O 0.32715 0.99676 0.57383 0.0
C175 C 0.25396 0.05582 0.5314 0.0
O176 O 0.24211 0.00348 0.53713 0.0
C177 C 0.26742 0.03775 0.60154 0.0
C178 C 0.2414 0.13095 0.60909 0.0
C179 C 0.24834 0.06599 0.61138 0.0
N180 N 0.27036 0.08399 0.59379 0.0
N181 N 0.25526 0.13955 0.59841 0.0
C182 C 0.28593 0.96905 0.59959 0.0
H183 H 0.33225 0.96747 0.59505 0.0
H184 H 0.24868 0.9455 0.59439 0.0
H185 H 0.29134 0.94217 0.6074 0.0
C186 C 0.14977 0.12079 0.5565 0.0
N187 N 0.2101 0.11133 0.56025 0.0
N188 N 0.20792 0.09435 0.57062 0.0
C189 C 0.14549 0.08843 0.57362 0.0
C190 C 0.10617 0.10475 0.56473 0.0
C191 C 0.13448 0.14558 0.54525 0.0
H192 H 0.16936 0.18401 0.543 0.0
H193 H 0.13948 0.10638 0.53915 0.0
H194 H 0.08449 0.16473 0.54485 0.0
O195 O 0.35158 0.16578 0.55709 0.0
O196 O 0.35634 0.14423 0.57498 0.0
H197 H 0.12384 0.09715 0.59067 0.0
H198 H 0.07578 0.03741 0.58365 0.0
C199 C 0.12458 0.05916 0.58427 0.0
H200 H 0.1594 0.0215 0.58683 0.0
H201 H 0.25325 0.1833 0.59421 0.0
O202 O 0.27397 0.10581 0.53642 0.0
C203 C 0.37775 0.17301 0.56647 0.0
Co204 Co 0.13922 0.03936 0.80341 0.0
Co205 Co 0.14406 0.02948 0.82913 0.0
C206 C 0.24599 0.09817 0.81771 0.0
O207 O 0.21692 0.08876 0.8086 0.0
O208 O 0.2277 0.07035 0.82647 0.0
C209 C 0.19675 0.0148 0.78267 0.0
O210 O 0.2478 0.00584 0.7889 0.0
C211 C 0.17844 0.00382 0.8522 0.0
C212 C 0.08251 0.98581 0.8595 0.0
C213 C 0.14787 0.98679 0.86189 0.0
N214 N 0.13319 0.01144 0.84437 0.0
N215 N 0.07594 0.00118 0.84882 0.0
C216 C 0.24905 0.01531 0.85044 0.0
H217 H 0.2563 0.06542 0.84752 0.0
H218 H 0.26712 0.98245 0.84397 0.0
H219 H 0.27733 0.00843 0.8581 0.0
C220 C 0.11607 0.89928 0.80593 0.0
N221 N 0.12639 0.95824 0.81018 0.0
N222 N 0.13319 0.95325 0.82085 0.0
C223 C 0.13139 0.89049 0.82369 0.0
C224 C 0.11952 0.85368 0.81432 0.0
C225 C 0.10352 0.88712 0.79401 0.0
H226 H 0.07181 0.92543 0.79065 0.0
H227 H 0.14984 0.88863 0.78947 0.0
H228 H 0.08043 0.83939 0.79273 0.0
O229 O 0.06893 0.0976 0.807 0.0
O230 O 0.08045 0.09768 0.82512 0.0
H231 H 0.10857 0.86714 0.84033 0.0
H232 H 0.17084 0.81697 0.83447 0.0
C233 C 0.15107 0.86651 0.83481 0.0
H234 H 0.18865 0.89842 0.83831 0.0
H235 H 0.03242 0.0036 0.8445 0.0
O236 O 0.14368 0.02977 0.78721 0.0
C237 C 0.05521 0.12052 0.8164 0.0
Co238 Co 0.21198 0.90622 0.05334 0.0
Co239 Co 0.21751 0.9031 0.07919 0.0
C240 C 0.15266 0.00952 0.06797 0.0
O241 O 0.16383 0.98407 0.05863 0.0
O242 O 0.17783 0.98732 0.07672 0.0
C243 C 0.22283 0.962 0.03154 0.0
O244 O 0.21034 0.01682 0.03649 0.0
C245 C 0.24145 0.9347 0.10246 0.0
C246 C 0.25906 0.83828 0.10955 0.0
C247 C 0.2584 0.90327 0.1121 0.0
N248 N 0.23361 0.8903 0.09452 0.0
N249 N 0.24349 0.83273 0.09885 0.0
C250 C 0.231 0.00546 0.10085 0.0
H251 H 0.18083 0.01356 0.09796 0.0
H252 H 0.26398 0.02367 0.09439 0.0
H253 H 0.23857 0.03292 0.10856 0.0
C254 C 0.35145 0.88256 0.05641 0.0
N255 N 0.29171 0.8904 0.06048 0.0
N256 N 0.2952 0.89403 0.07121 0.0
C257 C 0.3578 0.89279 0.07429 0.0
C258 C 0.3961 0.88474 0.06499 0.0
C259 C 0.36518 0.87438 0.04443 0.0
H260 H 0.33005 0.83992 0.04083 0.0
H261 H 0.35909 0.92132 0.04019 0.0
H262 H 0.4149 0.85624 0.04306 0.0
O263 O 0.15077 0.83721 0.05628 0.0
O264 O 0.14885 0.84075 0.07449 0.0
H265 H 0.37821 0.86676 0.09092 0.0
H266 H 0.4298 0.92989 0.08568 0.0
C267 C 0.38008 0.91018 0.08562 0.0
H268 H 0.34774 0.94713 0.08913 0.0
H269 H 0.24117 0.78973 0.09443 0.0
O270 O 0.22498 0.91054 0.03719 0.0
C271 C 0.12639 0.81988 0.06538 0.0
Co272 Co 0.64367 0.96201 0.80361 0.0
Co273 Co 0.64233 0.95346 0.82964 0.0
C274 C 0.74635 0.89278 0.81615 0.0
O275 O 0.72262 0.91522 0.80733 0.0
O276 O 0.72173 0.90546 0.82546 0.0
C277 C 0.68889 0.95898 0.78139 0.0
O278 O 0.73345 0.92179 0.78571 0.0
C279 C 0.68444 0.97377 0.85273 0.0
C280 C 0.59072 0.97127 0.86131 0.0
C281 C 0.65626 0.98065 0.86305 0.0
N282 N 0.63748 0.96202 0.84531 0.0
N283 N 0.58174 0.95981 0.85055 0.0
C284 C 0.75477 0.97685 0.84995 0.0
H285 H 0.76598 0.94378 0.84311 0.0
H286 H 0.76721 0.02649 0.8473 0.0
H287 H 0.78504 0.96368 0.85713 0.0
C288 C 0.64183 0.10093 0.80888 0.0
N289 N 0.63762 0.03864 0.81193 0.0
N290 N 0.6342 0.03521 0.82268 0.0
C291 C 0.63295 0.09546 0.82679 0.0
C292 C 0.6393 0.13937 0.81822 0.0
C293 C 0.65708 0.12175 0.79741 0.0
H294 H 0.69812 0.09296 0.79424 0.0
H295 H 0.66951 0.17363 0.79692 0.0
H296 H 0.61471 0.11192 0.79207 0.0
O297 O 0.57326 0.89871 0.80675 0.0
O298 O 0.57303 0.89486 0.82498 0.0
H299 H 0.61763 0.16315 0.84004 0.0
H300 H 0.67142 0.09706 0.8431 0.0
C301 C 0.62662 0.11099 0.83873 0.0
H302 H 0.58601 0.0831 0.84227 0.0
H303 H 0.53731 0.95188 0.84672 0.0
O304 O 0.64467 0.98145 0.78754 0.0
C305 C 0.55201 0.87527 0.81573 0.0
Co306 Co 0.78388 0.88283 0.55164 0.0
Co307 Co 0.78265 0.90776 0.57721 0.0
C308 C 0.84839 -0.00134 0.56333 0.0
O309 O 0.83309 0.96175 0.55539 0.0
O310 O 0.82556 0.98916 0.5729 0.0
C311 C 0.75363 0.93636 0.53097 0.0
O312 O 0.74473 0.98654 0.53736 0.0
C313 C 0.76891 0.94781 0.60051 0.0
C314 C 0.73803 0.85584 0.60801 0.0
C315 C 0.7496 0.92009 0.61037 0.0
N316 N 0.76752 0.90209 0.59267 0.0
N317 N 0.74962 0.84719 0.59725 0.0
C318 C 0.79152 0.01538 0.59858 0.0
H319 H 0.83721 0.01454 0.59386 0.0
H320 H 0.75506 0.04139 0.59358 0.0
H321 H 0.79977 0.0414 0.60641 0.0
C322 C 0.64463 0.8667 0.55555 0.0
N323 N 0.70511 0.87709 0.55918 0.0
N324 N 0.70348 0.89289 0.56961 0.0
C325 C 0.64133 0.89593 0.57285 0.0
C326 C 0.60154 0.87871 0.56405 0.0
C327 C 0.62868 0.847 0.54405 0.0
H328 H 0.66585 0.81317 0.54095 0.0
H329 H 0.62876 0.89019 0.53868 0.0
H330 H 0.58038 0.82385 0.54362 0.0
O331 O 0.84367 0.81481 0.55612 0.0
O332 O 0.84962 0.84198 0.57373 0.0
H333 H 0.6184 0.88487 0.58983 0.0
H334 H 0.57276 0.94714 0.58301 0.0
C335 C 0.62082 0.92391 0.58362 0.0
H336 H 0.65649 0.96025 0.58643 0.0
H337 H 0.74417 0.80397 0.59297 0.0
O338 O 0.77033 0.88329 0.53538 0.0
C339 C 0.86993 0.80956 0.56555 0.0
Co340 Co 0.86573 0.031 0.30377 0.0
Co341 Co 0.86743 0.03753 0.32959 0.0
C342 C 0.76341 0.10034 0.31591 0.0
O343 O 0.78548 0.07665 0.30706 0.0
O344 O 0.78864 0.08728 0.32521 0.0
C345 C 0.81792 0.00483 0.28233 0.0
O346 O 0.76268 0.00083 0.28756 0.0
C347 C 0.82206 0.01134 0.35206 0.0
C348 C 0.9145 0.00788 0.36114 0.0
C349 C 0.84869 0.99803 0.36231 0.0
N350 N 0.87031 0.02603 0.34513 0.0
N351 N 0.92527 0.02502 0.35066 0.0
C352 C 0.75219 0.01256 0.34889 0.0
H353 H 0.74194 0.0567 0.34407 0.0
H354 H 0.74127 0.97054 0.34356 0.0
H355 H 0.7204 0.01191 0.3562 0.0
C356 C 0.87202 0.89122 0.30848 0.0
N357 N 0.87368 0.95337 0.31169 0.0
N358 N 0.87655 0.95599 0.32246 0.0
C359 C 0.87884 0.89529 0.32639 0.0
C360 C 0.87435 0.85207 0.31771 0.0
C361 C 0.85939 0.87025 0.29692 0.0
H362 H 0.80951 0.88398 0.29457 0.0
H363 H 0.86477 0.81749 0.29589 0.0
H364 H 0.89342 0.89506 0.29132 0.0
O365 O 0.93339 0.09438 0.30752 0.0
O366 O 0.93763 0.09682 0.3257 0.0
H367 H 0.92202 0.90498 0.34227 0.0
H368 H 0.8903 0.82568 0.33947 0.0
C369 C 0.88204 0.8781 0.33831 0.0
H370 H 0.8362 0.89155 0.34235 0.0
H371 H 0.97037 0.03377 0.34718 0.0
O372 O 0.86919 0.01627 0.28773 0.0
C373 C 0.95593 0.11777 0.3164 0.0
Co374 Co 0.71421 0.10674 0.05447 0.0
Co375 Co 0.70778 0.09414 0.08034 0.0
C376 C 0.6503 0.99424 0.06598 0.0
O377 O 0.66813 0.02644 0.05763 0.0
O378 O 0.66609 0.01144 0.07568 0.0
C379 C 0.73477 0.05936 0.03275 0.0
O380 O 0.73183 0.00374 0.03788 0.0
C381 C 0.73268 0.05179 0.10319 0.0
C382 C 0.72607 0.14473 0.11197 0.0
C383 C 0.7394 0.07998 0.11347 0.0
N384 N 0.71629 0.09802 0.09596 0.0
N385 N 0.7113 0.15318 0.10131 0.0
C386 C 0.74753 0.98369 0.10007 0.0
H387 H 0.76171 0.98098 0.0913 0.0
H388 H 0.78651 0.96382 0.10534 0.0
H389 H 0.70358 0.95385 0.10122 0.0
C390 C 0.85395 0.11306 0.05945 0.0
N391 N 0.79166 0.11255 0.06263 0.0
N392 N 0.78894 0.11037 0.0734 0.0
C393 C 0.8496 0.11228 0.07742 0.0
C394 C 0.89314 0.11226 0.06873 0.0
C395 C 0.87464 0.10476 0.04777 0.0
H396 H 0.85774 0.05719 0.04476 0.0
H397 H 0.92775 0.10752 0.04683 0.0
H398 H 0.85173 0.1425 0.04263 0.0
O399 O 0.65048 0.17421 0.0584 0.0
O400 O 0.6435 0.15975 0.0764 0.0
H401 H 0.91825 0.12219 0.09073 0.0
H402 H 0.85444 0.06437 0.09296 0.0
C403 C 0.8662 0.112 0.08938 0.0
H404 H 0.83726 0.14904 0.09369 0.0
H405 H 0.7003 0.19711 0.0976 0.0
O406 O 0.72992 0.11092 0.03833 0.0
C407 C 0.62435 0.1868 0.06761 0.0
Co408 Co 0.66966 0.03871 0.71261 0.0
Co409 Co 0.66804 0.04174 0.68671 0.0
C410 C 0.7793 0.09504 0.70013 0.0
O411 O 0.75368 0.07888 0.70922 0.0
O412 O 0.7526 0.08068 0.69099 0.0
C413 C 0.71106 0.01926 0.73488 0.0
O414 O 0.76898 0.0236 0.73057 0.0
C415 C 0.70438 0.01371 0.66353 0.0
C416 C 0.61354 0.03963 0.6551 0.0
C417 C 0.67545 0.01707 0.65321 0.0
N418 N 0.66128 0.03327 0.67109 0.0
N419 N 0.60726 0.04891 0.66595 0.0
C420 C 0.77234 0.99467 0.66618 0.0
H421 H 0.77457 0.94171 0.66735 0.0
H422 H 0.80528 0.00807 0.65937 0.0
H423 H 0.78863 0.01783 0.67389 0.0
C424 C 0.65357 0.89865 0.70799 0.0
N425 N 0.6562 0.96068 0.7047 0.0
N426 N 0.6498 0.96301 0.69398 0.0
C427 C 0.6388 0.90311 0.69017 0.0
C428 C 0.64178 0.85957 0.69887 0.0
C429 C 0.67264 0.87743 0.71928 0.0
H430 H 0.63073 0.88275 0.72486 0.0
H431 H 0.71229 0.90836 0.72238 0.0
H432 H 0.6894 0.82675 0.71944 0.0
O433 O 0.60554 0.10687 0.70889 0.0
O434 O 0.60588 0.10774 0.69071 0.0
H435 H 0.5928 0.92404 0.67481 0.0
H436 H 0.60463 0.83914 0.67739 0.0
C437 C 0.62619 0.88783 0.67835 0.0
H438 H 0.67216 0.88993 0.67373 0.0
H439 H 0.5659 0.06572 0.66988 0.0
O440 O 0.66198 0.02339 0.72865 0.0
C441 C 0.587 0.13089 0.69979 0.0
Co442 Co 0.70794 0.90143 0.46132 0.0
Co443 Co 0.70812 0.87712 0.43572 0.0
C444 C 0.63869 0.98988 0.44696 0.0
O445 O 0.66103 0.97993 0.45657 0.0
O446 O 0.65527 0.95442 0.43892 0.0
C447 C 0.71509 0.95196 0.48344 0.0
O448 O 0.69846 0.00598 0.47859 0.0
C449 C 0.73904 0.91708 0.41311 0.0
C450 C 0.73006 0.82504 0.40415 0.0
C451 C 0.74563 0.88957 0.40274 0.0
N452 N 0.72128 0.87075 0.42023 0.0
N453 N 0.71546 0.816 0.41479 0.0
C454 C 0.74821 0.98624 0.41627 0.0
H455 H 0.71839 -0.00143 0.42347 0.0
H456 H 0.79949 0.99435 0.41854 0.0
H457 H 0.73538 0.01864 0.40935 0.0
C458 C 0.85002 0.89704 0.4571 0.0
N459 N 0.78808 0.89052 0.45381 0.0
N460 N 0.78726 0.87508 0.44336 0.0
C461 C 0.84828 0.86787 0.43981 0.0
C462 C 0.89061 0.88254 0.44831 0.0
C463 C 0.86898 0.92494 0.46797 0.0
H464 H 0.83206 0.95999 0.47072 0.0
H465 H 0.91652 0.94949 0.46756 0.0
H466 H 0.8717 0.8856 0.47412 0.0
O467 O 0.64402 0.83127 0.45799 0.0
O468 O 0.65195 0.80729 0.44029 0.0
H469 H 0.83283 0.80858 0.42564 0.0
H470 H 0.91637 0.82938 0.42811 0.0
C471 C 0.86593 0.84731 0.42843 0.0
H472 H 0.86117 0.8888 0.42276 0.0
H473 H 0.70244 0.77223 0.41838 0.0
O474 O 0.72231 0.90167 0.47759 0.0
C475 C 0.62576 0.79904 0.4496 0.0
Co476 Co 0.85458 0.96549 0.21287 0.0
Co477 Co 0.86183 0.95442 0.18712 0.0
C478 C 0.75274 0.89749 0.2003 0.0
O479 O 0.77307 0.92252 0.20919 0.0
O480 O 0.78082 0.90788 0.19117 0.0
C481 C 0.82275 0.95204 0.23547 0.0
O482 O 0.78726 0.9044 0.2317 0.0
C483 C 0.82126 0.97482 0.16418 0.0
C484 C 0.9145 0.9689 0.15547 0.0
C485 C 0.84924 0.98005 0.15387 0.0
N486 N 0.86791 0.96103 0.17151 0.0
N487 N 0.92336 0.95659 0.16622 0.0
C488 C 0.75278 0.98889 0.16723 0.0
H489 H 0.75013 0.00595 0.17585 0.0
H490 H 0.73157 0.02542 0.16163 0.0
H491 H 0.72404 0.9439 0.16654 0.0
C492 C 0.86197 0.10351 0.20751 0.0
N493 N 0.86547 0.04111 0.20455 0.0
N494 N 0.87069 0.03703 0.19383 0.0
C495 C 0.87339 0.09715 0.18966 0.0
C496 C 0.86661 0.14155 0.19815 0.0
C497 C 0.84474 0.12494 0.21887 0.0
H498 H 0.80326 0.09612 0.2219 0.0
H499 H 0.83217 0.17679 0.21922 0.0
H500 H 0.88625 0.11568 0.22442 0.0
O501 O 0.92147 0.89892 0.21017 0.0
O502 O 0.92929 0.89426 0.19204 0.0
H503 H 0.91956 0.08273 0.17416 0.0
H504 H 0.89101 0.164 0.17638 0.0
C505 C 0.88017 0.11217 0.1777 0.0
H506 H 0.83477 0.09985 0.17336 0.0
H507 H 0.96761 0.94735 0.17001 0.0
O508 O 0.85586 0.9854 0.22878 0.0
C509 C 0.94515 0.87389 0.20153 0.0
Co510 Co 0.78584 0.10132 0.96323 0.0
Co511 Co 0.79562 0.09544 0.93734 0.0
C512 C 0.85175 0.99234 0.95166 0.0
O513 O 0.83146 0.02067 0.96023 0.0
O514 O 0.83878 0.01371 0.94208 0.0
C515 C 0.76485 0.05589 0.98511 0.0
O516 O 0.76979 -0.00041 0.98026 0.0
C517 C 0.77162 0.04987 0.91466 0.0
C518 C 0.7736 0.14187 0.90554 0.0
C519 C 0.76176 0.07654 0.90431 0.0
N520 N 0.78644 0.09772 0.92169 0.0
N521 N 0.78862 0.15236 0.91613 0.0
C522 C 0.76992 0.98019 0.91784 0.0
H523 H 0.72671 0.97085 0.92297 0.0
H524 H 0.76926 0.94833 0.91053 0.0
H525 H 0.81307 0.96856 0.92285 0.0
C526 C 0.64671 0.10696 0.95785 0.0
N527 N 0.70935 0.1079 0.95487 0.0
N528 N 0.71338 0.10883 0.94411 0.0
C529 C 0.65312 0.1112 0.93991 0.0
C530 C 0.60864 0.10862 0.94844 0.0
C531 C 0.62477 0.09531 0.96937 0.0
H532 H 0.64493 0.04889 0.97231 0.0
H533 H 0.57147 0.09362 0.97006 0.0
H534 H 0.64382 0.13404 0.97476 0.0
O535 O 0.85033 0.16852 0.95951 0.0
O536 O 0.85858 0.16299 0.94139 0.0
H537 H 0.58579 0.12413 0.92648 0.0
H538 H 0.65037 0.06772 0.92399 0.0
C539 C 0.63778 0.11417 0.92791 0.0
H540 H 0.66669 0.15283 0.92402 0.0
H541 H 0.79832 0.19717 0.91965 0.0
O542 O 0.76855 0.10668 0.9793 0.0
C543 C 0.87699 0.18592 0.95057 0.0
Co544 Co 0.83575 0.53811 0.71395 0.0
Co545 Co 0.8433 0.53631 0.68804 0.0
C546 C 0.73386 0.59867 0.69938 0.0
O547 O 0.75681 0.58601 0.70887 0.0
O548 O 0.75955 0.57622 0.69072 0.0
C549 C 0.78088 0.52908 0.7358 0.0
O550 O 0.72711 0.54399 0.73067 0.0
C551 C 0.81147 0.52444 0.66453 0.0
C552 C 0.90638 0.50095 0.65736 0.0
C553 C 0.84157 0.50764 0.6548 0.0
N554 N 0.85621 0.52609 0.67256 0.0
N555 N 0.91304 0.5132 0.66816 0.0
C556 C 0.74118 0.53775 0.66626 0.0
H557 H 0.73553 0.58689 0.66971 0.0
H558 H 0.72128 0.50309 0.67231 0.0
H559 H 0.7134 0.53474 0.65848 0.0
C560 C 0.85052 0.39588 0.70999 0.0
N561 N 0.84984 0.45747 0.70641 0.0
N562 N 0.85284 0.45742 0.69567 0.0
C563 C 0.8548 0.39629 0.692 0.0
C564 C 0.85951 0.35382 0.70099 0.0
C565 C 0.82364 0.3792 0.72104 0.0
H566 H 0.78901 0.4167 0.72364 0.0
H567 H 0.79646 0.33316 0.72085 0.0
H568 H 0.86317 0.37746 0.7272 0.0
O569 O 0.90612 0.60185 0.71113 0.0
O570 O 0.90566 0.60132 0.69296 0.0
H571 H 0.87461 0.36979 0.67527 0.0
H572 H 0.79781 0.33972 0.68061 0.0
C573 C 0.83255 0.38038 0.6806 0.0
H574 H 0.80534 0.42095 0.6771 0.0
H575 H 0.95604 0.51042 0.67262 0.0
O576 O 0.83265 0.5242 0.73025 0.0
C577 C 0.92576 0.62448 0.702 0.0
Co578 Co 0.71075 0.62637 0.9635 0.0
Co579 Co 0.71484 0.60832 0.93774 0.0
C580 C 0.64662 0.5141 0.9509 0.0
O581 O 0.66042 0.54885 0.95921 0.0
O582 O 0.66962 0.52701 0.94146 0.0
C583 C 0.72461 0.5714 0.98474 0.0
O584 O 0.72326 0.51834 0.97887 0.0
C585 C 0.73712 0.57122 0.91442 0.0
C586 C 0.75925 0.66658 0.90728 0.0
C587 C 0.75447 0.60176 0.9047 0.0
N588 N 0.73245 0.61609 0.92237 0.0
N589 N 0.74531 0.67295 0.918 0.0
C590 C 0.72247 0.50126 0.91609 0.0
H591 H 0.67722 0.4962 0.92085 0.0
H592 H 0.76191 0.4787 0.92091 0.0
H593 H 0.7169 0.47556 0.90816 0.0
C594 C 0.85077 0.63571 0.9604 0.0
N595 N 0.7906 0.63085 0.95634 0.0
N596 N 0.79333 0.61877 0.94578 0.0
C597 C 0.85582 0.61296 0.94284 0.0
C598 C 0.89459 0.62318 0.95205 0.0
C599 C 0.86563 0.64964 0.97219 0.0
H600 H 0.83498 0.69002 0.97508 0.0
H601 H 0.85379 0.60686 0.97726 0.0
H602 H 0.91735 0.66211 0.97335 0.0
O603 O 0.6553 0.69747 0.95915 0.0
O604 O 0.64974 0.67629 0.94129 0.0
H605 H 0.8727 0.62957 0.92581 0.0
H606 H 0.92768 0.57236 0.93189 0.0
C607 C 0.87706 0.58959 0.93181 0.0
H608 H 0.84512 0.54983 0.92907 0.0
H609 H 0.7456 0.71608 0.92239 0.0
O610 O 0.72137 0.62538 0.97981 0.0
C611 C 0.63086 0.70746 0.94971 0.0
Co612 Co 0.65854 0.45765 0.21313 0.0
Co613 Co 0.64984 0.4631 0.18707 0.0
C614 C 0.75884 0.39818 0.1982 0.0
O615 O 0.73656 0.41049 0.20772 0.0
O616 O 0.73357 0.4219 0.18956 0.0
C617 C 0.70876 0.45017 0.23546 0.0
O618 O 0.75593 0.41788 0.23085 0.0
C619 C 0.68129 0.48283 0.16362 0.0
C620 C 0.58609 0.50897 0.15676 0.0
C621 C 0.6506 0.50208 0.154 0.0
N622 N 0.63713 0.47969 0.1717 0.0
N623 N 0.58019 0.49451 0.16749 0.0
C624 C 0.7508 0.465 0.16511 0.0
H625 H 0.7539 0.41711 0.16911 0.0
H626 H 0.77456 0.50067 0.17057 0.0
H627 H 0.77678 0.46241 0.15718 0.0
C628 C 0.64248 0.5975 0.21006 0.0
N629 N 0.64369 0.53733 0.20598 0.0
N630 N 0.64265 0.54032 0.19521 0.0
C631 C 0.64338 0.6027 0.1921 0.0
C632 C 0.64352 0.64132 0.20142 0.0
C633 C 0.64494 0.61257 0.22207 0.0
H634 H 0.60634 0.58537 0.22636 0.0
H635 H 0.69195 0.59663 0.22551 0.0
H636 H 0.63851 0.6649 0.22362 0.0
O637 O 0.58965 0.39589 0.20992 0.0
O638 O 0.5875 0.39532 0.19168 0.0
H639 H 0.61018 0.61538 0.17564 0.0
H640 H 0.66679 0.67618 0.18 0.0
C641 C 0.65453 0.62427 0.18052 0.0
H642 H 0.69439 0.59591 0.17688 0.0
H643 H 0.53754 0.49647 0.17201 0.0
O644 O 0.66287 0.47076 0.22945 0.0
C645 C 0.56984 0.3721 0.20089 0.0
Co646 Co 0.78206 0.39662 0.46475 0.0
Co647 Co 0.7823 0.41549 0.43905 0.0
C648 C 0.84434 0.51187 0.45284 0.0
O649 O 0.82976 0.47687 0.46108 0.0
O650 O 0.82398 0.49796 0.44324 0.0
C651 C 0.75503 0.4469 0.4859 0.0
O652 O 0.74908 0.50029 0.4802 0.0
C653 C 0.76166 0.45151 0.41539 0.0
C654 C 0.75262 0.35426 0.40818 0.0
C655 C 0.7509 0.41912 0.40555 0.0
N656 N 0.769 0.40752 0.42346 0.0
N657 N 0.76384 0.3496 0.41903 0.0
C658 C 0.76709 0.52282 0.41701 0.0
H659 H 0.80266 0.53377 0.42355 0.0
H660 H 0.71962 0.54234 0.41956 0.0
H661 H 0.78184 0.54705 0.40929 0.0
C662 C 0.64329 0.37867 0.46069 0.0
N663 N 0.70375 0.38834 0.45705 0.0
N664 N 0.70225 0.40144 0.44652 0.0
C665 C 0.64001 0.40359 0.4432 0.0
C666 C 0.60011 0.38877 0.45209 0.0
C667 C 0.62745 0.36137 0.4723 0.0
H668 H 0.66374 0.32688 0.47552 0.0
H669 H 0.62931 0.40537 0.47746 0.0
H670 H 0.57854 0.3397 0.47289 0.0
O671 O 0.84215 0.32865 0.46087 0.0
O672 O 0.84962 0.34951 0.44306 0.0
H673 H 0.62101 0.38857 0.42616 0.0
H674 H 0.57019 0.44899 0.4324 0.0
C675 C 0.61958 0.42852 0.4322 0.0
H676 H 0.65349 0.46649 0.42948 0.0
H677 H 0.76725 0.30673 0.42346 0.0
O678 O 0.76819 0.39496 0.48086 0.0
C679 C 0.86878 0.31951 0.45162 0.0
Co680 Co 0.84746 0.45633 0.80402 0.0
Co681 Co 0.84947 0.46378 0.82999 0.0
C682 C 0.74364 0.39767 0.81852 0.0
O683 O 0.76944 0.40845 0.80921 0.0
O684 O 0.7656 0.42312 0.82727 0.0
C685 C 0.78804 0.47896 0.78308 0.0
O686 O 0.73603 0.48253 0.78919 0.0
C687 C 0.81449 0.49127 0.85294 0.0
C688 C 0.91038 0.49864 0.86084 0.0
C689 C 0.84487 0.50411 0.86287 0.0
N690 N 0.86008 0.47988 0.84534 0.0
N691 N 0.91725 0.4837 0.85015 0.0
C692 C 0.74347 0.48587 0.85078 0.0
H693 H 0.72959 0.51875 0.844 0.0
H694 H 0.71452 0.49661 0.8582 0.0
H695 H 0.73229 0.43602 0.84809 0.0
C696 C 0.86533 0.59677 0.80693 0.0
N697 N 0.86125 0.53679 0.81106 0.0
N698 N 0.85999 0.54034 0.82183 0.0
C699 C 0.86106 0.6028 0.82486 0.0
C700 C 0.86362 0.64098 0.8155 0.0
C701 C 0.8661 0.61194 0.79492 0.0
H702 H 0.90125 0.58018 0.79071 0.0
H703 H 0.81772 0.60257 0.79135 0.0
H704 H 0.87918 0.66314 0.79347 0.0
O705 O 0.91707 0.39573 0.80753 0.0
O706 O 0.91207 0.39631 0.82574 0.0
H707 H 0.88934 0.60695 0.84173 0.0
H708 H 0.84883 0.67855 0.83702 0.0
C709 C 0.85009 0.62532 0.83638 0.0
H710 H 0.80372 0.60562 0.83941 0.0
H711 H 0.96102 0.47716 0.84609 0.0
O712 O 0.84196 0.46773 0.78773 0.0
C713 C 0.93391 0.37301 0.81682 0.0
Co714 Co 0.78152 0.60979 0.05393 0.0
Co715 Co 0.79107 0.61487 0.07985 0.0
C716 C 0.85099 0.50848 0.06621 0.0
O717 O 0.82671 0.5293 0.05729 0.0
O718 O 0.83909 0.53537 0.0754 0.0
C719 C 0.75613 0.56142 0.03236 0.0
O720 O 0.75864 0.50613 0.03758 0.0
C721 C 0.76219 0.57004 0.10232 0.0
C722 C 0.77431 0.65995 0.11182 0.0
C723 C 0.75598 0.59598 0.11279 0.0
N724 N 0.78155 0.61711 0.09547 0.0
N725 N 0.78947 0.67048 0.10123 0.0
C726 C 0.75203 0.50155 0.09884 0.0
H727 H 0.79189 0.48629 0.09338 0.0
H728 H 0.70647 0.49778 0.09407 0.0
H729 H 0.74993 0.46871 0.10602 0.0
C730 C 0.6422 0.61587 0.05929 0.0
N731 N 0.70498 0.61873 0.0622 0.0
N732 N 0.70931 0.62554 0.07289 0.0
C733 C 0.64931 0.63085 0.07704 0.0
C734 C 0.60449 0.62279 0.06865 0.0
C735 C 0.61976 0.59784 0.04801 0.0
H736 H 0.63842 0.63348 0.04202 0.0
H737 H 0.63985 0.55003 0.04583 0.0
H738 H 0.56646 0.59574 0.04737 0.0
O739 O 0.84754 0.67647 0.05746 0.0
O740 O 0.85116 0.68335 0.07564 0.0
H741 H 0.58342 0.65826 0.08994 0.0
H742 H 0.64239 0.59856 0.0937 0.0
C743 C 0.6344 0.643 0.08888 0.0
H744 H 0.66679 0.68112 0.09212 0.0
H745 H 0.80371 0.71452 0.09789 0.0
O746 O 0.76387 0.6132 0.0378 0.0
C747 C 0.87214 0.6996 0.06623 0.0
Co748 Co 0.65146 0.53852 0.30337 0.0
Co749 Co 0.65384 0.53339 0.32938 0.0
C750 C 0.75723 0.59927 0.31745 0.0
O751 O 0.72996 0.58779 0.30825 0.0
O752 O 0.73623 0.57529 0.32636 0.0
C753 C 0.70725 0.50706 0.28253 0.0
O754 O 0.75866 0.49837 0.28869 0.0
C755 C 0.6902 0.51437 0.3527 0.0
C756 C 0.59491 0.49808 0.36033 0.0
C757 C 0.66036 0.50062 0.36263 0.0
N758 N 0.64444 0.51871 0.34486 0.0
N759 N 0.58759 0.50952 0.34952 0.0
C760 C 0.76038 0.52732 0.35076 0.0
H761 H 0.76603 0.5765 0.34732 0.0
H762 H 0.77931 0.4928 0.34461 0.0
H763 H 0.78901 0.52409 0.35844 0.0
C764 C 0.64029 0.39697 0.30682 0.0
N765 N 0.64154 0.45775 0.31071 0.0
N766 N 0.64611 0.45555 0.32147 0.0
C767 C 0.65084 0.39359 0.32471 0.0
C768 C 0.64774 0.35407 0.31551 0.0
C769 C 0.63416 0.37988 0.29493 0.0
H770 H 0.599 0.41247 0.29088 0.0
H771 H 0.68145 0.38576 0.29083 0.0
H772 H 0.61823 0.32909 0.29393 0.0
O773 O 0.58083 0.59894 0.3068 0.0
O774 O 0.58902 0.59915 0.32496 0.0
H775 H 0.62687 0.38495 0.34168 0.0
H776 H 0.6791 0.32173 0.3368 0.0
C777 C 0.66788 0.37378 0.33617 0.0
H778 H 0.7103 0.40182 0.33901 0.0
H779 H 0.54376 0.51023 0.34527 0.0
O780 O 0.6552 0.52545 0.28709 0.0
C781 C 0.56515 0.62187 0.31612 0.0
Co782 Co 0.70795 0.38648 0.5546 0.0
Co783 Co 0.70816 0.40159 0.58029 0.0
C784 C 0.64356 0.49826 0.56692 0.0
O785 O 0.65834 0.4646 0.55855 0.0
O786 O 0.66394 0.48326 0.57646 0.0
C787 C 0.72706 0.44132 0.53355 0.0
O788 O 0.72826 0.49424 0.53946 0.0
C789 C 0.72966 0.44069 0.60343 0.0
C790 C 0.74654 0.34561 0.61109 0.0
C791 C 0.74479 0.411 0.61333 0.0
N792 N 0.72339 0.39475 0.5957 0.0
N793 N 0.73301 0.33808 0.60038 0.0
C794 C 0.71781 0.51085 0.6014 0.0
H795 H 0.66972 0.51684 0.59752 0.0
H796 H 0.75428 0.52978 0.59558 0.0
H797 H 0.71916 0.53924 0.60911 0.0
C798 C 0.84795 0.37905 0.55828 0.0
N799 N 0.78715 0.38169 0.56208 0.0
N800 N 0.78828 0.39199 0.57271 0.0
C801 C 0.85035 0.39846 0.57596 0.0
C802 C 0.89047 0.3909 0.56689 0.0
C803 C 0.8648 0.36914 0.54646 0.0
H804 H 0.83483 0.32966 0.543 0.0
H805 H 0.85392 0.41357 0.54176 0.0
H806 H 0.91674 0.35731 0.5455 0.0
O807 O 0.65103 0.31545 0.55858 0.0
O808 O 0.64369 0.33275 0.57651 0.0
H809 H 0.85852 0.38189 0.5932 0.0
H810 H 0.92221 0.43163 0.58771 0.0
C811 C 0.86998 0.42032 0.58719 0.0
H812 H 0.84201 0.46377 0.58944 0.0
H813 H 0.73155 0.29429 0.59618 0.0
O814 O 0.72031 0.38749 0.53841 0.0
C815 C 0.62579 0.30305 0.56785 0.0
Co816 Co 0.16068 0.45817 0.3041 0.0
Co817 Co 0.15918 0.46283 0.3299 0.0
C818 C 0.2657 0.40049 0.31881 0.0
O819 O 0.23811 0.40986 0.30958 0.0
O820 O 0.24545 0.42756 0.3275 0.0
C821 C 0.22026 0.47002 0.28287 0.0
O822 O 0.27386 0.46192 0.28848 0.0
C823 C 0.18746 0.48049 0.3535 0.0
C824 C 0.08981 0.49657 0.3602 0.0
C825 C 0.15437 0.49348 0.36315 0.0
N826 N 0.14439 0.47661 0.34523 0.0
N827 N 0.0861 0.4858 0.34933 0.0
C828 C 0.25836 0.46912 0.35215 0.0
H829 H 0.26592 0.42093 0.34844 0.0
H830 H 0.27864 0.50556 0.34645 0.0
H831 H 0.28452 0.47086 0.36009 0.0
C832 C 0.13454 0.59664 0.3072 0.0
N833 N 0.14371 0.53714 0.31126 0.0
N834 N 0.1474 0.54037 0.32199 0.0
C835 C 0.14491 0.60268 0.3251 0.0
C836 C 0.13598 0.64101 0.31579 0.0
C837 C 0.12615 0.61034 0.29521 0.0
H838 H 0.09322 0.57404 0.29153 0.0
H839 H 0.17352 0.60619 0.29104 0.0
H840 H 0.10615 0.6593 0.29384 0.0
O841 O 0.09174 0.39718 0.30684 0.0
O842 O 0.09984 0.39206 0.32499 0.0
H843 H 0.11764 0.62493 0.34157 0.0
H844 H 0.18311 0.6739 0.33643 0.0
C845 C 0.16186 0.62485 0.33645 0.0
H846 H 0.19723 0.59145 0.34019 0.0
H847 H 0.0438 0.48559 0.34465 0.0
O848 O 0.16678 0.47059 0.28797 0.0
C849 C 0.07747 0.37065 0.31592 0.0
Co850 Co 0.29284 0.40471 0.05524 0.0
Co851 Co 0.2841 0.40057 0.0811 0.0
C852 C 0.35114 0.50756 0.0698 0.0
O853 O 0.3391 0.48393 0.06035 0.0
O854 O 0.32806 0.4829 0.07853 0.0
C855 C 0.28009 0.45573 0.03318 0.0
O856 O 0.28237 0.51214 0.03806 0.0
C857 C 0.25776 0.43285 0.10433 0.0
C858 C 0.24284 0.33583 0.11136 0.0
C859 C 0.24213 0.40079 0.11396 0.0
N860 N 0.26689 0.38876 0.09638 0.0
N861 N 0.25873 0.33088 0.10069 0.0
C862 C 0.25924 0.50413 0.10249 0.0
H863 H 0.24631 0.51563 0.09388 0.0
H864 H 0.22565 0.52914 0.10815 0.0
H865 H 0.30889 0.52208 0.10408 0.0
C866 C 0.15128 0.39299 0.05773 0.0
N867 N 0.21124 0.39287 0.06202 0.0
N868 N 0.2071 0.39362 0.07278 0.0
C869 C 0.14432 0.39623 0.07567 0.0
C870 C 0.10655 0.39641 0.06622 0.0
C871 C 0.13724 0.39406 0.04568 0.0
H872 H 0.16581 0.35605 0.04153 0.0
H873 H 0.15206 0.44123 0.04222 0.0
H874 H 0.08511 0.38615 0.04401 0.0
O875 O 0.35381 0.33553 0.05885 0.0
O876 O 0.3505 0.33616 0.07702 0.0
H877 H 0.13622 0.36734 0.09245 0.0
H878 H 0.06888 0.41468 0.08766 0.0
C879 C 0.12189 0.40839 0.08716 0.0
H880 H 0.14561 0.45242 0.09037 0.0
H881 H 0.26237 0.288 0.09626 0.0
O882 O 0.28357 0.40499 0.03899 0.0
C883 C 0.37507 0.31623 0.06808 0.0
Co884 Co 0.33411 0.53593 0.80299 0.0
Co885 Co 0.32441 0.54542 0.82894 0.0
C886 C 0.22144 0.59835 0.81447 0.0
O887 O 0.25198 0.57927 0.80603 0.0
O888 O 0.24115 0.58508 0.82414 0.0
C889 C 0.30859 0.55243 0.7802 0.0
O890 O 0.28169 0.60538 0.78389 0.0
C891 C 0.2851 0.52486 0.8523 0.0
C892 C 0.3783 0.54224 0.86064 0.0
C893 C 0.31456 0.52557 0.8626 0.0
N894 N 0.32975 0.53987 0.84467 0.0
N895 N 0.3851 0.55068 0.84977 0.0
C896 C 0.2154 0.51242 0.84978 0.0
H897 H 0.20063 0.53845 0.84225 0.0
H898 H 0.20795 0.46016 0.84834 0.0
H899 H 0.18446 0.52751 0.85674 0.0
C900 C 0.34177 0.39755 0.80854 0.0
N901 N 0.34193 0.46011 0.81152 0.0
N902 N 0.34146 0.46416 0.82228 0.0
C903 C 0.34456 0.40423 0.8265 0.0
C904 C 0.34303 0.3596 0.81796 0.0
C905 C 0.33086 0.37562 0.79698 0.0
H906 H 0.28899 0.40178 0.79344 0.0
H907 H 0.32175 0.3231 0.79642 0.0
H908 H 0.37389 0.38795 0.79199 0.0
O909 O 0.40035 0.60327 0.80644 0.0
O910 O 0.38828 0.61019 0.82447 0.0
H911 H 0.35997 0.33828 0.84 0.0
H912 H 0.30114 0.40084 0.8424 0.0
C913 C 0.34805 0.3897 0.83852 0.0
H914 H 0.38544 0.42047 0.84241 0.0
H915 H 0.42791 0.56304 0.84579 0.0
O916 O 0.33659 0.51512 0.78699 0.0
C917 C 0.41319 0.63038 0.81559 0.0
Co918 Co 0.21296 0.61935 0.55419 0.0
Co919 Co 0.21087 0.6003 0.57979 0.0
C920 C 0.14445 0.508 0.56621 0.0
O921 O 0.16117 0.54242 0.55805 0.0
O922 O 0.16672 0.519 0.57579 0.0
C923 C 0.23609 0.56422 0.53335 0.0
O924 O 0.23882 0.51172 0.53935 0.0
C925 C 0.23082 0.56084 0.60292 0.0
C926 C 0.25125 0.65511 0.61064 0.0
C927 C 0.24848 0.58966 0.61277 0.0
N928 N 0.2248 0.60722 0.59526 0.0
N929 N 0.23626 0.66346 0.59998 0.0
C930 C 0.21762 0.49092 0.60085 0.0
H931 H 0.16941 0.48566 0.59696 0.0
H932 H 0.25372 0.47149 0.59502 0.0
H933 H 0.2187 0.46251 0.60856 0.0
C934 C 0.35201 0.63126 0.55832 0.0
N935 N 0.29107 0.62472 0.5619 0.0
N936 N 0.29153 0.61167 0.57243 0.0
C937 C 0.35344 0.60659 0.57582 0.0
C938 C 0.39426 0.61917 0.56696 0.0
C939 C 0.36913 0.64627 0.54666 0.0
H940 H 0.33511 0.68261 0.54332 0.0
H941 H 0.36453 0.60194 0.54164 0.0
H942 H 0.41933 0.66472 0.54605 0.0
O943 O 0.15522 0.68947 0.55796 0.0
O944 O 0.14476 0.66665 0.57568 0.0
H945 H 0.37097 0.62001 0.59295 0.0
H946 H 0.42129 0.55905 0.58676 0.0
C947 C 0.37233 0.5805 0.58682 0.0
H948 H 0.33759 0.54289 0.58936 0.0
H949 H 0.2357 0.70744 0.59583 0.0
O950 O 0.22677 0.61796 0.5381 0.0
C951 C 0.12687 0.69725 0.56712 0.0
Co952 Co 0.16149 0.53299 0.21444 0.0
Co953 Co 0.16117 0.54238 0.18858 0.0
C954 C 0.26809 0.59822 0.20172 0.0
O955 O 0.24046 0.57925 0.21046 0.0
O956 O 0.24597 0.58344 0.19226 0.0
C957 C 0.21833 0.50647 0.23537 0.0
O958 O 0.27177 0.50818 0.22959 0.0
C959 C 0.19205 0.5162 0.16528 0.0
C960 C 0.09617 0.52976 0.15764 0.0
C961 C 0.15894 0.5111 0.1554 0.0
N962 N 0.15031 0.53587 0.17304 0.0
N963 N 0.09345 0.54511 0.16835 0.0
C964 C 0.26031 0.49678 0.16757 0.0
H965 H 0.26759 0.4882 0.17648 0.0
H966 H 0.27288 0.45278 0.16285 0.0
H967 H 0.29309 0.53613 0.16492 0.0
C968 C 0.15295 0.39379 0.2091 0.0
N969 N 0.15166 0.45642 0.20615 0.0
N970 N 0.14784 0.46051 0.1954 0.0
C971 C 0.14331 0.40048 0.19123 0.0
C972 C 0.14842 0.35588 0.19971 0.0
C973 C 0.16775 0.37149 0.22052 0.0
H974 H 0.21716 0.38737 0.22278 0.0
H975 H 0.1649 0.31842 0.22133 0.0
H976 H 0.13338 0.394 0.22633 0.0
O977 O 0.09251 0.59789 0.21171 0.0
O978 O 0.09786 0.60617 0.19359 0.0
H979 H 0.12101 0.33419 0.17807 0.0
H980 H 0.18112 0.39413 0.17493 0.0
C981 C 0.13519 0.38532 0.17929 0.0
H982 H 0.0976 0.41689 0.17569 0.0
H983 H 0.05211 0.55931 0.17256 0.0
O984 O 0.16466 0.5149 0.23048 0.0
C985 C 0.07565 0.62507 0.20277 0.0
Co986 Co 0.21567 0.39559 0.96439 0.0
Co987 Co 0.20899 0.41395 0.93865 0.0
C988 C 0.1479 0.50818 0.95282 0.0
O989 O 0.16637 0.47469 0.961 0.0
O990 O 0.16616 0.49486 0.9431 0.0
C991 C 0.24269 0.44674 0.98567 0.0
O992 O 0.24203 0.50132 0.9802 0.0
C993 C 0.22043 0.45547 0.91533 0.0
C994 C 0.24618 0.36319 0.90744 0.0
C995 C 0.23729 0.42813 0.90531 0.0
N996 N 0.22065 0.40884 0.92303 0.0
N997 N 0.23546 0.35379 0.91821 0.0
C998 C 0.20165 0.52386 0.91754 0.0
H999 H 0.15609 0.52476 0.9223 0.0
H1000 H 0.23956 0.54732 0.92261 0.0
H1001 H 0.19464 0.55133 0.90982 0.0
C1002 C 0.35361 0.38324 0.95958 0.0
N1003 N 0.29204 0.38911 0.95624 0.0
N1004 N 0.2907 0.40263 0.94572 0.0
C1005 C 0.35198 0.40911 0.94212 0.0
C1006 C 0.39434 0.39661 0.95081 0.0
C1007 C 0.3727 0.36778 0.97114 0.0
H1008 H 0.33956 0.33084 0.97455 0.0
H1009 H 0.36854 0.41177 0.97626 0.0
H1010 H 0.42313 0.34984 0.97155 0.0
O1011 O 0.15451 0.32755 0.96069 0.0
O1012 O 0.1435 0.3467 0.94284 0.0
H1013 H 0.36913 0.39775 0.92496 0.0
H1014 H 0.41658 0.46085 0.93124 0.0
C1015 C 0.36869 0.43693 0.93115 0.0
H1016 H 0.3318 0.47275 0.92868 0.0
H1017 H 0.23964 0.30992 0.92233 0.0
O1018 O 0.23317 0.39441 0.98047 0.0
C1019 C 0.12572 0.31798 0.9516 0.0
Co1020 Co 0.35287 0.45152 0.71307 0.0
Co1021 Co 0.35714 0.45858 0.68719 0.0
C1022 C 0.25 0.39162 0.69865 0.0
O1023 O 0.27285 0.40486 0.70813 0.0
O1024 O 0.27632 0.41279 0.68994 0.0
C1025 C 0.2989 0.48504 0.73376 0.0
O1026 O 0.24839 0.49781 0.72759 0.0
C1027 C 0.31997 0.48204 0.66414 0.0
C1028 C 0.41517 0.49549 0.65632 0.0
C1029 C 0.34944 0.4956 0.65417 0.0
N1030 N 0.36623 0.47492 0.67182 0.0
N1031 N 0.42301 0.48248 0.66706 0.0
C1032 C 0.24951 0.47199 0.6663 0.0
H1033 H 0.24196 0.42214 0.66932 0.0
H1034 H 0.23332 0.50534 0.67285 0.0
H1035 H 0.2197 0.4788 0.65882 0.0
C1036 C 0.37027 0.59285 0.71008 0.0
N1037 N 0.36586 0.53258 0.70604 0.0
N1038 N 0.36304 0.53584 0.69528 0.0
C1039 C 0.36229 0.5982 0.69218 0.0
C1040 C 0.36633 0.6367 0.70148 0.0
C1041 C 0.37689 0.60892 0.72201 0.0
H1042 H 0.40944 0.5738 0.72608 0.0
H1043 H 0.32907 0.60644 0.72603 0.0
H1044 H 0.39639 0.6584 0.7231 0.0
O1045 O 0.42334 0.39176 0.7097 0.0
O1046 O 0.42486 0.39616 0.6915 0.0
H1047 H 0.39032 0.60608 0.67538 0.0
H1048 H 0.34227 0.67283 0.68011 0.0
C1049 C 0.3492 0.62001 0.68067 0.0
H1050 H 0.3053 0.59561 0.67753 0.0
H1051 H 0.46711 0.47957 0.67119 0.0
O1052 O 0.34958 0.46312 0.72925 0.0
C1053 C 0.44528 0.37262 0.70052 0.0
Co1054 Co 0.28337 0.60908 0.46447 0.0
Co1055 Co 0.27952 0.58536 0.43904 0.0
C1056 C 0.34244 0.4911 0.45261 0.0
O1057 O 0.3301 0.52855 0.46063 0.0
O1058 O 0.31897 0.50195 0.44311 0.0
C1059 C 0.26014 0.55852 0.48568 0.0
O1060 O 0.25432 0.50501 0.48001 0.0
C1061 C 0.2572 0.54764 0.4158 0.0
C1062 C 0.2419 0.64342 0.40829 0.0
C1063 C 0.24223 0.57816 0.40597 0.0
N1064 N 0.26431 0.593 0.42361 0.0
N1065 N 0.25559 0.65007 0.41903 0.0
C1066 C 0.26776 0.47716 0.41769 0.0
H1067 H 0.31508 0.47004 0.42179 0.0
H1068 H 0.22997 0.45829 0.42327 0.0
H1069 H 0.26705 0.44966 0.40988 0.0
C1070 C 0.14401 0.62851 0.46088 0.0
N1071 N 0.20396 0.61746 0.45711 0.0
N1072 N 0.20106 0.60231 0.44667 0.0
C1073 C 0.13854 0.60044 0.44354 0.0
C1074 C 0.09981 0.61753 0.45244 0.0
C1075 C 0.12958 0.64734 0.47247 0.0
H1076 H 0.16664 0.68184 0.47546 0.0
H1077 H 0.13154 0.60393 0.47777 0.0
H1078 H 0.08098 0.6695 0.47312 0.0
O1079 O 0.34442 0.67602 0.46025 0.0
O1080 O 0.34958 0.64831 0.4427 0.0
H1081 H 0.11681 0.61237 0.42651 0.0
H1082 H 0.06743 0.55262 0.43327 0.0
C1083 C 0.11664 0.57344 0.43275 0.0
H1084 H 0.15028 0.53525 0.43005 0.0
H1085 H 0.25795 0.69363 0.42329 0.0
O1086 O 0.27161 0.61078 0.4806 0.0
C1087 C 0.37119 0.68002 0.4509 0.0
C1088 C 0.27586 0.93209 0.14267 0.0
C1089 C 0.32801 0.97552 0.14327 0.0
C1090 C 0.25256 0.91007 0.13251 0.0
C1091 C 0.28013 0.93127 0.12263 0.0
H1092 H 0.25445 0.91312 0.1501 0.0
H1093 H 0.21326 0.87555 0.13239 0.0
S1094 S 0.41923 0.04259 0.11974 0.0
N1095 N 0.40738 0.0377 0.13311 0.0
N1096 N 0.36371 0.9961 0.11404 0.0
C1097 C 0.33216 0.97469 0.1231 0.0
C1098 C 0.35615 0.99674 0.13343 0.0
C1099 C 0.23268 0.02263 0.38826 0.0
C1100 C 0.26271 0.07759 0.39273 0.0
C1101 C 0.25535 0.99468 0.37849 0.0
C1102 C 0.30964 0.01997 0.37308 0.0
H1103 H 0.19108 0.0016 0.39228 0.0
H1104 H 0.23112 0.95241 0.37526 0.0
S1105 S 0.40515 0.163 0.38146 0.0
N1106 N 0.3487 0.15657 0.39094 0.0
N1107 N 0.39231 0.10306 0.3728 0.0
C1108 C 0.34 0.0747 0.37749 0.0
C1109 C 0.31621 0.10384 0.38727 0.0
C1110 C 0.23213 0.04395 0.64214 0.0
C1111 C 0.18998 0.99099 0.6431 0.0
C1112 C 0.2528 0.066 0.63184 0.0
C1113 C 0.2324 0.03594 0.62209 0.0
H1114 H 0.24691 0.07078 0.64933 0.0
H1115 H 0.28376 0.10809 0.6315 0.0
S1116 S 0.12054 0.89668 0.62 0.0
N1117 N 0.12857 0.909 0.63332 0.0
N1118 N 0.1659 0.9518 0.614 0.0
C1119 C 0.19071 0.98267 0.62289 0.0
C1120 C 0.16978 0.96004 0.63338 0.0
C1121 C 0.15548 0.9958 0.88223 0.0
C1122 C 0.17688 0.96727 0.87244 0.0
C1123 C 0.17877 0.97492 0.89244 0.0
C1124 C 0.22375 0.92436 0.89319 0.0
H1125 H 0.11991 0.03402 0.88199 0.0
H1126 H 0.15967 0.99699 0.8998 0.0
S1127 S 0.29206 0.83144 0.86998 0.0
N1128 N 0.24356 0.88442 0.86411 0.0
N1129 N 0.28763 0.84533 0.88331 0.0
C1130 C 0.24517 0.8952 0.88346 0.0
C1131 C 0.22178 0.91673 0.87307 0.0
C1132 C 0.76368 0.06594 0.88394 0.0
C1133 C 0.73777 0.04623 0.89405 0.0
C1134 C 0.73823 0.04358 0.87397 0.0
C1135 C 0.68622 -0.00019 0.87369 0.0
H1136 H 0.80317 0.10023 0.88372 0.0
H1137 H 0.75798 0.06318 0.86648 0.0
S1138 S 0.59707 0.93762 0.89789 0.0
N1139 N 0.6534 0.9848 0.90315 0.0
N1140 N 0.60813 0.93946 0.88449 0.0
C1141 C 0.65964 0.97991 0.88377 0.0
C1142 C 0.68489 0.00365 0.89392 0.0
C1143 C 0.73917 0.94218 0.64118 0.0
C1144 C 0.70087 0.99773 0.6423 0.0
C1145 C 0.75682 0.91903 0.6308 0.0
C1146 C 0.73708 0.95056 0.62115 0.0
H1147 H 0.75307 0.91435 0.64831 0.0
H1148 H 0.78483 0.87505 0.63032 0.0
S1149 S 0.63483 0.09691 0.61954 0.0
N1150 N 0.64403 0.08391 0.63282 0.0
N1151 N 0.67527 0.03894 0.61334 0.0
C1152 C 0.69925 0.0064 0.62213 0.0
C1153 C 0.68155 0.0302 0.63269 0.0
C1154 C 0.81456 0.96895 0.39241 0.0
C1155 C 0.76801 0.91943 0.39231 0.0
C1156 C 0.83846 0.9953 0.38265 0.0
C1157 C 0.81765 0.97267 0.37236 0.0
H1158 H 0.83493 0.98618 0.40003 0.0
H1159 H 0.87459 0.03302 0.38316 0.0
S1160 S 0.70265 0.83826 0.36748 0.0
N1161 N 0.70441 0.84655 0.38095 0.0
N1162 N 0.75279 0.89316 0.36265 0.0
C1163 C 0.77274 0.9218 0.37209 0.0
C1164 C 0.74735 0.89576 0.38205 0.0
C1165 C 0.84729 0.05696 0.13824 0.0
C1166 C 0.8198 0.00356 0.14357 0.0
C1167 C 0.82068 0.08116 0.1285 0.0
C1168 C 0.7666 0.05184 0.12361 0.0
H1169 H 0.88915 0.08086 0.14172 0.0
H1170 H 0.84293 0.12289 0.12472 0.0
S1171 S 0.67767 0.9098 0.13415 0.0
N1172 N 0.73603 0.9215 0.14321 0.0
N1173 N 0.68647 0.96655 0.12475 0.0
C1174 C 0.7391 0.99788 0.12876 0.0
C1175 C 0.76557 0.97387 0.1388 0.0
C1176 C 0.83253 0.51368 0.6344 0.0
C1177 C 0.81141 0.48723 0.64438 0.0
C1178 C 0.80847 0.49088 0.62434 0.0
C1179 C 0.76307 0.44038 0.62395 0.0
H1180 H 0.86868 0.55147 0.63437 0.0
H1181 H 0.82762 0.51105 0.61682 0.0
S1182 S 0.6947 0.35307 0.64781 0.0
N1183 N 0.74413 0.40675 0.65327 0.0
N1184 N 0.69859 0.36425 0.63441 0.0
C1185 C 0.74159 0.41371 0.63389 0.0
C1186 C 0.76577 0.4371 0.64411 0.0
C1187 C 0.83387 0.49572 0.88322 0.0
C1188 C 0.81622 0.52588 0.87333 0.0
C1189 C 0.81155 0.51883 0.89334 0.0
C1190 C 0.77131 0.57331 0.89393 0.0
H1191 H 0.86598 0.45454 0.88312 0.0
H1192 H 0.82812 0.49541 0.90077 0.0
S1193 S 0.714 0.67145 0.8704 0.0
N1194 N 0.75824 0.61431 0.86474 0.0
N1195 N 0.71562 0.65732 0.88374 0.0
C1196 C 0.75343 0.60387 0.88408 0.0
C1197 C 0.77594 0.58021 0.87378 0.0
C1198 C 0.76212 0.57899 0.133 0.0
C1199 C 0.73096 0.56612 0.12298 0.0
C1200 C 0.73685 0.55667 0.14296 0.0
C1201 C 0.67948 0.5203 0.14329 0.0
H1202 H 0.8059 0.60764 0.13317 0.0
H1203 H 0.76129 0.5702 0.15048 0.0
S1204 S 0.57638 0.47777 0.11942 0.0
N1205 N 0.63715 0.51849 0.11406 0.0
N1206 N 0.59089 0.47449 0.13274 0.0
C1207 C 0.64752 0.5075 0.13333 0.0
C1208 C 0.67306 0.53062 0.12318 0.0
C1209 C 0.68908 0.49499 0.39339 0.0
C1210 C 0.7347 0.4452 0.39454 0.0
C1211 C 0.66675 0.51406 0.38299 0.0
C1212 C 0.68988 0.4847 0.37337 0.0
H1213 H 0.66813 0.51731 0.40058 0.0
H1214 H 0.63012 0.55118 0.38248 0.0
S1215 S 0.80916 0.35193 0.3719 0.0
N1216 N 0.80244 0.36729 0.38514 0.0
N1217 N 0.76006 0.4028 0.36565 0.0
C1218 C 0.73621 0.43568 0.37439 0.0
C1219 C 0.75864 0.416 0.38496 0.0
C1220 C 0.23109 0.55394 0.37525 0.0
C1221 C 0.18069 0.50888 0.37415 0.0
C1222 C 0.25223 0.57432 0.38562 0.0
C1223 C 0.22415 0.54996 0.39526 0.0
H1224 H 0.25262 0.57561 0.36804 0.0
H1225 H 0.28999 0.61041 0.38611 0.0
S1226 S 0.08915 0.43282 0.39683 0.0
N1227 N 0.10258 0.44127 0.38355 0.0
N1228 N 0.14205 0.47999 0.40306 0.0
C1229 C 0.17404 0.50459 0.39429 0.0
C1230 C 0.15225 0.48413 0.38372 0.0
C1231 C 0.23819 0.50284 0.1399 0.0
C1232 C 0.18098 0.48195 0.14499 0.0
C1233 C 0.25773 0.47687 0.12978 0.0
C1234 C 0.2212 0.4285 0.12456 0.0
H1235 H 0.26732 0.54022 0.14366 0.0
H1236 H 0.30193 0.49427 0.12608 0.0
S1237 S 0.06878 0.35618 0.13468 0.0
N1238 N 0.08871 0.40963 0.14414 0.0
N1239 N 0.12588 0.3603 0.12528 0.0
C1240 C 0.16457 0.40664 0.12967 0.0
C1241 C 0.14424 0.43364 0.13983 0.0
C1242 C 0.24631 0.45389 0.87453 0.0
C1243 C 0.28824 0.50698 0.87351 0.0
C1244 C 0.22803 0.43049 0.88488 0.0
C1245 C 0.25063 0.45938 0.8946 0.0
H1246 H 0.23001 0.42797 0.86734 0.0
H1247 H 0.19726 0.38828 0.88527 0.0
S1248 S 0.36253 0.59872 0.89646 0.0
N1249 N 0.35153 0.588 0.88316 0.0
N1250 N 0.3187 0.54274 0.90255 0.0
C1251 C 0.29194 0.5129 0.89371 0.0
C1252 C 0.31043 0.53687 0.88318 0.0
C1253 C 0.27008 0.56004 0.64321 0.0
C1254 C 0.3194 0.51352 0.64356 0.0
C1255 C 0.24576 0.58271 0.63318 0.0
C1256 C 0.26955 0.55934 0.62315 0.0
H1257 H 0.25196 0.58107 0.65073 0.0
H1258 H 0.20898 0.61979 0.63326 0.0
S1259 S 0.4007 0.43972 0.61959 0.0
N1260 N 0.39213 0.44594 0.63302 0.0
N1261 N 0.34696 0.48915 0.61416 0.0
C1262 C 0.31871 0.51275 0.62337 0.0
C1263 C 0.34363 0.48986 0.63358 0.0
C1264 C 0.29254 0.70144 0.21079 0.0
C1265 C 0.30981 0.65577 0.20278 0.0
C1266 C 0.31664 0.76403 0.21054 0.0
C1267 C 0.36124 0.78342 0.20254 0.0
H1268 H 0.25551 0.69082 0.2168 0.0
H1269 H 0.29637 0.7984 0.21624 0.0
S1270 S 0.43279 0.67871 0.18111 0.0
N1271 N 0.37951 0.63187 0.18731 0.0
N1272 N 0.42987 0.74907 0.18745 0.0
C1273 C 0.38401 0.73665 0.19512 0.0
C1274 C 0.35716 0.67298 0.19509 0.0
C1275 C 0.50305 0.10645 0.4538 0.0
C1276 C 0.45405 0.08672 0.44652 0.0
C1277 C 0.56485 0.07834 0.45346 0.0
C1278 C 0.57996 0.03036 0.44569 0.0
H1279 H 0.49271 0.14188 0.46008 0.0
H1280 H 0.60014 0.09234 0.45959 0.0
S1281 S 0.4675 0.96177 0.42487 0.0
N1282 N 0.42414 0.01543 0.43155 0.0
N1283 N 0.54019 0.96576 0.43037 0.0
C1284 C 0.53185 0.01273 0.43803 0.0
C1285 C 0.46888 0.04001 0.43859 0.0
C1286 C 0.22668 0.28773 0.68971 0.0
C1287 C 0.20826 0.33422 0.69749 0.0
C1288 C 0.20155 0.22542 0.68996 0.0
C1289 C 0.15501 0.20732 0.69773 0.0
H1290 H 0.26503 0.29767 0.68391 0.0
H1291 H 0.22209 0.19026 0.68442 0.0
S1292 S 0.08082 0.31462 0.71851 0.0
N1293 N 0.13594 0.36023 0.71251 0.0
N1294 N 0.08399 0.24374 0.71234 0.0
C1295 C 0.13152 0.25494 0.70492 0.0
C1296 C 0.15924 0.31821 0.70496 0.0
C1297 C 0.01699 0.94381 0.96082 0.0
C1298 C 0.0359 0.89797 0.953 0.0
C1299 C 0.95444 0.96828 0.96098 0.0
C1300 C 0.90851 0.95005 0.95304 0.0
H1301 H 0.05175 0.96486 0.96641 0.0
H1302 H 0.94416 0.0064 0.9668 0.0
S1303 S 0.92982 0.8234 0.93194 0.0
N1304 N 0.00052 0.82704 0.93825 0.0
N1305 N 0.88351 0.87784 0.93792 0.0
C1306 C 0.92509 0.90124 0.94558 0.0
C1307 C 0.98862 0.87411 0.94572 0.0
C1308 C 0.37286 0.25554 0.31344 0.0
C1309 C 0.34172 0.20763 0.3197 0.0
C1310 C 0.35092 0.31981 0.31353 0.0
C1311 C 0.29882 0.3382 0.3202 0.0
H1312 H 0.41286 0.24274 0.30816 0.0
H1313 H 0.37355 0.35476 0.30817 0.0
S1314 S 0.19823 0.23029 0.33746 0.0
N1315 N 0.25315 0.18259 0.33203 0.0
N1316 N 0.21554 0.30311 0.33291 0.0
C1317 C 0.26863 0.29091 0.32669 0.0
C1318 C 0.28922 0.22567 0.32628 0.0
C1319 C 0.92672 0.08206 0.5704 0.0
C1320 C 0.90778 0.03859 0.5621 0.0
C1321 C 0.99011 0.10654 0.57089 0.0
C1322 C 0.03706 0.08739 0.56323 0.0
H1323 H 0.89334 0.09473 0.57688 0.0
H1324 H 0.00333 0.13822 0.57759 0.0
S1325 S 0.01296 0.97525 0.53983 0.0
N1326 N 0.94133 0.98101 0.54559 0.0
N1327 N 0.06048 0.0221 0.5472 0.0
C1328 C 0.01827 0.04583 0.5547 0.0
C1329 C 0.95359 0.02285 0.55395 0.0
C1330 C 0.17304 0.76231 0.80489 0.0
C1331 C 0.13025 0.78333 0.81303 0.0
C1332 C 0.19573 0.69922 0.80472 0.0
C1333 C 0.17871 0.65475 0.81296 0.0
H1334 H 0.1936 0.79585 0.79907 0.0
H1335 H 0.23222 0.68768 0.79869 0.0
S1336 S 0.05768 0.68164 0.83481 0.0
N1337 N 0.0618 0.75145 0.82831 0.0
N1338 N 0.10931 0.63328 0.82858 0.0
C1339 C 0.13193 0.67331 0.82065 0.0
C1340 C 0.10662 0.73747 0.82055 0.0
C1341 C 0.4858 0.94539 0.0563 0.0
C1342 C 0.46615 0.89923 0.06402 0.0
C1343 C 0.54831 0.97005 0.05635 0.0
C1344 C 0.5935 0.95184 0.06443 0.0
H1345 H 0.4516 0.96646 0.05062 0.0
H1346 H 0.55899 0.00827 0.05057 0.0
S1347 S 0.57016 0.82407 0.08529 0.0
N1348 N 0.50014 0.82769 0.07876 0.0
N1349 N 0.61702 0.879 0.07952 0.0
C1350 C 0.57623 0.90258 0.07176 0.0
C1351 C 0.51274 0.87518 0.0714 0.0
C1352 C 0.65524 0.32013 0.81321 0.0
C1353 C 0.70889 0.33611 0.81976 0.0
C1354 C 0.63073 0.25675 0.81308 0.0
C1355 C 0.66062 0.20738 0.81918 0.0
H1356 H 0.63323 0.3563 0.808 0.0
H1357 H 0.58953 0.24578 0.80791 0.0
S1358 S 0.80713 0.22341 0.83656 0.0
N1359 N 0.79248 0.29708 0.83214 0.0
N1360 N 0.74946 0.17819 0.83125 0.0
C1361 C 0.71467 0.22296 0.82563 0.0
C1362 C 0.7381 0.2873 0.82606 0.0
C1363 C 0.50843 0.92835 0.55429 0.0
C1364 C 0.53105 0.89036 0.56301 0.0
C1365 C 0.44512 0.95119 0.55407 0.0
C1366 C 0.40217 0.93909 0.5628 0.0
H1367 H 0.54096 0.94489 0.54795 0.0
H1368 H 0.43222 0.98382 0.54748 0.0
S1369 S 0.43352 0.82993 0.58632 0.0
N1370 N 0.50236 0.83107 0.5795 0.0
N1371 N 0.38365 0.87744 0.57948 0.0
C1372 C 0.42225 0.89611 0.57106 0.0
C1373 C 0.48668 0.87124 0.57111 0.0
C1374 C 0.85134 0.67187 0.31297 0.0
C1375 C 0.79289 0.66027 0.31846 0.0
C1376 C 0.87954 0.73372 0.31309 0.0
C1377 C 0.84885 0.78557 0.31842 0.0
H1378 H 0.87472 0.6334 0.30848 0.0
H1379 H 0.92457 0.7415 0.30879 0.0
S1380 S 0.6919 0.78057 0.33299 0.0
N1381 N 0.70446 0.70565 0.32901 0.0
N1382 N 0.75511 0.82167 0.32866 0.0
C1383 C 0.79009 0.77424 0.32379 0.0
C1384 C 0.76262 0.71159 0.32393 0.0
C1385 C 0.07475 0.09988 0.0638 0.0
C1386 C 0.09001 0.04212 0.06924 0.0
C1387 C 0.01121 0.12424 0.06398 0.0
C1388 C 0.96115 0.09022 0.06926 0.0
H1389 H 0.11168 0.12565 0.0593 0.0
H1390 H 0.00081 0.16896 0.05975 0.0
S1391 S 0.97562 0.93303 0.08355 0.0
N1392 N 0.04981 0.95066 0.07967 0.0
N1393 N 0.93074 0.99363 0.07927 0.0
C1394 C 0.97608 0.03195 0.07452 0.0
C1395 C 0.04044 0.00855 0.07467 0.0
C1396 C 0.69502 0.76584 0.69 0.0
C1397 C 0.65232 0.78883 0.69802 0.0
C1398 C 0.71492 0.70175 0.68988 0.0
C1399 C 0.69516 0.65804 0.69805 0.0
H1400 H 0.71698 0.79835 0.68415 0.0
H1401 H 0.7509 0.6882 0.68386 0.0
S1402 S 0.57554 0.69092 0.71988 0.0
N1403 N 0.58265 0.76032 0.71333 0.0
N1404 N 0.62512 0.64021 0.71371 0.0
C1405 C 0.64956 0.67904 0.70577 0.0
C1406 C 0.62702 0.74429 0.70561 0.0
C1407 C 0.97907 0.93895 0.4384 0.0
C1408 C 0.96001 0.89924 0.44715 0.0
C1409 C 0.04143 0.96429 0.43783 0.0
C1410 C 0.08699 0.95279 0.44621 0.0
H1411 H 0.94445 0.95425 0.43226 0.0
H1412 H 0.05175 0.99778 0.43124 0.0
S1413 S 0.06498 0.84155 0.46976 0.0
N1414 N 0.99452 0.84049 0.46337 0.0
N1415 N 0.11149 0.89119 0.46269 0.0
C1416 C 0.07026 0.90888 0.45455 0.0
C1417 C 0.00677 0.88168 0.45496 0.0
C1418 C 0.87463 0.25911 0.20318 0.0
C1419 C 0.84506 0.20936 0.19709 0.0
C1420 C 0.84898 0.32198 0.20319 0.0
C1421 C 0.7943 0.33709 0.19683 0.0
H1422 H 0.91632 0.24871 0.20826 0.0
H1423 H 0.8709 0.35839 0.20837 0.0
S1424 S 0.69637 0.22278 0.18023 0.0
N1425 N 0.75567 0.17872 0.18525 0.0
N1426 N 0.71002 0.29655 0.1847 0.0
C1427 C 0.76537 0.28785 0.19056 0.0
C1428 C 0.79017 0.22405 0.19081 0.0
C1429 C 0.42638 0.09983 0.9528 0.0
C1430 C 0.40971 0.04427 0.94682 0.0
C1431 C 0.49061 0.12243 0.95297 0.0
C1432 C 0.54006 0.08868 0.94751 0.0
H1433 H 0.39004 0.12495 0.95752 0.0
H1434 H 0.50206 0.16534 0.95765 0.0
S1435 S 0.52209 0.93635 0.93186 0.0
N1436 N 0.44811 0.95498 0.93569 0.0
N1437 N 0.56838 0.99449 0.93672 0.0
C1438 C 0.52378 0.03267 0.94167 0.0
C1439 C 0.4587 0.01116 0.94117 0.0
C1440 C 0.86098 0.2458 0.6908 0.0
C1441 C 0.86395 0.28054 0.70077 0.0
C1442 C 0.84093 0.18137 0.6905 0.0
C1443 C 0.82794 0.14775 0.70024 0.0
H1444 H 0.87198 0.2675 0.68304 0.0
H1445 H 0.83096 0.15971 0.68259 0.0
S1446 S 0.88588 0.19857 0.7277 0.0
N1447 N 0.89442 0.26329 0.71994 0.0
N1448 N 0.85387 0.14283 0.71968 0.0
C1449 C 0.84982 0.17579 0.71007 0.0
C1450 C 0.86974 0.24189 0.71028 0.0
C1451 C 0.07415 0.59846 0.94705 0.0
C1452 C 0.08872 0.54727 0.95422 0.0
C1453 C 0.01197 0.62576 0.94678 0.0
C1454 C 0.96221 0.60154 0.95347 0.0
H1455 H 0.11023 0.61577 0.94134 0.0
H1456 H 0.00194 0.66407 0.94098 0.0
S1457 S 0.97397 0.46557 0.97313 0.0
N1458 N 0.04751 0.47379 0.96819 0.0
N1459 N 0.93089 0.52207 0.96707 0.0
C1460 C 0.97643 0.55113 0.96075 0.0
C1461 C 0.03967 0.52477 0.96128 0.0
C1462 C 0.6338 0.75911 0.19666 0.0
C1463 C 0.66694 0.70862 0.20199 0.0
C1464 C 0.66005 0.8218 0.19629 0.0
C1465 C 0.71912 0.83548 0.20148 0.0
H1466 H 0.58842 0.74956 0.19253 0.0
H1467 H 0.63472 0.85922 0.19183 0.0
S1468 S 0.8268 0.71922 0.21566 0.0
N1469 N 0.76396 0.67598 0.21175 0.0
N1470 N 0.81101 0.79344 0.21164 0.0
C1471 C 0.75201 0.78544 0.20689 0.0
C1472 C 0.72643 0.72203 0.20701 0.0
C1473 C 0.50824 0.44117 0.4617 0.0
C1474 C 0.52972 0.40164 0.45311 0.0
C1475 C 0.44471 0.46317 0.46212 0.0
C1476 C 0.4001 0.44891 0.4537 0.0
H1477 H 0.54166 0.45909 0.46782 0.0
H1478 H 0.43262 0.49645 0.46865 0.0
S1479 S 0.42858 0.33669 0.43051 0.0
N1480 N 0.49863 0.33957 0.43702 0.0
N1481 N 0.37946 0.38479 0.43735 0.0
C1482 C 0.41936 0.40521 0.4455 0.0
C1483 C 0.48411 0.381 0.44528 0.0
C1484 C 0.87038 0.75952 0.81978 0.0
C1485 C 0.83845 0.70737 0.81471 0.0
C1486 C 0.84191 0.82112 0.82009 0.0
C1487 C 0.7818 0.83196 0.81506 0.0
H1488 H 0.91645 0.75206 0.82381 0.0
H1489 H 0.86633 0.85991 0.82437 0.0
S1490 S 0.67703 0.7105 0.80147 0.0
N1491 N 0.74181 0.67011 0.80529 0.0
N1492 N 0.69044 0.78561 0.80527 0.0
C1493 C 0.7502 0.7803 0.80986 0.0
C1494 C 0.77807 0.71799 0.80981 0.0
C1495 C 0.42363 0.5996 0.06436 0.0
C1496 C 0.41087 0.5456 0.07099 0.0
C1497 C 0.48583 0.6271 0.06405 0.0
C1498 C 0.53725 0.5998 0.07003 0.0
H1499 H 0.38594 0.61944 0.0592 0.0
H1500 H 0.49439 0.66829 0.05878 0.0
S1501 S 0.52971 0.45467 0.08778 0.0
N1502 N 0.45493 0.46533 0.08348 0.0
N1503 N 0.57169 0.51385 0.08225 0.0
C1504 C 0.52475 0.5459 0.07666 0.0
C1505 C 0.46156 0.5195 0.07728 0.0
C1506 C 0.64371 0.23653 0.32072 0.0
C1507 C 0.67245 0.28721 0.31476 0.0
C1508 C 0.67157 0.17457 0.3209 0.0
C1509 C 0.72776 0.16147 0.31486 0.0
H1510 H 0.60065 0.24542 0.32551 0.0
H1511 H 0.64976 0.13721 0.32588 0.0
S1512 S 0.82457 0.27892 0.29881 0.0
N1513 N 0.76296 0.32098 0.30348 0.0
N1514 N 0.81279 0.20476 0.30325 0.0
C1515 C 0.75628 0.21171 0.30881 0.0
C1516 C 0.72917 0.27455 0.30888 0.0
C1517 C 0.00842 0.38921 0.57204 0.0
C1518 C 0.9574 0.41539 0.56582 0.0
C1519 C 0.07051 0.41704 0.57179 0.0
C1520 C 0.0836 0.47087 0.56512 0.0
H1521 H -0.00029 0.34832 0.57736 0.0
H1522 H 0.10794 0.39743 0.57704 0.0
S1523 S 0.96456 0.55975 0.54793 0.0
N1524 N 0.92296 0.50024 0.55343 0.0
N1525 N 0.03905 0.55028 0.55243 0.0
C1526 C 0.03283 0.49634 0.55871 0.0
C1527 C 0.96986 0.46917 0.55919 0.0
C1528 C 0.21743 0.79479 0.30695 0.0
C1529 C 0.19809 0.83979 0.31494 0.0
C1530 C 0.19458 0.73175 0.30705 0.0
C1531 C 0.14918 0.71119 0.31483 0.0
H1532 H 0.25522 0.80628 0.30113 0.0
H1533 H 0.21646 0.69801 0.30141 0.0
S1534 S 0.07243 0.8137 0.33605 0.0
N1535 N 0.12569 0.86179 0.33012 0.0
N1536 N 0.07768 0.74363 0.32965 0.0
C1537 C 0.12439 0.75723 0.3222 0.0
C1538 C 0.14997 0.8214 0.32241 0.0
C1539 C 0.92532 0.41567 0.07066 0.0
C1540 C 0.9128 0.47408 0.06523 0.0
C1541 C 0.9878 0.38877 0.07057 0.0
C1542 C 0.03944 0.42062 0.06534 0.0
H1543 H 0.8871 0.39136 0.07508 0.0
H1544 H 0.99626 0.34387 0.07487 0.0
S1545 S 0.03219 0.57844 0.0511 0.0
N1546 N 0.95719 0.56401 0.05491 0.0
N1547 N 0.07431 0.51579 0.05535 0.0
C1548 C 0.02722 0.47943 0.06006 0.0
C1549 C 0.96393 0.50564 0.05988 0.0
C1550 C 0.33344 0.17816 0.81296 0.0
C1551 C 0.27846 0.16091 0.81904 0.0
C1552 C 0.35634 0.2422 0.81302 0.0
C1553 C 0.32345 0.29092 0.81881 0.0
H1554 H 0.35789 0.14246 0.80801 0.0
H1555 H 0.39869 0.25415 0.80823 0.0
S1556 S 0.17284 0.27096 0.8349 0.0
N1557 N 0.19074 0.19767 0.83066 0.0
N1558 N 0.23048 0.31775 0.83004 0.0
C1559 C 0.26802 0.27394 0.82476 0.0
C1560 C 0.24628 0.20898 0.82503 0.0
C1561 C 0.54277 0.53055 0.55745 0.0
C1562 C 0.58818 0.54299 0.56581 0.0
C1563 C 0.4814 0.55799 0.55765 0.0
C1564 C 0.46329 0.60094 0.56599 0.0
H1565 H 0.55233 0.49501 0.55115 0.0
H1566 H 0.44668 0.54176 0.55161 0.0
S1567 S 0.56863 0.66097 0.58842 0.0
N1568 N 0.61375 0.60777 0.58188 0.0
N1569 N 0.49882 0.66291 0.58182 0.0
C1570 C 0.51014 0.61906 0.57378 0.0
C1571 C 0.5725 0.58941 0.57378 0.0
C1572 C 0.13998 0.23747 0.20432 0.0
C1573 C 0.17027 0.28812 0.19858 0.0
C1574 C 0.16525 0.17442 0.20405 0.0
C1575 C 0.21998 0.16007 0.19771 0.0
H1576 H 0.09781 0.24711 0.20929 0.0
H1577 H 0.1428 0.13718 0.20897 0.0
S1578 S 0.31887 0.27621 0.18176 0.0
N1579 N 0.26024 0.32 0.18702 0.0
N1580 N 0.30453 0.2018 0.18585 0.0
C1581 C 0.24944 0.21012 0.19175 0.0
C1582 C 0.2253 0.27408 0.19233 0.0
C1583 C 0.54516 0.48287 0.96028 0.0
C1584 C 0.58987 0.47066 0.95183 0.0
C1585 C 0.48317 0.45667 0.96003 0.0
C1586 C 0.46353 0.41511 0.95157 0.0
H1587 H 0.55595 0.51712 0.96674 0.0
H1588 H 0.44931 0.47254 0.96621 0.0
S1589 S 0.56571 0.35696 0.92869 0.0
N1590 N 0.61258 0.40804 0.93542 0.0
N1591 N 0.49638 0.35535 0.93537 0.0
C1592 C 0.5093 0.39762 0.9436 0.0
C1593 C 0.5724 0.42595 0.94366 0.0
C1594 C 0.37393 0.75483 0.69686 0.0
C1595 C 0.34289 0.70376 0.70236 0.0
C1596 C 0.34682 0.81709 0.6967 0.0
C1597 C 0.2891 0.82989 0.70233 0.0
H1598 H 0.41816 0.74602 0.69238 0.0
H1599 H 0.37035 0.85489 0.69206 0.0
S1600 S 0.18687 0.71149 0.71718 0.0
N1601 N 0.24921 0.66944 0.71281 0.0
N1602 N 0.20058 0.78603 0.71312 0.0
C1603 C 0.25845 0.77922 0.70797 0.0
C1604 C 0.28485 0.71621 0.70786 0.0
C1605 C 0.9447 0.54333 0.46265 0.0
C1606 C 0.90075 0.55566 0.45405 0.0
C1607 C 0.00786 0.56676 0.46234 0.0
C1608 C 0.02939 0.60555 0.45365 0.0
H1609 H 0.93258 0.51026 0.46921 0.0
H1610 H 0.04114 0.55009 0.46858 0.0
S1611 S 0.929 0.66647 0.43065 0.0
N1612 N 0.8802 0.61797 0.4375 0.0
N1613 N 0.99852 0.66568 0.43734 0.0
C1614 C 0.98401 0.62479 0.44569 0.0
C1615 C 0.91976 0.59921 0.44581 0.0
C1616 C 0.25999 0.94948 0.26263 0.0
C1617 C 0.31005 0.97222 0.26946 0.0
C1618 C 0.25932 0.96225 0.25134 0.0
C1619 C 0.30894 0.99797 0.24634 0.0
H1620 H 0.22066 0.92136 0.266 0.0
H1621 H 0.21979 0.94315 0.2465 0.0
S1622 S 0.45066 0.07017 0.26051 0.0
N1623 N 0.41015 0.03362 0.27037 0.0
N1624 N 0.40915 0.05723 0.24914 0.0
C1625 C 0.35922 0.02149 0.25305 0.0
C1626 C 0.35968 0.0088 0.2646 0.0
C1627 C 0.21008 0.00374 0.51441 0.0
C1628 C 0.24145 0.05654 0.51936 0.0
C1629 C 0.19725 0.00244 0.50312 0.0
C1630 C 0.21555 0.0537 0.49622 0.0
H1631 H 0.19484 0.96286 0.51929 0.0
H1632 H 0.17293 0.96053 0.49978 0.0
S1633 S 0.29894 0.2038 0.50504 0.0
N1634 N 0.29036 0.16187 0.51646 0.0
N1635 N 0.26664 0.1593 0.49522 0.0
C1636 C 0.24708 0.10694 0.50104 0.0
C1637 C 0.25984 0.10842 0.51259 0.0
C1638 C 0.14515 0.00115 0.75276 0.0
C1639 C 0.2031 0.9867 0.74728 0.0
C1640 C 0.1437 0.01044 0.76416 0.0
C1641 C 0.20013 0.00565 0.77058 0.0
H1642 H 0.10026 0.00516 0.74823 0.0
H1643 H 0.09769 0.02113 0.76795 0.0
S1644 S 0.36486 0.96961 0.76027 0.0
N1645 N 0.31879 0.96863 0.7492 0.0
N1646 N 0.31599 0.9861 0.77055 0.0
C1647 C 0.25855 0.99158 0.76521 0.0
C1648 C 0.26006 0.98216 0.75359 0.0
C1649 C 0.22449 0.01609 0.01314 0.0
C1650 C 0.2345 0.96033 0.0195 0.0
C1651 C 0.23479 0.01603 1.00177 0.0
C1652 C 0.25574 0.96025 0.99625 0.0
H1653 H 0.20817 0.06032 0.01694 0.0
H1654 H 0.22596 0.06022 0.99728 0.0
S1655 S 0.29066 0.80161 0.00913 0.0
N1656 N 0.26759 0.84776 0.01941 0.0
N1657 N 0.28712 0.84769 0.99811 0.0
C1658 C 0.26639 0.90415 1.00252 0.0
C1659 C 0.25573 0.90417 0.01411 0.0
C1660 C 0.75572 0.97965 0.75267 0.0
C1661 C 0.70349 0.00544 0.74674 0.0
C1662 C 0.75012 0.9647 0.76382 0.0
C1663 C 0.69232 0.9757 0.76958 0.0
H1664 H 0.80128 0.97006 0.74865 0.0
H1665 H 0.79185 0.94466 0.76796 0.0
S1666 S 0.54138 0.04388 0.75792 0.0
N1667 N 0.59197 0.04205 0.74747 0.0
N1668 N 0.58174 0.01471 0.76851 0.0
C1669 C 0.63977 0.00216 0.76379 0.0
C1670 C 0.64525 0.01673 0.75237 0.0
C1671 C 0.74004 0.89059 0.50074 0.0
C1672 C 0.72521 0.94947 0.49555 0.0
C1673 C 0.74913 0.88676 0.51215 0.0
C1674 C 0.74384 0.94165 0.51888 0.0
H1675 H 0.74449 0.84679 0.49597 0.0
H1676 H 0.76022 0.84022 0.5157 0.0
S1677 S 0.70716 0.10801 0.50941 0.0
N1678 N 0.70656 0.06431 0.4981 0.0
N1679 N 0.72359 0.0572 0.51944 0.0
C1680 C 0.72936 0.00096 0.5138 0.0
C1681 C 0.7201 0.00485 0.50218 0.0
C1682 C 0.77121 0.95696 0.26529 0.0
C1683 C 0.82056 0.99282 0.27037 0.0
C1684 C 0.77268 0.94383 0.25402 0.0
C1685 C 0.82301 0.96694 0.24735 0.0
H1686 H 0.73141 0.93807 0.27006 0.0
H1687 H 0.73365 0.91573 0.25052 0.0
S1688 S 0.96337 0.06447 0.25662 0.0
N1689 N 0.92108 0.05178 0.26788 0.0
N1690 N 0.92337 0.02797 0.24666 0.0
C1691 C 0.87242 0.00348 0.25231 0.0
C1692 C 0.87137 0.01611 0.26383 0.0
C1693 C 0.74635 0.00274 0.01476 0.0
C1694 C 0.7427 0.06105 0.02063 0.0
C1695 C 0.75303 0.0019 1.00334 0.0
C1696 C 0.75642 0.05933 0.99722 0.0
H1697 H 0.74397 0.95694 0.01901 0.0
H1698 H 0.75569 0.95549 0.9993 0.0
S1699 S 0.7492 0.22537 0.00856 0.0
N1700 N 0.743 0.17817 0.01941 0.0
N1701 N 0.75554 0.17659 0.99792 0.0
C1702 C 0.75276 0.1182 1.00295 0.0
C1703 C 0.74596 0.11906 0.01464 0.0
C1704 C 0.84135 0.49157 0.76469 0.0
C1705 C 0.78455 0.49099 0.77102 0.0
C1706 C 0.83964 0.50379 0.75336 0.0
C1707 C 0.78108 0.51616 0.74784 0.0
H1708 H 0.88781 0.48276 0.7685 0.0
H1709 H 0.88485 0.50375 0.74891 0.0
S1710 S 0.61816 0.51903 0.76056 0.0
N1711 N 0.66763 0.50305 0.77084 0.0
N1712 N 0.66447 0.52611 0.74963 0.0
C1713 C 0.72381 0.51545 0.75406 0.0
C1714 C 0.72553 0.50287 0.76561 0.0
C1715 C 0.75487 0.62107 0.01441 0.0
C1716 C 0.74571 0.56328 0.02027 0.0
C1717 C 0.7475 0.62345 1.00295 0.0
C1718 C 0.7307 0.56814 0.99689 0.0
H1719 H 0.76871 0.66481 0.01866 0.0
H1720 H 0.7559 0.66891 0.99882 0.0
S1721 S 0.69646 0.40577 1.00837 0.0
N1722 N 0.71563 0.45001 0.01914 0.0
N1723 N 0.70188 0.45449 0.99771 0.0
C1724 C 0.72015 0.51032 1.00267 0.0
C1725 C 0.72758 0.5079 0.01432 0.0
C1726 C 0.65975 0.50039 0.25229 0.0
C1727 C 0.70935 0.46347 0.2475 0.0
C1728 C 0.65936 0.51409 0.26359 0.0
C1729 C 0.70879 0.49192 0.27058 0.0
H1730 H 0.62077 0.51912 0.24729 0.0
H1731 H 0.62016 0.54279 0.26683 0.0
S1732 S 0.84849 0.39089 0.26234 0.0
N1733 N 0.80838 0.40331 0.25082 0.0
N1734 N 0.8077 0.42926 0.27194 0.0
C1735 C 0.75843 0.45455 0.26594 0.0
C1736 C 0.75869 0.44029 0.25445 0.0
C1737 C 0.74952 0.38864 0.50391 0.0
C1738 C 0.74702 0.44702 0.49803 0.0
C1739 C 0.74293 0.38727 0.51536 0.0
C1740 C 0.73382 0.44425 0.52142 0.0
H1741 H 0.75666 0.34338 0.49966 0.0
H1742 H 0.7454 0.34106 0.51947 0.0
S1743 S 0.72268 0.60992 0.50999 0.0
N1744 N 0.73401 0.56344 0.49918 0.0
N1745 N 0.72174 0.56086 0.52064 0.0
C1746 C 0.731 0.50301 0.51565 0.0
C1747 C 0.73749 0.50439 0.50398 0.0
C1748 C 0.16366 0.50198 0.25367 0.0
C1749 C 0.2204 0.49576 0.24743 0.0
C1750 C 0.16422 0.49357 0.26508 0.0
C1751 C 0.22154 0.47847 0.27076 0.0
H1752 H 0.11825 0.51397 0.24974 0.0
H1753 H 0.11919 0.49935 0.26947 0.0
S1754 S 0.38313 0.45448 0.25824 0.0
N1755 N 0.33549 0.47197 0.24779 0.0
N1756 N 0.33651 0.45613 0.2692 0.0
C1757 C 0.27862 0.47151 0.26462 0.0
C1758 C 0.27805 0.48012 0.25298 0.0
C1759 C 0.25568 0.50593 1.00344 0.0
C1760 C 0.25337 0.44693 0.99774 0.0
C1761 C 0.26453 0.50813 0.01484 0.0
C1762 C 0.27161 0.45144 0.02107 0.0
H1763 H 0.25011 0.55112 0.99909 0.0
H1764 H 0.26551 0.5549 0.01879 0.0
S1765 S 0.27104 0.28423 0.0101 0.0
N1766 N 0.26021 0.33016 0.9992 0.0
N1767 N 0.2768 0.33418 0.0206 0.0
C1768 C 0.26994 0.39197 0.01547 0.0
C1769 C 0.26085 0.38975 1.00384 0.0
C1770 C 0.34515 0.48759 0.76398 0.0
C1771 C 0.30493 0.5358 0.76835 0.0
C1772 C 0.34281 0.4714 0.7528 0.0
C1773 C 0.29934 0.50191 0.74559 0.0
H1774 H 0.37927 0.46253 0.7692 0.0
H1775 H 0.3751 0.43437 0.7498 0.0
S1776 S 0.1836 0.63147 0.75283 0.0
N1777 N 0.22036 0.61414 0.76449 0.0
N1778 N 0.21558 0.5831 0.74358 0.0
C1779 C 0.25854 0.54985 0.74985 0.0
C1780 C 0.26148 0.56698 0.76119 0.0
C1781 C 0.24628 0.61826 0.51506 0.0
C1782 C 0.24284 0.56102 0.52123 0.0
C1783 C 0.25181 0.61689 0.50361 0.0
C1784 C 0.25388 0.55822 0.49782 0.0
H1785 H 0.24478 0.66476 0.51909 0.0
H1786 H 0.25422 0.66239 0.49927 0.0
S1787 S 0.24679 0.39437 0.51007 0.0
N1788 N 0.24208 0.44369 0.52066 0.0
N1789 N 0.25241 0.44115 0.49917 0.0
C1790 C 0.2505 0.50051 0.50388 0.0
C1791 C 0.24509 0.5019 0.51556 0.0
C1792 C 0.50955 0.28351 0.19133 0.0
C1793 C 0.53627 0.30886 0.20105 0.0
C1794 C 0.48406 0.22092 0.19098 0.0
C1795 C 0.48438 0.18098 0.20032 0.0
H1796 H 0.50828 0.31218 0.1839 0.0
H1797 H 0.46235 0.20453 0.18338 0.0
S1798 S 0.55388 0.22181 0.22759 0.0
N1799 N 0.56472 0.28725 0.22013 0.0
N1800 N 0.51745 0.16989 0.2194 0.0
C1801 C 0.51262 0.20501 0.21001 0.0
C1802 C 0.5381 0.26884 0.21041 0.0
C1803 C 0.03377 0.26241 0.44228 0.0
C1804 C 0.05608 0.22552 0.45122 0.0
C1805 C 0.97215 0.29018 0.44229 0.0
C1806 C 0.93 0.28234 0.45124 0.0
H1807 H 0.06393 0.26958 0.43513 0.0
H1808 H 0.95811 0.31909 0.43528 0.0
S1809 S 0.9635 0.18793 0.47653 0.0
N1810 N 0.02998 0.18127 0.46919 0.0
N1811 N 0.91435 0.23331 0.46919 0.0
C1812 C 0.95138 0.24513 0.46021 0.0
C1813 C 0.01431 0.21702 0.46022 0.0
C1814 C 0.97916 0.71835 0.71151 0.0
C1815 C 0.96405 0.68534 0.70172 0.0
C1816 C 0.00847 0.77948 0.71133 0.0
C1817 C 0.02352 0.81048 0.70137 0.0
H1818 H 0.9677 0.69722 0.71939 0.0
H1819 H 0.02017 0.80211 0.7191 0.0
S1820 S 0.99401 0.74488 0.67337 0.0
N1821 N 0.96741 0.68842 0.68173 0.0
N1822 N 0.02044 0.80311 0.68141 0.0
C1823 C 0.0083 0.77807 0.69152 0.0
C1824 C 0.97937 0.71563 0.69169 0.0
C1825 C 0.46178 0.75626 0.94132 0.0
C1826 C 0.44282 0.79608 0.95004 0.0
C1827 C 0.52449 0.73098 0.94085 0.0
C1828 C 0.57057 0.74537 0.94904 0.0
H1829 H 0.42758 0.74352 0.93493 0.0
H1830 H 0.53593 0.69783 0.93428 0.0
S1831 S 0.5485 0.85775 0.97239 0.0
N1832 N 0.4775 0.85583 0.96623 0.0
N1833 N 0.59513 0.80864 0.96531 0.0
C1834 C 0.55327 0.78849 0.95741 0.0
C1835 C 0.48944 0.81367 0.95793 0.0
C1836 C 0.47869 0.7743 0.30682 0.0
C1837 C 0.47008 0.80891 0.31665 0.0
C1838 C 0.50693 0.71286 0.30679 0.0
C1839 C 0.52778 0.68314 0.31657 0.0
H1840 H 0.46243 0.79417 0.29908 0.0
H1841 H 0.51298 0.68885 0.29897 0.0
S1842 S 0.51755 0.75386 0.34457 0.0
N1843 N 0.48614 0.80923 0.33645 0.0
N1844 N 0.53799 0.69385 0.33642 0.0
C1845 C 0.51944 0.71728 0.32648 0.0
C1846 C 0.4912 0.78006 0.3265 0.0
C1847 C 0.52224 0.2688 0.5768 0.0
C1848 C 0.56683 0.26236 0.56813 0.0
C1849 C 0.46086 0.23999 0.57627 0.0
C1850 C 0.44164 0.20467 0.56699 0.0
H1851 H 0.53377 0.29824 0.58388 0.0
H1852 H 0.42774 0.24669 0.58304 0.0
S1853 S 0.54377 0.16411 0.54295 0.0
N1854 N 0.58981 0.211 0.55062 0.0
N1855 N 0.47466 0.15792 0.54957 0.0
C1856 C 0.48684 0.19511 0.55854 0.0
C1857 C 0.54937 0.2236 0.55913 0.0
C1858 C 0.98275 0.27891 0.80722 0.0
C1859 C 0.96912 0.3108 0.81713 0.0
C1860 C 0.00731 0.21629 0.80711 0.0
C1861 C 0.01994 0.1826 0.81691 0.0
H1862 H 0.97342 0.30195 0.7994 0.0
H1863 H 0.0176 0.19477 0.79921 0.0
S1864 S 0.99275 0.2439 0.84516 0.0
N1865 N 0.97023 0.3037 0.8371 0.0
N1866 N 0.01637 0.18572 0.83687 0.0
C1867 C 0.00648 0.21367 0.82692 0.0
C1868 C 0.98146 0.2778 0.82704 0.0
C1869 C 0.0308 0.77447 0.07524 0.0
C1870 C 0.06352 0.7852 0.0653 0.0
C1871 C 0.96774 0.75021 0.07541 0.0
C1872 C 0.93443 0.7351 0.06564 0.0
H1873 H 0.05356 0.78588 0.08302 0.0
H1874 H 0.94549 0.74221 0.08332 0.0
S1875 S 0.99809 0.75408 0.03733 0.0
N1876 N 0.05754 0.77857 0.04535 0.0
N1877 N 0.9391 0.73318 0.04568 0.0
C1878 C 0.96638 0.74581 0.05561 0.0
C1879 C 0.03086 0.77037 0.05544 0.0
C1880 C 0.50845 0.77748 0.80607 0.0
C1881 C 0.51092 0.81649 0.81553 0.0
C1882 C 0.47838 0.71675 0.80621 0.0
C1883 C 0.44965 0.69236 0.81581 0.0
H1884 H 0.53155 0.79303 0.79855 0.0
H1885 H 0.47785 0.68872 0.79871 0.0
S1886 S 0.4391 0.7777 0.84264 0.0
N1887 N 0.47894 0.82777 0.83462 0.0
N1888 N 0.42339 0.71408 0.83498 0.0
C1889 C 0.45085 0.73159 0.82529 0.0
C1890 C 0.481 0.79347 0.82511 0.0
C1891 C 0.02958 0.73658 0.55714 0.0
C1892 C 0.06335 0.73011 0.56712 0.0
C1893 C 0.96594 0.75871 0.55682 0.0
C1894 C 0.93314 0.77623 0.56647 0.0
H1895 H 0.05179 0.72299 0.54944 0.0
H1896 H 0.94297 0.76341 0.54887 0.0
S1897 S -0.00028 0.76836 0.5948 0.0
N1898 N 0.05913 0.74255 0.58694 0.0
N1899 N 0.93944 0.78513 0.58639 0.0
C1900 C 0.96619 0.76988 0.57655 0.0
C1901 C 0.0312 0.74679 0.57687 0.0
C1902 C 0.03216 0.27474 0.32568 0.0
C1903 C 0.04405 0.3073 0.31576 0.0
C1904 C 0.00727 0.21202 0.32579 0.0
C1905 C 0.99304 0.17897 0.31598 0.0
H1906 H 0.04251 0.29762 0.33348 0.0
H1907 H 0.99775 0.18999 0.33368 0.0
S1908 S 0.01796 0.2413 0.2877 0.0
N1909 N 0.04129 0.30072 0.29578 0.0
N1910 N 0.99501 0.1829 0.29601 0.0
C1911 C 0.0059 0.2104 0.30597 0.0
C1912 C 0.03091 0.27452 0.30586 0.0
C1913 C 0.52735 0.23288 0.05823 0.0
C1914 C 0.56333 0.22419 0.06793 0.0
C1915 C 0.46545 0.25991 0.05844 0.0
C1916 C 0.43674 0.27967 0.06836 0.0
H1917 H 0.54639 0.21737 0.0504 0.0
H1918 H 0.44024 0.26588 0.05071 0.0
S1919 S 0.51167 0.26947 0.09607 0.0
N1920 N 0.56635 0.23898 0.08774 0.0
N1921 N 0.45011 0.28954 0.08816 0.0
C1922 C 0.47235 0.27151 0.07813 0.0
C1923 C 0.53557 0.24411 0.07791 0.0
C1924 C 0.52511 0.217 0.70954 0.0
C1925 C 0.55016 0.19214 0.69971 0.0
C1926 C 0.49408 0.27686 0.70982 0.0
C1927 C 0.48684 0.31452 0.70027 0.0
H1928 H 0.52922 0.18997 0.71712 0.0
H1929 H 0.47421 0.29282 0.71757 0.0
S1930 S 0.54838 0.27398 0.67252 0.0
N1931 N 0.56857 0.21177 0.68021 0.0
N1932 N 0.5106 0.32417 0.68079 0.0
C1933 C 0.51318 0.2911 0.69042 0.0
C1934 C 0.54452 0.22996 0.69012 0.0
C1935 C 0.46029 0.7455 0.45922 0.0
C1936 C 0.43513 0.71227 0.45009 0.0
C1937 C 0.52332 0.76998 0.45924 0.0
C1938 C 0.56413 0.76247 0.4501 0.0
H1939 H 0.43123 0.75254 0.4665 0.0
H1940 H 0.53937 0.79656 0.46639 0.0
S1941 S 0.52322 0.67647 0.42424 0.0
N1942 N 0.45716 0.67139 0.43172 0.0
N1943 N 0.57553 0.71706 0.43178 0.0
C1944 C 0.5401 0.7283 0.44097 0.0
C1945 C 0.47569 0.70362 0.44093 0.0
C1946 C 0.99809 0.77942 0.19264 0.0
C1947 C 0.98216 0.81264 0.20233 0.0
C1948 C 0.02525 0.71786 0.19294 0.0
C1949 C 0.03847 0.68639 0.20294 0.0
H1950 H 0.98862 0.80054 0.18467 0.0
H1951 H 0.03676 0.69524 0.18518 0.0
S1952 S 0.00601 0.75191 0.23075 0.0
N1953 N 0.98138 0.80908 0.22231 0.0
N1954 N 0.03322 0.69335 0.22286 0.0
C1955 C 0.02279 0.71882 0.21273 0.0
C1956 C 0.99482 0.78188 0.21243 0.0
C1957 C 0.97418 0.23352 0.94134 0.0
C1958 C 0.93761 0.22452 0.95098 0.0
C1959 C 0.03565 0.2619 0.94165 0.0
C1960 C 0.06355 0.28212 0.95161 0.0
H1961 H 0.95583 0.21746 0.93347 0.0
H1962 H 0.06151 0.26796 0.934 0.0
S1963 S 0.98642 0.27401 0.97911 0.0
N1964 N 0.93293 0.24146 0.97073 0.0
N1965 N 0.04822 0.29425 0.97132 0.0
C1966 C 0.02714 0.27446 0.96129 0.0
C1967 C 0.9643 0.24606 0.96097 0.0
loop_
_geom_bond_atom_site_label_1
_geom_bond_atom_site_label_2
_geom_bond_distance
_geom_bond_site_symmetry_2
_ccdc_geom_bond_type
Co0 O3 1.970 . S
Co0 N17 1.989 1_545 S
Co0 O25 1.967 . S
Co0 O32 1.920 . S
Co1 O4 1.966 . S
Co1 N10 2.022 . S
Co1 N18 1.993 1_545 S
Co1 O26 1.941 . S
C2 O3 1.258 . S
C2 O4 1.263 . S
O3 Co0 1.970 . S
O3 C2 1.258 . S
O4 Co1 1.966 . S
O4 C2 1.263 . S
C5 O6 1.235 . S
C5 O32 1.289 . S
O6 C5 1.235 . S
C7 C9 1.400 . S
C7 N10 1.351 . S
C7 C12 1.501 . S
C8 C9 1.387 . S
C8 N11 1.341 . S
C9 C7 1.400 . S
C9 C8 1.387 . S
N10 Co1 2.022 . S
N10 C7 1.351 . S
N10 N11 1.365 . S
N11 C8 1.341 . S
N11 N10 1.365 . S
N11 H31 0.862 . S
C12 C7 1.501 . S
C12 H13 0.961 . S
C12 H14 0.961 . S
C12 H15 0.960 . S
H13 C12 0.961 . S
H14 C12 0.961 . S
H15 C12 0.960 . S
C16 N17 1.342 . S
C16 C20 1.401 . S
C16 C21 1.499 . S
N17 Co0 1.989 1_565 S
N17 C16 1.342 . S
N17 N18 1.388 . S
N18 Co1 1.993 1_565 S
N18 N17 1.388 . S
N18 C19 1.346 . S
C19 N18 1.346 . S
C19 C20 1.396 . S
C19 C29 1.510 . S
C20 C16 1.401 . S
C20 C19 1.396 . S
C21 C16 1.499 . S
C21 H22 0.959 . S
C21 H23 0.960 . S
C21 H24 0.961 . S
H22 C21 0.959 . S
H23 C21 0.960 . S
H24 C21 0.961 . S
O25 Co0 1.967 . S
O25 C33 1.258 . S
O26 Co1 1.941 . S
O26 C33 1.266 . S
H27 C29 0.959 . S
H28 C29 0.961 . S
C29 C19 1.510 . S
C29 H27 0.959 . S
C29 H28 0.961 . S
C29 H30 0.960 . S
H30 C29 0.960 . S
H31 N11 0.862 . S
O32 Co0 1.920 . S
O32 C5 1.289 . S
C33 O25 1.258 . S
C33 O26 1.266 . S
Co34 O37 1.970 . S
Co34 N51 1.989 . S
Co34 O59 1.967 . S
Co34 O66 1.920 . S
Co35 O38 1.966 . S
Co35 N44 2.022 . S
Co35 N52 1.993 . S
Co35 O60 1.941 . S
C36 O37 1.258 . S
C36 O38 1.263 . S
O37 Co34 1.970 . S
O37 C36 1.258 . S
O38 Co35 1.966 . S
O38 C36 1.263 . S
C39 O40 1.235 1_545 S
C39 O66 1.289 . S
O40 C39 1.235 1_565 S
C41 C43 1.400 . S
C41 N44 1.351 . S
C41 C46 1.501 1_545 S
C42 C43 1.387 . S
C42 N45 1.341 . S
C43 C41 1.400 . S
C43 C42 1.387 . S
N44 Co35 2.022 . S
N44 C41 1.351 . S
N44 N45 1.365 . S
N45 C42 1.341 . S
N45 N44 1.365 . S
N45 H65 0.862 . S
C46 C41 1.501 1_565 S
C46 H47 0.961 . S
C46 H48 0.961 . S
C46 H49 0.960 . S
H47 C46 0.961 . S
H48 C46 0.961 . S
H49 C46 0.960 . S
C50 N51 1.342 . S
C50 C54 1.401 . S
C50 C55 1.499 . S
N51 Co34 1.989 . S
N51 C50 1.342 . S
N51 N52 1.388 . S
N52 Co35 1.993 . S
N52 N51 1.388 . S
N52 C53 1.346 . S
C53 N52 1.346 . S
C53 C54 1.396 . S
C53 C63 1.510 . S
C54 C50 1.401 . S
C54 C53 1.396 . S
C55 C50 1.499 . S
C55 H56 0.959 . S
C55 H57 0.960 . S
C55 H58 0.961 . S
H56 C55 0.959 . S
H57 C55 0.960 . S
H58 C55 0.961 . S
O59 Co34 1.967 . S
O59 C67 1.258 . S
O60 Co35 1.941 . S
O60 C67 1.266 . S
H61 C63 0.959 . S
H62 C63 0.961 1_565 S
C63 C53 1.510 . S
C63 H61 0.959 . S
C63 H62 0.961 1_545 S
C63 H64 0.960 . S
H64 C63 0.960 . S
H65 N45 0.862 . S
O66 Co34 1.920 . S
O66 C39 1.289 . S
C67 O59 1.258 . S
C67 O60 1.266 . S
Co68 O71 1.970 . S
Co68 N85 1.989 1_565 S
Co68 O93 1.967 . S
Co68 O100 1.920 . S
Co69 O72 1.966 . S
Co69 N78 2.022 . S
Co69 N86 1.993 1_565 S
Co69 O94 1.941 . S
C70 O71 1.258 . S
C70 O72 1.263 . S
O71 Co68 1.970 . S
O71 C70 1.258 . S
O72 Co69 1.966 . S
O72 C70 1.263 . S
C73 O74 1.235 . S
C73 O100 1.289 . S
O74 C73 1.235 . S
C75 C77 1.400 . S
C75 N78 1.351 . S
C75 C80 1.501 . S
C76 C77 1.387 . S
C76 N79 1.341 . S
C77 C75 1.400 . S
C77 C76 1.387 . S
N78 Co69 2.022 . S
N78 C75 1.351 . S
N78 N79 1.365 . S
N79 C76 1.341 . S
N79 N78 1.365 . S
N79 H99 0.862 . S
C80 C75 1.501 . S
C80 H81 0.961 . S
C80 H82 0.961 . S
C80 H83 0.960 . S
H81 C80 0.961 . S
H82 C80 0.961 . S
H83 C80 0.960 . S
C84 N85 1.342 . S
C84 C88 1.401 . S
C84 C89 1.499 . S
N85 Co68 1.989 1_545 S
N85 C84 1.342 . S
N85 N86 1.388 . S
N86 Co69 1.993 1_545 S
N86 N85 1.388 . S
N86 C87 1.346 . S
C87 N86 1.346 . S
C87 C88 1.396 . S
C87 C97 1.510 . S
C88 C84 1.401 . S
C88 C87 1.396 . S
C89 C84 1.499 . S
C89 H90 0.959 . S
C89 H91 0.960 . S
C89 H92 0.961 . S
H90 C89 0.959 . S
H91 C89 0.960 . S
H92 C89 0.961 . S
O93 Co68 1.967 . S
O93 C101 1.258 . S
O94 Co69 1.941 . S
O94 C101 1.266 . S
H95 C97 0.959 . S
H96 C97 0.961 . S
C97 C87 1.510 . S
C97 H95 0.959 . S
C97 H96 0.961 . S
C97 H98 0.960 . S
H98 C97 0.960 . S
H99 N79 0.862 . S
O100 Co68 1.920 . S
O100 C73 1.289 . S
C101 O93 1.258 . S
C101 O94 1.266 . S
Co102 O105 1.970 . S
Co102 N119 1.989 . S
Co102 O127 1.967 . S
Co102 O134 1.920 . S
Co103 O106 1.966 . S
Co103 N112 2.022 . S
Co103 N120 1.993 . S
Co103 O128 1.941 . S
C104 O105 1.258 . S
C104 O106 1.263 . S
O105 Co102 1.970 . S
O105 C104 1.258 . S
O106 Co103 1.966 . S
O106 C104 1.263 . S
C107 O108 1.235 1_565 S
C107 O134 1.289 . S
O108 C107 1.235 1_545 S
C109 C111 1.400 . S
C109 N112 1.351 . S
C109 C114 1.501 1_565 S
C110 C111 1.387 . S
C110 N113 1.341 . S
C111 C109 1.400 . S
C111 C110 1.387 . S
N112 Co103 2.022 . S
N112 C109 1.351 . S
N112 N113 1.365 . S
N113 C110 1.341 . S
N113 N112 1.365 . S
N113 H133 0.862 . S
C114 C109 1.501 1_545 S
C114 H115 0.961 . S
C114 H116 0.961 . S
C114 H117 0.960 . S
H115 C114 0.961 . S
H116 C114 0.961 . S
H117 C114 0.960 . S
C118 N119 1.342 . S
C118 C122 1.401 . S
C118 C123 1.499 . S
N119 Co102 1.989 . S
N119 C118 1.342 . S
N119 N120 1.388 . S
N120 Co103 1.993 . S
N120 N119 1.388 . S
N120 C121 1.346 . S
C121 N120 1.346 . S
C121 C122 1.396 . S
C121 C131 1.510 . S
C122 C118 1.401 . S
C122 C121 1.396 . S
C123 C118 1.499 . S
C123 H124 0.959 . S
C123 H125 0.960 . S
C123 H126 0.961 . S
H124 C123 0.959 . S
H125 C123 0.960 . S
H126 C123 0.961 . S
O127 Co102 1.967 . S
O127 C135 1.258 . S
O128 Co103 1.941 . S
O128 C135 1.266 . S
H129 C131 0.959 . S
H130 C131 0.961 1_545 S
C131 C121 1.510 . S
C131 H129 0.959 . S
C131 H130 0.961 1_565 S
C131 H132 0.960 . S
H132 C131 0.960 . S
H133 N113 0.862 . S
O134 Co102 1.920 . S
O134 C107 1.289 . S
C135 O127 1.258 . S
C135 O128 1.266 . S
Co136 O139 1.970 . S
Co136 N153 1.989 1_565 S
Co136 O161 1.967 . S
Co136 O168 1.920 . S
Co137 O140 1.966 . S
Co137 N146 2.022 . S
Co137 N154 1.993 1_565 S
Co137 O162 1.941 . S
C138 O139 1.258 . S
C138 O140 1.263 . S
O139 Co136 1.970 . S
O139 C138 1.258 . S
O140 Co137 1.966 . S
O140 C138 1.263 . S
C141 O142 1.235 . S
C141 O168 1.289 . S
O142 C141 1.235 . S
C143 C145 1.400 . S
C143 N146 1.351 . S
C143 C148 1.501 . S
C144 C145 1.387 . S
C144 N147 1.341 . S
C145 C143 1.400 . S
C145 C144 1.387 . S
N146 Co137 2.022 . S
N146 C143 1.351 . S
N146 N147 1.365 . S
N147 C144 1.341 . S
N147 N146 1.365 . S
N147 H167 0.862 . S
C148 C143 1.501 . S
C148 H149 0.961 . S
C148 H150 0.961 . S
C148 H151 0.960 . S
H149 C148 0.961 . S
H150 C148 0.961 . S
H151 C148 0.960 . S
C152 N153 1.342 . S
C152 C156 1.401 . S
C152 C157 1.499 . S
N153 Co136 1.989 1_545 S
N153 C152 1.342 . S
N153 N154 1.388 . S
N154 Co137 1.993 1_545 S
N154 N153 1.388 . S
N154 C155 1.346 . S
C155 N154 1.346 . S
C155 C156 1.396 . S
C155 C165 1.510 . S
C156 C152 1.401 . S
C156 C155 1.396 . S
C157 C152 1.499 . S
C157 H158 0.959 . S
C157 H159 0.960 . S
C157 H160 0.961 . S
H158 C157 0.959 . S
H159 C157 0.960 . S
H160 C157 0.961 . S
O161 Co136 1.967 . S
O161 C169 1.258 . S
O162 Co137 1.941 . S
O162 C169 1.266 . S
H163 C165 0.959 . S
H164 C165 0.961 . S
C165 C155 1.510 . S
C165 H163 0.959 . S
C165 H164 0.961 . S
C165 H166 0.960 . S
H166 C165 0.960 . S
H167 N147 0.862 . S
O168 Co136 1.920 . S
O168 C141 1.289 . S
C169 O161 1.258 . S
C169 O162 1.266 . S
Co170 O173 1.970 . S
Co170 N187 1.989 . S
Co170 O195 1.967 . S
Co170 O202 1.920 . S
Co171 O174 1.966 . S
Co171 N180 2.022 . S
Co171 N188 1.993 . S
Co171 O196 1.941 . S
C172 O173 1.258 . S
C172 O174 1.263 . S
O173 Co170 1.970 . S
O173 C172 1.258 . S
O174 Co171 1.966 . S
O174 C172 1.263 . S
C175 O176 1.235 1_545 S
C175 O202 1.289 . S
O176 C175 1.235 1_565 S
C177 C179 1.400 . S
C177 N180 1.351 . S
C177 C182 1.501 1_545 S
C178 C179 1.387 . S
C178 N181 1.341 . S
C179 C177 1.400 . S
C179 C178 1.387 . S
N180 Co171 2.022 . S
N180 C177 1.351 . S
N180 N181 1.365 . S
N181 C178 1.341 . S
N181 N180 1.365 . S
N181 H201 0.862 . S
C182 C177 1.501 1_565 S
C182 H183 0.961 . S
C182 H184 0.961 . S
C182 H185 0.960 . S
H183 C182 0.961 . S
H184 C182 0.961 . S
H185 C182 0.960 . S
C186 N187 1.342 . S
C186 C190 1.401 . S
C186 C191 1.499 . S
N187 Co170 1.989 . S
N187 C186 1.342 . S
N187 N188 1.388 . S
N188 Co171 1.993 . S
N188 N187 1.388 . S
N188 C189 1.346 . S
C189 N188 1.346 . S
C189 C190 1.396 . S
C189 C199 1.510 . S
C190 C186 1.401 . S
C190 C189 1.396 . S
C191 C186 1.499 . S
C191 H192 0.959 . S
C191 H193 0.960 . S
C191 H194 0.961 . S
H192 C191 0.959 . S
H193 C191 0.960 . S
H194 C191 0.961 . S
O195 Co170 1.967 . S
O195 C203 1.258 . S
O196 Co171 1.941 . S
O196 C203 1.266 . S
H197 C199 0.959 . S
H198 C199 0.961 1_565 S
C199 C189 1.510 . S
C199 H197 0.959 . S
C199 H198 0.961 1_545 S
C199 H200 0.960 . S
H200 C199 0.960 . S
H201 N181 0.862 . S
O202 Co170 1.920 . S
O202 C175 1.289 . S
C203 O195 1.258 . S
C203 O196 1.266 . S
Co204 O207 1.970 . S
Co204 N221 1.989 1_545 S
Co204 O229 1.967 . S
Co204 O236 1.920 . S
Co205 O208 1.966 . S
Co205 N214 2.022 . S
Co205 N222 1.993 1_545 S
Co205 O230 1.941 . S
C206 O207 1.258 . S
C206 O208 1.263 . S
O207 Co204 1.970 . S
O207 C206 1.258 . S
O208 Co205 1.966 . S
O208 C206 1.263 . S
C209 O210 1.235 . S
C209 O236 1.289 . S
O210 C209 1.235 . S
C211 C213 1.400 . S
C211 N214 1.351 . S
C211 C216 1.501 . S
C212 C213 1.387 . S
C212 N215 1.341 . S
C213 C211 1.400 . S
C213 C212 1.387 . S
N214 Co205 2.022 . S
N214 C211 1.351 . S
N214 N215 1.365 . S
N215 C212 1.341 . S
N215 N214 1.365 . S
N215 H235 0.862 . S
C216 C211 1.501 . S
C216 H217 0.961 . S
C216 H218 0.961 . S
C216 H219 0.960 . S
H217 C216 0.961 . S
H218 C216 0.961 . S
H219 C216 0.960 . S
C220 N221 1.342 . S
C220 C224 1.401 . S
C220 C225 1.499 . S
N221 Co204 1.989 1_565 S
N221 C220 1.342 . S
N221 N222 1.388 . S
N222 Co205 1.993 1_565 S
N222 N221 1.388 . S
N222 C223 1.346 . S
C223 N222 1.346 . S
C223 C224 1.396 . S
C223 C233 1.510 . S
C224 C220 1.401 . S
C224 C223 1.396 . S
C225 C220 1.499 . S
C225 H226 0.959 . S
C225 H227 0.960 . S
C225 H228 0.961 . S
H226 C225 0.959 . S
H227 C225 0.960 . S
H228 C225 0.961 . S
O229 Co204 1.967 . S
O229 C237 1.258 . S
O230 Co205 1.941 . S
O230 C237 1.266 . S
H231 C233 0.959 . S
H232 C233 0.961 . S
C233 C223 1.510 . S
C233 H231 0.959 . S
C233 H232 0.961 . S
C233 H234 0.960 . S
H234 C233 0.960 . S
H235 N215 0.862 . S
O236 Co204 1.920 . S
O236 C209 1.289 . S
C237 O229 1.258 . S
C237 O230 1.266 . S
Co238 O241 1.970 . S
Co238 N255 1.989 . S
Co238 O263 1.967 . S
Co238 O270 1.920 . S
Co239 O242 1.966 . S
Co239 N248 2.022 . S
Co239 N256 1.993 . S
Co239 O264 1.941 . S
C240 O241 1.258 . S
C240 O242 1.263 . S
O241 Co238 1.970 . S
O241 C240 1.258 . S
O242 Co239 1.966 . S
O242 C240 1.263 . S
C243 O244 1.235 1_565 S
C243 O270 1.289 . S
O244 C243 1.235 1_545 S
C245 C247 1.400 . S
C245 N248 1.351 . S
C245 C250 1.501 1_565 S
C246 C247 1.387 . S
C246 N249 1.341 . S
C247 C245 1.400 . S
C247 C246 1.387 . S
N248 Co239 2.022 . S
N248 C245 1.351 . S
N248 N249 1.365 . S
N249 C246 1.341 . S
N249 N248 1.365 . S
N249 H269 0.862 . S
C250 C245 1.501 1_545 S
C250 H251 0.961 . S
C250 H252 0.961 . S
C250 H253 0.960 . S
H251 C250 0.961 . S
H252 C250 0.961 . S
H253 C250 0.960 . S
C254 N255 1.342 . S
C254 C258 1.401 . S
C254 C259 1.499 . S
N255 Co238 1.989 . S
N255 C254 1.342 . S
N255 N256 1.388 . S
N256 Co239 1.993 . S
N256 N255 1.388 . S
N256 C257 1.346 . S
C257 N256 1.346 . S
C257 C258 1.396 . S
C257 C267 1.510 . S
C258 C254 1.401 . S
C258 C257 1.396 . S
C259 C254 1.499 . S
C259 H260 0.959 . S
C259 H261 0.960 . S
C259 H262 0.961 . S
H260 C259 0.959 . S
H261 C259 0.960 . S
H262 C259 0.961 . S
O263 Co238 1.967 . S
O263 C271 1.258 . S
O264 Co239 1.941 . S
O264 C271 1.266 . S
H265 C267 0.959 . S
H266 C267 0.961 1_545 S
C267 C257 1.510 . S
C267 H265 0.959 . S
C267 H266 0.961 1_565 S
C267 H268 0.960 . S
H268 C267 0.960 . S
H269 N249 0.862 . S
O270 Co238 1.920 . S
O270 C243 1.289 . S
C271 O263 1.258 . S
C271 O264 1.266 . S
Co272 O275 1.970 . S
Co272 N289 1.989 1_565 S
Co272 O297 1.967 . S
Co272 O304 1.920 . S
Co273 O276 1.966 . S
Co273 N282 2.022 . S
Co273 N290 1.993 1_565 S
Co273 O298 1.941 . S
C274 O275 1.258 . S
C274 O276 1.263 . S
O275 Co272 1.970 . S
O275 C274 1.258 . S
O276 Co273 1.966 . S
O276 C274 1.263 . S
C277 O278 1.235 . S
C277 O304 1.289 . S
O278 C277 1.235 . S
C279 C281 1.400 . S
C279 N282 1.351 . S
C279 C284 1.501 . S
C280 C281 1.387 . S
C280 N283 1.341 . S
C281 C279 1.400 . S
C281 C280 1.387 . S
N282 Co273 2.022 . S
N282 C279 1.351 . S
N282 N283 1.365 . S
N283 C280 1.341 . S
N283 N282 1.365 . S
N283 H303 0.862 . S
C284 C279 1.501 . S
C284 H285 0.961 . S
C284 H286 0.961 . S
C284 H287 0.960 . S
H285 C284 0.961 . S
H286 C284 0.961 . S
H287 C284 0.960 . S
C288 N289 1.342 . S
C288 C292 1.401 . S
C288 C293 1.499 . S
N289 Co272 1.989 1_545 S
N289 C288 1.342 . S
N289 N290 1.388 . S
N290 Co273 1.993 1_545 S
N290 N289 1.388 . S
N290 C291 1.346 . S
C291 N290 1.346 . S
C291 C292 1.396 . S
C291 C301 1.510 . S
C292 C288 1.401 . S
C292 C291 1.396 . S
C293 C288 1.499 . S
C293 H294 0.959 . S
C293 H295 0.960 . S
C293 H296 0.961 . S
H294 C293 0.959 . S
H295 C293 0.960 . S
H296 C293 0.961 . S
O297 Co272 1.967 . S
O297 C305 1.258 . S
O298 Co273 1.941 . S
O298 C305 1.266 . S
H299 C301 0.959 . S
H300 C301 0.961 . S
C301 C291 1.510 . S
C301 H299 0.959 . S
C301 H300 0.961 . S
C301 H302 0.960 . S
H302 C301 0.960 . S
H303 N283 0.862 . S
O304 Co272 1.920 . S
O304 C277 1.289 . S
C305 O297 1.258 . S
C305 O298 1.266 . S
Co306 O309 1.970 . S
Co306 N323 1.989 . S
Co306 O331 1.967 . S
Co306 O338 1.920 . S
Co307 O310 1.966 . S
Co307 N316 2.022 . S
Co307 N324 1.993 . S
Co307 O332 1.941 . S
C308 O309 1.258 . S
C308 O310 1.263 . S
O309 Co306 1.970 . S
O309 C308 1.258 . S
O310 Co307 1.966 . S
O310 C308 1.263 . S
C311 O312 1.235 1_565 S
C311 O338 1.289 . S
O312 C311 1.235 1_545 S
C313 C315 1.400 . S
C313 N316 1.351 . S
C313 C318 1.501 1_565 S
C314 C315 1.387 . S
C314 N317 1.341 . S
C315 C313 1.400 . S
C315 C314 1.387 . S
N316 Co307 2.022 . S
N316 C313 1.351 . S
N316 N317 1.365 . S
N317 C314 1.341 . S
N317 N316 1.365 . S
N317 H337 0.862 . S
C318 C313 1.501 1_545 S
C318 H319 0.961 . S
C318 H320 0.961 . S
C318 H321 0.960 . S
H319 C318 0.961 . S
H320 C318 0.961 . S
H321 C318 0.960 . S
C322 N323 1.342 . S
C322 C326 1.401 . S
C322 C327 1.499 . S
N323 Co306 1.989 . S
N323 C322 1.342 . S
N323 N324 1.388 . S
N324 Co307 1.993 . S
N324 N323 1.388 . S
N324 C325 1.346 . S
C325 N324 1.346 . S
C325 C326 1.396 . S
C325 C335 1.510 . S
C326 C322 1.401 . S
C326 C325 1.396 . S
C327 C322 1.499 . S
C327 H328 0.959 . S
C327 H329 0.960 . S
C327 H330 0.961 . S
H328 C327 0.959 . S
H329 C327 0.960 . S
H330 C327 0.961 . S
O331 Co306 1.967 . S
O331 C339 1.258 . S
O332 Co307 1.941 . S
O332 C339 1.266 . S
H333 C335 0.959 . S
H334 C335 0.961 1_545 S
C335 C325 1.510 . S
C335 H333 0.959 . S
C335 H334 0.961 1_565 S
C335 H336 0.960 . S
H336 C335 0.960 . S
H337 N317 0.862 . S
O338 Co306 1.920 . S
O338 C311 1.289 . S
C339 O331 1.258 . S
C339 O332 1.266 . S
Co340 O343 1.970 . S
Co340 N357 1.989 1_545 S
Co340 O365 1.967 . S
Co340 O372 1.920 . S
Co341 O344 1.966 . S
Co341 N350 2.022 . S
Co341 N358 1.993 1_545 S
Co341 O366 1.941 . S
C342 O343 1.258 . S
C342 O344 1.263 . S
O343 Co340 1.970 . S
O343 C342 1.258 . S
O344 Co341 1.966 . S
O344 C342 1.263 . S
C345 O346 1.235 . S
C345 O372 1.289 . S
O346 C345 1.235 . S
C347 C349 1.400 . S
C347 N350 1.351 . S
C347 C352 1.501 . S
C348 C349 1.387 . S
C348 N351 1.341 . S
C349 C347 1.400 . S
C349 C348 1.387 . S
N350 Co341 2.022 . S
N350 C347 1.351 . S
N350 N351 1.365 . S
N351 C348 1.341 . S
N351 N350 1.365 . S
N351 H371 0.862 . S
C352 C347 1.501 . S
C352 H353 0.961 . S
C352 H354 0.961 . S
C352 H355 0.960 . S
H353 C352 0.961 . S
H354 C352 0.961 . S
H355 C352 0.960 . S
C356 N357 1.342 . S
C356 C360 1.401 . S
C356 C361 1.499 . S
N357 Co340 1.989 1_565 S
N357 C356 1.342 . S
N357 N358 1.388 . S
N358 Co341 1.993 1_565 S
N358 N357 1.388 . S
N358 C359 1.346 . S
C359 N358 1.346 . S
C359 C360 1.396 . S
C359 C369 1.510 . S
C360 C356 1.401 . S
C360 C359 1.396 . S
C361 C356 1.499 . S
C361 H362 0.959 . S
C361 H363 0.960 . S
C361 H364 0.961 . S
H362 C361 0.959 . S
H363 C361 0.960 . S
H364 C361 0.961 . S
O365 Co340 1.967 . S
O365 C373 1.258 . S
O366 Co341 1.941 . S
O366 C373 1.266 . S
H367 C369 0.959 . S
H368 C369 0.961 . S
C369 C359 1.510 . S
C369 H367 0.959 . S
C369 H368 0.961 . S
C369 H370 0.960 . S
H370 C369 0.960 . S
H371 N351 0.862 . S
O372 Co340 1.920 . S
O372 C345 1.289 . S
C373 O365 1.258 . S
C373 O366 1.266 . S
Co374 O377 1.970 . S
Co374 N391 1.989 . S
Co374 O399 1.967 . S
Co374 O406 1.920 . S
Co375 O378 1.966 . S
Co375 N384 2.022 . S
Co375 N392 1.993 . S
Co375 O400 1.941 . S
C376 O377 1.258 . S
C376 O378 1.263 . S
O377 Co374 1.970 . S
O377 C376 1.258 . S
O378 Co375 1.966 . S
O378 C376 1.263 . S
C379 O380 1.235 1_545 S
C379 O406 1.289 . S
O380 C379 1.235 1_565 S
C381 C383 1.400 . S
C381 N384 1.351 . S
C381 C386 1.501 1_545 S
C382 C383 1.387 . S
C382 N385 1.341 . S
C383 C381 1.400 . S
C383 C382 1.387 . S
N384 Co375 2.022 . S
N384 C381 1.351 . S
N384 N385 1.365 . S
N385 C382 1.341 . S
N385 N384 1.365 . S
N385 H405 0.862 . S
C386 C381 1.501 1_565 S
C386 H387 0.961 . S
C386 H388 0.961 . S
C386 H389 0.960 . S
H387 C386 0.961 . S
H388 C386 0.961 . S
H389 C386 0.960 . S
C390 N391 1.342 . S
C390 C394 1.401 . S
C390 C395 1.499 . S
N391 Co374 1.989 . S
N391 C390 1.342 . S
N391 N392 1.388 . S
N392 Co375 1.993 . S
N392 N391 1.388 . S
N392 C393 1.346 . S
C393 N392 1.346 . S
C393 C394 1.396 . S
C393 C403 1.510 . S
C394 C390 1.401 . S
C394 C393 1.396 . S
C395 C390 1.499 . S
C395 H396 0.959 . S
C395 H397 0.960 . S
C395 H398 0.961 . S
H396 C395 0.959 . S
H397 C395 0.960 . S
H398 C395 0.961 . S
O399 Co374 1.967 . S
O399 C407 1.258 . S
O400 Co375 1.941 . S
O400 C407 1.266 . S
H401 C403 0.959 . S
H402 C403 0.961 1_565 S
C403 C393 1.510 . S
C403 H401 0.959 . S
C403 H402 0.961 1_545 S
C403 H404 0.960 . S
H404 C403 0.960 . S
H405 N385 0.862 . S
O406 Co374 1.920 . S
O406 C379 1.289 . S
C407 O399 1.258 . S
C407 O400 1.266 . S
Co408 O411 1.970 . S
Co408 N425 1.989 1_545 S
Co408 O433 1.967 . S
Co408 O440 1.920 . S
Co409 O412 1.966 . S
Co409 N418 2.022 . S
Co409 N426 1.993 1_545 S
Co409 O434 1.941 . S
C410 O411 1.258 . S
C410 O412 1.263 . S
O411 Co408 1.970 . S
O411 C410 1.258 . S
O412 Co409 1.966 . S
O412 C410 1.263 . S
C413 O414 1.235 . S
C413 O440 1.289 . S
O414 C413 1.235 . S
C415 C417 1.400 . S
C415 N418 1.351 . S
C415 C420 1.501 . S
C416 C417 1.387 . S
C416 N419 1.341 . S
C417 C415 1.400 . S
C417 C416 1.387 . S
N418 Co409 2.022 . S
N418 C415 1.351 . S
N418 N419 1.365 . S
N419 C416 1.341 . S
N419 N418 1.365 . S
N419 H439 0.862 . S
C420 C415 1.501 . S
C420 H421 0.961 . S
C420 H422 0.961 . S
C420 H423 0.960 . S
H421 C420 0.961 . S
H422 C420 0.961 . S
H423 C420 0.960 . S
C424 N425 1.342 . S
C424 C428 1.401 . S
C424 C429 1.499 . S
N425 Co408 1.989 1_565 S
N425 C424 1.342 . S
N425 N426 1.388 . S
N426 Co409 1.993 1_565 S
N426 N425 1.388 . S
N426 C427 1.346 . S
C427 N426 1.346 . S
C427 C428 1.396 . S
C427 C437 1.510 . S
C428 C424 1.401 . S
C428 C427 1.396 . S
C429 C424 1.499 . S
C429 H430 0.959 . S
C429 H431 0.960 . S
C429 H432 0.961 . S
H430 C429 0.959 . S
H431 C429 0.960 . S
H432 C429 0.961 . S
O433 Co408 1.967 . S
O433 C441 1.258 . S
O434 Co409 1.941 . S
O434 C441 1.266 . S
H435 C437 0.959 . S
H436 C437 0.961 . S
C437 C427 1.510 . S
C437 H435 0.959 . S
C437 H436 0.961 . S
C437 H438 0.960 . S
H438 C437 0.960 . S
H439 N419 0.862 . S
O440 Co408 1.920 . S
O440 C413 1.289 . S
C441 O433 1.258 . S
C441 O434 1.266 . S
Co442 O445 1.970 . S
Co442 N459 1.989 . S
Co442 O467 1.967 . S
Co442 O474 1.920 . S
Co443 O446 1.966 . S
Co443 N452 2.022 . S
Co443 N460 1.993 . S
Co443 O468 1.941 . S
C444 O445 1.258 . S
C444 O446 1.263 . S
O445 Co442 1.970 . S
O445 C444 1.258 . S
O446 Co443 1.966 . S
O446 C444 1.263 . S
C447 O448 1.235 1_565 S
C447 O474 1.289 . S
O448 C447 1.235 1_545 S
C449 C451 1.400 . S
C449 N452 1.351 . S
C449 C454 1.501 1_565 S
C450 C451 1.387 . S
C450 N453 1.341 . S
C451 C449 1.400 . S
C451 C450 1.387 . S
N452 Co443 2.022 . S
N452 C449 1.351 . S
N452 N453 1.365 . S
N453 C450 1.341 . S
N453 N452 1.365 . S
N453 H473 0.862 . S
C454 C449 1.501 1_545 S
C454 H455 0.961 . S
C454 H456 0.961 . S
C454 H457 0.960 . S
H455 C454 0.961 . S
H456 C454 0.961 . S
H457 C454 0.960 . S
C458 N459 1.342 . S
C458 C462 1.401 . S
C458 C463 1.499 . S
N459 Co442 1.989 . S
N459 C458 1.342 . S
N459 N460 1.388 . S
N460 Co443 1.993 . S
N460 N459 1.388 . S
N460 C461 1.346 . S
C461 N460 1.346 . S
C461 C462 1.396 . S
C461 C471 1.510 . S
C462 C458 1.401 . S
C462 C461 1.396 . S
C463 C458 1.499 . S
C463 H464 0.959 . S
C463 H465 0.960 . S
C463 H466 0.961 . S
H464 C463 0.959 . S
H465 C463 0.960 . S
H466 C463 0.961 . S
O467 Co442 1.967 . S
O467 C475 1.258 . S
O468 Co443 1.941 . S
O468 C475 1.266 . S
H469 C471 0.959 . S
H470 C471 0.961 1_545 S
C471 C461 1.510 . S
C471 H469 0.959 . S
C471 H470 0.961 1_565 S
C471 H472 0.960 . S
H472 C471 0.960 . S
H473 N453 0.862 . S
O474 Co442 1.920 . S
O474 C447 1.289 . S
C475 O467 1.258 . S
C475 O468 1.266 . S
Co476 O479 1.970 . S
Co476 N493 1.989 1_565 S
Co476 O501 1.967 . S
Co476 O508 1.920 . S
Co477 O480 1.966 . S
Co477 N486 2.022 . S
Co477 N494 1.993 1_565 S
Co477 O502 1.941 . S
C478 O479 1.258 . S
C478 O480 1.263 . S
O479 Co476 1.970 . S
O479 C478 1.258 . S
O480 Co477 1.966 . S
O480 C478 1.263 . S
C481 O482 1.235 . S
C481 O508 1.289 . S
O482 C481 1.235 . S
C483 C485 1.400 . S
C483 N486 1.351 . S
C483 C488 1.501 . S
C484 C485 1.387 . S
C484 N487 1.341 . S
C485 C483 1.400 . S
C485 C484 1.387 . S
N486 Co477 2.022 . S
N486 C483 1.351 . S
N486 N487 1.365 . S
N487 C484 1.341 . S
N487 N486 1.365 . S
N487 H507 0.862 . S
C488 C483 1.501 . S
C488 H489 0.961 . S
C488 H490 0.961 . S
C488 H491 0.960 . S
H489 C488 0.961 . S
H490 C488 0.961 . S
H491 C488 0.960 . S
C492 N493 1.342 . S
C492 C496 1.401 . S
C492 C497 1.499 . S
N493 Co476 1.989 1_545 S
N493 C492 1.342 . S
N493 N494 1.388 . S
N494 Co477 1.993 1_545 S
N494 N493 1.388 . S
N494 C495 1.346 . S
C495 N494 1.346 . S
C495 C496 1.396 . S
C495 C505 1.510 . S
C496 C492 1.401 . S
C496 C495 1.396 . S
C497 C492 1.499 . S
C497 H498 0.959 . S
C497 H499 0.960 . S
C497 H500 0.961 . S
H498 C497 0.959 . S
H499 C497 0.960 . S
H500 C497 0.961 . S
O501 Co476 1.967 . S
O501 C509 1.258 . S
O502 Co477 1.941 . S
O502 C509 1.266 . S
H503 C505 0.959 . S
H504 C505 0.961 . S
C505 C495 1.510 . S
C505 H503 0.959 . S
C505 H504 0.961 . S
C505 H506 0.960 . S
H506 C505 0.960 . S
H507 N487 0.862 . S
O508 Co476 1.920 . S
O508 C481 1.289 . S
C509 O501 1.258 . S
C509 O502 1.266 . S
Co510 O513 1.970 . S
Co510 N527 1.989 . S
Co510 O535 1.967 . S
Co510 O542 1.920 . S
Co511 O514 1.966 . S
Co511 N520 2.022 . S
Co511 N528 1.993 . S
Co511 O536 1.941 . S
C512 O513 1.258 . S
C512 O514 1.263 . S
O513 Co510 1.970 . S
O513 C512 1.258 . S
O514 Co511 1.966 . S
O514 C512 1.263 . S
C515 O516 1.235 1_545 S
C515 O542 1.289 . S
O516 C515 1.235 1_565 S
C517 C519 1.400 . S
C517 N520 1.351 . S
C517 C522 1.501 1_545 S
C518 C519 1.387 . S
C518 N521 1.341 . S
C519 C517 1.400 . S
C519 C518 1.387 . S
N520 Co511 2.022 . S
N520 C517 1.351 . S
N520 N521 1.365 . S
N521 C518 1.341 . S
N521 N520 1.365 . S
N521 H541 0.862 . S
C522 C517 1.501 1_565 S
C522 H523 0.961 . S
C522 H524 0.961 . S
C522 H525 0.960 . S
H523 C522 0.961 . S
H524 C522 0.961 . S
H525 C522 0.960 . S
C526 N527 1.342 . S
C526 C530 1.401 . S
C526 C531 1.499 . S
N527 Co510 1.989 . S
N527 C526 1.342 . S
N527 N528 1.388 . S
N528 Co511 1.993 . S
N528 N527 1.388 . S
N528 C529 1.346 . S
C529 N528 1.346 . S
C529 C530 1.396 . S
C529 C539 1.510 . S
C530 C526 1.401 . S
C530 C529 1.396 . S
C531 C526 1.499 . S
C531 H532 0.959 . S
C531 H533 0.960 . S
C531 H534 0.961 . S
H532 C531 0.959 . S
H533 C531 0.960 . S
H534 C531 0.961 . S
O535 Co510 1.967 . S
O535 C543 1.258 . S
O536 Co511 1.941 . S
O536 C543 1.266 . S
H537 C539 0.959 . S
H538 C539 0.961 1_565 S
C539 C529 1.510 . S
C539 H537 0.959 . S
C539 H538 0.961 1_545 S
C539 H540 0.960 . S
H540 C539 0.960 . S
H541 N521 0.862 . S
O542 Co510 1.920 . S
O542 C515 1.289 . S
C543 O535 1.258 . S
C543 O536 1.266 . S
Co544 O547 1.970 . S
Co544 N561 1.989 . S
Co544 O569 1.967 . S
Co544 O576 1.920 . S
Co545 O548 1.966 . S
Co545 N554 2.022 . S
Co545 N562 1.993 . S
Co545 O570 1.941 . S
C546 O547 1.258 . S
C546 O548 1.263 . S
O547 Co544 1.970 . S
O547 C546 1.258 . S
O548 Co545 1.966 . S
O548 C546 1.263 . S
C549 O550 1.235 . S
C549 O576 1.289 . S
O550 C549 1.235 . S
C551 C553 1.400 . S
C551 N554 1.351 . S
C551 C556 1.501 . S
C552 C553 1.387 . S
C552 N555 1.341 . S
C553 C551 1.400 . S
C553 C552 1.387 . S
N554 Co545 2.022 . S
N554 C551 1.351 . S
N554 N555 1.365 . S
N555 C552 1.341 . S
N555 N554 1.365 . S
N555 H575 0.862 . S
C556 C551 1.501 . S
C556 H557 0.961 . S
C556 H558 0.961 . S
C556 H559 0.960 . S
H557 C556 0.961 . S
H558 C556 0.961 . S
H559 C556 0.960 . S
C560 N561 1.342 . S
C560 C564 1.401 . S
C560 C565 1.499 . S
N561 Co544 1.989 . S
N561 C560 1.342 . S
N561 N562 1.388 . S
N562 Co545 1.993 . S
N562 N561 1.388 . S
N562 C563 1.346 . S
C563 N562 1.346 . S
C563 C564 1.396 . S
C563 C573 1.510 . S
C564 C560 1.401 . S
C564 C563 1.396 . S
C565 C560 1.499 . S
C565 H566 0.959 . S
C565 H567 0.960 . S
C565 H568 0.961 . S
H566 C565 0.959 . S
H567 C565 0.960 . S
H568 C565 0.961 . S
O569 Co544 1.967 . S
O569 C577 1.258 . S
O570 Co545 1.941 . S
O570 C577 1.266 . S
H571 C573 0.959 . S
H572 C573 0.961 . S
C573 C563 1.510 . S
C573 H571 0.959 . S
C573 H572 0.961 . S
C573 H574 0.960 . S
H574 C573 0.960 . S
H575 N555 0.862 . S
O576 Co544 1.920 . S
O576 C549 1.289 . S
C577 O569 1.258 . S
C577 O570 1.266 . S
Co578 O581 1.970 . S
Co578 N595 1.989 . S
Co578 O603 1.967 . S
Co578 O610 1.920 . S
Co579 O582 1.966 . S
Co579 N588 2.022 . S
Co579 N596 1.993 . S
Co579 O604 1.941 . S
C580 O581 1.258 . S
C580 O582 1.263 . S
O581 Co578 1.970 . S
O581 C580 1.258 . S
O582 Co579 1.966 . S
O582 C580 1.263 . S
C583 O584 1.235 . S
C583 O610 1.289 . S
O584 C583 1.235 . S
C585 C587 1.400 . S
C585 N588 1.351 . S
C585 C590 1.501 . S
C586 C587 1.387 . S
C586 N589 1.341 . S
C587 C585 1.400 . S
C587 C586 1.387 . S
N588 Co579 2.022 . S
N588 C585 1.351 . S
N588 N589 1.365 . S
N589 C586 1.341 . S
N589 N588 1.365 . S
N589 H609 0.862 . S
C590 C585 1.501 . S
C590 H591 0.961 . S
C590 H592 0.961 . S
C590 H593 0.960 . S
H591 C590 0.961 . S
H592 C590 0.961 . S
H593 C590 0.960 . S
C594 N595 1.342 . S
C594 C598 1.401 . S
C594 C599 1.499 . S
N595 Co578 1.989 . S
N595 C594 1.342 . S
N595 N596 1.388 . S
N596 Co579 1.993 . S
N596 N595 1.388 . S
N596 C597 1.346 . S
C597 N596 1.346 . S
C597 C598 1.396 . S
C597 C607 1.510 . S
C598 C594 1.401 . S
C598 C597 1.396 . S
C599 C594 1.499 . S
C599 H600 0.959 . S
C599 H601 0.960 . S
C599 H602 0.961 . S
H600 C599 0.959 . S
H601 C599 0.960 . S
H602 C599 0.961 . S
O603 Co578 1.967 . S
O603 C611 1.258 . S
O604 Co579 1.941 . S
O604 C611 1.266 . S
H605 C607 0.959 . S
H606 C607 0.961 . S
C607 C597 1.510 . S
C607 H605 0.959 . S
C607 H606 0.961 . S
C607 H608 0.960 . S
H608 C607 0.960 . S
H609 N589 0.862 . S
O610 Co578 1.920 . S
O610 C583 1.289 . S
C611 O603 1.258 . S
C611 O604 1.266 . S
Co612 O615 1.970 . S
Co612 N629 1.989 . S
Co612 O637 1.967 . S
Co612 O644 1.920 . S
Co613 O616 1.966 . S
Co613 N622 2.022 . S
Co613 N630 1.993 . S
Co613 O638 1.941 . S
C614 O615 1.258 . S
C614 O616 1.263 . S
O615 Co612 1.970 . S
O615 C614 1.258 . S
O616 Co613 1.966 . S
O616 C614 1.263 . S
C617 O618 1.235 . S
C617 O644 1.289 . S
O618 C617 1.235 . S
C619 C621 1.400 . S
C619 N622 1.351 . S
C619 C624 1.501 . S
C620 C621 1.387 . S
C620 N623 1.341 . S
C621 C619 1.400 . S
C621 C620 1.387 . S
N622 Co613 2.022 . S
N622 C619 1.351 . S
N622 N623 1.365 . S
N623 C620 1.341 . S
N623 N622 1.365 . S
N623 H643 0.862 . S
C624 C619 1.501 . S
C624 H625 0.961 . S
C624 H626 0.961 . S
C624 H627 0.960 . S
H625 C624 0.961 . S
H626 C624 0.961 . S
H627 C624 0.960 . S
C628 N629 1.342 . S
C628 C632 1.401 . S
C628 C633 1.499 . S
N629 Co612 1.989 . S
N629 C628 1.342 . S
N629 N630 1.388 . S
N630 Co613 1.993 . S
N630 N629 1.388 . S
N630 C631 1.346 . S
C631 N630 1.346 . S
C631 C632 1.396 . S
C631 C641 1.510 . S
C632 C628 1.401 . S
C632 C631 1.396 . S
C633 C628 1.499 . S
C633 H634 0.959 . S
C633 H635 0.960 . S
C633 H636 0.961 . S
H634 C633 0.959 . S
H635 C633 0.960 . S
H636 C633 0.961 . S
O637 Co612 1.967 . S
O637 C645 1.258 . S
O638 Co613 1.941 . S
O638 C645 1.266 . S
H639 C641 0.959 . S
H640 C641 0.961 . S
C641 C631 1.510 . S
C641 H639 0.959 . S
C641 H640 0.961 . S
C641 H642 0.960 . S
H642 C641 0.960 . S
H643 N623 0.862 . S
O644 Co612 1.920 . S
O644 C617 1.289 . S
C645 O637 1.258 . S
C645 O638 1.266 . S
Co646 O649 1.970 . S
Co646 N663 1.989 . S
Co646 O671 1.967 . S
Co646 O678 1.920 . S
Co647 O650 1.966 . S
Co647 N656 2.022 . S
Co647 N664 1.993 . S
Co647 O672 1.941 . S
C648 O649 1.258 . S
C648 O650 1.263 . S
O649 Co646 1.970 . S
O649 C648 1.258 . S
O650 Co647 1.966 . S
O650 C648 1.263 . S
C651 O652 1.235 . S
C651 O678 1.289 . S
O652 C651 1.235 . S
C653 C655 1.400 . S
C653 N656 1.351 . S
C653 C658 1.501 . S
C654 C655 1.387 . S
C654 N657 1.341 . S
C655 C653 1.400 . S
C655 C654 1.387 . S
N656 Co647 2.022 . S
N656 C653 1.351 . S
N656 N657 1.365 . S
N657 C654 1.341 . S
N657 N656 1.365 . S
N657 H677 0.862 . S
C658 C653 1.501 . S
C658 H659 0.961 . S
C658 H660 0.961 . S
C658 H661 0.960 . S
H659 C658 0.961 . S
H660 C658 0.961 . S
H661 C658 0.960 . S
C662 N663 1.342 . S
C662 C666 1.401 . S
C662 C667 1.499 . S
N663 Co646 1.989 . S
N663 C662 1.342 . S
N663 N664 1.388 . S
N664 Co647 1.993 . S
N664 N663 1.388 . S
N664 C665 1.346 . S
C665 N664 1.346 . S
C665 C666 1.396 . S
C665 C675 1.510 . S
C666 C662 1.401 . S
C666 C665 1.396 . S
C667 C662 1.499 . S
C667 H668 0.959 . S
C667 H669 0.960 . S
C667 H670 0.961 . S
H668 C667 0.959 . S
H669 C667 0.960 . S
H670 C667 0.961 . S
O671 Co646 1.967 . S
O671 C679 1.258 . S
O672 Co647 1.941 . S
O672 C679 1.266 . S
H673 C675 0.959 . S
H674 C675 0.961 . S
C675 C665 1.510 . S
C675 H673 0.959 . S
C675 H674 0.961 . S
C675 H676 0.960 . S
H676 C675 0.960 . S
H677 N657 0.862 . S
O678 Co646 1.920 . S
O678 C651 1.289 . S
C679 O671 1.258 . S
C679 O672 1.266 . S
Co680 O683 1.970 . S
Co680 N697 1.989 . S
Co680 O705 1.967 . S
Co680 O712 1.920 . S
Co681 O684 1.966 . S
Co681 N690 2.022 . S
Co681 N698 1.993 . S
Co681 O706 1.941 . S
C682 O683 1.258 . S
C682 O684 1.263 . S
O683 Co680 1.970 . S
O683 C682 1.258 . S
O684 Co681 1.966 . S
O684 C682 1.263 . S
C685 O686 1.235 . S
C685 O712 1.289 . S
O686 C685 1.235 . S
C687 C689 1.400 . S
C687 N690 1.351 . S
C687 C692 1.501 . S
C688 C689 1.387 . S
C688 N691 1.341 . S
C689 C687 1.400 . S
C689 C688 1.387 . S
N690 Co681 2.022 . S
N690 C687 1.351 . S
N690 N691 1.365 . S
N691 C688 1.341 . S
N691 N690 1.365 . S
N691 H711 0.862 . S
C692 C687 1.501 . S
C692 H693 0.961 . S
C692 H694 0.961 . S
C692 H695 0.960 . S
H693 C692 0.961 . S
H694 C692 0.961 . S
H695 C692 0.960 . S
C696 N697 1.342 . S
C696 C700 1.401 . S
C696 C701 1.499 . S
N697 Co680 1.989 . S
N697 C696 1.342 . S
N697 N698 1.388 . S
N698 Co681 1.993 . S
N698 N697 1.388 . S
N698 C699 1.346 . S
C699 N698 1.346 . S
C699 C700 1.396 . S
C699 C709 1.510 . S
C700 C696 1.401 . S
C700 C699 1.396 . S
C701 C696 1.499 . S
C701 H702 0.959 . S
C701 H703 0.960 . S
C701 H704 0.961 . S
H702 C701 0.959 . S
H703 C701 0.960 . S
H704 C701 0.961 . S
O705 Co680 1.967 . S
O705 C713 1.258 . S
O706 Co681 1.941 . S
O706 C713 1.266 . S
H707 C709 0.959 . S
H708 C709 0.961 . S
C709 C699 1.510 . S
C709 H707 0.959 . S
C709 H708 0.961 . S
C709 H710 0.960 . S
H710 C709 0.960 . S
H711 N691 0.862 . S
O712 Co680 1.920 . S
O712 C685 1.289 . S
C713 O705 1.258 . S
C713 O706 1.266 . S
Co714 O717 1.970 . S
Co714 N731 1.989 . S
Co714 O739 1.967 . S
Co714 O746 1.920 . S
Co715 O718 1.966 . S
Co715 N724 2.022 . S
Co715 N732 1.993 . S
Co715 O740 1.941 . S
C716 O717 1.258 . S
C716 O718 1.263 . S
O717 Co714 1.970 . S
O717 C716 1.258 . S
O718 Co715 1.966 . S
O718 C716 1.263 . S
C719 O720 1.235 . S
C719 O746 1.289 . S
O720 C719 1.235 . S
C721 C723 1.400 . S
C721 N724 1.351 . S
C721 C726 1.501 . S
C722 C723 1.387 . S
C722 N725 1.341 . S
C723 C721 1.400 . S
C723 C722 1.387 . S
N724 Co715 2.022 . S
N724 C721 1.351 . S
N724 N725 1.365 . S
N725 C722 1.341 . S
N725 N724 1.365 . S
N725 H745 0.862 . S
C726 C721 1.501 . S
C726 H727 0.961 . S
C726 H728 0.961 . S
C726 H729 0.960 . S
H727 C726 0.961 . S
H728 C726 0.961 . S
H729 C726 0.960 . S
C730 N731 1.342 . S
C730 C734 1.401 . S
C730 C735 1.499 . S
N731 Co714 1.989 . S
N731 C730 1.342 . S
N731 N732 1.388 . S
N732 Co715 1.993 . S
N732 N731 1.388 . S
N732 C733 1.346 . S
C733 N732 1.346 . S
C733 C734 1.396 . S
C733 C743 1.510 . S
C734 C730 1.401 . S
C734 C733 1.396 . S
C735 C730 1.499 . S
C735 H736 0.959 . S
C735 H737 0.960 . S
C735 H738 0.961 . S
H736 C735 0.959 . S
H737 C735 0.960 . S
H738 C735 0.961 . S
O739 Co714 1.967 . S
O739 C747 1.258 . S
O740 Co715 1.941 . S
O740 C747 1.266 . S
H741 C743 0.959 . S
H742 C743 0.961 . S
C743 C733 1.510 . S
C743 H741 0.959 . S
C743 H742 0.961 . S
C743 H744 0.960 . S
H744 C743 0.960 . S
H745 N725 0.862 . S
O746 Co714 1.920 . S
O746 C719 1.289 . S
C747 O739 1.258 . S
C747 O740 1.266 . S
Co748 O751 1.970 . S
Co748 N765 1.989 . S
Co748 O773 1.967 . S
Co748 O780 1.920 . S
Co749 O752 1.966 . S
Co749 N758 2.022 . S
Co749 N766 1.993 . S
Co749 O774 1.941 . S
C750 O751 1.258 . S
C750 O752 1.263 . S
O751 Co748 1.970 . S
O751 C750 1.258 . S
O752 Co749 1.966 . S
O752 C750 1.263 . S
C753 O754 1.235 . S
C753 O780 1.289 . S
O754 C753 1.235 . S
C755 C757 1.400 . S
C755 N758 1.351 . S
C755 C760 1.501 . S
C756 C757 1.387 . S
C756 N759 1.341 . S
C757 C755 1.400 . S
C757 C756 1.387 . S
N758 Co749 2.022 . S
N758 C755 1.351 . S
N758 N759 1.365 . S
N759 C756 1.341 . S
N759 N758 1.365 . S
N759 H779 0.862 . S
C760 C755 1.501 . S
C760 H761 0.961 . S
C760 H762 0.961 . S
C760 H763 0.960 . S
H761 C760 0.961 . S
H762 C760 0.961 . S
H763 C760 0.960 . S
C764 N765 1.342 . S
C764 C768 1.401 . S
C764 C769 1.499 . S
N765 Co748 1.989 . S
N765 C764 1.342 . S
N765 N766 1.388 . S
N766 Co749 1.993 . S
N766 N765 1.388 . S
N766 C767 1.346 . S
C767 N766 1.346 . S
C767 C768 1.396 . S
C767 C777 1.510 . S
C768 C764 1.401 . S
C768 C767 1.396 . S
C769 C764 1.499 . S
C769 H770 0.959 . S
C769 H771 0.960 . S
C769 H772 0.961 . S
H770 C769 0.959 . S
H771 C769 0.960 . S
H772 C769 0.961 . S
O773 Co748 1.967 . S
O773 C781 1.258 . S
O774 Co749 1.941 . S
O774 C781 1.266 . S
H775 C777 0.959 . S
H776 C777 0.961 . S
C777 C767 1.510 . S
C777 H775 0.959 . S
C777 H776 0.961 . S
C777 H778 0.960 . S
H778 C777 0.960 . S
H779 N759 0.862 . S
O780 Co748 1.920 . S
O780 C753 1.289 . S
C781 O773 1.258 . S
C781 O774 1.266 . S
Co782 O785 1.970 . S
Co782 N799 1.989 . S
Co782 O807 1.967 . S
Co782 O814 1.920 . S
Co783 O786 1.966 . S
Co783 N792 2.022 . S
Co783 N800 1.993 . S
Co783 O808 1.941 . S
C784 O785 1.258 . S
C784 O786 1.263 . S
O785 Co782 1.970 . S
O785 C784 1.258 . S
O786 Co783 1.966 . S
O786 C784 1.263 . S
C787 O788 1.235 . S
C787 O814 1.289 . S
O788 C787 1.235 . S
C789 C791 1.400 . S
C789 N792 1.351 . S
C789 C794 1.501 . S
C790 C791 1.387 . S
C790 N793 1.341 . S
C791 C789 1.400 . S
C791 C790 1.387 . S
N792 Co783 2.022 . S
N792 C789 1.351 . S
N792 N793 1.365 . S
N793 C790 1.341 . S
N793 N792 1.365 . S
N793 H813 0.862 . S
C794 C789 1.501 . S
C794 H795 0.961 . S
C794 H796 0.961 . S
C794 H797 0.960 . S
H795 C794 0.961 . S
H796 C794 0.961 . S
H797 C794 0.960 . S
C798 N799 1.342 . S
C798 C802 1.401 . S
C798 C803 1.499 . S
N799 Co782 1.989 . S
N799 C798 1.342 . S
N799 N800 1.388 . S
N800 Co783 1.993 . S
N800 N799 1.388 . S
N800 C801 1.346 . S
C801 N800 1.346 . S
C801 C802 1.396 . S
C801 C811 1.510 . S
C802 C798 1.401 . S
C802 C801 1.396 . S
C803 C798 1.499 . S
C803 H804 0.959 . S
C803 H805 0.960 . S
C803 H806 0.961 . S
H804 C803 0.959 . S
H805 C803 0.960 . S
H806 C803 0.961 . S
O807 Co782 1.967 . S
O807 C815 1.258 . S
O808 Co783 1.941 . S
O808 C815 1.266 . S
H809 C811 0.959 . S
H810 C811 0.961 . S
C811 C801 1.510 . S
C811 H809 0.959 . S
C811 H810 0.961 . S
C811 H812 0.960 . S
H812 C811 0.960 . S
H813 N793 0.862 . S
O814 Co782 1.920 . S
O814 C787 1.289 . S
C815 O807 1.258 . S
C815 O808 1.266 . S
Co816 O819 1.970 . S
Co816 N833 1.989 . S
Co816 O841 1.967 . S
Co816 O848 1.920 . S
Co817 O820 1.966 . S
Co817 N826 2.022 . S
Co817 N834 1.993 . S
Co817 O842 1.941 . S
C818 O819 1.258 . S
C818 O820 1.263 . S
O819 Co816 1.970 . S
O819 C818 1.258 . S
O820 Co817 1.966 . S
O820 C818 1.263 . S
C821 O822 1.235 . S
C821 O848 1.289 . S
O822 C821 1.235 . S
C823 C825 1.400 . S
C823 N826 1.351 . S
C823 C828 1.501 . S
C824 C825 1.387 . S
C824 N827 1.341 . S
C825 C823 1.400 . S
C825 C824 1.387 . S
N826 Co817 2.022 . S
N826 C823 1.351 . S
N826 N827 1.365 . S
N827 C824 1.341 . S
N827 N826 1.365 . S
N827 H847 0.862 . S
C828 C823 1.501 . S
C828 H829 0.961 . S
C828 H830 0.961 . S
C828 H831 0.960 . S
H829 C828 0.961 . S
H830 C828 0.961 . S
H831 C828 0.960 . S
C832 N833 1.342 . S
C832 C836 1.401 . S
C832 C837 1.499 . S
N833 Co816 1.989 . S
N833 C832 1.342 . S
N833 N834 1.388 . S
N834 Co817 1.993 . S
N834 N833 1.388 . S
N834 C835 1.346 . S
C835 N834 1.346 . S
C835 C836 1.396 . S
C835 C845 1.510 . S
C836 C832 1.401 . S
C836 C835 1.396 . S
C837 C832 1.499 . S
C837 H838 0.959 . S
C837 H839 0.960 . S
C837 H840 0.961 . S
H838 C837 0.959 . S
H839 C837 0.960 . S
H840 C837 0.961 . S
O841 Co816 1.967 . S
O841 C849 1.258 . S
O842 Co817 1.941 . S
O842 C849 1.266 . S
H843 C845 0.959 . S
H844 C845 0.961 . S
C845 C835 1.510 . S
C845 H843 0.959 . S
C845 H844 0.961 . S
C845 H846 0.960 . S
H846 C845 0.960 . S
H847 N827 0.862 . S
O848 Co816 1.920 . S
O848 C821 1.289 . S
C849 O841 1.258 . S
C849 O842 1.266 . S
Co850 O853 1.970 . S
Co850 N867 1.989 . S
Co850 O875 1.967 . S
Co850 O882 1.920 . S
Co851 O854 1.966 . S
Co851 N860 2.022 . S
Co851 N868 1.993 . S
Co851 O876 1.941 . S
C852 O853 1.258 . S
C852 O854 1.263 . S
O853 Co850 1.970 . S
O853 C852 1.258 . S
O854 Co851 1.966 . S
O854 C852 1.263 . S
C855 O856 1.235 . S
C855 O882 1.289 . S
O856 C855 1.235 . S
C857 C859 1.400 . S
C857 N860 1.351 . S
C857 C862 1.501 . S
C858 C859 1.387 . S
C858 N861 1.341 . S
C859 C857 1.400 . S
C859 C858 1.387 . S
N860 Co851 2.022 . S
N860 C857 1.351 . S
N860 N861 1.365 . S
N861 C858 1.341 . S
N861 N860 1.365 . S
N861 H881 0.862 . S
C862 C857 1.501 . S
C862 H863 0.961 . S
C862 H864 0.961 . S
C862 H865 0.960 . S
H863 C862 0.961 . S
H864 C862 0.961 . S
H865 C862 0.960 . S
C866 N867 1.342 . S
C866 C870 1.401 . S
C866 C871 1.499 . S
N867 Co850 1.989 . S
N867 C866 1.342 . S
N867 N868 1.388 . S
N868 Co851 1.993 . S
N868 N867 1.388 . S
N868 C869 1.346 . S
C869 N868 1.346 . S
C869 C870 1.396 . S
C869 C879 1.510 . S
C870 C866 1.401 . S
C870 C869 1.396 . S
C871 C866 1.499 . S
C871 H872 0.959 . S
C871 H873 0.960 . S
C871 H874 0.961 . S
H872 C871 0.959 . S
H873 C871 0.960 . S
H874 C871 0.961 . S
O875 Co850 1.967 . S
O875 C883 1.258 . S
O876 Co851 1.941 . S
O876 C883 1.266 . S
H877 C879 0.959 . S
H878 C879 0.961 . S
C879 C869 1.510 . S
C879 H877 0.959 . S
C879 H878 0.961 . S
C879 H880 0.960 . S
H880 C879 0.960 . S
H881 N861 0.862 . S
O882 Co850 1.920 . S
O882 C855 1.289 . S
C883 O875 1.258 . S
C883 O876 1.266 . S
Co884 O887 1.970 . S
Co884 N901 1.989 . S
Co884 O909 1.967 . S
Co884 O916 1.920 . S
Co885 O888 1.966 . S
Co885 N894 2.022 . S
Co885 N902 1.993 . S
Co885 O910 1.941 . S
C886 O887 1.258 . S
C886 O888 1.263 . S
O887 Co884 1.970 . S
O887 C886 1.258 . S
O888 Co885 1.966 . S
O888 C886 1.263 . S
C889 O890 1.235 . S
C889 O916 1.289 . S
O890 C889 1.235 . S
C891 C893 1.400 . S
C891 N894 1.351 . S
C891 C896 1.501 . S
C892 C893 1.387 . S
C892 N895 1.341 . S
C893 C891 1.400 . S
C893 C892 1.387 . S
N894 Co885 2.022 . S
N894 C891 1.351 . S
N894 N895 1.365 . S
N895 C892 1.341 . S
N895 N894 1.365 . S
N895 H915 0.862 . S
C896 C891 1.501 . S
C896 H897 0.961 . S
C896 H898 0.961 . S
C896 H899 0.960 . S
H897 C896 0.961 . S
H898 C896 0.961 . S
H899 C896 0.960 . S
C900 N901 1.342 . S
C900 C904 1.401 . S
C900 C905 1.499 . S
N901 Co884 1.989 . S
N901 C900 1.342 . S
N901 N902 1.388 . S
N902 Co885 1.993 . S
N902 N901 1.388 . S
N902 C903 1.346 . S
C903 N902 1.346 . S
C903 C904 1.396 . S
C903 C913 1.510 . S
C904 C900 1.401 . S
C904 C903 1.396 . S
C905 C900 1.499 . S
C905 H906 0.959 . S
C905 H907 0.960 . S
C905 H908 0.961 . S
H906 C905 0.959 . S
H907 C905 0.960 . S
H908 C905 0.961 . S
O909 Co884 1.967 . S
O909 C917 1.258 . S
O910 Co885 1.941 . S
O910 C917 1.266 . S
H911 C913 0.959 . S
H912 C913 0.961 . S
C913 C903 1.510 . S
C913 H911 0.959 . S
C913 H912 0.961 . S
C913 H914 0.960 . S
H914 C913 0.960 . S
H915 N895 0.862 . S
O916 Co884 1.920 . S
O916 C889 1.289 . S
C917 O909 1.258 . S
C917 O910 1.266 . S
Co918 O921 1.970 . S
Co918 N935 1.989 . S
Co918 O943 1.967 . S
Co918 O950 1.920 . S
Co919 O922 1.966 . S
Co919 N928 2.022 . S
Co919 N936 1.993 . S
Co919 O944 1.941 . S
C920 O921 1.258 . S
C920 O922 1.263 . S
O921 Co918 1.970 . S
O921 C920 1.258 . S
O922 Co919 1.966 . S
O922 C920 1.263 . S
C923 O924 1.235 . S
C923 O950 1.289 . S
O924 C923 1.235 . S
C925 C927 1.400 . S
C925 N928 1.351 . S
C925 C930 1.501 . S
C926 C927 1.387 . S
C926 N929 1.341 . S
C927 C925 1.400 . S
C927 C926 1.387 . S
N928 Co919 2.022 . S
N928 C925 1.351 . S
N928 N929 1.365 . S
N929 C926 1.341 . S
N929 N928 1.365 . S
N929 H949 0.862 . S
C930 C925 1.501 . S
C930 H931 0.961 . S
C930 H932 0.961 . S
C930 H933 0.960 . S
H931 C930 0.961 . S
H932 C930 0.961 . S
H933 C930 0.960 . S
C934 N935 1.342 . S
C934 C938 1.401 . S
C934 C939 1.499 . S
N935 Co918 1.989 . S
N935 C934 1.342 . S
N935 N936 1.388 . S
N936 Co919 1.993 . S
N936 N935 1.388 . S
N936 C937 1.346 . S
C937 N936 1.346 . S
C937 C938 1.396 . S
C937 C947 1.510 . S
C938 C934 1.401 . S
C938 C937 1.396 . S
C939 C934 1.499 . S
C939 H940 0.959 . S
C939 H941 0.960 . S
C939 H942 0.961 . S
H940 C939 0.959 . S
H941 C939 0.960 . S
H942 C939 0.961 . S
O943 Co918 1.967 . S
O943 C951 1.258 . S
O944 Co919 1.941 . S
O944 C951 1.266 . S
H945 C947 0.959 . S
H946 C947 0.961 . S
C947 C937 1.510 . S
C947 H945 0.959 . S
C947 H946 0.961 . S
C947 H948 0.960 . S
H948 C947 0.960 . S
H949 N929 0.862 . S
O950 Co918 1.920 . S
O950 C923 1.289 . S
C951 O943 1.258 . S
C951 O944 1.266 . S
Co952 O955 1.970 . S
Co952 N969 1.989 . S
Co952 O977 1.967 . S
Co952 O984 1.920 . S
Co953 O956 1.966 . S
Co953 N962 2.022 . S
Co953 N970 1.993 . S
Co953 O978 1.941 . S
C954 O955 1.258 . S
C954 O956 1.263 . S
O955 Co952 1.970 . S
O955 C954 1.258 . S
O956 Co953 1.966 . S
O956 C954 1.263 . S
C957 O958 1.235 . S
C957 O984 1.289 . S
O958 C957 1.235 . S
C959 C961 1.400 . S
C959 N962 1.351 . S
C959 C964 1.501 . S
C960 C961 1.387 . S
C960 N963 1.341 . S
C961 C959 1.400 . S
C961 C960 1.387 . S
N962 Co953 2.022 . S
N962 C959 1.351 . S
N962 N963 1.365 . S
N963 C960 1.341 . S
N963 N962 1.365 . S
N963 H983 0.862 . S
C964 C959 1.501 . S
C964 H965 0.961 . S
C964 H966 0.961 . S
C964 H967 0.960 . S
H965 C964 0.961 . S
H966 C964 0.961 . S
H967 C964 0.960 . S
C968 N969 1.342 . S
C968 C972 1.401 . S
C968 C973 1.499 . S
N969 Co952 1.989 . S
N969 C968 1.342 . S
N969 N970 1.388 . S
N970 Co953 1.993 . S
N970 N969 1.388 . S
N970 C971 1.346 . S
C971 N970 1.346 . S
C971 C972 1.396 . S
C971 C981 1.510 . S
C972 C968 1.401 . S
C972 C971 1.396 . S
C973 C968 1.499 . S
C973 H974 0.959 . S
C973 H975 0.960 . S
C973 H976 0.961 . S
H974 C973 0.959 . S
H975 C973 0.960 . S
H976 C973 0.961 . S
O977 Co952 1.967 . S
O977 C985 1.258 . S
O978 Co953 1.941 . S
O978 C985 1.266 . S
H979 C981 0.959 . S
H980 C981 0.961 . S
C981 C971 1.510 . S
C981 H979 0.959 . S
C981 H980 0.961 . S
C981 H982 0.960 . S
H982 C981 0.960 . S
H983 N963 0.862 . S
O984 Co952 1.920 . S
O984 C957 1.289 . S
C985 O977 1.258 . S
C985 O978 1.266 . S
Co986 O989 1.970 . S
Co986 N1003 1.989 . S
Co986 O1011 1.967 . S
Co986 O1018 1.920 . S
Co987 O990 1.966 . S
Co987 N996 2.022 . S
Co987 N1004 1.993 . S
Co987 O1012 1.941 . S
C988 O989 1.258 . S
C988 O990 1.263 . S
O989 Co986 1.970 . S
O989 C988 1.258 . S
O990 Co987 1.966 . S
O990 C988 1.263 . S
C991 O992 1.235 . S
C991 O1018 1.289 . S
O992 C991 1.235 . S
C993 C995 1.400 . S
C993 N996 1.351 . S
C993 C998 1.501 . S
C994 C995 1.387 . S
C994 N997 1.341 . S
C995 C993 1.400 . S
C995 C994 1.387 . S
N996 Co987 2.022 . S
N996 C993 1.351 . S
N996 N997 1.365 . S
N997 C994 1.341 . S
N997 N996 1.365 . S
N997 H1017 0.862 . S
C998 C993 1.501 . S
C998 H999 0.961 . S
C998 H1000 0.961 . S
C998 H1001 0.960 . S
H999 C998 0.961 . S
H1000 C998 0.961 . S
H1001 C998 0.960 . S
C1002 N1003 1.342 . S
C1002 C1006 1.401 . S
C1002 C1007 1.499 . S
N1003 Co986 1.989 . S
N1003 C1002 1.342 . S
N1003 N1004 1.388 . S
N1004 Co987 1.993 . S
N1004 N1003 1.388 . S
N1004 C1005 1.346 . S
C1005 N1004 1.346 . S
C1005 C1006 1.396 . S
C1005 C1015 1.510 . S
C1006 C1002 1.401 . S
C1006 C1005 1.396 . S
C1007 C1002 1.499 . S
C1007 H1008 0.959 . S
C1007 H1009 0.960 . S
C1007 H1010 0.961 . S
H1008 C1007 0.959 . S
H1009 C1007 0.960 . S
H1010 C1007 0.961 . S
O1011 Co986 1.967 . S
O1011 C1019 1.258 . S
O1012 Co987 1.941 . S
O1012 C1019 1.266 . S
H1013 C1015 0.959 . S
H1014 C1015 0.961 . S
C1015 C1005 1.510 . S
C1015 H1013 0.959 . S
C1015 H1014 0.961 . S
C1015 H1016 0.960 . S
H1016 C1015 0.960 . S
H1017 N997 0.862 . S
O1018 Co986 1.920 . S
O1018 C991 1.289 . S
C1019 O1011 1.258 . S
C1019 O1012 1.266 . S
Co1020 O1023 1.970 . S
Co1020 N1037 1.989 . S
Co1020 O1045 1.967 . S
Co1020 O1052 1.920 . S
Co1021 O1024 1.966 . S
Co1021 N1030 2.022 . S
Co1021 N1038 1.993 . S
Co1021 O1046 1.941 . S
C1022 O1023 1.258 . S
C1022 O1024 1.263 . S
O1023 Co1020 1.970 . S
O1023 C1022 1.258 . S
O1024 Co1021 1.966 . S
O1024 C1022 1.263 . S
C1025 O1026 1.235 . S
C1025 O1052 1.289 . S
O1026 C1025 1.235 . S
C1027 C1029 1.400 . S
C1027 N1030 1.351 . S
C1027 C1032 1.501 . S
C1028 C1029 1.387 . S
C1028 N1031 1.341 . S
C1029 C1027 1.400 . S
C1029 C1028 1.387 . S
N1030 Co1021 2.022 . S
N1030 C1027 1.351 . S
N1030 N1031 1.365 . S
N1031 C1028 1.341 . S
N1031 N1030 1.365 . S
N1031 H1051 0.862 . S
C1032 C1027 1.501 . S
C1032 H1033 0.961 . S
C1032 H1034 0.961 . S
C1032 H1035 0.960 . S
H1033 C1032 0.961 . S
H1034 C1032 0.961 . S
H1035 C1032 0.960 . S
C1036 N1037 1.342 . S
C1036 C1040 1.401 . S
C1036 C1041 1.499 . S
N1037 Co1020 1.989 . S
N1037 C1036 1.342 . S
N1037 N1038 1.388 . S
N1038 Co1021 1.993 . S
N1038 N1037 1.388 . S
N1038 C1039 1.346 . S
C1039 N1038 1.346 . S
C1039 C1040 1.396 . S
C1039 C1049 1.510 . S
C1040 C1036 1.401 . S
C1040 C1039 1.396 . S
C1041 C1036 1.499 . S
C1041 H1042 0.959 . S
C1041 H1043 0.960 . S
C1041 H1044 0.961 . S
H1042 C1041 0.959 . S
H1043 C1041 0.960 . S
H1044 C1041 0.961 . S
O1045 Co1020 1.967 . S
O1045 C1053 1.258 . S
O1046 Co1021 1.941 . S
O1046 C1053 1.266 . S
H1047 C1049 0.959 . S
H1048 C1049 0.961 . S
C1049 C1039 1.510 . S
C1049 H1047 0.959 . S
C1049 H1048 0.961 . S
C1049 H1050 0.960 . S
H1050 C1049 0.960 . S
H1051 N1031 0.862 . S
O1052 Co1020 1.920 . S
O1052 C1025 1.289 . S
C1053 O1045 1.258 . S
C1053 O1046 1.266 . S
Co1054 O1057 1.970 . S
Co1054 N1071 1.989 . S
Co1054 O1079 1.967 . S
Co1054 O1086 1.920 . S
Co1055 O1058 1.966 . S
Co1055 N1064 2.022 . S
Co1055 N1072 1.993 . S
Co1055 O1080 1.941 . S
C1056 O1057 1.258 . S
C1056 O1058 1.263 . S
O1057 Co1054 1.970 . S
O1057 C1056 1.258 . S
O1058 Co1055 1.966 . S
O1058 C1056 1.263 . S
C1059 O1060 1.235 . S
C1059 O1086 1.289 . S
O1060 C1059 1.235 . S
C1061 C1063 1.400 . S
C1061 N1064 1.351 . S
C1061 C1066 1.501 . S
C1062 C1063 1.387 . S
C1062 N1065 1.341 . S
C1063 C1061 1.400 . S
C1063 C1062 1.387 . S
N1064 Co1055 2.022 . S
N1064 C1061 1.351 . S
N1064 N1065 1.365 . S
N1065 C1062 1.341 . S
N1065 N1064 1.365 . S
N1065 H1085 0.862 . S
C1066 C1061 1.501 . S
C1066 H1067 0.961 . S
C1066 H1068 0.961 . S
C1066 H1069 0.960 . S
H1067 C1066 0.961 . S
H1068 C1066 0.961 . S
H1069 C1066 0.960 . S
C1070 N1071 1.342 . S
C1070 C1074 1.401 . S
C1070 C1075 1.499 . S
N1071 Co1054 1.989 . S
N1071 C1070 1.342 . S
N1071 N1072 1.388 . S
N1072 Co1055 1.993 . S
N1072 N1071 1.388 . S
N1072 C1073 1.346 . S
C1073 N1072 1.346 . S
C1073 C1074 1.396 . S
C1073 C1083 1.510 . S
C1074 C1070 1.401 . S
C1074 C1073 1.396 . S
C1075 C1070 1.499 . S
C1075 H1076 0.959 . S
C1075 H1077 0.960 . S
C1075 H1078 0.961 . S
H1076 C1075 0.959 . S
H1077 C1075 0.960 . S
H1078 C1075 0.961 . S
O1079 Co1054 1.967 . S
O1079 C1087 1.258 . S
O1080 Co1055 1.941 . S
O1080 C1087 1.266 . S
H1081 C1083 0.959 . S
H1082 C1083 0.961 . S
C1083 C1073 1.510 . S
C1083 H1081 0.959 . S
C1083 H1082 0.961 . S
C1083 H1084 0.960 . S
H1084 C1083 0.960 . S
H1085 N1065 0.862 . S
O1086 Co1054 1.920 . S
O1086 C1059 1.289 . S
C1087 O1079 1.258 . S
C1087 O1080 1.266 . S
C1088 C1089 1.369 . S
C1088 C1090 1.419 . S
C1088 H1092 0.930 . S
C1089 C1088 1.369 . S
C1089 C1098 1.429 . S
C1090 C1088 1.419 . S
C1090 C1091 1.363 . S
C1090 H1093 0.929 1_545 S
C1091 C1090 1.363 . S
C1091 C1097 1.428 . S
H1092 C1088 0.930 . S
H1093 C1090 0.929 1_565 S
S1094 N1095 1.613 . S
S1094 N1096 1.610 . S
N1095 S1094 1.613 . S
N1095 C1098 1.350 . S
N1096 S1094 1.610 . S
N1096 C1097 1.351 . S
C1097 C1091 1.428 . S
C1097 N1096 1.351 . S
C1097 C1098 1.434 . S
C1098 C1089 1.429 . S
C1098 N1095 1.350 . S
C1098 C1097 1.434 . S
C1099 C1100 1.369 . S
C1099 C1101 1.419 . S
C1099 H1103 0.930 . S
C1100 C1099 1.369 . S
C1100 C1109 1.429 1_565 S
C1101 C1099 1.419 . S
C1101 C1102 1.363 . S
C1101 H1104 0.929 . S
C1102 C1101 1.363 . S
C1102 C1108 1.428 1_565 S
H1103 C1099 0.930 . S
H1104 C1101 0.929 . S
S1105 N1106 1.613 . S
S1105 N1107 1.610 . S
N1106 S1105 1.613 . S
N1106 C1109 1.350 . S
N1107 S1105 1.610 . S
N1107 C1108 1.351 . S
C1108 C1102 1.428 1_545 S
C1108 N1107 1.351 . S
C1108 C1109 1.434 . S
C1109 C1100 1.429 1_545 S
C1109 N1106 1.350 . S
C1109 C1108 1.434 . S
C1110 C1111 1.369 1_545 S
C1110 C1112 1.419 . S
C1110 H1114 0.930 . S
C1111 C1110 1.369 1_565 S
C1111 C1120 1.429 . S
C1112 C1110 1.419 . S
C1112 C1113 1.363 1_545 S
C1112 H1115 0.929 . S
C1113 C1112 1.363 1_565 S
C1113 C1119 1.428 . S
H1114 C1110 0.930 . S
H1115 C1112 0.929 . S
S1116 N1117 1.613 . S
S1116 N1118 1.610 . S
N1117 S1116 1.613 . S
N1117 C1120 1.350 . S
N1118 S1116 1.610 . S
N1118 C1119 1.351 . S
C1119 C1113 1.428 . S
C1119 N1118 1.351 . S
C1119 C1120 1.434 . S
C1120 C1111 1.429 . S
C1120 N1117 1.350 . S
C1120 C1119 1.434 . S
C1121 C1122 1.369 . S
C1121 C1123 1.419 . S
C1121 H1125 0.930 . S
C1122 C1121 1.369 . S
C1122 C1131 1.429 1_545 S
C1123 C1121 1.419 . S
C1123 C1124 1.363 . S
C1123 H1126 0.929 . S
C1124 C1123 1.363 . S
C1124 C1130 1.428 1_545 S
H1125 C1121 0.930 . S
H1126 C1123 0.929 . S
S1127 N1128 1.613 . S
S1127 N1129 1.610 . S
N1128 S1127 1.613 . S
N1128 C1131 1.350 . S
N1129 S1127 1.610 . S
N1129 C1130 1.351 . S
C1130 C1124 1.428 1_565 S
C1130 N1129 1.351 . S
C1130 C1131 1.434 . S
C1131 C1122 1.429 1_565 S
C1131 N1128 1.350 . S
C1131 C1130 1.434 . S
C1132 C1133 1.369 1_545 S
C1132 C1134 1.419 . S
C1132 H1136 0.930 . S
C1133 C1132 1.369 1_565 S
C1133 C1142 1.429 . S
C1134 C1132 1.419 . S
C1134 C1135 1.363 1_545 S
C1134 H1137 0.929 . S
C1135 C1134 1.363 1_565 S
C1135 C1141 1.428 . S
H1136 C1132 0.930 . S
H1137 C1134 0.929 . S
S1138 N1139 1.613 . S
S1138 N1140 1.610 . S
N1139 S1138 1.613 . S
N1139 C1142 1.350 . S
N1140 S1138 1.610 . S
N1140 C1141 1.351 . S
C1141 C1135 1.428 . S
C1141 N1140 1.351 . S
C1141 C1142 1.434 . S
C1142 C1133 1.429 . S
C1142 N1139 1.350 . S
C1142 C1141 1.434 . S
C1143 C1144 1.369 1_565 S
C1143 C1145 1.419 . S
C1143 H1147 0.930 . S
C1144 C1143 1.369 1_545 S
C1144 C1153 1.429 . S
C1145 C1143 1.419 . S
C1145 C1146 1.363 1_565 S
C1145 H1148 0.929 . S
C1146 C1145 1.363 1_545 S
C1146 C1152 1.428 . S
H1147 C1143 0.930 . S
H1148 C1145 0.929 . S
S1149 N1150 1.613 . S
S1149 N1151 1.610 . S
N1150 S1149 1.613 . S
N1150 C1153 1.350 . S
N1151 S1149 1.610 . S
N1151 C1152 1.351 . S
C1152 C1146 1.428 . S
C1152 N1151 1.351 . S
C1152 C1153 1.434 . S
C1153 C1144 1.429 . S
C1153 N1150 1.350 . S
C1153 C1152 1.434 . S
C1154 C1155 1.369 . S
C1154 C1156 1.419 . S
C1154 H1158 0.930 . S
C1155 C1154 1.369 . S
C1155 C1164 1.429 1_545 S
C1156 C1154 1.419 . S
C1156 C1157 1.363 . S
C1156 H1159 0.929 . S
C1157 C1156 1.363 . S
C1157 C1163 1.428 1_545 S
H1158 C1154 0.930 . S
H1159 C1156 0.929 . S
S1160 N1161 1.613 . S
S1160 N1162 1.610 . S
N1161 S1160 1.613 . S
N1161 C1164 1.350 . S
N1162 S1160 1.610 . S
N1162 C1163 1.351 . S
C1163 C1157 1.428 1_565 S
C1163 N1162 1.351 . S
C1163 C1164 1.434 . S
C1164 C1155 1.429 1_565 S
C1164 N1161 1.350 . S
C1164 C1163 1.434 . S
C1165 C1166 1.369 1_545 S
C1165 C1167 1.419 . S
C1165 H1169 0.930 . S
C1166 C1165 1.369 1_565 S
C1166 C1175 1.429 . S
C1167 C1165 1.419 . S
C1167 C1168 1.363 1_545 S
C1167 H1170 0.929 . S
C1168 C1167 1.363 1_565 S
C1168 C1174 1.428 . S
H1169 C1165 0.930 . S
H1170 C1167 0.929 . S
S1171 N1172 1.613 . S
S1171 N1173 1.610 . S
N1172 S1171 1.613 . S
N1172 C1175 1.350 . S
N1173 S1171 1.610 . S
N1173 C1174 1.351 . S
C1174 C1168 1.428 . S
C1174 N1173 1.351 . S
C1174 C1175 1.434 . S
C1175 C1166 1.429 . S
C1175 N1172 1.350 . S
C1175 C1174 1.434 . S
C1176 C1177 1.369 . S
C1176 C1178 1.419 . S
C1176 H1180 0.930 . S
C1177 C1176 1.369 . S
C1177 C1186 1.429 . S
C1178 C1176 1.419 . S
C1178 C1179 1.363 . S
C1178 H1181 0.929 . S
C1179 C1178 1.363 . S
C1179 C1185 1.428 . S
H1180 C1176 0.930 . S
H1181 C1178 0.929 . S
S1182 N1183 1.613 . S
S1182 N1184 1.610 . S
N1183 S1182 1.613 . S
N1183 C1186 1.350 . S
N1184 S1182 1.610 . S
N1184 C1185 1.351 . S
C1185 C1179 1.428 . S
C1185 N1184 1.351 . S
C1185 C1186 1.434 . S
C1186 C1177 1.429 . S
C1186 N1183 1.350 . S
C1186 C1185 1.434 . S
C1187 C1188 1.369 . S
C1187 C1189 1.419 . S
C1187 H1191 0.930 . S
C1188 C1187 1.369 . S
C1188 C1197 1.429 . S
C1189 C1187 1.419 . S
C1189 C1190 1.363 . S
C1189 H1192 0.929 . S
C1190 C1189 1.363 . S
C1190 C1196 1.428 . S
H1191 C1187 0.930 . S
H1192 C1189 0.929 . S
S1193 N1194 1.613 . S
S1193 N1195 1.610 . S
N1194 S1193 1.613 . S
N1194 C1197 1.350 . S
N1195 S1193 1.610 . S
N1195 C1196 1.351 . S
C1196 C1190 1.428 . S
C1196 N1195 1.351 . S
C1196 C1197 1.434 . S
C1197 C1188 1.429 . S
C1197 N1194 1.350 . S
C1197 C1196 1.434 . S
C1198 C1199 1.369 . S
C1198 C1200 1.419 . S
C1198 H1202 0.930 . S
C1199 C1198 1.369 . S
C1199 C1208 1.429 . S
C1200 C1198 1.419 . S
C1200 C1201 1.363 . S
C1200 H1203 0.929 . S
C1201 C1200 1.363 . S
C1201 C1207 1.428 . S
H1202 C1198 0.930 . S
H1203 C1200 0.929 . S
S1204 N1205 1.613 . S
S1204 N1206 1.610 . S
N1205 S1204 1.613 . S
N1205 C1208 1.350 . S
N1206 S1204 1.610 . S
N1206 C1207 1.351 . S
C1207 C1201 1.428 . S
C1207 N1206 1.351 . S
C1207 C1208 1.434 . S
C1208 C1199 1.429 . S
C1208 N1205 1.350 . S
C1208 C1207 1.434 . S
C1209 C1210 1.369 . S
C1209 C1211 1.419 . S
C1209 H1213 0.930 . S
C1210 C1209 1.369 . S
C1210 C1219 1.429 . S
C1211 C1209 1.419 . S
C1211 C1212 1.363 . S
C1211 H1214 0.929 . S
C1212 C1211 1.363 . S
C1212 C1218 1.428 . S
H1213 C1209 0.930 . S
H1214 C1211 0.929 . S
S1215 N1216 1.613 . S
S1215 N1217 1.610 . S
N1216 S1215 1.613 . S
N1216 C1219 1.350 . S
N1217 S1215 1.610 . S
N1217 C1218 1.351 . S
C1218 C1212 1.428 . S
C1218 N1217 1.351 . S
C1218 C1219 1.434 . S
C1219 C1210 1.429 . S
C1219 N1216 1.350 . S
C1219 C1218 1.434 . S
C1220 C1221 1.369 . S
C1220 C1222 1.419 . S
C1220 H1224 0.930 . S
C1221 C1220 1.369 . S
C1221 C1230 1.429 . S
C1222 C1220 1.419 . S
C1222 C1223 1.363 . S
C1222 H1225 0.929 . S
C1223 C1222 1.363 . S
C1223 C1229 1.428 . S
H1224 C1220 0.930 . S
H1225 C1222 0.929 . S
S1226 N1227 1.613 . S
S1226 N1228 1.610 . S
N1227 S1226 1.613 . S
N1227 C1230 1.350 . S
N1228 S1226 1.610 . S
N1228 C1229 1.351 . S
C1229 C1223 1.428 . S
C1229 N1228 1.351 . S
C1229 C1230 1.434 . S
C1230 C1221 1.429 . S
C1230 N1227 1.350 . S
C1230 C1229 1.434 . S
C1231 C1232 1.369 . S
C1231 C1233 1.419 . S
C1231 H1235 0.930 . S
C1232 C1231 1.369 . S
C1232 C1241 1.429 . S
C1233 C1231 1.419 . S
C1233 C1234 1.363 . S
C1233 H1236 0.929 . S
C1234 C1233 1.363 . S
C1234 C1240 1.428 . S
H1235 C1231 0.930 . S
H1236 C1233 0.929 . S
S1237 N1238 1.613 . S
S1237 N1239 1.610 . S
N1238 S1237 1.613 . S
N1238 C1241 1.350 . S
N1239 S1237 1.610 . S
N1239 C1240 1.351 . S
C1240 C1234 1.428 . S
C1240 N1239 1.351 . S
C1240 C1241 1.434 . S
C1241 C1232 1.429 . S
C1241 N1238 1.350 . S
C1241 C1240 1.434 . S
C1242 C1243 1.369 . S
C1242 C1244 1.419 . S
C1242 H1246 0.930 . S
C1243 C1242 1.369 . S
C1243 C1252 1.429 . S
C1244 C1242 1.419 . S
C1244 C1245 1.363 . S
C1244 H1247 0.929 . S
C1245 C1244 1.363 . S
C1245 C1251 1.428 . S
H1246 C1242 0.930 . S
H1247 C1244 0.929 . S
S1248 N1249 1.613 . S
S1248 N1250 1.610 . S
N1249 S1248 1.613 . S
N1249 C1252 1.350 . S
N1250 S1248 1.610 . S
N1250 C1251 1.351 . S
C1251 C1245 1.428 . S
C1251 N1250 1.351 . S
C1251 C1252 1.434 . S
C1252 C1243 1.429 . S
C1252 N1249 1.350 . S
C1252 C1251 1.434 . S
C1253 C1254 1.369 . S
C1253 C1255 1.419 . S
C1253 H1257 0.930 . S
C1254 C1253 1.369 . S
C1254 C1263 1.429 . S
C1255 C1253 1.419 . S
C1255 C1256 1.363 . S
C1255 H1258 0.929 . S
C1256 C1255 1.363 . S
C1256 C1262 1.428 . S
H1257 C1253 0.930 . S
H1258 C1255 0.929 . S
S1259 N1260 1.613 . S
S1259 N1261 1.610 . S
N1260 S1259 1.613 . S
N1260 C1263 1.350 . S
N1261 S1259 1.610 . S
N1261 C1262 1.351 . S
C1262 C1256 1.428 . S
C1262 N1261 1.351 . S
C1262 C1263 1.434 . S
C1263 C1254 1.429 . S
C1263 N1260 1.350 . S
C1263 C1262 1.434 . S
C1264 C1265 1.369 . S
C1264 C1266 1.419 . S
C1264 H1268 0.930 . S
C1265 C1264 1.369 . S
C1265 C1274 1.429 . S
C1266 C1264 1.419 . S
C1266 C1267 1.363 . S
C1266 H1269 0.929 . S
C1267 C1266 1.363 . S
C1267 C1273 1.428 . S
H1268 C1264 0.930 . S
H1269 C1266 0.929 . S
S1270 N1271 1.613 . S
S1270 N1272 1.610 . S
N1271 S1270 1.613 . S
N1271 C1274 1.350 . S
N1272 S1270 1.610 . S
N1272 C1273 1.351 . S
C1273 C1267 1.428 . S
C1273 N1272 1.351 . S
C1273 C1274 1.434 . S
C1274 C1265 1.429 . S
C1274 N1271 1.350 . S
C1274 C1273 1.434 . S
C1275 C1276 1.369 . S
C1275 C1277 1.419 . S
C1275 H1279 0.930 . S
C1276 C1275 1.369 . S
C1276 C1285 1.429 1_545 S
C1277 C1275 1.419 . S
C1277 C1278 1.363 . S
C1277 H1280 0.929 . S
C1278 C1277 1.363 . S
C1278 C1284 1.428 1_545 S
H1279 C1275 0.930 . S
H1280 C1277 0.929 . S
S1281 N1282 1.613 . S
S1281 N1283 1.610 . S
N1282 S1281 1.613 . S
N1282 C1285 1.350 . S
N1283 S1281 1.610 . S
N1283 C1284 1.351 . S
C1284 C1278 1.428 1_565 S
C1284 N1283 1.351 . S
C1284 C1285 1.434 . S
C1285 C1276 1.429 1_565 S
C1285 N1282 1.350 . S
C1285 C1284 1.434 . S
C1286 C1287 1.369 . S
C1286 C1288 1.419 . S
C1286 H1290 0.930 . S
C1287 C1286 1.369 . S
C1287 C1296 1.429 . S
C1288 C1286 1.419 . S
C1288 C1289 1.363 . S
C1288 H1291 0.929 . S
C1289 C1288 1.363 . S
C1289 C1295 1.428 . S
H1290 C1286 0.930 . S
H1291 C1288 0.929 . S
S1292 N1293 1.613 . S
S1292 N1294 1.610 . S
N1293 S1292 1.613 . S
N1293 C1296 1.350 . S
N1294 S1292 1.610 . S
N1294 C1295 1.351 . S
C1295 C1289 1.428 . S
C1295 N1294 1.351 . S
C1295 C1296 1.434 . S
C1296 C1287 1.429 . S
C1296 N1293 1.350 . S
C1296 C1295 1.434 . S
C1297 C1298 1.369 . S
C1297 C1299 1.419 1_455 S
C1297 H1301 0.930 . S
C1298 C1297 1.369 . S
C1298 C1307 1.429 . S
C1299 C1297 1.419 1_655 S
C1299 C1300 1.363 . S
C1299 H1302 0.929 1_565 S
C1300 C1299 1.363 . S
C1300 C1306 1.428 . S
H1301 C1297 0.930 . S
H1302 C1299 0.929 1_545 S
S1303 N1304 1.613 . S
S1303 N1305 1.610 1_455 S
N1304 S1303 1.613 . S
N1304 C1307 1.350 . S
N1305 S1303 1.610 1_655 S
N1305 C1306 1.351 . S
C1306 C1300 1.428 . S
C1306 N1305 1.351 . S
C1306 C1307 1.434 1_655 S
C1307 C1298 1.429 . S
C1307 N1304 1.350 . S
C1307 C1306 1.434 1_455 S
C1308 C1309 1.369 . S
C1308 C1310 1.419 . S
C1308 H1312 0.930 . S
C1309 C1308 1.369 . S
C1309 C1318 1.429 . S
C1310 C1308 1.419 . S
C1310 C1311 1.363 . S
C1310 H1313 0.929 . S
C1311 C1310 1.363 . S
C1311 C1317 1.428 . S
H1312 C1308 0.930 . S
H1313 C1310 0.929 . S
S1314 N1315 1.613 . S
S1314 N1316 1.610 . S
N1315 S1314 1.613 . S
N1315 C1318 1.350 . S
N1316 S1314 1.610 . S
N1316 C1317 1.351 . S
C1317 C1311 1.428 . S
C1317 N1316 1.351 . S
C1317 C1318 1.434 . S
C1318 C1309 1.429 . S
C1318 N1315 1.350 . S
C1318 C1317 1.434 . S
C1319 C1320 1.369 . S
C1319 C1321 1.419 1_655 S
C1319 H1323 0.930 . S
C1320 C1319 1.369 . S
C1320 C1329 1.429 1_645 S
C1321 C1319 1.419 1_455 S
C1321 C1322 1.363 . S
C1321 H1324 0.929 . S
C1322 C1321 1.363 . S
C1322 C1328 1.428 1_545 S
H1323 C1319 0.930 . S
H1324 C1321 0.929 . S
S1325 N1326 1.613 1_455 S
S1325 N1327 1.610 . S
N1326 S1325 1.613 1_655 S
N1326 C1329 1.350 1_655 S
N1327 S1325 1.610 . S
N1327 C1328 1.351 . S
C1328 C1322 1.428 1_565 S
C1328 N1327 1.351 . S
C1328 C1329 1.434 . S
C1329 C1320 1.429 1_465 S
C1329 N1326 1.350 1_455 S
C1329 C1328 1.434 . S
C1330 C1331 1.369 . S
C1330 C1332 1.419 . S
C1330 H1334 0.930 . S
C1331 C1330 1.369 . S
C1331 C1340 1.429 . S
C1332 C1330 1.419 . S
C1332 C1333 1.363 . S
C1332 H1335 0.929 . S
C1333 C1332 1.363 . S
C1333 C1339 1.428 . S
H1334 C1330 0.930 . S
H1335 C1332 0.929 . S
S1336 N1337 1.613 . S
S1336 N1338 1.610 . S
N1337 S1336 1.613 . S
N1337 C1340 1.350 . S
N1338 S1336 1.610 . S
N1338 C1339 1.351 . S
C1339 C1333 1.428 . S
C1339 N1338 1.351 . S
C1339 C1340 1.434 . S
C1340 C1331 1.429 . S
C1340 N1337 1.350 . S
C1340 C1339 1.434 . S
C1341 C1342 1.369 . S
C1341 C1343 1.419 . S
C1341 H1345 0.930 . S
C1342 C1341 1.369 . S
C1342 C1351 1.429 . S
C1343 C1341 1.419 . S
C1343 C1344 1.363 . S
C1343 H1346 0.929 . S
C1344 C1343 1.363 . S
C1344 C1350 1.428 . S
H1345 C1341 0.930 . S
H1346 C1343 0.929 . S
S1347 N1348 1.613 1_545 S
S1347 N1349 1.610 . S
N1348 S1347 1.613 1_565 S
N1348 C1351 1.350 . S
N1349 S1347 1.610 . S
N1349 C1350 1.351 1_545 S
C1350 C1344 1.428 . S
C1350 N1349 1.351 1_565 S
C1350 C1351 1.434 . S
C1351 C1342 1.429 . S
C1351 N1348 1.350 . S
C1351 C1350 1.434 . S
C1352 C1353 1.369 . S
C1352 C1354 1.419 . S
C1352 H1356 0.930 . S
C1353 C1352 1.369 . S
C1353 C1362 1.429 . S
C1354 C1352 1.419 . S
C1354 C1355 1.363 . S
C1354 H1357 0.929 . S
C1355 C1354 1.363 . S
C1355 C1361 1.428 . S
H1356 C1352 0.930 . S
H1357 C1354 0.929 . S
S1358 N1359 1.613 . S
S1358 N1360 1.610 . S
N1359 S1358 1.613 . S
N1359 C1362 1.350 . S
N1360 S1358 1.610 . S
N1360 C1361 1.351 . S
C1361 C1355 1.428 . S
C1361 N1360 1.351 . S
C1361 C1362 1.434 . S
C1362 C1353 1.429 . S
C1362 N1359 1.350 . S
C1362 C1361 1.434 . S
C1363 C1364 1.369 . S
C1363 C1365 1.419 . S
C1363 H1367 0.930 . S
C1364 C1363 1.369 . S
C1364 C1373 1.429 . S
C1365 C1363 1.419 . S
C1365 C1366 1.363 . S
C1365 H1368 0.929 1_565 S
C1366 C1365 1.363 . S
C1366 C1372 1.428 . S
H1367 C1363 0.930 . S
H1368 C1365 0.929 1_545 S
S1369 N1370 1.613 . S
S1369 N1371 1.610 . S
N1370 S1369 1.613 . S
N1370 C1373 1.350 . S
N1371 S1369 1.610 . S
N1371 C1372 1.351 . S
C1372 C1366 1.428 . S
C1372 N1371 1.351 . S
C1372 C1373 1.434 . S
C1373 C1364 1.429 . S
C1373 N1370 1.350 . S
C1373 C1372 1.434 . S
C1374 C1375 1.369 . S
C1374 C1376 1.419 . S
C1374 H1378 0.930 . S
C1375 C1374 1.369 . S
C1375 C1384 1.429 . S
C1376 C1374 1.419 . S
C1376 C1377 1.363 . S
C1376 H1379 0.929 . S
C1377 C1376 1.363 . S
C1377 C1383 1.428 . S
H1378 C1374 0.930 . S
H1379 C1376 0.929 . S
S1380 N1381 1.613 . S
S1380 N1382 1.610 . S
N1381 S1380 1.613 . S
N1381 C1384 1.350 . S
N1382 S1380 1.610 . S
N1382 C1383 1.351 . S
C1383 C1377 1.428 . S
C1383 N1382 1.351 . S
C1383 C1384 1.434 . S
C1384 C1375 1.429 . S
C1384 N1381 1.350 . S
C1384 C1383 1.434 . S
C1385 C1386 1.369 . S
C1385 C1387 1.419 1_455 S
C1385 H1389 0.930 . S
C1386 C1385 1.369 . S
C1386 C1395 1.427 1_545 S
C1387 C1385 1.419 1_655 S
C1387 C1388 1.363 . S
C1387 H1390 0.929 . S
C1388 C1387 1.363 . S
C1388 C1394 1.428 1_545 S
H1389 C1385 0.930 . S
H1390 C1387 0.929 . S
S1391 N1392 1.613 1_655 S
S1391 N1393 1.610 . S
N1392 S1391 1.613 1_455 S
N1392 C1395 1.349 . S
N1393 S1391 1.610 . S
N1393 C1394 1.351 . S
C1394 C1388 1.428 1_565 S
C1394 N1393 1.351 . S
C1394 C1395 1.436 1_655 S
C1395 C1386 1.427 1_565 S
C1395 N1392 1.349 . S
C1395 C1394 1.436 1_455 S
C1396 C1397 1.369 . S
C1396 C1398 1.419 . S
C1396 H1400 0.930 . S
C1397 C1396 1.369 . S
C1397 C1406 1.429 . S
C1398 C1396 1.419 . S
C1398 C1399 1.363 . S
C1398 H1401 0.929 . S
C1399 C1398 1.363 . S
C1399 C1405 1.428 . S
H1400 C1396 0.930 . S
H1401 C1398 0.929 . S
S1402 N1403 1.613 . S
S1402 N1404 1.610 . S
N1403 S1402 1.613 . S
N1403 C1406 1.350 . S
N1404 S1402 1.610 . S
N1404 C1405 1.351 . S
C1405 C1399 1.428 . S
C1405 N1404 1.351 . S
C1405 C1406 1.434 . S
C1406 C1397 1.429 . S
C1406 N1403 1.350 . S
C1406 C1405 1.434 . S
C1407 C1408 1.369 1_545 S
C1407 C1409 1.424 . S
C1407 H1411 0.930 . S
C1408 C1407 1.369 1_565 S
C1408 C1417 1.429 . S
C1409 C1407 1.424 . S
C1409 C1410 1.359 1_645 S
C1409 H1412 0.927 1_655 S
C1410 C1409 1.359 1_465 S
C1410 C1416 1.428 . S
H1411 C1407 0.930 . S
H1412 C1409 0.927 1_455 S
S1413 N1414 1.613 1_455 S
S1413 N1415 1.610 . S
N1414 S1413 1.613 1_655 S
N1414 C1417 1.350 . S
N1415 S1413 1.610 . S
N1415 C1416 1.351 . S
C1416 C1410 1.428 . S
C1416 N1415 1.351 . S
C1416 C1417 1.434 1_455 S
C1417 C1408 1.429 . S
C1417 N1414 1.350 . S
C1417 C1416 1.434 1_655 S
C1418 C1419 1.369 . S
C1418 C1420 1.419 . S
C1418 H1422 0.930 . S
C1419 C1418 1.369 . S
C1419 C1428 1.429 . S
C1420 C1418 1.419 . S
C1420 C1421 1.363 . S
C1420 H1423 0.929 . S
C1421 C1420 1.363 . S
C1421 C1427 1.428 . S
H1422 C1418 0.930 . S
H1423 C1420 0.929 . S
S1424 N1425 1.613 . S
S1424 N1426 1.610 . S
N1425 S1424 1.613 . S
N1425 C1428 1.350 . S
N1426 S1424 1.610 . S
N1426 C1427 1.351 . S
C1427 C1421 1.428 . S
C1427 N1426 1.351 . S
C1427 C1428 1.434 . S
C1428 C1419 1.429 . S
C1428 N1425 1.350 . S
C1428 C1427 1.434 . S
C1429 C1430 1.369 . S
C1429 C1431 1.419 . S
C1429 H1433 0.930 . S
C1430 C1429 1.369 . S
C1430 C1439 1.429 1_545 S
C1431 C1429 1.419 . S
C1431 C1432 1.363 . S
C1431 H1434 0.929 . S
C1432 C1431 1.363 . S
C1432 C1438 1.428 . S
H1433 C1429 0.930 . S
H1434 C1431 0.929 . S
S1435 N1436 1.613 . S
S1435 N1437 1.610 . S
N1436 S1435 1.613 . S
N1436 C1439 1.350 . S
N1437 S1435 1.610 . S
N1437 C1438 1.351 1_565 S
C1438 C1432 1.428 . S
C1438 N1437 1.351 1_545 S
C1438 C1439 1.434 1_545 S
C1439 C1430 1.429 1_565 S
C1439 N1436 1.350 . S
C1439 C1438 1.434 1_565 S
C1440 C1441 1.369 . S
C1440 C1442 1.419 . S
C1440 H1444 0.930 . S
C1441 C1440 1.369 . S
C1441 C1450 1.429 . S
C1442 C1440 1.419 . S
C1442 C1443 1.363 . S
C1442 H1445 0.929 . S
C1443 C1442 1.363 . S
C1443 C1449 1.428 . S
H1444 C1440 0.930 . S
H1445 C1442 0.929 . S
S1446 N1447 1.613 . S
S1446 N1448 1.610 . S
N1447 S1446 1.613 . S
N1447 C1450 1.350 . S
N1448 S1446 1.610 . S
N1448 C1449 1.351 . S
C1449 C1443 1.428 . S
C1449 N1448 1.351 . S
C1449 C1450 1.434 . S
C1450 C1441 1.429 . S
C1450 N1447 1.350 . S
C1450 C1449 1.434 . S
C1451 C1452 1.369 . S
C1451 C1453 1.419 1_455 S
C1451 H1455 0.930 . S
C1452 C1451 1.369 . S
C1452 C1461 1.429 . S
C1453 C1451 1.419 1_655 S
C1453 C1454 1.363 . S
C1453 H1456 0.929 . S
C1454 C1453 1.363 . S
C1454 C1460 1.428 . S
H1455 C1451 0.930 . S
H1456 C1453 0.929 . S
S1457 N1458 1.613 1_655 S
S1457 N1459 1.610 . S
N1458 S1457 1.613 1_455 S
N1458 C1461 1.350 . S
N1459 S1457 1.610 . S
N1459 C1460 1.351 . S
C1460 C1454 1.428 . S
C1460 N1459 1.351 . S
C1460 C1461 1.434 1_655 S
C1461 C1452 1.429 . S
C1461 N1458 1.350 . S
C1461 C1460 1.434 1_455 S
C1462 C1463 1.369 . S
C1462 C1464 1.419 . S
C1462 H1466 0.930 . S
C1463 C1462 1.369 . S
C1463 C1472 1.429 . S
C1464 C1462 1.419 . S
C1464 C1465 1.363 . S
C1464 H1467 0.929 . S
C1465 C1464 1.363 . S
C1465 C1471 1.428 . S
H1466 C1462 0.930 . S
H1467 C1464 0.929 . S
S1468 N1469 1.613 . S
S1468 N1470 1.610 . S
N1469 S1468 1.613 . S
N1469 C1472 1.350 . S
N1470 S1468 1.610 . S
N1470 C1471 1.351 . S
C1471 C1465 1.428 . S
C1471 N1470 1.351 . S
C1471 C1472 1.434 . S
C1472 C1463 1.429 . S
C1472 N1469 1.350 . S
C1472 C1471 1.434 . S
C1473 C1474 1.369 . S
C1473 C1475 1.419 . S
C1473 H1477 0.930 . S
C1474 C1473 1.369 . S
C1474 C1483 1.429 . S
C1475 C1473 1.419 . S
C1475 C1476 1.363 . S
C1475 H1478 0.929 . S
C1476 C1475 1.363 . S
C1476 C1482 1.428 . S
H1477 C1473 0.930 . S
H1478 C1475 0.929 . S
S1479 N1480 1.613 . S
S1479 N1481 1.610 . S
N1480 S1479 1.613 . S
N1480 C1483 1.350 . S
N1481 S1479 1.610 . S
N1481 C1482 1.351 . S
C1482 C1476 1.428 . S
C1482 N1481 1.351 . S
C1482 C1483 1.434 . S
C1483 C1474 1.429 . S
C1483 N1480 1.350 . S
C1483 C1482 1.434 . S
C1484 C1485 1.369 . S
C1484 C1486 1.419 . S
C1484 H1488 0.930 . S
C1485 C1484 1.369 . S
C1485 C1494 1.429 . S
C1486 C1484 1.419 . S
C1486 C1487 1.363 . S
C1486 H1489 0.929 . S
C1487 C1486 1.363 . S
C1487 C1493 1.428 . S
H1488 C1484 0.930 . S
H1489 C1486 0.929 . S
S1490 N1491 1.613 . S
S1490 N1492 1.610 . S
N1491 S1490 1.613 . S
N1491 C1494 1.350 . S
N1492 S1490 1.610 . S
N1492 C1493 1.351 . S
C1493 C1487 1.428 . S
C1493 N1492 1.351 . S
C1493 C1494 1.434 . S
C1494 C1485 1.429 . S
C1494 N1491 1.350 . S
C1494 C1493 1.434 . S
C1495 C1496 1.369 . S
C1495 C1497 1.419 . S
C1495 H1499 0.930 . S
C1496 C1495 1.369 . S
C1496 C1505 1.429 . S
C1497 C1495 1.419 . S
C1497 C1498 1.363 . S
C1497 H1500 0.929 . S
C1498 C1497 1.363 . S
C1498 C1504 1.428 . S
H1499 C1495 0.930 . S
H1500 C1497 0.929 . S
S1501 N1502 1.613 . S
S1501 N1503 1.610 . S
N1502 S1501 1.613 . S
N1502 C1505 1.350 . S
N1503 S1501 1.610 . S
N1503 C1504 1.351 . S
C1504 C1498 1.428 . S
C1504 N1503 1.351 . S
C1504 C1505 1.434 . S
C1505 C1496 1.429 . S
C1505 N1502 1.350 . S
C1505 C1504 1.434 . S
C1506 C1507 1.369 . S
C1506 C1508 1.419 . S
C1506 H1510 0.930 . S
C1507 C1506 1.369 . S
C1507 C1516 1.429 . S
C1508 C1506 1.419 . S
C1508 C1509 1.363 . S
C1508 H1511 0.929 . S
C1509 C1508 1.363 . S
C1509 C1515 1.428 . S
H1510 C1506 0.930 . S
H1511 C1508 0.929 . S
S1512 N1513 1.613 . S
S1512 N1514 1.610 . S
N1513 S1512 1.613 . S
N1513 C1516 1.350 . S
N1514 S1512 1.610 . S
N1514 C1515 1.351 . S
C1515 C1509 1.428 . S
C1515 N1514 1.351 . S
C1515 C1516 1.434 . S
C1516 C1507 1.429 . S
C1516 N1513 1.350 . S
C1516 C1515 1.434 . S
C1517 C1518 1.369 . S
C1517 C1519 1.419 1_655 S
C1517 H1521 0.930 . S
C1518 C1517 1.369 . S
C1518 C1527 1.429 . S
C1519 C1517 1.419 1_455 S
C1519 C1520 1.363 . S
C1519 H1522 0.929 . S
C1520 C1519 1.363 . S
C1520 C1526 1.428 1_455 S
H1521 C1517 0.930 . S
H1522 C1519 0.929 . S
S1523 N1524 1.613 . S
S1523 N1525 1.610 1_655 S
N1524 S1523 1.613 . S
N1524 C1527 1.350 . S
N1525 S1523 1.610 1_455 S
N1525 C1526 1.351 1_455 S
C1526 C1520 1.428 1_655 S
C1526 N1525 1.351 1_655 S
C1526 C1527 1.434 . S
C1527 C1518 1.429 . S
C1527 N1524 1.350 . S
C1527 C1526 1.434 . S
C1528 C1529 1.369 . S
C1528 C1530 1.419 . S
C1528 H1532 0.930 . S
C1529 C1528 1.369 . S
C1529 C1538 1.429 . S
C1530 C1528 1.419 . S
C1530 C1531 1.363 . S
C1530 H1533 0.929 . S
C1531 C1530 1.363 . S
C1531 C1537 1.428 . S
H1532 C1528 0.930 . S
H1533 C1530 0.929 . S
S1534 N1535 1.613 . S
S1534 N1536 1.610 . S
N1535 S1534 1.613 . S
N1535 C1538 1.350 . S
N1536 S1534 1.610 . S
N1536 C1537 1.351 . S
C1537 C1531 1.428 . S
C1537 N1536 1.351 . S
C1537 C1538 1.434 . S
C1538 C1529 1.429 . S
C1538 N1535 1.350 . S
C1538 C1537 1.434 . S
C1539 C1540 1.369 . S
C1539 C1541 1.419 1_655 S
C1539 H1543 0.930 . S
C1540 C1539 1.369 . S
C1540 C1549 1.429 . S
C1541 C1539 1.419 1_455 S
C1541 C1542 1.363 . S
C1541 H1544 0.929 . S
C1542 C1541 1.363 . S
C1542 C1548 1.428 . S
H1543 C1539 0.930 . S
H1544 C1541 0.929 . S
S1545 N1546 1.613 1_455 S
S1545 N1547 1.610 . S
N1546 S1545 1.613 1_655 S
N1546 C1549 1.350 . S
N1547 S1545 1.610 . S
N1547 C1548 1.351 . S
C1548 C1542 1.428 . S
C1548 N1547 1.351 . S
C1548 C1549 1.434 1_455 S
C1549 C1540 1.429 . S
C1549 N1546 1.350 . S
C1549 C1548 1.434 1_655 S
C1550 C1551 1.369 . S
C1550 C1552 1.419 . S
C1550 H1554 0.930 . S
C1551 C1550 1.369 . S
C1551 C1560 1.429 . S
C1552 C1550 1.419 . S
C1552 C1553 1.363 . S
C1552 H1555 0.929 . S
C1553 C1552 1.363 . S
C1553 C1559 1.428 . S
H1554 C1550 0.930 . S
H1555 C1552 0.929 . S
S1556 N1557 1.613 . S
S1556 N1558 1.610 . S
N1557 S1556 1.613 . S
N1557 C1560 1.350 . S
N1558 S1556 1.610 . S
N1558 C1559 1.351 . S
C1559 C1553 1.428 . S
C1559 N1558 1.351 . S
C1559 C1560 1.434 . S
C1560 C1551 1.429 . S
C1560 N1557 1.350 . S
C1560 C1559 1.434 . S
C1561 C1562 1.369 . S
C1561 C1563 1.419 . S
C1561 H1565 0.930 . S
C1562 C1561 1.369 . S
C1562 C1571 1.429 . S
C1563 C1561 1.419 . S
C1563 C1564 1.363 . S
C1563 H1566 0.929 . S
C1564 C1563 1.363 . S
C1564 C1570 1.428 . S
H1565 C1561 0.930 . S
H1566 C1563 0.929 . S
S1567 N1568 1.613 . S
S1567 N1569 1.610 . S
N1568 S1567 1.613 . S
N1568 C1571 1.350 . S
N1569 S1567 1.610 . S
N1569 C1570 1.351 . S
C1570 C1564 1.428 . S
C1570 N1569 1.351 . S
C1570 C1571 1.434 . S
C1571 C1562 1.429 . S
C1571 N1568 1.350 . S
C1571 C1570 1.434 . S
C1572 C1573 1.369 . S
C1572 C1574 1.419 . S
C1572 H1576 0.930 . S
C1573 C1572 1.369 . S
C1573 C1582 1.429 . S
C1574 C1572 1.419 . S
C1574 C1575 1.363 . S
C1574 H1577 0.929 . S
C1575 C1574 1.363 . S
C1575 C1581 1.428 . S
H1576 C1572 0.930 . S
H1577 C1574 0.929 . S
S1578 N1579 1.613 . S
S1578 N1580 1.610 . S
N1579 S1578 1.613 . S
N1579 C1582 1.350 . S
N1580 S1578 1.610 . S
N1580 C1581 1.351 . S
C1581 C1575 1.428 . S
C1581 N1580 1.351 . S
C1581 C1582 1.434 . S
C1582 C1573 1.429 . S
C1582 N1579 1.350 . S
C1582 C1581 1.434 . S
C1583 C1584 1.369 . S
C1583 C1585 1.419 . S
C1583 H1587 0.930 . S
C1584 C1583 1.369 . S
C1584 C1593 1.429 . S
C1585 C1583 1.419 . S
C1585 C1586 1.363 . S
C1585 H1588 0.929 . S
C1586 C1585 1.363 . S
C1586 C1592 1.428 . S
H1587 C1583 0.930 . S
H1588 C1585 0.929 . S
S1589 N1590 1.613 . S
S1589 N1591 1.610 . S
N1590 S1589 1.613 . S
N1590 C1593 1.350 . S
N1591 S1589 1.610 . S
N1591 C1592 1.351 . S
C1592 C1586 1.428 . S
C1592 N1591 1.351 . S
C1592 C1593 1.434 . S
C1593 C1584 1.429 . S
C1593 N1590 1.350 . S
C1593 C1592 1.434 . S
C1594 C1595 1.369 . S
C1594 C1596 1.419 . S
C1594 H1598 0.930 . S
C1595 C1594 1.369 . S
C1595 C1604 1.429 . S
C1596 C1594 1.419 . S
C1596 C1597 1.363 . S
C1596 H1599 0.929 . S
C1597 C1596 1.363 . S
C1597 C1603 1.428 . S
H1598 C1594 0.930 . S
H1599 C1596 0.929 . S
S1600 N1601 1.613 . S
S1600 N1602 1.610 . S
N1601 S1600 1.613 . S
N1601 C1604 1.350 . S
N1602 S1600 1.610 . S
N1602 C1603 1.351 . S
C1603 C1597 1.428 . S
C1603 N1602 1.351 . S
C1603 C1604 1.434 . S
C1604 C1595 1.429 . S
C1604 N1601 1.350 . S
C1604 C1603 1.434 . S
C1605 C1606 1.369 1_455 S
C1605 C1607 1.419 . S
C1605 H1609 0.930 1_455 S
C1606 C1605 1.369 1_655 S
C1606 C1615 1.429 . S
C1607 C1605 1.419 . S
C1607 C1608 1.363 . S
C1607 H1610 0.929 . S
C1608 C1607 1.363 . S
C1608 C1614 1.428 . S
H1609 C1605 0.930 1_655 S
H1610 C1607 0.929 . S
S1611 N1612 1.613 . S
S1611 N1613 1.610 1_655 S
N1612 S1611 1.613 . S
N1612 C1615 1.350 . S
N1613 S1611 1.610 1_455 S
N1613 C1614 1.351 . S
C1614 C1608 1.428 . S
C1614 N1613 1.351 . S
C1614 C1615 1.434 1_455 S
C1615 C1606 1.429 . S
C1615 N1612 1.350 . S
C1615 C1614 1.434 1_655 S
C1616 C1617 1.369 . S
C1616 C1618 1.419 . S
C1616 H1620 0.930 . S
C1617 C1616 1.369 . S
C1617 C1626 1.429 1_565 S
C1618 C1616 1.419 . S
C1618 C1619 1.363 1_565 S
C1618 H1621 0.929 . S
C1619 C1618 1.363 1_545 S
C1619 C1625 1.428 . S
H1620 C1616 0.930 . S
H1621 C1618 0.929 . S
S1622 N1623 1.613 . S
S1622 N1624 1.610 . S
N1623 S1622 1.613 . S
N1623 C1626 1.350 . S
N1624 S1622 1.610 . S
N1624 C1625 1.351 . S
C1625 C1619 1.428 . S
C1625 N1624 1.351 . S
C1625 C1626 1.434 . S
C1626 C1617 1.429 1_545 S
C1626 N1623 1.350 . S
C1626 C1625 1.434 . S
C1627 C1628 1.369 . S
C1627 C1629 1.419 . S
C1627 H1631 0.930 . S
C1628 C1627 1.369 . S
C1628 C1637 1.429 . S
C1629 C1627 1.419 . S
C1629 C1630 1.363 . S
C1629 H1632 0.929 . S
C1630 C1629 1.363 . S
C1630 C1636 1.428 . S
H1631 C1627 0.930 . S
H1632 C1629 0.929 . S
S1633 N1634 1.613 . S
S1633 N1635 1.610 . S
N1634 S1633 1.613 . S
N1634 C1637 1.350 . S
N1635 S1633 1.610 . S
N1635 C1636 1.351 . S
C1636 C1630 1.428 . S
C1636 N1635 1.351 . S
C1636 C1637 1.434 . S
C1637 C1628 1.429 . S
C1637 N1634 1.350 . S
C1637 C1636 1.434 . S
C1638 C1639 1.369 1_545 S
C1638 C1640 1.419 . S
C1638 H1642 0.930 . S
C1639 C1638 1.369 1_565 S
C1639 C1648 1.429 . S
C1640 C1638 1.419 . S
C1640 C1641 1.363 . S
C1640 H1643 0.929 . S
C1641 C1640 1.363 . S
C1641 C1647 1.428 1_545 S
H1642 C1638 0.930 . S
H1643 C1640 0.929 . S
S1644 N1645 1.613 . S
S1644 N1646 1.610 . S
N1645 S1644 1.613 . S
N1645 C1648 1.350 . S
N1646 S1644 1.610 . S
N1646 C1647 1.351 . S
C1647 C1641 1.428 1_565 S
C1647 N1646 1.351 . S
C1647 C1648 1.434 . S
C1648 C1639 1.429 . S
C1648 N1645 1.350 . S
C1648 C1647 1.434 . S
C1649 C1650 1.449 . S
C1649 C1651 1.339 1_554 S
C1649 H1653 0.930 . S
C1650 C1649 1.449 . S
C1650 C1659 1.429 . S
C1651 C1649 1.339 1_556 S
C1651 C1652 1.363 . S
C1651 H1654 0.929 . S
C1652 C1651 1.363 . S
C1652 C1658 1.470 . S
H1653 C1649 0.930 . S
H1654 C1651 0.929 . S
S1655 N1656 1.613 . S
S1655 N1657 1.648 . S
N1656 S1655 1.613 . S
N1656 C1659 1.350 . S
N1657 S1655 1.648 . S
N1657 C1658 1.347 1_554 S
C1658 C1652 1.470 . S
C1658 N1657 1.347 1_556 S
C1658 C1659 1.391 1_556 S
C1659 C1650 1.429 . S
C1659 N1656 1.350 . S
C1659 C1658 1.391 1_554 S
C1660 C1661 1.369 1_565 S
C1660 C1662 1.419 . S
C1660 H1664 0.930 . S
C1661 C1660 1.369 1_545 S
C1661 C1670 1.429 . S
C1662 C1660 1.419 . S
C1662 C1663 1.363 . S
C1662 H1665 0.929 . S
C1663 C1662 1.363 . S
C1663 C1669 1.428 1_565 S
H1664 C1660 0.930 . S
H1665 C1662 0.929 . S
S1666 N1667 1.613 . S
S1666 N1668 1.610 . S
N1667 S1666 1.613 . S
N1667 C1670 1.350 . S
N1668 S1666 1.610 . S
N1668 C1669 1.351 . S
C1669 C1663 1.428 1_545 S
C1669 N1668 1.351 . S
C1669 C1670 1.434 . S
C1670 C1661 1.429 . S
C1670 N1667 1.350 . S
C1670 C1669 1.434 . S
C1671 C1672 1.369 . S
C1671 C1673 1.419 . S
C1671 H1675 0.930 . S
C1672 C1671 1.369 . S
C1672 C1681 1.429 1_565 S
C1673 C1671 1.419 . S
C1673 C1674 1.363 . S
C1673 H1676 0.929 . S
C1674 C1673 1.363 . S
C1674 C1680 1.428 1_565 S
H1675 C1671 0.930 . S
H1676 C1673 0.929 . S
S1677 N1678 1.613 . S
S1677 N1679 1.610 . S
N1678 S1677 1.613 . S
N1678 C1681 1.350 . S
N1679 S1677 1.610 . S
N1679 C1680 1.351 . S
C1680 C1674 1.428 1_545 S
C1680 N1679 1.351 . S
C1680 C1681 1.434 . S
C1681 C1672 1.429 1_545 S
C1681 N1678 1.350 . S
C1681 C1680 1.434 . S
C1682 C1683 1.369 1_565 S
C1682 C1684 1.419 . S
C1682 H1686 0.930 . S
C1683 C1682 1.369 1_545 S
C1683 C1692 1.429 . S
C1684 C1682 1.419 . S
C1684 C1685 1.363 . S
C1684 H1687 0.929 . S
C1685 C1684 1.363 . S
C1685 C1691 1.428 1_565 S
H1686 C1682 0.930 . S
H1687 C1684 0.929 . S
S1688 N1689 1.613 . S
S1688 N1690 1.610 . S
N1689 S1688 1.613 . S
N1689 C1692 1.350 . S
N1690 S1688 1.610 . S
N1690 C1691 1.351 . S
C1691 C1685 1.428 1_545 S
C1691 N1690 1.351 . S
C1691 C1692 1.434 . S
C1692 C1683 1.429 . S
C1692 N1689 1.350 . S
C1692 C1691 1.434 . S
C1693 C1694 1.369 1_565 S
C1693 C1695 1.419 1_554 S
C1693 H1697 0.930 . S
C1694 C1693 1.369 1_545 S
C1694 C1703 1.429 . S
C1695 C1693 1.419 1_556 S
C1695 C1696 1.363 1_565 S
C1695 H1698 0.929 . S
C1696 C1695 1.363 1_545 S
C1696 C1702 1.428 . S
H1697 C1693 0.930 . S
H1698 C1695 0.929 . S
S1699 N1700 1.613 . S
S1699 N1701 1.610 1_554 S
N1700 S1699 1.613 . S
N1700 C1703 1.350 . S
N1701 S1699 1.610 1_556 S
N1701 C1702 1.351 . S
C1702 C1696 1.428 . S
C1702 N1701 1.351 . S
C1702 C1703 1.434 1_556 S
C1703 C1694 1.429 . S
C1703 N1700 1.350 . S
C1703 C1702 1.434 1_554 S
C1704 C1705 1.369 . S
C1704 C1706 1.419 . S
C1704 H1708 0.930 . S
C1705 C1704 1.369 . S
C1705 C1714 1.429 . S
C1706 C1704 1.419 . S
C1706 C1707 1.363 . S
C1706 H1709 0.929 . S
C1707 C1706 1.363 . S
C1707 C1713 1.428 . S
H1708 C1704 0.930 . S
H1709 C1706 0.929 . S
S1710 N1711 1.613 . S
S1710 N1712 1.610 . S
N1711 S1710 1.613 . S
N1711 C1714 1.350 . S
N1712 S1710 1.610 . S
N1712 C1713 1.351 . S
C1713 C1707 1.428 . S
C1713 N1712 1.351 . S
C1713 C1714 1.434 . S
C1714 C1705 1.429 . S
C1714 N1711 1.350 . S
C1714 C1713 1.434 . S
C1715 C1716 1.458 . S
C1715 C1717 1.329 1_554 S
C1715 H1719 0.938 . S
C1716 C1715 1.458 . S
C1716 C1725 1.429 . S
C1717 C1715 1.329 1_556 S
C1717 C1718 1.363 . S
C1717 H1720 0.929 . S
C1718 C1717 1.363 . S
C1718 C1724 1.485 . S
H1719 C1715 0.938 . S
H1720 C1717 0.929 . S
S1721 N1722 1.613 . S
S1721 N1723 1.605 . S
N1722 S1721 1.613 . S
N1722 C1725 1.350 . S
N1723 S1721 1.605 . S
N1723 C1724 1.349 1_554 S
C1724 C1718 1.485 . S
C1724 N1723 1.349 1_556 S
C1724 C1725 1.375 1_556 S
C1725 C1716 1.429 . S
C1725 N1722 1.350 . S
C1725 C1724 1.375 1_554 S
C1726 C1727 1.369 . S
C1726 C1728 1.419 . S
C1726 H1730 0.930 . S
C1727 C1726 1.369 . S
C1727 C1736 1.429 . S
C1728 C1726 1.419 . S
C1728 C1729 1.363 . S
C1728 H1731 0.929 . S
C1729 C1728 1.363 . S
C1729 C1735 1.428 . S
H1730 C1726 0.930 . S
H1731 C1728 0.929 . S
S1732 N1733 1.613 . S
S1732 N1734 1.610 . S
N1733 S1732 1.613 . S
N1733 C1736 1.350 . S
N1734 S1732 1.610 . S
N1734 C1735 1.351 . S
C1735 C1729 1.428 . S
C1735 N1734 1.351 . S
C1735 C1736 1.434 . S
C1736 C1727 1.429 . S
C1736 N1733 1.350 . S
C1736 C1735 1.434 . S
C1737 C1738 1.369 . S
C1737 C1739 1.419 . S
C1737 H1741 0.930 . S
C1738 C1737 1.369 . S
C1738 C1747 1.429 . S
C1739 C1737 1.419 . S
C1739 C1740 1.363 . S
C1739 H1742 0.929 . S
C1740 C1739 1.363 . S
C1740 C1746 1.428 . S
H1741 C1737 0.930 . S
H1742 C1739 0.929 . S
S1743 N1744 1.613 . S
S1743 N1745 1.610 . S
N1744 S1743 1.613 . S
N1744 C1747 1.350 . S
N1745 S1743 1.610 . S
N1745 C1746 1.351 . S
C1746 C1740 1.428 . S
C1746 N1745 1.351 . S
C1746 C1747 1.434 . S
C1747 C1738 1.429 . S
C1747 N1744 1.350 . S
C1747 C1746 1.434 . S
C1748 C1749 1.369 . S
C1748 C1750 1.419 . S
C1748 H1752 0.930 . S
C1749 C1748 1.369 . S
C1749 C1758 1.429 . S
C1750 C1748 1.419 . S
C1750 C1751 1.363 . S
C1750 H1753 0.929 . S
C1751 C1750 1.363 . S
C1751 C1757 1.428 . S
H1752 C1748 0.930 . S
H1753 C1750 0.929 . S
S1754 N1755 1.613 . S
S1754 N1756 1.610 . S
N1755 S1754 1.613 . S
N1755 C1758 1.350 . S
N1756 S1754 1.610 . S
N1756 C1757 1.351 . S
C1757 C1751 1.428 . S
C1757 N1756 1.351 . S
C1757 C1758 1.434 . S
C1758 C1749 1.429 . S
C1758 N1755 1.350 . S
C1758 C1757 1.434 . S
C1759 C1760 1.457 . S
C1759 C1761 1.330 1_556 S
C1759 H1763 0.938 . S
C1760 C1759 1.457 . S
C1760 C1769 1.429 . S
C1761 C1759 1.330 1_554 S
C1761 C1762 1.363 . S
C1761 H1764 0.929 . S
C1762 C1761 1.363 . S
C1762 C1768 1.484 . S
H1763 C1759 0.938 . S
H1764 C1761 0.929 . S
S1765 N1766 1.613 . S
S1765 N1767 1.607 . S
N1766 S1765 1.613 . S
N1766 C1769 1.350 . S
N1767 S1765 1.607 . S
N1767 C1768 1.348 1_556 S
C1768 C1762 1.484 . S
C1768 N1767 1.348 1_554 S
C1768 C1769 1.376 1_554 S
C1769 C1760 1.429 . S
C1769 N1766 1.350 . S
C1769 C1768 1.376 1_556 S
C1770 C1771 1.369 . S
C1770 C1772 1.419 . S
C1770 H1774 0.930 . S
C1771 C1770 1.369 . S
C1771 C1780 1.429 . S
C1772 C1770 1.419 . S
C1772 C1773 1.363 . S
C1772 H1775 0.929 . S
C1773 C1772 1.363 . S
C1773 C1779 1.428 . S
H1774 C1770 0.930 . S
H1775 C1772 0.929 . S
S1776 N1777 1.613 . S
S1776 N1778 1.610 . S
N1777 S1776 1.613 . S
N1777 C1780 1.350 . S
N1778 S1776 1.610 . S
N1778 C1779 1.351 . S
C1779 C1773 1.428 . S
C1779 N1778 1.351 . S
C1779 C1780 1.434 . S
C1780 C1771 1.429 . S
C1780 N1777 1.350 . S
C1780 C1779 1.434 . S
C1781 C1782 1.369 . S
C1781 C1783 1.419 . S
C1781 H1785 0.930 . S
C1782 C1781 1.369 . S
C1782 C1791 1.429 . S
C1783 C1781 1.419 . S
C1783 C1784 1.363 . S
C1783 H1786 0.929 . S
C1784 C1783 1.363 . S
C1784 C1790 1.428 . S
H1785 C1781 0.930 . S
H1786 C1783 0.929 . S
S1787 N1788 1.613 . S
S1787 N1789 1.610 . S
N1788 S1787 1.613 . S
N1788 C1791 1.350 . S
N1789 S1787 1.610 . S
N1789 C1790 1.351 . S
C1790 C1784 1.428 . S
C1790 N1789 1.351 . S
C1790 C1791 1.434 . S
C1791 C1782 1.429 . S
C1791 N1788 1.350 . S
C1791 C1790 1.434 . S
C1792 C1793 1.369 . S
C1792 C1794 1.419 . S
C1792 H1796 0.930 . S
C1793 C1792 1.369 . S
C1793 C1802 1.429 . S
C1794 C1792 1.419 . S
C1794 C1795 1.363 . S
C1794 H1797 0.929 . S
C1795 C1794 1.363 . S
C1795 C1801 1.428 . S
H1796 C1792 0.930 . S
H1797 C1794 0.929 . S
S1798 N1799 1.613 . S
S1798 N1800 1.610 . S
N1799 S1798 1.613 . S
N1799 C1802 1.350 . S
N1800 S1798 1.610 . S
N1800 C1801 1.351 . S
C1801 C1795 1.428 . S
C1801 N1800 1.351 . S
C1801 C1802 1.434 . S
C1802 C1793 1.429 . S
C1802 N1799 1.350 . S
C1802 C1801 1.434 . S
C1803 C1804 1.369 . S
C1803 C1805 1.419 1_455 S
C1803 H1807 0.930 . S
C1804 C1803 1.369 . S
C1804 C1813 1.429 . S
C1805 C1803 1.419 1_655 S
C1805 C1806 1.363 . S
C1805 H1808 0.929 . S
C1806 C1805 1.363 . S
C1806 C1812 1.428 . S
H1807 C1803 0.930 . S
H1808 C1805 0.929 . S
S1809 N1810 1.613 1_655 S
S1809 N1811 1.610 . S
N1810 S1809 1.613 1_455 S
N1810 C1813 1.350 . S
N1811 S1809 1.610 . S
N1811 C1812 1.351 . S
C1812 C1806 1.428 . S
C1812 N1811 1.351 . S
C1812 C1813 1.434 1_655 S
C1813 C1804 1.429 . S
C1813 N1810 1.350 . S
C1813 C1812 1.434 1_455 S
C1814 C1815 1.369 . S
C1814 C1816 1.419 . S
C1814 H1818 0.930 . S
C1815 C1814 1.369 . S
C1815 C1824 1.429 1_655 S
C1816 C1814 1.419 . S
C1816 C1817 1.363 1_655 S
C1816 H1819 0.929 . S
C1817 C1816 1.363 1_455 S
C1817 C1823 1.428 . S
H1818 C1814 0.930 . S
H1819 C1816 0.929 . S
S1820 N1821 1.613 . S
S1820 N1822 1.610 . S
N1821 S1820 1.613 . S
N1821 C1824 1.350 . S
N1822 S1820 1.610 . S
N1822 C1823 1.351 . S
C1823 C1817 1.428 . S
C1823 N1822 1.351 . S
C1823 C1824 1.434 . S
C1824 C1815 1.429 1_455 S
C1824 N1821 1.350 . S
C1824 C1823 1.434 . S
C1825 C1826 1.369 . S
C1825 C1827 1.419 . S
C1825 H1829 0.930 . S
C1826 C1825 1.369 . S
C1826 C1835 1.429 . S
C1827 C1825 1.419 . S
C1827 C1828 1.363 . S
C1827 H1830 0.929 . S
C1828 C1827 1.363 . S
C1828 C1834 1.428 . S
H1829 C1825 0.930 . S
H1830 C1827 0.929 . S
S1831 N1832 1.613 . S
S1831 N1833 1.610 . S
N1832 S1831 1.613 . S
N1832 C1835 1.350 . S
N1833 S1831 1.610 . S
N1833 C1834 1.351 . S
C1834 C1828 1.428 . S
C1834 N1833 1.351 . S
C1834 C1835 1.434 . S
C1835 C1826 1.429 . S
C1835 N1832 1.350 . S
C1835 C1834 1.434 . S
C1836 C1837 1.369 . S
C1836 C1838 1.419 . S
C1836 H1840 0.930 . S
C1837 C1836 1.369 . S
C1837 C1846 1.429 . S
C1838 C1836 1.419 . S
C1838 C1839 1.363 . S
C1838 H1841 0.929 . S
C1839 C1838 1.363 . S
C1839 C1845 1.428 . S
H1840 C1836 0.930 . S
H1841 C1838 0.929 . S
S1842 N1843 1.613 . S
S1842 N1844 1.610 . S
N1843 S1842 1.613 . S
N1843 C1846 1.350 . S
N1844 S1842 1.610 . S
N1844 C1845 1.351 . S
C1845 C1839 1.428 . S
C1845 N1844 1.351 . S
C1845 C1846 1.434 . S
C1846 C1837 1.429 . S
C1846 N1843 1.350 . S
C1846 C1845 1.434 . S
C1847 C1848 1.369 . S
C1847 C1849 1.419 . S
C1847 H1851 0.930 . S
C1848 C1847 1.369 . S
C1848 C1857 1.429 . S
C1849 C1847 1.419 . S
C1849 C1850 1.363 . S
C1849 H1852 0.929 . S
C1850 C1849 1.363 . S
C1850 C1856 1.428 . S
H1851 C1847 0.930 . S
H1852 C1849 0.929 . S
S1853 N1854 1.613 . S
S1853 N1855 1.610 . S
N1854 S1853 1.613 . S
N1854 C1857 1.350 . S
N1855 S1853 1.610 . S
N1855 C1856 1.351 . S
C1856 C1850 1.428 . S
C1856 N1855 1.351 . S
C1856 C1857 1.434 . S
C1857 C1848 1.429 . S
C1857 N1854 1.350 . S
C1857 C1856 1.434 . S
C1858 C1859 1.369 1_455 S
C1858 C1860 1.419 . S
C1858 H1862 0.930 . S
C1859 C1858 1.369 1_655 S
C1859 C1868 1.429 . S
C1860 C1858 1.419 . S
C1860 C1861 1.363 . S
C1860 H1863 0.929 . S
C1861 C1860 1.363 . S
C1861 C1867 1.428 1_455 S
H1862 C1858 0.930 . S
H1863 C1860 0.929 . S
S1864 N1865 1.613 . S
S1864 N1866 1.610 . S
N1865 S1864 1.613 . S
N1865 C1868 1.350 . S
N1866 S1864 1.610 . S
N1866 C1867 1.351 . S
C1867 C1861 1.428 1_655 S
C1867 N1866 1.351 . S
C1867 C1868 1.434 . S
C1868 C1859 1.429 . S
C1868 N1865 1.350 . S
C1868 C1867 1.434 . S
C1869 C1870 1.369 . S
C1869 C1871 1.419 1_455 S
C1869 H1873 0.930 . S
C1870 C1869 1.369 . S
C1870 C1879 1.429 . S
C1871 C1869 1.419 1_655 S
C1871 C1872 1.363 . S
C1871 H1874 0.929 . S
C1872 C1871 1.363 . S
C1872 C1878 1.428 . S
H1873 C1869 0.930 . S
H1874 C1871 0.929 . S
S1875 N1876 1.613 1_655 S
S1875 N1877 1.610 . S
N1876 S1875 1.613 1_455 S
N1876 C1879 1.350 . S
N1877 S1875 1.610 . S
N1877 C1878 1.351 . S
C1878 C1872 1.428 . S
C1878 N1877 1.351 . S
C1878 C1879 1.434 1_655 S
C1879 C1870 1.429 . S
C1879 N1876 1.350 . S
C1879 C1878 1.434 1_455 S
C1880 C1881 1.369 . S
C1880 C1882 1.419 . S
C1880 H1884 0.930 . S
C1881 C1880 1.369 . S
C1881 C1890 1.429 . S
C1882 C1880 1.419 . S
C1882 C1883 1.363 . S
C1882 H1885 0.929 . S
C1883 C1882 1.363 . S
C1883 C1889 1.428 . S
H1884 C1880 0.930 . S
H1885 C1882 0.929 . S
S1886 N1887 1.613 . S
S1886 N1888 1.610 . S
N1887 S1886 1.613 . S
N1887 C1890 1.350 . S
N1888 S1886 1.610 . S
N1888 C1889 1.351 . S
C1889 C1883 1.428 . S
C1889 N1888 1.351 . S
C1889 C1890 1.434 . S
C1890 C1881 1.429 . S
C1890 N1887 1.350 . S
C1890 C1889 1.434 . S
C1891 C1892 1.369 . S
C1891 C1893 1.419 1_455 S
C1891 H1895 0.930 . S
C1892 C1891 1.369 . S
C1892 C1901 1.429 . S
C1893 C1891 1.419 1_655 S
C1893 C1894 1.363 . S
C1893 H1896 0.929 . S
C1894 C1893 1.363 . S
C1894 C1900 1.428 . S
H1895 C1891 0.930 . S
H1896 C1893 0.929 . S
S1897 N1898 1.613 . S
S1897 N1899 1.610 1_455 S
N1898 S1897 1.613 . S
N1898 C1901 1.350 . S
N1899 S1897 1.610 1_655 S
N1899 C1900 1.351 . S
C1900 C1894 1.428 . S
C1900 N1899 1.351 . S
C1900 C1901 1.434 1_655 S
C1901 C1892 1.429 . S
C1901 N1898 1.350 . S
C1901 C1900 1.434 1_455 S
C1902 C1903 1.369 1_655 S
C1902 C1904 1.419 . S
C1902 H1906 0.930 . S
C1903 C1902 1.369 1_455 S
C1903 C1912 1.429 . S
C1904 C1902 1.419 . S
C1904 C1905 1.363 . S
C1904 H1907 0.929 . S
C1905 C1904 1.363 . S
C1905 C1911 1.428 1_655 S
H1906 C1902 0.930 . S
H1907 C1904 0.929 . S
S1908 N1909 1.613 . S
S1908 N1910 1.610 . S
N1909 S1908 1.613 . S
N1909 C1912 1.350 . S
N1910 S1908 1.610 . S
N1910 C1911 1.351 . S
C1911 C1905 1.428 1_455 S
C1911 N1910 1.351 . S
C1911 C1912 1.434 . S
C1912 C1903 1.429 . S
C1912 N1909 1.350 . S
C1912 C1911 1.434 . S
C1913 C1914 1.369 . S
C1913 C1915 1.419 . S
C1913 H1917 0.930 . S
C1914 C1913 1.369 . S
C1914 C1923 1.429 . S
C1915 C1913 1.419 . S
C1915 C1916 1.363 . S
C1915 H1918 0.929 . S
C1916 C1915 1.363 . S
C1916 C1922 1.428 . S
H1917 C1913 0.930 . S
H1918 C1915 0.929 . S
S1919 N1920 1.613 . S
S1919 N1921 1.610 . S
N1920 S1919 1.613 . S
N1920 C1923 1.350 . S
N1921 S1919 1.610 . S
N1921 C1922 1.351 . S
C1922 C1916 1.428 . S
C1922 N1921 1.351 . S
C1922 C1923 1.434 . S
C1923 C1914 1.429 . S
C1923 N1920 1.350 . S
C1923 C1922 1.434 . S
C1924 C1925 1.369 . S
C1924 C1926 1.419 . S
C1924 H1928 0.930 . S
C1925 C1924 1.369 . S
C1925 C1934 1.429 . S
C1926 C1924 1.419 . S
C1926 C1927 1.363 . S
C1926 H1929 0.929 . S
C1927 C1926 1.363 . S
C1927 C1933 1.428 . S
H1928 C1924 0.930 . S
H1929 C1926 0.929 . S
S1930 N1931 1.613 . S
S1930 N1932 1.610 . S
N1931 S1930 1.613 . S
N1931 C1934 1.350 . S
N1932 S1930 1.610 . S
N1932 C1933 1.351 . S
C1933 C1927 1.428 . S
C1933 N1932 1.351 . S
C1933 C1934 1.434 . S
C1934 C1925 1.429 . S
C1934 N1931 1.350 . S
C1934 C1933 1.434 . S
C1935 C1936 1.369 . S
C1935 C1937 1.419 . S
C1935 H1939 0.930 . S
C1936 C1935 1.369 . S
C1936 C1945 1.429 . S
C1937 C1935 1.419 . S
C1937 C1938 1.363 . S
C1937 H1940 0.929 . S
C1938 C1937 1.363 . S
C1938 C1944 1.428 . S
H1939 C1935 0.930 . S
H1940 C1937 0.929 . S
S1941 N1942 1.613 . S
S1941 N1943 1.610 . S
N1942 S1941 1.613 . S
N1942 C1945 1.350 . S
N1943 S1941 1.610 . S
N1943 C1944 1.351 . S
C1944 C1938 1.428 . S
C1944 N1943 1.351 . S
C1944 C1945 1.434 . S
C1945 C1936 1.429 . S
C1945 N1942 1.350 . S
C1945 C1944 1.434 . S
C1946 C1947 1.369 . S
C1946 C1948 1.419 . S
C1946 H1950 0.930 . S
C1947 C1946 1.369 . S
C1947 C1956 1.429 1_655 S
C1948 C1946 1.419 . S
C1948 C1949 1.363 1_655 S
C1948 H1951 0.929 . S
C1949 C1948 1.363 1_455 S
C1949 C1955 1.428 . S
H1950 C1946 0.930 . S
H1951 C1948 0.929 . S
S1952 N1953 1.613 . S
S1952 N1954 1.610 . S
N1953 S1952 1.613 . S
N1953 C1956 1.350 . S
N1954 S1952 1.610 . S
N1954 C1955 1.351 . S
C1955 C1949 1.428 . S
C1955 N1954 1.351 . S
C1955 C1956 1.434 . S
C1956 C1947 1.429 1_455 S
C1956 N1953 1.350 . S
C1956 C1955 1.434 . S
C1957 C1958 1.369 . S
C1957 C1959 1.419 1_655 S
C1957 H1961 0.930 . S
C1958 C1957 1.369 . S
C1958 C1967 1.429 . S
C1959 C1957 1.419 1_455 S
C1959 C1960 1.363 . S
C1959 H1962 0.929 . S
C1960 C1959 1.363 . S
C1960 C1966 1.428 . S
H1961 C1957 0.930 . S
H1962 C1959 0.929 . S
S1963 N1964 1.613 . S
S1963 N1965 1.610 1_655 S
N1964 S1963 1.613 . S
N1964 C1967 1.350 . S
N1965 S1963 1.610 1_455 S
N1965 C1966 1.351 . S
C1966 C1960 1.428 . S
C1966 N1965 1.351 . S
C1966 C1967 1.434 1_455 S
C1967 C1958 1.429 . S
C1967 N1964 1.350 . S
C1967 C1966 1.434 1_655 S
C1089 C9 1.496 . S
C1091 C247 1.500 1_545 S
C1100 C43 1.495 1_565 S
C1102 C145 1.497 . S
C1111 C77 1.499 . S
C1113 C179 1.502 1_565 S
C1122 C213 1.496 . S
C1124 C111 1.496 1_545 S
C1133 C519 1.504 1_565 S
C1135 C281 1.500 . S
C1144 C417 1.502 . S
C1146 C315 1.503 1_545 S
C1155 C451 1.496 1_545 S
C1157 C349 1.501 . S
C1166 C485 1.500 . S
C1168 C383 1.503 1_565 S
C1177 C553 1.498 . S
C1179 C791 1.496 . S
C1188 C689 1.499 . S
C1190 C587 1.496 . S
C1199 C723 1.501 . S
C1201 C621 1.498 . S
C1210 C655 1.504 . S
C1212 C757 1.503 . S
C1221 C825 1.495 . S
C1223 C1063 1.498 . S
C1232 C961 1.496 . S
C1234 C859 1.496 . S
C1243 C893 1.495 . S
C1245 C995 1.500 . S
C1254 C1029 1.495 . S
C1256 C927 1.498 . S
C1265 C954 0.915 . S
C1267 C20 0.917 . S
C1276 C54 0.913 . S
C1278 C444 0.908 1_545 S
C1287 C1022 0.914 . S
C1289 C88 0.917 . S
C1298 C122 0.916 . S
C1300 C512 0.911 1_565 S
C1309 C156 0.913 . S
C1311 C818 0.908 . S
C1320 C308 0.907 1_545 S
C1322 C190 0.914 . S
C1331 C224 0.917 . S
C1333 C886 0.912 . S
C1342 C258 0.915 . S
C1344 C376 0.910 1_565 S
C1353 C682 0.907 . S
C1355 C292 0.914 . S
C1364 C326 0.918 . S
C1366 C172 0.914 1_565 S
C1375 C750 0.906 . S
C1377 C360 0.914 . S
C1386 C240 0.907 1_545 S
C1388 C394 0.914 . S
C1397 C428 0.917 . S
C1399 C546 0.913 . S
C1408 C462 0.917 . S
C1410 C36 0.914 1_565 S
C1419 C496 0.913 . S
C1421 C614 0.907 . S
C1430 C104 0.908 1_545 S
C1432 C530 0.915 . S
C1441 C564 0.916 . S
C1443 C410 0.912 . S
C1452 C988 0.907 . S
C1454 C598 0.914 . S
C1463 C632 0.916 . S
C1465 C478 0.912 . S
C1474 C666 0.917 . S
C1476 C1056 0.912 . S
C1485 C700 0.914 . S
C1487 C274 0.909 . S
C1496 C852 0.909 . S
C1498 C734 0.915 . S
C1507 C768 0.914 . S
C1509 C342 0.909 . S
C1518 C802 0.913 . S
C1520 C920 0.907 . S
C1529 C138 0.915 . S
C1531 C836 0.918 . S
C1540 C716 0.911 . S
C1542 C870 0.915 . S
C1551 C206 0.907 . S
C1553 C904 0.914 . S
C1562 C784 0.915 . S
C1564 C938 0.917 . S
C1573 C972 0.916 . S
C1575 C2 0.910 . S
C1584 C580 0.914 . S
C1586 C1006 0.917 . S
C1595 C1040 0.914 . S
C1597 C70 0.909 . S
C1606 C648 0.915 . S
C1608 C1074 0.918 . S
C1617 C141 1.673 . S
C1619 C5 1.679 . S
C1628 C175 1.681 . S
C1630 C39 1.675 . S
C1639 C73 1.680 . S
C1641 C209 1.674 . S
C1650 C243 1.673 . S
C1652 C107 1.680 . S
C1661 C413 1.681 . S
C1663 C277 1.675 . S
C1672 C447 1.674 . S
C1674 C311 1.676 . S
C1683 C345 1.680 . S
C1685 C481 1.674 . S
C1694 C379 1.679 . S
C1696 C515 1.678 . S
C1705 C685 1.680 . S
C1707 C549 1.674 . S
C1716 C719 1.673 . S
C1718 C583 1.678 . S
C1727 C617 1.681 . S
C1729 C753 1.674 . S
C1738 C651 1.674 . S
C1740 C787 1.677 . S
C1749 C957 1.673 . S
C1751 C821 1.679 . S
C1760 C991 1.675 . S
C1762 C855 1.680 . S
C1771 C889 1.677 . S
C1773 C1025 1.675 . S
C1782 C923 1.675 . S
C1784 C1059 1.675 . S
C1793 C645 1.646 . S
C1795 C33 1.657 . S
C1804 C67 1.646 . S
C1806 C679 1.657 . S
C1815 C577 1.655 . S
C1817 C101 1.649 . S
C1826 C135 1.646 . S
C1828 C611 1.657 . S
C1837 C169 1.648 . S
C1839 C781 1.654 . S
C1848 C815 1.657 . S
C1850 C203 1.649 . S
C1859 C713 1.649 . S
C1861 C237 1.654 . S
C1870 C271 1.647 . S
C1872 C747 1.656 . S
C1881 C305 1.654 . S
C1883 C917 1.649 . S
C1892 C951 1.659 . S
C1894 C339 1.647 . S
C1903 C849 1.646 . S
C1905 C373 1.657 . S
C1914 C407 1.654 . S
C1916 C883 1.650 . S
C1925 C441 1.646 . S
C1927 C1053 1.657 . S
C1936 C1087 1.647 . S
C1938 C475 1.655 . S
C1947 C509 1.659 . S
C1949 C985 1.647 . S
C1958 C543 1.659 . S
C1960 C1019 1.648 . S
