# Generated by pormake.
# Topology umk, (4)-cn, num edge types: 1
# Building blocks:
#     Node 0, Type 0, BuildingBlock: AZAVOO_clean_sbu_0, # of connection points: 4
#     Node 1, Type 0, BuildingBlock: AZAVOO_clean_sbu_0, # of connection points: 4
#     Node 2, Type 0, BuildingBlock: AZAVOO_clean_sbu_0, # of connection points: 4
#     Node 3, Type 0, BuildingBlock: AZAVOO_clean_sbu_0, # of connection points: 4
#     Node 4, Type 0, BuildingBlock: AZAVOO_clean_sbu_0, # of connection points: 4
#     Node 5, Type 0, BuildingBlock: AZAVOO_clean_sbu_0, # of connection points: 4
#     Node 6, Type 0, BuildingBlock: AZAVOO_clean_sbu_0, # of connection points: 4
#     Node 7, Type 0, BuildingBlock: AZAVOO_clean_sbu_0, # of connection points: 4
#     Node 8, Type 0, BuildingBlock: AZAVOO_clean_sbu_0, # of connection points: 4
#     Node 9, Type 0, BuildingBlock: AZAVOO_clean_sbu_0, # of connection points: 4
#     Node 10, Type 0, BuildingBlock: AZAVOO_clean_sbu_0, # of connection points: 4
#     Node 11, Type 0, BuildingBlock: AZAVOO_clean_sbu_0, # of connection points: 4
#     Node 12, Type 0, BuildingBlock: AZAVOO_clean_sbu_0, # of connection points: 4
#     Node 13, Type 0, BuildingBlock: AZAVOO_clean_sbu_0, # of connection points: 4
#     Node 14, Type 0, BuildingBlock: AZAVOO_clean_sbu_0, # of connection points: 4
#     Node 15, Type 0, BuildingBlock: AZAVOO_clean_sbu_0, # of connection points: 4
#     Node 16, Type 0, BuildingBlock: AZAVOO_clean_sbu_0, # of connection points: 4
#     Node 17, Type 0, BuildingBlock: AZAVOO_clean_sbu_0, # of connection points: 4
#     Node 18, Type 0, BuildingBlock: AZAVOO_clean_sbu_0, # of connection points: 4
#     Node 19, Type 0, BuildingBlock: AZAVOO_clean_sbu_0, # of connection points: 4
#     Node 20, Type 0, BuildingBlock: AZAVOO_clean_sbu_0, # of connection points: 4
#     Node 21, Type 0, BuildingBlock: AZAVOO_clean_sbu_0, # of connection points: 4
#     Node 22, Type 0, BuildingBlock: AZAVOO_clean_sbu_0, # of connection points: 4
#     Node 23, Type 0, BuildingBlock: AZAVOO_clean_sbu_0, # of connection points: 4
#     Edge 24, Type (0, 0), BuildingBlock: OJICUG_clean_linker_0, # of connection points: 2
#     Edge 25, Type (0, 0), BuildingBlock: OJICUG_clean_linker_0, # of connection points: 2
#     Edge 26, Type (0, 0), BuildingBlock: OJICUG_clean_linker_0, # of connection points: 2
#     Edge 27, Type (0, 0), BuildingBlock: OJICUG_clean_linker_0, # of connection points: 2
#     Edge 28, Type (0, 0), BuildingBlock: OJICUG_clean_linker_0, # of connection points: 2
#     Edge 29, Type (0, 0), BuildingBlock: OJICUG_clean_linker_0, # of connection points: 2
#     Edge 30, Type (0, 0), BuildingBlock: OJICUG_clean_linker_0, # of connection points: 2
#     Edge 31, Type (0, 0), BuildingBlock: OJICUG_clean_linker_0, # of connection points: 2
#     Edge 32, Type (0, 0), BuildingBlock: OJICUG_clean_linker_0, # of connection points: 2
#     Edge 33, Type (0, 0), BuildingBlock: OJICUG_clean_linker_0, # of connection points: 2
#     Edge 34, Type (0, 0), BuildingBlock: OJICUG_clean_linker_0, # of connection points: 2
#     Edge 35, Type (0, 0), BuildingBlock: OJICUG_clean_linker_0, # of connection points: 2
#     Edge 36, Type (0, 0), BuildingBlock: OJICUG_clean_linker_0, # of connection points: 2
#     Edge 37, Type (0, 0), BuildingBlock: OJICUG_clean_linker_0, # of connection points: 2
#     Edge 38, Type (0, 0), BuildingBlock: OJICUG_clean_linker_0, # of connection points: 2
#     Edge 39, Type (0, 0), BuildingBlock: OJICUG_clean_linker_0, # of connection points: 2
#     Edge 40, Type (0, 0), BuildingBlock: OJICUG_clean_linker_0, # of connection points: 2
#     Edge 41, Type (0, 0), BuildingBlock: OJICUG_clean_linker_0, # of connection points: 2
#     Edge 42, Type (0, 0), BuildingBlock: OJICUG_clean_linker_0, # of connection points: 2
#     Edge 43, Type (0, 0), BuildingBlock: OJICUG_clean_linker_0, # of connection points: 2
#     Edge 44, Type (0, 0), BuildingBlock: OJICUG_clean_linker_0, # of connection points: 2
#     Edge 45, Type (0, 0), BuildingBlock: OJICUG_clean_linker_0, # of connection points: 2
#     Edge 46, Type (0, 0), BuildingBlock: OJICUG_clean_linker_0, # of connection points: 2
#     Edge 47, Type (0, 0), BuildingBlock: OJICUG_clean_linker_0, # of connection points: 2
#     Edge 48, Type (0, 0), BuildingBlock: OJICUG_clean_linker_0, # of connection points: 2
#     Edge 49, Type (0, 0), BuildingBlock: OJICUG_clean_linker_0, # of connection points: 2
#     Edge 50, Type (0, 0), BuildingBlock: OJICUG_clean_linker_0, # of connection points: 2
#     Edge 51, Type (0, 0), BuildingBlock: OJICUG_clean_linker_0, # of connection points: 2
#     Edge 52, Type (0, 0), BuildingBlock: OJICUG_clean_linker_0, # of connection points: 2
#     Edge 53, Type (0, 0), BuildingBlock: OJICUG_clean_linker_0, # of connection points: 2
#     Edge 54, Type (0, 0), BuildingBlock: OJICUG_clean_linker_0, # of connection points: 2
#     Edge 55, Type (0, 0), BuildingBlock: OJICUG_clean_linker_0, # of connection points: 2
#     Edge 56, Type (0, 0), BuildingBlock: OJICUG_clean_linker_0, # of connection points: 2
#     Edge 57, Type (0, 0), BuildingBlock: OJICUG_clean_linker_0, # of connection points: 2
#     Edge 58, Type (0, 0), BuildingBlock: OJICUG_clean_linker_0, # of connection points: 2
#     Edge 59, Type (0, 0), BuildingBlock: OJICUG_clean_linker_0, # of connection points: 2
#     Edge 60, Type (0, 0), BuildingBlock: OJICUG_clean_linker_0, # of connection points: 2
#     Edge 61, Type (0, 0), BuildingBlock: OJICUG_clean_linker_0, # of connection points: 2
#     Edge 62, Type (0, 0), BuildingBlock: OJICUG_clean_linker_0, # of connection points: 2
#     Edge 63, Type (0, 0), BuildingBlock: OJICUG_clean_linker_0, # of connection points: 2
#     Edge 64, Type (0, 0), BuildingBlock: OJICUG_clean_linker_0, # of connection points: 2
#     Edge 65, Type (0, 0), BuildingBlock: OJICUG_clean_linker_0, # of connection points: 2
#     Edge 66, Type (0, 0), BuildingBlock: OJICUG_clean_linker_0, # of connection points: 2
#     Edge 67, Type (0, 0), BuildingBlock: OJICUG_clean_linker_0, # of connection points: 2
#     Edge 68, Type (0, 0), BuildingBlock: OJICUG_clean_linker_0, # of connection points: 2
#     Edge 69, Type (0, 0), BuildingBlock: OJICUG_clean_linker_0, # of connection points: 2
#     Edge 70, Type (0, 0), BuildingBlock: OJICUG_clean_linker_0, # of connection points: 2
#     Edge 71, Type (0, 0), BuildingBlock: OJICUG_clean_linker_0, # of connection points: 2
# Relax obj value: 0.148
# Max RMSD: 0.167
# Mean RMSD: 0.167
data_MOF--net-umk--node1-AZAVOO_clean_sbu_0--edge1-OJICUG_clean_linker_0
_symmetry_space_group_name_H-M    P1
_symmetry_Int_Tables_number       1
_symmetry_cell_setting            triclinic
loop_
_symmetry_equiv_pos_as_xyz
'x, y, z'
_cell_length_a     50.383608
_cell_length_b     49.957043
_cell_length_c     32.908499
_cell_angle_alpha  89.972306
_cell_angle_beta   90.179964
_cell_angle_gamma 120.28326
loop_
_atom_site_label
_atom_site_type_symbol
_atom_site_fract_x
_atom_site_fract_y
_atom_site_fract_z
_atom_type_partial_charge
Mg0 Mg 0.30161 0.44499 0.06225 0.0
O1 O 0.34061 0.48866 0.03098 0.0
O2 O 0.38388 0.50216 0.06559 0.0
Mg3 Mg 0.37386 0.46697 0.11575 0.0
C4 C 0.36943 0.50665 0.03698 0.0
C5 C 0.23985 0.42528 0.02111 0.0
O6 O 0.2376 0.39898 0.0324 0.0
O7 O 0.30041 0.47271 0.11771 0.0
O8 O 0.34424 0.48283 0.14822 0.0
O9 O 0.31156 0.41414 0.02242 0.0
O10 O 0.33323 0.43244 0.08191 0.0
C11 C 0.31971 0.48435 0.14698 0.0
C12 C 0.3309 0.41644 0.05014 0.0
O13 O 0.26468 0.45041 0.02872 0.0
Mg14 Mg 0.84699 0.30606 0.56653 0.0
O15 O 0.83909 0.34277 0.53453 0.0
O16 O 0.86596 0.38708 0.56921 0.0
Mg17 Mg 0.89266 0.3802 0.62005 0.0
C18 C 0.84773 0.37133 0.54041 0.0
C19 C 0.77991 0.26172 0.52769 0.0
O20 O 0.77267 0.28085 0.54505 0.0
O21 O 0.81635 0.3019 0.62123 0.0
O22 O 0.84757 0.34722 0.65167 0.0
O23 O 0.88894 0.31973 0.52787 0.0
O24 O 0.89 0.34071 0.58707 0.0
C25 C 0.82253 0.32119 0.65029 0.0
C26 C 0.90474 0.3398 0.5558 0.0
O27 O 0.80712 0.26653 0.53139 0.0
Mg28 Mg 0.50196 0.85329 0.06443 0.0
O29 O 0.4593 0.84981 0.03337 0.0
O30 O 0.4458 0.87978 0.0674 0.0
Mg31 Mg 0.48088 0.90444 0.118 0.0
C32 C 0.44152 0.86077 0.03882 0.0
C33 C 0.51619 0.80632 0.02033 0.0
O34 O 0.5441 0.82781 0.03094 0.0
O35 O 0.47407 0.82406 0.11969 0.0
O36 O 0.4644 0.85829 0.15004 0.0
O37 O 0.53322 0.89525 0.02562 0.0
O38 O 0.51522 0.89776 0.08538 0.0
C39 C 0.46256 0.83187 0.14878 0.0
C40 C 0.53129 0.91206 0.05411 0.0
O41 O 0.49373 0.80998 0.02957 0.0
Mg42 Mg 0.63145 0.51568 0.56404 0.0
O43 O 0.59262 0.47222 0.53237 0.0
O44 O 0.5492 0.45805 0.56651 0.0
Mg45 Mg 0.55912 0.4928 0.61729 0.0
C46 C 0.56384 0.454 0.53791 0.0
C47 C 0.69278 0.53482 0.52129 0.0
O48 O 0.69553 0.56153 0.53153 0.0
O49 O 0.63297 0.48773 0.61889 0.0
O50 O 0.58909 0.47705 0.64934 0.0
O51 O 0.62107 0.54648 0.52474 0.0
O52 O 0.59966 0.52791 0.5841 0.0
C53 C 0.61374 0.47576 0.648 0.0
C54 C 0.60175 0.54394 0.55247 0.0
O55 O 0.66803 0.51005 0.53015 0.0
Mg56 Mg 0.08415 0.64744 0.07368 0.0
O57 O 0.09286 0.61208 0.03954 0.0
O58 O 0.06536 0.56652 0.07116 0.0
Mg59 Mg 0.03763 0.57135 0.12198 0.0
C60 C 0.08413 0.58334 0.0436 0.0
C61 C 0.13708 0.69016 0.00977 0.0
O62 O 0.12365 0.66577 -0.01411 0.0
O63 O 0.11337 0.64913 0.12855 0.0
O64 O 0.08213 0.60282 0.15626 0.0
O65 O 0.04295 0.6353 0.03337 0.0
O66 O 0.04086 0.61183 0.09085 0.0
C67 C 0.1071 0.62894 0.15631 0.0
C68 C 0.02669 0.6139 0.05957 0.0
O69 O 0.12619 0.68888 0.04499 0.0
Mg70 Mg 0.41851 0.10783 0.57381 0.0
O71 O 0.46057 0.11204 0.53985 0.0
O72 O 0.474 0.08108 0.57187 0.0
Mg73 Mg 0.44009 0.05542 0.62272 0.0
C74 C 0.47808 0.10056 0.54406 0.0
C75 C 0.41669 0.15398 0.50882 0.0
O76 O 0.4034 0.1288 0.48633 0.0
O77 O 0.44735 0.13553 0.62923 0.0
O78 O 0.45739 0.10081 0.65724 0.0
O79 O 0.38657 0.06729 0.53333 0.0
O80 O 0.40573 0.06294 0.59145 0.0
C81 C 0.45928 0.12727 0.65732 0.0
C82 C 0.38923 0.04966 0.55992 0.0
O83 O 0.42558 0.15249 0.5445 0.0
Mg84 Mg 0.51983 0.65302 0.89257 0.0
O85 O 0.47533 0.61669 0.92506 0.0
O86 O 0.45754 0.57214 0.89085 0.0
Mg87 Mg 0.49079 0.57836 0.84018 0.0
C88 C 0.45528 0.58812 0.91942 0.0
C89 C 0.49721 0.69669 0.93391 0.0
O90 O 0.46971 0.67544 0.92155 0.0
O91 O 0.49312 0.6568 0.83762 0.0
O92 O 0.47883 0.61125 0.80779 0.0
O93 O 0.54833 0.63956 0.93157 0.0
O94 O 0.52783 0.61802 0.87276 0.0
C95 C 0.47991 0.63733 0.80872 0.0
C96 C 0.54375 0.61919 0.90398 0.0
O97 O 0.52011 0.69327 0.92657 0.0
Mg98 Mg 0.83594 0.51419 0.3975 0.0
O99 O 0.83182 0.47076 0.42891 0.0
O100 O 0.86179 0.45761 0.39446 0.0
Mg101 Mg 0.88652 0.49277 0.34422 0.0
C102 C 0.84289 0.45298 0.42302 0.0
C103 C 0.79393 0.53344 0.43946 0.0
O104 O 0.81804 0.55987 0.4288 0.0
O105 O 0.80692 0.48618 0.34206 0.0
O106 O 0.84084 0.47642 0.3118 0.0
O107 O 0.87685 0.54534 0.43729 0.0
O108 O 0.8801 0.52707 0.37784 0.0
C109 C 0.81466 0.47461 0.31292 0.0
C110 C 0.89384 0.54314 0.40958 0.0
O111 O 0.79356 0.5084 0.43109 0.0
Mg112 Mg 0.29075 0.85078 0.88962 0.0
O113 O 0.32894 0.84675 0.92332 0.0
O114 O 0.37309 0.87782 0.89116 0.0
Mg115 Mg 0.36436 0.90334 0.8404 0.0
C116 C 0.35791 0.85832 0.919 0.0
C117 C 0.24187 0.80478 0.95369 0.0
O118 O 0.2523 0.83032 0.97518 0.0
O119 O 0.29162 0.82312 0.83413 0.0
O120 O 0.33617 0.85791 0.80596 0.0
O121 O 0.29953 0.89133 0.93014 0.0
O122 O 0.32265 0.8957 0.87188 0.0
C123 C 0.31165 0.83141 0.80597 0.0
C124 C 0.31961 0.90898 0.90346 0.0
O125 O 0.25346 0.80602 0.919 0.0
Mg126 Mg 0.41563 0.31047 0.3868 0.0
O127 O 0.45966 0.34597 0.42111 0.0
O128 O 0.47744 0.39153 0.38953 0.0
Mg129 Mg 0.4447 0.38652 0.33857 0.0
C130 C 0.47956 0.37474 0.4171 0.0
C131 C 0.42527 0.26787 0.45154 0.0
O132 O 0.43479 0.29189 0.47581 0.0
O133 O 0.44325 0.30904 0.33213 0.0
O134 O 0.45805 0.35534 0.30447 0.0
O135 O 0.38643 0.32234 0.4269 0.0
O136 O 0.40763 0.34587 0.36948 0.0
C137 C 0.45709 0.32931 0.30446 0.0
C138 C 0.39138 0.34368 0.40065 0.0
O139 O 0.41666 0.26927 0.41565 0.0
Mg140 Mg 0.0942 0.4423 0.89665 0.0
O141 O 0.099 0.48578 0.92829 0.0
O142 O 0.06985 0.50015 0.89395 0.0
Mg143 Mg 0.04497 0.4655 0.843 0.0
C144 C 0.08853 0.50409 0.92268 0.0
C145 C 0.13645 0.42316 0.93986 0.0
O146 O 0.11243 0.39638 0.92989 0.0
O147 O 0.12371 0.4703 0.84205 0.0
O148 O 0.09071 0.48125 0.81125 0.0
O149 O 0.05307 0.41156 0.93576 0.0
O150 O 0.05018 0.4302 0.87635 0.0
C151 C 0.1166 0.48242 0.81287 0.0
C152 C 0.03627 0.41417 0.90795 0.0
O153 O 0.13643 0.44788 0.9307 0.0
Mg154 Mg 0.62637 0.10505 0.39917 0.0
O155 O 0.58744 0.109 0.42976 0.0
O156 O 0.5439 0.07942 0.39539 0.0
Mg157 Mg 0.55408 0.05457 0.345 0.0
C158 C 0.55874 0.09832 0.42408 0.0
C159 C 0.68933 0.15425 0.43746 0.0
O160 O 0.69724 0.13561 0.42014 0.0
O161 O 0.62825 0.13447 0.34376 0.0
O162 O 0.58429 0.10059 0.31296 0.0
O163 O 0.61525 0.06308 0.43812 0.0
O164 O 0.59487 0.06071 0.37809 0.0
C165 C 0.60907 0.12685 0.31436 0.0
C166 C 0.59646 0.04636 0.40952 0.0
O167 O 0.66163 0.14806 0.43439 0.0
Mg168 Mg 0.63594 0.52034 0.89172 0.0
O169 O 0.59625 0.47748 0.92292 0.0
O170 O 0.5532 0.46464 0.88814 0.0
Mg171 Mg 0.56414 0.49937 0.83723 0.0
C172 C 0.56738 0.45999 0.91694 0.0
C173 C 0.69583 0.53817 0.93828 0.0
O174 O 0.69861 0.56514 0.9296 0.0
O175 O 0.63653 0.49143 0.83726 0.0
O176 O 0.59289 0.48182 0.80663 0.0
O177 O 0.62627 0.55188 0.93055 0.0
O178 O 0.60501 0.53361 0.87086 0.0
C179 C 0.61697 0.47951 0.80832 0.0
C180 C 0.60718 0.54966 0.9025 0.0
O181 O 0.67165 0.51367 0.92683 0.0
Mg182 Mg 0.08475 0.64665 0.40026 0.0
O183 O 0.09123 0.60914 0.43205 0.0
O184 O 0.06308 0.56474 0.39802 0.0
Mg185 Mg 0.03696 0.57252 0.34737 0.0
C186 C 0.08174 0.58038 0.42647 0.0
C187 C 0.12408 0.70663 0.45045 0.0
O188 O 0.09762 0.70578 0.44796 0.0
O189 O 0.11462 0.64921 0.34572 0.0
O190 O 0.08235 0.60399 0.31582 0.0
O191 O 0.04292 0.63409 0.43915 0.0
O192 O 0.04131 0.61293 0.37994 0.0
C193 C 0.10789 0.62952 0.31705 0.0
C194 C 0.0268 0.61416 0.41121 0.0
O195 O 0.12654 0.68494 0.43406 0.0
Mg196 Mg 0.41512 0.10187 0.89987 0.0
O197 O 0.45726 0.10573 0.93355 0.0
O198 O 0.47176 0.07651 0.89938 0.0
Mg199 Mg 0.43844 0.05205 0.84733 0.0
C200 C 0.47531 0.09502 0.92829 0.0
C201 C 0.3955 0.14314 0.94545 0.0
O202 O 0.36907 0.11792 0.93802 0.0
O203 O 0.44477 0.13222 0.8465 0.0
O204 O 0.45559 0.09867 0.81658 0.0
O205 O 0.38302 0.05941 0.93717 0.0
O206 O 0.40337 0.05796 0.87878 0.0
C207 C 0.45735 0.12504 0.8181 0.0
C208 C 0.38636 0.04315 0.90917 0.0
O209 O 0.42008 0.14417 0.93399 0.0
Mg210 Mg 0.29998 0.44331 0.39202 0.0
O211 O 0.33886 0.48663 0.42418 0.0
O212 O 0.38227 0.50066 0.39003 0.0
Mg213 Mg 0.37257 0.46607 0.33921 0.0
C214 C 0.36767 0.50478 0.41863 0.0
C215 C 0.23879 0.42337 0.43539 0.0
O216 O 0.23658 0.39699 0.42462 0.0
O217 O 0.29895 0.47175 0.33705 0.0
O218 O 0.34297 0.48214 0.30724 0.0
O219 O 0.31008 0.41193 0.43087 0.0
O220 O 0.33173 0.43108 0.37186 0.0
C221 C 0.31847 0.4837 0.30821 0.0
C222 C 0.32944 0.41466 0.40311 0.0
O223 O 0.26316 0.44849 0.42635 0.0
Mg224 Mg 0.84578 0.30708 0.89582 0.0
O225 O 0.83676 0.34296 0.9279 0.0
O226 O 0.86304 0.38755 0.8938 0.0
Mg227 Mg 0.89043 0.38179 0.84324 0.0
C228 C 0.84488 0.37142 0.92229 0.0
C229 C 0.77935 0.26252 0.9366 0.0
O230 O 0.77247 0.28304 0.92308 0.0
O231 O 0.81519 0.30244 0.84054 0.0
O232 O 0.84589 0.3481 0.81077 0.0
O233 O 0.88783 0.32159 0.93515 0.0
O234 O 0.88865 0.34266 0.87614 0.0
C235 C 0.8212 0.32176 0.81157 0.0
C236 C 0.90345 0.34206 0.90766 0.0
O237 O 0.80603 0.2666 0.93004 0.0
Mg238 Mg 0.50156 0.85336 0.39526 0.0
O239 O 0.45859 0.85045 0.42422 0.0
O240 O 0.4466 0.88127 0.38916 0.0
Mg241 Mg 0.48232 0.90524 0.33956 0.0
C242 C 0.44144 0.86206 0.4178 0.0
C243 C 0.51396 0.80353 0.43418 0.0
O244 O 0.54067 0.82202 0.4172 0.0
O245 O 0.47427 0.82421 0.33935 0.0
O246 O 0.46549 0.85881 0.30818 0.0
O247 O 0.53211 0.89488 0.43516 0.0
O248 O 0.5156 0.89808 0.37441 0.0
C249 C 0.46319 0.8322 0.30981 0.0
C250 C 0.53076 0.912 0.4066 0.0
O251 O 0.49264 0.80996 0.43069 0.0
Mg252 Mg 0.41786 0.31252 0.06031 0.0
O253 O 0.46182 0.34987 0.02852 0.0
O254 O 0.47832 0.39432 0.0625 0.0
Mg255 Mg 0.44462 0.38676 0.11302 0.0
C256 C 0.48119 0.37862 0.03409 0.0
C257 C 0.39665 0.2477 0.02394 0.0
O258 O 0.3711 0.24425 0.03942 0.0
O259 O 0.44517 0.30988 0.11503 0.0
O260 O 0.45834 0.35514 0.14486 0.0
O261 O 0.38859 0.32517 0.0212 0.0
O262 O 0.40839 0.34643 0.08037 0.0
C263 C 0.45821 0.32954 0.14373 0.0
C264 C 0.39259 0.3452 0.04903 0.0
O265 O 0.42105 0.27399 0.0269 0.0
Mg266 Mg 0.09579 0.4389 0.56902 0.0
O267 O 0.09876 0.48171 0.5377 0.0
O268 O 0.0684 0.49431 0.57223 0.0
Mg269 Mg 0.04469 0.45952 0.62302 0.0
C270 C 0.08725 0.49908 0.54356 0.0
C271 C 0.13768 0.42103 0.52278 0.0
O272 O 0.11345 0.39413 0.53161 0.0
O273 O 0.12523 0.46782 0.62371 0.0
O274 O 0.09098 0.47712 0.65394 0.0
O275 O 0.05455 0.40726 0.53001 0.0
O276 O 0.05159 0.42547 0.58963 0.0
C277 C 0.11742 0.47959 0.65255 0.0
C278 C 0.03769 0.40941 0.55797 0.0
O279 O 0.13814 0.44561 0.53408 0.0
Mg280 Mg 0.629 0.1052 0.06821 0.0
O281 O 0.5887 0.10772 0.03892 0.0
O282 O 0.54599 0.0766 0.07374 0.0
Mg283 Mg 0.55802 0.05279 0.12348 0.0
C284 C 0.55991 0.0959 0.04518 0.0
C285 C 0.68994 0.15339 0.02495 0.0
O286 O 0.69722 0.13285 0.03715 0.0
O287 O 0.6305 0.13421 0.12403 0.0
O288 O 0.5872 0.09931 0.15486 0.0
O289 O 0.61833 0.06368 0.02844 0.0
O290 O 0.5986 0.06039 0.089 0.0
C291 C 0.61135 0.12605 0.15336 0.0
C292 C 0.59996 0.0465 0.05694 0.0
O293 O 0.66327 0.14881 0.03294 0.0
Mg294 Mg 0.51809 0.65077 0.56342 0.0
O295 O 0.47315 0.61454 0.53158 0.0
O296 O 0.4552 0.57012 0.56601 0.0
Mg297 Mg 0.48862 0.57644 0.61678 0.0
C298 C 0.45296 0.58606 0.53734 0.0
C299 C 0.49605 0.69581 0.52466 0.0
O300 O 0.46959 0.67687 0.54188 0.0
O301 O 0.4922 0.65554 0.61838 0.0
O302 O 0.47746 0.61006 0.6486 0.0
O303 O 0.54557 0.63625 0.52441 0.0
O304 O 0.52574 0.6155 0.58365 0.0
C305 C 0.47894 0.63633 0.64743 0.0
C306 C 0.54098 0.61599 0.55214 0.0
O307 O 0.51826 0.69069 0.52843 0.0
Mg308 Mg 0.83579 0.51431 0.06776 0.0
O309 O 0.83082 0.47081 0.03562 0.0
O310 O 0.86002 0.45642 0.06986 0.0
Mg311 Mg 0.88533 0.49097 0.12066 0.0
C312 C 0.84126 0.45246 0.04122 0.0
C313 C 0.79461 0.5348 0.0251 0.0
O314 O 0.81881 0.56104 0.03635 0.0
O315 O 0.80643 0.4861 0.12272 0.0
O316 O 0.83987 0.47535 0.15271 0.0
O317 O 0.87714 0.54543 0.02888 0.0
O318 O 0.87977 0.52619 0.08789 0.0
C319 C 0.81393 0.47407 0.15166 0.0
C320 C 0.89383 0.54258 0.05661 0.0
O321 O 0.79383 0.50956 0.03354 0.0
Mg322 Mg 0.29181 0.85681 0.56353 0.0
O323 O 0.32978 0.85278 0.52969 0.0
O324 O 0.37373 0.8819 0.56373 0.0
Mg325 Mg 0.36529 0.90649 0.6158 0.0
C326 C 0.35855 0.86338 0.53486 0.0
C327 C 0.22728 0.81071 0.53044 0.0
O328 O 0.22289 0.83104 0.55011 0.0
O329 O 0.29133 0.82645 0.61686 0.0
O330 O 0.33591 0.85993 0.64665 0.0
O331 O 0.30201 0.89926 0.52624 0.0
O332 O 0.32416 0.90069 0.58452 0.0
C333 C 0.31124 0.8336 0.6452 0.0
C334 C 0.3218 0.9155 0.55417 0.0
O335 O 0.25422 0.81456 0.52953 0.0
C336 C 0.33538 0.51888 0.20678 0.0
C337 C 0.31165 0.49425 0.18495 0.0
H338 H 0.35548 0.53554 0.26531 0.0
C339 C 0.28489 0.47297 0.20575 0.0
H340 H 0.3562 0.53566 0.19141 0.0
C341 C 0.28448 0.47287 0.24841 0.0
C342 C 0.31085 0.49407 0.27021 0.0
H343 H 0.26631 0.45367 0.18965 0.0
H344 H 0.26564 0.45346 0.26385 0.0
C345 C 0.33494 0.51883 0.24919 0.0
C346 C 0.80108 0.33466 0.70889 0.0
C347 C 0.80424 0.31194 0.68797 0.0
H348 H 0.80272 0.3549 0.76673 0.0
C349 C 0.80091 0.28617 0.70967 0.0
H350 H 0.80346 0.3547 0.69284 0.0
C351 C 0.80051 0.2863 0.75232 0.0
C352 C 0.80346 0.3122 0.77326 0.0
H353 H 0.8034 0.2684 0.69428 0.0
H354 H 0.80274 0.26862 0.76848 0.0
C355 C 0.80065 0.33476 0.75131 0.0
C356 C 0.47365 0.80825 0.25066 0.0
C357 C 0.4528 0.81384 0.272 0.0
H358 H 0.49257 0.80867 0.1922 0.0
C359 C 0.42832 0.81319 0.25063 0.0
H360 H 0.49284 0.8088 0.26641 0.0
C361 C 0.42817 0.81314 0.2082 0.0
C362 C 0.4525 0.81373 0.18673 0.0
H363 H 0.41189 0.81736 0.26641 0.0
H364 H 0.41162 0.81726 0.1925 0.0
C365 C 0.47349 0.80818 0.208 0.0
C366 C 0.59963 0.44294 0.75082 0.0
C367 C 0.62409 0.46804 0.77106 0.0
H368 H 0.57759 0.4251 0.69356 0.0
C369 C 0.65031 0.48853 0.74872 0.0
H370 H 0.57922 0.42674 0.76742 0.0
C371 C 0.64939 0.48757 0.70611 0.0
C372 C 0.62223 0.46615 0.68594 0.0
H373 H 0.66945 0.50814 0.76361 0.0
H374 H 0.66788 0.50646 0.68948 0.0
C375 C 0.59869 0.44201 0.70843 0.0
C376 C 0.12734 0.61431 0.25812 0.0
C377 C 0.12609 0.638 0.27941 0.0
H378 H 0.1231 0.59327 0.20011 0.0
C379 C 0.13081 0.6644 0.25803 0.0
H380 H 0.124 0.59383 0.274 0.0
C381 C 0.13031 0.66409 0.21541 0.0
C382 C 0.12509 0.63739 0.19434 0.0
H383 H 0.12992 0.68298 0.27375 0.0
H384 H 0.12918 0.68252 0.1996 0.0
C385 C 0.12676 0.61396 0.21574 0.0
C386 C 0.49289 0.14384 0.75993 0.0
C387 C 0.46869 0.14392 0.7809 0.0
H388 H 0.50941 0.13941 0.70203 0.0
C389 C 0.44878 0.15087 0.75938 0.0
H390 H 0.5087 0.13879 0.77591 0.0
C391 C 0.44925 0.15132 0.71675 0.0
C392 C 0.46959 0.14478 0.69577 0.0
H393 H 0.4299 0.15103 0.77481 0.0
H394 H 0.43074 0.15189 0.70068 0.0
C395 C 0.49329 0.14418 0.71754 0.0
C396 C 0.44505 0.62337 0.70704 0.0
C397 C 0.47054 0.64593 0.68538 0.0
H398 H 0.42756 0.6036 0.76539 0.0
C399 C 0.4933 0.67193 0.70646 0.0
H400 H 0.42713 0.60317 0.69148 0.0
C401 C 0.49354 0.67219 0.74912 0.0
C402 C 0.47102 0.64645 0.77067 0.0
H403 H 0.51326 0.6896 0.69051 0.0
H404 H 0.51369 0.69005 0.76471 0.0
C405 C 0.4453 0.62362 0.74946 0.0
C406 C 0.79572 0.43961 0.25361 0.0
C407 C 0.79659 0.46438 0.27495 0.0
H408 H 0.79926 0.4226 0.1955 0.0
C409 C 0.79111 0.48551 0.25359 0.0
H410 H 0.79978 0.42296 0.2694 0.0
C411 C 0.79085 0.48533 0.21094 0.0
C412 C 0.79607 0.46402 0.18967 0.0
H413 H 0.79181 0.50491 0.26932 0.0
H414 H 0.79139 0.50462 0.19511 0.0
C415 C 0.7954 0.43941 0.21119 0.0
C416 C 0.32821 0.81479 0.70338 0.0
C417 C 0.30385 0.81473 0.68242 0.0
H418 H 0.34941 0.81922 0.76127 0.0
C419 C 0.27709 0.8078 0.70395 0.0
H420 H 0.349 0.81983 0.68739 0.0
C421 C 0.27729 0.80735 0.74657 0.0
C422 C 0.30426 0.81388 0.76755 0.0
H423 H 0.25798 0.80764 0.68852 0.0
H424 H 0.25829 0.80679 0.76266 0.0
C425 C 0.32846 0.81446 0.74577 0.0
C426 C 0.44553 0.29447 0.24516 0.0
C427 C 0.46687 0.32108 0.2666 0.0
H428 H 0.4266 0.27585 0.18652 0.0
C429 C 0.49206 0.34465 0.24564 0.0
H430 H 0.4259 0.27595 0.26065 0.0
C431 C 0.49255 0.34451 0.20326 0.0
C432 C 0.46774 0.3209 0.18154 0.0
H433 H 0.50898 0.36526 0.26157 0.0
H434 H 0.50977 0.36509 0.1877 0.0
C435 C 0.44598 0.29438 0.20255 0.0
C436 C 0.14134 0.47031 0.7126 0.0
C437 C 0.13583 0.49094 0.6901 0.0
H438 H 0.14034 0.45195 0.77184 0.0
C439 C 0.13623 0.51589 0.71033 0.0
H440 H 0.14104 0.45081 0.69773 0.0
C441 C 0.13566 0.51646 0.75271 0.0
C442 C 0.13487 0.49218 0.77521 0.0
H443 H 0.13218 0.53219 0.69361 0.0
H444 H 0.1313 0.53325 0.76746 0.0
C445 C 0.14088 0.47094 0.75521 0.0
C446 C 0.64441 0.15027 0.25596 0.0
C447 C 0.61762 0.14484 0.27625 0.0
H448 H 0.66385 0.14944 0.19839 0.0
C449 C 0.59419 0.14543 0.25375 0.0
H450 H 0.66277 0.14979 0.27257 0.0
C451 C 0.59484 0.14527 0.21135 0.0
C452 C 0.61891 0.14453 0.191 0.0
H453 H 0.57335 0.14141 0.26869 0.0
H454 H 0.57446 0.1411 0.19481 0.0
C455 C 0.64505 0.1501 0.21332 0.0
C456 C 0.18974 0.45253 0.96998 0.0
C457 C 0.16307 0.42418 0.96086 0.0
H458 H 0.23503 0.47523 -0.00395 0.0
C459 C 0.16201 0.39646 0.97172 0.0
H460 H 0.19132 0.47432 0.96199 0.0
C461 C 0.18694 0.39698 -0.00882 0.0
C462 C 0.21366 0.42524 0.00026 0.0
H463 H 0.14187 0.3742 0.96521 0.0
H464 H 0.1852 0.3751 -0.00095 0.0
C465 C 0.21481 0.45306 -0.01056 0.0
C466 C 0.70432 0.20221 0.47888 0.0
C467 C 0.71239 0.18194 0.46034 0.0
H468 H 0.71922 0.24327 0.5146 0.0
C469 C 0.74284 0.18831 0.46395 0.0
H470 H 0.68107 0.19801 0.47669 0.0
C471 C 0.76467 0.21421 0.48566 0.0
C472 C 0.75663 0.23445 0.50433 0.0
H473 H 0.7499 0.17324 0.45007 0.0
H474 H 0.78788 0.21829 0.48783 0.0
C475 C 0.7262 0.22818 0.50062 0.0
C476 C 0.53609 0.7743 -0.01153 0.0
C477 C 0.5111 0.77821 -0.00186 0.0
H478 H 0.55136 0.74572 0.96083 0.0
C479 C 0.48136 0.75501 -0.01351 0.0
H480 H 0.5593 0.79167 -0.00306 0.0
C481 C 0.47678 0.72853 0.96565 0.0
C482 C 0.50182 0.72465 0.95604 0.0
H483 H 0.46158 0.75726 -0.00654 0.0
H484 H 0.4536 0.71112 0.95713 0.0
C485 C 0.53151 0.74787 0.96773 0.0
C486 C 0.74505 0.56178 0.48984 0.0
C487 C 0.71834 0.53395 0.5002 0.0
H488 H 0.78958 0.58339 0.46276 0.0
C489 C 0.71661 0.50569 0.49044 0.0
H490 H 0.74723 0.58398 0.49685 0.0
C491 C 0.74112 0.50535 0.47081 0.0
C492 C 0.76781 0.53326 0.46048 0.0
H493 H 0.69638 0.48383 0.49804 0.0
H494 H 0.73912 0.48324 0.4637 0.0
C495 C 0.76942 0.56144 0.47023 0.0
C496 C 0.20289 0.74836 0.94416 0.0
C497 C 0.2158 0.77513 0.96864 0.0
H498 H 0.16797 0.70065 0.9378 0.0
C499 C 0.20297 0.77348 0.00706 0.0
H500 H 0.21219 0.74879 0.91438 0.0
C501 C 0.17763 0.74585 0.0205 0.0
C502 C 0.16444 0.7192 -0.00421 0.0
H503 H 0.21233 0.79362 0.02672 0.0
H504 H 0.16823 0.7455 0.05017 0.0
C505 C 0.17748 0.72074 0.95755 0.0
C506 C 0.43225 0.20988 0.51876 0.0
C507 C 0.41996 0.18347 0.49365 0.0
H508 H 0.44354 0.25714 0.52529 0.0
C509 C 0.41007 0.18531 0.45432 0.0
H510 H 0.44011 0.2093 0.54925 0.0
C511 C 0.41208 0.21277 0.44058 0.0
C512 C 0.42396 0.23905 0.46588 0.0
H513 H 0.40052 0.16545 0.43416 0.0
H514 H 0.40403 0.21326 0.41018 0.0
C515 C 0.43419 0.23733 0.50505 0.0
C516 C 0.74266 0.50745 -0.00929 0.0
C517 C 0.769 0.5351 0.003 0.0
H518 H 0.69881 0.4866 0.96066 0.0
C519 C 0.77083 0.56348 -0.00607 0.0
H520 H 0.74051 0.48518 -0.00278 0.0
C521 C 0.74706 0.5643 0.97308 0.0
C522 C 0.72074 0.53675 0.96068 0.0
H523 H 0.79072 0.58525 0.0029 0.0
H524 H 0.74942 0.58666 0.96666 0.0
C525 C 0.71877 0.50826 0.96977 0.0
C526 C 0.1798 0.7356 0.47153 0.0
C527 C 0.15062 0.73289 0.47126 0.0
H528 H 0.22699 0.76232 0.49025 0.0
C529 C 0.14698 0.75588 0.4907 0.0
H530 H 0.18341 0.71831 0.45679 0.0
C531 C 0.17186 0.78098 0.50986 0.0
C532 C 0.20108 0.78385 0.51 0.0
H533 H 0.12486 0.75457 0.49113 0.0
H534 H 0.16812 0.79822 0.52447 0.0
C535 C 0.20479 0.76085 0.49064 0.0
C536 C 0.42398 0.19824 0.97098 0.0
C537 C 0.39627 0.16999 0.96594 0.0
H538 H 0.44591 0.24503 -0.00695 0.0
C539 C 0.3689 0.16765 0.98017 0.0
H540 H 0.44547 0.20085 0.9603 0.0
C541 C 0.36915 0.19286 -0.00107 0.0
C542 C 0.39677 0.22116 0.00385 0.0
H543 H 0.34713 0.14628 0.97684 0.0
H544 H 0.34758 0.19012 0.00948 0.0
C545 C 0.42422 0.22358 -0.01033 0.0
C546 C 0.19024 0.45059 0.49073 0.0
C547 C 0.16378 0.42222 0.50029 0.0
H548 H 0.23477 0.47334 0.46274 0.0
C549 C 0.16236 0.39453 0.48822 0.0
H550 H 0.19209 0.47235 0.49958 0.0
C551 C 0.18668 0.3951 0.46722 0.0
C552 C 0.21317 0.42336 0.45766 0.0
H553 H 0.14239 0.37225 0.495 0.0
H554 H 0.18464 0.37323 0.45853 0.0
C555 C 0.2147 0.45115 0.46963 0.0
C556 C 0.72685 0.22994 0.96745 0.0
C557 C 0.75631 0.23469 0.95923 0.0
H558 H 0.68279 0.20066 -0.0054 0.0
C559 C 0.76362 0.21248 0.97283 0.0
H560 H 0.72042 0.24656 0.95745 0.0
C561 C 0.74208 0.1862 -0.00594 0.0
C562 C 0.71263 0.18141 0.00232 0.0
H563 H 0.78606 0.21532 0.96707 0.0
H564 H 0.7486 0.16964 0.004 0.0
C565 C 0.70525 0.2036 -0.01123 0.0
C566 C 0.53295 0.76915 0.46095 0.0
C567 C 0.50904 0.77577 0.45716 0.0
H568 H 0.54766 0.73896 0.485 0.0
C569 C 0.48064 0.7557 0.47561 0.0
H570 H 0.55513 0.78406 0.44715 0.0
C571 C 0.47632 0.72969 0.49742 0.0
C572 C 0.50031 0.72317 0.50129 0.0
H573 H 0.46172 0.76009 0.47329 0.0
H574 H 0.45419 0.71476 0.51132 0.0
C575 C 0.52865 0.74322 0.48271 0.0
C576 C 0.34611 0.38187 0.01317 0.0
C577 C 0.34898 0.40054 0.04684 0.0
H578 H 0.35785 0.3497 -0.01289 0.0
C579 C 0.36775 0.40217 0.07947 0.0
H580 H 0.33171 0.38001 -0.01241 0.0
C581 C 0.38252 0.38497 0.07923 0.0
C582 C 0.37908 0.36557 0.0463 0.0
H583 H 0.37027 0.41591 0.10616 0.0
H584 H 0.39577 0.38614 0.10577 0.0
C585 C 0.36106 0.36451 0.0129 0.0
C586 C -0.01328 0.39559 0.58727 0.0
C587 C 0.00371 0.39384 0.55465 0.0
H588 H 0.94266 0.3803 0.61304 0.0
C589 C -0.01225 0.37564 0.5207 0.0
H590 H -0.00195 0.40895 0.6142 0.0
C591 C 0.95545 0.35883 0.52011 0.0
C592 C 0.93862 0.36001 0.55344 0.0
H593 H 0.00015 0.37373 0.4951 0.0
H594 H 0.94373 0.3443 0.49411 0.0
C595 C 0.95471 0.37902 0.58663 0.0
C596 C 0.54685 0.96292 0.08656 0.0
C597 C 0.54731 0.94644 0.05225 0.0
H598 H 0.56307 0.00666 0.11499 0.0
C599 C 0.56452 0.96326 0.01822 0.0
H600 H 0.53435 0.95095 0.11363 0.0
C601 C 0.58122 -0.0041 0.01895 0.0
C602 C 0.58102 0.01218 0.05377 0.0
H603 H 0.56549 0.95126 -0.00862 0.0
H604 H 0.59466 0.00831 -0.00737 0.0
C605 C 0.56344 -0.00483 0.08733 0.0
C606 C 0.56441 0.55763 0.58161 0.0
C607 C 0.58351 0.55969 0.54929 0.0
H608 H 0.53621 0.5735 0.6078 0.0
C609 C 0.58664 0.57877 0.51601 0.0
H610 H 0.5616 0.54347 0.60793 0.0
C611 C 0.57187 0.59626 0.51593 0.0
C612 C 0.5537 0.59496 0.54913 0.0
H613 H 0.60124 0.58094 0.49065 0.0
H614 H 0.57544 0.61148 0.49051 0.0
C615 C 0.54974 0.57498 0.58153 0.0
C616 C 0.94453 0.55529 0.08611 0.0
C617 C 0.92785 0.55832 0.05396 0.0
H618 H -0.01177 0.57013 0.11298 0.0
C619 C 0.94415 0.57831 0.02161 0.0
H620 H 0.93296 0.54051 0.11181 0.0
C621 C -0.02355 0.59568 0.02233 0.0
C622 C -0.00706 0.59328 0.05538 0.0
H623 H 0.93198 0.58127 -0.00357 0.0
H624 H -0.01159 0.61161 -0.00231 0.0
C625 C -0.02348 0.57244 0.08678 0.0
C626 C 0.37553 -0.00207 0.58764 0.0
C627 C 0.37369 0.01546 0.55556 0.0
H628 H 0.36078 0.95335 0.61237 0.0
C629 C 0.35559 -0.00022 0.5214 0.0
H630 H 0.38872 0.00897 0.61477 0.0
C631 C 0.33921 0.96717 0.51999 0.0
C632 C 0.34074 0.94982 0.55271 0.0
H633 H 0.35357 0.01264 0.49625 0.0
H634 H 0.32493 0.95561 0.49378 0.0
C635 C 0.35936 0.96571 0.58624 0.0
C636 C 0.55418 0.57968 0.87366 0.0
C637 C 0.5574 0.59896 0.90661 0.0
H638 H 0.56737 0.54955 0.84642 0.0
C639 C 0.57572 0.6004 0.93987 0.0
H640 H 0.54061 0.57818 0.8473 0.0
C641 C 0.59121 0.5836 0.93944 0.0
C642 C 0.5887 0.56515 0.9057 0.0
H643 H 0.57876 0.61514 0.96568 0.0
H644 H 0.60578 0.58573 0.96497 0.0
C645 C 0.56964 0.56312 0.87318 0.0
C646 C 0.94373 0.57759 0.44675 0.0
C647 C 0.92783 0.5591 0.41293 0.0
H648 H -0.01228 0.60953 0.47308 0.0
C649 C 0.94489 0.55763 0.38024 0.0
H650 H 0.93125 0.57933 0.47238 0.0
C651 C -0.02313 0.57475 0.38063 0.0
C652 C -0.00708 0.59393 0.41374 0.0
H653 H 0.93361 0.54406 0.35342 0.0
H654 H -0.01113 0.57367 0.35406 0.0
C655 C -0.02396 0.59488 0.44715 0.0
C656 C 0.37341 -0.00707 0.87698 0.0
C657 C 0.37095 0.00883 0.9106 0.0
H658 H 0.3593 0.94968 0.84839 0.0
C659 C 0.35234 -0.00852 0.94342 0.0
H660 H 0.38699 0.0053 0.85078 0.0
C661 C 0.3361 0.95887 0.94202 0.0
C662 C 0.33826 0.94319 0.90778 0.0
H663 H 0.34983 0.00305 0.9697 0.0
H664 H 0.32144 0.94601 0.96725 0.0
C665 C 0.35737 0.96072 0.87559 0.0
C666 C 0.34432 0.37908 0.43832 0.0
C667 C 0.34769 0.39887 0.40579 0.0
H668 H 0.35567 0.34606 0.46253 0.0
C669 C 0.36716 0.40175 0.37355 0.0
H670 H 0.32939 0.37624 0.46357 0.0
C671 C 0.38211 0.38472 0.37302 0.0
C672 C 0.37805 0.36412 0.40464 0.0
H673 H 0.3701 0.41634 0.34769 0.0
H674 H 0.39595 0.38694 0.34678 0.0
C675 C 0.35936 0.36181 0.43773 0.0
C676 C -0.01482 0.40069 0.87874 0.0
C677 C 0.00227 0.39844 0.91102 0.0
H678 H 0.94105 0.38493 0.85245 0.0
C679 C -0.01361 0.37919 0.94412 0.0
H680 H -0.00352 0.41501 0.85256 0.0
C681 C 0.95412 0.36168 0.94406 0.0
C682 C 0.9372 0.36314 0.91089 0.0
H683 H -0.00113 0.37688 0.96945 0.0
H684 H 0.94253 0.3463 0.96933 0.0
C685 C 0.95316 0.38332 0.87869 0.0
C686 C 0.56258 0.96255 0.44466 0.0
C687 C 0.54594 0.94628 0.40984 0.0
H688 H 0.59165 0.00717 0.47222 0.0
C689 C 0.54512 0.96329 0.37635 0.0
H690 H 0.56379 0.95014 0.47092 0.0
C691 C 0.56075 -0.00446 0.37715 0.0
C692 C 0.57792 0.012 0.41141 0.0
H693 H 0.53309 0.9518 0.34872 0.0
H694 H 0.56007 0.00752 0.35012 0.0
C695 C 0.57849 -0.00483 0.44542 0.0
C696 C 0.40218 0.546 0.93687 0.0
C697 C 0.43032 0.57158 0.94922 0.0
H698 H 0.3602 0.50581 0.95526 0.0
C699 C 0.43596 0.57822 -0.00915 0.0
H700 H 0.39723 0.54044 0.90491 0.0
C701 C 0.41508 0.55802 0.01965 0.0
C702 C 0.38784 0.53132 0.00728 0.0
H703 H 0.45751 0.59769 0.00121 0.0
H704 H 0.42091 0.56249 0.0516 0.0
C705 C 0.38092 0.52627 0.96566 0.0
C706 C 0.83812 0.38143 0.46904 0.0
C707 C 0.8394 0.38809 0.51068 0.0
H708 H 0.83842 0.39716 0.40833 0.0
C709 C 0.83703 0.41373 0.52311 0.0
H710 H 0.84005 0.36192 0.45862 0.0
C711 C 0.83537 0.43348 0.49438 0.0
C712 C 0.83689 0.42837 0.45273 0.0
H713 H 0.83787 0.4193 0.55508 0.0
H714 H 0.83522 0.45397 0.50481 0.0
C715 C 0.83731 0.40165 0.4403 0.0
C716 C 0.36932 0.85246 -0.00879 0.0
C717 C 0.37553 0.85214 0.94972 0.0
H718 H 0.38581 0.8559 0.05225 0.0
C719 C 0.40156 0.85064 0.93812 0.0
H720 H 0.34955 0.85391 0.00091 0.0
C721 C 0.42189 0.85104 0.96745 0.0
C722 C 0.41702 0.85392 0.00881 0.0
H723 H 0.40684 0.85044 0.90627 0.0
H724 H 0.44247 0.85122 0.95756 0.0
C725 C 0.39014 0.85381 0.02052 0.0
C726 C 0.49775 0.38327 0.48911 0.0
C727 C 0.5041 0.39049 0.44776 0.0
H728 H 0.5119 0.39814 0.55047 0.0
C729 C 0.53251 0.41606 0.43652 0.0
H730 H 0.47596 0.3638 0.49856 0.0
C731 C 0.55336 0.43529 0.46615 0.0
C732 C 0.54575 0.42974 0.5075 0.0
H733 H 0.53795 0.42204 0.40479 0.0
H734 H 0.57432 0.45578 0.45659 0.0
C735 C 0.51824 0.40299 0.51876 0.0
C736 C 0.09715 0.52282 -0.00555 0.0
C737 C 0.09484 0.52834 0.95312 0.0
H738 H 0.09536 0.53609 0.05584 0.0
C739 C 0.09404 0.5551 0.94189 0.0
H740 H 0.09767 0.50232 0.00398 0.0
C741 C 0.09346 0.57484 0.97157 0.0
C742 C 0.09283 0.56764 0.01292 0.0
H743 H 0.09237 0.55995 0.91019 0.0
H744 H 0.09108 0.59431 0.96214 0.0
C745 C 0.09573 0.54207 0.02411 0.0
C746 C 0.49499 0.1065 0.4718 0.0
C747 C 0.50175 0.10686 0.51328 0.0
H748 H 0.50776 0.10308 0.41072 0.0
C749 C 0.5294 0.10848 0.52481 0.0
H750 H 0.47368 0.10496 0.46216 0.0
C751 C 0.54921 0.10814 0.49544 0.0
C752 C 0.54123 0.10521 0.45409 0.0
H753 H 0.53506 0.10872 0.55665 0.0
H754 H 0.56969 0.10804 0.5053 0.0
C755 C 0.51437 0.10523 0.44244 0.0
C756 C 0.53404 0.42126 0.01703 0.0
C757 C 0.50612 0.39548 0.00451 0.0
H758 H 0.57599 0.46151 -0.00123 0.0
C759 C 0.50072 0.38865 0.96291 0.0
H760 H 0.53876 0.42693 0.049 0.0
C761 C 0.52168 0.4088 0.9342 0.0
C762 C 0.54874 0.4356 0.94669 0.0
H763 H 0.47933 0.36901 0.95246 0.0
H764 H 0.51609 0.40417 0.90221 0.0
C765 C 0.55538 0.44094 -0.01166 0.0
C766 C 0.09162 0.57036 0.49763 0.0
C767 C 0.08991 0.56348 0.45603 0.0
H768 H 0.09189 0.55491 0.55832 0.0
C769 C 0.09197 0.53769 0.44348 0.0
H770 H 0.08993 0.59001 0.50809 0.0
C771 C 0.09385 0.51806 0.47215 0.0
C772 C 0.09283 0.52344 0.51381 0.0
H773 H 0.09081 0.53199 0.41152 0.0
H774 H 0.09382 0.49747 0.46172 0.0
C775 C 0.09263 0.55024 0.52632 0.0
C776 C 0.54839 0.1051 0.97446 0.0
C777 C 0.5412 0.10191 0.01601 0.0
H778 H 0.53271 0.1051 0.91384 0.0
C779 C 0.51398 0.10068 0.02868 0.0
H780 H 0.56912 0.10593 0.96385 0.0
C781 C 0.49353 0.10102 0.00012 0.0
C782 C 0.4996 0.10168 0.95842 0.0
H783 H 0.50798 0.09831 0.06059 0.0
H784 H 0.47205 0.09861 0.01052 0.0
C785 C 0.52754 0.10452 0.94587 0.0
C786 C 0.43363 0.57643 0.4658 0.0
C787 C 0.42801 0.56952 0.50733 0.0
H788 H 0.41874 0.56094 0.40483 0.0
C789 C 0.4 0.5437 0.5193 0.0
H790 H 0.45508 0.59609 0.45572 0.0
C791 C 0.3789 0.52397 0.49021 0.0
C792 C 0.38585 0.52931 0.44868 0.0
H793 H 0.39508 0.53793 0.55118 0.0
H794 H 0.35829 0.50332 0.50028 0.0
C795 C 0.41291 0.55625 0.43671 0.0
C796 C 0.8341 0.41358 0.94046 0.0
C797 C 0.8364 0.38777 0.95234 0.0
H798 H 0.83283 0.45393 0.9596 0.0
C799 C 0.83527 0.38081 -0.00615 0.0
H800 H 0.83482 0.4194 0.9086 0.0
C801 C 0.83483 0.40094 0.02301 0.0
C802 C 0.83467 0.42791 0.01113 0.0
H803 H 0.83714 0.36116 0.00387 0.0
H804 H 0.83612 0.39622 0.05487 0.0
C805 C 0.83284 0.43327 0.96961 0.0
C806 C 0.39081 0.85733 0.43439 0.0
C807 C 0.41685 0.85606 0.447 0.0
H808 H 0.35115 0.85959 0.45266 0.0
C809 C 0.42109 0.85294 0.48855 0.0
H810 H 0.387 0.85966 0.40249 0.0
C811 C 0.40103 0.85366 0.51719 0.0
C812 C 0.37592 0.85658 0.5047 0.0
H813 H 0.44103 0.85208 0.49913 0.0
H814 H 0.40583 0.85314 0.54921 0.0
C815 C 0.37025 0.85714 0.46302 0.0
loop_
_geom_bond_atom_site_label_1
_geom_bond_atom_site_label_2
_geom_bond_distance
_geom_bond_site_symmetry_2
_ccdc_geom_bond_type
Mg0 O1 2.028 . S
Mg0 O7 1.986 . S
Mg0 O9 2.114 . S
Mg0 O10 2.251 . S
Mg0 O13 2.010 . S
O1 Mg0 2.028 . S
O1 C4 1.250 . S
O2 Mg3 2.028 . S
O2 C4 1.248 . S
Mg3 O2 2.028 . S
Mg3 O8 2.032 . S
Mg3 O10 2.079 . S
C4 O1 1.250 . S
C4 O2 1.248 . S
C5 O6 1.264 . S
C5 O13 1.249 . S
O6 C5 1.264 . S
O7 Mg0 1.986 . S
O7 C11 1.246 . S
O8 Mg3 2.032 . S
O8 C11 1.259 . S
O9 Mg0 2.114 . S
O9 C12 1.252 . S
O10 Mg0 2.251 . S
O10 Mg3 2.079 . S
O10 C12 1.273 . S
C11 O7 1.246 . S
C11 O8 1.259 . S
C12 O9 1.252 . S
C12 O10 1.273 . S
O13 Mg0 2.010 . S
O13 C5 1.249 . S
Mg14 O15 2.028 . S
Mg14 O21 1.986 . S
Mg14 O23 2.114 . S
Mg14 O24 2.251 . S
Mg14 O27 2.010 . S
O15 Mg14 2.028 . S
O15 C18 1.250 . S
O16 Mg17 2.028 . S
O16 C18 1.248 . S
Mg17 O16 2.028 . S
Mg17 O22 2.032 . S
Mg17 O24 2.079 . S
C18 O15 1.250 . S
C18 O16 1.248 . S
C19 O20 1.264 . S
C19 O27 1.249 . S
O20 C19 1.264 . S
O21 Mg14 1.986 . S
O21 C25 1.246 . S
O22 Mg17 2.032 . S
O22 C25 1.259 . S
O23 Mg14 2.114 . S
O23 C26 1.252 . S
O24 Mg14 2.251 . S
O24 Mg17 2.079 . S
O24 C26 1.273 . S
C25 O21 1.246 . S
C25 O22 1.259 . S
C26 O23 1.252 . S
C26 O24 1.273 . S
O27 Mg14 2.010 . S
O27 C19 1.249 . S
Mg28 O29 2.028 . S
Mg28 O35 1.986 . S
Mg28 O37 2.114 . S
Mg28 O38 2.251 . S
Mg28 O41 2.010 . S
O29 Mg28 2.028 . S
O29 C32 1.250 . S
O30 Mg31 2.028 . S
O30 C32 1.248 . S
Mg31 O30 2.028 . S
Mg31 O36 2.032 . S
Mg31 O38 2.079 . S
C32 O29 1.250 . S
C32 O30 1.248 . S
C33 O34 1.264 . S
C33 O41 1.249 . S
O34 C33 1.264 . S
O35 Mg28 1.986 . S
O35 C39 1.246 . S
O36 Mg31 2.032 . S
O36 C39 1.259 . S
O37 Mg28 2.114 . S
O37 C40 1.252 . S
O38 Mg28 2.251 . S
O38 Mg31 2.079 . S
O38 C40 1.273 . S
C39 O35 1.246 . S
C39 O36 1.259 . S
C40 O37 1.252 . S
C40 O38 1.273 . S
O41 Mg28 2.010 . S
O41 C33 1.249 . S
Mg42 O43 2.028 . S
Mg42 O49 1.986 . S
Mg42 O51 2.114 . S
Mg42 O52 2.251 . S
Mg42 O55 2.010 . S
O43 Mg42 2.028 . S
O43 C46 1.250 . S
O44 Mg45 2.028 . S
O44 C46 1.248 . S
Mg45 O44 2.028 . S
Mg45 O50 2.032 . S
Mg45 O52 2.079 . S
C46 O43 1.250 . S
C46 O44 1.248 . S
C47 O48 1.264 . S
C47 O55 1.249 . S
O48 C47 1.264 . S
O49 Mg42 1.986 . S
O49 C53 1.246 . S
O50 Mg45 2.032 . S
O50 C53 1.259 . S
O51 Mg42 2.114 . S
O51 C54 1.252 . S
O52 Mg42 2.251 . S
O52 Mg45 2.079 . S
O52 C54 1.273 . S
C53 O49 1.246 . S
C53 O50 1.259 . S
C54 O51 1.252 . S
C54 O52 1.273 . S
O55 Mg42 2.010 . S
O55 C47 1.249 . S
Mg56 O57 2.028 . S
Mg56 O63 1.986 . S
Mg56 O65 2.114 . S
Mg56 O66 2.251 . S
Mg56 O69 2.010 . S
O57 Mg56 2.028 . S
O57 C60 1.250 . S
O58 Mg59 2.028 . S
O58 C60 1.248 . S
Mg59 O58 2.028 . S
Mg59 O64 2.032 . S
Mg59 O66 2.079 . S
C60 O57 1.250 . S
C60 O58 1.248 . S
C61 O62 1.264 . S
C61 O69 1.249 . S
O62 C61 1.264 . S
O63 Mg56 1.986 . S
O63 C67 1.246 . S
O64 Mg59 2.032 . S
O64 C67 1.259 . S
O65 Mg56 2.114 . S
O65 C68 1.252 . S
O66 Mg56 2.251 . S
O66 Mg59 2.079 . S
O66 C68 1.273 . S
C67 O63 1.246 . S
C67 O64 1.259 . S
C68 O65 1.252 . S
C68 O66 1.273 . S
O69 Mg56 2.010 . S
O69 C61 1.249 . S
Mg70 O71 2.028 . S
Mg70 O77 1.986 . S
Mg70 O79 2.114 . S
Mg70 O80 2.251 . S
Mg70 O83 2.010 . S
O71 Mg70 2.028 . S
O71 C74 1.250 . S
O72 Mg73 2.028 . S
O72 C74 1.248 . S
Mg73 O72 2.028 . S
Mg73 O78 2.032 . S
Mg73 O80 2.079 . S
C74 O71 1.250 . S
C74 O72 1.248 . S
C75 O76 1.264 . S
C75 O83 1.249 . S
O76 C75 1.264 . S
O77 Mg70 1.986 . S
O77 C81 1.246 . S
O78 Mg73 2.032 . S
O78 C81 1.259 . S
O79 Mg70 2.114 . S
O79 C82 1.252 . S
O80 Mg70 2.251 . S
O80 Mg73 2.079 . S
O80 C82 1.273 . S
C81 O77 1.246 . S
C81 O78 1.259 . S
C82 O79 1.252 . S
C82 O80 1.273 . S
O83 Mg70 2.010 . S
O83 C75 1.249 . S
Mg84 O85 2.028 . S
Mg84 O91 1.986 . S
Mg84 O93 2.114 . S
Mg84 O94 2.251 . S
Mg84 O97 2.010 . S
O85 Mg84 2.028 . S
O85 C88 1.250 . S
O86 Mg87 2.028 . S
O86 C88 1.248 . S
Mg87 O86 2.028 . S
Mg87 O92 2.032 . S
Mg87 O94 2.079 . S
C88 O85 1.250 . S
C88 O86 1.248 . S
C89 O90 1.264 . S
C89 O97 1.249 . S
O90 C89 1.264 . S
O91 Mg84 1.986 . S
O91 C95 1.246 . S
O92 Mg87 2.032 . S
O92 C95 1.259 . S
O93 Mg84 2.114 . S
O93 C96 1.252 . S
O94 Mg84 2.251 . S
O94 Mg87 2.079 . S
O94 C96 1.273 . S
C95 O91 1.246 . S
C95 O92 1.259 . S
C96 O93 1.252 . S
C96 O94 1.273 . S
O97 Mg84 2.010 . S
O97 C89 1.249 . S
Mg98 O99 2.028 . S
Mg98 O105 1.986 . S
Mg98 O107 2.114 . S
Mg98 O108 2.251 . S
Mg98 O111 2.010 . S
O99 Mg98 2.028 . S
O99 C102 1.250 . S
O100 Mg101 2.028 . S
O100 C102 1.248 . S
Mg101 O100 2.028 . S
Mg101 O106 2.032 . S
Mg101 O108 2.079 . S
C102 O99 1.250 . S
C102 O100 1.248 . S
C103 O104 1.264 . S
C103 O111 1.249 . S
O104 C103 1.264 . S
O105 Mg98 1.986 . S
O105 C109 1.246 . S
O106 Mg101 2.032 . S
O106 C109 1.259 . S
O107 Mg98 2.114 . S
O107 C110 1.252 . S
O108 Mg98 2.251 . S
O108 Mg101 2.079 . S
O108 C110 1.273 . S
C109 O105 1.246 . S
C109 O106 1.259 . S
C110 O107 1.252 . S
C110 O108 1.273 . S
O111 Mg98 2.010 . S
O111 C103 1.249 . S
Mg112 O113 2.028 . S
Mg112 O119 1.986 . S
Mg112 O121 2.114 . S
Mg112 O122 2.251 . S
Mg112 O125 2.010 . S
O113 Mg112 2.028 . S
O113 C116 1.250 . S
O114 Mg115 2.028 . S
O114 C116 1.248 . S
Mg115 O114 2.028 . S
Mg115 O120 2.032 . S
Mg115 O122 2.079 . S
C116 O113 1.250 . S
C116 O114 1.248 . S
C117 O118 1.264 . S
C117 O125 1.249 . S
O118 C117 1.264 . S
O119 Mg112 1.986 . S
O119 C123 1.246 . S
O120 Mg115 2.032 . S
O120 C123 1.259 . S
O121 Mg112 2.114 . S
O121 C124 1.252 . S
O122 Mg112 2.251 . S
O122 Mg115 2.079 . S
O122 C124 1.273 . S
C123 O119 1.246 . S
C123 O120 1.259 . S
C124 O121 1.252 . S
C124 O122 1.273 . S
O125 Mg112 2.010 . S
O125 C117 1.249 . S
Mg126 O127 2.028 . S
Mg126 O133 1.986 . S
Mg126 O135 2.114 . S
Mg126 O136 2.251 . S
Mg126 O139 2.010 . S
O127 Mg126 2.028 . S
O127 C130 1.250 . S
O128 Mg129 2.028 . S
O128 C130 1.248 . S
Mg129 O128 2.028 . S
Mg129 O134 2.032 . S
Mg129 O136 2.079 . S
C130 O127 1.250 . S
C130 O128 1.248 . S
C131 O132 1.264 . S
C131 O139 1.249 . S
O132 C131 1.264 . S
O133 Mg126 1.986 . S
O133 C137 1.246 . S
O134 Mg129 2.032 . S
O134 C137 1.259 . S
O135 Mg126 2.114 . S
O135 C138 1.252 . S
O136 Mg126 2.251 . S
O136 Mg129 2.079 . S
O136 C138 1.273 . S
C137 O133 1.246 . S
C137 O134 1.259 . S
C138 O135 1.252 . S
C138 O136 1.273 . S
O139 Mg126 2.010 . S
O139 C131 1.249 . S
Mg140 O141 2.028 . S
Mg140 O147 1.986 . S
Mg140 O149 2.114 . S
Mg140 O150 2.251 . S
Mg140 O153 2.010 . S
O141 Mg140 2.028 . S
O141 C144 1.250 . S
O142 Mg143 2.028 . S
O142 C144 1.248 . S
Mg143 O142 2.028 . S
Mg143 O148 2.032 . S
Mg143 O150 2.079 . S
C144 O141 1.250 . S
C144 O142 1.248 . S
C145 O146 1.264 . S
C145 O153 1.249 . S
O146 C145 1.264 . S
O147 Mg140 1.986 . S
O147 C151 1.246 . S
O148 Mg143 2.032 . S
O148 C151 1.259 . S
O149 Mg140 2.114 . S
O149 C152 1.252 . S
O150 Mg140 2.251 . S
O150 Mg143 2.079 . S
O150 C152 1.273 . S
C151 O147 1.246 . S
C151 O148 1.259 . S
C152 O149 1.252 . S
C152 O150 1.273 . S
O153 Mg140 2.010 . S
O153 C145 1.249 . S
Mg154 O155 2.028 . S
Mg154 O161 1.986 . S
Mg154 O163 2.114 . S
Mg154 O164 2.251 . S
Mg154 O167 2.010 . S
O155 Mg154 2.028 . S
O155 C158 1.250 . S
O156 Mg157 2.028 . S
O156 C158 1.248 . S
Mg157 O156 2.028 . S
Mg157 O162 2.032 . S
Mg157 O164 2.079 . S
C158 O155 1.250 . S
C158 O156 1.248 . S
C159 O160 1.264 . S
C159 O167 1.249 . S
O160 C159 1.264 . S
O161 Mg154 1.986 . S
O161 C165 1.246 . S
O162 Mg157 2.032 . S
O162 C165 1.259 . S
O163 Mg154 2.114 . S
O163 C166 1.252 . S
O164 Mg154 2.251 . S
O164 Mg157 2.079 . S
O164 C166 1.273 . S
C165 O161 1.246 . S
C165 O162 1.259 . S
C166 O163 1.252 . S
C166 O164 1.273 . S
O167 Mg154 2.010 . S
O167 C159 1.249 . S
Mg168 O169 2.028 . S
Mg168 O175 1.986 . S
Mg168 O177 2.114 . S
Mg168 O178 2.251 . S
Mg168 O181 2.010 . S
O169 Mg168 2.028 . S
O169 C172 1.250 . S
O170 Mg171 2.028 . S
O170 C172 1.248 . S
Mg171 O170 2.028 . S
Mg171 O176 2.032 . S
Mg171 O178 2.079 . S
C172 O169 1.250 . S
C172 O170 1.248 . S
C173 O174 1.264 . S
C173 O181 1.249 . S
O174 C173 1.264 . S
O175 Mg168 1.986 . S
O175 C179 1.246 . S
O176 Mg171 2.032 . S
O176 C179 1.259 . S
O177 Mg168 2.114 . S
O177 C180 1.252 . S
O178 Mg168 2.251 . S
O178 Mg171 2.079 . S
O178 C180 1.273 . S
C179 O175 1.246 . S
C179 O176 1.259 . S
C180 O177 1.252 . S
C180 O178 1.273 . S
O181 Mg168 2.010 . S
O181 C173 1.249 . S
Mg182 O183 2.028 . S
Mg182 O189 1.986 . S
Mg182 O191 2.114 . S
Mg182 O192 2.251 . S
Mg182 O195 2.010 . S
O183 Mg182 2.028 . S
O183 C186 1.250 . S
O184 Mg185 2.028 . S
O184 C186 1.248 . S
Mg185 O184 2.028 . S
Mg185 O190 2.032 . S
Mg185 O192 2.079 . S
C186 O183 1.250 . S
C186 O184 1.248 . S
C187 O188 1.264 . S
C187 O195 1.249 . S
O188 C187 1.264 . S
O189 Mg182 1.986 . S
O189 C193 1.246 . S
O190 Mg185 2.032 . S
O190 C193 1.259 . S
O191 Mg182 2.114 . S
O191 C194 1.252 . S
O192 Mg182 2.251 . S
O192 Mg185 2.079 . S
O192 C194 1.273 . S
C193 O189 1.246 . S
C193 O190 1.259 . S
C194 O191 1.252 . S
C194 O192 1.273 . S
O195 Mg182 2.010 . S
O195 C187 1.249 . S
Mg196 O197 2.028 . S
Mg196 O203 1.986 . S
Mg196 O205 2.114 . S
Mg196 O206 2.251 . S
Mg196 O209 2.010 . S
O197 Mg196 2.028 . S
O197 C200 1.250 . S
O198 Mg199 2.028 . S
O198 C200 1.248 . S
Mg199 O198 2.028 . S
Mg199 O204 2.032 . S
Mg199 O206 2.079 . S
C200 O197 1.250 . S
C200 O198 1.248 . S
C201 O202 1.264 . S
C201 O209 1.249 . S
O202 C201 1.264 . S
O203 Mg196 1.986 . S
O203 C207 1.246 . S
O204 Mg199 2.032 . S
O204 C207 1.259 . S
O205 Mg196 2.114 . S
O205 C208 1.252 . S
O206 Mg196 2.251 . S
O206 Mg199 2.079 . S
O206 C208 1.273 . S
C207 O203 1.246 . S
C207 O204 1.259 . S
C208 O205 1.252 . S
C208 O206 1.273 . S
O209 Mg196 2.010 . S
O209 C201 1.249 . S
Mg210 O211 2.028 . S
Mg210 O217 1.986 . S
Mg210 O219 2.114 . S
Mg210 O220 2.251 . S
Mg210 O223 2.010 . S
O211 Mg210 2.028 . S
O211 C214 1.250 . S
O212 Mg213 2.028 . S
O212 C214 1.248 . S
Mg213 O212 2.028 . S
Mg213 O218 2.032 . S
Mg213 O220 2.079 . S
C214 O211 1.250 . S
C214 O212 1.248 . S
C215 O216 1.264 . S
C215 O223 1.249 . S
O216 C215 1.264 . S
O217 Mg210 1.986 . S
O217 C221 1.246 . S
O218 Mg213 2.032 . S
O218 C221 1.259 . S
O219 Mg210 2.114 . S
O219 C222 1.252 . S
O220 Mg210 2.251 . S
O220 Mg213 2.079 . S
O220 C222 1.273 . S
C221 O217 1.246 . S
C221 O218 1.259 . S
C222 O219 1.252 . S
C222 O220 1.273 . S
O223 Mg210 2.010 . S
O223 C215 1.249 . S
Mg224 O225 2.028 . S
Mg224 O231 1.986 . S
Mg224 O233 2.114 . S
Mg224 O234 2.251 . S
Mg224 O237 2.010 . S
O225 Mg224 2.028 . S
O225 C228 1.250 . S
O226 Mg227 2.028 . S
O226 C228 1.248 . S
Mg227 O226 2.028 . S
Mg227 O232 2.032 . S
Mg227 O234 2.079 . S
C228 O225 1.250 . S
C228 O226 1.248 . S
C229 O230 1.264 . S
C229 O237 1.249 . S
O230 C229 1.264 . S
O231 Mg224 1.986 . S
O231 C235 1.246 . S
O232 Mg227 2.032 . S
O232 C235 1.259 . S
O233 Mg224 2.114 . S
O233 C236 1.252 . S
O234 Mg224 2.251 . S
O234 Mg227 2.079 . S
O234 C236 1.273 . S
C235 O231 1.246 . S
C235 O232 1.259 . S
C236 O233 1.252 . S
C236 O234 1.273 . S
O237 Mg224 2.010 . S
O237 C229 1.249 . S
Mg238 O239 2.028 . S
Mg238 O245 1.986 . S
Mg238 O247 2.114 . S
Mg238 O248 2.251 . S
Mg238 O251 2.010 . S
O239 Mg238 2.028 . S
O239 C242 1.250 . S
O240 Mg241 2.028 . S
O240 C242 1.248 . S
Mg241 O240 2.028 . S
Mg241 O246 2.032 . S
Mg241 O248 2.079 . S
C242 O239 1.250 . S
C242 O240 1.248 . S
C243 O244 1.264 . S
C243 O251 1.249 . S
O244 C243 1.264 . S
O245 Mg238 1.986 . S
O245 C249 1.246 . S
O246 Mg241 2.032 . S
O246 C249 1.259 . S
O247 Mg238 2.114 . S
O247 C250 1.252 . S
O248 Mg238 2.251 . S
O248 Mg241 2.079 . S
O248 C250 1.273 . S
C249 O245 1.246 . S
C249 O246 1.259 . S
C250 O247 1.252 . S
C250 O248 1.273 . S
O251 Mg238 2.010 . S
O251 C243 1.249 . S
Mg252 O253 2.028 . S
Mg252 O259 1.986 . S
Mg252 O261 2.114 . S
Mg252 O262 2.251 . S
Mg252 O265 2.010 . S
O253 Mg252 2.028 . S
O253 C256 1.250 . S
O254 Mg255 2.028 . S
O254 C256 1.248 . S
Mg255 O254 2.028 . S
Mg255 O260 2.032 . S
Mg255 O262 2.079 . S
C256 O253 1.250 . S
C256 O254 1.248 . S
C257 O258 1.264 . S
C257 O265 1.249 . S
O258 C257 1.264 . S
O259 Mg252 1.986 . S
O259 C263 1.246 . S
O260 Mg255 2.032 . S
O260 C263 1.259 . S
O261 Mg252 2.114 . S
O261 C264 1.252 . S
O262 Mg252 2.251 . S
O262 Mg255 2.079 . S
O262 C264 1.273 . S
C263 O259 1.246 . S
C263 O260 1.259 . S
C264 O261 1.252 . S
C264 O262 1.273 . S
O265 Mg252 2.010 . S
O265 C257 1.249 . S
Mg266 O267 2.028 . S
Mg266 O273 1.986 . S
Mg266 O275 2.114 . S
Mg266 O276 2.251 . S
Mg266 O279 2.010 . S
O267 Mg266 2.028 . S
O267 C270 1.250 . S
O268 Mg269 2.028 . S
O268 C270 1.248 . S
Mg269 O268 2.028 . S
Mg269 O274 2.032 . S
Mg269 O276 2.079 . S
C270 O267 1.250 . S
C270 O268 1.248 . S
C271 O272 1.264 . S
C271 O279 1.249 . S
O272 C271 1.264 . S
O273 Mg266 1.986 . S
O273 C277 1.246 . S
O274 Mg269 2.032 . S
O274 C277 1.259 . S
O275 Mg266 2.114 . S
O275 C278 1.252 . S
O276 Mg266 2.251 . S
O276 Mg269 2.079 . S
O276 C278 1.273 . S
C277 O273 1.246 . S
C277 O274 1.259 . S
C278 O275 1.252 . S
C278 O276 1.273 . S
O279 Mg266 2.010 . S
O279 C271 1.249 . S
Mg280 O281 2.028 . S
Mg280 O287 1.986 . S
Mg280 O289 2.114 . S
Mg280 O290 2.251 . S
Mg280 O293 2.010 . S
O281 Mg280 2.028 . S
O281 C284 1.250 . S
O282 Mg283 2.028 . S
O282 C284 1.248 . S
Mg283 O282 2.028 . S
Mg283 O288 2.032 . S
Mg283 O290 2.079 . S
C284 O281 1.250 . S
C284 O282 1.248 . S
C285 O286 1.264 . S
C285 O293 1.249 . S
O286 C285 1.264 . S
O287 Mg280 1.986 . S
O287 C291 1.246 . S
O288 Mg283 2.032 . S
O288 C291 1.259 . S
O289 Mg280 2.114 . S
O289 C292 1.252 . S
O290 Mg280 2.251 . S
O290 Mg283 2.079 . S
O290 C292 1.273 . S
C291 O287 1.246 . S
C291 O288 1.259 . S
C292 O289 1.252 . S
C292 O290 1.273 . S
O293 Mg280 2.010 . S
O293 C285 1.249 . S
Mg294 O295 2.028 . S
Mg294 O301 1.986 . S
Mg294 O303 2.114 . S
Mg294 O304 2.251 . S
Mg294 O307 2.010 . S
O295 Mg294 2.028 . S
O295 C298 1.250 . S
O296 Mg297 2.028 . S
O296 C298 1.248 . S
Mg297 O296 2.028 . S
Mg297 O302 2.032 . S
Mg297 O304 2.079 . S
C298 O295 1.250 . S
C298 O296 1.248 . S
C299 O300 1.264 . S
C299 O307 1.249 . S
O300 C299 1.264 . S
O301 Mg294 1.986 . S
O301 C305 1.246 . S
O302 Mg297 2.032 . S
O302 C305 1.259 . S
O303 Mg294 2.114 . S
O303 C306 1.252 . S
O304 Mg294 2.251 . S
O304 Mg297 2.079 . S
O304 C306 1.273 . S
C305 O301 1.246 . S
C305 O302 1.259 . S
C306 O303 1.252 . S
C306 O304 1.273 . S
O307 Mg294 2.010 . S
O307 C299 1.249 . S
Mg308 O309 2.028 . S
Mg308 O315 1.986 . S
Mg308 O317 2.114 . S
Mg308 O318 2.251 . S
Mg308 O321 2.010 . S
O309 Mg308 2.028 . S
O309 C312 1.250 . S
O310 Mg311 2.028 . S
O310 C312 1.248 . S
Mg311 O310 2.028 . S
Mg311 O316 2.032 . S
Mg311 O318 2.079 . S
C312 O309 1.250 . S
C312 O310 1.248 . S
C313 O314 1.264 . S
C313 O321 1.249 . S
O314 C313 1.264 . S
O315 Mg308 1.986 . S
O315 C319 1.246 . S
O316 Mg311 2.032 . S
O316 C319 1.259 . S
O317 Mg308 2.114 . S
O317 C320 1.252 . S
O318 Mg308 2.251 . S
O318 Mg311 2.079 . S
O318 C320 1.273 . S
C319 O315 1.246 . S
C319 O316 1.259 . S
C320 O317 1.252 . S
C320 O318 1.273 . S
O321 Mg308 2.010 . S
O321 C313 1.249 . S
Mg322 O323 2.028 . S
Mg322 O329 1.986 . S
Mg322 O331 2.114 . S
Mg322 O332 2.251 . S
Mg322 O335 2.010 . S
O323 Mg322 2.028 . S
O323 C326 1.250 . S
O324 Mg325 2.028 . S
O324 C326 1.248 . S
Mg325 O324 2.028 . S
Mg325 O330 2.032 . S
Mg325 O332 2.079 . S
C326 O323 1.250 . S
C326 O324 1.248 . S
C327 O328 1.264 . S
C327 O335 1.249 . S
O328 C327 1.264 . S
O329 Mg322 1.986 . S
O329 C333 1.246 . S
O330 Mg325 2.032 . S
O330 C333 1.259 . S
O331 Mg322 2.114 . S
O331 C334 1.252 . S
O332 Mg322 2.251 . S
O332 Mg325 2.079 . S
O332 C334 1.273 . S
C333 O329 1.246 . S
C333 O330 1.259 . S
C334 O331 1.252 . S
C334 O332 1.273 . S
O335 Mg322 2.010 . S
O335 C327 1.249 . S
C336 C337 1.387 . S
C336 H340 0.950 . S
C336 C345 1.390 . S
C337 C336 1.387 . S
C337 C339 1.387 . S
H338 C345 0.950 . S
C339 C337 1.387 . S
C339 C341 1.390 . S
C339 H343 0.950 . S
H340 C336 0.950 . S
C341 C339 1.390 . S
C341 C342 1.387 . S
C341 H344 0.950 . S
C342 C341 1.387 . S
C342 C345 1.387 . S
H343 C339 0.950 . S
H344 C341 0.950 . S
C345 C336 1.390 . S
C345 H338 0.950 . S
C345 C342 1.387 . S
C346 C347 1.387 . S
C346 H350 0.950 . S
C346 C355 1.390 . S
C347 C346 1.387 . S
C347 C349 1.387 . S
H348 C355 0.950 . S
C349 C347 1.387 . S
C349 C351 1.390 . S
C349 H353 0.950 . S
H350 C346 0.950 . S
C351 C349 1.390 . S
C351 C352 1.387 . S
C351 H354 0.950 . S
C352 C351 1.387 . S
C352 C355 1.387 . S
H353 C349 0.950 . S
H354 C351 0.950 . S
C355 C346 1.390 . S
C355 H348 0.950 . S
C355 C352 1.387 . S
C356 C357 1.387 . S
C356 H360 0.950 . S
C356 C365 1.390 . S
C357 C356 1.387 . S
C357 C359 1.387 . S
H358 C365 0.950 . S
C359 C357 1.387 . S
C359 C361 1.390 . S
C359 H363 0.950 . S
H360 C356 0.950 . S
C361 C359 1.390 . S
C361 C362 1.387 . S
C361 H364 0.950 . S
C362 C361 1.387 . S
C362 C365 1.387 . S
H363 C359 0.950 . S
H364 C361 0.950 . S
C365 C356 1.390 . S
C365 H358 0.950 . S
C365 C362 1.387 . S
C366 C367 1.387 . S
C366 H370 0.950 . S
C366 C375 1.390 . S
C367 C366 1.387 . S
C367 C369 1.387 . S
H368 C375 0.950 . S
C369 C367 1.387 . S
C369 C371 1.390 . S
C369 H373 0.950 . S
H370 C366 0.950 . S
C371 C369 1.390 . S
C371 C372 1.387 . S
C371 H374 0.950 . S
C372 C371 1.387 . S
C372 C375 1.387 . S
H373 C369 0.950 . S
H374 C371 0.950 . S
C375 C366 1.390 . S
C375 H368 0.950 . S
C375 C372 1.387 . S
C376 C377 1.387 . S
C376 H380 0.950 . S
C376 C385 1.390 . S
C377 C376 1.387 . S
C377 C379 1.387 . S
H378 C385 0.950 . S
C379 C377 1.387 . S
C379 C381 1.390 . S
C379 H383 0.950 . S
H380 C376 0.950 . S
C381 C379 1.390 . S
C381 C382 1.387 . S
C381 H384 0.950 . S
C382 C381 1.387 . S
C382 C385 1.387 . S
H383 C379 0.950 . S
H384 C381 0.950 . S
C385 C376 1.390 . S
C385 H378 0.950 . S
C385 C382 1.387 . S
C386 C387 1.387 . S
C386 H390 0.950 . S
C386 C395 1.390 . S
C387 C386 1.387 . S
C387 C389 1.387 . S
H388 C395 0.950 . S
C389 C387 1.387 . S
C389 C391 1.390 . S
C389 H393 0.950 . S
H390 C386 0.950 . S
C391 C389 1.390 . S
C391 C392 1.387 . S
C391 H394 0.950 . S
C392 C391 1.387 . S
C392 C395 1.387 . S
H393 C389 0.950 . S
H394 C391 0.950 . S
C395 C386 1.390 . S
C395 H388 0.950 . S
C395 C392 1.387 . S
C396 C397 1.387 . S
C396 H400 0.950 . S
C396 C405 1.390 . S
C397 C396 1.387 . S
C397 C399 1.387 . S
H398 C405 0.950 . S
C399 C397 1.387 . S
C399 C401 1.390 . S
C399 H403 0.950 . S
H400 C396 0.950 . S
C401 C399 1.390 . S
C401 C402 1.387 . S
C401 H404 0.950 . S
C402 C401 1.387 . S
C402 C405 1.387 . S
H403 C399 0.950 . S
H404 C401 0.950 . S
C405 C396 1.390 . S
C405 H398 0.950 . S
C405 C402 1.387 . S
C406 C407 1.387 . S
C406 H410 0.950 . S
C406 C415 1.390 . S
C407 C406 1.387 . S
C407 C409 1.387 . S
H408 C415 0.950 . S
C409 C407 1.387 . S
C409 C411 1.390 . S
C409 H413 0.950 . S
H410 C406 0.950 . S
C411 C409 1.390 . S
C411 C412 1.387 . S
C411 H414 0.950 . S
C412 C411 1.387 . S
C412 C415 1.387 . S
H413 C409 0.950 . S
H414 C411 0.950 . S
C415 C406 1.390 . S
C415 H408 0.950 . S
C415 C412 1.387 . S
C416 C417 1.387 . S
C416 H420 0.950 . S
C416 C425 1.390 . S
C417 C416 1.387 . S
C417 C419 1.387 . S
H418 C425 0.950 . S
C419 C417 1.387 . S
C419 C421 1.390 . S
C419 H423 0.950 . S
H420 C416 0.950 . S
C421 C419 1.390 . S
C421 C422 1.387 . S
C421 H424 0.950 . S
C422 C421 1.387 . S
C422 C425 1.387 . S
H423 C419 0.950 . S
H424 C421 0.950 . S
C425 C416 1.390 . S
C425 H418 0.950 . S
C425 C422 1.387 . S
C426 C427 1.387 . S
C426 H430 0.950 . S
C426 C435 1.390 . S
C427 C426 1.387 . S
C427 C429 1.387 . S
H428 C435 0.950 . S
C429 C427 1.387 . S
C429 C431 1.390 . S
C429 H433 0.950 . S
H430 C426 0.950 . S
C431 C429 1.390 . S
C431 C432 1.387 . S
C431 H434 0.950 . S
C432 C431 1.387 . S
C432 C435 1.387 . S
H433 C429 0.950 . S
H434 C431 0.950 . S
C435 C426 1.390 . S
C435 H428 0.950 . S
C435 C432 1.387 . S
C436 C437 1.387 . S
C436 H440 0.950 . S
C436 C445 1.390 . S
C437 C436 1.387 . S
C437 C439 1.387 . S
H438 C445 0.950 . S
C439 C437 1.387 . S
C439 C441 1.390 . S
C439 H443 0.950 . S
H440 C436 0.950 . S
C441 C439 1.390 . S
C441 C442 1.387 . S
C441 H444 0.950 . S
C442 C441 1.387 . S
C442 C445 1.387 . S
H443 C439 0.950 . S
H444 C441 0.950 . S
C445 C436 1.390 . S
C445 H438 0.950 . S
C445 C442 1.387 . S
C446 C447 1.387 . S
C446 H450 0.950 . S
C446 C455 1.390 . S
C447 C446 1.387 . S
C447 C449 1.387 . S
H448 C455 0.950 . S
C449 C447 1.387 . S
C449 C451 1.390 . S
C449 H453 0.950 . S
H450 C446 0.950 . S
C451 C449 1.390 . S
C451 C452 1.387 . S
C451 H454 0.950 . S
C452 C451 1.387 . S
C452 C455 1.387 . S
H453 C449 0.950 . S
H454 C451 0.950 . S
C455 C446 1.390 . S
C455 H448 0.950 . S
C455 C452 1.387 . S
C456 C457 1.387 . S
C456 H460 0.950 . S
C456 C465 1.390 1_556 S
C457 C456 1.387 . S
C457 C459 1.387 . S
H458 C465 0.950 . S
C459 C457 1.387 . S
C459 C461 1.390 1_556 S
C459 H463 0.950 . S
H460 C456 0.950 . S
C461 C459 1.390 1_554 S
C461 C462 1.387 . S
C461 H464 0.950 . S
C462 C461 1.387 . S
C462 C465 1.387 . S
H463 C459 0.950 . S
H464 C461 0.950 . S
C465 C456 1.390 1_554 S
C465 H458 0.950 . S
C465 C462 1.387 . S
C466 C467 1.387 . S
C466 H470 0.950 . S
C466 C475 1.390 . S
C467 C466 1.387 . S
C467 C469 1.387 . S
H468 C475 0.950 . S
C469 C467 1.387 . S
C469 C471 1.390 . S
C469 H473 0.950 . S
H470 C466 0.950 . S
C471 C469 1.390 . S
C471 C472 1.387 . S
C471 H474 0.950 . S
C472 C471 1.387 . S
C472 C475 1.387 . S
H473 C469 0.950 . S
H474 C471 0.950 . S
C475 C466 1.390 . S
C475 H468 0.950 . S
C475 C472 1.387 . S
C476 C477 1.387 1_556 S
C476 H480 0.950 . S
C476 C485 1.390 . S
C477 C476 1.387 1_554 S
C477 C479 1.387 . S
H478 C485 0.950 . S
C479 C477 1.387 . S
C479 C481 1.390 . S
C479 H483 0.950 . S
H480 C476 0.950 . S
C481 C479 1.390 . S
C481 C482 1.387 1_554 S
C481 H484 0.950 . S
C482 C481 1.387 1_556 S
C482 C485 1.387 . S
H483 C479 0.950 . S
H484 C481 0.950 . S
C485 C476 1.390 . S
C485 H478 0.950 . S
C485 C482 1.387 . S
C486 C487 1.387 . S
C486 H490 0.950 . S
C486 C495 1.390 . S
C487 C486 1.387 . S
C487 C489 1.387 . S
H488 C495 0.950 . S
C489 C487 1.387 . S
C489 C491 1.390 . S
C489 H493 0.950 . S
H490 C486 0.950 . S
C491 C489 1.390 . S
C491 C492 1.387 . S
C491 H494 0.950 . S
C492 C491 1.387 . S
C492 C495 1.387 . S
H493 C489 0.950 . S
H494 C491 0.950 . S
C495 C486 1.390 . S
C495 H488 0.950 . S
C495 C492 1.387 . S
C496 C497 1.387 . S
C496 H500 0.950 . S
C496 C505 1.390 . S
C497 C496 1.387 . S
C497 C499 1.387 1_556 S
H498 C505 0.950 . S
C499 C497 1.387 1_554 S
C499 C501 1.390 . S
C499 H503 0.950 . S
H500 C496 0.950 . S
C501 C499 1.390 . S
C501 C502 1.387 . S
C501 H504 0.950 . S
C502 C501 1.387 . S
C502 C505 1.387 1_554 S
H503 C499 0.950 . S
H504 C501 0.950 . S
C505 C496 1.390 . S
C505 H498 0.950 . S
C505 C502 1.387 1_556 S
C506 C507 1.387 . S
C506 H510 0.950 . S
C506 C515 1.390 . S
C507 C506 1.387 . S
C507 C509 1.387 . S
H508 C515 0.950 . S
C509 C507 1.387 . S
C509 C511 1.390 . S
C509 H513 0.950 . S
H510 C506 0.950 . S
C511 C509 1.390 . S
C511 C512 1.387 . S
C511 H514 0.950 . S
C512 C511 1.387 . S
C512 C515 1.387 . S
H513 C509 0.950 . S
H514 C511 0.950 . S
C515 C506 1.390 . S
C515 H508 0.950 . S
C515 C512 1.387 . S
C516 C517 1.387 . S
C516 H520 0.950 . S
C516 C525 1.390 1_554 S
C517 C516 1.387 . S
C517 C519 1.387 . S
H518 C525 0.950 . S
C519 C517 1.387 . S
C519 C521 1.390 1_554 S
C519 H523 0.950 . S
H520 C516 0.950 . S
C521 C519 1.390 1_556 S
C521 C522 1.387 . S
C521 H524 0.950 . S
C522 C521 1.387 . S
C522 C525 1.387 . S
H523 C519 0.950 . S
H524 C521 0.950 . S
C525 C516 1.390 1_556 S
C525 H518 0.950 . S
C525 C522 1.387 . S
C526 C527 1.387 . S
C526 H530 0.950 . S
C526 C535 1.390 . S
C527 C526 1.387 . S
C527 C529 1.387 . S
H528 C535 0.950 . S
C529 C527 1.387 . S
C529 C531 1.390 . S
C529 H533 0.950 . S
H530 C526 0.950 . S
C531 C529 1.390 . S
C531 C532 1.387 . S
C531 H534 0.950 . S
C532 C531 1.387 . S
C532 C535 1.387 . S
H533 C529 0.950 . S
H534 C531 0.950 . S
C535 C526 1.390 . S
C535 H528 0.950 . S
C535 C532 1.387 . S
C536 C537 1.387 . S
C536 H540 0.950 . S
C536 C545 1.390 1_556 S
C537 C536 1.387 . S
C537 C539 1.387 . S
H538 C545 0.950 . S
C539 C537 1.387 . S
C539 C541 1.390 1_556 S
C539 H543 0.950 . S
H540 C536 0.950 . S
C541 C539 1.390 1_554 S
C541 C542 1.387 . S
C541 H544 0.950 . S
C542 C541 1.387 . S
C542 C545 1.387 . S
H543 C539 0.950 . S
H544 C541 0.950 . S
C545 C536 1.390 1_554 S
C545 H538 0.950 . S
C545 C542 1.387 . S
C546 C547 1.387 . S
C546 H550 0.950 . S
C546 C555 1.390 . S
C547 C546 1.387 . S
C547 C549 1.387 . S
H548 C555 0.950 . S
C549 C547 1.387 . S
C549 C551 1.390 . S
C549 H553 0.950 . S
H550 C546 0.950 . S
C551 C549 1.390 . S
C551 C552 1.387 . S
C551 H554 0.950 . S
C552 C551 1.387 . S
C552 C555 1.387 . S
H553 C549 0.950 . S
H554 C551 0.950 . S
C555 C546 1.390 . S
C555 H548 0.950 . S
C555 C552 1.387 . S
C556 C557 1.387 1_554 S
C556 H560 0.950 . S
C556 C565 1.390 . S
C557 C556 1.387 1_556 S
C557 C559 1.387 . S
H558 C565 0.950 . S
C559 C557 1.387 . S
C559 C561 1.390 . S
C559 H563 0.950 . S
H560 C556 0.950 . S
C561 C559 1.390 . S
C561 C562 1.387 1_556 S
C561 H564 0.950 . S
C562 C561 1.387 1_554 S
C562 C565 1.387 . S
H563 C559 0.950 . S
H564 C561 0.950 . S
C565 C556 1.390 . S
C565 H558 0.950 . S
C565 C562 1.387 . S
C566 C567 1.387 . S
C566 H570 0.950 . S
C566 C575 1.390 . S
C567 C566 1.387 . S
C567 C569 1.387 . S
H568 C575 0.950 . S
C569 C567 1.387 . S
C569 C571 1.390 . S
C569 H573 0.950 . S
H570 C566 0.950 . S
C571 C569 1.390 . S
C571 C572 1.387 . S
C571 H574 0.950 . S
C572 C571 1.387 . S
C572 C575 1.387 . S
H573 C569 0.950 . S
H574 C571 0.950 . S
C575 C566 1.390 . S
C575 H568 0.950 . S
C575 C572 1.387 . S
C576 C577 1.387 . S
C576 H580 0.950 1_554 S
C576 C585 1.390 . S
C577 C576 1.387 . S
C577 C579 1.387 . S
H578 C585 0.950 1_556 S
C579 C577 1.387 . S
C579 C581 1.390 . S
C579 H583 0.950 . S
H580 C576 0.950 1_556 S
C581 C579 1.390 . S
C581 C582 1.387 . S
C581 H584 0.950 . S
C582 C581 1.387 . S
C582 C585 1.387 . S
H583 C579 0.950 . S
H584 C581 0.950 . S
C585 C576 1.390 . S
C585 H578 0.950 1_554 S
C585 C582 1.387 . S
C586 C587 1.387 . S
C586 H590 0.950 . S
C586 C595 1.390 1_455 S
C587 C586 1.387 . S
C587 C589 1.387 . S
H588 C595 0.950 . S
C589 C587 1.387 . S
C589 C591 1.390 1_455 S
C589 H593 0.950 . S
H590 C586 0.950 . S
C591 C589 1.390 1_655 S
C591 C592 1.387 . S
C591 H594 0.950 . S
C592 C591 1.387 . S
C592 C595 1.387 . S
H593 C589 0.950 . S
H594 C591 0.950 . S
C595 C586 1.390 1_655 S
C595 H588 0.950 . S
C595 C592 1.387 . S
C596 C597 1.387 . S
C596 H600 0.950 . S
C596 C605 1.390 1_565 S
C597 C596 1.387 . S
C597 C599 1.387 . S
H598 C605 0.950 . S
C599 C597 1.387 . S
C599 C601 1.390 1_565 S
C599 H603 0.950 1_554 S
H600 C596 0.950 . S
C601 C599 1.390 1_545 S
C601 C602 1.387 . S
C601 H604 0.950 1_554 S
C602 C601 1.387 . S
C602 C605 1.387 . S
H603 C599 0.950 1_556 S
H604 C601 0.950 1_556 S
C605 C596 1.390 1_545 S
C605 H598 0.950 . S
C605 C602 1.387 . S
C606 C607 1.387 . S
C606 H610 0.950 . S
C606 C615 1.390 . S
C607 C606 1.387 . S
C607 C609 1.387 . S
H608 C615 0.950 . S
C609 C607 1.387 . S
C609 C611 1.390 . S
C609 H613 0.950 . S
H610 C606 0.950 . S
C611 C609 1.390 . S
C611 C612 1.387 . S
C611 H614 0.950 . S
C612 C611 1.387 . S
C612 C615 1.387 . S
H613 C609 0.950 . S
H614 C611 0.950 . S
C615 C606 1.390 . S
C615 H608 0.950 . S
C615 C612 1.387 . S
C616 C617 1.387 . S
C616 H620 0.950 . S
C616 C625 1.390 1_655 S
C617 C616 1.387 . S
C617 C619 1.387 . S
H618 C625 0.950 . S
C619 C617 1.387 . S
C619 C621 1.390 1_655 S
C619 H623 0.950 1_554 S
H620 C616 0.950 . S
C621 C619 1.390 1_455 S
C621 C622 1.387 . S
C621 H624 0.950 1_554 S
C622 C621 1.387 . S
C622 C625 1.387 . S
H623 C619 0.950 1_556 S
H624 C621 0.950 1_556 S
C625 C616 1.390 1_455 S
C625 H618 0.950 . S
C625 C622 1.387 . S
C626 C627 1.387 . S
C626 H630 0.950 . S
C626 C635 1.390 1_545 S
C627 C626 1.387 . S
C627 C629 1.387 . S
H628 C635 0.950 . S
C629 C627 1.387 . S
C629 C631 1.390 1_545 S
C629 H633 0.950 . S
H630 C626 0.950 . S
C631 C629 1.390 1_565 S
C631 C632 1.387 . S
C631 H634 0.950 . S
C632 C631 1.387 . S
C632 C635 1.387 . S
H633 C629 0.950 . S
H634 C631 0.950 . S
C635 C626 1.390 1_565 S
C635 H628 0.950 . S
C635 C632 1.387 . S
C636 C637 1.387 . S
C636 H640 0.950 . S
C636 C645 1.390 . S
C637 C636 1.387 . S
C637 C639 1.387 . S
H638 C645 0.950 . S
C639 C637 1.387 . S
C639 C641 1.390 . S
C639 H643 0.950 1_556 S
H640 C636 0.950 . S
C641 C639 1.390 . S
C641 C642 1.387 . S
C641 H644 0.950 1_556 S
C642 C641 1.387 . S
C642 C645 1.387 . S
H643 C639 0.950 1_554 S
H644 C641 0.950 1_554 S
C645 C636 1.390 . S
C645 H638 0.950 . S
C645 C642 1.387 . S
C646 C647 1.387 . S
C646 H650 0.950 . S
C646 C655 1.390 1_655 S
C647 C646 1.387 . S
C647 C649 1.387 . S
H648 C655 0.950 . S
C649 C647 1.387 . S
C649 C651 1.390 1_655 S
C649 H653 0.950 . S
H650 C646 0.950 . S
C651 C649 1.390 1_455 S
C651 C652 1.387 . S
C651 H654 0.950 . S
C652 C651 1.387 . S
C652 C655 1.387 . S
H653 C649 0.950 . S
H654 C651 0.950 . S
C655 C646 1.390 1_455 S
C655 H648 0.950 . S
C655 C652 1.387 . S
C656 C657 1.387 . S
C656 H660 0.950 . S
C656 C665 1.390 1_545 S
C657 C656 1.387 . S
C657 C659 1.387 . S
H658 C665 0.950 . S
C659 C657 1.387 . S
C659 C661 1.390 1_545 S
C659 H663 0.950 1_556 S
H660 C656 0.950 . S
C661 C659 1.390 1_565 S
C661 C662 1.387 . S
C661 H664 0.950 1_556 S
C662 C661 1.387 . S
C662 C665 1.387 . S
H663 C659 0.950 1_554 S
H664 C661 0.950 1_554 S
C665 C656 1.390 1_565 S
C665 H658 0.950 . S
C665 C662 1.387 . S
C666 C667 1.387 . S
C666 H670 0.950 . S
C666 C675 1.390 . S
C667 C666 1.387 . S
C667 C669 1.387 . S
H668 C675 0.950 . S
C669 C667 1.387 . S
C669 C671 1.390 . S
C669 H673 0.950 . S
H670 C666 0.950 . S
C671 C669 1.390 . S
C671 C672 1.387 . S
C671 H674 0.950 . S
C672 C671 1.387 . S
C672 C675 1.387 . S
H673 C669 0.950 . S
H674 C671 0.950 . S
C675 C666 1.390 . S
C675 H668 0.950 . S
C675 C672 1.387 . S
C676 C677 1.387 . S
C676 H680 0.950 . S
C676 C685 1.390 1_455 S
C677 C676 1.387 . S
C677 C679 1.387 . S
H678 C685 0.950 . S
C679 C677 1.387 . S
C679 C681 1.390 1_455 S
C679 H683 0.950 1_556 S
H680 C676 0.950 . S
C681 C679 1.390 1_655 S
C681 C682 1.387 . S
C681 H684 0.950 1_556 S
C682 C681 1.387 . S
C682 C685 1.387 . S
H683 C679 0.950 1_554 S
H684 C681 0.950 1_554 S
C685 C676 1.390 1_655 S
C685 H678 0.950 . S
C685 C682 1.387 . S
C686 C687 1.387 . S
C686 H690 0.950 . S
C686 C695 1.390 1_565 S
C687 C686 1.387 . S
C687 C689 1.387 . S
H688 C695 0.950 . S
C689 C687 1.387 . S
C689 C691 1.390 1_565 S
C689 H693 0.950 . S
H690 C686 0.950 . S
C691 C689 1.390 1_545 S
C691 C692 1.387 . S
C691 H694 0.950 . S
C692 C691 1.387 . S
C692 C695 1.387 . S
H693 C689 0.950 . S
H694 C691 0.950 . S
C695 C686 1.390 1_545 S
C695 H688 0.950 . S
C695 C692 1.387 . S
C696 C697 1.387 . S
C696 H700 0.950 . S
C696 C705 1.390 . S
C697 C696 1.387 . S
C697 C699 1.387 1_556 S
H698 C705 0.950 . S
C699 C697 1.387 1_554 S
C699 C701 1.390 . S
C699 H703 0.950 . S
H700 C696 0.950 . S
C701 C699 1.390 . S
C701 C702 1.387 . S
C701 H704 0.950 . S
C702 C701 1.387 . S
C702 C705 1.387 1_554 S
H703 C699 0.950 . S
H704 C701 0.950 . S
C705 C696 1.390 . S
C705 H698 0.950 . S
C705 C702 1.387 1_556 S
C706 C707 1.387 . S
C706 H710 0.950 . S
C706 C715 1.390 . S
C707 C706 1.387 . S
C707 C709 1.387 . S
H708 C715 0.950 . S
C709 C707 1.387 . S
C709 C711 1.390 . S
C709 H713 0.950 . S
H710 C706 0.950 . S
C711 C709 1.390 . S
C711 C712 1.387 . S
C711 H714 0.950 . S
C712 C711 1.387 . S
C712 C715 1.387 . S
H713 C709 0.950 . S
H714 C711 0.950 . S
C715 C706 1.390 . S
C715 H708 0.950 . S
C715 C712 1.387 . S
C716 C717 1.387 . S
C716 H720 0.950 . S
C716 C725 1.390 1_556 S
C717 C716 1.387 . S
C717 C719 1.387 . S
H718 C725 0.950 . S
C719 C717 1.387 . S
C719 C721 1.390 1_556 S
C719 H723 0.950 . S
H720 C716 0.950 . S
C721 C719 1.390 1_554 S
C721 C722 1.387 . S
C721 H724 0.950 . S
C722 C721 1.387 . S
C722 C725 1.387 . S
H723 C719 0.950 . S
H724 C721 0.950 . S
C725 C716 1.390 1_554 S
C725 H718 0.950 . S
C725 C722 1.387 . S
C726 C727 1.387 . S
C726 H730 0.950 . S
C726 C735 1.390 . S
C727 C726 1.387 . S
C727 C729 1.387 . S
H728 C735 0.950 . S
C729 C727 1.387 . S
C729 C731 1.390 . S
C729 H733 0.950 . S
H730 C726 0.950 . S
C731 C729 1.390 . S
C731 C732 1.387 . S
C731 H734 0.950 . S
C732 C731 1.387 . S
C732 C735 1.387 . S
H733 C729 0.950 . S
H734 C731 0.950 . S
C735 C726 1.390 . S
C735 H728 0.950 . S
C735 C732 1.387 . S
C736 C737 1.387 1_554 S
C736 H740 0.950 . S
C736 C745 1.390 . S
C737 C736 1.387 1_556 S
C737 C739 1.387 . S
H738 C745 0.950 . S
C739 C737 1.387 . S
C739 C741 1.390 . S
C739 H743 0.950 . S
H740 C736 0.950 . S
C741 C739 1.390 . S
C741 C742 1.387 1_556 S
C741 H744 0.950 . S
C742 C741 1.387 1_554 S
C742 C745 1.387 . S
H743 C739 0.950 . S
H744 C741 0.950 . S
C745 C736 1.390 . S
C745 H738 0.950 . S
C745 C742 1.387 . S
C746 C747 1.387 . S
C746 H750 0.950 . S
C746 C755 1.390 . S
C747 C746 1.387 . S
C747 C749 1.387 . S
H748 C755 0.950 . S
C749 C747 1.387 . S
C749 C751 1.390 . S
C749 H753 0.950 . S
H750 C746 0.950 . S
C751 C749 1.390 . S
C751 C752 1.387 . S
C751 H754 0.950 . S
C752 C751 1.387 . S
C752 C755 1.387 . S
H753 C749 0.950 . S
H754 C751 0.950 . S
C755 C746 1.390 . S
C755 H748 0.950 . S
C755 C752 1.387 . S
C756 C757 1.387 . S
C756 H760 0.950 . S
C756 C765 1.390 . S
C757 C756 1.387 . S
C757 C759 1.387 1_554 S
H758 C765 0.950 . S
C759 C757 1.387 1_556 S
C759 C761 1.390 . S
C759 H763 0.950 . S
H760 C756 0.950 . S
C761 C759 1.390 . S
C761 C762 1.387 . S
C761 H764 0.950 . S
C762 C761 1.387 . S
C762 C765 1.387 1_556 S
H763 C759 0.950 . S
H764 C761 0.950 . S
C765 C756 1.390 . S
C765 H758 0.950 . S
C765 C762 1.387 1_554 S
C766 C767 1.387 . S
C766 H770 0.950 . S
C766 C775 1.390 . S
C767 C766 1.387 . S
C767 C769 1.387 . S
H768 C775 0.950 . S
C769 C767 1.387 . S
C769 C771 1.390 . S
C769 H773 0.950 . S
H770 C766 0.950 . S
C771 C769 1.390 . S
C771 C772 1.387 . S
C771 H774 0.950 . S
C772 C771 1.387 . S
C772 C775 1.387 . S
H773 C769 0.950 . S
H774 C771 0.950 . S
C775 C766 1.390 . S
C775 H768 0.950 . S
C775 C772 1.387 . S
C776 C777 1.387 . S
C776 H780 0.950 . S
C776 C785 1.390 1_554 S
C777 C776 1.387 . S
C777 C779 1.387 . S
H778 C785 0.950 . S
C779 C777 1.387 . S
C779 C781 1.390 1_554 S
C779 H783 0.950 . S
H780 C776 0.950 . S
C781 C779 1.390 1_556 S
C781 C782 1.387 . S
C781 H784 0.950 . S
C782 C781 1.387 . S
C782 C785 1.387 . S
H783 C779 0.950 . S
H784 C781 0.950 . S
C785 C776 1.390 1_556 S
C785 H778 0.950 . S
C785 C782 1.387 . S
C786 C787 1.387 . S
C786 H790 0.950 . S
C786 C795 1.390 . S
C787 C786 1.387 . S
C787 C789 1.387 . S
H788 C795 0.950 . S
C789 C787 1.387 . S
C789 C791 1.390 . S
C789 H793 0.950 . S
H790 C786 0.950 . S
C791 C789 1.390 . S
C791 C792 1.387 . S
C791 H794 0.950 . S
C792 C791 1.387 . S
C792 C795 1.387 . S
H793 C789 0.950 . S
H794 C791 0.950 . S
C795 C786 1.390 . S
C795 H788 0.950 . S
C795 C792 1.387 . S
C796 C797 1.387 . S
C796 H800 0.950 . S
C796 C805 1.390 . S
C797 C796 1.387 . S
C797 C799 1.387 1_556 S
H798 C805 0.950 . S
C799 C797 1.387 1_554 S
C799 C801 1.390 . S
C799 H803 0.950 . S
H800 C796 0.950 . S
C801 C799 1.390 . S
C801 C802 1.387 . S
C801 H804 0.950 . S
C802 C801 1.387 . S
C802 C805 1.387 1_554 S
H803 C799 0.950 . S
H804 C801 0.950 . S
C805 C796 1.390 . S
C805 H798 0.950 . S
C805 C802 1.387 1_556 S
C806 C807 1.387 . S
C806 H810 0.950 . S
C806 C815 1.390 . S
C807 C806 1.387 . S
C807 C809 1.387 . S
H808 C815 0.950 . S
C809 C807 1.387 . S
C809 C811 1.390 . S
C809 H813 0.950 . S
H810 C806 0.950 . S
C811 C809 1.390 . S
C811 C812 1.387 . S
C811 H814 0.950 . S
C812 C811 1.387 . S
C812 C815 1.387 . S
H813 C809 0.950 . S
H814 C811 0.950 . S
C815 C806 1.390 . S
C815 H808 0.950 . S
C815 C812 1.387 . S
C337 C11 1.466 . S
C342 C221 1.469 . S
C347 C25 1.467 . S
C352 C235 1.468 . S
C357 C249 1.467 . S
C362 C39 1.468 . S
C367 C179 1.468 . S
C372 C53 1.467 . S
C377 C193 1.469 . S
C382 C67 1.466 . S
C387 C207 1.467 . S
C392 C81 1.467 . S
C397 C305 1.468 . S
C402 C95 1.467 . S
C407 C109 1.466 . S
C412 C319 1.469 . S
C417 C333 1.468 . S
C422 C123 1.467 . S
C427 C137 1.468 . S
C432 C263 1.467 . S
C437 C277 1.466 . S
C442 C151 1.469 . S
C447 C165 1.468 . S
C452 C291 1.467 . S
C457 C145 1.058 . S
C462 C5 1.058 . S
C467 C159 1.057 . S
C472 C19 1.063 . S
C477 C33 1.063 . S
C482 C89 1.057 . S
C487 C47 1.063 . S
C492 C103 1.062 . S
C497 C117 1.057 . S
C502 C61 1.063 . S
C507 C75 1.057 . S
C512 C131 1.062 . S
C517 C313 1.062 . S
C522 C173 1.062 . S
C527 C187 1.064 . S
C532 C327 1.061 . S
C537 C201 1.063 . S
C542 C257 1.062 . S
C547 C271 1.062 . S
C552 C215 1.063 . S
C557 C229 1.057 . S
C562 C285 1.063 . S
C567 C243 1.057 . S
C572 C299 1.062 . S
C577 C12 1.283 . S
C582 C264 1.282 . S
C587 C278 1.283 . S
C592 C26 1.282 . S
C597 C40 1.282 . S
C602 C292 1.284 . S
C607 C54 1.282 . S
C612 C306 1.283 . S
C617 C320 1.283 . S
C622 C68 1.282 . S
C627 C82 1.282 . S
C632 C334 1.283 . S
C637 C96 1.282 . S
C642 C180 1.283 . S
C647 C110 1.283 . S
C652 C194 1.282 . S
C657 C208 1.283 . S
C662 C124 1.282 . S
C667 C222 1.282 . S
C672 C138 1.283 . S
C677 C152 1.282 . S
C682 C236 1.283 . S
C687 C250 1.282 . S
C692 C166 1.283 . S
C697 C88 1.509 . S
C702 C4 1.507 . S
C707 C18 1.507 . S
C712 C102 1.510 . S
C717 C116 1.508 . S
C722 C32 1.508 . S
C727 C130 1.508 . S
C732 C46 1.510 . S
C737 C144 1.507 . S
C742 C60 1.509 . S
C747 C74 1.508 . S
C752 C158 1.508 . S
C757 C256 1.507 . S
C762 C172 1.510 . S
C767 C186 1.509 . S
C772 C270 1.507 . S
C777 C284 1.508 . S
C782 C200 1.508 . S
C787 C298 1.509 . S
C792 C214 1.507 . S
C797 C228 1.509 . S
C802 C312 1.510 . S
C807 C242 1.509 . S
C812 C326 1.509 . S
