# Generated by pormake.
# Topology uog, (4)-cn, num edge types: 1
# Building blocks:
#     Node 0, Type 0, BuildingBlock: QUQFOY_clean_sbu_1, # of connection points: 4
#     Node 1, Type 0, BuildingBlock: QUQFOY_clean_sbu_1, # of connection points: 4
#     Node 2, Type 0, BuildingBlock: QUQFOY_clean_sbu_1, # of connection points: 4
#     Node 3, Type 0, BuildingBlock: QUQFOY_clean_sbu_1, # of connection points: 4
#     Node 4, Type 0, BuildingBlock: QUQFOY_clean_sbu_1, # of connection points: 4
#     Node 5, Type 0, BuildingBlock: QUQFOY_clean_sbu_1, # of connection points: 4
#     Edge 6, Type (0, 0), BuildingBlock: XIVTED_clean_linker_0, # of connection points: 2
#     Edge 7, Type (0, 0), BuildingBlock: XIVTED_clean_linker_0, # of connection points: 2
#     Edge 8, Type (0, 0), BuildingBlock: XIVTED_clean_linker_0, # of connection points: 2
#     Edge 9, Type (0, 0), BuildingBlock: XIVTED_clean_linker_0, # of connection points: 2
#     Edge 10, Type (0, 0), BuildingBlock: XIVTED_clean_linker_0, # of connection points: 2
#     Edge 11, Type (0, 0), BuildingBlock: XIVTED_clean_linker_0, # of connection points: 2
#     Edge 12, Type (0, 0), BuildingBlock: XIVTED_clean_linker_0, # of connection points: 2
#     Edge 13, Type (0, 0), BuildingBlock: XIVTED_clean_linker_0, # of connection points: 2
#     Edge 14, Type (0, 0), BuildingBlock: XIVTED_clean_linker_0, # of connection points: 2
#     Edge 15, Type (0, 0), BuildingBlock: XIVTED_clean_linker_0, # of connection points: 2
#     Edge 16, Type (0, 0), BuildingBlock: XIVTED_clean_linker_0, # of connection points: 2
#     Edge 17, Type (0, 0), BuildingBlock: XIVTED_clean_linker_0, # of connection points: 2
# Relax obj value: 0.093
# Max RMSD: 0.154
# Mean RMSD: 0.154
data_MOF--net-uog--node1-QUQFOY_clean_sbu_1--edge1-XIVTED_clean_linker_0
_symmetry_space_group_name_H-M    P1
_symmetry_Int_Tables_number       1
_symmetry_cell_setting            triclinic
loop_
_symmetry_equiv_pos_as_xyz
'x, y, z'
_cell_length_a     29.356143
_cell_length_b     29.337122
_cell_length_c     44.124309
_cell_angle_alpha  90.008058
_cell_angle_beta   90.034406
_cell_angle_gamma 120.03998
loop_
_atom_site_label
_atom_site_type_symbol
_atom_site_fract_x
_atom_site_fract_y
_atom_site_fract_z
_atom_type_partial_charge
O0 O 0.61456 0.39173 0.17853 0.0
Cd1 Cd 0.65435 0.35171 0.17263 0.0
Cd2 Cd 0.55674 0.27515 0.1597 0.0
O3 O 0.53357 0.32407 0.18065 0.0
O4 O 0.71538 0.38497 0.20147 0.0
O5 O 0.64731 0.30462 0.20695 0.0
C6 C 0.68983 0.34321 0.21795 0.0
C7 C 0.52859 0.18665 0.17049 0.0
C8 C 0.56579 0.37335 0.1834 0.0
C9 C 0.63564 0.32584 0.10842 0.0
O10 O 0.58803 0.29959 0.11713 0.0
O11 O 0.67273 0.34594 0.12786 0.0
O12 O 0.49948 0.19929 0.15471 0.0
O13 O 0.57169 0.22415 0.18161 0.0
O14 O 0.22633 0.61084 0.51363 0.0
Cd15 Cd 0.30572 0.64969 0.50716 0.0
Cd16 Cd 0.28475 0.55153 0.4954 0.0
O17 O 0.21548 0.53126 0.51929 0.0
O18 O 0.33523 0.71219 0.53529 0.0
O19 O 0.34474 0.64275 0.54201 0.0
C20 C 0.35026 0.68625 0.55233 0.0
C21 C 0.35096 0.53124 0.50644 0.0
C22 C 0.19742 0.56278 0.52083 0.0
C23 C 0.30904 0.62545 0.44285 0.0
O24 O 0.28641 0.57804 0.45216 0.0
O25 O 0.32844 0.66348 0.46179 0.0
O26 O 0.30652 0.49582 0.49513 0.0
O27 O 0.3562 0.57642 0.51275 0.0
O28 O 0.62397 0.22489 0.84703 0.0
Cd29 Cd 0.66389 0.30445 0.83991 0.0
Cd30 Cd 0.74061 0.28208 0.82819 0.0
O31 O 0.69106 0.21078 0.84971 0.0
O32 O 0.63078 0.33349 0.86802 0.0
O33 O 0.71109 0.34605 0.87381 0.0
C34 C 0.67262 0.35035 0.88452 0.0
C35 C 0.82849 0.34295 0.83975 0.0
C36 C 0.64196 0.19434 0.8525 0.0
C37 C 0.69072 0.30918 0.77584 0.0
O38 O 0.71693 0.28823 0.78528 0.0
O39 O 0.67014 0.32658 0.79468 0.0
O40 O 0.81678 0.30119 0.82418 0.0
O41 O 0.79048 0.34828 0.85013 0.0
O42 O 0.40241 0.6224 0.17931 0.0
Cd43 Cd 0.36177 0.66159 0.17344 0.0
Cd44 Cd 0.45908 0.73862 0.16006 0.0
O45 O 0.48331 0.69032 0.18072 0.0
O46 O 0.30102 0.62746 0.20236 0.0
O47 O 0.36801 0.70846 0.20774 0.0
C48 C 0.32601 0.66935 0.21882 0.0
C49 C 0.48632 0.82678 0.1712 0.0
C50 C 0.45133 0.64106 0.1838 0.0
C51 C 0.37935 0.68688 0.10911 0.0
O52 O 0.42703 0.71377 0.11764 0.0
O53 O 0.34256 0.66648 0.12869 0.0
O54 O 0.51548 0.8148 0.155 0.0
O55 O 0.44371 0.78887 0.18247 0.0
O56 O 0.78689 0.39744 0.51305 0.0
Cd57 Cd 0.70746 0.3584 0.5066 0.0
Cd58 Cd 0.72834 0.45626 0.49417 0.0
O59 O 0.79775 0.47711 0.5181 0.0
O60 O 0.67849 0.29608 0.53478 0.0
O61 O 0.66827 0.36511 0.54144 0.0
C62 C 0.6632 0.32181 0.55179 0.0
C63 C 0.66195 0.47622 0.50528 0.0
C64 C 0.81582 0.44564 0.51998 0.0
C65 C 0.70371 0.38135 0.4421 0.0
O66 O 0.72642 0.42898 0.45107 0.0
O67 O 0.68445 0.34376 0.4613 0.0
O68 O 0.70615 0.51165 0.49376 0.0
O69 O 0.65702 0.43119 0.51167 0.0
O70 O 0.3889 0.78372 0.84747 0.0
Cd71 Cd 0.349 0.70413 0.84046 0.0
Cd72 Cd 0.27256 0.72626 0.8284 0.0
O73 O 0.32158 0.79745 0.85022 0.0
O74 O 0.38216 0.67541 0.86878 0.0
O75 O 0.30186 0.66289 0.87445 0.0
C76 C 0.3404 0.65878 0.88527 0.0
C77 C 0.18454 0.66494 0.83926 0.0
C78 C 0.37074 0.81411 0.85299 0.0
C79 C 0.32307 0.69969 0.77628 0.0
O80 O 0.29696 0.72083 0.78559 0.0
O81 O 0.3431 0.68187 0.79523 0.0
O82 O 0.19646 0.70705 0.824 0.0
O83 O 0.22245 0.65951 0.84976 0.0
H84 H 0.48083 0.10836 0.12862 0.0
H85 H 0.4668 0.87266 0.21966 0.0
H86 H 0.55129 0.14046 0.21754 0.0
H87 H 0.52893 0.9045 0.12876 0.0
H88 H 0.47584 0.9608 0.2213 0.0
H89 H 0.47333 0.02107 0.12998 0.0
C90 C 0.49362 0.09657 0.14868 0.0
C91 C 0.51653 0.13146 0.17306 0.0
C92 C 0.48784 0.94843 0.20117 0.0
C93 C 0.50772 0.03208 0.17476 0.0
C94 C 0.48289 0.89846 0.20023 0.0
C95 C 0.49774 0.8817 0.17415 0.0
C96 C 0.50574 0.98074 0.17544 0.0
C97 C 0.51778 0.91628 0.14943 0.0
C98 C 0.48987 0.04717 0.14927 0.0
C99 C 0.53333 0.11458 0.19832 0.0
N100 N 0.52036 0.96388 0.15047 0.0
N101 N 0.52821 0.06581 0.19866 0.0
H102 H 0.45281 0.60452 0.5193 0.0
H103 H 0.56027 0.40275 0.5183 0.0
H104 H 0.35285 0.4385 0.5016 0.0
H105 H 0.65984 0.56886 0.50081 0.0
H106 H 0.4842 0.41537 0.52109 0.0
H107 H 0.52886 0.59181 0.52147 0.0
C108 C 0.44669 0.56522 0.51615 0.0
C109 C 0.39623 0.52246 0.51017 0.0
C110 C 0.52271 0.44907 0.51677 0.0
C111 C 0.48348 0.5078 0.51274 0.0
C112 C 0.5663 0.44204 0.51532 0.0
C113 C 0.61665 0.48486 0.50923 0.0
C114 C 0.52939 0.49942 0.51252 0.0
C115 C 0.62181 0.53475 0.50547 0.0
C116 C 0.49027 0.55814 0.51724 0.0
C117 C 0.39095 0.47257 0.50619 0.0
N118 N 0.57873 0.54068 0.50723 0.0
N119 N 0.43404 0.46659 0.50759 0.0
H120 H 0.87348 0.40819 0.88831 0.0
H121 H 0.10606 0.63304 0.79744 0.0
H122 H 0.90643 0.3786 0.7975 0.0
H123 H 0.13965 0.59596 0.88629 0.0
H124 H 0.01986 0.55179 0.79873 0.0
H125 H 0.96076 0.4884 0.88999 0.0
C126 C 0.89941 0.41825 0.86893 0.0
C127 C 0.88322 0.38657 0.84286 0.0
C128 C 0.04604 0.56197 0.81802 0.0
C129 C 0.98116 0.47886 0.84415 0.0
C130 C 0.09477 0.60844 0.81747 0.0
C131 C 0.12975 0.62118 0.84186 0.0
C132 C 0.03174 0.52898 0.84347 0.0
C133 C 0.11363 0.58746 0.86708 0.0
C134 C 0.94886 0.4639 0.86988 0.0
C135 C 0.91787 0.40159 0.81817 0.0
N136 N 0.06549 0.54297 0.86738 0.0
N137 N 0.96493 0.44725 0.8192 0.0
H138 H 0.11582 0.46076 0.52805 0.0
H139 H 0.8974 0.54778 0.52687 0.0
H140 H 0.15171 0.62253 0.53113 0.0
H141 H 0.86151 0.38607 0.53101 0.0
H142 H 0.9908 0.57622 0.53351 0.0
H143 H 0.02238 0.43244 0.53425 0.0
C144 C 0.10421 0.49029 0.53044 0.0
C145 C 0.14167 0.54405 0.52867 0.0
C146 C 0.96234 0.53449 0.53329 0.0
C147 C 0.03487 0.51207 0.53547 0.0
C148 C 0.90899 0.5183 0.52957 0.0
C149 C 0.87155 0.4645 0.52798 0.0
C150 C 0.9783 0.49661 0.53531 0.0
C151 C 0.88895 0.42802 0.53168 0.0
C152 C 0.05084 0.47416 0.53389 0.0
C153 C 0.12425 0.5806 0.53195 0.0
N154 N 0.94097 0.44471 0.53485 0.0
N155 N 0.07221 0.56396 0.53486 0.0
H156 H 0.35279 0.89756 0.8582 0.0
H157 H 0.65975 0.11088 0.85843 0.0
H158 H 0.47572 0.85791 0.86439 0.0
H159 H 0.53681 0.15067 0.86327 0.0
H160 H 0.59302 0.01789 0.86462 0.0
H161 H 0.41946 0.99067 0.8641 0.0
C162 C 0.39359 0.90829 0.86118 0.0
C163 C 0.40864 0.86985 0.86041 0.0
C164 C 0.58078 0.04711 0.86463 0.0
C165 C 0.48519 0.97622 0.86687 0.0
C166 C 0.61893 0.10021 0.86115 0.0
C167 C 0.60392 0.13866 0.85995 0.0
C168 C 0.52729 0.03241 0.86676 0.0
C169 C 0.55031 0.12244 0.86368 0.0
C170 C 0.4317 0.96146 0.86448 0.0
C171 C 0.46221 0.88614 0.86444 0.0
N172 N 0.514 0.07064 0.86659 0.0
N173 N 0.49849 0.93799 0.86717 0.0
H174 H 0.55338 0.66048 0.18784 0.0
H175 H 0.46401 0.35419 0.18885 0.0
H176 H 0.39156 0.53567 0.19471 0.0
H177 H 0.62614 0.47911 0.19309 0.0
H178 H 0.43651 0.42005 0.19435 0.0
H179 H 0.5812 0.59481 0.19313 0.0
C180 C 0.52377 0.61948 0.1908 0.0
C181 C 0.47008 0.60364 0.19049 0.0
C182 C 0.47811 0.43293 0.19436 0.0
C183 C 0.50147 0.52821 0.19627 0.0
C184 C 0.49378 0.39527 0.19127 0.0
C185 C 0.54743 0.41105 0.19018 0.0
C186 C 0.51637 0.48671 0.1962 0.0
C187 C 0.58429 0.46498 0.19348 0.0
C188 C 0.53961 0.58193 0.19376 0.0
C189 C 0.43342 0.54982 0.19447 0.0
N190 N 0.5681 0.50079 0.19605 0.0
N191 N 0.44975 0.51412 0.1969 0.0
H192 H 0.59242 0.34819 0.91731 0.0
H193 H 0.73099 0.37308 0.07799 0.0
H194 H 0.75325 0.38296 0.92548 0.0
H195 H 0.56361 0.3033 0.06373 0.0
H196 H 0.74461 0.39149 0.02328 0.0
H197 H 0.58702 0.35017 0.97244 0.0
C198 C 0.62701 0.35746 0.93064 0.0
C199 C 0.6731 0.36473 0.91673 0.0
C200 C 0.705 0.37228 0.03231 0.0
C201 C 0.66686 0.36591 0.97998 0.0
C202 C 0.69721 0.36157 0.06345 0.0
C203 C 0.64608 0.33615 0.07551 0.0
C204 C 0.6614 0.35807 0.0133 0.0
C205 C 0.60376 0.32249 0.05559 0.0
C206 C 0.62376 0.35806 0.96217 0.0
C207 C 0.71671 0.37664 0.93526 0.0
N208 N 0.6124 0.33366 0.02563 0.0
N209 N 0.71233 0.37616 0.96596 0.0
H210 H 0.37377 0.7501 0.25982 0.0
H211 H 0.2572 0.55239 0.39886 0.0
H212 H 0.25017 0.58793 0.25203 0.0
H213 H 0.35885 0.71978 0.41142 0.0
H214 H 0.2535 0.56664 0.34504 0.0
H215 H 0.36595 0.74258 0.31503 0.0
C216 C 0.34413 0.71324 0.26966 0.0
C217 C 0.31291 0.66935 0.25122 0.0
C218 C 0.27652 0.60042 0.35946 0.0
C219 C 0.3046 0.66031 0.31441 0.0
C220 C 0.27904 0.59231 0.39032 0.0
C221 C 0.30876 0.63496 0.40984 0.0
C222 C 0.30432 0.65158 0.34761 0.0
C223 C 0.33567 0.68572 0.39724 0.0
C224 C 0.33995 0.70895 0.30122 0.0
C225 C 0.27525 0.62271 0.26528 0.0
N226 N 0.33311 0.69262 0.36684 0.0
N227 N 0.27271 0.61922 0.296 0.0
H228 H 0.71746 0.26154 0.73207 0.0
H229 H 0.62628 0.36649 0.59221 0.0
H230 H 0.64125 0.35372 0.74402 0.0
H231 H 0.67187 0.24799 0.58534 0.0
H232 H 0.62618 0.35955 0.64745 0.0
H233 H 0.6991 0.25598 0.67825 0.0
C234 C 0.69701 0.28095 0.7234 0.0
C235 C 0.6812 0.30852 0.74276 0.0
C236 C 0.63526 0.3344 0.63385 0.0
C237 C 0.65963 0.30185 0.68052 0.0
C238 C 0.63506 0.33808 0.60228 0.0
C239 C 0.64966 0.30813 0.58409 0.0
C240 C 0.65069 0.30092 0.64731 0.0
C241 C 0.66056 0.27199 0.5984 0.0
C242 C 0.68612 0.27731 0.69253 0.0
C243 C 0.65442 0.33232 0.72997 0.0
N244 N 0.66166 0.27002 0.62915 0.0
N245 N 0.64476 0.32874 0.69957 0.0
H246 H 0.42076 0.66134 0.91816 0.0
H247 H 0.28361 0.63849 0.07896 0.0
H248 H 0.26008 0.62699 0.92635 0.0
H249 H 0.45097 0.70957 0.06423 0.0
H250 H 0.26947 0.61926 0.02433 0.0
H251 H 0.4266 0.66032 0.97329 0.0
C252 C 0.38629 0.65237 0.93149 0.0
C253 C 0.34012 0.64493 0.91758 0.0
C254 C 0.30919 0.63894 0.03324 0.0
C255 C 0.34687 0.64483 0.98084 0.0
C256 C 0.31727 0.65012 0.06434 0.0
C257 C 0.36855 0.67614 0.07624 0.0
C258 C 0.35265 0.65326 0.01412 0.0
C259 C 0.41071 0.68993 0.05621 0.0
C260 C 0.3898 0.65231 0.96303 0.0
C261 C 0.29668 0.63342 0.93613 0.0
N262 N 0.40179 0.67827 0.02631 0.0
N263 N 0.30131 0.63441 0.96684 0.0
H264 H 0.65218 0.28642 0.41139 0.0
H265 H 0.76858 0.42305 0.25073 0.0
H266 H 0.75665 0.45301 0.39769 0.0
H267 H 0.63992 0.26339 0.25921 0.0
H268 H 0.77621 0.42887 0.30584 0.0
H269 H 0.65613 0.27251 0.35669 0.0
C270 C 0.67584 0.31998 0.39697 0.0
C271 C 0.70369 0.37099 0.40918 0.0
C272 C 0.7467 0.39229 0.29565 0.0
C273 C 0.70916 0.35529 0.3469 0.0
C274 C 0.74267 0.3888 0.26412 0.0
C275 C 0.70316 0.34291 0.2503 0.0
C276 C 0.71093 0.34964 0.31354 0.0
C277 C 0.67071 0.29974 0.26891 0.0
C278 C 0.67823 0.31201 0.36581 0.0
C279 C 0.73402 0.413 0.3894 0.0
N280 N 0.67486 0.30436 0.29961 0.0
N281 N 0.73592 0.40419 0.35938 0.0
H282 H 0.29882 0.74944 0.73256 0.0
H283 H 0.38639 0.64088 0.59281 0.0
H284 H 0.37105 0.65357 0.74453 0.0
H285 H 0.34301 0.761 0.5858 0.0
H286 H 0.38691 0.64821 0.64803 0.0
H287 H 0.31737 0.75485 0.6788 0.0
C288 C 0.31844 0.72919 0.7239 0.0
C289 C 0.33301 0.70058 0.74325 0.0
C290 C 0.37822 0.67362 0.6344 0.0
C291 C 0.35479 0.70706 0.68105 0.0
C292 C 0.37818 0.66972 0.60284 0.0
C293 C 0.36405 0.70002 0.58461 0.0
C294 C 0.36354 0.7077 0.64784 0.0
C295 C 0.35391 0.73671 0.59889 0.0
C296 C 0.32943 0.73273 0.69307 0.0
C297 C 0.35883 0.67578 0.73048 0.0
N298 N 0.35305 0.73891 0.62964 0.0
N299 N 0.36858 0.67927 0.70009 0.0
loop_
_geom_bond_atom_site_label_1
_geom_bond_atom_site_label_2
_geom_bond_distance
_geom_bond_site_symmetry_2
_ccdc_geom_bond_type
O0 Cd1 2.223 . S
O0 C8 1.315 . S
Cd1 O0 2.223 . S
Cd1 O4 2.297 . S
Cd1 O5 2.439 . S
Cd1 O11 2.240 . S
Cd2 O3 2.240 . S
Cd2 O10 2.223 . S
Cd2 O12 2.297 . S
Cd2 O13 2.439 . S
O3 Cd2 2.240 . S
O3 C8 1.279 . S
O4 Cd1 2.297 . S
O4 C6 1.247 . S
O5 Cd1 2.439 . S
O5 C6 1.208 . S
C6 O4 1.247 . S
C6 O5 1.208 . S
C7 O12 1.247 . S
C7 O13 1.208 . S
C8 O0 1.315 . S
C8 O3 1.279 . S
C9 O10 1.315 . S
C9 O11 1.279 . S
O10 Cd2 2.223 . S
O10 C9 1.315 . S
O11 Cd1 2.240 . S
O11 C9 1.279 . S
O12 Cd2 2.297 . S
O12 C7 1.247 . S
O13 Cd2 2.439 . S
O13 C7 1.208 . S
O14 Cd15 2.223 . S
O14 C22 1.315 . S
Cd15 O14 2.223 . S
Cd15 O18 2.297 . S
Cd15 O19 2.439 . S
Cd15 O25 2.240 . S
Cd16 O17 2.240 . S
Cd16 O24 2.223 . S
Cd16 O26 2.297 . S
Cd16 O27 2.439 . S
O17 Cd16 2.240 . S
O17 C22 1.279 . S
O18 Cd15 2.297 . S
O18 C20 1.247 . S
O19 Cd15 2.439 . S
O19 C20 1.208 . S
C20 O18 1.247 . S
C20 O19 1.208 . S
C21 O26 1.247 . S
C21 O27 1.208 . S
C22 O14 1.315 . S
C22 O17 1.279 . S
C23 O24 1.315 . S
C23 O25 1.279 . S
O24 Cd16 2.223 . S
O24 C23 1.315 . S
O25 Cd15 2.240 . S
O25 C23 1.279 . S
O26 Cd16 2.297 . S
O26 C21 1.247 . S
O27 Cd16 2.439 . S
O27 C21 1.208 . S
O28 Cd29 2.223 . S
O28 C36 1.315 . S
Cd29 O28 2.223 . S
Cd29 O32 2.297 . S
Cd29 O33 2.439 . S
Cd29 O39 2.240 . S
Cd30 O31 2.240 . S
Cd30 O38 2.223 . S
Cd30 O40 2.297 . S
Cd30 O41 2.439 . S
O31 Cd30 2.240 . S
O31 C36 1.279 . S
O32 Cd29 2.297 . S
O32 C34 1.247 . S
O33 Cd29 2.439 . S
O33 C34 1.208 . S
C34 O32 1.247 . S
C34 O33 1.208 . S
C35 O40 1.247 . S
C35 O41 1.208 . S
C36 O28 1.315 . S
C36 O31 1.279 . S
C37 O38 1.315 . S
C37 O39 1.279 . S
O38 Cd30 2.223 . S
O38 C37 1.315 . S
O39 Cd29 2.240 . S
O39 C37 1.279 . S
O40 Cd30 2.297 . S
O40 C35 1.247 . S
O41 Cd30 2.439 . S
O41 C35 1.208 . S
O42 Cd43 2.223 . S
O42 C50 1.315 . S
Cd43 O42 2.223 . S
Cd43 O46 2.297 . S
Cd43 O47 2.439 . S
Cd43 O53 2.240 . S
Cd44 O45 2.240 . S
Cd44 O52 2.223 . S
Cd44 O54 2.297 . S
Cd44 O55 2.439 . S
O45 Cd44 2.240 . S
O45 C50 1.279 . S
O46 Cd43 2.297 . S
O46 C48 1.247 . S
O47 Cd43 2.439 . S
O47 C48 1.208 . S
C48 O46 1.247 . S
C48 O47 1.208 . S
C49 O54 1.247 . S
C49 O55 1.208 . S
C50 O42 1.315 . S
C50 O45 1.279 . S
C51 O52 1.315 . S
C51 O53 1.279 . S
O52 Cd44 2.223 . S
O52 C51 1.315 . S
O53 Cd43 2.240 . S
O53 C51 1.279 . S
O54 Cd44 2.297 . S
O54 C49 1.247 . S
O55 Cd44 2.439 . S
O55 C49 1.208 . S
O56 Cd57 2.223 . S
O56 C64 1.315 . S
Cd57 O56 2.223 . S
Cd57 O60 2.297 . S
Cd57 O61 2.439 . S
Cd57 O67 2.240 . S
Cd58 O59 2.240 . S
Cd58 O66 2.223 . S
Cd58 O68 2.297 . S
Cd58 O69 2.439 . S
O59 Cd58 2.240 . S
O59 C64 1.279 . S
O60 Cd57 2.297 . S
O60 C62 1.247 . S
O61 Cd57 2.439 . S
O61 C62 1.208 . S
C62 O60 1.247 . S
C62 O61 1.208 . S
C63 O68 1.247 . S
C63 O69 1.208 . S
C64 O56 1.315 . S
C64 O59 1.279 . S
C65 O66 1.315 . S
C65 O67 1.279 . S
O66 Cd58 2.223 . S
O66 C65 1.315 . S
O67 Cd57 2.240 . S
O67 C65 1.279 . S
O68 Cd58 2.297 . S
O68 C63 1.247 . S
O69 Cd58 2.439 . S
O69 C63 1.208 . S
O70 Cd71 2.223 . S
O70 C78 1.315 . S
Cd71 O70 2.223 . S
Cd71 O74 2.297 . S
Cd71 O75 2.439 . S
Cd71 O81 2.240 . S
Cd72 O73 2.240 . S
Cd72 O80 2.223 . S
Cd72 O82 2.297 . S
Cd72 O83 2.439 . S
O73 Cd72 2.240 . S
O73 C78 1.279 . S
O74 Cd71 2.297 . S
O74 C76 1.247 . S
O75 Cd71 2.439 . S
O75 C76 1.208 . S
C76 O74 1.247 . S
C76 O75 1.208 . S
C77 O82 1.247 . S
C77 O83 1.208 . S
C78 O70 1.315 . S
C78 O73 1.279 . S
C79 O80 1.315 . S
C79 O81 1.279 . S
O80 Cd72 2.223 . S
O80 C79 1.315 . S
O81 Cd71 2.240 . S
O81 C79 1.279 . S
O82 Cd72 2.297 . S
O82 C77 1.247 . S
O83 Cd72 2.439 . S
O83 C77 1.208 . S
H84 C90 0.930 . S
H85 C94 0.930 . S
H86 C99 0.929 . S
H87 C97 0.929 . S
H88 C92 0.929 . S
H89 C98 0.929 . S
C90 H84 0.930 . S
C90 C91 1.367 . S
C90 C98 1.378 . S
C91 C90 1.367 . S
C91 C99 1.433 . S
C92 H88 0.929 . S
C92 C94 1.378 . S
C92 C96 1.350 . S
C93 C96 1.463 1_545 S
C93 C98 1.350 . S
C93 N101 1.427 . S
C94 H85 0.930 . S
C94 C92 1.378 . S
C94 C95 1.367 . S
C95 C94 1.367 . S
C95 C97 1.433 . S
C96 C92 1.350 . S
C96 C93 1.463 1_565 S
C96 N100 1.427 . S
C97 H87 0.929 . S
C97 C95 1.433 . S
C97 N100 1.384 . S
C98 H89 0.929 . S
C98 C90 1.378 . S
C98 C93 1.350 . S
C99 H86 0.929 . S
C99 C91 1.433 . S
C99 N101 1.384 . S
N100 C96 1.427 . S
N100 C97 1.384 . S
N101 C93 1.427 . S
N101 C99 1.384 . S
H102 C108 0.930 . S
H103 C112 0.930 . S
H104 C117 0.929 . S
H105 C115 0.929 . S
H106 C110 0.929 . S
H107 C116 0.929 . S
C108 H102 0.930 . S
C108 C109 1.367 . S
C108 C116 1.378 . S
C109 C108 1.367 . S
C109 C117 1.433 . S
C110 H106 0.929 . S
C110 C112 1.378 . S
C110 C114 1.350 . S
C111 C114 1.463 . S
C111 C116 1.350 . S
C111 N119 1.427 . S
C112 H103 0.930 . S
C112 C110 1.378 . S
C112 C113 1.367 . S
C113 C112 1.367 . S
C113 C115 1.433 . S
C114 C110 1.350 . S
C114 C111 1.463 . S
C114 N118 1.427 . S
C115 H105 0.929 . S
C115 C113 1.433 . S
C115 N118 1.384 . S
C116 H107 0.929 . S
C116 C108 1.378 . S
C116 C111 1.350 . S
C117 H104 0.929 . S
C117 C109 1.433 . S
C117 N119 1.384 . S
N118 C114 1.427 . S
N118 C115 1.384 . S
N119 C111 1.427 . S
N119 C117 1.384 . S
H120 C126 0.930 . S
H121 C130 0.930 . S
H122 C135 0.929 . S
H123 C133 0.929 . S
H124 C128 0.929 . S
H125 C134 0.929 . S
C126 H120 0.930 . S
C126 C127 1.367 . S
C126 C134 1.378 . S
C127 C126 1.367 . S
C127 C135 1.433 . S
C128 H124 0.929 . S
C128 C130 1.378 . S
C128 C132 1.350 . S
C129 C132 1.463 1_655 S
C129 C134 1.350 . S
C129 N137 1.427 . S
C130 H121 0.930 . S
C130 C128 1.378 . S
C130 C131 1.367 . S
C131 C130 1.367 . S
C131 C133 1.433 . S
C132 C128 1.350 . S
C132 C129 1.463 1_455 S
C132 N136 1.427 . S
C133 H123 0.929 . S
C133 C131 1.433 . S
C133 N136 1.384 . S
C134 H125 0.929 . S
C134 C126 1.378 . S
C134 C129 1.350 . S
C135 H122 0.929 . S
C135 C127 1.433 . S
C135 N137 1.384 . S
N136 C132 1.427 . S
N136 C133 1.384 . S
N137 C129 1.427 . S
N137 C135 1.384 . S
H138 C144 0.930 . S
H139 C148 0.930 . S
H140 C153 0.929 . S
H141 C151 0.929 . S
H142 C146 0.929 . S
H143 C152 0.929 . S
C144 H138 0.930 . S
C144 C145 1.367 . S
C144 C152 1.378 . S
C145 C144 1.367 . S
C145 C153 1.433 . S
C146 H142 0.929 . S
C146 C148 1.378 . S
C146 C150 1.350 . S
C147 C150 1.463 1_455 S
C147 C152 1.350 . S
C147 N155 1.427 . S
C148 H139 0.930 . S
C148 C146 1.378 . S
C148 C149 1.367 . S
C149 C148 1.367 . S
C149 C151 1.433 . S
C150 C146 1.350 . S
C150 C147 1.463 1_655 S
C150 N154 1.427 . S
C151 H141 0.929 . S
C151 C149 1.433 . S
C151 N154 1.384 . S
C152 H143 0.929 . S
C152 C144 1.378 . S
C152 C147 1.350 . S
C153 H140 0.929 . S
C153 C145 1.433 . S
C153 N155 1.384 . S
N154 C150 1.427 . S
N154 C151 1.384 . S
N155 C147 1.427 . S
N155 C153 1.384 . S
H156 C162 0.930 . S
H157 C166 0.930 . S
H158 C171 0.929 . S
H159 C169 0.929 . S
H160 C164 0.929 . S
H161 C170 0.929 . S
C162 H156 0.930 . S
C162 C163 1.367 . S
C162 C170 1.378 . S
C163 C162 1.367 . S
C163 C171 1.433 . S
C164 H160 0.929 . S
C164 C166 1.378 . S
C164 C168 1.350 . S
C165 C168 1.463 1_565 S
C165 C170 1.350 . S
C165 N173 1.427 . S
C166 H157 0.930 . S
C166 C164 1.378 . S
C166 C167 1.367 . S
C167 C166 1.367 . S
C167 C169 1.433 . S
C168 C164 1.350 . S
C168 C165 1.463 1_545 S
C168 N172 1.427 . S
C169 H159 0.929 . S
C169 C167 1.433 . S
C169 N172 1.384 . S
C170 H161 0.929 . S
C170 C162 1.378 . S
C170 C165 1.350 . S
C171 H158 0.929 . S
C171 C163 1.433 . S
C171 N173 1.384 . S
N172 C168 1.427 . S
N172 C169 1.384 . S
N173 C165 1.427 . S
N173 C171 1.384 . S
H174 C180 0.930 . S
H175 C184 0.930 . S
H176 C189 0.929 . S
H177 C187 0.929 . S
H178 C182 0.929 . S
H179 C188 0.929 . S
C180 H174 0.930 . S
C180 C181 1.367 . S
C180 C188 1.378 . S
C181 C180 1.367 . S
C181 C189 1.433 . S
C182 H178 0.929 . S
C182 C184 1.378 . S
C182 C186 1.350 . S
C183 C186 1.463 . S
C183 C188 1.350 . S
C183 N191 1.427 . S
C184 H175 0.930 . S
C184 C182 1.378 . S
C184 C185 1.367 . S
C185 C184 1.367 . S
C185 C187 1.433 . S
C186 C182 1.350 . S
C186 C183 1.463 . S
C186 N190 1.427 . S
C187 H177 0.929 . S
C187 C185 1.433 . S
C187 N190 1.384 . S
C188 H179 0.929 . S
C188 C180 1.378 . S
C188 C183 1.350 . S
C189 H176 0.929 . S
C189 C181 1.433 . S
C189 N191 1.384 . S
N190 C186 1.427 . S
N190 C187 1.384 . S
N191 C183 1.427 . S
N191 C189 1.384 . S
H192 C198 0.930 . S
H193 C202 0.930 . S
H194 C207 0.929 . S
H195 C205 0.929 . S
H196 C200 0.929 . S
H197 C206 0.929 . S
C198 H192 0.930 . S
C198 C199 1.367 . S
C198 C206 1.378 . S
C199 C198 1.367 . S
C199 C207 1.433 . S
C200 H196 0.929 . S
C200 C202 1.378 . S
C200 C204 1.350 . S
C201 C204 1.463 1_556 S
C201 C206 1.350 . S
C201 N209 1.427 . S
C202 H193 0.930 . S
C202 C200 1.378 . S
C202 C203 1.367 . S
C203 C202 1.367 . S
C203 C205 1.433 . S
C204 C200 1.350 . S
C204 C201 1.463 1_554 S
C204 N208 1.427 . S
C205 H195 0.929 . S
C205 C203 1.433 . S
C205 N208 1.384 . S
C206 H197 0.929 . S
C206 C198 1.378 . S
C206 C201 1.350 . S
C207 H194 0.929 . S
C207 C199 1.433 . S
C207 N209 1.384 . S
N208 C204 1.427 . S
N208 C205 1.384 . S
N209 C201 1.427 . S
N209 C207 1.384 . S
H210 C216 0.930 . S
H211 C220 0.930 . S
H212 C225 0.929 . S
H213 C223 0.929 . S
H214 C218 0.929 . S
H215 C224 0.929 . S
C216 H210 0.930 . S
C216 C217 1.367 . S
C216 C224 1.378 . S
C217 C216 1.367 . S
C217 C225 1.433 . S
C218 H214 0.929 . S
C218 C220 1.378 . S
C218 C222 1.350 . S
C219 C222 1.463 . S
C219 C224 1.350 . S
C219 N227 1.427 . S
C220 H211 0.930 . S
C220 C218 1.378 . S
C220 C221 1.367 . S
C221 C220 1.367 . S
C221 C223 1.433 . S
C222 C218 1.350 . S
C222 C219 1.463 . S
C222 N226 1.427 . S
C223 H213 0.929 . S
C223 C221 1.433 . S
C223 N226 1.384 . S
C224 H215 0.929 . S
C224 C216 1.378 . S
C224 C219 1.350 . S
C225 H212 0.929 . S
C225 C217 1.433 . S
C225 N227 1.384 . S
N226 C222 1.427 . S
N226 C223 1.384 . S
N227 C219 1.427 . S
N227 C225 1.384 . S
H228 C234 0.930 . S
H229 C238 0.930 . S
H230 C243 0.929 . S
H231 C241 0.929 . S
H232 C236 0.929 . S
H233 C242 0.929 . S
C234 H228 0.930 . S
C234 C235 1.367 . S
C234 C242 1.378 . S
C235 C234 1.367 . S
C235 C243 1.433 . S
C236 H232 0.929 . S
C236 C238 1.378 . S
C236 C240 1.350 . S
C237 C240 1.463 . S
C237 C242 1.350 . S
C237 N245 1.427 . S
C238 H229 0.930 . S
C238 C236 1.378 . S
C238 C239 1.367 . S
C239 C238 1.367 . S
C239 C241 1.433 . S
C240 C236 1.350 . S
C240 C237 1.463 . S
C240 N244 1.427 . S
C241 H231 0.929 . S
C241 C239 1.433 . S
C241 N244 1.384 . S
C242 H233 0.929 . S
C242 C234 1.378 . S
C242 C237 1.350 . S
C243 H230 0.929 . S
C243 C235 1.433 . S
C243 N245 1.384 . S
N244 C240 1.427 . S
N244 C241 1.384 . S
N245 C237 1.427 . S
N245 C243 1.384 . S
H246 C252 0.930 . S
H247 C256 0.930 . S
H248 C261 0.929 . S
H249 C259 0.929 . S
H250 C254 0.929 . S
H251 C260 0.929 . S
C252 H246 0.930 . S
C252 C253 1.367 . S
C252 C260 1.378 . S
C253 C252 1.367 . S
C253 C261 1.433 . S
C254 H250 0.929 . S
C254 C256 1.378 . S
C254 C258 1.350 . S
C255 C258 1.463 1_556 S
C255 C260 1.350 . S
C255 N263 1.427 . S
C256 H247 0.930 . S
C256 C254 1.378 . S
C256 C257 1.367 . S
C257 C256 1.367 . S
C257 C259 1.433 . S
C258 C254 1.350 . S
C258 C255 1.463 1_554 S
C258 N262 1.427 . S
C259 H249 0.929 . S
C259 C257 1.433 . S
C259 N262 1.384 . S
C260 H251 0.929 . S
C260 C252 1.378 . S
C260 C255 1.350 . S
C261 H248 0.929 . S
C261 C253 1.433 . S
C261 N263 1.384 . S
N262 C258 1.427 . S
N262 C259 1.384 . S
N263 C255 1.427 . S
N263 C261 1.384 . S
H264 C270 0.930 . S
H265 C274 0.930 . S
H266 C279 0.929 . S
H267 C277 0.929 . S
H268 C272 0.929 . S
H269 C278 0.929 . S
C270 H264 0.930 . S
C270 C271 1.367 . S
C270 C278 1.378 . S
C271 C270 1.367 . S
C271 C279 1.433 . S
C272 H268 0.929 . S
C272 C274 1.378 . S
C272 C276 1.350 . S
C273 C276 1.463 . S
C273 C278 1.350 . S
C273 N281 1.427 . S
C274 H265 0.930 . S
C274 C272 1.378 . S
C274 C275 1.367 . S
C275 C274 1.367 . S
C275 C277 1.433 . S
C276 C272 1.350 . S
C276 C273 1.463 . S
C276 N280 1.427 . S
C277 H267 0.929 . S
C277 C275 1.433 . S
C277 N280 1.384 . S
C278 H269 0.929 . S
C278 C270 1.378 . S
C278 C273 1.350 . S
C279 H266 0.929 . S
C279 C271 1.433 . S
C279 N281 1.384 . S
N280 C276 1.427 . S
N280 C277 1.384 . S
N281 C273 1.427 . S
N281 C279 1.384 . S
H282 C288 0.930 . S
H283 C292 0.930 . S
H284 C297 0.929 . S
H285 C295 0.929 . S
H286 C290 0.929 . S
H287 C296 0.929 . S
C288 H282 0.930 . S
C288 C289 1.367 . S
C288 C296 1.378 . S
C289 C288 1.367 . S
C289 C297 1.433 . S
C290 H286 0.929 . S
C290 C292 1.378 . S
C290 C294 1.350 . S
C291 C294 1.463 . S
C291 C296 1.350 . S
C291 N299 1.427 . S
C292 H283 0.930 . S
C292 C290 1.378 . S
C292 C293 1.367 . S
C293 C292 1.367 . S
C293 C295 1.433 . S
C294 C290 1.350 . S
C294 C291 1.463 . S
C294 N298 1.427 . S
C295 H285 0.929 . S
C295 C293 1.433 . S
C295 N298 1.384 . S
C296 H287 0.929 . S
C296 C288 1.378 . S
C296 C291 1.350 . S
C297 H284 0.929 . S
C297 C289 1.433 . S
C297 N299 1.384 . S
N298 C294 1.427 . S
N298 C295 1.384 . S
N299 C291 1.427 . S
N299 C297 1.384 . S
C91 C7 1.191 . S
C95 C49 1.195 . S
C109 C21 1.197 . S
C113 C63 1.194 . S
C127 C35 1.193 . S
C131 C77 1.188 . S
C145 C22 1.762 . S
C149 C64 1.768 . S
C163 C78 1.768 . S
C167 C36 1.762 . S
C181 C50 1.768 . S
C185 C8 1.769 . S
C199 C34 1.372 . S
C203 C9 1.278 . S
C217 C48 1.371 . S
C221 C23 1.269 . S
C235 C37 1.274 . S
C239 C62 1.372 . S
C253 C76 1.372 . S
C257 C51 1.277 . S
C271 C65 1.285 . S
C275 C6 1.372 . S
C289 C79 1.282 . S
C293 C20 1.372 . S
