# Generated by pormake.
# Topology umu, (4)-cn, num edge types: 1
# Building blocks:
#     Node 0, Type 0, BuildingBlock: QUQFOY_clean_sbu_3, # of connection points: 4
#     Node 1, Type 0, BuildingBlock: QUQFOY_clean_sbu_3, # of connection points: 4
#     Node 2, Type 0, BuildingBlock: QUQFOY_clean_sbu_3, # of connection points: 4
#     Node 3, Type 0, BuildingBlock: QUQFOY_clean_sbu_3, # of connection points: 4
#     Node 4, Type 0, BuildingBlock: QUQFOY_clean_sbu_3, # of connection points: 4
#     Node 5, Type 0, BuildingBlock: QUQFOY_clean_sbu_3, # of connection points: 4
#     Node 6, Type 0, BuildingBlock: QUQFOY_clean_sbu_3, # of connection points: 4
#     Node 7, Type 0, BuildingBlock: QUQFOY_clean_sbu_3, # of connection points: 4
#     Node 8, Type 0, BuildingBlock: QUQFOY_clean_sbu_3, # of connection points: 4
#     Node 9, Type 0, BuildingBlock: QUQFOY_clean_sbu_3, # of connection points: 4
#     Node 10, Type 0, BuildingBlock: QUQFOY_clean_sbu_3, # of connection points: 4
#     Node 11, Type 0, BuildingBlock: QUQFOY_clean_sbu_3, # of connection points: 4
#     Node 12, Type 0, BuildingBlock: QUQFOY_clean_sbu_3, # of connection points: 4
#     Node 13, Type 0, BuildingBlock: QUQFOY_clean_sbu_3, # of connection points: 4
#     Node 14, Type 0, BuildingBlock: QUQFOY_clean_sbu_3, # of connection points: 4
#     Node 15, Type 0, BuildingBlock: QUQFOY_clean_sbu_3, # of connection points: 4
#     Node 16, Type 0, BuildingBlock: QUQFOY_clean_sbu_3, # of connection points: 4
#     Node 17, Type 0, BuildingBlock: QUQFOY_clean_sbu_3, # of connection points: 4
#     Node 18, Type 0, BuildingBlock: QUQFOY_clean_sbu_3, # of connection points: 4
#     Node 19, Type 0, BuildingBlock: QUQFOY_clean_sbu_3, # of connection points: 4
#     Node 20, Type 0, BuildingBlock: QUQFOY_clean_sbu_3, # of connection points: 4
#     Node 21, Type 0, BuildingBlock: QUQFOY_clean_sbu_3, # of connection points: 4
#     Node 22, Type 0, BuildingBlock: QUQFOY_clean_sbu_3, # of connection points: 4
#     Node 23, Type 0, BuildingBlock: QUQFOY_clean_sbu_3, # of connection points: 4
#     Node 24, Type 0, BuildingBlock: QUQFOY_clean_sbu_3, # of connection points: 4
#     Node 25, Type 0, BuildingBlock: QUQFOY_clean_sbu_3, # of connection points: 4
#     Node 26, Type 0, BuildingBlock: QUQFOY_clean_sbu_3, # of connection points: 4
#     Node 27, Type 0, BuildingBlock: QUQFOY_clean_sbu_3, # of connection points: 4
#     Node 28, Type 0, BuildingBlock: QUQFOY_clean_sbu_3, # of connection points: 4
#     Node 29, Type 0, BuildingBlock: QUQFOY_clean_sbu_3, # of connection points: 4
#     Node 30, Type 0, BuildingBlock: QUQFOY_clean_sbu_3, # of connection points: 4
#     Node 31, Type 0, BuildingBlock: QUQFOY_clean_sbu_3, # of connection points: 4
#     Edge 32, Type (0, 0), BuildingBlock: AJUNOK_clean_linker_0, # of connection points: 2
#     Edge 33, Type (0, 0), BuildingBlock: AJUNOK_clean_linker_0, # of connection points: 2
#     Edge 34, Type (0, 0), BuildingBlock: AJUNOK_clean_linker_0, # of connection points: 2
#     Edge 35, Type (0, 0), BuildingBlock: AJUNOK_clean_linker_0, # of connection points: 2
#     Edge 36, Type (0, 0), BuildingBlock: AJUNOK_clean_linker_0, # of connection points: 2
#     Edge 37, Type (0, 0), BuildingBlock: AJUNOK_clean_linker_0, # of connection points: 2
#     Edge 38, Type (0, 0), BuildingBlock: AJUNOK_clean_linker_0, # of connection points: 2
#     Edge 39, Type (0, 0), BuildingBlock: AJUNOK_clean_linker_0, # of connection points: 2
#     Edge 40, Type (0, 0), BuildingBlock: AJUNOK_clean_linker_0, # of connection points: 2
#     Edge 41, Type (0, 0), BuildingBlock: AJUNOK_clean_linker_0, # of connection points: 2
#     Edge 42, Type (0, 0), BuildingBlock: AJUNOK_clean_linker_0, # of connection points: 2
#     Edge 43, Type (0, 0), BuildingBlock: AJUNOK_clean_linker_0, # of connection points: 2
#     Edge 44, Type (0, 0), BuildingBlock: AJUNOK_clean_linker_0, # of connection points: 2
#     Edge 45, Type (0, 0), BuildingBlock: AJUNOK_clean_linker_0, # of connection points: 2
#     Edge 46, Type (0, 0), BuildingBlock: AJUNOK_clean_linker_0, # of connection points: 2
#     Edge 47, Type (0, 0), BuildingBlock: AJUNOK_clean_linker_0, # of connection points: 2
#     Edge 48, Type (0, 0), BuildingBlock: AJUNOK_clean_linker_0, # of connection points: 2
#     Edge 49, Type (0, 0), BuildingBlock: AJUNOK_clean_linker_0, # of connection points: 2
#     Edge 50, Type (0, 0), BuildingBlock: AJUNOK_clean_linker_0, # of connection points: 2
#     Edge 51, Type (0, 0), BuildingBlock: AJUNOK_clean_linker_0, # of connection points: 2
#     Edge 52, Type (0, 0), BuildingBlock: AJUNOK_clean_linker_0, # of connection points: 2
#     Edge 53, Type (0, 0), BuildingBlock: AJUNOK_clean_linker_0, # of connection points: 2
#     Edge 54, Type (0, 0), BuildingBlock: AJUNOK_clean_linker_0, # of connection points: 2
#     Edge 55, Type (0, 0), BuildingBlock: AJUNOK_clean_linker_0, # of connection points: 2
#     Edge 56, Type (0, 0), BuildingBlock: AJUNOK_clean_linker_0, # of connection points: 2
#     Edge 57, Type (0, 0), BuildingBlock: AJUNOK_clean_linker_0, # of connection points: 2
#     Edge 58, Type (0, 0), BuildingBlock: AJUNOK_clean_linker_0, # of connection points: 2
#     Edge 59, Type (0, 0), BuildingBlock: AJUNOK_clean_linker_0, # of connection points: 2
#     Edge 60, Type (0, 0), BuildingBlock: AJUNOK_clean_linker_0, # of connection points: 2
#     Edge 61, Type (0, 0), BuildingBlock: AJUNOK_clean_linker_0, # of connection points: 2
#     Edge 62, Type (0, 0), BuildingBlock: AJUNOK_clean_linker_0, # of connection points: 2
#     Edge 63, Type (0, 0), BuildingBlock: AJUNOK_clean_linker_0, # of connection points: 2
#     Edge 64, Type (0, 0), BuildingBlock: AJUNOK_clean_linker_0, # of connection points: 2
#     Edge 65, Type (0, 0), BuildingBlock: AJUNOK_clean_linker_0, # of connection points: 2
#     Edge 66, Type (0, 0), BuildingBlock: AJUNOK_clean_linker_0, # of connection points: 2
#     Edge 67, Type (0, 0), BuildingBlock: AJUNOK_clean_linker_0, # of connection points: 2
#     Edge 68, Type (0, 0), BuildingBlock: AJUNOK_clean_linker_0, # of connection points: 2
#     Edge 69, Type (0, 0), BuildingBlock: AJUNOK_clean_linker_0, # of connection points: 2
#     Edge 70, Type (0, 0), BuildingBlock: AJUNOK_clean_linker_0, # of connection points: 2
#     Edge 71, Type (0, 0), BuildingBlock: AJUNOK_clean_linker_0, # of connection points: 2
#     Edge 72, Type (0, 0), BuildingBlock: AJUNOK_clean_linker_0, # of connection points: 2
#     Edge 73, Type (0, 0), BuildingBlock: AJUNOK_clean_linker_0, # of connection points: 2
#     Edge 74, Type (0, 0), BuildingBlock: AJUNOK_clean_linker_0, # of connection points: 2
#     Edge 75, Type (0, 0), BuildingBlock: AJUNOK_clean_linker_0, # of connection points: 2
#     Edge 76, Type (0, 0), BuildingBlock: AJUNOK_clean_linker_0, # of connection points: 2
#     Edge 77, Type (0, 0), BuildingBlock: AJUNOK_clean_linker_0, # of connection points: 2
#     Edge 78, Type (0, 0), BuildingBlock: AJUNOK_clean_linker_0, # of connection points: 2
#     Edge 79, Type (0, 0), BuildingBlock: AJUNOK_clean_linker_0, # of connection points: 2
#     Edge 80, Type (0, 0), BuildingBlock: AJUNOK_clean_linker_0, # of connection points: 2
#     Edge 81, Type (0, 0), BuildingBlock: AJUNOK_clean_linker_0, # of connection points: 2
#     Edge 82, Type (0, 0), BuildingBlock: AJUNOK_clean_linker_0, # of connection points: 2
#     Edge 83, Type (0, 0), BuildingBlock: AJUNOK_clean_linker_0, # of connection points: 2
#     Edge 84, Type (0, 0), BuildingBlock: AJUNOK_clean_linker_0, # of connection points: 2
#     Edge 85, Type (0, 0), BuildingBlock: AJUNOK_clean_linker_0, # of connection points: 2
#     Edge 86, Type (0, 0), BuildingBlock: AJUNOK_clean_linker_0, # of connection points: 2
#     Edge 87, Type (0, 0), BuildingBlock: AJUNOK_clean_linker_0, # of connection points: 2
#     Edge 88, Type (0, 0), BuildingBlock: AJUNOK_clean_linker_0, # of connection points: 2
#     Edge 89, Type (0, 0), BuildingBlock: AJUNOK_clean_linker_0, # of connection points: 2
#     Edge 90, Type (0, 0), BuildingBlock: AJUNOK_clean_linker_0, # of connection points: 2
#     Edge 91, Type (0, 0), BuildingBlock: AJUNOK_clean_linker_0, # of connection points: 2
#     Edge 92, Type (0, 0), BuildingBlock: AJUNOK_clean_linker_0, # of connection points: 2
#     Edge 93, Type (0, 0), BuildingBlock: AJUNOK_clean_linker_0, # of connection points: 2
#     Edge 94, Type (0, 0), BuildingBlock: AJUNOK_clean_linker_0, # of connection points: 2
#     Edge 95, Type (0, 0), BuildingBlock: AJUNOK_clean_linker_0, # of connection points: 2
# Relax obj value: 0.119
# Max RMSD: 0.093
# Mean RMSD: 0.093
data_MOF--net-umu--node1-QUQFOY_clean_sbu_3--edge1-AJUNOK_clean_linker_0
_symmetry_space_group_name_H-M    P1
_symmetry_Int_Tables_number       1
_symmetry_cell_setting            triclinic
loop_
_symmetry_equiv_pos_as_xyz
'x, y, z'
_cell_length_a     63.665817
_cell_length_b     63.671425
_cell_length_c     19.885673
_cell_angle_alpha  90.032302
_cell_angle_beta   90.023117
_cell_angle_gamma 90.08318
loop_
_atom_site_label
_atom_site_type_symbol
_atom_site_fract_x
_atom_site_fract_y
_atom_site_fract_z
_atom_type_partial_charge
C0 C 0.2338 0.13438 0.22065 0.0
O1 O 0.25072 0.14121 0.19511 0.0
Cd2 Cd 0.25409 0.16404 0.10398 0.0
O3 O 0.21608 0.13846 0.1934 0.0
Cd4 Cd 0.20531 0.15602 0.08574 0.0
C5 C 0.21785 0.20325 0.14372 0.0
O6 O 0.23528 0.14714 0.01898 0.0
O7 O 0.21896 0.17531 -0.01105 0.0
O8 O 0.18815 0.12661 0.03389 0.0
C9 C 0.2323 0.1612 0.97532 0.0
O10 O 0.23653 0.19673 0.13422 0.0
C11 C 0.17127 0.136 0.01868 0.0
O12 O 0.20216 0.19122 0.13332 0.0
O13 O 0.16872 0.15437 0.04238 0.0
C14 C 0.09635 0.99216 0.42192 0.0
O15 O 0.09263 0.00724 0.38193 0.0
Cd16 Cd 0.08317 0.00487 0.26854 0.0
O17 O 0.09558 0.97303 0.40203 0.0
Cd18 Cd 0.08901 0.95348 0.29459 0.0
C19 C 0.0396 0.97264 0.29335 0.0
O20 O 0.10812 0.97979 0.23671 0.0
O21 O 0.09206 0.95828 0.17183 0.0
O22 O 0.11698 0.92897 0.31848 0.0
C23 C 0.10486 0.97339 0.17786 0.0
O24 O 0.04814 0.99004 0.27754 0.0
C25 C 0.10877 0.91374 0.28646 0.0
O26 O 0.05074 0.95637 0.30427 0.0
O27 O 0.08984 0.91604 0.26778 0.0
C28 C 0.25284 0.85855 0.67475 0.0
O29 O 0.23836 0.85189 0.63652 0.0
Cd30 Cd 0.24378 0.8312 0.5413 0.0
O31 O 0.27215 0.85522 0.6604 0.0
Cd32 Cd 0.29187 0.83933 0.5635 0.0
C33 C 0.27623 0.79161 0.60448 0.0
O34 O 0.26827 0.85068 0.47912 0.0
O35 O 0.28488 0.82234 0.45446 0.0
O36 O 0.3127 0.86985 0.53993 0.0
C37 C 0.27382 0.83769 0.43487 0.0
O38 O 0.25883 0.79816 0.58068 0.0
C39 C 0.3294 0.86003 0.52544 0.0
O40 O 0.29199 0.80387 0.60909 0.0
O41 O 0.32994 0.84056 0.53922 0.0
C42 C 0.38742 0.00468 0.94047 0.0
O43 O 0.39054 0.98941 0.90085 0.0
Cd44 Cd 0.40429 0.9907 0.79154 0.0
O45 O 0.39067 0.0236 0.92142 0.0
Cd46 Cd 0.40111 0.04116 0.81417 0.0
C47 C 0.44914 0.02114 0.82301 0.0
O48 O 0.3853 0.01695 0.7372 0.0
O49 O 0.41238 0.03355 0.70052 0.0
O50 O 0.37104 0.06331 0.80355 0.0
C51 C 0.39711 0.02139 0.68829 0.0
O52 O 0.43982 0.00431 0.80518 0.0
C53 C 0.38099 0.07929 0.78258 0.0
O54 O 0.43871 0.03772 0.83658 0.0
O55 O 0.40089 0.07895 0.78749 0.0
C56 C 0.2331 0.8599 0.94873 0.0
O57 O 0.24918 0.85331 0.97973 0.0
Cd58 Cd 0.24919 0.83215 0.07526 0.0
O59 O 0.21463 0.85617 0.97108 0.0
Cd60 Cd 0.20001 0.84032 0.07687 0.0
C61 C 0.21387 0.79233 0.03073 0.0
O62 O 0.22782 0.85106 0.14879 0.0
O63 O 0.21116 0.82356 0.18223 0.0
O64 O 0.18167 0.87124 0.11185 0.0
C65 C 0.22402 0.83821 0.1953 0.0
O66 O 0.2322 0.79919 0.04445 0.0
C67 C 0.16466 0.86227 0.12839 0.0
O68 O 0.19793 0.80436 0.03432 0.0
O69 O 0.16273 0.84299 0.11289 0.0
C70 C 0.39382 0.98407 0.21988 0.0
O71 O 0.39816 -0.00097 0.25962 0.0
Cd72 Cd 0.41368 0.99483 0.36515 0.0
O73 O 0.39689 0.96496 0.23724 0.0
Cd74 Cd 0.40854 0.94533 0.34015 0.0
C75 C 0.45684 0.96363 0.32004 0.0
O76 O 0.39192 0.96936 0.41449 0.0
O77 O 0.41742 0.95215 0.45813 0.0
O78 O 0.37851 0.92254 0.3294 0.0
C79 C 0.40188 0.96426 0.46661 0.0
O80 O 0.44841 0.98065 0.34028 0.0
C81 C 0.38664 0.90692 0.35914 0.0
O82 O 0.44578 0.94716 0.31093 0.0
O83 O 0.40617 0.90805 0.37167 0.0
C84 C 0.25053 0.13534 0.49484 0.0
O85 O 0.23651 0.14191 0.53477 0.0
Cd86 Cd 0.24453 0.16419 0.62522 0.0
O87 O 0.26994 0.13925 0.50613 0.0
Cd88 Cd 0.29263 0.15568 0.59503 0.0
C89 C 0.27625 0.20212 0.54625 0.0
O90 O 0.27047 0.14604 0.68624 0.0
O91 O 0.28963 0.17345 0.70363 0.0
O92 O 0.31341 0.12415 0.59662 0.0
C93 C 0.27774 0.15932 0.72724 0.0
O94 O 0.25931 0.19599 0.57435 0.0
C95 C 0.33033 0.13279 0.61592 0.0
O96 O 0.2921 0.19 0.54197 0.0
O97 O 0.33053 0.15272 0.61793 0.0
C98 C 0.09849 0.01237 0.70443 0.0
O99 O 0.09417 -0.00271 0.74374 0.0
Cd100 Cd 0.08682 -0.00163 0.859 0.0
O101 O 0.09896 0.0314 0.72529 0.0
Cd102 Cd 0.09442 0.04952 0.83603 0.0
C103 C 0.0445 0.03277 0.85456 0.0
O104 O 0.11302 0.02192 0.89208 0.0
O105 O 0.09764 0.04365 0.95739 0.0
O106 O 0.12358 0.07319 0.8166 0.0
C107 C 0.10963 0.02793 0.95131 0.0
O108 O 0.05276 0.01501 0.86723 0.0
C109 C 0.1156 0.08857 0.84826 0.0
O110 O 0.05569 0.04832 0.83568 0.0
O111 O 0.09641 0.08681 0.86474 0.0
C112 C 0.7624 0.85904 0.95999 0.0
O113 O 0.74646 0.85251 -0.00805 0.0
Cd114 Cd 0.74741 0.82824 0.07975 0.0
O115 O 0.78092 0.85391 0.97872 0.0
Cd116 Cd 0.79657 0.83491 0.07721 0.0
C117 C 0.78093 0.78928 0.01665 0.0
O118 O 0.77031 0.84394 0.15655 0.0
O119 O 0.78651 0.81489 0.17749 0.0
O120 O 0.81555 0.8648 0.11698 0.0
C121 C 0.77477 0.82962 0.19787 0.0
O122 O 0.76302 0.7961 0.03519 0.0
C123 C 0.83222 0.85515 0.13275 0.0
O124 O 0.7973 0.80069 0.02224 0.0
O125 O 0.83389 0.83619 0.11341 0.0
C126 C 0.8947 0.00783 0.72034 0.0
O127 O 0.90019 0.99308 0.75926 0.0
Cd128 Cd 0.91181 0.99548 0.87086 0.0
O129 O 0.89513 0.02697 0.74012 0.0
Cd130 Cd 0.90353 0.04453 0.85042 0.0
C131 C 0.95366 0.03045 0.85454 0.0
O132 O 0.88768 0.01828 0.92082 0.0
O133 O 0.91208 0.03649 0.96716 0.0
O134 O 0.87188 0.06468 0.85982 0.0
C135 C 0.89736 0.02327 0.97376 0.0
O136 O 0.94591 0.01266 0.87027 0.0
C137 C 0.88057 0.08114 0.88264 0.0
O138 O 0.94187 0.04558 0.8362 0.0
O139 O 0.90048 0.08208 0.87948 0.0
C140 C 0.72512 0.14363 0.4589 0.0
O141 O 0.74047 0.14554 0.49906 0.0
Cd142 Cd 0.7398 0.15747 0.61063 0.0
O143 O 0.70634 0.14754 0.47817 0.0
Cd144 Cd 0.68931 0.15792 0.58744 0.0
C145 C 0.71293 0.20453 0.58361 0.0
O146 O 0.71245 0.13848 0.66053 0.0
O147 O 0.69724 0.16515 0.70449 0.0
O148 O 0.66057 0.13265 0.58133 0.0
C149 C 0.70893 0.14931 0.71241 0.0
O150 O 0.72905 0.19414 0.60184 0.0
C151 C 0.64745 0.14449 0.61097 0.0
O152 O 0.6959 0.19517 0.56794 0.0
O153 O 0.65299 0.16336 0.62126 0.0
C154 C 0.6081 0.993 0.208 0.0
O155 O 0.60297 0.00763 0.24794 0.0
Cd156 Cd 0.58834 0.00319 0.35491 0.0
O157 O 0.60673 0.97373 0.22596 0.0
Cd158 Cd 0.59763 0.954 0.33158 0.0
C159 C 0.54774 0.96809 0.31432 0.0
O160 O 0.61127 0.97968 0.40773 0.0
O161 O 0.58687 0.96011 0.44785 0.0
O162 O 0.62967 0.93396 0.3321 0.0
C163 C 0.60087 0.97388 0.45832 0.0
O164 O 0.55474 0.9859 0.33342 0.0
C165 C 0.62165 0.91719 0.35524 0.0
O166 O 0.56016 0.9527 0.30466 0.0
O167 O 0.60172 0.91646 0.35803 0.0
C168 C 0.74731 0.14498 0.17789 0.0
O169 O 0.73284 0.14887 0.13587 0.0
Cd170 Cd 0.73682 0.15963 0.0234 0.0
O171 O 0.76667 0.14612 0.16085 0.0
Cd172 Cd 0.78705 0.15383 0.05557 0.0
C173 C 0.76953 0.20312 0.04977 0.0
O174 O 0.76263 0.13726 -0.01969 0.0
O175 O 0.78318 0.15997 0.9355 0.0
O176 O 0.80987 0.12381 0.06645 0.0
C177 C 0.76894 0.14631 0.92765 0.0
O178 O 0.75246 0.19449 0.03063 0.0
C179 C 0.82619 0.1329 0.04403 0.0
O180 O 0.78507 0.19205 0.06931 0.0
O181 O 0.82506 0.15266 0.03598 0.0
C182 C 0.60453 0.01467 0.92838 0.0
O183 O 0.60232 -0.00049 0.88762 0.0
Cd184 Cd 0.58824 0.00102 0.77911 0.0
O185 O 0.59959 0.0334 0.91122 0.0
Cd186 Cd 0.58606 0.05022 0.80545 0.0
C187 C 0.54059 0.02534 0.81686 0.0
O188 O 0.60611 0.02918 0.72845 0.0
O189 O 0.57671 0.04051 0.69076 0.0
O190 O 0.60988 0.08022 0.80542 0.0
C191 C 0.59401 0.03153 0.67881 0.0
O192 O 0.55123 0.00988 0.7947 0.0
C193 C 0.59692 0.09253 0.77721 0.0
O194 O 0.54962 0.04252 0.83265 0.0
O195 O 0.57818 0.08606 0.77111 0.0
C196 C 0.74568 0.86032 0.6871 0.0
O197 O 0.76099 0.85236 0.65551 0.0
Cd198 Cd 0.7575 0.82852 0.56696 0.0
O199 O 0.7268 0.85688 0.668 0.0
Cd200 Cd 0.7091 0.83974 0.56948 0.0
C201 C 0.7205 0.79277 0.62966 0.0
O202 O 0.73619 0.84637 0.49026 0.0
O203 O 0.71667 0.81966 0.46681 0.0
O204 O 0.6927 0.87214 0.5383 0.0
C205 C 0.73051 0.83272 0.44811 0.0
O206 O 0.73895 0.79796 0.61114 0.0
C207 C 0.67515 0.86446 0.5208 0.0
O208 O 0.70519 0.80552 0.62366 0.0
O209 O 0.67211 0.84516 0.53406 0.0
C210 C 0.88999 0.98542 0.43971 0.0
O211 O 0.89142 0.00021 0.39722 0.0
Cd212 Cd 0.90222 -0.00241 0.28436 0.0
O213 O 0.89315 0.96631 0.42236 0.0
Cd214 Cd 0.90121 0.94619 0.31678 0.0
C215 C 0.9485 0.969 0.31345 0.0
O216 O 0.88326 0.96923 0.24128 0.0
O217 O 0.90724 0.95003 0.19716 0.0
O218 O 0.87301 0.92117 0.32925 0.0
C219 C 0.89301 0.96363 0.18906 0.0
O220 O 0.93831 0.98528 0.2954 0.0
C221 C 0.88319 0.90563 0.30594 0.0
O222 O 0.93901 0.952 0.32893 0.0
O223 O 0.90278 0.90826 0.2971 0.0
C224 C 0.73522 0.63417 0.6789 0.0
O225 O 0.75075 0.64077 0.64511 0.0
Cd226 Cd 0.74811 0.66459 0.55664 0.0
O227 O 0.71646 0.63919 0.6623 0.0
Cd228 Cd 0.69941 0.65815 0.56579 0.0
C229 C 0.716 0.70381 0.62406 0.0
O230 O 0.72445 0.64752 0.48472 0.0
O231 O 0.70849 0.6763 0.45999 0.0
O232 O 0.67846 0.62848 0.53433 0.0
C233 C 0.71966 0.66098 0.44098 0.0
O234 O 0.73367 0.69697 0.60348 0.0
C235 C 0.66202 0.63869 0.51973 0.0
O236 O 0.6995 0.69257 0.61935 0.0
O237 O 0.66164 0.65802 0.53558 0.0
C238 C 0.60265 0.49045 0.9454 0.0
O239 O 0.5976 0.50595 0.90893 0.0
Cd240 Cd 0.5803 0.50348 0.8057 0.0
O241 O 0.59933 0.47162 0.92548 0.0
Cd242 Cd 0.58632 0.45429 0.81981 0.0
C243 C 0.53815 0.47114 0.85082 0.0
O244 O 0.60141 0.47971 0.74582 0.0
O245 O 0.57462 0.46346 0.70601 0.0
O246 O 0.61616 0.43095 0.81863 0.0
C247 C 0.59005 0.4756 0.69568 0.0
O248 O 0.54582 0.48867 0.83198 0.0
C249 C 0.60678 0.41561 0.791 0.0
O250 O 0.5497 0.45488 0.85532 0.0
O251 O 0.58704 0.41732 0.7838 0.0
C252 C 0.75304 0.35392 0.17468 0.0
O253 O 0.73846 0.35099 0.13215 0.0
Cd254 Cd 0.74262 0.33964 0.02023 0.0
O255 O 0.77232 0.35139 0.15859 0.0
Cd256 Cd 0.79352 0.34265 0.05656 0.0
C257 C 0.77305 0.2945 0.04975 0.0
O258 O 0.77043 0.35996 -0.01992 0.0
O259 O 0.79075 0.3369 0.93603 0.0
O260 O 0.81572 0.37264 0.07423 0.0
C261 C 0.77686 0.35084 0.9277 0.0
O262 O 0.75666 0.30424 0.03028 0.0
C263 C 0.83225 0.36445 0.0501 0.0
O264 O 0.78931 0.30449 0.06969 0.0
O265 O 0.83167 0.3448 0.039 0.0
C266 C 0.8834 0.50736 0.43536 0.0
O267 O 0.88968 0.49274 0.39716 0.0
Cd268 Cd 0.91165 0.49922 0.30526 0.0
O269 O 0.88731 0.52655 0.42092 0.0
Cd270 Cd 0.90271 0.54758 0.32631 0.0
C271 C 0.94962 0.53277 0.37618 0.0
O272 O 0.89302 0.52363 0.23999 0.0
O273 O 0.92022 0.54248 0.21754 0.0
O274 O 0.87022 0.56676 0.32194 0.0
C275 C 0.9062 0.52986 0.19715 0.0
O276 O 0.94336 0.51528 0.35217 0.0
C277 C 0.87788 0.58374 0.29942 0.0
O278 O 0.9376 0.54877 0.37681 0.0
O279 O 0.89779 0.58491 0.29665 0.0
C280 C 0.7319 0.35656 0.45541 0.0
O281 O 0.74744 0.35331 0.49383 0.0
Cd282 Cd 0.74735 0.34072 0.60459 0.0
O283 O 0.71307 0.35388 0.47618 0.0
Cd284 Cd 0.6967 0.34447 0.5867 0.0
C285 C 0.7162 0.29601 0.58146 0.0
O286 O 0.72202 0.36096 0.65895 0.0
O287 O 0.7052 0.3349 0.70156 0.0
O288 O 0.67427 0.37448 0.59722 0.0
C289 C 0.7179 0.34998 0.71004 0.0
O290 O 0.73334 0.30522 0.59665 0.0
C291 C 0.65849 0.36448 0.6195 0.0
O292 O 0.69967 0.30656 0.56822 0.0
O293 O 0.65913 0.34456 0.61605 0.0
C294 C 0.88429 0.48915 0.71021 0.0
O295 O 0.89136 0.50521 0.74034 0.0
Cd296 Cd 0.9136 0.5049 0.83337 0.0
O297 O 0.88783 0.47073 0.73315 0.0
Cd298 Cd 0.90445 0.45644 0.83818 0.0
C299 C 0.95199 0.46885 0.78474 0.0
O300 O 0.89499 0.48455 0.91103 0.0
O301 O 0.92276 0.46775 0.94119 0.0
O302 O 0.8738 0.43816 0.87641 0.0
C303 C 0.90846 0.48079 0.95581 0.0
O304 O 0.94589 0.48739 0.79892 0.0
C305 C 0.88286 0.42114 0.89198 0.0
O306 O 0.93955 0.45329 0.79053 0.0
O307 O 0.902 0.41925 0.87484 0.0
C308 C 0.75272 0.63172 0.95079 0.0
O309 O 0.73719 0.64003 -0.01968 0.0
Cd310 Cd 0.73909 0.66348 0.07017 0.0
O311 O 0.77145 0.63492 0.97182 0.0
Cd312 Cd 0.78739 0.6527 0.07217 0.0
C313 C 0.77613 0.69999 0.01376 0.0
O314 O 0.75958 0.64486 0.14765 0.0
O315 O 0.77774 0.67219 0.17455 0.0
O316 O 0.80501 0.62196 0.11269 0.0
C317 C 0.7646 0.65821 0.19156 0.0
O318 O 0.75751 0.69473 0.03024 0.0
C319 C 0.82215 0.63091 0.12795 0.0
O320 O 0.79126 0.68707 0.01979 0.0
O321 O 0.82459 0.64974 0.1083 0.0
C322 C 0.60491 0.51021 0.22456 0.0
O323 O 0.6019 0.49532 0.26577 0.0
Cd324 Cd 0.58467 0.49957 0.36892 0.0
O325 O 0.60033 0.52913 0.24032 0.0
Cd326 Cd 0.58756 0.54924 0.34062 0.0
C327 C 0.54091 0.52816 0.31247 0.0
O328 O 0.60328 0.52676 0.42204 0.0
O329 O 0.57595 0.54332 0.45622 0.0
O330 O 0.61667 0.57328 0.33136 0.0
C331 C 0.59147 0.53172 0.47034 0.0
O332 O 0.54971 0.51173 0.33585 0.0
C333 C 0.60722 0.58898 0.35637 0.0
O334 O 0.55121 0.54518 0.30494 0.0
O335 O 0.58762 0.58699 0.36639 0.0
C336 C 0.25893 0.36023 0.44742 0.0
O337 O 0.24211 0.35399 0.47507 0.0
Cd338 Cd 0.23931 0.33218 0.56888 0.0
O339 O 0.27679 0.35599 0.47334 0.0
Cd340 Cd 0.28838 0.33913 0.58078 0.0
C341 C 0.27423 0.29181 0.52835 0.0
O342 O 0.25951 0.34982 0.64901 0.0
O343 O 0.27503 0.32147 0.68135 0.0
O344 O 0.30678 0.36899 0.62397 0.0
C345 C 0.26258 0.33642 0.69456 0.0
O346 O 0.25582 0.29882 0.53981 0.0
C347 C 0.32328 0.35936 0.64162 0.0
O348 O 0.29023 0.30368 0.53495 0.0
O349 O 0.32511 0.34035 0.62291 0.0
C350 C 0.38387 0.50922 0.2016 0.0
O351 O 0.38898 0.49294 0.23433 0.0
Cd352 Cd 0.4075 0.49166 0.33574 0.0
O353 O 0.38784 0.52756 0.2246 0.0
Cd354 Cd 0.40248 0.54117 0.33334 0.0
C355 C 0.45034 0.52385 0.29861 0.0
O356 O 0.38894 0.51445 0.40611 0.0
O357 O 0.41745 0.52927 0.43982 0.0
O358 O 0.373 0.56238 0.36416 0.0
C359 C 0.40203 0.51735 0.45274 0.0
O360 O 0.44229 0.50612 0.3135 0.0
C361 C 0.38348 0.57833 0.38243 0.0
O362 O 0.43904 0.54036 0.29691 0.0
O363 O 0.40299 0.57843 0.36915 0.0
C364 C 0.23695 0.63619 0.96104 0.0
O365 O 0.25263 0.64303 -0.00631 0.0
Cd366 Cd 0.2508 0.66389 0.08981 0.0
O367 O 0.21824 0.63928 -0.0177 0.0
Cd368 Cd 0.20229 0.6543 0.08747 0.0
C369 C 0.21494 0.70237 0.03949 0.0
O370 O 0.22967 0.64391 0.16187 0.0
O371 O 0.21242 0.67109 0.19438 0.0
O372 O 0.18389 0.6227 0.11605 0.0
C373 C 0.22541 0.65667 0.20825 0.0
O374 O 0.23333 0.69622 0.05535 0.0
C375 C 0.16705 0.63145 0.1352 0.0
O376 O 0.19932 0.68989 0.04283 0.0
O377 O 0.16513 0.65095 0.12311 0.0
C378 C 0.10838 0.48838 0.71896 0.0
O379 O 0.10244 0.50407 0.75321 0.0
Cd380 Cd 0.08053 0.5019 0.84678 0.0
O381 O 0.1043 0.4697 0.73864 0.0
Cd382 Cd 0.08872 0.45321 0.8417 0.0
C383 C 0.04166 0.46699 0.78993 0.0
O384 O 0.09912 0.47971 0.91878 0.0
O385 O 0.07099 0.463 0.94684 0.0
O386 O 0.12023 0.43488 0.86975 0.0
C387 C 0.08593 0.47509 0.96361 0.0
O388 O 0.04821 0.48512 0.80752 0.0
C389 C 0.11145 0.41809 0.88927 0.0
O390 O 0.05363 0.45102 0.79359 0.0
O391 O 0.09194 0.41608 0.87719 0.0
C392 C 0.2566 0.6357 0.68484 0.0
O393 O 0.24182 0.64056 0.6451 0.0
Cd394 Cd 0.24686 0.66021 0.54693 0.0
O395 O 0.27569 0.63985 0.66984 0.0
Cd396 Cd 0.29601 0.65415 0.57203 0.0
C397 C 0.27832 0.70139 0.60835 0.0
O398 O 0.27261 0.64167 0.4872 0.0
O399 O 0.2903 0.66918 0.46029 0.0
O400 O 0.31816 0.6235 0.57315 0.0
C401 C 0.278 0.65458 0.44237 0.0
O402 O 0.26129 0.69387 0.58448 0.0
C403 C 0.33446 0.63252 0.55047 0.0
O404 O 0.29458 0.68991 0.61478 0.0
O405 O 0.33371 0.65238 0.54497 0.0
C406 C 0.10534 0.50669 0.44398 0.0
O407 O 0.0982 0.49162 0.40915 0.0
Cd408 Cd 0.07686 0.49646 0.31512 0.0
O409 O 0.10203 0.52573 0.42652 0.0
Cd410 Cd 0.08654 0.54533 0.32902 0.0
C411 C 0.03896 0.53135 0.37786 0.0
O412 O 0.09742 0.51954 0.25078 0.0
O413 O 0.07158 0.53841 0.21664 0.0
O414 O 0.11886 0.56487 0.32543 0.0
C415 C 0.0858 0.52519 0.20296 0.0
O416 O 0.04503 0.51342 0.35703 0.0
C417 C 0.11132 0.5815 0.3001 0.0
O418 O 0.05126 0.54715 0.37661 0.0
O419 O 0.09145 0.58236 0.29497 0.0
C420 C 0.24179 0.35838 0.17314 0.0
O421 O 0.25587 0.35153 0.13389 0.0
Cd422 Cd 0.24746 0.32953 0.04378 0.0
O423 O 0.22236 0.35477 0.1611 0.0
Cd424 Cd 0.19958 0.33898 0.07123 0.0
C425 C 0.21488 0.2923 0.12201 0.0
O426 O 0.22253 0.34951 -0.01587 0.0
O427 O 0.20308 0.32304 0.95871 0.0
O428 O 0.17977 0.37111 0.07266 0.0
C429 C 0.21537 0.33748 0.93938 0.0
O430 O 0.23218 0.29819 0.09583 0.0
C431 C 0.16266 0.36329 0.05161 0.0
O432 O 0.19894 0.30435 0.12269 0.0
O433 O 0.16185 0.34341 0.04725 0.0
C434 C 0.3834 0.48978 0.92403 0.0
O435 O 0.3877 0.50408 0.88185 0.0
Cd436 Cd 0.40578 0.49788 0.78091 0.0
O437 O 0.38729 0.47049 0.91101 0.0
Cd438 Cd 0.40033 0.44809 0.81626 0.0
C439 C 0.44773 0.46786 0.84442 0.0
O440 O 0.38715 0.47033 0.73024 0.0
O441 O 0.41296 0.45071 0.70054 0.0
O442 O 0.36937 0.42657 0.82497 0.0
C443 C 0.39888 0.46371 0.68379 0.0
O444 O 0.4397 0.48437 0.8188 0.0
C445 C 0.37791 0.40966 0.80527 0.0
O446 O 0.43678 0.4513 0.85322 0.0
O447 O 0.39777 0.4099 0.7988 0.0
C448 C 0.12132 0.11733 0.93257 0.0
C449 C 0.12923 0.10477 0.87978 0.0
C450 C 0.13488 0.12823 0.97627 0.0
C451 C 0.15675 0.12664 0.96909 0.0
H452 H 0.10462 0.11775 0.94291 0.0
H453 H 0.12826 0.13698 0.0179 0.0
S454 S 0.18531 0.09963 0.83139 0.0
N455 N 0.16032 0.09435 0.81694 0.0
N456 N 0.18565 0.11439 0.89962 0.0
C457 C 0.16476 0.11562 0.91346 0.0
C458 C 0.15104 0.10486 0.8685 0.0
C459 C 0.14417 0.89987 0.25943 0.0
C460 C 0.12226 0.89715 0.25692 0.0
C461 C 0.1575 0.88838 0.21767 0.0
C462 C 0.14961 0.87328 0.17258 0.0
H463 H 0.15113 0.91188 0.291 0.0
H464 H 0.17421 0.89158 0.22024 0.0
S465 S 0.09386 0.85775 0.15306 0.0
N466 N 0.09339 0.87673 0.20978 0.0
N467 N 0.11881 0.8545 0.13275 0.0
C468 C 0.12796 0.86913 0.17299 0.0
C469 C 0.1142 0.88119 0.21485 0.0
C470 C 0.38037 0.87965 0.448 0.0
C471 C 0.37303 0.89098 0.39163 0.0
C472 C 0.36637 0.86896 0.49083 0.0
C473 C 0.34466 0.86963 0.47901 0.0
H474 H 0.39686 0.88005 0.46146 0.0
H475 H 0.37244 0.86104 0.53492 0.0
S476 S 0.31786 0.89332 0.33178 0.0
N477 N 0.34289 0.89927 0.32133 0.0
N478 N 0.31673 0.87969 0.40226 0.0
C479 C 0.33734 0.87948 0.42031 0.0
C480 C 0.3515 0.89 0.37639 0.0
C481 C 0.371 0.11554 0.74342 0.0
C482 C 0.37047 0.09365 0.73547 0.0
C483 C 0.35927 0.12858 0.70035 0.0
C484 C 0.34696 0.12004 0.64789 0.0
H485 H 0.37964 0.12248 0.78478 0.0
H486 H 0.35883 0.14527 0.71083 0.0
S487 S 0.34428 0.06392 0.59848 0.0
N488 N 0.35937 0.06425 0.66596 0.0
N489 N 0.33766 0.08863 0.58499 0.0
C490 C 0.34793 0.09832 0.63637 0.0
C491 C 0.35959 0.08514 0.68028 0.0
C492 C 0.86809 0.86595 0.17315 0.0
C493 C 0.84635 0.86438 0.18342 0.0
C494 C 0.88066 0.87766 0.21779 0.0
C495 C 0.8718 0.88795 0.27401 0.0
H496 H 0.87515 0.85926 0.12847 0.0
H497 H 0.89705 0.87996 0.20521 0.0
S498 S 0.8164 0.88417 0.33028 0.0
N499 N 0.81709 0.87088 0.25901 0.0
N500 N 0.84062 0.89262 0.34288 0.0
C501 C 0.85046 0.88452 0.28803 0.0
C502 C 0.83774 0.87285 0.24256 0.0
C503 C 0.86912 0.11687 0.92237 0.0
C504 C 0.86868 0.09493 0.92826 0.0
C505 C 0.85653 0.12946 0.96429 0.0
C506 C 0.84345 0.12045 0.01393 0.0
H507 H 0.87846 0.12424 0.88341 0.0
H508 H 0.85618 0.14623 0.95515 0.0
S509 S 0.84062 0.06389 0.05814 0.0
N510 N 0.85675 0.06489 -0.00673 0.0
N511 N 0.83354 0.08841 0.07257 0.0
C512 C 0.84448 0.09862 0.02377 0.0
C513 C 0.85696 0.08589 -0.01931 0.0
C514 C 0.6282 0.1393 0.71796 0.0
C515 C 0.62978 0.13521 0.64843 0.0
C516 C 0.61625 0.12626 0.76014 0.0
C517 C 0.60485 0.10935 0.73347 0.0
H518 H 0.63776 0.15144 0.74089 0.0
H519 H 0.61681 0.12873 0.81402 0.0
S520 S 0.60204 0.09339 0.5543 0.0
N521 N 0.61803 0.11385 0.55465 0.0
N522 N 0.59454 0.0901 0.63311 0.0
C523 C 0.60493 0.1062 0.66344 0.0
C524 C 0.61765 0.11898 0.62098 0.0
C525 C 0.65618 0.90684 0.40262 0.0
C526 C 0.63506 0.90161 0.39031 0.0
C527 C 0.6686 0.89492 0.44596 0.0
C528 C 0.66066 0.87694 0.47831 0.0
H529 H 0.66312 0.92077 0.38058 0.0
H530 H 0.6847 0.8999 0.45377 0.0
S531 S 0.60684 0.85533 0.45947 0.0
N532 N 0.6069 0.8766 0.4119 0.0
N533 N 0.63064 0.8537 0.49219 0.0
C534 C 0.63982 0.87093 0.46462 0.0
C535 C 0.62696 0.88335 0.4209 0.0
C536 C 0.62535 0.62807 0.48716 0.0
C537 C 0.64683 0.62956 0.47222 0.0
C538 C 0.61181 0.61651 0.44509 0.0
C539 C 0.61944 0.60631 0.38693 0.0
H540 H 0.61928 0.63473 0.53335 0.0
H541 H 0.59569 0.61427 0.46097 0.0
S542 S 0.6736 0.60978 0.31927 0.0
N543 N 0.67445 0.62296 0.39073 0.0
N544 N 0.64912 0.60151 0.31163 0.0
C545 C 0.64047 0.60958 0.36855 0.0
C546 C 0.65417 0.62111 0.41138 0.0
C547 C 0.61002 0.38785 0.70198 0.0
C548 C 0.61891 0.39891 0.75671 0.0
C549 C 0.62263 0.37595 0.65807 0.0
C550 C 0.64444 0.37501 0.66747 0.0
H551 H 0.59346 0.38936 0.69065 0.0
H552 H 0.61547 0.36831 0.61509 0.0
S553 S 0.67485 0.39772 0.80908 0.0
N554 N 0.65049 0.40553 0.82237 0.0
N555 N 0.67403 0.38354 0.73964 0.0
C556 C 0.65323 0.38466 0.72446 0.0
C557 C 0.64049 0.3965 0.76925 0.0
C558 C 0.85711 0.41355 -0.01812 0.0
C559 C 0.87215 0.40591 0.93635 0.0
C560 C 0.84584 0.40002 0.02364 0.0
C561 C 0.84875 0.37814 0.02073 0.0
H562 H 0.85374 0.4302 -0.01521 0.0
H563 H 0.83387 0.40679 0.05568 0.0
S564 S 0.88816 0.35037 0.91558 0.0
N565 N 0.89113 0.37539 0.89565 0.0
N566 N 0.86934 0.34959 0.97274 0.0
C567 C 0.86472 0.37034 0.97837 0.0
C568 C 0.87653 0.38431 0.93641 0.0
C569 C 0.85858 0.62282 0.16967 0.0
C570 C 0.83669 0.62085 0.1759 0.0
C571 C 0.87212 0.61201 0.21358 0.0
C572 C 0.86412 0.5992 0.26555 0.0
H573 H 0.86524 0.63197 0.12899 0.0
H574 H 0.88887 0.61278 0.20437 0.0
S575 S 0.80797 0.5928 0.31128 0.0
N576 N 0.80768 0.60778 0.2436 0.0
N577 N 0.83298 0.58786 0.32635 0.0
C578 C 0.84228 0.59866 0.27541 0.0
C579 C 0.82859 0.60936 0.23044 0.0
C580 C 0.35965 0.36809 0.68246 0.0
C581 C 0.33777 0.36919 0.69019 0.0
C582 C 0.37302 0.37979 0.72466 0.0
C583 C 0.36484 0.39268 0.77615 0.0
H584 H 0.36637 0.35917 0.64137 0.0
H585 H 0.38969 0.37985 0.71381 0.0
S586 S 0.30883 0.39672 0.82597 0.0
N587 N 0.30872 0.38125 0.75934 0.0
N588 N 0.33371 0.40287 0.83896 0.0
C589 C 0.34311 0.3921 0.78817 0.0
C590 C 0.32959 0.38048 0.74496 0.0
C591 C 0.3624 0.62811 0.46293 0.0
C592 C 0.35126 0.61997 0.51854 0.0
C593 C 0.37382 0.61481 0.4198 0.0
C594 C 0.3742 0.59307 0.43101 0.0
H595 H 0.36112 0.64458 0.44991 0.0
H596 H 0.38133 0.62138 0.37567 0.0
S597 S 0.35148 0.56462 0.57654 0.0
N598 N 0.34425 0.58927 0.58767 0.0
N599 N 0.3654 0.56441 0.50653 0.0
C600 C 0.36468 0.58507 0.48934 0.0
C601 C 0.35331 0.59851 0.53328 0.0
C602 C 0.11724 0.61112 0.21875 0.0
C603 C 0.1253 0.59701 0.26703 0.0
C604 C 0.13071 0.6227 0.17658 0.0
C605 C 0.15259 0.62019 0.18062 0.0
H606 H 0.10045 0.61254 0.21138 0.0
H607 H 0.12398 0.63302 0.13905 0.0
S608 S 0.18168 0.58824 0.3058 0.0
N609 N 0.15669 0.58354 0.32193 0.0
N610 N 0.18178 0.6048 0.24204 0.0
C611 C 0.16081 0.60716 0.23121 0.0
C612 C 0.14722 0.59572 0.27465 0.0
C613 C 0.1204 0.38193 0.93124 0.0
C614 C 0.12271 0.40382 0.93513 0.0
C615 C 0.13227 0.36865 0.97307 0.0
C616 C 0.1465 0.37694 0.02072 0.0
H617 H 0.1101 0.37504 0.89385 0.0
H618 H 0.1311 0.35184 0.96553 0.0
S619 S 0.15459 0.4334 0.05966 0.0
N620 N 0.13782 0.43326 -0.0036 0.0
N621 N 0.15969 0.40848 0.07552 0.0
C622 C 0.14747 0.39885 0.0286 0.0
C623 C 0.1357 0.41226 -0.01443 0.0
C624 C 0.25268 0.14271 0.88851 0.0
C625 C 0.24517 0.16176 0.91462 0.0
C626 C 0.26398 0.14226 0.82867 0.0
C627 C 0.26852 0.16088 0.79403 0.0
H628 H 0.24919 0.12794 0.91324 0.0
H629 H 0.26886 0.1272 0.80864 0.0
S630 S 0.25357 0.21492 0.84367 0.0
N631 N 0.24368 0.19978 0.90325 0.0
N632 N 0.26551 0.19894 0.79059 0.0
C633 C 0.26188 0.18015 0.8208 0.0
C634 C 0.24996 0.18058 0.88124 0.0
C635 C 0.11034 0.00869 0.12917 0.0
C636 C 0.11004 0.98678 0.12062 0.0
C637 C 0.11154 0.02202 0.07382 0.0
C638 C 0.1131 0.01385 0.00853 0.0
H639 H 0.10838 0.01565 0.17843 0.0
H640 H 0.11033 0.03881 0.08199 0.0
S641 S 0.1178 0.95753 0.96182 0.0
N642 N 0.1143 0.95741 0.04408 0.0
N643 N 0.11794 0.9825 0.93949 0.0
C644 C 0.11513 0.99197 8e-05 0.0
C645 C 0.11319 0.97838 0.05643 0.0
C646 C 0.24242 0.81901 0.28657 0.0
C647 C 0.23713 0.83807 0.25538 0.0
C648 C 0.25545 0.81879 0.34312 0.0
C649 C 0.26308 0.83766 0.37034 0.0
H650 H 0.23655 0.80424 0.26704 0.0
H651 H 0.25889 0.8039 0.36706 0.0
S652 S 0.25404 0.89151 0.30635 0.0
N653 N 0.24089 0.87611 0.25437 0.0
N654 N 0.26499 0.87568 0.36188 0.0
C655 C 0.25812 0.85673 0.33911 0.0
C656 C 0.24519 0.85695 0.28117 0.0
C657 C 0.41737 -0.00102 0.61068 0.0
C658 C 0.39793 0.00723 0.63099 0.0
C659 C 0.41844 0.9841 0.55938 0.0
C660 C 0.40014 0.97741 0.5263 0.0
H661 H 0.43179 0.00379 0.63529 0.0
H662 H 0.43372 0.97833 0.54418 0.0
S663 S 0.34555 0.99419 0.56184 0.0
N664 N 0.36008 0.00741 0.61622 0.0
N665 N 0.36212 0.97983 0.51745 0.0
C666 C 0.38063 0.98549 0.54638 0.0
C667 C 0.37952 0.00033 0.59949 0.0
C668 C 0.76092 0.84844 0.29548 0.0
C669 C 0.76439 0.82923 0.26293 0.0
C670 C 0.74988 0.84923 0.35562 0.0
C671 C 0.74162 0.83089 0.38437 0.0
H672 H 0.76679 0.86299 0.27425 0.0
H673 H 0.74756 0.86439 0.37931 0.0
S674 S 0.74661 0.77665 0.31865 0.0
N675 N 0.75917 0.79139 0.26332 0.0
N676 N 0.73781 0.79291 0.37694 0.0
C677 C 0.74497 0.81151 0.35246 0.0
C678 C 0.75662 0.81066 0.29153 0.0
C679 C 0.87712 0.00053 0.05085 0.0
C680 C 0.89649 0.00923 0.03162 0.0
C681 C 0.87606 0.98548 0.10184 0.0
C682 C 0.89442 0.97826 0.13297 0.0
H683 H 0.86272 0.00541 0.02631 0.0
H684 H 0.86087 0.9793 0.11656 0.0
S685 S 0.94892 -0.0036 0.10162 0.0
N686 N 0.93435 0.01004 0.04868 0.0
N687 N 0.9324 0.9812 0.14313 0.0
C688 C 0.91388 0.98686 0.11432 0.0
C689 C 0.91491 0.00255 0.06386 0.0
C690 C 0.74489 0.12879 0.84737 0.0
C691 C 0.75504 0.14716 0.86927 0.0
C692 C 0.72981 0.12957 0.7963 0.0
C693 C 0.724 0.14884 0.76772 0.0
H694 H 0.7486 0.11377 0.87004 0.0
H695 H 0.72244 0.11511 0.77974 0.0
S696 S 0.74603 0.20136 0.80747 0.0
N697 N 0.75853 0.18508 0.85805 0.0
N698 N 0.72977 0.18661 0.76324 0.0
C699 C 0.73404 0.16732 0.78913 0.0
C700 C 0.74973 0.16646 0.83974 0.0
C701 C 0.57829 0.00713 0.59629 0.0
C702 C 0.59611 0.01764 0.6209 0.0
C703 C 0.5801 0.99218 0.54542 0.0
C704 C 0.59974 0.98765 0.51686 0.0
H705 H 0.56283 0.01011 0.61755 0.0
H706 H 0.56597 0.98454 0.52723 0.0
S707 S 0.65102 0.01104 0.56363 0.0
N708 N 0.6339 0.02247 0.61414 0.0
N709 N 0.63727 0.99472 0.51621 0.0
C710 C 0.61764 -0.00186 0.5407 0.0
C711 C 0.61583 0.01308 0.59344 0.0
C712 C 0.73675 0.67903 0.34467 0.0
C713 C 0.72999 0.6604 0.37562 0.0
C714 C 0.74848 0.67831 0.28529 0.0
C715 C 0.75323 0.65896 0.25504 0.0
H716 H 0.73346 0.69415 0.36736 0.0
H717 H 0.75359 0.69289 0.26259 0.0
S718 S 0.73861 0.60592 0.31601 0.0
N719 N 0.7286 0.62224 0.37193 0.0
N720 N 0.75032 0.62089 0.25957 0.0
C721 C 0.74627 0.64029 0.28506 0.0
C722 C 0.73467 0.64102 0.34569 0.0
C723 C 0.57226 0.51108 0.55593 0.0
C724 C 0.5914 0.51867 0.53058 0.0
C725 C 0.57194 0.49645 0.60813 0.0
C726 C 0.59075 0.48937 0.63713 0.0
H727 H 0.55747 0.51599 0.53406 0.0
H728 H 0.5569 0.49096 0.62665 0.0
S729 S 0.64482 0.50488 0.58934 0.0
N730 N 0.62949 0.51819 0.5377 0.0
N731 N 0.62889 0.49109 0.63786 0.0
C732 C 0.60995 0.49708 0.6129 0.0
C733 C 0.61027 0.51166 0.55896 0.0
C734 C 0.73913 0.36887 0.79468 0.0
C735 C 0.73265 0.34981 0.76602 0.0
C736 C 0.75403 0.36914 0.84623 0.0
C737 C 0.7633 0.35042 0.86862 0.0
H738 H 0.73242 0.38359 0.77776 0.0
H739 H 0.75826 0.38403 0.86897 0.0
S740 S 0.75215 0.29652 0.80726 0.0
N741 N 0.73672 0.31184 0.76214 0.0
N742 N 0.76518 0.31236 0.85813 0.0
C743 C 0.75727 0.33129 0.83919 0.0
C744 C 0.74176 0.33098 0.78798 0.0
C745 C 0.88918 0.51323 0.10016 0.0
C746 C 0.90779 0.51892 0.13308 0.0
C747 C 0.88972 0.50089 0.04246 0.0
C748 C 0.90886 0.49348 0.01687 0.0
H749 H 0.87407 0.51822 0.11949 0.0
H750 H 0.87498 0.49681 0.01841 0.0
S751 S 0.96201 0.50412 0.08498 0.0
N752 N 0.94592 0.51664 0.13632 0.0
N753 N 0.94693 0.49288 0.02765 0.0
C754 C 0.92765 0.4991 0.04913 0.0
C755 C 0.92712 0.51206 0.10736 0.0
C756 C 0.24292 0.31787 0.78458 0.0
C757 C 0.24981 0.33672 0.75531 0.0
C758 C 0.23056 0.31815 0.84266 0.0
C759 C 0.22525 0.33728 0.87335 0.0
H760 H 0.24708 0.30288 0.76249 0.0
H761 H 0.22588 0.30336 0.86508 0.0
S762 S 0.2393 0.39079 0.81548 0.0
N763 N 0.25014 0.37489 0.75986 0.0
N764 N 0.22727 0.37539 0.87006 0.0
C765 C 0.23181 0.35618 0.84393 0.0
C766 C 0.24404 0.35591 0.78449 0.0
C767 C 0.38257 0.49772 0.53931 0.0
C768 C 0.40191 0.50352 0.51107 0.0
C769 C 0.38176 0.48417 0.59423 0.0
C770 C 0.40022 0.47563 0.62131 0.0
H771 H 0.36801 0.50402 0.51957 0.0
H772 H 0.3666 0.48051 0.61614 0.0
S773 S 0.45471 0.48519 0.56288 0.0
N774 N 0.43988 0.4994 0.51223 0.0
N775 N 0.43835 0.47346 0.61529 0.0
C776 C 0.41965 0.48084 0.59234 0.0
C777 C 0.4205 0.495 0.53721 0.0
C778 C 0.25914 0.63729 0.34963 0.0
C779 C 0.26566 0.65595 0.38074 0.0
C780 C 0.24587 0.6378 0.29397 0.0
C781 C 0.23834 0.65696 0.26884 0.0
H782 H 0.26432 0.62219 0.36851 0.0
H783 H 0.24132 0.62307 0.27078 0.0
S784 S 0.25044 0.71018 0.33378 0.0
N785 N 0.26363 0.69411 0.3834 0.0
N786 N 0.23819 0.69504 0.27881 0.0
C787 C 0.24456 0.67576 0.29983 0.0
C788 C 0.25844 0.67527 0.35582 0.0
C789 C 0.06696 0.5082 0.10795 0.0
C790 C 0.0859 0.51317 0.14056 0.0
C791 C 0.06687 0.49505 0.05163 0.0
C792 C 0.08576 0.48699 0.02607 0.0
H793 H 0.05215 0.51413 0.12685 0.0
H794 H 0.05205 0.49157 0.02709 0.0
S795 S 0.13935 0.49552 0.09333 0.0
N796 N 0.12386 0.50902 0.1439 0.0
N797 N 0.1237 0.48469 0.03686 0.0
C798 C 0.10474 0.49196 0.058 0.0
C799 C 0.10481 0.505 0.11568 0.0
C800 C 0.19655 0.23609 0.1328 0.0
C801 C 0.2147 0.22591 0.15682 0.0
C802 C 0.19582 0.25807 0.12735 0.0
C803 C 0.21324 0.27042 0.14554 0.0
H804 H 0.18352 0.22703 0.11304 0.0
H805 H 0.18229 0.26523 0.10362 0.0
S806 S 0.2622 0.25184 0.22664 0.0
N807 N 0.24876 0.23019 0.21079 0.0
N808 N 0.24745 0.27137 0.1994 0.0
C809 C 0.23046 0.26061 0.17623 0.0
C810 C 0.23117 0.23836 0.18226 0.0
C811 C 0.00577 0.95243 0.30234 0.0
C812 C 0.01645 0.9718 0.30151 0.0
C813 C 0.9838 0.95152 0.30821 0.0
C814 C 0.97175 0.96997 0.31353 0.0
H815 H 0.01437 0.93785 0.29712 0.0
H816 H 0.9762 0.9363 0.30679 0.0
S817 S 0.99228 0.02456 0.32182 0.0
N818 N 0.01332 0.00981 0.31204 0.0
N819 N 0.97229 0.00808 0.32309 0.0
C820 C 0.98232 0.98939 0.31523 0.0
C821 C 0.00459 0.99031 0.3092 0.0
C822 C 0.25968 0.75713 0.62946 0.0
C823 C 0.27812 0.76899 0.62058 0.0
C824 C 0.26019 0.73522 0.63042 0.0
C825 C 0.27916 0.7242 0.62255 0.0
H826 H 0.24452 0.76478 0.63247 0.0
H827 H 0.2454 0.72686 0.63411 0.0
S828 S 0.33227 0.74785 0.60754 0.0
N829 N 0.31624 0.76818 0.61145 0.0
N830 N 0.31719 0.7268 0.61325 0.0
C831 C 0.29796 0.73583 0.61945 0.0
C832 C 0.29744 0.75828 0.61846 0.0
C833 C 0.48337 0.03841 0.85343 0.0
C834 C 0.47246 0.02147 0.82418 0.0
C835 C 0.5054 0.03939 0.85202 0.0
C836 C 0.51737 0.02348 0.82118 0.0
H837 H 0.47487 0.05111 0.87726 0.0
H838 H 0.51305 0.05283 0.87479 0.0
S839 S 0.49638 0.97591 0.73566 0.0
N840 N 0.4754 0.98849 0.76262 0.0
N841 N 0.51653 0.99031 0.76003 0.0
C842 C 0.50663 0.00636 0.79217 0.0
C843 C 0.48427 0.00537 0.79363 0.0
C844 C 0.22924 0.75815 -0.00339 0.0
C845 C 0.21151 0.76956 0.01748 0.0
C846 C 0.22954 0.73624 -0.00093 0.0
C847 C 0.2121 0.7248 0.02236 0.0
H848 H 0.2435 0.76622 -0.0183 0.0
H849 H 0.24399 0.72827 -0.01413 0.0
S850 S 0.16064 0.747 0.07314 0.0
N851 N 0.17515 0.76774 0.05467 0.0
N852 N 0.17569 0.72634 0.05913 0.0
C853 C 0.19357 0.73586 0.03749 0.0
C854 C 0.19327 0.75832 0.03506 0.0
C855 C 0.49042 0.98278 0.30264 0.0
C856 C 0.47988 0.96347 0.30924 0.0
C857 C 0.5123 0.98385 0.30115 0.0
C858 C 0.52471 0.96567 0.30622 0.0
H859 H 0.48174 -0.00262 0.30033 0.0
H860 H 0.51951 -0.00076 0.2978 0.0
S861 S 0.50491 0.91094 0.31836 0.0
N862 N 0.48346 0.92548 0.31614 0.0
N863 N 0.52484 0.92751 0.31337 0.0
C864 C 0.51444 0.94608 0.30907 0.0
C865 C 0.49198 0.94498 0.31058 0.0
C866 C 0.25902 0.23496 0.50827 0.0
C867 C 0.27762 0.22429 0.52472 0.0
C868 C 0.25857 0.25683 0.50358 0.0
C869 C 0.27667 0.26897 0.51588 0.0
H870 H 0.24439 0.22642 0.50253 0.0
H871 H 0.24356 0.26428 0.49427 0.0
S872 S 0.33017 0.24831 0.54947 0.0
N873 N 0.31522 0.22715 0.54432 0.0
N874 N 0.3144 0.26846 0.5361 0.0
C875 C 0.29583 0.25839 0.52594 0.0
C876 C 0.2963 0.23598 0.53028 0.0
C877 C 0.98769 0.04662 0.81582 0.0
C878 C 0.97668 0.03319 0.85969 0.0
C879 C 0.00979 0.04732 0.81623 0.0
C880 C 0.02144 0.03464 0.86061 0.0
H881 H 0.97924 0.05593 0.77915 0.0
H882 H 0.01777 0.05707 0.77964 0.0
S883 S -8e-05 -8e-05 -0.00629 0.0
N884 N 0.97905 0.00914 0.95444 0.0
N885 N 0.02029 0.0105 0.95523 0.0
C886 C 0.01052 0.0223 0.90759 0.0
C887 C 0.9882 0.02156 0.90712 0.0
C888 C 0.76299 0.7346 0.97464 0.0
C889 C 0.78003 0.72222 -0.00417 0.0
C890 C 0.76419 0.7565 0.9752 0.0
C891 C 0.78246 0.76691 -0.00303 0.0
H892 H 0.7481 0.72738 0.96174 0.0
H893 H 0.75017 0.76532 0.96279 0.0
S894 S 0.83281 0.74174 0.04482 0.0
N895 N 0.8168 0.72189 0.02932 0.0
N896 N 0.81903 0.76324 0.03042 0.0
C897 C 0.80038 0.75477 0.01101 0.0
C898 C 0.79917 0.73235 0.01043 0.0
C899 C 0.69837 0.23972 0.55052 0.0
C900 C 0.71405 0.22781 0.58277 0.0
C901 C 0.69912 0.26176 0.55007 0.0
C902 C 0.7156 0.27272 0.58178 0.0
H903 H 0.68544 0.23198 0.52515 0.0
H904 H 0.68677 0.27024 0.52435 0.0
S905 S 0.75975 0.24899 0.67767 0.0
N906 N 0.74603 0.22878 0.65003 0.0
N907 N 0.74744 0.26994 0.64917 0.0
C908 C 0.73123 0.26099 0.61493 0.0
C909 C 0.73046 0.23863 0.61543 0.0
C910 C 0.78665 0.2593 0.08751 0.0
C911 C 0.77286 0.27121 0.04748 0.0
C912 C 0.78578 0.23722 0.08755 0.0
C913 C 0.77108 0.22634 0.04758 0.0
H914 H 0.7979 0.26705 0.12003 0.0
H915 H 0.7964 0.22866 0.12009 0.0
S916 S 0.73334 0.25017 0.92721 0.0
N917 N 0.74535 0.27034 0.96234 0.0
N918 N 0.74373 0.22919 0.96248 0.0
C919 C 0.75776 0.23811 0.00554 0.0
C920 C 0.75865 0.26044 0.00547 0.0
C921 C 0.69731 0.73828 0.62582 0.0
C922 C 0.71466 0.72601 0.64508 0.0
C923 C 0.69838 0.76032 0.62746 0.0
C924 C 0.71683 0.77062 0.64846 0.0
H925 H 0.68356 0.73094 0.60389 0.0
H926 H 0.68544 0.76921 0.60659 0.0
S927 S 0.76433 0.74547 0.72018 0.0
N928 N 0.74913 0.72564 0.69765 0.0
N929 N 0.75112 0.76694 0.70099 0.0
C930 C 0.73323 0.75846 0.67525 0.0
C931 C 0.73216 0.73615 0.67345 0.0
C932 C 0.50458 0.45047 0.85221 0.0
C933 C 0.51522 0.46964 0.86218 0.0
C934 C 0.48253 0.44964 0.85086 0.0
C935 C 0.47047 0.46795 0.85935 0.0
H936 H 0.51329 0.43625 0.84158 0.0
H937 H 0.47496 0.43484 0.83912 0.0
S938 S 0.49067 0.52113 0.90053 0.0
N939 N 0.51194 0.50667 0.89059 0.0
N940 N 0.47066 0.5051 0.88778 0.0
C941 C 0.48091 0.48682 0.87476 0.0
C942 C 0.50325 0.48766 0.87625 0.0
C943 C 0.98357 0.55254 0.37777 0.0
C944 C 0.97192 0.5346 0.39564 0.0
C945 C 0.00564 0.55216 0.378 0.0
C946 C 0.0166 0.53383 0.39609 0.0
H947 H 0.97568 0.56631 0.35818 0.0
H948 H 0.01406 0.56567 0.35865 0.0
S949 S 0.99325 0.48466 0.46265 0.0
N950 N 0.97287 0.49949 0.44338 0.0
N951 N 0.01422 0.49878 0.44396 0.0
C952 C 0.00508 0.51669 0.42108 0.0
C953 C 0.98274 0.51707 0.42081 0.0
C954 C 0.98643 0.48308 0.74783 0.0
C955 C 0.9745 0.46572 0.76911 0.0
C956 C 0.00834 0.48264 0.74921 0.0
C957 C 0.01924 0.4648 0.77179 0.0
H958 H 0.9788 0.49765 0.73383 0.0
H959 H 0.01677 0.49687 0.73623 0.0
S960 S 0.99547 0.4139 0.82161 0.0
N961 N 0.97518 0.42915 0.80468 0.0
N962 N 0.01658 0.42832 0.80717 0.0
C963 C 0.00761 0.44657 0.78658 0.0
C964 C 0.98516 0.44703 0.78525 0.0
C965 C 0.48384 0.54465 0.2984 0.0
C966 C 0.47343 0.52529 0.29 0.0
C967 C 0.50584 0.5457 0.30204 0.0
C968 C 0.51815 0.52742 0.29762 0.0
H969 H 0.47495 0.55897 0.30564 0.0
H970 H 0.51314 0.56077 0.31185 0.0
S971 S 0.49878 0.47343 0.2633 0.0
N972 N 0.47733 0.48785 0.26831 0.0
N973 N 0.5185 0.48983 0.27555 0.0
C974 C 0.508 0.50822 0.28436 0.0
C975 C 0.48569 0.50715 0.28041 0.0
C976 C 0.25521 0.12001 0.31386 0.0
C977 C 0.23522 0.12557 0.28918 0.0
C978 C 0.25961 0.12071 0.38259 0.0
C979 C 0.24408 0.12669 0.42886 0.0
H980 H 0.26817 0.11737 0.27958 0.0
H981 H 0.27573 0.11854 0.39857 0.0
S982 S 0.18742 0.13454 0.39136 0.0
N983 N 0.19852 0.1314 0.31703 0.0
N984 N 0.20655 0.13215 0.44689 0.0
C985 C 0.22317 0.12833 0.40577 0.0
C986 C 0.21876 0.12784 0.33547 0.0
C987 C 0.09679 0.01802 0.51596 0.0
C988 C 0.10001 -0.00274 0.49344 0.0
C989 C 0.09749 0.02307 0.58423 0.0
C990 C 0.10141 0.00756 0.63258 0.0
H991 H 0.09283 0.03044 0.48098 0.0
H992 H 0.0939 0.03903 0.59926 0.0
S993 S 0.11469 0.95167 0.5995 0.0
N994 N 0.10996 0.96168 0.52447 0.0
N995 N 0.11139 0.97118 0.65315 0.0
C996 C 0.10618 0.98706 0.61061 0.0
C997 C 0.10545 0.9819 0.54096 0.0
C998 C 0.22064 0.86467 0.83155 0.0
C999 C 0.23628 0.868 0.88005 0.0
C1000 C 0.22578 0.86407 0.76329 0.0
C1001 C 0.24674 0.86663 0.74163 0.0
H1002 H 0.20485 0.8603 0.84636 0.0
H1003 H 0.21354 0.85953 0.72829 0.0
S1004 S 0.29161 0.88345 0.84759 0.0
N1005 N 0.27212 0.87977 0.90107 0.0
N1006 N 0.28186 0.87822 0.77245 0.0
C1007 C 0.26171 0.87336 0.78876 0.0
C1008 C 0.25642 0.87418 0.85824 0.0
C1009 C 0.38702 0.01556 0.06066 0.0
C1010 C 0.38346 -4e-05 0.01211 0.0
C1011 C 0.3889 0.01038 0.12859 0.0
C1012 C 0.38735 0.98938 0.15054 0.0
H1013 H 0.38983 0.0317 0.0459 0.0
H1014 H 0.39289 0.02286 0.16338 0.0
S1015 S 0.37283 0.94347 0.04542 0.0
N1016 N 0.37443 0.96324 -0.00801 0.0
N1017 N 0.37828 0.9535 0.11997 0.0
C1018 C 0.38157 0.97397 0.10352 0.0
C1019 C 0.37951 0.97927 0.03422 0.0
C1020 C 0.73789 0.87038 0.86981 0.0
C1021 C 0.75872 0.86869 0.89341 0.0
C1022 C 0.73353 0.87068 0.801 0.0
C1023 C 0.7499 0.86954 0.75393 0.0
H1024 H 0.72472 0.86909 0.90406 0.0
H1025 H 0.71729 0.86939 0.78519 0.0
S1026 S 0.8069 0.87451 0.79057 0.0
N1027 N 0.79569 0.87266 0.86518 0.0
N1028 N 0.78752 0.87381 0.73539 0.0
C1029 C 0.77067 0.87225 0.77707 0.0
C1030 C 0.77511 0.87168 0.84723 0.0
C1031 C 0.89111 0.01775 0.59947 0.0
C1032 C 0.88949 0.00245 0.64991 0.0
C1033 C 0.88998 0.01219 0.53151 0.0
C1034 C 0.88724 0.9911 0.51138 0.0
H1035 H 0.8944 0.03397 0.61225 0.0
H1036 H 0.89238 0.02447 0.49461 0.0
S1037 S 0.87784 0.94574 0.62437 0.0
N1038 N 0.88177 0.96579 0.67554 0.0
N1039 N 0.87989 0.95539 0.54763 0.0
C1040 C 0.88388 0.97592 0.56139 0.0
C1041 C 0.88494 0.98159 0.63068 0.0
C1042 C 0.72067 0.14578 0.26984 0.0
C1043 C 0.74125 0.141 0.2486 0.0
C1044 C 0.71507 0.14514 0.33778 0.0
C1045 C 0.72982 0.13964 0.38716 0.0
H1046 H 0.70895 0.15111 0.23422 0.0
H1047 H 0.69942 0.15015 0.35181 0.0
S1048 S 0.78453 0.12157 0.3567 0.0
N1049 N 0.77552 0.12769 0.28139 0.0
N1050 N 0.76501 0.12621 0.40925 0.0
C1051 C 0.74993 0.13306 0.36609 0.0
C1052 C 0.75566 0.13384 0.29681 0.0
C1053 C 0.61132 0.983 0.08737 0.0
C1054 C 0.61257 -0.00145 0.13721 0.0
C1055 C 0.61025 0.98841 0.01941 0.0
C1056 C 0.61029 0.0096 -0.00138 0.0
H1057 H 0.60974 0.96659 0.10085 0.0
H1058 H 0.60805 0.97582 -0.01658 0.0
S1059 S 0.61863 0.05595 0.10837 0.0
N1060 N 0.61784 0.03581 0.16056 0.0
N1061 N 0.61547 0.04593 0.03246 0.0
C1062 C 0.61373 0.02517 0.04737 0.0
C1063 C 0.61499 0.01965 0.11675 0.0
C1064 C 0.76522 0.6228 0.83621 0.0
C1065 C 0.74896 0.62252 0.88374 0.0
C1066 C 0.76063 0.62359 0.76759 0.0
C1067 C 0.73965 0.62436 0.74476 0.0
H1068 H 0.7814 0.62492 0.85178 0.0
H1069 H 0.7736 0.626 0.73318 0.0
S1070 S 0.69221 0.61482 0.84827 0.0
N1071 N 0.71171 0.61599 0.90293 0.0
N1072 N 0.70305 0.61807 0.77357 0.0
C1073 C 0.7236 0.61999 0.79103 0.0
C1074 C 0.7283 0.6189 0.86091 0.0
C1075 C 0.60789 0.48386 0.13246 0.0
C1076 C 0.61033 0.50479 0.15443 0.0
C1077 C 0.60737 0.47891 0.06403 0.0
C1078 C 0.60938 0.49469 0.01521 0.0
H1079 H 0.60472 0.47136 0.16797 0.0
H1080 H 0.60374 0.4629 0.04965 0.0
S1081 S 0.62226 0.5508 0.04679 0.0
N1082 N 0.61912 0.54058 0.1224 0.0
N1083 N 0.6185 0.53128 -0.00656 0.0
C1084 C 0.61455 0.51519 0.03658 0.0
C1085 C 0.61492 0.52025 0.10635 0.0
C1086 C 0.72117 0.35521 0.33501 0.0
C1087 C 0.73623 0.36059 0.38362 0.0
C1088 C 0.72652 0.3542 0.26692 0.0
C1089 C 0.74715 0.35847 0.24503 0.0
H1090 H 0.70549 0.35046 0.34982 0.0
H1091 H 0.71464 0.34889 0.2318 0.0
S1092 S 0.79113 0.37768 0.35089 0.0
N1093 N 0.7717 0.37357 0.40423 0.0
N1094 N 0.78177 0.37141 0.2761 0.0
C1095 C 0.76185 0.36564 0.29242 0.0
C1096 C 0.75637 0.36679 0.36175 0.0
C1097 C 0.87253 0.51308 0.61924 0.0
C1098 C 0.87557 0.49235 0.64209 0.0
C1099 C 0.87251 0.51775 0.55069 0.0
C1100 C 0.87529 0.50181 0.50276 0.0
H1101 H 0.87227 0.5261 0.65433 0.0
H1102 H 0.87233 0.53412 0.53583 0.0
S1103 S 0.8754 0.44438 0.53641 0.0
N1104 N 0.87543 0.45535 0.61165 0.0
N1105 N 0.87483 0.46401 0.48224 0.0
C1106 C 0.87441 0.48074 0.52472 0.0
C1107 C 0.87465 0.47601 0.59477 0.0
C1108 C 0.23254 0.37283 0.28539 0.0
C1109 C 0.24814 0.3671 0.23902 0.0
C1110 C 0.23702 0.37371 0.35401 0.0
C1111 C 0.25715 0.3686 0.37845 0.0
H1112 H 0.21636 0.37468 0.2696 0.0
H1113 H 0.22405 0.37618 0.38839 0.0
S1114 S 0.30501 0.36056 0.2757 0.0
N1115 N 0.28575 0.36244 0.22045 0.0
N1116 N 0.29395 0.36354 0.35014 0.0
C1117 C 0.2736 0.3666 0.33197 0.0
C1118 C 0.26911 0.36592 0.26179 0.0
C1119 C 0.3816 0.51665 0.01488 0.0
C1120 C 0.37717 0.49608 -0.00738 0.0
C1121 C 0.38146 0.52165 0.08336 0.0
C1122 C 0.3768 0.50626 0.1316 0.0
H1123 H 0.38697 0.52856 -0.02002 0.0
H1124 H 0.38691 0.53707 0.09857 0.0
S1125 S 0.35785 0.45208 0.09777 0.0
N1126 N 0.36353 0.46168 0.02284 0.0
N1127 N 0.36294 0.47114 0.15174 0.0
C1128 C 0.3695 0.48655 0.10931 0.0
C1129 C 0.3698 0.48141 0.03966 0.0
C1130 C 0.22496 0.63042 0.84354 0.0
C1131 C 0.24076 0.62837 0.89227 0.0
C1132 C 0.23 0.6305 0.77514 0.0
C1133 C 0.251 0.62867 0.75339 0.0
H1134 H 0.20896 0.63399 0.85806 0.0
H1135 H 0.21752 0.63393 0.73978 0.0
S1136 S 0.29687 0.61589 0.86064 0.0
N1137 N 0.27726 0.61907 0.91396 0.0
N1138 N 0.28676 0.61961 0.78514 0.0
C1139 C 0.26638 0.6235 0.80117 0.0
C1140 C 0.26123 0.62324 0.87082 0.0
C1141 C 0.116 0.51805 0.55863 0.0
C1142 C 0.11423 0.50192 0.51087 0.0
C1143 C 0.11701 0.51338 0.62711 0.0
C1144 C 0.11602 0.49244 0.64998 0.0
H1145 H 0.11458 0.53436 0.54389 0.0
H1146 H 0.11642 0.52639 0.66221 0.0
S1147 S 0.11963 0.44473 0.54372 0.0
N1148 N 0.11788 0.46435 0.48978 0.0
N1149 N 0.11926 0.45562 0.61908 0.0
C1150 C 0.11793 0.47627 0.6024 0.0
C1151 C 0.11711 0.48102 0.53247 0.0
loop_
_geom_bond_atom_site_label_1
_geom_bond_atom_site_label_2
_geom_bond_distance
_geom_bond_site_symmetry_2
_ccdc_geom_bond_type
C0 O1 1.306 . S
C0 O3 1.160 . S
O1 C0 1.306 . S
O1 Cd2 2.228 . S
Cd2 O1 2.228 . S
Cd2 O6 2.273 . S
Cd2 O10 2.277 . S
O3 C0 1.160 . S
O3 Cd4 2.203 . S
Cd4 O3 2.203 . S
Cd4 O6 2.411 . S
Cd4 O7 2.333 1_554 S
Cd4 O8 2.352 . S
Cd4 O12 2.277 . S
Cd4 O13 2.356 . S
C5 O10 1.209 . S
C5 O12 1.226 . S
O6 Cd2 2.273 . S
O6 Cd4 2.411 . S
O6 C9 1.320 1_554 S
O7 Cd4 2.333 1_556 S
O7 C9 1.214 . S
O8 Cd4 2.352 . S
O8 C11 1.258 . S
C9 O6 1.320 1_556 S
C9 O7 1.214 . S
O10 Cd2 2.277 . S
O10 C5 1.209 . S
C11 O8 1.258 . S
C11 O13 1.282 . S
O12 Cd4 2.277 . S
O12 C5 1.226 . S
O13 Cd4 2.356 . S
O13 C11 1.282 . S
C14 O15 1.322 . S
C14 O17 1.160 . S
O15 C14 1.322 . S
O15 Cd16 2.221 1_565 S
Cd16 O15 2.221 1_545 S
Cd16 O20 2.273 1_545 S
Cd16 O24 2.277 1_545 S
O17 C14 1.160 . S
O17 Cd18 2.203 . S
Cd18 O17 2.203 . S
Cd18 O20 2.411 . S
Cd18 O21 2.333 . S
Cd18 O22 2.352 . S
Cd18 O26 2.277 . S
Cd18 O27 2.356 . S
C19 O24 1.209 . S
C19 O26 1.226 . S
O20 Cd16 2.273 1_565 S
O20 Cd18 2.411 . S
O20 C23 1.320 . S
O21 Cd18 2.333 . S
O21 C23 1.214 . S
O22 Cd18 2.352 . S
O22 C25 1.258 . S
C23 O20 1.320 . S
C23 O21 1.214 . S
O24 Cd16 2.277 1_565 S
O24 C19 1.209 . S
C25 O22 1.258 . S
C25 O27 1.282 . S
O26 Cd18 2.277 . S
O26 C19 1.226 . S
O27 Cd18 2.356 . S
O27 C25 1.282 . S
C28 O29 1.306 . S
C28 O31 1.160 . S
O29 C28 1.306 . S
O29 Cd30 2.228 . S
Cd30 O29 2.228 . S
Cd30 O34 2.273 . S
Cd30 O38 2.277 . S
O31 C28 1.160 . S
O31 Cd32 2.203 . S
Cd32 O31 2.203 . S
Cd32 O34 2.411 . S
Cd32 O35 2.333 . S
Cd32 O36 2.352 . S
Cd32 O40 2.277 . S
Cd32 O41 2.356 . S
C33 O38 1.209 . S
C33 O40 1.226 . S
O34 Cd30 2.273 . S
O34 Cd32 2.411 . S
O34 C37 1.320 . S
O35 Cd32 2.333 . S
O35 C37 1.214 . S
O36 Cd32 2.352 . S
O36 C39 1.258 . S
C37 O34 1.320 . S
C37 O35 1.214 . S
O38 Cd30 2.277 . S
O38 C33 1.209 . S
C39 O36 1.258 . S
C39 O41 1.282 . S
O40 Cd32 2.277 . S
O40 C33 1.226 . S
O41 Cd32 2.356 . S
O41 C39 1.282 . S
C42 O43 1.306 . S
C42 O45 1.160 . S
O43 C42 1.306 . S
O43 Cd44 2.228 1_545 S
Cd44 O43 2.228 1_565 S
Cd44 O48 2.273 1_565 S
Cd44 O52 2.277 1_565 S
O45 C42 1.160 . S
O45 Cd46 2.203 . S
Cd46 O45 2.203 . S
Cd46 O48 2.411 . S
Cd46 O49 2.333 . S
Cd46 O50 2.352 . S
Cd46 O54 2.277 . S
Cd46 O55 2.356 . S
C47 O52 1.209 . S
C47 O54 1.226 . S
O48 Cd44 2.273 1_545 S
O48 Cd46 2.411 . S
O48 C51 1.320 . S
O49 Cd46 2.333 . S
O49 C51 1.214 . S
O50 Cd46 2.352 . S
O50 C53 1.258 . S
C51 O48 1.320 . S
C51 O49 1.214 . S
O52 Cd44 2.277 1_545 S
O52 C47 1.209 . S
C53 O50 1.258 . S
C53 O55 1.282 . S
O54 Cd46 2.277 . S
O54 C47 1.226 . S
O55 Cd46 2.356 . S
O55 C53 1.282 . S
C56 O57 1.306 1_556 S
C56 O59 1.160 1_556 S
O57 C56 1.306 1_554 S
O57 Cd58 2.228 . S
Cd58 O57 2.228 . S
Cd58 O62 2.273 . S
Cd58 O66 2.277 . S
O59 C56 1.160 1_554 S
O59 Cd60 2.203 . S
Cd60 O59 2.203 . S
Cd60 O62 2.411 . S
Cd60 O63 2.333 . S
Cd60 O64 2.352 . S
Cd60 O68 2.277 . S
Cd60 O69 2.356 . S
C61 O66 1.209 . S
C61 O68 1.226 . S
O62 Cd58 2.273 . S
O62 Cd60 2.411 . S
O62 C65 1.320 . S
O63 Cd60 2.333 . S
O63 C65 1.214 . S
O64 Cd60 2.352 . S
O64 C67 1.258 . S
C65 O62 1.320 . S
C65 O63 1.214 . S
O66 Cd58 2.277 . S
O66 C61 1.209 . S
C67 O64 1.258 . S
C67 O69 1.282 . S
O68 Cd60 2.277 . S
O68 C61 1.226 . S
O69 Cd60 2.356 . S
O69 C67 1.282 . S
C70 O71 1.322 . S
C70 O73 1.160 . S
O71 C70 1.322 . S
O71 Cd72 2.221 1_565 S
Cd72 O71 2.221 1_545 S
Cd72 O76 2.273 1_545 S
Cd72 O80 2.277 1_545 S
O73 C70 1.160 . S
O73 Cd74 2.203 . S
Cd74 O73 2.203 . S
Cd74 O76 2.411 . S
Cd74 O77 2.333 . S
Cd74 O78 2.352 . S
Cd74 O82 2.277 . S
Cd74 O83 2.356 . S
C75 O80 1.209 . S
C75 O82 1.226 . S
O76 Cd72 2.273 1_565 S
O76 Cd74 2.411 . S
O76 C79 1.320 . S
O77 Cd74 2.333 . S
O77 C79 1.214 . S
O78 Cd74 2.352 . S
O78 C81 1.258 . S
C79 O76 1.320 . S
C79 O77 1.214 . S
O80 Cd72 2.277 1_565 S
O80 C75 1.209 . S
C81 O78 1.258 . S
C81 O83 1.282 . S
O82 Cd74 2.277 . S
O82 C75 1.226 . S
O83 Cd74 2.356 . S
O83 C81 1.282 . S
C84 O85 1.306 . S
C84 O87 1.160 . S
O85 C84 1.306 . S
O85 Cd86 2.228 . S
Cd86 O85 2.228 . S
Cd86 O90 2.273 . S
Cd86 O94 2.277 . S
O87 C84 1.160 . S
O87 Cd88 2.203 . S
Cd88 O87 2.203 . S
Cd88 O90 2.411 . S
Cd88 O91 2.333 . S
Cd88 O92 2.352 . S
Cd88 O96 2.277 . S
Cd88 O97 2.356 . S
C89 O94 1.209 . S
C89 O96 1.226 . S
O90 Cd86 2.273 . S
O90 Cd88 2.411 . S
O90 C93 1.320 . S
O91 Cd88 2.333 . S
O91 C93 1.214 . S
O92 Cd88 2.352 . S
O92 C95 1.258 . S
C93 O90 1.320 . S
C93 O91 1.214 . S
O94 Cd86 2.277 . S
O94 C89 1.209 . S
C95 O92 1.258 . S
C95 O97 1.282 . S
O96 Cd88 2.277 . S
O96 C89 1.226 . S
O97 Cd88 2.356 . S
O97 C95 1.282 . S
C98 O99 1.306 . S
C98 O101 1.160 . S
O99 C98 1.306 . S
O99 Cd100 2.228 1_545 S
Cd100 O99 2.228 1_565 S
Cd100 O104 2.273 1_565 S
Cd100 O108 2.277 1_565 S
O101 C98 1.160 . S
O101 Cd102 2.203 . S
Cd102 O101 2.203 . S
Cd102 O104 2.411 . S
Cd102 O105 2.333 . S
Cd102 O106 2.352 . S
Cd102 O110 2.277 . S
Cd102 O111 2.356 . S
C103 O108 1.209 . S
C103 O110 1.226 . S
O104 Cd100 2.273 1_545 S
O104 Cd102 2.411 . S
O104 C107 1.320 . S
O105 Cd102 2.333 . S
O105 C107 1.214 . S
O106 Cd102 2.352 . S
O106 C109 1.258 . S
C107 O104 1.320 . S
C107 O105 1.214 . S
O108 Cd100 2.277 1_545 S
O108 C103 1.209 . S
C109 O106 1.258 . S
C109 O111 1.282 . S
O110 Cd102 2.277 . S
O110 C103 1.226 . S
O111 Cd102 2.356 . S
O111 C109 1.282 . S
C112 O113 1.306 1_556 S
C112 O115 1.160 1_556 S
O113 C112 1.306 1_554 S
O113 Cd114 2.228 . S
Cd114 O113 2.228 . S
Cd114 O118 2.273 . S
Cd114 O122 2.277 . S
O115 C112 1.160 1_554 S
O115 Cd116 2.203 . S
Cd116 O115 2.203 . S
Cd116 O118 2.411 . S
Cd116 O119 2.333 . S
Cd116 O120 2.352 . S
Cd116 O124 2.277 . S
Cd116 O125 2.356 . S
C117 O122 1.209 . S
C117 O124 1.226 . S
O118 Cd114 2.273 . S
O118 Cd116 2.411 . S
O118 C121 1.320 . S
O119 Cd116 2.333 . S
O119 C121 1.214 . S
O120 Cd116 2.352 . S
O120 C123 1.258 . S
C121 O118 1.320 . S
C121 O119 1.214 . S
O122 Cd114 2.277 . S
O122 C117 1.209 . S
C123 O120 1.258 . S
C123 O125 1.282 . S
O124 Cd116 2.277 . S
O124 C117 1.226 . S
O125 Cd116 2.356 . S
O125 C123 1.282 . S
C126 O127 1.306 . S
C126 O129 1.160 . S
O127 C126 1.306 . S
O127 Cd128 2.228 1_545 S
Cd128 O127 2.228 1_565 S
Cd128 O132 2.273 1_565 S
Cd128 O136 2.277 1_565 S
O129 C126 1.160 . S
O129 Cd130 2.203 . S
Cd130 O129 2.203 . S
Cd130 O132 2.411 . S
Cd130 O133 2.333 . S
Cd130 O134 2.352 . S
Cd130 O138 2.277 . S
Cd130 O139 2.356 . S
C131 O136 1.209 . S
C131 O138 1.226 . S
O132 Cd128 2.273 1_545 S
O132 Cd130 2.411 . S
O132 C135 1.320 . S
O133 Cd130 2.333 . S
O133 C135 1.214 . S
O134 Cd130 2.352 . S
O134 C137 1.258 . S
C135 O132 1.320 . S
C135 O133 1.214 . S
O136 Cd128 2.277 1_545 S
O136 C131 1.209 . S
C137 O134 1.258 . S
C137 O139 1.282 . S
O138 Cd130 2.277 . S
O138 C131 1.226 . S
O139 Cd130 2.356 . S
O139 C137 1.282 . S
C140 O141 1.306 . S
C140 O143 1.160 . S
O141 C140 1.306 . S
O141 Cd142 2.228 . S
Cd142 O141 2.228 . S
Cd142 O146 2.273 . S
Cd142 O150 2.277 . S
O143 C140 1.160 . S
O143 Cd144 2.203 . S
Cd144 O143 2.203 . S
Cd144 O146 2.411 . S
Cd144 O147 2.333 . S
Cd144 O148 2.352 . S
Cd144 O152 2.277 . S
Cd144 O153 2.356 . S
C145 O150 1.209 . S
C145 O152 1.226 . S
O146 Cd142 2.273 . S
O146 Cd144 2.411 . S
O146 C149 1.320 . S
O147 Cd144 2.333 . S
O147 C149 1.214 . S
O148 Cd144 2.352 . S
O148 C151 1.258 . S
C149 O146 1.320 . S
C149 O147 1.214 . S
O150 Cd142 2.277 . S
O150 C145 1.209 . S
C151 O148 1.258 . S
C151 O153 1.282 . S
O152 Cd144 2.277 . S
O152 C145 1.226 . S
O153 Cd144 2.356 . S
O153 C151 1.282 . S
C154 O155 1.322 . S
C154 O157 1.160 . S
O155 C154 1.322 . S
O155 Cd156 2.221 1_565 S
Cd156 O155 2.221 1_545 S
Cd156 O160 2.273 1_545 S
Cd156 O164 2.277 1_545 S
O157 C154 1.160 . S
O157 Cd158 2.203 . S
Cd158 O157 2.203 . S
Cd158 O160 2.411 . S
Cd158 O161 2.333 . S
Cd158 O162 2.352 . S
Cd158 O166 2.277 . S
Cd158 O167 2.356 . S
C159 O164 1.209 . S
C159 O166 1.226 . S
O160 Cd156 2.273 1_565 S
O160 Cd158 2.411 . S
O160 C163 1.320 . S
O161 Cd158 2.333 . S
O161 C163 1.214 . S
O162 Cd158 2.352 . S
O162 C165 1.258 . S
C163 O160 1.320 . S
C163 O161 1.214 . S
O164 Cd156 2.277 1_565 S
O164 C159 1.209 . S
C165 O162 1.258 . S
C165 O167 1.282 . S
O166 Cd158 2.277 . S
O166 C159 1.226 . S
O167 Cd158 2.356 . S
O167 C165 1.282 . S
C168 O169 1.306 . S
C168 O171 1.160 . S
O169 C168 1.306 . S
O169 Cd170 2.228 . S
Cd170 O169 2.228 . S
Cd170 O174 2.273 . S
Cd170 O178 2.277 . S
O171 C168 1.160 . S
O171 Cd172 2.203 . S
Cd172 O171 2.203 . S
Cd172 O174 2.411 . S
Cd172 O175 2.333 1_554 S
Cd172 O176 2.352 . S
Cd172 O180 2.277 . S
Cd172 O181 2.356 . S
C173 O178 1.209 . S
C173 O180 1.226 . S
O174 Cd170 2.273 . S
O174 Cd172 2.411 . S
O174 C177 1.320 1_554 S
O175 Cd172 2.333 1_556 S
O175 C177 1.214 . S
O176 Cd172 2.352 . S
O176 C179 1.258 . S
C177 O174 1.320 1_556 S
C177 O175 1.214 . S
O178 Cd170 2.277 . S
O178 C173 1.209 . S
C179 O176 1.258 . S
C179 O181 1.282 . S
O180 Cd172 2.277 . S
O180 C173 1.226 . S
O181 Cd172 2.356 . S
O181 C179 1.282 . S
C182 O183 1.306 . S
C182 O185 1.160 . S
O183 C182 1.306 . S
O183 Cd184 2.228 1_545 S
Cd184 O183 2.228 1_565 S
Cd184 O188 2.273 1_565 S
Cd184 O192 2.277 1_565 S
O185 C182 1.160 . S
O185 Cd186 2.203 . S
Cd186 O185 2.203 . S
Cd186 O188 2.411 . S
Cd186 O189 2.333 . S
Cd186 O190 2.352 . S
Cd186 O194 2.277 . S
Cd186 O195 2.356 . S
C187 O192 1.209 . S
C187 O194 1.226 . S
O188 Cd184 2.273 1_545 S
O188 Cd186 2.411 . S
O188 C191 1.320 . S
O189 Cd186 2.333 . S
O189 C191 1.214 . S
O190 Cd186 2.352 . S
O190 C193 1.258 . S
C191 O188 1.320 . S
C191 O189 1.214 . S
O192 Cd184 2.277 1_545 S
O192 C187 1.209 . S
C193 O190 1.258 . S
C193 O195 1.282 . S
O194 Cd186 2.277 . S
O194 C187 1.226 . S
O195 Cd186 2.356 . S
O195 C193 1.282 . S
C196 O197 1.306 . S
C196 O199 1.160 . S
O197 C196 1.306 . S
O197 Cd198 2.228 . S
Cd198 O197 2.228 . S
Cd198 O202 2.273 . S
Cd198 O206 2.277 . S
O199 C196 1.160 . S
O199 Cd200 2.203 . S
Cd200 O199 2.203 . S
Cd200 O202 2.411 . S
Cd200 O203 2.333 . S
Cd200 O204 2.352 . S
Cd200 O208 2.277 . S
Cd200 O209 2.356 . S
C201 O206 1.209 . S
C201 O208 1.226 . S
O202 Cd198 2.273 . S
O202 Cd200 2.411 . S
O202 C205 1.320 . S
O203 Cd200 2.333 . S
O203 C205 1.214 . S
O204 Cd200 2.352 . S
O204 C207 1.258 . S
C205 O202 1.320 . S
C205 O203 1.214 . S
O206 Cd198 2.277 . S
O206 C201 1.209 . S
C207 O204 1.258 . S
C207 O209 1.282 . S
O208 Cd200 2.277 . S
O208 C201 1.226 . S
O209 Cd200 2.356 . S
O209 C207 1.282 . S
C210 O211 1.322 . S
C210 O213 1.160 . S
O211 C210 1.322 . S
O211 Cd212 2.221 1_565 S
Cd212 O211 2.221 1_545 S
Cd212 O216 2.273 1_545 S
Cd212 O220 2.277 1_545 S
O213 C210 1.160 . S
O213 Cd214 2.203 . S
Cd214 O213 2.203 . S
Cd214 O216 2.411 . S
Cd214 O217 2.333 . S
Cd214 O218 2.352 . S
Cd214 O222 2.277 . S
Cd214 O223 2.356 . S
C215 O220 1.209 . S
C215 O222 1.226 . S
O216 Cd212 2.273 1_565 S
O216 Cd214 2.411 . S
O216 C219 1.320 . S
O217 Cd214 2.333 . S
O217 C219 1.214 . S
O218 Cd214 2.352 . S
O218 C221 1.258 . S
C219 O216 1.320 . S
C219 O217 1.214 . S
O220 Cd212 2.277 1_565 S
O220 C215 1.209 . S
C221 O218 1.258 . S
C221 O223 1.282 . S
O222 Cd214 2.277 . S
O222 C215 1.226 . S
O223 Cd214 2.356 . S
O223 C221 1.282 . S
C224 O225 1.306 . S
C224 O227 1.160 . S
O225 C224 1.306 . S
O225 Cd226 2.228 . S
Cd226 O225 2.228 . S
Cd226 O230 2.273 . S
Cd226 O234 2.277 . S
O227 C224 1.160 . S
O227 Cd228 2.203 . S
Cd228 O227 2.203 . S
Cd228 O230 2.411 . S
Cd228 O231 2.333 . S
Cd228 O232 2.352 . S
Cd228 O236 2.277 . S
Cd228 O237 2.356 . S
C229 O234 1.209 . S
C229 O236 1.226 . S
O230 Cd226 2.273 . S
O230 Cd228 2.411 . S
O230 C233 1.320 . S
O231 Cd228 2.333 . S
O231 C233 1.214 . S
O232 Cd228 2.352 . S
O232 C235 1.258 . S
C233 O230 1.320 . S
C233 O231 1.214 . S
O234 Cd226 2.277 . S
O234 C229 1.209 . S
C235 O232 1.258 . S
C235 O237 1.282 . S
O236 Cd228 2.277 . S
O236 C229 1.226 . S
O237 Cd228 2.356 . S
O237 C235 1.282 . S
C238 O239 1.306 . S
C238 O241 1.160 . S
O239 C238 1.306 . S
O239 Cd240 2.228 . S
Cd240 O239 2.228 . S
Cd240 O244 2.273 . S
Cd240 O248 2.277 . S
O241 C238 1.160 . S
O241 Cd242 2.203 . S
Cd242 O241 2.203 . S
Cd242 O244 2.411 . S
Cd242 O245 2.333 . S
Cd242 O246 2.352 . S
Cd242 O250 2.277 . S
Cd242 O251 2.356 . S
C243 O248 1.209 . S
C243 O250 1.226 . S
O244 Cd240 2.273 . S
O244 Cd242 2.411 . S
O244 C247 1.320 . S
O245 Cd242 2.333 . S
O245 C247 1.214 . S
O246 Cd242 2.352 . S
O246 C249 1.258 . S
C247 O244 1.320 . S
C247 O245 1.214 . S
O248 Cd240 2.277 . S
O248 C243 1.209 . S
C249 O246 1.258 . S
C249 O251 1.282 . S
O250 Cd242 2.277 . S
O250 C243 1.226 . S
O251 Cd242 2.356 . S
O251 C249 1.282 . S
C252 O253 1.306 . S
C252 O255 1.160 . S
O253 C252 1.306 . S
O253 Cd254 2.228 . S
Cd254 O253 2.228 . S
Cd254 O258 2.273 . S
Cd254 O262 2.277 . S
O255 C252 1.160 . S
O255 Cd256 2.203 . S
Cd256 O255 2.203 . S
Cd256 O258 2.411 . S
Cd256 O259 2.333 1_554 S
Cd256 O260 2.352 . S
Cd256 O264 2.277 . S
Cd256 O265 2.356 . S
C257 O262 1.209 . S
C257 O264 1.226 . S
O258 Cd254 2.273 . S
O258 Cd256 2.411 . S
O258 C261 1.320 1_554 S
O259 Cd256 2.333 1_556 S
O259 C261 1.214 . S
O260 Cd256 2.352 . S
O260 C263 1.258 . S
C261 O258 1.320 1_556 S
C261 O259 1.214 . S
O262 Cd254 2.277 . S
O262 C257 1.209 . S
C263 O260 1.258 . S
C263 O265 1.282 . S
O264 Cd256 2.277 . S
O264 C257 1.226 . S
O265 Cd256 2.356 . S
O265 C263 1.282 . S
C266 O267 1.306 . S
C266 O269 1.160 . S
O267 C266 1.306 . S
O267 Cd268 2.228 . S
Cd268 O267 2.228 . S
Cd268 O272 2.273 . S
Cd268 O276 2.277 . S
O269 C266 1.160 . S
O269 Cd270 2.203 . S
Cd270 O269 2.203 . S
Cd270 O272 2.411 . S
Cd270 O273 2.333 . S
Cd270 O274 2.352 . S
Cd270 O278 2.277 . S
Cd270 O279 2.356 . S
C271 O276 1.209 . S
C271 O278 1.226 . S
O272 Cd268 2.273 . S
O272 Cd270 2.411 . S
O272 C275 1.320 . S
O273 Cd270 2.333 . S
O273 C275 1.214 . S
O274 Cd270 2.352 . S
O274 C277 1.258 . S
C275 O272 1.320 . S
C275 O273 1.214 . S
O276 Cd268 2.277 . S
O276 C271 1.209 . S
C277 O274 1.258 . S
C277 O279 1.282 . S
O278 Cd270 2.277 . S
O278 C271 1.226 . S
O279 Cd270 2.356 . S
O279 C277 1.282 . S
C280 O281 1.306 . S
C280 O283 1.160 . S
O281 C280 1.306 . S
O281 Cd282 2.228 . S
Cd282 O281 2.228 . S
Cd282 O286 2.273 . S
Cd282 O290 2.277 . S
O283 C280 1.160 . S
O283 Cd284 2.203 . S
Cd284 O283 2.203 . S
Cd284 O286 2.411 . S
Cd284 O287 2.333 . S
Cd284 O288 2.352 . S
Cd284 O292 2.277 . S
Cd284 O293 2.356 . S
C285 O290 1.209 . S
C285 O292 1.226 . S
O286 Cd282 2.273 . S
O286 Cd284 2.411 . S
O286 C289 1.320 . S
O287 Cd284 2.333 . S
O287 C289 1.214 . S
O288 Cd284 2.352 . S
O288 C291 1.258 . S
C289 O286 1.320 . S
C289 O287 1.214 . S
O290 Cd282 2.277 . S
O290 C285 1.209 . S
C291 O288 1.258 . S
C291 O293 1.282 . S
O292 Cd284 2.277 . S
O292 C285 1.226 . S
O293 Cd284 2.356 . S
O293 C291 1.282 . S
C294 O295 1.306 . S
C294 O297 1.160 . S
O295 C294 1.306 . S
O295 Cd296 2.228 . S
Cd296 O295 2.228 . S
Cd296 O300 2.273 . S
Cd296 O304 2.277 . S
O297 C294 1.160 . S
O297 Cd298 2.203 . S
Cd298 O297 2.203 . S
Cd298 O300 2.411 . S
Cd298 O301 2.333 . S
Cd298 O302 2.352 . S
Cd298 O306 2.277 . S
Cd298 O307 2.356 . S
C299 O304 1.209 . S
C299 O306 1.226 . S
O300 Cd296 2.273 . S
O300 Cd298 2.411 . S
O300 C303 1.320 . S
O301 Cd298 2.333 . S
O301 C303 1.214 . S
O302 Cd298 2.352 . S
O302 C305 1.258 . S
C303 O300 1.320 . S
C303 O301 1.214 . S
O304 Cd296 2.277 . S
O304 C299 1.209 . S
C305 O302 1.258 . S
C305 O307 1.282 . S
O306 Cd298 2.277 . S
O306 C299 1.226 . S
O307 Cd298 2.356 . S
O307 C305 1.282 . S
C308 O309 1.306 1_556 S
C308 O311 1.160 1_556 S
O309 C308 1.306 1_554 S
O309 Cd310 2.228 . S
Cd310 O309 2.228 . S
Cd310 O314 2.273 . S
Cd310 O318 2.277 . S
O311 C308 1.160 1_554 S
O311 Cd312 2.203 . S
Cd312 O311 2.203 . S
Cd312 O314 2.411 . S
Cd312 O315 2.333 . S
Cd312 O316 2.352 . S
Cd312 O320 2.277 . S
Cd312 O321 2.356 . S
C313 O318 1.209 . S
C313 O320 1.226 . S
O314 Cd310 2.273 . S
O314 Cd312 2.411 . S
O314 C317 1.320 . S
O315 Cd312 2.333 . S
O315 C317 1.214 . S
O316 Cd312 2.352 . S
O316 C319 1.258 . S
C317 O314 1.320 . S
C317 O315 1.214 . S
O318 Cd310 2.277 . S
O318 C313 1.209 . S
C319 O316 1.258 . S
C319 O321 1.282 . S
O320 Cd312 2.277 . S
O320 C313 1.226 . S
O321 Cd312 2.356 . S
O321 C319 1.282 . S
C322 O323 1.306 . S
C322 O325 1.160 . S
O323 C322 1.306 . S
O323 Cd324 2.228 . S
Cd324 O323 2.228 . S
Cd324 O328 2.273 . S
Cd324 O332 2.277 . S
O325 C322 1.160 . S
O325 Cd326 2.203 . S
Cd326 O325 2.203 . S
Cd326 O328 2.411 . S
Cd326 O329 2.333 . S
Cd326 O330 2.352 . S
Cd326 O334 2.277 . S
Cd326 O335 2.356 . S
C327 O332 1.209 . S
C327 O334 1.226 . S
O328 Cd324 2.273 . S
O328 Cd326 2.411 . S
O328 C331 1.320 . S
O329 Cd326 2.333 . S
O329 C331 1.214 . S
O330 Cd326 2.352 . S
O330 C333 1.258 . S
C331 O328 1.320 . S
C331 O329 1.214 . S
O332 Cd324 2.277 . S
O332 C327 1.209 . S
C333 O330 1.258 . S
C333 O335 1.282 . S
O334 Cd326 2.277 . S
O334 C327 1.226 . S
O335 Cd326 2.356 . S
O335 C333 1.282 . S
C336 O337 1.306 . S
C336 O339 1.160 . S
O337 C336 1.306 . S
O337 Cd338 2.228 . S
Cd338 O337 2.228 . S
Cd338 O342 2.273 . S
Cd338 O346 2.277 . S
O339 C336 1.160 . S
O339 Cd340 2.203 . S
Cd340 O339 2.203 . S
Cd340 O342 2.411 . S
Cd340 O343 2.333 . S
Cd340 O344 2.352 . S
Cd340 O348 2.277 . S
Cd340 O349 2.356 . S
C341 O346 1.209 . S
C341 O348 1.226 . S
O342 Cd338 2.273 . S
O342 Cd340 2.411 . S
O342 C345 1.320 . S
O343 Cd340 2.333 . S
O343 C345 1.214 . S
O344 Cd340 2.352 . S
O344 C347 1.258 . S
C345 O342 1.320 . S
C345 O343 1.214 . S
O346 Cd338 2.277 . S
O346 C341 1.209 . S
C347 O344 1.258 . S
C347 O349 1.282 . S
O348 Cd340 2.277 . S
O348 C341 1.226 . S
O349 Cd340 2.356 . S
O349 C347 1.282 . S
C350 O351 1.306 . S
C350 O353 1.160 . S
O351 C350 1.306 . S
O351 Cd352 2.228 . S
Cd352 O351 2.228 . S
Cd352 O356 2.273 . S
Cd352 O360 2.277 . S
O353 C350 1.160 . S
O353 Cd354 2.203 . S
Cd354 O353 2.203 . S
Cd354 O356 2.411 . S
Cd354 O357 2.333 . S
Cd354 O358 2.352 . S
Cd354 O362 2.277 . S
Cd354 O363 2.356 . S
C355 O360 1.209 . S
C355 O362 1.226 . S
O356 Cd352 2.273 . S
O356 Cd354 2.411 . S
O356 C359 1.320 . S
O357 Cd354 2.333 . S
O357 C359 1.214 . S
O358 Cd354 2.352 . S
O358 C361 1.258 . S
C359 O356 1.320 . S
C359 O357 1.214 . S
O360 Cd352 2.277 . S
O360 C355 1.209 . S
C361 O358 1.258 . S
C361 O363 1.282 . S
O362 Cd354 2.277 . S
O362 C355 1.226 . S
O363 Cd354 2.356 . S
O363 C361 1.282 . S
C364 O365 1.306 1_556 S
C364 O367 1.160 1_556 S
O365 C364 1.306 1_554 S
O365 Cd366 2.228 . S
Cd366 O365 2.228 . S
Cd366 O370 2.273 . S
Cd366 O374 2.277 . S
O367 C364 1.160 1_554 S
O367 Cd368 2.203 . S
Cd368 O367 2.203 . S
Cd368 O370 2.411 . S
Cd368 O371 2.333 . S
Cd368 O372 2.352 . S
Cd368 O376 2.277 . S
Cd368 O377 2.356 . S
C369 O374 1.209 . S
C369 O376 1.226 . S
O370 Cd366 2.273 . S
O370 Cd368 2.411 . S
O370 C373 1.320 . S
O371 Cd368 2.333 . S
O371 C373 1.214 . S
O372 Cd368 2.352 . S
O372 C375 1.258 . S
C373 O370 1.320 . S
C373 O371 1.214 . S
O374 Cd366 2.277 . S
O374 C369 1.209 . S
C375 O372 1.258 . S
C375 O377 1.282 . S
O376 Cd368 2.277 . S
O376 C369 1.226 . S
O377 Cd368 2.356 . S
O377 C375 1.282 . S
C378 O379 1.306 . S
C378 O381 1.160 . S
O379 C378 1.306 . S
O379 Cd380 2.228 . S
Cd380 O379 2.228 . S
Cd380 O384 2.273 . S
Cd380 O388 2.277 . S
O381 C378 1.160 . S
O381 Cd382 2.203 . S
Cd382 O381 2.203 . S
Cd382 O384 2.411 . S
Cd382 O385 2.333 . S
Cd382 O386 2.352 . S
Cd382 O390 2.277 . S
Cd382 O391 2.356 . S
C383 O388 1.209 . S
C383 O390 1.226 . S
O384 Cd380 2.273 . S
O384 Cd382 2.411 . S
O384 C387 1.320 . S
O385 Cd382 2.333 . S
O385 C387 1.214 . S
O386 Cd382 2.352 . S
O386 C389 1.258 . S
C387 O384 1.320 . S
C387 O385 1.214 . S
O388 Cd380 2.277 . S
O388 C383 1.209 . S
C389 O386 1.258 . S
C389 O391 1.282 . S
O390 Cd382 2.277 . S
O390 C383 1.226 . S
O391 Cd382 2.356 . S
O391 C389 1.282 . S
C392 O393 1.306 . S
C392 O395 1.160 . S
O393 C392 1.306 . S
O393 Cd394 2.228 . S
Cd394 O393 2.228 . S
Cd394 O398 2.273 . S
Cd394 O402 2.277 . S
O395 C392 1.160 . S
O395 Cd396 2.203 . S
Cd396 O395 2.203 . S
Cd396 O398 2.411 . S
Cd396 O399 2.333 . S
Cd396 O400 2.352 . S
Cd396 O404 2.277 . S
Cd396 O405 2.356 . S
C397 O402 1.209 . S
C397 O404 1.226 . S
O398 Cd394 2.273 . S
O398 Cd396 2.411 . S
O398 C401 1.320 . S
O399 Cd396 2.333 . S
O399 C401 1.214 . S
O400 Cd396 2.352 . S
O400 C403 1.258 . S
C401 O398 1.320 . S
C401 O399 1.214 . S
O402 Cd394 2.277 . S
O402 C397 1.209 . S
C403 O400 1.258 . S
C403 O405 1.282 . S
O404 Cd396 2.277 . S
O404 C397 1.226 . S
O405 Cd396 2.356 . S
O405 C403 1.282 . S
C406 O407 1.306 . S
C406 O409 1.160 . S
O407 C406 1.306 . S
O407 Cd408 2.228 . S
Cd408 O407 2.228 . S
Cd408 O412 2.273 . S
Cd408 O416 2.277 . S
O409 C406 1.160 . S
O409 Cd410 2.203 . S
Cd410 O409 2.203 . S
Cd410 O412 2.411 . S
Cd410 O413 2.333 . S
Cd410 O414 2.352 . S
Cd410 O418 2.277 . S
Cd410 O419 2.356 . S
C411 O416 1.209 . S
C411 O418 1.226 . S
O412 Cd408 2.273 . S
O412 Cd410 2.411 . S
O412 C415 1.320 . S
O413 Cd410 2.333 . S
O413 C415 1.214 . S
O414 Cd410 2.352 . S
O414 C417 1.258 . S
C415 O412 1.320 . S
C415 O413 1.214 . S
O416 Cd408 2.277 . S
O416 C411 1.209 . S
C417 O414 1.258 . S
C417 O419 1.282 . S
O418 Cd410 2.277 . S
O418 C411 1.226 . S
O419 Cd410 2.356 . S
O419 C417 1.282 . S
C420 O421 1.306 . S
C420 O423 1.160 . S
O421 C420 1.306 . S
O421 Cd422 2.228 . S
Cd422 O421 2.228 . S
Cd422 O426 2.273 . S
Cd422 O430 2.277 . S
O423 C420 1.160 . S
O423 Cd424 2.203 . S
Cd424 O423 2.203 . S
Cd424 O426 2.411 . S
Cd424 O427 2.333 1_554 S
Cd424 O428 2.352 . S
Cd424 O432 2.277 . S
Cd424 O433 2.356 . S
C425 O430 1.209 . S
C425 O432 1.226 . S
O426 Cd422 2.273 . S
O426 Cd424 2.411 . S
O426 C429 1.320 1_554 S
O427 Cd424 2.333 1_556 S
O427 C429 1.214 . S
O428 Cd424 2.352 . S
O428 C431 1.258 . S
C429 O426 1.320 1_556 S
C429 O427 1.214 . S
O430 Cd422 2.277 . S
O430 C425 1.209 . S
C431 O428 1.258 . S
C431 O433 1.282 . S
O432 Cd424 2.277 . S
O432 C425 1.226 . S
O433 Cd424 2.356 . S
O433 C431 1.282 . S
C434 O435 1.306 . S
C434 O437 1.160 . S
O435 C434 1.306 . S
O435 Cd436 2.228 . S
Cd436 O435 2.228 . S
Cd436 O440 2.273 . S
Cd436 O444 2.277 . S
O437 C434 1.160 . S
O437 Cd438 2.203 . S
Cd438 O437 2.203 . S
Cd438 O440 2.411 . S
Cd438 O441 2.333 . S
Cd438 O442 2.352 . S
Cd438 O446 2.277 . S
Cd438 O447 2.356 . S
C439 O444 1.209 . S
C439 O446 1.226 . S
O440 Cd436 2.273 . S
O440 Cd438 2.411 . S
O440 C443 1.320 . S
O441 Cd438 2.333 . S
O441 C443 1.214 . S
O442 Cd438 2.352 . S
O442 C445 1.258 . S
C443 O440 1.320 . S
C443 O441 1.214 . S
O444 Cd436 2.277 . S
O444 C439 1.209 . S
C445 O442 1.258 . S
C445 O447 1.282 . S
O446 Cd438 2.277 . S
O446 C439 1.226 . S
O447 Cd438 2.356 . S
O447 C445 1.282 . S
C448 C449 1.369 . S
C448 C450 1.419 1_556 S
C448 H452 0.930 1_556 S
C449 C448 1.369 . S
C449 C458 1.429 . S
C450 C448 1.419 1_554 S
C450 C451 1.363 . S
C450 H453 0.929 . S
C451 C450 1.363 . S
C451 C457 1.428 1_554 S
H452 C448 0.930 1_554 S
H453 C450 0.929 . S
S454 N455 1.613 . S
S454 N456 1.610 . S
N455 S454 1.613 . S
N455 C458 1.350 . S
N456 S454 1.610 . S
N456 C457 1.351 . S
C457 C451 1.428 1_556 S
C457 N456 1.351 . S
C457 C458 1.434 . S
C458 C449 1.429 . S
C458 N455 1.350 . S
C458 C457 1.434 . S
C459 C460 1.369 . S
C459 C461 1.419 . S
C459 H463 0.930 . S
C460 C459 1.369 . S
C460 C469 1.429 . S
C461 C459 1.419 . S
C461 C462 1.363 . S
C461 H464 0.929 . S
C462 C461 1.363 . S
C462 C468 1.428 . S
H463 C459 0.930 . S
H464 C461 0.929 . S
S465 N466 1.613 . S
S465 N467 1.610 . S
N466 S465 1.613 . S
N466 C469 1.350 . S
N467 S465 1.610 . S
N467 C468 1.351 . S
C468 C462 1.428 . S
C468 N467 1.351 . S
C468 C469 1.434 . S
C469 C460 1.429 . S
C469 N466 1.350 . S
C469 C468 1.434 . S
C470 C471 1.369 . S
C470 C472 1.419 . S
C470 H474 0.930 . S
C471 C470 1.369 . S
C471 C480 1.429 . S
C472 C470 1.419 . S
C472 C473 1.363 . S
C472 H475 0.929 . S
C473 C472 1.363 . S
C473 C479 1.428 . S
H474 C470 0.930 . S
H475 C472 0.929 . S
S476 N477 1.613 . S
S476 N478 1.610 . S
N477 S476 1.613 . S
N477 C480 1.350 . S
N478 S476 1.610 . S
N478 C479 1.351 . S
C479 C473 1.428 . S
C479 N478 1.351 . S
C479 C480 1.434 . S
C480 C471 1.429 . S
C480 N477 1.350 . S
C480 C479 1.434 . S
C481 C482 1.369 . S
C481 C483 1.419 . S
C481 H485 0.930 . S
C482 C481 1.369 . S
C482 C491 1.429 . S
C483 C481 1.419 . S
C483 C484 1.363 . S
C483 H486 0.929 . S
C484 C483 1.363 . S
C484 C490 1.428 . S
H485 C481 0.930 . S
H486 C483 0.929 . S
S487 N488 1.613 . S
S487 N489 1.610 . S
N488 S487 1.613 . S
N488 C491 1.350 . S
N489 S487 1.610 . S
N489 C490 1.351 . S
C490 C484 1.428 . S
C490 N489 1.351 . S
C490 C491 1.434 . S
C491 C482 1.429 . S
C491 N488 1.350 . S
C491 C490 1.434 . S
C492 C493 1.369 . S
C492 C494 1.419 . S
C492 H496 0.930 . S
C493 C492 1.369 . S
C493 C502 1.429 . S
C494 C492 1.419 . S
C494 C495 1.363 . S
C494 H497 0.929 . S
C495 C494 1.363 . S
C495 C501 1.428 . S
H496 C492 0.930 . S
H497 C494 0.929 . S
S498 N499 1.613 . S
S498 N500 1.610 . S
N499 S498 1.613 . S
N499 C502 1.350 . S
N500 S498 1.610 . S
N500 C501 1.351 . S
C501 C495 1.428 . S
C501 N500 1.351 . S
C501 C502 1.434 . S
C502 C493 1.429 . S
C502 N499 1.350 . S
C502 C501 1.434 . S
C503 C504 1.369 . S
C503 C505 1.419 . S
C503 H507 0.930 . S
C504 C503 1.369 . S
C504 C513 1.429 . S
C505 C503 1.419 . S
C505 C506 1.363 1_556 S
C505 H508 0.929 . S
C506 C505 1.363 1_554 S
C506 C512 1.428 . S
H507 C503 0.930 . S
H508 C505 0.929 . S
S509 N510 1.613 . S
S509 N511 1.610 . S
N510 S509 1.613 . S
N510 C513 1.350 1_554 S
N511 S509 1.610 . S
N511 C512 1.351 . S
C512 C506 1.428 . S
C512 N511 1.351 . S
C512 C513 1.434 1_554 S
C513 C504 1.429 . S
C513 N510 1.350 1_556 S
C513 C512 1.434 1_556 S
C514 C515 1.369 . S
C514 C516 1.419 . S
C514 H518 0.930 . S
C515 C514 1.369 . S
C515 C524 1.429 . S
C516 C514 1.419 . S
C516 C517 1.363 . S
C516 H519 0.929 . S
C517 C516 1.363 . S
C517 C523 1.428 . S
H518 C514 0.930 . S
H519 C516 0.929 . S
S520 N521 1.613 . S
S520 N522 1.610 . S
N521 S520 1.613 . S
N521 C524 1.350 . S
N522 S520 1.610 . S
N522 C523 1.351 . S
C523 C517 1.428 . S
C523 N522 1.351 . S
C523 C524 1.434 . S
C524 C515 1.429 . S
C524 N521 1.350 . S
C524 C523 1.434 . S
C525 C526 1.369 . S
C525 C527 1.419 . S
C525 H529 0.930 . S
C526 C525 1.369 . S
C526 C535 1.429 . S
C527 C525 1.419 . S
C527 C528 1.363 . S
C527 H530 0.929 . S
C528 C527 1.363 . S
C528 C534 1.428 . S
H529 C525 0.930 . S
H530 C527 0.929 . S
S531 N532 1.613 . S
S531 N533 1.610 . S
N532 S531 1.613 . S
N532 C535 1.350 . S
N533 S531 1.610 . S
N533 C534 1.351 . S
C534 C528 1.428 . S
C534 N533 1.351 . S
C534 C535 1.434 . S
C535 C526 1.429 . S
C535 N532 1.350 . S
C535 C534 1.434 . S
C536 C537 1.369 . S
C536 C538 1.419 . S
C536 H540 0.930 . S
C537 C536 1.369 . S
C537 C546 1.429 . S
C538 C536 1.419 . S
C538 C539 1.363 . S
C538 H541 0.929 . S
C539 C538 1.363 . S
C539 C545 1.428 . S
H540 C536 0.930 . S
H541 C538 0.929 . S
S542 N543 1.613 . S
S542 N544 1.610 . S
N543 S542 1.613 . S
N543 C546 1.350 . S
N544 S542 1.610 . S
N544 C545 1.351 . S
C545 C539 1.428 . S
C545 N544 1.351 . S
C545 C546 1.434 . S
C546 C537 1.429 . S
C546 N543 1.350 . S
C546 C545 1.434 . S
C547 C548 1.369 . S
C547 C549 1.419 . S
C547 H551 0.930 . S
C548 C547 1.369 . S
C548 C557 1.429 . S
C549 C547 1.419 . S
C549 C550 1.363 . S
C549 H552 0.929 . S
C550 C549 1.363 . S
C550 C556 1.428 . S
H551 C547 0.930 . S
H552 C549 0.929 . S
S553 N554 1.613 . S
S553 N555 1.610 . S
N554 S553 1.613 . S
N554 C557 1.350 . S
N555 S553 1.610 . S
N555 C556 1.351 . S
C556 C550 1.428 . S
C556 N555 1.351 . S
C556 C557 1.434 . S
C557 C548 1.429 . S
C557 N554 1.350 . S
C557 C556 1.434 . S
C558 C559 1.369 . S
C558 C560 1.419 1_556 S
C558 H562 0.930 . S
C559 C558 1.369 . S
C559 C568 1.429 . S
C560 C558 1.419 1_554 S
C560 C561 1.363 . S
C560 H563 0.929 . S
C561 C560 1.363 . S
C561 C567 1.428 1_554 S
H562 C558 0.930 . S
H563 C560 0.929 . S
S564 N565 1.613 . S
S564 N566 1.610 . S
N565 S564 1.613 . S
N565 C568 1.350 . S
N566 S564 1.610 . S
N566 C567 1.351 . S
C567 C561 1.428 1_556 S
C567 N566 1.351 . S
C567 C568 1.434 . S
C568 C559 1.429 . S
C568 N565 1.350 . S
C568 C567 1.434 . S
C569 C570 1.369 . S
C569 C571 1.419 . S
C569 H573 0.930 . S
C570 C569 1.369 . S
C570 C579 1.429 . S
C571 C569 1.419 . S
C571 C572 1.363 . S
C571 H574 0.929 . S
C572 C571 1.363 . S
C572 C578 1.428 . S
H573 C569 0.930 . S
H574 C571 0.929 . S
S575 N576 1.613 . S
S575 N577 1.610 . S
N576 S575 1.613 . S
N576 C579 1.350 . S
N577 S575 1.610 . S
N577 C578 1.351 . S
C578 C572 1.428 . S
C578 N577 1.351 . S
C578 C579 1.434 . S
C579 C570 1.429 . S
C579 N576 1.350 . S
C579 C578 1.434 . S
C580 C581 1.369 . S
C580 C582 1.419 . S
C580 H584 0.930 . S
C581 C580 1.369 . S
C581 C590 1.429 . S
C582 C580 1.419 . S
C582 C583 1.363 . S
C582 H585 0.929 . S
C583 C582 1.363 . S
C583 C589 1.428 . S
H584 C580 0.930 . S
H585 C582 0.929 . S
S586 N587 1.613 . S
S586 N588 1.610 . S
N587 S586 1.613 . S
N587 C590 1.350 . S
N588 S586 1.610 . S
N588 C589 1.351 . S
C589 C583 1.428 . S
C589 N588 1.351 . S
C589 C590 1.434 . S
C590 C581 1.429 . S
C590 N587 1.350 . S
C590 C589 1.434 . S
C591 C592 1.369 . S
C591 C593 1.419 . S
C591 H595 0.930 . S
C592 C591 1.369 . S
C592 C601 1.429 . S
C593 C591 1.419 . S
C593 C594 1.363 . S
C593 H596 0.929 . S
C594 C593 1.363 . S
C594 C600 1.428 . S
H595 C591 0.930 . S
H596 C593 0.929 . S
S597 N598 1.613 . S
S597 N599 1.610 . S
N598 S597 1.613 . S
N598 C601 1.350 . S
N599 S597 1.610 . S
N599 C600 1.351 . S
C600 C594 1.428 . S
C600 N599 1.351 . S
C600 C601 1.434 . S
C601 C592 1.429 . S
C601 N598 1.350 . S
C601 C600 1.434 . S
C602 C603 1.369 . S
C602 C604 1.419 . S
C602 H606 0.930 . S
C603 C602 1.369 . S
C603 C612 1.429 . S
C604 C602 1.419 . S
C604 C605 1.363 . S
C604 H607 0.929 . S
C605 C604 1.363 . S
C605 C611 1.428 . S
H606 C602 0.930 . S
H607 C604 0.929 . S
S608 N609 1.613 . S
S608 N610 1.610 . S
N609 S608 1.613 . S
N609 C612 1.350 . S
N610 S608 1.610 . S
N610 C611 1.351 . S
C611 C605 1.428 . S
C611 N610 1.351 . S
C611 C612 1.434 . S
C612 C603 1.429 . S
C612 N609 1.350 . S
C612 C611 1.434 . S
C613 C614 1.369 . S
C613 C615 1.419 . S
C613 H617 0.930 . S
C614 C613 1.369 . S
C614 C623 1.429 . S
C615 C613 1.419 . S
C615 C616 1.363 1_556 S
C615 H618 0.929 . S
C616 C615 1.363 1_554 S
C616 C622 1.429 . S
H617 C613 0.930 . S
H618 C615 0.929 . S
S619 N620 1.613 . S
S619 N621 1.610 1_556 S
N620 S619 1.613 . S
N620 C623 1.350 . S
N621 S619 1.610 1_554 S
N621 C622 1.351 . S
C622 C616 1.429 . S
C622 N621 1.351 . S
C622 C623 1.433 1_554 S
C623 C614 1.429 . S
C623 N620 1.350 . S
C623 C622 1.433 1_556 S
C624 C625 1.369 . S
C624 C626 1.419 . S
C624 H628 0.930 . S
C625 C624 1.369 . S
C625 C634 1.429 . S
C626 C624 1.419 . S
C626 C627 1.363 . S
C626 H629 0.929 . S
C627 C626 1.363 . S
C627 C633 1.428 . S
H628 C624 0.930 . S
H629 C626 0.929 . S
S630 N631 1.613 . S
S630 N632 1.610 . S
N631 S630 1.613 . S
N631 C634 1.350 . S
N632 S630 1.610 . S
N632 C633 1.351 . S
C633 C627 1.428 . S
C633 N632 1.351 . S
C633 C634 1.434 . S
C634 C625 1.429 . S
C634 N631 1.350 . S
C634 C633 1.434 . S
C635 C636 1.369 1_545 S
C635 C637 1.419 . S
C635 H639 0.930 . S
C636 C635 1.369 1_565 S
C636 C645 1.429 . S
C637 C635 1.419 . S
C637 C638 1.363 . S
C637 H640 0.929 . S
C638 C637 1.363 . S
C638 C644 1.428 1_545 S
H639 C635 0.930 . S
H640 C637 0.929 . S
S641 N642 1.613 . S
S641 N643 1.610 1_554 S
N642 S641 1.613 . S
N642 C645 1.350 . S
N643 S641 1.610 1_556 S
N643 C644 1.351 1_556 S
C644 C638 1.428 1_565 S
C644 N643 1.351 1_554 S
C644 C645 1.434 . S
C645 C636 1.429 . S
C645 N642 1.350 . S
C645 C644 1.434 . S
C646 C647 1.369 . S
C646 C648 1.419 . S
C646 H650 0.930 . S
C647 C646 1.369 . S
C647 C656 1.429 . S
C648 C646 1.419 . S
C648 C649 1.363 . S
C648 H651 0.929 . S
C649 C648 1.363 . S
C649 C655 1.428 . S
H650 C646 0.930 . S
H651 C648 0.929 . S
S652 N653 1.613 . S
S652 N654 1.610 . S
N653 S652 1.613 . S
N653 C656 1.350 . S
N654 S652 1.610 . S
N654 C655 1.351 . S
C655 C649 1.428 . S
C655 N654 1.351 . S
C655 C656 1.434 . S
C656 C647 1.429 . S
C656 N653 1.350 . S
C656 C655 1.434 . S
C657 C658 1.369 . S
C657 C659 1.419 . S
C657 H661 0.930 . S
C658 C657 1.369 . S
C658 C667 1.429 1_545 S
C659 C657 1.419 . S
C659 C660 1.363 1_545 S
C659 H662 0.929 . S
C660 C659 1.363 1_565 S
C660 C666 1.428 . S
H661 C657 0.930 . S
H662 C659 0.929 . S
S663 N664 1.613 . S
S663 N665 1.610 . S
N664 S663 1.613 . S
N664 C667 1.350 . S
N665 S663 1.610 . S
N665 C666 1.351 . S
C666 C660 1.428 . S
C666 N665 1.351 . S
C666 C667 1.434 . S
C667 C658 1.429 1_565 S
C667 N664 1.350 . S
C667 C666 1.434 . S
C668 C669 1.369 . S
C668 C670 1.419 . S
C668 H672 0.930 . S
C669 C668 1.369 . S
C669 C678 1.429 . S
C670 C668 1.419 . S
C670 C671 1.363 . S
C670 H673 0.929 . S
C671 C670 1.363 . S
C671 C677 1.428 . S
H672 C668 0.930 . S
H673 C670 0.929 . S
S674 N675 1.613 . S
S674 N676 1.610 . S
N675 S674 1.613 . S
N675 C678 1.350 . S
N676 S674 1.610 . S
N676 C677 1.351 . S
C677 C671 1.428 . S
C677 N676 1.351 . S
C677 C678 1.434 . S
C678 C669 1.429 . S
C678 N675 1.350 . S
C678 C677 1.434 . S
C679 C680 1.369 . S
C679 C681 1.425 . S
C679 H683 0.930 . S
C680 C679 1.369 . S
C680 C689 1.429 . S
C681 C679 1.425 . S
C681 C682 1.358 1_545 S
C681 H684 0.928 1_545 S
C682 C681 1.358 1_565 S
C682 C688 1.428 . S
H683 C679 0.930 . S
H684 C681 0.928 1_565 S
S685 N686 1.613 1_565 S
S685 N687 1.610 . S
N686 S685 1.613 1_545 S
N686 C689 1.350 . S
N687 S685 1.610 . S
N687 C688 1.351 . S
C688 C682 1.428 . S
C688 N687 1.351 . S
C688 C689 1.434 1_565 S
C689 C680 1.429 . S
C689 N686 1.350 . S
C689 C688 1.434 1_545 S
C690 C691 1.369 . S
C690 C692 1.419 . S
C690 H694 0.930 . S
C691 C690 1.369 . S
C691 C700 1.429 . S
C692 C690 1.419 . S
C692 C693 1.363 . S
C692 H695 0.929 . S
C693 C692 1.363 . S
C693 C699 1.428 . S
H694 C690 0.930 . S
H695 C692 0.929 . S
S696 N697 1.613 . S
S696 N698 1.610 . S
N697 S696 1.613 . S
N697 C700 1.350 . S
N698 S696 1.610 . S
N698 C699 1.351 . S
C699 C693 1.428 . S
C699 N698 1.351 . S
C699 C700 1.434 . S
C700 C691 1.429 . S
C700 N697 1.350 . S
C700 C699 1.434 . S
C701 C702 1.369 1_565 S
C701 C703 1.419 . S
C701 H705 0.930 . S
C702 C701 1.369 1_545 S
C702 C711 1.429 . S
C703 C701 1.419 . S
C703 C704 1.363 . S
C703 H706 0.929 . S
C704 C703 1.363 . S
C704 C710 1.428 1_565 S
H705 C701 0.930 . S
H706 C703 0.929 . S
S707 N708 1.613 . S
S707 N709 1.610 . S
N708 S707 1.613 . S
N708 C711 1.350 . S
N709 S707 1.610 . S
N709 C710 1.351 . S
C710 C704 1.428 1_545 S
C710 N709 1.351 . S
C710 C711 1.434 . S
C711 C702 1.429 . S
C711 N708 1.350 . S
C711 C710 1.434 . S
C712 C713 1.369 . S
C712 C714 1.419 . S
C712 H716 0.930 . S
C713 C712 1.369 . S
C713 C722 1.429 . S
C714 C712 1.419 . S
C714 C715 1.363 . S
C714 H717 0.929 . S
C715 C714 1.363 . S
C715 C721 1.428 . S
H716 C712 0.930 . S
H717 C714 0.929 . S
S718 N719 1.613 . S
S718 N720 1.610 . S
N719 S718 1.613 . S
N719 C722 1.350 . S
N720 S718 1.610 . S
N720 C721 1.351 . S
C721 C715 1.428 . S
C721 N720 1.351 . S
C721 C722 1.434 . S
C722 C713 1.429 . S
C722 N719 1.350 . S
C722 C721 1.434 . S
C723 C724 1.369 . S
C723 C725 1.419 . S
C723 H727 0.930 . S
C724 C723 1.369 . S
C724 C733 1.429 . S
C725 C723 1.419 . S
C725 C726 1.363 . S
C725 H728 0.929 . S
C726 C725 1.363 . S
C726 C732 1.428 . S
H727 C723 0.930 . S
H728 C725 0.929 . S
S729 N730 1.613 . S
S729 N731 1.610 . S
N730 S729 1.613 . S
N730 C733 1.350 . S
N731 S729 1.610 . S
N731 C732 1.351 . S
C732 C726 1.428 . S
C732 N731 1.351 . S
C732 C733 1.434 . S
C733 C724 1.429 . S
C733 N730 1.350 . S
C733 C732 1.434 . S
C734 C735 1.369 . S
C734 C736 1.419 . S
C734 H738 0.930 . S
C735 C734 1.369 . S
C735 C744 1.429 . S
C736 C734 1.419 . S
C736 C737 1.363 . S
C736 H739 0.929 . S
C737 C736 1.363 . S
C737 C743 1.428 . S
H738 C734 0.930 . S
H739 C736 0.929 . S
S740 N741 1.613 . S
S740 N742 1.610 . S
N741 S740 1.613 . S
N741 C744 1.350 . S
N742 S740 1.610 . S
N742 C743 1.351 . S
C743 C737 1.428 . S
C743 N742 1.351 . S
C743 C744 1.434 . S
C744 C735 1.429 . S
C744 N741 1.350 . S
C744 C743 1.434 . S
C745 C746 1.369 . S
C745 C747 1.419 . S
C745 H749 0.930 . S
C746 C745 1.369 . S
C746 C755 1.429 . S
C747 C745 1.419 . S
C747 C748 1.363 . S
C747 H750 0.929 . S
C748 C747 1.363 . S
C748 C754 1.428 . S
H749 C745 0.930 . S
H750 C747 0.929 . S
S751 N752 1.613 . S
S751 N753 1.610 . S
N752 S751 1.613 . S
N752 C755 1.350 . S
N753 S751 1.610 . S
N753 C754 1.351 . S
C754 C748 1.428 . S
C754 N753 1.351 . S
C754 C755 1.434 . S
C755 C746 1.429 . S
C755 N752 1.350 . S
C755 C754 1.434 . S
C756 C757 1.369 . S
C756 C758 1.419 . S
C756 H760 0.930 . S
C757 C756 1.369 . S
C757 C766 1.429 . S
C758 C756 1.419 . S
C758 C759 1.363 . S
C758 H761 0.929 . S
C759 C758 1.363 . S
C759 C765 1.428 . S
H760 C756 0.930 . S
H761 C758 0.929 . S
S762 N763 1.613 . S
S762 N764 1.610 . S
N763 S762 1.613 . S
N763 C766 1.350 . S
N764 S762 1.610 . S
N764 C765 1.351 . S
C765 C759 1.428 . S
C765 N764 1.351 . S
C765 C766 1.434 . S
C766 C757 1.429 . S
C766 N763 1.350 . S
C766 C765 1.434 . S
C767 C768 1.369 . S
C767 C769 1.419 . S
C767 H771 0.930 . S
C768 C767 1.369 . S
C768 C777 1.429 . S
C769 C767 1.419 . S
C769 C770 1.363 . S
C769 H772 0.929 . S
C770 C769 1.363 . S
C770 C776 1.428 . S
H771 C767 0.930 . S
H772 C769 0.929 . S
S773 N774 1.613 . S
S773 N775 1.610 . S
N774 S773 1.613 . S
N774 C777 1.350 . S
N775 S773 1.610 . S
N775 C776 1.351 . S
C776 C770 1.428 . S
C776 N775 1.351 . S
C776 C777 1.434 . S
C777 C768 1.429 . S
C777 N774 1.350 . S
C777 C776 1.434 . S
C778 C779 1.369 . S
C778 C780 1.419 . S
C778 H782 0.930 . S
C779 C778 1.369 . S
C779 C788 1.429 . S
C780 C778 1.419 . S
C780 C781 1.363 . S
C780 H783 0.929 . S
C781 C780 1.363 . S
C781 C787 1.428 . S
H782 C778 0.930 . S
H783 C780 0.929 . S
S784 N785 1.613 . S
S784 N786 1.610 . S
N785 S784 1.613 . S
N785 C788 1.350 . S
N786 S784 1.610 . S
N786 C787 1.351 . S
C787 C781 1.428 . S
C787 N786 1.351 . S
C787 C788 1.434 . S
C788 C779 1.429 . S
C788 N785 1.350 . S
C788 C787 1.434 . S
C789 C790 1.369 . S
C789 C791 1.419 . S
C789 H793 0.930 . S
C790 C789 1.369 . S
C790 C799 1.429 . S
C791 C789 1.419 . S
C791 C792 1.363 . S
C791 H794 0.929 . S
C792 C791 1.363 . S
C792 C798 1.428 . S
H793 C789 0.930 . S
H794 C791 0.929 . S
S795 N796 1.613 . S
S795 N797 1.610 . S
N796 S795 1.613 . S
N796 C799 1.350 . S
N797 S795 1.610 . S
N797 C798 1.351 . S
C798 C792 1.428 . S
C798 N797 1.351 . S
C798 C799 1.434 . S
C799 C790 1.429 . S
C799 N796 1.350 . S
C799 C798 1.434 . S
C800 C801 1.369 . S
C800 C802 1.419 . S
C800 H804 0.930 1_554 S
C801 C800 1.369 . S
C801 C810 1.429 . S
C802 C800 1.419 . S
C802 C803 1.363 . S
C802 H805 0.929 1_554 S
C803 C802 1.363 . S
C803 C809 1.428 . S
H804 C800 0.930 1_556 S
H805 C802 0.929 1_556 S
S806 N807 1.613 . S
S806 N808 1.610 . S
N807 S806 1.613 . S
N807 C810 1.350 . S
N808 S806 1.610 . S
N808 C809 1.351 . S
C809 C803 1.428 . S
C809 N808 1.351 . S
C809 C810 1.434 . S
C810 C801 1.429 . S
C810 N807 1.350 . S
C810 C809 1.434 . S
C811 C812 1.369 . S
C811 C813 1.419 1_455 S
C811 H815 0.930 . S
C812 C811 1.369 . S
C812 C821 1.429 . S
C813 C811 1.419 1_655 S
C813 C814 1.363 . S
C813 H816 0.929 . S
C814 C813 1.363 . S
C814 C820 1.428 . S
H815 C811 0.930 . S
H816 C813 0.929 . S
S817 N818 1.627 1_655 S
S817 N819 1.619 . S
N818 S817 1.627 1_455 S
N818 C821 1.335 1_545 S
N819 S817 1.619 . S
N819 C820 1.332 1_545 S
C820 C814 1.428 . S
C820 N819 1.332 1_565 S
C820 C821 1.434 1_655 S
C821 C812 1.429 . S
C821 N818 1.335 1_565 S
C821 C820 1.434 1_455 S
C822 C823 1.369 . S
C822 C824 1.419 . S
C822 H826 0.930 . S
C823 C822 1.369 . S
C823 C832 1.429 . S
C824 C822 1.419 . S
C824 C825 1.363 . S
C824 H827 0.929 . S
C825 C824 1.363 . S
C825 C831 1.428 . S
H826 C822 0.930 . S
H827 C824 0.929 . S
S828 N829 1.613 . S
S828 N830 1.610 . S
N829 S828 1.613 . S
N829 C832 1.350 . S
N830 S828 1.610 . S
N830 C831 1.351 . S
C831 C825 1.428 . S
C831 N830 1.351 . S
C831 C832 1.434 . S
C832 C823 1.429 . S
C832 N829 1.350 . S
C832 C831 1.434 . S
C833 C834 1.369 . S
C833 C835 1.419 . S
C833 H837 0.930 . S
C834 C833 1.369 . S
C834 C843 1.429 . S
C835 C833 1.419 . S
C835 C836 1.363 . S
C835 H838 0.929 . S
C836 C835 1.363 . S
C836 C842 1.428 . S
H837 C833 0.930 . S
H838 C835 0.929 . S
S839 N840 1.613 . S
S839 N841 1.610 . S
N840 S839 1.613 . S
N840 C843 1.350 . S
N841 S839 1.610 . S
N841 C842 1.351 . S
C842 C836 1.428 . S
C842 N841 1.351 . S
C842 C843 1.434 . S
C843 C834 1.429 . S
C843 N840 1.350 . S
C843 C842 1.434 . S
C844 C845 1.369 . S
C844 C846 1.419 . S
C844 H848 0.930 . S
C845 C844 1.369 . S
C845 C854 1.429 . S
C846 C844 1.419 . S
C846 C847 1.363 . S
C846 H849 0.929 . S
C847 C846 1.363 . S
C847 C853 1.428 . S
H848 C844 0.930 . S
H849 C846 0.929 . S
S850 N851 1.613 . S
S850 N852 1.610 . S
N851 S850 1.613 . S
N851 C854 1.350 . S
N852 S850 1.610 . S
N852 C853 1.351 . S
C853 C847 1.428 . S
C853 N852 1.351 . S
C853 C854 1.434 . S
C854 C845 1.429 . S
C854 N851 1.350 . S
C854 C853 1.434 . S
C855 C856 1.369 . S
C855 C857 1.419 . S
C855 H859 0.930 . S
C856 C855 1.369 . S
C856 C865 1.429 . S
C857 C855 1.419 . S
C857 C858 1.363 . S
C857 H860 0.929 . S
C858 C857 1.363 . S
C858 C864 1.428 . S
H859 C855 0.930 . S
H860 C857 0.929 . S
S861 N862 1.613 . S
S861 N863 1.610 . S
N862 S861 1.613 . S
N862 C865 1.350 . S
N863 S861 1.610 . S
N863 C864 1.351 . S
C864 C858 1.428 . S
C864 N863 1.351 . S
C864 C865 1.434 . S
C865 C856 1.429 . S
C865 N862 1.350 . S
C865 C864 1.434 . S
C866 C867 1.369 . S
C866 C868 1.419 . S
C866 H870 0.930 . S
C867 C866 1.369 . S
C867 C876 1.429 . S
C868 C866 1.419 . S
C868 C869 1.363 . S
C868 H871 0.929 . S
C869 C868 1.363 . S
C869 C875 1.428 . S
H870 C866 0.930 . S
H871 C868 0.929 . S
S872 N873 1.613 . S
S872 N874 1.610 . S
N873 S872 1.613 . S
N873 C876 1.350 . S
N874 S872 1.610 . S
N874 C875 1.351 . S
C875 C869 1.428 . S
C875 N874 1.351 . S
C875 C876 1.434 . S
C876 C867 1.429 . S
C876 N873 1.350 . S
C876 C875 1.434 . S
C877 C878 1.369 . S
C877 C879 1.419 1_655 S
C877 H881 0.930 . S
C878 C877 1.369 . S
C878 C887 1.429 . S
C879 C877 1.419 1_455 S
C879 C880 1.363 . S
C879 H882 0.929 . S
C880 C879 1.363 . S
C880 C886 1.428 . S
H881 C877 0.930 . S
H882 C879 0.929 . S
S883 N884 1.617 1_454 S
S883 N885 1.606 1_554 S
N884 S883 1.617 1_656 S
N884 C887 1.350 . S
N885 S883 1.606 1_556 S
N885 C886 1.351 . S
C886 C880 1.428 . S
C886 N885 1.351 . S
C886 C887 1.434 1_455 S
C887 C878 1.429 . S
C887 N884 1.350 . S
C887 C886 1.434 1_655 S
C888 C889 1.369 . S
C888 C890 1.419 . S
C888 H892 0.930 . S
C889 C888 1.369 . S
C889 C898 1.429 . S
C890 C888 1.419 . S
C890 C891 1.363 . S
C890 H893 0.929 . S
C891 C890 1.363 . S
C891 C897 1.428 . S
H892 C888 0.930 . S
H893 C890 0.929 . S
S894 N895 1.613 1_556 S
S894 N896 1.610 1_556 S
N895 S894 1.613 1_554 S
N895 C898 1.350 . S
N896 S894 1.610 1_554 S
N896 C897 1.351 . S
C897 C891 1.428 . S
C897 N896 1.351 . S
C897 C898 1.434 . S
C898 C889 1.429 . S
C898 N895 1.350 . S
C898 C897 1.434 . S
C899 C900 1.369 . S
C899 C901 1.419 . S
C899 H903 0.930 . S
C900 C899 1.369 . S
C900 C909 1.429 . S
C901 C899 1.419 . S
C901 C902 1.363 . S
C901 H904 0.929 . S
C902 C901 1.363 . S
C902 C908 1.428 . S
H903 C899 0.930 . S
H904 C901 0.929 . S
S905 N906 1.613 . S
S905 N907 1.610 . S
N906 S905 1.613 . S
N906 C909 1.350 . S
N907 S905 1.610 . S
N907 C908 1.351 . S
C908 C902 1.428 . S
C908 N907 1.351 . S
C908 C909 1.434 . S
C909 C900 1.429 . S
C909 N906 1.350 . S
C909 C908 1.434 . S
C910 C911 1.369 . S
C910 C912 1.419 . S
C910 H914 0.930 . S
C911 C910 1.369 . S
C911 C920 1.429 . S
C912 C910 1.419 . S
C912 C913 1.363 . S
C912 H915 0.929 . S
C913 C912 1.363 . S
C913 C919 1.428 . S
H914 C910 0.930 . S
H915 C912 0.929 . S
S916 N917 1.613 . S
S916 N918 1.610 . S
N917 S916 1.613 . S
N917 C920 1.350 1_556 S
N918 S916 1.610 . S
N918 C919 1.351 1_556 S
C919 C913 1.428 . S
C919 N918 1.351 1_554 S
C919 C920 1.434 . S
C920 C911 1.429 . S
C920 N917 1.350 1_554 S
C920 C919 1.434 . S
C921 C922 1.369 . S
C921 C923 1.419 . S
C921 H925 0.930 . S
C922 C921 1.369 . S
C922 C931 1.429 . S
C923 C921 1.419 . S
C923 C924 1.363 . S
C923 H926 0.929 . S
C924 C923 1.363 . S
C924 C930 1.428 . S
H925 C921 0.930 . S
H926 C923 0.929 . S
S927 N928 1.613 . S
S927 N929 1.610 . S
N928 S927 1.613 . S
N928 C931 1.350 . S
N929 S927 1.610 . S
N929 C930 1.351 . S
C930 C924 1.428 . S
C930 N929 1.351 . S
C930 C931 1.434 . S
C931 C922 1.429 . S
C931 N928 1.350 . S
C931 C930 1.434 . S
C932 C933 1.369 . S
C932 C934 1.419 . S
C932 H936 0.930 . S
C933 C932 1.369 . S
C933 C942 1.429 . S
C934 C932 1.419 . S
C934 C935 1.363 . S
C934 H937 0.929 . S
C935 C934 1.363 . S
C935 C941 1.428 . S
H936 C932 0.930 . S
H937 C934 0.929 . S
S938 N939 1.613 . S
S938 N940 1.610 . S
N939 S938 1.613 . S
N939 C942 1.350 . S
N940 S938 1.610 . S
N940 C941 1.351 . S
C941 C935 1.428 . S
C941 N940 1.351 . S
C941 C942 1.434 . S
C942 C933 1.429 . S
C942 N939 1.350 . S
C942 C941 1.434 . S
C943 C944 1.369 . S
C943 C945 1.419 1_655 S
C943 H947 0.930 . S
C944 C943 1.369 . S
C944 C953 1.429 . S
C945 C943 1.419 1_455 S
C945 C946 1.363 . S
C945 H948 0.929 . S
C946 C945 1.363 . S
C946 C952 1.428 . S
H947 C943 0.930 . S
H948 C945 0.929 . S
S949 N950 1.617 1_455 S
S949 N951 1.606 . S
N950 S949 1.617 1_655 S
N950 C953 1.350 . S
N951 S949 1.606 . S
N951 C952 1.351 . S
C952 C946 1.428 . S
C952 N951 1.351 . S
C952 C953 1.434 1_455 S
C953 C944 1.429 . S
C953 N950 1.350 . S
C953 C952 1.434 1_655 S
C954 C955 1.369 . S
C954 C956 1.419 1_655 S
C954 H958 0.930 . S
C955 C954 1.369 . S
C955 C964 1.429 . S
C956 C954 1.419 1_455 S
C956 C957 1.363 . S
C956 H959 0.929 . S
C957 C956 1.363 . S
C957 C963 1.428 . S
H958 C954 0.930 . S
H959 C956 0.929 . S
S960 N961 1.617 1_454 S
S960 N962 1.606 1_554 S
N961 S960 1.617 1_656 S
N961 C964 1.350 . S
N962 S960 1.606 1_556 S
N962 C963 1.351 . S
C963 C957 1.428 . S
C963 N962 1.351 . S
C963 C964 1.434 1_455 S
C964 C955 1.429 . S
C964 N961 1.350 . S
C964 C963 1.434 1_655 S
C965 C966 1.369 . S
C965 C967 1.419 . S
C965 H969 0.930 . S
C966 C965 1.369 . S
C966 C975 1.429 . S
C967 C965 1.419 . S
C967 C968 1.363 . S
C967 H970 0.929 . S
C968 C967 1.363 . S
C968 C974 1.428 . S
H969 C965 0.930 . S
H970 C967 0.929 . S
S971 N972 1.613 . S
S971 N973 1.610 . S
N972 S971 1.613 . S
N972 C975 1.350 . S
N973 S971 1.610 . S
N973 C974 1.351 . S
C974 C968 1.428 . S
C974 N973 1.351 . S
C974 C975 1.434 . S
C975 C966 1.429 . S
C975 N972 1.350 . S
C975 C974 1.434 . S
C976 C977 1.369 . S
C976 C978 1.419 . S
C976 H980 0.930 . S
C977 C976 1.369 . S
C977 C986 1.429 . S
C978 C976 1.419 . S
C978 C979 1.363 . S
C978 H981 0.929 . S
C979 C978 1.363 . S
C979 C985 1.428 . S
H980 C976 0.930 . S
H981 C978 0.929 . S
S982 N983 1.613 . S
S982 N984 1.610 . S
N983 S982 1.613 . S
N983 C986 1.350 . S
N984 S982 1.610 . S
N984 C985 1.351 . S
C985 C979 1.428 . S
C985 N984 1.351 . S
C985 C986 1.434 . S
C986 C977 1.429 . S
C986 N983 1.350 . S
C986 C985 1.434 . S
C987 C988 1.369 1_545 S
C987 C989 1.419 . S
C987 H991 0.930 . S
C988 C987 1.369 1_565 S
C988 C997 1.429 . S
C989 C987 1.419 . S
C989 C990 1.363 . S
C989 H992 0.929 . S
C990 C989 1.363 . S
C990 C996 1.428 1_545 S
H991 C987 0.930 . S
H992 C989 0.929 . S
S993 N994 1.613 . S
S993 N995 1.610 . S
N994 S993 1.613 . S
N994 C997 1.350 . S
N995 S993 1.610 . S
N995 C996 1.351 . S
C996 C990 1.428 1_565 S
C996 N995 1.351 . S
C996 C997 1.434 . S
C997 C988 1.429 . S
C997 N994 1.350 . S
C997 C996 1.434 . S
C998 C999 1.369 . S
C998 C1000 1.419 . S
C998 H1002 0.930 . S
C999 C998 1.369 . S
C999 C1008 1.429 . S
C1000 C998 1.419 . S
C1000 C1001 1.363 . S
C1000 H1003 0.929 . S
C1001 C1000 1.363 . S
C1001 C1007 1.428 . S
H1002 C998 0.930 . S
H1003 C1000 0.929 . S
S1004 N1005 1.613 . S
S1004 N1006 1.610 . S
N1005 S1004 1.613 . S
N1005 C1008 1.350 . S
N1006 S1004 1.610 . S
N1006 C1007 1.351 . S
C1007 C1001 1.428 . S
C1007 N1006 1.351 . S
C1007 C1008 1.434 . S
C1008 C999 1.429 . S
C1008 N1005 1.350 . S
C1008 C1007 1.434 . S
C1009 C1010 1.369 . S
C1009 C1011 1.419 1_545 S
C1009 H1013 0.930 . S
C1010 C1009 1.369 . S
C1010 C1019 1.429 . S
C1011 C1009 1.419 1_565 S
C1011 C1012 1.363 . S
C1011 H1014 0.929 . S
C1012 C1011 1.363 . S
C1012 C1018 1.428 . S
H1013 C1009 0.930 . S
H1014 C1011 0.929 . S
S1015 N1016 1.613 1_565 S
S1015 N1017 1.610 . S
N1016 S1015 1.613 1_545 S
N1016 C1019 1.350 . S
N1017 S1015 1.610 . S
N1017 C1018 1.351 . S
C1018 C1012 1.428 . S
C1018 N1017 1.351 . S
C1018 C1019 1.434 1_565 S
C1019 C1010 1.429 . S
C1019 N1016 1.350 . S
C1019 C1018 1.434 1_545 S
C1020 C1021 1.369 . S
C1020 C1022 1.419 . S
C1020 H1024 0.930 . S
C1021 C1020 1.369 . S
C1021 C1030 1.429 . S
C1022 C1020 1.419 . S
C1022 C1023 1.363 . S
C1022 H1025 0.929 . S
C1023 C1022 1.363 . S
C1023 C1029 1.428 . S
H1024 C1020 0.930 . S
H1025 C1022 0.929 . S
S1026 N1027 1.613 . S
S1026 N1028 1.610 . S
N1027 S1026 1.613 . S
N1027 C1030 1.350 . S
N1028 S1026 1.610 . S
N1028 C1029 1.351 . S
C1029 C1023 1.428 . S
C1029 N1028 1.351 . S
C1029 C1030 1.434 . S
C1030 C1021 1.429 . S
C1030 N1027 1.350 . S
C1030 C1029 1.434 . S
C1031 C1032 1.369 . S
C1031 C1033 1.419 . S
C1031 H1035 0.930 . S
C1032 C1031 1.369 . S
C1032 C1041 1.429 1_545 S
C1033 C1031 1.419 . S
C1033 C1034 1.363 1_545 S
C1033 H1036 0.929 . S
C1034 C1033 1.363 1_565 S
C1034 C1040 1.428 . S
H1035 C1031 0.930 . S
H1036 C1033 0.929 . S
S1037 N1038 1.613 . S
S1037 N1039 1.610 . S
N1038 S1037 1.613 . S
N1038 C1041 1.350 . S
N1039 S1037 1.610 . S
N1039 C1040 1.351 . S
C1040 C1034 1.428 . S
C1040 N1039 1.351 . S
C1040 C1041 1.434 . S
C1041 C1032 1.429 1_565 S
C1041 N1038 1.350 . S
C1041 C1040 1.434 . S
C1042 C1043 1.369 . S
C1042 C1044 1.419 . S
C1042 H1046 0.930 . S
C1043 C1042 1.369 . S
C1043 C1052 1.429 . S
C1044 C1042 1.419 . S
C1044 C1045 1.363 . S
C1044 H1047 0.929 . S
C1045 C1044 1.363 . S
C1045 C1051 1.428 . S
H1046 C1042 0.930 . S
H1047 C1044 0.929 . S
S1048 N1049 1.613 . S
S1048 N1050 1.610 . S
N1049 S1048 1.613 . S
N1049 C1052 1.350 . S
N1050 S1048 1.610 . S
N1050 C1051 1.351 . S
C1051 C1045 1.428 . S
C1051 N1050 1.351 . S
C1051 C1052 1.434 . S
C1052 C1043 1.429 . S
C1052 N1049 1.350 . S
C1052 C1051 1.434 . S
C1053 C1054 1.369 . S
C1053 C1055 1.419 1_565 S
C1053 H1057 0.930 . S
C1054 C1053 1.369 . S
C1054 C1063 1.429 . S
C1055 C1053 1.419 1_545 S
C1055 C1056 1.363 . S
C1055 H1058 0.929 . S
C1056 C1055 1.363 . S
C1056 C1062 1.428 . S
H1057 C1053 0.930 . S
H1058 C1055 0.929 . S
S1059 N1060 1.613 1_545 S
S1059 N1061 1.610 . S
N1060 S1059 1.613 1_565 S
N1060 C1063 1.350 . S
N1061 S1059 1.610 . S
N1061 C1062 1.351 . S
C1062 C1056 1.428 . S
C1062 N1061 1.351 . S
C1062 C1063 1.434 1_545 S
C1063 C1054 1.429 . S
C1063 N1060 1.350 . S
C1063 C1062 1.434 1_565 S
C1064 C1065 1.369 . S
C1064 C1066 1.419 . S
C1064 H1068 0.930 . S
C1065 C1064 1.369 . S
C1065 C1074 1.429 . S
C1066 C1064 1.419 . S
C1066 C1067 1.363 . S
C1066 H1069 0.929 . S
C1067 C1066 1.363 . S
C1067 C1073 1.428 . S
H1068 C1064 0.930 . S
H1069 C1066 0.929 . S
S1070 N1071 1.613 . S
S1070 N1072 1.610 . S
N1071 S1070 1.613 . S
N1071 C1074 1.350 . S
N1072 S1070 1.610 . S
N1072 C1073 1.351 . S
C1073 C1067 1.428 . S
C1073 N1072 1.351 . S
C1073 C1074 1.434 . S
C1074 C1065 1.429 . S
C1074 N1071 1.350 . S
C1074 C1073 1.434 . S
C1075 C1076 1.369 . S
C1075 C1077 1.419 . S
C1075 H1079 0.930 . S
C1076 C1075 1.369 . S
C1076 C1085 1.429 . S
C1077 C1075 1.419 . S
C1077 C1078 1.363 . S
C1077 H1080 0.929 . S
C1078 C1077 1.363 . S
C1078 C1084 1.428 . S
H1079 C1075 0.930 . S
H1080 C1077 0.929 . S
S1081 N1082 1.613 . S
S1081 N1083 1.610 1_554 S
N1082 S1081 1.613 . S
N1082 C1085 1.350 . S
N1083 S1081 1.610 1_556 S
N1083 C1084 1.351 1_556 S
C1084 C1078 1.428 . S
C1084 N1083 1.351 1_554 S
C1084 C1085 1.434 . S
C1085 C1076 1.429 . S
C1085 N1082 1.350 . S
C1085 C1084 1.434 . S
C1086 C1087 1.369 . S
C1086 C1088 1.419 . S
C1086 H1090 0.930 . S
C1087 C1086 1.369 . S
C1087 C1096 1.429 . S
C1088 C1086 1.419 . S
C1088 C1089 1.363 . S
C1088 H1091 0.929 . S
C1089 C1088 1.363 . S
C1089 C1095 1.428 . S
H1090 C1086 0.930 . S
H1091 C1088 0.929 . S
S1092 N1093 1.613 . S
S1092 N1094 1.610 . S
N1093 S1092 1.613 . S
N1093 C1096 1.350 . S
N1094 S1092 1.610 . S
N1094 C1095 1.351 . S
C1095 C1089 1.428 . S
C1095 N1094 1.351 . S
C1095 C1096 1.434 . S
C1096 C1087 1.429 . S
C1096 N1093 1.350 . S
C1096 C1095 1.434 . S
C1097 C1098 1.369 . S
C1097 C1099 1.419 . S
C1097 H1101 0.930 . S
C1098 C1097 1.369 . S
C1098 C1107 1.429 . S
C1099 C1097 1.419 . S
C1099 C1100 1.363 . S
C1099 H1102 0.929 . S
C1100 C1099 1.363 . S
C1100 C1106 1.428 . S
H1101 C1097 0.930 . S
H1102 C1099 0.929 . S
S1103 N1104 1.613 . S
S1103 N1105 1.610 . S
N1104 S1103 1.613 . S
N1104 C1107 1.350 . S
N1105 S1103 1.610 . S
N1105 C1106 1.351 . S
C1106 C1100 1.428 . S
C1106 N1105 1.351 . S
C1106 C1107 1.434 . S
C1107 C1098 1.429 . S
C1107 N1104 1.350 . S
C1107 C1106 1.434 . S
C1108 C1109 1.369 . S
C1108 C1110 1.419 . S
C1108 H1112 0.930 . S
C1109 C1108 1.369 . S
C1109 C1118 1.429 . S
C1110 C1108 1.419 . S
C1110 C1111 1.363 . S
C1110 H1113 0.929 . S
C1111 C1110 1.363 . S
C1111 C1117 1.428 . S
H1112 C1108 0.930 . S
H1113 C1110 0.929 . S
S1114 N1115 1.613 . S
S1114 N1116 1.610 . S
N1115 S1114 1.613 . S
N1115 C1118 1.350 . S
N1116 S1114 1.610 . S
N1116 C1117 1.351 . S
C1117 C1111 1.428 . S
C1117 N1116 1.351 . S
C1117 C1118 1.434 . S
C1118 C1109 1.429 . S
C1118 N1115 1.350 . S
C1118 C1117 1.434 . S
C1119 C1120 1.369 . S
C1119 C1121 1.419 . S
C1119 H1123 0.930 . S
C1120 C1119 1.369 . S
C1120 C1129 1.429 . S
C1121 C1119 1.419 . S
C1121 C1122 1.363 . S
C1121 H1124 0.929 . S
C1122 C1121 1.363 . S
C1122 C1128 1.428 . S
H1123 C1119 0.930 . S
H1124 C1121 0.929 . S
S1125 N1126 1.613 . S
S1125 N1127 1.610 . S
N1126 S1125 1.613 . S
N1126 C1129 1.350 . S
N1127 S1125 1.610 . S
N1127 C1128 1.351 . S
C1128 C1122 1.428 . S
C1128 N1127 1.351 . S
C1128 C1129 1.434 . S
C1129 C1120 1.429 . S
C1129 N1126 1.350 . S
C1129 C1128 1.434 . S
C1130 C1131 1.369 . S
C1130 C1132 1.419 . S
C1130 H1134 0.930 . S
C1131 C1130 1.369 . S
C1131 C1140 1.429 . S
C1132 C1130 1.419 . S
C1132 C1133 1.363 . S
C1132 H1135 0.929 . S
C1133 C1132 1.363 . S
C1133 C1139 1.428 . S
H1134 C1130 0.930 . S
H1135 C1132 0.929 . S
S1136 N1137 1.613 . S
S1136 N1138 1.610 . S
N1137 S1136 1.613 . S
N1137 C1140 1.350 . S
N1138 S1136 1.610 . S
N1138 C1139 1.351 . S
C1139 C1133 1.428 . S
C1139 N1138 1.351 . S
C1139 C1140 1.434 . S
C1140 C1131 1.429 . S
C1140 N1137 1.350 . S
C1140 C1139 1.434 . S
C1141 C1142 1.369 . S
C1141 C1143 1.419 . S
C1141 H1145 0.930 . S
C1142 C1141 1.369 . S
C1142 C1151 1.429 . S
C1143 C1141 1.419 . S
C1143 C1144 1.363 . S
C1143 H1146 0.929 . S
C1144 C1143 1.363 . S
C1144 C1150 1.428 . S
H1145 C1141 0.930 . S
H1146 C1143 0.929 . S
S1147 N1148 1.613 . S
S1147 N1149 1.610 . S
N1148 S1147 1.613 . S
N1148 C1151 1.350 . S
N1149 S1147 1.610 . S
N1149 C1150 1.351 . S
C1150 C1144 1.428 . S
C1150 N1149 1.351 . S
C1150 C1151 1.434 . S
C1151 C1142 1.429 . S
C1151 N1148 1.350 . S
C1151 C1150 1.434 . S
C449 C109 1.569 . S
C451 C11 1.563 . S
C460 C25 1.565 . S
C462 C67 1.564 . S
C471 C81 1.567 . S
C473 C39 1.565 . S
C482 C53 1.562 . S
C484 C95 1.568 . S
C493 C123 1.566 . S
C495 C221 1.566 . S
C504 C137 1.564 . S
C506 C179 1.568 . S
C515 C151 1.569 . S
C517 C193 1.562 . S
C526 C165 1.566 . S
C528 C207 1.563 . S
C537 C235 1.561 . S
C539 C333 1.569 . S
C548 C249 1.566 . S
C550 C291 1.566 . S
C559 C305 1.569 . S
C561 C263 1.562 . S
C570 C319 1.560 . S
C572 C277 1.569 . S
C581 C347 1.563 . S
C583 C445 1.568 . S
C592 C403 1.570 . S
C594 C361 1.563 . S
C603 C417 1.568 . S
C605 C375 1.564 . S
C614 C389 1.567 . S
C616 C431 1.565 . S
C625 C9 0.846 . S
C627 C93 0.841 . S
C636 C23 0.838 . S
C638 C107 0.848 1_554 S
C647 C65 0.849 . S
C649 C37 0.840 . S
C658 C51 0.849 . S
C660 C79 0.840 . S
C669 C121 0.840 . S
C671 C205 0.846 . S
C680 C135 0.846 1_554 S
C682 C219 0.841 . S
C691 C177 0.842 . S
C693 C149 0.844 . S
C702 C191 0.839 . S
C704 C163 0.847 . S
C713 C233 0.842 . S
C715 C317 0.846 . S
C724 C331 0.841 . S
C726 C247 0.847 . S
C735 C289 0.842 . S
C737 C261 0.844 . S
C746 C275 0.846 . S
C748 C303 0.841 1_554 S
C757 C345 0.841 . S
C759 C429 0.846 . S
C768 C359 0.848 . S
C770 C443 0.839 . S
C779 C401 0.845 . S
C781 C373 0.842 . S
C790 C415 0.846 . S
C792 C387 0.843 1_554 S
C801 C5 1.517 . S
C803 C425 1.517 . S
C812 C19 1.516 . S
C814 C215 1.516 . S
C823 C33 1.518 . S
C825 C397 1.517 . S
C834 C47 1.516 . S
C836 C187 1.516 . S
C845 C61 1.516 . S
C847 C369 1.517 . S
C856 C75 1.517 . S
C858 C159 1.517 . S
C867 C89 1.517 . S
C869 C341 1.517 . S
C878 C131 1.516 . S
C880 C103 1.516 . S
C889 C313 1.518 . S
C891 C117 1.517 . S
C900 C145 1.517 . S
C902 C285 1.517 . S
C911 C257 1.516 . S
C913 C173 1.516 . S
C922 C229 1.517 . S
C924 C201 1.517 . S
C933 C243 1.516 . S
C935 C439 1.516 . S
C944 C271 1.516 . S
C946 C411 1.516 . S
C955 C299 1.517 . S
C957 C383 1.517 . S
C966 C355 1.516 . S
C968 C327 1.516 . S
C977 C0 1.581 . S
C979 C84 1.578 . S
C988 C14 1.583 . S
C990 C98 1.579 . S
C999 C56 1.584 . S
C1001 C28 1.582 . S
C1010 C42 1.577 1_554 S
C1012 C70 1.580 . S
C1021 C112 1.584 . S
C1023 C196 1.579 . S
C1032 C126 1.578 . S
C1034 C210 1.580 . S
C1043 C168 1.584 . S
C1045 C140 1.579 . S
C1054 C154 1.581 . S
C1056 C182 1.583 1_554 S
C1065 C308 1.583 . S
C1067 C224 1.583 . S
C1076 C322 1.583 . S
C1078 C238 1.579 1_554 S
C1087 C280 1.580 . S
C1089 C252 1.583 . S
C1098 C294 1.584 . S
C1100 C266 1.581 . S
C1109 C420 1.577 . S
C1111 C336 1.581 . S
C1120 C434 1.584 1_554 S
C1122 C350 1.582 . S
C1131 C364 1.578 . S
C1133 C392 1.579 . S
C1142 C406 1.579 . S
C1144 C378 1.583 . S
